# Generated by pormake.
# Topology wkb, (5)-cn, num edge types: 1
# Building blocks:
#     Node 0, Type 0, BuildingBlock: XOMCOT_clean_sbu_0, # of connection points: 5
#     Node 1, Type 0, BuildingBlock: XOMCOT_clean_sbu_0, # of connection points: 5
#     Node 2, Type 0, BuildingBlock: XOMCOT_clean_sbu_0, # of connection points: 5
#     Node 3, Type 0, BuildingBlock: XOMCOT_clean_sbu_0, # of connection points: 5
#     Node 4, Type 0, BuildingBlock: XOMCOT_clean_sbu_0, # of connection points: 5
#     Node 5, Type 0, BuildingBlock: XOMCOT_clean_sbu_0, # of connection points: 5
#     Node 6, Type 0, BuildingBlock: XOMCOT_clean_sbu_0, # of connection points: 5
#     Node 7, Type 0, BuildingBlock: XOMCOT_clean_sbu_0, # of connection points: 5
#     Node 8, Type 0, BuildingBlock: XOMCOT_clean_sbu_0, # of connection points: 5
#     Node 9, Type 0, BuildingBlock: XOMCOT_clean_sbu_0, # of connection points: 5
#     Node 10, Type 0, BuildingBlock: XOMCOT_clean_sbu_0, # of connection points: 5
#     Node 11, Type 0, BuildingBlock: XOMCOT_clean_sbu_0, # of connection points: 5
#     Edge 12, Type (0, 0), BuildingBlock: ZUJKAS_clean_linker_0, # of connection points: 2
#     Edge 13, Type (0, 0), BuildingBlock: ZUJKAS_clean_linker_0, # of connection points: 2
#     Edge 14, Type (0, 0), BuildingBlock: ZUJKAS_clean_linker_0, # of connection points: 2
#     Edge 15, Type (0, 0), BuildingBlock: ZUJKAS_clean_linker_0, # of connection points: 2
#     Edge 16, Type (0, 0), BuildingBlock: ZUJKAS_clean_linker_0, # of connection points: 2
#     Edge 17, Type (0, 0), BuildingBlock: ZUJKAS_clean_linker_0, # of connection points: 2
#     Edge 18, Type (0, 0), BuildingBlock: ZUJKAS_clean_linker_0, # of connection points: 2
#     Edge 19, Type (0, 0), BuildingBlock: ZUJKAS_clean_linker_0, # of connection points: 2
#     Edge 20, Type (0, 0), BuildingBlock: ZUJKAS_clean_linker_0, # of connection points: 2
#     Edge 21, Type (0, 0), BuildingBlock: ZUJKAS_clean_linker_0, # of connection points: 2
#     Edge 22, Type (0, 0), BuildingBlock: ZUJKAS_clean_linker_0, # of connection points: 2
#     Edge 23, Type (0, 0), BuildingBlock: ZUJKAS_clean_linker_0, # of connection points: 2
#     Edge 24, Type (0, 0), BuildingBlock: ZUJKAS_clean_linker_0, # of connection points: 2
#     Edge 25, Type (0, 0), BuildingBlock: ZUJKAS_clean_linker_0, # of connection points: 2
#     Edge 26, Type (0, 0), BuildingBlock: ZUJKAS_clean_linker_0, # of connection points: 2
#     Edge 27, Type (0, 0), BuildingBlock: ZUJKAS_clean_linker_0, # of connection points: 2
#     Edge 28, Type (0, 0), BuildingBlock: ZUJKAS_clean_linker_0, # of connection points: 2
#     Edge 29, Type (0, 0), BuildingBlock: ZUJKAS_clean_linker_0, # of connection points: 2
#     Edge 30, Type (0, 0), BuildingBlock: ZUJKAS_clean_linker_0, # of connection points: 2
#     Edge 31, Type (0, 0), BuildingBlock: ZUJKAS_clean_linker_0, # of connection points: 2
#     Edge 32, Type (0, 0), BuildingBlock: ZUJKAS_clean_linker_0, # of connection points: 2
#     Edge 33, Type (0, 0), BuildingBlock: ZUJKAS_clean_linker_0, # of connection points: 2
#     Edge 34, Type (0, 0), BuildingBlock: ZUJKAS_clean_linker_0, # of connection points: 2
#     Edge 35, Type (0, 0), BuildingBlock: ZUJKAS_clean_linker_0, # of connection points: 2
#     Edge 36, Type (0, 0), BuildingBlock: ZUJKAS_clean_linker_0, # of connection points: 2
#     Edge 37, Type (0, 0), BuildingBlock: ZUJKAS_clean_linker_0, # of connection points: 2
#     Edge 38, Type (0, 0), BuildingBlock: ZUJKAS_clean_linker_0, # of connection points: 2
#     Edge 39, Type (0, 0), BuildingBlock: ZUJKAS_clean_linker_0, # of connection points: 2
#     Edge 40, Type (0, 0), BuildingBlock: ZUJKAS_clean_linker_0, # of connection points: 2
#     Edge 41, Type (0, 0), BuildingBlock: ZUJKAS_clean_linker_0, # of connection points: 2
# Relax obj value: 0.098
# Max RMSD: 0.139
# Mean RMSD: 0.139
data_MOF--net-wkb--node1-XOMCOT_clean_sbu_0--edge1-ZUJKAS_clean_linker_0
_symmetry_space_group_name_H-M    P1
_symmetry_Int_Tables_number       1
_symmetry_cell_setting            triclinic
loop_
_symmetry_equiv_pos_as_xyz
'x, y, z'
_cell_length_a     59.044601
_cell_length_b     59.079964
_cell_length_c     45.459212
_cell_angle_alpha  90.026232
_cell_angle_beta   89.877257
_cell_angle_gamma 119.98702
loop_
_atom_site_label
_atom_site_type_symbol
_atom_site_fract_x
_atom_site_fract_y
_atom_site_fract_z
_atom_type_partial_charge
Co0 Co 0.0625 0.34061 0.0781 0.0
C1 C 0.05163 0.33725 0.01408 0.0
C2 C 1.01698 0.31128 0.03825 0.0
C3 C 1.01063 0.30992 0.00901 0.0
N4 N 0.04275 0.32842 0.04158 0.0
N5 N 0.03235 0.32629 0.99379 0.0
H6 H 0.07157 0.35207 0.00918 0.0
H7 H 1.00326 0.30074 0.05566 0.0
C8 C 0.11841 0.35451 0.06215 0.0
O9 O 0.12807 0.36927 0.08554 0.0
N10 N 0.0817 0.35265 0.11477 0.0
C11 C 0.08348 0.37207 0.13192 0.0
C12 C 0.09784 0.37394 0.15651 0.0
C13 C 0.09392 0.34214 0.1299 0.0
N14 N 0.10474 0.35534 0.15512 0.0
C15 C 0.04877 0.37929 0.067 0.0
C16 C 0.09828 0.42262 0.0659 0.0
C17 C 0.07659 0.42632 0.06689 0.0
C18 C 0.05158 0.40416 0.06625 0.0
C19 C 0.09457 0.39727 0.06656 0.0
N20 N 0.07002 0.37597 0.0685 0.0
H21 H 1.02927 0.36255 0.06765 0.0
H22 H 0.11155 0.39525 0.06694 0.0
H23 H 0.07478 0.38397 0.12708 0.0
H24 H 0.09581 0.32594 0.1218 0.0
O25 O 1.0309 0.32987 0.10044 0.0
O26 O 0.04803 0.30471 0.09153 0.0
O27 O 0.09402 0.34384 0.05599 0.0
C28 C 1.0296 0.30742 0.10395 0.0
H29 H 0.99139 0.29777 0.99969 0.0
H30 H 0.10263 0.38792 0.17412 0.0
H31 H 0.118 0.43915 0.06617 0.0
H32 H 0.03421 0.40598 0.06604 0.0
Co33 Co 0.75046 0.04992 0.24552 0.0
C34 C 0.73379 0.03221 0.18231 0.0
C35 C 0.76831 0.03184 0.19587 0.0
C36 C 0.76394 0.02491 0.16682 0.0
N37 N 0.74941 0.03631 0.20597 0.0
N38 N 0.74225 0.02512 0.1581 0.0
H39 H 0.71736 0.0354 0.18211 0.0
H40 H 0.78508 0.03467 0.20836 0.0
C41 C 0.78464 0.09674 0.20894 0.0
O42 O 0.7653 0.08878 0.19012 0.0
N43 N 0.75291 0.06371 0.28468 0.0
C44 C 0.73328 0.0581 0.30368 0.0
C45 C 0.74362 0.07318 0.32857 0.0
C46 C 0.77485 0.08182 0.29822 0.0
N47 N 0.76979 0.08811 0.32509 0.0
C48 C 0.69976 0.04144 0.23137 0.0
C49 C 0.71052 0.09216 0.24002 0.0
C50 C 0.68448 0.07254 0.23524 0.0
C51 C 0.67939 0.04697 0.23045 0.0
C52 C 0.73044 0.0858 0.24056 0.0
N53 N 0.72499 0.06068 0.23597 0.0
H54 H 0.69509 0.02136 0.22918 0.0
H55 H 0.74999 0.10083 0.24633 0.0
H56 H 0.71288 0.04431 0.29956 0.0
H57 H 0.79407 0.09064 0.28828 0.0
O58 O 0.72633 1.01503 0.25955 0.0
O59 O 0.76933 0.03278 0.25921 0.0
O60 O 0.78145 0.08426 0.23295 0.0
C61 C 0.74658 1.01261 0.26513 0.0
H62 H 0.77674 0.02141 0.15286 0.0
H63 H 0.73267 0.07305 0.34774 0.0
H64 H 0.71541 0.11216 0.24409 0.0
H65 H 0.65959 0.031 0.22747 0.0
Co66 Co 0.71192 0.7294 0.4133 0.0
C67 C 0.71821 0.72483 0.34884 0.0
C68 C 0.73766 0.70887 0.37395 0.0
C69 C 0.74043 0.70522 0.34464 0.0
N70 N 0.7238 0.72129 0.37678 0.0
N71 N 0.72817 0.71515 0.32879 0.0
H72 H 0.70637 0.73347 0.34329 0.0
H73 H 0.74496 0.70224 0.39175 0.0
C74 C 0.6981 0.77148 0.39813 0.0
O75 O 0.68274 0.76537 0.42121 0.0
N76 N 0.70019 0.73691 0.45007 0.0
C77 C 0.68033 0.71956 0.46698 0.0
C78 C 0.67853 0.7322 0.4915 0.0
C79 C 0.71095 0.75965 0.46523 0.0
N80 N 0.69753 0.75755 0.49028 0.0
C81 C 0.6719 0.67666 0.40531 0.0
C82 C 0.63002 0.68446 0.397 0.0
C83 C 0.62514 0.65877 0.40022 0.0
C84 C 0.64668 0.6551 0.40366 0.0
C85 C 0.65569 0.70558 0.39868 0.0
N86 N 0.67624 0.70163 0.40405 0.0
H87 H 0.688 0.67317 0.40856 0.0
H88 H 0.65849 0.72478 0.3961 0.0
H89 H 0.66799 0.69905 0.462 0.0
H90 H 0.72741 0.77759 0.4572 0.0
O91 O 0.72284 0.70869 0.43579 0.0
O92 O 0.74807 0.75073 0.42616 0.0
O93 O 0.70889 0.75795 0.39136 0.0
C94 C 0.74551 0.7297 0.43859 0.0
H95 H 0.75073 0.6959 0.3357 0.0
H96 H 0.66422 0.7232 0.50889 0.0
H97 H 0.61411 0.68829 0.39344 0.0
H98 H 0.6441 0.63573 0.40625 0.0
Co99 Co 1.00528 0.70956 0.57818 0.0
C100 C 1.02355 0.71025 0.51521 0.0
C101 C 1.0276 0.74661 0.52962 0.0
C102 C 0.03573 0.74938 0.50097 0.0
N103 N 1.02018 0.7222 0.53902 0.0
N104 N 0.03323 0.72658 0.49178 0.0
H105 H 1.01819 0.68994 0.51435 0.0
H106 H 1.02628 0.76138 0.54229 0.0
C107 C 0.95917 0.69784 0.54048 0.0
O108 O 0.96701 0.68607 0.52199 0.0
N109 N 0.99033 0.69829 0.61692 0.0
C110 C 0.9959 0.68503 0.63699 0.0
C111 C 0.98117 0.68177 0.66193 0.0
C112 C 0.97248 0.70297 0.62978 0.0
N113 N 0.96641 0.69301 0.65728 0.0
C114 C 1.01344 0.66723 0.56442 0.0
C115 C 0.96277 0.62729 0.57375 0.0
C116 C 0.98268 0.62103 0.57048 0.0
C117 C 1.00813 0.64142 0.56495 0.0
C118 C 0.96896 0.65357 0.57311 0.0
N119 N 0.99413 0.67323 0.56856 0.0
H120 H 0.03349 0.68262 0.56172 0.0
H121 H 0.95383 0.65816 0.57826 0.0
H122 H 1.00966 0.67822 0.63371 0.0
H123 H 0.96445 0.71391 0.61943 0.0
O124 O 0.0395 0.71917 0.59329 0.0
O125 O 1.02311 0.74555 0.59237 0.0
O126 O 0.97154 0.70715 0.56454 0.0
C127 C 0.04266 0.7421 0.59887 0.0
H128 H 0.04181 0.76658 0.4875 0.0
H129 H 0.98107 0.6716 0.68177 0.0
H130 H 0.9429 0.61221 0.57856 0.0
H131 H 1.02411 0.63757 0.562 0.0
Co132 Co 0.32264 0.99236 0.74408 0.0
C133 C 0.32128 1.00407 0.67979 0.0
C134 C 0.35674 0.03217 0.70072 0.0
C135 C 0.35747 0.03966 0.67209 0.0
N136 N 0.33438 1.00939 0.70568 0.0
N137 N 0.33523 0.02202 0.65884 0.0
H138 H 0.30158 0.98818 0.67648 0.0
H139 H 0.37127 0.04368 0.71695 0.0
C140 C 0.29331 0.9454 0.70395 0.0
O141 O 0.31494 0.95134 0.68962 0.0
N142 N 0.31123 0.97635 0.78231 0.0
C143 C 0.32675 0.98127 0.80591 0.0
C144 C 0.31155 0.9672 0.82942 0.0
C145 C 0.28677 0.95932 0.79167 0.0
N146 N 0.28644 0.95343 0.82048 0.0
C147 C 0.37387 0.99851 0.74359 0.0
C148 C 0.35949 0.94653 0.74968 0.0
C149 C 0.38621 0.96541 0.74973 0.0
C150 C 0.39315 0.99164 0.74635 0.0
C151 C 0.34065 0.95433 0.74689 0.0
N152 N 0.34795 0.9801 0.74313 0.0
H153 H 0.38005 1.01893 0.74343 0.0
H154 H 0.32023 0.93973 0.74895 0.0
H155 H 0.34769 0.9943 0.806 0.0
H156 H 0.26958 0.95185 0.77792 0.0
O157 O 0.34409 0.02567 0.76315 0.0
O158 O 0.30302 1.01036 0.74943 0.0
O159 O 0.29378 0.95946 0.72555 0.0
C160 C 0.32406 0.02914 0.76142 0.0
H161 H 0.37322 0.05691 0.66186 0.0
H162 H 0.3185 0.96688 0.85134 0.0
H163 H 0.35318 0.92606 0.75297 0.0
H164 H 0.41346 1.00699 0.74641 0.0
Co165 Co 0.34568 0.30578 0.91074 0.0
C166 C 0.34506 0.31314 0.84626 0.0
C167 C 0.31662 0.31985 0.86791 0.0
C168 C 0.31528 0.32316 0.83822 0.0
N169 N 0.33515 0.31332 0.87309 0.0
N170 N 0.33309 0.31892 0.8246 0.0
H171 H 0.36048 0.3086 0.84265 0.0
H172 H 0.30478 0.32234 0.88426 0.0
C173 C 0.35926 0.2631 0.89794 0.0
O174 O 0.37199 0.26751 0.92283 0.0
N175 N 0.35586 0.29851 0.9486 0.0
C176 C 0.37515 0.31568 0.9662 0.0
C177 C 0.3752 0.30307 0.99163 0.0
C178 C 0.34363 0.27603 0.96421 0.0
N179 N 0.35551 0.27805 0.99029 0.0
C180 C 0.3854 0.35788 0.8999 0.0
C181 C 0.42818 0.35078 0.90228 0.0
C182 C 0.43234 0.37634 0.90192 0.0
C183 C 0.4105 0.37964 0.89957 0.0
C184 C 0.40261 0.32945 0.90246 0.0
N185 N 0.38156 0.33319 0.90257 0.0
H186 H 0.36885 0.36095 0.89918 0.0
H187 H 0.40015 0.31029 0.90407 0.0
H188 H 0.38834 0.33601 0.96104 0.0
H189 H 0.32683 0.25839 0.95619 0.0
O190 O 0.33438 0.32695 0.93141 0.0
O191 O 0.30916 0.28471 0.92229 0.0
O192 O 0.34966 0.27738 0.88998 0.0
C193 C 0.31167 0.30594 0.93415 0.0
H194 H 0.3024 0.32868 0.82748 0.0
H195 H 0.38919 0.31157 0.00934 0.0
H196 H 0.44444 0.34725 0.90397 0.0
H197 H 0.41271 0.39895 0.89832 0.0
Co198 Co 0.71719 0.98976 0.76249 0.0
C199 C 0.71693 1.0057 0.82619 0.0
C200 C 0.75463 1.01439 0.81053 0.0
C201 C 0.75678 0.02107 0.83964 0.0
N202 N 0.7297 1.00489 0.80164 0.0
N203 N 0.73311 1.01563 0.84968 0.0
H204 H 0.69613 0.9981 0.82748 0.0
H205 H 0.77031 1.01536 0.7973 0.0
C206 C 0.70529 0.94341 0.79998 0.0
O207 O 0.69238 0.95021 0.81807 0.0
N208 N 0.70604 0.97462 0.72386 0.0
C209 C 0.69159 0.97893 0.70422 0.0
C210 C 0.68894 0.96449 0.67926 0.0
C211 C 0.71218 0.95795 0.71066 0.0
N212 N 0.70193 0.95129 0.68333 0.0
C213 C 0.67471 0.99742 0.77769 0.0
C214 C 0.63494 0.94679 0.76798 0.0
C215 C 0.62838 0.9663 0.77309 0.0
C216 C 0.64878 0.99175 0.77877 0.0
C217 C 0.6613 0.95328 0.76742 0.0
N218 N 0.68085 0.97839 0.77228 0.0
H219 H 0.69009 1.01745 0.78058 0.0
H220 H 0.66602 0.93843 0.76132 0.0
H221 H 0.68366 0.99173 0.70775 0.0
H222 H 0.72381 0.95074 0.72104 0.0
O223 O 0.72666 0.02386 0.74694 0.0
O224 O 0.75303 1.00739 0.74813 0.0
O225 O 0.71511 0.95634 0.77633 0.0
C226 C 0.74955 0.02683 0.7412 0.0
H227 H 0.77431 0.02806 0.85272 0.0
H228 H 0.67858 0.96412 0.6595 0.0
H229 H 0.61999 0.92696 0.7629 0.0
H230 H 0.64486 1.00746 0.78329 0.0
Co231 Co 0.74481 0.70265 0.92904 0.0
C232 C 0.73952 0.70867 0.99337 0.0
C233 C 0.72485 0.72917 0.96802 0.0
C234 C 0.72089 0.73184 0.99727 0.0
N235 N 0.73664 0.7147 0.96538 0.0
N236 N 0.73001 0.71892 0.01327 0.0
H237 H 0.74758 0.69634 0.99904 0.0
H238 H 0.71883 0.73696 0.95013 0.0
C239 C 0.78699 0.6892 0.94442 0.0
O240 O 0.78089 0.67363 0.92158 0.0
N241 N 0.75247 0.69082 0.89248 0.0
C242 C 0.73529 0.67097 0.87544 0.0
C243 C 0.74811 0.66962 0.85075 0.0
C244 C 0.77529 0.70188 0.87736 0.0
N245 N 0.7733 0.68889 0.85212 0.0
C246 C 0.69229 0.66277 0.93802 0.0
C247 C 0.70023 0.62092 0.94567 0.0
C248 C 0.67454 0.6161 0.94279 0.0
C249 C 0.67076 0.63758 0.93981 0.0
C250 C 0.7213 0.64656 0.94394 0.0
N251 N 0.71728 0.66708 0.93877 0.0
H252 H 0.68877 0.67887 0.93503 0.0
H253 H 0.7405 0.64934 0.94628 0.0
H254 H 0.71483 0.65829 0.88053 0.0
H255 H 0.79311 0.71865 0.8851 0.0
O256 O 0.7238 0.71295 0.90641 0.0
O257 O 0.76589 0.73864 0.91567 0.0
O258 O 0.77352 0.70008 0.95097 0.0
C259 C 0.74471 0.73564 0.90319 0.0
H260 H 0.71193 0.74253 0.00605 0.0
H261 H 0.73971 0.65509 0.83353 0.0
H262 H 0.70407 0.60499 0.94889 0.0
H263 H 0.65134 0.63496 0.93757 0.0
Co264 Co 0.063 0.73842 0.09632 0.0
C265 C 0.05468 0.73065 0.16078 0.0
C266 C 1.02302 0.73268 0.14036 0.0
C267 C 1.01849 0.72965 0.17011 0.0
N268 N 0.04575 0.73334 0.13433 0.0
N269 N 0.03836 0.72839 0.18298 0.0
H270 H 0.07295 0.73082 0.16376 0.0
H271 H 1.01034 0.73442 0.12462 0.0
C272 C 0.11941 0.78197 0.10657 0.0
O273 O 0.12757 0.77638 0.08223 0.0
N274 N 0.07967 0.74324 0.05816 0.0
C275 C 0.08065 0.72468 0.04189 0.0
C276 C 0.09288 0.73552 0.01564 0.0
C277 C 0.09013 0.76477 0.04089 0.0
N278 N 0.09918 0.76087 0.0151 0.0
C279 C 0.05097 0.68678 0.11024 0.0
C280 C 0.10117 0.69466 0.10915 0.0
C281 C 0.08008 0.66898 0.11076 0.0
C282 C 0.05473 0.66531 0.11224 0.0
C283 C 0.09652 0.71565 0.10726 0.0
N284 N 0.0716 0.7115 0.10665 0.0
H285 H 1.03122 0.68342 0.11036 0.0
H286 H 0.11305 0.73485 0.10501 0.0
H287 H 0.07283 0.70454 0.04847 0.0
H288 H 0.09217 0.78322 0.04783 0.0
O289 O 1.03 0.71621 0.07712 0.0
O290 O 0.04769 0.75899 0.08278 0.0
O291 O 0.0957 0.76785 0.11524 0.0
C292 C 1.02859 0.73718 0.07249 0.0
H293 H 1.00167 0.72823 0.1814 0.0
H294 H 0.09675 0.72535 0.99829 0.0
H295 H 0.12113 0.69852 0.10861 0.0
H296 H 0.03777 0.6459 0.11343 0.0
Co297 Co 0.35316 0.05182 0.26162 0.0
C298 C 0.34388 0.041 0.3261 0.0
C299 C 0.33702 1.00704 0.30177 0.0
C300 C 0.33286 1.00058 0.33104 0.0
N301 N 0.34392 0.03241 0.29849 0.0
N302 N 0.3372 0.0219 0.34637 0.0
H303 H 0.34927 0.06088 0.33149 0.0
H304 H 0.33531 0.99393 0.28425 0.0
C305 C 0.36695 0.10763 0.27603 0.0
O306 O 0.38158 0.11654 0.25236 0.0
N307 N 0.36213 0.07031 0.22436 0.0
C308 C 0.3815 0.07367 0.20597 0.0
C309 C 0.38075 0.08677 0.18135 0.0
C310 C 0.34932 0.0807 0.2102 0.0
N311 N 0.36062 0.09134 0.18405 0.0
C312 C 0.39467 0.04059 0.26289 0.0
C313 C 0.43575 0.09007 0.27426 0.0
C314 C 0.44127 0.07018 0.26721 0.0
C315 C 0.42017 0.04501 0.26246 0.0
C316 C 0.40974 0.08476 0.27454 0.0
N317 N 0.38955 0.06045 0.26759 0.0
H318 H 0.37903 0.02102 0.25864 0.0
H319 H 0.40635 0.10046 0.27995 0.0
H320 H 0.39531 0.06708 0.21001 0.0
H321 H 0.33239 0.08085 0.21915 0.0
O322 O 0.34111 1.01986 0.23956 0.0
O323 O 0.3162 0.03637 0.25228 0.0
O324 O 0.35699 0.0836 0.28357 0.0
C325 C 0.31813 1.0177 0.23947 0.0
H326 H 0.32695 0.98154 0.34029 0.0
H327 H 0.39446 0.09304 0.1632 0.0
H328 H 0.4514 0.10977 0.2786 0.0
H329 H 0.42329 0.02876 0.25804 0.0
Co330 Co 0.31175 0.33098 0.42972 0.0
C331 C 0.32913 0.32891 0.49238 0.0
C332 C 0.29349 0.29503 0.47922 0.0
C333 C 0.29844 0.29172 0.50783 0.0
N334 N 0.31277 0.31818 0.46911 0.0
N335 N 0.32085 0.31297 0.51622 0.0
H336 H 0.34613 0.34815 0.4926 0.0
H337 H 0.27624 0.28166 0.46701 0.0
C338 C 0.27926 0.34546 0.46698 0.0
O339 O 0.29887 0.35608 0.48555 0.0
N340 N 0.30908 0.34231 0.39072 0.0
C341 C 0.32831 0.3561 0.37122 0.0
C342 C 0.31724 0.35923 0.34593 0.0
C343 C 0.2867 0.33702 0.37712 0.0
N344 N 0.29103 0.34717 0.34968 0.0
C345 C 0.3632 0.37156 0.4431 0.0
C346 C 0.35529 0.41326 0.43337 0.0
C347 C 0.381 0.41811 0.43674 0.0
C348 C 0.38459 0.39684 0.44256 0.0
C349 C 0.33422 0.38745 0.43422 0.0
N350 N 0.33833 0.36691 0.43899 0.0
H351 H 0.36681 0.35547 0.4458 0.0
H352 H 0.31488 0.38392 0.42901 0.0
H353 H 0.34887 0.36327 0.37508 0.0
H354 H 0.26765 0.3261 0.38733 0.0
O355 O 0.335 0.31939 0.41519 0.0
O356 O 0.29194 0.29489 0.41608 0.0
O357 O 0.28164 0.3357 0.44287 0.0
C358 C 0.31445 0.29696 0.40979 0.0
H359 H 0.28575 0.27539 0.52178 0.0
H360 H 0.32771 0.36926 0.32619 0.0
H361 H 0.3516 0.42904 0.42834 0.0
H362 H 0.40398 0.39956 0.44568 0.0
Co363 Co 0.99882 0.31 0.59564 0.0
C364 C 1.01614 0.32581 0.65876 0.0
C365 C 0.03225 0.30386 0.63955 0.0
C366 C 0.04044 0.30923 0.66819 0.0
N367 N 1.01701 0.3143 0.63322 0.0
N368 N 1.03025 0.32292 0.68038 0.0
H369 H 1.00508 0.33568 0.6619 0.0
H370 H 0.0367 0.29223 0.62489 0.0
C371 C 0.95364 0.27677 0.63633 0.0
O372 O 0.96023 0.29704 0.65337 0.0
N373 N 0.9809 0.30485 0.55857 0.0
C374 C 0.9839 0.32323 0.53897 0.0
C375 C 0.96768 0.31104 0.51536 0.0
C376 C 0.96323 0.28181 0.54659 0.0
N377 N 0.95468 0.28497 0.52017 0.0
C378 C 1.0084 0.36072 0.61121 0.0
C379 C 0.95781 0.35103 0.60445 0.0
C380 C 0.97794 0.37697 0.60875 0.0
C381 C 1.00345 0.38147 0.61268 0.0
C382 C 0.96362 0.33073 0.60317 0.0
N383 N 0.98872 0.33572 0.60649 0.0
H384 H 1.02838 0.36487 0.61277 0.0
H385 H 0.94816 0.31121 0.59793 0.0
H386 H 0.99701 0.344 0.54165 0.0
H387 H 0.95666 0.26314 0.55717 0.0
O388 O 0.03176 0.33365 0.57676 0.0
O389 O 1.01484 0.29081 0.57976 0.0
O390 O 0.96625 0.27925 0.61255 0.0
C391 C 0.03393 0.31328 0.57088 0.0
H392 H 0.05199 0.30241 0.67958 0.0
H393 H 0.96597 0.32067 0.49594 0.0
H394 H 0.93779 0.34648 0.60133 0.0
H395 H 1.01981 0.40108 0.61536 0.0
H396 H 0.23929 0.31063 0.34811 0.0
H397 H 0.2064 0.30883 0.31426 0.0
H398 H 0.26545 0.37787 0.27015 0.0
H399 H 0.29849 0.38006 0.30414 0.0
H400 H 0.19188 0.34651 0.30563 0.0
H401 H 0.22878 0.32691 0.20196 0.0
H402 H 0.23934 0.3227 0.23779 0.0
H403 H 0.25294 0.35477 0.22194 0.0
C404 C 0.24537 0.32554 0.33133 0.0
C405 C 0.27168 0.34554 0.32899 0.0
C406 C 0.2265 0.32436 0.31185 0.0
C407 C 0.23349 0.343 0.28942 0.0
C408 C 0.25969 0.36293 0.28688 0.0
H409 H 0.13957 0.3911 0.19347 0.0
H410 H 0.16901 0.38589 0.22643 0.0
C411 C 0.27859 0.36416 0.30639 0.0
C412 C 0.21317 0.34227 0.26956 0.0
H413 H 0.19583 0.33879 0.19729 0.0
C414 C 0.19265 0.34464 0.28196 0.0
C415 C 0.21397 0.33948 0.23871 0.0
C416 C 0.23479 0.33556 0.22426 0.0
C417 C 0.1734 0.34512 0.26429 0.0
C418 C 0.17485 0.34347 0.23336 0.0
C419 C 0.19487 0.34025 0.22099 0.0
C420 C 0.15637 0.34612 0.21349 0.0
C421 C 0.15165 0.34739 0.27888 0.0
C422 C 0.13967 0.32559 0.19482 0.0
C423 C 0.12249 0.3284 0.17592 0.0
C424 C 0.12186 0.35192 0.17514 0.0
C425 C 0.13889 0.37247 0.19379 0.0
C426 C 0.1559 0.36959 0.21268 0.0
H427 H 0.14934 0.3415 0.3024 0.0
H428 H 0.15624 0.36803 0.27787 0.0
H429 H 0.13276 0.33514 0.26745 0.0
H430 H 0.1398 0.30732 0.19502 0.0
H431 H 0.10965 0.31208 0.1621 0.0
H432 H 0.75999 0.11497 0.367 0.0
H433 H 0.7915 0.14823 0.40033 0.0
H434 H 0.8532 0.13859 0.36261 0.0
H435 H 0.82182 0.10525 0.32925 0.0
H436 H 0.82351 0.1453 0.44249 0.0
H437 H 0.88276 0.21725 0.35622 0.0
H438 H 0.85099 0.18936 0.34889 0.0
H439 H 0.87932 0.18556 0.35099 0.0
C440 C 0.7802 0.11974 0.36587 0.0
C441 C 0.78831 0.10744 0.34523 0.0
C442 C 0.79824 0.13888 0.3849 0.0
C443 C 0.82481 0.14625 0.38367 0.0
C444 C 0.83292 0.13371 0.3635 0.0
H445 H 0.94232 0.23406 0.51742 0.0
H446 H 0.9105 0.20018 0.48488 0.0
C447 C 0.81491 0.11461 0.34441 0.0
C448 C 0.84392 0.16683 0.40373 0.0
H449 H 0.89971 0.22655 0.40479 0.0
C450 C 0.84015 0.16309 0.43425 0.0
C451 C 0.86545 0.19021 0.39299 0.0
C452 C 0.86981 0.19604 0.36049 0.0
C453 C 0.85749 0.18189 0.4543 0.0
C454 C 0.87946 0.2049 0.44355 0.0
C455 C 0.88302 0.20881 0.41303 0.0
C456 C 0.89874 0.22541 0.46356 0.0
C457 C 0.85182 0.17716 0.48679 0.0
C458 C 0.90321 0.25106 0.46202 0.0
C459 C 0.92147 0.27052 0.48057 0.0
C460 C 0.93578 0.26482 0.50104 0.0
C461 C 0.93137 0.23911 0.50237 0.0
C462 C 0.91314 0.21967 0.48375 0.0
H463 H 0.83102 0.16239 0.49105 0.0
H464 H 0.86414 0.16973 0.49634 0.0
H465 H 0.85641 0.19552 0.49836 0.0
H466 H 0.89238 0.25599 0.4466 0.0
H467 H 0.92409 0.28997 0.4791 0.0
H468 H 0.74091 0.80573 0.49707 0.0
H469 H 0.74572 0.84081 0.52983 0.0
H470 H 0.66705 0.79173 0.56142 0.0
H471 H 0.66176 0.75697 0.52863 0.0
H472 H 0.71398 0.86535 0.53198 0.0
H473 H 0.71158 0.81685 0.63732 0.0
H474 H 0.71814 0.80661 0.60242 0.0
H475 H 0.68514 0.79692 0.61287 0.0
C476 C 0.72458 0.80234 0.51089 0.0
C477 C 0.70101 0.77821 0.5102 0.0
C478 C 0.72742 0.82243 0.52971 0.0
C479 C 0.70688 0.81873 0.54839 0.0
C480 C 0.68336 0.79483 0.54767 0.0
H481 H 0.66967 0.92487 0.63771 0.0
H482 H 0.67319 0.8945 0.60413 0.0
C483 C 0.68044 0.77485 0.52885 0.0
C484 C 0.70948 0.83993 0.56817 0.0
H485 H 0.70584 0.85397 0.64035 0.0
C486 C 0.71246 0.863 0.55569 0.0
C487 C 0.70775 0.83695 0.59911 0.0
C488 C 0.70572 0.81311 0.61382 0.0
C489 C 0.71282 0.88276 0.5733 0.0
C490 C 0.70985 0.87922 0.60416 0.0
C491 C 0.70784 0.85657 0.61668 0.0
C492 C 0.70834 0.89854 0.62385 0.0
C493 C 0.71639 0.90728 0.55874 0.0
C494 C 0.72668 0.91065 0.64643 0.0
C495 C 0.72476 0.92812 0.66569 0.0
C496 C 0.70428 0.93371 0.66298 0.0
C497 C 0.68593 0.92147 0.64026 0.0
C498 C 0.68792 0.90406 0.62098 0.0
H499 H 0.72532 0.91007 0.53654 0.0
H500 H 0.69701 0.90581 0.55616 0.0
H501 H 0.72888 0.92478 0.57232 0.0
H502 H 0.74256 0.90663 0.64912 0.0
H503 H 0.73948 0.93733 0.68257 0.0
H504 H 0.92248 0.69423 0.64302 0.0
H505 H 0.89088 0.69561 0.67694 0.0
H506 H 0.93638 0.69524 0.75073 0.0
H507 H 0.96816 0.69393 0.71694 0.0
H508 H 0.86403 0.65556 0.72786 0.0
H509 H 0.92231 0.76019 0.76068 0.0
H510 H 0.92729 0.7485 0.72587 0.0
H511 H 0.93841 0.74111 0.75921 0.0
C512 C 0.92592 0.6947 0.66645 0.0
C513 C 0.94789 0.69402 0.67727 0.0
C514 C 0.90778 0.69537 0.68578 0.0
C515 C 0.91143 0.69572 0.71629 0.0
C516 C 0.93334 0.69515 0.72723 0.0
H517 H 0.82394 0.70566 0.86582 0.0
H518 H 0.85781 0.70771 0.83281 0.0
C519 C 0.95137 0.69422 0.70791 0.0
C520 C 0.89186 0.69587 0.73666 0.0
H521 H 0.88119 0.73491 0.78338 0.0
C522 C 0.8677 0.67289 0.74 0.0
C523 C 0.8969 0.71843 0.75263 0.0
C524 C 0.92256 0.74359 0.74949 0.0
C525 C 0.84843 0.67178 0.75911 0.0
C526 C 0.85314 0.69456 0.77461 0.0
C527 C 0.87748 0.71751 0.77141 0.0
C528 C 0.83306 0.69487 0.79424 0.0
C529 C 0.82349 0.64598 0.76303 0.0
C530 C 0.80812 0.68781 0.78342 0.0
C531 C 0.78874 0.68647 0.80227 0.0
C532 C 0.794 0.69267 0.83225 0.0
C533 C 0.81934 0.70097 0.84279 0.0
C534 C 0.83868 0.70202 0.82397 0.0
H535 H 0.82622 0.62926 0.75702 0.0
H536 H 0.81634 0.6433 0.78608 0.0
H537 H 0.80819 0.64542 0.74841 0.0
H538 H 0.80352 0.68302 0.7604 0.0
H539 H 0.76954 0.68045 0.79343 0.0
H540 H 0.24315 0.9089 0.80308 0.0
H541 H 0.20789 0.87713 0.83481 0.0
H542 H 0.24445 0.92673 0.90994 0.0
H543 H 0.27977 0.95816 0.87848 0.0
H544 H 0.23333 0.87794 0.92056 0.0
H545 H 0.14564 0.87582 0.8739 0.0
H546 H 0.16426 0.86959 0.84715 0.0
H547 H 0.17848 0.90101 0.86477 0.0
C548 C 0.24335 0.91319 0.82627 0.0
C549 C 0.26432 0.93593 0.83833 0.0
C550 C 0.22315 0.89508 0.84438 0.0
C551 C 0.22334 0.89961 0.87478 0.0
C552 C 0.24385 0.92274 0.8866 0.0
H553 H 0.10241 0.80795 0.0051 0.0
H554 H 0.13187 0.84193 0.97071 0.0
C555 C 0.2641 0.94066 0.86861 0.0
C556 C 0.20355 0.87948 0.89479 0.0
H557 H 0.13795 0.8422 0.90842 0.0
C558 C 0.21249 0.87026 0.91794 0.0
C559 C 0.17634 0.86962 0.89164 0.0
C560 C 0.16557 0.87968 0.8682 0.0
C561 C 0.19507 0.85126 0.9377 0.0
C562 C 0.16784 0.84065 0.93387 0.0
C563 C 0.15882 0.85016 0.91111 0.0
C564 C 0.14862 0.81947 0.95323 0.0
C565 C 0.20604 0.84295 0.96275 0.0
C566 C 0.14781 0.79536 0.95433 0.0
C567 C 0.13123 0.77603 0.9741 0.0
C568 C 0.11483 0.78022 0.99316 0.0
C569 C 0.11499 0.8041 0.99119 0.0
C570 C 0.13169 0.82351 0.97137 0.0
H571 H 0.22677 0.85772 0.9673 0.0
H572 H 0.19447 0.83972 0.98319 0.0
H573 H 0.20526 0.82434 0.95689 0.0
H574 H 0.1604 0.79166 0.94021 0.0
H575 H 0.13197 0.75813 0.97496 0.0
H576 H 0.36731 0.28318 0.04846 0.0
H577 H 0.36358 0.24908 0.08189 0.0
H578 H 0.32825 0.19185 0.01298 0.0
H579 H 0.33238 0.22591 0.97911 0.0
H580 H 0.30431 0.17641 0.07359 0.0
H581 H 0.41177 0.21583 0.06868 0.0
H582 H 0.4014 0.23904 0.07697 0.0
H583 H 0.39456 0.22373 0.04147 0.0
C584 C 0.35871 0.26337 0.04035 0.0
C585 C 0.35043 0.25742 0.01093 0.0
C586 C 0.35648 0.24388 0.05956 0.0
C587 C 0.34589 0.21803 0.0498 0.0
C588 C 0.33647 0.21171 0.02092 0.0
H589 H 0.36984 0.09741 0.12538 0.0
H590 H 0.36381 0.12673 0.09265 0.0
C591 C 0.33876 0.23122 1.00162 0.0
C592 C 0.34621 0.19802 0.06919 0.0
H593 H 0.38771 0.18112 0.10175 0.0
C594 C 0.32249 0.17737 0.07979 0.0
C595 C 0.36997 0.19923 0.07693 0.0
C596 C 0.39592 0.2205 0.06531 0.0
C597 C 0.32199 0.15805 0.09835 0.0
C598 C 0.34583 0.15957 0.10652 0.0
C599 C 0.36947 0.18007 0.09558 0.0
C600 C 0.3469 0.13996 0.12598 0.0
C601 C 0.29603 0.13596 0.10871 0.0
C602 C 0.33914 0.13743 0.15558 0.0
C603 C 0.34274 0.12076 0.17448 0.0
C604 C 0.3543 0.10642 0.16412 0.0
C605 C 0.36126 0.10844 0.13422 0.0
C606 C 0.3577 0.12509 0.11541 0.0
H607 H 0.27951 0.13447 0.09553 0.0
H608 H 0.29574 0.11704 0.10752 0.0
H609 H 0.2929 0.13935 0.132 0.0
H610 H 0.33118 0.14907 0.16433 0.0
H611 H 0.33748 0.11995 0.19743 0.0
H612 H 0.04828 0.44024 0.10248 0.0
H613 H 0.05322 0.48344 0.10929 0.0
H614 H 0.11773 0.51607 0.04809 0.0
H615 H 0.11248 0.47256 0.04048 0.0
H616 H 0.0976 0.52943 0.12951 0.0
H617 H 0.06884 0.5417 0.01675 0.0
H618 H 0.06215 0.51037 0.03083 0.0
H619 H 0.09457 0.53389 0.01896 0.0
C620 C 0.06327 0.45648 0.09005 0.0
C621 C 0.07977 0.45282 0.07061 0.0
C622 C 0.06622 0.48123 0.0942 0.0
C623 C 0.08563 0.50292 0.07897 0.0
C624 C 0.10235 0.49951 0.05974 0.0
H625 H 0.11478 0.66337 0.07575 0.0
H626 H 0.11907 0.62456 0.06951 0.0
C627 C 0.09946 0.47468 0.0556 0.0
C628 C 0.08831 0.52903 0.08367 0.0
H629 H 0.08111 0.57663 0.04979 0.0
C630 C 0.09411 0.53983 0.11206 0.0
C631 C 0.08385 0.54259 0.06086 0.0
C632 C 0.0768 0.53156 0.03015 0.0
C633 C 0.0954 0.56374 0.1183 0.0
C634 C 0.09024 0.57697 0.09568 0.0
C635 C 0.08505 0.56647 0.06712 0.0
C636 C 0.08909 0.60117 0.10131 0.0
C637 C 0.10247 0.57469 0.14904 0.0
C638 C 0.0709 0.60101 0.12139 0.0
C639 C 0.06856 0.62325 0.12523 0.0
C640 C 0.08422 0.64611 0.10887 0.0
C641 C 0.10271 0.64631 0.0891 0.0
C642 C 0.10504 0.62405 0.0853 0.0
H643 H 0.11344 0.56678 0.16094 0.0
H644 H 0.11445 0.59634 0.1487 0.0
H645 H 0.08428 0.56909 0.1616 0.0
H646 H 0.05801 0.58345 0.13359 0.0
H647 H 0.05423 0.62243 0.14076 0.0
H648 H 0.48437 0.10106 0.30156 0.0
H649 H 0.52878 0.10786 0.29625 0.0
H650 H 0.50408 0.05721 0.22051 0.0
H651 H 0.46018 0.05094 0.22512 0.0
H652 H 0.54401 0.07007 0.29815 0.0
H653 H 0.57041 0.12056 0.19047 0.0
H654 H 0.54318 0.11709 0.21215 0.0
H655 H 0.53974 0.09051 0.1896 0.0
C656 C 0.48853 0.09171 0.28352 0.0
C657 C 0.46863 0.07537 0.26385 0.0
C658 C 0.51388 0.0955 0.2806 0.0
C659 C 0.5199 0.08334 0.25772 0.0
C660 C 0.50011 0.06722 0.23799 0.0
H661 H 0.64055 0.05284 0.20083 0.0
H662 H 0.6023 0.05805 0.20747 0.0
C663 C 0.47487 0.06338 0.24092 0.0
C664 C 0.54638 0.08624 0.2551 0.0
H665 H 0.59645 0.1022 0.20654 0.0
C666 C 0.55569 0.07748 0.27832 0.0
C667 C 0.56161 0.09586 0.22918 0.0
C668 C 0.55337 0.10678 0.20404 0.0
C669 C 0.57917 0.07692 0.27579 0.0
C670 C 0.59401 0.08582 0.24951 0.0
C671 C 0.58506 0.0953 0.22663 0.0
C672 C 0.61809 0.08413 0.24472 0.0
C673 C 0.58727 0.06571 0.30077 0.0
C674 C 0.64004 0.09759 0.26296 0.0
C675 C 0.66195 0.09453 0.25932 0.0
C676 C 0.6624 0.07801 0.23726 0.0
C677 C 0.64075 0.06538 0.21833 0.0
C678 C 0.61889 0.06846 0.22199 0.0
H679 H 0.57095 0.05446 0.31644 0.0
H680 H 0.59434 0.05268 0.29233 0.0
H681 H 0.60349 0.08189 0.31309 0.0
H682 H 0.64009 0.11018 0.28031 0.0
H683 H 0.67814 0.10443 0.27444 0.0
H684 H 0.60669 0.60986 0.37652 0.0
H685 H 0.56337 0.57139 0.38268 0.0
H686 H 0.5384 0.61712 0.43256 0.0
H687 H 0.58184 0.6557 0.42688 0.0
H688 H 0.54017 0.54928 0.43741 0.0
H689 H 0.47812 0.57778 0.37352 0.0
H690 H 0.5132 0.594 0.3691 0.0
H691 H 0.49922 0.60101 0.40048 0.0
C692 C 0.59201 0.61184 0.38874 0.0
C693 C 0.5979 0.63597 0.40129 0.0
C694 C 0.56717 0.58981 0.39212 0.0
C695 C 0.54752 0.59136 0.40789 0.0
C696 C 0.55306 0.61552 0.41984 0.0
H697 H 0.38903 0.46585 0.45633 0.0
H698 H 0.42873 0.50882 0.45047 0.0
C699 C 0.57795 0.6376 0.41651 0.0
C700 C 0.52194 0.56727 0.41338 0.0
H701 H 0.4563 0.53775 0.39952 0.0
C702 C 0.52185 0.54679 0.42912 0.0
C703 C 0.49797 0.56412 0.40289 0.0
C704 C 0.49697 0.58527 0.38536 0.0
C705 C 0.49856 0.52322 0.43446 0.0
C706 C 0.47466 0.51971 0.4232 0.0
C707 C 0.47461 0.54042 0.40808 0.0
C708 C 0.44995 0.49413 0.42559 0.0
C709 C 0.49977 0.50232 0.45231 0.0
C710 C 0.44838 0.47177 0.41285 0.0
C711 C 0.42589 0.44737 0.41616 0.0
C712 C 0.40423 0.44464 0.43219 0.0
C713 C 0.40537 0.46724 0.44395 0.0
C714 C 0.42805 0.49178 0.44067 0.0
H715 H 0.51745 0.51066 0.46645 0.0
H716 H 0.48219 0.49167 0.46649 0.0
H717 H 0.50065 0.48803 0.43718 0.0
H718 H 0.46471 0.47316 0.40042 0.0
H719 H 0.42547 0.43055 0.40606 0.0
H720 H 1.0118 0.60581 0.60252 0.0
H721 H 1.00511 0.56183 0.60895 0.0
H722 H 0.93555 0.53045 0.55578 0.0
H723 H 0.94223 0.57473 0.54906 0.0
H724 H 0.95792 0.51501 0.63239 0.0
H725 H 0.98357 0.50396 0.51734 0.0
H726 H 0.99343 0.53557 0.53325 0.0
H727 H 0.96005 0.51453 0.52271 0.0
C728 C 0.99514 0.58962 0.59199 0.0
C729 C 0.97772 0.59387 0.57495 0.0
C730 C 0.99126 0.56444 0.59587 0.0
C731 C 0.97 0.54287 0.58262 0.0
C732 C 0.95225 0.54686 0.56597 0.0
H733 H 0.9442 0.38315 0.5723 0.0
H734 H 0.9388 0.4214 0.5673 0.0
C735 C 0.956 0.57213 0.56228 0.0
C736 C 0.96682 0.51638 0.58629 0.0
H737 H 0.974 0.46961 0.55014 0.0
C738 C 0.96122 0.50495 0.61437 0.0
C739 C 0.97099 0.50322 0.56275 0.0
C740 C 0.97749 0.51487 0.53227 0.0
C741 C 0.95993 0.48086 0.61962 0.0
C742 C 0.96517 0.46815 0.59634 0.0
C743 C 0.97005 0.47928 0.56805 0.0
C744 C 0.9669 0.44402 0.60103 0.0
C745 C 0.95275 0.46921 0.65007 0.0
C746 C 0.9844 0.44375 0.62175 0.0
C747 C 0.98725 0.42174 0.62498 0.0
C748 C 0.97298 0.39946 0.60725 0.0
C749 C 0.95523 0.39966 0.58672 0.0
C750 C 0.95228 0.42168 0.58362 0.0
H751 H 0.94086 0.47609 0.66198 0.0
H752 H 0.94161 0.44752 0.6493 0.0
H753 H 0.97088 0.47546 0.66293 0.0
H754 H 0.9964 0.46086 0.63501 0.0
H755 H 1.00094 0.42233 0.6412 0.0
H756 H 0.42922 0.99032 0.78493 0.0
H757 H 0.466 0.98263 0.78877 0.0
H758 H 0.42717 0.91661 0.73038 0.0
H759 H 0.39039 0.92479 0.72564 0.0
H760 H 0.47101 0.94135 0.80734 0.0
H761 H 0.49686 0.96157 0.68883 0.0
H762 H 0.47351 0.96846 0.70629 0.0
H763 H 0.46431 0.9355 0.69651 0.0
C764 C 0.42848 0.9742 0.77276 0.0
C765 C 0.40705 0.95849 0.75448 0.0
C766 C 0.44948 0.96969 0.77519 0.0
C767 C 0.44967 0.94936 0.75944 0.0
C768 C 0.42775 0.93277 0.74227 0.0
H769 H 0.58275 0.92238 0.79084 0.0
H770 H 0.53787 0.91429 0.78681 0.0
C771 C 0.40661 0.9373 0.73981 0.0
C772 C 0.47342 0.94658 0.76037 0.0
H773 H 0.52421 0.95276 0.71818 0.0
C774 C 0.48252 0.94353 0.78781 0.0
C775 C 0.48859 0.94973 0.73491 0.0
C776 C 0.48054 0.95421 0.70497 0.0
C777 C 0.50665 0.94433 0.79061 0.0
C778 C 0.52195 0.94777 0.76518 0.0
C779 C 0.51245 0.94999 0.73765 0.0
C780 C 0.54892 0.95168 0.76686 0.0
C781 C 0.51611 0.9428 0.82096 0.0
C782 C 0.57005 0.97497 0.75614 0.0
C783 C 0.59559 0.97947 0.75799 0.0
C784 C 0.60081 0.96083 0.77075 0.0
C785 C 0.57954 0.9372 0.78093 0.0
C786 C 0.55386 0.93266 0.77893 0.0
H787 H 0.50482 0.94592 0.8385 0.0
H788 H 0.5138 0.92314 0.82421 0.0
H789 H 0.53713 0.95754 0.82361 0.0
H790 H 0.56681 0.98989 0.74652 0.0
H791 H 0.61126 0.99758 0.74915 0.0
H792 H 0.47905 0.38536 0.87788 0.0
H793 H 0.52272 0.42329 0.886 0.0
H794 H 0.48931 0.45745 0.94281 0.0
H795 H 0.44599 0.41958 0.93553 0.0
H796 H 0.54033 0.47643 0.87418 0.0
H797 H 0.54837 0.46082 0.99295 0.0
H798 H 0.52443 0.43561 0.96942 0.0
H799 H 0.5188 0.46077 0.98376 0.0
C800 C 0.48106 0.40085 0.8923 0.0
C801 C 0.45896 0.39942 0.90598 0.0
C802 C 0.506 0.42254 0.89683 0.0
C803 C 0.50932 0.443 0.91538 0.0
C804 C 0.4873 0.44169 0.92884 0.0
H805 H 0.62609 0.59691 0.968 0.0
H806 H 0.58754 0.55376 0.96103 0.0
C807 C 0.46246 0.42014 0.9243 0.0
C808 C 0.53558 0.46623 0.9201 0.0
H809 H 0.5786 0.50317 0.97391 0.0
C810 C 0.54892 0.48212 0.8959 0.0
C811 C 0.54673 0.4736 0.94848 0.0
C812 C 0.53398 0.45668 0.97511 0.0
C813 C 0.57252 0.50579 0.8995 0.0
C814 C 0.58328 0.51353 0.92802 0.0
C815 C 0.5703 0.49726 0.95209 0.0
C816 C 0.60726 0.53906 0.93348 0.0
C817 C 0.58516 0.52286 0.87293 0.0
C818 C 0.63134 0.54491 0.92096 0.0
C819 C 0.65342 0.56964 0.92481 0.0
C820 C 0.65185 0.58898 0.94133 0.0
C821 C 0.6279 0.58264 0.95477 0.0
C822 C 0.60588 0.55793 0.95094 0.0
H823 H 0.57162 0.51685 0.85388 0.0
H824 H 0.5919 0.54365 0.87806 0.0
H825 H 0.60248 0.52138 0.86633 0.0
H826 H 0.63296 0.53049 0.90784 0.0
H827 H 0.67148 0.57388 0.91398 0.0
H828 H 0.07096 0.33568 0.71686 0.0
H829 H 0.07168 0.341 0.77024 0.0
H830 H 0.99443 0.33153 0.76729 0.0
H831 H 0.99337 0.32557 0.71376 0.0
H832 H 0.06536 0.3758 0.80774 0.0
H833 H 0.98628 0.27274 0.8228 0.0
H834 H 1.00349 0.28477 0.7884 0.0
H835 H 0.97848 0.29208 0.79887 0.0
C836 C 0.05416 0.33485 0.72754 0.0
C837 C 0.03197 0.32986 0.71109 0.0
C838 C 0.05467 0.33805 0.75804 0.0
C839 C 0.03295 0.3362 0.77283 0.0
C840 C 1.01126 0.33261 0.75636 0.0
H841 H 0.99417 0.32369 0.95867 0.0
H842 H 0.99535 0.32846 0.9053 0.0
C843 C 1.01077 0.32947 0.72574 0.0
C844 C 0.03263 0.33661 0.80554 0.0
H845 H 1.00232 0.29845 0.86549 0.0
C846 C 0.05153 0.35894 0.82042 0.0
C847 C 1.0147 0.31452 0.82203 0.0
C848 C 0.9947 0.28955 0.80732 0.0
C849 C 0.05275 0.3599 0.85136 0.0
C850 C 0.03492 0.33772 0.86783 0.0
C851 C 1.01596 0.31546 0.8529 0.0
C852 C 0.03532 0.33697 0.90057 0.0
C853 C 0.07281 0.38478 0.86609 0.0
C854 C 0.05748 0.34035 0.91588 0.0
C855 C 0.05686 0.33764 0.94659 0.0
C856 C 0.03393 0.33114 0.96249 0.0
C857 C 1.012 0.32827 0.9471 0.0
C858 C 1.01268 0.33112 0.91655 0.0
H859 H 0.07983 0.40188 0.85115 0.0
H860 H 0.06473 0.38866 0.88632 0.0
H861 H 0.08992 0.38287 0.87239 0.0
H862 H 0.07501 0.3443 0.90403 0.0
H863 H 0.07396 0.33969 0.95775 0.0
H864 H 0.76637 0.04702 0.89188 0.0
H865 H 0.75761 0.0466 0.94404 0.0
H866 H 0.67625 0.99056 0.92925 0.0
H867 H 0.68531 0.98941 0.87685 0.0
H868 H 0.72893 0.05864 0.97649 0.0
H869 H 0.69241 0.95237 0.99022 0.0
H870 H 0.70691 0.96933 0.95637 0.0
H871 H 0.67376 0.96025 0.96543 0.0
C872 C 0.74662 0.03428 0.89956 0.0
C873 C 0.72675 1.0177 0.88 0.0
C874 C 0.74155 0.03432 0.92954 0.0
C875 C 0.71638 1.01808 0.9409 0.0
C876 C 0.69603 1.00269 0.92125 0.0
H877 H 0.71129 0.04227 0.13324 0.0
H878 H 0.69848 0.03858 0.08151 0.0
C879 C 0.70119 1.00233 0.89113 0.0
C880 C 0.7123 1.01695 0.9734 0.0
H881 H 0.69618 0.97627 0.0328 0.0
C882 C 0.72152 0.04058 0.98882 0.0
C883 C 0.70268 0.99339 0.98956 0.0
C884 C 0.69357 0.96741 0.97465 0.0
C885 C 0.72293 0.04157 0.01971 0.0
C886 C 0.71384 1.01807 0.03585 0.0
C887 C 0.70311 0.99427 0.02048 0.0
C888 C 0.71851 1.01795 0.0681 0.0
C889 C 0.73581 0.06798 0.0345 0.0
C890 C 0.73262 1.00622 0.0783 0.0
C891 C 0.7393 1.00763 0.10792 0.0
C892 C 0.73241 0.02116 0.12827 0.0
C893 C 0.71713 0.03183 0.11834 0.0
C894 C 0.71008 0.03005 0.08858 0.0
H895 H 0.74689 0.08414 0.01863 0.0
H896 H 0.72057 0.07116 0.04478 0.0
H897 H 0.74946 0.06912 0.05197 0.0
H898 H 0.73919 0.99653 0.06313 0.0
H899 H 0.75034 0.99844 0.1147 0.0
H900 H 0.69357 0.71874 0.04962 0.0
H901 H 0.69317 0.71783 0.10327 0.0
H902 H 0.76303 0.71189 0.10303 0.0
H903 H 0.76385 0.71335 0.04896 0.0
H904 H 0.69075 0.67981 0.14197 0.0
H905 H 0.78188 0.77521 0.15715 0.0
H906 H 0.76483 0.76537 0.12244 0.0
H907 H 0.78493 0.75215 0.13406 0.0
C908 C 0.709 0.71744 0.0609 0.0
C909 C 0.72896 0.71646 0.04495 0.0
C910 C 0.70863 0.71675 0.09162 0.0
C911 C 0.72828 0.71523 0.10721 0.0
C912 C 0.74791 0.71354 0.09145 0.0
H913 H 0.72706 0.67871 0.29181 0.0
H914 H 0.72638 0.67906 0.23817 0.0
C915 C 0.74822 0.7141 0.06057 0.0
C916 C 0.72795 0.71538 0.13994 0.0
H917 H 0.76184 0.75065 0.20018 0.0
C918 C 0.70631 0.69528 0.15469 0.0
C919 C 0.74804 0.73582 0.15652 0.0
C920 C 0.77116 0.75852 0.14183 0.0
C921 C 0.70442 0.69484 0.18554 0.0
C922 C 0.72481 0.71491 0.20216 0.0
C923 C 0.74626 0.73524 0.18742 0.0
C924 C 0.72461 0.71466 0.23487 0.0
C925 C 0.68043 0.67304 0.20011 0.0
C926 C 0.7241 0.73472 0.25097 0.0
C927 C 0.72458 0.73463 0.28184 0.0
C928 C 0.72598 0.71466 0.29711 0.0
C929 C 0.7263 0.69455 0.28081 0.0
C930 C 0.72567 0.69458 0.25009 0.0
H931 H 0.66387 0.66321 0.18446 0.0
H932 H 0.68507 0.65819 0.20851 0.0
H933 H 0.67413 0.68048 0.21903 0.0
H934 H 0.72339 0.75048 0.23963 0.0
H935 H 0.72454 0.75049 0.29372 0.0
H936 H 1.00879 0.67973 0.46325 0.0
H937 H 1.01307 0.67215 0.41099 0.0
H938 H 0.07093 0.75359 0.4005 0.0
H939 H 0.06773 0.76087 0.45255 0.0
H940 H 1.00068 0.69184 0.36668 0.0
H941 H 0.10465 0.72226 0.35285 0.0
H942 H 0.08948 0.7164 0.38867 0.0
H943 H 0.10198 0.74775 0.37095 0.0
C944 C 1.02299 0.6958 0.44999 0.0
C945 C 0.03777 0.72097 0.4621 0.0
C946 C 1.02532 0.6915 0.42005 0.0
C947 C 0.0426 0.71221 0.40173 0.0
C948 C 0.05796 0.73708 0.41412 0.0
H949 H 1.02245 0.74743 0.22737 0.0
H950 H 1.02366 0.73985 0.27989 0.0
C951 C 0.05577 0.74134 0.44392 0.0
C952 C 0.04253 0.7089 0.36921 0.0
H953 H 0.08304 0.72698 0.30933 0.0
C954 C 1.01868 0.69902 0.35422 0.0
C955 C 0.06586 0.71773 0.3527 0.0
C956 C 0.09186 0.72633 0.36722 0.0
C957 C 1.01772 0.69945 0.32338 0.0
C958 C 0.04132 0.71077 0.30702 0.0
C959 C 0.06498 0.71887 0.32184 0.0
C960 C 0.04186 0.71607 0.27495 0.0
C961 C 0.99137 0.68814 0.30868 0.0
C962 C 0.05294 0.7064 0.25465 0.0
C963 C 0.05254 0.71102 0.2244 0.0
C964 C 0.04101 0.72535 0.21405 0.0
C965 C 1.03088 0.73579 0.23458 0.0
C966 C 1.03147 0.73137 0.26464 0.0
H967 H 0.97578 0.67257 0.32242 0.0
H968 H 0.98638 0.70378 0.30573 0.0
H969 H 0.99139 0.67982 0.28677 0.0
H970 H 0.06137 0.69481 0.26213 0.0
H971 H 0.06047 0.70272 0.20908 0.0
H972 H 0.34996 0.06468 0.62484 0.0
H973 H 0.34595 0.06564 0.57151 0.0
H974 H 0.30238 0.98142 0.56967 0.0
H975 H 0.3066 0.98032 0.62334 0.0
H976 H 0.36699 0.04254 0.53412 0.0
H977 H 0.26113 1.00359 0.51353 0.0
H978 H 0.27619 1.01672 0.54872 0.0
H979 H 0.26891 0.98453 0.538 0.0
C980 C 0.33928 0.04634 0.61317 0.0
C981 C 0.3289 0.0224 0.62828 0.0
C982 C 0.33689 0.04694 0.5827 0.0
C983 C 0.32386 0.02364 0.56662 0.0
C984 C 0.31222 0.99966 0.58171 0.0
H985 H 0.34618 0.99404 0.38719 0.0
H986 H 0.34226 0.99565 0.44049 0.0
C987 C 0.31463 0.99903 0.61236 0.0
C988 C 0.32502 0.02462 0.53401 0.0
H989 H 0.28779 1.00897 0.47178 0.0
C990 C 0.34968 0.03534 0.52051 0.0
C991 C 0.30244 1.01541 0.51632 0.0
C992 C 0.27564 1.00459 0.52977 0.0
C993 C 0.35232 0.03655 0.48979 0.0
C994 C 0.32972 0.02665 0.47208 0.0
C995 C 0.30507 1.01648 0.48548 0.0
C996 C 0.3314 0.02557 0.43964 0.0
C997 C 0.37929 0.0483 0.47644 0.0
C998 C 0.32642 0.0418 0.42147 0.0
C999 C 0.32869 0.04096 0.39082 0.0
C1000 C 0.33562 0.02361 0.37791 0.0
C1001 C 0.34048 1.00737 0.39633 0.0
C1002 C 0.3384 1.00836 0.42683 0.0
H1003 H 0.39484 0.05997 0.4927 0.0
H1004 H 0.38244 0.03239 0.46826 0.0
H1005 H 0.38129 0.06102 0.45746 0.0
H1006 H 0.32099 0.05523 0.43102 0.0
H1007 H 0.32459 0.05352 0.37723 0.0
H1008 H 0.35084 0.36012 0.54291 0.0
H1009 H 0.3646 0.3675 0.59452 0.0
H1010 H 0.32764 0.28422 0.60799 0.0
H1011 H 0.31526 0.27686 0.55651 0.0
H1012 H 0.33424 0.35435 0.64023 0.0
H1013 H 0.3928 0.30616 0.65283 0.0
H1014 H 0.38452 0.31325 0.61712 0.0
H1015 H 0.36211 0.28368 0.63641 0.0
C1016 C 0.34636 0.34344 0.55665 0.0
C1017 C 0.33173 0.31787 0.54553 0.0
C1018 C 0.35411 0.34767 0.58623 0.0
C1019 C 0.34751 0.32644 0.60521 0.0
C1020 C 0.33365 0.301 0.59382 0.0
H1021 H 0.29717 0.30539 0.78176 0.0
H1022 H 0.30488 0.31045 0.72886 0.0
C1023 C 0.32612 0.29679 0.56435 0.0
C1024 C 0.35219 0.33036 0.63749 0.0
H1025 H 0.36993 0.30762 0.69718 0.0
C1026 C 0.34259 0.34458 0.65257 0.0
C1027 C 0.36359 0.31817 0.65383 0.0
C1028 C 0.3766 0.30474 0.63909 0.0
C1029 C 0.34232 0.34534 0.68343 0.0
C1030 C 0.35113 0.3308 0.69974 0.0
C1031 C 0.36256 0.31824 0.68474 0.0
C1032 C 0.34679 0.3269 0.73203 0.0
C1033 C 0.33217 0.36141 0.69819 0.0
C1034 C 0.36758 0.3331 0.75149 0.0
C1035 C 0.3631 0.32982 0.78194 0.0
C1036 C 0.33778 0.32036 0.79333 0.0
C1037 C 0.31697 0.31331 0.77368 0.0
C1038 C 0.32139 0.31632 0.74342 0.0
H1039 H 0.33531 0.37811 0.6841 0.0
H1040 H 0.31081 0.34903 0.70189 0.0
H1041 H 0.34181 0.36914 0.71972 0.0
H1042 H 0.38732 0.34097 0.74318 0.0
H1043 H 0.37949 0.33542 0.79659 0.0
H1044 H 0.31377 0.3457 0.9663 0.0
H1045 H 0.27735 0.35015 0.98468 0.0
H1046 H 0.22276 0.27439 0.94929 0.0
H1047 H 0.25935 0.26953 0.93136 0.0
H1048 H 0.23955 0.35147 0.9521 0.0
H1049 H 0.1944 0.26919 0.03189 0.0
H1050 H 0.22659 0.2808 0.01662 0.0
H1051 H 0.19804 0.26023 0.99516 0.0
C1052 C 0.29403 0.3298 0.96275 0.0
C1053 C 0.28943 0.30722 0.94745 0.0
C1054 C 0.27321 0.33241 0.97321 0.0
C1055 C 0.24729 0.31256 0.96857 0.0
C1056 C 0.24258 0.28976 0.95365 0.0
H1057 H 0.10491 0.31593 0.02078 0.0
H1058 H 0.13435 0.30464 0.99456 0.0
C1059 C 0.2635 0.28704 0.94334 0.0
C1060 C 0.2255 0.31659 0.97832 0.0
H1061 H 0.17313 0.29365 0.02502 0.0
C1062 C 0.22496 0.33872 0.96793 0.0
C1063 C 0.20633 0.29988 0.99884 0.0
C1064 C 0.20638 0.2763 0.01152 0.0
C1065 C 0.20623 0.34493 0.97801 0.0
C1066 C 0.1876 0.32866 0.99912 0.0
C1067 C 0.18744 0.30601 0.00874 0.0
C1068 C 0.1697 0.33614 0.0134 0.0
C1069 C 0.2067 0.36906 0.96635 0.0
C1070 C 0.17988 0.35763 0.03249 0.0
C1071 C 0.1632 0.36401 0.04758 0.0
C1072 C 0.13595 0.34908 0.04381 0.0
C1073 C 0.1258 0.32792 0.02405 0.0
C1074 C 0.14256 0.32136 0.00915 0.0
H1075 H 0.21793 0.37593 0.94547 0.0
H1076 H 0.18653 0.3653 0.96258 0.0
H1077 H 0.21612 0.38498 0.98281 0.0
H1078 H 0.20075 0.36913 0.03627 0.0
H1079 H 0.1717 0.38043 0.06261 0.0
H1080 H 1.01982 0.25738 0.11365 0.0
H1081 H 0.98026 0.22087 0.13525 0.0
H1082 H 0.94818 0.27159 0.14864 0.0
H1083 H 0.98765 0.30807 0.12784 0.0
H1084 H 0.93934 0.23992 0.19579 0.0
H1085 H 0.9108 0.18199 0.09248 0.0
H1086 H 0.94253 0.19026 0.10615 0.0
H1087 H 0.93655 0.21569 0.09371 0.0
C1088 C 1.0044 0.26075 0.12142 0.0
C1089 C 1.00681 0.28558 0.11886 0.0
C1090 C 0.98173 0.23984 0.13357 0.0
C1091 C 0.96102 0.24336 0.14308 0.0
C1092 C 0.96382 0.26834 0.14138 0.0
H1093 H 0.79742 0.1297 0.16183 0.0
H1094 H 0.84063 0.16528 0.14783 0.0
C1095 C 0.98644 0.2892 0.12941 0.0
C1096 C 0.93607 0.22112 0.15418 0.0
H1097 H 0.88376 0.16263 0.13388 0.0
C1098 C 0.92723 0.22294 0.18232 0.0
C1099 C 0.92009 0.19916 0.13641 0.0
C1100 C 0.92778 0.19665 0.10541 0.0
C1101 C 0.9028 0.20356 0.19309 0.0
C1102 C 0.88699 0.18145 0.17547 0.0
C1103 C 0.89594 0.17951 0.14744 0.0
C1104 C 0.86064 0.16052 0.18508 0.0
C1105 C 0.89381 0.20744 0.22281 0.0
C1106 C 0.85741 0.14602 0.21079 0.0
C1107 C 0.83262 0.12577 0.21903 0.0
C1108 C 0.8106 0.1194 0.2015 0.0
C1109 C 0.8139 0.13407 0.17587 0.0
C1110 C 0.83864 0.15439 0.16777 0.0
H1111 H 0.9048 0.22821 0.22986 0.0
H1112 H 0.87262 0.20097 0.22261 0.0
H1113 H 0.89712 0.19566 0.23944 0.0
H1114 H 0.87414 0.14998 0.22419 0.0
H1115 H 0.83084 0.11473 0.23878 0.0
H1116 H 0.67878 0.80425 0.40759 0.0
H1117 H 0.68966 0.84452 0.38173 0.0
H1118 H 0.74079 0.83301 0.32359 0.0
H1119 H 0.72986 0.79225 0.34939 0.0
H1120 H 0.74029 0.8887 0.37605 0.0
H1121 H 0.69478 0.8484 0.26733 0.0
H1122 H 0.68643 0.8284 0.30001 0.0
H1123 H 0.71675 0.83819 0.28132 0.0
C1124 C 0.69216 0.81001 0.38912 0.0
C1125 C 0.70342 0.79489 0.3806 0.0
C1126 C 0.69841 0.83316 0.3744 0.0
C1127 C 0.71594 0.84176 0.35066 0.0
C1128 C 0.72696 0.82658 0.34165 0.0
H1129 H 0.7852 1.00224 0.28153 0.0
H1130 H 0.77982 0.96113 0.30118 0.0
C1131 C 0.72074 0.80332 0.35647 0.0
C1132 C 0.72315 0.86711 0.3363 0.0
H1133 H 0.71668 0.89423 0.27273 0.0
C1134 C 0.73535 0.88996 0.35338 0.0
C1135 C 0.71648 0.86867 0.30679 0.0
C1136 C 0.70271 0.84465 0.28772 0.0
C1137 C 0.74072 0.91425 0.34191 0.0
C1138 C 0.73392 0.9158 0.31246 0.0
C1139 C 0.72202 0.89302 0.29524 0.0
C1140 C 0.73753 0.94059 0.29979 0.0
C1141 C 0.75276 0.93791 0.3617 0.0
C1142 C 0.7156 0.94259 0.29208 0.0
C1143 C 0.7186 0.96601 0.28096 0.0
C1144 C 0.74365 0.98791 0.27706 0.0
C1145 C 0.76565 0.98578 0.28441 0.0
C1146 C 0.7626 0.96233 0.29569 0.0
H1147 H 0.75234 0.93252 0.3852 0.0
H1148 H 0.77346 0.95092 0.3552 0.0
H1149 H 0.74238 0.94913 0.35945 0.0
H1150 H 0.69607 0.92607 0.29504 0.0
H1151 H 0.70125 0.96692 0.2754 0.0
H1152 H 0.79584 0.76988 0.44714 0.0
H1153 H 0.83272 0.76691 0.46759 0.0
H1154 H 0.7822 0.68422 0.48158 0.0
H1155 H 0.74533 0.68714 0.46191 0.0
H1156 H 0.81443 0.70685 0.52802 0.0
H1157 H 0.87169 0.73683 0.42414 0.0
H1158 H 0.8635 0.76026 0.43817 0.0
H1159 H 0.83797 0.72884 0.42591 0.0
C1160 C 0.79259 0.75112 0.45478 0.0
C1161 C 0.76766 0.72874 0.45275 0.0
C1162 C 0.81373 0.7494 0.46626 0.0
C1163 C 0.8104 0.72522 0.47564 0.0
C1164 C 0.78534 0.70307 0.47441 0.0
H1165 H 0.92678 0.67807 0.49285 0.0
H1166 H 0.89082 0.68509 0.47893 0.0
C1167 C 0.76425 0.70479 0.46311 0.0
C1168 C 0.83289 0.72264 0.48629 0.0
H1169 H 0.89184 0.72996 0.46532 0.0
C1170 C 0.83141 0.71199 0.51435 0.0
C1171 C 0.8549 0.72897 0.4683 0.0
C1172 C 0.85711 0.73913 0.43736 0.0
C1173 C 0.85118 0.70741 0.52485 0.0
C1174 C 0.87339 0.71416 0.50706 0.0
C1175 C 0.87493 0.72493 0.47906 0.0
C1176 C 0.89482 0.70934 0.51647 0.0
C1177 C 0.84763 0.69457 0.5545 0.0
C1178 C 0.90915 0.7206 0.54228 0.0
C1179 C 0.92966 0.71642 0.55047 0.0
C1180 C 0.9365 0.70114 0.53282 0.0
C1181 C 0.92208 0.6899 0.50702 0.0
C1182 C 0.90152 0.69396 0.49896 0.0
H1183 H 0.82683 0.68433 0.56163 0.0
H1184 H 0.85462 0.68027 0.55417 0.0
H1185 H 0.85914 0.70975 0.57115 0.0
H1186 H 0.9048 0.73301 0.55586 0.0
H1187 H 0.94045 0.72556 0.57036 0.0
H1188 H 0.24552 0.92671 0.73025 0.0
H1189 H 0.20311 0.89224 0.71287 0.0
H1190 H 0.24017 0.8799 0.63761 0.0
H1191 H 0.28287 0.91474 0.65469 0.0
H1192 H 0.19569 0.88297 0.62319 0.0
H1193 H 0.17451 0.81344 0.71513 0.0
H1194 H 0.1824 0.84561 0.72677 0.0
H1195 H 0.20674 0.84089 0.70842 0.0
C1196 C 0.24478 0.9166 0.71008 0.0
C1197 C 0.26772 0.92348 0.69395 0.0
C1198 C 0.22045 0.89677 0.70025 0.0
C1199 C 0.21844 0.88321 0.67414 0.0
C1200 C 0.24126 0.89001 0.65791 0.0
H1201 H 0.08534 0.7387 0.61462 0.0
H1202 H 0.12743 0.77341 0.63252 0.0
C1203 C 0.26568 0.90986 0.66777 0.0
C1204 C 0.19245 0.86241 0.66347 0.0
H1205 H 0.13953 0.80372 0.68235 0.0
C1206 C 0.18343 0.8656 0.63607 0.0
C1207 C 0.17652 0.83965 0.68019 0.0
C1208 C 0.18558 0.83449 0.70914 0.0
C1209 C 0.15884 0.8468 0.6251 0.0
C1210 C 0.14263 0.82436 0.64217 0.0
C1211 C 0.15179 0.82106 0.66942 0.0
C1212 C 0.11666 0.80343 0.63157 0.0
C1213 C 0.15067 0.85087 0.59504 0.0
C1214 C 0.09633 0.80859 0.62545 0.0
C1215 C 0.0721 0.78867 0.61513 0.0
C1216 C 0.06774 0.76322 0.6109 0.0
C1217 C 0.088 0.75808 0.61756 0.0
C1218 C 0.11212 0.77792 0.62784 0.0
H1219 H 0.1676 0.86558 0.58202 0.0
H1220 H 0.14091 0.83226 0.58251 0.0
H1221 H 0.13658 0.85798 0.59754 0.0
H1222 H 0.09917 0.82799 0.62871 0.0
H1223 H 0.05688 0.79325 0.6103 0.0
H1224 H 0.37388 0.22716 0.9108 0.0
H1225 H 0.36504 0.18842 0.88283 0.0
H1226 H 0.32625 0.20836 0.81605 0.0
H1227 H 0.33507 0.24753 0.844 0.0
H1228 H 0.31333 0.14697 0.86594 0.0
H1229 H 0.38021 0.19427 0.77076 0.0
H1230 H 0.3842 0.21104 0.80525 0.0
H1231 H 0.35837 0.20603 0.7807 0.0
C1232 C 0.36367 0.22357 0.89004 0.0
C1233 C 0.35522 0.24055 0.87966 0.0
C1234 C 0.35857 0.20131 0.87413 0.0
C1235 C 0.34509 0.19557 0.84736 0.0
C1236 C 0.33691 0.21259 0.83657 0.0
H1237 H 0.28472 0.041 0.7643 0.0
H1238 H 0.28763 0.08141 0.78287 0.0
C1239 C 0.34192 0.23492 0.85259 0.0
C1240 C 0.33909 0.17124 0.83153 0.0
H1241 H 0.35647 0.14826 0.7717 0.0
C1242 C 0.32248 0.14718 0.84515 0.0
C1243 C 0.35124 0.17169 0.80454 0.0
C1244 C 0.36964 0.19708 0.78938 0.0
C1245 C 0.31815 0.12354 0.83284 0.0
C1246 C 0.33063 0.12398 0.80609 0.0
C1247 C 0.34682 0.14801 0.79213 0.0
C1248 C 0.32876 0.09991 0.79357 0.0
C1249 C 0.30112 0.09834 0.84913 0.0
C1250 C 0.35099 0.09713 0.79301 0.0
C1251 C 0.34939 0.07413 0.78254 0.0
C1252 C 0.32553 0.0535 0.7722 0.0
C1253 C 0.30334 0.05649 0.77226 0.0
C1254 C 0.30496 0.07953 0.78289 0.0
H1255 H 0.29644 0.10179 0.87179 0.0
H1256 H 0.28248 0.08678 0.83703 0.0
H1257 H 0.31088 0.08645 0.85044 0.0
H1258 H 0.36955 0.11263 0.80114 0.0
H1259 H 0.36687 0.07252 0.78264 0.0
H1260 H 0.78428 0.78624 0.89466 0.0
H1261 H 0.78049 0.8225 0.87367 0.0
H1262 H 0.69825 0.77035 0.85856 0.0
H1263 H 0.70198 0.73414 0.87876 0.0
H1264 H 0.72142 0.80306 0.81217 0.0
H1265 H 0.74742 0.85907 0.91679 0.0
H1266 H 0.77171 0.85183 0.9033 0.0
H1267 H 0.74035 0.82566 0.91491 0.0
C1268 C 0.76546 0.78251 0.88662 0.0
C1269 C 0.74341 0.75736 0.88854 0.0
C1270 C 0.76328 0.80327 0.87483 0.0
C1271 C 0.73897 0.79926 0.86503 0.0
C1272 C 0.71718 0.77397 0.86607 0.0
H1273 H 0.68502 0.90991 0.84671 0.0
H1274 H 0.6937 0.87503 0.86073 0.0
C1275 C 0.71936 0.75327 0.87768 0.0
C1276 C 0.73576 0.82127 0.85429 0.0
H1277 H 0.73981 0.87864 0.87562 0.0
C1278 C 0.72556 0.81966 0.82598 0.0
C1279 C 0.74078 0.84272 0.8725 0.0
C1280 C 0.75044 0.84492 0.90366 0.0
C1281 C 0.72006 0.83878 0.81546 0.0
C1282 C 0.72543 0.86041 0.83352 0.0
C1283 C 0.73583 0.86212 0.86173 0.0
C1284 C 0.71959 0.88107 0.82409 0.0
C1285 C 0.70773 0.83512 0.78551 0.0
C1286 C 0.73122 0.8961 0.79877 0.0
C1287 C 0.7261 0.91594 0.79053 0.0
C1288 C 0.70949 0.92137 0.80766 0.0
C1289 C 0.69785 0.90625 0.83297 0.0
C1290 C 0.70286 0.88633 0.84108 0.0
H1291 H 0.69854 0.81449 0.77801 0.0
H1292 H 0.69263 0.84109 0.78558 0.0
H1293 H 0.72304 0.84743 0.76928 0.0
H1294 H 0.74463 0.89282 0.78565 0.0
H1295 H 0.73557 0.92733 0.77104 0.0
H1296 H 0.81421 0.6632 0.9426 0.0
H1297 H 0.85539 0.67487 0.96681 0.0
H1298 H 0.85517 0.74035 0.00853 0.0
H1299 H 0.81338 0.72835 0.98483 0.0
H1300 H 0.90123 0.71971 0.95893 0.0
H1301 H 0.87313 0.7084 0.07706 0.0
H1302 H 0.84924 0.69556 0.04793 0.0
H1303 H 0.86557 0.7298 0.05667 0.0
C1304 C 0.82266 0.67988 0.95726 0.0
C1305 C 0.81048 0.69486 0.96176 0.0
C1306 C 0.84628 0.68657 0.97105 0.0
C1307 C 0.85837 0.70841 0.98962 0.0
C1308 C 0.84601 0.72313 0.99473 0.0
H1309 H 1.01404 0.77459 0.07127 0.0
H1310 H 0.97358 0.77033 0.0508 0.0
C1311 C 0.82215 0.71629 0.98109 0.0
C1312 C 0.88456 0.71633 1.00204 0.0
H1313 H 0.91793 0.72494 0.0663 0.0
C1314 C 0.90486 0.72093 0.98242 0.0
C1315 C 0.88937 0.71808 0.0327 0.0
C1316 C 0.86816 0.7125 0.05488 0.0
C1317 C 0.9296 0.72669 0.99258 0.0
C1318 C 0.93419 0.72785 0.02315 0.0
C1319 C 0.91427 0.7241 0.04284 0.0
C1320 C 0.95892 0.73092 0.03496 0.0
C1321 C 0.95063 0.73117 0.97061 0.0
C1322 C 0.96397 0.71018 0.03275 0.0
C1323 C 0.98686 0.71248 0.0445 0.0
C1324 C 1.00523 0.73564 0.05855 0.0
C1325 C 1.00032 0.75658 0.06039 0.0
C1326 C 0.97721 0.75415 0.04886 0.0
H1327 H 0.94576 0.7347 0.9481 0.0
H1328 H 0.96967 0.7481 0.97727 0.0
H1329 H 0.95295 0.71366 0.96992 0.0
H1330 H 0.94999 0.69206 0.02224 0.0
H1331 H 0.99005 0.696 0.04277 0.0
H1332 H 0.11137 0.79909 0.15979 0.0
H1333 H 0.14137 0.83978 0.18549 0.0
H1334 H 0.19879 0.85893 0.11705 0.0
H1335 H 0.16921 0.81861 0.0913 0.0
H1336 H 0.19457 0.85774 0.20532 0.0
H1337 H 0.18916 0.92403 0.12281 0.0
H1338 H 0.16503 0.8897 0.12516 0.0
H1339 H 0.19592 0.89999 0.10743 0.0
C1340 C 0.13042 0.81193 0.15027 0.0
C1341 C 0.13782 0.8056 0.1234 0.0
C1342 C 0.1475 0.83516 0.16496 0.0
C1343 C 0.17208 0.85255 0.15287 0.0
C1344 C 0.17971 0.84601 0.12646 0.0
H1345 H 0.31694 0.97429 0.21757 0.0
H1346 H 0.2793 0.93462 0.19891 0.0
C1347 C 0.16279 0.82281 0.11188 0.0
C1348 C 0.19016 0.87745 0.16784 0.0
H1349 H 0.22428 0.94357 0.15735 0.0
C1350 C 0.20082 0.87653 0.19505 0.0
C1351 C 0.19803 0.90195 0.15457 0.0
C1352 C 0.18629 0.90411 0.126 0.0
C1353 C 0.22016 0.89944 0.20863 0.0
C1354 C 0.22914 0.92381 0.19448 0.0
C1355 C 0.21752 0.92484 0.16802 0.0
C1356 C 0.25176 0.94813 0.20583 0.0
C1357 C 0.23115 0.89739 0.23779 0.0
C1358 C 0.24889 0.96922 0.21521 0.0
C1359 C 0.27047 0.99207 0.22594 0.0
C1360 C 0.29529 0.99425 0.22706 0.0
C1361 C 0.29811 0.97326 0.21704 0.0
C1362 C 0.27658 0.95047 0.20655 0.0
H1363 H 0.21767 0.87886 0.24932 0.0
H1364 H 0.24992 0.89779 0.23399 0.0
H1365 H 0.23504 0.91407 0.2523 0.0
H1366 H 0.2299 0.96785 0.21457 0.0
H1367 H 0.26771 1.00792 0.23347 0.0
H1368 H 0.27546 0.24777 0.39404 0.0
H1369 H 0.28073 0.21178 0.37467 0.0
H1370 H 0.36452 0.26082 0.37906 0.0
H1371 H 0.35949 0.29657 0.39835 0.0
H1372 H 0.30756 0.21117 0.32305 0.0
H1373 H 0.35101 0.19413 0.42256 0.0
H1374 H 0.3338 0.21224 0.42344 0.0
H1375 H 0.36725 0.22774 0.41122 0.0
C1376 C 0.29498 0.25081 0.39094 0.0
C1377 C 0.31704 0.275 0.39782 0.0
C1378 C 0.29796 0.23025 0.37991 0.0
C1379 C 0.32302 0.23347 0.37592 0.0
C1380 C 0.345 0.25768 0.38255 0.0
H1381 H 0.38282 0.15879 0.26434 0.0
H1382 H 0.37016 0.18717 0.28969 0.0
C1383 C 0.34206 0.27818 0.3934 0.0
C1384 C 0.32653 0.21206 0.36377 0.0
H1385 H 0.356 0.17593 0.37754 0.0
C1386 C 0.31786 0.20322 0.33509 0.0
C1387 C 0.3397 0.20145 0.37961 0.0
C1388 C 0.34826 0.20916 0.41103 0.0
C1389 C 0.32307 0.18498 0.32136 0.0
C1390 C 0.33758 0.17554 0.33659 0.0
C1391 C 0.34516 0.18342 0.36576 0.0
C1392 C 0.34595 0.15834 0.32212 0.0
C1393 C 0.31317 0.1761 0.29053 0.0
C1394 C 0.3373 0.13293 0.33257 0.0
C1395 C 0.34461 0.11656 0.31813 0.0
C1396 C 0.36093 0.12543 0.29315 0.0
C1397 C 0.3702 0.15121 0.28343 0.0
C1398 C 0.36282 0.16746 0.29777 0.0
H1399 H 0.29667 0.17936 0.28512 0.0
H1400 H 0.32921 0.18744 0.27464 0.0
H1401 H 0.30662 0.15506 0.28759 0.0
H1402 H 0.32444 0.12558 0.35149 0.0
H1403 H 0.33707 0.09684 0.32623 0.0
H1404 H 0.04467 0.27444 0.55703 0.0
H1405 H 0.0853 0.27936 0.53648 0.0
H1406 H 0.11801 0.36291 0.53293 0.0
H1407 H 0.07735 0.35812 0.55292 0.0
H1408 H 0.12891 0.34366 0.4829 0.0
H1409 H 0.1528 0.30601 0.58298 0.0
H1410 H 0.12143 0.2839 0.56744 0.0
H1411 H 0.12744 0.31456 0.58249 0.0
C1412 C 0.06046 0.29384 0.5517 0.0
C1413 C 0.05781 0.31589 0.55677 0.0
C1414 C 0.08375 0.29664 0.54014 0.0
C1415 C 0.10492 0.32155 0.53364 0.0
C1416 C 0.10201 0.34351 0.53788 0.0
H1417 H 0.26786 0.36515 0.5157 0.0
H1418 H 0.22562 0.35988 0.53017 0.0
C1419 C 0.07874 0.34072 0.54936 0.0
C1420 C 0.13027 0.32491 0.52292 0.0
H1421 H 0.18048 0.31471 0.54175 0.0
C1422 C 0.14018 0.3373 0.49574 0.0
C1423 C 0.14519 0.31697 0.53987 0.0
C1424 C 0.13636 0.30484 0.56994 0.0
C1425 C 0.16447 0.34181 0.48498 0.0
C1426 C 0.17909 0.33333 0.50164 0.0
C1427 C 0.16921 0.32105 0.52887 0.0
C1428 C 0.20498 0.33754 0.49172 0.0
C1429 C 0.17454 0.35623 0.45625 0.0
C1430 C 0.20756 0.3268 0.46519 0.0
C1431 C 0.2318 0.32992 0.45673 0.0
C1432 C 0.25393 0.34362 0.47479 0.0
C1433 C 0.25129 0.35452 0.50121 0.0
C1434 C 0.2271 0.35147 0.50958 0.0
H1435 H 0.16463 0.36738 0.45031 0.0
H1436 H 0.19594 0.36999 0.45724 0.0
H1437 H 0.17073 0.34192 0.43844 0.0
H1438 H 0.19071 0.31551 0.45131 0.0
H1439 H 0.23305 0.32111 0.43634 0.0
H1440 H 0.92344 0.26395 0.68609 0.0
H1441 H 0.88925 0.22063 0.70188 0.0
H1442 H 0.90078 0.18687 0.62315 0.0
H1443 H 0.93478 0.23022 0.6069 0.0
H1444 H 0.84851 0.16755 0.63601 0.0
H1445 H 0.90133 0.16325 0.73459 0.0
H1446 H 0.8977 0.19165 0.73355 0.0
H1447 H 0.91714 0.18736 0.70599 0.0
C1448 C 0.9187 0.24736 0.67204 0.0
C1449 C 0.93202 0.25062 0.64527 0.0
C1450 C 0.89925 0.22254 0.68124 0.0
C1451 C 0.89279 0.2004 0.664 0.0
C1452 C 0.90556 0.20364 0.63693 0.0
H1453 H 0.7999 0.03948 0.72809 0.0
H1454 H 0.83477 0.0807 0.70758 0.0
C1455 C 0.92502 0.22847 0.62768 0.0
C1456 C 0.87256 0.17393 0.67412 0.0
H1457 H 0.85648 0.13038 0.73068 0.0
C1458 C 0.85031 0.15936 0.65663 0.0
C1459 C 0.87511 0.16302 0.70079 0.0
C1460 C 0.89922 0.17699 0.7197 0.0
C1461 C 0.83021 0.13457 0.66551 0.0
C1462 C 0.83221 0.12419 0.69283 0.0
C1463 C 0.85481 0.13843 0.70989 0.0
C1464 C 0.81086 0.09888 0.70441 0.0
C1465 C 0.80713 0.1196 0.64538 0.0
C1466 C 0.7859 0.09545 0.7097 0.0
C1467 C 0.76599 0.07196 0.72134 0.0
C1468 C 0.77063 0.05141 0.72816 0.0
C1469 C 0.79566 0.05488 0.72296 0.0
C1470 C 0.81561 0.07843 0.71129 0.0
H1471 H 0.81201 0.12646 0.62226 0.0
H1472 H 0.80017 0.09833 0.64606 0.0
H1473 H 0.79086 0.12261 0.65259 0.0
H1474 H 0.78191 0.11112 0.70522 0.0
H1475 H 0.74699 0.07001 0.72525 0.0
loop_
_geom_bond_atom_site_label_1
_geom_bond_atom_site_label_2
_geom_bond_distance
_geom_bond_site_symmetry_2
_ccdc_geom_bond_type
Co0 N4 2.148 . S
Co0 N10 2.128 . S
Co0 N20 2.194 . S
Co0 O25 2.351 . S
Co0 O26 2.155 . S
Co0 O27 2.096 . S
C1 N4 1.301 1_556 S
C1 N5 1.328 . S
C1 H6 0.930 1_556 S
C2 C3 1.333 . S
C2 N4 1.317 1_556 S
C2 H7 0.930 . S
C3 C2 1.333 . S
C3 N5 1.350 . S
C3 H29 0.931 . S
N4 Co0 2.148 . S
N4 C1 1.301 1_554 S
N4 C2 1.317 1_554 S
N5 C1 1.328 . S
N5 C3 1.350 . S
H6 C1 0.930 1_554 S
H7 C2 0.930 . S
C8 O9 1.224 . S
C8 O27 1.247 . S
O9 C8 1.224 . S
N10 Co0 2.128 . S
N10 C11 1.355 . S
N10 C13 1.311 . S
C11 N10 1.355 . S
C11 C12 1.363 . S
C11 H23 0.929 . S
C12 C11 1.363 . S
C12 N14 1.375 . S
C12 H30 0.931 . S
C13 N10 1.311 . S
C13 N14 1.347 . S
C13 H24 0.929 . S
N14 C12 1.375 . S
N14 C13 1.347 . S
C15 C18 1.365 . S
C15 N20 1.328 . S
C15 H21 0.929 . S
C16 C17 1.362 . S
C16 C19 1.378 . S
C16 H31 0.929 . S
C17 C16 1.362 . S
C17 C18 1.366 . S
C18 C15 1.365 . S
C18 C17 1.366 . S
C18 H32 0.930 . S
C19 C16 1.378 . S
C19 N20 1.315 . S
C19 H22 0.930 . S
N20 Co0 2.194 . S
N20 C15 1.328 . S
N20 C19 1.315 . S
H21 C15 0.929 . S
H22 C19 0.930 . S
H23 C11 0.929 . S
H24 C13 0.929 . S
O25 Co0 2.351 . S
O25 C28 1.244 . S
O26 Co0 2.155 . S
O26 C28 1.240 . S
O27 Co0 2.096 . S
O27 C8 1.247 . S
C28 O25 1.244 . S
C28 O26 1.240 . S
H29 C3 0.931 . S
H30 C12 0.931 . S
H31 C16 0.929 . S
H32 C18 0.930 . S
Co33 N37 2.148 . S
Co33 N43 2.128 . S
Co33 N53 2.194 . S
Co33 O58 2.351 . S
Co33 O59 2.155 . S
Co33 O60 2.096 . S
C34 N37 1.301 . S
C34 N38 1.328 . S
C34 H39 0.930 . S
C35 C36 1.333 . S
C35 N37 1.317 . S
C35 H40 0.930 . S
C36 C35 1.333 . S
C36 N38 1.350 . S
C36 H62 0.931 . S
N37 Co33 2.148 . S
N37 C34 1.301 . S
N37 C35 1.317 . S
N38 C34 1.328 . S
N38 C36 1.350 . S
H39 C34 0.930 . S
H40 C35 0.930 . S
C41 O42 1.224 . S
C41 O60 1.247 . S
O42 C41 1.224 . S
N43 Co33 2.128 . S
N43 C44 1.355 . S
N43 C46 1.311 . S
C44 N43 1.355 . S
C44 C45 1.363 . S
C44 H56 0.929 . S
C45 C44 1.363 . S
C45 N47 1.375 . S
C45 H63 0.931 . S
C46 N43 1.311 . S
C46 N47 1.347 . S
C46 H57 0.929 . S
N47 C45 1.375 . S
N47 C46 1.347 . S
C48 C51 1.365 . S
C48 N53 1.328 . S
C48 H54 0.929 . S
C49 C50 1.362 . S
C49 C52 1.378 . S
C49 H64 0.929 . S
C50 C49 1.362 . S
C50 C51 1.366 . S
C51 C48 1.365 . S
C51 C50 1.366 . S
C51 H65 0.930 . S
C52 C49 1.378 . S
C52 N53 1.315 . S
C52 H55 0.930 . S
N53 Co33 2.194 . S
N53 C48 1.328 . S
N53 C52 1.315 . S
H54 C48 0.929 . S
H55 C52 0.930 . S
H56 C44 0.929 . S
H57 C46 0.929 . S
O58 Co33 2.351 . S
O58 C61 1.244 . S
O59 Co33 2.155 . S
O59 C61 1.240 . S
O60 Co33 2.096 . S
O60 C41 1.247 . S
C61 O58 1.244 . S
C61 O59 1.240 . S
H62 C36 0.931 . S
H63 C45 0.931 . S
H64 C49 0.929 . S
H65 C51 0.930 . S
Co66 N70 2.148 . S
Co66 N76 2.128 . S
Co66 N86 2.194 . S
Co66 O91 2.351 . S
Co66 O92 2.155 . S
Co66 O93 2.096 . S
C67 N70 1.301 . S
C67 N71 1.328 . S
C67 H72 0.930 . S
C68 C69 1.333 . S
C68 N70 1.317 . S
C68 H73 0.930 . S
C69 C68 1.333 . S
C69 N71 1.350 . S
C69 H95 0.931 . S
N70 Co66 2.148 . S
N70 C67 1.301 . S
N70 C68 1.317 . S
N71 C67 1.328 . S
N71 C69 1.350 . S
H72 C67 0.930 . S
H73 C68 0.930 . S
C74 O75 1.224 . S
C74 O93 1.247 . S
O75 C74 1.224 . S
N76 Co66 2.128 . S
N76 C77 1.355 . S
N76 C79 1.311 . S
C77 N76 1.355 . S
C77 C78 1.363 . S
C77 H89 0.929 . S
C78 C77 1.363 . S
C78 N80 1.375 . S
C78 H96 0.931 . S
C79 N76 1.311 . S
C79 N80 1.347 . S
C79 H90 0.929 . S
N80 C78 1.375 . S
N80 C79 1.347 . S
C81 C84 1.365 . S
C81 N86 1.328 . S
C81 H87 0.929 . S
C82 C83 1.362 . S
C82 C85 1.378 . S
C82 H97 0.929 . S
C83 C82 1.362 . S
C83 C84 1.366 . S
C84 C81 1.365 . S
C84 C83 1.366 . S
C84 H98 0.930 . S
C85 C82 1.378 . S
C85 N86 1.315 . S
C85 H88 0.930 . S
N86 Co66 2.194 . S
N86 C81 1.328 . S
N86 C85 1.315 . S
H87 C81 0.929 . S
H88 C85 0.930 . S
H89 C77 0.929 . S
H90 C79 0.929 . S
O91 Co66 2.351 . S
O91 C94 1.244 . S
O92 Co66 2.155 . S
O92 C94 1.240 . S
O93 Co66 2.096 . S
O93 C74 1.247 . S
C94 O91 1.244 . S
C94 O92 1.240 . S
H95 C69 0.931 . S
H96 C78 0.931 . S
H97 C82 0.929 . S
H98 C84 0.930 . S
Co99 N103 2.148 . S
Co99 N109 2.128 . S
Co99 N119 2.194 . S
Co99 O124 2.351 . S
Co99 O125 2.155 . S
Co99 O126 2.096 . S
C100 N103 1.301 . S
C100 N104 1.328 . S
C100 H105 0.930 . S
C101 C102 1.333 . S
C101 N103 1.317 . S
C101 H106 0.930 . S
C102 C101 1.333 . S
C102 N104 1.350 . S
C102 H128 0.931 . S
N103 Co99 2.148 . S
N103 C100 1.301 . S
N103 C101 1.317 . S
N104 C100 1.328 . S
N104 C102 1.350 . S
H105 C100 0.930 . S
H106 C101 0.930 . S
C107 O108 1.224 . S
C107 O126 1.247 . S
O108 C107 1.224 . S
N109 Co99 2.128 . S
N109 C110 1.355 . S
N109 C112 1.311 . S
C110 N109 1.355 . S
C110 C111 1.363 . S
C110 H122 0.929 . S
C111 C110 1.363 . S
C111 N113 1.375 . S
C111 H129 0.931 . S
C112 N109 1.311 . S
C112 N113 1.347 . S
C112 H123 0.929 . S
N113 C111 1.375 . S
N113 C112 1.347 . S
C114 C117 1.365 . S
C114 N119 1.328 . S
C114 H120 0.929 . S
C115 C116 1.362 . S
C115 C118 1.378 . S
C115 H130 0.929 . S
C116 C115 1.362 . S
C116 C117 1.366 . S
C117 C114 1.365 . S
C117 C116 1.366 . S
C117 H131 0.930 . S
C118 C115 1.378 . S
C118 N119 1.315 . S
C118 H121 0.930 . S
N119 Co99 2.194 . S
N119 C114 1.328 . S
N119 C118 1.315 . S
H120 C114 0.929 . S
H121 C118 0.930 . S
H122 C110 0.929 . S
H123 C112 0.929 . S
O124 Co99 2.351 . S
O124 C127 1.244 . S
O125 Co99 2.155 . S
O125 C127 1.240 . S
O126 Co99 2.096 . S
O126 C107 1.247 . S
C127 O124 1.244 . S
C127 O125 1.240 . S
H128 C102 0.931 . S
H129 C111 0.931 . S
H130 C115 0.929 . S
H131 C117 0.930 . S
Co132 N136 2.148 . S
Co132 N142 2.128 . S
Co132 N152 2.194 . S
Co132 O157 2.351 . S
Co132 O158 2.155 . S
Co132 O159 2.096 . S
C133 N136 1.301 . S
C133 N137 1.328 . S
C133 H138 0.930 . S
C134 C135 1.333 . S
C134 N136 1.317 . S
C134 H139 0.930 . S
C135 C134 1.333 . S
C135 N137 1.350 . S
C135 H161 0.931 . S
N136 Co132 2.148 . S
N136 C133 1.301 . S
N136 C134 1.317 . S
N137 C133 1.328 . S
N137 C135 1.350 . S
H138 C133 0.930 . S
H139 C134 0.930 . S
C140 O141 1.224 . S
C140 O159 1.247 . S
O141 C140 1.224 . S
N142 Co132 2.128 . S
N142 C143 1.355 . S
N142 C145 1.311 . S
C143 N142 1.355 . S
C143 C144 1.363 . S
C143 H155 0.929 . S
C144 C143 1.363 . S
C144 N146 1.375 . S
C144 H162 0.931 . S
C145 N142 1.311 . S
C145 N146 1.347 . S
C145 H156 0.929 . S
N146 C144 1.375 . S
N146 C145 1.347 . S
C147 C150 1.365 . S
C147 N152 1.328 . S
C147 H153 0.929 . S
C148 C149 1.362 . S
C148 C151 1.378 . S
C148 H163 0.929 . S
C149 C148 1.362 . S
C149 C150 1.366 . S
C150 C147 1.365 . S
C150 C149 1.366 . S
C150 H164 0.930 . S
C151 C148 1.378 . S
C151 N152 1.315 . S
C151 H154 0.930 . S
N152 Co132 2.194 . S
N152 C147 1.328 . S
N152 C151 1.315 . S
H153 C147 0.929 . S
H154 C151 0.930 . S
H155 C143 0.929 . S
H156 C145 0.929 . S
O157 Co132 2.351 . S
O157 C160 1.244 . S
O158 Co132 2.155 . S
O158 C160 1.240 . S
O159 Co132 2.096 . S
O159 C140 1.247 . S
C160 O157 1.244 . S
C160 O158 1.240 . S
H161 C135 0.931 . S
H162 C144 0.931 . S
H163 C148 0.929 . S
H164 C150 0.930 . S
Co165 N169 2.148 . S
Co165 N175 2.128 . S
Co165 N185 2.194 . S
Co165 O190 2.351 . S
Co165 O191 2.155 . S
Co165 O192 2.096 . S
C166 N169 1.301 . S
C166 N170 1.328 . S
C166 H171 0.930 . S
C167 C168 1.333 . S
C167 N169 1.317 . S
C167 H172 0.930 . S
C168 C167 1.333 . S
C168 N170 1.350 . S
C168 H194 0.931 . S
N169 Co165 2.148 . S
N169 C166 1.301 . S
N169 C167 1.317 . S
N170 C166 1.328 . S
N170 C168 1.350 . S
H171 C166 0.930 . S
H172 C167 0.930 . S
C173 O174 1.224 . S
C173 O192 1.247 . S
O174 C173 1.224 . S
N175 Co165 2.128 . S
N175 C176 1.355 . S
N175 C178 1.311 . S
C176 N175 1.355 . S
C176 C177 1.363 . S
C176 H188 0.929 . S
C177 C176 1.363 . S
C177 N179 1.375 . S
C177 H195 0.931 . S
C178 N175 1.311 . S
C178 N179 1.347 . S
C178 H189 0.929 . S
N179 C177 1.375 . S
N179 C178 1.347 . S
C180 C183 1.365 . S
C180 N185 1.328 . S
C180 H186 0.929 . S
C181 C182 1.362 . S
C181 C184 1.378 . S
C181 H196 0.929 . S
C182 C181 1.362 . S
C182 C183 1.366 . S
C183 C180 1.365 . S
C183 C182 1.366 . S
C183 H197 0.930 . S
C184 C181 1.378 . S
C184 N185 1.315 . S
C184 H187 0.930 . S
N185 Co165 2.194 . S
N185 C180 1.328 . S
N185 C184 1.315 . S
H186 C180 0.929 . S
H187 C184 0.930 . S
H188 C176 0.929 . S
H189 C178 0.929 . S
O190 Co165 2.351 . S
O190 C193 1.244 . S
O191 Co165 2.155 . S
O191 C193 1.240 . S
O192 Co165 2.096 . S
O192 C173 1.247 . S
C193 O190 1.244 . S
C193 O191 1.240 . S
H194 C168 0.931 . S
H195 C177 0.931 . S
H196 C181 0.929 . S
H197 C183 0.930 . S
Co198 N202 2.148 . S
Co198 N208 2.128 . S
Co198 N218 2.194 . S
Co198 O223 2.351 . S
Co198 O224 2.155 . S
Co198 O225 2.096 . S
C199 N202 1.301 . S
C199 N203 1.328 . S
C199 H204 0.930 . S
C200 C201 1.333 . S
C200 N202 1.317 . S
C200 H205 0.930 . S
C201 C200 1.333 . S
C201 N203 1.350 . S
C201 H227 0.931 . S
N202 Co198 2.148 . S
N202 C199 1.301 . S
N202 C200 1.317 . S
N203 C199 1.328 . S
N203 C201 1.350 . S
H204 C199 0.930 . S
H205 C200 0.930 . S
C206 O207 1.224 . S
C206 O225 1.247 . S
O207 C206 1.224 . S
N208 Co198 2.128 . S
N208 C209 1.355 . S
N208 C211 1.311 . S
C209 N208 1.355 . S
C209 C210 1.363 . S
C209 H221 0.929 . S
C210 C209 1.363 . S
C210 N212 1.375 . S
C210 H228 0.931 . S
C211 N208 1.311 . S
C211 N212 1.347 . S
C211 H222 0.929 . S
N212 C210 1.375 . S
N212 C211 1.347 . S
C213 C216 1.365 . S
C213 N218 1.328 . S
C213 H219 0.929 . S
C214 C215 1.362 . S
C214 C217 1.378 . S
C214 H229 0.929 . S
C215 C214 1.362 . S
C215 C216 1.366 . S
C216 C213 1.365 . S
C216 C215 1.366 . S
C216 H230 0.930 . S
C217 C214 1.378 . S
C217 N218 1.315 . S
C217 H220 0.930 . S
N218 Co198 2.194 . S
N218 C213 1.328 . S
N218 C217 1.315 . S
H219 C213 0.929 . S
H220 C217 0.930 . S
H221 C209 0.929 . S
H222 C211 0.929 . S
O223 Co198 2.351 . S
O223 C226 1.244 . S
O224 Co198 2.155 . S
O224 C226 1.240 . S
O225 Co198 2.096 . S
O225 C206 1.247 . S
C226 O223 1.244 . S
C226 O224 1.240 . S
H227 C201 0.931 . S
H228 C210 0.931 . S
H229 C214 0.929 . S
H230 C216 0.930 . S
Co231 N235 2.148 . S
Co231 N241 2.128 . S
Co231 N251 2.194 . S
Co231 O256 2.351 . S
Co231 O257 2.155 . S
Co231 O258 2.096 . S
C232 N235 1.312 . S
C232 N236 1.301 1_556 S
C232 H237 0.946 . S
C233 C234 1.333 . S
C233 N235 1.317 1_554 S
C233 H238 0.930 . S
C234 C233 1.333 . S
C234 N236 1.350 . S
C234 H260 0.931 . S
N235 Co231 2.148 . S
N235 C232 1.312 . S
N235 C233 1.317 1_556 S
N236 C232 1.301 1_554 S
N236 C234 1.350 . S
H237 C232 0.946 . S
H238 C233 0.930 . S
C239 O240 1.224 . S
C239 O258 1.247 . S
O240 C239 1.224 . S
N241 Co231 2.128 . S
N241 C242 1.355 . S
N241 C244 1.311 . S
C242 N241 1.355 . S
C242 C243 1.363 . S
C242 H254 0.929 . S
C243 C242 1.363 . S
C243 N245 1.375 . S
C243 H261 0.931 . S
C244 N241 1.311 . S
C244 N245 1.347 . S
C244 H255 0.929 . S
N245 C243 1.375 . S
N245 C244 1.347 . S
C246 C249 1.365 . S
C246 N251 1.328 . S
C246 H252 0.929 . S
C247 C248 1.362 . S
C247 C250 1.378 . S
C247 H262 0.929 . S
C248 C247 1.362 . S
C248 C249 1.366 . S
C249 C246 1.365 . S
C249 C248 1.366 . S
C249 H263 0.930 . S
C250 C247 1.378 . S
C250 N251 1.315 . S
C250 H253 0.930 . S
N251 Co231 2.194 . S
N251 C246 1.328 . S
N251 C250 1.315 . S
H252 C246 0.929 . S
H253 C250 0.930 . S
H254 C242 0.929 . S
H255 C244 0.929 . S
O256 Co231 2.351 . S
O256 C259 1.244 . S
O257 Co231 2.155 . S
O257 C259 1.240 . S
O258 Co231 2.096 . S
O258 C239 1.247 . S
C259 O256 1.244 . S
C259 O257 1.240 . S
H260 C234 0.931 . S
H261 C243 0.931 . S
H262 C247 0.929 . S
H263 C249 0.930 . S
Co264 N268 2.148 . S
Co264 N274 2.128 . S
Co264 N284 2.194 . S
Co264 O289 2.351 . S
Co264 O290 2.155 . S
Co264 O291 2.096 . S
C265 N268 1.301 . S
C265 N269 1.328 . S
C265 H270 0.930 . S
C266 C267 1.333 . S
C266 N268 1.317 . S
C266 H271 0.930 . S
C267 C266 1.333 . S
C267 N269 1.350 . S
C267 H293 0.931 . S
N268 Co264 2.148 . S
N268 C265 1.301 . S
N268 C266 1.317 . S
N269 C265 1.328 . S
N269 C267 1.350 . S
H270 C265 0.930 . S
H271 C266 0.930 . S
C272 O273 1.224 . S
C272 O291 1.247 . S
O273 C272 1.224 . S
N274 Co264 2.128 . S
N274 C275 1.355 . S
N274 C277 1.311 . S
C275 N274 1.355 . S
C275 C276 1.363 . S
C275 H287 0.929 . S
C276 C275 1.363 . S
C276 N278 1.375 . S
C276 H294 0.931 . S
C277 N274 1.311 . S
C277 N278 1.347 . S
C277 H288 0.929 . S
N278 C276 1.375 . S
N278 C277 1.347 . S
C279 C282 1.365 . S
C279 N284 1.328 . S
C279 H285 0.929 . S
C280 C281 1.362 . S
C280 C283 1.378 . S
C280 H295 0.929 . S
C281 C280 1.362 . S
C281 C282 1.366 . S
C282 C279 1.365 . S
C282 C281 1.366 . S
C282 H296 0.930 . S
C283 C280 1.378 . S
C283 N284 1.315 . S
C283 H286 0.930 . S
N284 Co264 2.194 . S
N284 C279 1.328 . S
N284 C283 1.315 . S
H285 C279 0.929 . S
H286 C283 0.930 . S
H287 C275 0.929 . S
H288 C277 0.929 . S
O289 Co264 2.351 . S
O289 C292 1.244 . S
O290 Co264 2.155 . S
O290 C292 1.240 . S
O291 Co264 2.096 . S
O291 C272 1.247 . S
C292 O289 1.244 . S
C292 O290 1.240 . S
H293 C267 0.931 . S
H294 C276 0.931 . S
H295 C280 0.929 . S
H296 C282 0.930 . S
Co297 N301 2.148 . S
Co297 N307 2.128 . S
Co297 N317 2.194 . S
Co297 O322 2.351 . S
Co297 O323 2.155 . S
Co297 O324 2.096 . S
C298 N301 1.301 . S
C298 N302 1.328 . S
C298 H303 0.930 . S
C299 C300 1.333 . S
C299 N301 1.317 . S
C299 H304 0.930 . S
C300 C299 1.333 . S
C300 N302 1.350 . S
C300 H326 0.931 . S
N301 Co297 2.148 . S
N301 C298 1.301 . S
N301 C299 1.317 . S
N302 C298 1.328 . S
N302 C300 1.350 . S
H303 C298 0.930 . S
H304 C299 0.930 . S
C305 O306 1.224 . S
C305 O324 1.247 . S
O306 C305 1.224 . S
N307 Co297 2.128 . S
N307 C308 1.355 . S
N307 C310 1.311 . S
C308 N307 1.355 . S
C308 C309 1.363 . S
C308 H320 0.929 . S
C309 C308 1.363 . S
C309 N311 1.375 . S
C309 H327 0.931 . S
C310 N307 1.311 . S
C310 N311 1.347 . S
C310 H321 0.929 . S
N311 C309 1.375 . S
N311 C310 1.347 . S
C312 C315 1.365 . S
C312 N317 1.328 . S
C312 H318 0.929 . S
C313 C314 1.362 . S
C313 C316 1.378 . S
C313 H328 0.929 . S
C314 C313 1.362 . S
C314 C315 1.366 . S
C315 C312 1.365 . S
C315 C314 1.366 . S
C315 H329 0.930 . S
C316 C313 1.378 . S
C316 N317 1.315 . S
C316 H319 0.930 . S
N317 Co297 2.194 . S
N317 C312 1.328 . S
N317 C316 1.315 . S
H318 C312 0.929 . S
H319 C316 0.930 . S
H320 C308 0.929 . S
H321 C310 0.929 . S
O322 Co297 2.351 . S
O322 C325 1.244 . S
O323 Co297 2.155 . S
O323 C325 1.240 . S
O324 Co297 2.096 . S
O324 C305 1.247 . S
C325 O322 1.244 . S
C325 O323 1.240 . S
H326 C300 0.931 . S
H327 C309 0.931 . S
H328 C313 0.929 . S
H329 C315 0.930 . S
Co330 N334 2.148 . S
Co330 N340 2.128 . S
Co330 N350 2.194 . S
Co330 O355 2.351 . S
Co330 O356 2.155 . S
Co330 O357 2.096 . S
C331 N334 1.301 . S
C331 N335 1.328 . S
C331 H336 0.930 . S
C332 C333 1.333 . S
C332 N334 1.317 . S
C332 H337 0.930 . S
C333 C332 1.333 . S
C333 N335 1.350 . S
C333 H359 0.931 . S
N334 Co330 2.148 . S
N334 C331 1.301 . S
N334 C332 1.317 . S
N335 C331 1.328 . S
N335 C333 1.350 . S
H336 C331 0.930 . S
H337 C332 0.930 . S
C338 O339 1.224 . S
C338 O357 1.247 . S
O339 C338 1.224 . S
N340 Co330 2.128 . S
N340 C341 1.355 . S
N340 C343 1.311 . S
C341 N340 1.355 . S
C341 C342 1.363 . S
C341 H353 0.929 . S
C342 C341 1.363 . S
C342 N344 1.375 . S
C342 H360 0.931 . S
C343 N340 1.311 . S
C343 N344 1.347 . S
C343 H354 0.929 . S
N344 C342 1.375 . S
N344 C343 1.347 . S
C345 C348 1.365 . S
C345 N350 1.328 . S
C345 H351 0.929 . S
C346 C347 1.362 . S
C346 C349 1.378 . S
C346 H361 0.929 . S
C347 C346 1.362 . S
C347 C348 1.366 . S
C348 C345 1.365 . S
C348 C347 1.366 . S
C348 H362 0.930 . S
C349 C346 1.378 . S
C349 N350 1.315 . S
C349 H352 0.930 . S
N350 Co330 2.194 . S
N350 C345 1.328 . S
N350 C349 1.315 . S
H351 C345 0.929 . S
H352 C349 0.930 . S
H353 C341 0.929 . S
H354 C343 0.929 . S
O355 Co330 2.351 . S
O355 C358 1.244 . S
O356 Co330 2.155 . S
O356 C358 1.240 . S
O357 Co330 2.096 . S
O357 C338 1.247 . S
C358 O355 1.244 . S
C358 O356 1.240 . S
H359 C333 0.931 . S
H360 C342 0.931 . S
H361 C346 0.929 . S
H362 C348 0.930 . S
Co363 N367 2.148 . S
Co363 N373 2.128 . S
Co363 N383 2.194 . S
Co363 O388 2.351 . S
Co363 O389 2.155 . S
Co363 O390 2.096 . S
C364 N367 1.301 . S
C364 N368 1.328 . S
C364 H369 0.930 . S
C365 C366 1.333 . S
C365 N367 1.317 . S
C365 H370 0.930 . S
C366 C365 1.333 . S
C366 N368 1.350 . S
C366 H392 0.931 . S
N367 Co363 2.148 . S
N367 C364 1.301 . S
N367 C365 1.317 . S
N368 C364 1.328 . S
N368 C366 1.350 . S
H369 C364 0.930 . S
H370 C365 0.930 . S
C371 O372 1.224 . S
C371 O390 1.247 . S
O372 C371 1.224 . S
N373 Co363 2.128 . S
N373 C374 1.355 . S
N373 C376 1.311 . S
C374 N373 1.355 . S
C374 C375 1.363 . S
C374 H386 0.929 . S
C375 C374 1.363 . S
C375 N377 1.375 . S
C375 H393 0.931 . S
C376 N373 1.311 . S
C376 N377 1.347 . S
C376 H387 0.929 . S
N377 C375 1.375 . S
N377 C376 1.347 . S
C378 C381 1.365 . S
C378 N383 1.328 . S
C378 H384 0.929 . S
C379 C380 1.362 . S
C379 C382 1.378 . S
C379 H394 0.929 . S
C380 C379 1.362 . S
C380 C381 1.366 . S
C381 C378 1.365 . S
C381 C380 1.366 . S
C381 H395 0.930 . S
C382 C379 1.378 . S
C382 N383 1.315 . S
C382 H385 0.930 . S
N383 Co363 2.194 . S
N383 C378 1.328 . S
N383 C382 1.315 . S
H384 C378 0.929 . S
H385 C382 0.930 . S
H386 C374 0.929 . S
H387 C376 0.929 . S
O388 Co363 2.351 . S
O388 C391 1.244 . S
O389 Co363 2.155 . S
O389 C391 1.240 . S
O390 Co363 2.096 . S
O390 C371 1.247 . S
C391 O388 1.244 . S
C391 O389 1.240 . S
H392 C366 0.931 . S
H393 C375 0.931 . S
H394 C379 0.929 . S
H395 C381 0.930 . S
H396 C404 0.929 . S
H397 C406 0.930 . S
H398 C408 0.930 . S
H399 C411 0.929 . S
H400 C414 0.930 . S
H401 C416 0.960 . S
H402 C416 0.960 . S
H403 C416 0.960 . S
C404 H396 0.929 . S
C404 C405 1.377 . S
C404 C406 1.384 . S
C405 C404 1.377 . S
C405 C411 1.390 . S
C406 H397 0.930 . S
C406 C404 1.384 . S
C406 C407 1.372 . S
C407 C406 1.372 . S
C407 C408 1.400 . S
C407 C412 1.490 . S
C408 H398 0.930 . S
C408 C407 1.400 . S
C408 C411 1.386 . S
H409 C425 0.930 . S
H410 C426 0.931 . S
C411 H399 0.929 . S
C411 C405 1.390 . S
C411 C408 1.386 . S
C412 C407 1.490 . S
C412 C414 1.395 . S
C412 C415 1.403 . S
H413 C419 0.930 . S
C414 H400 0.930 . S
C414 C412 1.395 . S
C414 C417 1.403 . S
C415 C412 1.403 . S
C415 C416 1.524 . S
C415 C419 1.400 . S
C416 H401 0.960 . S
C416 H402 0.960 . S
C416 H403 0.960 . S
C416 C415 1.524 . S
C417 C414 1.403 . S
C417 C418 1.392 . S
C417 C421 1.495 . S
C418 C417 1.392 . S
C418 C419 1.385 . S
C418 C420 1.478 . S
C419 H413 0.930 . S
C419 C415 1.400 . S
C419 C418 1.385 . S
C420 C418 1.478 . S
C420 C422 1.381 . S
C420 C426 1.383 . S
C421 C417 1.495 . S
C421 H427 0.959 . S
C421 H428 0.961 . S
C421 H429 0.960 . S
C422 C420 1.381 . S
C422 C423 1.394 . S
C422 H430 0.930 . S
C423 C422 1.394 . S
C423 C424 1.383 . S
C423 H431 0.929 . S
C424 C423 1.383 . S
C424 C425 1.377 . S
C425 H409 0.930 . S
C425 C424 1.377 . S
C425 C426 1.379 . S
C426 H410 0.931 . S
C426 C420 1.383 . S
C426 C425 1.379 . S
H427 C421 0.959 . S
H428 C421 0.961 . S
H429 C421 0.960 . S
H430 C422 0.930 . S
H431 C423 0.929 . S
H432 C440 0.929 . S
H433 C442 0.930 . S
H434 C444 0.930 . S
H435 C447 0.929 . S
H436 C450 0.930 . S
H437 C452 0.960 . S
H438 C452 0.960 . S
H439 C452 0.960 . S
C440 H432 0.929 . S
C440 C441 1.377 . S
C440 C442 1.384 . S
C441 C440 1.377 . S
C441 C447 1.390 . S
C442 H433 0.930 . S
C442 C440 1.384 . S
C442 C443 1.372 . S
C443 C442 1.372 . S
C443 C444 1.400 . S
C443 C448 1.490 . S
C444 H434 0.930 . S
C444 C443 1.400 . S
C444 C447 1.386 . S
H445 C461 0.930 . S
H446 C462 0.931 . S
C447 H435 0.929 . S
C447 C441 1.390 . S
C447 C444 1.386 . S
C448 C443 1.490 . S
C448 C450 1.395 . S
C448 C451 1.403 . S
H449 C455 0.930 . S
C450 H436 0.930 . S
C450 C448 1.395 . S
C450 C453 1.403 . S
C451 C448 1.403 . S
C451 C452 1.524 . S
C451 C455 1.400 . S
C452 H437 0.960 . S
C452 H438 0.960 . S
C452 H439 0.960 . S
C452 C451 1.524 . S
C453 C450 1.403 . S
C453 C454 1.392 . S
C453 C457 1.495 . S
C454 C453 1.392 . S
C454 C455 1.385 . S
C454 C456 1.478 . S
C455 H449 0.930 . S
C455 C451 1.400 . S
C455 C454 1.385 . S
C456 C454 1.478 . S
C456 C458 1.381 . S
C456 C462 1.383 . S
C457 C453 1.495 . S
C457 H463 0.959 . S
C457 H464 0.961 . S
C457 H465 0.960 . S
C458 C456 1.381 . S
C458 C459 1.394 . S
C458 H466 0.930 . S
C459 C458 1.394 . S
C459 C460 1.383 . S
C459 H467 0.929 . S
C460 C459 1.383 . S
C460 C461 1.377 . S
C461 H445 0.930 . S
C461 C460 1.377 . S
C461 C462 1.379 . S
C462 H446 0.931 . S
C462 C456 1.383 . S
C462 C461 1.379 . S
H463 C457 0.959 . S
H464 C457 0.961 . S
H465 C457 0.960 . S
H466 C458 0.930 . S
H467 C459 0.929 . S
H468 C476 0.929 . S
H469 C478 0.930 . S
H470 C480 0.930 . S
H471 C483 0.929 . S
H472 C486 0.930 . S
H473 C488 0.960 . S
H474 C488 0.960 . S
H475 C488 0.960 . S
C476 H468 0.929 . S
C476 C477 1.377 . S
C476 C478 1.384 . S
C477 C476 1.377 . S
C477 C483 1.390 . S
C478 H469 0.930 . S
C478 C476 1.384 . S
C478 C479 1.372 . S
C479 C478 1.372 . S
C479 C480 1.400 . S
C479 C484 1.490 . S
C480 H470 0.930 . S
C480 C479 1.400 . S
C480 C483 1.386 . S
H481 C497 0.930 . S
H482 C498 0.931 . S
C483 H471 0.929 . S
C483 C477 1.390 . S
C483 C480 1.386 . S
C484 C479 1.490 . S
C484 C486 1.395 . S
C484 C487 1.403 . S
H485 C491 0.930 . S
C486 H472 0.930 . S
C486 C484 1.395 . S
C486 C489 1.403 . S
C487 C484 1.403 . S
C487 C488 1.524 . S
C487 C491 1.400 . S
C488 H473 0.960 . S
C488 H474 0.960 . S
C488 H475 0.960 . S
C488 C487 1.524 . S
C489 C486 1.403 . S
C489 C490 1.392 . S
C489 C493 1.495 . S
C490 C489 1.392 . S
C490 C491 1.385 . S
C490 C492 1.478 . S
C491 H485 0.930 . S
C491 C487 1.400 . S
C491 C490 1.385 . S
C492 C490 1.478 . S
C492 C494 1.381 . S
C492 C498 1.383 . S
C493 C489 1.495 . S
C493 H499 0.959 . S
C493 H500 0.961 . S
C493 H501 0.960 . S
C494 C492 1.381 . S
C494 C495 1.394 . S
C494 H502 0.930 . S
C495 C494 1.394 . S
C495 C496 1.383 . S
C495 H503 0.929 . S
C496 C495 1.383 . S
C496 C497 1.377 . S
C497 H481 0.930 . S
C497 C496 1.377 . S
C497 C498 1.379 . S
C498 H482 0.931 . S
C498 C492 1.383 . S
C498 C497 1.379 . S
H499 C493 0.959 . S
H500 C493 0.961 . S
H501 C493 0.960 . S
H502 C494 0.930 . S
H503 C495 0.929 . S
H504 C512 0.929 . S
H505 C514 0.930 . S
H506 C516 0.930 . S
H507 C519 0.929 . S
H508 C522 0.930 . S
H509 C524 0.960 . S
H510 C524 0.960 . S
H511 C524 0.960 . S
C512 H504 0.929 . S
C512 C513 1.377 . S
C512 C514 1.384 . S
C513 C512 1.377 . S
C513 C519 1.390 . S
C514 H505 0.930 . S
C514 C512 1.384 . S
C514 C515 1.372 . S
C515 C514 1.372 . S
C515 C516 1.400 . S
C515 C520 1.490 . S
C516 H506 0.930 . S
C516 C515 1.400 . S
C516 C519 1.386 . S
H517 C533 0.930 . S
H518 C534 0.931 . S
C519 H507 0.929 . S
C519 C513 1.390 . S
C519 C516 1.386 . S
C520 C515 1.490 . S
C520 C522 1.395 . S
C520 C523 1.403 . S
H521 C527 0.930 . S
C522 H508 0.930 . S
C522 C520 1.395 . S
C522 C525 1.403 . S
C523 C520 1.403 . S
C523 C524 1.524 . S
C523 C527 1.400 . S
C524 H509 0.960 . S
C524 H510 0.960 . S
C524 H511 0.960 . S
C524 C523 1.524 . S
C525 C522 1.403 . S
C525 C526 1.392 . S
C525 C529 1.495 . S
C526 C525 1.392 . S
C526 C527 1.385 . S
C526 C528 1.478 . S
C527 H521 0.930 . S
C527 C523 1.400 . S
C527 C526 1.385 . S
C528 C526 1.478 . S
C528 C530 1.381 . S
C528 C534 1.383 . S
C529 C525 1.495 . S
C529 H535 0.959 . S
C529 H536 0.961 . S
C529 H537 0.960 . S
C530 C528 1.381 . S
C530 C531 1.394 . S
C530 H538 0.930 . S
C531 C530 1.394 . S
C531 C532 1.383 . S
C531 H539 0.929 . S
C532 C531 1.383 . S
C532 C533 1.377 . S
C533 H517 0.930 . S
C533 C532 1.377 . S
C533 C534 1.379 . S
C534 H518 0.931 . S
C534 C528 1.383 . S
C534 C533 1.379 . S
H535 C529 0.959 . S
H536 C529 0.961 . S
H537 C529 0.960 . S
H538 C530 0.930 . S
H539 C531 0.929 . S
H540 C548 0.929 . S
H541 C550 0.930 . S
H542 C552 0.930 . S
H543 C555 0.929 . S
H544 C558 0.930 . S
H545 C560 0.960 . S
H546 C560 0.960 . S
H547 C560 0.960 . S
C548 H540 0.929 . S
C548 C549 1.377 . S
C548 C550 1.384 . S
C549 C548 1.377 . S
C549 C555 1.390 . S
C550 H541 0.930 . S
C550 C548 1.384 . S
C550 C551 1.372 . S
C551 C550 1.372 . S
C551 C552 1.400 . S
C551 C556 1.490 . S
C552 H542 0.930 . S
C552 C551 1.400 . S
C552 C555 1.386 . S
H553 C569 0.930 . S
H554 C570 0.931 . S
C555 H543 0.929 . S
C555 C549 1.390 . S
C555 C552 1.386 . S
C556 C551 1.490 . S
C556 C558 1.395 . S
C556 C559 1.403 . S
H557 C563 0.930 . S
C558 H544 0.930 . S
C558 C556 1.395 . S
C558 C561 1.403 . S
C559 C556 1.403 . S
C559 C560 1.524 . S
C559 C563 1.400 . S
C560 H545 0.960 . S
C560 H546 0.960 . S
C560 H547 0.960 . S
C560 C559 1.524 . S
C561 C558 1.403 . S
C561 C562 1.392 . S
C561 C565 1.495 . S
C562 C561 1.392 . S
C562 C563 1.385 . S
C562 C564 1.478 . S
C563 H557 0.930 . S
C563 C559 1.400 . S
C563 C562 1.385 . S
C564 C562 1.478 . S
C564 C566 1.381 . S
C564 C570 1.383 . S
C565 C561 1.495 . S
C565 H571 0.959 . S
C565 H572 0.961 . S
C565 H573 0.960 . S
C566 C564 1.381 . S
C566 C567 1.394 . S
C566 H574 0.930 . S
C567 C566 1.394 . S
C567 C568 1.383 1_556 S
C567 H575 0.926 1_556 S
C568 C567 1.383 1_554 S
C568 C569 1.377 . S
C569 H553 0.930 . S
C569 C568 1.377 . S
C569 C570 1.379 1_554 S
C570 H554 0.931 . S
C570 C564 1.383 . S
C570 C569 1.379 1_556 S
H571 C565 0.959 . S
H572 C565 0.961 . S
H573 C565 0.960 . S
H574 C566 0.930 . S
H575 C567 0.926 1_554 S
H576 C584 0.929 . S
H577 C586 0.930 . S
H578 C588 0.930 . S
H579 C591 0.929 . S
H580 C594 0.930 . S
H581 C596 0.960 . S
H582 C596 0.960 . S
H583 C596 0.960 . S
C584 H576 0.929 . S
C584 C585 1.377 1_554 S
C584 C586 1.384 . S
C585 C584 1.377 1_556 S
C585 C591 1.390 . S
C586 H577 0.930 . S
C586 C584 1.384 . S
C586 C587 1.372 . S
C587 C586 1.372 . S
C587 C588 1.400 . S
C587 C592 1.490 . S
C588 H578 0.930 . S
C588 C587 1.400 . S
C588 C591 1.386 1_554 S
H589 C605 0.930 . S
H590 C606 0.931 . S
C591 H579 0.929 . S
C591 C585 1.390 . S
C591 C588 1.386 1_556 S
C592 C587 1.490 . S
C592 C594 1.395 . S
C592 C595 1.403 . S
H593 C599 0.930 . S
C594 H580 0.930 . S
C594 C592 1.395 . S
C594 C597 1.403 . S
C595 C592 1.403 . S
C595 C596 1.524 . S
C595 C599 1.400 . S
C596 H581 0.960 . S
C596 H582 0.960 . S
C596 H583 0.960 . S
C596 C595 1.524 . S
C597 C594 1.403 . S
C597 C598 1.392 . S
C597 C601 1.495 . S
C598 C597 1.392 . S
C598 C599 1.385 . S
C598 C600 1.478 . S
C599 H593 0.930 . S
C599 C595 1.400 . S
C599 C598 1.385 . S
C600 C598 1.478 . S
C600 C602 1.381 . S
C600 C606 1.383 . S
C601 C597 1.495 . S
C601 H607 0.959 . S
C601 H608 0.961 . S
C601 H609 0.960 . S
C602 C600 1.381 . S
C602 C603 1.394 . S
C602 H610 0.930 . S
C603 C602 1.394 . S
C603 C604 1.383 . S
C603 H611 0.929 . S
C604 C603 1.383 . S
C604 C605 1.377 . S
C605 H589 0.930 . S
C605 C604 1.377 . S
C605 C606 1.379 . S
C606 H590 0.931 . S
C606 C600 1.383 . S
C606 C605 1.379 . S
H607 C601 0.959 . S
H608 C601 0.961 . S
H609 C601 0.960 . S
H610 C602 0.930 . S
H611 C603 0.929 . S
H612 C620 0.929 . S
H613 C622 0.930 . S
H614 C624 0.930 . S
H615 C627 0.929 . S
H616 C630 0.930 . S
H617 C632 0.960 . S
H618 C632 0.960 . S
H619 C632 0.960 . S
C620 H612 0.929 . S
C620 C621 1.377 . S
C620 C622 1.384 . S
C621 C620 1.377 . S
C621 C627 1.390 . S
C622 H613 0.930 . S
C622 C620 1.384 . S
C622 C623 1.372 . S
C623 C622 1.372 . S
C623 C624 1.400 . S
C623 C628 1.490 . S
C624 H614 0.930 . S
C624 C623 1.400 . S
C624 C627 1.386 . S
H625 C641 0.930 . S
H626 C642 0.931 . S
C627 H615 0.929 . S
C627 C621 1.390 . S
C627 C624 1.386 . S
C628 C623 1.490 . S
C628 C630 1.395 . S
C628 C631 1.403 . S
H629 C635 0.930 . S
C630 H616 0.930 . S
C630 C628 1.395 . S
C630 C633 1.403 . S
C631 C628 1.403 . S
C631 C632 1.524 . S
C631 C635 1.400 . S
C632 H617 0.960 . S
C632 H618 0.960 . S
C632 H619 0.960 . S
C632 C631 1.524 . S
C633 C630 1.403 . S
C633 C634 1.392 . S
C633 C637 1.495 . S
C634 C633 1.392 . S
C634 C635 1.385 . S
C634 C636 1.478 . S
C635 H629 0.930 . S
C635 C631 1.400 . S
C635 C634 1.385 . S
C636 C634 1.478 . S
C636 C638 1.381 . S
C636 C642 1.383 . S
C637 C633 1.495 . S
C637 H643 0.959 . S
C637 H644 0.961 . S
C637 H645 0.960 . S
C638 C636 1.381 . S
C638 C639 1.394 . S
C638 H646 0.930 . S
C639 C638 1.394 . S
C639 C640 1.383 . S
C639 H647 0.929 . S
C640 C639 1.383 . S
C640 C641 1.377 . S
C641 H625 0.930 . S
C641 C640 1.377 . S
C641 C642 1.379 . S
C642 H626 0.931 . S
C642 C636 1.383 . S
C642 C641 1.379 . S
H643 C637 0.959 . S
H644 C637 0.961 . S
H645 C637 0.960 . S
H646 C638 0.930 . S
H647 C639 0.929 . S
H648 C656 0.929 . S
H649 C658 0.930 . S
H650 C660 0.930 . S
H651 C663 0.929 . S
H652 C666 0.930 . S
H653 C668 0.960 . S
H654 C668 0.960 . S
H655 C668 0.960 . S
C656 H648 0.929 . S
C656 C657 1.377 . S
C656 C658 1.384 . S
C657 C656 1.377 . S
C657 C663 1.390 . S
C658 H649 0.930 . S
C658 C656 1.384 . S
C658 C659 1.372 . S
C659 C658 1.372 . S
C659 C660 1.400 . S
C659 C664 1.490 . S
C660 H650 0.930 . S
C660 C659 1.400 . S
C660 C663 1.386 . S
H661 C677 0.930 . S
H662 C678 0.931 . S
C663 H651 0.929 . S
C663 C657 1.390 . S
C663 C660 1.386 . S
C664 C659 1.490 . S
C664 C666 1.395 . S
C664 C667 1.403 . S
H665 C671 0.930 . S
C666 H652 0.930 . S
C666 C664 1.395 . S
C666 C669 1.403 . S
C667 C664 1.403 . S
C667 C668 1.524 . S
C667 C671 1.400 . S
C668 H653 0.960 . S
C668 H654 0.960 . S
C668 H655 0.960 . S
C668 C667 1.524 . S
C669 C666 1.403 . S
C669 C670 1.392 . S
C669 C673 1.495 . S
C670 C669 1.392 . S
C670 C671 1.385 . S
C670 C672 1.478 . S
C671 H665 0.930 . S
C671 C667 1.400 . S
C671 C670 1.385 . S
C672 C670 1.478 . S
C672 C674 1.381 . S
C672 C678 1.383 . S
C673 C669 1.495 . S
C673 H679 0.959 . S
C673 H680 0.961 . S
C673 H681 0.960 . S
C674 C672 1.381 . S
C674 C675 1.394 . S
C674 H682 0.930 . S
C675 C674 1.394 . S
C675 C676 1.383 . S
C675 H683 0.929 . S
C676 C675 1.383 . S
C676 C677 1.377 . S
C677 H661 0.930 . S
C677 C676 1.377 . S
C677 C678 1.379 . S
C678 H662 0.931 . S
C678 C672 1.383 . S
C678 C677 1.379 . S
H679 C673 0.959 . S
H680 C673 0.961 . S
H681 C673 0.960 . S
H682 C674 0.930 . S
H683 C675 0.929 . S
H684 C692 0.929 . S
H685 C694 0.930 . S
H686 C696 0.930 . S
H687 C699 0.929 . S
H688 C702 0.930 . S
H689 C704 0.960 . S
H690 C704 0.960 . S
H691 C704 0.960 . S
C692 H684 0.929 . S
C692 C693 1.377 . S
C692 C694 1.384 . S
C693 C692 1.377 . S
C693 C699 1.390 . S
C694 H685 0.930 . S
C694 C692 1.384 . S
C694 C695 1.372 . S
C695 C694 1.372 . S
C695 C696 1.400 . S
C695 C700 1.490 . S
C696 H686 0.930 . S
C696 C695 1.400 . S
C696 C699 1.386 . S
H697 C713 0.930 . S
H698 C714 0.931 . S
C699 H687 0.929 . S
C699 C693 1.390 . S
C699 C696 1.386 . S
C700 C695 1.490 . S
C700 C702 1.395 . S
C700 C703 1.403 . S
H701 C707 0.930 . S
C702 H688 0.930 . S
C702 C700 1.395 . S
C702 C705 1.403 . S
C703 C700 1.403 . S
C703 C704 1.524 . S
C703 C707 1.400 . S
C704 H689 0.960 . S
C704 H690 0.960 . S
C704 H691 0.960 . S
C704 C703 1.524 . S
C705 C702 1.403 . S
C705 C706 1.392 . S
C705 C709 1.495 . S
C706 C705 1.392 . S
C706 C707 1.385 . S
C706 C708 1.478 . S
C707 H701 0.930 . S
C707 C703 1.400 . S
C707 C706 1.385 . S
C708 C706 1.478 . S
C708 C710 1.381 . S
C708 C714 1.383 . S
C709 C705 1.495 . S
C709 H715 0.959 . S
C709 H716 0.961 . S
C709 H717 0.960 . S
C710 C708 1.381 . S
C710 C711 1.394 . S
C710 H718 0.930 . S
C711 C710 1.394 . S
C711 C712 1.383 . S
C711 H719 0.929 . S
C712 C711 1.383 . S
C712 C713 1.377 . S
C713 H697 0.930 . S
C713 C712 1.377 . S
C713 C714 1.379 . S
C714 H698 0.931 . S
C714 C708 1.383 . S
C714 C713 1.379 . S
H715 C709 0.959 . S
H716 C709 0.961 . S
H717 C709 0.960 . S
H718 C710 0.930 . S
H719 C711 0.929 . S
H720 C728 0.929 . S
H721 C730 0.930 . S
H722 C732 0.930 . S
H723 C735 0.929 . S
H724 C738 0.930 . S
H725 C740 0.960 . S
H726 C740 0.960 . S
H727 C740 0.960 . S
C728 H720 0.929 . S
C728 C729 1.377 . S
C728 C730 1.384 . S
C729 C728 1.377 . S
C729 C735 1.390 . S
C730 H721 0.930 . S
C730 C728 1.384 . S
C730 C731 1.372 . S
C731 C730 1.372 . S
C731 C732 1.400 . S
C731 C736 1.490 . S
C732 H722 0.930 . S
C732 C731 1.400 . S
C732 C735 1.386 . S
H733 C749 0.930 . S
H734 C750 0.931 . S
C735 H723 0.929 . S
C735 C729 1.390 . S
C735 C732 1.386 . S
C736 C731 1.490 . S
C736 C738 1.395 . S
C736 C739 1.403 . S
H737 C743 0.930 . S
C738 H724 0.930 . S
C738 C736 1.395 . S
C738 C741 1.403 . S
C739 C736 1.403 . S
C739 C740 1.524 . S
C739 C743 1.400 . S
C740 H725 0.960 . S
C740 H726 0.960 . S
C740 H727 0.960 . S
C740 C739 1.524 . S
C741 C738 1.403 . S
C741 C742 1.392 . S
C741 C745 1.495 . S
C742 C741 1.392 . S
C742 C743 1.385 . S
C742 C744 1.478 . S
C743 H737 0.930 . S
C743 C739 1.400 . S
C743 C742 1.385 . S
C744 C742 1.478 . S
C744 C746 1.381 . S
C744 C750 1.383 . S
C745 C741 1.495 . S
C745 H751 0.959 . S
C745 H752 0.961 . S
C745 H753 0.960 . S
C746 C744 1.381 . S
C746 C747 1.394 . S
C746 H754 0.930 . S
C747 C746 1.394 . S
C747 C748 1.383 . S
C747 H755 0.929 . S
C748 C747 1.383 . S
C748 C749 1.377 . S
C749 H733 0.930 . S
C749 C748 1.377 . S
C749 C750 1.379 . S
C750 H734 0.931 . S
C750 C744 1.383 . S
C750 C749 1.379 . S
H751 C745 0.959 . S
H752 C745 0.961 . S
H753 C745 0.960 . S
H754 C746 0.930 . S
H755 C747 0.929 . S
H756 C764 0.929 . S
H757 C766 0.930 . S
H758 C768 0.930 . S
H759 C771 0.929 . S
H760 C774 0.930 . S
H761 C776 0.960 . S
H762 C776 0.960 . S
H763 C776 0.960 . S
C764 H756 0.929 . S
C764 C765 1.377 . S
C764 C766 1.384 . S
C765 C764 1.377 . S
C765 C771 1.390 . S
C766 H757 0.930 . S
C766 C764 1.384 . S
C766 C767 1.372 . S
C767 C766 1.372 . S
C767 C768 1.400 . S
C767 C772 1.490 . S
C768 H758 0.930 . S
C768 C767 1.400 . S
C768 C771 1.386 . S
H769 C785 0.930 . S
H770 C786 0.931 . S
C771 H759 0.929 . S
C771 C765 1.390 . S
C771 C768 1.386 . S
C772 C767 1.490 . S
C772 C774 1.395 . S
C772 C775 1.403 . S
H773 C779 0.930 . S
C774 H760 0.930 . S
C774 C772 1.395 . S
C774 C777 1.403 . S
C775 C772 1.403 . S
C775 C776 1.524 . S
C775 C779 1.400 . S
C776 H761 0.960 . S
C776 H762 0.960 . S
C776 H763 0.960 . S
C776 C775 1.524 . S
C777 C774 1.403 . S
C777 C778 1.392 . S
C777 C781 1.495 . S
C778 C777 1.392 . S
C778 C779 1.385 . S
C778 C780 1.478 . S
C779 H773 0.930 . S
C779 C775 1.400 . S
C779 C778 1.385 . S
C780 C778 1.478 . S
C780 C782 1.381 . S
C780 C786 1.383 . S
C781 C777 1.495 . S
C781 H787 0.959 . S
C781 H788 0.961 . S
C781 H789 0.960 . S
C782 C780 1.381 . S
C782 C783 1.394 . S
C782 H790 0.930 . S
C783 C782 1.394 . S
C783 C784 1.383 . S
C783 H791 0.929 . S
C784 C783 1.383 . S
C784 C785 1.377 . S
C785 H769 0.930 . S
C785 C784 1.377 . S
C785 C786 1.379 . S
C786 H770 0.931 . S
C786 C780 1.383 . S
C786 C785 1.379 . S
H787 C781 0.959 . S
H788 C781 0.961 . S
H789 C781 0.960 . S
H790 C782 0.930 . S
H791 C783 0.929 . S
H792 C800 0.929 . S
H793 C802 0.930 . S
H794 C804 0.930 . S
H795 C807 0.929 . S
H796 C810 0.930 . S
H797 C812 0.960 . S
H798 C812 0.960 . S
H799 C812 0.960 . S
C800 H792 0.929 . S
C800 C801 1.377 . S
C800 C802 1.384 . S
C801 C800 1.377 . S
C801 C807 1.390 . S
C802 H793 0.930 . S
C802 C800 1.384 . S
C802 C803 1.372 . S
C803 C802 1.372 . S
C803 C804 1.400 . S
C803 C808 1.490 . S
C804 H794 0.930 . S
C804 C803 1.400 . S
C804 C807 1.386 . S
H805 C821 0.930 . S
H806 C822 0.931 . S
C807 H795 0.929 . S
C807 C801 1.390 . S
C807 C804 1.386 . S
C808 C803 1.490 . S
C808 C810 1.395 . S
C808 C811 1.403 . S
H809 C815 0.930 . S
C810 H796 0.930 . S
C810 C808 1.395 . S
C810 C813 1.403 . S
C811 C808 1.403 . S
C811 C812 1.524 . S
C811 C815 1.400 . S
C812 H797 0.960 . S
C812 H798 0.960 . S
C812 H799 0.960 . S
C812 C811 1.524 . S
C813 C810 1.403 . S
C813 C814 1.392 . S
C813 C817 1.495 . S
C814 C813 1.392 . S
C814 C815 1.385 . S
C814 C816 1.478 . S
C815 H809 0.930 . S
C815 C811 1.400 . S
C815 C814 1.385 . S
C816 C814 1.478 . S
C816 C818 1.381 . S
C816 C822 1.383 . S
C817 C813 1.495 . S
C817 H823 0.959 . S
C817 H824 0.961 . S
C817 H825 0.960 . S
C818 C816 1.381 . S
C818 C819 1.394 . S
C818 H826 0.930 . S
C819 C818 1.394 . S
C819 C820 1.383 . S
C819 H827 0.929 . S
C820 C819 1.383 . S
C820 C821 1.377 . S
C821 H805 0.930 . S
C821 C820 1.377 . S
C821 C822 1.379 . S
C822 H806 0.931 . S
C822 C816 1.383 . S
C822 C821 1.379 . S
H823 C817 0.959 . S
H824 C817 0.961 . S
H825 C817 0.960 . S
H826 C818 0.930 . S
H827 C819 0.929 . S
H828 C836 0.929 1_455 S
H829 C838 0.930 . S
H830 C840 0.930 . S
H831 C843 0.929 . S
H832 C846 0.930 . S
H833 C848 0.960 . S
H834 C848 0.960 . S
H835 C848 0.960 . S
C836 H828 0.929 1_655 S
C836 C837 1.377 . S
C836 C838 1.384 1_655 S
C837 C836 1.377 . S
C837 C843 1.390 . S
C838 H829 0.930 . S
C838 C836 1.384 1_455 S
C838 C839 1.372 1_455 S
C839 C838 1.372 1_655 S
C839 C840 1.400 . S
C839 C844 1.490 . S
C840 H830 0.930 . S
C840 C839 1.400 . S
C840 C843 1.386 . S
H841 C857 0.930 1_655 S
H842 C858 0.894 1_655 S
C843 H831 0.929 . S
C843 C837 1.390 . S
C843 C840 1.386 . S
C844 C839 1.490 . S
C844 C846 1.395 1_655 S
C844 C847 1.403 . S
H845 C851 0.930 . S
C846 H832 0.930 . S
C846 C844 1.395 1_455 S
C846 C849 1.403 . S
C847 C844 1.403 . S
C847 C848 1.524 . S
C847 C851 1.400 . S
C848 H833 0.960 . S
C848 H834 0.960 . S
C848 H835 0.960 . S
C848 C847 1.524 . S
C849 C846 1.403 . S
C849 C850 1.392 . S
C849 C853 1.495 . S
C850 C849 1.392 . S
C850 C851 1.385 1_455 S
C850 C852 1.478 . S
C851 H845 0.930 . S
C851 C847 1.400 . S
C851 C850 1.385 1_655 S
C852 C850 1.478 . S
C852 C854 1.381 . S
C852 C858 1.411 . S
C853 C849 1.495 . S
C853 H859 0.959 . S
C853 H860 0.961 . S
C853 H861 0.960 . S
C854 C852 1.381 . S
C854 C855 1.394 . S
C854 H862 0.930 . S
C855 C854 1.394 . S
C855 C856 1.383 . S
C855 H863 0.929 . S
C856 C855 1.383 . S
C856 C857 1.377 . S
C857 H841 0.930 1_455 S
C857 C856 1.377 . S
C857 C858 1.389 . S
C858 H842 0.894 1_455 S
C858 C852 1.411 . S
C858 C857 1.389 . S
H859 C853 0.959 . S
H860 C853 0.961 . S
H861 C853 0.960 . S
H862 C854 0.930 . S
H863 C855 0.929 . S
H864 C872 0.929 . S
H865 C874 0.930 . S
H866 C876 0.930 . S
H867 C879 0.929 . S
H868 C882 0.930 . S
H869 C884 0.960 1_554 S
H870 C884 0.960 . S
H871 C884 0.960 . S
C872 H864 0.929 . S
C872 C873 1.377 . S
C872 C874 1.384 . S
C873 C872 1.377 . S
C873 C879 1.390 . S
C874 H865 0.930 . S
C874 C872 1.384 . S
C874 C875 1.372 . S
C875 C874 1.372 . S
C875 C876 1.400 . S
C875 C880 1.490 . S
C876 H866 0.930 . S
C876 C875 1.400 . S
C876 C879 1.386 . S
H877 C893 0.930 . S
H878 C894 0.931 . S
C879 H867 0.929 . S
C879 C873 1.390 . S
C879 C876 1.386 . S
C880 C875 1.490 . S
C880 C882 1.395 1_565 S
C880 C883 1.403 . S
H881 C887 0.930 . S
C882 H868 0.930 . S
C882 C880 1.395 1_545 S
C882 C885 1.403 1_556 S
C883 C880 1.403 . S
C883 C884 1.524 . S
C883 C887 1.400 1_556 S
C884 H869 0.960 1_556 S
C884 H870 0.960 . S
C884 H871 0.960 . S
C884 C883 1.524 . S
C885 C882 1.403 1_554 S
C885 C886 1.392 . S
C885 C889 1.495 . S
C886 C885 1.392 . S
C886 C887 1.385 1_545 S
C886 C888 1.478 . S
C887 H881 0.930 . S
C887 C883 1.400 1_554 S
C887 C886 1.385 1_565 S
C888 C886 1.478 . S
C888 C890 1.381 . S
C888 C894 1.383 . S
C889 C885 1.495 . S
C889 H895 0.959 1_554 S
C889 H896 0.961 . S
C889 H897 0.960 . S
C890 C888 1.381 . S
C890 C891 1.394 . S
C890 H898 0.930 . S
C891 C890 1.394 . S
C891 C892 1.383 . S
C891 H899 0.929 . S
C892 C891 1.383 . S
C892 C893 1.377 . S
C893 H877 0.930 . S
C893 C892 1.377 . S
C893 C894 1.379 . S
C894 H878 0.931 . S
C894 C888 1.383 . S
C894 C893 1.379 . S
H895 C889 0.959 1_556 S
H896 C889 0.961 . S
H897 C889 0.960 . S
H898 C890 0.930 . S
H899 C891 0.929 . S
H900 C908 0.929 . S
H901 C910 0.930 . S
H902 C912 0.930 . S
H903 C915 0.929 . S
H904 C918 0.930 . S
H905 C920 0.960 . S
H906 C920 0.960 . S
H907 C920 0.960 . S
C908 H900 0.929 . S
C908 C909 1.377 . S
C908 C910 1.384 . S
C909 C908 1.377 . S
C909 C915 1.390 . S
C910 H901 0.930 . S
C910 C908 1.384 . S
C910 C911 1.372 . S
C911 C910 1.372 . S
C911 C912 1.400 . S
C911 C916 1.490 . S
C912 H902 0.930 . S
C912 C911 1.400 . S
C912 C915 1.386 . S
H913 C929 0.930 . S
H914 C930 0.931 . S
C915 H903 0.929 . S
C915 C909 1.390 . S
C915 C912 1.386 . S
C916 C911 1.490 . S
C916 C918 1.395 . S
C916 C919 1.403 . S
H917 C923 0.930 . S
C918 H904 0.930 . S
C918 C916 1.395 . S
C918 C921 1.403 . S
C919 C916 1.403 . S
C919 C920 1.524 . S
C919 C923 1.400 . S
C920 H905 0.960 . S
C920 H906 0.960 . S
C920 H907 0.960 . S
C920 C919 1.524 . S
C921 C918 1.403 . S
C921 C922 1.392 . S
C921 C925 1.495 . S
C922 C921 1.392 . S
C922 C923 1.385 . S
C922 C924 1.478 . S
C923 H917 0.930 . S
C923 C919 1.400 . S
C923 C922 1.385 . S
C924 C922 1.478 . S
C924 C926 1.381 . S
C924 C930 1.383 . S
C925 C921 1.495 . S
C925 H931 0.959 . S
C925 H932 0.961 . S
C925 H933 0.960 . S
C926 C924 1.381 . S
C926 C927 1.394 . S
C926 H934 0.930 . S
C927 C926 1.394 . S
C927 C928 1.383 . S
C927 H935 0.929 . S
C928 C927 1.383 . S
C928 C929 1.377 . S
C929 H913 0.930 . S
C929 C928 1.377 . S
C929 C930 1.379 . S
C930 H914 0.931 . S
C930 C924 1.383 . S
C930 C929 1.379 . S
H931 C925 0.959 . S
H932 C925 0.961 . S
H933 C925 0.960 . S
H934 C926 0.930 . S
H935 C927 0.929 . S
H936 C944 0.929 . S
H937 C946 0.930 . S
H938 C948 0.930 . S
H939 C951 0.929 . S
H940 C954 0.930 . S
H941 C956 0.960 . S
H942 C956 0.960 . S
H943 C956 0.960 . S
C944 H936 0.929 . S
C944 C945 1.377 . S
C944 C946 1.384 . S
C945 C944 1.377 . S
C945 C951 1.390 . S
C946 H937 0.930 . S
C946 C944 1.384 . S
C946 C947 1.372 . S
C947 C946 1.372 . S
C947 C948 1.400 . S
C947 C952 1.490 . S
C948 H938 0.930 . S
C948 C947 1.400 . S
C948 C951 1.386 . S
H949 C965 0.930 . S
H950 C966 0.931 . S
C951 H939 0.929 . S
C951 C945 1.390 . S
C951 C948 1.386 . S
C952 C947 1.490 . S
C952 C954 1.395 . S
C952 C955 1.403 1_655 S
H953 C959 0.930 . S
C954 H940 0.930 . S
C954 C952 1.395 . S
C954 C957 1.403 . S
C955 C952 1.403 1_455 S
C955 C956 1.524 . S
C955 C959 1.400 . S
C956 H941 0.960 . S
C956 H942 0.960 . S
C956 H943 0.960 . S
C956 C955 1.524 . S
C957 C954 1.403 . S
C957 C958 1.392 1_655 S
C957 C961 1.495 . S
C958 C957 1.392 1_455 S
C958 C959 1.385 . S
C958 C960 1.478 . S
C959 H953 0.930 . S
C959 C955 1.400 . S
C959 C958 1.385 . S
C960 C958 1.478 . S
C960 C962 1.381 . S
C960 C966 1.383 . S
C961 C957 1.495 . S
C961 H967 0.959 . S
C961 H968 0.961 . S
C961 H969 0.960 . S
C962 C960 1.381 . S
C962 C963 1.394 . S
C962 H970 0.930 . S
C963 C962 1.394 . S
C963 C964 1.383 . S
C963 H971 0.929 . S
C964 C963 1.383 . S
C964 C965 1.377 . S
C965 H949 0.930 . S
C965 C964 1.377 . S
C965 C966 1.379 . S
C966 H950 0.931 . S
C966 C960 1.383 . S
C966 C965 1.379 . S
H967 C961 0.959 . S
H968 C961 0.961 . S
H969 C961 0.960 . S
H970 C962 0.930 . S
H971 C963 0.929 . S
H972 C980 0.934 . S
H973 C982 0.930 1_545 S
H974 C984 0.930 . S
H975 C987 0.929 . S
H976 C990 0.930 . S
H977 C992 0.960 . S
H978 C992 0.960 . S
H979 C992 0.960 1_565 S
C980 H972 0.934 . S
C980 C981 1.377 . S
C980 C982 1.384 . S
C981 C980 1.377 . S
C981 C987 1.390 . S
C982 H973 0.930 1_565 S
C982 C980 1.384 . S
C982 C983 1.372 . S
C983 C982 1.372 . S
C983 C984 1.400 . S
C983 C988 1.490 . S
C984 H974 0.930 . S
C984 C983 1.400 . S
C984 C987 1.386 . S
H985 C1001 0.930 1_565 S
H986 C1002 0.932 1_565 S
C987 H975 0.929 . S
C987 C981 1.390 . S
C987 C984 1.386 . S
C988 C983 1.490 . S
C988 C990 1.395 . S
C988 C991 1.403 1_565 S
H989 C995 0.930 . S
C990 H976 0.930 . S
C990 C988 1.395 . S
C990 C993 1.414 . S
C991 C988 1.403 1_545 S
C991 C992 1.524 . S
C991 C995 1.400 . S
C992 H977 0.960 . S
C992 H978 0.960 . S
C992 H979 0.960 1_545 S
C992 C991 1.524 . S
C993 C990 1.414 . S
C993 C994 1.356 1_565 S
C993 C997 1.524 . S
C994 C993 1.356 1_545 S
C994 C995 1.385 . S
C994 C996 1.478 . S
C995 H989 0.930 . S
C995 C991 1.400 . S
C995 C994 1.385 . S
C996 C994 1.478 . S
C996 C998 1.381 . S
C996 C1002 1.382 . S
C997 C993 1.524 . S
C997 H1003 0.959 . S
C997 H1004 0.961 . S
C997 H1005 0.960 1_565 S
C998 C996 1.381 . S
C998 C999 1.394 . S
C998 H1006 0.930 . S
C999 C998 1.394 . S
C999 C1000 1.383 . S
C999 H1007 0.929 . S
C1000 C999 1.383 . S
C1000 C1001 1.377 . S
C1001 H985 0.930 1_545 S
C1001 C1000 1.377 . S
C1001 C1002 1.379 . S
C1002 H986 0.932 1_545 S
C1002 C996 1.382 . S
C1002 C1001 1.379 . S
H1003 C997 0.959 . S
H1004 C997 0.961 . S
H1005 C997 0.960 1_545 S
H1006 C998 0.930 . S
H1007 C999 0.929 . S
H1008 C1016 0.929 . S
H1009 C1018 0.930 . S
H1010 C1020 0.930 . S
H1011 C1023 0.929 . S
H1012 C1026 0.930 . S
H1013 C1028 0.960 . S
H1014 C1028 0.960 . S
H1015 C1028 0.960 . S
C1016 H1008 0.929 . S
C1016 C1017 1.377 . S
C1016 C1018 1.384 . S
C1017 C1016 1.377 . S
C1017 C1023 1.390 . S
C1018 H1009 0.930 . S
C1018 C1016 1.384 . S
C1018 C1019 1.372 . S
C1019 C1018 1.372 . S
C1019 C1020 1.400 . S
C1019 C1024 1.490 . S
C1020 H1010 0.930 . S
C1020 C1019 1.400 . S
C1020 C1023 1.386 . S
H1021 C1037 0.930 . S
H1022 C1038 0.931 . S
C1023 H1011 0.929 . S
C1023 C1017 1.390 . S
C1023 C1020 1.386 . S
C1024 C1019 1.490 . S
C1024 C1026 1.395 . S
C1024 C1027 1.403 . S
H1025 C1031 0.930 . S
C1026 H1012 0.930 . S
C1026 C1024 1.395 . S
C1026 C1029 1.403 . S
C1027 C1024 1.403 . S
C1027 C1028 1.524 . S
C1027 C1031 1.400 . S
C1028 H1013 0.960 . S
C1028 H1014 0.960 . S
C1028 H1015 0.960 . S
C1028 C1027 1.524 . S
C1029 C1026 1.403 . S
C1029 C1030 1.392 . S
C1029 C1033 1.495 . S
C1030 C1029 1.392 . S
C1030 C1031 1.385 . S
C1030 C1032 1.478 . S
C1031 H1025 0.930 . S
C1031 C1027 1.400 . S
C1031 C1030 1.385 . S
C1032 C1030 1.478 . S
C1032 C1034 1.381 . S
C1032 C1038 1.383 . S
C1033 C1029 1.495 . S
C1033 H1039 0.959 . S
C1033 H1040 0.961 . S
C1033 H1041 0.960 . S
C1034 C1032 1.381 . S
C1034 C1035 1.394 . S
C1034 H1042 0.930 . S
C1035 C1034 1.394 . S
C1035 C1036 1.383 . S
C1035 H1043 0.929 . S
C1036 C1035 1.383 . S
C1036 C1037 1.377 . S
C1037 H1021 0.930 . S
C1037 C1036 1.377 . S
C1037 C1038 1.379 . S
C1038 H1022 0.931 . S
C1038 C1032 1.383 . S
C1038 C1037 1.379 . S
H1039 C1033 0.959 . S
H1040 C1033 0.961 . S
H1041 C1033 0.960 . S
H1042 C1034 0.930 . S
H1043 C1035 0.929 . S
H1044 C1052 0.929 . S
H1045 C1054 0.930 . S
H1046 C1056 0.930 . S
H1047 C1059 0.929 . S
H1048 C1062 0.930 . S
H1049 C1064 0.960 . S
H1050 C1064 0.960 . S
H1051 C1064 0.960 . S
C1052 H1044 0.929 . S
C1052 C1053 1.377 . S
C1052 C1054 1.384 . S
C1053 C1052 1.377 . S
C1053 C1059 1.390 . S
C1054 H1045 0.930 . S
C1054 C1052 1.384 . S
C1054 C1055 1.372 . S
C1055 C1054 1.372 . S
C1055 C1056 1.400 . S
C1055 C1060 1.490 . S
C1056 H1046 0.930 . S
C1056 C1055 1.400 . S
C1056 C1059 1.386 . S
H1057 C1073 0.930 . S
H1058 C1074 0.931 . S
C1059 H1047 0.929 . S
C1059 C1053 1.390 . S
C1059 C1056 1.386 . S
C1060 C1055 1.490 . S
C1060 C1062 1.395 . S
C1060 C1063 1.403 . S
H1061 C1067 0.930 . S
C1062 H1048 0.930 . S
C1062 C1060 1.395 . S
C1062 C1065 1.403 . S
C1063 C1060 1.403 . S
C1063 C1064 1.524 . S
C1063 C1067 1.400 . S
C1064 H1049 0.960 . S
C1064 H1050 0.960 . S
C1064 H1051 0.960 . S
C1064 C1063 1.524 . S
C1065 C1062 1.403 . S
C1065 C1066 1.392 . S
C1065 C1069 1.495 . S
C1066 C1065 1.392 . S
C1066 C1067 1.385 . S
C1066 C1068 1.478 . S
C1067 H1061 0.930 . S
C1067 C1063 1.400 . S
C1067 C1066 1.385 . S
C1068 C1066 1.478 . S
C1068 C1070 1.381 1_556 S
C1068 C1074 1.383 . S
C1069 C1065 1.495 . S
C1069 H1075 0.959 . S
C1069 H1076 0.961 . S
C1069 H1077 0.960 . S
C1070 C1068 1.381 1_554 S
C1070 C1071 1.394 . S
C1070 H1078 0.930 . S
C1071 C1070 1.394 . S
C1071 C1072 1.383 . S
C1071 H1079 0.929 . S
C1072 C1071 1.383 . S
C1072 C1073 1.377 1_554 S
C1073 H1057 0.930 . S
C1073 C1072 1.377 1_556 S
C1073 C1074 1.379 . S
C1074 H1058 0.931 . S
C1074 C1068 1.383 . S
C1074 C1073 1.379 . S
H1075 C1069 0.959 . S
H1076 C1069 0.961 . S
H1077 C1069 0.960 . S
H1078 C1070 0.930 . S
H1079 C1071 0.929 . S
H1080 C1088 0.929 1_455 S
H1081 C1090 0.930 . S
H1082 C1092 0.930 . S
H1083 C1095 0.929 . S
H1084 C1098 0.930 . S
H1085 C1100 0.960 . S
H1086 C1100 0.960 . S
H1087 C1100 0.960 . S
C1088 H1080 0.929 1_655 S
C1088 C1089 1.377 . S
C1088 C1090 1.384 . S
C1089 C1088 1.377 . S
C1089 C1095 1.390 . S
C1090 H1081 0.930 . S
C1090 C1088 1.384 . S
C1090 C1091 1.372 . S
C1091 C1090 1.372 . S
C1091 C1092 1.400 . S
C1091 C1096 1.490 . S
C1092 H1082 0.930 . S
C1092 C1091 1.400 . S
C1092 C1095 1.386 . S
H1093 C1109 0.930 . S
H1094 C1110 0.931 . S
C1095 H1083 0.929 . S
C1095 C1089 1.390 . S
C1095 C1092 1.386 . S
C1096 C1091 1.490 . S
C1096 C1098 1.395 . S
C1096 C1099 1.403 . S
H1097 C1103 0.930 . S
C1098 H1084 0.930 . S
C1098 C1096 1.395 . S
C1098 C1101 1.403 . S
C1099 C1096 1.403 . S
C1099 C1100 1.524 . S
C1099 C1103 1.400 . S
C1100 H1085 0.960 . S
C1100 H1086 0.960 . S
C1100 H1087 0.960 . S
C1100 C1099 1.524 . S
C1101 C1098 1.403 . S
C1101 C1102 1.392 . S
C1101 C1105 1.495 . S
C1102 C1101 1.392 . S
C1102 C1103 1.385 . S
C1102 C1104 1.478 . S
C1103 H1097 0.930 . S
C1103 C1099 1.400 . S
C1103 C1102 1.385 . S
C1104 C1102 1.478 . S
C1104 C1106 1.381 . S
C1104 C1110 1.383 . S
C1105 C1101 1.495 . S
C1105 H1111 0.959 . S
C1105 H1112 0.961 . S
C1105 H1113 0.960 . S
C1106 C1104 1.381 . S
C1106 C1107 1.394 . S
C1106 H1114 0.930 . S
C1107 C1106 1.394 . S
C1107 C1108 1.383 . S
C1107 H1115 0.929 . S
C1108 C1107 1.383 . S
C1108 C1109 1.377 . S
C1109 H1093 0.930 . S
C1109 C1108 1.377 . S
C1109 C1110 1.379 . S
C1110 H1094 0.931 . S
C1110 C1104 1.383 . S
C1110 C1109 1.379 . S
H1111 C1105 0.959 . S
H1112 C1105 0.961 . S
H1113 C1105 0.960 . S
H1114 C1106 0.930 . S
H1115 C1107 0.929 . S
H1116 C1124 0.929 . S
H1117 C1126 0.930 . S
H1118 C1128 0.930 . S
H1119 C1131 0.929 . S
H1120 C1134 0.930 . S
H1121 C1136 0.960 . S
H1122 C1136 0.960 . S
H1123 C1136 0.960 . S
C1124 H1116 0.929 . S
C1124 C1125 1.377 . S
C1124 C1126 1.384 . S
C1125 C1124 1.377 . S
C1125 C1131 1.390 . S
C1126 H1117 0.930 . S
C1126 C1124 1.384 . S
C1126 C1127 1.372 . S
C1127 C1126 1.372 . S
C1127 C1128 1.400 . S
C1127 C1132 1.490 . S
C1128 H1118 0.930 . S
C1128 C1127 1.400 . S
C1128 C1131 1.386 . S
H1129 C1145 0.923 1_545 S
H1130 C1146 0.931 . S
C1131 H1119 0.929 . S
C1131 C1125 1.390 . S
C1131 C1128 1.386 . S
C1132 C1127 1.490 . S
C1132 C1134 1.395 . S
C1132 C1135 1.403 . S
H1133 C1139 0.930 . S
C1134 H1120 0.930 . S
C1134 C1132 1.395 . S
C1134 C1137 1.403 . S
C1135 C1132 1.403 . S
C1135 C1136 1.524 . S
C1135 C1139 1.400 . S
C1136 H1121 0.960 . S
C1136 H1122 0.960 . S
C1136 H1123 0.960 . S
C1136 C1135 1.524 . S
C1137 C1134 1.403 . S
C1137 C1138 1.392 . S
C1137 C1141 1.495 . S
C1138 C1137 1.392 . S
C1138 C1139 1.385 . S
C1138 C1140 1.478 . S
C1139 H1133 0.930 . S
C1139 C1135 1.400 . S
C1139 C1138 1.385 . S
C1140 C1138 1.478 . S
C1140 C1142 1.381 . S
C1140 C1146 1.383 . S
C1141 C1137 1.495 . S
C1141 H1147 0.959 . S
C1141 H1148 0.961 . S
C1141 H1149 0.960 . S
C1142 C1140 1.381 . S
C1142 C1143 1.394 . S
C1142 H1150 0.930 . S
C1143 C1142 1.394 . S
C1143 C1144 1.383 . S
C1143 H1151 0.929 . S
C1144 C1143 1.383 . S
C1144 C1145 1.377 . S
C1145 H1129 0.923 1_565 S
C1145 C1144 1.377 . S
C1145 C1146 1.379 . S
C1146 H1130 0.931 . S
C1146 C1140 1.383 . S
C1146 C1145 1.379 . S
H1147 C1141 0.959 . S
H1148 C1141 0.961 . S
H1149 C1141 0.960 . S
H1150 C1142 0.930 . S
H1151 C1143 0.929 . S
H1152 C1160 0.929 . S
H1153 C1162 0.930 . S
H1154 C1164 0.930 . S
H1155 C1167 0.929 . S
H1156 C1170 0.930 . S
H1157 C1172 0.960 . S
H1158 C1172 0.960 . S
H1159 C1172 0.960 . S
C1160 H1152 0.929 . S
C1160 C1161 1.377 . S
C1160 C1162 1.384 . S
C1161 C1160 1.377 . S
C1161 C1167 1.390 . S
C1162 H1153 0.930 . S
C1162 C1160 1.384 . S
C1162 C1163 1.372 . S
C1163 C1162 1.372 . S
C1163 C1164 1.400 . S
C1163 C1168 1.490 . S
C1164 H1154 0.930 . S
C1164 C1163 1.400 . S
C1164 C1167 1.386 . S
H1165 C1181 0.930 . S
H1166 C1182 0.931 . S
C1167 H1155 0.929 . S
C1167 C1161 1.390 . S
C1167 C1164 1.386 . S
C1168 C1163 1.490 . S
C1168 C1170 1.395 . S
C1168 C1171 1.403 . S
H1169 C1175 0.930 . S
C1170 H1156 0.930 . S
C1170 C1168 1.395 . S
C1170 C1173 1.403 . S
C1171 C1168 1.403 . S
C1171 C1172 1.524 . S
C1171 C1175 1.400 . S
C1172 H1157 0.960 . S
C1172 H1158 0.960 . S
C1172 H1159 0.960 . S
C1172 C1171 1.524 . S
C1173 C1170 1.403 . S
C1173 C1174 1.392 . S
C1173 C1177 1.495 . S
C1174 C1173 1.392 . S
C1174 C1175 1.385 . S
C1174 C1176 1.478 . S
C1175 H1169 0.930 . S
C1175 C1171 1.400 . S
C1175 C1174 1.385 . S
C1176 C1174 1.478 . S
C1176 C1178 1.381 . S
C1176 C1182 1.383 . S
C1177 C1173 1.495 . S
C1177 H1183 0.959 . S
C1177 H1184 0.961 . S
C1177 H1185 0.960 . S
C1178 C1176 1.381 . S
C1178 C1179 1.394 . S
C1178 H1186 0.930 . S
C1179 C1178 1.394 . S
C1179 C1180 1.383 . S
C1179 H1187 0.929 . S
C1180 C1179 1.383 . S
C1180 C1181 1.377 . S
C1181 H1165 0.930 . S
C1181 C1180 1.377 . S
C1181 C1182 1.379 . S
C1182 H1166 0.931 . S
C1182 C1176 1.383 . S
C1182 C1181 1.379 . S
H1183 C1177 0.959 . S
H1184 C1177 0.961 . S
H1185 C1177 0.960 . S
H1186 C1178 0.930 . S
H1187 C1179 0.929 . S
H1188 C1196 0.929 . S
H1189 C1198 0.930 . S
H1190 C1200 0.930 . S
H1191 C1203 0.929 . S
H1192 C1206 0.930 . S
H1193 C1208 0.960 . S
H1194 C1208 0.960 . S
H1195 C1208 0.960 . S
C1196 H1188 0.929 . S
C1196 C1197 1.377 . S
C1196 C1198 1.384 . S
C1197 C1196 1.377 . S
C1197 C1203 1.390 . S
C1198 H1189 0.930 . S
C1198 C1196 1.384 . S
C1198 C1199 1.372 . S
C1199 C1198 1.372 . S
C1199 C1200 1.400 . S
C1199 C1204 1.490 . S
C1200 H1190 0.930 . S
C1200 C1199 1.400 . S
C1200 C1203 1.386 . S
H1201 C1217 0.930 . S
H1202 C1218 0.931 . S
C1203 H1191 0.929 . S
C1203 C1197 1.390 . S
C1203 C1200 1.386 . S
C1204 C1199 1.490 . S
C1204 C1206 1.395 . S
C1204 C1207 1.403 . S
H1205 C1211 0.930 . S
C1206 H1192 0.930 . S
C1206 C1204 1.395 . S
C1206 C1209 1.403 . S
C1207 C1204 1.403 . S
C1207 C1208 1.524 . S
C1207 C1211 1.400 . S
C1208 H1193 0.960 . S
C1208 H1194 0.960 . S
C1208 H1195 0.960 . S
C1208 C1207 1.524 . S
C1209 C1206 1.403 . S
C1209 C1210 1.392 . S
C1209 C1213 1.495 . S
C1210 C1209 1.392 . S
C1210 C1211 1.385 . S
C1210 C1212 1.478 . S
C1211 H1205 0.930 . S
C1211 C1207 1.400 . S
C1211 C1210 1.385 . S
C1212 C1210 1.478 . S
C1212 C1214 1.381 . S
C1212 C1218 1.383 . S
C1213 C1209 1.495 . S
C1213 H1219 0.959 . S
C1213 H1220 0.961 . S
C1213 H1221 0.960 . S
C1214 C1212 1.381 . S
C1214 C1215 1.394 . S
C1214 H1222 0.930 . S
C1215 C1214 1.394 . S
C1215 C1216 1.383 . S
C1215 H1223 0.929 1_455 S
C1216 C1215 1.383 . S
C1216 C1217 1.377 . S
C1217 H1201 0.930 . S
C1217 C1216 1.377 . S
C1217 C1218 1.379 . S
C1218 H1202 0.931 . S
C1218 C1212 1.383 . S
C1218 C1217 1.379 . S
H1219 C1213 0.959 . S
H1220 C1213 0.961 . S
H1221 C1213 0.960 . S
H1222 C1214 0.930 . S
H1223 C1215 0.929 1_655 S
H1224 C1232 0.929 . S
H1225 C1234 0.930 . S
H1226 C1236 0.930 . S
H1227 C1239 0.929 . S
H1228 C1242 0.930 . S
H1229 C1244 0.960 . S
H1230 C1244 0.960 . S
H1231 C1244 0.960 . S
C1232 H1224 0.929 . S
C1232 C1233 1.377 . S
C1232 C1234 1.384 . S
C1233 C1232 1.377 . S
C1233 C1239 1.390 . S
C1234 H1225 0.930 . S
C1234 C1232 1.384 . S
C1234 C1235 1.372 . S
C1235 C1234 1.372 . S
C1235 C1236 1.400 . S
C1235 C1240 1.490 . S
C1236 H1226 0.930 . S
C1236 C1235 1.400 . S
C1236 C1239 1.386 . S
H1237 C1253 0.934 . S
H1238 C1254 0.931 . S
C1239 H1227 0.929 . S
C1239 C1233 1.390 . S
C1239 C1236 1.386 . S
C1240 C1235 1.490 . S
C1240 C1242 1.395 . S
C1240 C1243 1.403 . S
H1241 C1247 0.930 . S
C1242 H1228 0.930 . S
C1242 C1240 1.395 . S
C1242 C1245 1.403 . S
C1243 C1240 1.403 . S
C1243 C1244 1.524 . S
C1243 C1247 1.400 . S
C1244 H1229 0.960 . S
C1244 H1230 0.960 . S
C1244 H1231 0.960 . S
C1244 C1243 1.524 . S
C1245 C1242 1.403 . S
C1245 C1246 1.392 . S
C1245 C1249 1.495 . S
C1246 C1245 1.392 . S
C1246 C1247 1.385 . S
C1246 C1248 1.478 . S
C1247 H1241 0.930 . S
C1247 C1243 1.400 . S
C1247 C1246 1.385 . S
C1248 C1246 1.478 . S
C1248 C1250 1.381 . S
C1248 C1254 1.383 . S
C1249 C1245 1.495 . S
C1249 H1255 0.959 . S
C1249 H1256 0.961 . S
C1249 H1257 0.960 . S
C1250 C1248 1.381 . S
C1250 C1251 1.394 . S
C1250 H1258 0.930 . S
C1251 C1250 1.394 . S
C1251 C1252 1.383 . S
C1251 H1259 0.929 . S
C1252 C1251 1.383 . S
C1252 C1253 1.377 . S
C1253 H1237 0.934 . S
C1253 C1252 1.377 . S
C1253 C1254 1.379 . S
C1254 H1238 0.931 . S
C1254 C1248 1.383 . S
C1254 C1253 1.379 . S
H1255 C1249 0.959 . S
H1256 C1249 0.961 . S
H1257 C1249 0.960 . S
H1258 C1250 0.930 . S
H1259 C1251 0.929 . S
H1260 C1268 0.929 . S
H1261 C1270 0.930 . S
H1262 C1272 0.930 . S
H1263 C1275 0.929 . S
H1264 C1278 0.930 . S
H1265 C1280 0.960 . S
H1266 C1280 0.960 . S
H1267 C1280 0.960 . S
C1268 H1260 0.929 . S
C1268 C1269 1.377 . S
C1268 C1270 1.384 . S
C1269 C1268 1.377 . S
C1269 C1275 1.390 . S
C1270 H1261 0.930 . S
C1270 C1268 1.384 . S
C1270 C1271 1.372 . S
C1271 C1270 1.372 . S
C1271 C1272 1.400 . S
C1271 C1276 1.490 . S
C1272 H1262 0.930 . S
C1272 C1271 1.400 . S
C1272 C1275 1.386 . S
H1273 C1289 0.930 . S
H1274 C1290 0.931 . S
C1275 H1263 0.929 . S
C1275 C1269 1.390 . S
C1275 C1272 1.386 . S
C1276 C1271 1.490 . S
C1276 C1278 1.395 . S
C1276 C1279 1.403 . S
H1277 C1283 0.930 . S
C1278 H1264 0.930 . S
C1278 C1276 1.395 . S
C1278 C1281 1.403 . S
C1279 C1276 1.403 . S
C1279 C1280 1.524 . S
C1279 C1283 1.400 . S
C1280 H1265 0.960 . S
C1280 H1266 0.960 . S
C1280 H1267 0.960 . S
C1280 C1279 1.524 . S
C1281 C1278 1.403 . S
C1281 C1282 1.392 . S
C1281 C1285 1.495 . S
C1282 C1281 1.392 . S
C1282 C1283 1.385 . S
C1282 C1284 1.478 . S
C1283 H1277 0.930 . S
C1283 C1279 1.400 . S
C1283 C1282 1.385 . S
C1284 C1282 1.478 . S
C1284 C1286 1.381 . S
C1284 C1290 1.383 . S
C1285 C1281 1.495 . S
C1285 H1291 0.959 . S
C1285 H1292 0.961 . S
C1285 H1293 0.960 . S
C1286 C1284 1.381 . S
C1286 C1287 1.394 . S
C1286 H1294 0.930 . S
C1287 C1286 1.394 . S
C1287 C1288 1.383 . S
C1287 H1295 0.929 . S
C1288 C1287 1.383 . S
C1288 C1289 1.377 . S
C1289 H1273 0.930 . S
C1289 C1288 1.377 . S
C1289 C1290 1.379 . S
C1290 H1274 0.931 . S
C1290 C1284 1.383 . S
C1290 C1289 1.379 . S
H1291 C1285 0.959 . S
H1292 C1285 0.961 . S
H1293 C1285 0.960 . S
H1294 C1286 0.930 . S
H1295 C1287 0.929 . S
H1296 C1304 0.929 . S
H1297 C1306 0.932 . S
H1298 C1308 0.924 1_554 S
H1299 C1311 0.929 . S
H1300 C1314 0.932 . S
H1301 C1316 0.960 . S
H1302 C1316 0.960 . S
H1303 C1316 0.960 . S
C1304 H1296 0.929 . S
C1304 C1305 1.377 . S
C1304 C1306 1.384 . S
C1305 C1304 1.377 . S
C1305 C1311 1.390 . S
C1306 H1297 0.932 . S
C1306 C1304 1.384 . S
C1306 C1307 1.372 1_556 S
C1307 C1306 1.372 1_554 S
C1307 C1308 1.396 1_554 S
C1307 C1312 1.490 . S
C1308 H1298 0.924 1_556 S
C1308 C1307 1.396 1_556 S
C1308 C1311 1.395 . S
H1309 C1325 0.930 1_455 S
H1310 C1326 0.931 . S
C1311 H1299 0.929 . S
C1311 C1305 1.390 . S
C1311 C1308 1.395 . S
C1312 C1307 1.490 . S
C1312 C1314 1.393 1_554 S
C1312 C1315 1.403 . S
H1313 C1319 0.930 . S
C1314 H1300 0.932 . S
C1314 C1312 1.393 1_556 S
C1314 C1317 1.403 1_556 S
C1315 C1312 1.403 . S
C1315 C1316 1.524 . S
C1315 C1319 1.400 . S
C1316 H1301 0.960 . S
C1316 H1302 0.960 . S
C1316 H1303 0.960 . S
C1316 C1315 1.524 . S
C1317 C1314 1.403 1_554 S
C1317 C1318 1.392 . S
C1317 C1321 1.495 1_554 S
C1318 C1317 1.392 . S
C1318 C1319 1.385 . S
C1318 C1320 1.478 . S
C1319 H1313 0.930 . S
C1319 C1315 1.400 . S
C1319 C1318 1.385 . S
C1320 C1318 1.478 . S
C1320 C1322 1.381 . S
C1320 C1326 1.383 . S
C1321 C1317 1.495 1_556 S
C1321 H1327 0.959 . S
C1321 H1328 0.961 . S
C1321 H1329 0.941 1_556 S
C1322 C1320 1.381 . S
C1322 C1323 1.394 . S
C1322 H1330 0.930 . S
C1323 C1322 1.394 . S
C1323 C1324 1.383 . S
C1323 H1331 0.929 . S
C1324 C1323 1.383 . S
C1324 C1325 1.377 . S
C1325 H1309 0.930 1_655 S
C1325 C1324 1.377 . S
C1325 C1326 1.379 . S
C1326 H1310 0.931 . S
C1326 C1320 1.383 . S
C1326 C1325 1.379 . S
H1327 C1321 0.959 . S
H1328 C1321 0.961 . S
H1329 C1321 0.941 1_554 S
H1330 C1322 0.930 . S
H1331 C1323 0.929 . S
H1332 C1340 0.929 . S
H1333 C1342 0.930 . S
H1334 C1344 0.930 . S
H1335 C1347 0.929 . S
H1336 C1350 0.930 . S
H1337 C1352 0.960 . S
H1338 C1352 0.960 . S
H1339 C1352 0.960 . S
C1340 H1332 0.929 . S
C1340 C1341 1.377 . S
C1340 C1342 1.384 . S
C1341 C1340 1.377 . S
C1341 C1347 1.390 . S
C1342 H1333 0.930 . S
C1342 C1340 1.384 . S
C1342 C1343 1.372 . S
C1343 C1342 1.372 . S
C1343 C1344 1.400 . S
C1343 C1348 1.490 . S
C1344 H1334 0.930 . S
C1344 C1343 1.400 . S
C1344 C1347 1.386 . S
H1345 C1361 0.930 1_545 S
H1346 C1362 0.931 . S
C1347 H1335 0.929 . S
C1347 C1341 1.390 . S
C1347 C1344 1.386 . S
C1348 C1343 1.490 . S
C1348 C1350 1.395 . S
C1348 C1351 1.403 . S
H1349 C1355 0.930 . S
C1350 H1336 0.930 . S
C1350 C1348 1.395 . S
C1350 C1353 1.403 . S
C1351 C1348 1.403 . S
C1351 C1352 1.524 . S
C1351 C1355 1.400 . S
C1352 H1337 0.960 . S
C1352 H1338 0.960 . S
C1352 H1339 0.960 . S
C1352 C1351 1.524 . S
C1353 C1350 1.403 . S
C1353 C1354 1.392 . S
C1353 C1357 1.495 . S
C1354 C1353 1.392 . S
C1354 C1355 1.385 . S
C1354 C1356 1.478 . S
C1355 H1349 0.930 . S
C1355 C1351 1.400 . S
C1355 C1354 1.385 . S
C1356 C1354 1.478 . S
C1356 C1358 1.381 . S
C1356 C1362 1.383 . S
C1357 C1353 1.495 . S
C1357 H1363 0.959 . S
C1357 H1364 0.961 . S
C1357 H1365 0.960 . S
C1358 C1356 1.381 . S
C1358 C1359 1.394 . S
C1358 H1366 0.930 . S
C1359 C1358 1.394 . S
C1359 C1360 1.383 . S
C1359 H1367 0.929 . S
C1360 C1359 1.383 . S
C1360 C1361 1.377 . S
C1361 H1345 0.930 1_565 S
C1361 C1360 1.377 . S
C1361 C1362 1.379 . S
C1362 H1346 0.931 . S
C1362 C1356 1.383 . S
C1362 C1361 1.379 . S
H1363 C1357 0.959 . S
H1364 C1357 0.961 . S
H1365 C1357 0.960 . S
H1366 C1358 0.930 . S
H1367 C1359 0.929 . S
H1368 C1376 0.929 . S
H1369 C1378 0.930 . S
H1370 C1380 0.930 . S
H1371 C1383 0.929 . S
H1372 C1386 0.930 . S
H1373 C1388 0.960 . S
H1374 C1388 0.960 . S
H1375 C1388 0.960 . S
C1376 H1368 0.929 . S
C1376 C1377 1.377 . S
C1376 C1378 1.384 . S
C1377 C1376 1.377 . S
C1377 C1383 1.390 . S
C1378 H1369 0.930 . S
C1378 C1376 1.384 . S
C1378 C1379 1.372 . S
C1379 C1378 1.372 . S
C1379 C1380 1.400 . S
C1379 C1384 1.490 . S
C1380 H1370 0.930 . S
C1380 C1379 1.400 . S
C1380 C1383 1.386 . S
H1381 C1397 0.930 . S
H1382 C1398 0.931 . S
C1383 H1371 0.929 . S
C1383 C1377 1.390 . S
C1383 C1380 1.386 . S
C1384 C1379 1.490 . S
C1384 C1386 1.395 . S
C1384 C1387 1.403 . S
H1385 C1391 0.930 . S
C1386 H1372 0.930 . S
C1386 C1384 1.395 . S
C1386 C1389 1.403 . S
C1387 C1384 1.403 . S
C1387 C1388 1.524 . S
C1387 C1391 1.400 . S
C1388 H1373 0.960 . S
C1388 H1374 0.960 . S
C1388 H1375 0.960 . S
C1388 C1387 1.524 . S
C1389 C1386 1.403 . S
C1389 C1390 1.392 . S
C1389 C1393 1.495 . S
C1390 C1389 1.392 . S
C1390 C1391 1.385 . S
C1390 C1392 1.478 . S
C1391 H1385 0.930 . S
C1391 C1387 1.400 . S
C1391 C1390 1.385 . S
C1392 C1390 1.478 . S
C1392 C1394 1.381 . S
C1392 C1398 1.383 . S
C1393 C1389 1.495 . S
C1393 H1399 0.959 . S
C1393 H1400 0.961 . S
C1393 H1401 0.960 . S
C1394 C1392 1.381 . S
C1394 C1395 1.394 . S
C1394 H1402 0.930 . S
C1395 C1394 1.394 . S
C1395 C1396 1.383 . S
C1395 H1403 0.929 . S
C1396 C1395 1.383 . S
C1396 C1397 1.377 . S
C1397 H1381 0.930 . S
C1397 C1396 1.377 . S
C1397 C1398 1.379 . S
C1398 H1382 0.931 . S
C1398 C1392 1.383 . S
C1398 C1397 1.379 . S
H1399 C1393 0.959 . S
H1400 C1393 0.961 . S
H1401 C1393 0.960 . S
H1402 C1394 0.930 . S
H1403 C1395 0.929 . S
H1404 C1412 0.929 1_655 S
H1405 C1414 0.930 . S
H1406 C1416 0.930 . S
H1407 C1419 0.929 . S
H1408 C1422 0.930 . S
H1409 C1424 0.960 . S
H1410 C1424 0.960 . S
H1411 C1424 0.960 . S
C1412 H1404 0.929 1_455 S
C1412 C1413 1.377 . S
C1412 C1414 1.384 . S
C1413 C1412 1.377 . S
C1413 C1419 1.390 . S
C1414 H1405 0.930 . S
C1414 C1412 1.384 . S
C1414 C1415 1.372 . S
C1415 C1414 1.372 . S
C1415 C1416 1.400 . S
C1415 C1420 1.490 . S
C1416 H1406 0.930 . S
C1416 C1415 1.400 . S
C1416 C1419 1.386 . S
H1417 C1433 0.930 . S
H1418 C1434 0.931 . S
C1419 H1407 0.929 . S
C1419 C1413 1.390 . S
C1419 C1416 1.386 . S
C1420 C1415 1.490 . S
C1420 C1422 1.395 . S
C1420 C1423 1.403 . S
H1421 C1427 0.930 . S
C1422 H1408 0.930 . S
C1422 C1420 1.395 . S
C1422 C1425 1.403 . S
C1423 C1420 1.403 . S
C1423 C1424 1.524 . S
C1423 C1427 1.400 . S
C1424 H1409 0.960 . S
C1424 H1410 0.960 . S
C1424 H1411 0.960 . S
C1424 C1423 1.524 . S
C1425 C1422 1.403 . S
C1425 C1426 1.392 . S
C1425 C1429 1.495 . S
C1426 C1425 1.392 . S
C1426 C1427 1.385 . S
C1426 C1428 1.478 . S
C1427 H1421 0.930 . S
C1427 C1423 1.400 . S
C1427 C1426 1.385 . S
C1428 C1426 1.478 . S
C1428 C1430 1.381 . S
C1428 C1434 1.383 . S
C1429 C1425 1.495 . S
C1429 H1435 0.959 . S
C1429 H1436 0.961 . S
C1429 H1437 0.960 . S
C1430 C1428 1.381 . S
C1430 C1431 1.394 . S
C1430 H1438 0.930 . S
C1431 C1430 1.394 . S
C1431 C1432 1.383 . S
C1431 H1439 0.929 . S
C1432 C1431 1.383 . S
C1432 C1433 1.377 . S
C1433 H1417 0.930 . S
C1433 C1432 1.377 . S
C1433 C1434 1.379 . S
C1434 H1418 0.931 . S
C1434 C1428 1.383 . S
C1434 C1433 1.379 . S
H1435 C1429 0.959 . S
H1436 C1429 0.961 . S
H1437 C1429 0.960 . S
H1438 C1430 0.930 . S
H1439 C1431 0.929 . S
H1440 C1448 0.929 . S
H1441 C1450 0.930 . S
H1442 C1452 0.930 . S
H1443 C1455 0.929 . S
H1444 C1458 0.930 . S
H1445 C1460 0.960 . S
H1446 C1460 0.960 . S
H1447 C1460 0.960 . S
C1448 H1440 0.929 . S
C1448 C1449 1.377 . S
C1448 C1450 1.384 . S
C1449 C1448 1.377 . S
C1449 C1455 1.390 . S
C1450 H1441 0.930 . S
C1450 C1448 1.384 . S
C1450 C1451 1.372 . S
C1451 C1450 1.372 . S
C1451 C1452 1.400 . S
C1451 C1456 1.490 . S
C1452 H1442 0.930 . S
C1452 C1451 1.400 . S
C1452 C1455 1.386 . S
H1453 C1469 0.930 1_565 S
H1454 C1470 0.931 . S
C1455 H1443 0.929 . S
C1455 C1449 1.390 . S
C1455 C1452 1.386 . S
C1456 C1451 1.490 . S
C1456 C1458 1.395 . S
C1456 C1459 1.403 . S
H1457 C1463 0.930 . S
C1458 H1444 0.930 . S
C1458 C1456 1.395 . S
C1458 C1461 1.403 . S
C1459 C1456 1.403 . S
C1459 C1460 1.524 . S
C1459 C1463 1.400 . S
C1460 H1445 0.960 . S
C1460 H1446 0.960 . S
C1460 H1447 0.960 . S
C1460 C1459 1.524 . S
C1461 C1458 1.403 . S
C1461 C1462 1.392 . S
C1461 C1465 1.495 . S
C1462 C1461 1.392 . S
C1462 C1463 1.385 . S
C1462 C1464 1.478 . S
C1463 H1457 0.930 . S
C1463 C1459 1.400 . S
C1463 C1462 1.385 . S
C1464 C1462 1.478 . S
C1464 C1466 1.381 . S
C1464 C1470 1.383 . S
C1465 C1461 1.495 . S
C1465 H1471 0.959 . S
C1465 H1472 0.961 . S
C1465 H1473 0.960 . S
C1466 C1464 1.381 . S
C1466 C1467 1.394 . S
C1466 H1474 0.930 . S
C1467 C1466 1.394 . S
C1467 C1468 1.383 . S
C1467 H1475 0.929 . S
C1468 C1467 1.383 . S
C1468 C1469 1.377 . S
C1469 H1453 0.930 1_545 S
C1469 C1468 1.377 . S
C1469 C1470 1.379 . S
C1470 H1454 0.931 . S
C1470 C1464 1.383 . S
C1470 C1469 1.379 . S
H1471 C1465 0.959 . S
H1472 C1465 0.961 . S
H1473 C1465 0.960 . S
H1474 C1466 0.930 . S
H1475 C1467 0.929 . S
C405 N344 0.924 . S
C424 N14 0.898 . S
C441 N47 0.933 . S
C460 N377 0.949 . S
C477 N80 0.924 . S
C496 N212 0.898 . S
C513 N113 0.930 . S
C532 N245 0.915 . S
C549 N146 0.933 . S
C568 N278 0.945 . S
C585 N179 0.925 . S
C604 N311 0.941 . S
C621 C17 1.467 . S
C640 C281 1.469 . S
C657 C314 1.471 . S
C676 C50 1.464 . S
C693 C83 1.468 . S
C712 C347 1.463 . S
C729 C116 1.467 . S
C748 C380 1.469 . S
C765 C149 1.469 . S
C784 C215 1.460 . S
C801 C182 1.472 . S
C820 C248 1.460 . S
C837 N368 1.105 . S
C856 N5 1.102 . S
C873 N203 1.097 . S
C892 N38 1.061 . S
C909 N236 1.109 . S
C928 N71 1.119 . S
C945 N104 1.115 . S
C964 N269 1.144 . S
C981 N137 1.113 . S
C1000 N302 1.137 . S
C1017 N335 1.114 . S
C1036 N170 1.140 . S
C1053 C193 2.070 . S
C1072 C8 2.076 . S
C1089 C28 2.072 1_655 S
C1108 C41 2.079 . S
C1125 C74 2.079 . S
C1144 C61 2.060 1_565 S
C1161 C94 2.072 . S
C1180 C107 2.079 . S
C1197 C140 2.080 . S
C1216 C127 2.067 1_455 S
C1233 C173 2.079 . S
C1252 C160 2.060 1_545 S
C1269 C259 2.072 . S
C1288 C206 2.079 . S
C1305 C239 2.079 . S
C1324 C292 2.060 1_655 S
C1341 C272 2.078 . S
C1360 C325 2.069 1_565 S
C1377 C358 2.073 . S
C1396 C305 2.077 . S
C1413 C391 2.072 1_455 S
C1432 C338 2.079 . S
C1449 C371 2.079 . S
C1468 C226 2.062 1_545 S
