# Generated by pormake.
# Topology una, (4)-cn, num edge types: 1
# Building blocks:
#     Node 0, Type 0, BuildingBlock: NAHDIM_clean_sbu_0, # of connection points: 4
#     Node 1, Type 0, BuildingBlock: NAHDIM_clean_sbu_0, # of connection points: 4
#     Node 2, Type 0, BuildingBlock: NAHDIM_clean_sbu_0, # of connection points: 4
#     Node 3, Type 0, BuildingBlock: NAHDIM_clean_sbu_0, # of connection points: 4
#     Node 4, Type 0, BuildingBlock: NAHDIM_clean_sbu_0, # of connection points: 4
#     Node 5, Type 0, BuildingBlock: NAHDIM_clean_sbu_0, # of connection points: 4
#     Node 6, Type 0, BuildingBlock: NAHDIM_clean_sbu_0, # of connection points: 4
#     Node 7, Type 0, BuildingBlock: NAHDIM_clean_sbu_0, # of connection points: 4
#     Node 8, Type 0, BuildingBlock: NAHDIM_clean_sbu_0, # of connection points: 4
#     Node 9, Type 0, BuildingBlock: NAHDIM_clean_sbu_0, # of connection points: 4
#     Node 10, Type 0, BuildingBlock: NAHDIM_clean_sbu_0, # of connection points: 4
#     Node 11, Type 0, BuildingBlock: NAHDIM_clean_sbu_0, # of connection points: 4
#     Edge 12, Type (0, 0), BuildingBlock: TEMPAE_clean_linker_10, # of connection points: 2
#     Edge 13, Type (0, 0), BuildingBlock: TEMPAE_clean_linker_10, # of connection points: 2
#     Edge 14, Type (0, 0), BuildingBlock: TEMPAE_clean_linker_10, # of connection points: 2
#     Edge 15, Type (0, 0), BuildingBlock: TEMPAE_clean_linker_10, # of connection points: 2
#     Edge 16, Type (0, 0), BuildingBlock: TEMPAE_clean_linker_10, # of connection points: 2
#     Edge 17, Type (0, 0), BuildingBlock: TEMPAE_clean_linker_10, # of connection points: 2
#     Edge 18, Type (0, 0), BuildingBlock: TEMPAE_clean_linker_10, # of connection points: 2
#     Edge 19, Type (0, 0), BuildingBlock: TEMPAE_clean_linker_10, # of connection points: 2
#     Edge 20, Type (0, 0), BuildingBlock: TEMPAE_clean_linker_10, # of connection points: 2
#     Edge 21, Type (0, 0), BuildingBlock: TEMPAE_clean_linker_10, # of connection points: 2
#     Edge 22, Type (0, 0), BuildingBlock: TEMPAE_clean_linker_10, # of connection points: 2
#     Edge 23, Type (0, 0), BuildingBlock: TEMPAE_clean_linker_10, # of connection points: 2
#     Edge 24, Type (0, 0), BuildingBlock: TEMPAE_clean_linker_10, # of connection points: 2
#     Edge 25, Type (0, 0), BuildingBlock: TEMPAE_clean_linker_10, # of connection points: 2
#     Edge 26, Type (0, 0), BuildingBlock: TEMPAE_clean_linker_10, # of connection points: 2
#     Edge 27, Type (0, 0), BuildingBlock: TEMPAE_clean_linker_10, # of connection points: 2
#     Edge 28, Type (0, 0), BuildingBlock: TEMPAE_clean_linker_10, # of connection points: 2
#     Edge 29, Type (0, 0), BuildingBlock: TEMPAE_clean_linker_10, # of connection points: 2
#     Edge 30, Type (0, 0), BuildingBlock: TEMPAE_clean_linker_10, # of connection points: 2
#     Edge 31, Type (0, 0), BuildingBlock: TEMPAE_clean_linker_10, # of connection points: 2
#     Edge 32, Type (0, 0), BuildingBlock: TEMPAE_clean_linker_10, # of connection points: 2
#     Edge 33, Type (0, 0), BuildingBlock: TEMPAE_clean_linker_10, # of connection points: 2
#     Edge 34, Type (0, 0), BuildingBlock: TEMPAE_clean_linker_10, # of connection points: 2
#     Edge 35, Type (0, 0), BuildingBlock: TEMPAE_clean_linker_10, # of connection points: 2
# Relax obj value: 0.122
# Max RMSD: 0.175
# Mean RMSD: 0.173
data_MOF--net-una--node1-NAHDIM_clean_sbu_0--edge1-TEMPAE_clean_linker_10
_symmetry_space_group_name_H-M    P1
_symmetry_Int_Tables_number       1
_symmetry_cell_setting            triclinic
loop_
_symmetry_equiv_pos_as_xyz
'x, y, z'
_cell_length_a     59.148219
_cell_length_b     58.148583
_cell_length_c     21.704626
_cell_angle_alpha  89.979527
_cell_angle_beta   89.976703
_cell_angle_gamma 120.51483
loop_
_atom_site_label
_atom_site_type_symbol
_atom_site_fract_x
_atom_site_fract_y
_atom_site_fract_z
_atom_type_partial_charge
C0 C 0.0749 0.40742 0.03989 0.0
O1 O 0.07754 0.42909 0.0657 0.0
O2 O 0.15307 0.44145 0.97807 0.0
Zn3 Zn 0.13148 0.43386 0.05466 0.0
O4 O 0.1329 0.46762 0.08298 0.0
C5 C 0.14529 0.42561 0.17615 0.0
O6 O 0.13226 0.43738 0.1926 0.0
O7 O 0.09497 0.4051 0.03309 0.0
C8 C 0.1547 0.4895 0.08241 0.0
O9 O 0.17595 0.48962 0.06425 0.0
C10 C 0.15538 0.45825 0.93744 0.0
O11 O 0.14329 0.47176 0.94485 0.0
O12 O 0.14688 0.42133 0.1194 0.0
C13 C 0.71029 0.14718 0.34938 0.0
O14 O 0.69104 0.15191 0.35788 0.0
O15 O 0.65803 0.13711 0.25269 0.0
Zn16 Zn 0.6888 0.13353 0.22625 0.0
O17 O 0.71129 0.1618 0.16488 0.0
C18 C 0.65559 0.0885 0.15202 0.0
O19 O 0.64404 0.1025 0.14379 0.0
O20 O 0.71236 0.13812 0.29778 0.0
C21 C 0.7032 0.16898 0.11863 0.0
O22 O 0.67787 0.15768 0.10845 0.0
C23 C 0.65839 0.15915 0.25325 0.0
O24 O 0.6799 0.18114 0.23701 0.0
O25 O 0.67552 0.09766 0.18702 0.0
C26 C 0.62036 0.71054 0.28721 0.0
O27 O 0.62089 0.73253 0.27051 0.0
O28 O 0.57191 0.72613 0.31838 0.0
Zn29 Zn 0.5835 0.70794 0.37801 0.0
O30 O 0.55145 0.67443 0.40706 0.0
C31 C 0.5961 0.72674 0.50365 0.0
O32 O 0.57991 0.70152 0.51709 0.0
O33 O 0.60681 0.69767 0.33382 0.0
C34 C 0.53057 0.67455 0.42012 0.0
O35 O 0.5306 0.69713 0.41697 0.0
C36 C 0.55649 0.7137 0.27402 0.0
O37 O 0.54788 0.68813 0.26673 0.0
O38 O 0.60159 0.73357 0.44758 0.0
C39 C 0.89575 0.55779 0.42793 0.0
O40 O 0.87714 0.53669 0.3995 0.0
O41 O 0.83007 0.53692 0.43913 0.0
Zn42 Zn 0.85376 0.54025 0.50851 0.0
O43 O 0.84965 0.50452 0.52725 0.0
C44 C 0.826 0.539 0.61661 0.0
O45 O 0.81398 0.51334 0.6044 0.0
O46 O 0.89064 0.56434 0.47968 0.0
C47 C 0.85942 0.50126 0.57626 0.0
O48 O 0.87162 0.52132 0.6148 0.0
C49 C 0.80669 0.51771 0.43262 0.0
O50 O 0.7967 0.49838 0.47355 0.0
O51 O 0.84474 0.55514 0.58203 0.0
C52 C 0.25988 0.85213 0.77851 0.0
O53 O 0.25238 0.85499 0.72347 0.0
O54 O 0.33554 0.85815 0.73552 0.0
Zn55 Zn 0.30622 0.86469 0.71186 0.0
O56 O 0.28262 0.8377 0.64928 0.0
C57 C 0.34158 0.91191 0.64584 0.0
O58 O 0.35321 0.89801 0.63755 0.0
O59 O 0.28343 0.85766 0.78606 0.0
C60 C 0.28594 0.8394 0.59131 0.0
O61 O 0.30676 0.86008 0.56753 0.0
C62 C 0.34323 0.84584 0.70079 0.0
O63 O 0.33183 0.83687 0.6472 0.0
O64 O 0.32076 0.90197 0.67813 0.0
C65 C 0.38051 0.309 0.82197 0.0
O66 O 0.37698 0.28642 0.79957 0.0
O67 O 0.42575 0.28815 0.8183 0.0
Zn68 Zn 0.42307 0.3093 0.88769 0.0
O69 O 0.45813 0.34253 0.89837 0.0
C70 C 0.39409 0.26255 0.96234 0.0
O71 O 0.38105 0.25302 0.91068 0.0
O72 O 0.39783 0.32106 0.86323 0.0
C73 C 0.4762 0.34461 0.93364 0.0
O74 O 0.47221 0.32392 0.96664 0.0
C75 C 0.43667 0.2743 0.82463 0.0
O76 O 0.44702 0.27413 0.87804 0.0
O77 O 0.41234 0.28686 0.96442 0.0
C78 C 0.59584 0.85682 0.79834 0.0
O79 O 0.60601 0.86085 0.85385 0.0
O80 O 0.52611 0.86458 0.83372 0.0
Zn81 Zn 0.56006 0.86788 0.86059 0.0
O82 O 0.55423 0.84034 0.92432 0.0
C83 C 0.57519 0.90854 0.94775 0.0
O84 O 0.55367 0.88914 0.97259 0.0
O85 O 0.57677 0.86062 0.78889 0.0
C86 C 0.53459 0.82743 0.95964 0.0
O87 O 0.51493 0.83188 0.95737 0.0
C88 C 0.50609 0.84247 0.81891 0.0
O89 O 0.50726 0.82052 0.82114 0.0
O90 O 0.58295 0.90442 0.89652 0.0
C91 C 0.66831 0.60208 0.01982 0.0
O92 O 0.65006 0.58449 0.98311 0.0
O93 O 0.7032 0.55651 0.08401 0.0
Zn94 Zn 0.68901 0.56659 0.01178 0.0
O95 O 0.65303 0.53526 0.9947 0.0
C96 C 0.73749 0.58442 0.94774 0.0
O97 O 0.74717 0.59222 0.00333 0.0
O98 O 0.68714 0.59884 0.0359 0.0
C99 C 0.64946 0.51766 0.95501 0.0
O100 O 0.66946 0.52081 0.92199 0.0
C101 C 0.70801 0.53761 0.08018 0.0
O102 O 0.70368 0.52465 0.0279 0.0
O103 O 0.71293 0.57396 0.93952 0.0
C104 C 0.07787 0.65006 0.24788 0.0
O105 O 0.09291 0.64014 0.26086 0.0
O106 O 0.14738 0.70865 0.25895 0.0
Zn107 Zn 0.12464 0.68721 0.18817 0.0
O108 O 0.1316 0.65784 0.16375 0.0
C109 C 0.1389 0.70897 0.06488 0.0
O110 O 0.13649 0.68572 0.05245 0.0
O111 O 0.08705 0.67089 0.2146 0.0
C112 C 0.15314 0.65847 0.17266 0.0
O113 O 0.17296 0.67961 0.19794 0.0
C114 C 0.15348 0.69993 0.30596 0.0
O115 O 0.14466 0.67426 0.31155 0.0
O116 O 0.13348 0.7133 0.11871 0.0
C117 C 0.40123 0.14827 0.29782 0.0
O118 O 0.38995 0.14522 0.35171 0.0
O119 O 0.47174 0.14256 0.34065 0.0
Zn120 Zn 0.43604 0.13578 0.36561 0.0
O121 O 0.43978 0.16034 0.43533 0.0
C122 C 0.42347 0.09284 0.44404 0.0
O123 O 0.44495 0.1122 0.46911 0.0
O124 O 0.42015 0.14391 0.29282 0.0
C125 C 0.42203 0.15321 0.47615 0.0
O126 O 0.40069 0.12961 0.472 0.0
C127 C 0.49194 0.15519 0.3745 0.0
O128 O 0.48983 0.16473 0.42768 0.0
O129 O 0.41471 0.09771 0.39528 0.0
C130 C 0.33531 0.42638 0.57853 0.0
O131 O 0.35052 0.43932 0.53155 0.0
O132 O 0.29604 0.47218 0.61879 0.0
Zn133 Zn 0.31569 0.46227 0.55942 0.0
O134 O 0.35125 0.49446 0.54409 0.0
C135 C 0.27235 0.42808 0.48243 0.0
O136 O 0.26484 0.41341 0.53264 0.0
O137 O 0.31898 0.43279 0.5977 0.0
C138 C 0.36029 0.50225 0.49017 0.0
O139 O 0.34623 0.48861 0.44244 0.0
C140 C 0.27926 0.47821 0.6007 0.0
O141 O 0.27535 0.47917 0.54144 0.0
O142 O 0.29453 0.44952 0.48187 0.0
C143 C 0.9105 0.29594 0.79693 0.0
O144 O 0.88913 0.27552 0.81964 0.0
O145 O 0.84562 0.27736 0.77097 0.0
Zn146 Zn 0.87426 0.29609 0.70857 0.0
O147 O 0.87448 0.32899 0.6799 0.0
C148 C 0.85446 0.2462 0.64709 0.0
O149 O 0.85302 0.23777 0.70393 0.0
O150 O 0.909 0.3069 0.74763 0.0
C151 C 0.85302 0.32836 0.66964 0.0
O152 O 0.83074 0.30579 0.67684 0.0
C153 C 0.84013 0.28897 0.81289 0.0
O154 O 0.85384 0.31512 0.81714 0.0
O155 O 0.86523 0.27113 0.63724 0.0
C156 C 0.17312 0.40623 0.20508 0.0
C157 C 0.16054 0.42027 0.22201 0.0
C158 C 0.19004 0.40364 0.246 0.0
C159 C 0.19467 0.4156 0.30489 0.0
C160 C 0.18113 0.42875 0.32323 0.0
C161 C 0.16411 0.4308 0.28164 0.0
C162 C 0.20383 0.38912 0.22523 0.0
C163 C 0.18563 0.44183 0.38569 0.0
C164 C 0.22804 0.40027 0.43449 0.0
C165 C 0.25351 0.42255 0.43187 0.0
C166 C 0.20887 0.39699 0.39157 0.0
C167 C 0.21535 0.41657 0.34542 0.0
C168 C 0.24136 0.43836 0.34068 0.0
C169 C 0.26015 0.44101 0.38378 0.0
C170 C 0.18143 0.37327 0.39737 0.0
C171 C 0.24903 0.45967 0.29206 0.0
H172 H 0.17026 0.39781 0.15922 0.0
H173 H 0.15442 0.4416 0.29512 0.0
H174 H 0.22504 0.40366 0.21871 0.0
H175 H 0.20214 0.37465 0.26088 0.0
H176 H 0.19578 0.37827 0.18119 0.0
H177 H 0.17231 0.44973 0.39436 0.0
H178 H 0.1827 0.42739 0.42264 0.0
H179 H 0.2062 0.4586 0.38898 0.0
H180 H 0.22279 0.38582 0.4713 0.0
H181 H 0.27981 0.45823 0.3812 0.0
H182 H 0.17423 0.36348 0.35197 0.0
H183 H 0.16794 0.38007 0.41312 0.0
H184 H 0.18039 0.35827 0.43072 0.0
H185 H 0.24349 0.45049 0.24564 0.0
H186 H 0.27042 0.47443 0.29229 0.0
H187 H 0.23828 0.47045 0.29999 0.0
C188 C 0.82119 0.2002 0.61216 0.0
C189 C 0.83826 0.22723 0.59816 0.0
C190 C 0.8015 0.18337 0.57066 0.0
C191 C 0.79886 0.19389 0.51412 0.0
C192 C 0.81751 0.22047 0.49749 0.0
C193 C 0.83706 0.2368 0.53966 0.0
C194 C 0.78229 0.15497 0.58948 0.0
C195 C 0.81553 0.2324 0.43733 0.0
C196 C 0.75259 0.15182 0.38612 0.0
C197 C 0.73138 0.15586 0.39585 0.0
C198 C 0.77427 0.16296 0.42603 0.0
C199 C 0.77479 0.17868 0.47634 0.0
C200 C 0.75289 0.18172 0.48803 0.0
C201 C 0.73141 0.17017 0.44781 0.0
C202 C 0.79708 0.15894 0.41271 0.0
C203 C 0.75267 0.19833 0.54132 0.0
H204 H 0.82215 0.19253 0.657 0.0
H205 H 0.85039 0.25757 0.52809 0.0
H206 H 0.76346 0.15333 0.60319 0.0
H207 H 0.77814 0.14108 0.55041 0.0
H208 H 0.78966 0.14848 0.62898 0.0
H209 H 0.8332 0.2522 0.42823 0.0
H210 H 0.8128 0.21891 0.39836 0.0
H211 H 0.79813 0.2349 0.43861 0.0
H212 H 0.75263 0.1406 0.34629 0.0
H213 H 0.71507 0.17329 0.45588 0.0
H214 H 0.80358 0.15347 0.45538 0.0
H215 H 0.81392 0.17787 0.39545 0.0
H216 H 0.79209 0.14318 0.37757 0.0
H217 H 0.75689 0.19138 0.58509 0.0
H218 H 0.73356 0.1975 0.54599 0.0
H219 H 0.7683 0.21946 0.53467 0.0
C220 C 0.59075 0.74105 0.60834 0.0
C221 C 0.60367 0.74757 0.55131 0.0
C222 C 0.59386 0.76107 0.64937 0.0
C223 C 0.61058 0.78822 0.63329 0.0
C224 C 0.62531 0.79486 0.5781 0.0
C225 C 0.62155 0.77444 0.53749 0.0
C226 C 0.57776 0.75315 0.70783 0.0
C227 C 0.64379 0.82356 0.56008 0.0
C228 C 0.58791 0.83367 0.69709 0.0
C229 C 0.60286 0.84317 0.75108 0.0
C230 C 0.59111 0.8167 0.65689 0.0
C231 C 0.60999 0.80933 0.67057 0.0
C232 C 0.62644 0.82034 0.72262 0.0
C233 C 0.62258 0.83705 0.76255 0.0
C234 C 0.57317 0.80538 0.60177 0.0
C235 C 0.64716 0.81339 0.73791 0.0
H236 H 0.57699 0.72035 0.61952 0.0
H237 H 0.63185 0.77962 0.49377 0.0
H238 H 0.5904 0.76353 0.7481 0.0
H239 H 0.56282 0.75928 0.70476 0.0
H240 H 0.56751 0.73129 0.7162 0.0
H241 H 0.65689 0.82525 0.52149 0.0
H242 H 0.63225 0.83283 0.54544 0.0
H243 H 0.65603 0.83516 0.59989 0.0
H244 H 0.57273 0.8384 0.68763 0.0
H245 H 0.63438 0.84449 0.80392 0.0
H246 H 0.56022 0.78349 0.60746 0.0
H247 H 0.5848 0.80873 0.55916 0.0
H248 H 0.56064 0.81438 0.59555 0.0
H249 H 0.63759 0.7925 0.75474 0.0
H250 H 0.66086 0.82667 0.77406 0.0
H251 H 0.65863 0.81474 0.69622 0.0
C252 C 0.79876 0.53087 0.71064 0.0
C253 C 0.81664 0.54889 0.66757 0.0
C254 C 0.78818 0.53944 0.75685 0.0
C255 C 0.79548 0.56667 0.7597 0.0
C256 C 0.81402 0.58512 0.71733 0.0
C257 C 0.8245 0.57602 0.67184 0.0
C258 C 0.76869 0.51919 0.80171 0.0
C259 C 0.82212 0.61427 0.71885 0.0
C260 C 0.74425 0.57736 0.83738 0.0
C261 C 0.75412 0.58392 0.89753 0.0
C262 C 0.75829 0.57316 0.79105 0.0
C263 C 0.78263 0.57533 0.80544 0.0
C264 C 0.79334 0.58329 0.86522 0.0
C265 C 0.77899 0.58763 0.91056 0.0
C266 C 0.74639 0.56504 0.72756 0.0
C267 C 0.8192 0.5857 0.88234 0.0
H268 H 0.79277 0.50991 0.7079 0.0
H269 H 0.83829 0.59005 0.63858 0.0
H270 H 0.77514 0.52574 0.84975 0.0
H271 H 0.74931 0.51759 0.7958 0.0
H272 H 0.76618 0.49907 0.79527 0.0
H273 H 0.83795 0.62632 0.68518 0.0
H274 H 0.80495 0.61644 0.70824 0.0
H275 H 0.82902 0.62259 0.76561 0.0
H276 H 0.72515 0.57469 0.82687 0.0
H277 H 0.78676 0.5927 0.95695 0.0
H278 H 0.74064 0.54396 0.71883 0.0
H279 H 0.76096 0.57743 0.69187 0.0
H280 H 0.72874 0.56696 0.72214 0.0
H281 H 0.81699 0.56557 0.88274 0.0
H282 H 0.82616 0.59488 0.92846 0.0
H283 H 0.83446 0.59783 0.8477 0.0
C284 C 0.24769 0.83042 0.88206 0.0
C285 C 0.24006 0.83695 0.82667 0.0
C286 C 0.22899 0.81152 0.92247 0.0
C287 C 0.20202 0.79901 0.90731 0.0
C288 C 0.19409 0.80713 0.85411 0.0
C289 C 0.21323 0.82601 0.81428 0.0
C290 C 0.23825 0.80356 0.97908 0.0
C291 C 0.16549 0.79458 0.837 0.0
C292 C 0.16226 0.72792 0.96542 0.0
C293 C 0.15168 0.73123 0.02019 0.0
C294 C 0.17778 0.74971 0.92691 0.0
C295 C 0.18265 0.77541 0.94331 0.0
C296 C 0.17074 0.77863 -0.00344 0.0
C297 C 0.15545 0.75649 0.03455 0.0
C298 C 0.19009 0.74544 0.87033 0.0
C299 C 0.17517 0.80564 0.01502 0.0
H300 H 0.26836 0.83897 0.89237 0.0
H301 H 0.20713 0.83112 0.77186 0.0
H302 H 0.22732 0.80377 0.0204 0.0
H303 H 0.23433 0.78288 0.97343 0.0
H304 H 0.25958 0.81696 0.98747 0.0
H305 H 0.16236 0.80597 0.80023 0.0
H306 H 0.15814 0.77396 0.82018 0.0
H307 H 0.15356 0.79322 0.87779 0.0
H308 H 0.15936 0.70847 0.95378 0.0
H309 H 0.14717 0.7592 0.07659 0.0
H310 H 0.21174 0.75616 0.8758 0.0
H311 H 0.18574 0.75377 0.82904 0.0
H312 H 0.18303 0.72399 0.86196 0.0
H313 H 0.19568 0.81842 0.0311 0.0
H314 H 0.16174 0.80418 0.05261 0.0
H315 H 0.17238 0.8158 0.97496 0.0
C316 C 0.3765 0.16889 0.25362 0.0
C317 C 0.39476 0.16047 0.24589 0.0
C318 C 0.37285 0.18371 0.20768 0.0
C319 C 0.38785 0.19028 0.15287 0.0
C320 C 0.40527 0.18065 0.14348 0.0
C321 C 0.40849 0.16583 0.19004 0.0
C322 C 0.35391 0.19343 0.21907 0.0
C323 C 0.42153 0.18712 0.08548 0.0
C324 C 0.37163 0.21707 0.01041 0.0
C325 C 0.39015 0.24444 0.01448 0.0
C326 C 0.36987 0.19924 0.05641 0.0
C327 C 0.38709 0.20902 0.10746 0.0
C328 C 0.40504 0.23676 0.1131 0.0
C329 C 0.40631 0.25413 0.06663 0.0
C330 C 0.35033 0.16982 0.0491 0.0
C331 C 0.42372 0.24799 0.16695 0.0
H332 H 0.3657 0.16473 0.29648 0.0
H333 H 0.4225 0.15926 0.18344 0.0
H334 H 0.365 0.21541 0.22538 0.0
H335 H 0.34081 0.18906 0.17876 0.0
H336 H 0.34164 0.18416 0.26068 0.0
H337 H 0.43269 0.17648 0.08332 0.0
H338 H 0.4088 0.18174 0.04419 0.0
H339 H 0.43569 0.20891 0.0833 0.0
H340 H 0.35898 0.20942 0.97039 0.0
H341 H 0.42062 0.27525 0.07031 0.0
H342 H 0.3388 0.1616 0.09204 0.0
H343 H 0.36094 0.15895 0.04051 0.0
H344 H 0.33657 0.16577 0.01028 0.0
H345 H 0.41274 0.24137 0.21102 0.0
H346 H 0.43535 0.27016 0.16642 0.0
H347 H 0.4375 0.24034 0.1659 0.0
C348 C 0.17526 0.53882 0.07168 0.0
C349 C 0.15583 0.51477 0.09779 0.0
C350 C 0.17582 0.56283 0.08325 0.0
C351 C 0.1569 0.56286 0.12318 0.0
C352 C 0.13766 0.53872 0.15099 0.0
C353 C 0.13713 0.51487 0.13724 0.0
C354 C 0.19622 0.58804 0.05154 0.0
C355 C 0.11756 0.53806 0.195 0.0
C356 C 0.17146 0.62889 0.19314 0.0
C357 C 0.15515 0.6348 0.15815 0.0
C358 C 0.17216 0.60545 0.18248 0.0
C359 C 0.15675 0.58799 0.13455 0.0
C360 C 0.14083 0.59431 0.09794 0.0
C361 C 0.13993 0.61746 0.11081 0.0
C362 C 0.18886 0.59903 0.22345 0.0
C363 C 0.12467 0.57656 0.04537 0.0
H364 H 0.18961 0.53873 0.0407 0.0
H365 H 0.12219 0.4963 0.15778 0.0
H366 H 0.18642 0.59614 0.02254 0.0
H367 H 0.20817 0.60351 0.0862 0.0
H368 H 0.20957 0.58464 0.02193 0.0
H369 H 0.10493 0.51797 0.21548 0.0
H370 H 0.12752 0.55264 0.23279 0.0
H371 H 0.10483 0.54399 0.17058 0.0
H372 H 0.18304 0.64216 0.23019 0.0
H373 H 0.12742 0.62213 0.08349 0.0
H374 H 0.2033 0.5968 0.19536 0.0
H375 H 0.1763 0.57971 0.24719 0.0
H376 H 0.19965 0.61468 0.25877 0.0
H377 H 0.13741 0.57341 0.01311 0.0
H378 H 0.11447 0.58509 0.01927 0.0
H379 H 0.10973 0.55669 0.06331 0.0
C380 C 0.63298 0.18275 0.26112 0.0
C381 C 0.63467 0.15987 0.27162 0.0
C382 C 0.61029 0.18337 0.27706 0.0
C383 C 0.58894 0.16067 0.30474 0.0
C384 C 0.59066 0.13764 0.3161 0.0
C385 C 0.61344 0.13746 0.29911 0.0
C386 C 0.60903 0.20819 0.2637 0.0
C387 C 0.56839 0.11312 0.34607 0.0
C388 C 0.53837 0.16798 0.39682 0.0
C389 C 0.51724 0.15796 0.35551 0.0
C390 C 0.56202 0.16941 0.38054 0.0
C391 C 0.56463 0.16079 0.32137 0.0
C392 C 0.54362 0.15128 0.27891 0.0
C393 C 0.52013 0.14988 0.29657 0.0
C394 C 0.58396 0.17952 0.42716 0.0
C395 C 0.54578 0.14213 0.21519 0.0
H396 H 0.64927 0.2001 0.23964 0.0
H397 H 0.61465 0.11975 0.30762 0.0
H398 H 0.59238 0.20326 0.2323 0.0
H399 H 0.60544 0.21601 0.30693 0.0
H400 H 0.62737 0.22419 0.24221 0.0
H401 H 0.57307 0.09706 0.35291 0.0
H402 H 0.56369 0.11842 0.39149 0.0
H403 H 0.55049 0.10519 0.31721 0.0
H404 H 0.5363 0.17426 0.44246 0.0
H405 H 0.50395 0.14224 0.26424 0.0
H406 H 0.60219 0.19635 0.40752 0.0
H407 H 0.58814 0.16344 0.43862 0.0
H408 H 0.57914 0.18634 0.47041 0.0
H409 H 0.56328 0.15814 0.19116 0.0
H410 H 0.52815 0.13655 0.18662 0.0
H411 H 0.5484 0.12458 0.21867 0.0
C412 C 0.40114 0.54124 0.53249 0.0
C413 C 0.38596 0.52697 0.48139 0.0
C414 C 0.42512 0.56515 0.52493 0.0
C415 C 0.43409 0.57503 0.46485 0.0
C416 C 0.41903 0.56059 0.41306 0.0
C417 C 0.39515 0.53671 0.42195 0.0
C418 C 0.44072 0.57996 0.58123 0.0
C419 C 0.42799 0.57054 0.34825 0.0
C420 C 0.48247 0.64897 0.44301 0.0
C421 C 0.50615 0.64929 0.43478 0.0
C422 C 0.45891 0.62495 0.45353 0.0
C423 C 0.45906 0.6007 0.45607 0.0
C424 C 0.48296 0.60094 0.449 0.0
C425 C 0.50622 0.62523 0.43837 0.0
C426 C 0.43377 0.62546 0.46085 0.0
C427 C 0.48388 0.57547 0.45174 0.0
H428 H 0.39423 0.53384 0.5786 0.0
H429 H 0.38357 0.52581 0.38222 0.0
H430 H 0.46074 0.58284 0.57868 0.0
H431 H 0.44294 0.60007 0.58292 0.0
H432 H 0.4313 0.56926 0.62469 0.0
H433 H 0.4142 0.55674 0.31291 0.0
H434 H 0.42989 0.5904 0.34218 0.0
H435 H 0.44764 0.57308 0.33993 0.0
H436 H 0.48224 0.66746 0.44029 0.0
H437 H 0.52444 0.6253 0.4322 0.0
H438 H 0.42428 0.61622 0.50537 0.0
H439 H 0.41982 0.61352 0.42373 0.0
H440 H 0.4371 0.64605 0.45914 0.0
H441 H 0.47547 0.56498 0.49594 0.0
H442 H 0.50418 0.57918 0.44731 0.0
H443 H 0.47175 0.56186 0.41417 0.0
C444 C 0.86289 0.46971 0.64834 0.0
C445 C 0.85737 0.47533 0.58929 0.0
C446 C 0.86142 0.44534 0.6611 0.0
C447 C 0.85464 0.42634 0.6134 0.0
C448 C 0.84899 0.43187 0.55372 0.0
C449 C 0.85024 0.45625 0.54248 0.0
C450 C 0.86723 0.43996 0.72553 0.0
C451 C 0.84201 0.41222 0.50154 0.0
C452 C 0.87646 0.37572 0.63361 0.0
C453 C 0.85316 0.35306 0.65292 0.0
C454 C 0.87709 0.39957 0.61952 0.0
C455 C 0.85395 0.40088 0.62577 0.0
C456 C 0.83033 0.37804 0.64487 0.0
C457 C 0.83017 0.35431 0.65781 0.0
C458 C 0.90257 0.42343 0.59841 0.0
C459 C 0.80535 0.3788 0.65273 0.0
H460 H 0.86826 0.48432 0.68478 0.0
H461 H 0.84606 0.46054 0.49665 0.0
H462 H 0.85036 0.42119 0.74345 0.0
H463 H 0.88448 0.43723 0.72484 0.0
H464 H 0.87131 0.45643 0.75789 0.0
H465 H 0.83797 0.41949 0.45793 0.0
H466 H 0.85835 0.4084 0.49347 0.0
H467 H 0.82445 0.39285 0.51385 0.0
H468 H 0.89426 0.37482 0.62941 0.0
H469 H 0.81213 0.3369 0.67302 0.0
H470 H 0.90888 0.44003 0.63178 0.0
H471 H 0.89975 0.43063 0.55332 0.0
H472 H 0.91856 0.41882 0.59372 0.0
H473 H 0.80832 0.39398 0.68776 0.0
H474 H 0.78856 0.35921 0.66729 0.0
H475 H 0.80016 0.38478 0.60886 0.0
C476 C 0.37457 0.84732 0.78011 0.0
C477 C 0.36579 0.84305 0.71891 0.0
C478 C 0.39657 0.8457 0.79733 0.0
C479 C 0.41035 0.84012 0.75202 0.0
C480 C 0.40138 0.83545 0.69032 0.0
C481 C 0.37907 0.83677 0.6746 0.0
C482 C 0.40534 0.85039 0.86378 0.0
C483 C 0.4158 0.82984 0.64058 0.0
C484 C 0.4822 0.8651 0.78315 0.0
C485 C 0.48159 0.84159 0.80078 0.0
C486 C 0.45917 0.8648 0.76651 0.0
C487 C 0.43488 0.84048 0.76857 0.0
C488 C 0.4341 0.81667 0.7865 0.0
C489 C 0.45754 0.81747 0.80191 0.0
C490 C 0.46084 0.89053 0.74668 0.0
C491 C 0.40848 0.79046 0.79009 0.0
H492 H 0.36425 0.85199 0.81463 0.0
H493 H 0.37244 0.83354 0.62716 0.0
H494 H 0.40719 0.83348 0.88118 0.0
H495 H 0.42498 0.86865 0.86741 0.0
H496 H 0.39151 0.85279 0.89401 0.0
H497 H 0.40578 0.8258 0.59523 0.0
H498 H 0.43598 0.8472 0.63561 0.0
H499 H 0.41763 0.8124 0.65349 0.0
H500 H 0.50077 0.88378 0.78184 0.0
H501 H 0.45696 0.79928 0.8159 0.0
H502 H 0.44915 0.89541 0.77838 0.0
H503 H 0.45237 0.88821 0.69991 0.0
H504 H 0.48134 0.9076 0.74607 0.0
H505 H 0.39502 0.7922 0.82285 0.0
H506 H 0.41122 0.77378 0.80522 0.0
H507 H 0.39872 0.7854 0.74443 0.0
C508 C 0.50569 0.39182 0.89991 0.0
C509 C 0.50151 0.37014 0.93672 0.0
C510 C 0.52955 0.41612 0.90179 0.0
C511 C 0.54972 0.41886 0.94151 0.0
C512 C 0.54566 0.39711 0.97888 0.0
C513 C 0.52158 0.37298 0.97601 0.0
C514 C 0.53319 0.43887 0.8612 0.0
C515 C 0.56675 0.39934 0.02187 0.0
C516 C 0.61986 0.47304 0.90734 0.0
C517 C 0.62357 0.49292 0.94957 0.0
C518 C 0.59587 0.44888 0.90399 0.0
C519 C 0.57511 0.4445 0.94388 0.0
C520 C 0.57859 0.46461 0.98604 0.0
C521 C 0.60277 0.48859 0.98833 0.0
C522 C 0.59281 0.42794 0.8582 0.0
C523 C 0.55687 0.46065 0.02922 0.0
H524 H 0.49031 0.38983 0.86935 0.0
H525 H 0.51852 0.35634 0.00459 0.0
H526 H 0.5376 0.45645 0.8899 0.0
H527 H 0.55015 0.44499 0.82992 0.0
H528 H 0.51554 0.43349 0.83287 0.0
H529 H 0.56046 0.38061 0.04801 0.0
H530 H 0.58469 0.40429 0.99529 0.0
H531 H 0.57215 0.4158 0.05518 0.0
H532 H 0.63581 0.47622 0.8772 0.0
H533 H 0.60546 0.50383 0.02114 0.0
H534 H 0.57607 0.42286 0.82699 0.0
H535 H 0.58836 0.40938 0.88282 0.0
H536 H 0.61073 0.43461 0.82985 0.0
H537 H 0.53919 0.45644 0.00246 0.0
H538 H 0.56264 0.47837 0.05882 0.0
H539 H 0.55125 0.44312 0.05931 0.0
C540 C 0.2367 0.47445 0.62931 0.0
C541 C 0.26207 0.48065 0.64608 0.0
C542 C 0.21882 0.47296 0.67387 0.0
C543 C 0.22678 0.47835 0.73624 0.0
C544 C 0.25291 0.48631 0.75267 0.0
C545 C 0.27017 0.48706 0.70743 0.0
C546 C 0.19101 0.46398 0.65477 0.0
C547 C 0.26227 0.49278 0.81853 0.0
C548 C 0.18452 0.48786 0.85346 0.0
C549 C 0.1724 0.46311 0.88359 0.0
C550 C 0.20215 0.49314 0.80479 0.0
C551 C 0.2072 0.47295 0.78523 0.0
C552 C 0.19427 0.44763 0.81422 0.0
C553 C 0.17726 0.44313 0.86354 0.0
C554 C 0.21599 0.52051 0.77566 0.0
C555 C 0.19874 0.4254 0.79383 0.0
H556 H 0.23035 0.46937 0.58189 0.0
H557 H 0.28988 0.49213 0.72033 0.0
H558 H 0.17759 0.4438 0.67382 0.0
H559 H 0.18473 0.47757 0.67374 0.0
H560 H 0.18868 0.46315 0.60389 0.0
H561 H 0.28387 0.50172 0.82236 0.0
H562 H 0.25682 0.50684 0.83863 0.0
H563 H 0.25261 0.47428 0.84662 0.0
H564 H 0.18089 0.50338 0.86925 0.0
H565 H 0.1677 0.42389 0.88646 0.0
H566 H 0.21299 0.51889 0.72506 0.0
H567 H 0.23742 0.53019 0.7839 0.0
H568 H 0.20902 0.53362 0.79437 0.0
H569 H 0.19509 0.42187 0.74363 0.0
H570 H 0.18586 0.4064 0.81857 0.0
H571 H 0.21947 0.43119 0.80221 0.0
C572 C 0.74939 0.2007 0.0868 0.0
C573 C 0.72241 0.18919 0.07561 0.0
C574 C 0.76799 0.21855 0.04474 0.0
C575 C 0.75943 0.22512 0.9902 0.0
C576 C 0.73228 0.21434 0.97954 0.0
C577 C 0.71405 0.19644 0.02242 0.0
C578 C 0.7968 0.22962 0.05765 0.0
C579 C 0.72249 0.22104 0.92194 0.0
C580 C 0.81109 0.28516 0.90114 0.0
C581 C 0.81872 0.27287 0.85682 0.0
C582 C 0.79124 0.26985 0.94394 0.0
C583 C 0.77892 0.24167 0.94245 0.0
C584 C 0.78623 0.22917 0.89713 0.0
C585 C 0.80597 0.24491 0.8548 0.0
C586 C 0.78379 0.2838 0.99146 0.0
C587 C 0.77364 0.19917 0.89427 0.0
H588 H 0.75606 0.19536 0.12796 0.0
H589 H 0.69324 0.18774 0.01361 0.0
H590 H 0.80519 0.22223 0.02243 0.0
H591 H 0.80766 0.25172 0.05456 0.0
H592 H 0.80025 0.22379 0.10391 0.0
H593 H 0.70094 0.21279 0.923 0.0
H594 H 0.73245 0.24299 0.91579 0.0
H595 H 0.72727 0.21283 0.8811 0.0
H596 H 0.82075 0.30674 0.90271 0.0
H597 H 0.8117 0.23523 0.82064 0.0
H598 H 0.78871 0.27992 0.03819 0.0
H599 H 0.7623 0.27578 0.99043 0.0
H600 H 0.79405 0.30572 0.98401 0.0
H601 H 0.77782 0.19174 0.93737 0.0
H602 H 0.78084 0.19256 0.85466 0.0
H603 H 0.75201 0.18969 0.89053 0.0
C604 C 0.55829 0.75548 0.23913 0.0
C605 C 0.54937 0.72832 0.22979 0.0
C606 C 0.55329 0.7702 0.1958 0.0
C607 C 0.53903 0.75745 0.14179 0.0
C608 C 0.52913 0.72983 0.13307 0.0
C609 C 0.53443 0.71556 0.17726 0.0
C610 C 0.56414 0.79963 0.20677 0.0
C611 C 0.51381 0.7156 0.07602 0.0
C612 C 0.51444 0.79546 0.04783 0.0
C613 C 0.53458 0.80819 0.00418 0.0
C614 C 0.51517 0.7782 0.09204 0.0
C615 C 0.53651 0.77364 0.09237 0.0
C616 C 0.55648 0.78585 0.04736 0.0
C617 C 0.55527 0.80296 0.00386 0.0
C618 C 0.49351 0.76543 0.13934 0.0
C619 C 0.57955 0.78143 0.04614 0.0
H620 H 0.56968 0.76546 0.27983 0.0
H621 H 0.52736 0.69455 0.16989 0.0
H622 H 0.57925 0.81141 0.1715 0.0
H623 H 0.54836 0.80451 0.20213 0.0
H624 H 0.57318 0.80607 0.25309 0.0
H625 H 0.50546 0.69367 0.07881 0.0
H626 H 0.49757 0.71962 0.06854 0.0
H627 H 0.52683 0.72327 0.03511 0.0
H628 H 0.49835 0.79933 0.0482 0.0
H629 H 0.57083 0.81254 0.97002 0.0
H630 H 0.50159 0.77312 0.18585 0.0
H631 H 0.48523 0.74351 0.14024 0.0
H632 H 0.47739 0.7695 0.13015 0.0
H633 H 0.59115 0.78933 0.08909 0.0
H634 H 0.59273 0.79137 0.0062 0.0
H635 H 0.57256 0.75977 0.0442 0.0
C636 C 0.8028 0.53687 0.33319 0.0
C637 C 0.79088 0.51772 0.37994 0.0
C638 C 0.78811 0.53806 0.28406 0.0
C639 C 0.76079 0.51972 0.2817 0.0
C640 C 0.74867 0.5 0.32802 0.0
C641 C 0.7639 0.49918 0.37663 0.0
C642 C 0.80177 0.5593 0.23529 0.0
C643 C 0.71955 0.48019 0.32692 0.0
C644 C 0.72246 0.5439 0.18999 0.0
C645 C 0.71966 0.53131 0.13307 0.0
C646 C 0.73491 0.53945 0.23957 0.0
C647 C 0.74493 0.52211 0.23192 0.0
C648 C 0.74146 0.50869 0.17524 0.0
C649 C 0.72879 0.51341 0.12644 0.0
C650 C 0.73814 0.55401 0.29949 0.0
C651 C 0.75197 0.49012 0.16543 0.0
H652 H 0.82368 0.55116 0.33515 0.0
H653 H 0.75458 0.48433 0.4126 0.0
H654 H 0.79797 0.55 0.18897 0.0
H655 H 0.79384 0.57297 0.23545 0.0
H656 H 0.82333 0.5713 0.24253 0.0
H657 H 0.71335 0.46531 0.36475 0.0
H658 H 0.70855 0.4909 0.33126 0.0
H659 H 0.7139 0.46943 0.28226 0.0
H660 H 0.71526 0.5576 0.19563 0.0
H661 H 0.72664 0.50357 0.08262 0.0
H662 H 0.75927 0.56829 0.30795 0.0
H663 H 0.7308 0.5397 0.33851 0.0
H664 H 0.72756 0.56525 0.29939 0.0
H665 H 0.77373 0.50164 0.16733 0.0
H666 H 0.74589 0.47967 0.12035 0.0
H667 H 0.74511 0.47497 0.20268 0.0
C668 C 0.17525 0.74477 0.35522 0.0
C669 C 0.17168 0.71905 0.35188 0.0
C670 C 0.1934 0.76376 0.3962 0.0
C671 C 0.20863 0.75698 0.43397 0.0
C672 C 0.20491 0.73095 0.4314 0.0
C673 C 0.18625 0.71216 0.39066 0.0
C674 C 0.19647 0.79118 0.39853 0.0
C675 C 0.22106 0.72316 0.47057 0.0
C676 C 0.27287 0.81525 0.49077 0.0
C677 C 0.26643 0.818 0.55136 0.0
C678 C 0.2544 0.79497 0.45252 0.0
C679 C 0.22881 0.77741 0.47519 0.0
C680 C 0.22222 0.78008 0.53637 0.0
C681 C 0.2412 0.80023 0.57393 0.0
C682 C 0.2622 0.79245 0.3877 0.0
C683 C 0.19499 0.76202 0.56175 0.0
H684 H 0.16385 0.7501 0.32565 0.0
H685 H 0.18363 0.69233 0.38792 0.0
H686 H 0.19369 0.79598 0.4464 0.0
H687 H 0.21662 0.80644 0.38418 0.0
H688 H 0.18225 0.79283 0.36813 0.0
H689 H 0.21543 0.70197 0.46388 0.0
H690 H 0.24216 0.73603 0.45903 0.0
H691 H 0.21877 0.72637 0.52 0.0
H692 H 0.29241 0.82882 0.47336 0.0
H693 H 0.2361 0.80238 0.6207 0.0
H694 H 0.25019 0.79603 0.35407 0.0
H695 H 0.25832 0.77191 0.37977 0.0
H696 H 0.28325 0.80681 0.37824 0.0
H697 H 0.18046 0.76434 0.53424 0.0
H698 H 0.19322 0.7664 0.61076 0.0
H699 H 0.18971 0.74084 0.55797 0.0
C700 C 0.44666 0.24064 0.78075 0.0
C701 C 0.43648 0.2576 0.77306 0.0
C702 C 0.4455 0.22388 0.73282 0.0
C703 C 0.43391 0.22416 0.676 0.0
C704 C 0.42402 0.24157 0.6676 0.0
C705 C 0.42541 0.25807 0.71625 0.0
C706 C 0.45624 0.20554 0.74331 0.0
C707 C 0.41157 0.24245 0.60756 0.0
C708 C 0.4481 0.19648 0.53234 0.0
C709 C 0.42537 0.17123 0.52781 0.0
C710 C 0.45132 0.21382 0.58084 0.0
C711 C 0.43135 0.20568 0.62578 0.0
C712 C 0.4085 0.18013 0.62183 0.0
C713 C 0.40578 0.16321 0.57286 0.0
C714 C 0.47595 0.24095 0.58365 0.0
C715 C 0.38678 0.17079 0.66897 0.0
H716 H 0.45525 0.24017 0.8245 0.0
H717 H 0.41755 0.27116 0.70985 0.0
H718 H 0.4402 0.18445 0.73914 0.0
H719 H 0.47106 0.209 0.70758 0.0
H720 H 0.46545 0.2084 0.78942 0.0
H721 H 0.40558 0.25772 0.60788 0.0
H722 H 0.42547 0.24687 0.5689 0.0
H723 H 0.39398 0.22267 0.59829 0.0
H724 H 0.46336 0.20279 0.49779 0.0
H725 H 0.38819 0.14371 0.56979 0.0
H726 H 0.48595 0.24354 0.62851 0.0
H727 H 0.47081 0.25679 0.58033 0.0
H728 H 0.48994 0.24394 0.54604 0.0
H729 H 0.39467 0.17165 0.71581 0.0
H730 H 0.37058 0.15007 0.66014 0.0
H731 H 0.37858 0.18423 0.66871 0.0
C732 C 0.04761 0.36552 0.97977 0.0
C733 C 0.04961 0.3874 0.01205 0.0
C734 C 0.02478 0.34808 0.94709 0.0
C735 C 0.00344 0.35261 0.94679 0.0
C736 C 0.00486 0.3739 0.9816 0.0
C737 C 0.02794 0.39106 0.01385 0.0
C738 C 0.02393 0.32552 0.91071 0.0
C739 C 0.9824 0.37925 0.98267 0.0
C740 C 0.95768 0.33098 0.80946 0.0
C741 C 0.9352 0.30848 0.83273 0.0
C742 C 0.98028 0.34505 0.84562 0.0
C743 C 0.98042 0.33641 0.90653 0.0
C744 C 0.95821 0.3131 0.92948 0.0
C745 C 0.93584 0.29938 0.89224 0.0
C746 C 0.00369 0.36973 0.81936 0.0
C747 C 0.95773 0.30324 0.9941 0.0
H748 H 0.06421 0.36245 0.97838 0.0
H749 H 0.02927 0.40781 0.03892 0.0
H750 H 0.00576 0.30641 0.92138 0.0
H751 H 0.02361 0.32933 0.86071 0.0
H752 H 0.04113 0.32322 0.92029 0.0
H753 H 0.98584 0.39535 0.01554 0.0
H754 H 0.97961 0.38518 0.93596 0.0
H755 H 0.96388 0.36086 0.99548 0.0
H756 H 0.95741 0.33808 0.76344 0.0
H757 H 0.91857 0.28198 0.91057 0.0
H758 H 0.02158 0.36819 0.82338 0.0
H759 H 0.00723 0.38753 0.84605 0.0
H760 H 0.00091 0.37298 0.77017 0.0
H761 H 0.97515 0.3012 0.00213 0.0
H762 H 0.93975 0.28371 0.00333 0.0
H763 H 0.95864 0.31802 0.02785 0.0
C764 C 0.5815 0.93825 0.03688 0.0
C765 C 0.5893 0.93493 0.97811 0.0
C766 C 0.59361 0.96331 0.06541 0.0
C767 C 0.61395 0.98564 0.03431 0.0
C768 C 0.62235 0.98237 0.97557 0.0
C769 C 0.60994 0.95698 0.94816 0.0
C770 C 0.58422 0.966 0.12829 0.0
C771 C 0.64396 0.00578 0.94107 0.0
C772 C 0.62398 0.05301 0.08075 0.0
C773 C 0.6455 0.0625 0.12076 0.0
C774 C 0.61387 0.02825 0.05136 0.0
C775 C 0.62553 0.01257 0.06235 0.0
C776 C 0.64746 0.02214 0.10203 0.0
C777 C 0.65721 0.04703 0.13077 0.0
C778 C 0.59045 0.01869 0.00927 0.0
C779 C 0.66034 0.0059 0.11489 0.0
H780 H 0.56568 0.92127 0.06053 0.0
H781 H 0.61608 0.95455 0.90275 0.0
H782 H 0.60095 0.97536 0.16091 0.0
H783 H 0.57584 0.97925 0.12538 0.0
H784 H 0.56904 0.94645 0.14746 0.0
H785 H 0.64907 -0.00034 0.89718 0.0
H786 H 0.63778 0.02046 0.93052 0.0
H787 H 0.66184 0.01611 0.97005 0.0
H788 H 0.61487 0.06487 0.07255 0.0
H789 H 0.67389 0.05425 0.16151 0.0
H790 H 0.57364 8e-05 0.02795 0.0
H791 H 0.59504 0.01392 0.96311 0.0
H792 H 0.58431 0.03374 0.00378 0.0
H793 H 0.6461 0.98686 0.13761 0.0
H794 H 0.67787 0.01665 0.14497 0.0
H795 H 0.66637 0.00075 0.07105 0.0
C796 C 0.68479 0.642 0.08827 0.0
C797 C 0.6651 0.62315 0.04949 0.0
C798 C 0.68054 0.6596 0.12378 0.0
C799 C 0.65598 0.65818 0.12065 0.0
C800 C 0.63662 0.64033 0.07887 0.0
C801 C 0.64146 0.62307 0.04358 0.0
C802 C 0.70177 0.67863 0.16718 0.0
C803 C 0.61018 0.63827 0.07418 0.0
C804 C 0.62945 0.67405 0.26298 0.0
C805 C 0.63228 0.6988 0.24759 0.0
C806 C 0.63777 0.66102 0.22266 0.0
C807 C 0.64936 0.6731 0.16566 0.0
C808 C 0.65335 0.6986 0.15093 0.0
C809 C 0.64469 0.71116 0.19208 0.0
C810 C 0.63324 0.63384 0.24014 0.0
C811 C 0.66591 0.71219 0.09084 0.0
H812 H 0.70324 0.64239 0.0926 0.0
H813 H 0.62621 0.60868 0.01349 0.0
H814 H 0.7046 0.69895 0.1632 0.0
H815 H 0.69583 0.67189 0.21538 0.0
H816 H 0.72082 0.67979 0.15823 0.0
H817 H 0.59828 0.62527 0.03545 0.0
H818 H 0.59912 0.62991 0.11768 0.0
H819 H 0.61261 0.65833 0.06782 0.0
H820 H 0.61999 0.6644 0.30587 0.0
H821 H 0.64702 0.73033 0.17991 0.0
H822 H 0.65194 0.63376 0.23786 0.0
H823 H 0.61949 0.61868 0.2069 0.0
H824 H 0.62494 0.62771 0.28723 0.0
H825 H 0.68465 0.71251 0.08387 0.0
H826 H 0.66984 0.733 0.08889 0.0
H827 H 0.65279 0.7008 0.05199 0.0
C828 C 0.03485 0.64813 0.26076 0.0
C829 C 0.051 0.63751 0.27336 0.0
C830 C 0.00944 0.63645 0.28552 0.0
C831 C 6e-05 0.61365 0.32369 0.0
C832 C 0.01629 0.6029 0.33669 0.0
C833 C 0.04155 0.61495 0.31133 0.0
C834 C 0.99261 0.64838 0.27063 0.0
C835 C 0.00693 0.57858 0.37718 0.0
C836 C 0.9429 0.59418 0.43257 0.0
C837 C 0.92223 0.57306 0.40041 0.0
C838 C 0.96829 0.60801 0.40756 0.0
C839 C 0.97303 0.60053 0.34904 0.0
C840 C 0.95213 0.57963 0.31581 0.0
C841 C 0.92699 0.56613 0.34194 0.0
C842 C 0.99016 0.6302 0.44429 0.0
C843 C 0.95644 0.57115 0.25321 0.0
H844 H 0.04204 0.6656 0.23154 0.0
H845 H 0.05391 0.60664 0.32142 0.0
H846 H 0.97448 0.6334 0.24668 0.0
H847 H 0.98648 0.65392 0.31377 0.0
H848 H 0.00298 0.66639 0.24097 0.0
H849 H 0.02216 0.57299 0.38361 0.0
H850 H 0.00118 0.58231 0.4231 0.0
H851 H 0.98928 0.56136 0.35661 0.0
H852 H 0.93934 0.59967 0.47772 0.0
H853 H 0.9111 0.54992 0.31662 0.0
H854 H 9e-05 0.64876 0.41645 0.0
H855 H 0.00511 0.62475 0.45589 0.0
H856 H 0.98299 0.63439 0.48775 0.0
H857 H 0.96561 0.58854 0.22155 0.0
H858 H 0.93787 0.55536 0.23218 0.0
H859 H 0.97014 0.56347 0.2573 0.0
C860 C 0.41814 0.06245 0.53099 0.0
C861 C 0.40968 0.0662 0.47347 0.0
C862 C 0.40583 0.03736 0.55952 0.0
C863 C 0.3846 0.01539 0.52965 0.0
C864 C 0.37567 0.01906 0.47198 0.0
C865 C 0.38829 0.04448 0.44459 0.0
C866 C 0.41585 0.03428 0.62119 0.0
C867 C 0.35315 0.99603 0.43871 0.0
C868 C 0.37312 0.94725 0.57418 0.0
C869 C 0.35212 0.93824 0.6157 0.0
C870 C 0.38347 0.97207 0.54488 0.0
C871 C 0.37267 0.98839 0.55769 0.0
C872 C 0.35133 0.97937 0.59917 0.0
C873 C 0.34124 0.95433 0.62759 0.0
C874 C 0.40618 0.98095 0.50075 0.0
C875 C 0.33946 0.99635 0.61421 0.0
H876 H 0.43454 0.07915 0.55387 0.0
H877 H 0.38162 0.04725 0.40019 0.0
H878 H 0.39959 0.02544 0.65519 0.0
H879 H 0.42347 0.02042 0.61679 0.0
H880 H 0.43176 0.0536 0.63956 0.0
H881 H 0.3479 0.00241 0.39542 0.0
H882 H 0.35843 0.98074 0.42732 0.0
H883 H 0.3356 0.98634 0.46893 0.0
H884 H 0.38156 0.93489 0.56439 0.0
H885 H 0.32498 0.94749 0.65956 0.0
H886 H 0.42358 -0.0007 0.51845 0.0
H887 H 0.40118 0.98594 0.45533 0.0
H888 H 0.41162 0.96544 0.49393 0.0
H889 H 0.35444 0.01527 0.63606 0.0
H890 H 0.32239 0.98608 0.64584 0.0
H891 H 0.333 0.00172 0.57133 0.0
C892 C 0.32031 0.39036 0.65792 0.0
C893 C 0.33821 0.40578 0.61159 0.0
C894 C 0.32385 0.37211 0.69278 0.0
C895 C 0.34594 0.36943 0.68135 0.0
C896 C 0.36361 0.3843 0.63336 0.0
C897 C 0.35947 0.40223 0.59885 0.0
C898 C 0.30443 0.35635 0.74307 0.0
C899 C 0.38746 0.38202 0.61994 0.0
C900 C 0.37551 0.34886 0.80926 0.0
C901 C 0.36824 0.32278 0.79172 0.0
C902 C 0.36754 0.36391 0.77493 0.0
C903 C 0.3517 0.35252 0.7221 0.0
C904 C 0.34296 0.32568 0.70625 0.0
C905 C 0.35141 0.31112 0.7412 0.0
C906 C 0.37723 0.39248 0.79339 0.0
C907 C 0.32573 0.31276 0.65074 0.0
H908 H 0.30368 0.39282 0.66768 0.0
H909 H 0.37334 0.41402 0.56306 0.0
H910 H 0.29761 0.33479 0.73838 0.0
H911 H 0.3141 0.36286 0.78867 0.0
H912 H 0.28707 0.35894 0.7424 0.0
H913 H 0.39855 0.39395 0.5791 0.0
H914 H 0.40078 0.38901 0.66037 0.0
H915 H 0.38154 0.36086 0.61183 0.0
H916 H 0.3884 0.35801 0.8484 0.0
H917 H 0.34556 0.29092 0.72753 0.0
H918 H 0.36053 0.39599 0.79746 0.0
H919 H 0.39053 0.40616 0.75722 0.0
H920 H 0.38801 0.39778 0.83786 0.0
H921 H 0.30876 0.31594 0.6512 0.0
H922 H 0.31828 0.29097 0.64866 0.0
H923 H 0.33707 0.32214 0.60811 0.0
loop_
_geom_bond_atom_site_label_1
_geom_bond_atom_site_label_2
_geom_bond_distance
_geom_bond_site_symmetry_2
_ccdc_geom_bond_type
C0 O1 1.160 . S
C0 O7 1.185 1_556 S
O1 C0 1.160 . S
O2 Zn3 1.899 1_556 S
O2 C10 1.284 . S
Zn3 O2 1.899 1_554 S
Zn3 O4 2.032 . S
Zn3 O7 2.086 . S
Zn3 O12 1.977 . S
O4 Zn3 2.032 . S
O4 C8 1.278 . S
C5 O6 1.203 . S
C5 O12 1.267 . S
O6 C5 1.203 . S
O7 C0 1.185 1_554 S
O7 Zn3 2.086 . S
C8 O4 1.278 . S
C8 O9 1.211 . S
O9 C8 1.211 . S
C10 O2 1.284 . S
C10 O11 1.273 . S
O11 C10 1.273 . S
O12 Zn3 1.977 . S
O12 C5 1.267 . S
C13 O14 1.160 . S
C13 O20 1.185 . S
O14 C13 1.160 . S
O15 Zn16 1.899 . S
O15 C23 1.284 . S
Zn16 O15 1.899 . S
Zn16 O17 2.032 . S
Zn16 O20 2.086 . S
Zn16 O25 1.977 . S
O17 Zn16 2.032 . S
O17 C21 1.278 . S
C18 O19 1.203 . S
C18 O25 1.267 . S
O19 C18 1.203 . S
O20 C13 1.185 . S
O20 Zn16 2.086 . S
C21 O17 1.278 . S
C21 O22 1.211 . S
O22 C21 1.211 . S
C23 O15 1.284 . S
C23 O24 1.273 . S
O24 C23 1.273 . S
O25 Zn16 1.977 . S
O25 C18 1.267 . S
C26 O27 1.160 . S
C26 O33 1.185 . S
O27 C26 1.160 . S
O28 Zn29 1.899 . S
O28 C36 1.284 . S
Zn29 O28 1.899 . S
Zn29 O30 2.032 . S
Zn29 O33 2.086 . S
Zn29 O38 1.977 . S
O30 Zn29 2.032 . S
O30 C34 1.278 . S
C31 O32 1.203 . S
C31 O38 1.267 . S
O32 C31 1.203 . S
O33 C26 1.185 . S
O33 Zn29 2.086 . S
C34 O30 1.278 . S
C34 O35 1.211 . S
O35 C34 1.211 . S
C36 O28 1.284 . S
C36 O37 1.273 . S
O37 C36 1.273 . S
O38 Zn29 1.977 . S
O38 C31 1.267 . S
C39 O40 1.160 . S
C39 O46 1.185 . S
O40 C39 1.160 . S
O41 Zn42 1.899 . S
O41 C49 1.284 . S
Zn42 O41 1.899 . S
Zn42 O43 2.032 . S
Zn42 O46 2.086 . S
Zn42 O51 1.977 . S
O43 Zn42 2.032 . S
O43 C47 1.278 . S
C44 O45 1.203 . S
C44 O51 1.267 . S
O45 C44 1.203 . S
O46 C39 1.185 . S
O46 Zn42 2.086 . S
C47 O43 1.278 . S
C47 O48 1.211 . S
O48 C47 1.211 . S
C49 O41 1.284 . S
C49 O50 1.273 . S
O50 C49 1.273 . S
O51 Zn42 1.977 . S
O51 C44 1.267 . S
C52 O53 1.160 . S
C52 O59 1.185 . S
O53 C52 1.160 . S
O54 Zn55 1.899 . S
O54 C62 1.284 . S
Zn55 O54 1.899 . S
Zn55 O56 2.032 . S
Zn55 O59 2.086 . S
Zn55 O64 1.977 . S
O56 Zn55 2.032 . S
O56 C60 1.278 . S
C57 O58 1.203 . S
C57 O64 1.267 . S
O58 C57 1.203 . S
O59 C52 1.185 . S
O59 Zn55 2.086 . S
C60 O56 1.278 . S
C60 O61 1.211 . S
O61 C60 1.211 . S
C62 O54 1.284 . S
C62 O63 1.273 . S
O63 C62 1.273 . S
O64 Zn55 1.977 . S
O64 C57 1.267 . S
C65 O66 1.160 . S
C65 O72 1.185 . S
O66 C65 1.160 . S
O67 Zn68 1.899 . S
O67 C75 1.284 . S
Zn68 O67 1.899 . S
Zn68 O69 2.032 . S
Zn68 O72 2.086 . S
Zn68 O77 1.977 . S
O69 Zn68 2.032 . S
O69 C73 1.278 . S
C70 O71 1.203 . S
C70 O77 1.267 . S
O71 C70 1.203 . S
O72 C65 1.185 . S
O72 Zn68 2.086 . S
C73 O69 1.278 . S
C73 O74 1.211 . S
O74 C73 1.211 . S
C75 O67 1.284 . S
C75 O76 1.273 . S
O76 C75 1.273 . S
O77 Zn68 1.977 . S
O77 C70 1.267 . S
C78 O79 1.160 . S
C78 O85 1.185 . S
O79 C78 1.160 . S
O80 Zn81 1.899 . S
O80 C88 1.284 . S
Zn81 O80 1.899 . S
Zn81 O82 2.032 . S
Zn81 O85 2.086 . S
Zn81 O90 1.977 . S
O82 Zn81 2.032 . S
O82 C86 1.278 . S
C83 O84 1.203 . S
C83 O90 1.267 . S
O84 C83 1.203 . S
O85 C78 1.185 . S
O85 Zn81 2.086 . S
C86 O82 1.278 . S
C86 O87 1.211 1_556 S
O87 C86 1.211 1_554 S
C88 O80 1.284 . S
C88 O89 1.273 . S
O89 C88 1.273 . S
O90 Zn81 1.977 . S
O90 C83 1.267 . S
C91 O92 1.160 . S
C91 O98 1.185 . S
O92 C91 1.160 . S
O93 Zn94 1.899 . S
O93 C101 1.284 . S
Zn94 O93 1.899 . S
Zn94 O95 2.032 . S
Zn94 O98 2.086 . S
Zn94 O103 1.977 1_554 S
O95 Zn94 2.032 . S
O95 C99 1.278 . S
C96 O97 1.203 . S
C96 O103 1.267 . S
O97 C96 1.203 . S
O98 C91 1.185 . S
O98 Zn94 2.086 . S
C99 O95 1.278 . S
C99 O100 1.211 1_554 S
O100 C99 1.211 1_556 S
C101 O93 1.284 . S
C101 O102 1.273 . S
O102 C101 1.273 . S
O103 Zn94 1.977 1_556 S
O103 C96 1.267 . S
C104 O105 1.160 . S
C104 O111 1.185 . S
O105 C104 1.160 . S
O106 Zn107 1.899 . S
O106 C114 1.284 . S
Zn107 O106 1.899 . S
Zn107 O108 2.032 . S
Zn107 O111 2.086 . S
Zn107 O116 1.977 . S
O108 Zn107 2.032 . S
O108 C112 1.278 . S
C109 O110 1.203 . S
C109 O116 1.267 . S
O110 C109 1.203 . S
O111 C104 1.185 . S
O111 Zn107 2.086 . S
C112 O108 1.278 . S
C112 O113 1.211 . S
O113 C112 1.211 . S
C114 O106 1.284 . S
C114 O115 1.273 . S
O115 C114 1.273 . S
O116 Zn107 1.977 . S
O116 C109 1.267 . S
C117 O118 1.160 . S
C117 O124 1.185 . S
O118 C117 1.160 . S
O119 Zn120 1.899 . S
O119 C127 1.284 . S
Zn120 O119 1.899 . S
Zn120 O121 2.032 . S
Zn120 O124 2.086 . S
Zn120 O129 1.977 . S
O121 Zn120 2.032 . S
O121 C125 1.278 . S
C122 O123 1.203 . S
C122 O129 1.267 . S
O123 C122 1.203 . S
O124 C117 1.185 . S
O124 Zn120 2.086 . S
C125 O121 1.278 . S
C125 O126 1.211 . S
O126 C125 1.211 . S
C127 O119 1.284 . S
C127 O128 1.273 . S
O128 C127 1.273 . S
O129 Zn120 1.977 . S
O129 C122 1.267 . S
C130 O131 1.160 . S
C130 O137 1.185 . S
O131 C130 1.160 . S
O132 Zn133 1.899 . S
O132 C140 1.284 . S
Zn133 O132 1.899 . S
Zn133 O134 2.032 . S
Zn133 O137 2.086 . S
Zn133 O142 1.977 . S
O134 Zn133 2.032 . S
O134 C138 1.278 . S
C135 O136 1.203 . S
C135 O142 1.267 . S
O136 C135 1.203 . S
O137 C130 1.185 . S
O137 Zn133 2.086 . S
C138 O134 1.278 . S
C138 O139 1.211 . S
O139 C138 1.211 . S
C140 O132 1.284 . S
C140 O141 1.273 . S
O141 C140 1.273 . S
O142 Zn133 1.977 . S
O142 C135 1.267 . S
C143 O144 1.160 . S
C143 O150 1.185 . S
O144 C143 1.160 . S
O145 Zn146 1.899 . S
O145 C153 1.284 . S
Zn146 O145 1.899 . S
Zn146 O147 2.032 . S
Zn146 O150 2.086 . S
Zn146 O155 1.977 . S
O147 Zn146 2.032 . S
O147 C151 1.278 . S
C148 O149 1.203 . S
C148 O155 1.267 . S
O149 C148 1.203 . S
O150 C143 1.185 . S
O150 Zn146 2.086 . S
C151 O147 1.278 . S
C151 O152 1.211 . S
O152 C151 1.211 . S
C153 O145 1.284 . S
C153 O154 1.273 . S
O154 C153 1.273 . S
O155 Zn146 1.977 . S
O155 C148 1.267 . S
C156 C157 1.391 . S
C156 C158 1.394 . S
C156 H172 0.931 . S
C157 C156 1.391 . S
C157 C161 1.376 . S
C158 C156 1.394 . S
C158 C159 1.369 . S
C158 C162 1.531 . S
C159 C158 1.369 . S
C159 C160 1.410 . S
C159 C167 1.503 . S
C160 C159 1.410 . S
C160 C161 1.392 . S
C160 C163 1.511 . S
C161 C157 1.376 . S
C161 C160 1.392 . S
C161 H173 0.929 . S
C162 C158 1.531 . S
C162 H174 0.960 . S
C162 H175 0.962 . S
C162 H176 0.960 . S
C163 C160 1.511 . S
C163 H177 0.961 . S
C163 H178 0.961 . S
C163 H179 0.961 . S
C164 C165 1.370 . S
C164 C166 1.363 . S
C164 H180 0.931 . S
C165 C164 1.370 . S
C165 C169 1.408 . S
C166 C164 1.363 . S
C166 C167 1.370 . S
C166 C170 1.524 . S
C167 C159 1.503 . S
C167 C166 1.370 . S
C167 C168 1.403 . S
C168 C167 1.403 . S
C168 C169 1.404 . S
C168 C171 1.539 . S
C169 C165 1.408 . S
C169 C168 1.404 . S
C169 H181 0.930 . S
C170 C166 1.524 . S
C170 H182 0.956 . S
C170 H183 0.961 . S
C170 H184 0.961 . S
C171 C168 1.539 . S
C171 H185 0.958 . S
C171 H186 0.961 . S
C171 H187 0.960 . S
H172 C156 0.931 . S
H173 C161 0.929 . S
H174 C162 0.960 . S
H175 C162 0.962 . S
H176 C162 0.960 . S
H177 C163 0.961 . S
H178 C163 0.961 . S
H179 C163 0.961 . S
H180 C164 0.931 . S
H181 C169 0.930 . S
H182 C170 0.956 . S
H183 C170 0.961 . S
H184 C170 0.961 . S
H185 C171 0.958 . S
H186 C171 0.961 . S
H187 C171 0.960 . S
C188 C189 1.391 . S
C188 C190 1.394 . S
C188 H204 0.931 . S
C189 C188 1.391 . S
C189 C193 1.376 . S
C190 C188 1.394 . S
C190 C191 1.369 . S
C190 C194 1.531 . S
C191 C190 1.369 . S
C191 C192 1.410 . S
C191 C199 1.503 . S
C192 C191 1.410 . S
C192 C193 1.392 . S
C192 C195 1.511 . S
C193 C189 1.376 . S
C193 C192 1.392 . S
C193 H205 0.929 . S
C194 C190 1.531 . S
C194 H206 0.960 . S
C194 H207 0.962 . S
C194 H208 0.960 . S
C195 C192 1.511 . S
C195 H209 0.961 . S
C195 H210 0.961 . S
C195 H211 0.961 . S
C196 C197 1.370 . S
C196 C198 1.363 . S
C196 H212 0.931 . S
C197 C196 1.370 . S
C197 C201 1.408 . S
C198 C196 1.363 . S
C198 C199 1.370 . S
C198 C202 1.524 . S
C199 C191 1.503 . S
C199 C198 1.370 . S
C199 C200 1.403 . S
C200 C199 1.403 . S
C200 C201 1.404 . S
C200 C203 1.539 . S
C201 C197 1.408 . S
C201 C200 1.404 . S
C201 H213 0.930 . S
C202 C198 1.524 . S
C202 H214 0.956 . S
C202 H215 0.961 . S
C202 H216 0.961 . S
C203 C200 1.539 . S
C203 H217 0.958 . S
C203 H218 0.961 . S
C203 H219 0.960 . S
H204 C188 0.931 . S
H205 C193 0.929 . S
H206 C194 0.960 . S
H207 C194 0.962 . S
H208 C194 0.960 . S
H209 C195 0.961 . S
H210 C195 0.961 . S
H211 C195 0.961 . S
H212 C196 0.931 . S
H213 C201 0.930 . S
H214 C202 0.956 . S
H215 C202 0.961 . S
H216 C202 0.961 . S
H217 C203 0.958 . S
H218 C203 0.961 . S
H219 C203 0.960 . S
C220 C221 1.391 . S
C220 C222 1.394 . S
C220 H236 0.931 . S
C221 C220 1.391 . S
C221 C225 1.376 . S
C222 C220 1.394 . S
C222 C223 1.369 . S
C222 C226 1.531 . S
C223 C222 1.369 . S
C223 C224 1.410 . S
C223 C231 1.503 . S
C224 C223 1.410 . S
C224 C225 1.392 . S
C224 C227 1.511 . S
C225 C221 1.376 . S
C225 C224 1.392 . S
C225 H237 0.929 . S
C226 C222 1.531 . S
C226 H238 0.960 . S
C226 H239 0.962 . S
C226 H240 0.960 . S
C227 C224 1.511 . S
C227 H241 0.961 . S
C227 H242 0.961 . S
C227 H243 0.961 . S
C228 C229 1.370 . S
C228 C230 1.363 . S
C228 H244 0.931 . S
C229 C228 1.370 . S
C229 C233 1.408 . S
C230 C228 1.363 . S
C230 C231 1.370 . S
C230 C234 1.524 . S
C231 C223 1.503 . S
C231 C230 1.370 . S
C231 C232 1.403 . S
C232 C231 1.403 . S
C232 C233 1.404 . S
C232 C235 1.539 . S
C233 C229 1.408 . S
C233 C232 1.404 . S
C233 H245 0.930 . S
C234 C230 1.524 . S
C234 H246 0.956 . S
C234 H247 0.961 . S
C234 H248 0.961 . S
C235 C232 1.539 . S
C235 H249 0.958 . S
C235 H250 0.961 . S
C235 H251 0.960 . S
H236 C220 0.931 . S
H237 C225 0.929 . S
H238 C226 0.960 . S
H239 C226 0.962 . S
H240 C226 0.960 . S
H241 C227 0.961 . S
H242 C227 0.961 . S
H243 C227 0.961 . S
H244 C228 0.931 . S
H245 C233 0.930 . S
H246 C234 0.956 . S
H247 C234 0.961 . S
H248 C234 0.961 . S
H249 C235 0.958 . S
H250 C235 0.961 . S
H251 C235 0.960 . S
C252 C253 1.391 . S
C252 C254 1.394 . S
C252 H268 0.931 . S
C253 C252 1.391 . S
C253 C257 1.376 . S
C254 C252 1.394 . S
C254 C255 1.369 . S
C254 C258 1.531 . S
C255 C254 1.369 . S
C255 C256 1.410 . S
C255 C263 1.503 . S
C256 C255 1.410 . S
C256 C257 1.392 . S
C256 C259 1.511 . S
C257 C253 1.376 . S
C257 C256 1.392 . S
C257 H269 0.929 . S
C258 C254 1.531 . S
C258 H270 0.960 . S
C258 H271 0.962 . S
C258 H272 0.960 . S
C259 C256 1.511 . S
C259 H273 0.961 . S
C259 H274 0.961 . S
C259 H275 0.961 . S
C260 C261 1.370 . S
C260 C262 1.363 . S
C260 H276 0.931 . S
C261 C260 1.370 . S
C261 C265 1.408 . S
C262 C260 1.363 . S
C262 C263 1.370 . S
C262 C266 1.524 . S
C263 C255 1.503 . S
C263 C262 1.370 . S
C263 C264 1.403 . S
C264 C263 1.403 . S
C264 C265 1.404 . S
C264 C267 1.539 . S
C265 C261 1.408 . S
C265 C264 1.404 . S
C265 H277 0.930 . S
C266 C262 1.524 . S
C266 H278 0.956 . S
C266 H279 0.961 . S
C266 H280 0.961 . S
C267 C264 1.539 . S
C267 H281 0.958 . S
C267 H282 0.961 . S
C267 H283 0.960 . S
H268 C252 0.931 . S
H269 C257 0.929 . S
H270 C258 0.960 . S
H271 C258 0.962 . S
H272 C258 0.960 . S
H273 C259 0.961 . S
H274 C259 0.961 . S
H275 C259 0.961 . S
H276 C260 0.931 . S
H277 C265 0.930 . S
H278 C266 0.956 . S
H279 C266 0.961 . S
H280 C266 0.961 . S
H281 C267 0.958 . S
H282 C267 0.961 . S
H283 C267 0.960 . S
C284 C285 1.391 . S
C284 C286 1.394 . S
C284 H300 0.931 . S
C285 C284 1.391 . S
C285 C289 1.376 . S
C286 C284 1.394 . S
C286 C287 1.369 . S
C286 C290 1.531 1_556 S
C287 C286 1.369 . S
C287 C288 1.410 . S
C287 C295 1.503 1_556 S
C288 C287 1.410 . S
C288 C289 1.392 . S
C288 C291 1.511 . S
C289 C285 1.376 . S
C289 C288 1.392 . S
C289 H301 0.929 . S
C290 C286 1.531 1_554 S
C290 H302 0.960 . S
C290 H303 0.962 . S
C290 H304 0.960 . S
C291 C288 1.511 . S
C291 H305 0.961 . S
C291 H306 0.961 . S
C291 H307 0.961 . S
C292 C293 1.370 . S
C292 C294 1.363 . S
C292 H308 0.931 . S
C293 C292 1.370 . S
C293 C297 1.408 . S
C294 C292 1.363 . S
C294 C295 1.370 . S
C294 C298 1.524 1_554 S
C295 C287 1.503 1_554 S
C295 C294 1.370 . S
C295 C296 1.403 . S
C296 C295 1.403 . S
C296 C297 1.404 . S
C296 C299 1.539 . S
C297 C293 1.408 . S
C297 C296 1.404 . S
C297 H309 0.930 . S
C298 C294 1.524 1_556 S
C298 H310 0.956 . S
C298 H311 0.961 . S
C298 H312 0.961 . S
C299 C296 1.539 . S
C299 H313 0.958 . S
C299 H314 0.961 . S
C299 H315 0.960 1_554 S
H300 C284 0.931 . S
H301 C289 0.929 . S
H302 C290 0.960 . S
H303 C290 0.962 . S
H304 C290 0.960 . S
H305 C291 0.961 . S
H306 C291 0.961 . S
H307 C291 0.961 . S
H308 C292 0.931 . S
H309 C297 0.930 . S
H310 C298 0.956 . S
H311 C298 0.961 . S
H312 C298 0.961 . S
H313 C299 0.958 . S
H314 C299 0.961 . S
H315 C299 0.960 1_556 S
C316 C317 1.391 . S
C316 C318 1.394 . S
C316 H332 0.931 . S
C317 C316 1.391 . S
C317 C321 1.376 . S
C318 C316 1.394 . S
C318 C319 1.369 . S
C318 C322 1.531 . S
C319 C318 1.369 . S
C319 C320 1.410 . S
C319 C327 1.503 . S
C320 C319 1.410 . S
C320 C321 1.392 . S
C320 C323 1.511 . S
C321 C317 1.376 . S
C321 C320 1.392 . S
C321 H333 0.929 . S
C322 C318 1.531 . S
C322 H334 0.960 . S
C322 H335 0.962 . S
C322 H336 0.960 . S
C323 C320 1.511 . S
C323 H337 0.961 . S
C323 H338 0.961 . S
C323 H339 0.961 . S
C324 C325 1.368 1_554 S
C324 C326 1.363 . S
C324 H340 0.931 . S
C325 C324 1.368 1_556 S
C325 C329 1.407 1_556 S
C326 C324 1.363 . S
C326 C327 1.370 . S
C326 C330 1.524 . S
C327 C319 1.503 . S
C327 C326 1.370 . S
C327 C328 1.403 . S
C328 C327 1.403 . S
C328 C329 1.404 . S
C328 C331 1.539 . S
C329 C325 1.407 1_554 S
C329 C328 1.404 . S
C329 H341 0.933 . S
C330 C326 1.524 . S
C330 H342 0.956 . S
C330 H343 0.961 . S
C330 H344 0.961 . S
C331 C328 1.539 . S
C331 H345 0.958 . S
C331 H346 0.961 . S
C331 H347 0.960 . S
H332 C316 0.931 . S
H333 C321 0.929 . S
H334 C322 0.960 . S
H335 C322 0.962 . S
H336 C322 0.960 . S
H337 C323 0.961 . S
H338 C323 0.961 . S
H339 C323 0.961 . S
H340 C324 0.931 . S
H341 C329 0.933 . S
H342 C330 0.956 . S
H343 C330 0.961 . S
H344 C330 0.961 . S
H345 C331 0.958 . S
H346 C331 0.961 . S
H347 C331 0.960 . S
C348 C349 1.391 . S
C348 C350 1.394 . S
C348 H364 0.931 . S
C349 C348 1.391 . S
C349 C353 1.376 . S
C350 C348 1.394 . S
C350 C351 1.369 . S
C350 C354 1.531 . S
C351 C350 1.369 . S
C351 C352 1.410 . S
C351 C359 1.503 . S
C352 C351 1.410 . S
C352 C353 1.392 . S
C352 C355 1.511 . S
C353 C349 1.376 . S
C353 C352 1.392 . S
C353 H365 0.929 . S
C354 C350 1.531 . S
C354 H366 0.960 . S
C354 H367 0.962 . S
C354 H368 0.960 1_554 S
C355 C352 1.511 . S
C355 H369 0.961 . S
C355 H370 0.961 . S
C355 H371 0.961 . S
C356 C357 1.370 . S
C356 C358 1.363 . S
C356 H372 0.931 . S
C357 C356 1.370 . S
C357 C361 1.408 . S
C358 C356 1.363 . S
C358 C359 1.370 . S
C358 C362 1.524 . S
C359 C351 1.503 . S
C359 C358 1.370 . S
C359 C360 1.403 . S
C360 C359 1.403 . S
C360 C361 1.404 . S
C360 C363 1.539 . S
C361 C357 1.408 . S
C361 C360 1.404 . S
C361 H373 0.930 . S
C362 C358 1.524 . S
C362 H374 0.956 . S
C362 H375 0.961 . S
C362 H376 0.961 . S
C363 C360 1.539 . S
C363 H377 0.958 . S
C363 H378 0.961 . S
C363 H379 0.960 . S
H364 C348 0.931 . S
H365 C353 0.929 . S
H366 C354 0.960 . S
H367 C354 0.962 . S
H368 C354 0.960 1_556 S
H369 C355 0.961 . S
H370 C355 0.961 . S
H371 C355 0.961 . S
H372 C356 0.931 . S
H373 C361 0.930 . S
H374 C362 0.956 . S
H375 C362 0.961 . S
H376 C362 0.961 . S
H377 C363 0.958 . S
H378 C363 0.961 . S
H379 C363 0.960 . S
C380 C381 1.391 . S
C380 C382 1.394 . S
C380 H396 0.931 . S
C381 C380 1.391 . S
C381 C385 1.376 . S
C382 C380 1.394 . S
C382 C383 1.369 . S
C382 C386 1.531 . S
C383 C382 1.369 . S
C383 C384 1.410 . S
C383 C391 1.503 . S
C384 C383 1.410 . S
C384 C385 1.392 . S
C384 C387 1.511 . S
C385 C381 1.376 . S
C385 C384 1.392 . S
C385 H397 0.929 . S
C386 C382 1.531 . S
C386 H398 0.960 . S
C386 H399 0.962 . S
C386 H400 0.960 . S
C387 C384 1.511 . S
C387 H401 0.961 . S
C387 H402 0.961 . S
C387 H403 0.961 . S
C388 C389 1.370 . S
C388 C390 1.363 . S
C388 H404 0.931 . S
C389 C388 1.370 . S
C389 C393 1.408 . S
C390 C388 1.363 . S
C390 C391 1.370 . S
C390 C394 1.524 . S
C391 C383 1.503 . S
C391 C390 1.370 . S
C391 C392 1.403 . S
C392 C391 1.403 . S
C392 C393 1.404 . S
C392 C395 1.539 . S
C393 C389 1.408 . S
C393 C392 1.404 . S
C393 H405 0.930 . S
C394 C390 1.524 . S
C394 H406 0.956 . S
C394 H407 0.961 . S
C394 H408 0.961 . S
C395 C392 1.539 . S
C395 H409 0.958 . S
C395 H410 0.961 . S
C395 H411 0.960 . S
H396 C380 0.931 . S
H397 C385 0.929 . S
H398 C386 0.960 . S
H399 C386 0.962 . S
H400 C386 0.960 . S
H401 C387 0.961 . S
H402 C387 0.961 . S
H403 C387 0.961 . S
H404 C388 0.931 . S
H405 C393 0.930 . S
H406 C394 0.956 . S
H407 C394 0.961 . S
H408 C394 0.961 . S
H409 C395 0.958 . S
H410 C395 0.961 . S
H411 C395 0.960 . S
C412 C413 1.391 . S
C412 C414 1.394 . S
C412 H428 0.931 . S
C413 C412 1.391 . S
C413 C417 1.376 . S
C414 C412 1.394 . S
C414 C415 1.369 . S
C414 C418 1.531 . S
C415 C414 1.369 . S
C415 C416 1.410 . S
C415 C423 1.503 . S
C416 C415 1.410 . S
C416 C417 1.392 . S
C416 C419 1.511 . S
C417 C413 1.376 . S
C417 C416 1.392 . S
C417 H429 0.929 . S
C418 C414 1.531 . S
C418 H430 0.960 . S
C418 H431 0.962 . S
C418 H432 0.960 . S
C419 C416 1.511 . S
C419 H433 0.961 . S
C419 H434 0.961 . S
C419 H435 0.961 . S
C420 C421 1.370 . S
C420 C422 1.363 . S
C420 H436 0.931 . S
C421 C420 1.370 . S
C421 C425 1.408 . S
C422 C420 1.363 . S
C422 C423 1.370 . S
C422 C426 1.524 . S
C423 C415 1.503 . S
C423 C422 1.370 . S
C423 C424 1.403 . S
C424 C423 1.403 . S
C424 C425 1.404 . S
C424 C427 1.539 . S
C425 C421 1.408 . S
C425 C424 1.404 . S
C425 H437 0.930 . S
C426 C422 1.524 . S
C426 H438 0.956 . S
C426 H439 0.961 . S
C426 H440 0.961 . S
C427 C424 1.539 . S
C427 H441 0.958 . S
C427 H442 0.961 . S
C427 H443 0.960 . S
H428 C412 0.931 . S
H429 C417 0.929 . S
H430 C418 0.960 . S
H431 C418 0.962 . S
H432 C418 0.960 . S
H433 C419 0.961 . S
H434 C419 0.961 . S
H435 C419 0.961 . S
H436 C420 0.931 . S
H437 C425 0.930 . S
H438 C426 0.956 . S
H439 C426 0.961 . S
H440 C426 0.961 . S
H441 C427 0.958 . S
H442 C427 0.961 . S
H443 C427 0.960 . S
C444 C445 1.391 . S
C444 C446 1.394 . S
C444 H460 0.931 . S
C445 C444 1.391 . S
C445 C449 1.376 . S
C446 C444 1.394 . S
C446 C447 1.369 . S
C446 C450 1.531 . S
C447 C446 1.369 . S
C447 C448 1.410 . S
C447 C455 1.503 . S
C448 C447 1.410 . S
C448 C449 1.392 . S
C448 C451 1.511 . S
C449 C445 1.376 . S
C449 C448 1.392 . S
C449 H461 0.929 . S
C450 C446 1.531 . S
C450 H462 0.960 . S
C450 H463 0.962 . S
C450 H464 0.960 . S
C451 C448 1.511 . S
C451 H465 0.961 . S
C451 H466 0.961 . S
C451 H467 0.961 . S
C452 C453 1.370 . S
C452 C454 1.363 . S
C452 H468 0.931 . S
C453 C452 1.370 . S
C453 C457 1.408 . S
C454 C452 1.363 . S
C454 C455 1.370 . S
C454 C458 1.524 . S
C455 C447 1.503 . S
C455 C454 1.370 . S
C455 C456 1.403 . S
C456 C455 1.403 . S
C456 C457 1.404 . S
C456 C459 1.539 . S
C457 C453 1.408 . S
C457 C456 1.404 . S
C457 H469 0.930 . S
C458 C454 1.524 . S
C458 H470 0.956 . S
C458 H471 0.961 . S
C458 H472 0.961 . S
C459 C456 1.539 . S
C459 H473 0.958 . S
C459 H474 0.961 . S
C459 H475 0.960 . S
H460 C444 0.931 . S
H461 C449 0.929 . S
H462 C450 0.960 . S
H463 C450 0.962 . S
H464 C450 0.960 . S
H465 C451 0.961 . S
H466 C451 0.961 . S
H467 C451 0.961 . S
H468 C452 0.931 . S
H469 C457 0.930 . S
H470 C458 0.956 . S
H471 C458 0.961 . S
H472 C458 0.961 . S
H473 C459 0.958 . S
H474 C459 0.961 . S
H475 C459 0.960 . S
C476 C477 1.391 . S
C476 C478 1.394 . S
C476 H492 0.931 . S
C477 C476 1.391 . S
C477 C481 1.376 . S
C478 C476 1.394 . S
C478 C479 1.369 . S
C478 C482 1.531 . S
C479 C478 1.369 . S
C479 C480 1.410 . S
C479 C487 1.503 . S
C480 C479 1.410 . S
C480 C481 1.392 . S
C480 C483 1.511 . S
C481 C477 1.376 . S
C481 C480 1.392 . S
C481 H493 0.929 . S
C482 C478 1.531 . S
C482 H494 0.960 . S
C482 H495 0.962 . S
C482 H496 0.960 . S
C483 C480 1.511 . S
C483 H497 0.961 . S
C483 H498 0.961 . S
C483 H499 0.961 . S
C484 C485 1.370 . S
C484 C486 1.363 . S
C484 H500 0.931 . S
C485 C484 1.370 . S
C485 C489 1.408 . S
C486 C484 1.363 . S
C486 C487 1.370 . S
C486 C490 1.524 . S
C487 C479 1.503 . S
C487 C486 1.370 . S
C487 C488 1.403 . S
C488 C487 1.403 . S
C488 C489 1.404 . S
C488 C491 1.539 . S
C489 C485 1.408 . S
C489 C488 1.404 . S
C489 H501 0.930 . S
C490 C486 1.524 . S
C490 H502 0.956 . S
C490 H503 0.961 . S
C490 H504 0.961 . S
C491 C488 1.539 . S
C491 H505 0.958 . S
C491 H506 0.961 . S
C491 H507 0.960 . S
H492 C476 0.931 . S
H493 C481 0.929 . S
H494 C482 0.960 . S
H495 C482 0.962 . S
H496 C482 0.960 . S
H497 C483 0.961 . S
H498 C483 0.961 . S
H499 C483 0.961 . S
H500 C484 0.931 . S
H501 C489 0.930 . S
H502 C490 0.956 . S
H503 C490 0.961 . S
H504 C490 0.961 . S
H505 C491 0.958 . S
H506 C491 0.961 . S
H507 C491 0.960 . S
C508 C509 1.391 . S
C508 C510 1.394 . S
C508 H524 0.931 . S
C509 C508 1.391 . S
C509 C513 1.376 . S
C510 C508 1.394 . S
C510 C511 1.369 . S
C510 C514 1.531 . S
C511 C510 1.369 . S
C511 C512 1.410 . S
C511 C519 1.503 . S
C512 C511 1.410 . S
C512 C513 1.392 . S
C512 C515 1.511 1_556 S
C513 C509 1.376 . S
C513 C512 1.392 . S
C513 H525 0.929 . S
C514 C510 1.531 . S
C514 H526 0.960 . S
C514 H527 0.962 . S
C514 H528 0.960 . S
C515 C512 1.511 1_554 S
C515 H529 0.961 . S
C515 H530 0.961 . S
C515 H531 0.961 . S
C516 C517 1.370 1_556 S
C516 C518 1.363 . S
C516 H532 0.931 . S
C517 C516 1.370 1_554 S
C517 C521 1.408 . S
C518 C516 1.363 . S
C518 C519 1.370 . S
C518 C522 1.524 . S
C519 C511 1.503 . S
C519 C518 1.370 . S
C519 C520 1.403 1_556 S
C520 C519 1.403 1_554 S
C520 C521 1.404 . S
C520 C523 1.539 . S
C521 C517 1.408 . S
C521 C520 1.404 . S
C521 H533 0.930 . S
C522 C518 1.524 . S
C522 H534 0.956 . S
C522 H535 0.961 . S
C522 H536 0.961 . S
C523 C520 1.539 . S
C523 H537 0.958 . S
C523 H538 0.961 . S
C523 H539 0.960 . S
H524 C508 0.931 . S
H525 C513 0.929 . S
H526 C514 0.960 . S
H527 C514 0.962 . S
H528 C514 0.960 . S
H529 C515 0.961 . S
H530 C515 0.961 . S
H531 C515 0.961 . S
H532 C516 0.931 . S
H533 C521 0.930 . S
H534 C522 0.956 . S
H535 C522 0.961 . S
H536 C522 0.961 . S
H537 C523 0.958 . S
H538 C523 0.961 . S
H539 C523 0.960 . S
C540 C541 1.391 . S
C540 C542 1.394 . S
C540 H556 0.931 . S
C541 C540 1.391 . S
C541 C545 1.376 . S
C542 C540 1.394 . S
C542 C543 1.369 . S
C542 C546 1.531 . S
C543 C542 1.369 . S
C543 C544 1.410 . S
C543 C551 1.503 . S
C544 C543 1.410 . S
C544 C545 1.392 . S
C544 C547 1.511 . S
C545 C541 1.376 . S
C545 C544 1.392 . S
C545 H557 0.929 . S
C546 C542 1.531 . S
C546 H558 0.960 . S
C546 H559 0.962 . S
C546 H560 0.960 . S
C547 C544 1.511 . S
C547 H561 0.961 . S
C547 H562 0.961 . S
C547 H563 0.961 . S
C548 C549 1.370 . S
C548 C550 1.363 . S
C548 H564 0.931 . S
C549 C548 1.370 . S
C549 C553 1.408 . S
C550 C548 1.363 . S
C550 C551 1.370 . S
C550 C554 1.524 . S
C551 C543 1.503 . S
C551 C550 1.370 . S
C551 C552 1.403 . S
C552 C551 1.403 . S
C552 C553 1.404 . S
C552 C555 1.539 . S
C553 C549 1.408 . S
C553 C552 1.404 . S
C553 H565 0.930 . S
C554 C550 1.524 . S
C554 H566 0.956 . S
C554 H567 0.961 . S
C554 H568 0.961 . S
C555 C552 1.539 . S
C555 H569 0.958 . S
C555 H570 0.961 . S
C555 H571 0.960 . S
H556 C540 0.931 . S
H557 C545 0.929 . S
H558 C546 0.960 . S
H559 C546 0.962 . S
H560 C546 0.960 . S
H561 C547 0.961 . S
H562 C547 0.961 . S
H563 C547 0.961 . S
H564 C548 0.931 . S
H565 C553 0.930 . S
H566 C554 0.956 . S
H567 C554 0.961 . S
H568 C554 0.961 . S
H569 C555 0.958 . S
H570 C555 0.961 . S
H571 C555 0.960 . S
C572 C573 1.391 . S
C572 C574 1.394 . S
C572 H588 0.931 . S
C573 C572 1.391 . S
C573 C577 1.376 . S
C574 C572 1.394 . S
C574 C575 1.369 1_554 S
C574 C578 1.531 . S
C575 C574 1.369 1_556 S
C575 C576 1.410 . S
C575 C583 1.503 . S
C576 C575 1.410 . S
C576 C577 1.392 1_556 S
C576 C579 1.511 . S
C577 C573 1.376 . S
C577 C576 1.392 1_554 S
C577 H589 0.929 . S
C578 C574 1.531 . S
C578 H590 0.960 . S
C578 H591 0.962 . S
C578 H592 0.960 . S
C579 C576 1.511 . S
C579 H593 0.961 . S
C579 H594 0.961 . S
C579 H595 0.961 . S
C580 C581 1.370 . S
C580 C582 1.363 . S
C580 H596 0.931 . S
C581 C580 1.370 . S
C581 C585 1.408 . S
C582 C580 1.363 . S
C582 C583 1.370 . S
C582 C586 1.524 . S
C583 C575 1.503 . S
C583 C582 1.370 . S
C583 C584 1.403 . S
C584 C583 1.403 . S
C584 C585 1.404 . S
C584 C587 1.539 . S
C585 C581 1.408 . S
C585 C584 1.404 . S
C585 H597 0.930 . S
C586 C582 1.524 . S
C586 H598 0.956 . S
C586 H599 0.961 . S
C586 H600 0.961 . S
C587 C584 1.539 . S
C587 H601 0.958 . S
C587 H602 0.961 . S
C587 H603 0.960 . S
H588 C572 0.931 . S
H589 C577 0.929 . S
H590 C578 0.960 . S
H591 C578 0.962 . S
H592 C578 0.960 . S
H593 C579 0.961 . S
H594 C579 0.961 . S
H595 C579 0.961 . S
H596 C580 0.931 . S
H597 C585 0.930 . S
H598 C586 0.956 . S
H599 C586 0.961 . S
H600 C586 0.961 . S
H601 C587 0.958 . S
H602 C587 0.961 . S
H603 C587 0.960 . S
C604 C605 1.391 . S
C604 C606 1.394 . S
C604 H620 0.931 . S
C605 C604 1.391 . S
C605 C609 1.376 . S
C606 C604 1.394 . S
C606 C607 1.369 . S
C606 C610 1.531 . S
C607 C606 1.369 . S
C607 C608 1.410 . S
C607 C615 1.503 . S
C608 C607 1.410 . S
C608 C609 1.392 . S
C608 C611 1.511 . S
C609 C605 1.376 . S
C609 C608 1.392 . S
C609 H621 0.929 . S
C610 C606 1.531 . S
C610 H622 0.960 . S
C610 H623 0.962 . S
C610 H624 0.960 . S
C611 C608 1.511 . S
C611 H625 0.961 . S
C611 H626 0.961 . S
C611 H627 0.961 . S
C612 C613 1.370 1_554 S
C612 C614 1.363 . S
C612 H628 0.931 . S
C613 C612 1.370 1_556 S
C613 C617 1.408 . S
C614 C612 1.363 . S
C614 C615 1.370 . S
C614 C618 1.524 . S
C615 C607 1.503 . S
C615 C614 1.370 . S
C615 C616 1.403 . S
C616 C615 1.403 . S
C616 C617 1.404 1_554 S
C616 C619 1.539 1_554 S
C617 C613 1.408 . S
C617 C616 1.404 1_556 S
C617 H629 0.930 . S
C618 C614 1.524 . S
C618 H630 0.956 . S
C618 H631 0.961 . S
C618 H632 0.961 . S
C619 C616 1.539 1_556 S
C619 H633 0.958 . S
C619 H634 0.961 . S
C619 H635 0.960 1_556 S
H620 C604 0.931 . S
H621 C609 0.929 . S
H622 C610 0.960 . S
H623 C610 0.962 . S
H624 C610 0.960 . S
H625 C611 0.961 . S
H626 C611 0.961 . S
H627 C611 0.961 . S
H628 C612 0.931 . S
H629 C617 0.930 . S
H630 C618 0.956 . S
H631 C618 0.961 . S
H632 C618 0.961 . S
H633 C619 0.958 . S
H634 C619 0.961 . S
H635 C619 0.960 1_554 S
C636 C637 1.391 . S
C636 C638 1.394 . S
C636 H652 0.931 . S
C637 C636 1.391 . S
C637 C641 1.376 . S
C638 C636 1.394 . S
C638 C639 1.369 . S
C638 C642 1.531 . S
C639 C638 1.369 . S
C639 C640 1.410 . S
C639 C647 1.503 . S
C640 C639 1.410 . S
C640 C641 1.392 . S
C640 C643 1.511 . S
C641 C637 1.376 . S
C641 C640 1.392 . S
C641 H653 0.929 . S
C642 C638 1.531 . S
C642 H654 0.960 . S
C642 H655 0.962 . S
C642 H656 0.960 . S
C643 C640 1.511 . S
C643 H657 0.961 . S
C643 H658 0.961 . S
C643 H659 0.961 . S
C644 C645 1.370 . S
C644 C646 1.363 . S
C644 H660 0.931 . S
C645 C644 1.370 . S
C645 C649 1.408 . S
C646 C644 1.363 . S
C646 C647 1.370 . S
C646 C650 1.524 . S
C647 C639 1.503 . S
C647 C646 1.370 . S
C647 C648 1.403 . S
C648 C647 1.403 . S
C648 C649 1.404 . S
C648 C651 1.539 . S
C649 C645 1.408 . S
C649 C648 1.404 . S
C649 H661 0.930 . S
C650 C646 1.524 . S
C650 H662 0.956 . S
C650 H663 0.961 . S
C650 H664 0.961 . S
C651 C648 1.539 . S
C651 H665 0.958 . S
C651 H666 0.961 . S
C651 H667 0.960 . S
H652 C636 0.931 . S
H653 C641 0.929 . S
H654 C642 0.960 . S
H655 C642 0.962 . S
H656 C642 0.960 . S
H657 C643 0.961 . S
H658 C643 0.961 . S
H659 C643 0.961 . S
H660 C644 0.931 . S
H661 C649 0.930 . S
H662 C650 0.956 . S
H663 C650 0.961 . S
H664 C650 0.961 . S
H665 C651 0.958 . S
H666 C651 0.961 . S
H667 C651 0.960 . S
C668 C669 1.391 . S
C668 C670 1.394 . S
C668 H684 0.931 . S
C669 C668 1.391 . S
C669 C673 1.376 . S
C670 C668 1.394 . S
C670 C671 1.369 . S
C670 C674 1.531 . S
C671 C670 1.369 . S
C671 C672 1.410 . S
C671 C679 1.503 . S
C672 C671 1.410 . S
C672 C673 1.392 . S
C672 C675 1.511 . S
C673 C669 1.376 . S
C673 C672 1.392 . S
C673 H685 0.929 . S
C674 C670 1.531 . S
C674 H686 0.960 . S
C674 H687 0.962 . S
C674 H688 0.960 . S
C675 C672 1.511 . S
C675 H689 0.961 . S
C675 H690 0.961 . S
C675 H691 0.961 . S
C676 C677 1.370 . S
C676 C678 1.363 . S
C676 H692 0.931 . S
C677 C676 1.370 . S
C677 C681 1.408 . S
C678 C676 1.363 . S
C678 C679 1.370 . S
C678 C682 1.524 . S
C679 C671 1.503 . S
C679 C678 1.370 . S
C679 C680 1.403 . S
C680 C679 1.403 . S
C680 C681 1.404 . S
C680 C683 1.539 . S
C681 C677 1.408 . S
C681 C680 1.404 . S
C681 H693 0.930 . S
C682 C678 1.524 . S
C682 H694 0.956 . S
C682 H695 0.961 . S
C682 H696 0.961 . S
C683 C680 1.539 . S
C683 H697 0.958 . S
C683 H698 0.961 . S
C683 H699 0.960 . S
H684 C668 0.931 . S
H685 C673 0.929 . S
H686 C674 0.960 . S
H687 C674 0.962 . S
H688 C674 0.960 . S
H689 C675 0.961 . S
H690 C675 0.961 . S
H691 C675 0.961 . S
H692 C676 0.931 . S
H693 C681 0.930 . S
H694 C682 0.956 . S
H695 C682 0.961 . S
H696 C682 0.961 . S
H697 C683 0.958 . S
H698 C683 0.961 . S
H699 C683 0.960 . S
C700 C701 1.391 . S
C700 C702 1.394 . S
C700 H716 0.931 . S
C701 C700 1.391 . S
C701 C705 1.376 . S
C702 C700 1.394 . S
C702 C703 1.369 . S
C702 C706 1.531 . S
C703 C702 1.369 . S
C703 C704 1.410 . S
C703 C711 1.503 . S
C704 C703 1.410 . S
C704 C705 1.392 . S
C704 C707 1.511 . S
C705 C701 1.376 . S
C705 C704 1.392 . S
C705 H717 0.929 . S
C706 C702 1.531 . S
C706 H718 0.960 . S
C706 H719 0.962 . S
C706 H720 0.960 . S
C707 C704 1.511 . S
C707 H721 0.961 . S
C707 H722 0.961 . S
C707 H723 0.961 . S
C708 C709 1.370 . S
C708 C710 1.363 . S
C708 H724 0.931 . S
C709 C708 1.370 . S
C709 C713 1.408 . S
C710 C708 1.363 . S
C710 C711 1.370 . S
C710 C714 1.524 . S
C711 C703 1.503 . S
C711 C710 1.370 . S
C711 C712 1.403 . S
C712 C711 1.403 . S
C712 C713 1.404 . S
C712 C715 1.539 . S
C713 C709 1.408 . S
C713 C712 1.404 . S
C713 H725 0.930 . S
C714 C710 1.524 . S
C714 H726 0.956 . S
C714 H727 0.961 . S
C714 H728 0.961 . S
C715 C712 1.539 . S
C715 H729 0.958 . S
C715 H730 0.961 . S
C715 H731 0.960 . S
H716 C700 0.931 . S
H717 C705 0.929 . S
H718 C706 0.960 . S
H719 C706 0.962 . S
H720 C706 0.960 . S
H721 C707 0.961 . S
H722 C707 0.961 . S
H723 C707 0.961 . S
H724 C708 0.931 . S
H725 C713 0.930 . S
H726 C714 0.956 . S
H727 C714 0.961 . S
H728 C714 0.961 . S
H729 C715 0.958 . S
H730 C715 0.961 . S
H731 C715 0.960 . S
C732 C733 1.391 . S
C732 C734 1.394 . S
C732 H748 0.931 . S
C733 C732 1.391 . S
C733 C737 1.376 . S
C734 C732 1.394 . S
C734 C735 1.369 . S
C734 C738 1.531 . S
C735 C734 1.369 . S
C735 C736 1.410 . S
C735 C743 1.503 1_455 S
C736 C735 1.410 . S
C736 C737 1.392 . S
C736 C739 1.511 1_455 S
C737 C733 1.376 . S
C737 C736 1.392 . S
C737 H749 0.929 1_556 S
C738 C734 1.531 . S
C738 H750 0.960 . S
C738 H751 0.962 . S
C738 H752 0.960 . S
C739 C736 1.511 1_655 S
C739 H753 0.961 1_655 S
C739 H754 0.961 . S
C739 H755 0.961 . S
C740 C741 1.370 . S
C740 C742 1.363 . S
C740 H756 0.931 . S
C741 C740 1.370 . S
C741 C745 1.408 . S
C742 C740 1.363 . S
C742 C743 1.370 . S
C742 C746 1.524 1_655 S
C743 C735 1.503 1_655 S
C743 C742 1.370 . S
C743 C744 1.403 . S
C744 C743 1.403 . S
C744 C745 1.404 . S
C744 C747 1.539 . S
C745 C741 1.408 . S
C745 C744 1.404 . S
C745 H757 0.930 . S
C746 C742 1.524 1_455 S
C746 H758 0.956 . S
C746 H759 0.961 . S
C746 H760 0.961 . S
C747 C744 1.539 . S
C747 H761 0.958 . S
C747 H762 0.961 . S
C747 H763 0.960 . S
H748 C732 0.931 . S
H749 C737 0.929 1_554 S
H750 C738 0.960 . S
H751 C738 0.962 . S
H752 C738 0.960 . S
H753 C739 0.961 1_455 S
H754 C739 0.961 . S
H755 C739 0.961 . S
H756 C740 0.931 . S
H757 C745 0.930 . S
H758 C746 0.956 . S
H759 C746 0.961 . S
H760 C746 0.961 . S
H761 C747 0.958 . S
H762 C747 0.961 . S
H763 C747 0.960 . S
C764 C765 1.391 . S
C764 C766 1.394 1_556 S
C764 H780 0.931 1_556 S
C765 C764 1.391 . S
C765 C769 1.376 . S
C766 C764 1.394 1_554 S
C766 C767 1.369 . S
C766 C770 1.531 . S
C767 C766 1.369 . S
C767 C768 1.410 1_554 S
C767 C775 1.503 1_565 S
C768 C767 1.410 1_556 S
C768 C769 1.392 . S
C768 C771 1.511 1_565 S
C769 C765 1.376 . S
C769 C768 1.392 . S
C769 H781 0.929 . S
C770 C766 1.531 . S
C770 H782 0.960 . S
C770 H783 0.962 . S
C770 H784 0.960 . S
C771 C768 1.511 1_545 S
C771 H785 0.961 . S
C771 H786 0.961 . S
C771 H787 0.980 . S
C772 C773 1.370 . S
C772 C774 1.363 . S
C772 H788 0.931 . S
C773 C772 1.370 . S
C773 C777 1.408 . S
C774 C772 1.363 . S
C774 C775 1.370 . S
C774 C778 1.524 1_554 S
C775 C767 1.503 1_545 S
C775 C774 1.370 . S
C775 C776 1.403 . S
C776 C775 1.403 . S
C776 C777 1.404 . S
C776 C779 1.539 1_545 S
C777 C773 1.408 . S
C777 C776 1.404 . S
C777 H789 0.930 . S
C778 C774 1.524 1_556 S
C778 H790 0.956 . S
C778 H791 0.961 . S
C778 H792 0.961 . S
C779 C776 1.539 1_565 S
C779 H793 0.958 . S
C779 H794 0.961 . S
C779 H795 0.960 . S
H780 C764 0.931 1_554 S
H781 C769 0.929 . S
H782 C770 0.960 . S
H783 C770 0.962 . S
H784 C770 0.960 . S
H785 C771 0.961 . S
H786 C771 0.961 . S
H787 C771 0.980 . S
H788 C772 0.931 . S
H789 C777 0.930 . S
H790 C778 0.956 . S
H791 C778 0.961 . S
H792 C778 0.961 . S
H793 C779 0.958 . S
H794 C779 0.961 . S
H795 C779 0.960 . S
C796 C797 1.391 . S
C796 C798 1.394 . S
C796 H812 0.931 . S
C797 C796 1.391 . S
C797 C801 1.376 . S
C798 C796 1.394 . S
C798 C799 1.369 . S
C798 C802 1.531 . S
C799 C798 1.369 . S
C799 C800 1.410 . S
C799 C807 1.503 . S
C800 C799 1.410 . S
C800 C801 1.392 . S
C800 C803 1.511 . S
C801 C797 1.376 . S
C801 C800 1.392 . S
C801 H813 0.929 . S
C802 C798 1.531 . S
C802 H814 0.960 . S
C802 H815 0.962 . S
C802 H816 0.960 . S
C803 C800 1.511 . S
C803 H817 0.961 . S
C803 H818 0.961 . S
C803 H819 0.961 . S
C804 C805 1.370 . S
C804 C806 1.363 . S
C804 H820 0.931 . S
C805 C804 1.370 . S
C805 C809 1.408 . S
C806 C804 1.363 . S
C806 C807 1.370 . S
C806 C810 1.524 . S
C807 C799 1.503 . S
C807 C806 1.370 . S
C807 C808 1.403 . S
C808 C807 1.403 . S
C808 C809 1.404 . S
C808 C811 1.539 . S
C809 C805 1.408 . S
C809 C808 1.404 . S
C809 H821 0.930 . S
C810 C806 1.524 . S
C810 H822 0.956 . S
C810 H823 0.961 . S
C810 H824 0.961 . S
C811 C808 1.539 . S
C811 H825 0.958 . S
C811 H826 0.961 . S
C811 H827 0.960 . S
H812 C796 0.931 . S
H813 C801 0.929 . S
H814 C802 0.960 . S
H815 C802 0.962 . S
H816 C802 0.960 . S
H817 C803 0.961 . S
H818 C803 0.961 . S
H819 C803 0.961 . S
H820 C804 0.931 . S
H821 C809 0.930 . S
H822 C810 0.956 . S
H823 C810 0.961 . S
H824 C810 0.961 . S
H825 C811 0.958 . S
H826 C811 0.961 . S
H827 C811 0.960 . S
C828 C829 1.391 . S
C828 C830 1.394 . S
C828 H844 0.931 . S
C829 C828 1.391 . S
C829 C833 1.376 . S
C830 C828 1.394 . S
C830 C831 1.369 . S
C830 C834 1.531 . S
C831 C830 1.369 . S
C831 C832 1.410 . S
C831 C839 1.503 1_455 S
C832 C831 1.410 . S
C832 C833 1.392 . S
C832 C835 1.511 . S
C833 C829 1.376 . S
C833 C832 1.392 . S
C833 H845 0.929 . S
C834 C830 1.531 . S
C834 H846 0.960 1_455 S
C834 H847 0.962 . S
C834 H848 0.960 . S
C835 C832 1.511 . S
C835 H849 0.961 . S
C835 H850 0.963 . S
C835 H851 0.961 1_455 S
C836 C837 1.370 . S
C836 C838 1.363 . S
C836 H852 0.931 . S
C837 C836 1.370 . S
C837 C841 1.408 . S
C838 C836 1.363 . S
C838 C839 1.370 . S
C838 C842 1.524 1_655 S
C839 C831 1.503 1_655 S
C839 C838 1.370 . S
C839 C840 1.403 . S
C840 C839 1.403 . S
C840 C841 1.404 . S
C840 C843 1.539 . S
C841 C837 1.408 . S
C841 C840 1.404 . S
C841 H853 0.930 . S
C842 C838 1.524 1_455 S
C842 H854 0.956 . S
C842 H855 0.961 . S
C842 H856 0.961 . S
C843 C840 1.539 . S
C843 H857 0.958 . S
C843 H858 0.961 . S
C843 H859 0.960 . S
H844 C828 0.931 . S
H845 C833 0.929 . S
H846 C834 0.960 1_655 S
H847 C834 0.962 . S
H848 C834 0.960 . S
H849 C835 0.961 . S
H850 C835 0.963 . S
H851 C835 0.961 1_655 S
H852 C836 0.931 . S
H853 C841 0.930 . S
H854 C842 0.956 . S
H855 C842 0.961 . S
H856 C842 0.961 . S
H857 C843 0.958 . S
H858 C843 0.961 . S
H859 C843 0.960 . S
C860 C861 1.391 . S
C860 C862 1.394 . S
C860 H876 0.931 . S
C861 C860 1.391 . S
C861 C865 1.376 . S
C862 C860 1.394 . S
C862 C863 1.369 . S
C862 C866 1.531 . S
C863 C862 1.369 . S
C863 C864 1.410 . S
C863 C871 1.503 1_545 S
C864 C863 1.410 . S
C864 C865 1.392 . S
C864 C867 1.511 . S
C865 C861 1.376 . S
C865 C864 1.392 . S
C865 H877 0.929 . S
C866 C862 1.531 . S
C866 H878 0.960 . S
C866 H879 0.962 . S
C866 H880 0.960 . S
C867 C864 1.511 . S
C867 H881 0.961 . S
C867 H882 0.961 1_545 S
C867 H883 0.961 . S
C868 C869 1.370 . S
C868 C870 1.363 . S
C868 H884 0.931 . S
C869 C868 1.370 . S
C869 C873 1.408 . S
C870 C868 1.363 . S
C870 C871 1.370 . S
C870 C874 1.524 . S
C871 C863 1.503 1_565 S
C871 C870 1.370 . S
C871 C872 1.403 . S
C872 C871 1.403 . S
C872 C873 1.404 . S
C872 C875 1.539 1_565 S
C873 C869 1.408 . S
C873 C872 1.404 . S
C873 H885 0.930 . S
C874 C870 1.524 . S
C874 H886 0.956 . S
C874 H887 0.961 . S
C874 H888 0.961 . S
C875 C872 1.539 1_545 S
C875 H889 0.958 . S
C875 H890 0.961 . S
C875 H891 0.960 . S
H876 C860 0.931 . S
H877 C865 0.929 . S
H878 C866 0.960 . S
H879 C866 0.962 . S
H880 C866 0.960 . S
H881 C867 0.961 . S
H882 C867 0.961 1_565 S
H883 C867 0.961 . S
H884 C868 0.931 . S
H885 C873 0.930 . S
H886 C874 0.956 . S
H887 C874 0.961 . S
H888 C874 0.961 . S
H889 C875 0.958 . S
H890 C875 0.961 . S
H891 C875 0.960 . S
C892 C893 1.391 . S
C892 C894 1.394 . S
C892 H908 0.931 . S
C893 C892 1.391 . S
C893 C897 1.376 . S
C894 C892 1.394 . S
C894 C895 1.369 . S
C894 C898 1.531 . S
C895 C894 1.369 . S
C895 C896 1.410 . S
C895 C903 1.503 . S
C896 C895 1.410 . S
C896 C897 1.392 . S
C896 C899 1.511 . S
C897 C893 1.376 . S
C897 C896 1.392 . S
C897 H909 0.929 . S
C898 C894 1.531 . S
C898 H910 0.960 . S
C898 H911 0.962 . S
C898 H912 0.960 . S
C899 C896 1.511 . S
C899 H913 0.961 . S
C899 H914 0.961 . S
C899 H915 0.961 . S
C900 C901 1.370 . S
C900 C902 1.363 . S
C900 H916 0.931 . S
C901 C900 1.370 . S
C901 C905 1.408 . S
C902 C900 1.363 . S
C902 C903 1.370 . S
C902 C906 1.524 . S
C903 C895 1.503 . S
C903 C902 1.370 . S
C903 C904 1.403 . S
C904 C903 1.403 . S
C904 C905 1.404 . S
C904 C907 1.539 . S
C905 C901 1.408 . S
C905 C904 1.404 . S
C905 H917 0.930 . S
C906 C902 1.524 . S
C906 H918 0.956 . S
C906 H919 0.961 . S
C906 H920 0.961 . S
C907 C904 1.539 . S
C907 H921 0.958 . S
C907 H922 0.961 . S
C907 H923 0.960 . S
H908 C892 0.931 . S
H909 C897 0.929 . S
H910 C898 0.960 . S
H911 C898 0.962 . S
H912 C898 0.960 . S
H913 C899 0.961 . S
H914 C899 0.961 . S
H915 C899 0.961 . S
H916 C900 0.931 . S
H917 C905 0.930 . S
H918 C906 0.956 . S
H919 C906 0.961 . S
H920 C906 0.961 . S
H921 C907 0.958 . S
H922 C907 0.961 . S
H923 C907 0.960 . S
C157 C5 1.105 . S
C165 C135 1.159 . S
C189 C148 1.142 . S
C197 C13 1.125 . S
C221 C31 1.150 . S
C229 C78 1.130 . S
C253 C44 1.138 . S
C261 C96 1.130 . S
C285 C52 1.161 . S
C293 C109 1.119 . S
C317 C117 1.077 . S
C325 C70 1.098 . S
C349 C8 1.555 . S
C357 C112 1.529 . S
C381 C23 1.566 . S
C389 C127 1.566 . S
C413 C138 1.539 . S
C421 C34 1.538 . S
C445 C47 1.508 . S
C453 C151 1.533 . S
C477 C62 1.551 . S
C485 C88 1.561 . S
C509 C73 1.511 . S
C517 C99 1.545 . S
C541 C140 1.128 . S
C549 C10 1.123 . S
C573 C21 1.064 . S
C581 C153 1.102 . S
C605 C36 1.096 . S
C613 C86 1.092 . S
C637 C49 1.105 . S
C645 C101 1.113 . S
C669 C114 1.083 . S
C677 C60 1.095 . S
C701 C75 1.105 . S
C709 C125 1.071 . S
C733 C0 1.426 . S
C741 C143 1.376 . S
C765 C83 1.368 . S
C773 C18 1.389 . S
C797 C91 1.422 . S
C805 C26 1.377 . S
C829 C104 1.428 . S
C837 C39 1.375 . S
C861 C122 1.358 . S
C869 C57 1.388 . S
C893 C130 1.428 . S
C901 C65 1.375 . S
