# Generated by pormake.
# Topology umm, (4)-cn, num edge types: 1
# Building blocks:
#     Node 0, Type 0, BuildingBlock: ESEHIV_clean_sbu_0, # of connection points: 4
#     Node 1, Type 0, BuildingBlock: ESEHIV_clean_sbu_0, # of connection points: 4
#     Node 2, Type 0, BuildingBlock: ESEHIV_clean_sbu_0, # of connection points: 4
#     Node 3, Type 0, BuildingBlock: ESEHIV_clean_sbu_0, # of connection points: 4
#     Node 4, Type 0, BuildingBlock: ESEHIV_clean_sbu_0, # of connection points: 4
#     Node 5, Type 0, BuildingBlock: ESEHIV_clean_sbu_0, # of connection points: 4
#     Node 6, Type 0, BuildingBlock: ESEHIV_clean_sbu_0, # of connection points: 4
#     Node 7, Type 0, BuildingBlock: ESEHIV_clean_sbu_0, # of connection points: 4
#     Node 8, Type 0, BuildingBlock: ESEHIV_clean_sbu_0, # of connection points: 4
#     Node 9, Type 0, BuildingBlock: ESEHIV_clean_sbu_0, # of connection points: 4
#     Node 10, Type 0, BuildingBlock: ESEHIV_clean_sbu_0, # of connection points: 4
#     Node 11, Type 0, BuildingBlock: ESEHIV_clean_sbu_0, # of connection points: 4
#     Edge 12, Type (0, 0), BuildingBlock: AJUNOK_clean_linker_0, # of connection points: 2
#     Edge 13, Type (0, 0), BuildingBlock: AJUNOK_clean_linker_0, # of connection points: 2
#     Edge 14, Type (0, 0), BuildingBlock: AJUNOK_clean_linker_0, # of connection points: 2
#     Edge 15, Type (0, 0), BuildingBlock: AJUNOK_clean_linker_0, # of connection points: 2
#     Edge 16, Type (0, 0), BuildingBlock: AJUNOK_clean_linker_0, # of connection points: 2
#     Edge 17, Type (0, 0), BuildingBlock: AJUNOK_clean_linker_0, # of connection points: 2
#     Edge 18, Type (0, 0), BuildingBlock: AJUNOK_clean_linker_0, # of connection points: 2
#     Edge 19, Type (0, 0), BuildingBlock: AJUNOK_clean_linker_0, # of connection points: 2
#     Edge 20, Type (0, 0), BuildingBlock: AJUNOK_clean_linker_0, # of connection points: 2
#     Edge 21, Type (0, 0), BuildingBlock: AJUNOK_clean_linker_0, # of connection points: 2
#     Edge 22, Type (0, 0), BuildingBlock: AJUNOK_clean_linker_0, # of connection points: 2
#     Edge 23, Type (0, 0), BuildingBlock: AJUNOK_clean_linker_0, # of connection points: 2
#     Edge 24, Type (0, 0), BuildingBlock: AJUNOK_clean_linker_0, # of connection points: 2
#     Edge 25, Type (0, 0), BuildingBlock: AJUNOK_clean_linker_0, # of connection points: 2
#     Edge 26, Type (0, 0), BuildingBlock: AJUNOK_clean_linker_0, # of connection points: 2
#     Edge 27, Type (0, 0), BuildingBlock: AJUNOK_clean_linker_0, # of connection points: 2
#     Edge 28, Type (0, 0), BuildingBlock: AJUNOK_clean_linker_0, # of connection points: 2
#     Edge 29, Type (0, 0), BuildingBlock: AJUNOK_clean_linker_0, # of connection points: 2
#     Edge 30, Type (0, 0), BuildingBlock: AJUNOK_clean_linker_0, # of connection points: 2
#     Edge 31, Type (0, 0), BuildingBlock: AJUNOK_clean_linker_0, # of connection points: 2
#     Edge 32, Type (0, 0), BuildingBlock: AJUNOK_clean_linker_0, # of connection points: 2
#     Edge 33, Type (0, 0), BuildingBlock: AJUNOK_clean_linker_0, # of connection points: 2
#     Edge 34, Type (0, 0), BuildingBlock: AJUNOK_clean_linker_0, # of connection points: 2
#     Edge 35, Type (0, 0), BuildingBlock: AJUNOK_clean_linker_0, # of connection points: 2
# Relax obj value: 0.041
# Max RMSD: 0.108
# Mean RMSD: 0.108
data_MOF--net-umm--node1-ESEHIV_clean_sbu_0--edge1-AJUNOK_clean_linker_0
_symmetry_space_group_name_H-M    P1
_symmetry_Int_Tables_number       1
_symmetry_cell_setting            triclinic
loop_
_symmetry_equiv_pos_as_xyz
'x, y, z'
_cell_length_a     50.839434
_cell_length_b     51.063037
_cell_length_c     20.777434
_cell_angle_alpha  89.763206
_cell_angle_beta   90.237734
_cell_angle_gamma 119.64438
loop_
_atom_site_label
_atom_site_type_symbol
_atom_site_fract_x
_atom_site_fract_y
_atom_site_fract_z
_atom_type_partial_charge
Cu0 Cu 0.42805 0.55655 0.106 0.0
N1 N 0.44784 0.53403 0.10279 0.0
N2 N 0.4859 0.52389 0.10551 0.0
C3 C 0.47781 0.54529 0.11132 0.0
C4 C 0.45994 0.49821 0.09226 0.0
C5 C 0.43649 0.50452 0.09078 0.0
O6 O 0.44224 0.58078 0.18363 0.0
C7 C 0.43139 0.56758 0.9749 0.0
O8 O 0.4173 0.53798 0.97495 0.0
H9 H 0.49339 0.56893 0.11993 0.0
H10 H 0.41292 0.48878 0.08106 0.0
N11 N 0.38586 0.53228 0.10792 0.0
N12 N 0.33713 0.51761 0.09041 0.0
C13 C 0.36607 0.53869 0.07843 0.0
C14 C 0.36878 0.506 0.13898 0.0
C15 C 0.33865 0.49695 0.12845 0.0
C16 C 0.43535 0.56765 0.23822 0.0
O17 O 0.41734 0.53836 0.24047 0.0
H18 H 0.37274 0.55858 0.04915 0.0
H19 H 0.37757 0.49417 0.16714 0.0
O20 O 0.43867 0.58126 1.0287 0.0
H21 H 0.45803 0.47639 0.08442 0.0
H22 H 0.31939 0.47652 0.14617 0.0
Cu23 Cu 0.889 0.40923 0.44516 0.0
N24 N 0.93121 0.42688 0.44287 0.0
N25 N 0.98022 0.46194 0.44518 0.0
C26 C 0.9514 0.45647 0.44836 0.0
C27 C 0.97803 0.43473 0.43672 0.0
C28 C 0.94778 0.41315 0.43542 0.0
O29 O 0.87789 0.42126 0.52536 0.0
C30 C 0.88524 0.41623 0.31414 0.0
O31 O 0.90195 0.40318 0.31583 0.0
H32 H 0.94504 0.47361 0.45514 0.0
H33 H 0.93851 0.38918 0.42888 0.0
N34 N 0.87056 0.36716 0.44449 0.0
N35 N 0.83759 0.31915 0.42142 0.0
C36 C 0.84717 0.34828 0.40696 0.0
C37 C 0.87589 0.3493 0.48395 0.0
C38 C 0.85544 0.31964 0.47005 0.0
C39 C 0.89028 0.41888 0.57694 0.0
O40 O 0.90989 0.40933 0.57239 0.0
H41 H 0.83674 0.35575 0.37125 0.0
H42 H 0.89314 0.35721 0.52088 0.0
O43 O 0.87632 0.42157 0.36726 0.0
H44 H 0.99687 0.43074 0.4304 0.0
H45 H 0.85373 0.29995 0.49383 0.0
Cu46 Cu 0.50449 0.87765 0.78782 0.0
N47 N 0.53107 0.91893 0.78278 0.0
N48 N 0.54262 0.96732 0.78101 0.0
C49 C 0.52525 0.93982 0.80765 0.0
C50 C 0.5607 0.96353 0.73902 0.0
C51 C 0.55336 0.93364 0.73984 0.0
O52 O 0.481 0.87212 0.86573 0.0
C53 C 0.46748 0.8461 0.6738 0.0
O54 O 0.46641 0.82095 0.69201 0.0
H55 H 0.50741 0.93431 0.84215 0.0
H56 H 0.56178 0.92293 0.70753 0.0
N57 N 0.5259 0.85651 0.7934 0.0
N58 N 0.54233 0.82417 0.7719 0.0
C59 C 0.52984 0.8401 0.74767 0.0
C60 C 0.5372 0.85142 0.8478 0.0
C61 C 0.54692 0.83112 0.83491 0.0
C62 C 0.47105 0.85018 0.90535 0.0
O63 O 0.47319 0.82626 0.89131 0.0
H64 H 0.52231 0.83858 0.69839 0.0
H65 H 0.53683 0.86057 0.89444 0.0
O66 O 0.48049 0.86942 0.70924 0.0
H67 H 0.57645 0.98057 0.70627 0.0
H68 H 0.55561 0.82135 0.86947 0.0
Cu69 Cu 0.65039 0.48986 0.13103 0.0
N70 N 0.63726 0.5181 0.12862 0.0
N71 N 0.60357 0.53413 0.12381 0.0
C72 C 0.60801 0.51024 0.12055 0.0
C73 C 0.6313 0.55816 0.13402 0.0
C74 C 0.65212 0.54816 0.13696 0.0
O75 O 0.63348 0.46641 0.2092 0.0
C76 C 0.64506 0.45609 1.01418 0.0
O77 O 0.67195 0.45951 1.02612 0.0
H78 H 0.59015 0.48718 0.11396 0.0
H79 H 0.67621 0.56172 0.1453 0.0
N80 N 0.69274 0.50716 0.13453 0.0
N81 N 0.74083 0.5225 0.10669 0.0
C82 C 0.71336 0.51766 0.08658 0.0
C83 C 0.70782 0.50566 0.18648 0.0
C84 C 0.7372 0.51495 0.16962 0.0
C85 C 0.63876 0.48087 0.26191 0.0
O86 O 0.65484 0.51042 0.2605 0.0
H87 H 0.70784 0.51984 0.0372 0.0
H88 H 0.69768 0.49614 0.23242 0.0
O89 O 0.63288 0.4656 0.05432 0.0
H90 H 0.63624 0.58126 0.13849 0.0
H91 H 0.75371 0.5135 0.2002 0.0
Cu92 Cu 0.17852 0.63424 0.45065 0.0
N93 N 0.13621 0.61492 0.45347 0.0
N94 N 0.08781 0.57823 0.4541 0.0
C95 C 0.11703 0.58502 0.44967 0.0
C96 C 0.08869 0.60496 0.46006 0.0
C97 C 0.11856 0.62752 0.45989 0.0
O98 O 0.19268 0.62877 0.53454 0.0
C99 C 0.17914 0.62386 0.3213 0.0
O100 O 0.1615 0.63584 0.3244 0.0
H101 H 0.1244 0.56867 0.44257 0.0
H102 H 0.1268 0.65143 0.46414 0.0
N103 N 0.19486 0.67581 0.44271 0.0
N104 N 0.22776 0.72338 0.41603 0.0
C105 C 0.21684 0.69405 0.40171 0.0
C106 C 0.19192 0.69423 0.48459 0.0
C107 C 0.21226 0.72365 0.46828 0.0
C108 C 0.18444 0.604 0.56393 0.0
O109 O 0.16836 0.57846 0.53321 0.0
H110 H 0.22618 0.68598 0.36513 0.0
H111 H 0.17731 0.68673 0.52628 0.0
O112 O 0.19034 0.62043 0.37371 0.0
H113 H 0.06914 0.60793 0.46502 0.0
H114 H 0.21623 0.74363 0.49423 0.0
Cu115 Cu 0.57108 0.16548 0.78627 0.0
N116 N 0.54597 0.12371 0.78684 0.0
N117 N 0.53246 0.07481 0.78883 0.0
C118 C 0.55488 0.10337 0.79924 0.0
C119 C 0.50858 0.07753 0.76882 0.0
C120 C 0.51692 0.10764 0.76808 0.0
O121 O 0.59551 0.17604 0.86476 0.0
C122 C 0.58014 0.16668 0.6548 0.0
O123 O 0.55049 0.15073 0.6572 0.0
H124 H 0.57767 0.10955 0.81393 0.0
H125 H 0.50325 0.11723 0.75181 0.0
N126 N 0.54858 0.18541 0.78388 0.0
N127 N 0.53616 0.22069 0.75975 0.0
C128 C 0.55627 0.21097 0.75107 0.0
C129 C 0.5224 0.17827 0.81352 0.0
C130 C 0.51471 0.19999 0.79883 0.0
C131 C 0.58217 0.17147 0.91893 0.0
O132 O 0.55279 0.16073 0.9195 0.0
H133 H 0.57595 0.22169 0.72037 0.0
H134 H 0.50978 0.15869 0.84374 0.0
O135 O 0.59495 0.17611 0.70729 0.0
H136 H 0.48712 0.05937 0.75211 0.0
H137 H 0.49503 0.20066 0.81628 0.0
Cu138 Cu 0.50313 0.63495 0.61064 0.0
N139 N 0.53161 0.62207 0.61343 0.0
N140 N 0.54792 0.58871 0.61805 0.0
C141 C 0.52382 0.59296 0.62111 0.0
C142 C 0.572 0.6164 0.60838 0.0
C143 C 0.56183 0.63702 0.60555 0.0
O144 O 0.47972 0.61791 0.53237 0.0
C145 C 0.46975 0.62997 0.72836 0.0
O146 O 0.47404 0.65713 0.71736 0.0
H147 H 0.50067 0.57508 0.62722 0.0
H148 H 0.57537 0.66104 0.59755 0.0
N149 N 0.52055 0.67709 0.60626 0.0
N150 N 0.53692 0.7253 0.63271 0.0
C151 C 0.53173 0.69794 0.65353 0.0
C152 C 0.51897 0.69191 0.55402 0.0
C153 C 0.52889 0.72138 0.57004 0.0
C154 C 0.49432 0.62312 0.47976 0.0
O155 O 0.524 0.63921 0.48132 0.0
H156 H 0.53423 0.69274 0.70295 0.0
H157 H 0.50906 0.6816 0.50845 0.0
O158 O 0.47866 0.61757 0.68743 0.0
H159 H 0.59525 0.62143 0.60414 0.0
H160 H 0.52763 0.73783 0.53915 0.0
Cu161 Cu 0.8923 0.48848 0.94576 0.0
N162 N 0.9338 0.5148 0.94468 0.0
N163 N 0.98274 0.52792 0.94682 0.0
C164 C 0.95404 0.50521 0.94036 0.0
C165 C 0.98047 0.553 0.95429 0.0
C166 C 0.95012 0.54478 0.95342 0.0
O167 O 0.88548 0.46302 0.87068 0.0
C168 C 0.86295 0.45247 0.06204 0.0
O169 O 0.83665 0.44867 0.0428 0.0
H170 H 0.94762 0.48183 0.93288 0.0
H171 H 0.94064 0.55942 0.96028 0.0
N172 N 0.8709 0.50969 0.94106 0.0
N173 N 0.83857 0.52603 0.96434 0.0
C174 C 0.85385 0.51256 0.98703 0.0
C175 C 0.86688 0.52267 0.88815 0.0
C176 C 0.84654 0.53231 0.90207 0.0
C177 C 0.86594 0.45574 0.82583 0.0
O178 O 0.84423 0.46245 0.83115 0.0
H179 H 0.85163 0.50388 0.03544 0.0
H180 H 0.87703 0.52383 0.84181 0.0
O181 O 0.88624 0.46676 1.02672 0.0
H182 H 0.99931 0.57547 0.96181 0.0
H183 H 0.83767 0.54241 0.8688 0.0
Cu184 Cu 0.42474 0.87099 0.28948 0.0
N185 N 0.44371 0.91308 0.29096 0.0
N186 N 0.47985 0.96137 0.28448 0.0
C187 C 0.47354 0.93239 0.28388 0.0
C188 C 0.45299 0.96022 0.29303 0.0
C189 C 0.43074 0.93039 0.29695 0.0
O190 O 0.43678 0.85917 0.21032 0.0
C191 C 0.43008 0.86657 0.4211 0.0
O192 O 0.41711 0.88333 0.41856 0.0
H193 H 0.49022 0.92532 0.27723 0.0
H194 H 0.40678 0.92191 0.30364 0.0
N195 N 0.38265 0.85409 0.28789 0.0
N196 N 0.33375 0.8223 0.30682 0.0
C197 C 0.3625 0.83073 0.32368 0.0
C198 C 0.36598 0.86075 0.24749 0.0
C199 C 0.33575 0.8411 0.25902 0.0
C200 C 0.43576 0.87201 0.15829 0.0
O201 O 0.42748 0.89259 0.16137 0.0
H202 H 0.36877 0.81951 0.35993 0.0
H203 H 0.3751 0.87838 0.21155 0.0
O204 O 0.43589 0.85783 0.36833 0.0
H205 H 0.44972 0.97954 0.29714 0.0
H206 H 0.31675 0.84063 0.23426 0.0
Cu207 Cu 0.57246 0.41549 0.63593 0.0
N208 N 0.54916 0.43444 0.63824 0.0
N209 N 0.53833 0.47187 0.63501 0.0
C210 C 0.56013 0.46422 0.62978 0.0
C211 C 0.51267 0.44583 0.64783 0.0
C212 C 0.51941 0.42275 0.64962 0.0
O213 O 0.59668 0.42949 0.55823 0.0
C214 C 0.58337 0.41935 0.76669 0.0
O215 O 0.55363 0.40503 0.7662 0.0
H216 H 0.58385 0.47999 0.62173 0.0
H217 H 0.50381 0.39922 0.65922 0.0
N218 N 0.54901 0.37345 0.63563 0.0
N219 N 0.53628 0.3255 0.65549 0.0
C220 C 0.55676 0.35481 0.66549 0.0
C221 C 0.52244 0.35543 0.60635 0.0
C222 C 0.51452 0.32585 0.61856 0.0
C223 C 0.58355 0.4219 0.50366 0.0
O224 O 0.55427 0.4032 0.50155 0.0
H225 H 0.5768 0.36283 0.69512 0.0
H226 H 0.50978 0.36321 0.57792 0.0
O227 O 0.59729 0.42683 0.71312 0.0
H228 H 0.4906 0.44362 0.65526 0.0
H229 H 0.49447 0.30613 0.60096 0.0
Cu230 Cu 0.18119 0.5555 0.95122 0.0
N231 N 0.13946 0.53128 0.94143 0.0
N232 N 0.09058 0.5183 0.93928 0.0
C233 C 0.11919 0.54077 0.94841 0.0
C234 C 0.09291 0.49369 0.92577 0.0
C235 C 0.12315 0.50178 0.92718 0.0
O236 O 0.19581 0.57711 0.86978 0.0
C237 C 0.20692 0.59323 0.06845 0.0
O238 O 0.23396 0.59727 0.05581 0.0
H239 H 0.12528 0.56365 0.9609 0.0
H240 H 0.13253 0.48719 0.91839 0.0
N241 N 0.19921 0.53129 0.95901 0.0
N242 N 0.23201 0.51557 0.98373 0.0
C243 C 0.2191 0.53185 1.00302 0.0
C244 C 0.1994 0.51377 0.911 0.0
C245 C 0.21963 0.50415 0.92594 0.0
C246 C 0.18666 0.59367 0.8432 0.0
O247 O 0.16947 0.60133 0.87593 0.0
H248 H 0.2256 0.54542 0.04603 0.0
H249 H 0.18715 0.50998 0.86616 0.0
O250 O 0.18527 0.57884 1.0289 0.0
H251 H 0.07417 0.47158 0.91466 0.0
H252 H 0.22597 0.4911 0.89526 0.0
Cu253 Cu 0.64698 0.15828 0.28872 0.0
N254 N 0.63149 0.11693 0.27862 0.0
N255 N 0.59648 0.0682 0.27161 0.0
C256 C 0.60176 0.09681 0.2747 0.0
C257 C 0.62406 0.07045 0.27434 0.0
C258 C 0.64566 0.10058 0.27854 0.0
O259 O 0.63272 0.17156 0.21459 0.0
C260 C 0.63451 0.18531 0.40039 0.0
O261 O 0.65088 0.21203 0.37425 0.0
H262 H 0.58435 0.1031 0.27697 0.0
H263 H 0.66985 0.10979 0.28291 0.0
N264 N 0.68953 0.17899 0.29121 0.0
N265 N 0.73723 0.21429 0.31244 0.0
C266 C 0.70784 0.20287 0.32814 0.0
C267 C 0.70826 0.17495 0.25192 0.0
C268 C 0.73767 0.19678 0.26467 0.0
C269 C 0.63916 0.16631 0.15851 0.0
O270 O 0.65584 0.15337 0.15349 0.0
H271 H 0.69995 0.21238 0.36447 0.0
H272 H 0.70109 0.15764 0.21564 0.0
O273 O 0.63026 0.16184 0.37039 0.0
H274 H 0.6283 0.05166 0.27412 0.0
H275 H 0.75778 0.1997 0.24057 0.0
C276 C 0.43546 0.57202 0.35804 0.0
C277 C 0.44947 0.58415 0.29851 0.0
C278 C 0.4496 0.58535 0.41646 0.0
C279 C 0.47854 0.61102 0.41762 0.0
H280 H 0.41355 0.55174 0.35962 0.0
H281 H 0.43817 0.57485 0.461 0.0
S282 S 0.52437 0.65243 0.27503 0.0
N283 N 0.49337 0.62412 0.24437 0.0
N284 N 0.52012 0.64899 0.35389 0.0
C285 C 0.49246 0.62386 0.35839 0.0
C286 C 0.47787 0.61051 0.29892 0.0
C287 C 0.86123 0.43571 0.64775 0.0
C288 C 0.8832 0.42674 0.6413 0.0
C289 C 0.85493 0.44393 0.70789 0.0
C290 C 0.87043 0.44366 0.76412 0.0
H291 H 0.84899 0.43676 0.60592 0.0
H292 H 0.83832 0.45132 0.70986 0.0
S293 S 0.92894 0.42035 0.77446 0.0
N294 N 0.91963 0.41692 0.69757 0.0
N295 N 0.9078 0.43227 0.80969 0.0
C296 C 0.89189 0.43398 0.75862 0.0
C297 C 0.89827 0.42557 0.69756 0.0
C298 C 0.45482 0.87767 0.98034 0.0
C299 C 0.46013 0.85349 0.96964 0.0
C300 C 0.44683 0.88311 0.04119 0.0
C301 C 0.44393 0.86478 0.0946 0.0
H302 H 0.45713 0.89287 0.94146 0.0
H303 H 0.44328 0.90224 0.04629 0.0
S304 S 0.45457 0.79792 0.09265 0.0
N305 N 0.46124 0.81048 1.01777 0.0
N306 N 0.44631 0.82086 0.13237 0.0
C307 C 0.44876 0.84023 0.08468 0.0
C308 C 0.45675 0.83452 1.02225 0.0
C309 C 0.60093 0.43626 0.32522 0.0
C310 C 0.62674 0.46506 0.32402 0.0
C311 C 0.58766 0.42214 0.38368 0.0
C312 C 0.59997 0.43602 0.44321 0.0
H313 H 0.59028 0.42495 0.2807 0.0
H314 H 0.56727 0.40033 0.38212 0.0
S315 S 0.66877 0.51048 0.46645 0.0
N316 N 0.66511 0.50633 0.3876 0.0
N317 N 0.64035 0.47964 0.4972 0.0
C318 C 0.6265 0.46428 0.4427 0.0
C319 C 0.63979 0.47884 0.38319 0.0
C320 C 0.18994 0.57953 0.66441 0.0
C321 C 0.189 0.60389 0.63483 0.0
C322 C 0.19098 0.57736 0.73179 0.0
C323 C 0.19027 0.59904 0.77245 0.0
H324 H 0.18934 0.56169 0.6353 0.0
H325 H 0.19088 0.55774 0.75214 0.0
S326 S 0.18895 0.66783 0.71951 0.0
N327 N 0.18885 0.65096 0.6518 0.0
N328 N 0.18977 0.64627 0.77806 0.0
C329 C 0.19007 0.62387 0.74354 0.0
C330 C 0.18972 0.62647 0.67492 0.0
C331 C 0.63917 0.17218 0.03886 0.0
C332 C 0.62628 0.17192 0.09901 0.0
C333 C 0.62566 0.17363 0.9809 0.0
C334 C 0.59844 0.17448 0.98058 0.0
H335 H 0.65956 0.1705 0.0363 0.0
H336 H 0.63597 0.17276 0.93604 0.0
S337 S 0.55682 0.17705 0.12493 0.0
N338 N 0.58585 0.17485 0.15457 0.0
N339 N 0.56028 0.17733 0.0459 0.0
C340 C 0.58602 0.17562 0.04043 0.0
C341 C 0.59998 0.17445 0.09952 0.0
C342 C 0.30876 0.52227 0.99897 0.0
C343 C 0.31039 0.51675 0.06476 0.0
C344 C 0.28289 0.5214 0.97276 0.0
C345 C 0.258 0.51564 1.01168 0.0
H346 H 0.32752 0.52693 0.96753 0.0
H347 H 0.28253 0.52578 0.92182 0.0
S348 S 0.25141 0.50064 0.18709 0.0
N349 N 0.28515 0.5056 0.1684 0.0
N350 N 0.23669 0.50466 0.11921 0.0
C351 C 0.25949 0.51046 0.07764 0.0
C352 C 0.28562 0.51077 0.10415 0.0
C353 C 0.7913 0.26971 0.43272 0.0
C354 C 0.81254 0.29296 0.39323 0.0
C355 C 0.7665 0.24417 0.40604 0.0
C356 C 0.76262 0.2407 0.33901 0.0
H357 H 0.79369 0.27156 0.48456 0.0
H358 H 0.75045 0.2268 0.43783 0.0
S359 S 0.81191 0.29503 0.21499 0.0
N360 N 0.82797 0.31097 0.28403 0.0
N361 N 0.78172 0.26267 0.23385 0.0
C362 C 0.78378 0.26367 0.29908 0.0
C363 C 0.80864 0.28991 0.32622 0.0
C364 C 0.53223 0.77169 0.76784 0.0
C365 C 0.54468 0.80049 0.73982 0.0
C366 C 0.53109 0.74741 0.73393 0.0
C367 C 0.54268 0.7512 0.671 0.0
H368 H 0.52197 0.76761 0.81506 0.0
H369 H 0.51971 0.72531 0.75599 0.0
S370 S 0.58219 0.82354 0.58117 0.0
N371 N 0.57147 0.83226 0.64891 0.0
N372 N 0.57056 0.78712 0.58582 0.0
C373 C 0.55701 0.78046 0.64443 0.0
C374 C 0.55766 0.80497 0.67861 0.0
C375 C 0.76219 0.51615 1.00462 0.0
C376 C 0.76649 0.52764 0.06773 0.0
C377 C 0.78619 0.51685 0.96988 0.0
C378 C 0.81519 0.52869 0.99729 0.0
H379 H 0.7399 0.50525 0.98297 0.0
H380 H 0.78175 0.50678 0.92249 0.0
S381 S 0.83967 0.56563 0.15603 0.0
N382 N 0.80324 0.5548 0.1523 0.0
N383 N 0.84774 0.55471 0.08779 0.0
C384 C 0.82018 0.5415 0.05868 0.0
C385 C 0.79601 0.54136 0.09364 0.0
C386 C 0.27663 0.77039 0.42716 0.0
C387 C 0.25372 0.74867 0.38773 0.0
C388 C 0.30285 0.79433 0.40038 0.0
C389 C 0.30666 0.79772 0.33335 0.0
H390 H 0.27456 0.76841 0.47903 0.0
H391 H 0.3202 0.81045 0.43215 0.0
S392 S 0.25318 0.74717 0.20948 0.0
N393 N 0.2365 0.73209 0.2786 0.0
N394 N 0.28552 0.77746 0.22821 0.0
C395 C 0.28376 0.77641 0.29346 0.0
C396 C 0.25736 0.75176 0.3207 0.0
C397 C 0.50969 0.24732 0.72019 0.0
C398 C 0.53688 0.24721 0.73274 0.0
C399 C 0.5097 0.2728 0.69463 0.0
C400 C 0.5369 0.29931 0.68038 0.0
H401 H 0.48811 0.22746 0.72978 0.0
H402 H 0.48817 0.27182 0.68686 0.0
S403 S 0.61444 0.31078 0.70295 0.0
N404 N 0.59189 0.27631 0.72965 0.0
N405 N 0.59185 0.32341 0.67831 0.0
C406 C 0.56429 0.29942 0.69181 0.0
C407 C 0.56429 0.27358 0.71861 0.0
C408 C 0.52412 0.5105 0.07028 0.0
C409 C 0.51597 0.52764 0.1098 0.0
C410 C 0.55291 0.51322 0.07437 0.0
C411 C 0.57481 0.53323 0.11805 0.0
H412 H 0.50816 0.49495 0.03558 0.0
H413 H 0.55814 0.49955 0.04295 0.0
S414 S 0.56435 0.58189 0.23526 0.0
N415 N 0.53184 0.56449 0.19604 0.0
N416 N 0.58601 0.5697 0.2033 0.0
C417 C 0.56706 0.55058 0.1578 0.0
C418 C 0.53764 0.54775 0.1538 0.0
C419 C 1.00833 0.51636 0.4195 0.0
C420 C 1.00748 0.49093 0.44814 0.0
C421 C 1.03462 0.54472 0.42151 0.0
C422 C 0.0611 0.54879 0.45227 0.0
H423 H 0.98863 0.51422 0.39451 0.0
H424 H 1.03436 0.56356 0.39807 0.0
S425 S 0.06971 0.49011 0.54037 0.0
N426 N 1.03481 0.4721 0.51187 0.0
N427 N 0.08414 0.52534 0.51577 0.0
C428 C 0.0604 0.52365 0.48205 0.0
C429 C 1.03363 0.49477 0.47996 0.0
C430 C 0.56259 0.04893 0.7785 0.0
C431 C 0.5348 0.04769 0.7913 0.0
C432 C 0.56501 0.02274 0.77684 0.0
C433 C 0.53977 0.99406 0.78765 0.0
H434 H 0.58257 0.07024 0.76793 0.0
H435 H 0.58687 0.02497 0.7664 0.0
S436 S 0.46189 0.97852 0.82591 0.0
N437 N 0.48185 1.0155 0.81895 0.0
N438 N 0.48583 0.96622 0.81196 0.0
C439 C 0.51187 0.99252 0.80154 0.0
C440 C 0.50954 1.0193 0.80414 0.0
C441 C 0.52697 0.53813 0.66667 0.0
C442 C 0.54713 0.56013 0.62339 0.0
C443 C 0.52437 0.50952 0.67037 0.0
C444 C 0.54179 0.50167 0.63085 0.0
H445 H 0.51311 0.54314 0.6981 0.0
H446 H 0.50872 0.49346 0.70481 0.0
S447 S 0.59644 0.55039 0.50621 0.0
N448 N 0.58398 0.57173 0.5384 0.0
N449 N 0.579 0.5179 0.54495 0.0
C450 C 0.56202 0.52343 0.58718 0.0
C451 C 0.56472 0.55266 0.58358 0.0
C452 C 0.063 0.54588 0.91691 0.0
C453 C 0.06345 0.52054 0.94252 0.0
C454 C 0.03669 0.54833 0.91903 0.0
C455 C 1.0099 0.52557 0.94709 0.0
H456 H 0.083 0.56367 0.894 0.0
H457 H 0.03711 0.56787 0.89747 0.0
S458 S 1.00065 0.45666 1.02862 0.0
N459 N 1.03572 0.47354 1.0014 0.0
N460 N 0.98647 0.47824 1.00648 0.0
C461 C 1.01042 0.50059 0.97473 0.0
C462 C 0.03713 0.49804 0.97214 0.0
C463 C 0.53455 0.98934 0.3094 0.0
C464 C 0.5092 0.98792 0.27851 0.0
C465 C 0.56309 1.01542 0.30608 0.0
C466 C 0.56737 0.041 0.27149 0.0
H467 H 0.5321 0.97041 0.33768 0.0
H468 H 0.58176 1.01583 0.33217 0.0
S469 S 0.5091 0.04717 0.17491 0.0
N470 N 0.49075 1.01329 0.20769 0.0
N471 N 0.54435 0.06212 0.20078 0.0
C472 C 0.5424 0.03942 0.23849 0.0
C473 C 0.51334 1.01295 0.24217 0.0
C474 C 0.4468 0.58345 0.7963 0.0
C475 C 0.45755 0.6146 0.79097 0.0
C476 C 0.43788 0.56857 0.85565 0.0
C477 C 0.43964 0.58419 0.91264 0.0
H478 H 0.44563 0.57041 0.7543 0.0
H479 H 0.43019 0.54464 0.85685 0.0
S480 S 0.46506 0.66581 0.92495 0.0
N481 N 0.46845 0.66049 0.84777 0.0
N482 N 0.45192 0.6325 0.95959 0.0
C483 C 0.44972 0.61525 0.908 0.0
C484 C 0.45854 0.63042 0.84717 0.0
C485 C 0.89637 0.42796 0.19742 0.0
C486 C 0.87814 0.42503 0.25085 0.0
C487 C 0.89088 0.43635 0.13676 0.0
C488 C 0.86659 0.4417 0.12631 0.0
H489 H 0.91546 0.4242 0.20251 0.0
H490 H 0.90594 0.4387 0.09765 0.0
S491 S 0.81151 0.43646 0.2496 0.0
N492 N 0.83448 0.42784 0.28914 0.0
N493 N 0.82383 0.44318 0.17459 0.0
C494 C 0.84778 0.43837 0.17894 0.0
C495 C 0.85368 0.43023 0.24129 0.0
C496 C 0.44808 0.87138 0.59975 0.0
C497 C 0.45583 0.84877 0.60972 0.0
C498 C 0.43943 0.87646 0.53895 0.0
C499 C 0.43857 0.85949 0.48489 0.0
H500 H 0.44891 0.88555 0.63929 0.0
H501 H 0.43396 0.89436 0.53428 0.0
S502 S 0.45635 0.7972 0.4849 0.0
N503 N 0.46155 0.80875 0.56041 0.0
N504 N 0.44566 0.8186 0.44569 0.0
C505 C 0.44595 0.83654 0.49409 0.0
C506 C 0.4544 0.83107 0.55655 0.0
C507 C 0.58397 0.42561 0.88581 0.0
C508 C 0.59981 0.42729 0.82913 0.0
C509 C 0.59868 0.43407 0.94545 0.0
C510 C 0.62983 0.44424 0.95133 0.0
H511 H 0.56003 0.41834 0.88415 0.0
H512 H 0.5855 0.43301 0.98723 0.0
S513 S 0.68152 0.45125 0.81832 0.0
N514 N 0.64829 0.43882 0.78303 0.0
N515 N 0.67596 0.45451 0.89544 0.0
C516 C 0.64586 0.44514 0.89544 0.0
C517 C 0.63087 0.4368 0.83431 0.0
C518 C 0.21976 0.60793 0.1852 0.0
C519 C 0.20035 0.60235 0.13197 0.0
C520 C 0.21261 0.61424 0.24667 0.0
C521 C 0.18598 0.61561 0.25717 0.0
H522 H 0.24039 0.60689 0.17972 0.0
H523 H 0.22825 0.61842 0.286 0.0
S524 S 0.12748 0.60278 0.13415 0.0
N525 N 0.15327 0.59872 0.09447 0.0
N526 N 0.13999 0.61056 0.2089 0.0
C527 C 0.1665 0.61023 0.20427 0.0
C528 C 0.17363 0.60363 0.14207 0.0
C529 C 0.58154 0.15075 0.54236 0.0
C530 C 0.5953 0.1723 0.59139 0.0
C531 C 0.59441 0.15528 0.481 0.0
C532 C 0.62122 0.18192 0.46548 0.0
H533 H 0.5607 0.12995 0.5516 0.0
H534 H 0.58304 0.13783 0.4452 0.0
S535 S 0.66602 0.24572 0.5763 0.0
N536 N 0.63729 0.22131 0.62048 0.0
N537 N 0.6612 0.23027 0.50437 0.0
C538 C 0.63513 0.20387 0.51382 0.0
C539 C 0.6223 0.19892 0.57698 0.0
loop_
_geom_bond_atom_site_label_1
_geom_bond_atom_site_label_2
_geom_bond_distance
_geom_bond_site_symmetry_2
_ccdc_geom_bond_type
Cu0 N1 1.999 . S
Cu0 O6 1.974 . S
Cu0 N11 1.985 . S
Cu0 O20 1.959 1_554 S
N1 Cu0 1.999 . S
N1 C3 1.263 . S
N1 C5 1.389 . S
N2 C3 1.358 . S
N2 C4 1.400 . S
C3 N1 1.263 . S
C3 N2 1.358 . S
C3 H9 0.930 . S
C4 N2 1.400 . S
C4 C5 1.351 . S
C4 H21 0.930 . S
C5 N1 1.389 . S
C5 C4 1.351 . S
C5 H10 0.930 . S
O6 Cu0 1.974 . S
O6 C16 1.282 . S
C7 O8 1.261 . S
C7 O20 1.251 . S
O8 C7 1.261 . S
H9 C3 0.930 . S
H10 C5 0.930 . S
N11 Cu0 1.985 . S
N11 C13 1.335 . S
N11 C14 1.390 . S
N12 C13 1.345 . S
N12 C15 1.336 . S
C13 N11 1.335 . S
C13 N12 1.345 . S
C13 H18 0.930 . S
C14 N11 1.390 . S
C14 C15 1.346 . S
C14 H19 0.930 . S
C15 N12 1.336 . S
C15 C14 1.346 . S
C15 H22 0.929 . S
C16 O6 1.282 . S
C16 O17 1.216 . S
O17 C16 1.216 . S
H18 C13 0.930 . S
H19 C14 0.930 . S
O20 Cu0 1.959 1_556 S
O20 C7 1.251 . S
H21 C4 0.930 . S
H22 C15 0.929 . S
Cu23 N24 1.999 . S
Cu23 O29 1.974 . S
Cu23 N34 1.985 . S
Cu23 O43 1.959 . S
N24 Cu23 1.999 . S
N24 C26 1.263 . S
N24 C28 1.389 . S
N25 C26 1.358 . S
N25 C27 1.400 . S
C26 N24 1.263 . S
C26 N25 1.358 . S
C26 H32 0.930 . S
C27 N25 1.400 . S
C27 C28 1.351 . S
C27 H44 0.930 . S
C28 N24 1.389 . S
C28 C27 1.351 . S
C28 H33 0.930 . S
O29 Cu23 1.974 . S
O29 C39 1.282 . S
C30 O31 1.261 . S
C30 O43 1.251 . S
O31 C30 1.261 . S
H32 C26 0.930 . S
H33 C28 0.930 . S
N34 Cu23 1.985 . S
N34 C36 1.335 . S
N34 C37 1.390 . S
N35 C36 1.345 . S
N35 C38 1.336 . S
C36 N34 1.335 . S
C36 N35 1.345 . S
C36 H41 0.930 . S
C37 N34 1.390 . S
C37 C38 1.346 . S
C37 H42 0.930 . S
C38 N35 1.336 . S
C38 C37 1.346 . S
C38 H45 0.929 . S
C39 O29 1.282 . S
C39 O40 1.216 . S
O40 C39 1.216 . S
H41 C36 0.930 . S
H42 C37 0.930 . S
O43 Cu23 1.959 . S
O43 C30 1.251 . S
H44 C27 0.930 . S
H45 C38 0.929 . S
Cu46 N47 1.999 . S
Cu46 O52 1.974 . S
Cu46 N57 1.985 . S
Cu46 O66 1.959 . S
N47 Cu46 1.999 . S
N47 C49 1.263 . S
N47 C51 1.389 . S
N48 C49 1.358 . S
N48 C50 1.400 . S
C49 N47 1.263 . S
C49 N48 1.358 . S
C49 H55 0.930 . S
C50 N48 1.400 . S
C50 C51 1.351 . S
C50 H67 0.930 . S
C51 N47 1.389 . S
C51 C50 1.351 . S
C51 H56 0.930 . S
O52 Cu46 1.974 . S
O52 C62 1.282 . S
C53 O54 1.261 . S
C53 O66 1.251 . S
O54 C53 1.261 . S
H55 C49 0.930 . S
H56 C51 0.930 . S
N57 Cu46 1.985 . S
N57 C59 1.335 . S
N57 C60 1.390 . S
N58 C59 1.345 . S
N58 C61 1.336 . S
C59 N57 1.335 . S
C59 N58 1.345 . S
C59 H64 0.930 . S
C60 N57 1.390 . S
C60 C61 1.346 . S
C60 H65 0.930 . S
C61 N58 1.336 . S
C61 C60 1.346 . S
C61 H68 0.929 . S
C62 O52 1.282 . S
C62 O63 1.216 . S
O63 C62 1.216 . S
H64 C59 0.930 . S
H65 C60 0.930 . S
O66 Cu46 1.959 . S
O66 C53 1.251 . S
H67 C50 0.930 . S
H68 C61 0.929 . S
Cu69 N70 1.999 . S
Cu69 O75 1.974 . S
Cu69 N80 1.985 . S
Cu69 O89 1.959 1_554 S
N70 Cu69 1.999 . S
N70 C72 1.263 . S
N70 C74 1.389 . S
N71 C72 1.358 . S
N71 C73 1.400 . S
C72 N70 1.263 . S
C72 N71 1.358 . S
C72 H78 0.930 . S
C73 N71 1.400 . S
C73 C74 1.351 . S
C73 H90 0.930 . S
C74 N70 1.389 . S
C74 C73 1.351 . S
C74 H79 0.930 . S
O75 Cu69 1.974 . S
O75 C85 1.282 . S
C76 O77 1.261 . S
C76 O89 1.251 . S
O77 C76 1.261 . S
H78 C72 0.930 . S
H79 C74 0.930 . S
N80 Cu69 1.985 . S
N80 C82 1.335 . S
N80 C83 1.390 . S
N81 C82 1.345 . S
N81 C84 1.336 . S
C82 N80 1.335 . S
C82 N81 1.345 . S
C82 H87 0.930 . S
C83 N80 1.390 . S
C83 C84 1.346 . S
C83 H88 0.930 . S
C84 N81 1.336 . S
C84 C83 1.346 . S
C84 H91 0.929 . S
C85 O75 1.282 . S
C85 O86 1.216 . S
O86 C85 1.216 . S
H87 C82 0.930 . S
H88 C83 0.930 . S
O89 Cu69 1.959 1_556 S
O89 C76 1.251 . S
H90 C73 0.930 . S
H91 C84 0.929 . S
Cu92 N93 1.999 . S
Cu92 O98 1.974 . S
Cu92 N103 1.985 . S
Cu92 O112 1.959 . S
N93 Cu92 1.999 . S
N93 C95 1.263 . S
N93 C97 1.389 . S
N94 C95 1.358 . S
N94 C96 1.400 . S
C95 N93 1.263 . S
C95 N94 1.358 . S
C95 H101 0.930 . S
C96 N94 1.400 . S
C96 C97 1.351 . S
C96 H113 0.930 . S
C97 N93 1.389 . S
C97 C96 1.351 . S
C97 H102 0.930 . S
O98 Cu92 1.974 . S
O98 C108 1.282 . S
C99 O100 1.261 . S
C99 O112 1.251 . S
O100 C99 1.261 . S
H101 C95 0.930 . S
H102 C97 0.930 . S
N103 Cu92 1.985 . S
N103 C105 1.335 . S
N103 C106 1.390 . S
N104 C105 1.345 . S
N104 C107 1.336 . S
C105 N103 1.335 . S
C105 N104 1.345 . S
C105 H110 0.930 . S
C106 N103 1.390 . S
C106 C107 1.346 . S
C106 H111 0.930 . S
C107 N104 1.336 . S
C107 C106 1.346 . S
C107 H114 0.929 . S
C108 O98 1.282 . S
C108 O109 1.216 . S
O109 C108 1.216 . S
H110 C105 0.930 . S
H111 C106 0.930 . S
O112 Cu92 1.959 . S
O112 C99 1.251 . S
H113 C96 0.930 . S
H114 C107 0.929 . S
Cu115 N116 1.999 . S
Cu115 O121 1.974 . S
Cu115 N126 1.985 . S
Cu115 O135 1.959 . S
N116 Cu115 1.999 . S
N116 C118 1.263 . S
N116 C120 1.389 . S
N117 C118 1.358 . S
N117 C119 1.400 . S
C118 N116 1.263 . S
C118 N117 1.358 . S
C118 H124 0.930 . S
C119 N117 1.400 . S
C119 C120 1.351 . S
C119 H136 0.930 . S
C120 N116 1.389 . S
C120 C119 1.351 . S
C120 H125 0.930 . S
O121 Cu115 1.974 . S
O121 C131 1.282 . S
C122 O123 1.261 . S
C122 O135 1.251 . S
O123 C122 1.261 . S
H124 C118 0.930 . S
H125 C120 0.930 . S
N126 Cu115 1.985 . S
N126 C128 1.335 . S
N126 C129 1.390 . S
N127 C128 1.345 . S
N127 C130 1.336 . S
C128 N126 1.335 . S
C128 N127 1.345 . S
C128 H133 0.930 . S
C129 N126 1.390 . S
C129 C130 1.346 . S
C129 H134 0.930 . S
C130 N127 1.336 . S
C130 C129 1.346 . S
C130 H137 0.929 . S
C131 O121 1.282 . S
C131 O132 1.216 . S
O132 C131 1.216 . S
H133 C128 0.930 . S
H134 C129 0.930 . S
O135 Cu115 1.959 . S
O135 C122 1.251 . S
H136 C119 0.930 . S
H137 C130 0.929 . S
Cu138 N139 1.999 . S
Cu138 O144 1.974 . S
Cu138 N149 1.985 . S
Cu138 O158 1.959 . S
N139 Cu138 1.999 . S
N139 C141 1.263 . S
N139 C143 1.389 . S
N140 C141 1.358 . S
N140 C142 1.400 . S
C141 N139 1.263 . S
C141 N140 1.358 . S
C141 H147 0.930 . S
C142 N140 1.400 . S
C142 C143 1.351 . S
C142 H159 0.930 . S
C143 N139 1.389 . S
C143 C142 1.351 . S
C143 H148 0.930 . S
O144 Cu138 1.974 . S
O144 C154 1.282 . S
C145 O146 1.261 . S
C145 O158 1.251 . S
O146 C145 1.261 . S
H147 C141 0.930 . S
H148 C143 0.930 . S
N149 Cu138 1.985 . S
N149 C151 1.335 . S
N149 C152 1.390 . S
N150 C151 1.345 . S
N150 C153 1.336 . S
C151 N149 1.335 . S
C151 N150 1.345 . S
C151 H156 0.930 . S
C152 N149 1.390 . S
C152 C153 1.346 . S
C152 H157 0.930 . S
C153 N150 1.336 . S
C153 C152 1.346 . S
C153 H160 0.929 . S
C154 O144 1.282 . S
C154 O155 1.216 . S
O155 C154 1.216 . S
H156 C151 0.930 . S
H157 C152 0.930 . S
O158 Cu138 1.959 . S
O158 C145 1.251 . S
H159 C142 0.930 . S
H160 C153 0.929 . S
Cu161 N162 1.999 . S
Cu161 O167 1.974 . S
Cu161 N172 1.985 . S
Cu161 O181 1.959 1_556 S
N162 Cu161 1.999 . S
N162 C164 1.263 . S
N162 C166 1.389 . S
N163 C164 1.358 . S
N163 C165 1.400 . S
C164 N162 1.263 . S
C164 N163 1.358 . S
C164 H170 0.930 . S
C165 N163 1.400 . S
C165 C166 1.351 . S
C165 H182 0.930 . S
C166 N162 1.389 . S
C166 C165 1.351 . S
C166 H171 0.930 . S
O167 Cu161 1.974 . S
O167 C177 1.282 . S
C168 O169 1.261 . S
C168 O181 1.251 . S
O169 C168 1.261 . S
H170 C164 0.930 . S
H171 C166 0.930 . S
N172 Cu161 1.985 . S
N172 C174 1.335 . S
N172 C175 1.390 . S
N173 C174 1.345 . S
N173 C176 1.336 . S
C174 N172 1.335 . S
C174 N173 1.345 . S
C174 H179 0.930 . S
C175 N172 1.390 . S
C175 C176 1.346 . S
C175 H180 0.930 . S
C176 N173 1.336 . S
C176 C175 1.346 . S
C176 H183 0.929 . S
C177 O167 1.282 . S
C177 O178 1.216 . S
O178 C177 1.216 . S
H179 C174 0.930 . S
H180 C175 0.930 . S
O181 Cu161 1.959 1_554 S
O181 C168 1.251 . S
H182 C165 0.930 . S
H183 C176 0.929 . S
Cu184 N185 1.999 . S
Cu184 O190 1.974 . S
Cu184 N195 1.985 . S
Cu184 O204 1.959 . S
N185 Cu184 1.999 . S
N185 C187 1.263 . S
N185 C189 1.389 . S
N186 C187 1.358 . S
N186 C188 1.400 . S
C187 N185 1.263 . S
C187 N186 1.358 . S
C187 H193 0.930 . S
C188 N186 1.400 . S
C188 C189 1.351 . S
C188 H205 0.930 . S
C189 N185 1.389 . S
C189 C188 1.351 . S
C189 H194 0.930 . S
O190 Cu184 1.974 . S
O190 C200 1.282 . S
C191 O192 1.261 . S
C191 O204 1.251 . S
O192 C191 1.261 . S
H193 C187 0.930 . S
H194 C189 0.930 . S
N195 Cu184 1.985 . S
N195 C197 1.335 . S
N195 C198 1.390 . S
N196 C197 1.345 . S
N196 C199 1.336 . S
C197 N195 1.335 . S
C197 N196 1.345 . S
C197 H202 0.930 . S
C198 N195 1.390 . S
C198 C199 1.346 . S
C198 H203 0.930 . S
C199 N196 1.336 . S
C199 C198 1.346 . S
C199 H206 0.929 . S
C200 O190 1.282 . S
C200 O201 1.216 . S
O201 C200 1.216 . S
H202 C197 0.930 . S
H203 C198 0.930 . S
O204 Cu184 1.959 . S
O204 C191 1.251 . S
H205 C188 0.930 . S
H206 C199 0.929 . S
Cu207 N208 1.999 . S
Cu207 O213 1.974 . S
Cu207 N218 1.985 . S
Cu207 O227 1.959 . S
N208 Cu207 1.999 . S
N208 C210 1.263 . S
N208 C212 1.389 . S
N209 C210 1.358 . S
N209 C211 1.400 . S
C210 N208 1.263 . S
C210 N209 1.358 . S
C210 H216 0.930 . S
C211 N209 1.400 . S
C211 C212 1.351 . S
C211 H228 0.930 . S
C212 N208 1.389 . S
C212 C211 1.351 . S
C212 H217 0.930 . S
O213 Cu207 1.974 . S
O213 C223 1.282 . S
C214 O215 1.261 . S
C214 O227 1.251 . S
O215 C214 1.261 . S
H216 C210 0.930 . S
H217 C212 0.930 . S
N218 Cu207 1.985 . S
N218 C220 1.335 . S
N218 C221 1.390 . S
N219 C220 1.345 . S
N219 C222 1.336 . S
C220 N218 1.335 . S
C220 N219 1.345 . S
C220 H225 0.930 . S
C221 N218 1.390 . S
C221 C222 1.346 . S
C221 H226 0.930 . S
C222 N219 1.336 . S
C222 C221 1.346 . S
C222 H229 0.929 . S
C223 O213 1.282 . S
C223 O224 1.216 . S
O224 C223 1.216 . S
H225 C220 0.930 . S
H226 C221 0.930 . S
O227 Cu207 1.959 . S
O227 C214 1.251 . S
H228 C211 0.930 . S
H229 C222 0.929 . S
Cu230 N231 1.999 . S
Cu230 O236 1.974 . S
Cu230 N241 1.985 . S
Cu230 O250 1.959 1_556 S
N231 Cu230 1.999 . S
N231 C233 1.263 . S
N231 C235 1.389 . S
N232 C233 1.358 . S
N232 C234 1.400 . S
C233 N231 1.263 . S
C233 N232 1.358 . S
C233 H239 0.930 . S
C234 N232 1.400 . S
C234 C235 1.351 . S
C234 H251 0.930 . S
C235 N231 1.389 . S
C235 C234 1.351 . S
C235 H240 0.930 . S
O236 Cu230 1.974 . S
O236 C246 1.282 . S
C237 O238 1.261 . S
C237 O250 1.251 . S
O238 C237 1.261 . S
H239 C233 0.930 . S
H240 C235 0.930 . S
N241 Cu230 1.985 . S
N241 C243 1.335 . S
N241 C244 1.390 . S
N242 C243 1.345 . S
N242 C245 1.336 . S
C243 N241 1.335 . S
C243 N242 1.345 . S
C243 H248 0.930 . S
C244 N241 1.390 . S
C244 C245 1.346 . S
C244 H249 0.930 . S
C245 N242 1.336 . S
C245 C244 1.346 . S
C245 H252 0.929 . S
C246 O236 1.282 . S
C246 O247 1.216 . S
O247 C246 1.216 . S
H248 C243 0.930 . S
H249 C244 0.930 . S
O250 Cu230 1.959 1_554 S
O250 C237 1.251 . S
H251 C234 0.930 . S
H252 C245 0.929 . S
Cu253 N254 1.999 . S
Cu253 O259 1.974 . S
Cu253 N264 1.985 . S
Cu253 O273 1.959 . S
N254 Cu253 1.999 . S
N254 C256 1.263 . S
N254 C258 1.389 . S
N255 C256 1.358 . S
N255 C257 1.400 . S
C256 N254 1.263 . S
C256 N255 1.358 . S
C256 H262 0.930 . S
C257 N255 1.400 . S
C257 C258 1.351 . S
C257 H274 0.930 . S
C258 N254 1.389 . S
C258 C257 1.351 . S
C258 H263 0.930 . S
O259 Cu253 1.974 . S
O259 C269 1.282 . S
C260 O261 1.261 . S
C260 O273 1.251 . S
O261 C260 1.261 . S
H262 C256 0.930 . S
H263 C258 0.930 . S
N264 Cu253 1.985 . S
N264 C266 1.335 . S
N264 C267 1.390 . S
N265 C266 1.345 . S
N265 C268 1.336 . S
C266 N264 1.335 . S
C266 N265 1.345 . S
C266 H271 0.930 . S
C267 N264 1.390 . S
C267 C268 1.346 . S
C267 H272 0.930 . S
C268 N265 1.336 . S
C268 C267 1.346 . S
C268 H275 0.929 . S
C269 O259 1.282 . S
C269 O270 1.216 . S
O270 C269 1.216 . S
H271 C266 0.930 . S
H272 C267 0.930 . S
O273 Cu253 1.959 . S
O273 C260 1.251 . S
H274 C257 0.930 . S
H275 C268 0.929 . S
C276 C277 1.369 . S
C276 C278 1.419 . S
C276 H280 0.930 . S
C277 C276 1.369 . S
C277 C286 1.429 . S
C278 C276 1.419 . S
C278 C279 1.363 . S
C278 H281 0.929 . S
C279 C278 1.363 . S
C279 C285 1.428 . S
H280 C276 0.930 . S
H281 C278 0.929 . S
S282 N283 1.613 . S
S282 N284 1.610 . S
N283 S282 1.613 . S
N283 C286 1.350 . S
N284 S282 1.610 . S
N284 C285 1.351 . S
C285 C279 1.428 . S
C285 N284 1.351 . S
C285 C286 1.434 . S
C286 C277 1.429 . S
C286 N283 1.350 . S
C286 C285 1.434 . S
C287 C288 1.369 . S
C287 C289 1.419 . S
C287 H291 0.930 . S
C288 C287 1.369 . S
C288 C297 1.429 . S
C289 C287 1.419 . S
C289 C290 1.363 . S
C289 H292 0.929 . S
C290 C289 1.363 . S
C290 C296 1.428 . S
H291 C287 0.930 . S
H292 C289 0.929 . S
S293 N294 1.613 . S
S293 N295 1.610 . S
N294 S293 1.613 . S
N294 C297 1.350 . S
N295 S293 1.610 . S
N295 C296 1.351 . S
C296 C290 1.428 . S
C296 N295 1.351 . S
C296 C297 1.434 . S
C297 C288 1.429 . S
C297 N294 1.350 . S
C297 C296 1.434 . S
C298 C299 1.369 . S
C298 C300 1.419 1_556 S
C298 H302 0.930 . S
C299 C298 1.369 . S
C299 C308 1.429 . S
C300 C298 1.419 1_554 S
C300 C301 1.363 . S
C300 H303 0.929 . S
C301 C300 1.363 . S
C301 C307 1.428 . S
H302 C298 0.930 . S
H303 C300 0.929 . S
S304 N305 1.613 . S
S304 N306 1.610 1_556 S
N305 S304 1.613 . S
N305 C308 1.350 . S
N306 S304 1.610 1_554 S
N306 C307 1.351 . S
C307 C301 1.428 . S
C307 N306 1.351 . S
C307 C308 1.434 1_554 S
C308 C299 1.429 . S
C308 N305 1.350 . S
C308 C307 1.434 1_556 S
C309 C310 1.369 . S
C309 C311 1.419 . S
C309 H313 0.930 . S
C310 C309 1.369 . S
C310 C319 1.429 . S
C311 C309 1.419 . S
C311 C312 1.363 . S
C311 H314 0.929 . S
C312 C311 1.363 . S
C312 C318 1.428 . S
H313 C309 0.930 . S
H314 C311 0.929 . S
S315 N316 1.613 . S
S315 N317 1.610 . S
N316 S315 1.613 . S
N316 C319 1.350 . S
N317 S315 1.610 . S
N317 C318 1.351 . S
C318 C312 1.428 . S
C318 N317 1.351 . S
C318 C319 1.434 . S
C319 C310 1.429 . S
C319 N316 1.350 . S
C319 C318 1.434 . S
C320 C321 1.369 . S
C320 C322 1.419 . S
C320 H324 0.930 . S
C321 C320 1.369 . S
C321 C330 1.429 . S
C322 C320 1.419 . S
C322 C323 1.363 . S
C322 H325 0.929 . S
C323 C322 1.363 . S
C323 C329 1.428 . S
H324 C320 0.930 . S
H325 C322 0.929 . S
S326 N327 1.613 . S
S326 N328 1.610 . S
N327 S326 1.613 . S
N327 C330 1.350 . S
N328 S326 1.610 . S
N328 C329 1.351 . S
C329 C323 1.428 . S
C329 N328 1.351 . S
C329 C330 1.434 . S
C330 C321 1.429 . S
C330 N327 1.350 . S
C330 C329 1.434 . S
C331 C332 1.369 . S
C331 C333 1.419 1_554 S
C331 H335 0.930 . S
C332 C331 1.369 . S
C332 C341 1.429 . S
C333 C331 1.419 1_556 S
C333 C334 1.363 . S
C333 H336 0.929 . S
C334 C333 1.363 . S
C334 C340 1.428 . S
H335 C331 0.930 . S
H336 C333 0.929 . S
S337 N338 1.613 1_556 S
S337 N339 1.610 . S
N338 S337 1.613 1_554 S
N338 C341 1.350 . S
N339 S337 1.610 . S
N339 C340 1.351 . S
C340 C334 1.428 . S
C340 N339 1.351 . S
C340 C341 1.434 1_556 S
C341 C332 1.429 . S
C341 N338 1.350 . S
C341 C340 1.434 1_554 S
C342 C343 1.369 1_556 S
C342 C344 1.419 . S
C342 H346 0.930 . S
C343 C342 1.369 1_554 S
C343 C352 1.429 . S
C344 C342 1.419 . S
C344 C345 1.363 . S
C344 H347 0.929 . S
C345 C344 1.363 . S
C345 C351 1.428 1_556 S
H346 C342 0.930 . S
H347 C344 0.929 . S
S348 N349 1.613 . S
S348 N350 1.610 . S
N349 S348 1.613 . S
N349 C352 1.350 . S
N350 S348 1.610 . S
N350 C351 1.351 . S
C351 C345 1.428 1_554 S
C351 N350 1.351 . S
C351 C352 1.434 . S
C352 C343 1.429 . S
C352 N349 1.350 . S
C352 C351 1.434 . S
C353 C354 1.369 . S
C353 C355 1.419 . S
C353 H357 0.930 . S
C354 C353 1.369 . S
C354 C363 1.429 . S
C355 C353 1.419 . S
C355 C356 1.363 . S
C355 H358 0.929 . S
C356 C355 1.363 . S
C356 C362 1.428 . S
H357 C353 0.930 . S
H358 C355 0.929 . S
S359 N360 1.613 . S
S359 N361 1.610 . S
N360 S359 1.613 . S
N360 C363 1.350 . S
N361 S359 1.610 . S
N361 C362 1.351 . S
C362 C356 1.428 . S
C362 N361 1.351 . S
C362 C363 1.434 . S
C363 C354 1.429 . S
C363 N360 1.350 . S
C363 C362 1.434 . S
C364 C365 1.369 . S
C364 C366 1.419 . S
C364 H368 0.930 . S
C365 C364 1.369 . S
C365 C374 1.429 . S
C366 C364 1.419 . S
C366 C367 1.363 . S
C366 H369 0.929 . S
C367 C366 1.363 . S
C367 C373 1.428 . S
H368 C364 0.930 . S
H369 C366 0.929 . S
S370 N371 1.613 . S
S370 N372 1.610 . S
N371 S370 1.613 . S
N371 C374 1.350 . S
N372 S370 1.610 . S
N372 C373 1.351 . S
C373 C367 1.428 . S
C373 N372 1.351 . S
C373 C374 1.434 . S
C374 C365 1.429 . S
C374 N371 1.350 . S
C374 C373 1.434 . S
C375 C376 1.369 1_556 S
C375 C377 1.419 . S
C375 H379 0.930 . S
C376 C375 1.369 1_554 S
C376 C385 1.429 . S
C377 C375 1.419 . S
C377 C378 1.363 . S
C377 H380 0.929 . S
C378 C377 1.363 . S
C378 C384 1.428 1_556 S
H379 C375 0.930 . S
H380 C377 0.929 . S
S381 N382 1.613 . S
S381 N383 1.610 . S
N382 S381 1.613 . S
N382 C385 1.350 . S
N383 S381 1.610 . S
N383 C384 1.351 . S
C384 C378 1.428 1_554 S
C384 N383 1.351 . S
C384 C385 1.434 . S
C385 C376 1.429 . S
C385 N382 1.350 . S
C385 C384 1.434 . S
C386 C387 1.369 . S
C386 C388 1.419 . S
C386 H390 0.930 . S
C387 C386 1.369 . S
C387 C396 1.429 . S
C388 C386 1.419 . S
C388 C389 1.363 . S
C388 H391 0.929 . S
C389 C388 1.363 . S
C389 C395 1.428 . S
H390 C386 0.930 . S
H391 C388 0.929 . S
S392 N393 1.613 . S
S392 N394 1.610 . S
N393 S392 1.613 . S
N393 C396 1.350 . S
N394 S392 1.610 . S
N394 C395 1.351 . S
C395 C389 1.428 . S
C395 N394 1.351 . S
C395 C396 1.434 . S
C396 C387 1.429 . S
C396 N393 1.350 . S
C396 C395 1.434 . S
C397 C398 1.369 . S
C397 C399 1.419 . S
C397 H401 0.930 . S
C398 C397 1.369 . S
C398 C407 1.429 . S
C399 C397 1.419 . S
C399 C400 1.363 . S
C399 H402 0.929 . S
C400 C399 1.363 . S
C400 C406 1.428 . S
H401 C397 0.930 . S
H402 C399 0.929 . S
S403 N404 1.613 . S
S403 N405 1.610 . S
N404 S403 1.613 . S
N404 C407 1.350 . S
N405 S403 1.610 . S
N405 C406 1.351 . S
C406 C400 1.428 . S
C406 N405 1.351 . S
C406 C407 1.434 . S
C407 C398 1.429 . S
C407 N404 1.350 . S
C407 C406 1.434 . S
C408 C409 1.369 . S
C408 C410 1.419 . S
C408 H412 0.930 . S
C409 C408 1.369 . S
C409 C418 1.429 . S
C410 C408 1.419 . S
C410 C411 1.363 . S
C410 H413 0.929 . S
C411 C410 1.363 . S
C411 C417 1.428 . S
H412 C408 0.930 . S
H413 C410 0.929 . S
S414 N415 1.613 . S
S414 N416 1.610 . S
N415 S414 1.613 . S
N415 C418 1.350 . S
N416 S414 1.610 . S
N416 C417 1.351 . S
C417 C411 1.428 . S
C417 N416 1.351 . S
C417 C418 1.434 . S
C418 C409 1.429 . S
C418 N415 1.350 . S
C418 C417 1.434 . S
C419 C420 1.369 . S
C419 C421 1.419 1_655 S
C419 H423 0.930 . S
C420 C419 1.369 . S
C420 C429 1.429 . S
C421 C419 1.419 1_455 S
C421 C422 1.363 . S
C421 H424 0.929 . S
C422 C421 1.363 . S
C422 C428 1.428 . S
H423 C419 0.930 . S
H424 C421 0.929 . S
S425 N426 1.613 . S
S425 N427 1.610 1_655 S
N426 S425 1.613 . S
N426 C429 1.350 . S
N427 S425 1.610 1_455 S
N427 C428 1.351 . S
C428 C422 1.428 . S
C428 N427 1.351 . S
C428 C429 1.434 1_455 S
C429 C420 1.429 . S
C429 N426 1.350 . S
C429 C428 1.434 1_655 S
C430 C431 1.369 . S
C430 C432 1.419 1_545 S
C430 H434 0.930 . S
C431 C430 1.369 . S
C431 C440 1.429 . S
C432 C430 1.419 1_565 S
C432 C433 1.363 . S
C432 H435 0.929 . S
C433 C432 1.363 . S
C433 C439 1.428 . S
H434 C430 0.930 . S
H435 C432 0.929 . S
S436 N437 1.613 . S
S436 N438 1.610 1_545 S
N437 S436 1.613 . S
N437 C440 1.350 . S
N438 S436 1.610 1_565 S
N438 C439 1.351 . S
C439 C433 1.428 . S
C439 N438 1.351 . S
C439 C440 1.434 1_565 S
C440 C431 1.429 . S
C440 N437 1.350 . S
C440 C439 1.434 1_545 S
C441 C442 1.369 . S
C441 C443 1.419 . S
C441 H445 0.930 . S
C442 C441 1.369 . S
C442 C451 1.429 . S
C443 C441 1.419 . S
C443 C444 1.363 . S
C443 H446 0.929 . S
C444 C443 1.363 . S
C444 C450 1.428 . S
H445 C441 0.930 . S
H446 C443 0.929 . S
S447 N448 1.613 . S
S447 N449 1.610 . S
N448 S447 1.613 . S
N448 C451 1.350 . S
N449 S447 1.610 . S
N449 C450 1.351 . S
C450 C444 1.428 . S
C450 N449 1.351 . S
C450 C451 1.434 . S
C451 C442 1.429 . S
C451 N448 1.350 . S
C451 C450 1.434 . S
C452 C453 1.369 . S
C452 C454 1.419 1_455 S
C452 H456 0.930 . S
C453 C452 1.369 . S
C453 C462 1.429 . S
C454 C452 1.419 1_655 S
C454 C455 1.363 . S
C454 H457 0.929 . S
C455 C454 1.363 . S
C455 C461 1.428 . S
H456 C452 0.930 . S
H457 C454 0.929 . S
S458 N459 1.613 1_554 S
S458 N460 1.610 1_454 S
N459 S458 1.613 1_556 S
N459 C462 1.350 . S
N460 S458 1.610 1_656 S
N460 C461 1.351 . S
C461 C455 1.428 . S
C461 N460 1.351 . S
C461 C462 1.434 1_655 S
C462 C453 1.429 . S
C462 N459 1.350 . S
C462 C461 1.434 1_455 S
C463 C464 1.369 . S
C463 C465 1.419 1_565 S
C463 H467 0.930 . S
C464 C463 1.369 . S
C464 C473 1.429 . S
C465 C463 1.419 1_545 S
C465 C466 1.363 . S
C465 H468 0.929 . S
C466 C465 1.363 . S
C466 C472 1.428 . S
H467 C463 0.930 . S
H468 C465 0.929 . S
S469 N470 1.613 . S
S469 N471 1.610 1_565 S
N470 S469 1.613 . S
N470 C473 1.350 . S
N471 S469 1.610 1_545 S
N471 C472 1.351 . S
C472 C466 1.428 . S
C472 N471 1.351 . S
C472 C473 1.434 1_545 S
C473 C464 1.429 . S
C473 N470 1.350 . S
C473 C472 1.434 1_565 S
C474 C475 1.369 . S
C474 C476 1.419 . S
C474 H478 0.930 . S
C475 C474 1.369 . S
C475 C484 1.429 . S
C476 C474 1.419 . S
C476 C477 1.363 . S
C476 H479 0.929 . S
C477 C476 1.363 . S
C477 C483 1.428 . S
H478 C474 0.930 . S
H479 C476 0.929 . S
S480 N481 1.613 . S
S480 N482 1.610 . S
N481 S480 1.613 . S
N481 C484 1.350 . S
N482 S480 1.610 . S
N482 C483 1.351 . S
C483 C477 1.428 . S
C483 N482 1.351 . S
C483 C484 1.434 . S
C484 C475 1.429 . S
C484 N481 1.350 . S
C484 C483 1.434 . S
C485 C486 1.369 . S
C485 C487 1.419 . S
C485 H489 0.930 . S
C486 C485 1.369 . S
C486 C495 1.429 . S
C487 C485 1.419 . S
C487 C488 1.363 . S
C487 H490 0.929 . S
C488 C487 1.363 . S
C488 C494 1.428 . S
H489 C485 0.930 . S
H490 C487 0.929 . S
S491 N492 1.613 . S
S491 N493 1.610 . S
N492 S491 1.613 . S
N492 C495 1.350 . S
N493 S491 1.610 . S
N493 C494 1.351 . S
C494 C488 1.428 . S
C494 N493 1.351 . S
C494 C495 1.434 . S
C495 C486 1.429 . S
C495 N492 1.350 . S
C495 C494 1.434 . S
C496 C497 1.369 . S
C496 C498 1.419 . S
C496 H500 0.930 . S
C497 C496 1.369 . S
C497 C506 1.429 . S
C498 C496 1.419 . S
C498 C499 1.363 . S
C498 H501 0.929 . S
C499 C498 1.363 . S
C499 C505 1.428 . S
H500 C496 0.930 . S
H501 C498 0.929 . S
S502 N503 1.613 . S
S502 N504 1.610 . S
N503 S502 1.613 . S
N503 C506 1.350 . S
N504 S502 1.610 . S
N504 C505 1.351 . S
C505 C499 1.428 . S
C505 N504 1.351 . S
C505 C506 1.434 . S
C506 C497 1.429 . S
C506 N503 1.350 . S
C506 C505 1.434 . S
C507 C508 1.369 . S
C507 C509 1.419 . S
C507 H511 0.930 . S
C508 C507 1.369 . S
C508 C517 1.429 . S
C509 C507 1.419 . S
C509 C510 1.363 . S
C509 H512 0.929 . S
C510 C509 1.363 . S
C510 C516 1.428 . S
H511 C507 0.930 . S
H512 C509 0.929 . S
S513 N514 1.613 . S
S513 N515 1.610 . S
N514 S513 1.613 . S
N514 C517 1.350 . S
N515 S513 1.610 . S
N515 C516 1.351 . S
C516 C510 1.428 . S
C516 N515 1.351 . S
C516 C517 1.434 . S
C517 C508 1.429 . S
C517 N514 1.350 . S
C517 C516 1.434 . S
C518 C519 1.369 . S
C518 C520 1.419 . S
C518 H522 0.930 . S
C519 C518 1.369 . S
C519 C528 1.429 . S
C520 C518 1.419 . S
C520 C521 1.363 . S
C520 H523 0.929 . S
C521 C520 1.363 . S
C521 C527 1.428 . S
H522 C518 0.930 . S
H523 C520 0.929 . S
S524 N525 1.613 . S
S524 N526 1.610 . S
N525 S524 1.613 . S
N525 C528 1.350 . S
N526 S524 1.610 . S
N526 C527 1.351 . S
C527 C521 1.428 . S
C527 N526 1.351 . S
C527 C528 1.434 . S
C528 C519 1.429 . S
C528 N525 1.350 . S
C528 C527 1.434 . S
C529 C530 1.369 . S
C529 C531 1.419 . S
C529 H533 0.930 . S
C530 C529 1.369 . S
C530 C539 1.429 . S
C531 C529 1.419 . S
C531 C532 1.363 . S
C531 H534 0.929 . S
C532 C531 1.363 . S
C532 C538 1.428 . S
H533 C529 0.930 . S
H534 C531 0.929 . S
S535 N536 1.613 . S
S535 N537 1.610 . S
N536 S535 1.613 . S
N536 C539 1.350 . S
N537 S535 1.610 . S
N537 C538 1.351 . S
C538 C532 1.428 . S
C538 N537 1.351 . S
C538 C539 1.434 . S
C539 C530 1.429 . S
C539 N536 1.350 . S
C539 C538 1.434 . S
C277 C16 1.478 . S
C279 C154 1.474 . S
C288 C39 1.475 . S
C290 C177 1.477 . S
C299 C62 1.473 . S
C301 C200 1.477 . S
C310 C85 1.475 . S
C312 C223 1.477 . S
C321 C108 1.477 . S
C323 C246 1.473 . S
C332 C269 1.478 . S
C334 C131 1.474 . S
C343 N12 1.672 . S
C345 N242 1.676 . S
C354 N35 1.676 . S
C356 N265 1.673 . S
C365 N58 1.676 . S
C367 N150 1.673 . S
C376 N81 1.673 . S
C378 N173 1.675 . S
C387 N104 1.676 . S
C389 N196 1.673 . S
C398 N127 1.675 . S
C400 N219 1.675 . S
C409 N2 1.636 . S
C411 N71 1.629 . S
C420 N25 1.632 . S
C422 N94 1.639 . S
C431 N117 1.628 . S
C433 N48 1.637 . S
C442 N140 1.628 . S
C444 N209 1.637 . S
C453 N232 1.628 . S
C455 N163 1.634 . S
C464 N186 1.635 . S
C466 N255 1.639 . S
C475 C145 1.514 . S
C477 C7 1.514 . S
C486 C30 1.515 . S
C488 C168 1.513 . S
C497 C53 1.514 . S
C499 C191 1.514 . S
C508 C214 1.515 . S
C510 C76 1.513 . S
C519 C237 1.513 . S
C521 C99 1.512 . S
C530 C122 1.515 . S
C532 C260 1.513 . S
