# Generated by pormake.
# Topology sow, (4)-cn, num edge types: 1
# Building blocks:
#     Node 0, Type 0, BuildingBlock: ESEHIV_clean_sbu_0, # of connection points: 4
#     Node 1, Type 0, BuildingBlock: ESEHIV_clean_sbu_0, # of connection points: 4
#     Node 2, Type 0, BuildingBlock: ESEHIV_clean_sbu_0, # of connection points: 4
#     Node 3, Type 0, BuildingBlock: ESEHIV_clean_sbu_0, # of connection points: 4
#     Node 4, Type 0, BuildingBlock: ESEHIV_clean_sbu_0, # of connection points: 4
#     Node 5, Type 0, BuildingBlock: ESEHIV_clean_sbu_0, # of connection points: 4
#     Node 6, Type 0, BuildingBlock: ESEHIV_clean_sbu_0, # of connection points: 4
#     Node 7, Type 0, BuildingBlock: ESEHIV_clean_sbu_0, # of connection points: 4
#     Edge 8, Type (0, 0), BuildingBlock: FUNLAD_clean_linker_1, # of connection points: 2
#     Edge 9, Type (0, 0), BuildingBlock: FUNLAD_clean_linker_1, # of connection points: 2
#     Edge 10, Type (0, 0), BuildingBlock: FUNLAD_clean_linker_1, # of connection points: 2
#     Edge 11, Type (0, 0), BuildingBlock: FUNLAD_clean_linker_1, # of connection points: 2
#     Edge 12, Type (0, 0), BuildingBlock: FUNLAD_clean_linker_1, # of connection points: 2
#     Edge 13, Type (0, 0), BuildingBlock: FUNLAD_clean_linker_1, # of connection points: 2
#     Edge 14, Type (0, 0), BuildingBlock: FUNLAD_clean_linker_1, # of connection points: 2
#     Edge 15, Type (0, 0), BuildingBlock: FUNLAD_clean_linker_1, # of connection points: 2
#     Edge 16, Type (0, 0), BuildingBlock: FUNLAD_clean_linker_1, # of connection points: 2
#     Edge 17, Type (0, 0), BuildingBlock: FUNLAD_clean_linker_1, # of connection points: 2
#     Edge 18, Type (0, 0), BuildingBlock: FUNLAD_clean_linker_1, # of connection points: 2
#     Edge 19, Type (0, 0), BuildingBlock: FUNLAD_clean_linker_1, # of connection points: 2
#     Edge 20, Type (0, 0), BuildingBlock: FUNLAD_clean_linker_1, # of connection points: 2
#     Edge 21, Type (0, 0), BuildingBlock: FUNLAD_clean_linker_1, # of connection points: 2
#     Edge 22, Type (0, 0), BuildingBlock: FUNLAD_clean_linker_1, # of connection points: 2
#     Edge 23, Type (0, 0), BuildingBlock: FUNLAD_clean_linker_1, # of connection points: 2
# Relax obj value: 0.066
# Max RMSD: 0.213
# Mean RMSD: 0.187
data_MOF--net-sow--node1-ESEHIV_clean_sbu_0--edge1-FUNLAD_clean_linker_1
_symmetry_space_group_name_H-M    P1
_symmetry_Int_Tables_number       1
_symmetry_cell_setting            triclinic
loop_
_symmetry_equiv_pos_as_xyz
'x, y, z'
_cell_length_a     52.279055
_cell_length_b     19.190102
_cell_length_c     24.242656
_cell_angle_alpha  89.005826
_cell_angle_beta   89.924996
_cell_angle_gamma 89.881723
loop_
_atom_site_label
_atom_site_type_symbol
_atom_site_fract_x
_atom_site_fract_y
_atom_site_fract_z
_atom_type_partial_charge
Cu0 Cu 0.124 0.09578 0.16031 0.0
N1 N 0.13826 0.07624 0.2295 0.0
N2 N 0.16907 0.1037 0.28922 0.0
C3 C 0.16366 0.07873 0.23893 0.0
C4 C 0.14641 0.11424 0.31395 0.0
C5 C 0.12742 0.09758 0.27692 0.0
O6 O 0.1531 0.12376 0.11476 0.0
C7 C 0.07759 0.17736 0.15376 0.0
O8 O 0.07392 0.15437 0.10369 0.0
H9 H 0.178 0.06811 0.20791 0.0
H10 H 0.10718 0.10708 0.28234 0.0
N11 N 0.10745 0.02247 0.12408 0.0
N12 N 0.07483 0.96351 0.08732 0.0
C13 C 0.08331 -0.00112 0.13148 0.0
C14 C 0.11422 0.00114 0.07341 0.0
C15 C 0.09422 0.96519 0.05061 0.0
C16 C 0.1524 0.15097 0.06667 0.0
O17 O 0.13046 0.17201 0.046 0.0
H18 H 0.07155 0.01149 0.16674 0.0
H19 H 0.13163 0.01612 0.05226 0.0
O20 O 0.09857 0.16523 0.17845 0.0
H21 H 0.14384 0.13333 0.35537 0.0
H22 H 0.09336 0.9466 0.00874 0.0
Cu23 Cu 0.36603 0.18172 0.62374 0.0
N24 N 0.34924 0.11861 0.67753 0.0
N25 N 0.3178 0.10771 0.74588 0.0
C26 C 0.32345 0.11326 0.6902 0.0
C27 C 0.34178 0.11581 0.76702 0.0
C28 C 0.35992 0.11405 0.72752 0.0
O29 O 0.33695 0.21556 0.57942 0.0
C30 C 0.40891 0.19653 0.68568 0.0
O31 O 0.41123 0.13397 0.66484 0.0
H32 H 0.30866 0.12112 0.65954 0.0
H33 H 0.37952 0.12243 0.73738 0.0
N34 N 0.39263 0.17049 0.56826 0.0
N35 N 0.42879 0.20217 0.52134 0.0
C36 C 0.41124 0.21979 0.55996 0.0
C37 C 0.39825 0.12094 0.53148 0.0
C38 C 0.4204 0.14009 0.50305 0.0
C39 C 0.32597 0.16519 0.55458 0.0
O40 O 0.3354 0.10205 0.56112 0.0
H41 H 0.41234 0.26711 0.5834 0.0
H42 H 0.38727 0.07388 0.5259 0.0
O43 O 0.3886 0.23257 0.67479 0.0
H44 H 0.34735 0.1344 0.80698 0.0
H45 H 0.42982 0.10996 0.47156 0.0
Cu46 Cu 0.62603 0.40254 0.85029 0.0
N47 N 0.64024 0.40899 0.77887 0.0
N48 N 0.65979 0.37417 0.70136 0.0
C49 C 0.65949 0.37027 0.75726 0.0
C50 C 0.64026 0.41708 0.6877 0.0
C51 C 0.62827 0.43819 0.73517 0.0
O52 O 0.65186 0.37106 0.90344 0.0
C53 C 0.58815 0.28971 0.83216 0.0
O54 O 0.60521 0.23956 0.82946 0.0
H55 H 0.67204 0.33724 0.78174 0.0
H56 H 0.611 0.46911 0.7375 0.0
N57 N 0.6124 0.48469 0.87988 0.0
N58 N 0.57898 0.55085 0.90496 0.0
C59 C 0.59147 0.52075 0.86251 0.0
C60 C 0.61301 0.49362 0.9349 0.0
C61 C 0.59256 0.53391 0.95041 0.0
C62 C 0.64954 0.32739 0.94331 0.0
O63 O 0.62883 0.28919 0.94756 0.0
H64 H 0.58397 0.51865 0.82098 0.0
H65 H 0.62556 0.46553 0.9629 0.0
O66 O 0.59469 0.3516 0.84223 0.0
H67 H 0.63465 0.43091 0.6459 0.0
H68 H 0.58721 0.54624 0.99229 0.0
Cu69 Cu 0.86618 0.34798 0.39041 0.0
N70 N 0.84165 0.3271 0.33499 0.0
N71 N 0.80699 0.34936 0.28184 0.0
C72 C 0.82317 0.3732 0.32031 0.0
C73 C 0.81686 0.28666 0.26819 0.0
C74 C 0.83812 0.27293 0.3012 0.0
O75 O 0.84458 0.38502 0.45316 0.0
C76 C 0.90332 0.39062 0.30208 0.0
O77 O 0.88446 0.41225 0.27043 0.0
H78 H 0.82283 0.42613 0.33379 0.0
H79 H 0.85067 0.22819 0.29883 0.0
N80 N 0.88247 0.27754 0.43297 0.0
N81 N 0.92068 0.23595 0.46166 0.0
C82 C 0.90449 0.24505 0.41848 0.0
C83 C 0.88544 0.28875 0.4876 0.0
C84 C 0.90879 0.26417 0.50493 0.0
C85 C 0.82118 0.40592 0.45458 0.0
O86 O 0.81383 0.45755 0.42225 0.0
H87 H 0.90978 0.23595 0.37622 0.0
H88 H 0.87401 0.32412 0.51151 0.0
O89 O 0.89904 0.37891 0.35359 0.0
H90 H 0.81027 0.25479 0.23467 0.0
H91 H 0.91781 0.27531 0.54405 0.0
Cu92 Cu 0.88863 0.55953 0.93371 0.0
N93 N 0.90281 0.58471 0.86345 0.0
N94 N 0.93199 0.61675 0.7998 0.0
C95 C 0.91755 0.63726 0.84311 0.0
C96 C 0.92596 0.5499 0.79161 0.0
C97 C 0.9083 0.53047 0.8305 0.0
O98 O 0.92141 0.56596 0.97335 0.0
C99 C 0.84813 0.54083 0.87152 0.0
O100 O 0.85082 0.60823 0.87857 0.0
H101 H 0.91954 0.68731 0.86194 0.0
H102 H 0.90225 0.47732 0.83834 0.0
N103 N 0.86564 0.59695 0.98795 0.0
N104 N 0.83636 0.5772 0.05473 0.0
C105 C 0.8441 0.562 0.0033 0.0
C106 C 0.87112 0.63552 0.03288 0.0
C107 C 0.8531 0.62417 0.07319 0.0
C108 C 0.92603 0.63166 0.97534 0.0
O109 O 0.90883 0.67466 0.95459 0.0
H110 H 0.83567 0.52045 0.97994 0.0
H111 H 0.88824 0.66496 0.04007 0.0
O112 O 0.86364 0.49918 0.89715 0.0
H113 H 0.93557 0.51561 0.76316 0.0
H114 H 0.85305 0.64629 0.11396 0.0
Cu115 Cu 0.64458 0.53189 0.40556 0.0
N116 N 0.62343 0.53558 0.33964 0.0
N117 N 0.58767 0.5837 0.30126 0.0
C118 C 0.59733 0.53986 0.34032 0.0
C119 C 0.60805 0.60636 0.27253 0.0
C120 C 0.62965 0.5772 0.29574 0.0
O121 O 0.61596 0.53395 0.46003 0.0
C122 C 0.68532 0.53795 0.33932 0.0
O123 O 0.67448 0.47713 0.33153 0.0
H124 H 0.58536 0.51847 0.37235 0.0
H125 H 0.64861 0.59483 0.28524 0.0
N126 N 0.66836 0.47549 0.44725 0.0
N127 N 0.69952 0.46618 0.51319 0.0
C128 C 0.6861 0.50864 0.47834 0.0
C129 C 0.67046 0.40823 0.46282 0.0
C130 C 0.68898 0.40273 0.50377 0.0
C131 C 0.604 0.47516 0.46094 0.0
O132 O 0.61368 0.42424 0.43191 0.0
H133 H 0.68731 0.56491 0.47961 0.0
H134 H 0.6581 0.36691 0.44913 0.0
O135 O 0.67433 0.58073 0.37247 0.0
H136 H 0.60771 0.64571 0.24 0.0
H137 H 0.69264 0.35599 0.52798 0.0
Cu138 Cu 0.38875 0.9068 0.06428 0.0
N139 N 0.41338 0.94249 0.11267 0.0
N140 N 0.44387 0.92429 0.17645 0.0
C141 C 0.43045 0.89726 0.13477 0.0
C142 C 0.43539 0.99048 0.18065 0.0
C143 C 0.41612 0.00134 0.14173 0.0
O144 O 0.40836 0.83122 0.0347 0.0
C145 C 0.35665 0.89027 0.15755 0.0
O146 O 0.37801 0.88353 0.18547 0.0
H147 H 0.43233 0.84381 0.12201 0.0
H148 H 0.40418 0.0472 0.13722 0.0
N149 N 0.37849 0.95591 0.00086 0.0
N150 N 0.34846 0.94969 0.93501 0.0
C151 C 0.35328 0.96022 0.98888 0.0
C152 C 0.38999 0.94626 0.95171 0.0
C153 C 0.37157 0.94252 0.91108 0.0
C154 C 0.40585 0.76662 0.02721 0.0
O155 O 0.38419 0.73528 0.03898 0.0
H156 H 0.33847 0.96136 0.0201 0.0
H157 H 0.40989 0.93201 0.94681 0.0
O158 O 0.35725 0.88908 0.1052 0.0
H159 H 0.44176 0.02708 0.2112 0.0
H160 H 0.37487 0.93051 0.8682 0.0
Cu161 Cu 0.14835 0.97194 0.58202 0.0
N162 N 0.13076 0.89926 0.61867 0.0
N163 N 0.0975 0.85396 0.66544 0.0
C164 C 0.10554 0.90408 0.6301 0.0
C165 C 0.11845 0.81496 0.67671 0.0
C166 C 0.13902 0.84324 0.64785 0.0
O167 O 0.11955 0.03193 0.56093 0.0
C168 C 0.18321 0.99303 0.67546 0.0
O169 O 0.16487 0.97459 0.70976 0.0
H170 H 0.09332 0.94563 0.61476 0.0
H171 H 0.15876 0.8267 0.65068 0.0
N172 N 0.16383 0.9493 0.51522 0.0
N173 N 0.19745 0.96298 0.45841 0.0
C174 C 0.18944 0.94235 0.50907 0.0
C175 C 0.15541 0.97448 0.46635 0.0
C176 C 0.17596 0.98293 0.43143 0.0
C177 C 0.10926 0.09149 0.55418 0.0
O178 O 0.12182 0.14852 0.56589 0.0
H179 H 0.20225 0.93007 0.54289 0.0
H180 H 0.1364 0.99506 0.45916 0.0
O181 O 0.1781 0.00335 0.62459 0.0
H182 H 0.11924 0.77168 0.70587 0.0
H183 H 0.17529 0.00884 0.39157 0.0
H184 H 0.28175 0.10497 0.80563 0.0
C185 C 0.29073 0.11038 0.77024 0.0
H186 H 0.27451 0.07643 0.88982 0.0
H187 H 0.20138 0.27446 0.99229 0.0
H188 H 0.24038 0.3387 0.01072 0.0
H189 H 0.28221 0.29178 0.98187 0.0
H190 H 0.28431 0.18319 0.93346 0.0
C191 C 0.27001 0.09976 0.84828 0.0
C192 C 0.24485 0.11514 0.8826 0.0
C193 C 0.24352 0.1738 0.9185 0.0
C194 C 0.21999 0.19346 0.94379 0.0
C195 C 0.21902 0.25553 0.97454 0.0
C196 C 0.24123 0.29254 0.98575 0.0
C197 C 0.26472 0.26688 0.96881 0.0
C198 C 0.26586 0.20715 0.93716 0.0
H199 H 0.19294 0.12578 0.05088 0.0
C200 C 0.17569 0.14719 0.03196 0.0
H201 H 0.15857 0.18157 0.95725 0.0
H202 H 0.24926 0.97403 0.87629 0.0
H203 H 0.21569 0.88746 0.88595 0.0
H204 H 0.17283 0.92176 0.91868 0.0
H205 H 0.16423 0.04141 0.94383 0.0
C206 C 0.17578 0.16253 0.97749 0.0
C207 C 0.19883 0.14785 0.94286 0.0
C208 C 0.20185 0.08154 0.91896 0.0
C209 C 0.2254 0.0636 0.89255 0.0
C210 C 0.23031 0.99221 0.8849 0.0
C211 C 0.21145 0.9418 0.89317 0.0
C212 C 0.18742 0.96099 0.91198 0.0
C213 C 0.18268 0.02992 0.92572 0.0
H214 H 0.20399 0.05621 0.31188 0.0
C215 C 0.19383 0.10403 0.31445 0.0
H216 H 0.1928 0.20713 0.33679 0.0
H217 H 0.25672 0.20093 0.55611 0.0
H218 H 0.22572 0.29188 0.56785 0.0
H219 H 0.19546 0.32251 0.49374 0.0
H220 H 0.19599 0.26308 0.4083 0.0
C221 C 0.20389 0.15967 0.3401 0.0
C222 C 0.22766 0.15579 0.37655 0.0
C223 C 0.22813 0.19224 0.42779 0.0
C224 C 0.2466 0.1772 0.47047 0.0
C225 C 0.24464 0.21315 0.52107 0.0
C226 C 0.22653 0.26489 0.52902 0.0
C227 C 0.20943 0.28167 0.48748 0.0
C228 C 0.20995 0.24585 0.43807 0.0
H229 H 0.29959 0.22658 0.50053 0.0
C230 C 0.30324 0.17517 0.51829 0.0
H231 H 0.29113 0.0707 0.52599 0.0
H232 H 0.23849 0.10544 0.26501 0.0
H233 H 0.26951 0.00077 0.23555 0.0
H234 H 0.31127 0.93236 0.36617 0.0
H235 H 0.29979 0.00414 0.456 0.0
C236 C 0.28758 0.12093 0.5062 0.0
C237 C 0.26593 0.12561 0.46521 0.0
C238 C 0.26659 0.08212 0.41872 0.0
C239 C 0.2479 0.10934 0.36369 0.0
C240 C 0.24976 0.08092 0.29731 0.0
C241 C 0.26981 0.01571 0.2789 0.0
C242 C 0.29652 0.9726 0.36185 0.0
C243 C 0.28908 0.01734 0.4193 0.0
H244 H 0.78809 0.44686 0.26341 0.0
C245 C 0.78714 0.39156 0.25503 0.0
H246 H 0.77132 0.31006 0.22787 0.0
H247 H 0.66438 0.47207 0.06278 0.0
H248 H 0.66983 0.59255 0.09144 0.0
H249 H 0.7132 0.63787 0.10988 0.0
H250 H 0.74991 0.5595 0.11035 0.0
C251 C 0.77086 0.36547 0.21471 0.0
C252 C 0.74872 0.41345 0.11258 0.0
C253 C 0.72781 0.4644 0.10093 0.0
C254 C 0.70441 0.44309 0.07543 0.0
C255 C 0.68305 0.48831 0.07697 0.0
C256 C 0.68607 0.55746 0.09218 0.0
C257 C 0.71041 0.58282 0.10301 0.0
C258 C 0.73125 0.53729 0.105 0.0
H259 H 0.67022 0.27961 0.01503 0.0
C260 C 0.66903 0.3252 0.988 0.0
H261 H 0.68182 0.42703 0.97109 0.0
H262 H 0.79001 0.41359 0.03446 0.0
H263 H 0.79518 0.33061 0.96115 0.0
H264 H 0.75875 0.25877 0.93134 0.0
H265 H 0.71623 0.27972 0.96847 0.0
C266 C 0.6842 0.38057 0.99695 0.0
C267 C 0.70452 0.38458 0.04056 0.0
C268 C 0.72868 0.35486 0.02972 0.0
C269 C 0.7507 0.38332 0.05596 0.0
C270 C 0.77387 0.381 0.02517 0.0
C271 C 0.77684 0.33525 0.98156 0.0
C272 C 0.75631 0.29527 0.9645 0.0
C273 C 0.73214 0.30675 0.98675 0.0
H274 H 0.67194 0.35362 0.618 0.0
C275 C 0.67667 0.34327 0.66106 0.0
H276 H 0.70626 0.30695 0.7142 0.0
H277 H 0.78551 0.2432 0.5113 0.0
H278 H 0.78563 0.13298 0.56101 0.0
H279 H 0.75511 0.10946 0.63635 0.0
H280 H 0.72434 0.19704 0.66411 0.0
C281 C 0.70035 0.31759 0.67201 0.0
C282 C 0.72053 0.32808 0.62862 0.0
C283 C 0.73693 0.27675 0.60505 0.0
C284 C 0.75515 0.29112 0.55977 0.0
C285 C 0.77195 0.23682 0.54474 0.0
C286 C 0.77203 0.17278 0.57257 0.0
C287 C 0.75473 0.15939 0.61489 0.0
C288 C 0.73711 0.20994 0.63025 0.0
H289 H 0.81013 0.35944 0.53672 0.0
C290 C 0.80275 0.37817 0.49729 0.0
H291 H 0.77023 0.39389 0.44738 0.0
H292 H 0.70501 0.46444 0.69858 0.0
H293 H 0.71473 0.61202 0.65825 0.0
H294 H 0.74021 0.63738 0.54811 0.0
H295 H 0.75835 0.51625 0.48095 0.0
C296 C 0.77717 0.37429 0.48695 0.0
C297 C 0.757 0.35644 0.52949 0.0
C298 C 0.74169 0.41144 0.54523 0.0
C299 C 0.72464 0.39589 0.61379 0.0
C300 C 0.71419 0.47356 0.65913 0.0
C301 C 0.72041 0.56851 0.63325 0.0
C302 C 0.73662 0.58463 0.56244 0.0
C303 C 0.74742 0.50664 0.51819 0.0
H304 H 0.79788 0.5343 0.06136 0.0
C305 C 0.81502 0.54742 0.08426 0.0
H306 H 0.83237 0.55304 0.16256 0.0
H307 H 0.72386 0.65668 0.25115 0.0
H308 H 0.74914 0.76083 0.25339 0.0
H309 H 0.79385 0.76084 0.22172 0.0
H310 H 0.813 0.65747 0.18538 0.0
C311 C 0.81519 0.54074 0.13961 0.0
C312 C 0.79104 0.53182 0.17087 0.0
C313 C 0.77989 0.58897 0.19943 0.0
C314 C 0.75455 0.58701 0.22392 0.0
C315 C 0.74376 0.65149 0.24012 0.0
C316 C 0.75787 0.71281 0.2399 0.0
C317 C 0.78293 0.71297 0.22171 0.0
C318 C 0.79371 0.65259 0.20107 0.0
H319 H 0.7237 0.5853 0.32892 0.0
C320 C 0.70956 0.55278 0.30923 0.0
H321 H 0.69955 0.48982 0.24272 0.0
H322 H 0.81064 0.39453 0.11794 0.0
H323 H 0.78084 0.26726 0.1122 0.0
H324 H 0.72965 0.26369 0.15846 0.0
H325 H 0.70978 0.38224 0.21433 0.0
C326 C 0.71451 0.52171 0.26012 0.0
C327 C 0.7394 0.52478 0.22855 0.0
C328 C 0.74728 0.46494 0.19965 0.0
C329 C 0.77798 0.46936 0.16685 0.0
C330 C 0.79134 0.39335 0.13406 0.0
C331 C 0.77288 0.31312 0.13112 0.0
C332 C 0.74094 0.31073 0.16046 0.0
C333 C 0.72849 0.38571 0.1955 0.0
H334 H 0.69181 0.51064 0.58239 0.0
C335 C 0.71044 0.49074 0.56654 0.0
H336 H 0.77012 0.47036 0.59697 0.0
H337 H 0.81726 0.6766 0.74926 0.0
H338 H 0.82193 0.74255 0.66387 0.0
H339 H 0.80581 0.69578 0.57646 0.0
H340 H 0.78384 0.58556 0.57531 0.0
C341 C 0.75113 0.48973 0.6108 0.0
C342 C 0.76599 0.51024 0.66484 0.0
C343 C 0.78208 0.57053 0.66478 0.0
C344 C 0.79448 0.59238 0.71416 0.0
C345 C 0.80836 0.65579 0.71292 0.0
C346 C 0.81135 0.69413 0.66406 0.0
C347 C 0.80199 0.66839 0.615 0.0
C348 C 0.78821 0.60648 0.61509 0.0
H349 H 0.83035 0.46566 0.81435 0.0
C350 C 0.82905 0.51808 0.83032 0.0
H351 H 0.81062 0.61625 0.82657 0.0
H352 H 0.76184 0.36781 0.67202 0.0
H353 H 0.75472 0.29812 0.75595 0.0
H354 H 0.76473 0.34878 0.84652 0.0
H355 H 0.78224 0.46573 0.85118 0.0
C356 C 0.81143 0.56414 0.80993 0.0
C357 C 0.79392 0.54937 0.76244 0.0
C358 C 0.77908 0.48824 0.76251 0.0
C359 C 0.76795 0.4649 0.71253 0.0
C360 C 0.76202 0.39362 0.71061 0.0
C361 C 0.76013 0.35238 0.75847 0.0
C362 C 0.76619 0.38034 0.80922 0.0
C363 C 0.77625 0.44721 0.81129 0.0
H364 H 0.30739 0.96817 0.9317 0.0
C365 C 0.32337 0.94381 0.91057 0.0
H366 H 0.33456 0.88932 0.83916 0.0
H367 H 0.21959 0.85066 0.74512 0.0
H368 H 0.22868 0.73458 0.77875 0.0
H369 H 0.2674 0.70901 0.83279 0.0
H370 H 0.29791 0.79896 0.85264 0.0
C371 C 0.31942 0.91725 0.86001 0.0
C372 C 0.29578 0.93437 0.82806 0.0
C373 C 0.2772 0.88405 0.81097 0.0
C374 C 0.25354 0.90006 0.78024 0.0
C375 C 0.23706 0.84351 0.76847 0.0
C376 C 0.24205 0.77603 0.78734 0.0
C377 C 0.2639 0.76156 0.81757 0.0
C378 C 0.28133 0.81408 0.82854 0.0
H379 H 0.22513 0.98731 0.66071 0.0
C380 C 0.21061 0.98929 0.69278 0.0
H381 H 0.20332 0.98385 0.77801 0.0
H382 H 0.32992 0.06926 0.87536 0.0
H383 H 0.31286 0.2239 0.85887 0.0
H384 H 0.26184 0.25824 0.79693 0.0
H385 H 0.22925 0.13773 0.7488 0.0
C386 C 0.21781 0.98244 0.74595 0.0
C387 C 0.24487 0.9689 0.76369 0.0
C388 C 0.25933 0.02624 0.77769 0.0
C389 C 0.29166 0.00377 0.81736 0.0
C390 C 0.31304 0.08074 0.85123 0.0
C391 C 0.30158 0.18239 0.84174 0.0
C392 C 0.26834 0.20491 0.80125 0.0
C393 C 0.24722 0.12633 0.76916 0.0
H394 H 0.31507 0.91354 0.1629 0.0
C395 C 0.33293 0.91194 0.18584 0.0
H396 H 0.35177 0.93709 0.25967 0.0
H397 H 0.28526 0.18597 0.37057 0.0
H398 H 0.32142 0.2402 0.33333 0.0
H399 H 0.35181 0.18464 0.27294 0.0
H400 H 0.34777 0.06546 0.24411 0.0
C401 C 0.33361 0.93403 0.23816 0.0
C402 C 0.31094 0.95975 0.26823 0.0
C403 C 0.3134 0.04377 0.29047 0.0
C404 C 0.29134 0.08009 0.33476 0.0
C405 C 0.29687 0.15246 0.34537 0.0
C406 C 0.31829 0.1861 0.32326 0.0
C407 C 0.33583 0.15423 0.28845 0.0
C408 C 0.33356 0.08551 0.27218 0.0
H409 H 0.23899 0.97224 0.47101 0.0
C410 C 0.2237 0.9737 0.44075 0.0
H411 H 0.21389 0.97033 0.35897 0.0
H412 H 0.30484 0.8202 0.23355 0.0
H413 H 0.27214 0.73461 0.24563 0.0
H414 H 0.23502 0.75093 0.30438 0.0
H415 H 0.22801 0.85509 0.35621 0.0
C416 C 0.22914 0.98299 0.38694 0.0
C417 C 0.25538 0.98593 0.35988 0.0
C418 C 0.26166 0.90938 0.32605 0.0
C419 C 0.2875 0.89958 0.28404 0.0
C420 C 0.28904 0.83393 0.25971 0.0
C421 C 0.27016 0.78339 0.26701 0.0
C422 C 0.24886 0.79265 0.30075 0.0
C423 C 0.24481 0.8531 0.33031 0.0
H424 H 0.05773 0.19919 0.23159 0.0
C425 C 0.05605 0.20377 0.18702 0.0
H426 H 0.03241 0.23382 0.12056 0.0
H427 H 0.92695 0.2096 0.24395 0.0
H428 H 0.92683 0.10207 0.19201 0.0
H429 H 0.96556 0.06252 0.14346 0.0
H430 H 1.0046 0.12999 0.14585 0.0
C431 C 0.03455 0.23078 0.16512 0.0
C432 C 0.0122 0.25129 0.20032 0.0
C433 C 0.98911 0.21307 0.19731 0.0
C434 C 0.96682 0.2357 0.22635 0.0
C435 C 0.94438 0.19491 0.22306 0.0
C436 C 0.94406 0.13314 0.19341 0.0
C437 C 0.96585 0.11084 0.16591 0.0
C438 C 0.9881 0.15033 0.16738 0.0
H439 H 0.93334 0.40197 0.23709 0.0
C440 C 0.92871 0.3742 0.27526 0.0
H441 H 0.93918 0.28906 0.32678 0.0
H442 H 0.05446 0.32984 0.2237 0.0
H443 H 0.05712 0.42203 0.28977 0.0
H444 H 0.01887 0.46053 0.34056 0.0
H445 H 0.97767 0.40572 0.32611 0.0
C446 C 0.9441 0.32013 0.29082 0.0
C447 C 0.96749 0.29714 0.25866 0.0
C448 C 0.99138 0.3312 0.26562 0.0
C449 C 0.01365 0.30852 0.23649 0.0
C450 C 0.03708 0.34355 0.2451 0.0
C451 C 0.03887 0.3971 0.2828 0.0
C452 C 0.01733 0.4187 0.31141 0.0
C453 C 0.99379 0.38684 0.30269 0.0
H454 H 0.42672 0.17607 0.76549 0.0
C455 C 0.42677 0.21234 0.73045 0.0
H456 H 0.44999 0.27747 0.6813 0.0
H457 H 0.5258 0.29677 0.89411 0.0
H458 H 0.49376 0.37423 0.93188 0.0
H459 H 0.45115 0.3853 0.8889 0.0
H460 H 0.44066 0.32074 0.80657 0.0
C461 C 0.44832 0.24756 0.7196 0.0
C462 C 0.47221 0.2325 0.75138 0.0
C463 C 0.47793 0.26964 0.79971 0.0
C464 C 0.50246 0.26266 0.82471 0.0
C465 C 0.5077 0.30105 0.87276 0.0
C466 C 0.48939 0.34522 0.89518 0.0
C467 C 0.46542 0.3516 0.87089 0.0
C468 C 0.45966 0.31446 0.82363 0.0
H469 H 0.5515 0.32636 0.7996 0.0
C470 C 0.56141 0.28014 0.81522 0.0
H471 H 0.5578 0.17338 0.8355 0.0
H472 H 0.4661 0.14603 0.66371 0.0
H473 H 0.49768 0.06627 0.6272 0.0
H474 H 0.54016 0.05398 0.67057 0.0
H475 H 0.55125 0.12089 0.75091 0.0
C476 C 0.54838 0.22038 0.82024 0.0
C477 C 0.52116 0.21783 0.80151 0.0
C478 C 0.51445 0.17532 0.75663 0.0
C479 C 0.49001 0.18298 0.73128 0.0
C480 C 0.48428 0.14214 0.68476 0.0
C481 C 0.50224 0.09607 0.66338 0.0
C482 C 0.52615 0.08907 0.68784 0.0
C483 C 0.53227 0.12787 0.73401 0.0
H484 H 0.05919 0.89396 0.68249 0.0
C485 C 0.072 0.84968 0.68834 0.0
H486 H 0.07556 0.74736 0.71997 0.0
H487 H 0.98616 0.69869 0.87766 0.0
H488 H 0.02107 0.70851 0.94273 0.0
H489 H 0.06238 0.75934 0.91389 0.0
H490 H 0.06968 0.79531 0.81832 0.0
C491 C 0.06293 0.79153 0.713 0.0
C492 C 0.0359 0.78434 0.73292 0.0
C493 C 0.03149 0.76764 0.78943 0.0
C494 C 0.00709 0.74355 0.80714 0.0
C495 C 1.00401 0.72031 0.86255 0.0
C496 C 0.02391 0.72547 0.90033 0.0
C497 C 0.0472 0.75372 0.88398 0.0
C498 C 0.05115 0.774 0.8291 0.0
H499 H 0.96576 0.62031 0.74725 0.0
C500 C 0.95386 0.65032 0.77513 0.0
H501 H 0.9505 0.74564 0.81712 0.0
H502 H 0.03646 0.81645 0.62137 0.0
H503 H 1.00048 0.81527 0.55922 0.0
H504 H 0.9577 0.77959 0.59182 0.0
H505 H 0.95065 0.74657 0.68757 0.0
C506 C 0.96131 0.71473 0.78826 0.0
C507 C 0.98654 0.74135 0.76933 0.0
C508 C 0.99029 0.76263 0.7137 0.0
C509 C 0.01503 0.78361 0.69516 0.0
C510 C 0.01823 0.80156 0.63862 0.0
C511 C 0.99766 0.80069 0.60213 0.0
C512 C 0.97356 0.78076 0.62047 0.0
C513 C 0.9698 0.76186 0.67554 0.0
H514 H 0.48069 0.91623 0.21879 0.0
C515 C 0.46338 0.88829 0.2083 0.0
H516 H 0.44299 0.79466 0.21236 0.0
H517 H 0.5339 0.58024 0.21036 0.0
H518 H 0.50477 0.53681 0.14171 0.0
H519 H 0.46534 0.60104 0.11786 0.0
H520 H 0.45481 0.70876 0.16217 0.0
C521 C 0.46105 0.8196 0.22149 0.0
C522 C 0.4827 0.77442 0.24267 0.0
C523 C 0.48833 0.70999 0.21674 0.0
C524 C 0.51121 0.67251 0.23042 0.0
C525 C 0.51677 0.61022 0.2023 0.0
C526 C 0.50019 0.58462 0.16266 0.0
C527 C 0.47796 0.6207 0.14934 0.0
C528 C 0.47209 0.68276 0.17554 0.0
H529 H 0.54635 0.57683 0.31608 0.0
C530 C 0.56145 0.60861 0.29791 0.0
H531 H 0.57035 0.70559 0.26024 0.0
H532 H 0.47207 0.87619 0.31678 0.0
H533 H 0.49891 0.91203 0.39272 0.0
H534 H 0.53983 0.85234 0.41225 0.0
H535 H 0.55383 0.7549 0.35676 0.0
C536 C 0.55527 0.6711 0.27471 0.0
C537 C 0.5284 0.69891 0.27016 0.0
C538 C 0.52104 0.75801 0.30089 0.0
C539 C 0.49792 0.7946 0.28812 0.0
C540 C 0.49016 0.8496 0.32253 0.0
C541 C 0.50523 0.87003 0.3667 0.0
C542 C 0.52824 0.83625 0.37778 0.0
C543 C 0.53614 0.7808 0.34544 0.0
H544 H 0.03397 0.95415 0.10557 0.0
C545 C 0.04943 0.936 0.07941 0.0
H546 H 0.06008 0.86672 0.0166 0.0
H547 H 0.95777 0.69992 0.10569 0.0
H548 H 0.9787 0.69246 0.19476 0.0
H549 H 0.01893 0.75556 0.21149 0.0
H550 H 0.03828 0.82681 0.13977 0.0
C551 C 0.04479 0.88544 0.04281 0.0
C552 C 0.01915 0.85258 0.0358 0.0
C553 C 0.00876 0.80821 0.07767 0.0
C554 C 0.98605 0.76959 0.06744 0.0
C555 C 0.97543 0.72836 0.11065 0.0
C556 C 0.98717 0.72392 0.16209 0.0
C557 C 0.00977 0.75959 0.17154 0.0
C558 C 0.02064 0.80078 0.1299 0.0
H559 H 0.96632 0.63094 0.00654 0.0
C560 C 0.94964 0.6631 0.99793 0.0
H561 H 0.93361 0.76472 0.99486 0.0
H562 H 0.03236 0.93789 0.94881 0.0
H563 H 0.00932 0.95239 0.86241 0.0
H564 H 0.96942 0.8878 0.84578 0.0
H565 H 0.95274 0.80671 0.91439 0.0
C566 C 0.95053 0.73339 0.00348 0.0
C567 C 0.97408 0.7741 0.01516 0.0
C568 C 0.98316 0.82307 0.97509 0.0
C569 C 0.00599 0.86118 0.98498 0.0
C570 C 0.01512 0.90766 0.94341 0.0
C571 C 1.00201 0.91682 0.89378 0.0
C572 C 0.97951 0.8806 0.88446 0.0
C573 C 0.97011 0.83424 0.9244 0.0
H574 H 0.57047 0.49903 0.51574 0.0
C575 C 0.57724 0.46612 0.48281 0.0
H576 H 0.56822 0.3869 0.42638 0.0
H577 H 0.48756 0.25689 0.60197 0.0
H578 H 0.52518 0.23457 0.65863 0.0
H579 H 0.56743 0.27697 0.63181 0.0
H580 H 0.57277 0.34986 0.55027 0.0
C581 C 0.5615 0.41679 0.46122 0.0
C582 C 0.5351 0.39695 0.48178 0.0
C583 C 0.53228 0.34979 0.52692 0.0
C584 C 0.50776 0.32038 0.54043 0.0
C585 C 0.50569 0.2783 0.5885 0.0
C586 C 0.52703 0.26452 0.62127 0.0
C587 C 0.55096 0.28934 0.60639 0.0
C588 C 0.55372 0.3312 0.55956 0.0
H589 H 0.46638 0.20715 0.48074 0.0
C590 C 0.45296 0.23631 0.50573 0.0
H591 H 0.44666 0.33302 0.54435 0.0
H592 H 0.53269 0.49031 0.3967 0.0
H593 H 0.49482 0.52493 0.34509 0.0
H594 H 0.45277 0.47301 0.36673 0.0
H595 H 0.44826 0.3852 0.43977 0.0
C596 C 0.45996 0.30179 0.52087 0.0
C597 C 0.48591 0.33447 0.50696 0.0
C598 C 0.48855 0.38489 0.46343 0.0
C599 C 0.513 0.41557 0.45087 0.0
C600 C 0.51475 0.46546 0.40744 0.0
C601 C 0.49316 0.48587 0.37768 0.0
C602 C 0.46947 0.45656 0.38992 0.0
C603 C 0.46712 0.40633 0.43194 0.0
H604 H 0.42625 0.67206 0.99944 0.0
C605 C 0.42838 0.7272 0.00759 0.0
H606 H 0.45377 0.81303 0.01038 0.0
H607 H 0.55352 0.62732 0.03399 0.0
H608 H 0.55525 0.69766 0.1157 0.0
H609 H 0.52107 0.78212 0.13585 0.0
H610 H 0.48366 0.79183 0.07721 0.0
C611 C 0.45144 0.75827 0.00082 0.0
C612 C 0.47464 0.71928 0.98266 0.0
C613 C 0.49638 0.71459 0.01742 0.0
C614 C 0.51679 0.66851 0.00415 0.0
C615 C 0.5377 0.66241 0.04113 0.0
C616 C 0.53905 0.70285 0.08814 0.0
C617 C 0.51972 0.75011 0.09964 0.0
C618 C 0.49836 0.75522 0.06547 0.0
H619 H 0.55242 0.62946 0.87203 0.0
C620 C 0.55516 0.58927 0.90357 0.0
H621 H 0.54037 0.53857 0.97412 0.0
H622 H 0.44083 0.73832 0.89811 0.0
H623 H 0.44107 0.67894 0.81066 0.0
H624 H 0.47461 0.5927 0.78953 0.0
H625 H 0.50884 0.56779 0.85485 0.0
C626 C 0.53734 0.57957 0.94333 0.0
C627 C 0.51622 0.63038 0.95437 0.0
C628 C 0.49556 0.64068 0.91705 0.0
C629 C 0.47515 0.68668 0.9307 0.0
C630 C 0.45586 0.70059 0.8911 0.0
C631 C 0.45591 0.66737 0.84056 0.0
C632 C 0.47492 0.61919 0.82857 0.0
C633 C 0.49453 0.60562 0.86628 0.0
H634 H 0.07309 0.04273 0.52847 0.0
C635 C 0.08217 0.09276 0.53548 0.0
H636 H 0.07649 0.20168 0.53575 0.0
H637 H 0.97632 0.16966 0.38328 0.0
H638 H 0.00737 0.18165 0.31 0.0
H639 H 0.05361 0.18049 0.32993 0.0
H640 H 0.06905 0.16492 0.42375 0.0
C641 C 0.06799 0.15089 0.52935 0.0
C642 C 0.03997 0.14745 0.51629 0.0
C643 C 0.03111 0.16005 0.46174 0.0
C644 C 1.00432 0.16355 0.45046 0.0
C645 C 0.99626 0.17063 0.39488 0.0
C646 C 0.01394 0.17689 0.35213 0.0
C647 C 0.03997 0.17589 0.36336 0.0
C648 C 0.04858 0.1673 0.41741 0.0
H649 H 0.96015 0.26461 0.44312 0.0
C650 C 0.94783 0.22369 0.45964 0.0
H651 H 0.94502 0.12838 0.50182 0.0
H652 H 0.05011 0.10758 0.62292 0.0
H653 H 0.01919 0.08755 0.69586 0.0
H654 H 0.97309 0.10455 0.67893 0.0
H655 H 0.95756 0.1389 0.58867 0.0
C656 C 0.95806 0.16681 0.48434 0.0
C657 C 0.98629 0.15781 0.49431 0.0
C658 C 0.99521 0.14101 0.54844 0.0
C659 C 0.02196 0.13419 0.559 0.0
C660 C 0.03013 0.11472 0.6128 0.0
C661 C 0.01258 0.10311 0.65516 0.0
C662 C 0.98662 0.11236 0.64555 0.0
C663 C 0.97795 0.13164 0.59315 0.0
loop_
_geom_bond_atom_site_label_1
_geom_bond_atom_site_label_2
_geom_bond_distance
_geom_bond_site_symmetry_2
_ccdc_geom_bond_type
Cu0 N1 1.999 . S
Cu0 O6 1.974 . S
Cu0 N11 1.985 . S
Cu0 O20 1.959 . S
N1 Cu0 1.999 . S
N1 C3 1.263 . S
N1 C5 1.389 . S
N2 C3 1.358 . S
N2 C4 1.400 . S
C3 N1 1.263 . S
C3 N2 1.358 . S
C3 H9 0.930 . S
C4 N2 1.400 . S
C4 C5 1.351 . S
C4 H21 0.930 . S
C5 N1 1.389 . S
C5 C4 1.351 . S
C5 H10 0.930 . S
O6 Cu0 1.974 . S
O6 C16 1.282 . S
C7 O8 1.261 . S
C7 O20 1.251 . S
O8 C7 1.261 . S
H9 C3 0.930 . S
H10 C5 0.930 . S
N11 Cu0 1.985 . S
N11 C13 1.335 . S
N11 C14 1.390 . S
N12 C13 1.345 . S
N12 C15 1.336 . S
C13 N11 1.335 . S
C13 N12 1.345 . S
C13 H18 0.930 . S
C14 N11 1.390 . S
C14 C15 1.346 . S
C14 H19 0.930 . S
C15 N12 1.336 . S
C15 C14 1.346 . S
C15 H22 0.929 1_554 S
C16 O6 1.282 . S
C16 O17 1.216 . S
O17 C16 1.216 . S
H18 C13 0.930 . S
H19 C14 0.930 . S
O20 Cu0 1.959 . S
O20 C7 1.251 . S
H21 C4 0.930 . S
H22 C15 0.929 1_556 S
Cu23 N24 1.999 . S
Cu23 O29 1.974 . S
Cu23 N34 1.985 . S
Cu23 O43 1.959 . S
N24 Cu23 1.999 . S
N24 C26 1.263 . S
N24 C28 1.389 . S
N25 C26 1.358 . S
N25 C27 1.400 . S
C26 N24 1.263 . S
C26 N25 1.358 . S
C26 H32 0.930 . S
C27 N25 1.400 . S
C27 C28 1.351 . S
C27 H44 0.930 . S
C28 N24 1.389 . S
C28 C27 1.351 . S
C28 H33 0.930 . S
O29 Cu23 1.974 . S
O29 C39 1.282 . S
C30 O31 1.261 . S
C30 O43 1.251 . S
O31 C30 1.261 . S
H32 C26 0.930 . S
H33 C28 0.930 . S
N34 Cu23 1.985 . S
N34 C36 1.335 . S
N34 C37 1.390 . S
N35 C36 1.345 . S
N35 C38 1.336 . S
C36 N34 1.335 . S
C36 N35 1.345 . S
C36 H41 0.930 . S
C37 N34 1.390 . S
C37 C38 1.346 . S
C37 H42 0.930 . S
C38 N35 1.336 . S
C38 C37 1.346 . S
C38 H45 0.929 . S
C39 O29 1.282 . S
C39 O40 1.216 . S
O40 C39 1.216 . S
H41 C36 0.930 . S
H42 C37 0.930 . S
O43 Cu23 1.959 . S
O43 C30 1.251 . S
H44 C27 0.930 . S
H45 C38 0.929 . S
Cu46 N47 1.999 . S
Cu46 O52 1.974 . S
Cu46 N57 1.985 . S
Cu46 O66 1.959 . S
N47 Cu46 1.999 . S
N47 C49 1.263 . S
N47 C51 1.389 . S
N48 C49 1.358 . S
N48 C50 1.400 . S
C49 N47 1.263 . S
C49 N48 1.358 . S
C49 H55 0.930 . S
C50 N48 1.400 . S
C50 C51 1.351 . S
C50 H67 0.930 . S
C51 N47 1.389 . S
C51 C50 1.351 . S
C51 H56 0.930 . S
O52 Cu46 1.974 . S
O52 C62 1.282 . S
C53 O54 1.261 . S
C53 O66 1.251 . S
O54 C53 1.261 . S
H55 C49 0.930 . S
H56 C51 0.930 . S
N57 Cu46 1.985 . S
N57 C59 1.335 . S
N57 C60 1.390 . S
N58 C59 1.345 . S
N58 C61 1.336 . S
C59 N57 1.335 . S
C59 N58 1.345 . S
C59 H64 0.930 . S
C60 N57 1.390 . S
C60 C61 1.346 . S
C60 H65 0.930 . S
C61 N58 1.336 . S
C61 C60 1.346 . S
C61 H68 0.929 1_556 S
C62 O52 1.282 . S
C62 O63 1.216 . S
O63 C62 1.216 . S
H64 C59 0.930 . S
H65 C60 0.930 . S
O66 Cu46 1.959 . S
O66 C53 1.251 . S
H67 C50 0.930 . S
H68 C61 0.929 1_554 S
Cu69 N70 1.999 . S
Cu69 O75 1.974 . S
Cu69 N80 1.985 . S
Cu69 O89 1.959 . S
N70 Cu69 1.999 . S
N70 C72 1.263 . S
N70 C74 1.389 . S
N71 C72 1.358 . S
N71 C73 1.400 . S
C72 N70 1.263 . S
C72 N71 1.358 . S
C72 H78 0.930 . S
C73 N71 1.400 . S
C73 C74 1.351 . S
C73 H90 0.930 . S
C74 N70 1.389 . S
C74 C73 1.351 . S
C74 H79 0.930 . S
O75 Cu69 1.974 . S
O75 C85 1.282 . S
C76 O77 1.261 . S
C76 O89 1.251 . S
O77 C76 1.261 . S
H78 C72 0.930 . S
H79 C74 0.930 . S
N80 Cu69 1.985 . S
N80 C82 1.335 . S
N80 C83 1.390 . S
N81 C82 1.345 . S
N81 C84 1.336 . S
C82 N80 1.335 . S
C82 N81 1.345 . S
C82 H87 0.930 . S
C83 N80 1.390 . S
C83 C84 1.346 . S
C83 H88 0.930 . S
C84 N81 1.336 . S
C84 C83 1.346 . S
C84 H91 0.929 . S
C85 O75 1.282 . S
C85 O86 1.216 . S
O86 C85 1.216 . S
H87 C82 0.930 . S
H88 C83 0.930 . S
O89 Cu69 1.959 . S
O89 C76 1.251 . S
H90 C73 0.930 . S
H91 C84 0.929 . S
Cu92 N93 1.999 . S
Cu92 O98 1.974 . S
Cu92 N103 1.985 . S
Cu92 O112 1.959 . S
N93 Cu92 1.999 . S
N93 C95 1.263 . S
N93 C97 1.389 . S
N94 C95 1.358 . S
N94 C96 1.400 . S
C95 N93 1.263 . S
C95 N94 1.358 . S
C95 H101 0.930 . S
C96 N94 1.400 . S
C96 C97 1.351 . S
C96 H113 0.930 . S
C97 N93 1.389 . S
C97 C96 1.351 . S
C97 H102 0.930 . S
O98 Cu92 1.974 . S
O98 C108 1.282 . S
C99 O100 1.261 . S
C99 O112 1.251 . S
O100 C99 1.261 . S
H101 C95 0.930 . S
H102 C97 0.930 . S
N103 Cu92 1.985 . S
N103 C105 1.335 . S
N103 C106 1.390 1_556 S
N104 C105 1.345 1_554 S
N104 C107 1.336 . S
C105 N103 1.335 . S
C105 N104 1.345 1_556 S
C105 H110 0.930 . S
C106 N103 1.390 1_554 S
C106 C107 1.346 . S
C106 H111 0.930 . S
C107 N104 1.336 . S
C107 C106 1.346 . S
C107 H114 0.929 . S
C108 O98 1.282 . S
C108 O109 1.216 . S
O109 C108 1.216 . S
H110 C105 0.930 . S
H111 C106 0.930 . S
O112 Cu92 1.959 . S
O112 C99 1.251 . S
H113 C96 0.930 . S
H114 C107 0.929 . S
Cu115 N116 1.999 . S
Cu115 O121 1.974 . S
Cu115 N126 1.985 . S
Cu115 O135 1.959 . S
N116 Cu115 1.999 . S
N116 C118 1.263 . S
N116 C120 1.389 . S
N117 C118 1.358 . S
N117 C119 1.400 . S
C118 N116 1.263 . S
C118 N117 1.358 . S
C118 H124 0.930 . S
C119 N117 1.400 . S
C119 C120 1.351 . S
C119 H136 0.930 . S
C120 N116 1.389 . S
C120 C119 1.351 . S
C120 H125 0.930 . S
O121 Cu115 1.974 . S
O121 C131 1.282 . S
C122 O123 1.261 . S
C122 O135 1.251 . S
O123 C122 1.261 . S
H124 C118 0.930 . S
H125 C120 0.930 . S
N126 Cu115 1.985 . S
N126 C128 1.335 . S
N126 C129 1.390 . S
N127 C128 1.345 . S
N127 C130 1.336 . S
C128 N126 1.335 . S
C128 N127 1.345 . S
C128 H133 0.930 . S
C129 N126 1.390 . S
C129 C130 1.346 . S
C129 H134 0.930 . S
C130 N127 1.336 . S
C130 C129 1.346 . S
C130 H137 0.929 . S
C131 O121 1.282 . S
C131 O132 1.216 . S
O132 C131 1.216 . S
H133 C128 0.930 . S
H134 C129 0.930 . S
O135 Cu115 1.959 . S
O135 C122 1.251 . S
H136 C119 0.930 . S
H137 C130 0.929 . S
Cu138 N139 1.999 . S
Cu138 O144 1.974 . S
Cu138 N149 1.985 . S
Cu138 O158 1.959 . S
N139 Cu138 1.999 . S
N139 C141 1.263 . S
N139 C143 1.389 . S
N140 C141 1.358 . S
N140 C142 1.400 . S
C141 N139 1.263 . S
C141 N140 1.358 . S
C141 H147 0.930 . S
C142 N140 1.400 . S
C142 C143 1.351 . S
C142 H159 0.930 . S
C143 N139 1.389 . S
C143 C142 1.351 . S
C143 H148 0.930 1_565 S
O144 Cu138 1.974 . S
O144 C154 1.282 . S
C145 O146 1.261 . S
C145 O158 1.251 . S
O146 C145 1.261 . S
H147 C141 0.930 . S
H148 C143 0.930 1_545 S
N149 Cu138 1.985 . S
N149 C151 1.335 . S
N149 C152 1.390 1_554 S
N150 C151 1.345 1_556 S
N150 C153 1.336 . S
C151 N149 1.335 . S
C151 N150 1.345 1_554 S
C151 H156 0.930 1_565 S
C152 N149 1.390 1_556 S
C152 C153 1.346 . S
C152 H157 0.930 . S
C153 N150 1.336 . S
C153 C152 1.346 . S
C153 H160 0.929 . S
C154 O144 1.282 . S
C154 O155 1.216 . S
O155 C154 1.216 . S
H156 C151 0.930 1_545 S
H157 C152 0.930 . S
O158 Cu138 1.959 . S
O158 C145 1.251 . S
H159 C142 0.930 . S
H160 C153 0.929 . S
Cu161 N162 1.999 . S
Cu161 O167 1.974 . S
Cu161 N172 1.985 . S
Cu161 O181 1.959 . S
N162 Cu161 1.999 . S
N162 C164 1.263 . S
N162 C166 1.389 . S
N163 C164 1.358 . S
N163 C165 1.400 . S
C164 N162 1.263 . S
C164 N163 1.358 . S
C164 H170 0.930 . S
C165 N163 1.400 . S
C165 C166 1.351 . S
C165 H182 0.930 . S
C166 N162 1.389 . S
C166 C165 1.351 . S
C166 H171 0.930 . S
O167 Cu161 1.974 . S
O167 C177 1.282 1_565 S
C168 O169 1.261 1_565 S
C168 O181 1.251 . S
O169 C168 1.261 1_545 S
H170 C164 0.930 . S
H171 C166 0.930 . S
N172 Cu161 1.985 . S
N172 C174 1.335 . S
N172 C175 1.390 1_565 S
N173 C174 1.345 1_545 S
N173 C176 1.336 . S
C174 N172 1.335 . S
C174 N173 1.345 1_565 S
C174 H179 0.930 . S
C175 N172 1.390 1_545 S
C175 C176 1.346 . S
C175 H180 0.930 . S
C176 N173 1.336 . S
C176 C175 1.346 . S
C176 H183 0.929 . S
C177 O167 1.282 1_545 S
C177 O178 1.216 . S
O178 C177 1.216 . S
H179 C174 0.930 . S
H180 C175 0.930 . S
O181 Cu161 1.959 . S
O181 C168 1.251 . S
H182 C165 0.930 . S
H183 C176 0.929 . S
H184 C185 0.951 . S
C185 H184 0.951 . S
C185 C191 1.265 . S
H186 C191 0.950 . S
H187 C195 0.949 1_554 S
H188 C196 0.950 1_554 S
H189 C197 0.951 . S
H190 C198 0.951 . S
C191 C185 1.265 . S
C191 H186 0.950 . S
C191 C192 1.478 . S
C192 C191 1.478 . S
C192 C193 1.397 . S
C192 C209 1.394 . S
C193 C192 1.397 . S
C193 C194 1.438 . S
C193 C198 1.429 . S
C194 C193 1.438 . S
C194 C195 1.428 . S
C194 C207 1.394 . S
C195 H187 0.949 1_556 S
C195 C194 1.428 . S
C195 C196 1.345 . S
C196 H188 0.950 1_556 S
C196 C195 1.345 . S
C196 C197 1.424 . S
C197 H189 0.951 . S
C197 C196 1.424 . S
C197 C198 1.347 . S
C198 H190 0.951 . S
C198 C193 1.429 . S
C198 C197 1.347 . S
H199 C200 0.951 . S
C200 H199 0.951 . S
C200 C206 1.265 1_554 S
H201 C206 0.950 . S
H202 C210 0.949 . S
H203 C211 0.950 . S
H204 C212 0.951 . S
H205 C213 0.951 . S
C206 C200 1.265 1_556 S
C206 H201 0.950 . S
C206 C207 1.478 . S
C207 C194 1.394 . S
C207 C206 1.478 . S
C207 C208 1.397 . S
C208 C207 1.397 . S
C208 C209 1.438 . S
C208 C213 1.429 1_545 S
C209 C192 1.394 . S
C209 C208 1.438 . S
C209 C210 1.428 1_545 S
C210 H202 0.949 . S
C210 C209 1.428 1_565 S
C210 C211 1.345 . S
C211 H203 0.950 . S
C211 C210 1.345 . S
C211 C212 1.424 . S
C212 H204 0.951 . S
C212 C211 1.424 . S
C212 C213 1.347 . S
C213 H205 0.951 . S
C213 C208 1.429 1_565 S
C213 C212 1.347 . S
H214 C215 0.951 . S
C215 H214 0.951 . S
C215 C221 1.265 . S
H216 C221 0.950 . S
H217 C225 0.949 . S
H218 C226 0.950 . S
H219 C227 0.951 . S
H220 C228 0.951 . S
C221 C215 1.265 . S
C221 H216 0.950 . S
C221 C222 1.478 . S
C222 C221 1.478 . S
C222 C223 1.397 . S
C222 C239 1.394 . S
C223 C222 1.397 . S
C223 C224 1.438 . S
C223 C228 1.429 . S
C224 C223 1.438 . S
C224 C225 1.428 . S
C224 C237 1.394 . S
C225 H217 0.949 . S
C225 C224 1.428 . S
C225 C226 1.345 . S
C226 H218 0.950 . S
C226 C225 1.345 . S
C226 C227 1.424 . S
C227 H219 0.951 . S
C227 C226 1.424 . S
C227 C228 1.347 . S
C228 H220 0.951 . S
C228 C223 1.429 . S
C228 C227 1.347 . S
H229 C230 0.951 . S
C230 H229 0.951 . S
C230 C236 1.265 . S
H231 C236 0.950 . S
H232 C240 0.949 . S
H233 C241 0.950 1_565 S
H234 C242 0.951 . S
H235 C243 0.951 . S
C236 C230 1.265 . S
C236 H231 0.950 . S
C236 C237 1.478 . S
C237 C224 1.394 . S
C237 C236 1.478 . S
C237 C238 1.397 . S
C238 C237 1.397 . S
C238 C239 1.438 . S
C238 C243 1.429 . S
C239 C222 1.394 . S
C239 C238 1.438 . S
C239 C240 1.428 . S
C240 H232 0.949 . S
C240 C239 1.428 . S
C240 C241 1.345 . S
C241 H233 0.950 1_545 S
C241 C240 1.345 . S
C241 C242 1.424 1_545 S
C242 H234 0.951 . S
C242 C241 1.424 1_565 S
C242 C243 1.347 1_565 S
C243 H235 0.951 . S
C243 C238 1.429 . S
C243 C242 1.347 1_545 S
H244 C245 0.951 . S
C245 H244 0.951 . S
C245 C251 1.265 . S
H246 C251 0.950 . S
H247 C255 0.949 . S
H248 C256 0.950 . S
H249 C257 0.951 . S
H250 C258 0.951 . S
C251 C245 1.265 . S
C251 H246 0.950 . S
C251 C252 1.478 . S
C252 C251 1.478 . S
C252 C253 1.397 . S
C252 C269 1.394 . S
C253 C252 1.397 . S
C253 C254 1.438 . S
C253 C258 1.429 . S
C254 C253 1.438 . S
C254 C255 1.428 . S
C254 C267 1.394 . S
C255 H247 0.949 . S
C255 C254 1.428 . S
C255 C256 1.345 . S
C256 H248 0.950 . S
C256 C255 1.345 . S
C256 C257 1.424 . S
C257 H249 0.951 . S
C257 C256 1.424 . S
C257 C258 1.347 . S
C258 H250 0.951 . S
C258 C253 1.429 . S
C258 C257 1.347 . S
H259 C260 0.951 1_554 S
C260 H259 0.951 1_556 S
C260 C266 1.265 . S
H261 C266 0.950 . S
H262 C270 0.949 . S
H263 C271 0.950 . S
H264 C272 0.951 . S
H265 C273 0.951 . S
C266 C260 1.265 . S
C266 H261 0.950 . S
C266 C267 1.478 1_556 S
C267 C254 1.394 . S
C267 C266 1.478 1_554 S
C267 C268 1.397 . S
C268 C267 1.397 . S
C268 C269 1.438 . S
C268 C273 1.429 1_554 S
C269 C252 1.394 . S
C269 C268 1.438 . S
C269 C270 1.428 . S
C270 H262 0.949 . S
C270 C269 1.428 . S
C270 C271 1.345 . S
C271 H263 0.950 . S
C271 C270 1.345 . S
C271 C272 1.424 1_554 S
C272 H264 0.951 . S
C272 C271 1.424 1_556 S
C272 C273 1.347 . S
C273 H265 0.951 . S
C273 C268 1.429 1_556 S
C273 C272 1.347 . S
H274 C275 0.951 . S
C275 H274 0.951 . S
C275 C281 1.265 . S
H276 C281 0.950 . S
H277 C285 0.949 . S
H278 C286 0.950 . S
H279 C287 0.951 . S
H280 C288 0.951 . S
C281 C275 1.265 . S
C281 H276 0.950 . S
C281 C282 1.478 . S
C282 C281 1.478 . S
C282 C283 1.397 . S
C282 C299 1.394 . S
C283 C282 1.397 . S
C283 C284 1.438 . S
C283 C288 1.429 . S
C284 C283 1.438 . S
C284 C285 1.428 . S
C284 C297 1.394 . S
C285 H277 0.949 . S
C285 C284 1.428 . S
C285 C286 1.345 . S
C286 H278 0.950 . S
C286 C285 1.345 . S
C286 C287 1.424 . S
C287 H279 0.951 . S
C287 C286 1.424 . S
C287 C288 1.347 . S
C288 H280 0.951 . S
C288 C283 1.429 . S
C288 C287 1.347 . S
H289 C290 0.951 . S
C290 H289 0.951 . S
C290 C296 1.265 . S
H291 C296 0.950 . S
H292 C300 0.949 . S
H293 C301 0.950 . S
H294 C302 0.951 . S
H295 C303 0.951 . S
C296 C290 1.265 . S
C296 H291 0.950 . S
C296 C297 1.478 . S
C297 C284 1.394 . S
C297 C296 1.478 . S
C297 C298 1.397 . S
C298 C297 1.397 . S
C298 C299 1.438 . S
C298 C303 1.429 . S
C299 C282 1.394 . S
C299 C298 1.438 . S
C299 C300 1.428 . S
C300 H292 0.949 . S
C300 C299 1.428 . S
C300 C301 1.345 . S
C301 H293 0.950 . S
C301 C300 1.345 . S
C301 C302 1.424 . S
C302 H294 0.951 . S
C302 C301 1.424 . S
C302 C303 1.347 . S
C303 H295 0.951 . S
C303 C298 1.429 . S
C303 C302 1.347 . S
H304 C305 0.951 . S
C305 H304 0.951 . S
C305 C311 1.265 . S
H306 C311 0.950 . S
H307 C315 0.949 . S
H308 C316 0.950 . S
H309 C317 0.951 . S
H310 C318 0.951 . S
C311 C305 1.265 . S
C311 H306 0.950 . S
C311 C312 1.478 . S
C312 C311 1.478 . S
C312 C313 1.397 . S
C312 C329 1.394 . S
C313 C312 1.397 . S
C313 C314 1.438 . S
C313 C318 1.429 . S
C314 C313 1.438 . S
C314 C315 1.428 . S
C314 C327 1.394 . S
C315 H307 0.949 . S
C315 C314 1.428 . S
C315 C316 1.345 . S
C316 H308 0.950 . S
C316 C315 1.345 . S
C316 C317 1.424 . S
C317 H309 0.951 . S
C317 C316 1.424 . S
C317 C318 1.347 . S
C318 H310 0.951 . S
C318 C313 1.429 . S
C318 C317 1.347 . S
H319 C320 0.951 . S
C320 H319 0.951 . S
C320 C326 1.265 . S
H321 C326 0.950 . S
H322 C330 0.949 . S
H323 C331 0.950 . S
H324 C332 0.951 . S
H325 C333 0.951 . S
C326 C320 1.265 . S
C326 H321 0.950 . S
C326 C327 1.478 . S
C327 C314 1.394 . S
C327 C326 1.478 . S
C327 C328 1.397 . S
C328 C327 1.397 . S
C328 C329 1.438 . S
C328 C333 1.429 . S
C329 C312 1.394 . S
C329 C328 1.438 . S
C329 C330 1.428 . S
C330 H322 0.949 . S
C330 C329 1.428 . S
C330 C331 1.345 . S
C331 H323 0.950 . S
C331 C330 1.345 . S
C331 C332 1.424 . S
C332 H324 0.951 . S
C332 C331 1.424 . S
C332 C333 1.347 . S
C333 H325 0.951 . S
C333 C328 1.429 . S
C333 C332 1.347 . S
H334 C335 0.951 . S
C335 H334 0.951 . S
C335 C341 1.265 . S
H336 C341 0.950 . S
H337 C345 0.949 . S
H338 C346 0.950 . S
H339 C347 0.951 . S
H340 C348 0.951 . S
C341 C335 1.265 . S
C341 H336 0.950 . S
C341 C342 1.478 . S
C342 C341 1.478 . S
C342 C343 1.397 . S
C342 C359 1.394 . S
C343 C342 1.397 . S
C343 C344 1.438 . S
C343 C348 1.429 . S
C344 C343 1.438 . S
C344 C345 1.428 . S
C344 C357 1.394 . S
C345 H337 0.949 . S
C345 C344 1.428 . S
C345 C346 1.345 . S
C346 H338 0.950 . S
C346 C345 1.345 . S
C346 C347 1.424 . S
C347 H339 0.951 . S
C347 C346 1.424 . S
C347 C348 1.347 . S
C348 H340 0.951 . S
C348 C343 1.429 . S
C348 C347 1.347 . S
H349 C350 0.951 . S
C350 H349 0.951 . S
C350 C356 1.265 . S
H351 C356 0.950 . S
H352 C360 0.949 . S
H353 C361 0.950 . S
H354 C362 0.951 . S
H355 C363 0.951 . S
C356 C350 1.265 . S
C356 H351 0.950 . S
C356 C357 1.478 . S
C357 C344 1.394 . S
C357 C356 1.478 . S
C357 C358 1.397 . S
C358 C357 1.397 . S
C358 C359 1.438 . S
C358 C363 1.429 . S
C359 C342 1.394 . S
C359 C358 1.438 . S
C359 C360 1.428 . S
C360 H352 0.949 . S
C360 C359 1.428 . S
C360 C361 1.345 . S
C361 H353 0.950 . S
C361 C360 1.345 . S
C361 C362 1.424 . S
C362 H354 0.951 . S
C362 C361 1.424 . S
C362 C363 1.347 . S
C363 H355 0.951 . S
C363 C358 1.429 . S
C363 C362 1.347 . S
H364 C365 0.951 1_545 S
C365 H364 0.951 1_565 S
C365 C371 1.265 . S
H366 C371 0.950 . S
H367 C375 0.949 . S
H368 C376 0.950 . S
H369 C377 0.951 . S
H370 C378 0.951 . S
C371 C365 1.265 . S
C371 H366 0.950 . S
C371 C372 1.478 . S
C372 C371 1.478 . S
C372 C373 1.397 . S
C372 C389 1.394 1_565 S
C373 C372 1.397 . S
C373 C374 1.438 . S
C373 C378 1.429 . S
C374 C373 1.438 . S
C374 C375 1.428 . S
C374 C387 1.394 . S
C375 H367 0.949 . S
C375 C374 1.428 . S
C375 C376 1.345 . S
C376 H368 0.950 . S
C376 C375 1.345 . S
C376 C377 1.424 . S
C377 H369 0.951 . S
C377 C376 1.424 . S
C377 C378 1.347 . S
C378 H370 0.951 . S
C378 C373 1.429 . S
C378 C377 1.347 . S
H379 C380 0.951 . S
C380 H379 0.951 . S
C380 C386 1.265 . S
H381 C386 0.950 1_545 S
H382 C390 0.949 . S
H383 C391 0.950 . S
H384 C392 0.951 . S
H385 C393 0.951 . S
C386 C380 1.265 . S
C386 H381 0.950 1_565 S
C386 C387 1.478 . S
C387 C374 1.394 . S
C387 C386 1.478 . S
C387 C388 1.397 1_565 S
C388 C387 1.397 1_545 S
C388 C389 1.438 . S
C388 C393 1.429 . S
C389 C372 1.394 1_545 S
C389 C388 1.438 . S
C389 C390 1.428 . S
C390 H382 0.949 . S
C390 C389 1.428 . S
C390 C391 1.345 . S
C391 H383 0.950 . S
C391 C390 1.345 . S
C391 C392 1.424 . S
C392 H384 0.951 . S
C392 C391 1.424 . S
C392 C393 1.347 . S
C393 H385 0.951 . S
C393 C388 1.429 . S
C393 C392 1.347 . S
H394 C395 0.951 . S
C395 H394 0.951 . S
C395 C401 1.265 . S
H396 C401 0.950 . S
H397 C405 0.949 . S
H398 C406 0.950 . S
H399 C407 0.951 . S
H400 C408 0.951 . S
C401 C395 1.265 . S
C401 H396 0.950 . S
C401 C402 1.478 . S
C402 C401 1.478 . S
C402 C403 1.397 1_565 S
C402 C419 1.394 . S
C403 C402 1.397 1_545 S
C403 C404 1.438 . S
C403 C408 1.429 . S
C404 C403 1.438 . S
C404 C405 1.428 . S
C404 C417 1.394 1_545 S
C405 H397 0.949 . S
C405 C404 1.428 . S
C405 C406 1.345 . S
C406 H398 0.950 . S
C406 C405 1.345 . S
C406 C407 1.424 . S
C407 H399 0.951 . S
C407 C406 1.424 . S
C407 C408 1.347 . S
C408 H400 0.951 . S
C408 C403 1.429 . S
C408 C407 1.347 . S
H409 C410 0.951 . S
C410 H409 0.951 . S
C410 C416 1.265 1_545 S
H411 C416 0.950 . S
H412 C420 0.949 . S
H413 C421 0.950 . S
H414 C422 0.951 . S
H415 C423 0.951 . S
C416 C410 1.265 1_565 S
C416 H411 0.950 . S
C416 C417 1.478 . S
C417 C404 1.394 1_565 S
C417 C416 1.478 . S
C417 C418 1.397 . S
C418 C417 1.397 . S
C418 C419 1.438 . S
C418 C423 1.429 . S
C419 C402 1.394 . S
C419 C418 1.438 . S
C419 C420 1.428 . S
C420 H412 0.949 . S
C420 C419 1.428 . S
C420 C421 1.345 . S
C421 H413 0.950 . S
C421 C420 1.345 . S
C421 C422 1.424 . S
C422 H414 0.951 . S
C422 C421 1.424 . S
C422 C423 1.347 . S
C423 H415 0.951 . S
C423 C418 1.429 . S
C423 C422 1.347 . S
H424 C425 0.951 . S
C425 H424 0.951 . S
C425 C431 1.265 . S
H426 C431 0.950 . S
H427 C435 0.949 . S
H428 C436 0.950 . S
H429 C437 0.951 . S
H430 C438 0.951 1_455 S
C431 C425 1.265 . S
C431 H426 0.950 . S
C431 C432 1.478 . S
C432 C431 1.478 . S
C432 C433 1.397 1_455 S
C432 C449 1.394 . S
C433 C432 1.397 1_655 S
C433 C434 1.438 . S
C433 C438 1.429 . S
C434 C433 1.438 . S
C434 C435 1.428 . S
C434 C447 1.394 . S
C435 H427 0.949 . S
C435 C434 1.428 . S
C435 C436 1.345 . S
C436 H428 0.950 . S
C436 C435 1.345 . S
C436 C437 1.424 . S
C437 H429 0.951 . S
C437 C436 1.424 . S
C437 C438 1.347 . S
C438 H430 0.951 1_655 S
C438 C433 1.429 . S
C438 C437 1.347 . S
H439 C440 0.951 . S
C440 H439 0.951 . S
C440 C446 1.265 . S
H441 C446 0.950 . S
H442 C450 0.949 . S
H443 C451 0.950 . S
H444 C452 0.951 . S
H445 C453 0.951 . S
C446 C440 1.265 . S
C446 H441 0.950 . S
C446 C447 1.478 . S
C447 C434 1.394 . S
C447 C446 1.478 . S
C447 C448 1.397 . S
C448 C447 1.397 . S
C448 C449 1.438 1_655 S
C448 C453 1.429 . S
C449 C432 1.394 . S
C449 C448 1.438 1_455 S
C449 C450 1.428 . S
C450 H442 0.949 . S
C450 C449 1.428 . S
C450 C451 1.345 . S
C451 H443 0.950 . S
C451 C450 1.345 . S
C451 C452 1.424 . S
C452 H444 0.951 . S
C452 C451 1.424 . S
C452 C453 1.347 1_455 S
C453 H445 0.951 . S
C453 C448 1.429 . S
C453 C452 1.347 1_655 S
H454 C455 0.951 . S
C455 H454 0.951 . S
C455 C461 1.265 . S
H456 C461 0.950 . S
H457 C465 0.949 . S
H458 C466 0.950 . S
H459 C467 0.951 . S
H460 C468 0.951 . S
C461 C455 1.265 . S
C461 H456 0.950 . S
C461 C462 1.478 . S
C462 C461 1.478 . S
C462 C463 1.397 . S
C462 C479 1.394 . S
C463 C462 1.397 . S
C463 C464 1.438 . S
C463 C468 1.429 . S
C464 C463 1.438 . S
C464 C465 1.428 . S
C464 C477 1.394 . S
C465 H457 0.949 . S
C465 C464 1.428 . S
C465 C466 1.345 . S
C466 H458 0.950 . S
C466 C465 1.345 . S
C466 C467 1.424 . S
C467 H459 0.951 . S
C467 C466 1.424 . S
C467 C468 1.347 . S
C468 H460 0.951 . S
C468 C463 1.429 . S
C468 C467 1.347 . S
H469 C470 0.951 . S
C470 H469 0.951 . S
C470 C476 1.265 . S
H471 C476 0.950 . S
H472 C480 0.949 . S
H473 C481 0.950 . S
H474 C482 0.951 . S
H475 C483 0.951 . S
C476 C470 1.265 . S
C476 H471 0.950 . S
C476 C477 1.478 . S
C477 C464 1.394 . S
C477 C476 1.478 . S
C477 C478 1.397 . S
C478 C477 1.397 . S
C478 C479 1.438 . S
C478 C483 1.429 . S
C479 C462 1.394 . S
C479 C478 1.438 . S
C479 C480 1.428 . S
C480 H472 0.949 . S
C480 C479 1.428 . S
C480 C481 1.345 . S
C481 H473 0.950 . S
C481 C480 1.345 . S
C481 C482 1.424 . S
C482 H474 0.951 . S
C482 C481 1.424 . S
C482 C483 1.347 . S
C483 H475 0.951 . S
C483 C478 1.429 . S
C483 C482 1.347 . S
H484 C485 0.951 . S
C485 H484 0.951 . S
C485 C491 1.265 . S
H486 C491 0.950 . S
H487 C495 0.949 1_655 S
H488 C496 0.950 . S
H489 C497 0.951 . S
H490 C498 0.951 . S
C491 C485 1.265 . S
C491 H486 0.950 . S
C491 C492 1.478 . S
C492 C491 1.478 . S
C492 C493 1.397 . S
C492 C509 1.394 . S
C493 C492 1.397 . S
C493 C494 1.438 . S
C493 C498 1.429 . S
C494 C493 1.438 . S
C494 C495 1.428 . S
C494 C507 1.394 1_455 S
C495 H487 0.949 1_455 S
C495 C494 1.428 . S
C495 C496 1.345 . S
C496 H488 0.950 . S
C496 C495 1.345 . S
C496 C497 1.424 . S
C497 H489 0.951 . S
C497 C496 1.424 . S
C497 C498 1.347 . S
C498 H490 0.951 . S
C498 C493 1.429 . S
C498 C497 1.347 . S
H499 C500 0.951 . S
C500 H499 0.951 . S
C500 C506 1.265 . S
H501 C506 0.950 . S
H502 C510 0.949 . S
H503 C511 0.950 . S
H504 C512 0.951 . S
H505 C513 0.951 . S
C506 C500 1.265 . S
C506 H501 0.950 . S
C506 C507 1.478 . S
C507 C494 1.394 1_655 S
C507 C506 1.478 . S
C507 C508 1.397 . S
C508 C507 1.397 . S
C508 C509 1.438 1_655 S
C508 C513 1.429 . S
C509 C492 1.394 . S
C509 C508 1.438 1_455 S
C509 C510 1.428 . S
C510 H502 0.949 . S
C510 C509 1.428 . S
C510 C511 1.345 1_455 S
C511 H503 0.950 . S
C511 C510 1.345 1_655 S
C511 C512 1.424 . S
C512 H504 0.951 . S
C512 C511 1.424 . S
C512 C513 1.347 . S
C513 H505 0.951 . S
C513 C508 1.429 . S
C513 C512 1.347 . S
H514 C515 0.951 . S
C515 H514 0.951 . S
C515 C521 1.265 . S
H516 C521 0.950 . S
H517 C525 0.949 . S
H518 C526 0.950 . S
H519 C527 0.951 . S
H520 C528 0.951 . S
C521 C515 1.265 . S
C521 H516 0.950 . S
C521 C522 1.478 . S
C522 C521 1.478 . S
C522 C523 1.397 . S
C522 C539 1.394 . S
C523 C522 1.397 . S
C523 C524 1.438 . S
C523 C528 1.429 . S
C524 C523 1.438 . S
C524 C525 1.428 . S
C524 C537 1.394 . S
C525 H517 0.949 . S
C525 C524 1.428 . S
C525 C526 1.345 . S
C526 H518 0.950 . S
C526 C525 1.345 . S
C526 C527 1.424 . S
C527 H519 0.951 . S
C527 C526 1.424 . S
C527 C528 1.347 . S
C528 H520 0.951 . S
C528 C523 1.429 . S
C528 C527 1.347 . S
H529 C530 0.951 . S
C530 H529 0.951 . S
C530 C536 1.265 . S
H531 C536 0.950 . S
H532 C540 0.949 . S
H533 C541 0.950 . S
H534 C542 0.951 . S
H535 C543 0.951 . S
C536 C530 1.265 . S
C536 H531 0.950 . S
C536 C537 1.478 . S
C537 C524 1.394 . S
C537 C536 1.478 . S
C537 C538 1.397 . S
C538 C537 1.397 . S
C538 C539 1.438 . S
C538 C543 1.429 . S
C539 C522 1.394 . S
C539 C538 1.438 . S
C539 C540 1.428 . S
C540 H532 0.949 . S
C540 C539 1.428 . S
C540 C541 1.345 . S
C541 H533 0.950 . S
C541 C540 1.345 . S
C541 C542 1.424 . S
C542 H534 0.951 . S
C542 C541 1.424 . S
C542 C543 1.347 . S
C543 H535 0.951 . S
C543 C538 1.429 . S
C543 C542 1.347 . S
H544 C545 0.951 . S
C545 H544 0.951 . S
C545 C551 1.265 . S
H546 C551 0.950 . S
H547 C555 0.949 . S
H548 C556 0.950 . S
H549 C557 0.951 . S
H550 C558 0.951 . S
C551 C545 1.265 . S
C551 H546 0.950 . S
C551 C552 1.478 . S
C552 C551 1.478 . S
C552 C553 1.397 1_455 S
C552 C569 1.394 1_454 S
C553 C552 1.397 1_655 S
C553 C554 1.436 . S
C553 C558 1.430 1_655 S
C554 C553 1.436 . S
C554 C555 1.428 . S
C554 C567 1.394 . S
C555 H547 0.949 . S
C555 C554 1.428 . S
C555 C556 1.345 . S
C556 H548 0.950 . S
C556 C555 1.345 . S
C556 C557 1.424 1_655 S
C557 H549 0.951 . S
C557 C556 1.424 1_455 S
C557 C558 1.347 . S
C558 H550 0.951 . S
C558 C553 1.430 1_455 S
C558 C557 1.347 . S
H559 C560 0.951 . S
C560 H559 0.951 . S
C560 C566 1.265 . S
H561 C566 0.950 1_556 S
H562 C570 0.949 . S
H563 C571 0.950 . S
H564 C572 0.951 . S
H565 C573 0.951 . S
C566 C560 1.265 . S
C566 H561 0.950 1_554 S
C566 C567 1.478 . S
C567 C554 1.394 . S
C567 C566 1.478 . S
C567 C568 1.397 1_554 S
C568 C567 1.397 1_556 S
C568 C569 1.438 . S
C568 C573 1.429 . S
C569 C552 1.394 1_656 S
C569 C568 1.438 . S
C569 C570 1.428 1_655 S
C570 H562 0.949 . S
C570 C569 1.428 1_455 S
C570 C571 1.345 1_455 S
C571 H563 0.950 . S
C571 C570 1.345 1_655 S
C571 C572 1.424 . S
C572 H564 0.951 . S
C572 C571 1.424 . S
C572 C573 1.347 . S
C573 H565 0.951 . S
C573 C568 1.429 . S
C573 C572 1.347 . S
H574 C575 0.951 . S
C575 H574 0.951 . S
C575 C581 1.265 . S
H576 C581 0.950 . S
H577 C585 0.949 . S
H578 C586 0.950 . S
H579 C587 0.951 . S
H580 C588 0.951 . S
C581 C575 1.265 . S
C581 H576 0.950 . S
C581 C582 1.478 . S
C582 C581 1.478 . S
C582 C583 1.397 . S
C582 C599 1.394 . S
C583 C582 1.397 . S
C583 C584 1.438 . S
C583 C588 1.429 . S
C584 C583 1.438 . S
C584 C585 1.428 . S
C584 C597 1.394 . S
C585 H577 0.949 . S
C585 C584 1.428 . S
C585 C586 1.345 . S
C586 H578 0.950 . S
C586 C585 1.345 . S
C586 C587 1.424 . S
C587 H579 0.951 . S
C587 C586 1.424 . S
C587 C588 1.347 . S
C588 H580 0.951 . S
C588 C583 1.429 . S
C588 C587 1.347 . S
H589 C590 0.951 . S
C590 H589 0.951 . S
C590 C596 1.265 . S
H591 C596 0.950 . S
H592 C600 0.949 . S
H593 C601 0.950 . S
H594 C602 0.951 . S
H595 C603 0.951 . S
C596 C590 1.265 . S
C596 H591 0.950 . S
C596 C597 1.478 . S
C597 C584 1.394 . S
C597 C596 1.478 . S
C597 C598 1.397 . S
C598 C597 1.397 . S
C598 C599 1.438 . S
C598 C603 1.429 . S
C599 C582 1.394 . S
C599 C598 1.438 . S
C599 C600 1.428 . S
C600 H592 0.949 . S
C600 C599 1.428 . S
C600 C601 1.345 . S
C601 H593 0.950 . S
C601 C600 1.345 . S
C601 C602 1.424 . S
C602 H594 0.951 . S
C602 C601 1.424 . S
C602 C603 1.347 . S
C603 H595 0.951 . S
C603 C598 1.429 . S
C603 C602 1.347 . S
H604 C605 0.951 . S
C605 H604 0.951 . S
C605 C611 1.265 . S
H606 C611 0.950 1_554 S
H607 C615 0.949 . S
H608 C616 0.950 . S
H609 C617 0.951 . S
H610 C618 0.951 . S
C611 C605 1.265 . S
C611 H606 0.950 1_556 S
C611 C612 1.478 . S
C612 C611 1.478 . S
C612 C613 1.397 1_556 S
C612 C629 1.394 . S
C613 C612 1.397 1_554 S
C613 C614 1.438 . S
C613 C618 1.429 . S
C614 C613 1.438 . S
C614 C615 1.428 . S
C614 C627 1.394 1_554 S
C615 H607 0.949 . S
C615 C614 1.428 . S
C615 C616 1.345 . S
C616 H608 0.950 . S
C616 C615 1.345 . S
C616 C617 1.424 . S
C617 H609 0.951 . S
C617 C616 1.424 . S
C617 C618 1.347 . S
C618 H610 0.951 . S
C618 C613 1.429 . S
C618 C617 1.347 . S
H619 C620 0.951 . S
C620 H619 0.951 . S
C620 C626 1.265 . S
H621 C626 0.950 . S
H622 C630 0.949 . S
H623 C631 0.950 . S
H624 C632 0.951 . S
H625 C633 0.951 . S
C626 C620 1.265 . S
C626 H621 0.950 . S
C626 C627 1.478 . S
C627 C614 1.394 1_556 S
C627 C626 1.478 . S
C627 C628 1.397 . S
C628 C627 1.397 . S
C628 C629 1.438 . S
C628 C633 1.429 . S
C629 C612 1.394 . S
C629 C628 1.438 . S
C629 C630 1.428 . S
C630 H622 0.949 . S
C630 C629 1.428 . S
C630 C631 1.345 . S
C631 H623 0.950 . S
C631 C630 1.345 . S
C631 C632 1.424 . S
C632 H624 0.951 . S
C632 C631 1.424 . S
C632 C633 1.347 . S
C633 H625 0.951 . S
C633 C628 1.429 . S
C633 C632 1.347 . S
H634 C635 0.951 . S
C635 H634 0.951 . S
C635 C641 1.265 . S
H636 C641 0.950 . S
H637 C645 0.949 . S
H638 C646 0.954 . S
H639 C647 0.951 . S
H640 C648 0.951 . S
C641 C635 1.265 . S
C641 H636 0.950 . S
C641 C642 1.478 . S
C642 C641 1.478 . S
C642 C643 1.397 . S
C642 C659 1.394 . S
C643 C642 1.397 . S
C643 C644 1.410 1_455 S
C643 C648 1.429 . S
C644 C643 1.410 1_655 S
C644 C645 1.437 . S
C644 C657 1.412 . S
C645 H637 0.949 . S
C645 C644 1.437 . S
C645 C646 1.345 1_655 S
C646 H638 0.954 . S
C646 C645 1.345 1_455 S
C646 C647 1.424 . S
C647 H639 0.951 . S
C647 C646 1.424 . S
C647 C648 1.347 . S
C648 H640 0.951 . S
C648 C643 1.429 . S
C648 C647 1.347 . S
H649 C650 0.951 . S
C650 H649 0.951 . S
C650 C656 1.265 . S
H651 C656 0.950 . S
H652 C660 0.949 . S
H653 C661 0.950 . S
H654 C662 0.951 . S
H655 C663 0.951 . S
C656 C650 1.265 . S
C656 H651 0.950 . S
C656 C657 1.478 . S
C657 C644 1.412 . S
C657 C656 1.478 . S
C657 C658 1.397 . S
C658 C657 1.397 . S
C658 C659 1.438 1_655 S
C658 C663 1.429 . S
C659 C642 1.394 . S
C659 C658 1.438 1_455 S
C659 C660 1.428 . S
C660 H652 0.949 . S
C660 C659 1.428 . S
C660 C661 1.345 . S
C661 H653 0.950 . S
C661 C660 1.345 . S
C661 C662 1.424 1_455 S
C662 H654 0.951 . S
C662 C661 1.424 1_655 S
C662 C663 1.347 . S
C663 H655 0.951 . S
C663 C658 1.429 . S
C663 C662 1.347 . S
C185 N25 1.872 . S
C200 C16 1.934 . S
C215 N2 1.880 . S
C230 C39 2.086 . S
C245 N71 1.836 . S
C260 C62 1.878 . S
C275 N48 1.891 . S
C290 C85 2.080 . S
C305 N104 1.833 . S
C320 C122 1.894 . S
C335 N127 1.889 . S
C350 C99 1.941 . S
C365 N150 1.848 . S
C380 C168 1.903 . S
C395 C145 1.967 . S
C410 N173 1.955 . S
C425 C7 1.326 . S
C440 C76 1.326 . S
C455 C30 1.312 . S
C470 C53 1.320 . S
C485 N163 1.210 . S
C500 N94 1.253 . S
C515 N140 1.253 . S
C530 N117 1.208 . S
C545 N12 1.534 1_565 S
C560 C108 1.494 1_554 S
C575 C131 1.348 . S
C590 N35 1.363 . S
C605 C154 1.412 1_556 S
C620 N58 1.462 . S
C635 C177 1.329 . S
C650 N81 1.358 . S
