# Generated by pormake.
# Topology yfu, (5)-cn, num edge types: 1
# Building blocks:
#     Node 0, Type 0, BuildingBlock: XOMCOT_clean_sbu_1, # of connection points: 5
#     Node 1, Type 0, BuildingBlock: XOMCOT_clean_sbu_1, # of connection points: 5
#     Node 2, Type 0, BuildingBlock: XOMCOT_clean_sbu_1, # of connection points: 5
#     Node 3, Type 0, BuildingBlock: XOMCOT_clean_sbu_1, # of connection points: 5
#     Node 4, Type 0, BuildingBlock: XOMCOT_clean_sbu_1, # of connection points: 5
#     Node 5, Type 0, BuildingBlock: XOMCOT_clean_sbu_1, # of connection points: 5
#     Node 6, Type 0, BuildingBlock: XOMCOT_clean_sbu_1, # of connection points: 5
#     Node 7, Type 0, BuildingBlock: XOMCOT_clean_sbu_1, # of connection points: 5
#     Node 8, Type 0, BuildingBlock: XOMCOT_clean_sbu_1, # of connection points: 5
#     Node 9, Type 0, BuildingBlock: XOMCOT_clean_sbu_1, # of connection points: 5
#     Node 10, Type 0, BuildingBlock: XOMCOT_clean_sbu_1, # of connection points: 5
#     Node 11, Type 0, BuildingBlock: XOMCOT_clean_sbu_1, # of connection points: 5
#     Node 12, Type 0, BuildingBlock: XOMCOT_clean_sbu_1, # of connection points: 5
#     Node 13, Type 0, BuildingBlock: XOMCOT_clean_sbu_1, # of connection points: 5
#     Node 14, Type 0, BuildingBlock: XOMCOT_clean_sbu_1, # of connection points: 5
#     Node 15, Type 0, BuildingBlock: XOMCOT_clean_sbu_1, # of connection points: 5
#     Node 16, Type 0, BuildingBlock: XOMCOT_clean_sbu_1, # of connection points: 5
#     Node 17, Type 0, BuildingBlock: XOMCOT_clean_sbu_1, # of connection points: 5
#     Node 18, Type 0, BuildingBlock: XOMCOT_clean_sbu_1, # of connection points: 5
#     Node 19, Type 0, BuildingBlock: XOMCOT_clean_sbu_1, # of connection points: 5
#     Node 20, Type 0, BuildingBlock: XOMCOT_clean_sbu_1, # of connection points: 5
#     Node 21, Type 0, BuildingBlock: XOMCOT_clean_sbu_1, # of connection points: 5
#     Node 22, Type 0, BuildingBlock: XOMCOT_clean_sbu_1, # of connection points: 5
#     Node 23, Type 0, BuildingBlock: XOMCOT_clean_sbu_1, # of connection points: 5
#     Node 24, Type 0, BuildingBlock: XOMCOT_clean_sbu_1, # of connection points: 5
#     Node 25, Type 0, BuildingBlock: XOMCOT_clean_sbu_1, # of connection points: 5
#     Node 26, Type 0, BuildingBlock: XOMCOT_clean_sbu_1, # of connection points: 5
#     Node 27, Type 0, BuildingBlock: XOMCOT_clean_sbu_1, # of connection points: 5
#     Node 28, Type 0, BuildingBlock: XOMCOT_clean_sbu_1, # of connection points: 5
#     Node 29, Type 0, BuildingBlock: XOMCOT_clean_sbu_1, # of connection points: 5
#     Node 30, Type 0, BuildingBlock: XOMCOT_clean_sbu_1, # of connection points: 5
#     Node 31, Type 0, BuildingBlock: XOMCOT_clean_sbu_1, # of connection points: 5
#     Edge 32, Type (0, 0), BuildingBlock: XIVTED_clean_linker_0, # of connection points: 2
#     Edge 33, Type (0, 0), BuildingBlock: XIVTED_clean_linker_0, # of connection points: 2
#     Edge 34, Type (0, 0), BuildingBlock: XIVTED_clean_linker_0, # of connection points: 2
#     Edge 35, Type (0, 0), BuildingBlock: XIVTED_clean_linker_0, # of connection points: 2
#     Edge 36, Type (0, 0), BuildingBlock: XIVTED_clean_linker_0, # of connection points: 2
#     Edge 37, Type (0, 0), BuildingBlock: XIVTED_clean_linker_0, # of connection points: 2
#     Edge 38, Type (0, 0), BuildingBlock: XIVTED_clean_linker_0, # of connection points: 2
#     Edge 39, Type (0, 0), BuildingBlock: XIVTED_clean_linker_0, # of connection points: 2
#     Edge 40, Type (0, 0), BuildingBlock: XIVTED_clean_linker_0, # of connection points: 2
#     Edge 41, Type (0, 0), BuildingBlock: XIVTED_clean_linker_0, # of connection points: 2
#     Edge 42, Type (0, 0), BuildingBlock: XIVTED_clean_linker_0, # of connection points: 2
#     Edge 43, Type (0, 0), BuildingBlock: XIVTED_clean_linker_0, # of connection points: 2
#     Edge 44, Type (0, 0), BuildingBlock: XIVTED_clean_linker_0, # of connection points: 2
#     Edge 45, Type (0, 0), BuildingBlock: XIVTED_clean_linker_0, # of connection points: 2
#     Edge 46, Type (0, 0), BuildingBlock: XIVTED_clean_linker_0, # of connection points: 2
#     Edge 47, Type (0, 0), BuildingBlock: XIVTED_clean_linker_0, # of connection points: 2
#     Edge 48, Type (0, 0), BuildingBlock: XIVTED_clean_linker_0, # of connection points: 2
#     Edge 49, Type (0, 0), BuildingBlock: XIVTED_clean_linker_0, # of connection points: 2
#     Edge 50, Type (0, 0), BuildingBlock: XIVTED_clean_linker_0, # of connection points: 2
#     Edge 51, Type (0, 0), BuildingBlock: XIVTED_clean_linker_0, # of connection points: 2
#     Edge 52, Type (0, 0), BuildingBlock: XIVTED_clean_linker_0, # of connection points: 2
#     Edge 53, Type (0, 0), BuildingBlock: XIVTED_clean_linker_0, # of connection points: 2
#     Edge 54, Type (0, 0), BuildingBlock: XIVTED_clean_linker_0, # of connection points: 2
#     Edge 55, Type (0, 0), BuildingBlock: XIVTED_clean_linker_0, # of connection points: 2
#     Edge 56, Type (0, 0), BuildingBlock: XIVTED_clean_linker_0, # of connection points: 2
#     Edge 57, Type (0, 0), BuildingBlock: XIVTED_clean_linker_0, # of connection points: 2
#     Edge 58, Type (0, 0), BuildingBlock: XIVTED_clean_linker_0, # of connection points: 2
#     Edge 59, Type (0, 0), BuildingBlock: XIVTED_clean_linker_0, # of connection points: 2
#     Edge 60, Type (0, 0), BuildingBlock: XIVTED_clean_linker_0, # of connection points: 2
#     Edge 61, Type (0, 0), BuildingBlock: XIVTED_clean_linker_0, # of connection points: 2
#     Edge 62, Type (0, 0), BuildingBlock: XIVTED_clean_linker_0, # of connection points: 2
#     Edge 63, Type (0, 0), BuildingBlock: XIVTED_clean_linker_0, # of connection points: 2
#     Edge 64, Type (0, 0), BuildingBlock: XIVTED_clean_linker_0, # of connection points: 2
#     Edge 65, Type (0, 0), BuildingBlock: XIVTED_clean_linker_0, # of connection points: 2
#     Edge 66, Type (0, 0), BuildingBlock: XIVTED_clean_linker_0, # of connection points: 2
#     Edge 67, Type (0, 0), BuildingBlock: XIVTED_clean_linker_0, # of connection points: 2
#     Edge 68, Type (0, 0), BuildingBlock: XIVTED_clean_linker_0, # of connection points: 2
#     Edge 69, Type (0, 0), BuildingBlock: XIVTED_clean_linker_0, # of connection points: 2
#     Edge 70, Type (0, 0), BuildingBlock: XIVTED_clean_linker_0, # of connection points: 2
#     Edge 71, Type (0, 0), BuildingBlock: XIVTED_clean_linker_0, # of connection points: 2
#     Edge 72, Type (0, 0), BuildingBlock: XIVTED_clean_linker_0, # of connection points: 2
#     Edge 73, Type (0, 0), BuildingBlock: XIVTED_clean_linker_0, # of connection points: 2
#     Edge 74, Type (0, 0), BuildingBlock: XIVTED_clean_linker_0, # of connection points: 2
#     Edge 75, Type (0, 0), BuildingBlock: XIVTED_clean_linker_0, # of connection points: 2
#     Edge 76, Type (0, 0), BuildingBlock: XIVTED_clean_linker_0, # of connection points: 2
#     Edge 77, Type (0, 0), BuildingBlock: XIVTED_clean_linker_0, # of connection points: 2
#     Edge 78, Type (0, 0), BuildingBlock: XIVTED_clean_linker_0, # of connection points: 2
#     Edge 79, Type (0, 0), BuildingBlock: XIVTED_clean_linker_0, # of connection points: 2
#     Edge 80, Type (0, 0), BuildingBlock: XIVTED_clean_linker_0, # of connection points: 2
#     Edge 81, Type (0, 0), BuildingBlock: XIVTED_clean_linker_0, # of connection points: 2
#     Edge 82, Type (0, 0), BuildingBlock: XIVTED_clean_linker_0, # of connection points: 2
#     Edge 83, Type (0, 0), BuildingBlock: XIVTED_clean_linker_0, # of connection points: 2
#     Edge 84, Type (0, 0), BuildingBlock: XIVTED_clean_linker_0, # of connection points: 2
#     Edge 85, Type (0, 0), BuildingBlock: XIVTED_clean_linker_0, # of connection points: 2
#     Edge 86, Type (0, 0), BuildingBlock: XIVTED_clean_linker_0, # of connection points: 2
#     Edge 87, Type (0, 0), BuildingBlock: XIVTED_clean_linker_0, # of connection points: 2
#     Edge 88, Type (0, 0), BuildingBlock: XIVTED_clean_linker_0, # of connection points: 2
#     Edge 89, Type (0, 0), BuildingBlock: XIVTED_clean_linker_0, # of connection points: 2
#     Edge 90, Type (0, 0), BuildingBlock: XIVTED_clean_linker_0, # of connection points: 2
#     Edge 91, Type (0, 0), BuildingBlock: XIVTED_clean_linker_0, # of connection points: 2
#     Edge 92, Type (0, 0), BuildingBlock: XIVTED_clean_linker_0, # of connection points: 2
#     Edge 93, Type (0, 0), BuildingBlock: XIVTED_clean_linker_0, # of connection points: 2
#     Edge 94, Type (0, 0), BuildingBlock: XIVTED_clean_linker_0, # of connection points: 2
#     Edge 95, Type (0, 0), BuildingBlock: XIVTED_clean_linker_0, # of connection points: 2
#     Edge 96, Type (0, 0), BuildingBlock: XIVTED_clean_linker_0, # of connection points: 2
#     Edge 97, Type (0, 0), BuildingBlock: XIVTED_clean_linker_0, # of connection points: 2
#     Edge 98, Type (0, 0), BuildingBlock: XIVTED_clean_linker_0, # of connection points: 2
#     Edge 99, Type (0, 0), BuildingBlock: XIVTED_clean_linker_0, # of connection points: 2
#     Edge 100, Type (0, 0), BuildingBlock: XIVTED_clean_linker_0, # of connection points: 2
#     Edge 101, Type (0, 0), BuildingBlock: XIVTED_clean_linker_0, # of connection points: 2
#     Edge 102, Type (0, 0), BuildingBlock: XIVTED_clean_linker_0, # of connection points: 2
#     Edge 103, Type (0, 0), BuildingBlock: XIVTED_clean_linker_0, # of connection points: 2
#     Edge 104, Type (0, 0), BuildingBlock: XIVTED_clean_linker_0, # of connection points: 2
#     Edge 105, Type (0, 0), BuildingBlock: XIVTED_clean_linker_0, # of connection points: 2
#     Edge 106, Type (0, 0), BuildingBlock: XIVTED_clean_linker_0, # of connection points: 2
#     Edge 107, Type (0, 0), BuildingBlock: XIVTED_clean_linker_0, # of connection points: 2
#     Edge 108, Type (0, 0), BuildingBlock: XIVTED_clean_linker_0, # of connection points: 2
#     Edge 109, Type (0, 0), BuildingBlock: XIVTED_clean_linker_0, # of connection points: 2
#     Edge 110, Type (0, 0), BuildingBlock: XIVTED_clean_linker_0, # of connection points: 2
#     Edge 111, Type (0, 0), BuildingBlock: XIVTED_clean_linker_0, # of connection points: 2
# Relax obj value: 0.459
# Max RMSD: 0.265
# Mean RMSD: 0.265
data_MOF--net-yfu--node1-XOMCOT_clean_sbu_1--edge1-XIVTED_clean_linker_0
_symmetry_space_group_name_H-M    P1
_symmetry_Int_Tables_number       1
_symmetry_cell_setting            triclinic
loop_
_symmetry_equiv_pos_as_xyz
'x, y, z'
_cell_length_a     45.756112
_cell_length_b     45.750945
_cell_length_c     81.692904
_cell_angle_alpha  89.844957
_cell_angle_beta   89.838908
_cell_angle_gamma 89.919456
loop_
_atom_site_label
_atom_site_type_symbol
_atom_site_fract_x
_atom_site_fract_y
_atom_site_fract_z
_atom_type_partial_charge
C0 C 0.07319 0.10373 0.29195 0.0
C1 C 0.05164 0.12471 0.29042 0.0
N2 N 0.06197 0.15025 0.2962 0.0
N3 N 0.09717 0.11581 0.29865 0.0
C4 C 0.08956 0.14419 0.30114 0.0
H5 H 0.07129 0.08094 0.28865 0.0
Co6 Co 0.13142 0.09534 0.3048 0.0
C7 C 0.17272 0.14123 0.31548 0.0
O8 O 0.1855 0.12349 0.32591 0.0
N9 N 0.16609 0.07446 0.31102 0.0
C10 C 0.21115 0.0557 0.30977 0.0
C11 C 0.19125 0.07378 0.30226 0.0
C12 C 0.17176 0.05684 0.32406 0.0
N13 N 0.19884 0.04514 0.32351 0.0
O14 O 0.14314 0.09273 0.28252 0.0
H15 H 0.19517 0.08589 0.29108 0.0
H16 H 0.15658 0.0523 0.33385 0.0
O17 O 0.15142 0.13221 0.30686 0.0
C18 C 0.13809 0.06663 0.27798 0.0
O19 O 0.12377 0.04927 0.28803 0.0
N20 N 0.11806 0.09532 0.32609 0.0
C21 C 0.08249 0.08888 0.35332 0.0
C22 C 0.09794 0.11504 0.35072 0.0
C23 C 0.11567 0.11792 0.33686 0.0
C24 C 0.10432 0.06944 0.32893 0.0
C25 C 0.08732 0.06536 0.34278 0.0
H26 H 0.12511 0.13898 0.33417 0.0
H27 H 0.10581 0.05217 0.31996 0.0
H28 H 0.10346 0.15992 0.30712 0.0
H29 H 0.03005 0.1214 0.28537 0.0
H30 H 0.23318 0.05112 0.30564 0.0
H31 H 0.09415 0.13399 0.35836 0.0
H32 H 0.07586 0.04483 0.34439 0.0
C33 C 0.13013 0.84365 0.51618 0.0
C34 C 0.10429 0.82937 0.51346 0.0
N35 N 0.09274 0.82155 0.52798 0.0
N36 N 0.1354 0.84521 0.53242 0.0
C37 C 0.11198 0.83139 0.53929 0.0
H38 H 0.14408 0.85198 0.50661 0.0
Co39 Co 0.16927 0.86208 0.54228 0.0
C40 C 0.14255 0.90214 0.56767 0.0
O41 O 0.16366 0.89887 0.5784 0.0
N42 N 0.20363 0.87845 0.55159 0.0
C43 C 0.24972 0.88237 0.56009 0.0
C44 C 0.22964 0.86457 0.5527 0.0
C45 C 0.20941 0.90565 0.5573 0.0
N46 N 0.23687 0.90821 0.56322 0.0
O47 O 0.17289 0.89032 0.52528 0.0
H48 H 0.23426 0.84291 0.54823 0.0
H49 H 0.19394 0.9235 0.55689 0.0
O50 O 0.14348 0.88851 0.55406 0.0
C51 C 0.1906 0.88111 0.51445 0.0
O52 O 0.19864 0.85353 0.51494 0.0
N53 N 0.16827 0.8336 0.55881 0.0
C54 C 0.18763 0.79944 0.58475 0.0
C55 C 0.16337 0.818 0.58662 0.0
C56 C 0.15388 0.83484 0.57344 0.0
C57 C 0.18809 0.81202 0.556 0.0
C58 C 0.19898 0.79538 0.56893 0.0
H59 H 0.13543 0.84906 0.57525 0.0
H60 H 0.19774 0.80986 0.54397 0.0
H61 H 0.10883 0.82869 0.5523 0.0
H62 H 0.0951 0.82449 0.50159 0.0
H63 H 0.27188 0.87636 0.56322 0.0
H64 H 0.15207 0.82004 0.59823 0.0
H65 H 0.21707 0.78074 0.56656 0.0
C66 C 0.48044 0.92603 0.79511 0.0
C67 C 0.49965 0.90328 0.79268 0.0
N68 N 0.48427 0.87845 0.79105 0.0
N69 N 0.45269 0.91595 0.79513 0.0
C70 C 0.45588 0.88676 0.79221 0.0
H71 H 0.48665 0.94859 0.79669 0.0
Co72 Co 0.41809 0.93941 0.79854 0.0
C73 C 0.40396 0.88569 0.81712 0.0
O74 O 0.42988 0.88428 0.82396 0.0
N75 N 0.38354 0.96174 0.80197 0.0
C76 C 0.33645 0.97424 0.80089 0.0
C77 C 0.35767 0.95608 0.7947 0.0
C78 C 0.3771 0.98333 0.81283 0.0
N79 N 0.34866 0.99125 0.81238 0.0
O80 O 0.40511 0.93042 0.77691 0.0
H81 H 0.35396 0.93891 0.78588 0.0
H82 H 0.39259 0.99284 0.82122 0.0
O83 O 0.39747 0.90613 0.80719 0.0
C84 C 0.41955 0.9451 0.76639 0.0
O85 O 0.4426 0.95971 0.77126 0.0
N86 N 0.43215 0.95203 0.81868 0.0
C87 C 0.46335 0.9793 0.84349 0.0
C88 C 0.44367 0.95642 0.84709 0.0
C89 C 0.4272 0.94392 0.83453 0.0
C90 C 0.44797 0.97647 0.81536 0.0
C91 C 0.46295 0.99097 0.8276 0.0
H92 H 0.41103 0.92776 0.83766 0.0
H93 H 0.44911 0.98458 0.80292 0.0
H94 H 0.43777 0.87176 0.79094 0.0
H95 H 0.52326 0.90483 0.79245 0.0
H96 H 0.3135 0.97403 0.79772 0.0
H97 H 0.44168 0.94719 0.85923 0.0
H98 H 0.4753 1.01021 0.82425 0.0
C99 C 0.40883 0.16883 0.01308 0.0
C100 C 0.43539 0.18225 0.01041 0.0
N101 N 0.44685 0.18993 0.02496 0.0
N102 N 0.40326 0.16771 0.02929 0.0
C103 C 0.4271 0.1805 0.03618 0.0
H104 H 0.39408 0.16156 0.00364 0.0
Co105 Co 0.36763 0.15612 0.03967 0.0
C106 C 0.38708 0.10809 0.06265 0.0
O107 O 0.36626 0.11138 0.07359 0.0
N108 N 0.33174 0.14554 0.04989 0.0
C109 C 0.28813 0.15155 0.06151 0.0
C110 C 0.31144 0.1654 0.05441 0.0
C111 C 0.31925 0.11941 0.05365 0.0
N112 N 0.29306 0.12256 0.06122 0.0
O113 O 0.35852 0.12979 0.02249 0.0
H114 H 0.31319 0.1887 0.05271 0.0
H115 H 0.32925 0.09848 0.05104 0.0
O116 O 0.38894 0.1252 0.05035 0.0
C117 C 0.33954 0.14183 0.01336 0.0
O118 O 0.33335 0.16955 0.01571 0.0
N119 N 0.37429 0.18332 0.05592 0.0
C120 C 0.36654 0.22905 0.07764 0.0
C121 C 0.37835 0.20235 0.08302 0.0
C122 C 0.3821 0.17957 0.07189 0.0
C123 C 0.36583 0.20993 0.05022 0.0
C124 C 0.36131 0.23299 0.06088 0.0
H125 H 0.3905 0.15911 0.07629 0.0
H126 H 0.35999 0.21239 0.03746 0.0
H127 H 0.42967 0.1836 0.04921 0.0
H128 H 0.44479 0.18723 -0.00144 0.0
H129 H 0.26933 0.16221 0.06692 0.0
H130 H 0.38389 0.19881 0.09575 0.0
H131 H 0.35204 0.25301 0.05607 0.0
C132 C 0.10335 0.90492 0.18676 0.0
C133 C 0.08825 0.8803 0.19165 0.0
N134 N 0.08071 0.86473 0.17828 0.0
N135 N 0.10569 0.90513 0.17033 0.0
C136 C 0.09196 0.8802 0.16555 0.0
H137 H 0.11128 0.922 0.19471 0.0
Co138 Co 0.12062 0.93543 0.15671 0.0
C139 C 0.15939 0.89934 0.13401 0.0
O140 O 0.16619 0.91881 0.12281 0.0
N141 N 0.13484 0.96585 0.14284 0.0
C142 C 0.13264 1.00678 0.12815 0.0
C143 C 0.1169 0.98679 0.13691 0.0
C144 C 0.16191 0.97439 0.13783 0.0
N145 N 0.16102 0.99916 0.12867 0.0
O146 O 0.15165 0.94267 0.17164 0.0
H147 H 0.09365 0.98802 0.13905 0.0
H148 H 0.18186 0.96311 0.14113 0.0
O149 O 0.14279 0.90606 0.14592 0.0
C150 C 0.14511 0.96682 0.17846 0.0
O151 O 0.12009 0.97935 0.17479 0.0
N152 N 0.0891 0.93067 0.14309 0.0
C153 C 0.03845 0.93776 0.12509 0.0
C154 C 0.06345 0.92529 0.11789 0.0
C155 C 0.08886 0.92218 0.12712 0.0
C156 C 0.06479 0.94171 0.15042 0.0
C157 C 0.03932 0.94577 0.14162 0.0
H158 H 0.10832 0.9141 0.12124 0.0
H159 H 0.06586 0.94906 0.16298 0.0
H160 H 0.08915 0.87425 0.15285 0.0
H161 H 0.08291 0.87473 0.20417 0.0
H162 H 0.12371 0.02555 0.12179 0.0
H163 H 0.06354 0.91834 0.10523 0.0
H164 H 0.02086 0.95604 0.14762 0.0
C165 C 0.35691 0.79408 0.43241 0.0
C166 C 0.37753 0.77314 0.43613 0.0
N167 N 0.40363 0.7863 0.43778 0.0
N168 N 0.36977 0.82062 0.43139 0.0
C169 C 0.39804 0.8151 0.43557 0.0
H170 H 0.33417 0.78962 0.43013 0.0
Co171 Co 0.35325 0.85701 0.42378 0.0
C172 C 0.40994 0.85328 0.40646 0.0
O173 O 0.40491 0.82641 0.40154 0.0
N174 N 0.33808 0.89285 0.41624 0.0
C175 C 0.33541 0.94044 0.41063 0.0
C176 C 0.35146 0.91892 0.41819 0.0
C177 C 0.31405 0.89914 0.40719 0.0
N178 N 0.31202 0.92793 0.40363 0.0
O179 O 0.36437 0.87618 0.44367 0.0
H180 H 0.37193 0.92205 0.42453 0.0
H181 H 0.29852 0.88301 0.40303 0.0
O182 O 0.39049 0.86731 0.41442 0.0
C183 C 0.3556 0.86833 0.45781 0.0
O184 O 0.35008 0.8406 0.46057 0.0
N185 N 0.33941 0.83921 0.40481 0.0
C186 C 0.31189 0.80865 0.37989 0.0
C187 C 0.3362 0.8265 0.37649 0.0
C188 C 0.34897 0.84257 0.38908 0.0
C189 C 0.31362 0.82543 0.40783 0.0
C190 C 0.2994 0.81008 0.39556 0.0
H191 H 0.36663 0.85727 0.38614 0.0
H192 H 0.30422 0.82617 0.41998 0.0
H193 H 0.41467 0.83181 0.43633 0.0
H194 H 0.37382 0.74979 0.43661 0.0
H195 H 0.34109 0.96336 0.40977 0.0
H196 H 0.34621 0.82718 0.36449 0.0
H197 H 0.2795 0.79847 0.39858 0.0
C198 C 0.45452 0.11528 0.64667 0.0
C199 C 0.47724 0.13324 0.65101 0.0
N200 N 0.46757 0.15271 0.66218 0.0
N201 N 0.43006 0.12357 0.65463 0.0
C202 C 0.43922 0.14508 0.66479 0.0
H203 H 0.4551 0.09901 0.63708 0.0
Co204 Co 0.39237 0.11024 0.64816 0.0
C205 C 0.37426 0.17423 0.65719 0.0
O206 O 0.39914 0.18829 0.65597 0.0
N207 N 0.35519 0.09655 0.64171 0.0
C208 C 0.31326 0.09508 0.62802 0.0
C209 C 0.33485 0.11285 0.63395 0.0
C210 C 0.34554 0.06871 0.64013 0.0
N211 N 0.32017 0.06724 0.63167 0.0
O212 O 0.38603 0.09441 0.66951 0.0
H213 H 0.33719 0.13577 0.63106 0.0
H214 H 0.3582 0.04978 0.6437 0.0
O215 O 0.37314 0.14687 0.65414 0.0
C216 C 0.39752 0.06899 0.66949 0.0
O217 O 0.41156 0.06057 0.65625 0.0
N218 N 0.39975 0.12285 0.62634 0.0
C219 C 0.43138 0.1233 0.5973 0.0
C220 C 0.43234 0.1475 0.60786 0.0
C221 C 0.41549 0.14719 0.62225 0.0
C222 C 0.39568 0.10142 0.61495 0.0
C223 C 0.40981 0.10227 0.59996 0.0
H224 H 0.419 0.16419 0.63112 0.0
H225 H 0.38447 0.08147 0.61796 0.0
H226 H 0.42505 0.15569 0.67353 0.0
H227 H 0.49852 0.13328 0.64523 0.0
H228 H 0.2956 0.10187 0.62007 0.0
H229 H 0.44848 0.16455 0.60619 0.0
H230 H 0.40753 0.08376 0.59181 0.0
C231 C 0.15412 0.21711 0.92031 0.0
C232 C 0.13254 0.2351 0.92636 0.0
N233 N 0.11061 0.21849 0.9323 0.0
N234 N 0.14601 0.18892 0.922 0.0
C235 C 0.12036 0.19061 0.93045 0.0
H236 H 0.17338 0.22448 0.91386 0.0
Co237 Co 0.16323 0.15673 0.91024 0.0
C238 C 0.09865 0.14646 0.90541 0.0
O239 O 0.09232 0.17406 0.90261 0.0
N240 N 0.1802 0.12542 0.89837 0.0
C241 C 0.18464 0.09131 0.87914 0.0
C242 C 0.16541 0.1076 0.88815 0.0
C243 C 0.20877 0.11959 0.8951 0.0
N244 N 0.2119 0.09882 0.88343 0.0
O245 O 0.1686 0.13582 0.93011 0.0
H246 H 0.14223 0.10824 0.88599 0.0
H247 H 0.22677 0.132 0.90008 0.0
O248 O 0.12501 0.13854 0.90788 0.0
C249 C 0.19421 0.14201 0.93496 0.0
O250 O 0.20917 0.16197 0.92697 0.0
N251 N 0.16174 0.17758 0.89068 0.0
C252 C 0.17268 0.21365 0.86385 0.0
C253 C 0.14636 0.19783 0.86505 0.0
C254 C 0.14171 0.17906 0.87837 0.0
C255 C 0.18827 0.19061 0.8889 0.0
C256 C 0.19435 0.20839 0.87556 0.0
H257 H 0.12228 0.16589 0.87852 0.0
H258 H 0.20477 0.18754 0.89818 0.0
H259 H 0.1077 0.17161 0.93386 0.0
H260 H 0.13198 0.25861 0.92494 0.0
H261 H 0.17908 0.07659 0.86927 0.0
H262 H 0.12913 0.20038 0.85612 0.0
H263 H 0.21567 0.21852 0.87478 0.0
C264 C 0.89147 0.83564 0.68872 0.0
C265 C 0.90509 0.80914 0.69111 0.0
N266 N 0.934 0.81252 0.68848 0.0
N267 N 0.91156 0.85594 0.68466 0.0
C268 C 0.93733 0.84117 0.68467 0.0
H269 H 0.86822 0.8397 0.68955 0.0
Co270 Co 0.9033 0.89517 0.67914 0.0
C271 C 0.86509 0.89064 0.64989 0.0
O272 O 0.87873 0.91257 0.64277 0.0
N273 N 0.89439 0.93489 0.67391 0.0
C274 C 0.89541 0.98149 0.66584 0.0
C275 C 0.91175 0.9585 0.67176 0.0
C276 C 0.86728 0.94516 0.67048 0.0
N277 N 0.86741 0.9728 0.66464 0.0
O278 O 0.87444 0.89756 0.69577 0.0
H279 H 0.935 0.9592 0.67373 0.0
H280 H 0.84784 0.9318 0.67121 0.0
O281 O 0.87329 0.88167 0.664 0.0
C282 C 0.88201 0.90171 0.71051 0.0
O283 O 0.90934 0.89677 0.71461 0.0
N284 N 0.93255 0.89359 0.66299 0.0
C285 C 0.97496 0.90107 0.6389 0.0
C286 C 0.95115 0.8823 0.63634 0.0
C287 C 0.93086 0.8779 0.64883 0.0
C288 C 0.95746 0.90842 0.66655 0.0
C289 C 0.97881 0.91284 0.65462 0.0
H290 H 0.91347 0.86243 0.64686 0.0
H291 H 0.96029 0.91766 0.67861 0.0
H292 H 0.95814 0.85116 0.68178 0.0
H293 H 0.89431 0.78873 0.694 0.0
H294 H 0.90394 1.00228 0.66168 0.0
H295 H 0.94756 0.87163 0.62473 0.0
H296 H 0.99791 0.92561 0.65767 0.0
C297 C 0.86579 0.2365 0.4224 0.0
C298 C 0.88986 0.25336 0.42604 0.0
N299 N 0.91276 0.23561 0.42911 0.0
N300 N 0.87315 0.20793 0.42292 0.0
C301 C 0.90172 0.20823 0.42761 0.0
H302 H 0.84458 0.24496 0.41911 0.0
Co303 Co 0.85048 0.17419 0.41687 0.0
C304 C 0.90464 0.16802 0.3979 0.0
O305 O 0.9036 0.1953 0.39286 0.0
N306 N 0.82941 0.14006 0.41093 0.0
C307 C 0.82257 0.0925 0.40668 0.0
C308 C 0.83892 0.11293 0.41478 0.0
C309 C 0.8067 0.13532 0.40055 0.0
N310 N 0.80243 0.10654 0.39764 0.0
O311 O 0.85999 0.15632 0.43709 0.0
H312 H 0.85787 0.10819 0.42221 0.0
H313 H 0.79488 0.15244 0.39426 0.0
O314 O 0.88462 0.15739 0.40696 0.0
C315 C 0.84047 0.16474 0.4471 0.0
O316 O 0.82347 0.18656 0.44277 0.0
N317 N 0.83748 0.19227 0.39775 0.0
C318 C 0.80784 0.2228 0.37325 0.0
C319 C 0.83107 0.20368 0.36937 0.0
C320 C 0.84475 0.18762 0.38176 0.0
C321 C 0.81328 0.20817 0.40153 0.0
C322 C 0.79781 0.22304 0.38951 0.0
H323 H 0.86086 0.17154 0.37835 0.0
H324 H 0.80578 0.20908 0.41407 0.0
H325 H 0.91454 0.18857 0.42929 0.0
H326 H 0.89064 0.27699 0.42567 0.0
H327 H 0.82615 0.0691 0.40678 0.0
H328 H 0.8394 0.20145 0.35706 0.0
H329 H 0.77864 0.23516 0.39323 0.0
C330 C 0.55097 0.09336 0.1681 0.0
C331 C 0.53089 0.11423 0.17283 0.0
N332 N 0.54374 0.14065 0.17219 0.0
N333 N 0.5766 0.10628 0.16419 0.0
C334 C 0.57158 0.13511 0.16743 0.0
H335 H 0.54679 0.07018 0.16756 0.0
Co336 Co 0.61144 0.08727 0.15612 0.0
C337 C 0.61525 0.14425 0.13896 0.0
O338 O 0.5883 0.143 0.13347 0.0
N339 N 0.64638 0.06953 0.14812 0.0
C340 C 0.69372 0.06363 0.14275 0.0
C341 C 0.67345 0.07943 0.15146 0.0
C342 C 0.65092 0.04747 0.1373 0.0
N343 N 0.67962 0.04358 0.13363 0.0
O344 O 0.62959 0.09411 0.17672 0.0
H345 H 0.67819 0.0976 0.15947 0.0
H346 H 0.63343 0.03521 0.13175 0.0
O347 O 0.6258 0.12387 0.14778 0.0
C348 C 0.62995 0.06907 0.18357 0.0
O349 O 0.61851 0.04675 0.1758 0.0
N350 N 0.59278 0.07664 0.13681 0.0
C351 C 0.55982 0.05081 0.11222 0.0
C352 C 0.57897 0.07408 0.10862 0.0
C353 C 0.59631 0.08587 0.12103 0.0
C354 C 0.57718 0.052 0.14003 0.0
C355 C 0.56096 0.03847 0.12793 0.0
H356 H 0.61228 0.10225 0.11786 0.0
H357 H 0.5777 0.04251 0.15214 0.0
H358 H 0.58805 0.15195 0.16657 0.0
H359 H 0.5083 0.11027 0.17612 0.0
H360 H 0.71707 0.0671 0.14306 0.0
H361 H 0.58 0.0839 0.09658 0.0
H362 H 0.54866 0.01909 0.13112 0.0
C363 C 0.61016 0.87459 0.94768 0.0
C364 C 0.58372 0.86109 0.95038 0.0
N365 N 0.57626 0.84616 0.93684 0.0
N366 N 0.61999 0.86834 0.93246 0.0
C367 C 0.59843 0.8512 0.92615 0.0
H368 H 0.62139 0.88777 0.95658 0.0
Co369 Co 0.65673 0.87908 0.92255 0.0
C370 C 0.63649 0.91936 0.89531 0.0
O371 O 0.6574 0.91414 0.88465 0.0
N372 N 0.69331 0.88907 0.91288 0.0
C373 C 0.73867 0.88279 0.90365 0.0
C374 C 0.71569 0.86999 0.91169 0.0
C375 C 0.70416 0.9141 0.9062 0.0
N376 N 0.7315 0.91063 0.89999 0.0
O377 O 0.66247 0.91016 0.93752 0.0
H378 H 0.71556 0.84788 0.9163 0.0
H379 H 0.69225 0.93452 0.9059 0.0
O380 O 0.63555 0.90578 0.90892 0.0
C381 C 0.67563 0.90212 0.95043 0.0
O382 O 0.67888 0.87401 0.95323 0.0
N383 N 0.65348 0.84766 0.90835 0.0
C384 C 0.6634 0.79763 0.89004 0.0
C385 C 0.64975 0.82209 0.88297 0.0
C386 C 0.64494 0.84703 0.89238 0.0
C387 C 0.66412 0.82324 0.91577 0.0
C388 C 0.6698 0.79814 0.9068 0.0
H389 H 0.63446 0.86542 0.88671 0.0
H390 H 0.67024 0.82411 0.92854 0.0
H391 H 0.59885 0.84241 0.91391 0.0
H392 H 0.57141 0.86166 0.9617 0.0
H393 H 0.75882 0.87187 0.90039 0.0
H394 H 0.64312 0.82213 0.87026 0.0
H395 H 0.68032 0.77989 0.91285 0.0
C396 C 0.90395 0.13908 0.77238 0.0
C397 C 0.91739 0.16549 0.77 0.0
N398 N 0.93024 0.17362 0.78405 0.0
N399 N 0.9081 0.12979 0.78793 0.0
C400 C 0.92469 0.15143 0.79469 0.0
H401 H 0.89126 0.12813 0.76317 0.0
Co402 Co 0.89255 0.09456 0.79751 0.0
C403 C 0.84239 0.13181 0.81452 0.0
O404 O 0.8185 0.11867 0.81958 0.0
N405 N 0.87811 0.05997 0.80686 0.0
C406 C 0.8748 0.01222 0.81128 0.0
C407 C 0.88856 0.03367 0.80238 0.0
C408 C 0.85818 0.05397 0.81874 0.0
N409 N 0.85561 0.02486 0.82166 0.0
O410 O 0.86691 0.08821 0.77964 0.0
H411 H 0.90524 0.03035 0.79317 0.0
H412 H 0.84645 0.07054 0.82546 0.0
O413 O 0.86252 0.117 0.80771 0.0
C414 C 0.87804 0.07382 0.7679 0.0
O415 O 0.90656 0.07059 0.76733 0.0
N416 N 0.91777 0.09762 0.81484 0.0
C417 C 0.95494 0.08331 0.84047 0.0
C418 C 0.93037 0.1013 0.84309 0.0
C419 C 0.91171 0.10785 0.83012 0.0
C420 C 0.94224 0.08165 0.81182 0.0
C421 C 0.96093 0.07385 0.82448 0.0
H422 H 0.89209 0.12017 0.83256 0.0
H423 H 0.94607 0.07319 0.79965 0.0
H424 H 0.93136 0.15175 0.80737 0.0
H425 H 0.91726 0.17801 0.75874 0.0
H426 H 0.87865 0.98901 0.81 0.0
H427 H 0.92528 0.11005 0.85505 0.0
H428 H 0.97926 0.05971 0.82174 0.0
C429 C 0.68029 0.19151 0.55016 0.0
C430 C 0.65929 0.21247 0.54674 0.0
N431 N 0.63269 0.20046 0.549 0.0
N432 N 0.66707 0.16639 0.55462 0.0
C433 C 0.6381 0.17271 0.55379 0.0
H434 H 0.70371 0.19467 0.54989 0.0
Co435 Co 0.68514 0.132 0.56282 0.0
C436 C 0.63517 0.09402 0.57092 0.0
O437 O 0.64849 0.0837 0.58395 0.0
N438 N 0.70295 0.09685 0.57105 0.0
C439 C 0.71726 0.05018 0.57205 0.0
C440 C 0.7017 0.07073 0.56336 0.0
C441 C 0.71956 0.0913 0.58445 0.0
N442 N 0.72859 0.06322 0.58533 0.0
O443 O 0.69456 0.12006 0.54109 0.0
H444 H 0.69013 0.0668 0.55205 0.0
H445 H 0.72487 0.1071 0.59369 0.0
O446 O 0.64801 0.1126 0.5618 0.0
C447 C 0.72189 0.12477 0.53969 0.0
O448 O 0.7357 0.1371 0.55194 0.0
N449 N 0.67913 0.1461 0.58376 0.0
C450 C 0.68043 0.18677 0.60888 0.0
C451 C 0.65376 0.17416 0.60405 0.0
C452 C 0.65359 0.15349 0.5914 0.0
C453 C 0.70498 0.15739 0.58886 0.0
C454 C 0.70634 0.1761 0.60204 0.0
H455 H 0.63286 0.1461 0.5867 0.0
H456 H 0.72473 0.15306 0.582 0.0
H457 H 0.62106 0.15797 0.5576 0.0
H458 H 0.6633 0.23483 0.54303 0.0
H459 H 0.72039 0.02754 0.56866 0.0
H460 H 0.63315 0.18211 0.60884 0.0
H461 H 0.72746 0.1846 0.60561 0.0
C462 C 0.5585 0.92538 0.29416 0.0
C463 C 0.53758 0.90512 0.28984 0.0
N464 N 0.54699 0.87824 0.29416 0.0
N465 N 0.58141 0.9116 0.30111 0.0
C466 C 0.57361 0.88284 0.30093 0.0
H467 H 0.55681 0.94874 0.29248 0.0
Co468 Co 0.61591 0.92921 0.30973 0.0
C469 C 0.65881 0.88488 0.29914 0.0
O470 O 0.67582 0.9043 0.29208 0.0
N471 N 0.65048 0.94572 0.31877 0.0
C472 C 0.69091 0.94823 0.33384 0.0
C473 C 0.6701 0.93005 0.32753 0.0
C474 C 0.65944 0.97385 0.32058 0.0
N475 N 0.6842 0.97575 0.32954 0.0
O476 O 0.62695 0.94263 0.28857 0.0
H477 H 0.66855 0.90693 0.33006 0.0
H478 H 0.64775 0.99263 0.31591 0.0
O479 O 0.6356 0.89285 0.30648 0.0
C480 C 0.61854 0.96904 0.28698 0.0
O481 O 0.60251 0.98056 0.29869 0.0
N482 N 0.60456 0.91927 0.33061 0.0
C483 C 0.58632 0.9149 0.36299 0.0
C484 C 0.59356 0.88967 0.35391 0.0
C485 C 0.60325 0.89239 0.33775 0.0
C486 C 0.59841 0.94386 0.33926 0.0
C487 C 0.59047 0.94228 0.35561 0.0
H488 H 0.60892 0.87297 0.33096 0.0
H489 H 0.60003 0.96501 0.33338 0.0
H490 H 0.58726 0.8654 0.30555 0.0
H491 H 0.5167 0.90999 0.28427 0.0
H492 H 0.70884 0.9419 0.34172 0.0
H493 H 0.59054 0.86791 0.35881 0.0
H494 H 0.58649 0.96248 0.36209 0.0
C495 C 0.88672 0.83311 0.01476 0.0
C496 C 0.9126 0.818 0.01366 0.0
N497 N 0.92549 0.81788 0.02844 0.0
N498 N 0.88281 0.84289 0.03019 0.0
C499 C 0.90721 0.83353 0.03821 0.0
H500 H 0.87114 0.83533 0.00497 0.0
Co501 Co 0.84673 0.85863 0.03804 0.0
C502 C 0.86352 0.89661 0.06596 0.0
O503 O 0.84125 0.88823 0.07504 0.0
N504 N 0.80985 0.87379 0.04543 0.0
C505 C 0.76311 0.87576 0.05318 0.0
C506 C 0.78457 0.85866 0.04635 0.0
C507 C 0.80222 0.90093 0.05069 0.0
N508 N 0.77428 0.90237 0.05624 0.0
O509 O 0.84689 0.88813 0.02168 0.0
H510 H 0.78152 0.83639 0.04247 0.0
H511 H 0.81715 0.91921 0.05086 0.0
O512 O 0.86791 0.88521 0.05193 0.0
C513 C 0.83199 0.88204 0.00907 0.0
O514 O 0.82115 0.85559 0.00767 0.0
N515 N 0.84537 0.82886 0.05377 0.0
C516 C 0.83306 0.78399 0.07569 0.0
C517 C 0.85314 0.8059 0.07973 0.0
C518 C 0.85934 0.82792 0.0685 0.0
C519 C 0.82845 0.80602 0.04896 0.0
C520 C 0.82127 0.78373 0.05988 0.0
H521 H 0.87567 0.84373 0.07176 0.0
H522 H 0.81954 0.80578 0.03672 0.0
H523 H 0.9108 0.83658 0.05115 0.0
H524 H 0.92086 0.80711 0.00284 0.0
H525 H 0.74127 0.86852 0.05625 0.0
H526 H 0.86441 0.80582 0.09138 0.0
H527 H 0.80634 0.76679 0.056 0.0
C528 C 0.59623 0.64151 0.7716 0.0
C529 C 0.58322 0.66819 0.76907 0.0
N530 N 0.58173 0.68235 0.78344 0.0
N531 N 0.60357 0.63846 0.78752 0.0
C532 C 0.59421 0.66392 0.79447 0.0
H533 H 0.59954 0.6252 0.76226 0.0
Co534 Co 0.62097 0.60361 0.79616 0.0
C535 C 0.65948 0.62408 0.823 0.0
O536 O 0.6524 0.60141 0.8321 0.0
N537 N 0.63809 0.56784 0.80417 0.0
C538 C 0.64293 0.52124 0.81186 0.0
C539 C 0.62438 0.54175 0.80538 0.0
C540 C 0.66593 0.56158 0.80882 0.0
N541 N 0.66908 0.5338 0.81435 0.0
O542 O 0.64834 0.60239 0.7786 0.0
H543 H 0.6023 0.53727 0.80165 0.0
H544 H 0.68355 0.5773 0.8085 0.0
O545 O 0.64806 0.62729 0.80883 0.0
C546 C 0.63914 0.58356 0.76845 0.0
O547 O 0.61343 0.57154 0.7709 0.0
N548 N 0.59284 0.60301 0.81295 0.0
C549 C 0.55687 0.58591 0.83867 0.0
C550 C 0.5751 0.61043 0.84017 0.0
C551 C 0.59267 0.61889 0.82706 0.0
C552 C 0.57159 0.58283 0.81031 0.0
C553 C 0.55413 0.57299 0.82318 0.0
H554 H 0.60658 0.63762 0.82861 0.0
H555 H 0.56968 0.57276 0.79841 0.0
H556 H 0.59659 0.66909 0.80728 0.0
H557 H 0.57476 0.67628 0.75755 0.0
H558 H 0.63715 0.49899 0.81499 0.0
H559 H 0.57612 0.62287 0.8514 0.0
H560 H 0.53954 0.55482 0.82106 0.0
C561 C 0.67438 0.32416 0.03718 0.0
C562 C 0.65398 0.30314 0.03356 0.0
N563 N 0.62758 0.3122 0.0389 0.0
N564 N 0.66125 0.34676 0.04475 0.0
C565 C 0.63265 0.33875 0.04577 0.0
H566 H 0.69751 0.32297 0.03453 0.0
Co567 Co 0.68285 0.37975 0.05158 0.0
C568 C 0.64194 0.42014 0.06735 0.0
O569 O 0.6626 0.42648 0.07786 0.0
N570 N 0.70558 0.41323 0.05825 0.0
C571 C 0.72209 0.45912 0.05882 0.0
C572 C 0.70496 0.43945 0.05056 0.0
C573 C 0.72364 0.41784 0.0712 0.0
N574 N 0.73375 0.44562 0.07193 0.0
O575 O 0.68328 0.39368 0.02956 0.0
H576 H 0.69202 0.44445 0.03986 0.0
H577 H 0.72809 0.40181 0.08055 0.0
O578 O 0.64656 0.40095 0.05628 0.0
C579 C 0.70875 0.388 0.02411 0.0
O580 O 0.72759 0.37494 0.0338 0.0
N581 N 0.68488 0.3636 0.0723 0.0
C582 C 0.69313 0.32476 0.09798 0.0
C583 C 0.66638 0.33953 0.09618 0.0
C584 C 0.66251 0.35867 0.08303 0.0
C585 C 0.71118 0.35012 0.07425 0.0
C586 C 0.71612 0.33135 0.0873 0.0
H587 H 0.64094 0.36731 0.08077 0.0
H588 H 0.72813 0.35318 0.06515 0.0
H589 H 0.61586 0.35212 0.05131 0.0
H590 H 0.65845 0.28248 0.02763 0.0
H591 H 0.72531 0.48175 0.05543 0.0
H592 H 0.64775 0.33416 0.10382 0.0
H593 H 0.73695 0.32018 0.0882 0.0
C594 C 0.93967 0.37983 0.27478 0.0
C595 C 0.95536 0.35441 0.27325 0.0
N596 N 0.95202 0.33862 0.28702 0.0
N597 N 0.92617 0.38057 0.28949 0.0
C598 C 0.93391 0.35472 0.29663 0.0
H599 H 0.93957 0.39725 0.26589 0.0
Co600 Co 0.90784 0.41492 0.29781 0.0
C601 C 0.86215 0.39092 0.32058 0.0
O602 O 0.86763 0.40965 0.33236 0.0
N603 N 0.8906 0.45046 0.30557 0.0
C604 C 0.8894 0.49806 0.31128 0.0
C605 C 0.90543 0.47589 0.30453 0.0
C606 C 0.86434 0.45862 0.31202 0.0
N607 N 0.86351 0.48725 0.31623 0.0
O608 O 0.88397 0.41852 0.27884 0.0
H609 H 0.92671 0.47853 0.29904 0.0
H610 H 0.84575 0.44429 0.31323 0.0
O611 O 0.87735 0.39105 0.30747 0.0
C612 C 0.89378 0.43641 0.26827 0.0
O613 O 0.92019 0.44703 0.27022 0.0
N614 N 0.93209 0.41333 0.31632 0.0
C615 C 0.96257 0.42858 0.34445 0.0
C616 C 0.94352 0.40447 0.34447 0.0
C617 C 0.92868 0.397 0.33018 0.0
C618 C 0.95402 0.43331 0.3154 0.0
C619 C 0.96873 0.44217 0.32942 0.0
H620 H 0.914 0.37863 0.33055 0.0
H621 H 0.95884 0.4438 0.30385 0.0
H622 H 0.9279 0.3485 0.30895 0.0
H623 H 0.96907 0.34844 0.26296 0.0
H624 H 0.89681 0.52032 0.31277 0.0
H625 H 0.93976 0.39164 0.35542 0.0
H626 H 0.98391 0.46019 0.32843 0.0
C627 C 0.88311 0.66327 0.51954 0.0
C628 C 0.90833 0.67835 0.51606 0.0
N629 N 0.91917 0.68922 0.5301 0.0
N630 N 0.87775 0.6643 0.53578 0.0
C631 C 0.90046 0.68 0.54191 0.0
H632 H 0.86911 0.65324 0.51057 0.0
Co633 Co 0.84348 0.65093 0.54659 0.0
C634 C 0.87101 0.61251 0.5732 0.0
O635 O 0.8493 0.609 0.58356 0.0
N636 N 0.80906 0.63834 0.55715 0.0
C637 C 0.76434 0.64155 0.56758 0.0
C638 C 0.78613 0.65634 0.55965 0.0
C639 C 0.79995 0.61212 0.56303 0.0
N640 N 0.77295 0.61367 0.56984 0.0
O641 O 0.84078 0.61841 0.53235 0.0
H642 H 0.78521 0.67901 0.556 0.0
H643 H 0.81275 0.59227 0.56226 0.0
O644 O 0.86807 0.62825 0.56045 0.0
C645 C 0.82208 0.62407 0.52137 0.0
O646 O 0.81012 0.65018 0.52088 0.0
N647 N 0.84443 0.68349 0.56 0.0
C648 C 0.83138 0.73367 0.57759 0.0
C649 C 0.84217 0.70866 0.58555 0.0
C650 C 0.84833 0.68362 0.57653 0.0
C651 C 0.83562 0.70802 0.55193 0.0
C652 C 0.82873 0.73335 0.5605 0.0
H653 H 0.85504 0.66431 0.583 0.0
H654 H 0.83213 0.70723 0.53885 0.0
H655 H 0.90234 0.68598 0.55467 0.0
H656 H 0.91753 0.68169 0.50399 0.0
H657 H 0.74397 0.65104 0.57175 0.0
H658 H 0.84542 0.70821 0.59867 0.0
H659 H 0.82033 0.75202 0.55383 0.0
C660 C 0.57077 0.39361 0.68742 0.0
C661 C 0.55679 0.36783 0.69134 0.0
N662 N 0.5594 0.3493 0.67861 0.0
N663 N 0.58228 0.3915 0.67227 0.0
C664 C 0.57506 0.36419 0.66724 0.0
H665 H 0.57165 0.41298 0.69494 0.0
Co666 Co 0.5998 0.42186 0.66015 0.0
C667 C 0.65075 0.38913 0.6443 0.0
O668 O 0.66028 0.40903 0.63399 0.0
N669 N 0.61634 0.45311 0.648 0.0
C670 C 0.61557 0.49455 0.6337 0.0
C671 C 0.59894 0.47319 0.64076 0.0
C672 C 0.64379 0.4637 0.64569 0.0
N673 N 0.64381 0.48861 0.6367 0.0
O674 O 0.62408 0.43187 0.67817 0.0
H675 H 0.57538 0.47292 0.6409 0.0
H676 H 0.66324 0.45404 0.65093 0.0
O677 O 0.62857 0.39408 0.65329 0.0
C678 C 0.61612 0.45599 0.68442 0.0
O679 O 0.59184 0.46825 0.67923 0.0
N680 N 0.57531 0.41361 0.64261 0.0
C681 C 0.53836 0.42162 0.616 0.0
C682 C 0.56615 0.40911 0.61391 0.0
C683 C 0.58447 0.40559 0.62737 0.0
C684 C 0.54747 0.42305 0.64516 0.0
C685 C 0.52874 0.42767 0.632 0.0
H686 H 0.60645 0.3983 0.62519 0.0
H687 H 0.54082 0.42988 0.65728 0.0
H688 H 0.57999 0.35593 0.65514 0.0
H689 H 0.54523 0.36326 0.70264 0.0
H690 H 0.60748 0.51307 0.62679 0.0
H691 H 0.57422 0.40304 0.60193 0.0
H692 H 0.50767 0.43757 0.63436 0.0
C693 C 0.87473 0.31159 0.90251 0.0
C694 C 0.89295 0.28987 0.90821 0.0
N695 N 0.9101 0.30095 0.92009 0.0
N696 N 0.88066 0.33681 0.91031 0.0
C697 C 0.90075 0.32901 0.92175 0.0
H698 H 0.86026 0.30985 0.8921 0.0
Co699 Co 0.86789 0.37421 0.90251 0.0
C700 C 0.93005 0.39101 0.91414 0.0
O701 O 0.94398 0.36646 0.91135 0.0
N702 N 0.85473 0.4112 0.89491 0.0
C703 C 0.85467 0.45407 0.88197 0.0
C704 C 0.87185 0.43268 0.88884 0.0
C705 C 0.8271 0.42015 0.89154 0.0
N706 N 0.82649 0.44604 0.88344 0.0
O707 O 0.8499 0.38175 0.9229 0.0
H708 H 0.89541 0.43176 0.88811 0.0
H709 H 0.80799 0.40683 0.89379 0.0
O710 O 0.90311 0.39375 0.9104 0.0
C711 C 0.82376 0.37243 0.92374 0.0
O712 O 0.81345 0.35696 0.91151 0.0
N713 N 0.88339 0.36588 0.88128 0.0
C714 C 0.88666 0.33229 0.85306 0.0
C715 C 0.90978 0.33206 0.86429 0.0
C716 C 0.90796 0.34964 0.8783 0.0
C717 C 0.86321 0.36932 0.8691 0.0
C718 C 0.8653 0.35389 0.85458 0.0
H719 H 0.92377 0.34599 0.88773 0.0
H720 H 0.84299 0.38067 0.87119 0.0
H721 H 0.9096 0.34412 0.93056 0.0
H722 H 0.89514 0.2684 0.90284 0.0
H723 H 0.8625 0.47281 0.87514 0.0
H724 H 0.92684 0.31567 0.86351 0.0
H725 H 0.84733 0.35509 0.84598 0.0
C726 C 0.95812 0.63464 0.19173 0.0
C727 C 0.97204 0.66074 0.19426 0.0
N728 N 0.96404 0.67952 0.18243 0.0
N729 N 0.94068 0.63654 0.17847 0.0
C730 C 0.94491 0.66442 0.17296 0.0
H731 H 0.96158 0.61515 0.19888 0.0
Co732 Co 0.92013 0.60287 0.17095 0.0
C733 C 0.88344 0.62485 0.14397 0.0
O734 O 0.8924 0.60333 0.13456 0.0
N735 N 0.9 0.56778 0.1643 0.0
C736 C 0.89162 0.52007 0.1608 0.0
C737 C 0.9101 0.54052 0.16736 0.0
C738 C 0.87362 0.56272 0.1572 0.0
N739 N 0.86874 0.53408 0.1541 0.0
O740 O 0.89394 0.60444 0.18911 0.0
H741 H 0.92957 0.53544 0.17424 0.0
H742 H 0.85769 0.5795 0.15465 0.0
O743 O 0.89327 0.62746 0.15853 0.0
C744 C 0.90131 0.58784 0.2009 0.0
O745 O 0.92703 0.57516 0.20039 0.0
N746 N 0.94655 0.59985 0.15324 0.0
C747 C 0.97563 0.58356 0.12471 0.0
C748 C 0.9637 0.61175 0.12631 0.0
C749 C 0.94955 0.61962 0.1408 0.0
C750 C 0.96273 0.57493 0.15302 0.0
C751 C 0.9762 0.5656 0.13868 0.0
H752 H 0.93924 0.64079 0.14141 0.0
H753 H 0.96421 0.56149 0.1638 0.0
H754 H 0.93439 0.67353 0.16227 0.0
H755 H 0.98784 0.66525 0.20377 0.0
H756 H 0.89525 0.4967 0.16073 0.0
H757 H 0.96463 0.6275 0.11641 0.0
H758 H 0.98604 0.54412 0.13863 0.0
C759 C 0.63309 0.65373 0.44113 0.0
C760 C 0.60674 0.66529 0.44603 0.0
N761 N 0.59337 0.6769 0.43289 0.0
N762 N 0.63662 0.65756 0.42483 0.0
C763 C 0.61185 0.67188 0.4202 0.0
H764 H 0.6489 0.6438 0.44921 0.0
Co765 Co 0.67073 0.64697 0.41264 0.0
C766 C 0.65013 0.6038 0.38791 0.0
O767 O 0.67035 0.61112 0.37722 0.0
N768 N 0.70564 0.63693 0.40095 0.0
C769 C 0.74843 0.64187 0.38822 0.0
C770 C 0.72599 0.65627 0.39581 0.0
C771 C 0.71747 0.6105 0.39707 0.0
N772 N 0.74308 0.61298 0.38881 0.0
O773 O 0.68082 0.61826 0.42856 0.0
H774 H 0.7253 0.67955 0.39759 0.0
H775 H 0.70717 0.58983 0.39998 0.0
O776 O 0.64812 0.61746 0.40147 0.0
C777 C 0.70276 0.62577 0.43701 0.0
O778 O 0.71422 0.65179 0.43477 0.0
N779 N 0.66206 0.67622 0.39713 0.0
C780 C 0.66357 0.72081 0.37381 0.0
C781 C 0.64659 0.69566 0.3713 0.0
C782 C 0.64612 0.6736 0.38311 0.0
C783 C 0.67502 0.70211 0.40081 0.0
C784 C 0.6769 0.72435 0.38916 0.0
H785 H 0.63274 0.65478 0.38083 0.0
H786 H 0.68633 0.70442 0.41235 0.0
H787 H 0.60732 0.67874 0.40781 0.0
H788 H 0.59853 0.666 0.45846 0.0
H789 H 0.76696 0.65216 0.38231 0.0
H790 H 0.63405 0.69268 0.36022 0.0
H791 H 0.69002 0.74331 0.39199 0.0
C792 C 0.42357 0.37122 0.20138 0.0
C793 C 0.43668 0.34436 0.20324 0.0
N794 N 0.43896 0.33169 0.18845 0.0
N795 N 0.41709 0.37593 0.18547 0.0
C796 C 0.42678 0.35116 0.1779 0.0
H797 H 0.41984 0.38653 0.21118 0.0
Co798 Co 0.40133 0.41174 0.17691 0.0
C799 C 0.36312 0.39322 0.14959 0.0
O800 O 0.37154 0.41564 0.14064 0.0
N801 N 0.38581 0.44805 0.16891 0.0
C802 C 0.38189 0.49449 0.16076 0.0
C803 C 0.40013 0.47375 0.1674 0.0
C804 C 0.35811 0.45472 0.16421 0.0
N805 N 0.35551 0.48233 0.15844 0.0
O806 O 0.37307 0.41401 0.19412 0.0
H807 H 0.4225 0.47766 0.17082 0.0
H808 H 0.34017 0.43936 0.16461 0.0
O809 O 0.37393 0.38929 0.16384 0.0
C810 C 0.38191 0.43067 0.20553 0.0
O811 O 0.40906 0.43995 0.20508 0.0
N812 N 0.43019 0.41147 0.16042 0.0
C813 C 0.47277 0.42324 0.1368 0.0
C814 C 0.4519 0.40125 0.13429 0.0
C815 C 0.43088 0.39563 0.14627 0.0
C816 C 0.45245 0.43005 0.16391 0.0
C817 C 0.47325 0.43719 0.1521 0.0
H818 H 0.41543 0.37844 0.14395 0.0
H819 H 0.45322 0.44049 0.17576 0.0
H820 H 0.42505 0.34724 0.16494 0.0
H821 H 0.44489 0.3353 0.21459 0.0
H822 H 0.38803 0.51648 0.15726 0.0
H823 H 0.45168 0.38833 0.12322 0.0
H824 H 0.48899 0.45401 0.15496 0.0
C825 C 0.35077 0.70851 0.92306 0.0
C826 C 0.36966 0.73005 0.92826 0.0
N827 N 0.39733 0.72032 0.92653 0.0
N828 N 0.36625 0.68505 0.91812 0.0
C829 C 0.39458 0.69283 0.92064 0.0
H830 H 0.32728 0.71043 0.92219 0.0
Co831 Co 0.35033 0.65181 0.90744 0.0
C832 C 0.41072 0.6314 0.89732 0.0
O833 O 0.4104 0.64247 0.88251 0.0
N834 N 0.33499 0.61795 0.89661 0.0
C835 C 0.33114 0.58174 0.87852 0.0
C836 C 0.3488 0.60324 0.88451 0.0
C837 C 0.30834 0.60487 0.89747 0.0
N838 N 0.30555 0.5827 0.88659 0.0
O839 O 0.34423 0.63362 0.928 0.0
H840 H 0.36971 0.60865 0.87939 0.0
H841 H 0.29087 0.61205 0.90541 0.0
O842 O 0.38878 0.63377 0.90681 0.0
C843 C 0.31814 0.63964 0.93218 0.0
O844 O 0.30239 0.65654 0.92261 0.0
N845 N 0.35255 0.67159 0.8873 0.0
C846 C 0.34283 0.7088 0.86092 0.0
C847 C 0.37026 0.70768 0.86843 0.0
C848 C 0.3744 0.68961 0.88198 0.0
C849 C 0.32571 0.67274 0.88001 0.0
C850 C 0.32042 0.69101 0.86672 0.0
H851 H 0.39467 0.69139 0.88858 0.0
H852 H 0.30744 0.66106 0.88523 0.0
H853 H 0.41304 0.6792 0.91752 0.0
H854 H 0.36347 0.7518 0.93213 0.0
H855 H 0.33613 0.56775 0.86822 0.0
H856 H 0.38758 0.72243 0.8647 0.0
H857 H 0.29859 0.69252 0.86167 0.0
C858 C 0.08159 0.59593 0.67488 0.0
C859 C 0.06055 0.61441 0.6812 0.0
N860 N 0.07058 0.64209 0.6804 0.0
N861 N 0.10496 0.61173 0.67012 0.0
C862 C 0.09782 0.63969 0.67404 0.0
H863 H 0.07912 0.57275 0.67276 0.0
Co864 Co 0.13573 0.5975 0.6568 0.0
C865 C 0.15424 0.65912 0.64795 0.0
O866 O 0.13998 0.66087 0.6341 0.0
N867 N 0.16692 0.58386 0.64317 0.0
C868 C 0.1958 0.58108 0.62119 0.0
C869 C 0.17687 0.59835 0.62981 0.0
C870 C 0.1806 0.55753 0.64232 0.0
N871 N 0.19801 0.55531 0.62895 0.0
O872 O 0.15766 0.58878 0.67581 0.0
H873 H 0.16945 0.61939 0.62572 0.0
H874 H 0.17654 0.53958 0.65063 0.0
O875 O 0.15383 0.63593 0.65657 0.0
C876 C 0.15261 0.56231 0.67967 0.0
O877 O 0.13508 0.54693 0.67033 0.0
N878 N 0.11198 0.60242 0.63828 0.0
C879 C 0.06896 0.59565 0.61468 0.0
C880 C 0.07192 0.62221 0.62294 0.0
C881 C 0.09302 0.62484 0.63511 0.0
C882 C 0.10909 0.57648 0.63018 0.0
C883 C 0.08799 0.57273 0.61821 0.0
H884 H 0.09278 0.64431 0.64248 0.0
H885 H 0.12179 0.55767 0.63382 0.0
H886 H 0.11137 0.65831 0.67121 0.0
H887 H 0.03872 0.6081 0.68489 0.0
H888 H 0.2064 0.58675 0.60975 0.0
H889 H 0.05654 0.63989 0.62096 0.0
H890 H 0.08545 0.55157 0.61245 0.0
C891 C 0.15773 0.31582 0.40969 0.0
C892 C 0.13852 0.29441 0.41462 0.0
N893 N 0.1202 0.30555 0.42599 0.0
N894 N 0.15152 0.34095 0.41755 0.0
C895 C 0.13015 0.33326 0.42834 0.0
H896 H 0.1733 0.31382 0.39978 0.0
Co897 Co 0.16475 0.37871 0.41037 0.0
C898 C 0.09839 0.38772 0.41339 0.0
O899 O 0.0911 0.36063 0.41019 0.0
N900 N 0.17803 0.41611 0.40293 0.0
C901 C 0.17757 0.45707 0.38808 0.0
C902 C 0.16084 0.43541 0.39492 0.0
C903 C 0.20555 0.42648 0.40037 0.0
N904 N 0.2058 0.45135 0.39127 0.0
O905 O 0.17416 0.38864 0.43252 0.0
H906 H 0.138 0.43223 0.39236 0.0
H907 H 0.22511 0.4148 0.40393 0.0
O908 O 0.12521 0.39563 0.41302 0.0
C909 C 0.20075 0.38088 0.43423 0.0
O910 O 0.21388 0.36808 0.42183 0.0
N911 N 0.15968 0.36793 0.38835 0.0
C912 C 0.16787 0.33801 0.35901 0.0
C913 C 0.13954 0.34265 0.3653 0.0
C914 C 0.13586 0.35835 0.3799 0.0
C915 C 0.1868 0.36588 0.38151 0.0
C916 C 0.19115 0.35241 0.36655 0.0
H917 H 0.11425 0.36053 0.38478 0.0
H918 H 0.20578 0.37262 0.38831 0.0
H919 H 0.11971 0.34886 0.43639 0.0
H920 H 0.13641 0.27326 0.40886 0.0
H921 H 0.16975 0.47398 0.37989 0.0
H922 H 0.12067 0.33236 0.35983 0.0
H923 H 0.21324 0.35085 0.36185 0.0
C924 C 0.40881 0.65562 0.269 0.0
C925 C 0.42249 0.68208 0.26662 0.0
N926 N 0.43133 0.69245 0.28121 0.0
N927 N 0.40868 0.6488 0.28509 0.0
C928 C 0.42248 0.67193 0.29219 0.0
H929 H 0.40017 0.64212 0.25936 0.0
Co930 Co 0.39526 0.61324 0.29518 0.0
C931 C 0.35727 0.63574 0.32259 0.0
O932 O 0.36334 0.61465 0.33299 0.0
N933 N 0.38239 0.57764 0.30518 0.0
C934 C 0.3836 0.53282 0.31596 0.0
C935 C 0.39921 0.55374 0.30761 0.0
C936 C 0.35594 0.5697 0.31137 0.0
N937 N 0.35637 0.54296 0.31859 0.0
O938 O 0.36465 0.60861 0.27961 0.0
H939 H 0.42166 0.55145 0.30377 0.0
H940 H 0.33678 0.58354 0.31087 0.0
O941 O 0.36947 0.63662 0.30855 0.0
C942 C 0.37368 0.59249 0.26797 0.0
O943 O 0.4017 0.58639 0.26714 0.0
N944 N 0.42641 0.61504 0.30956 0.0
C945 C 0.47492 0.60024 0.32806 0.0
C946 C 0.45259 0.61762 0.33478 0.0
C947 C 0.42838 0.62495 0.32524 0.0
C948 C 0.44929 0.60108 0.30237 0.0
C949 C 0.47345 0.5928 0.31146 0.0
H950 H 0.41161 0.63839 0.33056 0.0
H951 H 0.44752 0.59411 0.28977 0.0
H952 H 0.42619 0.67366 0.30521 0.0
H953 H 0.42644 0.69237 0.25488 0.0
H954 H 0.39217 0.51215 0.32029 0.0
H955 H 0.4536 0.62522 0.34731 0.0
H956 H 0.49002 0.57947 0.30563 0.0
C957 C 0.1602 0.7012 0.0506 0.0
C958 C 0.13891 0.7221 0.04824 0.0
N959 N 0.1127 0.70877 0.04763 0.0
N960 N 0.14777 0.67457 0.0515 0.0
C961 C 0.11873 0.67989 0.04951 0.0
H962 H 0.18325 0.70532 0.05231 0.0
Co963 Co 0.16903 0.64092 0.05809 0.0
C964 C 0.12708 0.59303 0.06209 0.0
O965 O 0.14262 0.58287 0.07433 0.0
N966 N 0.19152 0.60726 0.0647 0.0
C967 C 0.21365 0.5637 0.06353 0.0
C968 C 0.19687 0.5837 0.05515 0.0
C969 C 0.20558 0.60073 0.0789 0.0
N970 N 0.21918 0.57448 0.07851 0.0
O971 O 0.18035 0.63409 0.03621 0.0
H972 H 0.18872 0.58089 0.04284 0.0
H973 H 0.20536 0.61432 0.08964 0.0
O974 O 0.13446 0.61681 0.05501 0.0
C975 C 0.20626 0.64324 0.03387 0.0
O976 O 0.21939 0.65719 0.04582 0.0
N977 N 0.15977 0.64998 0.07952 0.0
C978 C 0.15021 0.6907 0.10381 0.0
C979 C 0.12681 0.67425 0.09776 0.0
C980 C 0.13216 0.65333 0.08565 0.0
C981 C 0.18276 0.66446 0.08619 0.0
C982 C 0.17863 0.68398 0.09889 0.0
H983 H 0.11372 0.64322 0.07972 0.0
H984 H 0.20401 0.66329 0.08039 0.0
H985 H 0.10213 0.66325 0.05043 0.0
H986 H 0.14247 0.74544 0.04735 0.0
H987 H 0.22142 0.543 0.05885 0.0
H988 H 0.1045 0.67978 0.10098 0.0
H989 H 0.19698 0.69706 0.10294 0.0
C990 C 0.05411 0.406 0.7783 0.0
C991 C 0.03778 0.38159 0.77494 0.0
N992 N 0.03767 0.36402 0.78822 0.0
N993 N 0.06471 0.40416 0.79363 0.0
C994 C 0.05436 0.37819 0.79938 0.0
H995 H 0.05766 0.42403 0.76999 0.0
Co996 Co 0.08766 0.43295 0.80411 0.0
C997 C 0.14032 0.39662 0.80668 0.0
O998 O 0.15658 0.41559 0.79872 0.0
N999 N 0.10966 0.46203 0.81476 0.0
C1000 C 0.11725 0.50631 0.82504 0.0
C1001 C 0.0996 0.48974 0.81528 0.0
C1002 C 0.13351 0.46226 0.82461 0.0
N1003 N 0.13859 0.48909 0.83101 0.0
O1004 O 0.10952 0.43959 0.78458 0.0
H1005 H 0.0798 0.49729 0.80948 0.0
H1006 H 0.14607 0.44302 0.82772 0.0
O1007 O 0.11384 0.4024 0.81024 0.0
C1008 C 0.10124 0.46256 0.77714 0.0
O1009 O 0.07678 0.47522 0.78172 0.0
N1010 N 0.06596 0.42929 0.82293 0.0
C1011 C 0.04133 0.45 0.85176 0.0
C1012 C 0.06396 0.42912 0.85215 0.0
C1013 C 0.07633 0.41927 0.83753 0.0
C1014 C 0.04244 0.44739 0.82222 0.0
C1015 C 0.03005 0.45841 0.83649 0.0
H1016 H 0.09552 0.40553 0.83806 0.0
H1017 H 0.03541 0.45585 0.8105 0.0
H1018 H 0.05837 0.37022 0.81166 0.0
H1019 H 0.02682 0.37719 0.76349 0.0
H1020 H 0.11441 0.52933 0.82762 0.0
H1021 H 0.07276 0.42112 0.8636 0.0
H1022 H 0.01292 0.4746 0.8354 0.0
C1023 C 0.39447 0.31065 0.52562 0.0
C1024 C 0.41979 0.29517 0.5225 0.0
N1025 N 0.43505 0.29285 0.53651 0.0
N1026 N 0.39312 0.31744 0.54171 0.0
C1027 C 0.41861 0.30685 0.54782 0.0
H1028 H 0.37932 0.31778 0.51636 0.0
Co1029 Co 0.36874 0.34013 0.55559 0.0
C1030 C 0.40126 0.38687 0.53866 0.0
O1031 O 0.39588 0.3772 0.52386 0.0
N1032 N 0.34815 0.36224 0.57079 0.0
C1033 C 0.3357 0.37358 0.59622 0.0
C1034 C 0.35144 0.35485 0.58664 0.0
C1035 C 0.33055 0.38607 0.57099 0.0
N1036 N 0.32261 0.39346 0.58648 0.0
O1037 O 0.34265 0.35236 0.53768 0.0
H1038 H 0.36451 0.33666 0.5909 0.0
H1039 H 0.32419 0.39791 0.56008 0.0
O1040 O 0.39244 0.37311 0.5513 0.0
C1041 C 0.32833 0.33715 0.52734 0.0
O1042 O 0.33 0.30848 0.52757 0.0
N1043 N 0.34454 0.30784 0.56081 0.0
C1044 C 0.31057 0.27049 0.57987 0.0
C1045 C 0.3402 0.26434 0.57702 0.0
C1046 C 0.35695 0.28359 0.56761 0.0
C1047 C 0.31497 0.3123 0.56216 0.0
C1048 C 0.29765 0.29395 0.57171 0.0
H1049 H 0.3803 0.28058 0.56729 0.0
H1050 H 0.30504 0.33204 0.55747 0.0
H1051 H 0.42502 0.30956 0.56047 0.0
H1052 H 0.42705 0.28738 0.51066 0.0
H1053 H 0.33385 0.37224 0.6094 0.0
H1054 H 0.35105 0.24675 0.58352 0.0
H1055 H 0.27498 0.29962 0.57392 0.0
H1056 H 0.21609 0.30253 0.35804 0.0
H1057 H 0.14543 0.18577 0.29872 0.0
H1058 H 0.13399 0.3176 0.33322 0.0
H1059 H 0.21376 0.16901 0.33389 0.0
H1060 H 0.14866 0.23799 0.30487 0.0
H1061 H 0.22331 0.25906 0.34218 0.0
C1062 C 0.1998 0.2974 0.34893 0.0
C1063 C 0.17417 0.31416 0.34712 0.0
C1064 C 0.16319 0.22285 0.31103 0.0
C1065 C 0.18198 0.26261 0.32935 0.0
C1066 C 0.16132 0.19304 0.3076 0.0
C1067 C 0.17862 0.17288 0.31628 0.0
C1068 C 0.18287 0.23245 0.32297 0.0
C1069 C 0.19953 0.18365 0.32718 0.0
C1070 C 0.20389 0.27205 0.33998 0.0
C1071 C 0.15376 0.30518 0.33533 0.0
N1072 N 0.2008 0.21266 0.33035 0.0
N1073 N 0.15787 0.27968 0.32706 0.0
H1074 H 1.00583 0.95199 0.6339 0.0
H1075 H 0.08827 0.8906 0.55546 0.0
H1076 H 0.99143 0.86657 0.61279 0.0
H1077 H 0.13262 0.93945 0.5931 0.0
H1078 H 0.04213 0.89806 0.56997 0.0
H1079 H 0.04283 0.9614 0.61289 0.0
C1080 C 1.01025 0.93522 0.6249 0.0
C1081 C 0.99575 0.9081 0.62544 0.0
C1082 C 0.0619 0.90782 0.57475 0.0
C1083 C 0.03679 0.91966 0.60094 0.0
C1084 C 0.0882 0.90372 0.56648 0.0
C1085 C 0.11436 0.91377 0.57339 0.0
C1086 C 0.06187 0.92237 0.58982 0.0
C1087 C 0.11295 0.9308 0.58761 0.0
C1088 C 0.03102 0.9409 0.6128 0.0
C1089 C 1.00168 0.88784 0.61296 0.0
N1090 N 0.08709 0.9342 0.59556 0.0
N1091 N 0.02185 0.894 0.60128 0.0
H1092 H 0.30783 0.75494 0.86685 0.0
H1093 H 0.3782 0.84937 0.79538 0.0
H1094 H 0.36447 0.71768 0.83017 0.0
H1095 H 0.38197 0.87079 0.84667 0.0
H1096 H 0.34887 0.80581 0.8022 0.0
H1097 H 0.30985 0.80195 0.85242 0.0
C1098 C 0.31956 0.7564 0.85533 0.0
C1099 C 0.33635 0.73288 0.84967 0.0
C1100 C 0.35537 0.82068 0.81182 0.0
C1101 C 0.3385 0.78583 0.83328 0.0
C1102 C 0.37206 0.84525 0.80799 0.0
C1103 C 0.38263 0.86297 0.82059 0.0
C1104 C 0.3488 0.8147 0.82825 0.0
C1105 C 0.3744 0.85714 0.83673 0.0
C1106 C 0.32071 0.78309 0.84718 0.0
C1107 C 0.35152 0.73563 0.83487 0.0
N1108 N 0.358 0.83327 0.84015 0.0
N1109 N 0.35263 0.76197 0.82724 0.0
H1110 H 0.38774 0.06376 0.08505 0.0
H1111 H 0.55864 0.05368 0.07819 0.0
H1112 H 0.43897 0.10261 0.04623 0.0
H1113 H 0.50575 0.02838 0.1199 0.0
H1114 H 0.51448 0.05432 0.06149 0.0
H1115 H 0.42959 0.03358 0.09247 0.0
C1116 C 0.40771 0.0657 0.07798 0.0
C1117 C 0.41032 0.08647 0.06545 0.0
C1118 C 0.51289 0.04784 0.07422 0.0
C1119 C 0.45828 0.0523 0.07392 0.0
C1120 C 0.53806 0.04777 0.08385 0.0
C1121 C 0.53605 0.04237 0.10077 0.0
C1122 C 0.48568 0.04236 0.0816 0.0
C1123 C 0.50888 0.03321 0.10706 0.0
C1124 C 0.43154 0.04833 0.08213 0.0
C1125 C 0.43634 0.08742 0.05631 0.0
N1126 N 0.48478 0.03413 0.09756 0.0
N1127 N 0.45963 0.07108 0.061 0.0
H1128 H 0.13781 0.7373 0.08549 0.0
H1129 H 0.15395 0.85454 0.15582 0.0
H1130 H 0.15553 0.71118 0.1352 0.0
H1131 H 0.17342 0.87276 0.10505 0.0
H1132 H 0.15015 0.80263 0.14933 0.0
H1133 H 0.14392 0.78837 0.09328 0.0
C1134 C 0.14189 0.74257 0.09821 0.0
C1135 C 0.1455 0.72038 0.10987 0.0
C1136 C 0.15572 0.81797 0.13969 0.0
C1137 C 0.15333 0.77837 0.11876 0.0
C1138 C 0.15799 0.84755 0.14336 0.0
C1139 C 0.16368 0.86799 0.13088 0.0
C1140 C 0.15887 0.8089 0.12343 0.0
C1141 C 0.16887 0.85777 0.115 0.0
C1142 C 0.14597 0.77156 0.10257 0.0
C1143 C 0.15197 0.72794 0.12604 0.0
N1144 N 0.1659 0.82889 0.11167 0.0
N1145 N 0.15561 0.75652 0.13007 0.0
H1146 H 0.54613 0.95379 0.37577 0.0
H1147 H 0.42884 0.90641 0.4174 0.0
H1148 H 0.58777 0.87088 0.38643 0.0
H1149 H 0.45899 0.82652 0.3948 0.0
H1150 H 0.47879 0.92524 0.41647 0.0
H1151 H 0.50808 0.94206 0.39472 0.0
C1152 C 0.54822 0.93351 0.38248 0.0
C1153 C 0.56976 0.91258 0.37864 0.0
C1154 C 0.47438 0.90353 0.41183 0.0
C1155 C 0.52493 0.89875 0.40028 0.0
C1156 C 0.44592 0.89286 0.41221 0.0
C1157 C 0.43968 0.86516 0.40573 0.0
C1158 C 0.49654 0.88641 0.40485 0.0
C1159 C 0.46271 0.84826 0.39955 0.0
C1160 C 0.52607 0.92682 0.39347 0.0
C1161 C 0.57064 0.88691 0.3881 0.0
N1162 N 0.49014 0.85928 0.39915 0.0
N1163 N 0.54775 0.8801 0.39798 0.0
H1164 H 0.31731 0.15429 0.65589 0.0
H1165 H 0.29053 0.29903 0.60658 0.0
H1166 H 0.36734 0.23382 0.65849 0.0
H1167 H 0.29971 0.21267 0.58625 0.0
H1168 H 0.286 0.27749 0.6339 0.0
H1169 H 0.27965 0.18042 0.64036 0.0
C1170 C 0.32004 0.17741 0.65358 0.0
C1171 C 0.34677 0.1913 0.65676 0.0
C1172 C 0.28729 0.26324 0.62335 0.0
C1173 C 0.30296 0.22159 0.64063 0.0
C1174 C 0.28993 0.27544 0.60777 0.0
C1175 C 0.29615 0.25748 0.59429 0.0
C1176 C 0.29074 0.233 0.62531 0.0
C1177 C 0.29544 0.22715 0.59645 0.0
C1178 C 0.29826 0.19236 0.64503 0.0
C1179 C 0.34789 0.22179 0.65517 0.0
N1180 N 0.29345 0.21581 0.61178 0.0
N1181 N 0.32662 0.23587 0.64672 0.0
H1182 H 0.04005 0.15475 0.90859 0.0
H1183 H 0.01432 0.07325 0.83932 0.0
H1184 H 0.10434 0.08747 0.89979 0.0
H1185 H 0.94138 0.07511 0.87313 0.0
H1186 H 0.04739 0.07123 0.86228 0.0
H1187 H 1.00214 0.12169 0.89915 0.0
C1188 C 0.04615 0.13282 0.90496 0.0
C1189 C 0.07552 0.12438 0.90405 0.0
C1190 C 0.02408 0.07106 0.86467 0.0
C1191 C 0.03247 0.08689 0.89292 0.0
C1192 C 1.005 0.07237 0.85149 0.0
C1193 C 0.97483 0.07568 0.85418 0.0
C1194 C 0.01307 0.07435 0.88058 0.0
C1195 C 0.96452 0.07438 0.87041 0.0
C1196 C 0.02445 0.11381 0.89976 0.0
C1197 C 0.0821 0.0954 0.89978 0.0
N1198 N 0.98369 0.075 0.88305 0.0
N1199 N 0.06083 0.07799 0.89362 0.0
H1200 H 0.83865 0.79115 0.56891 0.0
H1201 H 0.83713 0.84033 0.65914 0.0
H1202 H 0.80525 0.73639 0.60785 0.0
H1203 H 0.84676 0.90031 0.61858 0.0
H1204 H 0.81491 0.80502 0.64073 0.0
H1205 H 0.83162 0.83364 0.58617 0.0
C1206 C 0.82932 0.78805 0.58098 0.0
C1207 C 0.8234 0.76 0.5871 0.0
C1208 C 0.82122 0.82617 0.63591 0.0
C1209 C 0.816 0.80864 0.60714 0.0
C1210 C 0.83398 0.84633 0.64643 0.0
C1211 C 0.84488 0.87276 0.64021 0.0
C1212 C 0.8199 0.83243 0.61909 0.0
C1213 C 0.83956 0.87973 0.62376 0.0
C1214 C 0.82531 0.81241 0.59087 0.0
C1215 C 0.81131 0.75748 0.60287 0.0
N1216 N 0.82811 0.85934 0.61365 0.0
N1217 N 0.80863 0.78144 0.61249 0.0
H1218 H 0.02885 0.06792 0.34577 0.0
H1219 H 0.93694 0.1337 0.41807 0.0
H1220 H 0.07629 0.1107 0.38459 0.0
H1221 H 0.92805 0.1613 0.3678 0.0
H1222 H 0.98063 0.10505 0.41035 0.0
H1223 H 0.98328 0.07958 0.35955 0.0
C1224 C 0.02986 0.07867 0.35755 0.0
C1225 C 0.05645 0.08868 0.36399 0.0
C1226 C 0.96873 0.11714 0.4011 0.0
C1227 C 1.00431 0.1021 0.37957 0.0
C1228 C 0.94406 0.13332 0.40541 0.0
C1229 C 0.92942 0.14977 0.39347 0.0
C1230 C 0.97768 0.11688 0.38472 0.0
C1231 C 0.93913 0.14898 0.37728 0.0
C1232 C 1.00378 0.08542 0.3653 0.0
C1233 C 0.05618 0.10304 0.37915 0.0
N1234 N 0.9627 0.13256 0.37332 0.0
N1235 N 0.03027 0.10986 0.38637 0.0
H1236 H 0.64885 0.17579 0.1598 0.0
H1237 H 0.71432 0.27208 0.08858 0.0
H1238 H 0.623 0.16886 0.10923 0.0
H1239 H 0.67366 0.31588 0.12954 0.0
H1240 H 0.70342 0.22524 0.10129 0.0
H1241 H 0.67808 0.21943 0.15277 0.0
C1242 C 0.64968 0.18336 0.14723 0.0
C1243 C 0.63346 0.16934 0.13502 0.0
C1244 C 0.6979 0.24519 0.10773 0.0
C1245 C 0.66722 0.21745 0.12701 0.0
C1246 C 0.70424 0.27196 0.10059 0.0
C1247 C 0.69447 0.2979 0.10796 0.0
C1248 C 0.68194 0.24443 0.12232 0.0
C1249 C 0.68107 0.29628 0.12339 0.0
C1250 C 0.66626 0.20796 0.14329 0.0
C1251 C 0.635 0.17953 0.11893 0.0
N1252 N 0.67465 0.26977 0.13001 0.0
N1253 N 0.65179 0.20303 0.11534 0.0
H1254 H 0.58644 0.92957 0.91276 0.0
H1255 H 0.51695 1.00428 0.83615 0.0
H1256 H 0.63235 0.95566 0.86883 0.0
H1257 H 0.46606 0.97328 0.87751 0.0
H1258 H 0.55981 1.00315 0.8527 0.0
H1259 H 0.54455 0.9588 0.90416 0.0
C1260 C 0.58786 0.94174 0.9014 0.0
C1261 C 0.61257 0.93955 0.89122 0.0
C1262 C 0.53919 0.99696 0.85826 0.0
C1263 C 0.56488 0.97313 0.88146 0.0
C1264 C 0.51413 0.99789 0.84879 0.0
C1265 C 0.48734 0.98738 0.855 0.0
C1266 C 0.53793 0.98458 0.87391 0.0
C1267 C 0.48628 0.97977 0.8717 0.0
C1268 C 0.56399 0.95855 0.89656 0.0
C1269 C 0.61345 0.95616 0.87683 0.0
N1270 N 0.51143 0.97755 0.88043 0.0
N1271 N 0.58974 0.97193 0.87226 0.0
H1272 H 0.86969 0.17245 0.79538 0.0
H1273 H 0.83497 0.30414 0.85394 0.0
H1274 H 0.82375 0.16236 0.84107 0.0
H1275 H 0.92117 0.29836 0.83246 0.0
H1276 H 0.82302 0.25688 0.84253 0.0
H1277 H 0.88233 0.22286 0.80299 0.0
C1278 C 0.86296 0.18068 0.80716 0.0
C1279 C 0.847 0.16296 0.81797 0.0
C1280 C 0.8444 0.26612 0.84011 0.0
C1281 C 0.85924 0.22065 0.82615 0.0
C1282 C 0.85121 0.29329 0.84643 0.0
C1283 C 0.87908 0.30544 0.84397 0.0
C1284 C 0.86545 0.2508 0.83119 0.0
C1285 C 0.89945 0.28976 0.83457 0.0
C1286 C 0.86971 0.20943 0.81134 0.0
C1287 C 0.8364 0.17525 0.83248 0.0
N1288 N 0.89221 0.26304 0.82845 0.0
N1289 N 0.84271 0.20342 0.83615 0.0
H1290 H 0.59914 0.11693 0.54722 0.0
H1291 H 0.4564 0.06952 0.59522 0.0
H1292 H 0.59829 0.06245 0.59048 0.0
H1293 H 0.46655 0.15808 0.57746 0.0
H1294 H 0.50329 0.057 0.58358 0.0
H1295 H 0.54592 0.12195 0.5493 0.0
C1296 C 0.58781 0.10578 0.55706 0.0
C1297 C 0.6033 0.0904 0.5692 0.0
C1298 C 0.49491 0.07896 0.58186 0.0
C1299 C 0.54272 0.09476 0.57098 0.0
C1300 C 0.46789 0.08623 0.58835 0.0
C1301 C 0.45722 0.11506 0.58728 0.0
C1302 C 0.51169 0.10053 0.57427 0.0
C1303 C 0.47398 0.13571 0.57866 0.0
C1304 C 0.55752 0.10857 0.55812 0.0
C1305 C 0.58736 0.07511 0.5811 0.0
N1306 N 0.50069 0.12811 0.5726 0.0
N1307 N 0.5579 0.0779 0.58178 0.0
H1308 H 0.66367 0.71149 0.34041 0.0
H1309 H 0.70775 0.87332 0.31646 0.0
H1310 H 0.67424 0.78016 0.37626 0.0
H1311 H 0.63356 0.8323 0.29371 0.0
H1312 H 0.71469 0.82945 0.33339 0.0
H1313 H 0.66961 0.74784 0.3187 0.0
C1314 C 0.66714 0.73404 0.34384 0.0
C1315 C 0.66798 0.74259 0.3604 0.0
C1316 C 0.69766 0.82973 0.3242 0.0
C1317 C 0.67673 0.78365 0.33546 0.0
C1318 C 0.69394 0.85447 0.31442 0.0
C1319 C 0.67013 0.85614 0.30373 0.0
C1320 C 0.67788 0.8065 0.32285 0.0
C1321 C 0.65227 0.83154 0.30179 0.0
C1322 C 0.67101 0.75458 0.33138 0.0
C1323 C 0.67377 0.77213 0.36383 0.0
N1324 N 0.65633 0.80767 0.31143 0.0
N1325 N 0.67797 0.79156 0.35147 0.0
H1326 H 0.03291 0.95384 0.09276 0.0
H1327 H 0.86216 0.9242 0.09551 0.0
H1328 H 0.98218 0.93219 0.13585 0.0
H1329 H 0.91548 0.91312 0.05222 0.0
H1330 H 0.9035 0.94712 0.10915 0.0
H1331 H 0.98753 0.95663 0.07702 0.0
C1332 C 0.01232 0.94987 0.09894 0.0
C1333 C 0.01141 0.94221 0.11559 0.0
C1334 C 0.90592 0.94014 0.09655 0.0
C1335 C 0.95977 0.94644 0.09785 0.0
C1336 C 0.88241 0.92699 0.08879 0.0
C1337 C 0.88587 0.91573 0.07298 0.0
C1338 C 0.93295 0.94172 0.08846 0.0
C1339 C 0.91224 0.92074 0.06463 0.0
C1340 C 0.98651 0.95188 0.09 0.0
C1341 C 0.98407 0.93829 0.12309 0.0
N1342 N 0.93511 0.93284 0.07263 0.0
N1343 N 0.95937 0.9402 0.11412 0.0
H1344 H 0.66234 0.73989 0.89907 0.0
H1345 H 0.66705 0.67952 0.81085 0.0
H1346 H 0.68275 0.79652 0.85817 0.0
H1347 H 0.68439 0.62556 0.85321 0.0
H1348 H 0.67798 0.72281 0.82713 0.0
H1349 H 0.67407 0.69787 0.88227 0.0
C1350 C 0.66968 0.7436 0.88663 0.0
C1351 C 0.67122 0.77187 0.88001 0.0
C1352 C 0.6801 0.70143 0.83272 0.0
C1353 C 0.6841 0.72358 0.86054 0.0
C1354 C 0.67389 0.67671 0.82344 0.0
C1355 C 0.67384 0.64904 0.83088 0.0
C1356 C 0.68584 0.69826 0.84951 0.0
C1357 C 0.6833 0.6466 0.84714 0.0
C1358 C 0.67642 0.71951 0.87702 0.0
C1359 C 0.68042 0.7751 0.86367 0.0
N1360 N 0.68823 0.671 0.85604 0.0
N1361 N 0.68608 0.75118 0.85439 0.0
H1362 H 0.58915 0.3959 0.05859 0.0
H1363 H 0.52887 0.44396 0.14051 0.0
H1364 H 0.62725 0.46813 0.08481 0.0
H1365 H 0.46655 0.4198 0.10315 0.0
H1366 H 0.56456 0.45353 0.1194 0.0
H1367 H 0.54262 0.40512 0.07264 0.0
C1368 C 0.58749 0.41423 0.06688 0.0
C1369 C 0.61226 0.4306 0.07106 0.0
C1370 C 0.54289 0.44657 0.1158 0.0
C1371 C 0.5597 0.44094 0.08713 0.0
C1372 C 0.52228 0.44113 0.12792 0.0
C1373 C 0.4944 0.43073 0.1238 0.0
C1374 C 0.53613 0.44072 0.09941 0.0
C1375 C 0.48796 0.42685 0.10707 0.0
C1376 C 0.56097 0.41949 0.07488 0.0
C1377 C 0.60885 0.45438 0.08168 0.0
N1378 N 0.50891 0.43121 0.09549 0.0
N1379 N 0.58326 0.45837 0.08971 0.0
H1380 H 0.77937 0.27529 0.37945 0.0
H1381 H 0.85459 0.3404 0.30315 0.0
H1382 H 0.81047 0.22243 0.33903 0.0
H1383 H 0.81944 0.38936 0.3438 0.0
H1384 H 0.82427 0.29878 0.31114 0.0
H1385 H 0.77637 0.3164 0.36151 0.0
C1386 C 0.78507 0.27165 0.36678 0.0
C1387 C 0.7971 0.24507 0.36123 0.0
C1388 C 0.82266 0.31886 0.31808 0.0
C1389 C 0.79517 0.29377 0.34063 0.0
C1390 C 0.84007 0.34258 0.31357 0.0
C1391 C 0.8403 0.36788 0.32325 0.0
C1392 C 0.80565 0.32057 0.33238 0.0
C1393 C 0.82068 0.36984 0.33637 0.0
C1394 C 0.78353 0.29571 0.35646 0.0
C1395 C 0.80327 0.24278 0.34438 0.0
N1396 N 0.80454 0.34628 0.34073 0.0
N1397 N 0.80334 0.26712 0.33481 0.0
H1398 H 0.88889 0.58217 0.60044 0.0
H1399 H 0.05123 0.62513 0.58746 0.0
H1400 H 0.9199 0.61718 0.55437 0.0
H1401 H 0.02744 0.55484 0.62011 0.0
H1402 H 1.00328 0.62128 0.5744 0.0
H1403 H 0.93937 0.57008 0.60766 0.0
C1404 C 0.90621 0.58693 0.59177 0.0
C1405 C 0.90032 0.6013 0.57698 0.0
C1406 C 1.0088 0.60624 0.58417 0.0
C1407 C 0.95768 0.58772 0.58512 0.0
C1408 C 0.03602 0.60853 0.59159 0.0
C1409 C 0.0429 0.59033 0.60479 0.0
C1410 C 0.98828 0.58624 0.59041 0.0
C1411 C 0.02271 0.56914 0.60987 0.0
C1412 C 0.93493 0.5799 0.59584 0.0
C1413 C 0.92351 0.60668 0.56608 0.0
N1414 N 0.99593 0.56804 0.60287 0.0
N1415 N 0.95126 0.60035 0.57051 0.0
H1416 H 0.71614 0.23307 0.60283 0.0
H1417 H 0.63365 0.34184 0.66255 0.0
H1418 H 0.64622 0.20515 0.63497 0.0
H1419 H 0.69263 0.36749 0.62371 0.0
H1420 H 0.64539 0.29071 0.65723 0.0
H1421 H 0.71539 0.28047 0.6154 0.0
C1422 C 0.70104 0.23654 0.61287 0.0
C1423 C 0.68138 0.21471 0.61797 0.0
C1424 C 0.65599 0.30758 0.65003 0.0
C1425 C 0.67954 0.2702 0.63193 0.0
C1426 C 0.64929 0.33678 0.65301 0.0
C1427 C 0.66158 0.35892 0.64322 0.0
C1428 C 0.67532 0.30062 0.63731 0.0
C1429 C 0.68226 0.35114 0.63137 0.0
C1430 C 0.70042 0.26397 0.61991 0.0
C1431 C 0.66162 0.22134 0.63059 0.0
N1432 N 0.68823 0.32257 0.62863 0.0
N1433 N 0.66098 0.24871 0.63706 0.0
H1434 H 0.06941 0.46092 0.88111 0.0
H1435 H 0.9856 0.3927 0.92635 0.0
H1436 H 0.9851 0.46873 0.85774 0.0
H1437 H 0.91369 0.44924 0.91383 0.0
H1438 H 0.01918 0.43233 0.92098 0.0
H1439 H 0.04573 0.46887 0.9076 0.0
C1440 C 0.04603 0.46455 0.88145 0.0
C1441 C 0.029 0.46214 0.86719 0.0
C1442 C 0.99602 0.43675 0.9199 0.0
C1443 C 1.00209 0.47181 0.89736 0.0
C1444 C 0.97678 0.41378 0.92282 0.0
C1445 C 0.94723 0.41693 0.91872 0.0
C1446 C 0.98552 0.46184 0.91183 0.0
C1447 C 0.93676 0.44515 0.91551 0.0
C1448 C 0.03266 0.4696 0.89657 0.0
C1449 C 0.99923 0.46929 0.86831 0.0
N1450 N 0.95609 0.46646 0.91141 0.0
N1451 N 0.98669 0.47316 0.88316 0.0
H1452 H 0.82606 0.78845 0.10897 0.0
H1453 H 0.84719 0.61767 0.11808 0.0
H1454 H 0.82484 0.72578 0.06951 0.0
H1455 H 0.87247 0.68044 0.15476 0.0
H1456 H 0.82047 0.65594 0.10371 0.0
H1457 H 0.8253 0.74805 0.12863 0.0
C1458 C 0.82522 0.76624 0.10443 0.0
C1459 C 0.82648 0.76044 0.08756 0.0
C1460 C 0.83141 0.66125 0.11506 0.0
C1461 C 0.82497 0.71445 0.10991 0.0
C1462 C 0.84678 0.63948 0.12322 0.0
C1463 C 0.86286 0.64629 0.13726 0.0
C1464 C 0.83261 0.69003 0.12086 0.0
C1465 C 0.86084 0.67455 0.14372 0.0
C1466 C 0.82451 0.74328 0.11565 0.0
C1467 C 0.82416 0.73137 0.08236 0.0
N1468 N 0.84654 0.69569 0.13522 0.0
N1469 N 0.82402 0.70943 0.09351 0.0
H1470 H 0.64693 0.5704 0.36042 0.0
H1471 H 0.47438 0.58375 0.3605 0.0
H1472 H 0.59655 0.59735 0.40256 0.0
H1473 H 0.53189 0.59233 0.31867 0.0
H1474 H 0.51652 0.56952 0.37717 0.0
H1475 H 0.60183 0.55571 0.34696 0.0
C1476 C 0.62645 0.57253 0.36701 0.0
C1477 C 0.62522 0.58635 0.38228 0.0
C1478 C 0.51957 0.57394 0.36424 0.0
C1479 C 0.57388 0.56998 0.36694 0.0
C1480 C 0.49572 0.58253 0.35478 0.0
C1481 C 0.49962 0.5898 0.33819 0.0
C1482 C 0.54732 0.57232 0.35698 0.0
C1483 C 0.52761 0.58681 0.33133 0.0
C1484 C 0.60077 0.56414 0.35933 0.0
C1485 C 0.5983 0.58767 0.39052 0.0
N1486 N 0.55037 0.57852 0.34079 0.0
N1487 N 0.57342 0.58039 0.38252 0.0
H1488 H 0.33506 0.39486 0.12031 0.0
H1489 H 0.3443 0.22289 0.1088 0.0
H1490 H 0.35688 0.33665 0.16018 0.0
H1491 H 0.36943 0.28828 0.07313 0.0
H1492 H 0.33052 0.26215 0.12769 0.0
H1493 H 0.32515 0.35255 0.10314 0.0
C1494 C 0.33699 0.37319 0.12559 0.0
C1495 C 0.34797 0.3691 0.14143 0.0
C1496 C 0.33862 0.26762 0.11559 0.0
C1497 C 0.33684 0.32103 0.12192 0.0
C1498 C 0.34696 0.24537 0.10491 0.0
C1499 C 0.35832 0.25225 0.08936 0.0
C1500 C 0.34115 0.29675 0.11051 0.0
C1501 C 0.36044 0.28178 0.08484 0.0
C1502 C 0.33136 0.34913 0.11579 0.0
C1503 C 0.34923 0.34065 0.14785 0.0
N1504 N 0.35195 0.3029 0.09538 0.0
N1505 N 0.34448 0.31747 0.13788 0.0
H1506 H 0.50239 0.56018 0.83901 0.0
H1507 H 0.46509 0.64363 0.90809 0.0
H1508 H 0.57249 0.58615 0.8712 0.0
H1509 H 0.40884 0.57282 0.89393 0.0
H1510 H 0.50753 0.61381 0.90123 0.0
H1511 H 0.47124 0.55306 0.86256 0.0
C1512 C 0.51164 0.56371 0.85101 0.0
C1513 C 0.53979 0.57528 0.85297 0.0
C1514 C 0.48602 0.60408 0.90036 0.0
C1515 C 0.50355 0.56809 0.88011 0.0
C1516 C 0.46184 0.62117 0.90433 0.0
C1517 C 0.43382 0.61066 0.90115 0.0
C1518 C 0.48168 0.57728 0.89233 0.0
C1519 C 0.43039 0.58163 0.89622 0.0
C1520 C 0.49371 0.5595 0.86458 0.0
C1521 C 0.55032 0.579 0.869 0.0
N1522 N 0.45414 0.56616 0.89134 0.0
N1523 N 0.53186 0.57647 0.88195 0.0
H1524 H 0.21487 0.74559 0.58572 0.0
H1525 H 0.14286 0.71324 0.65942 0.0
H1526 H 0.1903 0.81797 0.6168 0.0
H1527 H 0.21256 0.65725 0.64296 0.0
H1528 H 0.17079 0.75569 0.65057 0.0
H1529 H 0.22656 0.71727 0.60974 0.0
C1530 C 0.2125 0.75595 0.59753 0.0
C1531 C 0.2001 0.78387 0.59913 0.0
C1532 C 0.18084 0.73431 0.64961 0.0
C1533 C 0.21261 0.75078 0.62695 0.0
C1534 C 0.16485 0.7101 0.65475 0.0
C1535 C 0.17529 0.68205 0.65141 0.0
C1536 C 0.20633 0.72989 0.64028 0.0
C1537 C 0.20372 0.6788 0.64537 0.0
C1538 C 0.21937 0.73965 0.61138 0.0
C1539 C 0.19801 0.79585 0.61494 0.0
N1540 N 0.21794 0.7025 0.63934 0.0
N1541 N 0.20317 0.77888 0.62828 0.0
H1542 H 0.1007 0.44734 0.40767 0.0
H1543 H 0.94072 0.42654 0.37595 0.0
H1544 H 0.04157 0.3785 0.42184 0.0
H1545 H 0.01662 0.45439 0.34838 0.0
H1546 H 0.96835 0.43343 0.4012 0.0
H1547 H 0.05947 0.47471 0.3964 0.0
C1548 C 0.07903 0.43827 0.40879 0.0
C1549 C 0.0747 0.4095 0.4142 0.0
C1550 C 0.9784 0.43901 0.38958 0.0
C1551 C 0.02772 0.44106 0.40223 0.0
C1552 C 0.96295 0.43448 0.37512 0.0
C1553 C 0.97673 0.43846 0.35985 0.0
C1554 C 1.00764 0.44792 0.38876 0.0
C1555 C 1.005 0.45043 0.3597 0.0
C1556 C 0.05545 0.45413 0.40259 0.0
C1557 C 0.04594 0.39991 0.41671 0.0
N1558 N 0.01967 0.45419 0.37392 0.0
N1559 N 0.02346 0.41529 0.41022 0.0
H1560 H 0.31953 0.6371 0.34842 0.0
H1561 H 0.31338 0.80914 0.3459 0.0
H1562 H 0.35157 0.68945 0.30816 0.0
H1563 H 0.28942 0.75464 0.38715 0.0
H1564 H 0.31249 0.76586 0.32847 0.0
H1565 H 0.29373 0.67972 0.35897 0.0
C1566 C 0.32091 0.65754 0.34173 0.0
C1567 C 0.33838 0.66006 0.32771 0.0
C1568 C 0.3067 0.76366 0.34128 0.0
C1569 C 0.30922 0.70894 0.33974 0.0
C1570 C 0.30741 0.78833 0.35129 0.0
C1571 C 0.30266 0.78556 0.36823 0.0
C1572 C 0.30116 0.73617 0.3483 0.0
C1573 C 0.29365 0.7582 0.37428 0.0
C1574 C 0.30604 0.68183 0.34768 0.0
C1575 C 0.33877 0.68678 0.31923 0.0
N1576 N 0.2938 0.73455 0.36439 0.0
N1577 N 0.32493 0.71043 0.32559 0.0
H1578 H 0.1112 0.53649 0.06674 0.0
H1579 H 0.96081 0.60031 0.09317 0.0
H1580 H 0.07706 0.61962 0.0508 0.0
H1581 H 0.01951 0.54296 0.11961 0.0
H1582 H 0.98874 0.59063 0.06821 0.0
H1583 H 0.06174 0.52098 0.07367 0.0
C1584 C 0.09314 0.55114 0.06418 0.0
C1585 C 0.09822 0.58002 0.05923 0.0
C1586 C 0.99466 0.57951 0.07945 0.0
C1587 C 0.04221 0.56286 0.06758 0.0
C1588 C 0.97922 0.58548 0.09382 0.0
C1589 C 0.9885 0.57363 0.10889 0.0
C1590 C 0.01913 0.56113 0.08011 0.0
C1591 C 0.01139 0.55314 0.10859 0.0
C1592 C 0.06492 0.54224 0.06807 0.0
C1593 C 0.07413 0.59769 0.05543 0.0
N1594 N 0.02609 0.54794 0.09451 0.0
N1595 N 0.04704 0.58926 0.06032 0.0
H1596 H 0.20411 0.26438 0.86714 0.0
H1597 H 0.19654 0.38143 0.8146 0.0
H1598 H 0.14997 0.21799 0.83251 0.0
H1599 H 0.11008 0.34595 0.80794 0.0
H1600 H 0.21301 0.33331 0.8245 0.0
H1601 H 0.2047 0.30602 0.849 0.0
C1602 C 0.19308 0.26236 0.8555 0.0
C1603 C 0.17671 0.23734 0.85153 0.0
C1604 C 0.19052 0.33615 0.82073 0.0
C1605 C 0.17688 0.28588 0.83075 0.0
C1606 C 0.18119 0.36344 0.81507 0.0
C1607 C 0.1518 0.36766 0.81095 0.0
C1608 C 0.17024 0.31318 0.82202 0.0
C1609 C 0.13275 0.34371 0.81149 0.0
C1610 C 0.1935 0.28641 0.8451 0.0
C1611 C 0.1622 0.23695 0.83639 0.0
N1612 N 0.14227 0.31748 0.81704 0.0
N1613 N 0.16201 0.26118 0.82674 0.0
H1614 H 0.45715 0.3919 0.52763 0.0
H1615 H 0.55574 0.4391 0.58503 0.0
H1616 H 0.39186 0.43445 0.55725 0.0
H1617 H 0.47843 0.4216 0.61403 0.0
H1618 H 0.52458 0.44639 0.56104 0.0
H1619 H 0.49527 0.41518 0.54391 0.0
C1620 C 0.45091 0.40764 0.5369 0.0
C1621 C 0.42159 0.4109 0.54146 0.0
C1622 C 0.51464 0.44135 0.57276 0.0
C1623 C 0.46457 0.43682 0.56026 0.0
C1624 C 0.53233 0.43676 0.58643 0.0
C1625 C 0.51986 0.42884 0.60161 0.0
C1626 C 0.48431 0.43846 0.57437 0.0
C1627 C 0.48929 0.42762 0.60274 0.0
C1628 C 0.47267 0.42085 0.54627 0.0
C1629 C 0.41443 0.43115 0.55363 0.0
N1630 N 0.47267 0.43219 0.5893 0.0
N1631 N 0.43582 0.44258 0.56305 0.0
H1632 H 0.23489 0.99963 0.31722 0.0
H1633 H 0.28584 0.9799 0.40886 0.0
H1634 H 0.1933 0.04664 0.35655 0.0
H1635 H 0.29194 0.90924 0.37431 0.0
H1636 H 0.25476 1.00689 0.38956 0.0
H1637 H 0.25935 0.96829 0.33742 0.0
C1638 C 0.23092 1.00327 0.33012 0.0
C1639 C 0.21217 0.02577 0.33525 0.0
C1640 C 0.2626 0.98534 0.38628 0.0
C1641 C 0.24019 0.99029 0.35839 0.0
C1642 C 0.28033 0.97003 0.39724 0.0
C1643 C 0.2913 0.94238 0.39313 0.0
C1644 C 0.25646 0.97323 0.37089 0.0
C1645 C 0.28363 0.93042 0.37795 0.0
C1646 C 0.24468 0.9853 0.34162 0.0
C1647 C 0.20748 0.02944 0.35211 0.0
N1648 N 0.26703 0.94612 0.36724 0.0
N1649 N 0.22171 0.01214 0.3631 0.0
H1650 H 0.26298 0.05877 0.62518 0.0
H1651 H 0.29438 0.92046 0.56818 0.0
H1652 H 0.34791 0.01894 0.62009 0.0
H1653 H 0.20736 0.95019 0.5802 0.0
H1654 H 0.3144 0.95755 0.58632 0.0
H1655 H 0.24206 0.01976 0.60844 0.0
C1656 C 0.27712 0.04155 0.6207 0.0
C1657 C 0.30718 0.04204 0.62406 0.0
C1658 C 0.29092 0.95597 0.58499 0.0
C1659 C 0.28357 0.99759 0.60466 0.0
C1660 C 0.27942 0.93474 0.5746 0.0
C1661 C 0.24904 0.93195 0.57264 0.0
C1662 C 0.272 0.9748 0.59347 0.0
C1663 C 0.23088 0.9516 0.58113 0.0
C1664 C 0.26522 0.01934 0.61112 0.0
C1665 C 0.32459 0.01921 0.61798 0.0
N1666 N 0.24263 0.97213 0.59117 0.0
N1667 N 0.31258 0.99807 0.60845 0.0
H1668 H 0.26081 0.07174 0.89472 0.0
H1669 H 0.30502 0.02735 0.80345 0.0
H1670 H 0.22042 0.10616 0.85125 0.0
H1671 H 0.35722 1.00169 0.84487 0.0
H1672 H 0.27591 0.0587 0.82123 0.0
H1673 H 0.29894 0.04882 0.87748 0.0
C1674 C 0.26052 0.07508 0.88159 0.0
C1675 C 0.23759 0.09073 0.87431 0.0
C1676 C 0.29386 0.04649 0.82652 0.0
C1677 C 0.28035 0.06438 0.85458 0.0
C1678 C 0.31041 0.02851 0.81633 0.0
C1679 C 0.33343 0.01184 0.8227 0.0
C1680 C 0.29993 0.0476 0.84337 0.0
C1681 C 0.33971 0.01435 0.83948 0.0
C1682 C 0.28205 0.06188 0.87175 0.0
C1683 C 0.23775 0.09415 0.85726 0.0
N1684 N 0.3228 0.03161 0.84931 0.0
N1685 N 0.25854 0.0809 0.84801 0.0
H1686 H 0.23459 0.12464 0.06535 0.0
H1687 H 0.21157 0.97748 0.11526 0.0
H1688 H 0.30992 0.07076 0.07531 0.0
H1689 H 0.16374 0.05733 0.12369 0.0
H1690 H 0.24631 1.00519 0.09785 0.0
H1691 H 0.20506 0.09283 0.08255 0.0
C1692 C 0.24493 0.10599 0.0711 0.0
C1693 C 0.27493 0.10077 0.0691 0.0
C1694 C 0.22827 0.01649 0.10368 0.0
C1695 C 0.24095 0.06384 0.08889 0.0
C1696 C 0.20861 1.0008 0.11366 0.0
C1697 C 0.18436 0.01502 0.12068 0.0
C1698 C 0.22323 0.04635 0.10063 0.0
C1699 C 0.18154 0.04525 0.11818 0.0
C1700 C 0.22804 0.08782 0.08096 0.0
C1701 C 0.28687 0.07563 0.07653 0.0
N1702 N 0.20039 0.05971 0.10824 0.0
N1703 N 0.26986 0.0581 0.08623 0.0
H1704 H 0.86053 0.03102 0.65883 0.0
H1705 H 0.73128 1.00597 0.59429 0.0
H1706 H 0.82248 0.94685 0.64838 0.0
H1707 H 0.76831 0.09056 0.60479 0.0
H1708 H 0.76335 0.98427 0.61487 0.0
H1709 H 0.82536 0.0537 0.64016 0.0
C1710 C 0.84467 0.01732 0.65275 0.0
C1711 C 0.84461 0.98694 0.65527 0.0
C1712 C 0.76438 1.00761 0.61272 0.0
C1713 C 0.80426 0.01277 0.63376 0.0
C1714 C 0.74616 0.02001 0.60088 0.0
C1715 C 0.74701 0.05019 0.59772 0.0
C1716 C 0.78377 0.02544 0.62151 0.0
C1717 C 0.76654 0.06728 0.60689 0.0
C1718 C 0.82457 0.03029 0.64208 0.0
C1719 C 0.82329 0.97035 0.64709 0.0
N1720 N 0.78417 0.05467 0.61829 0.0
N1721 N 0.80419 0.98344 0.63666 0.0
H1722 H 0.74502 0.11713 0.39094 0.0
H1723 H 0.74158 0.98509 0.32647 0.0
H1724 H 0.81921 0.06559 0.37602 0.0
H1725 H 0.66271 0.02302 0.34581 0.0
H1726 H 0.77022 0.02209 0.34066 0.0
H1727 H 0.71438 0.08987 0.37129 0.0
C1728 C 0.75485 0.10036 0.38337 0.0
C1729 C 0.78452 0.09324 0.38522 0.0
C1730 C 0.74664 0.02275 0.3417 0.0
C1731 C 0.75004 0.06238 0.36276 0.0
C1732 C 0.73035 1.00174 0.33348 0.0
C1733 C 0.69989 1.00114 0.33498 0.0
C1734 C 0.73247 0.04317 0.35183 0.0
C1735 C 0.68621 0.02304 0.34428 0.0
C1736 C 0.73743 0.08479 0.37224 0.0
C1737 C 0.79632 0.07138 0.37518 0.0
N1738 N 0.70264 0.043 0.35259 0.0
N1739 N 0.77911 0.05677 0.36448 0.0
H1740 H 0.65413 0.9965 0.11865 0.0
H1741 H 0.8008 0.94707 0.07266 0.0
H1742 H 0.73514 0.04474 0.12103 0.0
H1743 H 0.71604 0.9103 0.06219 0.0
H1744 H 0.77738 0.98232 0.09088 0.0
H1745 H 0.67666 0.9637 0.09873 0.0
C1746 C 0.67654 1.00043 0.11504 0.0
C1747 C 0.69257 0.02368 0.12179 0.0
C1748 C 0.7639 0.96662 0.08451 0.0
C1749 C 0.71873 0.98564 0.0989 0.0
C1750 C 0.77727 0.94653 0.07395 0.0
C1751 C 0.76053 0.92535 0.06579 0.0
C1752 C 0.73351 0.96555 0.0871 0.0
C1753 C 0.73006 0.92574 0.06833 0.0
C1754 C 0.68944 0.98153 0.10362 0.0
C1755 C 0.72177 0.02709 0.11655 0.0
N1756 N 0.71763 0.94529 0.07879 0.0
N1757 N 0.73382 1.00832 0.10553 0.0
H1758 H 0.71339 0.96002 0.88359 0.0
H1759 H 0.86265 0.96982 0.83374 0.0
H1760 H 0.78989 0.90766 0.89369 0.0
H1761 H 0.80606 0.04523 0.83696 0.0
H1762 H 0.83152 0.94433 0.85303 0.0
H1763 H 0.74304 0.99014 0.86484 0.0
C1764 C 0.73633 0.95491 0.88206 0.0
C1765 C 0.74886 0.93074 0.89019 0.0
C1766 C 0.82592 0.96653 0.84963 0.0
C1767 C 0.78264 0.96481 0.86844 0.0
C1768 C 0.84364 0.98116 0.8384 0.0
C1769 C 0.83718 1.00993 0.83353 0.0
C1770 C 0.80123 0.98047 0.85621 0.0
C1771 C 0.81218 0.02323 0.8404 0.0
C1772 C 0.75319 0.97208 0.87127 0.0
C1773 C 0.77877 0.92534 0.88752 0.0
N1774 N 0.79503 1.00836 0.85134 0.0
N1775 N 0.79437 0.94192 0.87682 0.0
H1776 H 0.81864 0.50368 0.87709 0.0
H1777 H 0.68196 0.4761 0.81813 0.0
H1778 H 0.77943 0.41911 0.86982 0.0
H1779 H 0.71138 0.56232 0.83155 0.0
H1780 H 0.71914 0.45493 0.83591 0.0
H1781 H 0.78072 0.52563 0.85987 0.0
C1782 C 0.80191 0.48977 0.87197 0.0
C1783 C 0.80226 0.4595 0.87493 0.0
C1784 C 0.71754 0.47849 0.83495 0.0
C1785 C 0.75887 0.48445 0.855 0.0
C1786 C 0.69625 0.49065 0.82476 0.0
C1787 C 0.69327 0.52115 0.82332 0.0
C1788 C 0.73629 0.49683 0.84379 0.0
C1789 C 0.71293 0.53875 0.83208 0.0
C1790 C 0.78026 0.5023 0.86213 0.0
C1791 C 0.77989 0.44254 0.86805 0.0
N1792 N 0.73351 0.52635 0.84195 0.0
N1793 N 0.75928 0.4552 0.85832 0.0
H1794 H 0.73986 0.50364 0.07896 0.0
H1795 H 0.85135 0.47702 0.15293 0.0
H1796 H 0.76873 0.41791 0.09426 0.0
H1797 H 0.8344 0.56179 0.13157 0.0
H1798 H 0.81735 0.45531 0.13349 0.0
H1799 H 0.77075 0.5253 0.09985 0.0
C1800 C 0.75274 0.48924 0.08658 0.0
C1801 C 0.75167 0.45872 0.08458 0.0
C1802 C 0.82096 0.47869 0.13312 0.0
C1803 C 0.787 0.48373 0.10897 0.0
C1804 C 0.84048 0.49118 0.14424 0.0
C1805 C 0.84612 0.52141 0.14394 0.0
C1806 C 0.80672 0.49646 0.12159 0.0
C1807 C 0.83075 0.5385 0.13248 0.0
C1808 C 0.77032 0.50174 0.09865 0.0
C1809 C 0.76854 0.44146 0.09528 0.0
N1810 N 0.81193 0.5258 0.12176 0.0
N1811 N 0.78548 0.45419 0.10695 0.0
H1812 H 0.82109 0.46452 0.33641 0.0
H1813 H 0.80074 0.61493 0.38145 0.0
H1814 H 0.85575 0.54603 0.31802 0.0
H1815 H 0.72457 0.55999 0.3771 0.0
H1816 H 0.82733 0.58216 0.36336 0.0
H1817 H 0.78958 0.49247 0.35529 0.0
C1818 C 0.8219 0.48815 0.33613 0.0
C1819 C 0.84169 0.50283 0.32572 0.0
C1820 C 0.80483 0.57717 0.36644 0.0
C1821 C 0.80644 0.53457 0.34759 0.0
C1822 C 0.78956 0.5959 0.37677 0.0
C1823 C 0.76006 0.59072 0.38054 0.0
C1824 C 0.79088 0.55257 0.35994 0.0
C1825 C 0.74722 0.56495 0.37449 0.0
C1826 C 0.80402 0.504 0.34698 0.0
C1827 C 0.84171 0.53354 0.32606 0.0
N1828 N 0.76269 0.54681 0.36437 0.0
N1829 N 0.82482 0.54824 0.33695 0.0
H1830 H 0.64662 0.54708 0.63502 0.0
H1831 H 0.79449 0.56528 0.5857 0.0
H1832 H 0.69546 0.46898 0.62395 0.0
H1833 H 0.71449 0.61148 0.57482 0.0
H1834 H 0.76653 0.53244 0.60397 0.0
H1835 H 0.68126 0.57561 0.61888 0.0
C1836 C 0.66501 0.53603 0.62938 0.0
C1837 C 0.66794 0.50563 0.63058 0.0
C1838 C 0.75533 0.54977 0.59746 0.0
C1839 C 0.70767 0.53814 0.61198 0.0
C1840 C 0.77114 0.56839 0.58697 0.0
C1841 C 0.75696 0.59167 0.57891 0.0
C1842 C 0.72542 0.55494 0.60004 0.0
C1843 C 0.72666 0.59461 0.5811 0.0
C1844 C 0.68467 0.55227 0.62012 0.0
C1845 C 0.69249 0.49242 0.62328 0.0
N1846 N 0.7121 0.57682 0.59158 0.0
N1847 N 0.71139 0.50876 0.61405 0.0
H1848 H 0.24839 0.60174 0.1031 0.0
H1849 H 0.31671 0.45346 0.13915 0.0
H1850 H 0.2298 0.51643 0.08331 0.0
H1851 H 0.34065 0.53958 0.15567 0.0
H1852 H 0.28101 0.47553 0.12055 0.0
H1853 H 0.27861 0.57887 0.1241 0.0
C1854 C 0.25039 0.57818 0.10322 0.0
C1855 C 0.23648 0.56107 0.09131 0.0
C1856 C 0.29389 0.4896 0.12835 0.0
C1857 C 0.2715 0.5346 0.11539 0.0
C1858 C 0.31411 0.47698 0.1391 0.0
C1859 C 0.33181 0.4947 0.149 0.0
C1860 C 0.2912 0.52019 0.1275 0.0
C1861 C 0.32773 0.5251 0.14816 0.0
C1862 C 0.26785 0.56511 0.11521 0.0
C1863 C 0.24038 0.53059 0.09206 0.0
N1864 N 0.308 0.53684 0.13758 0.0
N1865 N 0.25752 0.51837 0.10385 0.0
H1866 H 0.19333 0.46625 0.8339 0.0
H1867 H 0.2484 0.5989 0.88957 0.0
H1868 H 0.13638 0.53304 0.85324 0.0
H1869 H 0.30407 0.52826 0.87367 0.0
H1870 H 0.20619 0.57278 0.87849 0.0
H1871 H 0.23338 0.48613 0.85035 0.0
C1872 C 0.18914 0.48483 0.84175 0.0
C1873 C 0.16156 0.49826 0.84195 0.0
C1874 C 0.22762 0.56285 0.87757 0.0
C1875 C 0.20731 0.52137 0.8607 0.0
C1876 C 0.25171 0.5777 0.88402 0.0
C1877 C 0.27991 0.56597 0.88237 0.0
C1878 C 0.23177 0.5361 0.86938 0.0
C1879 C 0.28284 0.53845 0.8749 0.0
C1880 C 0.21203 0.4963 0.85108 0.0
C1881 C 0.15744 0.52241 0.85234 0.0
N1882 N 0.25919 0.52463 0.86856 0.0
N1883 N 0.18006 0.53331 0.86115 0.0
H1884 H 0.2824 0.42445 0.56881 0.0
H1885 H 0.22605 0.51419 0.64702 0.0
H1886 H 0.32063 0.41737 0.61695 0.0
H1887 H 0.20567 0.53901 0.59741 0.0
H1888 H 0.25589 0.47373 0.63644 0.0
H1889 H 0.2501 0.46307 0.57917 0.0
C1890 C 0.28415 0.43097 0.58149 0.0
C1891 C 0.30418 0.41722 0.592 0.0
C1892 C 0.24483 0.48804 0.62787 0.0
C1893 C 0.26692 0.46102 0.604 0.0
C1894 C 0.22768 0.51093 0.63393 0.0
C1895 C 0.21375 0.53014 0.62308 0.0
C1896 C 0.24771 0.48415 0.61085 0.0
C1897 C 0.21657 0.52504 0.60618 0.0
C1898 C 0.26558 0.4529 0.58742 0.0
C1899 C 0.30519 0.42661 0.6084 0.0
N1900 N 0.23324 0.50258 0.60059 0.0
N1901 N 0.28679 0.44773 0.61387 0.0
H1902 H 0.3505 0.48514 0.32599 0.0
H1903 H 0.21116 0.50879 0.38416 0.0
H1904 H 0.31156 0.56955 0.33501 0.0
H1905 H 0.25521 0.42603 0.37901 0.0
H1906 H 0.24809 0.53151 0.36654 0.0
H1907 H 0.31579 0.46317 0.34512 0.0
C1908 C 0.33469 0.49914 0.33196 0.0
C1909 C 0.33419 0.52939 0.3288 0.0
C1910 C 0.24992 0.50845 0.36936 0.0
C1911 C 0.294 0.50409 0.35086 0.0
C1912 C 0.22887 0.49548 0.37946 0.0
C1913 C 0.23008 0.46547 0.3831 0.0
C1914 C 0.27237 0.49128 0.36262 0.0
C1915 C 0.25358 0.44928 0.37671 0.0
C1916 C 0.3148 0.4865 0.34292 0.0
C1917 C 0.31272 0.54616 0.33682 0.0
N1918 N 0.27361 0.46231 0.36667 0.0
N1919 N 0.29359 0.53331 0.34746 0.0
H1920 H 0.15569 0.09447 0.24969 0.0
H1921 H 0.17032 0.94142 0.20528 0.0
H1922 H 0.15309 1.01012 0.27338 0.0
H1923 H 0.15913 0.02376 0.18035 0.0
H1924 H 0.1827 0.96799 0.23035 0.0
H1925 H 0.17365 0.07067 0.22464 0.0
C1926 C 0.15925 0.07105 0.24965 0.0
C1927 C 0.15195 0.05404 0.26334 0.0
C1928 C 0.17845 0.98026 0.21925 0.0
C1929 C 0.17279 0.02687 0.23509 0.0
C1930 C 0.17174 0.96506 0.20493 0.0
C1931 C 0.16321 0.9806 0.19098 0.0
C1932 C 0.17621 0.01099 0.21945 0.0
C1933 C 0.16513 0.01117 0.19108 0.0
C1934 C 0.1696 0.0575 0.23544 0.0
C1935 C 0.15747 0.02389 0.26286 0.0
N1936 N 0.17078 0.02546 0.20522 0.0
N1937 N 0.1672 0.01123 0.24891 0.0
H1938 H 0.22658 0.92265 0.52663 0.0
H1939 H 0.34978 0.87023 0.49102 0.0
H1940 H 0.19884 0.88276 0.48161 0.0
H1941 H 0.3214 0.91287 0.44672 0.0
H1942 H 0.30859 0.89264 0.50554 0.0
H1943 H 0.27295 0.93609 0.51358 0.0
C1944 C 0.22954 0.91821 0.51375 0.0
C1945 C 0.2092 0.90124 0.50519 0.0
C1946 C 0.31229 0.89823 0.4928 0.0
C1947 C 0.26159 0.91667 0.4903 0.0
C1948 C 0.33573 0.88539 0.48453 0.0
C1949 C 0.33895 0.8896 0.46764 0.0
C1950 C 0.29151 0.91437 0.48392 0.0
C1951 C 0.31987 0.90911 0.45972 0.0
C1952 C 0.25606 0.92569 0.50639 0.0
C1953 C 0.21413 0.89578 0.48858 0.0
N1954 N 0.2962 0.9198 0.46777 0.0
N1955 N 0.24014 0.90308 0.48169 0.0
H1956 H 0.36778 0.07585 0.69881 0.0
H1957 H 0.36608 0.96889 0.75996 0.0
H1958 H 0.4207 0.01452 0.67165 0.0
H1959 H 0.44658 0.94203 0.73702 0.0
H1960 H 0.35405 0.99768 0.73551 0.0
H1961 H 0.36547 0.04055 0.72149 0.0
C1962 C 0.37864 0.05492 0.69755 0.0
C1963 C 0.39466 0.04828 0.68337 0.0
C1964 C 0.37412 0.98515 0.73572 0.0
C1965 C 0.39159 1.00758 0.709 0.0
C1966 C 0.38065 0.96815 0.74951 0.0
C1967 C 0.40729 0.953 0.75039 0.0
C1968 C 0.39444 0.98677 0.72282 0.0
C1969 C 0.42577 0.95332 0.73672 0.0
C1970 C 0.377 0.0346 0.71041 0.0
C1971 C 0.40826 0.02078 0.68237 0.0
N1972 N 0.41908 0.9701 0.72353 0.0
N1973 N 0.40669 1.00169 0.69505 0.0
H1974 H 0.24164 0.10864 0.9299 0.0
H1975 H 0.28498 0.12784 0.02266 0.0
H1976 H 0.18274 0.13758 0.96776 0.0
H1977 H 0.34615 0.11844 -0.01714 0.0
H1978 H 0.24537 0.11271 0.00454 0.0
H1979 H 0.27655 0.09323 0.9508 0.0
C1980 C 0.23572 0.11077 0.9427 0.0
C1981 C 0.20956 0.1245 0.94724 0.0
C1982 C 0.26754 0.11306 -0.00013 0.0
C1983 C 0.24961 0.10795 0.97111 0.0
C1984 C 0.29013 0.12149 0.01021 0.0
C1985 C 0.31864 0.12433 0.00412 0.0
C1986 C 0.27355 0.10799 -0.01673 0.0
C1987 C 0.32436 0.11635 -0.01207 0.0
C1988 C 0.25567 0.10214 0.9546 0.0
C1989 C 0.20275 0.12698 0.96387 0.0
N1990 N 0.30184 0.10901 0.97793 0.0
N1991 N 0.22303 0.11937 0.97527 0.0
H1992 H 0.83607 0.93624 0.70094 0.0
H1993 H 0.87707 0.06636 0.73498 0.0
H1994 H 0.88783 0.91338 0.7432 0.0
H1995 H 0.84072 0.03322 0.78005 0.0
H1996 H 0.86182 0.02141 0.72119 0.0
H1997 H 0.82018 0.98075 0.7149 0.0
C1998 C 0.84332 0.93996 0.71336 0.0
C1999 C 0.86423 0.92162 0.72071 0.0
C2000 C 0.85615 0.02451 0.73396 0.0
C2001 C 0.8453 0.97181 0.73677 0.0
C2002 C 0.8648 0.0501 0.74178 0.0
C2003 C 0.86013 0.05327 0.75859 0.0
C2004 C 0.84407 1.00165 0.74326 0.0
C2005 C 0.84471 0.03141 0.76703 0.0
C2006 C 0.83414 0.96534 0.72126 0.0
C2007 C 0.87227 0.92729 0.73695 0.0
N2008 N 0.8383 1.00584 0.75942 0.0
N2009 N 0.86315 0.95224 0.74437 0.0
H2010 H 0.77648 0.10269 0.53965 0.0
H2011 H 0.86251 0.15324 0.4775 0.0
H2012 H 0.70649 0.1274 0.50721 0.0
H2013 H 0.7917 0.13277 0.44489 0.0
H2014 H 0.835 0.13122 0.50008 0.0
H2015 H 0.8096 0.09947 0.51629 0.0
C2016 C 0.76806 0.10711 0.52751 0.0
C2017 C 0.73902 0.11607 0.5253 0.0
C2018 C 0.82587 0.13032 0.48789 0.0
C2019 C 0.77698 0.11366 0.49867 0.0
C2020 C 0.84167 0.14296 0.47505 0.0
C2021 C 0.82917 0.14467 0.45951 0.0
C2022 C 0.79737 0.11978 0.48505 0.0
C2023 C 0.80185 0.13175 0.45685 0.0
C2024 C 0.78704 0.10554 0.51422 0.0
C2025 C 0.72887 0.12076 0.50937 0.0
N2026 N 0.78653 0.12038 0.46957 0.0
N2027 N 0.74807 0.12007 0.49663 0.0
H2028 H 0.66876 0.0275 0.19178 0.0
H2029 H 0.60828 0.02718 0.28282 0.0
H2030 H 0.61666 0.09693 0.21222 0.0
H2031 H 0.65048 0.9535 0.25974 0.0
H2032 H 0.62158 0.05764 0.2595 0.0
H2033 H 0.67441 1.0064 0.21906 0.0
C2034 C 0.65941 0.03885 0.20219 0.0
C2035 C 0.64206 0.06375 0.19987 0.0
C2036 C 0.62815 0.03489 0.25957 0.0
C2037 C 0.64732 0.03919 0.23092 0.0
C2038 C 0.62041 0.01736 0.27284 0.0
C2039 C 0.62776 0.98753 0.27307 0.0
C2040 C 0.64325 0.02255 0.24634 0.0
C2041 C 0.64398 0.97626 0.25995 0.0
C2042 C 0.66236 0.02665 0.21771 0.0
C2043 C 0.63027 0.0777 0.2136 0.0
N2044 N 0.6509 0.99373 0.24701 0.0
N2045 N 0.63255 0.06481 0.22858 0.0
H2046 H 0.80605 0.93188 0.01992 0.0
H2047 H 0.6781 0.91093 -0.01681 0.0
H2048 H 0.82635 0.8838 0.97605 0.0
H2049 H 0.71802 0.93647 0.93757 0.0
H2050 H 0.72204 0.92651 -0.00238 0.0
H2051 H 0.76667 0.95712 0.00525 0.0
C2052 C 0.80322 0.92777 0.00698 0.0
C2053 C 0.81887 0.90536 -0.00081 0.0
C2054 C 0.72068 0.93019 -0.01546 0.0
C2055 C 0.77443 0.93403 -0.01749 0.0
C2056 C 0.69558 0.92126 0.97633 0.0
C2057 C 0.69469 0.92234 0.95923 0.0
C2058 C 0.74532 0.93883 0.97543 0.0
C2059 C 0.71803 0.93532 0.95079 0.0
C2060 C 0.7807 0.94206 -0.00132 0.0
C2061 C 0.81438 0.90071 -0.01753 0.0
N2062 N 0.74304 0.94186 0.95891 0.0
N2063 N 0.79215 0.91459 0.97471 0.0
H2064 H 0.67748 0.53887 0.7706 0.0
H2065 H 0.64436 0.4391 0.71249 0.0
H2066 H 0.63902 0.59968 0.73663 0.0
H2067 H 0.63234 0.51174 0.67954 0.0
H2068 H 0.66741 0.47199 0.73214 0.0
H2069 H 0.68802 0.50559 0.74797 0.0
C2070 C 0.67251 0.54571 0.7582 0.0
C2071 C 0.65732 0.57182 0.75534 0.0
C2072 C 0.66082 0.48076 0.72042 0.0
C2073 C 0.66721 0.53327 0.72963 0.0
C2074 C 0.64749 0.46186 0.70925 0.0
C2075 C 0.63585 0.4731 0.69473 0.0
C2076 C 0.66246 0.51092 0.71683 0.0
C2077 C 0.64039 0.50257 0.69091 0.0
C2078 C 0.67785 0.52641 0.74531 0.0
C2079 C 0.65084 0.57969 0.73923 0.0
N2080 N 0.65291 0.52055 0.702 0.0
N2081 N 0.65529 0.56019 0.727 0.0
H2082 H 0.68377 0.37604 -0.00556 0.0
H2083 H 0.83648 0.40698 0.9501 0.0
H2084 H 0.75732 0.41832 0.01707 0.0
H2085 H 0.76663 0.35708 0.92839 0.0
H2086 H 0.80401 0.41959 0.97278 0.0
H2087 H 0.70937 0.37843 0.96793 0.0
C2088 C 0.70484 0.38675 -0.00634 0.0
C2089 C 0.71871 0.39685 0.0078 0.0
C2090 C 0.79571 0.40601 0.963 0.0
C2091 C 0.74823 0.39902 0.97796 0.0
C2092 C 0.81432 0.39867 0.9501 0.0
C2093 C 0.80441 0.38054 0.93749 0.0
C2094 C 0.76702 0.39503 0.96334 0.0
C2095 C 0.77532 0.37078 0.93799 0.0
C2096 C 0.71959 0.38781 0.97864 0.0
C2097 C 0.74613 0.41013 0.00635 0.0
N2098 N 0.75772 0.37794 0.95079 0.0
N2099 N 0.76018 0.41051 -0.00826 0.0
H2100 H 0.85464 0.47669 0.27819 0.0
H2101 H 0.85798 0.55219 0.19086 0.0
H2102 H 0.89032 0.43608 0.23504 0.0
H2103 H 0.89685 0.5891 0.23404 0.0
H2104 H 0.83879 0.51182 0.20746 0.0
H2105 H 0.83895 0.51842 0.2615 0.0
C2106 C 0.85761 0.4758 0.26505 0.0
C2107 C 0.87377 0.45311 0.25789 0.0
C2108 C 0.85015 0.52964 0.21339 0.0
C2109 C 0.85576 0.50028 0.2389 0.0
C2110 C 0.86095 0.55275 0.20398 0.0
C2111 C 0.87907 0.57381 0.21116 0.0
C2112 C 0.85697 0.52826 0.23008 0.0
C2113 C 0.88283 0.57328 0.22814 0.0
C2114 C 0.8488 0.49964 0.2556 0.0
C2115 C 0.87777 0.4532 0.24092 0.0
N2116 N 0.87222 0.55052 0.23705 0.0
N2117 N 0.86917 0.47674 0.23196 0.0
H2118 H 0.77971 0.58387 0.52625 0.0
H2119 H 0.68391 0.60321 0.46605 0.0
H2120 H 0.84001 0.61679 0.49015 0.0
H2121 H 0.75626 0.60299 0.43226 0.0
H2122 H 0.71571 0.58302 0.48716 0.0
H2123 H 0.74915 0.56429 0.50432 0.0
C2124 C 0.78706 0.58581 0.51367 0.0
C2125 C 0.81202 0.60211 0.50982 0.0
C2126 C 0.72455 0.58592 0.47498 0.0
C2127 C 0.77656 0.58181 0.48479 0.0
C2128 C 0.70625 0.59756 0.46294 0.0
C2129 C 0.71785 0.60503 0.44765 0.0
C2130 C 0.75457 0.58217 0.47157 0.0
C2131 C 0.74685 0.59777 0.4441 0.0
C2132 C 0.76935 0.57519 0.50113 0.0
C2133 C 0.82072 0.60441 0.49348 0.0
N2134 N 0.76442 0.5873 0.45609 0.0
N2135 N 0.80265 0.59492 0.48151 0.0
H2136 H 0.36544 0.59089 0.23513 0.0
H2137 H 0.38096 0.43232 0.23868 0.0
H2138 H 0.34024 0.54886 0.2802 0.0
H2139 H 0.3389 0.46768 0.19591 0.0
H2140 H 0.36151 0.47299 0.25481 0.0
H2141 H 0.35061 0.54714 0.22011 0.0
C2142 C 0.35537 0.57298 0.24175 0.0
C2143 C 0.35379 0.57345 0.25886 0.0
C2144 C 0.35548 0.47123 0.24204 0.0
C2145 C 0.33852 0.5229 0.24199 0.0
C2146 C 0.36646 0.44794 0.23288 0.0
C2147 C 0.36135 0.44668 0.21602 0.0
C2148 C 0.34053 0.49398 0.23405 0.0
C2149 C 0.34311 0.46784 0.20892 0.0
C2150 C 0.34708 0.54794 0.23322 0.0
C2151 C 0.34147 0.54938 0.26698 0.0
N2152 N 0.33419 0.49128 0.21784 0.0
N2153 N 0.33527 0.52459 0.25854 0.0
H2154 H 0.26497 0.61513 0.9346 0.0
H2155 H 0.18765 0.61194 0.00727 0.0
H2156 H 0.34006 0.63889 0.96329 0.0
H2157 H 0.26295 0.65626 0.02694 0.0
H2158 H 0.21594 0.59974 -0.01704 0.0
H2159 H 0.23707 0.60759 0.95946 0.0
C2160 C 0.27574 0.61795 0.94629 0.0
C2161 C 0.30461 0.62786 0.94702 0.0
C2162 C 0.22633 0.61245 -0.00759 0.0
C2163 C 0.27278 0.61972 0.97577 0.0
C2164 C 0.21008 0.61934 0.00637 0.0
C2165 C 0.22274 0.63572 0.01896 0.0
C2166 C 0.25536 0.62239 -0.00901 0.0
C2167 C 0.25209 0.6441 0.01738 0.0
C2168 C 0.25979 0.61358 0.96059 0.0
C2169 C 0.31777 0.63117 0.96232 0.0
N2170 N 0.26729 0.63753 0.00361 0.0
N2171 N 0.30151 0.62771 0.97614 0.0
H2172 H 0.15867 0.59002 0.70908 0.0
H2173 H 0.14081 0.43795 0.75582 0.0
H2174 H 0.16624 0.50582 0.68586 0.0
H2175 H 0.10487 0.52054 0.77144 0.0
H2176 H 0.16758 0.46369 0.73392 0.0
H2177 H 0.1581 0.56561 0.73584 0.0
C2178 C 0.16133 0.56651 0.70967 0.0
C2179 C 0.16183 0.54974 0.69536 0.0
C2180 C 0.15421 0.47613 0.74237 0.0
C2181 C 0.16076 0.52184 0.72564 0.0
C2182 C 0.1389 0.46148 0.75475 0.0
C2183 C 0.11999 0.47714 0.76501 0.0
C2184 C 0.1508 0.50653 0.74056 0.0
C2185 C 0.11855 0.50761 0.7634 0.0
C2186 C 0.16077 0.55257 0.72489 0.0
C2187 C 0.1652 0.51936 0.6967 0.0
N2188 N 0.13353 0.52129 0.7513 0.0
N2189 N 0.16398 0.50627 0.7116 0.0
H2190 H 0.25673 0.39821 0.43576 0.0
H2191 H 0.33713 0.33201 0.49491 0.0
H2192 H 0.18411 0.37389 0.46662 0.0
H2193 H 0.28037 0.3728 0.53029 0.0
H2194 H 0.30603 0.35051 0.47292 0.0
H2195 H 0.28925 0.39482 0.4593 0.0
C2196 C 0.24756 0.39266 0.44761 0.0
C2197 C 0.21784 0.38586 0.44924 0.0
C2198 C 0.30064 0.35599 0.48546 0.0
C2199 C 0.25511 0.38107 0.47611 0.0
C2200 C 0.3183 0.34533 0.49797 0.0
C2201 C 0.31137 0.35129 0.51429 0.0
C2202 C 0.27543 0.37219 0.48931 0.0
C2203 C 0.2865 0.36822 0.51774 0.0
C2204 C 0.26616 0.39055 0.46099 0.0
C2205 C 0.20697 0.37919 0.4649 0.0
N2206 N 0.26899 0.37773 0.50531 0.0
N2207 N 0.22578 0.37645 0.47778 0.0
H2208 H 0.08541 0.20479 0.29409 0.0
H2209 H 0.93199 0.28976 0.30266 0.0
H2210 H 1.00344 0.15952 0.29988 0.0
H2211 H 1.00866 0.32699 0.28017 0.0
H2212 H 0.95906 0.24349 0.30658 0.0
H2213 H 0.05886 0.2514 0.29382 0.0
C2214 C 0.06187 0.20463 0.29545 0.0
C2215 C 0.04668 0.17806 0.29687 0.0
C2216 C 0.96995 0.26189 0.30087 0.0
C2217 C 0.01601 0.23157 0.29664 0.0
C2218 C 0.95457 0.28829 0.29874 0.0
C2219 C 0.968 0.31215 0.29094 0.0
C2220 C 0.99914 0.25957 0.29545 0.0
C2221 C 0.99732 0.30903 0.28602 0.0
C2222 C 0.04668 0.23127 0.29521 0.0
C2223 C 0.01605 0.17936 0.2985 0.0
N2224 N 0.01183 0.28338 0.28837 0.0
N2225 N 1.00177 0.20557 0.29837 0.0
H2226 H 0.95629 0.69692 0.55601 0.0
H2227 H 0.04518 0.82254 0.50844 0.0
H2228 H 0.93717 0.72859 0.50744 0.0
H2229 H 0.07844 0.78338 0.55269 0.0
H2230 H 1.00225 0.79159 0.51026 0.0
H2231 H 0.99796 0.73114 0.55726 0.0
C2232 C 0.96074 0.71107 0.54566 0.0
C2233 C 0.94334 0.70953 0.53151 0.0
C2234 C 0.01881 0.78965 0.51965 0.0
C2235 C 0.99072 0.74877 0.53289 0.0
C2236 C 0.04348 0.80737 0.51858 0.0
C2237 C 0.06583 0.80533 0.53026 0.0
C2238 C 0.01605 0.76943 0.53253 0.0
C2239 C 0.06181 0.7857 0.54339 0.0
C2240 C 0.98457 0.7305 0.54636 0.0
C2241 C 0.95019 0.72841 0.51847 0.0
N2242 N 0.03752 0.76832 0.54411 0.0
N2243 N 0.97315 0.74707 0.5195 0.0
H2244 H 0.53062 0.86298 0.77249 0.0
H2245 H 0.54701 0.70073 0.80874 0.0
H2246 H 0.46678 0.82777 0.80593 0.0
H2247 H 0.58586 0.7291 0.76334 0.0
H2248 H 0.52133 0.74824 0.81066 0.0
H2249 H 0.55458 0.81521 0.77136 0.0
C2250 C 0.52157 0.84507 0.77954 0.0
C2251 C 0.49659 0.8494 0.78924 0.0
C2252 C 0.53556 0.74402 0.80032 0.0
C2253 C 0.52439 0.79436 0.78831 0.0
C2254 C 0.55043 0.71706 0.79932 0.0
C2255 C 0.56865 0.71094 0.78586 0.0
C2256 C 0.5394 0.76518 0.78794 0.0
C2257 C 0.57196 0.73278 0.77388 0.0
C2258 C 0.53525 0.81775 0.77891 0.0
C2259 C 0.48579 0.82529 0.79814 0.0
N2260 N 0.55768 0.75878 0.77523 0.0
N2261 N 0.4999 0.79889 0.7976 0.0
H2262 H 0.49473 0.19294 0.0053 0.0
H2263 H 0.57899 0.31411 0.05867 0.0
H2264 H 0.45953 0.2265 0.05053 0.0
H2265 H 0.61336 0.27355 0.01509 0.0
H2266 H 0.5344 0.28427 0.05591 0.0
H2267 H 0.53769 0.22367 0.00881 0.0
C2268 C 0.49595 0.20679 0.01599 0.0
C2269 C 0.47321 0.20701 0.02758 0.0
C2270 C 0.55176 0.28195 0.04698 0.0
C2271 C 0.52298 0.24268 0.03178 0.0
C2272 C 0.57716 0.29914 0.04849 0.0
C2273 C 0.60027 0.29626 0.03719 0.0
C2274 C 0.54929 0.26189 0.03399 0.0
C2275 C 0.59657 0.27627 0.0243 0.0
C2276 C 0.52066 0.22437 0.01804 0.0
C2277 C 0.47652 0.22529 0.04132 0.0
N2278 N 0.57179 0.26002 0.02309 0.0
N2279 N 0.5008 0.24244 0.043 0.0
H2280 H 0.97073 0.71967 0.20608 0.0
H2281 H 0.07362 0.82584 0.15294 0.0
H2282 H 0.98589 0.70528 0.15472 0.0
H2283 H 0.04513 0.84328 0.20239 0.0
H2284 H 0.0423 0.78227 0.15269 0.0
H2285 H 0.99779 0.76552 0.20432 0.0
C2286 C 0.97945 0.72649 0.19434 0.0
C2287 C 0.97584 0.70871 0.18052 0.0
C2288 C 0.04292 0.79574 0.16356 0.0
C2289 C 1.00781 0.76127 0.17839 0.0
C2290 C 0.06083 0.82077 0.16373 0.0
C2291 C 0.06245 0.83861 0.17776 0.0
C2292 C 0.02645 0.78828 0.17753 0.0
C2293 C 0.04532 0.83035 0.19136 0.0
C2294 C 0.99506 0.75266 0.19332 0.0
C2295 C 0.98781 0.71854 0.16561 0.0
N2296 N 0.0283 0.80598 0.19088 0.0
N2297 N 1.00353 0.744 0.16496 0.0
H2298 H 0.57734 0.7229 0.41351 0.0
H2299 H 0.41652 0.73443 0.4523 0.0
H2300 H 0.54651 0.66727 0.45254 0.0
H2301 H 0.45516 0.8045 0.42439 0.0
H2302 H 0.46285 0.70773 0.45083 0.0
H2303 H 0.53144 0.75089 0.41517 0.0
C2304 C 0.56085 0.7164 0.42232 0.0
C2305 C 0.56587 0.69269 0.43293 0.0
C2306 C 0.4613 0.72903 0.44508 0.0
C2307 C 0.5133 0.72467 0.43494 0.0
C2308 C 0.4348 0.74428 0.44592 0.0
C2309 C 0.43182 0.77181 0.43845 0.0
C2310 C 0.48511 0.74106 0.43649 0.0
C2311 C 0.45644 0.78351 0.43042 0.0
C2312 C 0.53476 0.73254 0.42337 0.0
C2313 C 0.54378 0.68552 0.44424 0.0
N2314 N 0.48191 0.768 0.42952 0.0
N2315 N 0.51856 0.7013 0.44489 0.0
H2316 H 0.52525 0.16715 0.65785 0.0
H2317 H 0.50908 0.32983 0.69267 0.0
H2318 H 0.44419 0.20103 0.67741 0.0
H2319 H 0.57971 0.30288 0.66108 0.0
H2320 H 0.48733 0.2812 0.69007 0.0
H2321 H 0.5477 0.21467 0.6621 0.0
C2322 C 0.51197 0.18435 0.66304 0.0
C2323 C 0.48229 0.17965 0.66691 0.0
C2324 C 0.50761 0.28588 0.68372 0.0
C2325 C 0.50855 0.23472 0.67208 0.0
C2326 C 0.52016 0.31364 0.68528 0.0
C2327 C 0.54637 0.32055 0.67711 0.0
C2328 C 0.52146 0.26453 0.6741 0.0
C2329 C 0.55942 0.29867 0.66749 0.0
C2330 C 0.52499 0.21166 0.66548 0.0
C2331 C 0.46693 0.20315 0.67406 0.0
N2332 N 0.54693 0.27168 0.66632 0.0
N2333 N 0.48017 0.22954 0.67634 0.0
H2334 H 0.05996 0.18661 0.93024 0.0
H2335 H 0.95687 0.32859 0.93439 0.0
H2336 H 0.09179 0.27343 0.94028 0.0
H2337 H 0.92652 0.24334 0.91965 0.0
H2338 H 1.00478 0.30761 0.94007 0.0
H2339 H 1.01012 0.20572 0.92988 0.0
C2340 C 0.05666 0.20961 0.93257 0.0
C2341 C 0.08064 0.22839 0.93495 0.0
C2342 C 0.98759 0.29344 0.93567 0.0
C2343 C 0.02289 0.25063 0.93457 0.0
C2344 C 0.95994 0.30545 0.93244 0.0
C2345 C 0.93726 0.28805 0.92608 0.0
C2346 C 0.99288 0.26362 0.93274 0.0
C2347 C 0.94318 0.25799 0.92412 0.0
C2348 C 0.02799 0.22058 0.93228 0.0
C2349 C 0.07435 0.25806 0.93802 0.0
N2350 N 0.97029 0.24688 0.92729 0.0
N2351 N 0.04629 0.26821 0.93761 0.0
H2352 H 0.93314 0.76265 0.70653 0.0
H2353 H 0.07769 0.69523 0.66543 0.0
H2354 H 0.98508 0.80961 0.67108 0.0
H2355 H 0.02412 0.64976 0.70077 0.0
H2356 H 0.04633 0.73831 0.66838 0.0
H2357 H 0.96805 0.72238 0.7055 0.0
C2358 C 0.9519 0.76453 0.6985 0.0
C2359 C 0.95592 0.78959 0.68878 0.0
C2360 C 0.04155 0.71898 0.67557 0.0
C2361 C 0.99642 0.7432 0.68757 0.0
C2362 C 0.05963 0.69433 0.674 0.0
C2363 C 0.05365 0.66859 0.68288 0.0
C2364 C 0.01724 0.71804 0.68612 0.0
C2365 C 0.02949 0.66886 0.69354 0.0
C2366 C 0.97196 0.74149 0.69797 0.0
C2367 C 0.98109 0.79086 0.67886 0.0
N2368 N 0.01224 0.69304 0.69481 0.0
N2369 N 1.00024 0.76794 0.67842 0.0
H2370 H 0.10184 0.24875 0.42363 0.0
H2371 H 0.93315 0.28791 0.44029 0.0
H2372 H 0.07175 0.3345 0.43788 0.0
H2373 H 0.9624 0.2039 0.42279 0.0
H2374 H 0.984 0.30397 0.44169 0.0
H2375 H 0.0518 0.23079 0.42586 0.0
C2376 C 0.08491 0.26393 0.42728 0.0
C2377 C 0.09151 0.29358 0.43016 0.0
C2378 C 0.97936 0.28196 0.43764 0.0
C2379 C 0.03341 0.27268 0.43288 0.0
C2380 C 0.95017 0.27273 0.43677 0.0
C2381 C 0.94309 0.24443 0.43133 0.0
C2382 C 1.00203 0.26287 0.43304 0.0
C2383 C 0.9665 0.22578 0.4272 0.0
C2384 C 0.05616 0.25352 0.42857 0.0
C2385 C 0.06823 0.31164 0.43532 0.0
N2386 N 0.99474 0.23536 0.42806 0.0
N2387 N 0.04039 0.30101 0.43634 0.0
H2388 H 0.47069 0.31618 0.16137 0.0
H2389 H 0.50084 0.15315 0.19405 0.0
H2390 H 0.44012 0.28361 0.20789 0.0
H2391 H 0.55396 0.19236 0.15634 0.0
H2392 H 0.47495 0.1996 0.19741 0.0
H2393 H 0.49741 0.26987 0.15718 0.0
C2394 C 0.46933 0.29923 0.17061 0.0
C2395 C 0.45311 0.3039 0.18503 0.0
C2396 C 0.49232 0.19818 0.18842 0.0
C2397 C 0.48368 0.25085 0.18034 0.0
C2398 C 0.50709 0.17157 0.18648 0.0
C2399 C 0.52971 0.16874 0.17493 0.0
C2400 C 0.49968 0.22233 0.17855 0.0
C2401 C 0.53691 0.19358 0.16552 0.0
C2402 C 0.4848 0.2729 0.16829 0.0
C2403 C 0.45248 0.28119 0.19667 0.0
N2404 N 0.52182 0.21921 0.16743 0.0
N2405 N 0.46735 0.25581 0.19405 0.0
H2406 H 0.56849 0.80126 0.91509 0.0
H2407 H 0.4062 0.76548 0.94745 0.0
H2408 H 0.52492 0.84839 0.95383 0.0
H2409 H 0.44941 0.71434 0.9103 0.0
H2410 H 0.44984 0.79589 0.94973 0.0
H2411 H 0.52545 0.76969 0.91263 0.0
C2412 C 0.54993 0.80519 0.92303 0.0
C2413 C 0.55065 0.82772 0.93474 0.0
C2414 C 0.4499 0.77799 0.94108 0.0
C2415 C 0.50116 0.79116 0.93208 0.0
C2416 C 0.42486 0.76061 0.93975 0.0
C2417 C 0.4239 0.73725 0.92865 0.0
C2418 C 0.47441 0.77229 0.93116 0.0
C2419 C 0.4491 0.73186 0.91915 0.0
C2420 C 0.52537 0.78694 0.92168 0.0
C2421 C 0.52583 0.83124 0.94477 0.0
N2422 N 0.47318 0.7493 0.92056 0.0
N2423 N 0.50229 0.81328 0.9432 0.0
H2424 H 0.91686 0.22521 0.76974 0.0
H2425 H 0.04995 0.31674 0.8079 0.0
H2426 H 0.97539 0.18654 0.80495 0.0
H2427 H 0.98807 0.3488 0.77238 0.0
H2428 H 0.02296 0.26999 0.80883 0.0
H2429 H 0.9424 0.27126 0.7723 0.0
C2430 C 0.93526 0.22634 0.778 0.0
C2431 C 0.94424 0.20161 0.78689 0.0
C2432 C 0.01536 0.28737 0.80088 0.0
C2433 C 0.97396 0.25524 0.79008 0.0
C2434 C 0.03068 0.31411 0.8004 0.0
C2435 C 0.02159 0.3368 0.78988 0.0
C2436 C 0.99068 0.2834 0.79086 0.0
C2437 C 0.99647 0.33197 0.7804 0.0
C2438 C 0.94985 0.25288 0.77955 0.0
C2439 C 0.96777 0.20496 0.79781 0.0
N2440 N 0.98215 0.30602 0.78111 0.0
N2441 N 0.98201 0.23121 0.799 0.0
H2442 H 0.61833 0.2571 0.55544 0.0
H2443 H 0.45539 0.24415 0.52145 0.0
H2444 H 0.58193 0.17543 0.53911 0.0
H2445 H 0.47945 0.31006 0.55646 0.0
H2446 H 0.50361 0.2214 0.52482 0.0
H2447 H 0.56972 0.27973 0.55298 0.0
C2448 C 0.60018 0.24399 0.55124 0.0
C2449 C 0.60429 0.21431 0.54744 0.0
C2450 C 0.49834 0.2408 0.5318 0.0
C2451 C 0.54859 0.24014 0.54449 0.0
C2452 C 0.47087 0.25388 0.52981 0.0
C2453 C 0.46332 0.27906 0.53868 0.0
C2454 C 0.51884 0.25327 0.54248 0.0
C2455 C 0.48423 0.29056 0.54948 0.0
C2456 C 0.5724 0.25685 0.54996 0.0
C2457 C 0.5798 0.19829 0.54226 0.0
N2458 N 0.51109 0.27777 0.55096 0.0
N2459 N 0.55316 0.21143 0.5408 0.0
H2460 H 0.50698 0.86483 0.27083 0.0
H2461 H 0.46815 0.70535 0.30668 0.0
H2462 H 0.5509 0.82846 0.31283 0.0
H2463 H 0.43283 0.74121 0.26203 0.0
H2464 H 0.49731 0.75009 0.31009 0.0
H2465 H 0.47904 0.81973 0.26816 0.0
C2466 C 0.51071 0.84742 0.27956 0.0
C2467 C 0.53133 0.85078 0.29215 0.0
C2468 C 0.48317 0.7481 0.29955 0.0
C2469 C 0.49902 0.79838 0.28914 0.0
C2470 C 0.4663 0.72258 0.29764 0.0
C2471 C 0.44789 0.71918 0.28398 0.0
C2472 C 0.48156 0.77062 0.28778 0.0
C2473 C 0.44685 0.74238 0.27263 0.0
C2474 C 0.49476 0.82147 0.27799 0.0
C2475 C 0.53542 0.82695 0.30288 0.0
N2476 N 0.46329 0.76687 0.2748 0.0
N2477 N 0.51935 0.80192 0.3012 0.0
H2478 H 0.96671 0.83143 0.05135 0.0
H2479 H 0.06324 0.68737 0.03355 0.0
H2480 H 0.94366 0.76614 0.01573 0.0
H2481 H 0.09712 0.76275 0.05865 0.0
H2482 H 0.01646 0.71307 0.03006 0.0
H2483 H 0.01181 0.80385 0.05731 0.0
C2484 C 0.97101 0.81126 0.04487 0.0
C2485 C 0.95146 0.80136 0.03287 0.0
C2486 C 0.03412 0.72398 0.03637 0.0
C2487 C 1.00294 0.76951 0.03968 0.0
C2488 C 0.0608 0.70921 0.03843 0.0
C2489 C 0.08437 0.72296 0.04624 0.0
C2490 C 0.03067 0.75263 0.04235 0.0
C2491 C 0.07984 0.75144 0.05228 0.0
C2492 C 0.99681 0.79558 0.0482 0.0
C2493 C 0.95827 0.775 0.02484 0.0
N2494 N 0.05365 0.76525 0.05023 0.0
N2495 N 0.98326 0.76009 0.02838 0.0
loop_
_geom_bond_atom_site_label_1
_geom_bond_atom_site_label_2
_geom_bond_distance
_geom_bond_site_symmetry_2
_ccdc_geom_bond_type
C0 C1 1.351 . S
C0 N3 1.368 . S
C0 H5 0.931 . S
C1 C0 1.351 . S
C1 N2 1.373 . S
C1 H29 0.930 . S
N2 C1 1.373 . S
N2 C4 1.340 . S
N3 C0 1.368 . S
N3 C4 1.321 . S
N3 Co6 2.135 . S
C4 N2 1.340 . S
C4 N3 1.321 . S
C4 H28 0.930 . S
H5 C0 0.931 . S
Co6 N3 2.135 . S
Co6 N9 2.121 . S
Co6 O14 2.055 . S
Co6 O17 2.039 . S
Co6 N20 2.140 . S
C7 O8 1.227 . S
C7 O17 1.265 . S
O8 C7 1.227 . S
N9 Co6 2.121 . S
N9 C11 1.375 . S
N9 C12 1.313 . S
C10 C11 1.338 . S
C10 N13 1.377 . S
C10 H30 0.930 . S
C11 N9 1.375 . S
C11 C10 1.338 . S
C11 H15 0.931 . S
C12 N9 1.313 . S
C12 N13 1.344 . S
C12 H16 0.930 . S
N13 C10 1.377 . S
N13 C12 1.344 . S
O14 Co6 2.055 . S
O14 C18 1.253 . S
H15 C11 0.931 . S
H16 C12 0.930 . S
O17 Co6 2.039 . S
O17 C7 1.265 . S
C18 O14 1.253 . S
C18 O19 1.227 . S
O19 C18 1.227 . S
N20 Co6 2.140 . S
N20 C23 1.346 . S
N20 C24 1.345 . S
C21 C22 1.387 . S
C21 C25 1.391 . S
C22 C21 1.387 . S
C22 C23 1.369 . S
C22 H31 0.929 . S
C23 N20 1.346 . S
C23 C22 1.369 . S
C23 H26 0.928 . S
C24 N20 1.345 . S
C24 C25 1.371 . S
C24 H27 0.931 . S
C25 C21 1.391 . S
C25 C24 1.371 . S
C25 H32 0.930 . S
H26 C23 0.928 . S
H27 C24 0.931 . S
H28 C4 0.930 . S
H29 C1 0.930 . S
H30 C10 0.930 . S
H31 C22 0.929 . S
H32 C25 0.930 . S
C33 C34 1.351 . S
C33 N36 1.368 . S
C33 H38 0.931 . S
C34 C33 1.351 . S
C34 N35 1.373 . S
C34 H62 0.930 . S
N35 C34 1.373 . S
N35 C37 1.340 . S
N36 C33 1.368 . S
N36 C37 1.321 . S
N36 Co39 2.135 . S
C37 N35 1.340 . S
C37 N36 1.321 . S
C37 H61 0.930 . S
H38 C33 0.931 . S
Co39 N36 2.135 . S
Co39 N42 2.121 . S
Co39 O47 2.055 . S
Co39 O50 2.039 . S
Co39 N53 2.140 . S
C40 O41 1.227 . S
C40 O50 1.265 . S
O41 C40 1.227 . S
N42 Co39 2.121 . S
N42 C44 1.375 . S
N42 C45 1.313 . S
C43 C44 1.338 . S
C43 N46 1.377 . S
C43 H63 0.930 . S
C44 N42 1.375 . S
C44 C43 1.338 . S
C44 H48 0.931 . S
C45 N42 1.313 . S
C45 N46 1.344 . S
C45 H49 0.930 . S
N46 C43 1.377 . S
N46 C45 1.344 . S
O47 Co39 2.055 . S
O47 C51 1.253 . S
H48 C44 0.931 . S
H49 C45 0.930 . S
O50 Co39 2.039 . S
O50 C40 1.265 . S
C51 O47 1.253 . S
C51 O52 1.227 . S
O52 C51 1.227 . S
N53 Co39 2.140 . S
N53 C56 1.346 . S
N53 C57 1.345 . S
C54 C55 1.387 . S
C54 C58 1.391 . S
C55 C54 1.387 . S
C55 C56 1.369 . S
C55 H64 0.929 . S
C56 N53 1.346 . S
C56 C55 1.369 . S
C56 H59 0.928 . S
C57 N53 1.345 . S
C57 C58 1.371 . S
C57 H60 0.931 . S
C58 C54 1.391 . S
C58 C57 1.371 . S
C58 H65 0.930 . S
H59 C56 0.928 . S
H60 C57 0.931 . S
H61 C37 0.930 . S
H62 C34 0.930 . S
H63 C43 0.930 . S
H64 C55 0.929 . S
H65 C58 0.930 . S
C66 C67 1.351 . S
C66 N69 1.368 . S
C66 H71 0.931 . S
C67 C66 1.351 . S
C67 N68 1.373 . S
C67 H95 0.930 . S
N68 C67 1.373 . S
N68 C70 1.340 . S
N69 C66 1.368 . S
N69 C70 1.321 . S
N69 Co72 2.135 . S
C70 N68 1.340 . S
C70 N69 1.321 . S
C70 H94 0.930 . S
H71 C66 0.931 . S
Co72 N69 2.135 . S
Co72 N75 2.121 . S
Co72 O80 2.055 . S
Co72 O83 2.039 . S
Co72 N86 2.140 . S
C73 O74 1.227 . S
C73 O83 1.265 . S
O74 C73 1.227 . S
N75 Co72 2.121 . S
N75 C77 1.375 . S
N75 C78 1.313 . S
C76 C77 1.338 . S
C76 N79 1.377 . S
C76 H96 0.930 . S
C77 N75 1.375 . S
C77 C76 1.338 . S
C77 H81 0.931 . S
C78 N75 1.313 . S
C78 N79 1.344 . S
C78 H82 0.930 . S
N79 C76 1.377 . S
N79 C78 1.344 . S
O80 Co72 2.055 . S
O80 C84 1.253 . S
H81 C77 0.931 . S
H82 C78 0.930 . S
O83 Co72 2.039 . S
O83 C73 1.265 . S
C84 O80 1.253 . S
C84 O85 1.227 . S
O85 C84 1.227 . S
N86 Co72 2.140 . S
N86 C89 1.346 . S
N86 C90 1.345 . S
C87 C88 1.387 . S
C87 C91 1.391 . S
C88 C87 1.387 . S
C88 C89 1.369 . S
C88 H97 0.929 . S
C89 N86 1.346 . S
C89 C88 1.369 . S
C89 H92 0.928 . S
C90 N86 1.345 . S
C90 C91 1.371 . S
C90 H93 0.931 . S
C91 C87 1.391 . S
C91 C90 1.371 . S
C91 H98 0.930 . S
H92 C89 0.928 . S
H93 C90 0.931 . S
H94 C70 0.930 . S
H95 C67 0.930 . S
H96 C76 0.930 . S
H97 C88 0.929 . S
H98 C91 0.930 . S
C99 C100 1.351 . S
C99 N102 1.368 . S
C99 H104 0.931 . S
C100 C99 1.351 . S
C100 N101 1.373 . S
C100 H128 0.930 . S
N101 C100 1.373 . S
N101 C103 1.340 . S
N102 C99 1.368 . S
N102 C103 1.321 . S
N102 Co105 2.135 . S
C103 N101 1.340 . S
C103 N102 1.321 . S
C103 H127 0.930 . S
H104 C99 0.931 . S
Co105 N102 2.135 . S
Co105 N108 2.121 . S
Co105 O113 2.055 . S
Co105 O116 2.039 . S
Co105 N119 2.140 . S
C106 O107 1.227 . S
C106 O116 1.265 . S
O107 C106 1.227 . S
N108 Co105 2.121 . S
N108 C110 1.375 . S
N108 C111 1.313 . S
C109 C110 1.338 . S
C109 N112 1.377 . S
C109 H129 0.930 . S
C110 N108 1.375 . S
C110 C109 1.338 . S
C110 H114 0.931 . S
C111 N108 1.313 . S
C111 N112 1.344 . S
C111 H115 0.930 . S
N112 C109 1.377 . S
N112 C111 1.344 . S
O113 Co105 2.055 . S
O113 C117 1.253 . S
H114 C110 0.931 . S
H115 C111 0.930 . S
O116 Co105 2.039 . S
O116 C106 1.265 . S
C117 O113 1.253 . S
C117 O118 1.227 . S
O118 C117 1.227 . S
N119 Co105 2.140 . S
N119 C122 1.346 . S
N119 C123 1.345 . S
C120 C121 1.387 . S
C120 C124 1.391 . S
C121 C120 1.387 . S
C121 C122 1.369 . S
C121 H130 0.929 . S
C122 N119 1.346 . S
C122 C121 1.369 . S
C122 H125 0.928 . S
C123 N119 1.345 . S
C123 C124 1.371 . S
C123 H126 0.931 . S
C124 C120 1.391 . S
C124 C123 1.371 . S
C124 H131 0.930 . S
H125 C122 0.928 . S
H126 C123 0.931 . S
H127 C103 0.930 . S
H128 C100 0.930 . S
H129 C109 0.930 . S
H130 C121 0.929 . S
H131 C124 0.930 . S
C132 C133 1.351 . S
C132 N135 1.368 . S
C132 H137 0.931 . S
C133 C132 1.351 . S
C133 N134 1.373 . S
C133 H161 0.930 . S
N134 C133 1.373 . S
N134 C136 1.340 . S
N135 C132 1.368 . S
N135 C136 1.321 . S
N135 Co138 2.135 . S
C136 N134 1.340 . S
C136 N135 1.321 . S
C136 H160 0.930 . S
H137 C132 0.931 . S
Co138 N135 2.135 . S
Co138 N141 2.121 . S
Co138 O146 2.055 . S
Co138 O149 2.039 . S
Co138 N152 2.140 . S
C139 O140 1.227 . S
C139 O149 1.265 . S
O140 C139 1.227 . S
N141 Co138 2.121 . S
N141 C143 1.375 . S
N141 C144 1.313 . S
C142 C143 1.338 . S
C142 N145 1.377 . S
C142 H162 0.930 . S
C143 N141 1.375 . S
C143 C142 1.338 . S
C143 H147 0.931 . S
C144 N141 1.313 . S
C144 N145 1.344 . S
C144 H148 0.930 . S
N145 C142 1.377 . S
N145 C144 1.344 . S
O146 Co138 2.055 . S
O146 C150 1.253 . S
H147 C143 0.931 . S
H148 C144 0.930 . S
O149 Co138 2.039 . S
O149 C139 1.265 . S
C150 O146 1.253 . S
C150 O151 1.227 . S
O151 C150 1.227 . S
N152 Co138 2.140 . S
N152 C155 1.346 . S
N152 C156 1.345 . S
C153 C154 1.387 . S
C153 C157 1.391 . S
C154 C153 1.387 . S
C154 C155 1.369 . S
C154 H163 0.929 . S
C155 N152 1.346 . S
C155 C154 1.369 . S
C155 H158 0.928 . S
C156 N152 1.345 . S
C156 C157 1.371 . S
C156 H159 0.931 . S
C157 C153 1.391 . S
C157 C156 1.371 . S
C157 H164 0.930 . S
H158 C155 0.928 . S
H159 C156 0.931 . S
H160 C136 0.930 . S
H161 C133 0.930 . S
H162 C142 0.930 . S
H163 C154 0.929 . S
H164 C157 0.930 . S
C165 C166 1.351 . S
C165 N168 1.368 . S
C165 H170 0.931 . S
C166 C165 1.351 . S
C166 N167 1.373 . S
C166 H194 0.930 . S
N167 C166 1.373 . S
N167 C169 1.340 . S
N168 C165 1.368 . S
N168 C169 1.321 . S
N168 Co171 2.135 . S
C169 N167 1.340 . S
C169 N168 1.321 . S
C169 H193 0.930 . S
H170 C165 0.931 . S
Co171 N168 2.135 . S
Co171 N174 2.121 . S
Co171 O179 2.055 . S
Co171 O182 2.039 . S
Co171 N185 2.140 . S
C172 O173 1.227 . S
C172 O182 1.265 . S
O173 C172 1.227 . S
N174 Co171 2.121 . S
N174 C176 1.375 . S
N174 C177 1.313 . S
C175 C176 1.338 . S
C175 N178 1.377 . S
C175 H195 0.930 . S
C176 N174 1.375 . S
C176 C175 1.338 . S
C176 H180 0.931 . S
C177 N174 1.313 . S
C177 N178 1.344 . S
C177 H181 0.930 . S
N178 C175 1.377 . S
N178 C177 1.344 . S
O179 Co171 2.055 . S
O179 C183 1.253 . S
H180 C176 0.931 . S
H181 C177 0.930 . S
O182 Co171 2.039 . S
O182 C172 1.265 . S
C183 O179 1.253 . S
C183 O184 1.227 . S
O184 C183 1.227 . S
N185 Co171 2.140 . S
N185 C188 1.346 . S
N185 C189 1.345 . S
C186 C187 1.387 . S
C186 C190 1.391 . S
C187 C186 1.387 . S
C187 C188 1.369 . S
C187 H196 0.929 . S
C188 N185 1.346 . S
C188 C187 1.369 . S
C188 H191 0.928 . S
C189 N185 1.345 . S
C189 C190 1.371 . S
C189 H192 0.931 . S
C190 C186 1.391 . S
C190 C189 1.371 . S
C190 H197 0.930 . S
H191 C188 0.928 . S
H192 C189 0.931 . S
H193 C169 0.930 . S
H194 C166 0.930 . S
H195 C175 0.930 . S
H196 C187 0.929 . S
H197 C190 0.930 . S
C198 C199 1.351 . S
C198 N201 1.368 . S
C198 H203 0.931 . S
C199 C198 1.351 . S
C199 N200 1.373 . S
C199 H227 0.930 . S
N200 C199 1.373 . S
N200 C202 1.340 . S
N201 C198 1.368 . S
N201 C202 1.321 . S
N201 Co204 2.135 . S
C202 N200 1.340 . S
C202 N201 1.321 . S
C202 H226 0.930 . S
H203 C198 0.931 . S
Co204 N201 2.135 . S
Co204 N207 2.121 . S
Co204 O212 2.055 . S
Co204 O215 2.039 . S
Co204 N218 2.140 . S
C205 O206 1.227 . S
C205 O215 1.265 . S
O206 C205 1.227 . S
N207 Co204 2.121 . S
N207 C209 1.375 . S
N207 C210 1.313 . S
C208 C209 1.338 . S
C208 N211 1.377 . S
C208 H228 0.930 . S
C209 N207 1.375 . S
C209 C208 1.338 . S
C209 H213 0.931 . S
C210 N207 1.313 . S
C210 N211 1.344 . S
C210 H214 0.930 . S
N211 C208 1.377 . S
N211 C210 1.344 . S
O212 Co204 2.055 . S
O212 C216 1.253 . S
H213 C209 0.931 . S
H214 C210 0.930 . S
O215 Co204 2.039 . S
O215 C205 1.265 . S
C216 O212 1.253 . S
C216 O217 1.227 . S
O217 C216 1.227 . S
N218 Co204 2.140 . S
N218 C221 1.346 . S
N218 C222 1.345 . S
C219 C220 1.387 . S
C219 C223 1.391 . S
C220 C219 1.387 . S
C220 C221 1.369 . S
C220 H229 0.929 . S
C221 N218 1.346 . S
C221 C220 1.369 . S
C221 H224 0.928 . S
C222 N218 1.345 . S
C222 C223 1.371 . S
C222 H225 0.931 . S
C223 C219 1.391 . S
C223 C222 1.371 . S
C223 H230 0.930 . S
H224 C221 0.928 . S
H225 C222 0.931 . S
H226 C202 0.930 . S
H227 C199 0.930 . S
H228 C208 0.930 . S
H229 C220 0.929 . S
H230 C223 0.930 . S
C231 C232 1.351 . S
C231 N234 1.368 . S
C231 H236 0.931 . S
C232 C231 1.351 . S
C232 N233 1.373 . S
C232 H260 0.930 . S
N233 C232 1.373 . S
N233 C235 1.340 . S
N234 C231 1.368 . S
N234 C235 1.321 . S
N234 Co237 2.135 . S
C235 N233 1.340 . S
C235 N234 1.321 . S
C235 H259 0.930 . S
H236 C231 0.931 . S
Co237 N234 2.135 . S
Co237 N240 2.121 . S
Co237 O245 2.055 . S
Co237 O248 2.039 . S
Co237 N251 2.140 . S
C238 O239 1.227 . S
C238 O248 1.265 . S
O239 C238 1.227 . S
N240 Co237 2.121 . S
N240 C242 1.375 . S
N240 C243 1.313 . S
C241 C242 1.338 . S
C241 N244 1.377 . S
C241 H261 0.930 . S
C242 N240 1.375 . S
C242 C241 1.338 . S
C242 H246 0.931 . S
C243 N240 1.313 . S
C243 N244 1.344 . S
C243 H247 0.930 . S
N244 C241 1.377 . S
N244 C243 1.344 . S
O245 Co237 2.055 . S
O245 C249 1.253 . S
H246 C242 0.931 . S
H247 C243 0.930 . S
O248 Co237 2.039 . S
O248 C238 1.265 . S
C249 O245 1.253 . S
C249 O250 1.227 . S
O250 C249 1.227 . S
N251 Co237 2.140 . S
N251 C254 1.346 . S
N251 C255 1.345 . S
C252 C253 1.387 . S
C252 C256 1.391 . S
C253 C252 1.387 . S
C253 C254 1.369 . S
C253 H262 0.929 . S
C254 N251 1.346 . S
C254 C253 1.369 . S
C254 H257 0.928 . S
C255 N251 1.345 . S
C255 C256 1.371 . S
C255 H258 0.931 . S
C256 C252 1.391 . S
C256 C255 1.371 . S
C256 H263 0.930 . S
H257 C254 0.928 . S
H258 C255 0.931 . S
H259 C235 0.930 . S
H260 C232 0.930 . S
H261 C241 0.930 . S
H262 C253 0.929 . S
H263 C256 0.930 . S
C264 C265 1.351 . S
C264 N267 1.368 . S
C264 H269 0.931 . S
C265 C264 1.351 . S
C265 N266 1.373 . S
C265 H293 0.930 . S
N266 C265 1.373 . S
N266 C268 1.340 . S
N267 C264 1.368 . S
N267 C268 1.321 . S
N267 Co270 2.135 . S
C268 N266 1.340 . S
C268 N267 1.321 . S
C268 H292 0.930 . S
H269 C264 0.931 . S
Co270 N267 2.135 . S
Co270 N273 2.121 . S
Co270 O278 2.055 . S
Co270 O281 2.039 . S
Co270 N284 2.140 . S
C271 O272 1.227 . S
C271 O281 1.265 . S
O272 C271 1.227 . S
N273 Co270 2.121 . S
N273 C275 1.375 . S
N273 C276 1.313 . S
C274 C275 1.338 . S
C274 N277 1.377 . S
C274 H294 0.930 . S
C275 N273 1.375 . S
C275 C274 1.338 . S
C275 H279 0.931 . S
C276 N273 1.313 . S
C276 N277 1.344 . S
C276 H280 0.930 . S
N277 C274 1.377 . S
N277 C276 1.344 . S
O278 Co270 2.055 . S
O278 C282 1.253 . S
H279 C275 0.931 . S
H280 C276 0.930 . S
O281 Co270 2.039 . S
O281 C271 1.265 . S
C282 O278 1.253 . S
C282 O283 1.227 . S
O283 C282 1.227 . S
N284 Co270 2.140 . S
N284 C287 1.346 . S
N284 C288 1.345 . S
C285 C286 1.387 . S
C285 C289 1.391 . S
C286 C285 1.387 . S
C286 C287 1.369 . S
C286 H295 0.929 . S
C287 N284 1.346 . S
C287 C286 1.369 . S
C287 H290 0.928 . S
C288 N284 1.345 . S
C288 C289 1.371 . S
C288 H291 0.931 . S
C289 C285 1.391 . S
C289 C288 1.371 . S
C289 H296 0.930 . S
H290 C287 0.928 . S
H291 C288 0.931 . S
H292 C268 0.930 . S
H293 C265 0.930 . S
H294 C274 0.930 . S
H295 C286 0.929 . S
H296 C289 0.930 . S
C297 C298 1.351 . S
C297 N300 1.368 . S
C297 H302 0.931 . S
C298 C297 1.351 . S
C298 N299 1.373 . S
C298 H326 0.930 . S
N299 C298 1.373 . S
N299 C301 1.340 . S
N300 C297 1.368 . S
N300 C301 1.321 . S
N300 Co303 2.135 . S
C301 N299 1.340 . S
C301 N300 1.321 . S
C301 H325 0.930 . S
H302 C297 0.931 . S
Co303 N300 2.135 . S
Co303 N306 2.121 . S
Co303 O311 2.055 . S
Co303 O314 2.039 . S
Co303 N317 2.140 . S
C304 O305 1.227 . S
C304 O314 1.265 . S
O305 C304 1.227 . S
N306 Co303 2.121 . S
N306 C308 1.375 . S
N306 C309 1.313 . S
C307 C308 1.338 . S
C307 N310 1.377 . S
C307 H327 0.930 . S
C308 N306 1.375 . S
C308 C307 1.338 . S
C308 H312 0.931 . S
C309 N306 1.313 . S
C309 N310 1.344 . S
C309 H313 0.930 . S
N310 C307 1.377 . S
N310 C309 1.344 . S
O311 Co303 2.055 . S
O311 C315 1.253 . S
H312 C308 0.931 . S
H313 C309 0.930 . S
O314 Co303 2.039 . S
O314 C304 1.265 . S
C315 O311 1.253 . S
C315 O316 1.227 . S
O316 C315 1.227 . S
N317 Co303 2.140 . S
N317 C320 1.346 . S
N317 C321 1.345 . S
C318 C319 1.387 . S
C318 C322 1.391 . S
C319 C318 1.387 . S
C319 C320 1.369 . S
C319 H328 0.929 . S
C320 N317 1.346 . S
C320 C319 1.369 . S
C320 H323 0.928 . S
C321 N317 1.345 . S
C321 C322 1.371 . S
C321 H324 0.931 . S
C322 C318 1.391 . S
C322 C321 1.371 . S
C322 H329 0.930 . S
H323 C320 0.928 . S
H324 C321 0.931 . S
H325 C301 0.930 . S
H326 C298 0.930 . S
H327 C307 0.930 . S
H328 C319 0.929 . S
H329 C322 0.930 . S
C330 C331 1.351 . S
C330 N333 1.368 . S
C330 H335 0.931 . S
C331 C330 1.351 . S
C331 N332 1.373 . S
C331 H359 0.930 . S
N332 C331 1.373 . S
N332 C334 1.340 . S
N333 C330 1.368 . S
N333 C334 1.321 . S
N333 Co336 2.135 . S
C334 N332 1.340 . S
C334 N333 1.321 . S
C334 H358 0.930 . S
H335 C330 0.931 . S
Co336 N333 2.135 . S
Co336 N339 2.121 . S
Co336 O344 2.055 . S
Co336 O347 2.039 . S
Co336 N350 2.140 . S
C337 O338 1.227 . S
C337 O347 1.265 . S
O338 C337 1.227 . S
N339 Co336 2.121 . S
N339 C341 1.375 . S
N339 C342 1.313 . S
C340 C341 1.338 . S
C340 N343 1.377 . S
C340 H360 0.930 . S
C341 N339 1.375 . S
C341 C340 1.338 . S
C341 H345 0.931 . S
C342 N339 1.313 . S
C342 N343 1.344 . S
C342 H346 0.930 . S
N343 C340 1.377 . S
N343 C342 1.344 . S
O344 Co336 2.055 . S
O344 C348 1.253 . S
H345 C341 0.931 . S
H346 C342 0.930 . S
O347 Co336 2.039 . S
O347 C337 1.265 . S
C348 O344 1.253 . S
C348 O349 1.227 . S
O349 C348 1.227 . S
N350 Co336 2.140 . S
N350 C353 1.346 . S
N350 C354 1.345 . S
C351 C352 1.387 . S
C351 C355 1.391 . S
C352 C351 1.387 . S
C352 C353 1.369 . S
C352 H361 0.929 . S
C353 N350 1.346 . S
C353 C352 1.369 . S
C353 H356 0.928 . S
C354 N350 1.345 . S
C354 C355 1.371 . S
C354 H357 0.931 . S
C355 C351 1.391 . S
C355 C354 1.371 . S
C355 H362 0.930 . S
H356 C353 0.928 . S
H357 C354 0.931 . S
H358 C334 0.930 . S
H359 C331 0.930 . S
H360 C340 0.930 . S
H361 C352 0.929 . S
H362 C355 0.930 . S
C363 C364 1.351 . S
C363 N366 1.368 . S
C363 H368 0.931 . S
C364 C363 1.351 . S
C364 N365 1.373 . S
C364 H392 0.930 . S
N365 C364 1.373 . S
N365 C367 1.340 . S
N366 C363 1.368 . S
N366 C367 1.321 . S
N366 Co369 2.135 . S
C367 N365 1.340 . S
C367 N366 1.321 . S
C367 H391 0.930 . S
H368 C363 0.931 . S
Co369 N366 2.135 . S
Co369 N372 2.121 . S
Co369 O377 2.055 . S
Co369 O380 2.039 . S
Co369 N383 2.140 . S
C370 O371 1.227 . S
C370 O380 1.265 . S
O371 C370 1.227 . S
N372 Co369 2.121 . S
N372 C374 1.375 . S
N372 C375 1.313 . S
C373 C374 1.338 . S
C373 N376 1.377 . S
C373 H393 0.930 . S
C374 N372 1.375 . S
C374 C373 1.338 . S
C374 H378 0.931 . S
C375 N372 1.313 . S
C375 N376 1.344 . S
C375 H379 0.930 . S
N376 C373 1.377 . S
N376 C375 1.344 . S
O377 Co369 2.055 . S
O377 C381 1.253 . S
H378 C374 0.931 . S
H379 C375 0.930 . S
O380 Co369 2.039 . S
O380 C370 1.265 . S
C381 O377 1.253 . S
C381 O382 1.227 . S
O382 C381 1.227 . S
N383 Co369 2.140 . S
N383 C386 1.346 . S
N383 C387 1.345 . S
C384 C385 1.387 . S
C384 C388 1.391 . S
C385 C384 1.387 . S
C385 C386 1.369 . S
C385 H394 0.929 . S
C386 N383 1.346 . S
C386 C385 1.369 . S
C386 H389 0.928 . S
C387 N383 1.345 . S
C387 C388 1.371 . S
C387 H390 0.931 . S
C388 C384 1.391 . S
C388 C387 1.371 . S
C388 H395 0.930 . S
H389 C386 0.928 . S
H390 C387 0.931 . S
H391 C367 0.930 . S
H392 C364 0.930 . S
H393 C373 0.930 . S
H394 C385 0.929 . S
H395 C388 0.930 . S
C396 C397 1.351 . S
C396 N399 1.368 . S
C396 H401 0.931 . S
C397 C396 1.351 . S
C397 N398 1.373 . S
C397 H425 0.930 . S
N398 C397 1.373 . S
N398 C400 1.340 . S
N399 C396 1.368 . S
N399 C400 1.321 . S
N399 Co402 2.135 . S
C400 N398 1.340 . S
C400 N399 1.321 . S
C400 H424 0.930 . S
H401 C396 0.931 . S
Co402 N399 2.135 . S
Co402 N405 2.121 . S
Co402 O410 2.055 . S
Co402 O413 2.039 . S
Co402 N416 2.140 . S
C403 O404 1.227 . S
C403 O413 1.265 . S
O404 C403 1.227 . S
N405 Co402 2.121 . S
N405 C407 1.375 . S
N405 C408 1.313 . S
C406 C407 1.338 . S
C406 N409 1.377 . S
C406 H426 0.930 . S
C407 N405 1.375 . S
C407 C406 1.338 . S
C407 H411 0.931 . S
C408 N405 1.313 . S
C408 N409 1.344 . S
C408 H412 0.930 . S
N409 C406 1.377 . S
N409 C408 1.344 . S
O410 Co402 2.055 . S
O410 C414 1.253 . S
H411 C407 0.931 . S
H412 C408 0.930 . S
O413 Co402 2.039 . S
O413 C403 1.265 . S
C414 O410 1.253 . S
C414 O415 1.227 . S
O415 C414 1.227 . S
N416 Co402 2.140 . S
N416 C419 1.346 . S
N416 C420 1.345 . S
C417 C418 1.387 . S
C417 C421 1.391 . S
C418 C417 1.387 . S
C418 C419 1.369 . S
C418 H427 0.929 . S
C419 N416 1.346 . S
C419 C418 1.369 . S
C419 H422 0.928 . S
C420 N416 1.345 . S
C420 C421 1.371 . S
C420 H423 0.931 . S
C421 C417 1.391 . S
C421 C420 1.371 . S
C421 H428 0.930 . S
H422 C419 0.928 . S
H423 C420 0.931 . S
H424 C400 0.930 . S
H425 C397 0.930 . S
H426 C406 0.930 . S
H427 C418 0.929 . S
H428 C421 0.930 . S
C429 C430 1.351 . S
C429 N432 1.368 . S
C429 H434 0.931 . S
C430 C429 1.351 . S
C430 N431 1.373 . S
C430 H458 0.930 . S
N431 C430 1.373 . S
N431 C433 1.340 . S
N432 C429 1.368 . S
N432 C433 1.321 . S
N432 Co435 2.135 . S
C433 N431 1.340 . S
C433 N432 1.321 . S
C433 H457 0.930 . S
H434 C429 0.931 . S
Co435 N432 2.135 . S
Co435 N438 2.121 . S
Co435 O443 2.055 . S
Co435 O446 2.039 . S
Co435 N449 2.140 . S
C436 O437 1.227 . S
C436 O446 1.265 . S
O437 C436 1.227 . S
N438 Co435 2.121 . S
N438 C440 1.375 . S
N438 C441 1.313 . S
C439 C440 1.338 . S
C439 N442 1.377 . S
C439 H459 0.930 . S
C440 N438 1.375 . S
C440 C439 1.338 . S
C440 H444 0.931 . S
C441 N438 1.313 . S
C441 N442 1.344 . S
C441 H445 0.930 . S
N442 C439 1.377 . S
N442 C441 1.344 . S
O443 Co435 2.055 . S
O443 C447 1.253 . S
H444 C440 0.931 . S
H445 C441 0.930 . S
O446 Co435 2.039 . S
O446 C436 1.265 . S
C447 O443 1.253 . S
C447 O448 1.227 . S
O448 C447 1.227 . S
N449 Co435 2.140 . S
N449 C452 1.346 . S
N449 C453 1.345 . S
C450 C451 1.387 . S
C450 C454 1.391 . S
C451 C450 1.387 . S
C451 C452 1.369 . S
C451 H460 0.929 . S
C452 N449 1.346 . S
C452 C451 1.369 . S
C452 H455 0.928 . S
C453 N449 1.345 . S
C453 C454 1.371 . S
C453 H456 0.931 . S
C454 C450 1.391 . S
C454 C453 1.371 . S
C454 H461 0.930 . S
H455 C452 0.928 . S
H456 C453 0.931 . S
H457 C433 0.930 . S
H458 C430 0.930 . S
H459 C439 0.930 . S
H460 C451 0.929 . S
H461 C454 0.930 . S
C462 C463 1.351 . S
C462 N465 1.368 . S
C462 H467 0.931 . S
C463 C462 1.351 . S
C463 N464 1.373 . S
C463 H491 0.930 . S
N464 C463 1.373 . S
N464 C466 1.340 . S
N465 C462 1.368 . S
N465 C466 1.321 . S
N465 Co468 2.135 . S
C466 N464 1.340 . S
C466 N465 1.321 . S
C466 H490 0.930 . S
H467 C462 0.931 . S
Co468 N465 2.135 . S
Co468 N471 2.121 . S
Co468 O476 2.055 . S
Co468 O479 2.039 . S
Co468 N482 2.140 . S
C469 O470 1.227 . S
C469 O479 1.265 . S
O470 C469 1.227 . S
N471 Co468 2.121 . S
N471 C473 1.375 . S
N471 C474 1.313 . S
C472 C473 1.338 . S
C472 N475 1.377 . S
C472 H492 0.930 . S
C473 N471 1.375 . S
C473 C472 1.338 . S
C473 H477 0.931 . S
C474 N471 1.313 . S
C474 N475 1.344 . S
C474 H478 0.930 . S
N475 C472 1.377 . S
N475 C474 1.344 . S
O476 Co468 2.055 . S
O476 C480 1.253 . S
H477 C473 0.931 . S
H478 C474 0.930 . S
O479 Co468 2.039 . S
O479 C469 1.265 . S
C480 O476 1.253 . S
C480 O481 1.227 . S
O481 C480 1.227 . S
N482 Co468 2.140 . S
N482 C485 1.346 . S
N482 C486 1.345 . S
C483 C484 1.387 . S
C483 C487 1.391 . S
C484 C483 1.387 . S
C484 C485 1.369 . S
C484 H493 0.929 . S
C485 N482 1.346 . S
C485 C484 1.369 . S
C485 H488 0.928 . S
C486 N482 1.345 . S
C486 C487 1.371 . S
C486 H489 0.931 . S
C487 C483 1.391 . S
C487 C486 1.371 . S
C487 H494 0.930 . S
H488 C485 0.928 . S
H489 C486 0.931 . S
H490 C466 0.930 . S
H491 C463 0.930 . S
H492 C472 0.930 . S
H493 C484 0.929 . S
H494 C487 0.930 . S
C495 C496 1.351 . S
C495 N498 1.368 . S
C495 H500 0.931 . S
C496 C495 1.351 . S
C496 N497 1.373 . S
C496 H524 0.930 . S
N497 C496 1.373 . S
N497 C499 1.340 . S
N498 C495 1.368 . S
N498 C499 1.321 . S
N498 Co501 2.135 . S
C499 N497 1.340 . S
C499 N498 1.321 . S
C499 H523 0.930 . S
H500 C495 0.931 . S
Co501 N498 2.135 . S
Co501 N504 2.121 . S
Co501 O509 2.055 . S
Co501 O512 2.039 . S
Co501 N515 2.140 . S
C502 O503 1.227 . S
C502 O512 1.265 . S
O503 C502 1.227 . S
N504 Co501 2.121 . S
N504 C506 1.375 . S
N504 C507 1.313 . S
C505 C506 1.338 . S
C505 N508 1.377 . S
C505 H525 0.930 . S
C506 N504 1.375 . S
C506 C505 1.338 . S
C506 H510 0.931 . S
C507 N504 1.313 . S
C507 N508 1.344 . S
C507 H511 0.930 . S
N508 C505 1.377 . S
N508 C507 1.344 . S
O509 Co501 2.055 . S
O509 C513 1.253 . S
H510 C506 0.931 . S
H511 C507 0.930 . S
O512 Co501 2.039 . S
O512 C502 1.265 . S
C513 O509 1.253 . S
C513 O514 1.227 . S
O514 C513 1.227 . S
N515 Co501 2.140 . S
N515 C518 1.346 . S
N515 C519 1.345 . S
C516 C517 1.387 . S
C516 C520 1.391 . S
C517 C516 1.387 . S
C517 C518 1.369 . S
C517 H526 0.929 . S
C518 N515 1.346 . S
C518 C517 1.369 . S
C518 H521 0.928 . S
C519 N515 1.345 . S
C519 C520 1.371 . S
C519 H522 0.931 . S
C520 C516 1.391 . S
C520 C519 1.371 . S
C520 H527 0.930 . S
H521 C518 0.928 . S
H522 C519 0.931 . S
H523 C499 0.930 . S
H524 C496 0.930 . S
H525 C505 0.930 . S
H526 C517 0.929 . S
H527 C520 0.930 . S
C528 C529 1.351 . S
C528 N531 1.368 . S
C528 H533 0.931 . S
C529 C528 1.351 . S
C529 N530 1.373 . S
C529 H557 0.930 . S
N530 C529 1.373 . S
N530 C532 1.340 . S
N531 C528 1.368 . S
N531 C532 1.321 . S
N531 Co534 2.135 . S
C532 N530 1.340 . S
C532 N531 1.321 . S
C532 H556 0.930 . S
H533 C528 0.931 . S
Co534 N531 2.135 . S
Co534 N537 2.121 . S
Co534 O542 2.055 . S
Co534 O545 2.039 . S
Co534 N548 2.140 . S
C535 O536 1.227 . S
C535 O545 1.265 . S
O536 C535 1.227 . S
N537 Co534 2.121 . S
N537 C539 1.375 . S
N537 C540 1.313 . S
C538 C539 1.338 . S
C538 N541 1.377 . S
C538 H558 0.930 . S
C539 N537 1.375 . S
C539 C538 1.338 . S
C539 H543 0.931 . S
C540 N537 1.313 . S
C540 N541 1.344 . S
C540 H544 0.930 . S
N541 C538 1.377 . S
N541 C540 1.344 . S
O542 Co534 2.055 . S
O542 C546 1.253 . S
H543 C539 0.931 . S
H544 C540 0.930 . S
O545 Co534 2.039 . S
O545 C535 1.265 . S
C546 O542 1.253 . S
C546 O547 1.227 . S
O547 C546 1.227 . S
N548 Co534 2.140 . S
N548 C551 1.346 . S
N548 C552 1.345 . S
C549 C550 1.387 . S
C549 C553 1.391 . S
C550 C549 1.387 . S
C550 C551 1.369 . S
C550 H559 0.929 . S
C551 N548 1.346 . S
C551 C550 1.369 . S
C551 H554 0.928 . S
C552 N548 1.345 . S
C552 C553 1.371 . S
C552 H555 0.931 . S
C553 C549 1.391 . S
C553 C552 1.371 . S
C553 H560 0.930 . S
H554 C551 0.928 . S
H555 C552 0.931 . S
H556 C532 0.930 . S
H557 C529 0.930 . S
H558 C538 0.930 . S
H559 C550 0.929 . S
H560 C553 0.930 . S
C561 C562 1.351 . S
C561 N564 1.368 . S
C561 H566 0.931 . S
C562 C561 1.351 . S
C562 N563 1.373 . S
C562 H590 0.930 . S
N563 C562 1.373 . S
N563 C565 1.340 . S
N564 C561 1.368 . S
N564 C565 1.321 . S
N564 Co567 2.135 . S
C565 N563 1.340 . S
C565 N564 1.321 . S
C565 H589 0.930 . S
H566 C561 0.931 . S
Co567 N564 2.135 . S
Co567 N570 2.121 . S
Co567 O575 2.055 . S
Co567 O578 2.039 . S
Co567 N581 2.140 . S
C568 O569 1.227 . S
C568 O578 1.265 . S
O569 C568 1.227 . S
N570 Co567 2.121 . S
N570 C572 1.375 . S
N570 C573 1.313 . S
C571 C572 1.338 . S
C571 N574 1.377 . S
C571 H591 0.930 . S
C572 N570 1.375 . S
C572 C571 1.338 . S
C572 H576 0.931 . S
C573 N570 1.313 . S
C573 N574 1.344 . S
C573 H577 0.930 . S
N574 C571 1.377 . S
N574 C573 1.344 . S
O575 Co567 2.055 . S
O575 C579 1.253 . S
H576 C572 0.931 . S
H577 C573 0.930 . S
O578 Co567 2.039 . S
O578 C568 1.265 . S
C579 O575 1.253 . S
C579 O580 1.227 . S
O580 C579 1.227 . S
N581 Co567 2.140 . S
N581 C584 1.346 . S
N581 C585 1.345 . S
C582 C583 1.387 . S
C582 C586 1.391 . S
C583 C582 1.387 . S
C583 C584 1.369 . S
C583 H592 0.929 . S
C584 N581 1.346 . S
C584 C583 1.369 . S
C584 H587 0.928 . S
C585 N581 1.345 . S
C585 C586 1.371 . S
C585 H588 0.931 . S
C586 C582 1.391 . S
C586 C585 1.371 . S
C586 H593 0.930 . S
H587 C584 0.928 . S
H588 C585 0.931 . S
H589 C565 0.930 . S
H590 C562 0.930 . S
H591 C571 0.930 . S
H592 C583 0.929 . S
H593 C586 0.930 . S
C594 C595 1.351 . S
C594 N597 1.368 . S
C594 H599 0.931 . S
C595 C594 1.351 . S
C595 N596 1.373 . S
C595 H623 0.930 . S
N596 C595 1.373 . S
N596 C598 1.340 . S
N597 C594 1.368 . S
N597 C598 1.321 . S
N597 Co600 2.135 . S
C598 N596 1.340 . S
C598 N597 1.321 . S
C598 H622 0.930 . S
H599 C594 0.931 . S
Co600 N597 2.135 . S
Co600 N603 2.121 . S
Co600 O608 2.055 . S
Co600 O611 2.039 . S
Co600 N614 2.140 . S
C601 O602 1.227 . S
C601 O611 1.265 . S
O602 C601 1.227 . S
N603 Co600 2.121 . S
N603 C605 1.375 . S
N603 C606 1.313 . S
C604 C605 1.338 . S
C604 N607 1.377 . S
C604 H624 0.930 . S
C605 N603 1.375 . S
C605 C604 1.338 . S
C605 H609 0.931 . S
C606 N603 1.313 . S
C606 N607 1.344 . S
C606 H610 0.930 . S
N607 C604 1.377 . S
N607 C606 1.344 . S
O608 Co600 2.055 . S
O608 C612 1.253 . S
H609 C605 0.931 . S
H610 C606 0.930 . S
O611 Co600 2.039 . S
O611 C601 1.265 . S
C612 O608 1.253 . S
C612 O613 1.227 . S
O613 C612 1.227 . S
N614 Co600 2.140 . S
N614 C617 1.346 . S
N614 C618 1.345 . S
C615 C616 1.387 . S
C615 C619 1.391 . S
C616 C615 1.387 . S
C616 C617 1.369 . S
C616 H625 0.929 . S
C617 N614 1.346 . S
C617 C616 1.369 . S
C617 H620 0.928 . S
C618 N614 1.345 . S
C618 C619 1.371 . S
C618 H621 0.931 . S
C619 C615 1.391 . S
C619 C618 1.371 . S
C619 H626 0.930 . S
H620 C617 0.928 . S
H621 C618 0.931 . S
H622 C598 0.930 . S
H623 C595 0.930 . S
H624 C604 0.930 . S
H625 C616 0.929 . S
H626 C619 0.930 . S
C627 C628 1.351 . S
C627 N630 1.368 . S
C627 H632 0.931 . S
C628 C627 1.351 . S
C628 N629 1.373 . S
C628 H656 0.930 . S
N629 C628 1.373 . S
N629 C631 1.340 . S
N630 C627 1.368 . S
N630 C631 1.321 . S
N630 Co633 2.135 . S
C631 N629 1.340 . S
C631 N630 1.321 . S
C631 H655 0.930 . S
H632 C627 0.931 . S
Co633 N630 2.135 . S
Co633 N636 2.121 . S
Co633 O641 2.055 . S
Co633 O644 2.039 . S
Co633 N647 2.140 . S
C634 O635 1.227 . S
C634 O644 1.265 . S
O635 C634 1.227 . S
N636 Co633 2.121 . S
N636 C638 1.375 . S
N636 C639 1.313 . S
C637 C638 1.338 . S
C637 N640 1.377 . S
C637 H657 0.930 . S
C638 N636 1.375 . S
C638 C637 1.338 . S
C638 H642 0.931 . S
C639 N636 1.313 . S
C639 N640 1.344 . S
C639 H643 0.930 . S
N640 C637 1.377 . S
N640 C639 1.344 . S
O641 Co633 2.055 . S
O641 C645 1.253 . S
H642 C638 0.931 . S
H643 C639 0.930 . S
O644 Co633 2.039 . S
O644 C634 1.265 . S
C645 O641 1.253 . S
C645 O646 1.227 . S
O646 C645 1.227 . S
N647 Co633 2.140 . S
N647 C650 1.346 . S
N647 C651 1.345 . S
C648 C649 1.387 . S
C648 C652 1.391 . S
C649 C648 1.387 . S
C649 C650 1.369 . S
C649 H658 0.929 . S
C650 N647 1.346 . S
C650 C649 1.369 . S
C650 H653 0.928 . S
C651 N647 1.345 . S
C651 C652 1.371 . S
C651 H654 0.931 . S
C652 C648 1.391 . S
C652 C651 1.371 . S
C652 H659 0.930 . S
H653 C650 0.928 . S
H654 C651 0.931 . S
H655 C631 0.930 . S
H656 C628 0.930 . S
H657 C637 0.930 . S
H658 C649 0.929 . S
H659 C652 0.930 . S
C660 C661 1.351 . S
C660 N663 1.368 . S
C660 H665 0.931 . S
C661 C660 1.351 . S
C661 N662 1.373 . S
C661 H689 0.930 . S
N662 C661 1.373 . S
N662 C664 1.340 . S
N663 C660 1.368 . S
N663 C664 1.321 . S
N663 Co666 2.135 . S
C664 N662 1.340 . S
C664 N663 1.321 . S
C664 H688 0.930 . S
H665 C660 0.931 . S
Co666 N663 2.135 . S
Co666 N669 2.121 . S
Co666 O674 2.055 . S
Co666 O677 2.039 . S
Co666 N680 2.140 . S
C667 O668 1.227 . S
C667 O677 1.265 . S
O668 C667 1.227 . S
N669 Co666 2.121 . S
N669 C671 1.375 . S
N669 C672 1.313 . S
C670 C671 1.338 . S
C670 N673 1.377 . S
C670 H690 0.930 . S
C671 N669 1.375 . S
C671 C670 1.338 . S
C671 H675 0.931 . S
C672 N669 1.313 . S
C672 N673 1.344 . S
C672 H676 0.930 . S
N673 C670 1.377 . S
N673 C672 1.344 . S
O674 Co666 2.055 . S
O674 C678 1.253 . S
H675 C671 0.931 . S
H676 C672 0.930 . S
O677 Co666 2.039 . S
O677 C667 1.265 . S
C678 O674 1.253 . S
C678 O679 1.227 . S
O679 C678 1.227 . S
N680 Co666 2.140 . S
N680 C683 1.346 . S
N680 C684 1.345 . S
C681 C682 1.387 . S
C681 C685 1.391 . S
C682 C681 1.387 . S
C682 C683 1.369 . S
C682 H691 0.929 . S
C683 N680 1.346 . S
C683 C682 1.369 . S
C683 H686 0.928 . S
C684 N680 1.345 . S
C684 C685 1.371 . S
C684 H687 0.931 . S
C685 C681 1.391 . S
C685 C684 1.371 . S
C685 H692 0.930 . S
H686 C683 0.928 . S
H687 C684 0.931 . S
H688 C664 0.930 . S
H689 C661 0.930 . S
H690 C670 0.930 . S
H691 C682 0.929 . S
H692 C685 0.930 . S
C693 C694 1.351 . S
C693 N696 1.368 . S
C693 H698 0.931 . S
C694 C693 1.351 . S
C694 N695 1.373 . S
C694 H722 0.930 . S
N695 C694 1.373 . S
N695 C697 1.340 . S
N696 C693 1.368 . S
N696 C697 1.321 . S
N696 Co699 2.135 . S
C697 N695 1.340 . S
C697 N696 1.321 . S
C697 H721 0.930 . S
H698 C693 0.931 . S
Co699 N696 2.135 . S
Co699 N702 2.121 . S
Co699 O707 2.055 . S
Co699 O710 2.039 . S
Co699 N713 2.140 . S
C700 O701 1.227 . S
C700 O710 1.265 . S
O701 C700 1.227 . S
N702 Co699 2.121 . S
N702 C704 1.375 . S
N702 C705 1.313 . S
C703 C704 1.338 . S
C703 N706 1.377 . S
C703 H723 0.930 . S
C704 N702 1.375 . S
C704 C703 1.338 . S
C704 H708 0.931 . S
C705 N702 1.313 . S
C705 N706 1.344 . S
C705 H709 0.930 . S
N706 C703 1.377 . S
N706 C705 1.344 . S
O707 Co699 2.055 . S
O707 C711 1.253 . S
H708 C704 0.931 . S
H709 C705 0.930 . S
O710 Co699 2.039 . S
O710 C700 1.265 . S
C711 O707 1.253 . S
C711 O712 1.227 . S
O712 C711 1.227 . S
N713 Co699 2.140 . S
N713 C716 1.346 . S
N713 C717 1.345 . S
C714 C715 1.387 . S
C714 C718 1.391 . S
C715 C714 1.387 . S
C715 C716 1.369 . S
C715 H724 0.929 . S
C716 N713 1.346 . S
C716 C715 1.369 . S
C716 H719 0.928 . S
C717 N713 1.345 . S
C717 C718 1.371 . S
C717 H720 0.931 . S
C718 C714 1.391 . S
C718 C717 1.371 . S
C718 H725 0.930 . S
H719 C716 0.928 . S
H720 C717 0.931 . S
H721 C697 0.930 . S
H722 C694 0.930 . S
H723 C703 0.930 . S
H724 C715 0.929 . S
H725 C718 0.930 . S
C726 C727 1.351 . S
C726 N729 1.368 . S
C726 H731 0.931 . S
C727 C726 1.351 . S
C727 N728 1.373 . S
C727 H755 0.930 . S
N728 C727 1.373 . S
N728 C730 1.340 . S
N729 C726 1.368 . S
N729 C730 1.321 . S
N729 Co732 2.135 . S
C730 N728 1.340 . S
C730 N729 1.321 . S
C730 H754 0.930 . S
H731 C726 0.931 . S
Co732 N729 2.135 . S
Co732 N735 2.121 . S
Co732 O740 2.055 . S
Co732 O743 2.039 . S
Co732 N746 2.140 . S
C733 O734 1.227 . S
C733 O743 1.265 . S
O734 C733 1.227 . S
N735 Co732 2.121 . S
N735 C737 1.375 . S
N735 C738 1.313 . S
C736 C737 1.338 . S
C736 N739 1.377 . S
C736 H756 0.930 . S
C737 N735 1.375 . S
C737 C736 1.338 . S
C737 H741 0.931 . S
C738 N735 1.313 . S
C738 N739 1.344 . S
C738 H742 0.930 . S
N739 C736 1.377 . S
N739 C738 1.344 . S
O740 Co732 2.055 . S
O740 C744 1.253 . S
H741 C737 0.931 . S
H742 C738 0.930 . S
O743 Co732 2.039 . S
O743 C733 1.265 . S
C744 O740 1.253 . S
C744 O745 1.227 . S
O745 C744 1.227 . S
N746 Co732 2.140 . S
N746 C749 1.346 . S
N746 C750 1.345 . S
C747 C748 1.387 . S
C747 C751 1.391 . S
C748 C747 1.387 . S
C748 C749 1.369 . S
C748 H757 0.929 . S
C749 N746 1.346 . S
C749 C748 1.369 . S
C749 H752 0.928 . S
C750 N746 1.345 . S
C750 C751 1.371 . S
C750 H753 0.931 . S
C751 C747 1.391 . S
C751 C750 1.371 . S
C751 H758 0.930 . S
H752 C749 0.928 . S
H753 C750 0.931 . S
H754 C730 0.930 . S
H755 C727 0.930 . S
H756 C736 0.930 . S
H757 C748 0.929 . S
H758 C751 0.930 . S
C759 C760 1.351 . S
C759 N762 1.368 . S
C759 H764 0.931 . S
C760 C759 1.351 . S
C760 N761 1.373 . S
C760 H788 0.930 . S
N761 C760 1.373 . S
N761 C763 1.340 . S
N762 C759 1.368 . S
N762 C763 1.321 . S
N762 Co765 2.135 . S
C763 N761 1.340 . S
C763 N762 1.321 . S
C763 H787 0.930 . S
H764 C759 0.931 . S
Co765 N762 2.135 . S
Co765 N768 2.121 . S
Co765 O773 2.055 . S
Co765 O776 2.039 . S
Co765 N779 2.140 . S
C766 O767 1.227 . S
C766 O776 1.265 . S
O767 C766 1.227 . S
N768 Co765 2.121 . S
N768 C770 1.375 . S
N768 C771 1.313 . S
C769 C770 1.338 . S
C769 N772 1.377 . S
C769 H789 0.930 . S
C770 N768 1.375 . S
C770 C769 1.338 . S
C770 H774 0.931 . S
C771 N768 1.313 . S
C771 N772 1.344 . S
C771 H775 0.930 . S
N772 C769 1.377 . S
N772 C771 1.344 . S
O773 Co765 2.055 . S
O773 C777 1.253 . S
H774 C770 0.931 . S
H775 C771 0.930 . S
O776 Co765 2.039 . S
O776 C766 1.265 . S
C777 O773 1.253 . S
C777 O778 1.227 . S
O778 C777 1.227 . S
N779 Co765 2.140 . S
N779 C782 1.346 . S
N779 C783 1.345 . S
C780 C781 1.387 . S
C780 C784 1.391 . S
C781 C780 1.387 . S
C781 C782 1.369 . S
C781 H790 0.929 . S
C782 N779 1.346 . S
C782 C781 1.369 . S
C782 H785 0.928 . S
C783 N779 1.345 . S
C783 C784 1.371 . S
C783 H786 0.931 . S
C784 C780 1.391 . S
C784 C783 1.371 . S
C784 H791 0.930 . S
H785 C782 0.928 . S
H786 C783 0.931 . S
H787 C763 0.930 . S
H788 C760 0.930 . S
H789 C769 0.930 . S
H790 C781 0.929 . S
H791 C784 0.930 . S
C792 C793 1.351 . S
C792 N795 1.368 . S
C792 H797 0.931 . S
C793 C792 1.351 . S
C793 N794 1.373 . S
C793 H821 0.930 . S
N794 C793 1.373 . S
N794 C796 1.340 . S
N795 C792 1.368 . S
N795 C796 1.321 . S
N795 Co798 2.135 . S
C796 N794 1.340 . S
C796 N795 1.321 . S
C796 H820 0.930 . S
H797 C792 0.931 . S
Co798 N795 2.135 . S
Co798 N801 2.121 . S
Co798 O806 2.055 . S
Co798 O809 2.039 . S
Co798 N812 2.140 . S
C799 O800 1.227 . S
C799 O809 1.265 . S
O800 C799 1.227 . S
N801 Co798 2.121 . S
N801 C803 1.375 . S
N801 C804 1.313 . S
C802 C803 1.338 . S
C802 N805 1.377 . S
C802 H822 0.930 . S
C803 N801 1.375 . S
C803 C802 1.338 . S
C803 H807 0.931 . S
C804 N801 1.313 . S
C804 N805 1.344 . S
C804 H808 0.930 . S
N805 C802 1.377 . S
N805 C804 1.344 . S
O806 Co798 2.055 . S
O806 C810 1.253 . S
H807 C803 0.931 . S
H808 C804 0.930 . S
O809 Co798 2.039 . S
O809 C799 1.265 . S
C810 O806 1.253 . S
C810 O811 1.227 . S
O811 C810 1.227 . S
N812 Co798 2.140 . S
N812 C815 1.346 . S
N812 C816 1.345 . S
C813 C814 1.387 . S
C813 C817 1.391 . S
C814 C813 1.387 . S
C814 C815 1.369 . S
C814 H823 0.929 . S
C815 N812 1.346 . S
C815 C814 1.369 . S
C815 H818 0.928 . S
C816 N812 1.345 . S
C816 C817 1.371 . S
C816 H819 0.931 . S
C817 C813 1.391 . S
C817 C816 1.371 . S
C817 H824 0.930 . S
H818 C815 0.928 . S
H819 C816 0.931 . S
H820 C796 0.930 . S
H821 C793 0.930 . S
H822 C802 0.930 . S
H823 C814 0.929 . S
H824 C817 0.930 . S
C825 C826 1.351 . S
C825 N828 1.368 . S
C825 H830 0.931 . S
C826 C825 1.351 . S
C826 N827 1.373 . S
C826 H854 0.930 . S
N827 C826 1.373 . S
N827 C829 1.340 . S
N828 C825 1.368 . S
N828 C829 1.321 . S
N828 Co831 2.135 . S
C829 N827 1.340 . S
C829 N828 1.321 . S
C829 H853 0.930 . S
H830 C825 0.931 . S
Co831 N828 2.135 . S
Co831 N834 2.121 . S
Co831 O839 2.055 . S
Co831 O842 2.039 . S
Co831 N845 2.140 . S
C832 O833 1.227 . S
C832 O842 1.265 . S
O833 C832 1.227 . S
N834 Co831 2.121 . S
N834 C836 1.375 . S
N834 C837 1.313 . S
C835 C836 1.338 . S
C835 N838 1.377 . S
C835 H855 0.930 . S
C836 N834 1.375 . S
C836 C835 1.338 . S
C836 H840 0.931 . S
C837 N834 1.313 . S
C837 N838 1.344 . S
C837 H841 0.930 . S
N838 C835 1.377 . S
N838 C837 1.344 . S
O839 Co831 2.055 . S
O839 C843 1.253 . S
H840 C836 0.931 . S
H841 C837 0.930 . S
O842 Co831 2.039 . S
O842 C832 1.265 . S
C843 O839 1.253 . S
C843 O844 1.227 . S
O844 C843 1.227 . S
N845 Co831 2.140 . S
N845 C848 1.346 . S
N845 C849 1.345 . S
C846 C847 1.387 . S
C846 C850 1.391 . S
C847 C846 1.387 . S
C847 C848 1.369 . S
C847 H856 0.929 . S
C848 N845 1.346 . S
C848 C847 1.369 . S
C848 H851 0.928 . S
C849 N845 1.345 . S
C849 C850 1.371 . S
C849 H852 0.931 . S
C850 C846 1.391 . S
C850 C849 1.371 . S
C850 H857 0.930 . S
H851 C848 0.928 . S
H852 C849 0.931 . S
H853 C829 0.930 . S
H854 C826 0.930 . S
H855 C835 0.930 . S
H856 C847 0.929 . S
H857 C850 0.930 . S
C858 C859 1.351 . S
C858 N861 1.368 . S
C858 H863 0.931 . S
C859 C858 1.351 . S
C859 N860 1.373 . S
C859 H887 0.930 . S
N860 C859 1.373 . S
N860 C862 1.340 . S
N861 C858 1.368 . S
N861 C862 1.321 . S
N861 Co864 2.135 . S
C862 N860 1.340 . S
C862 N861 1.321 . S
C862 H886 0.930 . S
H863 C858 0.931 . S
Co864 N861 2.135 . S
Co864 N867 2.121 . S
Co864 O872 2.055 . S
Co864 O875 2.039 . S
Co864 N878 2.140 . S
C865 O866 1.227 . S
C865 O875 1.265 . S
O866 C865 1.227 . S
N867 Co864 2.121 . S
N867 C869 1.375 . S
N867 C870 1.313 . S
C868 C869 1.338 . S
C868 N871 1.377 . S
C868 H888 0.930 . S
C869 N867 1.375 . S
C869 C868 1.338 . S
C869 H873 0.931 . S
C870 N867 1.313 . S
C870 N871 1.344 . S
C870 H874 0.930 . S
N871 C868 1.377 . S
N871 C870 1.344 . S
O872 Co864 2.055 . S
O872 C876 1.253 . S
H873 C869 0.931 . S
H874 C870 0.930 . S
O875 Co864 2.039 . S
O875 C865 1.265 . S
C876 O872 1.253 . S
C876 O877 1.227 . S
O877 C876 1.227 . S
N878 Co864 2.140 . S
N878 C881 1.346 . S
N878 C882 1.345 . S
C879 C880 1.387 . S
C879 C883 1.391 . S
C880 C879 1.387 . S
C880 C881 1.369 . S
C880 H889 0.929 . S
C881 N878 1.346 . S
C881 C880 1.369 . S
C881 H884 0.928 . S
C882 N878 1.345 . S
C882 C883 1.371 . S
C882 H885 0.931 . S
C883 C879 1.391 . S
C883 C882 1.371 . S
C883 H890 0.930 . S
H884 C881 0.928 . S
H885 C882 0.931 . S
H886 C862 0.930 . S
H887 C859 0.930 . S
H888 C868 0.930 . S
H889 C880 0.929 . S
H890 C883 0.930 . S
C891 C892 1.351 . S
C891 N894 1.368 . S
C891 H896 0.931 . S
C892 C891 1.351 . S
C892 N893 1.373 . S
C892 H920 0.930 . S
N893 C892 1.373 . S
N893 C895 1.340 . S
N894 C891 1.368 . S
N894 C895 1.321 . S
N894 Co897 2.135 . S
C895 N893 1.340 . S
C895 N894 1.321 . S
C895 H919 0.930 . S
H896 C891 0.931 . S
Co897 N894 2.135 . S
Co897 N900 2.121 . S
Co897 O905 2.055 . S
Co897 O908 2.039 . S
Co897 N911 2.140 . S
C898 O899 1.227 . S
C898 O908 1.265 . S
O899 C898 1.227 . S
N900 Co897 2.121 . S
N900 C902 1.375 . S
N900 C903 1.313 . S
C901 C902 1.338 . S
C901 N904 1.377 . S
C901 H921 0.930 . S
C902 N900 1.375 . S
C902 C901 1.338 . S
C902 H906 0.931 . S
C903 N900 1.313 . S
C903 N904 1.344 . S
C903 H907 0.930 . S
N904 C901 1.377 . S
N904 C903 1.344 . S
O905 Co897 2.055 . S
O905 C909 1.253 . S
H906 C902 0.931 . S
H907 C903 0.930 . S
O908 Co897 2.039 . S
O908 C898 1.265 . S
C909 O905 1.253 . S
C909 O910 1.227 . S
O910 C909 1.227 . S
N911 Co897 2.140 . S
N911 C914 1.346 . S
N911 C915 1.345 . S
C912 C913 1.387 . S
C912 C916 1.391 . S
C913 C912 1.387 . S
C913 C914 1.369 . S
C913 H922 0.929 . S
C914 N911 1.346 . S
C914 C913 1.369 . S
C914 H917 0.928 . S
C915 N911 1.345 . S
C915 C916 1.371 . S
C915 H918 0.931 . S
C916 C912 1.391 . S
C916 C915 1.371 . S
C916 H923 0.930 . S
H917 C914 0.928 . S
H918 C915 0.931 . S
H919 C895 0.930 . S
H920 C892 0.930 . S
H921 C901 0.930 . S
H922 C913 0.929 . S
H923 C916 0.930 . S
C924 C925 1.351 . S
C924 N927 1.368 . S
C924 H929 0.931 . S
C925 C924 1.351 . S
C925 N926 1.373 . S
C925 H953 0.930 . S
N926 C925 1.373 . S
N926 C928 1.340 . S
N927 C924 1.368 . S
N927 C928 1.321 . S
N927 Co930 2.135 . S
C928 N926 1.340 . S
C928 N927 1.321 . S
C928 H952 0.930 . S
H929 C924 0.931 . S
Co930 N927 2.135 . S
Co930 N933 2.121 . S
Co930 O938 2.055 . S
Co930 O941 2.039 . S
Co930 N944 2.140 . S
C931 O932 1.227 . S
C931 O941 1.265 . S
O932 C931 1.227 . S
N933 Co930 2.121 . S
N933 C935 1.375 . S
N933 C936 1.313 . S
C934 C935 1.338 . S
C934 N937 1.377 . S
C934 H954 0.930 . S
C935 N933 1.375 . S
C935 C934 1.338 . S
C935 H939 0.931 . S
C936 N933 1.313 . S
C936 N937 1.344 . S
C936 H940 0.930 . S
N937 C934 1.377 . S
N937 C936 1.344 . S
O938 Co930 2.055 . S
O938 C942 1.253 . S
H939 C935 0.931 . S
H940 C936 0.930 . S
O941 Co930 2.039 . S
O941 C931 1.265 . S
C942 O938 1.253 . S
C942 O943 1.227 . S
O943 C942 1.227 . S
N944 Co930 2.140 . S
N944 C947 1.346 . S
N944 C948 1.345 . S
C945 C946 1.387 . S
C945 C949 1.391 . S
C946 C945 1.387 . S
C946 C947 1.369 . S
C946 H955 0.929 . S
C947 N944 1.346 . S
C947 C946 1.369 . S
C947 H950 0.928 . S
C948 N944 1.345 . S
C948 C949 1.371 . S
C948 H951 0.931 . S
C949 C945 1.391 . S
C949 C948 1.371 . S
C949 H956 0.930 . S
H950 C947 0.928 . S
H951 C948 0.931 . S
H952 C928 0.930 . S
H953 C925 0.930 . S
H954 C934 0.930 . S
H955 C946 0.929 . S
H956 C949 0.930 . S
C957 C958 1.351 . S
C957 N960 1.368 . S
C957 H962 0.931 . S
C958 C957 1.351 . S
C958 N959 1.373 . S
C958 H986 0.930 . S
N959 C958 1.373 . S
N959 C961 1.340 . S
N960 C957 1.368 . S
N960 C961 1.321 . S
N960 Co963 2.135 . S
C961 N959 1.340 . S
C961 N960 1.321 . S
C961 H985 0.930 . S
H962 C957 0.931 . S
Co963 N960 2.135 . S
Co963 N966 2.121 . S
Co963 O971 2.055 . S
Co963 O974 2.039 . S
Co963 N977 2.140 . S
C964 O965 1.227 . S
C964 O974 1.265 . S
O965 C964 1.227 . S
N966 Co963 2.121 . S
N966 C968 1.375 . S
N966 C969 1.313 . S
C967 C968 1.338 . S
C967 N970 1.377 . S
C967 H987 0.930 . S
C968 N966 1.375 . S
C968 C967 1.338 . S
C968 H972 0.931 . S
C969 N966 1.313 . S
C969 N970 1.344 . S
C969 H973 0.930 . S
N970 C967 1.377 . S
N970 C969 1.344 . S
O971 Co963 2.055 . S
O971 C975 1.253 . S
H972 C968 0.931 . S
H973 C969 0.930 . S
O974 Co963 2.039 . S
O974 C964 1.265 . S
C975 O971 1.253 . S
C975 O976 1.227 . S
O976 C975 1.227 . S
N977 Co963 2.140 . S
N977 C980 1.346 . S
N977 C981 1.345 . S
C978 C979 1.387 . S
C978 C982 1.391 . S
C979 C978 1.387 . S
C979 C980 1.369 . S
C979 H988 0.929 . S
C980 N977 1.346 . S
C980 C979 1.369 . S
C980 H983 0.928 . S
C981 N977 1.345 . S
C981 C982 1.371 . S
C981 H984 0.931 . S
C982 C978 1.391 . S
C982 C981 1.371 . S
C982 H989 0.930 . S
H983 C980 0.928 . S
H984 C981 0.931 . S
H985 C961 0.930 . S
H986 C958 0.930 . S
H987 C967 0.930 . S
H988 C979 0.929 . S
H989 C982 0.930 . S
C990 C991 1.351 . S
C990 N993 1.368 . S
C990 H995 0.931 . S
C991 C990 1.351 . S
C991 N992 1.373 . S
C991 H1019 0.930 . S
N992 C991 1.373 . S
N992 C994 1.340 . S
N993 C990 1.368 . S
N993 C994 1.321 . S
N993 Co996 2.135 . S
C994 N992 1.340 . S
C994 N993 1.321 . S
C994 H1018 0.930 . S
H995 C990 0.931 . S
Co996 N993 2.135 . S
Co996 N999 2.121 . S
Co996 O1004 2.055 . S
Co996 O1007 2.039 . S
Co996 N1010 2.140 . S
C997 O998 1.227 . S
C997 O1007 1.265 . S
O998 C997 1.227 . S
N999 Co996 2.121 . S
N999 C1001 1.375 . S
N999 C1002 1.313 . S
C1000 C1001 1.338 . S
C1000 N1003 1.377 . S
C1000 H1020 0.930 . S
C1001 N999 1.375 . S
C1001 C1000 1.338 . S
C1001 H1005 0.931 . S
C1002 N999 1.313 . S
C1002 N1003 1.344 . S
C1002 H1006 0.930 . S
N1003 C1000 1.377 . S
N1003 C1002 1.344 . S
O1004 Co996 2.055 . S
O1004 C1008 1.253 . S
H1005 C1001 0.931 . S
H1006 C1002 0.930 . S
O1007 Co996 2.039 . S
O1007 C997 1.265 . S
C1008 O1004 1.253 . S
C1008 O1009 1.227 . S
O1009 C1008 1.227 . S
N1010 Co996 2.140 . S
N1010 C1013 1.346 . S
N1010 C1014 1.345 . S
C1011 C1012 1.387 . S
C1011 C1015 1.391 . S
C1012 C1011 1.387 . S
C1012 C1013 1.369 . S
C1012 H1021 0.929 . S
C1013 N1010 1.346 . S
C1013 C1012 1.369 . S
C1013 H1016 0.928 . S
C1014 N1010 1.345 . S
C1014 C1015 1.371 . S
C1014 H1017 0.931 . S
C1015 C1011 1.391 . S
C1015 C1014 1.371 . S
C1015 H1022 0.930 . S
H1016 C1013 0.928 . S
H1017 C1014 0.931 . S
H1018 C994 0.930 . S
H1019 C991 0.930 . S
H1020 C1000 0.930 . S
H1021 C1012 0.929 . S
H1022 C1015 0.930 . S
C1023 C1024 1.351 . S
C1023 N1026 1.368 . S
C1023 H1028 0.931 . S
C1024 C1023 1.351 . S
C1024 N1025 1.373 . S
C1024 H1052 0.930 . S
N1025 C1024 1.373 . S
N1025 C1027 1.340 . S
N1026 C1023 1.368 . S
N1026 C1027 1.321 . S
N1026 Co1029 2.135 . S
C1027 N1025 1.340 . S
C1027 N1026 1.321 . S
C1027 H1051 0.930 . S
H1028 C1023 0.931 . S
Co1029 N1026 2.135 . S
Co1029 N1032 2.121 . S
Co1029 O1037 2.055 . S
Co1029 O1040 2.039 . S
Co1029 N1043 2.140 . S
C1030 O1031 1.227 . S
C1030 O1040 1.265 . S
O1031 C1030 1.227 . S
N1032 Co1029 2.121 . S
N1032 C1034 1.375 . S
N1032 C1035 1.313 . S
C1033 C1034 1.338 . S
C1033 N1036 1.377 . S
C1033 H1053 0.930 . S
C1034 N1032 1.375 . S
C1034 C1033 1.338 . S
C1034 H1038 0.931 . S
C1035 N1032 1.313 . S
C1035 N1036 1.344 . S
C1035 H1039 0.930 . S
N1036 C1033 1.377 . S
N1036 C1035 1.344 . S
O1037 Co1029 2.055 . S
O1037 C1041 1.253 . S
H1038 C1034 0.931 . S
H1039 C1035 0.930 . S
O1040 Co1029 2.039 . S
O1040 C1030 1.265 . S
C1041 O1037 1.253 . S
C1041 O1042 1.227 . S
O1042 C1041 1.227 . S
N1043 Co1029 2.140 . S
N1043 C1046 1.346 . S
N1043 C1047 1.345 . S
C1044 C1045 1.387 . S
C1044 C1048 1.391 . S
C1045 C1044 1.387 . S
C1045 C1046 1.369 . S
C1045 H1054 0.929 . S
C1046 N1043 1.346 . S
C1046 C1045 1.369 . S
C1046 H1049 0.928 . S
C1047 N1043 1.345 . S
C1047 C1048 1.371 . S
C1047 H1050 0.931 . S
C1048 C1044 1.391 . S
C1048 C1047 1.371 . S
C1048 H1055 0.930 . S
H1049 C1046 0.928 . S
H1050 C1047 0.931 . S
H1051 C1027 0.930 . S
H1052 C1024 0.930 . S
H1053 C1033 0.930 . S
H1054 C1045 0.929 . S
H1055 C1048 0.930 . S
H1056 C1062 0.930 . S
H1057 C1066 0.930 . S
H1058 C1071 0.929 . S
H1059 C1069 0.929 . S
H1060 C1064 0.929 . S
H1061 C1070 0.929 . S
C1062 H1056 0.930 . S
C1062 C1063 1.367 . S
C1062 C1070 1.378 . S
C1063 C1062 1.367 . S
C1063 C1071 1.433 . S
C1064 H1060 0.929 . S
C1064 C1066 1.378 . S
C1064 C1068 1.350 . S
C1065 C1068 1.463 . S
C1065 C1070 1.350 . S
C1065 N1073 1.427 . S
C1066 H1057 0.930 . S
C1066 C1064 1.378 . S
C1066 C1067 1.367 . S
C1067 C1066 1.367 . S
C1067 C1069 1.433 . S
C1068 C1064 1.350 . S
C1068 C1065 1.463 . S
C1068 N1072 1.427 . S
C1069 H1059 0.929 . S
C1069 C1067 1.433 . S
C1069 N1072 1.384 . S
C1070 H1061 0.929 . S
C1070 C1062 1.378 . S
C1070 C1065 1.350 . S
C1071 H1058 0.929 . S
C1071 C1063 1.433 . S
C1071 N1073 1.384 . S
N1072 C1068 1.427 . S
N1072 C1069 1.384 . S
N1073 C1065 1.427 . S
N1073 C1071 1.384 . S
H1074 C1080 0.930 . S
H1075 C1084 0.930 . S
H1076 C1089 0.929 . S
H1077 C1087 0.929 . S
H1078 C1082 0.929 . S
H1079 C1088 0.929 . S
C1080 H1074 0.930 . S
C1080 C1081 1.367 1_455 S
C1080 C1088 1.378 . S
C1081 C1080 1.367 1_655 S
C1081 C1089 1.433 . S
C1082 H1078 0.929 . S
C1082 C1084 1.378 . S
C1082 C1086 1.350 . S
C1083 C1086 1.463 . S
C1083 C1088 1.350 . S
C1083 N1091 1.427 1_455 S
C1084 H1075 0.930 . S
C1084 C1082 1.378 . S
C1084 C1085 1.367 . S
C1085 C1084 1.367 . S
C1085 C1087 1.433 . S
C1086 C1082 1.350 . S
C1086 C1083 1.463 . S
C1086 N1090 1.427 . S
C1087 H1077 0.929 . S
C1087 C1085 1.433 . S
C1087 N1090 1.384 . S
C1088 H1079 0.929 . S
C1088 C1080 1.378 . S
C1088 C1083 1.350 . S
C1089 H1076 0.929 . S
C1089 C1081 1.433 . S
C1089 N1091 1.384 . S
N1090 C1086 1.427 . S
N1090 C1087 1.384 . S
N1091 C1083 1.427 1_655 S
N1091 C1089 1.384 . S
H1092 C1098 0.930 . S
H1093 C1102 0.930 . S
H1094 C1107 0.929 . S
H1095 C1105 0.929 . S
H1096 C1100 0.929 . S
H1097 C1106 0.929 . S
C1098 H1092 0.930 . S
C1098 C1099 1.367 . S
C1098 C1106 1.378 . S
C1099 C1098 1.367 . S
C1099 C1107 1.433 . S
C1100 H1096 0.929 . S
C1100 C1102 1.378 . S
C1100 C1104 1.350 . S
C1101 C1104 1.463 . S
C1101 C1106 1.350 . S
C1101 N1109 1.427 . S
C1102 H1093 0.930 . S
C1102 C1100 1.378 . S
C1102 C1103 1.367 . S
C1103 C1102 1.367 . S
C1103 C1105 1.433 . S
C1104 C1100 1.350 . S
C1104 C1101 1.463 . S
C1104 N1108 1.427 . S
C1105 H1095 0.929 . S
C1105 C1103 1.433 . S
C1105 N1108 1.384 . S
C1106 H1097 0.929 . S
C1106 C1098 1.378 . S
C1106 C1101 1.350 . S
C1107 H1094 0.929 . S
C1107 C1099 1.433 . S
C1107 N1109 1.384 . S
N1108 C1104 1.427 . S
N1108 C1105 1.384 . S
N1109 C1101 1.427 . S
N1109 C1107 1.384 . S
H1110 C1116 0.930 . S
H1111 C1120 0.930 . S
H1112 C1125 0.929 . S
H1113 C1123 0.929 . S
H1114 C1118 0.929 . S
H1115 C1124 0.929 . S
C1116 H1110 0.930 . S
C1116 C1117 1.367 . S
C1116 C1124 1.378 . S
C1117 C1116 1.367 . S
C1117 C1125 1.433 . S
C1118 H1114 0.929 . S
C1118 C1120 1.378 . S
C1118 C1122 1.350 . S
C1119 C1122 1.463 . S
C1119 C1124 1.350 . S
C1119 N1127 1.427 . S
C1120 H1111 0.930 . S
C1120 C1118 1.378 . S
C1120 C1121 1.367 . S
C1121 C1120 1.367 . S
C1121 C1123 1.433 . S
C1122 C1118 1.350 . S
C1122 C1119 1.463 . S
C1122 N1126 1.427 . S
C1123 H1113 0.929 . S
C1123 C1121 1.433 . S
C1123 N1126 1.384 . S
C1124 H1115 0.929 . S
C1124 C1116 1.378 . S
C1124 C1119 1.350 . S
C1125 H1112 0.929 . S
C1125 C1117 1.433 . S
C1125 N1127 1.384 . S
N1126 C1122 1.427 . S
N1126 C1123 1.384 . S
N1127 C1119 1.427 . S
N1127 C1125 1.384 . S
H1128 C1134 0.930 . S
H1129 C1138 0.930 . S
H1130 C1143 0.929 . S
H1131 C1141 0.929 . S
H1132 C1136 0.929 . S
H1133 C1142 0.929 . S
C1134 H1128 0.930 . S
C1134 C1135 1.367 . S
C1134 C1142 1.378 . S
C1135 C1134 1.367 . S
C1135 C1143 1.433 . S
C1136 H1132 0.929 . S
C1136 C1138 1.378 . S
C1136 C1140 1.350 . S
C1137 C1140 1.463 . S
C1137 C1142 1.350 . S
C1137 N1145 1.427 . S
C1138 H1129 0.930 . S
C1138 C1136 1.378 . S
C1138 C1139 1.367 . S
C1139 C1138 1.367 . S
C1139 C1141 1.433 . S
C1140 C1136 1.350 . S
C1140 C1137 1.463 . S
C1140 N1144 1.427 . S
C1141 H1131 0.929 . S
C1141 C1139 1.433 . S
C1141 N1144 1.384 . S
C1142 H1133 0.929 . S
C1142 C1134 1.378 . S
C1142 C1137 1.350 . S
C1143 H1130 0.929 . S
C1143 C1135 1.433 . S
C1143 N1145 1.384 . S
N1144 C1140 1.427 . S
N1144 C1141 1.384 . S
N1145 C1137 1.427 . S
N1145 C1143 1.384 . S
H1146 C1152 0.930 . S
H1147 C1156 0.930 . S
H1148 C1161 0.929 . S
H1149 C1159 0.929 . S
H1150 C1154 0.929 . S
H1151 C1160 0.929 . S
C1152 H1146 0.930 . S
C1152 C1153 1.367 . S
C1152 C1160 1.378 . S
C1153 C1152 1.367 . S
C1153 C1161 1.433 . S
C1154 H1150 0.929 . S
C1154 C1156 1.378 . S
C1154 C1158 1.350 . S
C1155 C1158 1.463 . S
C1155 C1160 1.350 . S
C1155 N1163 1.427 . S
C1156 H1147 0.930 . S
C1156 C1154 1.378 . S
C1156 C1157 1.367 . S
C1157 C1156 1.367 . S
C1157 C1159 1.433 . S
C1158 C1154 1.350 . S
C1158 C1155 1.463 . S
C1158 N1162 1.427 . S
C1159 H1149 0.929 . S
C1159 C1157 1.433 . S
C1159 N1162 1.384 . S
C1160 H1151 0.929 . S
C1160 C1152 1.378 . S
C1160 C1155 1.350 . S
C1161 H1148 0.929 . S
C1161 C1153 1.433 . S
C1161 N1163 1.384 . S
N1162 C1158 1.427 . S
N1162 C1159 1.384 . S
N1163 C1155 1.427 . S
N1163 C1161 1.384 . S
H1164 C1170 0.930 . S
H1165 C1174 0.930 . S
H1166 C1179 0.929 . S
H1167 C1177 0.929 . S
H1168 C1172 0.929 . S
H1169 C1178 0.929 . S
C1170 H1164 0.930 . S
C1170 C1171 1.367 . S
C1170 C1178 1.378 . S
C1171 C1170 1.367 . S
C1171 C1179 1.433 . S
C1172 H1168 0.929 . S
C1172 C1174 1.378 . S
C1172 C1176 1.350 . S
C1173 C1176 1.463 . S
C1173 C1178 1.350 . S
C1173 N1181 1.427 . S
C1174 H1165 0.930 . S
C1174 C1172 1.378 . S
C1174 C1175 1.367 . S
C1175 C1174 1.367 . S
C1175 C1177 1.433 . S
C1176 C1172 1.350 . S
C1176 C1173 1.463 . S
C1176 N1180 1.427 . S
C1177 H1167 0.929 . S
C1177 C1175 1.433 . S
C1177 N1180 1.384 . S
C1178 H1169 0.929 . S
C1178 C1170 1.378 . S
C1178 C1173 1.350 . S
C1179 H1166 0.929 . S
C1179 C1171 1.433 . S
C1179 N1181 1.384 . S
N1180 C1176 1.427 . S
N1180 C1177 1.384 . S
N1181 C1173 1.427 . S
N1181 C1179 1.384 . S
H1182 C1188 0.930 . S
H1183 C1192 0.930 . S
H1184 C1197 0.929 . S
H1185 C1195 0.929 . S
H1186 C1190 0.929 . S
H1187 C1196 0.929 . S
C1188 H1182 0.930 . S
C1188 C1189 1.367 . S
C1188 C1196 1.378 . S
C1189 C1188 1.367 . S
C1189 C1197 1.433 . S
C1190 H1186 0.929 . S
C1190 C1192 1.378 . S
C1190 C1194 1.350 . S
C1191 C1194 1.463 . S
C1191 C1196 1.350 . S
C1191 N1199 1.427 . S
C1192 H1183 0.930 . S
C1192 C1190 1.378 . S
C1192 C1193 1.367 1_455 S
C1193 C1192 1.367 1_655 S
C1193 C1195 1.433 . S
C1194 C1190 1.350 . S
C1194 C1191 1.463 . S
C1194 N1198 1.427 1_455 S
C1195 H1185 0.929 . S
C1195 C1193 1.433 . S
C1195 N1198 1.384 . S
C1196 H1187 0.929 . S
C1196 C1188 1.378 . S
C1196 C1191 1.350 . S
C1197 H1184 0.929 . S
C1197 C1189 1.433 . S
C1197 N1199 1.384 . S
N1198 C1194 1.427 1_655 S
N1198 C1195 1.384 . S
N1199 C1191 1.427 . S
N1199 C1197 1.384 . S
H1200 C1206 0.930 . S
H1201 C1210 0.930 . S
H1202 C1215 0.929 . S
H1203 C1213 0.929 . S
H1204 C1208 0.929 . S
H1205 C1214 0.929 . S
C1206 H1200 0.930 . S
C1206 C1207 1.367 . S
C1206 C1214 1.378 . S
C1207 C1206 1.367 . S
C1207 C1215 1.433 . S
C1208 H1204 0.929 . S
C1208 C1210 1.378 . S
C1208 C1212 1.350 . S
C1209 C1212 1.463 . S
C1209 C1214 1.350 . S
C1209 N1217 1.427 . S
C1210 H1201 0.930 . S
C1210 C1208 1.378 . S
C1210 C1211 1.367 . S
C1211 C1210 1.367 . S
C1211 C1213 1.433 . S
C1212 C1208 1.350 . S
C1212 C1209 1.463 . S
C1212 N1216 1.427 . S
C1213 H1203 0.929 . S
C1213 C1211 1.433 . S
C1213 N1216 1.384 . S
C1214 H1205 0.929 . S
C1214 C1206 1.378 . S
C1214 C1209 1.350 . S
C1215 H1202 0.929 . S
C1215 C1207 1.433 . S
C1215 N1217 1.384 . S
N1216 C1212 1.427 . S
N1216 C1213 1.384 . S
N1217 C1209 1.427 . S
N1217 C1215 1.384 . S
H1218 C1224 0.930 . S
H1219 C1228 0.930 . S
H1220 C1233 0.929 . S
H1221 C1231 0.929 . S
H1222 C1226 0.929 . S
H1223 C1232 0.929 . S
C1224 H1218 0.930 . S
C1224 C1225 1.367 . S
C1224 C1232 1.378 1_455 S
C1225 C1224 1.367 . S
C1225 C1233 1.433 . S
C1226 H1222 0.929 . S
C1226 C1228 1.378 . S
C1226 C1230 1.350 . S
C1227 C1230 1.463 . S
C1227 C1232 1.350 . S
C1227 N1235 1.427 . S
C1228 H1219 0.930 . S
C1228 C1226 1.378 . S
C1228 C1229 1.367 . S
C1229 C1228 1.367 . S
C1229 C1231 1.433 . S
C1230 C1226 1.350 . S
C1230 C1227 1.463 . S
C1230 N1234 1.427 . S
C1231 H1221 0.929 . S
C1231 C1229 1.433 . S
C1231 N1234 1.384 . S
C1232 H1223 0.929 . S
C1232 C1224 1.378 1_655 S
C1232 C1227 1.350 . S
C1233 H1220 0.929 . S
C1233 C1225 1.433 . S
C1233 N1235 1.384 1_455 S
N1234 C1230 1.427 . S
N1234 C1231 1.384 . S
N1235 C1227 1.427 . S
N1235 C1233 1.384 1_655 S
H1236 C1242 0.930 . S
H1237 C1246 0.930 . S
H1238 C1251 0.929 . S
H1239 C1249 0.929 . S
H1240 C1244 0.929 . S
H1241 C1250 0.929 . S
C1242 H1236 0.930 . S
C1242 C1243 1.367 . S
C1242 C1250 1.378 . S
C1243 C1242 1.367 . S
C1243 C1251 1.433 . S
C1244 H1240 0.929 . S
C1244 C1246 1.378 . S
C1244 C1248 1.350 . S
C1245 C1248 1.463 . S
C1245 C1250 1.350 . S
C1245 N1253 1.427 . S
C1246 H1237 0.930 . S
C1246 C1244 1.378 . S
C1246 C1247 1.367 . S
C1247 C1246 1.367 . S
C1247 C1249 1.433 . S
C1248 C1244 1.350 . S
C1248 C1245 1.463 . S
C1248 N1252 1.427 . S
C1249 H1239 0.929 . S
C1249 C1247 1.433 . S
C1249 N1252 1.384 . S
C1250 H1241 0.929 . S
C1250 C1242 1.378 . S
C1250 C1245 1.350 . S
C1251 H1238 0.929 . S
C1251 C1243 1.433 . S
C1251 N1253 1.384 . S
N1252 C1248 1.427 . S
N1252 C1249 1.384 . S
N1253 C1245 1.427 . S
N1253 C1251 1.384 . S
H1254 C1260 0.930 . S
H1255 C1264 0.930 . S
H1256 C1269 0.929 . S
H1257 C1267 0.929 . S
H1258 C1262 0.929 . S
H1259 C1268 0.929 . S
C1260 H1254 0.930 . S
C1260 C1261 1.367 . S
C1260 C1268 1.378 . S
C1261 C1260 1.367 . S
C1261 C1269 1.433 . S
C1262 H1258 0.929 . S
C1262 C1264 1.378 . S
C1262 C1266 1.350 . S
C1263 C1266 1.463 . S
C1263 C1268 1.350 . S
C1263 N1271 1.427 . S
C1264 H1255 0.930 . S
C1264 C1262 1.378 . S
C1264 C1265 1.367 . S
C1265 C1264 1.367 . S
C1265 C1267 1.433 . S
C1266 C1262 1.350 . S
C1266 C1263 1.463 . S
C1266 N1270 1.427 . S
C1267 H1257 0.929 . S
C1267 C1265 1.433 . S
C1267 N1270 1.384 . S
C1268 H1259 0.929 . S
C1268 C1260 1.378 . S
C1268 C1263 1.350 . S
C1269 H1256 0.929 . S
C1269 C1261 1.433 . S
C1269 N1271 1.384 . S
N1270 C1266 1.427 . S
N1270 C1267 1.384 . S
N1271 C1263 1.427 . S
N1271 C1269 1.384 . S
H1272 C1278 0.930 . S
H1273 C1282 0.930 . S
H1274 C1287 0.929 . S
H1275 C1285 0.929 . S
H1276 C1280 0.929 . S
H1277 C1286 0.929 . S
C1278 H1272 0.930 . S
C1278 C1279 1.367 . S
C1278 C1286 1.378 . S
C1279 C1278 1.367 . S
C1279 C1287 1.433 . S
C1280 H1276 0.929 . S
C1280 C1282 1.378 . S
C1280 C1284 1.350 . S
C1281 C1284 1.463 . S
C1281 C1286 1.350 . S
C1281 N1289 1.427 . S
C1282 H1273 0.930 . S
C1282 C1280 1.378 . S
C1282 C1283 1.367 . S
C1283 C1282 1.367 . S
C1283 C1285 1.433 . S
C1284 C1280 1.350 . S
C1284 C1281 1.463 . S
C1284 N1288 1.427 . S
C1285 H1275 0.929 . S
C1285 C1283 1.433 . S
C1285 N1288 1.384 . S
C1286 H1277 0.929 . S
C1286 C1278 1.378 . S
C1286 C1281 1.350 . S
C1287 H1274 0.929 . S
C1287 C1279 1.433 . S
C1287 N1289 1.384 . S
N1288 C1284 1.427 . S
N1288 C1285 1.384 . S
N1289 C1281 1.427 . S
N1289 C1287 1.384 . S
H1290 C1296 0.930 . S
H1291 C1300 0.930 . S
H1292 C1305 0.929 . S
H1293 C1303 0.929 . S
H1294 C1298 0.929 . S
H1295 C1304 0.929 . S
C1296 H1290 0.930 . S
C1296 C1297 1.367 . S
C1296 C1304 1.378 . S
C1297 C1296 1.367 . S
C1297 C1305 1.433 . S
C1298 H1294 0.929 . S
C1298 C1300 1.378 . S
C1298 C1302 1.350 . S
C1299 C1302 1.463 . S
C1299 C1304 1.350 . S
C1299 N1307 1.427 . S
C1300 H1291 0.930 . S
C1300 C1298 1.378 . S
C1300 C1301 1.367 . S
C1301 C1300 1.367 . S
C1301 C1303 1.433 . S
C1302 C1298 1.350 . S
C1302 C1299 1.463 . S
C1302 N1306 1.427 . S
C1303 H1293 0.929 . S
C1303 C1301 1.433 . S
C1303 N1306 1.384 . S
C1304 H1295 0.929 . S
C1304 C1296 1.378 . S
C1304 C1299 1.350 . S
C1305 H1292 0.929 . S
C1305 C1297 1.433 . S
C1305 N1307 1.384 . S
N1306 C1302 1.427 . S
N1306 C1303 1.384 . S
N1307 C1299 1.427 . S
N1307 C1305 1.384 . S
H1308 C1314 0.930 . S
H1309 C1318 0.930 . S
H1310 C1323 0.929 . S
H1311 C1321 0.929 . S
H1312 C1316 0.929 . S
H1313 C1322 0.929 . S
C1314 H1308 0.930 . S
C1314 C1315 1.367 . S
C1314 C1322 1.378 . S
C1315 C1314 1.367 . S
C1315 C1323 1.433 . S
C1316 H1312 0.929 . S
C1316 C1318 1.378 . S
C1316 C1320 1.350 . S
C1317 C1320 1.463 . S
C1317 C1322 1.350 . S
C1317 N1325 1.427 . S
C1318 H1309 0.930 . S
C1318 C1316 1.378 . S
C1318 C1319 1.367 . S
C1319 C1318 1.367 . S
C1319 C1321 1.433 . S
C1320 C1316 1.350 . S
C1320 C1317 1.463 . S
C1320 N1324 1.427 . S
C1321 H1311 0.929 . S
C1321 C1319 1.433 . S
C1321 N1324 1.384 . S
C1322 H1313 0.929 . S
C1322 C1314 1.378 . S
C1322 C1317 1.350 . S
C1323 H1310 0.929 . S
C1323 C1315 1.433 . S
C1323 N1325 1.384 . S
N1324 C1320 1.427 . S
N1324 C1321 1.384 . S
N1325 C1317 1.427 . S
N1325 C1323 1.384 . S
H1326 C1332 0.930 . S
H1327 C1336 0.930 . S
H1328 C1341 0.929 . S
H1329 C1339 0.929 . S
H1330 C1334 0.929 . S
H1331 C1340 0.929 . S
C1332 H1326 0.930 . S
C1332 C1333 1.367 . S
C1332 C1340 1.378 1_455 S
C1333 C1332 1.367 . S
C1333 C1341 1.433 1_455 S
C1334 H1330 0.929 . S
C1334 C1336 1.378 . S
C1334 C1338 1.350 . S
C1335 C1338 1.463 . S
C1335 C1340 1.350 . S
C1335 N1343 1.427 . S
C1336 H1327 0.930 . S
C1336 C1334 1.378 . S
C1336 C1337 1.367 . S
C1337 C1336 1.367 . S
C1337 C1339 1.433 . S
C1338 C1334 1.350 . S
C1338 C1335 1.463 . S
C1338 N1342 1.427 . S
C1339 H1329 0.929 . S
C1339 C1337 1.433 . S
C1339 N1342 1.384 . S
C1340 H1331 0.929 . S
C1340 C1332 1.378 1_655 S
C1340 C1335 1.350 . S
C1341 H1328 0.929 . S
C1341 C1333 1.433 1_655 S
C1341 N1343 1.384 . S
N1342 C1338 1.427 . S
N1342 C1339 1.384 . S
N1343 C1335 1.427 . S
N1343 C1341 1.384 . S
H1344 C1350 0.930 . S
H1345 C1354 0.930 . S
H1346 C1359 0.929 . S
H1347 C1357 0.929 . S
H1348 C1352 0.929 . S
H1349 C1358 0.929 . S
C1350 H1344 0.930 . S
C1350 C1351 1.367 . S
C1350 C1358 1.378 . S
C1351 C1350 1.367 . S
C1351 C1359 1.433 . S
C1352 H1348 0.929 . S
C1352 C1354 1.378 . S
C1352 C1356 1.350 . S
C1353 C1356 1.463 . S
C1353 C1358 1.350 . S
C1353 N1361 1.427 . S
C1354 H1345 0.930 . S
C1354 C1352 1.378 . S
C1354 C1355 1.367 . S
C1355 C1354 1.367 . S
C1355 C1357 1.433 . S
C1356 C1352 1.350 . S
C1356 C1353 1.463 . S
C1356 N1360 1.427 . S
C1357 H1347 0.929 . S
C1357 C1355 1.433 . S
C1357 N1360 1.384 . S
C1358 H1349 0.929 . S
C1358 C1350 1.378 . S
C1358 C1353 1.350 . S
C1359 H1346 0.929 . S
C1359 C1351 1.433 . S
C1359 N1361 1.384 . S
N1360 C1356 1.427 . S
N1360 C1357 1.384 . S
N1361 C1353 1.427 . S
N1361 C1359 1.384 . S
H1362 C1368 0.930 . S
H1363 C1372 0.930 . S
H1364 C1377 0.929 . S
H1365 C1375 0.929 . S
H1366 C1370 0.929 . S
H1367 C1376 0.929 . S
C1368 H1362 0.930 . S
C1368 C1369 1.367 . S
C1368 C1376 1.378 . S
C1369 C1368 1.367 . S
C1369 C1377 1.433 . S
C1370 H1366 0.929 . S
C1370 C1372 1.378 . S
C1370 C1374 1.350 . S
C1371 C1374 1.463 . S
C1371 C1376 1.350 . S
C1371 N1379 1.427 . S
C1372 H1363 0.930 . S
C1372 C1370 1.378 . S
C1372 C1373 1.367 . S
C1373 C1372 1.367 . S
C1373 C1375 1.433 . S
C1374 C1370 1.350 . S
C1374 C1371 1.463 . S
C1374 N1378 1.427 . S
C1375 H1365 0.929 . S
C1375 C1373 1.433 . S
C1375 N1378 1.384 . S
C1376 H1367 0.929 . S
C1376 C1368 1.378 . S
C1376 C1371 1.350 . S
C1377 H1364 0.929 . S
C1377 C1369 1.433 . S
C1377 N1379 1.384 . S
N1378 C1374 1.427 . S
N1378 C1375 1.384 . S
N1379 C1371 1.427 . S
N1379 C1377 1.384 . S
H1380 C1386 0.930 . S
H1381 C1390 0.930 . S
H1382 C1395 0.929 . S
H1383 C1393 0.929 . S
H1384 C1388 0.929 . S
H1385 C1394 0.929 . S
C1386 H1380 0.930 . S
C1386 C1387 1.367 . S
C1386 C1394 1.378 . S
C1387 C1386 1.367 . S
C1387 C1395 1.433 . S
C1388 H1384 0.929 . S
C1388 C1390 1.378 . S
C1388 C1392 1.350 . S
C1389 C1392 1.463 . S
C1389 C1394 1.350 . S
C1389 N1397 1.427 . S
C1390 H1381 0.930 . S
C1390 C1388 1.378 . S
C1390 C1391 1.367 . S
C1391 C1390 1.367 . S
C1391 C1393 1.433 . S
C1392 C1388 1.350 . S
C1392 C1389 1.463 . S
C1392 N1396 1.427 . S
C1393 H1383 0.929 . S
C1393 C1391 1.433 . S
C1393 N1396 1.384 . S
C1394 H1385 0.929 . S
C1394 C1386 1.378 . S
C1394 C1389 1.350 . S
C1395 H1382 0.929 . S
C1395 C1387 1.433 . S
C1395 N1397 1.384 . S
N1396 C1392 1.427 . S
N1396 C1393 1.384 . S
N1397 C1389 1.427 . S
N1397 C1395 1.384 . S
H1398 C1404 0.930 . S
H1399 C1408 0.930 . S
H1400 C1413 0.929 . S
H1401 C1411 0.929 . S
H1402 C1406 0.929 . S
H1403 C1412 0.929 . S
C1404 H1398 0.930 . S
C1404 C1405 1.367 . S
C1404 C1412 1.378 . S
C1405 C1404 1.367 . S
C1405 C1413 1.433 . S
C1406 H1402 0.929 . S
C1406 C1408 1.378 1_655 S
C1406 C1410 1.350 . S
C1407 C1410 1.463 . S
C1407 C1412 1.350 . S
C1407 N1415 1.427 . S
C1408 H1399 0.930 . S
C1408 C1406 1.378 1_455 S
C1408 C1409 1.367 . S
C1409 C1408 1.367 . S
C1409 C1411 1.433 1_455 S
C1410 C1406 1.350 . S
C1410 C1407 1.463 . S
C1410 N1414 1.427 . S
C1411 H1401 0.929 . S
C1411 C1409 1.433 1_655 S
C1411 N1414 1.384 . S
C1412 H1403 0.929 . S
C1412 C1404 1.378 . S
C1412 C1407 1.350 . S
C1413 H1400 0.929 . S
C1413 C1405 1.433 . S
C1413 N1415 1.384 . S
N1414 C1410 1.427 . S
N1414 C1411 1.384 . S
N1415 C1407 1.427 . S
N1415 C1413 1.384 . S
H1416 C1422 0.930 . S
H1417 C1426 0.930 . S
H1418 C1431 0.929 . S
H1419 C1429 0.929 . S
H1420 C1424 0.929 . S
H1421 C1430 0.929 . S
C1422 H1416 0.930 . S
C1422 C1423 1.367 . S
C1422 C1430 1.378 . S
C1423 C1422 1.367 . S
C1423 C1431 1.433 . S
C1424 H1420 0.929 . S
C1424 C1426 1.378 . S
C1424 C1428 1.350 . S
C1425 C1428 1.463 . S
C1425 C1430 1.350 . S
C1425 N1433 1.427 . S
C1426 H1417 0.930 . S
C1426 C1424 1.378 . S
C1426 C1427 1.367 . S
C1427 C1426 1.367 . S
C1427 C1429 1.433 . S
C1428 C1424 1.350 . S
C1428 C1425 1.463 . S
C1428 N1432 1.427 . S
C1429 H1419 0.929 . S
C1429 C1427 1.433 . S
C1429 N1432 1.384 . S
C1430 H1421 0.929 . S
C1430 C1422 1.378 . S
C1430 C1425 1.350 . S
C1431 H1418 0.929 . S
C1431 C1423 1.433 . S
C1431 N1433 1.384 . S
N1432 C1428 1.427 . S
N1432 C1429 1.384 . S
N1433 C1425 1.427 . S
N1433 C1431 1.384 . S
H1434 C1440 0.930 . S
H1435 C1444 0.930 . S
H1436 C1449 0.929 . S
H1437 C1447 0.929 . S
H1438 C1442 0.929 . S
H1439 C1448 0.929 . S
C1440 H1434 0.930 . S
C1440 C1441 1.367 . S
C1440 C1448 1.378 1_455 S
C1441 C1440 1.367 . S
C1441 C1449 1.433 . S
C1442 H1438 0.929 . S
C1442 C1444 1.378 . S
C1442 C1446 1.350 . S
C1443 C1446 1.463 . S
C1443 C1448 1.350 . S
C1443 N1451 1.427 . S
C1444 H1435 0.930 . S
C1444 C1442 1.378 . S
C1444 C1445 1.367 . S
C1445 C1444 1.367 . S
C1445 C1447 1.433 . S
C1446 C1442 1.350 . S
C1446 C1443 1.463 . S
C1446 N1450 1.427 . S
C1447 H1437 0.929 . S
C1447 C1445 1.433 . S
C1447 N1450 1.384 . S
C1448 H1439 0.929 . S
C1448 C1440 1.378 1_655 S
C1448 C1443 1.350 . S
C1449 H1436 0.929 . S
C1449 C1441 1.433 . S
C1449 N1451 1.384 1_455 S
N1450 C1446 1.427 . S
N1450 C1447 1.384 . S
N1451 C1443 1.427 . S
N1451 C1449 1.384 1_655 S
H1452 C1458 0.930 . S
H1453 C1462 0.930 . S
H1454 C1467 0.929 . S
H1455 C1465 0.929 . S
H1456 C1460 0.929 . S
H1457 C1466 0.929 . S
C1458 H1452 0.930 . S
C1458 C1459 1.367 . S
C1458 C1466 1.378 . S
C1459 C1458 1.367 . S
C1459 C1467 1.433 . S
C1460 H1456 0.929 . S
C1460 C1462 1.378 . S
C1460 C1464 1.350 . S
C1461 C1464 1.463 . S
C1461 C1466 1.350 . S
C1461 N1469 1.427 . S
C1462 H1453 0.930 . S
C1462 C1460 1.378 . S
C1462 C1463 1.367 . S
C1463 C1462 1.367 . S
C1463 C1465 1.433 . S
C1464 C1460 1.350 . S
C1464 C1461 1.463 . S
C1464 N1468 1.427 . S
C1465 H1455 0.929 . S
C1465 C1463 1.433 . S
C1465 N1468 1.384 . S
C1466 H1457 0.929 . S
C1466 C1458 1.378 . S
C1466 C1461 1.350 . S
C1467 H1454 0.929 . S
C1467 C1459 1.433 . S
C1467 N1469 1.384 . S
N1468 C1464 1.427 . S
N1468 C1465 1.384 . S
N1469 C1461 1.427 . S
N1469 C1467 1.384 . S
H1470 C1476 0.930 . S
H1471 C1480 0.930 . S
H1472 C1485 0.929 . S
H1473 C1483 0.929 . S
H1474 C1478 0.929 . S
H1475 C1484 0.929 . S
C1476 H1470 0.930 . S
C1476 C1477 1.367 . S
C1476 C1484 1.378 . S
C1477 C1476 1.367 . S
C1477 C1485 1.433 . S
C1478 H1474 0.929 . S
C1478 C1480 1.378 . S
C1478 C1482 1.350 . S
C1479 C1482 1.463 . S
C1479 C1484 1.350 . S
C1479 N1487 1.427 . S
C1480 H1471 0.930 . S
C1480 C1478 1.378 . S
C1480 C1481 1.367 . S
C1481 C1480 1.367 . S
C1481 C1483 1.433 . S
C1482 C1478 1.350 . S
C1482 C1479 1.463 . S
C1482 N1486 1.427 . S
C1483 H1473 0.929 . S
C1483 C1481 1.433 . S
C1483 N1486 1.384 . S
C1484 H1475 0.929 . S
C1484 C1476 1.378 . S
C1484 C1479 1.350 . S
C1485 H1472 0.929 . S
C1485 C1477 1.433 . S
C1485 N1487 1.384 . S
N1486 C1482 1.427 . S
N1486 C1483 1.384 . S
N1487 C1479 1.427 . S
N1487 C1485 1.384 . S
H1488 C1494 0.930 . S
H1489 C1498 0.930 . S
H1490 C1503 0.929 . S
H1491 C1501 0.929 . S
H1492 C1496 0.929 . S
H1493 C1502 0.929 . S
C1494 H1488 0.930 . S
C1494 C1495 1.367 . S
C1494 C1502 1.378 . S
C1495 C1494 1.367 . S
C1495 C1503 1.433 . S
C1496 H1492 0.929 . S
C1496 C1498 1.378 . S
C1496 C1500 1.350 . S
C1497 C1500 1.463 . S
C1497 C1502 1.350 . S
C1497 N1505 1.427 . S
C1498 H1489 0.930 . S
C1498 C1496 1.378 . S
C1498 C1499 1.367 . S
C1499 C1498 1.367 . S
C1499 C1501 1.433 . S
C1500 C1496 1.350 . S
C1500 C1497 1.463 . S
C1500 N1504 1.427 . S
C1501 H1491 0.929 . S
C1501 C1499 1.433 . S
C1501 N1504 1.384 . S
C1502 H1493 0.929 . S
C1502 C1494 1.378 . S
C1502 C1497 1.350 . S
C1503 H1490 0.929 . S
C1503 C1495 1.433 . S
C1503 N1505 1.384 . S
N1504 C1500 1.427 . S
N1504 C1501 1.384 . S
N1505 C1497 1.427 . S
N1505 C1503 1.384 . S
H1506 C1512 0.930 . S
H1507 C1516 0.930 . S
H1508 C1521 0.929 . S
H1509 C1519 0.929 . S
H1510 C1514 0.929 . S
H1511 C1520 0.929 . S
C1512 H1506 0.930 . S
C1512 C1513 1.367 . S
C1512 C1520 1.378 . S
C1513 C1512 1.367 . S
C1513 C1521 1.433 . S
C1514 H1510 0.929 . S
C1514 C1516 1.378 . S
C1514 C1518 1.350 . S
C1515 C1518 1.463 . S
C1515 C1520 1.350 . S
C1515 N1523 1.427 . S
C1516 H1507 0.930 . S
C1516 C1514 1.378 . S
C1516 C1517 1.367 . S
C1517 C1516 1.367 . S
C1517 C1519 1.433 . S
C1518 C1514 1.350 . S
C1518 C1515 1.463 . S
C1518 N1522 1.427 . S
C1519 H1509 0.929 . S
C1519 C1517 1.433 . S
C1519 N1522 1.384 . S
C1520 H1511 0.929 . S
C1520 C1512 1.378 . S
C1520 C1515 1.350 . S
C1521 H1508 0.929 . S
C1521 C1513 1.433 . S
C1521 N1523 1.384 . S
N1522 C1518 1.427 . S
N1522 C1519 1.384 . S
N1523 C1515 1.427 . S
N1523 C1521 1.384 . S
H1524 C1530 0.930 . S
H1525 C1534 0.930 . S
H1526 C1539 0.929 . S
H1527 C1537 0.929 . S
H1528 C1532 0.929 . S
H1529 C1538 0.929 . S
C1530 H1524 0.930 . S
C1530 C1531 1.367 . S
C1530 C1538 1.378 . S
C1531 C1530 1.367 . S
C1531 C1539 1.433 . S
C1532 H1528 0.929 . S
C1532 C1534 1.378 . S
C1532 C1536 1.350 . S
C1533 C1536 1.463 . S
C1533 C1538 1.350 . S
C1533 N1541 1.427 . S
C1534 H1525 0.930 . S
C1534 C1532 1.378 . S
C1534 C1535 1.367 . S
C1535 C1534 1.367 . S
C1535 C1537 1.433 . S
C1536 C1532 1.350 . S
C1536 C1533 1.463 . S
C1536 N1540 1.427 . S
C1537 H1527 0.929 . S
C1537 C1535 1.433 . S
C1537 N1540 1.384 . S
C1538 H1529 0.929 . S
C1538 C1530 1.378 . S
C1538 C1533 1.350 . S
C1539 H1526 0.929 . S
C1539 C1531 1.433 . S
C1539 N1541 1.384 . S
N1540 C1536 1.427 . S
N1540 C1537 1.384 . S
N1541 C1533 1.427 . S
N1541 C1539 1.384 . S
H1542 C1548 0.930 . S
H1543 C1552 0.930 . S
H1544 C1557 0.929 . S
H1545 C1555 0.926 1_655 S
H1546 C1550 0.929 . S
H1547 C1556 0.929 . S
C1548 H1542 0.930 . S
C1548 C1549 1.367 . S
C1548 C1556 1.378 . S
C1549 C1548 1.367 . S
C1549 C1557 1.433 . S
C1550 H1546 0.929 . S
C1550 C1552 1.378 1_455 S
C1550 C1554 1.350 . S
C1551 C1554 1.463 . S
C1551 C1556 1.350 . S
C1551 N1559 1.427 . S
C1552 H1543 0.930 . S
C1552 C1550 1.378 1_655 S
C1552 C1553 1.367 . S
C1553 C1552 1.367 . S
C1553 C1555 1.408 1_655 S
C1554 C1550 1.350 . S
C1554 C1551 1.463 . S
C1554 N1558 1.427 . S
C1555 H1545 0.926 1_455 S
C1555 C1553 1.408 1_455 S
C1555 N1558 1.413 . S
C1556 H1547 0.929 . S
C1556 C1548 1.378 . S
C1556 C1551 1.350 . S
C1557 H1544 0.929 . S
C1557 C1549 1.433 . S
C1557 N1559 1.384 . S
N1558 C1554 1.427 . S
N1558 C1555 1.413 . S
N1559 C1551 1.427 . S
N1559 C1557 1.384 . S
H1560 C1566 0.930 . S
H1561 C1570 0.930 . S
H1562 C1575 0.929 . S
H1563 C1573 0.929 . S
H1564 C1568 0.929 . S
H1565 C1574 0.929 . S
C1566 H1560 0.930 . S
C1566 C1567 1.367 . S
C1566 C1574 1.378 . S
C1567 C1566 1.367 . S
C1567 C1575 1.433 . S
C1568 H1564 0.929 . S
C1568 C1570 1.378 . S
C1568 C1572 1.350 . S
C1569 C1572 1.463 . S
C1569 C1574 1.350 . S
C1569 N1577 1.427 . S
C1570 H1561 0.930 . S
C1570 C1568 1.378 . S
C1570 C1571 1.367 . S
C1571 C1570 1.367 . S
C1571 C1573 1.433 . S
C1572 C1568 1.350 . S
C1572 C1569 1.463 . S
C1572 N1576 1.427 . S
C1573 H1563 0.929 . S
C1573 C1571 1.433 . S
C1573 N1576 1.384 . S
C1574 H1565 0.929 . S
C1574 C1566 1.378 . S
C1574 C1569 1.350 . S
C1575 H1562 0.929 . S
C1575 C1567 1.433 . S
C1575 N1577 1.384 . S
N1576 C1572 1.427 . S
N1576 C1573 1.384 . S
N1577 C1569 1.427 . S
N1577 C1575 1.384 . S
H1578 C1584 0.930 . S
H1579 C1588 0.930 . S
H1580 C1593 0.929 . S
H1581 C1591 0.929 . S
H1582 C1586 0.929 . S
H1583 C1592 0.929 . S
C1584 H1578 0.930 . S
C1584 C1585 1.367 . S
C1584 C1592 1.378 . S
C1585 C1584 1.367 . S
C1585 C1593 1.433 . S
C1586 H1582 0.929 . S
C1586 C1588 1.378 . S
C1586 C1590 1.350 1_655 S
C1587 C1590 1.463 . S
C1587 C1592 1.350 . S
C1587 N1595 1.427 . S
C1588 H1579 0.930 . S
C1588 C1586 1.378 . S
C1588 C1589 1.367 . S
C1589 C1588 1.367 . S
C1589 C1591 1.433 1_655 S
C1590 C1586 1.350 1_455 S
C1590 C1587 1.463 . S
C1590 N1594 1.427 . S
C1591 H1581 0.929 . S
C1591 C1589 1.433 1_455 S
C1591 N1594 1.384 . S
C1592 H1583 0.929 . S
C1592 C1584 1.378 . S
C1592 C1587 1.350 . S
C1593 H1580 0.929 . S
C1593 C1585 1.433 . S
C1593 N1595 1.384 . S
N1594 C1590 1.427 . S
N1594 C1591 1.384 . S
N1595 C1587 1.427 . S
N1595 C1593 1.384 . S
H1596 C1602 0.930 . S
H1597 C1606 0.930 . S
H1598 C1611 0.929 . S
H1599 C1609 0.929 . S
H1600 C1604 0.929 . S
H1601 C1610 0.929 . S
C1602 H1596 0.930 . S
C1602 C1603 1.367 . S
C1602 C1610 1.378 . S
C1603 C1602 1.367 . S
C1603 C1611 1.433 . S
C1604 H1600 0.929 . S
C1604 C1606 1.378 . S
C1604 C1608 1.350 . S
C1605 C1608 1.463 . S
C1605 C1610 1.350 . S
C1605 N1613 1.427 . S
C1606 H1597 0.930 . S
C1606 C1604 1.378 . S
C1606 C1607 1.367 . S
C1607 C1606 1.367 . S
C1607 C1609 1.433 . S
C1608 C1604 1.350 . S
C1608 C1605 1.463 . S
C1608 N1612 1.427 . S
C1609 H1599 0.929 . S
C1609 C1607 1.433 . S
C1609 N1612 1.384 . S
C1610 H1601 0.929 . S
C1610 C1602 1.378 . S
C1610 C1605 1.350 . S
C1611 H1598 0.929 . S
C1611 C1603 1.433 . S
C1611 N1613 1.384 . S
N1612 C1608 1.427 . S
N1612 C1609 1.384 . S
N1613 C1605 1.427 . S
N1613 C1611 1.384 . S
H1614 C1620 0.930 . S
H1615 C1624 0.930 . S
H1616 C1629 0.929 . S
H1617 C1627 0.929 . S
H1618 C1622 0.929 . S
H1619 C1628 0.929 . S
C1620 H1614 0.930 . S
C1620 C1621 1.367 . S
C1620 C1628 1.378 . S
C1621 C1620 1.367 . S
C1621 C1629 1.433 . S
C1622 H1618 0.929 . S
C1622 C1624 1.378 . S
C1622 C1626 1.350 . S
C1623 C1626 1.463 . S
C1623 C1628 1.350 . S
C1623 N1631 1.427 . S
C1624 H1615 0.930 . S
C1624 C1622 1.378 . S
C1624 C1625 1.367 . S
C1625 C1624 1.367 . S
C1625 C1627 1.433 . S
C1626 C1622 1.350 . S
C1626 C1623 1.463 . S
C1626 N1630 1.427 . S
C1627 H1617 0.929 . S
C1627 C1625 1.433 . S
C1627 N1630 1.384 . S
C1628 H1619 0.929 . S
C1628 C1620 1.378 . S
C1628 C1623 1.350 . S
C1629 H1616 0.929 . S
C1629 C1621 1.433 . S
C1629 N1631 1.384 . S
N1630 C1626 1.427 . S
N1630 C1627 1.384 . S
N1631 C1623 1.427 . S
N1631 C1629 1.384 . S
H1632 C1638 0.936 . S
H1633 C1642 0.930 . S
H1634 C1647 0.929 . S
H1635 C1645 0.929 . S
H1636 C1640 0.929 . S
H1637 C1646 0.929 . S
C1638 H1632 0.936 . S
C1638 C1639 1.376 . S
C1638 C1646 1.364 1_545 S
C1639 C1638 1.376 . S
C1639 C1647 1.433 . S
C1640 H1636 0.929 . S
C1640 C1642 1.378 . S
C1640 C1644 1.350 . S
C1641 C1644 1.463 . S
C1641 C1646 1.350 . S
C1641 N1649 1.427 . S
C1642 H1633 0.930 . S
C1642 C1640 1.378 . S
C1642 C1643 1.367 . S
C1643 C1642 1.367 . S
C1643 C1645 1.433 . S
C1644 C1640 1.350 . S
C1644 C1641 1.463 . S
C1644 N1648 1.427 . S
C1645 H1635 0.929 . S
C1645 C1643 1.433 . S
C1645 N1648 1.384 . S
C1646 H1637 0.929 . S
C1646 C1638 1.364 1_565 S
C1646 C1641 1.350 . S
C1647 H1634 0.929 . S
C1647 C1639 1.433 . S
C1647 N1649 1.384 1_545 S
N1648 C1644 1.427 . S
N1648 C1645 1.384 . S
N1649 C1641 1.427 . S
N1649 C1647 1.384 1_565 S
H1650 C1656 0.930 . S
H1651 C1660 0.930 . S
H1652 C1665 0.929 . S
H1653 C1663 0.929 . S
H1654 C1658 0.929 . S
H1655 C1664 0.930 . S
C1656 H1650 0.930 . S
C1656 C1657 1.367 . S
C1656 C1664 1.378 1_545 S
C1657 C1656 1.367 . S
C1657 C1665 1.433 1_545 S
C1658 H1654 0.929 . S
C1658 C1660 1.378 . S
C1658 C1662 1.350 . S
C1659 C1662 1.463 . S
C1659 C1664 1.350 . S
C1659 N1667 1.427 . S
C1660 H1651 0.930 . S
C1660 C1658 1.378 . S
C1660 C1661 1.367 . S
C1661 C1660 1.367 . S
C1661 C1663 1.433 . S
C1662 C1658 1.350 . S
C1662 C1659 1.463 . S
C1662 N1666 1.427 . S
C1663 H1653 0.929 . S
C1663 C1661 1.433 . S
C1663 N1666 1.384 . S
C1664 H1655 0.930 . S
C1664 C1656 1.378 1_565 S
C1664 C1659 1.350 . S
C1665 H1652 0.929 . S
C1665 C1657 1.433 1_565 S
C1665 N1667 1.384 . S
N1666 C1662 1.427 . S
N1666 C1663 1.384 . S
N1667 C1659 1.427 . S
N1667 C1665 1.384 . S
H1668 C1674 0.930 . S
H1669 C1678 0.930 . S
H1670 C1683 0.929 . S
H1671 C1681 0.929 . S
H1672 C1676 0.929 . S
H1673 C1682 0.929 . S
C1674 H1668 0.930 . S
C1674 C1675 1.367 . S
C1674 C1682 1.378 . S
C1675 C1674 1.367 . S
C1675 C1683 1.433 . S
C1676 H1672 0.929 . S
C1676 C1678 1.378 . S
C1676 C1680 1.350 . S
C1677 C1680 1.463 . S
C1677 C1682 1.350 . S
C1677 N1685 1.427 . S
C1678 H1669 0.930 . S
C1678 C1676 1.378 . S
C1678 C1679 1.367 1_545 S
C1679 C1678 1.367 1_565 S
C1679 C1681 1.433 . S
C1680 C1676 1.350 . S
C1680 C1677 1.463 . S
C1680 N1684 1.427 . S
C1681 H1671 0.929 . S
C1681 C1679 1.433 . S
C1681 N1684 1.384 1_565 S
C1682 H1673 0.929 . S
C1682 C1674 1.378 . S
C1682 C1677 1.350 . S
C1683 H1670 0.929 . S
C1683 C1675 1.433 . S
C1683 N1685 1.384 . S
N1684 C1680 1.427 . S
N1684 C1681 1.384 1_545 S
N1685 C1677 1.427 . S
N1685 C1683 1.384 . S
H1686 C1692 0.930 . S
H1687 C1696 0.930 . S
H1688 C1701 0.929 . S
H1689 C1699 0.929 . S
H1690 C1694 0.929 . S
H1691 C1700 0.929 . S
C1692 H1686 0.930 . S
C1692 C1693 1.367 . S
C1692 C1700 1.378 . S
C1693 C1692 1.367 . S
C1693 C1701 1.433 . S
C1694 H1690 0.929 . S
C1694 C1696 1.378 1_545 S
C1694 C1698 1.350 . S
C1695 C1698 1.463 . S
C1695 C1700 1.350 . S
C1695 N1703 1.427 . S
C1696 H1687 0.930 . S
C1696 C1694 1.378 1_565 S
C1696 C1697 1.367 . S
C1697 C1696 1.367 . S
C1697 C1699 1.433 1_565 S
C1698 C1694 1.350 . S
C1698 C1695 1.463 . S
C1698 N1702 1.427 . S
C1699 H1689 0.929 . S
C1699 C1697 1.433 1_545 S
C1699 N1702 1.384 . S
C1700 H1691 0.929 . S
C1700 C1692 1.378 . S
C1700 C1695 1.350 . S
C1701 H1688 0.929 . S
C1701 C1693 1.433 . S
C1701 N1703 1.384 . S
N1702 C1698 1.427 . S
N1702 C1699 1.384 . S
N1703 C1695 1.427 . S
N1703 C1701 1.384 . S
H1704 C1710 0.930 . S
H1705 C1714 0.930 . S
H1706 C1719 0.929 . S
H1707 C1717 0.929 . S
H1708 C1712 0.929 . S
H1709 C1718 0.929 . S
C1710 H1704 0.930 . S
C1710 C1711 1.367 1_545 S
C1710 C1718 1.378 . S
C1711 C1710 1.367 1_565 S
C1711 C1719 1.433 . S
C1712 H1708 0.929 . S
C1712 C1714 1.378 . S
C1712 C1716 1.350 . S
C1713 C1716 1.463 . S
C1713 C1718 1.350 . S
C1713 N1721 1.427 1_545 S
C1714 H1705 0.930 . S
C1714 C1712 1.378 . S
C1714 C1715 1.367 . S
C1715 C1714 1.367 . S
C1715 C1717 1.433 . S
C1716 C1712 1.350 . S
C1716 C1713 1.463 . S
C1716 N1720 1.427 . S
C1717 H1707 0.929 . S
C1717 C1715 1.433 . S
C1717 N1720 1.384 . S
C1718 H1709 0.929 . S
C1718 C1710 1.378 . S
C1718 C1713 1.350 . S
C1719 H1706 0.929 . S
C1719 C1711 1.433 . S
C1719 N1721 1.384 . S
N1720 C1716 1.427 . S
N1720 C1717 1.384 . S
N1721 C1713 1.427 1_565 S
N1721 C1719 1.384 . S
H1722 C1728 0.930 . S
H1723 C1732 0.930 . S
H1724 C1737 0.929 . S
H1725 C1735 0.929 . S
H1726 C1730 0.929 . S
H1727 C1736 0.929 . S
C1728 H1722 0.930 . S
C1728 C1729 1.367 . S
C1728 C1736 1.378 . S
C1729 C1728 1.367 . S
C1729 C1737 1.433 . S
C1730 H1726 0.929 . S
C1730 C1732 1.378 . S
C1730 C1734 1.350 . S
C1731 C1734 1.463 . S
C1731 C1736 1.350 . S
C1731 N1739 1.427 . S
C1732 H1723 0.930 . S
C1732 C1730 1.378 . S
C1732 C1733 1.367 1_545 S
C1733 C1732 1.367 1_565 S
C1733 C1735 1.433 . S
C1734 C1730 1.350 . S
C1734 C1731 1.463 . S
C1734 N1738 1.427 . S
C1735 H1725 0.929 . S
C1735 C1733 1.433 . S
C1735 N1738 1.384 1_565 S
C1736 H1727 0.929 . S
C1736 C1728 1.378 . S
C1736 C1731 1.350 . S
C1737 H1724 0.929 . S
C1737 C1729 1.433 . S
C1737 N1739 1.384 . S
N1738 C1734 1.427 . S
N1738 C1735 1.384 1_545 S
N1739 C1731 1.427 . S
N1739 C1737 1.384 . S
H1740 C1746 0.930 . S
H1741 C1750 0.930 . S
H1742 C1755 0.929 . S
H1743 C1753 0.929 . S
H1744 C1748 0.929 . S
H1745 C1754 0.929 . S
C1746 H1740 0.930 . S
C1746 C1747 1.367 1_565 S
C1746 C1754 1.378 . S
C1747 C1746 1.367 1_545 S
C1747 C1755 1.433 . S
C1748 H1744 0.929 . S
C1748 C1750 1.378 . S
C1748 C1752 1.350 . S
C1749 C1752 1.463 . S
C1749 C1754 1.350 . S
C1749 N1757 1.396 1_565 S
C1750 H1741 0.930 . S
C1750 C1748 1.378 . S
C1750 C1751 1.367 . S
C1751 C1750 1.367 . S
C1751 C1753 1.433 . S
C1752 C1748 1.350 . S
C1752 C1749 1.463 . S
C1752 N1756 1.427 . S
C1753 H1743 0.929 . S
C1753 C1751 1.433 . S
C1753 N1756 1.384 . S
C1754 H1745 0.929 . S
C1754 C1746 1.378 . S
C1754 C1749 1.350 . S
C1755 H1742 0.929 . S
C1755 C1747 1.433 . S
C1755 N1757 1.408 . S
N1756 C1752 1.427 . S
N1756 C1753 1.384 . S
N1757 C1749 1.396 1_545 S
N1757 C1755 1.408 . S
H1758 C1764 0.930 . S
H1759 C1768 0.930 . S
H1760 C1773 0.929 . S
H1761 C1771 0.929 . S
H1762 C1766 0.929 . S
H1763 C1772 0.929 . S
C1764 H1758 0.930 . S
C1764 C1765 1.367 . S
C1764 C1772 1.378 . S
C1765 C1764 1.367 . S
C1765 C1773 1.433 . S
C1766 H1762 0.929 . S
C1766 C1768 1.378 . S
C1766 C1770 1.350 . S
C1767 C1770 1.463 . S
C1767 C1772 1.350 . S
C1767 N1775 1.427 . S
C1768 H1759 0.930 . S
C1768 C1766 1.378 . S
C1768 C1769 1.367 1_565 S
C1769 C1768 1.367 1_545 S
C1769 C1771 1.433 . S
C1770 C1766 1.350 . S
C1770 C1767 1.463 . S
C1770 N1774 1.427 1_565 S
C1771 H1761 0.929 . S
C1771 C1769 1.433 . S
C1771 N1774 1.384 . S
C1772 H1763 0.929 . S
C1772 C1764 1.378 . S
C1772 C1767 1.350 . S
C1773 H1760 0.929 . S
C1773 C1765 1.433 . S
C1773 N1775 1.384 . S
N1774 C1770 1.427 1_545 S
N1774 C1771 1.384 . S
N1775 C1767 1.427 . S
N1775 C1773 1.384 . S
H1776 C1782 0.930 . S
H1777 C1786 0.930 . S
H1778 C1791 0.929 . S
H1779 C1789 0.929 . S
H1780 C1784 0.929 . S
H1781 C1790 0.929 . S
C1782 H1776 0.930 . S
C1782 C1783 1.367 . S
C1782 C1790 1.378 . S
C1783 C1782 1.367 . S
C1783 C1791 1.433 . S
C1784 H1780 0.929 . S
C1784 C1786 1.378 . S
C1784 C1788 1.350 . S
C1785 C1788 1.463 . S
C1785 C1790 1.350 . S
C1785 N1793 1.427 . S
C1786 H1777 0.930 . S
C1786 C1784 1.378 . S
C1786 C1787 1.367 . S
C1787 C1786 1.367 . S
C1787 C1789 1.433 . S
C1788 C1784 1.350 . S
C1788 C1785 1.463 . S
C1788 N1792 1.427 . S
C1789 H1779 0.929 . S
C1789 C1787 1.433 . S
C1789 N1792 1.384 . S
C1790 H1781 0.929 . S
C1790 C1782 1.378 . S
C1790 C1785 1.350 . S
C1791 H1778 0.929 . S
C1791 C1783 1.433 . S
C1791 N1793 1.384 . S
N1792 C1788 1.427 . S
N1792 C1789 1.384 . S
N1793 C1785 1.427 . S
N1793 C1791 1.384 . S
H1794 C1800 0.930 . S
H1795 C1804 0.930 . S
H1796 C1809 0.929 . S
H1797 C1807 0.929 . S
H1798 C1802 0.929 . S
H1799 C1808 0.929 . S
C1800 H1794 0.930 . S
C1800 C1801 1.367 . S
C1800 C1808 1.378 . S
C1801 C1800 1.367 . S
C1801 C1809 1.433 . S
C1802 H1798 0.929 . S
C1802 C1804 1.378 . S
C1802 C1806 1.350 . S
C1803 C1806 1.463 . S
C1803 C1808 1.350 . S
C1803 N1811 1.427 . S
C1804 H1795 0.930 . S
C1804 C1802 1.378 . S
C1804 C1805 1.367 . S
C1805 C1804 1.367 . S
C1805 C1807 1.433 . S
C1806 C1802 1.350 . S
C1806 C1803 1.463 . S
C1806 N1810 1.427 . S
C1807 H1797 0.929 . S
C1807 C1805 1.433 . S
C1807 N1810 1.384 . S
C1808 H1799 0.929 . S
C1808 C1800 1.378 . S
C1808 C1803 1.350 . S
C1809 H1796 0.929 . S
C1809 C1801 1.433 . S
C1809 N1811 1.384 . S
N1810 C1806 1.427 . S
N1810 C1807 1.384 . S
N1811 C1803 1.427 . S
N1811 C1809 1.384 . S
H1812 C1818 0.930 . S
H1813 C1822 0.930 . S
H1814 C1827 0.929 . S
H1815 C1825 0.929 . S
H1816 C1820 0.929 . S
H1817 C1826 0.929 . S
C1818 H1812 0.930 . S
C1818 C1819 1.367 . S
C1818 C1826 1.378 . S
C1819 C1818 1.367 . S
C1819 C1827 1.433 . S
C1820 H1816 0.929 . S
C1820 C1822 1.378 . S
C1820 C1824 1.350 . S
C1821 C1824 1.463 . S
C1821 C1826 1.350 . S
C1821 N1829 1.427 . S
C1822 H1813 0.930 . S
C1822 C1820 1.378 . S
C1822 C1823 1.367 . S
C1823 C1822 1.367 . S
C1823 C1825 1.433 . S
C1824 C1820 1.350 . S
C1824 C1821 1.463 . S
C1824 N1828 1.427 . S
C1825 H1815 0.929 . S
C1825 C1823 1.433 . S
C1825 N1828 1.384 . S
C1826 H1817 0.929 . S
C1826 C1818 1.378 . S
C1826 C1821 1.350 . S
C1827 H1814 0.929 . S
C1827 C1819 1.433 . S
C1827 N1829 1.384 . S
N1828 C1824 1.427 . S
N1828 C1825 1.384 . S
N1829 C1821 1.427 . S
N1829 C1827 1.384 . S
H1830 C1836 0.930 . S
H1831 C1840 0.930 . S
H1832 C1845 0.929 . S
H1833 C1843 0.929 . S
H1834 C1838 0.929 . S
H1835 C1844 0.929 . S
C1836 H1830 0.930 . S
C1836 C1837 1.367 . S
C1836 C1844 1.378 . S
C1837 C1836 1.367 . S
C1837 C1845 1.433 . S
C1838 H1834 0.929 . S
C1838 C1840 1.378 . S
C1838 C1842 1.350 . S
C1839 C1842 1.463 . S
C1839 C1844 1.350 . S
C1839 N1847 1.427 . S
C1840 H1831 0.930 . S
C1840 C1838 1.378 . S
C1840 C1841 1.367 . S
C1841 C1840 1.367 . S
C1841 C1843 1.433 . S
C1842 C1838 1.350 . S
C1842 C1839 1.463 . S
C1842 N1846 1.427 . S
C1843 H1833 0.929 . S
C1843 C1841 1.433 . S
C1843 N1846 1.384 . S
C1844 H1835 0.929 . S
C1844 C1836 1.378 . S
C1844 C1839 1.350 . S
C1845 H1832 0.929 . S
C1845 C1837 1.433 . S
C1845 N1847 1.384 . S
N1846 C1842 1.427 . S
N1846 C1843 1.384 . S
N1847 C1839 1.427 . S
N1847 C1845 1.384 . S
H1848 C1854 0.930 . S
H1849 C1858 0.930 . S
H1850 C1863 0.929 . S
H1851 C1861 0.929 . S
H1852 C1856 0.929 . S
H1853 C1862 0.929 . S
C1854 H1848 0.930 . S
C1854 C1855 1.367 . S
C1854 C1862 1.378 . S
C1855 C1854 1.367 . S
C1855 C1863 1.433 . S
C1856 H1852 0.929 . S
C1856 C1858 1.378 . S
C1856 C1860 1.350 . S
C1857 C1860 1.463 . S
C1857 C1862 1.350 . S
C1857 N1865 1.427 . S
C1858 H1849 0.930 . S
C1858 C1856 1.378 . S
C1858 C1859 1.367 . S
C1859 C1858 1.367 . S
C1859 C1861 1.433 . S
C1860 C1856 1.350 . S
C1860 C1857 1.463 . S
C1860 N1864 1.427 . S
C1861 H1851 0.929 . S
C1861 C1859 1.433 . S
C1861 N1864 1.384 . S
C1862 H1853 0.929 . S
C1862 C1854 1.378 . S
C1862 C1857 1.350 . S
C1863 H1850 0.929 . S
C1863 C1855 1.433 . S
C1863 N1865 1.384 . S
N1864 C1860 1.427 . S
N1864 C1861 1.384 . S
N1865 C1857 1.427 . S
N1865 C1863 1.384 . S
H1866 C1872 0.930 . S
H1867 C1876 0.930 . S
H1868 C1881 0.929 . S
H1869 C1879 0.929 . S
H1870 C1874 0.929 . S
H1871 C1880 0.929 . S
C1872 H1866 0.930 . S
C1872 C1873 1.367 . S
C1872 C1880 1.378 . S
C1873 C1872 1.367 . S
C1873 C1881 1.433 . S
C1874 H1870 0.929 . S
C1874 C1876 1.378 . S
C1874 C1878 1.350 . S
C1875 C1878 1.463 . S
C1875 C1880 1.350 . S
C1875 N1883 1.427 . S
C1876 H1867 0.930 . S
C1876 C1874 1.378 . S
C1876 C1877 1.367 . S
C1877 C1876 1.367 . S
C1877 C1879 1.433 . S
C1878 C1874 1.350 . S
C1878 C1875 1.463 . S
C1878 N1882 1.427 . S
C1879 H1869 0.929 . S
C1879 C1877 1.433 . S
C1879 N1882 1.384 . S
C1880 H1871 0.929 . S
C1880 C1872 1.378 . S
C1880 C1875 1.350 . S
C1881 H1868 0.929 . S
C1881 C1873 1.433 . S
C1881 N1883 1.384 . S
N1882 C1878 1.427 . S
N1882 C1879 1.384 . S
N1883 C1875 1.427 . S
N1883 C1881 1.384 . S
H1884 C1890 0.930 . S
H1885 C1894 0.930 . S
H1886 C1899 0.929 . S
H1887 C1897 0.929 . S
H1888 C1892 0.929 . S
H1889 C1898 0.929 . S
C1890 H1884 0.930 . S
C1890 C1891 1.367 . S
C1890 C1898 1.378 . S
C1891 C1890 1.367 . S
C1891 C1899 1.433 . S
C1892 H1888 0.929 . S
C1892 C1894 1.378 . S
C1892 C1896 1.350 . S
C1893 C1896 1.463 . S
C1893 C1898 1.350 . S
C1893 N1901 1.427 . S
C1894 H1885 0.930 . S
C1894 C1892 1.378 . S
C1894 C1895 1.367 . S
C1895 C1894 1.367 . S
C1895 C1897 1.433 . S
C1896 C1892 1.350 . S
C1896 C1893 1.463 . S
C1896 N1900 1.427 . S
C1897 H1887 0.929 . S
C1897 C1895 1.433 . S
C1897 N1900 1.384 . S
C1898 H1889 0.929 . S
C1898 C1890 1.378 . S
C1898 C1893 1.350 . S
C1899 H1886 0.929 . S
C1899 C1891 1.433 . S
C1899 N1901 1.384 . S
N1900 C1896 1.427 . S
N1900 C1897 1.384 . S
N1901 C1893 1.427 . S
N1901 C1899 1.384 . S
H1902 C1908 0.930 . S
H1903 C1912 0.930 . S
H1904 C1917 0.929 . S
H1905 C1915 0.929 . S
H1906 C1910 0.929 . S
H1907 C1916 0.929 . S
C1908 H1902 0.930 . S
C1908 C1909 1.367 . S
C1908 C1916 1.378 . S
C1909 C1908 1.367 . S
C1909 C1917 1.433 . S
C1910 H1906 0.929 . S
C1910 C1912 1.378 . S
C1910 C1914 1.350 . S
C1911 C1914 1.463 . S
C1911 C1916 1.350 . S
C1911 N1919 1.427 . S
C1912 H1903 0.930 . S
C1912 C1910 1.378 . S
C1912 C1913 1.367 . S
C1913 C1912 1.367 . S
C1913 C1915 1.433 . S
C1914 C1910 1.350 . S
C1914 C1911 1.463 . S
C1914 N1918 1.427 . S
C1915 H1905 0.929 . S
C1915 C1913 1.433 . S
C1915 N1918 1.384 . S
C1916 H1907 0.929 . S
C1916 C1908 1.378 . S
C1916 C1911 1.350 . S
C1917 H1904 0.929 . S
C1917 C1909 1.433 . S
C1917 N1919 1.384 . S
N1918 C1914 1.427 . S
N1918 C1915 1.384 . S
N1919 C1911 1.427 . S
N1919 C1917 1.384 . S
H1920 C1926 0.930 . S
H1921 C1930 0.930 . S
H1922 C1935 0.929 . S
H1923 C1933 0.929 . S
H1924 C1928 0.929 . S
H1925 C1934 0.929 . S
C1926 H1920 0.930 . S
C1926 C1927 1.367 . S
C1926 C1934 1.378 . S
C1927 C1926 1.367 . S
C1927 C1935 1.433 . S
C1928 H1924 0.929 . S
C1928 C1930 1.378 . S
C1928 C1932 1.350 . S
C1929 C1932 1.463 1_545 S
C1929 C1934 1.350 . S
C1929 N1937 1.427 . S
C1930 H1921 0.930 . S
C1930 C1928 1.378 . S
C1930 C1931 1.367 . S
C1931 C1930 1.367 . S
C1931 C1933 1.433 . S
C1932 C1928 1.350 . S
C1932 C1929 1.463 1_565 S
C1932 N1936 1.427 . S
C1933 H1923 0.929 . S
C1933 C1931 1.433 . S
C1933 N1936 1.384 . S
C1934 H1925 0.929 . S
C1934 C1926 1.378 . S
C1934 C1929 1.350 . S
C1935 H1922 0.929 . S
C1935 C1927 1.433 . S
C1935 N1937 1.384 . S
N1936 C1932 1.427 . S
N1936 C1933 1.384 . S
N1937 C1929 1.427 . S
N1937 C1935 1.384 . S
H1938 C1944 0.930 . S
H1939 C1948 0.930 . S
H1940 C1953 0.929 . S
H1941 C1951 0.929 . S
H1942 C1946 0.929 . S
H1943 C1952 0.929 . S
C1944 H1938 0.930 . S
C1944 C1945 1.367 . S
C1944 C1952 1.378 . S
C1945 C1944 1.367 . S
C1945 C1953 1.433 . S
C1946 H1942 0.929 . S
C1946 C1948 1.378 . S
C1946 C1950 1.350 . S
C1947 C1950 1.463 . S
C1947 C1952 1.350 . S
C1947 N1955 1.427 . S
C1948 H1939 0.930 . S
C1948 C1946 1.378 . S
C1948 C1949 1.367 . S
C1949 C1948 1.367 . S
C1949 C1951 1.433 . S
C1950 C1946 1.350 . S
C1950 C1947 1.463 . S
C1950 N1954 1.427 . S
C1951 H1941 0.929 . S
C1951 C1949 1.433 . S
C1951 N1954 1.384 . S
C1952 H1943 0.929 . S
C1952 C1944 1.378 . S
C1952 C1947 1.350 . S
C1953 H1940 0.929 . S
C1953 C1945 1.433 . S
C1953 N1955 1.384 . S
N1954 C1950 1.427 . S
N1954 C1951 1.384 . S
N1955 C1947 1.427 . S
N1955 C1953 1.384 . S
H1956 C1962 0.930 . S
H1957 C1966 0.930 . S
H1958 C1971 0.929 . S
H1959 C1969 0.929 . S
H1960 C1964 0.929 . S
H1961 C1970 0.929 . S
C1962 H1956 0.930 . S
C1962 C1963 1.367 . S
C1962 C1970 1.378 . S
C1963 C1962 1.367 . S
C1963 C1971 1.433 . S
C1964 H1960 0.929 . S
C1964 C1966 1.378 . S
C1964 C1968 1.350 . S
C1965 C1968 1.463 1_545 S
C1965 C1970 1.350 . S
C1965 N1973 1.427 . S
C1966 H1957 0.930 . S
C1966 C1964 1.378 . S
C1966 C1967 1.367 . S
C1967 C1966 1.367 . S
C1967 C1969 1.433 . S
C1968 C1964 1.350 . S
C1968 C1965 1.463 1_565 S
C1968 N1972 1.427 . S
C1969 H1959 0.929 . S
C1969 C1967 1.433 . S
C1969 N1972 1.384 . S
C1970 H1961 0.929 . S
C1970 C1962 1.378 . S
C1970 C1965 1.350 . S
C1971 H1958 0.929 . S
C1971 C1963 1.433 . S
C1971 N1973 1.384 . S
N1972 C1968 1.427 . S
N1972 C1969 1.384 . S
N1973 C1965 1.427 . S
N1973 C1971 1.384 . S
H1974 C1980 0.930 . S
H1975 C1984 0.930 . S
H1976 C1989 0.929 . S
H1977 C1987 0.929 . S
H1978 C1982 0.929 . S
H1979 C1988 0.929 . S
C1980 H1974 0.930 . S
C1980 C1981 1.367 . S
C1980 C1988 1.378 . S
C1981 C1980 1.367 . S
C1981 C1989 1.433 . S
C1982 H1978 0.929 . S
C1982 C1984 1.378 . S
C1982 C1986 1.350 . S
C1983 C1986 1.463 1_556 S
C1983 C1988 1.350 . S
C1983 N1991 1.450 . S
C1984 H1975 0.930 . S
C1984 C1982 1.378 . S
C1984 C1985 1.367 . S
C1985 C1984 1.367 . S
C1985 C1987 1.433 . S
C1986 C1982 1.350 . S
C1986 C1983 1.463 1_554 S
C1986 N1990 1.450 . S
C1987 H1977 0.929 . S
C1987 C1985 1.433 . S
C1987 N1990 1.430 . S
C1988 H1979 0.929 . S
C1988 C1980 1.378 . S
C1988 C1983 1.350 . S
C1989 H1976 0.929 . S
C1989 C1981 1.433 . S
C1989 N1991 1.430 . S
N1990 C1986 1.450 . S
N1990 C1987 1.430 . S
N1991 C1983 1.450 . S
N1991 C1989 1.430 . S
H1992 C1998 0.930 . S
H1993 C2002 0.930 . S
H1994 C2007 0.929 . S
H1995 C2005 0.929 . S
H1996 C2000 0.929 . S
H1997 C2006 0.929 . S
C1998 H1992 0.930 . S
C1998 C1999 1.367 . S
C1998 C2006 1.378 . S
C1999 C1998 1.367 . S
C1999 C2007 1.433 . S
C2000 H1996 0.929 . S
C2000 C2002 1.378 . S
C2000 C2004 1.350 . S
C2001 C2004 1.463 1_565 S
C2001 C2006 1.350 . S
C2001 N2009 1.427 . S
C2002 H1993 0.930 . S
C2002 C2000 1.378 . S
C2002 C2003 1.367 . S
C2003 C2002 1.367 . S
C2003 C2005 1.433 . S
C2004 C2000 1.350 . S
C2004 C2001 1.463 1_545 S
C2004 N2008 1.427 . S
C2005 H1995 0.929 . S
C2005 C2003 1.433 . S
C2005 N2008 1.384 . S
C2006 H1997 0.929 . S
C2006 C1998 1.378 . S
C2006 C2001 1.350 . S
C2007 H1994 0.929 . S
C2007 C1999 1.433 . S
C2007 N2009 1.384 . S
N2008 C2004 1.427 . S
N2008 C2005 1.384 . S
N2009 C2001 1.427 . S
N2009 C2007 1.384 . S
H2010 C2016 0.930 . S
H2011 C2020 0.930 . S
H2012 C2025 0.929 . S
H2013 C2023 0.929 . S
H2014 C2018 0.929 . S
H2015 C2024 0.929 . S
C2016 H2010 0.930 . S
C2016 C2017 1.367 . S
C2016 C2024 1.378 . S
C2017 C2016 1.367 . S
C2017 C2025 1.433 . S
C2018 H2014 0.929 . S
C2018 C2020 1.378 . S
C2018 C2022 1.350 . S
C2019 C2022 1.463 . S
C2019 C2024 1.350 . S
C2019 N2027 1.427 . S
C2020 H2011 0.930 . S
C2020 C2018 1.378 . S
C2020 C2021 1.367 . S
C2021 C2020 1.367 . S
C2021 C2023 1.433 . S
C2022 C2018 1.350 . S
C2022 C2019 1.463 . S
C2022 N2026 1.427 . S
C2023 H2013 0.929 . S
C2023 C2021 1.433 . S
C2023 N2026 1.384 . S
C2024 H2015 0.929 . S
C2024 C2016 1.378 . S
C2024 C2019 1.350 . S
C2025 H2012 0.929 . S
C2025 C2017 1.433 . S
C2025 N2027 1.384 . S
N2026 C2022 1.427 . S
N2026 C2023 1.384 . S
N2027 C2019 1.427 . S
N2027 C2025 1.384 . S
H2028 C2034 0.930 . S
H2029 C2038 0.930 . S
H2030 C2043 0.929 . S
H2031 C2041 0.929 . S
H2032 C2036 0.929 1_545 S
H2033 C2042 0.929 1_565 S
C2034 H2028 0.930 . S
C2034 C2035 1.367 . S
C2034 C2042 1.378 . S
C2035 C2034 1.367 . S
C2035 C2043 1.433 . S
C2036 H2032 0.929 1_565 S
C2036 C2038 1.378 . S
C2036 C2040 1.350 . S
C2037 C2040 1.463 1_545 S
C2037 C2042 1.350 . S
C2037 N2045 1.427 . S
C2038 H2029 0.930 . S
C2038 C2036 1.378 . S
C2038 C2039 1.367 . S
C2039 C2038 1.367 . S
C2039 C2041 1.433 . S
C2040 C2036 1.350 . S
C2040 C2037 1.463 1_565 S
C2040 N2044 1.427 . S
C2041 H2031 0.929 . S
C2041 C2039 1.433 . S
C2041 N2044 1.384 . S
C2042 H2033 0.929 1_545 S
C2042 C2034 1.378 . S
C2042 C2037 1.350 . S
C2043 H2030 0.929 . S
C2043 C2035 1.433 . S
C2043 N2045 1.384 . S
N2044 C2040 1.427 . S
N2044 C2041 1.384 . S
N2045 C2037 1.427 . S
N2045 C2043 1.384 . S
H2046 C2052 0.930 . S
H2047 C2056 0.930 . S
H2048 C2061 0.929 . S
H2049 C2059 0.929 . S
H2050 C2054 0.929 . S
H2051 C2060 0.929 . S
C2052 H2046 0.930 . S
C2052 C2053 1.367 . S
C2052 C2060 1.378 . S
C2053 C2052 1.367 . S
C2053 C2061 1.433 . S
C2054 H2050 0.929 . S
C2054 C2056 1.378 . S
C2054 C2058 1.350 . S
C2055 C2058 1.463 1_554 S
C2055 C2060 1.350 . S
C2055 N2063 1.427 . S
C2056 H2047 0.930 . S
C2056 C2054 1.378 . S
C2056 C2057 1.367 . S
C2057 C2056 1.367 . S
C2057 C2059 1.433 . S
C2058 C2054 1.350 . S
C2058 C2055 1.463 1_556 S
C2058 N2062 1.427 . S
C2059 H2049 0.929 . S
C2059 C2057 1.433 . S
C2059 N2062 1.384 . S
C2060 H2051 0.929 . S
C2060 C2052 1.378 . S
C2060 C2055 1.350 . S
C2061 H2048 0.929 . S
C2061 C2053 1.433 . S
C2061 N2063 1.384 . S
N2062 C2058 1.427 . S
N2062 C2059 1.384 . S
N2063 C2055 1.427 . S
N2063 C2061 1.384 . S
H2064 C2070 0.930 . S
H2065 C2074 0.930 . S
H2066 C2079 0.929 . S
H2067 C2077 0.929 . S
H2068 C2072 0.929 . S
H2069 C2078 0.929 . S
C2070 H2064 0.930 . S
C2070 C2071 1.367 . S
C2070 C2078 1.378 . S
C2071 C2070 1.367 . S
C2071 C2079 1.433 . S
C2072 H2068 0.929 . S
C2072 C2074 1.378 . S
C2072 C2076 1.350 . S
C2073 C2076 1.463 . S
C2073 C2078 1.350 . S
C2073 N2081 1.427 . S
C2074 H2065 0.930 . S
C2074 C2072 1.378 . S
C2074 C2075 1.367 . S
C2075 C2074 1.367 . S
C2075 C2077 1.433 . S
C2076 C2072 1.350 . S
C2076 C2073 1.463 . S
C2076 N2080 1.427 . S
C2077 H2067 0.929 . S
C2077 C2075 1.433 . S
C2077 N2080 1.384 . S
C2078 H2069 0.929 . S
C2078 C2070 1.378 . S
C2078 C2073 1.350 . S
C2079 H2066 0.929 . S
C2079 C2071 1.433 . S
C2079 N2081 1.384 . S
N2080 C2076 1.427 . S
N2080 C2077 1.384 . S
N2081 C2073 1.427 . S
N2081 C2079 1.384 . S
H2082 C2088 0.930 . S
H2083 C2092 0.930 . S
H2084 C2097 0.929 . S
H2085 C2095 0.929 . S
H2086 C2090 0.929 1_554 S
H2087 C2096 0.929 1_556 S
C2088 H2082 0.930 . S
C2088 C2089 1.367 . S
C2088 C2096 1.378 . S
C2089 C2088 1.367 . S
C2089 C2097 1.433 . S
C2090 H2086 0.929 1_556 S
C2090 C2092 1.378 . S
C2090 C2094 1.350 . S
C2091 C2094 1.463 1_554 S
C2091 C2096 1.350 . S
C2091 N2099 1.427 . S
C2092 H2083 0.930 . S
C2092 C2090 1.378 . S
C2092 C2093 1.367 . S
C2093 C2092 1.367 . S
C2093 C2095 1.433 . S
C2094 C2090 1.350 . S
C2094 C2091 1.463 1_556 S
C2094 N2098 1.427 . S
C2095 H2085 0.929 . S
C2095 C2093 1.433 . S
C2095 N2098 1.384 . S
C2096 H2087 0.929 1_554 S
C2096 C2088 1.378 . S
C2096 C2091 1.350 . S
C2097 H2084 0.929 . S
C2097 C2089 1.433 . S
C2097 N2099 1.384 . S
N2098 C2094 1.427 . S
N2098 C2095 1.384 . S
N2099 C2091 1.427 . S
N2099 C2097 1.384 . S
H2100 C2106 0.930 . S
H2101 C2110 0.930 . S
H2102 C2115 0.929 . S
H2103 C2113 0.929 . S
H2104 C2108 0.929 . S
H2105 C2114 0.929 . S
C2106 H2100 0.930 . S
C2106 C2107 1.367 . S
C2106 C2114 1.378 . S
C2107 C2106 1.367 . S
C2107 C2115 1.433 . S
C2108 H2104 0.929 . S
C2108 C2110 1.378 . S
C2108 C2112 1.350 . S
C2109 C2112 1.463 . S
C2109 C2114 1.350 . S
C2109 N2117 1.427 . S
C2110 H2101 0.930 . S
C2110 C2108 1.378 . S
C2110 C2111 1.367 . S
C2111 C2110 1.367 . S
C2111 C2113 1.433 . S
C2112 C2108 1.350 . S
C2112 C2109 1.463 . S
C2112 N2116 1.427 . S
C2113 H2103 0.929 . S
C2113 C2111 1.433 . S
C2113 N2116 1.384 . S
C2114 H2105 0.929 . S
C2114 C2106 1.378 . S
C2114 C2109 1.350 . S
C2115 H2102 0.929 . S
C2115 C2107 1.433 . S
C2115 N2117 1.384 . S
N2116 C2112 1.427 . S
N2116 C2113 1.384 . S
N2117 C2109 1.427 . S
N2117 C2115 1.384 . S
H2118 C2124 0.930 . S
H2119 C2128 0.930 . S
H2120 C2133 0.929 . S
H2121 C2131 0.929 . S
H2122 C2126 0.929 . S
H2123 C2132 0.929 . S
C2124 H2118 0.930 . S
C2124 C2125 1.367 . S
C2124 C2132 1.378 . S
C2125 C2124 1.367 . S
C2125 C2133 1.433 . S
C2126 H2122 0.929 . S
C2126 C2128 1.378 . S
C2126 C2130 1.350 . S
C2127 C2130 1.463 . S
C2127 C2132 1.350 . S
C2127 N2135 1.427 . S
C2128 H2119 0.930 . S
C2128 C2126 1.378 . S
C2128 C2129 1.367 . S
C2129 C2128 1.367 . S
C2129 C2131 1.433 . S
C2130 C2126 1.350 . S
C2130 C2127 1.463 . S
C2130 N2134 1.427 . S
C2131 H2121 0.929 . S
C2131 C2129 1.433 . S
C2131 N2134 1.384 . S
C2132 H2123 0.929 . S
C2132 C2124 1.378 . S
C2132 C2127 1.350 . S
C2133 H2120 0.929 . S
C2133 C2125 1.433 . S
C2133 N2135 1.384 . S
N2134 C2130 1.427 . S
N2134 C2131 1.384 . S
N2135 C2127 1.427 . S
N2135 C2133 1.384 . S
H2136 C2142 0.930 . S
H2137 C2146 0.930 . S
H2138 C2151 0.929 . S
H2139 C2149 0.929 . S
H2140 C2144 0.929 . S
H2141 C2150 0.929 . S
C2142 H2136 0.930 . S
C2142 C2143 1.367 . S
C2142 C2150 1.378 . S
C2143 C2142 1.367 . S
C2143 C2151 1.433 . S
C2144 H2140 0.929 . S
C2144 C2146 1.378 . S
C2144 C2148 1.350 . S
C2145 C2148 1.463 . S
C2145 C2150 1.350 . S
C2145 N2153 1.427 . S
C2146 H2137 0.930 . S
C2146 C2144 1.378 . S
C2146 C2147 1.367 . S
C2147 C2146 1.367 . S
C2147 C2149 1.433 . S
C2148 C2144 1.350 . S
C2148 C2145 1.463 . S
C2148 N2152 1.427 . S
C2149 H2139 0.929 . S
C2149 C2147 1.433 . S
C2149 N2152 1.384 . S
C2150 H2141 0.929 . S
C2150 C2142 1.378 . S
C2150 C2145 1.350 . S
C2151 H2138 0.929 . S
C2151 C2143 1.433 . S
C2151 N2153 1.384 . S
N2152 C2148 1.427 . S
N2152 C2149 1.384 . S
N2153 C2145 1.427 . S
N2153 C2151 1.384 . S
H2154 C2160 0.930 . S
H2155 C2164 0.930 . S
H2156 C2169 0.929 . S
H2157 C2167 0.929 . S
H2158 C2162 0.929 . S
H2159 C2168 0.929 . S
C2160 H2154 0.930 . S
C2160 C2161 1.367 . S
C2160 C2168 1.378 . S
C2161 C2160 1.367 . S
C2161 C2169 1.433 . S
C2162 H2158 0.929 . S
C2162 C2164 1.378 . S
C2162 C2166 1.350 . S
C2163 C2166 1.463 1_556 S
C2163 C2168 1.350 . S
C2163 N2171 1.427 . S
C2164 H2155 0.930 . S
C2164 C2162 1.378 . S
C2164 C2165 1.367 . S
C2165 C2164 1.367 . S
C2165 C2167 1.433 . S
C2166 C2162 1.350 . S
C2166 C2163 1.463 1_554 S
C2166 N2170 1.427 . S
C2167 H2157 0.929 . S
C2167 C2165 1.433 . S
C2167 N2170 1.384 . S
C2168 H2159 0.929 . S
C2168 C2160 1.378 . S
C2168 C2163 1.350 . S
C2169 H2156 0.929 . S
C2169 C2161 1.433 . S
C2169 N2171 1.384 . S
N2170 C2166 1.427 . S
N2170 C2167 1.384 . S
N2171 C2163 1.427 . S
N2171 C2169 1.384 . S
H2172 C2178 0.930 . S
H2173 C2182 0.930 . S
H2174 C2187 0.929 . S
H2175 C2185 0.929 . S
H2176 C2180 0.929 . S
H2177 C2186 0.929 . S
C2178 H2172 0.930 . S
C2178 C2179 1.367 . S
C2178 C2186 1.378 . S
C2179 C2178 1.367 . S
C2179 C2187 1.433 . S
C2180 H2176 0.929 . S
C2180 C2182 1.378 . S
C2180 C2184 1.350 . S
C2181 C2184 1.463 . S
C2181 C2186 1.350 . S
C2181 N2189 1.427 . S
C2182 H2173 0.930 . S
C2182 C2180 1.378 . S
C2182 C2183 1.367 . S
C2183 C2182 1.367 . S
C2183 C2185 1.433 . S
C2184 C2180 1.350 . S
C2184 C2181 1.463 . S
C2184 N2188 1.427 . S
C2185 H2175 0.929 . S
C2185 C2183 1.433 . S
C2185 N2188 1.384 . S
C2186 H2177 0.929 . S
C2186 C2178 1.378 . S
C2186 C2181 1.350 . S
C2187 H2174 0.929 . S
C2187 C2179 1.433 . S
C2187 N2189 1.384 . S
N2188 C2184 1.427 . S
N2188 C2185 1.384 . S
N2189 C2181 1.427 . S
N2189 C2187 1.384 . S
H2190 C2196 0.930 . S
H2191 C2200 0.930 . S
H2192 C2205 0.929 . S
H2193 C2203 0.929 . S
H2194 C2198 0.929 . S
H2195 C2204 0.929 . S
C2196 H2190 0.930 . S
C2196 C2197 1.367 . S
C2196 C2204 1.378 . S
C2197 C2196 1.367 . S
C2197 C2205 1.433 . S
C2198 H2194 0.929 . S
C2198 C2200 1.378 . S
C2198 C2202 1.350 . S
C2199 C2202 1.463 . S
C2199 C2204 1.350 . S
C2199 N2207 1.427 . S
C2200 H2191 0.930 . S
C2200 C2198 1.378 . S
C2200 C2201 1.367 . S
C2201 C2200 1.367 . S
C2201 C2203 1.433 . S
C2202 C2198 1.350 . S
C2202 C2199 1.463 . S
C2202 N2206 1.427 . S
C2203 H2193 0.929 . S
C2203 C2201 1.433 . S
C2203 N2206 1.384 . S
C2204 H2195 0.929 . S
C2204 C2196 1.378 . S
C2204 C2199 1.350 . S
C2205 H2192 0.929 . S
C2205 C2197 1.433 . S
C2205 N2207 1.384 . S
N2206 C2202 1.427 . S
N2206 C2203 1.384 . S
N2207 C2199 1.427 . S
N2207 C2205 1.384 . S
H2208 C2214 0.930 . S
H2209 C2218 0.930 . S
H2210 C2223 0.929 . S
H2211 C2221 0.929 . S
H2212 C2216 0.929 . S
H2213 C2222 0.929 . S
C2214 H2208 0.930 . S
C2214 C2215 1.367 . S
C2214 C2222 1.378 . S
C2215 C2214 1.367 . S
C2215 C2223 1.433 . S
C2216 H2212 0.929 . S
C2216 C2218 1.378 . S
C2216 C2220 1.350 . S
C2217 C2220 1.463 1_455 S
C2217 C2222 1.350 . S
C2217 N2225 1.427 1_455 S
C2218 H2209 0.930 . S
C2218 C2216 1.378 . S
C2218 C2219 1.367 . S
C2219 C2218 1.367 . S
C2219 C2221 1.433 . S
C2220 C2216 1.350 . S
C2220 C2217 1.463 1_655 S
C2220 N2224 1.427 1_655 S
C2221 H2211 0.929 . S
C2221 C2219 1.433 . S
C2221 N2224 1.384 1_655 S
C2222 H2213 0.929 . S
C2222 C2214 1.378 . S
C2222 C2217 1.350 . S
C2223 H2210 0.929 . S
C2223 C2215 1.433 . S
C2223 N2225 1.384 1_455 S
N2224 C2220 1.427 1_455 S
N2224 C2221 1.384 1_455 S
N2225 C2217 1.427 1_655 S
N2225 C2223 1.384 1_655 S
H2226 C2232 0.930 . S
H2227 C2236 0.930 . S
H2228 C2241 0.929 . S
H2229 C2239 0.929 . S
H2230 C2234 0.951 . S
H2231 C2240 0.951 . S
C2232 H2226 0.930 . S
C2232 C2233 1.367 . S
C2232 C2240 1.378 . S
C2233 C2232 1.367 . S
C2233 C2241 1.433 . S
C2234 H2230 0.951 . S
C2234 C2236 1.378 . S
C2234 C2238 1.350 . S
C2235 C2238 1.463 1_655 S
C2235 C2240 1.350 . S
C2235 N2243 1.427 . S
C2236 H2227 0.930 . S
C2236 C2234 1.378 . S
C2236 C2237 1.367 . S
C2237 C2236 1.367 . S
C2237 C2239 1.433 . S
C2238 C2234 1.350 . S
C2238 C2235 1.463 1_455 S
C2238 N2242 1.427 . S
C2239 H2229 0.929 . S
C2239 C2237 1.433 . S
C2239 N2242 1.384 . S
C2240 H2231 0.951 . S
C2240 C2232 1.378 . S
C2240 C2235 1.350 . S
C2241 H2228 0.929 . S
C2241 C2233 1.433 . S
C2241 N2243 1.384 . S
N2242 C2238 1.427 . S
N2242 C2239 1.384 . S
N2243 C2235 1.427 . S
N2243 C2241 1.384 . S
H2244 C2250 0.930 . S
H2245 C2254 0.930 . S
H2246 C2259 0.929 . S
H2247 C2257 0.929 . S
H2248 C2252 0.929 . S
H2249 C2258 0.929 . S
C2250 H2244 0.930 . S
C2250 C2251 1.367 . S
C2250 C2258 1.378 . S
C2251 C2250 1.367 . S
C2251 C2259 1.433 . S
C2252 H2248 0.929 . S
C2252 C2254 1.378 . S
C2252 C2256 1.350 . S
C2253 C2256 1.463 . S
C2253 C2258 1.350 . S
C2253 N2261 1.427 . S
C2254 H2245 0.930 . S
C2254 C2252 1.378 . S
C2254 C2255 1.367 . S
C2255 C2254 1.367 . S
C2255 C2257 1.433 . S
C2256 C2252 1.350 . S
C2256 C2253 1.463 . S
C2256 N2260 1.427 . S
C2257 H2247 0.929 . S
C2257 C2255 1.433 . S
C2257 N2260 1.384 . S
C2258 H2249 0.929 . S
C2258 C2250 1.378 . S
C2258 C2253 1.350 . S
C2259 H2246 0.929 . S
C2259 C2251 1.433 . S
C2259 N2261 1.384 . S
N2260 C2256 1.427 . S
N2260 C2257 1.384 . S
N2261 C2253 1.427 . S
N2261 C2259 1.384 . S
H2262 C2268 0.930 . S
H2263 C2272 0.930 . S
H2264 C2277 0.929 . S
H2265 C2275 0.929 . S
H2266 C2270 0.929 . S
H2267 C2276 0.929 . S
C2268 H2262 0.930 . S
C2268 C2269 1.367 . S
C2268 C2276 1.378 . S
C2269 C2268 1.367 . S
C2269 C2277 1.433 . S
C2270 H2266 0.929 . S
C2270 C2272 1.378 . S
C2270 C2274 1.350 . S
C2271 C2274 1.463 . S
C2271 C2276 1.350 . S
C2271 N2279 1.427 . S
C2272 H2263 0.930 . S
C2272 C2270 1.378 . S
C2272 C2273 1.367 . S
C2273 C2272 1.367 . S
C2273 C2275 1.433 . S
C2274 C2270 1.350 . S
C2274 C2271 1.463 . S
C2274 N2278 1.427 . S
C2275 H2265 0.929 . S
C2275 C2273 1.433 . S
C2275 N2278 1.384 . S
C2276 H2267 0.929 . S
C2276 C2268 1.378 . S
C2276 C2271 1.350 . S
C2277 H2264 0.929 . S
C2277 C2269 1.433 . S
C2277 N2279 1.384 . S
N2278 C2274 1.427 . S
N2278 C2275 1.384 . S
N2279 C2271 1.427 . S
N2279 C2277 1.384 . S
H2280 C2286 0.930 . S
H2281 C2290 0.930 . S
H2282 C2295 0.929 . S
H2283 C2293 0.929 . S
H2284 C2288 0.929 . S
H2285 C2294 0.929 . S
C2286 H2280 0.930 . S
C2286 C2287 1.367 . S
C2286 C2294 1.378 . S
C2287 C2286 1.367 . S
C2287 C2295 1.433 . S
C2288 H2284 0.929 . S
C2288 C2290 1.378 . S
C2288 C2292 1.350 . S
C2289 C2292 1.463 1_655 S
C2289 C2294 1.350 . S
C2289 N2297 1.427 . S
C2290 H2281 0.930 . S
C2290 C2288 1.378 . S
C2290 C2291 1.367 . S
C2291 C2290 1.367 . S
C2291 C2293 1.433 . S
C2292 C2288 1.350 . S
C2292 C2289 1.463 1_455 S
C2292 N2296 1.427 . S
C2293 H2283 0.929 . S
C2293 C2291 1.433 . S
C2293 N2296 1.384 . S
C2294 H2285 0.929 . S
C2294 C2286 1.378 . S
C2294 C2289 1.350 . S
C2295 H2282 0.929 . S
C2295 C2287 1.433 . S
C2295 N2297 1.384 . S
N2296 C2292 1.427 . S
N2296 C2293 1.384 . S
N2297 C2289 1.427 . S
N2297 C2295 1.384 . S
H2298 C2304 0.930 . S
H2299 C2308 0.930 . S
H2300 C2313 0.929 . S
H2301 C2311 0.929 . S
H2302 C2306 0.929 . S
H2303 C2312 0.929 . S
C2304 H2298 0.930 . S
C2304 C2305 1.367 . S
C2304 C2312 1.378 . S
C2305 C2304 1.367 . S
C2305 C2313 1.433 . S
C2306 H2302 0.929 . S
C2306 C2308 1.378 . S
C2306 C2310 1.350 . S
C2307 C2310 1.463 . S
C2307 C2312 1.350 . S
C2307 N2315 1.427 . S
C2308 H2299 0.930 . S
C2308 C2306 1.378 . S
C2308 C2309 1.367 . S
C2309 C2308 1.367 . S
C2309 C2311 1.433 . S
C2310 C2306 1.350 . S
C2310 C2307 1.463 . S
C2310 N2314 1.427 . S
C2311 H2301 0.929 . S
C2311 C2309 1.433 . S
C2311 N2314 1.384 . S
C2312 H2303 0.929 . S
C2312 C2304 1.378 . S
C2312 C2307 1.350 . S
C2313 H2300 0.929 . S
C2313 C2305 1.433 . S
C2313 N2315 1.384 . S
N2314 C2310 1.427 . S
N2314 C2311 1.384 . S
N2315 C2307 1.427 . S
N2315 C2313 1.384 . S
H2316 C2322 0.930 . S
H2317 C2326 0.930 . S
H2318 C2331 0.929 . S
H2319 C2329 0.929 . S
H2320 C2324 0.929 . S
H2321 C2330 0.929 . S
C2322 H2316 0.930 . S
C2322 C2323 1.367 . S
C2322 C2330 1.378 . S
C2323 C2322 1.367 . S
C2323 C2331 1.433 . S
C2324 H2320 0.929 . S
C2324 C2326 1.378 . S
C2324 C2328 1.350 . S
C2325 C2328 1.463 . S
C2325 C2330 1.350 . S
C2325 N2333 1.427 . S
C2326 H2317 0.930 . S
C2326 C2324 1.378 . S
C2326 C2327 1.367 . S
C2327 C2326 1.367 . S
C2327 C2329 1.433 . S
C2328 C2324 1.350 . S
C2328 C2325 1.463 . S
C2328 N2332 1.427 . S
C2329 H2319 0.929 . S
C2329 C2327 1.433 . S
C2329 N2332 1.384 . S
C2330 H2321 0.929 . S
C2330 C2322 1.378 . S
C2330 C2325 1.350 . S
C2331 H2318 0.929 . S
C2331 C2323 1.433 . S
C2331 N2333 1.384 . S
N2332 C2328 1.427 . S
N2332 C2329 1.384 . S
N2333 C2325 1.427 . S
N2333 C2331 1.384 . S
H2334 C2340 0.930 . S
H2335 C2344 0.930 . S
H2336 C2349 0.929 . S
H2337 C2347 0.929 . S
H2338 C2342 0.929 1_455 S
H2339 C2348 0.929 1_655 S
C2340 H2334 0.930 . S
C2340 C2341 1.367 . S
C2340 C2348 1.378 . S
C2341 C2340 1.367 . S
C2341 C2349 1.433 . S
C2342 H2338 0.929 1_655 S
C2342 C2344 1.378 . S
C2342 C2346 1.350 . S
C2343 C2346 1.463 1_455 S
C2343 C2348 1.350 . S
C2343 N2351 1.427 . S
C2344 H2335 0.930 . S
C2344 C2342 1.378 . S
C2344 C2345 1.367 . S
C2345 C2344 1.367 . S
C2345 C2347 1.433 . S
C2346 C2342 1.350 . S
C2346 C2343 1.463 1_655 S
C2346 N2350 1.427 . S
C2347 H2337 0.929 . S
C2347 C2345 1.433 . S
C2347 N2350 1.384 . S
C2348 H2339 0.929 1_455 S
C2348 C2340 1.378 . S
C2348 C2343 1.350 . S
C2349 H2336 0.929 . S
C2349 C2341 1.433 . S
C2349 N2351 1.384 . S
N2350 C2346 1.427 . S
N2350 C2347 1.384 . S
N2351 C2343 1.427 . S
N2351 C2349 1.384 . S
H2352 C2358 0.930 . S
H2353 C2362 0.930 . S
H2354 C2367 0.929 . S
H2355 C2365 0.929 . S
H2356 C2360 0.929 . S
H2357 C2366 0.929 . S
C2358 H2352 0.930 . S
C2358 C2359 1.367 . S
C2358 C2366 1.378 . S
C2359 C2358 1.367 . S
C2359 C2367 1.433 . S
C2360 H2356 0.929 . S
C2360 C2362 1.378 . S
C2360 C2364 1.350 . S
C2361 C2364 1.463 1_655 S
C2361 C2366 1.350 . S
C2361 N2369 1.427 . S
C2362 H2353 0.930 . S
C2362 C2360 1.378 . S
C2362 C2363 1.367 . S
C2363 C2362 1.367 . S
C2363 C2365 1.433 . S
C2364 C2360 1.350 . S
C2364 C2361 1.463 1_455 S
C2364 N2368 1.427 . S
C2365 H2355 0.929 . S
C2365 C2363 1.433 . S
C2365 N2368 1.384 . S
C2366 H2357 0.929 . S
C2366 C2358 1.378 . S
C2366 C2361 1.350 . S
C2367 H2354 0.929 . S
C2367 C2359 1.433 . S
C2367 N2369 1.384 . S
N2368 C2364 1.427 . S
N2368 C2365 1.384 . S
N2369 C2361 1.427 . S
N2369 C2367 1.384 . S
H2370 C2376 0.930 . S
H2371 C2380 0.930 . S
H2372 C2385 0.929 . S
H2373 C2383 0.929 . S
H2374 C2378 0.929 . S
H2375 C2384 0.929 . S
C2376 H2370 0.930 . S
C2376 C2377 1.367 . S
C2376 C2384 1.378 . S
C2377 C2376 1.367 . S
C2377 C2385 1.433 . S
C2378 H2374 0.929 . S
C2378 C2380 1.378 . S
C2378 C2382 1.350 . S
C2379 C2382 1.463 1_455 S
C2379 C2384 1.350 . S
C2379 N2387 1.427 . S
C2380 H2371 0.930 . S
C2380 C2378 1.378 . S
C2380 C2381 1.367 . S
C2381 C2380 1.367 . S
C2381 C2383 1.433 . S
C2382 C2378 1.350 . S
C2382 C2379 1.463 1_655 S
C2382 N2386 1.427 . S
C2383 H2373 0.929 . S
C2383 C2381 1.433 . S
C2383 N2386 1.384 . S
C2384 H2375 0.929 . S
C2384 C2376 1.378 . S
C2384 C2379 1.350 . S
C2385 H2372 0.929 . S
C2385 C2377 1.433 . S
C2385 N2387 1.384 . S
N2386 C2382 1.427 . S
N2386 C2383 1.384 . S
N2387 C2379 1.427 . S
N2387 C2385 1.384 . S
H2388 C2394 0.930 . S
H2389 C2398 0.930 . S
H2390 C2403 0.929 . S
H2391 C2401 0.929 . S
H2392 C2396 0.929 . S
H2393 C2402 0.929 . S
C2394 H2388 0.930 . S
C2394 C2395 1.367 . S
C2394 C2402 1.378 . S
C2395 C2394 1.367 . S
C2395 C2403 1.433 . S
C2396 H2392 0.929 . S
C2396 C2398 1.378 . S
C2396 C2400 1.350 . S
C2397 C2400 1.463 . S
C2397 C2402 1.350 . S
C2397 N2405 1.427 . S
C2398 H2389 0.930 . S
C2398 C2396 1.378 . S
C2398 C2399 1.367 . S
C2399 C2398 1.367 . S
C2399 C2401 1.433 . S
C2400 C2396 1.350 . S
C2400 C2397 1.463 . S
C2400 N2404 1.427 . S
C2401 H2391 0.929 . S
C2401 C2399 1.433 . S
C2401 N2404 1.384 . S
C2402 H2393 0.929 . S
C2402 C2394 1.378 . S
C2402 C2397 1.350 . S
C2403 H2390 0.929 . S
C2403 C2395 1.433 . S
C2403 N2405 1.384 . S
N2404 C2400 1.427 . S
N2404 C2401 1.384 . S
N2405 C2397 1.427 . S
N2405 C2403 1.384 . S
H2406 C2412 0.930 . S
H2407 C2416 0.930 . S
H2408 C2421 0.929 . S
H2409 C2419 0.929 . S
H2410 C2414 0.929 . S
H2411 C2420 0.929 . S
C2412 H2406 0.930 . S
C2412 C2413 1.367 . S
C2412 C2420 1.378 . S
C2413 C2412 1.367 . S
C2413 C2421 1.433 . S
C2414 H2410 0.929 . S
C2414 C2416 1.378 . S
C2414 C2418 1.350 . S
C2415 C2418 1.463 . S
C2415 C2420 1.350 . S
C2415 N2423 1.427 . S
C2416 H2407 0.930 . S
C2416 C2414 1.378 . S
C2416 C2417 1.367 . S
C2417 C2416 1.367 . S
C2417 C2419 1.433 . S
C2418 C2414 1.350 . S
C2418 C2415 1.463 . S
C2418 N2422 1.427 . S
C2419 H2409 0.929 . S
C2419 C2417 1.433 . S
C2419 N2422 1.384 . S
C2420 H2411 0.929 . S
C2420 C2412 1.378 . S
C2420 C2415 1.350 . S
C2421 H2408 0.929 . S
C2421 C2413 1.433 . S
C2421 N2423 1.384 . S
N2422 C2418 1.427 . S
N2422 C2419 1.384 . S
N2423 C2415 1.427 . S
N2423 C2421 1.384 . S
H2424 C2430 0.930 . S
H2425 C2434 0.930 . S
H2426 C2439 0.929 . S
H2427 C2437 0.929 . S
H2428 C2432 0.929 . S
H2429 C2438 0.929 . S
C2430 H2424 0.930 . S
C2430 C2431 1.367 . S
C2430 C2438 1.378 . S
C2431 C2430 1.367 . S
C2431 C2439 1.433 . S
C2432 H2428 0.929 . S
C2432 C2434 1.378 . S
C2432 C2436 1.350 . S
C2433 C2436 1.463 1_655 S
C2433 C2438 1.350 . S
C2433 N2441 1.427 . S
C2434 H2425 0.930 . S
C2434 C2432 1.378 . S
C2434 C2435 1.367 . S
C2435 C2434 1.367 . S
C2435 C2437 1.433 . S
C2436 C2432 1.350 . S
C2436 C2433 1.463 1_455 S
C2436 N2440 1.427 . S
C2437 H2427 0.929 . S
C2437 C2435 1.433 . S
C2437 N2440 1.384 . S
C2438 H2429 0.929 . S
C2438 C2430 1.378 . S
C2438 C2433 1.350 . S
C2439 H2426 0.929 . S
C2439 C2431 1.433 . S
C2439 N2441 1.384 . S
N2440 C2436 1.427 . S
N2440 C2437 1.384 . S
N2441 C2433 1.427 . S
N2441 C2439 1.384 . S
H2442 C2448 0.930 . S
H2443 C2452 0.930 . S
H2444 C2457 0.929 . S
H2445 C2455 0.929 . S
H2446 C2450 0.929 . S
H2447 C2456 0.929 . S
C2448 H2442 0.930 . S
C2448 C2449 1.367 . S
C2448 C2456 1.378 . S
C2449 C2448 1.367 . S
C2449 C2457 1.433 . S
C2450 H2446 0.929 . S
C2450 C2452 1.378 . S
C2450 C2454 1.350 . S
C2451 C2454 1.463 . S
C2451 C2456 1.350 . S
C2451 N2459 1.427 . S
C2452 H2443 0.930 . S
C2452 C2450 1.378 . S
C2452 C2453 1.367 . S
C2453 C2452 1.367 . S
C2453 C2455 1.433 . S
C2454 C2450 1.350 . S
C2454 C2451 1.463 . S
C2454 N2458 1.427 . S
C2455 H2445 0.929 . S
C2455 C2453 1.433 . S
C2455 N2458 1.384 . S
C2456 H2447 0.929 . S
C2456 C2448 1.378 . S
C2456 C2451 1.350 . S
C2457 H2444 0.929 . S
C2457 C2449 1.433 . S
C2457 N2459 1.384 . S
N2458 C2454 1.427 . S
N2458 C2455 1.384 . S
N2459 C2451 1.427 . S
N2459 C2457 1.384 . S
H2460 C2466 0.930 . S
H2461 C2470 0.930 . S
H2462 C2475 0.929 . S
H2463 C2473 0.929 . S
H2464 C2468 0.929 . S
H2465 C2474 0.929 . S
C2466 H2460 0.930 . S
C2466 C2467 1.367 . S
C2466 C2474 1.378 . S
C2467 C2466 1.367 . S
C2467 C2475 1.433 . S
C2468 H2464 0.929 . S
C2468 C2470 1.378 . S
C2468 C2472 1.350 . S
C2469 C2472 1.463 . S
C2469 C2474 1.350 . S
C2469 N2477 1.427 . S
C2470 H2461 0.930 . S
C2470 C2468 1.378 . S
C2470 C2471 1.367 . S
C2471 C2470 1.367 . S
C2471 C2473 1.433 . S
C2472 C2468 1.350 . S
C2472 C2469 1.463 . S
C2472 N2476 1.427 . S
C2473 H2463 0.929 . S
C2473 C2471 1.433 . S
C2473 N2476 1.384 . S
C2474 H2465 0.929 . S
C2474 C2466 1.378 . S
C2474 C2469 1.350 . S
C2475 H2462 0.929 . S
C2475 C2467 1.433 . S
C2475 N2477 1.384 . S
N2476 C2472 1.427 . S
N2476 C2473 1.384 . S
N2477 C2469 1.427 . S
N2477 C2475 1.384 . S
H2478 C2484 0.930 . S
H2479 C2488 0.930 . S
H2480 C2493 0.929 . S
H2481 C2491 0.929 . S
H2482 C2486 0.929 1_655 S
H2483 C2492 0.929 1_455 S
C2484 H2478 0.930 . S
C2484 C2485 1.367 . S
C2484 C2492 1.378 . S
C2485 C2484 1.367 . S
C2485 C2493 1.433 . S
C2486 H2482 0.929 1_455 S
C2486 C2488 1.378 . S
C2486 C2490 1.350 . S
C2487 C2490 1.463 1_655 S
C2487 C2492 1.350 . S
C2487 N2495 1.427 . S
C2488 H2479 0.930 . S
C2488 C2486 1.378 . S
C2488 C2489 1.367 . S
C2489 C2488 1.367 . S
C2489 C2491 1.433 . S
C2490 C2486 1.350 . S
C2490 C2487 1.463 1_455 S
C2490 N2494 1.427 . S
C2491 H2481 0.929 . S
C2491 C2489 1.433 . S
C2491 N2494 1.384 . S
C2492 H2483 0.929 1_655 S
C2492 C2484 1.378 . S
C2492 C2487 1.350 . S
C2493 H2480 0.929 . S
C2493 C2485 1.433 . S
C2493 N2495 1.384 . S
N2494 C2490 1.427 . S
N2494 C2491 1.384 . S
N2495 C2487 1.427 . S
N2495 C2493 1.384 . S
C1063 C912 0.528 . S
C1067 C7 0.536 . S
C1081 C285 0.535 . S
C1085 C40 0.527 . S
C1099 C846 0.509 . S
C1103 C73 0.555 . S
C1117 C106 0.537 . S
C1121 C351 0.517 . S
C1135 C978 0.522 . S
C1139 C139 0.543 . S
C1153 C483 0.504 . S
C1157 C172 0.558 . S
C1171 C205 0.547 . S
C1175 C1044 0.508 . S
C1189 C238 0.534 . S
C1193 C417 0.529 . S
C1207 C648 0.532 . S
C1211 C271 0.530 . S
C1225 C21 0.508 . S
C1229 C304 0.556 . S
C1243 C337 0.556 . S
C1247 C582 0.508 . S
C1261 C370 0.551 . S
C1265 C87 0.513 . S
C1279 C403 0.549 . S
C1283 C714 0.515 . S
C1297 C436 0.517 . S
C1301 C219 0.539 . S
C1315 C780 0.514 . S
C1319 C469 0.540 . S
C1333 C153 0.528 . S
C1337 C502 0.524 . S
C1351 C384 0.514 . S
C1355 C535 0.551 . S
C1369 C568 0.517 . S
C1373 C813 0.539 . S
C1387 C318 0.514 . S
C1391 C601 0.550 . S
C1405 C634 0.524 . S
C1409 C879 0.528 . S
C1423 C450 0.518 . S
C1427 C667 0.547 . S
C1441 C1011 0.539 . S
C1445 C700 0.517 . S
C1459 C516 0.532 . S
C1463 C733 0.521 . S
C1477 C766 0.534 . S
C1481 C945 0.520 . S
C1495 C799 0.529 . S
C1499 C120 0.524 . S
C1513 C549 0.537 . S
C1517 C832 0.522 . S
C1531 C54 0.528 . S
C1535 C865 0.536 . S
C1549 C898 0.556 . S
C1553 C615 0.503 . S
C1567 C931 0.527 . S
C1571 C186 0.526 . S
C1585 C964 0.533 . S
C1589 C747 0.520 . S
C1603 C252 0.503 . S
C1607 C997 0.558 . S
C1621 C1030 0.517 . S
C1625 C681 0.537 . S
C1639 N13 1.553 . S
C1643 N178 1.557 . S
C1657 N211 1.547 . S
C1661 N46 1.556 . S
C1675 N244 1.556 . S
C1679 N79 1.555 . S
C1693 N112 1.556 . S
C1697 N145 1.548 . S
C1711 N277 1.554 . S
C1715 N442 1.545 . S
C1729 N310 1.556 . S
C1733 N475 1.555 . S
C1747 N343 1.557 . S
C1751 N508 1.554 . S
C1765 N376 1.543 . S
C1769 N409 1.553 . S
C1783 N706 1.540 . S
C1787 N541 1.549 . S
C1801 N574 1.549 . S
C1805 N739 1.557 . S
C1819 N607 1.539 . S
C1823 N772 1.544 . S
C1837 N673 1.556 . S
C1841 N640 1.547 . S
C1855 N970 1.545 . S
C1859 N805 1.539 . S
C1873 N1003 1.542 . S
C1877 N838 1.552 . S
C1891 N1036 1.556 . S
C1895 N871 1.555 . S
C1909 N937 1.554 . S
C1913 N904 1.544 . S
C1927 C18 1.212 . S
C1931 C150 1.207 . S
C1945 C51 1.206 . S
C1949 C183 1.200 . S
C1963 C216 1.203 . S
C1967 C84 1.209 . S
C1981 C249 1.200 . S
C1985 C117 1.201 . S
C1999 C282 1.206 . S
C2003 C414 1.201 . S
C2017 C447 1.212 . S
C2021 C315 1.206 . S
C2035 C348 1.203 . S
C2039 C480 1.199 . S
C2053 C513 1.208 . S
C2057 C381 1.202 . S
C2071 C546 1.212 . S
C2075 C678 1.207 . S
C2089 C579 1.208 . S
C2093 C711 1.212 . S
C2107 C612 1.200 . S
C2111 C744 1.200 . S
C2125 C645 1.209 . S
C2129 C777 1.203 . S
C2143 C942 1.212 . S
C2147 C810 1.210 . S
C2161 C843 1.207 . S
C2165 C975 1.201 . S
C2179 C876 1.208 . S
C2183 C1008 1.212 . S
C2197 C909 1.212 . S
C2201 C1041 1.206 . S
C2215 N2 1.209 . S
C2219 N596 1.209 . S
C2233 N629 1.207 . S
C2237 N35 1.207 . S
C2251 N68 1.203 . S
C2255 N530 1.203 . S
C2269 N101 1.204 . S
C2273 N563 1.205 . S
C2287 N728 1.204 . S
C2291 N134 1.205 . S
C2305 N761 1.204 . S
C2309 N167 1.204 . S
C2323 N200 1.201 . S
C2327 N662 1.201 . S
C2341 N233 1.208 . S
C2345 N695 1.208 . S
C2359 N266 1.206 . S
C2363 N860 1.207 . S
C2377 N893 1.201 . S
C2381 N299 1.200 . S
C2395 N794 1.204 . S
C2399 N332 1.204 . S
C2413 N365 1.204 . S
C2417 N827 1.203 . S
C2431 N398 1.205 . S
C2435 N992 1.205 . S
C2449 N431 1.202 . S
C2453 N1025 1.201 . S
C2467 N464 1.204 . S
C2471 N926 1.205 . S
C2485 N497 1.209 . S
C2489 N959 1.209 . S
