# Generated by pormake.
# Topology smc, (6)-cn, num edge types: 1
# Building blocks:
#     Node 0, Type 0, BuildingBlock: KUMJIN_clean_sbu_1, # of connection points: 6
#     Node 1, Type 0, BuildingBlock: KUMJIN_clean_sbu_1, # of connection points: 6
#     Node 2, Type 0, BuildingBlock: KUMJIN_clean_sbu_1, # of connection points: 6
#     Node 3, Type 0, BuildingBlock: KUMJIN_clean_sbu_1, # of connection points: 6
#     Node 4, Type 0, BuildingBlock: KUMJIN_clean_sbu_1, # of connection points: 6
#     Node 5, Type 0, BuildingBlock: KUMJIN_clean_sbu_1, # of connection points: 6
#     Node 6, Type 0, BuildingBlock: KUMJIN_clean_sbu_1, # of connection points: 6
#     Node 7, Type 0, BuildingBlock: KUMJIN_clean_sbu_1, # of connection points: 6
#     Node 8, Type 0, BuildingBlock: KUMJIN_clean_sbu_1, # of connection points: 6
#     Edge 9, Type (0, 0), BuildingBlock: TEMPAE_clean_linker_10, # of connection points: 2
#     Edge 10, Type (0, 0), BuildingBlock: TEMPAE_clean_linker_10, # of connection points: 2
#     Edge 11, Type (0, 0), BuildingBlock: TEMPAE_clean_linker_10, # of connection points: 2
#     Edge 12, Type (0, 0), BuildingBlock: TEMPAE_clean_linker_10, # of connection points: 2
#     Edge 13, Type (0, 0), BuildingBlock: TEMPAE_clean_linker_10, # of connection points: 2
#     Edge 14, Type (0, 0), BuildingBlock: TEMPAE_clean_linker_10, # of connection points: 2
#     Edge 15, Type (0, 0), BuildingBlock: TEMPAE_clean_linker_10, # of connection points: 2
#     Edge 16, Type (0, 0), BuildingBlock: TEMPAE_clean_linker_10, # of connection points: 2
#     Edge 17, Type (0, 0), BuildingBlock: TEMPAE_clean_linker_10, # of connection points: 2
#     Edge 18, Type (0, 0), BuildingBlock: TEMPAE_clean_linker_10, # of connection points: 2
#     Edge 19, Type (0, 0), BuildingBlock: TEMPAE_clean_linker_10, # of connection points: 2
#     Edge 20, Type (0, 0), BuildingBlock: TEMPAE_clean_linker_10, # of connection points: 2
#     Edge 21, Type (0, 0), BuildingBlock: TEMPAE_clean_linker_10, # of connection points: 2
#     Edge 22, Type (0, 0), BuildingBlock: TEMPAE_clean_linker_10, # of connection points: 2
#     Edge 23, Type (0, 0), BuildingBlock: TEMPAE_clean_linker_10, # of connection points: 2
#     Edge 24, Type (0, 0), BuildingBlock: TEMPAE_clean_linker_10, # of connection points: 2
#     Edge 25, Type (0, 0), BuildingBlock: TEMPAE_clean_linker_10, # of connection points: 2
#     Edge 26, Type (0, 0), BuildingBlock: TEMPAE_clean_linker_10, # of connection points: 2
#     Edge 27, Type (0, 0), BuildingBlock: TEMPAE_clean_linker_10, # of connection points: 2
#     Edge 28, Type (0, 0), BuildingBlock: TEMPAE_clean_linker_10, # of connection points: 2
#     Edge 29, Type (0, 0), BuildingBlock: TEMPAE_clean_linker_10, # of connection points: 2
#     Edge 30, Type (0, 0), BuildingBlock: TEMPAE_clean_linker_10, # of connection points: 2
#     Edge 31, Type (0, 0), BuildingBlock: TEMPAE_clean_linker_10, # of connection points: 2
#     Edge 32, Type (0, 0), BuildingBlock: TEMPAE_clean_linker_10, # of connection points: 2
#     Edge 33, Type (0, 0), BuildingBlock: TEMPAE_clean_linker_10, # of connection points: 2
#     Edge 34, Type (0, 0), BuildingBlock: TEMPAE_clean_linker_10, # of connection points: 2
#     Edge 35, Type (0, 0), BuildingBlock: TEMPAE_clean_linker_10, # of connection points: 2
# Relax obj value: 0.165
# Max RMSD: 0.312
# Mean RMSD: 0.312
data_MOF--net-smc--node1-KUMJIN_clean_sbu_1--edge1-TEMPAE_clean_linker_10
_symmetry_space_group_name_H-M    P1
_symmetry_Int_Tables_number       1
_symmetry_cell_setting            triclinic
loop_
_symmetry_equiv_pos_as_xyz
'x, y, z'
_cell_length_a     38.753729
_cell_length_b     38.805767
_cell_length_c     41.233349
_cell_angle_alpha  89.924176
_cell_angle_beta   90.053274
_cell_angle_gamma 120.02659
loop_
_atom_site_label
_atom_site_type_symbol
_atom_site_fract_x
_atom_site_fract_y
_atom_site_fract_z
_atom_type_partial_charge
Eu0 Eu 0.0514 0.42146 1.00115 0.0
C1 C 0.02285 0.56021 0.0308 0.0
N2 N 0.01197 0.52597 0.0476 0.0
C3 C 0.0339 0.56311 0.09728 0.0
C4 C 0.03975 0.59722 0.04689 0.0
C5 C 0.01589 0.52693 0.08063 0.0
C6 C 0.04603 0.59842 0.08035 0.0
C7 C 0.02595 0.59317 0.97972 0.0
C8 C 0.01608 0.55835 0.99745 0.0
C9 C 0.04209 0.62976 0.99589 0.0
C10 C 0.0489 0.63175 0.02934 0.0
Eu11 Eu 0.97891 0.46685 0.01624 0.0
N12 N 0.99971 0.52247 0.9823 0.0
C13 C 0.0184 0.59007 0.94632 0.0
C14 C 0.99027 0.5189 0.95009 0.0
C15 C 1.00031 0.55274 0.93147 0.0
H16 H 1.00406 0.50012 0.09484 0.0
H17 H 0.99353 0.54995 0.90582 0.0
H18 H 0.0713 0.42196 0.92209 0.0
H19 H 1.00401 0.30176 0.09013 0.0
H20 H 0.97509 0.4899 0.93883 0.0
H21 H 0.02574 0.61622 0.93189 0.0
H22 H 0.03225 0.37122 0.07176 0.0
H23 H 0.03736 0.5636 0.12336 0.0
H24 H 0.04917 0.65671 0.98276 0.0
H25 H 0.06087 0.66017 0.04155 0.0
H26 H 0.06304 0.37362 0.87957 0.0
H27 H 0.05927 0.62634 0.09347 0.0
H28 H 0.98585 0.24819 0.04986 0.0
N29 N 0.0422 0.37779 0.95839 0.0
C30 C 0.0267 0.33893 0.96675 0.0
C31 C 0.05194 0.36338 0.90381 0.0
C32 C 0.02144 0.31032 0.94327 0.0
C33 C 0.05607 0.39059 0.9278 0.0
C34 C 0.03429 0.32304 0.91154 0.0
N35 N 0.02755 0.35688 0.02185 0.0
C36 C 0.02326 0.34804 0.05408 0.0
C37 C 1.00375 0.28815 0.00867 0.0
C38 C 0.01895 0.32813 0.99928 0.0
C39 C 0.99754 0.27858 0.04169 0.0
C40 C 1.00771 0.30873 0.0645 0.0
H41 H 0.03208 0.30211 0.89318 0.0
H42 H 1.00064 0.2479 0.9346 0.0
H43 H 0.98436 0.22833 0.99175 0.0
O44 O 0.10246 0.4164 0.01674 0.0
O45 O 0.98362 0.37676 1.00318 0.0
O46 O 0.96393 0.40835 0.03899 0.0
O47 O 0.10871 0.455 0.9763 0.0
O48 O 0.05265 0.4391 0.05356 0.0
O49 O 0.99814 0.44817 0.06365 0.0
O50 O 0.91885 0.44518 0.99706 0.0
O51 O 0.03636 0.49984 0.98837 0.0
O52 O 0.07364 0.48415 0.01993 0.0
O53 O 0.93786 0.48221 0.04029 0.0
O54 O 0.96583 0.42764 0.97105 0.0
O55 O 0.02896 0.44071 0.95744 0.0
C56 C 0.95625 0.37668 0.02232 0.0
C57 C 0.15419 0.43105 0.97921 0.0
C58 C 0.2227 0.4469 0.96952 0.0
C59 C 0.20811 0.41205 0.95079 0.0
C60 C 0.14036 0.39572 0.96156 0.0
C61 C 0.16724 0.38668 0.94694 0.0
C62 C 0.19543 0.45667 0.98315 0.0
C63 C 0.0294 0.44503 0.07326 0.0
C64 C 0.1263 0.44107 0.9948 0.0
C65 C 1.00533 0.27033 0.95242 0.0
C66 C 0.99619 0.25922 0.98499 0.0
C67 C 0.06995 0.5104 1.00285 0.0
C68 C 0.86948 0.45467 0.02425 0.0
C69 C 0.81803 0.47325 0.02228 0.0
C70 C 0.78999 0.43484 0.03288 0.0
C71 C 0.8414 0.41668 0.03519 0.0
C72 C 0.85789 0.48314 0.01819 0.0
C73 C 0.80172 0.40683 0.0395 0.0
C74 C 0.99096 0.42604 0.95022 0.0
C75 C 0.91081 0.46527 0.018 0.0
H76 H 0.22838 0.40409 0.93949 0.0
H77 H 0.10898 0.37482 0.95941 0.0
H78 H 0.15635 0.35956 0.93302 0.0
H79 H 0.20615 0.48333 0.99775 0.0
H80 H 0.75909 0.42667 0.03621 0.0
H81 H 0.85017 0.39475 0.04009 0.0
H82 H 0.87965 0.51265 0.00975 0.0
H83 H 0.77995 0.37735 0.04779 0.0
Eu84 Eu 0.60514 0.64816 0.99229 0.0
C85 C 0.47629 0.47551 0.02961 0.0
N86 N 0.5078 0.50347 0.0468 0.0
C87 C 0.46802 0.48613 0.09499 0.0
C88 C 0.43956 0.45062 0.04499 0.0
C89 C 0.5043 0.50925 0.07902 0.0
C90 C 0.43565 0.45634 0.07801 0.0
C91 C 0.44802 0.44399 0.97802 0.0
C92 C 0.48059 0.47251 0.99634 0.0
C93 C 0.41223 0.41751 0.99369 0.0
C94 C 0.40801 0.42082 0.02706 0.0
Eu95 Eu 0.56902 0.53442 0.01909 0.0
N96 N 0.51639 0.49721 0.98198 0.0
C97 C 0.45247 0.44241 0.94453 0.0
C98 C 0.52122 0.49427 0.94946 0.0
C99 C 0.48918 0.46778 0.9302 0.0
H100 H 0.52976 0.53064 0.09275 0.0
H101 H 0.49323 0.46599 0.90441 0.0
H102 H 0.60699 0.66361 0.91243 0.0
H103 H 0.72012 0.72584 0.08419 0.0
H104 H 0.54976 0.51075 0.93802 0.0
H105 H 0.42798 0.42124 0.92961 0.0
H106 H 0.65351 0.67753 0.06374 0.0
H107 H 0.46537 0.49058 0.12057 0.0
H108 H 0.38725 0.39488 0.98005 0.0
H109 H 0.37983 0.40079 0.03862 0.0
H110 H 0.65451 0.70838 0.87097 0.0
H111 H 0.40778 0.43795 0.0906 0.0
H112 H 0.77261 0.77062 0.04578 0.0
N113 N 0.64864 0.68802 0.95096 0.0
C114 C 0.68606 0.71553 0.96038 0.0
C115 C 0.66385 0.71049 0.89598 0.0
C116 C 0.71412 0.74164 0.93764 0.0
C117 C 0.6372 0.68497 0.91933 0.0
C118 C 0.70245 0.73906 0.9052 0.0
N119 N 0.66813 0.69314 0.01444 0.0
C120 C 0.67611 0.69621 0.04682 0.0
C121 C 0.73461 0.74675 1.00356 0.0
C122 C 0.69611 0.71822 0.993 0.0
C123 C 0.74338 0.74909 0.0367 0.0
C124 C 0.71389 0.72386 0.05845 0.0
H125 H 0.72297 0.75915 0.88715 0.0
H126 H 0.77464 0.78998 0.93082 0.0
H127 H 0.79264 0.79432 0.9885 0.0
O128 O 0.57788 0.67736 0.01847 0.0
O129 O 0.65692 0.63466 0.99525 0.0
O130 O 0.62687 0.58802 0.03352 0.0
O131 O 0.58792 0.68651 0.96678 0.0
O132 O 0.58317 0.63161 0.0448 0.0
O133 O 0.59 0.57804 0.06197 0.0
O134 O 0.57476 0.48197 0.00737 0.0
O135 O 0.52519 0.55664 0.02115 0.0
O136 O 0.54614 0.59554 0.97626 0.0
O137 O 0.57922 0.50095 0.05667 0.0
O138 O 0.60518 0.55653 0.97119 0.0
O139 O 0.58505 0.59988 0.95423 0.0
C140 C 0.65718 0.60778 0.01451 0.0
C141 C 0.58869 0.73821 0.99695 0.0
C142 C 0.57177 0.79041 1.00356 0.0
C143 C 0.61274 0.81877 1.00429 0.0
C144 C 0.62932 0.76681 0.99795 0.0
C145 C 0.64123 0.80696 1.00152 0.0
C146 C 0.55998 0.75001 0.99971 0.0
C147 C 0.58448 0.60863 0.06787 0.0
C148 C 0.57575 0.69601 0.99286 0.0
C149 C 0.75263 0.7698 0.948 0.0
C150 C 0.76288 0.77227 0.98085 0.0
C151 C 0.51837 0.5751 0.99776 0.0
C152 C 0.54407 0.43128 0.04772 0.0
C153 C 0.51176 0.35868 0.04344 0.0
C154 C 0.48495 0.35494 0.06788 0.0
C155 C 0.51766 0.42615 0.07316 0.0
C156 C 0.54103 0.39701 0.03281 0.0
C157 C 0.48792 0.38846 0.08259 0.0
C158 C 0.60497 0.5812 0.94897 0.0
C159 C 0.57458 0.47231 0.0376 0.0
H160 H 0.62278 0.8502 0.00663 0.0
H161 H 0.65173 0.75812 0.99586 0.0
H162 H 0.67263 0.82902 1.00205 0.0
H163 H 0.52858 0.72771 0.99922 0.0
H164 H 0.4622 0.3258 0.07619 0.0
H165 H 0.52011 0.45124 0.0863 0.0
H166 H 0.56173 0.40009 0.01385 0.0
H167 H 0.4676 0.38523 0.1019 0.0
Eu168 Eu 0.37419 0.97898 0.99388 0.0
C169 C 0.54481 1.00229 0.03329 0.0
N170 N 0.52152 0.01408 0.0489 0.0
C171 C 0.53983 0.99864 0.10028 0.0
C172 C 0.56604 0.98757 0.05083 0.0
C173 C 0.52077 0.01459 0.08204 0.0
C174 C 0.56222 0.98463 0.08459 0.0
C175 C 0.57615 0.9984 0.98347 0.0
C176 C 0.54992 0.00768 0.99993 0.0
C177 C 0.59653 0.98293 1.00081 0.0
C178 C 0.59165 0.97774 0.03438 0.0
Eu179 Eu 0.4941 0.04447 0.0159 0.0
N180 N 0.53037 0.02332 0.9837 0.0
C181 C 0.58205 0.00601 0.95015 0.0
C182 C 0.53744 0.03252 0.95146 0.0
C183 C 0.5627 0.02326 0.93411 0.0
H184 H 0.50714 0.02901 0.09472 0.0
H185 H 0.56772 0.02998 0.90848 0.0
H186 H 0.35482 0.97794 0.91441 0.0
H187 H 0.33092 0.04391 0.09372 0.0
H188 H 0.52351 0.04701 0.93919 0.0
H189 H 0.60201 0.99932 0.93672 0.0
H190 H 0.37228 0.02165 0.06666 0.0
H191 H 0.53841 0.99851 0.1265 0.0
H192 H 0.61674 0.97559 0.98857 0.0
H193 H 0.60848 0.96683 0.04753 0.0
H194 H 0.30936 0.98745 0.87907 0.0
H195 H 0.57782 0.9732 0.09884 0.0
H196 H 0.2786 0.04845 0.06296 0.0
N197 N 0.33653 0.99414 0.95755 0.0
C198 C 0.31188 0.00558 0.97098 0.0
C199 C 0.3101 0.99329 0.90477 0.0
C200 C 0.28567 0.012 0.95147 0.0
C201 C 0.33626 0.98838 0.92488 0.0
C202 C 0.28472 1.00527 0.91808 0.0
N203 N 0.34021 0.0069 0.02214 0.0
C204 C 0.3477 0.02005 0.05349 0.0
C205 C 0.2905 0.02689 0.01835 0.0
C206 C 0.31372 0.01214 1.00416 0.0
C207 C 0.29574 0.03691 0.05124 0.0
C208 C 0.32504 0.03418 0.06872 0.0
H209 H 0.26465 0.0094 0.90237 0.0
H210 H 0.24101 0.03002 0.95115 0.0
H211 H 0.24567 0.04363 0.00966 0.0
O212 O 0.32181 0.92154 0.00784 0.0
O213 O 0.4015 0.04675 0.9957 0.0
O214 O 0.44939 0.06107 0.03432 0.0
O215 O 0.34312 0.93218 0.95859 0.0
O216 O 0.3865 0.9713 0.04566 0.0
O217 O 0.45262 0.01556 0.06132 0.0
O218 O 0.54016 0.1015 0.99558 0.0
O219 O 0.46987 0.98798 0.98697 0.0
O220 O 0.40978 0.95009 0.01105 0.0
O221 O 0.54377 0.08783 0.04584 0.0
O222 O 0.47244 0.061 0.96948 0.0
O223 O 0.42114 0.99971 0.95442 0.0
C224 C 0.42928 0.07214 0.01558 0.0
C225 C 0.32151 0.86808 0.97841 0.0
C226 C 0.28979 0.79543 0.98441 0.0
C227 C 0.32321 0.79739 0.96888 0.0
C228 C 0.35476 0.86857 0.96423 0.0
C229 C 0.35556 0.83358 0.95964 0.0
C230 C 0.28935 0.83149 0.9891 0.0
C231 C 0.41492 0.98741 0.06766 0.0
C232 C 0.32008 0.9056 0.97956 0.0
C233 C 0.26136 0.02503 0.96577 0.0
C234 C 0.26388 0.0326 0.9991 0.0
C235 C 0.44195 0.95361 0.9976 0.0
C236 C 0.5905 0.15391 0.02803 0.0
C237 C 0.65948 0.20898 0.02634 0.0
C238 C 0.6464 0.23426 0.03869 0.0
C239 C 0.57829 0.17944 0.04085 0.0
C240 C 0.63118 0.16859 0.02118 0.0
C241 C 0.60622 0.2195 0.04607 0.0
C242 C 0.44558 0.0375 0.94796 0.0
C243 C 0.56166 0.11181 0.02178 0.0
H244 H 0.32446 0.77091 0.96293 0.0
H245 H 0.37997 0.89601 0.95568 0.0
H246 H 0.38104 0.83442 0.94806 0.0
H247 H 0.26426 0.83143 1.00063 0.0
H248 H 0.66745 0.26539 0.04323 0.0
H249 H 0.54726 0.16839 0.04671 0.0
H250 H 0.64071 0.1487 0.01153 0.0
H251 H 0.59678 0.23929 0.05591 0.0
Eu252 Eu 0.71731 0.75673 0.32839 0.0
C253 C 0.67188 0.88525 0.36427 0.0
N254 N 0.66373 0.85225 0.38165 0.0
C255 C 0.67732 0.88863 0.43133 0.0
C256 C 0.68249 0.92138 0.3801 0.0
C257 C 0.66622 0.85325 0.41465 0.0
C258 C 0.68522 0.92278 0.414 0.0
C259 C 0.67958 0.91723 0.31204 0.0
C260 C 0.67045 0.88303 0.3305 0.0
C261 C 0.68933 0.95303 0.3278 0.0
C262 C 0.69016 0.95491 0.36171 0.0
Eu263 Eu 0.63989 0.79316 0.35197 0.0
N264 N 0.66003 0.84763 0.31577 0.0
C265 C 0.67786 0.91434 0.27823 0.0
C266 C 0.65593 0.84434 0.28282 0.0
C267 C 0.66573 0.87768 0.2636 0.0
H268 H 0.659 0.82656 0.42812 0.0
H269 H 0.66292 0.87483 0.23749 0.0
H270 H 0.73411 0.75666 0.2493 0.0
H271 H 0.66969 0.63808 0.4185 0.0
H272 H 0.64368 0.81616 0.2709 0.0
H273 H 0.68489 0.93999 0.26325 0.0
H274 H 0.69291 0.70625 0.39914 0.0
H275 H 0.67927 0.88941 0.45753 0.0
H276 H 0.69611 0.97944 0.31396 0.0
H277 H 0.69757 0.98271 0.37349 0.0
H278 H 0.73631 0.71101 0.20897 0.0
H279 H 0.69353 0.95009 0.42701 0.0
H280 H 0.65993 0.58556 0.37945 0.0
N281 N 0.71093 0.71305 0.28661 0.0
C282 C 0.69864 0.6749 0.29547 0.0
C283 C 0.72429 0.70007 0.23283 0.0
C284 C 0.69724 0.64722 0.27268 0.0
C285 C 0.72328 0.72592 0.25578 0.0
C286 C 0.71069 0.66039 0.24114 0.0
N287 N 0.69438 0.69234 0.34964 0.0
C288 C 0.68807 0.68361 0.38188 0.0
C289 C 0.67757 0.62492 0.33786 0.0
C290 C 0.68999 0.66417 0.32785 0.0
C291 C 0.66963 0.61541 0.37079 0.0
C292 C 0.6751 0.64495 0.39291 0.0
H293 H 0.71157 0.64041 0.22327 0.0
H294 H 0.68283 0.58619 0.26515 0.0
H295 H 0.66471 0.56641 0.32211 0.0
O296 O 0.77179 0.76518 0.3525 0.0
O297 O 0.65046 0.7079 0.33063 0.0
O298 O 0.62718 0.73305 0.36948 0.0
O299 O 0.77415 0.78439 0.30314 0.0
O300 O 0.7226 0.78167 0.37913 0.0
O301 O 0.66065 0.77073 0.39574 0.0
O302 O 0.58259 0.78465 0.33338 0.0
O303 O 0.70554 0.83753 0.35795 0.0
O304 O 0.72582 0.817 0.3146 0.0
O305 O 0.5935 0.7871 0.38552 0.0
O306 O 0.62979 0.75838 0.30354 0.0
O307 O 0.69338 0.7771 0.28751 0.0
C308 C 0.62184 0.70416 0.35029 0.0
C309 C 0.82219 0.76749 0.31779 0.0
C310 C 0.8908 0.78122 0.31227 0.0
C311 C 0.87669 0.74771 0.29182 0.0
C312 C 0.80908 0.73321 0.29887 0.0
C313 C 0.83619 0.72367 0.28567 0.0
C314 C 0.86312 0.79132 0.32483 0.0
C315 C 0.69657 0.77571 0.40204 0.0
C316 C 0.7941 0.78089 0.32697 0.0
C317 C 0.68438 0.60794 0.28242 0.0
C318 C 0.67422 0.59673 0.31488 0.0
C319 C 0.73298 0.84376 0.33674 0.0
C320 C 0.52982 0.77901 0.36934 0.0
C321 C 0.47832 0.79765 0.36361 0.0
C322 C 0.45396 0.76643 0.38484 0.0
C323 C 0.50516 0.74869 0.39088 0.0
C324 C 0.51654 0.80384 0.35581 0.0
C325 C 0.4674 0.74236 0.39843 0.0
C326 C 0.65511 0.75894 0.28155 0.0
C327 C 0.56981 0.78516 0.36243 0.0
H328 H 0.89699 0.73989 0.28041 0.0
H329 H 0.77804 0.71432 0.29347 0.0
H330 H 0.8258 0.69777 0.27028 0.0
H331 H 0.8732 0.8175 0.33989 0.0
H332 H 0.42471 0.76122 0.39158 0.0
H333 H 0.51512 0.72974 0.40179 0.0
H334 H 0.53583 0.8279 0.33965 0.0
H335 H 0.44851 0.7188 0.41506 0.0
Eu336 Eu 0.27422 0.98242 0.3306 0.0
C337 C 0.14284 0.80864 0.36843 0.0
N338 N 0.17584 0.83723 0.38402 0.0
C339 C 0.13845 0.82299 0.43361 0.0
C340 C 0.10665 0.78564 0.38529 0.0
C341 C 0.17425 0.84353 0.41654 0.0
C342 C 0.10449 0.79392 0.41795 0.0
C343 C 0.11223 0.77017 0.31957 0.0
C344 C 0.14545 0.8009 0.33577 0.0
C345 C 0.07689 0.74644 0.33676 0.0
C346 C 0.07413 0.75416 0.36949 0.0
Eu347 Eu 0.23524 0.86536 0.35263 0.0
N348 N 0.18067 0.82272 0.31999 0.0
C349 C 0.11584 0.76337 0.28675 0.0
C350 C 0.185 0.81485 0.28844 0.0
C351 C 0.1524 0.78586 0.27111 0.0
H352 H 0.20041 0.86297 0.43031 0.0
H353 H 0.15573 0.78022 0.24593 0.0
H354 H 0.26908 0.99928 0.2518 0.0
H355 H 0.39682 0.05542 0.41738 0.0
H356 H 0.21363 0.83095 0.2767 0.0
H357 H 0.09082 0.74029 0.27345 0.0
H358 H 0.32864 0.00701 0.40004 0.0
H359 H 0.13746 0.82859 0.4592 0.0
H360 H 0.05132 0.7222 0.32487 0.0
H361 H 0.0465 0.73565 0.38237 0.0
H362 H 0.31234 0.04751 0.21013 0.0
H363 H 0.07707 0.77722 0.43154 0.0
H364 H 0.44511 0.10297 0.37775 0.0
N365 N 0.31375 0.02284 0.28835 0.0
C366 C 0.35155 0.05066 0.29669 0.0
C367 C 0.32371 0.04862 0.23432 0.0
C368 C 0.37732 0.07841 0.27358 0.0
C369 C 0.2994 0.02133 0.25785 0.0
C370 C 0.36281 0.07734 0.24222 0.0
N371 N 0.33812 0.0266 0.35095 0.0
C372 C 0.34924 0.02756 0.3825 0.0
C373 C 0.40337 0.08084 0.33768 0.0
C374 C 0.36416 0.0524 0.32867 0.0
C375 C 0.41516 0.08167 0.36993 0.0
C376 C 0.38798 0.05492 0.3924 0.0
H377 H 0.38161 0.09839 0.22388 0.0
H378 H 0.43668 0.12805 0.26505 0.0
H379 H 0.45968 0.12975 0.32094 0.0
O380 O 0.27264 0.03497 0.34697 0.0
O381 O 0.32266 0.9645 0.33224 0.0
O382 O 0.29249 0.91724 0.37082 0.0
O383 O 0.23593 1.00106 0.30607 0.0
O384 O 0.25819 0.96841 0.38299 0.0
O385 O 0.25113 0.90697 0.39796 0.0
O386 O 0.26436 0.83142 0.33859 0.0
O387 O 0.19798 0.88214 0.32119 0.0
O388 O 0.21317 0.93714 0.34934 0.0
O389 O 0.22595 0.81362 0.38142 0.0
O390 O 0.27172 0.88811 0.3057 0.0
O391 O 0.26061 0.93892 0.2885 0.0
C392 C 0.32311 0.93802 0.35204 0.0
C393 C 0.25226 0.06896 0.3108 0.0
C394 C 0.22784 0.11528 0.30171 0.0
C395 C 0.26248 0.13991 0.28388 0.0
C396 C 0.28728 0.09492 0.29406 0.0
C397 C 0.29209 0.12984 0.28029 0.0
C398 C 0.22275 0.07963 0.31513 0.0
C399 C 0.25294 0.94156 0.4049 0.0
C400 C 0.24669 0.0317 0.32518 0.0
C401 C 0.41638 0.10668 0.28255 0.0
C402 C 0.42945 0.1077 0.31442 0.0
C403 C 0.18813 0.90784 0.33121 0.0
C404 C 0.25378 0.77185 0.36689 0.0
C405 C 0.23296 0.70109 0.363 0.0
C406 C 0.27024 0.70991 0.37564 0.0
C407 C 0.2903 0.77956 0.3798 0.0
C408 C 0.22461 0.73238 0.35895 0.0
C409 C 0.29851 0.74878 0.38416 0.0
C410 C 0.27544 0.91496 0.28397 0.0
C411 C 0.24705 0.80554 0.36173 0.0
H412 H 0.26714 0.16761 0.27354 0.0
H413 H 0.31126 0.0888 0.292 0.0
H414 H 0.31915 0.1495 0.26721 0.0
H415 H 0.1961 0.06046 0.32894 0.0
H416 H 0.27735 0.68651 0.37937 0.0
H417 H 0.31251 0.80958 0.38638 0.0
H418 H 0.19614 0.72623 0.34912 0.0
H419 H 0.32699 0.75513 0.39401 0.0
Eu420 Eu 0.04716 0.31179 0.33012 0.0
C421 C 0.22783 0.36859 0.37081 0.0
N422 N 0.19714 0.3684 0.3869 0.0
C423 C 0.21709 0.35102 0.43642 0.0
C424 C 0.25451 0.35985 0.38719 0.0
C425 C 0.19154 0.36013 0.41926 0.0
C426 C 0.24879 0.35103 0.42036 0.0
C427 C 0.26282 0.37552 0.32023 0.0
C428 C 0.23187 0.37636 0.33759 0.0
C429 C 0.29004 0.3679 0.33671 0.0
C430 C 0.28584 0.36 0.37005 0.0
Eu431 Eu 0.16106 0.39124 0.3568 0.0
N432 N 0.20432 0.38244 0.32198 0.0
C433 C 0.26483 0.38119 0.28663 0.0
C434 C 0.20667 0.38871 0.28929 0.0
C435 C 0.23653 0.38762 0.27111 0.0
H436 H 0.16834 0.36183 0.43228 0.0
H437 H 0.23809 0.3924 0.24516 0.0
H438 H 0.03045 0.29712 0.25061 0.0
H439 H 0.97364 0.35297 0.42263 0.0
H440 H 0.1865 0.39567 0.277 0.0
H441 H 0.28796 0.38045 0.27243 0.0
H442 H 0.02128 0.33365 0.40181 0.0
H443 H 0.21272 0.34469 0.46213 0.0
H444 H 0.31402 0.36725 0.32373 0.0
H445 H 0.30675 0.3536 0.38229 0.0
H446 H 0.98123 0.29397 0.21101 0.0
H447 H 0.2687 0.34423 0.4338 0.0
H448 H 0.92862 0.36088 0.38459 0.0
N449 N 1.00784 0.31641 0.2891 0.0
C450 C 0.98104 0.32714 0.29876 0.0
C451 C 0.98182 0.30483 0.23522 0.0
C452 C 0.95415 0.32832 0.2764 0.0
C453 C 0.00925 0.30608 0.25777 0.0
C454 C 0.95464 0.31674 0.24434 0.0
N455 N 1.00428 0.33194 0.35271 0.0
C456 C 1.00202 0.33732 0.38513 0.0
C457 C 0.95124 0.34572 0.34219 0.0
C458 C 0.97917 0.33514 0.33141 0.0
C459 C 0.94967 0.35266 0.37535 0.0
C460 C 0.97503 0.34822 0.39691 0.0
H461 H 0.93366 0.3161 0.22664 0.0
H462 H 0.90595 0.34078 0.27006 0.0
H463 H 0.90375 0.35652 0.32754 0.0
O464 O 0.00927 0.25664 0.35659 0.0
O465 O 0.0616 0.37749 0.33476 0.0
O466 O 0.10683 0.39231 0.37359 0.0
O467 O 0.01147 0.25578 0.30429 0.0
O468 O 0.06974 0.3026 0.37859 0.0
O469 O 0.11702 0.3631 0.39969 0.0
O470 O 0.21105 0.451 0.34442 0.0
O471 O 0.14603 0.32682 0.35252 0.0
O472 O 0.09835 0.30402 0.31259 0.0
O473 O 0.19071 0.43704 0.39349 0.0
O474 O 0.13705 0.40314 0.30859 0.0
O475 O 0.09359 0.33969 0.29072 0.0
C476 C 0.0873 0.40368 0.35528 0.0
C477 C 0.95229 0.2074 0.32915 0.0
C478 C 0.8964 0.13922 0.32969 0.0
C479 C 0.87029 0.15413 0.32482 0.0
C480 C 0.92567 0.22154 0.3249 0.0
C481 C 0.88489 0.19498 0.32256 0.0
C482 C 0.93765 0.16623 0.33155 0.0
C483 C 0.08679 0.32617 0.40349 0.0
C484 C 0.99537 0.23516 0.33042 0.0
C485 C 0.9267 0.33949 0.28696 0.0
C486 C 0.92538 0.34835 0.31972 0.0
C487 C 0.12303 0.29939 0.33152 0.0
C488 C 0.26069 0.47452 0.3863 0.0
C489 C 0.33339 0.51022 0.37954 0.0
C490 C 0.33699 0.49444 0.40911 0.0
C491 C 0.2658 0.46033 0.4164 0.0
C492 C 0.29507 0.50019 0.36794 0.0
C493 C 0.30346 0.46982 0.42741 0.0
C494 C 0.11329 0.37831 0.28581 0.0
C495 C 0.21943 0.46151 0.37465 0.0
H496 H 0.83847 0.13414 0.32258 0.0
H497 H 0.93634 0.25299 0.32328 0.0
H498 H 0.86452 0.20609 0.31893 0.0
H499 H 0.95828 0.15539 0.33526 0.0
H500 H 0.36609 0.50188 0.4184 0.0
H501 H 0.24061 0.44155 0.43169 0.0
H502 H 0.2921 0.51209 0.34499 0.0
H503 H 0.30667 0.45824 0.4504 0.0
Eu504 Eu 0.38691 0.08612 0.66869 0.0
C505 C 0.34789 0.22109 0.69935 0.0
N506 N 0.34206 0.18806 0.71577 0.0
C507 C 0.36035 0.22494 0.76569 0.0
C508 C 0.35886 0.25691 0.71597 0.0
C509 C 0.34699 0.18937 0.74872 0.0
C510 C 0.36617 0.25883 0.7493 0.0
C511 C 0.34438 0.25186 0.64889 0.0
C512 C 0.34072 0.2187 0.66601 0.0
C513 C 0.35366 0.2868 0.66575 0.0
C514 C 0.36071 0.28924 0.69917 0.0
Eu515 Eu 0.31178 0.12884 0.68448 0.0
N516 N 0.32888 0.18364 0.65047 0.0
C517 C 0.33708 0.24848 0.61546 0.0
C518 C 0.31951 0.17948 0.61822 0.0
C519 C 0.32467 0.21212 0.60005 0.0
H520 H 0.33898 0.16307 0.76274 0.0
H521 H 0.31791 0.20893 0.57439 0.0
H522 H 0.39602 0.06967 0.59083 0.0
H523 H 0.34826 0.98546 0.77287 0.0
H524 H 0.30774 0.15087 0.60659 0.0
H525 H 0.33999 0.27346 0.60149 0.0
H526 H 0.37536 0.0503 0.74588 0.0
H527 H 0.3645 0.22574 0.7917 0.0
H528 H 0.35579 0.3123 0.65311 0.0
H529 H 0.36806 0.31656 0.71179 0.0
H530 H 0.37878 0.0126 0.55463 0.0
H531 H 0.37517 0.28599 0.76276 0.0
H532 H 0.32513 0.92442 0.74031 0.0
N533 N 0.37256 0.03391 0.63282 0.0
C534 C 0.35788 0.99727 0.64627 0.0
C535 C 0.37196 0.00771 0.58023 0.0
C536 C 0.3477 0.96378 0.62667 0.0
C537 C 0.38116 0.0399 0.60062 0.0
C538 C 0.3545 0.96935 0.59322 0.0
N539 N 0.36563 0.02655 0.69825 0.0
C540 C 0.36452 0.02413 0.73125 0.0
C541 C 0.33921 0.95567 0.69439 0.0
C542 C 0.35423 0.99342 0.67985 0.0
C543 C 0.33658 0.95289 0.72822 0.0
C544 C 0.34959 0.9873 0.7467 0.0
H545 H 0.34743 0.94441 0.57738 0.0
H546 H 0.3237 0.89996 0.62636 0.0
H547 H 0.31588 0.89279 0.6856 0.0
O548 O 0.44078 0.0858 0.68331 0.0
O549 O 0.31925 0.04119 0.66978 0.0
O550 O 0.30072 0.07155 0.70734 0.0
O551 O 0.4403 0.11441 0.63812 0.0
O552 O 0.39281 0.11373 0.71792 0.0
O553 O 0.33326 0.11141 0.73125 0.0
O554 O 0.25002 0.10319 0.66704 0.0
O555 O 0.36882 0.1644 0.65616 0.0
O556 O 0.4093 0.14967 0.68507 0.0
O557 O 0.26995 0.14271 0.70852 0.0
O558 O 0.3005 0.09094 0.63868 0.0
O559 O 0.36407 0.10485 0.6251 0.0
C560 C 0.29236 0.04027 0.6899 0.0
C561 C 0.49052 0.09656 0.64483 0.0
C562 C 0.56003 0.11373 0.63904 0.0
C563 C 0.54729 0.07703 0.62366 0.0
C564 C 0.47836 0.05999 0.6296 0.0
C565 C 0.50672 0.05051 0.61877 0.0
C566 C 0.53146 0.1236 0.64927 0.0
C567 C 0.36822 0.11491 0.7393 0.0
C568 C 0.46134 0.10627 0.65822 0.0
C569 C 0.33202 0.92609 0.64107 0.0
C570 C 0.32766 0.92203 0.67482 0.0
C571 C 0.40357 0.17524 0.66882 0.0
C572 C 0.20052 0.11056 0.69675 0.0
C573 C 0.14538 0.1244 0.69919 0.0
C574 C 0.12311 0.08867 0.71662 0.0
C575 C 0.17796 0.07546 0.7143 0.0
C576 C 0.18432 0.13506 0.68932 0.0
C577 C 0.13931 0.0645 0.72406 0.0
C578 C 0.32605 0.08995 0.61786 0.0
C579 C 0.24183 0.12373 0.68743 0.0
H580 H 0.56881 0.06879 0.61567 0.0
H581 H 0.44709 0.03853 0.62659 0.0
H582 H 0.49722 0.02221 0.60706 0.0
H583 H 0.541 0.15158 0.66166 0.0
H584 H 0.09339 0.07974 0.72517 0.0
H585 H 0.19044 0.05691 0.72065 0.0
H586 H 0.2021 0.1624 0.67586 0.0
H587 H 0.12193 0.03739 0.73778 0.0
Eu588 Eu 0.94607 0.31659 0.66308 0.0
C589 C 0.8117 0.14266 0.70243 0.0
N590 N 0.8444 0.16961 0.71911 0.0
C591 C 0.80705 0.15185 0.76861 0.0
C592 C 0.77532 0.11856 0.71861 0.0
C593 C 0.84272 0.1745 0.75172 0.0
C594 C 0.77326 0.12358 0.75203 0.0
C595 C 0.7808 0.1118 0.65123 0.0
C596 C 0.81451 0.13952 0.66898 0.0
C597 C 0.74493 0.08694 0.66748 0.0
C598 C 0.74227 0.09016 0.70108 0.0
Eu599 Eu 0.90414 0.20141 0.68944 0.0
N600 N 0.85007 0.16314 0.65388 0.0
C601 C 0.78425 0.10923 0.61771 0.0
C602 C 0.85393 0.159 0.6214 0.0
C603 C 0.821 0.13283 0.60277 0.0
H604 H 0.8691 0.19481 0.76507 0.0
H605 H 0.82426 0.13013 0.57698 0.0
H606 H 0.95851 0.3378 0.58374 0.0
H607 H 0.05425 0.37717 0.76256 0.0
H608 H 0.88231 0.17439 0.60954 0.0
H609 H 0.75895 0.08853 0.60324 0.0
H610 H 0.98806 0.33805 0.73819 0.0
H611 H 0.80587 0.15564 0.79451 0.0
H612 H 0.7189 0.06528 0.65422 0.0
H613 H 0.71422 0.07104 0.71318 0.0
H614 H 0.01346 0.37792 0.54557 0.0
H615 H 0.74578 0.1057 0.76527 0.0
H616 H 0.11289 0.41699 0.72761 0.0
N617 N 0.99627 0.3537 0.62483 0.0
C618 C 0.03371 0.37647 0.63684 0.0
C619 C 0.01962 0.37735 0.5711 0.0
C620 C 0.06593 0.39995 0.61601 0.0
C621 C 0.98873 0.35415 0.59258 0.0
C622 C 0.05845 0.40015 0.58282 0.0
N623 N 1.00827 0.35362 0.68973 0.0
C624 C 0.01301 0.35447 0.72255 0.0
C625 C 0.07853 0.39984 0.68313 0.0
C626 C 0.03989 0.37665 0.67014 0.0
C627 C 0.08368 0.39956 0.71671 0.0
C628 C 0.05071 0.37703 0.7365 0.0
H629 H 0.08237 0.41818 0.56613 0.0
H630 H 0.12955 0.44079 0.6132 0.0
H631 H 0.14061 0.44053 0.67189 0.0
O632 O 0.92943 0.35635 0.68738 0.0
O633 O 0.99251 0.29572 0.66485 0.0
O634 O 0.96298 0.25216 0.70552 0.0
O635 O 0.93822 0.36047 0.63571 0.0
O636 O 0.91771 0.29816 0.71315 0.0
O637 O 0.92348 0.24495 0.73238 0.0
O638 O 0.90725 0.14771 0.67671 0.0
O639 O 0.86038 0.22388 0.69017 0.0
O640 O 0.88433 0.26708 0.64731 0.0
O641 O 0.91851 0.16941 0.72548 0.0
O642 O 0.9381 0.22298 0.64044 0.0
O643 O 0.92155 0.26955 0.6239 0.0
C644 C 0.99299 0.2706 0.686 0.0
C645 C 0.88929 0.3736 0.65613 0.0
C646 C 0.85153 0.40852 0.65908 0.0
C647 C 0.81721 0.37343 0.64916 0.0
C648 C 0.85483 0.33939 0.64547 0.0
C649 C 0.81895 0.3392 0.64231 0.0
C650 C 0.88774 0.40845 0.66258 0.0
C651 C 0.91854 0.27606 0.7371 0.0
C652 C 0.92652 0.37255 0.66055 0.0
C653 C 0.10444 0.42277 0.62889 0.0
C654 C 0.11073 0.42265 0.66233 0.0
C655 C 0.85543 0.24472 0.66758 0.0
C656 C 0.88241 0.09921 0.71926 0.0
C657 C 0.84886 0.02634 0.71638 0.0
C658 C 0.82837 0.0239 0.74507 0.0
C659 C 0.86189 0.09543 0.74844 0.0
C660 C 0.87567 0.06414 0.70313 0.0
C661 C 0.8348 0.0582 0.76089 0.0
C662 C 0.9371 0.24686 0.61776 0.0
C663 C 0.91113 0.1397 0.70666 0.0
H664 H 0.7891 0.37273 0.64605 0.0
H665 H 0.85574 0.31289 0.63932 0.0
H666 H 0.79248 0.3125 0.63426 0.0
H667 H 0.91435 0.43515 0.67053 0.0
H668 H 0.80766 0.9952 0.75552 0.0
H669 H 0.86699 0.12127 0.76213 0.0
H670 H 0.89163 0.06622 0.68098 0.0
H671 H 0.81916 0.05594 0.78324 0.0
Eu672 Eu 0.71896 0.64514 0.66201 0.0
C673 C 0.89827 0.70556 0.70518 0.0
N674 N 0.87491 0.71791 0.71971 0.0
C675 C 0.90265 0.718 0.77156 0.0
C676 C 0.92429 0.69793 0.72374 0.0
C677 C 0.87687 0.72463 0.75225 0.0
C678 C 0.92636 0.70445 0.75728 0.0
C679 C 0.91748 0.68418 0.6565 0.0
C680 C 0.89492 0.69892 0.6718 0.0
C681 C 0.94333 0.67646 0.67497 0.0
C682 C 0.94684 0.68346 0.70845 0.0
Eu683 Eu 0.83255 0.72835 0.68581 0.0
N684 N 0.86879 0.70567 0.65455 0.0
C685 C 0.91322 0.67735 0.62307 0.0
C686 C 0.86599 0.70069 0.62171 0.0
C687 C 0.88765 0.68598 0.60559 0.0
H688 H 0.85859 0.7352 0.76326 0.0
H689 H 0.88481 0.68158 0.57959 0.0
H690 H 0.7015 0.63005 0.58272 0.0
H691 H 0.6456 0.68737 0.75441 0.0
H692 H 0.84771 0.70835 0.60746 0.0
H693 H 0.92989 0.66587 0.61047 0.0
H694 H 0.69287 0.66795 0.73395 0.0
H695 H 0.90413 0.72322 0.79743 0.0
H696 H 0.96071 0.66498 0.66359 0.0
H697 H 0.96683 0.67722 0.72235 0.0
H698 H 0.65524 0.63108 0.5421 0.0
H699 H 0.94604 0.69898 0.77235 0.0
H700 H 0.59995 0.69425 0.71644 0.0
N701 N 0.67972 0.65035 0.62107 0.0
C702 C 0.65259 0.66063 0.63075 0.0
C703 C 0.65452 0.64 0.56683 0.0
C704 C 0.6257 0.6618 0.60837 0.0
C705 C 0.68096 0.63987 0.58975 0.0
C706 C 0.62675 0.65102 0.57617 0.0
N707 N 0.67558 0.66501 0.68466 0.0
C708 C 0.67371 0.67126 0.71701 0.0
C709 C 0.62235 0.67863 0.67418 0.0
C710 C 0.65035 0.66807 0.66342 0.0
C711 C 0.62099 0.686 0.70724 0.0
C712 C 0.64672 0.68217 0.72874 0.0
H713 H 0.6059 0.65063 0.55845 0.0
H714 H 0.57713 0.67373 0.60204 0.0
H715 H 0.57466 0.68914 0.65956 0.0
O716 O 0.67621 0.58892 0.68565 0.0
O717 O 0.73321 0.71072 0.66093 0.0
O718 O 0.77848 0.73081 0.70098 0.0
O719 O 0.6905 0.58948 0.63509 0.0
O720 O 0.73681 0.64227 0.71418 0.0
O721 O 0.79211 0.70211 0.73115 0.0
O722 O 0.88482 0.78374 0.66848 0.0
O723 O 0.81541 0.6644 0.69472 0.0
O724 O 0.7733 0.6389 0.65207 0.0
O725 O 0.85761 0.78286 0.71407 0.0
O726 O 0.80779 0.73381 0.63579 0.0
O727 O 0.76415 0.66931 0.62163 0.0
C728 C 0.75784 0.7388 0.68081 0.0
C729 C 0.62712 0.53922 0.65149 0.0
C730 C 0.57234 0.47057 0.64975 0.0
C731 C 0.54987 0.48333 0.63174 0.0
C732 C 0.60366 0.55121 0.63431 0.0
C733 C 0.5654 0.52338 0.62431 0.0
C734 C 0.61136 0.49878 0.65927 0.0
C735 C 0.76007 0.66664 0.7371 0.0
C736 C 0.66886 0.56803 0.6592 0.0
C737 C 0.59788 0.67246 0.61896 0.0
C738 C 0.59639 0.68111 0.65173 0.0
C739 C 0.79468 0.63488 0.67486 0.0
C740 C 0.92698 0.82884 0.71015 0.0
C741 C 1.0001 0.86716 0.70938 0.0
C742 C 0.9997 0.88093 0.74073 0.0
C743 C 0.92786 0.84361 0.74149 0.0
C744 C 0.96359 0.84102 0.6939 0.0
C745 C 0.96387 0.86925 0.7566 0.0
C746 C 0.78305 0.70733 0.61453 0.0
C747 C 0.8874 0.8035 0.69469 0.0
H748 H 0.52016 0.46224 0.62329 0.0
H749 H 0.61498 0.58186 0.62805 0.0
H750 H 0.5478 0.53288 0.61058 0.0
H751 H 0.62929 0.48941 0.67275 0.0
H752 H 0.02738 0.90118 0.75288 0.0
H753 H 0.90051 0.83574 0.75434 0.0
H754 H 0.96375 0.83068 0.66954 0.0
H755 H 0.96398 0.88042 0.78066 0.0
C756 C 0.4537 0.56217 0.02043 0.0
C757 C 0.47682 0.56573 0.99316 0.0
C758 C 0.41274 0.54834 0.0176 0.0
C759 C 0.39417 0.5365 0.98685 0.0
C760 C 0.41769 0.54096 0.95909 0.0
C761 C 0.45894 0.55606 0.96253 0.0
C762 C 0.38908 0.54439 0.04783 0.0
C763 C 0.39891 0.5274 0.92608 0.0
C764 C 0.28712 0.45176 0.98453 0.0
C765 C 0.26614 0.47113 0.97614 0.0
C766 C 0.32847 0.47289 0.98852 0.0
C767 C 0.34977 0.51467 0.98437 0.0
C768 C 0.32863 0.53484 0.97731 0.0
C769 C 0.28691 0.51279 0.97326 0.0
C770 C 0.34954 0.45023 0.99623 0.0
C771 C 0.3502 0.57947 0.97343 0.0
H772 H 0.4676 0.56946 0.04418 0.0
H773 H 0.47672 0.55806 0.94156 0.0
H774 H 0.36802 0.55542 0.04341 0.0
H775 H 0.37121 0.51256 0.05476 0.0
H776 H 0.40866 0.561 0.06858 0.0
H777 H 0.42152 0.53577 0.9066 0.0
H778 H 0.37951 0.49453 0.92606 0.0
H779 H 0.37978 0.54035 0.92037 0.0
H780 H 0.2711 0.41971 0.98767 0.0
H781 H 0.27075 0.52797 0.96697 0.0
H782 H 0.36731 0.46217 0.0187 0.0
H783 H 0.37034 0.45445 0.97619 0.0
H784 H 0.32866 0.41784 0.99952 0.0
H785 H 0.36895 0.59395 0.99508 0.0
H786 H 0.32933 0.59096 0.96995 0.0
H787 H 0.37045 0.58826 0.9522 0.0
C788 C 0.43143 0.88861 0.01966 0.0
C789 C 0.44962 0.91992 0.99728 0.0
C790 C 0.44273 0.85938 0.02157 0.0
C791 C 0.47351 0.86227 1.00118 0.0
C792 C 0.49017 0.89259 0.97734 0.0
C793 C 0.47737 0.92042 0.9753 0.0
C794 C 0.42319 0.82674 0.04648 0.0
C795 C 0.52345 0.89736 0.95531 0.0
C796 C 0.54768 0.83258 0.02945 0.0
C797 C 0.54187 0.80352 0.00658 0.0
C798 C 0.52333 0.84971 0.02988 0.0
C799 C 0.49215 0.8373 0.00688 0.0
C800 C 0.48339 0.80491 0.9861 0.0
C801 C 0.50869 0.78864 0.98588 0.0
C802 C 0.53161 0.88111 0.05505 0.0
C803 C 0.44818 0.78843 0.96332 0.0
H804 H 0.40941 0.88767 0.03639 0.0
H805 H 0.49029 0.94362 0.95709 0.0
H806 H 0.41941 0.79825 0.0371 0.0
H807 H 0.44233 0.83502 0.06838 0.0
H808 H 0.39361 0.82214 0.05384 0.0
H809 H 0.53221 0.92177 0.93743 0.0
H810 H 0.54993 0.90367 0.97008 0.0
H811 H 0.51445 0.86952 0.94175 0.0
H812 H 0.57205 0.84272 0.04663 0.0
H813 H 0.50344 0.76552 0.96857 0.0
H814 H 0.52289 0.90287 0.04688 0.0
H815 H 0.56356 0.89728 0.06205 0.0
H816 H 0.51423 0.86633 0.0772 0.0
H817 H 0.42181 0.7866 0.97558 0.0
H818 H 0.4403 0.75841 0.95427 0.0
H819 H 0.45525 0.80846 0.94212 0.0
C820 C 0.21612 0.74827 0.99498 0.0
C821 C 0.25544 0.75546 0.99386 0.0
C822 C 0.18376 0.70976 1.00052 0.0
C823 C 0.19037 0.67712 1.00324 0.0
C824 C 0.22987 0.68424 1.00308 0.0
C825 C 0.26173 0.72326 0.99986 0.0
C826 C 0.14251 0.70401 1.00327 0.0
C827 C 0.23859 0.65041 0.00482 0.0
C828 C 0.11682 0.57247 0.03281 0.0
C829 C 0.10043 0.55293 1.0035 0.0
C830 C 0.14399 0.61368 0.03341 0.0
C831 C 0.15647 0.63522 1.00384 0.0
C832 C 0.1395 0.61535 0.97423 0.0
C833 C 0.11098 0.57467 0.97456 0.0
C834 C 0.15888 0.63424 0.06563 0.0
C835 C 0.1525 0.63662 0.94202 0.0
H836 H 0.21017 0.77233 0.9907 0.0
H837 H 0.29171 0.72807 1.00119 0.0
H838 H 0.12319 0.68374 0.98395 0.0
H839 H 0.12973 0.69003 0.02699 0.0
H840 H 0.14227 0.73245 1.0015 0.0
H841 H 0.27094 0.66085 1.00289 0.0
H842 H 0.22744 0.63403 0.02801 0.0
H843 H 0.22285 0.62897 0.98488 0.0
H844 H 0.1074 0.55576 0.0553 0.0
H845 H 0.0976 0.55948 0.952 0.0
H846 H 0.15036 0.65745 0.06843 0.0
H847 H 0.19186 0.64945 0.06672 0.0
H848 H 0.14644 0.61321 0.08637 0.0
H849 H 0.14632 0.66157 0.94118 0.0
H850 H 0.13709 0.61652 0.92123 0.0
H851 H 0.18513 0.64948 0.93899 0.0
C852 C 0.41701 0.12851 0.02659 0.0
C853 C 0.44149 0.11477 0.01415 0.0
C854 C 0.43027 0.16957 0.0276 0.0
C855 C 0.46836 0.19723 0.01497 0.0
C856 C 0.49213 0.18306 1.00085 0.0
C857 C 0.47867 0.14213 1.00118 0.0
C858 C 0.4042 0.18343 0.0433 0.0
C859 C 0.53225 0.21123 0.98613 0.0
C860 C 0.48987 0.30374 1.00279 0.0
C861 C 0.50951 0.32156 0.0318 0.0
C862 C 0.47769 0.2636 0.99618 0.0
C863 C 0.48491 0.24091 0.01938 0.0
C864 C 0.50677 0.25967 0.04782 0.0
C865 C 0.51879 0.29971 0.05362 0.0
C866 C 0.45517 0.24488 0.96529 0.0
C867 C 0.51504 0.23682 0.07337 0.0
H868 H 0.38819 0.10734 0.03655 0.0
H869 H 0.49729 0.13158 0.99101 0.0
H870 H 0.4192 0.2011 0.06529 0.0
H871 H 0.39964 0.20317 0.02652 0.0
H872 H 0.37463 0.15821 0.05042 0.0
H873 H 0.54716 0.19542 0.97619 0.0
H874 H 0.52867 0.22855 0.96631 0.0
H875 H 0.55197 0.23292 0.00461 0.0
H876 H 0.48202 0.32046 0.98623 0.0
H877 H 0.53335 0.31337 0.07633 0.0
H878 H 0.42376 0.22278 0.97115 0.0
H879 H 0.46814 0.22868 0.95281 0.0
H880 H 0.45543 0.2673 0.94836 0.0
H881 H 0.48708 0.2171 0.08669 0.0
H882 H 0.53781 0.2569 0.09114 0.0
H883 H 0.52534 0.21761 0.06219 0.0
C884 C 0.72422 0.2608 1.00218 0.0
C885 C 0.70275 0.22524 0.01967 0.0
C886 C 0.76592 0.27988 0.9995 0.0
C887 C 0.78698 0.2634 0.01511 0.0
C888 C 0.76525 0.22618 0.03111 0.0
C889 C 0.72335 0.20742 0.03305 0.0
C890 C 0.78763 0.31902 0.98161 0.0
C891 C 0.78634 0.20742 0.048 0.0
C892 C 0.89901 0.31485 0.99747 0.0
C893 C 0.91433 0.34315 0.02248 0.0
C894 C 0.8577 0.28744 0.99527 0.0
C895 C 0.83132 0.28813 0.01879 0.0
C896 C 0.84714 0.31504 0.04509 0.0
C897 C 0.88821 0.34206 0.04657 0.0
C898 C 0.84212 0.25864 0.96728 0.0
C899 C 0.82045 0.31646 0.07113 0.0
H900 H 0.70838 0.27436 0.99135 0.0
H901 H 0.70693 0.17992 0.04661 0.0
H902 H 0.80525 0.34323 0.99907 0.0
H903 H 0.80886 0.31847 0.96389 0.0
H904 H 0.76692 0.32623 0.96857 0.0
H905 H 0.76555 0.17581 0.05439 0.0
H906 H 0.81053 0.20904 0.03257 0.0
H907 H 0.80026 0.22401 0.07065 0.0
H908 H 0.91896 0.31521 0.9789 0.0
H909 H 0.89971 0.36333 0.06631 0.0
H910 H 0.82175 0.26439 0.95227 0.0
H911 H 0.82451 0.22771 0.97648 0.0
H912 H 0.86648 0.26088 0.95164 0.0
H913 H 0.79827 0.32308 0.06012 0.0
H914 H 0.83741 0.33932 0.08988 0.0
H915 H 0.80364 0.28704 0.08318 0.0
C916 C 0.81331 0.53295 0.03771 0.0
C917 C 0.80516 0.50256 0.0155 0.0
C918 C 0.79552 0.5567 0.03437 0.0
C919 C 0.76932 0.55001 0.00804 0.0
C920 C 0.76363 0.52133 0.98421 0.0
C921 C 0.78133 0.49766 0.98842 0.0
C922 C 0.80204 0.58653 0.06053 0.0
C923 C 0.73611 0.51321 0.95574 0.0
C924 C 0.6794 0.55964 0.02813 0.0
C925 C 0.68756 0.59517 0.01264 0.0
C926 C 0.70541 0.54466 0.02622 0.0
C927 C 0.74172 0.56636 0.00921 0.0
C928 C 0.75088 0.60278 0.99388 0.0
C929 C 0.72347 0.6167 0.99557 0.0
C930 C 0.69367 0.50526 0.0424 0.0
C931 C 0.78962 0.62703 0.97597 0.0
H932 H 0.83173 0.53658 0.05868 0.0
H933 H 0.77525 0.47417 0.97122 0.0
H934 H 0.80717 0.6149 0.04971 0.0
H935 H 0.77494 0.57476 0.07588 0.0
H936 H 0.82771 0.59272 0.07638 0.0
H937 H 0.74034 0.49546 0.93666 0.0
H938 H 0.70473 0.49639 0.96416 0.0
H939 H 0.74096 0.54144 0.94488 0.0
H940 H 0.65215 0.54291 0.0417 0.0
H941 H 0.7301 0.64426 0.98365 0.0
H942 H 0.71586 0.5094 0.06124 0.0
H943 H 0.69324 0.48391 0.02431 0.0
H944 H 0.66381 0.49169 0.05398 0.0
H945 H 0.8148 0.63796 0.99335 0.0
H946 H 0.79102 0.653 0.96333 0.0
H947 H 0.79379 0.60828 0.95789 0.0
C948 C 0.95539 0.78412 0.32344 0.0
C949 C 0.93423 0.80445 0.32014 0.0
C950 C 0.99682 0.80441 0.32633 0.0
C951 C 0.01819 0.8464 0.32823 0.0
C952 C 0.99693 0.86736 0.32731 0.0
C953 C 0.95517 0.84619 0.32285 0.0
C954 C 0.01716 0.78016 0.32792 0.0
C955 C 0.01845 0.91209 0.33017 0.0
C956 C 0.1243 0.88894 0.35984 0.0
C957 C 0.14563 0.8962 0.33082 0.0
C958 C 0.08289 0.87408 0.35953 0.0
C959 C 0.06274 0.86777 0.32949 0.0
C960 C 0.08477 0.87681 0.3002 0.0
C961 C 0.12582 0.89022 0.30123 0.0
C962 C 0.06048 0.86306 0.39123 0.0
C963 C 0.06453 0.87 0.26766 0.0
H964 H 0.93955 0.75186 0.32317 0.0
H965 H 0.93924 0.8624 0.32058 0.0
H966 H 0.04686 0.79543 0.31618 0.0
H967 H 0.02079 0.77533 0.35384 0.0
H968 H 0.99905 0.75053 0.31634 0.0
H969 H 0.99751 0.92372 0.33183 0.0
H970 H 0.03791 0.92175 0.35194 0.0
H971 H 0.03796 0.92562 0.30873 0.0
H972 H 0.1397 0.89311 0.38273 0.0
H973 H 0.14246 0.89572 0.27885 0.0
H974 H 0.04255 0.83016 0.39323 0.0
H975 H 0.03953 0.87469 0.39219 0.0
H976 H 0.08084 0.87451 0.41246 0.0
H977 H 0.04492 0.83756 0.26369 0.0
H978 H 0.08628 0.88234 0.2474 0.0
H979 H 0.04545 0.88381 0.26707 0.0
C980 C 0.16964 0.27475 0.31928 0.0
C981 C 0.13078 0.26633 0.32543 0.0
C982 C 0.17911 0.24454 0.31639 0.0
C983 C 0.14858 0.20433 0.31929 0.0
C984 C 0.10873 0.19527 0.32457 0.0
C985 C 0.10024 0.22652 0.32757 0.0
C986 C 0.22203 0.25588 0.31051 0.0
C987 C 0.07536 0.15277 0.32765 0.0
C988 C 0.18228 0.13792 0.28061 0.0
C989 C 0.19871 0.12875 0.30722 0.0
C990 C 0.16222 0.15931 0.28462 0.0
C991 C 0.15917 0.17246 0.31596 0.0
C992 C 0.17313 0.16064 0.34321 0.0
C993 C 0.1926 0.13865 0.33851 0.0
C994 C 0.1476 0.17097 0.25493 0.0
C995 C 0.17077 0.17425 0.37698 0.0
H996 H 0.19275 0.30508 0.31627 0.0
H997 H 0.07003 0.2199 0.33238 0.0
H998 H 0.22441 0.2409 0.28844 0.0
H999 H 0.24181 0.28846 0.30748 0.0
H1000 H 0.23314 0.24589 0.33124 0.0
H1001 H 0.04567 0.15056 0.32893 0.0
H1002 H 0.07566 0.13489 0.3068 0.0
H1003 H 0.07973 0.13935 0.34994 0.0
H1004 H 0.18706 0.13018 0.25642 0.0
H1005 H 0.20563 0.13181 0.35906 0.0
H1006 H 0.16806 0.20293 0.24954 0.0
H1007 H 0.11755 0.16695 0.25922 0.0
H1008 H 0.14636 0.15333 0.23331 0.0
H1009 H 0.19283 0.20643 0.37943 0.0
H1010 H 0.1772 0.15777 0.39586 0.0
H1011 H 0.14085 0.17042 0.38155 0.0
C1012 C 0.89735 0.07607 0.31711 0.0
C1013 C 0.87994 0.09558 0.33301 0.0
C1014 C 0.8792 0.03429 0.31791 0.0
C1015 C 0.84253 0.01163 0.33446 0.0
C1016 C 0.82624 0.03148 0.35205 0.0
C1017 C 0.84531 0.07305 0.35132 0.0
C1018 C 0.89887 0.01434 0.3007 0.0
C1019 C 0.78869 0.00947 0.37192 0.0
C1020 C 0.76709 0.90748 0.30636 0.0
C1021 C 0.76593 0.88479 0.3331 0.0
C1022 C 0.79301 0.94883 0.30591 0.0
C1023 C 0.81985 0.96737 0.33207 0.0
C1024 C 0.82068 0.9438 0.35798 0.0
C1025 C 0.7929 0.90286 0.3586 0.0
C1026 C 0.78904 0.97296 0.27894 0.0
C1027 C 0.84916 0.96208 0.38603 0.0
H1028 H 0.92445 0.0933 0.30322 0.0
H1029 H 0.83259 0.08798 0.36483 0.0
H1030 H 0.89974 0.9918 0.31677 0.0
H1031 H 0.88128 0.99852 0.27892 0.0
H1032 H 0.92974 0.03605 0.29295 0.0
H1033 H 0.77154 0.02537 0.3715 0.0
H1034 H 0.7692 0.97854 0.36353 0.0
H1035 H 0.7969 0.00839 0.39753 0.0
H1036 H 0.74576 0.89331 0.28692 0.0
H1037 H 0.79161 0.8851 0.3794 0.0
H1038 H 0.81857 0.99366 0.26827 0.0
H1039 H 0.77688 0.99124 0.28899 0.0
H1040 H 0.76888 0.95389 0.25932 0.0
H1041 H 0.879 0.98524 0.37739 0.0
H1042 H 0.85235 0.93933 0.4 0.0
H1043 H 0.83777 0.97651 0.40269 0.0
C1044 C 0.21556 0.63681 0.33576 0.0
C1045 C 0.20356 0.65894 0.35475 0.0
C1046 C 0.19147 0.59534 0.33259 0.0
C1047 C 0.15448 0.57522 0.34908 0.0
C1048 C 0.14104 0.59774 0.3666 0.0
C1049 C 0.16566 0.63941 0.36907 0.0
C1050 C 0.20701 0.5728 0.31345 0.0
C1051 C 0.10204 0.57753 0.38478 0.0
C1052 C 0.08662 0.46398 0.33169 0.0
C1053 C 0.09961 0.44683 0.3552 0.0
C1054 C 0.10369 0.50571 0.32943 0.0
C1055 C 0.13332 0.53078 0.35202 0.0
C1056 C 0.1445 0.51334 0.37706 0.0
C1057 C 0.12752 0.47189 0.37835 0.0
C1058 C 0.091 0.52302 0.30227 0.0
C1059 C 0.17562 0.53854 0.40196 0.0
H1060 H 0.24471 0.65185 0.32442 0.0
H1061 H 0.15634 0.65633 0.38392 0.0
H1062 H 0.2158 0.55626 0.33036 0.0
H1063 H 0.18345 0.55065 0.2973 0.0
H1064 H 0.23335 0.59294 0.2985 0.0
H1065 H 0.09331 0.59913 0.39359 0.0
H1066 H 0.07789 0.55519 0.36917 0.0
H1067 H 0.10477 0.56144 0.40601 0.0
H1068 H 0.06366 0.4451 0.31479 0.0
H1069 H 0.13686 0.45916 0.39743 0.0
H1070 H 0.11707 0.54235 0.28681 0.0
H1071 H 0.07969 0.54198 0.31235 0.0
H1072 H 0.06749 0.49962 0.28679 0.0
H1073 H 0.20478 0.55711 0.38984 0.0
H1074 H 0.1794 0.52029 0.42089 0.0
H1075 H 0.16743 0.55902 0.41396 0.0
C1076 C 0.38809 0.57918 0.36848 0.0
C1077 C 0.37092 0.53831 0.36272 0.0
C1078 C 0.42878 0.60543 0.36226 0.0
C1079 C 0.45287 0.59038 0.35005 0.0
C1080 C 0.43483 0.54952 0.34192 0.0
C1081 C 0.39415 0.52391 0.34864 0.0
C1082 C 0.44651 0.64868 0.37123 0.0
C1083 C 0.45908 0.53237 0.32817 0.0
C1084 C 0.55711 0.66654 0.32081 0.0
C1085 C 0.58066 0.67018 0.34785 0.0
C1086 C 0.51585 0.63958 0.32056 0.0
C1087 C 0.49726 0.61655 0.34856 0.0
C1088 C 0.52101 0.61993 0.37592 0.0
C1089 C 0.56236 0.64678 0.37525 0.0
C1090 C 0.49195 0.63746 0.29094 0.0
C1091 C 0.50251 0.59641 0.40647 0.0
H1092 H 0.3704 0.59017 0.38012 0.0
H1093 H 0.38103 0.49215 0.34478 0.0
H1094 H 0.46456 0.65472 0.39362 0.0
H1095 H 0.46662 0.66822 0.35184 0.0
H1096 H 0.42316 0.65672 0.37573 0.0
H1097 H 0.44001 0.5012 0.3198 0.0
H1098 H 0.47744 0.5507 0.3075 0.0
H1099 H 0.4798 0.53287 0.347 0.0
H1100 H 0.57025 0.68648 0.30051 0.0
H1101 H 0.58026 0.6506 0.39663 0.0
H1102 H 0.47458 0.65247 0.29613 0.0
H1103 H 0.47041 0.60607 0.28463 0.0
H1104 H 0.51133 0.65217 0.2696 0.0
H1105 H 0.48202 0.60556 0.41707 0.0
H1106 H 0.52523 0.60083 0.42497 0.0
H1107 H 0.48457 0.5642 0.4008 0.0
C1108 C 0.3742 0.92928 0.32085 0.0
C1109 C 0.35406 0.92618 0.34992 0.0
C1110 C 0.39879 0.91225 0.31777 0.0
C1111 C 0.4042 0.89263 0.34469 0.0
C1112 C 0.3854 0.89124 0.37453 0.0
C1113 C 0.36039 0.90766 0.37665 0.0
C1114 C 0.41741 0.9137 0.28533 0.0
C1115 C 0.39071 0.87128 0.4041 0.0
C1116 C 0.42485 0.80703 0.33838 0.0
C1117 C 0.46339 0.824 0.3514 0.0
C1118 C 0.40629 0.82979 0.3334 0.0
C1119 C 0.42677 0.87074 0.34172 0.0
C1120 C 0.46705 0.88879 0.35202 0.0
C1121 C 0.48491 0.86519 0.35682 0.0
C1122 C 0.36444 0.80937 0.31989 0.0
C1123 C 0.49052 0.93263 0.35974 0.0
H1124 H 0.36937 0.94341 0.3001 0.0
H1125 H 0.3451 0.90533 0.39926 0.0
H1126 H 0.44919 0.92229 0.28832 0.0
H1127 H 0.40179 0.88365 0.27421 0.0
H1128 H 0.41536 0.93487 0.26835 0.0
H1129 H 0.37182 0.87026 0.42476 0.0
H1130 H 0.3833 0.84042 0.39825 0.0
H1131 H 0.42232 0.88762 0.41194 0.0
H1132 H 0.40849 0.77535 0.33336 0.0
H1133 H 0.5148 0.87855 0.36671 0.0
H1134 H 0.36607 0.81371 0.29323 0.0
H1135 H 0.34637 0.82177 0.32982 0.0
H1136 H 0.34867 0.77681 0.3246 0.0
H1137 H 0.48631 0.95015 0.34044 0.0
H1138 H 0.52287 0.94336 0.36237 0.0
H1139 H 0.47955 0.93845 0.38277 0.0
C1140 C 0.79329 0.21038 0.63471 0.0
C1141 C 0.81406 0.2347 0.66098 0.0
C1142 C 0.75194 0.19462 0.63152 0.0
C1143 C 0.73127 0.2049 0.65443 0.0
C1144 C 0.75289 0.23163 0.67986 0.0
C1145 C 0.79386 0.24537 0.68331 0.0
C1146 C 0.73005 0.16497 0.60484 0.0
C1147 C 0.73256 0.24446 0.70425 0.0
C1148 C 0.62514 0.17704 0.63056 0.0
C1149 C 0.60301 0.14007 0.64598 0.0
C1150 C 0.66693 0.19944 0.63401 0.0
C1151 C 0.68672 0.18453 0.6535 0.0
C1152 C 0.66391 0.14834 0.67058 0.0
C1153 C 0.62246 0.12642 0.66641 0.0
C1154 C 0.69006 0.23826 0.61594 0.0
C1155 C 0.68357 0.13161 0.69187 0.0
H1156 H 0.809 0.20194 0.61766 0.0
H1157 H 0.8101 0.26412 0.70372 0.0
H1158 H 0.71072 0.13513 0.61566 0.0
H1159 H 0.71047 0.17321 0.59133 0.0
H1160 H 0.75073 0.16277 0.58744 0.0
H1161 H 0.75438 0.27093 0.71825 0.0
H1162 H 0.71131 0.25153 0.69206 0.0
H1163 H 0.71534 0.21982 0.72156 0.0
H1164 H 0.60996 0.18761 0.61482 0.0
H1165 H 0.60519 0.09798 0.67854 0.0
H1166 H 0.70861 0.23521 0.59694 0.0
H1167 H 0.7106 0.26212 0.6327 0.0
H1168 H 0.67019 0.24757 0.6042 0.0
H1169 H 0.7044 0.12688 0.67684 0.0
H1170 H 0.66181 0.10295 0.7034 0.0
H1171 H 0.70132 0.15318 0.71114 0.0
C1172 C 0.81763 0.44216 0.68423 0.0
C1173 C 0.84871 0.44477 0.66506 0.0
C1174 C 0.81068 0.47422 0.68673 0.0
C1175 C 0.83527 0.50981 0.66946 0.0
C1176 C 0.86777 0.51328 0.65109 0.0
C1177 C 0.87423 0.48069 0.64921 0.0
C1178 C 0.77617 0.4695 0.70705 0.0
C1179 C 0.89474 0.55082 0.63247 0.0
C1180 C 0.78898 0.57367 0.64879 0.0
C1181 C 0.80461 0.60257 0.67327 0.0
C1182 C 0.7992 0.54366 0.64697 0.0
C1183 C 0.82597 0.54275 0.66998 0.0
C1184 C 0.84208 0.57206 0.69453 0.0
C1185 C 0.83077 0.60115 0.69615 0.0
C1186 C 0.78104 0.51264 0.62063 0.0
C1187 C 0.87108 0.57257 0.71928 0.0
H1188 H 0.79813 0.41454 0.69677 0.0
H1189 H 0.89812 0.48269 0.6342 0.0
H1190 H 0.78665 0.49397 0.72502 0.0
H1191 H 0.75394 0.47139 0.6913 0.0
H1192 H 0.76112 0.44065 0.72022 0.0
H1193 H 0.9202 0.5498 0.62112 0.0
H1194 H 0.87744 0.55527 0.6131 0.0
H1195 H 0.90656 0.5771 0.6487 0.0
H1196 H 0.76866 0.57439 0.63108 0.0
H1197 H 0.84259 0.62288 0.7155 0.0
H1198 H 0.76318 0.48268 0.63165 0.0
H1199 H 0.80491 0.51233 0.60602 0.0
H1200 H 0.76147 0.51798 0.60417 0.0
H1201 H 0.88123 0.59771 0.73662 0.0
H1202 H 0.89759 0.57501 0.70685 0.0
H1203 H 0.85705 0.54427 0.73317 0.0
C1204 C 0.51433 0.40759 0.66896 0.0
C1205 C 0.554 0.42788 0.65862 0.0
C1206 C 0.49378 0.36635 0.67289 0.0
C1207 C 0.51332 0.34447 0.66708 0.0
C1208 C 0.55435 0.36502 0.65897 0.0
C1209 C 0.57432 0.40666 0.65467 0.0
C1210 C 0.4503 0.34592 0.68118 0.0
C1211 C 0.57652 0.34283 0.65338 0.0
C1212 C 0.45583 0.23687 0.69598 0.0
C1213 C 0.43446 0.2176 0.66797 0.0
C1214 C 0.48288 0.27808 0.69589 0.0
C1215 C 0.48941 0.30009 0.66683 0.0
C1216 C 0.46894 0.28015 0.63818 0.0
C1217 C 0.44116 0.23928 0.63927 0.0
C1218 C 0.50278 0.29833 0.72723 0.0
C1219 C 0.47509 0.30226 0.60662 0.0
H1220 H 0.4988 0.42396 0.67294 0.0
H1221 H 0.60516 0.42225 0.64686 0.0
H1222 H 0.43321 0.3272 0.66032 0.0
H1223 H 0.44416 0.32622 0.70247 0.0
H1224 H 0.43974 0.3672 0.68647 0.0
H1225 H 0.60914 0.36329 0.65097 0.0
H1226 H 0.57102 0.32186 0.67365 0.0
H1227 H 0.56538 0.3249 0.63088 0.0
H1228 H 0.45003 0.22005 0.71832 0.0
H1229 H 0.42448 0.22421 0.61765 0.0
H1230 H 0.48966 0.3163 0.736 0.0
H1231 H 0.53508 0.31898 0.7234 0.0
H1232 H 0.49891 0.27659 0.74646 0.0
H1233 H 0.46268 0.32247 0.60862 0.0
H1234 H 0.46038 0.28176 0.5859 0.0
H1235 H 0.50737 0.32088 0.60127 0.0
C1236 C 0.80123 0.80826 0.66096 0.0
C1237 C 0.76733 0.78068 0.67815 0.0
C1238 C 0.81471 0.84916 0.66194 0.0
C1239 C 0.79577 0.86349 0.68278 0.0
C1240 C 0.76174 0.83587 0.7007 0.0
C1241 C 0.74762 0.79471 0.69783 0.0
C1242 C 0.8506 0.87693 0.64187 0.0
C1243 C 0.74162 0.8499 0.72425 0.0
C1244 C 0.85741 0.96716 0.71871 0.0
C1245 C 0.84237 0.98846 0.70226 0.0
C1246 C 0.84346 0.92685 0.71184 0.0
C1247 C 0.81354 0.90727 0.68797 0.0
C1248 C 0.79998 0.92934 0.66993 0.0
C1249 C 0.81437 0.96971 0.67746 0.0
C1250 C 0.85927 0.90473 0.73134 0.0
C1251 C 0.76917 0.90986 0.64356 0.0
H1252 H 0.81832 0.79838 0.64723 0.0
H1253 H 0.72245 0.77364 0.71227 0.0
H1254 H 0.8481 0.90244 0.63256 0.0
H1255 H 0.87777 0.88892 0.65713 0.0
H1256 H 0.85456 0.86123 0.62094 0.0
H1257 H 0.71474 0.82477 0.73549 0.0
H1258 H 0.76285 0.86757 0.7438 0.0
H1259 H 0.73283 0.86969 0.71178 0.0
H1260 H 0.8786 0.98158 0.73825 0.0
H1261 H 0.80222 0.986 0.66516 0.0
H1262 H 0.87158 0.8909 0.71496 0.0
H1263 H 0.83461 0.88032 0.74523 0.0
H1264 H 0.88299 0.92446 0.74861 0.0
H1265 H 0.77871 0.89445 0.62615 0.0
H1266 H 0.76398 0.93167 0.63009 0.0
H1267 H 0.74053 0.88698 0.65432 0.0
C1268 C 0.05739 0.91801 0.67711 0.0
C1269 C 0.03961 0.8818 0.694 0.0
C1270 C 0.09886 0.93953 0.67182 0.0
C1271 C 0.12312 0.9246 0.684 0.0
C1272 C 0.10473 0.88649 0.69875 0.0
C1273 C 0.06323 0.86565 0.7037 0.0
C1274 C 0.11707 0.97993 0.65591 0.0
C1275 C 0.12916 0.86928 0.71211 0.0
C1276 C 0.23451 0.98071 0.66325 0.0
C1277 C 0.25026 0.00715 0.68948 0.0
C1278 C 0.19326 0.9531 0.66122 0.0
C1279 C 0.16738 0.95148 0.68622 0.0
C1280 C 0.18365 0.9766 0.71357 0.0
C1281 C 0.22465 1.00412 0.71475 0.0
C1282 C 0.17719 0.92634 0.63201 0.0
C1283 C 0.15759 0.97487 0.74149 0.0
H1284 H 0.03928 0.93095 0.67026 0.0
H1285 H 0.0496 0.83807 0.71738 0.0
H1286 H 0.13321 1.00334 0.67438 0.0
H1287 H 0.13909 0.98308 0.63726 0.0
H1288 H 0.09422 0.98527 0.6444 0.0
H1289 H 0.11052 0.83689 0.71708 0.0
H1290 H 0.15331 0.87409 0.69508 0.0
H1291 H 0.14338 0.88451 0.73516 0.0
H1292 H 0.25412 0.9825 0.64379 0.0
H1293 H 0.23658 0.02391 0.73543 0.0
H1294 H 0.15758 0.93408 0.61795 0.0
H1295 H 0.15865 0.89486 0.63969 0.0
H1296 H 0.20136 0.92889 0.61597 0.0
H1297 H 0.13341 0.97982 0.73258 0.0
H1298 H 0.17462 0.99733 0.7605 0.0
H1299 H 0.14325 0.94489 0.75276 0.0
C1300 C 0.08776 0.13374 0.68367 0.0
C1301 C 0.12808 0.15058 0.69231 0.0
C1302 C 0.06981 0.15729 0.68013 0.0
C1303 C 0.0926 0.19891 0.6853 0.0
C1304 C 0.13374 0.21643 0.69258 0.0
C1305 C 0.151 0.19211 0.69595 0.0
C1306 C 0.02599 0.13734 0.67193 0.0
C1307 C 0.1591 0.26065 0.69822 0.0
C1308 C 0.04502 0.26013 0.65837 0.0
C1309 C 0.02422 0.25913 0.68645 0.0
C1310 C 0.06859 0.24177 0.65773 0.0
C1311 C 0.0723 0.22313 0.68611 0.0
C1312 C 0.05387 0.22503 0.71515 0.0
C1313 C 0.02974 0.24249 0.71484 0.0
C1314 C 0.08733 0.24017 0.62619 0.0
C1315 C 0.05808 0.20696 0.74631 0.0
H1316 H 0.06996 0.10186 0.68007 0.0
H1317 H 0.1821 0.20552 0.70275 0.0
H1318 H 0.0093 0.13994 0.69275 0.0
H1319 H 0.02124 0.15238 0.65091 0.0
H1320 H 0.0132 0.10528 0.66614 0.0
H1321 H 0.19112 0.27015 0.70124 0.0
H1322 H 0.156 0.27737 0.67765 0.0
H1323 H 0.1487 0.269 0.72034 0.0
H1324 H 0.04126 0.27339 0.63649 0.0
H1325 H 0.01423 0.24215 0.73682 0.0
H1326 H 0.11765 0.24472 0.63006 0.0
H1327 H 0.08926 0.2629 0.60876 0.0
H1328 H 0.06895 0.21026 0.61526 0.0
H1329 H 0.04228 0.17406 0.74403 0.0
H1330 H 0.04558 0.21476 0.76745 0.0
H1331 H 0.08992 0.21714 0.75119 0.0
C1332 C 0.12013 0.3934 0.22577 0.0
C1333 C 0.10361 0.3937 0.25593 0.0
C1334 C 0.10736 0.40355 0.19692 0.0
C1335 C 0.07731 0.41437 0.19813 0.0
C1336 C 0.06056 0.41448 0.22861 0.0
C1337 C 0.07356 0.40375 0.2568 0.0
C1338 C 0.12482 0.40107 0.16493 0.0
C1339 C 0.02804 0.42491 0.23143 0.0
C1340 C 0.06903 0.47053 0.12442 0.0
C1341 C 0.03573 0.44058 0.10813 0.0
C1342 C 0.08169 0.46295 0.15441 0.0
C1343 C 0.06218 0.42383 0.16749 0.0
C1344 C 0.02832 0.39373 0.15091 0.0
C1345 C 0.01466 0.40289 0.12233 0.0
C1346 C 0.11679 0.49652 0.17154 0.0
C1347 C 1.00665 0.35132 0.16248 0.0
H1348 H 0.14237 0.38429 0.22463 0.0
H1349 H 0.05866 0.40134 0.27937 0.0
H1350 H 0.10082 0.3786 0.14924 0.0
H1351 H 0.13792 0.43006 0.15211 0.0
H1352 H 0.14822 0.39276 0.16795 0.0
H1353 H 0.01933 0.42537 0.25702 0.0
H1354 H 0.03804 0.45455 0.22041 0.0
H1355 H 1.00131 0.4029 0.21788 0.0
H1356 H 0.08586 0.49963 0.1132 0.0
H1357 H 0.98919 0.37951 0.10959 0.0
H1358 H 0.14232 0.49113 0.17133 0.0
H1359 H 0.1092 0.49785 0.1973 0.0
H1360 H 0.12627 0.52579 0.15996 0.0
H1361 H 0.99199 0.33023 0.1421 0.0
H1362 H 0.98292 0.34774 0.17941 0.0
H1363 H 0.02693 0.34321 0.17497 0.0
C1364 C 0.64929 0.7547 0.2207 0.0
C1365 C 0.64046 0.73552 0.2509 0.0
C1366 C 0.6388 0.73281 0.19142 0.0
C1367 C 0.61889 0.69053 0.19219 0.0
C1368 C 0.61032 0.67116 0.22275 0.0
C1369 C 0.62186 0.69384 0.25151 0.0
C1370 C 0.65005 0.755 0.1596 0.0
C1371 C 0.5897 0.6264 0.22523 0.0
C1372 C 0.5639 0.63601 0.11455 0.0
C1373 C 0.58989 0.62436 0.10144 0.0
C1374 C 0.57205 0.65596 0.14466 0.0
C1375 C 0.60826 0.66677 0.16112 0.0
C1376 C 0.63456 0.6552 0.14748 0.0
C1377 C 0.62438 0.63295 0.11863 0.0
C1378 C 0.54218 0.66596 0.15863 0.0
C1379 C 0.67412 0.66723 0.16275 0.0
H1380 H 0.66497 0.78696 0.22 0.0
H1381 H 0.6175 0.67876 0.27448 0.0
H1382 H 0.66991 0.74743 0.14575 0.0
H1383 H 0.62303 0.74581 0.14463 0.0
H1384 H 0.66549 0.78778 0.163 0.0
H1385 H 0.57976 0.61576 0.25039 0.0
H1386 H 0.56342 0.61239 0.2089 0.0
H1387 H 0.61047 0.61611 0.21756 0.0
H1388 H 0.53723 0.62956 0.10118 0.0
H1389 H 0.64493 0.62467 0.10825 0.0
H1390 H 0.55508 0.69871 0.15909 0.0
H1391 H 0.5351 0.65519 0.18405 0.0
H1392 H 0.51407 0.65257 0.1444 0.0
H1393 H 0.68956 0.69929 0.16905 0.0
H1394 H 0.69384 0.6617 0.14667 0.0
H1395 H 0.66882 0.64969 0.18518 0.0
C1396 C 0.35926 0.96061 0.1081 0.0
C1397 C 0.39983 0.97412 0.10168 0.0
C1398 C 0.34275 0.94916 0.1391 0.0
C1399 C 0.36588 0.94679 0.16453 0.0
C1400 C 0.40584 0.9566 0.15792 0.0
C1401 C 0.42279 0.97148 0.12691 0.0
C1402 C 0.30038 0.94005 0.14442 0.0
C1403 C 0.43041 0.95087 0.18346 0.0
C1404 C 0.33295 0.95941 0.2482 0.0
C1405 C 0.30105 0.92135 0.25492 0.0
C1406 C 0.35588 0.96781 0.21987 0.0
C1407 C 0.34835 0.93669 0.19808 0.0
C1408 C 0.31919 0.89707 0.20665 0.0
C1409 C 0.29558 0.88992 0.23476 0.0
C1410 C 0.38592 0.01071 0.21242 0.0
C1411 C 0.31167 0.86206 0.18585 0.0
H1412 H 0.33971 0.95922 0.08884 0.0
H1413 H 0.45325 0.97931 0.12226 0.0
H1414 H 0.28063 0.90758 0.1478 0.0
H1415 H 0.2983 0.95518 0.16654 0.0
H1416 H 0.28888 0.94952 0.12357 0.0
H1417 H 0.45812 0.95349 0.17321 0.0
H1418 H 0.43883 0.97344 0.20286 0.0
H1419 H 0.41268 0.92116 0.195 0.0
H1420 H 0.34059 0.98278 0.26546 0.0
H1421 H 0.27238 0.85988 0.24047 0.0
H1422 H 0.41185 0.01412 0.19859 0.0
H1423 H 0.39719 0.02848 0.23498 0.0
H1424 H 0.37127 0.02342 0.19733 0.0
H1425 H 0.28501 0.8533 0.17052 0.0
H1426 H 0.30522 0.83604 0.2013 0.0
H1427 H 0.33735 0.86881 0.16989 0.0
C1428 C 0.44106 0.09236 0.91911 0.0
C1429 C 0.43792 0.05474 0.91837 0.0
C1430 C 0.42896 0.10668 0.8925 0.0
C1431 C 0.41321 0.0828 0.86439 0.0
C1432 C 0.41057 0.04503 0.86344 0.0
C1433 C 0.4236 0.03185 0.89011 0.0
C1434 C 0.43242 0.14709 0.89465 0.0
C1435 C 0.39314 0.01808 0.83444 0.0
C1436 C 0.35203 0.09846 0.7988 0.0
C1437 C 0.38007 0.11498 0.77378 0.0
C1438 C 0.36288 0.09051 0.82945 0.0
C1439 C 0.40238 0.09818 0.8349 0.0
C1440 C 0.4313 0.11762 0.81041 0.0
C1441 C 0.41997 0.12625 0.78055 0.0
C1442 C 0.33099 0.07197 0.85494 0.0
C1443 C 0.47386 0.1271 0.81489 0.0
H1444 H 0.45188 0.11019 0.94081 0.0
H1445 H 0.42126 1.00283 0.8893 0.0
H1446 H 0.4515 0.16642 0.87468 0.0
H1447 H 0.40253 0.144 0.89165 0.0
H1448 H 0.44523 0.16205 0.91815 0.0
H1449 H 0.3915 0.9889 0.83796 0.0
H1450 H 0.36265 0.01274 0.82969 0.0
H1451 H 0.4114 0.03262 0.81259 0.0
H1452 H 0.32122 0.08984 0.79406 0.0
H1453 H 0.44228 0.13987 0.76167 0.0
H1454 H 0.31292 0.08692 0.85536 0.0
H1455 H 0.34323 0.07362 0.87956 0.0
H1456 H 0.31055 0.04041 0.84841 0.0
H1457 H 0.49361 0.14594 0.79497 0.0
H1458 H 0.47482 0.09899 0.8156 0.0
H1459 H 0.48594 0.14265 0.83827 0.0
C1460 C 1.00055 0.41463 0.89165 0.0
C1461 C 0.97563 0.40429 0.9189 0.0
C1462 C 0.98852 0.39115 0.86334 0.0
C1463 C 0.94991 0.35713 0.86155 0.0
C1464 C 0.92384 0.34771 0.8884 0.0
C1465 C 0.937 0.37127 0.91672 0.0
C1466 C 0.01753 0.40231 0.83554 0.0
C1467 C 0.88241 0.31199 0.88763 0.0
C1468 C 0.91204 0.3227 0.77553 0.0
C1469 C 0.92049 0.29179 0.7706 0.0
C1470 C 0.91998 0.34297 0.80529 0.0
C1471 C 0.93676 0.33226 0.8312 0.0
C1472 C 0.94305 0.29946 0.82705 0.0
C1473 C 0.93504 0.2798 0.79685 0.0
C1474 C 0.9117 0.37691 0.80858 0.0
C1475 C 0.96082 0.28634 0.85342 0.0
H1476 H 0.03001 0.44073 0.89274 0.0
H1477 H 0.91732 0.36317 0.93748 0.0
H1478 H 0.02162 0.37676 0.82929 0.0
H1479 H 1.00544 0.40936 0.81373 0.0
H1480 H 0.04713 0.42837 0.84131 0.0
H1481 H 0.86387 0.31213 0.90809 0.0
H1482 H 0.86719 0.31094 0.86454 0.0
H1483 H 0.88441 0.28448 0.88907 0.0
H1484 H 0.90034 0.33212 0.75566 0.0
H1485 H 0.94193 0.25618 0.79348 0.0
H1486 H 0.94021 0.40534 0.81136 0.0
H1487 H 0.89367 0.37287 0.83065 0.0
H1488 H 0.89564 0.37949 0.78722 0.0
H1489 H 0.99321 0.30005 0.84865 0.0
H1490 H 0.94787 0.25353 0.85296 0.0
H1491 H 0.95647 0.29519 0.87797 0.0
C1492 C 0.75267 0.68172 0.79575 0.0
C1493 C 0.74528 0.65396 0.77112 0.0
C1494 C 0.73258 0.66978 0.82591 0.0
C1495 C 0.70423 0.62905 0.83182 0.0
C1496 C 0.69839 0.60078 0.80759 0.0
C1497 C 0.71873 0.61349 0.77778 0.0
C1498 C 0.73992 0.70158 0.85025 0.0
C1499 C 0.66926 0.55704 0.81258 0.0
C1500 C 0.66565 0.59102 0.91807 0.0
C1501 C 0.62889 0.58993 0.91838 0.0
C1502 C 0.69068 0.60416 0.89044 0.0
C1503 C 0.67858 0.61601 0.86202 0.0
C1504 C 0.64096 0.61391 0.86201 0.0
C1505 C 0.61659 0.60062 0.88992 0.0
C1506 C 0.73053 0.6062 0.89189 0.0
C1507 C 0.62662 0.62634 0.83259 0.0
H1508 H 0.77257 0.71307 0.79093 0.0
H1509 H 0.71279 0.59154 0.75912 0.0
H1510 H 0.71923 0.71275 0.84481 0.0
H1511 H 0.73475 0.69025 0.87552 0.0
H1512 H 0.7708 0.72714 0.84828 0.0
H1513 H 0.67047 0.53844 0.79264 0.0
H1514 H 0.67544 0.54679 0.83586 0.0
H1515 H 0.63851 0.55209 0.81395 0.0
H1516 H 0.6754 0.58263 0.93977 0.0
H1517 H 0.58795 0.59922 0.88963 0.0
H1518 H 0.7547 0.63735 0.88789 0.0
H1519 H 0.73264 0.5878 0.87227 0.0
H1520 H 0.73557 0.59575 0.91554 0.0
H1521 H 0.64896 0.65725 0.82559 0.0
H1522 H 0.5976 0.62483 0.83687 0.0
H1523 H 0.62334 0.60684 0.81177 0.0
C1524 C 0.74893 0.78659 0.44311 0.0
C1525 C 0.70839 0.77139 0.43573 0.0
C1526 C 0.76122 0.77801 0.4727 0.0
C1527 C 0.73244 0.75329 0.49587 0.0
C1528 C 0.69152 0.73932 0.48915 0.0
C1529 C 0.68 0.74843 0.45925 0.0
C1530 C 0.80517 0.79467 0.47878 0.0
C1531 C 0.65939 0.71289 0.51258 0.0
C1532 C 0.7646 0.69796 0.55508 0.0
C1533 C 0.77298 0.72064 0.58353 0.0
C1534 C 0.75065 0.7077 0.52675 0.0
C1535 C 0.7455 0.74145 0.52642 0.0
C1536 C 0.75447 0.76473 0.55497 0.0
C1537 C 0.76784 0.75397 0.58299 0.0
C1538 C 0.74077 0.68142 0.49728 0.0
C1539 C 0.74926 0.80073 0.55612 0.0
H1540 H 0.77133 0.80464 0.42529 0.0
H1541 H 0.64863 0.73604 0.45376 0.0
H1542 H 0.81382 0.81079 0.50225 0.0
H1543 H 0.81172 0.76997 0.48046 0.0
H1544 H 0.82394 0.81534 0.45929 0.0
H1545 H 0.63171 0.71426 0.50883 0.0
H1546 H 0.65215 0.68177 0.5084 0.0
H1547 H 0.66924 0.72098 0.53807 0.0
H1548 H 0.76817 0.67199 0.55519 0.0
H1549 H 0.77286 0.77099 0.60484 0.0
H1550 H 0.75951 0.69898 0.47649 0.0
H1551 H 0.70919 0.66989 0.49029 0.0
H1552 H 0.74545 0.65577 0.50153 0.0
H1553 H 0.76697 0.82192 0.53657 0.0
H1554 H 0.75856 0.81645 0.57979 0.0
H1555 H 0.71752 0.79152 0.55181 0.0
C1556 C 0.26833 0.94167 0.46482 0.0
C1557 C 0.255 0.95545 0.43896 0.0
C1558 C 0.27667 0.96068 0.49542 0.0
C1559 C 0.27238 0.99468 0.49997 0.0
C1560 C 0.25703 0.00725 0.47435 0.0
C1561 C 0.24809 0.98728 0.44457 0.0
C1562 C 0.29227 0.94555 0.52204 0.0
C1563 C 0.25171 0.0431 0.4778 0.0
C1564 C 0.27177 0.03602 0.58406 0.0
C1565 C 0.31107 0.06773 0.58677 0.0
C1566 C 0.25886 0.01172 0.55619 0.0
C1567 C 0.28593 0.01895 0.53048 0.0
C1568 C 0.32525 0.0517 0.53272 0.0
C1569 C 0.33699 0.0761 0.56044 0.0
C1570 C 0.21639 0.97792 0.55448 0.0
C1571 C 0.35505 0.06095 0.50582 0.0
H1572 H 0.27391 0.91727 0.46086 0.0
H1573 H 0.23709 0.99791 0.42503 0.0
H1574 H 0.32527 0.96163 0.52073 0.0
H1575 H 0.28342 0.95055 0.5464 0.0
H1576 H 0.28155 0.91329 0.51909 0.0
H1577 H 0.2373 0.04767 0.4562 0.0
H1578 H 0.23338 0.03987 0.49947 0.0
H1579 H 0.28119 0.07024 0.48133 0.0
H1580 H 0.25125 0.02963 0.604 0.0
H1581 H 0.367 0.10131 0.56185 0.0
H1582 H 0.21607 0.94924 0.55655 0.0
H1583 H 0.2027 0.97783 0.53082 0.0
H1584 H 0.19773 0.97969 0.57408 0.0
H1585 H 0.35723 0.03417 0.5001 0.0
H1586 H 0.38521 0.08567 0.51224 0.0
H1587 H 0.34489 0.06924 0.4835 0.0
C1588 C 0.98586 0.24071 0.58056 0.0
C1589 C 0.95615 0.25086 0.58527 0.0
C1590 C 1.00809 0.25052 0.55143 0.0
C1591 C 1.00104 0.27156 0.52656 0.0
C1592 C 0.96971 0.27998 0.53061 0.0
C1593 C 0.94695 0.26836 0.55932 0.0
C1594 C 0.04007 0.23954 0.5477 0.0
C1595 C 0.96084 0.3023 0.50497 0.0
C1596 C 0.08207 0.33487 0.46411 0.0
C1597 C 0.06807 0.3112 0.43616 0.0
C1598 C 0.06174 0.32182 0.49403 0.0
C1599 C 0.02586 0.28444 0.4961 0.0
C1600 C 0.01251 0.25989 0.46824 0.0
C1601 C 0.03377 0.27334 0.43895 0.0
C1602 C 0.07923 0.34896 0.52288 0.0
C1603 C 0.97531 0.2194 0.46917 0.0
H1604 H 0.99247 0.22598 0.59989 0.0
H1605 H 0.92275 0.27453 0.56194 0.0
H1606 H 0.03918 0.2275 0.52313 0.0
H1607 H 0.06969 0.26668 0.5507 0.0
H1608 H 0.03692 0.21704 0.56588 0.0
H1609 H 0.93879 0.31068 0.51337 0.0
H1610 H 0.9886 0.32979 0.49786 0.0
H1611 H 0.94892 0.28364 0.48294 0.0
H1612 H 0.10863 0.36398 0.46264 0.0
H1613 H 0.02268 0.25418 0.41794 0.0
H1614 H 0.10978 0.35431 0.52743 0.0
H1615 H 0.06162 0.33705 0.5454 0.0
H1616 H 0.08212 0.37827 0.51722 0.0
H1617 H 0.97727 0.20139 0.48925 0.0
H1618 H 0.97029 0.20281 0.44609 0.0
H1619 H 0.94894 0.22269 0.47394 0.0
loop_
_geom_bond_atom_site_label_1
_geom_bond_atom_site_label_2
_geom_bond_distance
_geom_bond_site_symmetry_2
_ccdc_geom_bond_type
Eu0 N29 2.600 . S
Eu0 N35 2.562 1_556 S
Eu0 O44 2.462 1_556 S
Eu0 O45 2.373 1_455 S
Eu0 O47 2.432 . S
Eu0 O48 2.291 1_556 S
Eu0 O52 2.335 . S
Eu0 O55 2.372 . S
Eu0 C64 2.787 . S
C1 N2 1.365 1_455 S
C1 C4 1.405 . S
C1 C8 1.448 . S
N2 C1 1.365 1_655 S
N2 C5 1.316 1_655 S
N2 Eu11 2.600 . S
C3 C5 1.398 . S
C3 C6 1.367 . S
C3 H23 0.931 . S
C4 C1 1.405 . S
C4 C6 1.403 . S
C4 C10 1.439 . S
C5 N2 1.316 1_455 S
C5 C3 1.398 . S
C5 H16 0.933 1_455 S
C6 C3 1.367 . S
C6 C4 1.403 . S
C6 H27 0.929 . S
C7 C8 1.432 . S
C7 C9 1.391 . S
C7 C13 1.398 1_554 S
C8 C1 1.448 . S
C8 C7 1.432 . S
C8 N12 1.351 1_454 S
C9 C7 1.391 . S
C9 C10 1.374 . S
C9 H24 0.931 . S
C10 C4 1.439 . S
C10 C9 1.374 . S
C10 H25 0.931 . S
Eu11 N2 2.600 . S
Eu11 N12 2.562 1_554 S
Eu11 O46 2.335 . S
Eu11 O49 2.372 . S
Eu11 O50 2.462 1_554 S
Eu11 O51 2.373 1_655 S
Eu11 O53 2.432 . S
Eu11 O54 2.291 1_554 S
Eu11 C75 2.787 . S
N12 C8 1.351 1_656 S
N12 Eu11 2.562 1_556 S
N12 C14 1.325 . S
C13 C7 1.398 1_556 S
C13 C15 1.366 . S
C13 H21 0.930 . S
C14 N12 1.325 . S
C14 C15 1.416 1_655 S
C14 H20 0.929 . S
C15 C13 1.366 . S
C15 C14 1.416 1_455 S
C15 H17 0.930 . S
H16 C5 0.933 1_655 S
H17 C15 0.930 . S
H18 C33 0.930 . S
H19 C40 0.930 . S
H20 C14 0.929 . S
H21 C13 0.930 . S
H22 C36 0.929 . S
H23 C3 0.931 . S
H24 C9 0.931 . S
H25 C10 0.931 . S
H26 C31 0.931 . S
H27 C6 0.929 . S
H28 C39 0.930 . S
N29 Eu0 2.600 . S
N29 C30 1.365 . S
N29 C33 1.319 . S
C30 N29 1.365 . S
C30 C32 1.405 1_455 S
C30 C38 1.448 . S
C31 H26 0.931 . S
C31 C33 1.397 1_655 S
C31 C34 1.367 . S
C32 C30 1.405 1_655 S
C32 C34 1.403 . S
C32 C65 1.439 . S
C33 H18 0.930 . S
C33 N29 1.319 . S
C33 C31 1.397 1_455 S
C34 C31 1.367 . S
C34 C32 1.403 . S
C34 H41 0.929 . S
N35 Eu0 2.562 1_554 S
N35 C36 1.325 . S
N35 C38 1.351 1_554 S
C36 H22 0.929 . S
C36 N35 1.325 . S
C36 C40 1.416 . S
C37 C38 1.430 1_654 S
C37 C39 1.404 . S
C37 C66 1.387 1_554 S
C38 C30 1.448 . S
C38 N35 1.351 1_556 S
C38 C37 1.430 1_456 S
C39 H28 0.930 . S
C39 C37 1.404 . S
C39 C40 1.366 1_655 S
C40 H19 0.930 . S
C40 C36 1.416 . S
C40 C39 1.366 1_455 S
H41 C34 0.929 . S
H42 C65 0.931 . S
H43 C66 0.931 . S
O44 Eu0 2.462 1_554 S
O44 C64 1.252 1_554 S
O45 Eu0 2.373 1_655 S
O45 C56 1.249 1_556 S
O46 Eu11 2.335 . S
O46 C56 1.264 . S
O47 Eu0 2.432 . S
O47 C64 1.268 . S
O48 Eu0 2.291 1_554 S
O48 C63 1.255 . S
O49 Eu11 2.372 . S
O49 C63 1.257 1_655 S
O50 Eu11 2.462 1_556 S
O50 C75 1.252 1_556 S
O51 Eu11 2.373 1_455 S
O51 C67 1.249 1_554 S
O52 Eu0 2.335 . S
O52 C67 1.264 . S
O53 Eu11 2.432 . S
O53 C75 1.268 . S
O54 Eu11 2.291 1_556 S
O54 C74 1.255 . S
O55 Eu0 2.372 . S
O55 C74 1.257 1_455 S
C56 O45 1.249 1_554 S
C56 O46 1.264 . S
C57 C60 1.382 . S
C57 C62 1.390 1_556 S
C57 C64 1.506 . S
C58 C59 1.398 1_554 S
C58 C62 1.392 . S
C59 C58 1.398 1_556 S
C59 C61 1.372 . S
C59 H76 0.931 . S
C60 C57 1.382 . S
C60 C61 1.390 . S
C60 H77 0.931 . S
C61 C59 1.372 . S
C61 C60 1.390 . S
C61 H78 0.929 . S
C62 C57 1.390 1_554 S
C62 C58 1.392 . S
C62 H79 0.930 . S
C63 O48 1.255 . S
C63 O49 1.257 1_455 S
C64 Eu0 2.787 . S
C64 O44 1.252 1_556 S
C64 O47 1.268 . S
C64 C57 1.506 . S
C65 C32 1.439 . S
C65 H42 0.931 . S
C65 C66 1.374 . S
C66 C37 1.387 1_556 S
C66 H43 0.931 . S
C66 C65 1.374 . S
C67 O51 1.249 1_556 S
C67 O52 1.264 . S
C68 C71 1.382 . S
C68 C72 1.390 1_554 S
C68 C75 1.506 . S
C69 C70 1.398 1_556 S
C69 C72 1.392 . S
C70 C69 1.398 1_554 S
C70 C73 1.372 . S
C70 H80 0.931 . S
C71 C68 1.382 . S
C71 C73 1.390 . S
C71 H81 0.931 . S
C72 C68 1.390 1_556 S
C72 C69 1.392 . S
C72 H82 0.930 . S
C73 C70 1.372 . S
C73 C71 1.390 . S
C73 H83 0.929 . S
C74 O54 1.255 . S
C74 O55 1.257 1_655 S
C75 Eu11 2.787 . S
C75 O50 1.252 1_554 S
C75 O53 1.268 . S
C75 C68 1.506 . S
H76 C59 0.931 . S
H77 C60 0.931 . S
H78 C61 0.929 . S
H79 C62 0.930 . S
H80 C70 0.931 . S
H81 C71 0.931 . S
H82 C72 0.930 . S
H83 C73 0.929 . S
Eu84 N113 2.600 . S
Eu84 N119 2.562 1_556 S
Eu84 O128 2.462 1_556 S
Eu84 O129 2.373 . S
Eu84 O131 2.432 . S
Eu84 O132 2.291 1_556 S
Eu84 O136 2.335 . S
Eu84 O139 2.372 . S
Eu84 C148 2.787 . S
C85 N86 1.365 . S
C85 C88 1.405 . S
C85 C92 1.448 . S
N86 C85 1.365 . S
N86 C89 1.319 . S
N86 Eu95 2.600 . S
C87 C89 1.397 . S
C87 C90 1.367 . S
C87 H107 0.931 . S
C88 C85 1.405 . S
C88 C90 1.403 . S
C88 C94 1.439 . S
C89 N86 1.319 . S
C89 C87 1.397 . S
C89 H100 0.930 . S
C90 C87 1.367 . S
C90 C88 1.403 . S
C90 H111 0.929 . S
C91 C92 1.432 . S
C91 C93 1.391 . S
C91 C97 1.398 1_554 S
C92 C85 1.448 . S
C92 C91 1.432 . S
C92 N96 1.351 1_554 S
C93 C91 1.391 . S
C93 C94 1.374 . S
C93 H108 0.931 . S
C94 C88 1.439 . S
C94 C93 1.374 . S
C94 H109 0.931 . S
Eu95 N86 2.600 . S
Eu95 N96 2.562 1_554 S
Eu95 O130 2.335 . S
Eu95 O133 2.372 . S
Eu95 O134 2.462 1_554 S
Eu95 O135 2.373 . S
Eu95 O137 2.432 . S
Eu95 O138 2.291 1_554 S
Eu95 C159 2.787 . S
N96 C92 1.351 1_556 S
N96 Eu95 2.562 1_556 S
N96 C98 1.325 . S
C97 C91 1.398 1_556 S
C97 C99 1.366 . S
C97 H105 0.930 . S
C98 N96 1.325 . S
C98 C99 1.416 . S
C98 H104 0.929 . S
C99 C97 1.366 . S
C99 C98 1.416 . S
C99 H101 0.930 . S
H100 C89 0.930 . S
H101 C99 0.930 . S
H102 C117 0.930 . S
H103 C124 0.930 . S
H104 C98 0.929 . S
H105 C97 0.930 . S
H106 C120 0.929 . S
H107 C87 0.931 . S
H108 C93 0.931 . S
H109 C94 0.931 . S
H110 C115 0.931 . S
H111 C90 0.929 . S
H112 C123 0.930 . S
N113 Eu84 2.600 . S
N113 C114 1.365 . S
N113 C117 1.319 . S
C114 N113 1.365 . S
C114 C116 1.405 . S
C114 C122 1.448 . S
C115 H110 0.931 . S
C115 C117 1.397 . S
C115 C118 1.367 . S
C116 C114 1.405 . S
C116 C118 1.403 . S
C116 C149 1.439 . S
C117 H102 0.930 . S
C117 N113 1.319 . S
C117 C115 1.397 . S
C118 C115 1.367 . S
C118 C116 1.403 . S
C118 H125 0.929 . S
N119 Eu84 2.562 1_554 S
N119 C120 1.325 . S
N119 C122 1.351 1_554 S
C120 H106 0.929 . S
C120 N119 1.325 . S
C120 C124 1.416 . S
C121 C122 1.430 1_554 S
C121 C123 1.404 . S
C121 C150 1.387 1_554 S
C122 C114 1.448 . S
C122 N119 1.351 1_556 S
C122 C121 1.430 1_556 S
C123 H112 0.930 . S
C123 C121 1.404 . S
C123 C124 1.366 . S
C124 H103 0.930 . S
C124 C120 1.416 . S
C124 C123 1.366 . S
H125 C118 0.929 . S
H126 C149 0.931 . S
H127 C150 0.931 . S
O128 Eu84 2.462 1_554 S
O128 C148 1.252 1_554 S
O129 Eu84 2.373 . S
O129 C140 1.249 1_556 S
O130 Eu95 2.335 . S
O130 C140 1.264 . S
O131 Eu84 2.432 . S
O131 C148 1.268 . S
O132 Eu84 2.291 1_554 S
O132 C147 1.255 . S
O133 Eu95 2.372 . S
O133 C147 1.257 . S
O134 Eu95 2.462 1_556 S
O134 C159 1.252 1_556 S
O135 Eu95 2.373 . S
O135 C151 1.249 1_554 S
O136 Eu84 2.335 . S
O136 C151 1.264 . S
O137 Eu95 2.432 . S
O137 C159 1.268 . S
O138 Eu95 2.291 1_556 S
O138 C158 1.255 . S
O139 Eu84 2.372 . S
O139 C158 1.257 . S
C140 O129 1.249 1_554 S
C140 O130 1.264 . S
C141 C144 1.382 . S
C141 C146 1.390 1_556 S
C141 C148 1.506 . S
C142 C143 1.398 1_554 S
C142 C146 1.392 . S
C143 C142 1.398 1_556 S
C143 C145 1.372 . S
C143 H160 0.931 . S
C144 C141 1.382 . S
C144 C145 1.390 . S
C144 H161 0.931 . S
C145 C143 1.372 . S
C145 C144 1.390 . S
C145 H162 0.929 . S
C146 C141 1.390 1_554 S
C146 C142 1.392 . S
C146 H163 0.930 . S
C147 O132 1.255 . S
C147 O133 1.257 . S
C148 Eu84 2.787 . S
C148 O128 1.252 1_556 S
C148 O131 1.268 . S
C148 C141 1.506 . S
C149 C116 1.439 . S
C149 H126 0.931 . S
C149 C150 1.374 . S
C150 C121 1.387 1_556 S
C150 H127 0.931 . S
C150 C149 1.374 . S
C151 O135 1.249 1_556 S
C151 O136 1.264 . S
C152 C155 1.382 . S
C152 C156 1.390 1_554 S
C152 C159 1.506 . S
C153 C154 1.398 1_556 S
C153 C156 1.392 . S
C154 C153 1.398 1_554 S
C154 C157 1.372 . S
C154 H164 0.931 . S
C155 C152 1.382 . S
C155 C157 1.390 . S
C155 H165 0.931 . S
C156 C152 1.390 1_556 S
C156 C153 1.392 . S
C156 H166 0.930 . S
C157 C154 1.372 . S
C157 C155 1.390 . S
C157 H167 0.929 . S
C158 O138 1.255 . S
C158 O139 1.257 . S
C159 Eu95 2.787 . S
C159 O134 1.252 1_554 S
C159 O137 1.268 . S
C159 C152 1.506 . S
H160 C143 0.931 . S
H161 C144 0.931 . S
H162 C145 0.929 . S
H163 C146 0.930 . S
H164 C154 0.931 . S
H165 C155 0.931 . S
H166 C156 0.930 . S
H167 C157 0.929 . S
Eu168 N197 2.600 . S
Eu168 N203 2.562 1_556 S
Eu168 O212 2.462 1_556 S
Eu168 O213 2.373 1_565 S
Eu168 O215 2.432 . S
Eu168 O216 2.291 1_556 S
Eu168 O220 2.335 . S
Eu168 O223 2.372 . S
Eu168 C232 2.787 . S
C169 N170 1.365 1_565 S
C169 C172 1.405 . S
C169 C176 1.448 1_565 S
N170 C169 1.365 1_545 S
N170 C173 1.319 . S
N170 Eu179 2.600 . S
C171 C173 1.397 1_565 S
C171 C174 1.367 . S
C171 H191 0.931 . S
C172 C169 1.405 . S
C172 C174 1.403 . S
C172 C178 1.439 . S
C173 N170 1.319 . S
C173 C171 1.397 1_545 S
C173 H184 0.930 . S
C174 C171 1.367 . S
C174 C172 1.403 . S
C174 H195 0.929 . S
C175 C176 1.432 1_565 S
C175 C177 1.390 . S
C175 C181 1.399 1_554 S
C176 C169 1.448 1_545 S
C176 C175 1.432 1_545 S
C176 N180 1.351 1_554 S
C177 C175 1.390 . S
C177 C178 1.374 . S
C177 H192 0.931 . S
C178 C172 1.439 . S
C178 C177 1.374 . S
C178 H193 0.931 . S
Eu179 N170 2.600 . S
Eu179 N180 2.562 1_554 S
Eu179 O214 2.335 . S
Eu179 O217 2.372 . S
Eu179 O218 2.462 1_554 S
Eu179 O219 2.373 1_545 S
Eu179 O221 2.432 . S
Eu179 O222 2.291 1_554 S
Eu179 C243 2.787 . S
N180 C176 1.351 1_556 S
N180 Eu179 2.562 1_556 S
N180 C182 1.325 . S
C181 C175 1.399 1_556 S
C181 C183 1.366 1_565 S
C181 H189 0.930 . S
C182 N180 1.325 . S
C182 C183 1.416 . S
C182 H188 0.929 . S
C183 C181 1.366 1_545 S
C183 C182 1.416 . S
C183 H185 0.930 . S
H184 C173 0.930 . S
H185 C183 0.930 . S
H186 C201 0.930 . S
H187 C208 0.930 1_565 S
H188 C182 0.929 . S
H189 C181 0.930 . S
H190 C204 0.929 . S
H191 C171 0.931 . S
H192 C177 0.931 . S
H193 C178 0.931 . S
H194 C199 0.931 . S
H195 C174 0.929 . S
H196 C207 0.930 . S
N197 Eu168 2.600 . S
N197 C198 1.365 1_565 S
N197 C201 1.319 . S
C198 N197 1.365 1_545 S
C198 C200 1.405 . S
C198 C206 1.448 . S
C199 H194 0.931 . S
C199 C201 1.397 1_545 S
C199 C202 1.367 . S
C200 C198 1.405 . S
C200 C202 1.403 . S
C200 C233 1.439 . S
C201 H186 0.930 . S
C201 N197 1.319 . S
C201 C199 1.397 1_565 S
C202 C199 1.367 . S
C202 C200 1.403 . S
C202 H209 0.929 . S
N203 Eu168 2.562 1_554 S
N203 C204 1.325 . S
N203 C206 1.351 1_564 S
C204 H190 0.929 . S
C204 N203 1.325 . S
C204 C208 1.416 1_565 S
C205 C206 1.430 1_554 S
C205 C207 1.404 . S
C205 C234 1.387 1_554 S
C206 C198 1.448 . S
C206 N203 1.351 1_546 S
C206 C205 1.430 1_556 S
C207 H196 0.930 . S
C207 C205 1.404 . S
C207 C208 1.366 . S
C208 H187 0.930 1_545 S
C208 C204 1.416 1_545 S
C208 C207 1.366 . S
H209 C202 0.929 . S
H210 C233 0.931 . S
H211 C234 0.931 . S
O212 Eu168 2.462 1_554 S
O212 C232 1.252 1_554 S
O213 Eu168 2.373 1_545 S
O213 C224 1.249 1_556 S
O214 Eu179 2.335 . S
O214 C224 1.264 . S
O215 Eu168 2.432 . S
O215 C232 1.268 . S
O216 Eu168 2.291 1_554 S
O216 C231 1.255 . S
O217 Eu179 2.372 . S
O217 C231 1.257 1_545 S
O218 Eu179 2.462 1_556 S
O218 C243 1.252 1_556 S
O219 Eu179 2.373 1_565 S
O219 C235 1.249 1_554 S
O220 Eu168 2.335 . S
O220 C235 1.264 . S
O221 Eu179 2.432 . S
O221 C243 1.268 . S
O222 Eu179 2.291 1_556 S
O222 C242 1.255 . S
O223 Eu168 2.372 . S
O223 C242 1.257 1_565 S
C224 O213 1.249 1_554 S
C224 O214 1.264 . S
C225 C228 1.382 . S
C225 C230 1.390 1_556 S
C225 C232 1.506 . S
C226 C227 1.398 1_554 S
C226 C230 1.392 . S
C227 C226 1.398 1_556 S
C227 C229 1.372 . S
C227 H244 0.931 . S
C228 C225 1.382 . S
C228 C229 1.390 . S
C228 H245 0.931 . S
C229 C227 1.372 . S
C229 C228 1.390 . S
C229 H246 0.929 . S
C230 C225 1.390 1_554 S
C230 C226 1.392 . S
C230 H247 0.930 . S
C231 O216 1.255 . S
C231 O217 1.257 1_565 S
C232 Eu168 2.787 . S
C232 O212 1.252 1_556 S
C232 O215 1.268 . S
C232 C225 1.506 . S
C233 C200 1.439 . S
C233 H210 0.931 . S
C233 C234 1.374 . S
C234 C205 1.387 1_556 S
C234 H211 0.931 . S
C234 C233 1.374 . S
C235 O219 1.249 1_556 S
C235 O220 1.264 . S
C236 C239 1.382 . S
C236 C240 1.390 1_554 S
C236 C243 1.506 . S
C237 C238 1.398 1_556 S
C237 C240 1.392 . S
C238 C237 1.398 1_554 S
C238 C241 1.372 . S
C238 H248 0.931 . S
C239 C236 1.382 . S
C239 C241 1.390 . S
C239 H249 0.931 . S
C240 C236 1.390 1_556 S
C240 C237 1.392 . S
C240 H250 0.930 . S
C241 C238 1.372 . S
C241 C239 1.390 . S
C241 H251 0.929 . S
C242 O222 1.255 . S
C242 O223 1.257 1_545 S
C243 Eu179 2.787 . S
C243 O218 1.252 1_554 S
C243 O221 1.268 . S
C243 C236 1.506 . S
H244 C227 0.931 . S
H245 C228 0.931 . S
H246 C229 0.929 . S
H247 C230 0.930 . S
H248 C238 0.931 . S
H249 C239 0.931 . S
H250 C240 0.930 . S
H251 C241 0.929 . S
Eu252 N281 2.600 . S
Eu252 N287 2.562 . S
Eu252 O296 2.462 . S
Eu252 O297 2.373 . S
Eu252 O299 2.432 . S
Eu252 O300 2.291 . S
Eu252 O304 2.335 . S
Eu252 O307 2.372 . S
Eu252 C316 2.787 . S
C253 N254 1.365 . S
C253 C256 1.405 . S
C253 C260 1.448 . S
N254 C253 1.365 . S
N254 C257 1.319 . S
N254 Eu263 2.600 . S
C255 C257 1.397 . S
C255 C258 1.367 . S
C255 H275 0.931 . S
C256 C253 1.405 . S
C256 C258 1.403 . S
C256 C262 1.439 . S
C257 N254 1.319 . S
C257 C255 1.397 . S
C257 H268 0.930 . S
C258 C255 1.367 . S
C258 C256 1.403 . S
C258 H279 0.929 . S
C259 C260 1.430 . S
C259 C261 1.387 1_565 S
C259 C265 1.404 . S
C260 C253 1.448 . S
C260 C259 1.430 . S
C260 N264 1.351 . S
C261 C259 1.387 1_545 S
C261 C262 1.374 1_545 S
C261 H276 0.931 . S
C262 C256 1.439 . S
C262 C261 1.374 1_565 S
C262 H277 0.931 1_565 S
Eu263 N254 2.600 . S
Eu263 N264 2.562 . S
Eu263 O298 2.335 . S
Eu263 O301 2.372 . S
Eu263 O302 2.462 . S
Eu263 O303 2.373 . S
Eu263 O305 2.432 . S
Eu263 O306 2.291 . S
Eu263 C327 2.787 . S
N264 C260 1.351 . S
N264 Eu263 2.562 . S
N264 C266 1.325 . S
C265 C259 1.404 . S
C265 C267 1.366 . S
C265 H273 0.959 . S
C266 N264 1.325 . S
C266 C267 1.416 . S
C266 H272 0.929 . S
C267 C265 1.366 . S
C267 C266 1.416 . S
C267 H269 0.930 . S
H268 C257 0.930 . S
H269 C267 0.930 . S
H270 C285 0.930 . S
H271 C292 0.930 . S
H272 C266 0.929 . S
H273 C265 0.959 . S
H274 C288 0.929 . S
H275 C255 0.931 . S
H276 C261 0.931 . S
H277 C262 0.931 1_545 S
H278 C283 0.931 . S
H279 C258 0.929 . S
H280 C291 0.930 . S
N281 Eu252 2.600 . S
N281 C282 1.365 . S
N281 C285 1.319 . S
C282 N281 1.365 . S
C282 C284 1.405 . S
C282 C290 1.448 . S
C283 H278 0.931 . S
C283 C285 1.397 . S
C283 C286 1.367 . S
C284 C282 1.405 . S
C284 C286 1.403 . S
C284 C317 1.439 . S
C285 H270 0.930 . S
C285 N281 1.319 . S
C285 C283 1.397 . S
C286 C283 1.367 . S
C286 C284 1.403 . S
C286 H293 0.929 . S
N287 Eu252 2.562 . S
N287 C288 1.325 . S
N287 C290 1.351 . S
C288 H274 0.929 . S
C288 N287 1.325 . S
C288 C292 1.416 . S
C289 C290 1.430 . S
C289 C291 1.404 . S
C289 C318 1.387 . S
C290 C282 1.448 . S
C290 N287 1.351 . S
C290 C289 1.430 . S
C291 H280 0.930 . S
C291 C289 1.404 . S
C291 C292 1.366 . S
C292 H271 0.930 . S
C292 C288 1.416 . S
C292 C291 1.366 . S
H293 C286 0.929 . S
H294 C317 0.931 . S
H295 C318 0.931 . S
O296 Eu252 2.462 . S
O296 C316 1.252 . S
O297 Eu252 2.373 . S
O297 C308 1.249 . S
O298 Eu263 2.335 . S
O298 C308 1.264 . S
O299 Eu252 2.432 . S
O299 C316 1.268 . S
O300 Eu252 2.291 . S
O300 C315 1.255 . S
O301 Eu263 2.372 . S
O301 C315 1.257 . S
O302 Eu263 2.462 . S
O302 C327 1.252 . S
O303 Eu263 2.373 . S
O303 C319 1.249 . S
O304 Eu252 2.335 . S
O304 C319 1.264 . S
O305 Eu263 2.432 . S
O305 C327 1.268 . S
O306 Eu263 2.291 . S
O306 C326 1.255 . S
O307 Eu252 2.372 . S
O307 C326 1.257 . S
C308 O297 1.249 . S
C308 O298 1.264 . S
C309 C312 1.382 . S
C309 C314 1.390 . S
C309 C316 1.506 . S
C310 C311 1.398 . S
C310 C314 1.392 . S
C311 C310 1.398 . S
C311 C313 1.372 . S
C311 H328 0.931 . S
C312 C309 1.382 . S
C312 C313 1.390 . S
C312 H329 0.931 . S
C313 C311 1.372 . S
C313 C312 1.390 . S
C313 H330 0.929 . S
C314 C309 1.390 . S
C314 C310 1.392 . S
C314 H331 0.930 . S
C315 O300 1.255 . S
C315 O301 1.257 . S
C316 Eu252 2.787 . S
C316 O296 1.252 . S
C316 O299 1.268 . S
C316 C309 1.506 . S
C317 C284 1.439 . S
C317 H294 0.931 . S
C317 C318 1.374 . S
C318 C289 1.387 . S
C318 H295 0.931 . S
C318 C317 1.374 . S
C319 O303 1.249 . S
C319 O304 1.264 . S
C320 C323 1.382 . S
C320 C324 1.390 . S
C320 C327 1.506 . S
C321 C322 1.398 . S
C321 C324 1.392 . S
C322 C321 1.398 . S
C322 C325 1.372 . S
C322 H332 0.931 . S
C323 C320 1.382 . S
C323 C325 1.390 . S
C323 H333 0.931 . S
C324 C320 1.390 . S
C324 C321 1.392 . S
C324 H334 0.930 . S
C325 C322 1.372 . S
C325 C323 1.390 . S
C325 H335 0.929 . S
C326 O306 1.255 . S
C326 O307 1.257 . S
C327 Eu263 2.787 . S
C327 O302 1.252 . S
C327 O305 1.268 . S
C327 C320 1.506 . S
H328 C311 0.931 . S
H329 C312 0.931 . S
H330 C313 0.929 . S
H331 C314 0.930 . S
H332 C322 0.931 . S
H333 C323 0.931 . S
H334 C324 0.930 . S
H335 C325 0.929 . S
Eu336 N365 2.600 . S
Eu336 N371 2.562 . S
Eu336 O380 2.462 . S
Eu336 O381 2.373 . S
Eu336 O383 2.432 . S
Eu336 O384 2.291 . S
Eu336 O388 2.335 . S
Eu336 O391 2.372 . S
Eu336 C400 2.787 1_565 S
C337 N338 1.365 . S
C337 C340 1.405 . S
C337 C344 1.448 . S
N338 C337 1.365 . S
N338 C341 1.319 . S
N338 Eu347 2.600 . S
C339 C341 1.397 . S
C339 C342 1.367 . S
C339 H359 0.931 . S
C340 C337 1.405 . S
C340 C342 1.403 . S
C340 C346 1.439 . S
C341 N338 1.319 . S
C341 C339 1.397 . S
C341 H352 0.930 . S
C342 C339 1.367 . S
C342 C340 1.403 . S
C342 H363 0.929 . S
C343 C344 1.430 . S
C343 C345 1.387 . S
C343 C349 1.404 . S
C344 C337 1.448 . S
C344 C343 1.430 . S
C344 N348 1.351 . S
C345 C343 1.387 . S
C345 C346 1.374 . S
C345 H360 0.931 1_455 S
C346 C340 1.439 . S
C346 C345 1.374 . S
C346 H361 0.931 1_455 S
Eu347 N338 2.600 . S
Eu347 N348 2.562 . S
Eu347 O382 2.335 . S
Eu347 O385 2.372 . S
Eu347 O386 2.462 . S
Eu347 O387 2.373 . S
Eu347 O389 2.432 . S
Eu347 O390 2.291 . S
Eu347 C411 2.787 . S
N348 C344 1.351 . S
N348 Eu347 2.562 . S
N348 C350 1.325 . S
C349 C343 1.404 . S
C349 C351 1.366 . S
C349 H357 0.930 . S
C350 N348 1.325 . S
C350 C351 1.416 . S
C350 H356 0.929 . S
C351 C349 1.366 . S
C351 C350 1.416 . S
C351 H353 0.930 . S
H352 C341 0.930 . S
H353 C351 0.930 . S
H354 C369 0.930 . S
H355 C376 0.930 . S
H356 C350 0.929 . S
H357 C349 0.930 . S
H358 C372 0.929 1_565 S
H359 C339 0.931 . S
H360 C345 0.931 1_655 S
H361 C346 0.931 1_655 S
H362 C367 0.931 . S
H363 C342 0.929 . S
H364 C375 0.930 . S
N365 Eu336 2.600 . S
N365 C366 1.365 1_565 S
N365 C369 1.319 . S
C366 N365 1.365 1_545 S
C366 C368 1.405 . S
C366 C374 1.448 . S
C367 H362 0.931 . S
C367 C369 1.397 . S
C367 C370 1.367 1_565 S
C368 C366 1.405 . S
C368 C370 1.403 . S
C368 C401 1.439 . S
C369 H354 0.930 . S
C369 N365 1.319 . S
C369 C367 1.397 . S
C370 C367 1.367 1_545 S
C370 C368 1.403 . S
C370 H377 0.929 . S
N371 Eu336 2.562 . S
N371 C372 1.325 1_565 S
N371 C374 1.351 1_565 S
C372 H358 0.929 1_545 S
C372 N371 1.325 1_545 S
C372 C376 1.416 . S
C373 C374 1.430 . S
C373 C375 1.404 . S
C373 C402 1.387 . S
C374 C366 1.448 . S
C374 N371 1.351 1_545 S
C374 C373 1.430 . S
C375 H364 0.930 . S
C375 C373 1.404 . S
C375 C376 1.366 . S
C376 H355 0.930 . S
C376 C372 1.416 . S
C376 C375 1.366 . S
H377 C370 0.929 . S
H378 C401 0.931 . S
H379 C402 0.931 . S
O380 Eu336 2.462 . S
O380 C400 1.252 1_565 S
O381 Eu336 2.373 . S
O381 C392 1.249 . S
O382 Eu347 2.335 . S
O382 C392 1.264 . S
O383 Eu336 2.432 . S
O383 C400 1.268 1_565 S
O384 Eu336 2.291 . S
O384 C399 1.255 . S
O385 Eu347 2.372 . S
O385 C399 1.257 . S
O386 Eu347 2.462 . S
O386 C411 1.252 . S
O387 Eu347 2.373 . S
O387 C403 1.249 . S
O388 Eu336 2.335 . S
O388 C403 1.264 . S
O389 Eu347 2.432 . S
O389 C411 1.268 . S
O390 Eu347 2.291 . S
O390 C410 1.255 . S
O391 Eu336 2.372 . S
O391 C410 1.257 . S
C392 O381 1.249 . S
C392 O382 1.264 . S
C393 C396 1.382 . S
C393 C398 1.390 . S
C393 C400 1.506 . S
C394 C395 1.398 . S
C394 C398 1.392 . S
C395 C394 1.398 . S
C395 C397 1.372 . S
C395 H412 0.931 . S
C396 C393 1.382 . S
C396 C397 1.390 . S
C396 H413 0.931 . S
C397 C395 1.372 . S
C397 C396 1.390 . S
C397 H414 0.929 . S
C398 C393 1.390 . S
C398 C394 1.392 . S
C398 H415 0.930 . S
C399 O384 1.255 . S
C399 O385 1.257 . S
C400 Eu336 2.787 1_545 S
C400 O380 1.252 1_545 S
C400 O383 1.268 1_545 S
C400 C393 1.506 . S
C401 C368 1.439 . S
C401 H378 0.931 . S
C401 C402 1.374 . S
C402 C373 1.387 . S
C402 H379 0.931 . S
C402 C401 1.374 . S
C403 O387 1.249 . S
C403 O388 1.264 . S
C404 C407 1.382 . S
C404 C408 1.390 . S
C404 C411 1.506 . S
C405 C406 1.398 . S
C405 C408 1.392 . S
C406 C405 1.398 . S
C406 C409 1.372 . S
C406 H416 0.931 . S
C407 C404 1.382 . S
C407 C409 1.390 . S
C407 H417 0.931 . S
C408 C404 1.390 . S
C408 C405 1.392 . S
C408 H418 0.930 . S
C409 C406 1.372 . S
C409 C407 1.390 . S
C409 H419 0.929 . S
C410 O390 1.255 . S
C410 O391 1.257 . S
C411 Eu347 2.787 . S
C411 O386 1.252 . S
C411 O389 1.268 . S
C411 C404 1.506 . S
H412 C395 0.931 . S
H413 C396 0.931 . S
H414 C397 0.929 . S
H415 C398 0.930 . S
H416 C406 0.931 . S
H417 C407 0.931 . S
H418 C408 0.930 . S
H419 C409 0.929 . S
Eu420 N449 2.600 . S
Eu420 N455 2.562 . S
Eu420 O464 2.462 . S
Eu420 O465 2.373 . S
Eu420 O467 2.432 . S
Eu420 O468 2.291 . S
Eu420 O472 2.335 . S
Eu420 O475 2.372 . S
Eu420 C484 2.787 . S
C421 N422 1.365 . S
C421 C424 1.405 . S
C421 C428 1.448 . S
N422 C421 1.365 . S
N422 C425 1.319 . S
N422 Eu431 2.600 . S
C423 C425 1.397 . S
C423 C426 1.367 . S
C423 H443 0.931 . S
C424 C421 1.405 . S
C424 C426 1.403 . S
C424 C430 1.439 . S
C425 N422 1.319 . S
C425 C423 1.397 . S
C425 H436 0.930 . S
C426 C423 1.367 . S
C426 C424 1.403 . S
C426 H447 0.929 . S
C427 C428 1.430 . S
C427 C429 1.387 . S
C427 C433 1.404 . S
C428 C421 1.448 . S
C428 C427 1.430 . S
C428 N432 1.351 . S
C429 C427 1.387 . S
C429 C430 1.374 . S
C429 H444 0.931 . S
C430 C424 1.439 . S
C430 C429 1.374 . S
C430 H445 0.931 . S
Eu431 N422 2.600 . S
Eu431 N432 2.562 . S
Eu431 O466 2.335 . S
Eu431 O469 2.372 . S
Eu431 O470 2.462 . S
Eu431 O471 2.373 . S
Eu431 O473 2.432 . S
Eu431 O474 2.291 . S
Eu431 C495 2.787 . S
N432 C428 1.351 . S
N432 Eu431 2.562 . S
N432 C434 1.325 . S
C433 C427 1.404 . S
C433 C435 1.366 . S
C433 H441 0.930 . S
C434 N432 1.325 . S
C434 C435 1.416 . S
C434 H440 0.929 . S
C435 C433 1.366 . S
C435 C434 1.416 . S
C435 H437 0.930 . S
H436 C425 0.930 . S
H437 C435 0.930 . S
H438 C453 0.930 . S
H439 C460 0.930 . S
H440 C434 0.929 . S
H441 C433 0.930 . S
H442 C456 0.929 . S
H443 C423 0.931 . S
H444 C429 0.931 . S
H445 C430 0.931 . S
H446 C451 0.931 . S
H447 C426 0.929 . S
H448 C459 0.930 . S
N449 Eu420 2.600 . S
N449 C450 1.365 . S
N449 C453 1.319 . S
C450 N449 1.365 . S
C450 C452 1.405 1_455 S
C450 C458 1.448 1_455 S
C451 H446 0.931 . S
C451 C453 1.397 . S
C451 C454 1.367 1_455 S
C452 C450 1.405 1_655 S
C452 C454 1.403 . S
C452 C485 1.439 . S
C453 H438 0.930 . S
C453 N449 1.319 . S
C453 C451 1.397 . S
C454 C451 1.367 1_655 S
C454 C452 1.403 . S
C454 H461 0.929 . S
N455 Eu420 2.562 . S
N455 C456 1.325 . S
N455 C458 1.351 1_455 S
C456 H442 0.929 . S
C456 N455 1.325 . S
C456 C460 1.416 1_455 S
C457 C458 1.430 . S
C457 C459 1.404 . S
C457 C486 1.387 . S
C458 C450 1.448 1_655 S
C458 N455 1.351 1_655 S
C458 C457 1.430 . S
C459 H448 0.930 . S
C459 C457 1.404 . S
C459 C460 1.366 . S
C460 H439 0.930 . S
C460 C456 1.416 1_655 S
C460 C459 1.366 . S
H461 C454 0.929 . S
H462 C485 0.931 . S
H463 C486 0.931 . S
O464 Eu420 2.462 . S
O464 C484 1.252 . S
O465 Eu420 2.373 . S
O465 C476 1.249 . S
O466 Eu431 2.335 . S
O466 C476 1.264 . S
O467 Eu420 2.432 . S
O467 C484 1.268 . S
O468 Eu420 2.291 . S
O468 C483 1.255 . S
O469 Eu431 2.372 . S
O469 C483 1.257 . S
O470 Eu431 2.462 . S
O470 C495 1.252 . S
O471 Eu431 2.373 . S
O471 C487 1.249 . S
O472 Eu420 2.335 . S
O472 C487 1.264 . S
O473 Eu431 2.432 . S
O473 C495 1.268 . S
O474 Eu431 2.291 . S
O474 C494 1.255 . S
O475 Eu420 2.372 . S
O475 C494 1.257 . S
C476 O465 1.249 . S
C476 O466 1.264 . S
C477 C480 1.382 . S
C477 C482 1.390 . S
C477 C484 1.506 1_655 S
C478 C479 1.398 . S
C478 C482 1.392 . S
C479 C478 1.398 . S
C479 C481 1.372 . S
C479 H496 0.931 . S
C480 C477 1.382 . S
C480 C481 1.390 . S
C480 H497 0.931 . S
C481 C479 1.372 . S
C481 C480 1.390 . S
C481 H498 0.929 . S
C482 C477 1.390 . S
C482 C478 1.392 . S
C482 H499 0.930 . S
C483 O468 1.255 . S
C483 O469 1.257 . S
C484 Eu420 2.787 . S
C484 O464 1.252 . S
C484 O467 1.268 . S
C484 C477 1.506 1_455 S
C485 C452 1.439 . S
C485 H462 0.931 . S
C485 C486 1.374 . S
C486 C457 1.387 . S
C486 H463 0.931 . S
C486 C485 1.374 . S
C487 O471 1.249 . S
C487 O472 1.264 . S
C488 C491 1.382 . S
C488 C492 1.390 . S
C488 C495 1.506 . S
C489 C490 1.398 . S
C489 C492 1.392 . S
C490 C489 1.398 . S
C490 C493 1.372 . S
C490 H500 0.931 . S
C491 C488 1.382 . S
C491 C493 1.390 . S
C491 H501 0.931 . S
C492 C488 1.390 . S
C492 C489 1.392 . S
C492 H502 0.930 . S
C493 C490 1.372 . S
C493 C491 1.390 . S
C493 H503 0.929 . S
C494 O474 1.255 . S
C494 O475 1.257 . S
C495 Eu431 2.787 . S
C495 O470 1.252 . S
C495 O473 1.268 . S
C495 C488 1.506 . S
H496 C479 0.931 . S
H497 C480 0.931 . S
H498 C481 0.929 . S
H499 C482 0.930 . S
H500 C490 0.931 . S
H501 C491 0.931 . S
H502 C492 0.930 . S
H503 C493 0.929 . S
Eu504 N533 2.600 . S
Eu504 N539 2.562 . S
Eu504 O548 2.462 . S
Eu504 O549 2.373 . S
Eu504 O551 2.432 . S
Eu504 O552 2.291 . S
Eu504 O556 2.335 . S
Eu504 O559 2.372 . S
Eu504 C568 2.787 . S
C505 N506 1.365 . S
C505 C508 1.405 . S
C505 C512 1.448 . S
N506 C505 1.365 . S
N506 C509 1.319 . S
N506 Eu515 2.600 . S
C507 C509 1.397 . S
C507 C510 1.367 . S
C507 H527 0.931 . S
C508 C505 1.405 . S
C508 C510 1.403 . S
C508 C514 1.439 . S
C509 N506 1.319 . S
C509 C507 1.397 . S
C509 H520 0.930 . S
C510 C507 1.367 . S
C510 C508 1.403 . S
C510 H531 0.929 . S
C511 C512 1.430 . S
C511 C513 1.387 . S
C511 C517 1.404 . S
C512 C505 1.448 . S
C512 C511 1.430 . S
C512 N516 1.351 . S
C513 C511 1.387 . S
C513 C514 1.374 . S
C513 H528 0.931 . S
C514 C508 1.439 . S
C514 C513 1.374 . S
C514 H529 0.931 . S
Eu515 N506 2.600 . S
Eu515 N516 2.562 . S
Eu515 O550 2.335 . S
Eu515 O553 2.372 . S
Eu515 O554 2.462 . S
Eu515 O555 2.373 . S
Eu515 O557 2.432 . S
Eu515 O558 2.291 . S
Eu515 C579 2.787 . S
N516 C512 1.351 . S
N516 Eu515 2.562 . S
N516 C518 1.325 . S
C517 C511 1.404 . S
C517 C519 1.366 . S
C517 H525 0.930 . S
C518 N516 1.325 . S
C518 C519 1.416 . S
C518 H524 0.929 . S
C519 C517 1.366 . S
C519 C518 1.416 . S
C519 H521 0.930 . S
H520 C509 0.930 . S
H521 C519 0.930 . S
H522 C537 0.930 . S
H523 C544 0.930 . S
H524 C518 0.929 . S
H525 C517 0.930 . S
H526 C540 0.929 . S
H527 C507 0.931 . S
H528 C513 0.931 . S
H529 C514 0.931 . S
H530 C535 0.931 . S
H531 C510 0.929 . S
H532 C543 0.930 . S
N533 Eu504 2.600 . S
N533 C534 1.365 . S
N533 C537 1.319 . S
C534 N533 1.365 . S
C534 C536 1.405 1_545 S
C534 C542 1.448 . S
C535 H530 0.931 . S
C535 C537 1.397 . S
C535 C538 1.367 1_545 S
C536 C534 1.405 1_565 S
C536 C538 1.403 . S
C536 C569 1.439 . S
C537 H522 0.930 . S
C537 N533 1.319 . S
C537 C535 1.397 . S
C538 C535 1.367 1_565 S
C538 C536 1.403 . S
C538 H545 0.929 . S
N539 Eu504 2.562 . S
N539 C540 1.325 . S
N539 C542 1.351 . S
C540 H526 0.929 . S
C540 N539 1.325 . S
C540 C544 1.416 1_545 S
C541 C542 1.430 1_565 S
C541 C543 1.404 . S
C541 C570 1.387 . S
C542 C534 1.448 . S
C542 N539 1.351 . S
C542 C541 1.430 1_545 S
C543 H532 0.930 . S
C543 C541 1.404 . S
C543 C544 1.366 . S
C544 H523 0.930 . S
C544 C540 1.416 1_565 S
C544 C543 1.366 . S
H545 C538 0.929 . S
H546 C569 0.931 . S
H547 C570 0.931 . S
O548 Eu504 2.462 . S
O548 C568 1.252 . S
O549 Eu504 2.373 . S
O549 C560 1.249 . S
O550 Eu515 2.335 . S
O550 C560 1.264 . S
O551 Eu504 2.432 . S
O551 C568 1.268 . S
O552 Eu504 2.291 . S
O552 C567 1.255 . S
O553 Eu515 2.372 . S
O553 C567 1.257 . S
O554 Eu515 2.462 . S
O554 C579 1.252 . S
O555 Eu515 2.373 . S
O555 C571 1.249 . S
O556 Eu504 2.335 . S
O556 C571 1.264 . S
O557 Eu515 2.432 . S
O557 C579 1.268 . S
O558 Eu515 2.291 . S
O558 C578 1.255 . S
O559 Eu504 2.372 . S
O559 C578 1.257 . S
C560 O549 1.249 . S
C560 O550 1.264 . S
C561 C564 1.382 . S
C561 C566 1.390 . S
C561 C568 1.506 . S
C562 C563 1.398 . S
C562 C566 1.392 . S
C563 C562 1.398 . S
C563 C565 1.372 . S
C563 H580 0.931 . S
C564 C561 1.382 . S
C564 C565 1.390 . S
C564 H581 0.931 . S
C565 C563 1.372 . S
C565 C564 1.390 . S
C565 H582 0.929 . S
C566 C561 1.390 . S
C566 C562 1.392 . S
C566 H583 0.930 . S
C567 O552 1.255 . S
C567 O553 1.257 . S
C568 Eu504 2.787 . S
C568 O548 1.252 . S
C568 O551 1.268 . S
C568 C561 1.506 . S
C569 C536 1.439 . S
C569 H546 0.931 . S
C569 C570 1.374 . S
C570 C541 1.387 . S
C570 H547 0.931 . S
C570 C569 1.374 . S
C571 O555 1.249 . S
C571 O556 1.264 . S
C572 C575 1.382 . S
C572 C576 1.390 . S
C572 C579 1.506 . S
C573 C574 1.398 . S
C573 C576 1.392 . S
C574 C573 1.398 . S
C574 C577 1.372 . S
C574 H584 0.931 . S
C575 C572 1.382 . S
C575 C577 1.390 . S
C575 H585 0.931 . S
C576 C572 1.390 . S
C576 C573 1.392 . S
C576 H586 0.930 . S
C577 C574 1.372 . S
C577 C575 1.390 . S
C577 H587 0.929 . S
C578 O558 1.255 . S
C578 O559 1.257 . S
C579 Eu515 2.787 . S
C579 O554 1.252 . S
C579 O557 1.268 . S
C579 C572 1.506 . S
H580 C563 0.931 . S
H581 C564 0.931 . S
H582 C565 0.929 . S
H583 C566 0.930 . S
H584 C574 0.931 . S
H585 C575 0.931 . S
H586 C576 0.930 . S
H587 C577 0.929 . S
Eu588 N617 2.600 . S
Eu588 N623 2.562 . S
Eu588 O632 2.462 . S
Eu588 O633 2.373 . S
Eu588 O635 2.432 . S
Eu588 O636 2.291 . S
Eu588 O640 2.335 . S
Eu588 O643 2.372 . S
Eu588 C652 2.787 . S
C589 N590 1.365 . S
C589 C592 1.405 . S
C589 C596 1.448 . S
N590 C589 1.365 . S
N590 C593 1.319 . S
N590 Eu599 2.600 . S
C591 C593 1.397 . S
C591 C594 1.367 . S
C591 H611 0.931 . S
C592 C589 1.405 . S
C592 C594 1.403 . S
C592 C598 1.439 . S
C593 N590 1.319 . S
C593 C591 1.397 . S
C593 H604 0.930 . S
C594 C591 1.367 . S
C594 C592 1.403 . S
C594 H615 0.929 . S
C595 C596 1.430 . S
C595 C597 1.387 . S
C595 C601 1.404 . S
C596 C589 1.448 . S
C596 C595 1.430 . S
C596 N600 1.351 . S
C597 C595 1.387 . S
C597 C598 1.374 . S
C597 H612 0.931 . S
C598 C592 1.439 . S
C598 C597 1.374 . S
C598 H613 0.931 . S
Eu599 N590 2.600 . S
Eu599 N600 2.562 . S
Eu599 O634 2.335 . S
Eu599 O637 2.372 . S
Eu599 O638 2.462 . S
Eu599 O639 2.373 . S
Eu599 O641 2.432 . S
Eu599 O642 2.291 . S
Eu599 C663 2.787 . S
N600 C596 1.351 . S
N600 Eu599 2.562 . S
N600 C602 1.325 . S
C601 C595 1.404 . S
C601 C603 1.366 . S
C601 H609 0.930 . S
C602 N600 1.325 . S
C602 C603 1.416 . S
C602 H608 0.929 . S
C603 C601 1.366 . S
C603 C602 1.416 . S
C603 H605 0.930 . S
H604 C593 0.930 . S
H605 C603 0.930 . S
H606 C621 0.930 . S
H607 C628 0.930 . S
H608 C602 0.929 . S
H609 C601 0.930 . S
H610 C624 0.929 . S
H611 C591 0.931 . S
H612 C597 0.931 . S
H613 C598 0.931 . S
H614 C619 0.931 . S
H615 C594 0.929 . S
H616 C627 0.930 . S
N617 Eu588 2.600 . S
N617 C618 1.379 . S
N617 C621 1.319 . S
C618 N617 1.379 . S
C618 C620 1.392 1_655 S
C618 C626 1.447 1_655 S
C619 H614 0.931 . S
C619 C621 1.397 . S
C619 C622 1.367 1_655 S
C620 C618 1.392 1_455 S
C620 C622 1.403 . S
C620 C653 1.439 . S
C621 H606 0.930 . S
C621 N617 1.319 . S
C621 C619 1.397 . S
C622 C619 1.367 1_455 S
C622 C620 1.403 . S
C622 H629 0.929 . S
N623 Eu588 2.562 . S
N623 C624 1.325 . S
N623 C626 1.351 1_655 S
C624 H610 0.929 . S
C624 N623 1.325 . S
C624 C628 1.416 1_655 S
C625 C626 1.430 . S
C625 C627 1.404 . S
C625 C654 1.387 . S
C626 C618 1.447 1_455 S
C626 N623 1.351 1_455 S
C626 C625 1.430 . S
C627 H616 0.930 . S
C627 C625 1.404 . S
C627 C628 1.366 . S
C628 H607 0.930 . S
C628 C624 1.416 1_455 S
C628 C627 1.366 . S
H629 C622 0.929 . S
H630 C653 0.931 . S
H631 C654 0.931 . S
O632 Eu588 2.462 . S
O632 C652 1.252 . S
O633 Eu588 2.373 . S
O633 C644 1.249 . S
O634 Eu599 2.335 . S
O634 C644 1.264 . S
O635 Eu588 2.432 . S
O635 C652 1.268 . S
O636 Eu588 2.291 . S
O636 C651 1.255 . S
O637 Eu599 2.372 . S
O637 C651 1.257 . S
O638 Eu599 2.462 . S
O638 C663 1.252 . S
O639 Eu599 2.373 . S
O639 C655 1.249 . S
O640 Eu588 2.335 . S
O640 C655 1.264 . S
O641 Eu599 2.432 . S
O641 C663 1.268 . S
O642 Eu599 2.291 . S
O642 C662 1.255 . S
O643 Eu588 2.372 . S
O643 C662 1.257 . S
C644 O633 1.249 . S
C644 O634 1.264 . S
C645 C648 1.382 . S
C645 C650 1.390 . S
C645 C652 1.506 . S
C646 C647 1.398 . S
C646 C650 1.392 . S
C647 C646 1.398 . S
C647 C649 1.372 . S
C647 H664 0.931 . S
C648 C645 1.382 . S
C648 C649 1.390 . S
C648 H665 0.931 . S
C649 C647 1.372 . S
C649 C648 1.390 . S
C649 H666 0.929 . S
C650 C645 1.390 . S
C650 C646 1.392 . S
C650 H667 0.930 . S
C651 O636 1.255 . S
C651 O637 1.257 . S
C652 Eu588 2.787 . S
C652 O632 1.252 . S
C652 O635 1.268 . S
C652 C645 1.506 . S
C653 C620 1.439 . S
C653 H630 0.931 . S
C653 C654 1.374 . S
C654 C625 1.387 . S
C654 H631 0.931 . S
C654 C653 1.374 . S
C655 O639 1.249 . S
C655 O640 1.264 . S
C656 C659 1.382 . S
C656 C660 1.390 . S
C656 C663 1.506 . S
C657 C658 1.398 1_545 S
C657 C660 1.392 . S
C658 C657 1.398 1_565 S
C658 C661 1.372 1_565 S
C658 H668 0.931 . S
C659 C656 1.382 . S
C659 C661 1.390 . S
C659 H669 0.931 . S
C660 C656 1.390 . S
C660 C657 1.392 . S
C660 H670 0.930 . S
C661 C658 1.372 1_545 S
C661 C659 1.390 . S
C661 H671 0.929 1_545 S
C662 O642 1.255 . S
C662 O643 1.257 . S
C663 Eu599 2.787 . S
C663 O638 1.252 . S
C663 O641 1.268 . S
C663 C656 1.506 . S
H664 C647 0.931 . S
H665 C648 0.931 . S
H666 C649 0.929 . S
H667 C650 0.930 . S
H668 C658 0.931 . S
H669 C659 0.931 . S
H670 C660 0.930 . S
H671 C661 0.929 1_565 S
Eu672 N701 2.600 . S
Eu672 N707 2.562 . S
Eu672 O716 2.462 . S
Eu672 O717 2.373 . S
Eu672 O719 2.432 . S
Eu672 O720 2.291 . S
Eu672 O724 2.335 . S
Eu672 O727 2.372 . S
Eu672 C736 2.787 . S
C673 N674 1.365 . S
C673 C676 1.405 . S
C673 C680 1.448 . S
N674 C673 1.365 . S
N674 C677 1.319 . S
N674 Eu683 2.600 . S
C675 C677 1.397 . S
C675 C678 1.367 . S
C675 H695 0.931 . S
C676 C673 1.405 . S
C676 C678 1.403 . S
C676 C682 1.439 . S
C677 N674 1.319 . S
C677 C675 1.397 . S
C677 H688 0.930 . S
C678 C675 1.367 . S
C678 C676 1.403 . S
C678 H699 0.929 . S
C679 C680 1.430 . S
C679 C681 1.387 . S
C679 C685 1.404 . S
C680 C673 1.448 . S
C680 C679 1.430 . S
C680 N684 1.351 . S
C681 C679 1.387 . S
C681 C682 1.374 . S
C681 H696 0.931 . S
C682 C676 1.439 . S
C682 C681 1.374 . S
C682 H697 0.931 . S
Eu683 N674 2.600 . S
Eu683 N684 2.562 . S
Eu683 O718 2.335 . S
Eu683 O721 2.372 . S
Eu683 O722 2.462 . S
Eu683 O723 2.373 . S
Eu683 O725 2.432 . S
Eu683 O726 2.291 . S
Eu683 C747 2.787 . S
N684 C680 1.351 . S
N684 Eu683 2.562 . S
N684 C686 1.325 . S
C685 C679 1.404 . S
C685 C687 1.366 . S
C685 H693 0.930 . S
C686 N684 1.325 . S
C686 C687 1.416 . S
C686 H692 0.929 . S
C687 C685 1.366 . S
C687 C686 1.416 . S
C687 H689 0.930 . S
H688 C677 0.930 . S
H689 C687 0.930 . S
H690 C705 0.930 . S
H691 C712 0.930 . S
H692 C686 0.929 . S
H693 C685 0.930 . S
H694 C708 0.929 . S
H695 C675 0.931 . S
H696 C681 0.931 . S
H697 C682 0.931 . S
H698 C703 0.931 . S
H699 C678 0.929 . S
H700 C711 0.930 . S
N701 Eu672 2.600 . S
N701 C702 1.365 . S
N701 C705 1.319 . S
C702 N701 1.365 . S
C702 C704 1.405 . S
C702 C710 1.448 . S
C703 H698 0.931 . S
C703 C705 1.397 . S
C703 C706 1.367 . S
C704 C702 1.405 . S
C704 C706 1.403 . S
C704 C737 1.439 . S
C705 H690 0.930 . S
C705 N701 1.319 . S
C705 C703 1.397 . S
C706 C703 1.367 . S
C706 C704 1.403 . S
C706 H713 0.929 . S
N707 Eu672 2.562 . S
N707 C708 1.325 . S
N707 C710 1.351 . S
C708 H694 0.929 . S
C708 N707 1.325 . S
C708 C712 1.416 . S
C709 C710 1.430 . S
C709 C711 1.404 . S
C709 C738 1.387 . S
C710 C702 1.448 . S
C710 N707 1.351 . S
C710 C709 1.430 . S
C711 H700 0.930 . S
C711 C709 1.404 . S
C711 C712 1.366 . S
C712 H691 0.930 . S
C712 C708 1.416 . S
C712 C711 1.366 . S
H713 C706 0.929 . S
H714 C737 0.931 . S
H715 C738 0.931 . S
O716 Eu672 2.462 . S
O716 C736 1.252 . S
O717 Eu672 2.373 . S
O717 C728 1.249 . S
O718 Eu683 2.335 . S
O718 C728 1.264 . S
O719 Eu672 2.432 . S
O719 C736 1.268 . S
O720 Eu672 2.291 . S
O720 C735 1.255 . S
O721 Eu683 2.372 . S
O721 C735 1.257 . S
O722 Eu683 2.462 . S
O722 C747 1.252 . S
O723 Eu683 2.373 . S
O723 C739 1.249 . S
O724 Eu672 2.335 . S
O724 C739 1.264 . S
O725 Eu683 2.432 . S
O725 C747 1.268 . S
O726 Eu683 2.291 . S
O726 C746 1.255 . S
O727 Eu672 2.372 . S
O727 C746 1.257 . S
C728 O717 1.249 . S
C728 O718 1.264 . S
C729 C732 1.382 . S
C729 C734 1.390 . S
C729 C736 1.506 . S
C730 C731 1.398 . S
C730 C734 1.392 . S
C731 C730 1.398 . S
C731 C733 1.372 . S
C731 H748 0.931 . S
C732 C729 1.382 . S
C732 C733 1.390 . S
C732 H749 0.931 . S
C733 C731 1.372 . S
C733 C732 1.390 . S
C733 H750 0.929 . S
C734 C729 1.390 . S
C734 C730 1.392 . S
C734 H751 0.930 . S
C735 O720 1.255 . S
C735 O721 1.257 . S
C736 Eu672 2.787 . S
C736 O716 1.252 . S
C736 O719 1.268 . S
C736 C729 1.506 . S
C737 C704 1.439 . S
C737 H714 0.931 . S
C737 C738 1.374 . S
C738 C709 1.387 . S
C738 H715 0.931 . S
C738 C737 1.374 . S
C739 O723 1.249 . S
C739 O724 1.264 . S
C740 C743 1.382 . S
C740 C744 1.390 . S
C740 C747 1.506 . S
C741 C742 1.399 . S
C741 C744 1.390 1_455 S
C742 C741 1.399 . S
C742 C745 1.372 . S
C742 H752 0.931 . S
C743 C740 1.382 . S
C743 C745 1.390 1_655 S
C743 H753 0.931 . S
C744 C740 1.390 . S
C744 C741 1.390 1_655 S
C744 H754 0.930 . S
C745 C742 1.372 . S
C745 C743 1.390 1_455 S
C745 H755 0.929 . S
C746 O726 1.255 . S
C746 O727 1.257 . S
C747 Eu683 2.787 . S
C747 O722 1.252 . S
C747 O725 1.268 . S
C747 C740 1.506 . S
H748 C731 0.931 . S
H749 C732 0.931 . S
H750 C733 0.929 . S
H751 C734 0.930 . S
H752 C742 0.931 . S
H753 C743 0.931 . S
H754 C744 0.930 . S
H755 C745 0.929 . S
C756 C757 1.391 1_554 S
C756 C758 1.394 . S
C756 H772 0.931 . S
C757 C756 1.391 1_556 S
C757 C761 1.376 . S
C758 C756 1.394 . S
C758 C759 1.369 . S
C758 C762 1.531 . S
C759 C758 1.369 . S
C759 C760 1.410 1_554 S
C759 C767 1.503 . S
C760 C759 1.410 1_556 S
C760 C761 1.392 . S
C760 C763 1.511 . S
C761 C757 1.376 . S
C761 C760 1.392 . S
C761 H773 0.929 . S
C762 C758 1.531 . S
C762 H774 0.960 . S
C762 H775 0.962 . S
C762 H776 0.960 . S
C763 C760 1.511 . S
C763 H777 0.961 . S
C763 H778 0.961 . S
C763 H779 0.961 . S
C764 C765 1.370 . S
C764 C766 1.363 . S
C764 H780 0.931 . S
C765 C764 1.370 . S
C765 C769 1.408 . S
C766 C764 1.363 . S
C766 C767 1.370 . S
C766 C770 1.524 . S
C767 C759 1.503 . S
C767 C766 1.370 . S
C767 C768 1.403 . S
C768 C767 1.403 . S
C768 C769 1.404 . S
C768 C771 1.539 1_554 S
C769 C765 1.408 . S
C769 C768 1.404 . S
C769 H781 0.930 . S
C770 C766 1.524 . S
C770 H782 0.956 . S
C770 H783 0.961 . S
C770 H784 0.961 . S
C771 C768 1.539 1_556 S
C771 H785 0.946 1_556 S
C771 H786 0.961 . S
C771 H787 0.960 . S
H772 C756 0.931 . S
H773 C761 0.929 . S
H774 C762 0.960 . S
H775 C762 0.962 . S
H776 C762 0.960 . S
H777 C763 0.961 . S
H778 C763 0.961 . S
H779 C763 0.961 . S
H780 C764 0.931 . S
H781 C769 0.930 . S
H782 C770 0.956 . S
H783 C770 0.961 . S
H784 C770 0.961 . S
H785 C771 0.946 1_554 S
H786 C771 0.961 . S
H787 C771 0.960 . S
C788 C789 1.391 1_554 S
C788 C790 1.394 . S
C788 H804 0.931 . S
C789 C788 1.391 1_556 S
C789 C793 1.376 . S
C790 C788 1.394 . S
C790 C791 1.369 . S
C790 C794 1.531 . S
C791 C790 1.369 . S
C791 C792 1.410 1_554 S
C791 C799 1.503 . S
C792 C791 1.410 1_556 S
C792 C793 1.392 . S
C792 C795 1.511 . S
C793 C789 1.376 . S
C793 C792 1.392 . S
C793 H805 0.929 . S
C794 C790 1.531 . S
C794 H806 0.960 . S
C794 H807 0.962 . S
C794 H808 0.960 . S
C795 C792 1.511 . S
C795 H809 0.961 . S
C795 H810 0.961 . S
C795 H811 0.961 . S
C796 C797 1.370 . S
C796 C798 1.363 . S
C796 H812 0.931 . S
C797 C796 1.370 . S
C797 C801 1.408 . S
C798 C796 1.363 . S
C798 C799 1.370 . S
C798 C802 1.524 . S
C799 C791 1.503 . S
C799 C798 1.370 . S
C799 C800 1.403 1_554 S
C800 C799 1.403 1_556 S
C800 C801 1.404 1_556 S
C800 C803 1.539 . S
C801 C797 1.408 . S
C801 C800 1.404 1_554 S
C801 H813 0.930 1_554 S
C802 C798 1.524 . S
C802 H814 0.956 . S
C802 H815 0.961 . S
C802 H816 0.961 . S
C803 C800 1.539 . S
C803 H817 0.958 . S
C803 H818 0.961 . S
C803 H819 0.960 . S
H804 C788 0.931 . S
H805 C793 0.929 . S
H806 C794 0.960 . S
H807 C794 0.962 . S
H808 C794 0.960 . S
H809 C795 0.961 . S
H810 C795 0.961 . S
H811 C795 0.961 . S
H812 C796 0.931 . S
H813 C801 0.930 1_556 S
H814 C802 0.956 . S
H815 C802 0.961 . S
H816 C802 0.961 . S
H817 C803 0.958 . S
H818 C803 0.961 . S
H819 C803 0.960 . S
C820 C821 1.391 . S
C820 C822 1.394 . S
C820 H836 0.931 . S
C821 C820 1.391 . S
C821 C825 1.376 . S
C822 C820 1.394 . S
C822 C823 1.369 . S
C822 C826 1.531 1_554 S
C823 C822 1.369 . S
C823 C824 1.410 . S
C823 C831 1.505 . S
C824 C823 1.410 . S
C824 C825 1.392 . S
C824 C827 1.511 . S
C825 C821 1.376 . S
C825 C824 1.392 . S
C825 H837 0.929 . S
C826 C822 1.531 1_556 S
C826 H838 0.960 . S
C826 H839 0.962 1_556 S
C826 H840 0.960 . S
C827 C824 1.511 . S
C827 H841 0.961 . S
C827 H842 0.961 . S
C827 H843 0.961 1_554 S
C828 C829 1.370 1_554 S
C828 C830 1.363 . S
C828 H844 0.931 . S
C829 C828 1.370 1_556 S
C829 C833 1.408 . S
C830 C828 1.363 . S
C830 C831 1.379 . S
C830 C834 1.524 . S
C831 C823 1.505 . S
C831 C830 1.379 . S
C831 C832 1.392 1_554 S
C832 C831 1.392 1_556 S
C832 C833 1.404 . S
C832 C835 1.539 . S
C833 C829 1.408 . S
C833 C832 1.404 . S
C833 H845 0.930 . S
C834 C830 1.524 . S
C834 H846 0.956 . S
C834 H847 0.961 . S
C834 H848 0.961 . S
C835 C832 1.539 . S
C835 H849 0.958 . S
C835 H850 0.961 . S
C835 H851 0.960 . S
H836 C820 0.931 . S
H837 C825 0.929 . S
H838 C826 0.960 . S
H839 C826 0.962 1_554 S
H840 C826 0.960 . S
H841 C827 0.961 . S
H842 C827 0.961 . S
H843 C827 0.961 1_556 S
H844 C828 0.931 . S
H845 C833 0.930 . S
H846 C834 0.956 . S
H847 C834 0.961 . S
H848 C834 0.961 . S
H849 C835 0.958 . S
H850 C835 0.961 . S
H851 C835 0.960 . S
C852 C853 1.391 . S
C852 C854 1.394 . S
C852 H868 0.931 . S
C853 C852 1.391 . S
C853 C857 1.376 1_554 S
C854 C852 1.394 . S
C854 C855 1.369 . S
C854 C858 1.531 . S
C855 C854 1.369 . S
C855 C856 1.410 1_554 S
C855 C863 1.503 1_554 S
C856 C855 1.410 1_556 S
C856 C857 1.392 . S
C856 C859 1.511 . S
C857 C853 1.376 1_556 S
C857 C856 1.392 . S
C857 H869 0.929 . S
C858 C854 1.531 . S
C858 H870 0.960 . S
C858 H871 0.962 . S
C858 H872 0.960 . S
C859 C856 1.511 . S
C859 H873 0.961 . S
C859 H874 0.961 . S
C859 H875 0.961 . S
C860 C861 1.370 . S
C860 C862 1.363 . S
C860 H876 0.931 . S
C861 C860 1.370 . S
C861 C865 1.408 1_556 S
C862 C860 1.363 . S
C862 C863 1.370 . S
C862 C866 1.524 . S
C863 C855 1.503 1_556 S
C863 C862 1.370 . S
C863 C864 1.403 1_556 S
C864 C863 1.403 1_554 S
C864 C865 1.404 . S
C864 C867 1.539 . S
C865 C861 1.408 1_554 S
C865 C864 1.404 . S
C865 H877 0.930 . S
C866 C862 1.524 . S
C866 H878 0.956 . S
C866 H879 0.961 . S
C866 H880 0.961 . S
C867 C864 1.539 . S
C867 H881 0.958 . S
C867 H882 0.961 . S
C867 H883 0.960 . S
H868 C852 0.931 . S
H869 C857 0.929 . S
H870 C858 0.960 . S
H871 C858 0.962 . S
H872 C858 0.960 . S
H873 C859 0.961 . S
H874 C859 0.961 . S
H875 C859 0.961 . S
H876 C860 0.931 . S
H877 C865 0.930 . S
H878 C866 0.956 . S
H879 C866 0.961 . S
H880 C866 0.961 . S
H881 C867 0.958 . S
H882 C867 0.961 . S
H883 C867 0.960 . S
C884 C885 1.391 . S
C884 C886 1.394 . S
C884 H900 0.931 . S
C885 C884 1.391 . S
C885 C889 1.376 1_556 S
C886 C884 1.394 . S
C886 C887 1.369 . S
C886 C890 1.531 . S
C887 C886 1.369 . S
C887 C888 1.410 1_556 S
C887 C895 1.503 1_556 S
C888 C887 1.410 1_554 S
C888 C889 1.392 . S
C888 C891 1.511 . S
C889 C885 1.376 1_554 S
C889 C888 1.392 . S
C889 H901 0.929 . S
C890 C886 1.531 . S
C890 H902 0.960 . S
C890 H903 0.962 . S
C890 H904 0.960 . S
C891 C888 1.511 . S
C891 H905 0.961 . S
C891 H906 0.961 . S
C891 H907 0.961 . S
C892 C893 1.370 1_556 S
C892 C894 1.363 . S
C892 H908 0.931 . S
C893 C892 1.370 1_554 S
C893 C897 1.408 . S
C894 C892 1.363 . S
C894 C895 1.370 1_556 S
C894 C898 1.524 . S
C895 C887 1.503 1_554 S
C895 C894 1.370 1_554 S
C895 C896 1.403 . S
C896 C895 1.403 . S
C896 C897 1.404 . S
C896 C899 1.539 . S
C897 C893 1.408 . S
C897 C896 1.404 . S
C897 H909 0.930 . S
C898 C894 1.524 . S
C898 H910 0.956 . S
C898 H911 0.961 . S
C898 H912 0.961 . S
C899 C896 1.539 . S
C899 H913 0.958 . S
C899 H914 0.961 . S
C899 H915 0.960 . S
H900 C884 0.931 . S
H901 C889 0.929 . S
H902 C890 0.960 . S
H903 C890 0.962 . S
H904 C890 0.960 . S
H905 C891 0.961 . S
H906 C891 0.961 . S
H907 C891 0.961 . S
H908 C892 0.931 . S
H909 C897 0.930 . S
H910 C898 0.956 . S
H911 C898 0.961 . S
H912 C898 0.961 . S
H913 C899 0.958 . S
H914 C899 0.961 . S
H915 C899 0.960 . S
C916 C917 1.391 1_554 S
C916 C918 1.394 . S
C916 H932 0.931 . S
C917 C916 1.391 1_556 S
C917 C921 1.376 . S
C918 C916 1.394 . S
C918 C919 1.369 1_554 S
C918 C922 1.531 . S
C919 C918 1.369 1_556 S
C919 C920 1.410 . S
C919 C927 1.503 . S
C920 C919 1.410 . S
C920 C921 1.392 . S
C920 C923 1.511 . S
C921 C917 1.376 . S
C921 C920 1.392 . S
C921 H933 0.929 . S
C922 C918 1.531 . S
C922 H934 0.960 . S
C922 H935 0.962 . S
C922 H936 0.960 . S
C923 C920 1.511 . S
C923 H937 0.961 . S
C923 H938 0.961 . S
C923 H939 0.961 . S
C924 C925 1.370 . S
C924 C926 1.363 . S
C924 H940 0.931 . S
C925 C924 1.370 . S
C925 C929 1.408 . S
C926 C924 1.363 . S
C926 C927 1.370 1_554 S
C926 C930 1.524 . S
C927 C919 1.503 . S
C927 C926 1.370 1_556 S
C927 C928 1.403 . S
C928 C927 1.403 . S
C928 C929 1.404 1_556 S
C928 C931 1.539 . S
C929 C925 1.408 . S
C929 C928 1.404 1_554 S
C929 H941 0.930 . S
C930 C926 1.524 . S
C930 H942 0.956 . S
C930 H943 0.961 1_554 S
C930 H944 0.961 . S
C931 C928 1.539 . S
C931 H945 0.958 1_556 S
C931 H946 0.961 . S
C931 H947 0.960 . S
H932 C916 0.931 . S
H933 C921 0.929 . S
H934 C922 0.960 . S
H935 C922 0.962 . S
H936 C922 0.960 . S
H937 C923 0.961 . S
H938 C923 0.961 . S
H939 C923 0.961 . S
H940 C924 0.931 . S
H941 C929 0.930 . S
H942 C930 0.956 . S
H943 C930 0.961 1_556 S
H944 C930 0.961 . S
H945 C931 0.958 1_554 S
H946 C931 0.961 . S
H947 C931 0.960 . S
C948 C949 1.391 . S
C948 C950 1.394 . S
C948 H964 0.931 . S
C949 C948 1.391 . S
C949 C953 1.376 . S
C950 C948 1.394 . S
C950 C951 1.369 . S
C950 C954 1.531 . S
C951 C950 1.369 . S
C951 C952 1.410 . S
C951 C959 1.503 1_655 S
C952 C951 1.410 . S
C952 C953 1.392 . S
C952 C955 1.511 1_655 S
C953 C949 1.376 . S
C953 C952 1.392 . S
C953 H965 0.929 . S
C954 C950 1.531 . S
C954 H966 0.960 . S
C954 H967 0.962 . S
C954 H968 0.960 . S
C955 C952 1.511 1_455 S
C955 H969 0.961 1_455 S
C955 H970 0.961 . S
C955 H971 0.961 . S
C956 C957 1.370 . S
C956 C958 1.363 . S
C956 H972 0.931 . S
C957 C956 1.370 . S
C957 C961 1.408 . S
C958 C956 1.363 . S
C958 C959 1.370 . S
C958 C962 1.524 . S
C959 C951 1.503 1_455 S
C959 C958 1.370 . S
C959 C960 1.403 . S
C960 C959 1.403 . S
C960 C961 1.404 . S
C960 C963 1.539 . S
C961 C957 1.408 . S
C961 C960 1.404 . S
C961 H973 0.930 . S
C962 C958 1.524 . S
C962 H974 0.956 . S
C962 H975 0.961 . S
C962 H976 0.961 . S
C963 C960 1.539 . S
C963 H977 0.958 . S
C963 H978 0.961 . S
C963 H979 0.960 . S
H964 C948 0.931 . S
H965 C953 0.929 . S
H966 C954 0.960 . S
H967 C954 0.962 . S
H968 C954 0.960 . S
H969 C955 0.961 1_655 S
H970 C955 0.961 . S
H971 C955 0.961 . S
H972 C956 0.931 . S
H973 C961 0.930 . S
H974 C962 0.956 . S
H975 C962 0.961 . S
H976 C962 0.961 . S
H977 C963 0.958 . S
H978 C963 0.961 . S
H979 C963 0.960 . S
C980 C981 1.391 . S
C980 C982 1.394 . S
C980 H996 0.931 . S
C981 C980 1.391 . S
C981 C985 1.376 . S
C982 C980 1.394 . S
C982 C983 1.369 . S
C982 C986 1.531 . S
C983 C982 1.369 . S
C983 C984 1.410 . S
C983 C991 1.503 . S
C984 C983 1.410 . S
C984 C985 1.392 . S
C984 C987 1.511 . S
C985 C981 1.376 . S
C985 C984 1.392 . S
C985 H997 0.929 . S
C986 C982 1.531 . S
C986 H998 0.960 . S
C986 H999 0.962 . S
C986 H1000 0.960 . S
C987 C984 1.511 . S
C987 H1001 0.961 . S
C987 H1002 0.961 . S
C987 H1003 0.961 . S
C988 C989 1.370 . S
C988 C990 1.363 . S
C988 H1004 0.931 . S
C989 C988 1.370 . S
C989 C993 1.408 . S
C990 C988 1.363 . S
C990 C991 1.370 . S
C990 C994 1.524 . S
C991 C983 1.503 . S
C991 C990 1.370 . S
C991 C992 1.403 . S
C992 C991 1.403 . S
C992 C993 1.404 . S
C992 C995 1.539 . S
C993 C989 1.408 . S
C993 C992 1.404 . S
C993 H1005 0.930 . S
C994 C990 1.524 . S
C994 H1006 0.956 . S
C994 H1007 0.961 . S
C994 H1008 0.961 . S
C995 C992 1.539 . S
C995 H1009 0.958 . S
C995 H1010 0.961 . S
C995 H1011 0.960 . S
H996 C980 0.931 . S
H997 C985 0.929 . S
H998 C986 0.960 . S
H999 C986 0.962 . S
H1000 C986 0.960 . S
H1001 C987 0.961 . S
H1002 C987 0.961 . S
H1003 C987 0.961 . S
H1004 C988 0.931 . S
H1005 C993 0.930 . S
H1006 C994 0.956 . S
H1007 C994 0.961 . S
H1008 C994 0.961 . S
H1009 C995 0.958 . S
H1010 C995 0.961 . S
H1011 C995 0.960 . S
C1012 C1013 1.391 . S
C1012 C1014 1.394 . S
C1012 H1028 0.931 . S
C1013 C1012 1.391 . S
C1013 C1017 1.376 . S
C1014 C1012 1.394 . S
C1014 C1015 1.369 . S
C1014 C1018 1.531 . S
C1015 C1014 1.369 . S
C1015 C1016 1.410 . S
C1015 C1023 1.503 1_545 S
C1016 C1015 1.410 . S
C1016 C1017 1.392 . S
C1016 C1019 1.511 . S
C1017 C1013 1.376 . S
C1017 C1016 1.392 . S
C1017 H1029 0.929 . S
C1018 C1014 1.531 . S
C1018 H1030 0.960 1_545 S
C1018 H1031 0.962 . S
C1018 H1032 0.960 . S
C1019 C1016 1.511 . S
C1019 H1033 0.961 . S
C1019 H1034 0.961 1_545 S
C1019 H1035 0.961 . S
C1020 C1021 1.370 . S
C1020 C1022 1.363 . S
C1020 H1036 0.931 . S
C1021 C1020 1.370 . S
C1021 C1025 1.408 . S
C1022 C1020 1.363 . S
C1022 C1023 1.370 . S
C1022 C1026 1.524 1_565 S
C1023 C1015 1.503 1_565 S
C1023 C1022 1.370 . S
C1023 C1024 1.403 . S
C1024 C1023 1.403 . S
C1024 C1025 1.404 . S
C1024 C1027 1.539 . S
C1025 C1021 1.408 . S
C1025 C1024 1.404 . S
C1025 H1037 0.930 . S
C1026 C1022 1.524 1_545 S
C1026 H1038 0.956 . S
C1026 H1039 0.961 . S
C1026 H1040 0.961 1_545 S
C1027 C1024 1.539 . S
C1027 H1041 0.958 . S
C1027 H1042 0.961 . S
C1027 H1043 0.960 . S
H1028 C1012 0.931 . S
H1029 C1017 0.929 . S
H1030 C1018 0.960 1_565 S
H1031 C1018 0.962 . S
H1032 C1018 0.960 . S
H1033 C1019 0.961 . S
H1034 C1019 0.961 1_565 S
H1035 C1019 0.961 . S
H1036 C1020 0.931 . S
H1037 C1025 0.930 . S
H1038 C1026 0.956 . S
H1039 C1026 0.961 . S
H1040 C1026 0.961 1_565 S
H1041 C1027 0.958 . S
H1042 C1027 0.961 . S
H1043 C1027 0.960 . S
C1044 C1045 1.391 . S
C1044 C1046 1.394 . S
C1044 H1060 0.931 . S
C1045 C1044 1.391 . S
C1045 C1049 1.376 . S
C1046 C1044 1.394 . S
C1046 C1047 1.369 . S
C1046 C1050 1.531 . S
C1047 C1046 1.369 . S
C1047 C1048 1.410 . S
C1047 C1055 1.503 . S
C1048 C1047 1.410 . S
C1048 C1049 1.392 . S
C1048 C1051 1.511 . S
C1049 C1045 1.376 . S
C1049 C1048 1.392 . S
C1049 H1061 0.929 . S
C1050 C1046 1.531 . S
C1050 H1062 0.960 . S
C1050 H1063 0.962 . S
C1050 H1064 0.960 . S
C1051 C1048 1.511 . S
C1051 H1065 0.961 . S
C1051 H1066 0.961 . S
C1051 H1067 0.961 . S
C1052 C1053 1.370 . S
C1052 C1054 1.363 . S
C1052 H1068 0.931 . S
C1053 C1052 1.370 . S
C1053 C1057 1.408 . S
C1054 C1052 1.363 . S
C1054 C1055 1.370 . S
C1054 C1058 1.524 . S
C1055 C1047 1.503 . S
C1055 C1054 1.370 . S
C1055 C1056 1.403 . S
C1056 C1055 1.403 . S
C1056 C1057 1.404 . S
C1056 C1059 1.539 . S
C1057 C1053 1.408 . S
C1057 C1056 1.404 . S
C1057 H1069 0.930 . S
C1058 C1054 1.524 . S
C1058 H1070 0.956 . S
C1058 H1071 0.961 . S
C1058 H1072 0.961 . S
C1059 C1056 1.539 . S
C1059 H1073 0.958 . S
C1059 H1074 0.961 . S
C1059 H1075 0.960 . S
H1060 C1044 0.931 . S
H1061 C1049 0.929 . S
H1062 C1050 0.960 . S
H1063 C1050 0.962 . S
H1064 C1050 0.960 . S
H1065 C1051 0.961 . S
H1066 C1051 0.961 . S
H1067 C1051 0.961 . S
H1068 C1052 0.931 . S
H1069 C1057 0.930 . S
H1070 C1058 0.956 . S
H1071 C1058 0.961 . S
H1072 C1058 0.961 . S
H1073 C1059 0.958 . S
H1074 C1059 0.961 . S
H1075 C1059 0.960 . S
C1076 C1077 1.391 . S
C1076 C1078 1.394 . S
C1076 H1092 0.931 . S
C1077 C1076 1.391 . S
C1077 C1081 1.376 . S
C1078 C1076 1.394 . S
C1078 C1079 1.369 . S
C1078 C1082 1.531 . S
C1079 C1078 1.369 . S
C1079 C1080 1.410 . S
C1079 C1087 1.503 . S
C1080 C1079 1.410 . S
C1080 C1081 1.392 . S
C1080 C1083 1.511 . S
C1081 C1077 1.376 . S
C1081 C1080 1.392 . S
C1081 H1093 0.929 . S
C1082 C1078 1.531 . S
C1082 H1094 0.960 . S
C1082 H1095 0.962 . S
C1082 H1096 0.960 . S
C1083 C1080 1.511 . S
C1083 H1097 0.961 . S
C1083 H1098 0.961 . S
C1083 H1099 0.961 . S
C1084 C1085 1.370 . S
C1084 C1086 1.363 . S
C1084 H1100 0.931 . S
C1085 C1084 1.370 . S
C1085 C1089 1.408 . S
C1086 C1084 1.363 . S
C1086 C1087 1.370 . S
C1086 C1090 1.524 . S
C1087 C1079 1.503 . S
C1087 C1086 1.370 . S
C1087 C1088 1.403 . S
C1088 C1087 1.403 . S
C1088 C1089 1.404 . S
C1088 C1091 1.539 . S
C1089 C1085 1.408 . S
C1089 C1088 1.404 . S
C1089 H1101 0.930 . S
C1090 C1086 1.524 . S
C1090 H1102 0.956 . S
C1090 H1103 0.961 . S
C1090 H1104 0.961 . S
C1091 C1088 1.539 . S
C1091 H1105 0.958 . S
C1091 H1106 0.961 . S
C1091 H1107 0.960 . S
H1092 C1076 0.931 . S
H1093 C1081 0.929 . S
H1094 C1082 0.960 . S
H1095 C1082 0.962 . S
H1096 C1082 0.960 . S
H1097 C1083 0.961 . S
H1098 C1083 0.961 . S
H1099 C1083 0.961 . S
H1100 C1084 0.931 . S
H1101 C1089 0.930 . S
H1102 C1090 0.956 . S
H1103 C1090 0.961 . S
H1104 C1090 0.961 . S
H1105 C1091 0.958 . S
H1106 C1091 0.961 . S
H1107 C1091 0.960 . S
C1108 C1109 1.391 . S
C1108 C1110 1.394 . S
C1108 H1124 0.931 . S
C1109 C1108 1.391 . S
C1109 C1113 1.376 . S
C1110 C1108 1.394 . S
C1110 C1111 1.369 . S
C1110 C1114 1.531 . S
C1111 C1110 1.369 . S
C1111 C1112 1.410 . S
C1111 C1119 1.503 . S
C1112 C1111 1.410 . S
C1112 C1113 1.392 . S
C1112 C1115 1.511 . S
C1113 C1109 1.376 . S
C1113 C1112 1.392 . S
C1113 H1125 0.929 . S
C1114 C1110 1.531 . S
C1114 H1126 0.960 . S
C1114 H1127 0.962 . S
C1114 H1128 0.960 . S
C1115 C1112 1.511 . S
C1115 H1129 0.961 . S
C1115 H1130 0.961 . S
C1115 H1131 0.961 . S
C1116 C1117 1.370 . S
C1116 C1118 1.363 . S
C1116 H1132 0.931 . S
C1117 C1116 1.370 . S
C1117 C1121 1.408 . S
C1118 C1116 1.363 . S
C1118 C1119 1.370 . S
C1118 C1122 1.524 . S
C1119 C1111 1.503 . S
C1119 C1118 1.370 . S
C1119 C1120 1.403 . S
C1120 C1119 1.403 . S
C1120 C1121 1.404 . S
C1120 C1123 1.539 . S
C1121 C1117 1.408 . S
C1121 C1120 1.404 . S
C1121 H1133 0.930 . S
C1122 C1118 1.524 . S
C1122 H1134 0.956 . S
C1122 H1135 0.961 . S
C1122 H1136 0.961 . S
C1123 C1120 1.539 . S
C1123 H1137 0.958 . S
C1123 H1138 0.961 . S
C1123 H1139 0.960 . S
H1124 C1108 0.931 . S
H1125 C1113 0.929 . S
H1126 C1114 0.960 . S
H1127 C1114 0.962 . S
H1128 C1114 0.960 . S
H1129 C1115 0.961 . S
H1130 C1115 0.961 . S
H1131 C1115 0.961 . S
H1132 C1116 0.931 . S
H1133 C1121 0.930 . S
H1134 C1122 0.956 . S
H1135 C1122 0.961 . S
H1136 C1122 0.961 . S
H1137 C1123 0.958 . S
H1138 C1123 0.961 . S
H1139 C1123 0.960 . S
C1140 C1141 1.391 . S
C1140 C1142 1.394 . S
C1140 H1156 0.931 . S
C1141 C1140 1.391 . S
C1141 C1145 1.376 . S
C1142 C1140 1.394 . S
C1142 C1143 1.369 . S
C1142 C1146 1.531 . S
C1143 C1142 1.369 . S
C1143 C1144 1.410 . S
C1143 C1151 1.503 . S
C1144 C1143 1.410 . S
C1144 C1145 1.392 . S
C1144 C1147 1.511 . S
C1145 C1141 1.376 . S
C1145 C1144 1.392 . S
C1145 H1157 0.929 . S
C1146 C1142 1.531 . S
C1146 H1158 0.960 . S
C1146 H1159 0.962 . S
C1146 H1160 0.960 . S
C1147 C1144 1.511 . S
C1147 H1161 0.961 . S
C1147 H1162 0.961 . S
C1147 H1163 0.961 . S
C1148 C1149 1.370 . S
C1148 C1150 1.363 . S
C1148 H1164 0.931 . S
C1149 C1148 1.370 . S
C1149 C1153 1.408 . S
C1150 C1148 1.363 . S
C1150 C1151 1.370 . S
C1150 C1154 1.524 . S
C1151 C1143 1.503 . S
C1151 C1150 1.370 . S
C1151 C1152 1.403 . S
C1152 C1151 1.403 . S
C1152 C1153 1.404 . S
C1152 C1155 1.539 . S
C1153 C1149 1.408 . S
C1153 C1152 1.404 . S
C1153 H1165 0.930 . S
C1154 C1150 1.524 . S
C1154 H1166 0.956 . S
C1154 H1167 0.961 . S
C1154 H1168 0.961 . S
C1155 C1152 1.539 . S
C1155 H1169 0.958 . S
C1155 H1170 0.961 . S
C1155 H1171 0.960 . S
H1156 C1140 0.931 . S
H1157 C1145 0.929 . S
H1158 C1146 0.960 . S
H1159 C1146 0.962 . S
H1160 C1146 0.960 . S
H1161 C1147 0.961 . S
H1162 C1147 0.961 . S
H1163 C1147 0.961 . S
H1164 C1148 0.931 . S
H1165 C1153 0.930 . S
H1166 C1154 0.956 . S
H1167 C1154 0.961 . S
H1168 C1154 0.961 . S
H1169 C1155 0.958 . S
H1170 C1155 0.961 . S
H1171 C1155 0.960 . S
C1172 C1173 1.391 . S
C1172 C1174 1.394 . S
C1172 H1188 0.931 . S
C1173 C1172 1.391 . S
C1173 C1177 1.376 . S
C1174 C1172 1.394 . S
C1174 C1175 1.369 . S
C1174 C1178 1.531 . S
C1175 C1174 1.369 . S
C1175 C1176 1.410 . S
C1175 C1183 1.503 . S
C1176 C1175 1.410 . S
C1176 C1177 1.392 . S
C1176 C1179 1.511 . S
C1177 C1173 1.376 . S
C1177 C1176 1.392 . S
C1177 H1189 0.929 . S
C1178 C1174 1.531 . S
C1178 H1190 0.960 . S
C1178 H1191 0.962 . S
C1178 H1192 0.960 . S
C1179 C1176 1.511 . S
C1179 H1193 0.961 . S
C1179 H1194 0.961 . S
C1179 H1195 0.961 . S
C1180 C1181 1.370 . S
C1180 C1182 1.363 . S
C1180 H1196 0.931 . S
C1181 C1180 1.370 . S
C1181 C1185 1.408 . S
C1182 C1180 1.363 . S
C1182 C1183 1.370 . S
C1182 C1186 1.524 . S
C1183 C1175 1.503 . S
C1183 C1182 1.370 . S
C1183 C1184 1.403 . S
C1184 C1183 1.403 . S
C1184 C1185 1.404 . S
C1184 C1187 1.539 . S
C1185 C1181 1.408 . S
C1185 C1184 1.404 . S
C1185 H1197 0.930 . S
C1186 C1182 1.524 . S
C1186 H1198 0.956 . S
C1186 H1199 0.961 . S
C1186 H1200 0.961 . S
C1187 C1184 1.539 . S
C1187 H1201 0.958 . S
C1187 H1202 0.961 . S
C1187 H1203 0.960 . S
H1188 C1172 0.931 . S
H1189 C1177 0.929 . S
H1190 C1178 0.960 . S
H1191 C1178 0.962 . S
H1192 C1178 0.960 . S
H1193 C1179 0.961 . S
H1194 C1179 0.961 . S
H1195 C1179 0.961 . S
H1196 C1180 0.931 . S
H1197 C1185 0.930 . S
H1198 C1186 0.956 . S
H1199 C1186 0.961 . S
H1200 C1186 0.961 . S
H1201 C1187 0.958 . S
H1202 C1187 0.961 . S
H1203 C1187 0.960 . S
C1204 C1205 1.391 . S
C1204 C1206 1.394 . S
C1204 H1220 0.931 . S
C1205 C1204 1.391 . S
C1205 C1209 1.376 . S
C1206 C1204 1.394 . S
C1206 C1207 1.369 . S
C1206 C1210 1.531 . S
C1207 C1206 1.369 . S
C1207 C1208 1.410 . S
C1207 C1215 1.503 . S
C1208 C1207 1.410 . S
C1208 C1209 1.392 . S
C1208 C1211 1.511 . S
C1209 C1205 1.376 . S
C1209 C1208 1.392 . S
C1209 H1221 0.929 . S
C1210 C1206 1.531 . S
C1210 H1222 0.960 . S
C1210 H1223 0.962 . S
C1210 H1224 0.960 . S
C1211 C1208 1.511 . S
C1211 H1225 0.961 . S
C1211 H1226 0.961 . S
C1211 H1227 0.961 . S
C1212 C1213 1.370 . S
C1212 C1214 1.363 . S
C1212 H1228 0.931 . S
C1213 C1212 1.370 . S
C1213 C1217 1.408 . S
C1214 C1212 1.363 . S
C1214 C1215 1.370 . S
C1214 C1218 1.524 . S
C1215 C1207 1.503 . S
C1215 C1214 1.370 . S
C1215 C1216 1.403 . S
C1216 C1215 1.403 . S
C1216 C1217 1.404 . S
C1216 C1219 1.539 . S
C1217 C1213 1.408 . S
C1217 C1216 1.404 . S
C1217 H1229 0.930 . S
C1218 C1214 1.524 . S
C1218 H1230 0.956 . S
C1218 H1231 0.961 . S
C1218 H1232 0.961 . S
C1219 C1216 1.539 . S
C1219 H1233 0.958 . S
C1219 H1234 0.961 . S
C1219 H1235 0.960 . S
H1220 C1204 0.931 . S
H1221 C1209 0.929 . S
H1222 C1210 0.960 . S
H1223 C1210 0.962 . S
H1224 C1210 0.960 . S
H1225 C1211 0.961 . S
H1226 C1211 0.961 . S
H1227 C1211 0.961 . S
H1228 C1212 0.931 . S
H1229 C1217 0.930 . S
H1230 C1218 0.956 . S
H1231 C1218 0.961 . S
H1232 C1218 0.961 . S
H1233 C1219 0.958 . S
H1234 C1219 0.961 . S
H1235 C1219 0.960 . S
C1236 C1237 1.391 . S
C1236 C1238 1.394 . S
C1236 H1252 0.931 . S
C1237 C1236 1.391 . S
C1237 C1241 1.376 . S
C1238 C1236 1.394 . S
C1238 C1239 1.369 . S
C1238 C1242 1.531 . S
C1239 C1238 1.369 . S
C1239 C1240 1.410 . S
C1239 C1247 1.503 . S
C1240 C1239 1.410 . S
C1240 C1241 1.392 . S
C1240 C1243 1.511 . S
C1241 C1237 1.376 . S
C1241 C1240 1.392 . S
C1241 H1253 0.929 . S
C1242 C1238 1.531 . S
C1242 H1254 0.960 . S
C1242 H1255 0.962 . S
C1242 H1256 0.960 . S
C1243 C1240 1.511 . S
C1243 H1257 0.961 . S
C1243 H1258 0.961 . S
C1243 H1259 0.961 . S
C1244 C1245 1.370 . S
C1244 C1246 1.363 . S
C1244 H1260 0.931 . S
C1245 C1244 1.370 . S
C1245 C1249 1.408 . S
C1246 C1244 1.363 . S
C1246 C1247 1.370 . S
C1246 C1250 1.524 . S
C1247 C1239 1.503 . S
C1247 C1246 1.370 . S
C1247 C1248 1.403 . S
C1248 C1247 1.403 . S
C1248 C1249 1.404 . S
C1248 C1251 1.539 . S
C1249 C1245 1.408 . S
C1249 C1248 1.404 . S
C1249 H1261 0.930 . S
C1250 C1246 1.524 . S
C1250 H1262 0.956 . S
C1250 H1263 0.961 . S
C1250 H1264 0.961 . S
C1251 C1248 1.539 . S
C1251 H1265 0.958 . S
C1251 H1266 0.961 . S
C1251 H1267 0.960 . S
H1252 C1236 0.931 . S
H1253 C1241 0.929 . S
H1254 C1242 0.960 . S
H1255 C1242 0.962 . S
H1256 C1242 0.960 . S
H1257 C1243 0.961 . S
H1258 C1243 0.961 . S
H1259 C1243 0.961 . S
H1260 C1244 0.931 . S
H1261 C1249 0.930 . S
H1262 C1250 0.956 . S
H1263 C1250 0.961 . S
H1264 C1250 0.961 . S
H1265 C1251 0.958 . S
H1266 C1251 0.961 . S
H1267 C1251 0.960 . S
C1268 C1269 1.391 . S
C1268 C1270 1.394 . S
C1268 H1284 0.931 . S
C1269 C1268 1.391 . S
C1269 C1273 1.376 . S
C1270 C1268 1.394 . S
C1270 C1271 1.369 . S
C1270 C1274 1.531 1_565 S
C1271 C1270 1.369 . S
C1271 C1272 1.410 . S
C1271 C1279 1.503 . S
C1272 C1271 1.410 . S
C1272 C1273 1.392 . S
C1272 C1275 1.511 . S
C1273 C1269 1.376 . S
C1273 C1272 1.392 . S
C1273 H1285 0.929 . S
C1274 C1270 1.531 1_545 S
C1274 H1286 0.960 . S
C1274 H1287 0.962 . S
C1274 H1288 0.960 . S
C1275 C1272 1.511 . S
C1275 H1289 0.961 . S
C1275 H1290 0.961 . S
C1275 H1291 0.961 . S
C1276 C1277 1.370 . S
C1276 C1278 1.363 1_545 S
C1276 H1292 0.931 . S
C1277 C1276 1.370 . S
C1277 C1281 1.408 . S
C1278 C1276 1.363 1_565 S
C1278 C1279 1.370 . S
C1278 C1282 1.524 . S
C1279 C1271 1.503 . S
C1279 C1278 1.370 . S
C1279 C1280 1.403 1_565 S
C1280 C1279 1.403 1_545 S
C1280 C1281 1.404 . S
C1280 C1283 1.539 . S
C1281 C1277 1.408 . S
C1281 C1280 1.404 . S
C1281 H1293 0.930 . S
C1282 C1278 1.524 . S
C1282 H1294 0.956 . S
C1282 H1295 0.961 . S
C1282 H1296 0.961 . S
C1283 C1280 1.539 . S
C1283 H1297 0.958 . S
C1283 H1298 0.961 . S
C1283 H1299 0.960 1_545 S
H1284 C1268 0.931 . S
H1285 C1273 0.929 . S
H1286 C1274 0.960 . S
H1287 C1274 0.962 . S
H1288 C1274 0.960 . S
H1289 C1275 0.961 . S
H1290 C1275 0.961 . S
H1291 C1275 0.961 . S
H1292 C1276 0.931 . S
H1293 C1281 0.930 . S
H1294 C1282 0.956 . S
H1295 C1282 0.961 . S
H1296 C1282 0.961 . S
H1297 C1283 0.958 . S
H1298 C1283 0.961 . S
H1299 C1283 0.960 1_565 S
C1300 C1301 1.391 . S
C1300 C1302 1.394 . S
C1300 H1316 0.931 . S
C1301 C1300 1.391 . S
C1301 C1305 1.376 . S
C1302 C1300 1.394 . S
C1302 C1303 1.369 . S
C1302 C1306 1.531 . S
C1303 C1302 1.369 . S
C1303 C1304 1.410 . S
C1303 C1311 1.503 . S
C1304 C1303 1.410 . S
C1304 C1305 1.392 . S
C1304 C1307 1.511 . S
C1305 C1301 1.376 . S
C1305 C1304 1.392 . S
C1305 H1317 0.929 . S
C1306 C1302 1.531 . S
C1306 H1318 0.960 1_455 S
C1306 H1319 0.962 1_455 S
C1306 H1320 0.960 . S
C1307 C1304 1.511 . S
C1307 H1321 0.961 . S
C1307 H1322 0.961 . S
C1307 H1323 0.961 . S
C1308 C1309 1.370 . S
C1308 C1310 1.363 1_655 S
C1308 H1324 0.931 . S
C1309 C1308 1.370 . S
C1309 C1313 1.408 1_655 S
C1310 C1308 1.363 1_455 S
C1310 C1311 1.370 . S
C1310 C1314 1.524 . S
C1311 C1303 1.503 . S
C1311 C1310 1.370 . S
C1311 C1312 1.403 . S
C1312 C1311 1.403 . S
C1312 C1313 1.404 . S
C1312 C1315 1.539 . S
C1313 C1309 1.408 1_455 S
C1313 C1312 1.404 . S
C1313 H1325 0.921 1_455 S
C1314 C1310 1.524 . S
C1314 H1326 0.956 . S
C1314 H1327 0.961 . S
C1314 H1328 0.961 1_455 S
C1315 C1312 1.539 . S
C1315 H1329 0.958 . S
C1315 H1330 0.961 . S
C1315 H1331 0.960 . S
H1316 C1300 0.931 . S
H1317 C1305 0.929 . S
H1318 C1306 0.960 1_655 S
H1319 C1306 0.962 1_655 S
H1320 C1306 0.960 . S
H1321 C1307 0.961 . S
H1322 C1307 0.961 . S
H1323 C1307 0.961 . S
H1324 C1308 0.931 . S
H1325 C1313 0.921 1_655 S
H1326 C1314 0.956 . S
H1327 C1314 0.961 . S
H1328 C1314 0.961 1_655 S
H1329 C1315 0.958 . S
H1330 C1315 0.961 . S
H1331 C1315 0.960 . S
C1332 C1333 1.391 . S
C1332 C1334 1.394 . S
C1332 H1348 0.931 . S
C1333 C1332 1.391 . S
C1333 C1337 1.376 . S
C1334 C1332 1.394 . S
C1334 C1335 1.369 . S
C1334 C1338 1.531 . S
C1335 C1334 1.369 . S
C1335 C1336 1.410 . S
C1335 C1343 1.503 . S
C1336 C1335 1.410 . S
C1336 C1337 1.392 . S
C1336 C1339 1.511 . S
C1337 C1333 1.376 . S
C1337 C1336 1.392 . S
C1337 H1349 0.929 . S
C1338 C1334 1.531 . S
C1338 H1350 0.960 . S
C1338 H1351 0.962 . S
C1338 H1352 0.960 . S
C1339 C1336 1.511 . S
C1339 H1353 0.961 . S
C1339 H1354 0.961 . S
C1339 H1355 0.961 . S
C1340 C1341 1.370 . S
C1340 C1342 1.363 . S
C1340 H1356 0.931 . S
C1341 C1340 1.370 . S
C1341 C1345 1.408 . S
C1342 C1340 1.363 . S
C1342 C1343 1.370 . S
C1342 C1346 1.524 . S
C1343 C1335 1.503 . S
C1343 C1342 1.370 . S
C1343 C1344 1.403 . S
C1344 C1343 1.403 . S
C1344 C1345 1.404 . S
C1344 C1347 1.539 . S
C1345 C1341 1.408 . S
C1345 C1344 1.404 . S
C1345 H1357 0.930 . S
C1346 C1342 1.524 . S
C1346 H1358 0.956 . S
C1346 H1359 0.961 . S
C1346 H1360 0.961 . S
C1347 C1344 1.539 . S
C1347 H1361 0.958 . S
C1347 H1362 0.961 . S
C1347 H1363 0.960 . S
H1348 C1332 0.931 . S
H1349 C1337 0.929 . S
H1350 C1338 0.960 . S
H1351 C1338 0.962 . S
H1352 C1338 0.960 . S
H1353 C1339 0.961 . S
H1354 C1339 0.961 . S
H1355 C1339 0.961 . S
H1356 C1340 0.931 . S
H1357 C1345 0.930 . S
H1358 C1346 0.956 . S
H1359 C1346 0.961 . S
H1360 C1346 0.961 . S
H1361 C1347 0.958 . S
H1362 C1347 0.961 . S
H1363 C1347 0.960 . S
C1364 C1365 1.391 . S
C1364 C1366 1.394 . S
C1364 H1380 0.931 . S
C1365 C1364 1.391 . S
C1365 C1369 1.376 . S
C1366 C1364 1.394 . S
C1366 C1367 1.369 . S
C1366 C1370 1.531 . S
C1367 C1366 1.369 . S
C1367 C1368 1.410 . S
C1367 C1375 1.503 . S
C1368 C1367 1.410 . S
C1368 C1369 1.392 . S
C1368 C1371 1.511 . S
C1369 C1365 1.376 . S
C1369 C1368 1.392 . S
C1369 H1381 0.929 . S
C1370 C1366 1.531 . S
C1370 H1382 0.960 . S
C1370 H1383 0.962 . S
C1370 H1384 0.960 . S
C1371 C1368 1.511 . S
C1371 H1385 0.961 . S
C1371 H1386 0.961 . S
C1371 H1387 0.961 . S
C1372 C1373 1.370 . S
C1372 C1374 1.363 . S
C1372 H1388 0.931 . S
C1373 C1372 1.370 . S
C1373 C1377 1.408 . S
C1374 C1372 1.363 . S
C1374 C1375 1.370 . S
C1374 C1378 1.524 . S
C1375 C1367 1.503 . S
C1375 C1374 1.370 . S
C1375 C1376 1.403 . S
C1376 C1375 1.403 . S
C1376 C1377 1.404 . S
C1376 C1379 1.539 . S
C1377 C1373 1.408 . S
C1377 C1376 1.404 . S
C1377 H1389 0.930 . S
C1378 C1374 1.524 . S
C1378 H1390 0.956 . S
C1378 H1391 0.961 . S
C1378 H1392 0.961 . S
C1379 C1376 1.539 . S
C1379 H1393 0.958 . S
C1379 H1394 0.961 . S
C1379 H1395 0.960 . S
H1380 C1364 0.931 . S
H1381 C1369 0.929 . S
H1382 C1370 0.960 . S
H1383 C1370 0.962 . S
H1384 C1370 0.960 . S
H1385 C1371 0.961 . S
H1386 C1371 0.961 . S
H1387 C1371 0.961 . S
H1388 C1372 0.931 . S
H1389 C1377 0.930 . S
H1390 C1378 0.956 . S
H1391 C1378 0.961 . S
H1392 C1378 0.961 . S
H1393 C1379 0.958 . S
H1394 C1379 0.961 . S
H1395 C1379 0.960 . S
C1396 C1397 1.391 . S
C1396 C1398 1.394 . S
C1396 H1412 0.931 . S
C1397 C1396 1.391 . S
C1397 C1401 1.376 . S
C1398 C1396 1.394 . S
C1398 C1399 1.369 . S
C1398 C1402 1.531 . S
C1399 C1398 1.369 . S
C1399 C1400 1.410 . S
C1399 C1407 1.503 . S
C1400 C1399 1.410 . S
C1400 C1401 1.392 . S
C1400 C1403 1.511 . S
C1401 C1397 1.376 . S
C1401 C1400 1.392 . S
C1401 H1413 0.929 . S
C1402 C1398 1.531 . S
C1402 H1414 0.960 . S
C1402 H1415 0.962 . S
C1402 H1416 0.960 . S
C1403 C1400 1.511 . S
C1403 H1417 0.961 . S
C1403 H1418 0.961 . S
C1403 H1419 0.961 . S
C1404 C1405 1.370 . S
C1404 C1406 1.363 . S
C1404 H1420 0.931 . S
C1405 C1404 1.370 . S
C1405 C1409 1.408 . S
C1406 C1404 1.363 . S
C1406 C1407 1.370 . S
C1406 C1410 1.524 . S
C1407 C1399 1.503 . S
C1407 C1406 1.370 . S
C1407 C1408 1.403 . S
C1408 C1407 1.403 . S
C1408 C1409 1.404 . S
C1408 C1411 1.539 . S
C1409 C1405 1.408 . S
C1409 C1408 1.404 . S
C1409 H1421 0.930 . S
C1410 C1406 1.524 . S
C1410 H1422 0.956 . S
C1410 H1423 0.961 . S
C1410 H1424 0.961 . S
C1411 C1408 1.539 . S
C1411 H1425 0.958 . S
C1411 H1426 0.961 . S
C1411 H1427 0.960 . S
H1412 C1396 0.931 . S
H1413 C1401 0.929 . S
H1414 C1402 0.960 . S
H1415 C1402 0.962 . S
H1416 C1402 0.960 . S
H1417 C1403 0.961 . S
H1418 C1403 0.961 . S
H1419 C1403 0.961 . S
H1420 C1404 0.931 . S
H1421 C1409 0.930 . S
H1422 C1410 0.956 . S
H1423 C1410 0.961 . S
H1424 C1410 0.961 . S
H1425 C1411 0.958 . S
H1426 C1411 0.961 . S
H1427 C1411 0.960 . S
C1428 C1429 1.391 . S
C1428 C1430 1.394 . S
C1428 H1444 0.931 . S
C1429 C1428 1.391 . S
C1429 C1433 1.376 . S
C1430 C1428 1.394 . S
C1430 C1431 1.369 . S
C1430 C1434 1.531 . S
C1431 C1430 1.369 . S
C1431 C1432 1.410 . S
C1431 C1439 1.503 . S
C1432 C1431 1.410 . S
C1432 C1433 1.392 . S
C1432 C1435 1.511 . S
C1433 C1429 1.376 . S
C1433 C1432 1.392 . S
C1433 H1445 0.929 1_545 S
C1434 C1430 1.531 . S
C1434 H1446 0.960 . S
C1434 H1447 0.962 . S
C1434 H1448 0.960 . S
C1435 C1432 1.511 . S
C1435 H1449 0.961 1_545 S
C1435 H1450 0.961 . S
C1435 H1451 0.961 1_545 S
C1436 C1437 1.370 . S
C1436 C1438 1.363 . S
C1436 H1452 0.931 . S
C1437 C1436 1.370 . S
C1437 C1441 1.408 . S
C1438 C1436 1.363 . S
C1438 C1439 1.370 . S
C1438 C1442 1.524 . S
C1439 C1431 1.503 . S
C1439 C1438 1.370 . S
C1439 C1440 1.403 . S
C1440 C1439 1.403 . S
C1440 C1441 1.404 . S
C1440 C1443 1.539 . S
C1441 C1437 1.408 . S
C1441 C1440 1.404 . S
C1441 H1453 0.930 . S
C1442 C1438 1.524 . S
C1442 H1454 0.956 . S
C1442 H1455 0.961 . S
C1442 H1456 0.961 . S
C1443 C1440 1.539 . S
C1443 H1457 0.958 . S
C1443 H1458 0.961 . S
C1443 H1459 0.960 . S
H1444 C1428 0.931 . S
H1445 C1433 0.929 1_565 S
H1446 C1434 0.960 . S
H1447 C1434 0.962 . S
H1448 C1434 0.960 . S
H1449 C1435 0.961 1_565 S
H1450 C1435 0.961 . S
H1451 C1435 0.961 1_565 S
H1452 C1436 0.931 . S
H1453 C1441 0.930 . S
H1454 C1442 0.956 . S
H1455 C1442 0.961 . S
H1456 C1442 0.961 . S
H1457 C1443 0.958 . S
H1458 C1443 0.961 . S
H1459 C1443 0.960 . S
C1460 C1461 1.391 . S
C1460 C1462 1.394 . S
C1460 H1476 0.931 1_655 S
C1461 C1460 1.391 . S
C1461 C1465 1.376 . S
C1462 C1460 1.394 . S
C1462 C1463 1.369 . S
C1462 C1466 1.531 1_655 S
C1463 C1462 1.369 . S
C1463 C1464 1.410 . S
C1463 C1471 1.503 . S
C1464 C1463 1.410 . S
C1464 C1465 1.392 . S
C1464 C1467 1.511 . S
C1465 C1461 1.376 . S
C1465 C1464 1.392 . S
C1465 H1477 0.929 . S
C1466 C1462 1.531 1_455 S
C1466 H1478 0.960 1_455 S
C1466 H1479 0.963 . S
C1466 H1480 0.960 . S
C1467 C1464 1.511 . S
C1467 H1481 0.961 . S
C1467 H1482 0.961 . S
C1467 H1483 0.961 . S
C1468 C1469 1.370 . S
C1468 C1470 1.363 . S
C1468 H1484 0.931 . S
C1469 C1468 1.370 . S
C1469 C1473 1.408 . S
C1470 C1468 1.363 . S
C1470 C1471 1.370 . S
C1470 C1474 1.524 . S
C1471 C1463 1.503 . S
C1471 C1470 1.370 . S
C1471 C1472 1.403 . S
C1472 C1471 1.403 . S
C1472 C1473 1.404 . S
C1472 C1475 1.539 . S
C1473 C1469 1.408 . S
C1473 C1472 1.404 . S
C1473 H1485 0.930 . S
C1474 C1470 1.524 . S
C1474 H1486 0.956 . S
C1474 H1487 0.961 . S
C1474 H1488 0.961 . S
C1475 C1472 1.539 . S
C1475 H1489 0.958 . S
C1475 H1490 0.961 . S
C1475 H1491 0.960 . S
H1476 C1460 0.931 1_455 S
H1477 C1465 0.929 . S
H1478 C1466 0.960 1_655 S
H1479 C1466 0.963 . S
H1480 C1466 0.960 . S
H1481 C1467 0.961 . S
H1482 C1467 0.961 . S
H1483 C1467 0.961 . S
H1484 C1468 0.931 . S
H1485 C1473 0.930 . S
H1486 C1474 0.956 . S
H1487 C1474 0.961 . S
H1488 C1474 0.961 . S
H1489 C1475 0.958 . S
H1490 C1475 0.961 . S
H1491 C1475 0.960 . S
C1492 C1493 1.391 . S
C1492 C1494 1.394 . S
C1492 H1508 0.931 . S
C1493 C1492 1.391 . S
C1493 C1497 1.376 . S
C1494 C1492 1.394 . S
C1494 C1495 1.369 . S
C1494 C1498 1.531 . S
C1495 C1494 1.369 . S
C1495 C1496 1.410 . S
C1495 C1503 1.503 . S
C1496 C1495 1.410 . S
C1496 C1497 1.392 . S
C1496 C1499 1.511 . S
C1497 C1493 1.376 . S
C1497 C1496 1.392 . S
C1497 H1509 0.929 . S
C1498 C1494 1.531 . S
C1498 H1510 0.960 . S
C1498 H1511 0.962 . S
C1498 H1512 0.960 . S
C1499 C1496 1.511 . S
C1499 H1513 0.961 . S
C1499 H1514 0.961 . S
C1499 H1515 0.961 . S
C1500 C1501 1.370 . S
C1500 C1502 1.363 . S
C1500 H1516 0.931 . S
C1501 C1500 1.370 . S
C1501 C1505 1.408 . S
C1502 C1500 1.363 . S
C1502 C1503 1.370 . S
C1502 C1506 1.524 . S
C1503 C1495 1.503 . S
C1503 C1502 1.370 . S
C1503 C1504 1.403 . S
C1504 C1503 1.403 . S
C1504 C1505 1.404 . S
C1504 C1507 1.539 . S
C1505 C1501 1.408 . S
C1505 C1504 1.404 . S
C1505 H1517 0.930 . S
C1506 C1502 1.524 . S
C1506 H1518 0.956 . S
C1506 H1519 0.961 . S
C1506 H1520 0.961 . S
C1507 C1504 1.539 . S
C1507 H1521 0.958 . S
C1507 H1522 0.961 . S
C1507 H1523 0.960 . S
H1508 C1492 0.931 . S
H1509 C1497 0.929 . S
H1510 C1498 0.960 . S
H1511 C1498 0.962 . S
H1512 C1498 0.960 . S
H1513 C1499 0.961 . S
H1514 C1499 0.961 . S
H1515 C1499 0.961 . S
H1516 C1500 0.931 . S
H1517 C1505 0.930 . S
H1518 C1506 0.956 . S
H1519 C1506 0.961 . S
H1520 C1506 0.961 . S
H1521 C1507 0.958 . S
H1522 C1507 0.961 . S
H1523 C1507 0.960 . S
C1524 C1525 1.391 . S
C1524 C1526 1.394 . S
C1524 H1540 0.931 . S
C1525 C1524 1.391 . S
C1525 C1529 1.376 . S
C1526 C1524 1.394 . S
C1526 C1527 1.369 . S
C1526 C1530 1.531 . S
C1527 C1526 1.369 . S
C1527 C1528 1.410 . S
C1527 C1535 1.503 . S
C1528 C1527 1.410 . S
C1528 C1529 1.392 . S
C1528 C1531 1.511 . S
C1529 C1525 1.376 . S
C1529 C1528 1.392 . S
C1529 H1541 0.929 . S
C1530 C1526 1.531 . S
C1530 H1542 0.960 . S
C1530 H1543 0.962 . S
C1530 H1544 0.960 . S
C1531 C1528 1.511 . S
C1531 H1545 0.961 . S
C1531 H1546 0.961 . S
C1531 H1547 0.961 . S
C1532 C1533 1.370 . S
C1532 C1534 1.363 . S
C1532 H1548 0.931 . S
C1533 C1532 1.370 . S
C1533 C1537 1.408 . S
C1534 C1532 1.363 . S
C1534 C1535 1.370 . S
C1534 C1538 1.524 . S
C1535 C1527 1.503 . S
C1535 C1534 1.370 . S
C1535 C1536 1.403 . S
C1536 C1535 1.403 . S
C1536 C1537 1.404 . S
C1536 C1539 1.539 . S
C1537 C1533 1.408 . S
C1537 C1536 1.404 . S
C1537 H1549 0.930 . S
C1538 C1534 1.524 . S
C1538 H1550 0.956 . S
C1538 H1551 0.961 . S
C1538 H1552 0.961 . S
C1539 C1536 1.539 . S
C1539 H1553 0.958 . S
C1539 H1554 0.961 . S
C1539 H1555 0.960 . S
H1540 C1524 0.931 . S
H1541 C1529 0.929 . S
H1542 C1530 0.960 . S
H1543 C1530 0.962 . S
H1544 C1530 0.960 . S
H1545 C1531 0.961 . S
H1546 C1531 0.961 . S
H1547 C1531 0.961 . S
H1548 C1532 0.931 . S
H1549 C1537 0.930 . S
H1550 C1538 0.956 . S
H1551 C1538 0.961 . S
H1552 C1538 0.961 . S
H1553 C1539 0.958 . S
H1554 C1539 0.961 . S
H1555 C1539 0.960 . S
C1556 C1557 1.391 . S
C1556 C1558 1.394 . S
C1556 H1572 0.931 . S
C1557 C1556 1.391 . S
C1557 C1561 1.376 . S
C1558 C1556 1.394 . S
C1558 C1559 1.369 1_565 S
C1558 C1562 1.531 . S
C1559 C1558 1.369 1_545 S
C1559 C1560 1.410 . S
C1559 C1567 1.503 . S
C1560 C1559 1.410 . S
C1560 C1561 1.392 1_545 S
C1560 C1563 1.511 . S
C1561 C1557 1.376 . S
C1561 C1560 1.392 1_565 S
C1561 H1573 0.929 . S
C1562 C1558 1.531 . S
C1562 H1574 0.960 . S
C1562 H1575 0.962 . S
C1562 H1576 0.960 . S
C1563 C1560 1.511 . S
C1563 H1577 0.961 . S
C1563 H1578 0.961 . S
C1563 H1579 0.961 . S
C1564 C1565 1.370 . S
C1564 C1566 1.363 . S
C1564 H1580 0.931 . S
C1565 C1564 1.370 . S
C1565 C1569 1.408 . S
C1566 C1564 1.363 . S
C1566 C1567 1.370 . S
C1566 C1570 1.524 . S
C1567 C1559 1.503 . S
C1567 C1566 1.370 . S
C1567 C1568 1.403 . S
C1568 C1567 1.403 . S
C1568 C1569 1.404 . S
C1568 C1571 1.539 . S
C1569 C1565 1.408 . S
C1569 C1568 1.404 . S
C1569 H1581 0.930 . S
C1570 C1566 1.524 . S
C1570 H1582 0.956 . S
C1570 H1583 0.961 . S
C1570 H1584 0.961 . S
C1571 C1568 1.539 . S
C1571 H1585 0.958 . S
C1571 H1586 0.961 . S
C1571 H1587 0.960 . S
H1572 C1556 0.931 . S
H1573 C1561 0.929 . S
H1574 C1562 0.960 . S
H1575 C1562 0.962 . S
H1576 C1562 0.960 . S
H1577 C1563 0.961 . S
H1578 C1563 0.961 . S
H1579 C1563 0.961 . S
H1580 C1564 0.931 . S
H1581 C1569 0.930 . S
H1582 C1570 0.956 . S
H1583 C1570 0.961 . S
H1584 C1570 0.961 . S
H1585 C1571 0.958 . S
H1586 C1571 0.961 . S
H1587 C1571 0.960 . S
C1588 C1589 1.391 . S
C1588 C1590 1.394 . S
C1588 H1604 0.931 . S
C1589 C1588 1.391 . S
C1589 C1593 1.376 . S
C1590 C1588 1.394 . S
C1590 C1591 1.369 . S
C1590 C1594 1.531 . S
C1591 C1590 1.369 . S
C1591 C1592 1.410 . S
C1591 C1599 1.503 . S
C1592 C1591 1.410 . S
C1592 C1593 1.392 . S
C1592 C1595 1.511 . S
C1593 C1589 1.376 . S
C1593 C1592 1.392 . S
C1593 H1605 0.929 . S
C1594 C1590 1.531 . S
C1594 H1606 0.960 . S
C1594 H1607 0.962 1_655 S
C1594 H1608 0.960 . S
C1595 C1592 1.511 . S
C1595 H1609 0.961 . S
C1595 H1610 0.961 . S
C1595 H1611 0.961 . S
C1596 C1597 1.370 . S
C1596 C1598 1.363 . S
C1596 H1612 0.931 . S
C1597 C1596 1.370 . S
C1597 C1601 1.408 . S
C1598 C1596 1.363 . S
C1598 C1599 1.370 1_455 S
C1598 C1602 1.524 . S
C1599 C1591 1.503 . S
C1599 C1598 1.370 1_655 S
C1599 C1600 1.403 . S
C1600 C1599 1.403 . S
C1600 C1601 1.404 1_655 S
C1600 C1603 1.539 . S
C1601 C1597 1.408 . S
C1601 C1600 1.404 1_455 S
C1601 H1613 0.930 . S
C1602 C1598 1.524 . S
C1602 H1614 0.956 . S
C1602 H1615 0.961 . S
C1602 H1616 0.961 . S
C1603 C1600 1.539 . S
C1603 H1617 0.958 . S
C1603 H1618 0.961 . S
C1603 H1619 0.960 . S
H1604 C1588 0.931 . S
H1605 C1593 0.929 . S
H1606 C1594 0.960 . S
H1607 C1594 0.962 1_455 S
H1608 C1594 0.960 . S
H1609 C1595 0.961 . S
H1610 C1595 0.961 . S
H1611 C1595 0.961 . S
H1612 C1596 0.931 . S
H1613 C1601 0.930 . S
H1614 C1602 0.956 . S
H1615 C1602 0.961 . S
H1616 C1602 0.961 . S
H1617 C1603 0.958 . S
H1618 C1603 0.961 . S
H1619 C1603 0.960 . S
C757 C151 1.244 . S
C765 C58 1.044 . S
C789 C235 1.249 . S
C797 C142 1.038 . S
C821 C226 0.984 . S
C829 C67 1.232 . S
C853 C224 1.486 . S
C861 C153 1.252 . S
C885 C237 1.242 . S
C893 C56 1.481 . S
C917 C69 1.255 . S
C925 C140 1.485 . S
C949 C310 0.997 . S
C957 C403 1.232 . S
C981 C487 1.182 . S
C989 C394 1.094 . S
C1013 C478 1.104 . S
C1021 C319 1.212 . S
C1045 C405 1.252 . S
C1053 C476 1.479 . S
C1077 C489 1.198 . S
C1085 C308 1.494 . S
C1109 C392 1.491 . S
C1117 C321 1.261 . S
C1141 C655 1.176 . S
C1149 C562 1.095 . S
C1173 C646 1.093 . S
C1181 C739 1.207 . S
C1205 C730 0.986 . S
C1213 C571 1.233 . S
C1237 C728 1.479 . S
C1245 C657 1.271 1_565 S
C1269 C741 1.224 . S
C1277 C560 1.486 . S
C1301 C573 1.196 . S
C1309 C644 1.494 . S
C1333 C494 2.410 . S
C1341 C63 2.559 . S
C1365 C326 2.402 . S
C1373 C147 2.559 . S
C1397 C231 2.567 . S
C1405 C410 2.429 . S
C1429 C242 2.437 . S
C1437 C567 2.562 . S
C1461 C74 2.385 . S
C1469 C651 2.566 . S
C1493 C735 2.547 . S
C1501 C158 2.424 . S
C1525 C315 2.572 . S
C1533 C746 2.412 . S
C1557 C399 2.549 . S
C1565 C578 2.409 . S
C1589 C662 2.437 . S
C1597 C483 2.562 . S
