# Generated by pormake.
# Topology svc, (7)-cn, num edge types: 1
# Building blocks:
#     Node 0, Type 0, BuildingBlock: HICVOG_clean_sbu_0, # of connection points: 7
#     Node 1, Type 0, BuildingBlock: HICVOG_clean_sbu_0, # of connection points: 7
#     Node 2, Type 0, BuildingBlock: HICVOG_clean_sbu_0, # of connection points: 7
#     Node 3, Type 0, BuildingBlock: HICVOG_clean_sbu_0, # of connection points: 7
#     Node 4, Type 0, BuildingBlock: HICVOG_clean_sbu_0, # of connection points: 7
#     Node 5, Type 0, BuildingBlock: HICVOG_clean_sbu_0, # of connection points: 7
#     Node 6, Type 0, BuildingBlock: HICVOG_clean_sbu_0, # of connection points: 7
#     Node 7, Type 0, BuildingBlock: HICVOG_clean_sbu_0, # of connection points: 7
#     Node 8, Type 0, BuildingBlock: HICVOG_clean_sbu_0, # of connection points: 7
#     Node 9, Type 0, BuildingBlock: HICVOG_clean_sbu_0, # of connection points: 7
#     Node 10, Type 0, BuildingBlock: HICVOG_clean_sbu_0, # of connection points: 7
#     Node 11, Type 0, BuildingBlock: HICVOG_clean_sbu_0, # of connection points: 7
#     Node 12, Type 0, BuildingBlock: HICVOG_clean_sbu_0, # of connection points: 7
#     Node 13, Type 0, BuildingBlock: HICVOG_clean_sbu_0, # of connection points: 7
#     Node 14, Type 0, BuildingBlock: HICVOG_clean_sbu_0, # of connection points: 7
#     Node 15, Type 0, BuildingBlock: HICVOG_clean_sbu_0, # of connection points: 7
#     Edge 16, Type (0, 0), BuildingBlock: EZIPEK_clean_linker_0, # of connection points: 2
#     Edge 17, Type (0, 0), BuildingBlock: EZIPEK_clean_linker_0, # of connection points: 2
#     Edge 18, Type (0, 0), BuildingBlock: EZIPEK_clean_linker_0, # of connection points: 2
#     Edge 19, Type (0, 0), BuildingBlock: EZIPEK_clean_linker_0, # of connection points: 2
#     Edge 20, Type (0, 0), BuildingBlock: EZIPEK_clean_linker_0, # of connection points: 2
#     Edge 21, Type (0, 0), BuildingBlock: EZIPEK_clean_linker_0, # of connection points: 2
#     Edge 22, Type (0, 0), BuildingBlock: EZIPEK_clean_linker_0, # of connection points: 2
#     Edge 23, Type (0, 0), BuildingBlock: EZIPEK_clean_linker_0, # of connection points: 2
#     Edge 24, Type (0, 0), BuildingBlock: EZIPEK_clean_linker_0, # of connection points: 2
#     Edge 25, Type (0, 0), BuildingBlock: EZIPEK_clean_linker_0, # of connection points: 2
#     Edge 26, Type (0, 0), BuildingBlock: EZIPEK_clean_linker_0, # of connection points: 2
#     Edge 27, Type (0, 0), BuildingBlock: EZIPEK_clean_linker_0, # of connection points: 2
#     Edge 28, Type (0, 0), BuildingBlock: EZIPEK_clean_linker_0, # of connection points: 2
#     Edge 29, Type (0, 0), BuildingBlock: EZIPEK_clean_linker_0, # of connection points: 2
#     Edge 30, Type (0, 0), BuildingBlock: EZIPEK_clean_linker_0, # of connection points: 2
#     Edge 31, Type (0, 0), BuildingBlock: EZIPEK_clean_linker_0, # of connection points: 2
#     Edge 32, Type (0, 0), BuildingBlock: EZIPEK_clean_linker_0, # of connection points: 2
#     Edge 33, Type (0, 0), BuildingBlock: EZIPEK_clean_linker_0, # of connection points: 2
#     Edge 34, Type (0, 0), BuildingBlock: EZIPEK_clean_linker_0, # of connection points: 2
#     Edge 35, Type (0, 0), BuildingBlock: EZIPEK_clean_linker_0, # of connection points: 2
#     Edge 36, Type (0, 0), BuildingBlock: EZIPEK_clean_linker_0, # of connection points: 2
#     Edge 37, Type (0, 0), BuildingBlock: EZIPEK_clean_linker_0, # of connection points: 2
#     Edge 38, Type (0, 0), BuildingBlock: EZIPEK_clean_linker_0, # of connection points: 2
#     Edge 39, Type (0, 0), BuildingBlock: EZIPEK_clean_linker_0, # of connection points: 2
#     Edge 40, Type (0, 0), BuildingBlock: EZIPEK_clean_linker_0, # of connection points: 2
#     Edge 41, Type (0, 0), BuildingBlock: EZIPEK_clean_linker_0, # of connection points: 2
#     Edge 42, Type (0, 0), BuildingBlock: EZIPEK_clean_linker_0, # of connection points: 2
#     Edge 43, Type (0, 0), BuildingBlock: EZIPEK_clean_linker_0, # of connection points: 2
#     Edge 44, Type (0, 0), BuildingBlock: EZIPEK_clean_linker_0, # of connection points: 2
#     Edge 45, Type (0, 0), BuildingBlock: EZIPEK_clean_linker_0, # of connection points: 2
#     Edge 46, Type (0, 0), BuildingBlock: EZIPEK_clean_linker_0, # of connection points: 2
#     Edge 47, Type (0, 0), BuildingBlock: EZIPEK_clean_linker_0, # of connection points: 2
#     Edge 48, Type (0, 0), BuildingBlock: EZIPEK_clean_linker_0, # of connection points: 2
#     Edge 49, Type (0, 0), BuildingBlock: EZIPEK_clean_linker_0, # of connection points: 2
#     Edge 50, Type (0, 0), BuildingBlock: EZIPEK_clean_linker_0, # of connection points: 2
#     Edge 51, Type (0, 0), BuildingBlock: EZIPEK_clean_linker_0, # of connection points: 2
#     Edge 52, Type (0, 0), BuildingBlock: EZIPEK_clean_linker_0, # of connection points: 2
#     Edge 53, Type (0, 0), BuildingBlock: EZIPEK_clean_linker_0, # of connection points: 2
#     Edge 54, Type (0, 0), BuildingBlock: EZIPEK_clean_linker_0, # of connection points: 2
#     Edge 55, Type (0, 0), BuildingBlock: EZIPEK_clean_linker_0, # of connection points: 2
#     Edge 56, Type (0, 0), BuildingBlock: EZIPEK_clean_linker_0, # of connection points: 2
#     Edge 57, Type (0, 0), BuildingBlock: EZIPEK_clean_linker_0, # of connection points: 2
#     Edge 58, Type (0, 0), BuildingBlock: EZIPEK_clean_linker_0, # of connection points: 2
#     Edge 59, Type (0, 0), BuildingBlock: EZIPEK_clean_linker_0, # of connection points: 2
#     Edge 60, Type (0, 0), BuildingBlock: EZIPEK_clean_linker_0, # of connection points: 2
#     Edge 61, Type (0, 0), BuildingBlock: EZIPEK_clean_linker_0, # of connection points: 2
#     Edge 62, Type (0, 0), BuildingBlock: EZIPEK_clean_linker_0, # of connection points: 2
#     Edge 63, Type (0, 0), BuildingBlock: EZIPEK_clean_linker_0, # of connection points: 2
#     Edge 64, Type (0, 0), BuildingBlock: EZIPEK_clean_linker_0, # of connection points: 2
#     Edge 65, Type (0, 0), BuildingBlock: EZIPEK_clean_linker_0, # of connection points: 2
#     Edge 66, Type (0, 0), BuildingBlock: EZIPEK_clean_linker_0, # of connection points: 2
#     Edge 67, Type (0, 0), BuildingBlock: EZIPEK_clean_linker_0, # of connection points: 2
#     Edge 68, Type (0, 0), BuildingBlock: EZIPEK_clean_linker_0, # of connection points: 2
#     Edge 69, Type (0, 0), BuildingBlock: EZIPEK_clean_linker_0, # of connection points: 2
#     Edge 70, Type (0, 0), BuildingBlock: EZIPEK_clean_linker_0, # of connection points: 2
#     Edge 71, Type (0, 0), BuildingBlock: EZIPEK_clean_linker_0, # of connection points: 2
# Relax obj value: 0.190
# Max RMSD: 0.255
# Mean RMSD: 0.218
data_MOF--net-svc--node1-HICVOG_clean_sbu_0--edge1-EZIPEK_clean_linker_0
_symmetry_space_group_name_H-M    P1
_symmetry_Int_Tables_number       1
_symmetry_cell_setting            triclinic
loop_
_symmetry_equiv_pos_as_xyz
'x, y, z'
_cell_length_a     24.115456
_cell_length_b     21.337371
_cell_length_c     63.70813
_cell_angle_alpha  98.139596
_cell_angle_beta   94.658465
_cell_angle_gamma 90.116384
loop_
_atom_site_label
_atom_site_type_symbol
_atom_site_fract_x
_atom_site_fract_y
_atom_site_fract_z
_atom_type_partial_charge
Zn0 Zn 0.23878 0.42566 0.11251 0.0
C1 C 0.11242 0.33672 0.13284 0.0
N2 N 0.1415 0.28378 0.12802 0.0
C3 C 0.19214 0.30546 0.12503 0.0
N4 N 0.19353 0.37019 0.1272 0.0
N5 N 0.14416 0.3896 0.13323 0.0
C6 C 0.03208 0.50925 0.13063 0.0
O7 O 0.0636 0.5083 0.11474 0.0
O8 O 0.31858 0.40384 0.1148 0.0
Zn9 Zn 0.13186 0.47408 0.14947 0.0
N10 N 0.21192 0.41525 0.08257 0.0
C11 C 0.13308 0.4225 0.05803 0.0
C12 C 0.15642 0.42354 0.07881 0.0
C13 C 0.24578 0.40824 0.06626 0.0
N14 N 0.16664 0.41595 0.04179 0.0
C15 C 0.22254 0.40921 0.0453 0.0
O16 O 0.16733 0.55329 0.14032 0.0
C17 C 0.20867 0.5676 0.13058 0.0
O18 O 0.2376 0.52384 0.12115 0.0
H19 H 0.13099 0.43297 0.09202 0.0
H20 H 0.29022 0.40454 0.06959 0.0
C21 C 0.13059 0.49061 0.19678 0.0
C22 C 0.15699 0.48787 0.21728 0.0
C23 C 0.23884 0.45063 0.20154 0.0
C24 C 0.21298 0.4541 0.18142 0.0
N25 N 0.15955 0.47345 0.17928 0.0
N26 N 0.21038 0.46748 0.21891 0.0
H27 H 0.08803 0.50614 0.19483 0.0
C28 C 0.34512 0.43372 0.13113 0.0
O29 O 0.31669 0.46358 0.14612 0.0
O30 O 0.05166 0.49204 0.14795 0.0
H31 H 0.23517 0.44159 0.16747 0.0
H32 H 0.08882 0.42875 0.05488 0.0
H33 H 0.28135 0.43487 0.20335 0.0
Zn34 Zn 0.87246 0.99724 0.35881 0.0
C35 C 0.96536 0.88427 0.39199 0.0
N36 N 1.00721 0.92346 0.38937 0.0
C37 C 0.981 0.97147 0.38154 0.0
N38 N 0.92536 0.96187 0.37887 0.0
N39 N 0.91517 0.90922 0.38672 0.0
C40 C 0.8189 0.77998 0.39018 0.0
O41 O 0.85459 0.77708 0.3756 0.0
O42 O 0.89798 0.0822 0.35525 0.0
Zn43 Zn 0.85099 0.91006 0.40396 0.0
N44 N 0.86735 0.94582 0.331 0.0
C45 C 0.84356 0.84681 0.30987 0.0
C46 C 0.8514 0.88426 0.32972 0.0
C47 C 0.87415 0.97223 0.31309 0.0
N48 N 0.85013 0.87307 0.29199 0.0
C49 C 0.86504 0.93505 0.29303 0.0
O50 O 0.78125 0.95361 0.39295 0.0
C51 C 0.76151 0.98906 0.37977 0.0
O52 O 0.79186 1.0087 0.36656 0.0
H53 H 0.84444 0.86478 0.34405 0.0
H54 H 0.88488 1.02198 0.31438 0.0
C55 C 0.85888 0.92082 0.45026 0.0
C56 C 0.85048 0.95633 0.47024 0.0
C57 C 0.8652 0.05083 0.45544 0.0
C58 C 0.86989 1.01563 0.43556 0.0
N59 N 0.86598 0.95155 0.43322 0.0
N60 N 0.85434 1.02065 0.47205 0.0
H61 H 0.85544 0.8697 0.44789 0.0
C62 C 0.89842 0.12183 0.372 0.0
O63 O 0.89261 0.09988 0.38995 0.0
O64 O 0.82018 0.82638 0.40492 0.0
H65 H 0.8733 0.03921 0.42179 0.0
H66 H 0.83123 0.79757 0.30866 0.0
H67 H 0.86752 0.102 0.45745 0.0
Zn68 Zn 0.33133 0.63528 0.62079 0.0
C69 C 0.47466 0.5568 0.63255 0.0
N70 N 0.49729 0.60975 0.62777 0.0
C71 C 0.45493 0.65062 0.62862 0.0
N72 N 0.40737 0.62306 0.63337 0.0
N73 N 0.42077 0.56474 0.63655 0.0
C74 C 0.39661 0.3932 0.62819 0.0
O75 O 0.39037 0.42635 0.61235 0.0
O76 O 0.30923 0.72529 0.62121 0.0
Zn77 Zn 0.37608 0.51118 0.65098 0.0
N78 N 0.32725 0.59459 0.59133 0.0
C79 C 0.31481 0.49521 0.56919 0.0
C80 C 0.32173 0.53068 0.58929 0.0
C81 C 0.32608 0.62502 0.57383 0.0
N82 N 0.31254 0.5253 0.55179 0.0
C83 C 0.31748 0.58943 0.55337 0.0
O84 O 0.29195 0.50336 0.64309 0.0
C85 C 0.25381 0.54197 0.63887 0.0
O86 O 0.2655 0.59511 0.63317 0.0
H87 H 0.32172 0.50775 0.6033 0.0
H88 H 0.32991 0.67608 0.57578 0.0
C89 C 0.38797 0.50592 0.69657 0.0
C90 C 0.37749 0.53005 0.71764 0.0
C91 C 0.35667 0.62987 0.70658 0.0
C92 C 0.36457 0.60497 0.68567 0.0
N93 N 0.37974 0.54365 0.68103 0.0
N94 N 0.36254 0.59181 0.72194 0.0
H95 H 0.39944 0.457 0.69239 0.0
C96 C 0.31904 0.76855 0.6369 0.0
O97 O 0.35188 0.75708 0.65334 0.0
O98 O 0.40381 0.42342 0.64689 0.0
H99 H 0.35663 0.63352 0.67305 0.0
H100 H 0.31041 0.44422 0.56742 0.0
H101 H 0.34428 0.67854 0.7105 0.0
Zn102 Zn 0.62913 0.08437 0.86728 0.0
C103 C 0.70607 0.25815 0.884 0.0
N104 N 0.65563 0.27791 0.87746 0.0
C105 C 0.62457 0.22478 0.87411 0.0
N106 N 0.65414 0.17357 0.87839 0.0
N107 N 0.70582 0.19431 0.88504 0.0
C108 C 0.86517 0.12008 0.88552 0.0
O109 O 0.83362 0.08116 0.87174 0.0
O110 O 0.54264 0.06734 0.86537 0.0
Zn111 Zn 0.75841 0.14216 0.90108 0.0
N112 N 0.65665 0.07167 0.83896 0.0
C113 C 0.74217 0.07494 0.82289 0.0
C114 C 0.71265 0.08103 0.84086 0.0
C115 C 0.62832 0.0566 0.81938 0.0
N116 N 0.71455 0.0592 0.8035 0.0
C117 C 0.6585 0.04935 0.80104 0.0
O118 O 0.75067 0.04423 0.89464 0.0
C119 C 0.71491 0.99948 0.88916 0.0
O120 O 0.66591 1.01089 0.88149 0.0
H121 H 0.73408 0.09349 0.85641 0.0
H122 H 0.58361 0.04995 0.81808 0.0
C123 C 0.77058 0.16947 0.94889 0.0
C124 C 0.74763 0.16563 0.96846 0.0
C125 C 0.65974 0.13856 0.94972 0.0
C126 C 0.68297 0.13932 0.93054 0.0
N127 N 0.73748 0.15521 0.93033 0.0
N128 N 0.69255 0.15107 0.96811 0.0
H129 H 0.8142 0.18069 0.94842 0.0
C130 C 0.51439 0.06867 0.88161 0.0
O131 O 0.53981 0.08659 0.90055 0.0
O132 O 0.84179 0.15906 0.89905 0.0
H133 H 0.65808 0.12531 0.91574 0.0
H134 H 0.78677 0.08253 0.82432 0.0
H135 H 0.61628 0.12626 0.94999 0.0
Zn136 Zn 0.12445 0.5767 0.3713 0.0
C137 C 0.20689 0.74645 0.39222 0.0
N138 N 0.15508 0.76926 0.39095 0.0
C139 C 0.1225 0.7171 0.38706 0.0
N140 N 0.1525 0.66323 0.38546 0.0
N141 N 0.20584 0.68135 0.38967 0.0
C142 C 0.36168 0.62041 0.38315 0.0
O143 O 0.32763 0.59349 0.36733 0.0
O144 O 0.03656 0.57155 0.37024 0.0
Zn145 Zn 0.25826 0.62276 0.40251 0.0
N146 N 0.14887 0.57032 0.34222 0.0
C147 C 0.23245 0.58209 0.32552 0.0
C148 C 0.20431 0.58297 0.34372 0.0
C149 C 0.1199 0.55535 0.3227 0.0
N150 N 0.20418 0.56733 0.30623 0.0
C151 C 0.1488 0.55342 0.30408 0.0
O152 O 0.24926 0.52561 0.39283 0.0
C153 C 0.21199 0.48206 0.38785 0.0
O154 O 0.16139 0.49609 0.38259 0.0
H155 H 0.2264 0.59353 0.35916 0.0
H156 H 0.07576 0.54487 0.32163 0.0
C157 C 0.27323 0.63907 0.45019 0.0
C158 C 0.25179 0.63087 0.46967 0.0
C159 C 0.16333 0.60457 0.45135 0.0
C160 C 0.18501 0.61008 0.43218 0.0
N161 N 0.23914 0.62745 0.43182 0.0
N162 N 0.19717 0.61456 0.46953 0.0
H163 H 0.31646 0.65191 0.44959 0.0
C164 C 1.00857 0.53692 0.38058 0.0
O165 O 0.03555 0.50173 0.39323 0.0
O166 O 0.34083 0.64141 0.4005 0.0
H167 H 0.15912 0.59867 0.41749 0.0
H168 H 0.27656 0.59269 0.32667 0.0
H169 H 0.12024 0.59093 0.45176 0.0
Zn170 Zn 0.75428 0.88953 0.61098 0.0
C171 C 0.6256 0.80137 0.63201 0.0
N172 N 0.65447 0.74802 0.62768 0.0
C173 C 0.70464 0.76879 0.62363 0.0
N174 N 0.70581 0.83355 0.62475 0.0
N175 N 0.65679 0.8537 0.6311 0.0
C176 C 0.54751 0.98597 0.62843 0.0
O177 O 0.57997 0.985 0.61279 0.0
O178 O 0.83367 0.8853 0.62196 0.0
Zn179 Zn 0.64352 0.93784 0.64751 0.0
N180 N 0.74056 0.86896 0.57999 0.0
C181 C 0.66649 0.84997 0.55276 0.0
C182 C 0.68626 0.85416 0.574 0.0
C183 C 0.77681 0.87828 0.56522 0.0
N184 N 0.70161 0.86199 0.53824 0.0
C185 C 0.7565 0.87624 0.54359 0.0
O186 O 0.68136 1.01615 0.63932 0.0
C187 C 0.71814 0.03112 0.62761 0.0
O188 O 0.74435 0.98778 0.61668 0.0
H189 H 0.65799 0.84792 0.58583 0.0
H190 H 0.81992 0.89 0.57036 0.0
C191 C 0.64 0.96454 0.69446 0.0
C192 C 0.66043 0.95728 0.71541 0.0
C193 C 0.72908 0.88742 0.70146 0.0
C194 C 0.70915 0.89503 0.68091 0.0
N195 N 0.6655 0.93353 0.67763 0.0
N196 N 0.70437 0.91857 0.71815 0.0
H197 H 0.60467 0.9943 0.69163 0.0
C198 C 0.83885 0.91668 0.64058 0.0
O199 O 0.79333 0.93288 0.64973 0.0
O200 O 0.56382 0.96107 0.64478 0.0
H201 H 0.7275 0.8693 0.66757 0.0
H202 H 0.62313 0.83893 0.5479 0.0
H203 H 0.76373 0.85661 0.70414 0.0
Zn204 Zn 0.30504 0.41491 0.9045 0.0
C205 C 0.39211 0.28851 0.8693 0.0
N206 N 0.35287 0.24792 0.87354 0.0
C207 C 0.3144 0.28737 0.88194 0.0
N208 N 0.32962 0.34832 0.88337 0.0
N209 N 0.37692 0.34944 0.87438 0.0
C210 C 0.4876 0.46683 0.87606 0.0
O211 O 0.45442 0.47213 0.89152 0.0
O212 O 0.22295 0.4117 0.90692 0.0
Zn213 Zn 0.39137 0.41598 0.85739 0.0
N214 N 0.34297 0.41138 0.93253 0.0
C215 C 0.42801 0.40901 0.95419 0.0
C216 C 0.39947 0.41118 0.93437 0.0
C217 C 0.31367 0.41007 0.94991 0.0
N218 N 0.39891 0.40773 0.97151 0.0
C219 C 0.34234 0.4082 0.96993 0.0
O220 O 0.35698 0.49998 0.86719 0.0
C221 C 0.3308 0.52886 0.88207 0.0
O222 O 0.31452 0.50151 0.89691 0.0
H223 H 0.42213 0.41219 0.9205 0.0
H224 H 0.26867 0.41065 0.94819 0.0
C225 C 0.38122 0.40973 0.81106 0.0
C226 C 0.34752 0.4116 0.79195 0.0
C227 C 0.2699 0.37803 0.80845 0.0
C228 C 0.30238 0.3809 0.82762 0.0
N229 N 0.35729 0.39597 0.82859 0.0
N230 N 0.29286 0.39456 0.79126 0.0
H231 H 0.4246 0.42404 0.81245 0.0
C232 C 0.19456 0.43078 0.89147 0.0
O233 O 0.21914 0.43935 0.87444 0.0
O234 O 0.47135 0.4362 0.85808 0.0
H235 H 0.28341 0.37498 0.842 0.0
H236 H 0.47301 0.40849 0.95581 0.0
H237 H 0.22609 0.36596 0.80749 0.0
Zn238 Zn 0.82001 0.17607 0.12135 0.0
C239 C 0.96273 0.09457 0.13938 0.0
N240 N 0.98736 0.14937 0.13733 0.0
C241 C 0.94416 0.18783 0.13453 0.0
N242 N 0.89442 0.15727 0.13411 0.0
N243 N 0.90667 0.09919 0.13795 0.0
C244 C 0.87604 0.93119 0.12608 0.0
O245 O 0.87079 0.96784 0.1112 0.0
O246 O 0.80586 0.26924 0.12365 0.0
Zn247 Zn 0.85878 0.04689 0.15141 0.0
N248 N 0.8149 0.13806 0.09139 0.0
C249 C 0.7985 0.03936 0.06912 0.0
C250 C 0.80636 0.07451 0.08923 0.0
C251 C 0.81596 0.16845 0.0739 0.0
N252 N 0.79868 0.06934 0.05176 0.0
C253 C 0.80676 0.13306 0.05336 0.0
O254 O 0.7749 0.04661 0.14362 0.0
C255 C 0.73768 0.08539 0.13865 0.0
O256 O 0.75094 0.13791 0.1328 0.0
H257 H 0.80428 0.05169 0.10319 0.0
H258 H 0.82284 0.21916 0.0759 0.0
C259 C 0.86898 0.03545 0.19682 0.0
C260 C 0.87156 0.06095 0.21853 0.0
C261 C 0.87196 0.16451 0.20911 0.0
C262 C 0.86823 0.13925 0.18765 0.0
N263 N 0.8672 0.07545 0.18187 0.0
N264 N 0.87327 0.12492 0.22402 0.0
H265 H 0.86711 0.98475 0.19191 0.0
C266 C 0.78666 0.29532 0.1407 0.0
O267 O 0.78287 0.2627 0.15654 0.0
O268 O 0.88079 0.95739 0.14535 0.0
H269 H 0.86544 0.17021 0.1756 0.0
H270 H 0.79153 0.98871 0.06729 0.0
H271 H 0.87301 0.21524 0.21388 0.0
Zn272 Zn 0.88943 0.59491 0.86947 0.0
C273 C 0.82651 0.76415 0.89296 0.0
N274 N 0.87651 0.78612 0.88931 0.0
C275 C 0.90626 0.73352 0.88485 0.0
N276 N 0.87554 0.68033 0.88533 0.0
N277 N 0.82618 0.69943 0.89155 0.0
C278 C 0.68229 0.6249 0.88637 0.0
O279 O 0.71633 0.60396 0.87198 0.0
O280 O 0.96955 0.57509 0.87325 0.0
Zn281 Zn 0.78248 0.6436 0.90676 0.0
N282 N 0.86615 0.59616 0.83931 0.0
C283 C 0.79356 0.62923 0.8159 0.0
C284 C 0.8164 0.62458 0.83636 0.0
C285 C 0.89427 0.57119 0.82231 0.0
N286 N 0.82105 0.60432 0.79902 0.0
C287 C 0.87064 0.57484 0.80146 0.0
O288 O 0.78603 0.54565 0.8985 0.0
C289 C 0.81208 0.50144 0.88801 0.0
O290 O 0.85138 0.51531 0.87724 0.0
H291 H 0.79469 0.64337 0.84992 0.0
H292 H 0.93383 0.54851 0.82491 0.0
C293 C 0.77622 0.66136 0.95321 0.0
C294 C 0.80053 0.66008 0.97404 0.0
C295 C 0.88933 0.6478 0.96068 0.0
C296 C 0.865 0.64685 0.94006 0.0
N297 N 0.80937 0.65506 0.93668 0.0
N298 N 0.85657 0.65377 0.97716 0.0
H299 H 0.73158 0.66438 0.95013 0.0
C300 C 0.98255 0.54979 0.88981 0.0
O301 O 0.94566 0.54516 0.90359 0.0
O302 O 0.70151 0.65919 0.9033 0.0
H303 H 0.88978 0.63725 0.92665 0.0
H304 H 0.75406 0.65214 0.81344 0.0
H305 H 0.9337 0.64169 0.96352 0.0
Zn306 Zn 0.23336 0.12434 0.61541 0.0
C307 C 0.13521 0.24502 0.64775 0.0
N308 N 0.17166 0.28788 0.64293 0.0
C309 C 0.21262 0.25092 0.63533 0.0
N310 N 0.20168 0.18935 0.63499 0.0
N311 N 0.15419 0.18512 0.64368 0.0
C312 C 0.03813 0.06054 0.64526 0.0
O313 O 0.06632 0.04711 0.62845 0.0
O314 O 0.31558 0.13131 0.61388 0.0
Zn315 Zn 0.13941 0.11625 0.66001 0.0
N316 N 0.19353 0.11739 0.58723 0.0
C317 C 0.10695 0.09168 0.56702 0.0
C318 C 0.13918 0.09974 0.58641 0.0
C319 C 0.21744 0.12656 0.56917 0.0
N320 N 0.13052 0.10086 0.54905 0.0
C321 C 0.18498 0.11801 0.54952 0.0
O322 O 0.17192 0.03103 0.64955 0.0
C323 C 0.20708 1.00797 0.63691 0.0
O324 O 0.22928 0.04114 0.62484 0.0
H325 H 0.12111 0.09221 0.60081 0.0
H326 H 0.26098 0.13992 0.57006 0.0
C327 C 0.15426 0.1181 0.70634 0.0
C328 C 0.18932 0.1192 0.72531 0.0
C329 C 0.26242 0.16144 0.70845 0.0
C330 C 0.22869 0.1567 0.68952 0.0
N331 N 0.17543 0.13544 0.68873 0.0
N332 N 0.24236 0.14167 0.72571 0.0
H333 H 0.11211 0.09966 0.70519 0.0
C334 C 0.34476 0.12954 0.63129 0.0
O335 O 0.32167 0.14347 0.64929 0.0
O336 O 0.05926 0.09786 0.66119 0.0
H337 H 0.24542 0.16696 0.67521 0.0
H338 H 0.06354 0.07798 0.56625 0.0
H339 H 0.30498 0.17829 0.70921 0.0
Zn340 Zn 0.69041 0.40305 0.39914 0.0
C341 C 0.54629 0.46781 0.3785 0.0
N342 N 0.52481 0.4163 0.3848 0.0
C343 C 0.56955 0.37995 0.38743 0.0
N344 N 0.61708 0.409 0.38354 0.0
N345 N 0.60165 0.4627 0.37676 0.0
C346 C 0.62689 0.6262 0.3828 0.0
O347 O 0.62761 0.58913 0.39755 0.0
O348 O 0.72036 0.31652 0.3942 0.0
Zn349 Zn 0.64553 0.51224 0.36031 0.0
N350 N 0.68734 0.43411 0.4293 0.0
C351 C 0.69248 0.53009 0.45347 0.0
C352 C 0.68744 0.49834 0.43282 0.0
C353 C 0.6922 0.39967 0.44588 0.0
N354 N 0.6989 0.49629 0.46994 0.0
C355 C 0.69949 0.43181 0.46695 0.0
O356 O 0.73017 0.52108 0.36798 0.0
C357 C 0.76762 0.49734 0.37962 0.0
O358 O 0.75521 0.45588 0.39104 0.0
H359 H 0.68572 0.52456 0.41954 0.0
H360 H 0.69247 0.34849 0.4427 0.0
C361 C 0.63035 0.5178 0.31522 0.0
C362 C 0.64342 0.49722 0.29417 0.0
C363 C 0.66544 0.39608 0.304 0.0
C364 C 0.6548 0.41776 0.32492 0.0
N365 N 0.63909 0.47855 0.33026 0.0
N366 N 0.66082 0.43652 0.28933 0.0
H367 H 0.61708 0.56576 0.31996 0.0
C368 C 0.74374 0.31078 0.37687 0.0
O369 O 0.73294 0.35181 0.36364 0.0
O370 O 0.61905 0.5999 0.36369 0.0
H371 H 0.66138 0.3874 0.33702 0.0
H372 H 0.69282 0.5813 0.45641 0.0
H373 H 0.67918 0.34813 0.2996 0.0
Zn374 Zn 0.38882 0.98584 0.152 0.0
C375 C 0.31147 0.81239 0.13493 0.0
N376 N 0.36199 0.79269 0.14139 0.0
C377 C 0.39301 0.84583 0.14478 0.0
N378 N 0.36337 0.897 0.14057 0.0
N379 N 0.31165 0.87628 0.13391 0.0
C380 C 0.15268 0.95006 0.13323 0.0
O381 O 0.18474 0.98861 0.14694 0.0
O382 O 0.47491 1.00479 0.15364 0.0
Zn383 Zn 0.25944 0.928 0.11747 0.0
N384 N 0.36331 0.99721 0.18063 0.0
C385 C 0.27943 0.99639 0.1979 0.0
C386 C 0.30698 0.99201 0.17944 0.0
C387 C 0.39387 1.00644 0.1999 0.0
N388 N 0.30938 1.00567 0.21702 0.0
C389 C 0.36583 1.01092 0.21871 0.0
O390 O 0.26751 1.02565 0.12389 0.0
C391 C 0.30282 0.07051 0.12996 0.0
O392 O 0.35116 0.05934 0.13827 0.0
H393 H 0.28381 0.98381 0.16409 0.0
H394 H 0.43879 1.00968 0.20061 0.0
C395 C 0.24869 0.90315 0.06952 0.0
C396 C 0.2727 0.90744 0.05017 0.0
C397 C 0.36061 0.92995 0.06947 0.0
C398 C 0.33645 0.92876 0.08844 0.0
N399 N 0.28138 0.91494 0.08828 0.0
N400 N 0.32825 0.91995 0.05092 0.0
H401 H 0.20464 0.89364 0.0697 0.0
C402 C 0.50519 0.99842 0.1379 0.0
O403 O 0.48268 0.9725 0.11921 0.0
O404 O 0.17573 0.9116 0.11943 0.0
H405 H 0.36119 0.94095 0.10337 0.0
H406 H 0.23457 0.99214 0.19706 0.0
H407 H 0.40449 0.94066 0.06949 0.0
Zn408 Zn 0.90193 0.44698 0.64918 0.0
C409 C 0.82118 0.27496 0.63297 0.0
N410 N 0.87084 0.25447 0.64 0.0
C411 C 0.90266 0.30699 0.6435 0.0
N412 N 0.87425 0.35849 0.63878 0.0
N413 N 0.82262 0.33861 0.63178 0.0
C414 C 0.66456 0.41199 0.63044 0.0
O415 O 0.69561 0.45051 0.64455 0.0
O416 O 0.98959 0.4548 0.65039 0.0
Zn417 Zn 0.77188 0.39103 0.6155 0.0
N418 N 0.87559 0.46293 0.67775 0.0
C419 C 0.79053 0.4621 0.69429 0.0
C420 C 0.81951 0.45421 0.67617 0.0
C421 C 0.90445 0.47961 0.69717 0.0
N422 N 0.81872 0.47887 0.71351 0.0
C423 C 0.87481 0.48826 0.71566 0.0
O424 O 0.78033 0.48854 0.62224 0.0
C425 C 0.81673 0.53277 0.62735 0.0
O426 O 0.86611 0.52083 0.63459 0.0
H427 H 0.79748 0.44089 0.66075 0.0
H428 H 0.94916 0.4861 0.69825 0.0
C429 C 0.75838 0.36999 0.56815 0.0
C430 C 0.78014 0.37601 0.54854 0.0
C431 C 0.87064 0.3907 0.56639 0.0
C432 C 0.84865 0.3883 0.58573 0.0
N433 N 0.79325 0.37792 0.58637 0.0
N434 N 0.83597 0.38543 0.54841 0.0
H435 H 0.71427 0.36274 0.56904 0.0
C436 C 0.0151 0.49292 0.64048 0.0
O437 O 0.98578 0.52911 0.62887 0.0
O438 O 0.68864 0.3739 0.61691 0.0
H439 H 0.8753 0.39724 0.60033 0.0
H440 H 0.74589 0.455 0.6931 0.0
H441 H 0.9147 0.39895 0.56573 0.0
Zn442 Zn 0.40458 0.07583 0.37375 0.0
C443 C 0.32938 0.24629 0.39002 0.0
N444 N 0.38035 0.26815 0.38752 0.0
C445 C 0.41156 0.21598 0.38533 0.0
N446 N 0.38133 0.16285 0.38618 0.0
N447 N 0.32966 0.18168 0.38994 0.0
C448 C 0.17163 0.10776 0.37931 0.0
O449 O 0.2018 0.06847 0.36737 0.0
O450 O 0.49173 0.0694 0.37372 0.0
Zn451 Zn 0.2791 0.12714 0.40361 0.0
N452 N 0.37365 0.0681 0.34413 0.0
C453 C 0.2883 0.07678 0.32325 0.0
C454 C 0.31808 0.0786 0.34294 0.0
C455 C 0.4012 0.05537 0.32609 0.0
N456 N 0.31536 0.0645 0.30534 0.0
C457 C 0.37099 0.05365 0.30605 0.0
O458 O 0.29 0.02882 0.39796 0.0
C459 C 0.3231 0.98416 0.39193 0.0
O460 O 0.36936 0.9967 0.38464 0.0
H461 H 0.29735 0.08883 0.35737 0.0
H462 H 0.44558 0.04742 0.32728 0.0
C463 C 0.26199 0.13821 0.44999 0.0
C464 C 0.28151 0.15328 0.4717 0.0
C465 C 0.36611 0.19145 0.46152 0.0
C466 C 0.34723 0.17567 0.44022 0.0
N467 N 0.29571 0.14977 0.43465 0.0
N468 N 0.33301 0.17977 0.47673 0.0
H469 H 0.22132 0.11668 0.44544 0.0
C470 C 0.52187 0.03001 0.38276 0.0
O471 O 0.49781 0.99082 0.39347 0.0
O472 O 0.19624 0.14057 0.39573 0.0
H473 H 0.37367 0.1841 0.42816 0.0
H474 H 0.24403 0.08531 0.32219 0.0
H475 H 0.40702 0.21242 0.46595 0.0
Zn476 Zn 0.71544 0.65181 0.11612 0.0
C477 C 0.62578 0.78328 0.14786 0.0
N478 N 0.66428 0.82173 0.1418 0.0
C479 C 0.70287 0.78045 0.13457 0.0
N480 N 0.68823 0.72045 0.13537 0.0
N481 N 0.64126 0.72182 0.14467 0.0
C482 C 0.53625 0.58984 0.13964 0.0
O483 O 0.57531 0.58367 0.12638 0.0
O484 O 0.79815 0.65624 0.11638 0.0
Zn485 Zn 0.62295 0.65616 0.16159 0.0
N486 N 0.68137 0.65278 0.08727 0.0
C487 C 0.59748 0.64768 0.06455 0.0
C488 C 0.62497 0.64824 0.08468 0.0
C489 C 0.7117 0.65652 0.07029 0.0
N490 N 0.62752 0.65103 0.04763 0.0
C491 C 0.68399 0.65544 0.04989 0.0
O492 O 0.6646 0.5736 0.15492 0.0
C493 C 0.69097 0.54248 0.14044 0.0
O494 O 0.70509 0.56618 0.12447 0.0
H495 H 0.60148 0.64564 0.09822 0.0
H496 H 0.75663 0.65968 0.07257 0.0
C497 C 0.62873 0.64806 0.20671 0.0
C498 C 0.6582 0.65542 0.22703 0.0
C499 C 0.71253 0.73745 0.2168 0.0
C500 C 0.68471 0.72813 0.1966 0.0
N501 N 0.6445 0.68265 0.1917 0.0
N502 N 0.69956 0.70012 0.23128 0.0
H503 H 0.59608 0.61264 0.20242 0.0
C504 C 0.82207 0.63576 0.13253 0.0
O505 O 0.79316 0.62848 0.14862 0.0
O506 O 0.54365 0.62859 0.15671 0.0
H507 H 0.69619 0.75567 0.1847 0.0
H508 H 0.55255 0.64436 0.06238 0.0
H509 H 0.74533 0.77282 0.22077 0.0
Zn510 Zn 0.19851 0.89749 0.89736 0.0
C511 C 0.05545 0.97635 0.88014 0.0
N512 N 0.03127 0.92191 0.88289 0.0
C513 C 0.0747 0.88327 0.88497 0.0
N514 N 0.12408 0.91333 0.88425 0.0
N515 N 0.11132 0.97114 0.88037 0.0
C516 C 0.13407 0.14283 0.88839 0.0
O517 O 0.13955 0.11172 0.90477 0.0
O518 O 0.21441 0.80483 0.89661 0.0
Zn519 Zn 0.15947 1.02375 0.86735 0.0
N520 N 0.20206 0.93815 0.92703 0.0
C521 C 0.21197 0.03835 0.94885 0.0
C522 C 0.20573 1.0022 0.92886 0.0
C523 C 0.20365 0.90834 0.94472 0.0
N524 N 0.21478 1.00896 0.9664 0.0
C525 C 0.21108 0.94482 0.96513 0.0
O526 O 0.24202 0.0317 0.87808 0.0
C527 C 0.27933 0.99099 0.88119 0.0
O528 O 0.26622 0.93601 0.88516 0.0
H529 H 0.20459 1.02487 0.91477 0.0
H530 H 0.20011 0.85726 0.94295 0.0
C531 C 0.15341 0.02673 0.8215 0.0
C532 C 0.16583 1.00156 0.80072 0.0
C533 C 0.18767 0.90344 0.81288 0.0
C534 C 0.17709 0.92916 0.83345 0.0
N535 N 0.16083 0.99026 0.83744 0.0
N536 N 0.18247 0.94025 0.79715 0.0
H537 H 0.14043 0.07532 0.82512 0.0
C538 C 0.23831 0.77769 0.88078 0.0
O539 O 0.24628 0.80857 0.86484 0.0
O540 O 0.13095 0.11088 0.86995 0.0
H541 H 0.18344 0.90133 0.84635 0.0
H542 H 0.21509 0.08942 0.95043 0.0
H543 H 0.20113 0.85499 0.80951 0.0
C544 C 0.01987 0.30999 0.11356 0.0
C545 C 0.05066 0.33244 0.13317 0.0
C546 C 0.97615 0.29262 0.15196 0.0
C547 C 0.95539 0.25524 0.1328 0.0
N548 N 0.95042 0.23468 0.0949 0.0
N549 N 0.0559 0.35037 0.1713 0.0
C550 C 0.97361 0.26817 0.11335 0.0
C551 C 0.02705 0.32729 0.1525 0.0
N552 N 0.03743 0.32562 0.09515 0.0
N553 N 0.94923 0.29015 0.16982 0.0
H554 H 0.09347 0.37485 0.17177 0.0
H555 H 0.0441 0.34304 0.18613 0.0
H556 H 0.9127 0.26338 0.16923 0.0
H557 H 0.95989 0.31832 0.18431 0.0
H558 H 0.01553 0.31452 0.08032 0.0
H559 H 0.07211 0.35471 0.09523 0.0
H560 H 0.96492 0.23572 0.08001 0.0
H561 H 0.91708 0.20356 0.09497 0.0
C562 C 0.99232 0.78611 0.36902 0.0
C563 C 0.97766 0.81518 0.38933 0.0
C564 C 0.03831 0.7421 0.40643 0.0
C565 C 0.06104 0.72313 0.38671 0.0
N566 N 0.04796 0.70724 0.34884 0.0
N567 N 0.97184 0.80829 0.42616 0.0
C568 C 0.03292 0.73759 0.3678 0.0
C569 C 0.99503 0.78778 0.40763 0.0
N570 N 0.97134 0.80944 0.3512 0.0
N571 N 0.06149 0.71962 0.42408 0.0
H572 H 0.94027 0.84174 0.42671 0.0
H573 H 0.98097 0.79011 0.44033 0.0
H574 H 0.09211 0.68516 0.42294 0.0
H575 H 0.05061 0.73405 0.43947 0.0
H576 H 0.98401 0.79559 0.33604 0.0
H577 H 0.94142 0.84449 0.35184 0.0
H578 H 0.02784 0.71228 0.33411 0.0
H579 H 0.07868 0.6728 0.34826 0.0
C580 C 0.49635 0.74303 0.65217 0.0
C581 C 0.46942 0.71938 0.63199 0.0
C582 C 0.52828 0.78982 0.6157 0.0
C583 C 0.56468 0.79807 0.63452 0.0
N584 N 0.58066 0.79017 0.67167 0.0
N585 N 0.45246 0.72771 0.59506 0.0
C586 C 0.54684 0.77877 0.65328 0.0
C587 C 0.48204 0.74702 0.61403 0.0
N588 N 0.47574 0.72659 0.66997 0.0
N589 N 0.53953 0.8213 0.59932 0.0
H590 H 0.41832 0.6971 0.59412 0.0
H591 H 0.46227 0.74024 0.58059 0.0
H592 H 0.57267 0.85349 0.60079 0.0
H593 H 0.51357 0.82035 0.5854 0.0
H594 H 0.49097 0.74465 0.6854 0.0
H595 H 0.44001 0.69839 0.66905 0.0
H596 H 0.57367 0.77203 0.68556 0.0
H597 H 0.61728 0.81673 0.6726 0.0
C598 C 0.47964 0.26175 0.88975 0.0
C599 C 0.45139 0.26937 0.86978 0.0
C600 C 0.53555 0.23762 0.85184 0.0
C601 C 0.56309 0.22868 0.87174 0.0
N602 N 0.5611 0.22653 0.9094 0.0
N603 N 0.44888 0.25848 0.83165 0.0
C604 C 0.53478 0.23859 0.89056 0.0
C605 C 0.4784 0.25568 0.85073 0.0
N606 N 0.45455 0.27949 0.90814 0.0
N607 N 0.56466 0.22992 0.83413 0.0
H608 H 0.40744 0.27249 0.83052 0.0
H609 H 0.464 0.24384 0.81695 0.0
H610 H 0.60534 0.21321 0.83435 0.0
H611 H 0.54962 0.24173 0.81945 0.0
H612 H 0.47495 0.28374 0.9233 0.0
H613 H 0.41368 0.29459 0.90847 0.0
H614 H 0.5411 0.22407 0.92313 0.0
H615 H 0.60278 0.21438 0.91109 0.0
C616 C 0.9933 0.74374 0.86612 0.0
C617 C 0.96814 0.73901 0.8852 0.0
C618 C 0.04476 0.80262 0.90568 0.0
C619 C 0.06403 0.81569 0.88644 0.0
N620 N 0.0723 0.78155 0.84954 0.0
N621 N 0.97799 0.74761 0.92334 0.0
C622 C 0.04432 0.77853 0.86713 0.0
C623 C 0.99751 0.76201 0.90509 0.0
N624 N 0.96579 0.72022 0.8471 0.0
N625 N 0.06826 0.83493 0.92429 0.0
H626 H 0.94242 0.71983 0.92303 0.0
H627 H 0.99858 0.75907 0.9384 0.0
H628 H 0.1026 0.86481 0.92443 0.0
H629 H 0.05358 0.83376 0.93914 0.0
H630 H 0.97882 0.727 0.83239 0.0
H631 H 0.9281 0.69582 0.84626 0.0
H632 H 0.06254 0.75355 0.83494 0.0
H633 H 0.10859 0.80899 0.85041 0.0
C634 C 0.0515 0.28669 0.66632 0.0
C635 C 0.07523 0.26023 0.64744 0.0
C636 C 0.98917 0.27969 0.62616 0.0
C637 C 0.96389 0.30142 0.64512 0.0
N638 N 0.96777 0.32176 0.6833 0.0
N639 N 0.06629 0.22747 0.60938 0.0
C640 C 0.99427 0.30418 0.66526 0.0
C641 C 0.04388 0.25553 0.62738 0.0
N642 N 0.08394 0.29563 0.68514 0.0
N643 N 0.96109 0.28365 0.60684 0.0
H644 H 0.10766 0.21411 0.60899 0.0
H645 H 0.04326 0.21398 0.59491 0.0
H646 H 0.92025 0.29907 0.60518 0.0
H647 H 0.97929 0.27665 0.59245 0.0
H648 H 0.07123 0.32036 0.69916 0.0
H649 H 0.12514 0.28079 0.68646 0.0
H650 H 0.98535 0.31878 0.69858 0.0
H651 H 0.92665 0.337 0.68285 0.0
C652 C 0.50136 0.24493 0.40585 0.0
C653 C 0.47328 0.22223 0.38585 0.0
C654 C 0.54556 0.27306 0.36891 0.0
C655 C 0.56076 0.31161 0.38854 0.0
N656 N 0.5574 0.33032 0.4264 0.0
N657 N 0.47246 0.20778 0.34786 0.0
C658 C 0.54129 0.29486 0.40736 0.0
C659 C 0.4977 0.23258 0.36717 0.0
N660 N 0.48853 0.21939 0.42328 0.0
N661 N 0.57465 0.27893 0.35182 0.0
H662 H 0.4377 0.1779 0.3466 0.0
H663 H 0.48453 0.2186 0.33345 0.0
H664 H 0.60939 0.30894 0.35321 0.0
H665 H 0.5677 0.25021 0.33719 0.0
H666 H 0.50905 0.23173 0.43833 0.0
H667 H 0.46231 0.1798 0.42166 0.0
H668 H 0.5402 0.32511 0.44054 0.0
H669 H 0.58638 0.36723 0.42754 0.0
C670 C 0.48012 0.82469 0.12706 0.0
C671 C 0.45442 0.84182 0.14624 0.0
C672 C 0.54254 0.82578 0.16692 0.0
C673 C 0.56653 0.8026 0.14776 0.0
N674 N 0.55724 0.77536 0.1095 0.0
N675 N 0.45823 0.85391 0.18442 0.0
C676 C 0.53512 0.80121 0.12781 0.0
C677 C 0.48488 0.8412 0.1662 0.0
N678 N 0.45169 0.83084 0.10799 0.0
N679 N 0.57531 0.83521 0.18562 0.0
H680 H 0.41677 0.8679 0.18434 0.0
H681 H 0.47607 0.84751 0.19938 0.0
H682 H 0.61779 0.82618 0.18642 0.0
H683 H 0.56182 0.8573 0.1999 0.0
H684 H 0.47003 0.82739 0.09365 0.0
H685 H 0.41029 0.84441 0.10661 0.0
H686 H 0.53426 0.76445 0.09488 0.0
H687 H 0.59814 0.76048 0.10901 0.0
C688 C 0.26281 0.15079 0.10685 0.0
C689 C 0.2865 0.13765 0.127 0.0
C690 C 0.27302 0.25023 0.14134 0.0
C691 C 0.23928 0.25924 0.12275 0.0
N692 N 0.20341 0.21867 0.08722 0.0
N693 N 0.30987 0.17591 0.16426 0.0
C694 C 0.23538 0.20977 0.10523 0.0
C695 C 0.29154 0.18806 0.14438 0.0
N696 N 0.26753 0.10736 0.08916 0.0
N697 N 0.28628 0.30124 0.15638 0.0
H698 H 0.32169 0.1312 0.16757 0.0
H699 H 0.30855 0.20893 0.1779 0.0
H700 H 0.27371 0.34667 0.1542 0.0
H701 H 0.31451 0.29969 0.16956 0.0
H702 H 0.25535 0.11582 0.07377 0.0
H703 H 0.28872 0.06496 0.08966 0.0
H704 H 0.19242 0.18256 0.07478 0.0
H705 H 0.18612 0.26251 0.08524 0.0
C706 C 0.03676 0.02665 0.35804 0.0
C707 C 1.01242 0.02786 0.3776 0.0
C708 C 0.07666 0.11383 0.39387 0.0
C709 C 0.10933 0.10027 0.37637 0.0
N710 N 0.10662 0.07091 0.33854 0.0
N711 N 1.00603 0.07519 0.41397 0.0
C712 C 0.08456 0.06547 0.35727 0.0
C713 C 0.03046 0.07357 0.3953 0.0
N714 N 0.01662 0.985 0.34082 0.0
N715 N 0.08857 0.16605 0.40857 0.0
H716 H 0.97144 0.04715 0.41537 0.0
H717 H 0.02161 0.10183 0.42821 0.0
H718 H 0.11844 0.19953 0.40647 0.0
H719 H 0.06399 0.18071 0.42102 0.0
H720 H 0.03563 0.97644 0.32663 0.0
H721 H 0.98108 0.95728 0.34111 0.0
H722 H 0.08937 0.0499 0.32371 0.0
H723 H 0.13953 0.10229 0.33786 0.0
C724 C 0.26414 0.85668 0.65586 0.0
C725 C 0.28861 0.82904 0.63724 0.0
C726 C 0.24243 0.90766 0.61779 0.0
C727 C 0.22797 0.94259 0.6372 0.0
N728 N 0.23898 0.95518 0.67591 0.0
N729 N 0.31065 0.83874 0.60142 0.0
C730 C 0.24226 0.91852 0.65665 0.0
C731 C 0.28043 0.85738 0.6184 0.0
N732 N 0.25949 0.82358 0.6725 0.0
N733 N 0.21931 0.92178 0.59876 0.0
H734 H 0.34211 0.80534 0.60172 0.0
H735 H 0.30902 0.86208 0.58808 0.0
H736 H 0.18865 0.95593 0.59772 0.0
H737 H 0.22572 0.89442 0.58428 0.0
H738 H 0.2377 0.84072 0.68556 0.0
H739 H 0.27087 0.77637 0.67211 0.0
H740 H 0.25402 0.94033 0.69018 0.0
H741 H 0.22778 1.00255 0.67773 0.0
C742 C 0.43809 1.00507 0.89446 0.0
C743 C 0.45464 0.04498 0.87987 0.0
C744 C 0.35758 0.03972 0.86372 0.0
C745 C 0.3399 1.00873 0.88051 0.0
N746 N 0.36429 0.97503 0.91471 0.0
N747 N 0.42639 0.10748 0.85216 0.0
C748 C 0.38045 0.99494 0.89665 0.0
C749 C 0.41334 0.06418 0.86487 0.0
N750 N 0.47737 0.97411 0.90564 0.0
N751 N 0.32208 0.04339 0.84611 0.0
H752 H 0.46628 0.12612 0.85226 0.0
H753 H 0.39658 0.12892 0.84286 0.0
H754 H 0.2822 1.02341 0.84401 0.0
H755 H 0.33431 0.05995 0.83255 0.0
H756 H 0.46728 0.94006 0.91498 0.0
H757 H 0.5197 0.97631 0.90348 0.0
H758 H 0.39208 0.97036 0.9278 0.0
H759 H 0.32278 0.97021 0.91771 0.0
C760 C 0.30118 0.8683 0.37489 0.0
C761 C 0.30596 0.91559 0.39329 0.0
C762 C 0.26197 0.83923 0.41326 0.0
C763 C 0.25577 0.79293 0.39477 0.0
N764 N 0.2832 0.75755 0.35982 0.0
N765 N 0.30435 0.93822 0.43133 0.0
C766 C 0.28054 0.80558 0.37629 0.0
C767 C 0.29051 0.89842 0.41288 0.0
N768 N 0.31235 0.88434 0.35563 0.0
N769 N 0.23839 0.82732 0.4311 0.0
H770 H 0.32583 0.98091 0.43169 0.0
H771 H 0.29946 0.92634 0.44637 0.0
H772 H 0.22087 0.78324 0.43224 0.0
H773 H 0.23429 0.86133 0.44429 0.0
H774 H 0.30382 0.85474 0.34127 0.0
H775 H 0.3261 0.92929 0.35366 0.0
H776 H 0.30496 0.76086 0.34655 0.0
H777 H 0.26823 0.71208 0.36057 0.0
C778 C 0.44594 0.99409 0.63322 0.0
C779 C 0.49547 1.02242 0.62833 0.0
C780 C 0.44496 0.11971 0.62352 0.0
C781 C 0.39727 0.0939 0.63091 0.0
N782 N 0.35593 1.00967 0.64667 0.0
N783 N 0.54522 0.11767 0.62377 0.0
C784 C 0.39883 0.03218 0.63701 0.0
C785 C 0.49596 0.08671 0.62471 0.0
N786 N 0.44302 0.93017 0.63342 0.0
N787 N 0.44175 0.17575 0.61548 0.0
H788 H 0.58394 0.09676 0.62577 0.0
H789 H 0.54803 0.16619 0.62331 0.0
H790 H 0.40545 0.20203 0.6149 0.0
H791 H 0.47374 0.19342 0.60784 0.0
H792 H 0.40605 0.90585 0.63446 0.0
H793 H 0.4764 0.90038 0.63034 0.0
H794 H 0.35851 0.96843 0.6537 0.0
H795 H 0.31966 0.03437 0.64951 0.0
C796 C 0.16473 0.23178 0.8713 0.0
C797 C 0.15785 0.20773 0.89038 0.0
C798 C 0.24545 0.25689 0.90628 0.0
C799 C 0.25837 0.26645 0.8856 0.0
N800 N 0.2312 0.26006 0.84789 0.0
N801 N 0.17438 0.22736 0.92829 0.0
C802 C 0.21772 0.25489 0.868 0.0
C803 C 0.19263 0.2306 0.90876 0.0
N804 N 0.1209 0.22955 0.85627 0.0
N805 N 0.28491 0.26811 0.92302 0.0
H806 H 0.13427 0.21093 0.92982 0.0
H807 H 0.19597 0.24662 0.94257 0.0
H808 H 0.32441 0.2859 0.92149 0.0
H809 H 0.2798 0.25621 0.93803 0.0
H810 H 0.12172 0.2503 0.84245 0.0
H811 H 0.08197 0.21222 0.85904 0.0
H812 H 0.20437 0.24674 0.83433 0.0
H813 H 0.27116 0.27157 0.84451 0.0
C814 C 0.06857 0.97252 0.15317 0.0
C815 C 0.09098 0.95953 0.13308 0.0
C816 C 1.00928 1.00958 0.11708 0.0
C817 C 0.99521 0.03507 0.1376 0.0
N818 N 1.00944 0.04032 0.17552 0.0
N819 N 0.07871 0.95879 0.09498 0.0
C820 C 0.02341 1.01516 0.15578 0.0
C821 C 0.05922 0.97414 0.11457 0.0
N822 N 0.09171 0.94479 0.16978 0.0
N823 N 0.97451 1.02247 0.10033 0.0
H824 H 0.11167 0.92833 0.09213 0.0
H825 H 0.06296 0.97682 0.08141 0.0
H826 H 0.9782 1.00405 0.08447 0.0
H827 H 0.9782 1.00405 0.08447 0.0
H828 H 0.0753 0.94842 0.18452 0.0
H829 H 0.12437 0.91291 0.16794 0.0
H830 H 0.0321 0.03319 0.18958 0.0
H831 H 0.97638 0.07134 0.17766 0.0
C832 C 0.74384 0.81928 0.87774 0.0
C833 C 0.7794 0.8104 0.8959 0.0
C834 C 0.75739 0.91936 0.91193 0.0
C835 C 0.73158 0.93223 0.89205 0.0
N836 N 0.70448 0.8932 0.85512 0.0
N837 N 0.81883 0.85173 0.93088 0.0
C838 C 0.7249 0.88146 0.87482 0.0
C839 C 0.78501 0.86029 0.91328 0.0
N840 N 0.72909 0.76804 0.86301 0.0
N841 N 0.7545 0.96316 0.92965 0.0
H842 H 0.83638 0.8079 0.93272 0.0
H843 H 0.83106 0.88806 0.94308 0.0
H844 H 0.73326 1.00561 0.92938 0.0
H845 H 0.76827 0.95497 0.94493 0.0
H846 H 0.6997 0.76942 0.85017 0.0
H847 H 0.74172 0.72268 0.86523 0.0
H848 H 0.70443 0.85989 0.84149 0.0
H849 H 0.69219 0.93783 0.85188 0.0
C850 C 0.93911 0.05169 0.65357 0.0
C851 C 0.98884 1.02198 0.6475 0.0
C852 C 0.94309 0.91789 0.64352 0.0
C853 C 0.89288 0.94822 0.64878 0.0
N854 N 0.85386 0.03883 0.6698 0.0
N855 N 0.0434 0.92655 0.64419 0.0
C856 C 0.89397 1.01355 0.65732 0.0
C857 C 0.99258 0.95481 0.64472 0.0
N858 N 0.93404 0.11593 0.65505 0.0
N859 N 0.9433 0.85385 0.63751 0.0
H860 H 0.08079 0.95209 0.64616 0.0
H861 H 0.04896 0.87812 0.64403 0.0
H862 H 0.90926 0.82493 0.63897 0.0
H863 H 0.97649 0.82987 0.63072 0.0
H864 H 0.89633 0.13874 0.65728 0.0
H865 H 0.96594 0.14574 0.65207 0.0
H866 H 0.85507 0.08576 0.67712 0.0
H867 H 0.82521 1.01115 0.67588 0.0
C868 C 0.79949 0.23339 0.35442 0.0
C869 C 0.79313 0.27114 0.37424 0.0
C870 C 0.88025 0.23088 0.38924 0.0
C871 C 0.88175 0.18776 0.37033 0.0
N872 N 0.86517 0.17671 0.33223 0.0
N873 N 0.83926 0.32523 0.4071 0.0
C874 C 0.84894 0.1989 0.3519 0.0
C875 C 0.83731 0.27622 0.3907 0.0
N876 N 0.75759 0.2276 0.33846 0.0
N877 N 0.91909 0.22678 0.40579 0.0
H878 H 0.81028 0.36145 0.40807 0.0
H879 H 0.87253 0.33365 0.41864 0.0
H880 H 0.95338 0.19722 0.40401 0.0
H881 H 0.91676 0.25108 0.42105 0.0
H882 H 0.75901 0.19579 0.3245 0.0
H883 H 0.71945 0.25006 0.33991 0.0
H884 H 0.84402 0.18679 0.3182 0.0
H885 H 0.90379 0.15557 0.3303 0.0
C886 C 0.65887 0.04283 0.15733 0.0
C887 C 0.67709 0.06768 0.13938 0.0
C888 C 0.57996 0.06073 0.12363 0.0
C889 C 0.56371 1.02588 0.13967 0.0
N890 N 0.59143 0.97797 0.17098 0.0
N891 N 0.65449 0.08829 0.10331 0.0
C892 C 0.60416 1.01557 0.15637 0.0
C893 C 0.63746 0.07355 0.12197 0.0
N894 N 0.69286 0.04769 0.17574 0.0
N895 N 0.54032 0.08449 0.11045 0.0
H896 H 0.69599 0.09566 0.10086 0.0
H897 H 0.62789 0.08647 0.08949 0.0
H898 H 0.4978 0.08026 0.11199 0.0
H899 H 0.54972 0.11516 0.09984 0.0
H900 H 0.67987 0.03627 0.18995 0.0
H901 H 0.7319 0.06981 0.17751 0.0
H902 H 0.62115 0.96247 0.18183 0.0
H903 H 0.55216 0.95802 0.17121 0.0
C904 C 0.75033 0.20991 0.64628 0.0
C905 C 0.7736 0.22812 0.62835 0.0
C906 C 0.74457 0.12361 0.60834 0.0
C907 C 0.73301 0.10071 0.62759 0.0
N908 N 0.73432 0.12391 0.66608 0.0
N909 N 0.79404 0.20135 0.59201 0.0
C910 C 0.73729 0.14468 0.64686 0.0
C911 C 0.77028 0.18484 0.6092 0.0
N912 N 0.74334 0.25506 0.66325 0.0
N913 N 0.72979 0.08776 0.58919 0.0
H914 H 0.81063 0.2466 0.59203 0.0
H915 H 0.79951 0.16961 0.57835 0.0
H916 H 0.70844 0.04464 0.58784 0.0
H917 H 0.73321 0.10391 0.57466 0.0
H918 H 0.72237 0.2465 0.67626 0.0
H919 H 0.75344 0.30261 0.66305 0.0
H920 H 0.74245 0.1531 0.68056 0.0
H921 H 0.73068 0.07644 0.66791 0.0
C922 C 0.6801 0.06419 0.38493 0.0
C923 C 0.70009 1.00229 0.37855 0.0
C924 C 0.60297 0.96354 0.37059 0.0
C925 C 0.58309 1.02308 0.37972 0.0
N926 N 0.60327 0.12892 0.39743 0.0
N927 N 0.68041 0.89198 0.36597 0.0
C928 C 0.62181 0.07343 0.38712 0.0
C929 C 0.66137 0.95176 0.37159 0.0
N930 N 0.71683 0.11414 0.38908 0.0
N931 N 0.56594 0.919 0.36002 0.0
H932 H 0.72237 0.88199 0.36465 0.0
H933 H 0.65487 0.85185 0.36375 0.0
H934 H 0.52319 0.92659 0.35834 0.0
H935 H 0.57768 0.87716 0.3511 0.0
H936 H 0.70466 0.16124 0.39145 0.0
H937 H 0.75972 0.10884 0.38861 0.0
H938 H 0.62934 0.16546 0.40514 0.0
H939 H 0.56147 0.13631 0.39978 0.0
C940 C 0.81196 0.85021 0.10473 0.0
C941 C 0.85259 0.86589 0.12192 0.0
C942 C 0.80439 0.80185 0.14349 0.0
C943 C 0.7574 0.79925 0.12837 0.0
N944 N 0.7169 0.81581 0.09378 0.0
N945 N 0.9019 0.83172 0.15218 0.0
C946 C 0.76168 0.82052 0.10847 0.0
C947 C 0.85378 0.8321 0.13936 0.0
N948 N 0.8223 0.86284 0.08501 0.0
N949 N 0.80024 0.78038 0.16247 0.0
H950 H 0.93813 0.85371 0.14868 0.0
H951 H 0.90708 0.80634 0.16498 0.0
H952 H 0.76705 0.75241 0.16522 0.0
H953 H 0.82911 0.79133 0.17555 0.0
H954 H 0.7958 0.84911 0.07139 0.0
H955 H 0.86087 0.88071 0.08212 0.0
H956 H 0.71508 0.83849 0.08032 0.0
H957 H 0.68043 0.79174 0.09571 0.0
C958 C 1.00708 0.05922 0.90294 0.0
C959 C 0.02359 0.03619 0.88245 0.0
C960 C 0.95154 0.10015 0.86672 0.0
C961 C 0.92668 0.10988 0.88637 0.0
N962 N 0.93334 0.1022 0.92406 0.0
N963 N 0.01488 0.03727 0.84474 0.0
C964 C 0.95605 0.09234 0.90492 0.0
C965 C 0.99764 0.05871 0.86432 0.0
N966 N 0.03966 0.04744 0.92049 0.0
N967 N 0.92991 0.12978 0.85032 0.0
H968 H 0.04922 1.00799 0.84282 0.0
H969 H 0.99406 0.04614 0.83051 0.0
H970 H 0.89651 0.16069 0.852 0.0
H971 H 0.94803 0.12858 0.83598 0.0
H972 H 0.03325 0.06767 0.93595 0.0
H973 H 0.07651 1.02206 0.91935 0.0
H974 H 0.94844 0.08181 0.93727 0.0
H975 H 0.8981 0.12909 0.92679 0.0
C976 C 0.80729 0.65092 0.64154 0.0
C977 C 0.80015 0.59998 0.62441 0.0
C978 C 0.74479 0.67107 0.60345 0.0
C979 C 0.75118 0.72147 0.62068 0.0
N980 N 0.80316 0.76422 0.6532 0.0
N981 N 0.77556 0.56847 0.58696 0.0
C982 C 0.78774 0.71289 0.63865 0.0
C983 C 0.77315 0.61239 0.60469 0.0
N984 N 0.82889 0.63958 0.66113 0.0
N985 N 0.70955 0.67863 0.58613 0.0
H986 H 0.79721 0.52625 0.58715 0.0
H987 H 0.76104 0.57648 0.57174 0.0
H988 H 0.69113 0.72197 0.5843 0.0
H989 H 0.69687 0.64174 0.57418 0.0
H990 H 0.82919 0.67294 0.67476 0.0
H991 H 0.84206 0.59519 0.66433 0.0
H992 H 0.83333 0.76312 0.6658 0.0
H993 H 0.7903 0.80937 0.65095 0.0
C994 C 0.62678 0.53891 0.89769 0.0
C995 C 0.62926 0.59063 0.88589 0.0
C996 C 0.53687 0.56276 0.86842 0.0
C997 C 0.53738 0.50736 0.87844 0.0
N998 N 0.58512 0.43676 0.89988 0.0
N999 N 0.5902 0.64903 0.85865 0.0
C1000 C 0.58292 0.49382 0.89238 0.0
C1001 C 0.58526 0.60178 0.87084 0.0
N1002 N 0.66588 0.53301 0.91406 0.0
N1003 N 0.48956 0.5793 0.85727 0.0
H1004 H 0.62374 0.68093 0.86091 0.0
H1005 H 0.5627 0.6545 0.84558 0.0
H1006 H 0.45322 0.55179 0.85493 0.0
H1007 H 0.48478 0.62267 0.85167 0.0
H1008 H 0.66299 0.49973 0.92442 0.0
H1009 H 0.69871 0.56488 0.91875 0.0
H1010 H 0.62029 0.42081 0.90804 0.0
H1011 H 0.55348 0.40256 0.89624 0.0
C1012 C 0.68978 0.42644 0.12692 0.0
C1013 C 0.70963 0.47745 0.14251 0.0
C1014 C 0.78121 0.40935 0.15658 0.0
C1015 C 0.7601 0.35792 0.14147 0.0
N1016 N 0.6868 0.31308 0.1156 0.0
N1017 N 0.76713 0.51502 0.17475 0.0
C1018 C 0.71225 0.36518 0.12755 0.0
C1019 C 0.75288 0.46802 0.15825 0.0
N1020 N 0.64977 0.43672 0.11135 0.0
N1021 N 0.82997 0.40303 0.16858 0.0
H1022 H 0.74897 0.55949 0.17631 0.0
H1023 H 0.79383 0.50841 0.18791 0.0
H1024 H 0.85176 0.36075 0.1678 0.0
H1025 H 0.85131 0.44073 0.17801 0.0
H1026 H 0.63891 0.40383 0.09794 0.0
H1027 H 0.62923 0.47963 0.11124 0.0
H1028 H 0.64849 0.3144 0.10689 0.0
H1029 H 0.70131 0.26715 0.11586 0.0
C1030 C 0.85829 0.54773 0.39739 0.0
C1031 C 0.82809 0.51501 0.37896 0.0
C1032 C 0.91431 0.50978 0.36009 0.0
C1033 C 0.94563 0.53642 0.37918 0.0
N1034 N 0.94782 0.58296 0.41594 0.0
N1035 N 0.82802 0.45969 0.34325 0.0
C1036 C 0.91751 0.55613 0.3978 0.0
C1037 C 0.85617 0.4955 0.36034 0.0
N1038 N 0.82982 0.57214 0.41433 0.0
N1039 N 0.94021 0.4976 0.34167 0.0
H1040 H 0.78577 0.4485 0.34267 0.0
H1041 H 0.84701 0.43706 0.33021 0.0
H1042 H 0.98281 0.50429 0.341 0.0
H1043 H 0.91913 0.48527 0.32674 0.0
H1044 H 0.84766 0.60026 0.42786 0.0
H1045 H 0.78672 0.5678 0.41434 0.0
H1046 H 0.93226 0.59203 0.4308 0.0
H1047 H 0.98989 0.59494 0.4163 0.0
C1048 C 0.78243 0.41116 0.90766 0.0
C1049 C 0.79583 0.4323 0.88833 0.0
C1050 C 0.77762 0.32237 0.87029 0.0
C1051 C 0.75323 0.30584 0.88826 0.0
N1052 N 0.73081 0.33585 0.92426 0.0
N1053 N 0.79793 0.4064 0.85009 0.0
C1054 C 0.75586 0.35053 0.90709 0.0
C1055 C 0.79231 0.38709 0.86938 0.0
N1056 N 0.79656 0.448 0.92669 0.0
N1057 N 0.78457 0.27606 0.85364 0.0
H1058 H 0.80368 0.45347 0.84808 0.0
H1059 H 0.79052 0.37667 0.83568 0.0
H1060 H 0.77352 0.22891 0.85409 0.0
H1061 H 0.80637 0.28313 0.84069 0.0
H1062 H 0.79188 0.43306 0.94133 0.0
H1063 H 0.81869 0.49058 0.92795 0.0
H1064 H 0.72461 0.36877 0.93755 0.0
H1065 H 0.71386 0.29094 0.92458 0.0
C1066 C 0.88206 0.54959 0.11615 0.0
C1067 C 0.87656 0.60498 0.13117 0.0
C1068 C 0.97471 0.60068 0.14366 0.0
C1069 C 0.97905 0.54272 0.13004 0.0
N1070 N 0.93707 0.45746 0.10499 0.0
N1071 N 0.91404 0.67446 0.16238 0.0
C1072 C 0.93292 0.51612 0.11657 0.0
C1073 C 0.92181 0.62797 0.14586 0.0
N1074 N 0.83847 0.52809 0.10183 0.0
N1075 N 0.02148 0.63086 0.15394 0.0
H1076 H 0.87582 0.69553 0.16467 0.0
H1077 H 0.94413 0.68794 0.17489 0.0
H1078 H 0.06143 0.61298 0.15247 0.0
H1079 H 0.02132 0.6766 0.16221 0.0
H1080 H 0.84221 0.49339 0.0888 0.0
H1081 H 0.79856 0.54646 0.10226 0.0
H1082 H 0.90335 0.43156 0.09688 0.0
H1083 H 0.97411 0.43243 0.10464 0.0
C1084 C 0.75088 0.71831 0.40622 0.0
C1085 C 0.76818 0.74002 0.38765 0.0
C1086 C 0.67606 0.71288 0.3693 0.0
C1087 C 0.66258 0.68399 0.38685 0.0
N1088 N 0.67283 0.69019 0.42484 0.0
N1089 N 0.74639 0.75882 0.35108 0.0
C1090 C 0.69556 0.69655 0.4063 0.0
C1091 C 0.73054 0.73784 0.36902 0.0
N1092 N 0.7881 0.71624 0.42349 0.0
N1093 N 0.63525 0.71895 0.35355 0.0
H1094 H 0.78369 0.78211 0.35018 0.0
H1095 H 0.72316 0.75105 0.33644 0.0
H1096 H 0.59415 0.70513 0.35472 0.0
H1097 H 0.64002 0.74325 0.34075 0.0
H1098 H 0.77889 0.696 0.43676 0.0
H1099 H 0.83001 0.72874 0.42364 0.0
H1100 H 0.69343 0.70324 0.43984 0.0
H1101 H 0.63063 0.67947 0.4251 0.0
C1102 C 0.57815 0.4357 0.64879 0.0
C1103 C 0.60291 0.42173 0.62923 0.0
C1104 C 0.52298 0.47 0.61145 0.0
C1105 C 0.50697 0.49742 0.63161 0.0
N1106 N 0.51763 0.50553 0.66973 0.0
N1107 N 0.59478 0.41901 0.59095 0.0
C1108 C 0.53307 0.47866 0.65038 0.0
C1109 C 0.57328 0.43515 0.61014 0.0
N1110 N 0.59901 0.4087 0.66591 0.0
N1111 N 0.49033 0.47873 0.59356 0.0
H1112 H 0.62774 0.38825 0.58865 0.0
H1113 H 0.58024 0.43677 0.57716 0.0
H1114 H 0.45392 0.5051 0.59421 0.0
H1115 H 0.49621 0.45542 0.57843 0.0
H1116 H 0.58062 0.413 0.68027 0.0
H1117 H 0.6317 0.37665 0.66482 0.0
H1118 H 0.53903 0.49925 0.68413 0.0
H1119 H 0.4849 0.53723 0.67124 0.0
C1120 C 0.28758 0.34349 0.41025 0.0
C1121 C 0.28232 0.2935 0.39278 0.0
C1122 C 0.22241 0.36351 0.37271 0.0
C1123 C 0.2289 0.41393 0.3901 0.0
N1124 N 0.25328 0.4431 0.42761 0.0
N1125 N 0.23348 0.25116 0.35953 0.0
C1126 C 0.2569 0.40088 0.40955 0.0
C1127 C 0.24541 0.30196 0.37483 0.0
N1128 N 0.32442 0.33745 0.42726 0.0
N1129 N 0.19761 0.37537 0.35365 0.0
H1130 H 0.25009 0.20659 0.36078 0.0
H1131 H 0.20349 0.25154 0.34684 0.0
H1132 H 0.18086 0.41915 0.3514 0.0
H1133 H 0.19688 0.34337 0.33969 0.0
H1134 H 0.33627 0.37472 0.43919 0.0
H1135 H 0.34562 0.29562 0.42876 0.0
H1136 H 0.26819 0.43424 0.4427 0.0
H1137 H 0.22998 0.48425 0.42783 0.0
C1138 C 0.43754 0.46173 0.15046 0.0
C1139 C 0.40425 0.45204 0.1309 0.0
C1140 C 0.45867 0.53074 0.11698 0.0
C1141 C 0.49106 0.54222 0.13673 0.0
N1142 N 0.52441 0.50243 0.16917 0.0
N1143 N 0.40221 0.45395 0.09299 0.0
C1144 C 0.48461 0.50281 0.15262 0.0
C1145 C 0.42092 0.47883 0.11325 0.0
N1146 N 0.42347 0.43218 0.16698 0.0
N1147 N 0.46234 0.57052 0.1021 0.0
H1148 H 0.38062 0.41096 0.08953 0.0
H1149 H 0.41575 0.47021 0.07957 0.0
H1150 H 0.48851 0.61032 0.10444 0.0
H1151 H 0.4354 0.5674 0.08833 0.0
H1152 H 0.44156 0.4434 0.18247 0.0
H1153 H 0.39204 0.3976 0.16511 0.0
H1154 H 0.52396 0.47066 0.18015 0.0
H1155 H 0.56108 0.52922 0.17071 0.0
C1156 C 0.24085 0.66282 0.86615 0.0
C1157 C 0.26242 0.71419 0.88114 0.0
C1158 C 0.3305 0.64442 0.89647 0.0
C1159 C 0.31109 0.59386 0.88065 0.0
N1160 N 0.25258 0.55591 0.84867 0.0
N1161 N 0.33313 0.75767 0.90831 0.0
C1162 C 0.26799 0.60351 0.86485 0.0
C1163 C 0.30864 0.70605 0.89576 0.0
N1164 N 0.1926 0.66993 0.85391 0.0
N1165 N 0.36958 0.63333 0.91226 0.0
H1166 H 0.31849 0.80361 0.90825 0.0
H1167 H 0.37049 0.75601 0.91761 0.0
H1168 H 0.38937 0.58994 0.91245 0.0
H1169 H 0.38037 0.6659 0.92576 0.0
H1170 H 0.17073 0.63255 0.84453 0.0
H1171 H 0.17154 0.71268 0.85449 0.0
H1172 H 0.22651 0.56249 0.83534 0.0
H1173 H 0.26859 0.51042 0.84766 0.0
C1174 C 0.11056 0.45624 0.63005 0.0
C1175 C 0.07761 0.49992 0.64248 0.0
C1176 C 0.16209 0.56471 0.65515 0.0
C1177 C 0.19381 0.52511 0.64087 0.0
N1178 N 0.19749 0.43479 0.61358 0.0
N1179 N 0.07106 0.59799 0.66598 0.0
C1180 C 0.168 0.4707 0.62823 0.0
C1181 C 0.10327 0.55467 0.65482 0.0
N1182 N 0.08655 0.40117 0.61972 0.0
N1183 N 0.1887 0.61047 0.66973 0.0
H1184 H 0.02877 0.59052 0.66727 0.0
H1185 H 0.08537 0.64274 0.67301 0.0
H1186 H 0.2316 0.61841 0.67077 0.0
H1187 H 0.1694 0.63671 0.68206 0.0
H1188 H 0.1087 0.36382 0.61225 0.0
H1189 H 0.04429 0.39105 0.6198 0.0
H1190 H 0.18012 0.39863 0.60227 0.0
H1191 H 0.23908 0.44377 0.6116 0.0
C1192 C 0.23987 0.74736 0.1483 0.0
C1193 C 0.26456 0.76434 0.13045 0.0
C1194 C 0.23756 0.65832 0.11099 0.0
C1195 C 0.22382 0.63705 0.13025 0.0
N1196 N 0.21874 0.66305 0.16832 0.0
N1197 N 0.28761 0.7353 0.09451 0.0
C1198 C 0.22568 0.68241 0.14914 0.0
C1199 C 0.26282 0.71972 0.11161 0.0
N1200 N 0.232 0.79356 0.16488 0.0
N1201 N 0.22508 0.62069 0.09198 0.0
H1202 H 0.3036 0.7807 0.09425 0.0
H1203 H 0.29445 0.70283 0.08118 0.0
H1204 H 0.20444 0.57716 0.09074 0.0
H1205 H 0.22978 0.63548 0.07733 0.0
H1206 H 0.20993 0.78625 0.17774 0.0
H1207 H 0.24267 0.84084 0.16447 0.0
H1208 H 0.22506 0.69279 0.18277 0.0
H1209 H 0.21261 0.61596 0.17023 0.0
C1210 C 0.09157 0.42315 0.89244 0.0
C1211 C 0.14045 0.46087 0.8949 0.0
C1212 C 0.08517 0.55749 0.89794 0.0
C1213 C 0.03666 0.51938 0.89242 0.0
N1214 N 0.99229 0.41652 0.88284 0.0
N1215 N 0.18579 0.56324 0.90241 0.0
C1216 C 0.0393 0.45227 0.88946 0.0
C1217 C 0.13779 0.52801 0.89842 0.0
N1218 N 0.09536 0.35984 0.89345 0.0
N1219 N 0.08044 0.62151 0.90334 0.0
H1220 H 0.22411 0.5431 0.90575 0.0
H1221 H 0.18807 0.61193 0.90245 0.0
H1222 H 0.04213 0.64388 0.90338 0.0
H1223 H 0.11344 0.65228 0.9091 0.0
H1224 H 0.06119 0.33001 0.89352 0.0
H1225 H 0.13343 0.33868 0.89654 0.0
H1226 H 0.9926 0.36777 0.87817 0.0
H1227 H 0.95306 0.43605 0.88046 0.0
C1228 C 0.36228 0.30538 0.64495 0.0
C1229 C 0.36896 0.33013 0.626 0.0
C1230 C 0.27924 0.28442 0.61068 0.0
C1231 C 0.26728 0.27505 0.63147 0.0
N1232 N 0.29594 0.28173 0.66906 0.0
N1233 N 0.3489 0.31496 0.58819 0.0
C1234 C 0.30871 0.28568 0.64878 0.0
C1235 C 0.33216 0.31016 0.60784 0.0
N1236 N 0.40691 0.30366 0.65943 0.0
N1237 N 0.2391 0.27239 0.59417 0.0
H1238 H 0.38929 0.32981 0.58631 0.0
H1239 H 0.32559 0.29893 0.57397 0.0
H1240 H 0.19985 0.25427 0.59601 0.0
H1241 H 0.24342 0.28292 0.57893 0.0
H1242 H 0.40565 0.28212 0.67308 0.0
H1243 H 0.44645 0.31822 0.65629 0.0
H1244 H 0.32387 0.29412 0.68237 0.0
H1245 H 0.25582 0.27218 0.67281 0.0
C1246 C 0.48695 0.54423 0.36029 0.0
C1247 C 0.51392 0.52708 0.37919 0.0
C1248 C 0.45793 0.60415 0.40053 0.0
C1249 C 0.42296 0.60943 0.38197 0.0
N1250 N 0.42008 0.61288 0.34443 0.0
N1251 N 0.52866 0.54334 0.41754 0.0
C1252 C 0.44296 0.58874 0.36183 0.0
C1253 C 0.50127 0.55896 0.39939 0.0
N1254 N 0.50054 0.51444 0.34102 0.0
N1255 N 0.45127 0.6441 0.41883 0.0
H1256 H 0.56241 0.51279 0.41733 0.0
H1257 H 0.51655 0.55844 0.43273 0.0
H1258 H 0.424 0.68203 0.41922 0.0
H1259 H 0.47773 0.64541 0.43264 0.0
H1260 H 0.47873 0.51966 0.32661 0.0
H1261 H 0.5326 0.48179 0.33961 0.0
H1262 H 0.43465 0.60345 0.32938 0.0
H1263 H 0.38995 0.64802 0.34576 0.0
C1264 C 0.29906 0.34966 0.99627 0.0
C1265 C 0.3124 0.40803 0.98944 0.0
C1266 C 0.27527 0.4663 0.02126 0.0
C1267 C 0.25751 0.4081 0.02707 0.0
N1268 N 0.24729 0.29468 0.01949 0.0
N1269 N 0.30939 0.52199 0.99406 0.0
C1270 C 0.26812 0.34978 0.01442 0.0
C1271 C 0.29954 0.46642 1.0016 0.0
N1272 N 0.31702 0.29423 0.98561 0.0
N1273 N 0.26971 0.52137 0.03477 0.0
H1274 H 0.32857 0.52405 0.98007 0.0
H1275 H 0.29534 0.56577 1.00078 0.0
H1276 H 0.25123 0.52323 0.04909 0.0
H1277 H 0.28701 0.56457 0.0327 0.0
H1278 H 0.31393 0.25057 0.99095 0.0
H1279 H 0.33876 0.29234 0.97203 0.0
H1280 H 0.24769 0.25139 0.00966 0.0
H1281 H 0.22644 0.29282 0.03312 0.0
C1282 C 0.81935 0.99899 0.24142 0.0
C1283 C 0.87101 1.02061 0.23574 0.0
C1284 C 0.91961 0.97863 0.26613 0.0
C1285 C 0.86743 0.96324 0.27305 0.0
N1286 N 0.76715 0.96418 0.26876 0.0
N1287 N 0.97023 0.03465 0.24285 0.0
C1288 C 0.81714 0.97429 0.26097 0.0
C1289 C 0.9212 1.0112 0.24812 0.0
N1290 N 0.77233 1.00217 0.2281 0.0
N1291 N 0.96756 0.96053 0.27647 0.0
H1292 H 0.97339 0.05538 0.2291 0.0
H1293 H 1.00724 0.03649 0.25254 0.0
H1294 H 0.96782 0.93691 0.28974 0.0
H1295 H 1.00682 0.96446 0.27108 0.0
H1296 H 0.73459 0.98081 0.23001 0.0
H1297 H 0.77193 1.02209 0.21406 0.0
H1298 H 0.72915 0.97804 0.26206 0.0
H1299 H 0.76367 0.94621 0.283 0.0
C1300 C 0.34633 0.59128 0.51669 0.0
C1301 C 0.31363 0.61794 0.53319 0.0
C1302 C 0.26321 0.67762 0.50772 0.0
C1303 C 0.28509 0.638 0.49066 0.0
N1304 N 0.34682 0.55288 0.47916 0.0
N1305 N 0.23587 0.68393 0.54356 0.0
C1306 C 0.32754 0.5946 0.49513 0.0
C1307 C 0.27149 0.66179 0.52868 0.0
N1308 N 0.39485 0.56181 0.52168 0.0
N1309 N 0.23267 0.72898 0.50365 0.0
H1310 H 0.23765 0.67115 0.55875 0.0
H1311 H 0.20099 0.71058 0.54011 0.0
H1312 H 0.22625 0.74119 0.48833 0.0
H1313 H 0.21919 0.76253 0.51562 0.0
H1314 H 0.42262 0.54587 0.51045 0.0
H1315 H 0.40991 0.55973 0.53741 0.0
H1316 H 0.37278 0.51548 0.482 0.0
H1317 H 0.33389 0.55242 0.46316 0.0
C1318 C 0.61494 0.94803 0.74855 0.0
C1319 C 0.63586 0.98807 0.73497 0.0
C1320 C 0.63991 0.07589 0.76442 0.0
C1321 C 0.63309 0.03213 0.77883 0.0
N1322 N 0.6115 0.926 0.78474 0.0
N1323 N 0.66665 0.09185 0.72964 0.0
C1324 C 0.6182 0.9683 0.77091 0.0
C1325 C 0.64638 0.05309 0.74263 0.0
N1326 N 0.59331 0.88999 0.73993 0.0
N1327 N 0.64182 0.13914 0.77188 0.0
H1328 H 0.67121 0.07716 0.71358 0.0
H1329 H 0.68158 0.13761 0.73502 0.0
H1330 H 0.63712 0.15619 0.78783 0.0
H1331 H 0.64249 0.17422 0.76208 0.0
H1332 H 0.57336 0.86013 0.74861 0.0
H1333 H 0.59065 0.87471 0.72356 0.0
H1334 H 0.60763 0.87731 0.78007 0.0
H1335 H 0.61243 0.93935 0.80115 0.0
C1336 C 0.75583 0.71742 1.00547 0.0
C1337 C 0.76671 0.65976 0.99251 0.0
C1338 C 0.72834 0.59952 0.01827 0.0
C1339 C 0.71457 0.65722 0.03062 0.0
N1340 N 0.70641 0.77071 0.03448 0.0
N1341 N 0.75659 0.54629 0.9846 0.0
C1342 C 0.72584 0.71614 0.02379 0.0
C1343 C 0.7509 0.60086 0.99834 0.0
N1344 N 0.77535 0.77327 1.00051 0.0
N1345 N 0.72094 0.54349 0.02585 0.0
H1346 H 0.7737 0.54538 0.97004 0.0
H1347 H 0.74052 0.50256 0.98675 0.0
H1348 H 0.7035 0.54059 0.04015 0.0
H1349 H 0.73564 0.50032 0.01886 0.0
H1350 H 0.77474 0.81612 0.01059 0.0
H1351 H 0.79547 0.77617 0.98678 0.0
H1352 H 0.70814 0.81453 0.02915 0.0
H1353 H 0.68455 0.7714 0.04797 0.0
C1354 C 0.18659 0.12946 0.76505 0.0
C1355 C 0.1723 0.09401 0.74468 0.0
C1356 C 0.13626 1.00977 0.76252 0.0
C1357 C 0.16202 0.03875 0.78238 0.0
N1358 N 0.22263 0.12299 0.80112 0.0
N1359 N 0.14479 0.9916 0.72475 0.0
C1360 C 0.18969 0.09823 0.78342 0.0
C1361 C 0.14951 0.03192 0.7435 0.0
N1362 N 0.19742 0.19294 0.7669 0.0
N1363 N 0.09926 0.96082 0.76175 0.0
H1364 H 0.15898 1.0026 0.7107 0.0
H1365 H 0.13297 0.94419 0.72382 0.0
H1366 H 0.08689 0.94496 0.77544 0.0
H1367 H 0.07634 0.9414 0.74774 0.0
H1368 H 0.20385 0.22165 0.78158 0.0
H1369 H 0.1936 0.21775 0.75387 0.0
H1370 H 0.24739 0.16339 0.80165 0.0
H1371 H 0.23047 0.09979 0.81434 0.0
C1372 C 0.70191 0.41802 0.52502 0.0
C1373 C 0.74577 0.3747 0.52782 0.0
C1374 C 0.75349 0.35789 0.48924 0.0
C1375 C 0.70858 0.39981 0.48639 0.0
N1376 N 0.62749 0.44904 0.50089 0.0
N1377 N 0.79724 0.28646 0.51173 0.0
C1378 C 0.67826 0.42221 0.50409 0.0
C1379 C 0.76555 0.33844 0.50955 0.0
N1380 N 0.68592 0.45939 0.54175 0.0
N1381 N 0.78806 0.341 0.47349 0.0
H1382 H 0.80588 0.27071 0.52643 0.0
H1383 H 0.80932 0.25563 0.49875 0.0
H1384 H 0.7841 0.35735 0.45884 0.0
H1385 H 0.82441 0.31568 0.47586 0.0
H1386 H 0.65808 0.49584 0.53981 0.0
H1387 H 0.70414 0.46199 0.55721 0.0
H1388 H 0.60183 0.46194 0.51315 0.0
H1389 H 0.6088 0.45156 0.48566 0.0
C1390 C 0.40505 0.09295 0.27431 0.0
C1391 C 0.39642 0.04109 0.28536 0.0
C1392 C 0.39826 0.96823 0.25196 0.0
C1393 C 0.39422 1.02073 0.24059 0.0
N1394 N 0.3998 0.13299 0.24028 0.0
N1395 N 0.39095 0.92882 0.28568 0.0
C1396 C 0.40103 0.08316 0.25161 0.0
C1397 C 0.39644 0.97831 0.27451 0.0
N1398 N 0.41552 0.15157 0.28568 0.0
N1399 N 0.40217 0.90889 0.24094 0.0
H1400 H 0.39165 0.93518 0.30225 0.0
H1401 H 0.38433 0.88204 0.27869 0.0
H1402 H 0.40316 0.90128 0.22443 0.0
H1403 H 0.40889 0.8683 0.24806 0.0
H1404 H 0.42584 0.19127 0.27896 0.0
H1405 H 0.41829 0.15903 0.30228 0.0
H1406 H 0.39812 0.18017 0.24707 0.0
H1407 H 0.39899 0.12662 0.22371 0.0
C1408 C 0.79369 0.87783 0.48726 0.0
C1409 C 0.83433 0.92731 0.48917 0.0
C1410 C 0.82644 0.94398 0.52783 0.0
C1411 C 0.79109 0.88964 0.52605 0.0
N1412 N 0.75953 0.79241 0.50403 0.0
N1413 N 0.90283 0.99084 0.51292 0.0
C1414 C 0.78137 0.85215 0.50576 0.0
C1415 C 0.85534 0.9547 0.51001 0.0
N1416 N 0.76259 0.85901 0.46854 0.0
N1417 N 0.82935 0.98845 0.54555 0.0
H1418 H 0.92706 0.99652 0.50046 0.0
H1419 H 0.92131 1.00822 0.528 0.0
H1420 H 0.80455 0.98706 0.5581 0.0
H1421 H 0.85144 0.03097 0.54647 0.0
H1422 H 0.73021 0.82583 0.46723 0.0
H1423 H 0.76329 0.88243 0.4553 0.0
H1424 H 0.75506 0.76225 0.48958 0.0
H1425 H 0.75242 0.77092 0.51732 0.0
C1426 C 0.35029 0.43327 0.73421 0.0
C1427 C 0.38073 0.4911 0.73549 0.0
C1428 C 0.39398 0.49571 0.77425 0.0
C1429 C 0.36755 0.43535 0.77283 0.0
N1430 N 0.33755 0.33862 0.75032 0.0
N1431 N 0.44758 0.56416 0.75614 0.0
C1432 C 0.35177 0.4013 0.75238 0.0
C1433 C 0.40827 0.51755 0.75532 0.0
N1434 N 0.31613 0.41112 0.71654 0.0
N1435 N 0.40107 0.53516 0.79316 0.0
H1436 H 0.46023 0.57988 0.74246 0.0
H1437 H 0.47174 0.58154 0.77008 0.0
H1438 H 0.38633 0.52494 0.80721 0.0
H1439 H 0.41569 0.58163 0.79428 0.0
H1440 H 0.28941 0.37231 0.71593 0.0
H1441 H 0.30944 0.43509 0.70346 0.0
H1442 H 0.32981 0.3106 0.73556 0.0
H1443 H 0.33973 0.31341 0.76325 0.0
C1444 C 0.83926 0.1315 0.01712 0.0
C1445 C 0.80601 0.16077 0.03303 0.0
C1446 C 0.75758 0.21719 1.00614 0.0
C1447 C 0.77981 0.175 0.98976 0.0
N1448 N 0.8413 0.0879 0.98006 0.0
N1449 N 0.72964 0.23035 0.04206 0.0
C1450 C 0.82165 0.13199 0.99526 0.0
C1451 C 0.76496 0.2047 0.02756 0.0
N1452 N 0.88699 0.10186 0.02298 0.0
N1453 N 0.72782 0.26801 1.00101 0.0
H1454 H 0.73175 0.22121 0.05771 0.0
H1455 H 0.69515 0.25686 0.03804 0.0
H1456 H 0.7222 0.2779 0.98538 0.0
H1457 H 0.71418 0.30334 0.01238 0.0
H1458 H 0.91529 0.08394 0.0122 0.0
H1459 H 0.9009 0.10156 0.03892 0.0
H1460 H 0.86677 0.05089 0.9837 0.0
H1461 H 0.8291 0.08503 0.96391 0.0
C1462 C 0.11986 0.47244 0.27244 0.0
C1463 C 0.12306 0.53679 0.28187 0.0
C1464 C 0.12745 0.57017 0.24666 0.0
C1465 C 0.12973 0.50566 0.23749 0.0
N1466 N 0.11037 0.39667 0.23992 0.0
N1467 N 0.11155 0.64607 0.27787 0.0
C1468 C 0.11941 0.45725 0.24987 0.0
C1469 C 0.11997 0.58532 0.26879 0.0
N1470 N 0.12133 0.42599 0.28518 0.0
N1471 N 0.1365 0.6167 0.2346 0.0
H1472 H 0.10619 0.65734 0.29407 0.0
H1473 H 0.10481 0.68367 0.26924 0.0
H1474 H 0.14077 0.60724 0.2183 0.0
H1475 H 0.14209 0.66429 0.24081 0.0
H1476 H 0.1261 0.37819 0.27964 0.0
H1477 H 0.11967 0.43589 0.30162 0.0
H1478 H 0.09853 0.35948 0.24761 0.0
H1479 H 0.10985 0.38511 0.22341 0.0
C1480 C 0.20224 0.18564 0.52138 0.0
C1481 C 0.20842 0.12674 0.52921 0.0
C1482 C 0.25029 0.08133 0.49656 0.0
C1483 C 0.24861 0.14171 0.4896 0.0
N1484 N 0.22586 0.25232 0.49539 0.0
N1485 N 0.24055 1.01925 0.52531 0.0
C1486 C 0.225 0.19406 0.50198 0.0
C1487 C 0.2328 0.07463 0.51701 0.0
N1488 N 0.17382 0.23321 0.53241 0.0
N1489 N 0.26858 0.03044 0.48351 0.0
H1490 H 0.22708 1.01223 0.53996 0.0
H1491 H 0.26322 0.98142 0.51846 0.0
H1492 H 0.28301 0.03414 0.46875 0.0
H1493 H 0.26598 0.98385 0.48646 0.0
H1494 H 0.16225 0.27483 0.52658 0.0
H1495 H 0.15874 0.22971 0.5471 0.0
H1496 H 0.21607 0.29419 0.50475 0.0
H1497 H 0.23882 0.25933 0.48065 0.0
C1498 C 0.65219 0.6434 0.26562 0.0
C1499 C 0.64737 0.61542 0.24391 0.0
C1500 C 0.62421 0.51497 0.25579 0.0
C1501 C 0.64134 0.53989 0.27726 0.0
N1502 N 0.69061 0.62639 0.30031 0.0
N1503 N 0.64626 0.51642 0.21969 0.0
C1504 C 0.66044 0.60393 0.2817 0.0
C1505 C 0.63791 0.54884 0.23922 0.0
N1506 N 0.64853 0.70736 0.2711 0.0
N1507 N 0.59437 0.45967 0.25104 0.0
H1508 H 0.66386 0.53706 0.20789 0.0
H1509 H 0.64304 0.46718 0.21643 0.0
H1510 H 0.57963 0.43584 0.26272 0.0
H1511 H 0.57852 0.44243 0.23556 0.0
H1512 H 0.64881 0.72856 0.28691 0.0
H1513 H 0.63816 0.73769 0.25994 0.0
H1514 H 0.70808 0.67187 0.30314 0.0
H1515 H 0.705 0.59748 0.31141 0.0
C1516 C 0.26378 0.86003 0.01197 0.0
C1517 C 0.24127 0.90065 0.0287 0.0
C1518 C 0.1811 0.9454 1.00182 0.0
C1519 C 0.21431 0.91764 0.98563 0.0
N1520 N 0.29268 0.85144 0.97628 0.0
N1521 N 0.18023 0.98778 0.039 0.0
C1522 C 0.2564 0.87446 0.99079 0.0
C1523 C 0.19939 0.94407 0.02357 0.0
N1524 N 0.29371 0.80871 0.01653 0.0
N1525 N 0.13255 0.97412 0.99636 0.0
H1526 H 0.19342 0.99071 0.05507 0.0
H1527 H 0.15449 1.02481 0.03557 0.0
H1528 H 0.11776 0.97465 0.98052 0.0
H1529 H 0.10447 0.99082 1.0074 0.0
H1530 H 0.30753 0.77457 1.00481 0.0
H1531 H 0.29923 0.7971 0.03195 0.0
H1532 H 0.32752 0.82529 0.98017 0.0
H1533 H 0.29139 0.86305 0.96094 0.0
C1534 C 0.91059 0.57149 0.74574 0.0
C1535 C 0.90083 0.50663 0.73773 0.0
C1536 C 0.89222 0.48275 0.77394 0.0
C1537 C 0.89679 0.54846 0.7817 0.0
N1538 N 0.92829 0.65175 0.77678 0.0
N1539 N 0.90137 0.39879 0.74431 0.0
C1540 C 0.91261 0.59146 0.76813 0.0
C1541 C 0.89874 0.46167 0.75202 0.0
N1542 N 0.91385 0.6144 0.73187 0.0
N1543 N 0.87746 0.44123 0.78705 0.0
H1544 H 0.90604 0.38312 0.72827 0.0
H1545 H 0.90427 0.36315 0.75393 0.0
H1546 H 0.87344 0.45478 0.80322 0.0
H1547 H 0.86677 0.39402 0.78177 0.0
H1548 H 0.91401 0.66322 0.73643 0.0
H1549 H 0.91428 0.60086 0.7155 0.0
H1550 H 0.94431 0.68457 0.76817 0.0
H1551 H 0.93 0.66675 0.79316 0.0
loop_
_geom_bond_atom_site_label_1
_geom_bond_atom_site_label_2
_geom_bond_distance
_geom_bond_site_symmetry_2
_ccdc_geom_bond_type
Zn0 N4 2.020 . S
Zn0 O8 2.019 . S
Zn0 N10 2.119 . S
Zn0 O18 1.975 . S
C1 N2 1.334 . S
C1 N5 1.336 . S
N2 C1 1.334 . S
N2 C3 1.334 . S
C3 N2 1.334 . S
C3 N4 1.336 . S
N4 Zn0 2.020 . S
N4 C3 1.336 . S
N4 N5 1.354 . S
N5 C1 1.336 . S
N5 N4 1.354 . S
N5 Zn9 2.020 . S
C6 O7 1.244 . S
C6 O30 1.257 1_655 S
O7 C6 1.244 . S
O8 Zn0 2.019 . S
O8 C28 1.257 . S
Zn9 N5 2.020 . S
Zn9 O16 1.975 . S
Zn9 N25 2.119 . S
Zn9 O30 2.019 . S
N10 Zn0 2.119 . S
N10 C12 1.334 . S
N10 C13 1.328 . S
C11 C12 1.391 . S
C11 N14 1.329 . S
C11 H32 0.930 . S
C12 N10 1.334 . S
C12 C11 1.391 . S
C12 H19 0.930 . S
C13 N10 1.328 . S
C13 C15 1.392 . S
C13 H20 0.930 . S
N14 C11 1.329 . S
N14 C15 1.331 . S
C15 C13 1.392 . S
C15 N14 1.331 . S
O16 Zn9 1.975 . S
O16 C17 1.252 . S
C17 O16 1.252 . S
C17 O18 1.252 . S
O18 Zn0 1.975 . S
O18 C17 1.252 . S
H19 C12 0.930 . S
H20 C13 0.930 . S
C21 C22 1.392 . S
C21 N25 1.328 . S
C21 H27 0.930 . S
C22 C21 1.392 . S
C22 N26 1.331 . S
C23 C24 1.391 . S
C23 N26 1.329 . S
C23 H33 0.930 . S
C24 C23 1.391 . S
C24 N25 1.334 . S
C24 H31 0.930 . S
N25 Zn9 2.119 . S
N25 C21 1.328 . S
N25 C24 1.334 . S
N26 C22 1.331 . S
N26 C23 1.329 . S
H27 C21 0.930 . S
C28 O8 1.257 . S
C28 O29 1.244 . S
O29 C28 1.244 . S
O30 C6 1.257 1_455 S
O30 Zn9 2.019 . S
H31 C24 0.930 . S
H32 C11 0.930 . S
H33 C23 0.930 . S
Zn34 N38 2.020 1_545 S
Zn34 O42 2.019 . S
Zn34 N44 2.119 1_545 S
Zn34 O52 1.975 1_545 S
C35 N36 1.334 . S
C35 N39 1.336 . S
N36 C35 1.334 . S
N36 C37 1.334 . S
C37 N36 1.334 . S
C37 N38 1.336 . S
N38 Zn34 2.020 1_565 S
N38 C37 1.336 . S
N38 N39 1.354 . S
N39 C35 1.336 . S
N39 N38 1.354 . S
N39 Zn43 2.020 . S
C40 O41 1.244 . S
C40 O64 1.257 . S
O41 C40 1.244 . S
O42 Zn34 2.019 . S
O42 C62 1.257 . S
Zn43 N39 2.020 . S
Zn43 O50 1.975 . S
Zn43 N59 2.119 . S
Zn43 O64 2.019 . S
N44 Zn34 2.119 1_565 S
N44 C46 1.334 . S
N44 C47 1.328 1_565 S
C45 C46 1.391 . S
C45 N48 1.329 . S
C45 H66 0.930 . S
C46 N44 1.334 . S
C46 C45 1.391 . S
C46 H53 0.930 . S
C47 N44 1.328 1_545 S
C47 C49 1.392 1_545 S
C47 H54 0.930 . S
N48 C45 1.329 . S
N48 C49 1.331 . S
C49 C47 1.392 1_565 S
C49 N48 1.331 . S
O50 Zn43 1.975 . S
O50 C51 1.252 . S
C51 O50 1.252 . S
C51 O52 1.252 . S
O52 Zn34 1.975 1_565 S
O52 C51 1.252 . S
H53 C46 0.930 . S
H54 C47 0.930 . S
C55 C56 1.392 . S
C55 N59 1.328 . S
C55 H61 0.930 . S
C56 C55 1.392 . S
C56 N60 1.331 . S
C57 C58 1.391 . S
C57 N60 1.329 . S
C57 H67 0.930 1_565 S
C58 C57 1.391 . S
C58 N59 1.334 . S
C58 H65 0.930 . S
N59 Zn43 2.119 . S
N59 C55 1.328 . S
N59 C58 1.334 . S
N60 C56 1.331 . S
N60 C57 1.329 . S
H61 C55 0.930 . S
C62 O42 1.257 . S
C62 O63 1.244 . S
O63 C62 1.244 . S
O64 C40 1.257 . S
O64 Zn43 2.019 . S
H65 C58 0.930 . S
H66 C45 0.930 . S
H67 C57 0.930 1_545 S
Zn68 N72 2.020 . S
Zn68 O76 2.019 . S
Zn68 N78 2.119 . S
Zn68 O86 1.975 . S
C69 N70 1.334 . S
C69 N73 1.336 . S
N70 C69 1.334 . S
N70 C71 1.334 . S
C71 N70 1.334 . S
C71 N72 1.336 . S
N72 Zn68 2.020 . S
N72 C71 1.336 . S
N72 N73 1.354 . S
N73 C69 1.336 . S
N73 N72 1.354 . S
N73 Zn77 2.020 . S
C74 O75 1.244 . S
C74 O98 1.257 . S
O75 C74 1.244 . S
O76 Zn68 2.019 . S
O76 C96 1.257 . S
Zn77 N73 2.020 . S
Zn77 O84 1.975 . S
Zn77 N93 2.119 . S
Zn77 O98 2.019 . S
N78 Zn68 2.119 . S
N78 C80 1.334 . S
N78 C81 1.328 . S
C79 C80 1.391 . S
C79 N82 1.329 . S
C79 H100 0.930 . S
C80 N78 1.334 . S
C80 C79 1.391 . S
C80 H87 0.930 . S
C81 N78 1.328 . S
C81 C83 1.392 . S
C81 H88 0.930 . S
N82 C79 1.329 . S
N82 C83 1.331 . S
C83 C81 1.392 . S
C83 N82 1.331 . S
O84 Zn77 1.975 . S
O84 C85 1.252 . S
C85 O84 1.252 . S
C85 O86 1.252 . S
O86 Zn68 1.975 . S
O86 C85 1.252 . S
H87 C80 0.930 . S
H88 C81 0.930 . S
C89 C90 1.392 . S
C89 N93 1.328 . S
C89 H95 0.930 . S
C90 C89 1.392 . S
C90 N94 1.331 . S
C91 C92 1.391 . S
C91 N94 1.329 . S
C91 H101 0.930 . S
C92 C91 1.391 . S
C92 N93 1.334 . S
C92 H99 0.930 . S
N93 Zn77 2.119 . S
N93 C89 1.328 . S
N93 C92 1.334 . S
N94 C90 1.331 . S
N94 C91 1.329 . S
H95 C89 0.930 . S
C96 O76 1.257 . S
C96 O97 1.244 . S
O97 C96 1.244 . S
O98 C74 1.257 . S
O98 Zn77 2.019 . S
H99 C92 0.930 . S
H100 C79 0.930 . S
H101 C91 0.930 . S
Zn102 N106 2.020 . S
Zn102 O110 2.019 . S
Zn102 N112 2.119 . S
Zn102 O120 1.975 1_545 S
C103 N104 1.334 . S
C103 N107 1.336 . S
N104 C103 1.334 . S
N104 C105 1.334 . S
C105 N104 1.334 . S
C105 N106 1.336 . S
N106 Zn102 2.020 . S
N106 C105 1.336 . S
N106 N107 1.354 . S
N107 C103 1.336 . S
N107 N106 1.354 . S
N107 Zn111 2.020 . S
C108 O109 1.244 . S
C108 O132 1.257 . S
O109 C108 1.244 . S
O110 Zn102 2.019 . S
O110 C130 1.257 . S
Zn111 N107 2.020 . S
Zn111 O118 1.975 . S
Zn111 N127 2.119 . S
Zn111 O132 2.019 . S
N112 Zn102 2.119 . S
N112 C114 1.334 . S
N112 C115 1.328 . S
C113 C114 1.391 . S
C113 N116 1.329 . S
C113 H134 0.930 . S
C114 N112 1.334 . S
C114 C113 1.391 . S
C114 H121 0.930 . S
C115 N112 1.328 . S
C115 C117 1.392 . S
C115 H122 0.930 . S
N116 C113 1.329 . S
N116 C117 1.331 . S
C117 C115 1.392 . S
C117 N116 1.331 . S
O118 Zn111 1.975 . S
O118 C119 1.252 1_545 S
C119 O118 1.252 1_565 S
C119 O120 1.252 . S
O120 Zn102 1.975 1_565 S
O120 C119 1.252 . S
H121 C114 0.930 . S
H122 C115 0.930 . S
C123 C124 1.392 . S
C123 N127 1.328 . S
C123 H129 0.930 . S
C124 C123 1.392 . S
C124 N128 1.331 . S
C125 C126 1.391 . S
C125 N128 1.329 . S
C125 H135 0.930 . S
C126 C125 1.391 . S
C126 N127 1.334 . S
C126 H133 0.930 . S
N127 Zn111 2.119 . S
N127 C123 1.328 . S
N127 C126 1.334 . S
N128 C124 1.331 . S
N128 C125 1.329 . S
H129 C123 0.930 . S
C130 O110 1.257 . S
C130 O131 1.244 . S
O131 C130 1.244 . S
O132 C108 1.257 . S
O132 Zn111 2.019 . S
H133 C126 0.930 . S
H134 C113 0.930 . S
H135 C125 0.930 . S
Zn136 N140 2.020 . S
Zn136 O144 2.019 . S
Zn136 N146 2.119 . S
Zn136 O154 1.975 . S
C137 N138 1.334 . S
C137 N141 1.336 . S
N138 C137 1.334 . S
N138 C139 1.334 . S
C139 N138 1.334 . S
C139 N140 1.336 . S
N140 Zn136 2.020 . S
N140 C139 1.336 . S
N140 N141 1.354 . S
N141 C137 1.336 . S
N141 N140 1.354 . S
N141 Zn145 2.020 . S
C142 O143 1.244 . S
C142 O166 1.257 . S
O143 C142 1.244 . S
O144 Zn136 2.019 . S
O144 C164 1.257 1_455 S
Zn145 N141 2.020 . S
Zn145 O152 1.975 . S
Zn145 N161 2.119 . S
Zn145 O166 2.019 . S
N146 Zn136 2.119 . S
N146 C148 1.334 . S
N146 C149 1.328 . S
C147 C148 1.391 . S
C147 N150 1.329 . S
C147 H168 0.930 . S
C148 N146 1.334 . S
C148 C147 1.391 . S
C148 H155 0.930 . S
C149 N146 1.328 . S
C149 C151 1.392 . S
C149 H156 0.930 . S
N150 C147 1.329 . S
N150 C151 1.331 . S
C151 C149 1.392 . S
C151 N150 1.331 . S
O152 Zn145 1.975 . S
O152 C153 1.252 . S
C153 O152 1.252 . S
C153 O154 1.252 . S
O154 Zn136 1.975 . S
O154 C153 1.252 . S
H155 C148 0.930 . S
H156 C149 0.930 . S
C157 C158 1.392 . S
C157 N161 1.328 . S
C157 H163 0.930 . S
C158 C157 1.392 . S
C158 N162 1.331 . S
C159 C160 1.391 . S
C159 N162 1.329 . S
C159 H169 0.930 . S
C160 C159 1.391 . S
C160 N161 1.334 . S
C160 H167 0.930 . S
N161 Zn145 2.119 . S
N161 C157 1.328 . S
N161 C160 1.334 . S
N162 C158 1.331 . S
N162 C159 1.329 . S
H163 C157 0.930 . S
C164 O144 1.257 1_655 S
C164 O165 1.244 1_655 S
O165 C164 1.244 1_455 S
O166 C142 1.257 . S
O166 Zn145 2.019 . S
H167 C160 0.930 . S
H168 C147 0.930 . S
H169 C159 0.930 . S
Zn170 N174 2.020 . S
Zn170 O178 2.019 . S
Zn170 N180 2.119 . S
Zn170 O188 1.975 . S
C171 N172 1.334 . S
C171 N175 1.336 . S
N172 C171 1.334 . S
N172 C173 1.334 . S
C173 N172 1.334 . S
C173 N174 1.336 . S
N174 Zn170 2.020 . S
N174 C173 1.336 . S
N174 N175 1.354 . S
N175 C171 1.336 . S
N175 N174 1.354 . S
N175 Zn179 2.020 . S
C176 O177 1.244 . S
C176 O200 1.257 . S
O177 C176 1.244 . S
O178 Zn170 2.019 . S
O178 C198 1.257 . S
Zn179 N175 2.020 . S
Zn179 O186 1.975 . S
Zn179 N195 2.119 . S
Zn179 O200 2.019 . S
N180 Zn170 2.119 . S
N180 C182 1.334 . S
N180 C183 1.328 . S
C181 C182 1.391 . S
C181 N184 1.329 . S
C181 H202 0.930 . S
C182 N180 1.334 . S
C182 C181 1.391 . S
C182 H189 0.930 . S
C183 N180 1.328 . S
C183 C185 1.392 . S
C183 H190 0.930 . S
N184 C181 1.329 . S
N184 C185 1.331 . S
C185 C183 1.392 . S
C185 N184 1.331 . S
O186 Zn179 1.975 . S
O186 C187 1.252 . S
C187 O186 1.252 . S
C187 O188 1.252 . S
O188 Zn170 1.975 . S
O188 C187 1.252 . S
H189 C182 0.930 . S
H190 C183 0.930 . S
C191 C192 1.392 . S
C191 N195 1.328 . S
C191 H197 0.930 . S
C192 C191 1.392 . S
C192 N196 1.331 . S
C193 C194 1.391 . S
C193 N196 1.329 . S
C193 H203 0.930 . S
C194 C193 1.391 . S
C194 N195 1.334 . S
C194 H201 0.930 . S
N195 Zn179 2.119 . S
N195 C191 1.328 . S
N195 C194 1.334 . S
N196 C192 1.331 . S
N196 C193 1.329 . S
H197 C191 0.930 . S
C198 O178 1.257 . S
C198 O199 1.244 . S
O199 C198 1.244 . S
O200 C176 1.257 . S
O200 Zn179 2.019 . S
H201 C194 0.930 . S
H202 C181 0.930 . S
H203 C193 0.930 . S
Zn204 N208 2.020 . S
Zn204 O212 2.019 . S
Zn204 N214 2.119 . S
Zn204 O222 1.975 . S
C205 N206 1.334 . S
C205 N209 1.336 . S
N206 C205 1.334 . S
N206 C207 1.334 . S
C207 N206 1.334 . S
C207 N208 1.336 . S
N208 Zn204 2.020 . S
N208 C207 1.336 . S
N208 N209 1.354 . S
N209 C205 1.336 . S
N209 N208 1.354 . S
N209 Zn213 2.020 . S
C210 O211 1.244 . S
C210 O234 1.257 . S
O211 C210 1.244 . S
O212 Zn204 2.019 . S
O212 C232 1.257 . S
Zn213 N209 2.020 . S
Zn213 O220 1.975 . S
Zn213 N229 2.119 . S
Zn213 O234 2.019 . S
N214 Zn204 2.119 . S
N214 C216 1.334 . S
N214 C217 1.328 . S
C215 C216 1.391 . S
C215 N218 1.329 . S
C215 H236 0.930 . S
C216 N214 1.334 . S
C216 C215 1.391 . S
C216 H223 0.930 . S
C217 N214 1.328 . S
C217 C219 1.392 . S
C217 H224 0.930 . S
N218 C215 1.329 . S
N218 C219 1.331 . S
C219 C217 1.392 . S
C219 N218 1.331 . S
O220 Zn213 1.975 . S
O220 C221 1.252 . S
C221 O220 1.252 . S
C221 O222 1.252 . S
O222 Zn204 1.975 . S
O222 C221 1.252 . S
H223 C216 0.930 . S
H224 C217 0.930 . S
C225 C226 1.392 . S
C225 N229 1.328 . S
C225 H231 0.930 . S
C226 C225 1.392 . S
C226 N230 1.331 . S
C227 C228 1.391 . S
C227 N230 1.329 . S
C227 H237 0.930 . S
C228 C227 1.391 . S
C228 N229 1.334 . S
C228 H235 0.930 . S
N229 Zn213 2.119 . S
N229 C225 1.328 . S
N229 C228 1.334 . S
N230 C226 1.331 . S
N230 C227 1.329 . S
H231 C225 0.930 . S
C232 O212 1.257 . S
C232 O233 1.244 . S
O233 C232 1.244 . S
O234 C210 1.257 . S
O234 Zn213 2.019 . S
H235 C228 0.930 . S
H236 C215 0.930 . S
H237 C227 0.930 . S
Zn238 N242 2.020 . S
Zn238 O246 2.019 . S
Zn238 N248 2.119 . S
Zn238 O256 1.975 . S
C239 N240 1.334 . S
C239 N243 1.336 . S
N240 C239 1.334 . S
N240 C241 1.334 . S
C241 N240 1.334 . S
C241 N242 1.336 . S
N242 Zn238 2.020 . S
N242 C241 1.336 . S
N242 N243 1.354 . S
N243 C239 1.336 . S
N243 N242 1.354 . S
N243 Zn247 2.020 . S
C244 O245 1.244 . S
C244 O268 1.257 . S
O245 C244 1.244 . S
O246 Zn238 2.019 . S
O246 C266 1.257 . S
Zn247 N243 2.020 . S
Zn247 O254 1.975 . S
Zn247 N263 2.119 . S
Zn247 O268 2.019 1_545 S
N248 Zn238 2.119 . S
N248 C250 1.334 . S
N248 C251 1.328 . S
C249 C250 1.391 . S
C249 N252 1.329 . S
C249 H270 0.930 1_545 S
C250 N248 1.334 . S
C250 C249 1.391 . S
C250 H257 0.930 . S
C251 N248 1.328 . S
C251 C253 1.392 . S
C251 H258 0.930 . S
N252 C249 1.329 . S
N252 C253 1.331 . S
C253 C251 1.392 . S
C253 N252 1.331 . S
O254 Zn247 1.975 . S
O254 C255 1.252 . S
C255 O254 1.252 . S
C255 O256 1.252 . S
O256 Zn238 1.975 . S
O256 C255 1.252 . S
H257 C250 0.930 . S
H258 C251 0.930 . S
C259 C260 1.392 . S
C259 N263 1.328 . S
C259 H265 0.930 1_545 S
C260 C259 1.392 . S
C260 N264 1.331 . S
C261 C262 1.391 . S
C261 N264 1.329 . S
C261 H271 0.930 . S
C262 C261 1.391 . S
C262 N263 1.334 . S
C262 H269 0.930 . S
N263 Zn247 2.119 . S
N263 C259 1.328 . S
N263 C262 1.334 . S
N264 C260 1.331 . S
N264 C261 1.329 . S
H265 C259 0.930 1_565 S
C266 O246 1.257 . S
C266 O267 1.244 . S
O267 C266 1.244 . S
O268 C244 1.257 . S
O268 Zn247 2.019 1_565 S
H269 C262 0.930 . S
H270 C249 0.930 1_565 S
H271 C261 0.930 . S
Zn272 N276 2.020 . S
Zn272 O280 2.019 . S
Zn272 N282 2.119 . S
Zn272 O290 1.975 . S
C273 N274 1.334 . S
C273 N277 1.336 . S
N274 C273 1.334 . S
N274 C275 1.334 . S
C275 N274 1.334 . S
C275 N276 1.336 . S
N276 Zn272 2.020 . S
N276 C275 1.336 . S
N276 N277 1.354 . S
N277 C273 1.336 . S
N277 N276 1.354 . S
N277 Zn281 2.020 . S
C278 O279 1.244 . S
C278 O302 1.257 . S
O279 C278 1.244 . S
O280 Zn272 2.019 . S
O280 C300 1.257 1_655 S
Zn281 N277 2.020 . S
Zn281 O288 1.975 . S
Zn281 N297 2.119 . S
Zn281 O302 2.019 . S
N282 Zn272 2.119 . S
N282 C284 1.334 . S
N282 C285 1.328 . S
C283 C284 1.391 . S
C283 N286 1.329 . S
C283 H304 0.930 . S
C284 N282 1.334 . S
C284 C283 1.391 . S
C284 H291 0.930 . S
C285 N282 1.328 . S
C285 C287 1.392 . S
C285 H292 0.930 . S
N286 C283 1.329 . S
N286 C287 1.331 . S
C287 C285 1.392 . S
C287 N286 1.331 . S
O288 Zn281 1.975 . S
O288 C289 1.252 . S
C289 O288 1.252 . S
C289 O290 1.252 . S
O290 Zn272 1.975 . S
O290 C289 1.252 . S
H291 C284 0.930 . S
H292 C285 0.930 . S
C293 C294 1.392 . S
C293 N297 1.328 . S
C293 H299 0.930 . S
C294 C293 1.392 . S
C294 N298 1.331 . S
C295 C296 1.391 . S
C295 N298 1.329 . S
C295 H305 0.930 . S
C296 C295 1.391 . S
C296 N297 1.334 . S
C296 H303 0.930 . S
N297 Zn281 2.119 . S
N297 C293 1.328 . S
N297 C296 1.334 . S
N298 C294 1.331 . S
N298 C295 1.329 . S
H299 C293 0.930 . S
C300 O280 1.257 1_455 S
C300 O301 1.244 1_455 S
O301 C300 1.244 1_655 S
O302 C278 1.257 . S
O302 Zn281 2.019 . S
H303 C296 0.930 . S
H304 C283 0.930 . S
H305 C295 0.930 . S
Zn306 N310 2.020 . S
Zn306 O314 2.019 . S
Zn306 N316 2.119 . S
Zn306 O324 1.975 1_545 S
C307 N308 1.334 . S
C307 N311 1.336 . S
N308 C307 1.334 . S
N308 C309 1.334 . S
C309 N308 1.334 . S
C309 N310 1.336 . S
N310 Zn306 2.020 . S
N310 C309 1.336 . S
N310 N311 1.354 . S
N311 C307 1.336 . S
N311 N310 1.354 . S
N311 Zn315 2.020 . S
C312 O313 1.245 1_565 S
C312 O336 1.256 . S
O313 C312 1.245 1_545 S
O314 Zn306 2.019 . S
O314 C334 1.257 . S
Zn315 N311 2.020 . S
Zn315 O322 1.975 1_545 S
Zn315 N331 2.119 . S
Zn315 O336 2.019 1_545 S
N316 Zn306 2.119 . S
N316 C318 1.334 . S
N316 C319 1.328 . S
C317 C318 1.391 . S
C317 N320 1.329 . S
C317 H338 0.930 1_545 S
C318 N316 1.334 . S
C318 C317 1.391 . S
C318 H325 0.930 . S
C319 N316 1.328 . S
C319 C321 1.392 . S
C319 H326 0.930 . S
N320 C317 1.329 . S
N320 C321 1.331 . S
C321 C319 1.392 . S
C321 N320 1.331 . S
O322 Zn315 1.975 1_565 S
O322 C323 1.252 . S
C323 O322 1.252 . S
C323 O324 1.252 . S
O324 Zn306 1.975 1_565 S
O324 C323 1.252 . S
H325 C318 0.930 . S
H326 C319 0.930 . S
C327 C328 1.392 . S
C327 N331 1.328 . S
C327 H333 0.930 . S
C328 C327 1.392 . S
C328 N332 1.331 . S
C329 C330 1.391 . S
C329 N332 1.329 . S
C329 H339 0.930 . S
C330 C329 1.391 . S
C330 N331 1.334 . S
C330 H337 0.930 . S
N331 Zn315 2.119 . S
N331 C327 1.328 . S
N331 C330 1.334 . S
N332 C328 1.331 . S
N332 C329 1.329 . S
H333 C327 0.930 . S
C334 O314 1.257 . S
C334 O335 1.244 . S
O335 C334 1.244 . S
O336 C312 1.256 . S
O336 Zn315 2.019 1_565 S
H337 C330 0.930 . S
H338 C317 0.930 1_565 S
H339 C329 0.930 . S
Zn340 N344 2.020 . S
Zn340 O348 2.019 . S
Zn340 N350 2.119 . S
Zn340 O358 1.975 . S
C341 N342 1.334 . S
C341 N345 1.336 . S
N342 C341 1.334 . S
N342 C343 1.334 . S
C343 N342 1.334 . S
C343 N344 1.336 . S
N344 Zn340 2.020 . S
N344 C343 1.336 . S
N344 N345 1.354 . S
N345 C341 1.336 . S
N345 N344 1.354 . S
N345 Zn349 2.020 . S
C346 O347 1.244 . S
C346 O370 1.257 . S
O347 C346 1.244 . S
O348 Zn340 2.019 . S
O348 C368 1.257 . S
Zn349 N345 2.020 . S
Zn349 O356 1.975 . S
Zn349 N365 2.119 . S
Zn349 O370 2.019 . S
N350 Zn340 2.119 . S
N350 C352 1.334 . S
N350 C353 1.328 . S
C351 C352 1.391 . S
C351 N354 1.329 . S
C351 H372 0.930 . S
C352 N350 1.334 . S
C352 C351 1.391 . S
C352 H359 0.930 . S
C353 N350 1.328 . S
C353 C355 1.392 . S
C353 H360 0.930 . S
N354 C351 1.329 . S
N354 C355 1.331 . S
C355 C353 1.392 . S
C355 N354 1.331 . S
O356 Zn349 1.975 . S
O356 C357 1.252 . S
C357 O356 1.252 . S
C357 O358 1.252 . S
O358 Zn340 1.975 . S
O358 C357 1.252 . S
H359 C352 0.930 . S
H360 C353 0.930 . S
C361 C362 1.392 . S
C361 N365 1.328 . S
C361 H367 0.930 . S
C362 C361 1.392 . S
C362 N366 1.331 . S
C363 C364 1.391 . S
C363 N366 1.329 . S
C363 H373 0.930 . S
C364 C363 1.391 . S
C364 N365 1.334 . S
C364 H371 0.930 . S
N365 Zn349 2.119 . S
N365 C361 1.328 . S
N365 C364 1.334 . S
N366 C362 1.331 . S
N366 C363 1.329 . S
H367 C361 0.930 . S
C368 O348 1.257 . S
C368 O369 1.244 . S
O369 C368 1.244 . S
O370 C346 1.257 . S
O370 Zn349 2.019 . S
H371 C364 0.930 . S
H372 C351 0.930 . S
H373 C363 0.930 . S
Zn374 N378 2.020 . S
Zn374 O382 2.019 . S
Zn374 N384 2.119 . S
Zn374 O392 1.975 1_565 S
C375 N376 1.334 . S
C375 N379 1.336 . S
N376 C375 1.334 . S
N376 C377 1.334 . S
C377 N376 1.334 . S
C377 N378 1.336 . S
N378 Zn374 2.020 . S
N378 C377 1.336 . S
N378 N379 1.354 . S
N379 C375 1.336 . S
N379 N378 1.354 . S
N379 Zn383 2.020 . S
C380 O381 1.244 . S
C380 O404 1.257 . S
O381 C380 1.244 . S
O382 Zn374 2.019 . S
O382 C402 1.257 . S
Zn383 N379 2.020 . S
Zn383 O390 1.986 . S
Zn383 N399 2.119 . S
Zn383 O404 2.019 . S
N384 Zn374 2.119 . S
N384 C386 1.334 . S
N384 C387 1.328 . S
C385 C386 1.391 . S
C385 N388 1.329 . S
C385 H406 0.930 . S
C386 N384 1.334 . S
C386 C385 1.391 . S
C386 H393 0.930 . S
C387 N384 1.328 . S
C387 C389 1.391 1_565 S
C387 H394 0.930 . S
N388 C385 1.329 . S
N388 C389 1.330 1_565 S
C389 C387 1.391 1_545 S
C389 N388 1.330 1_545 S
O390 Zn383 1.986 . S
O390 C391 1.245 1_565 S
C391 O390 1.245 1_545 S
C391 O392 1.252 . S
O392 Zn374 1.975 1_545 S
O392 C391 1.252 . S
H393 C386 0.930 . S
H394 C387 0.930 . S
C395 C396 1.392 . S
C395 N399 1.328 . S
C395 H401 0.930 . S
C396 C395 1.392 . S
C396 N400 1.331 . S
C397 C398 1.391 . S
C397 N400 1.329 . S
C397 H407 0.930 . S
C398 C397 1.391 . S
C398 N399 1.334 . S
C398 H405 0.930 . S
N399 Zn383 2.119 . S
N399 C395 1.328 . S
N399 C398 1.334 . S
N400 C396 1.331 . S
N400 C397 1.329 . S
H401 C395 0.930 . S
C402 O382 1.257 . S
C402 O403 1.244 . S
O403 C402 1.244 . S
O404 C380 1.257 . S
O404 Zn383 2.019 . S
H405 C398 0.930 . S
H406 C385 0.930 . S
H407 C397 0.930 . S
Zn408 N412 2.020 . S
Zn408 O416 2.019 . S
Zn408 N418 2.119 . S
Zn408 O426 1.975 . S
C409 N410 1.334 . S
C409 N413 1.336 . S
N410 C409 1.334 . S
N410 C411 1.334 . S
C411 N410 1.334 . S
C411 N412 1.336 . S
N412 Zn408 2.020 . S
N412 C411 1.336 . S
N412 N413 1.354 . S
N413 C409 1.336 . S
N413 N412 1.354 . S
N413 Zn417 2.020 . S
C414 O415 1.244 . S
C414 O438 1.257 . S
O415 C414 1.244 . S
O416 Zn408 2.019 . S
O416 C436 1.257 1_655 S
Zn417 N413 2.020 . S
Zn417 O424 1.975 . S
Zn417 N433 2.119 . S
Zn417 O438 2.019 . S
N418 Zn408 2.119 . S
N418 C420 1.334 . S
N418 C421 1.328 . S
C419 C420 1.391 . S
C419 N422 1.329 . S
C419 H440 0.930 . S
C420 N418 1.334 . S
C420 C419 1.391 . S
C420 H427 0.930 . S
C421 N418 1.328 . S
C421 C423 1.392 . S
C421 H428 0.930 . S
N422 C419 1.329 . S
N422 C423 1.331 . S
C423 C421 1.392 . S
C423 N422 1.331 . S
O424 Zn417 1.975 . S
O424 C425 1.252 . S
C425 O424 1.252 . S
C425 O426 1.252 . S
O426 Zn408 1.975 . S
O426 C425 1.252 . S
H427 C420 0.930 . S
H428 C421 0.930 . S
C429 C430 1.392 . S
C429 N433 1.328 . S
C429 H435 0.930 . S
C430 C429 1.392 . S
C430 N434 1.331 . S
C431 C432 1.391 . S
C431 N434 1.329 . S
C431 H441 0.930 . S
C432 C431 1.391 . S
C432 N433 1.334 . S
C432 H439 0.930 . S
N433 Zn417 2.119 . S
N433 C429 1.328 . S
N433 C432 1.334 . S
N434 C430 1.331 . S
N434 C431 1.329 . S
H435 C429 0.930 . S
C436 O416 1.257 1_455 S
C436 O437 1.244 1_455 S
O437 C436 1.244 1_655 S
O438 C414 1.257 . S
O438 Zn417 2.019 . S
H439 C432 0.930 . S
H440 C419 0.930 . S
H441 C431 0.930 . S
Zn442 N446 2.020 . S
Zn442 O450 2.019 . S
Zn442 N452 2.119 . S
Zn442 O460 1.975 1_545 S
C443 N444 1.334 . S
C443 N447 1.336 . S
N444 C443 1.334 . S
N444 C445 1.334 . S
C445 N444 1.334 . S
C445 N446 1.336 . S
N446 Zn442 2.020 . S
N446 C445 1.336 . S
N446 N447 1.354 . S
N447 C443 1.336 . S
N447 N446 1.354 . S
N447 Zn451 2.020 . S
C448 O449 1.244 . S
C448 O472 1.257 . S
O449 C448 1.244 . S
O450 Zn442 2.019 . S
O450 C470 1.257 . S
Zn451 N447 2.020 . S
Zn451 O458 1.975 . S
Zn451 N467 2.119 . S
Zn451 O472 2.019 . S
N452 Zn442 2.119 . S
N452 C454 1.334 . S
N452 C455 1.328 . S
C453 C454 1.391 . S
C453 N456 1.329 . S
C453 H474 0.930 . S
C454 N452 1.334 . S
C454 C453 1.391 . S
C454 H461 0.930 . S
C455 N452 1.328 . S
C455 C457 1.392 . S
C455 H462 0.930 . S
N456 C453 1.329 . S
N456 C457 1.331 . S
C457 C455 1.392 . S
C457 N456 1.331 . S
O458 Zn451 1.975 . S
O458 C459 1.252 1_545 S
C459 O458 1.252 1_565 S
C459 O460 1.252 . S
O460 Zn442 1.975 1_565 S
O460 C459 1.252 . S
H461 C454 0.930 . S
H462 C455 0.930 . S
C463 C464 1.392 . S
C463 N467 1.328 . S
C463 H469 0.930 . S
C464 C463 1.392 . S
C464 N468 1.331 . S
C465 C466 1.391 . S
C465 N468 1.329 . S
C465 H475 0.930 . S
C466 C465 1.391 . S
C466 N467 1.334 . S
C466 H473 0.930 . S
N467 Zn451 2.119 . S
N467 C463 1.328 . S
N467 C466 1.334 . S
N468 C464 1.331 . S
N468 C465 1.329 . S
H469 C463 0.930 . S
C470 O450 1.257 . S
C470 O471 1.244 . S
O471 C470 1.244 . S
O472 C448 1.257 . S
O472 Zn451 2.019 . S
H473 C466 0.930 . S
H474 C453 0.930 . S
H475 C465 0.930 . S
Zn476 N480 2.020 . S
Zn476 O484 2.019 . S
Zn476 N486 2.119 . S
Zn476 O494 1.975 . S
C477 N478 1.334 . S
C477 N481 1.336 . S
N478 C477 1.334 . S
N478 C479 1.334 . S
C479 N478 1.334 . S
C479 N480 1.336 . S
N480 Zn476 2.020 . S
N480 C479 1.336 . S
N480 N481 1.354 . S
N481 C477 1.336 . S
N481 N480 1.354 . S
N481 Zn485 2.020 . S
C482 O483 1.244 . S
C482 O506 1.257 . S
O483 C482 1.244 . S
O484 Zn476 2.019 . S
O484 C504 1.257 . S
Zn485 N481 2.020 . S
Zn485 O492 1.975 . S
Zn485 N501 2.119 . S
Zn485 O506 2.019 . S
N486 Zn476 2.119 . S
N486 C488 1.334 . S
N486 C489 1.328 . S
C487 C488 1.391 . S
C487 N490 1.329 . S
C487 H508 0.930 . S
C488 N486 1.334 . S
C488 C487 1.391 . S
C488 H495 0.930 . S
C489 N486 1.328 . S
C489 C491 1.392 . S
C489 H496 0.930 . S
N490 C487 1.329 . S
N490 C491 1.331 . S
C491 C489 1.392 . S
C491 N490 1.331 . S
O492 Zn485 1.975 . S
O492 C493 1.252 . S
C493 O492 1.252 . S
C493 O494 1.252 . S
O494 Zn476 1.975 . S
O494 C493 1.252 . S
H495 C488 0.930 . S
H496 C489 0.930 . S
C497 C498 1.392 . S
C497 N501 1.328 . S
C497 H503 0.930 . S
C498 C497 1.392 . S
C498 N502 1.331 . S
C499 C500 1.391 . S
C499 N502 1.329 . S
C499 H509 0.930 . S
C500 C499 1.391 . S
C500 N501 1.334 . S
C500 H507 0.930 . S
N501 Zn485 2.119 . S
N501 C497 1.328 . S
N501 C500 1.334 . S
N502 C498 1.331 . S
N502 C499 1.329 . S
H503 C497 0.930 . S
C504 O484 1.257 . S
C504 O505 1.244 . S
O505 C504 1.244 . S
O506 C482 1.257 . S
O506 Zn485 2.019 . S
H507 C500 0.930 . S
H508 C487 0.930 . S
H509 C499 0.930 . S
Zn510 N514 2.020 . S
Zn510 O518 2.019 . S
Zn510 N520 2.119 . S
Zn510 O528 1.975 . S
C511 N512 1.334 . S
C511 N515 1.336 . S
N512 C511 1.334 . S
N512 C513 1.334 . S
C513 N512 1.334 . S
C513 N514 1.336 . S
N514 Zn510 2.020 . S
N514 C513 1.336 . S
N514 N515 1.354 . S
N515 C511 1.336 . S
N515 N514 1.354 . S
N515 Zn519 2.020 1_565 S
C516 O517 1.244 . S
C516 O540 1.257 . S
O517 C516 1.244 . S
O518 Zn510 2.019 . S
O518 C538 1.257 . S
Zn519 N515 2.020 1_545 S
Zn519 O526 1.975 1_545 S
Zn519 N535 2.119 1_545 S
Zn519 O540 2.019 . S
N520 Zn510 2.119 . S
N520 C522 1.334 . S
N520 C523 1.328 . S
C521 C522 1.391 . S
C521 N524 1.329 . S
C521 H542 0.930 1_565 S
C522 N520 1.334 . S
C522 C521 1.391 . S
C522 H529 0.930 . S
C523 N520 1.328 . S
C523 C525 1.392 . S
C523 H530 0.930 . S
N524 C521 1.329 . S
N524 C525 1.331 . S
C525 C523 1.392 . S
C525 N524 1.331 . S
O526 Zn519 1.975 1_565 S
O526 C527 1.252 . S
C527 O526 1.252 . S
C527 O528 1.252 . S
O528 Zn510 1.975 . S
O528 C527 1.252 . S
H529 C522 0.930 . S
H530 C523 0.930 . S
C531 C532 1.392 1_545 S
C531 N535 1.328 1_545 S
C531 H537 0.930 . S
C532 C531 1.392 1_565 S
C532 N536 1.331 . S
C533 C534 1.391 . S
C533 N536 1.329 . S
C533 H543 0.930 . S
C534 C533 1.391 . S
C534 N535 1.334 . S
C534 H541 0.930 . S
N535 Zn519 2.119 1_565 S
N535 C531 1.328 1_565 S
N535 C534 1.334 . S
N536 C532 1.331 . S
N536 C533 1.329 . S
H537 C531 0.930 . S
C538 O518 1.257 . S
C538 O539 1.244 . S
O539 C538 1.244 . S
O540 C516 1.257 . S
O540 Zn519 2.019 . S
H541 C534 0.930 . S
H542 C521 0.930 1_545 S
H543 C533 0.930 . S
C544 C545 1.363 1_655 S
C544 C550 1.379 . S
C544 N552 1.356 1_655 S
C545 C544 1.363 1_455 S
C545 C551 1.363 . S
C546 C547 1.363 . S
C546 C551 1.379 1_655 S
C546 N553 1.356 . S
C547 C546 1.363 . S
C547 C550 1.363 . S
N548 C550 1.356 . S
N548 H560 0.984 . S
N548 H561 0.985 . S
N549 C551 1.356 . S
N549 H554 0.984 . S
N549 H555 0.985 . S
C550 C544 1.379 . S
C550 C547 1.363 . S
C550 N548 1.356 . S
C551 C545 1.363 . S
C551 C546 1.379 1_455 S
C551 N549 1.356 . S
N552 C544 1.356 1_455 S
N552 H558 0.984 1_455 S
N552 H559 0.984 . S
N553 C546 1.356 . S
N553 H556 0.984 . S
N553 H557 0.985 . S
H554 N549 0.984 . S
H555 N549 0.985 . S
H556 N553 0.984 . S
H557 N553 0.985 . S
H558 N552 0.984 1_655 S
H559 N552 0.984 . S
H560 N548 0.984 . S
H561 N548 0.985 . S
C562 C563 1.363 1_455 S
C562 C568 1.379 . S
C562 N570 1.354 1_455 S
C563 C562 1.363 1_655 S
C563 C569 1.363 . S
C564 C565 1.363 . S
C564 C569 1.379 1_455 S
C564 N571 1.356 . S
C565 C564 1.363 . S
C565 C568 1.363 . S
N566 C568 1.356 . S
N566 H578 0.984 . S
N566 H579 0.985 . S
N567 C569 1.356 . S
N567 H572 0.984 . S
N567 H573 0.985 . S
C568 C562 1.379 . S
C568 C565 1.363 . S
C568 N566 1.356 . S
C569 C563 1.363 . S
C569 C564 1.379 1_655 S
C569 N567 1.356 . S
N570 C562 1.354 1_655 S
N570 H576 0.975 1_655 S
N570 H577 0.996 . S
N571 C564 1.356 . S
N571 H574 0.984 . S
N571 H575 0.985 1_455 S
H572 N567 0.984 . S
H573 N567 0.985 . S
H574 N571 0.984 . S
H575 N571 0.985 1_655 S
H576 N570 0.975 1_455 S
H577 N570 0.996 . S
H578 N566 0.984 . S
H579 N566 0.985 . S
C580 C581 1.363 . S
C580 C586 1.379 . S
C580 N588 1.356 . S
C581 C580 1.363 . S
C581 C587 1.363 . S
C582 C583 1.363 . S
C582 C587 1.379 . S
C582 N589 1.356 . S
C583 C582 1.363 . S
C583 C586 1.363 . S
N584 C586 1.356 . S
N584 H596 0.984 . S
N584 H597 0.985 . S
N585 C587 1.356 . S
N585 H590 0.984 . S
N585 H591 0.985 . S
C586 C580 1.379 . S
C586 C583 1.363 . S
C586 N584 1.356 . S
C587 C581 1.363 . S
C587 C582 1.379 . S
C587 N585 1.356 . S
N588 C580 1.356 . S
N588 H594 0.984 . S
N588 H595 0.984 . S
N589 C582 1.356 . S
N589 H592 0.984 . S
N589 H593 0.985 . S
H590 N585 0.984 . S
H591 N585 0.985 . S
H592 N589 0.984 . S
H593 N589 0.985 . S
H594 N588 0.984 . S
H595 N588 0.984 . S
H596 N584 0.984 . S
H597 N584 0.985 . S
C598 C599 1.363 . S
C598 C604 1.379 . S
C598 N606 1.356 . S
C599 C598 1.363 . S
C599 C605 1.363 . S
C600 C601 1.363 . S
C600 C605 1.379 . S
C600 N607 1.356 . S
C601 C600 1.363 . S
C601 C604 1.363 . S
N602 C604 1.356 . S
N602 H614 0.984 . S
N602 H615 0.985 . S
N603 C605 1.356 . S
N603 H608 0.984 . S
N603 H609 0.985 . S
C604 C598 1.379 . S
C604 C601 1.363 . S
C604 N602 1.356 . S
C605 C599 1.363 . S
C605 C600 1.379 . S
C605 N603 1.356 . S
N606 C598 1.356 . S
N606 H612 0.984 . S
N606 H613 0.984 . S
N607 C600 1.356 . S
N607 H610 0.984 . S
N607 H611 0.985 . S
H608 N603 0.984 . S
H609 N603 0.985 . S
H610 N607 0.984 . S
H611 N607 0.985 . S
H612 N606 0.984 . S
H613 N606 0.984 . S
H614 N602 0.984 . S
H615 N602 0.985 . S
C616 C617 1.363 . S
C616 C622 1.379 1_655 S
C616 N624 1.356 . S
C617 C616 1.363 . S
C617 C623 1.363 . S
C618 C619 1.363 1_655 S
C618 C623 1.379 . S
C618 N625 1.356 . S
C619 C618 1.363 1_455 S
C619 C622 1.363 . S
N620 C622 1.356 . S
N620 H632 0.984 . S
N620 H633 0.985 . S
N621 C623 1.356 . S
N621 H626 0.984 . S
N621 H627 0.985 . S
C622 C616 1.379 1_455 S
C622 C619 1.363 . S
C622 N620 1.356 . S
C623 C617 1.363 . S
C623 C618 1.379 . S
C623 N621 1.356 . S
N624 C616 1.356 . S
N624 H630 0.984 . S
N624 H631 0.984 . S
N625 C618 1.356 . S
N625 H628 0.984 1_655 S
N625 H629 0.985 . S
H626 N621 0.984 . S
H627 N621 0.985 . S
H628 N625 0.984 1_455 S
H629 N625 0.985 . S
H630 N624 0.984 . S
H631 N624 0.984 . S
H632 N620 0.984 . S
H633 N620 0.985 . S
C634 C635 1.363 . S
C634 C640 1.379 1_455 S
C634 N642 1.356 . S
C635 C634 1.363 . S
C635 C641 1.363 . S
C636 C637 1.363 1_455 S
C636 C641 1.379 . S
C636 N643 1.356 1_455 S
C637 C636 1.363 1_655 S
C637 C640 1.363 . S
N638 C640 1.356 . S
N638 H650 0.984 . S
N638 H651 0.985 . S
N639 C641 1.356 . S
N639 H644 0.984 . S
N639 H645 0.985 . S
C640 C634 1.379 1_655 S
C640 C637 1.363 . S
C640 N638 1.356 . S
C641 C635 1.363 . S
C641 C636 1.379 . S
C641 N639 1.356 . S
N642 C634 1.356 . S
N642 H648 0.984 . S
N642 H649 0.984 . S
N643 C636 1.356 1_655 S
N643 H646 0.984 . S
N643 H647 0.985 1_655 S
H644 N639 0.984 . S
H645 N639 0.985 . S
H646 N643 0.984 . S
H647 N643 0.985 1_455 S
H648 N642 0.984 . S
H649 N642 0.984 . S
H650 N638 0.984 . S
H651 N638 0.985 . S
C652 C653 1.363 . S
C652 C658 1.379 . S
C652 N660 1.356 . S
C653 C652 1.363 . S
C653 C659 1.363 . S
C654 C655 1.363 . S
C654 C659 1.379 . S
C654 N661 1.356 . S
C655 C654 1.363 . S
C655 C658 1.363 . S
N656 C658 1.356 . S
N656 H668 0.984 . S
N656 H669 0.985 . S
N657 C659 1.356 . S
N657 H662 0.984 . S
N657 H663 0.985 . S
C658 C652 1.379 . S
C658 C655 1.363 . S
C658 N656 1.356 . S
C659 C653 1.363 . S
C659 C654 1.379 . S
C659 N657 1.356 . S
N660 C652 1.356 . S
N660 H666 0.984 . S
N660 H667 0.984 . S
N661 C654 1.356 . S
N661 H664 0.984 . S
N661 H665 0.985 . S
H662 N657 0.984 . S
H663 N657 0.985 . S
H664 N661 0.984 . S
H665 N661 0.985 . S
H666 N660 0.984 . S
H667 N660 0.984 . S
H668 N656 0.984 . S
H669 N656 0.985 . S
C670 C671 1.363 . S
C670 C676 1.379 . S
C670 N678 1.356 . S
C671 C670 1.363 . S
C671 C677 1.363 . S
C672 C673 1.363 . S
C672 C677 1.379 . S
C672 N679 1.356 . S
C673 C672 1.363 . S
C673 C676 1.363 . S
N674 C676 1.356 . S
N674 H686 0.984 . S
N674 H687 0.985 . S
N675 C677 1.356 . S
N675 H680 0.984 . S
N675 H681 0.985 . S
C676 C670 1.379 . S
C676 C673 1.363 . S
C676 N674 1.356 . S
C677 C671 1.363 . S
C677 C672 1.379 . S
C677 N675 1.356 . S
N678 C670 1.356 . S
N678 H684 0.984 . S
N678 H685 0.984 . S
N679 C672 1.356 . S
N679 H682 0.984 . S
N679 H683 0.985 . S
H680 N675 0.984 . S
H681 N675 0.985 . S
H682 N679 0.984 . S
H683 N679 0.985 . S
H684 N678 0.984 . S
H685 N678 0.984 . S
H686 N674 0.984 . S
H687 N674 0.985 . S
C688 C689 1.363 . S
C688 C694 1.379 . S
C688 N696 1.356 . S
C689 C688 1.363 . S
C689 C695 1.363 . S
C690 C691 1.363 . S
C690 C695 1.379 . S
C690 N697 1.356 . S
C691 C690 1.363 . S
C691 C694 1.363 . S
N692 C694 1.356 . S
N692 H704 0.984 . S
N692 H705 0.985 . S
N693 C695 1.356 . S
N693 H698 0.984 . S
N693 H699 0.985 . S
C694 C688 1.379 . S
C694 C691 1.363 . S
C694 N692 1.356 . S
C695 C689 1.363 . S
C695 C690 1.379 . S
C695 N693 1.356 . S
N696 C688 1.356 . S
N696 H702 0.984 . S
N696 H703 0.984 . S
N697 C690 1.356 . S
N697 H700 0.984 . S
N697 H701 0.985 . S
H698 N693 0.984 . S
H699 N693 0.985 . S
H700 N697 0.984 . S
H701 N697 0.985 . S
H702 N696 0.984 . S
H703 N696 0.984 . S
H704 N692 0.984 . S
H705 N692 0.985 . S
C706 C707 1.363 . S
C706 C712 1.379 . S
C706 N714 1.356 1_455 S
C707 C706 1.363 . S
C707 C713 1.363 . S
C708 C709 1.363 . S
C708 C713 1.379 . S
C708 N715 1.356 . S
C709 C708 1.363 . S
C709 C712 1.363 . S
N710 C712 1.356 . S
N710 H722 0.984 . S
N710 H723 0.985 . S
N711 C713 1.356 1_665 S
N711 H716 0.984 . S
N711 H717 0.985 . S
C712 C706 1.379 . S
C712 C709 1.363 . S
C712 N710 1.356 . S
C713 C707 1.363 . S
C713 C708 1.379 . S
C713 N711 1.356 1_445 S
N714 C706 1.356 1_655 S
N714 H720 0.984 1_655 S
N714 H721 0.984 1_545 S
N715 C708 1.356 . S
N715 H718 0.984 . S
N715 H719 0.985 . S
H716 N711 0.984 . S
H717 N711 0.985 . S
H718 N715 0.984 . S
H719 N715 0.985 . S
H720 N714 0.984 1_455 S
H721 N714 0.984 1_565 S
H722 N710 0.984 . S
H723 N710 0.985 . S
C724 C725 1.363 . S
C724 C730 1.379 . S
C724 N732 1.356 . S
C725 C724 1.363 . S
C725 C731 1.363 . S
C726 C727 1.363 . S
C726 C731 1.379 . S
C726 N733 1.356 . S
C727 C726 1.363 . S
C727 C730 1.363 . S
N728 C730 1.356 . S
N728 H740 0.984 . S
N728 H741 0.985 . S
N729 C731 1.356 . S
N729 H734 0.984 . S
N729 H735 0.985 . S
C730 C724 1.379 . S
C730 C727 1.363 . S
C730 N728 1.356 . S
C731 C725 1.363 . S
C731 C726 1.379 . S
C731 N729 1.356 . S
N732 C724 1.356 . S
N732 H738 0.984 . S
N732 H739 0.984 . S
N733 C726 1.356 . S
N733 H736 0.984 . S
N733 H737 0.985 . S
H734 N729 0.984 . S
H735 N729 0.985 . S
H736 N733 0.984 . S
H737 N733 0.985 . S
H738 N732 0.984 . S
H739 N732 0.984 . S
H740 N728 0.984 . S
H741 N728 0.985 . S
C742 C743 1.363 . S
C742 C748 1.384 . S
C742 N750 1.356 . S
C743 C742 1.363 . S
C743 C749 1.363 1_545 S
C744 C745 1.363 . S
C744 C749 1.379 . S
C744 N751 1.356 . S
C745 C744 1.363 . S
C745 C748 1.356 1_565 S
N746 C748 1.355 . S
N746 H758 0.984 . S
N746 H759 0.985 1_545 S
N747 C749 1.356 . S
N747 H752 0.984 . S
N747 H753 0.985 . S
C748 C742 1.384 . S
C748 C745 1.356 1_545 S
C748 N746 1.355 . S
C749 C743 1.363 1_565 S
C749 C744 1.379 . S
C749 N747 1.356 . S
N750 C742 1.356 . S
N750 H756 0.984 . S
N750 H757 0.984 . S
N751 C744 1.356 . S
N751 H754 0.984 . S
N751 H755 0.985 . S
H752 N747 0.984 . S
H753 N747 0.985 . S
H754 N751 0.984 . S
H755 N751 0.985 . S
H756 N750 0.984 . S
H757 N750 0.984 . S
H758 N746 0.984 . S
H759 N746 0.985 1_565 S
C760 C761 1.363 . S
C760 C766 1.379 . S
C760 N768 1.356 . S
C761 C760 1.363 . S
C761 C767 1.363 . S
C762 C763 1.363 . S
C762 C767 1.379 . S
C762 N769 1.356 . S
C763 C762 1.363 . S
C763 C766 1.363 . S
N764 C766 1.356 . S
N764 H776 0.984 . S
N764 H777 0.985 . S
N765 C767 1.356 . S
N765 H770 0.984 . S
N765 H771 0.985 . S
C766 C760 1.379 . S
C766 C763 1.363 . S
C766 N764 1.356 . S
C767 C761 1.363 . S
C767 C762 1.379 . S
C767 N765 1.356 . S
N768 C760 1.356 . S
N768 H774 0.984 . S
N768 H775 0.984 . S
N769 C762 1.356 . S
N769 H772 0.984 . S
N769 H773 0.985 . S
H770 N765 0.984 . S
H771 N765 0.985 . S
H772 N769 0.984 . S
H773 N769 0.985 . S
H774 N768 0.984 . S
H775 N768 0.984 . S
H776 N764 0.984 . S
H777 N764 0.985 . S
C778 C779 1.363 . S
C778 C784 1.379 1_565 S
C778 N786 1.356 . S
C779 C778 1.363 . S
C779 C785 1.363 1_565 S
C780 C781 1.363 . S
C780 C785 1.379 . S
C780 N787 1.356 . S
C781 C780 1.363 . S
C781 C784 1.363 . S
N782 C784 1.356 . S
N782 H794 0.984 1_545 S
N782 H795 0.985 . S
N783 C785 1.356 1_565 S
N783 H788 0.984 . S
N783 H789 0.985 1_565 S
C784 C778 1.379 1_545 S
C784 C781 1.363 . S
C784 N782 1.356 . S
C785 C779 1.363 1_545 S
C785 C780 1.379 . S
C785 N783 1.356 1_545 S
N786 C778 1.356 . S
N786 H792 0.984 . S
N786 H793 0.984 . S
N787 C780 1.356 . S
N787 H790 0.984 . S
N787 H791 0.985 . S
H788 N783 0.984 . S
H789 N783 0.985 1_545 S
H790 N787 0.984 . S
H791 N787 0.985 . S
H792 N786 0.984 . S
H793 N786 0.984 . S
H794 N782 0.984 1_565 S
H795 N782 0.985 . S
C796 C797 1.363 . S
C796 C802 1.379 . S
C796 N804 1.356 . S
C797 C796 1.363 . S
C797 C803 1.363 . S
C798 C799 1.363 . S
C798 C803 1.379 . S
C798 N805 1.356 . S
C799 C798 1.363 . S
C799 C802 1.363 . S
N800 C802 1.356 . S
N800 H812 0.984 . S
N800 H813 0.985 . S
N801 C803 1.356 . S
N801 H806 0.984 . S
N801 H807 0.985 . S
C802 C796 1.379 . S
C802 C799 1.363 . S
C802 N800 1.356 . S
C803 C797 1.363 . S
C803 C798 1.379 . S
C803 N801 1.356 . S
N804 C796 1.356 . S
N804 H810 0.984 . S
N804 H811 0.984 . S
N805 C798 1.356 . S
N805 H808 0.984 . S
N805 H809 0.985 . S
H806 N801 0.984 . S
H807 N801 0.985 . S
H808 N805 0.984 . S
H809 N805 0.985 . S
H810 N804 0.984 . S
H811 N804 0.984 . S
H812 N800 0.984 . S
H813 N800 0.985 . S
C814 C815 1.363 . S
C814 C820 1.379 1_455 S
C814 N822 1.356 . S
C815 C814 1.363 . S
C815 C821 1.363 . S
C816 C817 1.363 1_455 S
C816 C821 1.379 1_545 S
C816 N823 1.356 . S
C817 C816 1.363 1_655 S
C817 C820 1.363 1_545 S
N818 C820 1.356 . S
N818 H830 0.984 . S
N818 H831 0.985 . S
N819 C821 1.355 1_545 S
N819 H824 0.979 1_545 S
N819 H825 0.990 . S
C820 C814 1.379 1_655 S
C820 C817 1.363 1_565 S
C820 N818 1.356 . S
C821 C815 1.363 . S
C821 C816 1.379 1_565 S
C821 N819 1.355 1_565 S
N822 C814 1.356 . S
N822 H828 0.984 . S
N822 H829 0.984 . S
N823 C816 1.356 . S
N823 H826 0.984 1_455 S
N823 H827 0.985 . S
H824 N819 0.979 1_565 S
H825 N819 0.990 . S
H826 N823 0.984 1_655 S
H827 N823 0.985 . S
H828 N822 0.984 . S
H829 N822 0.984 . S
H830 N818 0.984 . S
H831 N818 0.985 . S
C832 C833 1.363 . S
C832 C838 1.379 . S
C832 N840 1.356 . S
C833 C832 1.363 . S
C833 C839 1.363 . S
C834 C835 1.363 . S
C834 C839 1.379 . S
C834 N841 1.356 . S
C835 C834 1.363 . S
C835 C838 1.363 . S
N836 C838 1.356 . S
N836 H848 0.984 . S
N836 H849 0.985 . S
N837 C839 1.356 . S
N837 H842 0.984 . S
N837 H843 0.985 . S
C838 C832 1.379 . S
C838 C835 1.363 . S
C838 N836 1.356 . S
C839 C833 1.363 . S
C839 C834 1.379 . S
C839 N837 1.356 . S
N840 C832 1.356 . S
N840 H846 0.984 . S
N840 H847 0.984 . S
N841 C834 1.356 . S
N841 H844 0.984 . S
N841 H845 0.985 . S
H842 N837 0.984 . S
H843 N837 0.985 . S
H844 N841 0.984 . S
H845 N841 0.985 . S
H846 N840 0.984 . S
H847 N840 0.984 . S
H848 N836 0.984 . S
H849 N836 0.985 . S
C850 C851 1.363 . S
C850 C856 1.379 . S
C850 N858 1.356 . S
C851 C850 1.363 . S
C851 C857 1.363 . S
C852 C853 1.363 . S
C852 C857 1.379 . S
C852 N859 1.356 . S
C853 C852 1.363 . S
C853 C856 1.363 . S
N854 C856 1.356 . S
N854 H866 0.984 . S
N854 H867 0.985 . S
N855 C857 1.356 1_455 S
N855 H860 0.984 1_565 S
N855 H861 0.985 . S
C856 C850 1.379 . S
C856 C853 1.363 . S
C856 N854 1.356 . S
C857 C851 1.363 . S
C857 C852 1.379 . S
C857 N855 1.356 1_655 S
N858 C850 1.356 . S
N858 H864 0.984 . S
N858 H865 0.984 1_665 S
N859 C852 1.356 . S
N859 H862 0.984 . S
N859 H863 0.985 . S
H860 N855 0.984 1_545 S
H861 N855 0.985 . S
H862 N859 0.984 . S
H863 N859 0.985 . S
H864 N858 0.984 . S
H865 N858 0.984 1_445 S
H866 N854 0.984 . S
H867 N854 0.985 . S
C868 C869 1.363 . S
C868 C874 1.379 . S
C868 N876 1.356 . S
C869 C868 1.363 . S
C869 C875 1.363 . S
C870 C871 1.363 . S
C870 C875 1.379 . S
C870 N877 1.356 . S
C871 C870 1.363 . S
C871 C874 1.363 . S
N872 C874 1.356 . S
N872 H884 0.984 . S
N872 H885 0.985 . S
N873 C875 1.356 . S
N873 H878 0.984 . S
N873 H879 0.985 . S
C874 C868 1.379 . S
C874 C871 1.363 . S
C874 N872 1.356 . S
C875 C869 1.363 . S
C875 C870 1.379 . S
C875 N873 1.356 . S
N876 C868 1.356 . S
N876 H882 0.984 . S
N876 H883 0.984 . S
N877 C870 1.356 . S
N877 H880 0.984 . S
N877 H881 0.985 . S
H878 N873 0.984 . S
H879 N873 0.985 . S
H880 N877 0.984 . S
H881 N877 0.985 . S
H882 N876 0.984 . S
H883 N876 0.984 . S
H884 N872 0.984 . S
H885 N872 0.985 . S
C886 C887 1.363 . S
C886 C892 1.379 . S
C886 N894 1.356 . S
C887 C886 1.363 . S
C887 C893 1.363 . S
C888 C889 1.363 . S
C888 C893 1.379 . S
C888 N895 1.356 . S
C889 C888 1.363 . S
C889 C892 1.363 . S
N890 C892 1.356 1_565 S
N890 H902 0.984 . S
N890 H903 0.985 . S
N891 C893 1.356 . S
N891 H896 0.984 . S
N891 H897 0.985 . S
C892 C886 1.379 . S
C892 C889 1.363 . S
C892 N890 1.356 1_545 S
C893 C887 1.363 . S
C893 C888 1.379 . S
C893 N891 1.356 . S
N894 C886 1.356 . S
N894 H900 0.984 . S
N894 H901 0.984 . S
N895 C888 1.356 . S
N895 H898 0.984 . S
N895 H899 0.985 . S
H896 N891 0.984 . S
H897 N891 0.985 . S
H898 N895 0.984 . S
H899 N895 0.985 . S
H900 N894 0.984 . S
H901 N894 0.984 . S
H902 N890 0.984 . S
H903 N890 0.985 . S
C904 C905 1.363 . S
C904 C910 1.379 . S
C904 N912 1.356 . S
C905 C904 1.363 . S
C905 C911 1.363 . S
C906 C907 1.363 . S
C906 C911 1.379 . S
C906 N913 1.356 . S
C907 C906 1.363 . S
C907 C910 1.363 . S
N908 C910 1.356 . S
N908 H920 0.984 . S
N908 H921 0.985 . S
N909 C911 1.356 . S
N909 H914 0.984 . S
N909 H915 0.985 . S
C910 C904 1.379 . S
C910 C907 1.363 . S
C910 N908 1.356 . S
C911 C905 1.363 . S
C911 C906 1.379 . S
C911 N909 1.356 . S
N912 C904 1.356 . S
N912 H918 0.984 . S
N912 H919 0.984 . S
N913 C906 1.356 . S
N913 H916 0.984 . S
N913 H917 0.985 . S
H914 N909 0.984 . S
H915 N909 0.985 . S
H916 N913 0.984 . S
H917 N913 0.985 . S
H918 N912 0.984 . S
H919 N912 0.984 . S
H920 N908 0.984 . S
H921 N908 0.985 . S
C922 C923 1.363 1_545 S
C922 C928 1.379 . S
C922 N930 1.356 . S
C923 C922 1.363 1_565 S
C923 C929 1.363 . S
C924 C925 1.363 1_565 S
C924 C929 1.379 . S
C924 N931 1.356 . S
C925 C924 1.363 1_545 S
C925 C928 1.363 . S
N926 C928 1.356 . S
N926 H938 0.984 . S
N926 H939 0.985 . S
N927 C929 1.356 . S
N927 H932 0.984 . S
N927 H933 0.985 . S
C928 C922 1.379 . S
C928 C925 1.363 . S
C928 N926 1.356 . S
C929 C923 1.363 . S
C929 C924 1.379 . S
C929 N927 1.356 . S
N930 C922 1.356 . S
N930 H936 0.984 . S
N930 H937 0.984 . S
N931 C924 1.356 . S
N931 H934 0.984 . S
N931 H935 0.985 . S
H932 N927 0.984 . S
H933 N927 0.985 . S
H934 N931 0.984 . S
H935 N931 0.985 . S
H936 N930 0.984 . S
H937 N930 0.984 . S
H938 N926 0.984 . S
H939 N926 0.985 . S
C940 C941 1.363 . S
C940 C946 1.379 . S
C940 N948 1.356 . S
C941 C940 1.363 . S
C941 C947 1.363 . S
C942 C943 1.363 . S
C942 C947 1.379 . S
C942 N949 1.356 . S
C943 C942 1.363 . S
C943 C946 1.363 . S
N944 C946 1.356 . S
N944 H956 0.984 . S
N944 H957 0.985 . S
N945 C947 1.356 . S
N945 H950 0.984 . S
N945 H951 0.985 . S
C946 C940 1.379 . S
C946 C943 1.363 . S
C946 N944 1.356 . S
C947 C941 1.363 . S
C947 C942 1.379 . S
C947 N945 1.356 . S
N948 C940 1.356 . S
N948 H954 0.984 . S
N948 H955 0.984 . S
N949 C942 1.356 . S
N949 H952 0.984 . S
N949 H953 0.985 . S
H950 N945 0.984 . S
H951 N945 0.985 . S
H952 N949 0.984 . S
H953 N949 0.985 . S
H954 N948 0.984 . S
H955 N948 0.984 . S
H956 N944 0.984 . S
H957 N944 0.985 . S
C958 C959 1.363 1_565 S
C958 C964 1.379 1_565 S
C958 N966 1.356 . S
C959 C958 1.363 1_545 S
C959 C965 1.363 . S
C960 C961 1.363 . S
C960 C965 1.379 . S
C960 N967 1.356 . S
C961 C960 1.363 . S
C961 C964 1.363 . S
N962 C964 1.356 . S
N962 H974 0.984 1_545 S
N962 H975 0.985 . S
N963 C965 1.356 1_455 S
N963 H968 0.984 . S
N963 H969 0.985 . S
C964 C958 1.379 1_545 S
C964 C961 1.363 . S
C964 N962 1.356 . S
C965 C959 1.363 . S
C965 C960 1.379 . S
C965 N963 1.356 1_655 S
N966 C958 1.356 . S
N966 H972 0.984 . S
N966 H973 0.984 . S
N967 C960 1.356 . S
N967 H970 0.984 . S
N967 H971 0.985 . S
H968 N963 0.984 . S
H969 N963 0.985 . S
H970 N967 0.984 . S
H971 N967 0.985 . S
H972 N966 0.984 . S
H973 N966 0.984 . S
H974 N962 0.984 1_565 S
H975 N962 0.985 . S
C976 C977 1.363 . S
C976 C982 1.379 . S
C976 N984 1.356 . S
C977 C976 1.363 . S
C977 C983 1.363 . S
C978 C979 1.363 . S
C978 C983 1.379 . S
C978 N985 1.356 . S
C979 C978 1.363 . S
C979 C982 1.363 . S
N980 C982 1.356 . S
N980 H992 0.984 . S
N980 H993 0.985 . S
N981 C983 1.356 . S
N981 H986 0.984 . S
N981 H987 0.985 . S
C982 C976 1.379 . S
C982 C979 1.363 . S
C982 N980 1.356 . S
C983 C977 1.363 . S
C983 C978 1.379 . S
C983 N981 1.356 . S
N984 C976 1.356 . S
N984 H990 0.984 . S
N984 H991 0.984 . S
N985 C978 1.356 . S
N985 H988 0.984 . S
N985 H989 0.985 . S
H986 N981 0.984 . S
H987 N981 0.985 . S
H988 N985 0.984 . S
H989 N985 0.985 . S
H990 N984 0.984 . S
H991 N984 0.984 . S
H992 N980 0.984 . S
H993 N980 0.985 . S
C994 C995 1.363 . S
C994 C1000 1.379 . S
C994 N1002 1.356 . S
C995 C994 1.363 . S
C995 C1001 1.363 . S
C996 C997 1.363 . S
C996 C1001 1.379 . S
C996 N1003 1.356 . S
C997 C996 1.363 . S
C997 C1000 1.363 . S
N998 C1000 1.356 . S
N998 H1010 0.984 . S
N998 H1011 0.985 . S
N999 C1001 1.356 . S
N999 H1004 0.984 . S
N999 H1005 0.985 . S
C1000 C994 1.379 . S
C1000 C997 1.363 . S
C1000 N998 1.356 . S
C1001 C995 1.363 . S
C1001 C996 1.379 . S
C1001 N999 1.356 . S
N1002 C994 1.356 . S
N1002 H1008 0.984 . S
N1002 H1009 0.984 . S
N1003 C996 1.356 . S
N1003 H1006 0.984 . S
N1003 H1007 0.985 . S
H1004 N999 0.984 . S
H1005 N999 0.985 . S
H1006 N1003 0.984 . S
H1007 N1003 0.985 . S
H1008 N1002 0.984 . S
H1009 N1002 0.984 . S
H1010 N998 0.984 . S
H1011 N998 0.985 . S
C1012 C1013 1.363 . S
C1012 C1018 1.379 . S
C1012 N1020 1.356 . S
C1013 C1012 1.363 . S
C1013 C1019 1.363 . S
C1014 C1015 1.363 . S
C1014 C1019 1.379 . S
C1014 N1021 1.356 . S
C1015 C1014 1.363 . S
C1015 C1018 1.363 . S
N1016 C1018 1.356 . S
N1016 H1028 0.984 . S
N1016 H1029 0.985 . S
N1017 C1019 1.356 . S
N1017 H1022 0.984 . S
N1017 H1023 0.985 . S
C1018 C1012 1.379 . S
C1018 C1015 1.363 . S
C1018 N1016 1.356 . S
C1019 C1013 1.363 . S
C1019 C1014 1.379 . S
C1019 N1017 1.356 . S
N1020 C1012 1.356 . S
N1020 H1026 0.984 . S
N1020 H1027 0.984 . S
N1021 C1014 1.356 . S
N1021 H1024 0.984 . S
N1021 H1025 0.985 . S
H1022 N1017 0.984 . S
H1023 N1017 0.985 . S
H1024 N1021 0.984 . S
H1025 N1021 0.985 . S
H1026 N1020 0.984 . S
H1027 N1020 0.984 . S
H1028 N1016 0.984 . S
H1029 N1016 0.985 . S
C1030 C1031 1.363 . S
C1030 C1036 1.379 . S
C1030 N1038 1.356 . S
C1031 C1030 1.363 . S
C1031 C1037 1.363 . S
C1032 C1033 1.363 . S
C1032 C1037 1.379 . S
C1032 N1039 1.356 . S
C1033 C1032 1.363 . S
C1033 C1036 1.363 . S
N1034 C1036 1.356 . S
N1034 H1046 0.984 . S
N1034 H1047 0.985 . S
N1035 C1037 1.356 . S
N1035 H1040 0.984 . S
N1035 H1041 0.985 . S
C1036 C1030 1.379 . S
C1036 C1033 1.363 . S
C1036 N1034 1.356 . S
C1037 C1031 1.363 . S
C1037 C1032 1.379 . S
C1037 N1035 1.356 . S
N1038 C1030 1.356 . S
N1038 H1044 0.984 . S
N1038 H1045 0.984 . S
N1039 C1032 1.356 . S
N1039 H1042 0.984 . S
N1039 H1043 0.985 . S
H1040 N1035 0.984 . S
H1041 N1035 0.985 . S
H1042 N1039 0.984 . S
H1043 N1039 0.985 . S
H1044 N1038 0.984 . S
H1045 N1038 0.984 . S
H1046 N1034 0.984 . S
H1047 N1034 0.985 . S
C1048 C1049 1.363 . S
C1048 C1054 1.379 . S
C1048 N1056 1.356 . S
C1049 C1048 1.363 . S
C1049 C1055 1.363 . S
C1050 C1051 1.363 . S
C1050 C1055 1.379 . S
C1050 N1057 1.356 . S
C1051 C1050 1.363 . S
C1051 C1054 1.363 . S
N1052 C1054 1.356 . S
N1052 H1064 0.984 . S
N1052 H1065 0.985 . S
N1053 C1055 1.356 . S
N1053 H1058 0.984 . S
N1053 H1059 0.985 . S
C1054 C1048 1.379 . S
C1054 C1051 1.363 . S
C1054 N1052 1.356 . S
C1055 C1049 1.363 . S
C1055 C1050 1.379 . S
C1055 N1053 1.356 . S
N1056 C1048 1.356 . S
N1056 H1062 0.984 . S
N1056 H1063 0.984 . S
N1057 C1050 1.356 . S
N1057 H1060 0.984 . S
N1057 H1061 0.985 . S
H1058 N1053 0.984 . S
H1059 N1053 0.985 . S
H1060 N1057 0.984 . S
H1061 N1057 0.985 . S
H1062 N1056 0.984 . S
H1063 N1056 0.984 . S
H1064 N1052 0.984 . S
H1065 N1052 0.985 . S
C1066 C1067 1.363 . S
C1066 C1072 1.379 . S
C1066 N1074 1.356 . S
C1067 C1066 1.363 . S
C1067 C1073 1.363 . S
C1068 C1069 1.363 . S
C1068 C1073 1.379 . S
C1068 N1075 1.356 . S
C1069 C1068 1.363 . S
C1069 C1072 1.363 . S
N1070 C1072 1.356 . S
N1070 H1082 0.984 . S
N1070 H1083 0.985 . S
N1071 C1073 1.356 . S
N1071 H1076 0.984 . S
N1071 H1077 0.985 . S
C1072 C1066 1.379 . S
C1072 C1069 1.363 . S
C1072 N1070 1.356 . S
C1073 C1067 1.363 . S
C1073 C1068 1.379 . S
C1073 N1071 1.356 . S
N1074 C1066 1.356 . S
N1074 H1080 0.984 . S
N1074 H1081 0.984 . S
N1075 C1068 1.356 . S
N1075 H1078 0.984 1_655 S
N1075 H1079 0.985 1_655 S
H1076 N1071 0.984 . S
H1077 N1071 0.985 . S
H1078 N1075 0.984 1_455 S
H1079 N1075 0.985 1_455 S
H1080 N1074 0.984 . S
H1081 N1074 0.984 . S
H1082 N1070 0.984 . S
H1083 N1070 0.985 . S
C1084 C1085 1.363 . S
C1084 C1090 1.379 . S
C1084 N1092 1.356 . S
C1085 C1084 1.363 . S
C1085 C1091 1.363 . S
C1086 C1087 1.363 . S
C1086 C1091 1.379 . S
C1086 N1093 1.356 . S
C1087 C1086 1.363 . S
C1087 C1090 1.363 . S
N1088 C1090 1.356 . S
N1088 H1100 0.984 . S
N1088 H1101 0.985 . S
N1089 C1091 1.356 . S
N1089 H1094 0.984 . S
N1089 H1095 0.985 . S
C1090 C1084 1.379 . S
C1090 C1087 1.363 . S
C1090 N1088 1.356 . S
C1091 C1085 1.363 . S
C1091 C1086 1.379 . S
C1091 N1089 1.356 . S
N1092 C1084 1.356 . S
N1092 H1098 0.984 . S
N1092 H1099 0.984 . S
N1093 C1086 1.356 . S
N1093 H1096 0.984 . S
N1093 H1097 0.985 . S
H1094 N1089 0.984 . S
H1095 N1089 0.985 . S
H1096 N1093 0.984 . S
H1097 N1093 0.985 . S
H1098 N1092 0.984 . S
H1099 N1092 0.984 . S
H1100 N1088 0.984 . S
H1101 N1088 0.985 . S
C1102 C1103 1.363 . S
C1102 C1108 1.379 . S
C1102 N1110 1.356 . S
C1103 C1102 1.363 . S
C1103 C1109 1.363 . S
C1104 C1105 1.363 . S
C1104 C1109 1.379 . S
C1104 N1111 1.356 . S
C1105 C1104 1.363 . S
C1105 C1108 1.363 . S
N1106 C1108 1.356 . S
N1106 H1118 0.984 . S
N1106 H1119 0.985 . S
N1107 C1109 1.356 . S
N1107 H1112 0.984 . S
N1107 H1113 0.985 . S
C1108 C1102 1.379 . S
C1108 C1105 1.363 . S
C1108 N1106 1.356 . S
C1109 C1103 1.363 . S
C1109 C1104 1.379 . S
C1109 N1107 1.356 . S
N1110 C1102 1.356 . S
N1110 H1116 0.984 . S
N1110 H1117 0.984 . S
N1111 C1104 1.356 . S
N1111 H1114 0.984 . S
N1111 H1115 0.985 . S
H1112 N1107 0.984 . S
H1113 N1107 0.985 . S
H1114 N1111 0.984 . S
H1115 N1111 0.985 . S
H1116 N1110 0.984 . S
H1117 N1110 0.984 . S
H1118 N1106 0.984 . S
H1119 N1106 0.985 . S
C1120 C1121 1.363 . S
C1120 C1126 1.379 . S
C1120 N1128 1.356 . S
C1121 C1120 1.363 . S
C1121 C1127 1.363 . S
C1122 C1123 1.363 . S
C1122 C1127 1.379 . S
C1122 N1129 1.356 . S
C1123 C1122 1.363 . S
C1123 C1126 1.363 . S
N1124 C1126 1.356 . S
N1124 H1136 0.984 . S
N1124 H1137 0.985 . S
N1125 C1127 1.356 . S
N1125 H1130 0.984 . S
N1125 H1131 0.985 . S
C1126 C1120 1.379 . S
C1126 C1123 1.363 . S
C1126 N1124 1.356 . S
C1127 C1121 1.363 . S
C1127 C1122 1.379 . S
C1127 N1125 1.356 . S
N1128 C1120 1.356 . S
N1128 H1134 0.984 . S
N1128 H1135 0.984 . S
N1129 C1122 1.356 . S
N1129 H1132 0.984 . S
N1129 H1133 0.985 . S
H1130 N1125 0.984 . S
H1131 N1125 0.985 . S
H1132 N1129 0.984 . S
H1133 N1129 0.985 . S
H1134 N1128 0.984 . S
H1135 N1128 0.984 . S
H1136 N1124 0.984 . S
H1137 N1124 0.985 . S
C1138 C1139 1.363 . S
C1138 C1144 1.379 . S
C1138 N1146 1.356 . S
C1139 C1138 1.363 . S
C1139 C1145 1.363 . S
C1140 C1141 1.363 . S
C1140 C1145 1.379 . S
C1140 N1147 1.356 . S
C1141 C1140 1.363 . S
C1141 C1144 1.363 . S
N1142 C1144 1.356 . S
N1142 H1154 0.984 . S
N1142 H1155 0.985 . S
N1143 C1145 1.356 . S
N1143 H1148 0.984 . S
N1143 H1149 0.985 . S
C1144 C1138 1.379 . S
C1144 C1141 1.363 . S
C1144 N1142 1.356 . S
C1145 C1139 1.363 . S
C1145 C1140 1.379 . S
C1145 N1143 1.356 . S
N1146 C1138 1.356 . S
N1146 H1152 0.984 . S
N1146 H1153 0.984 . S
N1147 C1140 1.356 . S
N1147 H1150 0.984 . S
N1147 H1151 0.985 . S
H1148 N1143 0.984 . S
H1149 N1143 0.985 . S
H1150 N1147 0.984 . S
H1151 N1147 0.985 . S
H1152 N1146 0.984 . S
H1153 N1146 0.984 . S
H1154 N1142 0.984 . S
H1155 N1142 0.985 . S
C1156 C1157 1.363 . S
C1156 C1162 1.379 . S
C1156 N1164 1.356 . S
C1157 C1156 1.363 . S
C1157 C1163 1.363 . S
C1158 C1159 1.363 . S
C1158 C1163 1.379 . S
C1158 N1165 1.356 . S
C1159 C1158 1.363 . S
C1159 C1162 1.363 . S
N1160 C1162 1.356 . S
N1160 H1172 0.984 . S
N1160 H1173 0.985 . S
N1161 C1163 1.356 . S
N1161 H1166 0.984 . S
N1161 H1167 0.985 . S
C1162 C1156 1.379 . S
C1162 C1159 1.363 . S
C1162 N1160 1.356 . S
C1163 C1157 1.363 . S
C1163 C1158 1.379 . S
C1163 N1161 1.356 . S
N1164 C1156 1.356 . S
N1164 H1170 0.984 . S
N1164 H1171 0.984 . S
N1165 C1158 1.356 . S
N1165 H1168 0.984 . S
N1165 H1169 0.985 . S
H1166 N1161 0.984 . S
H1167 N1161 0.985 . S
H1168 N1165 0.984 . S
H1169 N1165 0.985 . S
H1170 N1164 0.984 . S
H1171 N1164 0.984 . S
H1172 N1160 0.984 . S
H1173 N1160 0.985 . S
C1174 C1175 1.363 . S
C1174 C1180 1.379 . S
C1174 N1182 1.356 . S
C1175 C1174 1.363 . S
C1175 C1181 1.363 . S
C1176 C1177 1.363 . S
C1176 C1181 1.379 . S
C1176 N1183 1.356 . S
C1177 C1176 1.363 . S
C1177 C1180 1.363 . S
N1178 C1180 1.356 . S
N1178 H1190 0.984 . S
N1178 H1191 0.985 . S
N1179 C1181 1.356 . S
N1179 H1184 0.984 . S
N1179 H1185 0.985 . S
C1180 C1174 1.379 . S
C1180 C1177 1.363 . S
C1180 N1178 1.356 . S
C1181 C1175 1.363 . S
C1181 C1176 1.379 . S
C1181 N1179 1.356 . S
N1182 C1174 1.356 . S
N1182 H1188 0.984 . S
N1182 H1189 0.984 . S
N1183 C1176 1.356 . S
N1183 H1186 0.984 . S
N1183 H1187 0.985 . S
H1184 N1179 0.984 . S
H1185 N1179 0.985 . S
H1186 N1183 0.984 . S
H1187 N1183 0.985 . S
H1188 N1182 0.984 . S
H1189 N1182 0.984 . S
H1190 N1178 0.984 . S
H1191 N1178 0.985 . S
C1192 C1193 1.363 . S
C1192 C1198 1.379 . S
C1192 N1200 1.356 . S
C1193 C1192 1.363 . S
C1193 C1199 1.363 . S
C1194 C1195 1.363 . S
C1194 C1199 1.379 . S
C1194 N1201 1.356 . S
C1195 C1194 1.363 . S
C1195 C1198 1.363 . S
N1196 C1198 1.356 . S
N1196 H1208 0.984 . S
N1196 H1209 0.985 . S
N1197 C1199 1.356 . S
N1197 H1202 0.984 . S
N1197 H1203 0.985 . S
C1198 C1192 1.379 . S
C1198 C1195 1.363 . S
C1198 N1196 1.356 . S
C1199 C1193 1.363 . S
C1199 C1194 1.379 . S
C1199 N1197 1.356 . S
N1200 C1192 1.356 . S
N1200 H1206 0.984 . S
N1200 H1207 0.984 . S
N1201 C1194 1.356 . S
N1201 H1204 0.984 . S
N1201 H1205 0.985 . S
H1202 N1197 0.984 . S
H1203 N1197 0.985 . S
H1204 N1201 0.984 . S
H1205 N1201 0.985 . S
H1206 N1200 0.984 . S
H1207 N1200 0.984 . S
H1208 N1196 0.984 . S
H1209 N1196 0.985 . S
C1210 C1211 1.363 . S
C1210 C1216 1.379 . S
C1210 N1218 1.356 . S
C1211 C1210 1.363 . S
C1211 C1217 1.363 . S
C1212 C1213 1.363 . S
C1212 C1217 1.379 . S
C1212 N1219 1.356 . S
C1213 C1212 1.363 . S
C1213 C1216 1.363 . S
N1214 C1216 1.356 1_655 S
N1214 H1226 0.984 . S
N1214 H1227 0.985 . S
N1215 C1217 1.356 . S
N1215 H1220 0.984 . S
N1215 H1221 0.985 . S
C1216 C1210 1.379 . S
C1216 C1213 1.363 . S
C1216 N1214 1.356 1_455 S
C1217 C1211 1.363 . S
C1217 C1212 1.379 . S
C1217 N1215 1.356 . S
N1218 C1210 1.356 . S
N1218 H1224 0.984 . S
N1218 H1225 0.984 . S
N1219 C1212 1.356 . S
N1219 H1222 0.984 . S
N1219 H1223 0.985 . S
H1220 N1215 0.984 . S
H1221 N1215 0.985 . S
H1222 N1219 0.984 . S
H1223 N1219 0.985 . S
H1224 N1218 0.984 . S
H1225 N1218 0.984 . S
H1226 N1214 0.984 . S
H1227 N1214 0.985 . S
C1228 C1229 1.363 . S
C1228 C1234 1.379 . S
C1228 N1236 1.356 . S
C1229 C1228 1.363 . S
C1229 C1235 1.363 . S
C1230 C1231 1.363 . S
C1230 C1235 1.379 . S
C1230 N1237 1.356 . S
C1231 C1230 1.363 . S
C1231 C1234 1.363 . S
N1232 C1234 1.356 . S
N1232 H1244 0.984 . S
N1232 H1245 0.985 . S
N1233 C1235 1.356 . S
N1233 H1238 0.984 . S
N1233 H1239 0.985 . S
C1234 C1228 1.379 . S
C1234 C1231 1.363 . S
C1234 N1232 1.356 . S
C1235 C1229 1.363 . S
C1235 C1230 1.379 . S
C1235 N1233 1.356 . S
N1236 C1228 1.356 . S
N1236 H1242 0.984 . S
N1236 H1243 0.984 . S
N1237 C1230 1.356 . S
N1237 H1240 0.984 . S
N1237 H1241 0.985 . S
H1238 N1233 0.984 . S
H1239 N1233 0.985 . S
H1240 N1237 0.984 . S
H1241 N1237 0.985 . S
H1242 N1236 0.984 . S
H1243 N1236 0.984 . S
H1244 N1232 0.984 . S
H1245 N1232 0.985 . S
C1246 C1247 1.363 . S
C1246 C1252 1.379 . S
C1246 N1254 1.356 . S
C1247 C1246 1.363 . S
C1247 C1253 1.363 . S
C1248 C1249 1.363 . S
C1248 C1253 1.379 . S
C1248 N1255 1.356 . S
C1249 C1248 1.363 . S
C1249 C1252 1.363 . S
N1250 C1252 1.356 . S
N1250 H1262 0.984 . S
N1250 H1263 0.985 . S
N1251 C1253 1.356 . S
N1251 H1256 0.984 . S
N1251 H1257 0.985 . S
C1252 C1246 1.379 . S
C1252 C1249 1.363 . S
C1252 N1250 1.356 . S
C1253 C1247 1.363 . S
C1253 C1248 1.379 . S
C1253 N1251 1.356 . S
N1254 C1246 1.356 . S
N1254 H1260 0.984 . S
N1254 H1261 0.984 . S
N1255 C1248 1.356 . S
N1255 H1258 0.984 . S
N1255 H1259 0.985 . S
H1256 N1251 0.984 . S
H1257 N1251 0.985 . S
H1258 N1255 0.984 . S
H1259 N1255 0.985 . S
H1260 N1254 0.984 . S
H1261 N1254 0.984 . S
H1262 N1250 0.984 . S
H1263 N1250 0.985 . S
C1264 C1265 1.363 . S
C1264 C1270 1.379 . S
C1264 N1272 1.356 . S
C1265 C1264 1.363 . S
C1265 C1271 1.363 . S
C1266 C1267 1.363 . S
C1266 C1271 1.379 1_554 S
C1266 N1273 1.356 . S
C1267 C1266 1.363 . S
C1267 C1270 1.363 1_554 S
N1268 C1270 1.356 1_554 S
N1268 H1280 0.984 1_554 S
N1268 H1281 0.985 . S
N1269 C1271 1.356 . S
N1269 H1274 0.984 . S
N1269 H1275 0.985 . S
C1270 C1264 1.379 . S
C1270 C1267 1.363 1_556 S
C1270 N1268 1.356 1_556 S
C1271 C1265 1.363 . S
C1271 C1266 1.379 1_556 S
C1271 N1269 1.356 . S
N1272 C1264 1.356 . S
N1272 H1278 0.984 . S
N1272 H1279 0.984 . S
N1273 C1266 1.356 . S
N1273 H1276 0.984 . S
N1273 H1277 0.985 . S
H1274 N1269 0.984 . S
H1275 N1269 0.985 . S
H1276 N1273 0.984 . S
H1277 N1273 0.985 . S
H1278 N1272 0.984 . S
H1279 N1272 0.984 . S
H1280 N1268 0.984 1_556 S
H1281 N1268 0.985 . S
C1282 C1283 1.363 1_565 S
C1282 C1288 1.379 . S
C1282 N1290 1.356 . S
C1283 C1282 1.363 1_545 S
C1283 C1289 1.363 . S
C1284 C1285 1.363 . S
C1284 C1289 1.379 . S
C1284 N1291 1.356 . S
C1285 C1284 1.363 . S
C1285 C1288 1.363 1_545 S
N1286 C1288 1.356 . S
N1286 H1298 0.984 . S
N1286 H1299 0.985 . S
N1287 C1289 1.356 . S
N1287 H1292 0.984 . S
N1287 H1293 0.985 . S
C1288 C1282 1.379 . S
C1288 C1285 1.363 1_565 S
C1288 N1286 1.356 . S
C1289 C1283 1.363 . S
C1289 C1284 1.379 . S
C1289 N1287 1.356 . S
N1290 C1282 1.356 . S
N1290 H1296 0.984 . S
N1290 H1297 0.984 . S
N1291 C1284 1.356 . S
N1291 H1294 0.984 . S
N1291 H1295 0.985 . S
H1292 N1287 0.984 . S
H1293 N1287 0.985 . S
H1294 N1291 0.984 . S
H1295 N1291 0.985 . S
H1296 N1290 0.984 . S
H1297 N1290 0.984 . S
H1298 N1286 0.984 . S
H1299 N1286 0.985 . S
C1300 C1301 1.363 . S
C1300 C1306 1.379 . S
C1300 N1308 1.356 . S
C1301 C1300 1.363 . S
C1301 C1307 1.363 . S
C1302 C1303 1.363 . S
C1302 C1307 1.379 . S
C1302 N1309 1.356 . S
C1303 C1302 1.363 . S
C1303 C1306 1.363 . S
N1304 C1306 1.356 . S
N1304 H1316 0.984 . S
N1304 H1317 0.985 . S
N1305 C1307 1.356 . S
N1305 H1310 0.984 . S
N1305 H1311 0.985 . S
C1306 C1300 1.379 . S
C1306 C1303 1.363 . S
C1306 N1304 1.356 . S
C1307 C1301 1.363 . S
C1307 C1302 1.379 . S
C1307 N1305 1.356 . S
N1308 C1300 1.356 . S
N1308 H1314 0.984 . S
N1308 H1315 0.984 . S
N1309 C1302 1.356 . S
N1309 H1312 0.984 . S
N1309 H1313 0.985 . S
H1310 N1305 0.984 . S
H1311 N1305 0.985 . S
H1312 N1309 0.984 . S
H1313 N1309 0.985 . S
H1314 N1308 0.984 . S
H1315 N1308 0.984 . S
H1316 N1304 0.984 . S
H1317 N1304 0.985 . S
C1318 C1319 1.363 . S
C1318 C1324 1.379 . S
C1318 N1326 1.356 . S
C1319 C1318 1.363 . S
C1319 C1325 1.363 1_565 S
C1320 C1321 1.363 1_545 S
C1320 C1325 1.379 . S
C1320 N1327 1.356 . S
C1321 C1320 1.363 1_565 S
C1321 C1324 1.363 . S
N1322 C1324 1.356 . S
N1322 H1334 0.984 . S
N1322 H1335 0.985 . S
N1323 C1325 1.356 . S
N1323 H1328 0.984 . S
N1323 H1329 0.985 . S
C1324 C1318 1.379 . S
C1324 C1321 1.363 . S
C1324 N1322 1.356 . S
C1325 C1319 1.363 1_545 S
C1325 C1320 1.379 . S
C1325 N1323 1.356 . S
N1326 C1318 1.356 . S
N1326 H1332 0.984 . S
N1326 H1333 0.984 . S
N1327 C1320 1.356 . S
N1327 H1330 0.984 . S
N1327 H1331 0.985 . S
H1328 N1323 0.984 . S
H1329 N1323 0.985 . S
H1330 N1327 0.984 . S
H1331 N1327 0.985 . S
H1332 N1326 0.984 . S
H1333 N1326 0.984 . S
H1334 N1322 0.984 . S
H1335 N1322 0.985 . S
C1336 C1337 1.363 1_554 S
C1336 C1342 1.379 . S
C1336 N1344 1.356 1_554 S
C1337 C1336 1.363 1_556 S
C1337 C1343 1.363 . S
C1338 C1339 1.363 . S
C1338 C1343 1.379 1_554 S
C1338 N1345 1.356 . S
C1339 C1338 1.363 . S
C1339 C1342 1.363 . S
N1340 C1342 1.356 . S
N1340 H1352 0.984 . S
N1340 H1353 0.985 . S
N1341 C1343 1.356 . S
N1341 H1346 0.984 . S
N1341 H1347 0.985 . S
C1342 C1336 1.379 . S
C1342 C1339 1.363 . S
C1342 N1340 1.356 . S
C1343 C1337 1.363 . S
C1343 C1338 1.379 1_556 S
C1343 N1341 1.356 . S
N1344 C1336 1.356 1_556 S
N1344 H1350 0.984 1_556 S
N1344 H1351 0.984 . S
N1345 C1338 1.356 . S
N1345 H1348 0.984 . S
N1345 H1349 0.985 . S
H1346 N1341 0.984 . S
H1347 N1341 0.985 . S
H1348 N1345 0.984 . S
H1349 N1345 0.985 . S
H1350 N1344 0.984 1_554 S
H1351 N1344 0.984 . S
H1352 N1340 0.984 . S
H1353 N1340 0.985 . S
C1354 C1355 1.363 . S
C1354 C1360 1.379 . S
C1354 N1362 1.356 . S
C1355 C1354 1.363 . S
C1355 C1361 1.363 1_545 S
C1356 C1357 1.363 1_565 S
C1356 C1361 1.379 . S
C1356 N1363 1.356 . S
C1357 C1356 1.363 1_545 S
C1357 C1360 1.363 . S
N1358 C1360 1.356 . S
N1358 H1370 0.984 . S
N1358 H1371 0.985 . S
N1359 C1361 1.356 . S
N1359 H1364 0.984 . S
N1359 H1365 0.985 . S
C1360 C1354 1.379 . S
C1360 C1357 1.363 . S
C1360 N1358 1.356 . S
C1361 C1355 1.363 1_565 S
C1361 C1356 1.379 . S
C1361 N1359 1.356 . S
N1362 C1354 1.356 . S
N1362 H1368 0.984 . S
N1362 H1369 0.984 . S
N1363 C1356 1.356 . S
N1363 H1366 0.984 . S
N1363 H1367 0.985 . S
H1364 N1359 0.984 . S
H1365 N1359 0.985 . S
H1366 N1363 0.984 . S
H1367 N1363 0.985 . S
H1368 N1362 0.984 . S
H1369 N1362 0.984 . S
H1370 N1358 0.984 . S
H1371 N1358 0.985 . S
C1372 C1373 1.363 . S
C1372 C1378 1.379 . S
C1372 N1380 1.356 . S
C1373 C1372 1.363 . S
C1373 C1379 1.363 . S
C1374 C1375 1.363 . S
C1374 C1379 1.379 . S
C1374 N1381 1.356 . S
C1375 C1374 1.363 . S
C1375 C1378 1.363 . S
N1376 C1378 1.356 . S
N1376 H1388 0.984 . S
N1376 H1389 0.985 . S
N1377 C1379 1.356 . S
N1377 H1382 0.984 . S
N1377 H1383 0.985 . S
C1378 C1372 1.379 . S
C1378 C1375 1.363 . S
C1378 N1376 1.356 . S
C1379 C1373 1.363 . S
C1379 C1374 1.379 . S
C1379 N1377 1.356 . S
N1380 C1372 1.356 . S
N1380 H1386 0.984 . S
N1380 H1387 0.984 . S
N1381 C1374 1.356 . S
N1381 H1384 0.984 . S
N1381 H1385 0.985 . S
H1382 N1377 0.984 . S
H1383 N1377 0.985 . S
H1384 N1381 0.984 . S
H1385 N1381 0.985 . S
H1386 N1380 0.984 . S
H1387 N1380 0.984 . S
H1388 N1376 0.984 . S
H1389 N1376 0.985 . S
C1390 C1391 1.363 . S
C1390 C1396 1.379 . S
C1390 N1398 1.356 . S
C1391 C1390 1.363 . S
C1391 C1397 1.363 1_545 S
C1392 C1393 1.363 1_565 S
C1392 C1397 1.379 . S
C1392 N1399 1.356 . S
C1393 C1392 1.363 1_545 S
C1393 C1396 1.363 . S
N1394 C1396 1.356 . S
N1394 H1406 0.984 . S
N1394 H1407 0.985 . S
N1395 C1397 1.356 . S
N1395 H1400 0.984 . S
N1395 H1401 0.985 . S
C1396 C1390 1.379 . S
C1396 C1393 1.363 . S
C1396 N1394 1.356 . S
C1397 C1391 1.363 1_565 S
C1397 C1392 1.379 . S
C1397 N1395 1.356 . S
N1398 C1390 1.356 . S
N1398 H1404 0.984 . S
N1398 H1405 0.984 . S
N1399 C1392 1.356 . S
N1399 H1402 0.984 . S
N1399 H1403 0.985 . S
H1400 N1395 0.984 . S
H1401 N1395 0.985 . S
H1402 N1399 0.984 . S
H1403 N1399 0.985 . S
H1404 N1398 0.984 . S
H1405 N1398 0.984 . S
H1406 N1394 0.984 . S
H1407 N1394 0.985 . S
C1408 C1409 1.363 . S
C1408 C1414 1.379 . S
C1408 N1416 1.356 . S
C1409 C1408 1.363 . S
C1409 C1415 1.363 . S
C1410 C1411 1.363 . S
C1410 C1415 1.379 . S
C1410 N1417 1.356 . S
C1411 C1410 1.363 . S
C1411 C1414 1.363 . S
N1412 C1414 1.356 . S
N1412 H1424 0.984 . S
N1412 H1425 0.985 . S
N1413 C1415 1.356 . S
N1413 H1418 0.984 . S
N1413 H1419 0.985 . S
C1414 C1408 1.379 . S
C1414 C1411 1.363 . S
C1414 N1412 1.356 . S
C1415 C1409 1.363 . S
C1415 C1410 1.379 . S
C1415 N1413 1.356 . S
N1416 C1408 1.356 . S
N1416 H1422 0.984 . S
N1416 H1423 0.984 . S
N1417 C1410 1.356 . S
N1417 H1420 0.984 . S
N1417 H1421 0.985 . S
H1418 N1413 0.984 . S
H1419 N1413 0.985 . S
H1420 N1417 0.984 . S
H1421 N1417 0.985 . S
H1422 N1416 0.984 . S
H1423 N1416 0.984 . S
H1424 N1412 0.984 . S
H1425 N1412 0.985 . S
C1426 C1427 1.363 . S
C1426 C1432 1.379 . S
C1426 N1434 1.356 . S
C1427 C1426 1.363 . S
C1427 C1433 1.363 . S
C1428 C1429 1.363 . S
C1428 C1433 1.379 . S
C1428 N1435 1.356 . S
C1429 C1428 1.363 . S
C1429 C1432 1.363 . S
N1430 C1432 1.356 . S
N1430 H1442 0.984 . S
N1430 H1443 0.985 . S
N1431 C1433 1.356 . S
N1431 H1436 0.984 . S
N1431 H1437 0.985 . S
C1432 C1426 1.379 . S
C1432 C1429 1.363 . S
C1432 N1430 1.356 . S
C1433 C1427 1.363 . S
C1433 C1428 1.379 . S
C1433 N1431 1.356 . S
N1434 C1426 1.356 . S
N1434 H1440 0.984 . S
N1434 H1441 0.984 . S
N1435 C1428 1.356 . S
N1435 H1438 0.984 . S
N1435 H1439 0.985 . S
H1436 N1431 0.984 . S
H1437 N1431 0.985 . S
H1438 N1435 0.984 . S
H1439 N1435 0.985 . S
H1440 N1434 0.984 . S
H1441 N1434 0.984 . S
H1442 N1430 0.984 . S
H1443 N1430 0.985 . S
C1444 C1445 1.363 . S
C1444 C1450 1.379 1_554 S
C1444 N1452 1.356 . S
C1445 C1444 1.363 . S
C1445 C1451 1.363 . S
C1446 C1447 1.363 . S
C1446 C1451 1.379 1_556 S
C1446 N1453 1.356 . S
C1447 C1446 1.363 . S
C1447 C1450 1.363 . S
N1448 C1450 1.356 . S
N1448 H1460 0.984 . S
N1448 H1461 0.985 . S
N1449 C1451 1.356 . S
N1449 H1454 0.984 . S
N1449 H1455 0.985 . S
C1450 C1444 1.379 1_556 S
C1450 C1447 1.363 . S
C1450 N1448 1.356 . S
C1451 C1445 1.363 . S
C1451 C1446 1.379 1_554 S
C1451 N1449 1.356 . S
N1452 C1444 1.356 . S
N1452 H1458 0.984 . S
N1452 H1459 0.984 . S
N1453 C1446 1.356 . S
N1453 H1456 0.984 . S
N1453 H1457 0.985 . S
H1454 N1449 0.984 . S
H1455 N1449 0.985 . S
H1456 N1453 0.984 . S
H1457 N1453 0.985 . S
H1458 N1452 0.984 . S
H1459 N1452 0.984 . S
H1460 N1448 0.984 . S
H1461 N1448 0.985 . S
C1462 C1463 1.363 . S
C1462 C1468 1.379 . S
C1462 N1470 1.356 . S
C1463 C1462 1.363 . S
C1463 C1469 1.363 . S
C1464 C1465 1.363 . S
C1464 C1469 1.379 . S
C1464 N1471 1.356 . S
C1465 C1464 1.363 . S
C1465 C1468 1.363 . S
N1466 C1468 1.356 . S
N1466 H1478 0.984 . S
N1466 H1479 0.985 . S
N1467 C1469 1.356 . S
N1467 H1472 0.984 . S
N1467 H1473 0.985 1_455 S
C1468 C1462 1.379 . S
C1468 C1465 1.363 . S
C1468 N1466 1.356 . S
C1469 C1463 1.363 . S
C1469 C1464 1.379 . S
C1469 N1467 1.356 . S
N1470 C1462 1.356 . S
N1470 H1476 0.984 . S
N1470 H1477 0.984 . S
N1471 C1464 1.356 . S
N1471 H1474 0.984 . S
N1471 H1475 0.985 . S
H1472 N1467 0.984 . S
H1473 N1467 0.985 1_655 S
H1474 N1471 0.984 . S
H1475 N1471 0.985 . S
H1476 N1470 0.984 . S
H1477 N1470 0.984 . S
H1478 N1466 0.984 . S
H1479 N1466 0.985 . S
C1480 C1481 1.363 . S
C1480 C1486 1.379 . S
C1480 N1488 1.356 . S
C1481 C1480 1.363 . S
C1481 C1487 1.363 . S
C1482 C1483 1.363 . S
C1482 C1487 1.379 . S
C1482 N1489 1.356 . S
C1483 C1482 1.363 . S
C1483 C1486 1.363 . S
N1484 C1486 1.356 . S
N1484 H1496 0.984 . S
N1484 H1497 0.985 . S
N1485 C1487 1.356 1_565 S
N1485 H1490 0.984 . S
N1485 H1491 0.985 . S
C1486 C1480 1.379 . S
C1486 C1483 1.363 . S
C1486 N1484 1.356 . S
C1487 C1481 1.363 . S
C1487 C1482 1.379 . S
C1487 N1485 1.356 1_545 S
N1488 C1480 1.356 . S
N1488 H1494 0.984 . S
N1488 H1495 0.984 . S
N1489 C1482 1.356 . S
N1489 H1492 0.984 . S
N1489 H1493 0.985 1_545 S
H1490 N1485 0.984 . S
H1491 N1485 0.985 . S
H1492 N1489 0.984 . S
H1493 N1489 0.985 1_565 S
H1494 N1488 0.984 . S
H1495 N1488 0.984 . S
H1496 N1484 0.984 . S
H1497 N1484 0.985 . S
C1498 C1499 1.363 . S
C1498 C1504 1.379 . S
C1498 N1506 1.356 . S
C1499 C1498 1.363 . S
C1499 C1505 1.363 . S
C1500 C1501 1.363 . S
C1500 C1505 1.379 . S
C1500 N1507 1.356 . S
C1501 C1500 1.363 . S
C1501 C1504 1.363 . S
N1502 C1504 1.356 . S
N1502 H1514 0.984 . S
N1502 H1515 0.985 . S
N1503 C1505 1.356 . S
N1503 H1508 0.984 . S
N1503 H1509 0.985 . S
C1504 C1498 1.379 . S
C1504 C1501 1.363 . S
C1504 N1502 1.356 . S
C1505 C1499 1.363 . S
C1505 C1500 1.379 . S
C1505 N1503 1.356 . S
N1506 C1498 1.356 . S
N1506 H1512 0.984 . S
N1506 H1513 0.984 . S
N1507 C1500 1.356 . S
N1507 H1510 0.984 . S
N1507 H1511 0.985 . S
H1508 N1503 0.984 . S
H1509 N1503 0.985 . S
H1510 N1507 0.984 . S
H1511 N1507 0.985 . S
H1512 N1506 0.984 . S
H1513 N1506 0.984 . S
H1514 N1502 0.984 . S
H1515 N1502 0.985 . S
C1516 C1517 1.363 . S
C1516 C1522 1.379 1_554 S
C1516 N1524 1.356 . S
C1517 C1516 1.363 . S
C1517 C1523 1.363 . S
C1518 C1519 1.363 . S
C1518 C1523 1.379 1_556 S
C1518 N1525 1.356 . S
C1519 C1518 1.363 . S
C1519 C1522 1.363 . S
N1520 C1522 1.356 . S
N1520 H1532 0.984 . S
N1520 H1533 0.985 . S
N1521 C1523 1.356 . S
N1521 H1526 0.984 . S
N1521 H1527 0.985 1_565 S
C1522 C1516 1.379 1_556 S
C1522 C1519 1.363 . S
C1522 N1520 1.356 . S
C1523 C1517 1.363 . S
C1523 C1518 1.379 1_554 S
C1523 N1521 1.356 . S
N1524 C1516 1.356 . S
N1524 H1530 0.984 . S
N1524 H1531 0.984 . S
N1525 C1518 1.356 . S
N1525 H1528 0.984 . S
N1525 H1529 0.985 . S
H1526 N1521 0.984 . S
H1527 N1521 0.985 1_545 S
H1528 N1525 0.984 . S
H1529 N1525 0.985 . S
H1530 N1524 0.984 . S
H1531 N1524 0.984 . S
H1532 N1520 0.984 . S
H1533 N1520 0.985 . S
C1534 C1535 1.363 . S
C1534 C1540 1.379 . S
C1534 N1542 1.356 . S
C1535 C1534 1.363 . S
C1535 C1541 1.363 . S
C1536 C1537 1.363 . S
C1536 C1541 1.379 . S
C1536 N1543 1.356 . S
C1537 C1536 1.363 . S
C1537 C1540 1.363 . S
N1538 C1540 1.356 . S
N1538 H1550 0.984 . S
N1538 H1551 0.985 . S
N1539 C1541 1.356 . S
N1539 H1544 0.984 . S
N1539 H1545 0.985 . S
C1540 C1534 1.379 . S
C1540 C1537 1.363 . S
C1540 N1538 1.356 . S
C1541 C1535 1.363 . S
C1541 C1536 1.379 . S
C1541 N1539 1.356 . S
N1542 C1534 1.356 . S
N1542 H1548 0.984 1_655 S
N1542 H1549 0.984 . S
N1543 C1536 1.356 . S
N1543 H1546 0.984 . S
N1543 H1547 0.985 . S
H1544 N1539 0.984 . S
H1545 N1539 0.985 . S
H1546 N1543 0.984 . S
H1547 N1543 0.985 . S
H1548 N1542 0.984 1_455 S
H1549 N1542 0.984 . S
H1550 N1538 0.984 . S
H1551 N1538 0.985 . S
C545 C1 1.596 . S
C547 C241 1.586 . S
C563 C35 1.532 . S
C565 C139 1.593 . S
C581 C71 1.494 . S
C583 C171 1.506 . S
C599 C205 1.700 . S
C601 C105 1.696 . S
C617 C275 1.543 . S
C619 C513 1.586 . S
C635 C307 1.699 . S
C637 C411 1.721 . S
C653 C445 1.535 . S
C655 C343 1.560 . S
C671 C377 1.736 . S
C673 C477 1.713 . S
C689 C391 2.464 . S
C691 C3 2.286 . S
C707 C37 1.869 1_445 S
C709 C448 1.966 . S
C725 C96 1.431 . S
C727 C323 1.421 . S
C743 C130 1.876 . S
C745 C527 1.875 . S
C761 C459 2.102 . S
C763 C137 1.985 . S
C779 C176 1.102 . S
C781 C334 1.036 . S
C797 C516 1.426 . S
C799 C207 1.559 . S
C815 C380 1.885 . S
C817 C239 1.840 . S
C833 C273 2.322 . S
C835 C119 2.494 . S
C851 C312 1.222 1_655 S
C853 C198 1.162 . S
C869 C368 1.066 . S
C871 C62 0.984 . S
C887 C255 1.772 . S
C889 C402 1.778 1_545 S
C905 C409 1.980 . S
C907 C187 2.099 1_545 S
C923 C51 1.526 . S
C925 C470 1.534 . S
C941 C244 1.384 . S
C943 C479 1.477 . S
C959 C511 1.643 1_645 S
C961 C108 1.704 . S
C977 C425 2.302 . S
C979 C173 2.117 . S
C995 C278 1.130 . S
C997 C210 1.175 . S
C1013 C493 1.257 . S
C1015 C266 1.266 . S
C1031 C357 1.784 . S
C1033 C164 1.789 . S
C1049 C289 2.020 . S
C1051 C103 1.946 . S
C1067 C504 0.889 . S
C1069 C6 0.927 . S
C1085 C40 0.935 . S
C1087 C346 0.869 . S
C1103 C414 1.731 . S
C1105 C69 1.683 . S
C1121 C443 2.259 . S
C1123 C153 2.416 . S
C1139 C28 1.158 . S
C1141 C482 1.209 . S
C1157 C538 1.471 . S
C1159 C221 1.459 . S
C1175 C436 1.890 . S
C1177 C85 1.885 . S
C1193 C375 1.888 . S
C1195 C17 1.986 . S
C1211 C232 0.859 . S
C1213 C300 0.888 . S
C1229 C74 1.385 . S
C1231 C309 1.508 . S
C1247 C341 1.702 . S
C1249 C142 1.778 . S
C1265 C219 1.580 . S
C1267 C15 1.565 . S
C1283 C260 1.573 . S
C1285 C49 1.582 1_545 S
C1301 C83 1.450 . S
C1303 C158 1.444 . S
C1319 C192 1.848 . S
C1321 C117 1.677 1_565 S
C1337 C294 1.539 . S
C1339 C491 1.558 . S
C1355 C328 1.545 . S
C1357 C532 1.609 1_545 S
C1373 C430 1.667 . S
C1375 C355 1.677 . S
C1391 C457 1.648 . S
C1393 C389 1.598 . S
C1409 C56 1.498 . S
C1411 C185 1.534 . S
C1427 C90 1.621 . S
C1429 C226 1.551 . S
C1445 C253 1.575 . S
C1447 C124 1.613 . S
C1463 C151 1.851 . S
C1465 C22 1.911 . S
C1481 C321 1.670 . S
C1483 C464 1.641 . S
C1499 C498 1.551 . S
C1501 C362 1.703 . S
C1517 C396 1.555 . S
C1519 C525 1.537 . S
C1535 C423 1.723 . S
C1537 C287 1.858 . S
