# Generated by pormake.
# Topology sow, (4)-cn, num edge types: 1
# Building blocks:
#     Node 0, Type 0, BuildingBlock: ESEHIV_clean_sbu_0, # of connection points: 4
#     Node 1, Type 0, BuildingBlock: ESEHIV_clean_sbu_0, # of connection points: 4
#     Node 2, Type 0, BuildingBlock: ESEHIV_clean_sbu_0, # of connection points: 4
#     Node 3, Type 0, BuildingBlock: ESEHIV_clean_sbu_0, # of connection points: 4
#     Node 4, Type 0, BuildingBlock: ESEHIV_clean_sbu_0, # of connection points: 4
#     Node 5, Type 0, BuildingBlock: ESEHIV_clean_sbu_0, # of connection points: 4
#     Node 6, Type 0, BuildingBlock: ESEHIV_clean_sbu_0, # of connection points: 4
#     Node 7, Type 0, BuildingBlock: ESEHIV_clean_sbu_0, # of connection points: 4
#     Edge 8, Type (0, 0), BuildingBlock: EZIPEK_clean_linker_0, # of connection points: 2
#     Edge 9, Type (0, 0), BuildingBlock: EZIPEK_clean_linker_0, # of connection points: 2
#     Edge 10, Type (0, 0), BuildingBlock: EZIPEK_clean_linker_0, # of connection points: 2
#     Edge 11, Type (0, 0), BuildingBlock: EZIPEK_clean_linker_0, # of connection points: 2
#     Edge 12, Type (0, 0), BuildingBlock: EZIPEK_clean_linker_0, # of connection points: 2
#     Edge 13, Type (0, 0), BuildingBlock: EZIPEK_clean_linker_0, # of connection points: 2
#     Edge 14, Type (0, 0), BuildingBlock: EZIPEK_clean_linker_0, # of connection points: 2
#     Edge 15, Type (0, 0), BuildingBlock: EZIPEK_clean_linker_0, # of connection points: 2
#     Edge 16, Type (0, 0), BuildingBlock: EZIPEK_clean_linker_0, # of connection points: 2
#     Edge 17, Type (0, 0), BuildingBlock: EZIPEK_clean_linker_0, # of connection points: 2
#     Edge 18, Type (0, 0), BuildingBlock: EZIPEK_clean_linker_0, # of connection points: 2
#     Edge 19, Type (0, 0), BuildingBlock: EZIPEK_clean_linker_0, # of connection points: 2
#     Edge 20, Type (0, 0), BuildingBlock: EZIPEK_clean_linker_0, # of connection points: 2
#     Edge 21, Type (0, 0), BuildingBlock: EZIPEK_clean_linker_0, # of connection points: 2
#     Edge 22, Type (0, 0), BuildingBlock: EZIPEK_clean_linker_0, # of connection points: 2
#     Edge 23, Type (0, 0), BuildingBlock: EZIPEK_clean_linker_0, # of connection points: 2
# Relax obj value: 0.069
# Max RMSD: 0.227
# Mean RMSD: 0.189
data_MOF--net-sow--node1-ESEHIV_clean_sbu_0--edge1-EZIPEK_clean_linker_0
_symmetry_space_group_name_H-M    P1
_symmetry_Int_Tables_number       1
_symmetry_cell_setting            triclinic
loop_
_symmetry_equiv_pos_as_xyz
'x, y, z'
_cell_length_a     36.213033
_cell_length_b     14.210526
_cell_length_c     17.046045
_cell_angle_alpha  91.279518
_cell_angle_beta   89.724492
_cell_angle_gamma 91.279969
loop_
_atom_site_label
_atom_site_type_symbol
_atom_site_fract_x
_atom_site_fract_y
_atom_site_fract_z
_atom_type_partial_charge
Cu0 Cu 0.15656 0.24964 0.15234 0.0
N1 N 0.18812 0.32648 0.21942 0.0
N2 N 0.25099 0.32278 0.32845 0.0
C3 C 0.23494 0.28347 0.23095 0.0
C4 C 0.21665 0.39147 0.38274 0.0
C5 C 0.17232 0.39476 0.30606 0.0
O6 O 0.19239 0.17521 0.09173 0.0
C7 C 0.09596 0.26659 0.2413 0.0
O8 O 0.10497 0.35274 0.22139 0.0
H9 H 0.20765 0.29503 0.20569 0.0
H10 H 0.14473 0.417 0.31985 0.0
N11 N 0.12444 0.28541 0.07147 0.0
N12 N 0.07569 0.24613 0.99487 0.0
C13 C 0.09702 0.22235 0.05526 0.0
C14 C 0.12131 0.35157 1.01646 0.0
C15 C 0.09127 0.32696 0.96856 0.0
C16 C 0.21085 0.23229 0.04851 0.0
O17 O 0.20243 0.32173 0.05158 0.0
H18 H 0.0927 0.15841 0.08772 0.0
H19 H 0.13986 0.41162 1.00999 0.0
O20 O 0.11815 0.20027 0.22286 0.0
H21 H 0.21777 0.41111 0.44433 0.0
H22 H 0.08205 0.36474 0.91806 0.0
Cu23 Cu 0.40656 0.29203 0.67606 0.0
N24 N 0.38269 0.29716 0.77383 0.0
N25 N 0.34049 0.27099 0.86766 0.0
C26 C 0.35088 0.25172 0.79288 0.0
C27 C 0.36697 0.32981 0.89711 0.0
C28 C 0.39301 0.34577 0.8391 0.0
O29 O 0.36892 0.26889 0.59661 0.0
C30 C 0.45057 0.14114 0.72981 0.0
O31 O 0.42125 0.10961 0.76744 0.0
H32 H 0.33518 0.20715 0.75226 0.0
H33 H 0.41758 0.3902 0.8439 0.0
N34 N 0.42923 0.40675 0.65106 0.0
N35 N 0.47141 0.50201 0.59613 0.0
C36 C 0.46495 0.41816 0.62976 0.0
C37 C 0.41266 0.48646 0.63087 0.0
C38 C 0.4387 0.54562 0.59715 0.0
C39 C 0.37484 0.24987 0.52445 0.0
O40 O 0.40848 0.2306 0.5009 0.0
H41 H 0.48524 0.36368 0.63363 0.0
H42 H 0.3833 0.49791 0.63538 0.0
O43 O 0.44737 0.20585 0.68016 0.0
H44 H 0.36716 0.35981 0.95602 0.0
H45 H 0.43373 0.61338 0.57188 0.0
Cu46 Cu 0.66284 0.23303 0.89429 0.0
N47 N 0.68913 0.28356 0.81004 0.0
N48 N 0.734 0.29531 0.72062 0.0
C49 C 0.72009 0.24601 0.78067 0.0
C50 C 0.71084 0.36703 0.71083 0.0
C51 C 0.68321 0.3602 0.76704 0.0
O52 O 0.69881 0.17217 0.95965 0.0
C53 C 0.60206 0.16956 0.80459 0.0
O54 O 0.60986 0.24644 0.76598 0.0
H55 H 0.73226 0.18355 0.80275 0.0
H56 H 0.66028 0.40692 0.77534 0.0
N57 N 0.63932 0.32625 0.95421 0.0
N58 N 0.59305 0.40713 1.00707 0.0
C59 C 0.60384 0.35131 0.94685 0.0
C60 C 0.65108 0.36839 0.02159 0.0
C61 C 0.62256 0.41885 0.05412 0.0
C62 C 0.72679 0.22041 0.98376 0.0
O63 O 0.73061 0.30851 0.96271 0.0
H64 H 0.58561 0.32549 0.90085 0.0
H65 H 0.67765 0.3588 0.04825 0.0
O66 O 0.62396 0.14483 0.85824 0.0
H67 H 0.71348 0.41935 0.66583 0.0
H68 H 0.62281 0.45724 0.1097 0.0
Cu69 Cu 0.8902 0.08743 0.39972 0.0
N70 N 0.87241 0.0704 0.29798 0.0
N71 N 0.83858 0.0851 0.19011 0.0
C72 C 0.8423 0.1088 0.26683 0.0
C73 C 0.86772 0.03128 0.17202 0.0
C74 C 0.88859 0.02234 0.23873 0.0
O75 O 0.85398 0.15211 0.46383 0.0
C76 C 0.94641 0.22596 0.36209 0.0
O77 O 0.92032 0.28305 0.34122 0.0
H78 H 0.82374 0.15412 0.29928 0.0
H79 H 0.91419 0.98511 0.24345 0.0
N80 N 0.90345 0.9736 0.44114 0.0
N81 N 0.95025 0.89084 0.48503 0.0
C82 C 0.93794 0.9444 0.42734 0.0
C83 C 0.89299 0.93414 0.50916 0.0
C84 C 0.92199 0.88235 0.53637 0.0
C85 C 0.85779 0.1707 0.53664 0.0
O86 O 0.8887 0.15045 0.57191 0.0
H87 H 0.95567 0.97333 0.38213 0.0
H88 H 0.8685 0.95201 0.54217 0.0
O89 O 0.93784 0.14887 0.39344 0.0
H90 H 0.87409 0.0039 0.11402 0.0
H91 H 0.92381 0.85097 0.59348 0.0
Cu92 Cu 0.89369 0.85708 0.94344 0.0
N93 N 0.91339 0.74824 0.89851 0.0
N94 N 0.95527 0.65597 0.84151 0.0
C95 C 0.94917 0.72538 0.89514 0.0
C96 C 0.92182 0.63218 0.81186 0.0
C97 C 0.89597 0.6886 0.84779 0.0
O98 O 0.93101 0.96059 0.93583 0.0
C99 C 0.85402 0.90657 0.80874 0.0
O100 O 0.88676 0.92656 0.77919 0.0
H101 H 0.97079 0.76496 0.92522 0.0
H102 H 0.86697 0.69118 0.83332 0.0
N103 N 0.87732 0.82877 0.04507 0.0
N104 N 0.83912 0.78703 0.14289 0.0
C105 C 0.84211 0.8275 0.07191 0.0
C106 C 0.89712 0.78793 0.10103 0.0
C107 C 0.87376 0.76283 0.16154 0.0
C108 C 0.95151 -0.0062 0.99098 0.0
O109 O 0.94795 0.96063 0.0619 0.0
H110 H 0.81895 0.85243 0.03891 0.0
H111 H 0.92626 0.77349 0.09645 0.0
O112 O 0.85103 0.88278 0.88005 0.0
H113 H 0.91688 0.58254 0.76374 0.0
H114 H 0.88136 0.72653 0.21404 0.0
Cu115 Cu 0.65568 0.80292 0.44792 0.0
N116 N 0.62244 0.89202 0.41396 0.0
N117 N 0.57448 0.94786 0.3493 0.0
C118 C 0.60096 0.88288 0.34995 0.0
C119 C 0.58026 0.00278 0.41383 0.0
C120 C 0.60991 0.96779 0.45389 0.0
O121 O 0.6272 0.68868 0.47398 0.0
C122 C 0.70793 0.72608 0.33184 0.0
O123 O 0.69119 0.64349 0.33708 0.0
H124 H 0.60336 0.82694 0.30639 0.0
H125 H 0.62002 -0.00813 0.51062 0.0
N126 N 0.67549 0.84088 0.54464 0.0
N127 N 0.71779 0.8634 0.63862 0.0
C128 C 0.71058 0.86775 0.56098 0.0
C129 C 0.65985 0.82114 0.6143 0.0
C130 C 0.68582 0.83479 0.67226 0.0
C131 C 0.59968 0.65285 0.43681 0.0
O132 O 0.59489 0.67208 0.36278 0.0
H133 H 0.73112 0.88294 0.51653 0.0
H134 H 0.63232 0.79161 0.62175 0.0
O135 O 0.69648 0.79585 0.37248 0.0
H136 H 0.56266 0.05932 0.43341 0.0
H137 H 0.68217 0.81951 0.73379 0.0
Cu138 Cu 0.38947 0.66388 0.06594 0.0
N139 N 0.4124 0.78114 0.08652 0.0
N140 N 0.45308 0.88032 0.1444 0.0
C141 C 0.4374 0.79365 0.14415 0.0
C142 C 0.43701 0.92572 0.08544 0.0
C143 C 0.41199 0.86392 0.04932 0.0
O144 O 0.42852 0.57763 0.04001 0.0
C145 C 0.34981 0.5491 0.17611 0.0
O146 O 0.36298 0.47514 0.13888 0.0
H147 H 0.44487 0.73926 0.18406 0.0
H148 H 0.39576 0.87815 0.99827 0.0
N149 N 0.35597 0.65846 0.98328 0.0
N150 N 0.31551 0.68569 0.88882 0.0
C151 C 0.34257 0.72326 0.9348 0.0
C152 C 0.33706 0.57815 0.96607 0.0
C153 C 0.31215 0.59455 0.90812 0.0
C154 C 0.45051 0.54618 0.09042 0.0
O155 O 0.44402 0.56001 0.16558 0.0
H156 H 0.35169 0.79599 0.93357 0.0
H157 H 0.34088 0.51216 0.99474 0.0
O158 O 0.36064 0.6314 0.15758 0.0
H159 H 0.44381 -0.00307 0.06825 0.0
H160 H 0.29296 0.54361 0.88183 0.0
Cu161 Cu 0.16098 0.69433 0.54369 0.0
N162 N 0.13604 0.60774 0.60931 0.0
N163 N 0.09196 0.56605 0.69549 0.0
C164 C 0.10003 0.61198 0.62907 0.0
C165 C 0.12388 0.52801 0.71772 0.0
C166 C 0.15095 0.55292 0.66394 0.0
O167 O 0.12545 0.78347 0.50604 0.0
C168 C 0.20288 0.76044 0.67425 0.0
O169 O 0.17145 0.75332 0.71228 0.0
H170 H 0.0807 0.65695 0.60147 0.0
H171 H 0.18014 0.54078 0.66969 0.0
N172 N 0.17957 0.63616 0.45332 0.0
N173 N 0.22175 0.59014 0.36538 0.0
C174 C 0.21376 0.6029 0.44224 0.0
C175 C 0.16533 0.64358 0.38097 0.0
C176 C 0.19131 0.61536 0.3266 0.0
C177 C 0.10243 0.82341 0.55125 0.0
O178 O 0.10918 0.82861 0.62677 0.0
H179 H 0.23339 0.59366 0.48861 0.0
H180 H 0.13896 0.67399 0.36839 0.0
O181 O 0.20311 0.7503 0.59991 0.0
H182 H 0.12809 0.49301 0.77262 0.0
H183 H 0.18875 0.61756 0.26343 0.0
C184 C 0.30815 0.18785 0.97558 0.0
C185 C 0.30668 0.24177 0.90659 0.0
C186 C 0.23923 0.24172 0.91717 0.0
C187 C 0.24128 0.20573 0.99382 0.0
N188 N 0.27777 0.14153 0.09661 0.0
N189 N 0.27079 0.33097 0.81697 0.0
C190 C 0.27571 0.17611 0.02278 0.0
C191 C 0.27212 0.27026 0.87784 0.0
N192 N 0.34056 0.14733 0.99517 0.0
N193 N 0.20546 0.25105 0.88324 0.0
H194 H 0.29438 0.35822 0.78966 0.0
H195 H 0.24653 0.36185 0.79889 0.0
H196 H 0.18105 0.2299 0.91135 0.0
H197 H 0.20207 0.27019 0.82511 0.0
H198 H 0.34298 0.10063 0.04099 0.0
H199 H 0.36435 0.15414 0.96077 0.0
H200 H 0.30259 0.13061 0.12526 0.0
H201 H 0.25435 0.12663 0.13025 0.0
C202 C 0.2772 0.23814 0.44042 0.0
C203 C 0.28245 0.28434 0.36814 0.0
C204 C 0.34848 0.30174 0.39487 0.0
C205 C 0.34374 0.25495 0.46734 0.0
N206 N 0.30503 0.15389 0.54662 0.0
N207 N 0.3254 0.31402 0.26315 0.0
C208 C 0.30843 0.21585 0.48664 0.0
C209 C 0.31878 0.30169 0.34085 0.0
N210 N 0.24234 0.21311 0.46382 0.0
N211 N 0.38015 0.3519 0.37897 0.0
H212 H 0.30474 0.30429 0.22152 0.0
H213 H 0.35201 0.32009 0.23984 0.0
H214 H 0.40176 0.36104 0.41869 0.0
H215 H 0.38294 0.3937 0.32965 0.0
H216 H 0.23585 0.19181 0.52039 0.0
H217 H 0.21973 0.21525 0.42638 0.0
H218 H 0.28067 0.11704 0.55955 0.0
H219 H 0.32759 0.13142 0.57846 0.0
C220 C 0.77293 0.09162 0.15025 0.0
C221 C 0.8106 0.11558 0.13699 0.0
C222 C 0.79343 0.19476 0.01648 0.0
C223 C 0.75534 0.1794 0.03457 0.0
N224 N 0.70969 0.11759 0.12747 0.0
N225 N 0.85588 0.20745 0.0665 0.0
C226 C 0.74536 0.12927 0.10317 0.0
C227 C 0.82067 0.1717 0.0723 0.0
N228 N 0.76208 0.03336 0.20871 0.0
N229 N 0.80381 0.22777 0.94474 0.0
H230 H 0.87616 0.19537 0.10806 0.0
H231 H 0.86388 0.25699 0.02523 0.0
H232 H 0.78503 0.24175 0.90058 0.0
H233 H 0.83118 0.23099 0.92574 0.0
H234 H 0.78037 -0.0002 0.24538 0.0
H235 H 0.78037 -0.0002 0.24538 0.0
H236 H 0.687 0.1466 0.10026 0.0
H237 H 0.687 0.1466 0.10026 0.0
C238 C 0.76121 0.18497 0.62596 0.0
C239 C 0.76476 0.26789 0.67215 0.0
C240 C 0.82856 0.29055 0.62694 0.0
C241 C 0.82572 0.2046 0.58297 0.0
N242 N 0.79129 0.06143 0.5504 0.0
N243 N 0.80281 0.3983 0.72071 0.0
C244 C 0.79239 0.14944 0.58454 0.0
C245 C 0.79845 0.32014 0.67385 0.0
N246 N 0.72697 0.14357 0.62203 0.0
N247 N 0.86006 0.34512 0.6242 0.0
H248 H 0.78229 0.42371 0.75828 0.0
H249 H 0.78229 0.42371 0.75828 0.0
H250 H 0.88267 0.32846 0.5888 0.0
H251 H 0.86298 0.4085 0.656 0.0
H252 H 0.71983 0.08557 0.58634 0.0
H253 H 0.71983 0.08557 0.58634 0.0
H254 H 0.76946 0.01367 0.55671 0.0
H255 H 0.81352 0.03212 0.52051 0.0
C256 C 0.8054 0.80023 0.26842 0.0
C257 C 0.80604 0.76979 0.18919 0.0
C258 C 0.74153 0.71398 0.20118 0.0
C259 C 0.74195 0.73794 0.28265 0.0
N260 N 0.77773 0.78262 0.39718 0.0
N261 N 0.77794 0.67604 0.08535 0.0
C262 C 0.77487 0.7757 0.31737 0.0
C263 C 0.77495 0.7207 0.15674 0.0
N264 N 0.83426 0.85513 0.29447 0.0
N265 N 0.70907 0.68804 0.16543 0.0
H266 H 0.8026 0.67484 0.0536 0.0
H267 H 0.75732 0.6317 0.06188 0.0
H268 H 0.68395 0.68368 0.19542 0.0
H269 H 0.7065 0.67922 0.10485 0.0
H270 H 0.83547 0.88818 0.34967 0.0
H271 H 0.83547 0.88818 0.34967 0.0
H272 H 0.80216 0.80067 0.42635 0.0
H273 H 0.75677 0.75953 0.43461 0.0
C274 C 0.78383 0.82228 0.65451 0.0
C275 C 0.75297 0.8763 0.67777 0.0
C276 C 0.79003 0.9579 0.77972 0.0
C277 C 0.8207 0.90248 0.75817 0.0
N278 N 0.84733 0.77866 0.67813 0.0
N279 N 0.72362 0.98046 0.76673 0.0
C280 C 0.81801 0.8349 0.69527 0.0
C281 C 0.75552 0.94042 0.74187 0.0
N282 N 0.77958 0.75477 0.59673 0.0
N283 N 0.79449 0.02911 0.83438 0.0
H284 H 0.72074 0.02056 0.81821 0.0
H285 H 0.72074 0.02056 0.81821 0.0
H286 H 0.81978 0.04549 0.86099 0.0
H287 H 0.77421 0.07677 0.84944 0.0
H288 H 0.80115 0.72002 0.56908 0.0
H289 H 0.75376 0.73187 0.57646 0.0
H290 H 0.84691 0.72325 0.63735 0.0
H291 H 0.87265 0.78474 0.70657 0.0
C292 C 0.26775 0.79601 0.84594 0.0
C293 C 0.29481 0.72833 0.82777 0.0
C294 C 0.26482 0.69008 0.70344 0.0
C295 C 0.2378 0.75934 0.71981 0.0
N296 N 0.22043 0.89665 0.79589 0.0
N297 N 0.32657 0.6375 0.72976 0.0
C298 C 0.24171 0.8189 0.78747 0.0
C299 C 0.2961 0.68611 0.75235 0.0
N300 N 0.26528 0.83348 0.92011 0.0
N301 N 0.2589 0.62083 0.64786 0.0
H302 H 0.34964 0.63329 0.76597 0.0
H303 H 0.33024 0.61074 0.67288 0.0
H304 H 0.23418 0.61171 0.61795 0.0
H305 H 0.27655 0.56454 0.63923 0.0
H306 H 0.24351 0.87518 0.93892 0.0
H307 H 0.2837 0.8177 0.96442 0.0
H308 H 0.22418 0.94668 0.84095 0.0
H309 H 0.20165 0.91584 0.75315 0.0
C310 C 0.28603 0.49061 0.21645 0.0
C311 C 0.31958 0.54007 0.23477 0.0
C312 C 0.28935 0.61694 0.34634 0.0
C313 C 0.2565 0.56337 0.33051 0.0
N314 N 0.22649 0.42823 0.2632 0.0
N315 N 0.35587 0.62464 0.33247 0.0
C316 C 0.25696 0.48959 0.27287 0.0
C317 C 0.32218 0.59393 0.30542 0.0
N318 N 0.28098 0.44738 0.14484 0.0
N319 N 0.28877 0.69508 0.39437 0.0
H320 H 0.38049 0.60731 0.30405 0.0
H321 H 0.35937 0.65806 0.3871 0.0
H322 H 0.26483 0.72061 0.42028 0.0
H323 H 0.31151 0.74074 0.40133 0.0
H324 H 0.25616 0.41426 0.12864 0.0
H325 H 0.30059 0.44877 0.10006 0.0
H326 H 0.20289 0.29358 0.31579 0.0
H327 H 0.21421 0.46591 0.21693 0.0
C328 C 1.027 0.27732 0.22613 0.0
C329 C 0.05779 0.2492 0.27126 0.0
C330 C 1.01549 0.21966 0.38161 0.0
C331 C 0.98483 0.23716 0.33241 0.0
N332 N 0.96271 0.24725 0.19916 0.0
N333 N 0.08054 0.18247 0.3901 0.0
C334 C 0.99086 0.25581 0.25227 0.0
C335 C 0.05174 0.2158 0.34825 0.0
N336 N 0.03139 0.3272 0.15914 0.0
N337 N 1.01024 0.21095 0.46059 0.0
H338 H 0.10762 0.18278 0.36901 0.0
H339 H 0.07714 0.14823 0.44313 0.0
H340 H 0.9844 0.21689 0.48734 0.0
H341 H 0.0318 0.20689 0.50047 0.0
H342 H 1.00928 0.36042 0.13334 0.0
H343 H 0.05663 0.34438 0.13376 0.0
H344 H 0.96709 0.25204 0.13883 0.0
H345 H 0.93614 0.22357 0.21353 0.0
C346 C 0.49985 0.13971 0.83419 0.0
C347 C 0.48852 0.11852 0.75582 0.0
C348 C 0.55337 0.09732 0.71702 0.0
C349 C 0.56468 0.12506 0.79393 0.0
N350 N 0.54697 0.14845 0.93091 0.0
N351 N 0.50306 0.05187 0.62878 0.0
C352 C 0.53766 0.13592 0.85404 0.0
C353 C 0.51494 0.08884 0.69919 0.0
N354 N 0.47514 0.16906 0.89005 0.0
N355 N 0.5796 0.08286 0.66041 0.0
H356 H 0.47507 0.04396 0.61516 0.0
H357 H 0.52041 0.02167 0.58688 0.0
H358 H 0.60776 0.08226 0.67333 0.0
H359 H 0.57372 0.07445 0.60095 0.0
H360 H 0.48296 0.18664 0.94752 0.0
H361 H 0.44731 0.17969 0.87939 0.0
H362 H 0.57374 0.14489 0.9526 0.0
H363 H 0.57374 0.14489 0.9526 0.0
C364 C 0.05199 0.67824 0.76472 0.0
C365 C 0.05988 0.58409 0.74369 0.0
C366 C 1.00062 0.53455 0.80129 0.0
C367 C 0.99056 0.63053 0.80863 0.0
N368 N 1.00394 0.79178 0.77355 0.0
N369 N 0.04083 0.42115 0.73705 0.0
C370 C 1.01551 0.70213 0.78396 0.0
C371 C 0.03398 0.51132 0.76098 0.0
N372 N 0.07966 0.74457 0.76783 0.0
N373 N 0.97884 0.46648 0.83431 0.0
H374 H 0.06525 0.40301 0.70834 0.0
H375 H 1.02148 0.36613 0.74123 0.0
H376 H 0.9551 0.48218 0.86645 0.0
H377 H 0.98601 0.39598 0.83561 0.0
H378 H 0.07565 0.8134 0.78816 0.0
H379 H 0.10712 0.72662 0.75937 0.0
H380 H 1.02096 0.84412 0.74974 0.0
H381 H 0.97634 0.81037 0.77854 0.0
C382 C 0.51862 0.92945 0.16451 0.0
C383 C 0.48268 0.91243 0.19525 0.0
C384 C 0.5073 0.9201 0.32881 0.0
C385 C 0.54273 0.94445 0.29848 0.0
N386 N 0.58081 0.98975 0.18939 0.0
N387 N 0.44129 0.91196 0.30568 0.0
C388 C 0.54786 0.95508 0.21673 0.0
C389 C 0.4766 0.91484 0.2773 0.0
N390 N 0.52534 0.91497 0.08634 0.0
N391 N 0.50337 0.89521 0.40538 0.0
H392 H 0.41836 0.90922 0.26876 0.0
H393 H 0.43484 0.92163 0.36491 0.0
H394 H 0.52548 0.89294 0.44409 0.0
H395 H 0.47885 0.86756 0.42841 0.0
H396 H 0.55176 0.91671 0.0619 0.0
H397 H 0.5049 0.89284 0.04684 0.0
H398 H 0.58533 0.00708 0.13101 0.0
H399 H 0.60251 0.00922 0.22688 0.0
C400 C 0.04923 0.09176 0.95512 0.0
C401 C 0.04408 0.18939 0.96777 0.0
C402 C 0.97667 0.15905 0.969 0.0
C403 C 0.98281 0.06092 0.97374 0.0
N404 N 1.02561 0.93325 0.97416 0.0
N405 N 1.00225 0.31817 0.98265 0.0
C406 C 1.01928 0.02699 0.96656 0.0
C407 C 1.00753 0.22405 0.97179 0.0
N408 N 0.08329 0.06161 0.93269 0.0
N409 N 0.94136 0.1899 0.96282 0.0
H410 H 1.02382 0.36769 0.98336 0.0
H411 H 0.97669 0.34718 0.99513 0.0
H412 H 0.91843 0.14411 0.96249 0.0
H413 H 0.93489 0.25932 0.95166 0.0
H414 H 0.08862 -0.00779 0.91613 0.0
H415 H 0.10526 0.10883 0.92282 0.0
H416 H 0.05193 0.90569 0.97812 0.0
H417 H 1.00448 0.88361 0.98258 0.0
C418 C 0.55371 0.51977 0.45887 0.0
C419 C 0.5684 0.60965 0.48162 0.0
C420 C 0.5226 0.61883 0.58816 0.0
C421 C 0.50517 0.53517 0.55941 0.0
N422 N 0.50019 0.41399 0.4587 0.0
N423 N 0.56052 0.75465 0.55687 0.0
C424 C 0.51976 0.48728 0.49256 0.0
C425 C 0.55131 0.66186 0.54365 0.0
N426 N 0.57248 0.46479 0.40616 0.0
N427 N 0.51196 0.65648 0.65887 0.0
H428 H 0.5797 0.79142 0.52298 0.0
H429 H 0.54618 0.79798 0.59598 0.0
H430 H 0.49131 0.62546 0.69322 0.0
H431 H 0.52608 0.71247 0.68666 0.0
H432 H 0.56505 0.39494 0.39319 0.0
H433 H 0.59747 0.48634 0.38084 0.0
H434 H 0.5076 0.38208 0.4055 0.0
H435 H 0.47457 0.39096 0.47982 0.0
C436 C 0.51234 0.56593 0.02428 0.0
C437 C 0.48627 0.50754 0.06436 0.0
C438 C 0.53099 0.38015 0.06404 0.0
C439 C 0.55634 0.43861 0.02303 0.0
N440 N 0.57114 0.58377 0.95937 0.0
N441 N 0.46809 0.35414 0.11052 0.0
C442 C 0.54674 0.5298 1.00117 0.0
C443 C 0.49486 0.41303 0.08106 0.0
N444 N 0.50583 0.65775 1.00887 0.0
N445 N 0.54214 0.29461 0.08885 0.0
H446 H 0.44136 0.37605 0.12316 0.0
H447 H 0.4713 0.28214 0.11689 0.0
H448 H 0.56829 0.26883 0.07609 0.0
H449 H 0.52663 0.25172 0.12581 0.0
H450 H 0.482 0.69311 0.02531 0.0
H451 H 0.482 0.69311 0.02531 0.0
H452 H 0.56521 0.65177 0.94196 0.0
H453 H 0.59684 0.55949 0.94107 0.0
C454 C 0.04886 0.9313 0.54901 0.0
C455 C 0.06477 0.84563 0.52293 0.0
C456 C 1.00546 0.79683 0.46278 0.0
C457 C 0.98869 0.87494 0.49924 0.0
N458 N 0.99317 0.01813 0.5769 0.0
N459 N 0.05668 0.69176 0.45783 0.0
C460 C 1.01008 0.94275 0.54236 0.0
C461 C 0.04291 0.77744 0.47947 0.0
N462 N 0.0712 0.00318 0.57702 0.0
N463 N 0.98543 0.74171 0.41102 0.0
H464 H 0.0838 0.67203 0.46548 0.0
H465 H 0.04023 0.63584 0.43671 0.0
H466 H 0.95746 0.75203 0.4005 0.0
H467 H 0.99707 0.69097 0.37408 0.0
H468 H 0.06201 0.07054 0.59038 0.0
H469 H 0.09988 -0.00171 0.57945 0.0
H470 H 1.00619 0.06455 0.61654 0.0
H471 H 0.96526 0.0316 0.56928 0.0
loop_
_geom_bond_atom_site_label_1
_geom_bond_atom_site_label_2
_geom_bond_distance
_geom_bond_site_symmetry_2
_ccdc_geom_bond_type
Cu0 N1 1.999 . S
Cu0 O6 1.974 . S
Cu0 N11 1.985 . S
Cu0 O20 1.959 . S
N1 Cu0 1.999 . S
N1 C3 1.263 . S
N1 C5 1.389 . S
N2 C3 1.358 . S
N2 C4 1.400 . S
C3 N1 1.263 . S
C3 N2 1.358 . S
C3 H9 0.930 . S
C4 N2 1.400 . S
C4 C5 1.351 . S
C4 H21 0.930 . S
C5 N1 1.389 . S
C5 C4 1.351 . S
C5 H10 0.930 . S
O6 Cu0 1.974 . S
O6 C16 1.282 . S
C7 O8 1.261 . S
C7 O20 1.251 . S
O8 C7 1.261 . S
H9 C3 0.930 . S
H10 C5 0.930 . S
N11 Cu0 1.985 . S
N11 C13 1.335 . S
N11 C14 1.391 . S
N12 C13 1.345 . S
N12 C15 1.336 1_554 S
C13 N11 1.335 . S
C13 N12 1.345 . S
C13 H18 0.930 . S
C14 N11 1.391 . S
C14 C15 1.346 1_554 S
C14 H19 0.930 1_554 S
C15 N12 1.336 1_556 S
C15 C14 1.346 1_556 S
C15 H22 0.929 . S
C16 O6 1.282 . S
C16 O17 1.216 . S
O17 C16 1.216 . S
H18 C13 0.930 . S
H19 C14 0.930 1_556 S
O20 Cu0 1.959 . S
O20 C7 1.251 . S
H21 C4 0.930 . S
H22 C15 0.929 . S
Cu23 N24 1.999 . S
Cu23 O29 1.974 . S
Cu23 N34 1.985 . S
Cu23 O43 1.959 . S
N24 Cu23 1.999 . S
N24 C26 1.263 . S
N24 C28 1.389 . S
N25 C26 1.358 . S
N25 C27 1.400 . S
C26 N24 1.263 . S
C26 N25 1.358 . S
C26 H32 0.930 . S
C27 N25 1.400 . S
C27 C28 1.351 . S
C27 H44 0.930 . S
C28 N24 1.389 . S
C28 C27 1.351 . S
C28 H33 0.930 . S
O29 Cu23 1.974 . S
O29 C39 1.282 . S
C30 O31 1.261 . S
C30 O43 1.251 . S
O31 C30 1.261 . S
H32 C26 0.930 . S
H33 C28 0.930 . S
N34 Cu23 1.985 . S
N34 C36 1.335 . S
N34 C37 1.390 . S
N35 C36 1.345 . S
N35 C38 1.336 . S
C36 N34 1.335 . S
C36 N35 1.345 . S
C36 H41 0.930 . S
C37 N34 1.390 . S
C37 C38 1.346 . S
C37 H42 0.930 . S
C38 N35 1.336 . S
C38 C37 1.346 . S
C38 H45 0.929 . S
C39 O29 1.282 . S
C39 O40 1.216 . S
O40 C39 1.216 . S
H41 C36 0.930 . S
H42 C37 0.930 . S
O43 Cu23 1.959 . S
O43 C30 1.251 . S
H44 C27 0.930 . S
H45 C38 0.929 . S
Cu46 N47 1.999 . S
Cu46 O52 1.974 . S
Cu46 N57 1.985 . S
Cu46 O66 1.959 . S
N47 Cu46 1.999 . S
N47 C49 1.263 . S
N47 C51 1.389 . S
N48 C49 1.358 . S
N48 C50 1.400 . S
C49 N47 1.263 . S
C49 N48 1.358 . S
C49 H55 0.930 . S
C50 N48 1.400 . S
C50 C51 1.351 . S
C50 H67 0.930 . S
C51 N47 1.389 . S
C51 C50 1.351 . S
C51 H56 0.930 . S
O52 Cu46 1.974 . S
O52 C62 1.282 . S
C53 O54 1.261 . S
C53 O66 1.251 . S
O54 C53 1.261 . S
H55 C49 0.930 . S
H56 C51 0.930 . S
N57 Cu46 1.985 . S
N57 C59 1.335 . S
N57 C60 1.392 . S
N58 C59 1.345 . S
N58 C61 1.336 1_556 S
C59 N57 1.335 . S
C59 N58 1.345 . S
C59 H64 0.930 . S
C60 N57 1.392 . S
C60 C61 1.345 1_556 S
C60 H65 0.929 1_556 S
C61 N58 1.336 1_554 S
C61 C60 1.345 1_554 S
C61 H68 0.929 . S
C62 O52 1.282 . S
C62 O63 1.216 . S
O63 C62 1.216 . S
H64 C59 0.930 . S
H65 C60 0.929 1_554 S
O66 Cu46 1.959 . S
O66 C53 1.251 . S
H67 C50 0.930 . S
H68 C61 0.929 . S
Cu69 N70 1.999 . S
Cu69 O75 1.974 . S
Cu69 N80 1.985 . S
Cu69 O89 1.959 . S
N70 Cu69 1.999 . S
N70 C72 1.263 . S
N70 C74 1.389 . S
N71 C72 1.358 . S
N71 C73 1.400 . S
C72 N70 1.263 . S
C72 N71 1.358 . S
C72 H78 0.930 . S
C73 N71 1.400 . S
C73 C74 1.351 . S
C73 H90 0.930 . S
C74 N70 1.389 . S
C74 C73 1.351 . S
C74 H79 0.930 . S
O75 Cu69 1.974 . S
O75 C85 1.282 . S
C76 O77 1.261 . S
C76 O89 1.251 . S
O77 C76 1.261 . S
H78 C72 0.930 . S
H79 C74 0.930 . S
N80 Cu69 1.985 . S
N80 C82 1.335 1_545 S
N80 C83 1.390 . S
N81 C82 1.345 . S
N81 C84 1.336 . S
C82 N80 1.335 1_565 S
C82 N81 1.345 . S
C82 H87 0.930 . S
C83 N80 1.390 . S
C83 C84 1.346 1_545 S
C83 H88 0.930 . S
C84 N81 1.336 . S
C84 C83 1.346 1_565 S
C84 H91 0.929 . S
C85 O75 1.282 . S
C85 O86 1.216 . S
O86 C85 1.216 . S
H87 C82 0.930 . S
H88 C83 0.930 . S
O89 Cu69 1.959 . S
O89 C76 1.251 . S
H90 C73 0.930 . S
H91 C84 0.929 . S
Cu92 N93 1.999 . S
Cu92 O98 1.971 1_556 S
Cu92 N103 1.985 1_566 S
Cu92 O112 1.959 . S
N93 Cu92 1.999 . S
N93 C95 1.263 . S
N93 C97 1.389 . S
N94 C95 1.358 . S
N94 C96 1.400 . S
C95 N93 1.263 . S
C95 N94 1.358 . S
C95 H101 0.930 . S
C96 N94 1.400 . S
C96 C97 1.351 . S
C96 H113 0.930 . S
C97 N93 1.389 . S
C97 C96 1.351 . S
C97 H102 0.930 . S
O98 Cu92 1.971 1_554 S
O98 C108 1.278 1_564 S
C99 O100 1.261 1_565 S
C99 O112 1.251 . S
O100 C99 1.261 1_545 S
H101 C95 0.930 . S
H102 C97 0.930 . S
N103 Cu92 1.985 1_544 S
N103 C105 1.333 1_545 S
N103 C106 1.390 . S
N104 C105 1.339 1_545 S
N104 C107 1.336 . S
C105 N103 1.333 1_565 S
C105 N104 1.339 1_565 S
C105 H110 0.937 . S
C106 N103 1.390 . S
C106 C107 1.346 . S
C106 H111 0.930 . S
C107 N104 1.336 . S
C107 C106 1.346 . S
C107 H114 0.929 . S
C108 O98 1.278 1_546 S
C108 O109 1.223 . S
O109 C108 1.223 . S
H110 C105 0.937 . S
H111 C106 0.930 . S
O112 Cu92 1.959 . S
O112 C99 1.251 . S
H113 C96 0.930 . S
H114 C107 0.929 . S
Cu115 N116 1.999 . S
Cu115 O121 1.974 . S
Cu115 N126 1.985 . S
Cu115 O135 1.959 1_565 S
N116 Cu115 1.999 . S
N116 C118 1.263 . S
N116 C120 1.389 1_565 S
N117 C118 1.358 . S
N117 C119 1.400 . S
C118 N116 1.263 . S
C118 N117 1.358 . S
C118 H124 0.930 . S
C119 N117 1.400 . S
C119 C120 1.351 1_565 S
C119 H136 0.930 1_565 S
C120 N116 1.389 1_545 S
C120 C119 1.351 1_545 S
C120 H125 0.930 . S
O121 Cu115 1.974 . S
O121 C131 1.282 . S
C122 O123 1.261 . S
C122 O135 1.251 1_565 S
O123 C122 1.261 . S
H124 C118 0.930 . S
H125 C120 0.930 . S
N126 Cu115 1.985 . S
N126 C128 1.335 1_565 S
N126 C129 1.390 . S
N127 C128 1.345 . S
N127 C130 1.336 1_545 S
C128 N126 1.335 1_545 S
C128 N127 1.345 . S
C128 H133 0.930 . S
C129 N126 1.390 . S
C129 C130 1.346 . S
C129 H134 0.930 . S
C130 N127 1.336 1_565 S
C130 C129 1.346 . S
C130 H137 0.929 . S
C131 O121 1.282 . S
C131 O132 1.216 . S
O132 C131 1.216 . S
H133 C128 0.930 . S
H134 C129 0.930 . S
O135 Cu115 1.959 1_545 S
O135 C122 1.251 1_545 S
H136 C119 0.930 1_545 S
H137 C130 0.929 . S
Cu138 N139 1.999 . S
Cu138 O144 1.970 1_554 S
Cu138 N149 1.985 1_554 S
Cu138 O158 1.959 . S
N139 Cu138 1.999 . S
N139 C141 1.263 . S
N139 C143 1.389 . S
N140 C141 1.358 . S
N140 C142 1.400 . S
C141 N139 1.263 . S
C141 N140 1.358 . S
C141 H147 0.930 . S
C142 N140 1.400 . S
C142 C143 1.351 . S
C142 H159 0.930 . S
C143 N139 1.389 . S
C143 C142 1.351 . S
C143 H148 0.930 . S
O144 Cu138 1.970 1_556 S
O144 C154 1.281 1_556 S
C145 O146 1.261 . S
C145 O158 1.251 . S
O146 C145 1.261 . S
H147 C141 0.930 . S
H148 C143 0.930 . S
N149 Cu138 1.985 1_556 S
N149 C151 1.335 . S
N149 C152 1.390 . S
N150 C151 1.345 . S
N150 C153 1.336 . S
C151 N149 1.335 . S
C151 N150 1.345 . S
C151 H156 0.930 . S
C152 N149 1.390 . S
C152 C153 1.346 . S
C152 H157 0.930 . S
C153 N150 1.336 . S
C153 C152 1.346 . S
C153 H160 0.929 . S
C154 O144 1.281 1_554 S
C154 O155 1.224 . S
O155 C154 1.224 . S
H156 C151 0.930 . S
H157 C152 0.930 . S
O158 Cu138 1.959 . S
O158 C145 1.251 . S
H159 C142 0.930 . S
H160 C153 0.929 . S
Cu161 N162 1.999 . S
Cu161 O167 1.974 . S
Cu161 N172 1.985 . S
Cu161 O181 1.959 . S
N162 Cu161 1.999 . S
N162 C164 1.263 . S
N162 C166 1.389 . S
N163 C164 1.358 . S
N163 C165 1.400 . S
C164 N162 1.263 . S
C164 N163 1.358 . S
C164 H170 0.930 . S
C165 N163 1.400 . S
C165 C166 1.351 . S
C165 H182 0.930 . S
C166 N162 1.389 . S
C166 C165 1.351 . S
C166 H171 0.930 . S
O167 Cu161 1.974 . S
O167 C177 1.282 . S
C168 O169 1.261 . S
C168 O181 1.251 . S
O169 C168 1.261 . S
H170 C164 0.930 . S
H171 C166 0.930 . S
N172 Cu161 1.985 . S
N172 C174 1.335 . S
N172 C175 1.390 . S
N173 C174 1.345 . S
N173 C176 1.336 . S
C174 N172 1.335 . S
C174 N173 1.345 . S
C174 H179 0.930 . S
C175 N172 1.390 . S
C175 C176 1.346 . S
C175 H180 0.930 . S
C176 N173 1.336 . S
C176 C175 1.346 . S
C176 H183 0.929 . S
C177 O167 1.282 . S
C177 O178 1.216 . S
O178 C177 1.216 . S
H179 C174 0.930 . S
H180 C175 0.930 . S
O181 Cu161 1.959 . S
O181 C168 1.251 . S
H182 C165 0.930 . S
H183 C176 0.929 . S
C184 C185 1.363 . S
C184 C190 1.369 1_556 S
C184 N192 1.356 . S
C185 C184 1.363 . S
C185 C191 1.363 . S
C186 C187 1.363 . S
C186 C191 1.379 . S
C186 N193 1.356 . S
C187 C186 1.363 . S
C187 C190 1.360 1_556 S
N188 C190 1.370 . S
N188 H200 0.984 . S
N188 H201 0.985 . S
N189 C191 1.356 . S
N189 H194 0.984 . S
N189 H195 0.985 . S
C190 C184 1.369 1_554 S
C190 C187 1.360 1_554 S
C190 N188 1.370 . S
C191 C185 1.363 . S
C191 C186 1.379 . S
C191 N189 1.356 . S
N192 C184 1.356 . S
N192 H198 0.984 . S
N192 H199 0.984 . S
N193 C186 1.356 . S
N193 H196 0.984 . S
N193 H197 0.985 . S
H194 N189 0.984 . S
H195 N189 0.985 . S
H196 N193 0.984 . S
H197 N193 0.985 . S
H198 N192 0.984 . S
H199 N192 0.984 . S
H200 N188 0.984 . S
H201 N188 0.985 . S
C202 C203 1.363 . S
C202 C208 1.379 . S
C202 N210 1.356 . S
C203 C202 1.363 . S
C203 C209 1.363 . S
C204 C205 1.363 . S
C204 C209 1.379 . S
C204 N211 1.356 . S
C205 C204 1.363 . S
C205 C208 1.363 . S
N206 C208 1.356 . S
N206 H218 0.984 . S
N206 H219 0.985 . S
N207 C209 1.356 . S
N207 H212 0.984 . S
N207 H213 0.985 . S
C208 C202 1.379 . S
C208 C205 1.363 . S
C208 N206 1.356 . S
C209 C203 1.363 . S
C209 C204 1.379 . S
C209 N207 1.356 . S
N210 C202 1.356 . S
N210 H216 0.984 . S
N210 H217 0.984 . S
N211 C204 1.356 . S
N211 H214 0.984 . S
N211 H215 0.985 . S
H212 N207 0.984 . S
H213 N207 0.985 . S
H214 N211 0.984 . S
H215 N211 0.985 . S
H216 N210 0.984 . S
H217 N210 0.984 . S
H218 N206 0.984 . S
H219 N206 0.985 . S
C220 C221 1.363 . S
C220 C226 1.379 . S
C220 N228 1.356 . S
C221 C220 1.363 . S
C221 C227 1.363 . S
C222 C223 1.363 . S
C222 C227 1.379 . S
C222 N229 1.356 1_554 S
C223 C222 1.363 . S
C223 C226 1.363 . S
N224 C226 1.356 1_565 S
N224 H236 0.984 . S
N224 H237 0.985 1_554 S
N225 C227 1.356 . S
N225 H230 0.984 . S
N225 H231 0.985 . S
C226 C220 1.379 . S
C226 C223 1.363 . S
C226 N224 1.356 1_545 S
C227 C221 1.363 . S
C227 C222 1.379 . S
C227 N225 1.356 . S
N228 C220 1.356 . S
N228 H234 0.984 1_545 S
N228 H235 0.984 . S
N229 C222 1.356 1_556 S
N229 H232 0.984 . S
N229 H233 0.985 . S
H230 N225 0.984 . S
H231 N225 0.985 . S
H232 N229 0.984 . S
H233 N229 0.985 . S
H234 N228 0.984 1_565 S
H235 N228 0.984 . S
H236 N224 0.984 . S
H237 N224 0.985 1_556 S
C238 C239 1.363 . S
C238 C244 1.379 . S
C238 N246 1.356 1_545 S
C239 C238 1.363 . S
C239 C245 1.363 . S
C240 C241 1.363 . S
C240 C245 1.379 . S
C240 N247 1.356 . S
C241 C240 1.363 . S
C241 C244 1.363 . S
N242 C244 1.356 1_565 S
N242 H254 0.984 . S
N242 H255 0.985 . S
N243 C245 1.356 . S
N243 H248 0.984 . S
N243 H249 0.985 . S
C244 C238 1.379 . S
C244 C241 1.363 . S
C244 N242 1.356 1_545 S
C245 C239 1.363 . S
C245 C240 1.379 . S
C245 N243 1.356 . S
N246 C238 1.356 1_565 S
N246 H252 0.984 . S
N246 H253 0.985 . S
N247 C240 1.356 . S
N247 H250 0.984 . S
N247 H251 0.985 . S
H248 N243 0.984 . S
H249 N243 0.985 . S
H250 N247 0.984 . S
H251 N247 0.985 . S
H252 N246 0.984 . S
H253 N246 0.985 . S
H254 N242 0.984 . S
H255 N242 0.985 . S
C256 C257 1.363 . S
C256 C262 1.379 . S
C256 N264 1.356 . S
C257 C256 1.363 . S
C257 C263 1.363 1_545 S
C258 C259 1.363 1_565 S
C258 C263 1.379 . S
C258 N265 1.356 . S
C259 C258 1.363 1_545 S
C259 C262 1.363 . S
N260 C262 1.356 . S
N260 H272 0.984 . S
N260 H273 0.985 . S
N261 C263 1.356 . S
N261 H266 0.984 . S
N261 H267 0.985 . S
C262 C256 1.379 . S
C262 C259 1.363 . S
C262 N260 1.356 . S
C263 C257 1.363 1_565 S
C263 C258 1.379 . S
C263 N261 1.356 . S
N264 C256 1.356 . S
N264 H270 0.984 . S
N264 H271 0.984 . S
N265 C258 1.356 . S
N265 H268 0.984 . S
N265 H269 0.985 . S
H266 N261 0.984 . S
H267 N261 0.985 . S
H268 N265 0.984 . S
H269 N265 0.985 . S
H270 N264 0.984 . S
H271 N264 0.984 . S
H272 N260 0.984 . S
H273 N260 0.985 . S
C274 C275 1.363 1_565 S
C274 C280 1.379 . S
C274 N282 1.356 . S
C275 C274 1.363 1_545 S
C275 C281 1.363 . S
C276 C277 1.363 1_545 S
C276 C281 1.379 . S
C276 N283 1.356 . S
C277 C276 1.363 1_565 S
C277 C280 1.363 . S
N278 C280 1.356 . S
N278 H290 0.984 . S
N278 H291 0.985 . S
N279 C281 1.356 . S
N279 H284 0.984 . S
N279 H285 0.985 . S
C280 C274 1.379 . S
C280 C277 1.363 . S
C280 N278 1.356 . S
C281 C275 1.363 . S
C281 C276 1.379 . S
C281 N279 1.356 . S
N282 C274 1.356 . S
N282 H288 0.984 . S
N282 H289 0.984 . S
N283 C276 1.356 . S
N283 H286 0.984 . S
N283 H287 0.985 . S
H284 N279 0.984 . S
H285 N279 0.985 . S
H286 N283 0.984 . S
H287 N283 0.985 . S
H288 N282 0.984 . S
H289 N282 0.984 . S
H290 N278 0.984 . S
H291 N278 0.985 . S
C292 C293 1.363 . S
C292 C298 1.379 . S
C292 N300 1.356 . S
C293 C292 1.363 . S
C293 C299 1.363 . S
C294 C295 1.363 . S
C294 C299 1.379 . S
C294 N301 1.356 . S
C295 C294 1.363 . S
C295 C298 1.363 . S
N296 C298 1.356 . S
N296 H308 0.984 . S
N296 H309 0.985 . S
N297 C299 1.356 . S
N297 H302 0.984 . S
N297 H303 0.985 . S
C298 C292 1.379 . S
C298 C295 1.363 . S
C298 N296 1.356 . S
C299 C293 1.363 . S
C299 C294 1.379 . S
C299 N297 1.356 . S
N300 C292 1.356 . S
N300 H306 0.984 . S
N300 H307 0.984 . S
N301 C294 1.356 . S
N301 H304 0.984 . S
N301 H305 0.985 . S
H302 N297 0.984 . S
H303 N297 0.985 . S
H304 N301 0.984 . S
H305 N301 0.985 . S
H306 N300 0.984 . S
H307 N300 0.984 . S
H308 N296 0.984 . S
H309 N296 0.985 . S
C310 C311 1.363 . S
C310 C316 1.379 . S
C310 N318 1.356 . S
C311 C310 1.363 . S
C311 C317 1.363 . S
C312 C313 1.363 . S
C312 C317 1.379 . S
C312 N319 1.356 . S
C313 C312 1.363 . S
C313 C316 1.363 . S
N314 C316 1.356 . S
N314 H326 0.984 . S
N314 H327 0.985 . S
N315 C317 1.356 . S
N315 H320 0.984 . S
N315 H321 0.985 . S
C316 C310 1.379 . S
C316 C313 1.363 . S
C316 N314 1.356 . S
C317 C311 1.363 . S
C317 C312 1.379 . S
C317 N315 1.356 . S
N318 C310 1.356 . S
N318 H324 0.984 . S
N318 H325 0.984 . S
N319 C312 1.356 . S
N319 H322 0.984 . S
N319 H323 0.985 . S
H320 N315 0.984 . S
H321 N315 0.985 . S
H322 N319 0.984 . S
H323 N319 0.985 . S
H324 N318 0.984 . S
H325 N318 0.984 . S
H326 N314 0.984 . S
H327 N314 0.985 . S
C328 C329 1.363 . S
C328 C334 1.379 1_455 S
C328 N336 1.356 . S
C329 C328 1.363 . S
C329 C335 1.363 . S
C330 C331 1.363 1_455 S
C330 C335 1.379 . S
C330 N337 1.356 1_455 S
C331 C330 1.363 1_655 S
C331 C334 1.363 . S
N332 C334 1.356 . S
N332 H344 0.984 . S
N332 H345 0.985 . S
N333 C335 1.356 . S
N333 H338 0.984 . S
N333 H339 0.985 . S
C334 C328 1.379 1_655 S
C334 C331 1.363 . S
C334 N332 1.356 . S
C335 C329 1.363 . S
C335 C330 1.379 . S
C335 N333 1.356 . S
N336 C328 1.356 . S
N336 H342 0.984 . S
N336 H343 0.984 . S
N337 C330 1.356 1_655 S
N337 H340 0.984 . S
N337 H341 0.985 . S
H338 N333 0.984 . S
H339 N333 0.985 . S
H340 N337 0.984 . S
H341 N337 0.985 . S
H342 N336 0.984 . S
H343 N336 0.984 . S
H344 N332 0.984 . S
H345 N332 0.985 . S
C346 C347 1.363 . S
C346 C352 1.379 . S
C346 N354 1.356 . S
C347 C346 1.363 . S
C347 C353 1.363 . S
C348 C349 1.363 . S
C348 C353 1.379 . S
C348 N355 1.356 . S
C349 C348 1.363 . S
C349 C352 1.363 . S
N350 C352 1.356 . S
N350 H362 0.984 . S
N350 H363 0.985 . S
N351 C353 1.356 . S
N351 H356 0.984 . S
N351 H357 0.985 . S
C352 C346 1.379 . S
C352 C349 1.363 . S
C352 N350 1.356 . S
C353 C347 1.363 . S
C353 C348 1.379 . S
C353 N351 1.356 . S
N354 C346 1.356 . S
N354 H360 0.984 . S
N354 H361 0.984 . S
N355 C348 1.356 . S
N355 H358 0.984 . S
N355 H359 0.985 . S
H356 N351 0.984 . S
H357 N351 0.985 . S
H358 N355 0.984 . S
H359 N355 0.985 . S
H360 N354 0.984 . S
H361 N354 0.984 . S
H362 N350 0.984 . S
H363 N350 0.985 . S
C364 C365 1.363 . S
C364 C370 1.379 1_455 S
C364 N372 1.356 . S
C365 C364 1.363 . S
C365 C371 1.363 1_455 S
C366 C367 1.363 . S
C366 C371 1.379 . S
C366 N373 1.356 . S
C367 C366 1.363 . S
C367 C370 1.363 . S
N368 C370 1.356 . S
N368 H380 0.984 1_655 S
N368 H381 0.985 . S
N369 C371 1.356 . S
N369 H374 0.984 1_655 S
N369 H375 0.985 . S
C370 C364 1.379 1_655 S
C370 C367 1.363 . S
C370 N368 1.356 . S
C371 C365 1.363 1_655 S
C371 C366 1.379 . S
C371 N369 1.356 . S
N372 C364 1.356 . S
N372 H378 0.984 . S
N372 H379 0.984 . S
N373 C366 1.356 . S
N373 H376 0.984 . S
N373 H377 0.985 . S
H374 N369 0.984 1_455 S
H375 N369 0.985 . S
H376 N373 0.984 . S
H377 N373 0.985 . S
H378 N372 0.984 . S
H379 N372 0.984 . S
H380 N368 0.984 1_455 S
H381 N368 0.985 . S
C382 C383 1.363 . S
C382 C388 1.379 . S
C382 N390 1.356 . S
C383 C382 1.363 . S
C383 C389 1.363 . S
C384 C385 1.363 . S
C384 C389 1.379 . S
C384 N391 1.356 . S
C385 C384 1.363 . S
C385 C388 1.363 . S
N386 C388 1.356 . S
N386 H398 0.984 . S
N386 H399 0.985 . S
N387 C389 1.356 . S
N387 H392 0.984 . S
N387 H393 0.985 . S
C388 C382 1.379 . S
C388 C385 1.363 . S
C388 N386 1.356 . S
C389 C383 1.363 . S
C389 C384 1.379 . S
C389 N387 1.356 . S
N390 C382 1.356 . S
N390 H396 0.984 . S
N390 H397 0.984 . S
N391 C384 1.356 . S
N391 H394 0.984 . S
N391 H395 0.985 . S
H392 N387 0.984 . S
H393 N387 0.985 . S
H394 N391 0.984 . S
H395 N391 0.985 . S
H396 N390 0.984 . S
H397 N390 0.984 . S
H398 N386 0.984 . S
H399 N386 0.985 . S
C400 C401 1.357 1_554 S
C400 C406 1.379 1_455 S
C400 N408 1.356 . S
C401 C400 1.357 1_556 S
C401 C407 1.368 1_455 S
C402 C403 1.363 1_556 S
C402 C407 1.379 . S
C402 N409 1.356 . S
C403 C402 1.363 1_554 S
C403 C406 1.363 . S
N404 C406 1.356 . S
N404 H416 0.984 . S
N404 H417 0.985 . S
N405 C407 1.356 1_455 S
N405 H410 0.984 . S
N405 H411 0.985 1_455 S
C406 C400 1.379 1_655 S
C406 C403 1.363 . S
C406 N404 1.356 . S
C407 C401 1.368 1_655 S
C407 C402 1.379 . S
C407 N405 1.356 1_655 S
N408 C400 1.356 . S
N408 H414 0.984 . S
N408 H415 0.984 . S
N409 C402 1.356 . S
N409 H412 0.984 . S
N409 H413 0.985 . S
H410 N405 0.984 . S
H411 N405 0.985 1_655 S
H412 N409 0.984 . S
H413 N409 0.985 . S
H414 N408 0.984 . S
H415 N408 0.984 . S
H416 N404 0.984 . S
H417 N404 0.985 . S
C418 C419 1.363 . S
C418 C424 1.379 . S
C418 N426 1.356 . S
C419 C418 1.363 . S
C419 C425 1.363 . S
C420 C421 1.363 . S
C420 C425 1.379 . S
C420 N427 1.356 . S
C421 C420 1.363 . S
C421 C424 1.363 . S
N422 C424 1.356 . S
N422 H434 0.984 . S
N422 H435 0.985 . S
N423 C425 1.356 . S
N423 H428 0.984 . S
N423 H429 0.985 . S
C424 C418 1.379 . S
C424 C421 1.363 . S
C424 N422 1.356 . S
C425 C419 1.363 . S
C425 C420 1.379 . S
C425 N423 1.356 . S
N426 C418 1.356 . S
N426 H432 0.984 . S
N426 H433 0.984 . S
N427 C420 1.356 . S
N427 H430 0.984 . S
N427 H431 0.985 . S
H428 N423 0.984 . S
H429 N423 0.985 . S
H430 N427 0.984 . S
H431 N427 0.985 . S
H432 N426 0.984 . S
H433 N426 0.984 . S
H434 N422 0.984 . S
H435 N422 0.985 . S
C436 C437 1.363 1_554 S
C436 C442 1.379 . S
C436 N444 1.356 . S
C437 C436 1.363 1_556 S
C437 C443 1.363 . S
C438 C439 1.358 1_556 S
C438 C443 1.379 . S
C438 N445 1.356 . S
C439 C438 1.358 1_554 S
C439 C442 1.367 . S
N440 C442 1.356 . S
N440 H452 0.984 . S
N440 H453 0.985 . S
N441 C443 1.356 . S
N441 H446 0.984 . S
N441 H447 0.985 . S
C442 C436 1.379 . S
C442 C439 1.367 . S
C442 N440 1.356 . S
C443 C437 1.363 . S
C443 C438 1.379 . S
C443 N441 1.356 . S
N444 C436 1.356 . S
N444 H450 0.984 . S
N444 H451 0.984 . S
N445 C438 1.356 . S
N445 H448 0.984 . S
N445 H449 0.985 . S
H446 N441 0.984 . S
H447 N441 0.985 . S
H448 N445 0.984 . S
H449 N445 0.985 . S
H450 N444 0.984 . S
H451 N444 0.984 . S
H452 N440 0.984 . S
H453 N440 0.985 . S
C454 C455 1.363 . S
C454 C460 1.379 . S
C454 N462 1.356 . S
C455 C454 1.363 . S
C455 C461 1.363 . S
C456 C457 1.363 . S
C456 C461 1.379 1_655 S
C456 N463 1.356 . S
C457 C456 1.363 . S
C457 C460 1.363 1_655 S
N458 C460 1.356 . S
N458 H470 0.984 . S
N458 H471 0.985 1_465 S
N459 C461 1.356 . S
N459 H464 0.984 . S
N459 H465 0.985 . S
C460 C454 1.379 . S
C460 C457 1.363 1_455 S
C460 N458 1.356 . S
C461 C455 1.363 . S
C461 C456 1.379 1_455 S
C461 N459 1.356 . S
N462 C454 1.356 . S
N462 H468 0.984 . S
N462 H469 0.984 . S
N463 C456 1.356 . S
N463 H466 0.984 . S
N463 H467 0.985 . S
H464 N459 0.984 . S
H465 N459 0.985 . S
H466 N463 0.984 . S
H467 N463 0.985 . S
H468 N462 0.984 . S
H469 N462 0.984 . S
H470 N458 0.984 . S
H471 N458 0.985 1_645 S
C185 N25 1.852 . S
C187 C16 2.069 1_556 S
C203 N2 1.748 . S
C205 C39 1.801 . S
C221 N71 1.852 . S
C223 C62 2.069 1_554 S
C239 N48 1.749 . S
C241 C85 1.801 . S
C257 N104 1.845 . S
C259 C122 1.890 1_545 S
C275 N127 1.725 . S
C277 C99 1.826 . S
C293 N150 1.845 . S
C295 C168 1.890 . S
C311 C145 1.826 . S
C313 N173 1.725 . S
C329 C7 1.539 . S
C331 C76 1.552 . S
C347 C30 1.552 . S
C349 C53 1.539 . S
C365 N163 1.603 . S
C367 N94 1.349 . S
C383 N140 1.350 . S
C385 N117 1.604 . S
C401 N12 1.510 1_556 S
C403 C108 1.423 1_554 S
C419 C131 1.564 . S
C421 N35 1.651 . S
C437 C154 1.422 1_556 S
C439 N58 1.509 1_554 S
C455 C177 1.565 . S
C457 N81 1.651 . S
