# Generated by pormake.
# Topology wfx, (7)-cn, num edge types: 1
# Building blocks:
#     Node 0, Type 0, BuildingBlock: NUHQUE_clean_sbu_2, # of connection points: 7
#     Node 1, Type 0, BuildingBlock: NUHQUE_clean_sbu_2, # of connection points: 7
#     Node 2, Type 0, BuildingBlock: NUHQUE_clean_sbu_2, # of connection points: 7
#     Node 3, Type 0, BuildingBlock: NUHQUE_clean_sbu_2, # of connection points: 7
#     Node 4, Type 0, BuildingBlock: NUHQUE_clean_sbu_2, # of connection points: 7
#     Node 5, Type 0, BuildingBlock: NUHQUE_clean_sbu_2, # of connection points: 7
#     Node 6, Type 0, BuildingBlock: NUHQUE_clean_sbu_2, # of connection points: 7
#     Node 7, Type 0, BuildingBlock: NUHQUE_clean_sbu_2, # of connection points: 7
#     Node 8, Type 0, BuildingBlock: NUHQUE_clean_sbu_2, # of connection points: 7
#     Node 9, Type 0, BuildingBlock: NUHQUE_clean_sbu_2, # of connection points: 7
#     Node 10, Type 0, BuildingBlock: NUHQUE_clean_sbu_2, # of connection points: 7
#     Node 11, Type 0, BuildingBlock: NUHQUE_clean_sbu_2, # of connection points: 7
#     Node 12, Type 0, BuildingBlock: NUHQUE_clean_sbu_2, # of connection points: 7
#     Node 13, Type 0, BuildingBlock: NUHQUE_clean_sbu_2, # of connection points: 7
#     Node 14, Type 0, BuildingBlock: NUHQUE_clean_sbu_2, # of connection points: 7
#     Node 15, Type 0, BuildingBlock: NUHQUE_clean_sbu_2, # of connection points: 7
#     Edge 16, Type (0, 0), BuildingBlock: EZIPEK_clean_linker_0, # of connection points: 2
#     Edge 17, Type (0, 0), BuildingBlock: EZIPEK_clean_linker_0, # of connection points: 2
#     Edge 18, Type (0, 0), BuildingBlock: EZIPEK_clean_linker_0, # of connection points: 2
#     Edge 19, Type (0, 0), BuildingBlock: EZIPEK_clean_linker_0, # of connection points: 2
#     Edge 20, Type (0, 0), BuildingBlock: EZIPEK_clean_linker_0, # of connection points: 2
#     Edge 21, Type (0, 0), BuildingBlock: EZIPEK_clean_linker_0, # of connection points: 2
#     Edge 22, Type (0, 0), BuildingBlock: EZIPEK_clean_linker_0, # of connection points: 2
#     Edge 23, Type (0, 0), BuildingBlock: EZIPEK_clean_linker_0, # of connection points: 2
#     Edge 24, Type (0, 0), BuildingBlock: EZIPEK_clean_linker_0, # of connection points: 2
#     Edge 25, Type (0, 0), BuildingBlock: EZIPEK_clean_linker_0, # of connection points: 2
#     Edge 26, Type (0, 0), BuildingBlock: EZIPEK_clean_linker_0, # of connection points: 2
#     Edge 27, Type (0, 0), BuildingBlock: EZIPEK_clean_linker_0, # of connection points: 2
#     Edge 28, Type (0, 0), BuildingBlock: EZIPEK_clean_linker_0, # of connection points: 2
#     Edge 29, Type (0, 0), BuildingBlock: EZIPEK_clean_linker_0, # of connection points: 2
#     Edge 30, Type (0, 0), BuildingBlock: EZIPEK_clean_linker_0, # of connection points: 2
#     Edge 31, Type (0, 0), BuildingBlock: EZIPEK_clean_linker_0, # of connection points: 2
#     Edge 32, Type (0, 0), BuildingBlock: EZIPEK_clean_linker_0, # of connection points: 2
#     Edge 33, Type (0, 0), BuildingBlock: EZIPEK_clean_linker_0, # of connection points: 2
#     Edge 34, Type (0, 0), BuildingBlock: EZIPEK_clean_linker_0, # of connection points: 2
#     Edge 35, Type (0, 0), BuildingBlock: EZIPEK_clean_linker_0, # of connection points: 2
#     Edge 36, Type (0, 0), BuildingBlock: EZIPEK_clean_linker_0, # of connection points: 2
#     Edge 37, Type (0, 0), BuildingBlock: EZIPEK_clean_linker_0, # of connection points: 2
#     Edge 38, Type (0, 0), BuildingBlock: EZIPEK_clean_linker_0, # of connection points: 2
#     Edge 39, Type (0, 0), BuildingBlock: EZIPEK_clean_linker_0, # of connection points: 2
#     Edge 40, Type (0, 0), BuildingBlock: EZIPEK_clean_linker_0, # of connection points: 2
#     Edge 41, Type (0, 0), BuildingBlock: EZIPEK_clean_linker_0, # of connection points: 2
#     Edge 42, Type (0, 0), BuildingBlock: EZIPEK_clean_linker_0, # of connection points: 2
#     Edge 43, Type (0, 0), BuildingBlock: EZIPEK_clean_linker_0, # of connection points: 2
#     Edge 44, Type (0, 0), BuildingBlock: EZIPEK_clean_linker_0, # of connection points: 2
#     Edge 45, Type (0, 0), BuildingBlock: EZIPEK_clean_linker_0, # of connection points: 2
#     Edge 46, Type (0, 0), BuildingBlock: EZIPEK_clean_linker_0, # of connection points: 2
#     Edge 47, Type (0, 0), BuildingBlock: EZIPEK_clean_linker_0, # of connection points: 2
#     Edge 48, Type (0, 0), BuildingBlock: EZIPEK_clean_linker_0, # of connection points: 2
#     Edge 49, Type (0, 0), BuildingBlock: EZIPEK_clean_linker_0, # of connection points: 2
#     Edge 50, Type (0, 0), BuildingBlock: EZIPEK_clean_linker_0, # of connection points: 2
#     Edge 51, Type (0, 0), BuildingBlock: EZIPEK_clean_linker_0, # of connection points: 2
#     Edge 52, Type (0, 0), BuildingBlock: EZIPEK_clean_linker_0, # of connection points: 2
#     Edge 53, Type (0, 0), BuildingBlock: EZIPEK_clean_linker_0, # of connection points: 2
#     Edge 54, Type (0, 0), BuildingBlock: EZIPEK_clean_linker_0, # of connection points: 2
#     Edge 55, Type (0, 0), BuildingBlock: EZIPEK_clean_linker_0, # of connection points: 2
#     Edge 56, Type (0, 0), BuildingBlock: EZIPEK_clean_linker_0, # of connection points: 2
#     Edge 57, Type (0, 0), BuildingBlock: EZIPEK_clean_linker_0, # of connection points: 2
#     Edge 58, Type (0, 0), BuildingBlock: EZIPEK_clean_linker_0, # of connection points: 2
#     Edge 59, Type (0, 0), BuildingBlock: EZIPEK_clean_linker_0, # of connection points: 2
#     Edge 60, Type (0, 0), BuildingBlock: EZIPEK_clean_linker_0, # of connection points: 2
#     Edge 61, Type (0, 0), BuildingBlock: EZIPEK_clean_linker_0, # of connection points: 2
#     Edge 62, Type (0, 0), BuildingBlock: EZIPEK_clean_linker_0, # of connection points: 2
#     Edge 63, Type (0, 0), BuildingBlock: EZIPEK_clean_linker_0, # of connection points: 2
#     Edge 64, Type (0, 0), BuildingBlock: EZIPEK_clean_linker_0, # of connection points: 2
#     Edge 65, Type (0, 0), BuildingBlock: EZIPEK_clean_linker_0, # of connection points: 2
#     Edge 66, Type (0, 0), BuildingBlock: EZIPEK_clean_linker_0, # of connection points: 2
#     Edge 67, Type (0, 0), BuildingBlock: EZIPEK_clean_linker_0, # of connection points: 2
#     Edge 68, Type (0, 0), BuildingBlock: EZIPEK_clean_linker_0, # of connection points: 2
#     Edge 69, Type (0, 0), BuildingBlock: EZIPEK_clean_linker_0, # of connection points: 2
#     Edge 70, Type (0, 0), BuildingBlock: EZIPEK_clean_linker_0, # of connection points: 2
#     Edge 71, Type (0, 0), BuildingBlock: EZIPEK_clean_linker_0, # of connection points: 2
# Relax obj value: 0.240
# Max RMSD: 0.279
# Mean RMSD: 0.279
data_MOF--net-wfx--node1-NUHQUE_clean_sbu_2--edge1-EZIPEK_clean_linker_0
_symmetry_space_group_name_H-M    P1
_symmetry_Int_Tables_number       1
_symmetry_cell_setting            triclinic
loop_
_symmetry_equiv_pos_as_xyz
'x, y, z'
_cell_length_a     35.22482
_cell_length_b     35.301704
_cell_length_c     35.604382
_cell_angle_alpha  90.253074
_cell_angle_beta   90.005579
_cell_angle_gamma 89.785771
loop_
_atom_site_label
_atom_site_type_symbol
_atom_site_fract_x
_atom_site_fract_y
_atom_site_fract_z
_atom_type_partial_charge
O0 O 0.65228 0.1689 0.08115 0.0
Tb1 Tb 0.68877 0.13539 0.11744 0.0
Eu2 Eu 0.71233 0.03989 0.13924 0.0
C3 C 0.66792 0.18495 0.05171 0.0
O4 O 0.70414 0.17897 0.04502 0.0
C5 C 0.74596 0.0877 0.07065 0.0
O6 O 0.76264 1.00168 0.15179 0.0
C7 C 0.66099 1.00109 0.10362 0.0
C8 C 0.79682 0.01616 0.15635 0.0
O9 O 0.80024 0.05272 0.16229 0.0
C10 C 0.66196 0.09627 0.19017 0.0
C11 C 0.62118 0.98743 0.10014 0.0
C12 C 0.59696 1.00404 0.07329 0.0
C13 C 0.56147 0.98802 0.06509 0.0
C14 C 0.54979 0.95544 0.08404 0.0
C15 C 0.57359 0.93801 0.11041 0.0
C16 C 0.60918 0.95414 0.1186 0.0
O17 O 0.71393 0.10671 0.06933 0.0
O18 O 0.75449 0.06678 0.09979 0.0
O19 O 0.70242 0.19301 0.13416 0.0
O20 O 0.74067 0.14901 0.14903 0.0
C21 C 0.73422 0.18542 0.151 0.0
O22 O 0.68946 0.07069 0.19063 0.0
O23 O 0.65047 0.11071 0.15806 0.0
O24 O 0.68254 0.98683 0.13034 0.0
O25 O 0.66856 0.03682 0.09594 0.0
H26 H 0.60629 0.02845 0.05744 0.0
H27 H 0.52286 0.9425 0.07684 0.0
H28 H 0.62803 0.93966 0.13787 0.0
O29 O 0.3623 0.63413 0.07309 0.0
Tb30 Tb 0.3885 0.67449 0.11164 0.0
Eu31 Eu 0.48021 0.71241 0.13766 0.0
C32 C 0.37219 0.63019 0.03766 0.0
O33 O 0.4039 0.64521 0.02554 0.0
C34 C 0.42685 0.74219 0.07194 0.0
O35 O 0.51787 0.76293 0.14997 0.0
C36 C 0.51984 0.66285 0.09999 0.0
C37 C 0.50359 0.79726 0.15428 0.0
O38 O 0.46685 0.80148 0.1591 0.0
C39 C 0.43039 0.65741 0.18772 0.0
C40 C 0.53605 0.62398 0.09665 0.0
C41 C 0.52025 0.59817 0.07073 0.0
C42 C 0.53884 0.56386 0.06235 0.0
C43 C 0.57291 0.55484 0.08046 0.0
C44 C 0.58945 0.58024 0.10595 0.0
C45 C 0.57092 0.61469 0.11411 0.0
O46 O 0.41557 0.70705 0.06711 0.0
O47 O 0.44628 0.75226 0.10169 0.0
O48 O 0.32866 0.67608 0.12745 0.0
O49 O 0.36045 0.7267 0.13132 0.0
C50 C 0.32672 0.71207 0.13486 0.0
O51 O 0.4509 0.68857 0.18865 0.0
O52 O 0.41796 0.64279 0.15582 0.0
O53 O 0.53434 0.68571 0.12547 0.0
O54 O 0.48318 0.66817 0.09444 0.0
H55 H 0.49461 0.60552 0.05552 0.0
H56 H 0.58768 0.52881 0.07315 0.0
H57 H 0.58472 0.63485 0.13259 0.0
O58 O 0.88138 0.36033 0.08906 0.0
Tb59 Tb 0.83916 0.38136 0.12858 0.0
Eu60 Eu 0.8232 0.5064 0.13276 0.0
C61 C 0.87019 0.33292 0.06649 0.0
O62 O 0.83522 0.32051 0.06913 0.0
C63 C 0.78073 0.43378 0.08007 0.0
O64 O 0.77053 0.54252 0.13968 0.0
C65 C 0.87324 0.541 0.09232 0.0
C66 C 0.73852 0.52759 0.15147 0.0
O67 O 0.73906 0.4937 0.16648 0.0
C68 C 0.85516 0.45031 0.18531 0.0
C69 C 0.91335 0.55322 0.09024 0.0
C70 C 0.93662 0.5377 0.06201 0.0
C71 C 0.97447 0.54987 0.05644 0.0
C72 C 0.98528 0.58304 0.07627 0.0
C73 C 0.96243 0.59907 0.10458 0.0
C74 C 0.92714 0.58289 0.11262 0.0
O75 O 0.79838 0.4012 0.08715 0.0
O76 O 0.78731 0.46775 0.09511 0.0
O77 O 0.84339 0.33753 0.17187 0.0
O78 O 0.79282 0.34242 0.1397 0.0
C79 C 0.81024 0.32263 0.16521 0.0
O80 O 0.84941 0.48666 0.18706 0.0
O81 O 0.84419 0.43633 0.15303 0.0
O82 O 0.85049 0.55871 0.11598 0.0
O83 O 0.86649 0.50442 0.08934 0.0
H84 H 0.92327 0.51776 0.0435 0.0
H85 H 1.01105 0.5979 0.06919 0.0
H86 H 0.90947 0.59542 0.13431 0.0
O87 O 0.17882 0.89094 0.07298 0.0
Tb88 Tb 0.14284 0.85515 0.10697 0.0
Eu89 Eu 0.05147 0.82035 0.12713 0.0
C90 C 0.16685 0.90659 0.04178 0.0
O91 O 0.13038 0.90739 0.03409 0.0
C92 C 0.10343 0.79716 0.05824 0.0
O93 O 0.0179 0.7666 0.13239 0.0
C94 C 1.0085 0.87081 0.09544 0.0
C95 C 0.02332 0.74078 0.1583 0.0
O96 O 0.04555 0.74803 0.18705 0.0
C97 C 0.10201 0.87165 0.18122 0.0
C98 C 0.99285 0.90998 0.09503 0.0
C99 C 1.0085 0.9366 0.07023 0.0
C100 C 0.99064 0.9716 0.06426 0.0
C101 C 0.95718 0.98055 0.0836 0.0
C102 C 0.94087 0.95444 0.10833 0.0
C103 C 0.9588 0.9192 0.11412 0.0
O104 O 0.11349 0.83282 0.05802 0.0
O105 O 0.08555 0.78361 0.08749 0.0
O106 O 0.19977 0.83904 0.12499 0.0
O107 O 0.15562 0.79883 0.12969 0.0
C108 C 0.19183 0.80453 0.1346 0.0
O109 O 0.08075 0.84097 0.17971 0.0
O110 O 0.11466 0.88796 0.15051 0.0
O111 O 0.99621 0.84724 0.12129 0.0
O112 O 0.04445 0.86554 0.08626 0.0
H113 H 0.03358 0.92949 0.05396 0.0
H114 H 0.94284 1.00719 0.07803 0.0
H115 H 0.94518 0.8985 0.13195 0.0
O116 O 0.15382 0.84932 0.43917 0.0
Tb117 Tb 0.18514 0.8701 0.39135 0.0
Eu118 Eu 0.19429 0.97625 0.38365 0.0
C119 C 0.12056 0.83296 0.43592 0.0
O120 O 0.10225 0.83423 0.40381 0.0
C121 C 0.22507 0.92378 0.44902 0.0
O122 O 0.25102 1.00605 0.38159 0.0
C123 C 0.13596 0.02133 0.38225 0.0
C124 C 0.27715 0.99952 0.35577 0.0
O125 O 0.26997 0.97618 0.32788 0.0
C126 C 0.16502 0.91924 0.32367 0.0
C127 C 0.10906 0.04612 0.40267 0.0
C128 C 0.08871 0.0332 0.43414 0.0
C129 C 0.05932 0.05534 0.44958 0.0
C130 C 0.05041 0.09048 0.43364 0.0
C131 C 0.07039 0.10358 0.40223 0.0
C132 C 0.09999 0.08156 0.38716 0.0
O133 O 0.23036 0.89766 0.4231 0.0
O134 O 0.20338 0.95338 0.44243 0.0
O135 O 0.17917 0.81326 0.36756 0.0
O136 O 0.23371 0.83788 0.36969 0.0
C137 C 0.21495 0.80746 0.36089 0.0
O138 O 0.19318 0.94279 0.32949 0.0
O139 O 0.14988 0.90098 0.35182 0.0
O140 O 0.17086 0.03327 0.37676 0.0
O141 O 0.1335 0.98457 0.3877 0.0
H142 H 0.09469 1.00553 0.44585 0.0
H143 H 0.02718 0.10717 0.44505 0.0
H144 H 0.11485 0.09139 0.36239 0.0
O145 O 0.66499 0.16672 0.4433 0.0
Tb146 Tb 0.64623 0.18653 0.38853 0.0
Eu147 Eu 0.52836 0.19648 0.3798 0.0
C148 C 0.67927 0.1323 0.44606 0.0
O149 O 0.67589 0.10886 0.4175 0.0
C150 C 0.59219 0.2413 0.42915 0.0
O151 O 0.49352 0.24989 0.37286 0.0
C152 C 0.48553 0.14345 0.40656 0.0
C153 C 0.50815 0.28162 0.36027 0.0
O154 O 0.54223 0.28119 0.34531 0.0
C155 C 0.59173 0.15732 0.32851 0.0
C156 C 0.47531 0.1028 0.40583 0.0
C157 C 0.49616 0.07728 0.42801 0.0
C158 C 0.48318 0.04046 0.4339 0.0
C159 C 0.45067 0.0278 0.41516 0.0
C160 C 0.42844 0.05307 0.39384 0.0
C161 C 0.441 0.09065 0.38933 0.0
O162 O 0.61552 0.23869 0.40056 0.0
O163 O 0.55891 0.22439 0.42892 0.0
O164 O 0.69984 0.1689 0.36236 0.0
O165 O 0.68313 0.22614 0.35938 0.0
C166 C 0.71004 0.20232 0.35102 0.0
O167 O 0.55952 0.17632 0.32739 0.0
O168 O 0.60553 0.14983 0.36178 0.0
O169 O 0.47477 0.16531 0.37862 0.0
O170 O 0.51906 0.15228 0.42028 0.0
H171 H 0.52091 0.08677 0.44347 0.0
H172 H 0.44052 0.99934 0.4204 0.0
H173 H 0.42307 0.11081 0.37475 0.0
O174 O 0.37452 0.67306 0.4333 0.0
Tb175 Tb 0.34825 0.63162 0.39615 0.0
Eu176 Eu 0.31593 0.53886 0.37401 0.0
C177 C 0.40719 0.66857 0.45041 0.0
O178 O 0.42795 0.6383 0.44388 0.0
C179 C 0.28713 0.59168 0.44188 0.0
O180 O 0.26441 0.50408 0.35851 0.0
C181 C 0.36434 0.49589 0.40896 0.0
C182 C 0.2308 0.52026 0.35539 0.0
O183 O 0.22849 0.55733 0.35329 0.0
C184 C 0.37229 0.5896 0.32499 0.0
C185 C 0.40403 0.48125 0.41027 0.0
C186 C 0.43064 0.49884 0.43409 0.0
C187 C 0.46773 0.48404 0.4397 0.0
C188 C 0.47515 0.44812 0.42337 0.0
C189 C 0.44904 0.42982 0.39985 0.0
C190 C 0.41376 0.44676 0.39275 0.0
O191 O 0.32196 0.60458 0.44437 0.0
O192 O 0.27649 0.57147 0.4127 0.0
O193 O 0.33428 0.68339 0.36656 0.0
O194 O 0.29318 0.63982 0.36881 0.0
C195 C 0.30028 0.67371 0.35627 0.0
O196 O 0.34183 0.56794 0.3238 0.0
O197 O 0.38576 0.60201 0.35737 0.0
O198 O 0.34195 0.48349 0.38202 0.0
O199 O 0.35825 0.53171 0.41791 0.0
H200 H 0.42037 0.52252 0.45019 0.0
H201 H 0.50007 0.43198 0.43068 0.0
H202 H 0.39314 0.43173 0.37577 0.0
O203 O 0.845 0.3749 0.42451 0.0
Tb204 Tb 0.88412 0.34402 0.38824 0.0
Eu205 Eu 0.97878 0.32463 0.36546 0.0
C206 C 0.85615 0.39121 0.45585 0.0
O207 O 0.89253 0.39308 0.46377 0.0
C208 C 0.93227 0.28871 0.4338 0.0
O209 O 0.01806 0.27647 0.34983 0.0
C210 C 0.01781 0.37509 0.4017 0.0
C211 C 1.00419 0.24207 0.34659 0.0
O212 O 0.96754 0.23784 0.3414 0.0
C213 C 0.92138 0.37384 0.31548 0.0
C214 C 0.03329 0.414 0.40525 0.0
C215 C 0.0182 0.43865 0.43266 0.0
C216 C 0.03669 0.47264 0.44169 0.0
C217 C 0.0701 0.48243 0.42295 0.0
C218 C 0.08563 0.45832 0.39561 0.0
C219 C 0.0671 0.42427 0.38657 0.0
O220 O 0.91402 0.32104 0.43628 0.0
O221 O 0.95353 0.28121 0.4045 0.0
O222 O 0.82971 0.32292 0.36904 0.0
O223 O 0.87867 0.28882 0.36025 0.0
C224 C 0.84203 0.29101 0.35543 0.0
O225 O 0.94807 0.3475 0.31434 0.0
O226 O 0.90591 0.38391 0.34773 0.0
O227 O 0.03233 0.35264 0.37576 0.0
O228 O 0.98143 0.36914 0.40824 0.0
H229 H 0.99322 0.43058 0.44848 0.0
H230 H 0.08495 0.50814 0.43082 0.0
H231 H 0.08029 0.40503 0.36665 0.0
O232 O 0.38685 0.86468 0.93301 0.0
Tb233 Tb 0.34905 0.88929 0.8914 0.0
Eu234 Eu 0.31627 0.98874 0.8671 0.0
C235 C 0.3708 0.84324 0.95862 0.0
O236 O 0.33365 0.8402 0.95891 0.0
C237 C 0.28381 0.93394 0.93116 0.0
O238 O 0.26381 0.02587 0.86378 0.0
C239 C 0.36822 0.0265 0.90275 0.0
C240 C 0.23515 0.01997 0.8408 0.0
O241 O 0.2391 0.9958 0.8129 0.0
C242 C 0.36493 0.93273 0.81748 0.0
C243 C 0.40791 0.04048 0.90656 0.0
C244 C 0.43124 0.02577 0.93516 0.0
C245 C 0.46611 0.04285 0.94389 0.0
C246 C 0.47786 0.07485 0.92402 0.0
C247 C 0.45537 0.08997 0.89519 0.0
C248 C 0.42061 0.07238 0.88619 0.0
O249 O 0.31733 0.91809 0.93587 0.0
O250 O 0.27565 0.95502 0.90204 0.0
O251 O 0.34993 0.83206 0.86772 0.0
O252 O 0.29694 0.85965 0.87449 0.0
C253 C 0.31341 0.82804 0.86441 0.0
O254 O 0.33667 0.95722 0.81569 0.0
O255 O 0.37975 0.92295 0.85001 0.0
O256 O 0.34675 0.04114 0.87614 0.0
O257 O 0.36037 0.99075 0.91039 0.0
H258 H 0.42172 1.00192 0.95173 0.0
H259 H 0.50445 0.08838 0.93142 0.0
H260 H 0.40289 0.0847 0.86454 0.0
O261 O 0.66705 0.39811 0.93401 0.0
Tb262 Tb 0.63735 0.35437 0.90184 0.0
Eu263 Eu 0.55238 0.31153 0.87556 0.0
C264 C 0.66829 0.39722 0.971 0.0
O265 O 0.64498 0.37503 0.98923 0.0
C266 C 0.60232 0.29075 0.94613 0.0
O267 O 0.5183 0.25735 0.87178 0.0
C268 C 0.5097 0.36237 0.9079 0.0
C269 C 0.52087 0.23139 0.84527 0.0
O270 O 0.54135 0.23793 0.81517 0.0
C271 C 0.6001 0.36773 0.82486 0.0
C272 C 0.49478 0.40182 0.9094 0.0
C273 C 0.50885 0.42704 0.93684 0.0
C274 C 0.49143 0.46238 0.94289 0.0
C275 C 0.45993 0.47279 0.92134 0.0
C276 C 0.4451 0.44799 0.89433 0.0
C277 C 0.4627 0.41266 0.8881 0.0
O278 O 0.608 0.32732 0.94818 0.0
O279 O 0.58804 0.27638 0.9152 0.0
O280 O 0.69691 0.34004 0.89136 0.0
O281 O 0.65506 0.30048 0.87538 0.0
C282 C 0.69145 0.30671 0.877 0.0
O283 O 0.58314 0.33436 0.82444 0.0
O284 O 0.60805 0.38464 0.85697 0.0
O285 O 0.49752 0.33954 0.88116 0.0
O286 O 0.54532 0.35631 0.91738 0.0
H287 H 0.53242 0.41872 0.95461 0.0
H288 H 0.44585 0.49964 0.92681 0.0
H289 H 0.45015 0.3931 0.86815 0.0
O290 O 0.14931 0.66954 0.92604 0.0
Tb291 Tb 0.18708 0.63668 0.88976 0.0
Eu292 Eu 0.22281 0.54538 0.86213 0.0
C293 C 0.16157 0.68123 0.95905 0.0
O294 O 0.1944 0.66899 0.97153 0.0
C295 C 0.25248 0.59594 0.93098 0.0
O296 O 0.2723 0.50699 0.84737 0.0
C297 C 0.17215 0.50509 0.89682 0.0
C298 C 0.30728 0.52003 0.84667 0.0
O299 O 0.3129 0.55677 0.84592 0.0
C300 C 0.16583 0.59689 0.81597 0.0
C301 C 0.1315 0.49397 0.89999 0.0
C302 C 0.10662 0.51548 0.92267 0.0
C303 C 0.06939 0.50314 0.93124 0.0
C304 C 0.0591 0.46678 0.91767 0.0
C305 C 0.08293 0.44532 0.89428 0.0
C306 C 0.11905 0.45909 0.88524 0.0
O307 O 0.21753 0.60843 0.93514 0.0
O308 O 0.26273 0.57705 0.90077 0.0
O309 O 0.19654 0.69485 0.87169 0.0
O310 O 0.23881 0.654 0.86007 0.0
C311 C 0.22969 0.68965 0.85656 0.0
O312 O 0.1979 0.57767 0.81335 0.0
O313 O 0.152 0.60703 0.84889 0.0
O314 O 0.19183 0.49237 0.86797 0.0
O315 O 0.182 0.53949 0.90746 0.0
H316 H 0.11806 0.54073 0.93468 0.0
H317 H 0.03289 0.4536 0.92637 0.0
H318 H 0.13803 0.44163 0.86854 0.0
O319 O 0.86855 0.14469 0.95053 0.0
Tb320 Tb 0.8907 0.18018 0.9058 0.0
Eu321 Eu 0.98486 0.21829 0.87757 0.0
C322 C 0.84637 0.11539 0.94457 0.0
O323 O 0.8431 0.10136 0.91049 0.0
C324 C 0.93335 0.24468 0.94673 0.0
O325 O 0.02148 0.26936 0.86436 0.0
C326 C 0.02818 0.16819 0.9096 0.0
C327 C 1.00717 0.30385 0.86212 0.0
O328 O 0.97018 0.30847 0.86113 0.0
C329 C 0.92961 0.16483 0.82852 0.0
C330 C 0.04333 0.12889 0.91189 0.0
C331 C 0.02944 0.10478 0.93999 0.0
C332 C 0.047 0.06988 0.94712 0.0
C333 C 0.07901 0.05895 0.92641 0.0
C334 C 0.09348 0.0823 0.89798 0.0
C335 C 0.07512 0.1171 0.89044 0.0
O336 O 0.92272 0.20918 0.94952 0.0
O337 O 0.95324 0.25637 0.9179 0.0
O338 O 0.83085 0.18185 0.89042 0.0
O339 O 0.86246 0.23297 0.88863 0.0
C340 C 0.82887 0.21803 0.8842 0.0
O341 O 0.95149 0.19521 0.82829 0.0
O342 O 0.91839 0.14894 0.86016 0.0
O343 O 0.03956 0.18991 0.88188 0.0
O344 O 0.99292 0.17489 0.92025 0.0
H345 H 1.00559 0.11351 0.95727 0.0
H346 H 0.0929 0.03225 0.93269 0.0
H347 H 0.08666 0.13548 0.86903 0.0
O348 O 0.88781 0.17081 0.57515 0.0
Tb349 Tb 0.84555 0.1434 0.6103 0.0
Eu350 Eu 0.81252 0.05305 0.64009 0.0
C351 C 0.87592 0.18534 0.54321 0.0
O352 O 0.84034 0.18067 0.53324 0.0
C353 C 0.78245 0.09962 0.56931 0.0
O354 O 0.76308 0.01402 0.65323 0.0
C355 C 0.86436 1.01176 0.60735 0.0
C356 C 0.72758 0.02613 0.65337 0.0
O357 O 0.72064 0.0627 0.65419 0.0
C358 C 0.86664 0.10843 0.68702 0.0
C359 C 0.90426 0.99785 0.60403 0.0
C360 C 0.92908 0.01515 0.57831 0.0
C361 C 0.96447 0.99877 0.56988 0.0
C362 C 0.97553 0.96515 0.58753 0.0
C363 C 0.95122 0.94703 0.61282 0.0
C364 C 0.91567 0.96352 0.62122 0.0
O365 O 0.81716 0.11238 0.56572 0.0
O366 O 0.77208 0.08157 0.59974 0.0
O367 O 0.82855 0.20283 0.61266 0.0
O368 O 0.79904 0.16394 0.64646 0.0
C369 C 0.80155 0.19955 0.63716 0.0
O370 O 0.83535 0.0879 0.68889 0.0
O371 O 0.88096 0.11856 0.6543 0.0
O372 O 0.84351 0.99976 0.63553 0.0
O373 O 0.85604 0.0466 0.59684 0.0
H374 H 0.92026 0.04033 0.56329 0.0
H375 H 1.00236 0.95198 0.58002 0.0
H376 H 0.89633 0.94857 0.63954 0.0
O377 O 0.35795 0.88472 0.57477 0.0
Tb378 Tb 0.39032 0.84514 0.6091 0.0
Eu379 Eu 0.48493 0.81049 0.63648 0.0
C380 C 0.34095 0.87216 0.54422 0.0
O381 O 0.34978 0.83823 0.53159 0.0
C382 C 0.43434 0.78138 0.56651 0.0
O383 O 0.52136 0.7593 0.6497 0.0
C384 C 0.52805 0.85951 0.60316 0.0
C385 C 0.50646 0.72527 0.65264 0.0
O386 O 0.46947 0.72172 0.65522 0.0
C387 C 0.43032 0.86411 0.68388 0.0
C388 C 0.54309 0.89838 0.59758 0.0
C389 C 0.52776 0.92059 0.56859 0.0
C390 C 0.54514 0.95442 0.55783 0.0
C391 C 0.57773 0.96689 0.57657 0.0
C392 C 0.59345 0.9456 0.6059 0.0
C393 C 0.57619 0.91116 0.61629 0.0
O394 O 0.41855 0.81514 0.56303 0.0
O395 O 0.45403 0.77183 0.59639 0.0
O396 O 0.33105 0.84017 0.62531 0.0
O397 O 0.3673 0.79286 0.63341 0.0
C398 C 0.33244 0.8053 0.63628 0.0
O399 O 0.45164 0.83344 0.68579 0.0
O400 O 0.42017 0.8785 0.65134 0.0
O401 O 0.53911 0.83988 0.63258 0.0
O402 O 0.49312 0.85184 0.59218 0.0
H403 H 0.50311 0.9109 0.55308 0.0
H404 H 0.59125 0.99298 0.56786 0.0
H405 H 0.58932 0.89392 0.63781 0.0
O406 O 0.63819 0.36026 0.5695 0.0
Tb407 Tb 0.67516 0.38792 0.6101 0.0
Eu408 Eu 0.71238 0.48032 0.63508 0.0
C409 C 0.65395 0.33554 0.54639 0.0
O410 O 0.69066 0.32926 0.54858 0.0
C411 C 0.74258 0.42648 0.56874 0.0
O412 O 0.76219 0.51823 0.64913 0.0
C413 C 0.66249 0.52044 0.59898 0.0
C414 C 0.79691 0.50459 0.65245 0.0
O415 O 0.80205 0.46783 0.65493 0.0
C416 C 0.65642 0.42988 0.68373 0.0
C417 C 0.62248 0.53397 0.59783 0.0
C418 C 0.59686 0.51693 0.57262 0.0
C419 C 0.55938 0.5308 0.56737 0.0
C420 C 0.55083 0.56586 0.58501 0.0
C421 C 0.57588 0.58346 0.61009 0.0
C422 C 0.61137 0.56704 0.61717 0.0
O423 O 0.7082 0.41264 0.56459 0.0
O424 O 0.75223 0.44681 0.59815 0.0
O425 O 0.67857 0.33012 0.63115 0.0
O426 O 0.72557 0.36605 0.63881 0.0
C427 C 0.7124 0.33228 0.64552 0.0
O428 O 0.68749 0.4506 0.6851 0.0
O429 O 0.64172 0.41957 0.65117 0.0
O430 O 0.68478 0.53441 0.62522 0.0
O431 O 0.66947 0.48451 0.59118 0.0
H432 H 0.60813 0.49455 0.55532 0.0
H433 H 0.52576 0.58185 0.57792 0.0
H434 H 0.63108 0.58158 0.63556 0.0
O435 O 0.16913 0.64041 0.57619 0.0
Tb436 Tb 0.13532 0.67891 0.61091 0.0
Eu437 Eu 0.0411 0.71679 0.63663 0.0
C438 C 0.16244 0.63341 0.54049 0.0
O439 O 0.13013 0.64387 0.52527 0.0
C440 C 0.09115 0.7396 0.56523 0.0
O441 O 1.00518 0.76929 0.6476 0.0
C442 C 0.9992 0.66587 0.60402 0.0
C443 C 0.02049 0.80328 0.65001 0.0
O444 O 0.05755 0.80642 0.65223 0.0
C445 C 0.09371 0.66298 0.68521 0.0
C446 C 0.98546 0.6262 0.60082 0.0
C447 C 1.00151 0.60216 0.57338 0.0
C448 C 0.98524 0.56688 0.56524 0.0
C449 C 0.95307 0.55511 0.5849 0.0
C450 C 0.93613 0.57874 0.61184 0.0
C451 C 0.95246 0.61422 0.61998 0.0
O452 O 0.10622 0.70544 0.56395 0.0
O453 O 0.07304 0.75233 0.595 0.0
O454 O 0.19229 0.6857 0.63357 0.0
O455 O 0.1576 0.73443 0.62844 0.0
C456 C 0.19123 0.7222 0.638 0.0
O457 O 0.07383 0.69467 0.68658 0.0
O458 O 0.10337 0.64758 0.65287 0.0
O459 O 0.98714 0.6871 0.63212 0.0
O460 O 0.03425 0.67341 0.5936 0.0
H461 H 0.02561 0.61148 0.55694 0.0
H462 H 0.93992 0.5283 0.5777 0.0
H463 H 0.93831 0.63304 0.63966 0.0
C464 C 0.51957 1.00191 0.96719 0.0
C465 C 0.49012 0.02829 0.9751 0.0
C466 C 0.51 0.03125 0.04124 0.0
C467 C 0.53775 1.00297 0.03384 0.0
N468 N 0.56687 0.95814 0.9913 0.0
N469 N 0.45425 0.06556 0.01961 0.0
C470 C 0.54199 0.98742 0.99719 0.0
C471 C 0.48448 0.04228 0.01216 0.0
N472 N 0.52666 0.99144 0.93081 0.0
N473 N 0.50863 0.04804 0.07591 0.0
H474 H 0.43568 0.07509 0.99885 0.0
H475 H 0.44592 0.07353 0.04655 0.0
H476 H 0.5263 0.03999 0.09802 0.0
H477 H 0.49196 0.07161 0.08223 0.0
H478 H 0.55041 0.97594 0.92247 0.0
H479 H 0.50996 1.00034 0.90829 0.0
H480 H 0.5681 0.94241 0.96654 0.0
H481 H 0.58496 0.94782 0.0121 0.0
C482 C 0.54049 0.54309 0.99488 0.0
C483 C 0.5252 0.53878 0.03153 0.0
C484 C 0.48679 0.48513 0.00978 0.0
C485 C 0.50413 0.48778 0.97384 0.0
N486 N 0.55044 0.51584 0.93286 0.0
N487 N 0.48743 0.50366 0.07558 0.0
C488 C 0.53186 0.51582 0.96659 0.0
C489 C 0.49927 0.50924 0.03945 0.0
N490 N 0.56261 0.57382 0.98696 0.0
N491 N 0.45781 0.46006 0.01525 0.0
H492 H 0.49502 0.52154 0.09773 0.0
H493 H 0.47212 0.48008 0.08417 0.0
H494 H 0.44889 0.44091 0.9947 0.0
H495 H 0.44094 0.45973 0.03924 0.0
H496 H 0.57134 0.58097 0.96 0.0
H497 H 0.56998 0.59408 0.00705 0.0
H498 H 0.57387 0.53273 0.92712 0.0
H499 H 0.54417 0.49686 0.91121 0.0
C500 C 0.05712 0.54606 0.98869 0.0
C501 C 0.04286 0.52401 0.95843 0.0
C502 C 0.98672 0.51034 0.99639 0.0
C503 C 1.00077 0.5326 0.02663 0.0
N504 N 0.06007 0.55031 0.05591 0.0
N505 N 0.98438 0.50437 0.92914 0.0
C506 C 0.03931 0.54405 0.02422 0.0
C507 C 1.00439 0.51263 0.96085 0.0
N508 N 0.08213 0.5746 0.98241 0.0
N509 N 0.96282 0.4809 0.00296 0.0
H510 H 0.9961 0.50805 0.90245 0.0
H511 H 0.95556 0.49758 0.92994 0.0
H512 H 0.95819 0.471 0.03017 0.0
H513 H 0.95394 0.46254 0.98165 0.0
H514 H 0.09178 0.59226 0.00395 0.0
H515 H 0.08617 0.58529 0.95543 0.0
H516 H 0.08898 0.55663 0.05492 0.0
H517 H 0.0492 0.54465 0.08259 0.0
C518 C 0.03443 0.02322 0.04282 0.0
C519 C 1.00482 0.99734 0.03452 0.0
C520 C 1.0025 0.0194 0.9692 0.0
C521 C 0.03242 0.04496 0.97733 0.0
N522 N 0.07484 0.07464 0.02151 0.0
N523 N 0.96318 0.96708 0.98988 0.0
C524 C 0.04798 0.04771 0.01407 0.0
C525 C 0.98936 0.99457 0.99774 0.0
N526 N 0.05006 0.02354 0.07802 0.0
N527 N 0.98608 0.01968 0.93435 0.0
H528 H 0.95229 0.94886 0.01016 0.0
H529 H 0.95364 0.96048 0.96302 0.0
H530 H 0.99595 0.03637 0.91233 0.0
H531 H 0.96143 1.00512 0.92745 0.0
H532 H 0.07394 0.03896 0.08562 0.0
H533 H 0.03991 1.00685 0.09993 0.0
H534 H 0.08539 0.0808 0.04809 0.0
H535 H 0.08573 0.09258 1.00099 0.0
C536 C 1.00444 0.01641 0.47203 0.0
C537 C 0.03545 0.04051 0.48062 0.0
C538 C 0.01755 0.04041 0.54731 0.0
C539 C 0.9883 0.01414 0.53906 0.0
N540 N 0.95648 0.97312 0.49486 0.0
N541 N 0.0746 0.07245 0.52616 0.0
C542 C 0.98245 1.00102 0.50174 0.0
C543 C 0.04285 0.05173 0.51824 0.0
N544 N 0.9953 1.00918 0.43535 0.0
N545 N 0.02058 0.05502 0.58281 0.0
H546 H 0.09333 0.08168 0.50545 0.0
H547 H 0.08397 0.07831 0.55328 0.0
H548 H 1.003 0.0467 0.60485 0.0
H549 H 0.03859 0.0772 0.58999 0.0
H550 H 0.97047 0.99563 0.42704 0.0
H551 H 1.01119 0.01919 0.41277 0.0
H552 H 0.95412 0.95901 0.46924 0.0
H553 H 0.9388 0.96205 0.51556 0.0
C554 C 0.52573 0.98859 0.45809 0.0
C555 C 0.49927 0.01805 0.46537 0.0
C556 C 0.50499 1.00744 0.53329 0.0
C557 C 0.52961 0.97647 0.52591 0.0
N558 N 0.56138 0.93484 0.48208 0.0
N559 N 0.46011 0.05333 0.50901 0.0
C560 C 0.53939 0.96623 0.48848 0.0
C561 C 0.48796 0.02692 0.50276 0.0
N562 N 0.5386 0.98289 0.42226 0.0
N563 N 0.49851 0.01868 0.56958 0.0
H564 H 0.44807 0.06963 0.48776 0.0
H565 H 0.44702 0.05762 0.53489 0.0
H566 H 0.50906 1.0041 0.59278 0.0
H567 H 0.4848 0.04381 0.57689 0.0
H568 H 0.56083 0.96468 0.41533 0.0
H569 H 0.52863 0.99841 0.3994 0.0
H570 H 0.56612 0.92322 0.45558 0.0
H571 H 0.57335 0.91886 0.50365 0.0
C572 C 0.49711 0.53112 0.52992 0.0
C573 C 0.53215 0.51324 0.53864 0.0
C574 C 0.53052 0.48348 0.47648 0.0
C575 C 0.49558 0.50165 0.4678 0.0
N576 N 0.46599 0.56241 0.47924 0.0
N577 N 0.56309 0.45311 0.52704 0.0
C578 C 0.48404 0.53109 0.4925 0.0
C579 C 0.54406 0.48393 0.51385 0.0
N580 N 0.47377 0.54413 0.55761 0.0
N581 N 0.55323 0.46963 0.44866 0.0
H582 H 0.56673 0.44873 0.55582 0.0
H583 H 0.56993 0.43007 0.5098 0.0
H584 H 0.5468 0.474 0.42036 0.0
H585 H 0.58002 0.45815 0.45419 0.0
H586 H 0.44704 0.55559 0.55176 0.0
H587 H 0.47964 0.53909 0.58592 0.0
H588 H 0.4595 0.58544 0.49662 0.0
H589 H 0.46289 0.56697 0.45043 0.0
C590 C 0.98241 0.54776 0.49732 0.0
C591 C 0.99937 0.5436 0.5333 0.0
C592 C 0.0386 0.49108 0.5098 0.0
C593 C 0.02315 0.49663 0.47336 0.0
N594 N 0.9844 0.53274 0.4307 0.0
N595 N 0.04659 0.51525 0.5733 0.0
C596 C 0.99613 0.52567 0.46663 0.0
C597 C 0.02839 0.51638 0.53939 0.0
N598 N 0.95264 0.5723 0.49274 0.0
N599 N 0.06233 0.46103 0.51622 0.0
H600 H 0.03912 0.5327 0.59587 0.0
H601 H 0.07076 0.49904 0.57845 0.0
H602 H 0.07111 0.4424 0.49509 0.0
H603 H 0.07132 0.45281 0.54281 0.0
H604 H 0.93601 0.57344 0.46861 0.0
H605 H 0.94288 0.59024 0.51404 0.0
H606 H 0.96817 0.55618 0.42312 0.0
H607 H 0.99303 0.51641 0.40773 0.0
C608 C 0.54451 0.89704 0.1609 0.0
C609 C 0.56238 0.90021 0.12535 0.0
C610 C 0.54379 0.83516 0.1096 0.0
C611 C 0.52701 0.83125 0.14573 0.0
N612 N 0.5179 0.85557 0.2084 0.0
N613 N 0.58763 0.86967 0.07011 0.0
C614 C 0.52944 0.86136 0.17224 0.0
C615 C 0.56496 0.86826 0.10123 0.0
N616 N 0.54066 0.92844 0.18316 0.0
N617 N 0.53715 0.80877 0.08214 0.0
H618 H 0.60339 0.89357 0.06305 0.0
H619 H 0.59372 0.84606 0.05349 0.0
H620 H 0.52059 0.78474 0.08609 0.0
H621 H 0.54495 0.81254 0.05419 0.0
H622 H 0.52409 0.92921 0.20737 0.0
H623 H 0.55238 0.95458 0.17617 0.0
H624 H 0.52211 0.87506 0.23001 0.0
H625 H 0.50704 0.82973 0.21751 0.0
C626 C 0.69362 0.5538 0.10287 0.0
C627 C 0.70145 0.5452 0.1411 0.0
C628 C 0.63538 0.56118 0.15745 0.0
C629 C 0.62868 0.57222 0.11973 0.0
N630 N 0.65435 0.58875 0.05925 0.0
N631 N 0.68193 0.54759 0.20595 0.0
C632 C 0.65885 0.57175 0.0934 0.0
C633 C 0.67292 0.551 0.16879 0.0
N634 N 0.71793 0.54243 0.07504 0.0
N635 N 0.60569 0.55896 0.18202 0.0
H636 H 0.70919 0.54067 0.21517 0.0
H637 H 0.66343 0.55498 0.22761 0.0
H638 H 0.57802 0.56666 0.17482 0.0
H639 H 0.60796 0.54703 0.20863 0.0
H640 H 0.7112 0.54416 0.0466 0.0
H641 H 0.7429 0.52742 0.08 0.0
H642 H 0.67663 0.59242 0.04037 0.0
H643 H 0.62941 0.60271 0.0515 0.0
C644 C 0.9675 0.70145 0.13987 0.0
C645 C 1.00564 0.70292 0.15257 0.0
C646 C 1.01025 0.63404 0.14408 0.0
C647 C 0.97528 0.63422 0.12428 0.0
N648 N 0.92337 0.6706 0.09798 0.0
N649 N 0.0657 0.67021 0.16107 0.0
C650 C 0.95435 0.66852 0.121 0.0
C651 C 0.02765 0.66905 0.15371 0.0
N652 N 0.94371 0.7315 0.14602 0.0
N653 N 0.02682 0.60043 0.15378 0.0
H654 H 0.08048 0.69507 0.1666 0.0
H655 H 0.08343 0.64669 0.15803 0.0
H656 H 0.01446 0.57428 0.14775 0.0
H657 H 0.05057 0.59871 0.17117 0.0
H658 H 0.91474 0.73062 0.14015 0.0
H659 H 0.95215 0.75558 0.1609 0.0
H660 H 0.90964 0.69603 0.09185 0.0
H661 H 0.91368 0.64786 0.08194 0.0
C662 C 0.86203 0.99184 0.17277 0.0
C663 C 0.8315 0.99368 0.14675 0.0
C664 C 0.87046 0.9595 0.10027 0.0
C665 C 0.90249 0.963 0.12409 0.0
N666 N 0.92992 0.98375 0.18251 0.0
N667 N 0.8088 0.98402 0.08316 0.0
C668 C 0.89853 0.97918 0.16042 0.0
C669 C 0.83602 0.97828 0.10996 0.0
N670 N 0.85588 1.00171 0.20943 0.0
N671 N 0.87304 0.93825 0.06817 0.0
H672 H 0.7833 0.99808 0.08819 0.0
H673 H 0.81291 0.97779 0.05483 0.0
H674 H 0.89795 0.92438 0.06006 0.0
H675 H 0.84965 0.93134 0.05163 0.0
H676 H 0.87584 0.99782 0.23065 0.0
H677 H 0.82942 1.01071 0.21927 0.0
H678 H 0.92992 0.99932 0.20742 0.0
H679 H 0.95669 0.97368 0.17477 0.0
C680 C 0.02671 0.17563 0.33485 0.0
C681 C 0.02716 0.20855 0.35785 0.0
C682 C 0.065 0.17422 0.40468 0.0
C683 C 0.05899 0.14006 0.38466 0.0
N684 N 0.03036 0.10712 0.33233 0.0
N685 N 0.04117 0.23675 0.41865 0.0
C686 C 0.03913 0.14043 0.34994 0.0
C687 C 0.04523 0.20747 0.39367 0.0
N688 N 0.0148 0.17815 0.29841 0.0
N689 N 0.08965 0.17488 0.43433 0.0
H690 H 0.02578 0.26129 0.4132 0.0
H691 H 0.04998 0.2351 0.44654 0.0
H692 H 0.1046 0.15093 0.44315 0.0
H693 H 0.09808 0.19983 0.44761 0.0
H694 H 0.01717 0.15595 0.27919 0.0
H695 H 1.00604 0.20366 0.28642 0.0
H696 H 1.01225 0.10545 0.30926 0.0
H697 H 0.03866 0.08071 0.34251 0.0
C698 C 0.33281 1.00528 0.39838 0.0
C699 C 0.31667 1.01253 0.3629 0.0
C700 C 0.37638 0.04332 0.34443 0.0
C701 C 0.38922 0.04142 0.38232 0.0
N702 N 0.3714 0.03169 0.44717 0.0
N703 N 0.32184 0.04276 0.30248 0.0
C704 C 0.36496 0.02577 0.40984 0.0
C705 C 0.3381 0.0328 0.33582 0.0
N706 N 0.31922 0.97697 0.42043 0.0
N707 N 0.40085 0.05364 0.3166 0.0
H708 H 0.29401 0.0356 0.2955 0.0
H709 H 0.33493 0.06064 0.28326 0.0
H710 H 0.42917 0.06039 0.32175 0.0
H711 H 0.39394 0.05214 0.28818 0.0
H712 H 0.3339 0.96804 0.44425 0.0
H713 H 0.29678 0.95954 0.4123 0.0
H714 H 0.35212 0.02311 0.46759 0.0
H715 H 0.39284 0.04935 0.45706 0.0
C716 C 0.45873 0.36129 0.41446 0.0
C717 C 0.45779 0.39036 0.38719 0.0
C718 C 0.48294 0.34562 0.34019 0.0
C719 C 0.48917 0.31849 0.36896 0.0
N720 N 0.49021 0.30447 0.43551 0.0
N721 N 0.47186 0.41169 0.32457 0.0
C722 C 0.47868 0.32718 0.40663 0.0
C723 C 0.47044 0.38289 0.35003 0.0
N724 N 0.44061 0.36638 0.44805 0.0
N725 N 0.48804 0.3355 0.30345 0.0
H726 H 0.46208 0.43898 0.33058 0.0
H727 H 0.4849 0.40916 0.29843 0.0
H728 H 0.49661 0.30837 0.29529 0.0
H729 H 0.4805 0.35281 0.28102 0.0
H730 H 0.43721 0.34475 0.46758 0.0
H731 H 0.42559 0.39107 0.45468 0.0
H732 H 0.48687 0.31187 0.46368 0.0
H733 H 0.50694 0.28038 0.43176 0.0
C734 C 0.1561 0.4587 0.40301 0.0
C735 C 0.124 0.46713 0.38057 0.0
C736 C 0.16478 0.50128 0.33633 0.0
C737 C 0.19552 0.49815 0.36198 0.0
N738 N 0.21846 0.47832 0.42305 0.0
N739 N 0.09662 0.49734 0.32647 0.0
C740 C 0.19093 0.4775 0.39596 0.0
C741 C 0.12806 0.48837 0.34712 0.0
N742 N 0.1531 0.43299 0.43146 0.0
N743 N 0.17093 0.51604 0.30145 0.0
H744 H 0.06964 0.48711 0.33291 0.0
H745 H 0.09686 0.51646 0.30429 0.0
H746 H 0.19761 0.52519 0.29264 0.0
H747 H 0.15065 0.51604 0.28018 0.0
H748 H 0.17642 0.42263 0.44625 0.0
H749 H 0.12778 0.4192 0.43784 0.0
H750 H 0.2146 0.46747 0.44993 0.0
H751 H 0.24388 0.49295 0.42039 0.0
C752 C 0.52217 0.15941 0.84806 0.0
C753 C 0.5017 0.19413 0.85123 0.0
C754 C 0.44889 0.16014 0.88101 0.0
C755 C 0.46849 0.12524 0.87591 0.0
N756 N 0.51887 0.09085 0.84507 0.0
N757 N 0.4413 0.22514 0.86066 0.0
C758 C 0.50347 0.12468 0.85613 0.0
C759 C 0.46364 0.19367 0.86447 0.0
N760 N 0.56014 0.15943 0.84018 0.0
N761 N 0.41747 0.16195 0.90346 0.0
H762 H 0.45076 0.24973 0.84753 0.0
H763 H 0.41235 0.22533 0.86668 0.0
H764 H 0.40607 0.13844 0.91691 0.0
H765 H 0.40471 0.18742 0.91143 0.0
H766 H 0.57703 0.13519 0.84169 0.0
H767 H 0.57577 0.18399 0.83586 0.0
H768 H 0.54249 0.08882 0.82754 0.0
H769 H 0.50566 0.06496 0.85021 0.0
C770 C 0.37441 0.45162 0.89682 0.0
C771 C 0.40825 0.45812 0.87644 0.0
C772 C 0.37239 0.49553 0.83045 0.0
C773 C 0.34014 0.49451 0.85438 0.0
N774 N 0.31216 0.47502 0.91343 0.0
N775 N 0.44053 0.48634 0.82411 0.0
C776 C 0.34126 0.47288 0.88807 0.0
C777 C 0.40747 0.47975 0.84301 0.0
N778 N 0.37418 0.42552 0.92507 0.0
N779 N 0.3692 0.51118 0.79555 0.0
H780 H 0.46626 0.47382 0.83177 0.0
H781 H 0.44288 0.50554 0.80213 0.0
H782 H 0.34373 0.52243 0.78551 0.0
H783 H 0.39058 0.50995 0.7754 0.0
H784 H 0.34948 0.41658 0.93838 0.0
H785 H 0.39823 0.41002 0.9327 0.0
H786 H 0.3137 0.46364 0.94032 0.0
H787 H 0.28768 0.49104 0.90939 0.0
C788 C 0.05223 0.34271 0.90159 0.0
C789 C 0.03193 0.33769 0.86737 0.0
C790 C 0.04908 0.40237 0.84833 0.0
C791 C 0.0701 0.40685 0.88208 0.0
N792 N 0.09909 0.37877 0.9365 0.0
N793 N 0.01729 0.35949 0.80504 0.0
C794 C 0.07423 0.37603 0.90715 0.0
C795 C 0.03233 0.36659 0.83974 0.0
N796 N 0.04833 0.31707 0.93002 0.0
N797 N 0.04403 0.43276 0.82518 0.0
H798 H 1.00512 0.33353 0.79791 0.0
H799 H 0.01977 0.37788 0.78241 0.0
H800 H 0.05713 0.45881 0.82987 0.0
H801 H 0.02532 0.43286 0.80254 0.0
H802 H 0.05872 0.32153 0.95706 0.0
H803 H 0.03177 0.29276 0.92791 0.0
H804 H 0.10644 0.35594 0.95349 0.0
H805 H 0.11515 0.40301 0.94171 0.0
C806 C 0.19597 0.07648 0.86115 0.0
C807 C 0.19751 0.03794 0.84947 0.0
C808 C 0.12849 0.03406 0.8587 0.0
C809 C 0.12848 0.06972 0.87726 0.0
N810 N 0.1649 0.12247 0.90137 0.0
N811 N 0.16489 0.97762 0.84535 0.0
C812 C 0.16289 0.09054 0.87965 0.0
C813 C 0.16361 0.01606 0.84999 0.0
N814 N 0.22585 0.09993 0.85405 0.0
N815 N 0.09488 0.01723 0.84949 0.0
H816 H 0.18997 0.96229 0.84206 0.0
H817 H 0.14127 0.96038 0.84929 0.0
H818 H 0.06864 0.03001 0.85479 0.0
H819 H 0.09333 0.99276 0.83306 0.0
H820 H 0.22485 0.12903 0.85905 0.0
H821 H 0.24988 0.09104 0.83926 0.0
H822 H 0.19037 0.13627 0.90709 0.0
H823 H 0.14198 0.13311 0.91665 0.0
C824 C 0.99679 0.86764 0.67062 0.0
C825 C 0.99713 0.83803 0.64345 0.0
C826 C 0.95769 0.87713 0.60168 0.0
C827 C 0.96206 0.90844 0.62638 0.0
N828 N 0.98706 0.93468 0.6837 0.0
N829 N 0.9825 0.81674 0.58044 0.0
C830 C 0.98168 0.90393 0.6609 0.0
C831 C 0.97834 0.84309 0.60843 0.0
N832 N 1.01035 0.86079 0.70591 0.0
N833 N 0.93383 0.88007 0.57154 0.0
H834 H 0.99817 0.79185 0.58342 0.0
H835 H 0.97333 0.82108 0.55298 0.0
H836 H 0.9186 0.90472 0.56556 0.0
H837 H 0.92635 0.85711 0.55466 0.0
H838 H 1.00779 0.87988 0.72814 0.0
H839 H 0.02132 0.83452 0.71384 0.0
H840 H 1.00489 0.93455 0.70702 0.0
H841 H 0.97518 0.96117 0.67804 0.0
C842 C 0.69534 0.97879 0.61061 0.0
C843 C 0.6957 0.99959 0.64498 0.0
C844 C 0.62959 0.98044 0.65681 0.0
C845 C 0.62982 0.95895 0.62302 0.0
N846 N 0.66553 0.92965 0.57311 0.0
N847 N 0.66623 0.01371 0.70444 0.0
C848 C 0.66372 0.95536 0.60187 0.0
C849 C 0.66372 0.99829 0.66926 0.0
N850 N 0.72365 0.98362 0.58479 0.0
N851 N 0.59637 0.98514 0.67612 0.0
H852 H 0.69089 0.02664 0.71436 0.0
H853 H 0.64531 1.01073 0.72486 0.0
H854 H 0.57127 0.97155 0.66843 0.0
H855 H 0.59309 1.00408 0.69839 0.0
H856 H 0.72245 0.97269 0.5576 0.0
H857 H 0.74674 1.00149 0.58892 0.0
H858 H 0.69058 0.92294 0.55899 0.0
H859 H 0.64273 0.91227 0.56589 0.0
C860 C 0.53148 0.66111 0.67122 0.0
C861 C 0.52999 0.69103 0.64472 0.0
C862 C 0.56905 0.65336 0.60119 0.0
C863 C 0.56556 0.62164 0.62515 0.0
N864 N 0.54236 0.59405 0.68237 0.0
N865 N 0.54247 0.71332 0.58171 0.0
C866 C 0.5468 0.62525 0.66025 0.0
C867 C 0.54794 0.68682 0.60913 0.0
N868 N 0.51875 0.66725 0.70699 0.0
N869 N 0.59237 0.6513 0.57057 0.0
H870 H 0.52622 0.73775 0.58541 0.0
H871 H 0.55106 0.70939 0.55397 0.0
H872 H 0.60792 0.62701 0.56375 0.0
H873 H 0.59915 0.67467 0.55415 0.0
H874 H 0.5222 0.64788 0.7287 0.0
H875 H 0.50759 0.69324 0.7158 0.0
H876 H 0.52514 0.59356 0.70613 0.0
H877 H 0.55445 0.56782 0.67576 0.0
C878 C 0.86051 0.53069 0.67186 0.0
C879 C 0.83031 0.52935 0.64543 0.0
C880 C 0.86621 0.57117 0.60359 0.0
C881 C 0.89844 0.56744 0.62709 0.0
N882 N 0.92751 0.54277 0.68307 0.0
N883 N 0.80717 0.54346 0.58293 0.0
C884 C 0.89584 0.54728 0.66136 0.0
C885 C 0.83357 0.54877 0.61063 0.0
N886 N 0.85515 0.51659 0.70713 0.0
N887 N 0.86704 0.59587 0.57415 0.0
H888 H 0.78362 0.52595 0.58572 0.0
H889 H 0.81057 0.55341 0.55565 0.0
H890 H 0.8907 0.61245 0.56805 0.0
H891 H 0.84318 0.60267 0.55823 0.0
H892 H 0.87471 0.51971 0.72884 0.0
H893 H 0.82954 0.50458 0.71563 0.0
H894 H 0.92882 0.52469 0.70606 0.0
H895 H 0.95329 0.55576 0.6768 0.0
C896 C 0.65329 0.27163 0.99255 0.0
C897 C 0.61697 0.26524 0.9762 0.0
C898 C 0.61267 0.20525 0.01079 0.0
C899 C 0.6474 0.21368 0.02913 0.0
N900 N 0.6934 0.26115 0.04645 0.0
N901 N 0.55802 0.23039 0.97774 0.0
C902 C 0.66524 0.24895 0.02297 0.0
C903 C 0.59535 0.23335 0.98774 0.0
N904 N 0.67798 0.29712 0.97751 0.0
N905 N 0.59701 0.17006 0.01387 0.0
H906 H 0.54383 0.25118 0.96241 0.0
H907 H 0.54017 0.20943 0.98813 0.0
H908 H 0.60892 0.14865 0.03019 0.0
H909 H 0.57398 0.1612 0.99775 0.0
H910 H 0.70605 0.29967 0.98644 0.0
H911 H 0.67232 0.31227 0.95325 0.0
H912 H 0.70493 0.28826 0.0449 0.0
H913 H 0.70195 0.24597 0.07009 0.0
C914 C 0.3004 0.57482 0.97912 0.0
C915 C 0.28169 0.6048 0.95999 0.0
C916 C 0.32096 0.65119 0.99384 0.0
C917 C 0.34188 0.62104 0.01025 0.0
N918 N 0.35504 0.55438 0.01563 0.0
N919 N 0.27697 0.67152 0.94586 0.0
C920 C 0.33258 0.58287 1.00209 0.0
C921 C 0.29261 0.64301 0.96662 0.0
N922 N 0.28626 0.5389 0.97667 0.0
N923 N 0.32752 0.68775 0.00501 0.0
H924 H 0.25508 0.66716 0.92686 0.0
H925 H 0.28713 0.69917 0.94565 0.0
H926 H 0.34867 0.69529 0.02408 0.0
H927 H 0.31008 0.71048 0.99785 0.0
H928 H 0.29617 0.51639 0.99277 0.0
H929 H 0.26215 0.53228 0.96097 0.0
H930 H 0.35239 0.52616 0.00743 0.0
H931 H 0.3784 0.55944 0.03296 0.0
C932 C 0.90327 0.30552 0.96988 0.0
C933 C 0.92382 0.27162 0.97762 0.0
C934 C 0.91596 0.2827 0.04533 0.0
C935 C 0.89528 0.31621 0.03742 0.0
N936 N 0.87853 0.3652 0.99387 0.0
N937 N 0.95878 0.2339 0.02219 0.0
C938 C 0.89222 0.32954 1.00017 0.0
C939 C 0.93299 0.26205 0.01527 0.0
N940 N 0.8919 0.31355 0.93406 0.0
N941 N 0.9182 0.27 0.08146 0.0
H942 H 0.97268 0.21913 1.00076 0.0
H943 H 0.96918 0.22775 0.04886 0.0
H944 H 0.90791 0.2857 0.1042 0.0
H945 H 0.92859 0.24335 0.08866 0.0
H946 H 0.87303 0.33534 0.92756 0.0
H947 H 0.89868 0.29675 0.91091 0.0
H948 H 0.87873 0.37812 0.96763 0.0
H949 H 0.87064 0.38329 0.0158 0.0
C950 C 0.22165 0.9053 0.9496 0.0
C951 C 0.25358 0.92771 0.95933 0.0
C952 C 0.22514 0.94136 0.02088 0.0
C953 C 0.19531 0.91574 0.01254 0.0
N954 N 0.17028 0.86647 0.97212 0.0
N955 N 0.28796 0.96453 0.00521 0.0
C956 C 0.19475 0.89598 0.97768 0.0
C957 C 0.25608 0.94487 0.99537 0.0
N958 N 0.2168 0.89284 0.9135 0.0
N959 N 0.22312 0.96336 0.05253 0.0
H960 H 0.31026 0.96952 0.98662 0.0
H961 H 0.29345 0.97389 0.03243 0.0
H962 H 0.20053 0.96195 0.07141 0.0
H963 H 0.24191 0.98527 0.05844 0.0
H964 H 0.1918 0.88033 0.90403 0.0
H965 H 0.23631 0.8977 0.89211 0.0
H966 H 0.172 0.84818 0.94914 0.0
H967 H 0.15072 0.85755 0.99211 0.0
C968 C 0.08648 0.75011 0.49559 0.0
C969 C 0.09461 0.76457 0.53196 0.0
C970 C 0.10728 0.82667 0.5044 0.0
C971 C 0.10634 0.81037 0.468 0.0
N972 N 0.10079 0.75383 0.42945 0.0
N973 N 0.12013 0.81558 0.56997 0.0
C974 C 0.09719 0.77139 0.46355 0.0
C975 C 0.10672 0.8027 0.53624 0.0
N976 N 0.06753 0.71663 0.4915 0.0
N977 N 0.10825 0.86513 0.5086 0.0
H978 H 0.12271 0.79854 0.59364 0.0
H979 H 0.13272 0.84206 0.57323 0.0
H980 H 0.10763 0.88355 0.48575 0.0
H981 H 0.10561 0.87857 0.5346 0.0
H982 H 0.05794 0.70667 0.46559 0.0
H983 H 0.0576 0.70102 0.51425 0.0
H984 H 0.09874 0.72456 0.4261 0.0
H985 H 0.10937 0.76761 0.40513 0.0
C986 C 0.76573 0.09753 0.50068 0.0
C987 C 0.75475 0.10563 0.5382 0.0
C988 C 0.69188 0.12559 0.51543 0.0
C989 C 0.70485 0.12246 0.47787 0.0
N990 N 0.75782 0.11364 0.43533 0.0
N991 N 0.70933 0.13479 0.58048 0.0
C992 C 0.74279 0.11062 0.47058 0.0
C993 C 0.71826 0.12154 0.54547 0.0
N994 N 0.7974 0.07616 0.49363 0.0
N995 N 0.65419 0.13128 0.52254 0.0
H996 H 0.72814 0.13384 0.603 0.0
H997 H 0.68473 0.15025 0.5862 0.0
H998 H 0.63398 0.13342 0.50123 0.0
H999 H 0.64258 0.13008 0.54943 0.0
H1000 H 0.8046 0.06651 0.46685 0.0
H1001 H 0.81402 0.06443 0.51489 0.0
H1002 H 0.78652 0.10923 0.42964 0.0
H1003 H 0.74283 0.12452 0.41255 0.0
C1004 C 0.42911 0.73355 0.46989 0.0
C1005 C 0.418 0.69634 0.47999 0.0
C1006 C 0.41522 0.71558 0.54627 0.0
C1007 C 0.42885 0.75219 0.53655 0.0
N1008 N 0.45661 0.79318 0.49004 0.0
N1009 N 0.40625 0.64995 0.52811 0.0
C1010 C 0.43788 0.76047 0.49856 0.0
C1011 C 0.41322 0.6867 0.51832 0.0
N1012 N 0.43101 0.7433 0.43283 0.0
N1013 N 0.40177 0.70894 0.58168 0.0
H1014 H 0.40214 0.62833 0.50852 0.0
H1015 H 0.4074 0.64028 0.55568 0.0
H1016 H 0.40106 0.72945 0.60279 0.0
H1017 H 0.38752 0.68434 0.58921 0.0
H1018 H 0.43429 0.77108 0.42368 0.0
H1019 H 0.42698 0.72385 0.41105 0.0
H1020 H 0.46741 0.79903 0.46348 0.0
H1021 H 0.46472 0.81297 0.5103 0.0
C1022 C 0.80193 0.39267 0.54837 0.0
C1023 C 0.77187 0.41816 0.53986 0.0
C1024 C 0.7994 0.42907 0.4774 0.0
C1025 C 0.82747 0.40114 0.48486 0.0
N1026 N 0.85028 0.35027 0.52412 0.0
N1027 N 0.73938 0.45808 0.49536 0.0
C1028 C 0.82747 0.38137 0.51951 0.0
C1029 C 0.76974 0.4355 0.50399 0.0
N1030 N 0.80629 0.37924 0.58408 0.0
N1031 N 0.80198 0.45044 0.44558 0.0
H1032 H 0.71829 0.46515 0.51474 0.0
H1033 H 0.7338 0.468 0.46842 0.0
H1034 H 0.82341 0.44661 0.42569 0.0
H1035 H 0.78486 0.47391 0.44023 0.0
H1036 H 0.83014 0.36416 0.5929 0.0
H1037 H 0.78763 0.38566 0.60587 0.0
H1038 H 0.84833 0.33214 0.54703 0.0
H1039 H 0.86857 0.34013 0.50335 0.0
C1040 C 0.38639 0.83094 0.02555 0.0
C1041 C 0.39302 0.82235 0.98726 0.0
C1042 C 0.42953 0.76594 0.00549 0.0
C1043 C 0.41752 0.77124 0.04323 0.0
N1044 N 0.38261 0.80804 0.08931 0.0
N1045 N 0.42079 0.78196 0.93983 0.0
C1046 C 0.39592 0.80385 0.05345 0.0
C1047 C 0.41504 0.79019 0.97693 0.0
N1048 N 0.37141 0.86544 0.03516 0.0
N1049 N 0.45571 0.73845 0.9972 0.0
H1050 H 0.41255 0.80011 0.91828 0.0
H1051 H 0.43198 0.75635 0.93025 0.0
H1052 H 0.4674 0.72071 0.01754 0.0
H1053 H 0.46847 0.73542 0.97099 0.0
H1054 H 0.36934 0.87521 0.06272 0.0
H1055 H 0.36453 0.88595 0.01522 0.0
H1056 H 0.36262 0.8284 0.09711 0.0
H1057 H 0.38932 0.7896 0.11105 0.0
C1058 C 0.73736 0.41182 0.98547 0.0
C1059 C 0.69798 0.41742 0.99305 0.0
C1060 C 0.71326 0.43889 0.05683 0.0
C1061 C 0.7523 0.43252 0.04944 0.0
N1062 N 0.80208 0.42611 0.00355 0.0
N1063 N 0.65046 0.44878 0.03062 0.0
C1064 C 0.76451 0.4233 0.01266 0.0
C1065 C 0.68669 0.43533 0.02701 0.0
N1066 N 0.74916 0.39345 0.95372 0.0
N1067 N 0.70124 0.44597 0.09263 0.0
H1068 H 0.63078 0.44708 0.00873 0.0
H1069 H 0.64138 0.46506 0.05341 0.0
H1070 H 0.71984 0.44724 0.11532 0.0
H1071 H 0.67272 0.44732 0.10027 0.0
H1072 H 0.77685 0.38362 0.95 0.0
H1073 H 0.73132 0.38633 0.9317 0.0
H1074 H 0.81222 0.42343 0.97617 0.0
H1075 H 0.82258 0.43512 0.02275 0.0
C1076 C 0.10579 0.71212 0.99208 0.0
C1077 C 0.14356 0.71384 0.97857 0.0
C1078 C 0.155 0.77103 0.01575 0.0
C1079 C 0.11659 0.77069 0.02821 0.0
N1080 N 0.05304 0.74653 0.01986 0.0
N1081 N 0.19899 0.75202 0.9671 0.0
C1082 C 0.09119 0.74293 0.01376 0.0
C1083 C 0.16643 0.74567 0.98698 0.0
N1084 N 0.08438 0.68058 0.98564 0.0
N1085 N 0.18154 0.79327 0.03296 0.0
H1086 H 0.20769 0.73466 0.94488 0.0
H1087 H 0.21479 0.7768 0.9698 0.0
H1088 H 0.17571 0.81101 0.05557 0.0
H1089 H 0.21051 0.791 0.02735 0.0
H1090 H 0.05831 0.67587 0.99858 0.0
H1091 H 0.09393 0.65787 0.96935 0.0
H1092 H 0.03294 0.729 0.00729 0.0
H1093 H 0.04119 0.7695 0.03426 0.0
C1094 C 0.75808 0.08837 1.00098 0.0
C1095 C 0.77268 0.0898 0.03812 0.0
C1096 C 0.83684 0.09658 0.01192 0.0
C1097 C 0.82122 0.1025 0.97567 0.0
N1098 N 0.76464 0.11197 0.93792 0.0
N1099 N 0.82649 0.10238 0.07872 0.0
C1100 C 0.78121 0.1003 0.97062 0.0
C1101 C 0.81231 0.09545 0.04365 0.0
N1102 N 0.72244 0.07473 0.9944 0.0
N1103 N 0.87509 0.09167 0.01606 0.0
H1104 H 0.8096 0.1045 0.10262 0.0
H1105 H 0.85456 0.1103 0.08348 0.0
H1106 H 0.89376 0.09143 0.9933 0.0
H1107 H 0.88756 0.08372 0.0414 0.0
H1108 H 0.71185 0.07022 0.96741 0.0
H1109 H 0.70535 0.06366 0.01558 0.0
H1110 H 0.73531 0.11454 0.93482 0.0
H1111 H 0.77973 0.12316 0.91545 0.0
C1112 C 0.91069 0.24573 0.52902 0.0
C1113 C 0.90074 0.20824 0.51867 0.0
C1114 C 0.91596 0.22147 0.45303 0.0
C1115 C 0.92597 0.25932 0.46312 0.0
N1116 N 0.94419 0.30306 0.51209 0.0
N1117 N 0.9052 0.15714 0.47418 0.0
C1118 C 0.92697 0.27003 0.50164 0.0
C1119 C 0.90749 0.19504 0.48176 0.0
N1120 N 0.90286 0.2588 0.56436 0.0
N1121 N 0.9111 0.21133 0.41624 0.0
H1122 H 0.8989 0.13729 0.49491 0.0
H1123 H 0.91345 0.14517 0.44864 0.0
H1124 H 0.91392 0.22994 0.39392 0.0
H1125 H 0.89984 0.18539 0.4079 0.0
H1126 H 0.90497 0.28722 0.57206 0.0
H1127 H 0.89212 0.24154 0.58549 0.0
H1128 H 0.94864 0.31083 0.54 0.0
H1129 H 0.9576 0.3208 0.49289 0.0
C1130 C 0.27519 0.9441 0.49637 0.0
C1131 C 0.24598 0.91902 0.48528 0.0
C1132 C 0.27205 0.86989 0.52621 0.0
C1133 C 0.30614 0.89125 0.52944 0.0
N1134 N 0.3385 0.95099 0.52296 0.0
N1135 N 0.20678 0.86761 0.50388 0.0
C1136 C 0.30686 0.92952 0.51704 0.0
C1137 C 0.24147 0.88459 0.50464 0.0
N1138 N 0.27212 0.98163 0.48786 0.0
N1139 N 0.26911 0.83563 0.54373 0.0
H1140 H 0.18356 0.88144 0.49196 0.0
H1141 H 0.19982 0.84291 0.51808 0.0
H1142 H 0.28905 0.82613 0.56317 0.0
H1143 H 0.24713 0.81653 0.53932 0.0
H1144 H 0.29052 1.0023 0.49791 0.0
H1145 H 0.249 0.99264 0.47323 0.0
H1146 H 0.34186 0.97834 0.51296 0.0
H1147 H 0.36246 0.94103 0.53698 0.0
C1148 C 0.6186 0.32967 0.4855 0.0
C1149 C 0.63111 0.31291 0.51948 0.0
C1150 C 0.61206 0.24997 0.49645 0.0
C1151 C 0.60249 0.26629 0.46132 0.0
N1152 N 0.58799 0.32172 0.42482 0.0
N1153 N 0.63996 0.258 0.55846 0.0
C1154 C 0.60322 0.30624 0.45658 0.0
C1155 C 0.62734 0.27333 0.52546 0.0
N1156 N 0.62353 0.3677 0.48015 0.0
N1157 N 0.60596 0.21218 0.50218 0.0
H1158 H 0.64885 0.2745 0.58117 0.0
H1159 H 0.64297 0.2291 0.56324 0.0
H1160 H 0.59631 0.19392 0.48121 0.0
H1161 H 0.60805 0.19908 0.5282 0.0
H1162 H 0.61929 0.38138 0.45467 0.0
H1163 H 0.63362 0.38579 0.5011 0.0
H1164 H 0.58364 0.35059 0.42087 0.0
H1165 H 0.57686 0.30528 0.40317 0.0
C1166 C 0.20908 0.5848 0.51629 0.0
C1167 C 0.19493 0.62249 0.51603 0.0
C1168 C 0.2458 0.64138 0.47266 0.0
C1169 C 0.25791 0.60293 0.47018 0.0
N1170 N 0.25197 0.53786 0.48925 0.0
N1171 N 0.19803 0.68671 0.49328 0.0
C1172 C 0.23976 0.57459 0.49197 0.0
C1173 C 0.21286 0.65079 0.49405 0.0
N1174 N 0.19333 0.55898 0.54016 0.0
N1175 N 0.26607 0.66908 0.45499 0.0
H1176 H 0.17552 0.69561 0.5102 0.0
H1177 H 0.20658 0.70762 0.47467 0.0
H1178 H 0.28965 0.66365 0.43826 0.0
H1179 H 0.26157 0.69796 0.45892 0.0
H1180 H 0.20425 0.53201 0.54482 0.0
H1181 H 0.16993 0.5652 0.5571 0.0
H1182 H 0.23786 0.51492 0.50091 0.0
H1183 H 0.2761 0.52993 0.47411 0.0
C1184 C 0.59566 0.15003 0.25669 0.0
C1185 C 0.60964 0.14076 0.29319 0.0
C1186 C 0.66224 0.10764 0.26148 0.0
C1187 C 0.64341 0.10968 0.22615 0.0
N1188 N 0.58262 0.12225 0.19625 0.0
N1189 N 0.65022 0.09551 0.32654 0.0
C1190 C 0.60708 0.12747 0.22552 0.0
C1191 C 0.64112 0.11499 0.29475 0.0
N1192 N 0.5735 0.18116 0.2505 0.0
N1193 N 0.70026 0.10061 0.26407 0.0
H1194 H 0.63219 0.09323 0.34951 0.0
H1195 H 0.67254 0.076 0.32717 0.0
H1196 H 0.71832 0.09999 0.24094 0.0
H1197 H 0.71447 0.10121 0.2898 0.0
H1198 H 0.56452 0.18863 0.22359 0.0
H1199 H 0.56964 0.20263 0.27024 0.0
H1200 H 0.5553 0.13382 0.19632 0.0
H1201 H 0.58725 0.10214 0.17522 0.0
C1202 C 0.42606 0.5997 0.27878 0.0
C1203 C 0.38751 0.60583 0.28932 0.0
C1204 C 0.37949 0.64902 0.23586 0.0
C1205 C 0.4168 0.64052 0.22357 0.0
N1206 N 0.47486 0.60526 0.23057 0.0
N1207 N 0.32573 0.63234 0.27427 0.0
C1208 C 0.43999 0.61523 0.24436 0.0
C1209 C 0.36366 0.62909 0.26666 0.0
N1210 N 0.44929 0.57891 0.3016 0.0
N1211 N 0.35971 0.67769 0.21909 0.0
H1212 H 0.31274 0.62111 0.2979 0.0
H1213 H 0.3063 0.64439 0.25575 0.0
H1214 H 0.37098 0.69356 0.19724 0.0
H1215 H 0.334 0.68834 0.22908 0.0
H1216 H 0.47854 0.57687 0.29801 0.0
H1217 H 0.43953 0.56495 0.32546 0.0
H1218 H 0.49179 0.58399 0.24195 0.0
H1219 H 0.48601 0.61682 0.20602 0.0
C1220 C 0.89153 0.43014 0.28347 0.0
C1221 C 0.90797 0.39345 0.28037 0.0
C1222 C 0.89577 0.39662 0.21238 0.0
C1223 C 0.87195 0.42881 0.2176 0.0
N1224 N 0.83873 0.46811 0.26314 0.0
N1225 N 0.91558 0.33773 0.24034 0.0
C1226 C 0.86721 0.44318 0.25465 0.0
C1227 C 0.90739 0.37534 0.24438 0.0
N1228 N 0.90009 0.45347 0.31294 0.0
N1229 N 0.9089 0.38701 0.17757 0.0
H1230 H 0.92019 0.31958 0.26281 0.0
H1231 H 0.9128 0.32365 0.21467 0.0
H1232 H 0.90368 0.40333 0.15382 0.0
H1233 H 0.92855 0.36521 0.17337 0.0
H1234 H 0.88996 0.48124 0.31466 0.0
H1235 H 0.92134 0.44711 0.33235 0.0
H1236 H 0.83352 0.47727 0.29058 0.0
H1237 H 0.81735 0.47524 0.24416 0.0
C1238 C 0.16405 0.8759 0.26836 0.0
C1239 C 0.15172 0.91013 0.28516 0.0
C1240 C 0.10814 0.9209 0.23233 0.0
C1241 C 0.1176 0.88449 0.21783 0.0
N1242 N 0.15131 0.82502 0.22467 0.0
N1243 N 0.11055 0.96467 0.28527 0.0
C1244 C 0.1445 0.86126 0.23669 0.0
C1245 C 0.12347 0.93267 0.26762 0.0
N1246 N 0.19568 0.85818 0.28185 0.0
N1247 N 0.0845 0.94413 0.2124 0.0
H1248 H 0.12235 0.97475 0.31023 0.0
H1249 H 0.08705 0.98017 0.27637 0.0
H1250 H 0.071 0.93558 0.18771 0.0
H1251 H 0.07973 0.97247 0.21915 0.0
H1252 H 0.20865 0.83532 0.26838 0.0
H1253 H 0.2113 0.86912 0.30425 0.0
H1254 H 0.16682 0.80535 0.24014 0.0
H1255 H 0.13937 0.8134 0.20054 0.0
C1256 C 0.42841 0.91725 0.73149 0.0
C1257 C 0.41496 0.88148 0.71886 0.0
C1258 C 0.36594 0.88241 0.76781 0.0
C1259 C 0.38127 0.91648 0.78243 0.0
N1260 N 0.42925 0.96482 0.78119 0.0
N1261 N 0.37501 0.82696 0.72852 0.0
C1262 C 0.41317 0.93353 0.76509 0.0
C1263 C 0.38503 0.8631 0.73818 0.0
N1264 N 0.45556 0.93571 0.71121 0.0
N1265 N 0.33225 0.86921 0.78139 0.0
H1266 H 0.3871 0.81222 0.70608 0.0
H1267 H 0.3567 0.81044 0.74448 0.0
H1268 H 0.31724 0.88308 0.80264 0.0
H1269 H 0.31744 0.84675 0.76937 0.0
H1270 H 0.46367 0.96357 0.71635 0.0
H1271 H 0.46872 0.92375 0.6877 0.0
H1272 H 0.45491 0.97637 0.77248 0.0
H1273 H 0.41796 0.97809 0.80497 0.0
C1274 C 0.65304 0.39021 0.78281 0.0
C1275 C 0.61353 0.38517 0.789 0.0
C1276 C 0.60117 0.41426 0.72729 0.0
C1277 C 0.64081 0.41404 0.71944 0.0
N1278 N 0.70289 0.39019 0.73665 0.0
N1279 N 0.54949 0.38993 0.76541 0.0
C1280 C 0.6663 0.39889 0.74635 0.0
C1281 C 0.58742 0.39611 0.76051 0.0
N1282 N 0.67844 0.38718 0.81154 0.0
N1283 N 0.57687 0.43354 0.70429 0.0
H1284 H 0.53815 0.37939 0.7903 0.0
H1285 H 0.52958 0.39326 0.74403 0.0
H1286 H 0.58598 0.44852 0.68082 0.0
H1287 H 0.54828 0.43785 0.71048 0.0
H1288 H 0.70655 0.39599 0.80899 0.0
H1289 H 0.67115 0.3791 0.83854 0.0
H1290 H 0.72131 0.37562 0.75447 0.0
H1291 H 0.71345 0.39305 0.7095 0.0
C1292 C 0.16429 0.64369 0.76331 0.0
C1293 C 0.14759 0.61224 0.78157 0.0
C1294 C 0.09504 0.61331 0.73601 0.0
C1295 C 0.11021 0.64681 0.72009 0.0
N1296 N 0.15481 0.69826 0.72366 0.0
N1297 N 0.09521 0.56908 0.78825 0.0
C1298 C 0.14346 0.6633 0.73532 0.0
C1299 C 0.11229 0.59766 0.76883 0.0
N1300 N 0.20052 0.65441 0.77195 0.0
N1301 N 0.06448 0.59628 0.71948 0.0
H1302 H 0.10793 0.55584 0.81121 0.0
H1303 H 0.06767 0.55986 0.783 0.0
H1304 H 0.05029 0.60794 0.69651 0.0
H1305 H 0.05447 0.56969 0.72708 0.0
H1306 H 0.21561 0.67447 0.7567 0.0
H1307 H 0.21701 0.64076 0.79202 0.0
H1308 H 0.17606 0.71364 0.73709 0.0
H1309 H 0.1405 0.7135 0.70303 0.0
C1310 C 0.8964 0.17494 0.76673 0.0
C1311 C 0.9148 0.14982 0.79194 0.0
C1312 C 0.90036 0.09663 0.74903 0.0
C1313 C 0.88484 0.12247 0.72251 0.0
N1314 N 0.87606 0.18762 0.70344 0.0
N1315 N 0.94039 0.08763 0.80399 0.0
C1316 C 0.88554 0.16198 0.73046 0.0
C1317 C 0.91831 0.11079 0.78234 0.0
N1318 N 0.88701 0.21082 0.77811 0.0
N1319 N 0.89835 0.05856 0.74224 0.0
H1320 H 0.95484 0.09722 0.82774 0.0
H1321 H 0.94729 0.05988 0.79663 0.0
H1322 H 0.88815 0.04725 0.71709 0.0
H1323 H 0.90489 0.03814 0.76227 0.0
H1324 H 0.86945 0.22873 0.76264 0.0
H1325 H 0.8932 0.22144 0.80472 0.0
H1326 H 0.88123 0.21651 0.70637 0.0
H1327 H 0.86649 0.18006 0.6769 0.0
C1328 C 0.81731 0.25157 0.16836 0.0
C1329 C 0.7964 0.28493 0.17752 0.0
C1330 C 0.73951 0.24616 0.18645 0.0
C1331 C 0.75822 0.21529 0.16862 0.0
N1332 N 0.81768 0.18597 0.15002 0.0
N1333 N 0.73895 0.31354 0.20065 0.0
C1334 C 0.79797 0.21692 0.16253 0.0
C1335 C 0.75799 0.28186 0.18885 0.0
N1336 N 0.85558 0.25198 0.16327 0.0
N1337 N 0.70449 0.24072 0.202 0.0
H1338 H 0.75271 0.33929 0.20529 0.0
H1339 H 0.70973 0.31466 0.20484 0.0
H1340 H 0.69148 0.21419 0.20228 0.0
H1341 H 0.69024 0.26102 0.21798 0.0
H1342 H 0.87272 0.27551 0.16797 0.0
H1343 H 0.87272 0.27551 0.16797 0.0
H1344 H 0.84669 0.1868 0.1441 0.0
H1345 H 0.80562 0.15937 0.14656 0.0
C1346 C 0.26017 0.72576 0.11316 0.0
C1347 C 0.2905 0.73379 0.13835 0.0
C1348 C 0.25228 0.78495 0.16653 0.0
C1349 C 0.22161 0.77553 0.14228 0.0
N1350 N 0.19273 0.72858 0.10165 0.0
N1351 N 0.31312 0.76698 0.19329 0.0
C1352 C 0.2242 0.74301 0.11891 0.0
C1353 C 0.28587 0.7622 0.16639 0.0
N1354 N 0.26627 0.70416 0.08172 0.0
N1355 N 0.24937 0.81603 0.18941 0.0
H1356 H 0.33842 0.75167 0.19355 0.0
H1357 H 0.30966 0.78417 0.21686 0.0
H1358 H 0.22414 0.83126 0.1926 0.0
H1359 H 0.2721 0.82751 0.20421 0.0
H1360 H 0.24621 0.70114 0.0604 0.0
H1361 H 0.2927 0.69323 0.07429 0.0
H1362 H 0.19301 0.70299 0.08693 0.0
H1363 H 0.16548 0.73917 0.10568 0.0
C1364 C 0.23525 0.70126 0.35709 0.0
C1365 C 0.27218 0.70157 0.34205 0.0
C1366 C 0.26453 0.76874 0.32664 0.0
C1367 C 0.23246 0.77032 0.35103 0.0
N1368 N 0.19114 0.73701 0.39459 0.0
N1369 N 0.31938 0.73275 0.30487 0.0
C1370 C 0.21817 0.73622 0.36705 0.0
C1371 C 0.28568 0.73442 0.32382 0.0
N1372 N 0.21689 0.66779 0.36258 0.0
N1373 N 0.27476 0.79978 0.30629 0.0
H1374 H 0.33335 0.7071 0.29984 0.0
H1375 H 0.33379 0.7563 0.29484 0.0
H1376 H 0.26089 0.8257 0.30834 0.0
H1377 H 0.2954 0.7994 0.28541 0.0
H1378 H 0.18878 0.66632 0.37159 0.0
H1379 H 0.22795 0.64211 0.35289 0.0
H1380 H 0.18233 0.71279 0.40871 0.0
H1381 H 0.18108 0.76176 0.40705 0.0
C1382 C 0.80414 0.24055 0.38485 0.0
C1383 C 0.81661 0.2582 0.35148 0.0
C1384 C 0.76667 0.22604 0.31577 0.0
C1385 C 0.75005 0.21468 0.35008 0.0
N1386 N 0.75249 0.21081 0.41789 0.0
N1387 N 0.81248 0.26678 0.28472 0.0
C1388 C 0.76917 0.22092 0.38474 0.0
C1389 C 0.7991 0.25006 0.31658 0.0
N1390 N 0.8252 0.2437 0.41698 0.0
N1391 N 0.75133 0.21379 0.28269 0.0
H1392 H 0.83705 0.28323 0.28463 0.0
H1393 H 0.79873 0.2654 0.25891 0.0
H1394 H 0.72741 0.19641 0.28175 0.0
H1395 H 0.76423 0.2178 0.25675 0.0
H1396 H 0.82024 0.22784 0.44106 0.0
H1397 H 0.84976 0.25996 0.41865 0.0
H1398 H 0.76238 0.21912 0.4442 0.0
H1399 H 0.7272 0.19585 0.4194 0.0
C1400 C 0.26004 0.79013 0.83443 0.0
C1401 C 0.29382 0.79132 0.85639 0.0
C1402 C 0.29288 0.72187 0.85983 0.0
C1403 C 0.25524 0.72159 0.84623 0.0
N1404 N 0.20395 0.75465 0.81594 0.0
N1405 N 0.33689 0.75717 0.89751 0.0
C1406 C 0.23923 0.75555 0.83186 0.0
C1407 C 0.30913 0.75685 0.87074 0.0
N1408 N 0.24829 0.82155 0.81534 0.0
N1409 N 0.3132 0.68903 0.86275 0.0
H1410 H 0.34657 0.78185 0.9102 0.0
H1411 H 0.34634 0.73271 0.91098 0.0
H1412 H 0.30349 0.66333 0.85209 0.0
H1413 H 0.34171 0.6885 0.87062 0.0
H1414 H 0.22629 0.82136 0.79582 0.0
H1415 H 0.26248 0.8473 0.81654 0.0
H1416 H 0.18827 0.77879 0.80941 0.0
H1417 H 0.19001 0.72927 0.81006 0.0
C1418 C 0.76147 0.231 0.90371 0.0
C1419 C 0.79254 0.23925 0.87957 0.0
C1420 C 0.75398 0.28808 0.84852 0.0
C1421 C 0.72268 0.27863 0.87173 0.0
N1422 N 0.69357 0.23336 0.91332 0.0
N1423 N 0.81642 0.2713 0.82483 0.0
C1424 C 0.72534 0.24737 0.89644 0.0
C1425 C 0.78827 0.26662 0.85076 0.0
N1426 N 0.76697 0.20995 0.93544 0.0
N1427 N 0.75079 0.31776 0.8243 0.0
H1428 H 0.842 0.25657 0.82596 0.0
H1429 H 0.81354 0.28765 0.80074 0.0
H1430 H 0.72481 0.33075 0.81891 0.0
H1431 H 0.77365 0.32985 0.81028 0.0
H1432 H 0.74622 0.20646 0.95597 0.0
H1433 H 0.79343 0.19975 0.94381 0.0
H1434 H 0.69355 0.20845 0.92892 0.0
H1435 H 0.66648 0.24401 0.9084 0.0
C1436 C 0.77465 0.3014 0.66252 0.0
C1437 C 0.73481 0.29896 0.65909 0.0
C1438 C 0.73931 0.22955 0.65867 0.0
C1439 C 0.7791 0.23236 0.6522 0.0
N1440 N 0.83574 0.2712 0.6541 0.0
N1441 N 0.67999 0.25973 0.67166 0.0
C1442 C 0.79714 0.26836 0.65637 0.0
C1443 C 0.7174 0.26302 0.66273 0.0
N1444 N 0.79069 0.3346 0.67419 0.0
N1445 N 0.72158 0.19526 0.66028 0.0
H1446 H 0.6626 0.28263 0.67886 0.0
H1447 H 0.6626 0.28263 0.67886 0.0
H1448 H 0.73572 0.16943 0.65991 0.0
H1449 H 0.69222 0.19276 0.66331 0.0
H1450 H 0.81948 0.33779 0.6799 0.0
H1451 H 0.77436 0.35756 0.68328 0.0
H1452 H 0.84989 0.2968 0.65068 0.0
H1453 H 0.85381 0.24785 0.65484 0.0
C1454 C 0.25218 0.7401 0.60752 0.0
C1455 C 0.22627 0.74547 0.63762 0.0
C1456 C 0.27032 0.79029 0.66743 0.0
C1457 C 0.29773 0.78184 0.63922 0.0
N1458 N 0.31561 0.74755 0.58288 0.0
N1459 N 0.20902 0.77619 0.69553 0.0
C1460 C 0.28905 0.75606 0.60969 0.0
C1461 C 0.23483 0.77084 0.66738 0.0
N1462 N 0.24041 0.72213 0.57541 0.0
N1463 N 0.27799 0.81763 0.69368 0.0
H1464 H 0.18149 0.76566 0.69396 0.0
H1465 H 0.21482 0.79022 0.72063 0.0
H1466 H 0.3041 0.83134 0.69532 0.0
H1467 H 0.25827 0.82807 0.71288 0.0
H1468 H 0.25627 0.72084 0.55077 0.0
H1469 H 0.21291 0.71195 0.57172 0.0
H1470 H 0.31311 0.72488 0.56425 0.0
H1471 H 0.34122 0.76184 0.58008 0.0
loop_
_geom_bond_atom_site_label_1
_geom_bond_atom_site_label_2
_geom_bond_distance
_geom_bond_site_symmetry_2
_ccdc_geom_bond_type
O0 Tb1 2.292 . S
O0 C3 1.255 . S
Tb1 O0 2.292 . S
Tb1 O17 2.326 . S
Tb1 O19 2.500 . S
Tb1 O20 2.473 . S
Tb1 O23 2.324 . S
Eu2 O6 2.292 . S
Eu2 C7 2.852 . S
Eu2 O18 2.324 . S
Eu2 O22 2.326 . S
Eu2 O24 2.500 1_545 S
Eu2 O25 2.473 . S
C3 O0 1.255 . S
C3 O4 1.247 . S
O4 C3 1.247 . S
C5 O17 1.242 . S
C5 O18 1.258 . S
O6 Eu2 2.292 . S
O6 C8 1.255 . S
C7 Eu2 2.852 . S
C7 C11 1.503 1_545 S
C7 O24 1.273 1_545 S
C7 O25 1.257 . S
C8 O6 1.255 . S
C8 O9 1.247 . S
O9 C8 1.247 . S
C10 O22 1.242 . S
C10 O23 1.258 . S
C11 C7 1.503 1_565 S
C11 C12 1.379 1_565 S
C11 C16 1.392 . S
C12 C11 1.379 1_545 S
C12 C13 1.404 1_545 S
C12 H26 0.929 . S
C13 C12 1.404 1_565 S
C13 C14 1.389 . S
C14 C13 1.389 . S
C14 C15 1.399 . S
C14 H27 0.931 . S
C15 C14 1.399 . S
C15 C16 1.390 . S
C16 C11 1.392 . S
C16 C15 1.390 . S
C16 H28 0.929 . S
O17 Tb1 2.326 . S
O17 C5 1.242 . S
O18 Eu2 2.324 . S
O18 C5 1.258 . S
O19 Tb1 2.500 . S
O19 C21 1.273 . S
O20 Tb1 2.473 . S
O20 C21 1.257 . S
C21 O19 1.273 . S
C21 O20 1.257 . S
O22 Eu2 2.326 . S
O22 C10 1.242 . S
O23 Tb1 2.324 . S
O23 C10 1.258 . S
O24 Eu2 2.500 1_565 S
O24 C7 1.273 1_565 S
O25 Eu2 2.473 . S
O25 C7 1.257 . S
H26 C12 0.929 . S
H27 C14 0.931 . S
H28 C16 0.929 . S
O29 Tb30 2.292 . S
O29 C32 1.255 . S
Tb30 O29 2.292 . S
Tb30 O46 2.326 . S
Tb30 O48 2.500 . S
Tb30 O49 2.473 . S
Tb30 O52 2.324 . S
Eu31 O35 2.292 . S
Eu31 C36 2.852 . S
Eu31 O47 2.324 . S
Eu31 O51 2.326 . S
Eu31 O53 2.500 . S
Eu31 O54 2.473 . S
C32 O29 1.255 . S
C32 O33 1.247 . S
O33 C32 1.247 . S
C34 O46 1.242 . S
C34 O47 1.258 . S
O35 Eu31 2.292 . S
O35 C37 1.255 . S
C36 Eu31 2.852 . S
C36 C40 1.503 . S
C36 O53 1.273 . S
C36 O54 1.257 . S
C37 O35 1.255 . S
C37 O38 1.247 . S
O38 C37 1.247 . S
C39 O51 1.242 . S
C39 O52 1.258 . S
C40 C36 1.503 . S
C40 C41 1.379 . S
C40 C45 1.392 . S
C41 C40 1.379 . S
C41 C42 1.404 . S
C41 H55 0.929 . S
C42 C41 1.404 . S
C42 C43 1.389 . S
C43 C42 1.389 . S
C43 C44 1.399 . S
C43 H56 0.931 . S
C44 C43 1.399 . S
C44 C45 1.390 . S
C45 C40 1.392 . S
C45 C44 1.390 . S
C45 H57 0.929 . S
O46 Tb30 2.326 . S
O46 C34 1.242 . S
O47 Eu31 2.324 . S
O47 C34 1.258 . S
O48 Tb30 2.500 . S
O48 C50 1.273 . S
O49 Tb30 2.473 . S
O49 C50 1.257 . S
C50 O48 1.273 . S
C50 O49 1.257 . S
O51 Eu31 2.326 . S
O51 C39 1.242 . S
O52 Tb30 2.324 . S
O52 C39 1.258 . S
O53 Eu31 2.500 . S
O53 C36 1.273 . S
O54 Eu31 2.473 . S
O54 C36 1.257 . S
H55 C41 0.929 . S
H56 C43 0.931 . S
H57 C45 0.929 . S
O58 Tb59 2.292 . S
O58 C61 1.255 . S
Tb59 O58 2.292 . S
Tb59 O75 2.326 . S
Tb59 O77 2.500 . S
Tb59 O78 2.473 . S
Tb59 O81 2.324 . S
Eu60 O64 2.292 . S
Eu60 C65 2.852 . S
Eu60 O76 2.324 . S
Eu60 O80 2.326 . S
Eu60 O82 2.500 . S
Eu60 O83 2.473 . S
C61 O58 1.255 . S
C61 O62 1.247 . S
O62 C61 1.247 . S
C63 O75 1.242 . S
C63 O76 1.258 . S
O64 Eu60 2.292 . S
O64 C66 1.255 . S
C65 Eu60 2.852 . S
C65 C69 1.503 . S
C65 O82 1.273 . S
C65 O83 1.257 . S
C66 O64 1.255 . S
C66 O67 1.247 . S
O67 C66 1.247 . S
C68 O80 1.242 . S
C68 O81 1.258 . S
C69 C65 1.503 . S
C69 C70 1.379 . S
C69 C74 1.392 . S
C70 C69 1.379 . S
C70 C71 1.404 . S
C70 H84 0.929 . S
C71 C70 1.404 . S
C71 C72 1.389 . S
C72 C71 1.389 . S
C72 C73 1.399 . S
C72 H85 0.931 . S
C73 C72 1.399 . S
C73 C74 1.390 . S
C74 C69 1.392 . S
C74 C73 1.390 . S
C74 H86 0.929 . S
O75 Tb59 2.326 . S
O75 C63 1.242 . S
O76 Eu60 2.324 . S
O76 C63 1.258 . S
O77 Tb59 2.500 . S
O77 C79 1.273 . S
O78 Tb59 2.473 . S
O78 C79 1.257 . S
C79 O77 1.273 . S
C79 O78 1.257 . S
O80 Eu60 2.326 . S
O80 C68 1.242 . S
O81 Tb59 2.324 . S
O81 C68 1.258 . S
O82 Eu60 2.500 . S
O82 C65 1.273 . S
O83 Eu60 2.473 . S
O83 C65 1.257 . S
H84 C70 0.929 . S
H85 C72 0.931 . S
H86 C74 0.929 . S
O87 Tb88 2.292 . S
O87 C90 1.255 . S
Tb88 O87 2.292 . S
Tb88 O104 2.326 . S
Tb88 O106 2.500 . S
Tb88 O107 2.473 . S
Tb88 O110 2.324 . S
Eu89 O93 2.292 . S
Eu89 C94 2.852 . S
Eu89 O105 2.324 . S
Eu89 O109 2.326 . S
Eu89 O111 2.500 1_455 S
Eu89 O112 2.473 . S
C90 O87 1.255 . S
C90 O91 1.247 . S
O91 C90 1.247 . S
C92 O104 1.242 . S
C92 O105 1.258 . S
O93 Eu89 2.292 . S
O93 C95 1.255 . S
C94 Eu89 2.852 . S
C94 C98 1.503 1_455 S
C94 O111 1.273 1_455 S
C94 O112 1.257 . S
C95 O93 1.255 . S
C95 O96 1.247 . S
O96 C95 1.247 . S
C97 O109 1.242 . S
C97 O110 1.258 . S
C98 C94 1.503 1_655 S
C98 C99 1.379 1_655 S
C98 C103 1.392 . S
C99 C98 1.379 1_455 S
C99 C100 1.404 1_455 S
C99 H113 0.929 . S
C100 C99 1.404 1_655 S
C100 C101 1.389 . S
C101 C100 1.389 . S
C101 C102 1.399 . S
C101 H114 0.931 . S
C102 C101 1.399 . S
C102 C103 1.390 . S
C103 C98 1.392 . S
C103 C102 1.390 . S
C103 H115 0.929 . S
O104 Tb88 2.326 . S
O104 C92 1.242 . S
O105 Eu89 2.324 . S
O105 C92 1.258 . S
O106 Tb88 2.500 . S
O106 C108 1.273 . S
O107 Tb88 2.473 . S
O107 C108 1.257 . S
C108 O106 1.273 . S
C108 O107 1.257 . S
O109 Eu89 2.326 . S
O109 C97 1.242 . S
O110 Tb88 2.324 . S
O110 C97 1.258 . S
O111 Eu89 2.500 1_655 S
O111 C94 1.273 1_655 S
O112 Eu89 2.473 . S
O112 C94 1.257 . S
H113 C99 0.929 . S
H114 C101 0.931 . S
H115 C103 0.929 . S
O116 Tb117 2.292 . S
O116 C119 1.255 . S
Tb117 O116 2.292 . S
Tb117 O133 2.326 . S
Tb117 O135 2.500 . S
Tb117 O136 2.473 . S
Tb117 O139 2.324 . S
Eu118 O122 2.292 . S
Eu118 C123 2.852 . S
Eu118 O134 2.324 . S
Eu118 O138 2.326 . S
Eu118 O140 2.500 1_565 S
Eu118 O141 2.473 . S
C119 O116 1.255 . S
C119 O120 1.247 . S
O120 C119 1.247 . S
C121 O133 1.242 . S
C121 O134 1.258 . S
O122 Eu118 2.292 . S
O122 C124 1.255 . S
C123 Eu118 2.852 . S
C123 C127 1.503 1_565 S
C123 O140 1.273 1_565 S
C123 O141 1.257 . S
C124 O122 1.255 . S
C124 O125 1.247 . S
O125 C124 1.247 . S
C126 O138 1.242 . S
C126 O139 1.258 . S
C127 C123 1.503 1_545 S
C127 C128 1.379 1_545 S
C127 C132 1.392 . S
C128 C127 1.379 1_565 S
C128 C129 1.404 1_565 S
C128 H142 0.929 . S
C129 C128 1.404 1_545 S
C129 C130 1.389 . S
C130 C129 1.389 . S
C130 C131 1.399 . S
C130 H143 0.931 . S
C131 C130 1.399 . S
C131 C132 1.390 . S
C132 C127 1.392 . S
C132 C131 1.390 . S
C132 H144 0.929 . S
O133 Tb117 2.326 . S
O133 C121 1.242 . S
O134 Eu118 2.324 . S
O134 C121 1.258 . S
O135 Tb117 2.500 . S
O135 C137 1.273 . S
O136 Tb117 2.473 . S
O136 C137 1.257 . S
C137 O135 1.273 . S
C137 O136 1.257 . S
O138 Eu118 2.326 . S
O138 C126 1.242 . S
O139 Tb117 2.324 . S
O139 C126 1.258 . S
O140 Eu118 2.500 1_545 S
O140 C123 1.273 1_545 S
O141 Eu118 2.473 . S
O141 C123 1.257 . S
H142 C128 0.929 . S
H143 C130 0.931 . S
H144 C132 0.929 . S
O145 Tb146 2.292 . S
O145 C148 1.255 . S
Tb146 O145 2.292 . S
Tb146 O162 2.326 . S
Tb146 O164 2.500 . S
Tb146 O165 2.473 . S
Tb146 O168 2.324 . S
Eu147 O151 2.292 . S
Eu147 C152 2.852 . S
Eu147 O163 2.324 . S
Eu147 O167 2.326 . S
Eu147 O169 2.500 . S
Eu147 O170 2.473 . S
C148 O145 1.255 . S
C148 O149 1.247 . S
O149 C148 1.247 . S
C150 O162 1.242 . S
C150 O163 1.258 . S
O151 Eu147 2.292 . S
O151 C153 1.255 . S
C152 Eu147 2.852 . S
C152 C156 1.503 . S
C152 O169 1.273 . S
C152 O170 1.257 . S
C153 O151 1.255 . S
C153 O154 1.247 . S
O154 C153 1.247 . S
C155 O167 1.242 . S
C155 O168 1.258 . S
C156 C152 1.503 . S
C156 C157 1.379 . S
C156 C161 1.392 . S
C157 C156 1.379 . S
C157 C158 1.404 . S
C157 H171 0.929 . S
C158 C157 1.404 . S
C158 C159 1.389 . S
C159 C158 1.389 . S
C159 C160 1.399 . S
C159 H172 0.931 . S
C160 C159 1.399 . S
C160 C161 1.390 . S
C161 C156 1.392 . S
C161 C160 1.390 . S
C161 H173 0.929 . S
O162 Tb146 2.326 . S
O162 C150 1.242 . S
O163 Eu147 2.324 . S
O163 C150 1.258 . S
O164 Tb146 2.500 . S
O164 C166 1.273 . S
O165 Tb146 2.473 . S
O165 C166 1.257 . S
C166 O164 1.273 . S
C166 O165 1.257 . S
O167 Eu147 2.326 . S
O167 C155 1.242 . S
O168 Tb146 2.324 . S
O168 C155 1.258 . S
O169 Eu147 2.500 . S
O169 C152 1.273 . S
O170 Eu147 2.473 . S
O170 C152 1.257 . S
H171 C157 0.929 . S
H172 C159 0.931 . S
H173 C161 0.929 . S
O174 Tb175 2.292 . S
O174 C177 1.255 . S
Tb175 O174 2.292 . S
Tb175 O191 2.326 . S
Tb175 O193 2.500 . S
Tb175 O194 2.473 . S
Tb175 O197 2.324 . S
Eu176 O180 2.292 . S
Eu176 C181 2.852 . S
Eu176 O192 2.324 . S
Eu176 O196 2.326 . S
Eu176 O198 2.500 . S
Eu176 O199 2.473 . S
C177 O174 1.255 . S
C177 O178 1.247 . S
O178 C177 1.247 . S
C179 O191 1.242 . S
C179 O192 1.258 . S
O180 Eu176 2.292 . S
O180 C182 1.255 . S
C181 Eu176 2.852 . S
C181 C185 1.503 . S
C181 O198 1.273 . S
C181 O199 1.257 . S
C182 O180 1.255 . S
C182 O183 1.247 . S
O183 C182 1.247 . S
C184 O196 1.242 . S
C184 O197 1.258 . S
C185 C181 1.503 . S
C185 C186 1.379 . S
C185 C190 1.392 . S
C186 C185 1.379 . S
C186 C187 1.404 . S
C186 H200 0.929 . S
C187 C186 1.404 . S
C187 C188 1.389 . S
C188 C187 1.389 . S
C188 C189 1.399 . S
C188 H201 0.931 . S
C189 C188 1.399 . S
C189 C190 1.390 . S
C190 C185 1.392 . S
C190 C189 1.390 . S
C190 H202 0.929 . S
O191 Tb175 2.326 . S
O191 C179 1.242 . S
O192 Eu176 2.324 . S
O192 C179 1.258 . S
O193 Tb175 2.500 . S
O193 C195 1.273 . S
O194 Tb175 2.473 . S
O194 C195 1.257 . S
C195 O193 1.273 . S
C195 O194 1.257 . S
O196 Eu176 2.326 . S
O196 C184 1.242 . S
O197 Tb175 2.324 . S
O197 C184 1.258 . S
O198 Eu176 2.500 . S
O198 C181 1.273 . S
O199 Eu176 2.473 . S
O199 C181 1.257 . S
H200 C186 0.929 . S
H201 C188 0.931 . S
H202 C190 0.929 . S
O203 Tb204 2.292 . S
O203 C206 1.255 . S
Tb204 O203 2.292 . S
Tb204 O220 2.326 . S
Tb204 O222 2.500 . S
Tb204 O223 2.473 . S
Tb204 O226 2.324 . S
Eu205 O209 2.292 . S
Eu205 C210 2.852 . S
Eu205 O221 2.324 . S
Eu205 O225 2.326 . S
Eu205 O227 2.500 1_655 S
Eu205 O228 2.473 . S
C206 O203 1.255 . S
C206 O207 1.247 . S
O207 C206 1.247 . S
C208 O220 1.242 . S
C208 O221 1.258 . S
O209 Eu205 2.292 . S
O209 C211 1.255 . S
C210 Eu205 2.852 . S
C210 C214 1.503 1_655 S
C210 O227 1.273 1_655 S
C210 O228 1.257 . S
C211 O209 1.255 . S
C211 O212 1.247 . S
O212 C211 1.247 . S
C213 O225 1.242 . S
C213 O226 1.258 . S
C214 C210 1.503 1_455 S
C214 C215 1.379 1_455 S
C214 C219 1.392 . S
C215 C214 1.379 1_655 S
C215 C216 1.404 1_655 S
C215 H229 0.929 . S
C216 C215 1.404 1_455 S
C216 C217 1.389 . S
C217 C216 1.389 . S
C217 C218 1.399 . S
C217 H230 0.931 . S
C218 C217 1.399 . S
C218 C219 1.390 . S
C219 C214 1.392 . S
C219 C218 1.390 . S
C219 H231 0.929 . S
O220 Tb204 2.326 . S
O220 C208 1.242 . S
O221 Eu205 2.324 . S
O221 C208 1.258 . S
O222 Tb204 2.500 . S
O222 C224 1.273 . S
O223 Tb204 2.473 . S
O223 C224 1.257 . S
C224 O222 1.273 . S
C224 O223 1.257 . S
O225 Eu205 2.326 . S
O225 C213 1.242 . S
O226 Tb204 2.324 . S
O226 C213 1.258 . S
O227 Eu205 2.500 1_455 S
O227 C210 1.273 1_455 S
O228 Eu205 2.473 . S
O228 C210 1.257 . S
H229 C215 0.929 . S
H230 C217 0.931 . S
H231 C219 0.929 . S
O232 Tb233 2.292 . S
O232 C235 1.255 . S
Tb233 O232 2.292 . S
Tb233 O249 2.326 . S
Tb233 O251 2.500 . S
Tb233 O252 2.473 . S
Tb233 O255 2.324 . S
Eu234 O238 2.292 . S
Eu234 C239 2.852 . S
Eu234 O250 2.324 . S
Eu234 O254 2.326 . S
Eu234 O256 2.500 1_565 S
Eu234 O257 2.473 . S
C235 O232 1.255 . S
C235 O236 1.247 . S
O236 C235 1.247 . S
C237 O249 1.242 . S
C237 O250 1.258 . S
O238 Eu234 2.292 . S
O238 C240 1.255 . S
C239 Eu234 2.852 . S
C239 C243 1.503 1_565 S
C239 O256 1.273 1_565 S
C239 O257 1.257 . S
C240 O238 1.255 . S
C240 O241 1.247 . S
O241 C240 1.247 . S
C242 O254 1.242 . S
C242 O255 1.258 . S
C243 C239 1.503 1_545 S
C243 C244 1.379 1_545 S
C243 C248 1.392 . S
C244 C243 1.379 1_565 S
C244 C245 1.404 1_565 S
C244 H258 0.929 . S
C245 C244 1.404 1_545 S
C245 C246 1.389 . S
C246 C245 1.389 . S
C246 C247 1.399 . S
C246 H259 0.931 . S
C247 C246 1.399 . S
C247 C248 1.390 . S
C248 C243 1.392 . S
C248 C247 1.390 . S
C248 H260 0.929 . S
O249 Tb233 2.326 . S
O249 C237 1.242 . S
O250 Eu234 2.324 . S
O250 C237 1.258 . S
O251 Tb233 2.500 . S
O251 C253 1.273 . S
O252 Tb233 2.473 . S
O252 C253 1.257 . S
C253 O251 1.273 . S
C253 O252 1.257 . S
O254 Eu234 2.326 . S
O254 C242 1.242 . S
O255 Tb233 2.324 . S
O255 C242 1.258 . S
O256 Eu234 2.500 1_545 S
O256 C239 1.273 1_545 S
O257 Eu234 2.473 . S
O257 C239 1.257 . S
H258 C244 0.929 . S
H259 C246 0.931 . S
H260 C248 0.929 . S
O261 Tb262 2.292 . S
O261 C264 1.255 . S
Tb262 O261 2.292 . S
Tb262 O278 2.326 . S
Tb262 O280 2.500 . S
Tb262 O281 2.473 . S
Tb262 O284 2.324 . S
Eu263 O267 2.292 . S
Eu263 C268 2.852 . S
Eu263 O279 2.324 . S
Eu263 O283 2.326 . S
Eu263 O285 2.500 . S
Eu263 O286 2.473 . S
C264 O261 1.255 . S
C264 O265 1.247 . S
O265 C264 1.247 . S
C266 O278 1.242 . S
C266 O279 1.258 . S
O267 Eu263 2.292 . S
O267 C269 1.255 . S
C268 Eu263 2.852 . S
C268 C272 1.503 . S
C268 O285 1.273 . S
C268 O286 1.257 . S
C269 O267 1.255 . S
C269 O270 1.247 . S
O270 C269 1.247 . S
C271 O283 1.242 . S
C271 O284 1.258 . S
C272 C268 1.503 . S
C272 C273 1.379 . S
C272 C277 1.392 . S
C273 C272 1.379 . S
C273 C274 1.404 . S
C273 H287 0.929 . S
C274 C273 1.404 . S
C274 C275 1.389 . S
C275 C274 1.389 . S
C275 C276 1.399 . S
C275 H288 0.931 . S
C276 C275 1.399 . S
C276 C277 1.390 . S
C277 C272 1.392 . S
C277 C276 1.390 . S
C277 H289 0.929 . S
O278 Tb262 2.326 . S
O278 C266 1.242 . S
O279 Eu263 2.324 . S
O279 C266 1.258 . S
O280 Tb262 2.500 . S
O280 C282 1.273 . S
O281 Tb262 2.473 . S
O281 C282 1.257 . S
C282 O280 1.273 . S
C282 O281 1.257 . S
O283 Eu263 2.326 . S
O283 C271 1.242 . S
O284 Tb262 2.324 . S
O284 C271 1.258 . S
O285 Eu263 2.500 . S
O285 C268 1.273 . S
O286 Eu263 2.473 . S
O286 C268 1.257 . S
H287 C273 0.929 . S
H288 C275 0.931 . S
H289 C277 0.929 . S
O290 Tb291 2.292 . S
O290 C293 1.255 . S
Tb291 O290 2.292 . S
Tb291 O307 2.326 . S
Tb291 O309 2.500 . S
Tb291 O310 2.473 . S
Tb291 O313 2.324 . S
Eu292 O296 2.292 . S
Eu292 C297 2.852 . S
Eu292 O308 2.324 . S
Eu292 O312 2.326 . S
Eu292 O314 2.500 . S
Eu292 O315 2.473 . S
C293 O290 1.255 . S
C293 O294 1.247 . S
O294 C293 1.247 . S
C295 O307 1.242 . S
C295 O308 1.258 . S
O296 Eu292 2.292 . S
O296 C298 1.255 . S
C297 Eu292 2.852 . S
C297 C301 1.503 . S
C297 O314 1.273 . S
C297 O315 1.257 . S
C298 O296 1.255 . S
C298 O299 1.247 . S
O299 C298 1.247 . S
C300 O312 1.242 . S
C300 O313 1.258 . S
C301 C297 1.503 . S
C301 C302 1.379 . S
C301 C306 1.392 . S
C302 C301 1.379 . S
C302 C303 1.404 . S
C302 H316 0.929 . S
C303 C302 1.404 . S
C303 C304 1.389 . S
C304 C303 1.389 . S
C304 C305 1.399 . S
C304 H317 0.931 . S
C305 C304 1.399 . S
C305 C306 1.390 . S
C306 C301 1.392 . S
C306 C305 1.390 . S
C306 H318 0.929 . S
O307 Tb291 2.326 . S
O307 C295 1.242 . S
O308 Eu292 2.324 . S
O308 C295 1.258 . S
O309 Tb291 2.500 . S
O309 C311 1.273 . S
O310 Tb291 2.473 . S
O310 C311 1.257 . S
C311 O309 1.273 . S
C311 O310 1.257 . S
O312 Eu292 2.326 . S
O312 C300 1.242 . S
O313 Tb291 2.324 . S
O313 C300 1.258 . S
O314 Eu292 2.500 . S
O314 C297 1.273 . S
O315 Eu292 2.473 . S
O315 C297 1.257 . S
H316 C302 0.929 . S
H317 C304 0.931 . S
H318 C306 0.929 . S
O319 Tb320 2.292 . S
O319 C322 1.255 . S
Tb320 O319 2.292 . S
Tb320 O336 2.326 . S
Tb320 O338 2.500 . S
Tb320 O339 2.473 . S
Tb320 O342 2.324 . S
Eu321 O325 2.292 . S
Eu321 C326 2.852 . S
Eu321 O337 2.324 . S
Eu321 O341 2.326 . S
Eu321 O343 2.500 1_655 S
Eu321 O344 2.473 . S
C322 O319 1.255 . S
C322 O323 1.247 . S
O323 C322 1.247 . S
C324 O336 1.242 . S
C324 O337 1.258 . S
O325 Eu321 2.292 . S
O325 C327 1.255 . S
C326 Eu321 2.852 . S
C326 C330 1.503 1_655 S
C326 O343 1.273 1_655 S
C326 O344 1.257 . S
C327 O325 1.255 . S
C327 O328 1.247 . S
O328 C327 1.247 . S
C329 O341 1.242 . S
C329 O342 1.258 . S
C330 C326 1.503 1_455 S
C330 C331 1.379 1_455 S
C330 C335 1.392 . S
C331 C330 1.379 1_655 S
C331 C332 1.404 1_655 S
C331 H345 0.929 . S
C332 C331 1.404 1_455 S
C332 C333 1.389 . S
C333 C332 1.389 . S
C333 C334 1.399 . S
C333 H346 0.931 . S
C334 C333 1.399 . S
C334 C335 1.390 . S
C335 C330 1.392 . S
C335 C334 1.390 . S
C335 H347 0.929 . S
O336 Tb320 2.326 . S
O336 C324 1.242 . S
O337 Eu321 2.324 . S
O337 C324 1.258 . S
O338 Tb320 2.500 . S
O338 C340 1.273 . S
O339 Tb320 2.473 . S
O339 C340 1.257 . S
C340 O338 1.273 . S
C340 O339 1.257 . S
O341 Eu321 2.326 . S
O341 C329 1.242 . S
O342 Tb320 2.324 . S
O342 C329 1.258 . S
O343 Eu321 2.500 1_455 S
O343 C326 1.273 1_455 S
O344 Eu321 2.473 . S
O344 C326 1.257 . S
H345 C331 0.929 . S
H346 C333 0.931 . S
H347 C335 0.929 . S
O348 Tb349 2.292 . S
O348 C351 1.255 . S
Tb349 O348 2.292 . S
Tb349 O365 2.326 . S
Tb349 O367 2.500 . S
Tb349 O368 2.473 . S
Tb349 O371 2.324 . S
Eu350 O354 2.292 . S
Eu350 C355 2.852 . S
Eu350 O366 2.324 . S
Eu350 O370 2.326 . S
Eu350 O372 2.500 1_545 S
Eu350 O373 2.473 . S
C351 O348 1.255 . S
C351 O352 1.247 . S
O352 C351 1.247 . S
C353 O365 1.242 . S
C353 O366 1.258 . S
O354 Eu350 2.292 . S
O354 C356 1.255 . S
C355 Eu350 2.852 . S
C355 C359 1.503 1_545 S
C355 O372 1.273 1_545 S
C355 O373 1.257 . S
C356 O354 1.255 . S
C356 O357 1.247 . S
O357 C356 1.247 . S
C358 O370 1.242 . S
C358 O371 1.258 . S
C359 C355 1.503 1_565 S
C359 C360 1.379 1_565 S
C359 C364 1.392 . S
C360 C359 1.379 1_545 S
C360 C361 1.404 1_545 S
C360 H374 0.929 . S
C361 C360 1.404 1_565 S
C361 C362 1.389 . S
C362 C361 1.389 . S
C362 C363 1.399 . S
C362 H375 0.931 . S
C363 C362 1.399 . S
C363 C364 1.390 . S
C364 C359 1.392 . S
C364 C363 1.390 . S
C364 H376 0.929 . S
O365 Tb349 2.326 . S
O365 C353 1.242 . S
O366 Eu350 2.324 . S
O366 C353 1.258 . S
O367 Tb349 2.500 . S
O367 C369 1.273 . S
O368 Tb349 2.473 . S
O368 C369 1.257 . S
C369 O367 1.273 . S
C369 O368 1.257 . S
O370 Eu350 2.326 . S
O370 C358 1.242 . S
O371 Tb349 2.324 . S
O371 C358 1.258 . S
O372 Eu350 2.500 1_565 S
O372 C355 1.273 1_565 S
O373 Eu350 2.473 . S
O373 C355 1.257 . S
H374 C360 0.929 . S
H375 C362 0.931 . S
H376 C364 0.929 . S
O377 Tb378 2.292 . S
O377 C380 1.255 . S
Tb378 O377 2.292 . S
Tb378 O394 2.326 . S
Tb378 O396 2.500 . S
Tb378 O397 2.473 . S
Tb378 O400 2.324 . S
Eu379 O383 2.292 . S
Eu379 C384 2.852 . S
Eu379 O395 2.324 . S
Eu379 O399 2.326 . S
Eu379 O401 2.500 . S
Eu379 O402 2.473 . S
C380 O377 1.255 . S
C380 O381 1.247 . S
O381 C380 1.247 . S
C382 O394 1.242 . S
C382 O395 1.258 . S
O383 Eu379 2.292 . S
O383 C385 1.255 . S
C384 Eu379 2.852 . S
C384 C388 1.503 . S
C384 O401 1.273 . S
C384 O402 1.257 . S
C385 O383 1.255 . S
C385 O386 1.247 . S
O386 C385 1.247 . S
C387 O399 1.242 . S
C387 O400 1.258 . S
C388 C384 1.503 . S
C388 C389 1.379 . S
C388 C393 1.392 . S
C389 C388 1.379 . S
C389 C390 1.404 . S
C389 H403 0.929 . S
C390 C389 1.404 . S
C390 C391 1.389 . S
C391 C390 1.389 . S
C391 C392 1.399 . S
C391 H404 0.931 . S
C392 C391 1.399 . S
C392 C393 1.390 . S
C393 C388 1.392 . S
C393 C392 1.390 . S
C393 H405 0.929 . S
O394 Tb378 2.326 . S
O394 C382 1.242 . S
O395 Eu379 2.324 . S
O395 C382 1.258 . S
O396 Tb378 2.500 . S
O396 C398 1.273 . S
O397 Tb378 2.473 . S
O397 C398 1.257 . S
C398 O396 1.273 . S
C398 O397 1.257 . S
O399 Eu379 2.326 . S
O399 C387 1.242 . S
O400 Tb378 2.324 . S
O400 C387 1.258 . S
O401 Eu379 2.500 . S
O401 C384 1.273 . S
O402 Eu379 2.473 . S
O402 C384 1.257 . S
H403 C389 0.929 . S
H404 C391 0.931 . S
H405 C393 0.929 . S
O406 Tb407 2.292 . S
O406 C409 1.255 . S
Tb407 O406 2.292 . S
Tb407 O423 2.326 . S
Tb407 O425 2.500 . S
Tb407 O426 2.473 . S
Tb407 O429 2.324 . S
Eu408 O412 2.292 . S
Eu408 C413 2.852 . S
Eu408 O424 2.324 . S
Eu408 O428 2.326 . S
Eu408 O430 2.500 . S
Eu408 O431 2.473 . S
C409 O406 1.255 . S
C409 O410 1.247 . S
O410 C409 1.247 . S
C411 O423 1.242 . S
C411 O424 1.258 . S
O412 Eu408 2.292 . S
O412 C414 1.255 . S
C413 Eu408 2.852 . S
C413 C417 1.503 . S
C413 O430 1.273 . S
C413 O431 1.257 . S
C414 O412 1.255 . S
C414 O415 1.247 . S
O415 C414 1.247 . S
C416 O428 1.242 . S
C416 O429 1.258 . S
C417 C413 1.503 . S
C417 C418 1.379 . S
C417 C422 1.392 . S
C418 C417 1.379 . S
C418 C419 1.404 . S
C418 H432 0.929 . S
C419 C418 1.404 . S
C419 C420 1.389 . S
C420 C419 1.389 . S
C420 C421 1.399 . S
C420 H433 0.931 . S
C421 C420 1.399 . S
C421 C422 1.390 . S
C422 C417 1.392 . S
C422 C421 1.390 . S
C422 H434 0.929 . S
O423 Tb407 2.326 . S
O423 C411 1.242 . S
O424 Eu408 2.324 . S
O424 C411 1.258 . S
O425 Tb407 2.500 . S
O425 C427 1.273 . S
O426 Tb407 2.473 . S
O426 C427 1.257 . S
C427 O425 1.273 . S
C427 O426 1.257 . S
O428 Eu408 2.326 . S
O428 C416 1.242 . S
O429 Tb407 2.324 . S
O429 C416 1.258 . S
O430 Eu408 2.500 . S
O430 C413 1.273 . S
O431 Eu408 2.473 . S
O431 C413 1.257 . S
H432 C418 0.929 . S
H433 C420 0.931 . S
H434 C422 0.929 . S
O435 Tb436 2.292 . S
O435 C438 1.255 . S
Tb436 O435 2.292 . S
Tb436 O452 2.326 . S
Tb436 O454 2.500 . S
Tb436 O455 2.473 . S
Tb436 O458 2.324 . S
Eu437 O441 2.292 . S
Eu437 C442 2.852 . S
Eu437 O453 2.324 . S
Eu437 O457 2.326 . S
Eu437 O459 2.500 1_455 S
Eu437 O460 2.473 . S
C438 O435 1.255 . S
C438 O439 1.247 . S
O439 C438 1.247 . S
C440 O452 1.242 . S
C440 O453 1.258 . S
O441 Eu437 2.292 . S
O441 C443 1.255 . S
C442 Eu437 2.852 . S
C442 C446 1.503 1_455 S
C442 O459 1.273 1_455 S
C442 O460 1.257 . S
C443 O441 1.255 . S
C443 O444 1.247 . S
O444 C443 1.247 . S
C445 O457 1.242 . S
C445 O458 1.258 . S
C446 C442 1.503 1_655 S
C446 C447 1.379 1_655 S
C446 C451 1.392 . S
C447 C446 1.379 1_455 S
C447 C448 1.404 1_455 S
C447 H461 0.929 . S
C448 C447 1.404 1_655 S
C448 C449 1.389 . S
C449 C448 1.389 . S
C449 C450 1.399 . S
C449 H462 0.931 . S
C450 C449 1.399 . S
C450 C451 1.390 . S
C451 C446 1.392 . S
C451 C450 1.390 . S
C451 H463 0.929 . S
O452 Tb436 2.326 . S
O452 C440 1.242 . S
O453 Eu437 2.324 . S
O453 C440 1.258 . S
O454 Tb436 2.500 . S
O454 C456 1.273 . S
O455 Tb436 2.473 . S
O455 C456 1.257 . S
C456 O454 1.273 . S
C456 O455 1.257 . S
O457 Eu437 2.326 . S
O457 C445 1.242 . S
O458 Tb436 2.324 . S
O458 C445 1.258 . S
O459 Eu437 2.500 1_655 S
O459 C442 1.273 1_655 S
O460 Eu437 2.473 . S
O460 C442 1.257 . S
H461 C447 0.929 . S
H462 C449 0.931 . S
H463 C451 0.929 . S
C464 C465 1.377 . S
C464 C470 1.379 1_556 S
C464 N472 1.356 . S
C465 C464 1.377 . S
C465 C471 1.349 1_565 S
C466 C467 1.377 . S
C466 C471 1.379 1_554 S
C466 N473 1.356 . S
C467 C466 1.377 . S
C467 C470 1.349 1_545 S
N468 C470 1.356 . S
N468 H480 0.991 . S
N468 H481 0.985 . S
N469 C471 1.356 . S
N469 H474 0.984 . S
N469 H475 0.991 . S
C470 C464 1.379 1_554 S
C470 C467 1.349 1_565 S
C470 N468 1.356 . S
C471 C465 1.349 1_545 S
C471 C466 1.379 1_556 S
C471 N469 1.356 . S
N472 C464 1.356 . S
N472 H478 0.984 . S
N472 H479 0.984 . S
N473 C466 1.356 . S
N473 H476 0.984 . S
N473 H477 0.985 . S
H474 N469 0.984 . S
H475 N469 0.991 . S
H476 N473 0.984 . S
H477 N473 0.985 . S
H478 N472 0.984 . S
H479 N472 0.984 . S
H480 N468 0.991 . S
H481 N468 0.985 . S
C482 C483 1.363 . S
C482 C488 1.379 1_554 S
C482 N490 1.356 . S
C483 C482 1.363 . S
C483 C489 1.363 . S
C484 C485 1.363 . S
C484 C489 1.379 1_556 S
C484 N491 1.356 . S
C485 C484 1.363 . S
C485 C488 1.363 . S
N486 C488 1.356 . S
N486 H498 0.984 . S
N486 H499 0.985 . S
N487 C489 1.356 . S
N487 H492 0.984 . S
N487 H493 0.985 . S
C488 C482 1.379 1_556 S
C488 C485 1.363 . S
C488 N486 1.356 . S
C489 C483 1.363 . S
C489 C484 1.379 1_554 S
C489 N487 1.356 . S
N490 C482 1.356 . S
N490 H496 0.984 . S
N490 H497 0.984 . S
N491 C484 1.356 . S
N491 H494 0.984 . S
N491 H495 0.985 . S
H492 N487 0.984 . S
H493 N487 0.985 . S
H494 N491 0.984 . S
H495 N491 0.985 . S
H496 N490 0.984 . S
H497 N490 0.984 . S
H498 N486 0.984 . S
H499 N486 0.985 . S
C500 C501 1.363 . S
C500 C506 1.379 1_556 S
C500 N508 1.356 . S
C501 C500 1.363 . S
C501 C507 1.363 1_455 S
C502 C503 1.363 . S
C502 C507 1.379 1_554 S
C502 N509 1.356 . S
C503 C502 1.363 . S
C503 C506 1.363 1_655 S
N504 C506 1.356 . S
N504 H516 0.984 . S
N504 H517 0.985 1_455 S
N505 C507 1.356 . S
N505 H510 0.984 1_655 S
N505 H511 0.985 . S
C506 C500 1.379 1_554 S
C506 C503 1.363 1_455 S
C506 N504 1.356 . S
C507 C501 1.363 1_655 S
C507 C502 1.379 1_556 S
C507 N505 1.356 . S
N508 C500 1.356 . S
N508 H514 0.984 . S
N508 H515 0.984 . S
N509 C502 1.356 . S
N509 H512 0.984 . S
N509 H513 0.985 . S
H510 N505 0.984 1_455 S
H511 N505 0.985 . S
H512 N509 0.984 . S
H513 N509 0.985 . S
H514 N508 0.984 . S
H515 N508 0.984 . S
H516 N504 0.984 . S
H517 N504 0.985 1_655 S
C518 C519 1.388 . S
C518 C524 1.379 1_564 S
C518 N526 1.356 . S
C519 C518 1.388 . S
C519 C525 1.338 1_455 S
C520 C521 1.388 . S
C520 C525 1.379 1_546 S
C520 N527 1.356 . S
C521 C520 1.388 . S
C521 C524 1.338 1_655 S
N522 C524 1.356 . S
N522 H534 0.984 . S
N522 H535 0.985 . S
N523 C525 1.356 . S
N523 H528 0.984 . S
N523 H529 0.985 . S
C524 C518 1.379 1_546 S
C524 C521 1.338 1_455 S
C524 N522 1.356 . S
C525 C519 1.338 1_655 S
C525 C520 1.379 1_564 S
C525 N523 1.356 . S
N526 C518 1.356 . S
N526 H532 0.984 . S
N526 H533 0.984 . S
N527 C520 1.356 . S
N527 H530 0.984 . S
N527 H531 0.985 . S
H528 N523 0.984 . S
H529 N523 0.985 . S
H530 N527 0.984 . S
H531 N527 0.985 . S
H532 N526 0.984 . S
H533 N526 0.984 . S
H534 N522 0.984 . S
H535 N522 0.985 . S
C536 C537 1.383 1_655 S
C536 C542 1.379 . S
C536 N544 1.356 . S
C537 C536 1.383 1_455 S
C537 C543 1.343 1_565 S
C538 C539 1.383 1_455 S
C538 C543 1.379 . S
C538 N545 1.356 . S
C539 C538 1.383 1_655 S
C539 C542 1.343 1_545 S
N540 C542 1.356 . S
N540 H552 0.984 . S
N540 H553 0.985 . S
N541 C543 1.356 . S
N541 H546 0.984 . S
N541 H547 0.985 . S
C542 C536 1.379 . S
C542 C539 1.343 1_565 S
C542 N540 1.356 . S
C543 C537 1.343 1_545 S
C543 C538 1.379 . S
C543 N541 1.356 . S
N544 C536 1.356 . S
N544 H550 0.984 . S
N544 H551 0.984 1_655 S
N545 C538 1.356 . S
N545 H548 0.984 1_455 S
N545 H549 0.985 . S
H546 N541 0.984 . S
H547 N541 0.985 . S
H548 N545 0.984 1_655 S
H549 N545 0.985 . S
H550 N544 0.984 . S
H551 N544 0.984 1_455 S
H552 N540 0.984 . S
H553 N540 0.985 . S
C554 C555 1.363 . S
C554 C560 1.379 . S
C554 N562 1.356 . S
C555 C554 1.363 . S
C555 C561 1.363 1_545 S
C556 C557 1.363 . S
C556 C561 1.379 . S
C556 N563 1.356 . S
C557 C556 1.363 . S
C557 C560 1.363 1_565 S
N558 C560 1.356 . S
N558 H570 0.984 . S
N558 H571 0.985 1_545 S
N559 C561 1.356 . S
N559 H564 0.984 1_565 S
N559 H565 0.985 . S
C560 C554 1.379 . S
C560 C557 1.363 1_545 S
C560 N558 1.356 . S
C561 C555 1.363 1_565 S
C561 C556 1.379 . S
C561 N559 1.356 . S
N562 C554 1.356 . S
N562 H568 0.984 . S
N562 H569 0.984 . S
N563 C556 1.356 . S
N563 H566 0.984 . S
N563 H567 0.985 . S
H564 N559 0.984 1_545 S
H565 N559 0.985 . S
H566 N563 0.984 . S
H567 N563 0.985 . S
H568 N562 0.984 . S
H569 N562 0.984 . S
H570 N558 0.984 . S
H571 N558 0.985 1_565 S
C572 C573 1.363 . S
C572 C578 1.379 . S
C572 N580 1.356 . S
C573 C572 1.363 . S
C573 C579 1.363 . S
C574 C575 1.363 . S
C574 C579 1.379 . S
C574 N581 1.356 . S
C575 C574 1.363 . S
C575 C578 1.363 . S
N576 C578 1.356 . S
N576 H588 0.984 . S
N576 H589 0.985 . S
N577 C579 1.356 . S
N577 H582 0.984 . S
N577 H583 0.985 . S
C578 C572 1.379 . S
C578 C575 1.363 . S
C578 N576 1.356 . S
C579 C573 1.363 . S
C579 C574 1.379 . S
C579 N577 1.356 . S
N580 C572 1.356 . S
N580 H586 0.984 . S
N580 H587 0.984 . S
N581 C574 1.356 . S
N581 H584 0.984 . S
N581 H585 0.985 . S
H582 N577 0.984 . S
H583 N577 0.985 . S
H584 N581 0.984 . S
H585 N581 0.985 . S
H586 N580 0.984 . S
H587 N580 0.984 . S
H588 N576 0.984 . S
H589 N576 0.985 . S
C590 C591 1.359 1_655 S
C590 C596 1.379 . S
C590 N598 1.356 . S
C591 C590 1.359 1_455 S
C591 C597 1.367 . S
C592 C593 1.359 1_455 S
C592 C597 1.379 . S
C592 N599 1.356 . S
C593 C592 1.359 1_655 S
C593 C596 1.367 . S
N594 C596 1.356 . S
N594 H606 0.984 . S
N594 H607 0.985 . S
N595 C597 1.356 . S
N595 H600 0.984 . S
N595 H601 0.985 . S
C596 C590 1.379 . S
C596 C593 1.367 . S
C596 N594 1.356 . S
C597 C591 1.367 . S
C597 C592 1.379 . S
C597 N595 1.356 . S
N598 C590 1.356 . S
N598 H604 0.984 . S
N598 H605 0.984 . S
N599 C592 1.356 . S
N599 H602 0.984 . S
N599 H603 0.985 . S
H600 N595 0.984 . S
H601 N595 0.985 . S
H602 N599 0.984 . S
H603 N599 0.985 . S
H604 N598 0.984 . S
H605 N598 0.984 . S
H606 N594 0.984 . S
H607 N594 0.985 . S
C608 C609 1.363 . S
C608 C614 1.379 . S
C608 N616 1.356 . S
C609 C608 1.363 . S
C609 C615 1.363 . S
C610 C611 1.363 . S
C610 C615 1.379 . S
C610 N617 1.356 . S
C611 C610 1.363 . S
C611 C614 1.363 . S
N612 C614 1.356 . S
N612 H624 0.984 . S
N612 H625 0.985 . S
N613 C615 1.356 . S
N613 H618 0.984 . S
N613 H619 0.985 . S
C614 C608 1.379 . S
C614 C611 1.363 . S
C614 N612 1.356 . S
C615 C609 1.363 . S
C615 C610 1.379 . S
C615 N613 1.356 . S
N616 C608 1.356 . S
N616 H622 0.984 . S
N616 H623 0.984 . S
N617 C610 1.356 . S
N617 H620 0.984 . S
N617 H621 0.985 . S
H618 N613 0.984 . S
H619 N613 0.985 . S
H620 N617 0.984 . S
H621 N617 0.985 . S
H622 N616 0.984 . S
H623 N616 0.984 . S
H624 N612 0.984 . S
H625 N612 0.985 . S
C626 C627 1.363 . S
C626 C632 1.379 . S
C626 N634 1.356 . S
C627 C626 1.363 . S
C627 C633 1.363 . S
C628 C629 1.363 . S
C628 C633 1.379 . S
C628 N635 1.356 . S
C629 C628 1.363 . S
C629 C632 1.363 . S
N630 C632 1.356 . S
N630 H642 0.984 . S
N630 H643 0.985 . S
N631 C633 1.356 . S
N631 H636 0.984 . S
N631 H637 0.985 . S
C632 C626 1.379 . S
C632 C629 1.363 . S
C632 N630 1.356 . S
C633 C627 1.363 . S
C633 C628 1.379 . S
C633 N631 1.356 . S
N634 C626 1.356 . S
N634 H640 0.984 . S
N634 H641 0.984 . S
N635 C628 1.356 . S
N635 H638 0.984 . S
N635 H639 0.985 . S
H636 N631 0.984 . S
H637 N631 0.985 . S
H638 N635 0.984 . S
H639 N635 0.985 . S
H640 N634 0.984 . S
H641 N634 0.984 . S
H642 N630 0.984 . S
H643 N630 0.985 . S
C644 C645 1.363 . S
C644 C650 1.379 . S
C644 N652 1.356 . S
C645 C644 1.363 . S
C645 C651 1.363 1_655 S
C646 C647 1.363 . S
C646 C651 1.379 1_655 S
C646 N653 1.356 1_655 S
C647 C646 1.363 . S
C647 C650 1.363 . S
N648 C650 1.356 . S
N648 H660 0.984 . S
N648 H661 0.985 . S
N649 C651 1.356 . S
N649 H654 0.984 . S
N649 H655 0.985 . S
C650 C644 1.379 . S
C650 C647 1.363 . S
C650 N648 1.356 . S
C651 C645 1.363 1_455 S
C651 C646 1.379 1_455 S
C651 N649 1.356 . S
N652 C644 1.356 . S
N652 H658 0.984 . S
N652 H659 0.984 . S
N653 C646 1.356 1_455 S
N653 H656 0.984 1_455 S
N653 H657 0.985 . S
H654 N649 0.984 . S
H655 N649 0.985 . S
H656 N653 0.984 1_655 S
H657 N653 0.985 . S
H658 N652 0.984 . S
H659 N652 0.984 . S
H660 N648 0.984 . S
H661 N648 0.985 . S
C662 C663 1.363 . S
C662 C668 1.379 . S
C662 N670 1.356 . S
C663 C662 1.363 . S
C663 C669 1.363 . S
C664 C665 1.363 . S
C664 C669 1.379 . S
C664 N671 1.356 . S
C665 C664 1.363 . S
C665 C668 1.363 . S
N666 C668 1.356 . S
N666 H678 0.984 . S
N666 H679 0.985 . S
N667 C669 1.356 . S
N667 H672 0.984 1_565 S
N667 H673 0.985 1_565 S
C668 C662 1.379 . S
C668 C665 1.363 . S
C668 N666 1.356 . S
C669 C663 1.363 . S
C669 C664 1.379 . S
C669 N667 1.356 . S
N670 C662 1.356 . S
N670 H676 0.984 . S
N670 H677 0.984 . S
N671 C664 1.356 . S
N671 H674 0.984 . S
N671 H675 0.985 . S
H672 N667 0.984 1_545 S
H673 N667 0.985 1_545 S
H674 N671 0.984 . S
H675 N671 0.985 . S
H676 N670 0.984 . S
H677 N670 0.984 . S
H678 N666 0.984 . S
H679 N666 0.985 . S
C680 C681 1.363 . S
C680 C686 1.379 . S
C680 N688 1.356 1_455 S
C681 C680 1.363 . S
C681 C687 1.363 . S
C682 C683 1.363 . S
C682 C687 1.379 . S
C682 N689 1.356 . S
C683 C682 1.363 . S
C683 C686 1.363 . S
N684 C686 1.356 . S
N684 H696 0.984 . S
N684 H697 0.985 . S
N685 C687 1.356 . S
N685 H690 0.984 . S
N685 H691 0.985 . S
C686 C680 1.379 . S
C686 C683 1.363 . S
C686 N684 1.356 . S
C687 C681 1.363 . S
C687 C682 1.379 . S
C687 N685 1.356 . S
N688 C680 1.356 1_655 S
N688 H694 0.984 . S
N688 H695 0.984 . S
N689 C682 1.356 . S
N689 H692 0.984 . S
N689 H693 0.985 . S
H690 N685 0.984 . S
H691 N685 0.985 . S
H692 N689 0.984 . S
H693 N689 0.985 . S
H694 N688 0.984 . S
H695 N688 0.984 . S
H696 N684 0.984 . S
H697 N684 0.985 . S
C698 C699 1.363 1_565 S
C698 C704 1.379 1_565 S
C698 N706 1.356 . S
C699 C698 1.363 1_545 S
C699 C705 1.363 . S
C700 C701 1.363 . S
C700 C705 1.379 . S
C700 N707 1.356 . S
C701 C700 1.363 . S
C701 C704 1.363 . S
N702 C704 1.358 . S
N702 H714 0.979 1_545 S
N702 H715 0.988 . S
N703 C705 1.356 . S
N703 H708 0.984 . S
N703 H709 0.985 . S
C704 C698 1.379 1_545 S
C704 C701 1.363 . S
C704 N702 1.358 . S
C705 C699 1.363 . S
C705 C700 1.379 . S
C705 N703 1.356 . S
N706 C698 1.356 . S
N706 H712 0.984 . S
N706 H713 0.984 . S
N707 C700 1.356 . S
N707 H710 0.984 . S
N707 H711 0.985 . S
H708 N703 0.984 . S
H709 N703 0.985 . S
H710 N707 0.984 . S
H711 N707 0.985 . S
H712 N706 0.984 . S
H713 N706 0.984 . S
H714 N702 0.979 1_565 S
H715 N702 0.988 . S
C716 C717 1.363 . S
C716 C722 1.379 . S
C716 N724 1.356 . S
C717 C716 1.363 . S
C717 C723 1.363 . S
C718 C719 1.363 . S
C718 C723 1.379 . S
C718 N725 1.356 . S
C719 C718 1.363 . S
C719 C722 1.363 . S
N720 C722 1.356 . S
N720 H732 0.984 . S
N720 H733 0.985 . S
N721 C723 1.356 . S
N721 H726 0.984 . S
N721 H727 0.985 . S
C722 C716 1.379 . S
C722 C719 1.363 . S
C722 N720 1.356 . S
C723 C717 1.363 . S
C723 C718 1.379 . S
C723 N721 1.356 . S
N724 C716 1.356 . S
N724 H730 0.984 . S
N724 H731 0.984 . S
N725 C718 1.356 . S
N725 H728 0.984 . S
N725 H729 0.985 . S
H726 N721 0.984 . S
H727 N721 0.985 . S
H728 N725 0.984 . S
H729 N725 0.985 . S
H730 N724 0.984 . S
H731 N724 0.984 . S
H732 N720 0.984 . S
H733 N720 0.985 . S
C734 C735 1.363 . S
C734 C740 1.379 . S
C734 N742 1.356 . S
C735 C734 1.363 . S
C735 C741 1.363 . S
C736 C737 1.363 . S
C736 C741 1.379 . S
C736 N743 1.356 . S
C737 C736 1.363 . S
C737 C740 1.363 . S
N738 C740 1.356 . S
N738 H750 0.984 . S
N738 H751 0.985 . S
N739 C741 1.356 . S
N739 H744 0.984 . S
N739 H745 0.985 . S
C740 C734 1.379 . S
C740 C737 1.363 . S
C740 N738 1.356 . S
C741 C735 1.363 . S
C741 C736 1.379 . S
C741 N739 1.356 . S
N742 C734 1.356 . S
N742 H748 0.984 . S
N742 H749 0.984 . S
N743 C736 1.356 . S
N743 H746 0.984 . S
N743 H747 0.985 . S
H744 N739 0.984 . S
H745 N739 0.985 . S
H746 N743 0.984 . S
H747 N743 0.985 . S
H748 N742 0.984 . S
H749 N742 0.984 . S
H750 N738 0.984 . S
H751 N738 0.985 . S
C752 C753 1.363 . S
C752 C758 1.379 . S
C752 N760 1.356 . S
C753 C752 1.363 . S
C753 C759 1.363 . S
C754 C755 1.363 . S
C754 C759 1.379 . S
C754 N761 1.356 . S
C755 C754 1.363 . S
C755 C758 1.363 . S
N756 C758 1.356 . S
N756 H768 0.984 . S
N756 H769 0.985 . S
N757 C759 1.356 . S
N757 H762 0.984 . S
N757 H763 0.985 . S
C758 C752 1.379 . S
C758 C755 1.363 . S
C758 N756 1.356 . S
C759 C753 1.363 . S
C759 C754 1.379 . S
C759 N757 1.356 . S
N760 C752 1.356 . S
N760 H766 0.984 . S
N760 H767 0.984 . S
N761 C754 1.356 . S
N761 H764 0.984 . S
N761 H765 0.985 . S
H762 N757 0.984 . S
H763 N757 0.985 . S
H764 N761 0.984 . S
H765 N761 0.985 . S
H766 N760 0.984 . S
H767 N760 0.984 . S
H768 N756 0.984 . S
H769 N756 0.985 . S
C770 C771 1.363 . S
C770 C776 1.379 . S
C770 N778 1.356 . S
C771 C770 1.363 . S
C771 C777 1.363 . S
C772 C773 1.363 . S
C772 C777 1.379 . S
C772 N779 1.356 . S
C773 C772 1.363 . S
C773 C776 1.363 . S
N774 C776 1.356 . S
N774 H786 0.984 . S
N774 H787 0.985 . S
N775 C777 1.356 . S
N775 H780 0.984 . S
N775 H781 0.985 . S
C776 C770 1.379 . S
C776 C773 1.363 . S
C776 N774 1.356 . S
C777 C771 1.363 . S
C777 C772 1.379 . S
C777 N775 1.356 . S
N778 C770 1.356 . S
N778 H784 0.984 . S
N778 H785 0.984 . S
N779 C772 1.356 . S
N779 H782 0.984 . S
N779 H783 0.985 . S
H780 N775 0.984 . S
H781 N775 0.985 . S
H782 N779 0.984 . S
H783 N779 0.985 . S
H784 N778 0.984 . S
H785 N778 0.984 . S
H786 N774 0.984 . S
H787 N774 0.985 . S
C788 C789 1.363 . S
C788 C794 1.379 . S
C788 N796 1.356 1_455 S
C789 C788 1.363 . S
C789 C795 1.363 . S
C790 C791 1.363 . S
C790 C795 1.379 . S
C790 N797 1.356 . S
C791 C790 1.363 . S
C791 C794 1.363 . S
N792 C794 1.356 . S
N792 H804 0.984 . S
N792 H805 0.985 . S
N793 C795 1.356 . S
N793 H798 0.984 . S
N793 H799 0.985 . S
C794 C788 1.379 . S
C794 C791 1.363 . S
C794 N792 1.356 . S
C795 C789 1.363 . S
C795 C790 1.379 . S
C795 N793 1.356 . S
N796 C788 1.356 1_655 S
N796 H802 0.984 . S
N796 H803 0.984 . S
N797 C790 1.356 . S
N797 H800 0.984 . S
N797 H801 0.985 . S
H798 N793 0.984 . S
H799 N793 0.985 . S
H800 N797 0.984 . S
H801 N797 0.985 . S
H802 N796 0.984 . S
H803 N796 0.984 . S
H804 N792 0.984 . S
H805 N792 0.985 . S
C806 C807 1.363 . S
C806 C812 1.379 . S
C806 N814 1.356 . S
C807 C806 1.363 . S
C807 C813 1.363 1_545 S
C808 C809 1.363 . S
C808 C813 1.379 1_545 S
C808 N815 1.356 1_545 S
C809 C808 1.363 . S
C809 C812 1.363 . S
N810 C812 1.356 . S
N810 H822 0.984 . S
N810 H823 0.985 . S
N811 C813 1.356 . S
N811 H816 0.984 . S
N811 H817 0.985 . S
C812 C806 1.379 . S
C812 C809 1.363 . S
C812 N810 1.356 . S
C813 C807 1.363 1_565 S
C813 C808 1.379 1_565 S
C813 N811 1.356 . S
N814 C806 1.356 . S
N814 H820 0.984 . S
N814 H821 0.984 . S
N815 C808 1.356 1_565 S
N815 H818 0.984 1_565 S
N815 H819 0.985 . S
H816 N811 0.984 . S
H817 N811 0.985 . S
H818 N815 0.984 1_545 S
H819 N815 0.985 . S
H820 N814 0.984 . S
H821 N814 0.984 . S
H822 N810 0.984 . S
H823 N810 0.985 . S
C824 C825 1.363 . S
C824 C830 1.379 . S
C824 N832 1.356 1_655 S
C825 C824 1.363 . S
C825 C831 1.363 . S
C826 C827 1.363 . S
C826 C831 1.379 . S
C826 N833 1.356 . S
C827 C826 1.363 . S
C827 C830 1.363 . S
N828 C830 1.356 . S
N828 H840 0.984 . S
N828 H841 0.985 . S
N829 C831 1.356 . S
N829 H834 0.984 . S
N829 H835 0.985 . S
C830 C824 1.379 . S
C830 C827 1.363 . S
C830 N828 1.356 . S
C831 C825 1.363 . S
C831 C826 1.379 . S
C831 N829 1.356 . S
N832 C824 1.356 1_455 S
N832 H838 0.984 . S
N832 H839 0.984 . S
N833 C826 1.356 . S
N833 H836 0.984 . S
N833 H837 0.985 . S
H834 N829 0.984 . S
H835 N829 0.985 . S
H836 N833 0.984 . S
H837 N833 0.985 . S
H838 N832 0.984 . S
H839 N832 0.984 . S
H840 N828 0.984 . S
H841 N828 0.985 . S
C842 C843 1.363 . S
C842 C848 1.379 . S
C842 N850 1.356 1_565 S
C843 C842 1.363 . S
C843 C849 1.363 . S
C844 C845 1.363 . S
C844 C849 1.379 . S
C844 N851 1.356 . S
C845 C844 1.363 . S
C845 C848 1.363 . S
N846 C848 1.356 . S
N846 H858 0.984 1_565 S
N846 H859 0.985 . S
N847 C849 1.356 . S
N847 H852 0.984 . S
N847 H853 0.985 . S
C848 C842 1.379 . S
C848 C845 1.363 . S
C848 N846 1.356 . S
C849 C843 1.363 . S
C849 C844 1.379 . S
C849 N847 1.356 . S
N850 C842 1.356 1_545 S
N850 H856 0.984 . S
N850 H857 0.984 . S
N851 C844 1.356 . S
N851 H854 0.984 . S
N851 H855 0.985 . S
H852 N847 0.984 . S
H853 N847 0.985 . S
H854 N851 0.984 . S
H855 N851 0.985 . S
H856 N850 0.984 . S
H857 N850 0.984 . S
H858 N846 0.984 1_545 S
H859 N846 0.985 . S
C860 C861 1.363 . S
C860 C866 1.379 . S
C860 N868 1.356 . S
C861 C860 1.363 . S
C861 C867 1.363 . S
C862 C863 1.363 . S
C862 C867 1.379 . S
C862 N869 1.356 . S
C863 C862 1.363 . S
C863 C866 1.363 . S
N864 C866 1.356 . S
N864 H876 0.984 . S
N864 H877 0.985 . S
N865 C867 1.356 . S
N865 H870 0.984 . S
N865 H871 0.985 . S
C866 C860 1.379 . S
C866 C863 1.363 . S
C866 N864 1.356 . S
C867 C861 1.363 . S
C867 C862 1.379 . S
C867 N865 1.356 . S
N868 C860 1.356 . S
N868 H874 0.984 . S
N868 H875 0.984 . S
N869 C862 1.356 . S
N869 H872 0.984 . S
N869 H873 0.985 . S
H870 N865 0.984 . S
H871 N865 0.985 . S
H872 N869 0.984 . S
H873 N869 0.985 . S
H874 N868 0.984 . S
H875 N868 0.984 . S
H876 N864 0.984 . S
H877 N864 0.985 . S
C878 C879 1.363 . S
C878 C884 1.379 . S
C878 N886 1.356 . S
C879 C878 1.363 . S
C879 C885 1.363 . S
C880 C881 1.363 . S
C880 C885 1.379 . S
C880 N887 1.356 . S
C881 C880 1.363 . S
C881 C884 1.363 . S
N882 C884 1.356 . S
N882 H894 0.984 . S
N882 H895 0.985 . S
N883 C885 1.356 . S
N883 H888 0.984 . S
N883 H889 0.985 . S
C884 C878 1.379 . S
C884 C881 1.363 . S
C884 N882 1.356 . S
C885 C879 1.363 . S
C885 C880 1.379 . S
C885 N883 1.356 . S
N886 C878 1.356 . S
N886 H892 0.984 . S
N886 H893 0.984 . S
N887 C880 1.356 . S
N887 H890 0.984 . S
N887 H891 0.985 . S
H888 N883 0.984 . S
H889 N883 0.985 . S
H890 N887 0.984 . S
H891 N887 0.985 . S
H892 N886 0.984 . S
H893 N886 0.984 . S
H894 N882 0.984 . S
H895 N882 0.985 . S
C896 C897 1.364 . S
C896 C902 1.378 1_556 S
C896 N904 1.356 . S
C897 C896 1.364 . S
C897 C903 1.363 . S
C898 C899 1.363 1_556 S
C898 C903 1.379 . S
C898 N905 1.356 . S
C899 C898 1.363 1_554 S
C899 C902 1.363 . S
N900 C902 1.356 . S
N900 H912 0.984 . S
N900 H913 0.985 . S
N901 C903 1.356 . S
N901 H906 0.984 . S
N901 H907 0.985 . S
C902 C896 1.378 1_554 S
C902 C899 1.363 . S
C902 N900 1.356 . S
C903 C897 1.363 . S
C903 C898 1.379 . S
C903 N901 1.356 . S
N904 C896 1.356 . S
N904 H910 0.984 1_556 S
N904 H911 0.984 . S
N905 C898 1.356 . S
N905 H908 0.984 1_556 S
N905 H909 0.985 . S
H906 N901 0.984 . S
H907 N901 0.985 . S
H908 N905 0.984 1_554 S
H909 N905 0.985 . S
H910 N904 0.984 1_554 S
H911 N904 0.984 . S
H912 N900 0.984 . S
H913 N900 0.985 . S
C914 C915 1.363 . S
C914 C920 1.379 1_556 S
C914 N922 1.356 . S
C915 C914 1.363 . S
C915 C921 1.363 . S
C916 C917 1.363 1_556 S
C916 C921 1.379 . S
C916 N923 1.361 . S
C917 C916 1.363 1_554 S
C917 C920 1.363 . S
N918 C920 1.356 . S
N918 H930 0.984 . S
N918 H931 0.985 . S
N919 C921 1.356 . S
N919 H924 0.984 . S
N919 H925 0.985 . S
C920 C914 1.379 1_554 S
C920 C917 1.363 . S
C920 N918 1.356 . S
C921 C915 1.363 . S
C921 C916 1.379 . S
C921 N919 1.356 . S
N922 C914 1.356 . S
N922 H928 0.982 1_556 S
N922 H929 0.984 . S
N923 C916 1.361 . S
N923 H926 0.967 1_556 S
N923 H927 0.997 . S
H924 N919 0.984 . S
H925 N919 0.985 . S
H926 N923 0.967 1_554 S
H927 N923 0.997 . S
H928 N922 0.982 1_554 S
H929 N922 0.984 . S
H930 N918 0.984 . S
H931 N918 0.985 . S
C932 C933 1.363 . S
C932 C938 1.379 . S
C932 N940 1.356 . S
C933 C932 1.363 . S
C933 C939 1.364 . S
C934 C935 1.363 . S
C934 C939 1.378 1_554 S
C934 N941 1.356 . S
C935 C934 1.363 . S
C935 C938 1.363 1_554 S
N936 C938 1.356 . S
N936 H948 0.984 . S
N936 H949 0.985 1_556 S
N937 C939 1.356 . S
N937 H942 0.984 . S
N937 H943 0.985 1_556 S
C938 C932 1.379 . S
C938 C935 1.363 1_556 S
C938 N936 1.356 . S
C939 C933 1.364 . S
C939 C934 1.378 1_556 S
C939 N937 1.356 . S
N940 C932 1.356 . S
N940 H946 0.984 . S
N940 H947 0.984 . S
N941 C934 1.356 . S
N941 H944 0.984 . S
N941 H945 0.985 . S
H942 N937 0.984 . S
H943 N937 0.985 1_554 S
H944 N941 0.984 . S
H945 N941 0.985 . S
H946 N940 0.984 . S
H947 N940 0.984 . S
H948 N936 0.984 . S
H949 N936 0.985 1_554 S
C950 C951 1.363 . S
C950 C956 1.379 . S
C950 N958 1.356 . S
C951 C950 1.363 . S
C951 C957 1.363 . S
C952 C953 1.363 . S
C952 C957 1.379 1_554 S
C952 N959 1.356 . S
C953 C952 1.363 . S
C953 C956 1.363 1_554 S
N954 C956 1.361 . S
N954 H966 0.997 . S
N954 H967 0.967 1_556 S
N955 C957 1.356 . S
N955 H960 0.984 . S
N955 H961 0.982 1_556 S
C956 C950 1.379 . S
C956 C953 1.363 1_556 S
C956 N954 1.361 . S
C957 C951 1.363 . S
C957 C952 1.379 1_556 S
C957 N955 1.356 . S
N958 C950 1.356 . S
N958 H964 0.984 . S
N958 H965 0.984 . S
N959 C952 1.356 . S
N959 H962 0.984 . S
N959 H963 0.985 . S
H960 N955 0.984 . S
H961 N955 0.982 1_554 S
H962 N959 0.984 . S
H963 N959 0.985 . S
H964 N958 0.984 . S
H965 N958 0.984 . S
H966 N954 0.997 . S
H967 N954 0.967 1_554 S
C968 C969 1.363 . S
C968 C974 1.379 . S
C968 N976 1.356 . S
C969 C968 1.363 . S
C969 C975 1.363 . S
C970 C971 1.363 . S
C970 C975 1.379 . S
C970 N977 1.356 . S
C971 C970 1.363 . S
C971 C974 1.363 . S
N972 C974 1.356 . S
N972 H984 0.984 . S
N972 H985 0.985 . S
N973 C975 1.356 . S
N973 H978 0.984 . S
N973 H979 0.985 . S
C974 C968 1.379 . S
C974 C971 1.363 . S
C974 N972 1.356 . S
C975 C969 1.363 . S
C975 C970 1.379 . S
C975 N973 1.356 . S
N976 C968 1.356 . S
N976 H982 0.984 . S
N976 H983 0.984 . S
N977 C970 1.356 . S
N977 H980 0.984 . S
N977 H981 0.985 . S
H978 N973 0.984 . S
H979 N973 0.985 . S
H980 N977 0.984 . S
H981 N977 0.985 . S
H982 N976 0.984 . S
H983 N976 0.984 . S
H984 N972 0.984 . S
H985 N972 0.985 . S
C986 C987 1.363 . S
C986 C992 1.379 . S
C986 N994 1.356 . S
C987 C986 1.363 . S
C987 C993 1.363 . S
C988 C989 1.363 . S
C988 C993 1.379 . S
C988 N995 1.356 . S
C989 C988 1.363 . S
C989 C992 1.363 . S
N990 C992 1.356 . S
N990 H1002 0.984 . S
N990 H1003 0.985 . S
N991 C993 1.356 . S
N991 H996 0.984 . S
N991 H997 0.985 . S
C992 C986 1.379 . S
C992 C989 1.363 . S
C992 N990 1.356 . S
C993 C987 1.363 . S
C993 C988 1.379 . S
C993 N991 1.356 . S
N994 C986 1.356 . S
N994 H1000 0.984 . S
N994 H1001 0.984 . S
N995 C988 1.356 . S
N995 H998 0.984 . S
N995 H999 0.985 . S
H996 N991 0.984 . S
H997 N991 0.985 . S
H998 N995 0.984 . S
H999 N995 0.985 . S
H1000 N994 0.984 . S
H1001 N994 0.984 . S
H1002 N990 0.984 . S
H1003 N990 0.985 . S
C1004 C1005 1.363 . S
C1004 C1010 1.379 . S
C1004 N1012 1.356 . S
C1005 C1004 1.363 . S
C1005 C1011 1.363 . S
C1006 C1007 1.363 . S
C1006 C1011 1.379 . S
C1006 N1013 1.356 . S
C1007 C1006 1.363 . S
C1007 C1010 1.363 . S
N1008 C1010 1.356 . S
N1008 H1020 0.984 . S
N1008 H1021 0.985 . S
N1009 C1011 1.356 . S
N1009 H1014 0.984 . S
N1009 H1015 0.985 . S
C1010 C1004 1.379 . S
C1010 C1007 1.363 . S
C1010 N1008 1.356 . S
C1011 C1005 1.363 . S
C1011 C1006 1.379 . S
C1011 N1009 1.356 . S
N1012 C1004 1.356 . S
N1012 H1018 0.984 . S
N1012 H1019 0.984 . S
N1013 C1006 1.356 . S
N1013 H1016 0.984 . S
N1013 H1017 0.985 . S
H1014 N1009 0.984 . S
H1015 N1009 0.985 . S
H1016 N1013 0.984 . S
H1017 N1013 0.985 . S
H1018 N1012 0.984 . S
H1019 N1012 0.984 . S
H1020 N1008 0.984 . S
H1021 N1008 0.985 . S
C1022 C1023 1.363 . S
C1022 C1028 1.379 . S
C1022 N1030 1.356 . S
C1023 C1022 1.363 . S
C1023 C1029 1.363 . S
C1024 C1025 1.363 . S
C1024 C1029 1.379 . S
C1024 N1031 1.356 . S
C1025 C1024 1.363 . S
C1025 C1028 1.363 . S
N1026 C1028 1.356 . S
N1026 H1038 0.984 . S
N1026 H1039 0.985 . S
N1027 C1029 1.356 . S
N1027 H1032 0.984 . S
N1027 H1033 0.985 . S
C1028 C1022 1.379 . S
C1028 C1025 1.363 . S
C1028 N1026 1.356 . S
C1029 C1023 1.363 . S
C1029 C1024 1.379 . S
C1029 N1027 1.356 . S
N1030 C1022 1.356 . S
N1030 H1036 0.984 . S
N1030 H1037 0.984 . S
N1031 C1024 1.356 . S
N1031 H1034 0.984 . S
N1031 H1035 0.985 . S
H1032 N1027 0.984 . S
H1033 N1027 0.985 . S
H1034 N1031 0.984 . S
H1035 N1031 0.985 . S
H1036 N1030 0.984 . S
H1037 N1030 0.984 . S
H1038 N1026 0.984 . S
H1039 N1026 0.985 . S
C1040 C1041 1.363 1_554 S
C1040 C1046 1.379 . S
C1040 N1048 1.356 . S
C1041 C1040 1.363 1_556 S
C1041 C1047 1.363 . S
C1042 C1043 1.364 . S
C1042 C1047 1.378 1_554 S
C1042 N1049 1.356 . S
C1043 C1042 1.364 . S
C1043 C1046 1.363 . S
N1044 C1046 1.356 . S
N1044 H1056 0.984 . S
N1044 H1057 0.985 . S
N1045 C1047 1.356 . S
N1045 H1050 0.984 . S
N1045 H1051 0.985 . S
C1046 C1040 1.379 . S
C1046 C1043 1.363 . S
C1046 N1044 1.356 . S
C1047 C1041 1.363 . S
C1047 C1042 1.378 1_556 S
C1047 N1045 1.356 . S
N1048 C1040 1.356 . S
N1048 H1054 0.984 . S
N1048 H1055 0.984 1_554 S
N1049 C1042 1.356 . S
N1049 H1052 0.984 . S
N1049 H1053 0.985 1_554 S
H1050 N1045 0.984 . S
H1051 N1045 0.985 . S
H1052 N1049 0.984 . S
H1053 N1049 0.985 1_556 S
H1054 N1048 0.984 . S
H1055 N1048 0.984 1_556 S
H1056 N1044 0.984 . S
H1057 N1044 0.985 . S
C1058 C1059 1.363 . S
C1058 C1064 1.359 1_556 S
C1058 N1066 1.356 . S
C1059 C1058 1.363 . S
C1059 C1065 1.363 1_556 S
C1060 C1061 1.363 . S
C1060 C1065 1.379 . S
C1060 N1067 1.356 . S
C1061 C1060 1.363 . S
C1061 C1064 1.389 . S
N1062 C1064 1.359 . S
N1062 H1074 0.984 1_554 S
N1062 H1075 0.985 . S
N1063 C1065 1.356 . S
N1063 H1068 0.984 1_554 S
N1063 H1069 0.985 . S
C1064 C1058 1.359 1_554 S
C1064 C1061 1.389 . S
C1064 N1062 1.359 . S
C1065 C1059 1.363 1_554 S
C1065 C1060 1.379 . S
C1065 N1063 1.356 . S
N1066 C1058 1.356 . S
N1066 H1072 0.984 . S
N1066 H1073 0.984 . S
N1067 C1060 1.356 . S
N1067 H1070 0.984 . S
N1067 H1071 0.985 . S
H1068 N1063 0.984 1_556 S
H1069 N1063 0.985 . S
H1070 N1067 0.984 . S
H1071 N1067 0.985 . S
H1072 N1066 0.984 . S
H1073 N1066 0.984 . S
H1074 N1062 0.984 1_556 S
H1075 N1062 0.985 . S
C1076 C1077 1.350 1_554 S
C1076 C1082 1.396 . S
C1076 N1084 1.347 1_554 S
C1077 C1076 1.350 1_556 S
C1077 C1083 1.363 . S
C1078 C1079 1.363 . S
C1078 C1083 1.379 1_554 S
C1078 N1085 1.356 . S
C1079 C1078 1.363 . S
C1079 C1082 1.363 . S
N1080 C1082 1.356 . S
N1080 H1092 0.984 . S
N1080 H1093 0.985 . S
N1081 C1083 1.356 . S
N1081 H1086 0.984 . S
N1081 H1087 0.985 . S
C1082 C1076 1.396 . S
C1082 C1079 1.363 . S
C1082 N1080 1.356 . S
C1083 C1077 1.363 . S
C1083 C1078 1.379 1_556 S
C1083 N1081 1.356 . S
N1084 C1076 1.347 1_556 S
N1084 H1090 0.984 . S
N1084 H1091 0.984 . S
N1085 C1078 1.356 . S
N1085 H1088 0.984 . S
N1085 H1089 0.985 . S
H1086 N1081 0.984 . S
H1087 N1081 0.985 . S
H1088 N1085 0.984 . S
H1089 N1085 0.985 . S
H1090 N1084 0.984 . S
H1091 N1084 0.984 . S
H1092 N1080 0.984 . S
H1093 N1080 0.985 . S
C1094 C1095 1.363 . S
C1094 C1100 1.379 1_554 S
C1094 N1102 1.356 . S
C1095 C1094 1.363 . S
C1095 C1101 1.363 . S
C1096 C1097 1.363 1_554 S
C1096 C1101 1.379 . S
C1096 N1103 1.356 . S
C1097 C1096 1.363 1_556 S
C1097 C1100 1.363 . S
N1098 C1100 1.356 . S
N1098 H1110 0.984 . S
N1098 H1111 0.985 . S
N1099 C1101 1.356 . S
N1099 H1104 0.984 . S
N1099 H1105 0.985 . S
C1100 C1094 1.379 1_556 S
C1100 C1097 1.363 . S
C1100 N1098 1.356 . S
C1101 C1095 1.363 . S
C1101 C1096 1.379 . S
C1101 N1099 1.356 . S
N1102 C1094 1.356 . S
N1102 H1108 0.984 1_554 S
N1102 H1109 0.984 . S
N1103 C1096 1.356 . S
N1103 H1106 0.984 1_554 S
N1103 H1107 0.985 . S
H1104 N1099 0.984 . S
H1105 N1099 0.985 . S
H1106 N1103 0.984 1_556 S
H1107 N1103 0.985 . S
H1108 N1102 0.984 1_556 S
H1109 N1102 0.984 . S
H1110 N1098 0.984 . S
H1111 N1098 0.985 . S
C1112 C1113 1.363 . S
C1112 C1118 1.379 . S
C1112 N1120 1.356 . S
C1113 C1112 1.363 . S
C1113 C1119 1.363 . S
C1114 C1115 1.363 . S
C1114 C1119 1.379 . S
C1114 N1121 1.356 . S
C1115 C1114 1.363 . S
C1115 C1118 1.363 . S
N1116 C1118 1.356 . S
N1116 H1128 0.984 . S
N1116 H1129 0.985 . S
N1117 C1119 1.356 . S
N1117 H1122 0.984 . S
N1117 H1123 0.985 . S
C1118 C1112 1.379 . S
C1118 C1115 1.363 . S
C1118 N1116 1.356 . S
C1119 C1113 1.363 . S
C1119 C1114 1.379 . S
C1119 N1117 1.356 . S
N1120 C1112 1.356 . S
N1120 H1126 0.984 . S
N1120 H1127 0.984 . S
N1121 C1114 1.356 . S
N1121 H1124 0.984 . S
N1121 H1125 0.985 . S
H1122 N1117 0.984 . S
H1123 N1117 0.985 . S
H1124 N1121 0.984 . S
H1125 N1121 0.985 . S
H1126 N1120 0.984 . S
H1127 N1120 0.984 . S
H1128 N1116 0.984 . S
H1129 N1116 0.985 . S
C1130 C1131 1.363 . S
C1130 C1136 1.379 . S
C1130 N1138 1.356 . S
C1131 C1130 1.363 . S
C1131 C1137 1.363 . S
C1132 C1133 1.363 . S
C1132 C1137 1.379 . S
C1132 N1139 1.356 . S
C1133 C1132 1.363 . S
C1133 C1136 1.363 . S
N1134 C1136 1.356 . S
N1134 H1146 0.984 . S
N1134 H1147 0.985 . S
N1135 C1137 1.356 . S
N1135 H1140 0.984 . S
N1135 H1141 0.985 . S
C1136 C1130 1.379 . S
C1136 C1133 1.363 . S
C1136 N1134 1.356 . S
C1137 C1131 1.363 . S
C1137 C1132 1.379 . S
C1137 N1135 1.356 . S
N1138 C1130 1.356 . S
N1138 H1144 0.984 . S
N1138 H1145 0.984 . S
N1139 C1132 1.356 . S
N1139 H1142 0.984 . S
N1139 H1143 0.985 . S
H1140 N1135 0.984 . S
H1141 N1135 0.985 . S
H1142 N1139 0.984 . S
H1143 N1139 0.985 . S
H1144 N1138 0.984 . S
H1145 N1138 0.984 . S
H1146 N1134 0.984 . S
H1147 N1134 0.985 . S
C1148 C1149 1.363 . S
C1148 C1154 1.379 . S
C1148 N1156 1.356 . S
C1149 C1148 1.363 . S
C1149 C1155 1.363 . S
C1150 C1151 1.363 . S
C1150 C1155 1.379 . S
C1150 N1157 1.356 . S
C1151 C1150 1.363 . S
C1151 C1154 1.363 . S
N1152 C1154 1.356 . S
N1152 H1164 0.984 . S
N1152 H1165 0.985 . S
N1153 C1155 1.356 . S
N1153 H1158 0.984 . S
N1153 H1159 0.985 . S
C1154 C1148 1.379 . S
C1154 C1151 1.363 . S
C1154 N1152 1.356 . S
C1155 C1149 1.363 . S
C1155 C1150 1.379 . S
C1155 N1153 1.356 . S
N1156 C1148 1.356 . S
N1156 H1162 0.984 . S
N1156 H1163 0.984 . S
N1157 C1150 1.356 . S
N1157 H1160 0.984 . S
N1157 H1161 0.985 . S
H1158 N1153 0.984 . S
H1159 N1153 0.985 . S
H1160 N1157 0.984 . S
H1161 N1157 0.985 . S
H1162 N1156 0.984 . S
H1163 N1156 0.984 . S
H1164 N1152 0.984 . S
H1165 N1152 0.985 . S
C1166 C1167 1.363 . S
C1166 C1172 1.379 . S
C1166 N1174 1.356 . S
C1167 C1166 1.363 . S
C1167 C1173 1.363 . S
C1168 C1169 1.363 . S
C1168 C1173 1.379 . S
C1168 N1175 1.356 . S
C1169 C1168 1.363 . S
C1169 C1172 1.363 . S
N1170 C1172 1.356 . S
N1170 H1182 0.984 . S
N1170 H1183 0.985 . S
N1171 C1173 1.356 . S
N1171 H1176 0.984 . S
N1171 H1177 0.985 . S
C1172 C1166 1.379 . S
C1172 C1169 1.363 . S
C1172 N1170 1.356 . S
C1173 C1167 1.363 . S
C1173 C1168 1.379 . S
C1173 N1171 1.356 . S
N1174 C1166 1.356 . S
N1174 H1180 0.984 . S
N1174 H1181 0.984 . S
N1175 C1168 1.356 . S
N1175 H1178 0.984 . S
N1175 H1179 0.985 . S
H1176 N1171 0.984 . S
H1177 N1171 0.985 . S
H1178 N1175 0.984 . S
H1179 N1175 0.985 . S
H1180 N1174 0.984 . S
H1181 N1174 0.984 . S
H1182 N1170 0.984 . S
H1183 N1170 0.985 . S
C1184 C1185 1.363 . S
C1184 C1190 1.379 . S
C1184 N1192 1.356 . S
C1185 C1184 1.363 . S
C1185 C1191 1.363 . S
C1186 C1187 1.363 . S
C1186 C1191 1.379 . S
C1186 N1193 1.356 . S
C1187 C1186 1.363 . S
C1187 C1190 1.363 . S
N1188 C1190 1.356 . S
N1188 H1200 0.984 . S
N1188 H1201 0.985 . S
N1189 C1191 1.356 . S
N1189 H1194 0.984 . S
N1189 H1195 0.985 . S
C1190 C1184 1.379 . S
C1190 C1187 1.363 . S
C1190 N1188 1.356 . S
C1191 C1185 1.363 . S
C1191 C1186 1.379 . S
C1191 N1189 1.356 . S
N1192 C1184 1.356 . S
N1192 H1198 0.984 . S
N1192 H1199 0.984 . S
N1193 C1186 1.356 . S
N1193 H1196 0.984 . S
N1193 H1197 0.985 . S
H1194 N1189 0.984 . S
H1195 N1189 0.985 . S
H1196 N1193 0.984 . S
H1197 N1193 0.985 . S
H1198 N1192 0.984 . S
H1199 N1192 0.984 . S
H1200 N1188 0.984 . S
H1201 N1188 0.985 . S
C1202 C1203 1.363 . S
C1202 C1208 1.379 . S
C1202 N1210 1.356 . S
C1203 C1202 1.363 . S
C1203 C1209 1.363 . S
C1204 C1205 1.363 . S
C1204 C1209 1.379 . S
C1204 N1211 1.356 . S
C1205 C1204 1.363 . S
C1205 C1208 1.363 . S
N1206 C1208 1.356 . S
N1206 H1218 0.984 . S
N1206 H1219 0.985 . S
N1207 C1209 1.356 . S
N1207 H1212 0.984 . S
N1207 H1213 0.985 . S
C1208 C1202 1.379 . S
C1208 C1205 1.363 . S
C1208 N1206 1.356 . S
C1209 C1203 1.363 . S
C1209 C1204 1.379 . S
C1209 N1207 1.356 . S
N1210 C1202 1.356 . S
N1210 H1216 0.984 . S
N1210 H1217 0.984 . S
N1211 C1204 1.356 . S
N1211 H1214 0.984 . S
N1211 H1215 0.985 . S
H1212 N1207 0.984 . S
H1213 N1207 0.985 . S
H1214 N1211 0.984 . S
H1215 N1211 0.985 . S
H1216 N1210 0.984 . S
H1217 N1210 0.984 . S
H1218 N1206 0.984 . S
H1219 N1206 0.985 . S
C1220 C1221 1.363 . S
C1220 C1226 1.379 . S
C1220 N1228 1.356 . S
C1221 C1220 1.363 . S
C1221 C1227 1.363 . S
C1222 C1223 1.363 . S
C1222 C1227 1.379 . S
C1222 N1229 1.356 . S
C1223 C1222 1.363 . S
C1223 C1226 1.363 . S
N1224 C1226 1.356 . S
N1224 H1236 0.984 . S
N1224 H1237 0.985 . S
N1225 C1227 1.356 . S
N1225 H1230 0.984 . S
N1225 H1231 0.985 . S
C1226 C1220 1.379 . S
C1226 C1223 1.363 . S
C1226 N1224 1.356 . S
C1227 C1221 1.363 . S
C1227 C1222 1.379 . S
C1227 N1225 1.356 . S
N1228 C1220 1.356 . S
N1228 H1234 0.984 . S
N1228 H1235 0.984 . S
N1229 C1222 1.356 . S
N1229 H1232 0.984 . S
N1229 H1233 0.985 . S
H1230 N1225 0.984 . S
H1231 N1225 0.985 . S
H1232 N1229 0.984 . S
H1233 N1229 0.985 . S
H1234 N1228 0.984 . S
H1235 N1228 0.984 . S
H1236 N1224 0.984 . S
H1237 N1224 0.985 . S
C1238 C1239 1.363 . S
C1238 C1244 1.379 . S
C1238 N1246 1.356 . S
C1239 C1238 1.363 . S
C1239 C1245 1.363 . S
C1240 C1241 1.363 . S
C1240 C1245 1.379 . S
C1240 N1247 1.356 . S
C1241 C1240 1.363 . S
C1241 C1244 1.363 . S
N1242 C1244 1.356 . S
N1242 H1254 0.984 . S
N1242 H1255 0.985 . S
N1243 C1245 1.356 . S
N1243 H1248 0.984 . S
N1243 H1249 0.985 . S
C1244 C1238 1.379 . S
C1244 C1241 1.363 . S
C1244 N1242 1.356 . S
C1245 C1239 1.363 . S
C1245 C1240 1.379 . S
C1245 N1243 1.356 . S
N1246 C1238 1.356 . S
N1246 H1252 0.984 . S
N1246 H1253 0.984 . S
N1247 C1240 1.356 . S
N1247 H1250 0.984 . S
N1247 H1251 0.985 . S
H1248 N1243 0.984 . S
H1249 N1243 0.985 . S
H1250 N1247 0.984 . S
H1251 N1247 0.985 . S
H1252 N1246 0.984 . S
H1253 N1246 0.984 . S
H1254 N1242 0.984 . S
H1255 N1242 0.985 . S
C1256 C1257 1.363 . S
C1256 C1262 1.379 . S
C1256 N1264 1.356 . S
C1257 C1256 1.363 . S
C1257 C1263 1.363 . S
C1258 C1259 1.363 . S
C1258 C1263 1.379 . S
C1258 N1265 1.356 . S
C1259 C1258 1.363 . S
C1259 C1262 1.363 . S
N1260 C1262 1.356 . S
N1260 H1272 0.984 . S
N1260 H1273 0.985 . S
N1261 C1263 1.356 . S
N1261 H1266 0.984 . S
N1261 H1267 0.985 . S
C1262 C1256 1.379 . S
C1262 C1259 1.363 . S
C1262 N1260 1.356 . S
C1263 C1257 1.363 . S
C1263 C1258 1.379 . S
C1263 N1261 1.356 . S
N1264 C1256 1.356 . S
N1264 H1270 0.984 . S
N1264 H1271 0.984 . S
N1265 C1258 1.356 . S
N1265 H1268 0.984 . S
N1265 H1269 0.985 . S
H1266 N1261 0.984 . S
H1267 N1261 0.985 . S
H1268 N1265 0.984 . S
H1269 N1265 0.985 . S
H1270 N1264 0.984 . S
H1271 N1264 0.984 . S
H1272 N1260 0.984 . S
H1273 N1260 0.985 . S
C1274 C1275 1.363 . S
C1274 C1280 1.379 . S
C1274 N1282 1.356 . S
C1275 C1274 1.363 . S
C1275 C1281 1.363 . S
C1276 C1277 1.363 . S
C1276 C1281 1.379 . S
C1276 N1283 1.356 . S
C1277 C1276 1.363 . S
C1277 C1280 1.363 . S
N1278 C1280 1.356 . S
N1278 H1290 0.984 . S
N1278 H1291 0.985 . S
N1279 C1281 1.356 . S
N1279 H1284 0.984 . S
N1279 H1285 0.985 . S
C1280 C1274 1.379 . S
C1280 C1277 1.363 . S
C1280 N1278 1.356 . S
C1281 C1275 1.363 . S
C1281 C1276 1.379 . S
C1281 N1279 1.356 . S
N1282 C1274 1.356 . S
N1282 H1288 0.984 . S
N1282 H1289 0.984 . S
N1283 C1276 1.356 . S
N1283 H1286 0.984 . S
N1283 H1287 0.985 . S
H1284 N1279 0.984 . S
H1285 N1279 0.985 . S
H1286 N1283 0.984 . S
H1287 N1283 0.985 . S
H1288 N1282 0.984 . S
H1289 N1282 0.984 . S
H1290 N1278 0.984 . S
H1291 N1278 0.985 . S
C1292 C1293 1.363 . S
C1292 C1298 1.379 . S
C1292 N1300 1.356 . S
C1293 C1292 1.363 . S
C1293 C1299 1.363 . S
C1294 C1295 1.363 . S
C1294 C1299 1.379 . S
C1294 N1301 1.356 . S
C1295 C1294 1.363 . S
C1295 C1298 1.363 . S
N1296 C1298 1.356 . S
N1296 H1308 0.984 . S
N1296 H1309 0.985 . S
N1297 C1299 1.356 . S
N1297 H1302 0.984 . S
N1297 H1303 0.985 . S
C1298 C1292 1.379 . S
C1298 C1295 1.363 . S
C1298 N1296 1.356 . S
C1299 C1293 1.363 . S
C1299 C1294 1.379 . S
C1299 N1297 1.356 . S
N1300 C1292 1.356 . S
N1300 H1306 0.984 . S
N1300 H1307 0.984 . S
N1301 C1294 1.356 . S
N1301 H1304 0.984 . S
N1301 H1305 0.985 . S
H1302 N1297 0.984 . S
H1303 N1297 0.985 . S
H1304 N1301 0.984 . S
H1305 N1301 0.985 . S
H1306 N1300 0.984 . S
H1307 N1300 0.984 . S
H1308 N1296 0.984 . S
H1309 N1296 0.985 . S
C1310 C1311 1.363 . S
C1310 C1316 1.379 . S
C1310 N1318 1.356 . S
C1311 C1310 1.363 . S
C1311 C1317 1.363 . S
C1312 C1313 1.363 . S
C1312 C1317 1.379 . S
C1312 N1319 1.356 . S
C1313 C1312 1.363 . S
C1313 C1316 1.363 . S
N1314 C1316 1.356 . S
N1314 H1326 0.984 . S
N1314 H1327 0.985 . S
N1315 C1317 1.356 . S
N1315 H1320 0.984 . S
N1315 H1321 0.985 . S
C1316 C1310 1.379 . S
C1316 C1313 1.363 . S
C1316 N1314 1.356 . S
C1317 C1311 1.363 . S
C1317 C1312 1.379 . S
C1317 N1315 1.356 . S
N1318 C1310 1.356 . S
N1318 H1324 0.984 . S
N1318 H1325 0.984 . S
N1319 C1312 1.356 . S
N1319 H1322 0.984 . S
N1319 H1323 0.985 . S
H1320 N1315 0.984 . S
H1321 N1315 0.985 . S
H1322 N1319 0.984 . S
H1323 N1319 0.985 . S
H1324 N1318 0.984 . S
H1325 N1318 0.984 . S
H1326 N1314 0.984 . S
H1327 N1314 0.985 . S
C1328 C1329 1.363 . S
C1328 C1334 1.379 . S
C1328 N1336 1.356 . S
C1329 C1328 1.363 . S
C1329 C1335 1.363 . S
C1330 C1331 1.363 . S
C1330 C1335 1.379 . S
C1330 N1337 1.356 . S
C1331 C1330 1.363 . S
C1331 C1334 1.363 . S
N1332 C1334 1.356 . S
N1332 H1344 0.984 . S
N1332 H1345 0.985 . S
N1333 C1335 1.356 . S
N1333 H1338 0.984 . S
N1333 H1339 0.985 . S
C1334 C1328 1.379 . S
C1334 C1331 1.363 . S
C1334 N1332 1.356 . S
C1335 C1329 1.363 . S
C1335 C1330 1.379 . S
C1335 N1333 1.356 . S
N1336 C1328 1.356 . S
N1336 H1342 0.984 . S
N1336 H1343 0.984 . S
N1337 C1330 1.356 . S
N1337 H1340 0.984 . S
N1337 H1341 0.985 . S
H1338 N1333 0.984 . S
H1339 N1333 0.985 . S
H1340 N1337 0.984 . S
H1341 N1337 0.985 . S
H1342 N1336 0.984 . S
H1343 N1336 0.984 . S
H1344 N1332 0.984 . S
H1345 N1332 0.985 . S
C1346 C1347 1.363 . S
C1346 C1352 1.379 . S
C1346 N1354 1.356 . S
C1347 C1346 1.363 . S
C1347 C1353 1.363 . S
C1348 C1349 1.363 . S
C1348 C1353 1.379 . S
C1348 N1355 1.356 . S
C1349 C1348 1.363 . S
C1349 C1352 1.363 . S
N1350 C1352 1.356 . S
N1350 H1362 0.984 . S
N1350 H1363 0.985 . S
N1351 C1353 1.356 . S
N1351 H1356 0.984 . S
N1351 H1357 0.985 . S
C1352 C1346 1.379 . S
C1352 C1349 1.363 . S
C1352 N1350 1.356 . S
C1353 C1347 1.363 . S
C1353 C1348 1.379 . S
C1353 N1351 1.356 . S
N1354 C1346 1.356 . S
N1354 H1360 0.984 . S
N1354 H1361 0.984 . S
N1355 C1348 1.356 . S
N1355 H1358 0.984 . S
N1355 H1359 0.985 . S
H1356 N1351 0.984 . S
H1357 N1351 0.985 . S
H1358 N1355 0.984 . S
H1359 N1355 0.985 . S
H1360 N1354 0.984 . S
H1361 N1354 0.984 . S
H1362 N1350 0.984 . S
H1363 N1350 0.985 . S
C1364 C1365 1.363 . S
C1364 C1370 1.379 . S
C1364 N1372 1.356 . S
C1365 C1364 1.363 . S
C1365 C1371 1.363 . S
C1366 C1367 1.363 . S
C1366 C1371 1.379 . S
C1366 N1373 1.356 . S
C1367 C1366 1.363 . S
C1367 C1370 1.363 . S
N1368 C1370 1.356 . S
N1368 H1380 0.984 . S
N1368 H1381 0.985 . S
N1369 C1371 1.356 . S
N1369 H1374 0.984 . S
N1369 H1375 0.985 . S
C1370 C1364 1.379 . S
C1370 C1367 1.363 . S
C1370 N1368 1.356 . S
C1371 C1365 1.363 . S
C1371 C1366 1.379 . S
C1371 N1369 1.356 . S
N1372 C1364 1.356 . S
N1372 H1378 0.984 . S
N1372 H1379 0.984 . S
N1373 C1366 1.356 . S
N1373 H1376 0.984 . S
N1373 H1377 0.985 . S
H1374 N1369 0.984 . S
H1375 N1369 0.985 . S
H1376 N1373 0.984 . S
H1377 N1373 0.985 . S
H1378 N1372 0.984 . S
H1379 N1372 0.984 . S
H1380 N1368 0.984 . S
H1381 N1368 0.985 . S
C1382 C1383 1.363 . S
C1382 C1388 1.379 . S
C1382 N1390 1.356 . S
C1383 C1382 1.363 . S
C1383 C1389 1.363 . S
C1384 C1385 1.363 . S
C1384 C1389 1.379 . S
C1384 N1391 1.356 . S
C1385 C1384 1.363 . S
C1385 C1388 1.363 . S
N1386 C1388 1.356 . S
N1386 H1398 0.984 . S
N1386 H1399 0.985 . S
N1387 C1389 1.356 . S
N1387 H1392 0.984 . S
N1387 H1393 0.985 . S
C1388 C1382 1.379 . S
C1388 C1385 1.363 . S
C1388 N1386 1.356 . S
C1389 C1383 1.363 . S
C1389 C1384 1.379 . S
C1389 N1387 1.356 . S
N1390 C1382 1.356 . S
N1390 H1396 0.984 . S
N1390 H1397 0.984 . S
N1391 C1384 1.356 . S
N1391 H1394 0.984 . S
N1391 H1395 0.985 . S
H1392 N1387 0.984 . S
H1393 N1387 0.985 . S
H1394 N1391 0.984 . S
H1395 N1391 0.985 . S
H1396 N1390 0.984 . S
H1397 N1390 0.984 . S
H1398 N1386 0.984 . S
H1399 N1386 0.985 . S
C1400 C1401 1.363 . S
C1400 C1406 1.379 . S
C1400 N1408 1.356 . S
C1401 C1400 1.363 . S
C1401 C1407 1.363 . S
C1402 C1403 1.363 . S
C1402 C1407 1.379 . S
C1402 N1409 1.356 . S
C1403 C1402 1.363 . S
C1403 C1406 1.363 . S
N1404 C1406 1.356 . S
N1404 H1416 0.984 . S
N1404 H1417 0.985 . S
N1405 C1407 1.356 . S
N1405 H1410 0.984 . S
N1405 H1411 0.985 . S
C1406 C1400 1.379 . S
C1406 C1403 1.363 . S
C1406 N1404 1.356 . S
C1407 C1401 1.363 . S
C1407 C1402 1.379 . S
C1407 N1405 1.356 . S
N1408 C1400 1.356 . S
N1408 H1414 0.984 . S
N1408 H1415 0.984 . S
N1409 C1402 1.356 . S
N1409 H1412 0.984 . S
N1409 H1413 0.985 . S
H1410 N1405 0.984 . S
H1411 N1405 0.985 . S
H1412 N1409 0.984 . S
H1413 N1409 0.985 . S
H1414 N1408 0.984 . S
H1415 N1408 0.984 . S
H1416 N1404 0.984 . S
H1417 N1404 0.985 . S
C1418 C1419 1.363 . S
C1418 C1424 1.379 . S
C1418 N1426 1.356 . S
C1419 C1418 1.363 . S
C1419 C1425 1.363 . S
C1420 C1421 1.363 . S
C1420 C1425 1.379 . S
C1420 N1427 1.356 . S
C1421 C1420 1.363 . S
C1421 C1424 1.363 . S
N1422 C1424 1.356 . S
N1422 H1434 0.984 . S
N1422 H1435 0.985 . S
N1423 C1425 1.356 . S
N1423 H1428 0.984 . S
N1423 H1429 0.985 . S
C1424 C1418 1.379 . S
C1424 C1421 1.363 . S
C1424 N1422 1.356 . S
C1425 C1419 1.363 . S
C1425 C1420 1.379 . S
C1425 N1423 1.356 . S
N1426 C1418 1.356 . S
N1426 H1432 0.984 . S
N1426 H1433 0.984 . S
N1427 C1420 1.356 . S
N1427 H1430 0.984 . S
N1427 H1431 0.985 . S
H1428 N1423 0.984 . S
H1429 N1423 0.985 . S
H1430 N1427 0.984 . S
H1431 N1427 0.985 . S
H1432 N1426 0.984 . S
H1433 N1426 0.984 . S
H1434 N1422 0.984 . S
H1435 N1422 0.985 . S
C1436 C1437 1.363 . S
C1436 C1442 1.379 . S
C1436 N1444 1.356 . S
C1437 C1436 1.363 . S
C1437 C1443 1.363 . S
C1438 C1439 1.363 . S
C1438 C1443 1.379 . S
C1438 N1445 1.356 . S
C1439 C1438 1.363 . S
C1439 C1442 1.363 . S
N1440 C1442 1.356 . S
N1440 H1452 0.984 . S
N1440 H1453 0.985 . S
N1441 C1443 1.356 . S
N1441 H1446 0.984 . S
N1441 H1447 0.985 . S
C1442 C1436 1.379 . S
C1442 C1439 1.363 . S
C1442 N1440 1.356 . S
C1443 C1437 1.363 . S
C1443 C1438 1.379 . S
C1443 N1441 1.356 . S
N1444 C1436 1.356 . S
N1444 H1450 0.984 . S
N1444 H1451 0.984 . S
N1445 C1438 1.356 . S
N1445 H1448 0.984 . S
N1445 H1449 0.985 . S
H1446 N1441 0.984 . S
H1447 N1441 0.985 . S
H1448 N1445 0.984 . S
H1449 N1445 0.985 . S
H1450 N1444 0.984 . S
H1451 N1444 0.984 . S
H1452 N1440 0.984 . S
H1453 N1440 0.985 . S
C1454 C1455 1.363 . S
C1454 C1460 1.379 . S
C1454 N1462 1.356 . S
C1455 C1454 1.363 . S
C1455 C1461 1.363 . S
C1456 C1457 1.363 . S
C1456 C1461 1.379 . S
C1456 N1463 1.356 . S
C1457 C1456 1.363 . S
C1457 C1460 1.363 . S
N1458 C1460 1.356 . S
N1458 H1470 0.984 . S
N1458 H1471 0.985 . S
N1459 C1461 1.356 . S
N1459 H1464 0.984 . S
N1459 H1465 0.985 . S
C1460 C1454 1.379 . S
C1460 C1457 1.363 . S
C1460 N1458 1.356 . S
C1461 C1455 1.363 . S
C1461 C1456 1.379 . S
C1461 N1459 1.356 . S
N1462 C1454 1.356 . S
N1462 H1468 0.984 . S
N1462 H1469 0.984 . S
N1463 C1456 1.356 . S
N1463 H1466 0.984 . S
N1463 H1467 0.985 . S
H1464 N1459 0.984 . S
H1465 N1459 0.985 . S
H1466 N1463 0.984 . S
H1467 N1463 0.985 . S
H1468 N1462 0.984 . S
H1469 N1462 0.984 . S
H1470 N1458 0.984 . S
H1471 N1458 0.985 . S
C465 C245 1.854 1_565 S
C467 C13 1.854 1_545 S
C483 C42 1.859 . S
C485 C274 1.859 . S
C501 C303 1.859 . S
C503 C71 1.859 . S
C519 C100 1.854 1_455 S
C521 C332 1.854 1_655 S
C537 C129 1.854 1_565 S
C539 C361 1.854 1_545 S
C555 C158 1.859 . S
C557 C390 1.859 . S
C573 C419 1.859 . S
C575 C187 1.859 . S
C591 C448 1.854 1_455 S
C593 C216 1.854 1_655 S
C609 C15 2.917 . S
C611 C37 2.367 . S
C627 C66 2.367 . S
C629 C44 2.917 . S
C645 C95 2.367 1_655 S
C647 C73 2.917 . S
C663 C8 2.367 1_565 S
C665 C102 2.917 . S
C681 C211 2.367 1_455 S
C683 C131 2.917 . S
C699 C124 2.367 1_545 S
C701 C160 2.917 . S
C717 C189 2.917 . S
C719 C153 2.367 . S
C735 C218 2.917 . S
C737 C182 2.367 . S
C753 C269 2.367 . S
C755 C247 2.917 . S
C771 C276 2.917 . S
C773 C298 2.367 . S
C789 C327 2.367 1_455 S
C791 C305 2.917 . S
C807 C240 2.367 1_545 S
C809 C334 2.917 . S
C825 C443 2.367 1_655 S
C827 C363 2.917 . S
C843 C356 2.367 1_565 S
C845 C392 2.917 . S
C861 C385 2.367 . S
C863 C421 2.917 . S
C879 C414 2.367 . S
C881 C450 2.917 . S
C897 C266 1.207 . S
C899 C3 1.286 . S
C915 C295 1.207 . S
C917 C32 1.286 . S
C933 C324 1.207 . S
C935 C61 1.286 . S
C951 C237 1.207 . S
C953 C90 1.286 . S
C969 C440 1.207 . S
C971 C119 1.286 . S
C987 C353 1.207 . S
C989 C148 1.286 . S
C1005 C177 1.286 . S
C1007 C382 1.207 . S
C1023 C411 1.207 . S
C1025 C206 1.286 . S
C1041 C235 1.286 . S
C1043 C34 1.207 . S
C1059 C264 1.286 . S
C1061 C63 1.207 . S
C1077 C293 1.286 . S
C1079 C92 1.207 . S
C1095 C5 1.207 . S
C1097 C322 1.286 . S
C1113 C351 1.286 . S
C1115 C208 1.207 . S
C1131 C121 1.207 . S
C1133 C380 1.286 . S
C1149 C409 1.286 . S
C1151 C150 1.207 . S
C1167 C438 1.286 . S
C1169 C179 1.207 . S
C1185 C155 1.852 . S
C1187 C10 1.852 . S
C1203 C184 1.852 . S
C1205 C39 1.852 . S
C1221 C213 1.852 . S
C1223 C68 1.852 . S
C1239 C126 1.852 . S
C1241 C97 1.852 . S
C1257 C387 1.852 . S
C1259 C242 1.852 . S
C1275 C271 1.852 . S
C1277 C416 1.852 . S
C1293 C300 1.852 . S
C1295 C445 1.852 . S
C1311 C329 1.852 . S
C1313 C358 1.852 . S
C1329 C79 0.942 . S
C1331 C21 0.942 . S
C1347 C50 0.942 . S
C1349 C108 0.942 . S
C1365 C195 0.942 . S
C1367 C137 0.942 . S
C1383 C224 0.942 . S
C1385 C166 0.942 . S
C1401 C253 0.942 . S
C1403 C311 0.942 . S
C1419 C340 0.942 . S
C1421 C282 0.942 . S
C1437 C427 0.942 . S
C1439 C369 0.942 . S
C1455 C456 0.942 . S
C1457 C398 0.942 . S
