# Generated by pormake.
# Topology wji, (4)-cn, num edge types: 1
# Building blocks:
#     Node 0, Type 0, BuildingBlock: KUFVIS_clean_sbu_0, # of connection points: 4
#     Node 1, Type 0, BuildingBlock: KUFVIS_clean_sbu_0, # of connection points: 4
#     Node 2, Type 0, BuildingBlock: KUFVIS_clean_sbu_0, # of connection points: 4
#     Node 3, Type 0, BuildingBlock: KUFVIS_clean_sbu_0, # of connection points: 4
#     Node 4, Type 0, BuildingBlock: KUFVIS_clean_sbu_0, # of connection points: 4
#     Node 5, Type 0, BuildingBlock: KUFVIS_clean_sbu_0, # of connection points: 4
#     Node 6, Type 0, BuildingBlock: KUFVIS_clean_sbu_0, # of connection points: 4
#     Node 7, Type 0, BuildingBlock: KUFVIS_clean_sbu_0, # of connection points: 4
#     Node 8, Type 0, BuildingBlock: KUFVIS_clean_sbu_0, # of connection points: 4
#     Node 9, Type 0, BuildingBlock: KUFVIS_clean_sbu_0, # of connection points: 4
#     Node 10, Type 0, BuildingBlock: KUFVIS_clean_sbu_0, # of connection points: 4
#     Node 11, Type 0, BuildingBlock: KUFVIS_clean_sbu_0, # of connection points: 4
#     Edge 12, Type (0, 0), BuildingBlock: EZIPEK_clean_linker_0, # of connection points: 2
#     Edge 13, Type (0, 0), BuildingBlock: EZIPEK_clean_linker_0, # of connection points: 2
#     Edge 14, Type (0, 0), BuildingBlock: EZIPEK_clean_linker_0, # of connection points: 2
#     Edge 15, Type (0, 0), BuildingBlock: EZIPEK_clean_linker_0, # of connection points: 2
#     Edge 16, Type (0, 0), BuildingBlock: EZIPEK_clean_linker_0, # of connection points: 2
#     Edge 17, Type (0, 0), BuildingBlock: EZIPEK_clean_linker_0, # of connection points: 2
#     Edge 18, Type (0, 0), BuildingBlock: EZIPEK_clean_linker_0, # of connection points: 2
#     Edge 19, Type (0, 0), BuildingBlock: EZIPEK_clean_linker_0, # of connection points: 2
#     Edge 20, Type (0, 0), BuildingBlock: EZIPEK_clean_linker_0, # of connection points: 2
#     Edge 21, Type (0, 0), BuildingBlock: EZIPEK_clean_linker_0, # of connection points: 2
#     Edge 22, Type (0, 0), BuildingBlock: EZIPEK_clean_linker_0, # of connection points: 2
#     Edge 23, Type (0, 0), BuildingBlock: EZIPEK_clean_linker_0, # of connection points: 2
#     Edge 24, Type (0, 0), BuildingBlock: EZIPEK_clean_linker_0, # of connection points: 2
#     Edge 25, Type (0, 0), BuildingBlock: EZIPEK_clean_linker_0, # of connection points: 2
#     Edge 26, Type (0, 0), BuildingBlock: EZIPEK_clean_linker_0, # of connection points: 2
#     Edge 27, Type (0, 0), BuildingBlock: EZIPEK_clean_linker_0, # of connection points: 2
#     Edge 28, Type (0, 0), BuildingBlock: EZIPEK_clean_linker_0, # of connection points: 2
#     Edge 29, Type (0, 0), BuildingBlock: EZIPEK_clean_linker_0, # of connection points: 2
#     Edge 30, Type (0, 0), BuildingBlock: EZIPEK_clean_linker_0, # of connection points: 2
#     Edge 31, Type (0, 0), BuildingBlock: EZIPEK_clean_linker_0, # of connection points: 2
#     Edge 32, Type (0, 0), BuildingBlock: EZIPEK_clean_linker_0, # of connection points: 2
#     Edge 33, Type (0, 0), BuildingBlock: EZIPEK_clean_linker_0, # of connection points: 2
#     Edge 34, Type (0, 0), BuildingBlock: EZIPEK_clean_linker_0, # of connection points: 2
#     Edge 35, Type (0, 0), BuildingBlock: EZIPEK_clean_linker_0, # of connection points: 2
# Relax obj value: 0.178
# Max RMSD: 0.117
# Mean RMSD: 0.117
data_MOF--net-wji--node1-KUFVIS_clean_sbu_0--edge1-EZIPEK_clean_linker_0
_symmetry_space_group_name_H-M    P1
_symmetry_Int_Tables_number       1
_symmetry_cell_setting            triclinic
loop_
_symmetry_equiv_pos_as_xyz
'x, y, z'
_cell_length_a     40.371718
_cell_length_b     40.575725
_cell_length_c     17.749556
_cell_angle_alpha  89.753933
_cell_angle_beta   90.269639
_cell_angle_gamma 120.00517
loop_
_atom_site_label
_atom_site_type_symbol
_atom_site_fract_x
_atom_site_fract_y
_atom_site_fract_z
_atom_type_partial_charge
Mn0 Mn 0.44083 0.33807 0.42665 0.0
Mn1 Mn 0.45532 0.42789 0.41361 0.0
C2 C 0.40009 0.35278 0.49567 0.0
C3 C 0.45103 0.2914 0.48513 0.0
C4 C 0.42282 0.37004 0.28699 0.0
O5 O 0.49712 0.36922 0.39434 0.0
O6 O 0.50427 0.4279 0.40302 0.0
C7 C 0.51193 0.48133 0.51808 0.0
N8 N 0.47415 0.46073 0.49904 0.0
C9 C 0.46303 0.50898 0.5528 0.0
C10 C 0.50156 0.52993 0.5734 0.0
C11 C 0.52634 0.51684 0.55277 0.0
C12 C 0.45059 0.47496 0.51263 0.0
H13 H 0.53184 0.47223 0.50214 0.0
C14 C 0.51777 0.40551 0.39546 0.0
O15 O 0.44008 0.28836 0.4155 0.0
O16 O 0.45757 0.32206 0.52002 0.0
N17 N 0.41036 0.43201 0.42204 0.0
C18 C 0.38045 0.41895 0.37241 0.0
C19 C 0.35455 0.43237 0.37654 0.0
C20 C 0.36048 0.46043 0.42924 0.0
C21 C 0.39241 0.47491 0.47704 0.0
C22 C 0.4166 0.45934 0.47265 0.0
H23 H 0.37606 0.39824 0.32992 0.0
O24 O 0.389 0.31885 0.47059 0.0
O25 O 0.43423 0.37912 0.47338 0.0
O26 O 0.42037 0.341 0.31999 0.0
O27 O 0.43729 0.40199 0.31885 0.0
C28 C 0.40252 0.5061 0.52477 0.0
C29 C 0.43812 0.52351 0.56165 0.0
H30 H 0.51291 0.55723 0.60113 0.0
H31 H 0.55665 0.53408 0.56389 0.0
H32 H 0.33049 0.42166 0.33812 0.0
H33 H 0.34104 0.47153 0.43081 0.0
H34 H 0.38433 0.51855 0.52937 0.0
H35 H 0.44717 0.54963 0.59242 0.0
Mn36 Mn 0.12062 0.42875 0.59647 0.0
Mn37 Mn 0.03705 0.43 0.58603 0.0
C38 C 0.06923 0.38981 0.67502 0.0
C39 C 0.17991 0.44427 0.65323 0.0
C40 C 0.06467 0.39851 0.46276 0.0
O41 O 0.1381 0.48292 0.5581 0.0
O42 O 0.08089 0.48129 0.56002 0.0
C43 C 0.03716 0.48789 0.68486 0.0
N44 N 1.02285 0.45037 0.66846 0.0
C45 C 0.96333 0.43396 0.72983 0.0
C46 C 0.97788 0.47236 0.74805 0.0
C47 C 1.01504 0.49939 0.72571 0.0
C48 C 0.98679 0.42416 0.68913 0.0
H49 H 0.06451 0.5092 0.66391 0.0
C50 C 0.11758 0.49898 0.55361 0.0
O51 O 0.17202 0.43295 0.58391 0.0
O52 O 0.15478 0.44959 0.68778 0.0
N53 N 0.99466 0.38191 0.61429 0.0
C54 C 0.98419 0.34647 0.58824 0.0
C55 C 0.94938 0.31532 0.61184 0.0
C56 C 0.92527 0.32119 0.65999 0.0
C57 C 0.93675 0.35804 0.68555 0.0
C58 C 0.97274 0.38753 0.66361 0.0
H59 H 1.00223 0.3421 0.54964 0.0
O60 O 0.09323 0.37922 0.6534 0.0
O61 O 0.07314 0.42002 0.64194 0.0
O62 O 0.09601 0.40418 0.4922 0.0
O63 O 0.04324 0.40829 0.49507 0.0
C64 C 0.91343 0.36695 0.72972 0.0
C65 C 0.92631 0.40508 0.74963 0.0
H66 H 0.9608 0.48146 0.77881 0.0
H67 H 1.02623 0.52922 0.73802 0.0
H68 H 0.94075 0.28701 0.59167 0.0
H69 H 0.89789 0.29731 0.6763 0.0
H70 H 0.88508 0.34494 0.74637 0.0
H71 H 0.90742 0.41206 0.77925 0.0
Mn72 Mn 0.71255 0.106 0.76278 0.0
Mn73 Mn 0.62388 0.02793 0.75916 0.0
C74 C 0.70131 0.05293 0.83622 0.0
C75 C 0.75854 0.16461 0.81572 0.0
C76 C 0.68045 0.05164 0.62999 0.0
O77 O 0.67933 0.12808 0.72747 0.0
O78 O 0.6217 0.07513 0.73917 0.0
C79 C 0.57107 0.03364 0.86111 0.0
N80 N 0.59219 1.01669 0.84598 0.0
C81 C 0.54528 0.95925 0.90845 0.0
C82 C 0.52403 0.97683 0.92566 0.0
C83 C 0.53632 1.01366 0.89941 0.0
C84 C 0.5792 0.97998 0.86678 0.0
H85 H 0.57899 0.06135 0.83952 0.0
C86 C 0.64285 0.11092 0.72761 0.0
O87 O 0.7609 0.15582 0.74652 0.0
O88 O 0.72852 0.14038 0.8527 0.0
N89 N 0.62168 0.98043 0.77764 0.0
C90 C 0.63401 0.96214 0.73084 0.0
C91 C 0.62183 0.92355 0.74244 0.0
C92 C 0.59517 0.90333 0.79896 0.0
C93 C 0.58061 0.92183 0.84266 0.0
C94 C 0.59555 0.96111 0.83187 0.0
H95 H 0.65338 0.97686 0.68506 0.0
O96 O 0.73474 0.0766 0.80909 0.0
O97 O 0.67347 0.05883 0.81502 0.0
O98 O 0.70888 0.08077 0.65882 0.0
O99 O 0.64908 0.03298 0.66424 0.0
C100 C 0.54902 0.90179 0.89038 0.0
C101 C 0.53096 0.92029 0.92197 0.0
H102 H 0.49707 0.96157 0.95524 0.0
H103 H 0.51902 0.02676 0.90869 0.0
H104 H 0.63223 0.9092 0.70655 0.0
H105 H 0.58462 0.87314 0.80576 0.0
H106 H 0.53612 0.87134 0.89759 0.0
H107 H 0.50429 0.90355 0.95175 0.0
Mn108 Mn 0.6305 0.70514 0.93354 0.0
Mn109 Mn 0.62497 0.61888 0.92075 0.0
C110 C 0.66847 0.69052 0.01106 0.0
C111 C 0.61378 0.74666 -0.0056 0.0
C112 C 0.65921 0.6794 0.79936 0.0
O113 O 0.57658 0.67102 0.89076 0.0
O114 O 0.57442 0.61398 0.89545 0.0
C115 C 0.56552 0.56232 0.02016 0.0
N116 N 0.6033 0.58379 0.00244 0.0
C117 C 0.61701 0.53863 0.06338 0.0
C118 C 0.57841 0.51667 0.08351 0.0
C119 C 0.55267 0.52874 0.06204 0.0
C120 C 0.62831 0.57218 0.02239 0.0
H121 H 0.54503 0.57002 0.00042 0.0
C122 C 0.55864 0.63455 0.88668 0.0
O123 O 0.62748 0.75324 0.92646 0.0
O124 O 0.6079 0.71519 0.0249 0.0
N125 N 0.67222 0.62181 0.94785 0.0
C126 C 0.70811 0.64552 0.92126 0.0
C127 C 0.73824 0.63969 0.94344 0.0
C128 C 0.73086 0.60893 -0.00918 0.0
C129 C 0.69359 0.58493 0.0171 0.0
C130 C 0.66522 0.59344 -0.00368 0.0
H131 H 0.71361 0.66854 0.88322 0.0
O132 O 0.67959 0.72547 -0.0081 0.0
O133 O 0.63769 0.66511 0.97738 0.0
O134 O 0.65602 0.70618 0.82989 0.0
O135 O 0.64749 0.64761 0.83091 0.0
C136 C 0.68319 0.55222 0.06102 0.0
C137 C 0.6447 0.52851 0.08216 0.0
H138 H 0.56822 0.49051 0.1152 0.0
H139 H 0.52276 0.51164 0.07577 0.0
H140 H 0.76688 0.65833 0.92276 0.0
H141 H 0.75392 0.60381 0.00606 0.0
H142 H 0.70431 0.54439 0.07681 0.0
H143 H 0.63659 0.50236 0.11208 0.0
Mn144 Mn 0.936 0.60422 0.07565 0.0
Mn145 Mn 1.01061 0.58972 0.03848 0.0
C146 C 0.994 0.64089 0.137 0.0
C147 C 0.88247 0.59441 0.14645 0.0
C148 C 0.98574 0.63224 0.93259 0.0
O149 O 0.90882 0.54978 0.03794 0.0
O150 O 0.96023 0.54341 0.01328 0.0
C151 C 0.99848 0.52359 0.13067 0.0
N152 N 1.02051 0.56106 0.11226 0.0
C153 C 0.0748 0.56439 0.1769 0.0
C154 C 0.05236 0.52605 0.1971 0.0
C155 C 1.01406 0.50562 0.1738 0.0
C156 C 0.05781 0.58072 0.13295 0.0
H157 H 0.96956 0.50716 0.11113 0.0
C158 C 0.92401 0.52967 0.02201 0.0
O159 O 0.88743 0.60647 0.07739 0.0
O160 O 0.90766 0.58671 0.17378 0.0
N161 N 0.05998 0.63102 0.066 0.0
C162 C 0.0772 0.6682 0.04512 0.0
C163 C 0.11494 0.69338 0.06795 0.0
C164 C 0.13478 0.67991 0.11166 0.0
C165 C 0.11635 0.64154 0.13335 0.0
C166 C 0.0784 0.61808 0.11013 0.0
H167 H 0.06201 0.67838 0.012 0.0
O168 O 0.97054 0.65337 0.12354 0.0
O169 O 0.98425 0.60763 0.10803 0.0
O170 O 0.95643 0.6272 0.96939 0.0
O171 O 1.00696 0.61929 0.95446 0.0
C172 C 0.13405 0.62572 0.17748 0.0
C173 C 0.11339 0.58702 0.19859 0.0
H174 H 0.06428 0.51201 0.23017 0.0
H175 H 0.99657 0.47595 0.18834 0.0
H176 H 0.12876 0.72303 0.0515 0.0
H177 H 0.16401 0.6993 0.1287 0.0
H178 H 0.16345 0.64309 0.19581 0.0
H179 H 0.12723 0.57513 0.23261 0.0
Mn180 Mn 0.35003 0.93295 0.27453 0.0
Mn181 Mn 0.43843 1.01193 0.27696 0.0
C182 C 0.36422 0.9849 0.35334 0.0
C183 C 0.30267 0.8733 0.32363 0.0
C184 C 0.38362 0.99131 0.14618 0.0
O185 O 0.38415 0.91239 0.23652 0.0
O186 O 0.44184 0.96642 0.24851 0.0
C187 C 0.48997 1.00339 0.37877 0.0
N188 N 0.46799 0.0196 0.36552 0.0
C189 C 0.50916 0.07323 0.44324 0.0
C190 C 0.53283 0.05771 0.45464 0.0
C191 C 0.5231 0.02259 0.42232 0.0
C192 C 0.47757 0.05396 0.3954 0.0
H193 H 0.4842 0.97748 0.35129 0.0
C194 C 0.42087 0.93066 0.23538 0.0
O195 O 0.30055 0.88389 0.25562 0.0
O196 O 0.33279 0.89621 0.36162 0.0
N197 N 0.43702 0.05661 0.30549 0.0
C198 C 0.42177 0.07501 0.2667 0.0
C199 C 0.42907 0.11092 0.29096 0.0
C200 C 0.4532 0.12824 0.35296 0.0
C201 C 0.46986 0.10951 0.38986 0.0
C202 C 0.46005 0.07286 0.36551 0.0
H203 H 0.40408 0.06245 0.21756 0.0
O204 O 0.32964 0.9624 0.32934 0.0
O205 O 0.3899 0.97802 0.3269 0.0
O206 O 0.35514 0.96107 0.17227 0.0
O207 O 0.41429 1.01016 0.18265 0.0
C208 C 0.49816 0.12706 0.44568 0.0
C209 C 0.51848 0.10926 0.47057 0.0
H210 H 0.55905 0.07298 0.4869 0.0
H211 H 0.54148 1.01061 0.42948 0.0
H212 H 0.4167 0.12549 0.26106 0.0
H213 H 0.45977 0.15648 0.3701 0.0
H214 H 0.50649 0.15538 0.46556 0.0
H215 H 0.54265 0.12416 0.50742 0.0
Mn216 Mn 0.71644 0.60953 0.37901 0.0
Mn217 Mn 0.62801 0.60053 0.39282 0.0
C218 C 0.70054 0.64718 0.30404 0.0
C219 C 0.76143 0.59687 0.32052 0.0
C220 C 0.68939 0.63772 0.51232 0.0
O221 O 0.68388 0.55523 0.41883 0.0
O222 O 0.62607 0.55183 0.42114 0.0
C223 C 0.57171 0.53757 0.2985 0.0
N224 N 0.59144 0.57553 0.31421 0.0
C225 C 0.54333 0.58453 0.25178 0.0
C226 C 0.52338 0.54586 0.23319 0.0
C227 C 0.53768 0.5223 0.25665 0.0
C228 C 0.57745 0.59831 0.2928 0.0
H229 H 0.58099 0.51876 0.31995 0.0
C230 C 0.64744 0.53674 0.42617 0.0
O231 O 0.76565 0.60881 0.3895 0.0
O232 O 0.73009 0.59013 0.28695 0.0
N233 N 0.62722 0.6454 0.3628 0.0
C234 C 0.64978 0.682 0.38613 0.0
C235 C 0.64131 0.71 0.3621 0.0
C236 C 0.60914 0.6998 0.31624 0.0
C237 C 0.58634 0.66188 0.29333 0.0
C238 C 0.59732 0.63566 0.31607 0.0
H239 H 0.67394 0.68966 0.42293 0.0
O240 O 0.73562 0.65877 0.3245 0.0
O241 O 0.67496 0.61515 0.33412 0.0
O242 O 0.71585 0.63337 0.48339 0.0
O243 O 0.6576 0.62613 0.48019 0.0
C244 C 0.55269 0.64887 0.25029 0.0
C245 C 0.53069 0.61001 0.23124 0.0
H246 H 0.49684 0.53396 0.20179 0.0
H247 H 0.52197 0.49221 0.24457 0.0
H248 H 0.65905 0.7392 0.38008 0.0
H249 H 0.60206 0.72122 0.29942 0.0
H250 H 0.54306 0.66833 0.23287 0.0
H251 H 0.50415 0.59999 0.20062 0.0
Mn252 Mn 0.11314 0.70061 0.52122 0.0
Mn253 Mn 0.03219 0.61422 0.51814 0.0
C254 C 0.06704 0.68647 0.42909 0.0
C255 C 0.17454 0.7461 0.47684 0.0
C256 C 0.04848 0.67269 0.64051 0.0
O257 O 0.13051 0.66614 0.57133 0.0
O258 O 0.0752 0.60926 0.56193 0.0
C259 C 0.04407 0.55976 0.42947 0.0
N260 N 1.0257 0.57992 0.43859 0.0
C261 C 0.97249 0.5346 0.36349 0.0
C262 C 0.99109 0.51369 0.35315 0.0
C263 C 1.02725 0.52658 0.38573 0.0
C264 C 0.9906 0.56735 0.40798 0.0
H265 H 0.07054 0.56791 0.45791 0.0
C266 C 0.11134 0.62961 0.57512 0.0
O267 O 0.16208 0.74952 0.54194 0.0
O268 O 0.15285 0.71504 0.44034 0.0
N269 N 0.99105 0.6173 0.47109 0.0
C270 C 0.98109 0.64466 0.47587 0.0
C271 C 0.94822 0.63963 0.43804 0.0
C272 C 0.92663 0.60691 0.3941 0.0
C273 C 0.93952 0.58088 0.38494 0.0
C274 C 0.97306 0.58821 0.42253 0.0
H275 H 0.99923 0.6708 0.50546 0.0
O276 O 0.08821 0.72113 0.45288 0.0
O277 O 0.07028 0.66066 0.46638 0.0
O278 O 0.08064 0.69881 0.61512 0.0
O279 O 1.02977 0.6412 0.60677 0.0
C280 C 0.92115 0.54855 0.33852 0.0
C281 C 0.93729 0.52501 0.32929 0.0
H282 H 0.9779 0.4879 0.31999 0.0
H283 H 0.04176 0.51052 0.37895 0.0
H284 H 0.93978 0.66101 0.44214 0.0
H285 H 0.90107 0.60277 0.36554 0.0
H286 H 0.89486 0.5417 0.30933 0.0
H287 H 0.9233 0.50043 0.29358 0.0
Mn288 Mn 0.43997 0.11113 0.71493 0.0
Mn289 Mn 0.45255 0.03469 0.73146 0.0
C290 C 0.39811 0.05552 0.6474 0.0
C291 C 0.45077 0.16778 0.65476 0.0
C292 C 0.4217 0.06263 0.85591 0.0
O293 O 0.49623 0.13537 0.7475 0.0
O294 O 0.50206 0.08294 0.74144 0.0
C295 C 0.50828 0.03527 0.62843 0.0
N296 N 0.47063 1.01889 0.64762 0.0
C297 C 0.45883 0.95834 0.599 0.0
C298 C 0.49713 0.9752 0.57749 0.0
C299 C 0.52222 1.01327 0.59574 0.0
C300 C 0.44683 0.98096 0.63677 0.0
H301 H 0.5284 0.06444 0.64252 0.0
C302 C 0.51621 0.11892 0.74842 0.0
O303 O 0.44019 0.16061 0.72456 0.0
O304 O 0.45669 0.14302 0.62063 0.0
N305 N 0.40701 0.9862 0.72455 0.0
C306 C 0.37698 0.97087 0.77369 0.0
C307 C 0.35079 0.93167 0.77231 0.0
C308 C 0.35672 0.90814 0.72337 0.0
C309 C 0.38881 0.92408 0.6763 0.0
C310 C 0.41303 0.9638 0.67706 0.0
H311 H 0.37268 0.98833 0.81358 0.0
O312 O 0.38775 0.079 0.67219 0.0
O313 O 0.43218 0.06264 0.6696 0.0
O314 O 0.41982 0.08927 0.82194 0.0
O315 O 0.43526 0.04409 0.82512 0.0
C316 C 0.39869 0.90172 0.63175 0.0
C317 C 0.4338 0.91884 0.59345 0.0
H318 H 0.50815 0.95857 0.5513 0.0
H319 H 0.55242 0.02581 0.58439 0.0
H320 H 0.3266 0.91953 0.8102 0.0
H321 H 0.33711 0.87771 0.72409 0.0
H322 H 0.3804 0.87109 0.62973 0.0
H323 H 0.44234 0.90101 0.56379 0.0
Mn324 Mn 0.35353 0.43089 0.86544 0.0
Mn325 Mn 0.44182 0.43958 0.86913 0.0
C326 C 0.36841 0.39314 0.788 0.0
C327 C 0.3068 0.4437 0.81268 0.0
C328 C 0.38513 0.40541 -0.00311 0.0
O329 O 0.3876 0.48551 0.90379 0.0
O330 O 0.44534 0.4888 0.89499 0.0
C331 C 0.49578 0.49895 0.76966 0.0
N332 N 0.47273 0.46091 0.78213 0.0
C333 C 0.5136 0.4469 0.707 0.0
C334 C 0.5382 0.48585 0.69609 0.0
C335 C 0.52925 0.51199 0.72767 0.0
C336 C 0.48177 0.43548 0.75349 0.0
H337 H 0.49052 0.51959 0.79658 0.0
C338 C 0.42433 0.50386 0.90563 0.0
O339 O 0.30394 0.43111 0.88095 0.0
O340 O 0.33731 0.45059 0.77675 0.0
N341 N 0.44016 0.39314 0.84268 0.0
C342 C 0.42427 0.35971 0.88192 0.0
C343 C 0.43101 0.33054 0.85893 0.0
C344 C 0.45517 0.33649 0.79766 0.0
C345 C 0.47258 0.37169 0.76043 0.0
C346 C 0.4634 0.39919 0.78356 0.0
H347 H 0.40643 0.35513 0.93038 0.0
O348 O 0.33365 0.38125 0.81046 0.0
O349 O 0.39396 0.42545 0.81558 0.0
O350 O 0.35698 0.40727 0.96855 0.0
O351 O 0.41643 0.41772 0.96266 0.0
C352 C 0.50099 0.38155 0.70552 0.0
C353 C 0.52215 0.41947 0.68059 0.0
H354 H 0.56454 0.49606 0.6648 0.0
H355 H 0.54843 0.54221 0.72077 0.0
H356 H 0.4181 0.30376 0.88915 0.0
H357 H 0.46125 0.31435 0.78143 0.0
H358 H 0.50878 0.361 0.68647 0.0
H359 H 0.54635 0.42794 0.64446 0.0
Mn360 Mn 0.93853 0.33892 0.03682 0.0
Mn361 Mn 1.01242 0.42991 0.05489 0.0
C362 C 0.99454 0.35862 0.96744 0.0
C363 C 0.88325 0.29239 0.97415 0.0
C364 C 0.99123 0.36911 0.17489 0.0
O365 O 0.91156 0.36725 0.07233 0.0
O366 O 0.96246 0.42696 0.07576 0.0
C367 C 1.00155 0.48224 0.95544 0.0
N368 N 1.02265 0.46586 0.97586 0.0
C369 C 0.07891 0.51697 0.91773 0.0
C370 C 0.05744 0.53374 0.895 0.0
C371 C 1.01856 0.51623 0.91381 0.0
C372 C 0.06033 0.4829 0.95874 0.0
H373 H 0.97229 0.47017 0.97263 0.0
C374 C 0.92634 0.40331 0.07771 0.0
O375 O 0.89052 0.28795 0.04353 0.0
O376 O 0.90716 0.32417 0.9419 0.0
N377 N 0.06114 0.43561 0.03162 0.0
C378 C 0.07787 0.41599 0.05888 0.0
C379 C 0.11605 0.42811 0.04032 0.0
C380 C 0.13684 0.4608 -0.00433 0.0
C381 C 0.11892 0.48051 0.96853 0.0
C382 C 0.08033 0.46606 -0.0139 0.0
H383 H 0.06221 0.39142 0.09477 0.0
O384 O 0.97256 0.32337 -0.01266 0.0
O385 O 0.98491 0.38249 -0.00528 0.0
O386 O 0.96237 0.34106 0.14367 0.0
O387 O 1.00918 0.40124 0.14352 0.0
C388 C 0.13802 0.51438 0.92623 0.0
C389 C 0.11824 0.53307 0.90247 0.0
H390 H 0.07054 0.56021 0.86365 0.0
H391 H 1.00189 0.52929 0.89747 0.0
H392 H 0.12966 0.41275 0.06157 0.0
H393 H 0.16656 0.47062 -0.01703 0.0
H394 H 0.16808 0.52669 0.91289 0.0
H395 H 0.13357 0.55982 0.87253 0.0
Mn396 Mn 0.62627 0.92882 0.20461 0.0
Mn397 Mn 0.6252 1.0115 0.20496 0.0
C398 C 0.66944 0.97895 0.12609 0.0
C399 C 0.60449 0.86656 0.15503 0.0
C400 C 0.6505 0.98229 0.33778 0.0
O401 O 0.57261 0.91354 0.2436 0.0
O402 O 0.57224 0.96807 0.21743 0.0
C403 C 0.57584 1.01728 0.09372 0.0
N404 N 0.61241 0.02824 0.1147 0.0
C405 C 0.63569 0.08852 0.05081 0.0
C406 C 0.59831 0.07718 0.02809 0.0
C407 C 0.56823 0.04222 0.0527 0.0
C408 C 0.64149 0.06355 0.09674 0.0
H409 H 0.55202 0.99112 0.11399 0.0
C410 C 0.55539 0.93267 0.23553 0.0
O411 O 0.61906 0.8766 0.22197 0.0
O412 O 0.60212 0.89285 0.11806 0.0
N413 N 0.67531 0.05465 0.19352 0.0
C414 C 0.70546 0.06741 0.24241 0.0
C415 C 0.73724 0.1039 0.23317 0.0
C416 C 0.73717 0.12766 0.17579 0.0
C417 C 0.70525 0.11465 0.1283 0.0
C418 C 0.67502 0.07717 0.13763 0.0
H419 H 0.7055 0.05002 0.28836 0.0
O420 O 0.67681 0.95314 0.15101 0.0
O421 O 0.63805 0.97631 0.15199 0.0
O422 O 0.65178 0.95472 0.30661 0.0
O423 O 0.63825 1.0014 0.30365 0.0
C424 C 0.70129 0.13847 0.07582 0.0
C425 C 0.66623 0.12573 0.03856 0.0
H426 H 0.59195 0.0962 -0.00344 0.0
H427 H 0.53895 0.0349 0.04217 0.0
H428 H 0.76139 0.11397 0.27122 0.0
H429 H 0.76123 0.15629 0.17025 0.0
H430 H 0.72409 0.16756 0.06772 0.0
H431 H 0.66233 0.1458 0.00491 0.0
C432 C 0.36318 0.35756 0.10735 0.0
C433 C 0.38701 0.39459 0.07687 0.0
C434 C 0.43659 0.40421 0.16682 0.0
C435 C 0.41149 0.37075 0.20671 0.0
N436 N 0.3476 0.31694 0.21853 0.0
N437 N 0.44046 0.45731 0.09943 0.0
C438 C 0.37365 0.34751 0.17804 0.0
C439 C 0.42158 0.41925 0.11442 0.0
N440 N 0.3315 0.33195 0.06866 0.0
N441 N 0.47503 0.42207 0.17973 0.0
H442 H 0.42967 0.46957 0.06206 0.0
H443 H 0.46403 0.47649 0.13108 0.0
H444 H 0.48709 0.41107 0.21708 0.0
H445 H 0.49452 0.44501 0.14707 0.0
H446 H 0.31515 0.30349 0.08462 0.0
H447 H 0.32307 0.33898 0.0183 0.0
H448 H 0.31876 0.30133 0.20381 0.0
H449 H 0.35461 0.30864 0.269 0.0
C450 C 0.04847 0.41644 0.34356 0.0
C451 C 0.0546 0.38938 0.38149 0.0
C452 C 1.01604 0.34317 0.28216 0.0
C453 C 1.00495 0.36923 0.25388 0.0
N454 N 0.99976 0.42445 0.28298 0.0
N455 N 0.04014 0.32437 0.39112 0.0
C456 C 1.01764 0.4038 0.29317 0.0
C457 C 0.03721 0.35176 0.35202 0.0
N458 N 0.07081 0.45418 0.35938 0.0
N459 N 1.00736 0.31118 0.24248 0.0
H460 H 0.05634 0.3306 0.44048 0.0
H461 H 1.02514 0.2957 0.37629 0.0
H462 H 0.99157 0.30411 0.19259 0.0
H463 H 1.01768 0.29307 0.25722 0.0
H464 H 0.0687 0.47517 0.32935 0.0
H465 H 0.09388 0.46401 0.39662 0.0
H466 H 1.00693 0.44876 0.31438 0.0
H467 H 0.97516 0.41456 0.24983 0.0
C468 C 0.69667 1.00797 0.45056 0.0
C469 C 0.65938 0.99282 0.41895 0.0
C470 C 0.64516 0.02816 0.51112 0.0
C471 C 0.67947 0.03881 0.55074 0.0
N472 N 0.73638 0.0338 0.56284 0.0
N473 N 0.59456 0.97851 0.43898 0.0
C474 C 0.70505 0.02733 0.52192 0.0
C475 C 0.63247 0.99941 0.45654 0.0
N476 N 0.72418 1.00502 0.41201 0.0
N477 N 0.62476 0.046 0.52488 0.0
H478 H 0.58432 0.95679 0.39912 0.0
H479 H 0.57363 0.98003 0.47049 0.0
H480 H 0.63411 0.06863 0.56264 0.0
H481 H 0.60134 0.04118 0.49193 0.0
H482 H 0.75279 1.01884 0.42867 0.0
H483 H 0.71852 0.99038 0.36111 0.0
H484 H 0.75388 0.02282 0.54786 0.0
H485 H 0.74336 0.0482 0.61413 0.0
C486 C 0.71533 0.68722 0.61957 0.0
C487 C 0.68951 0.65013 0.59159 0.0
C488 C 0.64174 0.64513 0.68061 0.0
C489 C 0.66864 0.67855 0.71837 0.0
N490 N 0.73366 0.72995 0.72778 0.0
N491 N 0.63398 0.58925 0.61855 0.0
C492 C 0.70642 0.69944 0.68901 0.0
C493 C 0.6548 0.62759 0.63044 0.0
N494 N 0.74743 0.71077 0.57984 0.0
N495 N 0.60368 0.6291 0.69579 0.0
H496 H 0.6436 0.57519 0.58347 0.0
H497 H 0.60977 0.57149 0.65015 0.0
H498 H 0.59349 0.64189 0.73272 0.0
H499 H 0.58279 0.6059 0.66571 0.0
H500 H 0.76544 0.73921 0.5941 0.0
H501 H 0.75469 0.70205 0.53045 0.0
H502 H 0.76246 0.74414 0.71287 0.0
H503 H 0.72723 0.73965 0.77692 0.0
C504 C 0.99031 0.65162 0.7223 0.0
C505 C 1.03073 0.67559 0.71397 0.0
C506 C 0.03245 0.68606 0.85056 0.0
C507 C 0.99623 0.65266 0.85865 0.0
N508 N 0.93961 0.60328 0.79824 0.0
N509 N 0.0904 0.71908 0.77716 0.0
C510 C 0.9746 0.63543 0.79336 0.0
C511 C 0.05197 0.69441 0.77992 0.0
N512 N 0.96675 0.64624 0.66305 0.0
N513 N 0.04711 0.71075 0.90935 0.0
H514 H 0.10587 0.72841 0.72745 0.0
H515 H 0.10712 0.72941 0.82568 0.0
H516 H 1.0314 0.70634 0.95871 0.0
H517 H 0.07213 0.73708 0.90549 0.0
H518 H 0.97728 0.66365 0.61608 0.0
H519 H 0.937 0.63043 0.66655 0.0
H520 H 0.92468 0.58774 0.75085 0.0
H521 H 0.92673 0.59109 0.84954 0.0
C522 C 0.43651 0.04445 0.97744 0.0
C523 C 0.41086 0.05184 0.9363 0.0
C524 C 0.36229 1.01668 0.0341 0.0
C525 C 0.38667 1.00447 0.06651 0.0
N526 N 0.442 0.9972 0.04948 0.0
N527 N 0.34655 0.04057 0.92133 0.0
C528 C 0.42205 1.01515 0.03126 0.0
C529 C 0.37281 0.03684 0.96347 0.0
N530 N 0.47485 0.0649 0.96336 0.0
N531 N 0.33 1.01004 0.07103 0.0
H532 H 0.35361 0.05577 0.87084 0.0
H533 H 0.31757 0.02685 0.93473 0.0
H534 H 0.32145 0.99485 0.12153 0.0
H535 H 0.3132 0.02154 0.05365 0.0
H536 H 0.49499 0.0622 -0.00424 0.0
H537 H 0.48629 0.08721 0.92453 0.0
H538 H 0.46668 1.00232 0.02104 0.0
H539 H 0.43136 0.97435 0.08706 0.0
C540 C 0.6097 0.4706 0.48117 0.0
C541 C 0.62693 0.49462 0.41848 0.0
C542 C 0.58099 0.44516 0.33386 0.0
C543 C 0.56014 0.42428 0.39732 0.0
N544 N 0.56473 0.4064 0.52374 0.0
N545 N 0.63963 0.49817 0.28552 0.0
C546 C 0.57809 0.43338 0.46872 0.0
C547 C 0.61647 0.47929 0.34481 0.0
N548 N 0.62222 0.48398 0.552 0.0
N549 N 0.56549 0.43353 0.26392 0.0
H550 H 0.66503 0.52393 0.29188 0.0
H551 H 0.63561 0.48607 0.23242 0.0
H552 H 0.54068 0.4073 0.25589 0.0
H553 H 0.5767 0.44984 0.21537 0.0
H554 H 0.60873 0.46873 0.60053 0.0
H555 H 0.6459 0.51092 0.5613 0.0
H556 H 0.57999 0.40941 0.5732 0.0
H557 H 0.54088 0.37952 0.515 0.0
C558 C 0.14089 0.56359 0.49549 0.0
C559 C 0.13636 0.54115 0.55972 0.0
C560 C 0.13232 0.58793 0.64041 0.0
C561 C 0.1323 0.60808 0.57545 0.0
N562 N 0.15064 0.62364 0.44546 0.0
N563 N 0.14431 0.53957 0.69355 0.0
C564 C 0.14213 0.5991 0.50454 0.0
C565 C 0.13832 0.55639 0.63241 0.0
N566 N 0.14202 0.54994 0.42606 0.0
N567 N 0.12414 0.5974 0.70868 0.0
H568 H 0.14881 0.51651 0.68811 0.0
H569 H 0.14884 0.55089 0.74755 0.0
H570 H 0.12103 0.62125 0.7157 0.0
H571 H 0.11888 0.58079 0.7568 0.0
H572 H 0.1403 0.56226 0.37571 0.0
H573 H 0.14398 0.52542 0.41979 0.0
H574 H 0.15988 0.61986 0.39324 0.0
H575 H 0.1516 0.64964 0.45122 0.0
C576 C 0.57764 0.1498 0.67957 0.0
C577 C 0.55856 0.14151 0.74946 0.0
C578 C 0.61128 0.1376 0.80685 0.0
C579 C 0.62329 0.13352 0.73411 0.0
N580 N 0.62173 0.14141 0.60013 0.0
N581 N 0.56369 0.14061 0.88363 0.0
C582 C 0.60837 0.14244 0.66994 0.0
C583 C 0.57789 0.14025 0.81444 0.0
N584 N 0.56642 0.16504 0.62352 0.0
N585 N 0.62984 0.13652 0.86997 0.0
H586 H 0.54004 0.14432 0.88955 0.0
H587 H 0.5767 0.13915 0.93348 0.0
H588 H 0.6546 0.13447 0.8688 0.0
H589 H 0.6546 0.13447 0.8688 0.0
H590 H 0.58257 0.1768 0.57496 0.0
H591 H 0.54325 0.16945 0.63038 0.0
H592 H 0.60924 0.14396 0.55058 0.0
H593 H 0.64479 0.13688 0.59265 0.0
C594 C 0.49916 0.60163 0.96238 0.0
C595 C 0.51616 0.61341 0.89027 0.0
C596 C 0.45718 0.56372 0.83271 0.0
C597 C 0.4455 0.54602 0.90427 0.0
N598 N 0.45113 0.54997 0.03858 0.0
N599 N 0.50938 0.61091 0.75601 0.0
C600 C 0.46469 0.56614 0.96983 0.0
C601 C 0.49411 0.59655 0.82494 0.0
N602 N 0.51674 0.62397 0.02347 0.0
N603 N 0.43342 0.54796 0.77233 0.0
H604 H 0.53493 0.63669 0.75065 0.0
H605 H 0.49711 0.59749 0.70526 0.0
H606 H 0.40653 0.52363 0.77759 0.0
H607 H 0.4387 0.56076 0.71952 0.0
H608 H 0.50423 0.61881 0.07644 0.0
H609 H 0.54218 0.64987 0.01885 0.0
H610 H 0.46619 0.56049 0.08875 0.0
H611 H 0.42465 0.52515 0.04422 0.0
C612 C 0.89506 0.42758 -0.00906 0.0
C613 C 0.90169 0.42047 0.06598 0.0
C614 C 0.8921 0.47247 0.1065 0.0
C615 C 0.90079 0.48751 0.03189 0.0
N616 N 0.9022 0.47568 0.90018 0.0
N617 N 0.89611 0.42902 0.19717 0.0
C618 C 0.89858 0.46338 0.97282 0.0
C619 C 0.89612 0.44031 0.12474 0.0
N620 N 0.88607 0.40043 0.93755 0.0
N621 N 0.88108 0.48932 0.15923 0.0
H622 H 0.89849 0.40509 0.20954 0.0
H623 H 0.89345 0.44273 0.24403 0.0
H624 H 0.87728 0.51226 0.14632 0.0
H625 H 0.87109 0.47762 0.21228 0.0
H626 H 0.87538 0.40191 0.885 0.0
H627 H 0.88385 0.37431 0.95033 0.0
H628 H 0.90424 0.46065 0.85477 0.0
H629 H 0.90394 0.50157 0.88651 0.0
C630 C 0.45937 0.90958 0.16302 0.0
C631 C 0.44211 0.90975 0.23155 0.0
C632 C 0.49192 0.90446 0.30166 0.0
C633 C 0.51295 0.91258 0.23393 0.0
N634 N 0.51187 0.91166 0.0977 0.0
N635 N 0.43468 0.89676 0.36427 0.0
C636 C 0.49485 0.91069 0.16418 0.0
C637 C 0.45571 0.9028 0.30036 0.0
N638 N 0.44268 0.91006 0.09644 0.0
N639 N 0.50735 0.89975 0.36654 0.0
H640 H 0.40797 0.89497 0.36295 0.0
H641 H 0.44264 0.89238 0.41748 0.0
H642 H 0.53253 0.8985 0.36615 0.0
H643 H 0.49497 0.89559 0.41949 0.0
H644 H 0.45496 0.91078 0.0444 0.0
H645 H 0.41593 0.9082 0.09446 0.0
H646 H 0.53787 0.91204 0.09375 0.0
H647 H 0.53787 0.91204 0.09375 0.0
C648 C 0.37449 0.39911 0.64676 0.0
C649 C 0.37465 0.38005 0.71407 0.0
C650 C 0.38445 0.33582 0.63691 0.0
C651 C 0.38444 0.35598 0.57034 0.0
N652 N 0.34872 0.38374 0.52232 0.0
N653 N 0.36108 0.31949 0.76526 0.0
C654 C 0.37056 0.38113 0.57753 0.0
C655 C 0.37382 0.34492 0.7071 0.0
N656 N 0.37813 0.43419 0.6455 0.0
N657 N 0.3939 0.30801 0.63448 0.0
H658 H 0.35186 0.32492 0.81612 0.0
H659 H 0.35644 0.29191 0.76026 0.0
H660 H 0.39755 0.29701 0.5849 0.0
H661 H 0.39839 0.29607 0.68281 0.0
H662 H 0.38574 0.4519 0.69231 0.0
H663 H 0.38574 0.4519 0.69231 0.0
H664 H 0.33486 0.39938 0.53 0.0
H665 H 0.34098 0.36622 0.47493 0.0
C666 C 1.02548 0.39921 0.85252 0.0
C667 C 1.01724 0.36685 0.89614 0.0
C668 C 0.03977 0.34507 0.78873 0.0
C669 C 0.05329 0.38096 0.753 0.0
N670 N 0.07664 0.44761 0.7807 0.0
N671 N 1.02838 0.31357 0.91004 0.0
C672 C 0.05225 0.41001 0.79466 0.0
C673 C 1.02801 0.34095 0.86585 0.0
N674 N 1.00512 0.41734 0.85873 0.0
N675 N 0.03708 0.31492 0.74989 0.0
H676 H 1.02389 0.31215 0.96803 0.0
H677 H 0.0382 0.29577 0.89064 0.0
H678 H 0.0438 0.31647 0.69289 0.0
H679 H 1.02453 0.28759 0.77279 0.0
H680 H 1.01388 0.44317 0.83183 0.0
H681 H 0.97781 0.4047 0.88192 0.0
H682 H 0.07519 0.46892 0.81014 0.0
H683 H 0.10094 0.45725 0.74751 0.0
C684 C 0.67356 0.97521 -0.01693 0.0
C685 C 0.68502 0.99687 0.0509 0.0
C686 C 0.71857 0.0551 0.97635 0.0
C687 C 0.70016 0.03388 0.90978 0.0
N688 N 0.68843 0.97627 0.85104 0.0
N689 N 0.73861 0.05148 0.10399 0.0
C690 C 0.68528 0.99433 0.91269 0.0
C691 C 0.71349 0.03537 0.04578 0.0
N692 N 0.65373 0.93653 -0.01496 0.0
N693 N 0.74231 0.0935 0.97354 0.0
H694 H 0.73701 0.03592 0.15222 0.0
H695 H 0.76322 0.07812 0.10074 0.0
H696 H 0.75304 0.10833 0.92376 0.0
H697 H 0.75293 0.11045 0.02131 0.0
H698 H 0.64051 0.91996 0.93763 0.0
H699 H 0.65263 0.92132 0.03288 0.0
H700 H 0.68262 0.94819 0.85224 0.0
H701 H 0.70161 0.99115 0.80177 0.0
C702 C 0.64936 0.65168 0.12908 0.0
C703 C 0.67813 0.68226 0.08753 0.0
C704 C 0.71904 0.69728 0.1996 0.0
C705 C 0.69307 0.66087 0.23082 0.0
N706 N 0.64219 0.59785 0.19673 0.0
N707 N 0.74447 0.73222 0.08286 0.0
C708 C 0.66061 0.6362 0.18754 0.0
C709 C 0.71441 0.70475 0.1225 0.0
N710 N 0.61153 0.63816 0.1154 0.0
N711 N 0.74697 0.72501 0.24294 0.0
H712 H 0.74265 0.73705 0.02567 0.0
H713 H 0.77205 0.74719 0.10518 0.0
H714 H 0.74908 0.72187 0.30078 0.0
H715 H 0.76473 0.75258 0.22305 0.0
H716 H 0.59032 0.61415 0.14205 0.0
H717 H 0.60141 0.65319 0.08449 0.0
H718 H 0.61609 0.58027 0.17092 0.0
H719 H 0.6547 0.58362 0.22255 0.0
C720 C 0.03884 0.70043 0.31204 0.0
C721 C 0.05317 0.67916 0.34971 0.0
C722 C 1.02959 0.63355 0.24856 0.0
C723 C 1.01909 0.65626 0.20521 0.0
N724 N 1.02847 0.71977 0.18911 0.0
N725 N 0.08036 0.63859 0.32696 0.0
C726 C 1.02852 0.69261 0.23456 0.0
C727 C 0.055 0.65028 0.30891 0.0
N728 N 0.03356 0.72671 0.34948 0.0
N729 N 1.01229 0.59532 0.24014 0.0
H730 H 0.10282 0.65325 0.36476 0.0
H731 H 0.08182 0.6174 0.29683 0.0
H732 H 0.98534 0.57915 0.21607 0.0
H733 H 1.02261 0.57946 0.26705 0.0
H734 H 1.02029 0.74043 0.32444 0.0
H735 H 0.03862 0.73177 0.40702 0.0
H736 H 0.03725 0.74724 0.20802 0.0
H737 H 1.02467 0.71631 0.1309 0.0
C738 C 0.36978 0.03786 0.43636 0.0
C739 C 0.36994 1.00336 0.42805 0.0
C740 C 0.3675 0.99772 0.56473 0.0
C741 C 0.38199 0.03687 0.57251 0.0
N742 N 0.39104 0.09457 0.51004 0.0
N743 N 0.37131 0.95074 0.49024 0.0
C744 C 0.38127 0.05727 0.50677 0.0
C745 C 0.36974 0.98338 0.49398 0.0
N746 N 0.35705 0.05115 0.37896 0.0
N747 N 0.34615 0.97373 0.62071 0.0
H748 H 0.37956 0.94249 0.44186 0.0
H749 H 0.36909 0.93481 0.53786 0.0
H750 H 0.33931 0.98409 0.6684 0.0
H751 H 0.3312 0.94425 0.61375 0.0
H752 H 0.35272 0.07427 0.38484 0.0
H753 H 0.34753 0.03685 0.32774 0.0
H754 H 0.39512 0.1111 0.46216 0.0
H755 H 0.39536 0.10928 0.55973 0.0
C756 C 0.48644 0.26114 0.54479 0.0
C757 C 0.45126 0.25921 0.52607 0.0
C758 C 0.41593 0.19751 0.59189 0.0
C759 C 0.4512 0.2001 0.61299 0.0
N760 N 0.51991 0.23572 0.61791 0.0
N761 N 0.38247 0.22688 0.53337 0.0
C762 C 0.48646 0.23226 0.59141 0.0
C763 C 0.41599 0.22761 0.54974 0.0
N764 N 0.51971 0.29007 0.51587 0.0
N765 N 0.38224 0.16567 0.61065 0.0
H766 H 0.38095 0.24673 0.49827 0.0
H767 H 0.35615 0.20778 0.55683 0.0
H768 H 0.38073 0.14428 0.64568 0.0
H769 H 0.35566 0.15917 0.58917 0.0
H770 H 0.54616 0.2917 0.52089 0.0
H771 H 0.5205 0.31144 0.4817 0.0
H772 H 0.54663 0.25983 0.61072 0.0
H773 H 0.52073 0.21524 0.65232 0.0
C774 C 0.25104 0.41448 0.72277 0.0
C775 C 0.27438 0.44445 0.77301 0.0
C776 C 0.23821 0.47669 0.73953 0.0
C777 C 0.21281 0.44498 0.6945 0.0
N778 N 0.18946 0.37915 0.66173 0.0
N779 N 0.28755 0.50199 0.83675 0.0
C780 C 0.21778 0.41269 0.69088 0.0
C781 C 0.26703 0.47488 0.78391 0.0
N782 N 0.26054 0.38752 0.70491 0.0
N783 N 0.2359 0.50915 0.73739 0.0
H784 H 0.3096 0.50214 0.86796 0.0
H785 H 0.28104 0.52267 0.85339 0.0
H786 H 0.21589 0.51179 0.70444 0.0
H787 H 0.25578 0.53453 0.76292 0.0
H788 H 0.24736 0.36795 0.66149 0.0
H789 H 0.28358 0.38652 0.72899 0.0
H790 H 0.18984 0.3537 0.66512 0.0
H791 H 0.16341 0.37537 0.64219 0.0
C792 C 0.85925 0.23874 0.88103 0.0
C793 C 0.85126 0.26101 0.93117 0.0
C794 C 0.783 0.22347 0.89736 0.0
C795 C 0.79053 0.19861 0.85369 0.0
N796 N 0.83517 0.17782 0.81993 0.0
N797 N 0.80523 0.27257 -0.00639 0.0
C798 C 0.82852 0.20509 0.84931 0.0
C799 C 0.81298 0.25267 0.94147 0.0
N800 N 0.89628 0.24953 0.86369 0.0
N801 N 0.74767 0.22027 0.89413 0.0
H802 H 0.82661 0.2952 0.02414 0.0
H803 H 0.77764 0.2651 0.01016 0.0
H804 H 0.72551 0.20022 0.86064 0.0
H805 H 0.74131 0.23967 0.91884 0.0
H806 H 0.90361 0.23699 0.82067 0.0
H807 H 0.91976 0.27304 0.88774 0.0
H808 H 0.86166 0.17931 0.8228 0.0
H809 H 0.81353 0.15162 0.80038 0.0
C810 C 0.5835 0.82022 0.04263 0.0
C811 C 0.59667 0.82944 0.1187 0.0
C812 C 0.61898 0.78319 0.11357 0.0
C813 C 0.60684 0.77447 0.03724 0.0
N814 N 0.56747 0.77667 0.93712 0.0
N815 N 0.60662 0.80306 0.23307 0.0
C816 C 0.58635 0.79085 0.0038 0.0
C817 C 0.60813 0.8058 0.15637 0.0
N818 N 0.56711 0.83851 0.00761 0.0
N819 N 0.64244 0.77159 0.14495 0.0
H820 H 0.59343 0.81451 0.26564 0.0
H821 H 0.6126 0.78442 0.26275 0.0
H822 H 0.65344 0.75717 0.11507 0.0
H823 H 0.65454 0.78024 0.19836 0.0
H824 H 0.56449 0.83895 0.94932 0.0
H825 H 0.55524 0.85226 0.03698 0.0
H826 H 0.54883 0.78452 0.91321 0.0
H827 H 0.56736 0.75413 0.90892 0.0
C828 C 0.83027 0.62728 0.27784 0.0
C829 C 0.79274 0.59498 0.2791 0.0
C830 C 0.81368 0.5624 0.19035 0.0
C831 C 0.85171 0.59346 0.1944 0.0
N832 N 0.89771 0.6523 0.25351 0.0
N833 N 0.75046 0.5292 0.24685 0.0
C834 C 0.86046 0.62477 0.24211 0.0
C835 C 0.78489 0.5618 0.23797 0.0
N836 N 0.83674 0.66134 0.30594 0.0
N837 N 0.805 0.53362 0.14045 0.0
H838 H 0.7293 0.52737 0.28294 0.0
H839 H 0.74418 0.50306 0.22424 0.0
H840 H 0.82562 0.53245 0.10715 0.0
H841 H 0.77715 0.51233 0.12841 0.0
H842 H 0.86248 0.68672 0.29908 0.0
H843 H 0.81534 0.66539 0.32891 0.0
H844 H 0.90611 0.6733 0.29454 0.0
H845 H 0.92063 0.65219 0.22698 0.0
C846 C 0.24058 0.77601 0.41818 0.0
C847 C 0.20816 0.77881 0.43943 0.0
C848 C 0.23848 0.84372 0.38681 0.0
C849 C 0.26971 0.84004 0.36097 0.0
N850 N 0.29942 0.80187 0.34516 0.0
N851 N 0.1731 0.81259 0.43104 0.0
C852 C 0.27048 0.80591 0.37487 0.0
C853 C 0.20634 0.81198 0.42048 0.0
N854 N 0.24323 0.74525 0.44146 0.0
N855 N 0.23998 0.87808 0.38145 0.0
H856 H 0.1488 0.79032 0.45565 0.0
H857 H 0.16836 0.83379 0.4095 0.0
H858 H 0.26224 0.90175 0.35511 0.0
H859 H 0.2207 0.88407 0.40821 0.0
H860 H 0.26749 0.74282 0.43455 0.0
H861 H 0.22189 0.72305 0.47289 0.0
H862 H 0.30008 0.77657 0.34635 0.0
H863 H 0.32182 0.8234 0.31439 0.0
loop_
_geom_bond_atom_site_label_1
_geom_bond_atom_site_label_2
_geom_bond_distance
_geom_bond_site_symmetry_2
_ccdc_geom_bond_type
Mn0 O5 2.095 . S
Mn0 O15 2.162 . S
Mn0 O16 2.297 . S
Mn0 O24 2.385 . S
Mn0 O25 2.209 . S
Mn0 O26 2.094 . S
Mn1 O6 2.121 . S
Mn1 N8 2.257 . S
Mn1 N17 2.282 . S
Mn1 O25 2.215 . S
Mn1 O27 2.117 . S
C2 O24 1.234 . S
C2 O25 1.283 . S
C3 O15 1.281 . S
C3 O16 1.236 . S
C4 O26 1.240 . S
C4 O27 1.264 . S
O5 Mn0 2.095 . S
O5 C14 1.250 . S
O6 Mn1 2.121 . S
O6 C14 1.258 . S
C7 N8 1.326 . S
C7 C11 1.460 . S
C7 H13 0.929 . S
N8 Mn1 2.257 . S
N8 C7 1.326 . S
N8 C12 1.362 . S
C9 C10 1.258 . S
C9 C12 1.431 . S
C9 C29 1.449 . S
C10 C9 1.258 . S
C10 C11 1.477 . S
C10 H30 0.931 . S
C11 C7 1.460 . S
C11 C10 1.477 . S
C11 H31 0.930 . S
C12 N8 1.362 . S
C12 C9 1.431 . S
C12 C22 1.476 . S
H13 C7 0.929 . S
C14 O5 1.250 . S
C14 O6 1.258 . S
O15 Mn0 2.162 . S
O15 C3 1.281 . S
O16 Mn0 2.297 . S
O16 C3 1.236 . S
N17 Mn1 2.282 . S
N17 C18 1.328 . S
N17 C22 1.318 . S
C18 N17 1.328 . S
C18 C19 1.457 . S
C18 H23 0.929 . S
C19 C18 1.457 . S
C19 C20 1.291 . S
C19 H32 0.931 . S
C20 C19 1.291 . S
C20 C21 1.373 . S
C20 H33 0.929 . S
C21 C20 1.373 . S
C21 C22 1.396 . S
C21 C28 1.403 . S
C22 C12 1.476 . S
C22 N17 1.318 . S
C22 C21 1.396 . S
H23 C18 0.929 . S
O24 Mn0 2.385 . S
O24 C2 1.234 . S
O25 Mn0 2.209 . S
O25 Mn1 2.215 . S
O25 C2 1.283 . S
O26 Mn0 2.094 . S
O26 C4 1.240 . S
O27 Mn1 2.117 . S
O27 C4 1.264 . S
C28 C21 1.403 . S
C28 C29 1.399 . S
C28 H34 0.929 . S
C29 C9 1.449 . S
C29 C28 1.399 . S
C29 H35 0.930 . S
H30 C10 0.931 . S
H31 C11 0.930 . S
H32 C19 0.931 . S
H33 C20 0.929 . S
H34 C28 0.929 . S
H35 C29 0.930 . S
Mn36 O41 2.095 . S
Mn36 O51 2.162 . S
Mn36 O52 2.297 . S
Mn36 O60 2.385 . S
Mn36 O61 2.209 . S
Mn36 O62 2.094 . S
Mn37 O42 2.121 . S
Mn37 N44 2.257 . S
Mn37 N53 2.282 1_455 S
Mn37 O61 2.215 . S
Mn37 O63 2.117 . S
C38 O60 1.234 . S
C38 O61 1.283 . S
C39 O51 1.281 . S
C39 O52 1.236 . S
C40 O62 1.240 . S
C40 O63 1.264 . S
O41 Mn36 2.095 . S
O41 C50 1.250 . S
O42 Mn37 2.121 . S
O42 C50 1.258 . S
C43 N44 1.326 . S
C43 C47 1.460 1_455 S
C43 H49 0.929 . S
N44 Mn37 2.257 . S
N44 C43 1.326 . S
N44 C48 1.362 1_455 S
C45 C46 1.258 . S
C45 C48 1.431 . S
C45 C65 1.449 . S
C46 C45 1.258 . S
C46 C47 1.477 . S
C46 H66 0.931 . S
C47 C43 1.460 1_655 S
C47 C46 1.477 . S
C47 H67 0.930 1_655 S
C48 N44 1.362 1_655 S
C48 C45 1.431 . S
C48 C58 1.476 . S
H49 C43 0.929 . S
C50 O41 1.250 . S
C50 O42 1.258 . S
O51 Mn36 2.162 . S
O51 C39 1.281 . S
O52 Mn36 2.297 . S
O52 C39 1.236 . S
N53 Mn37 2.282 1_655 S
N53 C54 1.328 . S
N53 C58 1.318 . S
C54 N53 1.328 . S
C54 C55 1.457 . S
C54 H59 0.929 . S
C55 C54 1.457 . S
C55 C56 1.291 . S
C55 H68 0.931 . S
C56 C55 1.291 . S
C56 C57 1.373 . S
C56 H69 0.929 . S
C57 C56 1.373 . S
C57 C58 1.396 . S
C57 C64 1.403 . S
C58 C48 1.476 . S
C58 N53 1.318 . S
C58 C57 1.396 . S
H59 C54 0.929 . S
O60 Mn36 2.385 . S
O60 C38 1.234 . S
O61 Mn36 2.209 . S
O61 Mn37 2.215 . S
O61 C38 1.283 . S
O62 Mn36 2.094 . S
O62 C40 1.240 . S
O63 Mn37 2.117 . S
O63 C40 1.264 . S
C64 C57 1.403 . S
C64 C65 1.399 . S
C64 H70 0.929 . S
C65 C45 1.449 . S
C65 C64 1.399 . S
C65 H71 0.930 . S
H66 C46 0.931 . S
H67 C47 0.930 1_455 S
H68 C55 0.931 . S
H69 C56 0.929 . S
H70 C64 0.929 . S
H71 C65 0.930 . S
Mn72 O77 2.095 . S
Mn72 O87 2.162 . S
Mn72 O88 2.297 . S
Mn72 O96 2.385 . S
Mn72 O97 2.209 . S
Mn72 O98 2.094 . S
Mn73 O78 2.121 . S
Mn73 N80 2.257 . S
Mn73 N89 2.282 1_545 S
Mn73 O97 2.215 . S
Mn73 O99 2.117 . S
C74 O96 1.234 . S
C74 O97 1.283 . S
C75 O87 1.281 . S
C75 O88 1.236 . S
C76 O98 1.240 . S
C76 O99 1.264 . S
O77 Mn72 2.095 . S
O77 C86 1.250 . S
O78 Mn73 2.121 . S
O78 C86 1.258 . S
C79 N80 1.326 . S
C79 C83 1.460 1_545 S
C79 H85 0.929 . S
N80 Mn73 2.257 . S
N80 C79 1.326 . S
N80 C84 1.362 1_545 S
C81 C82 1.258 . S
C81 C84 1.431 . S
C81 C101 1.449 . S
C82 C81 1.258 . S
C82 C83 1.477 . S
C82 H102 0.931 1_556 S
C83 C79 1.460 1_565 S
C83 C82 1.477 . S
C83 H103 0.930 1_565 S
C84 N80 1.362 1_565 S
C84 C81 1.431 . S
C84 C94 1.476 . S
H85 C79 0.929 . S
C86 O77 1.250 . S
C86 O78 1.258 . S
O87 Mn72 2.162 . S
O87 C75 1.281 . S
O88 Mn72 2.297 . S
O88 C75 1.236 . S
N89 Mn73 2.282 1_565 S
N89 C90 1.328 . S
N89 C94 1.318 . S
C90 N89 1.328 . S
C90 C91 1.457 . S
C90 H95 0.929 . S
C91 C90 1.457 . S
C91 C92 1.291 . S
C91 H104 0.931 . S
C92 C91 1.291 . S
C92 C93 1.373 . S
C92 H105 0.929 . S
C93 C92 1.373 . S
C93 C94 1.396 . S
C93 C100 1.403 . S
C94 C84 1.476 . S
C94 N89 1.318 . S
C94 C93 1.396 . S
H95 C90 0.929 . S
O96 Mn72 2.385 . S
O96 C74 1.234 . S
O97 Mn72 2.209 . S
O97 Mn73 2.215 . S
O97 C74 1.283 . S
O98 Mn72 2.094 . S
O98 C76 1.240 . S
O99 Mn73 2.117 . S
O99 C76 1.264 . S
C100 C93 1.403 . S
C100 C101 1.399 . S
C100 H106 0.929 . S
C101 C81 1.449 . S
C101 C100 1.399 . S
C101 H107 0.930 1_556 S
H102 C82 0.931 1_554 S
H103 C83 0.930 1_545 S
H104 C91 0.931 . S
H105 C92 0.929 . S
H106 C100 0.929 . S
H107 C101 0.930 1_554 S
Mn108 O113 2.095 . S
Mn108 O123 2.162 . S
Mn108 O124 2.297 1_556 S
Mn108 O132 2.385 1_556 S
Mn108 O133 2.209 1_556 S
Mn108 O134 2.094 . S
Mn109 O114 2.121 . S
Mn109 N116 2.257 1_556 S
Mn109 N125 2.282 . S
Mn109 O133 2.215 1_556 S
Mn109 O135 2.117 . S
C110 O132 1.234 . S
C110 O133 1.283 . S
C111 O123 1.281 . S
C111 O124 1.236 1_556 S
C112 O134 1.240 . S
C112 O135 1.264 . S
O113 Mn108 2.095 . S
O113 C122 1.250 . S
O114 Mn109 2.121 . S
O114 C122 1.258 . S
C115 N116 1.326 . S
C115 C119 1.460 . S
C115 H121 0.929 . S
N116 Mn109 2.257 1_554 S
N116 C115 1.326 . S
N116 C120 1.362 . S
C117 C118 1.258 . S
C117 C120 1.431 . S
C117 C137 1.449 . S
C118 C117 1.258 . S
C118 C119 1.477 . S
C118 H138 0.931 . S
C119 C115 1.460 . S
C119 C118 1.477 . S
C119 H139 0.930 . S
C120 N116 1.362 . S
C120 C117 1.431 . S
C120 C130 1.476 . S
H121 C115 0.929 . S
C122 O113 1.250 . S
C122 O114 1.258 . S
O123 Mn108 2.162 . S
O123 C111 1.281 . S
O124 Mn108 2.297 1_554 S
O124 C111 1.236 1_554 S
N125 Mn109 2.282 . S
N125 C126 1.328 . S
N125 C130 1.318 1_556 S
C126 N125 1.328 . S
C126 C127 1.457 . S
C126 H131 0.929 . S
C127 C126 1.457 . S
C127 C128 1.291 1_556 S
C127 H140 0.931 . S
C128 C127 1.291 1_554 S
C128 C129 1.373 . S
C128 H141 0.929 . S
C129 C128 1.373 . S
C129 C130 1.396 . S
C129 C136 1.403 . S
C130 C120 1.476 . S
C130 N125 1.318 1_554 S
C130 C129 1.396 . S
H131 C126 0.929 . S
O132 Mn108 2.385 1_554 S
O132 C110 1.234 . S
O133 Mn108 2.209 1_554 S
O133 Mn109 2.215 1_554 S
O133 C110 1.283 . S
O134 Mn108 2.094 . S
O134 C112 1.240 . S
O135 Mn109 2.117 . S
O135 C112 1.264 . S
C136 C129 1.403 . S
C136 C137 1.399 . S
C136 H142 0.929 . S
C137 C117 1.449 . S
C137 C136 1.399 . S
C137 H143 0.930 . S
H138 C118 0.931 . S
H139 C119 0.930 . S
H140 C127 0.931 . S
H141 C128 0.929 . S
H142 C136 0.929 . S
H143 C137 0.930 . S
Mn144 O149 2.095 . S
Mn144 O159 2.162 . S
Mn144 O160 2.297 . S
Mn144 O168 2.385 . S
Mn144 O169 2.209 . S
Mn144 O170 2.094 1_554 S
Mn145 O150 2.121 . S
Mn145 N152 2.257 . S
Mn145 N161 2.282 1_655 S
Mn145 O169 2.215 . S
Mn145 O171 2.117 . S
C146 O168 1.234 . S
C146 O169 1.283 . S
C147 O159 1.281 . S
C147 O160 1.236 . S
C148 O170 1.240 . S
C148 O171 1.264 1_556 S
O149 Mn144 2.095 . S
O149 C158 1.250 . S
O150 Mn145 2.121 . S
O150 C158 1.258 . S
C151 N152 1.326 . S
C151 C155 1.460 1_655 S
C151 H157 0.929 . S
N152 Mn145 2.257 . S
N152 C151 1.326 . S
N152 C156 1.362 1_655 S
C153 C154 1.258 . S
C153 C156 1.431 . S
C153 C173 1.449 . S
C154 C153 1.258 . S
C154 C155 1.477 . S
C154 H174 0.931 . S
C155 C151 1.460 1_455 S
C155 C154 1.477 . S
C155 H175 0.930 1_455 S
C156 N152 1.362 1_455 S
C156 C153 1.431 . S
C156 C166 1.476 . S
H157 C151 0.929 . S
C158 O149 1.250 . S
C158 O150 1.258 . S
O159 Mn144 2.162 . S
O159 C147 1.281 . S
O160 Mn144 2.297 . S
O160 C147 1.236 . S
N161 Mn145 2.282 1_455 S
N161 C162 1.328 . S
N161 C166 1.318 . S
C162 N161 1.328 . S
C162 C163 1.457 . S
C162 H167 0.929 . S
C163 C162 1.457 . S
C163 C164 1.291 . S
C163 H176 0.931 . S
C164 C163 1.291 . S
C164 C165 1.373 . S
C164 H177 0.929 . S
C165 C164 1.373 . S
C165 C166 1.396 . S
C165 C172 1.403 . S
C166 C156 1.476 . S
C166 N161 1.318 . S
C166 C165 1.396 . S
H167 C162 0.929 . S
O168 Mn144 2.385 . S
O168 C146 1.234 . S
O169 Mn144 2.209 . S
O169 Mn145 2.215 . S
O169 C146 1.283 . S
O170 Mn144 2.094 1_556 S
O170 C148 1.240 . S
O171 Mn145 2.117 . S
O171 C148 1.264 1_554 S
C172 C165 1.403 . S
C172 C173 1.399 . S
C172 H178 0.929 . S
C173 C153 1.449 . S
C173 C172 1.399 . S
C173 H179 0.930 . S
H174 C154 0.931 . S
H175 C155 0.930 1_655 S
H176 C163 0.931 . S
H177 C164 0.929 . S
H178 C172 0.929 . S
H179 C173 0.930 . S
Mn180 O185 2.095 . S
Mn180 O195 2.162 . S
Mn180 O196 2.297 . S
Mn180 O204 2.385 . S
Mn180 O205 2.209 . S
Mn180 O206 2.094 . S
Mn181 O186 2.121 . S
Mn181 N188 2.257 . S
Mn181 N197 2.282 1_565 S
Mn181 O205 2.215 . S
Mn181 O207 2.117 . S
C182 O204 1.234 . S
C182 O205 1.283 . S
C183 O195 1.281 . S
C183 O196 1.236 . S
C184 O206 1.240 . S
C184 O207 1.264 . S
O185 Mn180 2.095 . S
O185 C194 1.250 . S
O186 Mn181 2.121 . S
O186 C194 1.258 . S
C187 N188 1.326 . S
C187 C191 1.460 1_565 S
C187 H193 0.929 . S
N188 Mn181 2.257 . S
N188 C187 1.326 . S
N188 C192 1.362 1_565 S
C189 C190 1.258 . S
C189 C192 1.431 . S
C189 C209 1.449 . S
C190 C189 1.258 . S
C190 C191 1.477 . S
C190 H210 0.931 . S
C191 C187 1.460 1_545 S
C191 C190 1.477 . S
C191 H211 0.930 1_545 S
C192 N188 1.362 1_545 S
C192 C189 1.431 . S
C192 C202 1.476 . S
H193 C187 0.929 . S
C194 O185 1.250 . S
C194 O186 1.258 . S
O195 Mn180 2.162 . S
O195 C183 1.281 . S
O196 Mn180 2.297 . S
O196 C183 1.236 . S
N197 Mn181 2.282 1_545 S
N197 C198 1.328 . S
N197 C202 1.318 . S
C198 N197 1.328 . S
C198 C199 1.457 . S
C198 H203 0.929 . S
C199 C198 1.457 . S
C199 C200 1.291 . S
C199 H212 0.931 . S
C200 C199 1.291 . S
C200 C201 1.373 . S
C200 H213 0.929 . S
C201 C200 1.373 . S
C201 C202 1.396 . S
C201 C208 1.403 . S
C202 C192 1.476 . S
C202 N197 1.318 . S
C202 C201 1.396 . S
H203 C198 0.929 . S
O204 Mn180 2.385 . S
O204 C182 1.234 . S
O205 Mn180 2.209 . S
O205 Mn181 2.215 . S
O205 C182 1.283 . S
O206 Mn180 2.094 . S
O206 C184 1.240 . S
O207 Mn181 2.117 . S
O207 C184 1.264 . S
C208 C201 1.403 . S
C208 C209 1.399 . S
C208 H214 0.929 . S
C209 C189 1.449 . S
C209 C208 1.399 . S
C209 H215 0.930 . S
H210 C190 0.931 . S
H211 C191 0.930 1_565 S
H212 C199 0.931 . S
H213 C200 0.929 . S
H214 C208 0.929 . S
H215 C209 0.930 . S
Mn216 O221 2.095 . S
Mn216 O231 2.162 . S
Mn216 O232 2.297 . S
Mn216 O240 2.385 . S
Mn216 O241 2.209 . S
Mn216 O242 2.094 . S
Mn217 O222 2.121 . S
Mn217 N224 2.257 . S
Mn217 N233 2.282 . S
Mn217 O241 2.215 . S
Mn217 O243 2.117 . S
C218 O240 1.234 . S
C218 O241 1.283 . S
C219 O231 1.281 . S
C219 O232 1.236 . S
C220 O242 1.240 . S
C220 O243 1.264 . S
O221 Mn216 2.095 . S
O221 C230 1.250 . S
O222 Mn217 2.121 . S
O222 C230 1.258 . S
C223 N224 1.326 . S
C223 C227 1.460 . S
C223 H229 0.929 . S
N224 Mn217 2.257 . S
N224 C223 1.326 . S
N224 C228 1.362 . S
C225 C226 1.258 . S
C225 C228 1.431 . S
C225 C245 1.449 . S
C226 C225 1.258 . S
C226 C227 1.477 . S
C226 H246 0.931 . S
C227 C223 1.460 . S
C227 C226 1.477 . S
C227 H247 0.930 . S
C228 N224 1.362 . S
C228 C225 1.431 . S
C228 C238 1.476 . S
H229 C223 0.929 . S
C230 O221 1.250 . S
C230 O222 1.258 . S
O231 Mn216 2.162 . S
O231 C219 1.281 . S
O232 Mn216 2.297 . S
O232 C219 1.236 . S
N233 Mn217 2.282 . S
N233 C234 1.328 . S
N233 C238 1.318 . S
C234 N233 1.328 . S
C234 C235 1.457 . S
C234 H239 0.929 . S
C235 C234 1.457 . S
C235 C236 1.291 . S
C235 H248 0.931 . S
C236 C235 1.291 . S
C236 C237 1.373 . S
C236 H249 0.929 . S
C237 C236 1.373 . S
C237 C238 1.396 . S
C237 C244 1.403 . S
C238 C228 1.476 . S
C238 N233 1.318 . S
C238 C237 1.396 . S
H239 C234 0.929 . S
O240 Mn216 2.385 . S
O240 C218 1.234 . S
O241 Mn216 2.209 . S
O241 Mn217 2.215 . S
O241 C218 1.283 . S
O242 Mn216 2.094 . S
O242 C220 1.240 . S
O243 Mn217 2.117 . S
O243 C220 1.264 . S
C244 C237 1.403 . S
C244 C245 1.399 . S
C244 H250 0.929 . S
C245 C225 1.449 . S
C245 C244 1.399 . S
C245 H251 0.930 . S
H246 C226 0.931 . S
H247 C227 0.930 . S
H248 C235 0.931 . S
H249 C236 0.929 . S
H250 C244 0.929 . S
H251 C245 0.930 . S
Mn252 O257 2.095 . S
Mn252 O267 2.162 . S
Mn252 O268 2.297 . S
Mn252 O276 2.385 . S
Mn252 O277 2.209 . S
Mn252 O278 2.094 . S
Mn253 O258 2.121 . S
Mn253 N260 2.257 . S
Mn253 N269 2.282 1_455 S
Mn253 O277 2.215 . S
Mn253 O279 2.117 . S
C254 O276 1.234 . S
C254 O277 1.283 . S
C255 O267 1.281 . S
C255 O268 1.236 . S
C256 O278 1.240 . S
C256 O279 1.264 . S
O257 Mn252 2.095 . S
O257 C266 1.250 . S
O258 Mn253 2.121 . S
O258 C266 1.258 . S
C259 N260 1.326 . S
C259 C263 1.460 1_455 S
C259 H265 0.929 . S
N260 Mn253 2.257 . S
N260 C259 1.326 . S
N260 C264 1.362 1_455 S
C261 C262 1.258 . S
C261 C264 1.431 . S
C261 C281 1.449 . S
C262 C261 1.258 . S
C262 C263 1.477 . S
C262 H282 0.931 . S
C263 C259 1.460 1_655 S
C263 C262 1.477 . S
C263 H283 0.930 1_655 S
C264 N260 1.362 1_655 S
C264 C261 1.431 . S
C264 C274 1.476 . S
H265 C259 0.929 . S
C266 O257 1.250 . S
C266 O258 1.258 . S
O267 Mn252 2.162 . S
O267 C255 1.281 . S
O268 Mn252 2.297 . S
O268 C255 1.236 . S
N269 Mn253 2.282 1_655 S
N269 C270 1.328 . S
N269 C274 1.318 . S
C270 N269 1.328 . S
C270 C271 1.457 . S
C270 H275 0.929 . S
C271 C270 1.457 . S
C271 C272 1.291 . S
C271 H284 0.931 . S
C272 C271 1.291 . S
C272 C273 1.373 . S
C272 H285 0.929 . S
C273 C272 1.373 . S
C273 C274 1.396 . S
C273 C280 1.403 . S
C274 C264 1.476 . S
C274 N269 1.318 . S
C274 C273 1.396 . S
H275 C270 0.929 . S
O276 Mn252 2.385 . S
O276 C254 1.234 . S
O277 Mn252 2.209 . S
O277 Mn253 2.215 . S
O277 C254 1.283 . S
O278 Mn252 2.094 . S
O278 C256 1.240 . S
O279 Mn253 2.117 . S
O279 C256 1.264 . S
C280 C273 1.403 . S
C280 C281 1.399 . S
C280 H286 0.929 . S
C281 C261 1.449 . S
C281 C280 1.399 . S
C281 H287 0.930 . S
H282 C262 0.931 . S
H283 C263 0.930 1_455 S
H284 C271 0.931 . S
H285 C272 0.929 . S
H286 C280 0.929 . S
H287 C281 0.930 . S
Mn288 O293 2.095 . S
Mn288 O303 2.162 . S
Mn288 O304 2.297 . S
Mn288 O312 2.385 . S
Mn288 O313 2.209 . S
Mn288 O314 2.094 . S
Mn289 O294 2.121 . S
Mn289 N296 2.257 . S
Mn289 N305 2.282 1_545 S
Mn289 O313 2.215 . S
Mn289 O315 2.117 . S
C290 O312 1.234 . S
C290 O313 1.283 . S
C291 O303 1.281 . S
C291 O304 1.236 . S
C292 O314 1.240 . S
C292 O315 1.264 . S
O293 Mn288 2.095 . S
O293 C302 1.250 . S
O294 Mn289 2.121 . S
O294 C302 1.258 . S
C295 N296 1.326 . S
C295 C299 1.460 1_545 S
C295 H301 0.929 . S
N296 Mn289 2.257 . S
N296 C295 1.326 . S
N296 C300 1.362 1_545 S
C297 C298 1.258 . S
C297 C300 1.431 . S
C297 C317 1.449 . S
C298 C297 1.258 . S
C298 C299 1.477 . S
C298 H318 0.931 . S
C299 C295 1.460 1_565 S
C299 C298 1.477 . S
C299 H319 0.930 1_565 S
C300 N296 1.362 1_565 S
C300 C297 1.431 . S
C300 C310 1.476 . S
H301 C295 0.929 . S
C302 O293 1.250 . S
C302 O294 1.258 . S
O303 Mn288 2.162 . S
O303 C291 1.281 . S
O304 Mn288 2.297 . S
O304 C291 1.236 . S
N305 Mn289 2.282 1_565 S
N305 C306 1.328 . S
N305 C310 1.318 . S
C306 N305 1.328 . S
C306 C307 1.457 . S
C306 H311 0.929 . S
C307 C306 1.457 . S
C307 C308 1.291 . S
C307 H320 0.931 . S
C308 C307 1.291 . S
C308 C309 1.373 . S
C308 H321 0.929 . S
C309 C308 1.373 . S
C309 C310 1.396 . S
C309 C316 1.403 . S
C310 C300 1.476 . S
C310 N305 1.318 . S
C310 C309 1.396 . S
H311 C306 0.929 . S
O312 Mn288 2.385 . S
O312 C290 1.234 . S
O313 Mn288 2.209 . S
O313 Mn289 2.215 . S
O313 C290 1.283 . S
O314 Mn288 2.094 . S
O314 C292 1.240 . S
O315 Mn289 2.117 . S
O315 C292 1.264 . S
C316 C309 1.403 . S
C316 C317 1.399 . S
C316 H322 0.929 . S
C317 C297 1.449 . S
C317 C316 1.399 . S
C317 H323 0.930 . S
H318 C298 0.931 . S
H319 C299 0.930 1_545 S
H320 C307 0.931 . S
H321 C308 0.929 . S
H322 C316 0.929 . S
H323 C317 0.930 . S
Mn324 O329 2.095 . S
Mn324 O339 2.162 . S
Mn324 O340 2.297 . S
Mn324 O348 2.385 . S
Mn324 O349 2.209 . S
Mn324 O350 2.094 1_556 S
Mn325 O330 2.121 . S
Mn325 N332 2.257 . S
Mn325 N341 2.282 . S
Mn325 O349 2.215 . S
Mn325 O351 2.117 . S
C326 O348 1.234 . S
C326 O349 1.283 . S
C327 O339 1.281 . S
C327 O340 1.236 . S
C328 O350 1.240 . S
C328 O351 1.264 1_554 S
O329 Mn324 2.095 . S
O329 C338 1.250 . S
O330 Mn325 2.121 . S
O330 C338 1.258 . S
C331 N332 1.326 . S
C331 C335 1.460 . S
C331 H337 0.929 . S
N332 Mn325 2.257 . S
N332 C331 1.326 . S
N332 C336 1.362 . S
C333 C334 1.258 . S
C333 C336 1.431 . S
C333 C353 1.449 . S
C334 C333 1.258 . S
C334 C335 1.477 . S
C334 H354 0.931 . S
C335 C331 1.460 . S
C335 C334 1.477 . S
C335 H355 0.930 . S
C336 N332 1.362 . S
C336 C333 1.431 . S
C336 C346 1.476 . S
H337 C331 0.929 . S
C338 O329 1.250 . S
C338 O330 1.258 . S
O339 Mn324 2.162 . S
O339 C327 1.281 . S
O340 Mn324 2.297 . S
O340 C327 1.236 . S
N341 Mn325 2.282 . S
N341 C342 1.328 . S
N341 C346 1.318 . S
C342 N341 1.328 . S
C342 C343 1.457 . S
C342 H347 0.929 . S
C343 C342 1.457 . S
C343 C344 1.291 . S
C343 H356 0.931 . S
C344 C343 1.291 . S
C344 C345 1.373 . S
C344 H357 0.929 . S
C345 C344 1.373 . S
C345 C346 1.396 . S
C345 C352 1.403 . S
C346 C336 1.476 . S
C346 N341 1.318 . S
C346 C345 1.396 . S
H347 C342 0.929 . S
O348 Mn324 2.385 . S
O348 C326 1.234 . S
O349 Mn324 2.209 . S
O349 Mn325 2.215 . S
O349 C326 1.283 . S
O350 Mn324 2.094 1_554 S
O350 C328 1.240 . S
O351 Mn325 2.117 . S
O351 C328 1.264 1_556 S
C352 C345 1.403 . S
C352 C353 1.399 . S
C352 H358 0.929 . S
C353 C333 1.449 . S
C353 C352 1.399 . S
C353 H359 0.930 . S
H354 C334 0.931 . S
H355 C335 0.930 . S
H356 C343 0.931 . S
H357 C344 0.929 . S
H358 C352 0.929 . S
H359 C353 0.930 . S
Mn360 O365 2.095 . S
Mn360 O375 2.162 . S
Mn360 O376 2.297 1_554 S
Mn360 O384 2.385 1_554 S
Mn360 O385 2.209 1_554 S
Mn360 O386 2.094 . S
Mn361 O366 2.121 . S
Mn361 N368 2.257 1_554 S
Mn361 N377 2.282 1_655 S
Mn361 O385 2.215 1_554 S
Mn361 O387 2.117 . S
C362 O384 1.234 . S
C362 O385 1.283 . S
C363 O375 1.281 . S
C363 O376 1.236 1_554 S
C364 O386 1.240 . S
C364 O387 1.264 . S
O365 Mn360 2.095 . S
O365 C374 1.250 . S
O366 Mn361 2.121 . S
O366 C374 1.258 . S
C367 N368 1.326 . S
C367 C371 1.460 1_655 S
C367 H373 0.929 . S
N368 Mn361 2.257 1_556 S
N368 C367 1.326 . S
N368 C372 1.362 1_655 S
C369 C370 1.258 . S
C369 C372 1.431 . S
C369 C389 1.449 . S
C370 C369 1.258 . S
C370 C371 1.477 . S
C370 H390 0.931 . S
C371 C367 1.460 1_455 S
C371 C370 1.477 . S
C371 H391 0.930 1_455 S
C372 N368 1.362 1_455 S
C372 C369 1.431 . S
C372 C382 1.476 . S
H373 C367 0.929 . S
C374 O365 1.250 . S
C374 O366 1.258 . S
O375 Mn360 2.162 . S
O375 C363 1.281 . S
O376 Mn360 2.297 1_556 S
O376 C363 1.236 1_556 S
N377 Mn361 2.282 1_455 S
N377 C378 1.328 . S
N377 C382 1.318 1_554 S
C378 N377 1.328 . S
C378 C379 1.457 . S
C378 H383 0.929 . S
C379 C378 1.457 . S
C379 C380 1.291 1_554 S
C379 H392 0.931 . S
C380 C379 1.291 1_556 S
C380 C381 1.373 . S
C380 H393 0.929 . S
C381 C380 1.373 . S
C381 C382 1.396 . S
C381 C388 1.403 . S
C382 C372 1.476 . S
C382 N377 1.318 1_556 S
C382 C381 1.396 . S
H383 C378 0.929 . S
O384 Mn360 2.385 1_556 S
O384 C362 1.234 . S
O385 Mn360 2.209 1_556 S
O385 Mn361 2.215 1_556 S
O385 C362 1.283 . S
O386 Mn360 2.094 . S
O386 C364 1.240 . S
O387 Mn361 2.117 . S
O387 C364 1.264 . S
C388 C381 1.403 . S
C388 C389 1.399 . S
C388 H394 0.929 . S
C389 C369 1.449 . S
C389 C388 1.399 . S
C389 H395 0.930 . S
H390 C370 0.931 . S
H391 C371 0.930 1_655 S
H392 C379 0.931 . S
H393 C380 0.929 . S
H394 C388 0.929 . S
H395 C389 0.930 . S
Mn396 O401 2.095 . S
Mn396 O411 2.162 . S
Mn396 O412 2.297 . S
Mn396 O420 2.385 . S
Mn396 O421 2.209 . S
Mn396 O422 2.094 . S
Mn397 O402 2.121 . S
Mn397 N404 2.257 . S
Mn397 N413 2.282 1_565 S
Mn397 O421 2.215 . S
Mn397 O423 2.117 . S
C398 O420 1.234 . S
C398 O421 1.283 . S
C399 O411 1.281 . S
C399 O412 1.236 . S
C400 O422 1.240 . S
C400 O423 1.264 . S
O401 Mn396 2.095 . S
O401 C410 1.250 . S
O402 Mn397 2.121 . S
O402 C410 1.258 . S
C403 N404 1.326 . S
C403 C407 1.460 1_565 S
C403 H409 0.929 . S
N404 Mn397 2.257 . S
N404 C403 1.326 . S
N404 C408 1.362 1_565 S
C405 C406 1.258 . S
C405 C408 1.431 . S
C405 C425 1.449 . S
C406 C405 1.258 . S
C406 C407 1.477 . S
C406 H426 0.931 1_554 S
C407 C403 1.460 1_545 S
C407 C406 1.477 . S
C407 H427 0.930 1_545 S
C408 N404 1.362 1_545 S
C408 C405 1.431 . S
C408 C418 1.476 . S
H409 C403 0.929 . S
C410 O401 1.250 . S
C410 O402 1.258 . S
O411 Mn396 2.162 . S
O411 C399 1.281 . S
O412 Mn396 2.297 . S
O412 C399 1.236 . S
N413 Mn397 2.282 1_545 S
N413 C414 1.328 . S
N413 C418 1.318 . S
C414 N413 1.328 . S
C414 C415 1.457 . S
C414 H419 0.929 . S
C415 C414 1.457 . S
C415 C416 1.291 . S
C415 H428 0.931 . S
C416 C415 1.291 . S
C416 C417 1.373 . S
C416 H429 0.929 . S
C417 C416 1.373 . S
C417 C418 1.396 . S
C417 C424 1.403 . S
C418 C408 1.476 . S
C418 N413 1.318 . S
C418 C417 1.396 . S
H419 C414 0.929 . S
O420 Mn396 2.385 . S
O420 C398 1.234 . S
O421 Mn396 2.209 . S
O421 Mn397 2.215 . S
O421 C398 1.283 . S
O422 Mn396 2.094 . S
O422 C400 1.240 . S
O423 Mn397 2.117 . S
O423 C400 1.264 . S
C424 C417 1.403 . S
C424 C425 1.399 . S
C424 H430 0.929 . S
C425 C405 1.449 . S
C425 C424 1.399 . S
C425 H431 0.930 1_554 S
H426 C406 0.931 1_556 S
H427 C407 0.930 1_565 S
H428 C415 0.931 . S
H429 C416 0.929 . S
H430 C424 0.929 . S
H431 C425 0.930 1_556 S
C432 C433 1.363 . S
C432 C438 1.379 . S
C432 N440 1.356 . S
C433 C432 1.363 . S
C433 C439 1.363 . S
C434 C435 1.363 . S
C434 C439 1.379 . S
C434 N441 1.356 . S
C435 C434 1.363 . S
C435 C438 1.363 . S
N436 C438 1.356 . S
N436 H448 0.984 . S
N436 H449 0.985 . S
N437 C439 1.356 . S
N437 H442 0.984 . S
N437 H443 0.985 . S
C438 C432 1.379 . S
C438 C435 1.363 . S
C438 N436 1.356 . S
C439 C433 1.363 . S
C439 C434 1.379 . S
C439 N437 1.356 . S
N440 C432 1.356 . S
N440 H446 0.984 . S
N440 H447 0.984 . S
N441 C434 1.356 . S
N441 H444 0.984 . S
N441 H445 0.985 . S
H442 N437 0.984 . S
H443 N437 0.985 . S
H444 N441 0.984 . S
H445 N441 0.985 . S
H446 N440 0.984 . S
H447 N440 0.984 . S
H448 N436 0.984 . S
H449 N436 0.985 . S
C450 C451 1.363 . S
C450 C456 1.379 1_455 S
C450 N458 1.356 . S
C451 C450 1.363 . S
C451 C457 1.363 . S
C452 C453 1.363 . S
C452 C457 1.379 1_655 S
C452 N459 1.356 . S
C453 C452 1.363 . S
C453 C456 1.363 . S
N454 C456 1.356 . S
N454 H466 0.984 . S
N454 H467 0.985 . S
N455 C457 1.356 . S
N455 H460 0.984 . S
N455 H461 0.985 . S
C456 C450 1.379 1_655 S
C456 C453 1.363 . S
C456 N454 1.356 . S
C457 C451 1.363 . S
C457 C452 1.379 1_455 S
C457 N455 1.356 . S
N458 C450 1.356 . S
N458 H464 0.984 . S
N458 H465 0.984 . S
N459 C452 1.356 . S
N459 H462 0.984 . S
N459 H463 0.985 . S
H460 N455 0.984 . S
H461 N455 0.985 . S
H462 N459 0.984 . S
H463 N459 0.985 . S
H464 N458 0.984 . S
H465 N458 0.984 . S
H466 N454 0.984 . S
H467 N454 0.985 . S
C468 C469 1.363 1_545 S
C468 C474 1.379 . S
C468 N476 1.356 . S
C469 C468 1.363 1_565 S
C469 C475 1.363 . S
C470 C471 1.363 1_565 S
C470 C475 1.379 . S
C470 N477 1.356 . S
C471 C470 1.363 1_545 S
C471 C474 1.363 . S
N472 C474 1.356 . S
N472 H484 0.984 . S
N472 H485 0.985 . S
N473 C475 1.356 . S
N473 H478 0.984 . S
N473 H479 0.985 . S
C474 C468 1.379 . S
C474 C471 1.363 . S
C474 N472 1.356 . S
C475 C469 1.363 . S
C475 C470 1.379 . S
C475 N473 1.356 . S
N476 C468 1.356 . S
N476 H482 0.984 . S
N476 H483 0.984 1_545 S
N477 C470 1.356 . S
N477 H480 0.984 1_565 S
N477 H481 0.985 . S
H478 N473 0.984 . S
H479 N473 0.985 . S
H480 N477 0.984 1_545 S
H481 N477 0.985 . S
H482 N476 0.984 . S
H483 N476 0.984 1_565 S
H484 N472 0.984 . S
H485 N472 0.985 . S
C486 C487 1.363 . S
C486 C492 1.379 . S
C486 N494 1.356 . S
C487 C486 1.363 . S
C487 C493 1.363 . S
C488 C489 1.363 . S
C488 C493 1.379 . S
C488 N495 1.356 . S
C489 C488 1.363 . S
C489 C492 1.363 . S
N490 C492 1.356 . S
N490 H502 0.984 . S
N490 H503 0.985 . S
N491 C493 1.356 . S
N491 H496 0.984 . S
N491 H497 0.985 . S
C492 C486 1.379 . S
C492 C489 1.363 . S
C492 N490 1.356 . S
C493 C487 1.363 . S
C493 C488 1.379 . S
C493 N491 1.356 . S
N494 C486 1.356 . S
N494 H500 0.984 . S
N494 H501 0.984 . S
N495 C488 1.356 . S
N495 H498 0.984 . S
N495 H499 0.985 . S
H496 N491 0.984 . S
H497 N491 0.985 . S
H498 N495 0.984 . S
H499 N495 0.985 . S
H500 N494 0.984 . S
H501 N494 0.984 . S
H502 N490 0.984 . S
H503 N490 0.985 . S
C504 C505 1.363 1_655 S
C504 C510 1.379 . S
C504 N512 1.356 . S
C505 C504 1.363 1_455 S
C505 C511 1.363 . S
C506 C507 1.363 1_455 S
C506 C511 1.379 . S
C506 N513 1.356 . S
C507 C506 1.363 1_655 S
C507 C510 1.363 . S
N508 C510 1.356 . S
N508 H520 0.984 . S
N508 H521 0.985 . S
N509 C511 1.356 . S
N509 H514 0.984 . S
N509 H515 0.985 . S
C510 C504 1.379 . S
C510 C507 1.363 . S
C510 N508 1.356 . S
C511 C505 1.363 . S
C511 C506 1.379 . S
C511 N509 1.356 . S
N512 C504 1.356 . S
N512 H518 0.984 . S
N512 H519 0.984 1_655 S
N513 C506 1.356 . S
N513 H516 0.984 1_456 S
N513 H517 0.985 1_556 S
H514 N509 0.984 . S
H515 N509 0.985 . S
H516 N513 0.984 1_654 S
H517 N513 0.985 1_554 S
H518 N512 0.984 . S
H519 N512 0.984 1_455 S
H520 N508 0.984 . S
H521 N508 0.985 . S
C522 C523 1.363 . S
C522 C528 1.379 1_546 S
C522 N530 1.356 . S
C523 C522 1.363 . S
C523 C529 1.363 . S
C524 C525 1.363 . S
C524 C529 1.379 1_564 S
C524 N531 1.356 . S
C525 C524 1.363 . S
C525 C528 1.363 . S
N526 C528 1.356 . S
N526 H538 0.984 . S
N526 H539 0.985 . S
N527 C529 1.356 . S
N527 H532 0.984 . S
N527 H533 0.985 . S
C528 C522 1.379 1_564 S
C528 C525 1.363 . S
C528 N526 1.356 . S
C529 C523 1.363 . S
C529 C524 1.379 1_546 S
C529 N527 1.356 . S
N530 C522 1.356 . S
N530 H536 0.984 . S
N530 H537 0.984 . S
N531 C524 1.356 . S
N531 H534 0.984 . S
N531 H535 0.985 . S
H532 N527 0.984 . S
H533 N527 0.985 . S
H534 N531 0.984 . S
H535 N531 0.985 . S
H536 N530 0.984 . S
H537 N530 0.984 . S
H538 N526 0.984 . S
H539 N526 0.985 . S
C540 C541 1.363 . S
C540 C546 1.379 . S
C540 N548 1.356 . S
C541 C540 1.363 . S
C541 C547 1.363 . S
C542 C543 1.363 . S
C542 C547 1.379 . S
C542 N549 1.356 . S
C543 C542 1.363 . S
C543 C546 1.363 . S
N544 C546 1.356 . S
N544 H556 0.984 . S
N544 H557 0.985 . S
N545 C547 1.356 . S
N545 H550 0.984 . S
N545 H551 0.985 . S
C546 C540 1.379 . S
C546 C543 1.363 . S
C546 N544 1.356 . S
C547 C541 1.363 . S
C547 C542 1.379 . S
C547 N545 1.356 . S
N548 C540 1.356 . S
N548 H554 0.984 . S
N548 H555 0.984 . S
N549 C542 1.356 . S
N549 H552 0.984 . S
N549 H553 0.985 . S
H550 N545 0.984 . S
H551 N545 0.985 . S
H552 N549 0.984 . S
H553 N549 0.985 . S
H554 N548 0.984 . S
H555 N548 0.984 . S
H556 N544 0.984 . S
H557 N544 0.985 . S
C558 C559 1.363 . S
C558 C564 1.379 . S
C558 N566 1.356 . S
C559 C558 1.363 . S
C559 C565 1.363 . S
C560 C561 1.363 . S
C560 C565 1.379 . S
C560 N567 1.356 . S
C561 C560 1.363 . S
C561 C564 1.363 . S
N562 C564 1.356 . S
N562 H574 0.984 . S
N562 H575 0.985 . S
N563 C565 1.356 . S
N563 H568 0.984 . S
N563 H569 0.985 . S
C564 C558 1.379 . S
C564 C561 1.363 . S
C564 N562 1.356 . S
C565 C559 1.363 . S
C565 C560 1.379 . S
C565 N563 1.356 . S
N566 C558 1.356 . S
N566 H572 0.984 . S
N566 H573 0.984 . S
N567 C560 1.356 . S
N567 H570 0.984 . S
N567 H571 0.985 . S
H568 N563 0.984 . S
H569 N563 0.985 . S
H570 N567 0.984 . S
H571 N567 0.985 . S
H572 N566 0.984 . S
H573 N566 0.984 . S
H574 N562 0.984 . S
H575 N562 0.985 . S
C576 C577 1.363 . S
C576 C582 1.379 . S
C576 N584 1.356 . S
C577 C576 1.363 . S
C577 C583 1.363 . S
C578 C579 1.363 . S
C578 C583 1.379 . S
C578 N585 1.356 . S
C579 C578 1.363 . S
C579 C582 1.363 . S
N580 C582 1.356 . S
N580 H592 0.984 . S
N580 H593 0.985 . S
N581 C583 1.356 . S
N581 H586 0.984 . S
N581 H587 0.985 . S
C582 C576 1.379 . S
C582 C579 1.363 . S
C582 N580 1.356 . S
C583 C577 1.363 . S
C583 C578 1.379 . S
C583 N581 1.356 . S
N584 C576 1.356 . S
N584 H590 0.984 . S
N584 H591 0.984 . S
N585 C578 1.356 . S
N585 H588 0.984 . S
N585 H589 0.985 . S
H586 N581 0.984 . S
H587 N581 0.985 . S
H588 N585 0.984 . S
H589 N585 0.985 . S
H590 N584 0.984 . S
H591 N584 0.984 . S
H592 N580 0.984 . S
H593 N580 0.985 . S
C594 C595 1.363 . S
C594 C600 1.379 . S
C594 N602 1.356 1_556 S
C595 C594 1.363 . S
C595 C601 1.363 . S
C596 C597 1.363 . S
C596 C601 1.379 . S
C596 N603 1.356 . S
C597 C596 1.363 . S
C597 C600 1.363 . S
N598 C600 1.356 1_554 S
N598 H610 0.984 . S
N598 H611 0.985 . S
N599 C601 1.356 . S
N599 H604 0.984 . S
N599 H605 0.985 . S
C600 C594 1.379 . S
C600 C597 1.363 . S
C600 N598 1.356 1_556 S
C601 C595 1.363 . S
C601 C596 1.379 . S
C601 N599 1.356 . S
N602 C594 1.356 1_554 S
N602 H608 0.984 . S
N602 H609 0.984 1_554 S
N603 C596 1.356 . S
N603 H606 0.984 . S
N603 H607 0.985 . S
H604 N599 0.984 . S
H605 N599 0.985 . S
H606 N603 0.984 . S
H607 N603 0.985 . S
H608 N602 0.984 . S
H609 N602 0.984 1_556 S
H610 N598 0.984 . S
H611 N598 0.985 . S
C612 C613 1.363 . S
C612 C618 1.379 . S
C612 N620 1.356 1_554 S
C613 C612 1.363 . S
C613 C619 1.363 . S
C614 C615 1.363 . S
C614 C619 1.379 . S
C614 N621 1.356 . S
C615 C614 1.363 . S
C615 C618 1.363 . S
N616 C618 1.356 1_556 S
N616 H628 0.984 . S
N616 H629 0.985 . S
N617 C619 1.356 . S
N617 H622 0.984 . S
N617 H623 0.985 . S
C618 C612 1.379 . S
C618 C615 1.363 . S
C618 N616 1.356 1_554 S
C619 C613 1.363 . S
C619 C614 1.379 . S
C619 N617 1.356 . S
N620 C612 1.356 1_556 S
N620 H626 0.984 . S
N620 H627 0.984 . S
N621 C614 1.356 . S
N621 H624 0.984 . S
N621 H625 0.985 . S
H622 N617 0.984 . S
H623 N617 0.985 . S
H624 N621 0.984 . S
H625 N621 0.985 . S
H626 N620 0.984 . S
H627 N620 0.984 . S
H628 N616 0.984 . S
H629 N616 0.985 . S
C630 C631 1.363 . S
C630 C636 1.379 . S
C630 N638 1.356 . S
C631 C630 1.363 . S
C631 C637 1.363 . S
C632 C633 1.363 . S
C632 C637 1.379 . S
C632 N639 1.356 . S
C633 C632 1.363 . S
C633 C636 1.363 . S
N634 C636 1.356 . S
N634 H646 0.984 . S
N634 H647 0.985 . S
N635 C637 1.356 . S
N635 H640 0.984 . S
N635 H641 0.985 . S
C636 C630 1.379 . S
C636 C633 1.363 . S
C636 N634 1.356 . S
C637 C631 1.363 . S
C637 C632 1.379 . S
C637 N635 1.356 . S
N638 C630 1.356 . S
N638 H644 0.984 . S
N638 H645 0.984 . S
N639 C632 1.356 . S
N639 H642 0.984 . S
N639 H643 0.985 . S
H640 N635 0.984 . S
H641 N635 0.985 . S
H642 N639 0.984 . S
H643 N639 0.985 . S
H644 N638 0.984 . S
H645 N638 0.984 . S
H646 N634 0.984 . S
H647 N634 0.985 . S
C648 C649 1.363 . S
C648 C654 1.379 . S
C648 N656 1.356 . S
C649 C648 1.363 . S
C649 C655 1.363 . S
C650 C651 1.363 . S
C650 C655 1.379 . S
C650 N657 1.356 . S
C651 C650 1.363 . S
C651 C654 1.363 . S
N652 C654 1.356 . S
N652 H664 0.984 . S
N652 H665 0.985 . S
N653 C655 1.356 . S
N653 H658 0.984 . S
N653 H659 0.985 . S
C654 C648 1.379 . S
C654 C651 1.363 . S
C654 N652 1.356 . S
C655 C649 1.363 . S
C655 C650 1.379 . S
C655 N653 1.356 . S
N656 C648 1.356 . S
N656 H662 0.984 . S
N656 H663 0.984 . S
N657 C650 1.356 . S
N657 H660 0.984 . S
N657 H661 0.985 . S
H658 N653 0.984 . S
H659 N653 0.985 . S
H660 N657 0.984 . S
H661 N657 0.985 . S
H662 N656 0.984 . S
H663 N656 0.984 . S
H664 N652 0.984 . S
H665 N652 0.985 . S
C666 C667 1.363 . S
C666 C672 1.379 1_655 S
C666 N674 1.356 . S
C667 C666 1.363 . S
C667 C673 1.363 . S
C668 C669 1.363 . S
C668 C673 1.379 1_455 S
C668 N675 1.356 . S
C669 C668 1.363 . S
C669 C672 1.363 . S
N670 C672 1.356 . S
N670 H682 0.984 . S
N670 H683 0.985 . S
N671 C673 1.356 . S
N671 H676 0.984 . S
N671 H677 0.985 . S
C672 C666 1.379 1_455 S
C672 C669 1.363 . S
C672 N670 1.356 . S
C673 C667 1.363 . S
C673 C668 1.379 1_655 S
C673 N671 1.356 . S
N674 C666 1.356 . S
N674 H680 0.984 . S
N674 H681 0.984 . S
N675 C668 1.356 . S
N675 H678 0.984 . S
N675 H679 0.985 . S
H676 N671 0.984 . S
H677 N671 0.985 . S
H678 N675 0.984 . S
H679 N675 0.985 . S
H680 N674 0.984 . S
H681 N674 0.984 . S
H682 N670 0.984 . S
H683 N670 0.985 . S
C684 C685 1.363 1_556 S
C684 C690 1.379 . S
C684 N692 1.358 . S
C685 C684 1.363 1_554 S
C685 C691 1.363 1_565 S
C686 C687 1.363 1_554 S
C686 C691 1.379 . S
C686 N693 1.358 . S
C687 C686 1.363 1_556 S
C687 C690 1.363 1_545 S
N688 C690 1.356 . S
N688 H700 0.984 . S
N688 H701 0.985 1_565 S
N689 C691 1.356 . S
N689 H694 0.984 1_545 S
N689 H695 0.985 . S
C690 C684 1.379 . S
C690 C687 1.363 1_565 S
C690 N688 1.356 . S
C691 C685 1.363 1_545 S
C691 C686 1.379 . S
C691 N689 1.356 . S
N692 C684 1.358 . S
N692 H698 0.994 . S
N692 H699 0.973 1_556 S
N693 C686 1.358 . S
N693 H696 0.973 1_554 S
N693 H697 0.995 . S
H694 N689 0.984 1_565 S
H695 N689 0.985 . S
H696 N693 0.973 1_556 S
H697 N693 0.995 . S
H698 N692 0.994 . S
H699 N692 0.973 1_554 S
H700 N688 0.984 . S
H701 N688 0.985 1_545 S
C702 C703 1.363 . S
C702 C708 1.379 . S
C702 N710 1.356 . S
C703 C702 1.363 . S
C703 C709 1.363 . S
C704 C705 1.363 . S
C704 C709 1.379 . S
C704 N711 1.356 . S
C705 C704 1.363 . S
C705 C708 1.363 . S
N706 C708 1.356 . S
N706 H718 0.984 . S
N706 H719 0.985 . S
N707 C709 1.356 . S
N707 H712 0.984 . S
N707 H713 0.985 . S
C708 C702 1.379 . S
C708 C705 1.363 . S
C708 N706 1.356 . S
C709 C703 1.363 . S
C709 C704 1.379 . S
C709 N707 1.356 . S
N710 C702 1.356 . S
N710 H716 0.984 . S
N710 H717 0.984 . S
N711 C704 1.356 . S
N711 H714 0.984 . S
N711 H715 0.985 . S
H712 N707 0.984 . S
H713 N707 0.985 . S
H714 N711 0.984 . S
H715 N711 0.985 . S
H716 N710 0.984 . S
H717 N710 0.984 . S
H718 N706 0.984 . S
H719 N706 0.985 . S
C720 C721 1.363 . S
C720 C726 1.379 1_455 S
C720 N728 1.356 . S
C721 C720 1.363 . S
C721 C727 1.363 . S
C722 C723 1.363 . S
C722 C727 1.379 1_655 S
C722 N729 1.356 . S
C723 C722 1.363 . S
C723 C726 1.363 . S
N724 C726 1.356 . S
N724 H736 0.984 . S
N724 H737 0.985 . S
N725 C727 1.356 . S
N725 H730 0.984 . S
N725 H731 0.985 . S
C726 C720 1.379 1_655 S
C726 C723 1.363 . S
C726 N724 1.356 . S
C727 C721 1.363 . S
C727 C722 1.379 1_455 S
C727 N725 1.356 . S
N728 C720 1.356 . S
N728 H734 0.984 . S
N728 H735 0.984 . S
N729 C722 1.356 . S
N729 H732 0.984 . S
N729 H733 0.985 . S
H730 N725 0.984 . S
H731 N725 0.985 . S
H732 N729 0.984 . S
H733 N729 0.985 . S
H734 N728 0.984 . S
H735 N728 0.984 . S
H736 N724 0.984 . S
H737 N724 0.985 . S
C738 C739 1.363 1_545 S
C738 C744 1.379 . S
C738 N746 1.356 . S
C739 C738 1.363 1_565 S
C739 C745 1.363 . S
C740 C741 1.363 1_565 S
C740 C745 1.379 . S
C740 N747 1.356 . S
C741 C740 1.363 1_545 S
C741 C744 1.363 . S
N742 C744 1.356 . S
N742 H754 0.984 . S
N742 H755 0.985 . S
N743 C745 1.356 . S
N743 H748 0.984 . S
N743 H749 0.985 . S
C744 C738 1.379 . S
C744 C741 1.363 . S
C744 N742 1.356 . S
C745 C739 1.363 . S
C745 C740 1.379 . S
C745 N743 1.356 . S
N746 C738 1.356 . S
N746 H752 0.984 . S
N746 H753 0.984 1_545 S
N747 C740 1.356 . S
N747 H750 0.984 1_565 S
N747 H751 0.985 . S
H748 N743 0.984 . S
H749 N743 0.985 . S
H750 N747 0.984 1_545 S
H751 N747 0.985 . S
H752 N746 0.984 . S
H753 N746 0.984 1_565 S
H754 N742 0.984 . S
H755 N742 0.985 . S
C756 C757 1.363 . S
C756 C762 1.379 . S
C756 N764 1.356 . S
C757 C756 1.363 . S
C757 C763 1.363 . S
C758 C759 1.363 . S
C758 C763 1.379 . S
C758 N765 1.356 . S
C759 C758 1.363 . S
C759 C762 1.363 . S
N760 C762 1.356 . S
N760 H772 0.984 . S
N760 H773 0.985 . S
N761 C763 1.356 . S
N761 H766 0.984 . S
N761 H767 0.985 . S
C762 C756 1.379 . S
C762 C759 1.363 . S
C762 N760 1.356 . S
C763 C757 1.363 . S
C763 C758 1.379 . S
C763 N761 1.356 . S
N764 C756 1.356 . S
N764 H770 0.984 . S
N764 H771 0.984 . S
N765 C758 1.356 . S
N765 H768 0.984 . S
N765 H769 0.985 . S
H766 N761 0.984 . S
H767 N761 0.985 . S
H768 N765 0.984 . S
H769 N765 0.985 . S
H770 N764 0.984 . S
H771 N764 0.984 . S
H772 N760 0.984 . S
H773 N760 0.985 . S
C774 C775 1.363 . S
C774 C780 1.379 . S
C774 N782 1.356 . S
C775 C774 1.363 . S
C775 C781 1.363 . S
C776 C777 1.363 . S
C776 C781 1.379 . S
C776 N783 1.356 . S
C777 C776 1.363 . S
C777 C780 1.363 . S
N778 C780 1.356 . S
N778 H790 0.984 . S
N778 H791 0.985 . S
N779 C781 1.356 . S
N779 H784 0.984 . S
N779 H785 0.985 . S
C780 C774 1.379 . S
C780 C777 1.363 . S
C780 N778 1.356 . S
C781 C775 1.363 . S
C781 C776 1.379 . S
C781 N779 1.356 . S
N782 C774 1.356 . S
N782 H788 0.984 . S
N782 H789 0.984 . S
N783 C776 1.356 . S
N783 H786 0.984 . S
N783 H787 0.985 . S
H784 N779 0.984 . S
H785 N779 0.985 . S
H786 N783 0.984 . S
H787 N783 0.985 . S
H788 N782 0.984 . S
H789 N782 0.984 . S
H790 N778 0.984 . S
H791 N778 0.985 . S
C792 C793 1.363 . S
C792 C798 1.379 . S
C792 N800 1.364 . S
C793 C792 1.363 . S
C793 C799 1.363 . S
C794 C795 1.363 . S
C794 C799 1.379 . S
C794 N801 1.356 . S
C795 C794 1.363 . S
C795 C798 1.363 . S
N796 C798 1.356 . S
N796 H808 0.984 . S
N796 H809 0.985 . S
N797 C799 1.356 . S
N797 H802 0.980 1_556 S
N797 H803 0.985 . S
C798 C792 1.379 . S
C798 C795 1.363 . S
C798 N796 1.356 . S
C799 C793 1.363 . S
C799 C794 1.379 . S
C799 N797 1.356 . S
N800 C792 1.364 . S
N800 H806 0.984 . S
N800 H807 0.977 1_556 S
N801 C794 1.356 . S
N801 H804 0.984 . S
N801 H805 0.985 . S
H802 N797 0.980 1_554 S
H803 N797 0.985 . S
H804 N801 0.984 . S
H805 N801 0.985 . S
H806 N800 0.984 . S
H807 N800 0.977 1_554 S
H808 N796 0.984 . S
H809 N796 0.985 . S
C810 C811 1.363 . S
C810 C816 1.379 . S
C810 N818 1.356 . S
C811 C810 1.363 . S
C811 C817 1.363 . S
C812 C813 1.363 . S
C812 C817 1.379 . S
C812 N819 1.356 . S
C813 C812 1.363 . S
C813 C816 1.363 . S
N814 C816 1.356 1_556 S
N814 H826 0.984 . S
N814 H827 0.985 . S
N815 C817 1.356 . S
N815 H820 0.984 . S
N815 H821 0.985 . S
C816 C810 1.379 . S
C816 C813 1.363 . S
C816 N814 1.356 1_554 S
C817 C811 1.363 . S
C817 C812 1.379 . S
C817 N815 1.356 . S
N818 C810 1.356 . S
N818 H824 0.984 . S
N818 H825 0.984 . S
N819 C812 1.356 . S
N819 H822 0.984 . S
N819 H823 0.985 . S
H820 N815 0.984 . S
H821 N815 0.985 . S
H822 N819 0.984 . S
H823 N819 0.985 . S
H824 N818 0.984 . S
H825 N818 0.984 . S
H826 N814 0.984 . S
H827 N814 0.985 . S
C828 C829 1.363 . S
C828 C834 1.379 . S
C828 N836 1.356 . S
C829 C828 1.363 . S
C829 C835 1.363 . S
C830 C831 1.363 . S
C830 C835 1.379 . S
C830 N837 1.356 . S
C831 C830 1.363 . S
C831 C834 1.363 . S
N832 C834 1.356 . S
N832 H844 0.984 . S
N832 H845 0.985 . S
N833 C835 1.356 . S
N833 H838 0.984 . S
N833 H839 0.985 . S
C834 C828 1.379 . S
C834 C831 1.363 . S
C834 N832 1.356 . S
C835 C829 1.363 . S
C835 C830 1.379 . S
C835 N833 1.356 . S
N836 C828 1.356 . S
N836 H842 0.984 . S
N836 H843 0.984 . S
N837 C830 1.356 . S
N837 H840 0.984 . S
N837 H841 0.985 . S
H838 N833 0.984 . S
H839 N833 0.985 . S
H840 N837 0.984 . S
H841 N837 0.985 . S
H842 N836 0.984 . S
H843 N836 0.984 . S
H844 N832 0.984 . S
H845 N832 0.985 . S
C846 C847 1.363 . S
C846 C852 1.379 . S
C846 N854 1.356 . S
C847 C846 1.363 . S
C847 C853 1.363 . S
C848 C849 1.363 . S
C848 C853 1.379 . S
C848 N855 1.356 . S
C849 C848 1.363 . S
C849 C852 1.363 . S
N850 C852 1.356 . S
N850 H862 0.984 . S
N850 H863 0.985 . S
N851 C853 1.356 . S
N851 H856 0.984 . S
N851 H857 0.985 . S
C852 C846 1.379 . S
C852 C849 1.363 . S
C852 N850 1.356 . S
C853 C847 1.363 . S
C853 C848 1.379 . S
C853 N851 1.356 . S
N854 C846 1.356 . S
N854 H860 0.984 . S
N854 H861 0.984 . S
N855 C848 1.356 . S
N855 H858 0.984 . S
N855 H859 0.985 . S
H856 N851 0.984 . S
H857 N851 0.985 . S
H858 N855 0.984 . S
H859 N855 0.985 . S
H860 N854 0.984 . S
H861 N854 0.984 . S
H862 N850 0.984 . S
H863 N850 0.985 . S
C433 C328 1.457 . S
C435 C4 1.457 . S
C451 C40 1.457 . S
C453 C364 1.457 . S
C469 C400 1.457 . S
C471 C76 1.457 . S
C487 C220 1.457 . S
C489 C112 1.457 . S
C505 C256 1.457 . S
C507 C148 1.457 . S
C523 C292 1.457 . S
C525 C184 1.457 . S
C541 C230 1.426 . S
C543 C14 1.426 . S
C559 C50 1.426 . S
C561 C266 1.426 . S
C577 C302 1.427 . S
C579 C86 1.426 . S
C595 C122 1.426 . S
C597 C338 1.426 . S
C613 C374 1.426 . S
C615 C158 1.426 . S
C631 C194 1.426 . S
C633 C410 1.426 . S
C649 C326 1.491 . S
C651 C2 1.491 . S
C667 C362 1.491 . S
C669 C38 1.491 . S
C685 C398 1.491 . S
C687 C74 1.491 . S
C703 C110 1.491 . S
C705 C218 1.491 . S
C721 C254 1.491 . S
C723 C146 1.491 . S
C739 C182 1.491 . S
C741 C290 1.491 . S
C757 C3 1.312 . S
C759 C291 1.312 . S
C775 C327 1.312 . S
C777 C39 1.312 . S
C793 C363 1.312 1_556 S
C795 C75 1.312 . S
C811 C399 1.312 . S
C813 C111 1.312 1_554 S
C829 C219 1.312 . S
C831 C147 1.312 . S
C847 C255 1.312 . S
C849 C183 1.312 . S
