# Generated by pormake.
# Topology wiu, (6)-cn, num edge types: 1
# Building blocks:
#     Node 0, Type 0, BuildingBlock: CUKXOW_clean_sbu_0, # of connection points: 6
#     Node 1, Type 0, BuildingBlock: CUKXOW_clean_sbu_0, # of connection points: 6
#     Node 2, Type 0, BuildingBlock: CUKXOW_clean_sbu_0, # of connection points: 6
#     Node 3, Type 0, BuildingBlock: CUKXOW_clean_sbu_0, # of connection points: 6
#     Node 4, Type 0, BuildingBlock: CUKXOW_clean_sbu_0, # of connection points: 6
#     Node 5, Type 0, BuildingBlock: CUKXOW_clean_sbu_0, # of connection points: 6
#     Node 6, Type 0, BuildingBlock: CUKXOW_clean_sbu_0, # of connection points: 6
#     Node 7, Type 0, BuildingBlock: CUKXOW_clean_sbu_0, # of connection points: 6
#     Node 8, Type 0, BuildingBlock: CUKXOW_clean_sbu_0, # of connection points: 6
#     Node 9, Type 0, BuildingBlock: CUKXOW_clean_sbu_0, # of connection points: 6
#     Node 10, Type 0, BuildingBlock: CUKXOW_clean_sbu_0, # of connection points: 6
#     Node 11, Type 0, BuildingBlock: CUKXOW_clean_sbu_0, # of connection points: 6
#     Node 12, Type 0, BuildingBlock: CUKXOW_clean_sbu_0, # of connection points: 6
#     Node 13, Type 0, BuildingBlock: CUKXOW_clean_sbu_0, # of connection points: 6
#     Node 14, Type 0, BuildingBlock: CUKXOW_clean_sbu_0, # of connection points: 6
#     Node 15, Type 0, BuildingBlock: CUKXOW_clean_sbu_0, # of connection points: 6
#     Edge 16, Type (0, 0), BuildingBlock: XUDNAN_clean_linker_2, # of connection points: 2
#     Edge 17, Type (0, 0), BuildingBlock: XUDNAN_clean_linker_2, # of connection points: 2
#     Edge 18, Type (0, 0), BuildingBlock: XUDNAN_clean_linker_2, # of connection points: 2
#     Edge 19, Type (0, 0), BuildingBlock: XUDNAN_clean_linker_2, # of connection points: 2
#     Edge 20, Type (0, 0), BuildingBlock: XUDNAN_clean_linker_2, # of connection points: 2
#     Edge 21, Type (0, 0), BuildingBlock: XUDNAN_clean_linker_2, # of connection points: 2
#     Edge 22, Type (0, 0), BuildingBlock: XUDNAN_clean_linker_2, # of connection points: 2
#     Edge 23, Type (0, 0), BuildingBlock: XUDNAN_clean_linker_2, # of connection points: 2
#     Edge 24, Type (0, 0), BuildingBlock: XUDNAN_clean_linker_2, # of connection points: 2
#     Edge 25, Type (0, 0), BuildingBlock: XUDNAN_clean_linker_2, # of connection points: 2
#     Edge 26, Type (0, 0), BuildingBlock: XUDNAN_clean_linker_2, # of connection points: 2
#     Edge 27, Type (0, 0), BuildingBlock: XUDNAN_clean_linker_2, # of connection points: 2
#     Edge 28, Type (0, 0), BuildingBlock: XUDNAN_clean_linker_2, # of connection points: 2
#     Edge 29, Type (0, 0), BuildingBlock: XUDNAN_clean_linker_2, # of connection points: 2
#     Edge 30, Type (0, 0), BuildingBlock: XUDNAN_clean_linker_2, # of connection points: 2
#     Edge 31, Type (0, 0), BuildingBlock: XUDNAN_clean_linker_2, # of connection points: 2
#     Edge 32, Type (0, 0), BuildingBlock: XUDNAN_clean_linker_2, # of connection points: 2
#     Edge 33, Type (0, 0), BuildingBlock: XUDNAN_clean_linker_2, # of connection points: 2
#     Edge 34, Type (0, 0), BuildingBlock: XUDNAN_clean_linker_2, # of connection points: 2
#     Edge 35, Type (0, 0), BuildingBlock: XUDNAN_clean_linker_2, # of connection points: 2
#     Edge 36, Type (0, 0), BuildingBlock: XUDNAN_clean_linker_2, # of connection points: 2
#     Edge 37, Type (0, 0), BuildingBlock: XUDNAN_clean_linker_2, # of connection points: 2
#     Edge 38, Type (0, 0), BuildingBlock: XUDNAN_clean_linker_2, # of connection points: 2
#     Edge 39, Type (0, 0), BuildingBlock: XUDNAN_clean_linker_2, # of connection points: 2
#     Edge 40, Type (0, 0), BuildingBlock: XUDNAN_clean_linker_2, # of connection points: 2
#     Edge 41, Type (0, 0), BuildingBlock: XUDNAN_clean_linker_2, # of connection points: 2
#     Edge 42, Type (0, 0), BuildingBlock: XUDNAN_clean_linker_2, # of connection points: 2
#     Edge 43, Type (0, 0), BuildingBlock: XUDNAN_clean_linker_2, # of connection points: 2
#     Edge 44, Type (0, 0), BuildingBlock: XUDNAN_clean_linker_2, # of connection points: 2
#     Edge 45, Type (0, 0), BuildingBlock: XUDNAN_clean_linker_2, # of connection points: 2
#     Edge 46, Type (0, 0), BuildingBlock: XUDNAN_clean_linker_2, # of connection points: 2
#     Edge 47, Type (0, 0), BuildingBlock: XUDNAN_clean_linker_2, # of connection points: 2
#     Edge 48, Type (0, 0), BuildingBlock: XUDNAN_clean_linker_2, # of connection points: 2
#     Edge 49, Type (0, 0), BuildingBlock: XUDNAN_clean_linker_2, # of connection points: 2
#     Edge 50, Type (0, 0), BuildingBlock: XUDNAN_clean_linker_2, # of connection points: 2
#     Edge 51, Type (0, 0), BuildingBlock: XUDNAN_clean_linker_2, # of connection points: 2
#     Edge 52, Type (0, 0), BuildingBlock: XUDNAN_clean_linker_2, # of connection points: 2
#     Edge 53, Type (0, 0), BuildingBlock: XUDNAN_clean_linker_2, # of connection points: 2
#     Edge 54, Type (0, 0), BuildingBlock: XUDNAN_clean_linker_2, # of connection points: 2
#     Edge 55, Type (0, 0), BuildingBlock: XUDNAN_clean_linker_2, # of connection points: 2
#     Edge 56, Type (0, 0), BuildingBlock: XUDNAN_clean_linker_2, # of connection points: 2
#     Edge 57, Type (0, 0), BuildingBlock: XUDNAN_clean_linker_2, # of connection points: 2
#     Edge 58, Type (0, 0), BuildingBlock: XUDNAN_clean_linker_2, # of connection points: 2
#     Edge 59, Type (0, 0), BuildingBlock: XUDNAN_clean_linker_2, # of connection points: 2
#     Edge 60, Type (0, 0), BuildingBlock: XUDNAN_clean_linker_2, # of connection points: 2
#     Edge 61, Type (0, 0), BuildingBlock: XUDNAN_clean_linker_2, # of connection points: 2
#     Edge 62, Type (0, 0), BuildingBlock: XUDNAN_clean_linker_2, # of connection points: 2
#     Edge 63, Type (0, 0), BuildingBlock: XUDNAN_clean_linker_2, # of connection points: 2
# Relax obj value: 0.180
# Max RMSD: 0.246
# Mean RMSD: 0.246
data_MOF--net-wiu--node1-CUKXOW_clean_sbu_0--edge1-XUDNAN_clean_linker_2
_symmetry_space_group_name_H-M    P1
_symmetry_Int_Tables_number       1
_symmetry_cell_setting            triclinic
loop_
_symmetry_equiv_pos_as_xyz
'x, y, z'
_cell_length_a     26.403414
_cell_length_b     26.413135
_cell_length_c     68.026901
_cell_angle_alpha  90.114767
_cell_angle_beta   89.949216
_cell_angle_gamma 89.949285
loop_
_atom_site_label
_atom_site_type_symbol
_atom_site_fract_x
_atom_site_fract_y
_atom_site_fract_z
_atom_type_partial_charge
Tb0 Tb 0.34704 0.06965 0.10082 0.0
C1 C 0.37346 0.16481 0.07542 0.0
Tb2 Tb 0.28675 0.08946 0.06526 0.0
O3 O 0.41703 0.054 0.08452 0.0
O4 O 0.34753 0.0371 0.07157 0.0
O5 O 0.37453 0.14463 0.09334 0.0
C6 C 0.26184 0.08127 0.02744 0.0
O7 O 0.34807 0.14349 0.06082 0.0
C8 C 0.25298 0.14326 0.09665 0.0
C9 C 0.23247 0.02716 0.09815 0.0
O10 O 0.2647 0.1237 0.03713 0.0
O11 O 0.27124 0.04405 0.03927 0.0
O12 O 0.22662 0.13199 0.08098 0.0
O13 O 0.29701 0.12808 0.09239 0.0
O14 O 0.23252 0.03813 0.07914 0.0
O15 O 0.27321 0.03567 0.10913 0.0
C16 C 0.38363 0.05209 0.13656 0.0
O17 O 0.3673 0.09547 0.13032 0.0
O18 O 0.37988 0.01864 0.12265 0.0
C19 C 0.39571 0.04021 0.06824 0.0
Tb20 Tb 0.68741 0.59011 0.35392 0.0
C21 C 0.59431 0.61824 0.32931 0.0
Tb22 Tb 0.67121 0.53665 0.31734 0.0
O23 O 0.69496 0.6629 0.33942 0.0
O24 O 0.72108 0.59941 0.32473 0.0
O25 O 0.61088 0.61363 0.34757 0.0
C26 C 0.69049 0.5143 0.27985 0.0
O27 O 0.61998 0.60018 0.31417 0.0
C28 C 0.60216 0.51188 0.34407 0.0
C29 C 0.73551 0.47791 0.34923 0.0
O30 O 0.65116 0.49886 0.28962 0.0
O31 O 0.71919 0.54045 0.29141 0.0
O32 O 0.59413 0.51023 0.32516 0.0
O33 O 0.64855 0.52259 0.34678 0.0
O34 O 0.71756 0.47697 0.33095 0.0
O35 O 0.73053 0.51941 0.36028 0.0
C36 C 0.70777 0.62408 0.38967 0.0
O37 O 0.74052 0.61995 0.37553 0.0
O38 O 0.66352 0.60916 0.38375 0.0
C39 C 0.71354 0.64747 0.3229 0.0
Tb40 Tb 0.16533 0.93573 0.60117 0.0
C41 C 0.14096 0.84728 0.57196 0.0
Tb42 Tb 0.22254 0.92969 0.56437 0.0
O43 O 0.09389 0.94878 0.58652 0.0
O44 O 0.15962 0.97733 0.57353 0.0
O45 O 0.14188 0.86102 0.59082 0.0
C46 C 0.24132 0.94193 0.52623 0.0
O47 O 0.16331 0.87467 0.55824 0.0
C48 C 0.26108 0.87049 0.59313 0.0
C49 C 0.27489 0.98964 0.59821 0.0
O50 O 0.24844 0.90028 0.53595 0.0
O51 O 0.22553 0.97686 0.53814 0.0
O52 O 0.2863 0.88685 0.57788 0.0
O53 O 0.21628 0.88337 0.5896 0.0
O54 O 0.27427 0.9822 0.57893 0.0
O55 O 0.23599 0.97573 0.60934 0.0
C56 C 0.13293 0.94022 0.63822 0.0
O57 O 0.15819 0.90302 0.63058 0.0
O58 O 0.12525 0.97461 0.62499 0.0
C59 C 0.11159 0.97019 0.57083 0.0
Tb60 Tb 0.7885 0.43679 0.85394 0.0
C61 C 0.86742 0.37445 0.83134 0.0
Tb62 Tb 0.83155 0.48082 0.81896 0.0
O63 O 0.75756 0.36896 0.84106 0.0
O64 O 0.76633 0.43169 0.82296 0.0
O65 O 0.85132 0.38653 0.84909 0.0
C66 C 0.84398 0.5166 0.78243 0.0
O67 O 0.85987 0.4041 0.81601 0.0
C68 C 0.89622 0.482 0.84837 0.0
C69 C 0.76504 0.55177 0.84783 0.0
O70 O 0.87448 0.52378 0.79705 0.0
O71 O 0.80569 0.49025 0.78847 0.0
O72 O 0.90893 0.4759 0.83004 0.0
O73 O 0.84856 0.4898 0.84944 0.0
O74 O 0.7969 0.55034 0.83255 0.0
O75 O 0.75009 0.50934 0.85628 0.0
C76 C 0.76862 0.41195 0.89084 0.0
O77 O 0.73486 0.41586 0.87705 0.0
O78 O 0.81314 0.4222 0.88392 0.0
C79 C 0.75733 0.38328 0.82289 0.0
Tb80 Tb 0.7525 0.92192 0.96557 0.0
C81 C 0.82049 0.97944 0.9338 0.0
Tb82 Tb 0.7056 0.946 0.9278 0.0
O83 O 0.7555 0.84054 0.9584 0.0
O84 O 0.76266 0.89403 0.9362 0.0
O85 O 0.81896 0.95789 0.95151 0.0
C86 C 0.67857 0.94406 0.8904 0.0
O87 O 0.77911 0.98296 0.92278 0.0
C88 C 0.65049 0.98707 0.95689 0.0
C89 C 0.65056 0.8739 0.95645 0.0
O90 O 0.68965 0.98493 0.90021 0.0
O91 O 0.68288 0.90469 0.9016 0.0
O92 O 0.63619 0.97966 0.93891 0.0
O93 O 0.69915 0.98036 0.95689 0.0
O94 O 0.66108 0.88267 0.93777 0.0
O95 O 0.67859 0.89156 0.97086 0.0
C96 C 0.77987 0.93695 1.00289 0.0
O97 O 0.7885 0.89578 0.99293 0.0
O98 O 0.75804 0.96953 0.99154 0.0
C99 C 0.75987 0.84667 0.93946 0.0
Tb100 Tb 0.35793 0.51556 0.70967 0.0
C101 C 0.2967 0.55719 0.67359 0.0
Tb102 Tb 0.35052 0.44602 0.67646 0.0
O103 O 0.43484 0.5422 0.70138 0.0
O104 O 0.38378 0.51772 0.68013 0.0
O105 O 0.31466 0.56881 0.69128 0.0
C106 C 0.33317 0.40302 0.64168 0.0
O107 O 0.30243 0.51039 0.6664 0.0
C108 C 0.3223 0.40021 0.70978 0.0
C109 C 0.43884 0.43336 0.70561 0.0
O110 O 0.30017 0.40917 0.65564 0.0
O111 O 0.37696 0.41992 0.64752 0.0
O112 O 0.34345 0.37866 0.6948 0.0
O113 O 0.31331 0.44674 0.70496 0.0
O114 O 0.4265 0.42932 0.68674 0.0
O115 O 0.40974 0.45703 0.71843 0.0
C116 C 0.32966 0.55147 0.74477 0.0
O117 O 0.3744 0.55676 0.73705 0.0
O118 O 0.30082 0.52852 0.73222 0.0
C119 C 0.42912 0.5316 0.68276 0.0
Tb120 Tb 0.76215 0.10732 0.46481 0.0
C121 C 0.70025 0.04299 0.43322 0.0
Tb122 Tb 0.81691 0.07433 0.42892 0.0
O123 O 0.7564 0.18659 0.45515 0.0
O124 O 0.75836 0.1279 0.43454 0.0
O125 O 0.69833 0.06975 0.44983 0.0
C126 C 0.85068 0.06381 0.3926 0.0
O127 O 0.74351 0.03678 0.4234 0.0
C128 C 0.8613 0.03696 0.4613 0.0
C129 C 0.86879 0.14862 0.45716 0.0
O130 O 0.84365 0.0266 0.40476 0.0
O131 O 0.83875 0.10647 0.40079 0.0
O132 O 0.88294 0.04214 0.44433 0.0
O133 O 0.81387 0.04611 0.45852 0.0
O134 O 0.8591 0.14002 0.43838 0.0
O135 O 0.83739 0.1342 0.47116 0.0
C136 C 0.72301 0.09554 0.50058 0.0
O137 O 0.73066 0.1389 0.4921 0.0
O138 O 0.73569 0.05964 0.48862 0.0
C139 C 0.75938 0.17586 0.43648 0.0
Tb140 Tb 0.15226 0.51696 0.2104 0.0
C141 C 0.21613 0.45997 0.17678 0.0
Tb142 Tb 0.1828 0.57558 0.17585 0.0
O143 O 0.07216 0.51813 0.20077 0.0
O144 O 0.1306 0.51607 0.18026 0.0
O145 O 0.19226 0.45504 0.19402 0.0
C146 C 0.18678 0.61042 0.13932 0.0
O147 O 0.2215 0.50515 0.16858 0.0
C148 C 0.22185 0.61827 0.2077 0.0
C149 C 0.10912 0.62431 0.20541 0.0
O150 O 0.22572 0.59513 0.14941 0.0
O151 O 0.14609 0.60653 0.14987 0.0
O152 O 0.21768 0.63905 0.19058 0.0
O153 O 0.21453 0.56997 0.20541 0.0
O154 O 0.11881 0.61871 0.1865 0.0
O155 O 0.12181 0.58989 0.21845 0.0
C156 C 0.15256 0.4745 0.24618 0.0
O157 O 0.18202 0.51055 0.24033 0.0
O158 O 0.12354 0.46113 0.23168 0.0
C159 C 0.08292 0.51879 0.18207 0.0
Tb160 Tb 0.85602 0.56371 0.60263 0.0
C161 C 0.92376 0.62575 0.57533 0.0
Tb162 Tb 0.80797 0.6141 0.56618 0.0
O163 O 0.90739 0.51334 0.58588 0.0
O164 O 0.84429 0.54273 0.57232 0.0
O165 O 0.91466 0.61567 0.59404 0.0
C166 C 0.78238 0.63523 0.5294 0.0
O167 O 0.8884 0.62401 0.56162 0.0
C168 C 0.80187 0.67751 0.59674 0.0
C169 C 0.73488 0.56146 0.59727 0.0
O170 O 0.81355 0.66106 0.54014 0.0
O171 O 0.76496 0.59706 0.5394 0.0
O172 O 0.78574 0.68756 0.57916 0.0
O173 O 0.82053 0.63328 0.5959 0.0
O174 O 0.73905 0.58053 0.57917 0.0
O175 O 0.77505 0.55232 0.60847 0.0
C176 C 0.8815 0.54592 0.63975 0.0
O177 O 0.8548 0.51552 0.62881 0.0
O178 O 0.8949 0.58521 0.62959 0.0
C179 C 0.88671 0.52019 0.56872 0.0
Tb180 Tb 0.22468 0.08773 0.84853 0.0
C181 C 0.1357 0.14399 0.83104 0.0
Tb182 Tb 0.17706 0.04487 0.81468 0.0
O183 O 0.25114 0.15697 0.83438 0.0
O184 O 0.24356 0.09276 0.81713 0.0
O185 O 0.15585 0.13073 0.84795 0.0
C186 C 0.15357 0.01284 0.77842 0.0
O187 O 0.15 0.12229 0.81448 0.0
C188 C 0.11641 0.0358 0.84553 0.0
C189 C 0.24056 0.96916 0.84166 0.0
O190 O 0.12326 0.03434 0.79076 0.0
O191 O 0.19796 0.00885 0.78646 0.0
O192 O 0.10137 0.03873 0.82745 0.0
O193 O 0.16469 0.033 0.8456 0.0
O194 O 0.21129 0.97352 0.82579 0.0
O195 O 0.2541 0.01006 0.85168 0.0
C196 C 0.26054 0.10652 0.88437 0.0
O197 O 0.2865 0.08769 0.86986 0.0
O198 O 0.21486 0.11615 0.87846 0.0
C199 C 0.25196 0.14097 0.81642 0.0
Tb200 Tb 0.66759 0.46622 0.10113 0.0
C201 C 0.59322 0.3954 0.08168 0.0
Tb202 Tb 0.70298 0.41089 0.06833 0.0
O203 O 0.6049 0.50655 0.08763 0.0
O204 O 0.66354 0.48308 0.06958 0.0
O205 O 0.60956 0.40923 0.09916 0.0
C206 C 0.73384 0.38401 0.03243 0.0
O207 O 0.62261 0.39881 0.0661 0.0
C208 C 0.70306 0.3526 0.10001 0.0
C209 C 0.78493 0.47184 0.09367 0.0
O210 O 0.70826 0.35604 0.04439 0.0
O211 O 0.74309 0.42713 0.04079 0.0
O212 O 0.69513 0.33688 0.08222 0.0
O213 O 0.71425 0.39951 0.09927 0.0
O214 O 0.77783 0.43842 0.0792 0.0
O215 O 0.7457 0.49237 0.10267 0.0
C216 C 0.65472 0.50145 0.13736 0.0
O217 O 0.67228 0.52733 0.12266 0.0
O218 O 0.64287 0.45625 0.13147 0.0
C219 C 0.61754 0.50046 0.06937 0.0
Tb220 Tb 0.29094 0.92004 0.34844 0.0
C221 C 0.36159 0.84834 0.32737 0.0
Tb222 Tb 0.35097 0.96204 0.31386 0.0
O223 O 0.24722 0.86513 0.33087 0.0
O224 O 0.27768 0.92777 0.31727 0.0
O225 O 0.34564 0.86114 0.3451 0.0
C226 C 0.37694 0.98411 0.27705 0.0
O227 O 0.36328 0.88066 0.31252 0.0
C228 C 0.40938 0.96906 0.34538 0.0
C229 C 0.29843 0.04037 0.34339 0.0
O230 O 0.401 0.95353 0.28862 0.0
O231 O 0.33787 1.00277 0.28621 0.0
O232 O 0.42262 0.98286 0.3278 0.0
O233 O 0.36433 0.95193 0.34432 0.0
O234 O 0.3214 0.03463 0.326 0.0
O235 O 0.28325 1.00103 0.3538 0.0
C236 C 0.24962 0.90626 0.3836 0.0
O237 O 0.22835 0.92972 0.36899 0.0
O238 O 0.29344 0.88872 0.37808 0.0
C239 C 0.2573 0.88423 0.31375 0.0
Tb240 Tb 0.2465 0.40491 0.46265 0.0
C241 C 0.29805 0.47037 0.42967 0.0
Tb242 Tb 0.18673 0.4188 0.42618 0.0
O243 O 0.26786 0.3262 0.45374 0.0
O244 O 0.25446 0.38139 0.43296 0.0
O245 O 0.29978 0.45714 0.44853 0.0
C246 C 0.15533 0.42322 0.38897 0.0
O247 O 0.2575 0.46016 0.41862 0.0
C248 C 0.13625 0.45249 0.45809 0.0
C249 C 0.15969 0.33076 0.45458 0.0
O250 O 0.16666 0.46222 0.39983 0.0
O251 O 0.16045 0.38217 0.39923 0.0
O252 O 0.11676 0.43794 0.44158 0.0
O253 O 0.18447 0.45578 0.45501 0.0
O254 O 0.16107 0.34432 0.43582 0.0
O255 O 0.18367 0.3561 0.46833 0.0
C256 C 0.27153 0.41466 0.50052 0.0
O257 O 0.30001 0.39352 0.48719 0.0
O258 O 0.23081 0.43141 0.49224 0.0
C259 C 0.26398 0.33493 0.43494 0.0
Tb260 Tb 0.86406 0.99842 0.2153 0.0
C261 C 0.79714 0.06202 0.18611 0.0
Tb262 Tb 0.82616 0.94372 0.18178 0.0
O263 O 0.94158 1.00451 0.20388 0.0
O264 O 0.88123 1.00252 0.18433 0.0
O265 O 0.82411 0.0633 0.20255 0.0
C266 C 0.79575 0.91588 0.14608 0.0
O267 O 0.79095 0.01881 0.1763 0.0
C268 C 0.79372 0.89909 0.21481 0.0
C269 C 0.91011 0.8966 0.20661 0.0
O270 O 0.76665 0.93204 0.16013 0.0
O271 O 0.84213 0.91372 0.15238 0.0
O272 O 0.7994 0.87718 0.19793 0.0
O273 O 0.80019 0.94708 0.21215 0.0
O274 O 0.89619 0.90384 0.18816 0.0
O275 O 0.89096 0.9234 0.22105 0.0
C276 C 0.88038 0.03802 0.25085 0.0
O277 O 0.91451 0.02071 0.23903 0.0
O278 O 0.8364 0.0342 0.2425 0.0
C279 C 0.92939 1.00187 0.18549 0.0
Tb280 Tb 0.26537 0.60454 0.96066 0.0
C281 C 0.19979 0.53756 0.93188 0.0
Tb282 Tb 0.31709 0.56518 0.92534 0.0
O283 O 0.26682 0.68306 0.94958 0.0
O284 O 0.26194 0.62275 0.93 0.0
O285 O 0.20193 0.55954 0.94943 0.0
C286 C 0.33998 0.54246 0.88826 0.0
O287 O 0.24044 0.53446 0.92043 0.0
C288 C 0.36005 0.52956 0.9582 0.0
C289 C 0.3712 0.64427 0.95098 0.0
O290 O 0.32416 0.51051 0.90141 0.0
O291 O 0.34489 0.58683 0.89628 0.0
O292 O 0.38185 0.5328 0.94117 0.0
O293 O 0.31247 0.53875 0.95542 0.0
O294 O 0.36395 0.6298 0.93256 0.0
O295 O 0.34017 0.63242 0.96534 0.0
C296 C 0.23085 0.61528 0.99724 0.0
O297 O 0.2085 0.63279 0.98168 0.0
O298 O 0.27158 0.59164 0.99208 0.0
C299 C 0.2667 0.67058 0.93108 0.0
Tb300 Tb 0.64526 0.02949 0.71332 0.0
C301 C 0.71478 0.96779 0.68387 0.0
Tb302 Tb 0.68162 0.08364 0.67916 0.0
O303 O 0.56633 0.02731 0.7033 0.0
O304 O 0.62524 0.02651 0.68278 0.0
O305 O 0.69336 0.96809 0.70155 0.0
C306 C 0.71159 0.11089 0.64349 0.0
O307 O 0.71468 0.00898 0.6728 0.0
C308 C 0.71578 0.12716 0.71204 0.0
C309 C 0.60168 0.13562 0.70426 0.0
O310 O 0.74079 0.09395 0.65732 0.0
O311 O 0.66541 0.11385 0.64998 0.0
O312 O 0.70961 0.14949 0.69532 0.0
O313 O 0.70965 0.07914 0.70909 0.0
O314 O 0.61504 0.12762 0.68579 0.0
O315 O 0.61327 0.10342 0.71832 0.0
C316 C 0.63846 0.99392 0.74972 0.0
O317 O 0.65613 0.03759 0.74472 0.0
O318 O 0.62444 0.96932 0.73411 0.0
C319 C 0.57729 0.02912 0.68469 0.0
H320 H 0.40993 0.21703 0.04418 0.0
H321 H 0.35511 0.2334 0.10373 0.0
H322 H 0.37165 0.32365 0.10286 0.0
H323 H 0.50998 0.26054 0.0479 0.0
H324 H 0.52012 0.30123 0.02695 0.0
H325 H 0.47359 0.25258 0.02562 0.0
H326 H 0.40597 0.31908 0.01653 0.0
H327 H 0.45303 0.36846 0.01813 0.0
H328 H 0.39541 0.37316 0.03219 0.0
H329 H 0.42831 0.38961 0.10392 0.0
H330 H 0.5171 0.41285 0.10782 0.0
H331 H 0.54845 0.36149 0.0486 0.0
C332 C 0.40036 0.24082 0.05662 0.0
C333 C 0.3825 0.21895 0.07404 0.0
C334 C 0.37005 0.24961 0.09031 0.0
C335 C 0.37816 0.30138 0.08973 0.0
C336 C 0.40154 0.32185 0.0732 0.0
C337 C 0.41152 0.29263 0.05654 0.0
C338 C 0.45057 0.3181 0.04364 0.0
C339 C 0.49097 0.28087 0.03565 0.0
C340 C 0.42467 0.34637 0.02663 0.0
C341 C 0.47129 0.3556 0.05839 0.0
C342 C 0.43844 0.36192 0.07416 0.0
C343 C 0.45376 0.38551 0.09155 0.0
C344 C 0.50465 0.39737 0.09389 0.0
C345 C 0.53934 0.38661 0.07872 0.0
C346 C 0.52202 0.36902 0.06041 0.0
H347 H 0.55485 0.66374 0.29722 0.0
H348 H 0.51677 0.60493 0.35463 0.0
H349 H 0.42915 0.63046 0.35013 0.0
H350 H 0.51165 0.76892 0.30321 0.0
H351 H 0.48275 0.78368 0.27986 0.0
H352 H 0.5313 0.7369 0.281 0.0
H353 H 0.47115 0.67194 0.26483 0.0
H354 H 0.42169 0.7191 0.2639 0.0
H355 H 0.41015 0.65911 0.27562 0.0
H356 H 0.35897 0.68131 0.34622 0.0
H357 H 0.33034 0.76869 0.34938 0.0
H358 H 0.40989 0.80811 0.29589 0.0
C359 C 0.52691 0.6546 0.30832 0.0
C360 C 0.54178 0.6323 0.32611 0.0
C361 C 0.50576 0.6217 0.34078 0.0
C362 C 0.45536 0.63472 0.33806 0.0
C363 C 0.44153 0.65952 0.32082 0.0
C364 C 0.4766 0.66985 0.30611 0.0
C365 C 0.45777 0.71137 0.29268 0.0
C366 C 0.49824 0.75264 0.28906 0.0
C367 C 0.43906 0.68902 0.27311 0.0
C368 C 0.41346 0.73004 0.30481 0.0
C369 C 0.40098 0.6957 0.31945 0.0
C370 C 0.36817 0.70816 0.33477 0.0
C371 C 0.35297 0.75823 0.33672 0.0
C372 C 0.3704 0.79491 0.32331 0.0
C373 C 0.39719 0.78014 0.30639 0.0
H374 H 0.09534 0.80946 0.53967 0.0
H375 H 0.16946 0.76743 0.59376 0.0
H376 H 0.15181 0.67839 0.58741 0.0
H377 H 0.9976 0.76461 0.54452 0.0
H378 H 0.98064 0.73337 0.52181 0.0
H379 H 0.02723 0.78204 0.52157 0.0
H380 H 0.09071 0.72101 0.50526 0.0
H381 H 0.04365 0.67149 0.50562 0.0
H382 H 0.10496 0.6609 0.51644 0.0
H383 H 0.09515 0.61175 0.58641 0.0
H384 H 1.00743 0.59064 0.59413 0.0
H385 H 0.95719 0.66739 0.54162 0.0
C386 C 0.10883 0.78049 0.54961 0.0
C387 C 0.13225 0.79434 0.56729 0.0
C388 C 0.15018 0.75709 0.58029 0.0
C389 C 0.14135 0.70619 0.57648 0.0
C390 C 0.11248 0.69318 0.56004 0.0
C391 C 0.09745 0.72943 0.54637 0.0
C392 C 0.05438 0.70982 0.53386 0.0
C393 C 0.01249 0.74983 0.53033 0.0
C394 C 0.07467 0.68959 0.51415 0.0
C395 C 0.03769 0.66626 0.54673 0.0
C396 C 0.07562 0.65279 0.55992 0.0
C397 C 0.06565 0.6219 0.57611 0.0
C398 C 0.01552 0.61115 0.58072 0.0
C399 C 0.97624 0.63021 0.56888 0.0
C400 C 0.98747 0.6537 0.55091 0.0
H401 H 0.0986 0.20946 0.80382 0.0
H402 H 0.06425 0.13492 0.85899 0.0
H403 H 0.97777 0.16781 0.85788 0.0
H404 H 0.04664 0.31998 0.81777 0.0
H405 H 0.02222 0.33861 0.79411 0.0
H406 H 0.07527 0.29637 0.79548 0.0
H407 H 0.02614 0.23109 0.77423 0.0
H408 H 0.97233 0.27316 0.77322 0.0
H409 H 0.96471 0.20941 0.78215 0.0
H410 H 0.90257 0.21502 0.8543 0.0
H411 H 0.85193 0.29256 0.85407 0.0
H412 H 0.9344 0.34608 0.80299 0.0
C413 C 0.07217 0.1996 0.81538 0.0
C414 C 0.08711 0.16923 0.83127 0.0
C415 C 0.05293 0.15786 0.84658 0.0
C416 C 1.00342 0.17532 0.84584 0.0
C417 C 0.98921 0.20495 0.82991 0.0
C418 C 0.02294 0.2185 0.81525 0.0
C419 C 1.0023 0.26104 0.80279 0.0
C420 C 0.03874 0.30668 0.80256 0.0
C421 C 0.99067 0.24254 0.78186 0.0
C422 C 0.95407 0.27225 0.81398 0.0
C423 C 0.94583 0.23703 0.82869 0.0
C424 C 0.90797 0.24251 0.84272 0.0
C425 C 0.87997 0.28693 0.84263 0.0
C426 C 0.89059 0.32514 0.82874 0.0
C427 C 0.92583 0.31679 0.8136 0.0
H428 H 0.57439 0.85265 0.93172 0.0
H429 H 0.62747 0.82911 0.99147 0.0
H430 H 0.55575 0.77119 0.99749 0.0
H431 H 0.43666 0.84282 0.94213 0.0
H432 H 0.42613 0.8101 0.91923 0.0
H433 H 0.47584 0.85655 0.92109 0.0
H434 H 0.54026 0.78924 0.90875 0.0
H435 H 0.49115 0.74233 0.90739 0.0
H436 H 0.54686 0.73055 0.92199 0.0
H437 H 0.48713 0.7082 0.99528 0.0
H438 H 0.42008 0.64783 0.98588 0.0
H439 H 0.41523 0.71274 0.9273 0.0
C440 C 0.57051 0.83602 0.9462 0.0
C441 C 0.60622 0.84436 0.96109 0.0
C442 C 0.60008 0.82261 0.97989 0.0
C443 C 0.55961 0.79001 0.98345 0.0
C444 C 0.52614 0.78083 0.96808 0.0
C445 C 0.53075 0.80376 0.94993 0.0
C446 C 0.49302 0.78416 0.93527 0.0
C447 C 0.4557 0.82592 0.92908 0.0
C448 C 0.51942 0.76014 0.91731 0.0
C449 C 0.46773 0.74499 0.94779 0.0
C450 C 0.48684 0.74405 0.96673 0.0
C451 C 0.47101 0.70917 0.98067 0.0
C452 C 0.43342 0.67509 0.97517 0.0
C453 C 0.41317 0.67646 0.95593 0.0
C454 C 0.43071 0.71119 0.94204 0.0
H455 H 0.60781 0.21983 0.68196 0.0
H456 H 0.56713 0.1664 0.74014 0.0
H457 H 0.55101 0.25407 0.7506 0.0
H458 H 0.65784 0.35295 0.69923 0.0
H459 H 0.63255 0.37901 0.67693 0.0
H460 H 0.65861 0.31592 0.67695 0.0
H461 H 0.57351 0.28319 0.6622 0.0
H462 H 0.54876 0.34602 0.66268 0.0
H463 H 0.51527 0.29599 0.67519 0.0
H464 H 0.51922 0.33833 0.75231 0.0
H465 H 0.4581 0.40371 0.74305 0.0
H466 H 0.52054 0.40751 0.68422 0.0
C467 C 0.59595 0.22672 0.69697 0.0
C468 C 0.5877 0.18672 0.71015 0.0
C469 C 0.5729 0.19683 0.72973 0.0
C470 C 0.5649 0.24653 0.73592 0.0
C471 C 0.57282 0.28542 0.72245 0.0
C472 C 0.58814 0.276 0.70334 0.0
C473 C 0.58373 0.32229 0.69057 0.0
C474 C 0.63631 0.34377 0.68566 0.0
C475 C 0.55343 0.31117 0.6716 0.0
C476 C 0.55573 0.35659 0.70464 0.0
C477 C 0.55369 0.33624 0.72345 0.0
C478 C 0.5215 0.3554 0.73789 0.0
C479 C 0.4866 0.39231 0.73246 0.0
C480 C 0.48436 0.4087 0.71276 0.0
C481 C 0.52188 0.39438 0.69928 0.0
H482 H 0.12777 0.2537 0.43143 0.0
H483 H 0.13099 0.30677 0.49172 0.0
H484 H 0.072 0.23998 0.50128 0.0
H485 H 0.01416 0.24673 0.4255 0.0
H486 H 1.00613 0.18855 0.41193 0.0
H487 H 0.06561 0.22042 0.41126 0.0
H488 H 0.11068 0.13984 0.42352 0.0
H489 H 0.05104 0.10682 0.42442 0.0
H490 H 0.09067 0.10976 0.44596 0.0
H491 H 0.99271 0.1965 0.50185 0.0
H492 H 0.90466 0.17452 0.49354 0.0
H493 H 0.94979 0.14841 0.43303 0.0
C494 C 0.11731 0.2496 0.44673 0.0
C495 C 0.1325 0.28552 0.46071 0.0
C496 C 0.11914 0.27959 0.4807 0.0
C497 C 0.08619 0.24122 0.48636 0.0
C498 C 0.06778 0.20881 0.47191 0.0
C499 C 0.08423 0.21137 0.45252 0.0
C500 C 0.05075 0.1806 0.43909 0.0
C501 C 0.03309 0.21097 0.42093 0.0
C502 C 0.07738 0.13131 0.43291 0.0
C503 C 1.00806 0.16962 0.45315 0.0
C504 C 0.01997 0.18287 0.47226 0.0
C505 C 0.98346 0.18424 0.4871 0.0
C506 C 0.93342 0.17286 0.48219 0.0
C507 C 0.92061 0.1614 0.46254 0.0
C508 C 0.95861 0.15802 0.44811 0.0
H509 H 0.04151 0.65332 0.23332 0.0
H510 H 0.15488 0.70887 0.19283 0.0
H511 H 0.13393 0.79555 0.20124 0.0
H512 H 0.95252 0.71344 0.21839 0.0
H513 H 0.9193 0.73434 0.24012 0.0
H514 H 0.95983 0.68031 0.24141 0.0
H515 H 0.01192 0.7217 0.26936 0.0
H516 H 0.96998 0.77567 0.26854 0.0
H517 H 0.0374 0.78441 0.26618 0.0
H518 H 0.07956 0.86367 0.19905 0.0
H519 H 1.00203 0.90997 0.19081 0.0
H520 H 0.91747 0.82108 0.23282 0.0
C521 C 0.06268 0.68436 0.227 0.0
C522 C 0.09895 0.67518 0.21237 0.0
C523 C 0.12647 0.71541 0.20399 0.0
C524 C 0.11532 0.76499 0.20896 0.0
C525 C 0.07527 0.77378 0.22177 0.0
C526 C 0.04993 0.7346 0.23122 0.0
C527 C 1.00047 0.75296 0.23994 0.0
C528 C 0.95546 0.71822 0.23459 0.0
C529 C 1.00525 0.75908 0.26233 0.0
C530 C 0.99711 0.80406 0.23008 0.0
C531 C 0.04214 0.8167 0.2208 0.0
C532 C 0.04493 0.85549 0.20694 0.0
C533 C 1.00066 0.88076 0.20193 0.0
C534 C 0.95481 0.86779 0.2111 0.0
C535 C 0.95305 0.83089 0.22586 0.0
H536 H 0.50034 0.0224 0.06393 0.0
H537 H 0.36352 0.03539 0.02937 0.0
H538 H 0.41405 0.02499 0.99897 0.0
H539 H 0.58443 0.0888 0.03077 0.0
H540 H 0.63829 0.04787 0.03428 0.0
H541 H 0.59214 0.0552 0.05362 0.0
H542 H 0.57857 0.95871 0.05452 0.0
H543 H 0.62476 0.95061 0.03523 0.0
H544 H 0.56178 0.92556 0.03226 0.0
H545 H 0.48006 0.01728 0.97191 0.0
H546 H 0.55226 1.00609 0.95009 0.0
H547 H 0.65256 0.99217 1.00035 0.0
C548 C 0.48076 0.02254 0.04996 0.0
C549 C 0.42657 0.02943 0.04941 0.0
C550 C 0.40375 0.02953 0.0306 0.0
C551 C 0.43274 0.02395 1.01312 0.0
C552 C 0.48553 0.01758 1.01423 0.0
C553 C 0.50948 0.01611 0.0322 0.0
C554 C 0.56698 1.00788 0.02903 0.0
C555 C 0.59726 0.05259 0.03743 0.0
C556 C 0.58404 0.95771 0.03832 0.0
C557 C 0.57184 1.00562 1.00644 0.0
C558 C 0.52393 0.01169 0.99845 0.0
C559 C 0.51738 0.01213 0.97817 0.0
C560 C 0.55965 1.00568 0.96574 0.0
C561 C 0.60993 0.99806 0.97289 0.0
C562 C 0.61568 0.99824 0.99392 0.0
H563 H 0.72688 0.64628 0.28048 0.0
H564 H 0.74685 0.74109 0.33204 0.0
H565 H 0.76803 0.81329 0.31105 0.0
H566 H 0.83257 0.70719 0.25181 0.0
H567 H 0.79983 0.70292 0.22862 0.0
H568 H 0.78823 0.65663 0.24752 0.0
H569 H 0.69264 0.67631 0.24611 0.0
H570 H 0.70367 0.72297 0.2273 0.0
H571 H 0.67109 0.74052 0.2496 0.0
H572 H 0.78242 0.88019 0.28421 0.0
H573 H 0.79492 0.93134 0.25398 0.0
H574 H 0.76985 0.79674 0.21877 0.0
C575 C 0.73712 0.68172 0.2874 0.0
C576 C 0.73537 0.68653 0.3084 0.0
C577 C 0.74779 0.735 0.3163 0.0
C578 C 0.75989 0.77698 0.30437 0.0
C579 C 0.76016 0.77156 0.28398 0.0
C580 C 0.74993 0.72493 0.27547 0.0
C581 C 0.75297 0.7304 0.253 0.0
C582 C 0.79594 0.69731 0.24474 0.0
C583 C 0.70205 0.71673 0.24344 0.0
C584 C 0.76515 0.78707 0.25039 0.0
C585 C 0.76918 0.81007 0.26852 0.0
C586 C 0.77953 0.86221 0.26995 0.0
C587 C 0.78639 0.89141 0.25259 0.0
C588 C 0.78324 0.86907 0.23367 0.0
C589 C 0.77242 0.81577 0.23284 0.0
H590 H 0.11423 0.97961 0.52835 0.0
H591 H 0.02007 0.00955 0.57935 0.0
H592 H 0.94824 0.02939 0.55786 0.0
H593 H 0.05277 0.08359 0.4971 0.0
H594 H 0.05813 0.04687 0.47485 0.0
H595 H 0.10411 0.0393 0.49419 0.0
H596 H 0.08527 0.9431 0.4946 0.0
H597 H 0.03831 0.95098 0.47566 0.0
H598 H 0.02124 0.92173 0.49865 0.0
H599 H 0.88131 0.03953 0.53078 0.0
H600 H 0.83004 0.04636 0.50037 0.0
H601 H 0.96395 0.01433 0.46573 0.0
C602 C 0.07914 0.99212 0.53501 0.0
C603 C 0.07421 0.9934 0.55601 0.0
C604 C 0.02616 0.0084 0.5636 0.0
C605 C 0.98444 0.01968 0.5514 0.0
C606 C 0.98983 0.0167 0.53104 0.0
C607 C 0.0363 1.00443 0.52278 0.0
C608 C 0.03075 1.00401 0.50026 0.0
C609 C 0.06339 0.0459 0.49105 0.0
C610 C 0.04472 0.95184 0.4918 0.0
C611 C 0.97403 0.01563 0.49739 0.0
C612 C 0.95127 0.02319 0.51541 0.0
C613 C 0.89917 0.03388 0.51662 0.0
C614 C 0.86981 0.03738 0.49916 0.0
C615 C 0.89179 0.03043 0.48035 0.0
C616 C 0.94511 0.01955 0.47972 0.0
H617 H 0.74188 0.3851 0.7799 0.0
H618 H 0.76886 0.28355 0.829 0.0
H619 H 0.76243 0.21075 0.80729 0.0
H620 H 0.65083 0.30509 0.75516 0.0
H621 H 0.67334 0.31658 0.73054 0.0
H622 H 0.68207 0.36387 0.74932 0.0
H623 H 0.77912 0.36395 0.74352 0.0
H624 H 0.76898 0.31955 0.7237 0.0
H625 H 0.81283 0.30471 0.74317 0.0
H626 H 0.75086 0.14427 0.78041 0.0
H627 H 0.73738 0.09323 0.7502 0.0
H628 H 0.71602 0.2319 0.7172 0.0
C629 C 0.74687 0.34773 0.78609 0.0
C630 C 0.7558 0.34187 0.80676 0.0
C631 C 0.76169 0.29105 0.81362 0.0
C632 C 0.75814 0.24839 0.80125 0.0
C633 C 0.7485 0.25506 0.78136 0.0
C634 C 0.74328 0.30339 0.77366 0.0
C635 C 0.73293 0.29857 0.75152 0.0
C636 C 0.6817 0.32249 0.74635 0.0
C637 C 0.77602 0.32315 0.73975 0.0
C638 C 0.73211 0.24069 0.74828 0.0
C639 C 0.74164 0.21639 0.76577 0.0
C640 C 0.7433 0.16317 0.76662 0.0
C641 C 0.73526 0.13406 0.74929 0.0
C642 C 0.72513 0.15747 0.73099 0.0
C643 C 0.7237 0.21198 0.73077 0.0
H644 H 0.34868 0.30165 0.71977 0.0
H645 H 0.2548 0.42553 0.74032 0.0
H646 H 0.22429 0.37112 0.76771 0.0
H647 H 0.26229 0.19884 0.73116 0.0
H648 H 0.31113 0.15575 0.73908 0.0
H649 H 0.32535 0.20395 0.72118 0.0
H650 H 0.39776 0.23757 0.74312 0.0
H651 H 0.38413 0.18917 0.76098 0.0
H652 H 0.38456 0.25483 0.76825 0.0
H653 H 0.2028 0.30067 0.79322 0.0
H654 H 0.19782 0.22763 0.81544 0.0
H655 H 0.30642 0.14641 0.77944 0.0
C656 C 0.32158 0.31762 0.73 0.0
C657 C 0.30418 0.3688 0.72748 0.0
C658 C 0.26907 0.38725 0.74157 0.0
C659 C 0.25132 0.35611 0.75724 0.0
C660 C 0.26881 0.3059 0.75904 0.0
C661 C 0.30371 0.28698 0.74584 0.0
C662 C 0.31768 0.23214 0.75135 0.0
C663 C 0.30327 0.19551 0.7347 0.0
C664 C 0.3744 0.22819 0.75621 0.0
C665 C 0.2851 0.22257 0.76971 0.0
C666 C 0.25703 0.26581 0.77372 0.0
C667 C 0.22469 0.26702 0.78997 0.0
C668 C 0.22179 0.22451 0.80257 0.0
C669 C 0.25039 0.17944 0.79937 0.0
C670 C 0.28245 0.17883 0.78233 0.0
H671 H 0.20196 0.79646 0.30625 0.0
H672 H 0.31389 0.8932 0.27887 0.0
H673 H 0.32274 0.83091 0.25174 0.0
H674 H 0.25328 0.67521 0.29294 0.0
H675 H 0.19355 0.64577 0.28716 0.0
H676 H 0.19611 0.69659 0.30487 0.0
H677 H 0.13008 0.7475 0.28507 0.0
H678 H 0.12617 0.69654 0.26749 0.0
H679 H 0.14111 0.75968 0.25937 0.0
H680 H 0.32244 0.75367 0.22785 0.0
H681 H 0.30237 0.68087 0.20659 0.0
H682 H 0.18336 0.63564 0.24672 0.0
C683 C 0.2281 0.805 0.29445 0.0
C684 C 0.25789 0.8505 0.29523 0.0
C685 C 0.29092 0.85937 0.27913 0.0
C686 C 0.2963 0.82361 0.26356 0.0
C687 C 0.26735 0.7789 0.26359 0.0
C688 C 0.23266 0.77029 0.27838 0.0
C689 C 0.20361 0.72084 0.27422 0.0
C690 C 0.21214 0.68233 0.29079 0.0
C691 C 0.14688 0.73178 0.27137 0.0
C692 C 0.22777 0.70224 0.25495 0.0
C693 C 0.26507 0.73615 0.24934 0.0
C694 C 0.29312 0.72741 0.23225 0.0
C695 C 0.28176 0.68499 0.22027 0.0
C696 C 0.24223 0.65027 0.22484 0.0
C697 C 0.2152 0.65934 0.24281 0.0
H698 H 0.13176 0.44081 0.50025 0.0
H699 H 0.05688 0.51532 0.45162 0.0
H700 H 0.98684 0.54028 0.47352 0.0
H701 H 0.02231 0.39217 0.52335 0.0
H702 H 0.04148 0.40392 0.54838 0.0
H703 H 0.08865 0.39501 0.52953 0.0
H704 H 0.12903 0.48115 0.53826 0.0
H705 H 0.08238 0.49018 0.55733 0.0
H706 H 0.09021 0.53739 0.5385 0.0
H707 H 0.91787 0.55141 0.50068 0.0
H708 H 0.86395 0.55391 0.53061 0.0
H709 H 0.9824 0.47709 0.56296 0.0
C710 C 0.10187 0.46422 0.49433 0.0
C711 C 0.10187 0.47705 0.47382 0.0
C712 C 0.05954 0.50557 0.46704 0.0
C713 C 0.01882 0.51979 0.47948 0.0
C714 C 0.01936 0.50581 0.49929 0.0
C715 C 0.0604 0.47948 0.50682 0.0
C716 C 0.05074 0.46883 0.52874 0.0
C717 C 0.05081 0.41157 0.53273 0.0
C718 C 0.09047 0.49599 0.54146 0.0
C719 C 0.99771 0.49173 0.53211 0.0
C720 C 0.98027 0.51297 0.51488 0.0
C721 C 0.9318 0.53518 0.51423 0.0
C722 C 0.90089 0.53631 0.53142 0.0
C723 C 0.91783 0.51586 0.54955 0.0
C724 C 0.9674 0.49319 0.54955 0.0
H725 H 0.61848 0.50544 0.02606 0.0
H726 H 0.51714 0.49944 0.07634 0.0
H727 H 0.44403 0.50204 0.05459 0.0
H728 H 0.53926 0.59616 0.99886 0.0
H729 H 0.55122 0.569 0.97499 0.0
H730 H 0.59781 0.56301 0.9942 0.0
H731 H 0.5967 0.46565 0.99004 0.0
H732 H 0.55004 0.47147 0.97084 0.0
H733 H 0.53742 0.43216 0.99191 0.0
H734 H 0.37742 0.50556 0.02732 0.0
H735 H 0.32648 0.51408 0.9969 0.0
H736 H 0.46511 0.52599 0.96309 0.0
C737 C 0.58104 0.50418 0.03252 0.0
C738 C 0.57532 0.50111 0.05349 0.0
C739 C 0.52446 0.50101 0.06069 0.0
C740 C 0.4817 0.50257 0.04831 0.0
C741 C 0.4883 0.5058 0.02807 0.0
C742 C 0.53666 0.50722 0.0201 0.0
C743 C 0.53182 0.51359 0.99767 0.0
C744 C 0.55652 0.56339 0.99104 0.0
C745 C 0.55541 0.46801 0.98698 0.0
C746 C 0.47392 0.51528 0.99454 0.0
C747 C 0.44962 0.51028 1.01235 0.0
C748 C 0.39638 0.51008 1.01332 0.0
C749 C 0.36729 0.5155 0.99585 0.0
C750 C 0.39064 0.522 0.97725 0.0
C751 C 0.44518 0.52144 0.97688 0.0
H752 H 0.23578 0.16669 0.13664 0.0
H753 H 0.25416 0.23436 0.07905 0.0
H754 H 0.25207 0.31938 0.094 0.0
H755 H 0.14504 0.2643 0.15411 0.0
H756 H 0.16795 0.26395 0.17906 0.0
H757 H 0.17256 0.20753 0.16421 0.0
H758 H 0.26888 0.20408 0.17077 0.0
H759 H 0.26474 0.26084 0.18545 0.0
H760 H 0.30761 0.25811 0.16484 0.0
H761 H 0.25648 0.39602 0.11472 0.0
H762 H 0.24753 0.4637 0.13876 0.0
H763 H 0.2137 0.35309 0.18425 0.0
C764 C 0.2389 0.19957 0.12724 0.0
C765 C 0.24563 0.19366 0.10654 0.0
C766 C 0.24893 0.23769 0.0948 0.0
C767 C 0.24816 0.28627 0.10322 0.0
C768 C 0.24272 0.29098 0.12355 0.0
C769 C 0.2365 0.24916 0.13544 0.0
C770 C 0.22771 0.26636 0.15676 0.0
C771 C 0.17519 0.24953 0.16396 0.0
C772 C 0.26974 0.24613 0.17025 0.0
C773 C 0.23065 0.32421 0.15489 0.0
C774 C 0.24063 0.33676 0.13556 0.0
C775 C 0.24768 0.38671 0.12983 0.0
C776 C 0.24268 0.42523 0.14388 0.0
C777 C 0.22933 0.41493 0.16377 0.0
C778 C 0.22382 0.36301 0.16933 0.0
H779 H 0.49981 0.48807 0.34019 0.0
H780 H 0.61383 0.52398 0.38381 0.0
H781 H 0.54825 0.52311 0.40976 0.0
H782 H 0.39181 0.55811 0.36188 0.0
H783 H 0.34864 0.50885 0.35486 0.0
H784 H 0.40555 0.51891 0.34074 0.0
H785 H 0.42475 0.42227 0.34689 0.0
H786 H 0.36962 0.41666 0.36236 0.0
H787 H 0.43116 0.40021 0.37184 0.0
H788 H 0.46911 0.51949 0.4313 0.0
H789 H 0.38566 0.50552 0.44686 0.0
H790 H 0.32204 0.46846 0.38983 0.0
C791 C 0.51096 0.49567 0.35522 0.0
C792 C 0.56228 0.50716 0.35982 0.0
C793 C 0.57501 0.51618 0.37975 0.0
C794 C 0.53781 0.5157 0.39465 0.0
C795 C 0.48757 0.50532 0.38961 0.0
C796 C 0.47413 0.49473 0.37039 0.0
C797 C 0.41781 0.48187 0.36917 0.0
C798 C 0.38937 0.51916 0.35583 0.0
C799 C 0.41041 0.42699 0.36215 0.0
C800 C 0.40151 0.48816 0.39056 0.0
C801 C 0.44238 0.50173 0.40209 0.0
C802 C 0.43694 0.50897 0.42234 0.0
C803 C 0.38908 0.50123 0.43108 0.0
C804 C 0.34648 0.48656 0.41971 0.0
C805 C 0.35316 0.48066 0.39905 0.0
H806 H 0.26352 0.84548 0.63293 0.0
H807 H 0.27947 0.78134 0.57457 0.0
H808 H 0.28345 0.69548 0.58888 0.0
H809 H 0.35365 0.75659 0.65622 0.0
H810 H 0.31876 0.75352 0.67897 0.0
H811 H 0.31616 0.80994 0.66416 0.0
H812 H 0.21852 0.80381 0.66344 0.0
H813 H 0.22076 0.74688 0.67797 0.0
H814 H 0.18892 0.74672 0.65454 0.0
H815 H 0.27912 0.61597 0.60914 0.0
H816 H 0.28431 0.54863 0.63384 0.0
H817 H 0.28089 0.66155 0.68036 0.0
C818 C 0.26881 0.81331 0.62325 0.0
C819 C 0.27173 0.82033 0.60254 0.0
C820 C 0.27813 0.77719 0.5904 0.0
C821 C 0.27984 0.72811 0.59843 0.0
C822 C 0.27613 0.7223 0.61879 0.0
C823 C 0.27222 0.76373 0.63113 0.0
C824 C 0.27179 0.74649 0.65259 0.0
C825 C 0.31783 0.76791 0.66364 0.0
C826 C 0.22204 0.7619 0.66273 0.0
C827 C 0.27555 0.68895 0.65034 0.0
C828 C 0.27688 0.67612 0.63063 0.0
C829 C 0.27876 0.6257 0.6246 0.0
C830 C 0.2813 0.58741 0.63891 0.0
C831 C 0.28305 0.59894 0.65932 0.0
C832 C 0.27937 0.65086 0.665 0.0
H833 H 0.99992 0.47622 0.84572 0.0
H834 H 0.87924 0.50269 0.88774 0.0
H835 H 0.94317 0.51374 0.91413 0.0
H836 H 0.08496 0.40776 0.87832 0.0
H837 H 0.14126 0.43623 0.86822 0.0
H838 H 0.08597 0.42802 0.85303 0.0
H839 H 0.08601 0.52385 0.84506 0.0
H840 H 0.14141 0.53213 0.86013 0.0
H841 H 0.08534 0.56917 0.86491 0.0
H842 H 0.02231 0.52468 0.93595 0.0
H843 H 0.10696 0.53793 0.95055 0.0
H844 H 0.17629 0.50549 0.89405 0.0
C845 C 0.9868 0.48407 0.8605 0.0
C846 C 0.93419 0.4882 0.86462 0.0
C847 C 0.91903 0.4989 0.88418 0.0
C848 C 0.95525 0.50528 0.89927 0.0
C849 C 1.00681 0.50106 0.89468 0.0
C850 C 0.02248 0.49085 0.87569 0.0
C851 C 0.08008 0.49 0.87437 0.0
C852 C 0.09918 0.43737 0.86811 0.0
C853 C 0.09933 0.53124 0.86029 0.0
C854 C 0.09463 0.50171 0.89553 0.0
C855 C 0.05185 0.50763 0.90706 0.0
C856 C 0.05587 0.51986 0.92699 0.0
C857 C 0.10441 0.52717 0.93522 0.0
C858 C 0.14897 0.52244 0.92364 0.0
C859 C 0.14348 0.50879 0.90353 0.0
H860 H 0.81789 0.64479 0.8512 0.0
H861 H 0.68069 0.56827 0.8698 0.0
H862 H 0.6632 0.63697 0.89325 0.0
H863 H 0.85477 0.68916 0.89784 0.0
H864 H 0.8772 0.75049 0.8902 0.0
H865 H 0.87753 0.69832 0.87311 0.0
H866 H 0.82377 0.7504 0.84863 0.0
H867 H 0.82376 0.80297 0.8656 0.0
H868 H 0.76466 0.77771 0.85669 0.0
H869 H 0.66617 0.7063 0.91838 0.0
H870 H 0.68393 0.77764 0.94066 0.0
H871 H 0.81429 0.81857 0.90536 0.0
C872 C 0.78318 0.64345 0.85966 0.0
C873 C 0.7504 0.60054 0.85825 0.0
C874 C 0.70638 0.6002 0.87026 0.0
C875 C 0.6961 0.63925 0.8838 0.0
C876 C 0.72974 0.67974 0.88535 0.0
C877 C 0.77189 0.68297 0.87335 0.0
C878 C 0.80235 0.7305 0.87874 0.0
C879 C 0.85616 0.71625 0.88536 0.0
C880 C 0.80372 0.76759 0.86138 0.0
C881 C 0.77145 0.75238 0.89588 0.0
C882 C 0.72987 0.72196 0.89941 0.0
C883 C 0.69786 0.73108 0.91538 0.0
C884 C 0.70823 0.77205 0.92802 0.0
C885 C 0.74948 0.80522 0.92461 0.0
C886 C 0.78144 0.79515 0.90811 0.0
H887 H 0.53396 0.53517 0.68654 0.0
H888 H 0.41419 0.53489 0.64302 0.0
H889 H 0.47813 0.54083 0.61649 0.0
H890 H 0.61894 0.62169 0.66239 0.0
H891 H 0.67553 0.58742 0.66895 0.0
H892 H 0.62029 0.58385 0.68442 0.0
H893 H 0.62156 0.48604 0.68152 0.0
H894 H 0.67662 0.48942 0.66589 0.0
H895 H 0.62055 0.45717 0.65749 0.0
H896 H 0.55656 0.55073 0.59435 0.0
H897 H 0.64125 0.55892 0.57895 0.0
H898 H 0.71073 0.54777 0.63656 0.0
C899 C 0.52124 0.53672 0.67142 0.0
C900 C 0.46873 0.53526 0.66694 0.0
C901 C 0.45395 0.53627 0.64691 0.0
C902 C 0.49014 0.53967 0.63169 0.0
C903 C 0.54153 0.54126 0.63656 0.0
C904 C 0.5571 0.53927 0.65597 0.0
C905 C 0.61474 0.53987 0.65717 0.0
C906 C 0.63346 0.58596 0.66893 0.0
C907 C 0.63454 0.49019 0.66606 0.0
C908 C 0.62913 0.54399 0.63551 0.0
C909 C 0.58637 0.54471 0.62384 0.0
C910 C 0.59021 0.54973 0.60341 0.0
C911 C 0.63867 0.55436 0.59473 0.0
C912 C 0.68327 0.55347 0.60633 0.0
C913 C 0.67785 0.54786 0.62706 0.0
H914 H 0.75981 0.28051 0.43953 0.0
H915 H 0.75633 0.1596 0.39641 0.0
H916 H 0.75769 0.22307 0.36967 0.0
H917 H 0.67565 0.36412 0.41324 0.0
H918 H 0.70811 0.42109 0.42059 0.0
H919 H 0.70985 0.36604 0.43615 0.0
H920 H 0.80785 0.36841 0.43566 0.0
H921 H 0.8063 0.42322 0.41993 0.0
H922 H 0.84074 0.36747 0.41243 0.0
H923 H 0.75785 0.30132 0.34726 0.0
H924 H 0.74997 0.38512 0.33154 0.0
H925 H 0.75 0.45653 0.38904 0.0
C926 C 0.75957 0.26732 0.42445 0.0
C927 C 0.75903 0.21453 0.42019 0.0
C928 C 0.758 0.19937 0.40019 0.0
C929 C 0.75853 0.2354 0.38485 0.0
C930 C 0.75952 0.28701 0.38956 0.0
C931 C 0.7595 0.30295 0.40893 0.0
C932 C 0.75824 0.36068 0.41003 0.0
C933 C 0.7101 0.37906 0.42063 0.0
C934 C 0.80614 0.38114 0.42011 0.0
C935 C 0.75728 0.37488 0.38831 0.0
C936 C 0.75852 0.33177 0.37675 0.0
C937 C 0.75698 0.33515 0.35626 0.0
C938 C 0.75275 0.38329 0.3474 0.0
C939 C 0.74984 0.42827 0.35884 0.0
C940 C 0.75302 0.42349 0.37966 0.0
H941 H 0.807 0.50525 0.13109 0.0
H942 H 0.88032 0.45588 0.0773 0.0
H943 H 0.96412 0.46559 0.09349 0.0
H944 H 0.90114 0.59701 0.14694 0.0
H945 H 0.89518 0.58065 0.17255 0.0
H946 H 0.84187 0.57315 0.15629 0.0
H947 H 0.83464 0.47908 0.16617 0.0
H948 H 0.88795 0.48601 0.18244 0.0
H949 H 0.88889 0.4381 0.16353 0.0
H950 H 0.04139 0.48123 0.11636 0.0
H951 H 0.10238 0.49498 0.14349 0.0
H952 H 0.97799 0.5286 0.18303 0.0
C953 C 0.84062 0.49728 0.12249 0.0
C954 C 0.83658 0.48067 0.1026 0.0
C955 C 0.88195 0.46924 0.09234 0.0
C956 C 0.92985 0.47465 0.1015 0.0
C957 C 0.93224 0.4908 0.12113 0.0
C958 C 0.88856 0.50153 0.13152 0.0
C959 C 0.90082 0.51539 0.15276 0.0
C960 C 0.88374 0.56979 0.1574 0.0
C961 C 0.87664 0.47737 0.16706 0.0
C962 C 0.95836 0.51101 0.15283 0.0
C963 C 0.97586 0.49732 0.13437 0.0
C964 C 0.02775 0.49167 0.13081 0.0
C965 C 0.06229 0.49966 0.14638 0.0
C966 C 0.04535 0.51263 0.16555 0.0
C967 C 0.99243 0.51848 0.16865 0.0
H968 H 0.78243 0.77864 0.59496 0.0
H969 H 0.80838 0.65865 0.63707 0.0
H970 H 0.79201 0.71965 0.66436 0.0
H971 H 0.84189 0.88004 0.62329 0.0
H972 H 0.79671 0.92681 0.61524 0.0
H973 H 0.81207 0.87389 0.59958 0.0
H974 H 0.71704 0.85029 0.59759 0.0
H975 H 0.70156 0.90307 0.61326 0.0
H976 H 0.68186 0.84009 0.61996 0.0
H977 H 0.76566 0.79612 0.68726 0.0
H978 H 0.73836 0.87719 0.70251 0.0
H979 H 0.73447 0.94665 0.64485 0.0
C980 C 0.78526 0.76512 0.60994 0.0
C981 C 0.79691 0.71358 0.61379 0.0
C982 C 0.80002 0.69781 0.63366 0.0
C983 C 0.79052 0.73235 0.64926 0.0
C984 C 0.77853 0.78291 0.64486 0.0
C985 C 0.7766 0.79913 0.62557 0.0
C986 C 0.76277 0.85499 0.62443 0.0
C987 C 0.80594 0.88574 0.61508 0.0
C988 C 0.71285 0.86253 0.61315 0.0
C989 C 0.75653 0.86804 0.64606 0.0
C990 C 0.76544 0.8261 0.65771 0.0
C991 C 0.75935 0.82906 0.67814 0.0
C992 C 0.74378 0.87549 0.68674 0.0
C993 C 0.73481 0.91911 0.67507 0.0
C994 C 0.74182 0.91476 0.65441 0.0
H995 H 0.84147 1.0066 0.89527 0.0
H996 H 0.9151 0.98143 0.95138 0.0
H997 H 0.99862 0.99465 0.93559 0.0
H998 H 0.93179 0.94093 0.86619 0.0
H999 H 0.92802 0.98374 0.84564 0.0
H1000 H 0.87428 0.97583 0.86165 0.0
H1001 H 0.87216 0.07218 0.86804 0.0
H1002 H 0.92613 0.08088 0.85219 0.0
H1003 H 0.92792 0.10357 0.8772 0.0
H1004 H 0.0767 1.00753 0.91246 0.0
H1005 H 0.13802 0.01962 0.88506 0.0
H1006 H 0.01268 0.03482 0.84441 0.0
C1007 C 0.87496 1.00477 0.90442 0.0
C1008 C 0.87097 0.99344 0.9248 0.0
C1009 C 0.91646 0.99049 0.93587 0.0
C1010 C 0.96436 0.99782 0.92696 0.0
C1011 C 0.96686 1.00802 0.9068 0.0
C1012 C 0.9231 0.01167 0.89572 0.0
C1013 C 0.93574 0.02129 0.87423 0.0
C1014 C 0.9163 0.97786 0.86116 0.0
C1015 C 0.91423 0.07253 0.86751 0.0
C1016 C 0.99336 0.0222 0.87482 0.0
C1017 C 0.01088 0.01465 0.89372 0.0
C1018 C 0.06304 0.01354 0.89765 0.0
C1019 C 0.09779 0.02033 0.88197 0.0
C1020 C 0.08056 0.02794 0.86248 0.0
C1021 C 0.02745 0.02884 0.85907 0.0
H1022 H 0.75551 0.07929 0.14902 0.0
H1023 H 0.79916 0.15749 0.20252 0.0
H1024 H 0.77793 0.23935 0.18707 0.0
H1025 H 0.80609 0.16991 0.11572 0.0
H1026 H 0.75578 0.16415 0.09796 0.0
H1027 H 0.77137 0.11141 0.11357 0.0
H1028 H 0.6787 0.10736 0.12575 0.0
H1029 H 0.66264 0.15994 0.1101 0.0
H1030 H 0.6496 0.16318 0.13609 0.0
H1031 H 0.75564 0.3151 0.16468 0.0
H1032 H 0.73268 0.37511 0.13806 0.0
H1033 H 0.70279 0.24816 0.0993 0.0
C1034 C 0.75982 0.11348 0.15766 0.0
C1035 C 0.77884 0.1112 0.17722 0.0
C1036 C 0.78451 0.15749 0.18766 0.0
C1037 C 0.77258 0.20451 0.17894 0.0
C1038 C 0.75478 0.20542 0.15961 0.0
C1039 C 0.74812 0.16096 0.14914 0.0
C1040 C 0.72971 0.17238 0.12839 0.0
C1041 C 0.76803 0.15333 0.11301 0.0
C1042 C 0.67703 0.14935 0.12488 0.0
C1043 C 0.72738 0.23008 0.12874 0.0
C1044 C 0.74196 0.24854 0.14689 0.0
C1045 C 0.74391 0.30078 0.15049 0.0
C1046 C 0.73079 0.33478 0.13525 0.0
C1047 C 0.7157 0.31679 0.11651 0.0
C1048 C 0.71387 0.2635 0.11343 0.0
H1049 H 0.68057 0.0207 0.39422 0.0
H1050 H 0.60812 0.026 0.45138 0.0
H1051 H 0.52627 1.00274 0.43599 0.0
H1052 H 0.57937 0.07828 0.36832 0.0
H1053 H 0.58781 0.04102 0.34633 0.0
H1054 H 0.64098 0.05336 0.36215 0.0
H1055 H 0.65757 0.95711 0.36525 0.0
H1056 H 0.60446 0.94442 0.34939 0.0
H1057 H 0.60732 0.91605 0.37344 0.0
H1058 H 0.4493 0.98017 0.41312 0.0
H1059 H 0.38821 0.96651 0.38567 0.0
H1060 H 0.5115 0.98072 0.34399 0.0
C1061 C 0.6478 0.01598 0.40362 0.0
C1062 C 0.65148 0.0245 0.42418 0.0
C1063 C 0.60685 0.01929 0.43568 0.0
C1064 C 0.55997 1.00603 0.42702 0.0
C1065 C 0.55759 0.99849 0.40668 0.0
C1066 C 0.60056 1.00359 0.39517 0.0
C1067 C 0.58781 0.99677 0.37355 0.0
C1068 C 0.59969 0.04524 0.36191 0.0
C1069 C 0.61596 0.95085 0.3649 0.0
C1070 C 0.53108 0.9872 0.37459 0.0
C1071 C 0.51405 0.98768 0.39379 0.0
C1072 C 0.4626 0.97973 0.39807 0.0
C1073 C 0.42801 0.97176 0.3824 0.0
C1074 C 0.44476 0.97242 0.36262 0.0
C1075 C 0.49716 0.97994 0.35891 0.0
H1076 H 0.26216 0.22936 0.43603 0.0
H1077 H 0.27805 0.35563 0.39594 0.0
H1078 H 0.28808 0.29589 0.36813 0.0
H1079 H 0.35164 0.14506 0.4125 0.0
H1080 H 0.31424 0.08896 0.41652 0.0
H1081 H 0.30917 0.14171 0.43323 0.0
H1082 H 0.21222 0.14525 0.42733 0.0
H1083 H 0.2173 0.09225 0.41073 0.0
H1084 H 0.18868 0.1505 0.40255 0.0
H1085 H 0.29993 0.21987 0.34419 0.0
H1086 H 0.30699 0.13692 0.32706 0.0
H1087 H 0.27851 0.06074 0.38241 0.0
C1088 C 0.26801 0.2444 0.42141 0.0
C1089 C 0.26982 0.29753 0.41832 0.0
C1090 C 0.27672 0.31533 0.39882 0.0
C1091 C 0.28251 0.28151 0.38286 0.0
C1092 C 0.28073 0.22941 0.38636 0.0
C1093 C 0.27313 0.21099 0.40519 0.0
C1094 C 0.27136 0.15334 0.40493 0.0
C1095 C 0.31415 0.13096 0.41754 0.0
C1096 C 0.2193 0.1342 0.4118 0.0
C1097 C 0.27972 0.14218 0.38316 0.0
C1098 C 0.28537 0.18643 0.37264 0.0
C1099 C 0.29504 0.18511 0.35236 0.0
C1100 C 0.29901 0.13766 0.34267 0.0
C1101 C 0.29269 0.09168 0.3531 0.0
C1102 C 0.28278 0.09472 0.37369 0.0
H1103 H 0.03287 0.01279 0.18816 0.0
H1104 H 0.91312 0.99318 0.14532 0.0
H1105 H 0.97741 0.99239 0.11861 0.0
H1106 H 0.11068 0.09668 0.15908 0.0
H1107 H 0.16952 0.07037 0.16778 0.0
H1108 H 0.11403 0.06856 0.18317 0.0
H1109 H 0.12343 0.97129 0.18635 0.0
H1110 H 0.17874 0.97285 0.17082 0.0
H1111 H 0.12592 0.93284 0.16446 0.0
H1112 H 0.05706 0.99476 0.09624 0.0
H1113 H 0.14108 1.00413 0.08064 0.0
H1114 H 0.2094 0.02267 0.13817 0.0
C1115 C 0.02 0.00845 0.17315 0.0
C1116 C 0.96747 1.003 0.16894 0.0
C1117 C 0.95277 0.99741 0.14903 0.0
C1118 C 0.98925 0.9968 0.13374 0.0
C1119 C 0.0407 1.00196 0.13844 0.0
C1120 C 0.05593 1.00797 0.15773 0.0
C1121 C 0.11335 0.01367 0.15896 0.0
C1122 C 0.12773 0.06539 0.16777 0.0
C1123 C 0.13674 0.97007 0.17085 0.0
C1124 C 0.12837 0.01028 0.13736 0.0
C1125 C 0.08594 1.00325 0.12575 0.0
C1126 C 0.0903 1.00008 0.1053 0.0
C1127 C 0.13858 1.00525 0.09652 0.0
C1128 C 0.18277 0.01359 0.10799 0.0
C1129 C 0.17706 0.01543 0.1288 0.0
H1130 H 0.26745 0.94696 0.8801 0.0
H1131 H 0.23187 0.87401 0.82466 0.0
H1132 H 0.23806 0.7902 0.84086 0.0
H1133 H 0.35579 0.85173 0.8987 0.0
H1134 H 0.33366 0.85693 0.92371 0.0
H1135 H 0.33016 0.91081 0.90756 0.0
H1136 H 0.23425 0.91869 0.91407 0.0
H1137 H 0.23695 0.8651 0.93035 0.0
H1138 H 0.19369 0.86487 0.90987 0.0
H1139 H 0.24564 0.71246 0.86413 0.0
H1140 H 0.25117 0.65112 0.89163 0.0
H1141 H 0.27841 0.77485 0.93217 0.0
C1142 C 0.26205 0.91342 0.87117 0.0
C1143 C 0.25006 0.91773 0.8508 0.0
C1144 C 0.24178 0.87233 0.84009 0.0
C1145 C 0.24511 0.82432 0.84925 0.0
C1146 C 0.25625 0.82161 0.86936 0.0
C1147 C 0.2645 0.86519 0.88017 0.0
C1148 C 0.27316 0.85241 0.90177 0.0
C1149 C 0.32636 0.86895 0.90832 0.0
C1150 C 0.23206 0.87671 0.91478 0.0
C1151 C 0.26839 0.79485 0.90154 0.0
C1152 C 0.259 0.77767 0.88267 0.0
C1153 C 0.25295 0.72585 0.8789 0.0
C1154 C 0.25618 0.69107 0.89467 0.0
C1155 C 0.26503 0.70771 0.9142 0.0
C1156 C 0.27144 0.76055 0.91749 0.0
H1157 H 0.47397 0.01448 0.68798 0.0
H1158 H 0.59191 0.03848 0.64466 0.0
H1159 H 0.52726 0.03675 0.61822 0.0
H1160 H 0.40086 0.9263 0.65875 0.0
H1161 H 0.34053 0.94889 0.66756 0.0
H1162 H 0.39579 0.9539 0.68293 0.0
H1163 H 0.38056 0.05032 0.68643 0.0
H1164 H 0.3254 0.04547 0.67098 0.0
H1165 H 0.37555 0.0888 0.66466 0.0
H1166 H 0.44801 0.03188 0.59616 0.0
H1167 H 0.36458 0.01826 0.58063 0.0
H1168 H 0.29774 0.9948 0.63819 0.0
C1169 C 0.48628 0.01951 0.67293 0.0
C1170 C 0.53843 0.02699 0.6685 0.0
C1171 C 0.55253 0.03292 0.64853 0.0
C1172 C 0.51586 0.03206 0.63339 0.0
C1173 C 0.46483 0.0248 0.63827 0.0
C1174 C 0.45014 0.01812 0.6576 0.0
C1175 C 0.39315 0.009 0.6589 0.0
C1176 C 0.38194 0.9564 0.66754 0.0
C1177 C 0.36714 0.0509 0.67096 0.0
C1178 C 0.37788 0.01171 0.63732 0.0
C1179 C 0.41974 0.02119 0.62567 0.0
C1180 C 0.41516 0.02455 0.60524 0.0
C1181 C 0.36723 0.01698 0.5965 0.0
C1182 C 0.3237 1.00589 0.608 0.0
C1183 C 0.32957 1.00395 0.6288 0.0
H1184 H 0.22734 0.14893 0.99977 0.0
H1185 H 0.29981 1.0025 1.00667 0.0
H1186 H 0.31489 0.99817 0.97101 0.0
H1187 H 0.16159 0.11271 0.95458 0.0
H1188 H 0.16639 0.17501 0.94398 0.0
H1189 H 0.16366 0.16775 0.97028 0.0
H1190 H 0.24741 0.21827 0.97344 0.0
H1191 H 0.25093 0.22469 0.94711 0.0
H1192 H 0.30295 0.19684 0.96041 0.0
H1193 H 0.32747 0.01189 0.93523 0.0
H1194 H 0.31937 0.03324 0.90007 0.0
H1195 H 0.22921 0.165 0.91528 0.0
C1196 C 0.24594 0.11587 0.99367 0.0
C1197 C 0.26317 0.07644 1.00592 0.0
C1198 C 0.2867 0.03333 0.99752 0.0
C1199 C 0.29577 0.03064 0.9773 0.0
C1200 C 0.27966 0.07068 0.96564 0.0
C1201 C 0.25369 0.11167 0.97335 0.0
C1202 C 0.23679 0.14735 0.95721 0.0
C1203 C 0.17866 0.15089 0.95647 0.0
C1204 C 0.26098 0.1999 0.9597 0.0
C1205 C 0.25781 0.12016 0.93933 0.0
C1206 C 0.28352 0.0767 0.94463 0.0
C1207 C 0.30719 0.04564 0.93084 0.0
C1208 C 0.30287 0.05834 0.91095 0.0
C1209 C 0.27404 0.10088 0.90514 0.0
C1210 C 0.25182 0.13253 0.91948 0.0
H1211 H 0.61031 0.45726 0.16914 0.0
H1212 H 0.71534 0.57543 0.15196 0.0
H1213 H 0.73811 0.58896 0.18678 0.0
H1214 H 0.56688 0.51992 0.21453 0.0
H1215 H 0.56133 0.46091 0.22762 0.0
H1216 H 0.55203 0.46247 0.2014 0.0
H1217 H 0.62107 0.39341 0.19728 0.0
H1218 H 0.63147 0.39247 0.22344 0.0
H1219 H 0.68362 0.40442 0.20698 0.0
H1220 H 0.75518 0.58393 0.22266 0.0
H1221 H 0.75552 0.57116 0.25854 0.0
H1222 H 0.6353 0.46016 0.25291 0.0
C1223 C 0.63721 0.48673 0.17282 0.0
C1224 C 0.66094 0.51557 0.15804 0.0
C1225 C 0.69633 0.55349 0.1632 0.0
C1226 C 0.70982 0.56109 0.18287 0.0
C1227 C 0.68687 0.53095 0.19709 0.0
C1228 C 0.65044 0.4954 0.19241 0.0
C1229 C 0.63132 0.4684 0.21056 0.0
C1230 C 0.57452 0.47856 0.21371 0.0
C1231 C 0.64256 0.41129 0.20949 0.0
C1232 C 0.66313 0.49399 0.22616 0.0
C1233 C 0.69541 0.52939 0.21799 0.0
C1234 C 0.72968 0.55681 0.22929 0.0
C1235 C 0.7298 0.54904 0.2496 0.0
C1236 C 0.69525 0.51489 0.25838 0.0
C1237 C 0.66204 0.48647 0.2465 0.0
H1238 H 0.28454 0.87845 0.49915 0.0
H1239 H 0.19121 0.01284 0.50505 0.0
H1240 H 0.17683 0.01332 0.46917 0.0
H1241 H 0.34515 0.91823 0.45381 0.0
H1242 H 0.34815 0.8549 0.44396 0.0
H1243 H 0.34957 0.86474 0.47015 0.0
H1244 H 0.27251 0.8047 0.47391 0.0
H1245 H 0.27022 0.79556 0.44768 0.0
H1246 H 0.21499 0.81805 0.46062 0.0
H1247 H 0.16989 0.99731 0.43309 0.0
H1248 H 0.18244 0.97461 0.3982 0.0
H1249 H 0.28502 0.85418 0.41537 0.0
C1250 C 0.26151 0.90817 0.4928 0.0
C1251 C 0.23878 0.94552 0.50473 0.0
C1252 C 0.20904 0.98403 0.49605 0.0
C1253 C 0.20031 0.98435 0.47575 0.0
C1254 C 0.22234 0.94634 0.4644 0.0
C1255 C 0.25331 0.90968 0.47251 0.0
C1256 C 0.27469 0.87493 0.45684 0.0
C1257 C 0.33283 0.87844 0.45615 0.0
C1258 C 0.25703 0.82006 0.45996 0.0
C1259 C 0.25081 0.89775 0.43868 0.0
C1260 C 0.22 0.93833 0.44343 0.0
C1261 C 0.19394 0.96565 0.42916 0.0
C1262 C 0.20095 0.95222 0.40942 0.0
C1263 C 0.23442 0.9125 0.40422 0.0
C1264 C 0.25887 0.88438 0.41904 0.0
H1265 H 0.82016 0.49612 0.66564 0.0
H1266 H 0.9539 0.59077 0.662 0.0
H1267 H 0.95803 0.59445 0.69829 0.0
H1268 H 0.76469 0.56351 0.7058 0.0
H1269 H 0.73771 0.50819 0.71719 0.0
H1270 H 0.74735 0.50962 0.69099 0.0
H1271 H 0.80192 0.42767 0.69271 0.0
H1272 H 0.78983 0.42587 0.7187 0.0
H1273 H 0.85414 0.42489 0.70977 0.0
H1274 H 0.94663 0.58948 0.73465 0.0
H1275 H 0.92177 0.5744 0.76916 0.0
H1276 H 0.7929 0.48619 0.74936 0.0
C1277 C 0.85096 0.51653 0.67254 0.0
C1278 C 0.88737 0.54239 0.66117 0.0
C1279 C 0.92614 0.57022 0.67058 0.0
C1280 C 0.92862 0.57269 0.69113 0.0
C1281 C 0.89152 0.54773 0.70198 0.0
C1282 C 0.8534 0.52019 0.69306 0.0
C1283 C 0.81684 0.49903 0.70812 0.0
C1284 C 0.7635 0.52144 0.70536 0.0
C1285 C 0.81572 0.44089 0.70727 0.0
C1286 C 0.84105 0.51805 0.72694 0.0
C1287 C 0.88393 0.54628 0.72301 0.0
C1288 C 0.91311 0.56751 0.73794 0.0
C1289 C 0.89864 0.55889 0.75747 0.0
C1290 C 0.85536 0.52947 0.76184 0.0
C1291 C 0.82588 0.5093 0.74638 0.0
H1292 H 0.84475 0.87075 0.11498 0.0
H1293 H 0.71562 0.96466 0.13038 0.0
H1294 H 0.69945 0.9807 0.09531 0.0
H1295 H 0.88893 0.94146 0.07514 0.0
H1296 H 0.90499 0.88857 0.05954 0.0
H1297 H 0.90572 0.88139 0.08586 0.0
H1298 H 0.84294 0.80632 0.08344 0.0
H1299 H 0.84285 0.8125 0.05706 0.0
H1300 H 0.78398 0.81452 0.07048 0.0
H1301 H 0.70496 0.99711 0.05979 0.0
H1302 H 0.71883 0.9978 0.0241 0.0
H1303 H 0.83696 0.88456 0.03019 0.0
C1304 C 0.81238 0.89358 0.11085 0.0
C1305 C 0.78134 0.91647 0.12526 0.0
C1306 C 0.73949 0.94642 0.1195 0.0
C1307 C 0.73025 0.9561 0.09965 0.0
C1308 C 0.76244 0.93442 0.08579 0.0
C1309 C 0.80161 0.90242 0.09099 0.0
C1310 C 0.82972 0.88351 0.07293 0.0
C1311 C 0.88565 0.89971 0.07341 0.0
C1312 C 0.82454 0.82578 0.07085 0.0
C1313 C 0.80093 0.91101 0.05688 0.0
C1314 C 0.76298 0.94087 0.0648 0.0
C1315 C 0.73364 0.97295 0.05333 0.0
C1316 C 0.74206 0.97328 0.03308 0.0
C1317 C 0.77839 0.94067 0.02444 0.0
C1318 C 0.80859 0.90941 0.03648 0.0
H1319 H 0.39262 0.58977 0.85878 0.0
H1320 H 0.27475 0.47919 0.87001 0.0
H1321 H 0.25503 0.47599 0.83459 0.0
H1322 H 0.33192 0.65693 0.82011 0.0
H1323 H 0.38804 0.66484 0.80533 0.0
H1324 H 0.39332 0.65941 0.83164 0.0
H1325 H 0.45484 0.58353 0.82779 0.0
H1326 H 0.45072 0.5895 0.80148 0.0
H1327 H 0.43617 0.52992 0.81305 0.0
H1328 H 0.24323 0.48994 0.79884 0.0
H1329 H 0.25222 0.50464 0.76332 0.0
H1330 H 0.38381 0.59911 0.77408 0.0
C1331 C 0.36333 0.5643 0.85364 0.0
C1332 C 0.33527 0.53454 0.86698 0.0
C1333 C 0.29708 0.50171 0.85992 0.0
C1334 C 0.2852 0.50012 0.83989 0.0
C1335 C 0.31266 0.5308 0.82713 0.0
C1336 C 0.35198 0.56107 0.83356 0.0
C1337 C 0.37729 0.58792 0.81649 0.0
C1338 C 0.37233 0.64571 0.81852 0.0
C1339 C 0.43305 0.57173 0.81459 0.0
C1340 C 0.34578 0.56817 0.7995 0.0
C1341 C 0.30793 0.53632 0.80612 0.0
C1342 C 0.27305 0.5143 0.79342 0.0
C1343 C 0.27826 0.52325 0.77327 0.0
C1344 C 0.31881 0.55287 0.76599 0.0
C1345 C 0.35239 0.57648 0.7793 0.0
H1346 H 0.67779 0.17002 0.61315 0.0
H1347 H 0.77099 0.03963 0.6272 0.0
H1348 H 0.77929 0.01973 0.59196 0.0
H1349 H 0.61205 0.11885 0.57284 0.0
H1350 H 0.61402 0.17488 0.55777 0.0
H1351 H 0.61558 0.18052 0.58416 0.0
H1352 H 0.69935 0.23133 0.58226 0.0
H1353 H 0.6974 0.22697 0.55584 0.0
H1354 H 0.75249 0.20523 0.569 0.0
H1355 H 0.76818 1.0075 0.5564 0.0
H1356 H 0.75763 0.01483 0.52065 0.0
H1357 H 0.68208 0.15964 0.52834 0.0
C1358 C 0.70086 0.1381 0.60865 0.0
C1359 C 0.72399 0.10639 0.62266 0.0
C1360 C 0.75369 0.06468 0.61653 0.0
C1361 C 0.75813 0.05275 0.59662 0.0
C1362 C 0.73375 0.08383 0.58313 0.0
C1363 C 0.70728 0.12667 0.58872 0.0
C1364 C 0.68684 0.15464 0.57098 0.0
C1365 C 0.62867 0.15736 0.57148 0.0
C1366 C 0.71045 0.20768 0.56943 0.0
C1367 C 0.70522 0.12015 0.55464 0.0
C1368 C 0.73102 0.07893 0.56213 0.0
C1369 C 0.74906 0.04008 0.55025 0.0
C1370 C 0.74248 0.04444 0.53 0.0
C1371 C 0.71956 0.08808 0.52186 0.0
C1372 C 0.69996 0.1261 0.5343 0.0
H1373 H 0.18381 0.49585 0.3626 0.0
H1374 H 0.10737 0.3512 0.36726 0.0
H1375 H 0.09713 0.34867 0.33109 0.0
H1376 H 0.11178 0.5466 0.32151 0.0
H1377 H 0.16633 0.57547 0.31024 0.0
H1378 H 0.16398 0.56764 0.33651 0.0
H1379 H 0.24894 0.51858 0.33541 0.0
H1380 H 0.25145 0.52605 0.30912 0.0
H1381 H 0.25476 0.4637 0.31978 0.0
H1382 H 0.09529 0.36222 0.29431 0.0
H1383 H 0.10529 0.38918 0.25963 0.0
H1384 H 0.18894 0.52139 0.27897 0.0
C1385 C 0.16407 0.46419 0.35599 0.0
C1386 C 0.1455 0.42412 0.36764 0.0
C1387 C 0.12128 0.3825 0.35852 0.0
C1388 C 0.11539 0.38072 0.33802 0.0
C1389 C 0.13475 0.42049 0.32687 0.0
C1390 C 0.1589 0.4613 0.33552 0.0
C1391 C 0.17886 0.49764 0.32015 0.0
C1392 C 0.15372 0.54992 0.32223 0.0
C1393 C 0.23694 0.5017 0.32118 0.0
C1394 C 0.16198 0.47102 0.30152 0.0
C1395 C 0.13617 0.42683 0.3057 0.0
C1396 C 0.11573 0.39656 0.29086 0.0
C1397 C 0.12161 0.41205 0.27124 0.0
C1398 C 0.14835 0.45689 0.26669 0.0
C1399 C 0.16898 0.48647 0.28204 0.0
H1400 H 0.66473 0.58899 0.42322 0.0
H1401 H 0.78043 0.69031 0.40107 0.0
H1402 H 0.80618 0.71057 0.43515 0.0
H1403 H 0.63271 0.65838 0.46871 0.0
H1404 H 0.62689 0.60115 0.48292 0.0
H1405 H 0.61248 0.60052 0.45702 0.0
H1406 H 0.67707 0.52778 0.45178 0.0
H1407 H 0.69183 0.52827 0.4776 0.0
H1408 H 0.74165 0.53612 0.45973 0.0
H1409 H 0.82215 0.71619 0.47097 0.0
H1410 H 0.83275 0.702 0.50652 0.0
H1411 H 0.71131 0.59141 0.50545 0.0
C1412 C 0.69458 0.61641 0.42567 0.0
C1413 C 0.72019 0.63902 0.40978 0.0
C1414 C 0.76026 0.67323 0.41324 0.0
C1415 C 0.77491 0.68502 0.43247 0.0
C1416 C 0.74951 0.6615 0.44791 0.0
C1417 C 0.71054 0.62751 0.44476 0.0
C1418 C 0.69352 0.60316 0.46377 0.0
C1419 C 0.63811 0.61663 0.46838 0.0
C1420 C 0.70152 0.54543 0.46318 0.0
C1421 C 0.72942 0.62837 0.47808 0.0
C1422 C 0.76068 0.66256 0.46863 0.0
C1423 C 0.79776 0.68978 0.47858 0.0
C1424 C 0.80347 0.68145 0.49873 0.0
C1425 C 0.77278 0.64567 0.50859 0.0
C1426 C 0.73507 0.61908 0.49819 0.0
H1427 H 0.19294 0.91164 0.66868 0.0
H1428 H 0.05144 0.98649 0.65463 0.0
H1429 H 0.03808 1.00562 0.68989 0.0
H1430 H 0.15783 0.86112 0.7175 0.0
H1431 H 0.21899 0.87529 0.72789 0.0
H1432 H 0.21345 0.86038 0.70211 0.0
H1433 H 0.25776 0.94483 0.69338 0.0
H1434 H 0.26312 0.96029 0.71907 0.0
H1435 H 0.232 1.00354 0.70255 0.0
H1436 H 0.04226 0.02058 0.72578 0.0
H1437 H 0.06611 0.03702 0.76018 0.0
H1438 H 0.20917 0.95943 0.75094 0.0
C1439 C 0.1585 0.93074 0.6732 0.0
C1440 C 0.12245 0.94671 0.65922 0.0
C1441 C 0.07887 0.97345 0.66532 0.0
C1442 C 0.07103 0.98432 0.68525 0.0
C1443 C 0.10773 0.96898 0.69871 0.0
C1444 C 0.15088 0.94321 0.69297 0.0
C1445 C 0.18711 0.93638 0.71006 0.0
C1446 C 0.19478 0.87993 0.71466 0.0
C1447 C 0.23798 0.96285 0.70602 0.0
C1448 C 0.15775 0.96285 0.72626 0.0
C1449 C 0.11169 0.98044 0.7194 0.0
C1450 C 0.07808 1.00686 0.73137 0.0
C1451 C 0.09201 0.01601 0.75087 0.0
C1452 C 0.13946 0.99953 0.75813 0.0
C1453 C 0.17265 0.97233 0.74571 0.0
H1454 H 0.81755 0.44624 0.92314 0.0
H1455 H 0.69689 0.34648 0.90407 0.0
H1456 H 0.682 0.32075 0.93862 0.0
H1457 H 0.86506 0.37152 0.96404 0.0
H1458 H 0.87471 0.42593 0.97962 0.0
H1459 H 0.87969 0.43214 0.95331 0.0
H1460 H 0.81207 0.50336 0.95377 0.0
H1461 H 0.80729 0.49776 0.98006 0.0
H1462 H 0.7514 0.49158 0.96505 0.0
H1463 H 0.68058 0.30641 0.97492 0.0
H1464 H 0.68187 0.31477 1.01106 0.0
H1465 H 0.7976 0.43064 1.00657 0.0
C1466 C 0.78841 0.41856 0.92631 0.0
C1467 C 0.75866 0.39761 0.91119 0.0
C1468 C 0.71998 0.36259 0.91565 0.0
C1469 C 0.71164 0.34755 0.93513 0.0
C1470 C 0.74178 0.36879 0.9498 0.0
C1471 C 0.77864 0.40435 0.94567 0.0
C1472 C 0.80191 0.42555 0.96425 0.0
C1473 C 0.85871 0.41301 0.96536 0.0
C1474 C 0.79258 0.48295 0.96587 0.0
C1475 C 0.77212 0.39658 0.97951 0.0
C1476 C 0.7386 0.36309 0.97084 0.0
C1477 C 0.70662 0.33245 0.98189 0.0
C1478 C 0.70781 0.33729 1.00237 0.0
C1479 C 0.73987 0.37333 1.01142 0.0
C1480 C 0.77299 0.40268 0.99991 0.0
H1481 H 0.33713 0.05436 0.25175 0.0
H1482 H 0.44556 0.93128 0.25563 0.0
H1483 H 0.46431 0.93983 0.22027 0.0
H1484 H 0.28718 0.02245 0.20544 0.0
H1485 H 0.28048 0.08669 0.19694 0.0
H1486 H 0.27795 0.07322 0.22284 0.0
H1487 H 0.35075 0.13713 0.22902 0.0
H1488 H 0.35339 0.15073 0.20309 0.0
H1489 H 0.40959 0.13014 0.21582 0.0
H1490 H 0.46377 0.95461 0.18413 0.0
H1491 H 0.44819 0.97931 0.14955 0.0
H1492 H 0.34574 0.09725 0.16931 0.0
C1493 C 0.36529 0.02979 0.24515 0.0
C1494 C 0.38999 0.99222 0.2563 0.0
C1495 C 0.42644 0.96046 0.24728 0.0
C1496 C 0.43735 0.96502 0.22723 0.0
C1497 C 0.41204 1.00207 0.21654 0.0
C1498 C 0.37722 0.03437 0.22518 0.0
C1499 C 0.3543 0.06992 0.21017 0.0
C1500 C 0.29657 0.0626 0.20877 0.0
C1501 C 0.36784 0.12526 0.2148 0.0
C1502 C 0.3808 0.05166 0.19172 0.0
C1503 C 0.4138 0.01236 0.19571 0.0
C1504 C 0.43901 0.98613 0.18083 0.0
C1505 C 0.42994 1.00025 0.1613 0.0
C1506 C 0.39673 0.04067 0.15699 0.0
C1507 C 0.3725 0.06716 0.17237 0.0
H1508 H 0.39287 0.40697 0.60841 0.0
H1509 H 0.24121 0.37252 0.62909 0.0
H1510 H 0.21141 0.36683 0.59493 0.0
H1511 H 0.35848 0.48504 0.56998 0.0
H1512 H 0.40534 0.46367 0.55255 0.0
H1513 H 0.41754 0.45875 0.5785 0.0
H1514 H 0.43375 0.36248 0.57492 0.0
H1515 H 0.42243 0.36716 0.54885 0.0
H1516 H 0.38647 0.32308 0.56346 0.0
H1517 H 0.1945 0.3792 0.55996 0.0
H1518 H 0.19328 0.39548 0.52444 0.0
H1519 H 0.35644 0.41549 0.52458 0.0
C1520 C 0.35384 0.39659 0.60565 0.0
C1521 C 0.31927 0.39004 0.62133 0.0
C1522 C 0.26829 0.37747 0.61727 0.0
C1523 C 0.25096 0.37424 0.59792 0.0
C1524 C 0.28532 0.38287 0.58279 0.0
C1525 C 0.33593 0.39257 0.58628 0.0
C1526 C 0.36396 0.40246 0.56714 0.0
C1527 C 0.38772 0.45564 0.56705 0.0
C1528 C 0.40403 0.36133 0.56337 0.0
C1529 C 0.32069 0.39864 0.55251 0.0
C1530 C 0.27574 0.38754 0.56202 0.0
C1531 C 0.22957 0.38654 0.55224 0.0
C1532 C 0.22925 0.39633 0.5321 0.0
C1533 C 0.27482 0.40625 0.52184 0.0
C1534 C 0.32128 0.40712 0.53211 0.0
H1535 H 0.80227 0.10149 0.36096 0.0
H1536 H 0.93311 0.01375 0.37871 0.0
H1537 H 0.96023 1.00703 0.34387 0.0
H1538 H 0.77513 0.02478 0.31941 0.0
H1539 H 0.7522 0.07632 0.30453 0.0
H1540 H 0.74711 0.07966 0.33088 0.0
H1541 H 0.79601 0.16478 0.33069 0.0
H1542 H 0.80163 0.16144 0.30431 0.0
H1543 H 0.85756 0.16793 0.31927 0.0
H1544 H 0.97261 0.01036 0.30762 0.0
H1545 H 0.96245 0.00889 0.27163 0.0
H1546 H 0.81775 0.08564 0.2772 0.0
C1547 C 0.83692 0.08143 0.3574 0.0
C1548 C 0.86635 0.05869 0.37218 0.0
C1549 C 0.91061 0.03148 0.36733 0.0
C1550 C 0.92633 0.0279 0.3477 0.0
C1551 C 0.89653 0.05087 0.33333 0.0
C1552 C 0.85212 0.07605 0.33788 0.0
C1553 C 0.82392 0.09203 0.31956 0.0
C1554 C 0.77151 0.06666 0.31854 0.0
C1555 C 0.81954 0.14999 0.31839 0.0
C1556 C 0.85929 0.07157 0.30395 0.0
C1557 C 0.90159 0.04929 0.31226 0.0
C1558 C 0.93968 0.02756 0.30092 0.0
C1559 C 0.93364 0.02714 0.28051 0.0
C1560 C 0.88928 0.04713 0.2718 0.0
C1561 C 0.85203 0.07033 0.2836 0.0
H1562 H 0.26137 0.59087 0.11275 0.0
H1563 H 0.11151 0.65639 0.11872 0.0
H1564 H 0.10769 0.66936 0.08274 0.0
H1565 H 0.30573 0.66989 0.07177 0.0
H1566 H 0.33842 0.61779 0.0602 0.0
H1567 H 0.33138 0.61941 0.08654 0.0
H1568 H 0.28932 0.53075 0.08549 0.0
H1569 H 0.2958 0.52921 0.05916 0.0
H1570 H 0.23434 0.52094 0.07026 0.0
H1571 H 0.11849 0.67047 0.04587 0.0
H1572 H 0.14317 0.65869 1.01093 0.0
H1573 H 0.28386 0.58885 0.0296 0.0
C1574 C 0.22835 0.60909 0.10649 0.0
C1575 C 0.18702 0.62333 0.11837 0.0
C1576 C 0.14373 0.64573 0.10974 0.0
C1577 C 0.14123 0.65321 0.08938 0.0
C1578 C 0.18221 0.6377 0.07795 0.0
C1579 C 0.22497 0.61612 0.0862 0.0
C1580 C 0.26218 0.59923 0.07062 0.0
C1581 C 0.31239 0.62834 0.07239 0.0
C1582 C 0.27088 0.54162 0.07143 0.0
C1583 C 0.23349 0.61427 0.05233 0.0
C1584 C 0.18766 0.63682 0.0568 0.0
C1585 C 0.15439 0.65309 0.04218 0.0
C1586 C 0.16855 0.64618 0.02245 0.0
C1587 C 0.21518 0.62283 0.01772 0.0
C1588 C 0.24788 0.60678 0.03285 0.0
H1589 H 0.68308 0.02103 0.86407 0.0
H1590 H 0.64475 0.86214 0.86994 0.0
H1591 H 0.62516 0.8579 0.8344 0.0
H1592 H 0.58848 0.0534 0.82735 0.0
H1593 H 0.63064 0.09535 0.81438 0.0
H1594 H 0.63781 0.08634 0.84047 0.0
H1595 H 0.73154 0.06001 0.83519 0.0
H1596 H 0.72454 0.06888 0.80912 0.0
H1597 H 0.74616 0.00889 0.81852 0.0
H1598 H 0.6129 0.87081 0.79789 0.0
H1599 H 0.61186 0.8996 0.76315 0.0
H1600 H 0.66058 0.04884 0.78194 0.0
C1601 C 0.66991 0.98558 0.85789 0.0
C1602 C 0.66494 0.94204 0.86957 0.0
C1603 C 0.64847 0.89597 0.86107 0.0
C1604 C 0.6372 0.89323 0.84098 0.0
C1605 C 0.64287 0.93687 0.82975 0.0
C1606 C 0.65899 0.98212 0.8379 0.0
C1607 C 0.6648 0.0228 0.82254 0.0
C1608 C 0.62823 0.06707 0.82642 0.0
C1609 C 0.72004 0.04119 0.82127 0.0
C1610 C 0.64978 0.99331 0.80446 0.0
C1611 C 0.63684 0.94395 0.80884 0.0
C1612 C 0.62271 0.90946 0.79427 0.0
C1613 C 0.62221 0.92599 0.77467 0.0
C1614 C 0.63613 0.97622 0.77005 0.0
C1615 C 0.64967 0.01017 0.78513 0.0
loop_
_geom_bond_atom_site_label_1
_geom_bond_atom_site_label_2
_geom_bond_distance
_geom_bond_site_symmetry_2
_ccdc_geom_bond_type
Tb0 O3 2.453 . S
Tb0 O4 2.596 . S
Tb0 O5 2.374 . S
Tb0 O13 2.343 . S
Tb0 O15 2.353 . S
Tb0 O17 2.427 . S
Tb0 O18 2.513 . S
C1 O5 1.251 . S
C1 O7 1.263 . S
Tb2 O4 2.343 . S
Tb2 O7 2.353 . S
Tb2 O10 2.427 . S
Tb2 O11 2.513 . S
Tb2 O12 2.453 . S
Tb2 O13 2.596 . S
Tb2 O14 2.374 . S
O3 Tb0 2.453 . S
O3 C19 1.245 . S
O4 Tb0 2.596 . S
O4 Tb2 2.343 . S
O4 C19 1.259 . S
O5 Tb0 2.374 . S
O5 C1 1.251 . S
C6 O10 1.275 . S
C6 O11 1.246 . S
O7 C1 1.263 . S
O7 Tb2 2.353 . S
C8 O12 1.245 . S
C8 O13 1.259 . S
C9 O14 1.250 . S
C9 O15 1.263 . S
O10 Tb2 2.427 . S
O10 C6 1.275 . S
O11 Tb2 2.513 . S
O11 C6 1.246 . S
O12 Tb2 2.453 . S
O12 C8 1.245 . S
O13 Tb0 2.343 . S
O13 Tb2 2.596 . S
O13 C8 1.259 . S
O14 Tb2 2.374 . S
O14 C9 1.250 . S
O15 Tb0 2.353 . S
O15 C9 1.263 . S
C16 O17 1.275 . S
C16 O18 1.246 . S
O17 Tb0 2.427 . S
O17 C16 1.275 . S
O18 Tb0 2.513 . S
O18 C16 1.246 . S
C19 O3 1.245 . S
C19 O4 1.259 . S
Tb20 O23 2.453 . S
Tb20 O24 2.596 . S
Tb20 O25 2.374 . S
Tb20 O33 2.343 . S
Tb20 O35 2.353 . S
Tb20 O37 2.427 . S
Tb20 O38 2.513 . S
C21 O25 1.251 . S
C21 O27 1.263 . S
Tb22 O24 2.343 . S
Tb22 O27 2.353 . S
Tb22 O30 2.427 . S
Tb22 O31 2.513 . S
Tb22 O32 2.453 . S
Tb22 O33 2.596 . S
Tb22 O34 2.374 . S
O23 Tb20 2.453 . S
O23 C39 1.245 . S
O24 Tb20 2.596 . S
O24 Tb22 2.343 . S
O24 C39 1.259 . S
O25 Tb20 2.374 . S
O25 C21 1.251 . S
C26 O30 1.275 . S
C26 O31 1.246 . S
O27 C21 1.263 . S
O27 Tb22 2.353 . S
C28 O32 1.245 . S
C28 O33 1.259 . S
C29 O34 1.250 . S
C29 O35 1.263 . S
O30 Tb22 2.427 . S
O30 C26 1.275 . S
O31 Tb22 2.513 . S
O31 C26 1.246 . S
O32 Tb22 2.453 . S
O32 C28 1.245 . S
O33 Tb20 2.343 . S
O33 Tb22 2.596 . S
O33 C28 1.259 . S
O34 Tb22 2.374 . S
O34 C29 1.250 . S
O35 Tb20 2.353 . S
O35 C29 1.263 . S
C36 O37 1.275 . S
C36 O38 1.246 . S
O37 Tb20 2.427 . S
O37 C36 1.275 . S
O38 Tb20 2.513 . S
O38 C36 1.246 . S
C39 O23 1.245 . S
C39 O24 1.259 . S
Tb40 O43 2.453 . S
Tb40 O44 2.596 . S
Tb40 O45 2.374 . S
Tb40 O53 2.343 . S
Tb40 O55 2.353 . S
Tb40 O57 2.427 . S
Tb40 O58 2.513 . S
C41 O45 1.251 . S
C41 O47 1.263 . S
Tb42 O44 2.343 . S
Tb42 O47 2.353 . S
Tb42 O50 2.427 . S
Tb42 O51 2.513 . S
Tb42 O52 2.453 . S
Tb42 O53 2.596 . S
Tb42 O54 2.374 . S
O43 Tb40 2.453 . S
O43 C59 1.245 . S
O44 Tb40 2.596 . S
O44 Tb42 2.343 . S
O44 C59 1.259 . S
O45 Tb40 2.374 . S
O45 C41 1.251 . S
C46 O50 1.275 . S
C46 O51 1.246 . S
O47 C41 1.263 . S
O47 Tb42 2.353 . S
C48 O52 1.245 . S
C48 O53 1.259 . S
C49 O54 1.250 . S
C49 O55 1.263 . S
O50 Tb42 2.427 . S
O50 C46 1.275 . S
O51 Tb42 2.513 . S
O51 C46 1.246 . S
O52 Tb42 2.453 . S
O52 C48 1.245 . S
O53 Tb40 2.343 . S
O53 Tb42 2.596 . S
O53 C48 1.259 . S
O54 Tb42 2.374 . S
O54 C49 1.250 . S
O55 Tb40 2.353 . S
O55 C49 1.263 . S
C56 O57 1.275 . S
C56 O58 1.246 . S
O57 Tb40 2.427 . S
O57 C56 1.275 . S
O58 Tb40 2.513 . S
O58 C56 1.246 . S
C59 O43 1.245 . S
C59 O44 1.259 . S
Tb60 O63 2.453 . S
Tb60 O64 2.596 . S
Tb60 O65 2.374 . S
Tb60 O73 2.343 . S
Tb60 O75 2.353 . S
Tb60 O77 2.427 . S
Tb60 O78 2.513 . S
C61 O65 1.251 . S
C61 O67 1.263 . S
Tb62 O64 2.343 . S
Tb62 O67 2.353 . S
Tb62 O70 2.427 . S
Tb62 O71 2.513 . S
Tb62 O72 2.453 . S
Tb62 O73 2.596 . S
Tb62 O74 2.374 . S
O63 Tb60 2.453 . S
O63 C79 1.245 . S
O64 Tb60 2.596 . S
O64 Tb62 2.343 . S
O64 C79 1.259 . S
O65 Tb60 2.374 . S
O65 C61 1.251 . S
C66 O70 1.275 . S
C66 O71 1.246 . S
O67 C61 1.263 . S
O67 Tb62 2.353 . S
C68 O72 1.245 . S
C68 O73 1.259 . S
C69 O74 1.250 . S
C69 O75 1.263 . S
O70 Tb62 2.427 . S
O70 C66 1.275 . S
O71 Tb62 2.513 . S
O71 C66 1.246 . S
O72 Tb62 2.453 . S
O72 C68 1.245 . S
O73 Tb60 2.343 . S
O73 Tb62 2.596 . S
O73 C68 1.259 . S
O74 Tb62 2.374 . S
O74 C69 1.250 . S
O75 Tb60 2.353 . S
O75 C69 1.263 . S
C76 O77 1.275 . S
C76 O78 1.246 . S
O77 Tb60 2.427 . S
O77 C76 1.275 . S
O78 Tb60 2.513 . S
O78 C76 1.246 . S
C79 O63 1.245 . S
C79 O64 1.259 . S
Tb80 O83 2.453 . S
Tb80 O84 2.596 . S
Tb80 O85 2.374 . S
Tb80 O93 2.343 . S
Tb80 O95 2.353 . S
Tb80 O97 2.427 . S
Tb80 O98 2.513 . S
C81 O85 1.251 . S
C81 O87 1.263 . S
Tb82 O84 2.343 . S
Tb82 O87 2.353 . S
Tb82 O90 2.427 . S
Tb82 O91 2.513 . S
Tb82 O92 2.453 . S
Tb82 O93 2.596 . S
Tb82 O94 2.374 . S
O83 Tb80 2.453 . S
O83 C99 1.245 . S
O84 Tb80 2.596 . S
O84 Tb82 2.343 . S
O84 C99 1.259 . S
O85 Tb80 2.374 . S
O85 C81 1.251 . S
C86 O90 1.275 . S
C86 O91 1.246 . S
O87 C81 1.263 . S
O87 Tb82 2.353 . S
C88 O92 1.245 . S
C88 O93 1.259 . S
C89 O94 1.250 . S
C89 O95 1.263 . S
O90 Tb82 2.427 . S
O90 C86 1.275 . S
O91 Tb82 2.513 . S
O91 C86 1.246 . S
O92 Tb82 2.453 . S
O92 C88 1.245 . S
O93 Tb80 2.343 . S
O93 Tb82 2.596 . S
O93 C88 1.259 . S
O94 Tb82 2.374 . S
O94 C89 1.250 . S
O95 Tb80 2.353 . S
O95 C89 1.263 . S
C96 O97 1.275 . S
C96 O98 1.246 . S
O97 Tb80 2.427 . S
O97 C96 1.275 . S
O98 Tb80 2.513 . S
O98 C96 1.246 . S
C99 O83 1.245 . S
C99 O84 1.259 . S
Tb100 O103 2.453 . S
Tb100 O104 2.596 . S
Tb100 O105 2.374 . S
Tb100 O113 2.343 . S
Tb100 O115 2.353 . S
Tb100 O117 2.427 . S
Tb100 O118 2.513 . S
C101 O105 1.251 . S
C101 O107 1.263 . S
Tb102 O104 2.343 . S
Tb102 O107 2.353 . S
Tb102 O110 2.427 . S
Tb102 O111 2.513 . S
Tb102 O112 2.453 . S
Tb102 O113 2.596 . S
Tb102 O114 2.374 . S
O103 Tb100 2.453 . S
O103 C119 1.245 . S
O104 Tb100 2.596 . S
O104 Tb102 2.343 . S
O104 C119 1.259 . S
O105 Tb100 2.374 . S
O105 C101 1.251 . S
C106 O110 1.275 . S
C106 O111 1.246 . S
O107 C101 1.263 . S
O107 Tb102 2.353 . S
C108 O112 1.245 . S
C108 O113 1.259 . S
C109 O114 1.250 . S
C109 O115 1.263 . S
O110 Tb102 2.427 . S
O110 C106 1.275 . S
O111 Tb102 2.513 . S
O111 C106 1.246 . S
O112 Tb102 2.453 . S
O112 C108 1.245 . S
O113 Tb100 2.343 . S
O113 Tb102 2.596 . S
O113 C108 1.259 . S
O114 Tb102 2.374 . S
O114 C109 1.250 . S
O115 Tb100 2.353 . S
O115 C109 1.263 . S
C116 O117 1.275 . S
C116 O118 1.246 . S
O117 Tb100 2.427 . S
O117 C116 1.275 . S
O118 Tb100 2.513 . S
O118 C116 1.246 . S
C119 O103 1.245 . S
C119 O104 1.259 . S
Tb120 O123 2.453 . S
Tb120 O124 2.596 . S
Tb120 O125 2.374 . S
Tb120 O133 2.343 . S
Tb120 O135 2.353 . S
Tb120 O137 2.427 . S
Tb120 O138 2.513 . S
C121 O125 1.251 . S
C121 O127 1.263 . S
Tb122 O124 2.343 . S
Tb122 O127 2.353 . S
Tb122 O130 2.427 . S
Tb122 O131 2.513 . S
Tb122 O132 2.453 . S
Tb122 O133 2.596 . S
Tb122 O134 2.374 . S
O123 Tb120 2.453 . S
O123 C139 1.245 . S
O124 Tb120 2.596 . S
O124 Tb122 2.343 . S
O124 C139 1.259 . S
O125 Tb120 2.374 . S
O125 C121 1.251 . S
C126 O130 1.275 . S
C126 O131 1.246 . S
O127 C121 1.263 . S
O127 Tb122 2.353 . S
C128 O132 1.245 . S
C128 O133 1.259 . S
C129 O134 1.250 . S
C129 O135 1.263 . S
O130 Tb122 2.427 . S
O130 C126 1.275 . S
O131 Tb122 2.513 . S
O131 C126 1.246 . S
O132 Tb122 2.453 . S
O132 C128 1.245 . S
O133 Tb120 2.343 . S
O133 Tb122 2.596 . S
O133 C128 1.259 . S
O134 Tb122 2.374 . S
O134 C129 1.250 . S
O135 Tb120 2.353 . S
O135 C129 1.263 . S
C136 O137 1.275 . S
C136 O138 1.246 . S
O137 Tb120 2.427 . S
O137 C136 1.275 . S
O138 Tb120 2.513 . S
O138 C136 1.246 . S
C139 O123 1.245 . S
C139 O124 1.259 . S
Tb140 O143 2.453 . S
Tb140 O144 2.596 . S
Tb140 O145 2.374 . S
Tb140 O153 2.343 . S
Tb140 O155 2.353 . S
Tb140 O157 2.427 . S
Tb140 O158 2.513 . S
C141 O145 1.251 . S
C141 O147 1.263 . S
Tb142 O144 2.343 . S
Tb142 O147 2.353 . S
Tb142 O150 2.427 . S
Tb142 O151 2.513 . S
Tb142 O152 2.453 . S
Tb142 O153 2.596 . S
Tb142 O154 2.374 . S
O143 Tb140 2.453 . S
O143 C159 1.245 . S
O144 Tb140 2.596 . S
O144 Tb142 2.343 . S
O144 C159 1.259 . S
O145 Tb140 2.374 . S
O145 C141 1.251 . S
C146 O150 1.275 . S
C146 O151 1.246 . S
O147 C141 1.263 . S
O147 Tb142 2.353 . S
C148 O152 1.245 . S
C148 O153 1.259 . S
C149 O154 1.250 . S
C149 O155 1.263 . S
O150 Tb142 2.427 . S
O150 C146 1.275 . S
O151 Tb142 2.513 . S
O151 C146 1.246 . S
O152 Tb142 2.453 . S
O152 C148 1.245 . S
O153 Tb140 2.343 . S
O153 Tb142 2.596 . S
O153 C148 1.259 . S
O154 Tb142 2.374 . S
O154 C149 1.250 . S
O155 Tb140 2.353 . S
O155 C149 1.263 . S
C156 O157 1.275 . S
C156 O158 1.246 . S
O157 Tb140 2.427 . S
O157 C156 1.275 . S
O158 Tb140 2.513 . S
O158 C156 1.246 . S
C159 O143 1.245 . S
C159 O144 1.259 . S
Tb160 O163 2.453 . S
Tb160 O164 2.596 . S
Tb160 O165 2.374 . S
Tb160 O173 2.343 . S
Tb160 O175 2.353 . S
Tb160 O177 2.427 . S
Tb160 O178 2.513 . S
C161 O165 1.251 . S
C161 O167 1.263 . S
Tb162 O164 2.343 . S
Tb162 O167 2.353 . S
Tb162 O170 2.427 . S
Tb162 O171 2.513 . S
Tb162 O172 2.453 . S
Tb162 O173 2.596 . S
Tb162 O174 2.374 . S
O163 Tb160 2.453 . S
O163 C179 1.245 . S
O164 Tb160 2.596 . S
O164 Tb162 2.343 . S
O164 C179 1.259 . S
O165 Tb160 2.374 . S
O165 C161 1.251 . S
C166 O170 1.275 . S
C166 O171 1.246 . S
O167 C161 1.263 . S
O167 Tb162 2.353 . S
C168 O172 1.245 . S
C168 O173 1.259 . S
C169 O174 1.250 . S
C169 O175 1.263 . S
O170 Tb162 2.427 . S
O170 C166 1.275 . S
O171 Tb162 2.513 . S
O171 C166 1.246 . S
O172 Tb162 2.453 . S
O172 C168 1.245 . S
O173 Tb160 2.343 . S
O173 Tb162 2.596 . S
O173 C168 1.259 . S
O174 Tb162 2.374 . S
O174 C169 1.250 . S
O175 Tb160 2.353 . S
O175 C169 1.263 . S
C176 O177 1.275 . S
C176 O178 1.246 . S
O177 Tb160 2.427 . S
O177 C176 1.275 . S
O178 Tb160 2.513 . S
O178 C176 1.246 . S
C179 O163 1.245 . S
C179 O164 1.259 . S
Tb180 O183 2.453 . S
Tb180 O184 2.596 . S
Tb180 O185 2.374 . S
Tb180 O193 2.343 . S
Tb180 O195 2.355 . S
Tb180 O197 2.427 . S
Tb180 O198 2.513 . S
C181 O185 1.251 . S
C181 O187 1.263 . S
Tb182 O184 2.343 . S
Tb182 O187 2.353 . S
Tb182 O190 2.427 . S
Tb182 O191 2.513 1_545 S
Tb182 O192 2.453 1_545 S
Tb182 O193 2.596 . S
Tb182 O194 2.374 1_545 S
O183 Tb180 2.453 . S
O183 C199 1.245 . S
O184 Tb180 2.596 . S
O184 Tb182 2.343 . S
O184 C199 1.259 . S
O185 Tb180 2.374 . S
O185 C181 1.251 . S
C186 O190 1.275 . S
C186 O191 1.246 1_545 S
O187 C181 1.263 . S
O187 Tb182 2.353 . S
C188 O192 1.245 1_545 S
C188 O193 1.259 . S
C189 O194 1.250 . S
C189 O195 1.262 1_565 S
O190 Tb182 2.427 . S
O190 C186 1.275 . S
O191 Tb182 2.513 1_565 S
O191 C186 1.246 1_565 S
O192 Tb182 2.453 1_565 S
O192 C188 1.245 1_565 S
O193 Tb180 2.343 . S
O193 Tb182 2.596 . S
O193 C188 1.259 . S
O194 Tb182 2.374 1_565 S
O194 C189 1.250 . S
O195 Tb180 2.355 . S
O195 C189 1.262 1_545 S
C196 O197 1.275 . S
C196 O198 1.246 . S
O197 Tb180 2.427 . S
O197 C196 1.275 . S
O198 Tb180 2.513 . S
O198 C196 1.246 . S
C199 O183 1.245 . S
C199 O184 1.259 . S
Tb200 O203 2.453 . S
Tb200 O204 2.596 . S
Tb200 O205 2.374 . S
Tb200 O213 2.343 . S
Tb200 O215 2.353 . S
Tb200 O217 2.427 . S
Tb200 O218 2.513 . S
C201 O205 1.251 . S
C201 O207 1.263 . S
Tb202 O204 2.343 . S
Tb202 O207 2.353 . S
Tb202 O210 2.427 . S
Tb202 O211 2.513 . S
Tb202 O212 2.453 . S
Tb202 O213 2.596 . S
Tb202 O214 2.374 . S
O203 Tb200 2.453 . S
O203 C219 1.245 . S
O204 Tb200 2.596 . S
O204 Tb202 2.343 . S
O204 C219 1.259 . S
O205 Tb200 2.374 . S
O205 C201 1.251 . S
C206 O210 1.275 . S
C206 O211 1.246 . S
O207 C201 1.263 . S
O207 Tb202 2.353 . S
C208 O212 1.245 . S
C208 O213 1.259 . S
C209 O214 1.250 . S
C209 O215 1.263 . S
O210 Tb202 2.427 . S
O210 C206 1.275 . S
O211 Tb202 2.513 . S
O211 C206 1.246 . S
O212 Tb202 2.453 . S
O212 C208 1.245 . S
O213 Tb200 2.343 . S
O213 Tb202 2.596 . S
O213 C208 1.259 . S
O214 Tb202 2.374 . S
O214 C209 1.250 . S
O215 Tb200 2.353 . S
O215 C209 1.263 . S
C216 O217 1.275 . S
C216 O218 1.246 . S
O217 Tb200 2.427 . S
O217 C216 1.275 . S
O218 Tb200 2.513 . S
O218 C216 1.246 . S
C219 O203 1.245 . S
C219 O204 1.259 . S
Tb220 O223 2.453 . S
Tb220 O224 2.596 . S
Tb220 O225 2.374 . S
Tb220 O233 2.343 . S
Tb220 O235 2.355 . S
Tb220 O237 2.427 . S
Tb220 O238 2.513 . S
C221 O225 1.251 . S
C221 O227 1.263 . S
Tb222 O224 2.343 . S
Tb222 O227 2.353 . S
Tb222 O230 2.427 . S
Tb222 O231 2.513 1_565 S
Tb222 O232 2.453 1_565 S
Tb222 O233 2.596 . S
Tb222 O234 2.374 1_565 S
O223 Tb220 2.453 . S
O223 C239 1.245 . S
O224 Tb220 2.596 . S
O224 Tb222 2.343 . S
O224 C239 1.259 . S
O225 Tb220 2.374 . S
O225 C221 1.251 . S
C226 O230 1.275 . S
C226 O231 1.246 1_565 S
O227 C221 1.263 . S
O227 Tb222 2.353 . S
C228 O232 1.245 1_565 S
C228 O233 1.259 . S
C229 O234 1.250 . S
C229 O235 1.262 1_545 S
O230 Tb222 2.427 . S
O230 C226 1.275 . S
O231 Tb222 2.513 1_545 S
O231 C226 1.246 1_545 S
O232 Tb222 2.453 1_545 S
O232 C228 1.245 1_545 S
O233 Tb220 2.343 . S
O233 Tb222 2.596 . S
O233 C228 1.259 . S
O234 Tb222 2.374 1_545 S
O234 C229 1.250 . S
O235 Tb220 2.355 . S
O235 C229 1.262 1_565 S
C236 O237 1.275 . S
C236 O238 1.246 . S
O237 Tb220 2.427 . S
O237 C236 1.275 . S
O238 Tb220 2.513 . S
O238 C236 1.246 . S
C239 O223 1.245 . S
C239 O224 1.259 . S
Tb240 O243 2.453 . S
Tb240 O244 2.596 . S
Tb240 O245 2.374 . S
Tb240 O253 2.343 . S
Tb240 O255 2.353 . S
Tb240 O257 2.427 . S
Tb240 O258 2.513 . S
C241 O245 1.251 . S
C241 O247 1.263 . S
Tb242 O244 2.343 . S
Tb242 O247 2.353 . S
Tb242 O250 2.427 . S
Tb242 O251 2.513 . S
Tb242 O252 2.453 . S
Tb242 O253 2.596 . S
Tb242 O254 2.374 . S
O243 Tb240 2.453 . S
O243 C259 1.245 . S
O244 Tb240 2.596 . S
O244 Tb242 2.343 . S
O244 C259 1.259 . S
O245 Tb240 2.374 . S
O245 C241 1.251 . S
C246 O250 1.275 . S
C246 O251 1.246 . S
O247 C241 1.263 . S
O247 Tb242 2.353 . S
C248 O252 1.245 . S
C248 O253 1.259 . S
C249 O254 1.250 . S
C249 O255 1.263 . S
O250 Tb242 2.427 . S
O250 C246 1.275 . S
O251 Tb242 2.513 . S
O251 C246 1.246 . S
O252 Tb242 2.453 . S
O252 C248 1.245 . S
O253 Tb240 2.343 . S
O253 Tb242 2.596 . S
O253 C248 1.259 . S
O254 Tb242 2.374 . S
O254 C249 1.250 . S
O255 Tb240 2.353 . S
O255 C249 1.263 . S
C256 O257 1.275 . S
C256 O258 1.246 . S
O257 Tb240 2.427 . S
O257 C256 1.275 . S
O258 Tb240 2.513 . S
O258 C256 1.246 . S
C259 O243 1.245 . S
C259 O244 1.259 . S
Tb260 O263 2.453 1_565 S
Tb260 O264 2.596 . S
Tb260 O265 2.374 1_565 S
Tb260 O273 2.343 . S
Tb260 O275 2.353 . S
Tb260 O277 2.427 . S
Tb260 O278 2.513 1_565 S
C261 O265 1.251 . S
C261 O267 1.262 1_545 S
Tb262 O264 2.343 . S
Tb262 O267 2.355 . S
Tb262 O270 2.427 . S
Tb262 O271 2.513 . S
Tb262 O272 2.453 . S
Tb262 O273 2.596 . S
Tb262 O274 2.374 . S
O263 Tb260 2.453 1_545 S
O263 C279 1.245 1_545 S
O264 Tb260 2.596 . S
O264 Tb262 2.343 . S
O264 C279 1.259 . S
O265 Tb260 2.374 1_545 S
O265 C261 1.251 . S
C266 O270 1.275 . S
C266 O271 1.246 . S
O267 C261 1.262 1_565 S
O267 Tb262 2.355 . S
C268 O272 1.245 . S
C268 O273 1.259 . S
C269 O274 1.250 . S
C269 O275 1.263 . S
O270 Tb262 2.427 . S
O270 C266 1.275 . S
O271 Tb262 2.513 . S
O271 C266 1.246 . S
O272 Tb262 2.453 . S
O272 C268 1.245 . S
O273 Tb260 2.343 . S
O273 Tb262 2.596 . S
O273 C268 1.259 . S
O274 Tb262 2.374 . S
O274 C269 1.250 . S
O275 Tb260 2.353 . S
O275 C269 1.263 . S
C276 O277 1.275 . S
C276 O278 1.246 1_565 S
O277 Tb260 2.427 . S
O277 C276 1.275 . S
O278 Tb260 2.513 1_545 S
O278 C276 1.246 1_545 S
C279 O263 1.245 1_565 S
C279 O264 1.259 . S
Tb280 O283 2.453 . S
Tb280 O284 2.596 . S
Tb280 O285 2.374 . S
Tb280 O293 2.343 . S
Tb280 O295 2.353 . S
Tb280 O297 2.427 . S
Tb280 O298 2.513 . S
C281 O285 1.251 . S
C281 O287 1.263 . S
Tb282 O284 2.343 . S
Tb282 O287 2.353 . S
Tb282 O290 2.427 . S
Tb282 O291 2.513 . S
Tb282 O292 2.453 . S
Tb282 O293 2.596 . S
Tb282 O294 2.374 . S
O283 Tb280 2.453 . S
O283 C299 1.245 . S
O284 Tb280 2.596 . S
O284 Tb282 2.343 . S
O284 C299 1.259 . S
O285 Tb280 2.374 . S
O285 C281 1.251 . S
C286 O290 1.275 . S
C286 O291 1.246 . S
O287 C281 1.263 . S
O287 Tb282 2.353 . S
C288 O292 1.245 . S
C288 O293 1.259 . S
C289 O294 1.250 . S
C289 O295 1.263 . S
O290 Tb282 2.427 . S
O290 C286 1.275 . S
O291 Tb282 2.513 . S
O291 C286 1.246 . S
O292 Tb282 2.453 . S
O292 C288 1.245 . S
O293 Tb280 2.343 . S
O293 Tb282 2.596 . S
O293 C288 1.259 . S
O294 Tb282 2.374 . S
O294 C289 1.250 . S
O295 Tb280 2.353 . S
O295 C289 1.263 . S
C296 O297 1.275 . S
C296 O298 1.246 . S
O297 Tb280 2.427 . S
O297 C296 1.275 . S
O298 Tb280 2.513 . S
O298 C296 1.246 . S
C299 O283 1.245 . S
C299 O284 1.259 . S
Tb300 O303 2.453 1_545 S
Tb300 O304 2.596 . S
Tb300 O305 2.374 1_545 S
Tb300 O313 2.343 . S
Tb300 O315 2.353 . S
Tb300 O317 2.427 . S
Tb300 O318 2.513 1_545 S
C301 O305 1.251 . S
C301 O307 1.262 1_565 S
Tb302 O304 2.343 . S
Tb302 O307 2.355 . S
Tb302 O310 2.427 . S
Tb302 O311 2.513 . S
Tb302 O312 2.453 . S
Tb302 O313 2.596 . S
Tb302 O314 2.374 . S
O303 Tb300 2.453 1_565 S
O303 C319 1.245 1_565 S
O304 Tb300 2.596 . S
O304 Tb302 2.343 . S
O304 C319 1.259 . S
O305 Tb300 2.374 1_565 S
O305 C301 1.251 . S
C306 O310 1.275 . S
C306 O311 1.246 . S
O307 C301 1.262 1_545 S
O307 Tb302 2.355 . S
C308 O312 1.245 . S
C308 O313 1.259 . S
C309 O314 1.250 . S
C309 O315 1.263 . S
O310 Tb302 2.427 . S
O310 C306 1.275 . S
O311 Tb302 2.513 . S
O311 C306 1.246 . S
O312 Tb302 2.453 . S
O312 C308 1.245 . S
O313 Tb300 2.343 . S
O313 Tb302 2.596 . S
O313 C308 1.259 . S
O314 Tb302 2.374 . S
O314 C309 1.250 . S
O315 Tb300 2.353 . S
O315 C309 1.263 . S
C316 O317 1.275 . S
C316 O318 1.246 1_545 S
O317 Tb300 2.427 . S
O317 C316 1.275 . S
O318 Tb300 2.513 1_565 S
O318 C316 1.246 1_565 S
C319 O303 1.245 1_545 S
C319 O304 1.259 . S
H320 C332 0.930 . S
H321 C334 0.930 . S
H322 C335 0.930 . S
H323 C339 0.959 . S
H324 C339 0.959 . S
H325 C339 0.961 . S
H326 C340 0.960 . S
H327 C340 0.961 . S
H328 C340 0.959 . S
H329 C343 0.929 . S
H330 C344 0.931 . S
H331 C346 0.930 . S
C332 H320 0.930 . S
C332 C333 1.399 . S
C332 C337 1.399 . S
C333 C332 1.399 . S
C333 C334 1.376 . S
C334 H321 0.930 . S
C334 C333 1.376 . S
C334 C335 1.388 . S
C335 H322 0.930 . S
C335 C334 1.388 . S
C335 C336 1.390 . S
C336 C335 1.390 . S
C336 C337 1.394 . S
C336 C342 1.465 . S
C337 C332 1.399 . S
C337 C336 1.394 . S
C337 C338 1.516 . S
C338 C337 1.516 . S
C338 C339 1.502 . S
C338 C340 1.561 . S
C338 C341 1.526 . S
C339 H323 0.959 . S
C339 H324 0.959 . S
C339 H325 0.961 . S
C339 C338 1.502 . S
C340 H326 0.960 . S
C340 H327 0.961 . S
C340 H328 0.959 . S
C340 C338 1.561 . S
C341 C338 1.526 . S
C341 C342 1.396 . S
C341 C346 1.390 . S
C342 C336 1.465 . S
C342 C341 1.396 . S
C342 C343 1.399 . S
C343 H329 0.929 . S
C343 C342 1.399 . S
C343 C344 1.385 . S
C344 H330 0.931 . S
C344 C343 1.385 . S
C344 C345 1.389 . S
C345 C344 1.389 . S
C345 C346 1.387 . S
C346 H331 0.930 . S
C346 C341 1.390 . S
C346 C345 1.387 . S
H347 C359 0.930 . S
H348 C361 0.930 . S
H349 C362 0.930 . S
H350 C366 0.959 . S
H351 C366 0.959 . S
H352 C366 0.961 . S
H353 C367 0.960 . S
H354 C367 0.961 . S
H355 C367 0.959 . S
H356 C370 0.929 . S
H357 C371 0.931 . S
H358 C373 0.930 . S
C359 H347 0.930 . S
C359 C360 1.399 . S
C359 C364 1.399 . S
C360 C359 1.399 . S
C360 C361 1.376 . S
C361 H348 0.930 . S
C361 C360 1.376 . S
C361 C362 1.388 . S
C362 H349 0.930 . S
C362 C361 1.388 . S
C362 C363 1.390 . S
C363 C362 1.390 . S
C363 C364 1.394 . S
C363 C369 1.465 . S
C364 C359 1.399 . S
C364 C363 1.394 . S
C364 C365 1.516 . S
C365 C364 1.516 . S
C365 C366 1.502 . S
C365 C367 1.561 . S
C365 C368 1.526 . S
C366 H350 0.959 . S
C366 H351 0.959 . S
C366 H352 0.961 . S
C366 C365 1.502 . S
C367 H353 0.960 . S
C367 H354 0.961 . S
C367 H355 0.959 . S
C367 C365 1.561 . S
C368 C365 1.526 . S
C368 C369 1.396 . S
C368 C373 1.390 . S
C369 C363 1.465 . S
C369 C368 1.396 . S
C369 C370 1.399 . S
C370 H356 0.929 . S
C370 C369 1.399 . S
C370 C371 1.385 . S
C371 H357 0.931 . S
C371 C370 1.385 . S
C371 C372 1.389 . S
C372 C371 1.389 . S
C372 C373 1.387 . S
C373 H358 0.930 . S
C373 C368 1.390 . S
C373 C372 1.387 . S
H374 C386 0.930 . S
H375 C388 0.930 . S
H376 C389 0.930 . S
H377 C393 0.959 . S
H378 C393 0.959 . S
H379 C393 0.961 . S
H380 C394 0.960 . S
H381 C394 0.961 1_655 S
H382 C394 0.959 . S
H383 C397 0.929 . S
H384 C398 0.931 . S
H385 C400 0.930 . S
C386 H374 0.930 . S
C386 C387 1.399 . S
C386 C391 1.399 . S
C387 C386 1.399 . S
C387 C388 1.376 . S
C388 H375 0.930 . S
C388 C387 1.376 . S
C388 C389 1.388 . S
C389 H376 0.930 . S
C389 C388 1.388 . S
C389 C390 1.390 . S
C390 C389 1.390 . S
C390 C391 1.394 . S
C390 C396 1.465 1_455 S
C391 C386 1.399 . S
C391 C390 1.394 . S
C391 C392 1.516 1_455 S
C392 C391 1.516 1_655 S
C392 C393 1.502 . S
C392 C394 1.561 1_655 S
C392 C395 1.526 . S
C393 H377 0.959 . S
C393 H378 0.959 . S
C393 H379 0.961 . S
C393 C392 1.502 . S
C394 H380 0.960 . S
C394 H381 0.961 1_455 S
C394 H382 0.959 . S
C394 C392 1.561 1_455 S
C395 C392 1.526 . S
C395 C396 1.396 . S
C395 C400 1.390 . S
C396 C390 1.465 1_655 S
C396 C395 1.396 . S
C396 C397 1.399 . S
C397 H383 0.929 . S
C397 C396 1.399 . S
C397 C398 1.385 . S
C398 H384 0.931 . S
C398 C397 1.385 . S
C398 C399 1.389 . S
C399 C398 1.389 . S
C399 C400 1.387 . S
C400 H385 0.930 . S
C400 C395 1.390 . S
C400 C399 1.387 . S
H401 C413 0.930 . S
H402 C415 0.930 . S
H403 C416 0.930 . S
H404 C420 0.959 . S
H405 C420 0.959 . S
H406 C420 0.961 . S
H407 C421 0.960 . S
H408 C421 0.961 . S
H409 C421 0.959 . S
H410 C424 0.929 . S
H411 C425 0.931 . S
H412 C427 0.930 . S
C413 H401 0.930 . S
C413 C414 1.399 . S
C413 C418 1.399 . S
C414 C413 1.399 . S
C414 C415 1.376 . S
C415 H402 0.930 . S
C415 C414 1.376 . S
C415 C416 1.388 . S
C416 H403 0.930 . S
C416 C415 1.388 . S
C416 C417 1.390 . S
C417 C416 1.390 . S
C417 C418 1.394 . S
C417 C423 1.465 1_455 S
C418 C413 1.399 . S
C418 C417 1.394 . S
C418 C419 1.516 . S
C419 C418 1.516 . S
C419 C420 1.502 . S
C419 C421 1.561 1_455 S
C419 C422 1.526 1_455 S
C420 H404 0.959 . S
C420 H405 0.959 . S
C420 H406 0.961 . S
C420 C419 1.502 . S
C421 H407 0.960 . S
C421 H408 0.961 . S
C421 H409 0.959 . S
C421 C419 1.561 1_655 S
C422 C419 1.526 1_655 S
C422 C423 1.396 . S
C422 C427 1.390 . S
C423 C417 1.465 1_655 S
C423 C422 1.396 . S
C423 C424 1.399 . S
C424 H410 0.929 . S
C424 C423 1.399 . S
C424 C425 1.385 . S
C425 H411 0.931 . S
C425 C424 1.385 . S
C425 C426 1.389 . S
C426 C425 1.389 . S
C426 C427 1.387 . S
C427 H412 0.930 . S
C427 C422 1.390 . S
C427 C426 1.387 . S
H428 C440 0.930 . S
H429 C442 0.930 . S
H430 C443 0.930 . S
H431 C447 0.959 . S
H432 C447 0.959 . S
H433 C447 0.961 . S
H434 C448 0.960 . S
H435 C448 0.961 . S
H436 C448 0.959 . S
H437 C451 0.929 . S
H438 C452 0.931 . S
H439 C454 0.930 . S
C440 H428 0.930 . S
C440 C441 1.399 . S
C440 C445 1.399 . S
C441 C440 1.399 . S
C441 C442 1.376 . S
C442 H429 0.930 . S
C442 C441 1.376 . S
C442 C443 1.388 . S
C443 H430 0.930 . S
C443 C442 1.388 . S
C443 C444 1.390 . S
C444 C443 1.390 . S
C444 C445 1.394 . S
C444 C450 1.465 . S
C445 C440 1.399 . S
C445 C444 1.394 . S
C445 C446 1.516 . S
C446 C445 1.516 . S
C446 C447 1.502 . S
C446 C448 1.561 . S
C446 C449 1.526 . S
C447 H431 0.959 . S
C447 H432 0.959 . S
C447 H433 0.961 . S
C447 C446 1.502 . S
C448 H434 0.960 . S
C448 H435 0.961 . S
C448 H436 0.959 . S
C448 C446 1.561 . S
C449 C446 1.526 . S
C449 C450 1.396 . S
C449 C454 1.390 . S
C450 C444 1.465 . S
C450 C449 1.396 . S
C450 C451 1.399 . S
C451 H437 0.929 . S
C451 C450 1.399 . S
C451 C452 1.385 . S
C452 H438 0.931 . S
C452 C451 1.385 . S
C452 C453 1.389 . S
C453 C452 1.389 . S
C453 C454 1.387 . S
C454 H439 0.930 . S
C454 C449 1.390 . S
C454 C453 1.387 . S
H455 C467 0.930 . S
H456 C469 0.930 . S
H457 C470 0.930 . S
H458 C474 0.959 . S
H459 C474 0.959 . S
H460 C474 0.961 . S
H461 C475 0.960 . S
H462 C475 0.961 . S
H463 C475 0.959 . S
H464 C478 0.929 . S
H465 C479 0.931 . S
H466 C481 0.930 . S
C467 H455 0.930 . S
C467 C468 1.399 . S
C467 C472 1.399 . S
C468 C467 1.399 . S
C468 C469 1.376 . S
C469 H456 0.930 . S
C469 C468 1.376 . S
C469 C470 1.388 . S
C470 H457 0.930 . S
C470 C469 1.388 . S
C470 C471 1.390 . S
C471 C470 1.390 . S
C471 C472 1.394 . S
C471 C477 1.465 . S
C472 C467 1.399 . S
C472 C471 1.394 . S
C472 C473 1.516 . S
C473 C472 1.516 . S
C473 C474 1.502 . S
C473 C475 1.561 . S
C473 C476 1.526 . S
C474 H458 0.959 . S
C474 H459 0.959 . S
C474 H460 0.961 . S
C474 C473 1.502 . S
C475 H461 0.960 . S
C475 H462 0.961 . S
C475 H463 0.959 . S
C475 C473 1.561 . S
C476 C473 1.526 . S
C476 C477 1.396 . S
C476 C481 1.390 . S
C477 C471 1.465 . S
C477 C476 1.396 . S
C477 C478 1.399 . S
C478 H464 0.929 . S
C478 C477 1.399 . S
C478 C479 1.385 . S
C479 H465 0.931 . S
C479 C478 1.385 . S
C479 C480 1.389 . S
C480 C479 1.389 . S
C480 C481 1.387 . S
C481 H466 0.930 . S
C481 C476 1.390 . S
C481 C480 1.387 . S
H482 C494 0.930 . S
H483 C496 0.930 . S
H484 C497 0.930 . S
H485 C501 0.959 . S
H486 C501 0.959 . S
H487 C501 0.961 . S
H488 C502 0.960 . S
H489 C502 0.961 1_655 S
H490 C502 0.959 . S
H491 C505 0.929 . S
H492 C506 0.931 . S
H493 C508 0.930 . S
C494 H482 0.930 . S
C494 C495 1.399 . S
C494 C499 1.399 . S
C495 C494 1.399 . S
C495 C496 1.376 . S
C496 H483 0.930 . S
C496 C495 1.376 . S
C496 C497 1.388 . S
C497 H484 0.930 . S
C497 C496 1.388 . S
C497 C498 1.390 . S
C498 C497 1.390 . S
C498 C499 1.394 . S
C498 C504 1.465 1_455 S
C499 C494 1.399 . S
C499 C498 1.394 . S
C499 C500 1.516 1_455 S
C500 C499 1.516 1_655 S
C500 C501 1.502 . S
C500 C502 1.561 1_655 S
C500 C503 1.526 . S
C501 H485 0.959 . S
C501 H486 0.959 . S
C501 H487 0.961 . S
C501 C500 1.502 . S
C502 H488 0.960 . S
C502 H489 0.961 1_455 S
C502 H490 0.959 . S
C502 C500 1.561 1_455 S
C503 C500 1.526 . S
C503 C504 1.396 . S
C503 C508 1.390 . S
C504 C498 1.465 1_655 S
C504 C503 1.396 . S
C504 C505 1.399 . S
C505 H491 0.929 . S
C505 C504 1.399 . S
C505 C506 1.385 . S
C506 H492 0.931 . S
C506 C505 1.385 . S
C506 C507 1.389 . S
C507 C506 1.389 . S
C507 C508 1.387 . S
C508 H493 0.930 . S
C508 C503 1.390 . S
C508 C507 1.387 . S
H509 C521 0.930 . S
H510 C523 0.930 . S
H511 C524 0.930 . S
H512 C528 0.959 . S
H513 C528 0.959 . S
H514 C528 0.961 . S
H515 C529 0.960 . S
H516 C529 0.968 . S
H517 C529 0.959 . S
H518 C532 0.929 . S
H519 C533 0.931 . S
H520 C535 0.930 . S
C521 H509 0.930 . S
C521 C522 1.399 . S
C521 C526 1.399 . S
C522 C521 1.399 . S
C522 C523 1.376 . S
C523 H510 0.930 . S
C523 C522 1.376 . S
C523 C524 1.388 . S
C524 H511 0.930 . S
C524 C523 1.388 . S
C524 C525 1.390 . S
C525 C524 1.390 . S
C525 C526 1.394 . S
C525 C531 1.465 1_455 S
C526 C521 1.399 . S
C526 C525 1.394 . S
C526 C527 1.516 1_455 S
C527 C526 1.516 1_655 S
C527 C528 1.502 . S
C527 C529 1.561 1_655 S
C527 C530 1.526 . S
C528 H512 0.959 . S
C528 H513 0.959 . S
C528 H514 0.961 . S
C528 C527 1.502 . S
C529 H515 0.960 . S
C529 H516 0.968 . S
C529 H517 0.959 . S
C529 C527 1.561 1_455 S
C530 C527 1.526 . S
C530 C531 1.396 . S
C530 C535 1.390 . S
C531 C525 1.465 1_655 S
C531 C530 1.396 . S
C531 C532 1.399 . S
C532 H518 0.929 . S
C532 C531 1.399 . S
C532 C533 1.385 . S
C533 H519 0.931 . S
C533 C532 1.385 . S
C533 C534 1.389 . S
C534 C533 1.389 . S
C534 C535 1.387 . S
C535 H520 0.930 . S
C535 C530 1.390 . S
C535 C534 1.387 . S
H536 C548 0.930 . S
H537 C550 0.930 . S
H538 C551 0.930 1_556 S
H539 C555 0.959 . S
H540 C555 0.959 . S
H541 C555 0.961 . S
H542 C556 0.960 1_554 S
H543 C556 0.961 . S
H544 C556 0.959 . S
H545 C559 0.929 . S
H546 C560 0.931 . S
H547 C562 0.930 . S
C548 H536 0.930 . S
C548 C549 1.399 1_565 S
C548 C553 1.399 . S
C549 C548 1.399 1_545 S
C549 C550 1.376 . S
C550 H537 0.930 . S
C550 C549 1.376 . S
C550 C551 1.388 . S
C551 H538 0.930 1_554 S
C551 C550 1.388 . S
C551 C552 1.392 . S
C552 C551 1.392 . S
C552 C553 1.411 1_545 S
C552 C558 1.449 1_554 S
C553 C548 1.399 . S
C553 C552 1.411 1_565 S
C553 C554 1.516 . S
C554 C553 1.516 . S
C554 C555 1.502 . S
C554 C556 1.561 1_554 S
C554 C557 1.526 1_554 S
C555 H539 0.959 . S
C555 H540 0.959 . S
C555 H541 0.961 . S
C555 C554 1.502 . S
C556 H542 0.960 1_556 S
C556 H543 0.961 . S
C556 H544 0.959 . S
C556 C554 1.561 1_556 S
C557 C554 1.526 1_556 S
C557 C558 1.396 1_565 S
C557 C562 1.390 . S
C558 C552 1.449 1_556 S
C558 C557 1.396 1_545 S
C558 C559 1.399 . S
C559 H545 0.929 . S
C559 C558 1.399 . S
C559 C560 1.385 . S
C560 H546 0.931 . S
C560 C559 1.385 . S
C560 C561 1.389 1_545 S
C561 C560 1.389 1_565 S
C561 C562 1.387 . S
C562 H547 0.930 . S
C562 C557 1.390 . S
C562 C561 1.387 . S
H563 C575 0.930 . S
H564 C577 0.930 . S
H565 C578 0.930 . S
H566 C582 0.959 . S
H567 C582 0.959 . S
H568 C582 0.961 . S
H569 C583 0.960 . S
H570 C583 0.961 . S
H571 C583 0.959 . S
H572 C586 0.929 . S
H573 C587 0.931 . S
H574 C589 0.930 . S
C575 H563 0.930 . S
C575 C576 1.399 . S
C575 C580 1.399 . S
C576 C575 1.399 . S
C576 C577 1.376 . S
C577 H564 0.930 . S
C577 C576 1.376 . S
C577 C578 1.388 . S
C578 H565 0.930 . S
C578 C577 1.388 . S
C578 C579 1.390 . S
C579 C578 1.390 . S
C579 C580 1.394 . S
C579 C585 1.465 . S
C580 C575 1.399 . S
C580 C579 1.394 . S
C580 C581 1.516 . S
C581 C580 1.516 . S
C581 C582 1.502 . S
C581 C583 1.561 . S
C581 C584 1.526 . S
C582 H566 0.959 . S
C582 H567 0.959 . S
C582 H568 0.961 . S
C582 C581 1.502 . S
C583 H569 0.960 . S
C583 H570 0.961 . S
C583 H571 0.959 . S
C583 C581 1.561 . S
C584 C581 1.526 . S
C584 C585 1.396 . S
C584 C589 1.390 . S
C585 C579 1.465 . S
C585 C584 1.396 . S
C585 C586 1.399 . S
C586 H572 0.929 . S
C586 C585 1.399 . S
C586 C587 1.385 . S
C587 H573 0.931 . S
C587 C586 1.385 . S
C587 C588 1.389 . S
C588 C587 1.389 . S
C588 C589 1.387 . S
C589 H574 0.930 . S
C589 C584 1.390 . S
C589 C588 1.387 . S
H590 C602 0.930 . S
H591 C604 0.930 . S
H592 C605 0.930 . S
H593 C609 0.959 . S
H594 C609 0.959 1_655 S
H595 C609 0.961 . S
H596 C610 0.960 . S
H597 C610 0.961 . S
H598 C610 0.959 . S
H599 C613 0.929 . S
H600 C614 0.931 . S
H601 C616 0.930 . S
C602 H590 0.930 . S
C602 C603 1.399 . S
C602 C607 1.399 . S
C603 C602 1.399 . S
C603 C604 1.376 1_565 S
C604 H591 0.930 . S
C604 C603 1.376 1_545 S
C604 C605 1.388 . S
C605 H592 0.930 . S
C605 C604 1.388 . S
C605 C606 1.390 . S
C606 C605 1.390 . S
C606 C607 1.394 1_545 S
C606 C612 1.465 1_455 S
C607 C602 1.399 . S
C607 C606 1.394 1_565 S
C607 C608 1.516 1_455 S
C608 C607 1.516 1_655 S
C608 C609 1.502 1_655 S
C608 C610 1.561 . S
C608 C611 1.526 . S
C609 H593 0.959 . S
C609 H594 0.959 1_455 S
C609 H595 0.961 . S
C609 C608 1.502 1_455 S
C610 H596 0.960 . S
C610 H597 0.961 . S
C610 H598 0.959 . S
C610 C608 1.561 . S
C611 C608 1.526 . S
C611 C612 1.396 1_565 S
C611 C616 1.390 . S
C612 C606 1.465 1_655 S
C612 C611 1.396 1_545 S
C612 C613 1.399 . S
C613 H599 0.929 . S
C613 C612 1.399 . S
C613 C614 1.385 . S
C614 H600 0.931 . S
C614 C613 1.385 . S
C614 C615 1.389 . S
C615 C614 1.389 . S
C615 C616 1.387 1_545 S
C616 H601 0.930 . S
C616 C611 1.390 . S
C616 C615 1.387 1_565 S
H617 C629 0.930 . S
H618 C631 0.930 . S
H619 C632 0.930 . S
H620 C636 0.959 . S
H621 C636 0.959 . S
H622 C636 0.961 . S
H623 C637 0.960 . S
H624 C637 0.961 . S
H625 C637 0.959 . S
H626 C640 0.929 . S
H627 C641 0.931 . S
H628 C643 0.930 . S
C629 H617 0.930 . S
C629 C630 1.399 . S
C629 C634 1.399 . S
C630 C629 1.399 . S
C630 C631 1.376 . S
C631 H618 0.930 . S
C631 C630 1.376 . S
C631 C632 1.388 . S
C632 H619 0.930 . S
C632 C631 1.388 . S
C632 C633 1.390 . S
C633 C632 1.390 . S
C633 C634 1.394 . S
C633 C639 1.465 . S
C634 C629 1.399 . S
C634 C633 1.394 . S
C634 C635 1.516 . S
C635 C634 1.516 . S
C635 C636 1.502 . S
C635 C637 1.561 . S
C635 C638 1.526 . S
C636 H620 0.959 . S
C636 H621 0.959 . S
C636 H622 0.961 . S
C636 C635 1.502 . S
C637 H623 0.960 . S
C637 H624 0.961 . S
C637 H625 0.959 . S
C637 C635 1.561 . S
C638 C635 1.526 . S
C638 C639 1.396 . S
C638 C643 1.390 . S
C639 C633 1.465 . S
C639 C638 1.396 . S
C639 C640 1.399 . S
C640 H626 0.929 . S
C640 C639 1.399 . S
C640 C641 1.385 . S
C641 H627 0.931 . S
C641 C640 1.385 . S
C641 C642 1.389 . S
C642 C641 1.389 . S
C642 C643 1.387 . S
C643 H628 0.930 . S
C643 C638 1.390 . S
C643 C642 1.387 . S
H644 C656 0.930 . S
H645 C658 0.930 . S
H646 C659 0.930 . S
H647 C663 0.959 . S
H648 C663 0.959 . S
H649 C663 0.961 . S
H650 C664 0.960 . S
H651 C664 0.961 . S
H652 C664 0.959 . S
H653 C667 0.929 . S
H654 C668 0.931 . S
H655 C670 0.930 . S
C656 H644 0.930 . S
C656 C657 1.399 . S
C656 C661 1.399 . S
C657 C656 1.399 . S
C657 C658 1.376 . S
C658 H645 0.930 . S
C658 C657 1.376 . S
C658 C659 1.388 . S
C659 H646 0.930 . S
C659 C658 1.388 . S
C659 C660 1.390 . S
C660 C659 1.390 . S
C660 C661 1.394 . S
C660 C666 1.465 . S
C661 C656 1.399 . S
C661 C660 1.394 . S
C661 C662 1.516 . S
C662 C661 1.516 . S
C662 C663 1.502 . S
C662 C664 1.561 . S
C662 C665 1.526 . S
C663 H647 0.959 . S
C663 H648 0.959 . S
C663 H649 0.961 . S
C663 C662 1.502 . S
C664 H650 0.960 . S
C664 H651 0.961 . S
C664 H652 0.959 . S
C664 C662 1.561 . S
C665 C662 1.526 . S
C665 C666 1.396 . S
C665 C670 1.390 . S
C666 C660 1.465 . S
C666 C665 1.396 . S
C666 C667 1.399 . S
C667 H653 0.929 . S
C667 C666 1.399 . S
C667 C668 1.385 . S
C668 H654 0.931 . S
C668 C667 1.385 . S
C668 C669 1.389 . S
C669 C668 1.389 . S
C669 C670 1.387 . S
C670 H655 0.930 . S
C670 C665 1.390 . S
C670 C669 1.387 . S
H671 C683 0.930 . S
H672 C685 0.930 . S
H673 C686 0.930 . S
H674 C690 0.959 . S
H675 C690 0.959 . S
H676 C690 0.961 . S
H677 C691 0.960 . S
H678 C691 0.961 . S
H679 C691 0.959 . S
H680 C694 0.929 . S
H681 C695 0.931 . S
H682 C697 0.930 . S
C683 H671 0.930 . S
C683 C684 1.399 . S
C683 C688 1.399 . S
C684 C683 1.399 . S
C684 C685 1.376 . S
C685 H672 0.930 . S
C685 C684 1.376 . S
C685 C686 1.388 . S
C686 H673 0.930 . S
C686 C685 1.388 . S
C686 C687 1.390 . S
C687 C686 1.390 . S
C687 C688 1.394 . S
C687 C693 1.465 . S
C688 C683 1.399 . S
C688 C687 1.394 . S
C688 C689 1.516 . S
C689 C688 1.516 . S
C689 C690 1.502 . S
C689 C691 1.561 . S
C689 C692 1.526 . S
C690 H674 0.959 . S
C690 H675 0.959 . S
C690 H676 0.961 . S
C690 C689 1.502 . S
C691 H677 0.960 . S
C691 H678 0.961 . S
C691 H679 0.959 . S
C691 C689 1.561 . S
C692 C689 1.526 . S
C692 C693 1.396 . S
C692 C697 1.390 . S
C693 C687 1.465 . S
C693 C692 1.396 . S
C693 C694 1.399 . S
C694 H680 0.929 . S
C694 C693 1.399 . S
C694 C695 1.385 . S
C695 H681 0.931 . S
C695 C694 1.385 . S
C695 C696 1.389 . S
C696 C695 1.389 . S
C696 C697 1.387 . S
C697 H682 0.930 . S
C697 C692 1.390 . S
C697 C696 1.387 . S
H698 C710 0.930 . S
H699 C712 0.930 . S
H700 C713 0.930 1_655 S
H701 C717 0.959 . S
H702 C717 0.959 . S
H703 C717 0.961 . S
H704 C718 0.960 . S
H705 C718 0.961 1_655 S
H706 C718 0.959 1_655 S
H707 C721 0.929 . S
H708 C722 0.931 . S
H709 C724 0.930 . S
C710 H698 0.930 . S
C710 C711 1.399 . S
C710 C715 1.399 . S
C711 C710 1.399 . S
C711 C712 1.376 . S
C712 H699 0.930 . S
C712 C711 1.376 . S
C712 C713 1.388 . S
C713 H700 0.930 1_455 S
C713 C712 1.388 . S
C713 C714 1.390 . S
C714 C713 1.390 . S
C714 C715 1.394 . S
C714 C720 1.465 1_455 S
C715 C710 1.399 . S
C715 C714 1.394 . S
C715 C716 1.516 . S
C716 C715 1.516 . S
C716 C717 1.502 . S
C716 C718 1.561 . S
C716 C719 1.526 1_455 S
C717 H701 0.959 . S
C717 H702 0.959 . S
C717 H703 0.961 . S
C717 C716 1.502 . S
C718 H704 0.960 . S
C718 H705 0.961 1_455 S
C718 H706 0.959 1_455 S
C718 C716 1.561 . S
C719 C716 1.526 1_655 S
C719 C720 1.396 . S
C719 C724 1.390 . S
C720 C714 1.465 1_655 S
C720 C719 1.396 . S
C720 C721 1.399 . S
C721 H707 0.929 . S
C721 C720 1.399 . S
C721 C722 1.385 . S
C722 H708 0.931 . S
C722 C721 1.385 . S
C722 C723 1.389 . S
C723 C722 1.389 . S
C723 C724 1.387 . S
C724 H709 0.930 . S
C724 C719 1.390 . S
C724 C723 1.387 . S
H725 C737 0.930 . S
H726 C739 0.930 . S
H727 C740 0.930 . S
H728 C744 0.959 . S
H729 C744 0.959 . S
H730 C744 0.961 . S
H731 C745 0.960 . S
H732 C745 0.996 . S
H733 C745 0.959 . S
H734 C748 0.930 1_554 S
H735 C749 0.931 . S
H736 C751 0.930 . S
C737 H725 0.930 . S
C737 C738 1.399 . S
C737 C742 1.399 . S
C738 C737 1.399 . S
C738 C739 1.376 . S
C739 H726 0.930 . S
C739 C738 1.376 . S
C739 C740 1.388 . S
C740 H727 0.930 . S
C740 C739 1.388 . S
C740 C741 1.390 . S
C741 C740 1.390 . S
C741 C742 1.394 . S
C741 C747 1.465 1_554 S
C742 C737 1.399 . S
C742 C741 1.394 . S
C742 C743 1.516 1_554 S
C743 C742 1.516 1_556 S
C743 C744 1.502 . S
C743 C745 1.561 1_556 S
C743 C746 1.526 . S
C744 H728 0.959 . S
C744 H729 0.959 . S
C744 H730 0.961 . S
C744 C743 1.502 . S
C745 H731 0.960 . S
C745 H732 0.996 . S
C745 H733 0.959 . S
C745 C743 1.561 1_554 S
C746 C743 1.526 . S
C746 C747 1.396 . S
C746 C751 1.390 . S
C747 C741 1.465 1_556 S
C747 C746 1.396 . S
C747 C748 1.399 . S
C748 H734 0.930 1_556 S
C748 C747 1.399 . S
C748 C749 1.385 . S
C749 H735 0.931 . S
C749 C748 1.385 . S
C749 C750 1.389 . S
C750 C749 1.389 . S
C750 C751 1.387 . S
C751 H736 0.930 . S
C751 C746 1.390 . S
C751 C750 1.387 . S
H752 C764 0.930 . S
H753 C766 0.930 . S
H754 C767 0.930 . S
H755 C771 0.959 . S
H756 C771 0.959 . S
H757 C771 0.961 . S
H758 C772 0.960 . S
H759 C772 0.961 . S
H760 C772 0.959 . S
H761 C775 0.929 . S
H762 C776 0.931 . S
H763 C778 0.930 . S
C764 H752 0.930 . S
C764 C765 1.399 . S
C764 C769 1.399 . S
C765 C764 1.399 . S
C765 C766 1.376 . S
C766 H753 0.930 . S
C766 C765 1.376 . S
C766 C767 1.388 . S
C767 H754 0.930 . S
C767 C766 1.388 . S
C767 C768 1.390 . S
C768 C767 1.390 . S
C768 C769 1.394 . S
C768 C774 1.465 . S
C769 C764 1.399 . S
C769 C768 1.394 . S
C769 C770 1.516 . S
C770 C769 1.516 . S
C770 C771 1.502 . S
C770 C772 1.561 . S
C770 C773 1.526 . S
C771 H755 0.959 . S
C771 H756 0.959 . S
C771 H757 0.961 . S
C771 C770 1.502 . S
C772 H758 0.960 . S
C772 H759 0.961 . S
C772 H760 0.959 . S
C772 C770 1.561 . S
C773 C770 1.526 . S
C773 C774 1.396 . S
C773 C778 1.390 . S
C774 C768 1.465 . S
C774 C773 1.396 . S
C774 C775 1.399 . S
C775 H761 0.929 . S
C775 C774 1.399 . S
C775 C776 1.385 . S
C776 H762 0.931 . S
C776 C775 1.385 . S
C776 C777 1.389 . S
C777 C776 1.389 . S
C777 C778 1.387 . S
C778 H763 0.930 . S
C778 C773 1.390 . S
C778 C777 1.387 . S
H779 C791 0.930 . S
H780 C793 0.930 . S
H781 C794 0.930 . S
H782 C798 0.959 . S
H783 C798 0.959 . S
H784 C798 0.961 . S
H785 C799 0.960 . S
H786 C799 0.961 . S
H787 C799 0.959 . S
H788 C802 0.929 . S
H789 C803 0.931 . S
H790 C805 0.930 . S
C791 H779 0.930 . S
C791 C792 1.399 . S
C791 C796 1.399 . S
C792 C791 1.399 . S
C792 C793 1.376 . S
C793 H780 0.930 . S
C793 C792 1.376 . S
C793 C794 1.388 . S
C794 H781 0.930 . S
C794 C793 1.388 . S
C794 C795 1.390 . S
C795 C794 1.390 . S
C795 C796 1.394 . S
C795 C801 1.465 . S
C796 C791 1.399 . S
C796 C795 1.394 . S
C796 C797 1.516 . S
C797 C796 1.516 . S
C797 C798 1.502 . S
C797 C799 1.561 . S
C797 C800 1.526 . S
C798 H782 0.959 . S
C798 H783 0.959 . S
C798 H784 0.961 . S
C798 C797 1.502 . S
C799 H785 0.960 . S
C799 H786 0.961 . S
C799 H787 0.959 . S
C799 C797 1.561 . S
C800 C797 1.526 . S
C800 C801 1.396 . S
C800 C805 1.390 . S
C801 C795 1.465 . S
C801 C800 1.396 . S
C801 C802 1.399 . S
C802 H788 0.929 . S
C802 C801 1.399 . S
C802 C803 1.385 . S
C803 H789 0.931 . S
C803 C802 1.385 . S
C803 C804 1.389 . S
C804 C803 1.389 . S
C804 C805 1.387 . S
C805 H790 0.930 . S
C805 C800 1.390 . S
C805 C804 1.387 . S
H806 C818 0.930 . S
H807 C820 0.930 . S
H808 C821 0.930 . S
H809 C825 0.959 . S
H810 C825 0.959 . S
H811 C825 0.961 . S
H812 C826 0.960 . S
H813 C826 0.961 . S
H814 C826 0.959 . S
H815 C829 0.929 . S
H816 C830 0.931 . S
H817 C832 0.930 . S
C818 H806 0.930 . S
C818 C819 1.399 . S
C818 C823 1.399 . S
C819 C818 1.399 . S
C819 C820 1.376 . S
C820 H807 0.930 . S
C820 C819 1.376 . S
C820 C821 1.388 . S
C821 H808 0.930 . S
C821 C820 1.388 . S
C821 C822 1.390 . S
C822 C821 1.390 . S
C822 C823 1.394 . S
C822 C828 1.465 . S
C823 C818 1.399 . S
C823 C822 1.394 . S
C823 C824 1.516 . S
C824 C823 1.516 . S
C824 C825 1.502 . S
C824 C826 1.561 . S
C824 C827 1.526 . S
C825 H809 0.959 . S
C825 H810 0.959 . S
C825 H811 0.961 . S
C825 C824 1.502 . S
C826 H812 0.960 . S
C826 H813 0.961 . S
C826 H814 0.959 . S
C826 C824 1.561 . S
C827 C824 1.526 . S
C827 C828 1.396 . S
C827 C832 1.390 . S
C828 C822 1.465 . S
C828 C827 1.396 . S
C828 C829 1.399 . S
C829 H815 0.929 . S
C829 C828 1.399 . S
C829 C830 1.385 . S
C830 H816 0.931 . S
C830 C829 1.385 . S
C830 C831 1.389 . S
C831 C830 1.389 . S
C831 C832 1.387 . S
C832 H817 0.930 . S
C832 C827 1.390 . S
C832 C831 1.387 . S
H833 C845 0.930 . S
H834 C847 0.930 . S
H835 C848 0.930 . S
H836 C852 0.959 . S
H837 C852 0.959 . S
H838 C852 0.961 1_655 S
H839 C853 0.960 . S
H840 C853 0.961 . S
H841 C853 0.959 . S
H842 C856 0.929 . S
H843 C857 0.931 . S
H844 C859 0.930 . S
C845 H833 0.930 . S
C845 C846 1.399 . S
C845 C850 1.399 1_655 S
C846 C845 1.399 . S
C846 C847 1.376 . S
C847 H834 0.930 . S
C847 C846 1.376 . S
C847 C848 1.388 1_655 S
C848 H835 0.930 . S
C848 C847 1.388 1_455 S
C848 C849 1.390 . S
C849 C848 1.390 . S
C849 C850 1.394 . S
C849 C855 1.465 . S
C850 C845 1.399 1_455 S
C850 C849 1.394 . S
C850 C851 1.516 . S
C851 C850 1.516 . S
C851 C852 1.502 . S
C851 C853 1.561 . S
C851 C854 1.526 . S
C852 H836 0.959 . S
C852 H837 0.959 . S
C852 H838 0.961 1_455 S
C852 C851 1.502 . S
C853 H839 0.960 . S
C853 H840 0.961 . S
C853 H841 0.959 . S
C853 C851 1.561 . S
C854 C851 1.526 . S
C854 C855 1.396 . S
C854 C859 1.390 . S
C855 C849 1.465 . S
C855 C854 1.396 . S
C855 C856 1.399 . S
C856 H842 0.929 . S
C856 C855 1.399 . S
C856 C857 1.385 . S
C857 H843 0.931 . S
C857 C856 1.385 . S
C857 C858 1.389 . S
C858 C857 1.389 . S
C858 C859 1.387 . S
C859 H844 0.930 . S
C859 C854 1.390 . S
C859 C858 1.387 . S
H860 C872 0.930 . S
H861 C874 0.930 . S
H862 C875 0.930 . S
H863 C879 0.959 . S
H864 C879 0.959 . S
H865 C879 0.961 . S
H866 C880 0.960 . S
H867 C880 0.961 . S
H868 C880 0.959 . S
H869 C883 0.929 . S
H870 C884 0.931 . S
H871 C886 0.930 . S
C872 H860 0.930 . S
C872 C873 1.399 . S
C872 C877 1.399 . S
C873 C872 1.399 . S
C873 C874 1.376 . S
C874 H861 0.930 . S
C874 C873 1.376 . S
C874 C875 1.388 . S
C875 H862 0.930 . S
C875 C874 1.388 . S
C875 C876 1.390 . S
C876 C875 1.390 . S
C876 C877 1.394 . S
C876 C882 1.465 . S
C877 C872 1.399 . S
C877 C876 1.394 . S
C877 C878 1.516 . S
C878 C877 1.516 . S
C878 C879 1.502 . S
C878 C880 1.561 . S
C878 C881 1.526 . S
C879 H863 0.959 . S
C879 H864 0.959 . S
C879 H865 0.961 . S
C879 C878 1.502 . S
C880 H866 0.960 . S
C880 H867 0.961 . S
C880 H868 0.959 . S
C880 C878 1.561 . S
C881 C878 1.526 . S
C881 C882 1.396 . S
C881 C886 1.390 . S
C882 C876 1.465 . S
C882 C881 1.396 . S
C882 C883 1.399 . S
C883 H869 0.929 . S
C883 C882 1.399 . S
C883 C884 1.385 . S
C884 H870 0.931 . S
C884 C883 1.385 . S
C884 C885 1.389 . S
C885 C884 1.389 . S
C885 C886 1.387 . S
C886 H871 0.930 . S
C886 C881 1.390 . S
C886 C885 1.387 . S
H887 C899 0.930 . S
H888 C901 0.930 . S
H889 C902 0.930 . S
H890 C906 0.959 . S
H891 C906 0.959 . S
H892 C906 0.961 . S
H893 C907 0.960 . S
H894 C907 0.961 . S
H895 C907 0.959 . S
H896 C910 0.929 . S
H897 C911 0.931 . S
H898 C913 0.930 . S
C899 H887 0.930 . S
C899 C900 1.399 . S
C899 C904 1.399 . S
C900 C899 1.399 . S
C900 C901 1.376 . S
C901 H888 0.930 . S
C901 C900 1.376 . S
C901 C902 1.388 . S
C902 H889 0.930 . S
C902 C901 1.388 . S
C902 C903 1.390 . S
C903 C902 1.390 . S
C903 C904 1.394 . S
C903 C909 1.465 . S
C904 C899 1.399 . S
C904 C903 1.394 . S
C904 C905 1.516 . S
C905 C904 1.516 . S
C905 C906 1.502 . S
C905 C907 1.561 . S
C905 C908 1.526 . S
C906 H890 0.959 . S
C906 H891 0.959 . S
C906 H892 0.961 . S
C906 C905 1.502 . S
C907 H893 0.960 . S
C907 H894 0.961 . S
C907 H895 0.959 . S
C907 C905 1.561 . S
C908 C905 1.526 . S
C908 C909 1.396 . S
C908 C913 1.390 . S
C909 C903 1.465 . S
C909 C908 1.396 . S
C909 C910 1.399 . S
C910 H896 0.929 . S
C910 C909 1.399 . S
C910 C911 1.385 . S
C911 H897 0.931 . S
C911 C910 1.385 . S
C911 C912 1.389 . S
C912 C911 1.389 . S
C912 C913 1.387 . S
C913 H898 0.930 . S
C913 C908 1.390 . S
C913 C912 1.387 . S
H914 C926 0.930 . S
H915 C928 0.930 . S
H916 C929 0.930 . S
H917 C933 0.959 . S
H918 C933 0.959 . S
H919 C933 0.961 . S
H920 C934 0.960 . S
H921 C934 0.961 . S
H922 C934 0.959 . S
H923 C937 0.929 . S
H924 C938 0.931 . S
H925 C940 0.930 . S
C926 H914 0.930 . S
C926 C927 1.399 . S
C926 C931 1.399 . S
C927 C926 1.399 . S
C927 C928 1.376 . S
C928 H915 0.930 . S
C928 C927 1.376 . S
C928 C929 1.388 . S
C929 H916 0.930 . S
C929 C928 1.388 . S
C929 C930 1.390 . S
C930 C929 1.390 . S
C930 C931 1.394 . S
C930 C936 1.465 . S
C931 C926 1.399 . S
C931 C930 1.394 . S
C931 C932 1.516 . S
C932 C931 1.516 . S
C932 C933 1.502 . S
C932 C934 1.561 . S
C932 C935 1.526 . S
C933 H917 0.959 . S
C933 H918 0.959 . S
C933 H919 0.961 . S
C933 C932 1.502 . S
C934 H920 0.960 . S
C934 H921 0.961 . S
C934 H922 0.959 . S
C934 C932 1.561 . S
C935 C932 1.526 . S
C935 C936 1.396 . S
C935 C940 1.390 . S
C936 C930 1.465 . S
C936 C935 1.396 . S
C936 C937 1.399 . S
C937 H923 0.929 . S
C937 C936 1.399 . S
C937 C938 1.385 . S
C938 H924 0.931 . S
C938 C937 1.385 . S
C938 C939 1.389 . S
C939 C938 1.389 . S
C939 C940 1.387 . S
C940 H925 0.930 . S
C940 C935 1.390 . S
C940 C939 1.387 . S
H941 C953 0.930 . S
H942 C955 0.930 . S
H943 C956 0.930 . S
H944 C960 0.959 . S
H945 C960 0.959 1_455 S
H946 C960 0.961 . S
H947 C961 0.960 . S
H948 C961 0.961 . S
H949 C961 0.959 . S
H950 C964 0.929 . S
H951 C965 0.931 . S
H952 C967 0.930 . S
C953 H941 0.930 . S
C953 C954 1.399 . S
C953 C958 1.399 . S
C954 C953 1.399 . S
C954 C955 1.376 . S
C955 H942 0.930 . S
C955 C954 1.376 . S
C955 C956 1.388 . S
C956 H943 0.930 . S
C956 C955 1.388 . S
C956 C957 1.390 . S
C957 C956 1.390 . S
C957 C958 1.394 . S
C957 C963 1.465 . S
C958 C953 1.399 . S
C958 C957 1.394 . S
C958 C959 1.516 . S
C959 C958 1.516 . S
C959 C960 1.502 . S
C959 C961 1.561 . S
C959 C962 1.526 . S
C960 H944 0.959 . S
C960 H945 0.959 1_655 S
C960 H946 0.961 . S
C960 C959 1.502 . S
C961 H947 0.960 . S
C961 H948 0.961 . S
C961 H949 0.959 . S
C961 C959 1.561 . S
C962 C959 1.526 . S
C962 C963 1.396 . S
C962 C967 1.390 1_655 S
C963 C957 1.465 . S
C963 C962 1.396 . S
C963 C964 1.399 . S
C964 H950 0.929 . S
C964 C963 1.399 . S
C964 C965 1.385 1_655 S
C965 H951 0.931 . S
C965 C964 1.385 1_455 S
C965 C966 1.389 . S
C966 C965 1.389 . S
C966 C967 1.387 . S
C967 H952 0.930 . S
C967 C962 1.390 1_455 S
C967 C966 1.387 . S
H968 C980 0.930 . S
H969 C982 0.930 . S
H970 C983 0.930 . S
H971 C987 0.959 . S
H972 C987 0.959 . S
H973 C987 0.961 . S
H974 C988 0.960 . S
H975 C988 0.961 . S
H976 C988 0.959 . S
H977 C991 0.929 . S
H978 C992 0.931 . S
H979 C994 0.930 . S
C980 H968 0.930 . S
C980 C981 1.399 . S
C980 C985 1.399 . S
C981 C980 1.399 . S
C981 C982 1.376 . S
C982 H969 0.930 . S
C982 C981 1.376 . S
C982 C983 1.388 . S
C983 H970 0.930 . S
C983 C982 1.388 . S
C983 C984 1.390 . S
C984 C983 1.390 . S
C984 C985 1.394 . S
C984 C990 1.465 . S
C985 C980 1.399 . S
C985 C984 1.394 . S
C985 C986 1.516 . S
C986 C985 1.516 . S
C986 C987 1.502 . S
C986 C988 1.561 . S
C986 C989 1.526 . S
C987 H971 0.959 . S
C987 H972 0.959 . S
C987 H973 0.961 . S
C987 C986 1.502 . S
C988 H974 0.960 . S
C988 H975 0.961 . S
C988 H976 0.959 . S
C988 C986 1.561 . S
C989 C986 1.526 . S
C989 C990 1.396 . S
C989 C994 1.390 . S
C990 C984 1.465 . S
C990 C989 1.396 . S
C990 C991 1.399 . S
C991 H977 0.929 . S
C991 C990 1.399 . S
C991 C992 1.385 . S
C992 H978 0.931 . S
C992 C991 1.385 . S
C992 C993 1.389 . S
C993 C992 1.389 . S
C993 C994 1.387 . S
C994 H979 0.930 . S
C994 C989 1.390 . S
C994 C993 1.387 . S
H995 C1007 0.930 1_545 S
H996 C1009 0.930 . S
H997 C1010 0.930 . S
H998 C1014 0.959 . S
H999 C1014 0.959 . S
H1000 C1014 0.961 . S
H1001 C1015 0.960 . S
H1002 C1015 0.961 . S
H1003 C1015 0.959 . S
H1004 C1018 0.929 . S
H1005 C1019 0.931 . S
H1006 C1021 0.930 . S
C1007 H995 0.930 1_565 S
C1007 C1008 1.399 . S
C1007 C1012 1.399 . S
C1008 C1007 1.399 . S
C1008 C1009 1.376 . S
C1009 H996 0.930 . S
C1009 C1008 1.376 . S
C1009 C1010 1.388 . S
C1010 H997 0.930 . S
C1010 C1009 1.388 . S
C1010 C1011 1.390 . S
C1011 C1010 1.390 . S
C1011 C1012 1.394 . S
C1011 C1017 1.465 . S
C1012 C1007 1.399 . S
C1012 C1011 1.394 . S
C1012 C1013 1.516 1_565 S
C1013 C1012 1.516 1_545 S
C1013 C1014 1.502 . S
C1013 C1015 1.561 . S
C1013 C1016 1.526 1_545 S
C1014 H998 0.959 . S
C1014 H999 0.959 . S
C1014 H1000 0.961 . S
C1014 C1013 1.502 . S
C1015 H1001 0.960 . S
C1015 H1002 0.961 . S
C1015 H1003 0.959 . S
C1015 C1013 1.561 . S
C1016 C1013 1.526 1_565 S
C1016 C1017 1.396 . S
C1016 C1021 1.390 1_665 S
C1017 C1011 1.465 . S
C1017 C1016 1.396 . S
C1017 C1018 1.399 1_655 S
C1018 H1004 0.929 . S
C1018 C1017 1.399 1_455 S
C1018 C1019 1.385 . S
C1019 H1005 0.931 . S
C1019 C1018 1.385 . S
C1019 C1020 1.389 . S
C1020 C1019 1.389 . S
C1020 C1021 1.387 1_565 S
C1021 H1006 0.930 . S
C1021 C1016 1.390 1_445 S
C1021 C1020 1.387 1_545 S
H1022 C1034 0.930 . S
H1023 C1036 0.930 . S
H1024 C1037 0.930 . S
H1025 C1041 0.959 . S
H1026 C1041 0.959 . S
H1027 C1041 0.961 . S
H1028 C1042 0.960 . S
H1029 C1042 0.961 . S
H1030 C1042 0.959 . S
H1031 C1045 0.929 . S
H1032 C1046 0.931 . S
H1033 C1048 0.930 . S
C1034 H1022 0.930 . S
C1034 C1035 1.399 . S
C1034 C1039 1.399 . S
C1035 C1034 1.399 . S
C1035 C1036 1.376 . S
C1036 H1023 0.930 . S
C1036 C1035 1.376 . S
C1036 C1037 1.388 . S
C1037 H1024 0.930 . S
C1037 C1036 1.388 . S
C1037 C1038 1.390 . S
C1038 C1037 1.390 . S
C1038 C1039 1.394 . S
C1038 C1044 1.465 . S
C1039 C1034 1.399 . S
C1039 C1038 1.394 . S
C1039 C1040 1.516 . S
C1040 C1039 1.516 . S
C1040 C1041 1.502 . S
C1040 C1042 1.561 . S
C1040 C1043 1.526 . S
C1041 H1025 0.959 . S
C1041 H1026 0.959 . S
C1041 H1027 0.961 . S
C1041 C1040 1.502 . S
C1042 H1028 0.960 . S
C1042 H1029 0.961 . S
C1042 H1030 0.959 . S
C1042 C1040 1.561 . S
C1043 C1040 1.526 . S
C1043 C1044 1.396 . S
C1043 C1048 1.390 . S
C1044 C1038 1.465 . S
C1044 C1043 1.396 . S
C1044 C1045 1.399 . S
C1045 H1031 0.929 . S
C1045 C1044 1.399 . S
C1045 C1046 1.385 . S
C1046 H1032 0.931 . S
C1046 C1045 1.385 . S
C1046 C1047 1.389 . S
C1047 C1046 1.389 . S
C1047 C1048 1.387 . S
C1048 H1033 0.930 . S
C1048 C1043 1.390 . S
C1048 C1047 1.387 . S
H1049 C1061 0.930 . S
H1050 C1063 0.930 1_565 S
H1051 C1064 0.930 . S
H1052 C1068 0.959 . S
H1053 C1068 0.959 . S
H1054 C1068 0.961 . S
H1055 C1069 0.960 . S
H1056 C1069 0.961 . S
H1057 C1069 0.959 . S
H1058 C1072 0.929 . S
H1059 C1073 0.931 . S
H1060 C1075 0.930 . S
C1061 H1049 0.930 . S
C1061 C1062 1.399 . S
C1061 C1066 1.399 . S
C1062 C1061 1.399 . S
C1062 C1063 1.376 . S
C1063 H1050 0.930 1_545 S
C1063 C1062 1.376 . S
C1063 C1064 1.388 1_545 S
C1064 H1051 0.930 . S
C1064 C1063 1.388 1_565 S
C1064 C1065 1.390 1_565 S
C1065 C1064 1.390 1_545 S
C1065 C1066 1.394 . S
C1065 C1071 1.465 . S
C1066 C1061 1.399 . S
C1066 C1065 1.394 . S
C1066 C1067 1.516 . S
C1067 C1066 1.516 . S
C1067 C1068 1.502 . S
C1067 C1069 1.561 . S
C1067 C1070 1.526 . S
C1068 H1052 0.959 . S
C1068 H1053 0.959 . S
C1068 H1054 0.961 . S
C1068 C1067 1.502 . S
C1069 H1055 0.960 . S
C1069 H1056 0.961 . S
C1069 H1057 0.959 . S
C1069 C1067 1.561 . S
C1070 C1067 1.526 . S
C1070 C1071 1.396 . S
C1070 C1075 1.390 . S
C1071 C1065 1.465 . S
C1071 C1070 1.396 . S
C1071 C1072 1.399 1_545 S
C1072 H1058 0.929 . S
C1072 C1071 1.399 1_565 S
C1072 C1073 1.385 . S
C1073 H1059 0.931 . S
C1073 C1072 1.385 . S
C1073 C1074 1.389 1_565 S
C1074 C1073 1.389 1_545 S
C1074 C1075 1.387 . S
C1075 H1060 0.930 . S
C1075 C1070 1.390 . S
C1075 C1074 1.387 . S
H1076 C1088 0.930 . S
H1077 C1090 0.930 . S
H1078 C1091 0.930 . S
H1079 C1095 0.959 . S
H1080 C1095 0.959 . S
H1081 C1095 0.961 . S
H1082 C1096 0.960 . S
H1083 C1096 0.961 . S
H1084 C1096 0.959 . S
H1085 C1099 0.929 . S
H1086 C1100 0.931 . S
H1087 C1102 0.930 . S
C1088 H1076 0.930 . S
C1088 C1089 1.399 . S
C1088 C1093 1.399 . S
C1089 C1088 1.399 . S
C1089 C1090 1.376 . S
C1090 H1077 0.930 . S
C1090 C1089 1.376 . S
C1090 C1091 1.388 . S
C1091 H1078 0.930 . S
C1091 C1090 1.388 . S
C1091 C1092 1.390 . S
C1092 C1091 1.390 . S
C1092 C1093 1.394 . S
C1092 C1098 1.465 . S
C1093 C1088 1.399 . S
C1093 C1092 1.394 . S
C1093 C1094 1.516 . S
C1094 C1093 1.516 . S
C1094 C1095 1.502 . S
C1094 C1096 1.561 . S
C1094 C1097 1.526 . S
C1095 H1079 0.959 . S
C1095 H1080 0.959 . S
C1095 H1081 0.961 . S
C1095 C1094 1.502 . S
C1096 H1082 0.960 . S
C1096 H1083 0.961 . S
C1096 H1084 0.959 . S
C1096 C1094 1.561 . S
C1097 C1094 1.526 . S
C1097 C1098 1.396 . S
C1097 C1102 1.390 . S
C1098 C1092 1.465 . S
C1098 C1097 1.396 . S
C1098 C1099 1.399 . S
C1099 H1085 0.929 . S
C1099 C1098 1.399 . S
C1099 C1100 1.385 . S
C1100 H1086 0.931 . S
C1100 C1099 1.385 . S
C1100 C1101 1.389 . S
C1101 C1100 1.389 . S
C1101 C1102 1.387 . S
C1102 H1087 0.930 . S
C1102 C1097 1.390 . S
C1102 C1101 1.387 . S
H1103 C1115 0.930 . S
H1104 C1117 0.930 . S
H1105 C1118 0.931 . S
H1106 C1122 0.959 . S
H1107 C1122 0.959 . S
H1108 C1122 0.961 . S
H1109 C1123 0.960 . S
H1110 C1123 0.961 . S
H1111 C1123 0.959 . S
H1112 C1126 0.929 . S
H1113 C1127 0.931 . S
H1114 C1129 0.930 1_565 S
C1115 H1103 0.930 . S
C1115 C1116 1.399 1_565 S
C1115 C1120 1.399 1_665 S
C1116 C1115 1.399 1_545 S
C1116 C1117 1.376 . S
C1117 H1104 0.930 . S
C1117 C1116 1.376 . S
C1117 C1118 1.388 . S
C1118 H1105 0.931 . S
C1118 C1117 1.388 . S
C1118 C1119 1.390 1_655 S
C1119 C1118 1.390 1_455 S
C1119 C1120 1.394 . S
C1119 C1125 1.465 . S
C1120 C1115 1.399 1_445 S
C1120 C1119 1.394 . S
C1120 C1121 1.516 1_545 S
C1121 C1120 1.516 1_565 S
C1121 C1122 1.502 . S
C1121 C1123 1.561 . S
C1121 C1124 1.526 1_565 S
C1122 H1106 0.959 . S
C1122 H1107 0.959 . S
C1122 H1108 0.961 . S
C1122 C1121 1.502 . S
C1123 H1109 0.960 . S
C1123 H1110 0.961 . S
C1123 H1111 0.959 . S
C1123 C1121 1.561 . S
C1124 C1121 1.526 1_545 S
C1124 C1125 1.396 . S
C1124 C1129 1.390 . S
C1125 C1119 1.465 . S
C1125 C1124 1.396 . S
C1125 C1126 1.399 . S
C1126 H1112 0.929 . S
C1126 C1125 1.399 . S
C1126 C1127 1.385 . S
C1127 H1113 0.931 . S
C1127 C1126 1.385 . S
C1127 C1128 1.389 . S
C1128 C1127 1.389 . S
C1128 C1129 1.387 . S
C1129 H1114 0.930 1_545 S
C1129 C1124 1.390 . S
C1129 C1128 1.387 . S
H1130 C1142 0.930 . S
H1131 C1144 0.930 . S
H1132 C1145 0.930 . S
H1133 C1149 0.959 . S
H1134 C1149 0.959 . S
H1135 C1149 0.961 . S
H1136 C1150 0.960 . S
H1137 C1150 0.961 . S
H1138 C1150 0.959 . S
H1139 C1153 0.929 . S
H1140 C1154 0.931 . S
H1141 C1156 0.930 . S
C1142 H1130 0.930 . S
C1142 C1143 1.399 . S
C1142 C1147 1.399 . S
C1143 C1142 1.399 . S
C1143 C1144 1.376 . S
C1144 H1131 0.930 . S
C1144 C1143 1.376 . S
C1144 C1145 1.388 . S
C1145 H1132 0.930 . S
C1145 C1144 1.388 . S
C1145 C1146 1.390 . S
C1146 C1145 1.390 . S
C1146 C1147 1.394 . S
C1146 C1152 1.465 . S
C1147 C1142 1.399 . S
C1147 C1146 1.394 . S
C1147 C1148 1.516 . S
C1148 C1147 1.516 . S
C1148 C1149 1.502 . S
C1148 C1150 1.561 . S
C1148 C1151 1.526 . S
C1149 H1133 0.959 . S
C1149 H1134 0.959 . S
C1149 H1135 0.961 . S
C1149 C1148 1.502 . S
C1150 H1136 0.960 . S
C1150 H1137 0.961 . S
C1150 H1138 0.959 . S
C1150 C1148 1.561 . S
C1151 C1148 1.526 . S
C1151 C1152 1.396 . S
C1151 C1156 1.390 . S
C1152 C1146 1.465 . S
C1152 C1151 1.396 . S
C1152 C1153 1.399 . S
C1153 H1139 0.929 . S
C1153 C1152 1.399 . S
C1153 C1154 1.385 . S
C1154 H1140 0.931 . S
C1154 C1153 1.385 . S
C1154 C1155 1.389 . S
C1155 C1154 1.389 . S
C1155 C1156 1.387 . S
C1156 H1141 0.930 . S
C1156 C1151 1.390 . S
C1156 C1155 1.387 . S
H1157 C1169 0.930 . S
H1158 C1171 0.930 . S
H1159 C1172 0.930 . S
H1160 C1176 0.959 . S
H1161 C1176 0.959 . S
H1162 C1176 0.961 . S
H1163 C1177 0.960 . S
H1164 C1177 0.961 . S
H1165 C1177 0.959 . S
H1166 C1180 0.929 . S
H1167 C1181 0.931 1_545 S
H1168 C1183 0.930 . S
C1169 H1157 0.930 . S
C1169 C1170 1.399 . S
C1169 C1174 1.399 . S
C1170 C1169 1.399 . S
C1170 C1171 1.376 1_565 S
C1171 H1158 0.930 . S
C1171 C1170 1.376 1_545 S
C1171 C1172 1.388 . S
C1172 H1159 0.930 . S
C1172 C1171 1.388 . S
C1172 C1173 1.390 1_545 S
C1173 C1172 1.390 1_565 S
C1173 C1174 1.394 . S
C1173 C1179 1.465 . S
C1174 C1169 1.399 . S
C1174 C1173 1.394 . S
C1174 C1175 1.516 . S
C1175 C1174 1.516 . S
C1175 C1176 1.502 . S
C1175 C1177 1.561 . S
C1175 C1178 1.526 . S
C1176 H1160 0.959 . S
C1176 H1161 0.959 . S
C1176 H1162 0.961 . S
C1176 C1175 1.502 . S
C1177 H1163 0.960 . S
C1177 H1164 0.961 . S
C1177 H1165 0.959 . S
C1177 C1175 1.561 . S
C1178 C1175 1.526 . S
C1178 C1179 1.396 . S
C1178 C1183 1.390 . S
C1179 C1173 1.465 . S
C1179 C1178 1.396 . S
C1179 C1180 1.399 1_565 S
C1180 H1166 0.929 . S
C1180 C1179 1.399 1_545 S
C1180 C1181 1.385 1_545 S
C1181 H1167 0.931 1_565 S
C1181 C1180 1.385 1_565 S
C1181 C1182 1.389 . S
C1182 C1181 1.389 . S
C1182 C1183 1.387 . S
C1183 H1168 0.930 . S
C1183 C1178 1.390 . S
C1183 C1182 1.387 . S
H1184 C1196 0.930 . S
H1185 C1198 0.930 . S
H1186 C1199 0.930 . S
H1187 C1203 0.959 . S
H1188 C1203 0.959 . S
H1189 C1203 0.961 . S
H1190 C1204 0.960 . S
H1191 C1204 0.961 . S
H1192 C1204 0.959 . S
H1193 C1207 0.929 . S
H1194 C1208 0.931 . S
H1195 C1210 0.930 . S
C1196 H1184 0.930 . S
C1196 C1197 1.399 . S
C1196 C1201 1.399 . S
C1197 C1196 1.399 . S
C1197 C1198 1.376 . S
C1198 H1185 0.930 . S
C1198 C1197 1.376 . S
C1198 C1199 1.388 . S
C1199 H1186 0.930 . S
C1199 C1198 1.388 . S
C1199 C1200 1.390 . S
C1200 C1199 1.390 . S
C1200 C1201 1.394 . S
C1200 C1206 1.465 . S
C1201 C1196 1.399 . S
C1201 C1200 1.394 . S
C1201 C1202 1.516 . S
C1202 C1201 1.516 . S
C1202 C1203 1.502 . S
C1202 C1204 1.561 . S
C1202 C1205 1.526 . S
C1203 H1187 0.959 . S
C1203 H1188 0.959 . S
C1203 H1189 0.961 . S
C1203 C1202 1.502 . S
C1204 H1190 0.960 . S
C1204 H1191 0.961 . S
C1204 H1192 0.959 . S
C1204 C1202 1.561 . S
C1205 C1202 1.526 . S
C1205 C1206 1.396 . S
C1205 C1210 1.390 . S
C1206 C1200 1.465 . S
C1206 C1205 1.396 . S
C1206 C1207 1.399 . S
C1207 H1193 0.929 . S
C1207 C1206 1.399 . S
C1207 C1208 1.385 . S
C1208 H1194 0.931 . S
C1208 C1207 1.385 . S
C1208 C1209 1.389 . S
C1209 C1208 1.389 . S
C1209 C1210 1.387 . S
C1210 H1195 0.930 . S
C1210 C1205 1.390 . S
C1210 C1209 1.387 . S
H1211 C1223 0.930 . S
H1212 C1225 0.930 . S
H1213 C1226 0.930 . S
H1214 C1230 0.959 . S
H1215 C1230 0.959 . S
H1216 C1230 0.961 . S
H1217 C1231 0.960 . S
H1218 C1231 0.961 . S
H1219 C1231 0.959 . S
H1220 C1234 0.929 . S
H1221 C1235 0.931 . S
H1222 C1237 0.930 . S
C1223 H1211 0.930 . S
C1223 C1224 1.399 . S
C1223 C1228 1.399 . S
C1224 C1223 1.399 . S
C1224 C1225 1.376 . S
C1225 H1212 0.930 . S
C1225 C1224 1.376 . S
C1225 C1226 1.388 . S
C1226 H1213 0.930 . S
C1226 C1225 1.388 . S
C1226 C1227 1.390 . S
C1227 C1226 1.390 . S
C1227 C1228 1.394 . S
C1227 C1233 1.465 . S
C1228 C1223 1.399 . S
C1228 C1227 1.394 . S
C1228 C1229 1.516 . S
C1229 C1228 1.516 . S
C1229 C1230 1.502 . S
C1229 C1231 1.561 . S
C1229 C1232 1.526 . S
C1230 H1214 0.959 . S
C1230 H1215 0.959 . S
C1230 H1216 0.961 . S
C1230 C1229 1.502 . S
C1231 H1217 0.960 . S
C1231 H1218 0.961 . S
C1231 H1219 0.959 . S
C1231 C1229 1.561 . S
C1232 C1229 1.526 . S
C1232 C1233 1.396 . S
C1232 C1237 1.390 . S
C1233 C1227 1.465 . S
C1233 C1232 1.396 . S
C1233 C1234 1.399 . S
C1234 H1220 0.929 . S
C1234 C1233 1.399 . S
C1234 C1235 1.385 . S
C1235 H1221 0.931 . S
C1235 C1234 1.385 . S
C1235 C1236 1.389 . S
C1236 C1235 1.389 . S
C1236 C1237 1.387 . S
C1237 H1222 0.930 . S
C1237 C1232 1.390 . S
C1237 C1236 1.387 . S
H1238 C1250 0.930 . S
H1239 C1252 0.930 . S
H1240 C1253 0.930 . S
H1241 C1257 0.959 . S
H1242 C1257 0.959 . S
H1243 C1257 0.961 . S
H1244 C1258 0.960 . S
H1245 C1258 0.961 . S
H1246 C1258 0.959 . S
H1247 C1261 0.929 1_545 S
H1248 C1262 0.941 . S
H1249 C1264 0.930 . S
C1250 H1238 0.930 . S
C1250 C1251 1.399 . S
C1250 C1255 1.399 . S
C1251 C1250 1.399 . S
C1251 C1252 1.376 . S
C1252 H1239 0.930 . S
C1252 C1251 1.376 . S
C1252 C1253 1.388 . S
C1253 H1240 0.930 . S
C1253 C1252 1.388 . S
C1253 C1254 1.390 . S
C1254 C1253 1.390 . S
C1254 C1255 1.394 . S
C1254 C1260 1.465 . S
C1255 C1250 1.399 . S
C1255 C1254 1.394 . S
C1255 C1256 1.516 . S
C1256 C1255 1.516 . S
C1256 C1257 1.502 . S
C1256 C1258 1.561 . S
C1256 C1259 1.526 . S
C1257 H1241 0.959 . S
C1257 H1242 0.959 . S
C1257 H1243 0.961 . S
C1257 C1256 1.502 . S
C1258 H1244 0.960 . S
C1258 H1245 0.961 . S
C1258 H1246 0.959 . S
C1258 C1256 1.561 . S
C1259 C1256 1.526 . S
C1259 C1260 1.396 . S
C1259 C1264 1.390 . S
C1260 C1254 1.465 . S
C1260 C1259 1.396 . S
C1260 C1261 1.399 . S
C1261 H1247 0.929 1_565 S
C1261 C1260 1.399 . S
C1261 C1262 1.385 . S
C1262 H1248 0.941 . S
C1262 C1261 1.385 . S
C1262 C1263 1.389 . S
C1263 C1262 1.389 . S
C1263 C1264 1.387 . S
C1264 H1249 0.930 . S
C1264 C1259 1.390 . S
C1264 C1263 1.387 . S
H1265 C1277 0.930 . S
H1266 C1279 0.930 . S
H1267 C1280 0.930 . S
H1268 C1284 0.959 . S
H1269 C1284 0.959 . S
H1270 C1284 0.961 . S
H1271 C1285 0.960 . S
H1272 C1285 0.961 . S
H1273 C1285 0.959 . S
H1274 C1288 0.929 . S
H1275 C1289 0.931 . S
H1276 C1291 0.930 . S
C1277 H1265 0.930 . S
C1277 C1278 1.399 . S
C1277 C1282 1.399 . S
C1278 C1277 1.399 . S
C1278 C1279 1.376 . S
C1279 H1266 0.930 . S
C1279 C1278 1.376 . S
C1279 C1280 1.388 . S
C1280 H1267 0.930 . S
C1280 C1279 1.388 . S
C1280 C1281 1.390 . S
C1281 C1280 1.390 . S
C1281 C1282 1.394 . S
C1281 C1287 1.465 . S
C1282 C1277 1.399 . S
C1282 C1281 1.394 . S
C1282 C1283 1.516 . S
C1283 C1282 1.516 . S
C1283 C1284 1.502 . S
C1283 C1285 1.561 . S
C1283 C1286 1.526 . S
C1284 H1268 0.959 . S
C1284 H1269 0.959 . S
C1284 H1270 0.961 . S
C1284 C1283 1.502 . S
C1285 H1271 0.960 . S
C1285 H1272 0.961 . S
C1285 H1273 0.959 . S
C1285 C1283 1.561 . S
C1286 C1283 1.526 . S
C1286 C1287 1.396 . S
C1286 C1291 1.390 . S
C1287 C1281 1.465 . S
C1287 C1286 1.396 . S
C1287 C1288 1.399 . S
C1288 H1274 0.929 . S
C1288 C1287 1.399 . S
C1288 C1289 1.385 . S
C1289 H1275 0.931 . S
C1289 C1288 1.385 . S
C1289 C1290 1.389 . S
C1290 C1289 1.389 . S
C1290 C1291 1.387 . S
C1291 H1276 0.930 . S
C1291 C1286 1.390 . S
C1291 C1290 1.387 . S
H1292 C1304 0.930 . S
H1293 C1306 0.930 . S
H1294 C1307 0.930 . S
H1295 C1311 0.959 . S
H1296 C1311 0.959 . S
H1297 C1311 0.961 . S
H1298 C1312 0.960 . S
H1299 C1312 0.961 . S
H1300 C1312 0.959 . S
H1301 C1315 0.929 . S
H1302 C1316 0.931 . S
H1303 C1318 0.930 . S
C1304 H1292 0.930 . S
C1304 C1305 1.399 . S
C1304 C1309 1.399 . S
C1305 C1304 1.399 . S
C1305 C1306 1.376 . S
C1306 H1293 0.930 . S
C1306 C1305 1.376 . S
C1306 C1307 1.388 . S
C1307 H1294 0.930 . S
C1307 C1306 1.388 . S
C1307 C1308 1.390 . S
C1308 C1307 1.390 . S
C1308 C1309 1.394 . S
C1308 C1314 1.465 . S
C1309 C1304 1.399 . S
C1309 C1308 1.394 . S
C1309 C1310 1.516 . S
C1310 C1309 1.516 . S
C1310 C1311 1.502 . S
C1310 C1312 1.561 . S
C1310 C1313 1.526 . S
C1311 H1295 0.959 . S
C1311 H1296 0.959 . S
C1311 H1297 0.961 . S
C1311 C1310 1.502 . S
C1312 H1298 0.960 . S
C1312 H1299 0.961 . S
C1312 H1300 0.959 . S
C1312 C1310 1.561 . S
C1313 C1310 1.526 . S
C1313 C1314 1.396 . S
C1313 C1318 1.390 . S
C1314 C1308 1.465 . S
C1314 C1313 1.396 . S
C1314 C1315 1.399 . S
C1315 H1301 0.929 . S
C1315 C1314 1.399 . S
C1315 C1316 1.385 . S
C1316 H1302 0.931 . S
C1316 C1315 1.385 . S
C1316 C1317 1.389 . S
C1317 C1316 1.389 . S
C1317 C1318 1.387 . S
C1318 H1303 0.930 . S
C1318 C1313 1.390 . S
C1318 C1317 1.387 . S
H1319 C1331 0.930 . S
H1320 C1333 0.930 . S
H1321 C1334 0.930 . S
H1322 C1338 0.959 . S
H1323 C1338 0.959 . S
H1324 C1338 0.961 . S
H1325 C1339 0.960 . S
H1326 C1339 0.961 . S
H1327 C1339 0.959 . S
H1328 C1342 0.929 . S
H1329 C1343 0.931 . S
H1330 C1345 0.930 . S
C1331 H1319 0.930 . S
C1331 C1332 1.399 . S
C1331 C1336 1.399 . S
C1332 C1331 1.399 . S
C1332 C1333 1.376 . S
C1333 H1320 0.930 . S
C1333 C1332 1.376 . S
C1333 C1334 1.388 . S
C1334 H1321 0.930 . S
C1334 C1333 1.388 . S
C1334 C1335 1.390 . S
C1335 C1334 1.390 . S
C1335 C1336 1.394 . S
C1335 C1341 1.465 . S
C1336 C1331 1.399 . S
C1336 C1335 1.394 . S
C1336 C1337 1.516 . S
C1337 C1336 1.516 . S
C1337 C1338 1.502 . S
C1337 C1339 1.561 . S
C1337 C1340 1.526 . S
C1338 H1322 0.959 . S
C1338 H1323 0.959 . S
C1338 H1324 0.961 . S
C1338 C1337 1.502 . S
C1339 H1325 0.960 . S
C1339 H1326 0.961 . S
C1339 H1327 0.959 . S
C1339 C1337 1.561 . S
C1340 C1337 1.526 . S
C1340 C1341 1.396 . S
C1340 C1345 1.390 . S
C1341 C1335 1.465 . S
C1341 C1340 1.396 . S
C1341 C1342 1.399 . S
C1342 H1328 0.929 . S
C1342 C1341 1.399 . S
C1342 C1343 1.385 . S
C1343 H1329 0.931 . S
C1343 C1342 1.385 . S
C1343 C1344 1.389 . S
C1344 C1343 1.389 . S
C1344 C1345 1.387 . S
C1345 H1330 0.930 . S
C1345 C1340 1.390 . S
C1345 C1344 1.387 . S
H1346 C1358 0.930 . S
H1347 C1360 0.930 . S
H1348 C1361 0.930 . S
H1349 C1365 0.959 . S
H1350 C1365 0.959 . S
H1351 C1365 0.961 . S
H1352 C1366 0.960 . S
H1353 C1366 0.961 . S
H1354 C1366 0.959 . S
H1355 C1369 0.929 . S
H1356 C1370 0.931 . S
H1357 C1372 0.930 . S
C1358 H1346 0.930 . S
C1358 C1359 1.399 . S
C1358 C1363 1.399 . S
C1359 C1358 1.399 . S
C1359 C1360 1.376 . S
C1360 H1347 0.930 . S
C1360 C1359 1.376 . S
C1360 C1361 1.388 . S
C1361 H1348 0.930 . S
C1361 C1360 1.388 . S
C1361 C1362 1.390 . S
C1362 C1361 1.390 . S
C1362 C1363 1.394 . S
C1362 C1368 1.465 . S
C1363 C1358 1.399 . S
C1363 C1362 1.394 . S
C1363 C1364 1.516 . S
C1364 C1363 1.516 . S
C1364 C1365 1.502 . S
C1364 C1366 1.561 . S
C1364 C1367 1.526 . S
C1365 H1349 0.959 . S
C1365 H1350 0.959 . S
C1365 H1351 0.961 . S
C1365 C1364 1.502 . S
C1366 H1352 0.960 . S
C1366 H1353 0.961 . S
C1366 H1354 0.959 . S
C1366 C1364 1.561 . S
C1367 C1364 1.526 . S
C1367 C1368 1.396 . S
C1367 C1372 1.390 . S
C1368 C1362 1.465 . S
C1368 C1367 1.396 . S
C1368 C1369 1.399 . S
C1369 H1355 0.929 . S
C1369 C1368 1.399 . S
C1369 C1370 1.385 . S
C1370 H1356 0.931 . S
C1370 C1369 1.385 . S
C1370 C1371 1.389 . S
C1371 C1370 1.389 . S
C1371 C1372 1.387 . S
C1372 H1357 0.930 . S
C1372 C1367 1.390 . S
C1372 C1371 1.387 . S
H1373 C1385 0.930 . S
H1374 C1387 0.930 . S
H1375 C1388 0.930 . S
H1376 C1392 0.959 . S
H1377 C1392 0.959 . S
H1378 C1392 0.961 . S
H1379 C1393 0.960 . S
H1380 C1393 0.961 . S
H1381 C1393 0.959 . S
H1382 C1396 0.929 . S
H1383 C1397 0.931 . S
H1384 C1399 0.930 . S
C1385 H1373 0.930 . S
C1385 C1386 1.399 . S
C1385 C1390 1.399 . S
C1386 C1385 1.399 . S
C1386 C1387 1.376 . S
C1387 H1374 0.930 . S
C1387 C1386 1.376 . S
C1387 C1388 1.388 . S
C1388 H1375 0.930 . S
C1388 C1387 1.388 . S
C1388 C1389 1.390 . S
C1389 C1388 1.390 . S
C1389 C1390 1.394 . S
C1389 C1395 1.465 . S
C1390 C1385 1.399 . S
C1390 C1389 1.394 . S
C1390 C1391 1.516 . S
C1391 C1390 1.516 . S
C1391 C1392 1.502 . S
C1391 C1393 1.561 . S
C1391 C1394 1.526 . S
C1392 H1376 0.959 . S
C1392 H1377 0.959 . S
C1392 H1378 0.961 . S
C1392 C1391 1.502 . S
C1393 H1379 0.960 . S
C1393 H1380 0.961 . S
C1393 H1381 0.959 . S
C1393 C1391 1.561 . S
C1394 C1391 1.526 . S
C1394 C1395 1.396 . S
C1394 C1399 1.390 . S
C1395 C1389 1.465 . S
C1395 C1394 1.396 . S
C1395 C1396 1.399 . S
C1396 H1382 0.929 . S
C1396 C1395 1.399 . S
C1396 C1397 1.385 . S
C1397 H1383 0.931 . S
C1397 C1396 1.385 . S
C1397 C1398 1.389 . S
C1398 C1397 1.389 . S
C1398 C1399 1.387 . S
C1399 H1384 0.930 . S
C1399 C1394 1.390 . S
C1399 C1398 1.387 . S
H1400 C1412 0.930 . S
H1401 C1414 0.930 . S
H1402 C1415 0.930 . S
H1403 C1419 0.959 . S
H1404 C1419 0.959 . S
H1405 C1419 0.961 . S
H1406 C1420 0.960 . S
H1407 C1420 0.961 . S
H1408 C1420 0.959 . S
H1409 C1423 0.929 . S
H1410 C1424 0.931 . S
H1411 C1426 0.930 . S
C1412 H1400 0.930 . S
C1412 C1413 1.399 . S
C1412 C1417 1.399 . S
C1413 C1412 1.399 . S
C1413 C1414 1.376 . S
C1414 H1401 0.930 . S
C1414 C1413 1.376 . S
C1414 C1415 1.388 . S
C1415 H1402 0.930 . S
C1415 C1414 1.388 . S
C1415 C1416 1.390 . S
C1416 C1415 1.390 . S
C1416 C1417 1.394 . S
C1416 C1422 1.465 . S
C1417 C1412 1.399 . S
C1417 C1416 1.394 . S
C1417 C1418 1.516 . S
C1418 C1417 1.516 . S
C1418 C1419 1.502 . S
C1418 C1420 1.561 . S
C1418 C1421 1.526 . S
C1419 H1403 0.959 . S
C1419 H1404 0.959 . S
C1419 H1405 0.961 . S
C1419 C1418 1.502 . S
C1420 H1406 0.960 . S
C1420 H1407 0.961 . S
C1420 H1408 0.959 . S
C1420 C1418 1.561 . S
C1421 C1418 1.526 . S
C1421 C1422 1.396 . S
C1421 C1426 1.390 . S
C1422 C1416 1.465 . S
C1422 C1421 1.396 . S
C1422 C1423 1.399 . S
C1423 H1409 0.929 . S
C1423 C1422 1.399 . S
C1423 C1424 1.385 . S
C1424 H1410 0.931 . S
C1424 C1423 1.385 . S
C1424 C1425 1.389 . S
C1425 C1424 1.389 . S
C1425 C1426 1.387 . S
C1426 H1411 0.930 . S
C1426 C1421 1.390 . S
C1426 C1425 1.387 . S
H1427 C1439 0.930 . S
H1428 C1441 0.930 . S
H1429 C1442 0.930 1_545 S
H1430 C1446 0.959 . S
H1431 C1446 0.959 . S
H1432 C1446 0.961 . S
H1433 C1447 0.960 . S
H1434 C1447 0.961 . S
H1435 C1447 0.959 . S
H1436 C1450 0.929 . S
H1437 C1451 0.931 . S
H1438 C1453 0.930 . S
C1439 H1427 0.930 . S
C1439 C1440 1.399 . S
C1439 C1444 1.399 . S
C1440 C1439 1.399 . S
C1440 C1441 1.376 . S
C1441 H1428 0.930 . S
C1441 C1440 1.376 . S
C1441 C1442 1.388 . S
C1442 H1429 0.930 1_565 S
C1442 C1441 1.388 . S
C1442 C1443 1.390 . S
C1443 C1442 1.390 . S
C1443 C1444 1.394 . S
C1443 C1449 1.465 . S
C1444 C1439 1.399 . S
C1444 C1443 1.394 . S
C1444 C1445 1.516 . S
C1445 C1444 1.516 . S
C1445 C1446 1.502 . S
C1445 C1447 1.561 . S
C1445 C1448 1.526 . S
C1446 H1430 0.959 . S
C1446 H1431 0.959 . S
C1446 H1432 0.961 . S
C1446 C1445 1.502 . S
C1447 H1433 0.960 . S
C1447 H1434 0.961 . S
C1447 H1435 0.959 . S
C1447 C1445 1.561 . S
C1448 C1445 1.526 . S
C1448 C1449 1.396 . S
C1448 C1453 1.390 . S
C1449 C1443 1.465 . S
C1449 C1448 1.396 . S
C1449 C1450 1.399 1_565 S
C1450 H1436 0.929 . S
C1450 C1449 1.399 1_545 S
C1450 C1451 1.385 . S
C1451 H1437 0.931 . S
C1451 C1450 1.385 . S
C1451 C1452 1.389 . S
C1452 C1451 1.389 . S
C1452 C1453 1.387 1_545 S
C1453 H1438 0.930 . S
C1453 C1448 1.390 . S
C1453 C1452 1.387 1_565 S
H1454 C1466 0.930 . S
H1455 C1468 0.930 . S
H1456 C1469 0.930 . S
H1457 C1473 0.959 . S
H1458 C1473 0.959 . S
H1459 C1473 0.961 . S
H1460 C1474 0.960 . S
H1461 C1474 0.961 . S
H1462 C1474 0.959 . S
H1463 C1477 0.929 . S
H1464 C1478 0.931 . S
H1465 C1480 0.930 . S
C1466 H1454 0.930 . S
C1466 C1467 1.399 . S
C1466 C1471 1.399 . S
C1467 C1466 1.399 . S
C1467 C1468 1.376 . S
C1468 H1455 0.930 . S
C1468 C1467 1.376 . S
C1468 C1469 1.388 . S
C1469 H1456 0.930 . S
C1469 C1468 1.388 . S
C1469 C1470 1.390 . S
C1470 C1469 1.390 . S
C1470 C1471 1.394 . S
C1470 C1476 1.465 . S
C1471 C1466 1.399 . S
C1471 C1470 1.394 . S
C1471 C1472 1.516 . S
C1472 C1471 1.516 . S
C1472 C1473 1.502 . S
C1472 C1474 1.561 . S
C1472 C1475 1.526 . S
C1473 H1457 0.959 . S
C1473 H1458 0.959 . S
C1473 H1459 0.961 . S
C1473 C1472 1.502 . S
C1474 H1460 0.960 . S
C1474 H1461 0.961 . S
C1474 H1462 0.959 . S
C1474 C1472 1.561 . S
C1475 C1472 1.526 . S
C1475 C1476 1.396 . S
C1475 C1480 1.390 . S
C1476 C1470 1.465 . S
C1476 C1475 1.396 . S
C1476 C1477 1.399 . S
C1477 H1463 0.929 . S
C1477 C1476 1.399 . S
C1477 C1478 1.385 . S
C1478 H1464 0.931 . S
C1478 C1477 1.385 . S
C1478 C1479 1.389 . S
C1479 C1478 1.389 . S
C1479 C1480 1.387 . S
C1480 H1465 0.930 . S
C1480 C1475 1.390 . S
C1480 C1479 1.387 . S
H1481 C1493 0.930 . S
H1482 C1495 0.930 . S
H1483 C1496 0.930 . S
H1484 C1500 0.959 . S
H1485 C1500 0.959 . S
H1486 C1500 0.961 . S
H1487 C1501 0.960 . S
H1488 C1501 0.961 . S
H1489 C1501 0.959 . S
H1490 C1504 0.929 1_565 S
H1491 C1505 0.931 . S
H1492 C1507 0.930 . S
C1493 H1481 0.930 . S
C1493 C1494 1.399 1_545 S
C1493 C1498 1.399 . S
C1494 C1493 1.399 1_565 S
C1494 C1495 1.376 . S
C1495 H1482 0.930 . S
C1495 C1494 1.376 . S
C1495 C1496 1.388 . S
C1496 H1483 0.930 . S
C1496 C1495 1.388 . S
C1496 C1497 1.390 1_565 S
C1497 C1496 1.390 1_545 S
C1497 C1498 1.394 . S
C1497 C1503 1.465 . S
C1498 C1493 1.399 . S
C1498 C1497 1.394 . S
C1498 C1499 1.516 . S
C1499 C1498 1.516 . S
C1499 C1500 1.502 . S
C1499 C1501 1.561 . S
C1499 C1502 1.526 . S
C1500 H1484 0.959 . S
C1500 H1485 0.959 . S
C1500 H1486 0.961 . S
C1500 C1499 1.502 . S
C1501 H1487 0.960 . S
C1501 H1488 0.961 . S
C1501 H1489 0.959 . S
C1501 C1499 1.561 . S
C1502 C1499 1.526 . S
C1502 C1503 1.396 . S
C1502 C1507 1.390 . S
C1503 C1497 1.465 . S
C1503 C1502 1.396 . S
C1503 C1504 1.399 . S
C1504 H1490 0.929 1_545 S
C1504 C1503 1.399 . S
C1504 C1505 1.385 . S
C1505 H1491 0.931 . S
C1505 C1504 1.385 . S
C1505 C1506 1.389 . S
C1506 C1505 1.389 . S
C1506 C1507 1.387 . S
C1507 H1492 0.930 . S
C1507 C1502 1.390 . S
C1507 C1506 1.387 . S
H1508 C1520 0.930 . S
H1509 C1522 0.930 . S
H1510 C1523 0.930 . S
H1511 C1527 0.959 . S
H1512 C1527 0.959 . S
H1513 C1527 0.961 . S
H1514 C1528 0.960 . S
H1515 C1528 0.961 . S
H1516 C1528 0.959 . S
H1517 C1531 0.929 . S
H1518 C1532 0.931 . S
H1519 C1534 0.930 . S
C1520 H1508 0.930 . S
C1520 C1521 1.399 . S
C1520 C1525 1.399 . S
C1521 C1520 1.399 . S
C1521 C1522 1.376 . S
C1522 H1509 0.930 . S
C1522 C1521 1.376 . S
C1522 C1523 1.388 . S
C1523 H1510 0.930 . S
C1523 C1522 1.388 . S
C1523 C1524 1.390 . S
C1524 C1523 1.390 . S
C1524 C1525 1.394 . S
C1524 C1530 1.465 . S
C1525 C1520 1.399 . S
C1525 C1524 1.394 . S
C1525 C1526 1.516 . S
C1526 C1525 1.516 . S
C1526 C1527 1.502 . S
C1526 C1528 1.561 . S
C1526 C1529 1.526 . S
C1527 H1511 0.959 . S
C1527 H1512 0.959 . S
C1527 H1513 0.961 . S
C1527 C1526 1.502 . S
C1528 H1514 0.960 . S
C1528 H1515 0.961 . S
C1528 H1516 0.959 . S
C1528 C1526 1.561 . S
C1529 C1526 1.526 . S
C1529 C1530 1.396 . S
C1529 C1534 1.390 . S
C1530 C1524 1.465 . S
C1530 C1529 1.396 . S
C1530 C1531 1.399 . S
C1531 H1517 0.929 . S
C1531 C1530 1.399 . S
C1531 C1532 1.385 . S
C1532 H1518 0.931 . S
C1532 C1531 1.385 . S
C1532 C1533 1.389 . S
C1533 C1532 1.389 . S
C1533 C1534 1.387 . S
C1534 H1519 0.930 . S
C1534 C1529 1.390 . S
C1534 C1533 1.387 . S
H1535 C1547 0.930 . S
H1536 C1549 0.930 . S
H1537 C1550 0.930 1_565 S
H1538 C1554 0.959 . S
H1539 C1554 0.959 . S
H1540 C1554 0.961 . S
H1541 C1555 0.960 . S
H1542 C1555 0.961 . S
H1543 C1555 0.959 . S
H1544 C1558 0.929 . S
H1545 C1559 0.931 . S
H1546 C1561 0.930 . S
C1547 H1535 0.930 . S
C1547 C1548 1.399 . S
C1547 C1552 1.399 . S
C1548 C1547 1.399 . S
C1548 C1549 1.376 . S
C1549 H1536 0.930 . S
C1549 C1548 1.376 . S
C1549 C1550 1.388 . S
C1550 H1537 0.930 1_545 S
C1550 C1549 1.388 . S
C1550 C1551 1.390 . S
C1551 C1550 1.390 . S
C1551 C1552 1.394 . S
C1551 C1557 1.465 . S
C1552 C1547 1.399 . S
C1552 C1551 1.394 . S
C1552 C1553 1.516 . S
C1553 C1552 1.516 . S
C1553 C1554 1.502 . S
C1553 C1555 1.561 . S
C1553 C1556 1.526 . S
C1554 H1538 0.959 . S
C1554 H1539 0.959 . S
C1554 H1540 0.961 . S
C1554 C1553 1.502 . S
C1555 H1541 0.960 . S
C1555 H1542 0.961 . S
C1555 H1543 0.959 . S
C1555 C1553 1.561 . S
C1556 C1553 1.526 . S
C1556 C1557 1.396 . S
C1556 C1561 1.390 . S
C1557 C1551 1.465 . S
C1557 C1556 1.396 . S
C1557 C1558 1.399 1_545 S
C1558 H1544 0.929 . S
C1558 C1557 1.399 1_565 S
C1558 C1559 1.385 . S
C1559 H1545 0.931 . S
C1559 C1558 1.385 . S
C1559 C1560 1.389 . S
C1560 C1559 1.389 . S
C1560 C1561 1.387 1_565 S
C1561 H1546 0.930 . S
C1561 C1556 1.390 . S
C1561 C1560 1.387 1_545 S
H1562 C1574 0.930 . S
H1563 C1576 0.930 . S
H1564 C1577 0.930 . S
H1565 C1581 0.959 . S
H1566 C1581 0.959 . S
H1567 C1581 0.961 . S
H1568 C1582 0.960 . S
H1569 C1582 0.961 . S
H1570 C1582 0.959 . S
H1571 C1585 0.929 . S
H1572 C1586 0.931 . S
H1573 C1588 0.930 . S
C1574 H1562 0.930 . S
C1574 C1575 1.399 . S
C1574 C1579 1.399 . S
C1575 C1574 1.399 . S
C1575 C1576 1.376 . S
C1576 H1563 0.930 . S
C1576 C1575 1.376 . S
C1576 C1577 1.388 . S
C1577 H1564 0.930 . S
C1577 C1576 1.388 . S
C1577 C1578 1.390 . S
C1578 C1577 1.390 . S
C1578 C1579 1.394 . S
C1578 C1584 1.465 . S
C1579 C1574 1.399 . S
C1579 C1578 1.394 . S
C1579 C1580 1.516 . S
C1580 C1579 1.516 . S
C1580 C1581 1.502 . S
C1580 C1582 1.561 . S
C1580 C1583 1.526 . S
C1581 H1565 0.959 . S
C1581 H1566 0.959 . S
C1581 H1567 0.961 . S
C1581 C1580 1.502 . S
C1582 H1568 0.960 . S
C1582 H1569 0.961 . S
C1582 H1570 0.959 . S
C1582 C1580 1.561 . S
C1583 C1580 1.526 . S
C1583 C1584 1.396 . S
C1583 C1588 1.390 . S
C1584 C1578 1.465 . S
C1584 C1583 1.396 . S
C1584 C1585 1.399 . S
C1585 H1571 0.929 . S
C1585 C1584 1.399 . S
C1585 C1586 1.385 . S
C1586 H1572 0.931 . S
C1586 C1585 1.385 . S
C1586 C1587 1.389 . S
C1587 C1586 1.389 . S
C1587 C1588 1.387 . S
C1588 H1573 0.930 . S
C1588 C1583 1.390 . S
C1588 C1587 1.387 . S
H1589 C1601 0.930 . S
H1590 C1603 0.930 . S
H1591 C1604 0.930 . S
H1592 C1608 0.959 1_565 S
H1593 C1608 0.959 . S
H1594 C1608 0.961 . S
H1595 C1609 0.960 . S
H1596 C1609 0.961 . S
H1597 C1609 0.959 . S
H1598 C1612 0.929 . S
H1599 C1613 0.931 . S
H1600 C1615 0.930 . S
C1601 H1589 0.930 . S
C1601 C1602 1.399 . S
C1601 C1606 1.399 . S
C1602 C1601 1.399 . S
C1602 C1603 1.376 . S
C1603 H1590 0.930 . S
C1603 C1602 1.376 . S
C1603 C1604 1.388 . S
C1604 H1591 0.930 . S
C1604 C1603 1.388 . S
C1604 C1605 1.390 . S
C1605 C1604 1.390 . S
C1605 C1606 1.394 . S
C1605 C1611 1.465 . S
C1606 C1601 1.399 . S
C1606 C1605 1.394 . S
C1606 C1607 1.516 1_565 S
C1607 C1606 1.516 1_545 S
C1607 C1608 1.502 . S
C1607 C1609 1.561 . S
C1607 C1610 1.526 1_545 S
C1608 H1592 0.959 1_545 S
C1608 H1593 0.959 . S
C1608 H1594 0.961 . S
C1608 C1607 1.502 . S
C1609 H1595 0.960 . S
C1609 H1596 0.961 . S
C1609 H1597 0.959 . S
C1609 C1607 1.561 . S
C1610 C1607 1.526 1_565 S
C1610 C1611 1.396 . S
C1610 C1615 1.390 1_565 S
C1611 C1605 1.465 . S
C1611 C1610 1.396 . S
C1611 C1612 1.399 . S
C1612 H1598 0.929 . S
C1612 C1611 1.399 . S
C1612 C1613 1.385 . S
C1613 H1599 0.931 . S
C1613 C1612 1.385 . S
C1613 C1614 1.389 1_565 S
C1614 C1613 1.389 1_545 S
C1614 C1615 1.387 . S
C1615 H1600 0.930 . S
C1615 C1610 1.390 1_545 S
C1615 C1614 1.387 . S
C333 C1 0.374 . S
C345 C201 0.452 . S
C360 C21 0.497 . S
C372 C221 0.584 . S
C387 C41 0.376 . S
C399 C161 0.460 . S
C414 C181 0.374 . S
C426 C61 0.446 . S
C441 C89 0.424 . S
C453 C289 0.582 . S
C468 C309 0.504 . S
C480 C109 0.601 . S
C495 C249 0.518 . S
C507 C129 0.600 . S
C522 C149 0.484 . S
C534 C269 0.379 . S
C549 C19 2.347 . S
C561 C88 2.314 . S
C576 C39 2.303 . S
C588 C268 2.353 . S
C603 C59 2.307 . S
C615 C128 2.341 . S
C630 C79 2.318 . S
C642 C308 2.343 . S
C657 C108 2.321 . S
C669 C199 2.326 . S
C684 C239 2.326 . S
C696 C148 2.336 . S
C711 C248 2.309 . S
C723 C179 2.338 . S
C738 C219 2.311 . S
C750 C288 2.336 . S
C765 C8 1.223 . S
C777 C141 1.365 . S
C792 C28 1.248 . S
C804 C241 1.361 . S
C819 C48 1.242 . S
C831 C101 1.372 . S
C846 C68 1.232 . S
C858 C281 1.359 . S
C873 C69 1.380 . S
C885 C99 1.241 . S
C900 C119 1.265 . S
C912 C169 1.385 . S
C927 C139 1.311 . S
C939 C29 1.388 . S
C954 C209 1.359 . S
C966 C159 1.236 . S
C981 C168 1.301 . S
C993 C301 1.385 . S
C1008 C81 1.374 . S
C1020 C188 1.311 1_565 S
C1035 C261 1.388 . S
C1047 C208 1.332 . S
C1062 C121 1.370 . S
C1074 C228 1.238 1_545 S
C1089 C259 1.291 . S
C1101 C229 1.388 . S
C1116 C279 1.323 1_545 S
C1128 C9 1.369 . S
C1143 C189 1.387 . S
C1155 C299 1.317 . S
C1170 C319 1.250 1_565 S
C1182 C49 1.382 . S
C1197 C6 1.682 1_556 S
C1209 C196 1.579 . S
C1224 C216 1.607 . S
C1236 C26 1.670 . S
C1251 C46 1.673 . S
C1263 C236 1.603 . S
C1278 C176 1.554 . S
C1290 C66 1.662 . S
C1305 C266 1.575 . S
C1317 C96 1.672 1_554 S
C1332 C286 1.556 . S
C1344 C116 1.682 . S
C1359 C306 1.556 . S
C1371 C136 1.682 . S
C1386 C246 1.643 . S
C1398 C156 1.618 . S
C1413 C36 1.555 . S
C1425 C166 1.660 . S
C1440 C56 1.565 . S
C1452 C186 1.683 . S
C1467 C76 1.557 . S
C1479 C206 1.657 1_556 S
C1494 C226 1.674 . S
C1506 C16 1.553 . S
C1521 C106 1.573 . S
C1533 C256 1.673 . S
C1548 C126 1.555 . S
C1560 C276 1.676 . S
C1575 C146 1.617 . S
C1587 C296 1.629 1_554 S
C1602 C86 1.639 . S
C1614 C316 1.623 . S
