# Generated by pormake.
# Topology umz, (4)-cn, num edge types: 1
# Building blocks:
#     Node 0, Type 0, BuildingBlock: QUQFOY_clean_sbu_3, # of connection points: 4
#     Node 1, Type 0, BuildingBlock: QUQFOY_clean_sbu_3, # of connection points: 4
#     Node 2, Type 0, BuildingBlock: QUQFOY_clean_sbu_3, # of connection points: 4
#     Node 3, Type 0, BuildingBlock: QUQFOY_clean_sbu_3, # of connection points: 4
#     Node 4, Type 0, BuildingBlock: QUQFOY_clean_sbu_3, # of connection points: 4
#     Node 5, Type 0, BuildingBlock: QUQFOY_clean_sbu_3, # of connection points: 4
#     Node 6, Type 0, BuildingBlock: QUQFOY_clean_sbu_3, # of connection points: 4
#     Node 7, Type 0, BuildingBlock: QUQFOY_clean_sbu_3, # of connection points: 4
#     Node 8, Type 0, BuildingBlock: QUQFOY_clean_sbu_3, # of connection points: 4
#     Node 9, Type 0, BuildingBlock: QUQFOY_clean_sbu_3, # of connection points: 4
#     Node 10, Type 0, BuildingBlock: QUQFOY_clean_sbu_3, # of connection points: 4
#     Node 11, Type 0, BuildingBlock: QUQFOY_clean_sbu_3, # of connection points: 4
#     Node 12, Type 0, BuildingBlock: QUQFOY_clean_sbu_3, # of connection points: 4
#     Node 13, Type 0, BuildingBlock: QUQFOY_clean_sbu_3, # of connection points: 4
#     Node 14, Type 0, BuildingBlock: QUQFOY_clean_sbu_3, # of connection points: 4
#     Node 15, Type 0, BuildingBlock: QUQFOY_clean_sbu_3, # of connection points: 4
#     Edge 16, Type (0, 0), BuildingBlock: MIFKUJ_clean_linker_0, # of connection points: 2
#     Edge 17, Type (0, 0), BuildingBlock: MIFKUJ_clean_linker_0, # of connection points: 2
#     Edge 18, Type (0, 0), BuildingBlock: MIFKUJ_clean_linker_0, # of connection points: 2
#     Edge 19, Type (0, 0), BuildingBlock: MIFKUJ_clean_linker_0, # of connection points: 2
#     Edge 20, Type (0, 0), BuildingBlock: MIFKUJ_clean_linker_0, # of connection points: 2
#     Edge 21, Type (0, 0), BuildingBlock: MIFKUJ_clean_linker_0, # of connection points: 2
#     Edge 22, Type (0, 0), BuildingBlock: MIFKUJ_clean_linker_0, # of connection points: 2
#     Edge 23, Type (0, 0), BuildingBlock: MIFKUJ_clean_linker_0, # of connection points: 2
#     Edge 24, Type (0, 0), BuildingBlock: MIFKUJ_clean_linker_0, # of connection points: 2
#     Edge 25, Type (0, 0), BuildingBlock: MIFKUJ_clean_linker_0, # of connection points: 2
#     Edge 26, Type (0, 0), BuildingBlock: MIFKUJ_clean_linker_0, # of connection points: 2
#     Edge 27, Type (0, 0), BuildingBlock: MIFKUJ_clean_linker_0, # of connection points: 2
#     Edge 28, Type (0, 0), BuildingBlock: MIFKUJ_clean_linker_0, # of connection points: 2
#     Edge 29, Type (0, 0), BuildingBlock: MIFKUJ_clean_linker_0, # of connection points: 2
#     Edge 30, Type (0, 0), BuildingBlock: MIFKUJ_clean_linker_0, # of connection points: 2
#     Edge 31, Type (0, 0), BuildingBlock: MIFKUJ_clean_linker_0, # of connection points: 2
#     Edge 32, Type (0, 0), BuildingBlock: MIFKUJ_clean_linker_0, # of connection points: 2
#     Edge 33, Type (0, 0), BuildingBlock: MIFKUJ_clean_linker_0, # of connection points: 2
#     Edge 34, Type (0, 0), BuildingBlock: MIFKUJ_clean_linker_0, # of connection points: 2
#     Edge 35, Type (0, 0), BuildingBlock: MIFKUJ_clean_linker_0, # of connection points: 2
#     Edge 36, Type (0, 0), BuildingBlock: MIFKUJ_clean_linker_0, # of connection points: 2
#     Edge 37, Type (0, 0), BuildingBlock: MIFKUJ_clean_linker_0, # of connection points: 2
#     Edge 38, Type (0, 0), BuildingBlock: MIFKUJ_clean_linker_0, # of connection points: 2
#     Edge 39, Type (0, 0), BuildingBlock: MIFKUJ_clean_linker_0, # of connection points: 2
#     Edge 40, Type (0, 0), BuildingBlock: MIFKUJ_clean_linker_0, # of connection points: 2
#     Edge 41, Type (0, 0), BuildingBlock: MIFKUJ_clean_linker_0, # of connection points: 2
#     Edge 42, Type (0, 0), BuildingBlock: MIFKUJ_clean_linker_0, # of connection points: 2
#     Edge 43, Type (0, 0), BuildingBlock: MIFKUJ_clean_linker_0, # of connection points: 2
#     Edge 44, Type (0, 0), BuildingBlock: MIFKUJ_clean_linker_0, # of connection points: 2
#     Edge 45, Type (0, 0), BuildingBlock: MIFKUJ_clean_linker_0, # of connection points: 2
#     Edge 46, Type (0, 0), BuildingBlock: MIFKUJ_clean_linker_0, # of connection points: 2
#     Edge 47, Type (0, 0), BuildingBlock: MIFKUJ_clean_linker_0, # of connection points: 2
# Relax obj value: 0.250
# Max RMSD: 0.160
# Mean RMSD: 0.160
data_MOF--net-umz--node1-QUQFOY_clean_sbu_3--edge1-MIFKUJ_clean_linker_0
_symmetry_space_group_name_H-M    P1
_symmetry_Int_Tables_number       1
_symmetry_cell_setting            triclinic
loop_
_symmetry_equiv_pos_as_xyz
'x, y, z'
_cell_length_a     77.735751
_cell_length_b     77.895243
_cell_length_c     29.285072
_cell_angle_alpha  90.062737
_cell_angle_beta   89.991722
_cell_angle_gamma 90.002334
loop_
_atom_site_label
_atom_site_type_symbol
_atom_site_fract_x
_atom_site_fract_y
_atom_site_fract_z
_atom_type_partial_charge
C0 C 0.98438 0.59236 0.0185 0.0
O1 O 0.99198 0.58375 0.98764 0.0
Cd2 Cd 0.01837 0.59355 0.95319 0.0
O3 O 0.98976 0.60724 0.02937 0.0
Cd4 Cd 0.01188 0.62836 0.00874 0.0
C5 C 0.0403 0.60057 0.05389 0.0
O6 O 0.01498 0.6226 0.92849 0.0
O7 O 0.03596 0.63655 0.95934 0.0
O8 O 0.99019 0.65042 0.00273 0.0
C9 C 0.02912 0.6305 0.92343 0.0
O10 O 0.03875 0.59205 0.0169 0.0
C11 C -0.0026 0.66076 0.03027 0.0
O12 O 0.03126 0.61393 0.06127 0.0
O13 O 0.01119 0.6557 0.04941 0.0
C14 C 0.89347 0.96001 0.53462 0.0
O15 O 0.90439 0.96308 0.50342 0.0
Cd16 Cd 0.9044 0.99039 0.46479 0.0
O17 O 0.88102 0.97029 0.54153 0.0
Cd18 Cd 0.86754 -0.00339 0.51276 0.0
C19 C 0.9018 0.01521 0.56287 0.0
O20 O 0.87675 -0.00278 0.43361 0.0
O21 O 0.86779 0.02118 0.46261 0.0
O22 O 0.84041 0.9821 0.50234 0.0
C23 C 0.87334 0.01305 0.42806 0.0
O24 O 0.9105 0.0094 0.52933 0.0
C25 C 0.83194 0.99167 0.52932 0.0
O26 O 0.88573 0.01221 0.56638 0.0
O27 O 0.84016 0.00361 0.54944 0.0
C28 C 0.53309 0.89353 0.02965 0.0
O29 O 0.52983 0.90582 0.00253 0.0
Cd30 Cd 0.50295 0.90747 0.96202 0.0
O31 O 0.52324 0.88051 0.03129 0.0
Cd32 Cd 0.49755 0.86814 0.99528 0.0
C33 C 0.4774 0.89857 0.05645 0.0
O34 O 0.49674 0.88178 0.92104 0.0
O35 O 0.47288 0.87079 0.94526 0.0
O36 O 0.51321 0.8425 0.97466 0.0
C37 C 0.4809 0.87871 0.91397 0.0
O38 O 0.48309 0.90893 0.02631 0.0
C39 C 0.5033 0.83221 0.9956 0.0
O40 O 0.48113 0.88263 0.05507 0.0
O41 O 0.49075 0.83874 0.01747 0.0
C42 C 0.59774 0.51551 0.58731 0.0
O43 O 0.58507 0.51274 0.5609 0.0
Cd44 Cd 0.58549 0.49152 0.50085 0.0
O45 O 0.61226 0.5085 0.57988 0.0
Cd46 Cd 0.62634 0.48989 0.52284 0.0
C47 C 0.60175 0.45771 0.56406 0.0
O48 O 0.60998 0.49596 0.45406 0.0
O49 O 0.62584 0.47319 0.45303 0.0
O50 O 0.65038 0.50911 0.50958 0.0
C51 C 0.61546 0.48298 0.43217 0.0
O52 O 0.58931 0.46459 0.54237 0.0
C53 C 0.6616 0.49893 0.52564 0.0
O54 O 0.6166 0.46464 0.56453 0.0
O55 O 0.65632 0.48466 0.54134 0.0
C56 C 0.96509 0.90493 0.94771 0.0
O57 O 0.96892 0.91701 0.97503 0.0
Cd58 Cd 0.99395 0.91531 0.02397 0.0
O59 O 0.97336 0.89086 0.94893 0.0
Cd60 Cd -0.0035 0.87672 0.9914 0.0
C61 C 0.02358 0.90443 0.94114 0.0
O62 O 0.9956 0.88941 0.06781 0.0
O63 O 0.01919 0.87685 0.0469 0.0
O64 O 0.97945 0.85164 0.00956 0.0
C65 C 0.01071 0.8844 0.078 0.0
O66 O 0.01772 0.91534 0.96965 0.0
C67 C 0.98861 0.84126 0.98661 0.0
O68 O 0.01752 0.88924 0.93935 0.0
O69 O 0.00133 0.84749 0.96492 0.0
C70 C 0.58863 0.95603 0.44833 0.0
O71 O 0.57606 0.95933 0.47458 0.0
Cd72 Cd 0.57434 0.98633 0.51448 0.0
O73 O 0.60179 0.96576 0.44814 0.0
Cd74 Cd 0.61308 0.99123 0.48828 0.0
C75 C 0.5851 0.01283 0.42403 0.0
O76 O 0.59845 0.99264 0.56223 0.0
O77 O 0.60825 0.0164 0.53403 0.0
O78 O 0.63884 0.97731 0.51656 0.0
C79 C 0.60122 0.00864 0.56718 0.0
O80 O 0.57395 0.00707 0.45203 0.0
C81 C 0.64925 0.98696 0.49518 0.0
O82 O 0.60088 0.00854 0.4273 0.0
O83 O 0.64277 -0.00167 0.46925 0.0
C84 C 0.51572 0.58669 0.96626 0.0
O85 O 0.511 0.57714 -0.00095 0.0
Cd86 Cd 0.48303 0.58189 0.03291 0.0
O87 O 0.50704 0.59997 0.95596 0.0
Cd88 Cd 0.48248 0.61748 0.98019 0.0
C89 C 0.45902 0.58585 0.93376 0.0
O90 O 0.48005 0.61073 0.06104 0.0
O91 O 0.45783 0.62217 0.02846 0.0
O92 O 0.50197 0.64143 0.98598 0.0
C93 C 0.46488 0.61672 0.0647 0.0
O94 O 0.4634 0.57709 0.96864 0.0
C95 C 0.49338 0.6514 0.96045 0.0
O96 O 0.46457 0.60109 0.92801 0.0
O97 O 0.47965 0.64543 0.94291 0.0
C98 C 0.90849 0.50911 0.39514 0.0
O99 O 0.92023 0.50394 0.42202 0.0
Cd100 Cd 0.91588 0.4833 0.48227 0.0
O101 O 0.89296 0.50442 0.40093 0.0
Cd102 Cd 0.87585 0.48673 0.45367 0.0
C103 C 0.89733 0.4516 0.41651 0.0
O104 O 0.89107 0.49093 0.5255 0.0
O105 O 0.87295 0.46993 0.52258 0.0
O106 O 0.85308 0.50775 0.46439 0.0
C107 C 0.88355 0.47866 0.5459 0.0
O108 O 0.90995 0.45679 0.44068 0.0
C109 C 0.84147 0.49853 0.4462 0.0
O110 O 0.88362 0.46048 0.41323 0.0
O111 O 0.84603 0.48407 0.43017 0.0
C112 C 0.01505 0.39715 0.96455 0.0
O113 O 0.009 0.40629 -0.00329 0.0
Cd114 Cd 0.98201 0.39927 0.0326 0.0
O115 O 0.00792 0.38302 0.9538 0.0
Cd116 Cd 0.98414 0.36411 0.97558 0.0
C117 C 0.95994 0.39576 0.93081 0.0
O118 O 0.98119 0.36988 0.0565 0.0
O119 O 0.95933 0.35821 0.0229 0.0
O120 O 0.0039 0.34028 0.9789 0.0
C121 C 0.96624 0.36337 0.05967 0.0
O122 O 0.96265 0.40387 0.96796 0.0
C123 C 0.99527 0.33058 0.95258 0.0
O124 O 0.96677 0.38113 0.92357 0.0
O125 O 0.98159 0.33679 0.93538 0.0
C126 C 0.0986 0.02407 0.47036 0.0
O127 O 0.08802 0.0201 0.50168 0.0
Cd128 Cd 0.09061 0.9937 0.54375 0.0
O129 O 0.11197 0.01498 0.46362 0.0
Cd130 Cd 0.12757 0.98999 0.4942 0.0
C131 C 0.09504 0.96624 0.45146 0.0
O132 O 0.11909 0.99102 0.57339 0.0
O133 O 0.13 0.96704 0.55047 0.0
O134 O 0.15364 0.00668 0.4997 0.0
C135 C 0.12372 0.97582 0.58296 0.0
O136 O 0.08601 0.97199 0.48447 0.0
C137 C 0.16242 -0.00273 0.47303 0.0
O138 O 0.11053 0.97114 0.44568 0.0
O139 O 0.15489 0.98432 0.45564 0.0
C140 C 0.4584 0.09538 0.96089 0.0
O141 O 0.46264 0.08361 0.98867 0.0
Cd142 Cd 0.48926 0.08449 0.03028 0.0
O143 O 0.46724 0.10909 0.95808 0.0
Cd144 Cd 0.49233 0.12351 0.992 0.0
C145 C 0.51444 0.09306 0.93514 0.0
O146 O 0.4929 0.11134 0.06771 0.0
O147 O 0.51661 0.12281 0.04453 0.0
O148 O 0.47543 0.14896 0.00723 0.0
C149 C 0.50845 0.11521 0.07612 0.0
O150 O 0.50964 0.08297 0.96696 0.0
C151 C 0.48533 0.15917 0.98596 0.0
O152 O 0.50944 0.10865 0.93412 0.0
O153 O 0.49838 0.15265 0.96627 0.0
C154 C 0.39638 0.4739 0.40798 0.0
O155 O 0.40794 0.47682 0.43762 0.0
Cd156 Cd 0.40456 0.49886 0.49506 0.0
O157 O 0.38165 0.48089 0.41143 0.0
Cd158 Cd 0.3652 0.49939 0.46359 0.0
C159 C 0.39001 0.53134 0.42423 0.0
O160 O 0.37873 0.49529 0.53804 0.0
O161 O 0.36345 0.51821 0.52855 0.0
O162 O 0.34228 0.47851 0.471 0.0
C163 C 0.3725 0.509 0.55491 0.0
O164 O 0.40173 0.52503 0.44962 0.0
C165 C 0.33062 0.48834 0.45556 0.0
O166 O 0.37536 0.5241 0.42074 0.0
O167 O 0.33521 0.50324 0.44269 0.0
C168 C 0.02759 0.08823 0.06883 0.0
O169 O 0.02401 0.0754 0.04375 0.0
Cd170 Cd 9e-05 0.07455 0.99163 0.0
O171 O 0.01928 0.10221 0.06461 0.0
Cd172 Cd -0.00389 0.11429 0.01706 0.0
C173 C 0.9689 0.08679 0.06888 0.0
O174 O -0.00015 0.09942 0.9443 0.0
O175 O 0.97548 0.11204 0.95585 0.0
O176 O 0.01272 0.13994 0.00102 0.0
C177 C 0.98516 0.10367 0.92903 0.0
O178 O 0.97532 0.07534 0.04284 0.0
C179 C 0.00153 0.15028 0.0166 0.0
O180 O 0.9747 0.1021 0.06867 0.0
O181 O 0.98803 0.14377 0.03388 0.0
C182 C 0.4087 0.03557 0.53215 0.0
O183 O 0.42099 0.02998 0.50775 0.0
Cd184 Cd 0.41948 0.00308 0.46777 0.0
O185 O 0.39423 0.02791 0.5323 0.0
Cd186 Cd 0.37996 0.00305 0.49647 0.0
C187 C 0.40635 0.97925 0.56102 0.0
O188 O 0.39406 0.00011 0.42262 0.0
O189 O 0.38145 0.97756 0.44977 0.0
O190 O 0.35463 0.0185 0.47031 0.0
C191 C 0.3894 0.98461 0.41696 0.0
O192 O 0.41789 0.98322 0.53196 0.0
C193 C 0.34411 0.00977 0.49403 0.0
O194 O 0.39114 0.98523 0.55787 0.0
O195 O 0.35042 -0.00164 0.52012 0.0
C196 C 0.47054 0.40596 0.01014 0.0
O197 O 0.47769 0.41614 0.98211 0.0
Cd198 Cd 0.50605 0.41039 0.95198 0.0
O199 O 0.47771 0.39183 0.02056 0.0
Cd200 Cd 0.50327 0.37465 0.00329 0.0
C201 C 0.52587 0.40571 0.05622 0.0
O202 O 0.50854 0.38163 0.92359 0.0
O203 O 0.52974 0.37047 0.96107 0.0
O204 O 0.48437 0.35041 0.99247 0.0
C205 C 0.52376 0.37567 0.92325 0.0
O206 O 0.5244 0.41409 0.01908 0.0
C207 C 0.49233 0.34043 0.01941 0.0
O208 O 0.51841 0.39127 0.06157 0.0
O209 O 0.50534 0.34656 0.04016 0.0
C210 C 0.08579 0.48049 0.57678 0.0
O211 O 0.07462 0.48564 0.54823 0.0
Cd212 Cd 0.08035 0.50782 0.49271 0.0
O213 O 0.10129 0.48568 0.57436 0.0
Cd214 Cd 0.1199 0.50373 0.52631 0.0
C215 C 0.09798 0.53808 0.56553 0.0
O216 O 0.10598 0.50084 0.45235 0.0
O217 O 0.1249 0.52101 0.45869 0.0
O218 O 0.14153 0.48133 0.5206 0.0
C219 C 0.1142 0.5131 0.43383 0.0
O220 O 0.08579 0.53323 0.5394 0.0
C221 C 0.15354 0.49036 0.53763 0.0
O222 O 0.11171 0.52926 0.56921 0.0
O223 O 0.14967 0.50543 0.55074 0.0
H224 H 0.9722 0.67651 0.98114 0.0
H225 H 0.96651 0.70725 0.97723 0.0
H226 H 0.0025 0.71599 0.08699 0.0
H227 H 0.00872 0.68524 0.09007 0.0
H228 H 0.95613 0.73365 0.02759 0.0
H229 H 0.02797 0.74908 0.05951 0.0
H230 H 0.05624 0.73486 0.05299 0.0
H231 H 0.03644 0.70179 0.94801 0.0
H232 H 0.00815 0.71598 0.95347 0.0
H233 H 0.96927 0.82366 0.04829 0.0
H234 H 0.96672 0.79258 0.05589 0.0
H235 H -0.00251 0.7858 0.9344 0.0
H236 H 0.00073 0.81691 0.92794 0.0
H237 H 0.00943 0.76667 -0.00362 0.0
H238 H 0.95292 0.77641 0.93938 0.0
H239 H 0.92419 0.78971 0.93492 0.0
H240 H 0.91239 0.77151 0.06967 0.0
H241 H 0.94115 0.75829 0.07521 0.0
C242 C 0.97864 0.68492 0.00514 0.0
C243 C 0.99119 0.67854 0.03525 0.0
C244 C 0.97531 0.70249 0.00297 0.0
C245 C 0.98438 0.71391 0.03107 0.0
C246 C 0.99563 0.70739 0.06433 0.0
C247 C -0.00085 0.68983 0.06612 0.0
C248 C 0.98372 0.73255 0.02166 0.0
C249 C 0.96775 0.74094 0.02099 0.0
C250 C -0.00115 0.74188 0.01139 0.0
C251 C 0.01591 0.73347 0.00729 0.0
C252 C 0.02968 0.73882 0.03493 0.0
C253 C 0.0457 0.73076 0.03143 0.0
C254 C 0.04811 0.71739 0.00022 0.0
C255 C 0.03454 0.7121 0.97228 0.0
C256 C 0.01851 0.72014 0.97558 0.0
C257 C 0.97528 0.81554 0.02283 0.0
C258 C 0.9853 0.82266 0.98768 0.0
C259 C 0.97373 0.79776 0.02706 0.0
C260 C 0.98182 0.78683 0.99556 0.0
C261 C 0.9912 0.79398 0.95925 0.0
C262 C 0.99303 0.81174 0.95551 0.0
C263 C 0.98182 0.76799 0.00273 0.0
C264 C -0.00227 0.7595 0.00304 0.0
C265 C 0.96657 0.75853 0.01101 0.0
C266 C 0.94926 0.76649 0.00786 0.0
C267 C 0.94425 0.77536 0.96821 0.0
C268 C 0.92795 0.78286 0.96546 0.0
C269 C 0.91649 0.7815 0.00203 0.0
C270 C 0.92129 0.77258 0.04139 0.0
C271 C 0.93758 0.76506 0.04433 0.0
H272 H 0.90387 0.78731 -0.00017 0.0
H273 H 0.06052 0.71115 -0.00239 0.0
H274 H 0.66606 0.96848 0.56041 0.0
H275 H 0.6969 0.9683 0.57648 0.0
H276 H 0.70561 0.00189 0.46166 0.0
H277 H 0.67472 0.0026 0.44639 0.0
H278 H 0.72412 0.95823 0.53377 0.0
H279 H 0.73744 0.02939 0.4826 0.0
H280 H 0.72233 0.05723 0.48365 0.0
H281 H 0.68968 0.03938 0.59193 0.0
H282 H 0.70475 0.01153 0.59199 0.0
H283 H 0.81069 0.97133 0.47919 0.0
H284 H 0.77953 0.96909 0.48455 0.0
H285 H 0.77963 0.00423 0.59866 0.0
H286 H 0.81092 0.00703 0.59228 0.0
H287 H 0.75604 0.01328 0.54314 0.0
H288 H 0.7704 0.96046 0.61198 0.0
H289 H 0.78499 0.93261 0.6219 0.0
H290 H 0.76157 0.9138 0.49886 0.0
H291 H 0.74702 0.94162 0.48781 0.0
C292 C 0.67456 0.97577 0.53846 0.0
C293 C 0.66798 0.98566 0.50234 0.0
C294 C 0.69218 0.97564 0.54769 0.0
C295 C 0.70353 0.98533 0.52082 0.0
C296 C 0.69704 0.99466 0.48357 0.0
C297 C 0.67941 -0.00503 0.47467 0.0
C298 C 0.72214 0.98581 0.53176 0.0
C299 C 0.73111 0.97026 0.53599 0.0
C300 C 0.73114 0.0015 0.53645 0.0
C301 C 0.72215 0.01832 0.53701 0.0
C302 C 0.7271 0.03143 0.50678 0.0
C303 C 0.71853 0.04721 0.50716 0.0
C304 C 0.70502 0.05006 0.53775 0.0
C305 C 0.7001 0.03715 0.56814 0.0
C306 C 0.70864 0.02135 0.56795 0.0
C307 C 0.80412 0.97845 0.50575 0.0
C308 C 0.81323 0.98939 0.53527 0.0
C309 C 0.78629 0.97706 0.509 0.0
C310 C 0.77723 0.98629 0.54244 0.0
C311 C 0.78635 -0.00304 0.57263 0.0
C312 C 0.80421 -0.00147 0.56901 0.0
C313 C 0.75816 0.98569 0.54342 0.0
C314 C 0.74907 0.00123 0.54146 0.0
C315 C 0.74899 0.96998 0.5425 0.0
C316 C 0.7577 0.95319 0.54893 0.0
C317 C 0.76845 0.95043 0.58685 0.0
C318 C 0.7767 0.93464 0.59271 0.0
C319 C 0.77423 0.92145 0.561 0.0
C320 C 0.76348 0.92403 0.5234 0.0
C321 C 0.7552 0.9398 0.51736 0.0
H322 H 0.78063 0.90924 0.56559 0.0
H323 H 0.69839 0.06228 0.53795 0.0
H324 H 0.4842 0.80705 0.03619 0.0
H325 H 0.48739 0.77603 0.02696 0.0
H326 H 0.53126 0.78399 0.93924 0.0
H327 H 0.52808 0.81505 0.94796 0.0
H328 H 0.50914 0.76142 0.90243 0.0
H329 H 0.53743 0.76895 0.04491 0.0
H330 H 0.54127 0.77916 0.12397 0.0
H331 H 0.49739 0.74979 0.16662 0.0
H332 H 0.49312 0.73959 0.08766 0.0
H333 H 0.52282 0.66663 0.99044 0.0
H334 H 0.52968 0.69721 0.99011 0.0
H335 H 0.48232 0.70771 0.91853 0.0
H336 H 0.47549 0.67708 0.91809 0.0
H337 H 0.51197 0.72099 0.03297 0.0
H338 H 0.48634 0.74419 0.85642 0.0
H339 H 0.48513 0.73385 0.77685 0.0
H340 H 0.52881 0.70139 0.80105 0.0
H341 H 0.53045 0.7117 0.88054 0.0
C342 C 0.49462 0.8022 0.01527 0.0
C343 C 0.50588 0.81348 0.99278 0.0
C344 C 0.49646 0.78448 0.01014 0.0
C345 C 0.50963 0.77775 0.98262 0.0
C346 C 0.52102 0.78896 0.96059 0.0
C347 C 0.51921 0.80668 0.96576 0.0
C348 C 0.51103 0.759 0.97555 0.0
C349 C 0.50986 0.75255 0.93089 0.0
C350 C 0.51239 0.7475 0.01267 0.0
C351 C 0.51489 0.75361 0.06026 0.0
C352 C 0.52852 0.76478 0.07107 0.0
C353 C 0.53079 0.77054 0.11589 0.0
C354 C 0.51957 0.76515 0.15028 0.0
C355 C 0.50607 0.75396 0.13994 0.0
C356 C 0.50373 0.74817 0.09516 0.0
C357 C 0.514 0.67541 0.9739 0.0
C358 C 0.49854 0.66949 0.95459 0.0
C359 C 0.51794 0.69287 0.97381 0.0
C360 C 0.50652 0.70471 0.95432 0.0
C361 C 0.49143 0.69876 0.93324 0.0
C362 C 0.4875 0.68126 0.93317 0.0
C363 C 0.50954 0.72335 0.95991 0.0
C364 C 0.51148 0.72982 0.00437 0.0
C365 C 0.50923 0.73482 0.92252 0.0
C366 C 0.50842 0.72863 0.8746 0.0
C367 C 0.49574 0.73491 0.84472 0.0
C368 C 0.49497 0.72904 0.79963 0.0
C369 C 0.50685 0.71694 0.78394 0.0
C370 C 0.51957 0.71071 0.81329 0.0
C371 C 0.52041 0.71655 0.8584 0.0
H372 H 0.50623 0.71241 0.74903 0.0
H373 H 0.52135 0.76963 0.18496 0.0
H374 H 0.68731 0.48572 0.57801 0.0
H375 H 0.71823 0.49017 0.56862 0.0
H376 H 0.70839 0.52453 0.45594 0.0
H377 H 0.67749 0.52086 0.46703 0.0
H378 H 0.7366 0.48085 0.50328 0.0
H379 H 0.74161 0.55106 0.43587 0.0
H380 H 0.7278 0.57916 0.44872 0.0
H381 H 0.71276 0.56347 0.58345 0.0
H382 H 0.72666 0.53537 0.57165 0.0
H383 H 0.81521 0.48619 0.39404 0.0
H384 H 0.78444 0.49069 0.4064 0.0
H385 H 0.79578 0.52569 0.51675 0.0
H386 H 0.82655 0.52186 0.50308 0.0
H387 H 0.76755 0.53561 0.47622 0.0
H388 H 0.78862 0.48276 0.53712 0.0
H389 H 0.80358 0.45484 0.53542 0.0
H390 H 0.76787 0.43629 0.43497 0.0
H391 H 0.75284 0.46419 0.43562 0.0
C392 C 0.69178 0.49449 0.55187 0.0
C393 C 0.68007 0.50293 0.5232 0.0
C394 C 0.70943 0.497 0.54643 0.0
C395 C 0.71569 0.50773 0.51164 0.0
C396 C 0.70394 0.5165 0.48368 0.0
C397 C 0.68627 0.51431 0.48985 0.0
C398 C 0.73442 0.50846 0.50199 0.0
C399 C 0.74333 0.49287 0.49764 0.0
C400 C 0.74334 0.52411 0.4951 0.0
C401 C 0.73505 0.54104 0.50266 0.0
C402 C 0.73542 0.55363 0.4683 0.0
C403 C 0.72756 0.56955 0.47539 0.0
C404 C 0.71936 0.57308 0.51682 0.0
C405 C 0.71905 0.5607 0.5513 0.0
C406 C 0.7269 0.54476 0.5444 0.0
C407 C 0.81112 0.49514 0.42022 0.0
C408 C 0.82321 0.50349 0.44806 0.0
C409 C 0.79356 0.49766 0.42737 0.0
C410 C 0.78784 0.50814 0.46336 0.0
C411 C 0.7999 0.51746 0.48898 0.0
C412 C 0.81748 0.51523 0.4812 0.0
C413 C 0.7695 0.50803 0.47713 0.0
C414 C 0.76073 0.52367 0.48208 0.0
C415 C 0.76079 0.49246 0.48636 0.0
C416 C 0.76971 0.47561 0.48612 0.0
C417 C 0.78402 0.47275 0.51447 0.0
C418 C 0.79251 0.45693 0.51371 0.0
C419 C 0.7867 0.44381 0.48503 0.0
C420 C 0.77236 0.44647 0.45713 0.0
C421 C 0.76385 0.46228 0.45769 0.0
H422 H 0.79329 0.43157 0.48449 0.0
H423 H 0.71328 0.58541 0.52223 0.0
H424 H 0.97737 0.30572 0.90687 0.0
H425 H 0.98204 0.27471 0.9116 0.0
H426 H 0.02813 0.28324 0.99038 0.0
H427 H 0.02354 0.3142 0.98613 0.0
H428 H 0.00796 0.25072 0.89261 0.0
H429 H 0.02533 0.25675 0.08294 0.0
H430 H 0.02147 0.27714 0.14673 0.0
H431 H 0.97484 0.29575 0.0857 0.0
H432 H 0.9783 0.2753 0.02199 0.0
H433 H 0.02822 0.16758 0.97712 0.0
H434 H 0.03017 0.19844 0.96257 0.0
H435 H 0.98131 0.20605 0.0295 0.0
H436 H 0.97934 0.17528 0.04465 0.0
H437 H 0.00395 0.23054 0.05307 0.0
H438 H 0.98356 0.20401 0.91463 0.0
H439 H 0.98476 0.18366 0.85013 0.0
H440 H 0.03256 0.20577 0.80608 0.0
H441 H 0.03176 0.22611 0.87073 0.0
C442 C 0.98873 0.30101 0.92422 0.0
C443 C -8e-05 0.31235 0.94684 0.0
C444 C 0.99141 0.2833 0.92675 0.0
C445 C 0.00526 0.27676 0.95199 0.0
C446 C 0.01725 0.28809 0.97122 0.0
C447 C 0.01459 0.30577 0.96875 0.0
C448 C 0.00591 0.25829 0.96313 0.0
C449 C 0.00724 0.24627 0.92765 0.0
C450 C 0.00461 0.25256 0.00884 0.0
C451 C 0.0022 0.26464 0.04749 0.0
C452 C 0.01423 0.26515 0.08327 0.0
C453 C 0.01211 0.27672 0.11939 0.0
C454 C -0.00205 0.28778 0.12017 0.0
C455 C 0.98583 0.28722 0.08497 0.0
C456 C 0.98787 0.27566 0.04884 0.0
C457 C 0.01798 0.17586 0.9892 0.0
C458 C 0.00357 0.16902 0.01182 0.0
C459 C 0.01908 0.19345 0.98065 0.0
C460 C 0.00577 0.20445 0.99441 0.0
C461 C 0.9917 0.19775 0.01853 0.0
C462 C 0.99059 0.18017 0.02711 0.0
C463 C 0.00616 0.22289 0.9826 0.0
C464 C 0.00496 0.23494 0.01802 0.0
C465 C 0.00724 0.2286 0.93678 0.0
C466 C 0.00769 0.21645 0.89778 0.0
C467 C 0.9944 0.20444 0.89139 0.0
C468 C 0.99499 0.19292 0.85477 0.0
C469 C 0.00876 0.19339 0.8241 0.0
C470 C 0.02193 0.20541 0.82991 0.0
C471 C 0.0214 0.21694 0.86651 0.0
H472 H 0.00919 0.18446 0.79577 0.0
H473 H -0.00365 0.29674 0.14812 0.0
H474 H 0.31895 -0.00376 0.5478 0.0
H475 H 0.288 -0.00341 0.53375 0.0
H476 H 0.29596 0.02744 0.41327 0.0
H477 H 0.32695 0.02757 0.42791 0.0
H478 H 0.26784 0.03753 0.4555 0.0
H479 H 0.28989 0.98444 0.40315 0.0
H480 H 0.30651 0.95752 0.40638 0.0
H481 H 0.27505 0.93977 0.51724 0.0
H482 H 0.2584 0.96671 0.51513 0.0
H483 H 0.18351 0.98248 0.40931 0.0
H484 H 0.21436 0.98746 0.39892 0.0
H485 H 0.21354 0.02461 0.50844 0.0
H486 H 0.18275 0.02019 0.51771 0.0
H487 H 0.23885 0.98077 0.45333 0.0
H488 H 0.24441 0.05375 0.49987 0.0
H489 H 0.22828 0.08052 0.48633 0.0
H490 H 0.20493 0.0583 0.36727 0.0
H491 H 0.2211 0.03149 0.37967 0.0
C492 C 0.31409 0.00328 0.51865 0.0
C493 C 0.32536 0.01174 0.48871 0.0
C494 C 0.29643 0.0034 0.51051 0.0
C495 C 0.28974 0.01169 0.47183 0.0
C496 C 0.30087 0.02087 0.44313 0.0
C497 C 0.31856 0.02093 0.45155 0.0
C498 C 0.27122 0.01017 0.46074 0.0
C499 C 0.26146 0.02515 0.45484 0.0
C500 C 0.26307 0.99396 0.4579 0.0
C501 C 0.27296 0.97766 0.45916 0.0
C502 C 0.28658 0.97485 0.42841 0.0
C503 C 0.296 0.95958 0.43002 0.0
C504 C 0.29186 0.94695 0.46204 0.0
C505 C 0.27825 0.94956 0.49246 0.0
C506 C 0.2688 0.96482 0.49104 0.0
C507 C 0.18989 0.99189 0.43066 0.0
C508 C 0.18075 0.00092 0.46437 0.0
C509 C 0.20751 0.99472 0.42471 0.0
C510 C 0.21626 0.00655 0.45255 0.0
C511 C 0.20704 0.01574 0.48573 0.0
C512 C 0.18943 0.01309 0.49127 0.0
C513 C 0.23524 0.00819 0.45008 0.0
C514 C 0.24516 0.99319 0.45336 0.0
C515 C 0.24356 0.02437 0.44887 0.0
C516 C 0.2339 0.04054 0.44092 0.0
C517 C 0.23591 0.0546 0.47064 0.0
C518 C 0.22674 0.06978 0.4632 0.0
C519 C 0.21555 0.07109 0.42603 0.0
C520 C 0.21355 0.05725 0.39614 0.0
C521 C 0.2227 0.04204 0.40341 0.0
H522 H 0.20846 0.08285 0.42035 0.0
H523 H 0.29917 0.93514 0.46323 0.0
H524 H 0.45915 0.1764 0.02788 0.0
H525 H 0.45542 0.20747 0.03413 0.0
H526 H 0.50105 0.21525 0.95286 0.0
H527 H 0.50477 0.18421 0.94601 0.0
H528 H 0.47634 0.23022 0.07353 0.0
H529 H 0.49698 0.25163 0.89119 0.0
H530 H 0.49478 0.24121 0.81184 0.0
H531 H 0.45001 0.21177 0.84707 0.0
H532 H 0.45179 0.22221 0.92644 0.0
H533 H 0.50941 0.31486 0.06444 0.0
H534 H 0.50314 0.28413 0.06193 0.0
H535 H 0.45788 0.29409 0.98087 0.0
H536 H 0.46423 0.32478 0.98254 0.0
H537 H 0.47676 0.27031 0.94205 0.0
H538 H 0.45431 0.27979 0.09078 0.0
H539 H 0.45391 0.2903 0.17021 0.0
H540 H 0.49715 0.25824 0.20248 0.0
H541 H 0.49797 0.24771 0.12306 0.0
C542 C 0.46828 0.18472 0.01086 0.0
C543 C 0.48227 0.17787 0.98647 0.0
C544 C 0.46615 0.20246 0.01462 0.0
C545 C 0.4779 0.21364 0.99382 0.0
C546 C 0.49169 0.20684 0.96868 0.0
C547 C 0.49384 0.1891 0.9649 0.0
C548 C 0.4763 0.23242 0.00019 0.0
C549 C 0.47633 0.23901 0.04483 0.0
C550 C 0.47588 0.24383 0.9627 0.0
C551 C 0.47462 0.2376 0.91489 0.0
C552 C 0.48662 0.243 0.88196 0.0
C553 C 0.48546 0.23708 0.83698 0.0
C554 C 0.4723 0.2258 0.82445 0.0
C555 C 0.46024 0.22046 0.85685 0.0
C556 C 0.46134 0.22635 0.90186 0.0
C557 C 0.49797 0.31053 0.04675 0.0
C558 C 0.48738 0.32221 0.02343 0.0
C559 C 0.49436 0.29297 0.04548 0.0
C560 C 0.48001 0.28683 0.02129 0.0
C561 C 0.46904 0.29856 -0.00041 0.0
C562 C 0.47268 0.31609 0.00068 0.0
C563 C 0.47731 0.26814 0.01541 0.0
C564 C 0.47655 0.26155 0.97082 0.0
C565 C 0.4767 0.25676 0.05297 0.0
C566 C 0.47627 0.26305 0.10083 0.0
C567 C 0.46382 0.27508 0.11471 0.0
C568 C 0.4635 0.28102 0.15976 0.0
C569 C 0.47552 0.27497 0.19135 0.0
C570 C 0.48786 0.26293 0.17797 0.0
C571 C 0.48824 0.25695 0.13295 0.0
H572 H 0.47525 0.27959 0.22621 0.0
H573 H 0.47142 0.22122 0.78962 0.0
H574 H 0.30306 0.50668 0.42501 0.0
H575 H 0.2727 0.50023 0.43748 0.0
H576 H 0.28644 0.45212 0.50052 0.0
H577 H 0.31691 0.45853 0.48851 0.0
H578 H 0.25008 0.47461 0.41521 0.0
H579 H 0.26043 0.4483 0.5956 0.0
H580 H 0.28217 0.44889 0.65703 0.0
H581 H 0.29936 0.49845 0.61192 0.0
H582 H 0.27758 0.49823 0.55066 0.0
H583 H 0.16625 0.46066 0.50104 0.0
H584 H 0.19655 0.45336 0.48927 0.0
H585 H 0.21164 0.4992 0.56175 0.0
H586 H 0.18147 0.50652 0.57393 0.0
H587 H 0.23351 0.47233 0.57886 0.0
H588 H 0.20674 0.50064 0.44881 0.0
H589 H 0.18498 0.50319 0.38789 0.0
H590 H 0.2008 0.45461 0.33257 0.0
H591 H 0.22251 0.45168 0.3936 0.0
C592 C 0.29963 0.49459 0.44079 0.0
C593 C 0.31236 0.48322 0.45636 0.0
C594 C 0.28227 0.49088 0.44769 0.0
C595 C 0.27739 0.4758 0.47041 0.0
C596 C 0.29001 0.4639 0.48333 0.0
C597 C 0.30739 0.46759 0.4764 0.0
C598 C 0.25928 0.47357 0.48451 0.0
C599 C 0.24645 0.47381 0.45092 0.0
C600 C 0.25459 0.47272 0.53116 0.0
C601 C 0.26754 0.47313 0.56827 0.0
C602 C 0.26883 0.45933 0.59891 0.0
C603 C 0.28116 0.4596 0.63368 0.0
C604 C 0.29219 0.47367 0.63826 0.0
C605 C 0.29086 0.48753 0.60822 0.0
C606 C 0.27854 0.48733 0.57346 0.0
C607 C 0.17602 0.46897 0.51538 0.0
C608 C 0.17151 0.4843 0.53781 0.0
C609 C 0.1933 0.46479 0.50858 0.0
C610 C 0.20627 0.47588 0.52409 0.0
C611 C 0.20179 0.49048 0.5495 0.0
C612 C 0.18455 0.49469 0.55622 0.0
C613 C 0.22431 0.47355 0.50957 0.0
C614 C 0.23714 0.47251 0.54308 0.0
C615 C 0.22901 0.47402 0.46288 0.0
C616 C 0.21608 0.47584 0.42602 0.0
C617 C 0.20548 0.49045 0.42383 0.0
C618 C 0.19318 0.49197 0.38927 0.0
C619 C 0.19147 0.47904 0.35646 0.0
C620 C 0.20211 0.46459 0.35807 0.0
C621 C 0.21442 0.46299 0.39262 0.0
H622 H 0.18193 0.48024 0.32973 0.0
H623 H 0.30173 0.47384 0.66516 0.0
H624 H 0.01675 0.6215 0.84022 0.0
H625 H 0.03352 0.61239 0.77413 0.0
H626 H 0.08041 0.62617 0.84383 0.0
H627 H 0.06364 0.63562 0.9102 0.0
H628 H 0.08076 0.63006 0.74178 0.0
H629 H 0.07087 0.5891 0.86068 0.0
H630 H 0.05304 0.57468 0.91876 0.0
H631 H 0.01962 0.55548 0.81373 0.0
H632 H 0.03705 0.57013 0.75507 0.0
H633 H 0.12011 0.55178 0.62905 0.0
H634 H 0.11343 0.57404 0.68569 0.0
H635 H 0.06325 0.58068 0.6258 0.0
H636 H 0.06973 0.55878 0.56893 0.0
H637 H 0.07005 0.56736 0.72928 0.0
H638 H 0.08031 0.61129 0.61141 0.0
H639 H 0.09901 0.62629 0.55635 0.0
H640 H 0.13436 0.63884 0.66398 0.0
H641 H 0.11598 0.62366 0.71957 0.0
C642 C 0.03058 0.62306 0.84102 0.0
C643 C 0.03892 0.62887 0.88063 0.0
C644 C 0.04015 0.61797 0.80321 0.0
C645 C 0.05817 0.61839 0.80463 0.0
C646 C 0.0665 0.62579 0.84226 0.0
C647 C 0.05689 0.63105 0.88015 0.0
C648 C 0.06792 0.60816 0.77107 0.0
C649 C 0.07866 0.61632 0.73932 0.0
C650 C 0.06536 0.59021 0.76858 0.0
C651 C 0.05519 0.58082 0.80352 0.0
C652 C 0.05966 0.58189 0.84999 0.0
C653 C 0.04963 0.57368 0.88302 0.0
C654 C 0.03519 0.5642 0.86995 0.0
C655 C 0.0308 0.56285 0.8238 0.0
C656 C 0.04076 0.57109 0.79064 0.0
C657 C 0.10781 0.55828 0.62723 0.0
C658 C 0.09535 0.55332 0.59488 0.0
C659 C 0.10409 0.57103 0.65943 0.0
C660 C 0.08792 0.57896 0.65951 0.0
C661 C 0.07586 0.57475 0.6258 0.0
C662 C 0.07959 0.56216 0.59351 0.0
C663 C 0.08229 0.58933 0.69876 0.0
C664 C 0.07239 0.58106 0.73204 0.0
C665 C 0.08592 0.60703 0.70291 0.0
C666 C 0.09692 0.61612 0.66948 0.0
C667 C 0.09218 0.61705 0.62322 0.0
C668 C 0.10269 0.62564 0.59195 0.0
C669 C 0.1179 0.63346 0.60662 0.0
C670 C 0.1226 0.63275 0.65264 0.0
C671 C 0.11214 0.62416 0.68403 0.0
H672 H 0.12601 0.64011 0.58237 0.0
H673 H 0.02741 0.55788 0.89558 0.0
H674 H 0.95389 0.05535 0.07844 0.0
H675 H 0.93281 0.04653 0.13507 0.0
H676 H 0.93124 0.09809 0.18888 0.0
H677 H 0.95271 0.10704 0.13253 0.0
H678 H 0.93514 0.07559 0.2554 0.0
H679 H 0.89655 0.08146 0.13168 0.0
H680 H 0.88554 0.07826 0.05322 0.0
H681 H 0.884 0.02351 0.06953 0.0
H682 H 0.89526 0.02635 0.1479 0.0
H683 H 0.87177 0.04753 0.41245 0.0
H684 H 0.88318 0.06315 0.34681 0.0
H685 H 0.89755 0.01529 0.28326 0.0
H686 H 0.8862 -0.00051 0.34895 0.0
H687 H 0.88356 0.04022 0.2217 0.0
H688 H 0.92655 0.03543 0.34198 0.0
H689 H 0.93697 0.03934 0.42086 0.0
H690 H 0.92904 0.09374 0.41014 0.0
H691 H 0.91831 0.09011 0.33137 0.0
C692 C 0.94897 0.06491 0.10193 0.0
C693 C 0.95506 0.08191 0.10102 0.0
C694 C 0.93679 0.05985 0.13412 0.0
C695 C 0.93027 0.0717 0.16584 0.0
C696 C 0.93605 0.08877 0.16455 0.0
C697 C 0.9483 0.09386 0.13231 0.0
C698 C 0.91856 0.06575 0.20246 0.0
C699 C 0.92362 0.06823 0.24798 0.0
C700 C 0.90365 0.05595 0.19282 0.0
C701 C 0.89687 0.05413 0.14564 0.0
C702 C 0.894 0.06873 0.11845 0.0
C703 C 0.88768 0.06698 0.07399 0.0
C704 C 0.8841 0.05069 0.05638 0.0
C705 C 0.88679 0.03612 0.08323 0.0
C706 C 0.89311 0.0378 0.1277 0.0
C707 C 0.87713 0.04029 0.38424 0.0
C708 C 0.87828 0.02228 0.38605 0.0
C709 C 0.88362 0.04925 0.3468 0.0
C710 C 0.89132 0.04036 0.31054 0.0
C711 C 0.89162 0.02235 0.31102 0.0
C712 C 0.88522 0.01336 0.34861 0.0
C713 C 0.90042 0.04979 0.27409 0.0
C714 C 0.89488 0.04791 0.22883 0.0
C715 C 0.9148 0.06029 0.2839 0.0
C716 C 0.92144 0.06248 0.33103 0.0
C717 C 0.9269 0.04821 0.35658 0.0
C718 C 0.93288 0.05037 0.40124 0.0
C719 C 0.93362 0.06677 0.42055 0.0
C720 C 0.92843 0.08104 0.39517 0.0
C721 C 0.9224 0.07894 0.35053 0.0
H722 H 0.93825 0.06842 0.45513 0.0
H723 H 0.87921 0.04936 0.02195 0.0
H724 H 0.44661 0.87616 0.89506 0.0
H725 H 0.43035 0.89226 0.83795 0.0
H726 H 0.47729 0.91593 0.79083 0.0
H727 H 0.49363 0.90006 0.84827 0.0
H728 H 0.45207 0.93937 0.80752 0.0
H729 H 0.45712 0.88445 0.72943 0.0
H730 H 0.45328 0.85314 0.72191 0.0
H731 H 0.39865 0.85902 0.73715 0.0
H732 H 0.4022 0.89036 0.74535 0.0
H733 H 0.43857 0.97104 0.58937 0.0
H734 H 0.44677 0.9533 0.65418 0.0
H735 H 0.39333 0.94431 0.68554 0.0
H736 H 0.38486 0.96238 0.62052 0.0
H737 H 0.4163 0.9138 0.68463 0.0
H738 H 0.4101 0.96808 0.75645 0.0
H739 H 0.41289 -0.00057 0.76492 0.0
H740 H 0.46793 0.99493 0.76296 0.0
H741 H 0.46547 0.96349 0.75461 0.0
C742 C 0.45351 0.88466 0.87218 0.0
C743 C 0.4714 0.88691 0.87621 0.0
C744 C 0.44418 0.89381 0.83956 0.0
C745 C 0.45262 0.90526 0.81023 0.0
C746 C 0.47054 0.90718 0.81336 0.0
C747 C 0.47987 0.89805 0.84598 0.0
C748 C 0.4428 0.91585 0.77745 0.0
C749 C 0.44433 0.93376 0.78051 0.0
C750 C 0.43206 0.90854 0.74358 0.0
C751 C 0.42995 0.88972 0.73854 0.0
C752 C 0.4443 0.87905 0.73158 0.0
C753 C 0.44218 0.86131 0.7271 0.0
C754 C 0.42574 0.85409 0.7292 0.0
C755 C 0.41138 0.86462 0.73563 0.0
C756 C 0.41344 0.88237 0.74015 0.0
C757 C 0.4285 0.96528 0.60984 0.0
C758 C 0.41106 0.9681 0.5998 0.0
C759 C 0.43322 0.9552 0.64695 0.0
C760 C 0.42063 0.94763 0.67459 0.0
C761 C 0.40318 0.95011 0.66447 0.0
C762 C 0.3984 0.96045 0.6275 0.0
C763 C 0.42612 0.93718 0.71392 0.0
C764 C 0.42378 0.91936 0.71221 0.0
C765 C 0.43596 0.94454 0.74943 0.0
C766 C 0.43759 0.96343 0.75458 0.0
C767 C 0.4228 0.97378 0.75751 0.0
C768 C 0.42432 0.99157 0.76235 0.0
C769 C 0.44057 -0.00081 0.76416 0.0
C770 C 0.45534 0.98901 0.76148 0.0
C771 C 0.45389 0.97119 0.75688 0.0
H772 H 0.44171 0.01298 0.76778 0.0
H773 H 0.42412 0.84035 0.72573 0.0
H774 H 0.52176 0.40009 0.14755 0.0
H775 H 0.53642 0.41474 0.21028 0.0
H776 H 0.5677 0.44235 0.11307 0.0
H777 H 0.55222 0.42863 0.0504 0.0
H778 H 0.56639 0.41527 0.241 0.0
H779 H 0.58048 0.47993 0.15058 0.0
H780 H 0.56752 0.4987 0.0921 0.0
H781 H 0.51749 0.47857 0.12339 0.0
H782 H 0.53015 0.45985 0.18256 0.0
H783 H 0.62731 0.45878 0.3729 0.0
H784 H 0.61233 0.44688 0.30672 0.0
H785 H 0.57024 0.48205 0.32896 0.0
H786 H 0.58545 0.4944 0.39433 0.0
H787 H 0.57529 0.47835 0.24139 0.0
H788 H 0.56844 0.44045 0.36754 0.0
H789 H 0.57773 0.42237 0.43207 0.0
H790 H 0.60625 0.39014 0.34021 0.0
H791 H 0.59734 0.40819 0.27517 0.0
C792 C 0.53174 0.40932 0.13965 0.0
C793 C 0.53573 0.41337 0.09416 0.0
C794 C 0.54014 0.41768 0.17551 0.0
C795 C 0.55296 0.42995 0.16654 0.0
C796 C 0.55747 0.43341 0.12101 0.0
C797 C 0.54873 0.42542 0.08518 0.0
C798 C 0.56178 0.43892 0.20478 0.0
C799 C 0.56828 0.42906 0.24101 0.0
C800 C 0.56402 0.45698 0.20552 0.0
C801 C 0.55628 0.46835 0.17052 0.0
C802 C 0.56671 0.47956 0.14507 0.0
C803 C 0.55942 0.49017 0.11182 0.0
C804 C 0.5417 0.48977 0.10393 0.0
C805 C 0.53122 0.4788 0.12942 0.0
C806 C 0.53844 0.46817 0.16274 0.0
C807 C 0.61497 0.46414 0.36326 0.0
C808 C 0.60746 0.47741 0.38897 0.0
C809 C 0.60639 0.45727 0.32562 0.0
C810 C 0.58999 0.4633 0.31358 0.0
C811 C 0.58285 0.47714 0.33779 0.0
C812 C 0.59155 0.48419 0.37512 0.0
C813 C 0.57999 0.45466 0.27708 0.0
C814 C 0.57333 0.46456 0.24125 0.0
C815 C 0.57703 0.43673 0.27757 0.0
C816 C 0.58235 0.42577 0.31654 0.0
C817 C 0.5768 0.42958 0.36114 0.0
C818 C 0.58198 0.41933 0.3978 0.0
C819 C 0.59261 0.40514 0.39025 0.0
C820 C 0.59804 0.40115 0.34601 0.0
C821 C 0.59292 0.41138 0.30923 0.0
H822 H 0.5966 0.39722 0.41868 0.0
H823 H 0.53608 0.49798 0.07814 0.0
H824 H 0.11085 0.9479 0.38354 0.0
H825 H 0.09711 0.93043 0.32456 0.0
H826 H 0.04738 0.94095 0.38378 0.0
H827 H 0.06102 0.95798 0.44358 0.0
H828 H 0.04853 0.90883 0.35496 0.0
H829 H 0.06275 0.96408 0.29203 0.0
H830 H 0.08181 0.98826 0.27218 0.0
H831 H 0.1128 0.95472 0.18977 0.0
H832 H 0.09403 0.93028 0.20962 0.0
H833 H -0.00382 0.89964 0.15314 0.0
H834 H 0.01114 0.9099 0.22174 0.0
H835 H 0.05919 0.89085 0.16829 0.0
H836 H 0.04443 0.88041 0.10024 0.0
H837 H 0.05968 0.92573 0.19435 0.0
H838 H 0.04326 0.8708 0.25383 0.0
H839 H 0.0231 0.84744 0.27278 0.0
H840 H 0.99481 0.88144 0.36051 0.0
H841 H 0.01467 0.9051 0.34155 0.0
C842 C 0.09701 0.94636 0.38427 0.0
C843 C 0.08702 0.95449 0.41796 0.0
C844 C 0.08917 0.9364 0.35048 0.0
C845 C 0.07119 0.93466 0.34929 0.0
C846 C 0.06127 0.94215 0.38398 0.0
C847 C 0.0691 0.95194 0.41806 0.0
C848 C 0.06261 0.92586 0.31062 0.0
C849 C 0.05085 0.91261 0.31986 0.0
C850 C 0.06583 0.93065 0.26478 0.0
C851 C 0.0771 0.94532 0.25271 0.0
C852 C 0.07371 0.96184 0.26995 0.0
C853 C 0.08444 0.97559 0.25866 0.0
C854 C 0.09854 0.97302 0.22985 0.0
C855 C 0.1019 0.95669 0.21216 0.0
C856 C 0.09121 0.94288 0.22339 0.0
C857 C 0.00989 0.89746 0.15634 0.0
C858 C 0.01914 0.88932 0.12123 0.0
C859 C 0.01839 0.90326 0.19552 0.0
C860 C 0.03624 0.9011 0.19989 0.0
C861 C 0.04541 0.89262 0.16543 0.0
C862 C 0.03693 0.88666 0.12662 0.0
C863 C 0.04561 0.90877 0.23874 0.0
C864 C 0.05746 0.92186 0.22945 0.0
C865 C 0.04232 0.90396 0.28441 0.0
C866 C 0.03036 0.88977 0.29589 0.0
C867 C 0.03265 0.87334 0.27682 0.0
C868 C 0.0213 0.86004 0.28764 0.0
C869 C 0.00766 0.86296 0.31773 0.0
C870 C 0.00537 0.8792 0.33715 0.0
C871 C 0.01668 0.89256 0.32641 0.0
H872 H -0.00111 0.85264 0.32608 0.0
H873 H 0.10684 0.98368 0.22113 0.0
H874 H 0.52421 0.10894 0.8555 0.0
H875 H 0.54074 0.09644 0.79251 0.0
H876 H 0.54506 0.04886 0.86694 0.0
H877 H 0.52893 0.06125 0.93007 0.0
H878 H 0.57481 0.05658 0.82919 0.0
H879 H 0.51597 0.05238 0.7772 0.0
H880 H 0.48691 0.0624 0.75647 0.0
H881 H 0.50866 0.09819 0.66115 0.0
H882 H 0.53788 0.08818 0.68094 0.0
H883 H 0.58953 -0.00389 0.64879 0.0
H884 H 0.57705 0.01262 0.7121 0.0
H885 H 0.58455 0.05951 0.63654 0.0
H886 H 0.59728 0.04324 0.57369 0.0
H887 H 0.55044 0.05435 0.67271 0.0
H888 H 0.6096 0.05416 0.71938 0.0
H889 H 0.6376 0.04093 0.73727 0.0
H890 H 0.61414 0.01124 0.8439 0.0
H891 H 0.58592 0.02411 0.82616 0.0
C892 C 0.52882 0.09587 0.8586 0.0
C893 C 0.52523 0.08609 0.89783 0.0
C894 C 0.53815 0.08871 0.82244 0.0
C895 C 0.54397 0.07166 0.82487 0.0
C896 C 0.5407 0.06204 0.86434 0.0
C897 C 0.53142 0.06916 0.90039 0.0
C898 C 0.55339 0.06366 0.78636 0.0
C899 C 0.56941 0.05599 0.79505 0.0
C900 C 0.54652 0.06317 0.74164 0.0
C901 C 0.52908 0.06967 0.73089 0.0
C902 C 0.51455 0.06249 0.75211 0.0
C903 C 0.49806 0.06809 0.74033 0.0
C904 C 0.49594 0.08096 0.70759 0.0
C905 C 0.51032 0.08822 0.6865 0.0
C906 C 0.52685 0.08254 0.69783 0.0
C907 C 0.58863 0.00994 0.64589 0.0
C908 C 0.59436 0.01838 0.60637 0.0
C909 C 0.58155 0.01933 0.682 0.0
C910 C 0.57995 0.03724 0.6788 0.0
C911 C 0.58571 0.04569 0.63951 0.0
C912 C 0.59302 0.03637 0.60377 0.0
C913 C 0.57166 0.04711 0.71582 0.0
C914 C 0.55589 0.05513 0.70677 0.0
C915 C 0.57865 0.04771 0.76029 0.0
C916 C 0.59561 0.03998 0.77113 0.0
C917 C 0.61037 0.04469 0.74635 0.0
C918 C 0.62629 0.03728 0.75653 0.0
C919 C 0.62764 0.02522 0.79162 0.0
C920 C 0.61307 0.02057 0.81668 0.0
C921 C 0.59711 0.02793 0.80661 0.0
H922 H 0.63998 0.0195 0.79946 0.0
H923 H 0.48316 0.08529 0.69853 0.0
H924 H 0.36814 0.54986 0.36962 0.0
H925 H 0.37598 0.57248 0.31554 0.0
H926 H 0.42881 0.56932 0.36003 0.0
H927 H 0.42105 0.54723 0.41485 0.0
H928 H 0.42114 0.60152 0.33928 0.0
H929 H 0.41322 0.54524 0.26887 0.0
H930 H 0.39644 0.51946 0.24842 0.0
H931 H 0.35932 0.55094 0.17937 0.0
H932 H 0.3758 0.57692 0.19993 0.0
H933 H 0.47643 0.60661 0.14859 0.0
H934 H 0.459 0.60049 0.21619 0.0
H935 H 0.41338 0.61676 0.14441 0.0
H936 H 0.4307 0.62304 0.07683 0.0
H937 H 0.41127 0.5839 0.17856 0.0
H938 H 0.42499 0.63943 0.23335 0.0
H939 H 0.44347 0.66417 0.25199 0.0
H940 H 0.47138 0.63352 0.34864 0.0
H941 H 0.45323 0.6085 0.3301 0.0
C942 C 0.38136 0.55421 0.36843 0.0
C943 C 0.39403 0.54652 0.39594 0.0
C944 C 0.38581 0.56713 0.33754 0.0
C945 C 0.40303 0.57234 0.33319 0.0
C946 C 0.41544 0.5655 0.36276 0.0
C947 C 0.41099 0.55275 0.39391 0.0
C948 C 0.40869 0.58331 0.29477 0.0
C949 C 0.41896 0.59774 0.30409 0.0
C950 C 0.40547 0.57861 0.24885 0.0
C951 C 0.39559 0.56301 0.23644 0.0
C952 C 0.40141 0.54666 0.2496 0.0
C953 C 0.39197 0.53202 0.23796 0.0
C954 C 0.37679 0.53357 0.21275 0.0
C955 C 0.37105 0.54976 0.199 0.0
C956 C 0.38043 0.56445 0.21064 0.0
C957 C 0.46274 0.60919 0.14751 0.0
C958 C 0.4549 0.61512 0.10731 0.0
C959 C 0.45282 0.60582 0.18621 0.0
C960 C 0.43493 0.60827 0.18523 0.0
C961 C 0.42718 0.61488 0.14581 0.0
C962 C 0.43711 0.61841 0.10725 0.0
C963 C 0.42423 0.60173 0.22308 0.0
C964 C 0.41304 0.58808 0.21361 0.0
C965 C 0.42681 0.60703 0.26872 0.0
C966 C 0.43778 0.62205 0.28012 0.0
C967 C 0.43515 0.63792 0.25832 0.0
C968 C 0.44555 0.652 0.26892 0.0
C969 C 0.4586 0.65041 0.30143 0.0
C970 C 0.46126 0.63474 0.32347 0.0
C971 C 0.45089 0.6206 0.31298 0.0
H972 H 0.46665 0.66134 0.30959 0.0
H973 H 0.3695 0.52222 0.20375 0.0
H974 H 0.94387 0.42698 0.93394 0.0
H975 H 0.92942 0.44189 0.87156 0.0
H976 H 0.93885 0.39872 0.78262 0.0
H977 H 0.95355 0.38376 0.84462 0.0
H978 H 0.94743 0.42838 0.7423 0.0
H979 H 0.89903 0.40607 0.82476 0.0
H980 H 0.88095 0.40106 0.89264 0.0
H981 H 0.87312 0.45535 0.90738 0.0
H982 H 0.89136 0.4607 0.83991 0.0
H983 H 0.86954 0.45293 0.59654 0.0
H984 H 0.88112 0.44024 0.6662 0.0
H985 H 0.92182 0.47789 0.66761 0.0
H986 H 0.91041 0.49058 0.59738 0.0
H987 H 0.88783 0.45098 0.75213 0.0
H988 H 0.95911 0.4567 0.69826 0.0
H989 H 0.97641 0.45937 0.62795 0.0
H990 H 0.93682 0.4338 0.55149 0.0
H991 H 0.91943 0.43073 0.62144 0.0
C992 C 0.94274 0.42055 0.90126 0.0
C993 C 0.94984 0.40414 0.8943 0.0
C994 C 0.93445 0.4291 0.86567 0.0
C995 C 0.933 0.42136 0.8226 0.0
C996 C 0.93986 0.40491 0.81566 0.0
C997 C 0.94817 0.39634 0.85121 0.0
C998 C 0.92478 0.43062 0.78432 0.0
C999 C 0.9344 0.43335 0.74448 0.0
C1000 C 0.90776 0.43697 0.78714 0.0
C1001 C 0.8967 0.43379 0.82755 0.0
C1002 C 0.89356 0.41694 0.84269 0.0
C1003 C 0.88327 0.41404 0.88105 0.0
C1004 C 0.87593 0.42788 0.90439 0.0
C1005 C 0.87883 0.44464 0.88931 0.0
C1006 C 0.88913 0.44762 0.85099 0.0
C1007 C 0.88084 0.45866 0.61196 0.0
C1008 C 0.88921 0.47262 0.59121 0.0
C1009 C 0.88738 0.45143 0.65188 0.0
C1010 C 0.90244 0.45798 0.67163 0.0
C1011 C 0.91029 0.47252 0.65247 0.0
C1012 C 0.90374 0.47978 0.61248 0.0
C1013 C 0.91051 0.4488 0.71026 0.0
C1014 C 0.90089 0.44612 0.75015 0.0
C1015 C 0.92743 0.44216 0.70717 0.0
C1016 C 0.93788 0.4437 0.66499 0.0
C1017 C 0.95413 0.45161 0.66646 0.0
C1018 C 0.96395 0.45319 0.62667 0.0
C1019 C 0.95768 0.44683 0.58524 0.0
C1020 C 0.94162 0.43879 0.58356 0.0
C1021 C 0.93178 0.43714 0.62326 0.0
H1022 H 0.96529 0.44809 0.55448 0.0
H1023 H 0.86797 0.42561 0.9341 0.0
H1024 H 0.9319 0.35736 0.07073 0.0
H1025 H 0.91442 0.36405 0.13785 0.0
H1026 H 0.96008 0.37902 0.21142 0.0
H1027 H 0.97767 0.37252 0.14434 0.0
H1028 H 0.93395 0.36128 0.26583 0.0
H1029 H 0.94073 0.40858 0.15578 0.0
H1030 H 0.93794 0.42072 0.07835 0.0
H1031 H 0.88367 0.4104 0.07994 0.0
H1032 H 0.88622 0.39794 0.15716 0.0
H1033 H 0.92543 0.43071 0.41164 0.0
H1034 H 0.93057 0.40763 0.35766 0.0
H1035 H 0.87899 0.41319 0.30512 0.0
H1036 H 0.87386 0.4368 0.35855 0.0
H1037 H 0.90056 0.41461 0.23873 0.0
H1038 H 0.89242 0.3751 0.35752 0.0
H1039 H 0.89457 0.3624 0.43433 0.0
H1040 H 0.94914 0.3566 0.41765 0.0
H1041 H 0.94738 0.36951 0.34099 0.0
C1042 C 0.93827 0.36174 0.10149 0.0
C1043 C 0.95612 0.36471 0.10212 0.0
C1044 C 0.92826 0.36547 0.1398 0.0
C1045 C 0.93599 0.3721 0.17929 0.0
C1046 C 0.95393 0.37384 0.18118 0.0
C1047 C 0.96394 0.37026 0.14277 0.0
C1048 C 0.9254 0.37964 0.21599 0.0
C1049 C 0.92656 0.3729 0.26022 0.0
C1050 C 0.91525 0.39438 0.20792 0.0
C1051 C 0.91369 0.40215 0.16191 0.0
C1052 C 0.92823 0.40879 0.13945 0.0
C1053 C 0.92669 0.41574 0.09564 0.0
C1054 C 0.91064 0.41628 0.07418 0.0
C1055 C 0.8961 0.40994 0.09656 0.0
C1056 C 0.89758 0.40293 0.14034 0.0
C1057 C 0.91502 0.42686 0.38928 0.0
C1058 C 0.89931 0.43579 0.38899 0.0
C1059 C 0.91793 0.41347 0.35866 0.0
C1060 C 0.90512 0.40853 0.32751 0.0
C1061 C 0.88905 0.41676 0.3289 0.0
C1062 C 0.88615 0.43027 0.35944 0.0
C1063 C 0.90957 0.3967 0.28961 0.0
C1064 C 0.90735 0.40266 0.24477 0.0
C1065 C 0.91855 0.38114 0.29724 0.0
C1066 C 0.91976 0.37335 0.34344 0.0
C1067 C 0.9049 0.37123 0.37031 0.0
C1068 C 0.90605 0.36397 0.41383 0.0
C1069 C 0.92198 0.3587 0.43087 0.0
C1070 C 0.9368 0.36067 0.40438 0.0
C1071 C 0.93573 0.36793 0.36083 0.0
H1072 H 0.92284 0.35309 0.46458 0.0
H1073 H 0.90948 0.42166 0.04025 0.0
H1074 H 0.03806 0.93617 0.93357 0.0
H1075 H 0.05819 0.94612 0.8757 0.0
H1076 H 0.0598 0.89542 0.81662 0.0
H1077 H 0.0395 0.8852 0.87469 0.0
H1078 H 0.09273 0.91277 0.82136 0.0
H1079 H 0.03537 0.92169 0.76679 0.0
H1080 H 0.00521 0.9314 0.7708 0.0
H1081 H 0.02209 0.98339 0.79014 0.0
H1082 H 0.05237 0.97394 0.78696 0.0
H1083 H 0.12336 0.94156 0.60281 0.0
H1084 H 0.10968 0.92779 0.66828 0.0
H1085 H 0.0981 0.97754 0.72554 0.0
H1086 H 0.11131 0.99139 0.65945 0.0
H1087 H 0.07024 0.95865 0.72022 0.0
H1088 H 0.12808 0.94941 0.77398 0.0
H1089 H 0.15807 0.93928 0.76862 0.0
H1090 H 0.14036 0.88759 0.74885 0.0
H1091 H 0.11025 0.89744 0.75348 0.0
C1092 C 0.04277 0.92702 0.90863 0.0
C1093 C 0.03699 0.90991 0.90844 0.0
C1094 C 0.0543 0.93276 0.87562 0.0
C1095 C 0.06029 0.92153 0.84176 0.0
C1096 C 0.05526 0.90425 0.84257 0.0
C1097 C 0.04361 0.89848 0.8756 0.0
C1098 C 0.07081 0.92833 0.80393 0.0
C1099 C 0.08782 0.92265 0.79875 0.0
C1100 C 0.06436 0.94134 0.77503 0.0
C1101 C 0.04615 0.94707 0.77709 0.0
C1102 C 0.03266 0.93517 0.77235 0.0
C1103 C 0.01554 0.94063 0.77438 0.0
C1104 C 0.01174 0.95799 0.78083 0.0
C1105 C 0.02505 0.96994 0.7852 0.0
C1106 C 0.0422 0.96454 0.78325 0.0
C1107 C 0.1182 0.94956 0.62978 0.0
C1108 C 0.11823 0.96756 0.62584 0.0
C1109 C 0.11045 0.94166 0.66731 0.0
C1110 C 0.10288 0.95163 0.70182 0.0
C1111 C 0.1038 0.96961 0.69915 0.0
C1112 C 0.11137 0.97751 0.66145 0.0
C1113 C 0.09244 0.94349 0.73813 0.0
C1114 C 0.07529 0.94882 0.7428 0.0
C1115 C 0.0988 0.93014 0.76626 0.0
C1116 C 0.1169 0.92419 0.76364 0.0
C1117 C 0.13058 0.9359 0.76812 0.0
C1118 C 0.1476 0.9302 0.76528 0.0
C1119 C 0.15112 0.91281 0.75827 0.0
C1120 C 0.13762 0.90106 0.75422 0.0
C1121 C 0.12057 0.90669 0.757 0.0
H1122 H 0.1643 0.90843 0.75609 0.0
H1123 H -0.00153 0.9622 0.78232 0.0
H1124 H 0.55216 0.02044 0.40005 0.0
H1125 H 0.54242 0.03897 0.33844 0.0
H1126 H 0.59505 0.04997 0.30212 0.0
H1127 H 0.60506 0.03128 0.36415 0.0
H1128 H 0.57338 0.07934 0.30517 0.0
H1129 H 0.57484 0.02419 0.23594 0.0
H1130 H 0.56968 0.99307 0.22895 0.0
H1131 H 0.51515 0.00165 0.23265 0.0
H1132 H 0.51997 0.03282 0.24044 0.0
H1133 H 0.54282 0.11709 0.09509 0.0
H1134 H 0.55852 0.10119 0.15369 0.0
H1135 H 0.51072 0.08033 0.20395 0.0
H1136 H 0.49496 0.09594 0.14502 0.0
H1137 H 0.53414 0.05561 0.18733 0.0
H1138 H 0.53333 0.11086 0.2635 0.0
H1139 H 0.53897 0.14192 0.26998 0.0
H1140 H 0.59302 0.133 0.25115 0.0
H1141 H 0.58767 0.10188 0.24396 0.0
C1142 C 0.56173 0.02678 0.37912 0.0
C1143 C 0.5794 0.02433 0.38691 0.0
C1144 C 0.55612 0.03733 0.34382 0.0
C1145 C 0.56803 0.04566 0.31557 0.0
C1146 C 0.58569 0.04356 0.32359 0.0
C1147 C 0.59136 0.03286 0.35886 0.0
C1148 C 0.56173 0.05646 0.27773 0.0
C1149 C 0.56506 0.07415 0.2788 0.0
C1150 C 0.55077 0.04963 0.24376 0.0
C1151 C 0.54778 0.03086 0.23913 0.0
C1152 C 0.56175 0.01944 0.23567 0.0
C1153 C 0.55889 0.00179 0.23149 0.0
C1154 C 0.5421 -0.00461 0.23044 0.0
C1155 C 0.52814 0.00663 0.23349 0.0
C1156 C 0.53094 0.0243 0.23775 0.0
C1157 C 0.53563 0.10932 0.11906 0.0
C1158 C 0.51766 0.10765 0.11528 0.0
C1159 C 0.54463 0.10028 0.15258 0.0
C1160 C 0.53578 0.08958 0.18307 0.0
C1161 C 0.51778 0.08847 0.18053 0.0
C1162 C 0.50879 0.09744 0.14698 0.0
C1163 C 0.54524 0.07861 0.21572 0.0
C1164 C 0.54258 0.06082 0.21341 0.0
C1165 C 0.55687 0.08537 0.24826 0.0
C1166 C 0.56008 0.10407 0.25268 0.0
C1167 C 0.5464 0.11553 0.26034 0.0
C1168 C 0.54955 0.13315 0.26423 0.0
C1169 C 0.56634 0.13943 0.26084 0.0
C1170 C 0.58002 0.12811 0.25369 0.0
C1171 C 0.57694 0.11049 0.24974 0.0
H1172 H 0.56875 0.15307 0.26386 0.0
H1173 H 0.53991 0.98173 0.22719 0.0
H1174 H 0.39081 0.49239 0.62157 0.0
H1175 H 0.40287 0.50509 0.69138 0.0
H1176 H 0.37982 0.55375 0.65721 0.0
H1177 H 0.36748 0.5412 0.58827 0.0
H1178 H 0.41683 0.55376 0.67352 0.0
H1179 H 0.36326 0.53521 0.74008 0.0
H1180 H 0.3408 0.51404 0.75897 0.0
H1181 H 0.37767 0.48408 0.83347 0.0
H1182 H 0.40044 0.50496 0.81441 0.0
H1183 H 0.44081 0.60191 0.86633 0.0
H1184 H 0.42359 0.5885 0.80629 0.0
H1185 H 0.43543 0.53844 0.86096 0.0
H1186 H 0.4521 0.55179 0.92206 0.0
H1187 H 0.40349 0.53882 0.83435 0.0
H1188 H 0.45717 0.55549 0.76731 0.0
H1189 H 0.48079 0.5752 0.74698 0.0
H1190 H 0.44552 0.6067 0.67151 0.0
H1191 H 0.42164 0.5873 0.69192 0.0
C1192 C 0.3881 0.50571 0.62937 0.0
C1193 C 0.37829 0.51582 0.59936 0.0
C1194 C 0.39496 0.51292 0.66917 0.0
C1195 C 0.39222 0.53034 0.67912 0.0
C1196 C 0.38205 0.5403 0.64993 0.0
C1197 C 0.37499 0.53307 0.61064 0.0
C1198 C 0.40096 0.53856 0.71812 0.0
C1199 C 0.41378 0.5507 0.70876 0.0
C1200 C 0.39727 0.53409 0.76379 0.0
C1201 C 0.38359 0.52155 0.77538 0.0
C1202 C 0.36662 0.52402 0.76009 0.0
C1203 C 0.35382 0.5121 0.77092 0.0
C1204 C 0.35781 0.4977 0.79729 0.0
C1205 C 0.3746 0.49523 0.81299 0.0
C1206 C 0.38746 0.50711 0.80221 0.0
C1207 C 0.43966 0.58806 0.86569 0.0
C1208 C 0.44792 0.5779 0.89869 0.0
C1209 C 0.42986 0.5804 0.83129 0.0
C1210 C 0.4285 0.56244 0.8286 0.0
C1211 C 0.43632 0.55231 0.8623 0.0
C1212 C 0.44589 0.55997 0.89712 0.0
C1213 C 0.41939 0.55417 0.78989 0.0
C1214 C 0.40655 0.54196 0.79919 0.0
C1215 C 0.42325 0.55837 0.74397 0.0
C1216 C 0.43759 0.57004 0.73154 0.0
C1217 C 0.45443 0.56669 0.74666 0.0
C1218 C 0.46787 0.5778 0.73508 0.0
C1219 C 0.46465 0.59222 0.70807 0.0
C1220 C 0.44799 0.59554 0.69249 0.0
C1221 C 0.4345 0.58449 0.70402 0.0
H1222 H 0.47507 0.6008 0.69914 0.0
H1223 H 0.34788 0.48848 0.80565 0.0
H1224 H 0.93624 0.016 0.58004 0.0
H1225 H 0.95113 0.03129 0.64131 0.0
H1226 H 0.90278 0.05186 0.68841 0.0
H1227 H 0.88764 0.03618 0.62786 0.0
H1228 H 0.93068 0.07656 0.67526 0.0
H1229 H 0.9177 0.02373 0.75143 0.0
H1230 H 0.91677 0.99268 0.76757 0.0
H1231 H 0.9719 0.9903 0.76199 0.0
H1232 H 0.97317 0.02135 0.74548 0.0
H1233 H 0.95349 0.10919 0.89235 0.0
H1234 H 0.94089 0.09529 0.82577 0.0
H1235 H 0.98864 0.06859 0.80093 0.0
H1236 H 0.00128 0.08223 0.86847 0.0
H1237 H 0.96204 0.04707 0.8001 0.0
H1238 H 0.97477 0.10097 0.72989 0.0
H1239 H 0.97502 0.1325 0.72267 0.0
H1240 H 0.9198 0.13314 0.71979 0.0
H1241 H 0.9192 0.10162 0.72766 0.0
C1242 C 0.92875 0.02379 0.60338 0.0
C1243 C 0.91076 0.02491 0.59911 0.0
C1244 C 0.93727 0.03242 0.63847 0.0
C1245 C 0.928 0.04259 0.6693 0.0
C1246 C 0.91009 0.04399 0.66487 0.0
C1247 C 0.90149 0.03505 0.63034 0.0
C1248 C 0.93715 0.05219 0.70531 0.0
C1249 C 0.93741 0.07017 0.70289 0.0
C1250 C 0.94627 0.04373 0.7404 0.0
C1251 C 0.94552 0.02484 0.74672 0.0
C1252 C 0.92962 0.01655 0.75291 0.0
C1253 C 0.92903 -0.00102 0.76255 0.0
C1254 C 0.94427 0.98957 0.76612 0.0
C1255 C 0.96012 -0.00236 0.75948 0.0
C1256 C 0.96077 0.01522 0.74997 0.0
C1257 C 0.96141 0.10053 0.87244 0.0
C1258 C 0.97835 0.09673 0.88576 0.0
C1259 C 0.95421 0.09267 0.83418 0.0
C1260 C 0.96387 0.08102 0.80816 0.0
C1261 C 0.98098 0.07757 0.82057 0.0
C1262 C 0.98819 0.0854 0.85903 0.0
C1263 C 0.95564 0.07151 0.77022 0.0
C1264 C 0.95552 0.05351 0.7722 0.0
C1265 C 0.94663 0.07997 0.73478 0.0
C1266 C 0.94694 0.09893 0.72971 0.0
C1267 C 0.96267 0.10784 0.72805 0.0
C1268 C 0.96287 0.12571 0.72379 0.0
C1269 C 0.94743 0.13482 0.72087 0.0
C1270 C 0.93175 0.12607 0.72208 0.0
C1271 C 0.93147 0.1082 0.72638 0.0
H1272 H 0.94762 0.14866 0.71758 0.0
H1273 H 0.94379 0.97599 0.77386 0.0
H1274 H 0.40564 -0.00401 0.33998 0.0
H1275 H 0.41724 0.97853 0.27763 0.0
H1276 H 0.39849 0.93264 0.34324 0.0
H1277 H 0.38676 0.94997 0.40553 0.0
H1278 H 0.43278 0.93047 0.31789 0.0
H1279 H 0.37907 0.9449 0.25051 0.0
H1280 H 0.35535 0.96384 0.22643 0.0
H1281 H 0.38976 0.99131 0.13808 0.0
H1282 H 0.41376 0.97269 0.16215 0.0
H1283 H 0.4608 0.8808 0.12452 0.0
H1284 H 0.44312 0.89278 0.18607 0.0
H1285 H 0.45269 0.94388 0.13529 0.0
H1286 H 0.46997 0.93211 0.07361 0.0
H1287 H 0.4195 0.93969 0.15407 0.0
H1288 H 0.4738 0.92884 0.23366 0.0
H1289 H 0.49785 0.91096 0.26159 0.0
H1290 H 0.46205 0.87678 0.32616 0.0
H1291 H 0.43782 0.89462 0.29938 0.0
C1292 C 0.40383 0.9822 0.34088 0.0
C1293 C 0.39534 0.97435 0.37765 0.0
C1294 C 0.41041 0.97226 0.30523 0.0
C1295 C 0.40863 0.95432 0.30588 0.0
C1296 C 0.39995 0.94647 0.3422 0.0
C1297 C 0.39324 0.9564 0.37763 0.0
C1298 C 0.41664 0.94378 0.26972 0.0
C1299 C 0.42966 0.93221 0.28208 0.0
C1300 C 0.41265 0.94625 0.22313 0.0
C1301 C 0.39825 0.95747 0.20843 0.0
C1302 C 0.38162 0.95507 0.22623 0.0
C1303 C 0.36811 0.96573 0.21253 0.0
C1304 C 0.37105 0.97879 0.18081 0.0
C1305 C 0.3875 0.98119 0.16267 0.0
C1306 C 0.40106 0.97057 0.17629 0.0
C1307 C 0.45911 0.89458 0.12648 0.0
C1308 C 0.46672 0.90548 0.09399 0.0
C1309 C 0.44907 0.9014 0.16178 0.0
C1310 C 0.44665 0.91922 0.16531 0.0
C1311 C 0.4543 0.93008 0.13303 0.0
C1312 C 0.46421 0.9233 0.09777 0.0
C1313 C 0.43604 0.92679 0.20214 0.0
C1314 C 0.42246 0.93776 0.1899 0.0
C1315 C 0.43952 0.9238 0.24884 0.0
C1316 C 0.45403 0.91291 0.26409 0.0
C1317 C 0.47108 0.91743 0.25351 0.0
C1318 C 0.48473 0.90734 0.26921 0.0
C1319 C 0.48147 0.89266 0.29518 0.0
C1320 C 0.46456 0.88811 0.30589 0.0
C1321 C 0.45087 0.89825 0.29067 0.0
H1322 H 0.49206 0.88486 0.30721 0.0
H1323 H 0.36058 0.98704 0.17024 0.0
H1324 H 0.51414 0.38313 0.83592 0.0
H1325 H 0.53302 0.38895 0.77095 0.0
H1326 H 0.57744 0.37816 0.85435 0.0
H1327 H 0.55865 0.3721 0.91941 0.0
H1328 H 0.57803 0.4103 0.81282 0.0
H1329 H 0.57042 0.35221 0.76967 0.0
H1330 H 0.55455 0.32545 0.754 0.0
H1331 H 0.52704 0.35029 0.64547 0.0
H1332 H 0.54255 0.3773 0.66091 0.0
H1333 H 0.62378 0.44136 0.62295 0.0
H1334 H 0.61624 0.41949 0.67941 0.0
H1335 H 0.56441 0.41802 0.62688 0.0
H1336 H 0.57186 0.43949 0.56996 0.0
H1337 H 0.57415 0.3867 0.6557 0.0
H1338 H 0.57544 0.44547 0.71305 0.0
H1339 H 0.58939 0.47323 0.72977 0.0
H1340 H 0.62701 0.44765 0.81278 0.0
H1341 H 0.61337 0.4197 0.79603 0.0
C1342 C 0.52791 0.38171 0.8402 0.0
C1343 C 0.53493 0.3773 0.88278 0.0
C1344 C 0.53867 0.38491 0.80301 0.0
C1345 C 0.5566 0.38387 0.80791 0.0
C1346 C 0.56363 0.37892 0.84994 0.0
C1347 C 0.55287 0.37549 0.887 0.0
C1348 C 0.56785 0.39002 0.7707 0.0
C1349 C 0.57762 0.40484 0.77872 0.0
C1350 C 0.567 0.38304 0.7262 0.0
C1351 C 0.55761 0.36682 0.71664 0.0
C1352 C 0.56089 0.35202 0.74269 0.0
C1353 C 0.55197 0.33679 0.7338 0.0
C1354 C 0.53978 0.33618 0.6988 0.0
C1355 C 0.5365 0.35079 0.67257 0.0
C1356 C 0.54537 0.36605 0.68133 0.0
C1357 C 0.61089 0.43609 0.62273 0.0
C1358 C 0.59831 0.44244 0.59259 0.0
C1359 C 0.60661 0.4236 0.65503 0.0
C1360 C 0.58968 0.4174 0.65785 0.0
C1361 C 0.57753 0.42267 0.62539 0.0
C1362 C 0.5818 0.43507 0.59305 0.0
C1363 C 0.58385 0.40726 0.69767 0.0
C1364 C 0.57505 0.39178 0.69013 0.0
C1365 C 0.58537 0.41373 0.74269 0.0
C1366 C 0.59355 0.4305 0.7528 0.0
C1367 C 0.58677 0.44577 0.73458 0.0
C1368 C 0.5946 0.46153 0.7441 0.0
C1369 C 0.60911 0.46219 0.77219 0.0
C1370 C 0.61579 0.4471 0.79092 0.0
C1371 C 0.60803 0.4313 0.78143 0.0
H1372 H 0.61516 0.47441 0.77954 0.0
H1373 H 0.53289 0.32438 0.69197 0.0
H1374 H 0.13256 0.53489 0.38012 0.0
H1375 H 0.12273 0.5495 0.31103 0.0
H1376 H 0.07427 0.5226 0.3192 0.0
H1377 H 0.0843 0.50749 0.38725 0.0
H1378 H 0.08288 0.52539 0.23461 0.0
H1379 H 0.07957 0.56413 0.36107 0.0
H1380 H 0.09032 0.58033 0.42762 0.0
H1381 H 0.12676 0.60644 0.34213 0.0
H1382 H 0.11638 0.59022 0.27514 0.0
H1383 H 0.0386 0.6075 0.14508 0.0
H1384 H 0.05392 0.59281 0.20636 0.0
H1385 H 0.08289 0.56394 0.1067 0.0
H1386 H 0.06706 0.57808 0.04521 0.0
H1387 H 0.08477 0.58908 0.23627 0.0
H1388 H 0.0892 0.5236 0.14311 0.0
H1389 H 0.07394 0.50747 0.08288 0.0
H1390 H 0.02744 0.53505 0.11275 0.0
H1391 H 0.04238 0.55117 0.17348 0.0
C1392 C 0.11989 0.53192 0.36671 0.0
C1393 C 0.10911 0.52016 0.38915 0.0
C1394 C 0.11427 0.54034 0.32743 0.0
C1395 C 0.09762 0.53744 0.31055 0.0
C1396 C 0.08715 0.52509 0.33169 0.0
C1397 C 0.09288 0.51645 0.37059 0.0
C1398 C 0.09079 0.54782 0.27224 0.0
C1399 C 0.08339 0.53932 0.23487 0.0
C1400 C 0.09108 0.56601 0.27303 0.0
C1401 C 0.09733 0.57583 0.3132 0.0
C1402 C 0.08996 0.57324 0.35653 0.0
C1403 C 0.09598 0.58243 0.39432 0.0
C1404 C 0.10925 0.59437 0.38913 0.0
C1405 C 0.1165 0.59717 0.34611 0.0
C1406 C 0.11055 0.58798 0.30822 0.0
C1407 C 0.0484 0.5982 0.13619 0.0
C1408 C 0.05147 0.59376 0.09038 0.0
C1409 C 0.05717 0.58982 0.17128 0.0
C1410 C 0.0693 0.577 0.16117 0.0
C1411 C 0.07327 0.57346 0.11533 0.0
C1412 C 0.06428 0.58161 0.08024 0.0
C1413 C 0.0769 0.56665 0.19856 0.0
C1414 C 0.08446 0.57516 0.23576 0.0
C1415 C 0.07611 0.54848 0.19853 0.0
C1416 C 0.06697 0.53871 0.16243 0.0
C1417 C 0.07571 0.52617 0.13688 0.0
C1418 C 0.06712 0.51704 0.10265 0.0
C1419 C 0.04975 0.52028 0.09388 0.0
C1420 C 0.04091 0.5326 0.11945 0.0
C1421 C 0.04944 0.54175 0.15374 0.0
H1422 H 0.04313 0.51321 0.06734 0.0
H1423 H 0.11388 0.60148 0.41842 0.0
H1424 H 0.88764 0.51798 0.32369 0.0
H1425 H 0.89615 0.53131 0.25172 0.0
H1426 H 0.94811 0.53651 0.30158 0.0
H1427 H 0.93984 0.52282 0.37324 0.0
H1428 H 0.9087 0.56106 0.22626 0.0
H1429 H 0.9764 0.5289 0.21789 0.0
H1430 H 0.9903 0.50194 0.24214 0.0
H1431 H 0.94131 0.47647 0.24243 0.0
H1432 H 0.92715 0.50319 0.21755 0.0
H1433 H 0.96796 0.60606 0.09231 0.0
H1434 H 0.94982 0.59113 0.1468 0.0
H1435 H 0.95136 0.54556 0.06293 0.0
H1436 H 0.97014 0.56032 0.00862 0.0
H1437 H 0.95944 0.53747 0.14477 0.0
H1438 H 0.91314 0.5684 0.0816 0.0
H1439 H 0.8972 0.59333 0.05169 0.0
H1440 H 0.89947 0.61754 0.18333 0.0
H1441 H 0.91564 0.59287 0.21393 0.0
C1442 C 0.90086 0.52211 0.31958 0.0
C1443 C 0.91311 0.51919 0.35411 0.0
C1444 C 0.90568 0.52972 0.27836 0.0
C1445 C 0.92283 0.53457 0.27092 0.0
C1446 C 0.93489 0.53249 0.30619 0.0
C1447 C 0.93011 0.52476 0.34728 0.0
C1448 C 0.92827 0.54148 0.22602 0.0
C1449 C 0.91975 0.55589 0.20827 0.0
C1450 C 0.94224 0.5343 0.20162 0.0
C1451 C 0.9507 0.51811 0.21622 0.0
C1452 C 0.9686 0.51753 0.22293 0.0
C1453 C 0.97653 0.50229 0.23682 0.0
C1454 C 0.96669 0.48752 0.24395 0.0
C1455 C 0.94891 0.48794 0.23706 0.0
C1456 C 0.94093 0.50313 0.22312 0.0
C1457 C 0.96418 0.59297 0.0848 0.0
C1458 C 0.97067 0.58432 0.04628 0.0
C1459 C 0.95366 0.58446 0.11597 0.0
C1460 C 0.94912 0.56722 0.10896 0.0
C1461 C 0.95473 0.55886 0.06911 0.0
C1462 C 0.96541 0.56733 0.03802 0.0
C1463 C 0.94034 0.55754 0.14585 0.0
C1464 C 0.94823 0.54256 0.16223 0.0
C1465 C 0.92548 0.56391 0.16812 0.0
C1466 C 0.91569 0.57879 0.15 0.0
C1467 C 0.91034 0.57909 0.10412 0.0
C1468 C 0.90125 0.59317 0.08704 0.0
C1469 C 0.89734 0.60702 0.11557 0.0
C1470 C 0.9025 0.6068 0.16127 0.0
C1471 C 0.9116 0.59275 0.17852 0.0
H1472 H 0.8903 0.61791 0.10228 0.0
H1473 H 0.97285 0.47574 0.25473 0.0
H1474 H 0.87213 0.94879 0.60241 0.0
H1475 H 0.8811 0.93465 0.67275 0.0
H1476 H 0.9319 0.92727 0.61697 0.0
H1477 H 0.92313 0.94157 0.54655 0.0
H1478 H 0.89671 0.90511 0.70605 0.0
H1479 H 0.95998 0.9441 0.69696 0.0
H1480 H 0.97142 0.96967 0.65761 0.0
H1481 H 0.92037 0.99027 0.6463 0.0
H1482 H 0.9087 0.96509 0.68652 0.0
H1483 H 0.95556 0.88233 0.88108 0.0
H1484 H 0.93947 0.88853 0.81182 0.0
H1485 H 0.93036 0.94022 0.85911 0.0
H1486 H 0.94692 0.93425 0.92831 0.0
H1487 H 0.94247 0.94091 0.77627 0.0
H1488 H 0.8974 0.91012 0.85005 0.0
H1489 H 0.88397 0.88615 0.89183 0.0
H1490 H 0.89499 0.85209 0.78021 0.0
H1491 H 0.90871 0.87581 0.73799 0.0
C1492 C 0.88506 0.94365 0.60442 0.0
C1493 C 0.89705 0.9467 0.56933 0.0
C1494 C 0.89013 0.93551 0.64466 0.0
C1495 C 0.90726 0.93034 0.65038 0.0
C1496 C 0.91867 0.93144 0.61334 0.0
C1497 C 0.91361 0.93957 0.57303 0.0
C1498 C 0.91378 0.92657 0.69676 0.0
C1499 C 0.9068 0.91282 0.72143 0.0
C1500 C 0.92647 0.93709 0.71728 0.0
C1501 C 0.93344 0.95256 0.69412 0.0
C1502 C 0.95121 0.95411 0.68616 0.0
C1503 C 0.95774 0.96855 0.6637 0.0
C1504 C 0.94662 0.98153 0.64911 0.0
C1505 C 0.92896 0.98016 0.6572 0.0
C1506 C 0.92239 0.96582 0.67992 0.0
C1507 C 0.94987 0.89494 0.8773 0.0
C1508 C 0.95265 0.90784 0.91019 0.0
C1509 C 0.94058 0.89844 0.83763 0.0
C1510 C 0.93365 0.91483 0.83025 0.0
C1511 C 0.93564 0.92749 0.86405 0.0
C1512 C 0.94504 0.92403 0.90371 0.0
C1513 C 0.92572 0.91913 0.7856 0.0
C1514 C 0.93243 0.93309 0.76112 0.0
C1515 C 0.91251 0.90902 0.7658 0.0
C1516 C 0.90421 0.89473 0.79101 0.0
C1517 C 0.89708 0.89749 0.83454 0.0
C1518 C 0.88939 0.88395 0.85828 0.0
C1519 C 0.88866 0.8676 0.83873 0.0
C1520 C 0.89558 0.86477 0.79533 0.0
C1521 C 0.90329 0.87826 0.77145 0.0
H1522 H 0.8827 0.85713 0.85717 0.0
H1523 H 0.95172 0.9927 0.63186 0.0
H1524 H 0.54527 0.86929 0.08895 0.0
H1525 H 0.55932 0.87496 0.16211 0.0
H1526 H 0.56371 0.92853 0.12721 0.0
H1527 H 0.54978 0.92304 0.05397 0.0
H1528 H 0.58967 0.89194 0.19848 0.0
H1529 H 0.54322 0.94957 0.21793 0.0
H1530 H 0.51558 0.95959 0.18624 0.0
H1531 H 0.50098 0.90755 0.1573 0.0
H1532 H 0.52827 0.8972 0.1902 0.0
H1533 H 0.61075 0.94912 0.37817 0.0
H1534 H 0.60461 0.93254 0.30967 0.0
H1535 H 0.55623 0.9163 0.36753 0.0
H1536 H 0.56206 0.93333 0.43593 0.0
H1537 H 0.55089 0.92971 0.28827 0.0
H1538 H 0.58956 0.88738 0.3437 0.0
H1539 H 0.61637 0.87585 0.37651 0.0
H1540 H 0.64474 0.89391 0.26029 0.0
H1541 H 0.61814 0.90577 0.22705 0.0
C1542 C 0.54976 0.88218 0.09612 0.0
C1543 C 0.54609 0.89579 0.06604 0.0
C1544 C 0.55783 0.88537 0.13791 0.0
C1545 C 0.56218 0.9022 0.15025 0.0
C1546 C 0.56025 0.91547 0.11831 0.0
C1547 C 0.55232 0.91229 0.07639 0.0
C1548 C 0.56607 0.90635 0.19841 0.0
C1549 C 0.58126 0.9002 0.21829 0.0
C1550 C 0.55469 0.91661 0.22449 0.0
C1551 C 0.53794 0.92264 0.20597 0.0
C1552 C 0.53407 0.94027 0.20508 0.0
C1553 C 0.51845 0.946 0.18695 0.0
C1554 C 0.50657 0.93422 0.16953 0.0
C1555 C 0.51025 0.91667 0.17047 0.0
C1556 C 0.52578 0.91086 0.18899 0.0
C1557 C 0.59899 0.94167 0.37698 0.0
C1558 C 0.5868 0.94274 0.41239 0.0
C1559 C 0.59553 0.9321 0.3377 0.0
C1560 C 0.57993 0.92317 0.33331 0.0
C1561 C 0.56831 0.92317 0.37004 0.0
C1562 C 0.5717 0.93286 0.40924 0.0
C1563 C 0.57488 0.91577 0.28849 0.0
C1564 C 0.55934 0.92132 0.26897 0.0
C1565 C 0.5858 0.90471 0.26321 0.0
C1566 C 0.60184 0.89757 0.28302 0.0
C1567 C 0.60153 0.88901 0.32528 0.0
C1568 C 0.61669 0.88239 0.34393 0.0
C1569 C 0.63226 0.88417 0.32054 0.0
C1570 C 0.63268 0.89254 0.27838 0.0
C1571 C 0.61755 0.89919 0.25959 0.0
H1572 H 0.64398 0.87904 0.33504 0.0
H1573 H 0.4945 0.93868 0.15548 0.0
H1574 H 0.57404 0.54068 0.60331 0.0
H1575 H 0.56754 0.55448 0.67659 0.0
H1576 H 0.60817 0.52564 0.74093 0.0
H1577 H 0.61512 0.51217 0.66754 0.0
H1578 H 0.5717 0.52336 0.77902 0.0
H1579 H 0.61673 0.56277 0.74086 0.0
H1580 H 0.63252 0.58272 0.69078 0.0
H1581 H 0.58802 0.61522 0.68237 0.0
H1582 H 0.57187 0.59532 0.73185 0.0
H1583 H 0.5406 0.56224 0.9819 0.0
H1584 H 0.56203 0.55169 0.92719 0.0
H1585 H 0.54388 0.58828 0.82758 0.0
H1586 H 0.52333 0.5994 0.88237 0.0
H1587 H 0.576 0.58532 0.81665 0.0
H1588 H 0.52927 0.54427 0.83584 0.0
H1589 H 0.51104 0.52423 0.8796 0.0
H1590 H 0.55566 0.49493 0.91693 0.0
H1591 H 0.57417 0.51492 0.87373 0.0
C1592 C 0.58179 0.53754 0.63288 0.0
C1593 C 0.59509 0.5254 0.62975 0.0
C1594 C 0.5781 0.54543 0.67459 0.0
C1595 C 0.58743 0.54106 0.7139 0.0
C1596 C 0.60094 0.52922 0.71079 0.0
C1597 C 0.60491 0.52162 0.66886 0.0
C1598 C 0.58195 0.54783 0.75867 0.0
C1599 C 0.57297 0.53682 0.78799 0.0
C1600 C 0.58338 0.56543 0.76949 0.0
C1601 C 0.59306 0.57747 0.73983 0.0
C1602 C 0.61026 0.57409 0.72802 0.0
C1603 C 0.61929 0.58541 0.6998 0.0
C1604 C 0.61127 0.60021 0.68334 0.0
C1605 C 0.59422 0.60374 0.69514 0.0
C1606 C 0.58513 0.59246 0.72332 0.0
C1607 C 0.54145 0.56822 0.9486 0.0
C1608 C 0.53016 0.58153 0.93634 0.0
C1609 C 0.55362 0.56212 0.91727 0.0
C1610 C 0.55433 0.56892 0.87281 0.0
C1611 C 0.54364 0.58279 0.86156 0.0
C1612 C 0.5318 0.58911 0.89301 0.0
C1613 C 0.56507 0.56098 0.83647 0.0
C1614 C 0.57506 0.57175 0.80855 0.0
C1615 C 0.56421 0.5432 0.82626 0.0
C1616 C 0.55311 0.5312 0.85214 0.0
C1617 C 0.53519 0.53361 0.85365 0.0
C1618 C 0.52481 0.52226 0.87829 0.0
C1619 C 0.53219 0.50836 0.90118 0.0
C1620 C 0.54997 0.50574 0.89931 0.0
C1621 C 0.56041 0.51707 0.87475 0.0
H1622 H 0.52414 0.49958 0.92024 0.0
H1623 H 0.61829 0.60896 0.6615 0.0
H1624 H 0.10232 0.47646 0.65795 0.0
H1625 H 0.0926 0.46043 0.72443 0.0
H1626 H 0.048 0.44318 0.64944 0.0
H1627 H 0.05728 0.46 0.58331 0.0
H1628 H 0.03809 0.45209 0.72787 0.0
H1629 H 0.08357 0.4161 0.67678 0.0
H1630 H 0.11281 0.40853 0.65098 0.0
H1631 H 0.13353 0.42518 0.77951 0.0
H1632 H 0.10444 0.43307 0.80587 0.0
H1633 H 0.03431 0.37986 0.90165 0.0
H1634 H 0.04951 0.39244 0.83679 0.0
H1635 H 0.04002 0.44313 0.89051 0.0
H1636 H 0.02483 0.43068 0.95559 0.0
H1637 H 0.07648 0.41477 0.8199 0.0
H1638 H 0.02281 0.46641 0.80059 0.0
H1639 H 0.99207 0.47002 0.81949 0.0
H1640 H 0.98533 0.41532 0.82004 0.0
H1641 H 0.01593 0.41138 0.80035 0.0
C1642 C 0.09053 0.46909 0.65539 0.0
C1643 C 0.08057 0.46944 0.61534 0.0
C1644 C 0.08503 0.45985 0.69345 0.0
C1645 C 0.06969 0.45035 0.69189 0.0
C1646 C 0.05988 0.45042 0.65155 0.0
C1647 C 0.06521 0.45997 0.61372 0.0
C1648 C 0.06349 0.44108 0.73307 0.0
C1649 C 0.04652 0.44392 0.74782 0.0
C1650 C 0.07431 0.43008 0.75881 0.0
C1651 C 0.09183 0.42531 0.74315 0.0
C1652 C 0.09438 0.41826 0.69943 0.0
C1653 C 0.11092 0.4139 0.68472 0.0
C1654 C 0.12502 0.41641 0.71355 0.0
C1655 C 0.1226 0.42326 0.7572 0.0
C1656 C 0.10608 0.42766 0.77207 0.0
C1657 C 0.03591 0.39366 0.9004 0.0
C1658 C 0.02817 0.40429 0.93341 0.0
C1659 C 0.0446 0.40082 0.86332 0.0
C1660 C 0.04554 0.41869 0.8585 0.0
C1661 C 0.0392 0.42929 0.89345 0.0
C1662 C 0.03063 0.42214 0.93078 0.0
C1663 C 0.05138 0.42623 0.81487 0.0
C1664 C 0.06817 0.42301 0.79977 0.0
C1665 C 0.04021 0.43634 0.78783 0.0
C1666 C 0.02175 0.43862 0.79959 0.0
C1667 C 0.01477 0.45516 0.80466 0.0
C1668 C -0.00264 0.45726 0.81547 0.0
C1669 C 0.98677 0.44291 0.82112 0.0
C1670 C 0.99356 0.42642 0.81584 0.0
C1671 C 0.01094 0.42425 0.80492 0.0
H1672 H 0.9733 0.44456 0.82946 0.0
H1673 H 0.13782 0.41302 0.7021 0.0
H1674 H 0.04415 0.05899 0.09577 0.0
H1675 H 0.05885 0.05421 0.16822 0.0
H1676 H 0.05281 0.10767 0.20287 0.0
H1677 H 0.03802 0.11266 0.13032 0.0
H1678 H 0.0849 0.09264 0.23286 0.0
H1679 H 0.0241 0.08384 0.24229 0.0
H1680 H -0.00393 0.07235 0.21732 0.0
H1681 H 0.01472 0.02089 0.23468 0.0
H1682 H 0.04297 0.03207 0.25903 0.0
H1683 H 0.07051 0.04537 0.47082 0.0
H1684 H 0.06071 0.0637 0.40834 0.0
H1685 H 0.10659 0.05145 0.33202 0.0
H1686 H 0.11667 0.03356 0.39452 0.0
H1687 H 0.05236 0.05156 0.32932 0.0
H1688 H 0.11504 0.08078 0.25145 0.0
H1689 H 0.14214 0.09375 0.27844 0.0
H1690 H 0.11793 0.10774 0.4049 0.0
H1691 H 0.09062 0.09508 0.37846 0.0
C1692 C 0.04629 0.06985 0.11818 0.0
C1693 C 0.03966 0.08616 0.10753 0.0
C1694 C 0.05468 0.06708 0.15961 0.0
C1695 C 0.05663 0.08054 0.19104 0.0
C1696 C 0.05135 0.09713 0.17903 0.0
C1697 C 0.04286 0.09992 0.1376 0.0
C1698 C 0.06234 0.07676 0.2381 0.0
C1699 C 0.07783 0.08372 0.2542 0.0
C1700 C 0.05273 0.0656 0.26631 0.0
C1701 C 0.03569 0.0588 0.25214 0.0
C1702 C 0.02227 0.07007 0.24045 0.0
C1703 C 0.00633 0.06362 0.22646 0.0
C1704 C 0.00362 0.0459 0.22434 0.0
C1705 C 0.01684 0.03461 0.23631 0.0
C1706 C 0.03281 0.04099 0.25025 0.0
C1707 C 0.07874 0.04697 0.44129 0.0
C1708 C 0.09427 0.03782 0.43745 0.0
C1709 C 0.0731 0.05743 0.40556 0.0
C1710 C 0.08288 0.05894 0.36542 0.0
C1711 C 0.09892 0.05072 0.36284 0.0
C1712 C 0.10462 0.04037 0.39861 0.0
C1713 C 0.07536 0.06692 0.32401 0.0
C1714 C 0.05943 0.0607 0.30866 0.0
C1715 C 0.08445 0.07901 0.29709 0.0
C1716 C 0.10079 0.08687 0.31303 0.0
C1717 C 0.11546 0.08671 0.28491 0.0
C1718 C 0.13087 0.09399 0.30014 0.0
C1719 C 0.13176 0.10152 0.34339 0.0
C1720 C 0.11723 0.10184 0.37146 0.0
C1721 C 0.10179 0.09459 0.35639 0.0
H1722 H 0.14371 0.10714 0.35513 0.0
H1723 H 0.99128 0.04093 0.2135 0.0
H1724 H 0.43986 0.04524 0.56639 0.0
H1725 H 0.44487 0.0596 0.6391 0.0
H1726 H 0.39052 0.06983 0.65161 0.0
H1727 H 0.38532 0.05479 0.57965 0.0
H1728 H 0.44137 0.08776 0.68299 0.0
H1729 H 0.37722 0.06104 0.75835 0.0
H1730 H 0.35724 0.03698 0.74412 0.0
H1731 H 0.39795 0.00815 0.6812 0.0
H1732 H 0.41823 0.03185 0.69596 0.0
H1733 H 0.44246 0.11837 0.90458 0.0
H1734 H 0.42895 0.1117 0.83137 0.0
H1735 H 0.43306 0.05758 0.86067 0.0
H1736 H 0.44599 0.06414 0.93439 0.0
H1737 H 0.40674 0.06232 0.80831 0.0
H1738 H 0.4649 0.07916 0.81026 0.0
H1739 H 0.49024 0.09719 0.82582 0.0
H1740 H 0.47062 0.13607 0.73603 0.0
H1741 H 0.44486 0.11844 0.72087 0.0
C1742 C 0.42901 0.05098 0.58388 0.0
C1743 C 0.41215 0.0486 0.56771 0.0
C1744 C 0.43191 0.0592 0.62558 0.0
C1745 C 0.41801 0.06535 0.65148 0.0
C1746 C 0.40138 0.06475 0.63278 0.0
C1747 C 0.39844 0.05626 0.59149 0.0
C1748 C 0.42069 0.07049 0.6998 0.0
C1749 C 0.43364 0.0824 0.71033 0.0
C1750 C 0.41121 0.06281 0.73576 0.0
C1751 C 0.39916 0.04834 0.72766 0.0
C1752 C 0.38191 0.04954 0.74165 0.0
C1753 C 0.37054 0.03595 0.73351 0.0
C1754 C 0.37631 0.02108 0.71158 0.0
C1755 C 0.39348 0.01971 0.69797 0.0
C1756 C 0.40491 0.0332 0.70626 0.0
C1757 C 0.4399 0.10507 0.89614 0.0
C1758 C 0.44561 0.09177 0.92482 0.0
C1759 C 0.43225 0.10127 0.8542 0.0
C1760 C 0.43053 0.08414 0.83997 0.0
C1761 C 0.4344 0.0709 0.87076 0.0
C1762 C 0.44181 0.07468 0.91301 0.0
C1763 C 0.42706 0.07999 0.7914 0.0
C1764 C 0.41413 0.06808 0.78088 0.0
C1765 C 0.43734 0.08683 0.75574 0.0
C1766 C 0.45278 0.09757 0.76497 0.0
C1767 C 0.46583 0.09166 0.79434 0.0
C1768 C 0.48029 0.10181 0.8031 0.0
C1769 C 0.48201 0.1178 0.78208 0.0
C1770 C 0.46925 0.12369 0.75236 0.0
C1771 C 0.45469 0.11364 0.74376 0.0
H1772 H 0.49327 0.1256 0.78868 0.0
H1773 H 0.36748 0.0106 0.70524 0.0
H1774 H 0.45845 0.43869 0.02097 0.0
H1775 H 0.44022 0.44874 0.08346 0.0
H1776 H 0.43106 0.39642 0.12476 0.0
H1777 H 0.44926 0.38622 0.06241 0.0
H1778 H 0.40301 0.41888 0.14434 0.0
H1779 H 0.46359 0.41303 0.1683 0.0
H1780 H 0.49388 0.41716 0.14631 0.0
H1781 H 0.48777 0.47181 0.15679 0.0
H1782 H 0.45722 0.46799 0.17766 0.0
H1783 H 0.42324 0.45168 0.39484 0.0
H1784 H 0.43148 0.43744 0.32361 0.0
H1785 H 0.38782 0.46024 0.25574 0.0
H1786 H 0.37912 0.47379 0.32704 0.0
H1787 H 0.44186 0.45053 0.24944 0.0
H1788 H 0.37551 0.4376 0.16372 0.0
H1789 H 0.346 0.42955 0.18609 0.0
H1790 H 0.3653 0.40593 0.30817 0.0
H1791 H 0.39494 0.41362 0.28625 0.0
C1792 C 0.45203 0.42928 0.04217 0.0
C1793 C 0.4556 0.41168 0.03742 0.0
C1794 C 0.44162 0.43506 0.07791 0.0
C1795 C 0.43461 0.42331 0.10912 0.0
C1796 C 0.43642 0.40567 0.10109 0.0
C1797 C 0.44691 0.39988 0.06557 0.0
C1798 C 0.42835 0.42933 0.15405 0.0
C1799 C 0.41138 0.42592 0.16733 0.0
C1800 C 0.43957 0.43783 0.18462 0.0
C1801 C 0.45808 0.44024 0.17399 0.0
C1802 C 0.46868 0.42594 0.16565 0.0
C1803 C 0.4859 0.42821 0.15337 0.0
C1804 C 0.49275 0.44473 0.14999 0.0
C1805 C 0.48243 0.45901 0.15925 0.0
C1806 C 0.46515 0.45681 0.17127 0.0
C1807 C 0.41524 0.45337 0.36491 0.0
C1808 C 0.40051 0.4638 0.36662 0.0
C1809 C 0.41998 0.44529 0.32416 0.0
C1810 C 0.41022 0.44765 0.28424 0.0
C1811 C 0.39536 0.45786 0.28617 0.0
C1812 C 0.39044 0.46567 0.32704 0.0
C1813 C 0.41622 0.44045 0.24 0.0
C1814 C 0.4333 0.4436 0.22671 0.0
C1815 C 0.4052 0.43119 0.21022 0.0
C1816 C 0.38743 0.42634 0.22351 0.0
C1817 C 0.37346 0.43062 0.19524 0.0
C1818 C 0.35671 0.42614 0.20786 0.0
C1819 C 0.35377 0.41728 0.24859 0.0
C1820 C 0.36759 0.41284 0.27672 0.0
C1821 C 0.38437 0.41729 0.26424 0.0
H1822 H 0.34079 0.41383 0.25832 0.0
H1823 H 0.50606 0.44642 0.14014 0.0
loop_
_geom_bond_atom_site_label_1
_geom_bond_atom_site_label_2
_geom_bond_distance
_geom_bond_site_symmetry_2
_ccdc_geom_bond_type
C0 O1 1.306 . S
C0 O3 1.160 . S
O1 C0 1.306 . S
O1 Cd2 2.228 1_655 S
Cd2 O1 2.228 1_455 S
Cd2 O6 2.273 . S
Cd2 O10 2.277 . S
O3 C0 1.160 . S
O3 Cd4 2.203 1_655 S
Cd4 O3 2.203 1_455 S
Cd4 O6 2.411 . S
Cd4 O7 2.333 . S
Cd4 O8 2.352 . S
Cd4 O12 2.277 . S
Cd4 O13 2.356 . S
C5 O10 1.209 . S
C5 O12 1.226 . S
O6 Cd2 2.273 . S
O6 Cd4 2.411 . S
O6 C9 1.320 . S
O7 Cd4 2.333 . S
O7 C9 1.214 . S
O8 Cd4 2.352 . S
O8 C11 1.258 . S
C9 O6 1.320 . S
C9 O7 1.214 . S
O10 Cd2 2.277 . S
O10 C5 1.209 . S
C11 O8 1.258 . S
C11 O13 1.282 . S
O12 Cd4 2.277 . S
O12 C5 1.226 . S
O13 Cd4 2.356 . S
O13 C11 1.282 . S
C14 O15 1.306 . S
C14 O17 1.160 . S
O15 C14 1.306 . S
O15 Cd16 2.228 1_565 S
Cd16 O15 2.228 1_545 S
Cd16 O20 2.273 . S
Cd16 O24 2.277 . S
O17 C14 1.160 . S
O17 Cd18 2.203 1_565 S
Cd18 O17 2.203 1_545 S
Cd18 O20 2.411 . S
Cd18 O21 2.333 . S
Cd18 O22 2.352 . S
Cd18 O26 2.277 . S
Cd18 O27 2.356 . S
C19 O24 1.209 . S
C19 O26 1.226 . S
O20 Cd16 2.273 . S
O20 Cd18 2.411 . S
O20 C23 1.320 . S
O21 Cd18 2.333 . S
O21 C23 1.214 . S
O22 Cd18 2.352 . S
O22 C25 1.258 . S
C23 O20 1.320 . S
C23 O21 1.214 . S
O24 Cd16 2.277 . S
O24 C19 1.209 . S
C25 O22 1.258 . S
C25 O27 1.282 . S
O26 Cd18 2.277 . S
O26 C19 1.226 . S
O27 Cd18 2.356 . S
O27 C25 1.282 . S
C28 O29 1.306 . S
C28 O31 1.160 . S
O29 C28 1.306 . S
O29 Cd30 2.228 . S
Cd30 O29 2.228 . S
Cd30 O34 2.273 . S
Cd30 O38 2.277 . S
O31 C28 1.160 . S
O31 Cd32 2.203 . S
Cd32 O31 2.203 . S
Cd32 O34 2.411 . S
Cd32 O35 2.333 . S
Cd32 O36 2.352 . S
Cd32 O40 2.277 . S
Cd32 O41 2.356 . S
C33 O38 1.209 . S
C33 O40 1.226 . S
O34 Cd30 2.273 . S
O34 Cd32 2.411 . S
O34 C37 1.320 . S
O35 Cd32 2.333 . S
O35 C37 1.214 . S
O36 Cd32 2.352 . S
O36 C39 1.258 . S
C37 O34 1.320 . S
C37 O35 1.214 . S
O38 Cd30 2.277 . S
O38 C33 1.209 . S
C39 O36 1.258 . S
C39 O41 1.282 . S
O40 Cd32 2.277 . S
O40 C33 1.226 . S
O41 Cd32 2.356 . S
O41 C39 1.282 . S
C42 O43 1.306 . S
C42 O45 1.160 . S
O43 C42 1.306 . S
O43 Cd44 2.228 . S
Cd44 O43 2.228 . S
Cd44 O48 2.273 . S
Cd44 O52 2.277 . S
O45 C42 1.160 . S
O45 Cd46 2.203 . S
Cd46 O45 2.203 . S
Cd46 O48 2.411 . S
Cd46 O49 2.333 . S
Cd46 O50 2.352 . S
Cd46 O54 2.277 . S
Cd46 O55 2.356 . S
C47 O52 1.209 . S
C47 O54 1.226 . S
O48 Cd44 2.273 . S
O48 Cd46 2.411 . S
O48 C51 1.320 . S
O49 Cd46 2.333 . S
O49 C51 1.214 . S
O50 Cd46 2.352 . S
O50 C53 1.258 . S
C51 O48 1.320 . S
C51 O49 1.214 . S
O52 Cd44 2.277 . S
O52 C47 1.209 . S
C53 O50 1.258 . S
C53 O55 1.282 . S
O54 Cd46 2.277 . S
O54 C47 1.226 . S
O55 Cd46 2.356 . S
O55 C53 1.282 . S
C56 O57 1.306 . S
C56 O59 1.160 . S
O57 C56 1.306 . S
O57 Cd58 2.228 1_655 S
Cd58 O57 2.228 1_455 S
Cd58 O62 2.273 . S
Cd58 O66 2.277 . S
O59 C56 1.160 . S
O59 Cd60 2.203 1_655 S
Cd60 O59 2.203 1_455 S
Cd60 O62 2.411 . S
Cd60 O63 2.333 . S
Cd60 O64 2.352 . S
Cd60 O68 2.277 . S
Cd60 O69 2.356 . S
C61 O66 1.209 . S
C61 O68 1.226 . S
O62 Cd58 2.273 . S
O62 Cd60 2.411 . S
O62 C65 1.320 . S
O63 Cd60 2.333 . S
O63 C65 1.214 . S
O64 Cd60 2.352 . S
O64 C67 1.258 . S
C65 O62 1.320 . S
C65 O63 1.214 . S
O66 Cd58 2.277 . S
O66 C61 1.209 . S
C67 O64 1.258 . S
C67 O69 1.282 . S
O68 Cd60 2.277 . S
O68 C61 1.226 . S
O69 Cd60 2.356 . S
O69 C67 1.282 . S
C70 O71 1.306 . S
C70 O73 1.160 . S
O71 C70 1.306 . S
O71 Cd72 2.228 1_565 S
Cd72 O71 2.228 1_545 S
Cd72 O76 2.273 . S
Cd72 O80 2.277 . S
O73 C70 1.160 . S
O73 Cd74 2.203 1_565 S
Cd74 O73 2.203 1_545 S
Cd74 O76 2.411 . S
Cd74 O77 2.333 . S
Cd74 O78 2.352 . S
Cd74 O82 2.277 . S
Cd74 O83 2.356 . S
C75 O80 1.209 . S
C75 O82 1.226 . S
O76 Cd72 2.273 . S
O76 Cd74 2.411 . S
O76 C79 1.320 . S
O77 Cd74 2.333 . S
O77 C79 1.214 . S
O78 Cd74 2.352 . S
O78 C81 1.258 . S
C79 O76 1.320 . S
C79 O77 1.214 . S
O80 Cd72 2.277 . S
O80 C75 1.209 . S
C81 O78 1.258 . S
C81 O83 1.282 . S
O82 Cd74 2.277 . S
O82 C75 1.226 . S
O83 Cd74 2.356 . S
O83 C81 1.282 . S
C84 O85 1.306 . S
C84 O87 1.160 . S
O85 C84 1.306 . S
O85 Cd86 2.228 . S
Cd86 O85 2.228 . S
Cd86 O90 2.273 . S
Cd86 O94 2.277 . S
O87 C84 1.160 . S
O87 Cd88 2.203 . S
Cd88 O87 2.203 . S
Cd88 O90 2.411 . S
Cd88 O91 2.333 . S
Cd88 O92 2.352 . S
Cd88 O96 2.277 . S
Cd88 O97 2.356 . S
C89 O94 1.209 . S
C89 O96 1.226 . S
O90 Cd86 2.273 . S
O90 Cd88 2.411 . S
O90 C93 1.320 . S
O91 Cd88 2.333 . S
O91 C93 1.214 . S
O92 Cd88 2.352 . S
O92 C95 1.258 . S
C93 O90 1.320 . S
C93 O91 1.214 . S
O94 Cd86 2.277 . S
O94 C89 1.209 . S
C95 O92 1.258 . S
C95 O97 1.282 . S
O96 Cd88 2.277 . S
O96 C89 1.226 . S
O97 Cd88 2.356 . S
O97 C95 1.282 . S
C98 O99 1.306 . S
C98 O101 1.160 . S
O99 C98 1.306 . S
O99 Cd100 2.228 . S
Cd100 O99 2.228 . S
Cd100 O104 2.273 . S
Cd100 O108 2.277 . S
O101 C98 1.160 . S
O101 Cd102 2.203 . S
Cd102 O101 2.203 . S
Cd102 O104 2.411 . S
Cd102 O105 2.333 . S
Cd102 O106 2.352 . S
Cd102 O110 2.277 . S
Cd102 O111 2.356 . S
C103 O108 1.209 . S
C103 O110 1.226 . S
O104 Cd100 2.273 . S
O104 Cd102 2.411 . S
O104 C107 1.320 . S
O105 Cd102 2.333 . S
O105 C107 1.214 . S
O106 Cd102 2.352 . S
O106 C109 1.258 . S
C107 O104 1.320 . S
C107 O105 1.214 . S
O108 Cd100 2.277 . S
O108 C103 1.209 . S
C109 O106 1.258 . S
C109 O111 1.282 . S
O110 Cd102 2.277 . S
O110 C103 1.226 . S
O111 Cd102 2.356 . S
O111 C109 1.282 . S
C112 O113 1.306 . S
C112 O115 1.160 . S
O113 C112 1.306 . S
O113 Cd114 2.228 1_455 S
Cd114 O113 2.228 1_655 S
Cd114 O118 2.273 . S
Cd114 O122 2.277 . S
O115 C112 1.160 . S
O115 Cd116 2.203 1_455 S
Cd116 O115 2.203 1_655 S
Cd116 O118 2.411 . S
Cd116 O119 2.333 . S
Cd116 O120 2.352 . S
Cd116 O124 2.277 . S
Cd116 O125 2.356 . S
C117 O122 1.209 . S
C117 O124 1.226 . S
O118 Cd114 2.273 . S
O118 Cd116 2.411 . S
O118 C121 1.320 . S
O119 Cd116 2.333 . S
O119 C121 1.214 . S
O120 Cd116 2.352 . S
O120 C123 1.258 . S
C121 O118 1.320 . S
C121 O119 1.214 . S
O122 Cd114 2.277 . S
O122 C117 1.209 . S
C123 O120 1.258 . S
C123 O125 1.282 . S
O124 Cd116 2.277 . S
O124 C117 1.226 . S
O125 Cd116 2.356 . S
O125 C123 1.282 . S
C126 O127 1.306 . S
C126 O129 1.160 . S
O127 C126 1.306 . S
O127 Cd128 2.228 1_545 S
Cd128 O127 2.228 1_565 S
Cd128 O132 2.273 . S
Cd128 O136 2.277 . S
O129 C126 1.160 . S
O129 Cd130 2.203 1_545 S
Cd130 O129 2.203 1_565 S
Cd130 O132 2.411 . S
Cd130 O133 2.333 . S
Cd130 O134 2.352 . S
Cd130 O138 2.277 . S
Cd130 O139 2.356 . S
C131 O136 1.209 . S
C131 O138 1.226 . S
O132 Cd128 2.273 . S
O132 Cd130 2.411 . S
O132 C135 1.320 . S
O133 Cd130 2.333 . S
O133 C135 1.214 . S
O134 Cd130 2.352 . S
O134 C137 1.258 . S
C135 O132 1.320 . S
C135 O133 1.214 . S
O136 Cd128 2.277 . S
O136 C131 1.209 . S
C137 O134 1.258 . S
C137 O139 1.282 . S
O138 Cd130 2.277 . S
O138 C131 1.226 . S
O139 Cd130 2.356 . S
O139 C137 1.282 . S
C140 O141 1.306 . S
C140 O143 1.160 . S
O141 C140 1.306 . S
O141 Cd142 2.228 . S
Cd142 O141 2.228 . S
Cd142 O146 2.273 . S
Cd142 O150 2.277 . S
O143 C140 1.160 . S
O143 Cd144 2.203 . S
Cd144 O143 2.203 . S
Cd144 O146 2.411 . S
Cd144 O147 2.333 . S
Cd144 O148 2.352 . S
Cd144 O152 2.277 . S
Cd144 O153 2.356 . S
C145 O150 1.209 . S
C145 O152 1.226 . S
O146 Cd142 2.273 . S
O146 Cd144 2.411 . S
O146 C149 1.320 . S
O147 Cd144 2.333 . S
O147 C149 1.214 . S
O148 Cd144 2.352 . S
O148 C151 1.258 . S
C149 O146 1.320 . S
C149 O147 1.214 . S
O150 Cd142 2.277 . S
O150 C145 1.209 . S
C151 O148 1.258 . S
C151 O153 1.282 . S
O152 Cd144 2.277 . S
O152 C145 1.226 . S
O153 Cd144 2.356 . S
O153 C151 1.282 . S
C154 O155 1.306 . S
C154 O157 1.160 . S
O155 C154 1.306 . S
O155 Cd156 2.228 . S
Cd156 O155 2.228 . S
Cd156 O160 2.273 . S
Cd156 O164 2.277 . S
O157 C154 1.160 . S
O157 Cd158 2.203 . S
Cd158 O157 2.203 . S
Cd158 O160 2.411 . S
Cd158 O161 2.333 . S
Cd158 O162 2.352 . S
Cd158 O166 2.277 . S
Cd158 O167 2.356 . S
C159 O164 1.209 . S
C159 O166 1.226 . S
O160 Cd156 2.273 . S
O160 Cd158 2.411 . S
O160 C163 1.320 . S
O161 Cd158 2.333 . S
O161 C163 1.214 . S
O162 Cd158 2.352 . S
O162 C165 1.258 . S
C163 O160 1.320 . S
C163 O161 1.214 . S
O164 Cd156 2.277 . S
O164 C159 1.209 . S
C165 O162 1.258 . S
C165 O167 1.282 . S
O166 Cd158 2.277 . S
O166 C159 1.226 . S
O167 Cd158 2.356 . S
O167 C165 1.282 . S
C168 O169 1.306 . S
C168 O171 1.160 . S
O169 C168 1.306 . S
O169 Cd170 2.228 1_455 S
Cd170 O169 2.228 1_655 S
Cd170 O174 2.273 . S
Cd170 O178 2.277 . S
O171 C168 1.160 . S
O171 Cd172 2.203 1_455 S
Cd172 O171 2.203 1_655 S
Cd172 O174 2.411 . S
Cd172 O175 2.333 . S
Cd172 O176 2.352 . S
Cd172 O180 2.277 . S
Cd172 O181 2.356 . S
C173 O178 1.209 . S
C173 O180 1.226 . S
O174 Cd170 2.273 . S
O174 Cd172 2.411 . S
O174 C177 1.320 . S
O175 Cd172 2.333 . S
O175 C177 1.214 . S
O176 Cd172 2.352 . S
O176 C179 1.258 . S
C177 O174 1.320 . S
C177 O175 1.214 . S
O178 Cd170 2.277 . S
O178 C173 1.209 . S
C179 O176 1.258 . S
C179 O181 1.282 . S
O180 Cd172 2.277 . S
O180 C173 1.226 . S
O181 Cd172 2.356 . S
O181 C179 1.282 . S
C182 O183 1.306 . S
C182 O185 1.160 . S
O183 C182 1.306 . S
O183 Cd184 2.228 1_545 S
Cd184 O183 2.228 1_565 S
Cd184 O188 2.273 . S
Cd184 O192 2.277 . S
O185 C182 1.160 . S
O185 Cd186 2.203 1_545 S
Cd186 O185 2.203 1_565 S
Cd186 O188 2.411 . S
Cd186 O189 2.333 . S
Cd186 O190 2.352 . S
Cd186 O194 2.277 . S
Cd186 O195 2.356 . S
C187 O192 1.209 . S
C187 O194 1.226 . S
O188 Cd184 2.273 . S
O188 Cd186 2.411 . S
O188 C191 1.320 . S
O189 Cd186 2.333 . S
O189 C191 1.214 . S
O190 Cd186 2.352 . S
O190 C193 1.258 . S
C191 O188 1.320 . S
C191 O189 1.214 . S
O192 Cd184 2.277 . S
O192 C187 1.209 . S
C193 O190 1.258 . S
C193 O195 1.282 . S
O194 Cd186 2.277 . S
O194 C187 1.226 . S
O195 Cd186 2.356 . S
O195 C193 1.282 . S
C196 O197 1.306 . S
C196 O199 1.160 . S
O197 C196 1.306 . S
O197 Cd198 2.228 . S
Cd198 O197 2.228 . S
Cd198 O202 2.273 . S
Cd198 O206 2.277 . S
O199 C196 1.160 . S
O199 Cd200 2.203 . S
Cd200 O199 2.203 . S
Cd200 O202 2.411 . S
Cd200 O203 2.333 . S
Cd200 O204 2.352 . S
Cd200 O208 2.277 . S
Cd200 O209 2.356 . S
C201 O206 1.209 . S
C201 O208 1.226 . S
O202 Cd198 2.273 . S
O202 Cd200 2.411 . S
O202 C205 1.320 . S
O203 Cd200 2.333 . S
O203 C205 1.214 . S
O204 Cd200 2.352 . S
O204 C207 1.258 . S
C205 O202 1.320 . S
C205 O203 1.214 . S
O206 Cd198 2.277 . S
O206 C201 1.209 . S
C207 O204 1.258 . S
C207 O209 1.282 . S
O208 Cd200 2.277 . S
O208 C201 1.226 . S
O209 Cd200 2.356 . S
O209 C207 1.282 . S
C210 O211 1.306 . S
C210 O213 1.160 . S
O211 C210 1.306 . S
O211 Cd212 2.228 . S
Cd212 O211 2.228 . S
Cd212 O216 2.273 . S
Cd212 O220 2.277 . S
O213 C210 1.160 . S
O213 Cd214 2.203 . S
Cd214 O213 2.203 . S
Cd214 O216 2.411 . S
Cd214 O217 2.333 . S
Cd214 O218 2.352 . S
Cd214 O222 2.277 . S
Cd214 O223 2.356 . S
C215 O220 1.209 . S
C215 O222 1.226 . S
O216 Cd212 2.273 . S
O216 Cd214 2.411 . S
O216 C219 1.320 . S
O217 Cd214 2.333 . S
O217 C219 1.214 . S
O218 Cd214 2.352 . S
O218 C221 1.258 . S
C219 O216 1.320 . S
C219 O217 1.214 . S
O220 Cd212 2.277 . S
O220 C215 1.209 . S
C221 O218 1.258 . S
C221 O223 1.282 . S
O222 Cd214 2.277 . S
O222 C215 1.226 . S
O223 Cd214 2.356 . S
O223 C221 1.282 . S
H224 C242 0.951 . S
H225 C244 0.951 1_556 S
H226 C246 0.955 . S
H227 C247 0.954 . S
H228 C249 0.950 . S
H229 C252 0.950 . S
H230 C253 0.950 . S
H231 C255 0.950 . S
H232 C256 0.950 . S
H233 C257 0.954 . S
H234 C259 0.948 1_654 S
H235 C261 0.950 . S
H236 C262 0.950 . S
H237 C264 0.950 . S
H238 C267 0.950 . S
H239 C268 0.950 . S
H240 C270 0.950 . S
H241 C271 0.950 . S
C242 H224 0.951 . S
C242 C243 1.366 . S
C242 C244 1.388 . S
C243 C242 1.366 . S
C243 C247 1.385 . S
C244 H225 0.951 1_554 S
C244 C242 1.388 . S
C244 C245 1.366 . S
C245 C244 1.366 . S
C245 C246 1.414 . S
C245 C248 1.499 . S
C246 H226 0.955 . S
C246 C245 1.414 . S
C246 C247 1.374 . S
C247 H227 0.954 . S
C247 C243 1.385 . S
C247 C246 1.374 . S
C248 C245 1.499 . S
C248 C249 1.373 1_455 S
C248 C250 1.389 1_554 S
C249 H228 0.950 . S
C249 C248 1.373 1_655 S
C249 C265 1.377 . S
C250 C248 1.389 1_556 S
C250 C251 1.524 . S
C250 C264 1.377 . S
C251 C250 1.524 . S
C251 C252 1.397 1_556 S
C251 C256 1.363 . S
C252 H229 0.950 . S
C252 C251 1.397 1_554 S
C252 C253 1.334 . S
C253 H230 0.950 . S
C253 C252 1.334 . S
C253 C254 1.287 1_554 S
C254 C253 1.287 1_556 S
C254 C255 1.524 . S
C254 H273 0.913 . S
C255 H231 0.950 . S
C255 C254 1.524 . S
C255 C256 1.415 . S
C256 H232 0.950 . S
C256 C251 1.363 . S
C256 C255 1.415 . S
C257 H233 0.954 . S
C257 C258 1.366 . S
C257 C259 1.388 . S
C258 C257 1.366 . S
C258 C262 1.385 . S
C259 H234 0.948 1_456 S
C259 C257 1.388 . S
C259 C260 1.366 . S
C260 C259 1.366 . S
C260 C261 1.414 . S
C260 C263 1.499 . S
C261 H235 0.950 . S
C261 C260 1.414 . S
C261 C262 1.374 . S
C262 H236 0.950 . S
C262 C258 1.385 . S
C262 C261 1.374 . S
C263 C260 1.499 . S
C263 C264 1.373 . S
C263 C265 1.389 1_456 S
C264 H237 0.950 . S
C264 C250 1.377 . S
C264 C263 1.373 . S
C265 C249 1.377 . S
C265 C263 1.389 1_654 S
C265 C266 1.524 . S
C266 C265 1.524 . S
C266 C267 1.397 1_554 S
C266 C271 1.363 . S
C267 H238 0.950 . S
C267 C266 1.397 1_556 S
C267 C268 1.334 . S
C268 H239 0.950 . S
C268 C267 1.334 . S
C268 C269 1.287 1_556 S
C269 C268 1.287 1_554 S
C269 C270 1.524 . S
C269 H272 0.999 . S
C270 H240 0.950 . S
C270 C269 1.524 . S
C270 C271 1.415 . S
C271 H241 0.950 . S
C271 C266 1.363 . S
C271 C270 1.415 . S
H272 C269 0.999 . S
H273 C254 0.913 . S
H274 C292 0.951 . S
H275 C294 0.951 . S
H276 C296 0.950 . S
H277 C297 0.950 . S
H278 C299 0.950 . S
H279 C302 0.950 . S
H280 C303 0.950 . S
H281 C305 0.950 . S
H282 C306 0.950 . S
H283 C307 0.951 . S
H284 C309 0.951 . S
H285 C311 0.950 . S
H286 C312 0.950 . S
H287 C314 0.950 . S
H288 C317 0.950 . S
H289 C318 0.950 . S
H290 C320 0.950 . S
H291 C321 0.950 . S
C292 H274 0.951 . S
C292 C293 1.366 . S
C292 C294 1.388 . S
C293 C292 1.366 . S
C293 C297 1.385 . S
C294 H275 0.951 . S
C294 C292 1.388 . S
C294 C295 1.366 . S
C295 C294 1.366 . S
C295 C296 1.414 . S
C295 C298 1.499 . S
C296 H276 0.950 . S
C296 C295 1.414 . S
C296 C297 1.374 . S
C297 H277 0.950 . S
C297 C293 1.385 . S
C297 C296 1.374 . S
C298 C295 1.499 . S
C298 C299 1.373 1_545 S
C298 C300 1.389 . S
C299 H278 0.950 . S
C299 C298 1.373 1_565 S
C299 C315 1.377 . S
C300 C298 1.389 . S
C300 C301 1.524 . S
C300 C314 1.377 . S
C301 C300 1.524 . S
C301 C302 1.397 . S
C301 C306 1.363 . S
C302 H279 0.950 . S
C302 C301 1.397 . S
C302 C303 1.334 . S
C303 H280 0.950 . S
C303 C302 1.334 . S
C303 C304 1.287 . S
C304 C303 1.287 . S
C304 C305 1.524 . S
C304 H323 0.913 . S
C305 H281 0.950 . S
C305 C304 1.524 . S
C305 C306 1.415 . S
C306 H282 0.950 . S
C306 C301 1.363 . S
C306 C305 1.415 . S
C307 H283 0.951 . S
C307 C308 1.366 . S
C307 C309 1.388 . S
C308 C307 1.366 . S
C308 C312 1.385 . S
C309 H284 0.951 . S
C309 C307 1.388 . S
C309 C310 1.366 . S
C310 C309 1.366 . S
C310 C311 1.414 . S
C310 C313 1.499 . S
C311 H285 0.950 . S
C311 C310 1.414 . S
C311 C312 1.374 . S
C312 H286 0.950 . S
C312 C308 1.385 . S
C312 C311 1.374 . S
C313 C310 1.499 . S
C313 C314 1.373 . S
C313 C315 1.389 1_545 S
C314 H287 0.950 . S
C314 C300 1.377 . S
C314 C313 1.373 . S
C315 C299 1.377 . S
C315 C313 1.389 1_565 S
C315 C316 1.524 . S
C316 C315 1.524 . S
C316 C317 1.397 . S
C316 C321 1.363 . S
C317 H288 0.950 . S
C317 C316 1.397 . S
C317 C318 1.334 . S
C318 H289 0.950 . S
C318 C317 1.334 . S
C318 C319 1.287 . S
C319 C318 1.287 . S
C319 C320 1.524 . S
C319 H322 0.999 . S
C320 H290 0.950 . S
C320 C319 1.524 . S
C320 C321 1.415 . S
C321 H291 0.950 . S
C321 C316 1.363 . S
C321 C320 1.415 . S
H322 C319 0.999 . S
H323 C304 0.913 . S
H324 C342 0.951 . S
H325 C344 0.951 . S
H326 C346 0.950 1_556 S
H327 C347 0.950 . S
H328 C349 0.950 . S
H329 C352 0.950 . S
H330 C353 0.950 . S
H331 C355 0.950 . S
H332 C356 0.950 . S
H333 C357 0.951 . S
H334 C359 0.951 . S
H335 C361 0.950 1_554 S
H336 C362 0.950 . S
H337 C364 0.950 . S
H338 C367 0.950 . S
H339 C368 0.950 . S
H340 C370 0.950 . S
H341 C371 0.950 . S
C342 H324 0.951 . S
C342 C343 1.366 . S
C342 C344 1.388 . S
C343 C342 1.366 . S
C343 C347 1.385 . S
C344 H325 0.951 . S
C344 C342 1.388 . S
C344 C345 1.366 . S
C345 C344 1.366 . S
C345 C346 1.414 . S
C345 C348 1.499 . S
C346 H326 0.950 1_554 S
C346 C345 1.414 . S
C346 C347 1.374 . S
C347 H327 0.950 . S
C347 C343 1.385 . S
C347 C346 1.374 . S
C348 C345 1.499 . S
C348 C349 1.373 1_554 S
C348 C350 1.389 . S
C349 H328 0.950 . S
C349 C348 1.373 1_556 S
C349 C365 1.377 . S
C350 C348 1.389 . S
C350 C351 1.524 . S
C350 C364 1.377 . S
C351 C350 1.524 . S
C351 C352 1.397 . S
C351 C356 1.363 . S
C352 H329 0.950 . S
C352 C351 1.397 . S
C352 C353 1.334 . S
C353 H330 0.950 . S
C353 C352 1.334 . S
C353 C354 1.287 . S
C354 C353 1.287 . S
C354 C355 1.524 . S
C354 H373 0.913 . S
C355 H331 0.950 . S
C355 C354 1.524 . S
C355 C356 1.415 . S
C356 H332 0.950 . S
C356 C351 1.363 . S
C356 C355 1.415 . S
C357 H333 0.951 . S
C357 C358 1.366 . S
C357 C359 1.388 . S
C358 C357 1.366 . S
C358 C362 1.385 . S
C359 H334 0.951 . S
C359 C357 1.388 . S
C359 C360 1.366 . S
C360 C359 1.366 . S
C360 C361 1.414 . S
C360 C363 1.499 . S
C361 H335 0.950 1_556 S
C361 C360 1.414 . S
C361 C362 1.374 . S
C362 H336 0.950 . S
C362 C358 1.385 . S
C362 C361 1.374 . S
C363 C360 1.499 . S
C363 C364 1.373 1_556 S
C363 C365 1.389 . S
C364 H337 0.950 . S
C364 C350 1.377 . S
C364 C363 1.373 1_554 S
C365 C349 1.377 . S
C365 C363 1.389 . S
C365 C366 1.524 . S
C366 C365 1.524 . S
C366 C367 1.397 . S
C366 C371 1.363 . S
C367 H338 0.950 . S
C367 C366 1.397 . S
C367 C368 1.334 . S
C368 H339 0.950 . S
C368 C367 1.334 . S
C368 C369 1.287 . S
C369 C368 1.287 . S
C369 C370 1.524 . S
C369 H372 0.999 . S
C370 H340 0.950 . S
C370 C369 1.524 . S
C370 C371 1.415 . S
C371 H341 0.950 . S
C371 C366 1.363 . S
C371 C370 1.415 . S
H372 C369 0.999 . S
H373 C354 0.913 . S
H374 C392 0.951 . S
H375 C394 0.951 . S
H376 C396 0.950 . S
H377 C397 0.950 . S
H378 C399 0.950 . S
H379 C402 0.950 . S
H380 C403 0.950 . S
H381 C405 0.950 . S
H382 C406 0.950 . S
H383 C407 0.951 . S
H384 C409 0.951 . S
H385 C411 0.950 . S
H386 C412 0.950 . S
H387 C414 0.950 . S
H388 C417 0.950 . S
H389 C418 0.950 . S
H390 C420 0.950 . S
H391 C421 0.950 . S
C392 H374 0.951 . S
C392 C393 1.366 . S
C392 C394 1.388 . S
C393 C392 1.366 . S
C393 C397 1.385 . S
C394 H375 0.951 . S
C394 C392 1.388 . S
C394 C395 1.366 . S
C395 C394 1.366 . S
C395 C396 1.414 . S
C395 C398 1.499 . S
C396 H376 0.950 . S
C396 C395 1.414 . S
C396 C397 1.374 . S
C397 H377 0.950 . S
C397 C393 1.385 . S
C397 C396 1.374 . S
C398 C395 1.499 . S
C398 C399 1.373 . S
C398 C400 1.389 . S
C399 H378 0.950 . S
C399 C398 1.373 . S
C399 C415 1.377 . S
C400 C398 1.389 . S
C400 C401 1.524 . S
C400 C414 1.377 . S
C401 C400 1.524 . S
C401 C402 1.397 . S
C401 C406 1.363 . S
C402 H379 0.950 . S
C402 C401 1.397 . S
C402 C403 1.334 . S
C403 H380 0.950 . S
C403 C402 1.334 . S
C403 C404 1.287 . S
C404 C403 1.287 . S
C404 C405 1.524 . S
C404 H423 0.913 . S
C405 H381 0.950 . S
C405 C404 1.524 . S
C405 C406 1.415 . S
C406 H382 0.950 . S
C406 C401 1.363 . S
C406 C405 1.415 . S
C407 H383 0.951 . S
C407 C408 1.366 . S
C407 C409 1.388 . S
C408 C407 1.366 . S
C408 C412 1.385 . S
C409 H384 0.951 . S
C409 C407 1.388 . S
C409 C410 1.366 . S
C410 C409 1.366 . S
C410 C411 1.414 . S
C410 C413 1.499 . S
C411 H385 0.950 . S
C411 C410 1.414 . S
C411 C412 1.374 . S
C412 H386 0.950 . S
C412 C408 1.385 . S
C412 C411 1.374 . S
C413 C410 1.499 . S
C413 C414 1.373 . S
C413 C415 1.389 . S
C414 H387 0.950 . S
C414 C400 1.377 . S
C414 C413 1.373 . S
C415 C399 1.377 . S
C415 C413 1.389 . S
C415 C416 1.524 . S
C416 C415 1.524 . S
C416 C417 1.397 . S
C416 C421 1.363 . S
C417 H388 0.950 . S
C417 C416 1.397 . S
C417 C418 1.334 . S
C418 H389 0.950 . S
C418 C417 1.334 . S
C418 C419 1.287 . S
C419 C418 1.287 . S
C419 C420 1.524 . S
C419 H422 0.999 . S
C420 H390 0.950 . S
C420 C419 1.524 . S
C420 C421 1.415 . S
C421 H391 0.950 . S
C421 C416 1.363 . S
C421 C420 1.415 . S
H422 C419 0.999 . S
H423 C404 0.913 . S
H424 C442 0.951 . S
H425 C444 0.951 . S
H426 C446 0.950 . S
H427 C447 0.950 . S
H428 C449 0.949 1_455 S
H429 C452 0.950 1_455 S
H430 C453 0.950 1_455 S
H431 C455 0.950 . S
H432 C456 0.950 . S
H433 C457 0.951 . S
H434 C459 0.951 . S
H435 C461 0.950 . S
H436 C462 0.950 . S
H437 C464 0.950 . S
H438 C467 0.950 . S
H439 C468 0.950 . S
H440 C470 0.950 . S
H441 C471 0.950 . S
C442 H424 0.951 . S
C442 C443 1.366 . S
C442 C444 1.388 . S
C443 C442 1.366 . S
C443 C447 1.385 1_655 S
C444 H425 0.951 . S
C444 C442 1.388 . S
C444 C445 1.366 . S
C445 C444 1.366 . S
C445 C446 1.414 1_655 S
C445 C448 1.499 . S
C446 H426 0.950 . S
C446 C445 1.414 1_455 S
C446 C447 1.374 . S
C447 H427 0.950 . S
C447 C443 1.385 1_455 S
C447 C446 1.374 . S
C448 C445 1.499 . S
C448 C449 1.375 . S
C448 C450 1.389 1_556 S
C449 H428 0.949 1_655 S
C449 C448 1.375 . S
C449 C465 1.377 . S
C450 C448 1.389 1_554 S
C450 C451 1.524 . S
C450 C464 1.377 . S
C451 C450 1.524 . S
C451 C452 1.397 . S
C451 C456 1.363 . S
C452 H429 0.950 1_655 S
C452 C451 1.397 . S
C452 C453 1.334 . S
C453 H430 0.950 1_655 S
C453 C452 1.334 . S
C453 C454 1.287 . S
C454 C453 1.287 . S
C454 C455 1.524 . S
C454 H473 0.913 . S
C455 H431 0.950 . S
C455 C454 1.524 . S
C455 C456 1.415 . S
C456 H432 0.950 . S
C456 C451 1.363 . S
C456 C455 1.415 . S
C457 H433 0.951 . S
C457 C458 1.366 1_455 S
C457 C459 1.388 . S
C458 C457 1.366 1_655 S
C458 C462 1.385 . S
C459 H434 0.951 . S
C459 C457 1.388 . S
C459 C460 1.366 1_455 S
C460 C459 1.366 1_655 S
C460 C461 1.414 . S
C460 C463 1.499 . S
C461 H435 0.950 . S
C461 C460 1.414 . S
C461 C462 1.374 . S
C462 H436 0.950 . S
C462 C458 1.385 . S
C462 C461 1.374 . S
C463 C460 1.499 . S
C463 C464 1.373 . S
C463 C465 1.389 1_554 S
C464 H437 0.950 . S
C464 C450 1.377 . S
C464 C463 1.373 . S
C465 C449 1.377 . S
C465 C463 1.389 1_556 S
C465 C466 1.524 1_655 S
C466 C465 1.524 1_455 S
C466 C467 1.397 1_455 S
C466 C471 1.363 . S
C467 H438 0.950 . S
C467 C466 1.397 1_655 S
C467 C468 1.334 . S
C468 H439 0.950 . S
C468 C467 1.334 . S
C468 C469 1.287 1_655 S
C469 C468 1.287 1_455 S
C469 C470 1.524 . S
C469 H472 0.999 . S
C470 H440 0.950 . S
C470 C469 1.524 . S
C470 C471 1.415 . S
C471 H441 0.950 . S
C471 C466 1.363 . S
C471 C470 1.415 . S
H472 C469 0.999 . S
H473 C454 0.913 . S
H474 C492 0.951 . S
H475 C494 0.951 . S
H476 C496 0.950 . S
H477 C497 0.950 . S
H478 C499 0.950 . S
H479 C502 0.950 . S
H480 C503 0.950 . S
H481 C505 0.950 . S
H482 C506 0.950 . S
H483 C507 0.951 . S
H484 C509 0.951 . S
H485 C511 0.950 . S
H486 C512 0.950 . S
H487 C514 0.950 . S
H488 C517 0.950 . S
H489 C518 0.950 . S
H490 C520 0.950 . S
H491 C521 0.950 . S
C492 H474 0.951 . S
C492 C493 1.366 . S
C492 C494 1.388 . S
C493 C492 1.366 . S
C493 C497 1.385 . S
C494 H475 0.951 . S
C494 C492 1.388 . S
C494 C495 1.366 . S
C495 C494 1.366 . S
C495 C496 1.414 . S
C495 C498 1.499 . S
C496 H476 0.950 . S
C496 C495 1.414 . S
C496 C497 1.374 . S
C497 H477 0.950 . S
C497 C493 1.385 . S
C497 C496 1.374 . S
C498 C495 1.499 . S
C498 C499 1.373 1_565 S
C498 C500 1.389 . S
C499 H478 0.950 . S
C499 C498 1.373 1_545 S
C499 C515 1.377 . S
C500 C498 1.389 . S
C500 C501 1.524 . S
C500 C514 1.377 . S
C501 C500 1.524 . S
C501 C502 1.397 . S
C501 C506 1.363 . S
C502 H479 0.950 . S
C502 C501 1.397 . S
C502 C503 1.334 . S
C503 H480 0.950 . S
C503 C502 1.334 . S
C503 C504 1.287 . S
C504 C503 1.287 . S
C504 C505 1.524 . S
C504 H523 0.913 . S
C505 H481 0.950 . S
C505 C504 1.524 . S
C505 C506 1.415 . S
C506 H482 0.950 . S
C506 C501 1.363 . S
C506 C505 1.415 . S
C507 H483 0.951 . S
C507 C508 1.366 . S
C507 C509 1.388 . S
C508 C507 1.366 . S
C508 C512 1.385 . S
C509 H484 0.951 . S
C509 C507 1.388 . S
C509 C510 1.366 . S
C510 C509 1.366 . S
C510 C511 1.414 . S
C510 C513 1.499 . S
C511 H485 0.950 . S
C511 C510 1.414 . S
C511 C512 1.374 . S
C512 H486 0.950 . S
C512 C508 1.385 . S
C512 C511 1.374 . S
C513 C510 1.499 . S
C513 C514 1.373 . S
C513 C515 1.389 1_565 S
C514 H487 0.950 . S
C514 C500 1.377 . S
C514 C513 1.373 . S
C515 C499 1.377 . S
C515 C513 1.389 1_545 S
C515 C516 1.524 . S
C516 C515 1.524 . S
C516 C517 1.397 . S
C516 C521 1.363 . S
C517 H488 0.950 . S
C517 C516 1.397 . S
C517 C518 1.334 . S
C518 H489 0.950 . S
C518 C517 1.334 . S
C518 C519 1.287 . S
C519 C518 1.287 . S
C519 C520 1.524 . S
C519 H522 0.999 . S
C520 H490 0.950 . S
C520 C519 1.524 . S
C520 C521 1.415 . S
C521 H491 0.950 . S
C521 C516 1.363 . S
C521 C520 1.415 . S
H522 C519 0.999 . S
H523 C504 0.913 . S
H524 C542 0.951 . S
H525 C544 0.951 . S
H526 C546 0.950 . S
H527 C547 0.950 . S
H528 C549 0.950 . S
H529 C552 0.950 . S
H530 C553 0.950 . S
H531 C555 0.950 . S
H532 C556 0.950 . S
H533 C557 0.951 . S
H534 C559 0.951 . S
H535 C561 0.950 . S
H536 C562 0.950 . S
H537 C564 0.950 . S
H538 C567 0.950 . S
H539 C568 0.950 . S
H540 C570 0.950 . S
H541 C571 0.950 . S
C542 H524 0.951 . S
C542 C543 1.366 . S
C542 C544 1.388 . S
C543 C542 1.366 . S
C543 C547 1.385 . S
C544 H525 0.951 . S
C544 C542 1.388 . S
C544 C545 1.366 . S
C545 C544 1.366 . S
C545 C546 1.414 . S
C545 C548 1.499 . S
C546 H526 0.950 . S
C546 C545 1.414 . S
C546 C547 1.374 . S
C547 H527 0.950 . S
C547 C543 1.385 . S
C547 C546 1.374 . S
C548 C545 1.499 . S
C548 C549 1.373 1_556 S
C548 C550 1.389 . S
C549 H528 0.950 . S
C549 C548 1.373 1_554 S
C549 C565 1.377 . S
C550 C548 1.389 . S
C550 C551 1.524 . S
C550 C564 1.377 . S
C551 C550 1.524 . S
C551 C552 1.397 . S
C551 C556 1.363 . S
C552 H529 0.950 . S
C552 C551 1.397 . S
C552 C553 1.334 . S
C553 H530 0.950 . S
C553 C552 1.334 . S
C553 C554 1.287 . S
C554 C553 1.287 . S
C554 C555 1.524 . S
C554 H573 0.913 . S
C555 H531 0.950 . S
C555 C554 1.524 . S
C555 C556 1.415 . S
C556 H532 0.950 . S
C556 C551 1.363 . S
C556 C555 1.415 . S
C557 H533 0.951 . S
C557 C558 1.366 . S
C557 C559 1.388 . S
C558 C557 1.366 . S
C558 C562 1.385 . S
C559 H534 0.951 . S
C559 C557 1.388 . S
C559 C560 1.366 . S
C560 C559 1.366 . S
C560 C561 1.414 . S
C560 C563 1.499 . S
C561 H535 0.950 . S
C561 C560 1.414 . S
C561 C562 1.374 . S
C562 H536 0.950 . S
C562 C558 1.385 . S
C562 C561 1.374 . S
C563 C560 1.499 . S
C563 C564 1.373 1_554 S
C563 C565 1.389 . S
C564 H537 0.950 . S
C564 C550 1.377 . S
C564 C563 1.373 1_556 S
C565 C549 1.377 . S
C565 C563 1.389 . S
C565 C566 1.524 . S
C566 C565 1.524 . S
C566 C567 1.397 . S
C566 C571 1.363 . S
C567 H538 0.950 . S
C567 C566 1.397 . S
C567 C568 1.334 . S
C568 H539 0.950 . S
C568 C567 1.334 . S
C568 C569 1.287 . S
C569 C568 1.287 . S
C569 C570 1.524 . S
C569 H572 0.999 . S
C570 H540 0.950 . S
C570 C569 1.524 . S
C570 C571 1.415 . S
C571 H541 0.950 . S
C571 C566 1.363 . S
C571 C570 1.415 . S
H572 C569 0.999 . S
H573 C554 0.913 . S
H574 C592 0.951 . S
H575 C594 0.951 . S
H576 C596 0.950 . S
H577 C597 0.950 . S
H578 C599 0.950 . S
H579 C602 0.950 . S
H580 C603 0.950 . S
H581 C605 0.950 . S
H582 C606 0.950 . S
H583 C607 0.951 . S
H584 C609 0.951 . S
H585 C611 0.950 . S
H586 C612 0.950 . S
H587 C614 0.950 . S
H588 C617 0.950 . S
H589 C618 0.950 . S
H590 C620 0.950 . S
H591 C621 0.950 . S
C592 H574 0.951 . S
C592 C593 1.366 . S
C592 C594 1.388 . S
C593 C592 1.366 . S
C593 C597 1.385 . S
C594 H575 0.951 . S
C594 C592 1.388 . S
C594 C595 1.366 . S
C595 C594 1.366 . S
C595 C596 1.414 . S
C595 C598 1.499 . S
C596 H576 0.950 . S
C596 C595 1.414 . S
C596 C597 1.374 . S
C597 H577 0.950 . S
C597 C593 1.385 . S
C597 C596 1.374 . S
C598 C595 1.499 . S
C598 C599 1.373 . S
C598 C600 1.389 . S
C599 H578 0.950 . S
C599 C598 1.373 . S
C599 C615 1.377 . S
C600 C598 1.389 . S
C600 C601 1.524 . S
C600 C614 1.377 . S
C601 C600 1.524 . S
C601 C602 1.397 . S
C601 C606 1.363 . S
C602 H579 0.950 . S
C602 C601 1.397 . S
C602 C603 1.334 . S
C603 H580 0.950 . S
C603 C602 1.334 . S
C603 C604 1.287 . S
C604 C603 1.287 . S
C604 C605 1.524 . S
C604 H623 0.913 . S
C605 H581 0.950 . S
C605 C604 1.524 . S
C605 C606 1.415 . S
C606 H582 0.950 . S
C606 C601 1.363 . S
C606 C605 1.415 . S
C607 H583 0.951 . S
C607 C608 1.366 . S
C607 C609 1.388 . S
C608 C607 1.366 . S
C608 C612 1.385 . S
C609 H584 0.951 . S
C609 C607 1.388 . S
C609 C610 1.366 . S
C610 C609 1.366 . S
C610 C611 1.414 . S
C610 C613 1.499 . S
C611 H585 0.950 . S
C611 C610 1.414 . S
C611 C612 1.374 . S
C612 H586 0.950 . S
C612 C608 1.385 . S
C612 C611 1.374 . S
C613 C610 1.499 . S
C613 C614 1.373 . S
C613 C615 1.389 . S
C614 H587 0.950 . S
C614 C600 1.377 . S
C614 C613 1.373 . S
C615 C599 1.377 . S
C615 C613 1.389 . S
C615 C616 1.524 . S
C616 C615 1.524 . S
C616 C617 1.397 . S
C616 C621 1.363 . S
C617 H588 0.950 . S
C617 C616 1.397 . S
C617 C618 1.334 . S
C618 H589 0.950 . S
C618 C617 1.334 . S
C618 C619 1.287 . S
C619 C618 1.287 . S
C619 C620 1.524 . S
C619 H622 0.999 . S
C620 H590 0.950 . S
C620 C619 1.524 . S
C620 C621 1.415 . S
C621 H591 0.950 . S
C621 C616 1.363 . S
C621 C620 1.415 . S
H622 C619 0.999 . S
H623 C604 0.913 . S
H624 C642 0.951 . S
H625 C644 0.951 . S
H626 C646 0.950 . S
H627 C647 0.950 . S
H628 C649 0.950 . S
H629 C652 0.950 . S
H630 C653 0.950 . S
H631 C655 0.950 . S
H632 C656 0.950 . S
H633 C657 0.951 . S
H634 C659 0.951 . S
H635 C661 0.950 . S
H636 C662 0.950 . S
H637 C664 0.950 . S
H638 C667 0.950 . S
H639 C668 0.950 . S
H640 C670 0.950 . S
H641 C671 0.950 . S
C642 H624 0.951 . S
C642 C643 1.366 1_556 S
C642 C644 1.388 . S
C643 C642 1.366 1_554 S
C643 C647 1.385 . S
C644 H625 0.951 . S
C644 C642 1.388 . S
C644 C645 1.366 . S
C645 C644 1.366 . S
C645 C646 1.414 . S
C645 C648 1.499 . S
C646 H626 0.950 . S
C646 C645 1.414 . S
C646 C647 1.374 1_556 S
C647 H627 0.950 . S
C647 C643 1.385 . S
C647 C646 1.374 1_554 S
C648 C645 1.499 . S
C648 C649 1.373 . S
C648 C650 1.389 . S
C649 H628 0.950 . S
C649 C648 1.373 . S
C649 C665 1.377 . S
C650 C648 1.389 . S
C650 C651 1.524 . S
C650 C664 1.377 . S
C651 C650 1.524 . S
C651 C652 1.397 . S
C651 C656 1.363 . S
C652 H629 0.950 . S
C652 C651 1.397 . S
C652 C653 1.334 . S
C653 H630 0.950 . S
C653 C652 1.334 . S
C653 C654 1.287 . S
C654 C653 1.287 . S
C654 C655 1.524 . S
C654 H673 0.913 1_455 S
C655 H631 0.950 . S
C655 C654 1.524 . S
C655 C656 1.415 . S
C656 H632 0.950 . S
C656 C651 1.363 . S
C656 C655 1.415 . S
C657 H633 0.951 . S
C657 C658 1.366 . S
C657 C659 1.388 . S
C658 C657 1.366 . S
C658 C662 1.385 . S
C659 H634 0.951 . S
C659 C657 1.388 . S
C659 C660 1.366 . S
C660 C659 1.366 . S
C660 C661 1.414 . S
C660 C663 1.499 . S
C661 H635 0.950 . S
C661 C660 1.414 . S
C661 C662 1.374 . S
C662 H636 0.950 . S
C662 C658 1.385 . S
C662 C661 1.374 . S
C663 C660 1.499 . S
C663 C664 1.373 . S
C663 C665 1.389 . S
C664 H637 0.950 . S
C664 C650 1.377 . S
C664 C663 1.373 . S
C665 C649 1.377 . S
C665 C663 1.389 . S
C665 C666 1.524 . S
C666 C665 1.524 . S
C666 C667 1.397 . S
C666 C671 1.363 . S
C667 H638 0.950 . S
C667 C666 1.397 . S
C667 C668 1.334 . S
C668 H639 0.950 . S
C668 C667 1.334 . S
C668 C669 1.287 . S
C669 C668 1.287 . S
C669 C670 1.524 . S
C669 H672 0.999 . S
C670 H640 0.950 . S
C670 C669 1.524 . S
C670 C671 1.415 . S
C671 H641 0.950 . S
C671 C666 1.363 . S
C671 C670 1.415 . S
H672 C669 0.999 . S
H673 C654 0.913 1_655 S
H674 C692 0.951 . S
H675 C694 0.951 . S
H676 C696 0.950 . S
H677 C697 0.950 . S
H678 C699 0.950 . S
H679 C702 0.950 . S
H680 C703 0.950 . S
H681 C705 0.950 . S
H682 C706 0.950 . S
H683 C707 0.951 . S
H684 C709 0.951 . S
H685 C711 0.950 . S
H686 C712 0.950 . S
H687 C714 0.950 . S
H688 C717 0.950 . S
H689 C718 0.950 . S
H690 C720 0.950 . S
H691 C721 0.950 . S
C692 H674 0.951 . S
C692 C693 1.366 . S
C692 C694 1.388 . S
C693 C692 1.366 . S
C693 C697 1.385 . S
C694 H675 0.951 . S
C694 C692 1.388 . S
C694 C695 1.366 . S
C695 C694 1.366 . S
C695 C696 1.414 . S
C695 C698 1.499 . S
C696 H676 0.950 . S
C696 C695 1.414 . S
C696 C697 1.374 . S
C697 H677 0.950 . S
C697 C693 1.385 . S
C697 C696 1.374 . S
C698 C695 1.499 . S
C698 C699 1.373 . S
C698 C700 1.389 . S
C699 H678 0.950 . S
C699 C698 1.373 . S
C699 C715 1.377 . S
C700 C698 1.389 . S
C700 C701 1.524 . S
C700 C714 1.377 . S
C701 C700 1.524 . S
C701 C702 1.397 . S
C701 C706 1.363 . S
C702 H679 0.950 . S
C702 C701 1.397 . S
C702 C703 1.334 . S
C703 H680 0.950 . S
C703 C702 1.334 . S
C703 C704 1.287 . S
C704 C703 1.287 . S
C704 C705 1.524 . S
C704 H723 0.913 . S
C705 H681 0.950 . S
C705 C704 1.524 . S
C705 C706 1.415 . S
C706 H682 0.950 . S
C706 C701 1.363 . S
C706 C705 1.415 . S
C707 H683 0.951 . S
C707 C708 1.366 . S
C707 C709 1.388 . S
C708 C707 1.366 . S
C708 C712 1.385 . S
C709 H684 0.951 . S
C709 C707 1.388 . S
C709 C710 1.366 . S
C710 C709 1.366 . S
C710 C711 1.414 . S
C710 C713 1.499 . S
C711 H685 0.950 . S
C711 C710 1.414 . S
C711 C712 1.374 . S
C712 H686 0.950 . S
C712 C708 1.385 . S
C712 C711 1.374 . S
C713 C710 1.499 . S
C713 C714 1.373 . S
C713 C715 1.389 . S
C714 H687 0.950 . S
C714 C700 1.377 . S
C714 C713 1.373 . S
C715 C699 1.377 . S
C715 C713 1.389 . S
C715 C716 1.524 . S
C716 C715 1.524 . S
C716 C717 1.397 . S
C716 C721 1.363 . S
C717 H688 0.950 . S
C717 C716 1.397 . S
C717 C718 1.334 . S
C718 H689 0.950 . S
C718 C717 1.334 . S
C718 C719 1.287 . S
C719 C718 1.287 . S
C719 C720 1.524 . S
C719 H722 0.999 . S
C720 H690 0.950 . S
C720 C719 1.524 . S
C720 C721 1.415 . S
C721 H691 0.950 . S
C721 C716 1.363 . S
C721 C720 1.415 . S
H722 C719 0.999 . S
H723 C704 0.913 . S
H724 C742 0.951 . S
H725 C744 0.951 . S
H726 C746 0.950 . S
H727 C747 0.950 . S
H728 C749 0.950 . S
H729 C752 0.950 . S
H730 C753 0.947 1_554 S
H731 C755 0.950 . S
H732 C756 0.950 . S
H733 C757 0.951 . S
H734 C759 0.951 . S
H735 C761 0.950 . S
H736 C762 0.950 . S
H737 C764 0.950 . S
H738 C767 0.950 . S
H739 C768 0.950 . S
H740 C770 0.950 . S
H741 C771 0.950 . S
C742 H724 0.951 . S
C742 C743 1.366 . S
C742 C744 1.388 1_554 S
C743 C742 1.366 . S
C743 C747 1.385 1_554 S
C744 H725 0.951 . S
C744 C742 1.388 1_556 S
C744 C745 1.366 . S
C745 C744 1.366 . S
C745 C746 1.414 . S
C745 C748 1.499 . S
C746 H726 0.950 . S
C746 C745 1.414 . S
C746 C747 1.374 . S
C747 H727 0.950 . S
C747 C743 1.385 1_556 S
C747 C746 1.374 . S
C748 C745 1.499 . S
C748 C749 1.373 . S
C748 C750 1.389 . S
C749 H728 0.950 . S
C749 C748 1.373 . S
C749 C765 1.377 . S
C750 C748 1.389 . S
C750 C751 1.524 . S
C750 C764 1.377 . S
C751 C750 1.524 . S
C751 C752 1.397 . S
C751 C756 1.363 . S
C752 H729 0.950 . S
C752 C751 1.397 . S
C752 C753 1.343 . S
C753 H730 0.947 1_556 S
C753 C752 1.343 . S
C753 C754 1.281 1_556 S
C754 C753 1.281 1_554 S
C754 C755 1.524 . S
C754 H773 0.913 . S
C755 H731 0.950 . S
C755 C754 1.524 . S
C755 C756 1.415 1_554 S
C756 H732 0.950 . S
C756 C751 1.363 . S
C756 C755 1.415 1_556 S
C757 H733 0.951 . S
C757 C758 1.366 . S
C757 C759 1.388 . S
C758 C757 1.366 . S
C758 C762 1.385 . S
C759 H734 0.951 . S
C759 C757 1.388 . S
C759 C760 1.366 . S
C760 C759 1.366 . S
C760 C761 1.414 . S
C760 C763 1.499 . S
C761 H735 0.950 . S
C761 C760 1.414 . S
C761 C762 1.374 . S
C762 H736 0.950 . S
C762 C758 1.385 . S
C762 C761 1.374 . S
C763 C760 1.499 . S
C763 C764 1.373 . S
C763 C765 1.389 . S
C764 H737 0.950 . S
C764 C750 1.377 . S
C764 C763 1.373 . S
C765 C749 1.377 . S
C765 C763 1.389 . S
C765 C766 1.524 . S
C766 C765 1.524 . S
C766 C767 1.397 . S
C766 C771 1.363 . S
C767 H738 0.950 . S
C767 C766 1.397 . S
C767 C768 1.334 . S
C768 H739 0.950 . S
C768 C767 1.334 . S
C768 C769 1.287 . S
C769 C768 1.287 . S
C769 C770 1.524 . S
C769 H772 0.999 . S
C770 H740 0.950 . S
C770 C769 1.524 . S
C770 C771 1.415 . S
C771 H741 0.950 . S
C771 C766 1.363 . S
C771 C770 1.415 . S
H772 C769 0.999 . S
H773 C754 0.913 . S
H774 C792 0.951 . S
H775 C794 0.951 . S
H776 C796 0.950 . S
H777 C797 0.950 . S
H778 C799 0.950 . S
H779 C802 0.950 . S
H780 C803 0.950 . S
H781 C805 0.950 . S
H782 C806 0.950 . S
H783 C807 0.951 . S
H784 C809 0.951 . S
H785 C811 0.950 . S
H786 C812 0.950 . S
H787 C814 0.950 . S
H788 C817 0.950 . S
H789 C818 0.950 . S
H790 C820 0.950 . S
H791 C821 0.950 . S
C792 H774 0.951 . S
C792 C793 1.366 . S
C792 C794 1.388 . S
C793 C792 1.366 . S
C793 C797 1.385 . S
C794 H775 0.951 . S
C794 C792 1.388 . S
C794 C795 1.366 . S
C795 C794 1.366 . S
C795 C796 1.414 . S
C795 C798 1.499 . S
C796 H776 0.950 . S
C796 C795 1.414 . S
C796 C797 1.374 . S
C797 H777 0.950 . S
C797 C793 1.385 . S
C797 C796 1.374 . S
C798 C795 1.499 . S
C798 C799 1.373 . S
C798 C800 1.389 . S
C799 H778 0.950 . S
C799 C798 1.373 . S
C799 C815 1.377 . S
C800 C798 1.389 . S
C800 C801 1.524 . S
C800 C814 1.377 . S
C801 C800 1.524 . S
C801 C802 1.397 . S
C801 C806 1.363 . S
C802 H779 0.950 . S
C802 C801 1.397 . S
C802 C803 1.334 . S
C803 H780 0.950 . S
C803 C802 1.334 . S
C803 C804 1.287 . S
C804 C803 1.287 . S
C804 C805 1.524 . S
C804 H823 0.913 . S
C805 H781 0.950 . S
C805 C804 1.524 . S
C805 C806 1.415 . S
C806 H782 0.950 . S
C806 C801 1.363 . S
C806 C805 1.415 . S
C807 H783 0.951 . S
C807 C808 1.366 . S
C807 C809 1.388 . S
C808 C807 1.366 . S
C808 C812 1.385 . S
C809 H784 0.951 . S
C809 C807 1.388 . S
C809 C810 1.366 . S
C810 C809 1.366 . S
C810 C811 1.414 . S
C810 C813 1.499 . S
C811 H785 0.950 . S
C811 C810 1.414 . S
C811 C812 1.374 . S
C812 H786 0.950 . S
C812 C808 1.385 . S
C812 C811 1.374 . S
C813 C810 1.499 . S
C813 C814 1.373 . S
C813 C815 1.389 . S
C814 H787 0.950 . S
C814 C800 1.377 . S
C814 C813 1.373 . S
C815 C799 1.377 . S
C815 C813 1.389 . S
C815 C816 1.524 . S
C816 C815 1.524 . S
C816 C817 1.397 . S
C816 C821 1.363 . S
C817 H788 0.950 . S
C817 C816 1.397 . S
C817 C818 1.334 . S
C818 H789 0.950 . S
C818 C817 1.334 . S
C818 C819 1.287 . S
C819 C818 1.287 . S
C819 C820 1.524 . S
C819 H822 0.999 . S
C820 H790 0.950 . S
C820 C819 1.524 . S
C820 C821 1.415 . S
C821 H791 0.950 . S
C821 C816 1.363 . S
C821 C820 1.415 . S
H822 C819 0.999 . S
H823 C804 0.913 . S
H824 C842 0.951 . S
H825 C844 0.951 . S
H826 C846 0.950 . S
H827 C847 0.950 . S
H828 C849 0.950 . S
H829 C852 0.950 . S
H830 C853 0.950 . S
H831 C855 0.950 . S
H832 C856 0.950 . S
H833 C857 0.951 . S
H834 C859 0.951 . S
H835 C861 0.950 . S
H836 C862 0.950 . S
H837 C864 0.950 . S
H838 C867 0.950 . S
H839 C868 0.950 . S
H840 C870 0.950 . S
H841 C871 0.950 . S
C842 H824 0.951 . S
C842 C843 1.366 . S
C842 C844 1.388 . S
C843 C842 1.366 . S
C843 C847 1.385 . S
C844 H825 0.951 . S
C844 C842 1.388 . S
C844 C845 1.366 . S
C845 C844 1.366 . S
C845 C846 1.414 . S
C845 C848 1.499 . S
C846 H826 0.950 . S
C846 C845 1.414 . S
C846 C847 1.374 . S
C847 H827 0.950 . S
C847 C843 1.385 . S
C847 C846 1.374 . S
C848 C845 1.499 . S
C848 C849 1.373 . S
C848 C850 1.389 . S
C849 H828 0.950 . S
C849 C848 1.373 . S
C849 C865 1.377 . S
C850 C848 1.389 . S
C850 C851 1.524 . S
C850 C864 1.377 . S
C851 C850 1.524 . S
C851 C852 1.397 . S
C851 C856 1.363 . S
C852 H829 0.950 . S
C852 C851 1.397 . S
C852 C853 1.334 . S
C853 H830 0.950 . S
C853 C852 1.334 . S
C853 C854 1.287 . S
C854 C853 1.287 . S
C854 C855 1.524 . S
C854 H873 0.913 1_565 S
C855 H831 0.950 . S
C855 C854 1.524 . S
C855 C856 1.415 . S
C856 H832 0.950 . S
C856 C851 1.363 . S
C856 C855 1.415 . S
C857 H833 0.951 . S
C857 C858 1.366 1_554 S
C857 C859 1.388 . S
C858 C857 1.366 1_556 S
C858 C862 1.385 . S
C859 H834 0.951 . S
C859 C857 1.388 . S
C859 C860 1.366 . S
C860 C859 1.366 . S
C860 C861 1.414 . S
C860 C863 1.499 . S
C861 H835 0.950 . S
C861 C860 1.414 . S
C861 C862 1.374 1_554 S
C862 H836 0.950 . S
C862 C858 1.385 . S
C862 C861 1.374 1_556 S
C863 C860 1.499 . S
C863 C864 1.373 . S
C863 C865 1.389 . S
C864 H837 0.950 . S
C864 C850 1.377 . S
C864 C863 1.373 . S
C865 C849 1.377 . S
C865 C863 1.389 . S
C865 C866 1.524 . S
C866 C865 1.524 . S
C866 C867 1.397 . S
C866 C871 1.363 . S
C867 H838 0.950 . S
C867 C866 1.397 . S
C867 C868 1.334 . S
C868 H839 0.950 . S
C868 C867 1.334 . S
C868 C869 1.287 . S
C869 C868 1.287 . S
C869 C870 1.524 . S
C869 H872 0.999 . S
C870 H840 0.950 . S
C870 C869 1.524 . S
C870 C871 1.415 . S
C871 H841 0.950 . S
C871 C866 1.363 . S
C871 C870 1.415 . S
H872 C869 0.999 . S
H873 C854 0.913 1_545 S
H874 C892 0.951 . S
H875 C894 0.951 . S
H876 C896 0.950 . S
H877 C897 0.950 . S
H878 C899 0.950 . S
H879 C902 0.950 . S
H880 C903 0.950 . S
H881 C905 0.950 . S
H882 C906 0.950 . S
H883 C907 0.951 . S
H884 C909 0.951 . S
H885 C911 0.950 . S
H886 C912 0.950 . S
H887 C914 0.950 . S
H888 C917 0.950 . S
H889 C918 0.950 . S
H890 C920 0.950 . S
H891 C921 0.950 . S
C892 H874 0.951 . S
C892 C893 1.366 . S
C892 C894 1.388 . S
C893 C892 1.366 . S
C893 C897 1.385 . S
C894 H875 0.951 . S
C894 C892 1.388 . S
C894 C895 1.366 . S
C895 C894 1.366 . S
C895 C896 1.414 . S
C895 C898 1.499 . S
C896 H876 0.950 . S
C896 C895 1.414 . S
C896 C897 1.374 . S
C897 H877 0.950 . S
C897 C893 1.385 . S
C897 C896 1.374 . S
C898 C895 1.499 . S
C898 C899 1.373 . S
C898 C900 1.389 . S
C899 H878 0.950 . S
C899 C898 1.373 . S
C899 C915 1.377 . S
C900 C898 1.389 . S
C900 C901 1.524 . S
C900 C914 1.377 . S
C901 C900 1.524 . S
C901 C902 1.397 . S
C901 C906 1.363 . S
C902 H879 0.950 . S
C902 C901 1.397 . S
C902 C903 1.334 . S
C903 H880 0.950 . S
C903 C902 1.334 . S
C903 C904 1.287 . S
C904 C903 1.287 . S
C904 C905 1.524 . S
C904 H923 0.913 . S
C905 H881 0.950 . S
C905 C904 1.524 . S
C905 C906 1.415 . S
C906 H882 0.950 . S
C906 C901 1.363 . S
C906 C905 1.415 . S
C907 H883 0.951 . S
C907 C908 1.366 . S
C907 C909 1.388 . S
C908 C907 1.366 . S
C908 C912 1.385 . S
C909 H884 0.951 . S
C909 C907 1.388 . S
C909 C910 1.366 . S
C910 C909 1.366 . S
C910 C911 1.414 . S
C910 C913 1.499 . S
C911 H885 0.950 . S
C911 C910 1.414 . S
C911 C912 1.374 . S
C912 H886 0.950 . S
C912 C908 1.385 . S
C912 C911 1.374 . S
C913 C910 1.499 . S
C913 C914 1.373 . S
C913 C915 1.389 . S
C914 H887 0.950 . S
C914 C900 1.377 . S
C914 C913 1.373 . S
C915 C899 1.377 . S
C915 C913 1.389 . S
C915 C916 1.524 . S
C916 C915 1.524 . S
C916 C917 1.397 . S
C916 C921 1.363 . S
C917 H888 0.950 . S
C917 C916 1.397 . S
C917 C918 1.334 . S
C918 H889 0.950 . S
C918 C917 1.334 . S
C918 C919 1.287 . S
C919 C918 1.287 . S
C919 C920 1.524 . S
C919 H922 0.999 1_545 S
C920 H890 0.950 . S
C920 C919 1.524 . S
C920 C921 1.415 . S
C921 H891 0.950 . S
C921 C916 1.363 . S
C921 C920 1.415 . S
H922 C919 0.999 1_565 S
H923 C904 0.913 . S
H924 C942 0.951 . S
H925 C944 0.951 . S
H926 C946 0.950 . S
H927 C947 0.950 . S
H928 C949 0.950 . S
H929 C952 0.950 . S
H930 C953 0.950 . S
H931 C955 0.950 . S
H932 C956 0.950 . S
H933 C957 0.951 . S
H934 C959 0.951 . S
H935 C961 0.950 . S
H936 C962 0.950 . S
H937 C964 0.950 . S
H938 C967 0.950 . S
H939 C968 0.950 . S
H940 C970 0.950 . S
H941 C971 0.950 . S
C942 H924 0.951 . S
C942 C943 1.366 . S
C942 C944 1.388 . S
C943 C942 1.366 . S
C943 C947 1.385 . S
C944 H925 0.951 . S
C944 C942 1.388 . S
C944 C945 1.366 . S
C945 C944 1.366 . S
C945 C946 1.414 . S
C945 C948 1.499 . S
C946 H926 0.950 . S
C946 C945 1.414 . S
C946 C947 1.374 . S
C947 H927 0.950 . S
C947 C943 1.385 . S
C947 C946 1.374 . S
C948 C945 1.499 . S
C948 C949 1.373 . S
C948 C950 1.389 . S
C949 H928 0.950 . S
C949 C948 1.373 . S
C949 C965 1.377 . S
C950 C948 1.389 . S
C950 C951 1.524 . S
C950 C964 1.377 . S
C951 C950 1.524 . S
C951 C952 1.397 . S
C951 C956 1.363 . S
C952 H929 0.950 . S
C952 C951 1.397 . S
C952 C953 1.334 . S
C953 H930 0.950 . S
C953 C952 1.334 . S
C953 C954 1.287 . S
C954 C953 1.287 . S
C954 C955 1.524 . S
C954 H973 0.913 . S
C955 H931 0.950 . S
C955 C954 1.524 . S
C955 C956 1.415 . S
C956 H932 0.950 . S
C956 C951 1.363 . S
C956 C955 1.415 . S
C957 H933 0.951 . S
C957 C958 1.366 1_554 S
C957 C959 1.388 . S
C958 C957 1.366 1_556 S
C958 C962 1.385 . S
C959 H934 0.951 . S
C959 C957 1.388 . S
C959 C960 1.366 . S
C960 C959 1.366 . S
C960 C961 1.414 . S
C960 C963 1.499 . S
C961 H935 0.950 . S
C961 C960 1.414 . S
C961 C962 1.374 1_554 S
C962 H936 0.950 . S
C962 C958 1.385 . S
C962 C961 1.374 1_556 S
C963 C960 1.499 . S
C963 C964 1.373 . S
C963 C965 1.389 . S
C964 H937 0.950 . S
C964 C950 1.377 . S
C964 C963 1.373 . S
C965 C949 1.377 . S
C965 C963 1.389 . S
C965 C966 1.524 . S
C966 C965 1.524 . S
C966 C967 1.397 . S
C966 C971 1.363 . S
C967 H938 0.950 . S
C967 C966 1.397 . S
C967 C968 1.334 . S
C968 H939 0.950 . S
C968 C967 1.334 . S
C968 C969 1.287 . S
C969 C968 1.287 . S
C969 C970 1.524 . S
C969 H972 0.999 . S
C970 H940 0.950 . S
C970 C969 1.524 . S
C970 C971 1.415 . S
C971 H941 0.950 . S
C971 C966 1.363 . S
C971 C970 1.415 . S
H972 C969 0.999 . S
H973 C954 0.913 . S
H974 C992 0.951 . S
H975 C994 0.951 . S
H976 C996 0.950 . S
H977 C997 0.950 . S
H978 C999 0.950 . S
H979 C1002 0.950 . S
H980 C1003 0.950 . S
H981 C1005 0.950 . S
H982 C1006 0.950 . S
H983 C1007 0.951 . S
H984 C1009 0.951 . S
H985 C1011 0.950 . S
H986 C1012 0.950 . S
H987 C1014 0.950 . S
H988 C1017 0.950 . S
H989 C1018 0.950 . S
H990 C1020 0.950 . S
H991 C1021 0.950 . S
C992 H974 0.951 . S
C992 C993 1.366 . S
C992 C994 1.388 . S
C993 C992 1.366 . S
C993 C997 1.385 . S
C994 H975 0.951 . S
C994 C992 1.388 . S
C994 C995 1.366 . S
C995 C994 1.366 . S
C995 C996 1.414 . S
C995 C998 1.499 . S
C996 H976 0.950 . S
C996 C995 1.414 . S
C996 C997 1.374 . S
C997 H977 0.950 . S
C997 C993 1.385 . S
C997 C996 1.374 . S
C998 C995 1.499 . S
C998 C999 1.373 . S
C998 C1000 1.389 . S
C999 H978 0.950 . S
C999 C998 1.373 . S
C999 C1015 1.377 . S
C1000 C998 1.389 . S
C1000 C1001 1.524 . S
C1000 C1014 1.377 . S
C1001 C1000 1.524 . S
C1001 C1002 1.397 . S
C1001 C1006 1.363 . S
C1002 H979 0.950 . S
C1002 C1001 1.397 . S
C1002 C1003 1.334 . S
C1003 H980 0.950 . S
C1003 C1002 1.334 . S
C1003 C1004 1.287 . S
C1004 C1003 1.287 . S
C1004 C1005 1.524 . S
C1004 H1023 0.913 . S
C1005 H981 0.950 . S
C1005 C1004 1.524 . S
C1005 C1006 1.415 . S
C1006 H982 0.950 . S
C1006 C1001 1.363 . S
C1006 C1005 1.415 . S
C1007 H983 0.951 . S
C1007 C1008 1.366 . S
C1007 C1009 1.388 . S
C1008 C1007 1.366 . S
C1008 C1012 1.385 . S
C1009 H984 0.951 . S
C1009 C1007 1.388 . S
C1009 C1010 1.366 . S
C1010 C1009 1.366 . S
C1010 C1011 1.414 . S
C1010 C1013 1.499 . S
C1011 H985 0.950 . S
C1011 C1010 1.414 . S
C1011 C1012 1.374 . S
C1012 H986 0.950 . S
C1012 C1008 1.385 . S
C1012 C1011 1.374 . S
C1013 C1010 1.499 . S
C1013 C1014 1.373 . S
C1013 C1015 1.389 . S
C1014 H987 0.950 . S
C1014 C1000 1.377 . S
C1014 C1013 1.373 . S
C1015 C999 1.377 . S
C1015 C1013 1.389 . S
C1015 C1016 1.524 . S
C1016 C1015 1.524 . S
C1016 C1017 1.397 . S
C1016 C1021 1.363 . S
C1017 H988 0.950 . S
C1017 C1016 1.397 . S
C1017 C1018 1.334 . S
C1018 H989 0.950 . S
C1018 C1017 1.334 . S
C1018 C1019 1.287 . S
C1019 C1018 1.287 . S
C1019 C1020 1.524 . S
C1019 H1022 0.999 . S
C1020 H990 0.950 . S
C1020 C1019 1.524 . S
C1020 C1021 1.415 . S
C1021 H991 0.950 . S
C1021 C1016 1.363 . S
C1021 C1020 1.415 . S
H1022 C1019 0.999 . S
H1023 C1004 0.913 . S
H1024 C1042 0.951 . S
H1025 C1044 0.951 . S
H1026 C1046 0.950 . S
H1027 C1047 0.950 . S
H1028 C1049 0.950 . S
H1029 C1052 0.950 . S
H1030 C1053 0.950 . S
H1031 C1055 0.950 . S
H1032 C1056 0.950 . S
H1033 C1057 0.951 . S
H1034 C1059 0.951 . S
H1035 C1061 0.950 . S
H1036 C1062 0.950 . S
H1037 C1064 0.950 . S
H1038 C1067 0.950 . S
H1039 C1068 0.950 . S
H1040 C1070 0.950 . S
H1041 C1071 0.950 . S
C1042 H1024 0.951 . S
C1042 C1043 1.366 . S
C1042 C1044 1.388 1_556 S
C1043 C1042 1.366 . S
C1043 C1047 1.385 1_556 S
C1044 H1025 0.951 . S
C1044 C1042 1.388 1_554 S
C1044 C1045 1.366 . S
C1045 C1044 1.366 . S
C1045 C1046 1.414 . S
C1045 C1048 1.499 . S
C1046 H1026 0.950 . S
C1046 C1045 1.414 . S
C1046 C1047 1.374 . S
C1047 H1027 0.950 . S
C1047 C1043 1.385 1_554 S
C1047 C1046 1.374 . S
C1048 C1045 1.499 . S
C1048 C1049 1.373 . S
C1048 C1050 1.389 . S
C1049 H1028 0.950 . S
C1049 C1048 1.373 . S
C1049 C1065 1.377 . S
C1050 C1048 1.389 . S
C1050 C1051 1.524 . S
C1050 C1064 1.377 . S
C1051 C1050 1.524 . S
C1051 C1052 1.397 . S
C1051 C1056 1.363 . S
C1052 H1029 0.950 . S
C1052 C1051 1.397 . S
C1052 C1053 1.334 . S
C1053 H1030 0.950 . S
C1053 C1052 1.334 . S
C1053 C1054 1.287 . S
C1054 C1053 1.287 . S
C1054 C1055 1.524 . S
C1054 H1073 0.913 . S
C1055 H1031 0.950 . S
C1055 C1054 1.524 . S
C1055 C1056 1.415 . S
C1056 H1032 0.950 . S
C1056 C1051 1.363 . S
C1056 C1055 1.415 . S
C1057 H1033 0.951 . S
C1057 C1058 1.366 . S
C1057 C1059 1.388 . S
C1058 C1057 1.366 . S
C1058 C1062 1.385 . S
C1059 H1034 0.951 . S
C1059 C1057 1.388 . S
C1059 C1060 1.366 . S
C1060 C1059 1.366 . S
C1060 C1061 1.414 . S
C1060 C1063 1.499 . S
C1061 H1035 0.950 . S
C1061 C1060 1.414 . S
C1061 C1062 1.374 . S
C1062 H1036 0.950 . S
C1062 C1058 1.385 . S
C1062 C1061 1.374 . S
C1063 C1060 1.499 . S
C1063 C1064 1.373 . S
C1063 C1065 1.389 . S
C1064 H1037 0.950 . S
C1064 C1050 1.377 . S
C1064 C1063 1.373 . S
C1065 C1049 1.377 . S
C1065 C1063 1.389 . S
C1065 C1066 1.524 . S
C1066 C1065 1.524 . S
C1066 C1067 1.397 . S
C1066 C1071 1.363 . S
C1067 H1038 0.950 . S
C1067 C1066 1.397 . S
C1067 C1068 1.334 . S
C1068 H1039 0.950 . S
C1068 C1067 1.334 . S
C1068 C1069 1.287 . S
C1069 C1068 1.287 . S
C1069 C1070 1.524 . S
C1069 H1072 0.999 . S
C1070 H1040 0.950 . S
C1070 C1069 1.524 . S
C1070 C1071 1.415 . S
C1071 H1041 0.950 . S
C1071 C1066 1.363 . S
C1071 C1070 1.415 . S
H1072 C1069 0.999 . S
H1073 C1054 0.913 . S
H1074 C1092 0.951 . S
H1075 C1094 0.951 . S
H1076 C1096 0.950 . S
H1077 C1097 0.950 . S
H1078 C1099 0.950 . S
H1079 C1102 0.950 . S
H1080 C1103 0.950 . S
H1081 C1105 0.950 . S
H1082 C1106 0.950 . S
H1083 C1107 0.951 . S
H1084 C1109 0.951 . S
H1085 C1111 0.950 . S
H1086 C1112 0.950 . S
H1087 C1114 0.950 . S
H1088 C1117 0.950 . S
H1089 C1118 0.950 . S
H1090 C1120 0.950 . S
H1091 C1121 0.950 . S
C1092 H1074 0.951 . S
C1092 C1093 1.366 . S
C1092 C1094 1.388 . S
C1093 C1092 1.366 . S
C1093 C1097 1.385 . S
C1094 H1075 0.951 . S
C1094 C1092 1.388 . S
C1094 C1095 1.366 . S
C1095 C1094 1.366 . S
C1095 C1096 1.414 . S
C1095 C1098 1.499 . S
C1096 H1076 0.950 . S
C1096 C1095 1.414 . S
C1096 C1097 1.374 . S
C1097 H1077 0.950 . S
C1097 C1093 1.385 . S
C1097 C1096 1.374 . S
C1098 C1095 1.499 . S
C1098 C1099 1.373 . S
C1098 C1100 1.389 . S
C1099 H1078 0.950 . S
C1099 C1098 1.373 . S
C1099 C1115 1.377 . S
C1100 C1098 1.389 . S
C1100 C1101 1.524 . S
C1100 C1114 1.377 . S
C1101 C1100 1.524 . S
C1101 C1102 1.397 . S
C1101 C1106 1.363 . S
C1102 H1079 0.950 . S
C1102 C1101 1.397 . S
C1102 C1103 1.334 . S
C1103 H1080 0.950 . S
C1103 C1102 1.334 . S
C1103 C1104 1.287 . S
C1104 C1103 1.287 . S
C1104 C1105 1.524 . S
C1104 H1123 0.913 . S
C1105 H1081 0.950 . S
C1105 C1104 1.524 . S
C1105 C1106 1.415 . S
C1106 H1082 0.950 . S
C1106 C1101 1.363 . S
C1106 C1105 1.415 . S
C1107 H1083 0.951 . S
C1107 C1108 1.366 . S
C1107 C1109 1.388 . S
C1108 C1107 1.366 . S
C1108 C1112 1.385 . S
C1109 H1084 0.951 . S
C1109 C1107 1.388 . S
C1109 C1110 1.366 . S
C1110 C1109 1.366 . S
C1110 C1111 1.414 . S
C1110 C1113 1.499 . S
C1111 H1085 0.950 . S
C1111 C1110 1.414 . S
C1111 C1112 1.374 . S
C1112 H1086 0.950 . S
C1112 C1108 1.385 . S
C1112 C1111 1.374 . S
C1113 C1110 1.499 . S
C1113 C1114 1.373 . S
C1113 C1115 1.389 . S
C1114 H1087 0.950 . S
C1114 C1100 1.377 . S
C1114 C1113 1.373 . S
C1115 C1099 1.377 . S
C1115 C1113 1.389 . S
C1115 C1116 1.524 . S
C1116 C1115 1.524 . S
C1116 C1117 1.397 . S
C1116 C1121 1.363 . S
C1117 H1088 0.950 . S
C1117 C1116 1.397 . S
C1117 C1118 1.334 . S
C1118 H1089 0.950 . S
C1118 C1117 1.334 . S
C1118 C1119 1.287 . S
C1119 C1118 1.287 . S
C1119 C1120 1.524 . S
C1119 H1122 0.999 . S
C1120 H1090 0.950 . S
C1120 C1119 1.524 . S
C1120 C1121 1.415 . S
C1121 H1091 0.950 . S
C1121 C1116 1.363 . S
C1121 C1120 1.415 . S
H1122 C1119 0.999 . S
H1123 C1104 0.913 . S
H1124 C1142 0.951 . S
H1125 C1144 0.951 . S
H1126 C1146 0.950 . S
H1127 C1147 0.950 . S
H1128 C1149 0.950 . S
H1129 C1152 0.950 . S
H1130 C1153 0.950 . S
H1131 C1155 0.950 . S
H1132 C1156 0.950 . S
H1133 C1157 0.951 . S
H1134 C1159 0.951 . S
H1135 C1161 0.950 . S
H1136 C1162 0.950 . S
H1137 C1164 0.950 . S
H1138 C1167 0.950 . S
H1139 C1168 0.950 . S
H1140 C1170 0.950 . S
H1141 C1171 0.950 . S
C1142 H1124 0.951 . S
C1142 C1143 1.366 . S
C1142 C1144 1.388 . S
C1143 C1142 1.366 . S
C1143 C1147 1.385 . S
C1144 H1125 0.951 . S
C1144 C1142 1.388 . S
C1144 C1145 1.366 . S
C1145 C1144 1.366 . S
C1145 C1146 1.414 . S
C1145 C1148 1.499 . S
C1146 H1126 0.950 . S
C1146 C1145 1.414 . S
C1146 C1147 1.374 . S
C1147 H1127 0.950 . S
C1147 C1143 1.385 . S
C1147 C1146 1.374 . S
C1148 C1145 1.499 . S
C1148 C1149 1.373 . S
C1148 C1150 1.389 . S
C1149 H1128 0.950 . S
C1149 C1148 1.373 . S
C1149 C1165 1.377 . S
C1150 C1148 1.389 . S
C1150 C1151 1.524 . S
C1150 C1164 1.377 . S
C1151 C1150 1.524 . S
C1151 C1152 1.397 . S
C1151 C1156 1.363 . S
C1152 H1129 0.950 . S
C1152 C1151 1.397 . S
C1152 C1153 1.334 . S
C1153 H1130 0.950 . S
C1153 C1152 1.334 . S
C1153 C1154 1.287 . S
C1154 C1153 1.287 . S
C1154 C1155 1.524 . S
C1154 H1173 0.913 . S
C1155 H1131 0.950 . S
C1155 C1154 1.524 . S
C1155 C1156 1.415 . S
C1156 H1132 0.950 . S
C1156 C1151 1.363 . S
C1156 C1155 1.415 . S
C1157 H1133 0.951 . S
C1157 C1158 1.366 1_554 S
C1157 C1159 1.388 . S
C1158 C1157 1.366 1_556 S
C1158 C1162 1.385 . S
C1159 H1134 0.951 . S
C1159 C1157 1.388 . S
C1159 C1160 1.366 . S
C1160 C1159 1.366 . S
C1160 C1161 1.414 . S
C1160 C1163 1.499 . S
C1161 H1135 0.950 . S
C1161 C1160 1.414 . S
C1161 C1162 1.374 1_554 S
C1162 H1136 0.950 . S
C1162 C1158 1.385 . S
C1162 C1161 1.374 1_556 S
C1163 C1160 1.499 . S
C1163 C1164 1.373 . S
C1163 C1165 1.389 . S
C1164 H1137 0.950 . S
C1164 C1150 1.377 . S
C1164 C1163 1.373 . S
C1165 C1149 1.377 . S
C1165 C1163 1.389 . S
C1165 C1166 1.524 . S
C1166 C1165 1.524 . S
C1166 C1167 1.397 . S
C1166 C1171 1.363 . S
C1167 H1138 0.950 . S
C1167 C1166 1.397 . S
C1167 C1168 1.334 . S
C1168 H1139 0.950 . S
C1168 C1167 1.334 . S
C1168 C1169 1.287 . S
C1169 C1168 1.287 . S
C1169 C1170 1.524 . S
C1169 H1172 0.999 . S
C1170 H1140 0.950 . S
C1170 C1169 1.524 . S
C1170 C1171 1.415 . S
C1171 H1141 0.950 . S
C1171 C1166 1.363 . S
C1171 C1170 1.415 . S
H1172 C1169 0.999 . S
H1173 C1154 0.913 . S
H1174 C1192 0.951 . S
H1175 C1194 0.951 . S
H1176 C1196 0.950 . S
H1177 C1197 0.950 . S
H1178 C1199 0.950 . S
H1179 C1202 0.950 . S
H1180 C1203 0.950 . S
H1181 C1205 0.950 . S
H1182 C1206 0.950 . S
H1183 C1207 0.951 . S
H1184 C1209 0.951 . S
H1185 C1211 0.950 . S
H1186 C1212 0.950 . S
H1187 C1214 0.950 . S
H1188 C1217 0.950 . S
H1189 C1218 0.950 . S
H1190 C1220 0.950 . S
H1191 C1221 0.950 . S
C1192 H1174 0.951 . S
C1192 C1193 1.366 . S
C1192 C1194 1.388 . S
C1193 C1192 1.366 . S
C1193 C1197 1.385 . S
C1194 H1175 0.951 . S
C1194 C1192 1.388 . S
C1194 C1195 1.366 . S
C1195 C1194 1.366 . S
C1195 C1196 1.414 . S
C1195 C1198 1.499 . S
C1196 H1176 0.950 . S
C1196 C1195 1.414 . S
C1196 C1197 1.374 . S
C1197 H1177 0.950 . S
C1197 C1193 1.385 . S
C1197 C1196 1.374 . S
C1198 C1195 1.499 . S
C1198 C1199 1.373 . S
C1198 C1200 1.389 . S
C1199 H1178 0.950 . S
C1199 C1198 1.373 . S
C1199 C1215 1.377 . S
C1200 C1198 1.389 . S
C1200 C1201 1.524 . S
C1200 C1214 1.377 . S
C1201 C1200 1.524 . S
C1201 C1202 1.397 . S
C1201 C1206 1.363 . S
C1202 H1179 0.950 . S
C1202 C1201 1.397 . S
C1202 C1203 1.334 . S
C1203 H1180 0.950 . S
C1203 C1202 1.334 . S
C1203 C1204 1.287 . S
C1204 C1203 1.287 . S
C1204 C1205 1.524 . S
C1204 H1223 0.913 . S
C1205 H1181 0.950 . S
C1205 C1204 1.524 . S
C1205 C1206 1.415 . S
C1206 H1182 0.950 . S
C1206 C1201 1.363 . S
C1206 C1205 1.415 . S
C1207 H1183 0.951 . S
C1207 C1208 1.366 . S
C1207 C1209 1.388 . S
C1208 C1207 1.366 . S
C1208 C1212 1.385 . S
C1209 H1184 0.951 . S
C1209 C1207 1.388 . S
C1209 C1210 1.366 . S
C1210 C1209 1.366 . S
C1210 C1211 1.414 . S
C1210 C1213 1.499 . S
C1211 H1185 0.950 . S
C1211 C1210 1.414 . S
C1211 C1212 1.374 . S
C1212 H1186 0.950 . S
C1212 C1208 1.385 . S
C1212 C1211 1.374 . S
C1213 C1210 1.499 . S
C1213 C1214 1.373 . S
C1213 C1215 1.389 . S
C1214 H1187 0.950 . S
C1214 C1200 1.377 . S
C1214 C1213 1.373 . S
C1215 C1199 1.377 . S
C1215 C1213 1.389 . S
C1215 C1216 1.524 . S
C1216 C1215 1.524 . S
C1216 C1217 1.397 . S
C1216 C1221 1.363 . S
C1217 H1188 0.950 . S
C1217 C1216 1.397 . S
C1217 C1218 1.334 . S
C1218 H1189 0.950 . S
C1218 C1217 1.334 . S
C1218 C1219 1.287 . S
C1219 C1218 1.287 . S
C1219 C1220 1.524 . S
C1219 H1222 0.999 . S
C1220 H1190 0.950 . S
C1220 C1219 1.524 . S
C1220 C1221 1.415 . S
C1221 H1191 0.950 . S
C1221 C1216 1.363 . S
C1221 C1220 1.415 . S
H1222 C1219 0.999 . S
H1223 C1204 0.913 . S
H1224 C1242 0.951 . S
H1225 C1244 0.951 . S
H1226 C1246 0.950 . S
H1227 C1247 0.950 . S
H1228 C1249 0.950 . S
H1229 C1252 0.950 . S
H1230 C1253 0.950 . S
H1231 C1255 0.950 . S
H1232 C1256 0.950 . S
H1233 C1257 0.951 . S
H1234 C1259 0.951 . S
H1235 C1261 0.950 . S
H1236 C1262 0.950 . S
H1237 C1264 0.950 . S
H1238 C1267 0.950 . S
H1239 C1268 0.950 . S
H1240 C1270 0.950 . S
H1241 C1271 0.950 . S
C1242 H1224 0.951 . S
C1242 C1243 1.366 . S
C1242 C1244 1.388 . S
C1243 C1242 1.366 . S
C1243 C1247 1.385 . S
C1244 H1225 0.951 . S
C1244 C1242 1.388 . S
C1244 C1245 1.366 . S
C1245 C1244 1.366 . S
C1245 C1246 1.414 . S
C1245 C1248 1.499 . S
C1246 H1226 0.950 . S
C1246 C1245 1.414 . S
C1246 C1247 1.374 . S
C1247 H1227 0.950 . S
C1247 C1243 1.385 . S
C1247 C1246 1.374 . S
C1248 C1245 1.499 . S
C1248 C1249 1.373 . S
C1248 C1250 1.389 . S
C1249 H1228 0.950 . S
C1249 C1248 1.373 . S
C1249 C1265 1.377 . S
C1250 C1248 1.389 . S
C1250 C1251 1.524 . S
C1250 C1264 1.377 . S
C1251 C1250 1.524 . S
C1251 C1252 1.397 . S
C1251 C1256 1.363 . S
C1252 H1229 0.950 . S
C1252 C1251 1.397 . S
C1252 C1253 1.334 . S
C1253 H1230 0.950 . S
C1253 C1252 1.334 . S
C1253 C1254 1.287 . S
C1254 C1253 1.287 . S
C1254 C1255 1.524 . S
C1254 H1273 0.876 1_545 S
C1255 H1231 0.950 . S
C1255 C1254 1.524 . S
C1255 C1256 1.415 . S
C1256 H1232 0.950 . S
C1256 C1251 1.363 . S
C1256 C1255 1.415 . S
C1257 H1233 0.951 . S
C1257 C1258 1.366 . S
C1257 C1259 1.388 1_554 S
C1258 C1257 1.366 . S
C1258 C1262 1.385 1_554 S
C1259 H1234 0.951 . S
C1259 C1257 1.388 1_556 S
C1259 C1260 1.366 . S
C1260 C1259 1.366 . S
C1260 C1261 1.414 . S
C1260 C1263 1.499 . S
C1261 H1235 0.950 . S
C1261 C1260 1.414 . S
C1261 C1262 1.374 . S
C1262 H1236 0.950 . S
C1262 C1258 1.385 1_556 S
C1262 C1261 1.374 . S
C1263 C1260 1.499 . S
C1263 C1264 1.373 . S
C1263 C1265 1.389 . S
C1264 H1237 0.950 . S
C1264 C1250 1.377 . S
C1264 C1263 1.373 . S
C1265 C1249 1.377 . S
C1265 C1263 1.389 . S
C1265 C1266 1.524 . S
C1266 C1265 1.524 . S
C1266 C1267 1.397 . S
C1266 C1271 1.363 . S
C1267 H1238 0.950 . S
C1267 C1266 1.397 . S
C1267 C1268 1.334 . S
C1268 H1239 0.950 . S
C1268 C1267 1.334 . S
C1268 C1269 1.287 . S
C1269 C1268 1.287 . S
C1269 C1270 1.524 . S
C1269 H1272 0.999 . S
C1270 H1240 0.950 . S
C1270 C1269 1.524 . S
C1270 C1271 1.415 . S
C1271 H1241 0.950 . S
C1271 C1266 1.363 . S
C1271 C1270 1.415 . S
H1272 C1269 0.999 . S
H1273 C1254 0.876 1_565 S
H1274 C1292 0.951 . S
H1275 C1294 0.951 . S
H1276 C1296 0.950 . S
H1277 C1297 0.950 . S
H1278 C1299 0.950 . S
H1279 C1302 0.950 . S
H1280 C1303 0.950 . S
H1281 C1305 0.950 . S
H1282 C1306 0.950 . S
H1283 C1307 0.951 . S
H1284 C1309 0.951 . S
H1285 C1311 0.950 . S
H1286 C1312 0.950 . S
H1287 C1314 0.950 . S
H1288 C1317 0.950 . S
H1289 C1318 0.950 . S
H1290 C1320 0.950 . S
H1291 C1321 0.950 . S
C1292 H1274 0.951 . S
C1292 C1293 1.366 . S
C1292 C1294 1.388 . S
C1293 C1292 1.366 . S
C1293 C1297 1.385 . S
C1294 H1275 0.951 . S
C1294 C1292 1.388 . S
C1294 C1295 1.366 . S
C1295 C1294 1.366 . S
C1295 C1296 1.414 . S
C1295 C1298 1.499 . S
C1296 H1276 0.950 . S
C1296 C1295 1.414 . S
C1296 C1297 1.374 . S
C1297 H1277 0.950 . S
C1297 C1293 1.385 . S
C1297 C1296 1.374 . S
C1298 C1295 1.499 . S
C1298 C1299 1.373 . S
C1298 C1300 1.389 . S
C1299 H1278 0.950 . S
C1299 C1298 1.373 . S
C1299 C1315 1.377 . S
C1300 C1298 1.389 . S
C1300 C1301 1.524 . S
C1300 C1314 1.377 . S
C1301 C1300 1.524 . S
C1301 C1302 1.397 . S
C1301 C1306 1.363 . S
C1302 H1279 0.950 . S
C1302 C1301 1.397 . S
C1302 C1303 1.334 . S
C1303 H1280 0.950 . S
C1303 C1302 1.334 . S
C1303 C1304 1.287 . S
C1304 C1303 1.287 . S
C1304 C1305 1.524 . S
C1304 H1323 0.913 1_565 S
C1305 H1281 0.950 . S
C1305 C1304 1.524 . S
C1305 C1306 1.415 . S
C1306 H1282 0.950 . S
C1306 C1301 1.363 . S
C1306 C1305 1.415 . S
C1307 H1283 0.951 . S
C1307 C1308 1.366 . S
C1307 C1309 1.388 . S
C1308 C1307 1.366 . S
C1308 C1312 1.385 . S
C1309 H1284 0.951 . S
C1309 C1307 1.388 . S
C1309 C1310 1.366 . S
C1310 C1309 1.366 . S
C1310 C1311 1.414 . S
C1310 C1313 1.499 . S
C1311 H1285 0.950 . S
C1311 C1310 1.414 . S
C1311 C1312 1.374 . S
C1312 H1286 0.950 . S
C1312 C1308 1.385 . S
C1312 C1311 1.374 . S
C1313 C1310 1.499 . S
C1313 C1314 1.373 . S
C1313 C1315 1.389 . S
C1314 H1287 0.950 . S
C1314 C1300 1.377 . S
C1314 C1313 1.373 . S
C1315 C1299 1.377 . S
C1315 C1313 1.389 . S
C1315 C1316 1.524 . S
C1316 C1315 1.524 . S
C1316 C1317 1.397 . S
C1316 C1321 1.363 . S
C1317 H1288 0.950 . S
C1317 C1316 1.397 . S
C1317 C1318 1.334 . S
C1318 H1289 0.950 . S
C1318 C1317 1.334 . S
C1318 C1319 1.287 . S
C1319 C1318 1.287 . S
C1319 C1320 1.524 . S
C1319 H1322 0.999 . S
C1320 H1290 0.950 . S
C1320 C1319 1.524 . S
C1320 C1321 1.415 . S
C1321 H1291 0.950 . S
C1321 C1316 1.363 . S
C1321 C1320 1.415 . S
H1322 C1319 0.999 . S
H1323 C1304 0.913 1_545 S
H1324 C1342 0.951 . S
H1325 C1344 0.951 . S
H1326 C1346 0.950 . S
H1327 C1347 0.950 . S
H1328 C1349 0.950 . S
H1329 C1352 0.950 . S
H1330 C1353 0.950 . S
H1331 C1355 0.950 . S
H1332 C1356 0.950 . S
H1333 C1357 0.951 . S
H1334 C1359 0.951 . S
H1335 C1361 0.950 . S
H1336 C1362 0.950 . S
H1337 C1364 0.950 . S
H1338 C1367 0.950 . S
H1339 C1368 0.950 . S
H1340 C1370 0.950 . S
H1341 C1371 0.950 . S
C1342 H1324 0.951 . S
C1342 C1343 1.366 1_556 S
C1342 C1344 1.388 . S
C1343 C1342 1.366 1_554 S
C1343 C1347 1.385 . S
C1344 H1325 0.951 . S
C1344 C1342 1.388 . S
C1344 C1345 1.366 . S
C1345 C1344 1.366 . S
C1345 C1346 1.414 . S
C1345 C1348 1.499 . S
C1346 H1326 0.950 . S
C1346 C1345 1.414 . S
C1346 C1347 1.374 1_556 S
C1347 H1327 0.950 . S
C1347 C1343 1.385 . S
C1347 C1346 1.374 1_554 S
C1348 C1345 1.499 . S
C1348 C1349 1.373 . S
C1348 C1350 1.389 . S
C1349 H1328 0.950 . S
C1349 C1348 1.373 . S
C1349 C1365 1.377 . S
C1350 C1348 1.389 . S
C1350 C1351 1.524 . S
C1350 C1364 1.377 . S
C1351 C1350 1.524 . S
C1351 C1352 1.397 . S
C1351 C1356 1.363 . S
C1352 H1329 0.950 . S
C1352 C1351 1.397 . S
C1352 C1353 1.334 . S
C1353 H1330 0.950 . S
C1353 C1352 1.334 . S
C1353 C1354 1.287 . S
C1354 C1353 1.287 . S
C1354 C1355 1.524 . S
C1354 H1373 0.913 . S
C1355 H1331 0.950 . S
C1355 C1354 1.524 . S
C1355 C1356 1.415 . S
C1356 H1332 0.950 . S
C1356 C1351 1.363 . S
C1356 C1355 1.415 . S
C1357 H1333 0.951 . S
C1357 C1358 1.366 . S
C1357 C1359 1.388 . S
C1358 C1357 1.366 . S
C1358 C1362 1.385 . S
C1359 H1334 0.951 . S
C1359 C1357 1.388 . S
C1359 C1360 1.366 . S
C1360 C1359 1.366 . S
C1360 C1361 1.414 . S
C1360 C1363 1.499 . S
C1361 H1335 0.950 . S
C1361 C1360 1.414 . S
C1361 C1362 1.374 . S
C1362 H1336 0.950 . S
C1362 C1358 1.385 . S
C1362 C1361 1.374 . S
C1363 C1360 1.499 . S
C1363 C1364 1.373 . S
C1363 C1365 1.389 . S
C1364 H1337 0.950 . S
C1364 C1350 1.377 . S
C1364 C1363 1.373 . S
C1365 C1349 1.377 . S
C1365 C1363 1.389 . S
C1365 C1366 1.524 . S
C1366 C1365 1.524 . S
C1366 C1367 1.397 . S
C1366 C1371 1.363 . S
C1367 H1338 0.950 . S
C1367 C1366 1.397 . S
C1367 C1368 1.334 . S
C1368 H1339 0.950 . S
C1368 C1367 1.334 . S
C1368 C1369 1.287 . S
C1369 C1368 1.287 . S
C1369 C1370 1.524 . S
C1369 H1372 0.999 . S
C1370 H1340 0.950 . S
C1370 C1369 1.524 . S
C1370 C1371 1.415 . S
C1371 H1341 0.950 . S
C1371 C1366 1.363 . S
C1371 C1370 1.415 . S
H1372 C1369 0.999 . S
H1373 C1354 0.913 . S
H1374 C1392 0.951 . S
H1375 C1394 0.951 . S
H1376 C1396 0.950 . S
H1377 C1397 0.950 . S
H1378 C1399 0.950 . S
H1379 C1402 0.950 . S
H1380 C1403 0.950 . S
H1381 C1405 0.950 . S
H1382 C1406 0.950 . S
H1383 C1407 0.951 . S
H1384 C1409 0.951 . S
H1385 C1411 0.950 . S
H1386 C1412 0.950 . S
H1387 C1414 0.950 . S
H1388 C1417 0.950 . S
H1389 C1418 0.950 . S
H1390 C1420 0.950 . S
H1391 C1421 0.950 . S
C1392 H1374 0.951 . S
C1392 C1393 1.366 . S
C1392 C1394 1.388 . S
C1393 C1392 1.366 . S
C1393 C1397 1.385 . S
C1394 H1375 0.951 . S
C1394 C1392 1.388 . S
C1394 C1395 1.366 . S
C1395 C1394 1.366 . S
C1395 C1396 1.414 . S
C1395 C1398 1.499 . S
C1396 H1376 0.950 . S
C1396 C1395 1.414 . S
C1396 C1397 1.374 . S
C1397 H1377 0.950 . S
C1397 C1393 1.385 . S
C1397 C1396 1.374 . S
C1398 C1395 1.499 . S
C1398 C1399 1.373 . S
C1398 C1400 1.389 . S
C1399 H1378 0.950 . S
C1399 C1398 1.373 . S
C1399 C1415 1.377 . S
C1400 C1398 1.389 . S
C1400 C1401 1.524 . S
C1400 C1414 1.377 . S
C1401 C1400 1.524 . S
C1401 C1402 1.397 . S
C1401 C1406 1.363 . S
C1402 H1379 0.950 . S
C1402 C1401 1.397 . S
C1402 C1403 1.334 . S
C1403 H1380 0.950 . S
C1403 C1402 1.334 . S
C1403 C1404 1.287 . S
C1404 C1403 1.287 . S
C1404 C1405 1.524 . S
C1404 H1423 0.913 . S
C1405 H1381 0.950 . S
C1405 C1404 1.524 . S
C1405 C1406 1.415 . S
C1406 H1382 0.950 . S
C1406 C1401 1.363 . S
C1406 C1405 1.415 . S
C1407 H1383 0.951 . S
C1407 C1408 1.366 . S
C1407 C1409 1.388 . S
C1408 C1407 1.366 . S
C1408 C1412 1.385 . S
C1409 H1384 0.951 . S
C1409 C1407 1.388 . S
C1409 C1410 1.366 . S
C1410 C1409 1.366 . S
C1410 C1411 1.414 . S
C1410 C1413 1.499 . S
C1411 H1385 0.950 . S
C1411 C1410 1.414 . S
C1411 C1412 1.374 . S
C1412 H1386 0.950 . S
C1412 C1408 1.385 . S
C1412 C1411 1.374 . S
C1413 C1410 1.499 . S
C1413 C1414 1.373 . S
C1413 C1415 1.389 . S
C1414 H1387 0.950 . S
C1414 C1400 1.377 . S
C1414 C1413 1.373 . S
C1415 C1399 1.377 . S
C1415 C1413 1.389 . S
C1415 C1416 1.524 . S
C1416 C1415 1.524 . S
C1416 C1417 1.397 . S
C1416 C1421 1.363 . S
C1417 H1388 0.950 . S
C1417 C1416 1.397 . S
C1417 C1418 1.334 . S
C1418 H1389 0.950 . S
C1418 C1417 1.334 . S
C1418 C1419 1.287 . S
C1419 C1418 1.287 . S
C1419 C1420 1.524 . S
C1419 H1422 0.999 . S
C1420 H1390 0.950 . S
C1420 C1419 1.524 . S
C1420 C1421 1.415 . S
C1421 H1391 0.950 . S
C1421 C1416 1.363 . S
C1421 C1420 1.415 . S
H1422 C1419 0.999 . S
H1423 C1404 0.913 . S
H1424 C1442 0.951 . S
H1425 C1444 0.951 . S
H1426 C1446 0.950 . S
H1427 C1447 0.950 . S
H1428 C1449 0.950 . S
H1429 C1452 0.950 . S
H1430 C1453 0.950 . S
H1431 C1455 0.950 . S
H1432 C1456 0.950 . S
H1433 C1457 0.951 . S
H1434 C1459 0.951 . S
H1435 C1461 0.950 . S
H1436 C1462 0.950 . S
H1437 C1464 0.950 . S
H1438 C1467 0.950 . S
H1439 C1468 0.950 . S
H1440 C1470 0.950 . S
H1441 C1471 0.950 . S
C1442 H1424 0.951 . S
C1442 C1443 1.366 . S
C1442 C1444 1.388 . S
C1443 C1442 1.366 . S
C1443 C1447 1.385 . S
C1444 H1425 0.951 . S
C1444 C1442 1.388 . S
C1444 C1445 1.366 . S
C1445 C1444 1.366 . S
C1445 C1446 1.414 . S
C1445 C1448 1.499 . S
C1446 H1426 0.950 . S
C1446 C1445 1.414 . S
C1446 C1447 1.374 . S
C1447 H1427 0.950 . S
C1447 C1443 1.385 . S
C1447 C1446 1.374 . S
C1448 C1445 1.499 . S
C1448 C1449 1.373 . S
C1448 C1450 1.389 . S
C1449 H1428 0.950 . S
C1449 C1448 1.373 . S
C1449 C1465 1.377 . S
C1450 C1448 1.389 . S
C1450 C1451 1.524 . S
C1450 C1464 1.377 . S
C1451 C1450 1.524 . S
C1451 C1452 1.397 . S
C1451 C1456 1.363 . S
C1452 H1429 0.950 . S
C1452 C1451 1.397 . S
C1452 C1453 1.334 . S
C1453 H1430 0.950 . S
C1453 C1452 1.334 . S
C1453 C1454 1.287 . S
C1454 C1453 1.287 . S
C1454 C1455 1.524 . S
C1454 H1473 0.913 . S
C1455 H1431 0.950 . S
C1455 C1454 1.524 . S
C1455 C1456 1.415 . S
C1456 H1432 0.950 . S
C1456 C1451 1.363 . S
C1456 C1455 1.415 . S
C1457 H1433 0.951 . S
C1457 C1458 1.366 . S
C1457 C1459 1.388 . S
C1458 C1457 1.366 . S
C1458 C1462 1.385 . S
C1459 H1434 0.951 . S
C1459 C1457 1.388 . S
C1459 C1460 1.366 . S
C1460 C1459 1.366 . S
C1460 C1461 1.414 . S
C1460 C1463 1.499 . S
C1461 H1435 0.950 . S
C1461 C1460 1.414 . S
C1461 C1462 1.374 . S
C1462 H1436 0.950 . S
C1462 C1458 1.385 . S
C1462 C1461 1.374 . S
C1463 C1460 1.499 . S
C1463 C1464 1.373 . S
C1463 C1465 1.389 . S
C1464 H1437 0.950 . S
C1464 C1450 1.377 . S
C1464 C1463 1.373 . S
C1465 C1449 1.377 . S
C1465 C1463 1.389 . S
C1465 C1466 1.524 . S
C1466 C1465 1.524 . S
C1466 C1467 1.397 . S
C1466 C1471 1.363 . S
C1467 H1438 0.950 . S
C1467 C1466 1.397 . S
C1467 C1468 1.334 . S
C1468 H1439 0.950 . S
C1468 C1467 1.334 . S
C1468 C1469 1.287 . S
C1469 C1468 1.287 . S
C1469 C1470 1.524 . S
C1469 H1472 0.999 . S
C1470 H1440 0.950 . S
C1470 C1469 1.524 . S
C1470 C1471 1.415 . S
C1471 H1441 0.950 . S
C1471 C1466 1.363 . S
C1471 C1470 1.415 . S
H1472 C1469 0.999 . S
H1473 C1454 0.913 . S
H1474 C1492 0.951 . S
H1475 C1494 0.951 . S
H1476 C1496 0.950 . S
H1477 C1497 0.950 . S
H1478 C1499 0.950 . S
H1479 C1502 0.950 . S
H1480 C1503 0.950 1_545 S
H1481 C1505 0.950 . S
H1482 C1506 0.950 . S
H1483 C1507 0.951 . S
H1484 C1509 0.951 . S
H1485 C1511 0.950 . S
H1486 C1512 0.950 . S
H1487 C1514 0.950 . S
H1488 C1517 0.950 . S
H1489 C1518 0.950 . S
H1490 C1520 0.950 . S
H1491 C1521 0.950 . S
C1492 H1474 0.951 . S
C1492 C1493 1.366 . S
C1492 C1494 1.388 . S
C1493 C1492 1.366 . S
C1493 C1497 1.385 . S
C1494 H1475 0.951 . S
C1494 C1492 1.388 . S
C1494 C1495 1.366 . S
C1495 C1494 1.366 . S
C1495 C1496 1.414 . S
C1495 C1498 1.499 . S
C1496 H1476 0.950 . S
C1496 C1495 1.414 . S
C1496 C1497 1.374 . S
C1497 H1477 0.950 . S
C1497 C1493 1.385 . S
C1497 C1496 1.374 . S
C1498 C1495 1.499 . S
C1498 C1499 1.373 . S
C1498 C1500 1.389 . S
C1499 H1478 0.950 . S
C1499 C1498 1.373 . S
C1499 C1515 1.377 . S
C1500 C1498 1.389 . S
C1500 C1501 1.524 . S
C1500 C1514 1.377 . S
C1501 C1500 1.524 . S
C1501 C1502 1.397 . S
C1501 C1506 1.363 . S
C1502 H1479 0.950 . S
C1502 C1501 1.397 . S
C1502 C1503 1.334 . S
C1503 H1480 0.950 1_565 S
C1503 C1502 1.334 . S
C1503 C1504 1.287 . S
C1504 C1503 1.287 . S
C1504 C1505 1.524 . S
C1504 H1523 0.913 1_565 S
C1505 H1481 0.950 . S
C1505 C1504 1.524 . S
C1505 C1506 1.415 . S
C1506 H1482 0.950 . S
C1506 C1501 1.363 . S
C1506 C1505 1.415 . S
C1507 H1483 0.951 . S
C1507 C1508 1.366 . S
C1507 C1509 1.388 . S
C1508 C1507 1.366 . S
C1508 C1512 1.385 . S
C1509 H1484 0.951 . S
C1509 C1507 1.388 . S
C1509 C1510 1.366 . S
C1510 C1509 1.366 . S
C1510 C1511 1.414 . S
C1510 C1513 1.499 . S
C1511 H1485 0.950 . S
C1511 C1510 1.414 . S
C1511 C1512 1.374 . S
C1512 H1486 0.950 . S
C1512 C1508 1.385 . S
C1512 C1511 1.374 . S
C1513 C1510 1.499 . S
C1513 C1514 1.373 . S
C1513 C1515 1.389 . S
C1514 H1487 0.950 . S
C1514 C1500 1.377 . S
C1514 C1513 1.373 . S
C1515 C1499 1.377 . S
C1515 C1513 1.389 . S
C1515 C1516 1.524 . S
C1516 C1515 1.524 . S
C1516 C1517 1.397 . S
C1516 C1521 1.363 . S
C1517 H1488 0.950 . S
C1517 C1516 1.397 . S
C1517 C1518 1.334 . S
C1518 H1489 0.950 . S
C1518 C1517 1.334 . S
C1518 C1519 1.287 . S
C1519 C1518 1.287 . S
C1519 C1520 1.524 . S
C1519 H1522 0.999 . S
C1520 H1490 0.950 . S
C1520 C1519 1.524 . S
C1520 C1521 1.415 . S
C1521 H1491 0.950 . S
C1521 C1516 1.363 . S
C1521 C1520 1.415 . S
H1522 C1519 0.999 . S
H1523 C1504 0.913 1_545 S
H1524 C1542 0.951 . S
H1525 C1544 0.951 . S
H1526 C1546 0.950 . S
H1527 C1547 0.950 . S
H1528 C1549 0.950 . S
H1529 C1552 0.950 . S
H1530 C1553 0.950 . S
H1531 C1555 0.950 . S
H1532 C1556 0.950 . S
H1533 C1557 0.951 . S
H1534 C1559 0.951 . S
H1535 C1561 0.950 . S
H1536 C1562 0.950 . S
H1537 C1564 0.950 . S
H1538 C1567 0.950 . S
H1539 C1568 0.950 . S
H1540 C1570 0.950 . S
H1541 C1571 0.950 . S
C1542 H1524 0.951 . S
C1542 C1543 1.366 . S
C1542 C1544 1.388 . S
C1543 C1542 1.366 . S
C1543 C1547 1.385 . S
C1544 H1525 0.951 . S
C1544 C1542 1.388 . S
C1544 C1545 1.366 . S
C1545 C1544 1.366 . S
C1545 C1546 1.414 . S
C1545 C1548 1.499 . S
C1546 H1526 0.950 . S
C1546 C1545 1.414 . S
C1546 C1547 1.374 . S
C1547 H1527 0.950 . S
C1547 C1543 1.385 . S
C1547 C1546 1.374 . S
C1548 C1545 1.499 . S
C1548 C1549 1.373 . S
C1548 C1550 1.389 . S
C1549 H1528 0.950 . S
C1549 C1548 1.373 . S
C1549 C1565 1.377 . S
C1550 C1548 1.389 . S
C1550 C1551 1.524 . S
C1550 C1564 1.377 . S
C1551 C1550 1.524 . S
C1551 C1552 1.397 . S
C1551 C1556 1.363 . S
C1552 H1529 0.950 . S
C1552 C1551 1.397 . S
C1552 C1553 1.334 . S
C1553 H1530 0.950 . S
C1553 C1552 1.334 . S
C1553 C1554 1.287 . S
C1554 C1553 1.287 . S
C1554 C1555 1.524 . S
C1554 H1573 0.913 . S
C1555 H1531 0.950 . S
C1555 C1554 1.524 . S
C1555 C1556 1.415 . S
C1556 H1532 0.950 . S
C1556 C1551 1.363 . S
C1556 C1555 1.415 . S
C1557 H1533 0.951 . S
C1557 C1558 1.366 . S
C1557 C1559 1.388 . S
C1558 C1557 1.366 . S
C1558 C1562 1.385 . S
C1559 H1534 0.951 . S
C1559 C1557 1.388 . S
C1559 C1560 1.366 . S
C1560 C1559 1.366 . S
C1560 C1561 1.414 . S
C1560 C1563 1.499 . S
C1561 H1535 0.950 . S
C1561 C1560 1.414 . S
C1561 C1562 1.374 . S
C1562 H1536 0.950 . S
C1562 C1558 1.385 . S
C1562 C1561 1.374 . S
C1563 C1560 1.499 . S
C1563 C1564 1.373 . S
C1563 C1565 1.389 . S
C1564 H1537 0.950 . S
C1564 C1550 1.377 . S
C1564 C1563 1.373 . S
C1565 C1549 1.377 . S
C1565 C1563 1.389 . S
C1565 C1566 1.524 . S
C1566 C1565 1.524 . S
C1566 C1567 1.397 . S
C1566 C1571 1.363 . S
C1567 H1538 0.950 . S
C1567 C1566 1.397 . S
C1567 C1568 1.334 . S
C1568 H1539 0.950 . S
C1568 C1567 1.334 . S
C1568 C1569 1.287 . S
C1569 C1568 1.287 . S
C1569 C1570 1.524 . S
C1569 H1572 0.999 . S
C1570 H1540 0.950 . S
C1570 C1569 1.524 . S
C1570 C1571 1.415 . S
C1571 H1541 0.950 . S
C1571 C1566 1.363 . S
C1571 C1570 1.415 . S
H1572 C1569 0.999 . S
H1573 C1554 0.913 . S
H1574 C1592 0.951 . S
H1575 C1594 0.951 . S
H1576 C1596 0.950 . S
H1577 C1597 0.950 . S
H1578 C1599 0.950 . S
H1579 C1602 0.950 . S
H1580 C1603 0.950 . S
H1581 C1605 0.950 . S
H1582 C1606 0.950 . S
H1583 C1607 0.951 . S
H1584 C1609 0.951 . S
H1585 C1611 0.950 . S
H1586 C1612 0.950 . S
H1587 C1614 0.950 . S
H1588 C1617 0.950 . S
H1589 C1618 0.950 . S
H1590 C1620 0.950 . S
H1591 C1621 0.950 . S
C1592 H1574 0.951 . S
C1592 C1593 1.366 . S
C1592 C1594 1.388 . S
C1593 C1592 1.366 . S
C1593 C1597 1.385 . S
C1594 H1575 0.951 . S
C1594 C1592 1.388 . S
C1594 C1595 1.366 . S
C1595 C1594 1.366 . S
C1595 C1596 1.414 . S
C1595 C1598 1.499 . S
C1596 H1576 0.950 . S
C1596 C1595 1.414 . S
C1596 C1597 1.374 . S
C1597 H1577 0.950 . S
C1597 C1593 1.385 . S
C1597 C1596 1.374 . S
C1598 C1595 1.499 . S
C1598 C1599 1.373 . S
C1598 C1600 1.389 . S
C1599 H1578 0.950 . S
C1599 C1598 1.373 . S
C1599 C1615 1.377 . S
C1600 C1598 1.389 . S
C1600 C1601 1.524 . S
C1600 C1614 1.377 . S
C1601 C1600 1.524 . S
C1601 C1602 1.397 . S
C1601 C1606 1.363 . S
C1602 H1579 0.950 . S
C1602 C1601 1.397 . S
C1602 C1603 1.334 . S
C1603 H1580 0.950 . S
C1603 C1602 1.334 . S
C1603 C1604 1.287 . S
C1604 C1603 1.287 . S
C1604 C1605 1.524 . S
C1604 H1623 0.913 . S
C1605 H1581 0.950 . S
C1605 C1604 1.524 . S
C1605 C1606 1.415 . S
C1606 H1582 0.950 . S
C1606 C1601 1.363 . S
C1606 C1605 1.415 . S
C1607 H1583 0.951 . S
C1607 C1608 1.366 . S
C1607 C1609 1.388 . S
C1608 C1607 1.366 . S
C1608 C1612 1.385 . S
C1609 H1584 0.951 . S
C1609 C1607 1.388 . S
C1609 C1610 1.366 . S
C1610 C1609 1.366 . S
C1610 C1611 1.414 . S
C1610 C1613 1.499 . S
C1611 H1585 0.950 . S
C1611 C1610 1.414 . S
C1611 C1612 1.374 . S
C1612 H1586 0.950 . S
C1612 C1608 1.385 . S
C1612 C1611 1.374 . S
C1613 C1610 1.499 . S
C1613 C1614 1.373 . S
C1613 C1615 1.389 . S
C1614 H1587 0.950 . S
C1614 C1600 1.377 . S
C1614 C1613 1.373 . S
C1615 C1599 1.377 . S
C1615 C1613 1.389 . S
C1615 C1616 1.524 . S
C1616 C1615 1.524 . S
C1616 C1617 1.397 . S
C1616 C1621 1.363 . S
C1617 H1588 0.950 . S
C1617 C1616 1.397 . S
C1617 C1618 1.334 . S
C1618 H1589 0.950 . S
C1618 C1617 1.334 . S
C1618 C1619 1.287 . S
C1619 C1618 1.287 . S
C1619 C1620 1.524 . S
C1619 H1622 0.999 . S
C1620 H1590 0.950 . S
C1620 C1619 1.524 . S
C1620 C1621 1.415 . S
C1621 H1591 0.950 . S
C1621 C1616 1.363 . S
C1621 C1620 1.415 . S
H1622 C1619 0.999 . S
H1623 C1604 0.913 . S
H1624 C1642 0.951 . S
H1625 C1644 0.951 . S
H1626 C1646 0.950 . S
H1627 C1647 0.950 . S
H1628 C1649 0.950 . S
H1629 C1652 0.950 . S
H1630 C1653 0.950 . S
H1631 C1655 0.950 . S
H1632 C1656 0.950 . S
H1633 C1657 0.951 . S
H1634 C1659 0.951 . S
H1635 C1661 0.950 . S
H1636 C1662 0.950 . S
H1637 C1664 0.950 . S
H1638 C1667 0.950 . S
H1639 C1668 0.950 1_655 S
H1640 C1670 0.950 . S
H1641 C1671 0.950 . S
C1642 H1624 0.951 . S
C1642 C1643 1.366 . S
C1642 C1644 1.388 . S
C1643 C1642 1.366 . S
C1643 C1647 1.385 . S
C1644 H1625 0.951 . S
C1644 C1642 1.388 . S
C1644 C1645 1.366 . S
C1645 C1644 1.366 . S
C1645 C1646 1.414 . S
C1645 C1648 1.499 . S
C1646 H1626 0.950 . S
C1646 C1645 1.414 . S
C1646 C1647 1.374 . S
C1647 H1627 0.950 . S
C1647 C1643 1.385 . S
C1647 C1646 1.374 . S
C1648 C1645 1.499 . S
C1648 C1649 1.373 . S
C1648 C1650 1.389 . S
C1649 H1628 0.950 . S
C1649 C1648 1.373 . S
C1649 C1665 1.377 . S
C1650 C1648 1.389 . S
C1650 C1651 1.524 . S
C1650 C1664 1.377 . S
C1651 C1650 1.524 . S
C1651 C1652 1.397 . S
C1651 C1656 1.363 . S
C1652 H1629 0.950 . S
C1652 C1651 1.397 . S
C1652 C1653 1.334 . S
C1653 H1630 0.950 . S
C1653 C1652 1.334 . S
C1653 C1654 1.287 . S
C1654 C1653 1.287 . S
C1654 C1655 1.524 . S
C1654 H1673 0.913 . S
C1655 H1631 0.950 . S
C1655 C1654 1.524 . S
C1655 C1656 1.415 . S
C1656 H1632 0.950 . S
C1656 C1651 1.363 . S
C1656 C1655 1.415 . S
C1657 H1633 0.951 . S
C1657 C1658 1.366 . S
C1657 C1659 1.388 . S
C1658 C1657 1.366 . S
C1658 C1662 1.385 . S
C1659 H1634 0.951 . S
C1659 C1657 1.388 . S
C1659 C1660 1.366 . S
C1660 C1659 1.366 . S
C1660 C1661 1.414 . S
C1660 C1663 1.499 . S
C1661 H1635 0.950 . S
C1661 C1660 1.414 . S
C1661 C1662 1.374 . S
C1662 H1636 0.950 . S
C1662 C1658 1.385 . S
C1662 C1661 1.374 . S
C1663 C1660 1.499 . S
C1663 C1664 1.373 . S
C1663 C1665 1.389 . S
C1664 H1637 0.950 . S
C1664 C1650 1.377 . S
C1664 C1663 1.373 . S
C1665 C1649 1.377 . S
C1665 C1663 1.389 . S
C1665 C1666 1.524 . S
C1666 C1665 1.524 . S
C1666 C1667 1.397 . S
C1666 C1671 1.363 . S
C1667 H1638 0.950 . S
C1667 C1666 1.397 . S
C1667 C1668 1.334 . S
C1668 H1639 0.950 1_455 S
C1668 C1667 1.334 . S
C1668 C1669 1.287 . S
C1669 C1668 1.287 . S
C1669 C1670 1.524 . S
C1669 H1672 0.999 1_455 S
C1670 H1640 0.950 . S
C1670 C1669 1.524 . S
C1670 C1671 1.415 . S
C1671 H1641 0.950 . S
C1671 C1666 1.363 . S
C1671 C1670 1.415 . S
H1672 C1669 0.999 1_655 S
H1673 C1654 0.913 . S
H1674 C1692 0.951 . S
H1675 C1694 0.951 . S
H1676 C1696 0.950 . S
H1677 C1697 0.950 . S
H1678 C1699 0.950 . S
H1679 C1702 0.950 . S
H1680 C1703 0.950 . S
H1681 C1705 0.950 . S
H1682 C1706 0.950 . S
H1683 C1707 0.951 . S
H1684 C1709 0.951 . S
H1685 C1711 0.950 . S
H1686 C1712 0.950 . S
H1687 C1714 0.950 . S
H1688 C1717 0.950 . S
H1689 C1718 0.950 . S
H1690 C1720 0.950 . S
H1691 C1721 0.950 . S
C1692 H1674 0.951 . S
C1692 C1693 1.366 . S
C1692 C1694 1.388 . S
C1693 C1692 1.366 . S
C1693 C1697 1.385 . S
C1694 H1675 0.951 . S
C1694 C1692 1.388 . S
C1694 C1695 1.366 . S
C1695 C1694 1.366 . S
C1695 C1696 1.414 . S
C1695 C1698 1.499 . S
C1696 H1676 0.950 . S
C1696 C1695 1.414 . S
C1696 C1697 1.374 . S
C1697 H1677 0.950 . S
C1697 C1693 1.385 . S
C1697 C1696 1.374 . S
C1698 C1695 1.499 . S
C1698 C1699 1.373 . S
C1698 C1700 1.389 . S
C1699 H1678 0.950 . S
C1699 C1698 1.373 . S
C1699 C1715 1.377 . S
C1700 C1698 1.389 . S
C1700 C1701 1.524 . S
C1700 C1714 1.377 . S
C1701 C1700 1.524 . S
C1701 C1702 1.397 . S
C1701 C1706 1.363 . S
C1702 H1679 0.950 . S
C1702 C1701 1.397 . S
C1702 C1703 1.334 . S
C1703 H1680 0.950 . S
C1703 C1702 1.334 . S
C1703 C1704 1.287 . S
C1704 C1703 1.287 . S
C1704 C1705 1.524 . S
C1704 H1723 0.913 . S
C1705 H1681 0.950 . S
C1705 C1704 1.524 . S
C1705 C1706 1.415 . S
C1706 H1682 0.950 . S
C1706 C1701 1.363 . S
C1706 C1705 1.415 . S
C1707 H1683 0.951 . S
C1707 C1708 1.366 . S
C1707 C1709 1.388 . S
C1708 C1707 1.366 . S
C1708 C1712 1.385 . S
C1709 H1684 0.951 . S
C1709 C1707 1.388 . S
C1709 C1710 1.366 . S
C1710 C1709 1.366 . S
C1710 C1711 1.414 . S
C1710 C1713 1.499 . S
C1711 H1685 0.950 . S
C1711 C1710 1.414 . S
C1711 C1712 1.374 . S
C1712 H1686 0.950 . S
C1712 C1708 1.385 . S
C1712 C1711 1.374 . S
C1713 C1710 1.499 . S
C1713 C1714 1.373 . S
C1713 C1715 1.389 . S
C1714 H1687 0.950 . S
C1714 C1700 1.377 . S
C1714 C1713 1.373 . S
C1715 C1699 1.377 . S
C1715 C1713 1.389 . S
C1715 C1716 1.524 . S
C1716 C1715 1.524 . S
C1716 C1717 1.397 . S
C1716 C1721 1.363 . S
C1717 H1688 0.950 . S
C1717 C1716 1.397 . S
C1717 C1718 1.334 . S
C1718 H1689 0.950 . S
C1718 C1717 1.334 . S
C1718 C1719 1.287 . S
C1719 C1718 1.287 . S
C1719 C1720 1.524 . S
C1719 H1722 0.999 . S
C1720 H1690 0.950 . S
C1720 C1719 1.524 . S
C1720 C1721 1.415 . S
C1721 H1691 0.950 . S
C1721 C1716 1.363 . S
C1721 C1720 1.415 . S
H1722 C1719 0.999 . S
H1723 C1704 0.913 . S
H1724 C1742 0.951 . S
H1725 C1744 0.951 . S
H1726 C1746 0.950 . S
H1727 C1747 0.950 . S
H1728 C1749 0.950 . S
H1729 C1752 0.950 . S
H1730 C1753 0.950 . S
H1731 C1755 0.950 . S
H1732 C1756 0.950 . S
H1733 C1757 0.951 . S
H1734 C1759 0.951 . S
H1735 C1761 0.950 . S
H1736 C1762 0.950 . S
H1737 C1764 0.950 . S
H1738 C1767 0.950 . S
H1739 C1768 0.950 . S
H1740 C1770 0.950 . S
H1741 C1771 0.950 . S
C1742 H1724 0.951 . S
C1742 C1743 1.366 . S
C1742 C1744 1.388 . S
C1743 C1742 1.366 . S
C1743 C1747 1.385 . S
C1744 H1725 0.951 . S
C1744 C1742 1.388 . S
C1744 C1745 1.366 . S
C1745 C1744 1.366 . S
C1745 C1746 1.414 . S
C1745 C1748 1.499 . S
C1746 H1726 0.950 . S
C1746 C1745 1.414 . S
C1746 C1747 1.374 . S
C1747 H1727 0.950 . S
C1747 C1743 1.385 . S
C1747 C1746 1.374 . S
C1748 C1745 1.499 . S
C1748 C1749 1.373 . S
C1748 C1750 1.389 . S
C1749 H1728 0.950 . S
C1749 C1748 1.373 . S
C1749 C1765 1.377 . S
C1750 C1748 1.389 . S
C1750 C1751 1.524 . S
C1750 C1764 1.377 . S
C1751 C1750 1.524 . S
C1751 C1752 1.397 . S
C1751 C1756 1.363 . S
C1752 H1729 0.950 . S
C1752 C1751 1.397 . S
C1752 C1753 1.334 . S
C1753 H1730 0.950 . S
C1753 C1752 1.334 . S
C1753 C1754 1.287 . S
C1754 C1753 1.287 . S
C1754 C1755 1.524 . S
C1754 H1773 0.913 . S
C1755 H1731 0.950 . S
C1755 C1754 1.524 . S
C1755 C1756 1.415 . S
C1756 H1732 0.950 . S
C1756 C1751 1.363 . S
C1756 C1755 1.415 . S
C1757 H1733 0.951 . S
C1757 C1758 1.366 . S
C1757 C1759 1.388 . S
C1758 C1757 1.366 . S
C1758 C1762 1.385 . S
C1759 H1734 0.951 . S
C1759 C1757 1.388 . S
C1759 C1760 1.366 . S
C1760 C1759 1.366 . S
C1760 C1761 1.414 . S
C1760 C1763 1.499 . S
C1761 H1735 0.950 . S
C1761 C1760 1.414 . S
C1761 C1762 1.374 . S
C1762 H1736 0.950 . S
C1762 C1758 1.385 . S
C1762 C1761 1.374 . S
C1763 C1760 1.499 . S
C1763 C1764 1.373 . S
C1763 C1765 1.389 . S
C1764 H1737 0.950 . S
C1764 C1750 1.377 . S
C1764 C1763 1.373 . S
C1765 C1749 1.377 . S
C1765 C1763 1.389 . S
C1765 C1766 1.524 . S
C1766 C1765 1.524 . S
C1766 C1767 1.397 . S
C1766 C1771 1.363 . S
C1767 H1738 0.950 . S
C1767 C1766 1.397 . S
C1767 C1768 1.334 . S
C1768 H1739 0.950 . S
C1768 C1767 1.334 . S
C1768 C1769 1.287 . S
C1769 C1768 1.287 . S
C1769 C1770 1.524 . S
C1769 H1772 0.999 . S
C1770 H1740 0.950 . S
C1770 C1769 1.524 . S
C1770 C1771 1.415 . S
C1771 H1741 0.950 . S
C1771 C1766 1.363 . S
C1771 C1770 1.415 . S
H1772 C1769 0.999 . S
H1773 C1754 0.913 . S
H1774 C1792 0.951 . S
H1775 C1794 0.951 . S
H1776 C1796 0.950 . S
H1777 C1797 0.950 . S
H1778 C1799 0.950 . S
H1779 C1802 0.950 . S
H1780 C1803 0.950 . S
H1781 C1805 0.950 . S
H1782 C1806 0.950 . S
H1783 C1807 0.951 . S
H1784 C1809 0.951 . S
H1785 C1811 0.950 . S
H1786 C1812 0.950 . S
H1787 C1814 0.950 . S
H1788 C1817 0.950 . S
H1789 C1818 0.950 . S
H1790 C1820 0.950 . S
H1791 C1821 0.950 . S
C1792 H1774 0.951 . S
C1792 C1793 1.366 . S
C1792 C1794 1.388 . S
C1793 C1792 1.366 . S
C1793 C1797 1.385 . S
C1794 H1775 0.951 . S
C1794 C1792 1.388 . S
C1794 C1795 1.366 . S
C1795 C1794 1.366 . S
C1795 C1796 1.414 . S
C1795 C1798 1.499 . S
C1796 H1776 0.950 . S
C1796 C1795 1.414 . S
C1796 C1797 1.374 . S
C1797 H1777 0.950 . S
C1797 C1793 1.385 . S
C1797 C1796 1.374 . S
C1798 C1795 1.499 . S
C1798 C1799 1.373 . S
C1798 C1800 1.389 . S
C1799 H1778 0.950 . S
C1799 C1798 1.373 . S
C1799 C1815 1.377 . S
C1800 C1798 1.389 . S
C1800 C1801 1.524 . S
C1800 C1814 1.377 . S
C1801 C1800 1.524 . S
C1801 C1802 1.397 . S
C1801 C1806 1.363 . S
C1802 H1779 0.950 . S
C1802 C1801 1.397 . S
C1802 C1803 1.334 . S
C1803 H1780 0.950 . S
C1803 C1802 1.334 . S
C1803 C1804 1.287 . S
C1804 C1803 1.287 . S
C1804 C1805 1.524 . S
C1804 H1823 0.913 . S
C1805 H1781 0.950 . S
C1805 C1804 1.524 . S
C1805 C1806 1.415 . S
C1806 H1782 0.950 . S
C1806 C1801 1.363 . S
C1806 C1805 1.415 . S
C1807 H1783 0.951 . S
C1807 C1808 1.366 . S
C1807 C1809 1.388 . S
C1808 C1807 1.366 . S
C1808 C1812 1.385 . S
C1809 H1784 0.951 . S
C1809 C1807 1.388 . S
C1809 C1810 1.366 . S
C1810 C1809 1.366 . S
C1810 C1811 1.414 . S
C1810 C1813 1.499 . S
C1811 H1785 0.950 . S
C1811 C1810 1.414 . S
C1811 C1812 1.374 . S
C1812 H1786 0.950 . S
C1812 C1808 1.385 . S
C1812 C1811 1.374 . S
C1813 C1810 1.499 . S
C1813 C1814 1.373 . S
C1813 C1815 1.389 . S
C1814 H1787 0.950 . S
C1814 C1800 1.377 . S
C1814 C1813 1.373 . S
C1815 C1799 1.377 . S
C1815 C1813 1.389 . S
C1815 C1816 1.524 . S
C1816 C1815 1.524 . S
C1816 C1817 1.397 . S
C1816 C1821 1.363 . S
C1817 H1788 0.950 . S
C1817 C1816 1.397 . S
C1817 C1818 1.334 . S
C1818 H1789 0.950 . S
C1818 C1817 1.334 . S
C1818 C1819 1.287 . S
C1819 C1818 1.287 . S
C1819 C1820 1.524 . S
C1819 H1822 0.999 . S
C1820 H1790 0.950 . S
C1820 C1819 1.524 . S
C1820 C1821 1.415 . S
C1821 H1791 0.950 . S
C1821 C1816 1.363 . S
C1821 C1820 1.415 . S
H1822 C1819 0.999 . S
H1823 C1804 0.913 . S
C243 C11 0.936 . S
C258 C67 0.935 . S
C293 C81 0.936 . S
C308 C25 0.935 . S
C343 C39 0.935 . S
C358 C95 0.936 . S
C393 C53 0.935 . S
C408 C109 0.936 . S
C443 C123 0.936 . S
C458 C179 0.936 . S
C493 C193 0.936 . S
C508 C137 0.935 . S
C543 C151 0.936 . S
C558 C207 0.936 . S
C593 C165 0.936 . S
C608 C221 0.936 . S
C643 C9 1.456 . S
C658 C215 1.448 . S
C693 C173 1.449 . S
C708 C23 1.456 . S
C743 C37 1.456 . S
C758 C187 1.449 . S
C793 C201 1.449 . S
C808 C51 1.456 . S
C843 C131 1.449 . S
C858 C65 1.456 . S
C893 C145 1.449 . S
C908 C79 1.456 . S
C943 C159 1.449 . S
C958 C93 1.456 . S
C993 C117 1.449 . S
C1008 C107 1.456 . S
C1043 C121 1.456 . S
C1058 C103 1.448 . S
C1093 C61 1.449 . S
C1108 C135 1.456 . S
C1143 C75 1.449 . S
C1158 C149 1.456 . S
C1193 C163 1.456 . S
C1208 C89 1.449 . S
C1243 C19 1.449 . S
C1258 C177 1.456 . S
C1293 C191 1.456 . S
C1308 C33 1.448 . S
C1343 C205 1.456 . S
C1358 C47 1.449 . S
C1393 C219 1.456 . S
C1408 C5 1.449 . S
C1443 C98 0.926 . S
C1458 C0 0.924 . S
C1493 C14 0.926 . S
C1508 C56 0.924 . S
C1543 C28 0.926 . S
C1558 C70 0.924 . S
C1593 C42 0.924 . S
C1608 C84 0.926 . S
C1643 C210 0.924 . S
C1658 C112 0.926 . S
C1693 C168 0.926 . S
C1708 C126 0.924 . S
C1743 C182 0.925 . S
C1758 C140 0.926 . S
C1793 C196 0.926 . S
C1808 C154 0.925 . S
