# Generated by pormake.
# Topology uko, (4)-cn, num edge types: 1
# Building blocks:
#     Node 0, Type 0, BuildingBlock: CEKHIL_clean_sbu_0, # of connection points: 4
#     Node 1, Type 0, BuildingBlock: CEKHIL_clean_sbu_0, # of connection points: 4
#     Node 2, Type 0, BuildingBlock: CEKHIL_clean_sbu_0, # of connection points: 4
#     Node 3, Type 0, BuildingBlock: CEKHIL_clean_sbu_0, # of connection points: 4
#     Node 4, Type 0, BuildingBlock: CEKHIL_clean_sbu_0, # of connection points: 4
#     Node 5, Type 0, BuildingBlock: CEKHIL_clean_sbu_0, # of connection points: 4
#     Node 6, Type 0, BuildingBlock: CEKHIL_clean_sbu_0, # of connection points: 4
#     Node 7, Type 0, BuildingBlock: CEKHIL_clean_sbu_0, # of connection points: 4
#     Node 8, Type 0, BuildingBlock: CEKHIL_clean_sbu_0, # of connection points: 4
#     Node 9, Type 0, BuildingBlock: CEKHIL_clean_sbu_0, # of connection points: 4
#     Node 10, Type 0, BuildingBlock: CEKHIL_clean_sbu_0, # of connection points: 4
#     Node 11, Type 0, BuildingBlock: CEKHIL_clean_sbu_0, # of connection points: 4
#     Node 12, Type 0, BuildingBlock: CEKHIL_clean_sbu_0, # of connection points: 4
#     Node 13, Type 0, BuildingBlock: CEKHIL_clean_sbu_0, # of connection points: 4
#     Node 14, Type 0, BuildingBlock: CEKHIL_clean_sbu_0, # of connection points: 4
#     Node 15, Type 0, BuildingBlock: CEKHIL_clean_sbu_0, # of connection points: 4
#     Node 16, Type 0, BuildingBlock: CEKHIL_clean_sbu_0, # of connection points: 4
#     Node 17, Type 0, BuildingBlock: CEKHIL_clean_sbu_0, # of connection points: 4
#     Node 18, Type 0, BuildingBlock: CEKHIL_clean_sbu_0, # of connection points: 4
#     Node 19, Type 0, BuildingBlock: CEKHIL_clean_sbu_0, # of connection points: 4
#     Node 20, Type 0, BuildingBlock: CEKHIL_clean_sbu_0, # of connection points: 4
#     Node 21, Type 0, BuildingBlock: CEKHIL_clean_sbu_0, # of connection points: 4
#     Node 22, Type 0, BuildingBlock: CEKHIL_clean_sbu_0, # of connection points: 4
#     Node 23, Type 0, BuildingBlock: CEKHIL_clean_sbu_0, # of connection points: 4
#     Node 24, Type 0, BuildingBlock: CEKHIL_clean_sbu_0, # of connection points: 4
#     Node 25, Type 0, BuildingBlock: CEKHIL_clean_sbu_0, # of connection points: 4
#     Node 26, Type 0, BuildingBlock: CEKHIL_clean_sbu_0, # of connection points: 4
#     Node 27, Type 0, BuildingBlock: CEKHIL_clean_sbu_0, # of connection points: 4
#     Node 28, Type 0, BuildingBlock: CEKHIL_clean_sbu_0, # of connection points: 4
#     Node 29, Type 0, BuildingBlock: CEKHIL_clean_sbu_0, # of connection points: 4
#     Node 30, Type 0, BuildingBlock: CEKHIL_clean_sbu_0, # of connection points: 4
#     Node 31, Type 0, BuildingBlock: CEKHIL_clean_sbu_0, # of connection points: 4
#     Node 32, Type 0, BuildingBlock: CEKHIL_clean_sbu_0, # of connection points: 4
#     Node 33, Type 0, BuildingBlock: CEKHIL_clean_sbu_0, # of connection points: 4
#     Node 34, Type 0, BuildingBlock: CEKHIL_clean_sbu_0, # of connection points: 4
#     Node 35, Type 0, BuildingBlock: CEKHIL_clean_sbu_0, # of connection points: 4
#     Node 36, Type 0, BuildingBlock: CEKHIL_clean_sbu_0, # of connection points: 4
#     Node 37, Type 0, BuildingBlock: CEKHIL_clean_sbu_0, # of connection points: 4
#     Node 38, Type 0, BuildingBlock: CEKHIL_clean_sbu_0, # of connection points: 4
#     Node 39, Type 0, BuildingBlock: CEKHIL_clean_sbu_0, # of connection points: 4
#     Node 40, Type 0, BuildingBlock: CEKHIL_clean_sbu_0, # of connection points: 4
#     Node 41, Type 0, BuildingBlock: CEKHIL_clean_sbu_0, # of connection points: 4
#     Node 42, Type 0, BuildingBlock: CEKHIL_clean_sbu_0, # of connection points: 4
#     Node 43, Type 0, BuildingBlock: CEKHIL_clean_sbu_0, # of connection points: 4
#     Node 44, Type 0, BuildingBlock: CEKHIL_clean_sbu_0, # of connection points: 4
#     Node 45, Type 0, BuildingBlock: CEKHIL_clean_sbu_0, # of connection points: 4
#     Node 46, Type 0, BuildingBlock: CEKHIL_clean_sbu_0, # of connection points: 4
#     Node 47, Type 0, BuildingBlock: CEKHIL_clean_sbu_0, # of connection points: 4
#     Edge 48, Type (0, 0), None
#     Edge 49, Type (0, 0), None
#     Edge 50, Type (0, 0), None
#     Edge 51, Type (0, 0), None
#     Edge 52, Type (0, 0), None
#     Edge 53, Type (0, 0), None
#     Edge 54, Type (0, 0), None
#     Edge 55, Type (0, 0), None
#     Edge 56, Type (0, 0), None
#     Edge 57, Type (0, 0), None
#     Edge 58, Type (0, 0), None
#     Edge 59, Type (0, 0), None
#     Edge 60, Type (0, 0), None
#     Edge 61, Type (0, 0), None
#     Edge 62, Type (0, 0), None
#     Edge 63, Type (0, 0), None
#     Edge 64, Type (0, 0), None
#     Edge 65, Type (0, 0), None
#     Edge 66, Type (0, 0), None
#     Edge 67, Type (0, 0), None
#     Edge 68, Type (0, 0), None
#     Edge 69, Type (0, 0), None
#     Edge 70, Type (0, 0), None
#     Edge 71, Type (0, 0), None
#     Edge 72, Type (0, 0), None
#     Edge 73, Type (0, 0), None
#     Edge 74, Type (0, 0), None
#     Edge 75, Type (0, 0), None
#     Edge 76, Type (0, 0), None
#     Edge 77, Type (0, 0), None
#     Edge 78, Type (0, 0), None
#     Edge 79, Type (0, 0), None
#     Edge 80, Type (0, 0), None
#     Edge 81, Type (0, 0), None
#     Edge 82, Type (0, 0), None
#     Edge 83, Type (0, 0), None
#     Edge 84, Type (0, 0), None
#     Edge 85, Type (0, 0), None
#     Edge 86, Type (0, 0), None
#     Edge 87, Type (0, 0), None
#     Edge 88, Type (0, 0), None
#     Edge 89, Type (0, 0), None
#     Edge 90, Type (0, 0), None
#     Edge 91, Type (0, 0), None
#     Edge 92, Type (0, 0), None
#     Edge 93, Type (0, 0), None
#     Edge 94, Type (0, 0), None
#     Edge 95, Type (0, 0), None
#     Edge 96, Type (0, 0), None
#     Edge 97, Type (0, 0), None
#     Edge 98, Type (0, 0), None
#     Edge 99, Type (0, 0), None
#     Edge 100, Type (0, 0), None
#     Edge 101, Type (0, 0), None
#     Edge 102, Type (0, 0), None
#     Edge 103, Type (0, 0), None
#     Edge 104, Type (0, 0), None
#     Edge 105, Type (0, 0), None
#     Edge 106, Type (0, 0), None
#     Edge 107, Type (0, 0), None
#     Edge 108, Type (0, 0), None
#     Edge 109, Type (0, 0), None
#     Edge 110, Type (0, 0), None
#     Edge 111, Type (0, 0), None
#     Edge 112, Type (0, 0), None
#     Edge 113, Type (0, 0), None
#     Edge 114, Type (0, 0), None
#     Edge 115, Type (0, 0), None
#     Edge 116, Type (0, 0), None
#     Edge 117, Type (0, 0), None
#     Edge 118, Type (0, 0), None
#     Edge 119, Type (0, 0), None
#     Edge 120, Type (0, 0), None
#     Edge 121, Type (0, 0), None
#     Edge 122, Type (0, 0), None
#     Edge 123, Type (0, 0), None
#     Edge 124, Type (0, 0), None
#     Edge 125, Type (0, 0), None
#     Edge 126, Type (0, 0), None
#     Edge 127, Type (0, 0), None
#     Edge 128, Type (0, 0), None
#     Edge 129, Type (0, 0), None
#     Edge 130, Type (0, 0), None
#     Edge 131, Type (0, 0), None
#     Edge 132, Type (0, 0), None
#     Edge 133, Type (0, 0), None
#     Edge 134, Type (0, 0), None
#     Edge 135, Type (0, 0), None
#     Edge 136, Type (0, 0), None
#     Edge 137, Type (0, 0), None
#     Edge 138, Type (0, 0), None
#     Edge 139, Type (0, 0), None
#     Edge 140, Type (0, 0), None
#     Edge 141, Type (0, 0), None
#     Edge 142, Type (0, 0), None
#     Edge 143, Type (0, 0), None
# Relax obj value: 0.281
# Max RMSD: 0.164
# Mean RMSD: 0.164
data_MOF--net-uko--node1-CEKHIL_clean_sbu_0--edge1-none
_symmetry_space_group_name_H-M    P1
_symmetry_Int_Tables_number       1
_symmetry_cell_setting            triclinic
loop_
_symmetry_equiv_pos_as_xyz
'x, y, z'
_cell_length_a     24.934709
_cell_length_b     24.931435
_cell_length_c     24.930892
_cell_angle_alpha  89.981081
_cell_angle_beta   89.994462
_cell_angle_gamma 89.998131
loop_
_atom_site_label
_atom_site_type_symbol
_atom_site_fract_x
_atom_site_fract_y
_atom_site_fract_z
_atom_type_partial_charge
Co0 Co 0.05026 0.35645 0.24947 0.0
O1 O 0.06428 0.28157 0.23828 0.0
O2 O 0.98331 0.31701 0.24898 0.0
C3 C 0.10362 0.3892 0.18553 0.0
O4 O 0.02089 0.43266 0.25714 0.0
Co5 Co 0.142 0.42934 0.29119 0.0
O6 O 0.09394 0.48495 0.26354 0.0
C7 C 0.09971 0.34644 0.36024 0.0
C8 C 0.01285 0.27463 0.24164 0.0
C9 C 0.04461 0.47833 0.25247 0.0
O10 O 0.0585 0.34297 0.32929 0.0
O11 O 0.13976 0.37667 0.35063 0.0
O12 O 0.05646 0.37074 0.17322 0.0
O13 O 0.11963 0.38038 0.23415 0.0
Co14 Co 0.95801 0.13628 0.24575 0.0
O15 O 0.93907 0.21137 0.23875 0.0
O16 O 0.02184 0.17916 0.2453 0.0
C17 C 0.90332 0.10261 0.18216 0.0
O18 O 0.99441 0.06318 0.24815 0.0
Co19 Co 0.8784 0.05088 0.28845 0.0
O20 O 0.95078 0.02816 0.31417 0.0
C21 C 0.90553 0.14228 0.35261 0.0
C22 C 0.99041 0.22039 0.241 0.0
C23 C 0.98099 0.02139 0.27428 0.0
O24 O 0.94984 0.14521 0.32605 0.0
O25 O 0.86797 0.10986 0.34059 0.0
O26 O 0.94869 0.12505 0.16922 0.0
O27 O 0.88987 0.10606 0.23221 0.0
Co28 Co 0.04269 0.63411 0.24603 0.0
O29 O 0.0616 0.70893 0.25605 0.0
O30 O 0.9791 0.67744 0.24483 0.0
C31 C 0.09399 0.5973 0.31049 0.0
O32 O 0.00599 0.56122 0.24008 0.0
Co33 Co 0.12532 0.55051 0.20356 0.0
O34 O 0.05375 0.52623 0.17702 0.0
C35 C 0.10017 0.64446 0.14223 0.0
C36 C 0.01049 0.7184 0.25148 0.0
C37 C 0.02278 0.51924 0.21636 0.0
O38 O 0.05445 0.64554 0.16646 0.0
O39 O 0.13759 0.61206 0.1548 0.0
O40 O 0.04855 0.62021 0.32243 0.0
O41 O 0.10998 0.60299 0.26141 0.0
Co42 Co 0.95191 0.85542 0.2439 0.0
O43 O 0.93688 0.78006 0.24996 0.0
O44 O 0.01851 0.81536 0.24781 0.0
C45 C 0.89305 0.88446 0.30493 0.0
O46 O 0.982 0.93163 0.24255 0.0
Co47 Co 0.86306 0.93098 0.19934 0.0
O48 O 0.91234 0.98639 0.22478 0.0
C49 C 0.9097 0.84982 0.13101 0.0
C50 C 0.98837 0.77286 0.25075 0.0
C51 C 0.96017 0.9784 0.24055 0.0
O52 O 0.94989 0.84682 0.16329 0.0
O53 O 0.86846 0.87862 0.13994 0.0
O54 O 0.93917 0.86548 0.32015 0.0
O55 O 0.88168 0.87875 0.25466 0.0
Co56 Co 0.24832 0.04092 0.36661 0.0
O57 O 0.24035 0.06196 0.2923 0.0
O58 O 0.24799 0.97821 0.32136 0.0
C59 C 0.18516 0.09417 0.40275 0.0
O60 O 0.25177 0.00274 0.43886 0.0
Co61 Co 0.29206 0.1209 0.45301 0.0
O62 O 0.31617 0.0477 0.47479 0.0
C63 C 0.35357 0.09544 0.35942 0.0
C64 C 0.24304 0.01106 0.28126 0.0
C65 C 0.27551 0.01845 0.48126 0.0
O66 O 0.32827 0.05033 0.35726 0.0
O67 O 0.34165 0.13265 0.39227 0.0
O68 O 0.17197 0.04948 0.37903 0.0
O69 O 0.23501 0.10807 0.39878 0.0
Co70 Co 0.74817 0.44848 0.35603 0.0
O71 O 0.75716 0.43472 0.28035 0.0
O72 O 0.7468 0.51519 0.31705 0.0
C73 C 0.81337 0.39533 0.38657 0.0
O74 O 0.74251 0.47892 0.43203 0.0
Co75 Co 0.71025 0.35748 0.43201 0.0
O76 O 0.7306 0.40905 0.48778 0.0
C77 C 0.64113 0.39489 0.34691 0.0
C78 C 0.75327 0.48628 0.27417 0.0
C79 C 0.74221 0.45799 0.47924 0.0
O80 O 0.66843 0.43869 0.34537 0.0
O81 O 0.65338 0.35507 0.37649 0.0
O82 O 0.82503 0.4426 0.36782 0.0
O83 O 0.76444 0.37959 0.37991 0.0
Co84 Co 0.25169 0.9609 0.14083 0.0
O85 O 0.24382 0.9404 0.21515 0.0
O86 O 0.248 0.02415 0.18545 0.0
C87 C 0.19053 0.90431 0.10542 0.0
O88 O 0.25428 -0.00217 0.06787 0.0
Co89 Co 0.2986 0.88177 0.05598 0.0
O90 O 0.32151 0.95529 0.03407 0.0
C91 C 0.36151 0.91307 0.14741 0.0
C92 C 0.24394 0.99143 0.22578 0.0
C93 C 0.28036 0.98345 0.02633 0.0
O94 O 0.33222 0.9556 0.15127 0.0
O95 O 0.35153 0.87511 0.11472 0.0
O96 O 0.17577 0.94906 0.12796 0.0
O97 O 0.24094 0.89256 0.10978 0.0
Co98 Co 0.74857 0.54974 0.13953 0.0
O99 O 0.75702 0.56243 0.21525 0.0
O100 O 0.74804 0.48226 0.17755 0.0
C101 C 0.81333 0.60383 0.10953 0.0
O102 O 0.74355 0.52126 0.06271 0.0
Co103 Co 0.7088 0.64247 0.06682 0.0
O104 O 0.73717 0.59482 0.01112 0.0
C105 C 0.63725 0.59827 0.14663 0.0
C106 C 0.75366 0.51081 0.22084 0.0
C107 C 0.74801 0.54536 0.01723 0.0
O108 O 0.66832 0.55719 0.15028 0.0
O109 O 0.64769 0.63903 0.1176 0.0
O110 O 0.82529 0.55654 0.12789 0.0
O111 O 0.76441 0.61955 0.1171 0.0
Co112 Co 0.35109 0.24855 0.04563 0.0
O113 O 0.27549 0.2443 0.06048 0.0
O114 O 0.31071 0.24858 0.97896 0.0
C115 C 0.37819 0.18451 0.10192 0.0
O116 O 0.42777 0.24867 0.0159 0.0
Co117 Co 0.42754 0.28703 0.13697 0.0
O118 O 0.48193 0.25969 0.08747 0.0
C119 C 0.34893 0.35987 0.09256 0.0
C120 C 0.26813 0.24576 0.00905 0.0
C121 C 0.4742 0.24691 0.03868 0.0
O122 O 0.345 0.3293 0.05109 0.0
O123 O 0.37731 0.34843 0.13348 0.0
O124 O 0.35866 0.17144 0.05537 0.0
O125 O 0.37392 0.23441 0.11519 0.0
Co126 Co 0.35271 0.74331 0.44888 0.0
O127 O 0.27748 0.7541 0.43553 0.0
O128 O 0.31442 0.74567 0.51615 0.0
C129 C 0.38485 0.80581 0.39348 0.0
O130 O 0.42887 0.73637 0.47802 0.0
Co131 Co 0.42517 0.69935 0.35786 0.0
O132 O 0.48141 0.72601 0.40563 0.0
C133 C 0.34294 0.63134 0.40302 0.0
C134 C 0.27154 0.75229 0.4872 0.0
C135 C 0.47474 0.73875 0.45453 0.0
O136 O 0.33951 0.66343 0.44327 0.0
O137 O 0.37265 0.64 0.36237 0.0
O138 O 0.36687 0.81924 0.44051 0.0
O139 O 0.376 0.75679 0.37876 0.0
Co140 Co 0.63037 0.74843 0.44919 0.0
O141 O 0.70473 0.74123 0.42733 0.0
O142 O 0.67625 0.74927 0.51122 0.0
C143 C 0.59394 0.68419 0.39705 0.0
O144 O 0.55905 0.75113 0.48896 0.0
Co145 Co 0.54151 0.79018 0.37178 0.0
O146 O 0.52065 0.81501 0.44501 0.0
C147 C 0.63454 0.85373 0.39394 0.0
C148 C 0.71612 0.74453 0.47817 0.0
C149 C 0.51596 0.77485 0.4753 0.0
O150 O 0.63851 0.82851 0.43899 0.0
O151 O 0.60075 0.84111 0.35781 0.0
O152 O 0.61872 0.67181 0.44141 0.0
O153 O 0.597 0.73399 0.38265 0.0
Co154 Co 0.1359 0.7509 0.5482 0.0
O155 O 0.21158 0.75842 0.56281 0.0
O156 O 0.17539 0.74894 0.48195 0.0
C157 C 0.1057 0.81642 0.60145 0.0
O158 O 0.06041 0.74666 0.51647 0.0
Co159 Co 0.05814 0.7134 0.63739 0.0
O160 O 0.00336 0.73507 0.58518 0.0
C161 C 0.1434 0.64375 0.60165 0.0
C162 C 0.21812 0.75422 0.51129 0.0
C163 C 0.01286 0.74691 0.53647 0.0
O164 O 0.14523 0.67092 0.55777 0.0
O165 O 0.11333 0.65614 0.64104 0.0
O166 O 0.12524 0.82797 0.55446 0.0
O167 O 0.11136 0.76725 0.61695 0.0
Co168 Co 0.94463 0.646 0.74248 0.0
O169 O 0.9316 0.72161 0.75262 0.0
O170 O 0.01187 0.68449 0.74274 0.0
C171 C 0.89077 0.61448 0.80663 0.0
O172 O 0.97382 0.5696 0.73595 0.0
Co173 Co 0.8529 0.57229 0.70192 0.0
O174 O 0.90097 0.51701 0.73035 0.0
C175 C 0.89612 0.65333 0.63103 0.0
C176 C 0.98322 0.72752 0.74961 0.0
C177 C 0.95039 0.52383 0.74087 0.0
O178 O 0.93681 0.65814 0.66248 0.0
O179 O 0.85609 0.62316 0.64095 0.0
O180 O 0.93797 0.63286 0.8189 0.0
O181 O 0.875 0.62263 0.75783 0.0
Co182 Co 0.04578 0.86297 0.74971 0.0
O183 O 0.05942 0.78684 0.75448 0.0
O184 O 0.97887 0.82414 0.74812 0.0
C185 C 0.10088 0.89041 0.8148 0.0
O186 O 0.01565 0.93929 0.74856 0.0
Co187 Co 0.1365 0.93987 0.71252 0.0
O188 O 0.0852 0.99508 0.73488 0.0
C189 C 0.09659 0.85786 0.64131 0.0
C190 C 0.00779 0.78089 0.75149 0.0
C191 C 0.03664 0.98645 0.7479 0.0
O192 O 0.05324 0.85648 0.66932 0.0
O193 O 0.13722 0.88611 0.65391 0.0
O194 O 0.054 0.87099 0.82696 0.0
O195 O 0.11518 0.88588 0.76519 0.0
Co196 Co 0.95213 0.3683 0.74666 0.0
O197 O 0.93179 0.29408 0.7369 0.0
O198 O 0.01521 0.32368 0.74611 0.0
C199 C 0.89928 0.4055 0.68355 0.0
O200 O 0.98953 0.44088 0.75218 0.0
Co201 Co 0.87097 0.45231 0.79156 0.0
O202 O 0.94332 0.47584 0.81644 0.0
C203 C 0.89682 0.35735 0.85116 0.0
C204 C 0.98272 0.28341 0.74029 0.0
C205 C 0.97323 0.48287 0.77632 0.0
O206 O 0.94219 0.35661 0.82633 0.0
O207 O 0.85933 0.39007 0.83963 0.0
O208 O 0.94441 0.38256 0.67054 0.0
O209 O 0.8847 0.40001 0.73309 0.0
Co210 Co 0.03388 0.1436 0.75051 0.0
O211 O 0.05376 0.21791 0.74177 0.0
O212 O 0.97023 0.1876 0.74638 0.0
C213 C 0.0906 0.10838 0.68966 0.0
O214 O -0.00214 0.07016 0.75395 0.0
Co215 Co 0.11414 0.06007 0.79794 0.0
O216 O 0.04107 0.03727 0.82137 0.0
C217 C 0.08189 0.15175 0.86016 0.0
C218 C 0.00267 0.22811 0.74169 0.0
C219 C 0.01267 0.02901 0.78048 0.0
O220 O 0.03928 0.15498 0.83092 0.0
O221 O 0.12016 0.11934 0.85039 0.0
O222 O 0.04558 0.1302 0.67469 0.0
O223 O 0.10241 0.11328 0.73999 0.0
Co224 Co 0.74547 0.95472 0.62744 0.0
O225 O 0.75894 0.93527 0.70133 0.0
O226 O 0.7463 0.01822 0.6717 0.0
C227 C 0.80825 0.9031 0.58788 0.0
O228 O 0.73576 0.99101 0.55473 0.0
Co229 Co 0.69932 0.87073 0.54639 0.0
O230 O 0.67082 0.94252 0.52497 0.0
C231 C 0.64259 0.89699 0.64278 0.0
C232 C 0.75466 0.98615 0.7119 0.0
C233 C 0.70965 0.97314 0.51463 0.0
O234 O 0.66664 0.9428 0.64255 0.0
O235 O 0.65387 0.85922 0.61033 0.0
O236 O 0.82112 0.94873 0.60991 0.0
O237 O 0.75943 0.88741 0.5958 0.0
Co238 Co 0.24729 0.54617 0.64023 0.0
O239 O 0.24161 0.56041 0.71605 0.0
O240 O 0.2464 0.47942 0.67933 0.0
C241 C 0.1837 0.60276 0.61168 0.0
O242 O 0.24896 0.5155 0.56417 0.0
Co243 Co 0.28791 0.63494 0.56344 0.0
O244 O 0.25864 0.58614 0.50911 0.0
C245 C 0.35916 0.59207 0.6444 0.0
C246 C 0.2431 0.50874 0.72231 0.0
C247 C 0.24625 0.53737 0.51748 0.0
O248 O 0.32798 0.55108 0.64835 0.0
O249 O 0.34883 0.63241 0.61473 0.0
O250 O 0.17046 0.55614 0.6309 0.0
O251 O 0.23361 0.61611 0.61682 0.0
Co252 Co 0.74875 0.03698 0.85227 0.0
O253 O 0.75401 0.05726 0.7776 0.0
O254 O 0.75282 0.97362 0.80787 0.0
C255 C 0.80925 0.0951 0.88566 0.0
O256 O 0.74919 0.0006 0.92563 0.0
Co257 Co 0.70223 0.11535 0.93811 0.0
O258 O 0.68189 0.04157 0.96143 0.0
C259 C 0.63814 0.08249 0.84794 0.0
C260 C 0.755 0.00619 0.76725 0.0
C261 C 0.72379 0.01419 0.9679 0.0
O262 O 0.66792 0.04031 0.84413 0.0
O263 O 0.6481 0.12084 0.88021 0.0
O264 O 0.82466 0.05071 0.86284 0.0
O265 O 0.75849 0.1056 0.88268 0.0
Co266 Co 0.24857 0.44702 0.85776 0.0
O267 O 0.2379 0.43329 0.78237 0.0
O268 O 0.25191 0.51351 0.81842 0.0
C269 C 0.18196 0.39694 0.89007 0.0
O270 O 0.25639 0.47745 0.93342 0.0
Co271 Co 0.28442 0.35452 0.93312 0.0
O272 O 0.26509 0.40673 0.98849 0.0
C273 C 0.35449 0.39016 0.84841 0.0
C274 C 0.24362 0.48464 0.77582 0.0
C275 C 0.25454 0.45593 0.98029 0.0
O276 O 0.32779 0.43431 0.84605 0.0
O277 O 0.34159 0.3508 0.87827 0.0
O278 O 0.17186 0.44437 0.87086 0.0
O279 O 0.22994 0.37886 0.88233 0.0
Co280 Co 0.64164 0.74408 0.95927 0.0
O281 O 0.71575 0.7502 0.93762 0.0
O282 O 0.68692 0.74736 0.02182 0.0
C283 C 0.60715 0.80562 0.90289 0.0
O284 O 0.56917 0.74332 0.99708 0.0
Co285 Co 0.5552 0.69812 0.88179 0.0
O286 O 0.53372 0.67622 0.95574 0.0
C287 C 0.64568 0.63381 0.91254 0.0
C288 C 0.72687 0.75047 0.98853 0.0
C289 C 0.52703 0.71783 0.98348 0.0
O290 O 0.65021 0.66337 0.95476 0.0
O291 O 0.61283 0.64398 0.87476 0.0
O292 O 0.63039 0.82007 0.94736 0.0
O293 O 0.61014 0.75505 0.89121 0.0
Co294 Co 0.64353 0.24736 0.54685 0.0
O295 O 0.71936 0.23896 0.5595 0.0
O296 O 0.68187 0.24797 0.47933 0.0
C297 C 0.61373 0.18258 0.60109 0.0
O298 O 0.56668 0.2521 0.51816 0.0
Co299 Co 0.56956 0.28628 0.63931 0.0
O300 O 0.51434 0.25762 0.5913 0.0
C301 C 0.64954 0.35842 0.59605 0.0
C302 C 0.72514 0.24219 0.50787 0.0
C303 C 0.52102 0.24704 0.54185 0.0
O304 O 0.65398 0.32764 0.55478 0.0
O305 O 0.62005 0.34759 0.63636 0.0
O306 O 0.63216 0.17055 0.55383 0.0
O307 O 0.62087 0.23159 0.61658 0.0
Co308 Co 0.36538 0.24298 0.53962 0.0
O309 O 0.29163 0.25437 0.56011 0.0
O310 O 0.32072 0.2439 0.47658 0.0
C311 C 0.40261 0.30607 0.59226 0.0
O312 O 0.43802 0.23596 0.50239 0.0
Co313 Co 0.44844 0.1976 0.62111 0.0
O314 O 0.47242 0.17186 0.54926 0.0
C315 C 0.35209 0.13984 0.59666 0.0
C316 C 0.28079 0.25106 0.50924 0.0
C317 C 0.47983 0.21172 0.51908 0.0
O318 O 0.35215 0.16363 0.55069 0.0
O319 O 0.38501 0.15144 0.63395 0.0
O320 O 0.38069 0.31894 0.54659 0.0
O321 O 0.39683 0.25657 0.60686 0.0
Co322 Co 0.86125 0.24695 0.44657 0.0
O323 O 0.78537 0.2394 0.43185 0.0
O324 O 0.82143 0.2471 0.51282 0.0
C325 C 0.89263 0.18302 0.39219 0.0
O326 O 0.93653 0.25081 0.47844 0.0
Co327 Co 0.93929 0.28678 0.3578 0.0
O328 O 0.99374 0.26582 0.41043 0.0
C329 C 0.85478 0.35578 0.39633 0.0
C330 C 0.77869 0.24216 0.48347 0.0
C331 C 0.98412 0.25237 0.45868 0.0
O332 O 0.85214 0.32702 0.43912 0.0
O333 O 0.88462 0.34438 0.35648 0.0
O334 O 0.87239 0.17017 0.43855 0.0
O335 O 0.88643 0.23235 0.3775 0.0
Co336 Co 0.55077 0.85274 0.74892 0.0
O337 O 0.56429 0.77762 0.73872 0.0
O338 O 0.48356 0.81371 0.74891 0.0
C339 C 0.60435 0.88411 0.68459 0.0
O340 O 0.52189 0.92921 0.7556 0.0
Co341 Co 0.6432 0.92585 0.78932 0.0
O342 O 0.59529 0.98119 0.76087 0.0
C343 C 0.60016 0.84435 0.85974 0.0
C344 C 0.51281 0.77105 0.74199 0.0
C345 C 0.54583 0.97471 0.75034 0.0
O346 O 0.55896 0.84044 0.82886 0.0
O347 O 0.64039 0.87418 0.84961 0.0
O348 O 0.55704 0.86588 0.67252 0.0
O349 O 0.6203 0.87597 0.73333 0.0
Co350 Co 0.45699 0.6331 0.74696 0.0
O351 O 0.43857 0.70829 0.7396 0.0
O352 O 0.52114 0.67551 0.74581 0.0
C353 C 0.40159 0.59925 0.68401 0.0
O354 O 0.49284 0.55968 0.74954 0.0
Co355 Co 0.3774 0.54873 0.79104 0.0
O356 O 0.44977 0.52558 0.81641 0.0
C357 C 0.40528 0.64052 0.85416 0.0
C358 C 0.48998 0.71696 0.74157 0.0
C359 C 0.47972 0.51826 0.77642 0.0
O360 O 0.44945 0.64279 0.8273 0.0
O361 O 0.36744 0.60822 0.8427 0.0
O362 O 0.447 0.62133 0.67055 0.0
O363 O 0.38854 0.60325 0.73412 0.0
Co364 Co 0.5449 0.13044 0.74422 0.0
O365 O 0.56418 0.20528 0.75429 0.0
O366 O 0.48145 0.17393 0.74474 0.0
C367 C 0.59768 0.09331 0.80728 0.0
O368 O 0.50768 0.05781 0.7387 0.0
Co369 Co 0.62594 0.0463 0.69971 0.0
O370 O 0.55378 0.02236 0.67464 0.0
C371 C 0.60038 0.14097 0.63962 0.0
C372 C 0.51298 0.21482 0.75103 0.0
C373 C 0.52359 0.01569 0.71461 0.0
O374 O 0.55506 0.1422 0.66457 0.0
O375 O 0.63775 0.10818 0.6513 0.0
O376 O 0.5525 0.11611 0.82035 0.0
O377 O 0.61243 0.09899 0.75783 0.0
Co378 Co 0.45319 0.35153 0.74625 0.0
O379 O 0.43912 0.27604 0.75221 0.0
O380 O 0.52034 0.31204 0.74816 0.0
C381 C 0.39585 0.37982 0.8089 0.0
O382 O 0.48195 0.42835 0.74448 0.0
Co383 Co 0.36153 0.42553 0.7042 0.0
O384 O 0.41043 0.48157 0.72911 0.0
C385 C 0.40869 0.34628 0.63393 0.0
C386 C 0.49064 0.26924 0.75152 0.0
C387 C 0.45888 0.47461 0.74348 0.0
O388 O 0.44935 0.34333 0.66561 0.0
O389 O 0.36705 0.37414 0.64395 0.0
O390 O 0.44242 0.36107 0.82294 0.0
O391 O 0.38306 0.37394 0.759 0.0
Co392 Co 0.74963 0.54267 0.86168 0.0
O393 O 0.73709 0.56264 0.78772 0.0
O394 O 0.74919 0.47952 0.81706 0.0
C395 C 0.68658 0.594 0.90067 0.0
O396 O 0.7582 0.50562 0.93422 0.0
Co397 Co 0.79459 0.6257 0.94455 0.0
O398 O 0.82203 0.55389 0.96701 0.0
C399 C 0.85249 0.60073 0.84826 0.0
C400 C 0.74118 0.51178 0.77697 0.0
C401 C 0.7829 0.52305 0.97543 0.0
O402 O 0.82866 0.55479 0.84776 0.0
O403 O 0.84073 0.63802 0.88112 0.0
O404 O 0.67373 0.54862 0.87812 0.0
O405 O 0.73554 0.60963 0.89371 0.0
Co406 Co 0.25005 0.95018 0.86082 0.0
O407 O 0.2556 0.93637 0.78491 0.0
O408 O 0.24876 0.01706 0.82195 0.0
C409 C 0.31505 0.89529 0.88877 0.0
O410 O 0.2481 0.98048 0.93692 0.0
Co411 Co 0.21262 0.8594 0.93763 0.0
O412 O 0.23466 0.91092 0.99274 0.0
C413 C 0.14147 0.8993 0.85554 0.0
C414 C 0.25275 0.98802 0.77885 0.0
C415 C 0.24747 0.95952 0.98406 0.0
O416 O 0.16974 0.94247 0.8536 0.0
O417 O 0.15386 0.8588 0.8841 0.0
O418 O 0.32719 0.94224 0.86952 0.0
O419 O 0.26552 0.88083 0.88394 0.0
Co420 Co 0.74772 0.46059 0.63684 0.0
O421 O 0.74163 0.44067 0.71145 0.0
O422 O 0.74332 0.52422 0.68091 0.0
C423 C 0.68737 0.4024 0.60303 0.0
O424 O 0.74821 0.4964 0.56319 0.0
Co425 Co 0.79541 0.3817 0.55254 0.0
O426 O 0.81639 0.45533 0.52915 0.0
C427 C 0.8586 0.41545 0.64285 0.0
C428 C 0.74083 0.49177 0.72162 0.0
C429 C 0.77459 0.48258 0.52161 0.0
O430 O 0.82849 0.45743 0.64611 0.0
O431 O 0.84913 0.37677 0.61084 0.0
O432 O 0.67192 0.44701 0.62538 0.0
O433 O 0.73806 0.39168 0.60681 0.0
Co434 Co 0.24457 0.05011 0.64371 0.0
O435 O 0.25568 0.06383 0.71905 0.0
O436 O 0.24382 0.98338 0.68277 0.0
C437 C 0.3096 0.10236 0.61058 0.0
O438 O 0.2366 0.01963 0.56819 0.0
Co439 Co 0.20472 0.14118 0.56924 0.0
O440 O 0.22944 0.09109 0.51406 0.0
C441 C 0.13377 0.10044 0.6512 0.0
C442 C 0.25149 0.01231 0.72543 0.0
C443 C 0.24002 0.04183 0.52178 0.0
O444 O 0.16482 0.05952 0.65656 0.0
O445 O 0.14402 0.1399 0.62042 0.0
O446 O 0.321 0.05517 0.62956 0.0
O447 O 0.26119 0.11922 0.61908 0.0
Co448 Co 0.85602 0.75296 0.53005 0.0
O449 O 0.78143 0.74601 0.54916 0.0
O450 O 0.81238 0.74937 0.46585 0.0
C451 C 0.88923 0.69174 0.58761 0.0
O452 O 0.93013 0.7545 0.49526 0.0
Co453 Co 0.93921 0.79929 0.61179 0.0
O454 O 0.96338 0.82148 0.5388 0.0
C455 C 0.8493 0.86302 0.5773 0.0
C456 C 0.77153 0.74576 0.49803 0.0
C457 C 0.97148 0.78009 0.5111 0.0
O458 O 0.8464 0.83366 0.53474 0.0
O459 O 0.88068 0.85274 0.61629 0.0
O460 O 0.8676 0.67693 0.54244 0.0
O461 O 0.88522 0.74224 0.59905 0.0
Co462 Co 0.85162 0.25048 0.94237 0.0
O463 O 0.77651 0.25956 0.92714 0.0
O464 O 0.8113 0.24992 0.00855 0.0
C465 C 0.88359 0.31537 0.88936 0.0
O466 O 0.92702 0.24478 0.9738 0.0
Co467 Co 0.92789 0.21109 0.85231 0.0
O468 O 0.98177 0.2381 0.90267 0.0
C469 C 0.8469 0.13905 0.89336 0.0
C470 C 0.7691 0.2561 0.97855 0.0
C471 C 0.97355 0.24866 0.95185 0.0
O472 O 0.84083 0.17033 0.93402 0.0
O473 O 0.87772 0.14951 0.85397 0.0
O474 O 0.8639 0.32718 0.93616 0.0
O475 O 0.87659 0.26647 0.87339 0.0
Co476 Co 0.12893 0.25405 0.95535 0.0
O477 O 0.20381 0.24485 0.93588 0.0
O478 O 0.17261 0.25232 0.01885 0.0
C479 C 0.09242 0.19192 0.90116 0.0
O480 O 0.05598 0.25858 0.99208 0.0
Co481 Co 0.04515 0.30009 0.87432 0.0
O482 O 0.02175 0.32404 0.94705 0.0
C483 C 0.13892 0.36011 0.90284 0.0
C484 C 0.2135 0.24696 0.98709 0.0
C485 C 0.01427 0.28335 0.97604 0.0
O486 O 0.13997 0.33389 0.94739 0.0
O487 O 0.10676 0.34915 0.86472 0.0
O488 O 0.11516 0.17811 0.94617 0.0
O489 O 0.09785 0.2417 0.88734 0.0
Co490 Co 0.63164 0.24689 0.03478 0.0
O491 O 0.70638 0.25765 0.05238 0.0
O492 O 0.6735 0.24892 0.97006 0.0
C493 C 0.59619 0.30931 0.08977 0.0
O494 O 0.55767 0.24068 0.0002 0.0
Co495 Co 0.55118 0.20054 0.11739 0.0
O496 O 0.52613 0.17428 0.046 0.0
C497 C 0.64537 0.14137 0.08832 0.0
C498 C 0.71489 0.25528 0.00099 0.0
C499 C 0.51707 0.21388 0.01596 0.0
O500 O 0.64507 0.16715 0.04345 0.0
O501 O 0.61365 0.15231 0.12683 0.0
O502 O 0.61678 0.32286 0.0437 0.0
O503 O 0.60257 0.25963 0.1035 0.0
Co504 Co 0.44222 0.13904 0.25037 0.0
O505 O 0.42907 0.21507 0.25719 0.0
O506 O 0.50915 0.17773 0.24643 0.0
C507 C 0.39063 0.10983 0.31707 0.0
O508 O 0.47158 0.06255 0.24646 0.0
Co509 Co 0.34827 0.06388 0.21593 0.0
O510 O 0.39893 0.0095 0.24125 0.0
C511 C 0.3876 0.14464 0.14308 0.0
C512 C 0.48053 0.22098 0.25197 0.0
C513 C 0.44846 0.01661 0.25101 0.0
O514 O 0.43128 0.14702 0.1705 0.0
O515 O 0.34726 0.11631 0.1564 0.0
O516 O 0.43782 0.12938 0.32765 0.0
O517 O 0.37361 0.11599 0.26851 0.0
Co518 Co 0.54346 0.35608 0.24364 0.0
O519 O 0.55678 0.28021 0.25141 0.0
O520 O 0.47625 0.31756 0.24544 0.0
C521 C 0.60009 0.38538 0.3067 0.0
O522 O 0.51405 0.43271 0.24003 0.0
Co523 Co 0.63364 0.43068 0.20172 0.0
O524 O 0.58497 0.48697 0.22707 0.0
C525 C 0.58946 0.34923 0.13187 0.0
C526 C 0.50509 0.27437 0.25019 0.0
C527 C 0.53625 0.47938 0.24014 0.0
O528 O 0.54852 0.34595 0.16319 0.0
O529 O 0.63022 0.37839 0.14184 0.0
O530 O 0.55315 0.36717 0.3202 0.0
O531 O 0.61362 0.37882 0.25702 0.0
Co532 Co 0.45368 0.86194 0.25042 0.0
O533 O 0.43401 0.78814 0.23711 0.0
O534 O 0.5171 0.81776 0.24891 0.0
C535 C 0.40161 0.90148 0.18816 0.0
O536 O 0.49028 0.93451 0.25976 0.0
Co537 Co 0.37015 0.94308 0.29732 0.0
O538 O 0.44214 0.96543 0.32451 0.0
C539 C 0.39705 0.84676 0.35403 0.0
C540 C 0.48493 0.77762 0.2408 0.0
C541 C 0.47232 0.97504 0.28513 0.0
O542 O 0.44256 0.84679 0.32942 0.0
O543 O 0.3592 0.87924 0.34306 0.0
O544 O 0.4471 0.87945 0.17483 0.0
O545 O 0.38627 0.89361 0.23712 0.0
Co546 Co 0.53628 0.63766 0.24648 0.0
O547 O 0.55616 0.71226 0.24034 0.0
O548 O 0.47265 0.68168 0.2431 0.0
C549 C 0.59365 0.60434 0.18506 0.0
O550 O 0.50026 0.56412 0.24715 0.0
Co551 Co 0.61491 0.55295 0.29258 0.0
O552 O 0.54185 0.52884 0.31452 0.0
C553 C 0.58314 0.6433 0.35666 0.0
C554 C 0.50505 0.72237 0.24017 0.0
C555 C 0.51353 0.52217 0.27327 0.0
O556 O 0.54066 0.64666 0.32726 0.0
O557 O 0.62142 0.611 0.34653 0.0
O558 O 0.54873 0.62659 0.17043 0.0
O559 O 0.60505 0.60767 0.23566 0.0
Co560 Co 0.24709 0.45627 0.13593 0.0
O561 O 0.25424 0.43442 0.20994 0.0
O562 O 0.24793 0.51859 0.18146 0.0
C563 C 0.30971 0.40228 0.10013 0.0
O564 O 0.24453 0.49461 0.06367 0.0
Co565 Co 0.20217 0.3777 0.04964 0.0
O566 O 0.17889 0.45121 0.02789 0.0
C567 C 0.14187 0.40278 0.14389 0.0
C568 C 0.25183 0.48524 0.22129 0.0
C569 C 0.21999 0.47983 0.02137 0.0
O570 O 0.16702 0.44795 0.14525 0.0
O571 O 0.15349 0.36546 0.11106 0.0
O572 O 0.32336 0.44684 0.12382 0.0
O573 O 0.2596 0.38915 0.10376 0.0
Co574 Co 0.75017 0.04713 0.13253 0.0
O575 O 0.73872 0.06055 0.20808 0.0
O576 O 0.74852 0.98015 0.17135 0.0
C577 C 0.68686 0.10184 0.09954 0.0
O578 O 0.75789 0.0166 0.05678 0.0
Co579 Co 0.79301 0.13645 0.05804 0.0
O580 O 0.76892 0.08706 0.00177 0.0
C581 C 0.86142 0.09506 0.14209 0.0
C582 C 0.74124 0.00888 0.2142 0.0
C583 C 0.7572 0.03809 0.00984 0.0
O584 O 0.82998 0.05429 0.14619 0.0
O585 O 0.85223 0.13472 0.11118 0.0
O586 O 0.67409 0.0547 0.1178 0.0
O587 O 0.7358 0.11697 0.10816 0.0
Co588 Co 0.24105 0.53438 0.36152 0.0
O589 O 0.25076 0.55516 0.28768 0.0
O590 O 0.24393 0.47128 0.31675 0.0
C591 C 0.30325 0.58909 0.39714 0.0
O592 O 0.2363 0.49756 0.43452 0.0
Co593 Co 0.19488 0.61519 0.44491 0.0
O594 O 0.17103 0.54277 0.46902 0.0
C595 C 0.13307 0.58535 0.35222 0.0
C596 C 0.24981 0.50426 0.2768 0.0
C597 C 0.21161 0.51364 0.47634 0.0
O598 O 0.16095 0.54182 0.34973 0.0
O599 O 0.14351 0.62333 0.38477 0.0
O600 O 0.31692 0.54364 0.37539 0.0
O601 O 0.25324 0.6024 0.3923 0.0
Co602 Co 0.74146 0.94485 0.34914 0.0
O603 O 0.73449 0.93246 0.27302 0.0
O604 O 0.74398 0.01234 0.31103 0.0
C605 C 0.67586 0.89159 0.3783 0.0
O606 O 0.74535 0.97345 0.42594 0.0
Co607 Co 0.77765 0.85042 0.42328 0.0
O608 O 0.75376 0.90071 0.47866 0.0
C609 C 0.85007 0.89237 0.34321 0.0
C610 C 0.7389 0.98406 0.26752 0.0
C611 C 0.74288 0.95009 0.47195 0.0
O612 O 0.82154 0.93536 0.3405 0.0
O613 O 0.83745 0.85156 0.37122 0.0
O614 O 0.66421 0.93876 0.35926 0.0
O615 O 0.72467 0.87567 0.37165 0.0
Co616 Co 0.14054 0.24565 0.45976 0.0
O617 O 0.21475 0.25166 0.43879 0.0
O618 O 0.18521 0.24865 0.52277 0.0
C619 C 0.1066 0.30742 0.4032 0.0
O620 O 0.06772 0.24484 0.49682 0.0
Co621 Co 0.05517 0.19976 0.38134 0.0
O622 O 0.03281 0.17764 0.45501 0.0
C623 C 0.14494 0.1351 0.4133 0.0
C624 C 0.22543 0.25156 0.48979 0.0
C625 C 0.02584 0.2191 0.48292 0.0
O626 O 0.14917 0.16492 0.45536 0.0
O627 O 0.11252 0.14516 0.37512 0.0
O628 O 0.12944 0.3217 0.44792 0.0
O629 O 0.10976 0.25688 0.39134 0.0
Co630 Co 0.14487 0.74978 0.04883 0.0
O631 O 0.22055 0.74003 0.06183 0.0
O632 O 0.18343 0.74939 0.98153 0.0
C633 C 0.1137 0.68573 0.10332 0.0
O634 O 0.06852 0.75574 0.01919 0.0
Co635 Co 0.07016 0.79028 0.13973 0.0
O636 O 0.01515 0.76179 0.09139 0.0
C637 C 0.15192 0.86109 0.09764 0.0
C638 C 0.22649 0.74288 0.01017 0.0
C639 C 0.02249 0.75089 0.04212 0.0
O640 O 0.15675 0.82996 0.05664 0.0
O641 O 0.12142 0.85095 0.13737 0.0
O642 O 0.1321 0.67321 0.05616 0.0
O643 O 0.12136 0.73477 0.11853 0.0
Co644 Co 0.86717 0.74481 0.03816 0.0
O645 O 0.79325 0.75516 0.05849 0.0
O646 O 0.82241 0.74429 0.97506 0.0
C647 C 0.90343 0.80897 0.09003 0.0
O648 O 0.94011 0.73844 0.00144 0.0
Co649 Co 0.9503 0.70148 0.12117 0.0
O650 O 0.97456 0.67528 0.04953 0.0
C651 C 0.85516 0.64207 0.09606 0.0
C652 C 0.78236 0.75104 0.00772 0.0
C653 C 0.98197 0.71493 0.01908 0.0
O654 O 0.85532 0.66544 0.04989 0.0
O655 O 0.88742 0.6545 0.13365 0.0
O656 O 0.88127 0.82108 0.04426 0.0
O657 O 0.89822 0.75961 0.10528 0.0
Co658 Co 0.36226 0.7459 0.94818 0.0
O659 O 0.28632 0.73867 0.93401 0.0
O660 O 0.3229 0.7465 0.01475 0.0
C661 C 0.39303 0.68157 0.89372 0.0
O662 O 0.43776 0.74958 0.97952 0.0
Co663 Co 0.43962 0.78527 0.85877 0.0
O664 O 0.49448 0.76445 0.9111 0.0
C665 C 0.35585 0.85484 0.89781 0.0
C666 C 0.27995 0.74179 0.98566 0.0
C667 C 0.48521 0.75116 0.95946 0.0
O668 O 0.35332 0.82602 0.94057 0.0
O669 O 0.38537 0.84333 0.85776 0.0
O670 O 0.37309 0.66904 0.9403 0.0
O671 O 0.38688 0.73089 0.87892 0.0
loop_
_geom_bond_atom_site_label_1
_geom_bond_atom_site_label_2
_geom_bond_distance
_geom_bond_site_symmetry_2
_ccdc_geom_bond_type
Co0 O1 2.216 . S
Co0 O2 2.091 1_455 S
Co0 O4 2.004 . S
Co0 O10 2.021 . S
Co0 O12 2.137 . S
Co0 O13 2.244 . S
O1 Co0 2.216 . S
O1 C8 1.247 . S
O2 Co0 2.091 1_655 S
O2 C8 1.261 1_655 S
C3 O12 1.247 . S
C3 O13 1.272 . S
O4 Co0 2.004 . S
O4 C9 1.259 . S
Co5 O6 2.061 . S
Co5 O11 2.052 . S
Co5 O13 2.135 . S
O6 Co5 2.061 . S
O6 C9 1.235 . S
C7 O10 1.238 . S
C7 O11 1.241 . S
C8 O1 1.247 . S
C8 O2 1.261 1_455 S
C9 O4 1.259 . S
C9 O6 1.235 . S
O10 Co0 2.021 . S
O10 C7 1.238 . S
O11 Co5 2.052 . S
O11 C7 1.241 . S
O12 Co0 2.137 . S
O12 C3 1.247 . S
O13 Co0 2.244 . S
O13 C3 1.272 . S
O13 Co5 2.135 . S
Co14 O15 2.216 . S
Co14 O16 2.091 1_655 S
Co14 O18 2.004 . S
Co14 O24 2.021 . S
Co14 O26 2.137 . S
Co14 O27 2.244 . S
O15 Co14 2.216 . S
O15 C22 1.247 . S
O16 Co14 2.091 1_455 S
O16 C22 1.261 1_455 S
C17 O26 1.247 . S
C17 O27 1.272 . S
O18 Co14 2.004 . S
O18 C23 1.259 . S
Co19 O20 2.061 . S
Co19 O25 2.052 . S
Co19 O27 2.135 . S
O20 Co19 2.061 . S
O20 C23 1.235 . S
C21 O24 1.238 . S
C21 O25 1.241 . S
C22 O15 1.247 . S
C22 O16 1.261 1_655 S
C23 O18 1.259 . S
C23 O20 1.235 . S
O24 Co14 2.021 . S
O24 C21 1.238 . S
O25 Co19 2.052 . S
O25 C21 1.241 . S
O26 Co14 2.137 . S
O26 C17 1.247 . S
O27 Co14 2.244 . S
O27 C17 1.272 . S
O27 Co19 2.135 . S
Co28 O29 2.216 . S
Co28 O30 2.091 1_455 S
Co28 O32 2.004 . S
Co28 O38 2.021 . S
Co28 O40 2.137 . S
Co28 O41 2.244 . S
O29 Co28 2.216 . S
O29 C36 1.247 . S
O30 Co28 2.091 1_655 S
O30 C36 1.261 1_655 S
C31 O40 1.247 . S
C31 O41 1.272 . S
O32 Co28 2.004 . S
O32 C37 1.259 . S
Co33 O34 2.061 . S
Co33 O39 2.052 . S
Co33 O41 2.135 . S
O34 Co33 2.061 . S
O34 C37 1.235 . S
C35 O38 1.238 . S
C35 O39 1.241 . S
C36 O29 1.247 . S
C36 O30 1.261 1_455 S
C37 O32 1.259 . S
C37 O34 1.235 . S
O38 Co28 2.021 . S
O38 C35 1.238 . S
O39 Co33 2.052 . S
O39 C35 1.241 . S
O40 Co28 2.137 . S
O40 C31 1.247 . S
O41 Co28 2.244 . S
O41 C31 1.272 . S
O41 Co33 2.135 . S
Co42 O43 2.216 . S
Co42 O44 2.091 1_655 S
Co42 O46 2.004 . S
Co42 O52 2.021 . S
Co42 O54 2.137 . S
Co42 O55 2.244 . S
O43 Co42 2.216 . S
O43 C50 1.247 . S
O44 Co42 2.091 1_455 S
O44 C50 1.261 1_455 S
C45 O54 1.247 . S
C45 O55 1.272 . S
O46 Co42 2.004 . S
O46 C51 1.259 . S
Co47 O48 2.061 . S
Co47 O53 2.052 . S
Co47 O55 2.135 . S
O48 Co47 2.061 . S
O48 C51 1.235 . S
C49 O52 1.238 . S
C49 O53 1.241 . S
C50 O43 1.247 . S
C50 O44 1.261 1_655 S
C51 O46 1.259 . S
C51 O48 1.235 . S
O52 Co42 2.021 . S
O52 C49 1.238 . S
O53 Co47 2.052 . S
O53 C49 1.241 . S
O54 Co42 2.137 . S
O54 C45 1.247 . S
O55 Co42 2.244 . S
O55 C45 1.272 . S
O55 Co47 2.135 . S
Co56 O57 2.216 . S
Co56 O58 2.091 1_545 S
Co56 O60 2.004 . S
Co56 O66 2.021 . S
Co56 O68 2.137 . S
Co56 O69 2.244 . S
O57 Co56 2.216 . S
O57 C64 1.247 . S
O58 Co56 2.091 1_565 S
O58 C64 1.261 1_565 S
C59 O68 1.247 . S
C59 O69 1.272 . S
O60 Co56 2.004 . S
O60 C65 1.259 . S
Co61 O62 2.061 . S
Co61 O67 2.052 . S
Co61 O69 2.135 . S
O62 Co61 2.061 . S
O62 C65 1.235 . S
C63 O66 1.238 . S
C63 O67 1.241 . S
C64 O57 1.247 . S
C64 O58 1.261 1_545 S
C65 O60 1.259 . S
C65 O62 1.235 . S
O66 Co56 2.021 . S
O66 C63 1.238 . S
O67 Co61 2.052 . S
O67 C63 1.241 . S
O68 Co56 2.137 . S
O68 C59 1.247 . S
O69 Co56 2.244 . S
O69 C59 1.272 . S
O69 Co61 2.135 . S
Co70 O71 2.216 . S
Co70 O72 2.091 . S
Co70 O74 2.004 . S
Co70 O80 2.021 . S
Co70 O82 2.137 . S
Co70 O83 2.244 . S
O71 Co70 2.216 . S
O71 C78 1.247 . S
O72 Co70 2.091 . S
O72 C78 1.261 . S
C73 O82 1.247 . S
C73 O83 1.272 . S
O74 Co70 2.004 . S
O74 C79 1.259 . S
Co75 O76 2.061 . S
Co75 O81 2.052 . S
Co75 O83 2.135 . S
O76 Co75 2.061 . S
O76 C79 1.235 . S
C77 O80 1.238 . S
C77 O81 1.241 . S
C78 O71 1.247 . S
C78 O72 1.261 . S
C79 O74 1.259 . S
C79 O76 1.235 . S
O80 Co70 2.021 . S
O80 C77 1.238 . S
O81 Co75 2.052 . S
O81 C77 1.241 . S
O82 Co70 2.137 . S
O82 C73 1.247 . S
O83 Co70 2.244 . S
O83 C73 1.272 . S
O83 Co75 2.135 . S
Co84 O85 2.216 . S
Co84 O86 2.091 1_565 S
Co84 O88 2.004 . S
Co84 O94 2.021 . S
Co84 O96 2.137 . S
Co84 O97 2.244 . S
O85 Co84 2.216 . S
O85 C92 1.247 . S
O86 Co84 2.091 1_545 S
O86 C92 1.261 1_545 S
C87 O96 1.247 . S
C87 O97 1.272 . S
O88 Co84 2.004 . S
O88 C93 1.259 . S
Co89 O90 2.061 . S
Co89 O95 2.052 . S
Co89 O97 2.135 . S
O90 Co89 2.061 . S
O90 C93 1.235 . S
C91 O94 1.238 . S
C91 O95 1.241 . S
C92 O85 1.247 . S
C92 O86 1.261 1_565 S
C93 O88 1.259 . S
C93 O90 1.235 . S
O94 Co84 2.021 . S
O94 C91 1.238 . S
O95 Co89 2.052 . S
O95 C91 1.241 . S
O96 Co84 2.137 . S
O96 C87 1.247 . S
O97 Co84 2.244 . S
O97 C87 1.272 . S
O97 Co89 2.135 . S
Co98 O99 2.216 . S
Co98 O100 2.091 . S
Co98 O102 2.004 . S
Co98 O108 2.021 . S
Co98 O110 2.137 . S
Co98 O111 2.244 . S
O99 Co98 2.216 . S
O99 C106 1.247 . S
O100 Co98 2.091 . S
O100 C106 1.261 . S
C101 O110 1.247 . S
C101 O111 1.272 . S
O102 Co98 2.004 . S
O102 C107 1.259 . S
Co103 O104 2.061 . S
Co103 O109 2.052 . S
Co103 O111 2.135 . S
O104 Co103 2.061 . S
O104 C107 1.235 . S
C105 O108 1.238 . S
C105 O109 1.241 . S
C106 O99 1.247 . S
C106 O100 1.261 . S
C107 O102 1.259 . S
C107 O104 1.235 . S
O108 Co98 2.021 . S
O108 C105 1.238 . S
O109 Co103 2.052 . S
O109 C105 1.241 . S
O110 Co98 2.137 . S
O110 C101 1.247 . S
O111 Co98 2.244 . S
O111 C101 1.272 . S
O111 Co103 2.135 . S
Co112 O113 2.216 . S
Co112 O114 2.091 1_554 S
Co112 O116 2.004 . S
Co112 O122 2.021 . S
Co112 O124 2.137 . S
Co112 O125 2.244 . S
O113 Co112 2.216 . S
O113 C120 1.247 . S
O114 Co112 2.091 1_556 S
O114 C120 1.261 1_556 S
C115 O124 1.247 . S
C115 O125 1.272 . S
O116 Co112 2.004 . S
O116 C121 1.259 . S
Co117 O118 2.061 . S
Co117 O123 2.052 . S
Co117 O125 2.135 . S
O118 Co117 2.061 . S
O118 C121 1.235 . S
C119 O122 1.238 . S
C119 O123 1.241 . S
C120 O113 1.247 . S
C120 O114 1.261 1_554 S
C121 O116 1.259 . S
C121 O118 1.235 . S
O122 Co112 2.021 . S
O122 C119 1.238 . S
O123 Co117 2.052 . S
O123 C119 1.241 . S
O124 Co112 2.137 . S
O124 C115 1.247 . S
O125 Co112 2.244 . S
O125 C115 1.272 . S
O125 Co117 2.135 . S
Co126 O127 2.216 . S
Co126 O128 2.091 . S
Co126 O130 2.004 . S
Co126 O136 2.021 . S
Co126 O138 2.137 . S
Co126 O139 2.244 . S
O127 Co126 2.216 . S
O127 C134 1.247 . S
O128 Co126 2.091 . S
O128 C134 1.261 . S
C129 O138 1.247 . S
C129 O139 1.272 . S
O130 Co126 2.004 . S
O130 C135 1.259 . S
Co131 O132 2.061 . S
Co131 O137 2.052 . S
Co131 O139 2.135 . S
O132 Co131 2.061 . S
O132 C135 1.235 . S
C133 O136 1.238 . S
C133 O137 1.241 . S
C134 O127 1.247 . S
C134 O128 1.261 . S
C135 O130 1.259 . S
C135 O132 1.235 . S
O136 Co126 2.021 . S
O136 C133 1.238 . S
O137 Co131 2.052 . S
O137 C133 1.241 . S
O138 Co126 2.137 . S
O138 C129 1.247 . S
O139 Co126 2.244 . S
O139 C129 1.272 . S
O139 Co131 2.135 . S
Co140 O141 2.216 . S
Co140 O142 2.091 . S
Co140 O144 2.004 . S
Co140 O150 2.021 . S
Co140 O152 2.137 . S
Co140 O153 2.244 . S
O141 Co140 2.216 . S
O141 C148 1.247 . S
O142 Co140 2.091 . S
O142 C148 1.261 . S
C143 O152 1.247 . S
C143 O153 1.272 . S
O144 Co140 2.004 . S
O144 C149 1.259 . S
Co145 O146 2.061 . S
Co145 O151 2.052 . S
Co145 O153 2.135 . S
O146 Co145 2.061 . S
O146 C149 1.235 . S
C147 O150 1.238 . S
C147 O151 1.241 . S
C148 O141 1.247 . S
C148 O142 1.261 . S
C149 O144 1.259 . S
C149 O146 1.235 . S
O150 Co140 2.021 . S
O150 C147 1.238 . S
O151 Co145 2.052 . S
O151 C147 1.241 . S
O152 Co140 2.137 . S
O152 C143 1.247 . S
O153 Co140 2.244 . S
O153 C143 1.272 . S
O153 Co145 2.135 . S
Co154 O155 2.216 . S
Co154 O156 2.091 . S
Co154 O158 2.004 . S
Co154 O164 2.021 . S
Co154 O166 2.137 . S
Co154 O167 2.244 . S
O155 Co154 2.216 . S
O155 C162 1.247 . S
O156 Co154 2.091 . S
O156 C162 1.261 . S
C157 O166 1.247 . S
C157 O167 1.272 . S
O158 Co154 2.004 . S
O158 C163 1.259 . S
Co159 O160 2.061 . S
Co159 O165 2.052 . S
Co159 O167 2.135 . S
O160 Co159 2.061 . S
O160 C163 1.235 . S
C161 O164 1.238 . S
C161 O165 1.241 . S
C162 O155 1.247 . S
C162 O156 1.261 . S
C163 O158 1.259 . S
C163 O160 1.235 . S
O164 Co154 2.021 . S
O164 C161 1.238 . S
O165 Co159 2.052 . S
O165 C161 1.241 . S
O166 Co154 2.137 . S
O166 C157 1.247 . S
O167 Co154 2.244 . S
O167 C157 1.272 . S
O167 Co159 2.135 . S
Co168 O169 2.216 . S
Co168 O170 2.091 1_655 S
Co168 O172 2.004 . S
Co168 O178 2.021 . S
Co168 O180 2.137 . S
Co168 O181 2.244 . S
O169 Co168 2.216 . S
O169 C176 1.247 . S
O170 Co168 2.091 1_455 S
O170 C176 1.261 1_455 S
C171 O180 1.247 . S
C171 O181 1.272 . S
O172 Co168 2.004 . S
O172 C177 1.259 . S
Co173 O174 2.061 . S
Co173 O179 2.052 . S
Co173 O181 2.135 . S
O174 Co173 2.061 . S
O174 C177 1.235 . S
C175 O178 1.238 . S
C175 O179 1.241 . S
C176 O169 1.247 . S
C176 O170 1.261 1_655 S
C177 O172 1.259 . S
C177 O174 1.235 . S
O178 Co168 2.021 . S
O178 C175 1.238 . S
O179 Co173 2.052 . S
O179 C175 1.241 . S
O180 Co168 2.137 . S
O180 C171 1.247 . S
O181 Co168 2.244 . S
O181 C171 1.272 . S
O181 Co173 2.135 . S
Co182 O183 2.216 . S
Co182 O184 2.091 1_455 S
Co182 O186 2.004 . S
Co182 O192 2.021 . S
Co182 O194 2.137 . S
Co182 O195 2.244 . S
O183 Co182 2.216 . S
O183 C190 1.247 . S
O184 Co182 2.091 1_655 S
O184 C190 1.261 1_655 S
C185 O194 1.247 . S
C185 O195 1.272 . S
O186 Co182 2.004 . S
O186 C191 1.259 . S
Co187 O188 2.061 . S
Co187 O193 2.052 . S
Co187 O195 2.135 . S
O188 Co187 2.061 . S
O188 C191 1.235 . S
C189 O192 1.238 . S
C189 O193 1.241 . S
C190 O183 1.247 . S
C190 O184 1.261 1_455 S
C191 O186 1.259 . S
C191 O188 1.235 . S
O192 Co182 2.021 . S
O192 C189 1.238 . S
O193 Co187 2.052 . S
O193 C189 1.241 . S
O194 Co182 2.137 . S
O194 C185 1.247 . S
O195 Co182 2.244 . S
O195 C185 1.272 . S
O195 Co187 2.135 . S
Co196 O197 2.216 . S
Co196 O198 2.091 1_655 S
Co196 O200 2.004 . S
Co196 O206 2.021 . S
Co196 O208 2.137 . S
Co196 O209 2.244 . S
O197 Co196 2.216 . S
O197 C204 1.247 . S
O198 Co196 2.091 1_455 S
O198 C204 1.261 1_455 S
C199 O208 1.247 . S
C199 O209 1.272 . S
O200 Co196 2.004 . S
O200 C205 1.259 . S
Co201 O202 2.061 . S
Co201 O207 2.052 . S
Co201 O209 2.135 . S
O202 Co201 2.061 . S
O202 C205 1.235 . S
C203 O206 1.238 . S
C203 O207 1.241 . S
C204 O197 1.247 . S
C204 O198 1.261 1_655 S
C205 O200 1.259 . S
C205 O202 1.235 . S
O206 Co196 2.021 . S
O206 C203 1.238 . S
O207 Co201 2.052 . S
O207 C203 1.241 . S
O208 Co196 2.137 . S
O208 C199 1.247 . S
O209 Co196 2.244 . S
O209 C199 1.272 . S
O209 Co201 2.135 . S
Co210 O211 2.216 . S
Co210 O212 2.091 1_455 S
Co210 O214 2.004 . S
Co210 O220 2.021 . S
Co210 O222 2.137 . S
Co210 O223 2.244 . S
O211 Co210 2.216 . S
O211 C218 1.247 . S
O212 Co210 2.091 1_655 S
O212 C218 1.261 1_655 S
C213 O222 1.247 . S
C213 O223 1.272 . S
O214 Co210 2.004 . S
O214 C219 1.259 . S
Co215 O216 2.061 . S
Co215 O221 2.052 . S
Co215 O223 2.135 . S
O216 Co215 2.061 . S
O216 C219 1.235 . S
C217 O220 1.238 . S
C217 O221 1.241 . S
C218 O211 1.247 . S
C218 O212 1.261 1_455 S
C219 O214 1.259 . S
C219 O216 1.235 . S
O220 Co210 2.021 . S
O220 C217 1.238 . S
O221 Co215 2.052 . S
O221 C217 1.241 . S
O222 Co210 2.137 . S
O222 C213 1.247 . S
O223 Co210 2.244 . S
O223 C213 1.272 . S
O223 Co215 2.135 . S
Co224 O225 2.216 . S
Co224 O226 2.091 1_565 S
Co224 O228 2.004 . S
Co224 O234 2.021 . S
Co224 O236 2.137 . S
Co224 O237 2.244 . S
O225 Co224 2.216 . S
O225 C232 1.247 . S
O226 Co224 2.091 1_545 S
O226 C232 1.261 1_545 S
C227 O236 1.247 . S
C227 O237 1.272 . S
O228 Co224 2.004 . S
O228 C233 1.259 . S
Co229 O230 2.061 . S
Co229 O235 2.052 . S
Co229 O237 2.135 . S
O230 Co229 2.061 . S
O230 C233 1.235 . S
C231 O234 1.238 . S
C231 O235 1.241 . S
C232 O225 1.247 . S
C232 O226 1.261 1_565 S
C233 O228 1.259 . S
C233 O230 1.235 . S
O234 Co224 2.021 . S
O234 C231 1.238 . S
O235 Co229 2.052 . S
O235 C231 1.241 . S
O236 Co224 2.137 . S
O236 C227 1.247 . S
O237 Co224 2.244 . S
O237 C227 1.272 . S
O237 Co229 2.135 . S
Co238 O239 2.216 . S
Co238 O240 2.091 . S
Co238 O242 2.004 . S
Co238 O248 2.021 . S
Co238 O250 2.137 . S
Co238 O251 2.244 . S
O239 Co238 2.216 . S
O239 C246 1.247 . S
O240 Co238 2.091 . S
O240 C246 1.261 . S
C241 O250 1.247 . S
C241 O251 1.272 . S
O242 Co238 2.004 . S
O242 C247 1.259 . S
Co243 O244 2.061 . S
Co243 O249 2.052 . S
Co243 O251 2.135 . S
O244 Co243 2.061 . S
O244 C247 1.235 . S
C245 O248 1.238 . S
C245 O249 1.241 . S
C246 O239 1.247 . S
C246 O240 1.261 . S
C247 O242 1.259 . S
C247 O244 1.235 . S
O248 Co238 2.021 . S
O248 C245 1.238 . S
O249 Co243 2.052 . S
O249 C245 1.241 . S
O250 Co238 2.137 . S
O250 C241 1.247 . S
O251 Co238 2.244 . S
O251 C241 1.272 . S
O251 Co243 2.135 . S
Co252 O253 2.216 . S
Co252 O254 2.091 1_545 S
Co252 O256 2.004 . S
Co252 O262 2.021 . S
Co252 O264 2.137 . S
Co252 O265 2.244 . S
O253 Co252 2.216 . S
O253 C260 1.247 . S
O254 Co252 2.091 1_565 S
O254 C260 1.261 1_565 S
C255 O264 1.247 . S
C255 O265 1.272 . S
O256 Co252 2.004 . S
O256 C261 1.259 . S
Co257 O258 2.061 . S
Co257 O263 2.052 . S
Co257 O265 2.135 . S
O258 Co257 2.061 . S
O258 C261 1.235 . S
C259 O262 1.238 . S
C259 O263 1.241 . S
C260 O253 1.247 . S
C260 O254 1.261 1_545 S
C261 O256 1.259 . S
C261 O258 1.235 . S
O262 Co252 2.021 . S
O262 C259 1.238 . S
O263 Co257 2.052 . S
O263 C259 1.241 . S
O264 Co252 2.137 . S
O264 C255 1.247 . S
O265 Co252 2.244 . S
O265 C255 1.272 . S
O265 Co257 2.135 . S
Co266 O267 2.216 . S
Co266 O268 2.091 . S
Co266 O270 2.004 . S
Co266 O276 2.021 . S
Co266 O278 2.137 . S
Co266 O279 2.244 . S
O267 Co266 2.216 . S
O267 C274 1.247 . S
O268 Co266 2.091 . S
O268 C274 1.261 . S
C269 O278 1.247 . S
C269 O279 1.272 . S
O270 Co266 2.004 . S
O270 C275 1.259 . S
Co271 O272 2.061 . S
Co271 O277 2.052 . S
Co271 O279 2.135 . S
O272 Co271 2.061 . S
O272 C275 1.235 . S
C273 O276 1.238 . S
C273 O277 1.241 . S
C274 O267 1.247 . S
C274 O268 1.261 . S
C275 O270 1.259 . S
C275 O272 1.235 . S
O276 Co266 2.021 . S
O276 C273 1.238 . S
O277 Co271 2.052 . S
O277 C273 1.241 . S
O278 Co266 2.137 . S
O278 C269 1.247 . S
O279 Co266 2.244 . S
O279 C269 1.272 . S
O279 Co271 2.135 . S
Co280 O281 2.216 . S
Co280 O282 2.091 1_556 S
Co280 O284 2.004 . S
Co280 O290 2.021 . S
Co280 O292 2.137 . S
Co280 O293 2.244 . S
O281 Co280 2.216 . S
O281 C288 1.247 . S
O282 Co280 2.091 1_554 S
O282 C288 1.261 1_554 S
C283 O292 1.247 . S
C283 O293 1.272 . S
O284 Co280 2.004 . S
O284 C289 1.259 . S
Co285 O286 2.061 . S
Co285 O291 2.052 . S
Co285 O293 2.135 . S
O286 Co285 2.061 . S
O286 C289 1.235 . S
C287 O290 1.238 . S
C287 O291 1.241 . S
C288 O281 1.247 . S
C288 O282 1.261 1_556 S
C289 O284 1.259 . S
C289 O286 1.235 . S
O290 Co280 2.021 . S
O290 C287 1.238 . S
O291 Co285 2.052 . S
O291 C287 1.241 . S
O292 Co280 2.137 . S
O292 C283 1.247 . S
O293 Co280 2.244 . S
O293 C283 1.272 . S
O293 Co285 2.135 . S
Co294 O295 2.216 . S
Co294 O296 2.091 . S
Co294 O298 2.004 . S
Co294 O304 2.021 . S
Co294 O306 2.137 . S
Co294 O307 2.244 . S
O295 Co294 2.216 . S
O295 C302 1.247 . S
O296 Co294 2.091 . S
O296 C302 1.261 . S
C297 O306 1.247 . S
C297 O307 1.272 . S
O298 Co294 2.004 . S
O298 C303 1.259 . S
Co299 O300 2.061 . S
Co299 O305 2.052 . S
Co299 O307 2.135 . S
O300 Co299 2.061 . S
O300 C303 1.235 . S
C301 O304 1.238 . S
C301 O305 1.241 . S
C302 O295 1.247 . S
C302 O296 1.261 . S
C303 O298 1.259 . S
C303 O300 1.235 . S
O304 Co294 2.021 . S
O304 C301 1.238 . S
O305 Co299 2.052 . S
O305 C301 1.241 . S
O306 Co294 2.137 . S
O306 C297 1.247 . S
O307 Co294 2.244 . S
O307 C297 1.272 . S
O307 Co299 2.135 . S
Co308 O309 2.216 . S
Co308 O310 2.091 . S
Co308 O312 2.004 . S
Co308 O318 2.021 . S
Co308 O320 2.137 . S
Co308 O321 2.244 . S
O309 Co308 2.216 . S
O309 C316 1.247 . S
O310 Co308 2.091 . S
O310 C316 1.261 . S
C311 O320 1.247 . S
C311 O321 1.272 . S
O312 Co308 2.004 . S
O312 C317 1.259 . S
Co313 O314 2.061 . S
Co313 O319 2.052 . S
Co313 O321 2.135 . S
O314 Co313 2.061 . S
O314 C317 1.235 . S
C315 O318 1.238 . S
C315 O319 1.241 . S
C316 O309 1.247 . S
C316 O310 1.261 . S
C317 O312 1.259 . S
C317 O314 1.235 . S
O318 Co308 2.021 . S
O318 C315 1.238 . S
O319 Co313 2.052 . S
O319 C315 1.241 . S
O320 Co308 2.137 . S
O320 C311 1.247 . S
O321 Co308 2.244 . S
O321 C311 1.272 . S
O321 Co313 2.135 . S
Co322 O323 2.216 . S
Co322 O324 2.091 . S
Co322 O326 2.004 . S
Co322 O332 2.021 . S
Co322 O334 2.137 . S
Co322 O335 2.244 . S
O323 Co322 2.216 . S
O323 C330 1.247 . S
O324 Co322 2.091 . S
O324 C330 1.261 . S
C325 O334 1.247 . S
C325 O335 1.272 . S
O326 Co322 2.004 . S
O326 C331 1.259 . S
Co327 O328 2.061 . S
Co327 O333 2.052 . S
Co327 O335 2.135 . S
O328 Co327 2.061 . S
O328 C331 1.235 . S
C329 O332 1.238 . S
C329 O333 1.241 . S
C330 O323 1.247 . S
C330 O324 1.261 . S
C331 O326 1.259 . S
C331 O328 1.235 . S
O332 Co322 2.021 . S
O332 C329 1.238 . S
O333 Co327 2.052 . S
O333 C329 1.241 . S
O334 Co322 2.137 . S
O334 C325 1.247 . S
O335 Co322 2.244 . S
O335 C325 1.272 . S
O335 Co327 2.135 . S
Co336 O337 2.216 . S
Co336 O338 2.091 . S
Co336 O340 2.004 . S
Co336 O346 2.021 . S
Co336 O348 2.137 . S
Co336 O349 2.244 . S
O337 Co336 2.216 . S
O337 C344 1.247 . S
O338 Co336 2.091 . S
O338 C344 1.261 . S
C339 O348 1.247 . S
C339 O349 1.272 . S
O340 Co336 2.004 . S
O340 C345 1.259 . S
Co341 O342 2.061 . S
Co341 O347 2.052 . S
Co341 O349 2.135 . S
O342 Co341 2.061 . S
O342 C345 1.235 . S
C343 O346 1.238 . S
C343 O347 1.241 . S
C344 O337 1.247 . S
C344 O338 1.261 . S
C345 O340 1.259 . S
C345 O342 1.235 . S
O346 Co336 2.021 . S
O346 C343 1.238 . S
O347 Co341 2.052 . S
O347 C343 1.241 . S
O348 Co336 2.137 . S
O348 C339 1.247 . S
O349 Co336 2.244 . S
O349 C339 1.272 . S
O349 Co341 2.135 . S
Co350 O351 2.216 . S
Co350 O352 2.091 . S
Co350 O354 2.004 . S
Co350 O360 2.021 . S
Co350 O362 2.137 . S
Co350 O363 2.244 . S
O351 Co350 2.216 . S
O351 C358 1.247 . S
O352 Co350 2.091 . S
O352 C358 1.261 . S
C353 O362 1.247 . S
C353 O363 1.272 . S
O354 Co350 2.004 . S
O354 C359 1.259 . S
Co355 O356 2.061 . S
Co355 O361 2.052 . S
Co355 O363 2.135 . S
O356 Co355 2.061 . S
O356 C359 1.235 . S
C357 O360 1.238 . S
C357 O361 1.241 . S
C358 O351 1.247 . S
C358 O352 1.261 . S
C359 O354 1.259 . S
C359 O356 1.235 . S
O360 Co350 2.021 . S
O360 C357 1.238 . S
O361 Co355 2.052 . S
O361 C357 1.241 . S
O362 Co350 2.137 . S
O362 C353 1.247 . S
O363 Co350 2.244 . S
O363 C353 1.272 . S
O363 Co355 2.135 . S
Co364 O365 2.216 . S
Co364 O366 2.091 . S
Co364 O368 2.004 . S
Co364 O374 2.021 . S
Co364 O376 2.137 . S
Co364 O377 2.244 . S
O365 Co364 2.216 . S
O365 C372 1.247 . S
O366 Co364 2.091 . S
O366 C372 1.261 . S
C367 O376 1.247 . S
C367 O377 1.272 . S
O368 Co364 2.004 . S
O368 C373 1.259 . S
Co369 O370 2.061 . S
Co369 O375 2.052 . S
Co369 O377 2.135 . S
O370 Co369 2.061 . S
O370 C373 1.235 . S
C371 O374 1.238 . S
C371 O375 1.241 . S
C372 O365 1.247 . S
C372 O366 1.261 . S
C373 O368 1.259 . S
C373 O370 1.235 . S
O374 Co364 2.021 . S
O374 C371 1.238 . S
O375 Co369 2.052 . S
O375 C371 1.241 . S
O376 Co364 2.137 . S
O376 C367 1.247 . S
O377 Co364 2.244 . S
O377 C367 1.272 . S
O377 Co369 2.135 . S
Co378 O379 2.216 . S
Co378 O380 2.091 . S
Co378 O382 2.004 . S
Co378 O388 2.021 . S
Co378 O390 2.137 . S
Co378 O391 2.244 . S
O379 Co378 2.216 . S
O379 C386 1.247 . S
O380 Co378 2.091 . S
O380 C386 1.261 . S
C381 O390 1.247 . S
C381 O391 1.272 . S
O382 Co378 2.004 . S
O382 C387 1.259 . S
Co383 O384 2.061 . S
Co383 O389 2.052 . S
Co383 O391 2.135 . S
O384 Co383 2.061 . S
O384 C387 1.235 . S
C385 O388 1.238 . S
C385 O389 1.241 . S
C386 O379 1.247 . S
C386 O380 1.261 . S
C387 O382 1.259 . S
C387 O384 1.235 . S
O388 Co378 2.021 . S
O388 C385 1.238 . S
O389 Co383 2.052 . S
O389 C385 1.241 . S
O390 Co378 2.137 . S
O390 C381 1.247 . S
O391 Co378 2.244 . S
O391 C381 1.272 . S
O391 Co383 2.135 . S
Co392 O393 2.216 . S
Co392 O394 2.091 . S
Co392 O396 2.004 . S
Co392 O402 2.021 . S
Co392 O404 2.137 . S
Co392 O405 2.244 . S
O393 Co392 2.216 . S
O393 C400 1.247 . S
O394 Co392 2.091 . S
O394 C400 1.261 . S
C395 O404 1.247 . S
C395 O405 1.272 . S
O396 Co392 2.004 . S
O396 C401 1.259 . S
Co397 O398 2.061 . S
Co397 O403 2.052 . S
Co397 O405 2.135 . S
O398 Co397 2.061 . S
O398 C401 1.235 . S
C399 O402 1.238 . S
C399 O403 1.241 . S
C400 O393 1.247 . S
C400 O394 1.261 . S
C401 O396 1.259 . S
C401 O398 1.235 . S
O402 Co392 2.021 . S
O402 C399 1.238 . S
O403 Co397 2.052 . S
O403 C399 1.241 . S
O404 Co392 2.137 . S
O404 C395 1.247 . S
O405 Co392 2.244 . S
O405 C395 1.272 . S
O405 Co397 2.135 . S
Co406 O407 2.216 . S
Co406 O408 2.091 1_565 S
Co406 O410 2.004 . S
Co406 O416 2.021 . S
Co406 O418 2.137 . S
Co406 O419 2.244 . S
O407 Co406 2.216 . S
O407 C414 1.247 . S
O408 Co406 2.091 1_545 S
O408 C414 1.261 1_545 S
C409 O418 1.247 . S
C409 O419 1.272 . S
O410 Co406 2.004 . S
O410 C415 1.259 . S
Co411 O412 2.061 . S
Co411 O417 2.052 . S
Co411 O419 2.135 . S
O412 Co411 2.061 . S
O412 C415 1.235 . S
C413 O416 1.238 . S
C413 O417 1.241 . S
C414 O407 1.247 . S
C414 O408 1.261 1_565 S
C415 O410 1.259 . S
C415 O412 1.235 . S
O416 Co406 2.021 . S
O416 C413 1.238 . S
O417 Co411 2.052 . S
O417 C413 1.241 . S
O418 Co406 2.137 . S
O418 C409 1.247 . S
O419 Co406 2.244 . S
O419 C409 1.272 . S
O419 Co411 2.135 . S
Co420 O421 2.216 . S
Co420 O422 2.091 . S
Co420 O424 2.004 . S
Co420 O430 2.021 . S
Co420 O432 2.137 . S
Co420 O433 2.244 . S
O421 Co420 2.216 . S
O421 C428 1.247 . S
O422 Co420 2.091 . S
O422 C428 1.261 . S
C423 O432 1.247 . S
C423 O433 1.272 . S
O424 Co420 2.004 . S
O424 C429 1.259 . S
Co425 O426 2.061 . S
Co425 O431 2.052 . S
Co425 O433 2.135 . S
O426 Co425 2.061 . S
O426 C429 1.235 . S
C427 O430 1.238 . S
C427 O431 1.241 . S
C428 O421 1.247 . S
C428 O422 1.261 . S
C429 O424 1.259 . S
C429 O426 1.235 . S
O430 Co420 2.021 . S
O430 C427 1.238 . S
O431 Co425 2.052 . S
O431 C427 1.241 . S
O432 Co420 2.137 . S
O432 C423 1.247 . S
O433 Co420 2.244 . S
O433 C423 1.272 . S
O433 Co425 2.135 . S
Co434 O435 2.216 . S
Co434 O436 2.091 1_545 S
Co434 O438 2.004 . S
Co434 O444 2.021 . S
Co434 O446 2.137 . S
Co434 O447 2.244 . S
O435 Co434 2.216 . S
O435 C442 1.247 . S
O436 Co434 2.091 1_565 S
O436 C442 1.261 1_565 S
C437 O446 1.247 . S
C437 O447 1.272 . S
O438 Co434 2.004 . S
O438 C443 1.259 . S
Co439 O440 2.061 . S
Co439 O445 2.052 . S
Co439 O447 2.135 . S
O440 Co439 2.061 . S
O440 C443 1.235 . S
C441 O444 1.238 . S
C441 O445 1.241 . S
C442 O435 1.247 . S
C442 O436 1.261 1_545 S
C443 O438 1.259 . S
C443 O440 1.235 . S
O444 Co434 2.021 . S
O444 C441 1.238 . S
O445 Co439 2.052 . S
O445 C441 1.241 . S
O446 Co434 2.137 . S
O446 C437 1.247 . S
O447 Co434 2.244 . S
O447 C437 1.272 . S
O447 Co439 2.135 . S
Co448 O449 2.216 . S
Co448 O450 2.091 . S
Co448 O452 2.004 . S
Co448 O458 2.021 . S
Co448 O460 2.137 . S
Co448 O461 2.244 . S
O449 Co448 2.216 . S
O449 C456 1.247 . S
O450 Co448 2.091 . S
O450 C456 1.261 . S
C451 O460 1.247 . S
C451 O461 1.272 . S
O452 Co448 2.004 . S
O452 C457 1.259 . S
Co453 O454 2.061 . S
Co453 O459 2.052 . S
Co453 O461 2.135 . S
O454 Co453 2.061 . S
O454 C457 1.235 . S
C455 O458 1.238 . S
C455 O459 1.241 . S
C456 O449 1.247 . S
C456 O450 1.261 . S
C457 O452 1.259 . S
C457 O454 1.235 . S
O458 Co448 2.021 . S
O458 C455 1.238 . S
O459 Co453 2.052 . S
O459 C455 1.241 . S
O460 Co448 2.137 . S
O460 C451 1.247 . S
O461 Co448 2.244 . S
O461 C451 1.272 . S
O461 Co453 2.135 . S
Co462 O463 2.216 . S
Co462 O464 2.091 1_556 S
Co462 O466 2.004 . S
Co462 O472 2.021 . S
Co462 O474 2.137 . S
Co462 O475 2.244 . S
O463 Co462 2.216 . S
O463 C470 1.247 . S
O464 Co462 2.091 1_554 S
O464 C470 1.261 1_554 S
C465 O474 1.247 . S
C465 O475 1.272 . S
O466 Co462 2.004 . S
O466 C471 1.259 . S
Co467 O468 2.061 . S
Co467 O473 2.052 . S
Co467 O475 2.135 . S
O468 Co467 2.061 . S
O468 C471 1.235 . S
C469 O472 1.238 . S
C469 O473 1.241 . S
C470 O463 1.247 . S
C470 O464 1.261 1_556 S
C471 O466 1.259 . S
C471 O468 1.235 . S
O472 Co462 2.021 . S
O472 C469 1.238 . S
O473 Co467 2.052 . S
O473 C469 1.241 . S
O474 Co462 2.137 . S
O474 C465 1.247 . S
O475 Co462 2.244 . S
O475 C465 1.272 . S
O475 Co467 2.135 . S
Co476 O477 2.216 . S
Co476 O478 2.091 1_556 S
Co476 O480 2.004 . S
Co476 O486 2.021 . S
Co476 O488 2.137 . S
Co476 O489 2.244 . S
O477 Co476 2.216 . S
O477 C484 1.247 . S
O478 Co476 2.091 1_554 S
O478 C484 1.261 1_554 S
C479 O488 1.247 . S
C479 O489 1.272 . S
O480 Co476 2.004 . S
O480 C485 1.259 . S
Co481 O482 2.061 . S
Co481 O487 2.052 . S
Co481 O489 2.135 . S
O482 Co481 2.061 . S
O482 C485 1.235 . S
C483 O486 1.238 . S
C483 O487 1.241 . S
C484 O477 1.247 . S
C484 O478 1.261 1_556 S
C485 O480 1.259 . S
C485 O482 1.235 . S
O486 Co476 2.021 . S
O486 C483 1.238 . S
O487 Co481 2.052 . S
O487 C483 1.241 . S
O488 Co476 2.137 . S
O488 C479 1.247 . S
O489 Co476 2.244 . S
O489 C479 1.272 . S
O489 Co481 2.135 . S
Co490 O491 2.216 . S
Co490 O492 2.091 1_554 S
Co490 O494 2.004 . S
Co490 O500 2.021 . S
Co490 O502 2.137 . S
Co490 O503 2.244 . S
O491 Co490 2.216 . S
O491 C498 1.247 . S
O492 Co490 2.091 1_556 S
O492 C498 1.261 1_556 S
C493 O502 1.247 . S
C493 O503 1.272 . S
O494 Co490 2.004 . S
O494 C499 1.259 . S
Co495 O496 2.061 . S
Co495 O501 2.052 . S
Co495 O503 2.135 . S
O496 Co495 2.061 . S
O496 C499 1.235 . S
C497 O500 1.238 . S
C497 O501 1.241 . S
C498 O491 1.247 . S
C498 O492 1.261 1_554 S
C499 O494 1.259 . S
C499 O496 1.235 . S
O500 Co490 2.021 . S
O500 C497 1.238 . S
O501 Co495 2.052 . S
O501 C497 1.241 . S
O502 Co490 2.137 . S
O502 C493 1.247 . S
O503 Co490 2.244 . S
O503 C493 1.272 . S
O503 Co495 2.135 . S
Co504 O505 2.216 . S
Co504 O506 2.091 . S
Co504 O508 2.004 . S
Co504 O514 2.021 . S
Co504 O516 2.137 . S
Co504 O517 2.244 . S
O505 Co504 2.216 . S
O505 C512 1.247 . S
O506 Co504 2.091 . S
O506 C512 1.261 . S
C507 O516 1.247 . S
C507 O517 1.272 . S
O508 Co504 2.004 . S
O508 C513 1.259 . S
Co509 O510 2.061 . S
Co509 O515 2.052 . S
Co509 O517 2.135 . S
O510 Co509 2.061 . S
O510 C513 1.235 . S
C511 O514 1.238 . S
C511 O515 1.241 . S
C512 O505 1.247 . S
C512 O506 1.261 . S
C513 O508 1.259 . S
C513 O510 1.235 . S
O514 Co504 2.021 . S
O514 C511 1.238 . S
O515 Co509 2.052 . S
O515 C511 1.241 . S
O516 Co504 2.137 . S
O516 C507 1.247 . S
O517 Co504 2.244 . S
O517 C507 1.272 . S
O517 Co509 2.135 . S
Co518 O519 2.216 . S
Co518 O520 2.091 . S
Co518 O522 2.004 . S
Co518 O528 2.021 . S
Co518 O530 2.137 . S
Co518 O531 2.244 . S
O519 Co518 2.216 . S
O519 C526 1.247 . S
O520 Co518 2.091 . S
O520 C526 1.261 . S
C521 O530 1.247 . S
C521 O531 1.272 . S
O522 Co518 2.004 . S
O522 C527 1.259 . S
Co523 O524 2.061 . S
Co523 O529 2.052 . S
Co523 O531 2.135 . S
O524 Co523 2.061 . S
O524 C527 1.235 . S
C525 O528 1.238 . S
C525 O529 1.241 . S
C526 O519 1.247 . S
C526 O520 1.261 . S
C527 O522 1.259 . S
C527 O524 1.235 . S
O528 Co518 2.021 . S
O528 C525 1.238 . S
O529 Co523 2.052 . S
O529 C525 1.241 . S
O530 Co518 2.137 . S
O530 C521 1.247 . S
O531 Co518 2.244 . S
O531 C521 1.272 . S
O531 Co523 2.135 . S
Co532 O533 2.216 . S
Co532 O534 2.091 . S
Co532 O536 2.004 . S
Co532 O542 2.021 . S
Co532 O544 2.137 . S
Co532 O545 2.244 . S
O533 Co532 2.216 . S
O533 C540 1.247 . S
O534 Co532 2.091 . S
O534 C540 1.261 . S
C535 O544 1.247 . S
C535 O545 1.272 . S
O536 Co532 2.004 . S
O536 C541 1.259 . S
Co537 O538 2.061 . S
Co537 O543 2.052 . S
Co537 O545 2.135 . S
O538 Co537 2.061 . S
O538 C541 1.235 . S
C539 O542 1.238 . S
C539 O543 1.241 . S
C540 O533 1.247 . S
C540 O534 1.261 . S
C541 O536 1.259 . S
C541 O538 1.235 . S
O542 Co532 2.021 . S
O542 C539 1.238 . S
O543 Co537 2.052 . S
O543 C539 1.241 . S
O544 Co532 2.137 . S
O544 C535 1.247 . S
O545 Co532 2.244 . S
O545 C535 1.272 . S
O545 Co537 2.135 . S
Co546 O547 2.216 . S
Co546 O548 2.091 . S
Co546 O550 2.004 . S
Co546 O556 2.021 . S
Co546 O558 2.137 . S
Co546 O559 2.244 . S
O547 Co546 2.216 . S
O547 C554 1.247 . S
O548 Co546 2.091 . S
O548 C554 1.261 . S
C549 O558 1.247 . S
C549 O559 1.272 . S
O550 Co546 2.004 . S
O550 C555 1.259 . S
Co551 O552 2.061 . S
Co551 O557 2.052 . S
Co551 O559 2.135 . S
O552 Co551 2.061 . S
O552 C555 1.235 . S
C553 O556 1.238 . S
C553 O557 1.241 . S
C554 O547 1.247 . S
C554 O548 1.261 . S
C555 O550 1.259 . S
C555 O552 1.235 . S
O556 Co546 2.021 . S
O556 C553 1.238 . S
O557 Co551 2.052 . S
O557 C553 1.241 . S
O558 Co546 2.137 . S
O558 C549 1.247 . S
O559 Co546 2.244 . S
O559 C549 1.272 . S
O559 Co551 2.135 . S
Co560 O561 2.216 . S
Co560 O562 2.091 . S
Co560 O564 2.004 . S
Co560 O570 2.021 . S
Co560 O572 2.137 . S
Co560 O573 2.244 . S
O561 Co560 2.216 . S
O561 C568 1.247 . S
O562 Co560 2.091 . S
O562 C568 1.261 . S
C563 O572 1.247 . S
C563 O573 1.272 . S
O564 Co560 2.004 . S
O564 C569 1.259 . S
Co565 O566 2.061 . S
Co565 O571 2.052 . S
Co565 O573 2.135 . S
O566 Co565 2.061 . S
O566 C569 1.235 . S
C567 O570 1.238 . S
C567 O571 1.241 . S
C568 O561 1.247 . S
C568 O562 1.261 . S
C569 O564 1.259 . S
C569 O566 1.235 . S
O570 Co560 2.021 . S
O570 C567 1.238 . S
O571 Co565 2.052 . S
O571 C567 1.241 . S
O572 Co560 2.137 . S
O572 C563 1.247 . S
O573 Co560 2.244 . S
O573 C563 1.272 . S
O573 Co565 2.135 . S
Co574 O575 2.216 . S
Co574 O576 2.091 1_545 S
Co574 O578 2.004 . S
Co574 O584 2.021 . S
Co574 O586 2.137 . S
Co574 O587 2.244 . S
O575 Co574 2.216 . S
O575 C582 1.247 . S
O576 Co574 2.091 1_565 S
O576 C582 1.261 1_565 S
C577 O586 1.247 . S
C577 O587 1.272 . S
O578 Co574 2.004 . S
O578 C583 1.259 . S
Co579 O580 2.061 . S
Co579 O585 2.052 . S
Co579 O587 2.135 . S
O580 Co579 2.061 . S
O580 C583 1.235 . S
C581 O584 1.238 . S
C581 O585 1.241 . S
C582 O575 1.247 . S
C582 O576 1.261 1_545 S
C583 O578 1.259 . S
C583 O580 1.235 . S
O584 Co574 2.021 . S
O584 C581 1.238 . S
O585 Co579 2.052 . S
O585 C581 1.241 . S
O586 Co574 2.137 . S
O586 C577 1.247 . S
O587 Co574 2.244 . S
O587 C577 1.272 . S
O587 Co579 2.135 . S
Co588 O589 2.216 . S
Co588 O590 2.091 . S
Co588 O592 2.004 . S
Co588 O598 2.021 . S
Co588 O600 2.137 . S
Co588 O601 2.244 . S
O589 Co588 2.216 . S
O589 C596 1.247 . S
O590 Co588 2.091 . S
O590 C596 1.261 . S
C591 O600 1.247 . S
C591 O601 1.272 . S
O592 Co588 2.004 . S
O592 C597 1.259 . S
Co593 O594 2.061 . S
Co593 O599 2.052 . S
Co593 O601 2.135 . S
O594 Co593 2.061 . S
O594 C597 1.235 . S
C595 O598 1.238 . S
C595 O599 1.241 . S
C596 O589 1.247 . S
C596 O590 1.261 . S
C597 O592 1.259 . S
C597 O594 1.235 . S
O598 Co588 2.021 . S
O598 C595 1.238 . S
O599 Co593 2.052 . S
O599 C595 1.241 . S
O600 Co588 2.137 . S
O600 C591 1.247 . S
O601 Co588 2.244 . S
O601 C591 1.272 . S
O601 Co593 2.135 . S
Co602 O603 2.216 . S
Co602 O604 2.091 1_565 S
Co602 O606 2.004 . S
Co602 O612 2.021 . S
Co602 O614 2.137 . S
Co602 O615 2.244 . S
O603 Co602 2.216 . S
O603 C610 1.247 . S
O604 Co602 2.091 1_545 S
O604 C610 1.261 1_545 S
C605 O614 1.247 . S
C605 O615 1.272 . S
O606 Co602 2.004 . S
O606 C611 1.259 . S
Co607 O608 2.061 . S
Co607 O613 2.052 . S
Co607 O615 2.135 . S
O608 Co607 2.061 . S
O608 C611 1.235 . S
C609 O612 1.238 . S
C609 O613 1.241 . S
C610 O603 1.247 . S
C610 O604 1.261 1_565 S
C611 O606 1.259 . S
C611 O608 1.235 . S
O612 Co602 2.021 . S
O612 C609 1.238 . S
O613 Co607 2.052 . S
O613 C609 1.241 . S
O614 Co602 2.137 . S
O614 C605 1.247 . S
O615 Co602 2.244 . S
O615 C605 1.272 . S
O615 Co607 2.135 . S
Co616 O617 2.216 . S
Co616 O618 2.091 . S
Co616 O620 2.004 . S
Co616 O626 2.021 . S
Co616 O628 2.137 . S
Co616 O629 2.244 . S
O617 Co616 2.216 . S
O617 C624 1.247 . S
O618 Co616 2.091 . S
O618 C624 1.261 . S
C619 O628 1.247 . S
C619 O629 1.272 . S
O620 Co616 2.004 . S
O620 C625 1.259 . S
Co621 O622 2.061 . S
Co621 O627 2.052 . S
Co621 O629 2.135 . S
O622 Co621 2.061 . S
O622 C625 1.235 . S
C623 O626 1.238 . S
C623 O627 1.241 . S
C624 O617 1.247 . S
C624 O618 1.261 . S
C625 O620 1.259 . S
C625 O622 1.235 . S
O626 Co616 2.021 . S
O626 C623 1.238 . S
O627 Co621 2.052 . S
O627 C623 1.241 . S
O628 Co616 2.137 . S
O628 C619 1.247 . S
O629 Co616 2.244 . S
O629 C619 1.272 . S
O629 Co621 2.135 . S
Co630 O631 2.216 . S
Co630 O632 2.091 1_554 S
Co630 O634 2.004 . S
Co630 O640 2.021 . S
Co630 O642 2.137 . S
Co630 O643 2.244 . S
O631 Co630 2.216 . S
O631 C638 1.247 . S
O632 Co630 2.091 1_556 S
O632 C638 1.261 1_556 S
C633 O642 1.247 . S
C633 O643 1.272 . S
O634 Co630 2.004 . S
O634 C639 1.259 . S
Co635 O636 2.061 . S
Co635 O641 2.052 . S
Co635 O643 2.135 . S
O636 Co635 2.061 . S
O636 C639 1.235 . S
C637 O640 1.238 . S
C637 O641 1.241 . S
C638 O631 1.247 . S
C638 O632 1.261 1_554 S
C639 O634 1.259 . S
C639 O636 1.235 . S
O640 Co630 2.021 . S
O640 C637 1.238 . S
O641 Co635 2.052 . S
O641 C637 1.241 . S
O642 Co630 2.137 . S
O642 C633 1.247 . S
O643 Co630 2.244 . S
O643 C633 1.272 . S
O643 Co635 2.135 . S
Co644 O645 2.216 . S
Co644 O646 2.091 1_554 S
Co644 O648 2.004 . S
Co644 O654 2.021 . S
Co644 O656 2.137 . S
Co644 O657 2.244 . S
O645 Co644 2.216 . S
O645 C652 1.247 . S
O646 Co644 2.091 1_556 S
O646 C652 1.261 1_556 S
C647 O656 1.247 . S
C647 O657 1.272 . S
O648 Co644 2.004 . S
O648 C653 1.259 . S
Co649 O650 2.061 . S
Co649 O655 2.052 . S
Co649 O657 2.135 . S
O650 Co649 2.061 . S
O650 C653 1.235 . S
C651 O654 1.238 . S
C651 O655 1.241 . S
C652 O645 1.247 . S
C652 O646 1.261 1_554 S
C653 O648 1.259 . S
C653 O650 1.235 . S
O654 Co644 2.021 . S
O654 C651 1.238 . S
O655 Co649 2.052 . S
O655 C651 1.241 . S
O656 Co644 2.137 . S
O656 C647 1.247 . S
O657 Co644 2.244 . S
O657 C647 1.272 . S
O657 Co649 2.135 . S
Co658 O659 2.216 . S
Co658 O660 2.091 1_556 S
Co658 O662 2.004 . S
Co658 O668 2.021 . S
Co658 O670 2.137 . S
Co658 O671 2.244 . S
O659 Co658 2.216 . S
O659 C666 1.247 . S
O660 Co658 2.091 1_554 S
O660 C666 1.261 1_554 S
C661 O670 1.247 . S
C661 O671 1.272 . S
O662 Co658 2.004 . S
O662 C667 1.259 . S
Co663 O664 2.061 . S
Co663 O669 2.052 . S
Co663 O671 2.135 . S
O664 Co663 2.061 . S
O664 C667 1.235 . S
C665 O668 1.238 . S
C665 O669 1.241 . S
C666 O659 1.247 . S
C666 O660 1.261 1_556 S
C667 O662 1.259 . S
C667 O664 1.235 . S
O668 Co658 2.021 . S
O668 C665 1.238 . S
O669 Co663 2.052 . S
O669 C665 1.241 . S
O670 Co658 2.137 . S
O670 C661 1.247 . S
O671 Co658 2.244 . S
O671 C661 1.272 . S
O671 Co663 2.135 . S
C22 C8 2.003 1_655 S
C36 C50 2.002 1_455 S
C92 C64 2.003 1_565 S
C106 C78 2.003 . S
C120 C484 2.003 1_554 S
C134 C162 2.003 . S
C456 C148 2.003 . S
C190 C176 2.003 1_455 S
C218 C204 2.002 1_455 S
C260 C232 2.003 1_545 S
C274 C246 2.003 . S
C288 C652 2.003 1_556 S
C302 C330 2.003 . S
C624 C316 2.003 . S
C344 C358 2.003 . S
C386 C372 2.003 . S
C400 C428 2.003 . S
C442 C414 2.002 1_545 S
C498 C470 2.002 1_554 S
C526 C512 2.003 . S
C540 C554 2.003 . S
C596 C568 2.003 . S
C582 C610 2.002 1_545 S
C638 C666 2.002 1_554 S
C619 C7 1.566 . S
C325 C21 1.566 . S
C633 C35 1.566 . S
C49 C647 1.566 . S
C63 C507 1.566 . S
C521 C77 1.566 . S
C91 C535 1.566 . S
C549 C105 1.566 . S
C563 C119 1.566 . S
C133 C591 1.566 . S
C605 C147 1.566 . S
C161 C241 1.566 . S
C175 C451 1.566 . S
C189 C157 1.566 . S
C203 C465 1.566 . S
C217 C479 1.566 . S
C339 C231 1.566 . S
C353 C245 1.566 . S
C259 C367 1.566 . S
C273 C381 1.566 . S
C287 C395 1.566 . S
C301 C423 1.566 . S
C437 C315 1.566 . S
C73 C329 1.566 . S
C343 C283 1.566 . S
C357 C661 1.566 . S
C371 C297 1.566 . S
C385 C311 1.566 . S
C171 C399 1.566 . S
C413 C185 1.566 . S
C199 C427 1.566 . S
C213 C441 1.566 . S
C227 C455 1.566 . S
C255 C469 1.566 . S
C483 C269 1.566 . S
C497 C577 1.566 . S
C115 C511 1.566 . S
C525 C493 1.566 . S
C539 C129 1.566 . S
C143 C553 1.566 . S
C567 C3 1.566 . S
C581 C17 1.566 . S
C31 C595 1.566 . S
C609 C45 1.566 . S
C623 C59 1.566 . S
C87 C637 1.566 . S
C651 C101 1.566 . S
C409 C665 1.566 . S
C37 C9 1.120 . S
C51 C23 1.120 1_565 S
C443 C65 1.120 . S
C429 C79 1.120 . S
C415 C93 1.120 1_556 S
C107 C401 1.120 1_554 S
C121 C499 1.120 . S
C149 C135 1.120 . S
C163 C457 1.120 1_455 S
C205 C177 1.120 . S
C219 C191 1.120 1_545 S
C611 C233 1.120 . S
C597 C247 1.120 . S
C261 C583 1.120 1_556 S
C275 C569 1.120 1_556 S
C667 C289 1.120 . S
C317 C303 1.120 . S
C331 C625 1.120 1_655 S
C373 C345 1.120 1_545 S
C359 C387 1.120 . S
C485 C471 1.120 1_455 S
C513 C541 1.120 1_545 S
C527 C555 1.120 . S
C639 C653 1.120 1_455 S
