# Generated by pormake.
# Topology lcy-e, (6)-cn, num edge types: 1
# Building blocks:
#     Node 0, Type 0, BuildingBlock: KUMBOL_clean_sbu_0, # of connection points: 6
#     Node 1, Type 0, BuildingBlock: KUMBOL_clean_sbu_0, # of connection points: 6
#     Node 2, Type 0, BuildingBlock: KUMBOL_clean_sbu_0, # of connection points: 6
#     Node 3, Type 0, BuildingBlock: KUMBOL_clean_sbu_0, # of connection points: 6
#     Node 4, Type 0, BuildingBlock: KUMBOL_clean_sbu_0, # of connection points: 6
#     Node 5, Type 0, BuildingBlock: KUMBOL_clean_sbu_0, # of connection points: 6
#     Node 6, Type 0, BuildingBlock: KUMBOL_clean_sbu_0, # of connection points: 6
#     Node 7, Type 0, BuildingBlock: KUMBOL_clean_sbu_0, # of connection points: 6
#     Node 8, Type 0, BuildingBlock: KUMBOL_clean_sbu_0, # of connection points: 6
#     Node 9, Type 0, BuildingBlock: KUMBOL_clean_sbu_0, # of connection points: 6
#     Node 10, Type 0, BuildingBlock: KUMBOL_clean_sbu_0, # of connection points: 6
#     Node 11, Type 0, BuildingBlock: KUMBOL_clean_sbu_0, # of connection points: 6
#     Edge 12, Type (0, 0), BuildingBlock: EZIPEK_clean_linker_0, # of connection points: 2
#     Edge 13, Type (0, 0), BuildingBlock: EZIPEK_clean_linker_0, # of connection points: 2
#     Edge 14, Type (0, 0), BuildingBlock: EZIPEK_clean_linker_0, # of connection points: 2
#     Edge 15, Type (0, 0), BuildingBlock: EZIPEK_clean_linker_0, # of connection points: 2
#     Edge 16, Type (0, 0), BuildingBlock: EZIPEK_clean_linker_0, # of connection points: 2
#     Edge 17, Type (0, 0), BuildingBlock: EZIPEK_clean_linker_0, # of connection points: 2
#     Edge 18, Type (0, 0), BuildingBlock: EZIPEK_clean_linker_0, # of connection points: 2
#     Edge 19, Type (0, 0), BuildingBlock: EZIPEK_clean_linker_0, # of connection points: 2
#     Edge 20, Type (0, 0), BuildingBlock: EZIPEK_clean_linker_0, # of connection points: 2
#     Edge 21, Type (0, 0), BuildingBlock: EZIPEK_clean_linker_0, # of connection points: 2
#     Edge 22, Type (0, 0), BuildingBlock: EZIPEK_clean_linker_0, # of connection points: 2
#     Edge 23, Type (0, 0), BuildingBlock: EZIPEK_clean_linker_0, # of connection points: 2
#     Edge 24, Type (0, 0), BuildingBlock: EZIPEK_clean_linker_0, # of connection points: 2
#     Edge 25, Type (0, 0), BuildingBlock: EZIPEK_clean_linker_0, # of connection points: 2
#     Edge 26, Type (0, 0), BuildingBlock: EZIPEK_clean_linker_0, # of connection points: 2
#     Edge 27, Type (0, 0), BuildingBlock: EZIPEK_clean_linker_0, # of connection points: 2
#     Edge 28, Type (0, 0), BuildingBlock: EZIPEK_clean_linker_0, # of connection points: 2
#     Edge 29, Type (0, 0), BuildingBlock: EZIPEK_clean_linker_0, # of connection points: 2
#     Edge 30, Type (0, 0), BuildingBlock: EZIPEK_clean_linker_0, # of connection points: 2
#     Edge 31, Type (0, 0), BuildingBlock: EZIPEK_clean_linker_0, # of connection points: 2
#     Edge 32, Type (0, 0), BuildingBlock: EZIPEK_clean_linker_0, # of connection points: 2
#     Edge 33, Type (0, 0), BuildingBlock: EZIPEK_clean_linker_0, # of connection points: 2
#     Edge 34, Type (0, 0), BuildingBlock: EZIPEK_clean_linker_0, # of connection points: 2
#     Edge 35, Type (0, 0), BuildingBlock: EZIPEK_clean_linker_0, # of connection points: 2
#     Edge 36, Type (0, 0), BuildingBlock: EZIPEK_clean_linker_0, # of connection points: 2
#     Edge 37, Type (0, 0), BuildingBlock: EZIPEK_clean_linker_0, # of connection points: 2
#     Edge 38, Type (0, 0), BuildingBlock: EZIPEK_clean_linker_0, # of connection points: 2
#     Edge 39, Type (0, 0), BuildingBlock: EZIPEK_clean_linker_0, # of connection points: 2
#     Edge 40, Type (0, 0), BuildingBlock: EZIPEK_clean_linker_0, # of connection points: 2
#     Edge 41, Type (0, 0), BuildingBlock: EZIPEK_clean_linker_0, # of connection points: 2
#     Edge 42, Type (0, 0), BuildingBlock: EZIPEK_clean_linker_0, # of connection points: 2
#     Edge 43, Type (0, 0), BuildingBlock: EZIPEK_clean_linker_0, # of connection points: 2
#     Edge 44, Type (0, 0), BuildingBlock: EZIPEK_clean_linker_0, # of connection points: 2
#     Edge 45, Type (0, 0), BuildingBlock: EZIPEK_clean_linker_0, # of connection points: 2
#     Edge 46, Type (0, 0), BuildingBlock: EZIPEK_clean_linker_0, # of connection points: 2
#     Edge 47, Type (0, 0), BuildingBlock: EZIPEK_clean_linker_0, # of connection points: 2
# Relax obj value: 0.100
# Max RMSD: 0.294
# Mean RMSD: 0.293
data_MOF--net-lcy-e--node1-KUMBOL_clean_sbu_0--edge1-EZIPEK_clean_linker_0
_symmetry_space_group_name_H-M    P1
_symmetry_Int_Tables_number       1
_symmetry_cell_setting            triclinic
loop_
_symmetry_equiv_pos_as_xyz
'x, y, z'
_cell_length_a     33.984645
_cell_length_b     34.052075
_cell_length_c     34.102681
_cell_angle_alpha  89.629961
_cell_angle_beta   90.29721
_cell_angle_gamma 90.609308
loop_
_atom_site_label
_atom_site_type_symbol
_atom_site_fract_x
_atom_site_fract_y
_atom_site_fract_z
_atom_type_partial_charge
Gd0 Gd 0.11863 0.28123 0.47476 0.0
Gd1 Gd 0.14969 0.2092 0.5491 0.0
C2 C 0.24063 0.23314 0.64527 0.0
C3 C 0.29959 0.20533 0.61716 0.0
C4 C 0.23693 0.19964 0.58302 0.0
C5 C 0.21897 0.22115 0.61196 0.0
C6 C 0.2769 0.18961 0.58637 0.0
C7 C 0.28145 0.22719 0.64659 0.0
C8 C 0.22022 0.24773 0.67749 0.0
C9 C 0.17919 0.24663 0.67727 0.0
N10 N 0.17933 0.22502 0.61025 0.0
C11 C 0.15911 0.2338 0.64375 0.0
H12 H 0.12737 0.23348 0.64441 0.0
C13 C 0.22733 0.15447 0.53138 0.0
N14 N 0.21397 0.18448 0.55409 0.0
C15 C 0.26665 0.1432 0.53381 0.0
C16 C 0.29199 0.16193 0.56039 0.0
H17 H 0.20802 0.14087 0.50999 0.0
H18 H 0.29874 0.23708 0.67149 0.0
H19 H 0.14157 0.22692 0.39654 0.0
H20 H 0.23573 0.25738 0.7036 0.0
H21 H 0.16294 0.25582 0.70279 0.0
H22 H 0.33062 0.19878 0.61978 0.0
H23 H 0.05933 0.35485 0.49623 0.0
H24 H 0.03901 0.20591 0.32791 0.0
H25 H 0.1102 0.19765 0.33935 0.0
H26 H 0.94411 0.2886 0.38661 0.0
H27 H 0.27713 0.12 0.51526 0.0
H28 H 0.3225 0.15316 0.56214 0.0
H29 H 0.97693 0.23942 0.3462 0.0
H30 H 0.99069 0.37486 0.48661 0.0
N31 N 0.08836 0.2479 0.42155 0.0
C32 C 0.05243 0.21763 0.3543 0.0
C33 C 0.09258 0.21298 0.36059 0.0
C34 C 0.03072 0.23992 0.38057 0.0
C35 C 0.04971 0.25492 0.41437 0.0
C36 C 0.1102 0.22889 0.39407 0.0
N37 N 0.05356 0.30237 0.46349 0.0
C38 C 0.03152 0.28302 0.43654 0.0
C39 C 1.00142 0.34853 0.47282 0.0
C40 C 0.97762 0.3277 0.44673 0.0
C41 C 0.03999 0.33639 0.47936 0.0
C42 C 0.99331 0.29588 0.42661 0.0
H43 H 0.94826 0.33812 0.44028 0.0
O44 O 0.12096 0.34033 0.44953 0.0
O45 O 0.16091 0.27204 0.52471 0.0
O46 O 0.10797 0.24923 0.57833 0.0
O47 O 0.07968 0.28965 0.53026 0.0
O48 O 0.13362 0.32636 0.51801 0.0
O49 O 0.16355 0.29788 0.43233 0.0
O50 O 0.13918 0.14607 0.54874 0.0
O51 O 0.10501 0.22452 0.503 0.0
O52 O 0.17091 0.2428 0.45538 0.0
O53 O 0.20199 0.22461 0.5129 0.0
O54 O 0.12853 0.17 0.49904 0.0
O55 O 0.11567 0.18083 0.59566 0.0
C56 C 0.15872 0.30716 0.53871 0.0
C57 C 0.97339 0.27906 0.39469 0.0
C58 C 0.99201 0.25094 0.37179 0.0
C59 C 0.1494 0.33255 0.42552 0.0
C60 C 0.14253 0.34181 0.38369 0.0
C61 C 0.10841 0.32718 0.36555 0.0
C62 C 0.17028 0.36306 0.36101 0.0
C63 C 0.16421 0.36748 0.32016 0.0
C64 C 0.10329 0.32985 0.32524 0.0
C65 C 0.13134 0.34911 0.30256 0.0
C66 C 0.08302 0.27644 0.56727 0.0
C67 C 0.10167 0.1925 0.48491 0.0
C68 C 0.12034 0.14553 0.58193 0.0
C69 C 0.13222 0.11478 0.6102 0.0
C70 C 0.17054 0.11535 0.62556 0.0
C71 C 0.10613 0.08384 0.62085 0.0
C72 C 0.11878 0.05368 0.64656 0.0
C73 C 0.18299 0.08566 0.65082 0.0
C74 C 0.15739 0.05511 0.6611 0.0
C75 C 0.20213 0.22931 0.47474 0.0
H76 H 0.0856 0.31362 0.38257 0.0
H77 H 0.19586 0.3763 0.37493 0.0
H78 H 0.07716 0.3175 0.31162 0.0
H79 H 0.12626 0.35166 0.27125 0.0
H80 H 0.19099 0.13855 0.61775 0.0
H81 H 0.0765 0.08297 0.60894 0.0
H82 H 0.21274 0.08618 0.66232 0.0
H83 H 0.16786 0.03242 0.68033 0.0
Gd84 Gd 0.05476 0.89926 0.79757 0.0
Gd85 Gd 0.97984 0.86023 0.73225 0.0
C86 C 0.88202 0.76767 0.742 0.0
C87 C 0.90641 0.71638 0.69972 0.0
C88 C 0.94513 0.77603 0.70982 0.0
C89 C 0.91647 0.79021 0.73485 0.0
C90 C 0.93971 0.73951 0.69111 0.0
C91 C 0.87764 0.73046 0.72504 0.0
C92 C 0.85256 0.78335 0.76548 0.0
C93 C 0.85759 0.82066 0.78119 0.0
N94 N 0.92159 0.82628 0.7513 0.0
C95 C 0.89226 0.84173 0.77401 0.0
H96 H 0.89436 0.87038 0.78684 0.0
C97 C 1.00117 0.78991 0.67107 0.0
N98 N 0.97681 0.79913 0.70136 0.0
C99 C 0.99735 0.75384 0.65217 0.0
C100 C 0.96695 0.7281 0.66284 0.0
H101 H 0.02388 0.81034 0.662 0.0
H102 H 0.85162 0.71267 0.73065 0.0
H103 H 0.11904 0.88446 0.72414 0.0
H104 H 0.8257 0.76701 0.77144 0.0
H105 H 0.83479 0.83324 0.79908 0.0
H106 H 0.90202 0.68807 0.68597 0.0
H107 H 0.02603 0.95695 0.87035 0.0
H108 H 0.1944 0.98408 0.71632 0.0
H109 H 0.17485 0.91806 0.69404 0.0
H110 H 0.14358 0.07172 0.81223 0.0
H111 H 0.01751 0.74617 0.62905 0.0
H112 H 0.96378 0.70027 0.64787 0.0
H113 H 0.18057 0.04269 0.75808 0.0
H114 H 0.04234 0.02242 0.8971 0.0
N115 N 0.10278 0.93243 0.76015 0.0
C116 C 0.16806 0.97043 0.7281 0.0
C117 C 0.15745 0.93294 0.71577 0.0
C118 C 0.14557 0.98918 0.75651 0.0
C119 C 0.11292 0.96898 0.77263 0.0
C120 C 0.12519 0.91401 0.73278 0.0
N121 N 0.0638 0.96333 0.82106 0.0
C122 C 0.09244 0.98512 0.80357 0.0
C123 C 0.05638 0.01251 0.87058 0.0
C124 C 0.08445 0.03611 0.85189 0.0
C125 C 0.04698 0.97568 0.85518 0.0
C126 C 0.10357 0.02216 0.81858 0.0
H127 H 0.0922 0.0644 0.86425 0.0
O128 O 0.08624 0.90649 0.85231 0.0
O129 O 1.00756 0.8525 0.79386 0.0
O130 O 0.95199 0.90071 0.77409 0.0
O131 O 1.0013 0.94191 0.79711 0.0
O132 O 0.01356 0.88318 0.84575 0.0
O133 O 0.10683 0.86326 0.8119 0.0
O134 O 0.97537 0.87942 0.67097 0.0
O135 O 0.02349 0.91006 0.74165 0.0
O136 O 0.07575 0.84624 0.76083 0.0
O137 O 0.01963 0.81015 0.74478 0.0
O138 O 0.02577 0.88258 0.68936 0.0
O139 O 0.92483 0.88132 0.70869 0.0
C140 C 0.99409 0.85525 0.82895 0.0
C141 C 0.13471 0.04319 0.80118 0.0
C142 C 0.15581 0.02664 0.77039 0.0
C143 C 0.11377 0.8816 0.84473 0.0
C144 C 0.13166 0.86075 0.87881 0.0
C145 C 0.10904 0.85397 0.91246 0.0
C146 C 0.17242 0.85154 0.8801 0.0
C147 C 0.18854 0.83124 0.91297 0.0
C148 C 0.12367 0.8314 0.94319 0.0
C149 C 0.16224 0.81834 0.9424 0.0
C150 C 0.96342 0.93456 0.78827 0.0
C151 C 0.03873 0.91283 0.70797 0.0
C152 C 0.93857 0.88885 0.67384 0.0
C153 C 0.91283 0.87992 0.64015 0.0
C154 C 0.89531 0.84271 0.63635 0.0
C155 C 0.90529 0.90916 0.61158 0.0
C156 C 0.88031 0.90095 0.57946 0.0
C157 C 0.8708 0.83449 0.60448 0.0
C158 C 0.8635 0.86328 0.57615 0.0
C159 C 0.05807 0.81365 0.7478 0.0
H160 H 0.0794 0.8651 0.9146 0.0
H161 H 0.19144 0.86142 0.85655 0.0
H162 H 0.10521 0.82443 0.96809 0.0
H163 H 0.17246 0.80067 0.96687 0.0
H164 H 0.90052 0.82003 0.65795 0.0
H165 H 0.91876 0.93803 0.61425 0.0
H166 H 0.85749 0.80563 0.60165 0.0
H167 H 0.84491 0.85601 0.5514 0.0
Gd168 Gd 0.38142 0.80655 0.04907 0.0
Gd169 Gd 0.40349 0.73146 0.9783 0.0
C170 C 0.50332 0.64555 0.99723 0.0
C171 C 0.54965 0.66559 0.94667 0.0
C172 C 0.48789 0.70009 0.95392 0.0
C173 C 0.47775 0.67563 0.98497 0.0
C174 C 0.52373 0.69504 0.93411 0.0
C175 C 0.53943 0.64086 0.9781 0.0
C176 C 0.49203 0.62143 0.02868 0.0
C177 C 0.45609 0.62764 0.0471 0.0
N178 N 0.44314 0.68156 1.00359 0.0
C179 C 0.43173 0.65793 0.03396 0.0
H180 H 0.40408 0.66274 0.04829 0.0
C181 C 0.46905 0.75034 0.90956 0.0
N182 N 0.46235 0.72846 0.9427 0.0
C183 C 0.50445 0.74678 0.88925 0.0
C184 C 0.53214 0.71932 0.90186 0.0
H185 H 0.44749 0.77144 0.89978 0.0
H186 H 0.55961 0.61814 0.98734 0.0
H187 H 0.38654 0.86193 0.96315 0.0
H188 H 0.51092 0.59812 0.03913 0.0
H189 H 0.44748 0.60917 0.07152 0.0
H190 H 0.57749 0.66143 0.932 0.0
H191 H 0.31863 0.7753 0.12162 0.0
H192 H 0.30804 0.95699 0.97708 0.0
H193 H 0.35966 0.92355 0.93962 0.0
H194 H 0.23572 0.92361 0.09239 0.0
H195 H 0.51032 0.76507 0.86384 0.0
H196 H 0.5595 0.71653 0.88601 0.0
H197 H 0.26332 0.95754 0.03486 0.0
H198 H 0.26057 0.80005 0.15479 0.0
N199 N 0.35076 0.85866 0.01471 0.0
C200 C 0.31969 0.92943 0.98784 0.0
C201 C 0.34879 0.91071 0.96664 0.0
C202 C 0.30536 0.91203 0.0222 0.0
C203 C 0.32123 0.87589 0.03487 0.0
C204 C 0.36428 0.87552 0.98065 0.0
N205 N 0.32105 0.82169 0.07899 0.0
C206 C 0.30571 0.85674 0.06757 0.0
C207 C 0.27272 0.81612 0.1301 0.0
C208 C 0.2572 0.8523 0.11918 0.0
C209 C 0.3053 0.80162 0.1103 0.0
C210 C 0.27386 0.87327 0.08793 0.0
H211 H 0.2326 0.86395 0.1353 0.0
O212 O 0.38762 0.8225 0.11036 0.0
O213 O 0.40728 0.74534 0.04484 0.0
O214 O 0.35454 0.70576 1.01146 0.0
O215 O 0.3424 0.74994 0.06204 0.0
O216 O 0.43959 0.78697 0.07346 0.0
O217 O 0.41358 0.86002 0.06599 0.0
O218 O 0.3817 0.72067 0.919 0.0
O219 O 0.36113 0.77854 0.99393 0.0
O220 O 0.42763 0.82868 1.00592 0.0
O221 O 0.45607 0.77217 0.98323 0.0
O222 O 0.37598 0.77588 0.9368 0.0
O223 O 0.37897 0.67435 0.9625 0.0
C224 C 0.438 0.75009 0.06669 0.0
C225 C 0.25957 0.91017 0.07656 0.0
C226 C 0.27532 0.92951 0.04383 0.0
C227 C 0.40648 0.85531 0.10338 0.0
C228 C 0.39433 0.89044 0.12611 0.0
C229 C 0.35772 0.89042 0.14505 0.0
C230 C 0.41989 0.92329 0.1313 0.0
C231 C 0.40773 0.95576 0.15395 0.0
C232 C 0.34525 0.92294 0.16585 0.0
C233 C 0.3698 0.95556 0.16971 0.0
C234 C 0.33451 0.71667 0.042 0.0
C235 C 0.35185 0.79225 0.96051 0.0
C236 C 0.37173 0.68433 0.92616 0.0
C237 C 0.3804 0.65531 0.89534 0.0
C238 C 0.41553 0.6341 0.89658 0.0
C239 C 0.35307 0.64821 0.86462 0.0
C240 C 0.36082 0.61963 0.83584 0.0
C241 C 0.42329 0.60604 0.86808 0.0
C242 C 0.39618 0.59876 0.83803 0.0
C243 C 0.45711 0.81037 0.98918 0.0
H244 H 0.33864 0.86508 0.14434 0.0
H245 H 0.44901 0.92335 0.11852 0.0
H246 H 0.31653 0.92266 0.17944 0.0
H247 H 0.35939 0.98066 0.18554 0.0
H248 H 0.43685 0.63902 0.91972 0.0
H249 H 0.32594 0.66463 0.86316 0.0
H250 H 0.45045 0.58977 0.86932 0.0
H251 H 0.40285 0.57682 0.81623 0.0
Gd252 Gd 0.47436 0.11951 0.29852 0.0
Gd253 Gd 0.54819 0.15257 0.22931 0.0
C254 C 0.62572 0.25748 0.26114 0.0
C255 C 0.60739 0.30518 0.21107 0.0
C256 C 0.57666 0.24044 0.21207 0.0
C257 C 0.59865 0.2304 0.24488 0.0
C258 C 0.58137 0.27763 0.1943 0.0
C259 C 0.62951 0.29512 0.24442 0.0
C260 C 0.64833 0.24582 0.29356 0.0
C261 C 0.64414 0.20774 0.30848 0.0
N262 N 0.59417 0.19388 0.26041 0.0
C263 C 0.61703 0.1819 0.29124 0.0
H264 H 0.61393 0.15274 0.30337 0.0
C265 C 0.53381 0.2196 0.1612 0.0
N266 N 0.55171 0.21322 0.19663 0.0
C267 C 0.53711 0.25622 0.14269 0.0
C268 C 0.56054 0.2856 0.15963 0.0
H269 H 0.51618 0.1966 0.14793 0.0
H270 H 0.64988 0.31647 0.25671 0.0
H271 H 0.40923 0.14212 0.22358 0.0
H272 H 0.66927 0.26584 0.30705 0.0
H273 H 0.66159 0.19832 0.3334 0.0
H274 H 0.61118 0.33407 0.19806 0.0
H275 H 0.50469 0.051 0.36441 0.0
H276 H 0.33175 0.04467 0.21028 0.0
H277 H 0.35247 0.11197 0.19233 0.0
H278 H 0.38114 0.94853 0.29953 0.0
H279 H 0.52182 0.26168 0.11532 0.0
H280 H 0.56324 0.31389 0.14514 0.0
H281 H 0.34174 0.98477 0.2515 0.0
H282 H 0.49053 0.98238 0.38113 0.0
N283 N 0.42287 0.09246 0.26002 0.0
C284 C 0.35731 0.0577 0.22439 0.0
C285 C 0.36881 0.09571 0.21428 0.0
C286 C 0.37888 0.03688 0.25248 0.0
C287 C 0.41212 0.05505 0.26996 0.0
C288 C 0.40143 0.11286 0.23262 0.0
N289 N 0.46486 0.05301 0.31591 0.0
C290 C 0.43398 0.0347 0.29803 0.0
C291 C 0.47484 0.99639 0.35725 0.0
C292 C 0.44465 0.97651 0.33785 0.0
C293 C 0.48364 0.03511 0.34678 0.0
C294 C 0.42306 0.99592 0.30875 0.0
H295 H 0.43723 0.94671 0.34662 0.0
O296 O 0.46378 0.11366 0.36081 0.0
O297 O 0.5327 0.15184 0.29526 0.0
O298 O 0.57807 0.10649 0.26215 0.0
O299 O 0.53261 0.0834 0.30814 0.0
O300 O 0.4886 0.1769 0.32677 0.0
O301 O 0.41736 0.13686 0.32202 0.0
O302 O 0.55998 0.13086 0.17076 0.0
O303 O 0.50192 0.10739 0.24218 0.0
O304 O 0.45116 0.17329 0.26517 0.0
O305 O 0.50436 0.20117 0.23171 0.0
O306 O 0.50564 0.12418 0.18537 0.0
O307 O 0.60723 0.13492 0.21318 0.0
C308 C 0.52504 0.18069 0.31818 0.0
C309 C 0.39012 0.97807 0.29129 0.0
C310 C 0.36778 0.99868 0.26376 0.0
C311 C 0.42806 0.12698 0.35755 0.0
C312 C 0.40223 0.13035 0.39187 0.0
C313 C 0.4093 0.10604 0.42445 0.0
C314 C 0.36968 0.15589 0.39206 0.0
C315 C 0.34409 0.15613 0.42452 0.0
C316 C 0.38429 0.10657 0.45657 0.0
C317 C 0.35196 0.13128 0.45658 0.0
C318 C 0.56781 0.08241 0.29021 0.0
C319 C 0.48817 0.09963 0.20852 0.0
C320 C 0.59734 0.12631 0.17724 0.0
C321 C 0.62379 0.13946 0.14567 0.0
C322 C 0.64303 0.17604 0.1475 0.0
C323 C 0.62975 0.11501 0.1131 0.0
C324 C 0.65558 0.12675 0.08298 0.0
C325 C 0.66841 0.18784 0.11752 0.0
C326 C 0.67481 0.16335 0.08554 0.0
C327 C 0.46785 0.2019 0.24423 0.0
H328 H 0.43394 0.08609 0.42489 0.0
H329 H 0.36418 0.1752 0.36728 0.0
H330 H 0.38997 0.0877 0.48158 0.0
H331 H 0.33341 0.1316 0.48212 0.0
H332 H 0.63858 0.19536 0.17213 0.0
H333 H 0.61466 0.08685 0.1113 0.0
H334 H 0.68328 0.21606 0.11911 0.0
H335 H 0.69473 0.17298 0.06264 0.0
Gd336 Gd 0.6637 0.29984 0.47467 0.0
Gd337 Gd 0.63124 0.22993 0.54931 0.0
C338 C 0.52631 0.14464 0.55082 0.0
C339 C 0.48058 0.17797 0.5934 0.0
C340 C 0.54483 0.20692 0.5799 0.0
C341 C 0.55347 0.17599 0.55538 0.0
C342 C 0.5089 0.20745 0.60035 0.0
C343 C 0.48927 0.14661 0.56865 0.0
C344 C 0.53792 0.11132 0.53026 0.0
C345 C 0.57641 0.10897 0.51666 0.0
N346 N 0.58994 0.17455 0.53927 0.0
C347 C 0.60229 0.14062 0.52221 0.0
H348 H 0.63248 0.13686 0.51423 0.0
C349 C 0.56909 0.26088 0.61651 0.0
N350 N 0.5731 0.23458 0.58653 0.0
C351 C 0.53379 0.26288 0.63719 0.0
C352 C 0.50328 0.2365 0.62858 0.0
H353 H 0.59257 0.2815 0.62308 0.0
H354 H 0.46781 0.12316 0.56488 0.0
H355 H 0.64308 0.36131 0.54928 0.0
H356 H 0.51798 0.08663 0.52619 0.0
H357 H 0.58635 0.08258 0.50242 0.0
H358 H 0.45252 0.17825 0.60833 0.0
H359 H 0.72954 0.2716 0.40831 0.0
H360 H 0.73784 0.44313 0.56122 0.0
H361 H 0.67124 0.42011 0.57965 0.0
H362 H 0.83304 0.39735 0.46958 0.0
H363 H 0.53017 0.28469 0.65978 0.0
H364 H 0.47605 0.23792 0.64486 0.0
H365 H 0.79817 0.43423 0.52017 0.0
H366 H 0.797 0.28858 0.38791 0.0
N367 N 0.69166 0.35168 0.51152 0.0
C368 C 0.72519 0.41755 0.54705 0.0
C369 C 0.68752 0.40486 0.55731 0.0
C370 C 0.74612 0.39697 0.51872 0.0
C371 C 0.72825 0.36383 0.50114 0.0
C372 C 0.67119 0.37177 0.53922 0.0
N373 N 0.72905 0.31237 0.4555 0.0
C374 C 0.7478 0.34313 0.47271 0.0
C375 C 0.78374 0.30386 0.41215 0.0
C376 C 0.80401 0.33444 0.43064 0.0
C377 C 0.74577 0.2938 0.42438 0.0
C378 C 0.78579 0.35504 0.46076 0.0
H379 H 0.8332 0.34264 0.42069 0.0
O380 O 0.66366 0.32063 0.41397 0.0
O381 O 0.61641 0.25424 0.48633 0.0
O382 O 0.66753 0.19679 0.50642 0.0
O383 O 0.69953 0.24222 0.46569 0.0
O384 O 0.64493 0.25474 0.43213 0.0
O385 O 0.62857 0.35029 0.45675 0.0
O386 O 0.65237 0.22628 0.60967 0.0
O387 O 0.67909 0.27268 0.53189 0.0
O388 O 0.60748 0.32243 0.50443 0.0
O389 O 0.58083 0.27161 0.54146 0.0
O390 O 0.65991 0.27518 0.58846 0.0
O391 O 0.65949 0.1767 0.57165 0.0
C392 C 0.61575 0.23947 0.45119 0.0
C393 C 0.8039 0.38773 0.47841 0.0
C394 C 0.78405 0.40874 0.50722 0.0
C395 C 0.64079 0.35034 0.4207 0.0
C396 C 0.65123 0.38899 0.40286 0.0
C397 C 0.69089 0.39898 0.3969 0.0
C398 C 0.6217 0.41598 0.39099 0.0
C399 C 0.63231 0.45247 0.3734 0.0
C400 C 0.70128 0.43485 0.37983 0.0
C401 C 0.67237 0.46138 0.36845 0.0
C402 C 0.694 0.20561 0.47955 0.0
C403 C 0.68597 0.28882 0.56476 0.0
C404 C 0.66349 0.18995 0.60733 0.0
C405 C 0.65079 0.16403 0.64031 0.0
C406 C 0.61216 0.14926 0.64109 0.0
C407 C 0.676 0.15605 0.67262 0.0
C408 C 0.6619 0.13408 0.70524 0.0
C409 C 0.59824 0.12797 0.67323 0.0
C410 C 0.6228 0.12071 0.70516 0.0
C411 C 0.57905 0.30752 0.52682 0.0
H412 H 0.714 0.37901 0.40533 0.0
H413 H 0.59092 0.40882 0.39561 0.0
H414 H 0.73201 0.44229 0.37562 0.0
H415 H 0.68137 0.48941 0.35631 0.0
H416 H 0.59245 0.15446 0.61707 0.0
H417 H 0.70596 0.16725 0.67272 0.0
H418 H 0.56814 0.11725 0.67348 0.0
H419 H 0.61126 0.10456 0.72998 0.0
Gd420 Gd 0.04418 0.37762 0.80823 0.0
Gd421 Gd 0.97621 0.40834 0.73178 0.0
C422 C 1.0007 0.5162 0.65505 0.0
C423 C 0.95543 0.56389 0.68146 0.0
C424 C 0.95704 0.49755 0.70793 0.0
C425 C 0.98672 0.48821 0.68239 0.0
C426 C 0.94022 0.53512 0.70707 0.0
C427 C 0.98559 0.55437 0.65543 0.0
C428 C 0.02818 0.50446 0.62717 0.0
C429 C 0.03861 0.46502 0.62529 0.0
N430 N 0.99985 0.45083 0.68235 0.0
C431 C 0.02296 0.43838 0.65252 0.0
H432 H 0.02758 0.40771 0.64836 0.0
C433 C 0.90996 0.47486 0.75378 0.0
N434 N 0.94325 0.46899 0.73231 0.0
C435 C 0.89225 0.51175 0.75407 0.0
C436 C 0.90769 0.54211 0.73085 0.0
H437 H 0.89787 0.45138 0.77157 0.0
H438 H 0.9958 0.57618 0.63463 0.0
H439 H 0.96631 0.38866 0.87138 0.0
H440 H 0.03977 0.52504 0.6057 0.0
H441 H 0.05771 0.4549 0.60224 0.0
H442 H 0.94322 0.59314 0.68063 0.0
H443 H 0.11715 0.31646 0.77625 0.0
H444 H 0.96809 0.29331 0.95148 0.0
H445 H 0.93963 0.35561 0.92841 0.0
H446 H 0.06885 0.21028 0.90402 0.0
H447 H 0.86665 0.51669 0.77204 0.0
H448 H 0.89352 0.57044 0.73042 0.0
H449 H 0.0146 0.23866 0.9411 0.0
H450 H 0.14442 0.253 0.79397 0.0
N451 N 1.00913 0.34496 0.8587 0.0
C452 C 0.97932 0.30711 0.92508 0.0
C453 C 0.96348 0.34242 0.91241 0.0
C454 C 1.00974 0.29018 0.90393 0.0
C455 C 0.02458 0.31007 0.87052 0.0
C456 C 0.97906 0.36124 0.87949 0.0
N457 N 0.07042 0.31404 0.81822 0.0
C458 C 0.05557 0.29407 0.84959 0.0
C459 C 0.11916 0.2639 0.80959 0.0
C460 C 0.10348 0.24264 0.84082 0.0
C461 C 0.10287 0.2999 0.79921 0.0
C462 C 0.07179 0.2578 0.86159 0.0
H463 H 0.11663 0.21497 0.84923 0.0
O464 O 0.10586 0.37868 0.82251 0.0
O465 O 0.04248 0.40859 0.74907 0.0
O466 O 0.01402 0.36483 0.70309 0.0
O467 O 0.05562 0.34 0.75177 0.0
O468 O 0.07192 0.43566 0.79378 0.0
O469 O 0.06417 0.40215 0.86507 0.0
O470 O 0.91634 0.38617 0.72256 0.0
O471 O 0.98882 0.36224 0.77747 0.0
O472 O 1.00277 0.42596 0.82975 0.0
O473 O 0.98558 0.45891 0.77276 0.0
O474 O 0.93459 0.38614 0.77889 0.0
O475 O 0.95702 0.38516 0.67495 0.0
C476 C 0.06574 0.43771 0.75685 0.0
C477 C 0.05662 0.23801 0.89445 0.0
C478 C 0.02581 0.25421 0.91562 0.0
C479 C 0.10094 0.39549 0.85629 0.0
C480 C 0.13549 0.40523 0.88158 0.0
C481 C 0.17324 0.40107 0.86548 0.0
C482 C 0.13207 0.41968 0.9204 0.0
C483 C 0.16639 0.42946 0.94238 0.0
C484 C 0.2067 0.41147 0.88677 0.0
C485 C 0.20326 0.42592 0.92459 0.0
C486 C 0.04125 0.34048 0.71501 0.0
C487 C 0.95515 0.35764 0.79243 0.0
C488 C 0.9211 0.37748 0.68594 0.0
C489 C 0.88855 0.3885 0.65881 0.0
C490 C 0.88636 0.42717 0.64474 0.0
C491 C 0.85873 0.36097 0.64777 0.0
C492 C 0.82714 0.37253 0.62294 0.0
C493 C 0.85536 0.43852 0.62035 0.0
C494 C 0.82599 0.41159 0.60973 0.0
C495 C 0.98861 0.45714 0.8111 0.0
H496 H 0.17707 0.39043 0.83589 0.0
H497 H 0.1033 0.42346 0.93329 0.0
H498 H 0.23548 0.40886 0.87365 0.0
H499 H 0.22951 0.43555 0.93983 0.0
H500 H 0.90854 0.44872 0.65287 0.0
H501 H 0.85977 0.33108 0.65877 0.0
H502 H 0.85389 0.46852 0.60984 0.0
H503 H 0.80196 0.4214 0.59138 0.0
Gd504 Gd 0.86347 0.72852 0.98033 0.0
Gd505 Gd 0.89397 0.80649 0.04698 0.0
C506 C 1.00114 0.87689 1.00521 0.0
C507 C 0.04892 0.863 0.05659 0.0
C508 C 0.9829 0.83515 0.06008 0.0
C509 C 0.97314 0.8533 0.02504 0.0
C510 C 0.02035 0.84109 0.07707 0.0
C511 C 0.03937 0.88074 0.02063 0.0
C512 C 0.98977 0.89622 0.97071 0.0
C513 C 0.951 0.8928 0.95753 0.0
N514 N 0.93581 0.84927 1.01123 0.0
C515 C 0.9241 0.86975 0.97861 0.0
H516 H 0.89454 0.86731 0.9674 0.0
C517 C 0.95977 0.80376 0.11752 0.0
N518 N 0.95468 0.81414 0.0791 0.0
C519 C 0.99648 0.80856 0.13563 0.0
C520 C 0.02727 0.8264 0.11492 0.0
H521 H 0.93544 0.79139 0.1339 0.0
H522 H 0.06143 0.89826 1.00552 0.0
H523 H 0.8887 0.66515 0.05763 0.0
H524 H 1.01052 0.91417 0.95432 0.0
H525 H 0.94186 0.90752 0.93083 0.0
H526 H 0.07809 0.86742 0.06887 0.0
H527 H 0.79495 0.7521 0.91297 0.0
H528 H 0.79565 0.58306 0.07029 0.0
H529 H 0.8617 0.60722 0.08815 0.0
H530 H 0.69588 0.62845 0.98285 0.0
H531 H 1.00084 0.79895 0.16564 0.0
H532 H 0.05562 0.83042 0.12908 0.0
H533 H 0.73336 0.59246 0.03279 0.0
H534 H 0.72692 0.73475 0.89614 0.0
N535 N 0.83864 0.67649 0.02033 0.0
C536 C 0.80705 0.60954 0.05651 0.0
C537 C 0.84452 0.62278 0.06635 0.0
C538 C 0.78482 0.63036 0.02902 0.0
C539 C 0.80163 0.66393 1.01077 0.0
C540 C 0.85994 0.65621 0.04805 0.0
N541 N 0.79764 0.71496 0.9633 0.0
C542 C 0.78042 0.68409 0.98216 0.0
C543 C 0.7412 0.72078 0.92093 0.0
C544 C 0.72217 0.69079 0.94148 0.0
C545 C 0.77947 0.73157 0.93146 0.0
C546 C 0.74211 0.67124 0.97166 0.0
H547 H 0.69272 0.68186 0.93276 0.0
O548 O 0.86147 0.71843 0.91728 0.0
O549 O 0.89581 0.78667 0.98244 0.0
O550 O 0.84962 0.83412 1.00977 0.0
O551 O 0.82696 0.78633 0.96605 0.0
O552 O 0.92342 0.74 0.95695 0.0
O553 O 0.88242 0.67215 0.95713 0.0
O554 O 0.86527 0.81925 0.10251 0.0
O555 O 0.84881 0.75946 0.03446 0.0
O556 O 0.91637 0.70828 0.01668 0.0
O557 O 0.94157 0.76168 0.05182 0.0
O558 O 0.8671 0.76358 0.09125 0.0
O559 O 0.8807 0.86674 0.06389 0.0
C560 C 0.92619 0.77698 0.96249 0.0
C561 C 0.72523 0.63857 0.99055 0.0
C562 C 0.7466 0.61806 0.01895 0.0
C563 C 0.87581 0.68315 0.921 0.0
C564 C 0.88287 0.65716 0.88696 0.0
C565 C 0.86611 0.66724 0.85062 0.0
C566 C 0.90616 0.6228 0.88983 0.0
C567 C 0.91184 0.59892 0.85647 0.0
C568 C 0.87173 0.64374 0.81791 0.0
C569 C 0.89423 0.6099 0.82085 0.0
C570 C 0.82684 0.8231 0.98078 0.0
C571 C 0.84248 0.74573 0.06844 0.0
C572 C 0.86724 0.85703 0.09838 0.0
C573 C 0.88262 0.87875 0.13297 0.0
C574 C 0.92173 0.89231 0.13324 0.0
C575 C 0.85917 0.88416 0.16686 0.0
C576 C 0.87523 0.90259 0.20064 0.0
C577 C 0.93786 0.90931 0.16675 0.0
C578 C 0.91504 0.91388 0.20018 0.0
C579 C 0.94304 0.72493 0.04006 0.0
H580 H 0.8484 0.69335 0.84742 0.0
H581 H 0.91985 0.6148 0.91747 0.0
H582 H 0.85862 0.65184 0.79006 0.0
H583 H 0.89836 0.5923 0.79504 0.0
H584 H 0.9402 0.88911 0.10775 0.0
H585 H 0.82889 0.87388 0.16708 0.0
H586 H 0.96838 0.91874 0.16693 0.0
H587 H 0.92866 0.92618 0.22596 0.0
Gd588 Gd 0.55484 0.60958 0.22529 0.0
Gd589 Gd 0.48294 0.63927 0.29839 0.0
C590 C 0.397 0.74031 0.29974 0.0
C591 C 0.42749 0.78472 0.34662 0.0
C592 C 0.45895 0.72288 0.33108 0.0
C593 C 0.42869 0.71419 0.30453 0.0
C594 C 0.45846 0.7583 0.35233 0.0
C595 C 0.39679 0.77566 0.32061 0.0
C596 C 0.36621 0.73008 0.27425 0.0
C597 C 0.36758 0.69474 0.25399 0.0
N598 N 0.42979 0.68011 0.28382 0.0
C599 C 0.39968 0.67002 0.25898 0.0
H600 H 0.39983 0.64295 0.2431 0.0
C601 C 0.51747 0.70346 0.36389 0.0
N602 N 0.48865 0.69675 0.33636 0.0
C603 C 0.51835 0.7384 0.38507 0.0
C604 C 0.48889 0.76604 0.37909 0.0
H605 H 0.54022 0.68209 0.36889 0.0
H606 H 0.37284 0.79615 0.31699 0.0
H607 H 0.62797 0.62286 0.29062 0.0
H608 H 0.3413 0.74925 0.26995 0.0
H609 H 0.3441 0.68659 0.23423 0.0
H610 H 0.42674 0.81209 0.36261 0.0
H611 H 0.52302 0.55535 0.1502 0.0
H612 H 0.69665 0.51955 0.29711 0.0
H613 H 0.68301 0.58701 0.3191 0.0
H614 H 0.63741 0.43592 0.20092 0.0
H615 H 0.54167 0.7439 0.40612 0.0
H616 H 0.48959 0.79305 0.39573 0.0
H617 H 0.67849 0.46272 0.25424 0.0
H618 H 0.53398 0.48992 0.12184 0.0
N619 N 0.60638 0.57518 0.25649 0.0
C620 C 0.67102 0.53465 0.28595 0.0
C621 C 0.66361 0.57276 0.29817 0.0
C622 C 0.64642 0.5172 0.25795 0.0
C623 C 0.61412 0.53863 0.24335 0.0
C624 C 0.63167 0.59294 0.28233 0.0
N625 N 0.56287 0.5468 0.19783 0.0
C626 C 0.59126 0.52374 0.21336 0.0
C627 C 0.55003 0.49885 0.14784 0.0
C628 C 0.5779 0.47402 0.16467 0.0
C629 C 0.54362 0.5357 0.16426 0.0
C630 C 0.59967 0.48674 0.19719 0.0
H631 H 0.58339 0.44577 0.15146 0.0
O632 O 0.57703 0.61729 0.16588 0.0
O633 O 0.50697 0.65441 0.2357 0.0
O634 O 0.4516 0.60069 0.25646 0.0
O635 O 0.49855 0.57 0.21796 0.0
O636 O 0.51081 0.62813 0.18169 0.0
O637 O 0.60606 0.64749 0.21323 0.0
O638 O 0.47321 0.59585 0.34505 0.0
O639 O 0.52883 0.59501 0.28282 0.0
O640 O 0.57734 0.66059 0.26377 0.0
O641 O 0.52219 0.69157 0.28797 0.0
O642 O 0.53039 0.61553 0.33888 0.0
O643 O 0.42587 0.6327 0.3287 0.0
C644 C 0.49271 0.65529 0.2003 0.0
C645 C 0.63063 0.46447 0.21281 0.0
C646 C 0.65405 0.47974 0.2431 0.0
C647 C 0.60683 0.63945 0.17602 0.0
C648 C 0.64556 0.63122 0.15789 0.0
C649 C 0.65602 0.59221 0.15077 0.0
C650 C 0.67164 0.66206 0.14601 0.0
C651 C 0.70769 0.65333 0.12719 0.0
C652 C 0.69135 0.58367 0.13239 0.0
C653 C 0.71691 0.61382 0.12094 0.0
C654 C 0.46184 0.57343 0.23167 0.0
C655 C 0.54613 0.59032 0.31558 0.0
C656 C 0.43787 0.60652 0.35373 0.0
C657 C 0.43071 0.61346 0.39647 0.0
C658 C 0.45818 0.63664 0.41679 0.0
C659 C 0.39956 0.59511 0.41812 0.0
C660 C 0.39769 0.59923 0.45981 0.0
C661 C 0.45603 0.64149 0.45705 0.0
C662 C 0.42692 0.62229 0.47838 0.0
C663 C 0.56002 0.69112 0.28015 0.0
H664 H 0.6367 0.5682 0.15916 0.0
H665 H 0.66405 0.69236 0.1514 0.0
H666 H 0.69909 0.55342 0.1271 0.0
H667 H 0.74444 0.6062 0.10762 0.0
H668 H 0.48265 0.64968 0.40171 0.0
H669 H 0.37764 0.57751 0.40294 0.0
H670 H 0.47774 0.65951 0.47201 0.0
H671 H 0.42693 0.62605 0.50992 0.0
Gd672 Gd 0.29442 0.47327 0.11697 0.0
Gd673 Gd 0.22028 0.54269 0.15147 0.0
C674 C 0.25789 0.6448 0.23082 0.0
C675 C 0.23751 0.6209 0.29478 0.0
C676 C 0.22332 0.58264 0.23626 0.0
C677 C 0.24324 0.60994 0.2135 0.0
C678 C 0.21784 0.5894 0.27668 0.0
C679 C 0.25755 0.64871 0.27177 0.0
C680 C 0.26866 0.67626 0.20649 0.0
C681 C 0.26293 0.67327 0.16618 0.0
N682 N 0.24182 0.60574 0.17391 0.0
C683 C 0.24882 0.63805 0.15035 0.0
H684 H 0.24349 0.63757 0.11916 0.0
C685 C 0.17138 0.5365 0.23558 0.0
N686 N 0.20312 0.55375 0.2176 0.0
C687 C 0.16501 0.54165 0.27564 0.0
C688 C 0.18956 0.56699 0.29672 0.0
H689 H 0.15206 0.51758 0.21919 0.0
H690 H 0.26986 0.67466 0.28561 0.0
H691 H 0.23592 0.39405 0.1439 0.0
H692 H 0.27878 0.7039 0.21866 0.0
H693 H 0.26911 0.69819 0.14724 0.0
H694 H 0.23456 0.62589 0.32597 0.0
H695 H 0.35933 0.5037 0.04928 0.0
H696 H 0.21441 0.32402 0.04395 0.0
H697 H 0.20718 0.33637 0.11467 0.0
H698 H 0.29043 0.38556 0.94353 0.0
H699 H 0.14091 0.52655 0.2901 0.0
H700 H 0.18418 0.57151 0.32765 0.0
H701 H 0.24454 0.34321 0.98019 0.0
H702 H 0.37425 0.49293 0.97983 0.0
N703 N 0.26026 0.41777 0.09047 0.0
C704 C 0.22744 0.35022 0.05664 0.0
C705 C 0.22343 0.35701 0.09651 0.0
C706 C 0.24963 0.37643 0.03395 0.0
C707 C 0.26629 0.4101 0.05194 0.0
C708 C 0.23999 0.39082 0.11298 0.0
N709 N 0.31073 0.46341 0.05047 0.0
C710 C 0.29194 0.43396 0.03122 0.0
C711 C 0.35067 0.47644 0.99369 0.0
C712 C 0.33003 0.44779 0.97285 0.0
C713 C 0.34156 0.48288 0.03295 0.0
C714 C 0.30138 0.42512 0.99197 0.0
H715 H 0.33776 0.44213 0.94264 0.0
O716 O 0.35645 0.45945 0.11492 0.0
O717 O 0.28244 0.51845 0.16361 0.0
O718 O 0.25608 0.57283 0.10542 0.0
O719 O 0.30113 0.52945 0.07908 0.0
O720 O 0.3353 0.52092 0.13336 0.0
O721 O 0.31798 0.42465 0.15278 0.0
O722 O 0.15842 0.53429 0.14013 0.0
O723 O 0.23747 0.50077 0.10388 0.0
O724 O 0.2613 0.4483 0.17039 0.0
O725 O 0.22555 0.49786 0.19953 0.0
O726 O 0.18212 0.49414 0.12578 0.0
O727 O 0.18438 0.591 0.12746 0.0
C728 C 0.31613 0.53619 0.16175 0.0
C729 C 0.28362 0.39268 0.97365 0.0
C730 C 0.25745 0.36862 0.99448 0.0
C731 C 0.35343 0.43048 0.13972 0.0
C732 C 0.38829 0.40738 0.15196 0.0
C733 C 0.42589 0.4222 0.14268 0.0
C734 C 0.38507 0.37055 0.1714 0.0
C735 C 0.41936 0.34883 0.18028 0.0
C736 C 0.45953 0.40093 0.15181 0.0
C737 C 0.45633 0.36447 0.17024 0.0
C738 C 0.28419 0.56443 0.08079 0.0
C739 C 0.20555 0.48194 0.09912 0.0
C740 C 0.15239 0.56967 0.12714 0.0
C741 C 0.11401 0.58701 0.13702 0.0
C742 C 0.09172 0.57068 0.16781 0.0
C743 C 0.09643 0.615 0.11182 0.0
C744 C 0.0564 0.62472 0.11651 0.0
C745 C 0.0525 0.58049 0.17263 0.0
C746 C 0.03476 0.60665 0.14684 0.0
C747 C 0.23841 0.46153 0.19867 0.0
H748 H 0.42941 0.45035 0.12808 0.0
H749 H 0.35638 0.35853 0.17882 0.0
H750 H 0.48826 0.4127 0.14433 0.0
H751 H 0.4829 0.34827 0.17675 0.0
H752 H 0.10387 0.54882 0.18722 0.0
H753 H 0.11327 0.62811 0.08811 0.0
H754 H 0.03552 0.5671 0.19601 0.0
H755 H 1.00397 0.61342 0.15098 0.0
Gd756 Gd 0.72717 0.9927 0.87055 0.0
Gd757 Gd 0.79736 0.06531 0.9055 0.0
C758 C 0.86818 0.03103 1.01368 0.0
C759 C 0.84243 0.07522 0.06279 0.0
C760 C 0.81786 0.07798 0.99582 0.0
C761 C 0.84271 0.04775 0.98556 0.0
C762 C 0.81805 0.09263 0.03431 0.0
C763 C 0.86737 0.04444 0.0525 0.0
C764 C 0.89434 1.002 1.00173 0.0
C765 C 0.8957 0.99151 0.9623 0.0
N766 N 0.84321 0.03586 0.94772 0.0
C767 C 0.8702 1.00921 0.93548 0.0
H768 H 0.8726 1.00165 0.90507 0.0
C769 C 0.77351 0.12721 0.97491 0.0
N770 N 0.79436 0.09394 0.96771 0.0
C771 C 0.77255 0.14268 1.01276 0.0
C772 C 0.79442 0.12495 0.04274 0.0
H773 H 0.75656 0.14072 0.95163 0.0
H774 H 0.88655 0.0318 0.07459 0.0
H775 H 0.65562 0.06288 0.87122 0.0
H776 H 0.91436 0.98837 0.02242 0.0
H777 H 0.91673 0.97021 0.95241 0.0
H778 H 0.84279 0.08585 0.09266 0.0
H779 H 0.76534 0.9153 0.82449 0.0
H780 H 0.5881 0.05103 0.76716 0.0
H781 H 0.60124 0.08379 0.83024 0.0
H782 H 0.64899 0.94598 0.69937 0.0
H783 H 0.75503 0.16827 0.01876 0.0
H784 H 0.79366 0.13704 0.07202 0.0
H785 H 0.60685 1.00081 0.71813 0.0
H786 H 0.75493 0.87897 0.76294 0.0
N787 N 0.67707 0.0202 0.83116 0.0
C788 C 0.61338 0.04251 0.78458 0.0
C789 C 0.62048 0.06082 0.82025 0.0
C790 C 0.63827 0.01268 0.77224 0.0
C791 C 0.67031 1.00187 0.79644 0.0
C792 C 0.65197 0.04873 0.84356 0.0
N793 N 0.72333 0.95936 0.8106 0.0
C794 C 0.69421 0.97087 0.78578 0.0
C795 C 0.73792 0.90496 0.76877 0.0
C796 C 0.70929 0.91735 0.74216 0.0
C797 C 0.74399 0.92587 0.80339 0.0
C798 C 0.68648 0.95012 0.7508 0.0
H799 H 0.70417 0.9007 0.71562 0.0
O800 O 0.7174 0.93035 0.88196 0.0
O801 O 0.78573 0.99889 0.90165 0.0
O802 O 0.82794 0.03283 0.86056 0.0
O803 O 0.78542 0.98664 0.83319 0.0
O804 O 0.74142 0.97065 0.93039 0.0
O805 O 0.6715 0.97256 0.8949 0.0
O806 O 0.8071 0.12385 0.88095 0.0
O807 O 0.75328 0.05077 0.85894 0.0
O808 O 0.69951 0.03564 0.91394 0.0
O809 O 0.75245 0.05523 0.95206 0.0
O810 O 0.75282 0.10695 0.87796 0.0
O811 O 0.85673 0.08809 0.8959 0.0
C812 C 0.77848 0.97665 0.93106 0.0
C813 C 0.65531 0.96161 0.72629 0.0
C814 C 0.63126 0.99276 0.737 0.0
C815 C 0.68163 0.93561 0.89496 0.0
C816 C 0.6507 0.90642 0.88461 0.0
C817 C 0.65161 0.88621 0.84891 0.0
C818 C 0.62037 0.89763 0.9116 0.0
C819 C 0.59154 0.86877 0.9029 0.0
C820 C 0.62313 0.85762 0.84032 0.0
C821 C 0.59333 0.84886 0.86711 0.0
C822 C 0.82014 1.00644 0.83406 0.0
C823 C 0.73759 0.08366 0.85218 0.0
C824 C 0.84516 0.12185 0.8822 0.0
C825 C 0.8662 0.15747 0.89561 0.0
C826 C 0.87342 0.16335 0.93565 0.0
C827 C 0.87814 0.18657 0.86825 0.0
C828 C 0.89709 0.22133 0.88111 0.0
C829 C 0.89206 0.19772 0.94835 0.0
C830 C 0.9036 0.22655 0.92135 0.0
C831 C 0.71458 0.05006 0.94685 0.0
H832 H 0.67442 0.89217 0.82775 0.0
H833 H 0.61934 0.91289 0.93937 0.0
H834 H 0.62428 0.84203 0.81281 0.0
H835 H 0.57163 0.82644 0.86002 0.0
H836 H 0.8644 0.14153 0.95709 0.0
H837 H 0.87245 0.18241 0.83724 0.0
H838 H 0.89727 0.20222 0.97934 0.0
H839 H 0.91711 0.25326 0.93193 0.0
Gd840 Gd 0.81222 0.03996 0.36365 0.0
Gd841 Gd 0.7408 0.96823 0.39885 0.0
C842 C 0.64692 0.9743 0.49404 0.0
C843 C 0.67926 0.94155 0.54865 0.0
C844 C 0.7113 0.94616 0.48522 0.0
C845 C 0.68013 0.96741 0.47048 0.0
C846 C 0.71048 0.93152 0.52395 0.0
C847 C 0.64745 0.96289 0.53367 0.0
C848 C 0.61338 0.99041 0.47659 0.0
C849 C 0.61277 0.99715 0.43624 0.0
N850 N 0.68056 0.97782 0.43195 0.0
C851 C 0.64654 0.99035 0.41418 0.0
H852 H 0.64469 0.99508 0.38294 0.0
C853 C 0.76697 0.90806 0.47058 0.0
N854 N 0.74062 0.93655 0.46042 0.0
C855 C 0.76748 0.89278 0.50869 0.0
C856 C 0.73988 0.9055 0.53591 0.0
H857 H 0.78887 0.89883 0.44977 0.0
H858 H 0.6226 0.96876 0.55245 0.0
H859 H 0.89298 0.98643 0.38205 0.0
H860 H 0.58722 0.99597 0.49361 0.0
H861 H 0.58628 1.00764 0.4221 0.0
H862 H 0.67849 0.93129 0.57877 0.0
H863 H 0.77766 0.10911 0.30252 0.0
H864 H 0.95195 0.96488 0.2752 0.0
H865 H 0.94606 0.95513 0.34652 0.0
H866 H 0.88019 0.04204 0.1818 0.0
H867 H 0.78907 0.87122 0.51697 0.0
H868 H 0.74034 0.89358 0.56544 0.0
H869 H 0.92646 0.99677 0.21336 0.0
H870 H 0.78197 0.12744 0.23257 0.0
N871 N 0.86403 1.00841 0.33103 0.0
C872 C 0.92683 0.97673 0.29028 0.0
C873 C 0.92379 0.97134 0.33063 0.0
C874 C 0.89891 0.99945 0.27047 0.0
C875 C 0.86767 0.01545 0.29205 0.0
C876 C 0.89266 0.98826 0.3507 0.0
N877 N 0.81632 0.0605 0.29756 0.0
C878 C 0.84256 0.04198 0.27461 0.0
C879 C 0.79889 0.10306 0.24384 0.0
C880 C 0.82384 0.08246 0.2192 0.0
C881 C 0.79642 0.09244 0.28337 0.0
C882 C 0.84711 0.05246 0.23479 0.0
H883 H 0.82634 0.09122 0.18871 0.0
O884 O 0.83109 0.10022 0.36202 0.0
O885 O 0.76687 0.03073 0.41089 0.0
O886 O 0.70875 0.01509 0.36731 0.0
O887 O 0.75553 0.04231 0.32565 0.0
O888 O 0.7698 0.08475 0.38219 0.0
O889 O 0.86452 0.05891 0.39819 0.0
O890 O 0.73342 0.90599 0.38694 0.0
O891 O 0.78463 0.98272 0.35189 0.0
O892 O 0.83588 1.00236 0.41561 0.0
O893 O 0.78055 0.98165 0.44947 0.0
O894 O 0.78896 0.92825 0.3761 0.0
O895 O 0.69584 0.94788 0.35756 0.0
C896 C 0.75278 0.06599 0.41036 0.0
C897 C 0.87635 0.0345 0.21246 0.0
C898 C 0.90257 1.00849 0.23042 0.0
C899 C 0.86088 0.09484 0.3854 0.0
C900 C 0.88566 0.12871 0.39738 0.0
C901 C 0.86988 0.16654 0.3935 0.0
C902 C 0.92387 0.12431 0.4134 0.0
C903 C 0.94592 0.15786 0.42484 0.0
C904 C 0.89108 0.19931 0.40589 0.0
C905 C 0.92847 0.19492 0.42185 0.0
C906 C 0.71838 0.03531 0.33595 0.0
C907 C 0.80228 0.9505 0.34845 0.0
C908 C 0.70332 0.91078 0.36362 0.0
C909 C 0.66936 0.88417 0.37059 0.0
C910 C 0.64793 0.8866 0.40553 0.0
C911 C 0.65936 0.85464 0.34334 0.0
C912 C 0.62794 0.82835 0.35122 0.0
C913 C 0.61627 0.86133 0.41278 0.0
C914 C 0.60627 0.83235 0.38581 0.0
C915 C 0.81887 0.98664 0.44725 0.0
H916 H 0.84052 0.17083 0.3818 0.0
H917 H 0.9363 0.09533 0.41699 0.0
H918 H 0.87818 0.22818 0.40379 0.0
H919 H 0.94348 0.2204 0.43343 0.0
H920 H 0.65596 0.90739 0.42771 0.0
H921 H 0.67637 0.85147 0.31677 0.0
H922 H 0.5999 0.86375 0.43979 0.0
H923 H 0.58208 0.8124 0.39229 0.0
Gd924 Gd 0.22418 0.54529 0.61872 0.0
Gd925 Gd 0.29982 0.47886 0.64916 0.0
C926 C 0.29642 0.3906 0.75091 0.0
C927 C 0.3423 0.42018 0.79715 0.0
C928 C 0.33042 0.45124 0.73384 0.0
C929 C 0.30334 0.42204 0.72447 0.0
C930 C 0.35105 0.44996 0.76978 0.0
C931 C 0.31509 0.39052 0.78769 0.0
C932 C 0.2716 0.35971 0.73933 0.0
C933 C 0.25527 0.3601 0.70183 0.0
N934 N 0.28511 0.4233 0.68888 0.0
C935 C 0.26291 0.39182 0.6768 0.0
H936 H 0.25205 0.38965 0.64752 0.0
C937 C 0.36985 0.50464 0.71177 0.0
N938 N 0.33854 0.47949 0.70666 0.0
C939 C 0.39081 0.50478 0.74713 0.0
C940 C 0.38086 0.47781 0.77658 0.0
H941 H 0.37739 0.52569 0.6891 0.0
H942 H 0.30948 0.36707 0.80862 0.0
H943 H 0.26284 0.6315 0.65703 0.0
H944 H 0.26561 0.33507 0.75872 0.0
H945 H 0.23707 0.33579 0.69194 0.0
H946 H 0.35735 0.41909 0.8252 0.0
H947 H 0.19028 0.49976 0.53329 0.0
H948 H 0.2761 0.71324 0.56454 0.0
H949 H 0.28099 0.6959 0.63455 0.0
H950 H 0.23534 0.6439 0.45067 0.0
H951 H 0.41459 0.52567 0.75167 0.0
H952 H 0.39728 0.47786 0.80389 0.0
H953 H 0.2586 0.69387 0.49682 0.0
H954 H 0.18731 0.51311 0.46457 0.0
N955 N 0.25173 0.60707 0.59962 0.0
C956 C 0.26914 0.68356 0.57403 0.0
C957 C 0.27215 0.67386 0.61343 0.0
C958 C 0.25658 0.65511 0.54736 0.0
C959 C 0.24784 0.6166 0.56102 0.0
C960 C 0.26261 0.6359 0.62586 0.0
N961 N 0.22199 0.55275 0.54913 0.0
C962 C 0.23364 0.58853 0.53506 0.0
C963 C 0.20107 0.53437 0.48388 0.0
C964 C 0.2138 0.5703 0.46918 0.0
C965 C 0.20426 0.52649 0.52391 0.0
C966 C 0.22932 0.59824 0.4948 0.0
H967 H 0.21009 0.57675 0.43823 0.0
O968 O 0.16414 0.56339 0.6046 0.0
O969 O 0.23807 0.50296 0.66766 0.0
O970 O 0.26026 0.44478 0.60992 0.0
O971 O 0.20706 0.48418 0.59363 0.0
O972 O 0.18252 0.5012 0.64168 0.0
O973 O 0.19684 0.59135 0.65248 0.0
O974 O 0.36011 0.4755 0.62806 0.0
O975 O 0.28042 0.52023 0.60083 0.0
O976 O 0.25973 0.56822 0.6728 0.0
O977 O 0.29391 0.51724 0.70156 0.0
O978 O 0.33565 0.52938 0.62279 0.0
O979 O 0.32099 0.4256 0.62127 0.0
C980 C 0.20286 0.48803 0.67095 0.0
C981 C 0.23893 0.63606 0.48132 0.0
C982 C 0.25204 0.66452 0.50758 0.0
C983 C 0.1645 0.58985 0.63213 0.0
C984 C 0.1309 0.61579 0.64033 0.0
C985 C 0.09468 0.60835 0.62178 0.0
C986 C 0.13456 0.64827 0.66594 0.0
C987 C 0.10214 0.67303 0.67223 0.0
C988 C 0.06274 0.63274 0.62819 0.0
C989 C 0.0663 0.66455 0.65343 0.0
C990 C 0.22634 0.45026 0.5927 0.0
C991 C 0.31148 0.54038 0.59575 0.0
C992 C 0.35667 0.43929 0.61626 0.0
C993 C 0.38975 0.41284 0.6261 0.0
C994 C 0.39588 0.40066 0.66496 0.0
C995 C 0.41623 0.40047 0.59685 0.0
C996 C 0.44879 0.37675 0.60691 0.0
C997 C 0.42787 0.37721 0.6749 0.0
C998 C 0.45422 0.36543 0.64617 0.0
C999 C 0.28222 0.55375 0.70144 0.0
H1000 H 0.09104 0.58375 0.60207 0.0
H1001 H 0.16237 0.65468 0.68035 0.0
H1002 H 0.03518 0.62728 0.61315 0.0
H1003 H 0.041 0.68286 0.65815 0.0
H1004 H 0.37606 0.4093 0.68773 0.0
H1005 H 0.41186 0.40955 0.56663 0.0
H1006 H 0.43229 0.36817 0.70507 0.0
H1007 H 0.47888 0.34721 0.65451 0.0
C1008 C 0.18233 0.34746 0.59417 0.0
C1009 C 0.18987 0.33353 0.55601 0.0
C1010 C 0.22196 0.39775 0.54078 0.0
C1011 C 0.20831 0.4132 0.57669 0.0
N1012 N 0.17601 0.40232 0.6379 0.0
N1013 N 0.21764 0.34606 0.49237 0.0
C1014 C 0.18899 0.38759 0.60346 0.0
C1015 C 0.21105 0.35863 0.52959 0.0
N1016 N 0.1643 0.32303 0.62016 0.0
N1017 N 0.24556 0.42051 0.51741 0.0
H1018 H 0.21072 0.31755 0.48387 0.0
H1019 H 0.22791 0.36401 0.46973 0.0
H1020 H 0.25103 0.45013 0.52312 0.0
H1021 H 0.26096 0.40975 0.49352 0.0
H1022 H 0.15971 0.32868 0.64967 0.0
H1023 H 0.15307 0.2965 0.61083 0.0
H1024 H 0.16981 0.38589 0.66293 0.0
H1025 H 0.16826 0.43151 0.63961 0.0
C1026 C 0.85836 0.96789 0.78171 0.0
C1027 C 0.85668 0.9963 0.81128 0.0
C1028 C 0.92927 0.99638 0.81635 0.0
C1029 C 0.93011 0.96361 0.79149 0.0
N1030 N 0.90078 0.95076 0.72895 0.0
N1031 N 0.89338 0.05568 0.82697 0.0
C1032 C 0.89598 0.95737 0.76776 0.0
C1033 C 0.89302 0.01617 0.82074 0.0
N1034 N 0.82521 0.95481 0.76337 0.0
N1035 N 0.96284 1.01159 0.83192 0.0
H1036 H 0.86866 0.07262 0.82081 0.0
H1037 H 0.91911 0.07196 0.8317 0.0
H1038 H 0.98983 1.00623 0.81915 0.0
H1039 H 0.96272 0.03213 0.8545 0.0
H1040 H 0.82565 0.93142 0.74374 0.0
H1041 H 0.79835 0.96881 0.76657 0.0
H1042 H 0.87734 0.94944 0.70909 0.0
H1043 H 0.92878 0.95282 0.71664 0.0
C1044 C 0.28368 0.66379 0.03139 0.0
C1045 C 0.31045 0.68308 0.05733 0.0
C1046 C 0.3321 0.61896 0.08038 0.0
C1047 C 0.30119 0.59982 0.06075 0.0
N1048 N 0.25054 0.60294 1.01227 0.0
N1049 N 0.35127 0.67915 0.11287 0.0
C1050 C 0.27742 0.62218 0.03489 0.0
C1051 C 0.33099 0.66028 0.08452 0.0
N1052 N 0.26627 0.68503 1.00218 0.0
N1053 N 0.36314 0.5978 0.09338 0.0
H1054 H 0.34122 0.70618 0.12242 0.0
H1055 H 0.37546 0.6677 0.12685 0.0
H1056 H 0.36561 0.56797 0.08742 0.0
H1057 H 0.38864 0.61129 0.10333 0.0
H1058 H 0.24968 0.6726 0.97962 0.0
H1059 H 0.26981 0.71545 1.00017 0.0
H1060 H 0.22896 0.61687 0.99565 0.0
H1061 H 0.25133 0.57242 1.01001 0.0
C1062 C 0.61905 0.06965 0.33857 0.0
C1063 C 0.60167 0.05805 0.30325 0.0
C1064 C 0.66781 0.03677 0.282 0.0
C1065 C 0.68436 0.05387 0.31593 0.0
N1066 N 0.67528 0.10501 0.36234 0.0
N1067 N 0.61162 0.03234 0.23805 0.0
C1068 C 0.65988 0.07586 0.34009 0.0
C1069 C 0.62668 0.04142 0.27403 0.0
N1070 N 0.59701 0.07386 0.37112 0.0
N1071 N 0.6918 0.01785 0.25677 0.0
H1072 H 0.58185 0.0347 0.23158 0.0
H1073 H 0.62877 0.02434 0.21425 0.0
H1074 H 0.72226 0.02102 0.25912 0.0
H1075 H 0.68166 1.00019 0.23395 0.0
H1076 H 0.60988 0.07964 0.39819 0.0
H1077 H 0.56778 0.06464 0.3716 0.0
H1078 H 0.65686 0.12555 0.37496 0.0
H1079 H 0.70513 0.11223 0.36138 0.0
C1080 C 0.68697 0.13808 0.45184 0.0
C1081 C 0.71272 0.16973 0.46133 0.0
C1082 C 0.768 0.12319 0.45497 0.0
C1083 C 0.74132 0.09251 0.44399 0.0
N1084 N 0.67695 0.06812 0.45398 0.0
N1085 N 0.77899 0.19202 0.47301 0.0
C1086 C 0.7012 0.09933 0.44926 0.0
C1087 C 0.75381 0.1621 0.46355 0.0
N1088 N 0.64856 0.14545 0.44379 0.0
N1089 N 0.80689 0.11422 0.4575 0.0
H1090 H 0.76934 0.22076 0.47562 0.0
H1091 H 0.80919 0.18912 0.47671 0.0
H1092 H 0.81625 0.08537 0.45388 0.0
H1093 H 0.8292 0.13395 0.46488 0.0
H1094 H 0.62712 0.12409 0.43916 0.0
H1095 H 0.6395 0.17355 0.43734 0.0
H1096 H 0.64725 0.07015 0.46094 0.0
H1097 H 0.68988 0.04119 0.45859 0.0
C1098 C 0.1388 0.42963 0.73729 0.0
C1099 C 0.10259 0.45133 0.73441 0.0
C1100 C 0.14354 0.50731 0.71124 0.0
C1101 C 0.17704 0.48296 0.70721 0.0
N1102 N 0.20994 0.43318 0.74159 0.0
N1103 N 0.07322 0.51418 0.72177 0.0
C1104 C 0.17569 0.44718 0.72703 0.0
C1105 C 0.10587 0.49123 0.72219 0.0
N1106 N 0.1382 0.39139 0.74844 0.0
N1107 N 0.14967 0.54675 0.70996 0.0
H1108 H 0.04619 0.50442 0.73255 0.0
H1109 H 0.07246 0.54196 0.70885 0.0
H1110 H 0.17835 0.5578 0.70971 0.0
H1111 H 0.12811 0.56748 0.7154 0.0
H1112 H 0.16265 0.37319 0.74731 0.0
H1113 H 0.11196 0.37717 0.75381 0.0
H1114 H 0.21132 0.40983 0.76143 0.0
H1115 H 0.23538 0.45033 0.7392 0.0
C1116 C 0.8119 0.91145 0.91602 0.0
C1117 C 0.80005 0.93997 0.94384 0.0
C1118 C 0.79246 0.88643 0.99242 0.0
C1119 C 0.80459 0.85799 0.9645 0.0
N1120 N 0.81097 0.84331 0.89631 0.0
N1121 N 0.78805 0.95512 1.01107 0.0
C1122 C 0.80993 0.87049 0.92526 0.0
C1123 C 0.79299 0.92735 0.98284 0.0
N1124 N 0.82877 0.92358 0.88205 0.0
N1125 N 0.77947 0.87367 0.02818 0.0
H1126 H 0.78932 0.98511 1.00462 0.0
H1127 H 0.78648 0.94892 0.04094 0.0
H1128 H 0.77773 0.8439 0.03531 0.0
H1129 H 0.76702 0.89179 0.0491 0.0
H1130 H 0.84037 0.90475 0.8612 0.0
H1131 H 0.83775 0.95245 0.87905 0.0
H1132 H 0.81132 0.85046 0.86658 0.0
H1133 H 0.80561 0.81385 0.90222 0.0
C1134 C 0.40655 0.58246 0.18781 0.0
C1135 C 0.42656 0.55555 0.21155 0.0
C1136 C 0.36362 0.51854 0.21668 0.0
C1137 C 0.34376 0.548 0.19444 0.0
N1138 N 0.34559 0.61597 0.17846 0.0
N1139 N 0.42091 0.50096 0.25627 0.0
C1140 C 0.36507 0.58276 0.18704 0.0
C1141 C 0.40408 0.52436 0.22853 0.0
N1142 N 0.42784 0.60813 0.16593 0.0
N1143 N 0.34386 0.48503 0.22613 0.0
H1144 H 0.45056 0.50367 0.26361 0.0
H1145 H 0.40513 0.48034 0.27273 0.0
H1146 H 0.31366 0.48286 0.22141 0.0
H1147 H 0.35742 0.46029 0.23795 0.0
H1148 H 0.41739 0.63468 0.15574 0.0
H1149 H 0.45496 0.59949 0.15512 0.0
H1150 H 0.35885 0.6434 0.18174 0.0
H1151 H 0.31553 0.61512 0.17452 0.0
C1152 C 0.55923 0.23721 0.35424 0.0
C1153 C 0.54984 0.19632 0.35245 0.0
C1154 C 0.56236 0.19338 0.42447 0.0
C1155 C 0.58061 0.23021 0.42412 0.0
N1156 N 0.57707 0.2935 0.39492 0.0
N1157 N 0.54101 0.13616 0.38955 0.0
C1158 C 0.57394 0.25399 0.39028 0.0
C1159 C 0.55127 0.1747 0.38868 0.0
N1160 N 0.55285 0.26019 0.3219 0.0
N1161 N 0.54904 0.17966 0.45927 0.0
H1162 H 0.53336 0.12146 0.36429 0.0
H1163 H 0.54375 0.11846 0.41446 0.0
H1164 H 0.55046 0.19813 0.4834 0.0
H1165 H 0.53019 0.15548 0.4619 0.0
H1166 H 0.56178 0.28939 0.31944 0.0
H1167 H 0.53957 0.24946 0.29645 0.0
H1168 H 0.57266 0.31433 0.37297 0.0
H1169 H 0.57948 0.30496 0.42311 0.0
C1170 C 0.04726 0.27122 0.6309 0.0
C1171 C 0.06396 0.29607 0.60158 0.0
C1172 C 0.07668 0.34569 0.65201 0.0
C1173 C 0.06055 0.32058 0.68132 0.0
N1174 N 0.03904 0.25642 0.70035 0.0
N1175 N 0.08609 0.36077 0.58326 0.0
C1176 C 0.04834 0.28233 0.67117 0.0
C1177 C 0.07606 0.33456 0.61192 0.0
N1178 N 0.02872 0.23761 0.61937 0.0
N1179 N 0.09153 0.38116 0.66306 0.0
H1180 H 0.08064 0.35488 0.55417 0.0
H1181 H 0.09607 0.38935 0.5875 0.0
H1182 H 0.09108 0.38954 0.69197 0.0
H1183 H 0.10212 0.40299 0.64453 0.0
H1184 H 0.01405 0.21829 0.63814 0.0
H1185 H 0.02406 0.23234 0.58973 0.0
H1186 H 0.03149 0.22712 0.69578 0.0
H1187 H 0.04384 0.26365 0.72964 0.0
C1188 C 1.00439 0.81304 0.88953 0.0
C1189 C 0.98141 0.82244 0.85631 0.0
C1190 C 0.92333 0.80016 0.89096 0.0
C1191 C 0.94418 0.79839 0.92762 0.0
N1192 N 1.00816 0.7958 0.95865 0.0
N1193 N 0.93405 0.78451 0.8236 0.0
C1194 C 0.98595 0.80233 0.92586 0.0
C1195 C 0.94394 0.80612 0.85537 0.0
N1196 N 0.04338 0.80745 0.88385 0.0
N1197 N 0.88407 0.79381 0.88905 0.0
H1198 H 0.95445 0.78096 0.80112 0.0
H1199 H 0.9099 0.76532 0.82344 0.0
H1200 H 0.8678 0.78963 0.91401 0.0
H1201 H 0.86824 0.79552 0.86279 0.0
H1202 H 0.06071 0.79159 0.90349 0.0
H1203 H 0.05663 0.81431 0.85708 0.0
H1204 H 0.03812 0.80232 0.96007 0.0
H1205 H 0.99614 0.78596 0.98506 0.0
C1206 C 0.50694 0.69554 0.13853 0.0
C1207 C 0.48416 0.69055 0.17299 0.0
C1208 C 0.43268 0.72875 0.13995 0.0
C1209 C 0.45117 0.72482 0.10212 0.0
N1210 N 0.51091 0.70783 0.0688 0.0
N1211 N 0.44232 0.72952 0.21065 0.0
C1212 C 0.48971 0.70887 0.1025 0.0
C1213 C 0.45087 0.71407 0.17523 0.0
N1214 N 0.54664 0.69448 0.14271 0.0
N1215 N 0.39766 0.74702 0.14261 0.0
H1216 H 0.46133 0.72475 0.23426 0.0
H1217 H 0.42198 0.75177 0.21465 0.0
H1218 H 0.38297 0.75585 0.11764 0.0
H1219 H 0.38125 0.74839 0.1683 0.0
H1220 H 0.56652 0.70056 0.12027 0.0
H1221 H 0.55866 0.69459 0.1709 0.0
H1222 H 0.5374 0.69292 0.06636 0.0
H1223 H 0.50046 0.71959 0.04267 0.0
C1224 C 0.16731 0.42367 0.27412 0.0
C1225 C 0.18815 0.39457 0.29497 0.0
C1226 C 0.24584 0.40895 0.2535 0.0
C1227 C 0.22231 0.43416 0.22959 0.0
N1228 N 0.15577 0.44674 0.20882 0.0
N1229 N 0.24643 0.35515 0.30087 0.0
C1230 C 0.18162 0.43638 0.2376 0.0
C1231 C 0.22745 0.38611 0.28396 0.0
N1232 N 0.13279 0.43786 0.28825 0.0
N1233 N 0.28526 0.40635 0.24733 0.0
H1234 H 0.234 0.33815 0.3232 0.0
H1235 H 0.27327 0.34474 0.2909 0.0
H1236 H 0.29895 0.41903 0.22326 0.0
H1237 H 0.30442 0.39263 0.2669 0.0
H1238 H 0.11736 0.4602 0.27407 0.0
H1239 H 0.12199 0.42987 0.31583 0.0
H1240 H 0.12533 0.44556 0.21262 0.0
H1241 H 0.16488 0.45209 0.18024 0.0
C1242 C 0.88945 0.92569 0.51079 0.0
C1243 C 0.87203 0.93059 0.548 0.0
C1244 C 0.83015 0.98235 0.52017 0.0
C1245 C 0.84241 0.97219 0.48173 0.0
N1246 N 0.87971 0.92871 0.44088 0.0
N1247 N 0.82399 0.96223 0.58834 0.0
C1248 C 0.87163 0.94297 0.47713 0.0
C1249 C 0.84221 0.95898 0.55292 0.0
N1250 N 0.92263 0.90367 0.50753 0.0
N1251 N 0.80696 0.01443 0.52529 0.0
H1252 H 0.83283 0.94649 0.61315 0.0
H1253 H 0.79864 0.97857 0.59251 0.0
H1254 H 0.79824 0.03245 0.50203 0.0
H1255 H 0.79959 0.02535 0.55271 0.0
H1256 H 0.93878 0.9019 0.48172 0.0
H1257 H 0.93614 0.89042 0.53171 0.0
H1258 H 0.89731 0.90437 0.43607 0.0
H1259 H 0.86535 0.93865 0.41595 0.0
C1260 C 0.27992 0.57142 0.77309 0.0
C1261 C 0.29559 0.57858 0.73515 0.0
C1262 C 0.34503 0.62333 0.764 0.0
C1263 C 0.33342 0.61138 0.80215 0.0
N1264 N 0.29013 0.57351 0.84373 0.0
N1265 N 0.3465 0.60733 0.69509 0.0
C1266 C 0.30044 0.58579 0.80693 0.0
C1267 C 0.32866 0.60405 0.7307 0.0
N1268 N 0.24558 0.55051 0.77664 0.0
N1269 N 0.37228 0.65283 0.75975 0.0
H1270 H 0.33624 0.59211 0.67078 0.0
H1271 H 0.37325 0.62179 0.69055 0.0
H1272 H 0.3848 0.66736 0.78369 0.0
H1273 H 0.37956 0.66538 0.73278 0.0
H1274 H 0.23028 0.54724 0.80283 0.0
H1275 H 0.23073 0.53881 0.7525 0.0
H1276 H 0.26956 0.55133 0.84927 0.0
H1277 H 0.30375 0.58424 0.86901 0.0
C1278 C 0.65034 0.11478 1.0106 0.0
C1279 C 0.6627 0.10152 0.04814 0.0
C1280 C 0.695 0.04569 0.01724 0.0
C1281 C 0.68925 0.06317 0.97979 0.0
N1282 N 0.66435 0.11704 0.94128 0.0
N1283 N 0.69995 0.05562 0.08735 0.0
C1284 C 0.66708 0.09812 0.97648 0.0
C1285 C 0.68547 0.06696 0.05162 0.0
N1286 N 0.62263 0.14343 1.00761 0.0
N1287 N 0.70939 1.00852 0.0198 0.0
H1288 H 0.69369 0.07028 0.11328 0.0
H1289 H 0.72066 0.03352 0.09087 0.0
H1290 H 0.7149 0.9919 0.99494 0.0
H1291 H 0.71152 0.99279 0.046 0.0
H1292 H 0.6099 0.15192 0.98107 0.0
H1293 H 0.60957 0.15594 0.03213 0.0
H1294 H 0.65302 0.14518 0.93792 0.0
H1295 H 0.67623 0.10559 0.9159 0.0
C1296 C 0.70535 0.0873 0.74295 0.0
C1297 C 0.68687 0.12423 0.74019 0.0
C1298 C 0.70032 0.13492 0.81033 0.0
C1299 C 0.72128 0.09867 0.81291 0.0
N1300 N 0.75738 0.0519 0.77458 0.0
N1301 N 0.67623 0.18759 0.76849 0.0
C1302 C 0.72746 0.07783 0.77723 0.0
C1303 C 0.68757 0.14946 0.77299 0.0
N1304 N 0.70251 0.06139 0.71263 0.0
N1305 N 0.69074 0.15509 0.84333 0.0
H1306 H 0.66634 0.19895 0.74176 0.0
H1307 H 0.68047 0.20875 0.79009 0.0
H1308 H 0.69922 0.14698 0.8714 0.0
H1309 H 0.67134 0.17857 0.84312 0.0
H1310 H 0.71205 0.03246 0.71488 0.0
H1311 H 0.68821 0.06797 0.68628 0.0
H1312 H 0.76387 0.03637 0.74923 0.0
H1313 H 0.7802 0.05295 0.79472 0.0
C1314 C 0.16816 0.43437 0.05467 0.0
C1315 C 0.18889 0.47038 0.05974 0.0
C1316 C 0.17938 0.48481 0.98949 0.0
C1317 C 0.16576 0.44575 0.98322 0.0
N1318 N 0.14352 0.38412 1.01234 0.0
N1319 N 0.19132 0.53685 0.03581 0.0
C1320 C 0.1584 0.42113 0.01632 0.0
C1321 C 0.18825 0.49774 0.0282 0.0
N1322 N 0.15677 0.41272 0.0865 0.0
N1323 N 0.18508 0.50946 0.95821 0.0
H1324 H 0.19703 0.54778 0.06365 0.0
H1325 H 0.18323 0.55827 0.01544 0.0
H1326 H 0.17593 0.50243 0.92982 0.0
H1327 H 0.20025 0.53614 0.96036 0.0
H1328 H 0.14086 0.38646 0.08392 0.0
H1329 H 0.16225 0.42165 0.11522 0.0
H1330 H 0.13608 0.37146 0.98549 0.0
H1331 H 0.13608 0.37146 0.98549 0.0
C1332 C 0.84848 0.90551 0.30976 0.0
C1333 C 0.81773 0.93376 0.31018 0.0
C1334 C 0.82097 0.93736 0.23787 0.0
C1335 C 0.85192 0.9098 0.23743 0.0
N1336 N 0.88729 0.85954 0.27213 0.0
N1337 N 0.76343 0.95876 0.27209 0.0
C1338 C 0.86333 0.8915 0.27322 0.0
C1339 C 0.80073 0.94473 0.27355 0.0
N1340 N 0.86402 0.89207 0.34417 0.0
N1341 N 0.81147 0.95788 0.20468 0.0
H1342 H 0.74596 0.96152 0.29689 0.0
H1343 H 0.74813 0.96131 0.24564 0.0
H1344 H 0.82555 0.95388 0.17793 0.0
H1345 H 0.7919 0.98128 0.20485 0.0
H1346 H 0.89061 0.87724 0.34605 0.0
H1347 H 0.85076 0.89648 0.37104 0.0
H1348 H 0.89376 0.84221 0.29653 0.0
H1349 H 0.89763 0.84793 0.24592 0.0
C1350 C 0.33632 0.52814 0.5255 0.0
C1351 C 0.32704 0.55477 0.55635 0.0
C1352 C 0.34905 0.60883 0.51347 0.0
C1353 C 0.36555 0.58259 0.48622 0.0
N1354 N 0.37851 0.51522 0.46959 0.0
N1355 N 0.34063 0.61923 0.58232 0.0
C1356 C 0.3596 0.54154 0.49266 0.0
C1357 C 0.33782 0.59482 0.55105 0.0
N1358 N 0.32476 0.48974 0.5282 0.0
N1359 N 0.34672 0.64782 0.50434 0.0
H1360 H 0.33504 0.60963 0.61063 0.0
H1361 H 0.35236 0.6476 0.58034 0.0
H1362 H 0.35341 0.65856 0.47637 0.0
H1363 H 0.3351 0.66849 0.52332 0.0
H1364 H 0.32718 0.47008 0.50508 0.0
H1365 H 0.31038 0.47815 0.55259 0.0
H1366 H 0.3793 0.48523 0.47572 0.0
H1367 H 0.39594 0.52366 0.44591 0.0
C1368 C 0.27607 0.23153 0.4685 0.0
C1369 C 0.23902 0.21752 0.45414 0.0
C1370 C 0.27383 0.17372 0.40895 0.0
C1371 C 0.30998 0.18335 0.42761 0.0
N1372 N 0.34673 0.2224 0.47371 0.0
N1373 N 0.20302 0.17064 0.41467 0.0
C1374 C 0.31143 0.21316 0.45644 0.0
C1375 C 0.23797 0.18806 0.42468 0.0
N1376 N 0.27754 0.26226 0.49408 0.0
N1377 N 0.27361 0.14985 0.37692 0.0
H1378 H 0.17659 0.17808 0.42761 0.0
H1379 H 0.20059 0.14611 0.39672 0.0
H1380 H 0.2991 0.13765 0.36559 0.0
H1381 H 0.2488 0.14513 0.35945 0.0
H1382 H 0.30331 0.27707 0.5019 0.0
H1383 H 0.25269 0.27473 0.50618 0.0
H1384 H 0.34966 0.23893 0.49913 0.0
H1385 H 0.37346 0.21199 0.46327 0.0
C1386 C 0.09178 0.98501 0.63563 0.0
C1387 C 0.09267 0.01978 0.65833 0.0
C1388 C 0.04858 0.98793 0.70595 0.0
C1389 C 0.05307 0.95077 0.68747 0.0
N1390 N 0.06403 0.92054 0.62382 0.0
N1391 N 0.07428 0.05361 0.7171 0.0
C1392 C 0.07041 0.95099 0.64913 0.0
C1393 C 0.07177 0.02097 0.69407 0.0
N1394 N 0.11312 0.98384 0.60177 0.0
N1395 N 0.01827 0.99319 0.73116 0.0
H1396 H 0.08952 0.07905 0.70872 0.0
H1397 H 0.0636 0.05434 0.74566 0.0
H1398 H 0.99477 0.97351 0.73124 0.0
H1399 H 1.01231 0.01963 0.745 0.0
H1400 H 0.11926 0.95806 0.58685 0.0
H1401 H 0.12712 1.0085 0.58978 0.0
H1402 H 0.07091 0.92197 0.59415 0.0
H1403 H 0.04767 0.89547 0.62985 0.0
C1404 C 0.24568 0.83363 0.95949 0.0
C1405 C 0.23234 0.82674 0.92099 0.0
C1406 C 0.30084 0.80925 0.9057 0.0
C1407 C 0.31086 0.80623 0.94673 0.0
N1408 N 0.27825 0.79819 1.00952 0.0
N1409 N 0.24819 0.79878 0.85819 0.0
C1410 C 0.2796 0.81421 0.97318 0.0
C1411 C 0.26016 0.81199 0.89399 0.0
N1412 N 0.22364 0.85599 0.98369 0.0
N1413 N 0.32932 0.8107 0.87771 0.0
H1414 H 0.21871 0.79818 0.84961 0.0
H1415 H 0.26715 0.78454 0.83914 0.0
H1416 H 0.35905 0.81452 0.88424 0.0
H1417 H 0.32273 0.81425 0.848 0.0
H1418 H 0.23146 0.86189 1.01267 0.0
H1419 H 0.23146 0.86189 1.01267 0.0
H1420 H 0.2537 0.80042 0.02764 0.0
H1421 H 0.2983 0.77785 0.01859 0.0
C1422 C 0.47722 0.02363 0.21094 0.0
C1423 C 0.46888 0.06128 0.19372 0.0
C1424 C 0.4279 0.02642 0.14371 0.0
C1425 C 0.43391 0.99021 0.1634 0.0
N1426 N 0.45962 0.95478 0.21885 0.0
N1427 N 0.43801 0.09687 0.14036 0.0
C1428 C 0.4575 0.98898 0.19763 0.0
C1429 C 0.44484 0.06199 0.15898 0.0
N1430 N 0.50561 0.02008 0.23884 0.0
N1431 N 0.40372 0.02687 0.11147 0.0
H1432 H 0.44455 0.12379 0.15276 0.0
H1433 H 0.42612 0.09971 0.11238 0.0
H1434 H 0.39307 1.00123 0.09837 0.0
H1435 H 0.39302 0.05205 0.09799 0.0
H1436 H 0.51682 0.99344 0.24874 0.0
H1437 H 0.52078 0.04385 0.24946 0.0
H1438 H 0.47091 0.95315 0.24726 0.0
H1439 H 0.44754 0.92824 0.20923 0.0
C1440 C 0.79516 0.32381 0.57579 0.0
C1441 C 0.79371 0.34545 0.61117 0.0
C1442 C 0.72239 0.33217 0.61454 0.0
C1443 C 0.72383 0.30823 0.58014 0.0
N1444 N 0.76625 0.2715 0.53734 0.0
N1445 N 0.75793 0.36114 0.6694 0.0
C1446 C 0.76157 0.30123 0.56336 0.0
C1447 C 0.75798 0.34641 0.63224 0.0
N1448 N 0.82855 0.32506 0.55369 0.0
N1449 N 0.68703 0.3437 0.62931 0.0
H1450 H 0.7833 0.37216 0.68296 0.0
H1451 H 0.73386 0.35864 0.68808 0.0
H1452 H 0.65998 0.33715 0.61638 0.0
H1453 H 0.68455 0.36421 0.65166 0.0
H1454 H 0.82993 0.31369 0.52544 0.0
H1455 H 0.85408 0.33985 0.5626 0.0
H1456 H 0.7936 0.26344 0.52654 0.0
H1457 H 0.74393 0.25152 0.53083 0.0
C1458 C 0.93659 0.49067 0.85185 0.0
C1459 C 0.97389 0.49205 0.83307 0.0
C1460 C 0.97429 0.56428 0.83804 0.0
C1461 C 0.93693 0.56281 0.85654 0.0
N1462 N 0.88705 0.52472 0.88955 0.0
N1463 N 0.03194 0.52927 0.81596 0.0
C1464 C 0.91987 0.52593 0.86661 0.0
C1465 C 0.99392 0.52867 0.82878 0.0
N1466 N 0.91551 0.45631 0.85265 0.0
N1467 N 0.99022 0.59992 0.82785 0.0
H1468 H 0.04711 0.50371 0.80961 0.0
H1469 H 0.04959 0.55441 0.815 0.0
H1470 H 0.97794 0.62645 0.83647 0.0
H1471 H 0.0144 0.60335 0.80948 0.0
H1472 H 0.88634 0.45419 0.86164 0.0
H1473 H 0.92596 0.43035 0.84089 0.0
H1474 H 0.87525 0.49885 0.90118 0.0
H1475 H 0.87373 0.55003 0.89996 0.0
C1476 C 0.8086 0.70106 0.11883 0.0
C1477 C 0.80567 0.72463 0.08409 0.0
C1478 C 0.7348 0.70591 0.08039 0.0
C1479 C 0.73816 0.68385 0.11568 0.0
N1480 N 0.77528 0.67066 0.17421 0.0
N1481 N 0.76125 0.75809 0.03947 0.0
C1482 C 0.77409 0.68508 0.13675 0.0
C1483 C 0.76732 0.72972 0.06714 0.0
N1484 N 0.84463 0.69132 0.13358 0.0
N1485 N 0.70087 0.70341 0.05887 0.0
H1486 H 0.78322 0.77722 0.03025 0.0
H1487 H 0.73355 0.76542 0.02868 0.0
H1488 H 0.67637 0.68724 0.06818 0.0
H1489 H 0.6979 0.71521 0.03078 0.0
H1490 H 0.84858 0.67104 0.15622 0.0
H1491 H 0.87076 0.69914 0.11994 0.0
H1492 H 0.79949 0.67432 0.19275 0.0
H1493 H 0.75049 0.65887 0.1881 0.0
C1494 C 0.60224 0.51847 0.3842 0.0
C1495 C 0.60311 0.48361 0.36204 0.0
C1496 C 0.55862 0.5148 0.31404 0.0
C1497 C 0.56484 0.55257 0.33169 0.0
N1498 N 0.59813 0.58884 0.38365 0.0
N1499 N 0.58376 0.44898 0.30374 0.0
C1500 C 0.58786 0.55384 0.367 0.0
C1501 C 0.58169 0.48186 0.32633 0.0
N1502 N 0.615 0.51775 0.42225 0.0
N1503 N 0.52938 0.50945 0.2871 0.0
H1504 H 0.59931 0.42411 0.3124 0.0
H1505 H 0.57235 0.44742 0.27538 0.0
H1506 H 0.50871 0.53077 0.28123 0.0
H1507 H 0.52212 0.48229 0.27502 0.0
H1508 H 0.61115 0.54108 0.44144 0.0
H1509 H 0.62536 0.49224 0.43574 0.0
H1510 H 0.61904 0.59126 0.40598 0.0
H1511 H 0.58891 0.61587 0.37337 0.0
C1512 C 0.42911 0.30639 0.24015 0.0
C1513 C 0.41851 0.30942 0.19992 0.0
C1514 C 0.43191 0.23934 0.19127 0.0
C1515 C 0.44417 0.2365 0.23113 0.0
N1516 N 0.44616 0.26459 0.29563 0.0
N1517 N 0.40069 0.27767 0.13957 0.0
C1518 C 0.43979 0.26916 0.25632 0.0
C1519 C 0.41656 0.27531 0.17641 0.0
N1520 N 0.43077 0.33967 0.26232 0.0
N1521 N 0.43692 0.20804 0.16713 0.0
H1522 H 0.38982 0.30381 0.12789 0.0
H1523 H 0.39517 0.25345 0.12185 0.0
H1524 H 0.4475 0.18145 0.17756 0.0
H1525 H 0.4332 0.20895 0.13683 0.0
H1526 H 0.4432 0.34098 0.29023 0.0
H1527 H 0.42093 0.36676 0.25191 0.0
H1528 H 0.44071 0.28617 0.3163 0.0
H1529 H 0.45377 0.23774 0.30806 0.0
C1530 C 0.89694 0.31717 0.82116 0.0
C1531 C 0.93684 0.3191 0.80784 0.0
C1532 C 0.94618 0.25187 0.83402 0.0
C1533 C 0.90933 0.25325 0.85313 0.0
N1534 N 0.84915 0.28749 0.86536 0.0
N1535 N 0.99067 0.27869 0.78665 0.0
C1536 C 0.8846 0.28596 0.84671 0.0
C1537 C 0.95878 0.28365 0.80987 0.0
N1538 N 0.86934 0.3421 0.80616 0.0
N1539 N 0.97041 0.22049 0.83829 0.0
H1540 H 0.99567 0.29661 0.7625 0.0
H1541 H 1.00843 0.25389 0.78841 0.0
H1542 H 0.96402 0.19589 0.85563 0.0
H1543 H 0.96402 0.19589 0.85563 0.0
H1544 H 0.83946 0.33979 0.81242 0.0
H1545 H 0.8741 0.36039 0.7822 0.0
H1546 H 0.83227 0.3128 0.8666 0.0
H1547 H 0.83774 0.26418 0.8819 0.0
C1548 C 0.02642 0.6498 0.05221 0.0
C1549 C 0.03595 0.65529 0.0925 0.0
C1550 C 0.98314 0.70237 0.09792 0.0
C1551 C 0.97536 0.70039 0.05706 0.0
N1552 N 0.99713 0.67823 0.99363 0.0
N1553 N 0.03244 0.69761 0.14863 0.0
C1554 C 0.99934 0.67596 0.03352 0.0
C1555 C 0.01771 0.68574 0.11327 0.0
N1556 N 0.04156 0.61887 0.03224 0.0
N1557 N 0.95579 0.71658 0.12298 0.0
H1558 H 0.05833 0.68613 0.16044 0.0
H1559 H 0.02112 0.7215 0.16372 0.0
H1560 H 0.92858 0.72636 0.11339 0.0
H1561 H 0.95875 0.7148 0.15341 0.0
H1562 H 0.03222 0.61116 1.00415 0.0
H1563 H 0.06143 0.59931 0.04477 0.0
H1564 H 0.01642 0.66364 0.97521 0.0
H1565 H 0.97872 0.69777 0.9791 0.0
C1566 C 0.58823 0.79831 0.29631 0.0
C1567 C 0.61813 0.79465 0.32524 0.0
C1568 C 0.61286 0.72305 0.32196 0.0
C1569 C 0.58364 0.72629 0.2922 0.0
N1570 N 0.54906 0.76672 0.24544 0.0
N1571 N 0.66562 0.75441 0.35864 0.0
C1572 C 0.57316 0.76394 0.27753 0.0
C1573 C 0.63292 0.75723 0.33533 0.0
N1574 N 0.57317 0.83449 0.28805 0.0
N1575 N 0.61883 0.6879 0.34021 0.0
H1576 H 0.68058 0.779 0.36945 0.0
H1577 H 0.67997 0.72803 0.3641 0.0
H1578 H 0.60263 0.66303 0.33295 0.0
H1579 H 0.63632 0.68438 0.36513 0.0
H1580 H 0.54802 0.83881 0.27107 0.0
H1581 H 0.58484 0.86028 0.29998 0.0
H1582 H 0.54284 0.79309 0.23123 0.0
H1583 H 0.53802 0.7421 0.23083 0.0
C1584 C 0.5422 0.3709 0.54511 0.0
C1585 C 0.54182 0.33015 0.53532 0.0
C1586 C 0.47562 0.32327 0.56409 0.0
C1587 C 0.47768 0.3627 0.57717 0.0
N1588 N 0.50814 0.42663 0.57328 0.0
N1589 N 0.50119 0.27378 0.52049 0.0
C1590 C 0.5095 0.38733 0.56539 0.0
C1591 C 0.50623 0.30829 0.54022 0.0
N1592 N 0.57376 0.39399 0.53559 0.0
N1593 N 0.44481 0.29974 0.57539 0.0
H1594 H 0.52178 0.26383 0.50034 0.0
H1595 H 0.47512 0.25745 0.52047 0.0
H1596 H 0.42074 0.31024 0.59087 0.0
H1597 H 0.444 0.26948 0.5712 0.0
H1598 H 0.58018 0.42082 0.54872 0.0
H1599 H 0.59273 0.38718 0.51297 0.0
H1600 H 0.52811 0.44731 0.56246 0.0
H1601 H 0.48525 0.43932 0.58881 0.0
C1602 C 0.08639 0.70729 0.73528 0.0
C1603 C 0.10413 0.70859 0.69771 0.0
C1604 C 0.10048 0.78056 0.6972 0.0
C1605 C 0.08127 0.77934 0.73418 0.0
N1606 N 0.06383 0.74299 0.79231 0.0
N1607 N 0.13796 0.74594 0.64799 0.0
C1608 C 0.0771 0.74305 0.75456 0.0
C1609 C 0.1149 0.74518 0.68069 0.0
N1610 N 0.07674 0.67169 0.75152 0.0
N1611 N 0.10171 0.81478 0.67611 0.0
H1612 H 0.14818 0.72043 0.63489 0.0
H1613 H 0.14998 0.77161 0.63612 0.0
H1614 H 0.08978 0.84075 0.68625 0.0
H1615 H 0.11105 0.81673 0.64713 0.0
H1616 H 0.05929 0.66824 0.77631 0.0
H1617 H 0.08519 0.64518 0.73904 0.0
H1618 H 0.06307 0.7182 0.8103 0.0
H1619 H 0.05645 0.76875 0.80673 0.0
C1620 C 0.53053 0.81306 0.97941 0.0
C1621 C 0.4938 0.83234 0.97602 0.0
C1622 C 0.52427 0.88082 0.93127 0.0
C1623 C 0.55937 0.85856 0.93106 0.0
N1624 N 0.59621 0.80284 0.95409 0.0
N1625 N 0.46299 0.89493 0.96383 0.0
C1626 C 0.56269 0.82466 0.95521 0.0
C1627 C 0.49254 0.86931 0.9563 0.0
N1628 N 0.53537 0.78587 1.00853 0.0
N1629 N 0.52066 0.9122 0.90634 0.0
H1630 H 0.44386 0.89112 0.98717 0.0
H1631 H 0.46147 0.92307 0.95186 0.0
H1632 H 0.54366 0.92251 0.88881 0.0
H1633 H 0.49413 0.92629 0.90087 0.0
H1634 H 0.5617 0.77172 0.0147 0.0
H1635 H 0.514 0.78181 0.03002 0.0
H1636 H 0.59853 0.77499 0.96661 0.0
H1637 H 0.62122 0.81165 0.93861 0.0
C1638 C 0.99086 0.16929 0.48222 0.0
C1639 C 0.98601 0.15585 0.4432 0.0
C1640 C 0.05813 0.1552 0.43614 0.0
C1641 C 0.06243 0.17564 0.47204 0.0
N1642 N 0.03462 0.18303 0.53616 0.0
N1643 N 0.01712 0.13286 0.38365 0.0
C1644 C 0.02922 0.17749 0.49707 0.0
C1645 C 0.01996 0.14717 0.42073 0.0
N1646 N 0.95846 0.1757 0.50484 0.0
N1647 N 0.09048 0.143 0.41641 0.0
H1648 H 0.99056 0.12703 0.36925 0.0
H1649 H 0.99056 0.12703 0.36925 0.0
H1650 H 0.11882 0.14643 0.42761 0.0
H1651 H 0.08856 0.128 0.38985 0.0
H1652 H 0.95939 0.19163 0.53082 0.0
H1653 H 0.93026 0.16627 0.49676 0.0
H1654 H 1.01298 0.17634 0.55674 0.0
H1655 H 0.0619 0.18941 0.54837 0.0
loop_
_geom_bond_atom_site_label_1
_geom_bond_atom_site_label_2
_geom_bond_distance
_geom_bond_site_symmetry_2
_ccdc_geom_bond_type
Gd0 N31 2.661 . S
Gd0 N37 2.601 . S
Gd0 O44 2.545 . S
Gd0 O45 2.606 . S
Gd0 O47 2.429 . S
Gd0 O48 2.545 . S
Gd0 O49 2.412 . S
Gd0 O51 2.362 . S
Gd0 O52 2.324 . S
Gd0 C59 2.828 . S
Gd1 N10 2.661 . S
Gd1 N14 2.601 . S
Gd1 O45 2.362 . S
Gd1 O46 2.324 . S
Gd1 O50 2.545 . S
Gd1 O51 2.606 . S
Gd1 O53 2.429 . S
Gd1 O54 2.545 . S
Gd1 O55 2.412 . S
Gd1 C68 2.828 . S
C2 C5 1.417 . S
C2 C7 1.431 . S
C2 C8 1.412 . S
C3 C6 1.437 . S
C3 C7 1.317 . S
C3 H22 0.929 . S
C4 C5 1.426 . S
C4 C6 1.413 . S
C4 N14 1.359 . S
C5 C2 1.417 . S
C5 C4 1.426 . S
C5 N10 1.350 . S
C6 C3 1.437 . S
C6 C4 1.413 . S
C6 C16 1.391 . S
C7 C2 1.431 . S
C7 C3 1.317 . S
C7 H18 0.930 . S
C8 C2 1.412 . S
C8 C9 1.355 . S
C8 H20 0.930 . S
C9 C8 1.355 . S
C9 C11 1.402 . S
C9 H21 0.930 . S
N10 Gd1 2.661 . S
N10 C5 1.350 . S
N10 C11 1.307 . S
C11 C9 1.402 . S
C11 N10 1.307 . S
C11 H12 0.930 . S
H12 C11 0.930 . S
C13 N14 1.334 . S
C13 C15 1.394 . S
C13 H17 0.930 . S
N14 Gd1 2.601 . S
N14 C4 1.359 . S
N14 C13 1.334 . S
C15 C13 1.394 . S
C15 C16 1.359 . S
C15 H27 0.930 . S
C16 C6 1.391 . S
C16 C15 1.359 . S
C16 H28 0.929 . S
H17 C13 0.930 . S
H18 C7 0.930 . S
H19 C36 0.930 . S
H20 C8 0.930 . S
H21 C9 0.930 . S
H22 C3 0.929 . S
H23 C41 0.930 . S
H24 C32 0.930 . S
H25 C33 0.930 . S
H26 C57 0.929 . S
H27 C15 0.930 . S
H28 C16 0.929 . S
H29 C58 0.930 . S
H30 C39 0.930 . S
N31 Gd0 2.661 . S
N31 C35 1.350 . S
N31 C36 1.307 . S
C32 H24 0.930 . S
C32 C33 1.355 . S
C32 C34 1.412 . S
C33 H25 0.930 . S
C33 C32 1.355 . S
C33 C36 1.402 . S
C34 C32 1.412 . S
C34 C35 1.417 . S
C34 C58 1.431 1_455 S
C35 N31 1.350 . S
C35 C34 1.417 . S
C35 C38 1.426 . S
C36 H19 0.930 . S
C36 N31 1.307 . S
C36 C33 1.402 . S
N37 Gd0 2.601 . S
N37 C38 1.359 . S
N37 C41 1.334 . S
C38 C35 1.426 . S
C38 N37 1.359 . S
C38 C42 1.413 1_455 S
C39 H30 0.930 . S
C39 C40 1.359 . S
C39 C41 1.394 1_655 S
C40 C39 1.359 . S
C40 C42 1.391 . S
C40 H43 0.929 . S
C41 H23 0.930 . S
C41 N37 1.334 . S
C41 C39 1.394 1_455 S
C42 C38 1.413 1_655 S
C42 C40 1.391 . S
C42 C57 1.437 . S
H43 C40 0.929 . S
O44 Gd0 2.545 . S
O44 C59 1.258 . S
O45 Gd0 2.606 . S
O45 Gd1 2.362 . S
O45 C56 1.284 . S
O46 Gd1 2.324 . S
O46 C66 1.254 . S
O47 Gd0 2.429 . S
O47 C66 1.268 . S
O48 Gd0 2.545 . S
O48 C56 1.250 . S
O49 Gd0 2.412 . S
O49 C59 1.252 . S
O50 Gd1 2.545 . S
O50 C68 1.258 . S
O51 Gd0 2.362 . S
O51 Gd1 2.606 . S
O51 C67 1.284 . S
O52 Gd0 2.324 . S
O52 C75 1.254 . S
O53 Gd1 2.429 . S
O53 C75 1.268 . S
O54 Gd1 2.545 . S
O54 C67 1.250 . S
O55 Gd1 2.412 . S
O55 C68 1.252 . S
C56 O45 1.284 . S
C56 O48 1.250 . S
C57 H26 0.929 . S
C57 C42 1.437 . S
C57 C58 1.317 . S
C58 H29 0.930 . S
C58 C34 1.431 1_655 S
C58 C57 1.317 . S
C59 Gd0 2.828 . S
C59 O44 1.258 . S
C59 O49 1.252 . S
C59 C60 1.497 . S
C60 C59 1.497 . S
C60 C61 1.395 . S
C60 C62 1.380 . S
C61 C60 1.395 . S
C61 C64 1.398 . S
C61 H76 0.930 . S
C62 C60 1.380 . S
C62 C63 1.391 . S
C62 H77 0.930 . S
C63 C62 1.391 . S
C63 C65 1.387 . S
C64 C61 1.398 . S
C64 C65 1.380 . S
C64 H78 0.930 . S
C65 C63 1.387 . S
C65 C64 1.380 . S
C65 H79 0.930 . S
C66 O46 1.254 . S
C66 O47 1.268 . S
C67 O51 1.284 . S
C67 O54 1.250 . S
C68 Gd1 2.828 . S
C68 O50 1.258 . S
C68 O55 1.252 . S
C68 C69 1.497 . S
C69 C68 1.497 . S
C69 C70 1.395 . S
C69 C71 1.380 . S
C70 C69 1.395 . S
C70 C73 1.398 . S
C70 H80 0.930 . S
C71 C69 1.380 . S
C71 C72 1.391 . S
C71 H81 0.930 . S
C72 C71 1.391 . S
C72 C74 1.387 . S
C73 C70 1.398 . S
C73 C74 1.380 . S
C73 H82 0.930 . S
C74 C72 1.387 . S
C74 C73 1.380 . S
C74 H83 0.930 . S
C75 O52 1.254 . S
C75 O53 1.268 . S
H76 C61 0.930 . S
H77 C62 0.930 . S
H78 C64 0.930 . S
H79 C65 0.930 . S
H80 C70 0.930 . S
H81 C71 0.930 . S
H82 C73 0.930 . S
H83 C74 0.930 . S
Gd84 N115 2.661 . S
Gd84 N121 2.601 . S
Gd84 O128 2.545 . S
Gd84 O129 2.606 1_455 S
Gd84 O131 2.429 1_455 S
Gd84 O132 2.545 . S
Gd84 O133 2.412 . S
Gd84 O135 2.362 . S
Gd84 O136 2.324 . S
Gd84 C143 2.828 . S
Gd85 N94 2.661 . S
Gd85 N98 2.601 . S
Gd85 O129 2.362 . S
Gd85 O130 2.324 . S
Gd85 O134 2.545 . S
Gd85 O135 2.606 1_655 S
Gd85 O137 2.429 1_655 S
Gd85 O138 2.545 . S
Gd85 O139 2.412 . S
Gd85 C152 2.828 . S
C86 C89 1.417 . S
C86 C91 1.431 . S
C86 C92 1.412 . S
C87 C90 1.437 . S
C87 C91 1.317 . S
C87 H106 0.929 . S
C88 C89 1.426 . S
C88 C90 1.413 . S
C88 N98 1.359 . S
C89 C86 1.417 . S
C89 C88 1.426 . S
C89 N94 1.350 . S
C90 C87 1.437 . S
C90 C88 1.413 . S
C90 C100 1.391 . S
C91 C86 1.431 . S
C91 C87 1.317 . S
C91 H102 0.930 . S
C92 C86 1.412 . S
C92 C93 1.355 . S
C92 H104 0.930 . S
C93 C92 1.355 . S
C93 C95 1.402 . S
C93 H105 0.930 . S
N94 Gd85 2.661 . S
N94 C89 1.350 . S
N94 C95 1.307 . S
C95 C93 1.402 . S
C95 N94 1.307 . S
C95 H96 0.930 . S
H96 C95 0.930 . S
C97 N98 1.334 . S
C97 C99 1.394 . S
C97 H101 0.930 . S
N98 Gd85 2.601 . S
N98 C88 1.359 . S
N98 C97 1.334 . S
C99 C97 1.394 . S
C99 C100 1.359 . S
C99 H111 0.930 . S
C100 C90 1.391 . S
C100 C99 1.359 . S
C100 H112 0.929 . S
H101 C97 0.930 . S
H102 C91 0.930 . S
H103 C120 0.930 . S
H104 C92 0.930 . S
H105 C93 0.930 . S
H106 C87 0.929 . S
H107 C125 0.930 . S
H108 C116 0.930 . S
H109 C117 0.930 . S
H110 C141 0.929 . S
H111 C99 0.930 . S
H112 C100 0.929 . S
H113 C142 0.930 . S
H114 C123 0.930 . S
N115 Gd84 2.661 . S
N115 C119 1.350 . S
N115 C120 1.307 . S
C116 H108 0.930 . S
C116 C117 1.355 . S
C116 C118 1.412 . S
C117 H109 0.930 . S
C117 C116 1.355 . S
C117 C120 1.402 . S
C118 C116 1.412 . S
C118 C119 1.417 . S
C118 C142 1.431 1_565 S
C119 N115 1.350 . S
C119 C118 1.417 . S
C119 C122 1.426 . S
C120 H103 0.930 . S
C120 N115 1.307 . S
C120 C117 1.402 . S
N121 Gd84 2.601 . S
N121 C122 1.359 . S
N121 C125 1.334 . S
C122 C119 1.426 . S
C122 N121 1.359 . S
C122 C126 1.413 1_565 S
C123 H114 0.930 . S
C123 C124 1.359 . S
C123 C125 1.394 1_545 S
C124 C123 1.359 . S
C124 C126 1.391 . S
C124 H127 0.929 . S
C125 H107 0.930 . S
C125 N121 1.334 . S
C125 C123 1.394 1_565 S
C126 C122 1.413 1_545 S
C126 C124 1.391 . S
C126 C141 1.437 . S
H127 C124 0.929 . S
O128 Gd84 2.545 . S
O128 C143 1.258 . S
O129 Gd84 2.606 1_655 S
O129 Gd85 2.362 . S
O129 C140 1.284 . S
O130 Gd85 2.324 . S
O130 C150 1.254 . S
O131 Gd84 2.429 1_655 S
O131 C150 1.268 . S
O132 Gd84 2.545 . S
O132 C140 1.250 1_455 S
O133 Gd84 2.412 . S
O133 C143 1.252 . S
O134 Gd85 2.545 . S
O134 C152 1.258 . S
O135 Gd84 2.362 . S
O135 Gd85 2.606 1_455 S
O135 C151 1.284 . S
O136 Gd84 2.324 . S
O136 C159 1.254 . S
O137 Gd85 2.429 1_455 S
O137 C159 1.268 . S
O138 Gd85 2.545 . S
O138 C151 1.250 1_655 S
O139 Gd85 2.412 . S
O139 C152 1.252 . S
C140 O129 1.284 . S
C140 O132 1.250 1_655 S
C141 H110 0.929 . S
C141 C126 1.437 . S
C141 C142 1.317 . S
C142 H113 0.930 . S
C142 C118 1.431 1_545 S
C142 C141 1.317 . S
C143 Gd84 2.828 . S
C143 O128 1.258 . S
C143 O133 1.252 . S
C143 C144 1.497 . S
C144 C143 1.497 . S
C144 C145 1.395 . S
C144 C146 1.380 . S
C145 C144 1.395 . S
C145 C148 1.398 . S
C145 H160 0.930 . S
C146 C144 1.380 . S
C146 C147 1.391 . S
C146 H161 0.930 . S
C147 C146 1.391 . S
C147 C149 1.387 . S
C148 C145 1.398 . S
C148 C149 1.380 . S
C148 H162 0.930 . S
C149 C147 1.387 . S
C149 C148 1.380 . S
C149 H163 0.930 . S
C150 O130 1.254 . S
C150 O131 1.268 . S
C151 O135 1.284 . S
C151 O138 1.250 1_455 S
C152 Gd85 2.828 . S
C152 O134 1.258 . S
C152 O139 1.252 . S
C152 C153 1.497 . S
C153 C152 1.497 . S
C153 C154 1.395 . S
C153 C155 1.380 . S
C154 C153 1.395 . S
C154 C157 1.398 . S
C154 H164 0.930 . S
C155 C153 1.380 . S
C155 C156 1.391 . S
C155 H165 0.930 . S
C156 C155 1.391 . S
C156 C158 1.387 . S
C157 C154 1.398 . S
C157 C158 1.380 . S
C157 H166 0.930 . S
C158 C156 1.387 . S
C158 C157 1.380 . S
C158 H167 0.930 . S
C159 O136 1.254 . S
C159 O137 1.268 . S
H160 C145 0.930 . S
H161 C146 0.930 . S
H162 C148 0.930 . S
H163 C149 0.930 . S
H164 C154 0.930 . S
H165 C155 0.930 . S
H166 C157 0.930 . S
H167 C158 0.930 . S
Gd168 N199 2.648 1_554 S
Gd168 N205 2.601 . S
Gd168 O212 2.545 . S
Gd168 O213 2.606 . S
Gd168 O215 2.429 . S
Gd168 O216 2.545 . S
Gd168 O217 2.412 . S
Gd168 O219 2.362 1_554 S
Gd168 O220 2.324 1_554 S
Gd168 C227 2.828 . S
Gd169 N178 2.671 . S
Gd169 N182 2.601 . S
Gd169 O213 2.362 1_556 S
Gd169 O214 2.324 1_556 S
Gd169 O218 2.545 . S
Gd169 O219 2.606 . S
Gd169 O221 2.429 . S
Gd169 O222 2.545 . S
Gd169 O223 2.412 . S
Gd169 C236 2.828 . S
C170 C173 1.417 1_554 S
C170 C175 1.429 1_554 S
C170 C176 1.412 . S
C171 C174 1.437 . S
C171 C175 1.323 . S
C171 H190 0.929 . S
C172 C173 1.426 . S
C172 C174 1.413 . S
C172 N182 1.359 . S
C173 C170 1.417 1_556 S
C173 C172 1.426 . S
C173 N178 1.355 . S
C174 C171 1.437 . S
C174 C172 1.413 . S
C174 C184 1.391 . S
C175 C170 1.429 1_556 S
C175 C171 1.323 . S
C175 H186 0.926 1_556 S
C176 C170 1.412 . S
C176 C177 1.355 . S
C176 H188 0.930 . S
C177 C176 1.355 . S
C177 C179 1.402 . S
C177 H189 0.930 . S
N178 Gd169 2.671 . S
N178 C173 1.355 . S
N178 C179 1.292 1_556 S
C179 C177 1.402 . S
C179 N178 1.292 1_554 S
C179 H180 0.930 . S
H180 C179 0.930 . S
C181 N182 1.334 . S
C181 C183 1.394 . S
C181 H185 0.930 . S
N182 Gd169 2.601 . S
N182 C172 1.359 . S
N182 C181 1.334 . S
C183 C181 1.394 . S
C183 C184 1.359 . S
C183 H195 0.930 . S
C184 C174 1.391 . S
C184 C183 1.359 . S
C184 H196 0.929 . S
H185 C181 0.930 . S
H186 C175 0.926 1_554 S
H187 C204 0.930 . S
H188 C176 0.930 . S
H189 C177 0.930 . S
H190 C171 0.929 . S
H191 C209 0.930 . S
H192 C200 0.930 . S
H193 C201 0.930 . S
H194 C225 0.929 . S
H195 C183 0.930 . S
H196 C184 0.929 . S
H197 C226 0.930 . S
H198 C207 0.930 . S
N199 Gd168 2.648 1_556 S
N199 C203 1.345 1_556 S
N199 C204 1.326 . S
C200 H192 0.930 . S
C200 C201 1.355 . S
C200 C202 1.412 . S
C201 H193 0.930 . S
C201 C200 1.355 . S
C201 C204 1.402 . S
C202 C200 1.412 . S
C202 C203 1.417 1_556 S
C202 C226 1.431 . S
C203 N199 1.345 1_554 S
C203 C202 1.417 1_554 S
C203 C206 1.426 . S
C204 H187 0.930 . S
C204 N199 1.326 . S
C204 C201 1.402 . S
N205 Gd168 2.601 . S
N205 C206 1.359 . S
N205 C209 1.334 . S
C206 C203 1.426 . S
C206 N205 1.359 . S
C206 C210 1.413 . S
C207 H198 0.930 . S
C207 C208 1.359 . S
C207 C209 1.394 . S
C208 C207 1.359 . S
C208 C210 1.391 . S
C208 H211 0.929 . S
C209 H191 0.930 . S
C209 N205 1.334 . S
C209 C207 1.394 . S
C210 C206 1.413 . S
C210 C208 1.391 . S
C210 C225 1.437 . S
H211 C208 0.929 . S
O212 Gd168 2.545 . S
O212 C227 1.258 . S
O213 Gd168 2.606 . S
O213 Gd169 2.362 1_554 S
O213 C224 1.284 . S
O214 Gd169 2.324 1_554 S
O214 C234 1.254 . S
O215 Gd168 2.429 . S
O215 C234 1.268 . S
O216 Gd168 2.545 . S
O216 C224 1.250 . S
O217 Gd168 2.412 . S
O217 C227 1.252 . S
O218 Gd169 2.545 . S
O218 C236 1.258 . S
O219 Gd168 2.362 1_556 S
O219 Gd169 2.606 . S
O219 C235 1.284 . S
O220 Gd168 2.324 1_556 S
O220 C243 1.254 . S
O221 Gd169 2.429 . S
O221 C243 1.268 . S
O222 Gd169 2.545 . S
O222 C235 1.250 . S
O223 Gd169 2.412 . S
O223 C236 1.252 . S
C224 O213 1.284 . S
C224 O216 1.250 . S
C225 H194 0.929 . S
C225 C210 1.437 . S
C225 C226 1.317 1_554 S
C226 H197 0.930 . S
C226 C202 1.431 . S
C226 C225 1.317 1_556 S
C227 Gd168 2.828 . S
C227 O212 1.258 . S
C227 O217 1.252 . S
C227 C228 1.497 . S
C228 C227 1.497 . S
C228 C229 1.395 . S
C228 C230 1.380 . S
C229 C228 1.395 . S
C229 C232 1.398 . S
C229 H244 0.930 . S
C230 C228 1.380 . S
C230 C231 1.391 . S
C230 H245 0.930 . S
C231 C230 1.391 . S
C231 C233 1.387 . S
C232 C229 1.398 . S
C232 C233 1.380 . S
C232 H246 0.930 . S
C233 C231 1.387 . S
C233 C232 1.380 . S
C233 H247 0.930 . S
C234 O214 1.254 . S
C234 O215 1.268 . S
C235 O219 1.284 . S
C235 O222 1.250 . S
C236 Gd169 2.828 . S
C236 O218 1.258 . S
C236 O223 1.252 . S
C236 C237 1.497 . S
C237 C236 1.497 . S
C237 C238 1.395 . S
C237 C239 1.380 . S
C238 C237 1.395 . S
C238 C241 1.398 . S
C238 H248 0.930 . S
C239 C237 1.380 . S
C239 C240 1.391 . S
C239 H249 0.930 . S
C240 C239 1.391 . S
C240 C242 1.387 . S
C241 C238 1.398 . S
C241 C242 1.380 . S
C241 H250 0.930 . S
C242 C240 1.387 . S
C242 C241 1.380 . S
C242 H251 0.930 . S
C243 O220 1.254 . S
C243 O221 1.268 . S
H244 C229 0.930 . S
H245 C230 0.930 . S
H246 C232 0.930 . S
H247 C233 0.930 . S
H248 C238 0.930 . S
H249 C239 0.930 . S
H250 C241 0.930 . S
H251 C242 0.930 . S
Gd252 N283 2.661 . S
Gd252 N289 2.601 . S
Gd252 O296 2.545 . S
Gd252 O297 2.606 . S
Gd252 O299 2.429 . S
Gd252 O300 2.545 . S
Gd252 O301 2.412 . S
Gd252 O303 2.362 . S
Gd252 O304 2.324 . S
Gd252 C311 2.828 . S
Gd253 N262 2.661 . S
Gd253 N266 2.601 . S
Gd253 O297 2.362 . S
Gd253 O298 2.324 . S
Gd253 O302 2.545 . S
Gd253 O303 2.606 . S
Gd253 O305 2.429 . S
Gd253 O306 2.545 . S
Gd253 O307 2.412 . S
Gd253 C320 2.828 . S
C254 C257 1.417 . S
C254 C259 1.431 . S
C254 C260 1.412 . S
C255 C258 1.437 . S
C255 C259 1.317 . S
C255 H274 0.929 . S
C256 C257 1.426 . S
C256 C258 1.413 . S
C256 N266 1.359 . S
C257 C254 1.417 . S
C257 C256 1.426 . S
C257 N262 1.350 . S
C258 C255 1.437 . S
C258 C256 1.413 . S
C258 C268 1.391 . S
C259 C254 1.431 . S
C259 C255 1.317 . S
C259 H270 0.930 . S
C260 C254 1.412 . S
C260 C261 1.355 . S
C260 H272 0.930 . S
C261 C260 1.355 . S
C261 C263 1.402 . S
C261 H273 0.930 . S
N262 Gd253 2.661 . S
N262 C257 1.350 . S
N262 C263 1.307 . S
C263 C261 1.402 . S
C263 N262 1.307 . S
C263 H264 0.930 . S
H264 C263 0.930 . S
C265 N266 1.334 . S
C265 C267 1.394 . S
C265 H269 0.930 . S
N266 Gd253 2.601 . S
N266 C256 1.359 . S
N266 C265 1.334 . S
C267 C265 1.394 . S
C267 C268 1.359 . S
C267 H279 0.930 . S
C268 C258 1.391 . S
C268 C267 1.359 . S
C268 H280 0.929 . S
H269 C265 0.930 . S
H270 C259 0.930 . S
H271 C288 0.930 . S
H272 C260 0.930 . S
H273 C261 0.930 . S
H274 C255 0.929 . S
H275 C293 0.930 . S
H276 C284 0.930 . S
H277 C285 0.930 . S
H278 C309 0.929 . S
H279 C267 0.930 . S
H280 C268 0.929 . S
H281 C310 0.930 . S
H282 C291 0.930 . S
N283 Gd252 2.661 . S
N283 C287 1.350 . S
N283 C288 1.307 . S
C284 H276 0.930 . S
C284 C285 1.355 . S
C284 C286 1.412 . S
C285 H277 0.930 . S
C285 C284 1.355 . S
C285 C288 1.402 . S
C286 C284 1.412 . S
C286 C287 1.417 . S
C286 C310 1.431 1_545 S
C287 N283 1.350 . S
C287 C286 1.417 . S
C287 C290 1.426 . S
C288 H271 0.930 . S
C288 N283 1.307 . S
C288 C285 1.402 . S
N289 Gd252 2.601 . S
N289 C290 1.359 . S
N289 C293 1.334 . S
C290 C287 1.426 . S
C290 N289 1.359 . S
C290 C294 1.413 1_545 S
C291 H282 0.930 . S
C291 C292 1.359 . S
C291 C293 1.394 1_565 S
C292 C291 1.359 . S
C292 C294 1.391 . S
C292 H295 0.929 . S
C293 H275 0.930 . S
C293 N289 1.334 . S
C293 C291 1.394 1_545 S
C294 C290 1.413 1_565 S
C294 C292 1.391 . S
C294 C309 1.437 . S
H295 C292 0.929 . S
O296 Gd252 2.545 . S
O296 C311 1.258 . S
O297 Gd252 2.606 . S
O297 Gd253 2.362 . S
O297 C308 1.284 . S
O298 Gd253 2.324 . S
O298 C318 1.254 . S
O299 Gd252 2.429 . S
O299 C318 1.268 . S
O300 Gd252 2.545 . S
O300 C308 1.250 . S
O301 Gd252 2.412 . S
O301 C311 1.252 . S
O302 Gd253 2.545 . S
O302 C320 1.258 . S
O303 Gd252 2.362 . S
O303 Gd253 2.606 . S
O303 C319 1.284 . S
O304 Gd252 2.324 . S
O304 C327 1.254 . S
O305 Gd253 2.429 . S
O305 C327 1.268 . S
O306 Gd253 2.545 . S
O306 C319 1.250 . S
O307 Gd253 2.412 . S
O307 C320 1.252 . S
C308 O297 1.284 . S
C308 O300 1.250 . S
C309 H278 0.929 . S
C309 C294 1.437 . S
C309 C310 1.317 . S
C310 H281 0.930 . S
C310 C286 1.431 1_565 S
C310 C309 1.317 . S
C311 Gd252 2.828 . S
C311 O296 1.258 . S
C311 O301 1.252 . S
C311 C312 1.497 . S
C312 C311 1.497 . S
C312 C313 1.395 . S
C312 C314 1.380 . S
C313 C312 1.395 . S
C313 C316 1.398 . S
C313 H328 0.930 . S
C314 C312 1.380 . S
C314 C315 1.391 . S
C314 H329 0.930 . S
C315 C314 1.391 . S
C315 C317 1.387 . S
C316 C313 1.398 . S
C316 C317 1.380 . S
C316 H330 0.930 . S
C317 C315 1.387 . S
C317 C316 1.380 . S
C317 H331 0.930 . S
C318 O298 1.254 . S
C318 O299 1.268 . S
C319 O303 1.284 . S
C319 O306 1.250 . S
C320 Gd253 2.828 . S
C320 O302 1.258 . S
C320 O307 1.252 . S
C320 C321 1.497 . S
C321 C320 1.497 . S
C321 C322 1.395 . S
C321 C323 1.380 . S
C322 C321 1.395 . S
C322 C325 1.398 . S
C322 H332 0.930 . S
C323 C321 1.380 . S
C323 C324 1.391 . S
C323 H333 0.930 . S
C324 C323 1.391 . S
C324 C326 1.387 . S
C325 C322 1.398 . S
C325 C326 1.380 . S
C325 H334 0.930 . S
C326 C324 1.387 . S
C326 C325 1.380 . S
C326 H335 0.930 . S
C327 O304 1.254 . S
C327 O305 1.268 . S
H328 C313 0.930 . S
H329 C314 0.930 . S
H330 C316 0.930 . S
H331 C317 0.930 . S
H332 C322 0.930 . S
H333 C323 0.930 . S
H334 C325 0.930 . S
H335 C326 0.930 . S
Gd336 N367 2.661 . S
Gd336 N373 2.601 . S
Gd336 O380 2.545 . S
Gd336 O381 2.606 . S
Gd336 O383 2.429 . S
Gd336 O384 2.545 . S
Gd336 O385 2.412 . S
Gd336 O387 2.362 . S
Gd336 O388 2.324 . S
Gd336 C395 2.828 . S
Gd337 N346 2.661 . S
Gd337 N350 2.601 . S
Gd337 O381 2.362 . S
Gd337 O382 2.324 . S
Gd337 O386 2.545 . S
Gd337 O387 2.606 . S
Gd337 O389 2.429 . S
Gd337 O390 2.545 . S
Gd337 O391 2.412 . S
Gd337 C404 2.828 . S
C338 C341 1.417 . S
C338 C343 1.431 . S
C338 C344 1.412 . S
C339 C342 1.437 . S
C339 C343 1.317 . S
C339 H358 0.929 . S
C340 C341 1.426 . S
C340 C342 1.413 . S
C340 N350 1.359 . S
C341 C338 1.417 . S
C341 C340 1.426 . S
C341 N346 1.350 . S
C342 C339 1.437 . S
C342 C340 1.413 . S
C342 C352 1.391 . S
C343 C338 1.431 . S
C343 C339 1.317 . S
C343 H354 0.930 . S
C344 C338 1.412 . S
C344 C345 1.355 . S
C344 H356 0.930 . S
C345 C344 1.355 . S
C345 C347 1.402 . S
C345 H357 0.930 . S
N346 Gd337 2.661 . S
N346 C341 1.350 . S
N346 C347 1.307 . S
C347 C345 1.402 . S
C347 N346 1.307 . S
C347 H348 0.930 . S
H348 C347 0.930 . S
C349 N350 1.334 . S
C349 C351 1.394 . S
C349 H353 0.930 . S
N350 Gd337 2.601 . S
N350 C340 1.359 . S
N350 C349 1.334 . S
C351 C349 1.394 . S
C351 C352 1.359 . S
C351 H363 0.930 . S
C352 C342 1.391 . S
C352 C351 1.359 . S
C352 H364 0.929 . S
H353 C349 0.930 . S
H354 C343 0.930 . S
H355 C372 0.930 . S
H356 C344 0.930 . S
H357 C345 0.930 . S
H358 C339 0.929 . S
H359 C377 0.930 . S
H360 C368 0.930 . S
H361 C369 0.930 . S
H362 C393 0.929 . S
H363 C351 0.930 . S
H364 C352 0.929 . S
H365 C394 0.930 . S
H366 C375 0.930 . S
N367 Gd336 2.661 . S
N367 C371 1.350 . S
N367 C372 1.307 . S
C368 H360 0.930 . S
C368 C369 1.355 . S
C368 C370 1.412 . S
C369 H361 0.930 . S
C369 C368 1.355 . S
C369 C372 1.402 . S
C370 C368 1.412 . S
C370 C371 1.417 . S
C370 C394 1.431 . S
C371 N367 1.350 . S
C371 C370 1.417 . S
C371 C374 1.426 . S
C372 H355 0.930 . S
C372 N367 1.307 . S
C372 C369 1.402 . S
N373 Gd336 2.601 . S
N373 C374 1.359 . S
N373 C377 1.334 . S
C374 C371 1.426 . S
C374 N373 1.359 . S
C374 C378 1.413 . S
C375 H366 0.930 . S
C375 C376 1.359 . S
C375 C377 1.394 . S
C376 C375 1.359 . S
C376 C378 1.391 . S
C376 H379 0.929 . S
C377 H359 0.930 . S
C377 N373 1.334 . S
C377 C375 1.394 . S
C378 C374 1.413 . S
C378 C376 1.391 . S
C378 C393 1.437 . S
H379 C376 0.929 . S
O380 Gd336 2.545 . S
O380 C395 1.258 . S
O381 Gd336 2.606 . S
O381 Gd337 2.362 . S
O381 C392 1.284 . S
O382 Gd337 2.324 . S
O382 C402 1.254 . S
O383 Gd336 2.429 . S
O383 C402 1.268 . S
O384 Gd336 2.545 . S
O384 C392 1.250 . S
O385 Gd336 2.412 . S
O385 C395 1.252 . S
O386 Gd337 2.545 . S
O386 C404 1.258 . S
O387 Gd336 2.362 . S
O387 Gd337 2.606 . S
O387 C403 1.284 . S
O388 Gd336 2.324 . S
O388 C411 1.254 . S
O389 Gd337 2.429 . S
O389 C411 1.268 . S
O390 Gd337 2.545 . S
O390 C403 1.250 . S
O391 Gd337 2.412 . S
O391 C404 1.252 . S
C392 O381 1.284 . S
C392 O384 1.250 . S
C393 H362 0.929 . S
C393 C378 1.437 . S
C393 C394 1.317 . S
C394 H365 0.930 . S
C394 C370 1.431 . S
C394 C393 1.317 . S
C395 Gd336 2.828 . S
C395 O380 1.258 . S
C395 O385 1.252 . S
C395 C396 1.497 . S
C396 C395 1.497 . S
C396 C397 1.395 . S
C396 C398 1.380 . S
C397 C396 1.395 . S
C397 C400 1.398 . S
C397 H412 0.930 . S
C398 C396 1.380 . S
C398 C399 1.391 . S
C398 H413 0.930 . S
C399 C398 1.391 . S
C399 C401 1.387 . S
C400 C397 1.398 . S
C400 C401 1.380 . S
C400 H414 0.930 . S
C401 C399 1.387 . S
C401 C400 1.380 . S
C401 H415 0.930 . S
C402 O382 1.254 . S
C402 O383 1.268 . S
C403 O387 1.284 . S
C403 O390 1.250 . S
C404 Gd337 2.828 . S
C404 O386 1.258 . S
C404 O391 1.252 . S
C404 C405 1.497 . S
C405 C404 1.497 . S
C405 C406 1.395 . S
C405 C407 1.380 . S
C406 C405 1.395 . S
C406 C409 1.398 . S
C406 H416 0.930 . S
C407 C405 1.380 . S
C407 C408 1.391 . S
C407 H417 0.930 . S
C408 C407 1.391 . S
C408 C410 1.387 . S
C409 C406 1.398 . S
C409 C410 1.380 . S
C409 H418 0.930 . S
C410 C408 1.387 . S
C410 C409 1.380 . S
C410 H419 0.930 . S
C411 O388 1.254 . S
C411 O389 1.268 . S
H412 C397 0.930 . S
H413 C398 0.930 . S
H414 C400 0.930 . S
H415 C401 0.930 . S
H416 C406 0.930 . S
H417 C407 0.930 . S
H418 C409 0.930 . S
H419 C410 0.930 . S
Gd420 N451 2.661 1_455 S
Gd420 N457 2.601 . S
Gd420 O464 2.545 . S
Gd420 O465 2.606 . S
Gd420 O467 2.429 . S
Gd420 O468 2.545 . S
Gd420 O469 2.412 . S
Gd420 O471 2.362 1_455 S
Gd420 O472 2.324 1_455 S
Gd420 C479 2.828 . S
Gd421 N430 2.661 . S
Gd421 N434 2.601 . S
Gd421 O465 2.362 1_655 S
Gd421 O466 2.313 1_655 S
Gd421 O470 2.545 . S
Gd421 O471 2.606 . S
Gd421 O473 2.429 . S
Gd421 O474 2.545 . S
Gd421 O475 2.412 . S
Gd421 C488 2.828 . S
C422 C425 1.417 1_455 S
C422 C427 1.429 1_455 S
C422 C428 1.412 . S
C423 C426 1.437 . S
C423 C427 1.323 . S
C423 H442 0.929 . S
C424 C425 1.426 . S
C424 C426 1.413 . S
C424 N434 1.359 . S
C425 C422 1.417 1_655 S
C425 C424 1.426 . S
C425 N430 1.350 . S
C426 C423 1.437 . S
C426 C424 1.413 . S
C426 C436 1.391 . S
C427 C422 1.429 1_655 S
C427 C423 1.323 . S
C427 H438 0.927 1_655 S
C428 C422 1.412 . S
C428 C429 1.355 . S
C428 H440 0.930 . S
C429 C428 1.355 . S
C429 C431 1.402 . S
C429 H441 0.930 . S
N430 Gd421 2.661 . S
N430 C425 1.350 . S
N430 C431 1.307 1_655 S
C431 C429 1.402 . S
C431 N430 1.307 1_455 S
C431 H432 0.930 . S
H432 C431 0.930 . S
C433 N434 1.334 . S
C433 C435 1.394 . S
C433 H437 0.930 . S
N434 Gd421 2.601 . S
N434 C424 1.359 . S
N434 C433 1.334 . S
C435 C433 1.394 . S
C435 C436 1.359 . S
C435 H447 0.930 . S
C436 C426 1.391 . S
C436 C435 1.359 . S
C436 H448 0.929 . S
H437 C433 0.930 . S
H438 C427 0.927 1_455 S
H439 C456 0.930 . S
H440 C428 0.930 . S
H441 C429 0.930 . S
H442 C423 0.929 . S
H443 C461 0.930 . S
H444 C452 0.930 . S
H445 C453 0.930 . S
H446 C477 0.929 . S
H447 C435 0.930 . S
H448 C436 0.929 . S
H449 C478 0.930 . S
H450 C459 0.930 . S
N451 Gd420 2.661 1_655 S
N451 C455 1.350 1_655 S
N451 C456 1.307 . S
C452 H444 0.930 . S
C452 C453 1.355 . S
C452 C454 1.412 . S
C453 H445 0.930 . S
C453 C452 1.355 . S
C453 C456 1.402 . S
C454 C452 1.412 . S
C454 C455 1.417 1_655 S
C454 C478 1.431 . S
C455 N451 1.350 1_455 S
C455 C454 1.417 1_455 S
C455 C458 1.426 . S
C456 H439 0.930 . S
C456 N451 1.307 . S
C456 C453 1.402 . S
N457 Gd420 2.601 . S
N457 C458 1.359 . S
N457 C461 1.334 . S
C458 C455 1.426 . S
C458 N457 1.359 . S
C458 C462 1.413 . S
C459 H450 0.930 . S
C459 C460 1.359 . S
C459 C461 1.394 . S
C460 C459 1.359 . S
C460 C462 1.391 . S
C460 H463 0.929 . S
C461 H443 0.930 . S
C461 N457 1.334 . S
C461 C459 1.394 . S
C462 C458 1.413 . S
C462 C460 1.391 . S
C462 C477 1.437 . S
H463 C460 0.929 . S
O464 Gd420 2.545 . S
O464 C479 1.258 . S
O465 Gd420 2.606 . S
O465 Gd421 2.362 1_455 S
O465 C476 1.284 . S
O466 Gd421 2.313 1_455 S
O466 C486 1.265 . S
O467 Gd420 2.429 . S
O467 C486 1.268 . S
O468 Gd420 2.545 . S
O468 C476 1.250 . S
O469 Gd420 2.412 . S
O469 C479 1.252 . S
O470 Gd421 2.545 . S
O470 C488 1.258 . S
O471 Gd420 2.362 1_655 S
O471 Gd421 2.606 . S
O471 C487 1.284 . S
O472 Gd420 2.324 1_655 S
O472 C495 1.254 . S
O473 Gd421 2.429 . S
O473 C495 1.268 . S
O474 Gd421 2.545 . S
O474 C487 1.250 . S
O475 Gd421 2.412 . S
O475 C488 1.252 . S
C476 O465 1.284 . S
C476 O468 1.250 . S
C477 H446 0.929 . S
C477 C462 1.437 . S
C477 C478 1.317 1_455 S
C478 H449 0.930 . S
C478 C454 1.431 . S
C478 C477 1.317 1_655 S
C479 Gd420 2.828 . S
C479 O464 1.258 . S
C479 O469 1.252 . S
C479 C480 1.497 . S
C480 C479 1.497 . S
C480 C481 1.395 . S
C480 C482 1.380 . S
C481 C480 1.395 . S
C481 C484 1.398 . S
C481 H496 0.930 . S
C482 C480 1.380 . S
C482 C483 1.391 . S
C482 H497 0.930 . S
C483 C482 1.391 . S
C483 C485 1.387 . S
C484 C481 1.398 . S
C484 C485 1.380 . S
C484 H498 0.930 . S
C485 C483 1.387 . S
C485 C484 1.380 . S
C485 H499 0.930 . S
C486 O466 1.265 . S
C486 O467 1.268 . S
C487 O471 1.284 . S
C487 O474 1.250 . S
C488 Gd421 2.828 . S
C488 O470 1.258 . S
C488 O475 1.252 . S
C488 C489 1.497 . S
C489 C488 1.497 . S
C489 C490 1.395 . S
C489 C491 1.380 . S
C490 C489 1.395 . S
C490 C493 1.398 . S
C490 H500 0.930 . S
C491 C489 1.380 . S
C491 C492 1.391 . S
C491 H501 0.930 . S
C492 C491 1.391 . S
C492 C494 1.387 . S
C493 C490 1.398 . S
C493 C494 1.380 . S
C493 H502 0.930 . S
C494 C492 1.387 . S
C494 C493 1.380 . S
C494 H503 0.930 . S
C495 O472 1.254 . S
C495 O473 1.268 . S
H496 C481 0.930 . S
H497 C482 0.930 . S
H498 C484 0.930 . S
H499 C485 0.930 . S
H500 C490 0.930 . S
H501 C491 0.930 . S
H502 C493 0.930 . S
H503 C494 0.930 . S
Gd504 N535 2.661 1_556 S
Gd504 N541 2.601 . S
Gd504 O548 2.545 . S
Gd504 O549 2.606 . S
Gd504 O551 2.429 . S
Gd504 O552 2.545 . S
Gd504 O553 2.412 . S
Gd504 O555 2.362 1_556 S
Gd504 O556 2.324 1_556 S
Gd504 C563 2.828 . S
Gd505 N514 2.661 . S
Gd505 N518 2.601 . S
Gd505 O549 2.362 1_554 S
Gd505 O550 2.312 1_554 S
Gd505 O554 2.545 . S
Gd505 O555 2.606 . S
Gd505 O557 2.429 . S
Gd505 O558 2.545 . S
Gd505 O559 2.412 . S
Gd505 C572 2.828 . S
C506 C509 1.417 1_556 S
C506 C511 1.428 1_656 S
C506 C512 1.412 . S
C507 C510 1.437 . S
C507 C511 1.325 . S
C507 H526 0.929 . S
C508 C509 1.426 . S
C508 C510 1.413 1_655 S
C508 N518 1.359 . S
C509 C506 1.417 1_554 S
C509 C508 1.426 . S
C509 N514 1.350 . S
C510 C507 1.437 . S
C510 C508 1.413 1_455 S
C510 C520 1.391 . S
C511 C506 1.428 1_454 S
C511 C507 1.325 . S
C511 H522 0.925 1_554 S
C512 C506 1.412 . S
C512 C513 1.355 . S
C512 H524 0.930 . S
C513 C512 1.355 . S
C513 C515 1.402 . S
C513 H525 0.930 . S
N514 Gd505 2.661 . S
N514 C509 1.350 . S
N514 C515 1.307 1_554 S
C515 C513 1.402 . S
C515 N514 1.307 1_556 S
C515 H516 0.930 . S
H516 C515 0.930 . S
C517 N518 1.334 . S
C517 C519 1.394 1_655 S
C517 H521 0.930 . S
N518 Gd505 2.601 . S
N518 C508 1.359 . S
N518 C517 1.334 . S
C519 C517 1.394 1_455 S
C519 C520 1.359 . S
C519 H531 0.930 . S
C520 C510 1.391 . S
C520 C519 1.359 . S
C520 H532 0.929 . S
H521 C517 0.930 . S
H522 C511 0.925 1_556 S
H523 C540 0.930 . S
H524 C512 0.930 . S
H525 C513 0.930 . S
H526 C507 0.929 . S
H527 C545 0.930 . S
H528 C536 0.930 . S
H529 C537 0.930 . S
H530 C561 0.929 . S
H531 C519 0.930 . S
H532 C520 0.929 . S
H533 C562 0.930 . S
H534 C543 0.930 . S
N535 Gd504 2.661 1_554 S
N535 C539 1.350 1_554 S
N535 C540 1.307 . S
C536 H528 0.930 . S
C536 C537 1.355 . S
C536 C538 1.412 . S
C537 H529 0.930 . S
C537 C536 1.355 . S
C537 C540 1.402 . S
C538 C536 1.412 . S
C538 C539 1.417 1_554 S
C538 C562 1.431 . S
C539 N535 1.350 1_556 S
C539 C538 1.417 1_556 S
C539 C542 1.426 . S
C540 H523 0.930 . S
C540 N535 1.307 . S
C540 C537 1.402 . S
N541 Gd504 2.601 . S
N541 C542 1.359 . S
N541 C545 1.334 . S
C542 C539 1.426 . S
C542 N541 1.359 . S
C542 C546 1.413 . S
C543 H534 0.930 . S
C543 C544 1.359 . S
C543 C545 1.394 . S
C544 C543 1.359 . S
C544 C546 1.391 . S
C544 H547 0.929 . S
C545 H527 0.930 . S
C545 N541 1.334 . S
C545 C543 1.394 . S
C546 C542 1.413 . S
C546 C544 1.391 . S
C546 C561 1.437 . S
H547 C544 0.929 . S
O548 Gd504 2.545 . S
O548 C563 1.258 . S
O549 Gd504 2.606 . S
O549 Gd505 2.362 1_556 S
O549 C560 1.284 . S
O550 Gd505 2.312 1_556 S
O550 C570 1.266 . S
O551 Gd504 2.429 . S
O551 C570 1.268 . S
O552 Gd504 2.545 . S
O552 C560 1.250 . S
O553 Gd504 2.412 . S
O553 C563 1.252 . S
O554 Gd505 2.545 . S
O554 C572 1.258 . S
O555 Gd504 2.362 1_554 S
O555 Gd505 2.606 . S
O555 C571 1.284 . S
O556 Gd504 2.324 1_554 S
O556 C579 1.254 . S
O557 Gd505 2.429 . S
O557 C579 1.268 . S
O558 Gd505 2.545 . S
O558 C571 1.250 . S
O559 Gd505 2.412 . S
O559 C572 1.252 . S
C560 O549 1.284 . S
C560 O552 1.250 . S
C561 H530 0.929 . S
C561 C546 1.437 . S
C561 C562 1.317 1_556 S
C562 H533 0.930 . S
C562 C538 1.431 . S
C562 C561 1.317 1_554 S
C563 Gd504 2.828 . S
C563 O548 1.258 . S
C563 O553 1.252 . S
C563 C564 1.497 . S
C564 C563 1.497 . S
C564 C565 1.395 . S
C564 C566 1.380 . S
C565 C564 1.395 . S
C565 C568 1.398 . S
C565 H580 0.930 . S
C566 C564 1.380 . S
C566 C567 1.391 . S
C566 H581 0.930 . S
C567 C566 1.391 . S
C567 C569 1.387 . S
C568 C565 1.398 . S
C568 C569 1.380 . S
C568 H582 0.930 . S
C569 C567 1.387 . S
C569 C568 1.380 . S
C569 H583 0.930 . S
C570 O550 1.266 . S
C570 O551 1.268 . S
C571 O555 1.284 . S
C571 O558 1.250 . S
C572 Gd505 2.828 . S
C572 O554 1.258 . S
C572 O559 1.252 . S
C572 C573 1.497 . S
C573 C572 1.497 . S
C573 C574 1.395 . S
C573 C575 1.380 . S
C574 C573 1.395 . S
C574 C577 1.398 . S
C574 H584 0.930 . S
C575 C573 1.380 . S
C575 C576 1.391 . S
C575 H585 0.930 . S
C576 C575 1.391 . S
C576 C578 1.387 . S
C577 C574 1.398 . S
C577 C578 1.380 . S
C577 H586 0.930 . S
C578 C576 1.387 . S
C578 C577 1.380 . S
C578 H587 0.930 . S
C579 O556 1.254 . S
C579 O557 1.268 . S
H580 C565 0.930 . S
H581 C566 0.930 . S
H582 C568 0.930 . S
H583 C569 0.930 . S
H584 C574 0.930 . S
H585 C575 0.930 . S
H586 C577 0.930 . S
H587 C578 0.930 . S
Gd588 N619 2.661 . S
Gd588 N625 2.601 . S
Gd588 O632 2.545 . S
Gd588 O633 2.606 . S
Gd588 O635 2.429 . S
Gd588 O636 2.545 . S
Gd588 O637 2.412 . S
Gd588 O639 2.362 . S
Gd588 O640 2.324 . S
Gd588 C647 2.828 . S
Gd589 N598 2.661 . S
Gd589 N602 2.601 . S
Gd589 O633 2.362 . S
Gd589 O634 2.324 . S
Gd589 O638 2.545 . S
Gd589 O639 2.606 . S
Gd589 O641 2.429 . S
Gd589 O642 2.545 . S
Gd589 O643 2.412 . S
Gd589 C656 2.828 . S
C590 C593 1.417 . S
C590 C595 1.431 . S
C590 C596 1.412 . S
C591 C594 1.437 . S
C591 C595 1.317 . S
C591 H610 0.929 . S
C592 C593 1.426 . S
C592 C594 1.413 . S
C592 N602 1.359 . S
C593 C590 1.417 . S
C593 C592 1.426 . S
C593 N598 1.350 . S
C594 C591 1.437 . S
C594 C592 1.413 . S
C594 C604 1.391 . S
C595 C590 1.431 . S
C595 C591 1.317 . S
C595 H606 0.930 . S
C596 C590 1.412 . S
C596 C597 1.355 . S
C596 H608 0.930 . S
C597 C596 1.355 . S
C597 C599 1.402 . S
C597 H609 0.930 . S
N598 Gd589 2.661 . S
N598 C593 1.350 . S
N598 C599 1.307 . S
C599 C597 1.402 . S
C599 N598 1.307 . S
C599 H600 0.930 . S
H600 C599 0.930 . S
C601 N602 1.334 . S
C601 C603 1.394 . S
C601 H605 0.930 . S
N602 Gd589 2.601 . S
N602 C592 1.359 . S
N602 C601 1.334 . S
C603 C601 1.394 . S
C603 C604 1.359 . S
C603 H615 0.930 . S
C604 C594 1.391 . S
C604 C603 1.359 . S
C604 H616 0.929 . S
H605 C601 0.930 . S
H606 C595 0.930 . S
H607 C624 0.930 . S
H608 C596 0.930 . S
H609 C597 0.930 . S
H610 C591 0.929 . S
H611 C629 0.930 . S
H612 C620 0.930 . S
H613 C621 0.930 . S
H614 C645 0.929 . S
H615 C603 0.930 . S
H616 C604 0.929 . S
H617 C646 0.930 . S
H618 C627 0.930 . S
N619 Gd588 2.661 . S
N619 C623 1.350 . S
N619 C624 1.307 . S
C620 H612 0.930 . S
C620 C621 1.355 . S
C620 C622 1.412 . S
C621 H613 0.930 . S
C621 C620 1.355 . S
C621 C624 1.402 . S
C622 C620 1.412 . S
C622 C623 1.417 . S
C622 C646 1.431 . S
C623 N619 1.350 . S
C623 C622 1.417 . S
C623 C626 1.426 . S
C624 H607 0.930 . S
C624 N619 1.307 . S
C624 C621 1.402 . S
N625 Gd588 2.601 . S
N625 C626 1.359 . S
N625 C629 1.334 . S
C626 C623 1.426 . S
C626 N625 1.359 . S
C626 C630 1.413 . S
C627 H618 0.930 . S
C627 C628 1.359 . S
C627 C629 1.394 . S
C628 C627 1.359 . S
C628 C630 1.391 . S
C628 H631 0.929 . S
C629 H611 0.930 . S
C629 N625 1.334 . S
C629 C627 1.394 . S
C630 C626 1.413 . S
C630 C628 1.391 . S
C630 C645 1.437 . S
H631 C628 0.929 . S
O632 Gd588 2.545 . S
O632 C647 1.258 . S
O633 Gd588 2.606 . S
O633 Gd589 2.362 . S
O633 C644 1.284 . S
O634 Gd589 2.324 . S
O634 C654 1.254 . S
O635 Gd588 2.429 . S
O635 C654 1.268 . S
O636 Gd588 2.545 . S
O636 C644 1.250 . S
O637 Gd588 2.412 . S
O637 C647 1.252 . S
O638 Gd589 2.545 . S
O638 C656 1.258 . S
O639 Gd588 2.362 . S
O639 Gd589 2.606 . S
O639 C655 1.284 . S
O640 Gd588 2.324 . S
O640 C663 1.254 . S
O641 Gd589 2.429 . S
O641 C663 1.268 . S
O642 Gd589 2.545 . S
O642 C655 1.250 . S
O643 Gd589 2.412 . S
O643 C656 1.252 . S
C644 O633 1.284 . S
C644 O636 1.250 . S
C645 H614 0.929 . S
C645 C630 1.437 . S
C645 C646 1.317 . S
C646 H617 0.930 . S
C646 C622 1.431 . S
C646 C645 1.317 . S
C647 Gd588 2.828 . S
C647 O632 1.258 . S
C647 O637 1.252 . S
C647 C648 1.497 . S
C648 C647 1.497 . S
C648 C649 1.395 . S
C648 C650 1.380 . S
C649 C648 1.395 . S
C649 C652 1.398 . S
C649 H664 0.930 . S
C650 C648 1.380 . S
C650 C651 1.391 . S
C650 H665 0.930 . S
C651 C650 1.391 . S
C651 C653 1.387 . S
C652 C649 1.398 . S
C652 C653 1.380 . S
C652 H666 0.930 . S
C653 C651 1.387 . S
C653 C652 1.380 . S
C653 H667 0.930 . S
C654 O634 1.254 . S
C654 O635 1.268 . S
C655 O639 1.284 . S
C655 O642 1.250 . S
C656 Gd589 2.828 . S
C656 O638 1.258 . S
C656 O643 1.252 . S
C656 C657 1.497 . S
C657 C656 1.497 . S
C657 C658 1.395 . S
C657 C659 1.380 . S
C658 C657 1.395 . S
C658 C661 1.398 . S
C658 H668 0.930 . S
C659 C657 1.380 . S
C659 C660 1.391 . S
C659 H669 0.930 . S
C660 C659 1.391 . S
C660 C662 1.387 . S
C661 C658 1.398 . S
C661 C662 1.380 . S
C661 H670 0.930 . S
C662 C660 1.387 . S
C662 C661 1.380 . S
C662 H671 0.930 . S
C663 O640 1.254 . S
C663 O641 1.268 . S
H664 C649 0.930 . S
H665 C650 0.930 . S
H666 C652 0.930 . S
H667 C653 0.930 . S
H668 C658 0.930 . S
H669 C659 0.930 . S
H670 C661 0.930 . S
H671 C662 0.930 . S
Gd672 N703 2.661 . S
Gd672 N709 2.601 . S
Gd672 O716 2.545 . S
Gd672 O717 2.606 . S
Gd672 O719 2.429 . S
Gd672 O720 2.545 . S
Gd672 O721 2.412 . S
Gd672 O723 2.362 . S
Gd672 O724 2.324 . S
Gd672 C731 2.828 . S
Gd673 N682 2.661 . S
Gd673 N686 2.601 . S
Gd673 O717 2.362 . S
Gd673 O718 2.324 . S
Gd673 O722 2.545 . S
Gd673 O723 2.606 . S
Gd673 O725 2.429 . S
Gd673 O726 2.545 . S
Gd673 O727 2.412 . S
Gd673 C740 2.828 . S
C674 C677 1.417 . S
C674 C679 1.431 . S
C674 C680 1.412 . S
C675 C678 1.437 . S
C675 C679 1.317 . S
C675 H694 0.929 . S
C676 C677 1.426 . S
C676 C678 1.413 . S
C676 N686 1.359 . S
C677 C674 1.417 . S
C677 C676 1.426 . S
C677 N682 1.350 . S
C678 C675 1.437 . S
C678 C676 1.413 . S
C678 C688 1.391 . S
C679 C674 1.431 . S
C679 C675 1.317 . S
C679 H690 0.930 . S
C680 C674 1.412 . S
C680 C681 1.355 . S
C680 H692 0.930 . S
C681 C680 1.355 . S
C681 C683 1.402 . S
C681 H693 0.930 . S
N682 Gd673 2.661 . S
N682 C677 1.350 . S
N682 C683 1.307 . S
C683 C681 1.402 . S
C683 N682 1.307 . S
C683 H684 0.930 . S
H684 C683 0.930 . S
C685 N686 1.334 . S
C685 C687 1.394 . S
C685 H689 0.930 . S
N686 Gd673 2.601 . S
N686 C676 1.359 . S
N686 C685 1.334 . S
C687 C685 1.394 . S
C687 C688 1.359 . S
C687 H699 0.930 . S
C688 C678 1.391 . S
C688 C687 1.359 . S
C688 H700 0.929 . S
H689 C685 0.930 . S
H690 C679 0.930 . S
H691 C708 0.930 . S
H692 C680 0.930 . S
H693 C681 0.930 . S
H694 C675 0.929 . S
H695 C713 0.930 . S
H696 C704 0.930 . S
H697 C705 0.930 . S
H698 C729 0.929 . S
H699 C687 0.930 . S
H700 C688 0.929 . S
H701 C730 0.930 . S
H702 C711 0.930 . S
N703 Gd672 2.661 . S
N703 C707 1.350 . S
N703 C708 1.307 . S
C704 H696 0.930 . S
C704 C705 1.355 . S
C704 C706 1.412 . S
C705 H697 0.930 . S
C705 C704 1.355 . S
C705 C708 1.402 . S
C706 C704 1.412 . S
C706 C707 1.417 . S
C706 C730 1.431 1_554 S
C707 N703 1.350 . S
C707 C706 1.417 . S
C707 C710 1.426 . S
C708 H691 0.930 . S
C708 N703 1.307 . S
C708 C705 1.402 . S
N709 Gd672 2.601 . S
N709 C710 1.359 . S
N709 C713 1.334 . S
C710 C707 1.426 . S
C710 N709 1.359 . S
C710 C714 1.413 1_554 S
C711 H702 0.930 . S
C711 C712 1.359 . S
C711 C713 1.394 1_556 S
C712 C711 1.359 . S
C712 C714 1.391 . S
C712 H715 0.929 . S
C713 H695 0.930 . S
C713 N709 1.334 . S
C713 C711 1.394 1_554 S
C714 C710 1.413 1_556 S
C714 C712 1.391 . S
C714 C729 1.437 . S
H715 C712 0.929 . S
O716 Gd672 2.545 . S
O716 C731 1.258 . S
O717 Gd672 2.606 . S
O717 Gd673 2.362 . S
O717 C728 1.284 . S
O718 Gd673 2.324 . S
O718 C738 1.254 . S
O719 Gd672 2.429 . S
O719 C738 1.268 . S
O720 Gd672 2.545 . S
O720 C728 1.250 . S
O721 Gd672 2.412 . S
O721 C731 1.252 . S
O722 Gd673 2.545 . S
O722 C740 1.258 . S
O723 Gd672 2.362 . S
O723 Gd673 2.606 . S
O723 C739 1.284 . S
O724 Gd672 2.324 . S
O724 C747 1.254 . S
O725 Gd673 2.429 . S
O725 C747 1.268 . S
O726 Gd673 2.545 . S
O726 C739 1.250 . S
O727 Gd673 2.412 . S
O727 C740 1.252 . S
C728 O717 1.284 . S
C728 O720 1.250 . S
C729 H698 0.929 . S
C729 C714 1.437 . S
C729 C730 1.317 . S
C730 H701 0.930 . S
C730 C706 1.431 1_556 S
C730 C729 1.317 . S
C731 Gd672 2.828 . S
C731 O716 1.258 . S
C731 O721 1.252 . S
C731 C732 1.497 . S
C732 C731 1.497 . S
C732 C733 1.395 . S
C732 C734 1.380 . S
C733 C732 1.395 . S
C733 C736 1.398 . S
C733 H748 0.930 . S
C734 C732 1.380 . S
C734 C735 1.391 . S
C734 H749 0.930 . S
C735 C734 1.391 . S
C735 C737 1.387 . S
C736 C733 1.398 . S
C736 C737 1.380 . S
C736 H750 0.930 . S
C737 C735 1.387 . S
C737 C736 1.380 . S
C737 H751 0.930 . S
C738 O718 1.254 . S
C738 O719 1.268 . S
C739 O723 1.284 . S
C739 O726 1.250 . S
C740 Gd673 2.828 . S
C740 O722 1.258 . S
C740 O727 1.252 . S
C740 C741 1.497 . S
C741 C740 1.497 . S
C741 C742 1.395 . S
C741 C743 1.380 . S
C742 C741 1.395 . S
C742 C745 1.398 . S
C742 H752 0.930 . S
C743 C741 1.380 . S
C743 C744 1.391 . S
C743 H753 0.930 . S
C744 C743 1.391 . S
C744 C746 1.387 . S
C745 C742 1.398 . S
C745 C746 1.380 . S
C745 H754 0.930 . S
C746 C744 1.387 . S
C746 C745 1.380 . S
C746 H755 0.930 . S
C747 O724 1.254 . S
C747 O725 1.268 . S
H748 C733 0.930 . S
H749 C734 0.930 . S
H750 C736 0.930 . S
H751 C737 0.930 . S
H752 C742 0.930 . S
H753 C743 0.930 . S
H754 C745 0.930 . S
H755 C746 0.930 . S
Gd756 N787 2.661 1_565 S
Gd756 N793 2.601 . S
Gd756 O800 2.545 . S
Gd756 O801 2.606 . S
Gd756 O803 2.429 . S
Gd756 O804 2.545 . S
Gd756 O805 2.412 . S
Gd756 O807 2.362 1_565 S
Gd756 O808 2.324 1_565 S
Gd756 C815 2.828 . S
Gd757 N766 2.661 . S
Gd757 N770 2.601 . S
Gd757 O801 2.362 1_545 S
Gd757 O802 2.324 . S
Gd757 O806 2.545 . S
Gd757 O807 2.606 . S
Gd757 O809 2.429 . S
Gd757 O810 2.545 . S
Gd757 O811 2.412 . S
Gd757 C824 2.828 . S
C758 C761 1.417 1_565 S
C758 C763 1.431 1_566 S
C758 C764 1.412 . S
C759 C762 1.437 . S
C759 C763 1.317 . S
C759 H778 0.929 . S
C760 C761 1.426 . S
C760 C762 1.413 1_556 S
C760 N770 1.359 . S
C761 C758 1.417 1_545 S
C761 C760 1.426 . S
C761 N766 1.350 . S
C762 C759 1.437 . S
C762 C760 1.413 1_554 S
C762 C772 1.391 . S
C763 C758 1.431 1_544 S
C763 C759 1.317 . S
C763 H774 0.930 1_545 S
C764 C758 1.412 . S
C764 C765 1.355 . S
C764 H776 0.930 . S
C765 C764 1.355 . S
C765 C767 1.402 . S
C765 H777 0.930 . S
N766 Gd757 2.661 . S
N766 C761 1.350 . S
N766 C767 1.307 1_545 S
C767 C765 1.402 . S
C767 N766 1.307 1_565 S
C767 H768 0.930 . S
H768 C767 0.930 . S
C769 N770 1.334 . S
C769 C771 1.394 1_556 S
C769 H773 0.930 . S
N770 Gd757 2.601 . S
N770 C760 1.359 . S
N770 C769 1.334 . S
C771 C769 1.394 1_554 S
C771 C772 1.359 . S
C771 H783 0.930 . S
C772 C762 1.391 . S
C772 C771 1.359 . S
C772 H784 0.929 . S
H773 C769 0.930 . S
H774 C763 0.930 1_565 S
H775 C792 0.930 . S
H776 C764 0.930 . S
H777 C765 0.930 . S
H778 C759 0.929 . S
H779 C797 0.930 . S
H780 C788 0.930 . S
H781 C789 0.930 . S
H782 C813 0.929 . S
H783 C771 0.930 . S
H784 C772 0.929 . S
H785 C814 0.930 . S
H786 C795 0.930 . S
N787 Gd756 2.661 1_545 S
N787 C791 1.350 1_545 S
N787 C792 1.307 . S
C788 H780 0.930 . S
C788 C789 1.355 . S
C788 C790 1.412 . S
C789 H781 0.930 . S
C789 C788 1.355 . S
C789 C792 1.402 . S
C790 C788 1.412 . S
C790 C791 1.417 1_545 S
C790 C814 1.431 . S
C791 N787 1.350 1_565 S
C791 C790 1.417 1_565 S
C791 C794 1.426 . S
C792 H775 0.930 . S
C792 N787 1.307 . S
C792 C789 1.402 . S
N793 Gd756 2.601 . S
N793 C794 1.359 . S
N793 C797 1.334 . S
C794 C791 1.426 . S
C794 N793 1.359 . S
C794 C798 1.413 . S
C795 H786 0.930 . S
C795 C796 1.359 . S
C795 C797 1.394 . S
C796 C795 1.359 . S
C796 C798 1.391 . S
C796 H799 0.929 . S
C797 H779 0.930 . S
C797 N793 1.334 . S
C797 C795 1.394 . S
C798 C794 1.413 . S
C798 C796 1.391 . S
C798 C813 1.437 . S
H799 C796 0.929 . S
O800 Gd756 2.545 . S
O800 C815 1.258 . S
O801 Gd756 2.606 . S
O801 Gd757 2.362 1_565 S
O801 C812 1.284 . S
O802 Gd757 2.324 . S
O802 C822 1.254 1_545 S
O803 Gd756 2.429 . S
O803 C822 1.268 . S
O804 Gd756 2.545 . S
O804 C812 1.250 . S
O805 Gd756 2.412 . S
O805 C815 1.252 . S
O806 Gd757 2.545 . S
O806 C824 1.258 . S
O807 Gd756 2.362 1_545 S
O807 Gd757 2.606 . S
O807 C823 1.284 . S
O808 Gd756 2.324 1_545 S
O808 C831 1.254 . S
O809 Gd757 2.429 . S
O809 C831 1.268 . S
O810 Gd757 2.545 . S
O810 C823 1.250 . S
O811 Gd757 2.412 . S
O811 C824 1.252 . S
C812 O801 1.284 . S
C812 O804 1.250 . S
C813 H782 0.929 . S
C813 C798 1.437 . S
C813 C814 1.317 1_565 S
C814 H785 0.930 . S
C814 C790 1.431 . S
C814 C813 1.317 1_545 S
C815 Gd756 2.828 . S
C815 O800 1.258 . S
C815 O805 1.252 . S
C815 C816 1.497 . S
C816 C815 1.497 . S
C816 C817 1.395 . S
C816 C818 1.380 . S
C817 C816 1.395 . S
C817 C820 1.398 . S
C817 H832 0.930 . S
C818 C816 1.380 . S
C818 C819 1.391 . S
C818 H833 0.930 . S
C819 C818 1.391 . S
C819 C821 1.387 . S
C820 C817 1.398 . S
C820 C821 1.380 . S
C820 H834 0.930 . S
C821 C819 1.387 . S
C821 C820 1.380 . S
C821 H835 0.930 . S
C822 O802 1.254 1_565 S
C822 O803 1.268 . S
C823 O807 1.284 . S
C823 O810 1.250 . S
C824 Gd757 2.828 . S
C824 O806 1.258 . S
C824 O811 1.252 . S
C824 C825 1.497 . S
C825 C824 1.497 . S
C825 C826 1.395 . S
C825 C827 1.380 . S
C826 C825 1.395 . S
C826 C829 1.398 . S
C826 H836 0.930 . S
C827 C825 1.380 . S
C827 C828 1.391 . S
C827 H837 0.930 . S
C828 C827 1.391 . S
C828 C830 1.387 . S
C829 C826 1.398 . S
C829 C830 1.380 . S
C829 H838 0.930 . S
C830 C828 1.387 . S
C830 C829 1.380 . S
C830 H839 0.930 . S
C831 O808 1.254 . S
C831 O809 1.268 . S
H832 C817 0.930 . S
H833 C818 0.930 . S
H834 C820 0.930 . S
H835 C821 0.930 . S
H836 C826 0.930 . S
H837 C827 0.930 . S
H838 C829 0.930 . S
H839 C830 0.930 . S
Gd840 N871 2.661 1_545 S
Gd840 N877 2.601 . S
Gd840 O884 2.545 . S
Gd840 O885 2.606 . S
Gd840 O887 2.429 . S
Gd840 O888 2.545 . S
Gd840 O889 2.412 . S
Gd840 O891 2.362 1_545 S
Gd840 O892 2.324 1_545 S
Gd840 C899 2.828 . S
Gd841 N850 2.661 . S
Gd841 N854 2.601 . S
Gd841 O885 2.362 1_565 S
Gd841 O886 2.324 . S
Gd841 O890 2.545 . S
Gd841 O891 2.606 . S
Gd841 O893 2.429 . S
Gd841 O894 2.545 . S
Gd841 O895 2.412 . S
Gd841 C908 2.828 . S
C842 C845 1.417 1_545 S
C842 C847 1.431 1_545 S
C842 C848 1.412 . S
C843 C846 1.437 . S
C843 C847 1.317 . S
C843 H862 0.929 . S
C844 C845 1.426 . S
C844 C846 1.413 . S
C844 N854 1.359 . S
C845 C842 1.417 1_565 S
C845 C844 1.426 . S
C845 N850 1.350 . S
C846 C843 1.437 . S
C846 C844 1.413 . S
C846 C856 1.391 . S
C847 C842 1.431 1_565 S
C847 C843 1.317 . S
C847 H858 0.930 1_565 S
C848 C842 1.412 . S
C848 C849 1.355 . S
C848 H860 0.930 . S
C849 C848 1.355 . S
C849 C851 1.402 . S
C849 H861 0.930 . S
N850 Gd841 2.661 . S
N850 C845 1.350 . S
N850 C851 1.307 1_565 S
C851 C849 1.402 . S
C851 N850 1.307 1_545 S
C851 H852 0.930 . S
H852 C851 0.930 . S
C853 N854 1.334 . S
C853 C855 1.394 . S
C853 H857 0.930 . S
N854 Gd841 2.601 . S
N854 C844 1.359 . S
N854 C853 1.334 . S
C855 C853 1.394 . S
C855 C856 1.359 . S
C855 H867 0.930 . S
C856 C846 1.391 . S
C856 C855 1.359 . S
C856 H868 0.929 . S
H857 C853 0.930 . S
H858 C847 0.930 1_545 S
H859 C876 0.930 . S
H860 C848 0.930 . S
H861 C849 0.930 . S
H862 C843 0.929 . S
H863 C881 0.930 . S
H864 C872 0.930 . S
H865 C873 0.930 . S
H866 C897 0.929 . S
H867 C855 0.930 . S
H868 C856 0.929 . S
H869 C898 0.930 . S
H870 C879 0.930 . S
N871 Gd840 2.661 1_565 S
N871 C875 1.350 1_565 S
N871 C876 1.307 . S
C872 H864 0.930 . S
C872 C873 1.355 . S
C872 C874 1.412 . S
C873 H865 0.930 . S
C873 C872 1.355 . S
C873 C876 1.402 . S
C874 C872 1.412 . S
C874 C875 1.417 1_565 S
C874 C898 1.431 . S
C875 N871 1.350 1_545 S
C875 C874 1.417 1_545 S
C875 C878 1.426 . S
C876 H859 0.930 . S
C876 N871 1.307 . S
C876 C873 1.402 . S
N877 Gd840 2.601 . S
N877 C878 1.359 . S
N877 C881 1.334 . S
C878 C875 1.426 . S
C878 N877 1.359 . S
C878 C882 1.413 . S
C879 H870 0.930 . S
C879 C880 1.359 . S
C879 C881 1.394 . S
C880 C879 1.359 . S
C880 C882 1.391 . S
C880 H883 0.929 . S
C881 H863 0.930 . S
C881 N877 1.334 . S
C881 C879 1.394 . S
C882 C878 1.413 . S
C882 C880 1.391 . S
C882 C897 1.437 . S
H883 C880 0.929 . S
O884 Gd840 2.545 . S
O884 C899 1.258 . S
O885 Gd840 2.606 . S
O885 Gd841 2.362 1_545 S
O885 C896 1.284 . S
O886 Gd841 2.324 . S
O886 C906 1.254 1_565 S
O887 Gd840 2.429 . S
O887 C906 1.268 . S
O888 Gd840 2.545 . S
O888 C896 1.250 . S
O889 Gd840 2.412 . S
O889 C899 1.252 . S
O890 Gd841 2.545 . S
O890 C908 1.258 . S
O891 Gd840 2.362 1_565 S
O891 Gd841 2.606 . S
O891 C907 1.284 . S
O892 Gd840 2.324 1_565 S
O892 C915 1.254 . S
O893 Gd841 2.429 . S
O893 C915 1.268 . S
O894 Gd841 2.545 . S
O894 C907 1.250 . S
O895 Gd841 2.412 . S
O895 C908 1.252 . S
C896 O885 1.284 . S
C896 O888 1.250 . S
C897 H866 0.929 . S
C897 C882 1.437 . S
C897 C898 1.317 1_545 S
C898 H869 0.930 . S
C898 C874 1.431 . S
C898 C897 1.317 1_565 S
C899 Gd840 2.828 . S
C899 O884 1.258 . S
C899 O889 1.252 . S
C899 C900 1.497 . S
C900 C899 1.497 . S
C900 C901 1.395 . S
C900 C902 1.380 . S
C901 C900 1.395 . S
C901 C904 1.398 . S
C901 H916 0.930 . S
C902 C900 1.380 . S
C902 C903 1.391 . S
C902 H917 0.930 . S
C903 C902 1.391 . S
C903 C905 1.387 . S
C904 C901 1.398 . S
C904 C905 1.380 . S
C904 H918 0.930 . S
C905 C903 1.387 . S
C905 C904 1.380 . S
C905 H919 0.930 . S
C906 O886 1.254 1_545 S
C906 O887 1.268 . S
C907 O891 1.284 . S
C907 O894 1.250 . S
C908 Gd841 2.828 . S
C908 O890 1.258 . S
C908 O895 1.252 . S
C908 C909 1.497 . S
C909 C908 1.497 . S
C909 C910 1.395 . S
C909 C911 1.380 . S
C910 C909 1.395 . S
C910 C913 1.398 . S
C910 H920 0.930 . S
C911 C909 1.380 . S
C911 C912 1.391 . S
C911 H921 0.930 . S
C912 C911 1.391 . S
C912 C914 1.387 . S
C913 C910 1.398 . S
C913 C914 1.380 . S
C913 H922 0.930 . S
C914 C912 1.387 . S
C914 C913 1.380 . S
C914 H923 0.930 . S
C915 O892 1.254 . S
C915 O893 1.268 . S
H916 C901 0.930 . S
H917 C902 0.930 . S
H918 C904 0.930 . S
H919 C905 0.930 . S
H920 C910 0.930 . S
H921 C911 0.930 . S
H922 C913 0.930 . S
H923 C914 0.930 . S
Gd924 N955 2.661 . S
Gd924 N961 2.601 . S
Gd924 O968 2.545 . S
Gd924 O969 2.606 . S
Gd924 O971 2.429 . S
Gd924 O972 2.545 . S
Gd924 O973 2.412 . S
Gd924 O975 2.362 . S
Gd924 O976 2.324 . S
Gd924 C983 2.828 . S
Gd925 N934 2.661 . S
Gd925 N938 2.601 . S
Gd925 O969 2.362 . S
Gd925 O970 2.324 . S
Gd925 O974 2.545 . S
Gd925 O975 2.606 . S
Gd925 O977 2.429 . S
Gd925 O978 2.545 . S
Gd925 O979 2.412 . S
Gd925 C992 2.828 . S
C926 C929 1.417 . S
C926 C931 1.431 . S
C926 C932 1.412 . S
C927 C930 1.437 . S
C927 C931 1.317 . S
C927 H946 0.929 . S
C928 C929 1.426 . S
C928 C930 1.413 . S
C928 N938 1.359 . S
C929 C926 1.417 . S
C929 C928 1.426 . S
C929 N934 1.350 . S
C930 C927 1.437 . S
C930 C928 1.413 . S
C930 C940 1.391 . S
C931 C926 1.431 . S
C931 C927 1.317 . S
C931 H942 0.930 . S
C932 C926 1.412 . S
C932 C933 1.355 . S
C932 H944 0.930 . S
C933 C932 1.355 . S
C933 C935 1.402 . S
C933 H945 0.930 . S
N934 Gd925 2.661 . S
N934 C929 1.350 . S
N934 C935 1.307 . S
C935 C933 1.402 . S
C935 N934 1.307 . S
C935 H936 0.930 . S
H936 C935 0.930 . S
C937 N938 1.334 . S
C937 C939 1.394 . S
C937 H941 0.930 . S
N938 Gd925 2.601 . S
N938 C928 1.359 . S
N938 C937 1.334 . S
C939 C937 1.394 . S
C939 C940 1.359 . S
C939 H951 0.930 . S
C940 C930 1.391 . S
C940 C939 1.359 . S
C940 H952 0.929 . S
H941 C937 0.930 . S
H942 C931 0.930 . S
H943 C960 0.930 . S
H944 C932 0.930 . S
H945 C933 0.930 . S
H946 C927 0.929 . S
H947 C965 0.930 . S
H948 C956 0.930 . S
H949 C957 0.930 . S
H950 C981 0.929 . S
H951 C939 0.930 . S
H952 C940 0.929 . S
H953 C982 0.930 . S
H954 C963 0.930 . S
N955 Gd924 2.661 . S
N955 C959 1.350 . S
N955 C960 1.307 . S
C956 H948 0.930 . S
C956 C957 1.355 . S
C956 C958 1.412 . S
C957 H949 0.930 . S
C957 C956 1.355 . S
C957 C960 1.402 . S
C958 C956 1.412 . S
C958 C959 1.417 . S
C958 C982 1.431 . S
C959 N955 1.350 . S
C959 C958 1.417 . S
C959 C962 1.426 . S
C960 H943 0.930 . S
C960 N955 1.307 . S
C960 C957 1.402 . S
N961 Gd924 2.601 . S
N961 C962 1.359 . S
N961 C965 1.334 . S
C962 C959 1.426 . S
C962 N961 1.359 . S
C962 C966 1.413 . S
C963 H954 0.930 . S
C963 C964 1.359 . S
C963 C965 1.394 . S
C964 C963 1.359 . S
C964 C966 1.391 . S
C964 H967 0.929 . S
C965 H947 0.930 . S
C965 N961 1.334 . S
C965 C963 1.394 . S
C966 C962 1.413 . S
C966 C964 1.391 . S
C966 C981 1.437 . S
H967 C964 0.929 . S
O968 Gd924 2.545 . S
O968 C983 1.258 . S
O969 Gd924 2.606 . S
O969 Gd925 2.362 . S
O969 C980 1.284 . S
O970 Gd925 2.324 . S
O970 C990 1.254 . S
O971 Gd924 2.429 . S
O971 C990 1.268 . S
O972 Gd924 2.545 . S
O972 C980 1.250 . S
O973 Gd924 2.412 . S
O973 C983 1.252 . S
O974 Gd925 2.545 . S
O974 C992 1.258 . S
O975 Gd924 2.362 . S
O975 Gd925 2.606 . S
O975 C991 1.284 . S
O976 Gd924 2.324 . S
O976 C999 1.254 . S
O977 Gd925 2.429 . S
O977 C999 1.268 . S
O978 Gd925 2.545 . S
O978 C991 1.250 . S
O979 Gd925 2.412 . S
O979 C992 1.252 . S
C980 O969 1.284 . S
C980 O972 1.250 . S
C981 H950 0.929 . S
C981 C966 1.437 . S
C981 C982 1.317 . S
C982 H953 0.930 . S
C982 C958 1.431 . S
C982 C981 1.317 . S
C983 Gd924 2.828 . S
C983 O968 1.258 . S
C983 O973 1.252 . S
C983 C984 1.497 . S
C984 C983 1.497 . S
C984 C985 1.395 . S
C984 C986 1.380 . S
C985 C984 1.395 . S
C985 C988 1.398 . S
C985 H1000 0.930 . S
C986 C984 1.380 . S
C986 C987 1.391 . S
C986 H1001 0.930 . S
C987 C986 1.391 . S
C987 C989 1.387 . S
C988 C985 1.398 . S
C988 C989 1.380 . S
C988 H1002 0.930 . S
C989 C987 1.387 . S
C989 C988 1.380 . S
C989 H1003 0.930 . S
C990 O970 1.254 . S
C990 O971 1.268 . S
C991 O975 1.284 . S
C991 O978 1.250 . S
C992 Gd925 2.828 . S
C992 O974 1.258 . S
C992 O979 1.252 . S
C992 C993 1.497 . S
C993 C992 1.497 . S
C993 C994 1.395 . S
C993 C995 1.380 . S
C994 C993 1.395 . S
C994 C997 1.398 . S
C994 H1004 0.930 . S
C995 C993 1.380 . S
C995 C996 1.391 . S
C995 H1005 0.930 . S
C996 C995 1.391 . S
C996 C998 1.387 . S
C997 C994 1.398 . S
C997 C998 1.380 . S
C997 H1006 0.930 . S
C998 C996 1.387 . S
C998 C997 1.380 . S
C998 H1007 0.930 . S
C999 O976 1.254 . S
C999 O977 1.268 . S
H1000 C985 0.930 . S
H1001 C986 0.930 . S
H1002 C988 0.930 . S
H1003 C989 0.930 . S
H1004 C994 0.930 . S
H1005 C995 0.930 . S
H1006 C997 0.930 . S
H1007 C998 0.930 . S
C1008 C1009 1.363 . S
C1008 C1014 1.379 . S
C1008 N1016 1.356 . S
C1009 C1008 1.363 . S
C1009 C1015 1.363 . S
C1010 C1011 1.363 . S
C1010 C1015 1.379 . S
C1010 N1017 1.356 . S
C1011 C1010 1.363 . S
C1011 C1014 1.363 . S
N1012 C1014 1.356 . S
N1012 H1024 0.984 . S
N1012 H1025 0.985 . S
N1013 C1015 1.356 . S
N1013 H1018 0.984 . S
N1013 H1019 0.985 . S
C1014 C1008 1.379 . S
C1014 C1011 1.363 . S
C1014 N1012 1.356 . S
C1015 C1009 1.363 . S
C1015 C1010 1.379 . S
C1015 N1013 1.356 . S
N1016 C1008 1.356 . S
N1016 H1022 0.984 . S
N1016 H1023 0.984 . S
N1017 C1010 1.356 . S
N1017 H1020 0.984 . S
N1017 H1021 0.985 . S
H1018 N1013 0.984 . S
H1019 N1013 0.985 . S
H1020 N1017 0.984 . S
H1021 N1017 0.985 . S
H1022 N1016 0.984 . S
H1023 N1016 0.984 . S
H1024 N1012 0.984 . S
H1025 N1012 0.985 . S
C1026 C1027 1.363 . S
C1026 C1032 1.379 . S
C1026 N1034 1.356 . S
C1027 C1026 1.363 . S
C1027 C1033 1.363 . S
C1028 C1029 1.363 . S
C1028 C1033 1.379 . S
C1028 N1035 1.356 . S
C1029 C1028 1.363 . S
C1029 C1032 1.363 . S
N1030 C1032 1.356 . S
N1030 H1042 0.984 . S
N1030 H1043 0.985 . S
N1031 C1033 1.356 1_545 S
N1031 H1036 0.984 . S
N1031 H1037 0.985 . S
C1032 C1026 1.379 . S
C1032 C1029 1.363 . S
C1032 N1030 1.356 . S
C1033 C1027 1.363 . S
C1033 C1028 1.379 . S
C1033 N1031 1.356 1_565 S
N1034 C1026 1.356 . S
N1034 H1040 0.984 . S
N1034 H1041 0.984 . S
N1035 C1028 1.356 . S
N1035 H1038 0.984 . S
N1035 H1039 0.985 1_565 S
H1036 N1031 0.984 . S
H1037 N1031 0.985 . S
H1038 N1035 0.984 . S
H1039 N1035 0.985 1_545 S
H1040 N1034 0.984 . S
H1041 N1034 0.984 . S
H1042 N1030 0.984 . S
H1043 N1030 0.985 . S
C1044 C1045 1.363 . S
C1044 C1050 1.379 . S
C1044 N1052 1.356 1_554 S
C1045 C1044 1.363 . S
C1045 C1051 1.363 . S
C1046 C1047 1.363 . S
C1046 C1051 1.379 . S
C1046 N1053 1.356 . S
C1047 C1046 1.363 . S
C1047 C1050 1.363 . S
N1048 C1050 1.356 1_556 S
N1048 H1060 0.984 . S
N1048 H1061 0.985 1_556 S
N1049 C1051 1.356 . S
N1049 H1054 0.984 . S
N1049 H1055 0.985 . S
C1050 C1044 1.379 . S
C1050 C1047 1.363 . S
C1050 N1048 1.356 1_554 S
C1051 C1045 1.363 . S
C1051 C1046 1.379 . S
C1051 N1049 1.356 . S
N1052 C1044 1.356 1_556 S
N1052 H1058 0.984 . S
N1052 H1059 0.984 . S
N1053 C1046 1.356 . S
N1053 H1056 0.984 . S
N1053 H1057 0.985 . S
H1054 N1049 0.984 . S
H1055 N1049 0.985 . S
H1056 N1053 0.984 . S
H1057 N1053 0.985 . S
H1058 N1052 0.984 . S
H1059 N1052 0.984 . S
H1060 N1048 0.984 . S
H1061 N1048 0.985 1_554 S
C1062 C1063 1.363 . S
C1062 C1068 1.379 . S
C1062 N1070 1.356 . S
C1063 C1062 1.363 . S
C1063 C1069 1.363 . S
C1064 C1065 1.363 . S
C1064 C1069 1.379 . S
C1064 N1071 1.356 . S
C1065 C1064 1.363 . S
C1065 C1068 1.363 . S
N1066 C1068 1.356 . S
N1066 H1078 0.984 . S
N1066 H1079 0.985 . S
N1067 C1069 1.356 . S
N1067 H1072 0.984 . S
N1067 H1073 0.985 . S
C1068 C1062 1.379 . S
C1068 C1065 1.363 . S
C1068 N1066 1.356 . S
C1069 C1063 1.363 . S
C1069 C1064 1.379 . S
C1069 N1067 1.356 . S
N1070 C1062 1.356 . S
N1070 H1076 0.984 . S
N1070 H1077 0.984 . S
N1071 C1064 1.356 . S
N1071 H1074 0.984 . S
N1071 H1075 0.985 . S
H1072 N1067 0.984 . S
H1073 N1067 0.985 . S
H1074 N1071 0.984 . S
H1075 N1071 0.985 . S
H1076 N1070 0.984 . S
H1077 N1070 0.984 . S
H1078 N1066 0.984 . S
H1079 N1066 0.985 . S
C1080 C1081 1.363 . S
C1080 C1086 1.379 . S
C1080 N1088 1.356 . S
C1081 C1080 1.363 . S
C1081 C1087 1.363 . S
C1082 C1083 1.363 . S
C1082 C1087 1.379 . S
C1082 N1089 1.356 . S
C1083 C1082 1.363 . S
C1083 C1086 1.363 . S
N1084 C1086 1.356 . S
N1084 H1096 0.984 . S
N1084 H1097 0.985 . S
N1085 C1087 1.356 . S
N1085 H1090 0.984 . S
N1085 H1091 0.985 . S
C1086 C1080 1.379 . S
C1086 C1083 1.363 . S
C1086 N1084 1.356 . S
C1087 C1081 1.363 . S
C1087 C1082 1.379 . S
C1087 N1085 1.356 . S
N1088 C1080 1.356 . S
N1088 H1094 0.984 . S
N1088 H1095 0.984 . S
N1089 C1082 1.356 . S
N1089 H1092 0.984 . S
N1089 H1093 0.985 . S
H1090 N1085 0.984 . S
H1091 N1085 0.985 . S
H1092 N1089 0.984 . S
H1093 N1089 0.985 . S
H1094 N1088 0.984 . S
H1095 N1088 0.984 . S
H1096 N1084 0.984 . S
H1097 N1084 0.985 . S
C1098 C1099 1.363 . S
C1098 C1104 1.379 . S
C1098 N1106 1.356 . S
C1099 C1098 1.363 . S
C1099 C1105 1.363 . S
C1100 C1101 1.363 . S
C1100 C1105 1.379 . S
C1100 N1107 1.356 . S
C1101 C1100 1.363 . S
C1101 C1104 1.363 . S
N1102 C1104 1.356 . S
N1102 H1114 0.984 . S
N1102 H1115 0.985 . S
N1103 C1105 1.356 . S
N1103 H1108 0.984 . S
N1103 H1109 0.985 . S
C1104 C1098 1.379 . S
C1104 C1101 1.363 . S
C1104 N1102 1.356 . S
C1105 C1099 1.363 . S
C1105 C1100 1.379 . S
C1105 N1103 1.356 . S
N1106 C1098 1.356 . S
N1106 H1112 0.984 . S
N1106 H1113 0.984 . S
N1107 C1100 1.356 . S
N1107 H1110 0.984 . S
N1107 H1111 0.985 . S
H1108 N1103 0.984 . S
H1109 N1103 0.985 . S
H1110 N1107 0.984 . S
H1111 N1107 0.985 . S
H1112 N1106 0.984 . S
H1113 N1106 0.984 . S
H1114 N1102 0.984 . S
H1115 N1102 0.985 . S
C1116 C1117 1.363 . S
C1116 C1122 1.379 . S
C1116 N1124 1.356 . S
C1117 C1116 1.363 . S
C1117 C1123 1.363 . S
C1118 C1119 1.363 . S
C1118 C1123 1.379 . S
C1118 N1125 1.356 1_556 S
C1119 C1118 1.363 . S
C1119 C1122 1.363 . S
N1120 C1122 1.356 . S
N1120 H1132 0.984 . S
N1120 H1133 0.985 . S
N1121 C1123 1.356 . S
N1121 H1126 0.984 . S
N1121 H1127 0.985 1_556 S
C1122 C1116 1.379 . S
C1122 C1119 1.363 . S
C1122 N1120 1.356 . S
C1123 C1117 1.363 . S
C1123 C1118 1.379 . S
C1123 N1121 1.356 . S
N1124 C1116 1.356 . S
N1124 H1130 0.984 . S
N1124 H1131 0.984 . S
N1125 C1118 1.356 1_554 S
N1125 H1128 0.984 . S
N1125 H1129 0.985 . S
H1126 N1121 0.984 . S
H1127 N1121 0.985 1_554 S
H1128 N1125 0.984 . S
H1129 N1125 0.985 . S
H1130 N1124 0.984 . S
H1131 N1124 0.984 . S
H1132 N1120 0.984 . S
H1133 N1120 0.985 . S
C1134 C1135 1.363 . S
C1134 C1140 1.379 . S
C1134 N1142 1.356 . S
C1135 C1134 1.363 . S
C1135 C1141 1.363 . S
C1136 C1137 1.363 . S
C1136 C1141 1.379 . S
C1136 N1143 1.356 . S
C1137 C1136 1.363 . S
C1137 C1140 1.363 . S
N1138 C1140 1.356 . S
N1138 H1150 0.984 . S
N1138 H1151 0.985 . S
N1139 C1141 1.356 . S
N1139 H1144 0.984 . S
N1139 H1145 0.985 . S
C1140 C1134 1.379 . S
C1140 C1137 1.363 . S
C1140 N1138 1.356 . S
C1141 C1135 1.363 . S
C1141 C1136 1.379 . S
C1141 N1139 1.356 . S
N1142 C1134 1.356 . S
N1142 H1148 0.984 . S
N1142 H1149 0.984 . S
N1143 C1136 1.356 . S
N1143 H1146 0.984 . S
N1143 H1147 0.985 . S
H1144 N1139 0.984 . S
H1145 N1139 0.985 . S
H1146 N1143 0.984 . S
H1147 N1143 0.985 . S
H1148 N1142 0.984 . S
H1149 N1142 0.984 . S
H1150 N1138 0.984 . S
H1151 N1138 0.985 . S
C1152 C1153 1.363 . S
C1152 C1158 1.379 . S
C1152 N1160 1.356 . S
C1153 C1152 1.363 . S
C1153 C1159 1.363 . S
C1154 C1155 1.363 . S
C1154 C1159 1.379 . S
C1154 N1161 1.356 . S
C1155 C1154 1.363 . S
C1155 C1158 1.363 . S
N1156 C1158 1.356 . S
N1156 H1168 0.984 . S
N1156 H1169 0.985 . S
N1157 C1159 1.356 . S
N1157 H1162 0.984 . S
N1157 H1163 0.985 . S
C1158 C1152 1.379 . S
C1158 C1155 1.363 . S
C1158 N1156 1.356 . S
C1159 C1153 1.363 . S
C1159 C1154 1.379 . S
C1159 N1157 1.356 . S
N1160 C1152 1.356 . S
N1160 H1166 0.984 . S
N1160 H1167 0.984 . S
N1161 C1154 1.356 . S
N1161 H1164 0.984 . S
N1161 H1165 0.985 . S
H1162 N1157 0.984 . S
H1163 N1157 0.985 . S
H1164 N1161 0.984 . S
H1165 N1161 0.985 . S
H1166 N1160 0.984 . S
H1167 N1160 0.984 . S
H1168 N1156 0.984 . S
H1169 N1156 0.985 . S
C1170 C1171 1.363 . S
C1170 C1176 1.379 . S
C1170 N1178 1.356 . S
C1171 C1170 1.363 . S
C1171 C1177 1.363 . S
C1172 C1173 1.363 . S
C1172 C1177 1.379 . S
C1172 N1179 1.356 . S
C1173 C1172 1.363 . S
C1173 C1176 1.363 . S
N1174 C1176 1.356 1_655 S
N1174 H1186 0.984 . S
N1174 H1187 0.985 . S
N1175 C1177 1.356 . S
N1175 H1180 0.984 . S
N1175 H1181 0.985 . S
C1176 C1170 1.379 . S
C1176 C1173 1.363 . S
C1176 N1174 1.356 1_455 S
C1177 C1171 1.363 . S
C1177 C1172 1.379 . S
C1177 N1175 1.356 . S
N1178 C1170 1.356 . S
N1178 H1184 0.990 . S
N1178 H1185 0.984 . S
N1179 C1172 1.356 . S
N1179 H1182 0.984 . S
N1179 H1183 0.985 . S
H1180 N1175 0.984 . S
H1181 N1175 0.985 . S
H1182 N1179 0.984 . S
H1183 N1179 0.985 . S
H1184 N1178 0.990 . S
H1185 N1178 0.984 . S
H1186 N1174 0.984 . S
H1187 N1174 0.985 . S
C1188 C1189 1.363 . S
C1188 C1194 1.379 . S
C1188 N1196 1.356 1_655 S
C1189 C1188 1.363 . S
C1189 C1195 1.363 . S
C1190 C1191 1.363 . S
C1190 C1195 1.379 . S
C1190 N1197 1.356 . S
C1191 C1190 1.363 . S
C1191 C1194 1.363 . S
N1192 C1194 1.355 1_455 S
N1192 H1204 0.987 . S
N1192 H1205 0.983 1_455 S
N1193 C1195 1.356 . S
N1193 H1198 0.984 . S
N1193 H1199 0.985 . S
C1194 C1188 1.379 . S
C1194 C1191 1.363 . S
C1194 N1192 1.355 1_655 S
C1195 C1189 1.363 . S
C1195 C1190 1.379 . S
C1195 N1193 1.356 . S
N1196 C1188 1.356 1_455 S
N1196 H1202 0.984 . S
N1196 H1203 0.984 . S
N1197 C1190 1.356 . S
N1197 H1200 0.984 . S
N1197 H1201 0.985 . S
H1198 N1193 0.984 . S
H1199 N1193 0.985 . S
H1200 N1197 0.984 . S
H1201 N1197 0.985 . S
H1202 N1196 0.984 . S
H1203 N1196 0.984 . S
H1204 N1192 0.987 . S
H1205 N1192 0.983 1_655 S
C1206 C1207 1.363 . S
C1206 C1212 1.379 . S
C1206 N1214 1.356 . S
C1207 C1206 1.363 . S
C1207 C1213 1.363 . S
C1208 C1209 1.363 . S
C1208 C1213 1.379 . S
C1208 N1215 1.356 . S
C1209 C1208 1.363 . S
C1209 C1212 1.363 . S
N1210 C1212 1.356 . S
N1210 H1222 0.984 . S
N1210 H1223 0.985 . S
N1211 C1213 1.356 . S
N1211 H1216 0.984 . S
N1211 H1217 0.985 . S
C1212 C1206 1.379 . S
C1212 C1209 1.363 . S
C1212 N1210 1.356 . S
C1213 C1207 1.363 . S
C1213 C1208 1.379 . S
C1213 N1211 1.356 . S
N1214 C1206 1.356 . S
N1214 H1220 0.984 . S
N1214 H1221 0.984 . S
N1215 C1208 1.356 . S
N1215 H1218 0.984 . S
N1215 H1219 0.985 . S
H1216 N1211 0.984 . S
H1217 N1211 0.985 . S
H1218 N1215 0.984 . S
H1219 N1215 0.985 . S
H1220 N1214 0.984 . S
H1221 N1214 0.984 . S
H1222 N1210 0.984 . S
H1223 N1210 0.985 . S
C1224 C1225 1.363 . S
C1224 C1230 1.379 . S
C1224 N1232 1.356 . S
C1225 C1224 1.363 . S
C1225 C1231 1.363 . S
C1226 C1227 1.363 . S
C1226 C1231 1.379 . S
C1226 N1233 1.356 . S
C1227 C1226 1.363 . S
C1227 C1230 1.363 . S
N1228 C1230 1.356 . S
N1228 H1240 0.984 . S
N1228 H1241 0.985 . S
N1229 C1231 1.356 . S
N1229 H1234 0.984 . S
N1229 H1235 0.985 . S
C1230 C1224 1.379 . S
C1230 C1227 1.363 . S
C1230 N1228 1.356 . S
C1231 C1225 1.363 . S
C1231 C1226 1.379 . S
C1231 N1229 1.356 . S
N1232 C1224 1.356 . S
N1232 H1238 0.984 . S
N1232 H1239 0.984 . S
N1233 C1226 1.356 . S
N1233 H1236 0.984 . S
N1233 H1237 0.985 . S
H1234 N1229 0.984 . S
H1235 N1229 0.985 . S
H1236 N1233 0.984 . S
H1237 N1233 0.985 . S
H1238 N1232 0.984 . S
H1239 N1232 0.984 . S
H1240 N1228 0.984 . S
H1241 N1228 0.985 . S
C1242 C1243 1.363 . S
C1242 C1248 1.379 . S
C1242 N1250 1.356 . S
C1243 C1242 1.363 . S
C1243 C1249 1.363 . S
C1244 C1245 1.363 . S
C1244 C1249 1.379 . S
C1244 N1251 1.356 1_565 S
C1245 C1244 1.363 . S
C1245 C1248 1.363 . S
N1246 C1248 1.356 . S
N1246 H1258 0.984 . S
N1246 H1259 0.985 . S
N1247 C1249 1.356 . S
N1247 H1252 0.984 . S
N1247 H1253 0.985 1_565 S
C1248 C1242 1.379 . S
C1248 C1245 1.363 . S
C1248 N1246 1.356 . S
C1249 C1243 1.363 . S
C1249 C1244 1.379 . S
C1249 N1247 1.356 . S
N1250 C1242 1.356 . S
N1250 H1256 0.984 . S
N1250 H1257 0.984 . S
N1251 C1244 1.356 1_545 S
N1251 H1254 0.984 . S
N1251 H1255 0.985 . S
H1252 N1247 0.984 . S
H1253 N1247 0.985 1_545 S
H1254 N1251 0.984 . S
H1255 N1251 0.985 . S
H1256 N1250 0.984 . S
H1257 N1250 0.984 . S
H1258 N1246 0.984 . S
H1259 N1246 0.985 . S
C1260 C1261 1.363 . S
C1260 C1266 1.379 . S
C1260 N1268 1.356 . S
C1261 C1260 1.363 . S
C1261 C1267 1.363 . S
C1262 C1263 1.363 . S
C1262 C1267 1.379 . S
C1262 N1269 1.356 . S
C1263 C1262 1.363 . S
C1263 C1266 1.363 . S
N1264 C1266 1.356 . S
N1264 H1276 0.984 . S
N1264 H1277 0.985 . S
N1265 C1267 1.356 . S
N1265 H1270 0.984 . S
N1265 H1271 0.985 . S
C1266 C1260 1.379 . S
C1266 C1263 1.363 . S
C1266 N1264 1.356 . S
C1267 C1261 1.363 . S
C1267 C1262 1.379 . S
C1267 N1265 1.356 . S
N1268 C1260 1.356 . S
N1268 H1274 0.984 . S
N1268 H1275 0.984 . S
N1269 C1262 1.356 . S
N1269 H1272 0.984 . S
N1269 H1273 0.985 . S
H1270 N1265 0.984 . S
H1271 N1265 0.985 . S
H1272 N1269 0.984 . S
H1273 N1269 0.985 . S
H1274 N1268 0.984 . S
H1275 N1268 0.984 . S
H1276 N1264 0.984 . S
H1277 N1264 0.985 . S
C1278 C1279 1.363 . S
C1278 C1284 1.379 1_554 S
C1278 N1286 1.356 . S
C1279 C1278 1.363 . S
C1279 C1285 1.363 . S
C1280 C1281 1.363 1_554 S
C1280 C1285 1.379 . S
C1280 N1287 1.356 1_544 S
C1281 C1280 1.363 1_556 S
C1281 C1284 1.363 . S
N1282 C1284 1.356 . S
N1282 H1294 0.984 . S
N1282 H1295 0.985 . S
N1283 C1285 1.356 . S
N1283 H1288 0.984 . S
N1283 H1289 0.985 1_545 S
C1284 C1278 1.379 1_556 S
C1284 C1281 1.363 . S
C1284 N1282 1.356 . S
C1285 C1279 1.363 . S
C1285 C1280 1.379 . S
C1285 N1283 1.356 . S
N1286 C1278 1.356 . S
N1286 H1292 0.984 . S
N1286 H1293 0.984 . S
N1287 C1280 1.356 1_566 S
N1287 H1290 0.984 . S
N1287 H1291 0.985 1_556 S
H1288 N1283 0.984 . S
H1289 N1283 0.985 1_565 S
H1290 N1287 0.984 . S
H1291 N1287 0.985 1_554 S
H1292 N1286 0.984 . S
H1293 N1286 0.984 . S
H1294 N1282 0.984 . S
H1295 N1282 0.985 . S
C1296 C1297 1.363 . S
C1296 C1302 1.379 . S
C1296 N1304 1.356 . S
C1297 C1296 1.363 . S
C1297 C1303 1.363 . S
C1298 C1299 1.363 . S
C1298 C1303 1.379 . S
C1298 N1305 1.356 . S
C1299 C1298 1.363 . S
C1299 C1302 1.363 . S
N1300 C1302 1.356 . S
N1300 H1312 0.984 1_545 S
N1300 H1313 0.985 . S
N1301 C1303 1.356 . S
N1301 H1306 0.984 . S
N1301 H1307 0.985 . S
C1302 C1296 1.379 . S
C1302 C1299 1.363 . S
C1302 N1300 1.356 . S
C1303 C1297 1.363 . S
C1303 C1298 1.379 . S
C1303 N1301 1.356 . S
N1304 C1296 1.356 . S
N1304 H1310 0.984 . S
N1304 H1311 0.984 . S
N1305 C1298 1.356 . S
N1305 H1308 0.984 . S
N1305 H1309 0.985 . S
H1306 N1301 0.984 . S
H1307 N1301 0.985 . S
H1308 N1305 0.984 . S
H1309 N1305 0.985 . S
H1310 N1304 0.984 . S
H1311 N1304 0.984 . S
H1312 N1300 0.984 1_565 S
H1313 N1300 0.985 . S
C1314 C1315 1.363 . S
C1314 C1320 1.379 1_554 S
C1314 N1322 1.356 . S
C1315 C1314 1.363 . S
C1315 C1321 1.344 1_554 S
C1316 C1317 1.363 . S
C1316 C1321 1.408 . S
C1316 N1323 1.356 . S
C1317 C1316 1.363 . S
C1317 C1320 1.363 . S
N1318 C1320 1.356 . S
N1318 H1330 0.984 . S
N1318 H1331 0.985 . S
N1319 C1321 1.338 1_554 S
N1319 H1324 0.984 . S
N1319 H1325 0.985 . S
C1320 C1314 1.379 1_556 S
C1320 C1317 1.363 . S
C1320 N1318 1.356 . S
C1321 C1315 1.344 1_556 S
C1321 C1316 1.408 . S
C1321 N1319 1.338 1_556 S
N1322 C1314 1.356 . S
N1322 H1328 0.984 . S
N1322 H1329 0.984 . S
N1323 C1316 1.356 . S
N1323 H1326 0.984 . S
N1323 H1327 0.985 . S
H1324 N1319 0.984 . S
H1325 N1319 0.985 . S
H1326 N1323 0.984 . S
H1327 N1323 0.985 . S
H1328 N1322 0.984 . S
H1329 N1322 0.984 . S
H1330 N1318 0.984 . S
H1331 N1318 0.985 . S
C1332 C1333 1.363 . S
C1332 C1338 1.379 . S
C1332 N1340 1.356 . S
C1333 C1332 1.363 . S
C1333 C1339 1.363 . S
C1334 C1335 1.363 . S
C1334 C1339 1.379 . S
C1334 N1341 1.356 . S
C1335 C1334 1.363 . S
C1335 C1338 1.363 . S
N1336 C1338 1.356 . S
N1336 H1348 0.984 . S
N1336 H1349 0.985 . S
N1337 C1339 1.356 . S
N1337 H1342 0.984 . S
N1337 H1343 0.985 . S
C1338 C1332 1.379 . S
C1338 C1335 1.363 . S
C1338 N1336 1.356 . S
C1339 C1333 1.363 . S
C1339 C1334 1.379 . S
C1339 N1337 1.356 . S
N1340 C1332 1.356 . S
N1340 H1346 0.984 . S
N1340 H1347 0.984 . S
N1341 C1334 1.356 . S
N1341 H1344 0.984 . S
N1341 H1345 0.985 . S
H1342 N1337 0.984 . S
H1343 N1337 0.985 . S
H1344 N1341 0.984 . S
H1345 N1341 0.985 . S
H1346 N1340 0.984 . S
H1347 N1340 0.984 . S
H1348 N1336 0.984 . S
H1349 N1336 0.985 . S
C1350 C1351 1.363 . S
C1350 C1356 1.379 . S
C1350 N1358 1.356 . S
C1351 C1350 1.363 . S
C1351 C1357 1.363 . S
C1352 C1353 1.363 . S
C1352 C1357 1.379 . S
C1352 N1359 1.356 . S
C1353 C1352 1.363 . S
C1353 C1356 1.363 . S
N1354 C1356 1.356 . S
N1354 H1366 0.984 . S
N1354 H1367 0.985 . S
N1355 C1357 1.356 . S
N1355 H1360 0.984 . S
N1355 H1361 0.985 . S
C1356 C1350 1.379 . S
C1356 C1353 1.363 . S
C1356 N1354 1.356 . S
C1357 C1351 1.363 . S
C1357 C1352 1.379 . S
C1357 N1355 1.356 . S
N1358 C1350 1.356 . S
N1358 H1364 0.984 . S
N1358 H1365 0.984 . S
N1359 C1352 1.356 . S
N1359 H1362 0.984 . S
N1359 H1363 0.985 . S
H1360 N1355 0.984 . S
H1361 N1355 0.985 . S
H1362 N1359 0.984 . S
H1363 N1359 0.985 . S
H1364 N1358 0.984 . S
H1365 N1358 0.984 . S
H1366 N1354 0.984 . S
H1367 N1354 0.985 . S
C1368 C1369 1.363 . S
C1368 C1374 1.379 . S
C1368 N1376 1.356 . S
C1369 C1368 1.363 . S
C1369 C1375 1.363 . S
C1370 C1371 1.363 . S
C1370 C1375 1.379 . S
C1370 N1377 1.356 . S
C1371 C1370 1.363 . S
C1371 C1374 1.363 . S
N1372 C1374 1.356 . S
N1372 H1384 0.984 . S
N1372 H1385 0.985 . S
N1373 C1375 1.356 . S
N1373 H1378 0.984 . S
N1373 H1379 0.985 . S
C1374 C1368 1.379 . S
C1374 C1371 1.363 . S
C1374 N1372 1.356 . S
C1375 C1369 1.363 . S
C1375 C1370 1.379 . S
C1375 N1373 1.356 . S
N1376 C1368 1.356 . S
N1376 H1382 0.984 . S
N1376 H1383 0.984 . S
N1377 C1370 1.356 . S
N1377 H1380 0.984 . S
N1377 H1381 0.985 . S
H1378 N1373 0.984 . S
H1379 N1373 0.985 . S
H1380 N1377 0.984 . S
H1381 N1377 0.985 . S
H1382 N1376 0.984 . S
H1383 N1376 0.984 . S
H1384 N1372 0.984 . S
H1385 N1372 0.985 . S
C1386 C1387 1.363 . S
C1386 C1392 1.379 1_545 S
C1386 N1394 1.356 . S
C1387 C1386 1.363 . S
C1387 C1393 1.363 . S
C1388 C1389 1.363 . S
C1388 C1393 1.379 1_565 S
C1388 N1395 1.356 . S
C1389 C1388 1.363 . S
C1389 C1392 1.363 . S
N1390 C1392 1.356 1_655 S
N1390 H1402 0.984 . S
N1390 H1403 0.985 . S
N1391 C1393 1.356 . S
N1391 H1396 0.984 . S
N1391 H1397 0.985 . S
C1392 C1386 1.379 1_565 S
C1392 C1389 1.363 . S
C1392 N1390 1.356 1_455 S
C1393 C1387 1.363 . S
C1393 C1388 1.379 1_545 S
C1393 N1391 1.356 . S
N1394 C1386 1.356 . S
N1394 H1400 0.984 1_455 S
N1394 H1401 0.984 . S
N1395 C1388 1.356 . S
N1395 H1398 0.984 . S
N1395 H1399 0.985 . S
H1396 N1391 0.984 . S
H1397 N1391 0.985 . S
H1398 N1395 0.984 . S
H1399 N1395 0.985 . S
H1400 N1394 0.984 1_655 S
H1401 N1394 0.984 . S
H1402 N1390 0.984 . S
H1403 N1390 0.985 . S
C1404 C1405 1.363 . S
C1404 C1410 1.379 . S
C1404 N1412 1.356 . S
C1405 C1404 1.363 . S
C1405 C1411 1.363 . S
C1406 C1407 1.363 . S
C1406 C1411 1.379 . S
C1406 N1413 1.356 . S
C1407 C1406 1.363 . S
C1407 C1410 1.363 . S
N1408 C1410 1.356 . S
N1408 H1420 0.984 . S
N1408 H1421 0.985 . S
N1409 C1411 1.356 . S
N1409 H1414 0.984 . S
N1409 H1415 0.985 . S
C1410 C1404 1.379 . S
C1410 C1407 1.363 . S
C1410 N1408 1.356 . S
C1411 C1405 1.363 . S
C1411 C1406 1.379 . S
C1411 N1409 1.356 . S
N1412 C1404 1.356 . S
N1412 H1418 0.984 . S
N1412 H1419 0.984 . S
N1413 C1406 1.356 . S
N1413 H1416 0.984 . S
N1413 H1417 0.985 . S
H1414 N1409 0.984 . S
H1415 N1409 0.985 . S
H1416 N1413 0.984 . S
H1417 N1413 0.985 . S
H1418 N1412 0.984 . S
H1419 N1412 0.984 . S
H1420 N1408 0.984 . S
H1421 N1408 0.985 . S
C1422 C1423 1.363 1_565 S
C1422 C1428 1.379 . S
C1422 N1430 1.356 1_565 S
C1423 C1422 1.363 1_545 S
C1423 C1429 1.363 . S
C1424 C1425 1.363 . S
C1424 C1429 1.379 1_565 S
C1424 N1431 1.356 . S
C1425 C1424 1.363 . S
C1425 C1428 1.363 . S
N1426 C1428 1.356 . S
N1426 H1438 0.984 . S
N1426 H1439 0.985 . S
N1427 C1429 1.356 . S
N1427 H1432 0.984 . S
N1427 H1433 0.985 . S
C1428 C1422 1.379 . S
C1428 C1425 1.363 . S
C1428 N1426 1.356 . S
C1429 C1423 1.363 . S
C1429 C1424 1.379 1_545 S
C1429 N1427 1.356 . S
N1430 C1422 1.356 1_545 S
N1430 H1436 0.984 . S
N1430 H1437 0.984 . S
N1431 C1424 1.356 . S
N1431 H1434 0.984 . S
N1431 H1435 0.985 . S
H1432 N1427 0.984 . S
H1433 N1427 0.985 . S
H1434 N1431 0.984 . S
H1435 N1431 0.985 . S
H1436 N1430 0.984 . S
H1437 N1430 0.984 . S
H1438 N1426 0.984 . S
H1439 N1426 0.985 . S
C1440 C1441 1.363 . S
C1440 C1446 1.379 . S
C1440 N1448 1.356 . S
C1441 C1440 1.363 . S
C1441 C1447 1.363 . S
C1442 C1443 1.363 . S
C1442 C1447 1.379 . S
C1442 N1449 1.356 . S
C1443 C1442 1.363 . S
C1443 C1446 1.363 . S
N1444 C1446 1.356 . S
N1444 H1456 0.984 . S
N1444 H1457 0.985 . S
N1445 C1447 1.356 . S
N1445 H1450 0.984 . S
N1445 H1451 0.985 . S
C1446 C1440 1.379 . S
C1446 C1443 1.363 . S
C1446 N1444 1.356 . S
C1447 C1441 1.363 . S
C1447 C1442 1.379 . S
C1447 N1445 1.356 . S
N1448 C1440 1.356 . S
N1448 H1454 0.984 . S
N1448 H1455 0.984 . S
N1449 C1442 1.356 . S
N1449 H1452 0.984 . S
N1449 H1453 0.985 . S
H1450 N1445 0.984 . S
H1451 N1445 0.985 . S
H1452 N1449 0.984 . S
H1453 N1449 0.985 . S
H1454 N1448 0.984 . S
H1455 N1448 0.984 . S
H1456 N1444 0.984 . S
H1457 N1444 0.985 . S
C1458 C1459 1.363 . S
C1458 C1464 1.379 . S
C1458 N1466 1.356 . S
C1459 C1458 1.363 . S
C1459 C1465 1.363 . S
C1460 C1461 1.363 . S
C1460 C1465 1.379 . S
C1460 N1467 1.356 . S
C1461 C1460 1.363 . S
C1461 C1464 1.363 . S
N1462 C1464 1.356 . S
N1462 H1474 0.984 . S
N1462 H1475 0.985 . S
N1463 C1465 1.356 1_455 S
N1463 H1468 0.984 . S
N1463 H1469 0.985 . S
C1464 C1458 1.379 . S
C1464 C1461 1.363 . S
C1464 N1462 1.356 . S
C1465 C1459 1.363 . S
C1465 C1460 1.379 . S
C1465 N1463 1.356 1_655 S
N1466 C1458 1.356 . S
N1466 H1472 0.984 . S
N1466 H1473 0.984 . S
N1467 C1460 1.356 . S
N1467 H1470 0.984 . S
N1467 H1471 0.978 1_655 S
H1468 N1463 0.984 . S
H1469 N1463 0.985 . S
H1470 N1467 0.984 . S
H1471 N1467 0.978 1_455 S
H1472 N1466 0.984 . S
H1473 N1466 0.984 . S
H1474 N1462 0.984 . S
H1475 N1462 0.985 . S
C1476 C1477 1.363 . S
C1476 C1482 1.379 . S
C1476 N1484 1.356 . S
C1477 C1476 1.363 . S
C1477 C1483 1.363 . S
C1478 C1479 1.363 . S
C1478 C1483 1.379 . S
C1478 N1485 1.356 . S
C1479 C1478 1.363 . S
C1479 C1482 1.363 . S
N1480 C1482 1.356 . S
N1480 H1492 0.984 . S
N1480 H1493 0.985 . S
N1481 C1483 1.356 . S
N1481 H1486 0.984 . S
N1481 H1487 0.985 1_554 S
C1482 C1476 1.379 . S
C1482 C1479 1.363 . S
C1482 N1480 1.356 . S
C1483 C1477 1.363 . S
C1483 C1478 1.379 . S
C1483 N1481 1.356 . S
N1484 C1476 1.356 . S
N1484 H1490 0.984 . S
N1484 H1491 0.984 . S
N1485 C1478 1.356 . S
N1485 H1488 0.984 . S
N1485 H1489 0.985 1_554 S
H1486 N1481 0.984 . S
H1487 N1481 0.985 1_556 S
H1488 N1485 0.984 . S
H1489 N1485 0.985 1_556 S
H1490 N1484 0.984 . S
H1491 N1484 0.984 . S
H1492 N1480 0.984 . S
H1493 N1480 0.985 . S
C1494 C1495 1.363 . S
C1494 C1500 1.379 . S
C1494 N1502 1.356 . S
C1495 C1494 1.363 . S
C1495 C1501 1.363 . S
C1496 C1497 1.363 . S
C1496 C1501 1.379 . S
C1496 N1503 1.356 . S
C1497 C1496 1.363 . S
C1497 C1500 1.363 . S
N1498 C1500 1.356 . S
N1498 H1510 0.984 . S
N1498 H1511 0.985 . S
N1499 C1501 1.356 . S
N1499 H1504 0.984 . S
N1499 H1505 0.985 . S
C1500 C1494 1.379 . S
C1500 C1497 1.363 . S
C1500 N1498 1.356 . S
C1501 C1495 1.363 . S
C1501 C1496 1.379 . S
C1501 N1499 1.356 . S
N1502 C1494 1.356 . S
N1502 H1508 0.984 . S
N1502 H1509 0.984 . S
N1503 C1496 1.356 . S
N1503 H1506 0.984 . S
N1503 H1507 0.985 . S
H1504 N1499 0.984 . S
H1505 N1499 0.985 . S
H1506 N1503 0.984 . S
H1507 N1503 0.985 . S
H1508 N1502 0.984 . S
H1509 N1502 0.984 . S
H1510 N1498 0.984 . S
H1511 N1498 0.985 . S
C1512 C1513 1.363 . S
C1512 C1518 1.379 . S
C1512 N1520 1.356 . S
C1513 C1512 1.363 . S
C1513 C1519 1.363 . S
C1514 C1515 1.363 . S
C1514 C1519 1.379 . S
C1514 N1521 1.356 . S
C1515 C1514 1.363 . S
C1515 C1518 1.363 . S
N1516 C1518 1.356 . S
N1516 H1528 0.984 . S
N1516 H1529 0.985 . S
N1517 C1519 1.356 . S
N1517 H1522 0.984 . S
N1517 H1523 0.985 . S
C1518 C1512 1.379 . S
C1518 C1515 1.363 . S
C1518 N1516 1.356 . S
C1519 C1513 1.363 . S
C1519 C1514 1.379 . S
C1519 N1517 1.356 . S
N1520 C1512 1.356 . S
N1520 H1526 0.984 . S
N1520 H1527 0.984 . S
N1521 C1514 1.356 . S
N1521 H1524 0.984 . S
N1521 H1525 0.985 . S
H1522 N1517 0.984 . S
H1523 N1517 0.985 . S
H1524 N1521 0.984 . S
H1525 N1521 0.985 . S
H1526 N1520 0.984 . S
H1527 N1520 0.984 . S
H1528 N1516 0.984 . S
H1529 N1516 0.985 . S
C1530 C1531 1.363 . S
C1530 C1536 1.379 . S
C1530 N1538 1.356 . S
C1531 C1530 1.363 . S
C1531 C1537 1.363 . S
C1532 C1533 1.363 . S
C1532 C1537 1.379 . S
C1532 N1539 1.356 . S
C1533 C1532 1.363 . S
C1533 C1536 1.363 . S
N1534 C1536 1.356 . S
N1534 H1546 0.984 . S
N1534 H1547 0.985 . S
N1535 C1537 1.356 . S
N1535 H1540 0.984 . S
N1535 H1541 0.985 . S
C1536 C1530 1.379 . S
C1536 C1533 1.363 . S
C1536 N1534 1.356 . S
C1537 C1531 1.363 . S
C1537 C1532 1.379 . S
C1537 N1535 1.356 . S
N1538 C1530 1.356 . S
N1538 H1544 0.984 . S
N1538 H1545 0.984 . S
N1539 C1532 1.356 . S
N1539 H1542 0.984 . S
N1539 H1543 0.985 . S
H1540 N1535 0.984 . S
H1541 N1535 0.985 . S
H1542 N1539 0.984 . S
H1543 N1539 0.985 . S
H1544 N1538 0.984 . S
H1545 N1538 0.984 . S
H1546 N1534 0.984 . S
H1547 N1534 0.985 . S
C1548 C1549 1.363 . S
C1548 C1554 1.379 . S
C1548 N1556 1.356 1_554 S
C1549 C1548 1.363 . S
C1549 C1555 1.363 . S
C1550 C1551 1.363 . S
C1550 C1555 1.379 1_655 S
C1550 N1557 1.356 . S
C1551 C1550 1.363 . S
C1551 C1554 1.363 1_655 S
N1552 C1554 1.356 1_656 S
N1552 H1564 0.984 . S
N1552 H1565 0.985 . S
N1553 C1555 1.356 . S
N1553 H1558 0.984 . S
N1553 H1559 0.985 . S
C1554 C1548 1.379 . S
C1554 C1551 1.363 1_455 S
C1554 N1552 1.356 1_454 S
C1555 C1549 1.363 . S
C1555 C1550 1.379 1_455 S
C1555 N1553 1.356 . S
N1556 C1548 1.356 1_556 S
N1556 H1562 0.985 . S
N1556 H1563 0.984 1_556 S
N1557 C1550 1.356 . S
N1557 H1560 0.984 . S
N1557 H1561 0.985 . S
H1558 N1553 0.984 . S
H1559 N1553 0.985 . S
H1560 N1557 0.984 . S
H1561 N1557 0.985 . S
H1562 N1556 0.985 . S
H1563 N1556 0.984 1_554 S
H1564 N1552 0.984 . S
H1565 N1552 0.985 . S
C1566 C1567 1.363 . S
C1566 C1572 1.379 . S
C1566 N1574 1.356 . S
C1567 C1566 1.363 . S
C1567 C1573 1.363 . S
C1568 C1569 1.363 . S
C1568 C1573 1.379 . S
C1568 N1575 1.356 . S
C1569 C1568 1.363 . S
C1569 C1572 1.363 . S
N1570 C1572 1.356 . S
N1570 H1582 0.984 . S
N1570 H1583 0.985 . S
N1571 C1573 1.356 . S
N1571 H1576 0.984 . S
N1571 H1577 0.985 . S
C1572 C1566 1.379 . S
C1572 C1569 1.363 . S
C1572 N1570 1.356 . S
C1573 C1567 1.363 . S
C1573 C1568 1.379 . S
C1573 N1571 1.356 . S
N1574 C1566 1.356 . S
N1574 H1580 0.984 . S
N1574 H1581 0.984 . S
N1575 C1568 1.356 . S
N1575 H1578 0.984 . S
N1575 H1579 0.985 . S
H1576 N1571 0.984 . S
H1577 N1571 0.985 . S
H1578 N1575 0.984 . S
H1579 N1575 0.985 . S
H1580 N1574 0.984 . S
H1581 N1574 0.984 . S
H1582 N1570 0.984 . S
H1583 N1570 0.985 . S
C1584 C1585 1.363 . S
C1584 C1590 1.379 . S
C1584 N1592 1.356 . S
C1585 C1584 1.363 . S
C1585 C1591 1.363 . S
C1586 C1587 1.363 . S
C1586 C1591 1.379 . S
C1586 N1593 1.356 . S
C1587 C1586 1.363 . S
C1587 C1590 1.363 . S
N1588 C1590 1.356 . S
N1588 H1600 0.984 . S
N1588 H1601 0.985 . S
N1589 C1591 1.356 . S
N1589 H1594 0.984 . S
N1589 H1595 0.985 . S
C1590 C1584 1.379 . S
C1590 C1587 1.363 . S
C1590 N1588 1.356 . S
C1591 C1585 1.363 . S
C1591 C1586 1.379 . S
C1591 N1589 1.356 . S
N1592 C1584 1.356 . S
N1592 H1598 0.984 . S
N1592 H1599 0.984 . S
N1593 C1586 1.356 . S
N1593 H1596 0.984 . S
N1593 H1597 0.985 . S
H1594 N1589 0.984 . S
H1595 N1589 0.985 . S
H1596 N1593 0.984 . S
H1597 N1593 0.985 . S
H1598 N1592 0.984 . S
H1599 N1592 0.984 . S
H1600 N1588 0.984 . S
H1601 N1588 0.985 . S
C1602 C1603 1.363 . S
C1602 C1608 1.379 . S
C1602 N1610 1.356 . S
C1603 C1602 1.363 . S
C1603 C1609 1.363 . S
C1604 C1605 1.363 . S
C1604 C1609 1.379 . S
C1604 N1611 1.356 . S
C1605 C1604 1.363 . S
C1605 C1608 1.363 . S
N1606 C1608 1.356 . S
N1606 H1618 0.984 . S
N1606 H1619 0.985 . S
N1607 C1609 1.356 . S
N1607 H1612 0.984 . S
N1607 H1613 0.985 . S
C1608 C1602 1.379 . S
C1608 C1605 1.363 . S
C1608 N1606 1.356 . S
C1609 C1603 1.363 . S
C1609 C1604 1.379 . S
C1609 N1607 1.356 . S
N1610 C1602 1.356 . S
N1610 H1616 0.984 . S
N1610 H1617 0.984 . S
N1611 C1604 1.356 . S
N1611 H1614 0.984 . S
N1611 H1615 0.985 . S
H1612 N1607 0.984 . S
H1613 N1607 0.985 . S
H1614 N1611 0.984 . S
H1615 N1611 0.985 . S
H1616 N1610 0.984 . S
H1617 N1610 0.984 . S
H1618 N1606 0.984 . S
H1619 N1606 0.985 . S
C1620 C1621 1.363 . S
C1620 C1626 1.379 . S
C1620 N1628 1.356 . S
C1621 C1620 1.363 . S
C1621 C1627 1.363 . S
C1622 C1623 1.363 . S
C1622 C1627 1.379 . S
C1622 N1629 1.356 . S
C1623 C1622 1.363 . S
C1623 C1626 1.363 . S
N1624 C1626 1.356 . S
N1624 H1636 0.984 . S
N1624 H1637 0.985 . S
N1625 C1627 1.356 . S
N1625 H1630 0.984 . S
N1625 H1631 0.985 . S
C1626 C1620 1.379 . S
C1626 C1623 1.363 . S
C1626 N1624 1.356 . S
C1627 C1621 1.363 . S
C1627 C1622 1.379 . S
C1627 N1625 1.356 . S
N1628 C1620 1.356 . S
N1628 H1634 0.984 . S
N1628 H1635 0.984 . S
N1629 C1622 1.356 . S
N1629 H1632 0.984 . S
N1629 H1633 0.985 . S
H1630 N1625 0.984 . S
H1631 N1625 0.985 . S
H1632 N1629 0.984 . S
H1633 N1629 0.985 . S
H1634 N1628 0.984 . S
H1635 N1628 0.984 . S
H1636 N1624 0.984 . S
H1637 N1624 0.985 . S
C1638 C1639 1.363 . S
C1638 C1644 1.405 . S
C1638 N1646 1.356 . S
C1639 C1638 1.363 . S
C1639 C1645 1.363 . S
C1640 C1641 1.363 . S
C1640 C1645 1.379 1_455 S
C1640 N1647 1.356 . S
C1641 C1640 1.363 . S
C1641 C1644 1.345 1_455 S
N1642 C1644 1.341 1_455 S
N1642 H1654 0.984 . S
N1642 H1655 0.985 . S
N1643 C1645 1.356 . S
N1643 H1648 0.984 . S
N1643 H1649 0.985 . S
C1644 C1638 1.405 . S
C1644 C1641 1.345 1_655 S
C1644 N1642 1.341 1_655 S
C1645 C1639 1.363 . S
C1645 C1640 1.379 1_655 S
C1645 N1643 1.356 . S
N1646 C1638 1.356 . S
N1646 H1652 0.984 . S
N1646 H1653 0.984 . S
N1647 C1640 1.356 . S
N1647 H1650 0.984 . S
N1647 H1651 0.985 . S
H1648 N1643 0.984 . S
H1649 N1643 0.985 . S
H1650 N1647 0.984 . S
H1651 N1647 0.985 . S
H1652 N1646 0.984 . S
H1653 N1646 0.984 . S
H1654 N1642 0.984 . S
H1655 N1642 0.985 . S
C1009 C56 1.611 . S
C1011 C990 1.700 . S
C1027 C822 1.655 . S
C1029 C150 1.677 . S
C1045 C234 1.613 . S
C1047 C738 1.604 . S
C1063 C318 1.641 . S
C1065 C906 1.635 . S
C1081 C402 1.755 . S
C1083 C896 1.656 . S
C1099 C476 1.698 . S
C1101 C980 1.704 . S
C1117 C812 1.633 . S
C1119 C570 1.721 . S
C1135 C654 1.691 . S
C1137 C728 1.601 . S
C1153 C308 1.696 . S
C1155 C392 1.696 . S
C1171 C66 1.647 . S
C1173 C486 1.660 . S
C1189 C140 1.691 . S
C1191 C560 1.704 . S
C1207 C644 1.700 . S
C1209 C224 1.694 . S
C1225 C63 1.739 . S
C1227 C747 1.846 . S
C1243 C156 1.457 . S
C1245 C915 1.689 . S
C1261 C999 1.741 . S
C1263 C240 1.494 . S
C1279 C324 1.515 . S
C1281 C831 1.771 . S
C1297 C408 1.512 . S
C1299 C823 1.784 . S
C1315 C739 1.947 . S
C1317 C483 1.791 . S
C1333 C907 1.862 . S
C1335 C576 1.572 . S
C1351 C991 1.832 . S
C1353 C660 1.549 . S
C1369 C75 1.854 . S
C1371 C315 1.742 . S
C1387 C72 1.579 . S
C1389 C151 1.868 . S
C1405 C147 1.812 . S
C1407 C235 1.972 . S
C1423 C319 1.948 . S
C1425 C231 1.793 . S
C1441 C492 1.517 . S
C1443 C403 1.783 . S
C1459 C495 1.759 . S
C1461 C567 1.669 . S
C1477 C571 1.860 . S
C1479 C651 1.719 . S
C1495 C399 1.738 . S
C1497 C655 1.884 . S
C1513 C735 1.694 . S
C1515 C327 1.797 . S
C1531 C487 1.821 . S
C1533 C828 1.538 . S
C1549 C744 1.506 . S
C1551 C579 1.758 . S
C1567 C912 1.463 . S
C1569 C663 1.701 . S
C1585 C411 1.699 . S
C1587 C996 1.458 . S
C1603 C987 1.638 . S
C1605 C159 1.736 . S
C1621 C243 1.739 . S
C1623 C819 1.645 . S
C1639 C903 1.722 . S
C1641 C67 1.868 . S
