# Generated by pormake.
# Topology twf-e, (6)-cn, num edge types: 1
# Building blocks:
#     Node 0, Type 0, BuildingBlock: BETDEL_clean_sbu_0, # of connection points: 6
#     Node 1, Type 0, BuildingBlock: BETDEL_clean_sbu_0, # of connection points: 6
#     Node 2, Type 0, BuildingBlock: BETDEL_clean_sbu_0, # of connection points: 6
#     Node 3, Type 0, BuildingBlock: BETDEL_clean_sbu_0, # of connection points: 6
#     Node 4, Type 0, BuildingBlock: BETDEL_clean_sbu_0, # of connection points: 6
#     Node 5, Type 0, BuildingBlock: BETDEL_clean_sbu_0, # of connection points: 6
#     Node 6, Type 0, BuildingBlock: BETDEL_clean_sbu_0, # of connection points: 6
#     Node 7, Type 0, BuildingBlock: BETDEL_clean_sbu_0, # of connection points: 6
#     Node 8, Type 0, BuildingBlock: BETDEL_clean_sbu_0, # of connection points: 6
#     Node 9, Type 0, BuildingBlock: BETDEL_clean_sbu_0, # of connection points: 6
#     Node 10, Type 0, BuildingBlock: BETDEL_clean_sbu_0, # of connection points: 6
#     Node 11, Type 0, BuildingBlock: BETDEL_clean_sbu_0, # of connection points: 6
#     Node 12, Type 0, BuildingBlock: BETDEL_clean_sbu_0, # of connection points: 6
#     Node 13, Type 0, BuildingBlock: BETDEL_clean_sbu_0, # of connection points: 6
#     Node 14, Type 0, BuildingBlock: BETDEL_clean_sbu_0, # of connection points: 6
#     Node 15, Type 0, BuildingBlock: BETDEL_clean_sbu_0, # of connection points: 6
#     Node 16, Type 0, BuildingBlock: BETDEL_clean_sbu_0, # of connection points: 6
#     Node 17, Type 0, BuildingBlock: BETDEL_clean_sbu_0, # of connection points: 6
#     Node 18, Type 0, BuildingBlock: BETDEL_clean_sbu_0, # of connection points: 6
#     Node 19, Type 0, BuildingBlock: BETDEL_clean_sbu_0, # of connection points: 6
#     Node 20, Type 0, BuildingBlock: BETDEL_clean_sbu_0, # of connection points: 6
#     Node 21, Type 0, BuildingBlock: BETDEL_clean_sbu_0, # of connection points: 6
#     Node 22, Type 0, BuildingBlock: BETDEL_clean_sbu_0, # of connection points: 6
#     Node 23, Type 0, BuildingBlock: BETDEL_clean_sbu_0, # of connection points: 6
#     Node 24, Type 0, BuildingBlock: BETDEL_clean_sbu_0, # of connection points: 6
#     Node 25, Type 0, BuildingBlock: BETDEL_clean_sbu_0, # of connection points: 6
#     Node 26, Type 0, BuildingBlock: BETDEL_clean_sbu_0, # of connection points: 6
#     Node 27, Type 0, BuildingBlock: BETDEL_clean_sbu_0, # of connection points: 6
#     Node 28, Type 0, BuildingBlock: BETDEL_clean_sbu_0, # of connection points: 6
#     Node 29, Type 0, BuildingBlock: BETDEL_clean_sbu_0, # of connection points: 6
#     Node 30, Type 0, BuildingBlock: BETDEL_clean_sbu_0, # of connection points: 6
#     Node 31, Type 0, BuildingBlock: BETDEL_clean_sbu_0, # of connection points: 6
#     Node 32, Type 0, BuildingBlock: BETDEL_clean_sbu_0, # of connection points: 6
#     Node 33, Type 0, BuildingBlock: BETDEL_clean_sbu_0, # of connection points: 6
#     Node 34, Type 0, BuildingBlock: BETDEL_clean_sbu_0, # of connection points: 6
#     Node 35, Type 0, BuildingBlock: BETDEL_clean_sbu_0, # of connection points: 6
#     Node 36, Type 0, BuildingBlock: BETDEL_clean_sbu_0, # of connection points: 6
#     Node 37, Type 0, BuildingBlock: BETDEL_clean_sbu_0, # of connection points: 6
#     Node 38, Type 0, BuildingBlock: BETDEL_clean_sbu_0, # of connection points: 6
#     Node 39, Type 0, BuildingBlock: BETDEL_clean_sbu_0, # of connection points: 6
#     Node 40, Type 0, BuildingBlock: BETDEL_clean_sbu_0, # of connection points: 6
#     Node 41, Type 0, BuildingBlock: BETDEL_clean_sbu_0, # of connection points: 6
#     Node 42, Type 0, BuildingBlock: BETDEL_clean_sbu_0, # of connection points: 6
#     Node 43, Type 0, BuildingBlock: BETDEL_clean_sbu_0, # of connection points: 6
#     Node 44, Type 0, BuildingBlock: BETDEL_clean_sbu_0, # of connection points: 6
#     Node 45, Type 0, BuildingBlock: BETDEL_clean_sbu_0, # of connection points: 6
#     Node 46, Type 0, BuildingBlock: BETDEL_clean_sbu_0, # of connection points: 6
#     Node 47, Type 0, BuildingBlock: BETDEL_clean_sbu_0, # of connection points: 6
#     Edge 48, Type (0, 0), BuildingBlock: EZIPEK_clean_linker_0, # of connection points: 2
#     Edge 49, Type (0, 0), BuildingBlock: EZIPEK_clean_linker_0, # of connection points: 2
#     Edge 50, Type (0, 0), BuildingBlock: EZIPEK_clean_linker_0, # of connection points: 2
#     Edge 51, Type (0, 0), BuildingBlock: EZIPEK_clean_linker_0, # of connection points: 2
#     Edge 52, Type (0, 0), BuildingBlock: EZIPEK_clean_linker_0, # of connection points: 2
#     Edge 53, Type (0, 0), BuildingBlock: EZIPEK_clean_linker_0, # of connection points: 2
#     Edge 54, Type (0, 0), BuildingBlock: EZIPEK_clean_linker_0, # of connection points: 2
#     Edge 55, Type (0, 0), BuildingBlock: EZIPEK_clean_linker_0, # of connection points: 2
#     Edge 56, Type (0, 0), BuildingBlock: EZIPEK_clean_linker_0, # of connection points: 2
#     Edge 57, Type (0, 0), BuildingBlock: EZIPEK_clean_linker_0, # of connection points: 2
#     Edge 58, Type (0, 0), BuildingBlock: EZIPEK_clean_linker_0, # of connection points: 2
#     Edge 59, Type (0, 0), BuildingBlock: EZIPEK_clean_linker_0, # of connection points: 2
#     Edge 60, Type (0, 0), BuildingBlock: EZIPEK_clean_linker_0, # of connection points: 2
#     Edge 61, Type (0, 0), BuildingBlock: EZIPEK_clean_linker_0, # of connection points: 2
#     Edge 62, Type (0, 0), BuildingBlock: EZIPEK_clean_linker_0, # of connection points: 2
#     Edge 63, Type (0, 0), BuildingBlock: EZIPEK_clean_linker_0, # of connection points: 2
#     Edge 64, Type (0, 0), BuildingBlock: EZIPEK_clean_linker_0, # of connection points: 2
#     Edge 65, Type (0, 0), BuildingBlock: EZIPEK_clean_linker_0, # of connection points: 2
#     Edge 66, Type (0, 0), BuildingBlock: EZIPEK_clean_linker_0, # of connection points: 2
#     Edge 67, Type (0, 0), BuildingBlock: EZIPEK_clean_linker_0, # of connection points: 2
#     Edge 68, Type (0, 0), BuildingBlock: EZIPEK_clean_linker_0, # of connection points: 2
#     Edge 69, Type (0, 0), BuildingBlock: EZIPEK_clean_linker_0, # of connection points: 2
#     Edge 70, Type (0, 0), BuildingBlock: EZIPEK_clean_linker_0, # of connection points: 2
#     Edge 71, Type (0, 0), BuildingBlock: EZIPEK_clean_linker_0, # of connection points: 2
#     Edge 72, Type (0, 0), BuildingBlock: EZIPEK_clean_linker_0, # of connection points: 2
#     Edge 73, Type (0, 0), BuildingBlock: EZIPEK_clean_linker_0, # of connection points: 2
#     Edge 74, Type (0, 0), BuildingBlock: EZIPEK_clean_linker_0, # of connection points: 2
#     Edge 75, Type (0, 0), BuildingBlock: EZIPEK_clean_linker_0, # of connection points: 2
#     Edge 76, Type (0, 0), BuildingBlock: EZIPEK_clean_linker_0, # of connection points: 2
#     Edge 77, Type (0, 0), BuildingBlock: EZIPEK_clean_linker_0, # of connection points: 2
#     Edge 78, Type (0, 0), BuildingBlock: EZIPEK_clean_linker_0, # of connection points: 2
#     Edge 79, Type (0, 0), BuildingBlock: EZIPEK_clean_linker_0, # of connection points: 2
#     Edge 80, Type (0, 0), BuildingBlock: EZIPEK_clean_linker_0, # of connection points: 2
#     Edge 81, Type (0, 0), BuildingBlock: EZIPEK_clean_linker_0, # of connection points: 2
#     Edge 82, Type (0, 0), BuildingBlock: EZIPEK_clean_linker_0, # of connection points: 2
#     Edge 83, Type (0, 0), BuildingBlock: EZIPEK_clean_linker_0, # of connection points: 2
#     Edge 84, Type (0, 0), BuildingBlock: EZIPEK_clean_linker_0, # of connection points: 2
#     Edge 85, Type (0, 0), BuildingBlock: EZIPEK_clean_linker_0, # of connection points: 2
#     Edge 86, Type (0, 0), BuildingBlock: EZIPEK_clean_linker_0, # of connection points: 2
#     Edge 87, Type (0, 0), BuildingBlock: EZIPEK_clean_linker_0, # of connection points: 2
#     Edge 88, Type (0, 0), BuildingBlock: EZIPEK_clean_linker_0, # of connection points: 2
#     Edge 89, Type (0, 0), BuildingBlock: EZIPEK_clean_linker_0, # of connection points: 2
#     Edge 90, Type (0, 0), BuildingBlock: EZIPEK_clean_linker_0, # of connection points: 2
#     Edge 91, Type (0, 0), BuildingBlock: EZIPEK_clean_linker_0, # of connection points: 2
#     Edge 92, Type (0, 0), BuildingBlock: EZIPEK_clean_linker_0, # of connection points: 2
#     Edge 93, Type (0, 0), BuildingBlock: EZIPEK_clean_linker_0, # of connection points: 2
#     Edge 94, Type (0, 0), BuildingBlock: EZIPEK_clean_linker_0, # of connection points: 2
#     Edge 95, Type (0, 0), BuildingBlock: EZIPEK_clean_linker_0, # of connection points: 2
#     Edge 96, Type (0, 0), BuildingBlock: EZIPEK_clean_linker_0, # of connection points: 2
#     Edge 97, Type (0, 0), BuildingBlock: EZIPEK_clean_linker_0, # of connection points: 2
#     Edge 98, Type (0, 0), BuildingBlock: EZIPEK_clean_linker_0, # of connection points: 2
#     Edge 99, Type (0, 0), BuildingBlock: EZIPEK_clean_linker_0, # of connection points: 2
#     Edge 100, Type (0, 0), BuildingBlock: EZIPEK_clean_linker_0, # of connection points: 2
#     Edge 101, Type (0, 0), BuildingBlock: EZIPEK_clean_linker_0, # of connection points: 2
#     Edge 102, Type (0, 0), BuildingBlock: EZIPEK_clean_linker_0, # of connection points: 2
#     Edge 103, Type (0, 0), BuildingBlock: EZIPEK_clean_linker_0, # of connection points: 2
#     Edge 104, Type (0, 0), BuildingBlock: EZIPEK_clean_linker_0, # of connection points: 2
#     Edge 105, Type (0, 0), BuildingBlock: EZIPEK_clean_linker_0, # of connection points: 2
#     Edge 106, Type (0, 0), BuildingBlock: EZIPEK_clean_linker_0, # of connection points: 2
#     Edge 107, Type (0, 0), BuildingBlock: EZIPEK_clean_linker_0, # of connection points: 2
#     Edge 108, Type (0, 0), BuildingBlock: EZIPEK_clean_linker_0, # of connection points: 2
#     Edge 109, Type (0, 0), BuildingBlock: EZIPEK_clean_linker_0, # of connection points: 2
#     Edge 110, Type (0, 0), BuildingBlock: EZIPEK_clean_linker_0, # of connection points: 2
#     Edge 111, Type (0, 0), BuildingBlock: EZIPEK_clean_linker_0, # of connection points: 2
#     Edge 112, Type (0, 0), BuildingBlock: EZIPEK_clean_linker_0, # of connection points: 2
#     Edge 113, Type (0, 0), BuildingBlock: EZIPEK_clean_linker_0, # of connection points: 2
#     Edge 114, Type (0, 0), BuildingBlock: EZIPEK_clean_linker_0, # of connection points: 2
#     Edge 115, Type (0, 0), BuildingBlock: EZIPEK_clean_linker_0, # of connection points: 2
#     Edge 116, Type (0, 0), BuildingBlock: EZIPEK_clean_linker_0, # of connection points: 2
#     Edge 117, Type (0, 0), BuildingBlock: EZIPEK_clean_linker_0, # of connection points: 2
#     Edge 118, Type (0, 0), BuildingBlock: EZIPEK_clean_linker_0, # of connection points: 2
#     Edge 119, Type (0, 0), BuildingBlock: EZIPEK_clean_linker_0, # of connection points: 2
#     Edge 120, Type (0, 0), BuildingBlock: EZIPEK_clean_linker_0, # of connection points: 2
#     Edge 121, Type (0, 0), BuildingBlock: EZIPEK_clean_linker_0, # of connection points: 2
#     Edge 122, Type (0, 0), BuildingBlock: EZIPEK_clean_linker_0, # of connection points: 2
#     Edge 123, Type (0, 0), BuildingBlock: EZIPEK_clean_linker_0, # of connection points: 2
#     Edge 124, Type (0, 0), BuildingBlock: EZIPEK_clean_linker_0, # of connection points: 2
#     Edge 125, Type (0, 0), BuildingBlock: EZIPEK_clean_linker_0, # of connection points: 2
#     Edge 126, Type (0, 0), BuildingBlock: EZIPEK_clean_linker_0, # of connection points: 2
#     Edge 127, Type (0, 0), BuildingBlock: EZIPEK_clean_linker_0, # of connection points: 2
#     Edge 128, Type (0, 0), BuildingBlock: EZIPEK_clean_linker_0, # of connection points: 2
#     Edge 129, Type (0, 0), BuildingBlock: EZIPEK_clean_linker_0, # of connection points: 2
#     Edge 130, Type (0, 0), BuildingBlock: EZIPEK_clean_linker_0, # of connection points: 2
#     Edge 131, Type (0, 0), BuildingBlock: EZIPEK_clean_linker_0, # of connection points: 2
#     Edge 132, Type (0, 0), BuildingBlock: EZIPEK_clean_linker_0, # of connection points: 2
#     Edge 133, Type (0, 0), BuildingBlock: EZIPEK_clean_linker_0, # of connection points: 2
#     Edge 134, Type (0, 0), BuildingBlock: EZIPEK_clean_linker_0, # of connection points: 2
#     Edge 135, Type (0, 0), BuildingBlock: EZIPEK_clean_linker_0, # of connection points: 2
#     Edge 136, Type (0, 0), BuildingBlock: EZIPEK_clean_linker_0, # of connection points: 2
#     Edge 137, Type (0, 0), BuildingBlock: EZIPEK_clean_linker_0, # of connection points: 2
#     Edge 138, Type (0, 0), BuildingBlock: EZIPEK_clean_linker_0, # of connection points: 2
#     Edge 139, Type (0, 0), BuildingBlock: EZIPEK_clean_linker_0, # of connection points: 2
#     Edge 140, Type (0, 0), BuildingBlock: EZIPEK_clean_linker_0, # of connection points: 2
#     Edge 141, Type (0, 0), BuildingBlock: EZIPEK_clean_linker_0, # of connection points: 2
#     Edge 142, Type (0, 0), BuildingBlock: EZIPEK_clean_linker_0, # of connection points: 2
#     Edge 143, Type (0, 0), BuildingBlock: EZIPEK_clean_linker_0, # of connection points: 2
#     Edge 144, Type (0, 0), BuildingBlock: EZIPEK_clean_linker_0, # of connection points: 2
#     Edge 145, Type (0, 0), BuildingBlock: EZIPEK_clean_linker_0, # of connection points: 2
#     Edge 146, Type (0, 0), BuildingBlock: EZIPEK_clean_linker_0, # of connection points: 2
#     Edge 147, Type (0, 0), BuildingBlock: EZIPEK_clean_linker_0, # of connection points: 2
#     Edge 148, Type (0, 0), BuildingBlock: EZIPEK_clean_linker_0, # of connection points: 2
#     Edge 149, Type (0, 0), BuildingBlock: EZIPEK_clean_linker_0, # of connection points: 2
#     Edge 150, Type (0, 0), BuildingBlock: EZIPEK_clean_linker_0, # of connection points: 2
#     Edge 151, Type (0, 0), BuildingBlock: EZIPEK_clean_linker_0, # of connection points: 2
#     Edge 152, Type (0, 0), BuildingBlock: EZIPEK_clean_linker_0, # of connection points: 2
#     Edge 153, Type (0, 0), BuildingBlock: EZIPEK_clean_linker_0, # of connection points: 2
#     Edge 154, Type (0, 0), BuildingBlock: EZIPEK_clean_linker_0, # of connection points: 2
#     Edge 155, Type (0, 0), BuildingBlock: EZIPEK_clean_linker_0, # of connection points: 2
#     Edge 156, Type (0, 0), BuildingBlock: EZIPEK_clean_linker_0, # of connection points: 2
#     Edge 157, Type (0, 0), BuildingBlock: EZIPEK_clean_linker_0, # of connection points: 2
#     Edge 158, Type (0, 0), BuildingBlock: EZIPEK_clean_linker_0, # of connection points: 2
#     Edge 159, Type (0, 0), BuildingBlock: EZIPEK_clean_linker_0, # of connection points: 2
#     Edge 160, Type (0, 0), BuildingBlock: EZIPEK_clean_linker_0, # of connection points: 2
#     Edge 161, Type (0, 0), BuildingBlock: EZIPEK_clean_linker_0, # of connection points: 2
#     Edge 162, Type (0, 0), BuildingBlock: EZIPEK_clean_linker_0, # of connection points: 2
#     Edge 163, Type (0, 0), BuildingBlock: EZIPEK_clean_linker_0, # of connection points: 2
#     Edge 164, Type (0, 0), BuildingBlock: EZIPEK_clean_linker_0, # of connection points: 2
#     Edge 165, Type (0, 0), BuildingBlock: EZIPEK_clean_linker_0, # of connection points: 2
#     Edge 166, Type (0, 0), BuildingBlock: EZIPEK_clean_linker_0, # of connection points: 2
#     Edge 167, Type (0, 0), BuildingBlock: EZIPEK_clean_linker_0, # of connection points: 2
#     Edge 168, Type (0, 0), BuildingBlock: EZIPEK_clean_linker_0, # of connection points: 2
#     Edge 169, Type (0, 0), BuildingBlock: EZIPEK_clean_linker_0, # of connection points: 2
#     Edge 170, Type (0, 0), BuildingBlock: EZIPEK_clean_linker_0, # of connection points: 2
#     Edge 171, Type (0, 0), BuildingBlock: EZIPEK_clean_linker_0, # of connection points: 2
#     Edge 172, Type (0, 0), BuildingBlock: EZIPEK_clean_linker_0, # of connection points: 2
#     Edge 173, Type (0, 0), BuildingBlock: EZIPEK_clean_linker_0, # of connection points: 2
#     Edge 174, Type (0, 0), BuildingBlock: EZIPEK_clean_linker_0, # of connection points: 2
#     Edge 175, Type (0, 0), BuildingBlock: EZIPEK_clean_linker_0, # of connection points: 2
#     Edge 176, Type (0, 0), BuildingBlock: EZIPEK_clean_linker_0, # of connection points: 2
#     Edge 177, Type (0, 0), BuildingBlock: EZIPEK_clean_linker_0, # of connection points: 2
#     Edge 178, Type (0, 0), BuildingBlock: EZIPEK_clean_linker_0, # of connection points: 2
#     Edge 179, Type (0, 0), BuildingBlock: EZIPEK_clean_linker_0, # of connection points: 2
#     Edge 180, Type (0, 0), BuildingBlock: EZIPEK_clean_linker_0, # of connection points: 2
#     Edge 181, Type (0, 0), BuildingBlock: EZIPEK_clean_linker_0, # of connection points: 2
#     Edge 182, Type (0, 0), BuildingBlock: EZIPEK_clean_linker_0, # of connection points: 2
#     Edge 183, Type (0, 0), BuildingBlock: EZIPEK_clean_linker_0, # of connection points: 2
#     Edge 184, Type (0, 0), BuildingBlock: EZIPEK_clean_linker_0, # of connection points: 2
#     Edge 185, Type (0, 0), BuildingBlock: EZIPEK_clean_linker_0, # of connection points: 2
#     Edge 186, Type (0, 0), BuildingBlock: EZIPEK_clean_linker_0, # of connection points: 2
#     Edge 187, Type (0, 0), BuildingBlock: EZIPEK_clean_linker_0, # of connection points: 2
#     Edge 188, Type (0, 0), BuildingBlock: EZIPEK_clean_linker_0, # of connection points: 2
#     Edge 189, Type (0, 0), BuildingBlock: EZIPEK_clean_linker_0, # of connection points: 2
#     Edge 190, Type (0, 0), BuildingBlock: EZIPEK_clean_linker_0, # of connection points: 2
#     Edge 191, Type (0, 0), BuildingBlock: EZIPEK_clean_linker_0, # of connection points: 2
# Relax obj value: 0.677
# Max RMSD: 0.229
# Mean RMSD: 0.214
data_MOF--net-twf-e--node1-BETDEL_clean_sbu_0--edge1-EZIPEK_clean_linker_0
_symmetry_space_group_name_H-M    P1
_symmetry_Int_Tables_number       1
_symmetry_cell_setting            triclinic
loop_
_symmetry_equiv_pos_as_xyz
'x, y, z'
_cell_length_a     44.82256
_cell_length_b     44.967474
_cell_length_c     45.007171
_cell_angle_alpha  89.155541
_cell_angle_beta   89.894238
_cell_angle_gamma 90.545982
loop_
_atom_site_label
_atom_site_type_symbol
_atom_site_fract_x
_atom_site_fract_y
_atom_site_fract_z
_atom_type_partial_charge
Dy0 Dy 1.00931 0.20269 0.39991 0.0
C1 C 0.07488 0.29567 0.39566 0.0
C2 C 0.97467 0.15323 0.39437 0.0
Dy3 Dy 0.04205 0.24444 0.39777 0.0
O4 O 0.96814 0.17599 0.41016 0.0
O5 O 1.00018 0.1572 0.38131 0.0
O6 O 0.99143 0.21095 0.44637 0.0
O7 O 0.03685 0.21764 0.43989 0.0
C8 C 0.01599 0.21831 0.45947 0.0
C9 C 0.0311 0.23721 0.33865 0.0
O10 O 0.07939 0.21147 0.39991 0.0
O11 O 0.04764 0.17388 0.38989 0.0
O12 O 0.05052 0.29124 0.38135 0.0
O13 O 0.07957 0.27324 0.41328 0.0
O14 O 0.05708 0.23679 0.35088 0.0
O15 O 1.0122 0.23423 0.35985 0.0
O16 O 0.97538 0.23223 0.38249 0.0
O17 O 0.99861 0.26452 0.41197 0.0
C18 C 0.07481 0.18331 0.39417 0.0
C19 C 0.97428 0.25628 0.39776 0.0
Dy20 Dy 0.85492 1.00463 0.40199 0.0
C21 C 0.78339 0.09137 0.39685 0.0
C22 C 0.90088 0.96517 0.39694 0.0
Dy23 Dy 0.81835 0.0427 0.40122 0.0
O24 O 0.89971 0.99085 0.38365 0.0
O25 O 0.87725 0.96114 0.41307 0.0
O26 O 0.84574 0.99166 0.45048 0.0
O27 O 0.8475 0.03658 0.44087 0.0
C28 C 0.8439 0.01767 0.46225 0.0
C29 C 0.81737 0.02742 0.34235 0.0
O30 O 0.85944 0.07027 0.40842 0.0
O31 O 0.88559 0.038 0.38217 0.0
O32 O 0.80303 0.08333 0.37807 0.0
O33 O 0.78148 0.07212 0.41881 0.0
O34 O 0.82318 0.0535 0.35234 0.0
O35 O 0.82042 1.00971 0.36465 0.0
O36 O 0.82052 0.97415 0.38752 0.0
O37 O 0.79021 1.00212 0.41499 0.0
C38 C 0.88341 0.06428 0.39326 0.0
C39 C 0.79599 0.97625 0.40249 0.0
Dy40 Dy 0.05289 0.8441 0.40399 0.0
C41 C 0.96862 0.76809 0.40622 0.0
C42 C 0.09638 0.88649 0.39262 0.0
Dy43 Dy 1.01237 0.81098 0.40407 0.0
O44 O 0.09288 0.8715 0.41709 0.0
O45 O 0.07636 0.87785 0.3738 0.0
O46 O 0.06556 0.84042 0.45242 0.0
O47 O 0.02021 0.84137 0.44345 0.0
C48 C 0.03956 0.84071 0.46488 0.0
C49 C 0.03219 0.80494 0.34706 0.0
O50 O 0.98312 0.85003 0.41004 0.0
O51 O 0.01905 0.87728 0.38803 0.0
O52 O 0.99459 0.76654 0.41886 0.0
O53 O 0.96702 0.79358 0.39276 0.0
O54 O 1.00599 0.81364 0.35455 0.0
O55 O 0.04854 0.80713 0.37027 0.0
O56 O 0.08027 0.80373 0.40315 0.0
O57 O 0.04372 0.78308 0.4295 0.0
C58 C 0.9915 0.875 0.39743 0.0
C59 C 0.07232 0.78413 0.42337 0.0
Dy60 Dy 0.20527 0.04693 0.39942 0.0
C61 C 0.27752 0.98572 0.43807 0.0
C62 C 0.16189 0.08936 0.39621 0.0
Dy63 Dy 0.24119 0.01873 0.4032 0.0
O64 O 0.158 0.06166 0.38916 0.0
O65 O 0.18894 0.09357 0.40501 0.0
O66 O 0.22018 0.0673 0.44428 0.0
O67 O 0.21305 0.02287 0.44331 0.0
C68 C 0.21818 0.04381 0.46124 0.0
C69 C 0.25593 0.02281 0.34657 0.0
O70 O 0.21036 0.98079 0.39253 0.0
O71 O 0.17132 1.01122 0.39431 0.0
O72 O 0.2775 0.01448 0.43583 0.0
O73 O 0.26064 0.97559 0.41708 0.0
O74 O 0.2733 1.01325 0.36756 0.0
O75 O 0.22944 0.03031 0.35629 0.0
O76 O 0.23003 0.07661 0.36969 0.0
O77 O 0.26388 0.06393 0.40237 0.0
C78 C 0.18144 0.98432 0.39159 0.0
C79 C 0.25578 0.08206 0.38081 0.0
Dy80 Dy 0.03169 0.85 0.66565 0.0
C81 C 0.10439 0.82182 0.69756 0.0
C82 C 0.9968 0.89918 0.67021 0.0
Dy83 Dy 0.0529 0.82674 0.66709 0.0
O84 O 0.98853 0.8741 0.65889 0.0
O85 O 0.02433 0.89774 0.6792 0.0
O86 O 1.01419 0.85656 0.61799 0.0
O87 O 0.05259 0.83162 0.61964 0.0
C88 C 0.03378 0.84345 0.60175 0.0
C89 C 0.03746 0.7907 0.71139 0.0
O90 O 0.08597 0.86224 0.64924 0.0
O91 O 0.06087 0.88779 0.67975 0.0
O92 O 0.08352 0.84078 0.70386 0.0
O93 O 0.09712 0.8057 0.67423 0.0
O94 O 0.04992 0.78121 0.68672 0.0
O95 O 0.03142 0.8192 0.70916 0.0
O96 O 0.99117 0.83148 0.68534 0.0
O97 O 1.00952 0.80389 0.65126 0.0
C98 C 0.08451 0.88703 0.66369 0.0
C99 C 0.98623 0.81007 0.66773 0.0
Dy100 Dy 0.21598 0.02621 0.65878 0.0
C101 C 0.25227 0.12557 0.64528 0.0
C102 C 0.17671 0.97898 0.66443 0.0
Dy103 Dy 0.24004 0.06822 0.65915 0.0
O104 O 0.20109 0.97901 0.64896 0.0
O105 O 0.17426 1.00427 0.67745 0.0
O106 O 0.23268 0.01418 0.61211 0.0
O107 O 0.2159 0.05601 0.61747 0.0
C108 C 0.22492 0.03808 0.59769 0.0
C109 C 0.25996 0.05595 0.71392 0.0
O110 O 0.1987 0.08957 0.67568 0.0
O111 O 0.17264 0.0499 0.66179 0.0
O112 O 0.23499 0.11683 0.66658 0.0
O113 O 0.26413 0.10289 0.6324 0.0
O114 O 0.27442 0.07071 0.69344 0.0
O115 O 0.23454 0.0455 0.70353 0.0
O116 O 0.25517 1.00347 0.67669 0.0
O117 O 0.27976 0.03891 0.65164 0.0
C118 C 0.17292 0.07722 0.67078 0.0
C119 C 0.28065 0.01421 0.66766 0.0
Dy120 Dy 0.03937 0.20801 0.65352 0.0
C121 C 0.95996 0.28047 0.67336 0.0
C122 C 0.07987 0.16399 0.665 0.0
Dy123 Dy 1.00227 0.24021 0.65908 0.0
O124 O 0.07969 0.18117 0.64173 0.0
O125 O 0.05793 0.17079 0.68228 0.0
O126 O 0.05172 0.21157 0.6053 0.0
O127 O 1.00602 0.21512 0.61566 0.0
C128 C 0.02541 0.21553 0.59422 0.0
C129 C 0.02677 0.23837 0.7153 0.0
O130 O 0.9681 0.20521 0.65144 0.0
O131 O 1.00356 0.17358 0.6652 0.0
O132 O 0.9848 0.28677 0.65953 0.0
O133 O 0.95763 0.25205 0.67675 0.0
O134 O 1.00059 0.22909 0.70806 0.0
O135 O 0.04069 0.24132 0.69066 0.0
O136 O 0.06823 0.24808 0.64951 0.0
O137 O 0.02897 0.27067 0.63001 0.0
C138 C 0.97531 0.17829 0.65931 0.0
C139 C 0.05801 0.26956 0.63253 0.0
Dy140 Dy 0.82125 0.05385 0.65575 0.0
C141 C 0.90549 0.98736 0.66665 0.0
C142 C 0.78484 0.08742 0.62153 0.0
Dy143 Dy 0.85676 0.02317 0.65985 0.0
O144 O 0.78731 0.05875 0.62053 0.0
O145 O 0.79969 0.09663 0.64442 0.0
O146 O 0.78912 0.05964 0.69172 0.0
O147 O 0.83011 0.03669 0.70235 0.0
C148 C 0.80399 0.04549 0.71203 0.0
C149 C 0.84462 0.02581 0.59815 0.0
O150 O 0.82979 0.99047 0.68408 0.0
O151 O 0.79601 1.01043 0.65425 0.0
O152 O 0.87983 0.97901 0.65653 0.0
O153 O 0.90464 0.01521 0.67342 0.0
O154 O 0.84312 1.00225 0.61502 0.0
O155 O 0.84952 0.04715 0.6158 0.0
O156 O 0.85399 0.09155 0.66262 0.0
O157 O 0.89096 0.05878 0.66625 0.0
C158 C 0.80314 0.98936 0.67344 0.0
C159 C 0.8825 0.08638 0.66569 0.0
Dy160 Dy 0.39854 0.02074 0.20543 0.0
C161 C 0.38637 0.09556 0.27402 0.0
C162 C 0.39498 0.98449 0.15719 0.0
Dy163 Dy 0.39843 0.04586 0.24348 0.0
O164 O 0.40114 0.97583 0.18401 0.0
O165 O 0.39044 1.01286 0.15663 0.0
O166 O 0.44563 0.03388 0.18978 0.0
O167 O 0.44159 0.02449 0.23457 0.0
C168 C 0.46049 0.03055 0.21415 0.0
C169 C 0.34366 0.02658 0.25524 0.0
O170 O 0.41172 0.08102 0.20915 0.0
O171 O 0.37935 0.05888 0.18046 0.0
O172 O 0.37683 0.08935 0.24791 0.0
O173 O 0.40559 0.07551 0.28301 0.0
O174 O 0.36426 0.03047 0.27486 0.0
O175 O 0.35355 0.03126 0.22816 0.0
O176 O 0.38345 0.98028 0.22795 0.0
O177 O 0.40593 1.00191 0.26631 0.0
C178 C 0.39456 0.08272 0.18582 0.0
C179 C 0.39287 0.97821 0.25495 0.0
Dy180 Dy 0.03765 0.39422 0.20769 0.0
C181 C 0.94078 0.39568 0.26234 0.0
C182 C 0.08172 0.38596 0.16555 0.0
Dy183 Dy 0.99666 0.39314 0.23981 0.0
O184 O 0.05464 0.37581 0.16408 0.0
O185 O 0.08476 0.40034 0.19007 0.0
O186 O 0.05336 0.44118 0.21888 0.0
O187 O 1.00791 0.43479 0.21443 0.0
C188 C 0.02793 0.4546 0.21952 0.0
C189 C 0.01754 0.33985 0.25696 0.0
O190 O 0.96853 0.38588 0.19944 0.0
O191 O 1.00706 0.39348 0.16838 0.0
O192 O 0.96286 0.41294 0.27006 0.0
O193 O 0.94938 0.37737 0.24246 0.0
O194 O 1.00534 0.3591 0.27405 0.0
O195 O 0.01985 0.3503 0.22966 0.0
O196 O 0.06375 0.3815 0.24696 0.0
O197 O 0.03146 0.40942 0.27167 0.0
C198 C 0.97851 0.38898 0.17234 0.0
C199 C 0.05712 0.39536 0.27125 0.0
Dy200 Dy 0.65741 0.03715 0.21498 0.0
C201 C 0.67391 0.93819 0.25126 0.0
C202 C 0.66694 0.08601 0.17843 0.0
Dy203 Dy 0.65886 0.99587 0.24085 0.0
O204 O 0.65741 0.0868 0.20554 0.0
O205 O 0.67234 0.05876 0.17176 0.0
O206 O 0.60985 0.05233 0.21816 0.0
O207 O 0.61596 1.00636 0.21631 0.0
C208 C 0.59615 0.02697 0.21799 0.0
C209 C 0.70877 0.02008 0.26431 0.0
O210 O 0.65484 0.97034 0.19888 0.0
O211 O 0.66825 1.0111 0.17372 0.0
O212 O 0.68575 0.95548 0.23126 0.0
O213 O 0.65354 0.95286 0.26587 0.0
O214 O 0.68764 1.00671 0.27904 0.0
O215 O 0.70129 0.02335 0.23654 0.0
O216 O 0.65563 0.0569 0.25993 0.0
O217 O 0.62787 0.01776 0.27228 0.0
C218 C 0.66285 0.98251 0.17382 0.0
C219 C 0.63461 0.04573 0.27715 0.0
Dy220 Dy 0.01587 0.65296 0.20607 0.0
C221 C 0.09367 0.64316 0.25828 0.0
C222 C 0.9779 0.65682 0.15875 0.0
Dy223 Dy 0.03978 0.65327 0.23431 0.0
O224 O 0.97346 0.64084 0.18253 0.0
O225 O 1.00365 0.67019 0.16027 0.0
O226 O 0.99418 0.60695 0.21857 0.0
O227 O 0.03953 0.60856 0.21493 0.0
C228 C 0.01785 0.5905 0.21833 0.0
C229 C 0.02955 0.70104 0.26376 0.0
O230 O 0.06975 0.67879 0.20131 0.0
O231 O 0.04709 0.65413 0.16758 0.0
O232 O 0.07075 0.62548 0.26155 0.0
O233 O 0.08619 0.66677 0.24391 0.0
O234 O 0.0383 0.67626 0.27631 0.0
O235 O 0.02426 0.69762 0.23519 0.0
O236 O 0.97957 0.68062 0.2214 0.0
O237 O 0.99254 0.64873 0.25567 0.0
C238 C 0.0698 0.67043 0.17385 0.0
C239 C 0.97226 0.66759 0.2457 0.0
Dy240 Dy 0.39829 0.06117 0.85792 0.0
C241 C 0.3872 0.98468 0.77678 0.0
C242 C 0.38855 0.09508 0.90799 0.0
Dy243 Dy 0.39667 0.02479 0.82043 0.0
O244 O 0.41147 0.09694 0.89055 0.0
O245 O 0.37049 0.07505 0.89778 0.0
O246 O 0.44618 0.07538 0.85227 0.0
O247 O 0.43807 0.03022 0.84934 0.0
C248 C 0.45924 0.05017 0.84919 0.0
C249 C 0.33878 0.0447 0.82048 0.0
O250 O 0.40583 0.99126 0.85549 0.0
O251 O 0.38279 0.02232 0.88601 0.0
O252 O 0.40348 1.00862 0.77346 0.0
O253 O 0.38013 0.98139 0.80431 0.0
O254 O 0.34718 0.01801 0.82641 0.0
O255 O 0.36247 0.06068 0.82224 0.0
O256 O 0.39572 0.0947 0.82182 0.0
O257 O 0.41764 0.06045 0.79368 0.0
C258 C 0.39278 0.99572 0.8808 0.0
C259 C 0.41132 0.08856 0.79813 0.0
Dy260 Dy 0.02398 0.3855 0.8495 0.0
C261 C 0.09089 0.37368 0.76423 0.0
C262 C 0.98766 0.37886 0.89791 0.0
Dy263 Dy 0.05584 0.38414 0.81214 0.0
O264 O 0.98161 0.39411 0.87424 0.0
O265 O 1.01368 0.36682 0.89543 0.0
O266 O 1.00781 0.43294 0.84398 0.0
O267 O 0.05311 0.42679 0.8375 0.0
C268 C 0.03267 0.44671 0.8384 0.0
C269 C 0.04223 0.32497 0.81595 0.0
O270 O 0.09058 0.39636 0.84595 0.0
O271 O 0.06187 0.37176 0.87844 0.0
O272 O 0.09696 0.3667 0.79135 0.0
O273 O 0.06721 0.39025 0.7637 0.0
O274 O 0.0679 0.33661 0.82134 0.0
O275 O 0.02385 0.34641 0.81772 0.0
O276 O 0.98979 0.37159 0.81798 0.0
O277 O 0.01553 0.40136 0.78782 0.0
C278 C 0.08767 0.38393 0.87227 0.0
C279 C 0.98997 0.3883 0.79437 0.0
Dy280 Dy 0.6559 0.01781 0.82228 0.0
C281 C 0.66773 0.08264 0.90384 0.0
C282 C 0.61928 0.98646 0.78667 0.0
Dy283 Dy 0.66004 0.04674 0.85632 0.0
O284 O 0.64286 0.97621 0.79994 0.0
O285 O 0.61937 0.01505 0.78971 0.0
O286 O 0.69203 1.00825 0.791 0.0
O287 O 0.70279 0.03462 0.82936 0.0
C288 C 0.7125 0.0236 0.80438 0.0
C289 C 0.59725 0.04359 0.84684 0.0
O290 O 0.684 0.08041 0.83073 0.0
O291 O 0.6546 0.06159 0.79658 0.0
O292 O 0.6581 0.09122 0.87807 0.0
O293 O 0.67329 0.05445 0.90383 0.0
O294 O 0.61413 0.06719 0.84582 0.0
O295 O 0.61566 0.02249 0.85052 0.0
O296 O 0.66204 0.98042 0.85631 0.0
O297 O 0.66953 0.01376 0.89162 0.0
C298 C 0.67365 0.0825 0.80422 0.0
C299 C 0.66729 0.98612 0.88433 0.0
Dy300 Dy 0.0429 0.6446 0.86085 0.0
C301 C 0.95037 0.63814 0.8243 0.0
C302 C 0.08796 0.64933 0.90145 0.0
Dy303 Dy 1.00933 0.64589 0.83386 0.0
O304 O 0.08805 0.63235 0.87854 0.0
O305 O 0.06294 0.66353 0.90273 0.0
O306 O 0.06105 0.59905 0.84637 0.0
O307 O 0.0162 0.60125 0.85473 0.0
C308 C 0.03688 0.58307 0.84812 0.0
C309 C 0.02365 0.69618 0.80642 0.0
O310 O 0.98528 0.66689 0.87266 0.0
O311 O 0.01806 0.64838 0.90333 0.0
O312 O 0.96216 0.65948 0.83902 0.0
O313 O 0.97122 0.62207 0.81237 0.0
O314 O 1.00925 0.67437 0.79391 0.0
O315 O 0.03172 0.6894 0.8339 0.0
O316 O 0.0736 0.66641 0.83121 0.0
O317 O 0.04892 0.63503 0.80346 0.0
C318 C 0.99245 0.66071 0.90002 0.0
C319 C 0.0733 0.65131 0.80741 0.0
Dy320 Dy 0.21015 0.40553 0.01599 0.0
C321 C 0.25452 0.43959 0.1105 0.0
C322 C 0.17371 0.39299 0.96821 0.0
Dy323 Dy 0.23879 0.40992 0.06082 0.0
O324 O 0.19706 0.40999 0.96757 0.0
O325 O 0.17041 0.3823 0.9949 0.0
O326 O 0.21822 0.45371 1.00048 0.0
O327 O 0.20929 0.44667 0.04439 0.0
C328 C 0.21446 0.46742 0.02519 0.0
C329 C 0.262 0.35794 0.04329 0.0
O330 O 0.20149 0.38811 0.08563 0.0
O331 O 0.1711 0.39862 0.04706 0.0
O332 O 0.27307 0.42691 0.09274 0.0
O333 O 0.22788 0.43129 0.10356 0.0
O334 O 0.27545 0.37772 0.05925 0.0
O335 O 0.23458 0.36575 0.03756 0.0
O336 O 0.25384 0.39908 0.99512 0.0
O337 O 0.26749 0.43281 0.02752 0.0
C338 C 0.17448 0.39031 0.07497 0.0
C339 C 0.27212 0.42053 1.00171 0.0
Dy340 Dy 0.20909 0.66351 0.0474 0.0
C341 C 0.29765 0.67188 0.97892 0.0
C342 C 0.16096 0.67104 0.08402 0.0
Dy343 Dy 0.24802 0.66462 1.01271 0.0
O344 O 0.18354 0.65416 0.08953 0.0
O345 O 0.16448 0.6839 0.05832 0.0
O346 O 0.21963 0.61642 0.06378 0.0
O347 O 0.21959 0.62355 0.01858 0.0
C348 C 0.22127 0.60306 0.03852 0.0
C349 C 0.24085 0.72423 0.02168 0.0
O350 O 0.21345 0.65105 0.97952 0.0
O351 O 0.17985 0.67326 1.00852 0.0
O352 O 0.27115 0.67993 0.97166 0.0
O353 O 0.29646 0.65551 1.00287 0.0
O354 O 0.23902 0.71109 0.99654 0.0
O355 O 0.23966 0.70364 0.04153 0.0
O356 O 0.2428 0.68161 0.07788 0.0
O357 O 0.27523 0.65396 0.05353 0.0
C358 C 0.18649 0.66154 0.983 0.0
C359 C 0.26869 0.66887 0.07749 0.0
Dy360 Dy 0.39981 0.2184 0.05721 0.0
C361 C 0.39222 0.24531 0.95245 0.0
C362 C 0.38699 0.18636 0.10835 0.0
Dy363 Dy 0.39984 0.23709 1.01156 0.0
O364 O 0.40768 0.20645 0.10545 0.0
O365 O 0.37234 0.18501 0.08368 0.0
O366 O 0.44725 0.2238 0.07169 0.0
O367 O 0.44026 0.21057 0.02808 0.0
C368 C 0.46066 0.21641 0.04759 0.0
C369 C 0.34425 0.25438 0.03341 0.0
O370 O 0.41192 0.19197 0.99752 0.0
O371 O 0.37864 0.18026 0.03112 0.0
O372 O 0.40945 0.26188 0.96896 0.0
O373 O 0.37932 0.225 0.96839 0.0
O374 O 0.34879 0.23824 1.0104 0.0
O375 O 0.36889 0.25552 0.04709 0.0
O376 O 0.40059 0.26736 0.06495 0.0
O377 O 0.42792 0.27477 0.02476 0.0
C378 C 0.3932 0.17232 1.00738 0.0
C379 C 0.4223 0.2827 0.05196 0.0
Dy380 Dy 0.82023 0.40357 0.06095 0.0
C381 C 0.89712 0.38898 0.9864 0.0
C382 C 0.79727 0.41313 0.11524 0.0
Dy383 Dy 0.85148 0.40209 0.02422 0.0
O384 O 0.79122 0.42924 0.0918 0.0
O385 O 0.81546 0.39221 0.109 0.0
O386 O 0.78482 0.36986 0.05887 0.0
O387 O 0.82845 0.35863 0.04221 0.0
C388 C 0.8011 0.34929 0.04751 0.0
C389 C 0.83825 0.46299 0.02507 0.0
O390 O 0.81784 0.38377 0.99495 0.0
O391 O 0.78755 0.41031 0.0231 0.0
O392 O 0.87461 0.40564 0.97979 0.0
O393 O 0.89456 0.37918 0.01343 0.0
O394 O 0.83889 0.44617 1.00193 0.0
O395 O 0.84329 0.44606 0.04769 0.0
O396 O 0.85946 0.39162 0.08999 0.0
O397 O 0.89117 0.40378 0.05385 0.0
C398 C 0.79146 0.39422 0.9991 0.0
C399 C 0.88692 0.39608 0.08139 0.0
Dy400 Dy 0.65505 0.85604 0.03433 0.0
C401 C 0.67078 0.81602 0.93488 0.0
C402 C 0.66749 0.89408 0.08112 0.0
Dy403 Dy 0.65503 0.82761 0.99161 0.0
O404 O 0.6495 0.87139 0.08201 0.0
O405 O 0.67934 0.89546 0.05491 0.0
O406 O 0.60673 0.85301 0.04863 0.0
O407 O 0.61476 0.85574 1.00296 0.0
C408 C 0.59393 0.85365 0.02291 0.0
C409 C 0.70291 0.80206 0.01797 0.0
O410 O 0.65475 0.86945 0.96486 0.0
O411 O 0.66406 0.89643 1.00515 0.0
O412 O 0.64845 0.80314 0.94909 0.0
O413 O 0.6835 0.8354 0.95158 0.0
O414 O 0.68139 0.78818 1.00486 0.0
O415 O 0.69676 0.83044 0.01939 0.0
O416 O 0.65115 0.81061 0.05374 0.0
O417 O 0.62284 0.79827 0.01512 0.0
C418 C 0.66113 0.89498 0.97632 0.0
C419 C 0.62943 0.79399 0.04317 0.0
Dy420 Dy 0.82524 0.66193 0.98326 0.0
C421 C 0.87934 0.67125 0.07756 0.0
C422 C 0.82537 0.65009 0.92369 0.0
Dy423 Dy 0.84364 0.65922 0.02944 0.0
O424 O 0.80275 0.6466 0.94154 0.0
O425 O 0.84713 0.66142 0.93836 0.0
O426 O 0.78843 0.69482 0.98128 0.0
O427 O 0.82297 0.70287 1.01267 0.0
C428 C 0.79735 0.71192 1.00249 0.0
C429 C 0.83702 0.5991 0.02068 0.0
O430 O 0.79633 0.66346 0.04207 0.0
O431 O 0.78691 0.63681 1.00195 0.0
O432 O 0.85742 0.65225 0.07731 0.0
O433 O 0.88071 0.68458 0.05195 0.0
O434 O 0.8313 0.61296 0.04508 0.0
O435 O 0.8452 0.6185 1.00062 0.0
O436 O 0.86886 0.68196 0.96886 0.0
O437 O 0.88833 0.65734 1.00678 0.0
C438 C 0.7776 0.6466 0.0275 0.0
C439 C 0.89254 0.67114 0.98149 0.0
Dy440 Dy 0.39457 0.858 1.01062 0.0
C441 C 0.38326 0.8107 0.10586 0.0
C442 C 0.38508 0.89929 0.96642 0.0
Dy443 Dy 0.39304 0.8297 0.04967 0.0
O444 O 0.39756 0.87378 0.96286 0.0
O445 O 0.37683 0.9018 0.99379 0.0
O446 O 0.44121 0.85424 0.99281 0.0
O447 O 0.43748 0.8514 0.03866 0.0
C448 C 0.45643 0.85109 0.01692 0.0
C449 C 0.34103 0.80918 0.0279 0.0
O450 O 0.39519 0.86992 0.07773 0.0
O451 O 0.38848 0.89868 0.03777 0.0
O452 O 0.40268 0.79895 0.08793 0.0
O453 O 0.37062 0.83336 0.09365 0.0
O454 O 0.36116 0.79327 0.04077 0.0
O455 O 0.34997 0.83677 0.02506 0.0
O456 O 0.38675 0.81719 0.98542 0.0
O457 O 0.41554 0.79796 0.02067 0.0
C458 C 0.39143 0.89626 0.06639 0.0
C459 C 0.40397 0.79561 0.99401 0.0
Dy460 Dy 0.65763 0.21459 0.03194 0.0
C461 C 0.67256 0.28451 0.11237 0.0
C462 C 0.67035 0.17131 0.99252 0.0
Dy463 Dy 0.65889 0.246 0.06873 0.0
O464 O 0.65023 0.19135 0.98881 0.0
O465 O 0.68394 0.17488 0.01752 0.0
O466 O 0.60983 0.21597 0.01728 0.0
O467 O 0.6171 0.21746 0.063 0.0
C468 C 0.59664 0.21632 0.04281 0.0
C469 C 0.71741 0.24699 0.04911 0.0
O470 O 0.64933 0.20866 0.10024 0.0
O471 O 0.67313 0.18187 0.06678 0.0
O472 O 0.65954 0.29218 0.08767 0.0
O473 O 0.67332 0.25602 0.11465 0.0
O474 O 0.708 0.23647 0.07417 0.0
O475 O 0.69403 0.24923 0.03338 0.0
O476 O 0.6616 0.25483 1.0037 0.0
O477 O 0.63362 0.27586 0.03803 0.0
C478 C 0.66258 0.18403 0.09369 0.0
C479 C 0.64263 0.27548 1.01035 0.0
Dy480 Dy 0.51333 0.708 0.89868 0.0
C481 C 0.5968 0.77945 0.88198 0.0
C482 C 0.47548 0.66239 0.88323 0.0
Dy483 Dy 0.55078 0.74285 0.89668 0.0
O484 O 0.47519 0.67599 0.90837 0.0
O485 O 0.49609 0.67387 0.86636 0.0
O486 O 0.49977 0.70888 0.94682 0.0
O487 O 0.54543 0.7126 0.93784 0.0
C488 C 0.5258 0.71109 0.95912 0.0
C489 C 0.52564 0.74863 0.84077 0.0
O490 O 0.58295 0.70685 0.90649 0.0
O491 O 0.55026 0.67757 0.88388 0.0
O492 O 0.57529 0.78686 0.89997 0.0
O493 O 0.59445 0.7518 0.87563 0.0
O494 O 0.55225 0.73956 0.84621 0.0
O495 O 0.51187 0.74626 0.86551 0.0
O496 O 0.4846 0.74734 0.90042 0.0
O497 O 0.52174 0.77172 0.92334 0.0
C498 C 0.57722 0.6815 0.89424 0.0
C499 C 0.49319 0.76878 0.91792 0.0
Dy500 Dy 0.35271 0.52023 0.90487 0.0
C501 C 0.33346 0.62425 0.89772 0.0
C502 C 0.38853 0.47131 0.89555 0.0
Dy503 Dy 0.33036 0.56349 0.89897 0.0
O504 O 0.36762 0.47298 0.91537 0.0
O505 O 0.38957 0.49612 0.88061 0.0
O506 O 0.34711 0.51132 0.95432 0.0
O507 O 0.35574 0.55532 0.94135 0.0
C508 C 0.35072 0.53813 0.96402 0.0
C509 C 0.29844 0.54099 0.85462 0.0
O510 O 0.36862 0.57187 0.86761 0.0
O511 O 0.39543 0.54527 0.89798 0.0
O512 O 0.31286 0.60843 0.91119 0.0
O513 O 0.35125 0.60667 0.88459 0.0
O514 O 0.28947 0.56157 0.8724 0.0
O515 O 0.32505 0.53129 0.86188 0.0
O516 O 0.30788 0.50061 0.90394 0.0
O517 O 0.29688 0.54086 0.929 0.0
C518 C 0.39522 0.56469 0.87646 0.0
C519 C 0.29012 0.51323 0.92266 0.0
Dy520 Dy 0.5445 0.35575 0.89412 0.0
C521 C 0.46643 0.27908 0.8842 0.0
C522 C 0.58078 0.40343 0.88069 0.0
Dy523 Dy 0.51015 0.32007 0.89321 0.0
O524 O 0.58473 0.38444 0.90208 0.0
O525 O 0.55695 0.39634 0.86604 0.0
O526 O 0.5591 0.3593 0.94148 0.0
O527 O 0.51459 0.34705 0.9354 0.0
C528 C 0.53497 0.3516 0.95539 0.0
C529 C 0.53225 0.31592 0.83616 0.0
O530 O 0.47637 0.35493 0.90268 0.0
O531 O 0.50727 0.38588 0.87918 0.0
O532 O 0.46626 0.30636 0.87539 0.0
O533 O 0.48963 0.27449 0.90103 0.0
O534 O 0.50539 0.32314 0.84298 0.0
O535 O 0.5474 0.31912 0.85994 0.0
O536 O 0.5784 0.32049 0.89474 0.0
O537 O 0.54342 0.29298 0.91756 0.0
C538 C 0.4807 0.38083 0.89015 0.0
C539 C 0.57184 0.2973 0.91134 0.0
Dy540 Dy 0.70866 0.54564 0.90778 0.0
C541 C 0.7353 0.44898 0.92194 0.0
C542 C 0.66931 0.59183 0.90017 0.0
Dy543 Dy 0.73023 0.50627 0.90627 0.0
O544 O 0.69359 0.59298 0.91576 0.0
O545 O 0.66684 0.56583 0.88854 0.0
O546 O 0.72392 0.55836 0.95483 0.0
O547 O 0.7078 0.51596 0.94924 0.0
C548 C 0.71698 0.53387 0.96896 0.0
C549 C 0.75468 0.51501 0.85335 0.0
O550 O 0.69178 0.48827 0.88046 0.0
O551 O 0.66492 0.52255 0.90171 0.0
O552 O 0.75564 0.46913 0.92704 0.0
O553 O 0.71263 0.45988 0.90836 0.0
O554 O 0.76143 0.49391 0.87207 0.0
O555 O 0.73262 0.53154 0.86318 0.0
O556 O 0.74711 0.57055 0.89122 0.0
O557 O 0.77209 0.53438 0.91352 0.0
C558 C 0.66553 0.49811 0.88691 0.0
C559 C 0.77279 0.56012 0.89914 0.0
Dy560 Dy 0.50813 0.35352 0.15148 0.0
C561 C 0.61257 0.3297 0.17149 0.0
C562 C 0.45389 0.37934 0.1647 0.0
Dy563 Dy 0.55509 0.3352 0.15521 0.0
O564 O 0.47814 0.38126 0.18017 0.0
O565 O 0.45979 0.36358 0.14158 0.0
O566 O 0.49688 0.34918 0.10301 0.0
O567 O 0.54096 0.36109 0.11336 0.0
C568 C 0.52288 0.35512 0.09168 0.0
C569 C 0.52842 0.31667 0.20925 0.0
O570 O 0.57012 0.38111 0.14405 0.0
O571 O 0.53212 0.39334 0.17189 0.0
O572 O 0.59885 0.31148 0.15343 0.0
O573 O 0.59536 0.35092 0.17922 0.0
O574 O 0.55231 0.33252 0.20599 0.0
O575 O 0.51695 0.31606 0.18342 0.0
O576 O 0.50219 0.30429 0.15172 0.0
O577 O 0.54338 0.29831 0.12542 0.0
C578 C 0.55765 0.40119 0.15992 0.0
C579 C 0.51609 0.28939 0.13094 0.0
Dy580 Dy 0.70128 0.52403 0.16811 0.0
C581 C 0.77683 0.58444 0.12466 0.0
C582 C 0.64979 0.48973 0.17325 0.0
Dy583 Dy 0.73999 0.55294 0.16101 0.0
O584 O 0.65085 0.51851 0.17152 0.0
O585 O 0.67677 0.47974 0.17269 0.0
O586 O 0.71264 0.50329 0.12227 0.0
O587 O 0.7089 0.54781 0.12377 0.0
C588 C 0.71218 0.52698 0.10545 0.0
C589 C 0.75623 0.54992 0.21721 0.0
O590 O 0.70915 0.59152 0.16666 0.0
O591 O 0.67218 0.56076 0.18139 0.0
O592 O 0.76358 0.59457 0.14802 0.0
O593 O 0.77298 0.55581 0.12465 0.0
O594 O 0.77302 0.55894 0.19542 0.0
O595 O 0.72909 0.54231 0.20871 0.0
O596 O 0.7268 0.49185 0.19379 0.0
O597 O 0.76057 0.50745 0.16103 0.0
C598 C 0.68174 0.58771 0.17607 0.0
C599 C 0.75256 0.48812 0.1818 0.0
Dy600 Dy 0.54651 0.71424 0.15639 0.0
C601 C 0.44899 0.76137 0.16805 0.0
C602 C 0.59691 0.68301 0.17035 0.0
Dy603 Dy 0.50228 0.73561 0.15816 0.0
O604 O 0.59316 0.69899 0.14659 0.0
O605 O 0.573 0.68386 0.18641 0.0
O606 O 0.55991 0.72056 0.1086 0.0
O607 O 0.51542 0.70927 0.11666 0.0
C608 C 0.53498 0.71422 0.09567 0.0
C609 C 0.52536 0.74779 0.21425 0.0
O610 O 0.48009 0.69216 0.15094 0.0
O611 O 0.51982 0.67406 0.17368 0.0
O612 O 0.45502 0.734 0.17383 0.0
O613 O 0.47097 0.77402 0.15365 0.0
O614 O 0.50139 0.73273 0.20891 0.0
O615 O 0.53893 0.7499 0.18951 0.0
O616 O 0.56095 0.76155 0.15632 0.0
O617 O 0.52119 0.77085 0.12902 0.0
C618 C 0.49249 0.66978 0.16429 0.0
C619 C 0.54851 0.77841 0.13592 0.0
Dy620 Dy 0.33553 0.58129 0.16324 0.0
C621 C 0.3752 0.47841 0.16593 0.0
C622 C 0.33725 0.64196 0.15708 0.0
Dy623 Dy 0.34999 0.53372 0.15822 0.0
O624 O 0.3569 0.62396 0.1469 0.0
O625 O 0.31622 0.62641 0.16983 0.0
O626 O 0.2986 0.58112 0.19649 0.0
O627 O 0.33329 0.54971 0.20336 0.0
C628 C 0.30798 0.55971 0.21351 0.0
C629 C 0.34406 0.54738 0.09835 0.0
O630 O 0.30147 0.5263 0.16372 0.0
O631 O 0.29547 0.56838 0.13797 0.0
O632 O 0.38646 0.50327 0.175 0.0
O633 O 0.34969 0.48364 0.15369 0.0
O634 O 0.33664 0.5225 0.11133 0.0
O635 O 0.3536 0.56527 0.11857 0.0
O636 O 0.37875 0.59129 0.18499 0.0
O637 O 0.39627 0.5548 0.15769 0.0
C638 C 0.28385 0.54368 0.14843 0.0
C639 C 0.4017 0.57887 0.1729 0.0
Dy640 Dy 0.89572 0.51173 0.70716 0.0
C641 C 0.88338 0.56815 0.80201 0.0
C642 C 0.88687 0.48069 0.65555 0.0
Dy643 Dy 0.89466 0.54038 0.75028 0.0
O644 O 0.91241 0.48768 0.66671 0.0
O645 O 0.86597 0.49114 0.67212 0.0
O646 O 0.94475 0.49918 0.71135 0.0
O647 O 0.93463 0.54295 0.72062 0.0
C648 C 0.95634 0.52457 0.71853 0.0
C649 C 0.83667 0.5223 0.74682 0.0
O650 O 0.90248 0.57875 0.71855 0.0
O651 O 0.87812 0.55205 0.68462 0.0
O652 O 0.87664 0.57783 0.77587 0.0
O653 O 0.90074 0.54528 0.79979 0.0
O654 O 0.84574 0.54928 0.74298 0.0
O655 O 0.85988 0.50639 0.74309 0.0
O656 O 0.89002 0.47285 0.73612 0.0
O657 O 0.91823 0.49902 0.76721 0.0
C658 C 0.88887 0.57763 0.6928 0.0
C659 C 0.909 0.47291 0.75768 0.0
Dy660 Dy 0.53827 0.90455 0.71444 0.0
C661 C 0.43161 0.89874 0.7367 0.0
C662 C 0.59037 0.8911 0.68471 0.0
Dy663 Dy 0.49178 0.90279 0.72956 0.0
O664 O 0.58639 0.91378 0.7016 0.0
O665 O 0.56615 0.87528 0.68514 0.0
O666 O 0.55314 0.95145 0.72281 0.0
O667 O 0.51011 0.94534 0.70588 0.0
C668 C 0.52977 0.96536 0.71346 0.0
C669 C 0.51342 0.84637 0.74689 0.0
O670 O 0.47882 0.91621 0.68415 0.0
O671 O 0.51491 0.8862 0.6731 0.0
O672 O 0.44671 0.88638 0.7159 0.0
O673 O 0.44989 0.91256 0.75443 0.0
O674 O 0.49013 0.8516 0.73075 0.0
O675 O 0.52664 0.87124 0.74942 0.0
O676 O 0.54388 0.90453 0.76406 0.0
O677 O 0.50013 0.92742 0.76995 0.0
C678 C 0.49085 0.89992 0.66434 0.0
C679 C 0.52607 0.92065 0.78083 0.0
Dy680 Dy 0.15391 0.54631 0.70755 0.0
C681 C 0.1457 0.45523 0.75855 0.0
C682 C 0.16288 0.58702 0.66267 0.0
Dy683 Dy 0.15277 0.51229 0.74006 0.0
O684 O 0.14219 0.588 0.68254 0.0
O685 O 0.17873 0.56336 0.66666 0.0
O686 O 0.10717 0.56467 0.7184 0.0
O687 O 0.11088 0.5193 0.71463 0.0
C688 C 0.09205 0.53996 0.71886 0.0
C689 C 0.20368 0.5304 0.76362 0.0
O690 O 0.16955 0.48338 0.70283 0.0
O691 O 0.15708 0.51675 0.66883 0.0
O692 O 0.16969 0.46694 0.74784 0.0
O693 O 0.12604 0.47601 0.76281 0.0
O694 O 0.18136 0.51927 0.77877 0.0
O695 O 0.19708 0.53379 0.73519 0.0
O696 O 0.17075 0.57833 0.73844 0.0
O697 O 0.13843 0.55283 0.76616 0.0
C698 C 0.16556 0.48999 0.67489 0.0
C699 C 0.15377 0.57773 0.76139 0.0
Dy700 Dy 0.52236 0.16367 0.70592 0.0
C701 C 0.62094 0.16302 0.75398 0.0
C702 C 0.4763 0.17711 0.66776 0.0
Dy703 Dy 0.56494 0.16233 0.73246 0.0
O704 O 0.50427 0.18208 0.66261 0.0
O705 O 0.47337 0.16547 0.69405 0.0
O706 O 0.50594 0.11606 0.70984 0.0
O707 O 0.55161 0.12219 0.70476 0.0
C708 C 0.53089 0.10212 0.70773 0.0
C709 C 0.54614 0.22057 0.7428 0.0
O710 O 0.58627 0.15249 0.68939 0.0
O711 O 0.55425 0.18512 0.67232 0.0
O712 O 0.61229 0.17716 0.73059 0.0
O713 O 0.59882 0.14813 0.76605 0.0
O714 O 0.57216 0.21257 0.73389 0.0
O715 O 0.52973 0.19733 0.7416 0.0
O716 O 0.50373 0.16709 0.75154 0.0
O717 O 0.54061 0.13847 0.76833 0.0
C718 C 0.57925 0.17097 0.66842 0.0
C719 C 0.51364 0.14848 0.77187 0.0
Dy720 Dy 0.90206 0.57448 0.35748 0.0
C721 C 0.89277 0.48736 0.29557 0.0
C722 C 0.89696 0.61393 0.40395 0.0
Dy723 Dy 0.89948 0.54064 0.32201 0.0
O724 O 0.91009 0.61938 0.37877 0.0
O725 O 0.8866 0.58691 0.40379 0.0
O726 O 0.94928 0.59024 0.3445 0.0
O727 O 0.94247 0.54495 0.34652 0.0
C728 C 0.96275 0.56492 0.3429 0.0
C729 C 0.84673 0.56077 0.3066 0.0
O730 O 0.88163 0.51152 0.35878 0.0
O731 O 0.89859 0.54119 0.3941 0.0
O732 O 0.88173 0.49487 0.32056 0.0
O733 O 0.91059 0.5084 0.28547 0.0
O734 O 0.86692 0.55227 0.28813 0.0
O735 O 0.85669 0.56142 0.33413 0.0
O736 O 0.88392 0.60736 0.32721 0.0
O737 O 0.91172 0.58214 0.2955 0.0
C738 C 0.88716 0.51578 0.38677 0.0
C739 C 0.89687 0.6065 0.3017 0.0
Dy740 Dy 0.50984 0.89985 0.34925 0.0
C741 C 0.58413 0.91021 0.27012 0.0
C742 C 0.46909 0.89184 0.39436 0.0
Dy743 Dy 0.54004 0.90339 0.31128 0.0
O744 O 0.46317 0.90049 0.36767 0.0
O745 O 0.49743 0.88694 0.39666 0.0
O746 O 0.52235 0.94557 0.3685 0.0
O747 O 0.5175 0.94472 0.3235 0.0
C748 C 0.52254 0.96227 0.34481 0.0
C749 C 0.53072 0.84309 0.308 0.0
O750 O 0.57045 0.91054 0.35079 0.0
O751 O 0.5457 0.87507 0.37281 0.0
O752 O 0.58251 0.92412 0.29498 0.0
O753 O 0.55919 0.89645 0.26575 0.0
O754 O 0.55625 0.85614 0.30916 0.0
O755 O 0.51123 0.86252 0.31495 0.0
O756 O 0.4708 0.89188 0.32232 0.0
O757 O 0.49725 0.91844 0.28868 0.0
C758 C 0.57033 0.89033 0.37183 0.0
C759 C 0.47132 0.90734 0.29789 0.0
Dy760 Dy 0.15937 0.52136 0.32702 0.0
C761 C 0.16765 0.60741 0.39391 0.0
C762 C 0.14073 0.46723 0.30949 0.0
Dy763 Dy 0.16133 0.56167 0.35382 0.0
O764 O 0.12907 0.49219 0.30086 0.0
O765 O 0.16326 0.47192 0.32659 0.0
O766 O 0.19305 0.51925 0.29175 0.0
O767 O 0.20474 0.5431 0.33139 0.0
C768 C 0.21392 0.53408 0.30512 0.0
C769 C 0.09974 0.55562 0.34154 0.0
O770 O 0.18174 0.58623 0.31673 0.0
O771 O 0.15264 0.55566 0.29078 0.0
O772 O 0.15324 0.60879 0.36907 0.0
O773 O 0.17936 0.58126 0.39649 0.0
O774 O 0.11642 0.57877 0.33606 0.0
O775 O 0.11773 0.53546 0.35061 0.0
O776 O 0.17347 0.49485 0.3671 0.0
O777 O 0.16309 0.53338 0.39552 0.0
C778 C 0.17013 0.57943 0.29132 0.0
C779 C 0.16972 0.50528 0.39364 0.0
Dy780 Dy 0.53226 0.16035 0.34618 0.0
C781 C 0.43765 0.17674 0.30217 0.0
C782 C 0.57368 0.1695 0.39052 0.0
Dy783 Dy 0.49395 0.16064 0.31692 0.0
O784 O 0.57982 0.16807 0.36235 0.0
O785 O 0.54522 0.167 0.39399 0.0
O786 O 0.54778 0.11259 0.34545 0.0
O787 O 0.50181 0.11869 0.34393 0.0
C788 C 0.5224 0.09879 0.34417 0.0
C789 C 0.52083 0.20873 0.2912 0.0
O790 O 0.46585 0.1568 0.35829 0.0
O791 O 0.50266 0.17832 0.38237 0.0
O792 O 0.45415 0.18959 0.32174 0.0
O793 O 0.45214 0.15455 0.29052 0.0
O794 O 0.50869 0.18671 0.27731 0.0
O795 O 0.52142 0.20296 0.31975 0.0
O796 O 0.55797 0.15554 0.30435 0.0
O797 O 0.51914 0.12914 0.2888 0.0
C798 C 0.47484 0.16971 0.38238 0.0
C799 C 0.54787 0.13483 0.28663 0.0
Dy800 Dy 0.68971 0.90363 0.51853 0.0
C801 C 0.76432 0.92266 0.59886 0.0
C802 C 0.64378 0.89167 0.4789 0.0
Dy803 Dy 0.7312 0.91123 0.55058 0.0
O804 O 0.66955 0.87904 0.47967 0.0
O805 O 0.64239 0.90976 0.50103 0.0
O806 O 0.69669 0.95023 0.49663 0.0
O807 O 0.70027 0.94809 0.54167 0.0
C808 C 0.70151 0.96638 0.51969 0.0
C809 C 0.74733 0.85714 0.53343 0.0
O810 O 0.69681 0.90371 0.58647 0.0
O811 O 0.66 0.88975 0.55565 0.0
O812 O 0.74902 0.89883 0.59474 0.0
O813 O 0.76267 0.9403 0.57577 0.0
O814 O 0.76519 0.87967 0.53637 0.0
O815 O 0.71942 0.86504 0.5376 0.0
O816 O 0.72166 0.8903 0.4854 0.0
O817 O 0.74997 0.92558 0.5061 0.0
C818 C 0.66948 0.89419 0.58259 0.0
C819 C 0.74328 0.90917 0.48297 0.0
Dy820 Dy 0.71017 0.16288 0.53261 0.0
C821 C 0.74641 0.18163 0.43135 0.0
C822 C 0.67411 0.17406 0.58112 0.0
Dy823 Dy 0.73055 0.16839 0.48821 0.0
O824 O 0.69149 0.15138 0.57832 0.0
O825 O 0.67744 0.19117 0.55799 0.0
O826 O 0.71695 0.11519 0.54582 0.0
O827 O 0.70655 0.12415 0.50099 0.0
C828 C 0.71174 0.10305 0.52041 0.0
C829 C 0.74241 0.22375 0.51418 0.0
O830 O 0.68821 0.15566 0.46736 0.0
O831 O 0.67042 0.1796 0.50562 0.0
O832 O 0.72164 0.18895 0.44369 0.0
O833 O 0.76243 0.16632 0.45025 0.0
O834 O 0.72785 0.21905 0.48993 0.0
O835 O 0.745 0.19815 0.52619 0.0
O836 O 0.75908 0.16246 0.54366 0.0
O837 O 0.77082 0.14384 0.49911 0.0
C838 C 0.66586 0.16871 0.47924 0.0
C839 C 0.77856 0.14894 0.5264 0.0
Dy840 Dy 0.89193 0.71741 0.56426 0.0
C841 C 0.91937 0.8012 0.49535 0.0
C842 C 0.88353 0.66816 0.60062 0.0
Dy843 Dy 0.89854 0.75906 0.53384 0.0
O844 O 0.90173 0.66995 0.57838 0.0
O845 O 0.86887 0.6926 0.60199 0.0
O846 O 0.93876 0.72497 0.58436 0.0
O847 O 0.93555 0.72688 0.53901 0.0
C848 C 0.95445 0.72757 0.56027 0.0
C849 C 0.83789 0.76124 0.53757 0.0
O850 O 0.90408 0.72372 0.49918 0.0
O851 O 0.87423 0.6931 0.52514 0.0
O852 O 0.89175 0.79401 0.49907 0.0
O853 O 0.93202 0.79333 0.51994 0.0
O854 O 0.85341 0.76292 0.51337 0.0
O855 O 0.85574 0.75343 0.55879 0.0
O856 O 0.88047 0.74546 0.60134 0.0
O857 O 0.90861 0.7798 0.5781 0.0
C858 C 0.88804 0.69925 0.50021 0.0
C859 C 0.8957 0.76987 0.60264 0.0
Dy860 Dy 0.33285 0.91678 0.57935 0.0
C861 C 0.379 0.90225 0.48505 0.0
C862 C 0.3428 0.93302 0.63663 0.0
Dy863 Dy 0.34764 0.91862 0.53443 0.0
O864 O 0.36263 0.931 0.61623 0.0
O865 O 0.31696 0.92524 0.62586 0.0
O866 O 0.29457 0.88536 0.58616 0.0
O867 O 0.32548 0.87547 0.55147 0.0
C868 C 0.30076 0.86733 0.56471 0.0
C869 C 0.34337 0.9795 0.54041 0.0
O870 O 0.29966 0.91497 0.52435 0.0
O871 O 0.29379 0.94236 0.5643 0.0
O872 O 0.35807 0.92192 0.48525 0.0
O873 O 0.38226 0.89128 0.51148 0.0
O874 O 0.33738 0.96461 0.51664 0.0
O875 O 0.35139 0.96086 0.561 0.0
O876 O 0.37339 0.88994 0.59028 0.0
O877 O 0.39354 0.9175 0.55497 0.0
C878 C 0.28243 0.93229 0.53972 0.0
C879 C 0.39777 0.90027 0.57805 0.0
Dy880 Dy 0.15081 0.36716 0.533 0.0
C881 C 0.15792 0.33658 0.42847 0.0
C882 C 0.16065 0.40313 0.58118 0.0
Dy883 Dy 0.15134 0.34479 0.48759 0.0
O884 O 0.14505 0.40975 0.55799 0.0
O885 O 0.17072 0.3764 0.57852 0.0
O886 O 0.10241 0.35955 0.54646 0.0
O887 O 0.11046 0.36965 0.50178 0.0
C888 C 0.08975 0.36312 0.52082 0.0
C889 C 0.20818 0.33106 0.50916 0.0
O890 O 0.14101 0.39145 0.47375 0.0
O891 O 0.17615 0.40191 0.50541 0.0
O892 O 0.17001 0.35764 0.44331 0.0
O893 O 0.14177 0.31939 0.4461 0.0
O894 O 0.20206 0.34454 0.4845 0.0
O895 O 0.18369 0.33053 0.52367 0.0
O896 O 0.14532 0.32191 0.55173 0.0
O897 O 0.12612 0.30634 0.50816 0.0
C898 C 0.16113 0.41039 0.48202 0.0
C899 C 0.13008 0.30195 0.53693 0.0
Dy900 Dy 0.3163 0.17405 0.49598 0.0
C901 C 0.3864 0.18771 0.57614 0.0
C902 C 0.29416 0.16516 0.44119 0.0
Dy903 Dy 0.34594 0.17812 0.53152 0.0
O904 O 0.31264 0.186 0.448 0.0
O905 O 0.28745 0.14869 0.4644 0.0
O906 O 0.279 0.20504 0.49727 0.0
O907 O 0.32169 0.22071 0.51264 0.0
C908 C 0.29376 0.22789 0.50676 0.0
C909 C 0.33628 0.11575 0.53233 0.0
O910 O 0.31091 0.19762 0.55834 0.0
O911 O 0.28398 0.16462 0.53383 0.0
O912 O 0.39083 0.19433 0.54833 0.0
O913 O 0.35997 0.17645 0.57944 0.0
O914 O 0.33515 0.13354 0.5546 0.0
O915 O 0.34026 0.13251 0.50932 0.0
O916 O 0.35583 0.18115 0.46533 0.0
O917 O 0.38723 0.1812 0.50318 0.0
C918 C 0.28583 0.18339 0.55605 0.0
C919 C 0.38334 0.18181 0.47456 0.0
Dy920 Dy 0.89088 0.36718 0.50322 0.0
C921 C 0.90458 0.29395 0.58656 0.0
C922 C 0.88066 0.4162 0.46787 0.0
Dy923 Dy 0.8958 0.32926 0.5383 0.0
O924 O 0.90421 0.40003 0.46768 0.0
O925 O 0.8618 0.4053 0.48703 0.0
O926 O 0.93917 0.36409 0.48716 0.0
O927 O 0.93264 0.36208 0.53235 0.0
C928 C 0.95303 0.36149 0.51224 0.0
C929 C 0.83669 0.32114 0.52415 0.0
O930 O 0.89998 0.36843 0.56855 0.0
O931 O 0.87129 0.39489 0.53849 0.0
O932 O 0.88101 0.30866 0.58053 0.0
O933 O 0.92234 0.29496 0.56362 0.0
O934 O 0.84718 0.32503 0.55046 0.0
O935 O 0.85779 0.32784 0.50586 0.0
O936 O 0.88252 0.33354 0.4699 0.0
O937 O 0.91314 0.30542 0.49791 0.0
C938 C 0.88367 0.39188 0.56429 0.0
C939 C 0.90137 0.31185 0.47169 0.0
Dy940 Dy 0.15149 0.73076 0.53599 0.0
C941 C 0.15833 0.7853 0.63414 0.0
C942 C 0.16197 0.69586 0.48711 0.0
Dy943 Dy 0.15223 0.75805 0.58105 0.0
O944 O 0.14575 0.71958 0.48722 0.0
O945 O 0.17271 0.69151 0.51349 0.0
O946 O 0.10222 0.73048 0.52568 0.0
O947 O 0.11311 0.72795 0.57052 0.0
C948 C 0.09104 0.72949 0.55215 0.0
C949 C 0.20996 0.76727 0.55956 0.0
O950 O 0.14842 0.71267 0.60132 0.0
O951 O 0.17476 0.69628 0.56309 0.0
O952 O 0.16109 0.75738 0.62954 0.0
O953 O 0.14831 0.79832 0.6102 0.0
O954 O 0.20234 0.75658 0.58517 0.0
O955 O 0.18585 0.76736 0.54429 0.0
O956 O 0.15587 0.77696 0.51971 0.0
O957 O 0.12371 0.78895 0.55458 0.0
C958 C 0.16461 0.69187 0.58987 0.0
C959 C 0.13368 0.79372 0.52756 0.0
C960 C 0.03498 0.193 0.54195 0.0
C961 C 0.01983 0.21441 0.55983 0.0
C962 C 1.00263 0.23835 0.51193 0.0
C963 C 0.01901 0.21783 0.49413 0.0
N964 N 0.04639 0.17221 0.4932 0.0
N965 N 0.99067 0.25892 0.56062 0.0
C966 C 0.03429 0.19449 0.50958 0.0
C967 C 1.00373 0.23718 0.54433 0.0
N968 N 0.04999 0.17062 0.55612 0.0
N969 N 0.98537 0.259 0.49768 0.0
H970 H 0.9899 0.25831 0.58376 0.0
H971 H 0.9821 0.27846 0.55159 0.0
H972 H 0.98536 0.26193 0.47465 0.0
H973 H 0.96992 0.27234 0.50826 0.0
H974 H 0.06549 0.15703 0.54594 0.0
H975 H 0.04711 0.16565 0.57864 0.0
H976 H 0.05533 0.15281 0.50209 0.0
H977 H 0.04584 0.17204 0.47007 0.0
C978 C 0.82097 1.01021 0.54749 0.0
C979 C 0.84358 0.02635 0.56306 0.0
C980 C 0.86339 0.04195 0.51232 0.0
C981 C 0.84296 0.02271 0.49696 0.0
N982 N 0.80311 0.98653 0.50249 0.0
N983 N 0.88883 0.05525 0.5585 0.0
C984 C 0.82221 1.00629 0.51545 0.0
C985 C 0.86518 0.04189 0.54484 0.0
N986 N 0.7967 1.00004 0.56311 0.0
N987 N 0.8816 0.06037 0.49595 0.0
H988 H 0.89143 0.05524 0.58149 0.0
H989 H 0.90726 0.064 0.54718 0.0
H990 H 0.8827 0.05993 0.47287 0.0
H991 H 0.89411 0.07758 0.50508 0.0
H992 H 0.77726 0.9925 0.55292 0.0
H993 H 0.79442 1.00255 0.58599 0.0
H994 H 0.79075 0.97078 0.51457 0.0
H995 H 0.80055 0.9848 0.47958 0.0
C996 C 0.061 0.85148 0.54983 0.0
C997 C 0.03445 0.84438 0.56641 0.0
C998 C 1.00845 0.84107 0.51617 0.0
C999 C 0.03569 0.84554 0.4998 0.0
N1000 N 0.08318 0.87093 0.50413 0.0
N1001 N 0.98197 0.83269 0.56334 0.0
C1002 C 0.06059 0.85516 0.5176 0.0
C1003 C 1.00792 0.83988 0.54884 0.0
N1004 N 0.08751 0.85382 0.56452 0.0
N1005 N 0.98234 0.84034 0.50072 0.0
H1006 H 0.98008 0.83136 0.58636 0.0
H1007 H 0.96252 0.82601 0.55281 0.0
H1008 H 0.98129 0.83975 0.47769 0.0
H1009 H 0.9617 0.84396 0.51052 0.0
H1010 H 0.10806 0.85471 0.55366 0.0
H1011 H 0.08944 0.85199 0.58746 0.0
H1012 H 0.10065 0.88082 0.51572 0.0
H1013 H 0.08201 0.87855 0.48221 0.0
C1014 C 0.20612 0.01778 0.54569 0.0
C1015 C 0.22034 0.04074 0.56279 0.0
C1016 C 0.23481 0.06418 0.51346 0.0
C1017 C 0.21858 0.04266 0.49641 0.0
N1018 N 0.18202 1.00293 0.49961 0.0
N1019 N 0.24097 0.09027 0.56007 0.0
C1020 C 0.20243 0.0206 0.51355 0.0
C1021 C 0.2321 0.06532 0.54569 0.0
N1022 N 0.19643 0.99246 0.55985 0.0
N1023 N 0.25476 0.08268 0.49931 0.0
H1024 H 0.23999 0.09195 0.58304 0.0
H1025 H 0.24697 0.10994 0.54901 0.0
H1026 H 0.25936 0.08159 0.47668 0.0
H1027 H 0.26956 0.09646 0.51063 0.0
H1028 H 0.19005 0.97333 0.54862 0.0
H1029 H 0.19703 0.98962 0.58276 0.0
H1030 H 0.16732 0.98874 0.51099 0.0
H1031 H 0.17707 1.00492 0.4771 0.0
C1032 C 0.5432 1.00241 0.22951 0.0
C1033 C 0.56131 0.02458 0.21466 0.0
C1034 C 0.51367 0.05127 0.20279 0.0
C1035 C 0.49534 0.02831 0.21562 0.0
N1036 N 0.49429 0.97845 0.23593 0.0
N1037 N 0.56047 0.06497 0.17878 0.0
C1038 C 0.51066 1.00289 0.22751 0.0
C1039 C 0.54546 0.04744 0.19894 0.0
N1040 N 0.55682 0.98132 0.24669 0.0
N1041 N 0.50104 0.07792 0.19567 0.0
H1042 H 0.58271 0.06145 0.17314 0.0
H1043 H 0.54987 0.08017 0.16476 0.0
H1044 H 0.47872 0.08241 0.2001 0.0
H1045 H 0.51347 0.09659 0.18908 0.0
H1046 H 0.54519 0.96701 0.26106 0.0
H1047 H 0.57993 0.97978 0.24844 0.0
H1048 H 0.50382 0.95808 0.24146 0.0
H1049 H 0.47106 0.97776 0.23488 0.0
C1050 C 0.03897 0.54002 0.23898 0.0
C1051 C 0.01946 0.55542 0.21893 0.0
C1052 C 1.0059 0.50502 0.19843 0.0
C1053 C 0.0245 0.4895 0.21931 0.0
N1054 N 0.06231 0.49424 0.25691 0.0
N1055 N 0.98116 0.55054 0.18179 0.0
C1056 C 0.04215 0.50777 0.23858 0.0
C1057 C 1.0019 0.53719 0.19956 0.0
N1058 N 0.0526 0.55616 0.26059 0.0
N1059 N 0.99448 0.48951 0.17513 0.0
H1060 H 0.97911 0.57352 0.17977 0.0
H1061 H 0.96468 0.53886 0.17045 0.0
H1062 H 0.9995 0.46729 0.17158 0.0
H1063 H 0.98328 0.49925 0.15731 0.0
H1064 H 0.06734 0.54769 0.27626 0.0
H1065 H 0.04676 0.578 0.26471 0.0
H1066 H 0.07992 0.50538 0.26697 0.0
H1067 H 0.0624 0.47142 0.2612 0.0
C1068 C 0.5432 0.01804 0.85679 0.0
C1069 C 0.56165 0.04303 0.84729 0.0
C1070 C 0.51426 0.0725 0.84741 0.0
C1071 C 0.49477 0.04694 0.85115 0.0
N1072 N 0.4939 0.99424 0.8621 0.0
N1073 N 0.55953 0.09198 0.82466 0.0
C1074 C 0.51031 0.01942 0.85647 0.0
C1075 C 0.54548 0.06938 0.83984 0.0
N1076 N 0.55673 0.99289 0.86716 0.0
N1077 N 0.50423 0.1004 0.85331 0.0
H1078 H 0.58015 0.08958 0.81434 0.0
H1079 H 0.54878 0.11147 0.81831 0.0
H1080 H 0.48435 0.10465 0.86419 0.0
H1081 H 0.51814 0.11911 0.85282 0.0
H1082 H 0.54551 0.97571 0.87831 0.0
H1083 H 0.57957 0.98959 0.8664 0.0
H1084 H 0.50273 0.97292 0.86201 0.0
H1085 H 0.47104 0.99433 0.86587 0.0
C1086 C 1.01102 0.53196 0.8334 0.0
C1087 C 0.03542 0.5478 0.84673 0.0
C1088 C 0.05971 0.4973 0.85414 0.0
C1089 C 0.03557 0.48178 0.83994 0.0
N1090 N 0.99236 0.48764 0.80871 0.0
N1091 N 0.0797 0.5426 0.87652 0.0
C1092 C 1.01234 0.50016 0.82789 0.0
C1093 C 0.05907 0.52955 0.85842 0.0
N1094 N 0.9856 0.54699 0.82658 0.0
N1095 N 0.08385 0.4814 0.86346 0.0
H1096 H 0.07889 0.56485 0.88243 0.0
H1097 H 0.09563 0.53101 0.88868 0.0
H1098 H 0.08461 0.45834 0.8634 0.0
H1099 H 0.10411 0.49101 0.86948 0.0
H1100 H 0.96557 0.5365 0.82112 0.0
H1101 H 0.98362 0.5698 0.8287 0.0
H1102 H 0.97728 0.49993 0.79608 0.0
H1103 H 0.9932 0.46544 0.80243 0.0
C1104 C 0.20415 0.54953 0.05733 0.0
C1105 C 0.2165 0.56846 0.03424 0.0
C1106 C 0.21582 0.52239 1.00309 0.0
C1107 C 0.21193 0.50252 0.02835 0.0
N1108 N 0.1998 0.50073 0.08094 0.0
N1109 N 0.23439 0.57005 0.9836 0.0
C1110 C 0.20558 0.51719 0.05584 0.0
C1111 C 0.22249 0.55392 1.00677 0.0
N1112 N 0.18835 0.56208 0.07983 0.0
N1113 N 0.21073 0.51202 0.97517 0.0
H1114 H 0.24212 0.59179 0.98552 0.0
H1115 H 0.23949 0.56109 0.96304 0.0
H1116 H 0.20131 0.49128 0.97113 0.0
H1117 H 0.21074 0.52558 0.95622 0.0
H1118 H 0.17649 0.54976 0.09575 0.0
H1119 H 0.18276 0.58446 0.08002 0.0
H1120 H 0.19894 0.50992 0.10203 0.0
H1121 H 0.19727 0.47783 0.08143 0.0
C1122 C 0.54417 0.20201 0.02112 0.0
C1123 C 0.56184 0.21107 0.04616 0.0
C1124 C 0.51299 0.21075 0.07352 0.0
C1125 C 0.49547 0.21125 0.04659 0.0
N1126 N 0.49827 0.20829 0.99302 0.0
N1127 N 0.55951 0.22362 0.09823 0.0
C1128 C 0.51225 0.20728 0.0199 0.0
C1129 C 0.54518 0.2153 0.07292 0.0
N1130 N 0.55713 0.18582 0.99927 0.0
N1131 N 0.49953 0.20347 0.09991 0.0
H1132 H 0.58244 0.22669 0.09966 0.0
H1133 H 0.54812 0.2301 0.11725 0.0
H1134 H 0.47774 0.1954 0.10134 0.0
H1135 H 0.51129 0.20066 0.11968 0.0
H1136 H 0.54498 0.17672 0.98182 0.0
H1137 H 0.57875 0.17768 1.00097 0.0
H1138 H 0.50975 0.20714 0.97292 0.0
H1139 H 0.4757 0.21264 0.99045 0.0
C1140 C 0.82273 0.54684 0.99946 0.0
C1141 C 0.83997 0.56424 0.01964 0.0
C1142 C 0.85866 0.51562 0.04108 0.0
C1143 C 0.83884 0.49812 0.02338 0.0
N1144 N 0.7997 0.49897 0.98677 0.0
N1145 N 0.8718 0.56318 0.06284 0.0
C1146 C 0.82044 0.51443 1.0027 0.0
C1147 C 0.85695 0.54792 0.04138 0.0
N1148 N 0.80749 0.56156 0.97762 0.0
N1149 N 0.88109 0.50167 0.05611 0.0
H1150 H 0.87365 0.58622 0.06279 0.0
H1151 H 0.88075 0.55299 0.08171 0.0
H1152 H 0.8849 0.47895 0.05464 0.0
H1153 H 0.89822 0.51296 0.06691 0.0
H1154 H 0.79451 0.55132 0.96168 0.0
H1155 H 0.80855 0.58456 0.97464 0.0
H1156 H 0.78406 0.50863 0.97275 0.0
H1157 H 0.79627 0.47613 0.98929 0.0
C1158 C 0.54304 0.84337 0.99485 0.0
C1159 C 0.55891 0.85601 0.01914 0.0
C1160 C 0.50832 0.86514 0.04258 0.0
C1161 C 0.49202 0.85335 0.01776 0.0
N1162 N 0.49774 0.83863 0.96605 0.0
N1163 N 0.55393 0.88808 0.06118 0.0
C1164 C 0.51056 0.84489 0.99274 0.0
C1165 C 0.54066 0.86922 0.0416 0.0
N1166 N 0.55873 0.82826 0.97393 0.0
N1167 N 0.49333 0.87297 0.06766 0.0
H1168 H 0.57631 0.89413 0.05965 0.0
H1169 H 0.54213 0.90103 0.07609 0.0
H1170 H 0.47033 0.87465 0.06913 0.0
H1171 H 0.50402 0.87653 0.08786 0.0
H1172 H 0.54879 0.8156 0.95744 0.0
H1173 H 0.58181 0.82611 0.97433 0.0
H1174 H 0.50986 0.8379 0.9463 0.0
H1175 H 0.47513 0.83565 0.96258 0.0
C1176 C 0.55726 0.71436 1.00963 0.0
C1177 C 0.53031 0.70724 0.9941 0.0
C1178 C 0.50608 0.70172 0.04504 0.0
C1179 C 0.53302 0.7089 0.06068 0.0
N1180 N 0.58674 0.70599 0.05418 0.0
N1181 N 0.48446 0.67916 1.00105 0.0
C1182 C 0.55932 0.7107 0.04189 0.0
C1183 C 0.50633 0.69656 1.01303 0.0
N1184 N 0.58161 0.72416 0.99395 0.0
N1185 N 0.47981 0.69918 0.06031 0.0
H1186 H 0.4857 0.67104 0.97954 0.0
H1187 H 0.46783 0.66872 0.01372 0.0
H1188 H 0.47787 0.70213 0.08303 0.0
H1189 H 0.45925 0.69613 0.04998 0.0
H1190 H 0.60101 0.73198 1.00405 0.0
H1191 H 0.58186 0.72701 0.97103 0.0
H1192 H 0.6063 0.70495 0.04172 0.0
H1193 H 0.58963 0.69757 0.0756 0.0
C1194 C 0.37141 0.52678 0.01722 0.0
C1195 C 0.35382 0.54533 0.99811 0.0
C1196 C 0.3363 0.57069 0.04479 0.0
C1197 C 0.35031 0.54923 0.06387 0.0
N1198 N 0.38289 0.50708 0.06677 0.0
N1199 N 0.31883 0.5854 0.99521 0.0
C1200 C 0.36831 0.52744 0.04947 0.0
C1201 C 0.33663 0.5678 1.01243 0.0
N1202 N 0.39241 0.50919 1.00446 0.0
N1203 N 0.32272 0.59431 0.05759 0.0
H1204 H 0.31936 0.58507 0.97206 0.0
H1205 H 0.30194 0.59844 1.00382 0.0
H1206 H 0.32136 0.5967 0.08057 0.0
H1207 H 0.31524 0.61268 0.04555 0.0
H1208 H 0.40814 0.49708 0.01638 0.0
H1209 H 0.39621 0.5091 0.98158 0.0
H1210 H 0.39232 0.48778 0.05858 0.0
H1211 H 0.38489 0.5091 0.08972 0.0
C1212 C 0.50532 0.3636 1.0054 0.0
C1213 C 0.53202 0.35415 0.99062 0.0
C1214 C 0.55466 0.34907 0.04247 0.0
C1215 C 0.52799 0.35837 0.05693 0.0
N1216 N 0.48158 0.38382 0.04962 0.0
N1217 N 0.58469 0.34391 0.99799 0.0
C1218 C 0.5044 0.36806 0.03755 0.0
C1219 C 0.55731 0.349 1.01009 0.0
N1220 N 0.4803 0.36875 0.98895 0.0
N1221 N 0.57731 0.33807 0.05958 0.0
H1222 H 0.58815 0.33793 0.97612 0.0
H1223 H 0.60451 0.34633 1.0098 0.0
H1224 H 0.57678 0.3376 0.08268 0.0
H1225 H 0.59575 0.32718 0.05104 0.0
H1226 H 0.45916 0.37077 0.99829 0.0
H1227 H 0.48011 0.36953 0.96589 0.0
H1228 H 0.46514 0.39432 0.0371 0.0
H1229 H 0.4812 0.38988 0.07188 0.0
C1230 C 0.72559 0.50632 0.0204 0.0
C1231 C 0.71309 0.53052 1.00375 0.0
C1232 C 0.69806 0.55206 0.05319 0.0
C1233 C 0.71228 0.52861 0.07011 0.0
N1234 N 0.74657 0.48766 0.06684 0.0
N1235 N 0.68022 0.57222 1.00557 0.0
C1236 C 0.72752 0.50674 0.05276 0.0
C1237 C 0.69756 0.55225 0.02068 0.0
N1238 N 0.73514 0.48205 1.00538 0.0
N1239 N 0.68561 0.5752 0.06791 0.0
H1240 H 0.67823 0.57241 0.9825 0.0
H1241 H 0.66529 0.58649 0.01567 0.0
H1242 H 0.682 0.57528 0.09065 0.0
H1243 H 0.6802 0.59537 0.05775 0.0
H1244 H 0.74084 0.46207 0.01581 0.0
H1245 H 0.73472 0.48091 0.98231 0.0
H1246 H 0.76114 0.47385 0.05557 0.0
H1247 H 0.75085 0.48819 0.08954 0.0
C1248 C 1.0061 0.54813 0.73962 0.0
C1249 C 0.99093 0.53147 0.71715 0.0
C1250 C 0.04159 0.52498 0.6934 0.0
C1251 C 0.057 0.53751 0.71805 0.0
N1252 N 0.0525 0.56093 0.76547 0.0
N1253 N 0.99645 0.5042 0.67162 0.0
C1254 C 0.03869 0.54932 0.74116 0.0
C1255 C 1.00949 0.51974 0.69404 0.0
N1256 N 0.98939 0.56334 0.75958 0.0
N1257 N 0.05728 0.52071 0.66782 0.0
H1258 H 0.97358 0.50414 0.66767 0.0
H1259 H 1.00843 0.49089 0.65718 0.0
H1260 H 0.0795 0.52737 0.66557 0.0
H1261 H 0.04761 0.51438 0.64785 0.0
H1262 H 0.99825 0.57933 0.77362 0.0
H1263 H 0.9662 0.56178 0.76054 0.0
H1264 H 0.04127 0.5674 0.7845 0.0
H1265 H 0.07564 0.56236 0.76745 0.0
C1266 C 0.55792 0.0173 0.70688 0.0
C1267 C 0.53026 1.00038 0.70746 0.0
C1268 C 0.5065 0.04978 0.69655 0.0
C1269 C 0.5325 0.067 0.70439 0.0
N1270 N 0.58407 0.06344 0.71922 0.0
N1271 N 0.47662 1.00512 0.70581 0.0
C1272 C 0.55849 0.04961 0.71019 0.0
C1273 C 0.50415 0.01802 0.7032 0.0
N1274 N 0.58404 1.00306 0.70125 0.0
N1275 N 0.48446 0.06309 0.68049 0.0
H1276 H 0.47336 0.9827 0.711 0.0
H1277 H 0.45714 0.01762 0.70562 0.0
H1278 H 0.48673 0.08464 0.67195 0.0
H1279 H 0.46611 0.05137 0.67231 0.0
H1280 H 0.60434 0.01428 0.69859 0.0
H1281 H 0.5848 0.98107 0.69442 0.0
H1282 H 0.60286 0.05182 0.72625 0.0
H1283 H 0.58576 0.08628 0.72222 0.0
C1284 C 1.01301 0.53709 0.33014 0.0
C1285 C 0.99781 0.56085 0.34452 0.0
C1286 C 0.04909 0.58072 0.35776 0.0
C1287 C 0.06436 0.55625 0.34444 0.0
N1288 N 0.05781 0.5073 0.32448 0.0
N1289 N 1.00371 0.60001 0.38011 0.0
C1290 C 0.04526 0.53328 0.33292 0.0
C1291 C 0.01662 0.5813 0.36029 0.0
N1292 N 0.99697 0.51867 0.31222 0.0
N1293 N 0.06553 0.60352 0.36923 0.0
H1294 H 0.98103 0.59943 0.38512 0.0
H1295 H 0.0158 0.61333 0.39459 0.0
H1296 H 0.0884 0.60235 0.37291 0.0
H1297 H 0.05641 0.62405 0.37438 0.0
H1298 H 1.00675 0.50319 0.29834 0.0
H1299 H 0.97406 0.52073 0.30907 0.0
H1300 H 0.04544 0.48828 0.31953 0.0
H1301 H 0.08071 0.50419 0.32471 0.0
C1302 C 0.5398 0.04671 0.36461 0.0
C1303 C 0.51936 0.06376 0.34673 0.0
C1304 C 0.50141 0.01469 0.32622 0.0
C1305 C 0.5215 0.99749 0.34454 0.0
N1306 N 0.55976 0.99907 0.38199 0.0
N1307 N 0.47648 0.06167 0.31473 0.0
C1308 C 0.54049 0.01427 0.36393 0.0
C1309 C 0.49888 0.04694 0.32907 0.0
N1310 N 0.55888 0.0617 0.38282 0.0
N1311 N 0.48559 1.00075 0.3045 0.0
H1312 H 0.47454 0.08469 0.31453 0.0
H1313 H 0.4583 0.05101 0.30508 0.0
H1314 H 0.48612 0.97805 0.30098 0.0
H1315 H 0.47394 1.01196 0.28788 0.0
H1316 H 0.57792 0.0526 0.3923 0.0
H1317 H 0.55562 0.08373 0.38865 0.0
H1318 H 0.57089 1.0083 0.39994 0.0
H1319 H 0.56448 0.97662 0.37953 0.0
C1320 C 0.71926 0.01826 0.49694 0.0
C1321 C 0.70311 1.00172 0.51958 0.0
C1322 C 0.69043 0.05175 0.54112 0.0
C1323 C 0.7059 0.06828 0.51797 0.0
N1324 N 0.73007 0.06517 0.4705 0.0
N1325 N 0.66815 1.00525 0.55995 0.0
C1326 C 0.71855 0.05078 0.49489 0.0
C1327 C 0.68761 0.01931 0.54089 0.0
N1328 N 0.73719 1.00297 0.47808 0.0
N1329 N 0.67746 0.06717 0.56355 0.0
H1330 H 0.66456 0.98237 0.56014 0.0
H1331 H 0.65334 0.01627 0.57368 0.0
H1332 H 0.67354 0.08992 0.56222 0.0
H1333 H 0.67095 0.05746 0.58372 0.0
H1334 H 0.75217 1.01316 0.46336 0.0
H1335 H 0.73952 0.97999 0.47923 0.0
H1336 H 0.73548 0.05431 0.45098 0.0
H1337 H 0.73156 0.08826 0.46869 0.0
C1338 C 0.04025 0.74388 0.5778 0.0
C1339 C 0.05636 0.72519 0.55806 0.0
C1340 C 1.00578 0.70522 0.54185 0.0
C1341 C 0.98977 0.72654 0.55894 0.0
N1342 N 0.99385 0.76852 0.59098 0.0
N1343 N 0.05283 0.68632 0.52206 0.0
C1344 C 1.00774 0.74608 0.57657 0.0
C1345 C 0.03845 0.70537 0.54047 0.0
N1346 N 0.056 0.75984 0.59812 0.0
N1347 N 0.98973 0.68359 0.5279 0.0
H1348 H 0.07576 0.68278 0.52318 0.0
H1349 H 0.04236 0.67462 0.50519 0.0
H1350 H 0.96653 0.68268 0.52844 0.0
H1351 H 0.99911 0.66532 0.51766 0.0
H1352 H 0.04608 0.77072 0.61578 0.0
H1353 H 0.07923 0.7599 0.59903 0.0
H1354 H 1.00544 0.78621 0.60012 0.0
H1355 H 0.9708 0.77133 0.59095 0.0
C1356 C 0.35963 0.03157 0.5173 0.0
C1357 C 0.34536 0.01463 0.54076 0.0
C1358 C 0.32523 0.06355 0.55855 0.0
C1359 C 0.33997 0.08068 0.53541 0.0
N1360 N 0.37989 0.07924 0.49968 0.0
N1361 N 0.32019 0.0173 0.5877 0.0
C1362 C 0.35936 0.06406 0.51658 0.0
C1363 C 0.33035 0.03167 0.56272 0.0
N1364 N 0.37427 0.0167 0.49554 0.0
N1365 N 0.3048 0.0773 0.57604 0.0
H1366 H 0.32218 0.99447 0.5912 0.0
H1367 H 0.31178 0.02828 0.60596 0.0
H1368 H 0.29947 0.09966 0.57374 0.0
H1369 H 0.29074 0.06598 0.59084 0.0
H1370 H 0.38109 0.02679 0.47565 0.0
H1371 H 0.3786 0.99399 0.49687 0.0
H1372 H 0.39649 0.06897 0.48741 0.0
H1373 H 0.38306 0.1021 0.50128 0.0
C1374 C 0.03931 0.34841 0.49449 0.0
C1375 C 0.05481 0.36486 0.51678 0.0
C1376 C 1.00408 0.37756 0.53791 0.0
C1377 C 0.98832 0.36174 0.51519 0.0
N1378 N 0.99284 0.33131 0.47169 0.0
N1379 N 0.05035 0.40054 0.55567 0.0
C1380 C 1.00668 0.34723 0.49342 0.0
C1381 C 0.03659 0.38057 0.5375 0.0
N1382 N 0.05591 0.33238 0.47499 0.0
N1383 N 0.98814 0.3901 0.56028 0.0
H1384 H 0.07321 0.40492 0.55475 0.0
H1385 H 0.03905 0.41527 0.56919 0.0
H1386 H 0.965 0.39138 0.56036 0.0
H1387 H 0.99772 0.3977 0.57983 0.0
H1388 H 0.04721 0.31693 0.46032 0.0
H1389 H 0.07913 0.33326 0.47444 0.0
H1390 H 1.00319 0.32439 0.45233 0.0
H1391 H 0.97053 0.3248 0.47292 0.0
C1392 C 0.05008 0.26675 0.29152 0.0
C1393 C 0.02586 0.25715 0.31041 0.0
C1394 C 0.99412 0.29445 0.28405 0.0
C1395 C 0.01935 0.30736 0.26885 0.0
N1396 N 0.07079 0.30302 0.25556 0.0
N1397 N 0.97247 0.25321 0.31293 0.0
C1398 C 0.04706 0.2923 0.27157 0.0
C1399 C 0.99714 0.26858 0.30328 0.0
N1400 N 0.07543 0.25012 0.29124 0.0
N1401 N 0.96688 0.3073 0.28027 0.0
H1402 H 0.97394 0.2324 0.3233 0.0
H1403 H 0.9507 0.25871 0.30724 0.0
H1404 H 0.96298 0.32335 0.2638 0.0
H1405 H 0.94849 0.30272 0.29379 0.0
H1406 H 0.09363 0.25433 0.27742 0.0
H1407 H 0.07693 0.22979 0.30255 0.0
H1408 H 0.09264 0.29596 0.25836 0.0
H1409 H 0.0685 0.31992 0.23962 0.0
C1410 C 0.76149 0.03369 0.33004 0.0
C1411 C 0.79045 0.02477 0.32065 0.0
C1412 C 0.76716 0.01433 0.27091 0.0
C1413 C 0.73897 0.02578 0.28021 0.0
N1414 N 0.71359 0.05419 0.31698 0.0
N1415 N 0.82105 1.01016 0.2796 0.0
C1416 C 0.7377 0.03775 0.30924 0.0
C1417 C 0.7933 0.01626 0.29022 0.0
N1418 N 0.75575 0.03712 0.35946 0.0
N1419 N 0.76885 1.00047 0.24424 0.0
H1420 H 0.83991 1.01046 0.29318 0.0
H1421 H 0.82557 1.00675 0.25721 0.0
H1422 H 0.75074 0.99921 0.22979 0.0
H1423 H 0.78749 0.98881 0.23729 0.0
H1424 H 0.73415 0.03864 0.36785 0.0
H1425 H 0.77181 0.03427 0.37568 0.0
H1426 H 0.71238 0.06627 0.33654 0.0
H1427 H 0.69652 0.0585 0.30201 0.0
C1428 C 0.03539 0.78375 0.29339 0.0
C1429 C 0.03403 0.77886 0.32489 0.0
C1430 C 0.02257 0.72565 0.31441 0.0
C1431 C 0.02794 0.7294 0.28313 0.0
N1432 N 0.04399 0.76334 0.24412 0.0
N1433 N 0.03202 0.74193 0.36441 0.0
C1434 C 0.03544 0.7589 0.27295 0.0
C1435 C 0.02952 0.74888 0.33493 0.0
N1436 N 0.03647 0.81231 0.28277 0.0
N1437 N 1.00912 0.70017 0.32497 0.0
H1438 H 0.03616 0.75757 0.38052 0.0
H1439 H 0.033 0.72013 0.37253 0.0
H1440 H 1.00155 0.68312 0.31146 0.0
H1441 H 1.00151 0.69763 0.34677 0.0
H1442 H 0.03406 0.81787 0.26036 0.0
H1443 H 0.03779 0.83059 0.29676 0.0
H1444 H 0.0529 0.78338 0.23611 0.0
H1445 H 0.04446 0.74635 0.22868 0.0
C1446 C 0.30207 0.99638 0.27948 0.0
C1447 C 0.3116 0.02403 0.26687 0.0
C1448 C 0.27242 0.04849 0.2973 0.0
C1449 C 0.2676 0.02192 0.31435 0.0
N1450 N 0.27536 0.96926 0.31887 0.0
N1451 N 0.30421 0.07662 0.26256 0.0
C1452 C 0.28145 0.99542 0.30418 0.0
C1453 C 0.29585 0.05005 0.27514 0.0
N1454 N 0.31308 0.97094 0.26766 0.0
N1455 N 0.2543 0.07211 0.30199 0.0
H1456 H 0.3193 0.07783 0.2449 0.0
H1457 H 0.29696 0.09714 0.26998 0.0
H1458 H 0.23584 0.07037 0.31599 0.0
H1459 H 0.25519 0.0918 0.28956 0.0
H1460 H 0.3063 0.9496 0.27403 0.0
H1461 H 0.32731 0.97151 0.24927 0.0
H1462 H 0.28699 0.94966 0.31563 0.0
H1463 H 0.2587 0.96744 0.33506 0.0
C1464 C 1.00257 0.74147 0.77679 0.0
C1465 C 0.02776 0.72602 0.78878 0.0
C1466 C 0.05879 0.75289 0.75076 0.0
C1467 C 0.03414 0.77006 0.73968 0.0
N1468 N 0.98273 0.78309 0.74767 0.0
N1469 N 0.08103 0.72673 0.79276 0.0
C1470 C 1.00619 0.76523 0.75464 0.0
C1471 C 0.05613 0.73478 0.77745 0.0
N1472 N 0.97474 0.7331 0.78628 0.0
N1473 N 0.0851 0.75284 0.73558 0.0
H1474 H 0.07957 0.71669 0.81368 0.0
H1475 H 0.10243 0.73407 0.78702 0.0
H1476 H 0.08948 0.76631 0.7172 0.0
H1477 H 0.10182 0.73745 0.74005 0.0
H1478 H 0.95517 0.74011 0.77603 0.0
H1479 H 0.97135 0.71791 0.80375 0.0
H1480 H 0.96276 0.783 0.75952 0.0
H1481 H 0.98412 0.79983 0.73157 0.0
C1482 C 0.29047 0.02783 0.79146 0.0
C1483 C 0.31229 0.05048 0.79837 0.0
C1484 C 0.29143 0.08014 0.75586 0.0
C1485 C 0.27281 0.0558 0.74633 0.0
N1486 N 0.24615 1.01237 0.76364 0.0
N1487 N 0.32242 0.10287 0.79416 0.0
C1488 C 0.26984 0.03137 0.76671 0.0
C1489 C 0.30958 0.07798 0.78246 0.0
N1490 N 0.28886 1.00281 0.80893 0.0
N1491 N 0.29085 0.10627 0.74003 0.0
H1492 H 0.33231 0.10286 0.81509 0.0
H1493 H 0.32002 0.12423 0.78537 0.0
H1494 H 0.27362 0.11156 0.7254 0.0
H1495 H 0.30721 0.12277 0.74154 0.0
H1496 H 0.27813 0.9833 0.80251 0.0
H1497 H 0.29802 1.0017 0.83017 0.0
H1498 H 0.24047 0.99581 0.77908 0.0
H1499 H 0.23044 0.01485 0.74681 0.0
C1500 C 1.01069 0.28572 0.78639 0.0
C1501 C 0.03895 0.29852 0.79383 0.0
C1502 C 0.06056 0.26966 0.75151 0.0
C1503 C 0.03233 0.25655 0.7443 0.0
N1504 N 0.98474 0.24284 0.76655 0.0
N1505 N 0.09204 0.28895 0.79066 0.0
C1506 C 1.00855 0.26199 0.76502 0.0
C1507 C 0.06428 0.28666 0.7784 0.0
N1508 N 0.98561 0.29505 0.80056 0.0
N1509 N 0.08462 0.26511 0.73359 0.0
H1510 H 0.09558 0.29567 0.81239 0.0
H1511 H 0.11089 0.27923 0.78149 0.0
H1512 H 0.08485 0.24953 0.71674 0.0
H1513 H 0.10424 0.27763 0.73518 0.0
H1514 H 0.96418 0.2898 0.79317 0.0
H1515 H 0.98614 0.30865 0.81908 0.0
H1516 H 0.96784 0.2445 0.78235 0.0
H1517 H 0.98434 0.2225 0.75584 0.0
C1518 C 0.78349 1.01101 0.75469 0.0
C1519 C 0.78915 0.04019 0.74305 0.0
C1520 C 0.75478 0.0582 0.78289 0.0
C1521 C 0.74327 0.02899 0.78877 0.0
N1522 N 0.74922 0.97664 0.78002 0.0
N1523 N 0.77957 0.09249 0.74822 0.0
C1524 C 0.75846 1.00519 0.7745 0.0
C1525 C 0.77452 0.06397 0.75788 0.0
N1526 N 0.80288 0.98894 0.74811 0.0
N1527 N 0.74824 0.08035 0.80205 0.0
H1528 H 0.79581 0.09795 0.73236 0.0
H1529 H 0.76684 0.11038 0.75517 0.0
H1530 H 0.73771 0.07587 0.82225 0.0
H1531 H 0.7572 0.10175 0.80024 0.0
H1532 H 0.80135 0.96752 0.75714 0.0
H1533 H 0.82298 0.99354 0.73733 0.0
H1534 H 0.75641 0.95867 0.7676 0.0
H1535 H 0.73353 0.97117 0.7964 0.0
C1536 C 0.30589 0.2853 0.06306 0.0
C1537 C 0.3199 0.27876 0.03538 0.0
C1538 C 0.28708 0.31749 1.01198 0.0
C1539 C 0.27643 0.32695 0.04005 0.0
N1540 N 0.2766 0.31931 0.09303 0.0
N1541 N 0.32733 0.29498 0.98434 0.0
C1542 C 0.28614 0.31054 0.06572 0.0
C1543 C 0.31113 0.29634 1.01 0.0
N1544 N 0.31079 0.26681 0.08687 0.0
N1545 N 0.27426 0.32884 0.98686 0.0
H1546 H 0.34652 0.28237 0.98229 0.0
H1547 H 0.32403 0.30929 0.96626 0.0
H1548 H 0.25629 0.34334 0.9877 0.0
H1549 H 0.27894 0.32114 0.96565 0.0
H1550 H 0.29916 0.26805 0.10684 0.0
H1551 H 0.32484 0.24849 0.08586 0.0
H1552 H 0.28559 0.31149 0.11295 0.0
H1553 H 0.26024 0.33541 0.09569 0.0
C1554 C 0.29625 0.78777 0.99866 0.0
C1555 C 0.30918 0.79619 0.02612 0.0
C1556 C 0.27154 0.76337 0.05198 0.0
C1557 C 0.26002 0.75318 0.02428 0.0
N1558 N 0.25285 0.76797 0.97301 0.0
N1559 N 0.30222 0.79929 0.07874 0.0
C1560 C 0.26981 0.76913 0.99812 0.0
C1561 C 0.29468 0.78603 0.0527 0.0
N1562 N 0.30962 0.79694 0.97283 0.0
N1563 N 0.26009 0.75184 0.07782 0.0
H1564 H 0.31769 0.81672 0.07945 0.0
H1565 H 0.29121 0.79537 0.09882 0.0
H1566 H 0.23982 0.74033 0.07862 0.0
H1567 H 0.27047 0.75397 0.09837 0.0
H1568 H 0.3038 0.78862 0.95212 0.0
H1569 H 0.32758 0.81188 0.97248 0.0
H1570 H 0.25751 0.78058 0.95393 0.0
H1571 H 0.23189 0.7577 0.9727 0.0
C1572 C 0.77779 0.30494 0.01982 0.0
C1573 C 0.78819 0.31739 0.04681 0.0
C1574 C 0.76179 0.27567 0.073 0.0
C1575 C 0.74518 0.26803 0.04693 0.0
N1576 N 0.74091 0.27488 0.99379 0.0
N1577 N 0.78822 0.31406 0.1002 0.0
C1578 C 0.75424 0.2826 0.01982 0.0
C1579 C 0.77951 0.30256 0.07367 0.0
N1580 N 0.79169 0.3134 0.99416 0.0
N1581 N 0.76257 0.25638 0.0967 0.0
H1582 H 0.80303 0.33202 0.10167 0.0
H1583 H 0.77948 0.30663 0.1205 0.0
H1584 H 0.7544 0.23467 0.09565 0.0
H1585 H 0.77563 0.26006 0.11544 0.0
H1586 H 0.78709 0.30417 0.97357 0.0
H1587 H 0.81081 0.32673 0.99475 0.0
H1588 H 0.74339 0.28724 0.97417 0.0
H1589 H 0.72691 0.25638 0.99198 0.0
C1590 C 0.76619 0.74523 0.03807 0.0
C1591 C 0.78005 0.74103 1.00978 0.0
C1592 C 0.75145 0.78573 0.99179 0.0
C1593 C 0.73386 0.78649 0.01827 0.0
N1594 N 0.72473 0.7654 0.06672 0.0
N1595 N 0.78544 0.75892 0.95942 0.0
C1596 C 0.74161 0.76588 0.04146 0.0
C1597 C 0.77255 0.76195 0.9867 0.0
N1598 N 0.77674 0.72969 0.06201 0.0
N1599 N 0.74831 0.80831 0.9715 0.0
H1600 H 0.80271 0.74406 0.95558 0.0
H1601 H 0.77837 0.77025 0.94041 0.0
H1602 H 0.73439 0.82628 0.9754 0.0
H1603 H 0.76163 0.81104 0.95268 0.0
H1604 H 0.76951 0.73293 0.0837 0.0
H1605 H 0.79517 0.71586 0.06049 0.0
H1606 H 0.72604 0.74877 0.083 0.0
H1607 H 0.70833 0.7812 0.07062 0.0
C1608 C 0.51564 0.80389 0.82405 0.0
C1609 C 0.52029 0.77338 0.81653 0.0
C1610 C 0.52201 0.79082 0.763 0.0
C1611 C 0.51491 0.82071 0.77065 0.0
N1612 N 0.49713 0.85262 0.8092 0.0
N1613 N 0.52454 0.73808 0.77721 0.0
C1614 C 0.50949 0.82622 0.80139 0.0
C1615 C 0.52254 0.76709 0.78546 0.0
N1616 N 0.51892 0.81241 0.85284 0.0
N1617 N 0.52918 0.78513 0.73415 0.0
H1618 H 0.52526 0.72055 0.79264 0.0
H1619 H 0.52312 0.73113 0.7553 0.0
H1620 H 0.52834 0.80142 0.71743 0.0
H1621 H 0.53788 0.76504 0.72713 0.0
H1622 H 0.51916 0.83457 0.85926 0.0
H1623 H 0.52487 0.79778 0.86982 0.0
H1624 H 0.48976 0.85698 0.83065 0.0
H1625 H 0.49099 0.86876 0.79359 0.0
C1626 C 0.24879 0.55987 0.78578 0.0
C1627 C 0.23465 0.53219 0.77922 0.0
C1628 C 0.26772 0.50837 0.81782 0.0
C1629 C 0.28102 0.53624 0.82515 0.0
N1630 N 0.2894 0.58706 0.80983 0.0
N1631 N 0.23732 0.47903 0.78378 0.0
C1632 C 0.27302 0.56147 0.80712 0.0
C1633 C 0.2463 0.5062 0.79374 0.0
N1634 N 0.23837 0.58506 0.77234 0.0
N1635 N 0.27459 0.48396 0.83472 0.0
H1636 H 0.2231 0.47688 0.76562 0.0
H1637 H 0.24626 0.45897 0.79114 0.0
H1638 H 0.29111 0.48441 0.85097 0.0
H1639 H 0.26309 0.46378 0.83368 0.0
H1640 H 0.24415 0.60647 0.77884 0.0
H1641 H 0.22305 0.58433 0.75502 0.0
H1642 H 0.28704 0.60559 0.79595 0.0
H1643 H 0.30758 0.58866 0.8242 0.0
C1644 C 0.54775 0.23885 0.79747 0.0
C1645 C 0.54261 0.24517 0.76667 0.0
C1646 C 0.53497 0.2985 0.78102 0.0
C1647 C 0.53776 0.29168 0.8121 0.0
N1648 N 0.54034 0.25233 0.84907 0.0
N1649 N 0.52836 0.28145 0.72989 0.0
C1650 C 0.54254 0.26103 0.81996 0.0
C1651 C 0.53545 0.2752 0.75879 0.0
N1652 N 0.55847 0.21157 0.80553 0.0
N1653 N 0.53259 0.32767 0.77253 0.0
H1654 H 0.52907 0.26543 0.71337 0.0
H1655 H 0.51977 0.30169 0.7226 0.0
H1656 H 0.53192 0.34488 0.78781 0.0
H1657 H 0.53359 0.33511 0.75055 0.0
H1658 H 0.56633 0.20654 0.82677 0.0
H1659 H 0.562 0.19465 0.79039 0.0
H1660 H 0.53981 0.23016 0.85607 0.0
H1661 H 0.53595 0.26701 0.86607 0.0
C1662 C 0.80339 0.50576 0.82432 0.0
C1663 C 0.77412 0.51848 0.82452 0.0
C1664 C 0.78485 0.53318 0.77146 0.0
C1665 C 0.81216 0.51659 0.77097 0.0
N1666 N 0.838 0.47665 0.79613 0.0
N1667 N 0.73585 0.54081 0.79421 0.0
C1668 C 0.81837 0.49956 0.79701 0.0
C1669 C 0.76451 0.53125 0.79685 0.0
N1670 N 0.81847 0.50128 0.85028 0.0
N1671 N 0.77806 0.55078 0.74753 0.0
H1672 H 0.72066 0.53968 0.81172 0.0
H1673 H 0.72654 0.54755 0.77406 0.0
H1674 H 0.79064 0.55086 0.728 0.0
H1675 H 0.76079 0.56613 0.74763 0.0
H1676 H 0.84047 0.4939 0.85082 0.0
H1677 H 0.81098 0.50931 0.87049 0.0
H1678 H 0.84168 0.46273 0.81449 0.0
H1679 H 0.84637 0.46856 0.7763 0.0
C1680 C 0.54243 0.23795 0.24612 0.0
C1681 C 0.52629 0.23862 0.27364 0.0
C1682 C 0.51377 0.29172 0.2604 0.0
C1683 C 0.52743 0.2898 0.23167 0.0
N1684 N 0.55363 0.25908 0.19711 0.0
N1685 N 0.49343 0.26653 0.30475 0.0
C1686 C 0.54142 0.26232 0.2247 0.0
C1687 C 0.51137 0.2658 0.28024 0.0
N1688 N 0.56001 0.21398 0.24081 0.0
N1689 N 0.50324 0.31865 0.26901 0.0
H1690 H 0.49147 0.24871 0.3197 0.0
H1691 H 0.47904 0.28393 0.30927 0.0
H1692 H 0.50377 0.33738 0.25504 0.0
H1693 H 0.49604 0.32299 0.2905 0.0
H1694 H 0.5753 0.21289 0.22344 0.0
H1695 H 0.56132 0.1961 0.25562 0.0
H1696 H 0.56005 0.23873 0.18856 0.0
H1697 H 0.55582 0.27654 0.18181 0.0
C1698 C 0.77798 0.52891 0.26666 0.0
C1699 C 0.76889 0.5538 0.24894 0.0
C1700 C 0.80345 0.58557 0.27893 0.0
C1701 C 0.81442 0.56038 0.29488 0.0
N1702 N 0.80736 0.50909 0.30832 0.0
N1703 N 0.76775 0.60691 0.24375 0.0
C1704 C 0.79983 0.53244 0.2902 0.0
C1705 C 0.77996 0.58245 0.25712 0.0
N1706 N 0.76661 0.50158 0.26005 0.0
N1707 N 0.81672 0.61253 0.28368 0.0
H1708 H 0.75077 0.60515 0.22804 0.0
H1709 H 0.77245 0.6287 0.24977 0.0
H1710 H 0.83196 0.61567 0.30085 0.0
H1711 H 0.81335 0.63137 0.27048 0.0
H1712 H 0.77431 0.48164 0.26899 0.0
H1713 H 0.74922 0.49905 0.24496 0.0
H1714 H 0.79717 0.48824 0.30791 0.0
H1715 H 0.82261 0.51152 0.32564 0.0
C1716 C 0.5302 0.76463 0.26939 0.0
C1717 C 0.52611 0.77211 0.23864 0.0
C1718 C 0.51969 0.82509 0.25427 0.0
C1719 C 0.52613 0.81804 0.28475 0.0
N1720 N 0.54112 0.78057 0.32008 0.0
N1721 N 0.51855 0.8112 0.20224 0.0
C1722 C 0.53234 0.78759 0.29181 0.0
C1723 C 0.52141 0.80284 0.23138 0.0
N1724 N 0.53172 0.73528 0.27739 0.0
N1725 N 0.51097 0.85324 0.24695 0.0
H1726 H 0.51494 0.7962 0.18529 0.0
H1727 H 0.52074 0.83305 0.19454 0.0
H1728 H 0.50982 0.87017 0.26227 0.0
H1729 H 0.50228 0.85943 0.22638 0.0
H1730 H 0.53129 0.72763 0.29932 0.0
H1731 H 0.53137 0.71826 0.26187 0.0
H1732 H 0.54949 0.75992 0.32637 0.0
H1733 H 0.54172 0.79618 0.33701 0.0
C1734 C 0.28064 0.5736 0.26273 0.0
C1735 C 0.29062 0.55108 0.24272 0.0
C1736 C 0.2561 0.51573 0.27001 0.0
C1737 C 0.24466 0.53877 0.28868 0.0
N1738 N 0.25486 0.58699 0.30857 0.0
N1739 N 0.29193 0.49888 0.23267 0.0
C1740 C 0.25966 0.56687 0.28674 0.0
C1741 C 0.27963 0.52159 0.24821 0.0
N1742 N 0.29108 0.60199 0.25863 0.0
N1743 N 0.24441 0.4877 0.27332 0.0
H1744 H 0.309 0.50226 0.21724 0.0
H1745 H 0.28719 0.47647 0.23648 0.0
H1746 H 0.23126 0.4814 0.29154 0.0
H1747 H 0.2474 0.47072 0.25819 0.0
H1748 H 0.28183 0.62036 0.26887 0.0
H1749 H 0.30851 0.60731 0.24405 0.0
H1750 H 0.26705 0.60666 0.31063 0.0
H1751 H 0.24086 0.58253 0.32658 0.0
C1752 C 0.77097 0.81015 0.51073 0.0
C1753 C 0.76182 0.82594 0.53635 0.0
C1754 C 0.79852 0.79516 0.56569 0.0
C1755 C 0.80833 0.77983 0.53964 0.0
N1756 N 0.79376 0.76603 0.49012 0.0
N1757 N 0.76191 0.82736 0.58947 0.0
C1758 C 0.79138 0.78539 0.51308 0.0
C1759 C 0.77417 0.81642 0.56414 0.0
N1760 N 0.76082 0.81937 0.4836 0.0
N1761 N 0.81255 0.79005 0.5921 0.0
H1762 H 0.74372 0.84165 0.58885 0.0
H1763 H 0.76739 0.82002 0.61079 0.0
H1764 H 0.82651 0.77212 0.59587 0.0
H1765 H 0.81047 0.80381 0.61038 0.0
H1766 H 0.76951 0.81184 0.46362 0.0
H1767 H 0.74474 0.83585 0.48122 0.0
H1768 H 0.78041 0.7671 0.47122 0.0
H1769 H 0.8063 0.74664 0.49166 0.0
C1770 C 0.81509 0.26832 0.53449 0.0
C1771 C 0.81267 0.2963 0.51928 0.0
C1772 C 0.7628 0.278 0.50106 0.0
C1773 C 0.76463 0.25075 0.51834 0.0
N1774 N 0.78896 0.22889 0.56119 0.0
N1775 N 0.78171 0.32852 0.49014 0.0
C1776 C 0.78973 0.24854 0.53782 0.0
C1777 C 0.78582 0.30117 0.50297 0.0
N1778 N 0.84226 0.25963 0.54489 0.0
N1779 N 0.73856 0.28245 0.48332 0.0
H1780 H 0.79815 0.34511 0.4904 0.0
H1781 H 0.76169 0.33544 0.48078 0.0
H1782 H 0.71906 0.26982 0.48525 0.0
H1783 H 0.73768 0.29879 0.46674 0.0
H1784 H 0.84595 0.23856 0.55408 0.0
H1785 H 0.8617 0.27185 0.54053 0.0
H1786 H 0.80558 0.22824 0.57735 0.0
H1787 H 0.76982 0.21699 0.56724 0.0
C1788 C 0.25898 0.79104 0.58007 0.0
C1789 C 0.23733 0.78951 0.55665 0.0
C1790 C 0.26524 0.83308 0.53347 0.0
C1791 C 0.28208 0.8382 0.55998 0.0
N1792 N 0.29317 0.82086 0.60956 0.0
N1793 N 0.22342 0.80895 0.50841 0.0
C1794 C 0.27816 0.81688 0.58353 0.0
C1795 C 0.24157 0.81055 0.53261 0.0
N1796 N 0.26313 0.76666 0.598 0.0
N1797 N 0.27265 0.84899 0.50845 0.0
H1798 H 0.21028 0.79037 0.50398 0.0
H1799 H 0.22147 0.82604 0.49269 0.0
H1800 H 0.29057 0.86386 0.50787 0.0
H1801 H 0.26345 0.8452 0.48762 0.0
H1802 H 0.27999 0.7653 0.61384 0.0
H1803 H 0.25287 0.74621 0.59401 0.0
H1804 H 0.28835 0.80863 0.62886 0.0
H1805 H 0.30937 0.83739 0.61228 0.0
C1806 C 0.25595 0.30398 0.53043 0.0
C1807 C 0.23165 0.30544 0.50971 0.0
C1808 C 0.25568 0.2634 0.48327 0.0
C1809 C 0.27736 0.25859 0.5061 0.0
N1810 N 0.2986 0.27668 0.5513 0.0
N1811 N 0.20616 0.28027 0.47008 0.0
C1812 C 0.27767 0.27975 0.52961 0.0
C1813 C 0.23108 0.2834 0.4872 0.0
N1814 N 0.25856 0.3261 0.55071 0.0
N1815 N 0.2593 0.24967 0.45666 0.0
H1816 H 0.18699 0.29273 0.47332 0.0
H1817 H 0.20318 0.26287 0.4553 0.0
H1818 H 0.278 0.23692 0.45194 0.0
H1819 H 0.24604 0.25419 0.43816 0.0
H1820 H 0.27672 0.32862 0.56484 0.0
H1821 H 0.24294 0.34308 0.55225 0.0
H1822 H 0.29884 0.2889 0.57075 0.0
H1823 H 0.31543 0.26091 0.55006 0.0
C1824 C 0.11354 0.15337 0.421 0.0
C1825 C 0.09941 0.16149 0.3939 0.0
C1826 C 0.12728 0.1229 0.36779 0.0
C1827 C 0.13919 0.11307 0.39536 0.0
N1828 N 0.14078 0.11582 0.44878 0.0
N1829 N 0.091 0.15332 0.34173 0.0
C1830 C 0.13172 0.12761 0.42211 0.0
C1831 C 0.10573 0.14599 0.36736 0.0
N1832 N 0.10951 0.17017 0.44575 0.0
N1833 N 0.1376 0.11113 0.34192 0.0
H1834 H 0.07697 0.17164 0.33991 0.0
H1835 H 0.09158 0.14056 0.32263 0.0
H1836 H 0.15324 0.09412 0.34136 0.0
H1837 H 0.13244 0.11958 0.32092 0.0
H1838 H 0.1218 0.16747 0.46519 0.0
H1839 H 0.09542 0.18843 0.44635 0.0
H1840 H 0.13345 0.12329 0.46929 0.0
H1841 H 0.15362 0.09665 0.45055 0.0
C1842 C 0.95891 0.10089 0.40414 0.0
C1843 C 0.95394 0.12843 0.38948 0.0
C1844 C 0.90474 0.11159 0.37301 0.0
C1845 C 0.90819 0.08565 0.39086 0.0
N1846 N 0.93694 0.05583 0.42523 0.0
N1847 N 0.92342 0.16068 0.3593 0.0
C1848 C 0.935 0.0801 0.40663 0.0
C1849 C 0.92725 0.13392 0.37357 0.0
N1850 N 0.98638 0.09483 0.41577 0.0
N1851 N 0.8804 0.11435 0.35492 0.0
H1852 H 0.94059 0.17638 0.35686 0.0
H1853 H 0.90314 0.16786 0.35073 0.0
H1854 H 0.8635 0.0983 0.354 0.0
H1855 H 0.87777 0.13136 0.33926 0.0
H1856 H 0.99238 0.07407 0.42423 0.0
H1857 H 1.00415 0.10997 0.41477 0.0
H1858 H 0.95456 0.05227 0.43984 0.0
H1859 H 0.91984 0.04011 0.42777 0.0
C1860 C 0.95818 0.90985 0.36906 0.0
C1861 C 0.97101 0.90067 0.39645 0.0
C1862 C 0.94181 0.93797 0.4228 0.0
C1863 C 0.92636 0.94451 0.39609 0.0
N1864 N 0.91789 0.93584 0.34405 0.0
N1865 N 0.97519 0.90522 0.44965 0.0
C1866 C 0.93428 0.93054 0.36915 0.0
C1867 C 0.96287 0.91455 0.4234 0.0
N1868 N 0.96875 0.89866 0.34304 0.0
N1869 N 0.93726 0.95509 0.44727 0.0
H1870 H 0.99285 0.89038 0.45077 0.0
H1871 H 0.96719 0.91122 0.47043 0.0
H1872 H 0.92247 0.97286 0.44745 0.0
H1873 H 0.94997 0.95358 0.46655 0.0
H1874 H 0.96266 0.90669 0.32213 0.0
H1875 H 0.98536 0.88261 0.34225 0.0
H1876 H 0.92019 0.92393 0.32454 0.0
H1877 H 0.90037 0.95092 0.34323 0.0
C1878 C 0.13536 0.95986 0.37056 0.0
C1879 C 0.16079 0.95836 0.38928 0.0
C1880 C 0.14751 0.90684 0.40204 0.0
C1881 C 0.11933 0.91032 0.3882 0.0
N1882 N 0.08455 0.94326 0.36326 0.0
N1883 N 0.18679 0.93181 0.42859 0.0
C1884 C 0.1127 0.93759 0.37329 0.0
C1885 C 0.16587 0.93218 0.40652 0.0
N1886 N 0.13309 0.98202 0.34962 0.0
N1887 N 0.1572 0.87924 0.41033 0.0
H1888 H 0.19916 0.95047 0.43469 0.0
H1889 H 0.18915 0.91387 0.4433 0.0
H1890 H 0.14519 0.85986 0.40576 0.0
H1891 H 0.1787 0.87545 0.41824 0.0
H1892 H 0.11625 0.98248 0.33368 0.0
H1893 H 0.14981 0.99795 0.34597 0.0
H1894 H 0.0782 0.96406 0.35509 0.0
H1895 H 0.06671 0.92847 0.3658 0.0
C1896 C 0.14331 0.9425 0.69131 0.0
C1897 C 0.15312 0.95555 0.66421 0.0
C1898 C 0.11858 0.92339 0.6366 0.0
C1899 C 0.10791 0.91091 0.66385 0.0
N1900 N 0.10618 0.91337 0.71778 0.0
N1901 N 0.14418 0.96474 0.6122 0.0
C1902 C 0.11875 0.92221 0.69136 0.0
C1903 C 0.13938 0.94753 0.63706 0.0
N1904 N 0.1586 0.94813 0.71694 0.0
N1905 N 0.10783 0.9132 0.61022 0.0
H1906 H 0.15686 0.98426 0.61259 0.0
H1907 H 0.13295 0.96184 0.59221 0.0
H1908 H 0.08934 0.89912 0.60879 0.0
H1909 H 0.11778 0.91815 0.58978 0.0
H1910 H 0.15495 0.93649 0.73681 0.0
H1911 H 0.17691 0.96257 0.71782 0.0
H1912 H 0.11 0.92442 0.73761 0.0
H1913 H 0.09124 0.89571 0.72021 0.0
C1914 C 0.10369 0.11855 0.64528 0.0
C1915 C 0.10023 0.13853 0.66904 0.0
C1916 C 0.13877 0.11191 0.69706 0.0
C1917 C 0.14564 0.0955 0.67129 0.0
N1918 N 0.13744 0.0869 0.61887 0.0
N1919 N 0.11593 0.15601 0.71706 0.0
C1920 C 0.12867 0.09949 0.64491 0.0
C1921 C 0.11786 0.1355 0.69505 0.0
N1922 N 0.08272 0.11731 0.62329 0.0
N1923 N 0.15199 0.10467 0.7235 0.0
H1924 H 0.10104 0.17367 0.71641 0.0
H1925 H 0.13064 0.15687 0.73492 0.0
H1926 H 0.1671 0.08726 0.72567 0.0
H1927 H 0.14587 0.11392 0.74367 0.0
H1928 H 0.08269 0.10116 0.60692 0.0
H1929 H 0.06351 0.13023 0.62336 0.0
H1930 H 0.12779 0.09215 0.59844 0.0
H1931 H 0.15612 0.07349 0.61691 0.0
C1932 C 0.9342 0.14808 0.63554 0.0
C1933 C 0.95203 0.15412 0.66097 0.0
C1934 C 0.92219 0.11764 0.69031 0.0
C1935 C 0.90523 0.11091 0.66463 0.0
N1936 N 0.89645 0.11716 0.6121 0.0
N1937 N 0.96414 0.14402 0.71234 0.0
C1938 C 0.91142 0.12568 0.63713 0.0
C1939 C 0.94644 0.13856 0.68826 0.0
N1940 N 0.93921 0.1637 0.60965 0.0
N1941 N 0.9142 0.10482 0.71696 0.0
H1942 H 0.98026 0.16086 0.71268 0.0
H1943 H 0.96387 0.13127 0.73179 0.0
H1944 H 0.89658 0.0896 0.71912 0.0
H1945 H 0.92344 0.11045 0.7373 0.0
H1946 H 0.92457 0.16392 0.59175 0.0
H1947 H 0.95777 0.17744 0.60617 0.0
H1948 H 0.90209 0.12409 0.59066 0.0
H1949 H 0.87909 0.10158 0.61237 0.0
C1950 C 0.9795 0.94933 0.65293 0.0
C1951 C 0.97694 0.92495 0.67311 0.0
C1952 C 0.92906 0.94323 0.69117 0.0
C1953 C 0.93132 0.96753 0.67077 0.0
N1954 N 0.96067 0.99719 0.63622 0.0
N1955 N 0.95433 0.90278 0.71665 0.0
C1956 C 0.95735 0.97184 0.6531 0.0
C1957 C 0.9532 0.92315 0.69384 0.0
N1958 N 1.00227 0.9501 0.63265 0.0
N1959 N 0.90367 0.93911 0.70768 0.0
H1960 H 0.97215 0.88824 0.71946 0.0
H1961 H 0.93916 0.902 0.7342 0.0
H1962 H 0.88638 0.95447 0.70805 0.0
H1963 H 0.89903 0.91979 0.71993 0.0
H1964 H 1.00357 0.96521 0.61495 0.0
H1965 H 0.01933 0.93448 0.63258 0.0
H1966 H 0.98036 1.00315 0.62529 0.0
H1967 H 0.94432 0.01347 0.63461 0.0
C1968 C 0.41717 0.11769 0.14785 0.0
C1969 C 0.39275 0.10967 0.16647 0.0
C1970 C 0.36546 0.15377 0.149 0.0
C1971 C 0.38916 0.16069 0.12917 0.0
N1972 N 0.43427 0.14526 0.10442 0.0
N1973 N 0.34143 0.11676 0.18091 0.0
C1974 C 0.41426 0.14172 0.12727 0.0
C1975 C 0.36619 0.12673 0.1659 0.0
N1976 N 0.44299 0.10188 0.14921 0.0
N1977 N 0.34263 0.17341 0.15218 0.0
H1978 H 0.34127 0.09763 0.19426 0.0
H1979 H 0.3205 0.12637 0.17869 0.0
H1980 H 0.34136 0.19318 0.13984 0.0
H1981 H 0.3263 0.17132 0.16859 0.0
H1982 H 0.46295 0.10911 0.13952 0.0
H1983 H 0.44485 0.08214 0.16133 0.0
H1984 H 0.45113 0.13019 0.09997 0.0
H1985 H 0.43242 0.16158 0.08788 0.0
C1986 C 0.9393 0.41746 0.14429 0.0
C1987 C 0.9569 0.39141 0.14726 0.0
C1988 C 0.92912 0.36847 0.10623 0.0
C1989 C 0.91204 0.39476 0.10297 0.0
N1990 N 0.90446 0.44623 0.11455 0.0
N1991 N 0.97207 0.34404 0.12852 0.0
C1992 C 0.91831 0.41987 0.12068 0.0
C1993 C 0.95295 0.36753 0.12732 0.0
N1994 N 0.9421 0.43966 0.16457 0.0
N1995 N 0.92189 0.34412 0.08979 0.0
H1996 H 0.98909 0.34235 0.14421 0.0
H1997 H 0.97247 0.32724 0.11288 0.0
H1998 H 0.90516 0.34439 0.0737 0.0
H1999 H 0.93113 0.32321 0.09313 0.0
H2000 H 0.92823 0.45804 0.16539 0.0
H2001 H 0.95692 0.43874 0.18234 0.0
H2002 H 0.91044 0.46638 0.12404 0.0
H2003 H 0.88809 0.44846 0.09827 0.0
C2004 C 0.69288 0.94972 0.14032 0.0
C2005 C 0.66538 0.96369 0.1469 0.0
C2006 C 0.64128 0.93592 0.10674 0.0
C2007 C 0.66757 0.91897 0.1029 0.0
N2008 N 0.71832 0.90869 0.11661 0.0
N2009 N 0.61262 0.96841 0.13827 0.0
C2010 C 0.69351 0.92582 0.11964 0.0
C2011 C 0.63938 0.95635 0.13058 0.0
N2012 N 0.71835 0.95929 0.15399 0.0
N2013 N 0.61863 0.93358 0.08661 0.0
H2014 H 0.61058 0.98458 0.15453 0.0
H2015 H 0.59226 0.9611 0.12983 0.0
H2016 H 0.62004 0.92014 0.068 0.0
H2017 H 0.6 0.94724 0.0865 0.0
H2018 H 0.73961 0.95209 0.14845 0.0
H2019 H 0.71843 0.97633 0.16949 0.0
H2020 H 0.73693 0.91019 0.13031 0.0
H2021 H 0.71957 0.89146 0.10139 0.0
C2022 C 0.08519 0.68135 0.12105 0.0
C2023 C 0.09358 0.67794 0.15137 0.0
C2024 C 0.14589 0.68234 0.13568 0.0
C2025 C 0.13736 0.67747 0.10596 0.0
N2026 N 0.09794 0.67085 0.07004 0.0
N2027 N 0.13431 0.67259 0.18677 0.0
C2028 C 0.10672 0.67687 0.09837 0.0
C2029 C 0.12458 0.67819 0.15863 0.0
N2030 N 0.05702 0.69011 0.11393 0.0
N2031 N 0.17429 0.69157 0.14203 0.0
H2032 H 0.12022 0.66903 0.20454 0.0
H2033 H 0.15664 0.66884 0.19192 0.0
H2034 H 0.18997 0.69651 0.12548 0.0
H2035 H 0.18094 0.6979 0.16322 0.0
H2036 H 0.05032 0.69485 0.09222 0.0
H2037 H 0.04192 0.69676 0.13009 0.0
H2038 H 0.0757 0.66714 0.06434 0.0
H2039 H 0.11293 0.66715 0.0528 0.0
C2040 C 0.40703 0.97294 0.92953 0.0
C2041 C 0.39002 0.97152 0.90309 0.0
C2042 C 0.3712 0.9219 0.91724 0.0
C2043 C 0.38656 0.92415 0.94464 0.0
N2044 N 0.41815 0.95195 0.97805 0.0
N2045 N 0.35286 0.94726 0.87304 0.0
C2046 C 0.404 0.94983 0.95123 0.0
C2047 C 0.37135 0.94664 0.89719 0.0
N2048 N 0.42736 0.99553 0.93307 0.0
N2049 N 0.35661 0.89606 0.91034 0.0
H2050 H 0.35219 0.96514 0.85805 0.0
H2051 H 0.33647 0.93129 0.869 0.0
H2052 H 0.35456 0.87807 0.92512 0.0
H2053 H 0.34803 0.89162 0.88937 0.0
H2054 H 0.44298 0.99619 0.95012 0.0
H2055 H 0.4303 1.01284 0.91762 0.0
H2056 H 0.42741 0.97161 0.98596 0.0
H2057 H 0.41982 0.93433 0.9932 0.0
C2058 C 0.12268 0.402 0.94691 0.0
C2059 C 0.15185 0.39039 0.94347 0.0
C2060 C 0.13923 0.37458 0.8928 0.0
C2061 C 0.11057 0.38731 0.8959 0.0
N2062 N 0.07758 0.41931 0.92284 0.0
N2063 N 0.18963 0.36956 0.91192 0.0
C2064 C 0.10295 0.40261 0.92218 0.0
C2065 C 0.1607 0.37802 0.91595 0.0
N2066 N 0.11378 0.41279 0.97373 0.0
N2067 N 0.14547 0.35806 0.86832 0.0
H2068 H 0.2055 0.36993 0.92883 0.0
H2069 H 0.19844 0.3638 0.8914 0.0
H2070 H 0.13041 0.35523 0.85093 0.0
H2071 H 0.16464 0.34541 0.86609 0.0
H2072 H 0.09168 0.41763 0.97875 0.0
H2073 H 0.12807 0.41545 0.99175 0.0
H2074 H 0.07236 0.43367 0.93998 0.0
H2075 H 0.06302 0.4212 0.90488 0.0
C2076 C 0.6613 0.11861 0.97922 0.0
C2077 C 0.67475 0.14651 0.97233 0.0
C2078 C 0.69055 0.12854 0.92402 0.0
C2079 C 0.67282 0.10266 0.92885 0.0
N2080 N 0.63957 0.07328 0.96005 0.0
N2081 N 0.70145 0.17916 0.93843 0.0
C2082 C 0.65813 0.09739 0.95639 0.0
C2083 C 0.68934 0.15178 0.94484 0.0
N2084 N 0.65118 0.11263 1.00739 0.0
N2085 N 0.7093 0.13033 0.90005 0.0
H2086 H 0.70236 0.19626 0.95385 0.0
H2087 H 0.70912 0.18546 0.91738 0.0
H2088 H 0.71169 0.11291 0.88519 0.0
H2089 H 0.72467 0.14754 0.89659 0.0
H2090 H 0.64394 0.09166 0.01455 0.0
H2091 H 0.65234 0.12805 0.02444 0.0
H2092 H 0.62555 0.07018 0.97832 0.0
H2093 H 0.63639 0.05727 0.94383 0.0
C2094 C 0.96121 0.63942 0.94231 0.0
C2095 C 0.97068 0.66454 0.92496 0.0
C2096 C 0.93359 0.6952 0.95074 0.0
C2097 C 0.9213 0.66928 0.9646 0.0
N2098 N 0.92109 0.61553 0.96972 0.0
N2099 N 0.96595 0.7166 0.91252 0.0
C2100 C 0.93481 0.64116 0.95986 0.0
C2101 C 0.95686 0.69252 0.9292 0.0
N2102 N 0.97673 0.61339 0.94158 0.0
N2103 N 0.92366 0.72252 0.959 0.0
H2104 H 0.98464 0.71631 0.8987 0.0
H2105 H 0.95434 0.73653 0.91147 0.0
H2106 H 0.90724 0.72522 0.97518 0.0
H2107 H 0.93345 0.74251 0.952 0.0
H2108 H 0.97356 0.59623 0.9571 0.0
H2109 H 0.9942 0.60927 0.92706 0.0
H2110 H 0.92781 0.59436 0.96364 0.0
H2111 H 0.90092 0.61485 0.98112 0.0
C2112 C 0.14127 0.36085 0.11033 0.0
C2113 C 0.14847 0.38826 0.09576 0.0
C2114 C 0.11121 0.41383 0.12638 0.0
C2115 C 0.10377 0.38634 0.14066 0.0
N2116 N 0.10813 0.33308 0.14377 0.0
N2117 N 0.1382 0.44037 0.08727 0.0
C2118 C 0.11766 0.35963 0.13177 0.0
C2119 C 0.13269 0.41457 0.10293 0.0
N2120 N 0.15746 0.3361 0.10401 0.0
N2121 N 0.09797 0.43942 0.1356 0.0
H2122 H 0.15497 0.44271 0.07139 0.0
H2123 H 0.12514 0.4593 0.08861 0.0
H2124 H 0.08023 0.43966 0.15061 0.0
H2125 H 0.10516 0.4607 0.12946 0.0
H2126 H 0.15604 0.31623 0.11607 0.0
H2127 H 0.17358 0.33579 0.08727 0.0
H2128 H 0.11494 0.31244 0.13627 0.0
H2129 H 0.09181 0.33151 0.16028 0.0
C2130 C 0.15072 0.62958 0.95451 0.0
C2131 C 0.16305 0.65818 0.96012 0.0
C2132 C 0.1275 0.68076 0.92526 0.0
C2133 C 0.11334 0.65263 0.92209 0.0
N2134 N 0.10832 0.60108 0.9368 0.0
N2135 N 0.16204 0.71144 0.95307 0.0
C2136 C 0.12425 0.62718 0.93734 0.0
C2137 C 0.15103 0.68392 0.94619 0.0
N2138 N 0.16411 0.60466 0.96574 0.0
N2139 N 0.11948 0.70409 0.90723 0.0
H2140 H 0.18062 0.71459 0.96662 0.0
H2141 H 0.15182 0.73122 0.94666 0.0
H2142 H 0.10263 0.70259 0.89137 0.0
H2143 H 0.13115 0.7242 0.90612 0.0
H2144 H 0.15843 0.58316 0.95942 0.0
H2145 H 0.18245 0.60537 0.9798 0.0
H2146 H 0.11325 0.58257 0.94999 0.0
H2147 H 0.08834 0.59869 0.92521 0.0
C2148 C 0.36107 0.14466 0.97109 0.0
C2149 C 0.3871 0.1456 0.989 0.0
C2150 C 0.40954 0.10686 0.9583 0.0
C2151 C 0.38609 0.11009 0.93734 0.0
N2152 N 0.33936 0.13223 0.9233 0.0
N2153 N 0.43601 0.12726 1.00051 0.0
C2154 C 0.36143 0.12854 0.9439 0.0
C2155 C 0.41113 0.12626 0.98302 0.0
N2156 N 0.33632 0.15979 0.97971 0.0
N2157 N 0.42982 0.08461 0.95501 0.0
H2158 H 0.43696 0.1396 0.01997 0.0
H2159 H 0.45597 0.11695 0.99518 0.0
H2160 H 0.42881 0.06948 0.93768 0.0
H2161 H 0.44582 0.07925 0.97089 0.0
H2162 H 0.31575 0.15813 0.96914 0.0
H2163 H 0.33557 0.17192 0.99923 0.0
H2164 H 0.32259 0.14797 0.925 0.0
H2165 H 0.33884 0.12085 0.90329 0.0
C2166 C 0.93818 0.36345 0.91768 0.0
C2167 C 0.9669 0.3755 0.92315 0.0
C2168 C 0.95153 0.38985 0.97312 0.0
C2169 C 0.92167 0.38187 0.96586 0.0
N2170 N 0.8861 0.36023 0.93204 0.0
N2171 N 1.00163 0.40065 0.95517 0.0
C2172 C 0.91487 0.3683 0.93838 0.0
C2173 C 0.97402 0.38825 0.95088 0.0
N2174 N 0.93361 0.34658 0.89302 0.0
N2175 N 0.95834 0.39952 1.00099 0.0
H2176 H 0.01887 0.39923 0.93971 0.0
H2177 H 1.00716 0.41377 0.97324 0.0
H2178 H 0.94239 0.40334 0.0173 0.0
H2179 H 0.98007 0.40212 1.00872 0.0
H2180 H 0.91395 0.33495 0.88872 0.0
H2181 H 0.95066 0.34193 0.878 0.0
H2182 H 0.87891 0.35399 0.91104 0.0
H2183 H 0.86888 0.36076 0.94763 0.0
C2184 C 0.64062 0.96138 0.92734 0.0
C2185 C 0.66595 0.96284 0.90819 0.0
C2186 C 0.69063 0.92476 0.93892 0.0
C2187 C 0.66423 0.92127 0.95615 0.0
N2188 N 0.61307 0.93393 0.96553 0.0
N2189 N 0.7141 0.94459 0.89392 0.0
C2190 C 0.63901 0.93912 0.95017 0.0
C2191 C 0.69073 0.94414 0.91349 0.0
N2192 N 0.61812 0.98148 0.92389 0.0
N2193 N 0.71566 0.90958 0.94713 0.0
H2194 H 0.71509 0.95899 0.87555 0.0
H2195 H 0.73152 0.92947 0.8946 0.0
H2196 H 0.71614 0.89528 0.9656 0.0
H2197 H 0.73648 0.91282 0.93728 0.0
H2198 H 0.60095 0.98402 0.93921 0.0
H2199 H 0.61743 0.99704 0.90653 0.0
H2200 H 0.5927 0.94327 0.95973 0.0
H2201 H 0.6115 0.91882 0.9833 0.0
C2202 C 0.94679 0.63855 0.11668 0.0
C2203 C 0.95487 0.66199 0.1358 0.0
C2204 C 0.9128 0.69167 0.11733 0.0
C2205 C 0.90549 0.6686 0.09747 0.0
N2206 N 0.92058 0.6242 0.07218 0.0
N2207 N 0.94904 0.7128 0.15127 0.0
C2208 C 0.92389 0.64316 0.09543 0.0
C2209 C 0.93906 0.68927 0.13502 0.0
N2210 N 0.96088 0.61177 0.1189 0.0
N2211 N 0.8941 0.71533 0.11996 0.0
H2212 H 0.96746 0.71159 0.16532 0.0
H2213 H 0.9404 0.73414 0.14935 0.0
H2214 H 0.87503 0.71786 0.10693 0.0
H2215 H 0.89623 0.73135 0.13629 0.0
H2216 H 0.95336 0.59271 0.10825 0.0
H2217 H 0.97908 0.6081 0.13285 0.0
H2218 H 0.93528 0.60699 0.06782 0.0
H2219 H 0.90491 0.62744 0.05541 0.0
C2220 C 0.3693 0.94211 0.13222 0.0
C2221 C 0.39184 0.96448 0.13161 0.0
C2222 C 0.41247 0.94414 0.08573 0.0
C2223 C 0.38968 0.92204 0.08623 0.0
N2224 N 0.34259 0.9039 0.10527 0.0
N2225 N 0.43153 0.9905 0.10548 0.0
C2226 C 0.36694 0.92221 0.10813 0.0
C2227 C 0.41219 0.96685 0.10744 0.0
N2228 N 0.35028 0.93972 0.15596 0.0
N2229 N 0.4354 0.94232 0.06576 0.0
H2230 H 0.43319 1.00669 0.12175 0.0
H2231 H 0.44454 0.99526 0.0868 0.0
H2232 H 0.43634 0.92611 0.04946 0.0
H2233 H 0.45457 0.95553 0.0665 0.0
H2234 H 0.33619 0.92151 0.15973 0.0
H2235 H 0.34952 0.95532 0.17286 0.0
H2236 H 0.32383 0.90479 0.11888 0.0
H2237 H 0.33987 0.88957 0.08743 0.0
C2238 C 0.64562 0.13357 0.11095 0.0
C2239 C 0.66402 0.15894 0.11525 0.0
C2240 C 0.68281 0.13754 0.16206 0.0
C2241 C 0.66596 0.11123 0.15678 0.0
N2242 N 0.63192 0.08331 0.12587 0.0
N2243 N 0.70247 0.18445 0.14247 0.0
C2244 C 0.64769 0.10892 0.13101 0.0
C2245 C 0.68313 0.16086 0.14026 0.0
N2246 N 0.625 0.13376 0.08853 0.0
N2247 N 0.69849 0.14023 0.18795 0.0
H2248 H 0.70325 0.20189 0.12696 0.0
H2249 H 0.71924 0.18591 0.15835 0.0
H2250 H 0.70052 0.12296 0.20349 0.0
H2251 H 0.70823 0.16002 0.19492 0.0
H2252 H 0.60843 0.11763 0.08607 0.0
H2253 H 0.62287 0.15132 0.0733 0.0
H2254 H 0.62189 0.07847 0.10566 0.0
H2255 H 0.62951 0.0661 0.14144 0.0
C2256 C 0.5955 0.63168 0.91218 0.0
C2257 C 0.59994 0.65763 0.89433 0.0
C2258 C 0.65109 0.64193 0.88298 0.0
C2259 C 0.64584 0.61493 0.89891 0.0
N2260 N 0.61231 0.5824 0.92646 0.0
N2261 N 0.62963 0.68523 0.85862 0.0
C2262 C 0.61773 0.60923 0.91267 0.0
C2263 C 0.62717 0.6622 0.87868 0.0
N2264 N 0.57081 0.62924 0.93003 0.0
N2265 N 0.67894 0.64824 0.87202 0.0
H2266 H 0.61216 0.69978 0.8542 0.0
H2267 H 0.64772 0.68826 0.84433 0.0
H2268 H 0.69665 0.63343 0.87365 0.0
H2269 H 0.68512 0.66893 0.86318 0.0
H2270 H 0.56786 0.6126 0.94611 0.0
H2271 H 0.55415 0.64525 0.93053 0.0
H2272 H 0.59119 0.57534 0.93338 0.0
H2273 H 0.62866 0.56635 0.9297 0.0
C2274 C 0.41801 0.60944 0.85019 0.0
C2275 C 0.42153 0.58445 0.86941 0.0
C2276 C 0.46542 0.60796 0.89176 0.0
C2277 C 0.45834 0.63495 0.87663 0.0
N2278 N 0.42864 0.66175 0.84076 0.0
N2279 N 0.45727 0.55454 0.89547 0.0
C2280 C 0.43521 0.63566 0.85516 0.0
C2281 C 0.44794 0.58201 0.8864 0.0
N2282 N 0.39945 0.60731 0.82628 0.0
N2283 N 0.48839 0.60731 0.91169 0.0
H2284 H 0.4467 0.53518 0.88828 0.0
H2285 H 0.47734 0.55066 0.90638 0.0
H2286 H 0.50274 0.62536 0.91497 0.0
H2287 H 0.49238 0.58943 0.92605 0.0
H2288 H 0.39728 0.62391 0.81009 0.0
H2289 H 0.38917 0.58725 0.82065 0.0
H2290 H 0.4098 0.66464 0.82759 0.0
H2291 H 0.44108 0.68125 0.84351 0.0
C2292 C 0.43995 0.4529 0.90819 0.0
C2293 C 0.41182 0.44779 0.89454 0.0
C2294 C 0.42962 0.39977 0.87613 0.0
C2295 C 0.45726 0.40424 0.89097 0.0
N2296 N 0.4868 0.43233 0.92561 0.0
N2297 N 0.37803 0.41486 0.86933 0.0
C2298 C 0.46198 0.43018 0.90807 0.0
C2299 C 0.4061 0.42071 0.87969 0.0
N2300 N 0.44562 0.47956 0.92139 0.0
N2301 N 0.4263 0.37607 0.85769 0.0
H2302 H 0.36063 0.43001 0.87088 0.0
H2303 H 0.37134 0.39432 0.86116 0.0
H2304 H 0.4431 0.36058 0.85432 0.0
H2305 H 0.40797 0.37294 0.8439 0.0
H2306 H 0.46675 0.48637 0.92822 0.0
H2307 H 0.42941 0.49579 0.92411 0.0
H2308 H 0.49009 0.44894 0.94115 0.0
H2309 H 0.5032 0.41605 0.92654 0.0
C2310 C 0.6139 0.44053 0.85364 0.0
C2311 C 0.5968 0.43223 0.87895 0.0
C2312 C 0.62178 0.46998 0.90855 0.0
C2313 C 0.63897 0.47875 0.88325 0.0
N2314 N 0.6464 0.47759 0.83024 0.0
N2315 N 0.57672 0.44576 0.92648 0.0
C2316 C 0.63332 0.46572 0.85522 0.0
C2317 C 0.59813 0.44934 0.90502 0.0
N2318 N 0.61273 0.42355 0.82874 0.0
N2319 N 0.62945 0.47901 0.93643 0.0
H2320 H 0.55869 0.43111 0.92424 0.0
H2321 H 0.57507 0.45965 0.94474 0.0
H2322 H 0.64765 0.4927 0.941 0.0
H2323 H 0.61953 0.47027 0.95565 0.0
H2324 H 0.62721 0.42641 0.81079 0.0
H2325 H 0.59821 0.40543 0.82676 0.0
H2326 H 0.6413 0.47072 0.80884 0.0
H2327 H 0.66037 0.49628 0.83081 0.0
C2328 C 0.58069 0.44944 0.14323 0.0
C2329 C 0.57483 0.42886 0.16673 0.0
C2330 C 0.61362 0.45315 0.19691 0.0
C2331 C 0.62222 0.47086 0.1719 0.0
N2332 N 0.61503 0.48529 0.12061 0.0
N2333 N 0.58557 0.41044 0.21602 0.0
C2334 C 0.60573 0.46921 0.14501 0.0
C2335 C 0.59092 0.43086 0.19382 0.0
N2336 N 0.56207 0.44999 0.11922 0.0
N2337 N 0.62693 0.458 0.22373 0.0
H2338 H 0.56819 0.3949 0.21514 0.0
H2339 H 0.59903 0.40793 0.23468 0.0
H2340 H 0.64368 0.47397 0.22658 0.0
H2341 H 0.61987 0.44804 0.24358 0.0
H2342 H 0.56318 0.46604 0.10234 0.0
H2343 H 0.54359 0.4358 0.11759 0.0
H2344 H 0.60629 0.48256 0.09941 0.0
H2345 H 0.633 0.50018 0.12102 0.0
C2346 C 0.61352 0.63275 0.1561 0.0
C2347 C 0.61879 0.65893 0.17249 0.0
C2348 C 0.66435 0.63757 0.19344 0.0
C2349 C 0.66033 0.61244 0.17513 0.0
N2350 N 0.6344 0.58871 0.13459 0.0
N2351 N 0.65021 0.68838 0.20412 0.0
C2352 C 0.63578 0.61068 0.15528 0.0
C2353 C 0.64454 0.662 0.19043 0.0
N2354 N 0.58687 0.62859 0.14185 0.0
N2355 N 0.68634 0.63752 0.21443 0.0
H2356 H 0.63569 0.70636 0.20284 0.0
H2357 H 0.67011 0.69319 0.21502 0.0
H2358 H 0.70086 0.61976 0.21736 0.0
H2359 H 0.68872 0.65384 0.23044 0.0
H2360 H 0.58037 0.60841 0.13269 0.0
H2361 H 0.57003 0.64443 0.14126 0.0
H2362 H 0.61904 0.58853 0.11725 0.0
H2363 H 0.65024 0.57204 0.13283 0.0
C2364 C 0.44146 0.60643 0.14261 0.0
C2365 C 0.43054 0.59608 0.17076 0.0
C2366 C 0.46501 0.63088 0.1956 0.0
C2367 C 0.47574 0.64099 0.16748 0.0
N2368 N 0.48073 0.63241 0.11517 0.0
N2369 N 0.43693 0.59337 0.22376 0.0
C2370 C 0.46613 0.62664 0.14135 0.0
C2371 C 0.44407 0.60667 0.19717 0.0
N2372 N 0.42698 0.59905 0.11701 0.0
N2373 N 0.4735 0.64547 0.22067 0.0
H2374 H 0.42195 0.5755 0.22542 0.0
H2375 H 0.44779 0.59809 0.2436 0.0
H2376 H 0.48921 0.66273 0.2204 0.0
H2377 H 0.46378 0.64166 0.24142 0.0
H2378 H 0.43151 0.60924 0.09653 0.0
H2379 H 0.4088 0.5846 0.11623 0.0
H2380 H 0.4768 0.62057 0.09582 0.0
H2381 H 0.49901 0.64692 0.11366 0.0
C2382 C 0.40363 0.43983 0.19501 0.0
C2383 C 0.3902 0.44903 0.16786 0.0
C2384 C 0.40689 0.40285 0.14506 0.0
C2385 C 0.42669 0.39802 0.16908 0.0
N2386 N 0.43829 0.40698 0.22045 0.0
N2387 N 0.38074 0.43951 0.11577 0.0
C2388 C 0.42325 0.41499 0.19526 0.0
C2389 C 0.39183 0.4304 0.14263 0.0
N2390 N 0.39656 0.45407 0.2207 0.0
N2391 N 0.40151 0.38079 0.1252 0.0
H2392 H 0.37024 0.45977 0.11226 0.0
H2393 H 0.38453 0.42802 0.09619 0.0
H2394 H 0.40943 0.35926 0.1284 0.0
H2395 H 0.38563 0.38253 0.1084 0.0
H2396 H 0.40363 0.44725 0.24169 0.0
H2397 H 0.38124 0.47136 0.22141 0.0
H2398 H 0.44065 0.42058 0.23883 0.0
H2399 H 0.44814 0.38619 0.22303 0.0
C2400 C 0.85947 0.61243 0.66075 0.0
C2401 C 0.88759 0.60329 0.67187 0.0
C2402 C 0.91252 0.63974 0.63913 0.0
C2403 C 0.88482 0.64573 0.62502 0.0
N2404 N 0.83214 0.63561 0.62027 0.0
N2405 N 0.94141 0.60479 0.6681 0.0
C2406 C 0.85827 0.63162 0.63537 0.0
C2407 C 0.91429 0.61608 0.66024 0.0
N2408 N 0.83391 0.6033 0.67493 0.0
N2409 N 0.93692 0.65744 0.6335 0.0
H2410 H 0.94399 0.58741 0.68337 0.0
H2411 H 0.96125 0.61095 0.65747 0.0
H2412 H 0.93656 0.67576 0.61911 0.0
H2413 H 0.95664 0.65597 0.64564 0.0
H2414 H 0.81287 0.61147 0.66972 0.0
H2415 H 0.83405 0.58967 0.6939 0.0
H2416 H 0.81275 0.62344 0.62483 0.0
H2417 H 0.83047 0.64928 0.60143 0.0
C2418 C 0.44454 0.92446 0.59997 0.0
C2419 C 0.42711 0.89838 0.59419 0.0
C2420 C 0.45827 0.87016 0.62968 0.0
C2421 C 0.47529 0.89622 0.63533 0.0
N2422 N 0.49086 0.94497 0.61928 0.0
N2423 N 0.42322 0.84494 0.59726 0.0
C2424 C 0.47059 0.92214 0.61793 0.0
C2425 C 0.43596 0.87073 0.60701 0.0
N2426 N 0.43512 0.95197 0.59091 0.0
N2427 N 0.4622 0.84538 0.64708 0.0
H2428 H 0.40741 0.8446 0.58027 0.0
H2429 H 0.43045 0.82391 0.60381 0.0
H2430 H 0.47899 0.8439 0.66302 0.0
H2431 H 0.44793 0.82698 0.64673 0.0
H2432 H 0.44529 0.97166 0.59765 0.0
H2433 H 0.41542 0.9559 0.57948 0.0
H2434 H 0.49047 0.96344 0.60504 0.0
H2435 H 0.5099 0.94374 0.63256 0.0
C2436 C 0.13597 0.43376 0.61944 0.0
C2437 C 0.16272 0.42219 0.60779 0.0
C2438 C 0.19156 0.45172 0.64354 0.0
C2439 C 0.16501 0.46644 0.65194 0.0
N2440 N 0.11194 0.47331 0.64551 0.0
N2441 N 0.21648 0.42139 0.60692 0.0
C2442 C 0.13726 0.45805 0.6391 0.0
C2443 C 0.19072 0.43118 0.61959 0.0
N2444 N 0.10925 0.42044 0.61291 0.0
N2445 N 0.21757 0.45755 0.65823 0.0
H2446 H 0.21672 0.40632 0.58954 0.0
H2447 H 0.23755 0.42966 0.6122 0.0
H2448 H 0.21926 0.47349 0.67476 0.0
H2449 H 0.23694 0.4453 0.65542 0.0
H2450 H 0.08919 0.42597 0.62306 0.0
H2451 H 0.10757 0.40148 0.59992 0.0
H2452 H 0.09211 0.47093 0.6337 0.0
H2453 H 0.11107 0.48942 0.66176 0.0
C2454 C 0.60239 0.15172 0.62187 0.0
C2455 C 0.59959 0.17512 0.64246 0.0
C2456 C 0.64546 0.1986 0.62248 0.0
C2457 C 0.64807 0.17523 0.60177 0.0
N2458 N 0.62478 0.13425 0.57635 0.0
N2459 N 0.61507 0.22332 0.65946 0.0
C2460 C 0.6253 0.15312 0.59991 0.0
C2461 C 0.62 0.19948 0.64167 0.0
N2462 N 0.58344 0.12774 0.62372 0.0
N2463 N 0.66797 0.21918 0.62461 0.0
H2464 H 0.59693 0.22432 0.67395 0.0
H2465 H 0.62742 0.24301 0.65832 0.0
H2466 H 0.68663 0.21928 0.61072 0.0
H2467 H 0.66924 0.23501 0.64119 0.0
H2468 H 0.58673 0.10814 0.61217 0.0
H2469 H 0.56514 0.12684 0.63809 0.0
H2470 H 0.60719 0.11965 0.57208 0.0
H2471 H 0.64053 0.13515 0.55926 0.0
C2472 C 0.88544 0.43731 0.41738 0.0
C2473 C 0.87624 0.44142 0.44701 0.0
C2474 C 0.86923 0.49444 0.43614 0.0
C2475 C 0.8836 0.49076 0.40825 0.0
N2476 N 0.91297 0.45911 0.37656 0.0
N2477 N 0.86226 0.47472 0.48617 0.0
C2478 C 0.8938 0.46228 0.39994 0.0
C2479 C 0.86865 0.47019 0.45691 0.0
N2480 N 0.88584 0.40944 0.40581 0.0
N2481 N 0.8554 0.52053 0.44245 0.0
H2482 H 0.86138 0.45754 0.50194 0.0
H2483 H 0.85993 0.49582 0.4951 0.0
H2484 H 0.85457 0.53838 0.42745 0.0
H2485 H 0.84233 0.52335 0.46135 0.0
H2486 H 0.89141 0.40533 0.38383 0.0
H2487 H 0.87702 0.39105 0.41731 0.0
H2488 H 0.92267 0.43887 0.37133 0.0
H2489 H 0.92216 0.47712 0.36476 0.0
C2490 C 0.61005 0.91442 0.40444 0.0
C2491 C 0.59316 0.88877 0.39661 0.0
C2492 C 0.61162 0.86371 0.44236 0.0
C2493 C 0.62373 0.89118 0.45227 0.0
N2494 N 0.63058 0.94413 0.4438 0.0
N2495 N 0.58264 0.83673 0.40569 0.0
C2496 C 0.62143 0.91699 0.43381 0.0
C2497 C 0.59532 0.86273 0.41498 0.0
N2498 N 0.61783 0.93526 0.38334 0.0
N2499 N 0.61614 0.83846 0.45901 0.0
H2500 H 0.57594 0.83357 0.38378 0.0
H2501 H 0.57917 0.81813 0.41932 0.0
H2502 H 0.62612 0.83873 0.47993 0.0
H2503 H 0.61103 0.8171 0.45196 0.0
H2504 H 0.63187 0.95329 0.38762 0.0
H2505 H 0.61506 0.93197 0.36069 0.0
H2506 H 0.62592 0.96395 0.43249 0.0
H2507 H 0.64065 0.9474 0.4643 0.0
C2508 C 0.17657 0.65988 0.41175 0.0
C2509 C 0.16644 0.63027 0.41766 0.0
C2510 C 0.15026 0.64505 0.46763 0.0
C2511 C 0.16293 0.67377 0.46273 0.0
N2512 N 0.19007 0.70836 0.43135 0.0
N2513 N 0.14475 0.59405 0.45182 0.0
C2514 C 0.17639 0.68124 0.435 0.0
C2515 C 0.15385 0.62265 0.44586 0.0
N2516 N 0.1864 0.66759 0.38387 0.0
N2517 N 0.13298 0.63977 0.49229 0.0
H2518 H 0.14333 0.57765 0.4358 0.0
H2519 H 0.13975 0.5861 0.47311 0.0
H2520 H 0.12883 0.65585 0.50818 0.0
H2521 H 0.1203 0.62052 0.49575 0.0
H2522 H 0.19063 0.6894 0.37693 0.0
H2523 H 0.18892 0.65226 0.36691 0.0
H2524 H 0.20316 0.71426 0.41304 0.0
H2525 H 0.19 0.72456 0.44771 0.0
C2526 C 0.43802 0.14743 0.41912 0.0
C2527 C 0.45424 0.1728 0.40866 0.0
C2528 C 0.42767 0.20324 0.44552 0.0
C2529 C 0.40875 0.17868 0.4529 0.0
N2530 N 0.3937 0.12795 0.44366 0.0
N2531 N 0.46185 0.22596 0.40962 0.0
C2532 C 0.41333 0.15095 0.43879 0.0
C2533 C 0.44862 0.20099 0.4215 0.0
N2534 N 0.44691 0.11967 0.41106 0.0
N2535 N 0.4255 0.22882 0.46133 0.0
H2536 H 0.47682 0.22543 0.3919 0.0
H2537 H 0.4562 0.24745 0.41567 0.0
H2538 H 0.40981 0.23149 0.47822 0.0
H2539 H 0.44064 0.24644 0.4593 0.0
H2540 H 0.43798 0.10012 0.42021 0.0
H2541 H 0.4655 0.11608 0.39766 0.0
H2542 H 0.39386 0.10839 0.43156 0.0
H2543 H 0.37543 0.12937 0.45787 0.0
C2544 C 0.63695 0.87388 0.65889 0.0
C2545 C 0.61101 0.89165 0.6589 0.0
C2546 C 0.62409 0.91182 0.60953 0.0
C2547 C 0.64876 0.8923 0.60838 0.0
N2548 N 0.67702 0.85222 0.63009 0.0
N2549 N 0.57702 0.92401 0.63254 0.0
C2550 C 0.65482 0.87267 0.63263 0.0
C2551 C 0.60375 0.90958 0.63372 0.0
N2552 N 0.64474 0.85866 0.68416 0.0
N2553 N 0.6209 0.93369 0.58833 0.0
H2554 H 0.56177 0.92397 0.65006 0.0
H2555 H 0.56884 0.93418 0.61332 0.0
H2556 H 0.63526 0.9364 0.57024 0.0
H2557 H 0.60561 0.95088 0.59002 0.0
H2558 H 0.66492 0.8477 0.68682 0.0
H2559 H 0.63175 0.85874 0.70343 0.0
H2560 H 0.68087 0.83536 0.64567 0.0
H2561 H 0.69026 0.85059 0.61111 0.0
C2562 C 0.59475 0.14898 0.43857 0.0
C2563 C 0.59558 0.17104 0.4154 0.0
C2564 C 0.63705 0.1964 0.44068 0.0
C2565 C 0.63826 0.17266 0.46168 0.0
N2566 N 0.61955 0.12608 0.48104 0.0
N2567 N 0.61739 0.21575 0.39407 0.0
C2568 C 0.61714 0.14912 0.46101 0.0
C2569 C 0.61669 0.1948 0.41641 0.0
N2570 N 0.57289 0.12755 0.43895 0.0
N2571 N 0.65523 0.22065 0.44439 0.0
H2572 H 0.6015 0.21674 0.37721 0.0
H2573 H 0.63434 0.23152 0.39136 0.0
H2574 H 0.66991 0.22241 0.46226 0.0
H2575 H 0.6542 0.24 0.4315 0.0
H2576 H 0.56859 0.11352 0.45709 0.0
H2577 H 0.55792 0.12429 0.42166 0.0
H2578 H 0.60777 0.10611 0.47961 0.0
H2579 H 0.63458 0.12643 0.49873 0.0
C2580 C 0.87969 0.66318 0.42386 0.0
C2581 C 0.89406 0.63547 0.42885 0.0
C2582 C 0.90379 0.64933 0.48079 0.0
C2583 C 0.88956 0.67714 0.47571 0.0
N2584 N 0.86804 0.7126 0.44152 0.0
N2585 N 0.91739 0.60065 0.46252 0.0
C2586 C 0.8788 0.68467 0.44693 0.0
C2587 C 0.90531 0.6281 0.45751 0.0
N2588 N 0.86488 0.66801 0.39772 0.0
N2589 N 0.91796 0.64418 0.50725 0.0
H2590 H 0.92151 0.58556 0.44569 0.0
H2591 H 0.92216 0.592 0.48352 0.0
H2592 H 0.91808 0.65931 0.52451 0.0
H2593 H 0.93171 0.62614 0.51157 0.0
H2594 H 0.85148 0.68633 0.39343 0.0
H2595 H 0.86352 0.65212 0.38115 0.0
H2596 H 0.86356 0.72102 0.42036 0.0
H2597 H 0.86526 0.72828 0.45811 0.0
C2598 C 0.43004 0.91383 0.46562 0.0
C2599 C 0.40183 0.8998 0.46158 0.0
C2600 C 0.41961 0.87708 0.41585 0.0
C2601 C 0.44716 0.89262 0.41886 0.0
N2602 N 0.47664 0.93025 0.44339 0.0
N2603 N 0.36784 0.87174 0.43134 0.0
C2604 C 0.45205 0.91196 0.44304 0.0
C2605 C 0.39601 0.88254 0.43618 0.0
N2606 N 0.43573 0.92933 0.49094 0.0
N2607 N 0.41646 0.85632 0.39414 0.0
H2608 H 0.35028 0.87485 0.4462 0.0
H2609 H 0.36125 0.8617 0.41169 0.0
H2610 H 0.43351 0.85134 0.37926 0.0
H2611 H 0.39804 0.84219 0.39241 0.0
H2612 H 0.45704 0.93607 0.49731 0.0
H2613 H 0.41931 0.93443 0.50641 0.0
H2614 H 0.47958 0.94735 0.45848 0.0
H2615 H 0.49316 0.9303 0.42709 0.0
C2616 C 0.14286 0.47978 0.43677 0.0
C2617 C 0.16957 0.48458 0.42015 0.0
C2618 C 0.19286 0.44271 0.4473 0.0
C2619 C 0.16641 0.43852 0.4644 0.0
N2620 N 0.11913 0.45746 0.48038 0.0
N2621 N 0.22185 0.47473 0.41385 0.0
C2622 C 0.1424 0.45857 0.4607 0.0
C2623 C 0.19516 0.46729 0.42681 0.0
N2624 N 0.11724 0.49393 0.4285 0.0
N2625 N 0.21518 0.4223 0.4494 0.0
H2626 H 0.22425 0.49263 0.39898 0.0
H2627 H 0.242 0.46501 0.4198 0.0
H2628 H 0.21467 0.40454 0.46454 0.0
H2629 H 0.23331 0.42186 0.43494 0.0
H2630 H 0.09635 0.48859 0.43736 0.0
H2631 H 0.1162 0.50928 0.41098 0.0
H2632 H 0.10233 0.47329 0.48084 0.0
H2633 H 0.11827 0.44236 0.49822 0.0
C2634 C 0.42464 0.21144 0.60941 0.0
C2635 C 0.40995 0.18556 0.59905 0.0
C2636 C 0.43575 0.15499 0.63633 0.0
C2637 C 0.45224 0.18046 0.64536 0.0
N2638 N 0.46447 0.23259 0.63915 0.0
N2639 N 0.40662 0.13201 0.59756 0.0
C2640 C 0.44741 0.20858 0.63135 0.0
C2641 C 0.41677 0.15716 0.61121 0.0
N2642 N 0.41598 0.23878 0.59912 0.0
N2643 N 0.43826 0.12853 0.65143 0.0
H2644 H 0.3938 0.13247 0.57825 0.0
H2645 H 0.41353 0.11066 0.60333 0.0
H2646 H 0.45326 0.12488 0.66864 0.0
H2647 H 0.42382 0.11056 0.6483 0.0
H2648 H 0.42336 0.25876 0.60802 0.0
H2649 H 0.39966 0.24154 0.58284 0.0
H2650 H 0.46471 0.25269 0.62737 0.0
H2651 H 0.47956 0.23209 0.65675 0.0
C2652 C 0.89364 0.44433 0.58036 0.0
C2653 C 0.88203 0.41543 0.58688 0.0
C2654 C 0.87277 0.42962 0.63846 0.0
C2655 C 0.88275 0.45898 0.63147 0.0
N2656 N 0.89764 0.49595 0.59505 0.0
N2657 N 0.8557 0.38191 0.62021 0.0
C2658 C 0.89162 0.46684 0.60215 0.0
C2659 C 0.87017 0.40847 0.6154 0.0
N2660 N 0.90814 0.44984 0.55404 0.0
N2661 N 0.86708 0.42149 0.66733 0.0
H2662 H 0.85326 0.36592 0.60381 0.0
H2663 H 0.84382 0.37676 0.63954 0.0
H2664 H 0.86802 0.43634 0.68488 0.0
H2665 H 0.86354 0.39956 0.6743 0.0
H2666 H 0.91988 0.46945 0.54937 0.0
H2667 H 0.91073 0.43389 0.53769 0.0
H2668 H 0.90114 0.50368 0.57339 0.0
H2669 H 0.89652 0.51292 0.61058 0.0
C2670 C 0.14516 0.61431 0.61764 0.0
C2671 C 0.16739 0.6103 0.63967 0.0
C2672 C 0.19009 0.65853 0.62656 0.0
C2673 C 0.16747 0.66278 0.605 0.0
N2674 N 0.12679 0.64352 0.57583 0.0
N2675 N 0.21403 0.62504 0.66184 0.0
C2676 C 0.14612 0.64015 0.59911 0.0
C2677 C 0.191 0.63122 0.6429 0.0
N2678 N 0.12263 0.59375 0.6152 0.0
N2679 N 0.20989 0.6811 0.63213 0.0
H2680 H 0.21494 0.60555 0.67464 0.0
H2681 H 0.23329 0.638 0.66339 0.0
H2682 H 0.21044 0.70092 0.61978 0.0
H2683 H 0.22483 0.681 0.64979 0.0
H2684 H 0.10364 0.59687 0.60232 0.0
H2685 H 0.12238 0.57364 0.62709 0.0
H2686 H 0.11265 0.62676 0.56834 0.0
H2687 H 0.12615 0.66268 0.56252 0.0
C2688 C 0.10004 0.3444 0.38628 0.0
C2689 C 0.09963 0.31326 0.38335 0.0
C2690 C 0.15377 0.31255 0.38217 0.0
C2691 C 0.15241 0.33967 0.39668 0.0
N2692 N 0.1298 0.388 0.39512 0.0
N2693 N 0.12512 0.26998 0.3654 0.0
C2694 C 0.12788 0.35822 0.39094 0.0
C2695 C 0.12636 0.29816 0.37603 0.0
N2696 N 0.07431 0.36021 0.38686 0.0
N2697 N 0.18081 0.29952 0.37868 0.0
H2698 H 0.10484 0.25994 0.36025 0.0
H2699 H 0.14374 0.25723 0.36075 0.0
H2700 H 0.2003 0.31056 0.38521 0.0
H2701 H 0.18394 0.27893 0.36897 0.0
H2702 H 0.07428 0.38319 0.38988 0.0
H2703 H 0.05353 0.3501 0.38358 0.0
H2704 H 0.14995 0.3986 0.40026 0.0
H2705 H 0.14995 0.3986 0.40026 0.0
C2706 C 0.72903 0.15492 0.39094 0.0
C2707 C 0.74885 0.17752 0.39935 0.0
C2708 C 0.79093 0.14615 0.39223 0.0
C2709 C 0.77091 0.12119 0.39517 0.0
N2710 N 0.72037 0.10163 0.39328 0.0
N2711 N 0.79476 0.19998 0.38494 0.0
C2712 C 0.73959 0.12531 0.39253 0.0
C2713 C 0.77844 0.17487 0.39055 0.0
N2714 N 0.69999 0.16178 0.38571 0.0
N2715 N 0.82116 0.14288 0.39427 0.0
H2716 H 0.78487 0.22089 0.38618 0.0
H2717 H 0.81667 0.19979 0.37717 0.0
H2718 H 0.83135 0.12263 0.39882 0.0
H2719 H 0.8361 0.16075 0.39418 0.0
H2720 H 0.6841 0.14635 0.37874 0.0
H2721 H 0.69285 0.1838 0.38679 0.0
H2722 H 0.69726 0.10377 0.3933 0.0
H2723 H 0.72769 0.07985 0.39579 0.0
C2724 C 0.91728 0.77208 0.41764 0.0
C2725 C 0.94199 0.7533 0.419 0.0
C2726 C 0.95027 0.76318 0.46982 0.0
C2727 C 0.93103 0.78846 0.46762 0.0
N2728 N 0.89505 0.8163 0.43842 0.0
N2729 N 0.9599 0.71414 0.45007 0.0
C2730 C 0.91368 0.79259 0.44117 0.0
C2731 C 0.94878 0.74201 0.44705 0.0
N2732 N 0.90016 0.77224 0.39274 0.0
N2733 N 0.97201 0.76096 0.49089 0.0
H2734 H 0.96109 0.7001 0.43181 0.0
H2735 H 0.96541 0.70499 0.47076 0.0
H2736 H 0.9781 0.77859 0.50443 0.0
H2737 H 0.98695 0.74334 0.49148 0.0
H2738 H 0.88097 0.7849 0.39031 0.0
H2739 H 0.90486 0.75782 0.37536 0.0
H2740 H 0.88299 0.82109 0.41922 0.0
H2741 H 0.89343 0.83238 0.45483 0.0
C2742 C 0.26288 0.94258 0.47048 0.0
C2743 C 0.27634 0.97137 0.46782 0.0
C2744 C 0.26738 0.97895 0.52088 0.0
C2745 C 0.25971 0.94881 0.5233 0.0
N2746 N 0.23302 0.90889 0.50148 0.0
N2747 N 0.29427 0.01605 0.49181 0.0
C2748 C 0.25009 0.93388 0.49801 0.0
C2749 C 0.2789 0.9897 0.49339 0.0
N2750 N 0.26471 0.92282 0.44781 0.0
N2751 N 0.26808 0.99528 0.54607 0.0
H2752 H 0.30955 0.0208 0.47486 0.0
H2753 H 0.29413 0.03201 0.50824 0.0
H2754 H 0.26053 0.98625 0.56628 0.0
H2755 H 0.27387 0.01763 0.54669 0.0
H2756 H 0.25659 0.90107 0.4494 0.0
H2757 H 0.27769 0.92706 0.42893 0.0
H2758 H 0.22443 0.89696 0.4837 0.0
H2759 H 0.22597 0.90183 0.52261 0.0
C2760 C 0.14719 0.79549 0.71459 0.0
C2761 C 0.13486 0.8236 0.7098 0.0
C2762 C 0.16374 0.83061 0.66542 0.0
C2763 C 0.16327 0.7992 0.66312 0.0
N2764 N 0.17045 0.75316 0.69116 0.0
N2765 N 0.16016 0.86997 0.70166 0.0
C2766 C 0.16078 0.78178 0.68982 0.0
C2767 C 0.1527 0.84247 0.6921 0.0
N2768 N 0.14528 0.78268 0.74206 0.0
N2769 N 0.1739 0.84841 0.64282 0.0
H2770 H 0.1529 0.8771 0.72241 0.0
H2771 H 0.17505 0.88388 0.69011 0.0
H2772 H 0.18393 0.83963 0.62396 0.0
H2773 H 0.1721 0.87152 0.64325 0.0
H2774 H 0.15504 0.76245 0.74769 0.0
H2775 H 0.13448 0.79362 0.7593 0.0
H2776 H 0.16627 0.73892 0.70917 0.0
H2777 H 0.18397 0.74435 0.67467 0.0
C2778 C 0.26785 0.1767 0.63285 0.0
C2779 C 0.2474 0.15326 0.62926 0.0
C2780 C 0.23727 0.16836 0.57838 0.0
C2781 C 0.26357 0.18548 0.57999 0.0
N2782 N 0.28932 0.22115 0.61034 0.0
N2783 N 0.20332 0.1348 0.60497 0.0
C2784 C 0.27369 0.1952 0.60802 0.0
C2785 C 0.22833 0.15233 0.60421 0.0
N2786 N 0.28303 0.17958 0.6589 0.0
N2787 N 0.22243 0.16653 0.55204 0.0
H2788 H 0.19689 0.12324 0.62424 0.0
H2789 H 0.18838 0.13288 0.58743 0.0
H2790 H 0.22888 0.17962 0.53372 0.0
H2791 H 0.2039 0.15294 0.54854 0.0
H2792 H 0.30073 0.19447 0.66164 0.0
H2793 H 0.27807 0.16618 0.67745 0.0
H2794 H 0.29623 0.22984 0.63055 0.0
H2795 H 0.29216 0.23531 0.59203 0.0
C2796 C 0.93865 0.32493 0.6562 0.0
C2797 C 0.93409 0.30014 0.67439 0.0
C2798 C 0.89917 0.2795 0.63974 0.0
C2799 C 0.91471 0.29616 0.6172 0.0
N2800 N 0.94676 0.33933 0.60519 0.0
N2801 N 0.89358 0.27107 0.69338 0.0
C2802 C 0.93326 0.32095 0.62561 0.0
C2803 C 0.90758 0.28421 0.66973 0.0
N2804 N 0.95164 0.34971 0.66757 0.0
N2805 N 0.8779 0.25892 0.63249 0.0
H2806 H 0.90193 0.27381 0.71485 0.0
H2807 H 0.87355 0.25927 0.69183 0.0
H2808 H 0.87177 0.25479 0.61057 0.0
H2809 H 0.86725 0.24516 0.64808 0.0
H2810 H 0.95462 0.3694 0.65537 0.0
H2811 H 0.95714 0.35053 0.69011 0.0
H2812 H 0.96192 0.35593 0.61105 0.0
H2813 H 0.94489 0.33682 0.58242 0.0
C2814 C 0.75531 0.96671 0.66809 0.0
C2815 C 0.78438 0.9631 0.67829 0.0
C2816 C 0.79236 0.92157 0.64628 0.0
C2817 C 0.76874 0.93305 0.62877 0.0
N2818 N 0.72286 0.96145 0.62567 0.0
N2819 N 0.82053 0.92698 0.69229 0.0
C2820 C 0.74801 0.95352 0.64084 0.0
C2821 C 0.799 0.93624 0.67306 0.0
N2822 N 0.73702 0.98574 0.68253 0.0
N2823 N 0.80903 0.89838 0.63652 0.0
H2824 H 0.82511 0.93889 0.71154 0.0
H2825 H 0.83215 0.90719 0.69022 0.0
H2826 H 0.80417 0.88726 0.61689 0.0
H2827 H 0.82782 0.89048 0.64751 0.0
H2828 H 0.7148 0.9892 0.67687 0.0
H2829 H 0.74431 0.99646 0.70169 0.0
H2830 H 0.7084 0.97796 0.63259 0.0
H2831 H 0.7168 0.95216 0.6055 0.0
C2832 C 0.38646 0.12766 0.31873 0.0
C2833 C 0.37959 0.12379 0.28849 0.0
C2834 C 0.38998 0.17575 0.27798 0.0
C2835 C 0.40526 0.17618 0.305 0.0
N2836 N 0.39981 0.16233 0.35659 0.0
N2837 N 0.35704 0.14936 0.24605 0.0
C2838 C 0.39592 0.15607 0.3275 0.0
C2839 C 0.37487 0.14949 0.27037 0.0
N2840 N 0.38521 0.10447 0.33845 0.0
N2841 N 0.39211 0.19932 0.25882 0.0
H2842 H 0.3432 0.13143 0.24081 0.0
H2843 H 0.3432 0.13143 0.24081 0.0
H2844 H 0.40407 0.21846 0.26453 0.0
H2845 H 0.38202 0.19924 0.23792 0.0
H2846 H 0.39211 0.10666 0.36047 0.0
H2847 H 0.37704 0.08359 0.33241 0.0
H2848 H 0.40734 0.18317 0.36349 0.0
H2849 H 0.40734 0.18317 0.36349 0.0
C2850 C 0.89871 0.40657 0.29425 0.0
C2851 C 0.90996 0.40468 0.26533 0.0
C2852 C 0.89178 0.45338 0.25214 0.0
C2853 C 0.8876 0.45793 0.28279 0.0
N2854 N 0.86688 0.43417 0.32707 0.0
N2855 N 0.9004 0.41649 0.21424 0.0
C2856 C 0.88406 0.4329 0.30212 0.0
C2857 C 0.90016 0.42469 0.2432 0.0
N2858 N 0.90424 0.38433 0.31429 0.0
N2859 N 0.88873 0.4763 0.23227 0.0
H2860 H 0.90689 0.39517 0.20817 0.0
H2861 H 0.89129 0.42949 0.19727 0.0
H2862 H 0.88058 0.49694 0.23864 0.0
H2863 H 0.89436 0.47472 0.20988 0.0
H2864 H 0.89907 0.38572 0.33678 0.0
H2865 H 0.91492 0.36487 0.30789 0.0
H2866 H 0.86256 0.4156 0.34055 0.0
H2867 H 0.8535 0.45238 0.33161 0.0
C2868 C 0.65185 0.90048 0.22314 0.0
C2869 C 0.6715 0.90601 0.24684 0.0
C2870 C 0.63453 0.88923 0.28169 0.0
C2871 C 0.61276 0.89817 0.26009 0.0
N2872 N 0.60037 0.90209 0.20775 0.0
N2873 N 0.6878 0.88231 0.29122 0.0
C2874 C 0.62106 0.89959 0.22972 0.0
C2875 C 0.66498 0.89106 0.27336 0.0
N2876 N 0.66167 0.90134 0.19464 0.0
N2877 N 0.62639 0.88108 0.30984 0.0
H2878 H 0.70992 0.88593 0.28459 0.0
H2879 H 0.68483 0.8704 0.31103 0.0
H2880 H 0.60423 0.8783 0.316 0.0
H2881 H 0.64153 0.87719 0.32695 0.0
H2882 H 0.68429 0.90375 0.18942 0.0
H2883 H 0.68429 0.90375 0.18942 0.0
H2884 H 0.60649 0.90423 0.18541 0.0
H2885 H 0.5775 0.90169 0.21216 0.0
C2886 C 0.1471 0.6456 0.27267 0.0
C2887 C 0.1239 0.63246 0.25602 0.0
C2888 C 0.15623 0.59232 0.2414 0.0
C2889 C 0.17331 0.60004 0.26605 0.0
N2890 N 0.19928 0.64148 0.2868 0.0
N2891 N 0.11158 0.60302 0.21302 0.0
C2892 C 0.17413 0.62998 0.27444 0.0
C2893 C 0.1302 0.60896 0.23616 0.0
N2894 N 0.14271 0.67122 0.28787 0.0
N2895 N 0.16312 0.56722 0.22638 0.0
H2896 H 0.09387 0.61691 0.20767 0.0
H2897 H 0.11502 0.58611 0.1979 0.0
H2898 H 0.18222 0.55517 0.23192 0.0
H2899 H 0.15045 0.55863 0.20911 0.0
H2900 H 0.15841 0.68004 0.30242 0.0
H2901 H 0.12282 0.68303 0.28655 0.0
H2902 H 0.20146 0.66365 0.2929 0.0
H2903 H 0.21852 0.6287 0.2885 0.0
C2904 C 0.3935 0.96361 0.72596 0.0
C2905 C 0.38061 0.96187 0.75451 0.0
C2906 C 0.38139 0.90815 0.75441 0.0
C2907 C 0.402 0.9107 0.73105 0.0
N2908 N 0.41444 0.93534 0.68519 0.0
N2909 N 0.34527 0.93398 0.78454 0.0
C2910 C 0.4025 0.93661 0.71296 0.0
C2911 C 0.36829 0.93446 0.76472 0.0
N2912 N 0.39743 0.99055 0.7122 0.0
N2913 N 0.37726 0.88136 0.76836 0.0
H2914 H 0.33478 0.95356 0.79085 0.0
H2915 H 0.33485 0.91442 0.79192 0.0
H2916 H 0.38742 0.86224 0.76036 0.0
H2917 H 0.36481 0.87853 0.78778 0.0
H2918 H 0.40845 0.99359 0.69201 0.0
H2919 H 0.38838 1.00987 0.72093 0.0
H2920 H 0.41821 0.95377 0.67148 0.0
H2921 H 0.41948 0.91491 0.67572 0.0
C2922 C 0.14186 0.3718 0.75176 0.0
C2923 C 0.11288 0.37137 0.74013 0.0
C2924 C 0.11712 0.42175 0.72442 0.0
C2925 C 0.13787 0.42548 0.74839 0.0
N2926 N 0.17718 0.40313 0.77812 0.0
N2927 N 0.09055 0.3853 0.69426 0.0
C2928 C 0.15345 0.40015 0.75945 0.0
C2929 C 0.10744 0.39255 0.71817 0.0
N2930 N 0.15531 0.34573 0.75896 0.0
N2931 N 0.106 0.44533 0.70898 0.0
H2932 H 0.08245 0.36358 0.69187 0.0
H2933 H 0.08651 0.39998 0.67663 0.0
H2934 H 0.1144 0.46666 0.71138 0.0
H2935 H 0.08827 0.44348 0.69417 0.0
H2936 H 0.1769 0.34449 0.76739 0.0
H2937 H 0.14468 0.32546 0.75464 0.0
H2938 H 0.18767 0.38508 0.78825 0.0
H2939 H 0.18573 0.42385 0.78411 0.0
C2940 C 0.68118 0.13681 0.79961 0.0
C2941 C 0.68023 0.10883 0.7857 0.0
C2942 C 0.66277 0.13229 0.74055 0.0
C2943 C 0.65183 0.15512 0.75871 0.0
N2944 N 0.65602 0.18414 0.80269 0.0
N2945 N 0.68133 0.08165 0.7403 0.0
C2946 C 0.66369 0.15958 0.78713 0.0
C2947 C 0.67546 0.10732 0.75487 0.0
N2948 N 0.69785 0.14111 0.82448 0.0
N2949 N 0.65891 0.13386 0.71053 0.0
H2950 H 0.6919 0.06388 0.751 0.0
H2951 H 0.67575 0.07801 0.7182 0.0
H2952 H 0.65 0.1527 0.70021 0.0
H2953 H 0.66687 0.11802 0.69594 0.0
H2954 H 0.69976 0.1616 0.83484 0.0
H2955 H 0.71269 0.12506 0.83219 0.0
H2956 H 0.6614 0.18706 0.82498 0.0
H2957 H 0.64336 0.20106 0.79296 0.0
C2958 C 0.89486 0.63547 0.82191 0.0
C2959 C 0.92202 0.62545 0.83419 0.0
C2960 C 0.89813 0.57986 0.85134 0.0
C2961 C 0.8775 0.5852 0.82886 0.0
N2962 N 0.8432 0.62171 0.81135 0.0
N2963 N 0.94454 0.59413 0.87261 0.0
C2964 C 0.87064 0.61501 0.82221 0.0
C2965 C 0.92198 0.60003 0.85343 0.0
N2966 N 0.8932 0.66271 0.80839 0.0
N2967 N 0.89733 0.55379 0.86698 0.0
H2968 H 0.96249 0.60863 0.87571 0.0
H2969 H 0.96249 0.60863 0.87571 0.0
H2970 H 0.88002 0.53842 0.86386 0.0
H2971 H 0.9134 0.54841 0.8829 0.0
H2972 H 0.87436 0.67017 0.79714 0.0
H2973 H 0.91116 0.67768 0.80849 0.0
H2974 H 0.83649 0.64327 0.80615 0.0
H2975 H 0.82698 0.60504 0.80919 0.0
C2976 C 0.24418 0.4786 0.1476 0.0
C2977 C 0.25839 0.47033 0.12058 0.0
C2978 C 0.26247 0.52282 0.10631 0.0
C2979 C 0.25736 0.53002 0.13583 0.0
N2980 N 0.23329 0.51893 0.18174 0.0
N2981 N 0.28088 0.48681 0.07311 0.0
C2982 C 0.24342 0.50922 0.15502 0.0
C2983 C 0.2674 0.49296 0.09952 0.0
N2984 N 0.23222 0.45725 0.16613 0.0
N2985 N 0.26718 0.54451 0.0854 0.0
H2986 H 0.28947 0.4664 0.06746 0.0
H2987 H 0.28651 0.50351 0.05777 0.0
H2988 H 0.26421 0.56706 0.08969 0.0
H2989 H 0.26421 0.56706 0.08969 0.0
H2990 H 0.21999 0.46184 0.18515 0.0
H2991 H 0.23434 0.43455 0.16228 0.0
H2992 H 0.22489 0.50523 0.19865 0.0
H2993 H 0.23387 0.54159 0.18666 0.0
C2994 C 0.31791 0.69198 0.93233 0.0
C2995 C 0.32368 0.6777 0.95985 0.0
C2996 C 0.36119 0.64818 0.93639 0.0
C2997 C 0.34453 0.65196 0.91002 0.0
N2998 N 0.31509 0.68379 0.87918 0.0
N2999 N 0.35957 0.65228 0.99023 0.0
C3000 C 0.32642 0.67697 0.90645 0.0
C3001 C 0.34905 0.65973 0.96277 0.0
N3002 N 0.30243 0.71787 0.93147 0.0
N3003 N 0.38632 0.6314 0.93617 0.0
H3004 H 0.35123 0.66224 1.00929 0.0
H3005 H 0.3763 0.63676 0.99394 0.0
H3006 H 0.39466 0.62299 0.91635 0.0
H3007 H 0.39977 0.62796 0.95472 0.0
H3008 H 0.29815 0.72971 0.9119 0.0
H3009 H 0.29637 0.72838 0.9511 0.0
H3010 H 0.29926 0.70025 0.87554 0.0
H3011 H 0.32161 0.67201 0.86043 0.0
C3012 C 0.41826 0.22076 0.91231 0.0
C3013 C 0.39685 0.24201 0.92066 0.0
C3014 C 0.41235 0.27367 0.87981 0.0
C3015 C 0.44027 0.25952 0.88176 0.0
N3016 N 0.46681 0.21411 0.88913 0.0
N3017 N 0.36735 0.28432 0.9076 0.0
C3018 C 0.44191 0.23058 0.89374 0.0
C3019 C 0.3912 0.26667 0.90209 0.0
N3020 N 0.4167 0.19254 0.92365 0.0
N3021 N 0.40736 0.29468 0.85833 0.0
H3022 H 0.35166 0.27846 0.92391 0.0
H3023 H 0.36372 0.30451 0.89662 0.0
H3024 H 0.42313 0.29905 0.84166 0.0
H3025 H 0.38696 0.30526 0.85556 0.0
H3026 H 0.43147 0.1758 0.91803 0.0
H3027 H 0.3986 0.18551 0.93659 0.0
H3028 H 0.47072 0.19365 0.89943 0.0
H3029 H 0.4836 0.22165 0.87466 0.0
C3030 C 0.77651 0.38588 0.94629 0.0
C3031 C 0.76816 0.38985 0.97647 0.0
C3032 C 0.72241 0.41357 0.96128 0.0
C3033 C 0.73648 0.41898 0.93368 0.0
N3034 N 0.77037 0.40449 0.89571 0.0
N3035 N 0.72716 0.39151 1.0107 0.0
C3036 C 0.76084 0.40213 0.92449 0.0
C3037 C 0.73868 0.39805 0.9833 0.0
N3038 N 0.79923 0.36749 0.93869 0.0
N3039 N 0.69531 0.42588 0.9669 0.0
H3040 H 0.73901 0.37869 0.02605 0.0
H3041 H 0.70552 0.39647 0.01723 0.0
H3042 H 0.68325 0.43673 0.95023 0.0
H3043 H 0.68483 0.42525 0.98754 0.0
H3044 H 0.80519 0.36303 0.91687 0.0
H3045 H 0.81013 0.35406 0.95401 0.0
H3046 H 0.79024 0.39573 0.88787 0.0
H3047 H 0.75807 0.41622 0.87977 0.0
C3048 C 0.67485 0.7919 0.88771 0.0
C3049 C 0.67172 0.81878 0.90263 0.0
C3050 C 0.62393 0.82786 0.88056 0.0
C3051 C 0.6232 0.79733 0.87409 0.0
N3052 N 0.6522 0.75808 0.85258 0.0
N3053 N 0.65565 0.86897 0.89604 0.0
C3054 C 0.65045 0.78204 0.87061 0.0
C3055 C 0.65084 0.83945 0.89194 0.0
N3056 N 0.69911 0.77473 0.8932 0.0
N3057 N 0.59886 0.84454 0.87792 0.0
H3058 H 0.64116 0.88538 0.88841 0.0
H3059 H 0.67577 0.87636 0.90509 0.0
H3060 H 0.57946 0.83592 0.86837 0.0
H3061 H 0.59751 0.86628 0.88547 0.0
H3062 H 0.70135 0.75318 0.88534 0.0
H3063 H 0.71646 0.78248 0.90661 0.0
H3064 H 0.67195 0.74661 0.84899 0.0
H3065 H 0.63443 0.75207 0.83888 0.0
C3066 C 0.74971 0.643 0.07238 0.0
C3067 C 0.75537 0.6299 0.04503 0.0
C3068 C 0.77367 0.58543 0.0693 0.0
C3069 C 0.77514 0.60146 0.09642 0.0
N3070 N 0.77088 0.64879 0.12114 0.0
N3071 N 0.75667 0.58523 0.01785 0.0
C3072 C 0.76451 0.63119 0.09748 0.0
C3073 C 0.76042 0.59927 0.04415 0.0
N3074 N 0.73469 0.66914 0.07294 0.0
N3075 N 0.78669 0.5582 0.0672 0.0
H3076 H 0.74714 0.59626 0.99964 0.0
H3077 H 0.76155 0.56304 0.01447 0.0
H3078 H 0.80231 0.55071 0.08267 0.0
H3079 H 0.78422 0.54413 0.04927 0.0
H3080 H 0.72899 0.67971 0.09258 0.0
H3081 H 0.72618 0.67854 0.05337 0.0
H3082 H 0.765 0.67112 0.12202 0.0
H3083 H 0.78537 0.64203 0.13801 0.0
C3084 C 0.39829 0.82106 0.15624 0.0
C3085 C 0.38095 0.80327 0.1373 0.0
C3086 C 0.39452 0.75924 0.16516 0.0
C3087 C 0.4202 0.77523 0.1736 0.0
N3088 N 0.44138 0.82152 0.18903 0.0
N3089 N 0.35373 0.75809 0.12969 0.0
C3090 C 0.4197 0.80652 0.17405 0.0
C3091 C 0.37528 0.77325 0.14464 0.0
N3092 N 0.39587 0.85123 0.15482 0.0
N3093 N 0.39013 0.73076 0.17505 0.0
H3094 H 0.34004 0.7689 0.11432 0.0
H3095 H 0.34976 0.73542 0.13235 0.0
H3096 H 0.40432 0.72113 0.19077 0.0
H3097 H 0.37129 0.71812 0.17002 0.0
H3098 H 0.40789 0.86566 0.16826 0.0
H3099 H 0.37987 0.86139 0.14136 0.0
H3100 H 0.4443 0.84449 0.18804 0.0
H3101 H 0.45651 0.81012 0.20254 0.0
C3102 C 0.67676 0.33499 0.13232 0.0
C3103 C 0.68109 0.3043 0.13652 0.0
C3104 C 0.65828 0.30485 0.18473 0.0
C3105 C 0.64474 0.33129 0.17513 0.0
N3106 N 0.65278 0.379 0.15197 0.0
N3107 N 0.69472 0.26711 0.17272 0.0
C3108 C 0.65913 0.34948 0.15365 0.0
C3109 C 0.67912 0.29199 0.16543 0.0
N3110 N 0.68698 0.34874 0.10709 0.0
N3111 N 0.64813 0.29076 0.2098 0.0
H3112 H 0.70993 0.25809 0.15778 0.0
H3113 H 0.69433 0.25734 0.19385 0.0
H3114 H 0.63206 0.30063 0.22321 0.0
H3115 H 0.65509 0.26971 0.21662 0.0
H3116 H 0.68287 0.3709 0.10163 0.0
H3117 H 0.70005 0.33726 0.09188 0.0
H3118 H 0.66247 0.39365 0.13656 0.0
H3119 H 0.63891 0.38872 0.16771 0.0
C3120 C 0.95144 0.76763 0.65994 0.0
C3121 C 0.95606 0.79842 0.66307 0.0
C3122 C 0.9099 0.80939 0.63731 0.0
C3123 C 0.9071 0.77895 0.63144 0.0
N3124 N 0.91439 0.7294 0.65187 0.0
N3125 N 0.93067 0.84527 0.67073 0.0
C3126 C 0.92419 0.75797 0.64777 0.0
C3127 C 0.93236 0.81848 0.6571 0.0
N3128 N 0.97291 0.74788 0.66823 0.0
N3129 N 0.89173 0.82939 0.62344 0.0
H3130 H 0.94398 0.85061 0.68879 0.0
H3131 H 0.91302 0.85988 0.66745 0.0
H3132 H 0.87405 0.82261 0.60997 0.0
H3133 H 0.89507 0.85233 0.62452 0.0
H3134 H 0.97178 0.72535 0.66313 0.0
H3135 H 0.9923 0.75441 0.67925 0.0
H3136 H 0.92578 0.71387 0.66486 0.0
H3137 H 0.89288 0.72269 0.64621 0.0
C3138 C 0.3074 0.97227 0.69318 0.0
C3139 C 0.30865 0.99896 0.67596 0.0
C3140 C 0.35451 0.9834 0.65323 0.0
C3141 C 0.34574 0.95389 0.66103 0.0
N3142 N 0.32422 0.921 0.69725 0.0
N3143 N 0.34307 0.036 0.65741 0.0
C3144 C 0.32634 0.94885 0.68504 0.0
C3145 C 0.33568 1.0068 0.66188 0.0
N3146 N 0.28828 0.9697 0.7166 0.0
N3147 N 0.37873 0.9884 0.63544 0.0
H3148 H 0.32998 0.05296 0.66595 0.0
H3149 H 0.3632 0.04326 0.64816 0.0
H3150 H 0.39358 0.9715 0.63051 0.0
H3151 H 0.38414 1.00897 0.62589 0.0
H3152 H 0.28679 0.95113 0.73061 0.0
H3153 H 0.27583 0.98776 0.72336 0.0
H3154 H 0.30883 0.91468 0.71354 0.0
H3155 H 0.3386 0.9042 0.69053 0.0
C3156 C 0.10857 0.27479 0.60931 0.0
C3157 C 0.0777 0.28158 0.60834 0.0
C3158 C 0.08053 0.28666 0.55424 0.0
C3159 C 0.11147 0.28175 0.55539 0.0
N3160 N 0.15331 0.2622 0.58167 0.0
N3161 N 0.03856 0.30626 0.58088 0.0
C3162 C 0.12474 0.27238 0.58231 0.0
C3163 C 0.06471 0.29095 0.58105 0.0
N3164 N 0.1228 0.27326 0.6361 0.0
N3165 N 0.06639 0.2872 0.52749 0.0
H3166 H 0.02871 0.31375 0.60037 0.0
H3167 H 0.02923 0.31521 0.56158 0.0
H3168 H 0.07754 0.28209 0.50788 0.0
H3169 H 0.04332 0.28902 0.52543 0.0
H3170 H 0.14568 0.27031 0.63843 0.0
H3171 H 0.11206 0.27859 0.6559 0.0
H3172 H 0.16409 0.2529 0.59999 0.0
H3173 H 0.16507 0.26081 0.56166 0.0
C3174 C 0.79853 0.13385 0.59372 0.0
C3175 C 0.78512 0.10496 0.59357 0.0
C3176 C 0.79549 0.10192 0.54041 0.0
C3177 C 0.8025 0.13227 0.54054 0.0
N3178 N 0.82897 0.16993 0.56618 0.0
N3179 N 0.76519 0.06416 0.5648 0.0
C3180 C 0.81152 0.14503 0.56717 0.0
C3181 C 0.78229 0.08937 0.56631 0.0
N3182 N 0.79637 0.15147 0.61805 0.0
N3183 N 0.79801 0.0868 0.51455 0.0
H3184 H 0.75141 0.05712 0.58229 0.0
H3185 H 0.76196 0.05235 0.54535 0.0
H3186 H 0.80683 0.09718 0.49551 0.0
H3187 H 0.7935 0.06415 0.51274 0.0
H3188 H 0.80445 0.17326 0.61845 0.0
H3189 H 0.78299 0.14563 0.63626 0.0
H3190 H 0.83761 0.17985 0.58515 0.0
H3191 H 0.83636 0.17879 0.54583 0.0
C3192 C 0.94631 0.30172 0.40284 0.0
C3193 C 0.94602 0.27064 0.40273 0.0
C3194 C 0.90818 0.26741 0.44097 0.0
C3195 C 0.91173 0.29835 0.44449 0.0
N3196 N 0.92487 0.34627 0.42171 0.0
N3197 N 0.91666 0.22576 0.40877 0.0
C3198 C 0.92736 0.31609 0.42282 0.0
C3199 C 0.92339 0.25399 0.41739 0.0
N3200 N 0.9663 0.31701 0.38528 0.0
N3201 N 0.89102 0.25104 0.46043 0.0
H3202 H 0.92586 0.2167 0.38973 0.0
H3203 H 0.8993 0.21307 0.41791 0.0
H3204 H 0.87814 0.26075 0.47696 0.0
H3205 H 0.89047 0.22788 0.46086 0.0
H3206 H 0.97098 0.33962 0.38713 0.0
H3207 H 0.97906 0.30631 0.36925 0.0
H3208 H 0.93373 0.35963 0.40473 0.0
H3209 H 0.9117 0.35802 0.43611 0.0
C3210 C 0.79438 0.92449 0.41949 0.0
C3211 C 0.7788 0.94937 0.40815 0.0
C3212 C 0.7346 0.93364 0.4341 0.0
C3213 C 0.75351 0.91701 0.45345 0.0
N3214 N 0.80004 0.89191 0.46223 0.0
N3215 N 0.73267 0.97287 0.39674 0.0
C3216 C 0.78299 0.91051 0.44522 0.0
C3217 C 0.74813 0.95197 0.41245 0.0
N3218 N 0.81951 0.91457 0.40583 0.0
N3219 N 0.70432 0.93204 0.4363 0.0
H3220 H 0.74253 0.98416 0.3788 0.0
H3221 H 0.71088 0.97904 0.40158 0.0
H3222 H 0.69347 0.91816 0.45136 0.0
H3223 H 0.68995 0.94209 0.42113 0.0
H3224 H 0.83089 0.89565 0.41288 0.0
H3225 H 0.82641 0.92281 0.38514 0.0
H3226 H 0.82282 0.88909 0.45873 0.0
H3227 H 0.79144 0.8802 0.48057 0.0
C3228 C 0.07843 0.77145 0.47577 0.0
C3229 C 0.0926 0.7794 0.44885 0.0
C3230 C 0.12903 0.80911 0.47604 0.0
C3231 C 0.11388 0.8018 0.50282 0.0
N3232 N 0.06741 0.78637 0.52557 0.0
N3233 N 0.13727 0.79649 0.42437 0.0
C3234 C 0.08618 0.78664 0.50177 0.0
C3235 C 0.11984 0.79556 0.44925 0.0
N3236 N 0.05731 0.74939 0.47609 0.0
N3237 N 0.15282 0.82823 0.47698 0.0
H3238 H 0.13148 0.78453 0.40547 0.0
H3239 H 0.15841 0.80625 0.42348 0.0
H3240 H 0.15929 0.83812 0.49686 0.0
H3241 H 0.16439 0.83583 0.45826 0.0
H3242 H 0.04576 0.74269 0.49507 0.0
H3243 H 0.05322 0.73648 0.45738 0.0
H3244 H 0.04528 0.77918 0.52415 0.0
H3245 H 0.07302 0.79585 0.54573 0.0
C3246 C 0.26009 0.15737 0.39903 0.0
C3247 C 0.28909 0.15601 0.41081 0.0
C3248 C 0.30086 0.11308 0.38154 0.0
C3249 C 0.27025 0.11084 0.37539 0.0
N3250 N 0.22669 0.1386 0.36122 0.0
N3251 N 0.3404 0.14364 0.40181 0.0
C3252 C 0.25196 0.13609 0.3778 0.0
C3253 C 0.31086 0.13781 0.39773 0.0
N3254 N 0.24024 0.1775 0.40948 0.0
N3255 N 0.31924 0.09031 0.37431 0.0
H3256 H 0.34771 0.16276 0.41248 0.0
H3257 H 0.35721 0.13148 0.39187 0.0
H3258 H 0.31158 0.07256 0.36157 0.0
H3259 H 0.34117 0.08868 0.38169 0.0
H3260 H 0.21771 0.17737 0.40378 0.0
H3261 H 0.24657 0.19371 0.42466 0.0
H3262 H 0.21297 0.15717 0.36175 0.0
H3263 H 0.22163 0.12345 0.34457 0.0
C3264 C 0.5628 0.9845 0.78837 0.0
C3265 C 0.59091 0.96934 0.7883 0.0
C3266 C 0.56697 0.927 0.81316 0.0
C3267 C 0.53945 0.93824 0.80446 0.0
N3268 N 0.50921 0.981 0.79847 0.0
N3269 N 0.61667 0.92227 0.79386 0.0
C3270 C 0.53698 0.96879 0.79846 0.0
C3271 C 0.59238 0.93949 0.79927 0.0
N3272 N 0.56049 1.01285 0.77743 0.0
N3273 N 0.56788 0.90122 0.82929 0.0
H3274 H 0.63374 0.92916 0.77947 0.0
H3275 H 0.61775 0.89992 0.80021 0.0
H3276 H 0.54823 0.89095 0.83691 0.0
H3277 H 0.58783 0.89196 0.83665 0.0
H3278 H 0.54159 0.0259 0.7792 0.0
H3279 H 0.57699 0.0229 0.76448 0.0
H3280 H 0.50439 1.00284 0.79248 0.0
H3281 H 0.4907 0.96857 0.80573 0.0
C3282 C 0.10436 0.64138 0.7632 0.0
C3283 C 0.10191 0.64454 0.79399 0.0
C3284 C 0.14308 0.61133 0.80306 0.0
C3285 C 0.14372 0.6061 0.77249 0.0
N3286 N 0.14021 0.63198 0.7249 0.0
N3287 N 0.1325 0.64928 0.8384 0.0
C3288 C 0.12918 0.62601 0.75256 0.0
C3289 C 0.12556 0.63496 0.81281 0.0
N3290 N 0.08361 0.65315 0.74443 0.0
N3291 N 0.15905 0.59421 0.82244 0.0
H3292 H 0.12327 0.66968 0.84381 0.0
H3293 H 0.15051 0.64316 0.85171 0.0
H3294 H 0.17338 0.5776 0.81523 0.0
H3295 H 0.15691 0.59603 0.84543 0.0
H3296 H 0.08358 0.64895 0.72169 0.0
H3297 H 0.06608 0.66616 0.75206 0.0
H3298 H 0.13046 0.64738 0.71043 0.0
H3299 H 0.16152 0.62545 0.71865 0.0
C3300 C 0.43802 0.13756 0.80089 0.0
C3301 C 0.43191 0.11101 0.78523 0.0
C3302 C 0.48382 0.10432 0.77493 0.0
C3303 C 0.49075 0.13172 0.788 0.0
N3304 N 0.47525 0.17504 0.81416 0.0
N3305 N 0.44664 0.07968 0.74537 0.0
C3306 C 0.46797 0.14847 0.80163 0.0
C3307 C 0.45413 0.09871 0.76745 0.0
N3308 N 0.41522 0.1523 0.81412 0.0
N3309 N 0.50532 0.08394 0.76932 0.0
H3310 H 0.42439 0.07598 0.73944 0.0
H3311 H 0.46252 0.06966 0.73216 0.0
H3312 H 0.52755 0.08722 0.77516 0.0
H3313 H 0.50017 0.06267 0.7618 0.0
H3314 H 0.41818 0.17017 0.82827 0.0
H3315 H 0.39297 0.1467 0.80999 0.0
H3316 H 0.45981 0.18978 0.82271 0.0
H3317 H 0.49743 0.18221 0.81569 0.0
C3318 C 0.96137 0.40801 0.75188 0.0
C3319 C 0.96183 0.39881 0.78178 0.0
C3320 C 0.92404 0.43456 0.79488 0.0
C3321 C 0.92444 0.44522 0.76523 0.0
N3322 N 0.93479 0.43351 0.71321 0.0
N3323 N 0.93173 0.39126 0.82598 0.0
C3324 C 0.94008 0.42916 0.74282 0.0
C3325 C 0.93926 0.40806 0.80158 0.0
N3326 N 0.98182 0.39704 0.73244 0.0
N3327 N 0.90944 0.44957 0.81661 0.0
H3328 H 0.93954 0.3697 0.82918 0.0
H3329 H 0.91433 0.39673 0.84024 0.0
H3330 H 0.89738 0.46888 0.81244 0.0
H3331 H 0.91122 0.44388 0.83908 0.0
H3332 H 0.98557 0.40604 0.71127 0.0
H3333 H 0.99583 0.37944 0.73818 0.0
H3334 H 0.94368 0.42005 0.69682 0.0
H3335 H 0.91924 0.44807 0.70466 0.0
C3336 C 0.58138 0.05913 0.28655 0.0
C3337 C 0.61197 0.06687 0.28852 0.0
C3338 C 0.60011 0.11896 0.27941 0.0
C3339 C 0.56944 0.11163 0.27728 0.0
N3340 N 0.53252 0.07353 0.26855 0.0
N3341 N 0.64759 0.10498 0.30004 0.0
C3342 C 0.56046 0.08124 0.27777 0.0
C3343 C 0.6204 0.09715 0.28904 0.0
N3344 N 0.57244 0.03097 0.29413 0.0
N3345 N 0.60991 0.14668 0.27124 0.0
H3346 H 0.66113 0.08919 0.31017 0.0
H3347 H 0.65442 0.12696 0.30297 0.0
H3348 H 0.59552 0.16226 0.26198 0.0
H3349 H 0.63241 0.15264 0.27012 0.0
H3350 H 0.55056 0.02343 0.29298 0.0
H3351 H 0.58673 0.01607 0.30478 0.0
H3352 H 0.52449 0.0518 0.26812 0.0
H3353 H 0.51866 0.08863 0.25767 0.0
C3354 C 0.92066 0.65079 0.23761 0.0
C3355 C 0.94104 0.66715 0.25484 0.0
C3356 C 0.90947 0.6597 0.29752 0.0
C3357 C 0.89918 0.63348 0.2836 0.0
N3358 N 0.8865 0.60888 0.23826 0.0
N3359 N 0.9476 0.69856 0.29666 0.0
C3360 C 0.90148 0.63086 0.25264 0.0
C3361 C 0.93304 0.67554 0.28358 0.0
N3362 N 0.91887 0.65551 0.20778 0.0
N3363 N 0.89685 0.66888 0.32333 0.0
H3364 H 0.96311 0.71146 0.28471 0.0
H3365 H 0.94428 0.70469 0.31862 0.0
H3366 H 0.87725 0.65908 0.33144 0.0
H3367 H 0.90344 0.688 0.33441 0.0
H3368 H 0.90332 0.64482 0.19434 0.0
H3369 H 0.93034 0.67323 0.1977 0.0
H3370 H 0.88995 0.6042 0.2159 0.0
H3371 H 0.87098 0.59526 0.24932 0.0
C3372 C 0.40237 0.92496 0.2535 0.0
C3373 C 0.3931 0.94942 0.27025 0.0
C3374 C 0.42847 0.93995 0.30835 0.0
C3375 C 0.44296 0.91992 0.28875 0.0
N3376 N 0.43836 0.88521 0.24858 0.0
N3377 N 0.38288 0.9666 0.3188 0.0
C3378 C 0.42809 0.9095 0.2631 0.0
C3379 C 0.40057 0.95102 0.30008 0.0
N3380 N 0.38723 0.9179 0.22828 0.0
N3381 N 0.44225 0.95053 0.33308 0.0
H3382 H 0.36306 0.97612 0.3112 0.0
H3383 H 0.38647 0.96755 0.34164 0.0
H3384 H 0.46404 0.94535 0.33857 0.0
H3385 H 0.43325 0.96696 0.34639 0.0
H3386 H 0.3938 0.90174 0.2134 0.0
H3387 H 0.36714 0.92828 0.22297 0.0
H3388 H 0.42818 0.87619 0.22999 0.0
H3389 H 0.45636 0.87297 0.25645 0.0
C3390 C 0.07471 0.418 0.31844 0.0
C3391 C 0.08039 0.39966 0.29401 0.0
C3392 C 0.13186 0.41617 0.29116 0.0
C3393 C 0.12399 0.43943 0.31011 0.0
N3394 N 0.09526 0.45419 0.3526 0.0
N3395 N 0.11745 0.3677 0.27312 0.0
C3396 C 0.09775 0.43749 0.32765 0.0
C3397 C 0.11025 0.39395 0.28585 0.0
N3398 N 0.0473 0.41733 0.33163 0.0
N3399 N 0.15893 0.41626 0.27725 0.0
H3400 H 0.10165 0.35069 0.27125 0.0
H3401 H 0.13926 0.36176 0.268 0.0
H3402 H 0.17539 0.43217 0.28167 0.0
H3403 H 0.16444 0.40128 0.26071 0.0
H3404 H 0.04054 0.43229 0.34767 0.0
H3405 H 0.03143 0.40111 0.32629 0.0
H3406 H 0.07727 0.45274 0.36722 0.0
H3407 H 0.11251 0.46815 0.35966 0.0
C3408 C 0.84398 0.60246 0.908 0.0
C3409 C 0.83026 0.62939 0.89947 0.0
C3410 C 0.79527 0.60176 0.87009 0.0
C3411 C 0.79984 0.57727 0.88991 0.0
N3412 N 0.83627 0.5497 0.91824 0.0
N3413 N 0.79963 0.65545 0.86482 0.0
C3414 C 0.82716 0.5757 0.90546 0.0
C3415 C 0.80882 0.62919 0.87699 0.0
N3416 N 0.87191 0.60323 0.91975 0.0
N3417 N 0.77714 0.59885 0.84602 0.0
H3418 H 0.81016 0.67548 0.87026 0.0
H3419 H 0.78158 0.65726 0.85038 0.0
H3420 H 0.7678 0.57836 0.84052 0.0
H3421 H 0.77395 0.61574 0.83029 0.0
H3422 H 0.88383 0.58431 0.9257 0.0
H3423 H 0.88392 0.62321 0.92062 0.0
H3424 H 0.85479 0.54808 0.93207 0.0
H3425 H 0.82502 0.52966 0.91499 0.0
C3426 C 0.81107 0.44136 0.15968 0.0
C3427 C 0.79081 0.42186 0.14543 0.0
C3428 C 0.7522 0.43408 0.18054 0.0
C3429 C 0.76858 0.46028 0.18606 0.0
N3430 N 0.81597 0.48377 0.19252 0.0
N3431 N 0.74474 0.39391 0.14584 0.0
C3432 C 0.79936 0.46149 0.18035 0.0
C3433 C 0.76233 0.41574 0.15754 0.0
N3434 N 0.84055 0.44157 0.15204 0.0
N3435 N 0.7267 0.42806 0.19611 0.0
H3436 H 0.75255 0.37974 0.12943 0.0
H3437 H 0.72255 0.39038 0.15189 0.0
H3438 H 0.72015 0.44139 0.21372 0.0
H3439 H 0.71408 0.40869 0.19361 0.0
H3440 H 0.85654 0.45544 0.16143 0.0
H3441 H 0.84929 0.42631 0.13725 0.0
H3442 H 0.83845 0.48767 0.18806 0.0
H3443 H 0.80648 0.49837 0.20763 0.0
C3444 C 0.61751 0.78008 0.09446 0.0
C3445 C 0.60701 0.78302 0.06501 0.0
C3446 C 0.55727 0.79479 0.0839 0.0
C3447 C 0.56835 0.792 0.11314 0.0
N3448 N 0.61087 0.79526 0.14526 0.0
N3449 N 0.5645 0.78418 0.03194 0.0
C3450 C 0.59923 0.78908 0.11803 0.0
C3451 C 0.57609 0.78769 0.05967 0.0
N3452 N 0.64501 0.76833 0.09964 0.0
N3453 N 0.52899 0.80498 0.07964 0.0
H3454 H 0.57692 0.77696 0.01404 0.0
H3455 H 0.54186 0.78497 0.02722 0.0
H3456 H 0.5166 0.8137 0.0971 0.0
H3457 H 0.51885 0.80739 0.05902 0.0
H3458 H 0.65309 0.76375 0.12091 0.0
H3459 H 0.65806 0.76025 0.08234 0.0
H3460 H 0.63371 0.7954 0.1496 0.0
H3461 H 0.59755 0.8034 0.16234 0.0
C3462 C 0.32132 0.68004 0.09304 0.0
C3463 C 0.29071 0.67565 0.10071 0.0
C3464 C 0.30435 0.68295 0.15229 0.0
C3465 C 0.33243 0.67206 0.14509 0.0
N3466 N 0.37264 0.67503 0.11037 0.0
N3467 N 0.25294 0.67422 0.1401 0.0
C3468 C 0.34283 0.67674 0.11592 0.0
C3469 C 0.28173 0.67879 0.131 0.0
N3470 N 0.32938 0.688 0.06476 0.0
N3471 N 0.29864 0.69124 0.18065 0.0
H3472 H 0.23603 0.66662 0.1263 0.0
H3473 H 0.24661 0.67457 0.16239 0.0
H3474 H 0.31565 0.69139 0.19652 0.0
H3475 H 0.27824 0.70005 0.18715 0.0
H3476 H 0.35129 0.69279 0.05849 0.0
H3477 H 0.31364 0.69298 0.04843 0.0
H3478 H 0.38185 0.67516 0.08911 0.0
H3479 H 0.38782 0.67271 0.12784 0.0
C3480 C 0.47702 0.29245 0.05909 0.0
C3481 C 0.4477 0.29143 0.07121 0.0
C3482 C 0.46696 0.27221 0.11777 0.0
C3483 C 0.4964 0.27696 0.10782 0.0
N3484 N 0.53007 0.28484 0.06682 0.0
N3485 N 0.4178 0.29313 0.11568 0.0
C3486 C 0.50166 0.28464 0.07756 0.0
C3487 C 0.44372 0.28564 0.10187 0.0
N3488 N 0.48098 0.30143 0.03023 0.0
N3489 N 0.46177 0.25709 0.14376 0.0
H3490 H 0.40113 0.30485 0.10446 0.0
H3491 H 0.41464 0.29064 0.13855 0.0
H3492 H 0.47925 0.24754 0.15579 0.0
H3493 H 0.44031 0.25198 0.15139 0.0
H3494 H 0.50064 0.29931 0.01821 0.0
H3495 H 0.46417 0.31233 0.01846 0.0
H3496 H 0.53578 0.29159 0.04549 0.0
H3497 H 0.5481 0.27706 0.07908 0.0
C3498 C 0.29577 0.46737 0.98757 0.0
C3499 C 0.28368 0.44033 0.97779 0.0
C3500 C 0.2655 0.46539 0.93284 0.0
C3501 C 0.27585 0.49277 0.94429 0.0
N3502 N 0.28857 0.52004 0.98818 0.0
N3503 N 0.26661 0.41139 0.93657 0.0
C3504 C 0.28689 0.49387 0.97356 0.0
C3505 C 0.27112 0.43859 0.94896 0.0
N3506 N 0.31525 0.46745 1.0108 0.0
N3507 N 0.25069 0.46556 0.90637 0.0
H3508 H 0.27416 0.39193 0.94687 0.0
H3509 H 0.25852 0.40827 0.91518 0.0
H3510 H 0.24633 0.48547 0.89499 0.0
H3511 H 0.24088 0.44683 0.89704 0.0
H3512 H 0.32558 0.48671 0.01835 0.0
H3513 H 0.32269 0.44765 0.02058 0.0
H3514 H 0.29377 0.52124 1.01066 0.0
H3515 H 0.28188 0.53998 0.97861 0.0
C3516 C 0.59515 0.27505 0.98346 0.0
C3517 C 0.62449 0.28668 0.98553 0.0
C3518 C 0.62408 0.29658 0.93171 0.0
C3519 C 0.59491 0.28405 0.93076 0.0
N3520 N 0.56186 0.24751 0.95197 0.0
N3521 N 0.66822 0.30726 0.96151 0.0
C3522 C 0.58389 0.26821 0.9554 0.0
C3523 C 0.63946 0.29714 0.95945 0.0
N3524 N 0.57735 0.27179 1.00782 0.0
N3525 N 0.63695 0.30713 0.90611 0.0
H3526 H 0.67889 0.30958 0.98197 0.0
H3527 H 0.68154 0.3131 0.94337 0.0
H3528 H 0.62765 0.30277 0.88535 0.0
H3529 H 0.65681 0.31926 0.90524 0.0
H3530 H 0.55504 0.26525 1.00619 0.0
H3531 H 0.58348 0.27928 0.02869 0.0
H3532 H 0.55348 0.23503 0.96969 0.0
H3533 H 0.5546 0.24106 0.93095 0.0
C3534 C 0.41634 0.78602 0.94168 0.0
C3535 C 0.41872 0.77734 0.97181 0.0
C3536 C 0.47138 0.77008 0.9676 0.0
C3537 C 0.47031 0.78004 0.9376 0.0
N3538 N 0.44253 0.799 0.89582 0.0
N3539 N 0.44316 0.74637 1.00725 0.0
C3540 C 0.44279 0.78835 0.92441 0.0
C3541 C 0.44446 0.76354 0.98213 0.0
N3542 N 0.38876 0.79127 0.93007 0.0
N3543 N 0.49761 0.76851 0.9828 0.0
H3544 H 0.42283 0.7414 0.0177 0.0
H3545 H 0.46163 0.73562 0.01586 0.0
H3546 H 0.51795 0.77556 0.97398 0.0
H3547 H 0.49845 0.76382 1.00552 0.0
H3548 H 0.38475 0.79727 0.90805 0.0
H3549 H 0.36949 0.78725 0.94266 0.0
H3550 H 0.42354 0.8064 0.88486 0.0
H3551 H 0.46215 0.80198 0.88355 0.0
loop_
_geom_bond_atom_site_label_1
_geom_bond_atom_site_label_2
_geom_bond_distance
_geom_bond_site_symmetry_2
_ccdc_geom_bond_type
Dy0 O4 2.398 . S
Dy0 O5 2.491 . S
Dy0 O6 2.403 . S
Dy0 O7 2.664 1_655 S
Dy0 O11 2.326 1_655 S
Dy0 O15 2.310 . S
Dy0 O16 2.351 . S
C1 O12 1.185 . S
C1 O13 1.355 . S
C2 O4 1.185 . S
C2 O5 1.355 . S
Dy3 O7 2.310 . S
Dy3 O10 2.351 . S
Dy3 O12 2.398 . S
Dy3 O13 2.491 . S
Dy3 O14 2.403 . S
Dy3 O15 2.664 1_455 S
Dy3 O17 2.326 1_455 S
O4 Dy0 2.398 . S
O4 C2 1.185 . S
O5 Dy0 2.491 . S
O5 C2 1.355 . S
O6 Dy0 2.403 . S
O6 C8 1.254 . S
O7 Dy0 2.664 1_455 S
O7 Dy3 2.310 . S
O7 C8 1.268 1_455 S
C8 O6 1.254 . S
C8 O7 1.268 1_655 S
C9 O14 1.254 . S
C9 O15 1.268 1_455 S
O10 Dy3 2.351 . S
O10 C18 1.249 . S
O11 Dy0 2.326 1_455 S
O11 C18 1.267 . S
O12 C1 1.185 . S
O12 Dy3 2.398 . S
O13 C1 1.355 . S
O13 Dy3 2.491 . S
O14 Dy3 2.403 . S
O14 C9 1.254 . S
O15 Dy0 2.310 . S
O15 Dy3 2.664 1_655 S
O15 C9 1.268 1_655 S
O16 Dy0 2.351 . S
O16 C19 1.249 . S
O17 Dy3 2.326 1_655 S
O17 C19 1.267 . S
C18 O10 1.249 . S
C18 O11 1.267 . S
C19 O16 1.249 . S
C19 O17 1.267 . S
Dy20 O24 2.398 . S
Dy20 O25 2.491 . S
Dy20 O26 2.403 . S
Dy20 O27 2.664 1_565 S
Dy20 O31 2.326 1_565 S
Dy20 O35 2.310 1_565 S
Dy20 O36 2.351 . S
C21 O32 1.185 . S
C21 O33 1.355 . S
C22 O24 1.185 . S
C22 O25 1.355 . S
Dy23 O27 2.310 . S
Dy23 O30 2.351 . S
Dy23 O32 2.398 . S
Dy23 O33 2.491 . S
Dy23 O34 2.403 . S
Dy23 O35 2.664 . S
Dy23 O37 2.326 . S
O24 Dy20 2.398 . S
O24 C22 1.185 . S
O25 Dy20 2.491 . S
O25 C22 1.355 . S
O26 Dy20 2.403 . S
O26 C28 1.254 1_565 S
O27 Dy20 2.664 1_545 S
O27 Dy23 2.310 . S
O27 C28 1.268 . S
C28 O26 1.254 1_545 S
C28 O27 1.268 . S
C29 O34 1.254 . S
C29 O35 1.268 . S
O30 Dy23 2.351 . S
O30 C38 1.249 . S
O31 Dy20 2.326 1_545 S
O31 C38 1.267 . S
O32 C21 1.185 . S
O32 Dy23 2.398 . S
O33 C21 1.355 . S
O33 Dy23 2.491 . S
O34 Dy23 2.403 . S
O34 C29 1.254 . S
O35 Dy20 2.310 1_545 S
O35 Dy23 2.664 . S
O35 C29 1.268 . S
O36 Dy20 2.351 . S
O36 C39 1.249 . S
O37 Dy23 2.326 . S
O37 C39 1.267 1_545 S
C38 O30 1.249 . S
C38 O31 1.267 . S
C39 O36 1.249 . S
C39 O37 1.267 1_565 S
Dy40 O44 2.398 . S
Dy40 O45 2.491 . S
Dy40 O46 2.403 . S
Dy40 O47 2.664 . S
Dy40 O51 2.326 . S
Dy40 O55 2.310 . S
Dy40 O56 2.351 . S
C41 O52 1.185 . S
C41 O53 1.355 . S
C42 O44 1.185 . S
C42 O45 1.355 . S
Dy43 O47 2.310 1_655 S
Dy43 O50 2.351 . S
Dy43 O52 2.398 . S
Dy43 O53 2.491 . S
Dy43 O54 2.403 . S
Dy43 O55 2.664 1_655 S
Dy43 O57 2.326 1_655 S
O44 Dy40 2.398 . S
O44 C42 1.185 . S
O45 Dy40 2.491 . S
O45 C42 1.355 . S
O46 Dy40 2.403 . S
O46 C48 1.254 . S
O47 Dy40 2.664 . S
O47 Dy43 2.310 1_455 S
O47 C48 1.268 . S
C48 O46 1.254 . S
C48 O47 1.268 . S
C49 O54 1.254 1_455 S
C49 O55 1.268 . S
O50 Dy43 2.351 . S
O50 C58 1.249 . S
O51 Dy40 2.326 . S
O51 C58 1.267 1_455 S
O52 C41 1.185 . S
O52 Dy43 2.398 . S
O53 C41 1.355 . S
O53 Dy43 2.491 . S
O54 Dy43 2.403 . S
O54 C49 1.254 1_655 S
O55 Dy40 2.310 . S
O55 Dy43 2.664 1_455 S
O55 C49 1.268 . S
O56 Dy40 2.351 . S
O56 C59 1.249 . S
O57 Dy43 2.326 1_455 S
O57 C59 1.267 . S
C58 O50 1.249 . S
C58 O51 1.267 1_655 S
C59 O56 1.249 . S
C59 O57 1.267 . S
Dy60 O64 2.398 . S
Dy60 O65 2.491 . S
Dy60 O66 2.403 . S
Dy60 O67 2.664 . S
Dy60 O71 2.326 . S
Dy60 O75 2.310 . S
Dy60 O76 2.351 . S
C61 O72 1.185 . S
C61 O73 1.355 . S
C62 O64 1.185 . S
C62 O65 1.355 . S
Dy63 O67 2.310 1_565 S
Dy63 O70 2.351 . S
Dy63 O72 2.398 . S
Dy63 O73 2.491 . S
Dy63 O74 2.403 . S
Dy63 O75 2.664 1_565 S
Dy63 O77 2.326 1_565 S
O64 Dy60 2.398 . S
O64 C62 1.185 . S
O65 Dy60 2.491 . S
O65 C62 1.355 . S
O66 Dy60 2.403 . S
O66 C68 1.254 . S
O67 Dy60 2.664 . S
O67 Dy63 2.310 1_545 S
O67 C68 1.268 . S
C68 O66 1.254 . S
C68 O67 1.268 . S
C69 O74 1.254 1_545 S
C69 O75 1.268 . S
O70 Dy63 2.351 . S
O70 C78 1.249 . S
O71 Dy60 2.326 . S
O71 C78 1.267 1_545 S
O72 C61 1.185 . S
O72 Dy63 2.398 . S
O73 C61 1.355 . S
O73 Dy63 2.491 . S
O74 Dy63 2.403 . S
O74 C69 1.254 1_565 S
O75 Dy60 2.310 . S
O75 Dy63 2.664 1_545 S
O75 C69 1.268 . S
O76 Dy60 2.351 . S
O76 C79 1.249 . S
O77 Dy63 2.326 1_545 S
O77 C79 1.267 . S
C78 O70 1.249 . S
C78 O71 1.267 1_565 S
C79 O76 1.249 . S
C79 O77 1.267 . S
Dy80 O84 2.398 . S
Dy80 O85 2.491 . S
Dy80 O86 2.403 . S
Dy80 O87 2.664 1_655 S
Dy80 O91 2.326 1_655 S
Dy80 O95 2.310 1_655 S
Dy80 O96 2.351 . S
C81 O92 1.185 . S
C81 O93 1.355 . S
C82 O84 1.185 . S
C82 O85 1.355 . S
Dy83 O87 2.310 . S
Dy83 O90 2.351 . S
Dy83 O92 2.398 . S
Dy83 O93 2.491 . S
Dy83 O94 2.403 . S
Dy83 O95 2.664 . S
Dy83 O97 2.326 . S
O84 Dy80 2.398 . S
O84 C82 1.185 . S
O85 Dy80 2.491 . S
O85 C82 1.355 . S
O86 Dy80 2.403 . S
O86 C88 1.254 1_655 S
O87 Dy80 2.664 1_455 S
O87 Dy83 2.310 . S
O87 C88 1.268 . S
C88 O86 1.254 1_455 S
C88 O87 1.268 . S
C89 O94 1.254 . S
C89 O95 1.268 . S
O90 Dy83 2.351 . S
O90 C98 1.249 . S
O91 Dy80 2.326 1_455 S
O91 C98 1.267 . S
O92 C81 1.185 . S
O92 Dy83 2.398 . S
O93 C81 1.355 . S
O93 Dy83 2.491 . S
O94 Dy83 2.403 . S
O94 C89 1.254 . S
O95 Dy80 2.310 1_455 S
O95 Dy83 2.664 . S
O95 C89 1.268 . S
O96 Dy80 2.351 . S
O96 C99 1.249 . S
O97 Dy83 2.326 . S
O97 C99 1.267 1_455 S
C98 O90 1.249 . S
C98 O91 1.267 . S
C99 O96 1.249 . S
C99 O97 1.267 1_655 S
Dy100 O104 2.398 . S
Dy100 O105 2.491 . S
Dy100 O106 2.402 . S
Dy100 O107 2.664 1_565 S
Dy100 O111 2.326 1_565 S
Dy100 O115 2.310 1_565 S
Dy100 O116 2.351 . S
C101 O112 1.185 . S
C101 O113 1.355 . S
C102 O104 1.185 . S
C102 O105 1.355 . S
Dy103 O107 2.310 . S
Dy103 O110 2.351 . S
Dy103 O112 2.398 . S
Dy103 O113 2.491 . S
Dy103 O114 2.403 . S
Dy103 O115 2.664 . S
Dy103 O117 2.326 . S
O104 Dy100 2.398 . S
O104 C102 1.185 . S
O105 Dy100 2.491 . S
O105 C102 1.355 . S
O106 Dy100 2.402 . S
O106 C108 1.258 1_565 S
O107 Dy100 2.664 1_545 S
O107 Dy103 2.310 . S
O107 C108 1.268 . S
C108 O106 1.258 1_545 S
C108 O107 1.268 . S
C109 O114 1.254 . S
C109 O115 1.268 . S
O110 Dy103 2.351 . S
O110 C118 1.249 . S
O111 Dy100 2.326 1_545 S
O111 C118 1.267 . S
O112 C101 1.185 . S
O112 Dy103 2.398 . S
O113 C101 1.355 . S
O113 Dy103 2.491 . S
O114 Dy103 2.403 . S
O114 C109 1.254 . S
O115 Dy100 2.310 1_545 S
O115 Dy103 2.664 . S
O115 C109 1.268 . S
O116 Dy100 2.351 . S
O116 C119 1.249 . S
O117 Dy103 2.326 . S
O117 C119 1.267 1_545 S
C118 O110 1.249 . S
C118 O111 1.267 . S
C119 O116 1.249 . S
C119 O117 1.267 1_565 S
Dy120 O124 2.398 . S
Dy120 O125 2.491 . S
Dy120 O126 2.403 . S
Dy120 O127 2.664 . S
Dy120 O131 2.326 . S
Dy120 O135 2.310 . S
Dy120 O136 2.351 . S
C121 O132 1.185 . S
C121 O133 1.355 . S
C122 O124 1.185 . S
C122 O125 1.355 . S
Dy123 O127 2.310 1_655 S
Dy123 O130 2.351 . S
Dy123 O132 2.398 . S
Dy123 O133 2.491 . S
Dy123 O134 2.403 . S
Dy123 O135 2.664 1_655 S
Dy123 O137 2.326 1_655 S
O124 Dy120 2.398 . S
O124 C122 1.185 . S
O125 Dy120 2.491 . S
O125 C122 1.355 . S
O126 Dy120 2.403 . S
O126 C128 1.254 . S
O127 Dy120 2.664 . S
O127 Dy123 2.310 1_455 S
O127 C128 1.268 . S
C128 O126 1.254 . S
C128 O127 1.268 . S
C129 O134 1.254 1_455 S
C129 O135 1.268 . S
O130 Dy123 2.351 . S
O130 C138 1.249 . S
O131 Dy120 2.326 . S
O131 C138 1.267 1_455 S
O132 C121 1.185 . S
O132 Dy123 2.398 . S
O133 C121 1.355 . S
O133 Dy123 2.491 . S
O134 Dy123 2.403 . S
O134 C129 1.254 1_655 S
O135 Dy120 2.310 . S
O135 Dy123 2.664 1_455 S
O135 C129 1.268 . S
O136 Dy120 2.351 . S
O136 C139 1.249 . S
O137 Dy123 2.326 1_455 S
O137 C139 1.267 . S
C138 O130 1.249 . S
C138 O131 1.267 1_655 S
C139 O136 1.249 . S
C139 O137 1.267 . S
Dy140 O144 2.398 . S
Dy140 O145 2.491 . S
Dy140 O146 2.403 . S
Dy140 O147 2.664 . S
Dy140 O151 2.326 . S
Dy140 O155 2.310 . S
Dy140 O156 2.351 . S
C141 O152 1.185 . S
C141 O153 1.351 1_565 S
C142 O144 1.185 . S
C142 O145 1.355 . S
Dy143 O147 2.310 . S
Dy143 O150 2.351 1_545 S
Dy143 O152 2.398 1_545 S
Dy143 O153 2.492 . S
Dy143 O154 2.403 . S
Dy143 O155 2.664 . S
Dy143 O157 2.326 . S
O144 Dy140 2.398 . S
O144 C142 1.185 . S
O145 Dy140 2.491 . S
O145 C142 1.355 . S
O146 Dy140 2.403 . S
O146 C148 1.254 . S
O147 Dy140 2.664 . S
O147 Dy143 2.310 . S
O147 C148 1.268 . S
C148 O146 1.254 . S
C148 O147 1.268 . S
C149 O154 1.254 . S
C149 O155 1.268 . S
O150 Dy143 2.351 1_565 S
O150 C158 1.249 1_565 S
O151 Dy140 2.326 . S
O151 C158 1.267 . S
O152 C141 1.185 . S
O152 Dy143 2.398 1_565 S
O153 C141 1.351 1_545 S
O153 Dy143 2.492 . S
O154 Dy143 2.403 . S
O154 C149 1.254 . S
O155 Dy140 2.310 . S
O155 Dy143 2.664 . S
O155 C149 1.268 . S
O156 Dy140 2.351 . S
O156 C159 1.249 . S
O157 Dy143 2.326 . S
O157 C159 1.267 . S
C158 O150 1.249 1_545 S
C158 O151 1.267 . S
C159 O156 1.249 . S
C159 O157 1.267 . S
Dy160 O164 2.398 . S
Dy160 O165 2.491 . S
Dy160 O166 2.403 . S
Dy160 O167 2.664 1_565 S
Dy160 O171 2.326 1_565 S
Dy160 O175 2.310 1_565 S
Dy160 O176 2.351 . S
C161 O172 1.185 . S
C161 O173 1.355 . S
C162 O164 1.185 . S
C162 O165 1.355 . S
Dy163 O167 2.310 . S
Dy163 O170 2.351 . S
Dy163 O172 2.398 . S
Dy163 O173 2.491 . S
Dy163 O174 2.403 . S
Dy163 O175 2.664 . S
Dy163 O177 2.326 . S
O164 Dy160 2.398 . S
O164 C162 1.185 . S
O165 Dy160 2.491 . S
O165 C162 1.355 . S
O166 Dy160 2.403 . S
O166 C168 1.254 1_565 S
O167 Dy160 2.664 1_545 S
O167 Dy163 2.310 . S
O167 C168 1.268 . S
C168 O166 1.254 1_545 S
C168 O167 1.268 . S
C169 O174 1.254 . S
C169 O175 1.268 . S
O170 Dy163 2.351 . S
O170 C178 1.249 . S
O171 Dy160 2.326 1_545 S
O171 C178 1.267 . S
O172 C161 1.185 . S
O172 Dy163 2.398 . S
O173 C161 1.355 . S
O173 Dy163 2.491 . S
O174 Dy163 2.403 . S
O174 C169 1.254 . S
O175 Dy160 2.310 1_545 S
O175 Dy163 2.664 . S
O175 C169 1.268 . S
O176 Dy160 2.351 . S
O176 C179 1.249 . S
O177 Dy163 2.326 . S
O177 C179 1.267 1_545 S
C178 O170 1.249 . S
C178 O171 1.267 . S
C179 O176 1.249 . S
C179 O177 1.267 1_565 S
Dy180 O184 2.398 . S
Dy180 O185 2.491 . S
Dy180 O186 2.403 . S
Dy180 O187 2.664 . S
Dy180 O191 2.326 . S
Dy180 O195 2.310 . S
Dy180 O196 2.351 . S
C181 O192 1.185 . S
C181 O193 1.355 . S
C182 O184 1.185 . S
C182 O185 1.355 . S
Dy183 O187 2.310 1_655 S
Dy183 O190 2.351 . S
Dy183 O192 2.398 . S
Dy183 O193 2.491 . S
Dy183 O194 2.403 . S
Dy183 O195 2.664 1_655 S
Dy183 O197 2.326 1_655 S
O184 Dy180 2.398 . S
O184 C182 1.185 . S
O185 Dy180 2.491 . S
O185 C182 1.355 . S
O186 Dy180 2.403 . S
O186 C188 1.254 . S
O187 Dy180 2.664 . S
O187 Dy183 2.310 1_455 S
O187 C188 1.268 . S
C188 O186 1.254 . S
C188 O187 1.268 . S
C189 O194 1.241 1_455 S
C189 O195 1.275 . S
O190 Dy183 2.351 . S
O190 C198 1.249 . S
O191 Dy180 2.326 . S
O191 C198 1.267 1_455 S
O192 C181 1.185 . S
O192 Dy183 2.398 . S
O193 C181 1.355 . S
O193 Dy183 2.491 . S
O194 Dy183 2.403 . S
O194 C189 1.241 1_655 S
O195 Dy180 2.310 . S
O195 Dy183 2.664 1_455 S
O195 C189 1.275 . S
O196 Dy180 2.351 . S
O196 C199 1.249 . S
O197 Dy183 2.326 1_455 S
O197 C199 1.267 . S
C198 O190 1.249 . S
C198 O191 1.267 1_655 S
C199 O196 1.249 . S
C199 O197 1.267 . S
Dy200 O204 2.398 . S
Dy200 O205 2.491 . S
Dy200 O206 2.403 . S
Dy200 O207 2.664 . S
Dy200 O211 2.326 . S
Dy200 O215 2.310 . S
Dy200 O216 2.351 . S
C201 O212 1.185 . S
C201 O213 1.355 . S
C202 O204 1.185 . S
C202 O205 1.355 . S
Dy203 O207 2.310 1_565 S
Dy203 O210 2.351 . S
Dy203 O212 2.398 . S
Dy203 O213 2.491 . S
Dy203 O214 2.403 1_565 S
Dy203 O215 2.664 1_565 S
Dy203 O217 2.326 1_565 S
O204 Dy200 2.398 . S
O204 C202 1.185 . S
O205 Dy200 2.491 . S
O205 C202 1.355 . S
O206 Dy200 2.403 . S
O206 C208 1.254 . S
O207 Dy200 2.664 . S
O207 Dy203 2.310 1_545 S
O207 C208 1.268 . S
C208 O206 1.254 . S
C208 O207 1.268 . S
C209 O214 1.254 . S
C209 O215 1.268 . S
O210 Dy203 2.351 . S
O210 C218 1.241 1_565 S
O211 Dy200 2.326 . S
O211 C218 1.281 . S
O212 C201 1.185 . S
O212 Dy203 2.398 . S
O213 C201 1.355 . S
O213 Dy203 2.491 . S
O214 Dy203 2.403 1_545 S
O214 C209 1.254 . S
O215 Dy200 2.310 . S
O215 Dy203 2.664 1_545 S
O215 C209 1.268 . S
O216 Dy200 2.351 . S
O216 C219 1.249 . S
O217 Dy203 2.326 1_545 S
O217 C219 1.267 . S
C218 O210 1.241 1_545 S
C218 O211 1.281 . S
C219 O216 1.249 . S
C219 O217 1.267 . S
Dy220 O224 2.398 . S
Dy220 O225 2.491 . S
Dy220 O226 2.403 . S
Dy220 O227 2.664 1_655 S
Dy220 O231 2.326 1_655 S
Dy220 O235 2.310 1_655 S
Dy220 O236 2.351 . S
C221 O232 1.185 . S
C221 O233 1.355 . S
C222 O224 1.185 . S
C222 O225 1.355 . S
Dy223 O227 2.310 . S
Dy223 O230 2.351 . S
Dy223 O232 2.398 . S
Dy223 O233 2.491 . S
Dy223 O234 2.403 . S
Dy223 O235 2.664 . S
Dy223 O237 2.326 . S
O224 Dy220 2.398 . S
O224 C222 1.185 . S
O225 Dy220 2.491 . S
O225 C222 1.355 . S
O226 Dy220 2.403 . S
O226 C228 1.254 1_655 S
O227 Dy220 2.664 1_455 S
O227 Dy223 2.310 . S
O227 C228 1.268 . S
C228 O226 1.254 1_455 S
C228 O227 1.268 . S
C229 O234 1.254 . S
C229 O235 1.268 . S
O230 Dy223 2.351 . S
O230 C238 1.249 . S
O231 Dy220 2.326 1_455 S
O231 C238 1.267 . S
O232 C221 1.185 . S
O232 Dy223 2.398 . S
O233 C221 1.355 . S
O233 Dy223 2.491 . S
O234 Dy223 2.403 . S
O234 C229 1.254 . S
O235 Dy220 2.310 1_455 S
O235 Dy223 2.664 . S
O235 C229 1.268 . S
O236 Dy220 2.351 . S
O236 C239 1.249 . S
O237 Dy223 2.326 . S
O237 C239 1.267 1_455 S
C238 O230 1.249 . S
C238 O231 1.267 . S
C239 O236 1.249 . S
C239 O237 1.267 1_655 S
Dy240 O244 2.398 . S
Dy240 O245 2.491 . S
Dy240 O246 2.403 . S
Dy240 O247 2.664 . S
Dy240 O251 2.326 . S
Dy240 O255 2.310 . S
Dy240 O256 2.351 . S
C241 O252 1.185 . S
C241 O253 1.355 . S
C242 O244 1.185 . S
C242 O245 1.355 . S
Dy243 O247 2.310 1_565 S
Dy243 O250 2.351 . S
Dy243 O252 2.398 . S
Dy243 O253 2.491 . S
Dy243 O254 2.403 1_565 S
Dy243 O255 2.664 1_565 S
Dy243 O257 2.326 1_565 S
O244 Dy240 2.398 . S
O244 C242 1.185 . S
O245 Dy240 2.491 . S
O245 C242 1.355 . S
O246 Dy240 2.403 . S
O246 C248 1.254 . S
O247 Dy240 2.664 . S
O247 Dy243 2.310 1_545 S
O247 C248 1.268 . S
C248 O246 1.254 . S
C248 O247 1.268 . S
C249 O254 1.254 . S
C249 O255 1.268 . S
O250 Dy243 2.351 . S
O250 C258 1.249 . S
O251 Dy240 2.326 . S
O251 C258 1.267 1_545 S
O252 C241 1.185 . S
O252 Dy243 2.398 . S
O253 C241 1.355 . S
O253 Dy243 2.491 . S
O254 Dy243 2.403 1_545 S
O254 C249 1.254 . S
O255 Dy240 2.310 . S
O255 Dy243 2.664 1_545 S
O255 C249 1.268 . S
O256 Dy240 2.351 . S
O256 C259 1.249 . S
O257 Dy243 2.326 1_545 S
O257 C259 1.267 . S
C258 O250 1.249 . S
C258 O251 1.267 1_565 S
C259 O256 1.249 . S
C259 O257 1.267 . S
Dy260 O264 2.398 . S
Dy260 O265 2.491 . S
Dy260 O266 2.403 . S
Dy260 O267 2.664 1_655 S
Dy260 O271 2.326 1_655 S
Dy260 O275 2.310 1_655 S
Dy260 O276 2.351 . S
C261 O272 1.185 . S
C261 O273 1.355 . S
C262 O264 1.185 . S
C262 O265 1.355 . S
Dy263 O267 2.310 . S
Dy263 O270 2.351 . S
Dy263 O272 2.398 . S
Dy263 O273 2.491 . S
Dy263 O274 2.403 . S
Dy263 O275 2.664 . S
Dy263 O277 2.326 . S
O264 Dy260 2.398 . S
O264 C262 1.185 . S
O265 Dy260 2.491 . S
O265 C262 1.355 . S
O266 Dy260 2.403 . S
O266 C268 1.254 1_655 S
O267 Dy260 2.664 1_455 S
O267 Dy263 2.310 . S
O267 C268 1.268 . S
C268 O266 1.254 1_455 S
C268 O267 1.268 . S
C269 O274 1.254 . S
C269 O275 1.268 . S
O270 Dy263 2.351 . S
O270 C278 1.249 . S
O271 Dy260 2.326 1_455 S
O271 C278 1.267 . S
O272 C261 1.185 . S
O272 Dy263 2.398 . S
O273 C261 1.355 . S
O273 Dy263 2.491 . S
O274 Dy263 2.403 . S
O274 C269 1.254 . S
O275 Dy260 2.310 1_455 S
O275 Dy263 2.664 . S
O275 C269 1.268 . S
O276 Dy260 2.351 . S
O276 C279 1.249 . S
O277 Dy263 2.326 . S
O277 C279 1.267 1_455 S
C278 O270 1.249 . S
C278 O271 1.267 . S
C279 O276 1.249 . S
C279 O277 1.267 1_655 S
Dy280 O284 2.398 . S
Dy280 O285 2.491 . S
Dy280 O286 2.403 . S
Dy280 O287 2.664 1_565 S
Dy280 O291 2.326 1_565 S
Dy280 O295 2.310 . S
Dy280 O296 2.351 . S
C281 O292 1.185 . S
C281 O293 1.355 . S
C282 O284 1.185 . S
C282 O285 1.355 . S
Dy283 O287 2.310 . S
Dy283 O290 2.351 . S
Dy283 O292 2.398 . S
Dy283 O293 2.491 . S
Dy283 O294 2.403 . S
Dy283 O295 2.664 1_545 S
Dy283 O297 2.326 1_545 S
O284 Dy280 2.398 . S
O284 C282 1.185 . S
O285 Dy280 2.491 . S
O285 C282 1.355 . S
O286 Dy280 2.403 . S
O286 C288 1.254 . S
O287 Dy280 2.664 1_545 S
O287 Dy283 2.310 . S
O287 C288 1.268 1_545 S
C288 O286 1.254 . S
C288 O287 1.268 1_565 S
C289 O294 1.254 . S
C289 O295 1.268 1_545 S
O290 Dy283 2.351 . S
O290 C298 1.249 . S
O291 Dy280 2.326 1_545 S
O291 C298 1.267 . S
O292 C281 1.185 . S
O292 Dy283 2.398 . S
O293 C281 1.355 . S
O293 Dy283 2.491 . S
O294 Dy283 2.403 . S
O294 C289 1.254 . S
O295 Dy280 2.310 . S
O295 Dy283 2.664 1_565 S
O295 C289 1.268 1_565 S
O296 Dy280 2.351 . S
O296 C299 1.249 . S
O297 Dy283 2.326 1_565 S
O297 C299 1.267 . S
C298 O290 1.249 . S
C298 O291 1.267 . S
C299 O296 1.249 . S
C299 O297 1.267 . S
Dy300 O304 2.398 . S
Dy300 O305 2.491 . S
Dy300 O306 2.403 . S
Dy300 O307 2.664 . S
Dy300 O311 2.326 . S
Dy300 O315 2.310 . S
Dy300 O316 2.351 . S
C301 O312 1.185 . S
C301 O313 1.355 . S
C302 O304 1.185 . S
C302 O305 1.355 . S
Dy303 O307 2.310 1_655 S
Dy303 O310 2.351 . S
Dy303 O312 2.398 . S
Dy303 O313 2.491 . S
Dy303 O314 2.403 . S
Dy303 O315 2.664 1_655 S
Dy303 O317 2.326 1_655 S
O304 Dy300 2.398 . S
O304 C302 1.185 . S
O305 Dy300 2.491 . S
O305 C302 1.355 . S
O306 Dy300 2.403 . S
O306 C308 1.254 . S
O307 Dy300 2.664 . S
O307 Dy303 2.310 1_455 S
O307 C308 1.268 . S
C308 O306 1.254 . S
C308 O307 1.268 . S
C309 O314 1.254 1_455 S
C309 O315 1.268 . S
O310 Dy303 2.351 . S
O310 C318 1.249 . S
O311 Dy300 2.326 . S
O311 C318 1.267 1_455 S
O312 C301 1.185 . S
O312 Dy303 2.398 . S
O313 C301 1.355 . S
O313 Dy303 2.491 . S
O314 Dy303 2.403 . S
O314 C309 1.254 1_655 S
O315 Dy300 2.310 . S
O315 Dy303 2.664 1_455 S
O315 C309 1.268 . S
O316 Dy300 2.351 . S
O316 C319 1.249 . S
O317 Dy303 2.326 1_455 S
O317 C319 1.267 . S
C318 O310 1.249 . S
C318 O311 1.267 1_655 S
C319 O316 1.249 . S
C319 O317 1.267 . S
Dy320 O324 2.398 . S
Dy320 O325 2.491 . S
Dy320 O326 2.403 . S
Dy320 O327 2.664 1_556 S
Dy320 O331 2.326 1_556 S
Dy320 O335 2.310 1_556 S
Dy320 O336 2.351 . S
C321 O332 1.185 . S
C321 O333 1.355 . S
C322 O324 1.185 . S
C322 O325 1.355 . S
Dy323 O327 2.310 . S
Dy323 O330 2.351 . S
Dy323 O332 2.398 . S
Dy323 O333 2.491 . S
Dy323 O334 2.403 . S
Dy323 O335 2.664 . S
Dy323 O337 2.326 . S
O324 Dy320 2.398 . S
O324 C322 1.185 . S
O325 Dy320 2.491 . S
O325 C322 1.355 . S
O326 Dy320 2.403 . S
O326 C328 1.254 1_556 S
O327 Dy320 2.664 1_554 S
O327 Dy323 2.310 . S
O327 C328 1.268 . S
C328 O326 1.254 1_554 S
C328 O327 1.268 . S
C329 O334 1.254 . S
C329 O335 1.268 . S
O330 Dy323 2.351 . S
O330 C338 1.249 . S
O331 Dy320 2.326 1_554 S
O331 C338 1.267 . S
O332 C321 1.185 . S
O332 Dy323 2.398 . S
O333 C321 1.355 . S
O333 Dy323 2.491 . S
O334 Dy323 2.403 . S
O334 C329 1.254 . S
O335 Dy320 2.310 1_554 S
O335 Dy323 2.664 . S
O335 C329 1.268 . S
O336 Dy320 2.351 . S
O336 C339 1.249 . S
O337 Dy323 2.326 . S
O337 C339 1.267 1_554 S
C338 O330 1.249 . S
C338 O331 1.267 . S
C339 O336 1.249 . S
C339 O337 1.267 1_556 S
Dy340 O344 2.398 . S
Dy340 O345 2.491 . S
Dy340 O346 2.403 . S
Dy340 O347 2.664 . S
Dy340 O351 2.326 . S
Dy340 O355 2.310 . S
Dy340 O356 2.351 . S
C341 O352 1.185 . S
C341 O353 1.355 . S
C342 O344 1.185 . S
C342 O345 1.355 . S
Dy343 O347 2.310 1_556 S
Dy343 O350 2.351 . S
Dy343 O352 2.398 . S
Dy343 O353 2.491 . S
Dy343 O354 2.403 . S
Dy343 O355 2.664 1_556 S
Dy343 O357 2.326 1_556 S
O344 Dy340 2.398 . S
O344 C342 1.185 . S
O345 Dy340 2.491 . S
O345 C342 1.355 . S
O346 Dy340 2.403 . S
O346 C348 1.254 . S
O347 Dy340 2.664 . S
O347 Dy343 2.310 1_554 S
O347 C348 1.268 . S
C348 O346 1.254 . S
C348 O347 1.268 . S
C349 O354 1.254 1_554 S
C349 O355 1.268 . S
O350 Dy343 2.351 . S
O350 C358 1.249 . S
O351 Dy340 2.326 . S
O351 C358 1.267 1_554 S
O352 C341 1.185 . S
O352 Dy343 2.398 . S
O353 C341 1.355 . S
O353 Dy343 2.491 . S
O354 Dy343 2.403 . S
O354 C349 1.254 1_556 S
O355 Dy340 2.310 . S
O355 Dy343 2.664 1_554 S
O355 C349 1.268 . S
O356 Dy340 2.351 . S
O356 C359 1.249 . S
O357 Dy343 2.326 1_554 S
O357 C359 1.267 . S
C358 O350 1.249 . S
C358 O351 1.267 1_556 S
C359 O356 1.249 . S
C359 O357 1.267 . S
Dy360 O364 2.398 . S
Dy360 O365 2.491 . S
Dy360 O366 2.403 . S
Dy360 O367 2.664 . S
Dy360 O371 2.326 . S
Dy360 O375 2.310 . S
Dy360 O376 2.351 . S
C361 O372 1.185 . S
C361 O373 1.355 . S
C362 O364 1.185 . S
C362 O365 1.355 . S
Dy363 O367 2.310 1_556 S
Dy363 O370 2.351 . S
Dy363 O372 2.398 . S
Dy363 O373 2.491 . S
Dy363 O374 2.403 1_556 S
Dy363 O375 2.664 1_556 S
Dy363 O377 2.326 1_556 S
O364 Dy360 2.398 . S
O364 C362 1.185 . S
O365 Dy360 2.491 . S
O365 C362 1.355 . S
O366 Dy360 2.403 . S
O366 C368 1.254 . S
O367 Dy360 2.664 . S
O367 Dy363 2.310 1_554 S
O367 C368 1.268 . S
C368 O366 1.254 . S
C368 O367 1.268 . S
C369 O374 1.254 . S
C369 O375 1.268 . S
O370 Dy363 2.351 . S
O370 C378 1.249 1_556 S
O371 Dy360 2.326 . S
O371 C378 1.267 . S
O372 C361 1.185 . S
O372 Dy363 2.398 . S
O373 C361 1.355 . S
O373 Dy363 2.491 . S
O374 Dy363 2.403 1_554 S
O374 C369 1.254 . S
O375 Dy360 2.310 . S
O375 Dy363 2.664 1_554 S
O375 C369 1.268 . S
O376 Dy360 2.351 . S
O376 C379 1.249 . S
O377 Dy363 2.326 1_554 S
O377 C379 1.267 . S
C378 O370 1.249 1_554 S
C378 O371 1.267 . S
C379 O376 1.249 . S
C379 O377 1.267 . S
Dy380 O384 2.398 . S
Dy380 O385 2.491 . S
Dy380 O386 2.403 . S
Dy380 O387 2.664 . S
Dy380 O391 2.326 . S
Dy380 O395 2.310 . S
Dy380 O396 2.351 . S
C381 O392 1.185 . S
C381 O393 1.355 . S
C382 O384 1.185 . S
C382 O385 1.355 . S
Dy383 O387 2.310 1_556 S
Dy383 O390 2.351 . S
Dy383 O392 2.398 . S
Dy383 O393 2.491 . S
Dy383 O394 2.403 1_556 S
Dy383 O395 2.664 1_556 S
Dy383 O397 2.326 1_556 S
O384 Dy380 2.398 . S
O384 C382 1.185 . S
O385 Dy380 2.491 . S
O385 C382 1.355 . S
O386 Dy380 2.403 . S
O386 C388 1.254 . S
O387 Dy380 2.664 . S
O387 Dy383 2.310 1_554 S
O387 C388 1.268 . S
C388 O386 1.254 . S
C388 O387 1.268 . S
C389 O394 1.254 . S
C389 O395 1.268 . S
O390 Dy383 2.351 . S
O390 C398 1.244 1_556 S
O391 Dy380 2.326 . S
O391 C398 1.275 . S
O392 C381 1.185 . S
O392 Dy383 2.398 . S
O393 C381 1.355 . S
O393 Dy383 2.491 . S
O394 Dy383 2.403 1_554 S
O394 C389 1.254 . S
O395 Dy380 2.310 . S
O395 Dy383 2.664 1_554 S
O395 C389 1.268 . S
O396 Dy380 2.351 . S
O396 C399 1.249 . S
O397 Dy383 2.326 1_554 S
O397 C399 1.267 . S
C398 O390 1.244 1_554 S
C398 O391 1.275 . S
C399 O396 1.249 . S
C399 O397 1.267 . S
Dy400 O404 2.398 . S
Dy400 O405 2.491 . S
Dy400 O406 2.403 . S
Dy400 O407 2.664 . S
Dy400 O411 2.326 . S
Dy400 O415 2.310 . S
Dy400 O416 2.351 . S
C401 O412 1.185 . S
C401 O413 1.355 . S
C402 O404 1.185 . S
C402 O405 1.355 . S
Dy403 O407 2.310 1_556 S
Dy403 O410 2.351 . S
Dy403 O412 2.398 . S
Dy403 O413 2.491 . S
Dy403 O414 2.403 . S
Dy403 O415 2.664 1_556 S
Dy403 O417 2.326 1_556 S
O404 Dy400 2.398 . S
O404 C402 1.185 . S
O405 Dy400 2.491 . S
O405 C402 1.355 . S
O406 Dy400 2.403 . S
O406 C408 1.254 . S
O407 Dy400 2.664 . S
O407 Dy403 2.310 1_554 S
O407 C408 1.268 . S
C408 O406 1.254 . S
C408 O407 1.268 . S
C409 O414 1.254 1_554 S
C409 O415 1.268 . S
O410 Dy403 2.351 . S
O410 C418 1.249 . S
O411 Dy400 2.326 . S
O411 C418 1.267 1_554 S
O412 C401 1.185 . S
O412 Dy403 2.398 . S
O413 C401 1.355 . S
O413 Dy403 2.491 . S
O414 Dy403 2.403 . S
O414 C409 1.254 1_556 S
O415 Dy400 2.310 . S
O415 Dy403 2.664 1_554 S
O415 C409 1.268 . S
O416 Dy400 2.351 . S
O416 C419 1.249 . S
O417 Dy403 2.326 1_554 S
O417 C419 1.267 . S
C418 O410 1.249 . S
C418 O411 1.267 1_556 S
C419 O416 1.249 . S
C419 O417 1.267 . S
Dy420 O424 2.398 . S
Dy420 O425 2.491 . S
Dy420 O426 2.403 . S
Dy420 O427 2.664 1_556 S
Dy420 O431 2.326 1_556 S
Dy420 O435 2.289 1_556 S
Dy420 O436 2.351 . S
C421 O432 1.185 . S
C421 O433 1.355 . S
C422 O424 1.185 . S
C422 O425 1.355 . S
Dy423 O427 2.310 . S
Dy423 O430 2.351 . S
Dy423 O432 2.398 . S
Dy423 O433 2.491 . S
Dy423 O434 2.403 . S
Dy423 O435 2.687 . S
Dy423 O437 2.339 . S
O424 Dy420 2.398 . S
O424 C422 1.185 . S
O425 Dy420 2.491 . S
O425 C422 1.355 . S
O426 Dy420 2.403 . S
O426 C428 1.254 . S
O427 Dy420 2.664 1_554 S
O427 Dy423 2.310 . S
O427 C428 1.268 1_554 S
C428 O426 1.254 . S
C428 O427 1.268 1_556 S
C429 O434 1.254 . S
C429 O435 1.280 . S
O430 Dy423 2.351 . S
O430 C438 1.249 . S
O431 Dy420 2.326 1_554 S
O431 C438 1.267 . S
O432 C421 1.185 . S
O432 Dy423 2.398 . S
O433 C421 1.355 . S
O433 Dy423 2.491 . S
O434 Dy423 2.403 . S
O434 C429 1.254 . S
O435 Dy420 2.289 1_554 S
O435 Dy423 2.687 . S
O435 C429 1.280 . S
O436 Dy420 2.351 . S
O436 C439 1.249 . S
O437 Dy423 2.339 . S
O437 C439 1.252 1_554 S
C438 O430 1.249 . S
C438 O431 1.267 . S
C439 O436 1.249 . S
C439 O437 1.252 1_556 S
Dy440 O444 2.398 . S
Dy440 O445 2.491 . S
Dy440 O446 2.403 . S
Dy440 O447 2.664 1_556 S
Dy440 O451 2.326 1_556 S
Dy440 O455 2.310 . S
Dy440 O456 2.351 . S
C441 O452 1.185 . S
C441 O453 1.355 . S
C442 O444 1.185 . S
C442 O445 1.355 . S
Dy443 O447 2.310 . S
Dy443 O450 2.351 . S
Dy443 O452 2.398 . S
Dy443 O453 2.491 . S
Dy443 O454 2.403 . S
Dy443 O455 2.664 1_554 S
Dy443 O457 2.326 1_554 S
O444 Dy440 2.398 . S
O444 C442 1.185 . S
O445 Dy440 2.491 . S
O445 C442 1.355 . S
O446 Dy440 2.403 . S
O446 C448 1.254 . S
O447 Dy440 2.664 1_554 S
O447 Dy443 2.310 . S
O447 C448 1.268 1_554 S
C448 O446 1.254 . S
C448 O447 1.268 1_556 S
C449 O454 1.254 . S
C449 O455 1.268 1_554 S
O450 Dy443 2.351 . S
O450 C458 1.249 . S
O451 Dy440 2.326 1_554 S
O451 C458 1.267 . S
O452 C441 1.185 . S
O452 Dy443 2.398 . S
O453 C441 1.355 . S
O453 Dy443 2.491 . S
O454 Dy443 2.403 . S
O454 C449 1.254 . S
O455 Dy440 2.310 . S
O455 Dy443 2.664 1_556 S
O455 C449 1.268 1_556 S
O456 Dy440 2.351 . S
O456 C459 1.249 . S
O457 Dy443 2.326 1_556 S
O457 C459 1.267 . S
C458 O450 1.249 . S
C458 O451 1.267 . S
C459 O456 1.249 . S
C459 O457 1.267 . S
Dy460 O464 2.398 . S
Dy460 O465 2.491 . S
Dy460 O466 2.403 . S
Dy460 O467 2.664 1_556 S
Dy460 O471 2.326 1_556 S
Dy460 O475 2.310 1_556 S
Dy460 O476 2.351 . S
C461 O472 1.185 . S
C461 O473 1.355 . S
C462 O464 1.185 . S
C462 O465 1.355 . S
Dy463 O467 2.310 . S
Dy463 O470 2.351 . S
Dy463 O472 2.398 . S
Dy463 O473 2.491 . S
Dy463 O474 2.403 . S
Dy463 O475 2.664 . S
Dy463 O477 2.326 . S
O464 Dy460 2.398 . S
O464 C462 1.185 . S
O465 Dy460 2.491 . S
O465 C462 1.355 . S
O466 Dy460 2.403 . S
O466 C468 1.254 1_556 S
O467 Dy460 2.664 1_554 S
O467 Dy463 2.310 . S
O467 C468 1.268 . S
C468 O466 1.254 1_554 S
C468 O467 1.268 . S
C469 O474 1.254 . S
C469 O475 1.268 . S
O470 Dy463 2.351 . S
O470 C478 1.249 . S
O471 Dy460 2.326 1_554 S
O471 C478 1.267 . S
O472 C461 1.185 . S
O472 Dy463 2.398 . S
O473 C461 1.355 . S
O473 Dy463 2.491 . S
O474 Dy463 2.403 . S
O474 C469 1.254 . S
O475 Dy460 2.310 1_554 S
O475 Dy463 2.664 . S
O475 C469 1.268 . S
O476 Dy460 2.351 . S
O476 C479 1.249 . S
O477 Dy463 2.326 . S
O477 C479 1.267 1_554 S
C478 O470 1.249 . S
C478 O471 1.267 . S
C479 O476 1.249 . S
C479 O477 1.267 1_556 S
Dy480 O484 2.398 . S
Dy480 O485 2.491 . S
Dy480 O486 2.403 . S
Dy480 O487 2.664 . S
Dy480 O491 2.326 . S
Dy480 O495 2.310 . S
Dy480 O496 2.351 . S
C481 O492 1.185 . S
C481 O493 1.355 . S
C482 O484 1.185 . S
C482 O485 1.355 . S
Dy483 O487 2.310 . S
Dy483 O490 2.351 . S
Dy483 O492 2.398 . S
Dy483 O493 2.491 . S
Dy483 O494 2.403 . S
Dy483 O495 2.664 . S
Dy483 O497 2.326 . S
O484 Dy480 2.398 . S
O484 C482 1.185 . S
O485 Dy480 2.491 . S
O485 C482 1.355 . S
O486 Dy480 2.403 . S
O486 C488 1.254 . S
O487 Dy480 2.664 . S
O487 Dy483 2.310 . S
O487 C488 1.268 . S
C488 O486 1.254 . S
C488 O487 1.268 . S
C489 O494 1.254 . S
C489 O495 1.268 . S
O490 Dy483 2.351 . S
O490 C498 1.249 . S
O491 Dy480 2.326 . S
O491 C498 1.267 . S
O492 C481 1.185 . S
O492 Dy483 2.398 . S
O493 C481 1.355 . S
O493 Dy483 2.491 . S
O494 Dy483 2.403 . S
O494 C489 1.254 . S
O495 Dy480 2.310 . S
O495 Dy483 2.664 . S
O495 C489 1.268 . S
O496 Dy480 2.351 . S
O496 C499 1.249 . S
O497 Dy483 2.326 . S
O497 C499 1.267 . S
C498 O490 1.249 . S
C498 O491 1.267 . S
C499 O496 1.249 . S
C499 O497 1.267 . S
Dy500 O504 2.398 . S
Dy500 O505 2.491 . S
Dy500 O506 2.403 . S
Dy500 O507 2.664 . S
Dy500 O511 2.326 . S
Dy500 O515 2.310 . S
Dy500 O516 2.351 . S
C501 O512 1.185 . S
C501 O513 1.355 . S
C502 O504 1.185 . S
C502 O505 1.355 . S
Dy503 O507 2.310 . S
Dy503 O510 2.351 . S
Dy503 O512 2.398 . S
Dy503 O513 2.491 . S
Dy503 O514 2.403 . S
Dy503 O515 2.664 . S
Dy503 O517 2.326 . S
O504 Dy500 2.398 . S
O504 C502 1.185 . S
O505 Dy500 2.491 . S
O505 C502 1.355 . S
O506 Dy500 2.403 . S
O506 C508 1.254 . S
O507 Dy500 2.664 . S
O507 Dy503 2.310 . S
O507 C508 1.268 . S
C508 O506 1.254 . S
C508 O507 1.268 . S
C509 O514 1.254 . S
C509 O515 1.268 . S
O510 Dy503 2.351 . S
O510 C518 1.249 . S
O511 Dy500 2.326 . S
O511 C518 1.267 . S
O512 C501 1.185 . S
O512 Dy503 2.398 . S
O513 C501 1.355 . S
O513 Dy503 2.491 . S
O514 Dy503 2.403 . S
O514 C509 1.254 . S
O515 Dy500 2.310 . S
O515 Dy503 2.664 . S
O515 C509 1.268 . S
O516 Dy500 2.351 . S
O516 C519 1.249 . S
O517 Dy503 2.326 . S
O517 C519 1.267 . S
C518 O510 1.249 . S
C518 O511 1.267 . S
C519 O516 1.249 . S
C519 O517 1.267 . S
Dy520 O524 2.398 . S
Dy520 O525 2.491 . S
Dy520 O526 2.403 . S
Dy520 O527 2.664 . S
Dy520 O531 2.326 . S
Dy520 O535 2.310 . S
Dy520 O536 2.351 . S
C521 O532 1.185 . S
C521 O533 1.355 . S
C522 O524 1.185 . S
C522 O525 1.355 . S
Dy523 O527 2.310 . S
Dy523 O530 2.351 . S
Dy523 O532 2.398 . S
Dy523 O533 2.491 . S
Dy523 O534 2.403 . S
Dy523 O535 2.664 . S
Dy523 O537 2.326 . S
O524 Dy520 2.398 . S
O524 C522 1.185 . S
O525 Dy520 2.491 . S
O525 C522 1.355 . S
O526 Dy520 2.403 . S
O526 C528 1.254 . S
O527 Dy520 2.664 . S
O527 Dy523 2.310 . S
O527 C528 1.268 . S
C528 O526 1.254 . S
C528 O527 1.268 . S
C529 O534 1.254 . S
C529 O535 1.268 . S
O530 Dy523 2.351 . S
O530 C538 1.249 . S
O531 Dy520 2.326 . S
O531 C538 1.267 . S
O532 C521 1.185 . S
O532 Dy523 2.398 . S
O533 C521 1.355 . S
O533 Dy523 2.491 . S
O534 Dy523 2.403 . S
O534 C529 1.254 . S
O535 Dy520 2.310 . S
O535 Dy523 2.664 . S
O535 C529 1.268 . S
O536 Dy520 2.351 . S
O536 C539 1.249 . S
O537 Dy523 2.326 . S
O537 C539 1.267 . S
C538 O530 1.249 . S
C538 O531 1.267 . S
C539 O536 1.249 . S
C539 O537 1.267 . S
Dy540 O544 2.398 . S
Dy540 O545 2.491 . S
Dy540 O546 2.403 . S
Dy540 O547 2.664 . S
Dy540 O551 2.326 . S
Dy540 O555 2.310 . S
Dy540 O556 2.351 . S
C541 O552 1.185 . S
C541 O553 1.355 . S
C542 O544 1.185 . S
C542 O545 1.355 . S
Dy543 O547 2.310 . S
Dy543 O550 2.351 . S
Dy543 O552 2.398 . S
Dy543 O553 2.491 . S
Dy543 O554 2.403 . S
Dy543 O555 2.664 . S
Dy543 O557 2.326 . S
O544 Dy540 2.398 . S
O544 C542 1.185 . S
O545 Dy540 2.491 . S
O545 C542 1.355 . S
O546 Dy540 2.403 . S
O546 C548 1.254 . S
O547 Dy540 2.664 . S
O547 Dy543 2.310 . S
O547 C548 1.268 . S
C548 O546 1.254 . S
C548 O547 1.268 . S
C549 O554 1.254 . S
C549 O555 1.268 . S
O550 Dy543 2.351 . S
O550 C558 1.249 . S
O551 Dy540 2.326 . S
O551 C558 1.267 . S
O552 C541 1.185 . S
O552 Dy543 2.398 . S
O553 C541 1.355 . S
O553 Dy543 2.491 . S
O554 Dy543 2.403 . S
O554 C549 1.254 . S
O555 Dy540 2.310 . S
O555 Dy543 2.664 . S
O555 C549 1.268 . S
O556 Dy540 2.351 . S
O556 C559 1.249 . S
O557 Dy543 2.326 . S
O557 C559 1.267 . S
C558 O550 1.249 . S
C558 O551 1.267 . S
C559 O556 1.249 . S
C559 O557 1.267 . S
Dy560 O564 2.398 . S
Dy560 O565 2.491 . S
Dy560 O566 2.403 . S
Dy560 O567 2.664 . S
Dy560 O571 2.326 . S
Dy560 O575 2.310 . S
Dy560 O576 2.351 . S
C561 O572 1.185 . S
C561 O573 1.355 . S
C562 O564 1.185 . S
C562 O565 1.355 . S
Dy563 O567 2.310 . S
Dy563 O570 2.351 . S
Dy563 O572 2.398 . S
Dy563 O573 2.491 . S
Dy563 O574 2.403 . S
Dy563 O575 2.664 . S
Dy563 O577 2.326 . S
O564 Dy560 2.398 . S
O564 C562 1.185 . S
O565 Dy560 2.491 . S
O565 C562 1.355 . S
O566 Dy560 2.403 . S
O566 C568 1.254 . S
O567 Dy560 2.664 . S
O567 Dy563 2.310 . S
O567 C568 1.268 . S
C568 O566 1.254 . S
C568 O567 1.268 . S
C569 O574 1.254 . S
C569 O575 1.268 . S
O570 Dy563 2.351 . S
O570 C578 1.249 . S
O571 Dy560 2.326 . S
O571 C578 1.267 . S
O572 C561 1.185 . S
O572 Dy563 2.398 . S
O573 C561 1.355 . S
O573 Dy563 2.491 . S
O574 Dy563 2.403 . S
O574 C569 1.254 . S
O575 Dy560 2.310 . S
O575 Dy563 2.664 . S
O575 C569 1.268 . S
O576 Dy560 2.351 . S
O576 C579 1.249 . S
O577 Dy563 2.326 . S
O577 C579 1.267 . S
C578 O570 1.249 . S
C578 O571 1.267 . S
C579 O576 1.249 . S
C579 O577 1.267 . S
Dy580 O584 2.398 . S
Dy580 O585 2.491 . S
Dy580 O586 2.403 . S
Dy580 O587 2.664 . S
Dy580 O591 2.326 . S
Dy580 O595 2.310 . S
Dy580 O596 2.351 . S
C581 O592 1.185 . S
C581 O593 1.355 . S
C582 O584 1.185 . S
C582 O585 1.355 . S
Dy583 O587 2.310 . S
Dy583 O590 2.351 . S
Dy583 O592 2.398 . S
Dy583 O593 2.491 . S
Dy583 O594 2.403 . S
Dy583 O595 2.664 . S
Dy583 O597 2.326 . S
O584 Dy580 2.398 . S
O584 C582 1.185 . S
O585 Dy580 2.491 . S
O585 C582 1.355 . S
O586 Dy580 2.403 . S
O586 C588 1.254 . S
O587 Dy580 2.664 . S
O587 Dy583 2.310 . S
O587 C588 1.268 . S
C588 O586 1.254 . S
C588 O587 1.268 . S
C589 O594 1.254 . S
C589 O595 1.268 . S
O590 Dy583 2.351 . S
O590 C598 1.249 . S
O591 Dy580 2.326 . S
O591 C598 1.267 . S
O592 C581 1.185 . S
O592 Dy583 2.398 . S
O593 C581 1.355 . S
O593 Dy583 2.491 . S
O594 Dy583 2.403 . S
O594 C589 1.254 . S
O595 Dy580 2.310 . S
O595 Dy583 2.664 . S
O595 C589 1.268 . S
O596 Dy580 2.351 . S
O596 C599 1.249 . S
O597 Dy583 2.326 . S
O597 C599 1.267 . S
C598 O590 1.249 . S
C598 O591 1.267 . S
C599 O596 1.249 . S
C599 O597 1.267 . S
Dy600 O604 2.398 . S
Dy600 O605 2.491 . S
Dy600 O606 2.403 . S
Dy600 O607 2.664 . S
Dy600 O611 2.326 . S
Dy600 O615 2.310 . S
Dy600 O616 2.351 . S
C601 O612 1.185 . S
C601 O613 1.355 . S
C602 O604 1.185 . S
C602 O605 1.355 . S
Dy603 O607 2.310 . S
Dy603 O610 2.351 . S
Dy603 O612 2.398 . S
Dy603 O613 2.491 . S
Dy603 O614 2.403 . S
Dy603 O615 2.664 . S
Dy603 O617 2.326 . S
O604 Dy600 2.398 . S
O604 C602 1.185 . S
O605 Dy600 2.491 . S
O605 C602 1.355 . S
O606 Dy600 2.403 . S
O606 C608 1.254 . S
O607 Dy600 2.664 . S
O607 Dy603 2.310 . S
O607 C608 1.268 . S
C608 O606 1.254 . S
C608 O607 1.268 . S
C609 O614 1.254 . S
C609 O615 1.268 . S
O610 Dy603 2.351 . S
O610 C618 1.249 . S
O611 Dy600 2.326 . S
O611 C618 1.267 . S
O612 C601 1.185 . S
O612 Dy603 2.398 . S
O613 C601 1.355 . S
O613 Dy603 2.491 . S
O614 Dy603 2.403 . S
O614 C609 1.254 . S
O615 Dy600 2.310 . S
O615 Dy603 2.664 . S
O615 C609 1.268 . S
O616 Dy600 2.351 . S
O616 C619 1.249 . S
O617 Dy603 2.326 . S
O617 C619 1.267 . S
C618 O610 1.249 . S
C618 O611 1.267 . S
C619 O616 1.249 . S
C619 O617 1.267 . S
Dy620 O624 2.398 . S
Dy620 O625 2.491 . S
Dy620 O626 2.403 . S
Dy620 O627 2.664 . S
Dy620 O631 2.326 . S
Dy620 O635 2.310 . S
Dy620 O636 2.351 . S
C621 O632 1.185 . S
C621 O633 1.355 . S
C622 O624 1.185 . S
C622 O625 1.355 . S
Dy623 O627 2.310 . S
Dy623 O630 2.351 . S
Dy623 O632 2.398 . S
Dy623 O633 2.491 . S
Dy623 O634 2.403 . S
Dy623 O635 2.664 . S
Dy623 O637 2.326 . S
O624 Dy620 2.398 . S
O624 C622 1.185 . S
O625 Dy620 2.491 . S
O625 C622 1.355 . S
O626 Dy620 2.403 . S
O626 C628 1.254 . S
O627 Dy620 2.664 . S
O627 Dy623 2.310 . S
O627 C628 1.268 . S
C628 O626 1.254 . S
C628 O627 1.268 . S
C629 O634 1.254 . S
C629 O635 1.268 . S
O630 Dy623 2.351 . S
O630 C638 1.249 . S
O631 Dy620 2.326 . S
O631 C638 1.267 . S
O632 C621 1.185 . S
O632 Dy623 2.398 . S
O633 C621 1.355 . S
O633 Dy623 2.491 . S
O634 Dy623 2.403 . S
O634 C629 1.254 . S
O635 Dy620 2.310 . S
O635 Dy623 2.664 . S
O635 C629 1.268 . S
O636 Dy620 2.351 . S
O636 C639 1.249 . S
O637 Dy623 2.326 . S
O637 C639 1.267 . S
C638 O630 1.249 . S
C638 O631 1.267 . S
C639 O636 1.249 . S
C639 O637 1.267 . S
Dy640 O644 2.398 . S
Dy640 O645 2.491 . S
Dy640 O646 2.403 . S
Dy640 O647 2.664 . S
Dy640 O651 2.326 . S
Dy640 O655 2.310 . S
Dy640 O656 2.351 . S
C641 O652 1.185 . S
C641 O653 1.355 . S
C642 O644 1.185 . S
C642 O645 1.355 . S
Dy643 O647 2.310 . S
Dy643 O650 2.351 . S
Dy643 O652 2.398 . S
Dy643 O653 2.491 . S
Dy643 O654 2.403 . S
Dy643 O655 2.664 . S
Dy643 O657 2.326 . S
O644 Dy640 2.398 . S
O644 C642 1.185 . S
O645 Dy640 2.491 . S
O645 C642 1.355 . S
O646 Dy640 2.403 . S
O646 C648 1.254 . S
O647 Dy640 2.664 . S
O647 Dy643 2.310 . S
O647 C648 1.268 . S
C648 O646 1.254 . S
C648 O647 1.268 . S
C649 O654 1.254 . S
C649 O655 1.268 . S
O650 Dy643 2.351 . S
O650 C658 1.249 . S
O651 Dy640 2.326 . S
O651 C658 1.267 . S
O652 C641 1.185 . S
O652 Dy643 2.398 . S
O653 C641 1.355 . S
O653 Dy643 2.491 . S
O654 Dy643 2.403 . S
O654 C649 1.254 . S
O655 Dy640 2.310 . S
O655 Dy643 2.664 . S
O655 C649 1.268 . S
O656 Dy640 2.351 . S
O656 C659 1.249 . S
O657 Dy643 2.326 . S
O657 C659 1.267 . S
C658 O650 1.249 . S
C658 O651 1.267 . S
C659 O656 1.249 . S
C659 O657 1.267 . S
Dy660 O664 2.398 . S
Dy660 O665 2.491 . S
Dy660 O666 2.403 . S
Dy660 O667 2.664 . S
Dy660 O671 2.326 . S
Dy660 O675 2.310 . S
Dy660 O676 2.351 . S
C661 O672 1.185 . S
C661 O673 1.355 . S
C662 O664 1.185 . S
C662 O665 1.355 . S
Dy663 O667 2.310 . S
Dy663 O670 2.351 . S
Dy663 O672 2.398 . S
Dy663 O673 2.491 . S
Dy663 O674 2.403 . S
Dy663 O675 2.664 . S
Dy663 O677 2.326 . S
O664 Dy660 2.398 . S
O664 C662 1.185 . S
O665 Dy660 2.491 . S
O665 C662 1.355 . S
O666 Dy660 2.403 . S
O666 C668 1.254 . S
O667 Dy660 2.664 . S
O667 Dy663 2.310 . S
O667 C668 1.268 . S
C668 O666 1.254 . S
C668 O667 1.268 . S
C669 O674 1.254 . S
C669 O675 1.268 . S
O670 Dy663 2.351 . S
O670 C678 1.249 . S
O671 Dy660 2.326 . S
O671 C678 1.267 . S
O672 C661 1.185 . S
O672 Dy663 2.398 . S
O673 C661 1.355 . S
O673 Dy663 2.491 . S
O674 Dy663 2.403 . S
O674 C669 1.254 . S
O675 Dy660 2.310 . S
O675 Dy663 2.664 . S
O675 C669 1.268 . S
O676 Dy660 2.351 . S
O676 C679 1.249 . S
O677 Dy663 2.326 . S
O677 C679 1.267 . S
C678 O670 1.249 . S
C678 O671 1.267 . S
C679 O676 1.249 . S
C679 O677 1.267 . S
Dy680 O684 2.398 . S
Dy680 O685 2.491 . S
Dy680 O686 2.403 . S
Dy680 O687 2.664 . S
Dy680 O691 2.326 . S
Dy680 O695 2.310 . S
Dy680 O696 2.351 . S
C681 O692 1.185 . S
C681 O693 1.355 . S
C682 O684 1.185 . S
C682 O685 1.355 . S
Dy683 O687 2.310 . S
Dy683 O690 2.351 . S
Dy683 O692 2.398 . S
Dy683 O693 2.491 . S
Dy683 O694 2.403 . S
Dy683 O695 2.664 . S
Dy683 O697 2.326 . S
O684 Dy680 2.398 . S
O684 C682 1.185 . S
O685 Dy680 2.491 . S
O685 C682 1.355 . S
O686 Dy680 2.403 . S
O686 C688 1.254 . S
O687 Dy680 2.664 . S
O687 Dy683 2.310 . S
O687 C688 1.268 . S
C688 O686 1.254 . S
C688 O687 1.268 . S
C689 O694 1.254 . S
C689 O695 1.268 . S
O690 Dy683 2.351 . S
O690 C698 1.249 . S
O691 Dy680 2.326 . S
O691 C698 1.267 . S
O692 C681 1.185 . S
O692 Dy683 2.398 . S
O693 C681 1.355 . S
O693 Dy683 2.491 . S
O694 Dy683 2.403 . S
O694 C689 1.254 . S
O695 Dy680 2.310 . S
O695 Dy683 2.664 . S
O695 C689 1.268 . S
O696 Dy680 2.351 . S
O696 C699 1.249 . S
O697 Dy683 2.326 . S
O697 C699 1.267 . S
C698 O690 1.249 . S
C698 O691 1.267 . S
C699 O696 1.249 . S
C699 O697 1.267 . S
Dy700 O704 2.398 . S
Dy700 O705 2.491 . S
Dy700 O706 2.403 . S
Dy700 O707 2.664 . S
Dy700 O711 2.326 . S
Dy700 O715 2.310 . S
Dy700 O716 2.351 . S
C701 O712 1.185 . S
C701 O713 1.355 . S
C702 O704 1.185 . S
C702 O705 1.355 . S
Dy703 O707 2.310 . S
Dy703 O710 2.351 . S
Dy703 O712 2.398 . S
Dy703 O713 2.491 . S
Dy703 O714 2.403 . S
Dy703 O715 2.664 . S
Dy703 O717 2.326 . S
O704 Dy700 2.398 . S
O704 C702 1.185 . S
O705 Dy700 2.491 . S
O705 C702 1.355 . S
O706 Dy700 2.403 . S
O706 C708 1.254 . S
O707 Dy700 2.664 . S
O707 Dy703 2.310 . S
O707 C708 1.268 . S
C708 O706 1.254 . S
C708 O707 1.268 . S
C709 O714 1.254 . S
C709 O715 1.268 . S
O710 Dy703 2.351 . S
O710 C718 1.249 . S
O711 Dy700 2.326 . S
O711 C718 1.267 . S
O712 C701 1.185 . S
O712 Dy703 2.398 . S
O713 C701 1.355 . S
O713 Dy703 2.491 . S
O714 Dy703 2.403 . S
O714 C709 1.254 . S
O715 Dy700 2.310 . S
O715 Dy703 2.664 . S
O715 C709 1.268 . S
O716 Dy700 2.351 . S
O716 C719 1.249 . S
O717 Dy703 2.326 . S
O717 C719 1.267 . S
C718 O710 1.249 . S
C718 O711 1.267 . S
C719 O716 1.249 . S
C719 O717 1.267 . S
Dy720 O724 2.398 . S
Dy720 O725 2.491 . S
Dy720 O726 2.403 . S
Dy720 O727 2.664 . S
Dy720 O731 2.326 . S
Dy720 O735 2.310 . S
Dy720 O736 2.351 . S
C721 O732 1.185 . S
C721 O733 1.355 . S
C722 O724 1.185 . S
C722 O725 1.355 . S
Dy723 O727 2.310 . S
Dy723 O730 2.351 . S
Dy723 O732 2.398 . S
Dy723 O733 2.491 . S
Dy723 O734 2.403 . S
Dy723 O735 2.664 . S
Dy723 O737 2.326 . S
O724 Dy720 2.398 . S
O724 C722 1.185 . S
O725 Dy720 2.491 . S
O725 C722 1.355 . S
O726 Dy720 2.403 . S
O726 C728 1.254 . S
O727 Dy720 2.664 . S
O727 Dy723 2.310 . S
O727 C728 1.268 . S
C728 O726 1.254 . S
C728 O727 1.268 . S
C729 O734 1.254 . S
C729 O735 1.268 . S
O730 Dy723 2.351 . S
O730 C738 1.249 . S
O731 Dy720 2.326 . S
O731 C738 1.267 . S
O732 C721 1.185 . S
O732 Dy723 2.398 . S
O733 C721 1.355 . S
O733 Dy723 2.491 . S
O734 Dy723 2.403 . S
O734 C729 1.254 . S
O735 Dy720 2.310 . S
O735 Dy723 2.664 . S
O735 C729 1.268 . S
O736 Dy720 2.351 . S
O736 C739 1.249 . S
O737 Dy723 2.326 . S
O737 C739 1.267 . S
C738 O730 1.249 . S
C738 O731 1.267 . S
C739 O736 1.249 . S
C739 O737 1.267 . S
Dy740 O744 2.398 . S
Dy740 O745 2.491 . S
Dy740 O746 2.403 . S
Dy740 O747 2.664 . S
Dy740 O751 2.326 . S
Dy740 O755 2.310 . S
Dy740 O756 2.351 . S
C741 O752 1.185 . S
C741 O753 1.355 . S
C742 O744 1.185 . S
C742 O745 1.355 . S
Dy743 O747 2.310 . S
Dy743 O750 2.351 . S
Dy743 O752 2.398 . S
Dy743 O753 2.491 . S
Dy743 O754 2.403 . S
Dy743 O755 2.664 . S
Dy743 O757 2.326 . S
O744 Dy740 2.398 . S
O744 C742 1.185 . S
O745 Dy740 2.491 . S
O745 C742 1.355 . S
O746 Dy740 2.403 . S
O746 C748 1.254 . S
O747 Dy740 2.664 . S
O747 Dy743 2.310 . S
O747 C748 1.268 . S
C748 O746 1.254 . S
C748 O747 1.268 . S
C749 O754 1.254 . S
C749 O755 1.268 . S
O750 Dy743 2.351 . S
O750 C758 1.249 . S
O751 Dy740 2.326 . S
O751 C758 1.267 . S
O752 C741 1.185 . S
O752 Dy743 2.398 . S
O753 C741 1.355 . S
O753 Dy743 2.491 . S
O754 Dy743 2.403 . S
O754 C749 1.254 . S
O755 Dy740 2.310 . S
O755 Dy743 2.664 . S
O755 C749 1.268 . S
O756 Dy740 2.351 . S
O756 C759 1.249 . S
O757 Dy743 2.326 . S
O757 C759 1.267 . S
C758 O750 1.249 . S
C758 O751 1.267 . S
C759 O756 1.249 . S
C759 O757 1.267 . S
Dy760 O764 2.398 . S
Dy760 O765 2.491 . S
Dy760 O766 2.403 . S
Dy760 O767 2.664 . S
Dy760 O771 2.326 . S
Dy760 O775 2.310 . S
Dy760 O776 2.351 . S
C761 O772 1.185 . S
C761 O773 1.355 . S
C762 O764 1.185 . S
C762 O765 1.355 . S
Dy763 O767 2.310 . S
Dy763 O770 2.351 . S
Dy763 O772 2.398 . S
Dy763 O773 2.491 . S
Dy763 O774 2.403 . S
Dy763 O775 2.664 . S
Dy763 O777 2.326 . S
O764 Dy760 2.398 . S
O764 C762 1.185 . S
O765 Dy760 2.491 . S
O765 C762 1.355 . S
O766 Dy760 2.403 . S
O766 C768 1.254 . S
O767 Dy760 2.664 . S
O767 Dy763 2.310 . S
O767 C768 1.268 . S
C768 O766 1.254 . S
C768 O767 1.268 . S
C769 O774 1.254 . S
C769 O775 1.268 . S
O770 Dy763 2.351 . S
O770 C778 1.249 . S
O771 Dy760 2.326 . S
O771 C778 1.267 . S
O772 C761 1.185 . S
O772 Dy763 2.398 . S
O773 C761 1.355 . S
O773 Dy763 2.491 . S
O774 Dy763 2.403 . S
O774 C769 1.254 . S
O775 Dy760 2.310 . S
O775 Dy763 2.664 . S
O775 C769 1.268 . S
O776 Dy760 2.351 . S
O776 C779 1.249 . S
O777 Dy763 2.326 . S
O777 C779 1.267 . S
C778 O770 1.249 . S
C778 O771 1.267 . S
C779 O776 1.249 . S
C779 O777 1.267 . S
Dy780 O784 2.398 . S
Dy780 O785 2.491 . S
Dy780 O786 2.403 . S
Dy780 O787 2.664 . S
Dy780 O791 2.326 . S
Dy780 O795 2.310 . S
Dy780 O796 2.351 . S
C781 O792 1.185 . S
C781 O793 1.355 . S
C782 O784 1.185 . S
C782 O785 1.355 . S
Dy783 O787 2.310 . S
Dy783 O790 2.351 . S
Dy783 O792 2.398 . S
Dy783 O793 2.491 . S
Dy783 O794 2.403 . S
Dy783 O795 2.664 . S
Dy783 O797 2.326 . S
O784 Dy780 2.398 . S
O784 C782 1.185 . S
O785 Dy780 2.491 . S
O785 C782 1.355 . S
O786 Dy780 2.403 . S
O786 C788 1.254 . S
O787 Dy780 2.664 . S
O787 Dy783 2.310 . S
O787 C788 1.268 . S
C788 O786 1.254 . S
C788 O787 1.268 . S
C789 O794 1.254 . S
C789 O795 1.268 . S
O790 Dy783 2.351 . S
O790 C798 1.249 . S
O791 Dy780 2.326 . S
O791 C798 1.267 . S
O792 C781 1.185 . S
O792 Dy783 2.398 . S
O793 C781 1.355 . S
O793 Dy783 2.491 . S
O794 Dy783 2.403 . S
O794 C789 1.254 . S
O795 Dy780 2.310 . S
O795 Dy783 2.664 . S
O795 C789 1.268 . S
O796 Dy780 2.351 . S
O796 C799 1.249 . S
O797 Dy783 2.326 . S
O797 C799 1.267 . S
C798 O790 1.249 . S
C798 O791 1.267 . S
C799 O796 1.249 . S
C799 O797 1.267 . S
Dy800 O804 2.398 . S
Dy800 O805 2.491 . S
Dy800 O806 2.403 . S
Dy800 O807 2.664 . S
Dy800 O811 2.326 . S
Dy800 O815 2.310 . S
Dy800 O816 2.351 . S
C801 O812 1.185 . S
C801 O813 1.355 . S
C802 O804 1.185 . S
C802 O805 1.355 . S
Dy803 O807 2.310 . S
Dy803 O810 2.351 . S
Dy803 O812 2.398 . S
Dy803 O813 2.491 . S
Dy803 O814 2.403 . S
Dy803 O815 2.664 . S
Dy803 O817 2.326 . S
O804 Dy800 2.398 . S
O804 C802 1.185 . S
O805 Dy800 2.491 . S
O805 C802 1.355 . S
O806 Dy800 2.403 . S
O806 C808 1.254 . S
O807 Dy800 2.664 . S
O807 Dy803 2.310 . S
O807 C808 1.268 . S
C808 O806 1.254 . S
C808 O807 1.268 . S
C809 O814 1.254 . S
C809 O815 1.268 . S
O810 Dy803 2.351 . S
O810 C818 1.249 . S
O811 Dy800 2.326 . S
O811 C818 1.267 . S
O812 C801 1.185 . S
O812 Dy803 2.398 . S
O813 C801 1.355 . S
O813 Dy803 2.491 . S
O814 Dy803 2.403 . S
O814 C809 1.254 . S
O815 Dy800 2.310 . S
O815 Dy803 2.664 . S
O815 C809 1.268 . S
O816 Dy800 2.351 . S
O816 C819 1.249 . S
O817 Dy803 2.326 . S
O817 C819 1.267 . S
C818 O810 1.249 . S
C818 O811 1.267 . S
C819 O816 1.249 . S
C819 O817 1.267 . S
Dy820 O824 2.398 . S
Dy820 O825 2.491 . S
Dy820 O826 2.403 . S
Dy820 O827 2.664 . S
Dy820 O831 2.326 . S
Dy820 O835 2.310 . S
Dy820 O836 2.351 . S
C821 O832 1.185 . S
C821 O833 1.355 . S
C822 O824 1.185 . S
C822 O825 1.355 . S
Dy823 O827 2.310 . S
Dy823 O830 2.351 . S
Dy823 O832 2.398 . S
Dy823 O833 2.491 . S
Dy823 O834 2.403 . S
Dy823 O835 2.664 . S
Dy823 O837 2.326 . S
O824 Dy820 2.398 . S
O824 C822 1.185 . S
O825 Dy820 2.491 . S
O825 C822 1.355 . S
O826 Dy820 2.403 . S
O826 C828 1.254 . S
O827 Dy820 2.664 . S
O827 Dy823 2.310 . S
O827 C828 1.268 . S
C828 O826 1.254 . S
C828 O827 1.268 . S
C829 O834 1.254 . S
C829 O835 1.268 . S
O830 Dy823 2.351 . S
O830 C838 1.249 . S
O831 Dy820 2.326 . S
O831 C838 1.267 . S
O832 C821 1.185 . S
O832 Dy823 2.398 . S
O833 C821 1.355 . S
O833 Dy823 2.491 . S
O834 Dy823 2.403 . S
O834 C829 1.254 . S
O835 Dy820 2.310 . S
O835 Dy823 2.664 . S
O835 C829 1.268 . S
O836 Dy820 2.351 . S
O836 C839 1.249 . S
O837 Dy823 2.326 . S
O837 C839 1.267 . S
C838 O830 1.249 . S
C838 O831 1.267 . S
C839 O836 1.249 . S
C839 O837 1.267 . S
Dy840 O844 2.398 . S
Dy840 O845 2.491 . S
Dy840 O846 2.403 . S
Dy840 O847 2.664 . S
Dy840 O851 2.326 . S
Dy840 O855 2.310 . S
Dy840 O856 2.351 . S
C841 O852 1.185 . S
C841 O853 1.355 . S
C842 O844 1.185 . S
C842 O845 1.355 . S
Dy843 O847 2.310 . S
Dy843 O850 2.351 . S
Dy843 O852 2.398 . S
Dy843 O853 2.491 . S
Dy843 O854 2.403 . S
Dy843 O855 2.664 . S
Dy843 O857 2.326 . S
O844 Dy840 2.398 . S
O844 C842 1.185 . S
O845 Dy840 2.491 . S
O845 C842 1.355 . S
O846 Dy840 2.403 . S
O846 C848 1.254 . S
O847 Dy840 2.664 . S
O847 Dy843 2.310 . S
O847 C848 1.268 . S
C848 O846 1.254 . S
C848 O847 1.268 . S
C849 O854 1.254 . S
C849 O855 1.268 . S
O850 Dy843 2.351 . S
O850 C858 1.249 . S
O851 Dy840 2.326 . S
O851 C858 1.267 . S
O852 C841 1.185 . S
O852 Dy843 2.398 . S
O853 C841 1.355 . S
O853 Dy843 2.491 . S
O854 Dy843 2.403 . S
O854 C849 1.254 . S
O855 Dy840 2.310 . S
O855 Dy843 2.664 . S
O855 C849 1.268 . S
O856 Dy840 2.351 . S
O856 C859 1.249 . S
O857 Dy843 2.326 . S
O857 C859 1.267 . S
C858 O850 1.249 . S
C858 O851 1.267 . S
C859 O856 1.249 . S
C859 O857 1.267 . S
Dy860 O864 2.398 . S
Dy860 O865 2.491 . S
Dy860 O866 2.403 . S
Dy860 O867 2.664 . S
Dy860 O871 2.326 . S
Dy860 O875 2.310 . S
Dy860 O876 2.351 . S
C861 O872 1.185 . S
C861 O873 1.355 . S
C862 O864 1.185 . S
C862 O865 1.355 . S
Dy863 O867 2.310 . S
Dy863 O870 2.351 . S
Dy863 O872 2.398 . S
Dy863 O873 2.491 . S
Dy863 O874 2.403 . S
Dy863 O875 2.664 . S
Dy863 O877 2.326 . S
O864 Dy860 2.398 . S
O864 C862 1.185 . S
O865 Dy860 2.491 . S
O865 C862 1.355 . S
O866 Dy860 2.403 . S
O866 C868 1.254 . S
O867 Dy860 2.664 . S
O867 Dy863 2.310 . S
O867 C868 1.268 . S
C868 O866 1.254 . S
C868 O867 1.268 . S
C869 O874 1.254 . S
C869 O875 1.268 . S
O870 Dy863 2.351 . S
O870 C878 1.249 . S
O871 Dy860 2.326 . S
O871 C878 1.267 . S
O872 C861 1.185 . S
O872 Dy863 2.398 . S
O873 C861 1.355 . S
O873 Dy863 2.491 . S
O874 Dy863 2.403 . S
O874 C869 1.254 . S
O875 Dy860 2.310 . S
O875 Dy863 2.664 . S
O875 C869 1.268 . S
O876 Dy860 2.351 . S
O876 C879 1.249 . S
O877 Dy863 2.326 . S
O877 C879 1.267 . S
C878 O870 1.249 . S
C878 O871 1.267 . S
C879 O876 1.249 . S
C879 O877 1.267 . S
Dy880 O884 2.398 . S
Dy880 O885 2.491 . S
Dy880 O886 2.403 . S
Dy880 O887 2.664 . S
Dy880 O891 2.326 . S
Dy880 O895 2.310 . S
Dy880 O896 2.351 . S
C881 O892 1.185 . S
C881 O893 1.355 . S
C882 O884 1.185 . S
C882 O885 1.355 . S
Dy883 O887 2.310 . S
Dy883 O890 2.351 . S
Dy883 O892 2.398 . S
Dy883 O893 2.491 . S
Dy883 O894 2.403 . S
Dy883 O895 2.664 . S
Dy883 O897 2.326 . S
O884 Dy880 2.398 . S
O884 C882 1.185 . S
O885 Dy880 2.491 . S
O885 C882 1.355 . S
O886 Dy880 2.403 . S
O886 C888 1.254 . S
O887 Dy880 2.664 . S
O887 Dy883 2.310 . S
O887 C888 1.268 . S
C888 O886 1.254 . S
C888 O887 1.268 . S
C889 O894 1.254 . S
C889 O895 1.268 . S
O890 Dy883 2.351 . S
O890 C898 1.249 . S
O891 Dy880 2.326 . S
O891 C898 1.267 . S
O892 C881 1.185 . S
O892 Dy883 2.398 . S
O893 C881 1.355 . S
O893 Dy883 2.491 . S
O894 Dy883 2.403 . S
O894 C889 1.254 . S
O895 Dy880 2.310 . S
O895 Dy883 2.664 . S
O895 C889 1.268 . S
O896 Dy880 2.351 . S
O896 C899 1.249 . S
O897 Dy883 2.326 . S
O897 C899 1.267 . S
C898 O890 1.249 . S
C898 O891 1.267 . S
C899 O896 1.249 . S
C899 O897 1.267 . S
Dy900 O904 2.398 . S
Dy900 O905 2.491 . S
Dy900 O906 2.403 . S
Dy900 O907 2.664 . S
Dy900 O911 2.326 . S
Dy900 O915 2.310 . S
Dy900 O916 2.351 . S
C901 O912 1.185 . S
C901 O913 1.355 . S
C902 O904 1.185 . S
C902 O905 1.355 . S
Dy903 O907 2.310 . S
Dy903 O910 2.351 . S
Dy903 O912 2.398 . S
Dy903 O913 2.491 . S
Dy903 O914 2.403 . S
Dy903 O915 2.664 . S
Dy903 O917 2.326 . S
O904 Dy900 2.398 . S
O904 C902 1.185 . S
O905 Dy900 2.491 . S
O905 C902 1.355 . S
O906 Dy900 2.403 . S
O906 C908 1.254 . S
O907 Dy900 2.664 . S
O907 Dy903 2.310 . S
O907 C908 1.268 . S
C908 O906 1.254 . S
C908 O907 1.268 . S
C909 O914 1.254 . S
C909 O915 1.268 . S
O910 Dy903 2.351 . S
O910 C918 1.249 . S
O911 Dy900 2.326 . S
O911 C918 1.267 . S
O912 C901 1.185 . S
O912 Dy903 2.398 . S
O913 C901 1.355 . S
O913 Dy903 2.491 . S
O914 Dy903 2.403 . S
O914 C909 1.254 . S
O915 Dy900 2.310 . S
O915 Dy903 2.664 . S
O915 C909 1.268 . S
O916 Dy900 2.351 . S
O916 C919 1.249 . S
O917 Dy903 2.326 . S
O917 C919 1.267 . S
C918 O910 1.249 . S
C918 O911 1.267 . S
C919 O916 1.249 . S
C919 O917 1.267 . S
Dy920 O924 2.398 . S
Dy920 O925 2.491 . S
Dy920 O926 2.403 . S
Dy920 O927 2.664 . S
Dy920 O931 2.326 . S
Dy920 O935 2.310 . S
Dy920 O936 2.351 . S
C921 O932 1.185 . S
C921 O933 1.355 . S
C922 O924 1.185 . S
C922 O925 1.355 . S
Dy923 O927 2.310 . S
Dy923 O930 2.351 . S
Dy923 O932 2.398 . S
Dy923 O933 2.491 . S
Dy923 O934 2.403 . S
Dy923 O935 2.664 . S
Dy923 O937 2.326 . S
O924 Dy920 2.398 . S
O924 C922 1.185 . S
O925 Dy920 2.491 . S
O925 C922 1.355 . S
O926 Dy920 2.403 . S
O926 C928 1.254 . S
O927 Dy920 2.664 . S
O927 Dy923 2.310 . S
O927 C928 1.268 . S
C928 O926 1.254 . S
C928 O927 1.268 . S
C929 O934 1.254 . S
C929 O935 1.268 . S
O930 Dy923 2.351 . S
O930 C938 1.249 . S
O931 Dy920 2.326 . S
O931 C938 1.267 . S
O932 C921 1.185 . S
O932 Dy923 2.398 . S
O933 C921 1.355 . S
O933 Dy923 2.491 . S
O934 Dy923 2.403 . S
O934 C929 1.254 . S
O935 Dy920 2.310 . S
O935 Dy923 2.664 . S
O935 C929 1.268 . S
O936 Dy920 2.351 . S
O936 C939 1.249 . S
O937 Dy923 2.326 . S
O937 C939 1.267 . S
C938 O930 1.249 . S
C938 O931 1.267 . S
C939 O936 1.249 . S
C939 O937 1.267 . S
Dy940 O944 2.398 . S
Dy940 O945 2.491 . S
Dy940 O946 2.403 . S
Dy940 O947 2.664 . S
Dy940 O951 2.326 . S
Dy940 O955 2.310 . S
Dy940 O956 2.351 . S
C941 O952 1.185 . S
C941 O953 1.355 . S
C942 O944 1.185 . S
C942 O945 1.355 . S
Dy943 O947 2.310 . S
Dy943 O950 2.351 . S
Dy943 O952 2.398 . S
Dy943 O953 2.491 . S
Dy943 O954 2.403 . S
Dy943 O955 2.664 . S
Dy943 O957 2.326 . S
O944 Dy940 2.398 . S
O944 C942 1.185 . S
O945 Dy940 2.491 . S
O945 C942 1.355 . S
O946 Dy940 2.403 . S
O946 C948 1.254 . S
O947 Dy940 2.664 . S
O947 Dy943 2.310 . S
O947 C948 1.268 . S
C948 O946 1.254 . S
C948 O947 1.268 . S
C949 O954 1.254 . S
C949 O955 1.268 . S
O950 Dy943 2.351 . S
O950 C958 1.249 . S
O951 Dy940 2.326 . S
O951 C958 1.267 . S
O952 C941 1.185 . S
O952 Dy943 2.398 . S
O953 C941 1.355 . S
O953 Dy943 2.491 . S
O954 Dy943 2.403 . S
O954 C949 1.254 . S
O955 Dy940 2.310 . S
O955 Dy943 2.664 . S
O955 C949 1.268 . S
O956 Dy940 2.351 . S
O956 C959 1.249 . S
O957 Dy943 2.326 . S
O957 C959 1.267 . S
C958 O950 1.249 . S
C958 O951 1.267 . S
C959 O956 1.249 . S
C959 O957 1.267 . S
C960 C961 1.363 . S
C960 C966 1.379 . S
C960 N968 1.356 . S
C961 C960 1.363 . S
C961 C967 1.363 1_455 S
C962 C963 1.363 1_655 S
C962 C967 1.379 . S
C962 N969 1.356 . S
C963 C962 1.363 1_455 S
C963 C966 1.363 . S
N964 C966 1.356 . S
N964 H976 0.984 . S
N964 H977 0.985 . S
N965 C967 1.356 . S
N965 H970 0.984 . S
N965 H971 0.985 . S
C966 C960 1.379 . S
C966 C963 1.363 . S
C966 N964 1.356 . S
C967 C961 1.363 1_655 S
C967 C962 1.379 . S
C967 N965 1.356 . S
N968 C960 1.356 . S
N968 H974 0.984 . S
N968 H975 0.984 . S
N969 C962 1.356 . S
N969 H972 0.984 . S
N969 H973 0.985 . S
H970 N965 0.984 . S
H971 N965 0.985 . S
H972 N969 0.984 . S
H973 N969 0.985 . S
H974 N968 0.984 . S
H975 N968 0.984 . S
H976 N964 0.984 . S
H977 N964 0.985 . S
C978 C979 1.363 . S
C978 C984 1.379 . S
C978 N986 1.356 . S
C979 C978 1.363 . S
C979 C985 1.363 . S
C980 C981 1.363 . S
C980 C985 1.379 . S
C980 N987 1.356 . S
C981 C980 1.363 . S
C981 C984 1.363 . S
N982 C984 1.356 1_565 S
N982 H994 0.984 . S
N982 H995 0.985 . S
N983 C985 1.356 . S
N983 H988 0.984 . S
N983 H989 0.985 . S
C984 C978 1.379 . S
C984 C981 1.363 . S
C984 N982 1.356 1_545 S
C985 C979 1.363 . S
C985 C980 1.379 . S
C985 N983 1.356 . S
N986 C978 1.356 . S
N986 H992 0.984 1_545 S
N986 H993 0.984 . S
N987 C980 1.356 . S
N987 H990 0.984 . S
N987 H991 0.985 . S
H988 N983 0.984 . S
H989 N983 0.985 . S
H990 N987 0.984 . S
H991 N987 0.985 . S
H992 N986 0.984 1_565 S
H993 N986 0.984 . S
H994 N982 0.984 . S
H995 N982 0.985 . S
C996 C997 1.363 . S
C996 C1002 1.379 . S
C996 N1004 1.356 . S
C997 C996 1.363 . S
C997 C1003 1.363 . S
C998 C999 1.363 . S
C998 C1003 1.379 . S
C998 N1005 1.356 1_455 S
C999 C998 1.363 . S
C999 C1002 1.363 . S
N1000 C1002 1.356 . S
N1000 H1012 0.984 . S
N1000 H1013 0.985 . S
N1001 C1003 1.356 1_655 S
N1001 H1006 0.984 . S
N1001 H1007 0.985 . S
C1002 C996 1.379 . S
C1002 C999 1.363 . S
C1002 N1000 1.356 . S
C1003 C997 1.363 . S
C1003 C998 1.379 . S
C1003 N1001 1.356 1_455 S
N1004 C996 1.356 . S
N1004 H1010 0.984 . S
N1004 H1011 0.984 . S
N1005 C998 1.356 1_655 S
N1005 H1008 0.984 1_655 S
N1005 H1009 0.985 . S
H1006 N1001 0.984 . S
H1007 N1001 0.985 . S
H1008 N1005 0.984 1_455 S
H1009 N1005 0.985 . S
H1010 N1004 0.984 . S
H1011 N1004 0.984 . S
H1012 N1000 0.984 . S
H1013 N1000 0.985 . S
C1014 C1015 1.363 . S
C1014 C1020 1.379 . S
C1014 N1022 1.356 1_545 S
C1015 C1014 1.363 . S
C1015 C1021 1.363 . S
C1016 C1017 1.363 . S
C1016 C1021 1.379 . S
C1016 N1023 1.356 . S
C1017 C1016 1.363 . S
C1017 C1020 1.363 . S
N1018 C1020 1.356 1_565 S
N1018 H1030 0.984 . S
N1018 H1031 0.985 . S
N1019 C1021 1.356 . S
N1019 H1024 0.984 . S
N1019 H1025 0.985 . S
C1020 C1014 1.379 . S
C1020 C1017 1.363 . S
C1020 N1018 1.356 1_545 S
C1021 C1015 1.363 . S
C1021 C1016 1.379 . S
C1021 N1019 1.356 . S
N1022 C1014 1.356 1_565 S
N1022 H1028 0.984 . S
N1022 H1029 0.984 . S
N1023 C1016 1.356 . S
N1023 H1026 0.984 . S
N1023 H1027 0.985 . S
H1024 N1019 0.984 . S
H1025 N1019 0.985 . S
H1026 N1023 0.984 . S
H1027 N1023 0.985 . S
H1028 N1022 0.984 . S
H1029 N1022 0.984 . S
H1030 N1018 0.984 . S
H1031 N1018 0.985 . S
C1032 C1033 1.363 . S
C1032 C1038 1.379 . S
C1032 N1040 1.351 1_545 S
C1033 C1032 1.363 . S
C1033 C1039 1.363 . S
C1034 C1035 1.363 . S
C1034 C1039 1.379 . S
C1034 N1041 1.356 . S
C1035 C1034 1.363 . S
C1035 C1038 1.363 . S
N1036 C1038 1.356 1_565 S
N1036 H1048 0.984 . S
N1036 H1049 0.985 . S
N1037 C1039 1.356 . S
N1037 H1042 0.984 . S
N1037 H1043 0.985 . S
C1038 C1032 1.379 . S
C1038 C1035 1.363 . S
C1038 N1036 1.356 1_545 S
C1039 C1033 1.363 . S
C1039 C1034 1.379 . S
C1039 N1037 1.356 . S
N1040 C1032 1.351 1_565 S
N1040 H1046 0.994 . S
N1040 H1047 0.980 1_565 S
N1041 C1034 1.356 . S
N1041 H1044 0.984 . S
N1041 H1045 0.985 . S
H1042 N1037 0.984 . S
H1043 N1037 0.985 . S
H1044 N1041 0.984 . S
H1045 N1041 0.985 . S
H1046 N1040 0.994 . S
H1047 N1040 0.980 1_545 S
H1048 N1036 0.984 . S
H1049 N1036 0.985 . S
C1050 C1051 1.363 . S
C1050 C1056 1.379 . S
C1050 N1058 1.356 . S
C1051 C1050 1.363 . S
C1051 C1057 1.363 . S
C1052 C1053 1.363 . S
C1052 C1057 1.379 . S
C1052 N1059 1.356 . S
C1053 C1052 1.363 . S
C1053 C1056 1.363 . S
N1054 C1056 1.356 . S
N1054 H1066 0.984 . S
N1054 H1067 0.985 . S
N1055 C1057 1.356 . S
N1055 H1060 0.984 . S
N1055 H1061 0.985 . S
C1056 C1050 1.379 . S
C1056 C1053 1.363 . S
C1056 N1054 1.356 . S
C1057 C1051 1.363 . S
C1057 C1052 1.379 . S
C1057 N1055 1.356 . S
N1058 C1050 1.356 . S
N1058 H1064 0.984 . S
N1058 H1065 0.984 . S
N1059 C1052 1.356 . S
N1059 H1062 0.984 . S
N1059 H1063 0.985 . S
H1060 N1055 0.984 . S
H1061 N1055 0.985 . S
H1062 N1059 0.984 . S
H1063 N1059 0.985 . S
H1064 N1058 0.984 . S
H1065 N1058 0.984 . S
H1066 N1054 0.984 . S
H1067 N1054 0.985 . S
C1068 C1069 1.363 1_565 S
C1068 C1074 1.383 . S
C1068 N1076 1.356 . S
C1069 C1068 1.363 1_545 S
C1069 C1075 1.363 . S
C1070 C1071 1.363 . S
C1070 C1075 1.379 . S
C1070 N1077 1.356 . S
C1071 C1070 1.363 . S
C1071 C1074 1.351 1_545 S
N1072 C1074 1.361 . S
N1072 H1084 0.984 . S
N1072 H1085 0.993 . S
N1073 C1075 1.356 . S
N1073 H1078 0.984 . S
N1073 H1079 0.985 . S
C1074 C1068 1.383 . S
C1074 C1071 1.351 1_565 S
C1074 N1072 1.361 . S
C1075 C1069 1.363 . S
C1075 C1070 1.379 . S
C1075 N1073 1.356 . S
N1076 C1068 1.356 . S
N1076 H1082 0.984 . S
N1076 H1083 0.984 . S
N1077 C1070 1.356 . S
N1077 H1080 0.984 . S
N1077 H1081 0.985 . S
H1078 N1073 0.984 . S
H1079 N1073 0.985 . S
H1080 N1077 0.984 . S
H1081 N1077 0.985 . S
H1082 N1076 0.984 . S
H1083 N1076 0.984 . S
H1084 N1072 0.984 . S
H1085 N1072 0.993 . S
C1086 C1087 1.363 1_655 S
C1086 C1092 1.379 . S
C1086 N1094 1.356 . S
C1087 C1086 1.363 1_455 S
C1087 C1093 1.363 . S
C1088 C1089 1.363 . S
C1088 C1093 1.379 . S
C1088 N1095 1.356 . S
C1089 C1088 1.363 . S
C1089 C1092 1.363 1_455 S
N1090 C1092 1.356 . S
N1090 H1102 0.984 . S
N1090 H1103 0.985 . S
N1091 C1093 1.356 . S
N1091 H1096 0.984 . S
N1091 H1097 0.985 . S
C1092 C1086 1.379 . S
C1092 C1089 1.363 1_655 S
C1092 N1090 1.356 . S
C1093 C1087 1.363 . S
C1093 C1088 1.379 . S
C1093 N1091 1.356 . S
N1094 C1086 1.356 . S
N1094 H1100 0.984 . S
N1094 H1101 0.984 . S
N1095 C1088 1.356 . S
N1095 H1098 0.984 . S
N1095 H1099 0.985 . S
H1096 N1091 0.984 . S
H1097 N1091 0.985 . S
H1098 N1095 0.984 . S
H1099 N1095 0.985 . S
H1100 N1094 0.984 . S
H1101 N1094 0.984 . S
H1102 N1090 0.984 . S
H1103 N1090 0.985 . S
C1104 C1105 1.363 . S
C1104 C1110 1.379 . S
C1104 N1112 1.356 . S
C1105 C1104 1.363 . S
C1105 C1111 1.363 1_554 S
C1106 C1107 1.363 1_556 S
C1106 C1111 1.379 . S
C1106 N1113 1.356 . S
C1107 C1106 1.363 1_554 S
C1107 C1110 1.363 . S
N1108 C1110 1.356 . S
N1108 H1120 0.984 . S
N1108 H1121 0.985 . S
N1109 C1111 1.356 . S
N1109 H1114 0.984 . S
N1109 H1115 0.985 . S
C1110 C1104 1.379 . S
C1110 C1107 1.363 . S
C1110 N1108 1.356 . S
C1111 C1105 1.363 1_556 S
C1111 C1106 1.379 . S
C1111 N1109 1.356 . S
N1112 C1104 1.356 . S
N1112 H1118 0.984 . S
N1112 H1119 0.984 . S
N1113 C1106 1.356 . S
N1113 H1116 0.984 . S
N1113 H1117 0.985 . S
H1114 N1109 0.984 . S
H1115 N1109 0.985 . S
H1116 N1113 0.984 . S
H1117 N1113 0.985 . S
H1118 N1112 0.984 . S
H1119 N1112 0.984 . S
H1120 N1108 0.984 . S
H1121 N1108 0.985 . S
C1122 C1123 1.363 . S
C1122 C1128 1.379 . S
C1122 N1130 1.356 1_554 S
C1123 C1122 1.363 . S
C1123 C1129 1.363 . S
C1124 C1125 1.363 . S
C1124 C1129 1.379 . S
C1124 N1131 1.356 . S
C1125 C1124 1.363 . S
C1125 C1128 1.363 . S
N1126 C1128 1.363 . S
N1126 H1138 0.973 1_554 S
N1126 H1139 0.989 . S
N1127 C1129 1.356 . S
N1127 H1132 0.984 . S
N1127 H1133 0.985 . S
C1128 C1122 1.379 . S
C1128 C1125 1.363 . S
C1128 N1126 1.363 . S
C1129 C1123 1.363 . S
C1129 C1124 1.379 . S
C1129 N1127 1.356 . S
N1130 C1122 1.356 1_556 S
N1130 H1136 0.984 . S
N1130 H1137 0.984 . S
N1131 C1124 1.356 . S
N1131 H1134 0.984 . S
N1131 H1135 0.985 . S
H1132 N1127 0.984 . S
H1133 N1127 0.985 . S
H1134 N1131 0.984 . S
H1135 N1131 0.985 . S
H1136 N1130 0.984 . S
H1137 N1130 0.984 . S
H1138 N1126 0.973 1_556 S
H1139 N1126 0.989 . S
C1140 C1141 1.363 1_556 S
C1140 C1146 1.379 . S
C1140 N1148 1.356 . S
C1141 C1140 1.363 1_554 S
C1141 C1147 1.363 . S
C1142 C1143 1.363 . S
C1142 C1147 1.379 . S
C1142 N1149 1.356 . S
C1143 C1142 1.363 . S
C1143 C1146 1.363 1_554 S
N1144 C1146 1.356 . S
N1144 H1156 0.984 . S
N1144 H1157 0.985 . S
N1145 C1147 1.356 . S
N1145 H1150 0.984 . S
N1145 H1151 0.985 . S
C1146 C1140 1.379 . S
C1146 C1143 1.363 1_556 S
C1146 N1144 1.356 . S
C1147 C1141 1.363 . S
C1147 C1142 1.379 . S
C1147 N1145 1.356 . S
N1148 C1140 1.356 . S
N1148 H1154 0.984 . S
N1148 H1155 0.984 . S
N1149 C1142 1.356 . S
N1149 H1152 0.984 . S
N1149 H1153 0.985 . S
H1150 N1145 0.984 . S
H1151 N1145 0.985 . S
H1152 N1149 0.984 . S
H1153 N1149 0.985 . S
H1154 N1148 0.984 . S
H1155 N1148 0.984 . S
H1156 N1144 0.984 . S
H1157 N1144 0.985 . S
C1158 C1159 1.363 1_556 S
C1158 C1164 1.379 . S
C1158 N1166 1.356 . S
C1159 C1158 1.363 1_554 S
C1159 C1165 1.363 . S
C1160 C1161 1.363 . S
C1160 C1165 1.379 . S
C1160 N1167 1.356 . S
C1161 C1160 1.363 . S
C1161 C1164 1.363 1_554 S
N1162 C1164 1.356 . S
N1162 H1174 0.984 . S
N1162 H1175 0.985 . S
N1163 C1165 1.356 . S
N1163 H1168 0.984 . S
N1163 H1169 0.985 . S
C1164 C1158 1.379 . S
C1164 C1161 1.363 1_556 S
C1164 N1162 1.356 . S
C1165 C1159 1.363 . S
C1165 C1160 1.379 . S
C1165 N1163 1.356 . S
N1166 C1158 1.356 . S
N1166 H1172 0.984 . S
N1166 H1173 0.984 . S
N1167 C1160 1.356 . S
N1167 H1170 0.984 . S
N1167 H1171 0.985 . S
H1168 N1163 0.984 . S
H1169 N1163 0.985 . S
H1170 N1167 0.984 . S
H1171 N1167 0.985 . S
H1172 N1166 0.984 . S
H1173 N1166 0.984 . S
H1174 N1162 0.984 . S
H1175 N1162 0.985 . S
C1176 C1177 1.363 . S
C1176 C1182 1.379 1_556 S
C1176 N1184 1.356 . S
C1177 C1176 1.363 . S
C1177 C1183 1.363 . S
C1178 C1179 1.363 . S
C1178 C1183 1.379 1_554 S
C1178 N1185 1.356 . S
C1179 C1178 1.363 . S
C1179 C1182 1.363 . S
N1180 C1182 1.356 . S
N1180 H1192 0.984 . S
N1180 H1193 0.985 . S
N1181 C1183 1.356 . S
N1181 H1186 0.984 . S
N1181 H1187 0.985 . S
C1182 C1176 1.379 1_554 S
C1182 C1179 1.363 . S
C1182 N1180 1.356 . S
C1183 C1177 1.363 . S
C1183 C1178 1.379 1_556 S
C1183 N1181 1.356 . S
N1184 C1176 1.356 . S
N1184 H1190 0.984 . S
N1184 H1191 0.984 . S
N1185 C1178 1.356 . S
N1185 H1188 0.984 . S
N1185 H1189 0.985 . S
H1186 N1181 0.984 . S
H1187 N1181 0.985 . S
H1188 N1185 0.984 . S
H1189 N1185 0.985 . S
H1190 N1184 0.984 . S
H1191 N1184 0.984 . S
H1192 N1180 0.984 . S
H1193 N1180 0.985 . S
C1194 C1195 1.352 1_554 S
C1194 C1200 1.400 . S
C1194 N1202 1.340 1_554 S
C1195 C1194 1.352 1_556 S
C1195 C1201 1.363 1_556 S
C1196 C1197 1.363 . S
C1196 C1201 1.379 . S
C1196 N1203 1.356 . S
C1197 C1196 1.363 . S
C1197 C1200 1.363 . S
N1198 C1200 1.356 . S
N1198 H1210 0.984 . S
N1198 H1211 0.985 . S
N1199 C1201 1.356 1_556 S
N1199 H1204 0.984 . S
N1199 H1205 0.985 . S
C1200 C1194 1.400 . S
C1200 C1197 1.363 . S
C1200 N1198 1.356 . S
C1201 C1195 1.363 1_554 S
C1201 C1196 1.379 . S
C1201 N1199 1.356 1_554 S
N1202 C1194 1.340 1_556 S
N1202 H1208 0.984 . S
N1202 H1209 0.984 . S
N1203 C1196 1.356 . S
N1203 H1206 0.984 . S
N1203 H1207 0.985 . S
H1204 N1199 0.984 . S
H1205 N1199 0.985 . S
H1206 N1203 0.984 . S
H1207 N1203 0.985 . S
H1208 N1202 0.984 . S
H1209 N1202 0.984 . S
H1210 N1198 0.984 . S
H1211 N1198 0.985 . S
C1212 C1213 1.363 1_554 S
C1212 C1218 1.379 . S
C1212 N1220 1.356 1_554 S
C1213 C1212 1.363 1_556 S
C1213 C1219 1.363 1_556 S
C1214 C1215 1.363 . S
C1214 C1219 1.379 . S
C1214 N1221 1.356 . S
C1215 C1214 1.363 . S
C1215 C1218 1.363 . S
N1216 C1218 1.356 . S
N1216 H1228 0.984 . S
N1216 H1229 0.985 . S
N1217 C1219 1.356 1_556 S
N1217 H1222 0.984 . S
N1217 H1223 0.985 . S
C1218 C1212 1.379 . S
C1218 C1215 1.363 . S
C1218 N1216 1.356 . S
C1219 C1213 1.363 1_554 S
C1219 C1214 1.379 . S
C1219 N1217 1.356 1_554 S
N1220 C1212 1.356 1_556 S
N1220 H1226 0.984 . S
N1220 H1227 0.984 . S
N1221 C1214 1.356 . S
N1221 H1224 0.984 . S
N1221 H1225 0.985 . S
H1222 N1217 0.984 . S
H1223 N1217 0.985 . S
H1224 N1221 0.984 . S
H1225 N1221 0.985 . S
H1226 N1220 0.984 . S
H1227 N1220 0.984 . S
H1228 N1216 0.984 . S
H1229 N1216 0.985 . S
C1230 C1231 1.363 1_554 S
C1230 C1236 1.379 . S
C1230 N1238 1.356 1_554 S
C1231 C1230 1.363 1_556 S
C1231 C1237 1.355 1_556 S
C1232 C1233 1.363 . S
C1232 C1237 1.394 . S
C1232 N1239 1.356 . S
C1233 C1232 1.363 . S
C1233 C1236 1.363 . S
N1234 C1236 1.356 . S
N1234 H1246 0.984 . S
N1234 H1247 0.985 . S
N1235 C1237 1.345 1_556 S
N1235 H1240 0.984 . S
N1235 H1241 0.985 . S
C1236 C1230 1.379 . S
C1236 C1233 1.363 . S
C1236 N1234 1.356 . S
C1237 C1231 1.355 1_554 S
C1237 C1232 1.394 . S
C1237 N1235 1.345 1_554 S
N1238 C1230 1.356 1_556 S
N1238 H1244 0.984 . S
N1238 H1245 0.984 . S
N1239 C1232 1.356 . S
N1239 H1242 0.984 . S
N1239 H1243 0.985 . S
H1240 N1235 0.984 . S
H1241 N1235 0.985 . S
H1242 N1239 0.984 . S
H1243 N1239 0.985 . S
H1244 N1238 0.984 . S
H1245 N1238 0.984 . S
H1246 N1234 0.984 . S
H1247 N1234 0.985 . S
C1248 C1249 1.363 . S
C1248 C1254 1.379 1_655 S
C1248 N1256 1.356 . S
C1249 C1248 1.363 . S
C1249 C1255 1.379 . S
C1250 C1251 1.363 . S
C1250 C1255 1.353 1_455 S
C1250 N1257 1.356 . S
C1251 C1250 1.363 . S
C1251 C1254 1.363 . S
N1252 C1254 1.356 . S
N1252 H1264 0.984 . S
N1252 H1265 0.985 . S
N1253 C1255 1.374 . S
N1253 H1258 0.984 . S
N1253 H1259 0.985 . S
C1254 C1248 1.379 1_455 S
C1254 C1251 1.363 . S
C1254 N1252 1.356 . S
C1255 C1249 1.379 . S
C1255 C1250 1.353 1_655 S
C1255 N1253 1.374 . S
N1256 C1248 1.356 . S
N1256 H1262 0.984 . S
N1256 H1263 0.984 . S
N1257 C1250 1.356 . S
N1257 H1260 0.984 . S
N1257 H1261 0.985 . S
H1258 N1253 0.984 . S
H1259 N1253 0.985 . S
H1260 N1257 0.984 . S
H1261 N1257 0.985 . S
H1262 N1256 0.984 . S
H1263 N1256 0.984 . S
H1264 N1252 0.984 . S
H1265 N1252 0.985 . S
C1266 C1267 1.363 1_545 S
C1266 C1272 1.379 . S
C1266 N1274 1.356 1_545 S
C1267 C1266 1.363 1_565 S
C1267 C1273 1.363 . S
C1268 C1269 1.363 . S
C1268 C1273 1.379 1_545 S
C1268 N1275 1.356 . S
C1269 C1268 1.363 . S
C1269 C1272 1.363 . S
N1270 C1272 1.356 . S
N1270 H1282 0.984 . S
N1270 H1283 0.985 . S
N1271 C1273 1.356 . S
N1271 H1276 0.984 . S
N1271 H1277 0.985 . S
C1272 C1266 1.379 . S
C1272 C1269 1.363 . S
C1272 N1270 1.356 . S
C1273 C1267 1.363 . S
C1273 C1268 1.379 1_565 S
C1273 N1271 1.356 . S
N1274 C1266 1.356 1_565 S
N1274 H1280 0.984 . S
N1274 H1281 0.984 . S
N1275 C1268 1.356 . S
N1275 H1278 0.984 . S
N1275 H1279 0.985 . S
H1276 N1271 0.984 . S
H1277 N1271 0.985 . S
H1278 N1275 0.984 . S
H1279 N1275 0.985 . S
H1280 N1274 0.984 . S
H1281 N1274 0.984 . S
H1282 N1270 0.984 . S
H1283 N1270 0.985 . S
C1284 C1285 1.363 . S
C1284 C1290 1.379 1_655 S
C1284 N1292 1.356 . S
C1285 C1284 1.363 . S
C1285 C1291 1.361 . S
C1286 C1287 1.363 . S
C1286 C1291 1.382 1_455 S
C1286 N1293 1.356 . S
C1287 C1286 1.363 . S
C1287 C1290 1.363 . S
N1288 C1290 1.356 . S
N1288 H1300 0.984 . S
N1288 H1301 0.985 . S
N1289 C1291 1.354 . S
N1289 H1294 0.984 . S
N1289 H1295 0.985 . S
C1290 C1284 1.379 1_455 S
C1290 C1287 1.363 . S
C1290 N1288 1.356 . S
C1291 C1285 1.361 . S
C1291 C1286 1.382 1_655 S
C1291 N1289 1.354 . S
N1292 C1284 1.356 . S
N1292 H1298 0.984 . S
N1292 H1299 0.984 . S
N1293 C1286 1.356 . S
N1293 H1296 0.984 . S
N1293 H1297 0.985 . S
H1294 N1289 0.984 . S
H1295 N1289 0.985 . S
H1296 N1293 0.984 . S
H1297 N1293 0.985 . S
H1298 N1292 0.984 . S
H1299 N1292 0.984 . S
H1300 N1288 0.984 . S
H1301 N1288 0.985 . S
C1302 C1303 1.363 . S
C1302 C1308 1.379 1_545 S
C1302 N1310 1.356 . S
C1303 C1302 1.363 . S
C1303 C1309 1.363 . S
C1304 C1305 1.363 1_545 S
C1304 C1309 1.379 . S
C1304 N1311 1.356 1_545 S
C1305 C1304 1.363 1_565 S
C1305 C1308 1.363 . S
N1306 C1308 1.356 . S
N1306 H1318 0.984 . S
N1306 H1319 0.985 . S
N1307 C1309 1.356 . S
N1307 H1312 0.984 . S
N1307 H1313 0.985 . S
C1308 C1302 1.379 1_565 S
C1308 C1305 1.363 . S
C1308 N1306 1.356 . S
C1309 C1303 1.363 . S
C1309 C1304 1.379 . S
C1309 N1307 1.356 . S
N1310 C1302 1.356 . S
N1310 H1316 0.984 . S
N1310 H1317 0.984 . S
N1311 C1304 1.356 1_565 S
N1311 H1314 0.984 . S
N1311 H1315 0.985 . S
H1312 N1307 0.984 . S
H1313 N1307 0.985 . S
H1314 N1311 0.984 . S
H1315 N1311 0.985 . S
H1316 N1310 0.984 . S
H1317 N1310 0.984 . S
H1318 N1306 0.984 . S
H1319 N1306 0.985 . S
C1320 C1321 1.363 . S
C1320 C1326 1.379 . S
C1320 N1328 1.377 . S
C1321 C1320 1.363 . S
C1321 C1327 1.363 . S
C1322 C1323 1.363 . S
C1322 C1327 1.379 . S
C1322 N1329 1.356 . S
C1323 C1322 1.363 . S
C1323 C1326 1.363 . S
N1324 C1326 1.356 . S
N1324 H1336 0.984 . S
N1324 H1337 0.985 . S
N1325 C1327 1.356 1_565 S
N1325 H1330 0.984 . S
N1325 H1331 0.985 . S
C1326 C1320 1.379 . S
C1326 C1323 1.363 . S
C1326 N1324 1.356 . S
C1327 C1321 1.363 . S
C1327 C1322 1.379 . S
C1327 N1325 1.356 1_545 S
N1328 C1320 1.377 . S
N1328 H1334 0.994 . S
N1328 H1335 0.955 1_545 S
N1329 C1322 1.356 . S
N1329 H1332 0.984 . S
N1329 H1333 0.985 . S
H1330 N1325 0.984 . S
H1331 N1325 0.985 . S
H1332 N1329 0.984 . S
H1333 N1329 0.985 . S
H1334 N1328 0.994 . S
H1335 N1328 0.955 1_565 S
H1336 N1324 0.984 . S
H1337 N1324 0.985 . S
C1338 C1339 1.363 . S
C1338 C1344 1.379 . S
C1338 N1346 1.356 . S
C1339 C1338 1.363 . S
C1339 C1345 1.363 . S
C1340 C1341 1.356 1_455 S
C1340 C1345 1.393 . S
C1340 N1347 1.346 1_455 S
C1341 C1340 1.356 1_655 S
C1341 C1344 1.363 1_655 S
N1342 C1344 1.356 1_655 S
N1342 H1354 0.984 . S
N1342 H1355 0.985 . S
N1343 C1345 1.356 . S
N1343 H1348 0.984 . S
N1343 H1349 0.985 . S
C1344 C1338 1.379 . S
C1344 C1341 1.363 1_455 S
C1344 N1342 1.356 1_455 S
C1345 C1339 1.363 . S
C1345 C1340 1.393 . S
C1345 N1343 1.356 . S
N1346 C1338 1.356 . S
N1346 H1352 0.984 . S
N1346 H1353 0.984 . S
N1347 C1340 1.346 1_655 S
N1347 H1350 0.984 . S
N1347 H1351 0.985 . S
H1348 N1343 0.984 . S
H1349 N1343 0.985 . S
H1350 N1347 0.984 . S
H1351 N1347 0.985 . S
H1352 N1346 0.984 . S
H1353 N1346 0.984 . S
H1354 N1342 0.984 . S
H1355 N1342 0.985 . S
C1356 C1357 1.363 1_545 S
C1356 C1362 1.379 . S
C1356 N1364 1.356 1_545 S
C1357 C1356 1.363 1_565 S
C1357 C1363 1.363 1_565 S
C1358 C1359 1.363 . S
C1358 C1363 1.379 . S
C1358 N1365 1.356 . S
C1359 C1358 1.363 . S
C1359 C1362 1.363 . S
N1360 C1362 1.356 . S
N1360 H1372 0.984 . S
N1360 H1373 0.985 . S
N1361 C1363 1.356 1_565 S
N1361 H1366 0.984 . S
N1361 H1367 0.976 1_565 S
C1362 C1356 1.379 . S
C1362 C1359 1.363 . S
C1362 N1360 1.356 . S
C1363 C1357 1.363 1_545 S
C1363 C1358 1.379 . S
C1363 N1361 1.356 1_545 S
N1364 C1356 1.356 1_565 S
N1364 H1370 0.984 . S
N1364 H1371 0.984 . S
N1365 C1358 1.356 . S
N1365 H1368 0.984 . S
N1365 H1369 0.985 . S
H1366 N1361 0.984 . S
H1367 N1361 0.976 1_545 S
H1368 N1365 0.984 . S
H1369 N1365 0.985 . S
H1370 N1364 0.984 . S
H1371 N1364 0.984 . S
H1372 N1360 0.984 . S
H1373 N1360 0.985 . S
C1374 C1375 1.363 . S
C1374 C1380 1.379 1_455 S
C1374 N1382 1.356 . S
C1375 C1374 1.363 . S
C1375 C1381 1.363 . S
C1376 C1377 1.363 . S
C1376 C1381 1.379 1_655 S
C1376 N1383 1.356 . S
C1377 C1376 1.363 . S
C1377 C1380 1.363 . S
N1378 C1380 1.356 . S
N1378 H1390 0.984 . S
N1378 H1391 0.985 . S
N1379 C1381 1.356 . S
N1379 H1384 0.984 . S
N1379 H1385 0.985 . S
C1380 C1374 1.379 1_655 S
C1380 C1377 1.363 . S
C1380 N1378 1.356 . S
C1381 C1375 1.363 . S
C1381 C1376 1.379 1_455 S
C1381 N1379 1.356 . S
N1382 C1374 1.356 . S
N1382 H1388 0.984 . S
N1382 H1389 0.984 . S
N1383 C1376 1.356 . S
N1383 H1386 0.984 . S
N1383 H1387 0.985 . S
H1384 N1379 0.984 . S
H1385 N1379 0.985 . S
H1386 N1383 0.984 . S
H1387 N1383 0.985 . S
H1388 N1382 0.984 . S
H1389 N1382 0.984 . S
H1390 N1378 0.984 . S
H1391 N1378 0.985 . S
C1392 C1393 1.363 . S
C1392 C1398 1.379 . S
C1392 N1400 1.356 . S
C1393 C1392 1.363 . S
C1393 C1399 1.363 1_455 S
C1394 C1395 1.363 1_655 S
C1394 C1399 1.379 . S
C1394 N1401 1.356 . S
C1395 C1394 1.363 1_455 S
C1395 C1398 1.363 . S
N1396 C1398 1.356 . S
N1396 H1408 0.984 . S
N1396 H1409 0.985 . S
N1397 C1399 1.356 . S
N1397 H1402 0.984 . S
N1397 H1403 0.985 . S
C1398 C1392 1.379 . S
C1398 C1395 1.363 . S
C1398 N1396 1.356 . S
C1399 C1393 1.363 1_655 S
C1399 C1394 1.379 . S
C1399 N1397 1.356 . S
N1400 C1392 1.356 . S
N1400 H1406 0.984 . S
N1400 H1407 0.984 . S
N1401 C1394 1.356 . S
N1401 H1404 0.984 . S
N1401 H1405 0.985 . S
H1402 N1397 0.984 . S
H1403 N1397 0.985 . S
H1404 N1401 0.984 . S
H1405 N1401 0.985 . S
H1406 N1400 0.984 . S
H1407 N1400 0.984 . S
H1408 N1396 0.984 . S
H1409 N1396 0.985 . S
C1410 C1411 1.363 . S
C1410 C1416 1.379 . S
C1410 N1418 1.356 . S
C1411 C1410 1.363 . S
C1411 C1417 1.363 . S
C1412 C1413 1.363 . S
C1412 C1417 1.379 . S
C1412 N1419 1.356 1_545 S
C1413 C1412 1.363 . S
C1413 C1416 1.363 . S
N1414 C1416 1.356 . S
N1414 H1426 0.984 . S
N1414 H1427 0.985 . S
N1415 C1417 1.356 1_565 S
N1415 H1420 0.984 . S
N1415 H1421 0.985 . S
C1416 C1410 1.379 . S
C1416 C1413 1.363 . S
C1416 N1414 1.356 . S
C1417 C1411 1.363 . S
C1417 C1412 1.379 . S
C1417 N1415 1.356 1_545 S
N1418 C1410 1.356 . S
N1418 H1424 0.984 . S
N1418 H1425 0.984 . S
N1419 C1412 1.356 1_565 S
N1419 H1422 0.996 . S
N1419 H1423 0.985 . S
H1420 N1415 0.984 . S
H1421 N1415 0.985 . S
H1422 N1419 0.996 . S
H1423 N1419 0.985 . S
H1424 N1418 0.984 . S
H1425 N1418 0.984 . S
H1426 N1414 0.984 . S
H1427 N1414 0.985 . S
C1428 C1429 1.363 . S
C1428 C1434 1.379 . S
C1428 N1436 1.356 . S
C1429 C1428 1.363 . S
C1429 C1435 1.363 . S
C1430 C1431 1.363 . S
C1430 C1435 1.379 . S
C1430 N1437 1.356 . S
C1431 C1430 1.363 . S
C1431 C1434 1.363 . S
N1432 C1434 1.356 . S
N1432 H1444 0.984 . S
N1432 H1445 0.985 . S
N1433 C1435 1.356 . S
N1433 H1438 0.984 . S
N1433 H1439 0.985 . S
C1434 C1428 1.379 . S
C1434 C1431 1.363 . S
C1434 N1432 1.356 . S
C1435 C1429 1.363 . S
C1435 C1430 1.379 . S
C1435 N1433 1.356 . S
N1436 C1428 1.356 . S
N1436 H1442 0.984 . S
N1436 H1443 0.984 . S
N1437 C1430 1.356 . S
N1437 H1440 0.984 . S
N1437 H1441 0.985 . S
H1438 N1433 0.984 . S
H1439 N1433 0.985 . S
H1440 N1437 0.984 . S
H1441 N1437 0.985 . S
H1442 N1436 0.984 . S
H1443 N1436 0.984 . S
H1444 N1432 0.984 . S
H1445 N1432 0.985 . S
C1446 C1447 1.363 1_565 S
C1446 C1452 1.379 . S
C1446 N1454 1.356 . S
C1447 C1446 1.363 1_545 S
C1447 C1453 1.363 . S
C1448 C1449 1.363 . S
C1448 C1453 1.379 . S
C1448 N1455 1.356 . S
C1449 C1448 1.363 . S
C1449 C1452 1.363 1_545 S
N1450 C1452 1.356 . S
N1450 H1462 0.984 . S
N1450 H1463 0.985 . S
N1451 C1453 1.356 . S
N1451 H1456 0.984 . S
N1451 H1457 0.985 . S
C1452 C1446 1.379 . S
C1452 C1449 1.363 1_565 S
C1452 N1450 1.356 . S
C1453 C1447 1.363 . S
C1453 C1448 1.379 . S
C1453 N1451 1.356 . S
N1454 C1446 1.356 . S
N1454 H1460 0.984 . S
N1454 H1461 0.984 . S
N1455 C1448 1.356 . S
N1455 H1458 0.984 . S
N1455 H1459 0.985 . S
H1456 N1451 0.984 . S
H1457 N1451 0.985 . S
H1458 N1455 0.984 . S
H1459 N1455 0.985 . S
H1460 N1454 0.984 . S
H1461 N1454 0.984 . S
H1462 N1450 0.984 . S
H1463 N1450 0.985 . S
C1464 C1465 1.363 . S
C1464 C1470 1.379 . S
C1464 N1472 1.356 1_455 S
C1465 C1464 1.363 . S
C1465 C1471 1.363 . S
C1466 C1467 1.363 . S
C1466 C1471 1.379 . S
C1466 N1473 1.356 . S
C1467 C1466 1.363 . S
C1467 C1470 1.363 . S
N1468 C1470 1.356 1_655 S
N1468 H1480 0.984 . S
N1468 H1481 0.983 1_655 S
N1469 C1471 1.356 . S
N1469 H1474 0.984 . S
N1469 H1475 0.985 . S
C1470 C1464 1.379 . S
C1470 C1467 1.363 . S
C1470 N1468 1.356 1_455 S
C1471 C1465 1.363 . S
C1471 C1466 1.379 . S
C1471 N1469 1.356 . S
N1472 C1464 1.356 1_655 S
N1472 H1478 0.984 . S
N1472 H1479 0.982 1_655 S
N1473 C1466 1.356 . S
N1473 H1476 0.984 . S
N1473 H1477 0.985 . S
H1474 N1469 0.984 . S
H1475 N1469 0.985 . S
H1476 N1473 0.984 . S
H1477 N1473 0.985 . S
H1478 N1472 0.984 . S
H1479 N1472 0.982 1_455 S
H1480 N1468 0.984 . S
H1481 N1468 0.983 1_455 S
C1482 C1483 1.363 . S
C1482 C1488 1.379 . S
C1482 N1490 1.356 1_545 S
C1483 C1482 1.363 . S
C1483 C1489 1.363 . S
C1484 C1485 1.363 . S
C1484 C1489 1.379 . S
C1484 N1491 1.356 . S
C1485 C1484 1.363 . S
C1485 C1488 1.363 . S
N1486 C1488 1.356 1_565 S
N1486 H1498 0.984 . S
N1486 H1499 0.988 . S
N1487 C1489 1.356 . S
N1487 H1492 0.984 . S
N1487 H1493 0.985 . S
C1488 C1482 1.379 . S
C1488 C1485 1.363 . S
C1488 N1486 1.356 1_545 S
C1489 C1483 1.363 . S
C1489 C1484 1.379 . S
C1489 N1487 1.356 . S
N1490 C1482 1.356 1_565 S
N1490 H1496 0.984 . S
N1490 H1497 0.984 1_565 S
N1491 C1484 1.356 . S
N1491 H1494 0.984 . S
N1491 H1495 0.985 . S
H1492 N1487 0.984 . S
H1493 N1487 0.985 . S
H1494 N1491 0.984 . S
H1495 N1491 0.985 . S
H1496 N1490 0.984 . S
H1497 N1490 0.984 1_545 S
H1498 N1486 0.984 . S
H1499 N1486 0.988 . S
C1500 C1501 1.363 1_655 S
C1500 C1506 1.379 . S
C1500 N1508 1.356 . S
C1501 C1500 1.363 1_455 S
C1501 C1507 1.363 . S
C1502 C1503 1.363 . S
C1502 C1507 1.379 . S
C1502 N1509 1.356 . S
C1503 C1502 1.363 . S
C1503 C1506 1.363 1_455 S
N1504 C1506 1.356 . S
N1504 H1516 0.984 . S
N1504 H1517 0.985 . S
N1505 C1507 1.356 . S
N1505 H1510 0.984 . S
N1505 H1511 0.985 . S
C1506 C1500 1.379 . S
C1506 C1503 1.363 1_655 S
C1506 N1504 1.356 . S
C1507 C1501 1.363 . S
C1507 C1502 1.379 . S
C1507 N1505 1.356 . S
N1508 C1500 1.356 . S
N1508 H1514 0.984 . S
N1508 H1515 0.984 . S
N1509 C1502 1.356 . S
N1509 H1512 0.984 . S
N1509 H1513 0.985 . S
H1510 N1505 0.984 . S
H1511 N1505 0.985 . S
H1512 N1509 0.984 . S
H1513 N1509 0.985 . S
H1514 N1508 0.984 . S
H1515 N1508 0.984 . S
H1516 N1504 0.984 . S
H1517 N1504 0.985 . S
C1518 C1519 1.363 . S
C1518 C1524 1.379 . S
C1518 N1526 1.356 . S
C1519 C1518 1.363 . S
C1519 C1525 1.363 . S
C1520 C1521 1.363 . S
C1520 C1525 1.379 . S
C1520 N1527 1.356 . S
C1521 C1520 1.363 . S
C1521 C1524 1.363 . S
N1522 C1524 1.356 1_565 S
N1522 H1534 0.984 . S
N1522 H1535 0.985 . S
N1523 C1525 1.356 . S
N1523 H1528 0.984 . S
N1523 H1529 0.985 . S
C1524 C1518 1.379 . S
C1524 C1521 1.363 . S
C1524 N1522 1.356 1_545 S
C1525 C1519 1.363 . S
C1525 C1520 1.379 . S
C1525 N1523 1.356 . S
N1526 C1518 1.356 . S
N1526 H1532 0.984 1_545 S
N1526 H1533 0.984 . S
N1527 C1520 1.356 . S
N1527 H1530 0.984 . S
N1527 H1531 0.985 . S
H1528 N1523 0.984 . S
H1529 N1523 0.985 . S
H1530 N1527 0.984 . S
H1531 N1527 0.985 . S
H1532 N1526 0.984 1_565 S
H1533 N1526 0.984 . S
H1534 N1522 0.984 . S
H1535 N1522 0.985 . S
C1536 C1537 1.363 . S
C1536 C1542 1.379 . S
C1536 N1544 1.356 . S
C1537 C1536 1.363 . S
C1537 C1543 1.363 . S
C1538 C1539 1.363 . S
C1538 C1543 1.379 . S
C1538 N1545 1.356 1_554 S
C1539 C1538 1.363 . S
C1539 C1542 1.363 . S
N1540 C1542 1.356 . S
N1540 H1552 0.984 . S
N1540 H1553 0.985 . S
N1541 C1543 1.356 1_556 S
N1541 H1546 0.984 . S
N1541 H1547 0.985 . S
C1542 C1536 1.379 . S
C1542 C1539 1.363 . S
C1542 N1540 1.356 . S
C1543 C1537 1.363 . S
C1543 C1538 1.379 . S
C1543 N1541 1.356 1_554 S
N1544 C1536 1.356 . S
N1544 H1550 0.984 . S
N1544 H1551 0.984 . S
N1545 C1538 1.356 1_556 S
N1545 H1548 0.984 . S
N1545 H1549 0.985 . S
H1546 N1541 0.984 . S
H1547 N1541 0.985 . S
H1548 N1545 0.984 . S
H1549 N1545 0.985 . S
H1550 N1544 0.984 . S
H1551 N1544 0.984 . S
H1552 N1540 0.984 . S
H1553 N1540 0.985 . S
C1554 C1555 1.363 1_556 S
C1554 C1560 1.379 . S
C1554 N1562 1.356 . S
C1555 C1554 1.363 1_554 S
C1555 C1561 1.363 . S
C1556 C1557 1.363 . S
C1556 C1561 1.379 . S
C1556 N1563 1.356 . S
C1557 C1556 1.363 . S
C1557 C1560 1.363 1_554 S
N1558 C1560 1.356 . S
N1558 H1570 0.984 . S
N1558 H1571 0.985 . S
N1559 C1561 1.356 . S
N1559 H1564 0.984 . S
N1559 H1565 0.985 . S
C1560 C1554 1.379 . S
C1560 C1557 1.363 1_556 S
C1560 N1558 1.356 . S
C1561 C1555 1.363 . S
C1561 C1556 1.379 . S
C1561 N1559 1.356 . S
N1562 C1554 1.356 . S
N1562 H1568 0.984 . S
N1562 H1569 0.984 . S
N1563 C1556 1.356 . S
N1563 H1566 0.984 . S
N1563 H1567 0.985 . S
H1564 N1559 0.984 . S
H1565 N1559 0.985 . S
H1566 N1563 0.984 . S
H1567 N1563 0.985 . S
H1568 N1562 0.984 . S
H1569 N1562 0.984 . S
H1570 N1558 0.984 . S
H1571 N1558 0.985 . S
C1572 C1573 1.363 . S
C1572 C1578 1.379 . S
C1572 N1580 1.356 1_554 S
C1573 C1572 1.363 . S
C1573 C1579 1.363 . S
C1574 C1575 1.363 . S
C1574 C1579 1.379 . S
C1574 N1581 1.356 . S
C1575 C1574 1.363 . S
C1575 C1578 1.363 . S
N1576 C1578 1.356 1_556 S
N1576 H1588 0.984 . S
N1576 H1589 0.985 . S
N1577 C1579 1.356 . S
N1577 H1582 0.984 . S
N1577 H1583 0.985 . S
C1578 C1572 1.379 . S
C1578 C1575 1.363 . S
C1578 N1576 1.356 1_554 S
C1579 C1573 1.363 . S
C1579 C1574 1.379 . S
C1579 N1577 1.356 . S
N1580 C1572 1.356 1_556 S
N1580 H1586 0.984 . S
N1580 H1587 0.987 . S
N1581 C1574 1.356 . S
N1581 H1584 0.984 . S
N1581 H1585 0.985 . S
H1582 N1577 0.984 . S
H1583 N1577 0.985 . S
H1584 N1581 0.984 . S
H1585 N1581 0.985 . S
H1586 N1580 0.984 . S
H1587 N1580 0.987 . S
H1588 N1576 0.984 . S
H1589 N1576 0.985 . S
C1590 C1591 1.363 . S
C1590 C1596 1.379 . S
C1590 N1598 1.356 . S
C1591 C1590 1.363 . S
C1591 C1597 1.363 1_554 S
C1592 C1593 1.363 1_556 S
C1592 C1597 1.379 . S
C1592 N1599 1.356 . S
C1593 C1592 1.363 1_554 S
C1593 C1596 1.363 . S
N1594 C1596 1.356 . S
N1594 H1606 0.984 . S
N1594 H1607 0.985 . S
N1595 C1597 1.356 . S
N1595 H1600 0.984 . S
N1595 H1601 0.985 . S
C1596 C1590 1.379 . S
C1596 C1593 1.363 . S
C1596 N1594 1.356 . S
C1597 C1591 1.363 1_556 S
C1597 C1592 1.379 . S
C1597 N1595 1.356 . S
N1598 C1590 1.356 . S
N1598 H1604 0.984 . S
N1598 H1605 0.984 . S
N1599 C1592 1.356 . S
N1599 H1602 0.984 . S
N1599 H1603 0.985 . S
H1600 N1595 0.984 . S
H1601 N1595 0.985 . S
H1602 N1599 0.984 . S
H1603 N1599 0.985 . S
H1604 N1598 0.984 . S
H1605 N1598 0.984 . S
H1606 N1594 0.984 . S
H1607 N1594 0.985 . S
C1608 C1609 1.363 . S
C1608 C1614 1.379 . S
C1608 N1616 1.356 . S
C1609 C1608 1.363 . S
C1609 C1615 1.363 . S
C1610 C1611 1.363 . S
C1610 C1615 1.379 . S
C1610 N1617 1.356 . S
C1611 C1610 1.363 . S
C1611 C1614 1.363 . S
N1612 C1614 1.356 . S
N1612 H1624 0.984 . S
N1612 H1625 0.985 . S
N1613 C1615 1.356 . S
N1613 H1618 0.984 . S
N1613 H1619 0.985 . S
C1614 C1608 1.379 . S
C1614 C1611 1.363 . S
C1614 N1612 1.356 . S
C1615 C1609 1.363 . S
C1615 C1610 1.379 . S
C1615 N1613 1.356 . S
N1616 C1608 1.356 . S
N1616 H1622 0.984 . S
N1616 H1623 0.984 . S
N1617 C1610 1.356 . S
N1617 H1620 0.984 . S
N1617 H1621 0.985 . S
H1618 N1613 0.984 . S
H1619 N1613 0.985 . S
H1620 N1617 0.984 . S
H1621 N1617 0.985 . S
H1622 N1616 0.984 . S
H1623 N1616 0.984 . S
H1624 N1612 0.984 . S
H1625 N1612 0.985 . S
C1626 C1627 1.363 . S
C1626 C1632 1.379 . S
C1626 N1634 1.356 . S
C1627 C1626 1.363 . S
C1627 C1633 1.363 . S
C1628 C1629 1.363 . S
C1628 C1633 1.379 . S
C1628 N1635 1.356 . S
C1629 C1628 1.363 . S
C1629 C1632 1.363 . S
N1630 C1632 1.356 . S
N1630 H1642 0.984 . S
N1630 H1643 0.985 . S
N1631 C1633 1.356 . S
N1631 H1636 0.984 . S
N1631 H1637 0.985 . S
C1632 C1626 1.379 . S
C1632 C1629 1.363 . S
C1632 N1630 1.356 . S
C1633 C1627 1.363 . S
C1633 C1628 1.379 . S
C1633 N1631 1.356 . S
N1634 C1626 1.356 . S
N1634 H1640 0.984 . S
N1634 H1641 0.984 . S
N1635 C1628 1.356 . S
N1635 H1638 0.984 . S
N1635 H1639 0.985 . S
H1636 N1631 0.984 . S
H1637 N1631 0.985 . S
H1638 N1635 0.984 . S
H1639 N1635 0.985 . S
H1640 N1634 0.984 . S
H1641 N1634 0.984 . S
H1642 N1630 0.984 . S
H1643 N1630 0.985 . S
C1644 C1645 1.363 . S
C1644 C1650 1.379 . S
C1644 N1652 1.356 . S
C1645 C1644 1.363 . S
C1645 C1651 1.363 . S
C1646 C1647 1.363 . S
C1646 C1651 1.379 . S
C1646 N1653 1.356 . S
C1647 C1646 1.363 . S
C1647 C1650 1.363 . S
N1648 C1650 1.356 . S
N1648 H1660 0.984 . S
N1648 H1661 0.985 . S
N1649 C1651 1.356 . S
N1649 H1654 0.984 . S
N1649 H1655 0.985 . S
C1650 C1644 1.379 . S
C1650 C1647 1.363 . S
C1650 N1648 1.356 . S
C1651 C1645 1.363 . S
C1651 C1646 1.379 . S
C1651 N1649 1.356 . S
N1652 C1644 1.356 . S
N1652 H1658 0.984 . S
N1652 H1659 0.984 . S
N1653 C1646 1.356 . S
N1653 H1656 0.984 . S
N1653 H1657 0.985 . S
H1654 N1649 0.984 . S
H1655 N1649 0.985 . S
H1656 N1653 0.984 . S
H1657 N1653 0.985 . S
H1658 N1652 0.984 . S
H1659 N1652 0.984 . S
H1660 N1648 0.984 . S
H1661 N1648 0.985 . S
C1662 C1663 1.363 . S
C1662 C1668 1.379 . S
C1662 N1670 1.356 . S
C1663 C1662 1.363 . S
C1663 C1669 1.363 . S
C1664 C1665 1.363 . S
C1664 C1669 1.379 . S
C1664 N1671 1.356 . S
C1665 C1664 1.363 . S
C1665 C1668 1.363 . S
N1666 C1668 1.356 . S
N1666 H1678 0.984 . S
N1666 H1679 0.985 . S
N1667 C1669 1.356 . S
N1667 H1672 0.984 . S
N1667 H1673 0.985 . S
C1668 C1662 1.379 . S
C1668 C1665 1.363 . S
C1668 N1666 1.356 . S
C1669 C1663 1.363 . S
C1669 C1664 1.379 . S
C1669 N1667 1.356 . S
N1670 C1662 1.356 . S
N1670 H1676 0.984 . S
N1670 H1677 0.984 . S
N1671 C1664 1.356 . S
N1671 H1674 0.984 . S
N1671 H1675 0.985 . S
H1672 N1667 0.984 . S
H1673 N1667 0.985 . S
H1674 N1671 0.984 . S
H1675 N1671 0.985 . S
H1676 N1670 0.984 . S
H1677 N1670 0.984 . S
H1678 N1666 0.984 . S
H1679 N1666 0.985 . S
C1680 C1681 1.363 . S
C1680 C1686 1.379 . S
C1680 N1688 1.356 . S
C1681 C1680 1.363 . S
C1681 C1687 1.363 . S
C1682 C1683 1.363 . S
C1682 C1687 1.379 . S
C1682 N1689 1.356 . S
C1683 C1682 1.363 . S
C1683 C1686 1.363 . S
N1684 C1686 1.356 . S
N1684 H1696 0.984 . S
N1684 H1697 0.985 . S
N1685 C1687 1.356 . S
N1685 H1690 0.984 . S
N1685 H1691 0.985 . S
C1686 C1680 1.379 . S
C1686 C1683 1.363 . S
C1686 N1684 1.356 . S
C1687 C1681 1.363 . S
C1687 C1682 1.379 . S
C1687 N1685 1.356 . S
N1688 C1680 1.356 . S
N1688 H1694 0.984 . S
N1688 H1695 0.984 . S
N1689 C1682 1.356 . S
N1689 H1692 0.984 . S
N1689 H1693 0.985 . S
H1690 N1685 0.984 . S
H1691 N1685 0.985 . S
H1692 N1689 0.984 . S
H1693 N1689 0.985 . S
H1694 N1688 0.984 . S
H1695 N1688 0.984 . S
H1696 N1684 0.984 . S
H1697 N1684 0.985 . S
C1698 C1699 1.363 . S
C1698 C1704 1.379 . S
C1698 N1706 1.356 . S
C1699 C1698 1.363 . S
C1699 C1705 1.363 . S
C1700 C1701 1.363 . S
C1700 C1705 1.379 . S
C1700 N1707 1.356 . S
C1701 C1700 1.363 . S
C1701 C1704 1.363 . S
N1702 C1704 1.356 . S
N1702 H1714 0.984 . S
N1702 H1715 0.985 . S
N1703 C1705 1.356 . S
N1703 H1708 0.984 . S
N1703 H1709 0.985 . S
C1704 C1698 1.379 . S
C1704 C1701 1.363 . S
C1704 N1702 1.356 . S
C1705 C1699 1.363 . S
C1705 C1700 1.379 . S
C1705 N1703 1.356 . S
N1706 C1698 1.356 . S
N1706 H1712 0.984 . S
N1706 H1713 0.984 . S
N1707 C1700 1.356 . S
N1707 H1710 0.984 . S
N1707 H1711 0.985 . S
H1708 N1703 0.984 . S
H1709 N1703 0.985 . S
H1710 N1707 0.984 . S
H1711 N1707 0.985 . S
H1712 N1706 0.984 . S
H1713 N1706 0.984 . S
H1714 N1702 0.984 . S
H1715 N1702 0.985 . S
C1716 C1717 1.363 . S
C1716 C1722 1.379 . S
C1716 N1724 1.356 . S
C1717 C1716 1.363 . S
C1717 C1723 1.363 . S
C1718 C1719 1.363 . S
C1718 C1723 1.379 . S
C1718 N1725 1.356 . S
C1719 C1718 1.363 . S
C1719 C1722 1.363 . S
N1720 C1722 1.356 . S
N1720 H1732 0.984 . S
N1720 H1733 0.985 . S
N1721 C1723 1.356 . S
N1721 H1726 0.984 . S
N1721 H1727 0.985 . S
C1722 C1716 1.379 . S
C1722 C1719 1.363 . S
C1722 N1720 1.356 . S
C1723 C1717 1.363 . S
C1723 C1718 1.379 . S
C1723 N1721 1.356 . S
N1724 C1716 1.356 . S
N1724 H1730 0.984 . S
N1724 H1731 0.984 . S
N1725 C1718 1.356 . S
N1725 H1728 0.984 . S
N1725 H1729 0.985 . S
H1726 N1721 0.984 . S
H1727 N1721 0.985 . S
H1728 N1725 0.984 . S
H1729 N1725 0.985 . S
H1730 N1724 0.984 . S
H1731 N1724 0.984 . S
H1732 N1720 0.984 . S
H1733 N1720 0.985 . S
C1734 C1735 1.363 . S
C1734 C1740 1.379 . S
C1734 N1742 1.356 . S
C1735 C1734 1.363 . S
C1735 C1741 1.363 . S
C1736 C1737 1.363 . S
C1736 C1741 1.379 . S
C1736 N1743 1.356 . S
C1737 C1736 1.363 . S
C1737 C1740 1.363 . S
N1738 C1740 1.356 . S
N1738 H1750 0.984 . S
N1738 H1751 0.985 . S
N1739 C1741 1.356 . S
N1739 H1744 0.984 . S
N1739 H1745 0.985 . S
C1740 C1734 1.379 . S
C1740 C1737 1.363 . S
C1740 N1738 1.356 . S
C1741 C1735 1.363 . S
C1741 C1736 1.379 . S
C1741 N1739 1.356 . S
N1742 C1734 1.356 . S
N1742 H1748 0.984 . S
N1742 H1749 0.984 . S
N1743 C1736 1.356 . S
N1743 H1746 0.984 . S
N1743 H1747 0.985 . S
H1744 N1739 0.984 . S
H1745 N1739 0.985 . S
H1746 N1743 0.984 . S
H1747 N1743 0.985 . S
H1748 N1742 0.984 . S
H1749 N1742 0.984 . S
H1750 N1738 0.984 . S
H1751 N1738 0.985 . S
C1752 C1753 1.363 . S
C1752 C1758 1.379 . S
C1752 N1760 1.356 . S
C1753 C1752 1.363 . S
C1753 C1759 1.363 . S
C1754 C1755 1.363 . S
C1754 C1759 1.379 . S
C1754 N1761 1.356 . S
C1755 C1754 1.363 . S
C1755 C1758 1.363 . S
N1756 C1758 1.356 . S
N1756 H1768 0.984 . S
N1756 H1769 0.985 . S
N1757 C1759 1.356 . S
N1757 H1762 0.984 . S
N1757 H1763 0.985 . S
C1758 C1752 1.379 . S
C1758 C1755 1.363 . S
C1758 N1756 1.356 . S
C1759 C1753 1.363 . S
C1759 C1754 1.379 . S
C1759 N1757 1.356 . S
N1760 C1752 1.356 . S
N1760 H1766 0.984 . S
N1760 H1767 0.984 . S
N1761 C1754 1.356 . S
N1761 H1764 0.984 . S
N1761 H1765 0.985 . S
H1762 N1757 0.984 . S
H1763 N1757 0.985 . S
H1764 N1761 0.984 . S
H1765 N1761 0.985 . S
H1766 N1760 0.984 . S
H1767 N1760 0.984 . S
H1768 N1756 0.984 . S
H1769 N1756 0.985 . S
C1770 C1771 1.363 . S
C1770 C1776 1.379 . S
C1770 N1778 1.356 . S
C1771 C1770 1.363 . S
C1771 C1777 1.363 . S
C1772 C1773 1.363 . S
C1772 C1777 1.379 . S
C1772 N1779 1.356 . S
C1773 C1772 1.363 . S
C1773 C1776 1.363 . S
N1774 C1776 1.356 . S
N1774 H1786 0.984 . S
N1774 H1787 0.985 . S
N1775 C1777 1.356 . S
N1775 H1780 0.984 . S
N1775 H1781 0.985 . S
C1776 C1770 1.379 . S
C1776 C1773 1.363 . S
C1776 N1774 1.356 . S
C1777 C1771 1.363 . S
C1777 C1772 1.379 . S
C1777 N1775 1.356 . S
N1778 C1770 1.356 . S
N1778 H1784 0.984 . S
N1778 H1785 0.984 . S
N1779 C1772 1.356 . S
N1779 H1782 0.984 . S
N1779 H1783 0.985 . S
H1780 N1775 0.984 . S
H1781 N1775 0.985 . S
H1782 N1779 0.984 . S
H1783 N1779 0.985 . S
H1784 N1778 0.984 . S
H1785 N1778 0.984 . S
H1786 N1774 0.984 . S
H1787 N1774 0.985 . S
C1788 C1789 1.363 . S
C1788 C1794 1.379 . S
C1788 N1796 1.356 . S
C1789 C1788 1.363 . S
C1789 C1795 1.363 . S
C1790 C1791 1.363 . S
C1790 C1795 1.379 . S
C1790 N1797 1.356 . S
C1791 C1790 1.363 . S
C1791 C1794 1.363 . S
N1792 C1794 1.356 . S
N1792 H1804 0.984 . S
N1792 H1805 0.985 . S
N1793 C1795 1.356 . S
N1793 H1798 0.984 . S
N1793 H1799 0.985 . S
C1794 C1788 1.379 . S
C1794 C1791 1.363 . S
C1794 N1792 1.356 . S
C1795 C1789 1.363 . S
C1795 C1790 1.379 . S
C1795 N1793 1.356 . S
N1796 C1788 1.356 . S
N1796 H1802 0.984 . S
N1796 H1803 0.984 . S
N1797 C1790 1.356 . S
N1797 H1800 0.984 . S
N1797 H1801 0.985 . S
H1798 N1793 0.984 . S
H1799 N1793 0.985 . S
H1800 N1797 0.984 . S
H1801 N1797 0.985 . S
H1802 N1796 0.984 . S
H1803 N1796 0.984 . S
H1804 N1792 0.984 . S
H1805 N1792 0.985 . S
C1806 C1807 1.363 . S
C1806 C1812 1.379 . S
C1806 N1814 1.356 . S
C1807 C1806 1.363 . S
C1807 C1813 1.363 . S
C1808 C1809 1.363 . S
C1808 C1813 1.379 . S
C1808 N1815 1.356 . S
C1809 C1808 1.363 . S
C1809 C1812 1.363 . S
N1810 C1812 1.356 . S
N1810 H1822 0.984 . S
N1810 H1823 0.985 . S
N1811 C1813 1.356 . S
N1811 H1816 0.984 . S
N1811 H1817 0.985 . S
C1812 C1806 1.379 . S
C1812 C1809 1.363 . S
C1812 N1810 1.356 . S
C1813 C1807 1.363 . S
C1813 C1808 1.379 . S
C1813 N1811 1.356 . S
N1814 C1806 1.356 . S
N1814 H1820 0.984 . S
N1814 H1821 0.984 . S
N1815 C1808 1.356 . S
N1815 H1818 0.984 . S
N1815 H1819 0.985 . S
H1816 N1811 0.984 . S
H1817 N1811 0.985 . S
H1818 N1815 0.984 . S
H1819 N1815 0.985 . S
H1820 N1814 0.984 . S
H1821 N1814 0.984 . S
H1822 N1810 0.984 . S
H1823 N1810 0.985 . S
C1824 C1825 1.363 . S
C1824 C1830 1.379 . S
C1824 N1832 1.356 . S
C1825 C1824 1.363 . S
C1825 C1831 1.363 . S
C1826 C1827 1.363 . S
C1826 C1831 1.379 . S
C1826 N1833 1.356 . S
C1827 C1826 1.363 . S
C1827 C1830 1.363 . S
N1828 C1830 1.356 . S
N1828 H1840 0.984 . S
N1828 H1841 0.985 . S
N1829 C1831 1.356 . S
N1829 H1834 0.984 . S
N1829 H1835 0.985 . S
C1830 C1824 1.379 . S
C1830 C1827 1.363 . S
C1830 N1828 1.356 . S
C1831 C1825 1.363 . S
C1831 C1826 1.379 . S
C1831 N1829 1.356 . S
N1832 C1824 1.356 . S
N1832 H1838 0.984 . S
N1832 H1839 0.984 . S
N1833 C1826 1.356 . S
N1833 H1836 0.984 . S
N1833 H1837 0.985 . S
H1834 N1829 0.984 . S
H1835 N1829 0.985 . S
H1836 N1833 0.984 . S
H1837 N1833 0.985 . S
H1838 N1832 0.984 . S
H1839 N1832 0.984 . S
H1840 N1828 0.984 . S
H1841 N1828 0.985 . S
C1842 C1843 1.363 . S
C1842 C1848 1.379 . S
C1842 N1850 1.356 . S
C1843 C1842 1.363 . S
C1843 C1849 1.363 . S
C1844 C1845 1.363 . S
C1844 C1849 1.379 . S
C1844 N1851 1.356 . S
C1845 C1844 1.363 . S
C1845 C1848 1.363 . S
N1846 C1848 1.356 . S
N1846 H1858 0.984 . S
N1846 H1859 0.985 . S
N1847 C1849 1.356 . S
N1847 H1852 0.984 . S
N1847 H1853 0.985 . S
C1848 C1842 1.379 . S
C1848 C1845 1.363 . S
C1848 N1846 1.356 . S
C1849 C1843 1.363 . S
C1849 C1844 1.379 . S
C1849 N1847 1.356 . S
N1850 C1842 1.356 . S
N1850 H1856 0.984 . S
N1850 H1857 0.984 . S
N1851 C1844 1.356 . S
N1851 H1854 0.984 . S
N1851 H1855 0.985 . S
H1852 N1847 0.984 . S
H1853 N1847 0.985 . S
H1854 N1851 0.984 . S
H1855 N1851 0.985 . S
H1856 N1850 0.984 . S
H1857 N1850 0.984 . S
H1858 N1846 0.984 . S
H1859 N1846 0.985 . S
C1860 C1861 1.363 . S
C1860 C1866 1.379 . S
C1860 N1868 1.356 1_655 S
C1861 C1860 1.363 . S
C1861 C1867 1.363 . S
C1862 C1863 1.363 . S
C1862 C1867 1.379 . S
C1862 N1869 1.356 . S
C1863 C1862 1.363 . S
C1863 C1866 1.363 . S
N1864 C1866 1.356 . S
N1864 H1876 0.984 . S
N1864 H1877 0.985 . S
N1865 C1867 1.356 . S
N1865 H1870 0.984 . S
N1865 H1871 0.985 . S
C1866 C1860 1.379 . S
C1866 C1863 1.363 . S
C1866 N1864 1.356 . S
C1867 C1861 1.363 . S
C1867 C1862 1.379 . S
C1867 N1865 1.356 . S
N1868 C1860 1.356 1_455 S
N1868 H1874 0.984 . S
N1868 H1875 0.984 . S
N1869 C1862 1.356 . S
N1869 H1872 0.984 . S
N1869 H1873 0.985 . S
H1870 N1865 0.984 . S
H1871 N1865 0.985 . S
H1872 N1869 0.984 . S
H1873 N1869 0.985 . S
H1874 N1868 0.984 . S
H1875 N1868 0.984 . S
H1876 N1864 0.984 . S
H1877 N1864 0.985 . S
C1878 C1879 1.363 . S
C1878 C1884 1.379 . S
C1878 N1886 1.356 1_565 S
C1879 C1878 1.363 . S
C1879 C1885 1.363 . S
C1880 C1881 1.363 . S
C1880 C1885 1.379 . S
C1880 N1887 1.356 . S
C1881 C1880 1.363 . S
C1881 C1884 1.363 . S
N1882 C1884 1.356 . S
N1882 H1894 0.984 . S
N1882 H1895 0.985 . S
N1883 C1885 1.356 . S
N1883 H1888 0.984 . S
N1883 H1889 0.985 . S
C1884 C1878 1.379 . S
C1884 C1881 1.363 . S
C1884 N1882 1.356 . S
C1885 C1879 1.363 . S
C1885 C1880 1.379 . S
C1885 N1883 1.356 . S
N1886 C1878 1.356 1_545 S
N1886 H1892 0.984 . S
N1886 H1893 0.984 . S
N1887 C1880 1.356 . S
N1887 H1890 0.984 . S
N1887 H1891 0.985 . S
H1888 N1883 0.984 . S
H1889 N1883 0.985 . S
H1890 N1887 0.984 . S
H1891 N1887 0.985 . S
H1892 N1886 0.984 . S
H1893 N1886 0.984 . S
H1894 N1882 0.984 . S
H1895 N1882 0.985 . S
C1896 C1897 1.363 . S
C1896 C1902 1.379 . S
C1896 N1904 1.356 . S
C1897 C1896 1.363 . S
C1897 C1903 1.363 . S
C1898 C1899 1.363 . S
C1898 C1903 1.379 . S
C1898 N1905 1.356 . S
C1899 C1898 1.363 . S
C1899 C1902 1.363 . S
N1900 C1902 1.356 . S
N1900 H1912 0.984 . S
N1900 H1913 0.985 . S
N1901 C1903 1.356 . S
N1901 H1906 0.984 1_565 S
N1901 H1907 0.985 . S
C1902 C1896 1.379 . S
C1902 C1899 1.363 . S
C1902 N1900 1.356 . S
C1903 C1897 1.363 . S
C1903 C1898 1.379 . S
C1903 N1901 1.356 . S
N1904 C1896 1.356 . S
N1904 H1910 0.984 . S
N1904 H1911 0.984 . S
N1905 C1898 1.356 . S
N1905 H1908 0.984 . S
N1905 H1909 0.985 . S
H1906 N1901 0.984 1_545 S
H1907 N1901 0.985 . S
H1908 N1905 0.984 . S
H1909 N1905 0.985 . S
H1910 N1904 0.984 . S
H1911 N1904 0.984 . S
H1912 N1900 0.984 . S
H1913 N1900 0.985 . S
C1914 C1915 1.363 . S
C1914 C1920 1.379 . S
C1914 N1922 1.356 . S
C1915 C1914 1.363 . S
C1915 C1921 1.363 . S
C1916 C1917 1.363 . S
C1916 C1921 1.379 . S
C1916 N1923 1.356 . S
C1917 C1916 1.363 . S
C1917 C1920 1.363 . S
N1918 C1920 1.356 . S
N1918 H1930 0.984 . S
N1918 H1931 0.985 . S
N1919 C1921 1.356 . S
N1919 H1924 0.984 . S
N1919 H1925 0.985 . S
C1920 C1914 1.379 . S
C1920 C1917 1.363 . S
C1920 N1918 1.356 . S
C1921 C1915 1.363 . S
C1921 C1916 1.379 . S
C1921 N1919 1.356 . S
N1922 C1914 1.356 . S
N1922 H1928 0.984 . S
N1922 H1929 0.984 . S
N1923 C1916 1.356 . S
N1923 H1926 0.984 . S
N1923 H1927 0.985 . S
H1924 N1919 0.984 . S
H1925 N1919 0.985 . S
H1926 N1923 0.984 . S
H1927 N1923 0.985 . S
H1928 N1922 0.984 . S
H1929 N1922 0.984 . S
H1930 N1918 0.984 . S
H1931 N1918 0.985 . S
C1932 C1933 1.363 . S
C1932 C1938 1.379 . S
C1932 N1940 1.356 . S
C1933 C1932 1.363 . S
C1933 C1939 1.363 . S
C1934 C1935 1.363 . S
C1934 C1939 1.379 . S
C1934 N1941 1.356 . S
C1935 C1934 1.363 . S
C1935 C1938 1.363 . S
N1936 C1938 1.356 . S
N1936 H1948 0.984 . S
N1936 H1949 0.985 . S
N1937 C1939 1.356 . S
N1937 H1942 0.984 . S
N1937 H1943 0.985 . S
C1938 C1932 1.379 . S
C1938 C1935 1.363 . S
C1938 N1936 1.356 . S
C1939 C1933 1.363 . S
C1939 C1934 1.379 . S
C1939 N1937 1.356 . S
N1940 C1932 1.356 . S
N1940 H1946 0.984 . S
N1940 H1947 0.984 . S
N1941 C1934 1.356 . S
N1941 H1944 0.984 . S
N1941 H1945 0.985 . S
H1942 N1937 0.984 . S
H1943 N1937 0.985 . S
H1944 N1941 0.984 . S
H1945 N1941 0.985 . S
H1946 N1940 0.984 . S
H1947 N1940 0.984 . S
H1948 N1936 0.984 . S
H1949 N1936 0.985 . S
C1950 C1951 1.363 . S
C1950 C1956 1.379 . S
C1950 N1958 1.356 . S
C1951 C1950 1.363 . S
C1951 C1957 1.363 . S
C1952 C1953 1.363 . S
C1952 C1957 1.379 . S
C1952 N1959 1.356 . S
C1953 C1952 1.363 . S
C1953 C1956 1.363 . S
N1954 C1956 1.356 1_545 S
N1954 H1966 0.984 . S
N1954 H1967 0.985 . S
N1955 C1957 1.356 . S
N1955 H1960 0.984 . S
N1955 H1961 0.985 . S
C1956 C1950 1.379 . S
C1956 C1953 1.363 . S
C1956 N1954 1.356 1_565 S
C1957 C1951 1.363 . S
C1957 C1952 1.379 . S
C1957 N1955 1.356 . S
N1958 C1950 1.356 . S
N1958 H1964 0.984 . S
N1958 H1965 0.984 . S
N1959 C1952 1.356 . S
N1959 H1962 0.984 1_565 S
N1959 H1963 0.985 . S
H1960 N1955 0.984 . S
H1961 N1955 0.985 . S
H1962 N1959 0.984 1_545 S
H1963 N1959 0.985 . S
H1964 N1958 0.984 . S
H1965 N1958 0.984 . S
H1966 N1954 0.984 . S
H1967 N1954 0.985 . S
C1968 C1969 1.363 . S
C1968 C1974 1.379 . S
C1968 N1976 1.356 . S
C1969 C1968 1.363 . S
C1969 C1975 1.363 . S
C1970 C1971 1.363 . S
C1970 C1975 1.379 . S
C1970 N1977 1.356 . S
C1971 C1970 1.363 . S
C1971 C1974 1.363 . S
N1972 C1974 1.356 . S
N1972 H1984 0.984 . S
N1972 H1985 0.985 . S
N1973 C1975 1.356 . S
N1973 H1978 0.984 . S
N1973 H1979 0.985 . S
C1974 C1968 1.379 . S
C1974 C1971 1.363 . S
C1974 N1972 1.356 . S
C1975 C1969 1.363 . S
C1975 C1970 1.379 . S
C1975 N1973 1.356 . S
N1976 C1968 1.356 . S
N1976 H1982 0.984 . S
N1976 H1983 0.984 . S
N1977 C1970 1.356 . S
N1977 H1980 0.984 . S
N1977 H1981 0.985 . S
H1978 N1973 0.984 . S
H1979 N1973 0.985 . S
H1980 N1977 0.984 . S
H1981 N1977 0.985 . S
H1982 N1976 0.984 . S
H1983 N1976 0.984 . S
H1984 N1972 0.984 . S
H1985 N1972 0.985 . S
C1986 C1987 1.363 . S
C1986 C1992 1.379 . S
C1986 N1994 1.356 . S
C1987 C1986 1.363 . S
C1987 C1993 1.363 . S
C1988 C1989 1.363 . S
C1988 C1993 1.379 . S
C1988 N1995 1.356 . S
C1989 C1988 1.363 . S
C1989 C1992 1.363 . S
N1990 C1992 1.356 . S
N1990 H2002 0.984 . S
N1990 H2003 0.985 . S
N1991 C1993 1.356 . S
N1991 H1996 0.984 . S
N1991 H1997 0.985 . S
C1992 C1986 1.379 . S
C1992 C1989 1.363 . S
C1992 N1990 1.356 . S
C1993 C1987 1.363 . S
C1993 C1988 1.379 . S
C1993 N1991 1.356 . S
N1994 C1986 1.356 . S
N1994 H2000 0.984 . S
N1994 H2001 0.984 . S
N1995 C1988 1.356 . S
N1995 H1998 0.984 . S
N1995 H1999 0.985 . S
H1996 N1991 0.984 . S
H1997 N1991 0.985 . S
H1998 N1995 0.984 . S
H1999 N1995 0.985 . S
H2000 N1994 0.984 . S
H2001 N1994 0.984 . S
H2002 N1990 0.984 . S
H2003 N1990 0.985 . S
C2004 C2005 1.363 . S
C2004 C2010 1.379 . S
C2004 N2012 1.356 . S
C2005 C2004 1.363 . S
C2005 C2011 1.363 . S
C2006 C2007 1.363 . S
C2006 C2011 1.379 . S
C2006 N2013 1.356 . S
C2007 C2006 1.363 . S
C2007 C2010 1.363 . S
N2008 C2010 1.356 . S
N2008 H2020 0.984 . S
N2008 H2021 0.985 . S
N2009 C2011 1.356 1_545 S
N2009 H2014 0.984 . S
N2009 H2015 0.985 . S
C2010 C2004 1.379 . S
C2010 C2007 1.363 . S
C2010 N2008 1.356 . S
C2011 C2005 1.363 . S
C2011 C2006 1.379 . S
C2011 N2009 1.356 1_565 S
N2012 C2004 1.356 . S
N2012 H2018 0.984 . S
N2012 H2019 0.984 . S
N2013 C2006 1.356 . S
N2013 H2016 0.984 . S
N2013 H2017 0.985 . S
H2014 N2009 0.984 . S
H2015 N2009 0.985 . S
H2016 N2013 0.984 . S
H2017 N2013 0.985 . S
H2018 N2012 0.984 . S
H2019 N2012 0.984 . S
H2020 N2008 0.984 . S
H2021 N2008 0.985 . S
C2022 C2023 1.363 . S
C2022 C2028 1.379 . S
C2022 N2030 1.356 . S
C2023 C2022 1.363 . S
C2023 C2029 1.363 . S
C2024 C2025 1.363 . S
C2024 C2029 1.379 . S
C2024 N2031 1.356 . S
C2025 C2024 1.363 . S
C2025 C2028 1.363 . S
N2026 C2028 1.356 . S
N2026 H2038 0.984 . S
N2026 H2039 0.985 . S
N2027 C2029 1.356 . S
N2027 H2032 0.984 . S
N2027 H2033 0.985 . S
C2028 C2022 1.379 . S
C2028 C2025 1.363 . S
C2028 N2026 1.356 . S
C2029 C2023 1.363 . S
C2029 C2024 1.379 . S
C2029 N2027 1.356 . S
N2030 C2022 1.356 . S
N2030 H2036 0.997 . S
N2030 H2037 0.984 . S
N2031 C2024 1.356 . S
N2031 H2034 0.984 . S
N2031 H2035 0.985 . S
H2032 N2027 0.984 . S
H2033 N2027 0.985 . S
H2034 N2031 0.984 . S
H2035 N2031 0.985 . S
H2036 N2030 0.997 . S
H2037 N2030 0.984 . S
H2038 N2026 0.984 . S
H2039 N2026 0.985 . S
C2040 C2041 1.363 . S
C2040 C2046 1.379 . S
C2040 N2048 1.356 1_565 S
C2041 C2040 1.363 . S
C2041 C2047 1.363 . S
C2042 C2043 1.363 . S
C2042 C2047 1.379 . S
C2042 N2049 1.356 . S
C2043 C2042 1.363 . S
C2043 C2046 1.363 . S
N2044 C2046 1.356 . S
N2044 H2056 0.984 . S
N2044 H2057 0.985 . S
N2045 C2047 1.356 . S
N2045 H2050 0.984 . S
N2045 H2051 0.985 . S
C2046 C2040 1.379 . S
C2046 C2043 1.363 . S
C2046 N2044 1.356 . S
C2047 C2041 1.363 . S
C2047 C2042 1.379 . S
C2047 N2045 1.356 . S
N2048 C2040 1.356 1_545 S
N2048 H2054 0.984 . S
N2048 H2055 0.984 . S
N2049 C2042 1.356 . S
N2049 H2052 0.984 . S
N2049 H2053 0.985 . S
H2050 N2045 0.984 . S
H2051 N2045 0.985 . S
H2052 N2049 0.984 . S
H2053 N2049 0.985 . S
H2054 N2048 0.984 . S
H2055 N2048 0.984 . S
H2056 N2044 0.984 . S
H2057 N2044 0.985 . S
C2058 C2059 1.363 . S
C2058 C2064 1.379 . S
C2058 N2066 1.356 . S
C2059 C2058 1.363 . S
C2059 C2065 1.363 . S
C2060 C2061 1.363 . S
C2060 C2065 1.379 . S
C2060 N2067 1.356 . S
C2061 C2060 1.363 . S
C2061 C2064 1.363 . S
N2062 C2064 1.356 . S
N2062 H2074 0.984 . S
N2062 H2075 0.985 . S
N2063 C2065 1.356 . S
N2063 H2068 0.984 . S
N2063 H2069 0.985 . S
C2064 C2058 1.379 . S
C2064 C2061 1.363 . S
C2064 N2062 1.356 . S
C2065 C2059 1.363 . S
C2065 C2060 1.379 . S
C2065 N2063 1.356 . S
N2066 C2058 1.356 . S
N2066 H2072 0.984 . S
N2066 H2073 0.984 . S
N2067 C2060 1.356 . S
N2067 H2070 0.984 . S
N2067 H2071 0.985 . S
H2068 N2063 0.984 . S
H2069 N2063 0.985 . S
H2070 N2067 0.984 . S
H2071 N2067 0.985 . S
H2072 N2066 0.984 . S
H2073 N2066 0.984 . S
H2074 N2062 0.984 . S
H2075 N2062 0.985 . S
C2076 C2077 1.363 . S
C2076 C2082 1.379 . S
C2076 N2084 1.356 1_556 S
C2077 C2076 1.363 . S
C2077 C2083 1.363 . S
C2078 C2079 1.363 . S
C2078 C2083 1.379 . S
C2078 N2085 1.356 . S
C2079 C2078 1.363 . S
C2079 C2082 1.363 . S
N2080 C2082 1.356 . S
N2080 H2092 0.984 . S
N2080 H2093 0.985 . S
N2081 C2083 1.356 . S
N2081 H2086 0.984 . S
N2081 H2087 0.985 . S
C2082 C2076 1.379 . S
C2082 C2079 1.363 . S
C2082 N2080 1.356 . S
C2083 C2077 1.363 . S
C2083 C2078 1.379 . S
C2083 N2081 1.356 . S
N2084 C2076 1.356 1_554 S
N2084 H2090 0.984 . S
N2084 H2091 0.984 . S
N2085 C2078 1.356 . S
N2085 H2088 0.984 . S
N2085 H2089 0.985 . S
H2086 N2081 0.984 . S
H2087 N2081 0.985 . S
H2088 N2085 0.984 . S
H2089 N2085 0.985 . S
H2090 N2084 0.984 . S
H2091 N2084 0.984 . S
H2092 N2080 0.984 . S
H2093 N2080 0.985 . S
C2094 C2095 1.363 . S
C2094 C2100 1.379 . S
C2094 N2102 1.356 . S
C2095 C2094 1.363 . S
C2095 C2101 1.363 . S
C2096 C2097 1.363 . S
C2096 C2101 1.379 . S
C2096 N2103 1.356 . S
C2097 C2096 1.363 . S
C2097 C2100 1.363 . S
N2098 C2100 1.356 . S
N2098 H2110 0.984 . S
N2098 H2111 0.985 . S
N2099 C2101 1.356 . S
N2099 H2104 0.984 . S
N2099 H2105 0.985 . S
C2100 C2094 1.379 . S
C2100 C2097 1.363 . S
C2100 N2098 1.356 . S
C2101 C2095 1.363 . S
C2101 C2096 1.379 . S
C2101 N2099 1.356 . S
N2102 C2094 1.356 . S
N2102 H2108 0.984 . S
N2102 H2109 0.984 . S
N2103 C2096 1.356 . S
N2103 H2106 0.984 . S
N2103 H2107 0.985 . S
H2104 N2099 0.984 . S
H2105 N2099 0.985 . S
H2106 N2103 0.984 . S
H2107 N2103 0.985 . S
H2108 N2102 0.984 . S
H2109 N2102 0.984 . S
H2110 N2098 0.984 . S
H2111 N2098 0.985 . S
C2112 C2113 1.363 . S
C2112 C2118 1.379 . S
C2112 N2120 1.356 . S
C2113 C2112 1.363 . S
C2113 C2119 1.363 . S
C2114 C2115 1.363 . S
C2114 C2119 1.379 . S
C2114 N2121 1.356 . S
C2115 C2114 1.363 . S
C2115 C2118 1.363 . S
N2116 C2118 1.356 . S
N2116 H2128 0.984 . S
N2116 H2129 0.985 . S
N2117 C2119 1.356 . S
N2117 H2122 0.984 . S
N2117 H2123 0.985 . S
C2118 C2112 1.379 . S
C2118 C2115 1.363 . S
C2118 N2116 1.356 . S
C2119 C2113 1.363 . S
C2119 C2114 1.379 . S
C2119 N2117 1.356 . S
N2120 C2112 1.356 . S
N2120 H2126 0.984 . S
N2120 H2127 0.984 . S
N2121 C2114 1.356 . S
N2121 H2124 0.984 . S
N2121 H2125 0.985 . S
H2122 N2117 0.984 . S
H2123 N2117 0.985 . S
H2124 N2121 0.984 . S
H2125 N2121 0.985 . S
H2126 N2120 0.984 . S
H2127 N2120 0.984 . S
H2128 N2116 0.984 . S
H2129 N2116 0.985 . S
C2130 C2131 1.363 . S
C2130 C2136 1.379 . S
C2130 N2138 1.356 . S
C2131 C2130 1.363 . S
C2131 C2137 1.363 . S
C2132 C2133 1.363 . S
C2132 C2137 1.379 . S
C2132 N2139 1.356 . S
C2133 C2132 1.363 . S
C2133 C2136 1.363 . S
N2134 C2136 1.356 . S
N2134 H2146 0.984 . S
N2134 H2147 0.985 . S
N2135 C2137 1.356 . S
N2135 H2140 0.984 . S
N2135 H2141 0.985 . S
C2136 C2130 1.379 . S
C2136 C2133 1.363 . S
C2136 N2134 1.356 . S
C2137 C2131 1.363 . S
C2137 C2132 1.379 . S
C2137 N2135 1.356 . S
N2138 C2130 1.356 . S
N2138 H2144 0.984 . S
N2138 H2145 0.962 1_556 S
N2139 C2132 1.356 . S
N2139 H2142 0.984 . S
N2139 H2143 0.985 . S
H2140 N2135 0.984 . S
H2141 N2135 0.985 . S
H2142 N2139 0.984 . S
H2143 N2139 0.985 . S
H2144 N2138 0.984 . S
H2145 N2138 0.962 1_554 S
H2146 N2134 0.984 . S
H2147 N2134 0.985 . S
C2148 C2149 1.363 . S
C2148 C2154 1.379 . S
C2148 N2156 1.356 . S
C2149 C2148 1.363 . S
C2149 C2155 1.363 . S
C2150 C2151 1.363 . S
C2150 C2155 1.379 . S
C2150 N2157 1.356 . S
C2151 C2150 1.363 . S
C2151 C2154 1.363 . S
N2152 C2154 1.356 . S
N2152 H2164 0.984 . S
N2152 H2165 0.985 . S
N2153 C2155 1.356 1_554 S
N2153 H2158 0.984 . S
N2153 H2159 0.985 . S
C2154 C2148 1.379 . S
C2154 C2151 1.363 . S
C2154 N2152 1.356 . S
C2155 C2149 1.363 . S
C2155 C2150 1.379 . S
C2155 N2153 1.356 1_556 S
N2156 C2148 1.356 . S
N2156 H2162 0.984 . S
N2156 H2163 0.984 . S
N2157 C2150 1.356 . S
N2157 H2160 0.984 . S
N2157 H2161 0.985 . S
H2158 N2153 0.984 . S
H2159 N2153 0.985 . S
H2160 N2157 0.984 . S
H2161 N2157 0.985 . S
H2162 N2156 0.984 . S
H2163 N2156 0.984 . S
H2164 N2152 0.984 . S
H2165 N2152 0.985 . S
C2166 C2167 1.363 . S
C2166 C2172 1.379 . S
C2166 N2174 1.356 . S
C2167 C2166 1.363 . S
C2167 C2173 1.363 . S
C2168 C2169 1.363 . S
C2168 C2173 1.379 . S
C2168 N2175 1.356 . S
C2169 C2168 1.363 . S
C2169 C2172 1.363 . S
N2170 C2172 1.356 . S
N2170 H2182 0.984 . S
N2170 H2183 0.985 . S
N2171 C2173 1.356 . S
N2171 H2176 0.984 . S
N2171 H2177 0.985 . S
C2172 C2166 1.379 . S
C2172 C2169 1.363 . S
C2172 N2170 1.356 . S
C2173 C2167 1.363 . S
C2173 C2168 1.379 . S
C2173 N2171 1.356 . S
N2174 C2166 1.356 . S
N2174 H2180 0.984 . S
N2174 H2181 0.984 . S
N2175 C2168 1.356 . S
N2175 H2178 0.969 1_556 S
N2175 H2179 0.985 . S
H2176 N2171 0.984 . S
H2177 N2171 0.985 . S
H2178 N2175 0.969 1_554 S
H2179 N2175 0.985 . S
H2180 N2174 0.984 . S
H2181 N2174 0.984 . S
H2182 N2170 0.984 . S
H2183 N2170 0.985 . S
C2184 C2185 1.363 . S
C2184 C2190 1.379 . S
C2184 N2192 1.356 . S
C2185 C2184 1.363 . S
C2185 C2191 1.363 . S
C2186 C2187 1.363 . S
C2186 C2191 1.379 . S
C2186 N2193 1.356 . S
C2187 C2186 1.363 . S
C2187 C2190 1.363 . S
N2188 C2190 1.356 . S
N2188 H2200 0.984 . S
N2188 H2201 0.985 . S
N2189 C2191 1.356 . S
N2189 H2194 0.984 . S
N2189 H2195 0.968 1_565 S
C2190 C2184 1.379 . S
C2190 C2187 1.363 . S
C2190 N2188 1.356 . S
C2191 C2185 1.363 . S
C2191 C2186 1.379 . S
C2191 N2189 1.356 . S
N2192 C2184 1.356 . S
N2192 H2198 0.984 . S
N2192 H2199 0.984 . S
N2193 C2186 1.356 . S
N2193 H2196 0.984 1_556 S
N2193 H2197 0.985 . S
H2194 N2189 0.984 . S
H2195 N2189 0.968 1_545 S
H2196 N2193 0.984 1_554 S
H2197 N2193 0.985 . S
H2198 N2192 0.984 . S
H2199 N2192 0.984 . S
H2200 N2188 0.984 . S
H2201 N2188 0.985 . S
C2202 C2203 1.363 . S
C2202 C2208 1.379 . S
C2202 N2210 1.356 . S
C2203 C2202 1.363 . S
C2203 C2209 1.363 . S
C2204 C2205 1.363 . S
C2204 C2209 1.379 . S
C2204 N2211 1.356 . S
C2205 C2204 1.363 . S
C2205 C2208 1.363 . S
N2206 C2208 1.356 . S
N2206 H2218 0.984 . S
N2206 H2219 0.985 . S
N2207 C2209 1.356 . S
N2207 H2212 0.984 . S
N2207 H2213 0.985 . S
C2208 C2202 1.379 . S
C2208 C2205 1.363 . S
C2208 N2206 1.356 . S
C2209 C2203 1.363 . S
C2209 C2204 1.379 . S
C2209 N2207 1.356 . S
N2210 C2202 1.356 . S
N2210 H2216 0.984 . S
N2210 H2217 0.984 . S
N2211 C2204 1.356 . S
N2211 H2214 0.984 . S
N2211 H2215 0.985 . S
H2212 N2207 0.984 . S
H2213 N2207 0.985 . S
H2214 N2211 0.984 . S
H2215 N2211 0.985 . S
H2216 N2210 0.984 . S
H2217 N2210 0.984 . S
H2218 N2206 0.984 . S
H2219 N2206 0.985 . S
C2220 C2221 1.363 . S
C2220 C2226 1.379 . S
C2220 N2228 1.356 . S
C2221 C2220 1.363 . S
C2221 C2227 1.363 . S
C2222 C2223 1.363 . S
C2222 C2227 1.379 . S
C2222 N2229 1.356 . S
C2223 C2222 1.363 . S
C2223 C2226 1.363 . S
N2224 C2226 1.356 . S
N2224 H2236 0.984 . S
N2224 H2237 0.985 . S
N2225 C2227 1.356 . S
N2225 H2230 0.984 . S
N2225 H2231 0.985 1_565 S
C2226 C2220 1.379 . S
C2226 C2223 1.363 . S
C2226 N2224 1.356 . S
C2227 C2221 1.363 . S
C2227 C2222 1.379 . S
C2227 N2225 1.356 . S
N2228 C2220 1.356 . S
N2228 H2234 0.984 . S
N2228 H2235 0.984 . S
N2229 C2222 1.356 . S
N2229 H2232 0.972 1_554 S
N2229 H2233 0.986 . S
H2230 N2225 0.984 . S
H2231 N2225 0.985 1_545 S
H2232 N2229 0.972 1_556 S
H2233 N2229 0.986 . S
H2234 N2228 0.984 . S
H2235 N2228 0.984 . S
H2236 N2224 0.984 . S
H2237 N2224 0.985 . S
C2238 C2239 1.363 . S
C2238 C2244 1.379 . S
C2238 N2246 1.356 . S
C2239 C2238 1.363 . S
C2239 C2245 1.363 . S
C2240 C2241 1.363 . S
C2240 C2245 1.379 . S
C2240 N2247 1.356 . S
C2241 C2240 1.363 . S
C2241 C2244 1.363 . S
N2242 C2244 1.356 . S
N2242 H2254 0.984 . S
N2242 H2255 0.985 . S
N2243 C2245 1.356 . S
N2243 H2248 0.984 . S
N2243 H2249 0.985 . S
C2244 C2238 1.379 . S
C2244 C2241 1.363 . S
C2244 N2242 1.356 . S
C2245 C2239 1.363 . S
C2245 C2240 1.379 . S
C2245 N2243 1.356 . S
N2246 C2238 1.356 . S
N2246 H2252 0.984 . S
N2246 H2253 0.984 . S
N2247 C2240 1.356 . S
N2247 H2250 0.984 . S
N2247 H2251 0.985 . S
H2248 N2243 0.984 . S
H2249 N2243 0.985 . S
H2250 N2247 0.984 . S
H2251 N2247 0.985 . S
H2252 N2246 0.984 . S
H2253 N2246 0.984 . S
H2254 N2242 0.984 . S
H2255 N2242 0.985 . S
C2256 C2257 1.363 . S
C2256 C2262 1.379 . S
C2256 N2264 1.356 . S
C2257 C2256 1.363 . S
C2257 C2263 1.363 . S
C2258 C2259 1.363 . S
C2258 C2263 1.379 . S
C2258 N2265 1.356 . S
C2259 C2258 1.363 . S
C2259 C2262 1.363 . S
N2260 C2262 1.356 . S
N2260 H2272 0.984 . S
N2260 H2273 0.985 . S
N2261 C2263 1.356 . S
N2261 H2266 0.984 . S
N2261 H2267 0.985 . S
C2262 C2256 1.379 . S
C2262 C2259 1.363 . S
C2262 N2260 1.356 . S
C2263 C2257 1.363 . S
C2263 C2258 1.379 . S
C2263 N2261 1.356 . S
N2264 C2256 1.356 . S
N2264 H2270 0.984 . S
N2264 H2271 0.984 . S
N2265 C2258 1.356 . S
N2265 H2268 0.984 . S
N2265 H2269 0.985 . S
H2266 N2261 0.984 . S
H2267 N2261 0.985 . S
H2268 N2265 0.984 . S
H2269 N2265 0.985 . S
H2270 N2264 0.984 . S
H2271 N2264 0.984 . S
H2272 N2260 0.984 . S
H2273 N2260 0.985 . S
C2274 C2275 1.363 . S
C2274 C2280 1.379 . S
C2274 N2282 1.356 . S
C2275 C2274 1.363 . S
C2275 C2281 1.363 . S
C2276 C2277 1.363 . S
C2276 C2281 1.379 . S
C2276 N2283 1.356 . S
C2277 C2276 1.363 . S
C2277 C2280 1.363 . S
N2278 C2280 1.356 . S
N2278 H2290 0.984 . S
N2278 H2291 0.985 . S
N2279 C2281 1.356 . S
N2279 H2284 0.984 . S
N2279 H2285 0.985 . S
C2280 C2274 1.379 . S
C2280 C2277 1.363 . S
C2280 N2278 1.356 . S
C2281 C2275 1.363 . S
C2281 C2276 1.379 . S
C2281 N2279 1.356 . S
N2282 C2274 1.356 . S
N2282 H2288 0.984 . S
N2282 H2289 0.984 . S
N2283 C2276 1.356 . S
N2283 H2286 0.984 . S
N2283 H2287 0.985 . S
H2284 N2279 0.984 . S
H2285 N2279 0.985 . S
H2286 N2283 0.984 . S
H2287 N2283 0.985 . S
H2288 N2282 0.984 . S
H2289 N2282 0.984 . S
H2290 N2278 0.984 . S
H2291 N2278 0.985 . S
C2292 C2293 1.363 . S
C2292 C2298 1.379 . S
C2292 N2300 1.356 . S
C2293 C2292 1.363 . S
C2293 C2299 1.363 . S
C2294 C2295 1.363 . S
C2294 C2299 1.379 . S
C2294 N2301 1.356 . S
C2295 C2294 1.363 . S
C2295 C2298 1.363 . S
N2296 C2298 1.356 . S
N2296 H2308 0.984 . S
N2296 H2309 0.985 . S
N2297 C2299 1.356 . S
N2297 H2302 0.984 . S
N2297 H2303 0.985 . S
C2298 C2292 1.379 . S
C2298 C2295 1.363 . S
C2298 N2296 1.356 . S
C2299 C2293 1.363 . S
C2299 C2294 1.379 . S
C2299 N2297 1.356 . S
N2300 C2292 1.356 . S
N2300 H2306 0.984 . S
N2300 H2307 0.984 . S
N2301 C2294 1.356 . S
N2301 H2304 0.984 . S
N2301 H2305 0.985 . S
H2302 N2297 0.984 . S
H2303 N2297 0.985 . S
H2304 N2301 0.984 . S
H2305 N2301 0.985 . S
H2306 N2300 0.984 . S
H2307 N2300 0.984 . S
H2308 N2296 0.984 . S
H2309 N2296 0.985 . S
C2310 C2311 1.363 . S
C2310 C2316 1.379 . S
C2310 N2318 1.356 . S
C2311 C2310 1.363 . S
C2311 C2317 1.363 . S
C2312 C2313 1.363 . S
C2312 C2317 1.379 . S
C2312 N2319 1.356 . S
C2313 C2312 1.363 . S
C2313 C2316 1.363 . S
N2314 C2316 1.356 . S
N2314 H2326 0.984 . S
N2314 H2327 0.985 . S
N2315 C2317 1.356 . S
N2315 H2320 0.984 . S
N2315 H2321 0.985 . S
C2316 C2310 1.379 . S
C2316 C2313 1.363 . S
C2316 N2314 1.356 . S
C2317 C2311 1.363 . S
C2317 C2312 1.379 . S
C2317 N2315 1.356 . S
N2318 C2310 1.356 . S
N2318 H2324 0.984 . S
N2318 H2325 0.984 . S
N2319 C2312 1.356 . S
N2319 H2322 0.984 . S
N2319 H2323 0.985 . S
H2320 N2315 0.984 . S
H2321 N2315 0.985 . S
H2322 N2319 0.984 . S
H2323 N2319 0.985 . S
H2324 N2318 0.984 . S
H2325 N2318 0.984 . S
H2326 N2314 0.984 . S
H2327 N2314 0.985 . S
C2328 C2329 1.363 . S
C2328 C2334 1.379 . S
C2328 N2336 1.356 . S
C2329 C2328 1.363 . S
C2329 C2335 1.363 . S
C2330 C2331 1.363 . S
C2330 C2335 1.379 . S
C2330 N2337 1.356 . S
C2331 C2330 1.363 . S
C2331 C2334 1.363 . S
N2332 C2334 1.356 . S
N2332 H2344 0.984 . S
N2332 H2345 0.985 . S
N2333 C2335 1.356 . S
N2333 H2338 0.984 . S
N2333 H2339 0.985 . S
C2334 C2328 1.379 . S
C2334 C2331 1.363 . S
C2334 N2332 1.356 . S
C2335 C2329 1.363 . S
C2335 C2330 1.379 . S
C2335 N2333 1.356 . S
N2336 C2328 1.356 . S
N2336 H2342 0.984 . S
N2336 H2343 0.984 . S
N2337 C2330 1.356 . S
N2337 H2340 0.984 . S
N2337 H2341 0.985 . S
H2338 N2333 0.984 . S
H2339 N2333 0.985 . S
H2340 N2337 0.984 . S
H2341 N2337 0.985 . S
H2342 N2336 0.984 . S
H2343 N2336 0.984 . S
H2344 N2332 0.984 . S
H2345 N2332 0.985 . S
C2346 C2347 1.363 . S
C2346 C2352 1.379 . S
C2346 N2354 1.356 . S
C2347 C2346 1.363 . S
C2347 C2353 1.363 . S
C2348 C2349 1.363 . S
C2348 C2353 1.379 . S
C2348 N2355 1.356 . S
C2349 C2348 1.363 . S
C2349 C2352 1.363 . S
N2350 C2352 1.356 . S
N2350 H2362 0.984 . S
N2350 H2363 0.985 . S
N2351 C2353 1.356 . S
N2351 H2356 0.984 . S
N2351 H2357 0.985 . S
C2352 C2346 1.379 . S
C2352 C2349 1.363 . S
C2352 N2350 1.356 . S
C2353 C2347 1.363 . S
C2353 C2348 1.379 . S
C2353 N2351 1.356 . S
N2354 C2346 1.356 . S
N2354 H2360 0.984 . S
N2354 H2361 0.984 . S
N2355 C2348 1.356 . S
N2355 H2358 0.984 . S
N2355 H2359 0.985 . S
H2356 N2351 0.984 . S
H2357 N2351 0.985 . S
H2358 N2355 0.984 . S
H2359 N2355 0.985 . S
H2360 N2354 0.984 . S
H2361 N2354 0.984 . S
H2362 N2350 0.984 . S
H2363 N2350 0.985 . S
C2364 C2365 1.363 . S
C2364 C2370 1.379 . S
C2364 N2372 1.356 . S
C2365 C2364 1.363 . S
C2365 C2371 1.363 . S
C2366 C2367 1.363 . S
C2366 C2371 1.379 . S
C2366 N2373 1.356 . S
C2367 C2366 1.363 . S
C2367 C2370 1.363 . S
N2368 C2370 1.356 . S
N2368 H2380 0.984 . S
N2368 H2381 0.985 . S
N2369 C2371 1.356 . S
N2369 H2374 0.984 . S
N2369 H2375 0.985 . S
C2370 C2364 1.379 . S
C2370 C2367 1.363 . S
C2370 N2368 1.356 . S
C2371 C2365 1.363 . S
C2371 C2366 1.379 . S
C2371 N2369 1.356 . S
N2372 C2364 1.356 . S
N2372 H2378 0.984 . S
N2372 H2379 0.984 . S
N2373 C2366 1.356 . S
N2373 H2376 0.984 . S
N2373 H2377 0.985 . S
H2374 N2369 0.984 . S
H2375 N2369 0.985 . S
H2376 N2373 0.984 . S
H2377 N2373 0.985 . S
H2378 N2372 0.984 . S
H2379 N2372 0.984 . S
H2380 N2368 0.984 . S
H2381 N2368 0.985 . S
C2382 C2383 1.363 . S
C2382 C2388 1.379 . S
C2382 N2390 1.356 . S
C2383 C2382 1.363 . S
C2383 C2389 1.363 . S
C2384 C2385 1.363 . S
C2384 C2389 1.379 . S
C2384 N2391 1.356 . S
C2385 C2384 1.363 . S
C2385 C2388 1.363 . S
N2386 C2388 1.356 . S
N2386 H2398 0.984 . S
N2386 H2399 0.985 . S
N2387 C2389 1.356 . S
N2387 H2392 0.984 . S
N2387 H2393 0.985 . S
C2388 C2382 1.379 . S
C2388 C2385 1.363 . S
C2388 N2386 1.356 . S
C2389 C2383 1.363 . S
C2389 C2384 1.379 . S
C2389 N2387 1.356 . S
N2390 C2382 1.356 . S
N2390 H2396 0.984 . S
N2390 H2397 0.984 . S
N2391 C2384 1.356 . S
N2391 H2394 0.984 . S
N2391 H2395 0.985 . S
H2392 N2387 0.984 . S
H2393 N2387 0.985 . S
H2394 N2391 0.984 . S
H2395 N2391 0.985 . S
H2396 N2390 0.984 . S
H2397 N2390 0.984 . S
H2398 N2386 0.984 . S
H2399 N2386 0.985 . S
C2400 C2401 1.363 . S
C2400 C2406 1.379 . S
C2400 N2408 1.356 . S
C2401 C2400 1.363 . S
C2401 C2407 1.363 . S
C2402 C2403 1.363 . S
C2402 C2407 1.379 . S
C2402 N2409 1.356 . S
C2403 C2402 1.363 . S
C2403 C2406 1.363 . S
N2404 C2406 1.356 . S
N2404 H2416 0.984 . S
N2404 H2417 0.985 . S
N2405 C2407 1.356 . S
N2405 H2410 0.984 . S
N2405 H2411 0.985 . S
C2406 C2400 1.379 . S
C2406 C2403 1.363 . S
C2406 N2404 1.356 . S
C2407 C2401 1.363 . S
C2407 C2402 1.379 . S
C2407 N2405 1.356 . S
N2408 C2400 1.356 . S
N2408 H2414 0.984 . S
N2408 H2415 0.984 . S
N2409 C2402 1.356 . S
N2409 H2412 0.984 . S
N2409 H2413 0.985 . S
H2410 N2405 0.984 . S
H2411 N2405 0.985 . S
H2412 N2409 0.984 . S
H2413 N2409 0.985 . S
H2414 N2408 0.984 . S
H2415 N2408 0.984 . S
H2416 N2404 0.984 . S
H2417 N2404 0.985 . S
C2418 C2419 1.363 . S
C2418 C2424 1.379 . S
C2418 N2426 1.356 . S
C2419 C2418 1.363 . S
C2419 C2425 1.363 . S
C2420 C2421 1.363 . S
C2420 C2425 1.379 . S
C2420 N2427 1.356 . S
C2421 C2420 1.363 . S
C2421 C2424 1.363 . S
N2422 C2424 1.356 . S
N2422 H2434 0.984 . S
N2422 H2435 0.985 . S
N2423 C2425 1.356 . S
N2423 H2428 0.984 . S
N2423 H2429 0.985 . S
C2424 C2418 1.379 . S
C2424 C2421 1.363 . S
C2424 N2422 1.356 . S
C2425 C2419 1.363 . S
C2425 C2420 1.379 . S
C2425 N2423 1.356 . S
N2426 C2418 1.356 . S
N2426 H2432 0.984 . S
N2426 H2433 0.984 . S
N2427 C2420 1.356 . S
N2427 H2430 0.984 . S
N2427 H2431 0.985 . S
H2428 N2423 0.984 . S
H2429 N2423 0.985 . S
H2430 N2427 0.984 . S
H2431 N2427 0.985 . S
H2432 N2426 0.984 . S
H2433 N2426 0.984 . S
H2434 N2422 0.984 . S
H2435 N2422 0.985 . S
C2436 C2437 1.363 . S
C2436 C2442 1.379 . S
C2436 N2444 1.356 . S
C2437 C2436 1.363 . S
C2437 C2443 1.363 . S
C2438 C2439 1.363 . S
C2438 C2443 1.379 . S
C2438 N2445 1.356 . S
C2439 C2438 1.363 . S
C2439 C2442 1.363 . S
N2440 C2442 1.356 . S
N2440 H2452 0.984 . S
N2440 H2453 0.985 . S
N2441 C2443 1.356 . S
N2441 H2446 0.984 . S
N2441 H2447 0.985 . S
C2442 C2436 1.379 . S
C2442 C2439 1.363 . S
C2442 N2440 1.356 . S
C2443 C2437 1.363 . S
C2443 C2438 1.379 . S
C2443 N2441 1.356 . S
N2444 C2436 1.356 . S
N2444 H2450 0.984 . S
N2444 H2451 0.984 . S
N2445 C2438 1.356 . S
N2445 H2448 0.984 . S
N2445 H2449 0.985 . S
H2446 N2441 0.984 . S
H2447 N2441 0.985 . S
H2448 N2445 0.984 . S
H2449 N2445 0.985 . S
H2450 N2444 0.984 . S
H2451 N2444 0.984 . S
H2452 N2440 0.984 . S
H2453 N2440 0.985 . S
C2454 C2455 1.363 . S
C2454 C2460 1.379 . S
C2454 N2462 1.356 . S
C2455 C2454 1.363 . S
C2455 C2461 1.363 . S
C2456 C2457 1.363 . S
C2456 C2461 1.379 . S
C2456 N2463 1.356 . S
C2457 C2456 1.363 . S
C2457 C2460 1.363 . S
N2458 C2460 1.356 . S
N2458 H2470 0.984 . S
N2458 H2471 0.985 . S
N2459 C2461 1.356 . S
N2459 H2464 0.984 . S
N2459 H2465 0.985 . S
C2460 C2454 1.379 . S
C2460 C2457 1.363 . S
C2460 N2458 1.356 . S
C2461 C2455 1.363 . S
C2461 C2456 1.379 . S
C2461 N2459 1.356 . S
N2462 C2454 1.356 . S
N2462 H2468 0.984 . S
N2462 H2469 0.984 . S
N2463 C2456 1.356 . S
N2463 H2466 0.984 . S
N2463 H2467 0.985 . S
H2464 N2459 0.984 . S
H2465 N2459 0.985 . S
H2466 N2463 0.984 . S
H2467 N2463 0.985 . S
H2468 N2462 0.984 . S
H2469 N2462 0.984 . S
H2470 N2458 0.984 . S
H2471 N2458 0.985 . S
C2472 C2473 1.363 . S
C2472 C2478 1.379 . S
C2472 N2480 1.356 . S
C2473 C2472 1.363 . S
C2473 C2479 1.363 . S
C2474 C2475 1.363 . S
C2474 C2479 1.379 . S
C2474 N2481 1.356 . S
C2475 C2474 1.363 . S
C2475 C2478 1.363 . S
N2476 C2478 1.356 . S
N2476 H2488 0.984 . S
N2476 H2489 0.985 . S
N2477 C2479 1.356 . S
N2477 H2482 0.984 . S
N2477 H2483 0.985 . S
C2478 C2472 1.379 . S
C2478 C2475 1.363 . S
C2478 N2476 1.356 . S
C2479 C2473 1.363 . S
C2479 C2474 1.379 . S
C2479 N2477 1.356 . S
N2480 C2472 1.356 . S
N2480 H2486 0.984 . S
N2480 H2487 0.984 . S
N2481 C2474 1.356 . S
N2481 H2484 0.984 . S
N2481 H2485 0.985 . S
H2482 N2477 0.984 . S
H2483 N2477 0.985 . S
H2484 N2481 0.984 . S
H2485 N2481 0.985 . S
H2486 N2480 0.984 . S
H2487 N2480 0.984 . S
H2488 N2476 0.984 . S
H2489 N2476 0.985 . S
C2490 C2491 1.363 . S
C2490 C2496 1.379 . S
C2490 N2498 1.356 . S
C2491 C2490 1.363 . S
C2491 C2497 1.363 . S
C2492 C2493 1.363 . S
C2492 C2497 1.379 . S
C2492 N2499 1.356 . S
C2493 C2492 1.363 . S
C2493 C2496 1.363 . S
N2494 C2496 1.356 . S
N2494 H2506 0.984 . S
N2494 H2507 0.985 . S
N2495 C2497 1.356 . S
N2495 H2500 0.984 . S
N2495 H2501 0.985 . S
C2496 C2490 1.379 . S
C2496 C2493 1.363 . S
C2496 N2494 1.356 . S
C2497 C2491 1.363 . S
C2497 C2492 1.379 . S
C2497 N2495 1.356 . S
N2498 C2490 1.356 . S
N2498 H2504 0.984 . S
N2498 H2505 0.984 . S
N2499 C2492 1.356 . S
N2499 H2502 0.984 . S
N2499 H2503 0.985 . S
H2500 N2495 0.984 . S
H2501 N2495 0.985 . S
H2502 N2499 0.984 . S
H2503 N2499 0.985 . S
H2504 N2498 0.984 . S
H2505 N2498 0.984 . S
H2506 N2494 0.984 . S
H2507 N2494 0.985 . S
C2508 C2509 1.363 . S
C2508 C2514 1.379 . S
C2508 N2516 1.356 . S
C2509 C2508 1.363 . S
C2509 C2515 1.363 . S
C2510 C2511 1.363 . S
C2510 C2515 1.379 . S
C2510 N2517 1.356 . S
C2511 C2510 1.363 . S
C2511 C2514 1.363 . S
N2512 C2514 1.356 . S
N2512 H2524 0.984 . S
N2512 H2525 0.985 . S
N2513 C2515 1.356 . S
N2513 H2518 0.984 . S
N2513 H2519 0.985 . S
C2514 C2508 1.379 . S
C2514 C2511 1.363 . S
C2514 N2512 1.356 . S
C2515 C2509 1.363 . S
C2515 C2510 1.379 . S
C2515 N2513 1.356 . S
N2516 C2508 1.356 . S
N2516 H2522 0.984 . S
N2516 H2523 0.984 . S
N2517 C2510 1.356 . S
N2517 H2520 0.984 . S
N2517 H2521 0.985 . S
H2518 N2513 0.984 . S
H2519 N2513 0.985 . S
H2520 N2517 0.984 . S
H2521 N2517 0.985 . S
H2522 N2516 0.984 . S
H2523 N2516 0.984 . S
H2524 N2512 0.984 . S
H2525 N2512 0.985 . S
C2526 C2527 1.363 . S
C2526 C2532 1.379 . S
C2526 N2534 1.356 . S
C2527 C2526 1.363 . S
C2527 C2533 1.363 . S
C2528 C2529 1.363 . S
C2528 C2533 1.379 . S
C2528 N2535 1.356 . S
C2529 C2528 1.363 . S
C2529 C2532 1.363 . S
N2530 C2532 1.356 . S
N2530 H2542 0.984 . S
N2530 H2543 0.985 . S
N2531 C2533 1.356 . S
N2531 H2536 0.984 . S
N2531 H2537 0.985 . S
C2532 C2526 1.379 . S
C2532 C2529 1.363 . S
C2532 N2530 1.356 . S
C2533 C2527 1.363 . S
C2533 C2528 1.379 . S
C2533 N2531 1.356 . S
N2534 C2526 1.356 . S
N2534 H2540 0.984 . S
N2534 H2541 0.984 . S
N2535 C2528 1.356 . S
N2535 H2538 0.984 . S
N2535 H2539 0.985 . S
H2536 N2531 0.984 . S
H2537 N2531 0.985 . S
H2538 N2535 0.984 . S
H2539 N2535 0.985 . S
H2540 N2534 0.984 . S
H2541 N2534 0.984 . S
H2542 N2530 0.984 . S
H2543 N2530 0.985 . S
C2544 C2545 1.363 . S
C2544 C2550 1.379 . S
C2544 N2552 1.356 . S
C2545 C2544 1.363 . S
C2545 C2551 1.363 . S
C2546 C2547 1.363 . S
C2546 C2551 1.379 . S
C2546 N2553 1.356 . S
C2547 C2546 1.363 . S
C2547 C2550 1.363 . S
N2548 C2550 1.356 . S
N2548 H2560 0.984 . S
N2548 H2561 0.985 . S
N2549 C2551 1.356 . S
N2549 H2554 0.984 . S
N2549 H2555 0.985 . S
C2550 C2544 1.379 . S
C2550 C2547 1.363 . S
C2550 N2548 1.356 . S
C2551 C2545 1.363 . S
C2551 C2546 1.379 . S
C2551 N2549 1.356 . S
N2552 C2544 1.356 . S
N2552 H2558 0.984 . S
N2552 H2559 0.984 . S
N2553 C2546 1.356 . S
N2553 H2556 0.984 . S
N2553 H2557 0.985 . S
H2554 N2549 0.984 . S
H2555 N2549 0.985 . S
H2556 N2553 0.984 . S
H2557 N2553 0.985 . S
H2558 N2552 0.984 . S
H2559 N2552 0.984 . S
H2560 N2548 0.984 . S
H2561 N2548 0.985 . S
C2562 C2563 1.363 . S
C2562 C2568 1.379 . S
C2562 N2570 1.356 . S
C2563 C2562 1.363 . S
C2563 C2569 1.363 . S
C2564 C2565 1.363 . S
C2564 C2569 1.379 . S
C2564 N2571 1.356 . S
C2565 C2564 1.363 . S
C2565 C2568 1.363 . S
N2566 C2568 1.356 . S
N2566 H2578 0.984 . S
N2566 H2579 0.985 . S
N2567 C2569 1.356 . S
N2567 H2572 0.984 . S
N2567 H2573 0.985 . S
C2568 C2562 1.379 . S
C2568 C2565 1.363 . S
C2568 N2566 1.356 . S
C2569 C2563 1.363 . S
C2569 C2564 1.379 . S
C2569 N2567 1.356 . S
N2570 C2562 1.356 . S
N2570 H2576 0.984 . S
N2570 H2577 0.984 . S
N2571 C2564 1.356 . S
N2571 H2574 0.984 . S
N2571 H2575 0.985 . S
H2572 N2567 0.984 . S
H2573 N2567 0.985 . S
H2574 N2571 0.984 . S
H2575 N2571 0.985 . S
H2576 N2570 0.984 . S
H2577 N2570 0.984 . S
H2578 N2566 0.984 . S
H2579 N2566 0.985 . S
C2580 C2581 1.363 . S
C2580 C2586 1.379 . S
C2580 N2588 1.356 . S
C2581 C2580 1.363 . S
C2581 C2587 1.363 . S
C2582 C2583 1.363 . S
C2582 C2587 1.379 . S
C2582 N2589 1.356 . S
C2583 C2582 1.363 . S
C2583 C2586 1.363 . S
N2584 C2586 1.356 . S
N2584 H2596 0.984 . S
N2584 H2597 0.985 . S
N2585 C2587 1.356 . S
N2585 H2590 0.984 . S
N2585 H2591 0.985 . S
C2586 C2580 1.379 . S
C2586 C2583 1.363 . S
C2586 N2584 1.356 . S
C2587 C2581 1.363 . S
C2587 C2582 1.379 . S
C2587 N2585 1.356 . S
N2588 C2580 1.356 . S
N2588 H2594 0.984 . S
N2588 H2595 0.984 . S
N2589 C2582 1.356 . S
N2589 H2592 0.984 . S
N2589 H2593 0.985 . S
H2590 N2585 0.984 . S
H2591 N2585 0.985 . S
H2592 N2589 0.984 . S
H2593 N2589 0.985 . S
H2594 N2588 0.984 . S
H2595 N2588 0.984 . S
H2596 N2584 0.984 . S
H2597 N2584 0.985 . S
C2598 C2599 1.363 . S
C2598 C2604 1.379 . S
C2598 N2606 1.356 . S
C2599 C2598 1.363 . S
C2599 C2605 1.363 . S
C2600 C2601 1.363 . S
C2600 C2605 1.379 . S
C2600 N2607 1.356 . S
C2601 C2600 1.363 . S
C2601 C2604 1.363 . S
N2602 C2604 1.356 . S
N2602 H2614 0.984 . S
N2602 H2615 0.985 . S
N2603 C2605 1.356 . S
N2603 H2608 0.984 . S
N2603 H2609 0.985 . S
C2604 C2598 1.379 . S
C2604 C2601 1.363 . S
C2604 N2602 1.356 . S
C2605 C2599 1.363 . S
C2605 C2600 1.379 . S
C2605 N2603 1.356 . S
N2606 C2598 1.356 . S
N2606 H2612 0.984 . S
N2606 H2613 0.984 . S
N2607 C2600 1.356 . S
N2607 H2610 0.984 . S
N2607 H2611 0.985 . S
H2608 N2603 0.984 . S
H2609 N2603 0.985 . S
H2610 N2607 0.984 . S
H2611 N2607 0.985 . S
H2612 N2606 0.984 . S
H2613 N2606 0.984 . S
H2614 N2602 0.984 . S
H2615 N2602 0.985 . S
C2616 C2617 1.363 . S
C2616 C2622 1.379 . S
C2616 N2624 1.356 . S
C2617 C2616 1.363 . S
C2617 C2623 1.363 . S
C2618 C2619 1.363 . S
C2618 C2623 1.379 . S
C2618 N2625 1.356 . S
C2619 C2618 1.363 . S
C2619 C2622 1.363 . S
N2620 C2622 1.356 . S
N2620 H2632 0.984 . S
N2620 H2633 0.985 . S
N2621 C2623 1.356 . S
N2621 H2626 0.984 . S
N2621 H2627 0.985 . S
C2622 C2616 1.379 . S
C2622 C2619 1.363 . S
C2622 N2620 1.356 . S
C2623 C2617 1.363 . S
C2623 C2618 1.379 . S
C2623 N2621 1.356 . S
N2624 C2616 1.356 . S
N2624 H2630 0.984 . S
N2624 H2631 0.984 . S
N2625 C2618 1.356 . S
N2625 H2628 0.984 . S
N2625 H2629 0.985 . S
H2626 N2621 0.984 . S
H2627 N2621 0.985 . S
H2628 N2625 0.984 . S
H2629 N2625 0.985 . S
H2630 N2624 0.984 . S
H2631 N2624 0.984 . S
H2632 N2620 0.984 . S
H2633 N2620 0.985 . S
C2634 C2635 1.363 . S
C2634 C2640 1.379 . S
C2634 N2642 1.356 . S
C2635 C2634 1.363 . S
C2635 C2641 1.363 . S
C2636 C2637 1.363 . S
C2636 C2641 1.379 . S
C2636 N2643 1.356 . S
C2637 C2636 1.363 . S
C2637 C2640 1.363 . S
N2638 C2640 1.356 . S
N2638 H2650 0.984 . S
N2638 H2651 0.985 . S
N2639 C2641 1.356 . S
N2639 H2644 0.984 . S
N2639 H2645 0.985 . S
C2640 C2634 1.379 . S
C2640 C2637 1.363 . S
C2640 N2638 1.356 . S
C2641 C2635 1.363 . S
C2641 C2636 1.379 . S
C2641 N2639 1.356 . S
N2642 C2634 1.356 . S
N2642 H2648 0.984 . S
N2642 H2649 0.984 . S
N2643 C2636 1.356 . S
N2643 H2646 0.984 . S
N2643 H2647 0.985 . S
H2644 N2639 0.984 . S
H2645 N2639 0.985 . S
H2646 N2643 0.984 . S
H2647 N2643 0.985 . S
H2648 N2642 0.984 . S
H2649 N2642 0.984 . S
H2650 N2638 0.984 . S
H2651 N2638 0.985 . S
C2652 C2653 1.363 . S
C2652 C2658 1.379 . S
C2652 N2660 1.356 . S
C2653 C2652 1.363 . S
C2653 C2659 1.363 . S
C2654 C2655 1.363 . S
C2654 C2659 1.379 . S
C2654 N2661 1.356 . S
C2655 C2654 1.363 . S
C2655 C2658 1.363 . S
N2656 C2658 1.356 . S
N2656 H2668 0.984 . S
N2656 H2669 0.985 . S
N2657 C2659 1.356 . S
N2657 H2662 0.984 . S
N2657 H2663 0.985 . S
C2658 C2652 1.379 . S
C2658 C2655 1.363 . S
C2658 N2656 1.356 . S
C2659 C2653 1.363 . S
C2659 C2654 1.379 . S
C2659 N2657 1.356 . S
N2660 C2652 1.356 . S
N2660 H2666 0.984 . S
N2660 H2667 0.984 . S
N2661 C2654 1.356 . S
N2661 H2664 0.984 . S
N2661 H2665 0.985 . S
H2662 N2657 0.984 . S
H2663 N2657 0.985 . S
H2664 N2661 0.984 . S
H2665 N2661 0.985 . S
H2666 N2660 0.984 . S
H2667 N2660 0.984 . S
H2668 N2656 0.984 . S
H2669 N2656 0.985 . S
C2670 C2671 1.363 . S
C2670 C2676 1.379 . S
C2670 N2678 1.356 . S
C2671 C2670 1.363 . S
C2671 C2677 1.363 . S
C2672 C2673 1.363 . S
C2672 C2677 1.379 . S
C2672 N2679 1.356 . S
C2673 C2672 1.363 . S
C2673 C2676 1.363 . S
N2674 C2676 1.356 . S
N2674 H2686 0.984 . S
N2674 H2687 0.985 . S
N2675 C2677 1.356 . S
N2675 H2680 0.984 . S
N2675 H2681 0.985 . S
C2676 C2670 1.379 . S
C2676 C2673 1.363 . S
C2676 N2674 1.356 . S
C2677 C2671 1.363 . S
C2677 C2672 1.379 . S
C2677 N2675 1.356 . S
N2678 C2670 1.356 . S
N2678 H2684 0.984 . S
N2678 H2685 0.984 . S
N2679 C2672 1.356 . S
N2679 H2682 0.984 . S
N2679 H2683 0.985 . S
H2680 N2675 0.984 . S
H2681 N2675 0.985 . S
H2682 N2679 0.984 . S
H2683 N2679 0.985 . S
H2684 N2678 0.984 . S
H2685 N2678 0.984 . S
H2686 N2674 0.984 . S
H2687 N2674 0.985 . S
C2688 C2689 1.363 . S
C2688 C2694 1.379 . S
C2688 N2696 1.356 . S
C2689 C2688 1.363 . S
C2689 C2695 1.363 . S
C2690 C2691 1.363 . S
C2690 C2695 1.379 . S
C2690 N2697 1.356 . S
C2691 C2690 1.363 . S
C2691 C2694 1.363 . S
N2692 C2694 1.356 . S
N2692 H2704 0.984 . S
N2692 H2705 0.985 . S
N2693 C2695 1.356 . S
N2693 H2698 0.984 . S
N2693 H2699 0.985 . S
C2694 C2688 1.379 . S
C2694 C2691 1.363 . S
C2694 N2692 1.356 . S
C2695 C2689 1.363 . S
C2695 C2690 1.379 . S
C2695 N2693 1.356 . S
N2696 C2688 1.356 . S
N2696 H2702 0.984 . S
N2696 H2703 0.984 . S
N2697 C2690 1.356 . S
N2697 H2700 0.984 . S
N2697 H2701 0.985 . S
H2698 N2693 0.984 . S
H2699 N2693 0.985 . S
H2700 N2697 0.984 . S
H2701 N2697 0.985 . S
H2702 N2696 0.984 . S
H2703 N2696 0.984 . S
H2704 N2692 0.984 . S
H2705 N2692 0.985 . S
C2706 C2707 1.363 . S
C2706 C2712 1.379 . S
C2706 N2714 1.356 . S
C2707 C2706 1.363 . S
C2707 C2713 1.363 . S
C2708 C2709 1.363 . S
C2708 C2713 1.379 . S
C2708 N2715 1.356 . S
C2709 C2708 1.363 . S
C2709 C2712 1.363 . S
N2710 C2712 1.356 . S
N2710 H2722 0.984 . S
N2710 H2723 0.985 . S
N2711 C2713 1.356 . S
N2711 H2716 0.984 . S
N2711 H2717 0.985 . S
C2712 C2706 1.379 . S
C2712 C2709 1.363 . S
C2712 N2710 1.356 . S
C2713 C2707 1.363 . S
C2713 C2708 1.379 . S
C2713 N2711 1.356 . S
N2714 C2706 1.356 . S
N2714 H2720 0.984 . S
N2714 H2721 0.984 . S
N2715 C2708 1.356 . S
N2715 H2718 0.984 . S
N2715 H2719 0.985 . S
H2716 N2711 0.984 . S
H2717 N2711 0.985 . S
H2718 N2715 0.984 . S
H2719 N2715 0.985 . S
H2720 N2714 0.984 . S
H2721 N2714 0.984 . S
H2722 N2710 0.984 . S
H2723 N2710 0.985 . S
C2724 C2725 1.363 . S
C2724 C2730 1.379 . S
C2724 N2732 1.356 . S
C2725 C2724 1.363 . S
C2725 C2731 1.363 . S
C2726 C2727 1.363 . S
C2726 C2731 1.379 . S
C2726 N2733 1.356 . S
C2727 C2726 1.363 . S
C2727 C2730 1.363 . S
N2728 C2730 1.356 . S
N2728 H2740 0.984 . S
N2728 H2741 0.985 . S
N2729 C2731 1.356 . S
N2729 H2734 0.984 1_655 S
N2729 H2735 0.985 1_655 S
C2730 C2724 1.379 . S
C2730 C2727 1.363 . S
C2730 N2728 1.356 . S
C2731 C2725 1.363 . S
C2731 C2726 1.379 . S
C2731 N2729 1.356 . S
N2732 C2724 1.356 . S
N2732 H2738 0.984 . S
N2732 H2739 0.984 . S
N2733 C2726 1.356 . S
N2733 H2736 0.984 . S
N2733 H2737 0.985 . S
H2734 N2729 0.984 1_455 S
H2735 N2729 0.985 1_455 S
H2736 N2733 0.984 . S
H2737 N2733 0.985 . S
H2738 N2732 0.984 . S
H2739 N2732 0.984 . S
H2740 N2728 0.984 . S
H2741 N2728 0.985 . S
C2742 C2743 1.363 . S
C2742 C2748 1.379 . S
C2742 N2750 1.356 . S
C2743 C2742 1.363 . S
C2743 C2749 1.363 . S
C2744 C2745 1.363 . S
C2744 C2749 1.379 . S
C2744 N2751 1.356 . S
C2745 C2744 1.363 . S
C2745 C2748 1.363 . S
N2746 C2748 1.356 . S
N2746 H2758 0.984 . S
N2746 H2759 0.985 . S
N2747 C2749 1.356 . S
N2747 H2752 0.984 1_565 S
N2747 H2753 0.985 1_565 S
C2748 C2742 1.379 . S
C2748 C2745 1.363 . S
C2748 N2746 1.356 . S
C2749 C2743 1.363 . S
C2749 C2744 1.379 . S
C2749 N2747 1.356 . S
N2750 C2742 1.356 . S
N2750 H2756 0.984 . S
N2750 H2757 0.984 . S
N2751 C2744 1.356 . S
N2751 H2754 0.984 . S
N2751 H2755 0.985 . S
H2752 N2747 0.984 1_545 S
H2753 N2747 0.985 1_545 S
H2754 N2751 0.984 . S
H2755 N2751 0.985 . S
H2756 N2750 0.984 . S
H2757 N2750 0.984 . S
H2758 N2746 0.984 . S
H2759 N2746 0.985 . S
C2760 C2761 1.363 . S
C2760 C2766 1.379 . S
C2760 N2768 1.356 . S
C2761 C2760 1.363 . S
C2761 C2767 1.363 . S
C2762 C2763 1.363 . S
C2762 C2767 1.379 . S
C2762 N2769 1.356 . S
C2763 C2762 1.363 . S
C2763 C2766 1.363 . S
N2764 C2766 1.356 . S
N2764 H2776 0.984 . S
N2764 H2777 0.985 . S
N2765 C2767 1.356 . S
N2765 H2770 0.984 . S
N2765 H2771 0.985 . S
C2766 C2760 1.379 . S
C2766 C2763 1.363 . S
C2766 N2764 1.356 . S
C2767 C2761 1.363 . S
C2767 C2762 1.379 . S
C2767 N2765 1.356 . S
N2768 C2760 1.356 . S
N2768 H2774 0.984 . S
N2768 H2775 0.984 . S
N2769 C2762 1.356 . S
N2769 H2772 0.984 . S
N2769 H2773 0.985 . S
H2770 N2765 0.984 . S
H2771 N2765 0.985 . S
H2772 N2769 0.984 . S
H2773 N2769 0.985 . S
H2774 N2768 0.984 . S
H2775 N2768 0.984 . S
H2776 N2764 0.984 . S
H2777 N2764 0.985 . S
C2778 C2779 1.363 . S
C2778 C2784 1.379 . S
C2778 N2786 1.356 . S
C2779 C2778 1.363 . S
C2779 C2785 1.363 . S
C2780 C2781 1.363 . S
C2780 C2785 1.379 . S
C2780 N2787 1.356 . S
C2781 C2780 1.363 . S
C2781 C2784 1.363 . S
N2782 C2784 1.356 . S
N2782 H2794 0.984 . S
N2782 H2795 0.985 . S
N2783 C2785 1.356 . S
N2783 H2788 0.984 . S
N2783 H2789 0.985 . S
C2784 C2778 1.379 . S
C2784 C2781 1.363 . S
C2784 N2782 1.356 . S
C2785 C2779 1.363 . S
C2785 C2780 1.379 . S
C2785 N2783 1.356 . S
N2786 C2778 1.356 . S
N2786 H2792 0.984 . S
N2786 H2793 0.984 . S
N2787 C2780 1.356 . S
N2787 H2790 0.984 . S
N2787 H2791 0.985 . S
H2788 N2783 0.984 . S
H2789 N2783 0.985 . S
H2790 N2787 0.984 . S
H2791 N2787 0.985 . S
H2792 N2786 0.984 . S
H2793 N2786 0.984 . S
H2794 N2782 0.984 . S
H2795 N2782 0.985 . S
C2796 C2797 1.363 . S
C2796 C2802 1.379 . S
C2796 N2804 1.356 . S
C2797 C2796 1.363 . S
C2797 C2803 1.363 . S
C2798 C2799 1.363 . S
C2798 C2803 1.379 . S
C2798 N2805 1.356 . S
C2799 C2798 1.363 . S
C2799 C2802 1.363 . S
N2800 C2802 1.356 . S
N2800 H2812 0.984 . S
N2800 H2813 0.985 . S
N2801 C2803 1.356 . S
N2801 H2806 0.984 . S
N2801 H2807 0.985 . S
C2802 C2796 1.379 . S
C2802 C2799 1.363 . S
C2802 N2800 1.356 . S
C2803 C2797 1.363 . S
C2803 C2798 1.379 . S
C2803 N2801 1.356 . S
N2804 C2796 1.356 . S
N2804 H2810 0.984 1_655 S
N2804 H2811 0.981 1_655 S
N2805 C2798 1.356 . S
N2805 H2808 0.984 . S
N2805 H2809 0.985 . S
H2806 N2801 0.984 . S
H2807 N2801 0.985 . S
H2808 N2805 0.984 . S
H2809 N2805 0.985 . S
H2810 N2804 0.984 1_455 S
H2811 N2804 0.981 1_455 S
H2812 N2800 0.984 . S
H2813 N2800 0.985 . S
C2814 C2815 1.363 . S
C2814 C2820 1.379 . S
C2814 N2822 1.356 . S
C2815 C2814 1.363 . S
C2815 C2821 1.363 . S
C2816 C2817 1.363 . S
C2816 C2821 1.379 . S
C2816 N2823 1.356 . S
C2817 C2816 1.363 . S
C2817 C2820 1.363 . S
N2818 C2820 1.356 . S
N2818 H2830 0.984 . S
N2818 H2831 0.985 . S
N2819 C2821 1.356 1_545 S
N2819 H2824 0.984 . S
N2819 H2825 0.985 . S
C2820 C2814 1.379 . S
C2820 C2817 1.363 . S
C2820 N2818 1.356 . S
C2821 C2815 1.363 . S
C2821 C2816 1.379 . S
C2821 N2819 1.356 1_565 S
N2822 C2814 1.356 . S
N2822 H2828 0.984 . S
N2822 H2829 0.984 1_565 S
N2823 C2816 1.356 . S
N2823 H2826 0.984 . S
N2823 H2827 0.985 . S
H2824 N2819 0.984 . S
H2825 N2819 0.985 . S
H2826 N2823 0.984 . S
H2827 N2823 0.985 . S
H2828 N2822 0.984 . S
H2829 N2822 0.984 1_545 S
H2830 N2818 0.984 . S
H2831 N2818 0.985 . S
C2832 C2833 1.363 . S
C2832 C2838 1.379 . S
C2832 N2840 1.356 . S
C2833 C2832 1.363 . S
C2833 C2839 1.363 . S
C2834 C2835 1.363 . S
C2834 C2839 1.379 . S
C2834 N2841 1.356 . S
C2835 C2834 1.363 . S
C2835 C2838 1.363 . S
N2836 C2838 1.356 . S
N2836 H2848 0.984 . S
N2836 H2849 0.985 . S
N2837 C2839 1.356 . S
N2837 H2842 0.984 . S
N2837 H2843 0.985 . S
C2838 C2832 1.379 . S
C2838 C2835 1.363 . S
C2838 N2836 1.356 . S
C2839 C2833 1.363 . S
C2839 C2834 1.379 . S
C2839 N2837 1.356 . S
N2840 C2832 1.356 . S
N2840 H2846 0.984 . S
N2840 H2847 0.984 . S
N2841 C2834 1.356 . S
N2841 H2844 0.984 . S
N2841 H2845 0.985 . S
H2842 N2837 0.984 . S
H2843 N2837 0.985 . S
H2844 N2841 0.984 . S
H2845 N2841 0.985 . S
H2846 N2840 0.984 . S
H2847 N2840 0.984 . S
H2848 N2836 0.984 . S
H2849 N2836 0.985 . S
C2850 C2851 1.363 . S
C2850 C2856 1.379 . S
C2850 N2858 1.356 . S
C2851 C2850 1.363 . S
C2851 C2857 1.363 . S
C2852 C2853 1.363 . S
C2852 C2857 1.379 . S
C2852 N2859 1.356 . S
C2853 C2852 1.363 . S
C2853 C2856 1.363 . S
N2854 C2856 1.356 . S
N2854 H2866 0.984 . S
N2854 H2867 0.985 . S
N2855 C2857 1.356 . S
N2855 H2860 0.984 . S
N2855 H2861 0.985 . S
C2856 C2850 1.379 . S
C2856 C2853 1.363 . S
C2856 N2854 1.356 . S
C2857 C2851 1.363 . S
C2857 C2852 1.379 . S
C2857 N2855 1.356 . S
N2858 C2850 1.356 . S
N2858 H2864 0.984 . S
N2858 H2865 0.984 . S
N2859 C2852 1.356 . S
N2859 H2862 0.984 . S
N2859 H2863 0.985 . S
H2860 N2855 0.984 . S
H2861 N2855 0.985 . S
H2862 N2859 0.984 . S
H2863 N2859 0.985 . S
H2864 N2858 0.984 . S
H2865 N2858 0.984 . S
H2866 N2854 0.984 . S
H2867 N2854 0.985 . S
C2868 C2869 1.363 . S
C2868 C2874 1.379 . S
C2868 N2876 1.356 . S
C2869 C2868 1.363 . S
C2869 C2875 1.363 . S
C2870 C2871 1.363 . S
C2870 C2875 1.379 . S
C2870 N2877 1.356 . S
C2871 C2870 1.363 . S
C2871 C2874 1.363 . S
N2872 C2874 1.356 . S
N2872 H2884 0.984 . S
N2872 H2885 0.985 . S
N2873 C2875 1.356 . S
N2873 H2878 0.984 . S
N2873 H2879 0.985 . S
C2874 C2868 1.379 . S
C2874 C2871 1.363 . S
C2874 N2872 1.356 . S
C2875 C2869 1.363 . S
C2875 C2870 1.379 . S
C2875 N2873 1.356 . S
N2876 C2868 1.356 . S
N2876 H2882 0.984 1_565 S
N2876 H2883 0.984 1_565 S
N2877 C2870 1.356 . S
N2877 H2880 0.984 . S
N2877 H2881 0.985 . S
H2878 N2873 0.984 . S
H2879 N2873 0.985 . S
H2880 N2877 0.984 . S
H2881 N2877 0.985 . S
H2882 N2876 0.984 1_545 S
H2883 N2876 0.984 1_545 S
H2884 N2872 0.984 . S
H2885 N2872 0.985 . S
C2886 C2887 1.363 . S
C2886 C2892 1.379 . S
C2886 N2894 1.356 . S
C2887 C2886 1.363 . S
C2887 C2893 1.363 . S
C2888 C2889 1.363 . S
C2888 C2893 1.379 . S
C2888 N2895 1.356 . S
C2889 C2888 1.363 . S
C2889 C2892 1.363 . S
N2890 C2892 1.356 . S
N2890 H2902 0.984 . S
N2890 H2903 0.985 . S
N2891 C2893 1.356 . S
N2891 H2896 0.984 . S
N2891 H2897 0.985 . S
C2892 C2886 1.379 . S
C2892 C2889 1.363 . S
C2892 N2890 1.356 . S
C2893 C2887 1.363 . S
C2893 C2888 1.379 . S
C2893 N2891 1.356 . S
N2894 C2886 1.356 . S
N2894 H2900 0.984 . S
N2894 H2901 0.984 . S
N2895 C2888 1.356 . S
N2895 H2898 0.984 . S
N2895 H2899 0.985 . S
H2896 N2891 0.984 . S
H2897 N2891 0.985 . S
H2898 N2895 0.984 . S
H2899 N2895 0.985 . S
H2900 N2894 0.984 . S
H2901 N2894 0.984 . S
H2902 N2890 0.984 . S
H2903 N2890 0.985 . S
C2904 C2905 1.363 . S
C2904 C2910 1.379 . S
C2904 N2912 1.356 . S
C2905 C2904 1.363 . S
C2905 C2911 1.363 . S
C2906 C2907 1.363 . S
C2906 C2911 1.379 . S
C2906 N2913 1.356 . S
C2907 C2906 1.363 . S
C2907 C2910 1.363 . S
N2908 C2910 1.356 . S
N2908 H2920 0.984 . S
N2908 H2921 0.985 . S
N2909 C2911 1.356 . S
N2909 H2914 0.984 1_565 S
N2909 H2915 0.985 . S
C2910 C2904 1.379 . S
C2910 C2907 1.363 . S
C2910 N2908 1.356 . S
C2911 C2905 1.363 . S
C2911 C2906 1.379 . S
C2911 N2909 1.356 . S
N2912 C2904 1.356 . S
N2912 H2918 0.984 . S
N2912 H2919 0.984 . S
N2913 C2906 1.356 . S
N2913 H2916 0.984 . S
N2913 H2917 0.985 . S
H2914 N2909 0.984 1_545 S
H2915 N2909 0.985 . S
H2916 N2913 0.984 . S
H2917 N2913 0.985 . S
H2918 N2912 0.984 . S
H2919 N2912 0.984 . S
H2920 N2908 0.984 . S
H2921 N2908 0.985 . S
C2922 C2923 1.363 . S
C2922 C2928 1.379 . S
C2922 N2930 1.356 . S
C2923 C2922 1.363 . S
C2923 C2929 1.363 . S
C2924 C2925 1.363 . S
C2924 C2929 1.379 . S
C2924 N2931 1.356 . S
C2925 C2924 1.363 . S
C2925 C2928 1.363 . S
N2926 C2928 1.356 . S
N2926 H2938 0.984 . S
N2926 H2939 0.985 . S
N2927 C2929 1.356 . S
N2927 H2932 0.984 . S
N2927 H2933 0.985 . S
C2928 C2922 1.379 . S
C2928 C2925 1.363 . S
C2928 N2926 1.356 . S
C2929 C2923 1.363 . S
C2929 C2924 1.379 . S
C2929 N2927 1.356 . S
N2930 C2922 1.356 . S
N2930 H2936 0.984 . S
N2930 H2937 0.984 . S
N2931 C2924 1.356 . S
N2931 H2934 0.984 . S
N2931 H2935 0.985 . S
H2932 N2927 0.984 . S
H2933 N2927 0.985 . S
H2934 N2931 0.984 . S
H2935 N2931 0.985 . S
H2936 N2930 0.984 . S
H2937 N2930 0.984 . S
H2938 N2926 0.984 . S
H2939 N2926 0.985 . S
C2940 C2941 1.363 . S
C2940 C2946 1.379 . S
C2940 N2948 1.356 . S
C2941 C2940 1.363 . S
C2941 C2947 1.363 . S
C2942 C2943 1.363 . S
C2942 C2947 1.379 . S
C2942 N2949 1.356 . S
C2943 C2942 1.363 . S
C2943 C2946 1.363 . S
N2944 C2946 1.356 . S
N2944 H2956 0.984 . S
N2944 H2957 0.985 . S
N2945 C2947 1.356 . S
N2945 H2950 0.984 . S
N2945 H2951 0.985 . S
C2946 C2940 1.379 . S
C2946 C2943 1.363 . S
C2946 N2944 1.356 . S
C2947 C2941 1.363 . S
C2947 C2942 1.379 . S
C2947 N2945 1.356 . S
N2948 C2940 1.356 . S
N2948 H2954 0.984 . S
N2948 H2955 0.984 . S
N2949 C2942 1.356 . S
N2949 H2952 0.984 . S
N2949 H2953 0.985 . S
H2950 N2945 0.984 . S
H2951 N2945 0.985 . S
H2952 N2949 0.984 . S
H2953 N2949 0.985 . S
H2954 N2948 0.984 . S
H2955 N2948 0.984 . S
H2956 N2944 0.984 . S
H2957 N2944 0.985 . S
C2958 C2959 1.363 . S
C2958 C2964 1.379 . S
C2958 N2966 1.356 . S
C2959 C2958 1.363 . S
C2959 C2965 1.363 . S
C2960 C2961 1.363 . S
C2960 C2965 1.379 . S
C2960 N2967 1.356 . S
C2961 C2960 1.363 . S
C2961 C2964 1.363 . S
N2962 C2964 1.356 . S
N2962 H2974 0.984 . S
N2962 H2975 0.985 . S
N2963 C2965 1.356 . S
N2963 H2968 0.984 . S
N2963 H2969 0.985 . S
C2964 C2958 1.379 . S
C2964 C2961 1.363 . S
C2964 N2962 1.356 . S
C2965 C2959 1.363 . S
C2965 C2960 1.379 . S
C2965 N2963 1.356 . S
N2966 C2958 1.356 . S
N2966 H2972 0.984 . S
N2966 H2973 0.984 . S
N2967 C2960 1.356 . S
N2967 H2970 0.984 . S
N2967 H2971 0.985 . S
H2968 N2963 0.984 . S
H2969 N2963 0.985 . S
H2970 N2967 0.984 . S
H2971 N2967 0.985 . S
H2972 N2966 0.984 . S
H2973 N2966 0.984 . S
H2974 N2962 0.984 . S
H2975 N2962 0.985 . S
C2976 C2977 1.363 . S
C2976 C2982 1.379 . S
C2976 N2984 1.356 . S
C2977 C2976 1.363 . S
C2977 C2983 1.363 . S
C2978 C2979 1.363 . S
C2978 C2983 1.379 . S
C2978 N2985 1.356 . S
C2979 C2978 1.363 . S
C2979 C2982 1.363 . S
N2980 C2982 1.356 . S
N2980 H2992 0.984 . S
N2980 H2993 0.985 . S
N2981 C2983 1.356 . S
N2981 H2986 0.984 . S
N2981 H2987 0.985 . S
C2982 C2976 1.379 . S
C2982 C2979 1.363 . S
C2982 N2980 1.356 . S
C2983 C2977 1.363 . S
C2983 C2978 1.379 . S
C2983 N2981 1.356 . S
N2984 C2976 1.356 . S
N2984 H2990 0.984 . S
N2984 H2991 0.984 . S
N2985 C2978 1.356 . S
N2985 H2988 0.984 . S
N2985 H2989 0.985 . S
H2986 N2981 0.984 . S
H2987 N2981 0.985 . S
H2988 N2985 0.984 . S
H2989 N2985 0.985 . S
H2990 N2984 0.984 . S
H2991 N2984 0.984 . S
H2992 N2980 0.984 . S
H2993 N2980 0.985 . S
C2994 C2995 1.363 . S
C2994 C3000 1.379 . S
C2994 N3002 1.356 . S
C2995 C2994 1.363 . S
C2995 C3001 1.363 . S
C2996 C2997 1.363 . S
C2996 C3001 1.379 . S
C2996 N3003 1.356 . S
C2997 C2996 1.363 . S
C2997 C3000 1.363 . S
N2998 C3000 1.356 . S
N2998 H3010 0.984 . S
N2998 H3011 0.985 . S
N2999 C3001 1.356 . S
N2999 H3004 0.984 1_556 S
N2999 H3005 0.985 1_556 S
C3000 C2994 1.379 . S
C3000 C2997 1.363 . S
C3000 N2998 1.356 . S
C3001 C2995 1.363 . S
C3001 C2996 1.379 . S
C3001 N2999 1.356 . S
N3002 C2994 1.356 . S
N3002 H3008 0.984 . S
N3002 H3009 0.984 . S
N3003 C2996 1.356 . S
N3003 H3006 0.984 . S
N3003 H3007 0.985 . S
H3004 N2999 0.984 1_554 S
H3005 N2999 0.985 1_554 S
H3006 N3003 0.984 . S
H3007 N3003 0.985 . S
H3008 N3002 0.984 . S
H3009 N3002 0.984 . S
H3010 N2998 0.984 . S
H3011 N2998 0.985 . S
C3012 C3013 1.363 . S
C3012 C3018 1.379 . S
C3012 N3020 1.356 1_556 S
C3013 C3012 1.363 . S
C3013 C3019 1.363 . S
C3014 C3015 1.363 . S
C3014 C3019 1.379 . S
C3014 N3021 1.356 . S
C3015 C3014 1.363 . S
C3015 C3018 1.363 . S
N3016 C3018 1.356 . S
N3016 H3028 0.984 . S
N3016 H3029 0.985 . S
N3017 C3019 1.356 . S
N3017 H3022 0.984 . S
N3017 H3023 0.985 . S
C3018 C3012 1.379 . S
C3018 C3015 1.363 . S
C3018 N3016 1.356 . S
C3019 C3013 1.363 . S
C3019 C3014 1.379 . S
C3019 N3017 1.356 . S
N3020 C3012 1.356 1_554 S
N3020 H3026 0.984 . S
N3020 H3027 0.984 . S
N3021 C3014 1.356 . S
N3021 H3024 0.984 . S
N3021 H3025 0.985 . S
H3022 N3017 0.984 . S
H3023 N3017 0.985 . S
H3024 N3021 0.984 . S
H3025 N3021 0.985 . S
H3026 N3020 0.984 . S
H3027 N3020 0.984 . S
H3028 N3016 0.984 . S
H3029 N3016 0.985 . S
C3030 C3031 1.363 . S
C3030 C3036 1.379 . S
C3030 N3038 1.356 . S
C3031 C3030 1.363 . S
C3031 C3037 1.363 . S
C3032 C3033 1.363 . S
C3032 C3037 1.379 . S
C3032 N3039 1.356 . S
C3033 C3032 1.363 . S
C3033 C3036 1.363 . S
N3034 C3036 1.356 . S
N3034 H3046 0.984 . S
N3034 H3047 0.985 . S
N3035 C3037 1.356 1_554 S
N3035 H3040 0.984 . S
N3035 H3041 0.985 . S
C3036 C3030 1.379 . S
C3036 C3033 1.363 . S
C3036 N3034 1.356 . S
C3037 C3031 1.363 . S
C3037 C3032 1.379 . S
C3037 N3035 1.356 1_556 S
N3038 C3030 1.356 . S
N3038 H3044 0.984 . S
N3038 H3045 0.984 . S
N3039 C3032 1.356 . S
N3039 H3042 0.984 . S
N3039 H3043 0.985 . S
H3040 N3035 0.984 . S
H3041 N3035 0.985 . S
H3042 N3039 0.984 . S
H3043 N3039 0.985 . S
H3044 N3038 0.984 . S
H3045 N3038 0.984 . S
H3046 N3034 0.984 . S
H3047 N3034 0.985 . S
C3048 C3049 1.363 . S
C3048 C3054 1.379 . S
C3048 N3056 1.356 . S
C3049 C3048 1.363 . S
C3049 C3055 1.363 . S
C3050 C3051 1.363 . S
C3050 C3055 1.379 . S
C3050 N3057 1.356 . S
C3051 C3050 1.363 . S
C3051 C3054 1.363 . S
N3052 C3054 1.356 . S
N3052 H3064 0.984 . S
N3052 H3065 0.985 . S
N3053 C3055 1.356 . S
N3053 H3058 1.002 . S
N3053 H3059 0.985 . S
C3054 C3048 1.379 . S
C3054 C3051 1.363 . S
C3054 N3052 1.356 . S
C3055 C3049 1.363 . S
C3055 C3050 1.379 . S
C3055 N3053 1.356 . S
N3056 C3048 1.356 . S
N3056 H3062 0.984 . S
N3056 H3063 0.984 . S
N3057 C3050 1.356 . S
N3057 H3060 0.984 . S
N3057 H3061 0.985 . S
H3058 N3053 1.002 . S
H3059 N3053 0.985 . S
H3060 N3057 0.984 . S
H3061 N3057 0.985 . S
H3062 N3056 0.984 . S
H3063 N3056 0.984 . S
H3064 N3052 0.984 . S
H3065 N3052 0.985 . S
C3066 C3067 1.363 . S
C3066 C3072 1.379 . S
C3066 N3074 1.356 . S
C3067 C3066 1.363 . S
C3067 C3073 1.363 . S
C3068 C3069 1.363 . S
C3068 C3073 1.379 . S
C3068 N3075 1.356 . S
C3069 C3068 1.363 . S
C3069 C3072 1.363 . S
N3070 C3072 1.356 . S
N3070 H3082 0.984 . S
N3070 H3083 0.985 . S
N3071 C3073 1.356 . S
N3071 H3076 0.984 . S
N3071 H3077 0.985 . S
C3072 C3066 1.379 . S
C3072 C3069 1.363 . S
C3072 N3070 1.356 . S
C3073 C3067 1.363 . S
C3073 C3068 1.379 . S
C3073 N3071 1.356 . S
N3074 C3066 1.356 . S
N3074 H3080 0.984 . S
N3074 H3081 0.984 . S
N3075 C3068 1.356 . S
N3075 H3078 0.984 . S
N3075 H3079 0.985 . S
H3076 N3071 0.984 . S
H3077 N3071 0.985 . S
H3078 N3075 0.984 . S
H3079 N3075 0.985 . S
H3080 N3074 0.984 . S
H3081 N3074 0.984 . S
H3082 N3070 0.984 . S
H3083 N3070 0.985 . S
C3084 C3085 1.363 . S
C3084 C3090 1.379 . S
C3084 N3092 1.356 . S
C3085 C3084 1.363 . S
C3085 C3091 1.363 . S
C3086 C3087 1.363 . S
C3086 C3091 1.379 . S
C3086 N3093 1.356 . S
C3087 C3086 1.363 . S
C3087 C3090 1.363 . S
N3088 C3090 1.356 . S
N3088 H3100 0.984 . S
N3088 H3101 0.985 . S
N3089 C3091 1.356 . S
N3089 H3094 0.984 . S
N3089 H3095 0.985 . S
C3090 C3084 1.379 . S
C3090 C3087 1.363 . S
C3090 N3088 1.356 . S
C3091 C3085 1.363 . S
C3091 C3086 1.379 . S
C3091 N3089 1.356 . S
N3092 C3084 1.356 . S
N3092 H3098 0.984 . S
N3092 H3099 0.984 . S
N3093 C3086 1.356 . S
N3093 H3096 0.984 . S
N3093 H3097 0.985 . S
H3094 N3089 0.984 . S
H3095 N3089 0.985 . S
H3096 N3093 0.984 . S
H3097 N3093 0.985 . S
H3098 N3092 0.984 . S
H3099 N3092 0.984 . S
H3100 N3088 0.984 . S
H3101 N3088 0.985 . S
C3102 C3103 1.363 . S
C3102 C3108 1.379 . S
C3102 N3110 1.356 . S
C3103 C3102 1.363 . S
C3103 C3109 1.363 . S
C3104 C3105 1.363 . S
C3104 C3109 1.379 . S
C3104 N3111 1.356 . S
C3105 C3104 1.363 . S
C3105 C3108 1.363 . S
N3106 C3108 1.356 . S
N3106 H3118 0.984 . S
N3106 H3119 0.985 . S
N3107 C3109 1.356 . S
N3107 H3112 0.984 . S
N3107 H3113 0.985 . S
C3108 C3102 1.379 . S
C3108 C3105 1.363 . S
C3108 N3106 1.356 . S
C3109 C3103 1.363 . S
C3109 C3104 1.379 . S
C3109 N3107 1.356 . S
N3110 C3102 1.356 . S
N3110 H3116 0.984 . S
N3110 H3117 0.984 . S
N3111 C3104 1.356 . S
N3111 H3114 0.984 . S
N3111 H3115 0.985 . S
H3112 N3107 0.984 . S
H3113 N3107 0.985 . S
H3114 N3111 0.984 . S
H3115 N3111 0.985 . S
H3116 N3110 0.984 . S
H3117 N3110 0.984 . S
H3118 N3106 0.984 . S
H3119 N3106 0.985 . S
C3120 C3121 1.363 . S
C3120 C3126 1.379 . S
C3120 N3128 1.356 . S
C3121 C3120 1.363 . S
C3121 C3127 1.363 . S
C3122 C3123 1.363 . S
C3122 C3127 1.379 . S
C3122 N3129 1.356 . S
C3123 C3122 1.363 . S
C3123 C3126 1.363 . S
N3124 C3126 1.356 . S
N3124 H3136 0.984 . S
N3124 H3137 0.985 . S
N3125 C3127 1.356 . S
N3125 H3130 0.984 . S
N3125 H3131 0.985 . S
C3126 C3120 1.379 . S
C3126 C3123 1.363 . S
C3126 N3124 1.356 . S
C3127 C3121 1.363 . S
C3127 C3122 1.379 . S
C3127 N3125 1.356 . S
N3128 C3120 1.356 . S
N3128 H3134 0.984 1_655 S
N3128 H3135 0.984 1_655 S
N3129 C3122 1.356 . S
N3129 H3132 0.984 . S
N3129 H3133 0.985 . S
H3130 N3125 0.984 . S
H3131 N3125 0.985 . S
H3132 N3129 0.984 . S
H3133 N3129 0.985 . S
H3134 N3128 0.984 1_455 S
H3135 N3128 0.984 1_455 S
H3136 N3124 0.984 . S
H3137 N3124 0.985 . S
C3138 C3139 1.363 . S
C3138 C3144 1.379 . S
C3138 N3146 1.356 1_565 S
C3139 C3138 1.363 . S
C3139 C3145 1.363 . S
C3140 C3141 1.363 . S
C3140 C3145 1.379 . S
C3140 N3147 1.356 . S
C3141 C3140 1.363 . S
C3141 C3144 1.363 . S
N3142 C3144 1.356 . S
N3142 H3154 0.984 . S
N3142 H3155 0.985 . S
N3143 C3145 1.356 . S
N3143 H3148 0.984 . S
N3143 H3149 0.985 . S
C3144 C3138 1.379 . S
C3144 C3141 1.363 . S
C3144 N3142 1.356 . S
C3145 C3139 1.363 . S
C3145 C3140 1.379 . S
C3145 N3143 1.356 . S
N3146 C3138 1.356 1_545 S
N3146 H3152 0.984 . S
N3146 H3153 0.984 . S
N3147 C3140 1.356 . S
N3147 H3150 0.984 . S
N3147 H3151 0.985 . S
H3148 N3143 0.984 . S
H3149 N3143 0.985 . S
H3150 N3147 0.984 . S
H3151 N3147 0.985 . S
H3152 N3146 0.984 . S
H3153 N3146 0.984 . S
H3154 N3142 0.984 . S
H3155 N3142 0.985 . S
C3156 C3157 1.363 . S
C3156 C3162 1.379 . S
C3156 N3164 1.356 . S
C3157 C3156 1.363 . S
C3157 C3163 1.363 . S
C3158 C3159 1.363 . S
C3158 C3163 1.379 . S
C3158 N3165 1.356 . S
C3159 C3158 1.363 . S
C3159 C3162 1.363 . S
N3160 C3162 1.356 . S
N3160 H3172 0.984 . S
N3160 H3173 0.985 . S
N3161 C3163 1.356 . S
N3161 H3166 0.984 . S
N3161 H3167 0.985 . S
C3162 C3156 1.379 . S
C3162 C3159 1.363 . S
C3162 N3160 1.356 . S
C3163 C3157 1.363 . S
C3163 C3158 1.379 . S
C3163 N3161 1.356 . S
N3164 C3156 1.356 . S
N3164 H3170 0.984 . S
N3164 H3171 0.984 . S
N3165 C3158 1.356 . S
N3165 H3168 0.984 . S
N3165 H3169 0.985 . S
H3166 N3161 0.984 . S
H3167 N3161 0.985 . S
H3168 N3165 0.984 . S
H3169 N3165 0.985 . S
H3170 N3164 0.984 . S
H3171 N3164 0.984 . S
H3172 N3160 0.984 . S
H3173 N3160 0.985 . S
C3174 C3175 1.363 . S
C3174 C3180 1.379 . S
C3174 N3182 1.356 . S
C3175 C3174 1.363 . S
C3175 C3181 1.363 . S
C3176 C3177 1.363 . S
C3176 C3181 1.379 . S
C3176 N3183 1.356 . S
C3177 C3176 1.363 . S
C3177 C3180 1.363 . S
N3178 C3180 1.356 . S
N3178 H3190 0.984 . S
N3178 H3191 0.985 . S
N3179 C3181 1.356 . S
N3179 H3184 0.984 . S
N3179 H3185 0.985 . S
C3180 C3174 1.379 . S
C3180 C3177 1.363 . S
C3180 N3178 1.356 . S
C3181 C3175 1.363 . S
C3181 C3176 1.379 . S
C3181 N3179 1.356 . S
N3182 C3174 1.356 . S
N3182 H3188 0.984 . S
N3182 H3189 0.984 . S
N3183 C3176 1.356 . S
N3183 H3186 0.984 . S
N3183 H3187 0.985 . S
H3184 N3179 0.984 . S
H3185 N3179 0.985 . S
H3186 N3183 0.984 . S
H3187 N3183 0.985 . S
H3188 N3182 0.984 . S
H3189 N3182 0.984 . S
H3190 N3178 0.984 . S
H3191 N3178 0.985 . S
C3192 C3193 1.363 . S
C3192 C3198 1.379 . S
C3192 N3200 1.356 . S
C3193 C3192 1.363 . S
C3193 C3199 1.363 . S
C3194 C3195 1.363 . S
C3194 C3199 1.379 . S
C3194 N3201 1.356 . S
C3195 C3194 1.363 . S
C3195 C3198 1.363 . S
N3196 C3198 1.356 . S
N3196 H3208 0.984 . S
N3196 H3209 0.985 . S
N3197 C3199 1.356 . S
N3197 H3202 0.984 . S
N3197 H3203 0.985 . S
C3198 C3192 1.379 . S
C3198 C3195 1.363 . S
C3198 N3196 1.356 . S
C3199 C3193 1.363 . S
C3199 C3194 1.379 . S
C3199 N3197 1.356 . S
N3200 C3192 1.356 . S
N3200 H3206 0.984 . S
N3200 H3207 0.984 . S
N3201 C3194 1.356 . S
N3201 H3204 0.984 . S
N3201 H3205 0.985 . S
H3202 N3197 0.984 . S
H3203 N3197 0.985 . S
H3204 N3201 0.984 . S
H3205 N3201 0.985 . S
H3206 N3200 0.984 . S
H3207 N3200 0.984 . S
H3208 N3196 0.984 . S
H3209 N3196 0.985 . S
C3210 C3211 1.363 . S
C3210 C3216 1.379 . S
C3210 N3218 1.356 . S
C3211 C3210 1.363 . S
C3211 C3217 1.363 . S
C3212 C3213 1.363 . S
C3212 C3217 1.379 . S
C3212 N3219 1.356 . S
C3213 C3212 1.363 . S
C3213 C3216 1.363 . S
N3214 C3216 1.356 . S
N3214 H3226 0.984 . S
N3214 H3227 0.985 . S
N3215 C3217 1.356 . S
N3215 H3220 0.984 . S
N3215 H3221 0.985 . S
C3216 C3210 1.379 . S
C3216 C3213 1.363 . S
C3216 N3214 1.356 . S
C3217 C3211 1.363 . S
C3217 C3212 1.379 . S
C3217 N3215 1.356 . S
N3218 C3210 1.356 . S
N3218 H3224 0.984 . S
N3218 H3225 0.984 . S
N3219 C3212 1.356 . S
N3219 H3222 0.984 . S
N3219 H3223 0.985 . S
H3220 N3215 0.984 . S
H3221 N3215 0.985 . S
H3222 N3219 0.984 . S
H3223 N3219 0.985 . S
H3224 N3218 0.984 . S
H3225 N3218 0.984 . S
H3226 N3214 0.984 . S
H3227 N3214 0.985 . S
C3228 C3229 1.363 . S
C3228 C3234 1.379 . S
C3228 N3236 1.356 . S
C3229 C3228 1.363 . S
C3229 C3235 1.363 . S
C3230 C3231 1.363 . S
C3230 C3235 1.379 . S
C3230 N3237 1.356 . S
C3231 C3230 1.363 . S
C3231 C3234 1.363 . S
N3232 C3234 1.356 . S
N3232 H3244 0.984 . S
N3232 H3245 0.985 . S
N3233 C3235 1.356 . S
N3233 H3238 0.984 . S
N3233 H3239 0.985 . S
C3234 C3228 1.379 . S
C3234 C3231 1.363 . S
C3234 N3232 1.356 . S
C3235 C3229 1.363 . S
C3235 C3230 1.379 . S
C3235 N3233 1.356 . S
N3236 C3228 1.356 . S
N3236 H3242 0.984 . S
N3236 H3243 0.984 . S
N3237 C3230 1.356 . S
N3237 H3240 0.984 . S
N3237 H3241 0.985 . S
H3238 N3233 0.984 . S
H3239 N3233 0.985 . S
H3240 N3237 0.984 . S
H3241 N3237 0.985 . S
H3242 N3236 0.984 . S
H3243 N3236 0.984 . S
H3244 N3232 0.984 . S
H3245 N3232 0.985 . S
C3246 C3247 1.363 . S
C3246 C3252 1.379 . S
C3246 N3254 1.356 . S
C3247 C3246 1.363 . S
C3247 C3253 1.363 . S
C3248 C3249 1.363 . S
C3248 C3253 1.379 . S
C3248 N3255 1.356 . S
C3249 C3248 1.363 . S
C3249 C3252 1.363 . S
N3250 C3252 1.356 . S
N3250 H3262 0.984 . S
N3250 H3263 0.985 . S
N3251 C3253 1.356 . S
N3251 H3256 0.984 . S
N3251 H3257 0.985 . S
C3252 C3246 1.379 . S
C3252 C3249 1.363 . S
C3252 N3250 1.356 . S
C3253 C3247 1.363 . S
C3253 C3248 1.379 . S
C3253 N3251 1.356 . S
N3254 C3246 1.356 . S
N3254 H3260 0.984 . S
N3254 H3261 0.984 . S
N3255 C3248 1.356 . S
N3255 H3258 0.984 . S
N3255 H3259 0.985 . S
H3256 N3251 0.984 . S
H3257 N3251 0.985 . S
H3258 N3255 0.984 . S
H3259 N3255 0.985 . S
H3260 N3254 0.984 . S
H3261 N3254 0.984 . S
H3262 N3250 0.984 . S
H3263 N3250 0.985 . S
C3264 C3265 1.363 . S
C3264 C3270 1.379 . S
C3264 N3272 1.356 . S
C3265 C3264 1.363 . S
C3265 C3271 1.363 . S
C3266 C3267 1.363 . S
C3266 C3271 1.379 . S
C3266 N3273 1.356 . S
C3267 C3266 1.363 . S
C3267 C3270 1.363 . S
N3268 C3270 1.356 . S
N3268 H3280 0.984 . S
N3268 H3281 0.985 . S
N3269 C3271 1.356 . S
N3269 H3274 0.984 . S
N3269 H3275 0.985 . S
C3270 C3264 1.379 . S
C3270 C3267 1.363 . S
C3270 N3268 1.356 . S
C3271 C3265 1.363 . S
C3271 C3266 1.379 . S
C3271 N3269 1.356 . S
N3272 C3264 1.356 . S
N3272 H3278 0.984 . S
N3272 H3279 0.984 . S
N3273 C3266 1.356 . S
N3273 H3276 0.984 . S
N3273 H3277 0.985 . S
H3274 N3269 0.984 . S
H3275 N3269 0.985 . S
H3276 N3273 0.984 . S
H3277 N3273 0.985 . S
H3278 N3272 0.984 . S
H3279 N3272 0.984 . S
H3280 N3268 0.984 . S
H3281 N3268 0.985 . S
C3282 C3283 1.363 . S
C3282 C3288 1.379 . S
C3282 N3290 1.356 . S
C3283 C3282 1.363 . S
C3283 C3289 1.363 . S
C3284 C3285 1.363 . S
C3284 C3289 1.379 . S
C3284 N3291 1.356 . S
C3285 C3284 1.363 . S
C3285 C3288 1.363 . S
N3286 C3288 1.356 . S
N3286 H3298 0.984 . S
N3286 H3299 0.985 . S
N3287 C3289 1.356 . S
N3287 H3292 0.984 . S
N3287 H3293 0.985 . S
C3288 C3282 1.379 . S
C3288 C3285 1.363 . S
C3288 N3286 1.356 . S
C3289 C3283 1.363 . S
C3289 C3284 1.379 . S
C3289 N3287 1.356 . S
N3290 C3282 1.356 . S
N3290 H3296 0.984 . S
N3290 H3297 0.984 . S
N3291 C3284 1.356 . S
N3291 H3294 0.984 . S
N3291 H3295 0.985 . S
H3292 N3287 0.984 . S
H3293 N3287 0.985 . S
H3294 N3291 0.984 . S
H3295 N3291 0.985 . S
H3296 N3290 0.984 . S
H3297 N3290 0.984 . S
H3298 N3286 0.984 . S
H3299 N3286 0.985 . S
C3300 C3301 1.363 . S
C3300 C3306 1.379 . S
C3300 N3308 1.356 . S
C3301 C3300 1.363 . S
C3301 C3307 1.363 . S
C3302 C3303 1.363 . S
C3302 C3307 1.379 . S
C3302 N3309 1.356 . S
C3303 C3302 1.363 . S
C3303 C3306 1.363 . S
N3304 C3306 1.356 . S
N3304 H3316 0.984 . S
N3304 H3317 0.985 . S
N3305 C3307 1.356 . S
N3305 H3310 0.984 . S
N3305 H3311 0.985 . S
C3306 C3300 1.379 . S
C3306 C3303 1.363 . S
C3306 N3304 1.356 . S
C3307 C3301 1.363 . S
C3307 C3302 1.379 . S
C3307 N3305 1.356 . S
N3308 C3300 1.356 . S
N3308 H3314 0.984 . S
N3308 H3315 0.984 . S
N3309 C3302 1.356 . S
N3309 H3312 0.984 . S
N3309 H3313 0.985 . S
H3310 N3305 0.984 . S
H3311 N3305 0.985 . S
H3312 N3309 0.984 . S
H3313 N3309 0.985 . S
H3314 N3308 0.984 . S
H3315 N3308 0.984 . S
H3316 N3304 0.984 . S
H3317 N3304 0.985 . S
C3318 C3319 1.363 . S
C3318 C3324 1.379 . S
C3318 N3326 1.356 . S
C3319 C3318 1.363 . S
C3319 C3325 1.363 . S
C3320 C3321 1.363 . S
C3320 C3325 1.379 . S
C3320 N3327 1.356 . S
C3321 C3320 1.363 . S
C3321 C3324 1.363 . S
N3322 C3324 1.356 . S
N3322 H3334 0.984 . S
N3322 H3335 0.985 . S
N3323 C3325 1.356 . S
N3323 H3328 0.984 . S
N3323 H3329 0.985 . S
C3324 C3318 1.379 . S
C3324 C3321 1.363 . S
C3324 N3322 1.356 . S
C3325 C3319 1.363 . S
C3325 C3320 1.379 . S
C3325 N3323 1.356 . S
N3326 C3318 1.356 . S
N3326 H3332 0.984 . S
N3326 H3333 0.984 . S
N3327 C3320 1.356 . S
N3327 H3330 0.984 . S
N3327 H3331 0.985 . S
H3328 N3323 0.984 . S
H3329 N3323 0.985 . S
H3330 N3327 0.984 . S
H3331 N3327 0.985 . S
H3332 N3326 0.984 . S
H3333 N3326 0.984 . S
H3334 N3322 0.984 . S
H3335 N3322 0.985 . S
C3336 C3337 1.363 . S
C3336 C3342 1.379 . S
C3336 N3344 1.356 . S
C3337 C3336 1.363 . S
C3337 C3343 1.363 . S
C3338 C3339 1.363 . S
C3338 C3343 1.379 . S
C3338 N3345 1.356 . S
C3339 C3338 1.363 . S
C3339 C3342 1.363 . S
N3340 C3342 1.356 . S
N3340 H3352 0.984 . S
N3340 H3353 0.985 . S
N3341 C3343 1.356 . S
N3341 H3346 0.984 . S
N3341 H3347 0.985 . S
C3342 C3336 1.379 . S
C3342 C3339 1.363 . S
C3342 N3340 1.356 . S
C3343 C3337 1.363 . S
C3343 C3338 1.379 . S
C3343 N3341 1.356 . S
N3344 C3336 1.356 . S
N3344 H3350 0.984 . S
N3344 H3351 0.984 . S
N3345 C3338 1.356 . S
N3345 H3348 0.984 . S
N3345 H3349 0.985 . S
H3346 N3341 0.984 . S
H3347 N3341 0.985 . S
H3348 N3345 0.984 . S
H3349 N3345 0.985 . S
H3350 N3344 0.984 . S
H3351 N3344 0.984 . S
H3352 N3340 0.984 . S
H3353 N3340 0.985 . S
C3354 C3355 1.363 . S
C3354 C3360 1.379 . S
C3354 N3362 1.356 . S
C3355 C3354 1.363 . S
C3355 C3361 1.363 . S
C3356 C3357 1.363 . S
C3356 C3361 1.379 . S
C3356 N3363 1.356 . S
C3357 C3356 1.363 . S
C3357 C3360 1.363 . S
N3358 C3360 1.356 . S
N3358 H3370 0.984 . S
N3358 H3371 0.985 . S
N3359 C3361 1.356 . S
N3359 H3364 0.978 1_655 S
N3359 H3365 0.985 . S
C3360 C3354 1.379 . S
C3360 C3357 1.363 . S
C3360 N3358 1.356 . S
C3361 C3355 1.363 . S
C3361 C3356 1.379 . S
C3361 N3359 1.356 . S
N3362 C3354 1.356 . S
N3362 H3368 0.984 . S
N3362 H3369 0.984 . S
N3363 C3356 1.356 . S
N3363 H3366 0.984 . S
N3363 H3367 0.985 . S
H3364 N3359 0.978 1_455 S
H3365 N3359 0.985 . S
H3366 N3363 0.984 . S
H3367 N3363 0.985 . S
H3368 N3362 0.984 . S
H3369 N3362 0.984 . S
H3370 N3358 0.984 . S
H3371 N3358 0.985 . S
C3372 C3373 1.363 . S
C3372 C3378 1.379 . S
C3372 N3380 1.356 . S
C3373 C3372 1.363 . S
C3373 C3379 1.363 . S
C3374 C3375 1.363 . S
C3374 C3379 1.379 . S
C3374 N3381 1.356 . S
C3375 C3374 1.363 . S
C3375 C3378 1.363 . S
N3376 C3378 1.356 . S
N3376 H3388 0.984 . S
N3376 H3389 0.985 . S
N3377 C3379 1.356 . S
N3377 H3382 0.985 1_565 S
N3377 H3383 0.985 1_565 S
C3378 C3372 1.379 . S
C3378 C3375 1.363 . S
C3378 N3376 1.356 . S
C3379 C3373 1.363 . S
C3379 C3374 1.379 . S
C3379 N3377 1.356 . S
N3380 C3372 1.356 . S
N3380 H3386 0.984 . S
N3380 H3387 0.984 . S
N3381 C3374 1.356 . S
N3381 H3384 0.984 . S
N3381 H3385 0.985 . S
H3382 N3377 0.985 1_545 S
H3383 N3377 0.985 1_545 S
H3384 N3381 0.984 . S
H3385 N3381 0.985 . S
H3386 N3380 0.984 . S
H3387 N3380 0.984 . S
H3388 N3376 0.984 . S
H3389 N3376 0.985 . S
C3390 C3391 1.363 . S
C3390 C3396 1.379 . S
C3390 N3398 1.356 . S
C3391 C3390 1.363 . S
C3391 C3397 1.363 . S
C3392 C3393 1.363 . S
C3392 C3397 1.379 . S
C3392 N3399 1.356 . S
C3393 C3392 1.363 . S
C3393 C3396 1.363 . S
N3394 C3396 1.356 . S
N3394 H3406 0.984 . S
N3394 H3407 0.985 . S
N3395 C3397 1.356 . S
N3395 H3400 0.984 . S
N3395 H3401 0.985 . S
C3396 C3390 1.379 . S
C3396 C3393 1.363 . S
C3396 N3394 1.356 . S
C3397 C3391 1.363 . S
C3397 C3392 1.379 . S
C3397 N3395 1.356 . S
N3398 C3390 1.356 . S
N3398 H3404 0.984 . S
N3398 H3405 0.984 . S
N3399 C3392 1.356 . S
N3399 H3402 0.984 . S
N3399 H3403 0.985 . S
H3400 N3395 0.984 . S
H3401 N3395 0.985 . S
H3402 N3399 0.984 . S
H3403 N3399 0.985 . S
H3404 N3398 0.984 . S
H3405 N3398 0.984 . S
H3406 N3394 0.984 . S
H3407 N3394 0.985 . S
C3408 C3409 1.363 . S
C3408 C3414 1.379 . S
C3408 N3416 1.356 . S
C3409 C3408 1.363 . S
C3409 C3415 1.363 . S
C3410 C3411 1.363 . S
C3410 C3415 1.379 . S
C3410 N3417 1.356 . S
C3411 C3410 1.363 . S
C3411 C3414 1.363 . S
N3412 C3414 1.356 . S
N3412 H3424 0.984 . S
N3412 H3425 0.985 . S
N3413 C3415 1.356 . S
N3413 H3418 0.984 . S
N3413 H3419 0.985 . S
C3414 C3408 1.379 . S
C3414 C3411 1.363 . S
C3414 N3412 1.356 . S
C3415 C3409 1.363 . S
C3415 C3410 1.379 . S
C3415 N3413 1.356 . S
N3416 C3408 1.356 . S
N3416 H3422 0.984 . S
N3416 H3423 0.984 . S
N3417 C3410 1.356 . S
N3417 H3420 0.984 . S
N3417 H3421 0.985 . S
H3418 N3413 0.984 . S
H3419 N3413 0.985 . S
H3420 N3417 0.984 . S
H3421 N3417 0.985 . S
H3422 N3416 0.984 . S
H3423 N3416 0.984 . S
H3424 N3412 0.984 . S
H3425 N3412 0.985 . S
C3426 C3427 1.363 . S
C3426 C3432 1.379 . S
C3426 N3434 1.356 . S
C3427 C3426 1.363 . S
C3427 C3433 1.363 . S
C3428 C3429 1.363 . S
C3428 C3433 1.379 . S
C3428 N3435 1.356 . S
C3429 C3428 1.363 . S
C3429 C3432 1.363 . S
N3430 C3432 1.356 . S
N3430 H3442 0.984 . S
N3430 H3443 0.985 . S
N3431 C3433 1.356 . S
N3431 H3436 0.984 . S
N3431 H3437 0.985 . S
C3432 C3426 1.379 . S
C3432 C3429 1.363 . S
C3432 N3430 1.356 . S
C3433 C3427 1.363 . S
C3433 C3428 1.379 . S
C3433 N3431 1.356 . S
N3434 C3426 1.356 . S
N3434 H3440 0.984 . S
N3434 H3441 0.984 . S
N3435 C3428 1.356 . S
N3435 H3438 0.984 . S
N3435 H3439 0.985 . S
H3436 N3431 0.984 . S
H3437 N3431 0.985 . S
H3438 N3435 0.984 . S
H3439 N3435 0.985 . S
H3440 N3434 0.984 . S
H3441 N3434 0.984 . S
H3442 N3430 0.984 . S
H3443 N3430 0.985 . S
C3444 C3445 1.363 . S
C3444 C3450 1.379 . S
C3444 N3452 1.356 . S
C3445 C3444 1.363 . S
C3445 C3451 1.363 . S
C3446 C3447 1.363 . S
C3446 C3451 1.379 . S
C3446 N3453 1.356 . S
C3447 C3446 1.363 . S
C3447 C3450 1.363 . S
N3448 C3450 1.356 . S
N3448 H3460 0.984 . S
N3448 H3461 0.985 . S
N3449 C3451 1.356 . S
N3449 H3454 0.984 . S
N3449 H3455 0.985 . S
C3450 C3444 1.379 . S
C3450 C3447 1.363 . S
C3450 N3448 1.356 . S
C3451 C3445 1.363 . S
C3451 C3446 1.379 . S
C3451 N3449 1.356 . S
N3452 C3444 1.356 . S
N3452 H3458 0.984 . S
N3452 H3459 0.984 . S
N3453 C3446 1.356 . S
N3453 H3456 0.984 . S
N3453 H3457 0.985 . S
H3454 N3449 0.984 . S
H3455 N3449 0.985 . S
H3456 N3453 0.984 . S
H3457 N3453 0.985 . S
H3458 N3452 0.984 . S
H3459 N3452 0.984 . S
H3460 N3448 0.984 . S
H3461 N3448 0.985 . S
C3462 C3463 1.363 . S
C3462 C3468 1.379 . S
C3462 N3470 1.356 . S
C3463 C3462 1.363 . S
C3463 C3469 1.363 . S
C3464 C3465 1.363 . S
C3464 C3469 1.379 . S
C3464 N3471 1.356 . S
C3465 C3464 1.363 . S
C3465 C3468 1.363 . S
N3466 C3468 1.356 . S
N3466 H3478 0.984 . S
N3466 H3479 0.985 . S
N3467 C3469 1.356 . S
N3467 H3472 0.984 . S
N3467 H3473 0.985 . S
C3468 C3462 1.379 . S
C3468 C3465 1.363 . S
C3468 N3466 1.356 . S
C3469 C3463 1.363 . S
C3469 C3464 1.379 . S
C3469 N3467 1.356 . S
N3470 C3462 1.356 . S
N3470 H3476 0.984 . S
N3470 H3477 0.984 . S
N3471 C3464 1.356 . S
N3471 H3474 0.984 . S
N3471 H3475 0.985 . S
H3472 N3467 0.984 . S
H3473 N3467 0.985 . S
H3474 N3471 0.984 . S
H3475 N3471 0.985 . S
H3476 N3470 0.984 . S
H3477 N3470 0.984 . S
H3478 N3466 0.984 . S
H3479 N3466 0.985 . S
C3480 C3481 1.363 . S
C3480 C3486 1.379 . S
C3480 N3488 1.356 . S
C3481 C3480 1.363 . S
C3481 C3487 1.363 . S
C3482 C3483 1.363 . S
C3482 C3487 1.379 . S
C3482 N3489 1.356 . S
C3483 C3482 1.363 . S
C3483 C3486 1.363 . S
N3484 C3486 1.356 . S
N3484 H3496 0.984 . S
N3484 H3497 0.985 . S
N3485 C3487 1.356 . S
N3485 H3490 0.984 . S
N3485 H3491 0.985 . S
C3486 C3480 1.379 . S
C3486 C3483 1.363 . S
C3486 N3484 1.356 . S
C3487 C3481 1.363 . S
C3487 C3482 1.379 . S
C3487 N3485 1.356 . S
N3488 C3480 1.356 . S
N3488 H3494 0.984 . S
N3488 H3495 0.984 . S
N3489 C3482 1.356 . S
N3489 H3492 0.984 . S
N3489 H3493 0.985 . S
H3490 N3485 0.984 . S
H3491 N3485 0.985 . S
H3492 N3489 0.984 . S
H3493 N3489 0.985 . S
H3494 N3488 0.984 . S
H3495 N3488 0.984 . S
H3496 N3484 0.984 . S
H3497 N3484 0.985 . S
C3498 C3499 1.363 . S
C3498 C3504 1.379 . S
C3498 N3506 1.356 . S
C3499 C3498 1.363 . S
C3499 C3505 1.363 . S
C3500 C3501 1.363 . S
C3500 C3505 1.379 . S
C3500 N3507 1.356 . S
C3501 C3500 1.363 . S
C3501 C3504 1.363 . S
N3502 C3504 1.356 . S
N3502 H3514 0.984 . S
N3502 H3515 0.985 . S
N3503 C3505 1.356 . S
N3503 H3508 0.984 . S
N3503 H3509 0.985 . S
C3504 C3498 1.379 . S
C3504 C3501 1.363 . S
C3504 N3502 1.356 . S
C3505 C3499 1.363 . S
C3505 C3500 1.379 . S
C3505 N3503 1.356 . S
N3506 C3498 1.356 . S
N3506 H3512 0.984 . S
N3506 H3513 0.994 . S
N3507 C3500 1.356 . S
N3507 H3510 0.984 . S
N3507 H3511 0.985 . S
H3508 N3503 0.984 . S
H3509 N3503 0.985 . S
H3510 N3507 0.984 . S
H3511 N3507 0.985 . S
H3512 N3506 0.984 . S
H3513 N3506 0.994 . S
H3514 N3502 0.984 . S
H3515 N3502 0.985 . S
C3516 C3517 1.363 . S
C3516 C3522 1.379 . S
C3516 N3524 1.356 1_556 S
C3517 C3516 1.363 . S
C3517 C3523 1.363 . S
C3518 C3519 1.363 . S
C3518 C3523 1.379 . S
C3518 N3525 1.356 . S
C3519 C3518 1.363 . S
C3519 C3522 1.363 . S
N3520 C3522 1.356 . S
N3520 H3532 0.984 . S
N3520 H3533 0.985 . S
N3521 C3523 1.356 . S
N3521 H3526 0.984 . S
N3521 H3527 0.985 . S
C3522 C3516 1.379 . S
C3522 C3519 1.363 . S
C3522 N3520 1.356 . S
C3523 C3517 1.363 . S
C3523 C3518 1.379 . S
C3523 N3521 1.356 . S
N3524 C3516 1.356 1_554 S
N3524 H3530 0.984 . S
N3524 H3531 0.984 . S
N3525 C3518 1.356 . S
N3525 H3528 0.984 . S
N3525 H3529 0.985 . S
H3526 N3521 0.984 . S
H3527 N3521 0.985 . S
H3528 N3525 0.984 . S
H3529 N3525 0.985 . S
H3530 N3524 0.984 . S
H3531 N3524 0.984 . S
H3532 N3520 0.984 . S
H3533 N3520 0.985 . S
C3534 C3535 1.363 . S
C3534 C3540 1.379 . S
C3534 N3542 1.356 . S
C3535 C3534 1.363 . S
C3535 C3541 1.363 . S
C3536 C3537 1.363 . S
C3536 C3541 1.379 . S
C3536 N3543 1.356 . S
C3537 C3536 1.363 . S
C3537 C3540 1.363 . S
N3538 C3540 1.356 . S
N3538 H3550 0.984 . S
N3538 H3551 0.985 . S
N3539 C3541 1.356 . S
N3539 H3544 0.984 . S
N3539 H3545 0.985 1_556 S
C3540 C3534 1.379 . S
C3540 C3537 1.363 . S
C3540 N3538 1.356 . S
C3541 C3535 1.363 . S
C3541 C3536 1.379 . S
C3541 N3539 1.356 . S
N3542 C3534 1.356 . S
N3542 H3548 0.984 . S
N3542 H3549 0.984 . S
N3543 C3536 1.356 . S
N3543 H3546 0.984 . S
N3543 H3547 0.985 . S
H3544 N3539 0.984 . S
H3545 N3539 0.985 1_554 S
H3546 N3543 0.984 . S
H3547 N3543 0.985 . S
H3548 N3542 0.984 . S
H3549 N3542 0.984 . S
H3550 N3538 0.984 . S
H3551 N3538 0.985 . S
C961 C128 2.478 . S
C963 C8 2.482 1_455 S
C979 C149 2.436 . S
C981 C28 2.520 . S
C997 C88 2.492 . S
C999 C48 2.492 . S
C1015 C108 2.446 . S
C1017 C68 2.451 . S
C1033 C208 2.501 . S
C1035 C168 2.504 . S
C1051 C228 2.473 . S
C1053 C188 2.456 . S
C1069 C289 2.444 . S
C1071 C248 2.521 . S
C1087 C308 2.469 . S
C1089 C268 2.480 . S
C1105 C348 2.481 . S
C1107 C328 2.489 . S
C1123 C468 2.499 . S
C1125 C368 2.498 . S
C1141 C429 2.428 . S
C1143 C389 2.426 . S
C1159 C408 2.484 . S
C1161 C448 2.491 1_554 S
C1177 C488 2.483 . S
C1179 C608 2.478 . S
C1195 C508 2.520 . S
C1197 C629 2.436 . S
C1213 C528 2.492 . S
C1215 C568 2.492 . S
C1231 C548 2.451 . S
C1233 C588 2.446 . S
C1249 C648 2.504 . S
C1251 C688 2.501 . S
C1267 C668 2.456 . S
C1269 C708 2.473 . S
C1285 C728 2.521 . S
C1287 C769 2.444 . S
C1303 C788 2.469 . S
C1305 C748 2.480 . S
C1321 C808 2.489 1_545 S
C1323 C828 2.481 . S
C1339 C948 2.499 . S
C1341 C848 2.498 . S
C1357 C869 2.426 . S
C1359 C909 2.428 . S
C1375 C888 2.484 . S
C1377 C928 2.491 . S
C1393 C9 2.744 . S
C1395 C189 2.709 . S
C1411 C29 2.723 . S
C1413 C209 2.730 . S
C1429 C49 2.735 . S
C1431 C229 2.787 . S
C1447 C169 2.741 . S
C1449 C69 2.758 . S
C1465 C309 2.669 . S
C1467 C89 2.635 . S
C1483 C249 2.743 . S
C1485 C109 2.768 . S
C1501 C269 2.776 . S
C1503 C129 2.798 . S
C1519 C148 2.855 . S
C1521 C288 2.849 1_545 S
C1537 C369 2.838 . S
C1539 C329 2.888 . S
C1555 C449 2.654 . S
C1557 C349 2.612 . S
C1573 C388 2.604 . S
C1575 C469 2.524 . S
C1591 C428 2.917 1_554 S
C1593 C409 2.892 . S
C1609 C489 2.745 . S
C1611 C669 2.707 . S
C1627 C689 2.730 . S
C1629 C509 2.723 . S
C1645 C709 2.787 . S
C1647 C529 2.735 . S
C1663 C549 2.758 . S
C1665 C649 2.741 . S
C1681 C789 2.669 . S
C1683 C569 2.636 . S
C1699 C589 2.768 . S
C1701 C729 2.743 . S
C1717 C609 2.798 . S
C1719 C749 2.776 . S
C1735 C628 2.855 . S
C1737 C768 2.849 . S
C1753 C809 2.888 . S
C1755 C849 2.838 . S
C1771 C929 2.654 . S
C1773 C829 2.612 . S
C1789 C949 2.524 . S
C1791 C868 2.604 . S
C1807 C889 2.892 . S
C1809 C908 2.917 . S
C1825 C18 1.174 . S
C1827 C62 1.085 . S
C1843 C2 0.762 . S
C1845 C38 0.772 . S
C1861 C58 1.181 . S
C1863 C22 1.102 . S
C1879 C78 0.755 . S
C1881 C42 0.754 . S
C1897 C102 0.996 . S
C1899 C98 1.085 . S
C1915 C122 0.833 . S
C1917 C118 0.885 . S
C1933 C138 1.289 . S
C1935 C159 1.304 . S
C1951 C82 0.658 . S
C1953 C141 0.674 . S
C1969 C178 0.905 . S
C1971 C362 0.875 . S
C1987 C198 1.243 . S
C1989 C399 1.293 . S
C2005 C218 1.074 1_565 S
C2007 C402 1.011 . S
C2023 C238 1.145 . S
C2025 C342 0.972 . S
C2041 C258 0.764 . S
C2043 C442 0.759 . S
C2059 C322 1.024 . S
C2061 C278 1.060 . S
C2077 C462 0.745 . S
C2079 C281 0.746 . S
C2095 C318 1.429 . S
C2097 C439 1.398 . S
C2113 C338 1.145 . S
C2115 C182 0.977 . S
C2131 C358 0.780 . S
C2133 C302 0.775 . S
C2149 C378 1.165 1_556 S
C2151 C242 1.095 . S
C2167 C262 0.627 . S
C2169 C381 0.606 . S
C2185 C299 1.205 . S
C2187 C418 1.190 . S
C2203 C222 0.728 . S
C2205 C421 0.736 . S
C2221 C162 0.966 . S
C2223 C458 1.009 . S
C2239 C478 0.797 . S
C2241 C202 0.783 . S
C2257 C498 1.174 . S
C2259 C542 1.090 . S
C2275 C518 0.768 . S
C2277 C482 0.762 . S
C2293 C502 1.102 . S
C2295 C538 1.181 . S
C2311 C522 0.753 . S
C2313 C558 0.755 . S
C2329 C578 1.085 . S
C2331 C582 0.996 . S
C2347 C602 0.833 . S
C2349 C598 0.885 . S
C2365 C639 1.304 . S
C2367 C618 1.289 . S
C2383 C621 0.674 . S
C2385 C562 0.658 . S
C2401 C658 0.905 . S
C2403 C842 0.874 . S
C2419 C879 1.293 . S
C2421 C678 1.243 . S
C2437 C882 1.011 . S
C2439 C698 1.081 . S
C2455 C718 1.145 . S
C2457 C822 0.972 . S
C2473 C922 0.759 . S
C2475 C738 0.764 . S
C2491 C758 1.060 . S
C2493 C802 1.024 . S
C2509 C761 0.746 . S
C2511 C942 0.745 . S
C2527 C798 1.429 . S
C2529 C919 1.399 . S
C2545 C662 0.977 . S
C2547 C818 1.146 . S
C2563 C782 0.775 . S
C2565 C838 0.780 . S
C2581 C722 1.096 . S
C2583 C858 1.166 . S
C2599 C861 0.607 . S
C2601 C742 0.627 . S
C2617 C779 1.205 . S
C2619 C898 1.189 . S
C2635 C901 0.736 . S
C2637 C702 0.728 . S
C2653 C938 1.010 . S
C2655 C642 0.966 . S
C2671 C682 0.782 . S
C2673 C958 0.797 . S
C2689 C1 0.779 . S
C2691 C881 0.779 . S
C2707 C821 0.853 . S
C2709 C21 0.847 . S
C2725 C41 0.786 . S
C2727 C841 0.784 . S
C2743 C61 1.152 . S
C2745 C878 1.200 . S
C2761 C81 0.780 . S
C2763 C941 0.779 . S
C2779 C101 1.154 . S
C2781 C918 1.189 . S
C2797 C121 0.769 . S
C2799 C921 0.766 . S
C2815 C158 1.200 1_565 S
C2817 C801 1.157 . S
C2833 C161 0.761 . S
C2835 C781 0.763 . S
C2851 C181 0.829 . S
C2853 C721 0.822 . S
C2869 C201 0.763 . S
C2871 C741 0.762 . S
C2887 C221 1.053 . S
C2889 C778 1.096 . S
C2905 C241 0.822 . S
C2907 C661 0.829 . S
C2923 C261 0.762 . S
C2925 C681 0.763 . S
C2941 C298 1.096 . S
C2943 C701 1.053 . S
C2959 C301 0.763 . S
C2961 C641 0.761 . S
C2977 C321 1.157 . S
C2979 C638 1.200 . S
C2995 C341 0.853 . S
C2997 C501 0.847 . S
C3013 C361 0.784 . S
C3015 C521 0.786 . S
C3031 C398 1.195 1_556 S
C3033 C541 1.153 . S
C3049 C401 0.781 . S
C3051 C481 0.780 . S
C3067 C438 1.189 . S
C3069 C581 1.154 . S
C3085 C441 0.766 . S
C3087 C601 0.769 . S
C3103 C461 0.779 . S
C3105 C561 0.780 . S
C3121 C99 1.667 . S
C3123 C859 1.676 . S
C3139 C119 0.990 . S
C3141 C862 0.970 . S
C3157 C139 1.800 . S
C3159 C899 1.801 . S
C3175 C142 0.947 . S
C3177 C839 0.966 . S
C3193 C19 1.768 . S
C3195 C939 1.772 . S
C3211 C39 1.491 . S
C3213 C819 1.485 . S
C3229 C59 1.587 . S
C3231 C959 1.582 . S
C3247 C902 0.994 . S
C3249 C79 1.025 . S
C3265 C282 1.073 . S
C3267 C679 1.097 . S
C3283 C319 1.818 . S
C3285 C699 1.815 . S
C3301 C259 1.498 . S
C3303 C719 1.488 . S
C3319 C279 1.685 . S
C3321 C659 1.692 . S
C3337 C219 1.815 . S
C3339 C799 1.818 . S
C3355 C239 1.488 . S
C3357 C739 1.498 . S
C3373 C179 1.692 . S
C3375 C759 1.685 . S
C3391 C199 1.097 . S
C3393 C762 1.073 . S
C3409 C422 0.994 . S
C3411 C559 1.025 . S
C3427 C382 0.970 . S
C3429 C599 0.990 . S
C3445 C419 1.801 . S
C3447 C619 1.800 . S
C3463 C359 0.966 . S
C3465 C622 0.947 . S
C3481 C379 1.676 . S
C3483 C579 1.667 . S
C3499 C339 1.484 . S
C3501 C519 1.491 . S
C3517 C479 1.582 . S
C3519 C539 1.587 . S
C3535 C459 1.769 . S
C3537 C499 1.767 . S
