# Generated by pormake.
# Topology flu-e, (6)-cn, num edge types: 1
# Building blocks:
#     Node 0, Type 0, BuildingBlock: OJICUG_clean_sbu_0, # of connection points: 6
#     Node 1, Type 0, BuildingBlock: OJICUG_clean_sbu_0, # of connection points: 6
#     Node 2, Type 0, BuildingBlock: OJICUG_clean_sbu_0, # of connection points: 6
#     Node 3, Type 0, BuildingBlock: OJICUG_clean_sbu_0, # of connection points: 6
#     Node 4, Type 0, BuildingBlock: OJICUG_clean_sbu_0, # of connection points: 6
#     Node 5, Type 0, BuildingBlock: OJICUG_clean_sbu_0, # of connection points: 6
#     Node 6, Type 0, BuildingBlock: OJICUG_clean_sbu_0, # of connection points: 6
#     Node 7, Type 0, BuildingBlock: OJICUG_clean_sbu_0, # of connection points: 6
#     Node 8, Type 0, BuildingBlock: OJICUG_clean_sbu_0, # of connection points: 6
#     Node 9, Type 0, BuildingBlock: OJICUG_clean_sbu_0, # of connection points: 6
#     Node 10, Type 0, BuildingBlock: OJICUG_clean_sbu_0, # of connection points: 6
#     Node 11, Type 0, BuildingBlock: OJICUG_clean_sbu_0, # of connection points: 6
#     Node 12, Type 0, BuildingBlock: OJICUG_clean_sbu_0, # of connection points: 6
#     Node 13, Type 0, BuildingBlock: OJICUG_clean_sbu_0, # of connection points: 6
#     Node 14, Type 0, BuildingBlock: OJICUG_clean_sbu_0, # of connection points: 6
#     Node 15, Type 0, BuildingBlock: OJICUG_clean_sbu_0, # of connection points: 6
#     Node 16, Type 0, BuildingBlock: OJICUG_clean_sbu_0, # of connection points: 6
#     Node 17, Type 0, BuildingBlock: OJICUG_clean_sbu_0, # of connection points: 6
#     Node 18, Type 0, BuildingBlock: OJICUG_clean_sbu_0, # of connection points: 6
#     Node 19, Type 0, BuildingBlock: OJICUG_clean_sbu_0, # of connection points: 6
#     Node 20, Type 0, BuildingBlock: OJICUG_clean_sbu_0, # of connection points: 6
#     Node 21, Type 0, BuildingBlock: OJICUG_clean_sbu_0, # of connection points: 6
#     Node 22, Type 0, BuildingBlock: OJICUG_clean_sbu_0, # of connection points: 6
#     Node 23, Type 0, BuildingBlock: OJICUG_clean_sbu_0, # of connection points: 6
#     Node 24, Type 0, BuildingBlock: OJICUG_clean_sbu_0, # of connection points: 6
#     Node 25, Type 0, BuildingBlock: OJICUG_clean_sbu_0, # of connection points: 6
#     Node 26, Type 0, BuildingBlock: OJICUG_clean_sbu_0, # of connection points: 6
#     Node 27, Type 0, BuildingBlock: OJICUG_clean_sbu_0, # of connection points: 6
#     Node 28, Type 0, BuildingBlock: OJICUG_clean_sbu_0, # of connection points: 6
#     Node 29, Type 0, BuildingBlock: OJICUG_clean_sbu_0, # of connection points: 6
#     Node 30, Type 0, BuildingBlock: OJICUG_clean_sbu_0, # of connection points: 6
#     Node 31, Type 0, BuildingBlock: OJICUG_clean_sbu_0, # of connection points: 6
#     Edge 32, Type (0, 0), BuildingBlock: CIFDUS_clean_linker_0, # of connection points: 2
#     Edge 33, Type (0, 0), BuildingBlock: CIFDUS_clean_linker_0, # of connection points: 2
#     Edge 34, Type (0, 0), BuildingBlock: CIFDUS_clean_linker_0, # of connection points: 2
#     Edge 35, Type (0, 0), BuildingBlock: CIFDUS_clean_linker_0, # of connection points: 2
#     Edge 36, Type (0, 0), BuildingBlock: CIFDUS_clean_linker_0, # of connection points: 2
#     Edge 37, Type (0, 0), BuildingBlock: CIFDUS_clean_linker_0, # of connection points: 2
#     Edge 38, Type (0, 0), BuildingBlock: CIFDUS_clean_linker_0, # of connection points: 2
#     Edge 39, Type (0, 0), BuildingBlock: CIFDUS_clean_linker_0, # of connection points: 2
#     Edge 40, Type (0, 0), BuildingBlock: CIFDUS_clean_linker_0, # of connection points: 2
#     Edge 41, Type (0, 0), BuildingBlock: CIFDUS_clean_linker_0, # of connection points: 2
#     Edge 42, Type (0, 0), BuildingBlock: CIFDUS_clean_linker_0, # of connection points: 2
#     Edge 43, Type (0, 0), BuildingBlock: CIFDUS_clean_linker_0, # of connection points: 2
#     Edge 44, Type (0, 0), BuildingBlock: CIFDUS_clean_linker_0, # of connection points: 2
#     Edge 45, Type (0, 0), BuildingBlock: CIFDUS_clean_linker_0, # of connection points: 2
#     Edge 46, Type (0, 0), BuildingBlock: CIFDUS_clean_linker_0, # of connection points: 2
#     Edge 47, Type (0, 0), BuildingBlock: CIFDUS_clean_linker_0, # of connection points: 2
#     Edge 48, Type (0, 0), BuildingBlock: CIFDUS_clean_linker_0, # of connection points: 2
#     Edge 49, Type (0, 0), BuildingBlock: CIFDUS_clean_linker_0, # of connection points: 2
#     Edge 50, Type (0, 0), BuildingBlock: CIFDUS_clean_linker_0, # of connection points: 2
#     Edge 51, Type (0, 0), BuildingBlock: CIFDUS_clean_linker_0, # of connection points: 2
#     Edge 52, Type (0, 0), BuildingBlock: CIFDUS_clean_linker_0, # of connection points: 2
#     Edge 53, Type (0, 0), BuildingBlock: CIFDUS_clean_linker_0, # of connection points: 2
#     Edge 54, Type (0, 0), BuildingBlock: CIFDUS_clean_linker_0, # of connection points: 2
#     Edge 55, Type (0, 0), BuildingBlock: CIFDUS_clean_linker_0, # of connection points: 2
#     Edge 56, Type (0, 0), BuildingBlock: CIFDUS_clean_linker_0, # of connection points: 2
#     Edge 57, Type (0, 0), BuildingBlock: CIFDUS_clean_linker_0, # of connection points: 2
#     Edge 58, Type (0, 0), BuildingBlock: CIFDUS_clean_linker_0, # of connection points: 2
#     Edge 59, Type (0, 0), BuildingBlock: CIFDUS_clean_linker_0, # of connection points: 2
#     Edge 60, Type (0, 0), BuildingBlock: CIFDUS_clean_linker_0, # of connection points: 2
#     Edge 61, Type (0, 0), BuildingBlock: CIFDUS_clean_linker_0, # of connection points: 2
#     Edge 62, Type (0, 0), BuildingBlock: CIFDUS_clean_linker_0, # of connection points: 2
#     Edge 63, Type (0, 0), BuildingBlock: CIFDUS_clean_linker_0, # of connection points: 2
#     Edge 64, Type (0, 0), BuildingBlock: CIFDUS_clean_linker_0, # of connection points: 2
#     Edge 65, Type (0, 0), BuildingBlock: CIFDUS_clean_linker_0, # of connection points: 2
#     Edge 66, Type (0, 0), BuildingBlock: CIFDUS_clean_linker_0, # of connection points: 2
#     Edge 67, Type (0, 0), BuildingBlock: CIFDUS_clean_linker_0, # of connection points: 2
#     Edge 68, Type (0, 0), BuildingBlock: CIFDUS_clean_linker_0, # of connection points: 2
#     Edge 69, Type (0, 0), BuildingBlock: CIFDUS_clean_linker_0, # of connection points: 2
#     Edge 70, Type (0, 0), BuildingBlock: CIFDUS_clean_linker_0, # of connection points: 2
#     Edge 71, Type (0, 0), BuildingBlock: CIFDUS_clean_linker_0, # of connection points: 2
#     Edge 72, Type (0, 0), BuildingBlock: CIFDUS_clean_linker_0, # of connection points: 2
#     Edge 73, Type (0, 0), BuildingBlock: CIFDUS_clean_linker_0, # of connection points: 2
#     Edge 74, Type (0, 0), BuildingBlock: CIFDUS_clean_linker_0, # of connection points: 2
#     Edge 75, Type (0, 0), BuildingBlock: CIFDUS_clean_linker_0, # of connection points: 2
#     Edge 76, Type (0, 0), BuildingBlock: CIFDUS_clean_linker_0, # of connection points: 2
#     Edge 77, Type (0, 0), BuildingBlock: CIFDUS_clean_linker_0, # of connection points: 2
#     Edge 78, Type (0, 0), BuildingBlock: CIFDUS_clean_linker_0, # of connection points: 2
#     Edge 79, Type (0, 0), BuildingBlock: CIFDUS_clean_linker_0, # of connection points: 2
#     Edge 80, Type (0, 0), BuildingBlock: CIFDUS_clean_linker_0, # of connection points: 2
#     Edge 81, Type (0, 0), BuildingBlock: CIFDUS_clean_linker_0, # of connection points: 2
#     Edge 82, Type (0, 0), BuildingBlock: CIFDUS_clean_linker_0, # of connection points: 2
#     Edge 83, Type (0, 0), BuildingBlock: CIFDUS_clean_linker_0, # of connection points: 2
#     Edge 84, Type (0, 0), BuildingBlock: CIFDUS_clean_linker_0, # of connection points: 2
#     Edge 85, Type (0, 0), BuildingBlock: CIFDUS_clean_linker_0, # of connection points: 2
#     Edge 86, Type (0, 0), BuildingBlock: CIFDUS_clean_linker_0, # of connection points: 2
#     Edge 87, Type (0, 0), BuildingBlock: CIFDUS_clean_linker_0, # of connection points: 2
#     Edge 88, Type (0, 0), BuildingBlock: CIFDUS_clean_linker_0, # of connection points: 2
#     Edge 89, Type (0, 0), BuildingBlock: CIFDUS_clean_linker_0, # of connection points: 2
#     Edge 90, Type (0, 0), BuildingBlock: CIFDUS_clean_linker_0, # of connection points: 2
#     Edge 91, Type (0, 0), BuildingBlock: CIFDUS_clean_linker_0, # of connection points: 2
#     Edge 92, Type (0, 0), BuildingBlock: CIFDUS_clean_linker_0, # of connection points: 2
#     Edge 93, Type (0, 0), BuildingBlock: CIFDUS_clean_linker_0, # of connection points: 2
#     Edge 94, Type (0, 0), BuildingBlock: CIFDUS_clean_linker_0, # of connection points: 2
#     Edge 95, Type (0, 0), BuildingBlock: CIFDUS_clean_linker_0, # of connection points: 2
#     Edge 96, Type (0, 0), BuildingBlock: CIFDUS_clean_linker_0, # of connection points: 2
#     Edge 97, Type (0, 0), BuildingBlock: CIFDUS_clean_linker_0, # of connection points: 2
#     Edge 98, Type (0, 0), BuildingBlock: CIFDUS_clean_linker_0, # of connection points: 2
#     Edge 99, Type (0, 0), BuildingBlock: CIFDUS_clean_linker_0, # of connection points: 2
#     Edge 100, Type (0, 0), BuildingBlock: CIFDUS_clean_linker_0, # of connection points: 2
#     Edge 101, Type (0, 0), BuildingBlock: CIFDUS_clean_linker_0, # of connection points: 2
#     Edge 102, Type (0, 0), BuildingBlock: CIFDUS_clean_linker_0, # of connection points: 2
#     Edge 103, Type (0, 0), BuildingBlock: CIFDUS_clean_linker_0, # of connection points: 2
#     Edge 104, Type (0, 0), BuildingBlock: CIFDUS_clean_linker_0, # of connection points: 2
#     Edge 105, Type (0, 0), BuildingBlock: CIFDUS_clean_linker_0, # of connection points: 2
#     Edge 106, Type (0, 0), BuildingBlock: CIFDUS_clean_linker_0, # of connection points: 2
#     Edge 107, Type (0, 0), BuildingBlock: CIFDUS_clean_linker_0, # of connection points: 2
#     Edge 108, Type (0, 0), BuildingBlock: CIFDUS_clean_linker_0, # of connection points: 2
#     Edge 109, Type (0, 0), BuildingBlock: CIFDUS_clean_linker_0, # of connection points: 2
#     Edge 110, Type (0, 0), BuildingBlock: CIFDUS_clean_linker_0, # of connection points: 2
#     Edge 111, Type (0, 0), BuildingBlock: CIFDUS_clean_linker_0, # of connection points: 2
#     Edge 112, Type (0, 0), BuildingBlock: CIFDUS_clean_linker_0, # of connection points: 2
#     Edge 113, Type (0, 0), BuildingBlock: CIFDUS_clean_linker_0, # of connection points: 2
#     Edge 114, Type (0, 0), BuildingBlock: CIFDUS_clean_linker_0, # of connection points: 2
#     Edge 115, Type (0, 0), BuildingBlock: CIFDUS_clean_linker_0, # of connection points: 2
#     Edge 116, Type (0, 0), BuildingBlock: CIFDUS_clean_linker_0, # of connection points: 2
#     Edge 117, Type (0, 0), BuildingBlock: CIFDUS_clean_linker_0, # of connection points: 2
#     Edge 118, Type (0, 0), BuildingBlock: CIFDUS_clean_linker_0, # of connection points: 2
#     Edge 119, Type (0, 0), BuildingBlock: CIFDUS_clean_linker_0, # of connection points: 2
#     Edge 120, Type (0, 0), BuildingBlock: CIFDUS_clean_linker_0, # of connection points: 2
#     Edge 121, Type (0, 0), BuildingBlock: CIFDUS_clean_linker_0, # of connection points: 2
#     Edge 122, Type (0, 0), BuildingBlock: CIFDUS_clean_linker_0, # of connection points: 2
#     Edge 123, Type (0, 0), BuildingBlock: CIFDUS_clean_linker_0, # of connection points: 2
#     Edge 124, Type (0, 0), BuildingBlock: CIFDUS_clean_linker_0, # of connection points: 2
#     Edge 125, Type (0, 0), BuildingBlock: CIFDUS_clean_linker_0, # of connection points: 2
#     Edge 126, Type (0, 0), BuildingBlock: CIFDUS_clean_linker_0, # of connection points: 2
#     Edge 127, Type (0, 0), BuildingBlock: CIFDUS_clean_linker_0, # of connection points: 2
# Relax obj value: 0.101
# Max RMSD: 0.123
# Mean RMSD: 0.123
data_MOF--net-flu-e--node1-OJICUG_clean_sbu_0--edge1-CIFDUS_clean_linker_0
_symmetry_space_group_name_H-M    P1
_symmetry_Int_Tables_number       1
_symmetry_cell_setting            triclinic
loop_
_symmetry_equiv_pos_as_xyz
'x, y, z'
_cell_length_a     49.783587
_cell_length_b     49.680554
_cell_length_c     49.587798
_cell_angle_alpha  89.917394
_cell_angle_beta   89.722265
_cell_angle_gamma 90.010606
loop_
_atom_site_label
_atom_site_type_symbol
_atom_site_fract_x
_atom_site_fract_y
_atom_site_fract_z
_atom_type_partial_charge
Sc0 Sc 0.14698 0.17467 0.35918 0.0
Sc1 Sc 0.13752 0.12271 0.31155 0.0
Sc2 Sc 0.19233 0.12028 0.35608 0.0
O3 O 0.15885 0.13921 0.34236 0.0
C4 C 0.21128 0.18146 0.35839 0.0
C5 C 0.138 0.18506 0.29613 0.0
C6 C 0.19789 0.11206 0.29233 0.0
C7 C 0.09015 0.14594 0.34835 0.0
C8 C 0.16473 0.14052 0.41101 0.0
C9 C 0.15235 0.07101 0.34627 0.0
O10 O 0.18751 0.19084 0.36006 0.0
O11 O 0.13512 0.1603 0.29058 0.0
O12 O 0.20768 0.11333 0.31594 0.0
O13 O 0.1048 0.1634 0.36002 0.0
O14 O 0.18073 0.1256 0.39764 0.0
O15 O 0.13782 0.08317 0.32916 0.0
O16 O 0.15065 0.15894 0.4 0.0
O17 O 0.09946 0.1295 0.33106 0.0
O18 O 0.17259 0.08185 0.35738 0.0
O19 O 0.14253 0.19354 0.31995 0.0
O20 O 0.21603 0.15643 0.35646 0.0
O21 O 0.17293 0.1146 0.28777 0.0
Sc22 Sc 0.82793 0.12743 0.36321 0.0
Sc23 Sc 0.8799 0.17567 0.36148 0.0
Sc24 Sc 0.87519 0.12601 0.31075 0.0
O25 O 0.86111 0.14308 0.34515 0.0
C26 C 0.85693 0.07387 0.34258 0.0
C27 C 0.8651 0.1393 0.41311 0.0
C28 C 0.92979 0.13985 0.34215 0.0
C29 C 0.81869 0.1908 0.37172 0.0
C30 C 0.81115 0.12595 0.30193 0.0
C31 C 0.88374 0.18822 0.29827 0.0
O32 O 0.83939 0.08618 0.35654 0.0
O33 O 0.87737 0.15904 0.40207 0.0
O34 O 0.91638 0.12697 0.32454 0.0
O35 O 0.81132 0.16633 0.37229 0.0
O36 O 0.83523 0.12378 0.2932 0.0
O37 O 0.88437 0.19574 0.32281 0.0
O38 O 0.80546 0.12831 0.32676 0.0
O39 O 0.8428 0.19777 0.36683 0.0
O40 O 0.88003 0.16396 0.29133 0.0
O41 O 0.84761 0.12533 0.401 0.0
O42 O 0.87236 0.08583 0.32606 0.0
O43 O 0.91925 0.1576 0.35739 0.0
Sc44 Sc 0.85228 0.81608 0.35655 0.0
Sc45 Sc 0.85257 0.86667 0.3066 0.0
Sc46 Sc 0.79823 0.86167 0.35188 0.0
O47 O 0.8344 0.84816 0.33839 0.0
C48 C 0.79086 0.79805 0.35599 0.0
C49 C 0.86191 0.8045 0.29362 0.0
C50 C 0.79124 0.86883 0.2887 0.0
C51 C 0.9029 0.85321 0.34376 0.0
C52 C 0.82791 0.84795 0.40696 0.0
C53 C 0.8302 0.91626 0.34057 0.0
O54 O 0.81578 0.7932 0.3581 0.0
O55 O 0.85991 0.82905 0.28663 0.0
O56 O 0.78198 0.86569 0.31233 0.0
O57 O 0.89127 0.83465 0.35702 0.0
O58 O 0.80985 0.85931 0.39309 0.0
O59 O 0.84658 0.90579 0.32387 0.0
O60 O 0.84537 0.83213 0.39673 0.0
O61 O 0.8914 0.86622 0.32506 0.0
O62 O 0.81144 0.90302 0.35197 0.0
O63 O 0.86011 0.79676 0.31809 0.0
O64 O 0.7815 0.82171 0.35322 0.0
O65 O 0.81622 0.86972 0.28357 0.0
Sc66 Sc 0.10913 0.85743 0.3216 0.0
Sc67 Sc 0.16195 0.86593 0.36777 0.0
Sc68 Sc 0.11527 0.81353 0.37659 0.0
O69 O 0.12886 0.84565 0.35528 0.0
C70 C 0.06048 0.84263 0.35976 0.0
C71 C 0.12556 0.91402 0.34753 0.0
C72 C 0.13021 0.85405 0.42296 0.0
C73 C 0.16988 0.86375 0.30318 0.0
C74 C 0.1068 0.79285 0.31774 0.0
C75 C 0.17912 0.80607 0.38022 0.0
O76 O 0.07108 0.85767 0.34193 0.0
O77 O 0.14278 0.90409 0.36347 0.0
O78 O 0.11564 0.83576 0.41296 0.0
O79 O 0.14546 0.85826 0.29824 0.0
O80 O 0.11342 0.7885 0.34197 0.0
O81 O 0.1848 0.82997 0.37326 0.0
O82 O 0.10309 0.81641 0.30826 0.0
O83 O 0.17845 0.86822 0.32699 0.0
O84 O 0.1551 0.79789 0.38343 0.0
O85 O 0.11275 0.89989 0.3305 0.0
O86 O 0.07364 0.82474 0.37244 0.0
O87 O 0.14908 0.86568 0.4099 0.0
Sc88 Sc 0.15979 0.86175 0.63981 0.0
Sc89 Sc 0.11447 0.8091 0.62727 0.0
Sc90 Sc 0.10135 0.85531 0.67966 0.0
O91 O 0.12513 0.8421 0.64889 0.0
C92 C 0.15934 0.86501 0.704 0.0
C93 C 0.17769 0.80085 0.63378 0.0
C94 C 0.1001 0.79151 0.68768 0.0
C95 C 0.13823 0.84728 0.58141 0.0
C96 C 0.11915 0.91004 0.65098 0.0
C97 C 0.05786 0.83717 0.63623 0.0
O98 O 0.17056 0.86635 0.68105 0.0
O99 O 0.15424 0.79277 0.628 0.0
O100 O 0.09698 0.81547 0.69609 0.0
O101 O 0.15377 0.85968 0.59727 0.0
O102 O 0.10376 0.89661 0.66652 0.0
O103 O 0.07332 0.82091 0.62408 0.0
O104 O 0.13975 0.89998 0.63954 0.0
O105 O 0.1218 0.8292 0.58923 0.0
O106 O 0.06534 0.85127 0.65621 0.0
O107 O 0.183 0.82523 0.63938 0.0
O108 O 0.13441 0.86054 0.70706 0.0
O109 O 0.10639 0.78601 0.66338 0.0
Sc110 Sc 0.13113 0.17152 0.6266 0.0
Sc111 Sc 0.12361 0.11822 0.67283 0.0
Sc112 Sc 0.17533 0.11599 0.62419 0.0
O113 O 0.14334 0.13524 0.64112 0.0
C114 C 0.14685 0.14124 0.57192 0.0
C115 C 0.07553 0.14123 0.63802 0.0
C116 C 0.1359 0.0671 0.63556 0.0
C117 C 0.12356 0.1804 0.68999 0.0
C118 C 0.1953 0.17652 0.62493 0.0
C119 C 0.18398 0.10535 0.68751 0.0
O120 O 0.13372 0.15872 0.58523 0.0
O121 O 0.08546 0.12488 0.65489 0.0
O122 O 0.15446 0.07834 0.62198 0.0
O123 O 0.12736 0.18926 0.66621 0.0
O124 O 0.19965 0.15138 0.62487 0.0
O125 O 0.15976 0.1099 0.69397 0.0
O126 O 0.17179 0.18669 0.62513 0.0
O127 O 0.12141 0.15542 0.69518 0.0
O128 O 0.19235 0.10596 0.66318 0.0
O129 O 0.08927 0.15961 0.62647 0.0
O130 O 0.16266 0.12447 0.58313 0.0
O131 O 0.12363 0.07881 0.65479 0.0
Sc132 Sc 0.87125 0.16926 0.62999 0.0
Sc133 Sc 0.81817 0.12485 0.61648 0.0
Sc134 Sc 0.86069 0.11306 0.6721 0.0
O135 O 0.85007 0.1356 0.63953 0.0
C136 C 0.91732 0.12781 0.64539 0.0
C137 C 0.85991 0.1444 0.57198 0.0
C138 C 0.84198 0.06702 0.631 0.0
C139 C 0.8123 0.18894 0.61868 0.0
C140 C 0.87134 0.17263 0.69416 0.0
C141 C 0.79642 0.11494 0.67628 0.0
O142 O 0.90832 0.14834 0.63318 0.0
O143 O 0.84092 0.12889 0.57951 0.0
O144 O 0.85567 0.07526 0.65099 0.0
O145 O 0.83619 0.19353 0.62605 0.0
O146 O 0.86647 0.14778 0.69808 0.0
O147 O 0.79267 0.12009 0.65142 0.0
O148 O 0.87363 0.18266 0.67076 0.0
O149 O 0.80364 0.16547 0.61349 0.0
O150 O 0.81967 0.11152 0.68637 0.0
O151 O 0.87163 0.16056 0.5878 0.0
O152 O 0.9028 0.11294 0.66056 0.0
O153 O 0.82776 0.08269 0.61675 0.0
Sc154 Sc 0.84885 0.80628 0.6174 0.0
Sc155 Sc 0.8464 0.85231 0.67066 0.0
Sc156 Sc 0.79786 0.85605 0.61926 0.0
O157 O 0.83094 0.83823 0.63571 0.0
C158 C 0.83357 0.84214 0.56692 0.0
C159 C 0.89944 0.83998 0.63721 0.0
C160 C 0.83218 0.9067 0.63923 0.0
C161 C 0.85205 0.78907 0.67891 0.0
C162 C 0.78599 0.79311 0.61099 0.0
C163 C 0.78409 0.85836 0.68253 0.0
O164 O 0.8479 0.82486 0.57887 0.0
O165 O 0.88644 0.85194 0.65563 0.0
O166 O 0.81498 0.8964 0.62321 0.0
O167 O 0.85187 0.78371 0.65394 0.0
O168 O 0.77791 0.8173 0.61418 0.0
O169 O 0.80823 0.85484 0.6896 0.0
O170 O 0.81076 0.78673 0.61092 0.0
O171 O 0.85036 0.8129 0.68798 0.0
O172 O 0.77702 0.85975 0.65789 0.0
O173 O 0.88889 0.82247 0.62187 0.0
O174 O 0.81426 0.85452 0.57848 0.0
O175 O 0.84403 0.89304 0.65725 0.0
Sc176 Sc 0.38057 0.17372 0.12372 0.0
Sc177 Sc 0.33072 0.12284 0.12253 0.0
Sc178 Sc 0.38104 0.12172 0.17203 0.0
O179 O 0.36417 0.13938 0.13927 0.0
C180 C 0.43282 0.13914 0.13847 0.0
C181 C 0.36301 0.14265 0.06987 0.0
C182 C 0.36489 0.07048 0.1374 0.0
C183 C 0.3175 0.1859 0.12033 0.0
C184 C 0.38668 0.18368 0.18704 0.0
C185 C 0.31881 0.11506 0.18567 0.0
O186 O 0.42118 0.15752 0.12483 0.0
O187 O 0.34599 0.1274 0.08165 0.0
O188 O 0.37883 0.08232 0.15512 0.0
O189 O 0.34186 0.19367 0.12158 0.0
O190 O 0.38512 0.15894 0.19315 0.0
O191 O 0.31091 0.11696 0.16133 0.0
O192 O 0.38558 0.19211 0.16284 0.0
O193 O 0.31086 0.16118 0.12018 0.0
O194 O 0.34338 0.11652 0.19212 0.0
O195 O 0.37702 0.15989 0.08257 0.0
O196 O 0.42063 0.12492 0.15588 0.0
O197 O 0.34689 0.08243 0.12368 0.0
Sc198 Sc 0.88803 0.31484 0.12849 0.0
Sc199 Sc 0.87927 0.36927 0.17301 0.0
Sc200 Sc 0.83449 0.35999 0.11913 0.0
O201 O 0.86728 0.34807 0.14017 0.0
C202 C 0.87304 0.34156 0.07164 0.0
C203 C 0.93531 0.35397 0.14482 0.0
C204 C 0.86255 0.41625 0.1334 0.0
C205 C 0.88825 0.3096 0.19305 0.0
C206 C 0.82827 0.29562 0.11949 0.0
C207 C 0.81504 0.37035 0.17912 0.0
O208 O 0.88602 0.32482 0.08603 0.0
O209 O 0.92127 0.36707 0.16185 0.0
O210 O 0.8455 0.40216 0.12056 0.0
O211 O 0.89205 0.3004 0.16939 0.0
O212 O 0.81932 0.3193 0.11543 0.0
O213 O 0.83866 0.37394 0.18821 0.0
O214 O 0.85251 0.2909 0.12568 0.0
O215 O 0.88239 0.33402 0.19759 0.0
O216 O 0.81049 0.36404 0.15478 0.0
O217 O 0.92567 0.33537 0.13028 0.0
O218 O 0.85498 0.35687 0.08127 0.0
O219 O 0.87723 0.40667 0.15193 0.0
Sc220 Sc 0.66314 0.87246 0.12147 0.0
Sc221 Sc 0.61766 0.8187 0.11487 0.0
Sc222 Sc 0.60892 0.86592 0.16719 0.0
O223 O 0.62979 0.85248 0.13443 0.0
C224 C 0.66947 0.87387 0.18546 0.0
C225 C 0.68144 0.8115 0.1145 0.0
C226 C 0.60674 0.80181 0.17599 0.0
C227 C 0.63578 0.85658 0.06584 0.0
C228 C 0.62574 0.92161 0.13891 0.0
C229 C 0.56175 0.84742 0.12807 0.0
O230 O 0.67864 0.8756 0.16157 0.0
O231 O 0.65764 0.80239 0.11306 0.0
O232 O 0.60453 0.82593 0.18436 0.0
O233 O 0.65146 0.87115 0.07975 0.0
O234 O 0.61118 0.90793 0.1551 0.0
O235 O 0.57616 0.83073 0.11504 0.0
O236 O 0.64429 0.91109 0.12476 0.0
O237 O 0.62218 0.83732 0.07592 0.0
O238 O 0.571 0.86231 0.14674 0.0
O239 O 0.68653 0.83636 0.11735 0.0
O240 O 0.64475 0.87015 0.19077 0.0
O241 O 0.61199 0.79619 0.15154 0.0
Sc242 Sc 0.11314 0.67958 0.13757 0.0
Sc243 Sc 0.10043 0.62576 0.18209 0.0
Sc244 Sc 0.15623 0.62371 0.1379 0.0
O245 O 0.12324 0.64296 0.15254 0.0
C246 C 0.13081 0.64841 0.08451 0.0
C247 C 0.05642 0.64975 0.14255 0.0
C248 C 0.11765 0.57387 0.14789 0.0
C249 C 0.09779 0.68797 0.19856 0.0
C250 C 0.17695 0.68418 0.13948 0.0
C251 C 0.16 0.6154 0.20229 0.0
O252 O 0.11925 0.66707 0.0974 0.0
O253 O 0.06422 0.63221 0.15957 0.0
O254 O 0.13681 0.58571 0.13594 0.0
O255 O 0.1054 0.6966 0.17581 0.0
O256 O 0.18071 0.65901 0.13803 0.0
O257 O 0.13503 0.61867 0.20672 0.0
O258 O 0.15366 0.69469 0.14013 0.0
O259 O 0.09485 0.66312 0.20393 0.0
O260 O 0.17033 0.61591 0.17864 0.0
O261 O 0.07158 0.66835 0.13351 0.0
O262 O 0.14475 0.63018 0.09596 0.0
O263 O 0.10288 0.58554 0.16531 0.0
Sc264 Sc 0.29199 0.85624 0.86979 0.0
Sc265 Sc 0.34692 0.8112 0.86784 0.0
Sc266 Sc 0.34221 0.86381 0.82077 0.0
O267 O 0.327 0.84359 0.85282 0.0
C268 C 0.27915 0.86688 0.80881 0.0
C269 C 0.28594 0.79238 0.87371 0.0
C270 C 0.34942 0.80329 0.80332 0.0
C271 C 0.32759 0.84249 0.92099 0.0
C272 C 0.32396 0.9108 0.85883 0.0
C273 C 0.39641 0.84783 0.85091 0.0
O274 O 0.27154 0.85956 0.83211 0.0
O275 O 0.31092 0.78767 0.87172 0.0
O276 O 0.34524 0.82788 0.79783 0.0
O277 O 0.30859 0.85443 0.90901 0.0
O278 O 0.34026 0.9006 0.84201 0.0
O279 O 0.38588 0.82998 0.86594 0.0
O280 O 0.30411 0.89798 0.86876 0.0
O281 O 0.3432 0.82573 0.90924 0.0
O282 O 0.3831 0.86066 0.8334 0.0
O283 O 0.27621 0.81604 0.87332 0.0
O284 O 0.30367 0.8705 0.80273 0.0
O285 O 0.3517 0.79439 0.82744 0.0
Sc286 Sc 0.12514 0.364 0.81438 0.0
Sc287 Sc 0.17931 0.36345 0.86 0.0
Sc288 Sc 0.13317 0.30971 0.85942 0.0
O289 O 0.14581 0.34577 0.84468 0.0
C290 C 0.07776 0.34094 0.851 0.0
C291 C 0.14144 0.41422 0.85112 0.0
C292 C 0.15111 0.34003 0.91329 0.0
C293 C 0.18581 0.37367 0.79642 0.0
C294 C 0.12342 0.30202 0.79628 0.0
C295 C 0.19685 0.30217 0.85899 0.0
O296 O 0.08716 0.35768 0.83401 0.0
O297 O 0.16078 0.40214 0.86243 0.0
O298 O 0.13755 0.32242 0.90066 0.0
O299 O 0.16089 0.37177 0.79144 0.0
O300 O 0.12776 0.29279 0.81978 0.0
O301 O 0.20215 0.3271 0.85938 0.0
O302 O 0.12142 0.32712 0.79148 0.0
O303 O 0.19532 0.37159 0.82014 0.0
O304 O 0.173 0.29303 0.85897 0.0
O305 O 0.1268 0.40318 0.8333 0.0
O306 O 0.09185 0.32236 0.86148 0.0
O307 O 0.16696 0.35639 0.9014 0.0
Sc308 Sc 0.62807 0.17333 0.8572 0.0
Sc309 Sc 0.62563 0.12326 0.80722 0.0
Sc310 Sc 0.6747 0.12094 0.85847 0.0
O311 O 0.64282 0.13909 0.84084 0.0
C312 C 0.69067 0.18168 0.86685 0.0
C313 C 0.62612 0.18705 0.7952 0.0
C314 C 0.68826 0.11445 0.79578 0.0
C315 C 0.57432 0.14456 0.8386 0.0
C316 C 0.63835 0.13838 0.90882 0.0
C317 C 0.63902 0.07043 0.84222 0.0
O318 O 0.66646 0.18943 0.86678 0.0
O319 O 0.62267 0.16268 0.78776 0.0
O320 O 0.69446 0.11431 0.82061 0.0
O321 O 0.5876 0.16271 0.85033 0.0
O322 O 0.65793 0.1257 0.89822 0.0
O323 O 0.62675 0.08221 0.82299 0.0
O324 O 0.62444 0.15551 0.89608 0.0
O325 O 0.58517 0.12691 0.82346 0.0
O326 O 0.65606 0.08234 0.85692 0.0
O327 O 0.6302 0.19365 0.81955 0.0
O328 O 0.69747 0.15754 0.86213 0.0
O329 O 0.66432 0.11816 0.78754 0.0
Sc330 Sc 0.79468 0.61315 0.85904 0.0
Sc331 Sc 0.84277 0.66533 0.861 0.0
Sc332 Sc 0.84174 0.62016 0.80638 0.0
O333 O 0.82646 0.63282 0.84222 0.0
C334 C 0.83089 0.56477 0.83728 0.0
C335 C 0.82769 0.62851 0.91165 0.0
C336 C 0.89483 0.63449 0.83951 0.0
C337 C 0.77936 0.67554 0.86663 0.0
C338 C 0.77939 0.61123 0.79666 0.0
C339 C 0.8459 0.68336 0.79935 0.0
O340 O 0.81345 0.57414 0.85368 0.0
O341 O 0.84065 0.64753 0.90048 0.0
O342 O 0.88226 0.62343 0.82025 0.0
O343 O 0.77326 0.65063 0.86518 0.0
O344 O 0.80305 0.61557 0.78811 0.0
O345 O 0.84693 0.68807 0.82445 0.0
O346 O 0.77367 0.60946 0.82155 0.0
O347 O 0.80357 0.68393 0.86576 0.0
O348 O 0.84309 0.65988 0.78977 0.0
O349 O 0.81083 0.61418 0.89905 0.0
O350 O 0.84213 0.57903 0.81919 0.0
O351 O 0.88332 0.64958 0.85688 0.0
Sc352 Sc 0.19549 0.37115 0.12745 0.0
Sc353 Sc 0.1503 0.31634 0.12617 0.0
Sc354 Sc 0.14189 0.36813 0.17392 0.0
O355 O 0.16256 0.35186 0.14244 0.0
C356 C 0.2023 0.3797 0.19093 0.0
C357 C 0.2143 0.30964 0.12526 0.0
C358 C 0.14215 0.30599 0.1895 0.0
C359 C 0.16743 0.34994 0.07358 0.0
C360 C 0.15499 0.41996 0.13867 0.0
C361 C 0.09433 0.3455 0.13776 0.0
O362 O 0.21168 0.37834 0.16707 0.0
O363 O 0.19049 0.30035 0.12498 0.0
O364 O 0.1403 0.3308 0.19519 0.0
O365 O 0.18309 0.36564 0.08628 0.0
O366 O 0.14127 0.40726 0.15614 0.0
O367 O 0.1086 0.32819 0.12541 0.0
O368 O 0.17529 0.40975 0.12678 0.0
O369 O 0.15406 0.33134 0.08524 0.0
O370 O 0.10378 0.3611 0.15558 0.0
O371 O 0.21933 0.33474 0.1263 0.0
O372 O 0.17753 0.37683 0.19628 0.0
O373 O 0.14555 0.29747 0.16548 0.0
Sc374 Sc 0.10463 0.67307 0.87511 0.0
Sc375 Sc 0.10777 0.62715 0.82127 0.0
Sc376 Sc 0.15524 0.62404 0.87355 0.0
O377 O 0.12246 0.64134 0.85665 0.0
C378 C 0.16577 0.68703 0.88323 0.0
C379 C 0.10087 0.68982 0.81261 0.0
C380 C 0.17172 0.62463 0.81215 0.0
C381 C 0.05407 0.64038 0.85551 0.0
C382 C 0.12091 0.63541 0.92532 0.0
C383 C 0.12302 0.57291 0.8508 0.0
O384 O 0.14168 0.69403 0.87898 0.0
O385 O 0.10583 0.66639 0.80376 0.0
O386 O 0.1772 0.62621 0.83696 0.0
O387 O 0.0659 0.65499 0.87273 0.0
O388 O 0.13672 0.6204 0.91212 0.0
O389 O 0.1082 0.58638 0.83501 0.0
O390 O 0.10915 0.6557 0.91495 0.0
O391 O 0.06619 0.63005 0.83525 0.0
O392 O 0.14143 0.58362 0.86495 0.0
O393 O 0.09843 0.69492 0.83767 0.0
O394 O 0.17332 0.66252 0.88359 0.0
O395 O 0.14776 0.62299 0.80322 0.0
Sc396 Sc 0.31316 0.11762 0.85582 0.0
Sc397 Sc 0.36336 0.16774 0.85576 0.0
Sc398 Sc 0.36554 0.11476 0.80838 0.0
O399 O 0.34739 0.13343 0.84002 0.0
C400 C 0.34799 0.0655 0.84549 0.0
C401 C 0.34424 0.13678 0.90918 0.0
C402 C 0.41573 0.13254 0.84283 0.0
C403 C 0.30017 0.17983 0.85718 0.0
C404 C 0.30432 0.10803 0.79261 0.0
C405 C 0.37094 0.1769 0.79214 0.0
O406 O 0.32962 0.07829 0.85769 0.0
O407 O 0.35977 0.15333 0.89709 0.0
O408 O 0.40408 0.11753 0.82597 0.0
O409 O 0.2934 0.15532 0.85571 0.0
O410 O 0.32905 0.1096 0.7868 0.0
O411 O 0.36834 0.18576 0.81614 0.0
O412 O 0.29548 0.11013 0.81665 0.0
O413 O 0.32457 0.18753 0.8581 0.0
O414 O 0.37081 0.15191 0.78661 0.0
O415 O 0.32644 0.12326 0.8968 0.0
O416 O 0.36224 0.07574 0.8268 0.0
O417 O 0.404 0.15195 0.85484 0.0
Sc418 Sc 0.87203 0.30565 0.86151 0.0
Sc419 Sc 0.8656 0.3565 0.81231 0.0
Sc420 Sc 0.81498 0.34788 0.86119 0.0
O421 O 0.85089 0.3367 0.84505 0.0
C422 C 0.81231 0.28418 0.86774 0.0
C423 C 0.87823 0.29463 0.7986 0.0
C424 C 0.80297 0.35197 0.79835 0.0
C425 C 0.91916 0.34635 0.84532 0.0
C426 C 0.85158 0.3379 0.91316 0.0
C427 C 0.84018 0.40493 0.84602 0.0
O428 O 0.83745 0.28038 0.86667 0.0
O429 O 0.87519 0.31923 0.79198 0.0
O430 O 0.79489 0.3486 0.82252 0.0
O431 O 0.90975 0.32636 0.85824 0.0
O432 O 0.83158 0.34839 0.90118 0.0
O433 O 0.85707 0.3958 0.82898 0.0
O434 O 0.86796 0.32193 0.9016 0.0
O435 O 0.90542 0.35968 0.82844 0.0
O436 O 0.82374 0.38995 0.85864 0.0
O437 O 0.87749 0.28655 0.82293 0.0
O438 O 0.80165 0.30728 0.86587 0.0
O439 O 0.82756 0.35542 0.79227 0.0
Sc440 Sc 0.60185 0.85764 0.80756 0.0
Sc441 Sc 0.65665 0.86042 0.85236 0.0
Sc442 Sc 0.6112 0.80618 0.8554 0.0
O443 O 0.62325 0.84149 0.8385 0.0
C444 C 0.55536 0.83688 0.84621 0.0
C445 C 0.61971 0.91121 0.83766 0.0
C446 C 0.62732 0.84166 0.90655 0.0
C447 C 0.66254 0.86462 0.78808 0.0
C448 C 0.59966 0.79499 0.79378 0.0
C449 C 0.67487 0.79849 0.85719 0.0
O450 O 0.56443 0.85371 0.82909 0.0
O451 O 0.63889 0.90021 0.85047 0.0
O452 O 0.61496 0.8224 0.89518 0.0
O453 O 0.63752 0.86257 0.78334 0.0
O454 O 0.60635 0.7868 0.81707 0.0
O455 O 0.67986 0.82358 0.85585 0.0
O456 O 0.59624 0.81965 0.78818 0.0
O457 O 0.67225 0.86446 0.81184 0.0
O458 O 0.65106 0.78931 0.85687 0.0
O459 O 0.60462 0.89815 0.82189 0.0
O460 O 0.56968 0.81825 0.85629 0.0
O461 O 0.64326 0.85742 0.89393 0.0
Sc462 Sc 0.84665 0.6755 0.12563 0.0
Sc463 Sc 0.79679 0.62515 0.1204 0.0
Sc464 Sc 0.84562 0.62094 0.17112 0.0
O465 O 0.82968 0.64059 0.13905 0.0
C466 C 0.8981 0.63988 0.13953 0.0
C467 C 0.83229 0.64522 0.07069 0.0
C468 C 0.8299 0.57187 0.13301 0.0
C469 C 0.78423 0.68817 0.11915 0.0
C470 C 0.85108 0.6823 0.1896 0.0
C471 C 0.78274 0.6155 0.18231 0.0
O472 O 0.88687 0.65916 0.12696 0.0
O473 O 0.81478 0.62969 0.08115 0.0
O474 O 0.84415 0.58249 0.15132 0.0
O475 O 0.80833 0.69588 0.12273 0.0
O476 O 0.84918 0.65727 0.19467 0.0
O477 O 0.77559 0.61946 0.15803 0.0
O478 O 0.85057 0.69172 0.16574 0.0
O479 O 0.77771 0.66355 0.11749 0.0
O480 O 0.80716 0.61486 0.18955 0.0
O481 O 0.84475 0.66305 0.0841 0.0
O482 O 0.88565 0.62485 0.15608 0.0
O483 O 0.81156 0.58459 0.12072 0.0
Sc484 Sc 0.35177 0.8106 0.13535 0.0
Sc485 Sc 0.35257 0.86351 0.18259 0.0
Sc486 Sc 0.30279 0.86161 0.13249 0.0
O487 O 0.33572 0.84527 0.15015 0.0
C488 C 0.33501 0.84005 0.08109 0.0
C489 C 0.40366 0.84599 0.14756 0.0
C490 C 0.33724 0.91374 0.14514 0.0
C491 C 0.35924 0.80163 0.19821 0.0
C492 C 0.28879 0.79914 0.13299 0.0
C493 C 0.29025 0.87041 0.19553 0.0
O494 O 0.34709 0.8222 0.09456 0.0
O495 O 0.39204 0.85919 0.16617 0.0
O496 O 0.31899 0.90119 0.13266 0.0
O497 O 0.35906 0.79398 0.17393 0.0
O498 O 0.28315 0.82387 0.13049 0.0
O499 O 0.3148 0.86982 0.20228 0.0
O500 O 0.31279 0.79055 0.13578 0.0
O501 O 0.35575 0.82605 0.20517 0.0
O502 O 0.28262 0.86762 0.17117 0.0
O503 O 0.39183 0.82785 0.13385 0.0
O504 O 0.31889 0.85688 0.09186 0.0
O505 O 0.35126 0.90296 0.16368 0.0
Sc506 Sc 0.64611 0.1797 0.11311 0.0
Sc507 Sc 0.64377 0.13363 0.16739 0.0
Sc508 Sc 0.69425 0.12832 0.11756 0.0
O509 O 0.66135 0.14721 0.13278 0.0
C510 C 0.66029 0.14037 0.06494 0.0
C511 C 0.59232 0.15147 0.1331 0.0
C512 C 0.65696 0.07894 0.13611 0.0
C513 C 0.64321 0.19785 0.17452 0.0
C514 C 0.70907 0.1896 0.10653 0.0
C515 C 0.70639 0.12553 0.18023 0.0
O516 O 0.64607 0.15898 0.07522 0.0
O517 O 0.60321 0.13743 0.15158 0.0
O518 O 0.67573 0.08946 0.12211 0.0
O519 O 0.6445 0.20311 0.14945 0.0
O520 O 0.71608 0.16552 0.11167 0.0
O521 O 0.68207 0.12837 0.18784 0.0
O522 O 0.68472 0.19689 0.1054 0.0
O523 O 0.64252 0.17392 0.18387 0.0
O524 O 0.71328 0.12522 0.15564 0.0
O525 O 0.60555 0.16736 0.11816 0.0
O526 O 0.6791 0.12874 0.0775 0.0
O527 O 0.64359 0.09213 0.15365 0.0
Sc528 Sc 0.34112 0.66882 0.63485 0.0
Sc529 Sc 0.29604 0.61417 0.6382 0.0
Sc530 Sc 0.34751 0.62003 0.68602 0.0
O531 O 0.32825 0.63441 0.653 0.0
C532 C 0.3962 0.63938 0.64808 0.0
C533 C 0.3233 0.63391 0.58375 0.0
C534 C 0.3363 0.56694 0.65259 0.0
C535 C 0.27744 0.67547 0.63496 0.0
C536 C 0.34967 0.68255 0.69747 0.0
C537 C 0.28638 0.60796 0.70123 0.0
O538 O 0.38206 0.65598 0.63481 0.0
O539 O 0.3077 0.61921 0.59748 0.0
O540 O 0.34742 0.58007 0.6713 0.0
O541 O 0.30126 0.68455 0.63348 0.0
O542 O 0.35031 0.65813 0.70454 0.0
O543 O 0.27937 0.60608 0.67684 0.0
O544 O 0.34627 0.68991 0.67307 0.0
O545 O 0.27203 0.65047 0.63698 0.0
O546 O 0.31015 0.61419 0.7083 0.0
O547 O 0.33753 0.65245 0.59422 0.0
O548 O 0.38668 0.62496 0.66718 0.0
O549 O 0.31761 0.57653 0.63803 0.0
Sc550 Sc 0.68218 0.35562 0.62645 0.0
Sc551 Sc 0.62998 0.31001 0.61342 0.0
Sc552 Sc 0.62411 0.35642 0.66704 0.0
O553 O 0.64531 0.34073 0.63561 0.0
C554 C 0.68419 0.35667 0.6903 0.0
C555 C 0.6917 0.29362 0.61527 0.0
C556 C 0.61723 0.29259 0.67398 0.0
C557 C 0.65563 0.34832 0.56882 0.0
C558 C 0.64863 0.4089 0.63942 0.0
C559 C 0.57646 0.34249 0.62602 0.0
O560 O 0.69512 0.35437 0.66729 0.0
O561 O 0.66712 0.28853 0.61127 0.0
O562 O 0.61757 0.31654 0.68326 0.0
O563 O 0.67298 0.35831 0.58456 0.0
O564 O 0.62973 0.39743 0.6526 0.0
O565 O 0.59033 0.3261 0.6123 0.0
O566 O 0.66881 0.39623 0.63025 0.0
O567 O 0.63839 0.33085 0.57627 0.0
O568 O 0.58598 0.35529 0.64604 0.0
O569 O 0.70012 0.31684 0.6215 0.0
O570 O 0.6589 0.35901 0.69338 0.0
O571 O 0.6208 0.28709 0.64915 0.0
Sc572 Sc 0.38277 0.31282 0.35506 0.0
Sc573 Sc 0.3848 0.36714 0.30918 0.0
Sc574 Sc 0.33386 0.36422 0.35843 0.0
O575 O 0.36721 0.3481 0.34102 0.0
C576 C 0.31921 0.30166 0.35845 0.0
C577 C 0.38963 0.30553 0.29161 0.0
C578 C 0.32314 0.37443 0.29548 0.0
C579 C 0.43567 0.34793 0.34226 0.0
C580 C 0.36579 0.34191 0.40999 0.0
C581 C 0.36769 0.41709 0.34576 0.0
O582 O 0.34345 0.29336 0.35735 0.0
O583 O 0.38991 0.33058 0.28655 0.0
O584 O 0.31501 0.37237 0.31981 0.0
O585 O 0.42393 0.32815 0.35384 0.0
O586 O 0.34857 0.35738 0.39899 0.0
O587 O 0.38147 0.40636 0.32704 0.0
O588 O 0.37995 0.32529 0.39657 0.0
O589 O 0.42371 0.36383 0.32631 0.0
O590 O 0.35047 0.40408 0.35958 0.0
O591 O 0.38687 0.29619 0.31532 0.0
O592 O 0.31321 0.32648 0.35883 0.0
O593 O 0.34767 0.37242 0.28883 0.0
Sc594 Sc 0.60736 0.67995 0.3595 0.0
Sc595 Sc 0.6009 0.63266 0.30698 0.0
Sc596 Sc 0.65673 0.63014 0.3507 0.0
O597 O 0.62161 0.64743 0.33908 0.0
C598 C 0.66994 0.6925 0.3586 0.0
C599 C 0.59651 0.6966 0.29831 0.0
C600 C 0.66147 0.62766 0.28657 0.0
C601 C 0.55344 0.64833 0.34762 0.0
C602 C 0.62843 0.64269 0.40728 0.0
C603 C 0.62161 0.5783 0.33497 0.0
O604 O 0.6455 0.69892 0.36131 0.0
O605 O 0.59543 0.67245 0.28979 0.0
O606 O 0.67148 0.62788 0.31009 0.0
O607 O 0.56732 0.66545 0.36025 0.0
O608 O 0.64546 0.63027 0.39269 0.0
O609 O 0.6053 0.59107 0.31987 0.0
O610 O 0.61305 0.66091 0.39805 0.0
O611 O 0.56276 0.63446 0.32812 0.0
O612 O 0.64052 0.58992 0.34767 0.0
O613 O 0.60052 0.70236 0.32295 0.0
O614 O 0.67751 0.6684 0.35438 0.0
O615 O 0.6364 0.62939 0.28219 0.0
Sc616 Sc 0.29399 0.62092 0.3724 0.0
Sc617 Sc 0.34327 0.67188 0.37253 0.0
Sc618 Sc 0.34113 0.62541 0.31938 0.0
O619 O 0.32605 0.63942 0.35474 0.0
C620 C 0.32956 0.57157 0.35327 0.0
C621 C 0.33076 0.6364 0.42353 0.0
C622 C 0.39462 0.64041 0.34978 0.0
C623 C 0.28011 0.68214 0.38169 0.0
C624 C 0.27905 0.61641 0.30947 0.0
C625 C 0.34313 0.68938 0.31125 0.0
O626 O 0.31265 0.58232 0.36919 0.0
O627 O 0.34539 0.65286 0.4107 0.0
O628 O 0.38127 0.62725 0.3327 0.0
O629 O 0.273 0.65803 0.37721 0.0
O630 O 0.30279 0.62119 0.30164 0.0
O631 O 0.34266 0.69451 0.33623 0.0
O632 O 0.27252 0.61518 0.33435 0.0
O633 O 0.30459 0.68967 0.38189 0.0
O634 O 0.34351 0.66552 0.30178 0.0
O635 O 0.31082 0.62436 0.41282 0.0
O636 O 0.3406 0.58424 0.33378 0.0
O637 O 0.38401 0.65794 0.36521 0.0
Sc638 Sc 0.64526 0.36637 0.30868 0.0
Sc639 Sc 0.69312 0.37325 0.36077 0.0
Sc640 Sc 0.65187 0.31611 0.35816 0.0
O641 O 0.6634 0.35202 0.3425 0.0
C642 C 0.59554 0.34089 0.34 0.0
C643 C 0.65342 0.42065 0.34306 0.0
C644 C 0.6579 0.3519 0.41031 0.0
C645 C 0.70722 0.37988 0.29821 0.0
C646 C 0.65106 0.30301 0.29605 0.0
C647 C 0.71536 0.31357 0.36755 0.0
O648 O 0.60524 0.35915 0.32472 0.0
O649 O 0.67118 0.41042 0.35829 0.0
O650 O 0.64714 0.33287 0.39725 0.0
O651 O 0.68369 0.37443 0.2898 0.0
O652 O 0.65529 0.29642 0.32035 0.0
O653 O 0.71926 0.33872 0.36501 0.0
O654 O 0.6458 0.32712 0.28889 0.0
O655 O 0.71311 0.38104 0.32311 0.0
O656 O 0.69212 0.30315 0.36649 0.0
O657 O 0.64256 0.40747 0.32393 0.0
O658 O 0.61005 0.32364 0.3519 0.0
O659 O 0.67579 0.36736 0.40037 0.0
Sc660 Sc 0.36581 0.309 0.62266 0.0
Sc661 Sc 0.36573 0.36117 0.67094 0.0
Sc662 Sc 0.31358 0.35725 0.62401 0.0
O663 O 0.34839 0.34238 0.63917 0.0
C664 C 0.3462 0.34114 0.57039 0.0
C665 C 0.41725 0.3455 0.63647 0.0
C666 C 0.34609 0.41058 0.63517 0.0
C667 C 0.37271 0.2989 0.68612 0.0
C668 C 0.30302 0.29472 0.61985 0.0
C669 C 0.30402 0.36518 0.68731 0.0
O670 O 0.36209 0.32459 0.58185 0.0
O671 O 0.40465 0.35972 0.65347 0.0
O672 O 0.32794 0.39736 0.62334 0.0
O673 O 0.37076 0.2903 0.66197 0.0
O674 O 0.2955 0.3189 0.62234 0.0
O675 O 0.32887 0.36498 0.69263 0.0
O676 O 0.32765 0.28769 0.6194 0.0
O677 O 0.37182 0.3238 0.69201 0.0
O678 O 0.29511 0.36264 0.66342 0.0
O679 O 0.40625 0.32607 0.62385 0.0
O680 O 0.3278 0.35362 0.58314 0.0
O681 O 0.36122 0.40043 0.65309 0.0
Sc682 Sc 0.60361 0.66834 0.62375 0.0
Sc683 Sc 0.61218 0.61481 0.66922 0.0
Sc684 Sc 0.65687 0.62227 0.61451 0.0
O685 O 0.62418 0.6351 0.63571 0.0
C686 C 0.61773 0.6404 0.56729 0.0
C687 C 0.55576 0.63048 0.64311 0.0
C688 C 0.62713 0.56688 0.63018 0.0
C689 C 0.60457 0.67493 0.68796 0.0
C690 C 0.6644 0.68666 0.6138 0.0
C691 C 0.67612 0.61244 0.67449 0.0
O692 O 0.60447 0.65684 0.58182 0.0
O693 O 0.57035 0.61743 0.65947 0.0
O694 O 0.64454 0.58017 0.61663 0.0
O695 O 0.6007 0.68392 0.66426 0.0
O696 O 0.67323 0.66275 0.61075 0.0
O697 O 0.65244 0.60977 0.68372 0.0
O698 O 0.63987 0.69166 0.61904 0.0
O699 O 0.61003 0.6505 0.69285 0.0
O700 O 0.68102 0.61784 0.64994 0.0
O701 O 0.56508 0.64874 0.62765 0.0
O702 O 0.63653 0.6258 0.57656 0.0
O703 O 0.61312 0.57718 0.64889 0.0
H704 H 0.13729 0.25123 0.18717 0.0
H705 H 0.14444 0.31729 0.24325 0.0
H706 H 0.14324 0.28603 0.28099 0.0
H707 H 0.14089 0.23992 0.29836 0.0
H708 H 0.13333 0.1738 0.2424 0.0
H709 H 0.13385 0.20509 0.20465 0.0
C710 C 0.13856 0.25879 0.20763 0.0
C711 C 0.14095 0.2866 0.21222 0.0
C712 C 0.13776 0.2407 0.22943 0.0
C713 C 0.14247 0.29601 0.23897 0.0
C714 C 0.14183 0.27814 0.26067 0.0
C715 C 0.13925 0.23232 0.27794 0.0
C716 C 0.1371 0.20449 0.2734 0.0
C717 C 0.13955 0.25043 0.25617 0.0
C718 C 0.13495 0.1951 0.24668 0.0
C719 C 0.13531 0.21299 0.22496 0.0
H720 H 0.70366 0.13328 0.23487 0.0
H721 H 0.75861 0.11217 0.17057 0.0
H722 H 0.79554 0.11032 0.20227 0.0
H723 H 0.81284 0.11563 0.24797 0.0
H724 H 0.75827 0.13666 0.31256 0.0
H725 H 0.72093 0.13753 0.28107 0.0
C726 C 0.72366 0.12809 0.22784 0.0
C727 C 0.7282 0.12301 0.20033 0.0
C728 C 0.74507 0.12713 0.24621 0.0
C729 C 0.75437 0.11637 0.1916 0.0
C730 C 0.77564 0.11528 0.20971 0.0
C731 C 0.7928 0.12039 0.2552 0.0
C732 C 0.78852 0.12609 0.2826 0.0
C733 C 0.77129 0.12084 0.23701 0.0
C734 C 0.76229 0.13211 0.29157 0.0
C735 C 0.74082 0.13265 0.27357 0.0
H736 H 0.85469 0.75004 0.29748 0.0
H737 H 0.87393 0.81317 0.24056 0.0
H738 H 0.87279 0.78091 0.2037 0.0
H739 H 0.86416 0.73544 0.18715 0.0
H740 H 0.84464 0.67205 0.24361 0.0
H741 H 0.84813 0.70378 0.28099 0.0
C742 C 0.85901 0.7567 0.27708 0.0
C743 C 0.86428 0.78408 0.2719 0.0
C744 C 0.85803 0.73805 0.25577 0.0
C745 C 0.86967 0.79229 0.24523 0.0
C746 C 0.86897 0.77385 0.22405 0.0
C747 C 0.86068 0.72848 0.20761 0.0
C748 C 0.85395 0.70137 0.21244 0.0
C749 C 0.86274 0.74679 0.22903 0.0
C750 C 0.84981 0.69277 0.2392 0.0
C751 C 0.85179 0.71093 0.26064 0.0
H752 H 0.22264 0.87914 0.30329 0.0
H753 H 0.15996 0.85081 0.25051 0.0
H754 H 0.19094 0.85183 0.21239 0.0
H755 H 0.23637 0.85931 0.194 0.0
H756 H 0.29897 0.88729 0.24703 0.0
H757 H 0.26749 0.88802 0.2847 0.0
C758 C 0.21569 0.87321 0.28347 0.0
C759 C 0.18894 0.86483 0.27999 0.0
C760 C 0.23364 0.87382 0.26147 0.0
C761 C 0.1804 0.85736 0.25399 0.0
C762 C 0.19813 0.85793 0.23205 0.0
C763 C 0.24305 0.86587 0.21371 0.0
C764 C 0.27008 0.87314 0.21755 0.0
C765 C 0.22485 0.86599 0.23555 0.0
C766 C 0.27835 0.88141 0.24338 0.0
C767 C 0.26035 0.88182 0.26504 0.0
H768 H 0.09321 0.79549 0.74212 0.0
H769 H 0.10266 0.7373 0.67807 0.0
H770 H 0.10281 0.70091 0.7111 0.0
H771 H 0.10223 0.68576 0.75796 0.0
H772 H 0.09361 0.74377 0.82225 0.0
H773 H 0.09111 0.78011 0.78911 0.0
C774 C 0.09506 0.77485 0.73528 0.0
C775 C 0.09798 0.76924 0.70755 0.0
C776 C 0.09545 0.75399 0.7544 0.0
C777 C 0.10043 0.74231 0.69921 0.0
C778 C 0.10057 0.72144 0.71811 0.0
C779 C 0.09972 0.70632 0.76485 0.0
C780 C 0.09826 0.71195 0.79266 0.0
C781 C 0.09844 0.7271 0.74574 0.0
C782 C 0.09486 0.73878 0.80103 0.0
C783 C 0.09344 0.75959 0.78208 0.0
H784 H 0.23866 0.10416 0.68434 0.0
H785 H 0.17269 0.0976 0.7409 0.0
H786 H 0.20407 0.09656 0.77834 0.0
H787 H 0.25001 0.10075 0.79537 0.0
H788 H 0.31589 0.10769 0.73873 0.0
H789 H 0.28476 0.10521 0.70123 0.0
C790 C 0.23113 0.10213 0.70481 0.0
C791 C 0.20334 0.10122 0.7097 0.0
C792 C 0.24926 0.10184 0.72639 0.0
C793 C 0.19399 0.09857 0.73645 0.0
C794 C 0.21191 0.09802 0.75796 0.0
C795 C 0.25759 0.10156 0.77485 0.0
C796 C 0.28525 0.10465 0.77003 0.0
C797 C 0.23956 0.10022 0.75321 0.0
C798 C 0.29469 0.10543 0.74319 0.0
C799 C 0.2769 0.10404 0.72163 0.0
H800 H 0.87153 0.24015 0.80232 0.0
H801 H 0.89071 0.30359 0.74571 0.0
H802 H 0.89142 0.27111 0.70898 0.0
H803 H 0.88447 0.22558 0.69254 0.0
H804 H 0.86402 0.16176 0.74823 0.0
H805 H 0.86612 0.19364 0.78578 0.0
C806 C 0.8762 0.24684 0.782 0.0
C807 C 0.88102 0.27436 0.77684 0.0
C808 C 0.87618 0.22807 0.76079 0.0
C809 C 0.8868 0.28263 0.75031 0.0
C810 C 0.8872 0.26405 0.72926 0.0
C811 C 0.88053 0.21845 0.71287 0.0
C812 C 0.87392 0.19123 0.71744 0.0
C813 C 0.88153 0.23685 0.73422 0.0
C814 C 0.8691 0.18255 0.74404 0.0
C815 C 0.87027 0.2008 0.76552 0.0
H816 H 0.72896 0.86044 0.6789 0.0
H817 H 0.79423 0.86298 0.73608 0.0
H818 H 0.7626 0.86645 0.77306 0.0
H819 H 0.71686 0.8673 0.7898 0.0
H820 H 0.65066 0.86411 0.73396 0.0
H821 H 0.6822 0.86265 0.69607 0.0
C822 C 0.73622 0.86187 0.69943 0.0
C823 C 0.764 0.86125 0.70451 0.0
C824 C 0.7178 0.86378 0.72099 0.0
C825 C 0.77302 0.86316 0.73135 0.0
C826 C 0.75493 0.86522 0.75267 0.0
C827 C 0.70919 0.86647 0.76938 0.0
C828 C 0.68139 0.86575 0.76486 0.0
C829 C 0.72733 0.86533 0.74777 0.0
C830 C 0.67198 0.86468 0.73813 0.0
C831 C 0.69001 0.86377 0.71641 0.0
H832 H 0.26366 0.1147 0.18279 0.0
H833 H 0.32939 0.10748 0.23899 0.0
H834 H 0.29791 0.10421 0.2763 0.0
H835 H 0.25211 0.10563 0.29363 0.0
H836 H 0.1858 0.11333 0.23833 0.0
H837 H 0.2171 0.11382 0.20027 0.0
C838 C 0.27109 0.11224 0.20316 0.0
C839 C 0.29896 0.11157 0.20789 0.0
C840 C 0.25278 0.11044 0.22485 0.0
C841 C 0.30813 0.10827 0.23454 0.0
C842 C 0.29012 0.10636 0.25603 0.0
C843 C 0.24438 0.10719 0.27327 0.0
C844 C 0.21658 0.10957 0.26901 0.0
C845 C 0.26245 0.10776 0.25148 0.0
C846 C 0.20708 0.11147 0.24235 0.0
C847 C 0.22499 0.11186 0.22051 0.0
H848 H 0.88173 0.24318 0.30163 0.0
H849 H 0.89429 0.1779 0.24545 0.0
H850 H 0.89822 0.20972 0.20847 0.0
H851 H 0.89611 0.25558 0.19151 0.0
H852 H 0.88267 0.32135 0.24683 0.0
H853 H 0.88132 0.28981 0.28458 0.0
C854 C 0.88552 0.23596 0.28134 0.0
C855 C 0.88747 0.20817 0.27639 0.0
C856 C 0.88756 0.25441 0.25991 0.0
C857 C 0.89238 0.19915 0.24991 0.0
C858 C 0.89471 0.21733 0.22866 0.0
C859 C 0.89309 0.26313 0.21181 0.0
C860 C 0.88939 0.2908 0.21621 0.0
C861 C 0.89201 0.24494 0.23337 0.0
C862 C 0.8855 0.30013 0.24275 0.0
C863 C 0.88468 0.28211 0.2644 0.0
H864 H 0.72383 0.87683 0.18199 0.0
H865 H 0.65847 0.87299 0.23959 0.0
H866 H 0.69058 0.87178 0.27654 0.0
H867 H 0.73688 0.87019 0.29228 0.0
H868 H 0.80228 0.87333 0.23471 0.0
H869 H 0.77018 0.87646 0.19783 0.0
C870 C 0.71652 0.87591 0.20261 0.0
C871 C 0.68875 0.87492 0.20796 0.0
C872 C 0.73503 0.87496 0.22373 0.0
C873 C 0.67972 0.87371 0.23485 0.0
C874 C 0.69805 0.87298 0.256 0.0
C875 C 0.74421 0.8716 0.2717 0.0
C876 C 0.77197 0.87139 0.2663 0.0
C877 C 0.72572 0.8733 0.25062 0.0
C878 C 0.78103 0.87338 0.23947 0.0
C879 C 0.7627 0.87517 0.21836 0.0
H880 H 0.08647 0.79255 0.26719 0.0
H881 H 0.11977 0.74035 0.32822 0.0
H882 H 0.1168 0.70212 0.29763 0.0
H883 H 0.1083 0.68432 0.25211 0.0
H884 H 0.07664 0.73735 0.19106 0.0
H885 H 0.075 0.7743 0.22325 0.0
C886 C 0.09299 0.77282 0.27388 0.0
C887 C 0.10362 0.76944 0.29979 0.0
C888 C 0.09145 0.75099 0.2562 0.0
C889 C 0.11164 0.7436 0.30826 0.0
C890 C 0.10996 0.72168 0.2908 0.0
C891 C 0.10054 0.70384 0.24614 0.0
C892 C 0.0928 0.7083 0.21937 0.0
C893 C 0.10033 0.72523 0.26456 0.0
C894 C 0.08296 0.73365 0.21162 0.0
C895 C 0.08207 0.75478 0.22993 0.0
H896 H 0.20996 0.8841 0.70494 0.0
H897 H 0.14801 0.85112 0.75652 0.0
H898 H 0.17947 0.85029 0.79432 0.0
H899 H 0.22553 0.85569 0.81141 0.0
H900 H 0.28719 0.88737 0.75846 0.0
H901 H 0.25467 0.89176 0.72236 0.0
C902 C 0.20319 0.87683 0.72446 0.0
C903 C 0.17679 0.86738 0.72783 0.0
C904 C 0.22137 0.87594 0.74577 0.0
C905 C 0.16827 0.85847 0.75339 0.0
C906 C 0.18628 0.85785 0.77495 0.0
C907 C 0.23182 0.86372 0.79204 0.0
C908 C 0.25885 0.87091 0.7876 0.0
C909 C 0.21304 0.86601 0.77117 0.0
C910 C 0.26661 0.88141 0.7624 0.0
C911 C 0.24803 0.88399 0.74171 0.0
H912 H 0.12224 0.24711 0.79856 0.0
H913 H 0.12088 0.31346 0.74221 0.0
H914 H 0.12039 0.28189 0.70457 0.0
H915 H 0.12158 0.23543 0.68747 0.0
H916 H 0.12262 0.16923 0.74404 0.0
H917 H 0.12197 0.20081 0.78157 0.0
C918 C 0.12174 0.25475 0.77807 0.0
C919 C 0.12167 0.28274 0.77338 0.0
C920 C 0.12147 0.23648 0.75644 0.0
C921 C 0.1209 0.2921 0.74658 0.0
C922 C 0.12069 0.27403 0.72496 0.0
C923 C 0.12161 0.22785 0.70799 0.0
C924 C 0.12223 0.19988 0.71276 0.0
C925 C 0.12117 0.24617 0.72964 0.0
C926 C 0.12212 0.19057 0.7396 0.0
C927 C 0.12179 0.20865 0.76117 0.0
H928 H 0.7957 0.10188 0.72951 0.0
H929 H 0.7437 0.12557 0.66417 0.0
H930 H 0.70532 0.12622 0.69499 0.0
H931 H 0.68688 0.12212 0.74107 0.0
H932 H 0.73969 0.09891 0.806 0.0
H933 H 0.7772 0.09599 0.77466 0.0
C934 C 0.77599 0.10708 0.72188 0.0
C935 C 0.77274 0.1138 0.69454 0.0
C936 C 0.75404 0.1076 0.73968 0.0
C937 C 0.7469 0.12033 0.68512 0.0
C938 C 0.72489 0.12076 0.70275 0.0
C939 C 0.70653 0.1162 0.74832 0.0
C940 C 0.71036 0.11094 0.77594 0.0
C941 C 0.72828 0.11472 0.73016 0.0
C942 C 0.73606 0.10331 0.78493 0.0
C943 C 0.75762 0.1016 0.76701 0.0
H944 H 0.85127 0.68106 0.745 0.0
H945 H 0.84523 0.73708 0.81134 0.0
H946 H 0.84772 0.77478 0.77989 0.0
H947 H 0.8503 0.79171 0.73364 0.0
H948 H 0.85605 0.73546 0.66741 0.0
H949 H 0.8551 0.69794 0.69898 0.0
C950 C 0.85049 0.7015 0.75265 0.0
C951 C 0.84795 0.70621 0.78046 0.0
C952 C 0.85191 0.72304 0.73453 0.0
C953 C 0.84719 0.73285 0.79 0.0
C954 C 0.84858 0.75444 0.77205 0.0
C955 C 0.8515 0.77127 0.72607 0.0
C956 C 0.85314 0.76647 0.69819 0.0
C957 C 0.85079 0.74974 0.74428 0.0
C958 C 0.85471 0.73981 0.68877 0.0
C959 C 0.85413 0.71829 0.70679 0.0
H960 H 0.32157 0.24086 0.12466 0.0
H961 H 0.2638 0.17672 0.11468 0.0
H962 H 0.22733 0.20918 0.11521 0.0
H963 H 0.21145 0.25535 0.11913 0.0
H964 H 0.26841 0.32009 0.12915 0.0
H965 H 0.30542 0.28776 0.12793 0.0
C966 C 0.30103 0.23397 0.12247 0.0
C967 C 0.29562 0.20626 0.11967 0.0
C968 C 0.2799 0.25283 0.12287 0.0
C969 C 0.26876 0.19783 0.11693 0.0
C970 C 0.24777 0.2164 0.11723 0.0
C971 C 0.23192 0.26253 0.12106 0.0
C972 C 0.237 0.2902 0.12429 0.0
C973 C 0.25308 0.24389 0.12033 0.0
C974 C 0.2638 0.29894 0.12664 0.0
C975 C 0.28502 0.28045 0.12595 0.0
H976 H 0.22004 0.68376 0.87608 0.0
H977 H 0.15637 0.73926 0.89658 0.0
H978 H 0.1881 0.77651 0.89617 0.0
H979 H 0.23314 0.79382 0.88747 0.0
H980 H 0.29708 0.73887 0.86645 0.0
H981 H 0.26599 0.70099 0.86966 0.0
C982 C 0.21321 0.70394 0.88086 0.0
C983 C 0.18586 0.7087 0.88619 0.0
C984 C 0.23151 0.72545 0.88023 0.0
C985 C 0.17729 0.73503 0.89218 0.0
C986 C 0.1954 0.75639 0.89192 0.0
C987 C 0.24035 0.77358 0.88361 0.0
C988 C 0.26735 0.76928 0.87651 0.0
C989 C 0.22242 0.75191 0.88547 0.0
C990 C 0.27636 0.74282 0.8719 0.0
C991 C 0.2586 0.72111 0.87372 0.0
H992 H 0.30425 0.23473 0.85766 0.0
H993 H 0.24647 0.16969 0.85782 0.0
H994 H 0.20984 0.20173 0.85825 0.0
H995 H 0.19387 0.2478 0.8586 0.0
H996 H 0.25076 0.31347 0.85841 0.0
H997 H 0.28794 0.28149 0.85797 0.0
C998 C 0.28366 0.22758 0.85785 0.0
C999 C 0.27826 0.19983 0.85773 0.0
C1000 C 0.26244 0.24616 0.85807 0.0
C1001 C 0.25138 0.19093 0.85789 0.0
C1002 C 0.2303 0.20922 0.85814 0.0
C1003 C 0.21437 0.25521 0.85847 0.0
C1004 C 0.21945 0.28297 0.85859 0.0
C1005 C 0.23559 0.23683 0.85823 0.0
C1006 C 0.24622 0.29215 0.85837 0.0
C1007 C 0.26753 0.2739 0.85812 0.0
H1008 H 0.74484 0.17754 0.85885 0.0
H1009 H 0.68293 0.23194 0.88682 0.0
H1010 H 0.7158 0.26762 0.89166 0.0
H1011 H 0.76095 0.28451 0.88474 0.0
H1012 H 0.82342 0.2314 0.85604 0.0
H1013 H 0.7915 0.19393 0.85517 0.0
C1014 C 0.73863 0.19712 0.86627 0.0
C1015 C 0.71142 0.20215 0.87203 0.0
C1016 C 0.75764 0.21779 0.86882 0.0
C1017 C 0.70368 0.22759 0.88179 0.0
C1018 C 0.72245 0.24805 0.88465 0.0
C1019 C 0.76767 0.26471 0.87842 0.0
C1020 C 0.79433 0.26078 0.87011 0.0
C1021 C 0.74929 0.24354 0.87765 0.0
C1022 C 0.80289 0.23491 0.86248 0.0
C1023 C 0.78465 0.21354 0.86185 0.0
H1024 H 0.67222 0.74412 0.86523 0.0
H1025 H 0.729 0.80897 0.85411 0.0
H1026 H 0.76617 0.77705 0.85723 0.0
H1027 H 0.78267 0.7305 0.86204 0.0
H1028 H 0.72555 0.66588 0.87294 0.0
H1029 H 0.68864 0.698 0.87114 0.0
C1030 C 0.6927 0.75139 0.86348 0.0
C1031 C 0.69763 0.77905 0.85934 0.0
C1032 C 0.71406 0.73292 0.86534 0.0
C1033 C 0.72444 0.78788 0.85728 0.0
C1034 C 0.74578 0.7696 0.85908 0.0
C1035 C 0.76218 0.72341 0.86429 0.0
C1036 C 0.75709 0.69565 0.86764 0.0
C1037 C 0.74085 0.74204 0.86302 0.0
C1038 C 0.73027 0.68701 0.87033 0.0
C1039 C 0.70904 0.7054 0.86924 0.0
H1040 H 0.78836 0.74316 0.12056 0.0
H1041 H 0.73077 0.67852 0.11264 0.0
H1042 H 0.69445 0.71089 0.10952 0.0
H1043 H 0.6786 0.75716 0.10999 0.0
H1044 H 0.73537 0.82235 0.11831 0.0
H1045 H 0.77231 0.79008 0.12011 0.0
C1046 C 0.76788 0.73615 0.11811 0.0
C1047 C 0.76245 0.70837 0.11692 0.0
C1048 C 0.74685 0.75493 0.11634 0.0
C1049 C 0.73571 0.69972 0.11367 0.0
C1050 C 0.71482 0.71823 0.11186 0.0
C1051 C 0.69903 0.76442 0.11206 0.0
C1052 C 0.7041 0.79217 0.11405 0.0
C1053 C 0.72013 0.74584 0.11329 0.0
C1054 C 0.7308 0.80109 0.11672 0.0
C1055 C 0.75197 0.78265 0.11782 0.0
H1056 H 0.17795 0.73847 0.13493 0.0
H1057 H 0.2298 0.66947 0.14432 0.0
H1058 H 0.26923 0.69866 0.14302 0.0
H1059 H 0.28907 0.74408 0.13873 0.0
H1060 H 0.236 0.81229 0.12875 0.0
H1061 H 0.1973 0.78304 0.13075 0.0
C1062 C 0.19784 0.72975 0.13681 0.0
C1063 C 0.20083 0.70186 0.13968 0.0
C1064 C 0.22039 0.74652 0.13583 0.0
C1065 C 0.22685 0.69094 0.142 0.0
C1066 C 0.24946 0.70761 0.14125 0.0
C1067 C 0.26906 0.75249 0.13691 0.0
C1068 C 0.26569 0.78037 0.13352 0.0
C1069 C 0.24649 0.73547 0.13803 0.0
C1070 C 0.23948 0.79091 0.13129 0.0
C1071 C 0.21714 0.77422 0.13248 0.0
H1072 H 0.76157 0.18758 0.12188 0.0
H1073 H 0.7027 0.23963 0.085 0.0
H1074 H 0.73456 0.27677 0.08519 0.0
H1075 H 0.77808 0.29531 0.09813 0.0
H1076 H 0.83702 0.24364 0.1354 0.0
H1077 H 0.80618 0.20565 0.13268 0.0
C1078 C 0.75585 0.20692 0.11352 0.0
C1079 C 0.72973 0.2108 0.10362 0.0
C1080 C 0.77417 0.22842 0.11399 0.0
C1081 C 0.72262 0.23609 0.09297 0.0
C1082 C 0.7408 0.25741 0.09309 0.0
C1083 C 0.78423 0.27575 0.10564 0.0
C1084 C 0.80975 0.27246 0.11711 0.0
C1085 C 0.76643 0.25395 0.10403 0.0
C1086 C 0.81746 0.24683 0.12648 0.0
C1087 C 0.79983 0.22504 0.12495 0.0
H1088 H 0.6735 0.6032 0.72841 0.0
H1089 H 0.72987 0.61747 0.66339 0.0
H1090 H 0.76689 0.61733 0.69543 0.0
H1091 H 0.78296 0.61518 0.74199 0.0
H1092 H 0.72624 0.60166 0.80689 0.0
H1093 H 0.68965 0.59947 0.77458 0.0
C1094 C 0.69387 0.60611 0.72113 0.0
C1095 C 0.69881 0.61046 0.69351 0.0
C1096 C 0.71502 0.60628 0.73962 0.0
C1097 C 0.72542 0.61414 0.68454 0.0
C1098 C 0.74663 0.61411 0.70285 0.0
C1099 C 0.76263 0.61163 0.74911 0.0
C1100 C 0.75741 0.60874 0.77688 0.0
C1101 C 0.7416 0.61053 0.73046 0.0
C1102 C 0.7309 0.60407 0.78566 0.0
C1103 C 0.70992 0.6028 0.76721 0.0
H1104 H 0.24043 0.37193 0.79734 0.0
H1105 H 0.17337 0.38009 0.74301 0.0
H1106 H 0.20387 0.37867 0.70443 0.0
H1107 H 0.2495 0.3728 0.68592 0.0
H1108 H 0.31614 0.36427 0.74082 0.0
H1109 H 0.28584 0.3681 0.7791 0.0
C1110 C 0.23244 0.37373 0.77711 0.0
C1111 C 0.20459 0.37601 0.77322 0.0
C1112 C 0.25002 0.37257 0.75495 0.0
C1113 C 0.19471 0.37825 0.74673 0.0
C1114 C 0.21213 0.37734 0.72457 0.0
C1115 C 0.2574 0.37183 0.70624 0.0
C1116 C 0.28509 0.36813 0.71031 0.0
C1117 C 0.23981 0.37407 0.72841 0.0
C1118 C 0.29494 0.3671 0.7369 0.0
C1119 C 0.27762 0.36929 0.75893 0.0
H1120 H 0.22385 0.62007 0.31236 0.0
H1121 H 0.28934 0.6022 0.25775 0.0
H1122 H 0.25833 0.59868 0.22044 0.0
H1123 H 0.21331 0.60355 0.20226 0.0
H1124 H 0.14714 0.62168 0.25581 0.0
H1125 H 0.17756 0.62188 0.29424 0.0
C1126 C 0.23123 0.61512 0.29236 0.0
C1127 C 0.25897 0.61184 0.28794 0.0
C1128 C 0.21319 0.61325 0.2706 0.0
C1129 C 0.26817 0.60533 0.26182 0.0
C1130 C 0.25044 0.60322 0.24034 0.0
C1131 C 0.20543 0.60734 0.22234 0.0
C1132 C 0.17799 0.61278 0.22596 0.0
C1133 C 0.22301 0.60766 0.24435 0.0
C1134 C 0.1682 0.61744 0.25228 0.0
C1135 C 0.18561 0.61766 0.27435 0.0
H1136 H 0.70582 0.37023 0.24414 0.0
H1137 H 0.7588 0.39608 0.30782 0.0
H1138 H 0.79658 0.39629 0.27644 0.0
H1139 H 0.81518 0.38666 0.23164 0.0
H1140 H 0.76222 0.36027 0.16815 0.0
H1141 H 0.724 0.36285 0.1988 0.0
C1142 C 0.72554 0.37624 0.25113 0.0
C1143 C 0.72938 0.38296 0.27838 0.0
C1144 C 0.74733 0.37602 0.23307 0.0
C1145 C 0.75518 0.39064 0.287 0.0
C1146 C 0.77688 0.39073 0.26908 0.0
C1147 C 0.79528 0.38156 0.22444 0.0
C1148 C 0.79174 0.3731 0.19764 0.0
C1149 C 0.77328 0.38299 0.24219 0.0
C1150 C 0.76569 0.36676 0.18868 0.0
C1151 C 0.74373 0.36822 0.2062 0.0
H1152 H 0.17746 0.59682 0.76519 0.0
H1153 H 0.21827 0.65195 0.81817 0.0
H1154 H 0.25856 0.64975 0.7901 0.0
H1155 H 0.28208 0.63285 0.74989 0.0
H1156 H 0.24144 0.57742 0.69706 0.0
H1157 H 0.20165 0.57854 0.72587 0.0
C1158 C 0.1951 0.60852 0.77034 0.0
C1159 C 0.19487 0.62464 0.7935 0.0
C1160 C 0.21846 0.60676 0.7544 0.0
C1161 C 0.21801 0.63938 0.80032 0.0
C1162 C 0.2411 0.63807 0.78438 0.0
C1163 C 0.26472 0.6206 0.74505 0.0
C1164 C 0.26471 0.60509 0.72145 0.0
C1165 C 0.24163 0.62173 0.76142 0.0
C1166 C 0.2419 0.58959 0.71516 0.0
C1167 C 0.21905 0.59034 0.73151 0.0
H1168 H 0.74783 0.35573 0.80098 0.0
H1169 H 0.81413 0.34746 0.74495 0.0
H1170 H 0.78326 0.34821 0.70733 0.0
H1171 H 0.73823 0.35174 0.68996 0.0
H1172 H 0.67077 0.36021 0.74436 0.0
H1173 H 0.70142 0.35889 0.78293 0.0
C1174 C 0.75547 0.354 0.78054 0.0
C1175 C 0.78336 0.3517 0.77593 0.0
C1176 C 0.73749 0.35459 0.75867 0.0
C1177 C 0.79287 0.34951 0.74925 0.0
C1178 C 0.77522 0.34989 0.72762 0.0
C1179 C 0.73001 0.35335 0.7102 0.0
C1180 C 0.70215 0.35618 0.71414 0.0
C1181 C 0.74759 0.35257 0.73208 0.0
C1182 C 0.69212 0.35811 0.74065 0.0
C1183 C 0.70965 0.35732 0.76273 0.0
H1184 H 0.26832 0.37744 0.29917 0.0
H1185 H 0.33404 0.38106 0.24197 0.0
H1186 H 0.30254 0.38507 0.20503 0.0
H1187 H 0.25661 0.38478 0.18841 0.0
H1188 H 0.19046 0.3806 0.24497 0.0
H1189 H 0.2219 0.37997 0.2825 0.0
C1190 C 0.27576 0.3793 0.27866 0.0
C1191 C 0.30355 0.37867 0.27349 0.0
C1192 C 0.25748 0.3815 0.25725 0.0
C1193 C 0.31278 0.38125 0.2467 0.0
C1194 C 0.29478 0.38358 0.22544 0.0
C1195 C 0.24898 0.38401 0.20893 0.0
C1196 C 0.22119 0.38252 0.21374 0.0
C1197 C 0.26711 0.38331 0.23043 0.0
C1198 C 0.21176 0.38166 0.24056 0.0
C1199 C 0.22973 0.38121 0.2621 0.0
H1200 H 0.71276 0.61012 0.28776 0.0
H1201 H 0.65172 0.63891 0.23331 0.0
H1202 H 0.68345 0.63589 0.19559 0.0
H1203 H 0.72928 0.62726 0.17872 0.0
H1204 H 0.7898 0.59868 0.23404 0.0
H1205 H 0.7573 0.5993 0.27074 0.0
C1206 C 0.70633 0.61577 0.26766 0.0
C1207 C 0.68002 0.62499 0.26341 0.0
C1208 C 0.72455 0.61399 0.2462 0.0
C1209 C 0.67191 0.63179 0.23714 0.0
C1210 C 0.69004 0.63011 0.21558 0.0
C1211 C 0.73527 0.62085 0.19872 0.0
C1212 C 0.76201 0.61315 0.20361 0.0
C1213 C 0.71651 0.62148 0.21994 0.0
C1214 C 0.76943 0.60494 0.2297 0.0
C1215 C 0.75087 0.6053 0.25076 0.0
H1216 H 0.28195 0.72965 0.63847 0.0
H1217 H 0.22328 0.66602 0.63086 0.0
H1218 H 0.18726 0.69944 0.62975 0.0
H1219 H 0.17272 0.7465 0.63065 0.0
H1220 H 0.23166 0.80986 0.63871 0.0
H1221 H 0.26749 0.77641 0.6399 0.0
C1222 C 0.26131 0.72296 0.63647 0.0
C1223 C 0.25535 0.69532 0.63458 0.0
C1224 C 0.24082 0.74217 0.63591 0.0
C1225 C 0.22844 0.68714 0.63232 0.0
C1226 C 0.20786 0.70623 0.63165 0.0
C1227 C 0.1934 0.75308 0.63256 0.0
C1228 C 0.19949 0.78071 0.63444 0.0
C1229 C 0.21387 0.73378 0.63335 0.0
C1230 C 0.22639 0.78877 0.63719 0.0
C1231 C 0.24689 0.76966 0.63786 0.0
H1232 H 0.32113 0.2463 0.35602 0.0
H1233 H 0.26574 0.313 0.36242 0.0
H1234 H 0.22804 0.28209 0.36309 0.0
H1235 H 0.21022 0.2363 0.36164 0.0
H1236 H 0.26494 0.16917 0.35512 0.0
H1237 H 0.30307 0.20001 0.35476 0.0
C1238 C 0.30084 0.25408 0.35762 0.0
C1239 C 0.29654 0.28207 0.35917 0.0
C1240 C 0.27891 0.2361 0.35797 0.0
C1241 C 0.26994 0.29165 0.36118 0.0
C1242 C 0.24819 0.27396 0.36157 0.0
C1243 C 0.23045 0.22833 0.36018 0.0
C1244 C 0.23451 0.20036 0.35844 0.0
C1245 C 0.25239 0.24616 0.35994 0.0
C1246 C 0.26103 0.19057 0.35652 0.0
C1247 C 0.28295 0.20821 0.3563 0.0
H1248 H 0.17534 0.75231 0.38976 0.0
H1249 H 0.23312 0.81615 0.3776 0.0
H1250 H 0.26968 0.78357 0.37895 0.0
H1251 H 0.28502 0.73671 0.38051 0.0
H1252 H 0.22693 0.67295 0.39147 0.0
H1253 H 0.19081 0.70588 0.39381 0.0
C1254 C 0.19592 0.7592 0.38765 0.0
C1255 C 0.20138 0.78663 0.38337 0.0
C1256 C 0.21685 0.74037 0.3881 0.0
C1257 C 0.22825 0.79512 0.38074 0.0
C1258 C 0.24922 0.77651 0.3815 0.0
C1259 C 0.26451 0.73002 0.38373 0.0
C1260 C 0.25872 0.70239 0.3856 0.0
C1261 C 0.24371 0.74904 0.38471 0.0
C1262 C 0.23198 0.69409 0.38971 0.0
C1263 C 0.21127 0.7129 0.39107 0.0
H1264 H 0.72483 0.68935 0.35435 0.0
H1265 H 0.65962 0.74589 0.36505 0.0
H1266 H 0.6911 0.78302 0.36522 0.0
H1267 H 0.73677 0.79996 0.36176 0.0
H1268 H 0.80265 0.74435 0.35153 0.0
H1269 H 0.77128 0.70655 0.35183 0.0
C1270 C 0.71754 0.70977 0.35681 0.0
C1271 C 0.68984 0.71463 0.35963 0.0
C1272 C 0.73583 0.73133 0.35695 0.0
C1273 C 0.68079 0.74133 0.36283 0.0
C1274 C 0.69878 0.76273 0.3629 0.0
C1275 C 0.74433 0.7796 0.35956 0.0
C1276 C 0.77199 0.77506 0.35657 0.0
C1277 C 0.72628 0.758 0.35985 0.0
C1278 C 0.78141 0.74846 0.35396 0.0
C1279 C 0.76349 0.7268 0.35407 0.0
H1280 H 0.71434 0.26141 0.38345 0.0
H1281 H 0.76885 0.32424 0.35823 0.0
H1282 H 0.80623 0.2922 0.35893 0.0
H1283 H 0.82271 0.24542 0.36367 0.0
H1284 H 0.76708 0.18323 0.38852 0.0
H1285 H 0.73102 0.21603 0.39101 0.0
C1286 C 0.7344 0.26823 0.37823 0.0
C1287 C 0.73867 0.29517 0.37055 0.0
C1288 C 0.75566 0.24974 0.37847 0.0
C1289 C 0.76493 0.30363 0.36421 0.0
C1290 C 0.78631 0.28528 0.3645 0.0
C1291 C 0.80278 0.23909 0.36991 0.0
C1292 C 0.7977 0.21173 0.37562 0.0
C1293 C 0.78183 0.25814 0.37115 0.0
C1294 C 0.77167 0.20401 0.38373 0.0
C1295 C 0.75093 0.22278 0.38518 0.0
H1296 H 0.7592 0.18706 0.60682 0.0
H1297 H 0.82315 0.24222 0.62705 0.0
H1298 H 0.79148 0.27958 0.62686 0.0
H1299 H 0.7456 0.29625 0.62265 0.0
H1300 H 0.68156 0.24096 0.60306 0.0
H1301 H 0.71357 0.20394 0.60126 0.0
C1302 C 0.7663 0.20725 0.61104 0.0
C1303 C 0.79348 0.21177 0.61704 0.0
C1304 C 0.74802 0.22861 0.61111 0.0
C1305 C 0.8023 0.23812 0.62243 0.0
C1306 C 0.78423 0.25952 0.62237 0.0
C1307 C 0.7386 0.27614 0.61788 0.0
C1308 C 0.71121 0.27141 0.61312 0.0
C1309 C 0.75702 0.25492 0.61701 0.0
C1310 C 0.70254 0.2452 0.60689 0.0
C1311 C 0.7208 0.22399 0.60586 0.0
H1312 H 0.30481 0.2406 0.63065 0.0
H1313 H 0.25243 0.30402 0.60267 0.0
H1314 H 0.2148 0.27313 0.60176 0.0
H1315 H 0.19601 0.22891 0.61047 0.0
H1316 H 0.24733 0.16461 0.63803 0.0
H1317 H 0.28596 0.19498 0.6375 0.0
C1318 C 0.28523 0.24749 0.62409 0.0
C1319 C 0.28143 0.27461 0.61708 0.0
C1320 C 0.26336 0.22958 0.62373 0.0
C1321 C 0.25589 0.28331 0.6086 0.0
C1322 C 0.23427 0.26568 0.60802 0.0
C1323 C 0.21561 0.22152 0.61643 0.0
C1324 C 0.21873 0.19467 0.62445 0.0
C1325 C 0.23766 0.23893 0.61594 0.0
C1326 C 0.24438 0.18529 0.63175 0.0
C1327 C 0.2665 0.20262 0.63147 0.0
H1328 H 0.73106 0.79551 0.61662 0.0
H1329 H 0.79589 0.74019 0.59962 0.0
H1330 H 0.76427 0.70292 0.59818 0.0
H1331 H 0.71849 0.68533 0.60338 0.0
H1332 H 0.65349 0.74033 0.62065 0.0
H1333 H 0.68482 0.77804 0.62021 0.0
C1334 C 0.73828 0.77536 0.61238 0.0
C1335 C 0.76598 0.77089 0.60835 0.0
C1336 C 0.71992 0.75373 0.61171 0.0
C1337 C 0.77479 0.74446 0.60294 0.0
C1338 C 0.75669 0.72299 0.60211 0.0
C1339 C 0.71107 0.70555 0.60692 0.0
C1340 C 0.68354 0.70975 0.61212 0.0
C1341 C 0.72924 0.7273 0.60675 0.0
C1342 C 0.6745 0.73627 0.61661 0.0
C1343 C 0.69244 0.75796 0.61639 0.0
H1344 H 0.61546 0.18414 0.74092 0.0
H1345 H 0.63336 0.24046 0.80479 0.0
H1346 H 0.63019 0.27768 0.77344 0.0
H1347 H 0.62354 0.29464 0.72809 0.0
H1348 H 0.60704 0.23937 0.66315 0.0
H1349 H 0.60817 0.20158 0.6948 0.0
C1350 C 0.61869 0.20453 0.74795 0.0
C1351 C 0.62466 0.20928 0.77526 0.0
C1352 C 0.61693 0.22618 0.7297 0.0
C1353 C 0.62874 0.23596 0.78396 0.0
C1354 C 0.62689 0.25743 0.76604 0.0
C1355 C 0.61982 0.27439 0.72082 0.0
C1356 C 0.61511 0.26992 0.6933 0.0
C1357 C 0.62104 0.25279 0.73892 0.0
C1358 C 0.6107 0.24343 0.68427 0.0
C1359 C 0.61143 0.22178 0.70233 0.0
H1360 H 0.36105 0.74974 0.80437 0.0
H1361 H 0.34001 0.81449 0.7502 0.0
H1362 H 0.33924 0.78334 0.71246 0.0
H1363 H 0.34267 0.7372 0.69487 0.0
H1364 H 0.36384 0.6728 0.74949 0.0
H1365 H 0.36645 0.70431 0.78659 0.0
C1366 C 0.35642 0.75709 0.78432 0.0
C1367 C 0.35051 0.78438 0.78031 0.0
C1368 C 0.35592 0.73909 0.76258 0.0
C1369 C 0.34467 0.79354 0.75404 0.0
C1370 C 0.34415 0.77574 0.73233 0.0
C1371 C 0.34804 0.73012 0.71482 0.0
C1372 C 0.35277 0.70263 0.71925 0.0
C1373 C 0.34949 0.74839 0.73638 0.0
C1374 C 0.35978 0.69382 0.74535 0.0
C1375 C 0.36134 0.71183 0.76673 0.0
H1376 H 0.59958 0.69374 0.24338 0.0
H1377 H 0.59051 0.75039 0.30876 0.0
H1378 H 0.59205 0.78774 0.27681 0.0
H1379 H 0.59799 0.80457 0.23051 0.0
H1380 H 0.60804 0.74778 0.16534 0.0
H1381 H 0.60409 0.71048 0.19701 0.0
C1382 C 0.59761 0.71422 0.25067 0.0
C1383 C 0.59494 0.7191 0.27853 0.0
C1384 C 0.59891 0.73572 0.23221 0.0
C1385 C 0.59265 0.7459 0.28749 0.0
C1386 C 0.59358 0.76735 0.26921 0.0
C1387 C 0.5992 0.78406 0.22316 0.0
C1388 C 0.60342 0.77918 0.19547 0.0
C1389 C 0.59706 0.76253 0.24155 0.0
C1390 C 0.60491 0.75233 0.18648 0.0
C1391 C 0.60263 0.73088 0.2046 0.0
H1392 H 0.39179 0.25098 0.29435 0.0
H1393 H 0.39134 0.31695 0.2375 0.0
H1394 H 0.39132 0.28512 0.20007 0.0
H1395 H 0.3895 0.23853 0.18352 0.0
H1396 H 0.38957 0.17295 0.24092 0.0
H1397 H 0.39168 0.2048 0.27797 0.0
C1398 C 0.39182 0.2585 0.2738 0.0
C1399 C 0.39143 0.28635 0.26883 0.0
C1400 C 0.39162 0.24015 0.25239 0.0
C1401 C 0.39161 0.29561 0.24199 0.0
C1402 C 0.39153 0.27742 0.22053 0.0
C1403 C 0.39011 0.23118 0.20411 0.0
C1404 C 0.38923 0.20334 0.20931 0.0
C1405 C 0.39123 0.24963 0.2255 0.0
C1406 C 0.39012 0.19424 0.23619 0.0
C1407 C 0.39132 0.21244 0.25749 0.0
H1408 H 0.37459 0.2318 0.79461 0.0
H1409 H 0.37218 0.16577 0.73809 0.0
H1410 H 0.37352 0.19736 0.70052 0.0
H1411 H 0.37372 0.24381 0.68343 0.0
H1412 H 0.37614 0.30977 0.74006 0.0
H1413 H 0.37659 0.27813 0.77753 0.0
C1414 C 0.37449 0.22426 0.7741 0.0
C1415 C 0.37319 0.19635 0.76938 0.0
C1416 C 0.37523 0.24256 0.75243 0.0
C1417 C 0.37317 0.18709 0.74253 0.0
C1418 C 0.37389 0.20516 0.72092 0.0
C1419 C 0.37453 0.25131 0.70394 0.0
C1420 C 0.3748 0.27925 0.70872 0.0
C1421 C 0.37469 0.23296 0.7256 0.0
C1422 C 0.37587 0.28845 0.73556 0.0
C1423 C 0.37609 0.27034 0.75713 0.0
H1424 H 0.60942 0.7412 0.79584 0.0
H1425 H 0.58383 0.80458 0.74198 0.0
H1426 H 0.58233 0.77281 0.70473 0.0
H1427 H 0.59005 0.72763 0.68699 0.0
H1428 H 0.61607 0.66433 0.74075 0.0
H1429 H 0.61551 0.69562 0.77845 0.0
C1430 C 0.60332 0.74807 0.77602 0.0
C1431 C 0.59691 0.77526 0.77175 0.0
C1432 C 0.60267 0.72978 0.75459 0.0
C1433 C 0.58901 0.78377 0.74588 0.0
C1434 C 0.58816 0.76564 0.72451 0.0
C1435 C 0.59553 0.72062 0.70695 0.0
C1436 C 0.60321 0.69372 0.71094 0.0
C1437 C 0.59527 0.73869 0.72857 0.0
C1438 C 0.6101 0.68497 0.73702 0.0
C1439 C 0.60982 0.70283 0.75864 0.0
H1440 H 0.64065 0.30596 0.24177 0.0
H1441 H 0.66265 0.25019 0.30496 0.0
H1442 H 0.66162 0.21319 0.27324 0.0
H1443 H 0.65407 0.19609 0.22797 0.0
H1444 H 0.63301 0.25104 0.16398 0.0
H1445 H 0.63407 0.28869 0.19561 0.0
C1446 C 0.64531 0.28575 0.24857 0.0
C1447 C 0.65155 0.28105 0.27582 0.0
C1448 C 0.64474 0.26425 0.23014 0.0
C1449 C 0.65762 0.25461 0.28419 0.0
C1450 C 0.65704 0.23328 0.26606 0.0
C1451 C 0.64954 0.21626 0.22092 0.0
C1452 C 0.6433 0.22066 0.1937 0.0
C1453 C 0.65045 0.23782 0.23907 0.0
C1454 C 0.63787 0.24704 0.18487 0.0
C1455 C 0.63847 0.26862 0.20294 0.0
H1456 H 0.33741 0.79975 0.24867 0.0
H1457 H 0.38673 0.75502 0.19271 0.0
H1458 H 0.38538 0.71583 0.22221 0.0
H1459 H 0.36834 0.69333 0.26284 0.0
H1460 H 0.31958 0.73794 0.31931 0.0
H1461 H 0.32223 0.77784 0.29063 0.0
C1462 C 0.34828 0.7816 0.24327 0.0
C1463 C 0.36203 0.78023 0.21858 0.0
C1464 C 0.34707 0.75888 0.26014 0.0
C1465 C 0.37583 0.75648 0.21162 0.0
C1466 C 0.37498 0.734 0.22837 0.0
C1467 C 0.35815 0.71174 0.26868 0.0
C1468 C 0.34363 0.71269 0.2929 0.0
C1469 C 0.36018 0.73476 0.25239 0.0
C1470 C 0.33088 0.73678 0.30061 0.0
C1471 C 0.33244 0.75963 0.28431 0.0
H1472 H 0.14876 0.94978 0.38138 0.0
H1473 H 0.09605 0.94504 0.31259 0.0
H1474 H 0.09771 -0.00603 0.30773 0.0
H1475 H 0.1182 0.03726 0.31996 0.0
H1476 H 0.17268 0.04095 0.38745 0.0
H1477 H 0.16621 -0.00691 0.39575 0.0
C1478 C 0.13735 0.95937 0.36545 0.0
C1479 C 0.12265 0.94366 0.34712 0.0
C1480 C 0.13897 0.98729 0.36232 0.0
C1481 C 0.1077 0.95658 0.32689 0.0
C1482 C 0.10875 0.98456 0.324 0.0
C1483 C 0.12842 0.02768 0.33668 0.0
C1484 C 0.14621 0.04263 0.3528 0.0
C1485 C 0.12498 -0.0 0.34111 0.0
C1486 C 0.15918 0.02989 0.37446 0.0
C1487 C 0.15546 0.00251 0.37929 0.0
H1488 H 0.967 0.16795 0.37135 0.0
H1489 H 0.95925 0.10116 0.31622 0.0
H1490 H 0.0079 0.09601 0.31501 0.0
H1491 H 0.05266 0.11227 0.3269 0.0
H1492 H 0.06089 0.17969 0.38113 0.0
H1493 H 0.01208 0.18249 0.38553 0.0
C1494 C 0.97587 0.15206 0.35928 0.0
C1495 C 0.95929 0.13513 0.34373 0.0
C1496 C 0.00403 0.14936 0.35838 0.0
C1497 C 0.97135 0.11466 0.32826 0.0
C1498 C -0.00075 0.11168 0.32752 0.0
C1499 C 0.0439 0.12747 0.33991 0.0
C1500 C 0.06063 0.14588 0.35347 0.0
C1501 C 0.01579 0.12922 0.34208 0.0
C1502 C 0.04867 0.16529 0.37033 0.0
C1503 C 0.02068 0.16696 0.37281 0.0
H1504 H 0.82092 0.04003 0.36643 0.0
H1505 H 0.89537 0.04087 0.32126 0.0
H1506 H 0.89434 0.99196 0.31819 0.0
H1507 H 0.87072 0.94951 0.32517 0.0
H1508 H 0.7957 0.94841 0.36932 0.0
H1509 H 0.79873 -0.00303 0.37605 0.0
C1510 C 0.83713 0.02953 0.35622 0.0
C1511 C 0.85803 0.04417 0.34386 0.0
C1512 C 0.83622 0.0014 0.35411 0.0
C1513 C 0.87888 0.03017 0.33075 0.0
C1514 C 0.87831 0.00218 0.32893 0.0
C1515 C 0.85503 0.9598 0.33636 0.0
C1516 C 0.83284 0.94533 0.3464 0.0
C1517 C 0.85676 0.98769 0.33997 0.0
C1518 C 0.81294 0.95903 0.3612 0.0
C1519 C 0.81463 0.98682 0.36505 0.0
H1520 H 0.93662 0.8253 0.37663 0.0
H1521 H 0.93413 0.89287 0.32171 0.0
H1522 H 0.98274 0.89733 0.32432 0.0
H1523 H 0.02606 0.87903 0.33805 0.0
H1524 H 0.02885 0.81054 0.39176 0.0
H1525 H 0.97992 0.8098 0.39399 0.0
C1526 C 0.94662 0.84125 0.36551 0.0
C1527 C 0.93173 0.85839 0.34863 0.0
C1528 C 0.97466 0.84345 0.3667 0.0
C1529 C 0.94507 0.87912 0.33458 0.0
C1530 C 0.97291 0.8817 0.33602 0.0
C1531 C 0.01605 0.86408 0.3505 0.0
C1532 C 0.03116 0.84458 0.36431 0.0
C1533 C 0.98794 0.86346 0.35134 0.0
C1534 C 0.01776 0.82565 0.38067 0.0
C1535 C 0.98975 0.82515 0.38192 0.0
H1536 H 0.10152 0.03436 0.66321 0.0
H1537 H 0.15798 0.03484 0.59671 0.0
H1538 H 0.15514 0.98603 0.59367 0.0
H1539 H 0.14126 0.9432 0.61348 0.0
H1540 H 0.08592 0.9424 0.68083 0.0
H1541 H 0.08346 0.99144 0.6796 0.0
C1542 C 0.11291 0.02388 0.64776 0.0
C1543 C 0.13037 0.03827 0.63061 0.0
C1544 C 0.1116 -0.00427 0.6464 0.0
C1545 C 0.14466 0.02431 0.61047 0.0
C1546 C 0.14312 -0.00365 0.60873 0.0
C1547 C 0.12842 0.95369 0.62774 0.0
C1548 C 0.11424 0.93917 0.64757 0.0
C1549 C 0.12742 0.98184 0.62721 0.0
C1550 C 0.09726 0.95308 0.6655 0.0
C1551 C 0.09591 0.98114 0.66488 0.0
H1552 H 0.95278 0.15417 0.6133 0.0
H1553 H 0.94764 0.09041 0.67251 0.0
H1554 H -0.00336 0.08739 0.67329 0.0
H1555 H 0.04034 0.10604 0.66073 0.0
H1556 H 0.04515 0.17165 0.60351 0.0
H1557 H -0.00358 0.17068 0.59844 0.0
C1558 C 0.96225 0.1394 0.62628 0.0
C1559 C 0.94651 0.12282 0.64319 0.0
C1560 C 0.99026 0.13831 0.62718 0.0
C1561 C 0.95923 0.10354 0.65946 0.0
C1562 C 0.98723 0.1019 0.66 0.0
C1563 C 0.03085 0.12006 0.64696 0.0
C1564 C 0.04641 0.13919 0.63281 0.0
C1565 C 0.00288 0.11973 0.64453 0.0
C1566 C 0.03369 0.15693 0.61486 0.0
C1567 C 0.00583 0.15638 0.61195 0.0
H1568 H 0.86955 0.02676 0.65588 0.0
H1569 H 0.80995 0.04086 0.5945 0.0
H1570 H 0.80237 -0.00748 0.59045 0.0
H1571 H 0.81014 0.94614 0.60695 0.0
H1572 H 0.87001 0.93314 0.66849 0.0
H1573 H 0.87976 0.98084 0.66966 0.0
C1574 C 0.8551 0.01933 0.64137 0.0
C1575 C 0.84022 0.0376 0.62577 0.0
C1576 C 0.85058 0.99152 0.6393 0.0
C1577 C 0.82172 0.02739 0.60693 0.0
C1578 C 0.81723 -0.00032 0.60464 0.0
C1579 C 0.82544 0.95371 0.62046 0.0
C1580 C 0.83892 0.93586 0.63784 0.0
C1581 C 0.83112 0.98153 0.62117 0.0
C1582 C 0.8589 0.9462 0.65505 0.0
C1583 C 0.86464 0.97361 0.65577 0.0
H1584 H 0.93753 0.81273 0.60841 0.0
H1585 H 0.92629 0.88153 0.6605 0.0
H1586 H 0.97452 0.88863 0.66207 0.0
H1587 H 0.0198 0.87242 0.65307 0.0
H1588 H 0.03165 0.80312 0.60187 0.0
H1589 H 0.9833 0.79955 0.59516 0.0
C1590 C 0.94561 0.82949 0.61978 0.0
C1591 C 0.92835 0.84615 0.63478 0.0
C1592 C 0.97349 0.83335 0.62091 0.0
C1593 C 0.93914 0.86799 0.64919 0.0
C1594 C 0.96674 0.87216 0.65009 0.0
C1595 C 0.01188 0.85671 0.64018 0.0
C1596 C 0.02928 0.83778 0.62847 0.0
C1597 C 0.98411 0.85446 0.63675 0.0
C1598 C 0.01869 0.81786 0.61139 0.0
C1599 C 0.99101 0.8157 0.6076 0.0
H1600 H 0.33279 0.11345 0.03435 0.0
H1601 H 0.39795 0.17074 0.03741 0.0
H1602 H 0.39858 0.17339 0.98831 0.0
H1603 H 0.37909 0.16135 0.94431 0.0
H1604 H 0.3137 0.10425 0.94164 0.0
H1605 H 0.31488 0.09976 0.99046 0.0
C1606 C 0.34736 0.12632 0.02435 0.0
C1607 C 0.36519 0.14194 0.03983 0.0
C1608 C 0.34748 0.12802 -0.00402 0.0
C1609 C 0.38387 0.1585 0.02624 0.0
C1610 C 0.38422 0.16011 -0.00195 0.0
C1611 C 0.36516 0.14782 0.95434 0.0
C1612 C 0.34622 0.13335 0.93904 0.0
C1613 C 0.36584 0.14529 0.98268 0.0
C1614 C 0.32846 0.11582 0.95264 0.0
C1615 C 0.32909 0.11318 0.9807 0.0
H1616 H 0.88648 0.31434 0.94839 0.0
H1617 H 0.82562 0.37612 0.94291 0.0
H1618 H 0.82951 0.38479 0.99099 0.0
H1619 H 0.84721 0.37251 0.03489 0.0
H1620 H 0.90662 0.30949 0.04144 0.0
H1621 H 0.90665 0.30414 0.99246 0.0
C1622 C 0.87422 0.32986 0.95765 0.0
C1623 C 0.85552 0.34428 0.94204 0.0
C1624 C 0.87629 0.33458 0.98548 0.0
C1625 C 0.83992 0.36442 0.95441 0.0
C1626 C 0.84217 0.36948 0.98194 0.0
C1627 C 0.86046 0.35778 0.02571 0.0
C1628 C 0.87664 0.34121 0.04196 0.0
C1629 C 0.85986 0.35431 -0.00228 0.0
C1630 C 0.89382 0.32244 0.0295 0.0
C1631 C 0.89375 0.31926 0.00148 0.0
H1632 H 0.65542 0.87379 0.94129 0.0
H1633 H 0.58972 0.817 0.93805 0.0
H1634 H 0.5851 0.81865 0.98677 0.0
H1635 H 0.60171 0.83314 0.03042 0.0
H1636 H 0.66786 0.8892 0.03464 0.0
H1637 H 0.66988 0.89119 0.98546 0.0
C1638 C 0.63992 0.86199 0.95121 0.0
C1639 C 0.62326 0.845 0.93596 0.0
C1640 C 0.63743 0.8628 0.97945 0.0
C1641 C 0.60315 0.82998 0.94921 0.0
C1642 C 0.60041 0.83091 0.97714 0.0
C1643 C 0.61646 0.846 0.02067 0.0
C1644 C 0.63482 0.86069 0.03627 0.0
C1645 C 0.6178 0.84676 0.99247 0.0
C1646 C 0.65353 0.87753 0.02318 0.0
C1647 C 0.6548 0.87861 -0.00498 0.0
H1648 H 0.13908 0.60763 0.04792 0.0
H1649 H 0.11382 0.69065 0.05466 0.0
H1650 H 0.10515 0.69254 0.00682 0.0
H1651 H 0.10646 0.67195 0.96272 0.0
H1652 H 0.13349 0.58991 0.95394 0.0
H1653 H 0.1391 0.58622 0.00279 0.0
C1654 C 0.13181 0.6261 0.03884 0.0
C1655 C 0.12715 0.64887 0.05497 0.0
C1656 C 0.12683 0.62725 0.01094 0.0
C1657 C 0.11751 0.67266 0.04288 0.0
C1658 C 0.11245 0.67386 0.01544 0.0
C1659 C 0.11307 0.65306 0.97147 0.0
C1660 C 0.11954 0.63131 0.95476 0.0
C1661 C 0.11709 0.65136 -0.00071 0.0
C1662 C 0.12839 0.60704 0.96645 0.0
C1663 C 0.13179 0.60496 -0.00565 0.0
H1664 H 0.35647 0.81451 0.95845 0.0
H1665 H 0.30447 0.88346 0.94916 0.0
H1666 H 0.30338 0.88995 -0.00235 0.0
H1667 H 0.31398 0.87393 0.04314 0.0
H1668 H 0.36621 0.80509 0.05239 0.0
H1669 H 0.37044 0.80103 0.00384 0.0
C1670 C 0.34522 0.83115 0.96701 0.0
C1671 C 0.33025 0.84807 0.95015 0.0
C1672 C 0.34444 0.83478 -0.00492 0.0
C1673 C 0.31587 0.86972 0.96163 0.0
C1674 C 0.3152 0.87354 0.98944 0.0
C1675 C 0.32646 0.8582 0.03455 0.0
C1676 C 0.33935 0.83971 0.05152 0.0
C1677 C 0.32885 0.8558 0.00643 0.0
C1678 C 0.35573 0.81958 0.03994 0.0
C1679 C 0.35823 0.81714 0.01207 0.0
H1680 H 0.13625 0.32122 0.0386 0.0
H1681 H 0.1945 0.38562 0.04127 0.0
H1682 H 0.19364 0.38911 0.9923 0.0
H1683 H 0.17803 0.37262 0.94845 0.0
H1684 H 0.11991 0.30811 0.9458 0.0
H1685 H 0.11905 0.30618 -0.00515 0.0
C1686 C 0.14868 0.33613 0.02854 0.0
C1687 C 0.16554 0.35297 0.04379 0.0
C1688 C 0.14821 0.33803 0.00024 0.0
C1689 C 0.18137 0.37226 0.03022 0.0
C1690 C 0.18094 0.37429 0.00212 0.0
C1691 C 0.16502 0.35825 0.95854 0.0
C1692 C 0.14922 0.34044 0.94324 0.0
C1693 C 0.16468 0.35708 0.98689 0.0
C1694 C 0.13243 0.32203 0.95687 0.0
C1695 C 0.13192 0.32085 0.98502 0.0
H1696 H 0.62125 0.15862 0.03156 0.0
H1697 H 0.6885 0.1037 0.03527 0.0
H1698 H 0.68437 0.09465 0.98733 0.0
H1699 H 0.66596 0.10706 0.94374 0.0
H1700 H 0.60004 0.16349 0.9395 0.0
H1701 H 0.599 0.16658 0.98849 0.0
C1702 C 0.63485 0.14448 0.02196 0.0
C1703 C 0.65557 0.13246 0.0368 0.0
C1704 C 0.63267 0.13962 -0.00568 0.0
C1705 C 0.67265 0.11368 0.0242 0.0
C1706 C 0.67032 0.10842 -0.00322 0.0
C1707 C 0.65105 0.11971 0.95349 0.0
C1708 C 0.63366 0.13559 0.93799 0.0
C1709 C 0.65104 0.12202 0.98152 0.0
C1710 C 0.61405 0.15142 0.95097 0.0
C1711 C 0.61348 0.1533 0.97898 0.0
H1712 H 0.85639 0.65904 0.94678 0.0
H1713 H 0.80441 0.58949 0.94301 0.0
H1714 H 0.80294 0.58741 0.99209 0.0
H1715 H 0.81283 0.60781 0.03581 0.0
H1716 H 0.86389 0.67805 0.03951 0.0
H1717 H 0.86933 0.67717 0.99066 0.0
C1718 C 0.84502 0.64317 0.95662 0.0
C1719 C 0.83025 0.62469 0.94114 0.0
C1720 C 0.84383 0.64235 0.98486 0.0
C1721 C 0.81579 0.60417 0.95436 0.0
C1722 C 0.81485 0.60299 0.98246 0.0
C1723 C 0.8253 0.62285 0.02601 0.0
C1724 C 0.83758 0.64319 0.04135 0.0
C1725 C 0.82818 0.62242 -0.00212 0.0
C1726 C 0.85398 0.66227 0.02825 0.0
C1727 C 0.85711 0.66182 0.00027 0.0
H1728 H 0.05786 0.37919 0.16071 0.0
H1729 H 0.06498 0.3144 0.10304 0.0
H1730 H 0.01624 0.31328 0.09829 0.0
H1731 H 0.97183 0.32787 0.11345 0.0
H1732 H 0.96471 0.39145 0.17247 0.0
H1733 H 0.01349 0.39595 0.17347 0.0
C1734 C 0.04886 0.36492 0.14691 0.0
C1735 C 0.06512 0.34665 0.13253 0.0
C1736 C 0.02086 0.36407 0.1446 0.0
C1737 C 0.053 0.32855 0.11453 0.0
C1738 C 0.02511 0.32786 0.11183 0.0
C1739 C 0.98084 0.34294 0.12638 0.0
C1740 C 0.96456 0.35906 0.14313 0.0
C1741 C 0.00886 0.34509 0.12724 0.0
C1742 C 0.97671 0.3786 0.15953 0.0
C1743 C 0.00461 0.38116 0.16016 0.0
H1744 H 0.01898 0.61643 0.82068 0.0
H1745 H 0.02242 0.65794 0.89709 0.0
H1746 H 0.97367 0.65865 0.89962 0.0
H1747 H 0.92984 0.65063 0.87867 0.0
H1748 H 0.92643 0.60892 0.80237 0.0
H1749 H 0.97508 0.60512 0.80155 0.0
C1750 C 0.00912 0.62533 0.83806 0.0
C1751 C 0.02452 0.63739 0.85842 0.0
C1752 C 0.98091 0.6259 0.8394 0.0
C1753 C 0.01122 0.64871 0.88088 0.0
C1754 C 0.98324 0.6492 0.88239 0.0
C1755 C 0.9397 0.64056 0.86195 0.0
C1756 C 0.92435 0.63041 0.84053 0.0
C1757 C 0.96785 0.6384 0.86149 0.0
C1758 C 0.93759 0.61713 0.81915 0.0
C1759 C 0.96552 0.61493 0.81859 0.0
H1760 H 0.36662 0.94168 0.84582 0.0
H1761 H 0.2898 0.94405 0.88675 0.0
H1762 H 0.29304 -0.00701 0.8901 0.0
H1763 H 0.31418 0.03467 0.87508 0.0
H1764 H 0.38891 0.03204 0.83037 0.0
H1765 H 0.39001 0.98316 0.83498 0.0
C1766 C 0.35061 0.9528 0.85569 0.0
C1767 C 0.32762 0.93939 0.86532 0.0
C1768 C 0.35213 0.98076 0.85661 0.0
C1769 C 0.3075 0.954 0.87878 0.0
C1770 C 0.3093 0.98194 0.88061 0.0
C1771 C 0.33097 0.0235 0.86668 0.0
C1772 C 0.35115 0.03683 0.85188 0.0
C1773 C 0.33099 -0.0045 0.86859 0.0
C1774 C 0.37289 0.02213 0.84141 0.0
C1775 C 0.37353 -0.00576 0.84404 0.0
H1776 H 0.04086 0.37608 0.83126 0.0
H1777 H 0.04918 0.30799 0.88491 0.0
H1778 H 0.00056 0.30586 0.89039 0.0
H1779 H 0.95586 0.32004 0.87606 0.0
H1780 H 0.94753 0.38698 0.82097 0.0
H1781 H -0.00388 0.39299 0.82032 0.0
C1782 C 0.03213 0.36093 0.84441 0.0
C1783 C 0.04869 0.34194 0.85726 0.0
C1784 C 0.00415 0.35949 0.84711 0.0
C1785 C 0.03695 0.32269 0.87449 0.0
C1786 C 0.00912 0.32141 0.87763 0.0
C1787 C 0.96457 0.33619 0.86416 0.0
C1788 C 0.94803 0.35272 0.84823 0.0
C1789 C -0.00747 0.33921 0.86341 0.0
C1790 C 0.95975 0.37373 0.8332 0.0
C1791 C 0.98756 0.37716 0.83275 0.0
H1792 H 0.64568 0.94684 0.87026 0.0
H1793 H 0.58649 0.94266 0.80703 0.0
H1794 H 0.58584 0.99158 0.80386 0.0
H1795 H 0.60504 0.03558 0.81621 0.0
H1796 H 0.664 0.03919 0.8798 0.0
H1797 H 0.66153 0.99078 0.88554 0.0
C1798 C 0.63238 0.95658 0.856 0.0
C1799 C 0.61646 0.94092 0.83874 0.0
C1800 C 0.63219 0.98479 0.85408 0.0
C1801 C 0.59914 0.95407 0.82057 0.0
C1802 C 0.5988 0.98213 0.81861 0.0
C1803 C 0.61716 0.02583 0.83148 0.0
C1804 C 0.63494 0.04118 0.84718 0.0
C1805 C 0.61573 -0.0023 0.83481 0.0
C1806 C 0.65027 0.02807 0.86712 0.0
C1807 C 0.64893 0.00025 0.87049 0.0
H1808 H 0.9352 0.67403 0.11762 0.0
H1809 H 0.92659 0.5956 0.15444 0.0
H1810 H 0.97514 0.59059 0.15586 0.0
H1811 H 0.01971 0.61037 0.15143 0.0
H1812 H 0.02885 0.68923 0.11576 0.0
H1813 H 0.98046 0.69188 0.10872 0.0
C1814 C 0.94394 0.65567 0.12554 0.0
C1815 C 0.92728 0.63548 0.13637 0.0
C1816 C 0.97197 0.65303 0.12672 0.0
C1817 C 0.93894 0.61171 0.14641 0.0
C1818 C 0.96673 0.60878 0.14724 0.0
C1819 C 0.0112 0.62805 0.14186 0.0
C1820 C 0.02785 0.64974 0.13461 0.0
C1821 C 0.98339 0.62965 0.13825 0.0
C1822 C 0.01649 0.67228 0.12177 0.0
C1823 C 0.98879 0.67389 0.11781 0.0
H1824 H 0.37807 0.94706 0.16062 0.0
H1825 H 0.30565 0.94481 0.11295 0.0
H1826 H 0.31001 -0.00752 0.10318 0.0
H1827 H 0.33161 0.03567 0.11168 0.0
H1828 H 0.40365 0.03858 0.15977 0.0
H1829 H 0.40242 0.98985 0.16524 0.0
C1830 C 0.36333 0.95697 0.14799 0.0
C1831 C 0.34138 0.94237 0.13796 0.0
C1832 C 0.36585 0.98457 0.1424 0.0
C1833 C 0.32269 0.95549 0.12122 0.0
C1834 C 0.32513 0.98283 0.11554 0.0
C1835 C 0.34737 0.02565 0.1229 0.0
C1836 C 0.36739 0.04086 0.13563 0.0
C1837 C 0.34628 -0.00231 0.12649 0.0
C1838 C 0.38774 0.02743 0.14999 0.0
C1839 C 0.38702 -0.00046 0.15327 0.0
H1840 H 0.65075 0.95633 0.10482 0.0
H1841 H 0.59668 0.95433 0.17311 0.0
H1842 H 0.60028 0.00326 0.17749 0.0
H1843 H 0.62233 0.0461 0.16445 0.0
H1844 H 0.67754 0.04652 0.09688 0.0
H1845 H 0.67002 -0.00122 0.09001 0.0
C1846 C 0.63944 0.96651 0.12053 0.0
C1847 C 0.62369 0.95148 0.13877 0.0
C1848 C 0.64214 -0.00555 0.12337 0.0
C1849 C 0.60899 0.96527 0.15876 0.0
C1850 C 0.61122 -0.00672 0.16142 0.0
C1851 C 0.63259 0.03579 0.14813 0.0
C1852 C 0.65079 0.05001 0.1315 0.0
C1853 C 0.62834 0.008 0.14428 0.0
C1854 C 0.66371 0.03622 0.1103 0.0
C1855 C 0.65937 0.00883 0.10624 0.0
H1856 H 0.14963 0.53658 0.88201 0.0
H1857 H 0.08903 0.54245 0.8202 0.0
H1858 H 0.08753 0.49363 0.81665 0.0
H1859 H 0.10644 0.4495 0.82791 0.0
H1860 H 0.16745 0.44381 0.88935 0.0
H1861 H 0.16544 0.49221 0.89628 0.0
C1862 C 0.13589 0.52722 0.86794 0.0
C1863 C 0.11982 0.54327 0.85114 0.0
C1864 C 0.13526 0.49909 0.86575 0.0
C1865 C 0.10188 0.53069 0.83326 0.0
C1866 C 0.101 0.50271 0.83114 0.0
C1867 C 0.11906 0.45876 0.84306 0.0
C1868 C 0.13735 0.443 0.85772 0.0
C1869 C 0.11808 0.48674 0.8468 0.0
C1870 C 0.15338 0.45541 0.87746 0.0
C1871 C 0.15231 0.48315 0.88147 0.0
H1872 H 0.80937 0.52569 0.86965 0.0
H1873 H 0.86868 0.53861 0.80702 0.0
H1874 H 0.87815 0.49066 0.80562 0.0
H1875 H 0.86759 0.44468 0.81979 0.0
H1876 H 0.80801 0.4315 0.88205 0.0
H1877 H 0.801 0.47982 0.88602 0.0
C1878 C 0.82452 0.51808 0.85585 0.0
C1879 C 0.83799 0.53582 0.83829 0.0
C1880 C 0.82984 0.49033 0.85493 0.0
C1881 C 0.85771 0.5255 0.82064 0.0
C1882 C 0.86322 0.49801 0.81978 0.0
C1883 C 0.85326 0.45234 0.83443 0.0
C1884 C 0.83819 0.43437 0.85033 0.0
C1885 C 0.84907 0.48018 0.83648 0.0
C1886 C 0.81979 0.44478 0.86931 0.0
C1887 C 0.8157 0.47246 0.87162 0.0
H1888 H 0.11469 0.4488 0.16203 0.0
H1889 H 0.17811 0.45481 0.10248 0.0
H1890 H 0.16857 0.50265 0.0969 0.0
H1891 H 0.14607 0.54325 0.11266 0.0
H1892 H 0.08488 0.53799 0.17455 0.0
H1893 H 0.08922 0.489 0.1748 0.0
C1894 C 0.12633 0.46044 0.14762 0.0
C1895 C 0.14746 0.44825 0.13305 0.0
C1896 C 0.1211 0.48802 0.14489 0.0
C1897 C 0.16201 0.46368 0.11423 0.0
C1898 C 0.15654 0.49105 0.111 0.0
C1899 C 0.13334 0.53147 0.12599 0.0
C1900 C 0.11552 0.5444 0.14395 0.0
C1901 C 0.13668 0.50352 0.12679 0.0
C1902 C 0.09891 0.52865 0.16067 0.0
C1903 C 0.10153 0.50063 0.16097 0.0
H1904 H 0.82514 0.44774 0.10881 0.0
H1905 H 0.90187 0.451 0.14898 0.0
H1906 H 0.89941 0.49991 0.15045 0.0
H1907 H 0.87324 0.54116 0.14517 0.0
H1908 H 0.79613 0.53817 0.10578 0.0
H1909 H 0.80115 0.48979 0.09902 0.0
C1910 C 0.84159 0.45916 0.11736 0.0
C1911 C 0.86343 0.44568 0.12914 0.0
C1912 C 0.83983 0.48732 0.11867 0.0
C1913 C 0.88462 0.46084 0.1401 0.0
C1914 C 0.88322 0.48883 0.14104 0.0
C1915 C 0.85759 0.52998 0.13495 0.0
C1916 C 0.83415 0.54318 0.12645 0.0
C1917 C 0.8605 0.50218 0.13126 0.0
C1918 C 0.81431 0.52847 0.11274 0.0
C1919 C 0.81713 0.50078 0.10888 0.0
H1920 H 0.35953 0.65194 0.54604 0.0
H1921 H 0.28644 0.60579 0.555 0.0
H1922 H 0.28373 0.60008 0.50657 0.0
H1923 H 0.29993 0.61088 0.46128 0.0
H1924 H 0.37323 0.65653 0.4518 0.0
H1925 H 0.37807 0.65923 0.50049 0.0
C1926 C 0.34311 0.64056 0.53738 0.0
C1927 C 0.32317 0.62961 0.55422 0.0
C1928 C 0.34159 0.63715 0.50928 0.0
C1929 C 0.30215 0.61458 0.54263 0.0
C1930 C 0.30048 0.61125 0.51483 0.0
C1931 C 0.3172 0.62104 0.46982 0.0
C1932 C 0.33587 0.63378 0.45282 0.0
C1933 C 0.31983 0.62279 0.49792 0.0
C1934 C 0.35825 0.64676 0.46435 0.0
C1935 C 0.36107 0.64843 0.49226 0.0
H1936 H 0.86491 0.83247 0.44439 0.0
H1937 H 0.78922 0.87412 0.43598 0.0
H1938 H 0.78554 0.87851 0.48463 0.0
H1939 H 0.80166 0.86707 0.52985 0.0
H1940 H 0.87735 0.82547 0.53827 0.0
H1941 H 0.88315 0.82493 0.48958 0.0
C1942 C 0.84771 0.84267 0.45317 0.0
C1943 C 0.82727 0.85255 0.43646 0.0
C1944 C 0.84558 0.84514 0.4813 0.0
C1945 C 0.80527 0.86607 0.44826 0.0
C1946 C 0.80306 0.86862 0.47617 0.0
C1947 C 0.81962 0.85829 0.52108 0.0
C1948 C 0.83874 0.84596 0.53774 0.0
C1949 C 0.8228 0.85774 0.49293 0.0
C1950 C 0.86201 0.83478 0.52595 0.0
C1951 C 0.86541 0.8344 0.49805 0.0
H1952 H 0.62059 0.33477 0.52941 0.0
H1953 H 0.69305 0.38028 0.54403 0.0
H1954 H 0.69814 0.38862 0.49591 0.0
H1955 H 0.68519 0.37817 0.44955 0.0
H1956 H 0.61353 0.33141 0.43513 0.0
H1957 H 0.60485 0.32875 0.48338 0.0
C1958 C 0.63737 0.34673 0.52214 0.0
C1959 C 0.65669 0.35633 0.54022 0.0
C1960 C 0.64044 0.35114 0.49446 0.0
C1961 C 0.67803 0.37228 0.5305 0.0
C1962 C 0.68101 0.37708 0.50297 0.0
C1963 C 0.66742 0.36784 0.45694 0.0
C1964 C 0.65039 0.35454 0.43889 0.0
C1965 C 0.66281 0.36588 0.48473 0.0
C1966 C 0.62729 0.34138 0.44871 0.0
C1967 C 0.62228 0.33982 0.47629 0.0
H1968 H 0.17601 0.1123 0.53502 0.0
H1969 H 0.11336 0.17215 0.54104 0.0
H1970 H 0.11283 0.17677 0.49215 0.0
H1971 H 0.13153 0.16552 0.44754 0.0
H1972 H 0.19427 0.10572 0.4417 0.0
H1973 H 0.19321 0.09954 0.49036 0.0
C1974 C 0.16203 0.12618 0.52569 0.0
C1975 C 0.14489 0.14191 0.54193 0.0
C1976 C 0.16192 0.12897 0.49742 0.0
C1977 C 0.12694 0.15979 0.52925 0.0
C1978 C 0.12662 0.16254 0.50118 0.0
C1979 C 0.14493 0.15107 0.45685 0.0
C1980 C 0.16305 0.1363 0.44075 0.0
C1981 C 0.14429 0.14753 0.48506 0.0
C1982 C 0.18012 0.11753 0.45338 0.0
C1983 C 0.17957 0.11392 0.48133 0.0
H1984 H 0.38161 0.31846 0.53437 0.0
H1985 H 0.31577 0.37492 0.53954 0.0
H1986 H 0.31731 0.3815 0.491 0.0
H1987 H 0.33547 0.36965 0.44664 0.0
H1988 H 0.40099 0.31295 0.44096 0.0
H1989 H 0.4015 0.30843 0.48991 0.0
C1990 C 0.36768 0.33231 0.52494 0.0
C1991 C 0.34847 0.34593 0.5408 0.0
C1992 C 0.36854 0.33604 0.49677 0.0
C1993 C 0.33071 0.36394 0.52804 0.0
C1994 C 0.33154 0.36779 0.50016 0.0
C1995 C 0.35009 0.3565 0.45604 0.0
C1996 C 0.36802 0.34157 0.43992 0.0
C1997 C 0.35012 0.35371 0.48427 0.0
C1998 C 0.38681 0.32466 0.45269 0.0
C1999 C 0.3871 0.32197 0.48077 0.0
H2000 H 0.16738 0.86973 0.45988 0.0
H2001 H 0.08358 0.84954 0.45087 0.0
H2002 H 0.07822 0.84686 0.49961 0.0
H2003 H 0.09855 0.84469 0.54439 0.0
H2004 H 0.18216 0.86517 0.55393 0.0
H2005 H 0.18639 0.87326 0.50551 0.0
C2006 C 0.14782 0.8655 0.46865 0.0
C2007 C 0.12605 0.85944 0.45187 0.0
C2008 C 0.14495 0.86344 0.49677 0.0
C2009 C 0.10077 0.85393 0.46345 0.0
C2010 C 0.09768 0.85223 0.49131 0.0
C2011 C 0.11763 0.85103 0.53583 0.0
C2012 C 0.14009 0.85385 0.55251 0.0
C2013 C 0.11987 0.85588 0.50808 0.0
C2014 C 0.1646 0.86269 0.54137 0.0
C2015 C 0.16705 0.86733 0.5137 0.0
H2016 H 0.59435 0.66377 0.4449 0.0
H2017 H 0.65968 0.60723 0.43545 0.0
H2018 H 0.66017 0.59956 0.48397 0.0
H2019 H 0.64465 0.61153 0.52919 0.0
H2020 H 0.58011 0.6689 0.53891 0.0
H2021 H 0.57656 0.67322 0.49006 0.0
C2022 C 0.60861 0.64962 0.45337 0.0
C2023 C 0.62718 0.63639 0.43648 0.0
C2024 C 0.60898 0.64544 0.48135 0.0
C2025 C 0.64528 0.61791 0.4479 0.0
C2026 C 0.6456 0.61348 0.47569 0.0
C2027 C 0.62955 0.62476 0.52071 0.0
C2028 C 0.61291 0.6401 0.53782 0.0
C2029 C 0.62791 0.62754 0.49263 0.0
C2030 C 0.59336 0.65698 0.52631 0.0
C2031 C 0.59135 0.65955 0.49835 0.0
H2032 H 0.85072 0.10623 0.534 0.0
H2033 H 0.88685 0.18435 0.54553 0.0
H2034 H 0.89515 0.18824 0.49723 0.0
H2035 H 0.88727 0.1718 0.45127 0.0
H2036 H 0.85105 0.09363 0.44003 0.0
H2037 H 0.84817 0.08732 0.48858 0.0
C2038 C 0.86061 0.12399 0.52596 0.0
C2039 C 0.86768 0.14512 0.54324 0.0
C2040 C 0.8653 0.12617 0.49816 0.0
C2041 C 0.881 0.16781 0.53262 0.0
C2042 C 0.88573 0.17012 0.50497 0.0
C2043 C 0.8793 0.15316 0.45944 0.0
C2044 C 0.86887 0.13353 0.44205 0.0
C2045 C 0.8773 0.14974 0.48747 0.0
C2046 C 0.85876 0.10936 0.45298 0.0
C2047 C 0.85703 0.10569 0.48076 0.0
H2048 H 0.36892 0.54218 0.3286 0.0
H2049 H 0.30562 0.53652 0.38832 0.0
H2050 H 0.3147 0.4888 0.39404 0.0
H2051 H 0.33748 0.44804 0.37925 0.0
H2052 H 0.39994 0.45291 0.31864 0.0
H2053 H 0.39469 0.50168 0.31674 0.0
C2054 C 0.35716 0.53055 0.34294 0.0
C2055 C 0.33633 0.5429 0.35763 0.0
C2056 C 0.36238 0.50297 0.34612 0.0
C2057 C 0.32162 0.52756 0.37648 0.0
C2058 C 0.3268 0.50022 0.37985 0.0
C2059 C 0.35032 0.45973 0.36593 0.0
C2060 C 0.36876 0.4467 0.34882 0.0
C2061 C 0.34674 0.48763 0.36438 0.0
C2062 C 0.38537 0.46233 0.33189 0.0
C2063 C 0.38228 0.49024 0.33065 0.0
H2064 H 0.64732 0.54472 0.3698 0.0
H2065 H 0.59372 0.54414 0.30167 0.0
H2066 H 0.59737 0.49513 0.299 0.0
H2067 H 0.61896 0.45266 0.31368 0.0
H2068 H 0.67257 0.45428 0.38196 0.0
H2069 H 0.66561 0.50239 0.38675 0.0
C2070 C 0.63616 0.53393 0.35451 0.0
C2071 C 0.62047 0.54831 0.33583 0.0
C2072 C 0.63854 0.50577 0.3529 0.0
C2073 C 0.60597 0.53375 0.31636 0.0
C2074 C 0.60818 0.50566 0.31471 0.0
C2075 C 0.62892 0.46346 0.32977 0.0
C2076 C 0.64656 0.44963 0.34717 0.0
C2077 C 0.62491 0.49147 0.33249 0.0
C2078 C 0.65907 0.46415 0.36802 0.0
C2079 C 0.65513 0.49181 0.37084 0.0
H2080 H 0.31917 0.53133 0.61477 0.0
H2081 H 0.3743 0.54 0.68132 0.0
H2082 H 0.3856 0.49261 0.67871 0.0
H2083 H 0.37534 0.44787 0.66187 0.0
H2084 H 0.31942 0.43861 0.59616 0.0
H2085 H 0.31354 0.48716 0.59379 0.0
C2086 C 0.33384 0.52291 0.62852 0.0
C2087 C 0.34525 0.53902 0.64862 0.0
C2088 C 0.34014 0.49552 0.62717 0.0
C2089 C 0.36471 0.52795 0.66593 0.0
C2090 C 0.3713 0.50082 0.66448 0.0
C2091 C 0.36226 0.45646 0.64669 0.0
C2092 C 0.34729 0.43966 0.62981 0.0
C2093 C 0.35844 0.48428 0.64581 0.0
C2094 C 0.33077 0.45113 0.60988 0.0
C2095 C 0.3273 0.47889 0.60851 0.0
H2096 H 0.60599 0.44326 0.64521 0.0
H2097 H 0.68941 0.44055 0.6209 0.0
H2098 H 0.689 0.48861 0.61209 0.0
H2099 H 0.66621 0.53218 0.61446 0.0
H2100 H 0.5833 0.53557 0.63988 0.0
H2101 H 0.58215 0.48665 0.6444 0.0
C2102 C 0.62405 0.45318 0.63799 0.0
C2103 C 0.64769 0.43824 0.63405 0.0
C2104 C 0.62378 0.48103 0.63288 0.0
C2105 C 0.67086 0.45145 0.62429 0.0
C2106 C 0.6707 0.47902 0.61914 0.0
C2107 C 0.64771 0.52214 0.62031 0.0
C2108 C 0.62495 0.53744 0.6269 0.0
C2109 C 0.6474 0.49408 0.62366 0.0
C2110 C 0.60118 0.52418 0.63479 0.0
C2111 C 0.60053 0.49623 0.63757 0.0
H2112 H 0.45228 0.16882 0.86033 0.0
H2113 H 0.44453 0.08726 0.83154 0.0
H2114 H 0.49322 0.08325 0.82811 0.0
H2115 H 0.53795 0.10433 0.8296 0.0
H2116 H 0.54486 0.1863 0.85781 0.0
H2117 H 0.49675 0.1886 0.86498 0.0
C2118 C 0.46125 0.14999 0.85385 0.0
C2119 C 0.44486 0.12855 0.84595 0.0
C2120 C 0.48919 0.14797 0.85134 0.0
C2121 C 0.45678 0.10425 0.83749 0.0
C2122 C 0.48462 0.10193 0.83539 0.0
C2123 C 0.52888 0.12264 0.8373 0.0
C2124 C 0.54499 0.14508 0.84291 0.0
C2125 C 0.50101 0.12395 0.8415 0.0
C2126 C 0.53298 0.16862 0.85325 0.0
C2127 C 0.50541 0.17005 0.85743 0.0
H2128 H 0.51822 0.87366 0.83005 0.0
H2129 H 0.52749 0.80237 0.87914 0.0
H2130 H 0.47922 0.80115 0.8873 0.0
H2131 H 0.43401 0.81771 0.87698 0.0
H2132 H 0.42487 0.8884 0.82702 0.0
H2133 H 0.47345 0.89251 0.82306 0.0
C2134 C 0.50977 0.85796 0.84274 0.0
C2135 C 0.52651 0.83793 0.85359 0.0
C2136 C 0.48195 0.85716 0.84714 0.0
C2137 C 0.51514 0.81795 0.87027 0.0
C2138 C 0.48748 0.81719 0.87496 0.0
C2139 C 0.44262 0.83426 0.86557 0.0
C2140 C 0.42575 0.85246 0.85202 0.0
C2141 C 0.47063 0.83631 0.86297 0.0
C2142 C 0.43732 0.87386 0.8374 0.0
C2143 C 0.46514 0.87624 0.83507 0.0
H2144 H 0.46909 0.17026 0.11111 0.0
H2145 H 0.46295 0.0991 0.16092 0.0
H2146 H 0.51163 0.09594 0.16298 0.0
H2147 H 0.55615 0.11524 0.15357 0.0
H2148 H 0.56208 0.18621 0.10343 0.0
H2149 H 0.51359 0.18735 0.09864 0.0
C2150 C 0.47836 0.15384 0.12209 0.0
C2151 C 0.46226 0.13524 0.1361 0.0
C2152 C 0.50649 0.15217 0.12344 0.0
C2153 C 0.47475 0.11399 0.15015 0.0
C2154 C 0.50267 0.11213 0.15143 0.0
C2155 C 0.54684 0.13087 0.14151 0.0
C2156 C 0.56283 0.15069 0.12918 0.0
C2157 C 0.51876 0.13147 0.13869 0.0
C2158 C 0.55038 0.17064 0.11331 0.0
C2159 C 0.52255 0.17139 0.11051 0.0
H2160 H 0.52468 0.88142 0.14938 0.0
H2161 H 0.53254 0.81251 0.09695 0.0
H2162 H 0.48384 0.8071 0.0965 0.0
H2163 H 0.43936 0.81891 0.1152 0.0
H2164 H 0.43255 0.8875 0.16835 0.0
H2165 H 0.48037 0.89586 0.16422 0.0
C2166 C 0.5158 0.86541 0.13753 0.0
C2167 C 0.53235 0.84718 0.12361 0.0
C2168 C 0.48787 0.86205 0.13776 0.0
C2169 C 0.52035 0.82679 0.10805 0.0
C2170 C 0.49246 0.82355 0.10789 0.0
C2171 C 0.44829 0.83583 0.12565 0.0
C2172 C 0.43236 0.85215 0.14247 0.0
C2173 C 0.47607 0.84056 0.12338 0.0
C2174 C 0.44429 0.87421 0.15563 0.0
C2175 C 0.47171 0.87914 0.15325 0.0
H2176 H 0.45408 0.31984 0.60403 0.0
H2177 H 0.44613 0.38469 0.66154 0.0
H2178 H 0.49432 0.39133 0.6613 0.0
H2179 H 0.53923 0.37599 0.64857 0.0
H2180 H 0.54776 0.31166 0.59067 0.0
H2181 H 0.49918 0.30809 0.58704 0.0
C2182 C 0.46284 0.33562 0.61625 0.0
C2183 C 0.44635 0.35128 0.63313 0.0
C2184 C 0.49086 0.33948 0.61612 0.0
C2185 C 0.45817 0.37193 0.64857 0.0
C2186 C 0.48586 0.37584 0.64851 0.0
C2187 C 0.53052 0.36145 0.63485 0.0
C2188 C 0.54725 0.34389 0.62033 0.0
C2189 C 0.50247 0.35928 0.63294 0.0
C2190 C 0.53548 0.32539 0.60235 0.0
C2191 C 0.5076 0.32319 0.6003 0.0
H2192 H 0.43257 0.66634 0.37967 0.0
H2193 H 0.42252 0.6031 0.32077 0.0
H2194 H 0.47081 0.59824 0.31674 0.0
H2195 H 0.5159 0.61474 0.32643 0.0
H2196 H 0.52628 0.67783 0.38536 0.0
H2197 H 0.47808 0.6795 0.393 0.0
C2198 C 0.44094 0.65131 0.36619 0.0
C2199 C 0.42388 0.6356 0.3502 0.0
C2200 C 0.46888 0.64857 0.36378 0.0
C2201 C 0.43511 0.6159 0.33307 0.0
C2202 C 0.4628 0.61301 0.3307 0.0
C2203 C 0.50768 0.62864 0.34117 0.0
C2204 C 0.52469 0.64641 0.35484 0.0
C2205 C 0.47987 0.62972 0.3454 0.0
C2206 C 0.51367 0.66405 0.37421 0.0
C2207 C 0.48604 0.66512 0.37862 0.0
H2208 H 0.55763 0.37955 0.33124 0.0
H2209 H 0.5673 0.2975 0.3583 0.0
H2210 H 0.5189 0.29308 0.36403 0.0
H2211 H 0.47339 0.31152 0.35869 0.0
H2212 H 0.46392 0.3937 0.33193 0.0
H2213 H 0.51242 0.39904 0.32922 0.0
C2214 C 0.54915 0.36072 0.3384 0.0
C2215 C 0.5661 0.33888 0.34404 0.0
C2216 C 0.52122 0.35829 0.34186 0.0
C2217 C 0.55476 0.31471 0.35371 0.0
C2218 C 0.52702 0.3121 0.35703 0.0
C2219 C 0.48195 0.33072 0.35275 0.0
C2220 C 0.46498 0.35201 0.34526 0.0
C2221 C 0.51 0.33366 0.35089 0.0
C2222 C 0.47647 0.37679 0.33753 0.0
C2223 C 0.50426 0.37991 0.33588 0.0
H2224 H 0.43437 0.60713 0.67094 0.0
H2225 H 0.42351 0.66847 0.61007 0.0
H2226 H 0.47158 0.66941 0.60157 0.0
H2227 H 0.51704 0.65556 0.61366 0.0
H2228 H 0.52826 0.59449 0.67469 0.0
H2229 H 0.47982 0.59059 0.68047 0.0
C2230 C 0.44246 0.62056 0.65568 0.0
C2231 C 0.42525 0.63793 0.64151 0.0
C2232 C 0.47029 0.62117 0.65088 0.0
C2233 C 0.43618 0.655 0.62156 0.0
C2234 C 0.46375 0.6556 0.61662 0.0
C2235 C 0.50895 0.64116 0.62802 0.0
C2236 C 0.52639 0.62564 0.64392 0.0
C2237 C 0.48104 0.63917 0.63152 0.0
C2238 C 0.51541 0.60692 0.66228 0.0
C2239 C 0.48765 0.60469 0.66569 0.0
loop_
_geom_bond_atom_site_label_1
_geom_bond_atom_site_label_2
_geom_bond_distance
_geom_bond_site_symmetry_2
_ccdc_geom_bond_type
Sc0 O3 2.025 . S
Sc0 O10 2.105 . S
Sc0 O13 2.105 . S
Sc0 O16 2.105 . S
Sc0 O19 2.105 . S
Sc1 O3 2.025 . S
Sc1 O11 2.105 . S
Sc1 O15 2.105 . S
Sc1 O17 2.105 . S
Sc1 O21 2.105 . S
Sc2 O3 2.025 . S
Sc2 O12 2.105 . S
Sc2 O14 2.105 . S
Sc2 O18 2.105 . S
Sc2 O20 2.105 . S
O3 Sc0 2.025 . S
O3 Sc1 2.025 . S
O3 Sc2 2.025 . S
C4 O10 1.268 . S
C4 O20 1.268 . S
C5 O11 1.268 . S
C5 O19 1.268 . S
C6 O12 1.268 . S
C6 O21 1.268 . S
C7 O13 1.268 . S
C7 O17 1.268 . S
C8 O14 1.268 . S
C8 O16 1.268 . S
C9 O15 1.268 . S
C9 O18 1.268 . S
O10 Sc0 2.105 . S
O10 C4 1.268 . S
O11 Sc1 2.105 . S
O11 C5 1.268 . S
O12 Sc2 2.105 . S
O12 C6 1.268 . S
O13 Sc0 2.105 . S
O13 C7 1.268 . S
O14 Sc2 2.105 . S
O14 C8 1.268 . S
O15 Sc1 2.105 . S
O15 C9 1.268 . S
O16 Sc0 2.105 . S
O16 C8 1.268 . S
O17 Sc1 2.105 . S
O17 C7 1.268 . S
O18 Sc2 2.105 . S
O18 C9 1.268 . S
O19 Sc0 2.105 . S
O19 C5 1.268 . S
O20 Sc2 2.105 . S
O20 C4 1.268 . S
O21 Sc1 2.105 . S
O21 C6 1.268 . S
Sc22 O25 2.025 . S
Sc22 O32 2.105 . S
Sc22 O35 2.105 . S
Sc22 O38 2.105 . S
Sc22 O41 2.105 . S
Sc23 O25 2.025 . S
Sc23 O33 2.105 . S
Sc23 O37 2.105 . S
Sc23 O39 2.105 . S
Sc23 O43 2.105 . S
Sc24 O25 2.025 . S
Sc24 O34 2.105 . S
Sc24 O36 2.105 . S
Sc24 O40 2.105 . S
Sc24 O42 2.105 . S
O25 Sc22 2.025 . S
O25 Sc23 2.025 . S
O25 Sc24 2.025 . S
C26 O32 1.268 . S
C26 O42 1.268 . S
C27 O33 1.268 . S
C27 O41 1.268 . S
C28 O34 1.268 . S
C28 O43 1.268 . S
C29 O35 1.268 . S
C29 O39 1.268 . S
C30 O36 1.268 . S
C30 O38 1.268 . S
C31 O37 1.268 . S
C31 O40 1.268 . S
O32 Sc22 2.105 . S
O32 C26 1.268 . S
O33 Sc23 2.105 . S
O33 C27 1.268 . S
O34 Sc24 2.105 . S
O34 C28 1.268 . S
O35 Sc22 2.105 . S
O35 C29 1.268 . S
O36 Sc24 2.105 . S
O36 C30 1.268 . S
O37 Sc23 2.105 . S
O37 C31 1.268 . S
O38 Sc22 2.105 . S
O38 C30 1.268 . S
O39 Sc23 2.105 . S
O39 C29 1.268 . S
O40 Sc24 2.105 . S
O40 C31 1.268 . S
O41 Sc22 2.105 . S
O41 C27 1.268 . S
O42 Sc24 2.105 . S
O42 C26 1.268 . S
O43 Sc23 2.105 . S
O43 C28 1.268 . S
Sc44 O47 2.025 . S
Sc44 O54 2.105 . S
Sc44 O57 2.105 . S
Sc44 O60 2.105 . S
Sc44 O63 2.105 . S
Sc45 O47 2.025 . S
Sc45 O55 2.105 . S
Sc45 O59 2.105 . S
Sc45 O61 2.105 . S
Sc45 O65 2.105 . S
Sc46 O47 2.025 . S
Sc46 O56 2.105 . S
Sc46 O58 2.105 . S
Sc46 O62 2.105 . S
Sc46 O64 2.105 . S
O47 Sc44 2.025 . S
O47 Sc45 2.025 . S
O47 Sc46 2.025 . S
C48 O54 1.268 . S
C48 O64 1.268 . S
C49 O55 1.268 . S
C49 O63 1.268 . S
C50 O56 1.268 . S
C50 O65 1.268 . S
C51 O57 1.268 . S
C51 O61 1.268 . S
C52 O58 1.268 . S
C52 O60 1.268 . S
C53 O59 1.268 . S
C53 O62 1.268 . S
O54 Sc44 2.105 . S
O54 C48 1.268 . S
O55 Sc45 2.105 . S
O55 C49 1.268 . S
O56 Sc46 2.105 . S
O56 C50 1.268 . S
O57 Sc44 2.105 . S
O57 C51 1.268 . S
O58 Sc46 2.105 . S
O58 C52 1.268 . S
O59 Sc45 2.105 . S
O59 C53 1.268 . S
O60 Sc44 2.105 . S
O60 C52 1.268 . S
O61 Sc45 2.105 . S
O61 C51 1.268 . S
O62 Sc46 2.105 . S
O62 C53 1.268 . S
O63 Sc44 2.105 . S
O63 C49 1.268 . S
O64 Sc46 2.105 . S
O64 C48 1.268 . S
O65 Sc45 2.105 . S
O65 C50 1.268 . S
Sc66 O69 2.025 . S
Sc66 O76 2.105 . S
Sc66 O79 2.105 . S
Sc66 O82 2.105 . S
Sc66 O85 2.105 . S
Sc67 O69 2.025 . S
Sc67 O77 2.105 . S
Sc67 O81 2.105 . S
Sc67 O83 2.105 . S
Sc67 O87 2.105 . S
Sc68 O69 2.025 . S
Sc68 O78 2.105 . S
Sc68 O80 2.105 . S
Sc68 O84 2.105 . S
Sc68 O86 2.105 . S
O69 Sc66 2.025 . S
O69 Sc67 2.025 . S
O69 Sc68 2.025 . S
C70 O76 1.268 . S
C70 O86 1.268 . S
C71 O77 1.268 . S
C71 O85 1.268 . S
C72 O78 1.268 . S
C72 O87 1.268 . S
C73 O79 1.268 . S
C73 O83 1.268 . S
C74 O80 1.268 . S
C74 O82 1.268 . S
C75 O81 1.268 . S
C75 O84 1.268 . S
O76 Sc66 2.105 . S
O76 C70 1.268 . S
O77 Sc67 2.105 . S
O77 C71 1.268 . S
O78 Sc68 2.105 . S
O78 C72 1.268 . S
O79 Sc66 2.105 . S
O79 C73 1.268 . S
O80 Sc68 2.105 . S
O80 C74 1.268 . S
O81 Sc67 2.105 . S
O81 C75 1.268 . S
O82 Sc66 2.105 . S
O82 C74 1.268 . S
O83 Sc67 2.105 . S
O83 C73 1.268 . S
O84 Sc68 2.105 . S
O84 C75 1.268 . S
O85 Sc66 2.105 . S
O85 C71 1.268 . S
O86 Sc68 2.105 . S
O86 C70 1.268 . S
O87 Sc67 2.105 . S
O87 C72 1.268 . S
Sc88 O91 2.025 . S
Sc88 O98 2.105 . S
Sc88 O101 2.105 . S
Sc88 O104 2.105 . S
Sc88 O107 2.105 . S
Sc89 O91 2.025 . S
Sc89 O99 2.105 . S
Sc89 O103 2.105 . S
Sc89 O105 2.105 . S
Sc89 O109 2.105 . S
Sc90 O91 2.025 . S
Sc90 O100 2.105 . S
Sc90 O102 2.105 . S
Sc90 O106 2.105 . S
Sc90 O108 2.105 . S
O91 Sc88 2.025 . S
O91 Sc89 2.025 . S
O91 Sc90 2.025 . S
C92 O98 1.268 . S
C92 O108 1.268 . S
C93 O99 1.268 . S
C93 O107 1.268 . S
C94 O100 1.268 . S
C94 O109 1.268 . S
C95 O101 1.268 . S
C95 O105 1.268 . S
C96 O102 1.268 . S
C96 O104 1.268 . S
C97 O103 1.268 . S
C97 O106 1.268 . S
O98 Sc88 2.105 . S
O98 C92 1.268 . S
O99 Sc89 2.105 . S
O99 C93 1.268 . S
O100 Sc90 2.105 . S
O100 C94 1.268 . S
O101 Sc88 2.105 . S
O101 C95 1.268 . S
O102 Sc90 2.105 . S
O102 C96 1.268 . S
O103 Sc89 2.105 . S
O103 C97 1.268 . S
O104 Sc88 2.105 . S
O104 C96 1.268 . S
O105 Sc89 2.105 . S
O105 C95 1.268 . S
O106 Sc90 2.105 . S
O106 C97 1.268 . S
O107 Sc88 2.105 . S
O107 C93 1.268 . S
O108 Sc90 2.105 . S
O108 C92 1.268 . S
O109 Sc89 2.105 . S
O109 C94 1.268 . S
Sc110 O113 2.025 . S
Sc110 O120 2.105 . S
Sc110 O123 2.105 . S
Sc110 O126 2.105 . S
Sc110 O129 2.105 . S
Sc111 O113 2.025 . S
Sc111 O121 2.105 . S
Sc111 O125 2.105 . S
Sc111 O127 2.105 . S
Sc111 O131 2.105 . S
Sc112 O113 2.025 . S
Sc112 O122 2.105 . S
Sc112 O124 2.105 . S
Sc112 O128 2.105 . S
Sc112 O130 2.105 . S
O113 Sc110 2.025 . S
O113 Sc111 2.025 . S
O113 Sc112 2.025 . S
C114 O120 1.268 . S
C114 O130 1.268 . S
C115 O121 1.268 . S
C115 O129 1.268 . S
C116 O122 1.268 . S
C116 O131 1.268 . S
C117 O123 1.268 . S
C117 O127 1.268 . S
C118 O124 1.268 . S
C118 O126 1.268 . S
C119 O125 1.268 . S
C119 O128 1.268 . S
O120 Sc110 2.105 . S
O120 C114 1.268 . S
O121 Sc111 2.105 . S
O121 C115 1.268 . S
O122 Sc112 2.105 . S
O122 C116 1.268 . S
O123 Sc110 2.105 . S
O123 C117 1.268 . S
O124 Sc112 2.105 . S
O124 C118 1.268 . S
O125 Sc111 2.105 . S
O125 C119 1.268 . S
O126 Sc110 2.105 . S
O126 C118 1.268 . S
O127 Sc111 2.105 . S
O127 C117 1.268 . S
O128 Sc112 2.105 . S
O128 C119 1.268 . S
O129 Sc110 2.105 . S
O129 C115 1.268 . S
O130 Sc112 2.105 . S
O130 C114 1.268 . S
O131 Sc111 2.105 . S
O131 C116 1.268 . S
Sc132 O135 2.025 . S
Sc132 O142 2.105 . S
Sc132 O145 2.105 . S
Sc132 O148 2.105 . S
Sc132 O151 2.105 . S
Sc133 O135 2.025 . S
Sc133 O143 2.105 . S
Sc133 O147 2.105 . S
Sc133 O149 2.105 . S
Sc133 O153 2.105 . S
Sc134 O135 2.025 . S
Sc134 O144 2.105 . S
Sc134 O146 2.105 . S
Sc134 O150 2.105 . S
Sc134 O152 2.105 . S
O135 Sc132 2.025 . S
O135 Sc133 2.025 . S
O135 Sc134 2.025 . S
C136 O142 1.268 . S
C136 O152 1.268 . S
C137 O143 1.268 . S
C137 O151 1.268 . S
C138 O144 1.268 . S
C138 O153 1.268 . S
C139 O145 1.268 . S
C139 O149 1.268 . S
C140 O146 1.268 . S
C140 O148 1.268 . S
C141 O147 1.268 . S
C141 O150 1.268 . S
O142 Sc132 2.105 . S
O142 C136 1.268 . S
O143 Sc133 2.105 . S
O143 C137 1.268 . S
O144 Sc134 2.105 . S
O144 C138 1.268 . S
O145 Sc132 2.105 . S
O145 C139 1.268 . S
O146 Sc134 2.105 . S
O146 C140 1.268 . S
O147 Sc133 2.105 . S
O147 C141 1.268 . S
O148 Sc132 2.105 . S
O148 C140 1.268 . S
O149 Sc133 2.105 . S
O149 C139 1.268 . S
O150 Sc134 2.105 . S
O150 C141 1.268 . S
O151 Sc132 2.105 . S
O151 C137 1.268 . S
O152 Sc134 2.105 . S
O152 C136 1.268 . S
O153 Sc133 2.105 . S
O153 C138 1.268 . S
Sc154 O157 2.025 . S
Sc154 O164 2.105 . S
Sc154 O167 2.105 . S
Sc154 O170 2.105 . S
Sc154 O173 2.105 . S
Sc155 O157 2.025 . S
Sc155 O165 2.105 . S
Sc155 O169 2.105 . S
Sc155 O171 2.105 . S
Sc155 O175 2.105 . S
Sc156 O157 2.025 . S
Sc156 O166 2.105 . S
Sc156 O168 2.105 . S
Sc156 O172 2.105 . S
Sc156 O174 2.105 . S
O157 Sc154 2.025 . S
O157 Sc155 2.025 . S
O157 Sc156 2.025 . S
C158 O164 1.268 . S
C158 O174 1.268 . S
C159 O165 1.268 . S
C159 O173 1.268 . S
C160 O166 1.268 . S
C160 O175 1.268 . S
C161 O167 1.268 . S
C161 O171 1.268 . S
C162 O168 1.268 . S
C162 O170 1.268 . S
C163 O169 1.268 . S
C163 O172 1.268 . S
O164 Sc154 2.105 . S
O164 C158 1.268 . S
O165 Sc155 2.105 . S
O165 C159 1.268 . S
O166 Sc156 2.105 . S
O166 C160 1.268 . S
O167 Sc154 2.105 . S
O167 C161 1.268 . S
O168 Sc156 2.105 . S
O168 C162 1.268 . S
O169 Sc155 2.105 . S
O169 C163 1.268 . S
O170 Sc154 2.105 . S
O170 C162 1.268 . S
O171 Sc155 2.105 . S
O171 C161 1.268 . S
O172 Sc156 2.105 . S
O172 C163 1.268 . S
O173 Sc154 2.105 . S
O173 C159 1.268 . S
O174 Sc156 2.105 . S
O174 C158 1.268 . S
O175 Sc155 2.105 . S
O175 C160 1.268 . S
Sc176 O179 2.025 . S
Sc176 O186 2.105 . S
Sc176 O189 2.105 . S
Sc176 O192 2.105 . S
Sc176 O195 2.105 . S
Sc177 O179 2.025 . S
Sc177 O187 2.105 . S
Sc177 O191 2.105 . S
Sc177 O193 2.105 . S
Sc177 O197 2.105 . S
Sc178 O179 2.025 . S
Sc178 O188 2.105 . S
Sc178 O190 2.105 . S
Sc178 O194 2.105 . S
Sc178 O196 2.105 . S
O179 Sc176 2.025 . S
O179 Sc177 2.025 . S
O179 Sc178 2.025 . S
C180 O186 1.268 . S
C180 O196 1.268 . S
C181 O187 1.268 . S
C181 O195 1.268 . S
C182 O188 1.268 . S
C182 O197 1.268 . S
C183 O189 1.268 . S
C183 O193 1.268 . S
C184 O190 1.268 . S
C184 O192 1.268 . S
C185 O191 1.268 . S
C185 O194 1.268 . S
O186 Sc176 2.105 . S
O186 C180 1.268 . S
O187 Sc177 2.105 . S
O187 C181 1.268 . S
O188 Sc178 2.105 . S
O188 C182 1.268 . S
O189 Sc176 2.105 . S
O189 C183 1.268 . S
O190 Sc178 2.105 . S
O190 C184 1.268 . S
O191 Sc177 2.105 . S
O191 C185 1.268 . S
O192 Sc176 2.105 . S
O192 C184 1.268 . S
O193 Sc177 2.105 . S
O193 C183 1.268 . S
O194 Sc178 2.105 . S
O194 C185 1.268 . S
O195 Sc176 2.105 . S
O195 C181 1.268 . S
O196 Sc178 2.105 . S
O196 C180 1.268 . S
O197 Sc177 2.105 . S
O197 C182 1.268 . S
Sc198 O201 2.025 . S
Sc198 O208 2.105 . S
Sc198 O211 2.105 . S
Sc198 O214 2.105 . S
Sc198 O217 2.105 . S
Sc199 O201 2.025 . S
Sc199 O209 2.105 . S
Sc199 O213 2.105 . S
Sc199 O215 2.105 . S
Sc199 O219 2.105 . S
Sc200 O201 2.025 . S
Sc200 O210 2.105 . S
Sc200 O212 2.105 . S
Sc200 O216 2.105 . S
Sc200 O218 2.105 . S
O201 Sc198 2.025 . S
O201 Sc199 2.025 . S
O201 Sc200 2.025 . S
C202 O208 1.268 . S
C202 O218 1.268 . S
C203 O209 1.268 . S
C203 O217 1.268 . S
C204 O210 1.268 . S
C204 O219 1.268 . S
C205 O211 1.268 . S
C205 O215 1.268 . S
C206 O212 1.268 . S
C206 O214 1.268 . S
C207 O213 1.268 . S
C207 O216 1.268 . S
O208 Sc198 2.105 . S
O208 C202 1.268 . S
O209 Sc199 2.105 . S
O209 C203 1.268 . S
O210 Sc200 2.105 . S
O210 C204 1.268 . S
O211 Sc198 2.105 . S
O211 C205 1.268 . S
O212 Sc200 2.105 . S
O212 C206 1.268 . S
O213 Sc199 2.105 . S
O213 C207 1.268 . S
O214 Sc198 2.105 . S
O214 C206 1.268 . S
O215 Sc199 2.105 . S
O215 C205 1.268 . S
O216 Sc200 2.105 . S
O216 C207 1.268 . S
O217 Sc198 2.105 . S
O217 C203 1.268 . S
O218 Sc200 2.105 . S
O218 C202 1.268 . S
O219 Sc199 2.105 . S
O219 C204 1.268 . S
Sc220 O223 2.025 . S
Sc220 O230 2.105 . S
Sc220 O233 2.105 . S
Sc220 O236 2.105 . S
Sc220 O239 2.105 . S
Sc221 O223 2.025 . S
Sc221 O231 2.105 . S
Sc221 O235 2.105 . S
Sc221 O237 2.105 . S
Sc221 O241 2.105 . S
Sc222 O223 2.025 . S
Sc222 O232 2.105 . S
Sc222 O234 2.105 . S
Sc222 O238 2.105 . S
Sc222 O240 2.105 . S
O223 Sc220 2.025 . S
O223 Sc221 2.025 . S
O223 Sc222 2.025 . S
C224 O230 1.268 . S
C224 O240 1.268 . S
C225 O231 1.268 . S
C225 O239 1.268 . S
C226 O232 1.268 . S
C226 O241 1.268 . S
C227 O233 1.268 . S
C227 O237 1.268 . S
C228 O234 1.268 . S
C228 O236 1.268 . S
C229 O235 1.268 . S
C229 O238 1.268 . S
O230 Sc220 2.105 . S
O230 C224 1.268 . S
O231 Sc221 2.105 . S
O231 C225 1.268 . S
O232 Sc222 2.105 . S
O232 C226 1.268 . S
O233 Sc220 2.105 . S
O233 C227 1.268 . S
O234 Sc222 2.105 . S
O234 C228 1.268 . S
O235 Sc221 2.105 . S
O235 C229 1.268 . S
O236 Sc220 2.105 . S
O236 C228 1.268 . S
O237 Sc221 2.105 . S
O237 C227 1.268 . S
O238 Sc222 2.105 . S
O238 C229 1.268 . S
O239 Sc220 2.105 . S
O239 C225 1.268 . S
O240 Sc222 2.105 . S
O240 C224 1.268 . S
O241 Sc221 2.105 . S
O241 C226 1.268 . S
Sc242 O245 2.025 . S
Sc242 O252 2.105 . S
Sc242 O255 2.105 . S
Sc242 O258 2.105 . S
Sc242 O261 2.105 . S
Sc243 O245 2.025 . S
Sc243 O253 2.105 . S
Sc243 O257 2.105 . S
Sc243 O259 2.105 . S
Sc243 O263 2.105 . S
Sc244 O245 2.025 . S
Sc244 O254 2.105 . S
Sc244 O256 2.105 . S
Sc244 O260 2.105 . S
Sc244 O262 2.105 . S
O245 Sc242 2.025 . S
O245 Sc243 2.025 . S
O245 Sc244 2.025 . S
C246 O252 1.268 . S
C246 O262 1.268 . S
C247 O253 1.268 . S
C247 O261 1.268 . S
C248 O254 1.268 . S
C248 O263 1.268 . S
C249 O255 1.268 . S
C249 O259 1.268 . S
C250 O256 1.268 . S
C250 O258 1.268 . S
C251 O257 1.268 . S
C251 O260 1.268 . S
O252 Sc242 2.105 . S
O252 C246 1.268 . S
O253 Sc243 2.105 . S
O253 C247 1.268 . S
O254 Sc244 2.105 . S
O254 C248 1.268 . S
O255 Sc242 2.105 . S
O255 C249 1.268 . S
O256 Sc244 2.105 . S
O256 C250 1.268 . S
O257 Sc243 2.105 . S
O257 C251 1.268 . S
O258 Sc242 2.105 . S
O258 C250 1.268 . S
O259 Sc243 2.105 . S
O259 C249 1.268 . S
O260 Sc244 2.105 . S
O260 C251 1.268 . S
O261 Sc242 2.105 . S
O261 C247 1.268 . S
O262 Sc244 2.105 . S
O262 C246 1.268 . S
O263 Sc243 2.105 . S
O263 C248 1.268 . S
Sc264 O267 2.025 . S
Sc264 O274 2.105 . S
Sc264 O277 2.105 . S
Sc264 O280 2.105 . S
Sc264 O283 2.105 . S
Sc265 O267 2.025 . S
Sc265 O275 2.105 . S
Sc265 O279 2.105 . S
Sc265 O281 2.105 . S
Sc265 O285 2.105 . S
Sc266 O267 2.025 . S
Sc266 O276 2.105 . S
Sc266 O278 2.105 . S
Sc266 O282 2.105 . S
Sc266 O284 2.105 . S
O267 Sc264 2.025 . S
O267 Sc265 2.025 . S
O267 Sc266 2.025 . S
C268 O274 1.268 . S
C268 O284 1.268 . S
C269 O275 1.268 . S
C269 O283 1.268 . S
C270 O276 1.268 . S
C270 O285 1.268 . S
C271 O277 1.268 . S
C271 O281 1.268 . S
C272 O278 1.268 . S
C272 O280 1.268 . S
C273 O279 1.268 . S
C273 O282 1.268 . S
O274 Sc264 2.105 . S
O274 C268 1.268 . S
O275 Sc265 2.105 . S
O275 C269 1.268 . S
O276 Sc266 2.105 . S
O276 C270 1.268 . S
O277 Sc264 2.105 . S
O277 C271 1.268 . S
O278 Sc266 2.105 . S
O278 C272 1.268 . S
O279 Sc265 2.105 . S
O279 C273 1.268 . S
O280 Sc264 2.105 . S
O280 C272 1.268 . S
O281 Sc265 2.105 . S
O281 C271 1.268 . S
O282 Sc266 2.105 . S
O282 C273 1.268 . S
O283 Sc264 2.105 . S
O283 C269 1.268 . S
O284 Sc266 2.105 . S
O284 C268 1.268 . S
O285 Sc265 2.105 . S
O285 C270 1.268 . S
Sc286 O289 2.025 . S
Sc286 O296 2.105 . S
Sc286 O299 2.105 . S
Sc286 O302 2.105 . S
Sc286 O305 2.105 . S
Sc287 O289 2.025 . S
Sc287 O297 2.105 . S
Sc287 O301 2.105 . S
Sc287 O303 2.105 . S
Sc287 O307 2.105 . S
Sc288 O289 2.025 . S
Sc288 O298 2.105 . S
Sc288 O300 2.105 . S
Sc288 O304 2.105 . S
Sc288 O306 2.105 . S
O289 Sc286 2.025 . S
O289 Sc287 2.025 . S
O289 Sc288 2.025 . S
C290 O296 1.268 . S
C290 O306 1.268 . S
C291 O297 1.268 . S
C291 O305 1.268 . S
C292 O298 1.268 . S
C292 O307 1.268 . S
C293 O299 1.268 . S
C293 O303 1.268 . S
C294 O300 1.268 . S
C294 O302 1.268 . S
C295 O301 1.268 . S
C295 O304 1.268 . S
O296 Sc286 2.105 . S
O296 C290 1.268 . S
O297 Sc287 2.105 . S
O297 C291 1.268 . S
O298 Sc288 2.105 . S
O298 C292 1.268 . S
O299 Sc286 2.105 . S
O299 C293 1.268 . S
O300 Sc288 2.105 . S
O300 C294 1.268 . S
O301 Sc287 2.105 . S
O301 C295 1.268 . S
O302 Sc286 2.105 . S
O302 C294 1.268 . S
O303 Sc287 2.105 . S
O303 C293 1.268 . S
O304 Sc288 2.105 . S
O304 C295 1.268 . S
O305 Sc286 2.105 . S
O305 C291 1.268 . S
O306 Sc288 2.105 . S
O306 C290 1.268 . S
O307 Sc287 2.105 . S
O307 C292 1.268 . S
Sc308 O311 2.025 . S
Sc308 O318 2.105 . S
Sc308 O321 2.105 . S
Sc308 O324 2.105 . S
Sc308 O327 2.105 . S
Sc309 O311 2.025 . S
Sc309 O319 2.105 . S
Sc309 O323 2.105 . S
Sc309 O325 2.105 . S
Sc309 O329 2.105 . S
Sc310 O311 2.025 . S
Sc310 O320 2.105 . S
Sc310 O322 2.105 . S
Sc310 O326 2.105 . S
Sc310 O328 2.105 . S
O311 Sc308 2.025 . S
O311 Sc309 2.025 . S
O311 Sc310 2.025 . S
C312 O318 1.268 . S
C312 O328 1.268 . S
C313 O319 1.268 . S
C313 O327 1.268 . S
C314 O320 1.268 . S
C314 O329 1.268 . S
C315 O321 1.268 . S
C315 O325 1.268 . S
C316 O322 1.268 . S
C316 O324 1.268 . S
C317 O323 1.268 . S
C317 O326 1.268 . S
O318 Sc308 2.105 . S
O318 C312 1.268 . S
O319 Sc309 2.105 . S
O319 C313 1.268 . S
O320 Sc310 2.105 . S
O320 C314 1.268 . S
O321 Sc308 2.105 . S
O321 C315 1.268 . S
O322 Sc310 2.105 . S
O322 C316 1.268 . S
O323 Sc309 2.105 . S
O323 C317 1.268 . S
O324 Sc308 2.105 . S
O324 C316 1.268 . S
O325 Sc309 2.105 . S
O325 C315 1.268 . S
O326 Sc310 2.105 . S
O326 C317 1.268 . S
O327 Sc308 2.105 . S
O327 C313 1.268 . S
O328 Sc310 2.105 . S
O328 C312 1.268 . S
O329 Sc309 2.105 . S
O329 C314 1.268 . S
Sc330 O333 2.025 . S
Sc330 O340 2.105 . S
Sc330 O343 2.105 . S
Sc330 O346 2.105 . S
Sc330 O349 2.105 . S
Sc331 O333 2.025 . S
Sc331 O341 2.105 . S
Sc331 O345 2.105 . S
Sc331 O347 2.105 . S
Sc331 O351 2.105 . S
Sc332 O333 2.025 . S
Sc332 O342 2.105 . S
Sc332 O344 2.105 . S
Sc332 O348 2.105 . S
Sc332 O350 2.105 . S
O333 Sc330 2.025 . S
O333 Sc331 2.025 . S
O333 Sc332 2.025 . S
C334 O340 1.268 . S
C334 O350 1.268 . S
C335 O341 1.268 . S
C335 O349 1.268 . S
C336 O342 1.268 . S
C336 O351 1.268 . S
C337 O343 1.268 . S
C337 O347 1.268 . S
C338 O344 1.268 . S
C338 O346 1.268 . S
C339 O345 1.268 . S
C339 O348 1.268 . S
O340 Sc330 2.105 . S
O340 C334 1.268 . S
O341 Sc331 2.105 . S
O341 C335 1.268 . S
O342 Sc332 2.105 . S
O342 C336 1.268 . S
O343 Sc330 2.105 . S
O343 C337 1.268 . S
O344 Sc332 2.105 . S
O344 C338 1.268 . S
O345 Sc331 2.105 . S
O345 C339 1.268 . S
O346 Sc330 2.105 . S
O346 C338 1.268 . S
O347 Sc331 2.105 . S
O347 C337 1.268 . S
O348 Sc332 2.105 . S
O348 C339 1.268 . S
O349 Sc330 2.105 . S
O349 C335 1.268 . S
O350 Sc332 2.105 . S
O350 C334 1.268 . S
O351 Sc331 2.105 . S
O351 C336 1.268 . S
Sc352 O355 2.025 . S
Sc352 O362 2.105 . S
Sc352 O365 2.105 . S
Sc352 O368 2.105 . S
Sc352 O371 2.105 . S
Sc353 O355 2.025 . S
Sc353 O363 2.105 . S
Sc353 O367 2.105 . S
Sc353 O369 2.105 . S
Sc353 O373 2.105 . S
Sc354 O355 2.025 . S
Sc354 O364 2.105 . S
Sc354 O366 2.105 . S
Sc354 O370 2.105 . S
Sc354 O372 2.105 . S
O355 Sc352 2.025 . S
O355 Sc353 2.025 . S
O355 Sc354 2.025 . S
C356 O362 1.268 . S
C356 O372 1.268 . S
C357 O363 1.268 . S
C357 O371 1.268 . S
C358 O364 1.268 . S
C358 O373 1.268 . S
C359 O365 1.268 . S
C359 O369 1.268 . S
C360 O366 1.268 . S
C360 O368 1.268 . S
C361 O367 1.268 . S
C361 O370 1.268 . S
O362 Sc352 2.105 . S
O362 C356 1.268 . S
O363 Sc353 2.105 . S
O363 C357 1.268 . S
O364 Sc354 2.105 . S
O364 C358 1.268 . S
O365 Sc352 2.105 . S
O365 C359 1.268 . S
O366 Sc354 2.105 . S
O366 C360 1.268 . S
O367 Sc353 2.105 . S
O367 C361 1.268 . S
O368 Sc352 2.105 . S
O368 C360 1.268 . S
O369 Sc353 2.105 . S
O369 C359 1.268 . S
O370 Sc354 2.105 . S
O370 C361 1.268 . S
O371 Sc352 2.105 . S
O371 C357 1.268 . S
O372 Sc354 2.105 . S
O372 C356 1.268 . S
O373 Sc353 2.105 . S
O373 C358 1.268 . S
Sc374 O377 2.025 . S
Sc374 O384 2.105 . S
Sc374 O387 2.105 . S
Sc374 O390 2.105 . S
Sc374 O393 2.105 . S
Sc375 O377 2.025 . S
Sc375 O385 2.105 . S
Sc375 O389 2.105 . S
Sc375 O391 2.105 . S
Sc375 O395 2.105 . S
Sc376 O377 2.025 . S
Sc376 O386 2.105 . S
Sc376 O388 2.105 . S
Sc376 O392 2.105 . S
Sc376 O394 2.105 . S
O377 Sc374 2.025 . S
O377 Sc375 2.025 . S
O377 Sc376 2.025 . S
C378 O384 1.268 . S
C378 O394 1.268 . S
C379 O385 1.268 . S
C379 O393 1.268 . S
C380 O386 1.268 . S
C380 O395 1.268 . S
C381 O387 1.268 . S
C381 O391 1.268 . S
C382 O388 1.268 . S
C382 O390 1.268 . S
C383 O389 1.268 . S
C383 O392 1.268 . S
O384 Sc374 2.105 . S
O384 C378 1.268 . S
O385 Sc375 2.105 . S
O385 C379 1.268 . S
O386 Sc376 2.105 . S
O386 C380 1.268 . S
O387 Sc374 2.105 . S
O387 C381 1.268 . S
O388 Sc376 2.105 . S
O388 C382 1.268 . S
O389 Sc375 2.105 . S
O389 C383 1.268 . S
O390 Sc374 2.105 . S
O390 C382 1.268 . S
O391 Sc375 2.105 . S
O391 C381 1.268 . S
O392 Sc376 2.105 . S
O392 C383 1.268 . S
O393 Sc374 2.105 . S
O393 C379 1.268 . S
O394 Sc376 2.105 . S
O394 C378 1.268 . S
O395 Sc375 2.105 . S
O395 C380 1.268 . S
Sc396 O399 2.025 . S
Sc396 O406 2.105 . S
Sc396 O409 2.105 . S
Sc396 O412 2.105 . S
Sc396 O415 2.105 . S
Sc397 O399 2.025 . S
Sc397 O407 2.105 . S
Sc397 O411 2.105 . S
Sc397 O413 2.105 . S
Sc397 O417 2.105 . S
Sc398 O399 2.025 . S
Sc398 O408 2.105 . S
Sc398 O410 2.105 . S
Sc398 O414 2.105 . S
Sc398 O416 2.105 . S
O399 Sc396 2.025 . S
O399 Sc397 2.025 . S
O399 Sc398 2.025 . S
C400 O406 1.268 . S
C400 O416 1.268 . S
C401 O407 1.268 . S
C401 O415 1.268 . S
C402 O408 1.268 . S
C402 O417 1.268 . S
C403 O409 1.268 . S
C403 O413 1.268 . S
C404 O410 1.268 . S
C404 O412 1.268 . S
C405 O411 1.268 . S
C405 O414 1.268 . S
O406 Sc396 2.105 . S
O406 C400 1.268 . S
O407 Sc397 2.105 . S
O407 C401 1.268 . S
O408 Sc398 2.105 . S
O408 C402 1.268 . S
O409 Sc396 2.105 . S
O409 C403 1.268 . S
O410 Sc398 2.105 . S
O410 C404 1.268 . S
O411 Sc397 2.105 . S
O411 C405 1.268 . S
O412 Sc396 2.105 . S
O412 C404 1.268 . S
O413 Sc397 2.105 . S
O413 C403 1.268 . S
O414 Sc398 2.105 . S
O414 C405 1.268 . S
O415 Sc396 2.105 . S
O415 C401 1.268 . S
O416 Sc398 2.105 . S
O416 C400 1.268 . S
O417 Sc397 2.105 . S
O417 C402 1.268 . S
Sc418 O421 2.025 . S
Sc418 O428 2.105 . S
Sc418 O431 2.105 . S
Sc418 O434 2.105 . S
Sc418 O437 2.105 . S
Sc419 O421 2.025 . S
Sc419 O429 2.105 . S
Sc419 O433 2.105 . S
Sc419 O435 2.105 . S
Sc419 O439 2.105 . S
Sc420 O421 2.025 . S
Sc420 O430 2.105 . S
Sc420 O432 2.105 . S
Sc420 O436 2.105 . S
Sc420 O438 2.105 . S
O421 Sc418 2.025 . S
O421 Sc419 2.025 . S
O421 Sc420 2.025 . S
C422 O428 1.268 . S
C422 O438 1.268 . S
C423 O429 1.268 . S
C423 O437 1.268 . S
C424 O430 1.268 . S
C424 O439 1.268 . S
C425 O431 1.268 . S
C425 O435 1.268 . S
C426 O432 1.268 . S
C426 O434 1.268 . S
C427 O433 1.268 . S
C427 O436 1.268 . S
O428 Sc418 2.105 . S
O428 C422 1.268 . S
O429 Sc419 2.105 . S
O429 C423 1.268 . S
O430 Sc420 2.105 . S
O430 C424 1.268 . S
O431 Sc418 2.105 . S
O431 C425 1.268 . S
O432 Sc420 2.105 . S
O432 C426 1.268 . S
O433 Sc419 2.105 . S
O433 C427 1.268 . S
O434 Sc418 2.105 . S
O434 C426 1.268 . S
O435 Sc419 2.105 . S
O435 C425 1.268 . S
O436 Sc420 2.105 . S
O436 C427 1.268 . S
O437 Sc418 2.105 . S
O437 C423 1.268 . S
O438 Sc420 2.105 . S
O438 C422 1.268 . S
O439 Sc419 2.105 . S
O439 C424 1.268 . S
Sc440 O443 2.025 . S
Sc440 O450 2.105 . S
Sc440 O453 2.105 . S
Sc440 O456 2.105 . S
Sc440 O459 2.105 . S
Sc441 O443 2.025 . S
Sc441 O451 2.105 . S
Sc441 O455 2.105 . S
Sc441 O457 2.105 . S
Sc441 O461 2.105 . S
Sc442 O443 2.025 . S
Sc442 O452 2.105 . S
Sc442 O454 2.105 . S
Sc442 O458 2.105 . S
Sc442 O460 2.105 . S
O443 Sc440 2.025 . S
O443 Sc441 2.025 . S
O443 Sc442 2.025 . S
C444 O450 1.268 . S
C444 O460 1.268 . S
C445 O451 1.268 . S
C445 O459 1.268 . S
C446 O452 1.268 . S
C446 O461 1.268 . S
C447 O453 1.268 . S
C447 O457 1.268 . S
C448 O454 1.268 . S
C448 O456 1.268 . S
C449 O455 1.268 . S
C449 O458 1.268 . S
O450 Sc440 2.105 . S
O450 C444 1.268 . S
O451 Sc441 2.105 . S
O451 C445 1.268 . S
O452 Sc442 2.105 . S
O452 C446 1.268 . S
O453 Sc440 2.105 . S
O453 C447 1.268 . S
O454 Sc442 2.105 . S
O454 C448 1.268 . S
O455 Sc441 2.105 . S
O455 C449 1.268 . S
O456 Sc440 2.105 . S
O456 C448 1.268 . S
O457 Sc441 2.105 . S
O457 C447 1.268 . S
O458 Sc442 2.105 . S
O458 C449 1.268 . S
O459 Sc440 2.105 . S
O459 C445 1.268 . S
O460 Sc442 2.105 . S
O460 C444 1.268 . S
O461 Sc441 2.105 . S
O461 C446 1.268 . S
Sc462 O465 2.025 . S
Sc462 O472 2.105 . S
Sc462 O475 2.105 . S
Sc462 O478 2.105 . S
Sc462 O481 2.105 . S
Sc463 O465 2.025 . S
Sc463 O473 2.105 . S
Sc463 O477 2.105 . S
Sc463 O479 2.105 . S
Sc463 O483 2.105 . S
Sc464 O465 2.025 . S
Sc464 O474 2.105 . S
Sc464 O476 2.105 . S
Sc464 O480 2.105 . S
Sc464 O482 2.105 . S
O465 Sc462 2.025 . S
O465 Sc463 2.025 . S
O465 Sc464 2.025 . S
C466 O472 1.268 . S
C466 O482 1.268 . S
C467 O473 1.268 . S
C467 O481 1.268 . S
C468 O474 1.268 . S
C468 O483 1.268 . S
C469 O475 1.268 . S
C469 O479 1.268 . S
C470 O476 1.268 . S
C470 O478 1.268 . S
C471 O477 1.268 . S
C471 O480 1.268 . S
O472 Sc462 2.105 . S
O472 C466 1.268 . S
O473 Sc463 2.105 . S
O473 C467 1.268 . S
O474 Sc464 2.105 . S
O474 C468 1.268 . S
O475 Sc462 2.105 . S
O475 C469 1.268 . S
O476 Sc464 2.105 . S
O476 C470 1.268 . S
O477 Sc463 2.105 . S
O477 C471 1.268 . S
O478 Sc462 2.105 . S
O478 C470 1.268 . S
O479 Sc463 2.105 . S
O479 C469 1.268 . S
O480 Sc464 2.105 . S
O480 C471 1.268 . S
O481 Sc462 2.105 . S
O481 C467 1.268 . S
O482 Sc464 2.105 . S
O482 C466 1.268 . S
O483 Sc463 2.105 . S
O483 C468 1.268 . S
Sc484 O487 2.025 . S
Sc484 O494 2.105 . S
Sc484 O497 2.105 . S
Sc484 O500 2.105 . S
Sc484 O503 2.105 . S
Sc485 O487 2.025 . S
Sc485 O495 2.105 . S
Sc485 O499 2.105 . S
Sc485 O501 2.105 . S
Sc485 O505 2.105 . S
Sc486 O487 2.025 . S
Sc486 O496 2.105 . S
Sc486 O498 2.105 . S
Sc486 O502 2.105 . S
Sc486 O504 2.105 . S
O487 Sc484 2.025 . S
O487 Sc485 2.025 . S
O487 Sc486 2.025 . S
C488 O494 1.268 . S
C488 O504 1.268 . S
C489 O495 1.268 . S
C489 O503 1.268 . S
C490 O496 1.268 . S
C490 O505 1.268 . S
C491 O497 1.268 . S
C491 O501 1.268 . S
C492 O498 1.268 . S
C492 O500 1.268 . S
C493 O499 1.268 . S
C493 O502 1.268 . S
O494 Sc484 2.105 . S
O494 C488 1.268 . S
O495 Sc485 2.105 . S
O495 C489 1.268 . S
O496 Sc486 2.105 . S
O496 C490 1.268 . S
O497 Sc484 2.105 . S
O497 C491 1.268 . S
O498 Sc486 2.105 . S
O498 C492 1.268 . S
O499 Sc485 2.105 . S
O499 C493 1.268 . S
O500 Sc484 2.105 . S
O500 C492 1.268 . S
O501 Sc485 2.105 . S
O501 C491 1.268 . S
O502 Sc486 2.105 . S
O502 C493 1.268 . S
O503 Sc484 2.105 . S
O503 C489 1.268 . S
O504 Sc486 2.105 . S
O504 C488 1.268 . S
O505 Sc485 2.105 . S
O505 C490 1.268 . S
Sc506 O509 2.025 . S
Sc506 O516 2.105 . S
Sc506 O519 2.105 . S
Sc506 O522 2.105 . S
Sc506 O525 2.105 . S
Sc507 O509 2.025 . S
Sc507 O517 2.105 . S
Sc507 O521 2.105 . S
Sc507 O523 2.105 . S
Sc507 O527 2.105 . S
Sc508 O509 2.025 . S
Sc508 O518 2.105 . S
Sc508 O520 2.105 . S
Sc508 O524 2.105 . S
Sc508 O526 2.105 . S
O509 Sc506 2.025 . S
O509 Sc507 2.025 . S
O509 Sc508 2.025 . S
C510 O516 1.268 . S
C510 O526 1.268 . S
C511 O517 1.268 . S
C511 O525 1.268 . S
C512 O518 1.268 . S
C512 O527 1.268 . S
C513 O519 1.268 . S
C513 O523 1.268 . S
C514 O520 1.268 . S
C514 O522 1.268 . S
C515 O521 1.268 . S
C515 O524 1.268 . S
O516 Sc506 2.105 . S
O516 C510 1.268 . S
O517 Sc507 2.105 . S
O517 C511 1.268 . S
O518 Sc508 2.105 . S
O518 C512 1.268 . S
O519 Sc506 2.105 . S
O519 C513 1.268 . S
O520 Sc508 2.105 . S
O520 C514 1.268 . S
O521 Sc507 2.105 . S
O521 C515 1.268 . S
O522 Sc506 2.105 . S
O522 C514 1.268 . S
O523 Sc507 2.105 . S
O523 C513 1.268 . S
O524 Sc508 2.105 . S
O524 C515 1.268 . S
O525 Sc506 2.105 . S
O525 C511 1.268 . S
O526 Sc508 2.105 . S
O526 C510 1.268 . S
O527 Sc507 2.105 . S
O527 C512 1.268 . S
Sc528 O531 2.025 . S
Sc528 O538 2.105 . S
Sc528 O541 2.105 . S
Sc528 O544 2.105 . S
Sc528 O547 2.105 . S
Sc529 O531 2.025 . S
Sc529 O539 2.105 . S
Sc529 O543 2.105 . S
Sc529 O545 2.105 . S
Sc529 O549 2.105 . S
Sc530 O531 2.025 . S
Sc530 O540 2.105 . S
Sc530 O542 2.105 . S
Sc530 O546 2.105 . S
Sc530 O548 2.105 . S
O531 Sc528 2.025 . S
O531 Sc529 2.025 . S
O531 Sc530 2.025 . S
C532 O538 1.268 . S
C532 O548 1.268 . S
C533 O539 1.268 . S
C533 O547 1.268 . S
C534 O540 1.268 . S
C534 O549 1.268 . S
C535 O541 1.268 . S
C535 O545 1.268 . S
C536 O542 1.268 . S
C536 O544 1.268 . S
C537 O543 1.268 . S
C537 O546 1.268 . S
O538 Sc528 2.105 . S
O538 C532 1.268 . S
O539 Sc529 2.105 . S
O539 C533 1.268 . S
O540 Sc530 2.105 . S
O540 C534 1.268 . S
O541 Sc528 2.105 . S
O541 C535 1.268 . S
O542 Sc530 2.105 . S
O542 C536 1.268 . S
O543 Sc529 2.105 . S
O543 C537 1.268 . S
O544 Sc528 2.105 . S
O544 C536 1.268 . S
O545 Sc529 2.105 . S
O545 C535 1.268 . S
O546 Sc530 2.105 . S
O546 C537 1.268 . S
O547 Sc528 2.105 . S
O547 C533 1.268 . S
O548 Sc530 2.105 . S
O548 C532 1.268 . S
O549 Sc529 2.105 . S
O549 C534 1.268 . S
Sc550 O553 2.025 . S
Sc550 O560 2.105 . S
Sc550 O563 2.105 . S
Sc550 O566 2.105 . S
Sc550 O569 2.105 . S
Sc551 O553 2.025 . S
Sc551 O561 2.105 . S
Sc551 O565 2.105 . S
Sc551 O567 2.105 . S
Sc551 O571 2.105 . S
Sc552 O553 2.025 . S
Sc552 O562 2.105 . S
Sc552 O564 2.105 . S
Sc552 O568 2.105 . S
Sc552 O570 2.105 . S
O553 Sc550 2.025 . S
O553 Sc551 2.025 . S
O553 Sc552 2.025 . S
C554 O560 1.268 . S
C554 O570 1.268 . S
C555 O561 1.268 . S
C555 O569 1.268 . S
C556 O562 1.268 . S
C556 O571 1.268 . S
C557 O563 1.268 . S
C557 O567 1.268 . S
C558 O564 1.268 . S
C558 O566 1.268 . S
C559 O565 1.268 . S
C559 O568 1.268 . S
O560 Sc550 2.105 . S
O560 C554 1.268 . S
O561 Sc551 2.105 . S
O561 C555 1.268 . S
O562 Sc552 2.105 . S
O562 C556 1.268 . S
O563 Sc550 2.105 . S
O563 C557 1.268 . S
O564 Sc552 2.105 . S
O564 C558 1.268 . S
O565 Sc551 2.105 . S
O565 C559 1.268 . S
O566 Sc550 2.105 . S
O566 C558 1.268 . S
O567 Sc551 2.105 . S
O567 C557 1.268 . S
O568 Sc552 2.105 . S
O568 C559 1.268 . S
O569 Sc550 2.105 . S
O569 C555 1.268 . S
O570 Sc552 2.105 . S
O570 C554 1.268 . S
O571 Sc551 2.105 . S
O571 C556 1.268 . S
Sc572 O575 2.025 . S
Sc572 O582 2.105 . S
Sc572 O585 2.105 . S
Sc572 O588 2.105 . S
Sc572 O591 2.105 . S
Sc573 O575 2.025 . S
Sc573 O583 2.105 . S
Sc573 O587 2.105 . S
Sc573 O589 2.105 . S
Sc573 O593 2.105 . S
Sc574 O575 2.025 . S
Sc574 O584 2.105 . S
Sc574 O586 2.105 . S
Sc574 O590 2.105 . S
Sc574 O592 2.105 . S
O575 Sc572 2.025 . S
O575 Sc573 2.025 . S
O575 Sc574 2.025 . S
C576 O582 1.268 . S
C576 O592 1.268 . S
C577 O583 1.268 . S
C577 O591 1.268 . S
C578 O584 1.268 . S
C578 O593 1.268 . S
C579 O585 1.268 . S
C579 O589 1.268 . S
C580 O586 1.268 . S
C580 O588 1.268 . S
C581 O587 1.268 . S
C581 O590 1.268 . S
O582 Sc572 2.105 . S
O582 C576 1.268 . S
O583 Sc573 2.105 . S
O583 C577 1.268 . S
O584 Sc574 2.105 . S
O584 C578 1.268 . S
O585 Sc572 2.105 . S
O585 C579 1.268 . S
O586 Sc574 2.105 . S
O586 C580 1.268 . S
O587 Sc573 2.105 . S
O587 C581 1.268 . S
O588 Sc572 2.105 . S
O588 C580 1.268 . S
O589 Sc573 2.105 . S
O589 C579 1.268 . S
O590 Sc574 2.105 . S
O590 C581 1.268 . S
O591 Sc572 2.105 . S
O591 C577 1.268 . S
O592 Sc574 2.105 . S
O592 C576 1.268 . S
O593 Sc573 2.105 . S
O593 C578 1.268 . S
Sc594 O597 2.025 . S
Sc594 O604 2.105 . S
Sc594 O607 2.105 . S
Sc594 O610 2.105 . S
Sc594 O613 2.105 . S
Sc595 O597 2.025 . S
Sc595 O605 2.105 . S
Sc595 O609 2.105 . S
Sc595 O611 2.105 . S
Sc595 O615 2.105 . S
Sc596 O597 2.025 . S
Sc596 O606 2.105 . S
Sc596 O608 2.105 . S
Sc596 O612 2.105 . S
Sc596 O614 2.105 . S
O597 Sc594 2.025 . S
O597 Sc595 2.025 . S
O597 Sc596 2.025 . S
C598 O604 1.268 . S
C598 O614 1.268 . S
C599 O605 1.268 . S
C599 O613 1.268 . S
C600 O606 1.268 . S
C600 O615 1.268 . S
C601 O607 1.268 . S
C601 O611 1.268 . S
C602 O608 1.268 . S
C602 O610 1.268 . S
C603 O609 1.268 . S
C603 O612 1.268 . S
O604 Sc594 2.105 . S
O604 C598 1.268 . S
O605 Sc595 2.105 . S
O605 C599 1.268 . S
O606 Sc596 2.105 . S
O606 C600 1.268 . S
O607 Sc594 2.105 . S
O607 C601 1.268 . S
O608 Sc596 2.105 . S
O608 C602 1.268 . S
O609 Sc595 2.105 . S
O609 C603 1.268 . S
O610 Sc594 2.105 . S
O610 C602 1.268 . S
O611 Sc595 2.105 . S
O611 C601 1.268 . S
O612 Sc596 2.105 . S
O612 C603 1.268 . S
O613 Sc594 2.105 . S
O613 C599 1.268 . S
O614 Sc596 2.105 . S
O614 C598 1.268 . S
O615 Sc595 2.105 . S
O615 C600 1.268 . S
Sc616 O619 2.025 . S
Sc616 O626 2.105 . S
Sc616 O629 2.105 . S
Sc616 O632 2.105 . S
Sc616 O635 2.105 . S
Sc617 O619 2.025 . S
Sc617 O627 2.105 . S
Sc617 O631 2.105 . S
Sc617 O633 2.105 . S
Sc617 O637 2.105 . S
Sc618 O619 2.025 . S
Sc618 O628 2.105 . S
Sc618 O630 2.105 . S
Sc618 O634 2.105 . S
Sc618 O636 2.105 . S
O619 Sc616 2.025 . S
O619 Sc617 2.025 . S
O619 Sc618 2.025 . S
C620 O626 1.268 . S
C620 O636 1.268 . S
C621 O627 1.268 . S
C621 O635 1.268 . S
C622 O628 1.268 . S
C622 O637 1.268 . S
C623 O629 1.268 . S
C623 O633 1.268 . S
C624 O630 1.268 . S
C624 O632 1.268 . S
C625 O631 1.268 . S
C625 O634 1.268 . S
O626 Sc616 2.105 . S
O626 C620 1.268 . S
O627 Sc617 2.105 . S
O627 C621 1.268 . S
O628 Sc618 2.105 . S
O628 C622 1.268 . S
O629 Sc616 2.105 . S
O629 C623 1.268 . S
O630 Sc618 2.105 . S
O630 C624 1.268 . S
O631 Sc617 2.105 . S
O631 C625 1.268 . S
O632 Sc616 2.105 . S
O632 C624 1.268 . S
O633 Sc617 2.105 . S
O633 C623 1.268 . S
O634 Sc618 2.105 . S
O634 C625 1.268 . S
O635 Sc616 2.105 . S
O635 C621 1.268 . S
O636 Sc618 2.105 . S
O636 C620 1.268 . S
O637 Sc617 2.105 . S
O637 C622 1.268 . S
Sc638 O641 2.025 . S
Sc638 O648 2.105 . S
Sc638 O651 2.105 . S
Sc638 O654 2.105 . S
Sc638 O657 2.105 . S
Sc639 O641 2.025 . S
Sc639 O649 2.105 . S
Sc639 O653 2.105 . S
Sc639 O655 2.105 . S
Sc639 O659 2.105 . S
Sc640 O641 2.025 . S
Sc640 O650 2.105 . S
Sc640 O652 2.105 . S
Sc640 O656 2.105 . S
Sc640 O658 2.105 . S
O641 Sc638 2.025 . S
O641 Sc639 2.025 . S
O641 Sc640 2.025 . S
C642 O648 1.268 . S
C642 O658 1.268 . S
C643 O649 1.268 . S
C643 O657 1.268 . S
C644 O650 1.268 . S
C644 O659 1.268 . S
C645 O651 1.268 . S
C645 O655 1.268 . S
C646 O652 1.268 . S
C646 O654 1.268 . S
C647 O653 1.268 . S
C647 O656 1.268 . S
O648 Sc638 2.105 . S
O648 C642 1.268 . S
O649 Sc639 2.105 . S
O649 C643 1.268 . S
O650 Sc640 2.105 . S
O650 C644 1.268 . S
O651 Sc638 2.105 . S
O651 C645 1.268 . S
O652 Sc640 2.105 . S
O652 C646 1.268 . S
O653 Sc639 2.105 . S
O653 C647 1.268 . S
O654 Sc638 2.105 . S
O654 C646 1.268 . S
O655 Sc639 2.105 . S
O655 C645 1.268 . S
O656 Sc640 2.105 . S
O656 C647 1.268 . S
O657 Sc638 2.105 . S
O657 C643 1.268 . S
O658 Sc640 2.105 . S
O658 C642 1.268 . S
O659 Sc639 2.105 . S
O659 C644 1.268 . S
Sc660 O663 2.025 . S
Sc660 O670 2.105 . S
Sc660 O673 2.105 . S
Sc660 O676 2.105 . S
Sc660 O679 2.105 . S
Sc661 O663 2.025 . S
Sc661 O671 2.105 . S
Sc661 O675 2.105 . S
Sc661 O677 2.105 . S
Sc661 O681 2.105 . S
Sc662 O663 2.025 . S
Sc662 O672 2.105 . S
Sc662 O674 2.105 . S
Sc662 O678 2.105 . S
Sc662 O680 2.105 . S
O663 Sc660 2.025 . S
O663 Sc661 2.025 . S
O663 Sc662 2.025 . S
C664 O670 1.268 . S
C664 O680 1.268 . S
C665 O671 1.268 . S
C665 O679 1.268 . S
C666 O672 1.268 . S
C666 O681 1.268 . S
C667 O673 1.268 . S
C667 O677 1.268 . S
C668 O674 1.268 . S
C668 O676 1.268 . S
C669 O675 1.268 . S
C669 O678 1.268 . S
O670 Sc660 2.105 . S
O670 C664 1.268 . S
O671 Sc661 2.105 . S
O671 C665 1.268 . S
O672 Sc662 2.105 . S
O672 C666 1.268 . S
O673 Sc660 2.105 . S
O673 C667 1.268 . S
O674 Sc662 2.105 . S
O674 C668 1.268 . S
O675 Sc661 2.105 . S
O675 C669 1.268 . S
O676 Sc660 2.105 . S
O676 C668 1.268 . S
O677 Sc661 2.105 . S
O677 C667 1.268 . S
O678 Sc662 2.105 . S
O678 C669 1.268 . S
O679 Sc660 2.105 . S
O679 C665 1.268 . S
O680 Sc662 2.105 . S
O680 C664 1.268 . S
O681 Sc661 2.105 . S
O681 C666 1.268 . S
Sc682 O685 2.025 . S
Sc682 O692 2.105 . S
Sc682 O695 2.105 . S
Sc682 O698 2.105 . S
Sc682 O701 2.105 . S
Sc683 O685 2.025 . S
Sc683 O693 2.105 . S
Sc683 O697 2.105 . S
Sc683 O699 2.105 . S
Sc683 O703 2.105 . S
Sc684 O685 2.025 . S
Sc684 O694 2.105 . S
Sc684 O696 2.105 . S
Sc684 O700 2.105 . S
Sc684 O702 2.105 . S
O685 Sc682 2.025 . S
O685 Sc683 2.025 . S
O685 Sc684 2.025 . S
C686 O692 1.268 . S
C686 O702 1.268 . S
C687 O693 1.268 . S
C687 O701 1.268 . S
C688 O694 1.268 . S
C688 O703 1.268 . S
C689 O695 1.268 . S
C689 O699 1.268 . S
C690 O696 1.268 . S
C690 O698 1.268 . S
C691 O697 1.268 . S
C691 O700 1.268 . S
O692 Sc682 2.105 . S
O692 C686 1.268 . S
O693 Sc683 2.105 . S
O693 C687 1.268 . S
O694 Sc684 2.105 . S
O694 C688 1.268 . S
O695 Sc682 2.105 . S
O695 C689 1.268 . S
O696 Sc684 2.105 . S
O696 C690 1.268 . S
O697 Sc683 2.105 . S
O697 C691 1.268 . S
O698 Sc682 2.105 . S
O698 C690 1.268 . S
O699 Sc683 2.105 . S
O699 C689 1.268 . S
O700 Sc684 2.105 . S
O700 C691 1.268 . S
O701 Sc682 2.105 . S
O701 C687 1.268 . S
O702 Sc684 2.105 . S
O702 C686 1.268 . S
O703 Sc683 2.105 . S
O703 C688 1.268 . S
H704 C710 0.930 . S
H705 C713 0.930 . S
H706 C714 0.930 . S
H707 C715 0.930 . S
H708 C718 0.930 . S
H709 C719 0.930 . S
C710 H704 0.930 . S
C710 C711 1.355 . S
C710 C712 1.415 . S
C711 C710 1.355 . S
C711 C713 1.419 . S
C712 C710 1.415 . S
C712 C717 1.425 . S
C712 C719 1.409 . S
C713 H705 0.930 . S
C713 C711 1.419 . S
C713 C714 1.362 . S
C714 H706 0.930 . S
C714 C713 1.362 . S
C714 C717 1.409 . S
C715 H707 0.930 . S
C715 C716 1.355 . S
C715 C717 1.415 . S
C716 C715 1.355 . S
C716 C718 1.419 . S
C717 C712 1.425 . S
C717 C714 1.409 . S
C717 C715 1.415 . S
C718 H708 0.930 . S
C718 C716 1.419 . S
C718 C719 1.362 . S
C719 H709 0.930 . S
C719 C712 1.409 . S
C719 C718 1.362 . S
H720 C726 0.930 . S
H721 C729 0.930 . S
H722 C730 0.930 . S
H723 C731 0.930 . S
H724 C734 0.930 . S
H725 C735 0.930 . S
C726 H720 0.930 . S
C726 C727 1.355 . S
C726 C728 1.415 . S
C727 C726 1.355 . S
C727 C729 1.419 . S
C728 C726 1.415 . S
C728 C733 1.425 . S
C728 C735 1.409 . S
C729 H721 0.930 . S
C729 C727 1.419 . S
C729 C730 1.362 . S
C730 H722 0.930 . S
C730 C729 1.362 . S
C730 C733 1.409 . S
C731 H723 0.930 . S
C731 C732 1.355 . S
C731 C733 1.415 . S
C732 C731 1.355 . S
C732 C734 1.419 . S
C733 C728 1.425 . S
C733 C730 1.409 . S
C733 C731 1.415 . S
C734 H724 0.930 . S
C734 C732 1.419 . S
C734 C735 1.362 . S
C735 H725 0.930 . S
C735 C728 1.409 . S
C735 C734 1.362 . S
H736 C742 0.930 . S
H737 C745 0.930 . S
H738 C746 0.930 . S
H739 C747 0.930 . S
H740 C750 0.930 . S
H741 C751 0.930 . S
C742 H736 0.930 . S
C742 C743 1.355 . S
C742 C744 1.415 . S
C743 C742 1.355 . S
C743 C745 1.419 . S
C744 C742 1.415 . S
C744 C749 1.425 . S
C744 C751 1.409 . S
C745 H737 0.930 . S
C745 C743 1.419 . S
C745 C746 1.362 . S
C746 H738 0.930 . S
C746 C745 1.362 . S
C746 C749 1.409 . S
C747 H739 0.930 . S
C747 C748 1.355 . S
C747 C749 1.415 . S
C748 C747 1.355 . S
C748 C750 1.419 . S
C749 C744 1.425 . S
C749 C746 1.409 . S
C749 C747 1.415 . S
C750 H740 0.930 . S
C750 C748 1.419 . S
C750 C751 1.362 . S
C751 H741 0.930 . S
C751 C744 1.409 . S
C751 C750 1.362 . S
H752 C758 0.930 . S
H753 C761 0.930 . S
H754 C762 0.930 . S
H755 C763 0.930 . S
H756 C766 0.930 . S
H757 C767 0.930 . S
C758 H752 0.930 . S
C758 C759 1.355 . S
C758 C760 1.415 . S
C759 C758 1.355 . S
C759 C761 1.419 . S
C760 C758 1.415 . S
C760 C765 1.425 . S
C760 C767 1.409 . S
C761 H753 0.930 . S
C761 C759 1.419 . S
C761 C762 1.362 . S
C762 H754 0.930 . S
C762 C761 1.362 . S
C762 C765 1.409 . S
C763 H755 0.930 . S
C763 C764 1.355 . S
C763 C765 1.415 . S
C764 C763 1.355 . S
C764 C766 1.419 . S
C765 C760 1.425 . S
C765 C762 1.409 . S
C765 C763 1.415 . S
C766 H756 0.930 . S
C766 C764 1.419 . S
C766 C767 1.362 . S
C767 H757 0.930 . S
C767 C760 1.409 . S
C767 C766 1.362 . S
H768 C774 0.930 . S
H769 C777 0.930 . S
H770 C778 0.930 . S
H771 C779 0.930 . S
H772 C782 0.930 . S
H773 C783 0.930 . S
C774 H768 0.930 . S
C774 C775 1.355 . S
C774 C776 1.415 . S
C775 C774 1.355 . S
C775 C777 1.419 . S
C776 C774 1.415 . S
C776 C781 1.425 . S
C776 C783 1.409 . S
C777 H769 0.930 . S
C777 C775 1.419 . S
C777 C778 1.362 . S
C778 H770 0.930 . S
C778 C777 1.362 . S
C778 C781 1.409 . S
C779 H771 0.930 . S
C779 C780 1.355 . S
C779 C781 1.415 . S
C780 C779 1.355 . S
C780 C782 1.419 . S
C781 C776 1.425 . S
C781 C778 1.409 . S
C781 C779 1.415 . S
C782 H772 0.930 . S
C782 C780 1.419 . S
C782 C783 1.362 . S
C783 H773 0.930 . S
C783 C776 1.409 . S
C783 C782 1.362 . S
H784 C790 0.930 . S
H785 C793 0.930 . S
H786 C794 0.930 . S
H787 C795 0.930 . S
H788 C798 0.930 . S
H789 C799 0.930 . S
C790 H784 0.930 . S
C790 C791 1.355 . S
C790 C792 1.415 . S
C791 C790 1.355 . S
C791 C793 1.419 . S
C792 C790 1.415 . S
C792 C797 1.425 . S
C792 C799 1.409 . S
C793 H785 0.930 . S
C793 C791 1.419 . S
C793 C794 1.362 . S
C794 H786 0.930 . S
C794 C793 1.362 . S
C794 C797 1.409 . S
C795 H787 0.930 . S
C795 C796 1.355 . S
C795 C797 1.415 . S
C796 C795 1.355 . S
C796 C798 1.419 . S
C797 C792 1.425 . S
C797 C794 1.409 . S
C797 C795 1.415 . S
C798 H788 0.930 . S
C798 C796 1.419 . S
C798 C799 1.362 . S
C799 H789 0.930 . S
C799 C792 1.409 . S
C799 C798 1.362 . S
H800 C806 0.930 . S
H801 C809 0.930 . S
H802 C810 0.930 . S
H803 C811 0.930 . S
H804 C814 0.930 . S
H805 C815 0.930 . S
C806 H800 0.930 . S
C806 C807 1.355 . S
C806 C808 1.415 . S
C807 C806 1.355 . S
C807 C809 1.419 . S
C808 C806 1.415 . S
C808 C813 1.425 . S
C808 C815 1.409 . S
C809 H801 0.930 . S
C809 C807 1.419 . S
C809 C810 1.362 . S
C810 H802 0.930 . S
C810 C809 1.362 . S
C810 C813 1.409 . S
C811 H803 0.930 . S
C811 C812 1.355 . S
C811 C813 1.415 . S
C812 C811 1.355 . S
C812 C814 1.419 . S
C813 C808 1.425 . S
C813 C810 1.409 . S
C813 C811 1.415 . S
C814 H804 0.930 . S
C814 C812 1.419 . S
C814 C815 1.362 . S
C815 H805 0.930 . S
C815 C808 1.409 . S
C815 C814 1.362 . S
H816 C822 0.930 . S
H817 C825 0.930 . S
H818 C826 0.930 . S
H819 C827 0.930 . S
H820 C830 0.930 . S
H821 C831 0.930 . S
C822 H816 0.930 . S
C822 C823 1.355 . S
C822 C824 1.415 . S
C823 C822 1.355 . S
C823 C825 1.419 . S
C824 C822 1.415 . S
C824 C829 1.425 . S
C824 C831 1.409 . S
C825 H817 0.930 . S
C825 C823 1.419 . S
C825 C826 1.362 . S
C826 H818 0.930 . S
C826 C825 1.362 . S
C826 C829 1.409 . S
C827 H819 0.930 . S
C827 C828 1.355 . S
C827 C829 1.415 . S
C828 C827 1.355 . S
C828 C830 1.419 . S
C829 C824 1.425 . S
C829 C826 1.409 . S
C829 C827 1.415 . S
C830 H820 0.930 . S
C830 C828 1.419 . S
C830 C831 1.362 . S
C831 H821 0.930 . S
C831 C824 1.409 . S
C831 C830 1.362 . S
H832 C838 0.930 . S
H833 C841 0.930 . S
H834 C842 0.930 . S
H835 C843 0.930 . S
H836 C846 0.930 . S
H837 C847 0.930 . S
C838 H832 0.930 . S
C838 C839 1.355 . S
C838 C840 1.415 . S
C839 C838 1.355 . S
C839 C841 1.419 . S
C840 C838 1.415 . S
C840 C845 1.425 . S
C840 C847 1.409 . S
C841 H833 0.930 . S
C841 C839 1.419 . S
C841 C842 1.362 . S
C842 H834 0.930 . S
C842 C841 1.362 . S
C842 C845 1.409 . S
C843 H835 0.930 . S
C843 C844 1.355 . S
C843 C845 1.415 . S
C844 C843 1.355 . S
C844 C846 1.419 . S
C845 C840 1.425 . S
C845 C842 1.409 . S
C845 C843 1.415 . S
C846 H836 0.930 . S
C846 C844 1.419 . S
C846 C847 1.362 . S
C847 H837 0.930 . S
C847 C840 1.409 . S
C847 C846 1.362 . S
H848 C854 0.930 . S
H849 C857 0.930 . S
H850 C858 0.930 . S
H851 C859 0.930 . S
H852 C862 0.930 . S
H853 C863 0.930 . S
C854 H848 0.930 . S
C854 C855 1.355 . S
C854 C856 1.415 . S
C855 C854 1.355 . S
C855 C857 1.419 . S
C856 C854 1.415 . S
C856 C861 1.425 . S
C856 C863 1.409 . S
C857 H849 0.930 . S
C857 C855 1.419 . S
C857 C858 1.362 . S
C858 H850 0.930 . S
C858 C857 1.362 . S
C858 C861 1.409 . S
C859 H851 0.930 . S
C859 C860 1.355 . S
C859 C861 1.415 . S
C860 C859 1.355 . S
C860 C862 1.419 . S
C861 C856 1.425 . S
C861 C858 1.409 . S
C861 C859 1.415 . S
C862 H852 0.930 . S
C862 C860 1.419 . S
C862 C863 1.362 . S
C863 H853 0.930 . S
C863 C856 1.409 . S
C863 C862 1.362 . S
H864 C870 0.930 . S
H865 C873 0.930 . S
H866 C874 0.930 . S
H867 C875 0.930 . S
H868 C878 0.930 . S
H869 C879 0.930 . S
C870 H864 0.930 . S
C870 C871 1.355 . S
C870 C872 1.415 . S
C871 C870 1.355 . S
C871 C873 1.419 . S
C872 C870 1.415 . S
C872 C877 1.425 . S
C872 C879 1.409 . S
C873 H865 0.930 . S
C873 C871 1.419 . S
C873 C874 1.362 . S
C874 H866 0.930 . S
C874 C873 1.362 . S
C874 C877 1.409 . S
C875 H867 0.930 . S
C875 C876 1.355 . S
C875 C877 1.415 . S
C876 C875 1.355 . S
C876 C878 1.419 . S
C877 C872 1.425 . S
C877 C874 1.409 . S
C877 C875 1.415 . S
C878 H868 0.930 . S
C878 C876 1.419 . S
C878 C879 1.362 . S
C879 H869 0.930 . S
C879 C872 1.409 . S
C879 C878 1.362 . S
H880 C886 0.930 . S
H881 C889 0.930 . S
H882 C890 0.930 . S
H883 C891 0.930 . S
H884 C894 0.930 . S
H885 C895 0.930 . S
C886 H880 0.930 . S
C886 C887 1.355 . S
C886 C888 1.415 . S
C887 C886 1.355 . S
C887 C889 1.419 . S
C888 C886 1.415 . S
C888 C893 1.425 . S
C888 C895 1.409 . S
C889 H881 0.930 . S
C889 C887 1.419 . S
C889 C890 1.362 . S
C890 H882 0.930 . S
C890 C889 1.362 . S
C890 C893 1.409 . S
C891 H883 0.930 . S
C891 C892 1.355 . S
C891 C893 1.415 . S
C892 C891 1.355 . S
C892 C894 1.419 . S
C893 C888 1.425 . S
C893 C890 1.409 . S
C893 C891 1.415 . S
C894 H884 0.930 . S
C894 C892 1.419 . S
C894 C895 1.362 . S
C895 H885 0.930 . S
C895 C888 1.409 . S
C895 C894 1.362 . S
H896 C902 0.930 . S
H897 C905 0.930 . S
H898 C906 0.930 . S
H899 C907 0.930 . S
H900 C910 0.930 . S
H901 C911 0.930 . S
C902 H896 0.930 . S
C902 C903 1.355 . S
C902 C904 1.415 . S
C903 C902 1.355 . S
C903 C905 1.419 . S
C904 C902 1.415 . S
C904 C909 1.425 . S
C904 C911 1.409 . S
C905 H897 0.930 . S
C905 C903 1.419 . S
C905 C906 1.362 . S
C906 H898 0.930 . S
C906 C905 1.362 . S
C906 C909 1.409 . S
C907 H899 0.930 . S
C907 C908 1.355 . S
C907 C909 1.415 . S
C908 C907 1.355 . S
C908 C910 1.419 . S
C909 C904 1.425 . S
C909 C906 1.409 . S
C909 C907 1.415 . S
C910 H900 0.930 . S
C910 C908 1.419 . S
C910 C911 1.362 . S
C911 H901 0.930 . S
C911 C904 1.409 . S
C911 C910 1.362 . S
H912 C918 0.930 . S
H913 C921 0.930 . S
H914 C922 0.930 . S
H915 C923 0.930 . S
H916 C926 0.930 . S
H917 C927 0.930 . S
C918 H912 0.930 . S
C918 C919 1.355 . S
C918 C920 1.415 . S
C919 C918 1.355 . S
C919 C921 1.419 . S
C920 C918 1.415 . S
C920 C925 1.425 . S
C920 C927 1.409 . S
C921 H913 0.930 . S
C921 C919 1.419 . S
C921 C922 1.362 . S
C922 H914 0.930 . S
C922 C921 1.362 . S
C922 C925 1.409 . S
C923 H915 0.930 . S
C923 C924 1.355 . S
C923 C925 1.415 . S
C924 C923 1.355 . S
C924 C926 1.419 . S
C925 C920 1.425 . S
C925 C922 1.409 . S
C925 C923 1.415 . S
C926 H916 0.930 . S
C926 C924 1.419 . S
C926 C927 1.362 . S
C927 H917 0.930 . S
C927 C920 1.409 . S
C927 C926 1.362 . S
H928 C934 0.930 . S
H929 C937 0.930 . S
H930 C938 0.930 . S
H931 C939 0.930 . S
H932 C942 0.930 . S
H933 C943 0.930 . S
C934 H928 0.930 . S
C934 C935 1.355 . S
C934 C936 1.415 . S
C935 C934 1.355 . S
C935 C937 1.419 . S
C936 C934 1.415 . S
C936 C941 1.425 . S
C936 C943 1.409 . S
C937 H929 0.930 . S
C937 C935 1.419 . S
C937 C938 1.362 . S
C938 H930 0.930 . S
C938 C937 1.362 . S
C938 C941 1.409 . S
C939 H931 0.930 . S
C939 C940 1.355 . S
C939 C941 1.415 . S
C940 C939 1.355 . S
C940 C942 1.419 . S
C941 C936 1.425 . S
C941 C938 1.409 . S
C941 C939 1.415 . S
C942 H932 0.930 . S
C942 C940 1.419 . S
C942 C943 1.362 . S
C943 H933 0.930 . S
C943 C936 1.409 . S
C943 C942 1.362 . S
H944 C950 0.930 . S
H945 C953 0.930 . S
H946 C954 0.930 . S
H947 C955 0.930 . S
H948 C958 0.930 . S
H949 C959 0.930 . S
C950 H944 0.930 . S
C950 C951 1.355 . S
C950 C952 1.415 . S
C951 C950 1.355 . S
C951 C953 1.419 . S
C952 C950 1.415 . S
C952 C957 1.425 . S
C952 C959 1.409 . S
C953 H945 0.930 . S
C953 C951 1.419 . S
C953 C954 1.362 . S
C954 H946 0.930 . S
C954 C953 1.362 . S
C954 C957 1.409 . S
C955 H947 0.930 . S
C955 C956 1.355 . S
C955 C957 1.415 . S
C956 C955 1.355 . S
C956 C958 1.419 . S
C957 C952 1.425 . S
C957 C954 1.409 . S
C957 C955 1.415 . S
C958 H948 0.930 . S
C958 C956 1.419 . S
C958 C959 1.362 . S
C959 H949 0.930 . S
C959 C952 1.409 . S
C959 C958 1.362 . S
H960 C966 0.930 . S
H961 C969 0.930 . S
H962 C970 0.930 . S
H963 C971 0.930 . S
H964 C974 0.930 . S
H965 C975 0.930 . S
C966 H960 0.930 . S
C966 C967 1.355 . S
C966 C968 1.415 . S
C967 C966 1.355 . S
C967 C969 1.419 . S
C968 C966 1.415 . S
C968 C973 1.425 . S
C968 C975 1.409 . S
C969 H961 0.930 . S
C969 C967 1.419 . S
C969 C970 1.362 . S
C970 H962 0.930 . S
C970 C969 1.362 . S
C970 C973 1.409 . S
C971 H963 0.930 . S
C971 C972 1.355 . S
C971 C973 1.415 . S
C972 C971 1.355 . S
C972 C974 1.419 . S
C973 C968 1.425 . S
C973 C970 1.409 . S
C973 C971 1.415 . S
C974 H964 0.930 . S
C974 C972 1.419 . S
C974 C975 1.362 . S
C975 H965 0.930 . S
C975 C968 1.409 . S
C975 C974 1.362 . S
H976 C982 0.930 . S
H977 C985 0.930 . S
H978 C986 0.930 . S
H979 C987 0.930 . S
H980 C990 0.930 . S
H981 C991 0.930 . S
C982 H976 0.930 . S
C982 C983 1.355 . S
C982 C984 1.415 . S
C983 C982 1.355 . S
C983 C985 1.419 . S
C984 C982 1.415 . S
C984 C989 1.425 . S
C984 C991 1.409 . S
C985 H977 0.930 . S
C985 C983 1.419 . S
C985 C986 1.362 . S
C986 H978 0.930 . S
C986 C985 1.362 . S
C986 C989 1.409 . S
C987 H979 0.930 . S
C987 C988 1.355 . S
C987 C989 1.415 . S
C988 C987 1.355 . S
C988 C990 1.419 . S
C989 C984 1.425 . S
C989 C986 1.409 . S
C989 C987 1.415 . S
C990 H980 0.930 . S
C990 C988 1.419 . S
C990 C991 1.362 . S
C991 H981 0.930 . S
C991 C984 1.409 . S
C991 C990 1.362 . S
H992 C998 0.930 . S
H993 C1001 0.930 . S
H994 C1002 0.930 . S
H995 C1003 0.930 . S
H996 C1006 0.930 . S
H997 C1007 0.930 . S
C998 H992 0.930 . S
C998 C999 1.355 . S
C998 C1000 1.415 . S
C999 C998 1.355 . S
C999 C1001 1.419 . S
C1000 C998 1.415 . S
C1000 C1005 1.425 . S
C1000 C1007 1.409 . S
C1001 H993 0.930 . S
C1001 C999 1.419 . S
C1001 C1002 1.362 . S
C1002 H994 0.930 . S
C1002 C1001 1.362 . S
C1002 C1005 1.409 . S
C1003 H995 0.930 . S
C1003 C1004 1.355 . S
C1003 C1005 1.415 . S
C1004 C1003 1.355 . S
C1004 C1006 1.419 . S
C1005 C1000 1.425 . S
C1005 C1002 1.409 . S
C1005 C1003 1.415 . S
C1006 H996 0.930 . S
C1006 C1004 1.419 . S
C1006 C1007 1.362 . S
C1007 H997 0.930 . S
C1007 C1000 1.409 . S
C1007 C1006 1.362 . S
H1008 C1014 0.930 . S
H1009 C1017 0.930 . S
H1010 C1018 0.930 . S
H1011 C1019 0.930 . S
H1012 C1022 0.930 . S
H1013 C1023 0.930 . S
C1014 H1008 0.930 . S
C1014 C1015 1.355 . S
C1014 C1016 1.415 . S
C1015 C1014 1.355 . S
C1015 C1017 1.419 . S
C1016 C1014 1.415 . S
C1016 C1021 1.425 . S
C1016 C1023 1.409 . S
C1017 H1009 0.930 . S
C1017 C1015 1.419 . S
C1017 C1018 1.362 . S
C1018 H1010 0.930 . S
C1018 C1017 1.362 . S
C1018 C1021 1.409 . S
C1019 H1011 0.930 . S
C1019 C1020 1.355 . S
C1019 C1021 1.415 . S
C1020 C1019 1.355 . S
C1020 C1022 1.419 . S
C1021 C1016 1.425 . S
C1021 C1018 1.409 . S
C1021 C1019 1.415 . S
C1022 H1012 0.930 . S
C1022 C1020 1.419 . S
C1022 C1023 1.362 . S
C1023 H1013 0.930 . S
C1023 C1016 1.409 . S
C1023 C1022 1.362 . S
H1024 C1030 0.930 . S
H1025 C1033 0.930 . S
H1026 C1034 0.930 . S
H1027 C1035 0.930 . S
H1028 C1038 0.930 . S
H1029 C1039 0.930 . S
C1030 H1024 0.930 . S
C1030 C1031 1.355 . S
C1030 C1032 1.415 . S
C1031 C1030 1.355 . S
C1031 C1033 1.419 . S
C1032 C1030 1.415 . S
C1032 C1037 1.425 . S
C1032 C1039 1.409 . S
C1033 H1025 0.930 . S
C1033 C1031 1.419 . S
C1033 C1034 1.362 . S
C1034 H1026 0.930 . S
C1034 C1033 1.362 . S
C1034 C1037 1.409 . S
C1035 H1027 0.930 . S
C1035 C1036 1.355 . S
C1035 C1037 1.415 . S
C1036 C1035 1.355 . S
C1036 C1038 1.419 . S
C1037 C1032 1.425 . S
C1037 C1034 1.409 . S
C1037 C1035 1.415 . S
C1038 H1028 0.930 . S
C1038 C1036 1.419 . S
C1038 C1039 1.362 . S
C1039 H1029 0.930 . S
C1039 C1032 1.409 . S
C1039 C1038 1.362 . S
H1040 C1046 0.930 . S
H1041 C1049 0.930 . S
H1042 C1050 0.930 . S
H1043 C1051 0.930 . S
H1044 C1054 0.930 . S
H1045 C1055 0.930 . S
C1046 H1040 0.930 . S
C1046 C1047 1.355 . S
C1046 C1048 1.415 . S
C1047 C1046 1.355 . S
C1047 C1049 1.419 . S
C1048 C1046 1.415 . S
C1048 C1053 1.425 . S
C1048 C1055 1.409 . S
C1049 H1041 0.930 . S
C1049 C1047 1.419 . S
C1049 C1050 1.362 . S
C1050 H1042 0.930 . S
C1050 C1049 1.362 . S
C1050 C1053 1.409 . S
C1051 H1043 0.930 . S
C1051 C1052 1.355 . S
C1051 C1053 1.415 . S
C1052 C1051 1.355 . S
C1052 C1054 1.419 . S
C1053 C1048 1.425 . S
C1053 C1050 1.409 . S
C1053 C1051 1.415 . S
C1054 H1044 0.930 . S
C1054 C1052 1.419 . S
C1054 C1055 1.362 . S
C1055 H1045 0.930 . S
C1055 C1048 1.409 . S
C1055 C1054 1.362 . S
H1056 C1062 0.930 . S
H1057 C1065 0.930 . S
H1058 C1066 0.930 . S
H1059 C1067 0.930 . S
H1060 C1070 0.930 . S
H1061 C1071 0.930 . S
C1062 H1056 0.930 . S
C1062 C1063 1.355 . S
C1062 C1064 1.415 . S
C1063 C1062 1.355 . S
C1063 C1065 1.419 . S
C1064 C1062 1.415 . S
C1064 C1069 1.425 . S
C1064 C1071 1.409 . S
C1065 H1057 0.930 . S
C1065 C1063 1.419 . S
C1065 C1066 1.362 . S
C1066 H1058 0.930 . S
C1066 C1065 1.362 . S
C1066 C1069 1.409 . S
C1067 H1059 0.930 . S
C1067 C1068 1.355 . S
C1067 C1069 1.415 . S
C1068 C1067 1.355 . S
C1068 C1070 1.419 . S
C1069 C1064 1.425 . S
C1069 C1066 1.409 . S
C1069 C1067 1.415 . S
C1070 H1060 0.930 . S
C1070 C1068 1.419 . S
C1070 C1071 1.362 . S
C1071 H1061 0.930 . S
C1071 C1064 1.409 . S
C1071 C1070 1.362 . S
H1072 C1078 0.930 . S
H1073 C1081 0.930 . S
H1074 C1082 0.930 . S
H1075 C1083 0.930 . S
H1076 C1086 0.930 . S
H1077 C1087 0.930 . S
C1078 H1072 0.930 . S
C1078 C1079 1.355 . S
C1078 C1080 1.415 . S
C1079 C1078 1.355 . S
C1079 C1081 1.419 . S
C1080 C1078 1.415 . S
C1080 C1085 1.425 . S
C1080 C1087 1.409 . S
C1081 H1073 0.930 . S
C1081 C1079 1.419 . S
C1081 C1082 1.362 . S
C1082 H1074 0.930 . S
C1082 C1081 1.362 . S
C1082 C1085 1.409 . S
C1083 H1075 0.930 . S
C1083 C1084 1.355 . S
C1083 C1085 1.415 . S
C1084 C1083 1.355 . S
C1084 C1086 1.419 . S
C1085 C1080 1.425 . S
C1085 C1082 1.409 . S
C1085 C1083 1.415 . S
C1086 H1076 0.930 . S
C1086 C1084 1.419 . S
C1086 C1087 1.362 . S
C1087 H1077 0.930 . S
C1087 C1080 1.409 . S
C1087 C1086 1.362 . S
H1088 C1094 0.930 . S
H1089 C1097 0.930 . S
H1090 C1098 0.930 . S
H1091 C1099 0.930 . S
H1092 C1102 0.930 . S
H1093 C1103 0.930 . S
C1094 H1088 0.930 . S
C1094 C1095 1.355 . S
C1094 C1096 1.415 . S
C1095 C1094 1.355 . S
C1095 C1097 1.419 . S
C1096 C1094 1.415 . S
C1096 C1101 1.425 . S
C1096 C1103 1.409 . S
C1097 H1089 0.930 . S
C1097 C1095 1.419 . S
C1097 C1098 1.362 . S
C1098 H1090 0.930 . S
C1098 C1097 1.362 . S
C1098 C1101 1.409 . S
C1099 H1091 0.930 . S
C1099 C1100 1.355 . S
C1099 C1101 1.415 . S
C1100 C1099 1.355 . S
C1100 C1102 1.419 . S
C1101 C1096 1.425 . S
C1101 C1098 1.409 . S
C1101 C1099 1.415 . S
C1102 H1092 0.930 . S
C1102 C1100 1.419 . S
C1102 C1103 1.362 . S
C1103 H1093 0.930 . S
C1103 C1096 1.409 . S
C1103 C1102 1.362 . S
H1104 C1110 0.930 . S
H1105 C1113 0.930 . S
H1106 C1114 0.930 . S
H1107 C1115 0.930 . S
H1108 C1118 0.930 . S
H1109 C1119 0.930 . S
C1110 H1104 0.930 . S
C1110 C1111 1.355 . S
C1110 C1112 1.415 . S
C1111 C1110 1.355 . S
C1111 C1113 1.419 . S
C1112 C1110 1.415 . S
C1112 C1117 1.425 . S
C1112 C1119 1.409 . S
C1113 H1105 0.930 . S
C1113 C1111 1.419 . S
C1113 C1114 1.362 . S
C1114 H1106 0.930 . S
C1114 C1113 1.362 . S
C1114 C1117 1.409 . S
C1115 H1107 0.930 . S
C1115 C1116 1.355 . S
C1115 C1117 1.415 . S
C1116 C1115 1.355 . S
C1116 C1118 1.419 . S
C1117 C1112 1.425 . S
C1117 C1114 1.409 . S
C1117 C1115 1.415 . S
C1118 H1108 0.930 . S
C1118 C1116 1.419 . S
C1118 C1119 1.362 . S
C1119 H1109 0.930 . S
C1119 C1112 1.409 . S
C1119 C1118 1.362 . S
H1120 C1126 0.930 . S
H1121 C1129 0.930 . S
H1122 C1130 0.930 . S
H1123 C1131 0.930 . S
H1124 C1134 0.930 . S
H1125 C1135 0.930 . S
C1126 H1120 0.930 . S
C1126 C1127 1.355 . S
C1126 C1128 1.415 . S
C1127 C1126 1.355 . S
C1127 C1129 1.419 . S
C1128 C1126 1.415 . S
C1128 C1133 1.425 . S
C1128 C1135 1.409 . S
C1129 H1121 0.930 . S
C1129 C1127 1.419 . S
C1129 C1130 1.362 . S
C1130 H1122 0.930 . S
C1130 C1129 1.362 . S
C1130 C1133 1.409 . S
C1131 H1123 0.930 . S
C1131 C1132 1.355 . S
C1131 C1133 1.415 . S
C1132 C1131 1.355 . S
C1132 C1134 1.419 . S
C1133 C1128 1.425 . S
C1133 C1130 1.409 . S
C1133 C1131 1.415 . S
C1134 H1124 0.930 . S
C1134 C1132 1.419 . S
C1134 C1135 1.362 . S
C1135 H1125 0.930 . S
C1135 C1128 1.409 . S
C1135 C1134 1.362 . S
H1136 C1142 0.930 . S
H1137 C1145 0.930 . S
H1138 C1146 0.930 . S
H1139 C1147 0.930 . S
H1140 C1150 0.930 . S
H1141 C1151 0.930 . S
C1142 H1136 0.930 . S
C1142 C1143 1.355 . S
C1142 C1144 1.415 . S
C1143 C1142 1.355 . S
C1143 C1145 1.419 . S
C1144 C1142 1.415 . S
C1144 C1149 1.425 . S
C1144 C1151 1.409 . S
C1145 H1137 0.930 . S
C1145 C1143 1.419 . S
C1145 C1146 1.362 . S
C1146 H1138 0.930 . S
C1146 C1145 1.362 . S
C1146 C1149 1.409 . S
C1147 H1139 0.930 . S
C1147 C1148 1.355 . S
C1147 C1149 1.415 . S
C1148 C1147 1.355 . S
C1148 C1150 1.419 . S
C1149 C1144 1.425 . S
C1149 C1146 1.409 . S
C1149 C1147 1.415 . S
C1150 H1140 0.930 . S
C1150 C1148 1.419 . S
C1150 C1151 1.362 . S
C1151 H1141 0.930 . S
C1151 C1144 1.409 . S
C1151 C1150 1.362 . S
H1152 C1158 0.930 . S
H1153 C1161 0.930 . S
H1154 C1162 0.930 . S
H1155 C1163 0.930 . S
H1156 C1166 0.930 . S
H1157 C1167 0.930 . S
C1158 H1152 0.930 . S
C1158 C1159 1.355 . S
C1158 C1160 1.415 . S
C1159 C1158 1.355 . S
C1159 C1161 1.419 . S
C1160 C1158 1.415 . S
C1160 C1165 1.425 . S
C1160 C1167 1.409 . S
C1161 H1153 0.930 . S
C1161 C1159 1.419 . S
C1161 C1162 1.362 . S
C1162 H1154 0.930 . S
C1162 C1161 1.362 . S
C1162 C1165 1.409 . S
C1163 H1155 0.930 . S
C1163 C1164 1.355 . S
C1163 C1165 1.415 . S
C1164 C1163 1.355 . S
C1164 C1166 1.419 . S
C1165 C1160 1.425 . S
C1165 C1162 1.409 . S
C1165 C1163 1.415 . S
C1166 H1156 0.930 . S
C1166 C1164 1.419 . S
C1166 C1167 1.362 . S
C1167 H1157 0.930 . S
C1167 C1160 1.409 . S
C1167 C1166 1.362 . S
H1168 C1174 0.930 . S
H1169 C1177 0.930 . S
H1170 C1178 0.930 . S
H1171 C1179 0.930 . S
H1172 C1182 0.930 . S
H1173 C1183 0.930 . S
C1174 H1168 0.930 . S
C1174 C1175 1.355 . S
C1174 C1176 1.415 . S
C1175 C1174 1.355 . S
C1175 C1177 1.419 . S
C1176 C1174 1.415 . S
C1176 C1181 1.425 . S
C1176 C1183 1.409 . S
C1177 H1169 0.930 . S
C1177 C1175 1.419 . S
C1177 C1178 1.362 . S
C1178 H1170 0.930 . S
C1178 C1177 1.362 . S
C1178 C1181 1.409 . S
C1179 H1171 0.930 . S
C1179 C1180 1.355 . S
C1179 C1181 1.415 . S
C1180 C1179 1.355 . S
C1180 C1182 1.419 . S
C1181 C1176 1.425 . S
C1181 C1178 1.409 . S
C1181 C1179 1.415 . S
C1182 H1172 0.930 . S
C1182 C1180 1.419 . S
C1182 C1183 1.362 . S
C1183 H1173 0.930 . S
C1183 C1176 1.409 . S
C1183 C1182 1.362 . S
H1184 C1190 0.930 . S
H1185 C1193 0.930 . S
H1186 C1194 0.930 . S
H1187 C1195 0.930 . S
H1188 C1198 0.930 . S
H1189 C1199 0.930 . S
C1190 H1184 0.930 . S
C1190 C1191 1.355 . S
C1190 C1192 1.415 . S
C1191 C1190 1.355 . S
C1191 C1193 1.419 . S
C1192 C1190 1.415 . S
C1192 C1197 1.425 . S
C1192 C1199 1.409 . S
C1193 H1185 0.930 . S
C1193 C1191 1.419 . S
C1193 C1194 1.362 . S
C1194 H1186 0.930 . S
C1194 C1193 1.362 . S
C1194 C1197 1.409 . S
C1195 H1187 0.930 . S
C1195 C1196 1.355 . S
C1195 C1197 1.415 . S
C1196 C1195 1.355 . S
C1196 C1198 1.419 . S
C1197 C1192 1.425 . S
C1197 C1194 1.409 . S
C1197 C1195 1.415 . S
C1198 H1188 0.930 . S
C1198 C1196 1.419 . S
C1198 C1199 1.362 . S
C1199 H1189 0.930 . S
C1199 C1192 1.409 . S
C1199 C1198 1.362 . S
H1200 C1206 0.930 . S
H1201 C1209 0.930 . S
H1202 C1210 0.930 . S
H1203 C1211 0.930 . S
H1204 C1214 0.930 . S
H1205 C1215 0.930 . S
C1206 H1200 0.930 . S
C1206 C1207 1.355 . S
C1206 C1208 1.415 . S
C1207 C1206 1.355 . S
C1207 C1209 1.419 . S
C1208 C1206 1.415 . S
C1208 C1213 1.425 . S
C1208 C1215 1.409 . S
C1209 H1201 0.930 . S
C1209 C1207 1.419 . S
C1209 C1210 1.362 . S
C1210 H1202 0.930 . S
C1210 C1209 1.362 . S
C1210 C1213 1.409 . S
C1211 H1203 0.930 . S
C1211 C1212 1.355 . S
C1211 C1213 1.415 . S
C1212 C1211 1.355 . S
C1212 C1214 1.419 . S
C1213 C1208 1.425 . S
C1213 C1210 1.409 . S
C1213 C1211 1.415 . S
C1214 H1204 0.930 . S
C1214 C1212 1.419 . S
C1214 C1215 1.362 . S
C1215 H1205 0.930 . S
C1215 C1208 1.409 . S
C1215 C1214 1.362 . S
H1216 C1222 0.930 . S
H1217 C1225 0.930 . S
H1218 C1226 0.930 . S
H1219 C1227 0.930 . S
H1220 C1230 0.930 . S
H1221 C1231 0.930 . S
C1222 H1216 0.930 . S
C1222 C1223 1.355 . S
C1222 C1224 1.415 . S
C1223 C1222 1.355 . S
C1223 C1225 1.419 . S
C1224 C1222 1.415 . S
C1224 C1229 1.425 . S
C1224 C1231 1.409 . S
C1225 H1217 0.930 . S
C1225 C1223 1.419 . S
C1225 C1226 1.362 . S
C1226 H1218 0.930 . S
C1226 C1225 1.362 . S
C1226 C1229 1.409 . S
C1227 H1219 0.930 . S
C1227 C1228 1.355 . S
C1227 C1229 1.415 . S
C1228 C1227 1.355 . S
C1228 C1230 1.419 . S
C1229 C1224 1.425 . S
C1229 C1226 1.409 . S
C1229 C1227 1.415 . S
C1230 H1220 0.930 . S
C1230 C1228 1.419 . S
C1230 C1231 1.362 . S
C1231 H1221 0.930 . S
C1231 C1224 1.409 . S
C1231 C1230 1.362 . S
H1232 C1238 0.930 . S
H1233 C1241 0.930 . S
H1234 C1242 0.930 . S
H1235 C1243 0.930 . S
H1236 C1246 0.930 . S
H1237 C1247 0.930 . S
C1238 H1232 0.930 . S
C1238 C1239 1.355 . S
C1238 C1240 1.415 . S
C1239 C1238 1.355 . S
C1239 C1241 1.419 . S
C1240 C1238 1.415 . S
C1240 C1245 1.425 . S
C1240 C1247 1.409 . S
C1241 H1233 0.930 . S
C1241 C1239 1.419 . S
C1241 C1242 1.362 . S
C1242 H1234 0.930 . S
C1242 C1241 1.362 . S
C1242 C1245 1.409 . S
C1243 H1235 0.930 . S
C1243 C1244 1.355 . S
C1243 C1245 1.415 . S
C1244 C1243 1.355 . S
C1244 C1246 1.419 . S
C1245 C1240 1.425 . S
C1245 C1242 1.409 . S
C1245 C1243 1.415 . S
C1246 H1236 0.930 . S
C1246 C1244 1.419 . S
C1246 C1247 1.362 . S
C1247 H1237 0.930 . S
C1247 C1240 1.409 . S
C1247 C1246 1.362 . S
H1248 C1254 0.930 . S
H1249 C1257 0.930 . S
H1250 C1258 0.930 . S
H1251 C1259 0.930 . S
H1252 C1262 0.930 . S
H1253 C1263 0.930 . S
C1254 H1248 0.930 . S
C1254 C1255 1.355 . S
C1254 C1256 1.415 . S
C1255 C1254 1.355 . S
C1255 C1257 1.419 . S
C1256 C1254 1.415 . S
C1256 C1261 1.425 . S
C1256 C1263 1.409 . S
C1257 H1249 0.930 . S
C1257 C1255 1.419 . S
C1257 C1258 1.362 . S
C1258 H1250 0.930 . S
C1258 C1257 1.362 . S
C1258 C1261 1.409 . S
C1259 H1251 0.930 . S
C1259 C1260 1.355 . S
C1259 C1261 1.415 . S
C1260 C1259 1.355 . S
C1260 C1262 1.419 . S
C1261 C1256 1.425 . S
C1261 C1258 1.409 . S
C1261 C1259 1.415 . S
C1262 H1252 0.930 . S
C1262 C1260 1.419 . S
C1262 C1263 1.362 . S
C1263 H1253 0.930 . S
C1263 C1256 1.409 . S
C1263 C1262 1.362 . S
H1264 C1270 0.930 . S
H1265 C1273 0.930 . S
H1266 C1274 0.930 . S
H1267 C1275 0.930 . S
H1268 C1278 0.930 . S
H1269 C1279 0.930 . S
C1270 H1264 0.930 . S
C1270 C1271 1.355 . S
C1270 C1272 1.415 . S
C1271 C1270 1.355 . S
C1271 C1273 1.419 . S
C1272 C1270 1.415 . S
C1272 C1277 1.425 . S
C1272 C1279 1.409 . S
C1273 H1265 0.930 . S
C1273 C1271 1.419 . S
C1273 C1274 1.362 . S
C1274 H1266 0.930 . S
C1274 C1273 1.362 . S
C1274 C1277 1.409 . S
C1275 H1267 0.930 . S
C1275 C1276 1.355 . S
C1275 C1277 1.415 . S
C1276 C1275 1.355 . S
C1276 C1278 1.419 . S
C1277 C1272 1.425 . S
C1277 C1274 1.409 . S
C1277 C1275 1.415 . S
C1278 H1268 0.930 . S
C1278 C1276 1.419 . S
C1278 C1279 1.362 . S
C1279 H1269 0.930 . S
C1279 C1272 1.409 . S
C1279 C1278 1.362 . S
H1280 C1286 0.930 . S
H1281 C1289 0.930 . S
H1282 C1290 0.930 . S
H1283 C1291 0.930 . S
H1284 C1294 0.930 . S
H1285 C1295 0.930 . S
C1286 H1280 0.930 . S
C1286 C1287 1.355 . S
C1286 C1288 1.415 . S
C1287 C1286 1.355 . S
C1287 C1289 1.419 . S
C1288 C1286 1.415 . S
C1288 C1293 1.425 . S
C1288 C1295 1.409 . S
C1289 H1281 0.930 . S
C1289 C1287 1.419 . S
C1289 C1290 1.362 . S
C1290 H1282 0.930 . S
C1290 C1289 1.362 . S
C1290 C1293 1.409 . S
C1291 H1283 0.930 . S
C1291 C1292 1.355 . S
C1291 C1293 1.415 . S
C1292 C1291 1.355 . S
C1292 C1294 1.419 . S
C1293 C1288 1.425 . S
C1293 C1290 1.409 . S
C1293 C1291 1.415 . S
C1294 H1284 0.930 . S
C1294 C1292 1.419 . S
C1294 C1295 1.362 . S
C1295 H1285 0.930 . S
C1295 C1288 1.409 . S
C1295 C1294 1.362 . S
H1296 C1302 0.930 . S
H1297 C1305 0.930 . S
H1298 C1306 0.930 . S
H1299 C1307 0.930 . S
H1300 C1310 0.930 . S
H1301 C1311 0.930 . S
C1302 H1296 0.930 . S
C1302 C1303 1.355 . S
C1302 C1304 1.415 . S
C1303 C1302 1.355 . S
C1303 C1305 1.419 . S
C1304 C1302 1.415 . S
C1304 C1309 1.425 . S
C1304 C1311 1.409 . S
C1305 H1297 0.930 . S
C1305 C1303 1.419 . S
C1305 C1306 1.362 . S
C1306 H1298 0.930 . S
C1306 C1305 1.362 . S
C1306 C1309 1.409 . S
C1307 H1299 0.930 . S
C1307 C1308 1.355 . S
C1307 C1309 1.415 . S
C1308 C1307 1.355 . S
C1308 C1310 1.419 . S
C1309 C1304 1.425 . S
C1309 C1306 1.409 . S
C1309 C1307 1.415 . S
C1310 H1300 0.930 . S
C1310 C1308 1.419 . S
C1310 C1311 1.362 . S
C1311 H1301 0.930 . S
C1311 C1304 1.409 . S
C1311 C1310 1.362 . S
H1312 C1318 0.930 . S
H1313 C1321 0.930 . S
H1314 C1322 0.930 . S
H1315 C1323 0.930 . S
H1316 C1326 0.930 . S
H1317 C1327 0.930 . S
C1318 H1312 0.930 . S
C1318 C1319 1.355 . S
C1318 C1320 1.415 . S
C1319 C1318 1.355 . S
C1319 C1321 1.419 . S
C1320 C1318 1.415 . S
C1320 C1325 1.425 . S
C1320 C1327 1.409 . S
C1321 H1313 0.930 . S
C1321 C1319 1.419 . S
C1321 C1322 1.362 . S
C1322 H1314 0.930 . S
C1322 C1321 1.362 . S
C1322 C1325 1.409 . S
C1323 H1315 0.930 . S
C1323 C1324 1.355 . S
C1323 C1325 1.415 . S
C1324 C1323 1.355 . S
C1324 C1326 1.419 . S
C1325 C1320 1.425 . S
C1325 C1322 1.409 . S
C1325 C1323 1.415 . S
C1326 H1316 0.930 . S
C1326 C1324 1.419 . S
C1326 C1327 1.362 . S
C1327 H1317 0.930 . S
C1327 C1320 1.409 . S
C1327 C1326 1.362 . S
H1328 C1334 0.930 . S
H1329 C1337 0.930 . S
H1330 C1338 0.930 . S
H1331 C1339 0.930 . S
H1332 C1342 0.930 . S
H1333 C1343 0.930 . S
C1334 H1328 0.930 . S
C1334 C1335 1.355 . S
C1334 C1336 1.415 . S
C1335 C1334 1.355 . S
C1335 C1337 1.419 . S
C1336 C1334 1.415 . S
C1336 C1341 1.425 . S
C1336 C1343 1.409 . S
C1337 H1329 0.930 . S
C1337 C1335 1.419 . S
C1337 C1338 1.362 . S
C1338 H1330 0.930 . S
C1338 C1337 1.362 . S
C1338 C1341 1.409 . S
C1339 H1331 0.930 . S
C1339 C1340 1.355 . S
C1339 C1341 1.415 . S
C1340 C1339 1.355 . S
C1340 C1342 1.419 . S
C1341 C1336 1.425 . S
C1341 C1338 1.409 . S
C1341 C1339 1.415 . S
C1342 H1332 0.930 . S
C1342 C1340 1.419 . S
C1342 C1343 1.362 . S
C1343 H1333 0.930 . S
C1343 C1336 1.409 . S
C1343 C1342 1.362 . S
H1344 C1350 0.930 . S
H1345 C1353 0.930 . S
H1346 C1354 0.930 . S
H1347 C1355 0.930 . S
H1348 C1358 0.930 . S
H1349 C1359 0.930 . S
C1350 H1344 0.930 . S
C1350 C1351 1.355 . S
C1350 C1352 1.415 . S
C1351 C1350 1.355 . S
C1351 C1353 1.419 . S
C1352 C1350 1.415 . S
C1352 C1357 1.425 . S
C1352 C1359 1.409 . S
C1353 H1345 0.930 . S
C1353 C1351 1.419 . S
C1353 C1354 1.362 . S
C1354 H1346 0.930 . S
C1354 C1353 1.362 . S
C1354 C1357 1.409 . S
C1355 H1347 0.930 . S
C1355 C1356 1.355 . S
C1355 C1357 1.415 . S
C1356 C1355 1.355 . S
C1356 C1358 1.419 . S
C1357 C1352 1.425 . S
C1357 C1354 1.409 . S
C1357 C1355 1.415 . S
C1358 H1348 0.930 . S
C1358 C1356 1.419 . S
C1358 C1359 1.362 . S
C1359 H1349 0.930 . S
C1359 C1352 1.409 . S
C1359 C1358 1.362 . S
H1360 C1366 0.930 . S
H1361 C1369 0.930 . S
H1362 C1370 0.930 . S
H1363 C1371 0.930 . S
H1364 C1374 0.930 . S
H1365 C1375 0.930 . S
C1366 H1360 0.930 . S
C1366 C1367 1.355 . S
C1366 C1368 1.415 . S
C1367 C1366 1.355 . S
C1367 C1369 1.419 . S
C1368 C1366 1.415 . S
C1368 C1373 1.425 . S
C1368 C1375 1.409 . S
C1369 H1361 0.930 . S
C1369 C1367 1.419 . S
C1369 C1370 1.362 . S
C1370 H1362 0.930 . S
C1370 C1369 1.362 . S
C1370 C1373 1.409 . S
C1371 H1363 0.930 . S
C1371 C1372 1.355 . S
C1371 C1373 1.415 . S
C1372 C1371 1.355 . S
C1372 C1374 1.419 . S
C1373 C1368 1.425 . S
C1373 C1370 1.409 . S
C1373 C1371 1.415 . S
C1374 H1364 0.930 . S
C1374 C1372 1.419 . S
C1374 C1375 1.362 . S
C1375 H1365 0.930 . S
C1375 C1368 1.409 . S
C1375 C1374 1.362 . S
H1376 C1382 0.930 . S
H1377 C1385 0.930 . S
H1378 C1386 0.930 . S
H1379 C1387 0.930 . S
H1380 C1390 0.930 . S
H1381 C1391 0.930 . S
C1382 H1376 0.930 . S
C1382 C1383 1.355 . S
C1382 C1384 1.415 . S
C1383 C1382 1.355 . S
C1383 C1385 1.419 . S
C1384 C1382 1.415 . S
C1384 C1389 1.425 . S
C1384 C1391 1.409 . S
C1385 H1377 0.930 . S
C1385 C1383 1.419 . S
C1385 C1386 1.362 . S
C1386 H1378 0.930 . S
C1386 C1385 1.362 . S
C1386 C1389 1.409 . S
C1387 H1379 0.930 . S
C1387 C1388 1.355 . S
C1387 C1389 1.415 . S
C1388 C1387 1.355 . S
C1388 C1390 1.419 . S
C1389 C1384 1.425 . S
C1389 C1386 1.409 . S
C1389 C1387 1.415 . S
C1390 H1380 0.930 . S
C1390 C1388 1.419 . S
C1390 C1391 1.362 . S
C1391 H1381 0.930 . S
C1391 C1384 1.409 . S
C1391 C1390 1.362 . S
H1392 C1398 0.930 . S
H1393 C1401 0.930 . S
H1394 C1402 0.930 . S
H1395 C1403 0.930 . S
H1396 C1406 0.930 . S
H1397 C1407 0.930 . S
C1398 H1392 0.930 . S
C1398 C1399 1.355 . S
C1398 C1400 1.415 . S
C1399 C1398 1.355 . S
C1399 C1401 1.419 . S
C1400 C1398 1.415 . S
C1400 C1405 1.425 . S
C1400 C1407 1.409 . S
C1401 H1393 0.930 . S
C1401 C1399 1.419 . S
C1401 C1402 1.362 . S
C1402 H1394 0.930 . S
C1402 C1401 1.362 . S
C1402 C1405 1.409 . S
C1403 H1395 0.930 . S
C1403 C1404 1.355 . S
C1403 C1405 1.415 . S
C1404 C1403 1.355 . S
C1404 C1406 1.419 . S
C1405 C1400 1.425 . S
C1405 C1402 1.409 . S
C1405 C1403 1.415 . S
C1406 H1396 0.930 . S
C1406 C1404 1.419 . S
C1406 C1407 1.362 . S
C1407 H1397 0.930 . S
C1407 C1400 1.409 . S
C1407 C1406 1.362 . S
H1408 C1414 0.930 . S
H1409 C1417 0.930 . S
H1410 C1418 0.930 . S
H1411 C1419 0.930 . S
H1412 C1422 0.930 . S
H1413 C1423 0.930 . S
C1414 H1408 0.930 . S
C1414 C1415 1.355 . S
C1414 C1416 1.415 . S
C1415 C1414 1.355 . S
C1415 C1417 1.419 . S
C1416 C1414 1.415 . S
C1416 C1421 1.425 . S
C1416 C1423 1.409 . S
C1417 H1409 0.930 . S
C1417 C1415 1.419 . S
C1417 C1418 1.362 . S
C1418 H1410 0.930 . S
C1418 C1417 1.362 . S
C1418 C1421 1.409 . S
C1419 H1411 0.930 . S
C1419 C1420 1.355 . S
C1419 C1421 1.415 . S
C1420 C1419 1.355 . S
C1420 C1422 1.419 . S
C1421 C1416 1.425 . S
C1421 C1418 1.409 . S
C1421 C1419 1.415 . S
C1422 H1412 0.930 . S
C1422 C1420 1.419 . S
C1422 C1423 1.362 . S
C1423 H1413 0.930 . S
C1423 C1416 1.409 . S
C1423 C1422 1.362 . S
H1424 C1430 0.930 . S
H1425 C1433 0.930 . S
H1426 C1434 0.930 . S
H1427 C1435 0.930 . S
H1428 C1438 0.930 . S
H1429 C1439 0.930 . S
C1430 H1424 0.930 . S
C1430 C1431 1.355 . S
C1430 C1432 1.415 . S
C1431 C1430 1.355 . S
C1431 C1433 1.419 . S
C1432 C1430 1.415 . S
C1432 C1437 1.425 . S
C1432 C1439 1.409 . S
C1433 H1425 0.930 . S
C1433 C1431 1.419 . S
C1433 C1434 1.362 . S
C1434 H1426 0.930 . S
C1434 C1433 1.362 . S
C1434 C1437 1.409 . S
C1435 H1427 0.930 . S
C1435 C1436 1.355 . S
C1435 C1437 1.415 . S
C1436 C1435 1.355 . S
C1436 C1438 1.419 . S
C1437 C1432 1.425 . S
C1437 C1434 1.409 . S
C1437 C1435 1.415 . S
C1438 H1428 0.930 . S
C1438 C1436 1.419 . S
C1438 C1439 1.362 . S
C1439 H1429 0.930 . S
C1439 C1432 1.409 . S
C1439 C1438 1.362 . S
H1440 C1446 0.930 . S
H1441 C1449 0.930 . S
H1442 C1450 0.930 . S
H1443 C1451 0.930 . S
H1444 C1454 0.930 . S
H1445 C1455 0.930 . S
C1446 H1440 0.930 . S
C1446 C1447 1.355 . S
C1446 C1448 1.415 . S
C1447 C1446 1.355 . S
C1447 C1449 1.419 . S
C1448 C1446 1.415 . S
C1448 C1453 1.425 . S
C1448 C1455 1.409 . S
C1449 H1441 0.930 . S
C1449 C1447 1.419 . S
C1449 C1450 1.362 . S
C1450 H1442 0.930 . S
C1450 C1449 1.362 . S
C1450 C1453 1.409 . S
C1451 H1443 0.930 . S
C1451 C1452 1.355 . S
C1451 C1453 1.415 . S
C1452 C1451 1.355 . S
C1452 C1454 1.419 . S
C1453 C1448 1.425 . S
C1453 C1450 1.409 . S
C1453 C1451 1.415 . S
C1454 H1444 0.930 . S
C1454 C1452 1.419 . S
C1454 C1455 1.362 . S
C1455 H1445 0.930 . S
C1455 C1448 1.409 . S
C1455 C1454 1.362 . S
H1456 C1462 0.930 . S
H1457 C1465 0.930 . S
H1458 C1466 0.930 . S
H1459 C1467 0.930 . S
H1460 C1470 0.930 . S
H1461 C1471 0.930 . S
C1462 H1456 0.930 . S
C1462 C1463 1.355 . S
C1462 C1464 1.415 . S
C1463 C1462 1.355 . S
C1463 C1465 1.419 . S
C1464 C1462 1.415 . S
C1464 C1469 1.425 . S
C1464 C1471 1.409 . S
C1465 H1457 0.930 . S
C1465 C1463 1.419 . S
C1465 C1466 1.362 . S
C1466 H1458 0.930 . S
C1466 C1465 1.362 . S
C1466 C1469 1.409 . S
C1467 H1459 0.930 . S
C1467 C1468 1.355 . S
C1467 C1469 1.415 . S
C1468 C1467 1.355 . S
C1468 C1470 1.419 . S
C1469 C1464 1.425 . S
C1469 C1466 1.409 . S
C1469 C1467 1.415 . S
C1470 H1460 0.930 . S
C1470 C1468 1.419 . S
C1470 C1471 1.362 . S
C1471 H1461 0.930 . S
C1471 C1464 1.409 . S
C1471 C1470 1.362 . S
H1472 C1478 0.930 . S
H1473 C1481 0.930 . S
H1474 C1482 0.930 . S
H1475 C1483 0.930 . S
H1476 C1486 0.930 . S
H1477 C1487 0.930 . S
C1478 H1472 0.930 . S
C1478 C1479 1.355 . S
C1478 C1480 1.415 . S
C1479 C1478 1.355 . S
C1479 C1481 1.419 . S
C1480 C1478 1.415 . S
C1480 C1485 1.425 1_565 S
C1480 C1487 1.409 1_565 S
C1481 H1473 0.930 . S
C1481 C1479 1.419 . S
C1481 C1482 1.362 . S
C1482 H1474 0.930 . S
C1482 C1481 1.362 . S
C1482 C1485 1.409 1_565 S
C1483 H1475 0.930 . S
C1483 C1484 1.355 . S
C1483 C1485 1.415 . S
C1484 C1483 1.355 . S
C1484 C1486 1.419 . S
C1485 C1480 1.425 1_545 S
C1485 C1482 1.409 1_545 S
C1485 C1483 1.415 . S
C1486 H1476 0.930 . S
C1486 C1484 1.419 . S
C1486 C1487 1.362 . S
C1487 H1477 0.930 . S
C1487 C1480 1.409 1_545 S
C1487 C1486 1.362 . S
H1488 C1494 0.930 . S
H1489 C1497 0.930 . S
H1490 C1498 0.930 . S
H1491 C1499 0.930 . S
H1492 C1502 0.930 . S
H1493 C1503 0.930 . S
C1494 H1488 0.930 . S
C1494 C1495 1.355 . S
C1494 C1496 1.415 . S
C1495 C1494 1.355 . S
C1495 C1497 1.419 . S
C1496 C1494 1.415 . S
C1496 C1501 1.425 1_655 S
C1496 C1503 1.409 1_655 S
C1497 H1489 0.930 . S
C1497 C1495 1.419 . S
C1497 C1498 1.362 . S
C1498 H1490 0.930 . S
C1498 C1497 1.362 . S
C1498 C1501 1.409 1_655 S
C1499 H1491 0.930 . S
C1499 C1500 1.355 . S
C1499 C1501 1.415 . S
C1500 C1499 1.355 . S
C1500 C1502 1.419 . S
C1501 C1496 1.425 1_455 S
C1501 C1498 1.409 1_455 S
C1501 C1499 1.415 . S
C1502 H1492 0.930 . S
C1502 C1500 1.419 . S
C1502 C1503 1.362 . S
C1503 H1493 0.930 . S
C1503 C1496 1.409 1_455 S
C1503 C1502 1.362 . S
H1504 C1510 0.930 . S
H1505 C1513 0.930 . S
H1506 C1514 0.930 . S
H1507 C1515 0.930 . S
H1508 C1518 0.930 . S
H1509 C1519 0.930 . S
C1510 H1504 0.930 . S
C1510 C1511 1.355 . S
C1510 C1512 1.415 . S
C1511 C1510 1.355 . S
C1511 C1513 1.419 . S
C1512 C1510 1.415 . S
C1512 C1517 1.425 1_545 S
C1512 C1519 1.409 1_545 S
C1513 H1505 0.930 . S
C1513 C1511 1.419 . S
C1513 C1514 1.362 . S
C1514 H1506 0.930 . S
C1514 C1513 1.362 . S
C1514 C1517 1.409 1_545 S
C1515 H1507 0.930 . S
C1515 C1516 1.355 . S
C1515 C1517 1.415 . S
C1516 C1515 1.355 . S
C1516 C1518 1.419 . S
C1517 C1512 1.425 1_565 S
C1517 C1514 1.409 1_565 S
C1517 C1515 1.415 . S
C1518 H1508 0.930 . S
C1518 C1516 1.419 . S
C1518 C1519 1.362 . S
C1519 H1509 0.930 . S
C1519 C1512 1.409 1_565 S
C1519 C1518 1.362 . S
H1520 C1526 0.930 . S
H1521 C1529 0.930 . S
H1522 C1530 0.930 . S
H1523 C1531 0.930 . S
H1524 C1534 0.930 . S
H1525 C1535 0.930 . S
C1526 H1520 0.930 . S
C1526 C1527 1.355 . S
C1526 C1528 1.415 . S
C1527 C1526 1.355 . S
C1527 C1529 1.419 . S
C1528 C1526 1.415 . S
C1528 C1533 1.425 1_655 S
C1528 C1535 1.409 1_655 S
C1529 H1521 0.930 . S
C1529 C1527 1.419 . S
C1529 C1530 1.362 . S
C1530 H1522 0.930 . S
C1530 C1529 1.362 . S
C1530 C1533 1.409 1_655 S
C1531 H1523 0.930 . S
C1531 C1532 1.355 . S
C1531 C1533 1.415 . S
C1532 C1531 1.355 . S
C1532 C1534 1.419 . S
C1533 C1528 1.425 1_455 S
C1533 C1530 1.409 1_455 S
C1533 C1531 1.415 . S
C1534 H1524 0.930 . S
C1534 C1532 1.419 . S
C1534 C1535 1.362 . S
C1535 H1525 0.930 . S
C1535 C1528 1.409 1_455 S
C1535 C1534 1.362 . S
H1536 C1542 0.930 . S
H1537 C1545 0.930 . S
H1538 C1546 0.930 . S
H1539 C1547 0.930 . S
H1540 C1550 0.930 . S
H1541 C1551 0.930 . S
C1542 H1536 0.930 . S
C1542 C1543 1.355 . S
C1542 C1544 1.415 . S
C1543 C1542 1.355 . S
C1543 C1545 1.419 . S
C1544 C1542 1.415 . S
C1544 C1549 1.425 1_545 S
C1544 C1551 1.409 1_545 S
C1545 H1537 0.930 . S
C1545 C1543 1.419 . S
C1545 C1546 1.362 . S
C1546 H1538 0.930 . S
C1546 C1545 1.362 . S
C1546 C1549 1.409 1_545 S
C1547 H1539 0.930 . S
C1547 C1548 1.355 . S
C1547 C1549 1.415 . S
C1548 C1547 1.355 . S
C1548 C1550 1.419 . S
C1549 C1544 1.425 1_565 S
C1549 C1546 1.409 1_565 S
C1549 C1547 1.415 . S
C1550 H1540 0.930 . S
C1550 C1548 1.419 . S
C1550 C1551 1.362 . S
C1551 H1541 0.930 . S
C1551 C1544 1.409 1_565 S
C1551 C1550 1.362 . S
H1552 C1558 0.930 . S
H1553 C1561 0.930 . S
H1554 C1562 0.930 . S
H1555 C1563 0.930 . S
H1556 C1566 0.930 . S
H1557 C1567 0.930 . S
C1558 H1552 0.930 . S
C1558 C1559 1.355 . S
C1558 C1560 1.415 . S
C1559 C1558 1.355 . S
C1559 C1561 1.419 . S
C1560 C1558 1.415 . S
C1560 C1565 1.425 1_655 S
C1560 C1567 1.409 1_655 S
C1561 H1553 0.930 . S
C1561 C1559 1.419 . S
C1561 C1562 1.362 . S
C1562 H1554 0.930 . S
C1562 C1561 1.362 . S
C1562 C1565 1.409 1_655 S
C1563 H1555 0.930 . S
C1563 C1564 1.355 . S
C1563 C1565 1.415 . S
C1564 C1563 1.355 . S
C1564 C1566 1.419 . S
C1565 C1560 1.425 1_455 S
C1565 C1562 1.409 1_455 S
C1565 C1563 1.415 . S
C1566 H1556 0.930 . S
C1566 C1564 1.419 . S
C1566 C1567 1.362 . S
C1567 H1557 0.930 . S
C1567 C1560 1.409 1_455 S
C1567 C1566 1.362 . S
H1568 C1574 0.930 . S
H1569 C1577 0.930 . S
H1570 C1578 0.930 . S
H1571 C1579 0.930 . S
H1572 C1582 0.930 . S
H1573 C1583 0.930 . S
C1574 H1568 0.930 . S
C1574 C1575 1.355 . S
C1574 C1576 1.415 . S
C1575 C1574 1.355 . S
C1575 C1577 1.419 . S
C1576 C1574 1.415 . S
C1576 C1581 1.425 1_545 S
C1576 C1583 1.409 1_545 S
C1577 H1569 0.930 . S
C1577 C1575 1.419 . S
C1577 C1578 1.362 . S
C1578 H1570 0.930 . S
C1578 C1577 1.362 . S
C1578 C1581 1.409 1_545 S
C1579 H1571 0.930 . S
C1579 C1580 1.355 . S
C1579 C1581 1.415 . S
C1580 C1579 1.355 . S
C1580 C1582 1.419 . S
C1581 C1576 1.425 1_565 S
C1581 C1578 1.409 1_565 S
C1581 C1579 1.415 . S
C1582 H1572 0.930 . S
C1582 C1580 1.419 . S
C1582 C1583 1.362 . S
C1583 H1573 0.930 . S
C1583 C1576 1.409 1_565 S
C1583 C1582 1.362 . S
H1584 C1590 0.930 . S
H1585 C1593 0.930 . S
H1586 C1594 0.930 . S
H1587 C1595 0.930 . S
H1588 C1598 0.930 . S
H1589 C1599 0.930 . S
C1590 H1584 0.930 . S
C1590 C1591 1.355 . S
C1590 C1592 1.415 . S
C1591 C1590 1.355 . S
C1591 C1593 1.419 . S
C1592 C1590 1.415 . S
C1592 C1597 1.425 1_655 S
C1592 C1599 1.409 1_655 S
C1593 H1585 0.930 . S
C1593 C1591 1.419 . S
C1593 C1594 1.362 . S
C1594 H1586 0.930 . S
C1594 C1593 1.362 . S
C1594 C1597 1.409 1_655 S
C1595 H1587 0.930 . S
C1595 C1596 1.355 . S
C1595 C1597 1.415 . S
C1596 C1595 1.355 . S
C1596 C1598 1.419 . S
C1597 C1592 1.425 1_455 S
C1597 C1594 1.409 1_455 S
C1597 C1595 1.415 . S
C1598 H1588 0.930 . S
C1598 C1596 1.419 . S
C1598 C1599 1.362 . S
C1599 H1589 0.930 . S
C1599 C1592 1.409 1_455 S
C1599 C1598 1.362 . S
H1600 C1606 0.930 . S
H1601 C1609 0.930 . S
H1602 C1610 0.930 . S
H1603 C1611 0.930 . S
H1604 C1614 0.930 . S
H1605 C1615 0.930 . S
C1606 H1600 0.930 . S
C1606 C1607 1.355 . S
C1606 C1608 1.415 . S
C1607 C1606 1.355 . S
C1607 C1609 1.419 . S
C1608 C1606 1.415 . S
C1608 C1613 1.425 1_554 S
C1608 C1615 1.409 1_554 S
C1609 H1601 0.930 . S
C1609 C1607 1.419 . S
C1609 C1610 1.362 . S
C1610 H1602 0.930 . S
C1610 C1609 1.362 . S
C1610 C1613 1.409 1_554 S
C1611 H1603 0.930 . S
C1611 C1612 1.355 . S
C1611 C1613 1.415 . S
C1612 C1611 1.355 . S
C1612 C1614 1.419 . S
C1613 C1608 1.425 1_556 S
C1613 C1610 1.409 1_556 S
C1613 C1611 1.415 . S
C1614 H1604 0.930 . S
C1614 C1612 1.419 . S
C1614 C1615 1.362 . S
C1615 H1605 0.930 . S
C1615 C1608 1.409 1_556 S
C1615 C1614 1.362 . S
H1616 C1622 0.930 . S
H1617 C1625 0.930 . S
H1618 C1626 0.930 . S
H1619 C1627 0.930 . S
H1620 C1630 0.930 . S
H1621 C1631 0.930 . S
C1622 H1616 0.930 . S
C1622 C1623 1.355 . S
C1622 C1624 1.415 . S
C1623 C1622 1.355 . S
C1623 C1625 1.419 . S
C1624 C1622 1.415 . S
C1624 C1629 1.425 1_556 S
C1624 C1631 1.409 1_556 S
C1625 H1617 0.930 . S
C1625 C1623 1.419 . S
C1625 C1626 1.362 . S
C1626 H1618 0.930 . S
C1626 C1625 1.362 . S
C1626 C1629 1.409 1_556 S
C1627 H1619 0.930 . S
C1627 C1628 1.355 . S
C1627 C1629 1.415 . S
C1628 C1627 1.355 . S
C1628 C1630 1.419 . S
C1629 C1624 1.425 1_554 S
C1629 C1626 1.409 1_554 S
C1629 C1627 1.415 . S
C1630 H1620 0.930 . S
C1630 C1628 1.419 . S
C1630 C1631 1.362 . S
C1631 H1621 0.930 . S
C1631 C1624 1.409 1_554 S
C1631 C1630 1.362 . S
H1632 C1638 0.930 . S
H1633 C1641 0.930 . S
H1634 C1642 0.930 . S
H1635 C1643 0.930 . S
H1636 C1646 0.930 . S
H1637 C1647 0.930 . S
C1638 H1632 0.930 . S
C1638 C1639 1.355 . S
C1638 C1640 1.415 . S
C1639 C1638 1.355 . S
C1639 C1641 1.419 . S
C1640 C1638 1.415 . S
C1640 C1645 1.425 1_556 S
C1640 C1647 1.409 1_556 S
C1641 H1633 0.930 . S
C1641 C1639 1.419 . S
C1641 C1642 1.362 . S
C1642 H1634 0.930 . S
C1642 C1641 1.362 . S
C1642 C1645 1.409 1_556 S
C1643 H1635 0.930 . S
C1643 C1644 1.355 . S
C1643 C1645 1.415 . S
C1644 C1643 1.355 . S
C1644 C1646 1.419 . S
C1645 C1640 1.425 1_554 S
C1645 C1642 1.409 1_554 S
C1645 C1643 1.415 . S
C1646 H1636 0.930 . S
C1646 C1644 1.419 . S
C1646 C1647 1.362 . S
C1647 H1637 0.930 . S
C1647 C1640 1.409 1_554 S
C1647 C1646 1.362 . S
H1648 C1654 0.930 . S
H1649 C1657 0.930 . S
H1650 C1658 0.930 . S
H1651 C1659 0.930 . S
H1652 C1662 0.930 . S
H1653 C1663 0.930 . S
C1654 H1648 0.930 . S
C1654 C1655 1.355 . S
C1654 C1656 1.415 . S
C1655 C1654 1.355 . S
C1655 C1657 1.419 . S
C1656 C1654 1.415 . S
C1656 C1661 1.425 1_554 S
C1656 C1663 1.409 1_554 S
C1657 H1649 0.930 . S
C1657 C1655 1.419 . S
C1657 C1658 1.362 . S
C1658 H1650 0.930 . S
C1658 C1657 1.362 . S
C1658 C1661 1.409 1_554 S
C1659 H1651 0.930 . S
C1659 C1660 1.355 . S
C1659 C1661 1.415 . S
C1660 C1659 1.355 . S
C1660 C1662 1.419 . S
C1661 C1656 1.425 1_556 S
C1661 C1658 1.409 1_556 S
C1661 C1659 1.415 . S
C1662 H1652 0.930 . S
C1662 C1660 1.419 . S
C1662 C1663 1.362 . S
C1663 H1653 0.930 . S
C1663 C1656 1.409 1_556 S
C1663 C1662 1.362 . S
H1664 C1670 0.930 . S
H1665 C1673 0.930 . S
H1666 C1674 0.930 . S
H1667 C1675 0.930 . S
H1668 C1678 0.930 . S
H1669 C1679 0.930 . S
C1670 H1664 0.930 . S
C1670 C1671 1.355 . S
C1670 C1672 1.415 . S
C1671 C1670 1.355 . S
C1671 C1673 1.419 . S
C1672 C1670 1.415 . S
C1672 C1677 1.425 1_556 S
C1672 C1679 1.409 1_556 S
C1673 H1665 0.930 . S
C1673 C1671 1.419 . S
C1673 C1674 1.362 . S
C1674 H1666 0.930 . S
C1674 C1673 1.362 . S
C1674 C1677 1.409 1_556 S
C1675 H1667 0.930 . S
C1675 C1676 1.355 . S
C1675 C1677 1.415 . S
C1676 C1675 1.355 . S
C1676 C1678 1.419 . S
C1677 C1672 1.425 1_554 S
C1677 C1674 1.409 1_554 S
C1677 C1675 1.415 . S
C1678 H1668 0.930 . S
C1678 C1676 1.419 . S
C1678 C1679 1.362 . S
C1679 H1669 0.930 . S
C1679 C1672 1.409 1_554 S
C1679 C1678 1.362 . S
H1680 C1686 0.930 . S
H1681 C1689 0.930 . S
H1682 C1690 0.930 . S
H1683 C1691 0.930 . S
H1684 C1694 0.930 . S
H1685 C1695 0.930 . S
C1686 H1680 0.930 . S
C1686 C1687 1.355 . S
C1686 C1688 1.415 . S
C1687 C1686 1.355 . S
C1687 C1689 1.419 . S
C1688 C1686 1.415 . S
C1688 C1693 1.425 1_554 S
C1688 C1695 1.409 1_554 S
C1689 H1681 0.930 . S
C1689 C1687 1.419 . S
C1689 C1690 1.362 . S
C1690 H1682 0.930 . S
C1690 C1689 1.362 . S
C1690 C1693 1.409 1_554 S
C1691 H1683 0.930 . S
C1691 C1692 1.355 . S
C1691 C1693 1.415 . S
C1692 C1691 1.355 . S
C1692 C1694 1.419 . S
C1693 C1688 1.425 1_556 S
C1693 C1690 1.409 1_556 S
C1693 C1691 1.415 . S
C1694 H1684 0.930 . S
C1694 C1692 1.419 . S
C1694 C1695 1.362 . S
C1695 H1685 0.930 . S
C1695 C1688 1.409 1_556 S
C1695 C1694 1.362 . S
H1696 C1702 0.930 . S
H1697 C1705 0.930 . S
H1698 C1706 0.930 . S
H1699 C1707 0.930 . S
H1700 C1710 0.930 . S
H1701 C1711 0.930 . S
C1702 H1696 0.930 . S
C1702 C1703 1.355 . S
C1702 C1704 1.415 . S
C1703 C1702 1.355 . S
C1703 C1705 1.419 . S
C1704 C1702 1.415 . S
C1704 C1709 1.425 1_554 S
C1704 C1711 1.409 1_554 S
C1705 H1697 0.930 . S
C1705 C1703 1.419 . S
C1705 C1706 1.362 . S
C1706 H1698 0.930 . S
C1706 C1705 1.362 . S
C1706 C1709 1.409 1_554 S
C1707 H1699 0.930 . S
C1707 C1708 1.355 . S
C1707 C1709 1.415 . S
C1708 C1707 1.355 . S
C1708 C1710 1.419 . S
C1709 C1704 1.425 1_556 S
C1709 C1706 1.409 1_556 S
C1709 C1707 1.415 . S
C1710 H1700 0.930 . S
C1710 C1708 1.419 . S
C1710 C1711 1.362 . S
C1711 H1701 0.930 . S
C1711 C1704 1.409 1_556 S
C1711 C1710 1.362 . S
H1712 C1718 0.930 . S
H1713 C1721 0.930 . S
H1714 C1722 0.930 . S
H1715 C1723 0.930 . S
H1716 C1726 0.930 . S
H1717 C1727 0.930 . S
C1718 H1712 0.930 . S
C1718 C1719 1.355 . S
C1718 C1720 1.415 . S
C1719 C1718 1.355 . S
C1719 C1721 1.419 . S
C1720 C1718 1.415 . S
C1720 C1725 1.425 1_556 S
C1720 C1727 1.409 1_556 S
C1721 H1713 0.930 . S
C1721 C1719 1.419 . S
C1721 C1722 1.362 . S
C1722 H1714 0.930 . S
C1722 C1721 1.362 . S
C1722 C1725 1.409 1_556 S
C1723 H1715 0.930 . S
C1723 C1724 1.355 . S
C1723 C1725 1.415 . S
C1724 C1723 1.355 . S
C1724 C1726 1.419 . S
C1725 C1720 1.425 1_554 S
C1725 C1722 1.409 1_554 S
C1725 C1723 1.415 . S
C1726 H1716 0.930 . S
C1726 C1724 1.419 . S
C1726 C1727 1.362 . S
C1727 H1717 0.930 . S
C1727 C1720 1.409 1_554 S
C1727 C1726 1.362 . S
H1728 C1734 0.930 . S
H1729 C1737 0.930 . S
H1730 C1738 0.930 . S
H1731 C1739 0.930 . S
H1732 C1742 0.930 . S
H1733 C1743 0.930 . S
C1734 H1728 0.930 . S
C1734 C1735 1.355 . S
C1734 C1736 1.415 . S
C1735 C1734 1.355 . S
C1735 C1737 1.419 . S
C1736 C1734 1.415 . S
C1736 C1741 1.425 1_455 S
C1736 C1743 1.409 1_455 S
C1737 H1729 0.930 . S
C1737 C1735 1.419 . S
C1737 C1738 1.362 . S
C1738 H1730 0.930 . S
C1738 C1737 1.362 . S
C1738 C1741 1.409 1_455 S
C1739 H1731 0.930 . S
C1739 C1740 1.355 . S
C1739 C1741 1.415 . S
C1740 C1739 1.355 . S
C1740 C1742 1.419 . S
C1741 C1736 1.425 1_655 S
C1741 C1738 1.409 1_655 S
C1741 C1739 1.415 . S
C1742 H1732 0.930 . S
C1742 C1740 1.419 . S
C1742 C1743 1.362 . S
C1743 H1733 0.930 . S
C1743 C1736 1.409 1_655 S
C1743 C1742 1.362 . S
H1744 C1750 0.930 . S
H1745 C1753 0.930 . S
H1746 C1754 0.930 . S
H1747 C1755 0.930 . S
H1748 C1758 0.930 . S
H1749 C1759 0.930 . S
C1750 H1744 0.930 . S
C1750 C1751 1.355 . S
C1750 C1752 1.415 . S
C1751 C1750 1.355 . S
C1751 C1753 1.419 . S
C1752 C1750 1.415 . S
C1752 C1757 1.425 1_455 S
C1752 C1759 1.409 1_455 S
C1753 H1745 0.930 . S
C1753 C1751 1.419 . S
C1753 C1754 1.362 . S
C1754 H1746 0.930 . S
C1754 C1753 1.362 . S
C1754 C1757 1.409 1_455 S
C1755 H1747 0.930 . S
C1755 C1756 1.355 . S
C1755 C1757 1.415 . S
C1756 C1755 1.355 . S
C1756 C1758 1.419 . S
C1757 C1752 1.425 1_655 S
C1757 C1754 1.409 1_655 S
C1757 C1755 1.415 . S
C1758 H1748 0.930 . S
C1758 C1756 1.419 . S
C1758 C1759 1.362 . S
C1759 H1749 0.930 . S
C1759 C1752 1.409 1_655 S
C1759 C1758 1.362 . S
H1760 C1766 0.930 . S
H1761 C1769 0.930 . S
H1762 C1770 0.930 . S
H1763 C1771 0.930 . S
H1764 C1774 0.930 . S
H1765 C1775 0.930 . S
C1766 H1760 0.930 . S
C1766 C1767 1.355 . S
C1766 C1768 1.415 . S
C1767 C1766 1.355 . S
C1767 C1769 1.419 . S
C1768 C1766 1.415 . S
C1768 C1773 1.425 1_565 S
C1768 C1775 1.409 1_565 S
C1769 H1761 0.930 . S
C1769 C1767 1.419 . S
C1769 C1770 1.362 . S
C1770 H1762 0.930 . S
C1770 C1769 1.362 . S
C1770 C1773 1.409 1_565 S
C1771 H1763 0.930 . S
C1771 C1772 1.355 . S
C1771 C1773 1.415 . S
C1772 C1771 1.355 . S
C1772 C1774 1.419 . S
C1773 C1768 1.425 1_545 S
C1773 C1770 1.409 1_545 S
C1773 C1771 1.415 . S
C1774 H1764 0.930 . S
C1774 C1772 1.419 . S
C1774 C1775 1.362 . S
C1775 H1765 0.930 . S
C1775 C1768 1.409 1_545 S
C1775 C1774 1.362 . S
H1776 C1782 0.930 . S
H1777 C1785 0.930 . S
H1778 C1786 0.930 . S
H1779 C1787 0.930 . S
H1780 C1790 0.930 . S
H1781 C1791 0.930 . S
C1782 H1776 0.930 . S
C1782 C1783 1.355 . S
C1782 C1784 1.415 . S
C1783 C1782 1.355 . S
C1783 C1785 1.419 . S
C1784 C1782 1.415 . S
C1784 C1789 1.425 1_455 S
C1784 C1791 1.409 1_455 S
C1785 H1777 0.930 . S
C1785 C1783 1.419 . S
C1785 C1786 1.362 . S
C1786 H1778 0.930 . S
C1786 C1785 1.362 . S
C1786 C1789 1.409 1_455 S
C1787 H1779 0.930 . S
C1787 C1788 1.355 . S
C1787 C1789 1.415 . S
C1788 C1787 1.355 . S
C1788 C1790 1.419 . S
C1789 C1784 1.425 1_655 S
C1789 C1786 1.409 1_655 S
C1789 C1787 1.415 . S
C1790 H1780 0.930 . S
C1790 C1788 1.419 . S
C1790 C1791 1.362 . S
C1791 H1781 0.930 . S
C1791 C1784 1.409 1_655 S
C1791 C1790 1.362 . S
H1792 C1798 0.930 . S
H1793 C1801 0.930 . S
H1794 C1802 0.930 . S
H1795 C1803 0.930 . S
H1796 C1806 0.930 . S
H1797 C1807 0.930 . S
C1798 H1792 0.930 . S
C1798 C1799 1.355 . S
C1798 C1800 1.415 . S
C1799 C1798 1.355 . S
C1799 C1801 1.419 . S
C1800 C1798 1.415 . S
C1800 C1805 1.425 1_565 S
C1800 C1807 1.409 1_565 S
C1801 H1793 0.930 . S
C1801 C1799 1.419 . S
C1801 C1802 1.362 . S
C1802 H1794 0.930 . S
C1802 C1801 1.362 . S
C1802 C1805 1.409 1_565 S
C1803 H1795 0.930 . S
C1803 C1804 1.355 . S
C1803 C1805 1.415 . S
C1804 C1803 1.355 . S
C1804 C1806 1.419 . S
C1805 C1800 1.425 1_545 S
C1805 C1802 1.409 1_545 S
C1805 C1803 1.415 . S
C1806 H1796 0.930 . S
C1806 C1804 1.419 . S
C1806 C1807 1.362 . S
C1807 H1797 0.930 . S
C1807 C1800 1.409 1_545 S
C1807 C1806 1.362 . S
H1808 C1814 0.930 . S
H1809 C1817 0.930 . S
H1810 C1818 0.930 . S
H1811 C1819 0.930 . S
H1812 C1822 0.930 . S
H1813 C1823 0.930 . S
C1814 H1808 0.930 . S
C1814 C1815 1.355 . S
C1814 C1816 1.415 . S
C1815 C1814 1.355 . S
C1815 C1817 1.419 . S
C1816 C1814 1.415 . S
C1816 C1821 1.425 1_655 S
C1816 C1823 1.409 1_655 S
C1817 H1809 0.930 . S
C1817 C1815 1.419 . S
C1817 C1818 1.362 . S
C1818 H1810 0.930 . S
C1818 C1817 1.362 . S
C1818 C1821 1.409 1_655 S
C1819 H1811 0.930 . S
C1819 C1820 1.355 . S
C1819 C1821 1.415 . S
C1820 C1819 1.355 . S
C1820 C1822 1.419 . S
C1821 C1816 1.425 1_455 S
C1821 C1818 1.409 1_455 S
C1821 C1819 1.415 . S
C1822 H1812 0.930 . S
C1822 C1820 1.419 . S
C1822 C1823 1.362 . S
C1823 H1813 0.930 . S
C1823 C1816 1.409 1_455 S
C1823 C1822 1.362 . S
H1824 C1830 0.930 . S
H1825 C1833 0.930 . S
H1826 C1834 0.930 . S
H1827 C1835 0.930 . S
H1828 C1838 0.930 . S
H1829 C1839 0.930 . S
C1830 H1824 0.930 . S
C1830 C1831 1.355 . S
C1830 C1832 1.415 . S
C1831 C1830 1.355 . S
C1831 C1833 1.419 . S
C1832 C1830 1.415 . S
C1832 C1837 1.425 1_565 S
C1832 C1839 1.409 1_565 S
C1833 H1825 0.930 . S
C1833 C1831 1.419 . S
C1833 C1834 1.362 . S
C1834 H1826 0.930 . S
C1834 C1833 1.362 . S
C1834 C1837 1.409 1_565 S
C1835 H1827 0.930 . S
C1835 C1836 1.355 . S
C1835 C1837 1.415 . S
C1836 C1835 1.355 . S
C1836 C1838 1.419 . S
C1837 C1832 1.425 1_545 S
C1837 C1834 1.409 1_545 S
C1837 C1835 1.415 . S
C1838 H1828 0.930 . S
C1838 C1836 1.419 . S
C1838 C1839 1.362 . S
C1839 H1829 0.930 . S
C1839 C1832 1.409 1_545 S
C1839 C1838 1.362 . S
H1840 C1846 0.930 . S
H1841 C1849 0.930 . S
H1842 C1850 0.930 . S
H1843 C1851 0.930 . S
H1844 C1854 0.930 . S
H1845 C1855 0.930 . S
C1846 H1840 0.930 . S
C1846 C1847 1.355 . S
C1846 C1848 1.415 . S
C1847 C1846 1.355 . S
C1847 C1849 1.419 . S
C1848 C1846 1.415 . S
C1848 C1853 1.425 1_565 S
C1848 C1855 1.409 1_565 S
C1849 H1841 0.930 . S
C1849 C1847 1.419 . S
C1849 C1850 1.362 . S
C1850 H1842 0.930 . S
C1850 C1849 1.362 . S
C1850 C1853 1.409 1_565 S
C1851 H1843 0.930 . S
C1851 C1852 1.355 . S
C1851 C1853 1.415 . S
C1852 C1851 1.355 . S
C1852 C1854 1.419 . S
C1853 C1848 1.425 1_545 S
C1853 C1850 1.409 1_545 S
C1853 C1851 1.415 . S
C1854 H1844 0.930 . S
C1854 C1852 1.419 . S
C1854 C1855 1.362 . S
C1855 H1845 0.930 . S
C1855 C1848 1.409 1_545 S
C1855 C1854 1.362 . S
H1856 C1862 0.930 . S
H1857 C1865 0.930 . S
H1858 C1866 0.930 . S
H1859 C1867 0.930 . S
H1860 C1870 0.930 . S
H1861 C1871 0.930 . S
C1862 H1856 0.930 . S
C1862 C1863 1.355 . S
C1862 C1864 1.415 . S
C1863 C1862 1.355 . S
C1863 C1865 1.419 . S
C1864 C1862 1.415 . S
C1864 C1869 1.425 . S
C1864 C1871 1.409 . S
C1865 H1857 0.930 . S
C1865 C1863 1.419 . S
C1865 C1866 1.362 . S
C1866 H1858 0.930 . S
C1866 C1865 1.362 . S
C1866 C1869 1.409 . S
C1867 H1859 0.930 . S
C1867 C1868 1.355 . S
C1867 C1869 1.415 . S
C1868 C1867 1.355 . S
C1868 C1870 1.419 . S
C1869 C1864 1.425 . S
C1869 C1866 1.409 . S
C1869 C1867 1.415 . S
C1870 H1860 0.930 . S
C1870 C1868 1.419 . S
C1870 C1871 1.362 . S
C1871 H1861 0.930 . S
C1871 C1864 1.409 . S
C1871 C1870 1.362 . S
H1872 C1878 0.930 . S
H1873 C1881 0.930 . S
H1874 C1882 0.930 . S
H1875 C1883 0.930 . S
H1876 C1886 0.930 . S
H1877 C1887 0.930 . S
C1878 H1872 0.930 . S
C1878 C1879 1.355 . S
C1878 C1880 1.415 . S
C1879 C1878 1.355 . S
C1879 C1881 1.419 . S
C1880 C1878 1.415 . S
C1880 C1885 1.425 . S
C1880 C1887 1.409 . S
C1881 H1873 0.930 . S
C1881 C1879 1.419 . S
C1881 C1882 1.362 . S
C1882 H1874 0.930 . S
C1882 C1881 1.362 . S
C1882 C1885 1.409 . S
C1883 H1875 0.930 . S
C1883 C1884 1.355 . S
C1883 C1885 1.415 . S
C1884 C1883 1.355 . S
C1884 C1886 1.419 . S
C1885 C1880 1.425 . S
C1885 C1882 1.409 . S
C1885 C1883 1.415 . S
C1886 H1876 0.930 . S
C1886 C1884 1.419 . S
C1886 C1887 1.362 . S
C1887 H1877 0.930 . S
C1887 C1880 1.409 . S
C1887 C1886 1.362 . S
H1888 C1894 0.930 . S
H1889 C1897 0.930 . S
H1890 C1898 0.930 . S
H1891 C1899 0.930 . S
H1892 C1902 0.930 . S
H1893 C1903 0.930 . S
C1894 H1888 0.930 . S
C1894 C1895 1.355 . S
C1894 C1896 1.415 . S
C1895 C1894 1.355 . S
C1895 C1897 1.419 . S
C1896 C1894 1.415 . S
C1896 C1901 1.425 . S
C1896 C1903 1.409 . S
C1897 H1889 0.930 . S
C1897 C1895 1.419 . S
C1897 C1898 1.362 . S
C1898 H1890 0.930 . S
C1898 C1897 1.362 . S
C1898 C1901 1.409 . S
C1899 H1891 0.930 . S
C1899 C1900 1.355 . S
C1899 C1901 1.415 . S
C1900 C1899 1.355 . S
C1900 C1902 1.419 . S
C1901 C1896 1.425 . S
C1901 C1898 1.409 . S
C1901 C1899 1.415 . S
C1902 H1892 0.930 . S
C1902 C1900 1.419 . S
C1902 C1903 1.362 . S
C1903 H1893 0.930 . S
C1903 C1896 1.409 . S
C1903 C1902 1.362 . S
H1904 C1910 0.930 . S
H1905 C1913 0.930 . S
H1906 C1914 0.930 . S
H1907 C1915 0.930 . S
H1908 C1918 0.930 . S
H1909 C1919 0.930 . S
C1910 H1904 0.930 . S
C1910 C1911 1.355 . S
C1910 C1912 1.415 . S
C1911 C1910 1.355 . S
C1911 C1913 1.419 . S
C1912 C1910 1.415 . S
C1912 C1917 1.425 . S
C1912 C1919 1.409 . S
C1913 H1905 0.930 . S
C1913 C1911 1.419 . S
C1913 C1914 1.362 . S
C1914 H1906 0.930 . S
C1914 C1913 1.362 . S
C1914 C1917 1.409 . S
C1915 H1907 0.930 . S
C1915 C1916 1.355 . S
C1915 C1917 1.415 . S
C1916 C1915 1.355 . S
C1916 C1918 1.419 . S
C1917 C1912 1.425 . S
C1917 C1914 1.409 . S
C1917 C1915 1.415 . S
C1918 H1908 0.930 . S
C1918 C1916 1.419 . S
C1918 C1919 1.362 . S
C1919 H1909 0.930 . S
C1919 C1912 1.409 . S
C1919 C1918 1.362 . S
H1920 C1926 0.930 . S
H1921 C1929 0.930 . S
H1922 C1930 0.930 . S
H1923 C1931 0.930 . S
H1924 C1934 0.930 . S
H1925 C1935 0.930 . S
C1926 H1920 0.930 . S
C1926 C1927 1.355 . S
C1926 C1928 1.415 . S
C1927 C1926 1.355 . S
C1927 C1929 1.419 . S
C1928 C1926 1.415 . S
C1928 C1933 1.425 . S
C1928 C1935 1.409 . S
C1929 H1921 0.930 . S
C1929 C1927 1.419 . S
C1929 C1930 1.362 . S
C1930 H1922 0.930 . S
C1930 C1929 1.362 . S
C1930 C1933 1.409 . S
C1931 H1923 0.930 . S
C1931 C1932 1.355 . S
C1931 C1933 1.415 . S
C1932 C1931 1.355 . S
C1932 C1934 1.419 . S
C1933 C1928 1.425 . S
C1933 C1930 1.409 . S
C1933 C1931 1.415 . S
C1934 H1924 0.930 . S
C1934 C1932 1.419 . S
C1934 C1935 1.362 . S
C1935 H1925 0.930 . S
C1935 C1928 1.409 . S
C1935 C1934 1.362 . S
H1936 C1942 0.930 . S
H1937 C1945 0.930 . S
H1938 C1946 0.930 . S
H1939 C1947 0.930 . S
H1940 C1950 0.930 . S
H1941 C1951 0.930 . S
C1942 H1936 0.930 . S
C1942 C1943 1.355 . S
C1942 C1944 1.415 . S
C1943 C1942 1.355 . S
C1943 C1945 1.419 . S
C1944 C1942 1.415 . S
C1944 C1949 1.425 . S
C1944 C1951 1.409 . S
C1945 H1937 0.930 . S
C1945 C1943 1.419 . S
C1945 C1946 1.362 . S
C1946 H1938 0.930 . S
C1946 C1945 1.362 . S
C1946 C1949 1.409 . S
C1947 H1939 0.930 . S
C1947 C1948 1.355 . S
C1947 C1949 1.415 . S
C1948 C1947 1.355 . S
C1948 C1950 1.419 . S
C1949 C1944 1.425 . S
C1949 C1946 1.409 . S
C1949 C1947 1.415 . S
C1950 H1940 0.930 . S
C1950 C1948 1.419 . S
C1950 C1951 1.362 . S
C1951 H1941 0.930 . S
C1951 C1944 1.409 . S
C1951 C1950 1.362 . S
H1952 C1958 0.930 . S
H1953 C1961 0.930 . S
H1954 C1962 0.930 . S
H1955 C1963 0.930 . S
H1956 C1966 0.930 . S
H1957 C1967 0.930 . S
C1958 H1952 0.930 . S
C1958 C1959 1.355 . S
C1958 C1960 1.415 . S
C1959 C1958 1.355 . S
C1959 C1961 1.419 . S
C1960 C1958 1.415 . S
C1960 C1965 1.425 . S
C1960 C1967 1.409 . S
C1961 H1953 0.930 . S
C1961 C1959 1.419 . S
C1961 C1962 1.362 . S
C1962 H1954 0.930 . S
C1962 C1961 1.362 . S
C1962 C1965 1.409 . S
C1963 H1955 0.930 . S
C1963 C1964 1.355 . S
C1963 C1965 1.415 . S
C1964 C1963 1.355 . S
C1964 C1966 1.419 . S
C1965 C1960 1.425 . S
C1965 C1962 1.409 . S
C1965 C1963 1.415 . S
C1966 H1956 0.930 . S
C1966 C1964 1.419 . S
C1966 C1967 1.362 . S
C1967 H1957 0.930 . S
C1967 C1960 1.409 . S
C1967 C1966 1.362 . S
H1968 C1974 0.930 . S
H1969 C1977 0.930 . S
H1970 C1978 0.930 . S
H1971 C1979 0.930 . S
H1972 C1982 0.930 . S
H1973 C1983 0.930 . S
C1974 H1968 0.930 . S
C1974 C1975 1.355 . S
C1974 C1976 1.415 . S
C1975 C1974 1.355 . S
C1975 C1977 1.419 . S
C1976 C1974 1.415 . S
C1976 C1981 1.425 . S
C1976 C1983 1.409 . S
C1977 H1969 0.930 . S
C1977 C1975 1.419 . S
C1977 C1978 1.362 . S
C1978 H1970 0.930 . S
C1978 C1977 1.362 . S
C1978 C1981 1.409 . S
C1979 H1971 0.930 . S
C1979 C1980 1.355 . S
C1979 C1981 1.415 . S
C1980 C1979 1.355 . S
C1980 C1982 1.419 . S
C1981 C1976 1.425 . S
C1981 C1978 1.409 . S
C1981 C1979 1.415 . S
C1982 H1972 0.930 . S
C1982 C1980 1.419 . S
C1982 C1983 1.362 . S
C1983 H1973 0.930 . S
C1983 C1976 1.409 . S
C1983 C1982 1.362 . S
H1984 C1990 0.930 . S
H1985 C1993 0.930 . S
H1986 C1994 0.930 . S
H1987 C1995 0.930 . S
H1988 C1998 0.930 . S
H1989 C1999 0.930 . S
C1990 H1984 0.930 . S
C1990 C1991 1.355 . S
C1990 C1992 1.415 . S
C1991 C1990 1.355 . S
C1991 C1993 1.419 . S
C1992 C1990 1.415 . S
C1992 C1997 1.425 . S
C1992 C1999 1.409 . S
C1993 H1985 0.930 . S
C1993 C1991 1.419 . S
C1993 C1994 1.362 . S
C1994 H1986 0.930 . S
C1994 C1993 1.362 . S
C1994 C1997 1.409 . S
C1995 H1987 0.930 . S
C1995 C1996 1.355 . S
C1995 C1997 1.415 . S
C1996 C1995 1.355 . S
C1996 C1998 1.419 . S
C1997 C1992 1.425 . S
C1997 C1994 1.409 . S
C1997 C1995 1.415 . S
C1998 H1988 0.930 . S
C1998 C1996 1.419 . S
C1998 C1999 1.362 . S
C1999 H1989 0.930 . S
C1999 C1992 1.409 . S
C1999 C1998 1.362 . S
H2000 C2006 0.930 . S
H2001 C2009 0.930 . S
H2002 C2010 0.930 . S
H2003 C2011 0.930 . S
H2004 C2014 0.930 . S
H2005 C2015 0.930 . S
C2006 H2000 0.930 . S
C2006 C2007 1.355 . S
C2006 C2008 1.415 . S
C2007 C2006 1.355 . S
C2007 C2009 1.419 . S
C2008 C2006 1.415 . S
C2008 C2013 1.425 . S
C2008 C2015 1.409 . S
C2009 H2001 0.930 . S
C2009 C2007 1.419 . S
C2009 C2010 1.362 . S
C2010 H2002 0.930 . S
C2010 C2009 1.362 . S
C2010 C2013 1.409 . S
C2011 H2003 0.930 . S
C2011 C2012 1.355 . S
C2011 C2013 1.415 . S
C2012 C2011 1.355 . S
C2012 C2014 1.419 . S
C2013 C2008 1.425 . S
C2013 C2010 1.409 . S
C2013 C2011 1.415 . S
C2014 H2004 0.930 . S
C2014 C2012 1.419 . S
C2014 C2015 1.362 . S
C2015 H2005 0.930 . S
C2015 C2008 1.409 . S
C2015 C2014 1.362 . S
H2016 C2022 0.930 . S
H2017 C2025 0.930 . S
H2018 C2026 0.930 . S
H2019 C2027 0.930 . S
H2020 C2030 0.930 . S
H2021 C2031 0.930 . S
C2022 H2016 0.930 . S
C2022 C2023 1.355 . S
C2022 C2024 1.415 . S
C2023 C2022 1.355 . S
C2023 C2025 1.419 . S
C2024 C2022 1.415 . S
C2024 C2029 1.425 . S
C2024 C2031 1.409 . S
C2025 H2017 0.930 . S
C2025 C2023 1.419 . S
C2025 C2026 1.362 . S
C2026 H2018 0.930 . S
C2026 C2025 1.362 . S
C2026 C2029 1.409 . S
C2027 H2019 0.930 . S
C2027 C2028 1.355 . S
C2027 C2029 1.415 . S
C2028 C2027 1.355 . S
C2028 C2030 1.419 . S
C2029 C2024 1.425 . S
C2029 C2026 1.409 . S
C2029 C2027 1.415 . S
C2030 H2020 0.930 . S
C2030 C2028 1.419 . S
C2030 C2031 1.362 . S
C2031 H2021 0.930 . S
C2031 C2024 1.409 . S
C2031 C2030 1.362 . S
H2032 C2038 0.930 . S
H2033 C2041 0.930 . S
H2034 C2042 0.930 . S
H2035 C2043 0.930 . S
H2036 C2046 0.930 . S
H2037 C2047 0.930 . S
C2038 H2032 0.930 . S
C2038 C2039 1.355 . S
C2038 C2040 1.415 . S
C2039 C2038 1.355 . S
C2039 C2041 1.419 . S
C2040 C2038 1.415 . S
C2040 C2045 1.425 . S
C2040 C2047 1.409 . S
C2041 H2033 0.930 . S
C2041 C2039 1.419 . S
C2041 C2042 1.362 . S
C2042 H2034 0.930 . S
C2042 C2041 1.362 . S
C2042 C2045 1.409 . S
C2043 H2035 0.930 . S
C2043 C2044 1.355 . S
C2043 C2045 1.415 . S
C2044 C2043 1.355 . S
C2044 C2046 1.419 . S
C2045 C2040 1.425 . S
C2045 C2042 1.409 . S
C2045 C2043 1.415 . S
C2046 H2036 0.930 . S
C2046 C2044 1.419 . S
C2046 C2047 1.362 . S
C2047 H2037 0.930 . S
C2047 C2040 1.409 . S
C2047 C2046 1.362 . S
H2048 C2054 0.930 . S
H2049 C2057 0.930 . S
H2050 C2058 0.930 . S
H2051 C2059 0.930 . S
H2052 C2062 0.930 . S
H2053 C2063 0.930 . S
C2054 H2048 0.930 . S
C2054 C2055 1.355 . S
C2054 C2056 1.415 . S
C2055 C2054 1.355 . S
C2055 C2057 1.419 . S
C2056 C2054 1.415 . S
C2056 C2061 1.425 . S
C2056 C2063 1.409 . S
C2057 H2049 0.930 . S
C2057 C2055 1.419 . S
C2057 C2058 1.362 . S
C2058 H2050 0.930 . S
C2058 C2057 1.362 . S
C2058 C2061 1.409 . S
C2059 H2051 0.930 . S
C2059 C2060 1.355 . S
C2059 C2061 1.415 . S
C2060 C2059 1.355 . S
C2060 C2062 1.419 . S
C2061 C2056 1.425 . S
C2061 C2058 1.409 . S
C2061 C2059 1.415 . S
C2062 H2052 0.930 . S
C2062 C2060 1.419 . S
C2062 C2063 1.362 . S
C2063 H2053 0.930 . S
C2063 C2056 1.409 . S
C2063 C2062 1.362 . S
H2064 C2070 0.930 . S
H2065 C2073 0.930 . S
H2066 C2074 0.930 . S
H2067 C2075 0.930 . S
H2068 C2078 0.930 . S
H2069 C2079 0.930 . S
C2070 H2064 0.930 . S
C2070 C2071 1.355 . S
C2070 C2072 1.415 . S
C2071 C2070 1.355 . S
C2071 C2073 1.419 . S
C2072 C2070 1.415 . S
C2072 C2077 1.425 . S
C2072 C2079 1.409 . S
C2073 H2065 0.930 . S
C2073 C2071 1.419 . S
C2073 C2074 1.362 . S
C2074 H2066 0.930 . S
C2074 C2073 1.362 . S
C2074 C2077 1.409 . S
C2075 H2067 0.930 . S
C2075 C2076 1.355 . S
C2075 C2077 1.415 . S
C2076 C2075 1.355 . S
C2076 C2078 1.419 . S
C2077 C2072 1.425 . S
C2077 C2074 1.409 . S
C2077 C2075 1.415 . S
C2078 H2068 0.930 . S
C2078 C2076 1.419 . S
C2078 C2079 1.362 . S
C2079 H2069 0.930 . S
C2079 C2072 1.409 . S
C2079 C2078 1.362 . S
H2080 C2086 0.930 . S
H2081 C2089 0.930 . S
H2082 C2090 0.930 . S
H2083 C2091 0.930 . S
H2084 C2094 0.930 . S
H2085 C2095 0.930 . S
C2086 H2080 0.930 . S
C2086 C2087 1.355 . S
C2086 C2088 1.415 . S
C2087 C2086 1.355 . S
C2087 C2089 1.419 . S
C2088 C2086 1.415 . S
C2088 C2093 1.425 . S
C2088 C2095 1.409 . S
C2089 H2081 0.930 . S
C2089 C2087 1.419 . S
C2089 C2090 1.362 . S
C2090 H2082 0.930 . S
C2090 C2089 1.362 . S
C2090 C2093 1.409 . S
C2091 H2083 0.930 . S
C2091 C2092 1.355 . S
C2091 C2093 1.415 . S
C2092 C2091 1.355 . S
C2092 C2094 1.419 . S
C2093 C2088 1.425 . S
C2093 C2090 1.409 . S
C2093 C2091 1.415 . S
C2094 H2084 0.930 . S
C2094 C2092 1.419 . S
C2094 C2095 1.362 . S
C2095 H2085 0.930 . S
C2095 C2088 1.409 . S
C2095 C2094 1.362 . S
H2096 C2102 0.930 . S
H2097 C2105 0.930 . S
H2098 C2106 0.930 . S
H2099 C2107 0.930 . S
H2100 C2110 0.930 . S
H2101 C2111 0.930 . S
C2102 H2096 0.930 . S
C2102 C2103 1.355 . S
C2102 C2104 1.415 . S
C2103 C2102 1.355 . S
C2103 C2105 1.419 . S
C2104 C2102 1.415 . S
C2104 C2109 1.425 . S
C2104 C2111 1.409 . S
C2105 H2097 0.930 . S
C2105 C2103 1.419 . S
C2105 C2106 1.362 . S
C2106 H2098 0.930 . S
C2106 C2105 1.362 . S
C2106 C2109 1.409 . S
C2107 H2099 0.930 . S
C2107 C2108 1.355 . S
C2107 C2109 1.415 . S
C2108 C2107 1.355 . S
C2108 C2110 1.419 . S
C2109 C2104 1.425 . S
C2109 C2106 1.409 . S
C2109 C2107 1.415 . S
C2110 H2100 0.930 . S
C2110 C2108 1.419 . S
C2110 C2111 1.362 . S
C2111 H2101 0.930 . S
C2111 C2104 1.409 . S
C2111 C2110 1.362 . S
H2112 C2118 0.930 . S
H2113 C2121 0.930 . S
H2114 C2122 0.930 . S
H2115 C2123 0.930 . S
H2116 C2126 0.930 . S
H2117 C2127 0.930 . S
C2118 H2112 0.930 . S
C2118 C2119 1.355 . S
C2118 C2120 1.415 . S
C2119 C2118 1.355 . S
C2119 C2121 1.419 . S
C2120 C2118 1.415 . S
C2120 C2125 1.425 . S
C2120 C2127 1.409 . S
C2121 H2113 0.930 . S
C2121 C2119 1.419 . S
C2121 C2122 1.362 . S
C2122 H2114 0.930 . S
C2122 C2121 1.362 . S
C2122 C2125 1.409 . S
C2123 H2115 0.930 . S
C2123 C2124 1.355 . S
C2123 C2125 1.415 . S
C2124 C2123 1.355 . S
C2124 C2126 1.419 . S
C2125 C2120 1.425 . S
C2125 C2122 1.409 . S
C2125 C2123 1.415 . S
C2126 H2116 0.930 . S
C2126 C2124 1.419 . S
C2126 C2127 1.362 . S
C2127 H2117 0.930 . S
C2127 C2120 1.409 . S
C2127 C2126 1.362 . S
H2128 C2134 0.930 . S
H2129 C2137 0.930 . S
H2130 C2138 0.930 . S
H2131 C2139 0.930 . S
H2132 C2142 0.930 . S
H2133 C2143 0.930 . S
C2134 H2128 0.930 . S
C2134 C2135 1.355 . S
C2134 C2136 1.415 . S
C2135 C2134 1.355 . S
C2135 C2137 1.419 . S
C2136 C2134 1.415 . S
C2136 C2141 1.425 . S
C2136 C2143 1.409 . S
C2137 H2129 0.930 . S
C2137 C2135 1.419 . S
C2137 C2138 1.362 . S
C2138 H2130 0.930 . S
C2138 C2137 1.362 . S
C2138 C2141 1.409 . S
C2139 H2131 0.930 . S
C2139 C2140 1.355 . S
C2139 C2141 1.415 . S
C2140 C2139 1.355 . S
C2140 C2142 1.419 . S
C2141 C2136 1.425 . S
C2141 C2138 1.409 . S
C2141 C2139 1.415 . S
C2142 H2132 0.930 . S
C2142 C2140 1.419 . S
C2142 C2143 1.362 . S
C2143 H2133 0.930 . S
C2143 C2136 1.409 . S
C2143 C2142 1.362 . S
H2144 C2150 0.930 . S
H2145 C2153 0.930 . S
H2146 C2154 0.930 . S
H2147 C2155 0.930 . S
H2148 C2158 0.930 . S
H2149 C2159 0.930 . S
C2150 H2144 0.930 . S
C2150 C2151 1.355 . S
C2150 C2152 1.415 . S
C2151 C2150 1.355 . S
C2151 C2153 1.419 . S
C2152 C2150 1.415 . S
C2152 C2157 1.425 . S
C2152 C2159 1.409 . S
C2153 H2145 0.930 . S
C2153 C2151 1.419 . S
C2153 C2154 1.362 . S
C2154 H2146 0.930 . S
C2154 C2153 1.362 . S
C2154 C2157 1.409 . S
C2155 H2147 0.930 . S
C2155 C2156 1.355 . S
C2155 C2157 1.415 . S
C2156 C2155 1.355 . S
C2156 C2158 1.419 . S
C2157 C2152 1.425 . S
C2157 C2154 1.409 . S
C2157 C2155 1.415 . S
C2158 H2148 0.930 . S
C2158 C2156 1.419 . S
C2158 C2159 1.362 . S
C2159 H2149 0.930 . S
C2159 C2152 1.409 . S
C2159 C2158 1.362 . S
H2160 C2166 0.930 . S
H2161 C2169 0.930 . S
H2162 C2170 0.930 . S
H2163 C2171 0.930 . S
H2164 C2174 0.930 . S
H2165 C2175 0.930 . S
C2166 H2160 0.930 . S
C2166 C2167 1.355 . S
C2166 C2168 1.415 . S
C2167 C2166 1.355 . S
C2167 C2169 1.419 . S
C2168 C2166 1.415 . S
C2168 C2173 1.425 . S
C2168 C2175 1.409 . S
C2169 H2161 0.930 . S
C2169 C2167 1.419 . S
C2169 C2170 1.362 . S
C2170 H2162 0.930 . S
C2170 C2169 1.362 . S
C2170 C2173 1.409 . S
C2171 H2163 0.930 . S
C2171 C2172 1.355 . S
C2171 C2173 1.415 . S
C2172 C2171 1.355 . S
C2172 C2174 1.419 . S
C2173 C2168 1.425 . S
C2173 C2170 1.409 . S
C2173 C2171 1.415 . S
C2174 H2164 0.930 . S
C2174 C2172 1.419 . S
C2174 C2175 1.362 . S
C2175 H2165 0.930 . S
C2175 C2168 1.409 . S
C2175 C2174 1.362 . S
H2176 C2182 0.930 . S
H2177 C2185 0.930 . S
H2178 C2186 0.930 . S
H2179 C2187 0.930 . S
H2180 C2190 0.930 . S
H2181 C2191 0.930 . S
C2182 H2176 0.930 . S
C2182 C2183 1.355 . S
C2182 C2184 1.415 . S
C2183 C2182 1.355 . S
C2183 C2185 1.419 . S
C2184 C2182 1.415 . S
C2184 C2189 1.425 . S
C2184 C2191 1.409 . S
C2185 H2177 0.930 . S
C2185 C2183 1.419 . S
C2185 C2186 1.362 . S
C2186 H2178 0.930 . S
C2186 C2185 1.362 . S
C2186 C2189 1.409 . S
C2187 H2179 0.930 . S
C2187 C2188 1.355 . S
C2187 C2189 1.415 . S
C2188 C2187 1.355 . S
C2188 C2190 1.419 . S
C2189 C2184 1.425 . S
C2189 C2186 1.409 . S
C2189 C2187 1.415 . S
C2190 H2180 0.930 . S
C2190 C2188 1.419 . S
C2190 C2191 1.362 . S
C2191 H2181 0.930 . S
C2191 C2184 1.409 . S
C2191 C2190 1.362 . S
H2192 C2198 0.930 . S
H2193 C2201 0.930 . S
H2194 C2202 0.930 . S
H2195 C2203 0.930 . S
H2196 C2206 0.930 . S
H2197 C2207 0.930 . S
C2198 H2192 0.930 . S
C2198 C2199 1.355 . S
C2198 C2200 1.415 . S
C2199 C2198 1.355 . S
C2199 C2201 1.419 . S
C2200 C2198 1.415 . S
C2200 C2205 1.425 . S
C2200 C2207 1.409 . S
C2201 H2193 0.930 . S
C2201 C2199 1.419 . S
C2201 C2202 1.362 . S
C2202 H2194 0.930 . S
C2202 C2201 1.362 . S
C2202 C2205 1.409 . S
C2203 H2195 0.930 . S
C2203 C2204 1.355 . S
C2203 C2205 1.415 . S
C2204 C2203 1.355 . S
C2204 C2206 1.419 . S
C2205 C2200 1.425 . S
C2205 C2202 1.409 . S
C2205 C2203 1.415 . S
C2206 H2196 0.930 . S
C2206 C2204 1.419 . S
C2206 C2207 1.362 . S
C2207 H2197 0.930 . S
C2207 C2200 1.409 . S
C2207 C2206 1.362 . S
H2208 C2214 0.930 . S
H2209 C2217 0.930 . S
H2210 C2218 0.930 . S
H2211 C2219 0.930 . S
H2212 C2222 0.930 . S
H2213 C2223 0.930 . S
C2214 H2208 0.930 . S
C2214 C2215 1.355 . S
C2214 C2216 1.415 . S
C2215 C2214 1.355 . S
C2215 C2217 1.419 . S
C2216 C2214 1.415 . S
C2216 C2221 1.425 . S
C2216 C2223 1.409 . S
C2217 H2209 0.930 . S
C2217 C2215 1.419 . S
C2217 C2218 1.362 . S
C2218 H2210 0.930 . S
C2218 C2217 1.362 . S
C2218 C2221 1.409 . S
C2219 H2211 0.930 . S
C2219 C2220 1.355 . S
C2219 C2221 1.415 . S
C2220 C2219 1.355 . S
C2220 C2222 1.419 . S
C2221 C2216 1.425 . S
C2221 C2218 1.409 . S
C2221 C2219 1.415 . S
C2222 H2212 0.930 . S
C2222 C2220 1.419 . S
C2222 C2223 1.362 . S
C2223 H2213 0.930 . S
C2223 C2216 1.409 . S
C2223 C2222 1.362 . S
H2224 C2230 0.930 . S
H2225 C2233 0.930 . S
H2226 C2234 0.930 . S
H2227 C2235 0.930 . S
H2228 C2238 0.930 . S
H2229 C2239 0.930 . S
C2230 H2224 0.930 . S
C2230 C2231 1.355 . S
C2230 C2232 1.415 . S
C2231 C2230 1.355 . S
C2231 C2233 1.419 . S
C2232 C2230 1.415 . S
C2232 C2237 1.425 . S
C2232 C2239 1.409 . S
C2233 H2225 0.930 . S
C2233 C2231 1.419 . S
C2233 C2234 1.362 . S
C2234 H2226 0.930 . S
C2234 C2233 1.362 . S
C2234 C2237 1.409 . S
C2235 H2227 0.930 . S
C2235 C2236 1.355 . S
C2235 C2237 1.415 . S
C2236 C2235 1.355 . S
C2236 C2238 1.419 . S
C2237 C2232 1.425 . S
C2237 C2234 1.409 . S
C2237 C2235 1.415 . S
C2238 H2228 0.930 . S
C2238 C2236 1.419 . S
C2238 C2239 1.362 . S
C2239 H2229 0.930 . S
C2239 C2232 1.409 . S
C2239 C2238 1.362 . S
C711 C358 1.187 . S
C716 C5 1.187 . S
C727 C515 1.186 . S
C732 C30 1.189 . S
C743 C49 1.183 . S
C748 C470 1.191 . S
C759 C73 1.187 . S
C764 C493 1.187 . S
C775 C94 1.188 . S
C780 C379 1.187 . S
C791 C119 1.185 . S
C796 C404 1.190 . S
C807 C423 1.182 . S
C812 C140 1.193 . S
C823 C163 1.184 . S
C828 C447 1.190 . S
C839 C185 1.195 . S
C844 C6 1.179 . S
C855 C31 1.185 . S
C860 C205 1.190 . S
C871 C224 1.188 . S
C876 C50 1.187 . S
C887 C74 1.183 . S
C892 C249 1.192 . S
C903 C92 1.188 . S
C908 C268 1.187 . S
C919 C294 1.194 . S
C924 C117 1.181 . S
C935 C141 1.188 . S
C940 C314 1.187 . S
C951 C339 1.193 . S
C956 C161 1.181 . S
C967 C183 1.183 . S
C972 C357 1.192 . S
C983 C378 1.179 . S
C988 C269 1.195 . S
C999 C403 1.180 . S
C1004 C295 1.194 . S
C1015 C312 1.184 . S
C1020 C422 1.191 . S
C1031 C449 1.181 . S
C1036 C337 1.193 . S
C1047 C469 1.181 . S
C1052 C225 1.194 . S
C1063 C250 1.179 . S
C1068 C492 1.195 . S
C1079 C514 1.194 . S
C1084 C206 1.180 . S
C1095 C691 1.180 . S
C1100 C338 1.194 . S
C1111 C293 1.179 . S
C1116 C669 1.195 . S
C1127 C624 1.181 . S
C1132 C251 1.194 . S
C1143 C645 1.185 . S
C1148 C207 1.190 . S
C1159 C380 1.185 . S
C1164 C537 1.190 . S
C1175 C424 1.195 . S
C1180 C554 1.179 . S
C1191 C578 1.182 . S
C1196 C356 1.193 . S
C1207 C600 1.184 . S
C1212 C471 1.190 . S
C1223 C535 1.189 . S
C1228 C93 1.186 . S
C1239 C576 1.181 . S
C1244 C4 1.194 . S
C1255 C75 1.187 . S
C1260 C623 1.188 . S
C1271 C598 1.182 . S
C1276 C48 1.193 . S
C1287 C647 1.186 . S
C1292 C29 1.189 . S
C1303 C139 1.192 . S
C1308 C555 1.182 . S
C1319 C668 1.190 . S
C1324 C118 1.185 . S
C1335 C162 1.195 . S
C1340 C690 1.179 . S
C1351 C313 1.194 . S
C1356 C556 1.180 . S
C1367 C270 1.183 . S
C1372 C536 1.191 . S
C1383 C599 1.195 . S
C1388 C226 1.179 . S
C1399 C577 1.190 . S
C1404 C184 1.185 . S
C1415 C405 1.194 . S
C1420 C667 1.180 . S
C1431 C448 1.191 . S
C1436 C689 1.183 . S
C1447 C646 1.195 . S
C1452 C513 1.180 . S
C1463 C491 1.179 . S
C1468 C625 1.195 . S
C1479 C71 1.584 . S
C1484 C9 1.578 . S
C1495 C28 1.559 . S
C1500 C7 1.603 . S
C1511 C26 1.556 . S
C1516 C53 1.606 . S
C1527 C51 1.575 . S
C1532 C70 1.587 . S
C1543 C116 1.561 . S
C1548 C96 1.601 . S
C1559 C136 1.556 . S
C1564 C115 1.606 . S
C1575 C138 1.602 . S
C1580 C160 1.560 . S
C1591 C159 1.584 . S
C1596 C97 1.579 . S
C1607 C181 1.601 . S
C1612 C401 1.562 . S
C1623 C426 1.576 . S
C1628 C202 1.586 . S
C1639 C446 1.593 . S
C1644 C227 1.570 . S
C1655 C246 1.555 . S
C1660 C382 1.607 . S
C1671 C271 1.555 . S
C1676 C488 1.608 . S
C1687 C359 1.554 . S
C1692 C292 1.608 . S
C1703 C510 1.561 . S
C1708 C316 1.601 . S
C1719 C335 1.558 . S
C1724 C467 1.604 . S
C1735 C361 1.561 . S
C1740 C203 1.601 . S
C1751 C381 1.596 . S
C1756 C336 1.566 . S
C1767 C272 1.597 . S
C1772 C400 1.565 . S
C1783 C290 1.608 . S
C1788 C425 1.554 . S
C1799 C445 1.563 . S
C1804 C317 1.600 . S
C1815 C466 1.558 . S
C1820 C247 1.604 . S
C1831 C490 1.602 . S
C1836 C182 1.560 . S
C1847 C228 1.584 . S
C1852 C512 1.579 . S
C1863 C383 1.592 . S
C1868 C291 1.571 . S
C1879 C334 1.602 . S
C1884 C427 1.560 . S
C1895 C360 1.608 . S
C1900 C248 1.554 . S
C1911 C204 1.608 . S
C1916 C468 1.554 . S
C1927 C533 1.559 . S
C1932 C621 1.604 . S
C1943 C52 1.567 . S
C1948 C158 1.595 . S
C1959 C557 1.555 . S
C1964 C644 1.608 . S
C1975 C114 1.597 . S
C1980 C8 1.565 . S
C1991 C664 1.606 . S
C1996 C580 1.556 . S
C2007 C72 1.579 . S
C2012 C95 1.584 . S
C2023 C602 1.580 . S
C2028 C686 1.583 . S
C2039 C137 1.568 . S
C2044 C27 1.594 . S
C2055 C620 1.576 . S
C2060 C581 1.587 . S
C2071 C603 1.565 . S
C2076 C643 1.598 . S
C2087 C534 1.602 . S
C2092 C666 1.560 . S
C2103 C558 1.602 . S
C2108 C688 1.560 . S
C2119 C402 1.554 . S
C2124 C315 1.608 . S
C2135 C444 1.555 . S
C2140 C273 1.607 . S
C2151 C180 1.607 . S
C2156 C511 1.555 . S
C2167 C229 1.586 . S
C2172 C489 1.576 . S
C2183 C665 1.557 . S
C2188 C559 1.606 . S
C2199 C622 1.569 . S
C2204 C601 1.594 . S
C2215 C642 1.608 . S
C2220 C579 1.555 . S
C2231 C532 1.564 . S
C2236 C687 1.598 . S
