# Generated by pormake.
# Topology ske, (6)-cn, num edge types: 1
# Building blocks:
#     Node 0, Type 0, BuildingBlock: FUNLAD_clean_sbu_0, # of connection points: 6
#     Node 1, Type 0, BuildingBlock: FUNLAD_clean_sbu_0, # of connection points: 6
#     Node 2, Type 0, BuildingBlock: FUNLAD_clean_sbu_0, # of connection points: 6
#     Node 3, Type 0, BuildingBlock: FUNLAD_clean_sbu_0, # of connection points: 6
#     Node 4, Type 0, BuildingBlock: FUNLAD_clean_sbu_0, # of connection points: 6
#     Node 5, Type 0, BuildingBlock: FUNLAD_clean_sbu_0, # of connection points: 6
#     Node 6, Type 0, BuildingBlock: FUNLAD_clean_sbu_0, # of connection points: 6
#     Node 7, Type 0, BuildingBlock: FUNLAD_clean_sbu_0, # of connection points: 6
#     Edge 8, Type (0, 0), BuildingBlock: UVAHIK_clean_linker_0, # of connection points: 2
#     Edge 9, Type (0, 0), BuildingBlock: UVAHIK_clean_linker_0, # of connection points: 2
#     Edge 10, Type (0, 0), BuildingBlock: UVAHIK_clean_linker_0, # of connection points: 2
#     Edge 11, Type (0, 0), BuildingBlock: UVAHIK_clean_linker_0, # of connection points: 2
#     Edge 12, Type (0, 0), BuildingBlock: UVAHIK_clean_linker_0, # of connection points: 2
#     Edge 13, Type (0, 0), BuildingBlock: UVAHIK_clean_linker_0, # of connection points: 2
#     Edge 14, Type (0, 0), BuildingBlock: UVAHIK_clean_linker_0, # of connection points: 2
#     Edge 15, Type (0, 0), BuildingBlock: UVAHIK_clean_linker_0, # of connection points: 2
#     Edge 16, Type (0, 0), BuildingBlock: UVAHIK_clean_linker_0, # of connection points: 2
#     Edge 17, Type (0, 0), BuildingBlock: UVAHIK_clean_linker_0, # of connection points: 2
#     Edge 18, Type (0, 0), BuildingBlock: UVAHIK_clean_linker_0, # of connection points: 2
#     Edge 19, Type (0, 0), BuildingBlock: UVAHIK_clean_linker_0, # of connection points: 2
#     Edge 20, Type (0, 0), BuildingBlock: UVAHIK_clean_linker_0, # of connection points: 2
#     Edge 21, Type (0, 0), BuildingBlock: UVAHIK_clean_linker_0, # of connection points: 2
#     Edge 22, Type (0, 0), BuildingBlock: UVAHIK_clean_linker_0, # of connection points: 2
#     Edge 23, Type (0, 0), BuildingBlock: UVAHIK_clean_linker_0, # of connection points: 2
#     Edge 24, Type (0, 0), BuildingBlock: UVAHIK_clean_linker_0, # of connection points: 2
#     Edge 25, Type (0, 0), BuildingBlock: UVAHIK_clean_linker_0, # of connection points: 2
#     Edge 26, Type (0, 0), BuildingBlock: UVAHIK_clean_linker_0, # of connection points: 2
#     Edge 27, Type (0, 0), BuildingBlock: UVAHIK_clean_linker_0, # of connection points: 2
#     Edge 28, Type (0, 0), BuildingBlock: UVAHIK_clean_linker_0, # of connection points: 2
#     Edge 29, Type (0, 0), BuildingBlock: UVAHIK_clean_linker_0, # of connection points: 2
#     Edge 30, Type (0, 0), BuildingBlock: UVAHIK_clean_linker_0, # of connection points: 2
#     Edge 31, Type (0, 0), BuildingBlock: UVAHIK_clean_linker_0, # of connection points: 2
# Relax obj value: 0.060
# Max RMSD: 0.121
# Mean RMSD: 0.117
data_MOF--net-ske--node1-FUNLAD_clean_sbu_0--edge1-UVAHIK_clean_linker_0
_symmetry_space_group_name_H-M    P1
_symmetry_Int_Tables_number       1
_symmetry_cell_setting            triclinic
loop_
_symmetry_equiv_pos_as_xyz
'x, y, z'
_cell_length_a     75.26037
_cell_length_b     52.617122
_cell_length_c     19.083198
_cell_angle_alpha  89.74075
_cell_angle_beta   90.085571
_cell_angle_gamma 91.884492
loop_
_atom_site_label
_atom_site_type_symbol
_atom_site_fract_x
_atom_site_fract_y
_atom_site_fract_z
_atom_type_partial_charge
C0 C 0.16768 0.25717 0.57124 0.0
N1 N 0.13195 0.19658 0.52161 0.0
C2 C 0.14676 0.18447 0.50092 0.0
C3 C 0.14679 0.15796 0.49849 0.0
C4 C 0.13135 0.14375 0.51628 0.0
C5 C 0.11622 0.15665 0.53718 0.0
C6 C 0.11687 0.18321 0.5401 0.0
Zn7 Zn 0.13251 0.23562 0.52249 0.0
C8 C 0.12151 0.25638 0.65774 0.0
N9 N 0.13423 0.31712 0.52202 0.0
C10 C 0.14784 0.33 0.48926 0.0
C11 C 0.12068 0.32969 0.55203 0.0
C12 C 0.12041 0.35622 0.54914 0.0
C13 C 0.13409 0.36993 0.51429 0.0
C14 C 0.14798 0.35651 0.48443 0.0
Zn15 Zn 0.13366 0.27811 0.52262 0.0
O16 O 0.15908 0.23636 0.56023 0.0
C17 C 0.1446 0.25714 0.38727 0.0
O18 O 0.16027 0.27809 0.55875 0.0
H19 H 0.10992 0.31911 0.57739 0.0
H20 H 0.15855 0.19539 0.48562 0.0
H21 H 0.15853 0.31969 0.46606 0.0
O22 O 0.14159 0.23624 0.41919 0.0
O23 O 0.14236 0.27796 0.41882 0.0
H24 H 0.10526 0.19314 0.55678 0.0
O25 O 0.10701 0.27761 0.48721 0.0
O26 O 0.10587 0.2359 0.48575 0.0
O27 O 0.1249 0.27733 0.62646 0.0
O28 O 0.12342 0.23555 0.62568 0.0
C29 C 0.09834 0.2569 0.47593 0.0
H30 H 0.15866 0.14867 0.48145 0.0
H31 H 0.1041 0.14628 0.55171 0.0
H32 H 0.10938 0.36586 0.57234 0.0
H33 H 0.15888 0.36641 0.45777 0.0
C34 C 0.90942 0.25754 0.47558 0.0
N35 N 0.87534 0.31705 0.52022 0.0
C36 C 0.89037 0.33063 0.53776 0.0
C37 C 0.8909 0.35718 0.53333 0.0
C38 C 0.87572 0.37004 0.5117 0.0
C39 C 0.86028 0.35544 0.49531 0.0
C40 C 0.86044 0.32894 0.49926 0.0
Zn41 Zn 0.87506 0.278 0.52261 0.0
C42 C 0.86294 0.25592 0.3884 0.0
N43 N 0.8742 0.19643 0.52515 0.0
C44 C 0.88911 0.18408 0.54377 0.0
C45 C 0.85922 0.18329 0.50467 0.0
C46 C 0.85889 0.15676 0.50192 0.0
C47 C 0.87422 0.14343 0.51909 0.0
C48 C 0.88946 0.15757 0.54056 0.0
Zn49 Zn 0.87451 0.23549 0.52436 0.0
O50 O 0.90156 0.27823 0.48535 0.0
C51 C 0.88668 0.25757 0.65849 0.0
O52 O 0.90111 0.23654 0.4874 0.0
H53 H 0.84752 0.19341 0.48979 0.0
H54 H 0.90208 0.32088 0.55445 0.0
H55 H 0.90088 0.1948 0.56013 0.0
O56 O 0.88432 0.27831 0.62593 0.0
O57 O 0.88369 0.2365 0.62766 0.0
H58 H 0.84863 0.31787 0.48517 0.0
O59 O 0.84797 0.23528 0.56221 0.0
O60 O 0.84863 0.27698 0.56067 0.0
O61 O 0.86536 0.23521 0.42089 0.0
O62 O 0.86583 0.27695 0.4194 0.0
C63 C 0.84033 0.25606 0.57344 0.0
H64 H 0.90323 0.3674 0.54552 0.0
H65 H 0.8481 0.36431 0.4798 0.0
H66 H 0.84668 0.14686 0.48649 0.0
H67 H 0.90171 0.14838 0.55333 0.0
C68 C 0.09876 0.75684 0.49391 0.0
N69 N 0.13437 0.81755 0.44567 0.0
C70 C 0.11942 0.82983 0.42726 0.0
C71 C 0.11901 0.85632 0.43053 0.0
C72 C 0.13423 0.87052 0.45181 0.0
C73 C 0.14962 0.85728 0.4687 0.0
C74 C 0.14934 0.83074 0.46588 0.0
Zn75 Zn 0.13399 0.7785 0.44659 0.0
C76 C 0.14505 0.75808 0.58265 0.0
N77 N 0.1326 0.69702 0.45026 0.0
C78 C 0.11897 0.68342 0.41995 0.0
C79 C 0.14611 0.68516 0.48301 0.0
C80 C 0.1462 0.65867 0.4868 0.0
C81 C 0.13234 0.64404 0.45587 0.0
C82 C 0.11862 0.65683 0.42186 0.0
Zn83 Zn 0.13296 0.73602 0.44803 0.0
O84 O 0.10753 0.7776 0.48407 0.0
C85 C 0.12186 0.75666 0.31202 0.0
O86 O 0.10618 0.73589 0.48259 0.0
H87 H 0.15684 0.69628 0.50673 0.0
H88 H 0.10765 0.81906 0.41107 0.0
H89 H 0.10835 0.69319 0.39415 0.0
O90 O 0.12469 0.77763 0.34343 0.0
O91 O 0.12434 0.73586 0.34405 0.0
H92 H 0.16109 0.82067 0.48054 0.0
O93 O 0.15967 0.73672 0.41252 0.0
O94 O 0.16042 0.77844 0.40851 0.0
O95 O 0.14157 0.73712 0.55212 0.0
O96 O 0.14326 0.77883 0.54968 0.0
C97 C 0.16804 0.75754 0.39881 0.0
H98 H 0.10671 0.86545 0.41799 0.0
H99 H 0.16181 0.86724 0.48401 0.0
H100 H 0.15691 0.64981 0.51466 0.0
H101 H 0.10779 0.64646 0.39632 0.0
C102 C 0.90993 0.75789 0.4957 0.0
N103 N 0.87492 0.69665 0.44737 0.0
C104 C 0.88987 0.68459 0.42809 0.0
C105 C 0.8904 0.65809 0.43102 0.0
C106 C 0.8753 0.64384 0.45275 0.0
C107 C 0.85993 0.65668 0.47089 0.0
C108 C 0.86007 0.68323 0.46841 0.0
Zn109 Zn 0.87505 0.73568 0.44748 0.0
C110 C 0.86348 0.75608 0.58264 0.0
N111 N 0.87572 0.81722 0.44919 0.0
C112 C 0.89073 0.8308 0.43084 0.0
C113 C 0.86085 0.82911 0.47017 0.0
C114 C 0.86069 0.85562 0.47318 0.0
C115 C 0.87607 0.87003 0.45569 0.0
C116 C 0.89125 0.85734 0.43435 0.0
Zn117 Zn 0.87553 0.77818 0.44783 0.0
O118 O 0.90164 0.73687 0.48452 0.0
C119 C 0.88714 0.75777 0.31273 0.0
O120 O 0.90206 0.77856 0.48523 0.0
H121 H 0.84911 0.81803 0.48529 0.0
H122 H 0.90149 0.69553 0.41095 0.0
H123 H 0.90238 0.82104 0.41387 0.0
O124 O 0.8842 0.73675 0.34426 0.0
O125 O 0.88473 0.77854 0.34452 0.0
H126 H 0.84837 0.69314 0.4841 0.0
O127 O 0.84908 0.77701 0.40972 0.0
O128 O 0.84849 0.7353 0.40957 0.0
O129 O 0.86633 0.7771 0.551 0.0
O130 O 0.86595 0.73534 0.55086 0.0
C131 C 0.84081 0.75604 0.39764 0.0
H132 H 0.90245 0.64881 0.41605 0.0
H133 H 0.84807 0.64631 0.48841 0.0
H134 H 0.84878 0.86475 0.4905 0.0
H135 H 0.90332 0.86786 0.41997 0.0
C136 C 0.66811 0.75729 0.07093 0.0
N137 N 0.63251 0.6967 0.02028 0.0
C138 C 0.64739 0.68485 -0.00054 0.0
C139 C 0.64752 0.65838 -0.00472 0.0
C140 C 0.63206 0.64376 0.01123 0.0
C141 C 0.61688 0.65655 0.03283 0.0
C142 C 0.61745 0.68308 0.03751 0.0
Zn143 Zn 0.63296 0.73574 0.02222 0.0
C144 C 0.62196 0.75621 0.15752 0.0
N145 N 0.63459 0.81722 0.02261 0.0
C146 C 0.6482 0.83021 -0.00983 0.0
C147 C 0.62104 0.82968 0.05292 0.0
C148 C 0.62076 0.85622 0.05068 0.0
C149 C 0.63444 0.87004 0.01616 0.0
C150 C 0.64834 0.85672 -0.01402 0.0
Zn151 Zn 0.63408 0.77822 0.02243 0.0
O152 O 0.65952 0.73649 0.05992 0.0
C153 C 0.64505 0.75754 0.88706 0.0
O154 O 0.6607 0.77821 0.05852 0.0
H155 H 0.61028 0.81902 0.07805 0.0
H156 H 0.65922 0.69594 -0.01448 0.0
H157 H 0.6589 0.81998 0.96674 0.0
O158 O 0.64205 0.73663 0.91894 0.0
O159 O 0.64276 0.77835 0.91859 0.0
H160 H 0.60574 0.69281 0.05402 0.0
O161 O 0.60744 0.77773 -0.01291 0.0
O162 O 0.6063 0.73601 -0.01448 0.0
O163 O 0.62532 0.77717 0.12621 0.0
O164 O 0.62389 0.73538 0.12547 0.0
C165 C 0.59876 0.75702 0.97581 0.0
H166 H 0.65969 0.64955 0.97984 0.0
H167 H 0.60455 0.6463 0.04474 0.0
H168 H 0.60973 0.86579 0.0741 0.0
H169 H 0.65924 0.86671 0.95957 0.0
C170 C 0.40973 0.75783 0.97678 0.0
N171 N 0.37539 0.81705 0.01928 0.0
C172 C 0.38906 0.83077 0.049 0.0
C173 C 0.3895 0.85734 0.04565 0.0
C174 C 0.37586 0.86986 0.01064 0.0
C175 C 0.36189 0.85524 0.98082 0.0
C176 C 0.36187 0.82876 -0.01389 0.0
Zn177 Zn 0.37519 0.77807 0.02202 0.0
C178 C 0.36344 0.75569 0.8876 0.0
N179 N 0.37449 0.69656 0.02513 0.0
C180 C 0.38943 0.68425 0.04362 0.0
C181 C 0.35951 0.68338 0.00493 0.0
C182 C 0.3592 0.65685 0.00227 0.0
C183 C 0.37456 0.64358 0.01924 0.0
C184 C 0.3898 0.65774 0.0405 0.0
Zn185 Zn 0.37475 0.7356 0.02395 0.0
O186 O 0.40188 0.7785 -0.01283 0.0
C187 C 0.38652 0.75776 0.15831 0.0
O188 O 0.40136 0.73678 -0.01275 0.0
H189 H 0.34778 0.69346 -0.00986 0.0
H190 H 0.39972 0.8211 0.07481 0.0
H191 H 0.40121 0.69501 0.05976 0.0
O192 O 0.38388 0.77846 0.126 0.0
O193 O 0.38389 0.73669 0.12718 0.0
H194 H 0.35106 0.81755 0.96326 0.0
O195 O 0.34819 0.73543 0.06152 0.0
O196 O 0.34856 0.77713 0.05764 0.0
O197 O 0.36563 0.73503 0.92059 0.0
O198 O 0.36652 0.77675 0.91811 0.0
C199 C 0.34037 0.75617 0.07122 0.0
H200 H 0.40057 0.86794 0.06888 0.0
H201 H 0.35102 0.86419 0.95411 0.0
H202 H 0.34699 0.64692 -0.01298 0.0
H203 H 0.40208 0.64858 0.05312 0.0
C204 C 0.5985 0.25676 -0.00572 0.0
N205 N 0.63395 0.31755 0.94564 0.0
C206 C 0.61896 0.32957 0.92614 0.0
C207 C 0.61838 0.35606 0.9286 0.0
C208 C 0.63347 0.37034 0.95009 0.0
C209 C 0.6489 0.35755 0.96823 0.0
C210 C 0.6488 0.331 0.96622 0.0
Zn211 Zn 0.63373 0.27853 0.94727 0.0
C212 C 0.64475 0.25836 0.08337 0.0
N213 N 0.63251 0.19709 0.95157 0.0
C214 C 0.61893 0.18331 0.92156 0.0
C215 C 0.64606 0.18542 0.98468 0.0
C216 C 0.64621 0.15894 -0.01082 0.0
C217 C 0.63239 0.14414 0.9586 0.0
C218 C 0.61865 0.15674 0.92418 0.0
Zn219 Zn 0.63275 0.23607 0.94868 0.0
O220 O 0.60725 0.27754 0.98453 0.0
C221 C 0.62166 0.25646 0.81268 0.0
O222 O 0.60596 0.23584 0.98304 0.0
H223 H 0.65675 0.19667 0.00816 0.0
H224 H 0.60733 0.3186 0.90935 0.0
H225 H 0.60828 0.19294 0.8955 0.0
O226 O 0.62446 0.27743 0.84414 0.0
O227 O 0.62418 0.23566 0.84463 0.0
H228 H 0.66053 0.32112 0.98205 0.0
O229 O 0.65947 0.23686 0.9134 0.0
O230 O 0.6602 0.27858 0.90942 0.0
O231 O 0.64132 0.23739 0.05279 0.0
O232 O 0.64294 0.27911 0.05042 0.0
C233 C 0.66784 0.25768 0.89981 0.0
H234 H 0.60629 0.36529 0.91361 0.0
H235 H 0.66075 0.36796 -0.01445 0.0
H236 H 0.65694 0.15023 0.01732 0.0
H237 H 0.60785 0.14622 0.89887 0.0
C238 C 0.40957 0.25781 -0.00546 0.0
N239 N 0.37422 0.19695 0.9483 0.0
C240 C 0.38777 0.18462 0.91767 0.0
C241 C 0.38812 0.15809 0.91941 0.0
C242 C 0.37448 0.144 0.9537 0.0
C243 C 0.36061 0.15729 0.9845 0.0
C244 C 0.36069 0.18382 0.98086 0.0
Zn245 Zn 0.37452 0.23594 0.94797 0.0
C246 C 0.36331 0.2567 0.08329 0.0
N247 N 0.37546 0.31744 0.94903 0.0
C248 C 0.39054 0.33087 0.93077 0.0
C249 C 0.36063 0.32948 0.96976 0.0
C250 C 0.36058 0.35599 0.97264 0.0
C251 C 0.37604 0.37025 0.95526 0.0
C252 C 0.39116 0.35742 0.93414 0.0
Zn253 Zn 0.37511 0.27841 0.94805 0.0
O254 O 0.40127 0.23683 0.98278 0.0
C255 C 0.38638 0.25786 0.81281 0.0
O256 O 0.40165 0.27853 -0.01472 0.0
H257 H 0.34884 0.3185 0.98482 0.0
H258 H 0.39842 0.19539 0.89212 0.0
H259 H 0.40216 0.321 0.914 0.0
O260 O 0.38316 0.23687 0.84413 0.0
O261 O 0.38429 0.27865 0.84484 0.0
H262 H 0.35004 0.19395 0.00491 0.0
O263 O 0.34863 0.27733 0.91008 0.0
O264 O 0.3478 0.2356 0.91223 0.0
O265 O 0.36593 0.27765 0.05114 0.0
O266 O 0.36594 0.23593 0.05199 0.0
C267 C 0.34021 0.25636 0.89943 0.0
H268 H 0.39894 0.14877 0.89383 0.0
H269 H 0.34994 0.14739 0.01244 0.0
H270 H 0.3487 0.36524 -0.01021 0.0
H271 H 0.40329 0.36782 0.91986 0.0
C272 C 0.19507 0.27994 0.61679 0.0
C273 C 0.18582 0.257 0.60127 0.0
C274 C 0.21181 0.27976 0.64863 0.0
C275 C 0.25005 0.23902 0.68195 0.0
H276 H 0.2602 0.28665 0.8324 0.0
C277 C 0.31294 0.23312 0.85426 0.0
C278 C 0.32204 0.25619 0.86956 0.0
C279 C 0.29616 0.23304 0.8227 0.0
C280 C 0.25765 0.2734 0.79003 0.0
H281 H 0.18703 0.21588 0.6061 0.0
H282 H 0.21616 0.2156 0.66199 0.0
H283 H 0.2315 0.28702 0.7731 0.0
H284 H 0.32054 0.29728 0.86453 0.0
H285 H 0.29137 0.29711 0.80914 0.0
H286 H 0.27621 0.22542 0.69885 0.0
C287 C 0.21055 0.23372 0.64897 0.0
C288 C 0.2412 0.27363 0.75597 0.0
C289 C 0.19381 0.23389 0.6172 0.0
C290 C 0.31387 0.27916 0.85363 0.0
C291 C 0.2971 0.27908 0.82215 0.0
C292 C 0.2665 0.23879 0.71601 0.0
C293 C 0.21968 0.25665 0.66559 0.0
C294 C 0.23722 0.25647 0.70147 0.0
C295 C 0.2881 0.25602 0.80584 0.0
C296 C 0.2705 0.256 0.7704 0.0
H297 H 0.18932 0.29808 0.60505 0.0
H298 H 0.21861 0.29775 0.65979 0.0
H299 H 0.24749 0.22578 0.63955 0.0
H300 H 0.31883 0.21508 0.86599 0.0
H301 H 0.28946 0.21496 0.81172 0.0
C302 C 0.6951 0.28037 0.8524 0.0
C303 C 0.686 0.25749 0.87019 0.0
C304 C 0.71188 0.2801 0.82115 0.0
C305 C 0.74078 0.2388 0.71899 0.0
H306 H 0.77794 0.28767 0.77286 0.0
C307 C 0.81327 0.23302 0.62146 0.0
C308 C 0.82224 0.25601 0.60379 0.0
C309 C 0.79654 0.23309 0.65327 0.0
C310 C 0.76764 0.27408 0.75664 0.0
H311 H 0.68757 0.21638 0.87024 0.0
H312 H 0.7169 0.21595 0.81643 0.0
H313 H 0.74917 0.28799 0.83133 0.0
H314 H 0.82051 0.2971 0.60452 0.0
H315 H 0.7913 0.29718 0.65921 0.0
H316 H 0.75925 0.22491 0.64424 0.0
C317 C 0.71095 0.23409 0.82572 0.0
C318 C 0.75116 0.27426 0.7902 0.0
C319 C 0.69418 0.23435 0.85702 0.0
C320 C 0.814 0.27904 0.61767 0.0
C321 C 0.7973 0.27911 0.64948 0.0
C322 C 0.75727 0.23863 0.68541 0.0
C323 C 0.71993 0.25695 0.80694 0.0
C324 C 0.73753 0.25663 0.77175 0.0
C325 C 0.78843 0.25615 0.66815 0.0
C326 C 0.77088 0.25629 0.70377 0.0
H327 H 0.68916 0.29853 0.86165 0.0
H328 H 0.71836 0.29804 0.80667 0.0
H329 H 0.73047 0.22523 0.70275 0.0
H330 H 0.81926 0.21494 0.61166 0.0
H331 H 0.79015 0.21508 0.66761 0.0
C332 C 0.31332 0.73301 0.11886 0.0
C333 C 0.32221 0.75603 0.10095 0.0
C334 C 0.29656 0.73299 0.15034 0.0
C335 C 0.25769 0.77296 0.17838 0.0
H336 H 0.24811 0.72695 0.33413 0.0
C337 C 0.19519 0.78028 0.35076 0.0
C338 C 0.18617 0.75737 0.36885 0.0
C339 C 0.2119 0.78006 0.31896 0.0
C340 C 0.25051 0.73973 0.29027 0.0
H341 H 0.32033 0.79711 0.10123 0.0
H342 H 0.29119 0.79706 0.15651 0.0
H343 H 0.27679 0.72646 0.27494 0.0
H344 H 0.18776 0.71627 0.36863 0.0
H345 H 0.21685 0.71591 0.31281 0.0
H346 H 0.23142 0.78625 0.19375 0.0
C347 C 0.29708 0.77899 0.14559 0.0
C348 C 0.26694 0.73942 0.25627 0.0
C349 C 0.31384 0.77902 0.11418 0.0
C350 C 0.19437 0.73426 0.35553 0.0
C351 C 0.21108 0.73405 0.32379 0.0
C352 C 0.24127 0.77326 0.21238 0.0
C353 C 0.2883 0.75599 0.16453 0.0
C354 C 0.27073 0.75605 0.19996 0.0
C355 C 0.21998 0.75694 0.30461 0.0
C356 C 0.23749 0.75668 0.26878 0.0
H357 H 0.31937 0.71496 0.10923 0.0
H358 H 0.29004 0.71493 0.16337 0.0
H359 H 0.26009 0.78575 0.13453 0.0
H360 H 0.18928 0.79842 0.36046 0.0
H361 H 0.21852 0.79803 0.30578 0.0
C362 C 0.69434 0.73399 0.1159 0.0
C363 C 0.68628 0.75712 0.10076 0.0
C364 C 0.71111 0.73378 0.14738 0.0
C365 C 0.74175 0.77336 0.25518 0.0
H366 H 0.77686 0.72567 0.19568 0.0
C367 C 0.81443 0.77888 0.35238 0.0
C368 C 0.82268 0.75589 0.36741 0.0
C369 C 0.79766 0.77883 0.3209 0.0
C370 C 0.76712 0.73889 0.2135 0.0
H371 H 0.68968 0.79819 0.1057 0.0
H372 H 0.71902 0.79779 0.16001 0.0
H373 H 0.74807 0.72614 0.13685 0.0
H374 H 0.81963 0.71479 0.36213 0.0
H375 H 0.79026 0.71474 0.30785 0.0
H376 H 0.76077 0.78611 0.33183 0.0
C377 C 0.71225 0.77982 0.1484 0.0
C378 C 0.75063 0.73918 0.17971 0.0
C379 C 0.69549 0.78004 0.11682 0.0
C380 C 0.81367 0.73284 0.3511 0.0
C381 C 0.79689 0.7328 0.31955 0.0
C382 C 0.75822 0.77306 0.28898 0.0
C383 C 0.72019 0.75669 0.16452 0.0
C384 C 0.73777 0.75645 0.20009 0.0
C385 C 0.78874 0.75581 0.3037 0.0
C386 C 0.77111 0.75585 0.26849 0.0
H387 H 0.68759 0.71599 0.10435 0.0
H388 H 0.71677 0.71564 0.15975 0.0
H389 H 0.73201 0.78659 0.27295 0.0
H390 H 0.82102 0.79698 0.36406 0.0
H391 H 0.79186 0.79689 0.30866 0.0
C392 C 0.12353 0.91323 0.41199 0.0
C393 C 0.13393 0.89882 0.45775 0.0
C394 C 0.12287 0.93964 0.41895 0.0
C395 C 0.13346 0.99215 0.54514 0.0
H396 H 0.12828 0.03453 0.38005 0.0
C397 C 0.14455 0.10171 0.54321 0.0
C398 C 0.131 0.11562 0.51198 0.0
C399 C 0.14444 0.07521 0.53794 0.0
C400 C 0.12962 0.02287 0.42659 0.0
H401 H 0.15181 0.90135 0.54712 0.0
H402 H 0.15154 0.94723 0.55632 0.0
H403 H 0.12956 0.98855 0.36723 0.0
H404 H 0.10682 0.11288 0.4504 0.0
H405 H 0.10684 0.06645 0.43986 0.0
H406 H 0.13417 0.02682 0.60389 0.0
C407 C 0.14343 0.93811 0.51622 0.0
C408 C 0.13026 0.99648 0.41943 0.0
C409 C 0.14385 0.91168 0.51003 0.0
C410 C 0.11735 0.10256 0.47531 0.0
C411 C 0.11742 0.07609 0.46891 0.0
C412 C 0.13313 0.01857 0.55207 0.0
C413 C 0.13283 0.95249 0.47113 0.0
C414 C 0.13216 0.9807 0.47864 0.0
C415 C 0.13096 0.06218 0.50022 0.0
C416 C 0.13117 0.03416 0.4929 0.0
H417 H 0.1159 0.9042 0.37033 0.0
H418 H 0.11435 0.94988 0.38373 0.0
H419 H 0.13453 0.98074 0.59219 0.0
H420 H 0.15518 0.11134 0.57201 0.0
H421 H 0.15507 0.06492 0.56225 0.0
C422 C 0.88633 0.41372 0.55119 0.0
C423 C 0.87599 0.39838 0.50546 0.0
C424 C 0.88666 0.44023 0.54479 0.0
C425 C 0.87493 0.4924 0.42087 0.0
H426 H 0.8796 0.53397 0.58757 0.0
C427 C 0.86215 0.60048 0.42698 0.0
C428 C 0.87568 0.61574 0.45766 0.0
C429 C 0.86252 0.57397 0.43181 0.0
C430 C 0.87839 0.52256 0.54059 0.0
H431 H 0.85804 0.39936 0.41629 0.0
H432 H 0.85775 0.44527 0.40811 0.0
H433 H 0.87926 0.48778 0.59848 0.0
H434 H 0.90004 0.61538 0.5182 0.0
H435 H 0.90047 0.56895 0.52805 0.0
H436 H 0.87339 0.52743 0.36363 0.0
C437 C 0.86603 0.43688 0.44783 0.0
C438 C 0.8783 0.49605 0.54664 0.0
C439 C 0.86593 0.41038 0.45343 0.0
C440 C 0.88952 0.60402 0.49371 0.0
C441 C 0.88971 0.57754 0.4997 0.0
C442 C 0.87469 0.51888 0.41506 0.0
C443 C 0.87645 0.45223 0.49321 0.0
C444 C 0.8766 0.48055 0.48683 0.0
C445 C 0.87624 0.56227 0.46861 0.0
C446 C 0.87647 0.5342 0.47482 0.0
H447 H 0.89408 0.40534 0.59258 0.0
H448 H 0.89509 0.45126 0.58013 0.0
H449 H 0.87399 0.48127 0.37337 0.0
H450 H 0.85138 0.60907 0.39866 0.0
H451 H 0.85194 0.5626 0.40769 0.0
C452 C 0.88999 0.91117 0.49743 0.0
C453 C 0.87633 0.89814 0.4607 0.0
C454 C 0.88993 0.93763 0.504 0.0
C455 C 0.87442 0.99514 0.4205 0.0
H456 H 0.87823 0.02544 0.60495 0.0
C457 C 0.86446 0.10229 0.46111 0.0
C458 C 0.87442 0.11512 0.51332 0.0
C459 C 0.86471 0.07584 0.45525 0.0
C460 C 0.87747 0.01743 0.55285 0.0
H461 H 0.85212 0.90249 0.40092 0.0
H462 H 0.85226 0.94891 0.41097 0.0
H463 H 0.87922 0.9794 0.59269 0.0
H464 H 0.89239 0.10965 0.60089 0.0
H465 H 0.89366 0.06391 0.58804 0.0
H466 H 0.87328 0.03294 0.37991 0.0
C467 C 0.86289 0.93859 0.43519 0.0
C468 C 0.87794 0.991 0.54601 0.0
C469 C 0.86276 0.91209 0.42976 0.0
C470 C 0.88473 0.10064 0.55928 0.0
C471 C 0.88522 0.07421 0.55265 0.0
C472 C 0.87428 0.02159 0.42711 0.0
C473 C 0.8764 0.95158 0.4728 0.0
C474 C 0.8763 0.97962 0.47985 0.0
C475 C 0.87519 0.06139 0.50059 0.0
C476 C 0.87567 0.03315 0.49345 0.0
H477 H 0.90054 0.90083 0.52212 0.0
H478 H 0.90055 0.94724 0.53296 0.0
H479 H 0.87333 0.98682 0.36878 0.0
H480 H 0.85657 0.11265 0.42384 0.0
H481 H 0.85655 0.06676 0.41523 0.0
C482 C 0.14819 0.6026 0.45624 0.0
C483 C 0.13221 0.6157 0.45952 0.0
C484 C 0.14815 0.5761 0.46144 0.0
C485 C 0.12011 0.52043 0.5199 0.0
H486 H 0.1544 0.48295 0.41396 0.0
C487 C 0.12977 0.41309 0.56602 0.0
C488 C 0.13369 0.39803 0.50782 0.0
C489 C 0.12945 0.43957 0.55973 0.0
C490 C 0.14458 0.49302 0.44338 0.0
H491 H 0.1036 0.61083 0.47077 0.0
H492 H 0.10347 0.56466 0.47663 0.0
H493 H 0.15361 0.52882 0.40109 0.0
H494 H 0.13994 0.39882 0.39704 0.0
H495 H 0.13894 0.44487 0.38539 0.0
H496 H 0.11062 0.48449 0.56005 0.0
C497 C 0.11611 0.57493 0.47167 0.0
C498 C 0.14431 0.51948 0.4368 0.0
C499 C 0.11616 0.60148 0.46719 0.0
C500 C 0.13714 0.40998 0.44306 0.0
C501 C 0.13662 0.43641 0.43652 0.0
C502 C 0.12026 0.49393 0.52593 0.0
C503 C 0.13212 0.56187 0.46924 0.0
C504 C 0.13214 0.53358 0.47522 0.0
C505 C 0.13285 0.45161 0.49483 0.0
C506 C 0.13255 0.47986 0.48796 0.0
H507 H 0.1608 0.61279 0.44928 0.0
H508 H 0.16078 0.56683 0.46027 0.0
H509 H 0.11069 0.53059 0.55106 0.0
H510 H 0.12723 0.4044 0.61676 0.0
H511 H 0.12681 0.4506 0.6061 0.0
C512 C 0.64181 0.60376 0.95228 0.0
C513 C 0.63176 0.61546 0.00446 0.0
C514 C 0.64177 0.5773 0.94635 0.0
C515 C 0.62983 0.51765 0.04467 0.0
H516 H 0.63475 0.48708 0.86144 0.0
C517 C 0.61912 0.40985 -0.00878 0.0
C518 C 0.63298 0.3984 0.95504 0.0
C519 C 0.61881 0.4363 -0.00269 0.0
C520 C 0.63345 0.49541 0.91292 0.0
H521 H 0.6137 0.60801 0.09137 0.0
H522 H 0.61281 0.56213 0.07838 0.0
H523 H 0.63391 0.53319 0.87148 0.0
H524 H 0.65719 0.40552 0.89593 0.0
H525 H 0.65642 0.45194 0.90516 0.0
H526 H 0.62878 0.47956 0.08535 0.0
C527 C 0.62118 0.57338 0.0432 0.0
C528 C 0.63307 0.52186 0.91891 0.0
C529 C 0.62146 0.59986 0.04991 0.0
C530 C 0.64641 0.4139 0.92434 0.0
C531 C 0.64592 0.44038 0.92929 0.0
C532 C 0.62989 0.49118 0.03845 0.0
C533 C 0.63142 0.56169 -0.00846 0.0
C534 C 0.63139 0.5334 -0.01504 0.0
C535 C 0.63217 0.45181 0.96621 0.0
C536 C 0.63182 0.47984 0.97259 0.0
H537 H 0.64967 0.615 0.91531 0.0
H538 H 0.65006 0.56914 0.90657 0.0
H539 H 0.62887 0.5257 0.09657 0.0
H540 H 0.60867 0.3983 0.01574 0.0
H541 H 0.60803 0.44467 0.02574 0.0
C542 C 0.38005 0.91335 0.06299 0.0
C543 C 0.37624 0.898 0.00448 0.0
C544 C 0.38004 0.93986 0.05725 0.0
C545 C 0.36395 0.99167 0.94223 0.0
H546 H 0.39733 0.03322 0.05038 0.0
C547 C 0.35898 0.1008 0.95535 0.0
C548 C 0.37483 0.1157 0.95813 0.0
C549 C 0.35929 0.07431 0.96092 0.0
C550 C 0.38804 0.02195 0.01912 0.0
H551 H 0.36996 0.89835 0.89368 0.0
H552 H 0.3704 0.94451 0.88299 0.0
H553 H 0.39814 0.98716 0.05858 0.0
H554 H 0.40349 0.1141 0.96934 0.0
H555 H 0.40409 0.06802 0.97577 0.0
H556 H 0.35431 0.02639 0.90062 0.0
C557 C 0.37287 0.93619 0.93394 0.0
C558 C 0.38832 0.99545 0.02468 0.0
C559 C 0.37267 0.90971 0.93991 0.0
C560 C 0.39102 0.10333 0.96598 0.0
C561 C 0.39134 0.07682 0.97084 0.0
C562 C 0.36379 0.01814 0.93613 0.0
C563 C 0.37643 0.95166 -0.00738 0.0
C564 C 0.37624 0.97993 -0.01356 0.0
C565 C 0.37547 0.06194 0.96868 0.0
C566 C 0.37579 0.03367 0.97466 0.0
H567 H 0.38267 0.90483 0.11359 0.0
H568 H 0.38255 0.95107 0.10388 0.0
H569 H 0.35426 0.98043 0.91268 0.0
H570 H 0.34628 0.10954 0.94839 0.0
H571 H 0.34677 0.06358 0.95996 0.0
C572 C 0.3901 0.41128 -0.00296 0.0
C573 C 0.37641 0.39836 0.9602 0.0
C574 C 0.39014 0.43774 0.00363 0.0
C575 C 0.37482 0.49538 0.92016 0.0
H576 H 0.37862 0.52559 0.10473 0.0
C577 C 0.36483 0.60246 0.96117 0.0
C578 C 0.37479 0.61528 0.01339 0.0
C579 C 0.3651 0.57602 0.95523 0.0
C580 C 0.37786 0.5176 0.0526 0.0
H581 H 0.35225 0.40289 0.90023 0.0
H582 H 0.35255 0.44932 0.91033 0.0
H583 H 0.37953 0.47955 0.09233 0.0
H584 H 0.3928 0.60981 0.10084 0.0
H585 H 0.3941 0.56407 0.08786 0.0
H586 H 0.37374 0.5332 0.87969 0.0
C587 C 0.36313 0.43891 0.93461 0.0
C588 C 0.37829 0.49117 0.04569 0.0
C589 C 0.36291 0.41241 0.92915 0.0
C590 C 0.38513 0.60081 0.05926 0.0
C591 C 0.38564 0.57438 0.05254 0.0
C592 C 0.37472 0.52182 0.92685 0.0
C593 C 0.37667 0.4518 0.97234 0.0
C594 C 0.37665 0.47983 0.97947 0.0
C595 C 0.37561 0.56157 0.00048 0.0
C596 C 0.37609 0.53334 -0.00675 0.0
H597 H 0.4006 0.40085 0.02182 0.0
H598 H 0.40077 0.44727 0.03269 0.0
H599 H 0.37373 0.48709 0.86841 0.0
H600 H 0.35692 0.61282 0.92398 0.0
H601 H 0.35693 0.56694 0.91521 0.0
C602 C 0.64836 0.10281 0.96003 0.0
C603 C 0.63234 0.11582 0.96296 0.0
C604 C 0.64839 0.07632 0.9657 0.0
C605 C 0.62048 0.02053 0.02428 0.0
H606 H 0.65481 0.98323 0.91808 0.0
C607 C 0.63012 0.91306 0.06878 0.0
C608 C 0.63404 0.89816 0.01027 0.0
C609 C 0.62982 0.93956 0.06301 0.0
C610 C 0.64498 0.99325 0.94757 0.0
H611 H 0.60374 0.11082 0.97426 0.0
H612 H 0.60373 0.06466 0.9809 0.0
H613 H 0.65398 0.0291 0.90554 0.0
H614 H 0.64025 0.89922 0.89948 0.0
H615 H 0.63928 0.94529 0.88874 0.0
H616 H 0.61101 0.98454 0.06414 0.0
C617 C 0.61635 0.07499 0.97584 0.0
C618 C 0.64469 0.0197 0.9412 0.0
C619 C 0.61633 0.10153 0.97089 0.0
C620 C 0.63747 0.91026 0.94573 0.0
C621 C 0.63696 0.9367 0.93972 0.0
C622 C 0.62065 0.99403 0.03011 0.0
C623 C 0.63239 0.06202 0.97361 0.0
C624 C 0.63249 0.03374 0.97967 0.0
C625 C 0.63322 0.95176 -0.00166 0.0
C626 C 0.63294 0.98001 -0.00802 0.0
H627 H 0.66094 0.11305 0.95291 0.0
H628 H 0.66105 0.06712 0.9647 0.0
H629 H 0.61104 0.03065 0.05549 0.0
H630 H 0.62758 0.90424 0.11935 0.0
H631 H 0.62718 0.95047 0.1096 0.0
C632 C 0.14858 0.28031 0.27432 0.0
C633 C 0.14783 0.2572 0.31149 0.0
C634 C 0.14696 0.28037 0.20169 0.0
C635 C 0.14613 0.24038 0.04388 0.0
H636 H 0.1086 0.28486 -0.01421 0.0
C637 C 0.11711 0.23299 0.77019 0.0
C638 C 0.11809 0.25617 0.73341 0.0
C639 C 0.11848 0.23275 0.8429 0.0
C640 C 0.11911 0.27241 0.00138 0.0
H641 H 0.14695 0.21607 0.30184 0.0
H642 H 0.144 0.21625 0.17505 0.0
H643 H 0.11934 0.28624 0.10639 0.0
H644 H 0.11909 0.29728 0.74374 0.0
H645 H 0.12161 0.2968 0.87067 0.0
H646 H 0.1459 0.22658 0.93886 0.0
C647 C 0.14573 0.23426 0.20191 0.0
C648 C 0.12538 0.27336 0.06996 0.0
C649 C 0.14736 0.23418 0.27453 0.0
C650 C 0.11853 0.27912 0.77075 0.0
C651 C 0.1199 0.27886 0.84345 0.0
C652 C 0.13985 0.23943 0.97531 0.0
C653 C 0.14464 0.25737 0.16543 0.0
C654 C 0.13897 0.2574 0.09166 0.0
C655 C 0.12078 0.25566 0.87963 0.0
C656 C 0.12629 0.25544 0.95356 0.0
H657 H 0.14922 0.29836 0.30145 0.0
H658 H 0.14657 0.29842 0.17425 0.0
H659 H 0.15665 0.22797 0.05943 0.0
H660 H 0.1165 0.215 0.74276 0.0
H661 H 0.11872 0.21464 0.87008 0.0
C662 C 0.8598 0.27863 0.27476 0.0
C663 C 0.85975 0.25564 0.31248 0.0
C664 C 0.86152 0.27856 0.20217 0.0
C665 C 0.88264 0.24019 0.07133 0.0
H666 H 0.86131 0.28624 0.93893 0.0
C667 C 0.89 0.23493 0.77217 0.0
C668 C 0.89002 0.25788 0.73432 0.0
C669 C 0.88846 0.23507 0.84484 0.0
C670 C 0.86758 0.2736 0.97571 0.0
H671 H 0.85925 0.21449 0.30365 0.0
H672 H 0.86203 0.21444 0.17651 0.0
H673 H 0.85059 0.28445 0.05941 0.0
H674 H 0.89067 0.29905 0.74291 0.0
H675 H 0.88819 0.29922 0.87014 0.0
H676 H 0.89962 0.22931 -0.01243 0.0
C677 C 0.86124 0.23247 0.20336 0.0
C678 C 0.86133 0.27242 0.04428 0.0
C679 C 0.85953 0.23252 0.27597 0.0
C680 C 0.8904 0.28104 0.77069 0.0
C681 C 0.88887 0.28116 0.84337 0.0
C682 C 0.88889 0.24136 0.00274 0.0
C683 C 0.86312 0.25551 0.16639 0.0
C684 C 0.86879 0.25567 0.09259 0.0
C685 C 0.887 0.25816 0.88053 0.0
C686 C 0.88142 0.25809 0.95442 0.0
H687 H 0.85981 0.29675 0.3015 0.0
H688 H 0.8629 0.2966 0.17481 0.0
H689 H 0.8889 0.22753 0.1081 0.0
H690 H 0.88987 0.21678 0.74554 0.0
H691 H 0.88709 0.21706 0.87235 0.0
C692 C 0.11791 0.73344 0.19962 0.0
C693 C 0.11852 0.75654 0.23625 0.0
C694 C 0.11942 0.73341 0.12696 0.0
C695 C 0.11978 0.77341 0.96812 0.0
H696 H 0.15778 0.72977 0.91148 0.0
C697 C 0.14896 0.78154 0.69469 0.0
C698 C 0.14835 0.75837 0.65843 0.0
C699 C 0.14743 0.78173 0.76734 0.0
C700 C 0.14714 0.74197 0.92664 0.0
H701 H 0.11901 0.79767 0.22561 0.0
H702 H 0.12176 0.79755 0.09878 0.0
H703 H 0.14704 0.72811 0.03194 0.0
H704 H 0.14781 0.71726 0.66971 0.0
H705 H 0.14504 0.71764 0.79649 0.0
H706 H 0.11988 0.78726 0.86278 0.0
C707 C 0.12023 0.77952 0.12608 0.0
C708 C 0.14087 0.74086 -0.00484 0.0
C709 C 0.11872 0.77957 0.19873 0.0
C710 C 0.1481 0.73542 0.6963 0.0
C711 C 0.14658 0.73562 0.76893 0.0
C712 C 0.12605 0.77451 0.89958 0.0
C713 C 0.12149 0.75645 0.09013 0.0
C714 C 0.12712 0.75653 0.01637 0.0
C715 C 0.14535 0.75876 0.80453 0.0
C716 C 0.13978 0.75881 0.87836 0.0
H717 H 0.11748 0.71538 0.22718 0.0
H718 H 0.11993 0.71538 0.09994 0.0
H719 H 0.10913 0.7856 0.98329 0.0
H720 H 0.1494 0.79954 0.66685 0.0
H721 H 0.14692 0.79981 0.79409 0.0
C722 C 0.86077 0.73295 0.69622 0.0
C723 C 0.86028 0.7559 0.6585 0.0
C724 C 0.86247 0.73326 0.76885 0.0
C725 C 0.88279 0.7745 0.89981 0.0
H726 H 0.86236 0.72576 0.03222 0.0
C727 C 0.89002 0.78088 0.19913 0.0
C728 C 0.89048 0.75795 0.23695 0.0
C729 C 0.88849 0.78053 0.12644 0.0
C730 C 0.86838 0.7392 -0.00456 0.0
H731 H 0.85895 0.79693 0.6673 0.0
H732 H 0.8617 0.79737 0.79444 0.0
H733 H 0.85166 0.72599 0.91157 0.0
H734 H 0.89194 0.71693 0.22834 0.0
H735 H 0.88947 0.71643 0.10112 0.0
H736 H 0.8995 0.78773 0.98372 0.0
C737 C 0.86128 0.77926 0.76761 0.0
C738 C 0.86214 0.73947 0.92677 0.0
C739 C 0.8596 0.77897 0.69499 0.0
C740 C 0.89131 0.73488 0.20056 0.0
C741 C 0.88979 0.73455 0.1279 0.0
C742 C 0.88903 0.77423 0.96849 0.0
C743 C 0.86362 0.75651 0.80462 0.0
C744 C 0.86927 0.75715 0.87846 0.0
C745 C 0.88747 0.75727 0.09073 0.0
C746 C 0.88189 0.75656 0.01681 0.0
H747 H 0.86115 0.71486 0.66949 0.0
H748 H 0.86421 0.71544 0.79625 0.0
H749 H 0.8888 0.78795 0.86303 0.0
H750 H 0.88953 0.79898 0.22578 0.0
H751 H 0.88676 0.79833 0.0989 0.0
C752 C 0.61804 0.77916 0.26966 0.0
C753 C 0.61862 0.75607 0.23323 0.0
C754 C 0.61952 0.77941 0.34231 0.0
C755 C 0.6198 0.73967 0.5015 0.0
H756 H 0.65783 0.78689 0.55819 0.0
C757 C 0.64892 0.73443 0.77513 0.0
C758 C 0.64836 0.75756 0.81134 0.0
C759 C 0.64741 0.73408 0.70248 0.0
C760 C 0.64718 0.77369 0.54302 0.0
H761 H 0.61905 0.71499 0.24419 0.0
H762 H 0.62178 0.71551 0.37108 0.0
H763 H 0.64713 0.78738 0.43756 0.0
H764 H 0.64793 0.79863 0.79999 0.0
H765 H 0.64517 0.79795 0.67314 0.0
H766 H 0.61986 0.72599 0.60699 0.0
C767 C 0.62027 0.73337 0.34359 0.0
C768 C 0.64093 0.77411 0.4744 0.0
C769 C 0.61877 0.7331 0.27092 0.0
C770 C 0.64819 0.78049 0.77343 0.0
C771 C 0.64667 0.78012 0.70077 0.0
C772 C 0.62605 0.73925 0.57014 0.0
C773 C 0.62156 0.7566 0.37936 0.0
C774 C 0.62717 0.75714 0.45317 0.0
C775 C 0.64538 0.75685 0.66523 0.0
C776 C 0.6398 0.75624 0.59138 0.0
H777 H 0.61762 0.79714 0.24194 0.0
H778 H 0.62005 0.79751 0.36917 0.0
H779 H 0.60915 0.72647 0.48633 0.0
H780 H 0.64933 0.71647 0.80302 0.0
H781 H 0.64688 0.71594 0.67579 0.0
C782 C 0.35992 0.73209 0.77561 0.0
C783 C 0.36013 0.75527 0.81185 0.0
C784 C 0.36142 0.73196 0.70295 0.0
C785 C 0.36099 0.77166 0.54363 0.0
H786 H 0.39983 0.72952 0.48708 0.0
C787 C 0.39007 0.78117 0.27059 0.0
C788 C 0.38986 0.75805 0.23407 0.0
C789 C 0.38857 0.78119 0.34325 0.0
C790 C 0.38895 0.7413 0.50222 0.0
H791 H 0.3599 0.79635 0.80055 0.0
H792 H 0.36265 0.79606 0.67375 0.0
H793 H 0.3891 0.72748 0.60757 0.0
H794 H 0.39012 0.71696 0.2449 0.0
H795 H 0.38738 0.71705 0.37172 0.0
H796 H 0.36084 0.78549 0.4383 0.0
C797 C 0.36144 0.77805 0.70133 0.0
C798 C 0.38269 0.73997 0.57075 0.0
C799 C 0.35994 0.7782 0.77396 0.0
C800 C 0.39008 0.73507 0.27169 0.0
C801 C 0.38858 0.7351 0.34433 0.0
C802 C 0.36725 0.773 0.47511 0.0
C803 C 0.36308 0.75498 0.66574 0.0
C804 C 0.36865 0.75513 0.59193 0.0
C805 C 0.38692 0.75812 0.38018 0.0
C806 C 0.3813 0.75787 0.45394 0.0
H807 H 0.35982 0.7141 0.80347 0.0
H808 H 0.36226 0.71392 0.67621 0.0
H809 H 0.35011 0.78345 0.55876 0.0
H810 H 0.39017 0.7992 0.24295 0.0
H811 H 0.38773 0.79919 0.37019 0.0
C812 C 0.64859 0.23555 0.19636 0.0
C813 C 0.64796 0.2586 0.15918 0.0
C814 C 0.64693 0.23533 0.26894 0.0
C815 C 0.64617 0.27518 0.42683 0.0
H816 H 0.60858 0.22722 0.48424 0.0
C817 C 0.61729 0.27956 0.70043 0.0
C818 C 0.61822 0.25642 0.737 0.0
C819 C 0.61863 0.28002 0.62774 0.0
C820 C 0.61911 0.24064 0.46885 0.0
H821 H 0.64724 0.29966 0.16881 0.0
H822 H 0.64422 0.29921 0.29558 0.0
H823 H 0.61928 0.22699 0.36369 0.0
H824 H 0.61912 0.21541 0.7263 0.0
H825 H 0.62159 0.21628 0.59936 0.0
H826 H 0.64601 0.28881 0.532 0.0
C827 C 0.6459 0.28135 0.26874 0.0
C828 C 0.62535 0.24036 0.40028 0.0
C829 C 0.64758 0.28159 0.19613 0.0
C830 C 0.61857 0.23356 0.69946 0.0
C831 C 0.61993 0.23403 0.62675 0.0
C832 C 0.63992 0.27546 0.49539 0.0
C833 C 0.64467 0.25814 0.30517 0.0
C834 C 0.63897 0.25758 0.37883 0.0
C835 C 0.62086 0.25736 0.5908 0.0
C836 C 0.62635 0.25819 0.5169 0.0
H837 H 0.64917 0.21756 0.16921 0.0
H838 H 0.64646 0.21724 0.29634 0.0
H839 H 0.65672 0.28856 0.41149 0.0
H840 H 0.61672 0.29747 0.72802 0.0
H841 H 0.6189 0.29819 0.60074 0.0
C842 C 0.35948 0.27978 0.19531 0.0
C843 C 0.36004 0.25666 0.15905 0.0
C844 C 0.36104 0.2801 0.26795 0.0
C845 C 0.36137 0.24044 0.42727 0.0
H846 H 0.39934 0.28774 0.48408 0.0
C847 C 0.39045 0.23498 0.70066 0.0
C848 C 0.38977 0.25804 0.73714 0.0
C849 C 0.38902 0.23474 0.62799 0.0
C850 C 0.3887 0.27452 0.46886 0.0
H851 H 0.36054 0.21559 0.1703 0.0
H852 H 0.36339 0.21623 0.29711 0.0
H853 H 0.38862 0.28824 0.36341 0.0
H854 H 0.38924 0.29911 0.72628 0.0
H855 H 0.38661 0.29864 0.59935 0.0
H856 H 0.36144 0.22671 0.53269 0.0
C857 C 0.36184 0.23407 0.26954 0.0
C858 C 0.38245 0.27495 0.40023 0.0
C859 C 0.36027 0.23372 0.1969 0.0
C860 C 0.38959 0.28103 0.69951 0.0
C861 C 0.38815 0.28077 0.62681 0.0
C862 C 0.36762 0.24 0.49588 0.0
C863 C 0.36312 0.25733 0.30513 0.0
C864 C 0.36872 0.25793 0.37896 0.0
C865 C 0.38695 0.25755 0.59098 0.0
C866 C 0.38135 0.25701 0.51715 0.0
H867 H 0.35903 0.29774 0.16747 0.0
H868 H 0.36157 0.29824 0.29468 0.0
H869 H 0.35073 0.22722 0.41208 0.0
H870 H 0.39089 0.21698 0.72834 0.0
H871 H 0.38856 0.21665 0.60107 0.0
C872 C 0.06893 0.2347 0.45293 0.0
C873 C 0.07936 0.25733 0.45584 0.0
C874 C 0.05063 0.23542 0.44083 0.0
C875 C 0.01365 0.27849 0.46309 0.0
H876 H 0.98686 0.22727 0.35793 0.0
C877 C 0.93763 0.28116 0.44272 0.0
C878 C 0.92839 0.25794 0.45522 0.0
C879 C 0.95594 0.28176 0.43047 0.0
C880 C 0.99416 0.24165 0.38769 0.0
H881 H 0.0789 0.29837 0.44464 0.0
H882 H 0.04706 0.29957 0.42265 0.0
H883 H 0.01934 0.22708 0.3583 0.0
H884 H 0.93099 0.21705 0.4617 0.0
H885 H 0.96295 0.21814 0.4413 0.0
H886 H 0.98861 0.29274 0.49391 0.0
C887 C 0.05295 0.2813 0.43111 0.0
C888 C 0.01275 0.24153 0.38791 0.0
C889 C 0.07123 0.28059 0.44339 0.0
C890 C 0.93771 0.23526 0.45231 0.0
C891 C 0.95603 0.23587 0.4402 0.0
C892 C 0.99512 0.27861 0.46287 0.0
C893 C 0.04237 0.25878 0.43124 0.0
C894 C 0.0227 0.2598 0.42627 0.0
C895 C 0.96542 0.25917 0.43061 0.0
C896 C 0.98514 0.26003 0.42583 0.0
H897 H 0.07479 0.21646 0.4623 0.0
H898 H 0.04285 0.21774 0.44189 0.0
H899 H 0.02087 0.29255 0.49427 0.0
H900 H 0.93082 0.29897 0.44405 0.0
H901 H 0.96272 0.29998 0.42206 0.0
C902 C 0.93824 0.73561 0.51943 0.0
C903 C 0.92891 0.7583 0.51612 0.0
C904 C 0.95656 0.7362 0.53157 0.0
C905 C 0.99565 0.77897 0.50848 0.0
H906 H 0.0199 0.72696 0.61265 0.0
C907 C 0.07177 0.78049 0.52732 0.0
C908 C 0.07981 0.75725 0.5142 0.0
C909 C 0.05352 0.78124 0.53985 0.0
C910 C 0.0133 0.74156 0.58318 0.0
H911 H 0.93135 0.79931 0.52663 0.0
H912 H 0.96327 0.80029 0.54876 0.0
H913 H 0.98743 0.72732 0.61349 0.0
H914 H 0.0751 0.71644 0.50684 0.0
H915 H 0.0432 0.7178 0.52783 0.0
H916 H 0.02138 0.79291 0.47683 0.0
C917 C 0.95647 0.78207 0.5406 0.0
C918 C 0.99472 0.74177 0.58365 0.0
C919 C 0.93816 0.7815 0.52828 0.0
C920 C 0.06932 0.73466 0.51671 0.0
C921 C 0.05104 0.73543 0.52914 0.0
C922 C 0.01418 0.77878 0.50806 0.0
C923 C 0.96595 0.75948 0.54083 0.0
C924 C 0.98568 0.76031 0.54559 0.0
C925 C 0.04288 0.75878 0.5394 0.0
C926 C 0.02323 0.75991 0.5447 0.0
H927 H 0.93151 0.7174 0.51031 0.0
H928 H 0.96346 0.71846 0.53072 0.0
H929 H 0.98913 0.79324 0.4775 0.0
H930 H 0.07949 0.79823 0.52635 0.0
H931 H 0.04769 0.79949 0.54879 0.0
C932 C 0.56934 0.73484 0.95288 0.0
C933 C 0.57976 0.75747 0.95595 0.0
C934 C 0.55102 0.73558 0.94115 0.0
C935 C 0.51408 0.77858 0.96508 0.0
H936 H 0.48714 0.72776 0.85901 0.0
C937 C 0.43804 0.78152 0.94538 0.0
C938 C 0.42874 0.75828 0.95698 0.0
C939 C 0.45635 0.78211 0.93327 0.0
C940 C 0.49449 0.74202 0.88905 0.0
H941 H 0.57928 0.79853 0.94543 0.0
H942 H 0.54742 0.79977 0.92412 0.0
H943 H 0.51962 0.7275 0.8589 0.0
H944 H 0.43128 0.71735 0.96217 0.0
H945 H 0.46325 0.71843 0.94208 0.0
H946 H 0.48908 0.79277 -0.00334 0.0
C947 C 0.55333 0.78148 0.93215 0.0
C948 C 0.51308 0.74187 0.88898 0.0
C949 C 0.57161 0.78075 0.94402 0.0
C950 C 0.43804 0.73558 0.95347 0.0
C951 C 0.45637 0.73618 0.94152 0.0
C952 C 0.49554 0.77872 0.96516 0.0
C953 C 0.54275 0.75896 0.93214 0.0
C954 C 0.52307 0.76 0.92762 0.0
C955 C 0.46579 0.75949 0.93269 0.0
C956 C 0.48551 0.7603 0.92779 0.0
H957 H 0.57521 0.71658 0.96185 0.0
H958 H 0.54323 0.7179 0.94206 0.0
H959 H 0.52134 0.79253 -0.00352 0.0
H960 H 0.43125 0.79934 0.94718 0.0
H961 H 0.46316 0.80035 0.92546 0.0
C962 C 0.43785 0.28133 0.027 0.0
C963 C 0.42858 0.25816 0.0145 0.0
C964 C 0.45616 0.28186 0.03923 0.0
C965 C 0.49436 0.24147 0.08198 0.0
H966 H 0.52112 0.29279 0.97615 0.0
C967 C 0.56905 0.23453 0.01648 0.0
C968 C 0.57953 0.25713 0.01429 0.0
C969 C 0.55075 0.23526 0.02855 0.0
C970 C 0.51388 0.2786 0.00711 0.0
H971 H 0.43117 0.21728 0.00787 0.0
H972 H 0.46313 0.21828 0.02815 0.0
H973 H 0.48886 0.2931 0.97633 0.0
H974 H 0.57917 0.2981 0.02666 0.0
H975 H 0.54734 0.2993 0.04851 0.0
H976 H 0.51951 0.22664 0.11126 0.0
C977 C 0.45623 0.23601 0.02933 0.0
C978 C 0.49535 0.27879 0.00724 0.0
C979 C 0.43791 0.23546 0.01726 0.0
C980 C 0.57146 0.28034 0.02738 0.0
C981 C 0.55319 0.28106 0.03958 0.0
C982 C 0.51294 0.24127 0.08182 0.0
C983 C 0.46563 0.25926 0.03904 0.0
C984 C 0.48535 0.26007 0.04399 0.0
C985 C 0.54256 0.25859 0.03878 0.0
C986 C 0.5229 0.25969 0.04371 0.0
H987 H 0.43104 0.29915 0.02578 0.0
H988 H 0.46296 0.30005 0.04771 0.0
H989 H 0.48704 0.22697 0.11155 0.0
H990 H 0.57486 0.21632 0.00662 0.0
H991 H 0.54292 0.21762 0.02699 0.0
loop_
_geom_bond_atom_site_label_1
_geom_bond_atom_site_label_2
_geom_bond_distance
_geom_bond_site_symmetry_2
_ccdc_geom_bond_type
C0 O16 1.251 . S
C0 O18 1.254 . S
N1 C2 1.333 . S
N1 C6 1.307 . S
N1 Zn7 2.020 . S
C2 N1 1.333 . S
C2 C3 1.379 . S
C2 H20 0.952 . S
C3 C2 1.379 . S
C3 C4 1.390 . S
C3 H30 0.949 . S
C4 C3 1.390 . S
C4 C5 1.357 . S
C5 C4 1.357 . S
C5 C6 1.370 . S
C5 H31 0.950 . S
C6 N1 1.307 . S
C6 C5 1.370 . S
C6 H24 0.948 . S
Zn7 N1 2.020 . S
Zn7 O16 2.039 . S
Zn7 O22 2.034 . S
Zn7 O26 2.025 . S
Zn7 O28 2.024 . S
C8 O27 1.246 . S
C8 O28 1.249 . S
N9 C10 1.307 . S
N9 C11 1.333 . S
N9 Zn15 2.020 . S
C10 N9 1.307 . S
C10 C14 1.370 . S
C10 H21 0.948 . S
C11 N9 1.333 . S
C11 C12 1.379 . S
C11 H19 0.952 . S
C12 C11 1.379 . S
C12 C13 1.390 . S
C12 H32 0.949 . S
C13 C12 1.390 . S
C13 C14 1.357 . S
C14 C10 1.370 . S
C14 C13 1.357 . S
C14 H33 0.950 . S
Zn15 N9 2.020 . S
Zn15 O18 2.025 . S
Zn15 O23 2.024 . S
Zn15 O25 2.039 . S
Zn15 O27 2.034 . S
O16 C0 1.251 . S
O16 Zn7 2.039 . S
C17 O22 1.246 . S
C17 O23 1.249 . S
O18 C0 1.254 . S
O18 Zn15 2.025 . S
H19 C11 0.952 . S
H20 C2 0.952 . S
H21 C10 0.948 . S
O22 Zn7 2.034 . S
O22 C17 1.246 . S
O23 Zn15 2.024 . S
O23 C17 1.249 . S
H24 C6 0.948 . S
O25 Zn15 2.039 . S
O25 C29 1.251 . S
O26 Zn7 2.025 . S
O26 C29 1.254 . S
O27 C8 1.246 . S
O27 Zn15 2.034 . S
O28 Zn7 2.024 . S
O28 C8 1.249 . S
C29 O25 1.251 . S
C29 O26 1.254 . S
H30 C3 0.949 . S
H31 C5 0.950 . S
H32 C12 0.949 . S
H33 C14 0.950 . S
C34 O50 1.251 . S
C34 O52 1.254 . S
N35 C36 1.333 . S
N35 C40 1.307 . S
N35 Zn41 2.020 . S
C36 N35 1.333 . S
C36 C37 1.379 . S
C36 H54 0.952 . S
C37 C36 1.379 . S
C37 C38 1.390 . S
C37 H64 0.949 . S
C38 C37 1.390 . S
C38 C39 1.357 . S
C39 C38 1.357 . S
C39 C40 1.370 . S
C39 H65 0.950 . S
C40 N35 1.307 . S
C40 C39 1.370 . S
C40 H58 0.948 . S
Zn41 N35 2.020 . S
Zn41 O50 2.039 . S
Zn41 O56 2.034 . S
Zn41 O60 2.025 . S
Zn41 O62 2.024 . S
C42 O61 1.246 . S
C42 O62 1.249 . S
N43 C44 1.307 . S
N43 C45 1.333 . S
N43 Zn49 2.020 . S
C44 N43 1.307 . S
C44 C48 1.370 . S
C44 H55 0.948 . S
C45 N43 1.333 . S
C45 C46 1.379 . S
C45 H53 0.952 . S
C46 C45 1.379 . S
C46 C47 1.390 . S
C46 H66 0.949 . S
C47 C46 1.390 . S
C47 C48 1.357 . S
C48 C44 1.370 . S
C48 C47 1.357 . S
C48 H67 0.950 . S
Zn49 N43 2.020 . S
Zn49 O52 2.025 . S
Zn49 O57 2.024 . S
Zn49 O59 2.039 . S
Zn49 O61 2.034 . S
O50 C34 1.251 . S
O50 Zn41 2.039 . S
C51 O56 1.246 . S
C51 O57 1.249 . S
O52 C34 1.254 . S
O52 Zn49 2.025 . S
H53 C45 0.952 . S
H54 C36 0.952 . S
H55 C44 0.948 . S
O56 Zn41 2.034 . S
O56 C51 1.246 . S
O57 Zn49 2.024 . S
O57 C51 1.249 . S
H58 C40 0.948 . S
O59 Zn49 2.039 . S
O59 C63 1.251 . S
O60 Zn41 2.025 . S
O60 C63 1.254 . S
O61 C42 1.246 . S
O61 Zn49 2.034 . S
O62 Zn41 2.024 . S
O62 C42 1.249 . S
C63 O59 1.251 . S
C63 O60 1.254 . S
H64 C37 0.949 . S
H65 C39 0.950 . S
H66 C46 0.949 . S
H67 C48 0.950 . S
C68 O84 1.251 . S
C68 O86 1.254 . S
N69 C70 1.333 . S
N69 C74 1.307 . S
N69 Zn75 2.020 . S
C70 N69 1.333 . S
C70 C71 1.379 . S
C70 H88 0.952 . S
C71 C70 1.379 . S
C71 C72 1.390 . S
C71 H98 0.949 . S
C72 C71 1.390 . S
C72 C73 1.357 . S
C73 C72 1.357 . S
C73 C74 1.370 . S
C73 H99 0.950 . S
C74 N69 1.307 . S
C74 C73 1.370 . S
C74 H92 0.948 . S
Zn75 N69 2.020 . S
Zn75 O84 2.039 . S
Zn75 O90 2.034 . S
Zn75 O94 2.025 . S
Zn75 O96 2.024 . S
C76 O95 1.246 . S
C76 O96 1.249 . S
N77 C78 1.307 . S
N77 C79 1.333 . S
N77 Zn83 2.020 . S
C78 N77 1.307 . S
C78 C82 1.370 . S
C78 H89 0.948 . S
C79 N77 1.333 . S
C79 C80 1.379 . S
C79 H87 0.952 . S
C80 C79 1.379 . S
C80 C81 1.390 . S
C80 H100 0.949 . S
C81 C80 1.390 . S
C81 C82 1.357 . S
C82 C78 1.370 . S
C82 C81 1.357 . S
C82 H101 0.950 . S
Zn83 N77 2.020 . S
Zn83 O86 2.025 . S
Zn83 O91 2.024 . S
Zn83 O93 2.039 . S
Zn83 O95 2.034 . S
O84 C68 1.251 . S
O84 Zn75 2.039 . S
C85 O90 1.246 . S
C85 O91 1.249 . S
O86 C68 1.254 . S
O86 Zn83 2.025 . S
H87 C79 0.952 . S
H88 C70 0.952 . S
H89 C78 0.948 . S
O90 Zn75 2.034 . S
O90 C85 1.246 . S
O91 Zn83 2.024 . S
O91 C85 1.249 . S
H92 C74 0.948 . S
O93 Zn83 2.039 . S
O93 C97 1.251 . S
O94 Zn75 2.025 . S
O94 C97 1.254 . S
O95 C76 1.246 . S
O95 Zn83 2.034 . S
O96 Zn75 2.024 . S
O96 C76 1.249 . S
C97 O93 1.251 . S
C97 O94 1.254 . S
H98 C71 0.949 . S
H99 C73 0.950 . S
H100 C80 0.949 . S
H101 C82 0.950 . S
C102 O118 1.251 . S
C102 O120 1.254 . S
N103 C104 1.333 . S
N103 C108 1.307 . S
N103 Zn109 2.020 . S
C104 N103 1.333 . S
C104 C105 1.379 . S
C104 H122 0.952 . S
C105 C104 1.379 . S
C105 C106 1.390 . S
C105 H132 0.949 . S
C106 C105 1.390 . S
C106 C107 1.357 . S
C107 C106 1.357 . S
C107 C108 1.370 . S
C107 H133 0.950 . S
C108 N103 1.307 . S
C108 C107 1.370 . S
C108 H126 0.948 . S
Zn109 N103 2.020 . S
Zn109 O118 2.039 . S
Zn109 O124 2.034 . S
Zn109 O128 2.025 . S
Zn109 O130 2.024 . S
C110 O129 1.246 . S
C110 O130 1.249 . S
N111 C112 1.307 . S
N111 C113 1.333 . S
N111 Zn117 2.020 . S
C112 N111 1.307 . S
C112 C116 1.370 . S
C112 H123 0.948 . S
C113 N111 1.333 . S
C113 C114 1.379 . S
C113 H121 0.952 . S
C114 C113 1.379 . S
C114 C115 1.390 . S
C114 H134 0.949 . S
C115 C114 1.390 . S
C115 C116 1.357 . S
C116 C112 1.370 . S
C116 C115 1.357 . S
C116 H135 0.950 . S
Zn117 N111 2.020 . S
Zn117 O120 2.025 . S
Zn117 O125 2.024 . S
Zn117 O127 2.039 . S
Zn117 O129 2.034 . S
O118 C102 1.251 . S
O118 Zn109 2.039 . S
C119 O124 1.246 . S
C119 O125 1.249 . S
O120 C102 1.254 . S
O120 Zn117 2.025 . S
H121 C113 0.952 . S
H122 C104 0.952 . S
H123 C112 0.948 . S
O124 Zn109 2.034 . S
O124 C119 1.246 . S
O125 Zn117 2.024 . S
O125 C119 1.249 . S
H126 C108 0.948 . S
O127 Zn117 2.039 . S
O127 C131 1.251 . S
O128 Zn109 2.025 . S
O128 C131 1.254 . S
O129 C110 1.246 . S
O129 Zn117 2.034 . S
O130 Zn109 2.024 . S
O130 C110 1.249 . S
C131 O127 1.251 . S
C131 O128 1.254 . S
H132 C105 0.949 . S
H133 C107 0.950 . S
H134 C114 0.949 . S
H135 C116 0.950 . S
C136 O152 1.251 . S
C136 O154 1.254 . S
N137 C138 1.333 . S
N137 C142 1.307 . S
N137 Zn143 2.020 . S
C138 N137 1.333 . S
C138 C139 1.379 . S
C138 H156 0.952 . S
C139 C138 1.379 . S
C139 C140 1.390 . S
C139 H166 0.949 . S
C140 C139 1.390 . S
C140 C141 1.357 . S
C141 C140 1.357 . S
C141 C142 1.370 . S
C141 H167 0.950 . S
C142 N137 1.307 . S
C142 C141 1.370 . S
C142 H160 0.948 . S
Zn143 N137 2.020 . S
Zn143 O152 2.039 . S
Zn143 O158 2.034 1_554 S
Zn143 O162 2.025 . S
Zn143 O164 2.024 . S
C144 O163 1.246 . S
C144 O164 1.249 . S
N145 C146 1.307 . S
N145 C147 1.333 . S
N145 Zn151 2.020 . S
C146 N145 1.307 . S
C146 C150 1.370 . S
C146 H157 0.948 . S
C147 N145 1.333 . S
C147 C148 1.379 . S
C147 H155 0.952 . S
C148 C147 1.379 . S
C148 C149 1.390 . S
C148 H168 0.949 . S
C149 C148 1.390 . S
C149 C150 1.357 . S
C150 C146 1.370 . S
C150 C149 1.357 . S
C150 H169 0.950 . S
Zn151 N145 2.020 . S
Zn151 O154 2.025 . S
Zn151 O159 2.024 1_554 S
Zn151 O161 2.039 . S
Zn151 O163 2.034 . S
O152 C136 1.251 . S
O152 Zn143 2.039 . S
C153 O158 1.246 . S
C153 O159 1.249 . S
O154 C136 1.254 . S
O154 Zn151 2.025 . S
H155 C147 0.952 . S
H156 C138 0.952 . S
H157 C146 0.948 . S
O158 Zn143 2.034 1_556 S
O158 C153 1.246 . S
O159 Zn151 2.024 1_556 S
O159 C153 1.249 . S
H160 C142 0.948 . S
O161 Zn151 2.039 . S
O161 C165 1.251 . S
O162 Zn143 2.025 . S
O162 C165 1.254 . S
O163 C144 1.246 . S
O163 Zn151 2.034 . S
O164 Zn143 2.024 . S
O164 C144 1.249 . S
C165 O161 1.251 . S
C165 O162 1.254 . S
H166 C139 0.949 . S
H167 C141 0.950 . S
H168 C148 0.949 . S
H169 C150 0.950 . S
C170 O186 1.251 . S
C170 O188 1.254 . S
N171 C172 1.333 . S
N171 C176 1.307 . S
N171 Zn177 2.020 . S
C172 N171 1.333 . S
C172 C173 1.379 . S
C172 H190 0.952 . S
C173 C172 1.379 . S
C173 C174 1.390 . S
C173 H200 0.949 . S
C174 C173 1.390 . S
C174 C175 1.357 . S
C175 C174 1.357 . S
C175 C176 1.370 . S
C175 H201 0.950 . S
C176 N171 1.307 . S
C176 C175 1.370 . S
C176 H194 0.948 . S
Zn177 N171 2.020 . S
Zn177 O186 2.039 . S
Zn177 O192 2.034 . S
Zn177 O196 2.025 . S
Zn177 O198 2.024 1_554 S
C178 O197 1.246 . S
C178 O198 1.249 . S
N179 C180 1.307 . S
N179 C181 1.333 . S
N179 Zn185 2.020 . S
C180 N179 1.307 . S
C180 C184 1.370 . S
C180 H191 0.948 . S
C181 N179 1.333 . S
C181 C182 1.379 . S
C181 H189 0.952 . S
C182 C181 1.379 . S
C182 C183 1.390 . S
C182 H202 0.949 . S
C183 C182 1.390 . S
C183 C184 1.357 . S
C184 C180 1.370 . S
C184 C183 1.357 . S
C184 H203 0.950 . S
Zn185 N179 2.020 . S
Zn185 O188 2.025 . S
Zn185 O193 2.024 . S
Zn185 O195 2.039 . S
Zn185 O197 2.034 1_554 S
O186 C170 1.251 . S
O186 Zn177 2.039 . S
C187 O192 1.246 . S
C187 O193 1.249 . S
O188 C170 1.254 . S
O188 Zn185 2.025 . S
H189 C181 0.952 . S
H190 C172 0.952 . S
H191 C180 0.948 . S
O192 Zn177 2.034 . S
O192 C187 1.246 . S
O193 Zn185 2.024 . S
O193 C187 1.249 . S
H194 C176 0.948 . S
O195 Zn185 2.039 . S
O195 C199 1.251 . S
O196 Zn177 2.025 . S
O196 C199 1.254 . S
O197 C178 1.246 . S
O197 Zn185 2.034 1_556 S
O198 Zn177 2.024 1_556 S
O198 C178 1.249 . S
C199 O195 1.251 . S
C199 O196 1.254 . S
H200 C173 0.949 . S
H201 C175 0.950 . S
H202 C182 0.949 . S
H203 C184 0.950 . S
C204 O220 1.251 . S
C204 O222 1.254 . S
N205 C206 1.333 . S
N205 C210 1.307 . S
N205 Zn211 2.020 . S
C206 N205 1.333 . S
C206 C207 1.379 . S
C206 H224 0.952 . S
C207 C206 1.379 . S
C207 C208 1.390 . S
C207 H234 0.949 . S
C208 C207 1.390 . S
C208 C209 1.357 . S
C209 C208 1.357 . S
C209 C210 1.370 . S
C209 H235 0.950 . S
C210 N205 1.307 . S
C210 C209 1.370 . S
C210 H228 0.948 . S
Zn211 N205 2.020 . S
Zn211 O220 2.039 . S
Zn211 O226 2.034 . S
Zn211 O230 2.025 . S
Zn211 O232 2.024 1_556 S
C212 O231 1.246 . S
C212 O232 1.249 . S
N213 C214 1.307 . S
N213 C215 1.333 . S
N213 Zn219 2.020 . S
C214 N213 1.307 . S
C214 C218 1.370 . S
C214 H225 0.948 . S
C215 N213 1.333 . S
C215 C216 1.379 . S
C215 H223 0.952 . S
C216 C215 1.379 . S
C216 C217 1.390 . S
C216 H236 0.949 . S
C217 C216 1.390 . S
C217 C218 1.357 . S
C218 C214 1.370 . S
C218 C217 1.357 . S
C218 H237 0.950 . S
Zn219 N213 2.020 . S
Zn219 O222 2.025 . S
Zn219 O227 2.024 . S
Zn219 O229 2.039 . S
Zn219 O231 2.034 1_556 S
O220 C204 1.251 . S
O220 Zn211 2.039 . S
C221 O226 1.246 . S
C221 O227 1.249 . S
O222 C204 1.254 . S
O222 Zn219 2.025 . S
H223 C215 0.952 . S
H224 C206 0.952 . S
H225 C214 0.948 . S
O226 Zn211 2.034 . S
O226 C221 1.246 . S
O227 Zn219 2.024 . S
O227 C221 1.249 . S
H228 C210 0.948 . S
O229 Zn219 2.039 . S
O229 C233 1.251 . S
O230 Zn211 2.025 . S
O230 C233 1.254 . S
O231 C212 1.246 . S
O231 Zn219 2.034 1_554 S
O232 Zn211 2.024 1_554 S
O232 C212 1.249 . S
C233 O229 1.251 . S
C233 O230 1.254 . S
H234 C207 0.949 . S
H235 C209 0.950 . S
H236 C216 0.949 . S
H237 C218 0.950 . S
C238 O254 1.251 . S
C238 O256 1.254 . S
N239 C240 1.333 . S
N239 C244 1.307 . S
N239 Zn245 2.020 . S
C240 N239 1.333 . S
C240 C241 1.379 . S
C240 H258 0.952 . S
C241 C240 1.379 . S
C241 C242 1.390 . S
C241 H268 0.949 . S
C242 C241 1.390 . S
C242 C243 1.357 . S
C243 C242 1.357 . S
C243 C244 1.370 . S
C243 H269 0.950 . S
C244 N239 1.307 . S
C244 C243 1.370 . S
C244 H262 0.948 . S
Zn245 N239 2.020 . S
Zn245 O254 2.039 . S
Zn245 O260 2.034 . S
Zn245 O264 2.025 . S
Zn245 O266 2.024 1_556 S
C246 O265 1.246 . S
C246 O266 1.249 . S
N247 C248 1.307 . S
N247 C249 1.333 . S
N247 Zn253 2.020 . S
C248 N247 1.307 . S
C248 C252 1.370 . S
C248 H259 0.948 . S
C249 N247 1.333 . S
C249 C250 1.379 . S
C249 H257 0.952 . S
C250 C249 1.379 . S
C250 C251 1.390 . S
C250 H270 0.949 . S
C251 C250 1.390 . S
C251 C252 1.357 . S
C252 C248 1.370 . S
C252 C251 1.357 . S
C252 H271 0.950 . S
Zn253 N247 2.020 . S
Zn253 O256 2.025 . S
Zn253 O261 2.024 . S
Zn253 O263 2.039 . S
Zn253 O265 2.034 1_556 S
O254 C238 1.251 . S
O254 Zn245 2.039 . S
C255 O260 1.246 . S
C255 O261 1.249 . S
O256 C238 1.254 . S
O256 Zn253 2.025 . S
H257 C249 0.952 . S
H258 C240 0.952 . S
H259 C248 0.948 . S
O260 Zn245 2.034 . S
O260 C255 1.246 . S
O261 Zn253 2.024 . S
O261 C255 1.249 . S
H262 C244 0.948 . S
O263 Zn253 2.039 . S
O263 C267 1.251 . S
O264 Zn245 2.025 . S
O264 C267 1.254 . S
O265 C246 1.246 . S
O265 Zn253 2.034 1_554 S
O266 Zn245 2.024 1_554 S
O266 C246 1.249 . S
C267 O263 1.251 . S
C267 O264 1.254 . S
H268 C241 0.949 . S
H269 C243 0.950 . S
H270 C250 0.949 . S
H271 C252 0.950 . S
C272 C273 1.349 . S
C272 C274 1.327 . S
C272 H297 0.950 . S
C273 C272 1.349 . S
C273 C289 1.349 . S
C274 C272 1.327 . S
C274 C293 1.429 . S
C274 H298 0.950 . S
C275 C292 1.574 . S
C275 C294 1.368 . S
C275 H299 0.949 . S
H276 C280 0.949 . S
C277 C278 1.349 . S
C277 C279 1.327 . S
C277 H300 0.950 . S
C278 C277 1.349 . S
C278 C290 1.349 . S
C279 C277 1.327 . S
C279 C295 1.429 . S
C279 H301 0.950 . S
C280 H276 0.949 . S
C280 C288 1.574 . S
C280 C296 1.368 . S
H281 C289 0.950 . S
H282 C287 0.950 . S
H283 C288 0.949 . S
H284 C290 0.950 . S
H285 C291 0.950 . S
H286 C292 0.949 . S
C287 H282 0.950 . S
C287 C289 1.327 . S
C287 C293 1.429 . S
C288 C280 1.574 . S
C288 H283 0.949 . S
C288 C294 1.368 . S
C289 C273 1.349 . S
C289 H281 0.950 . S
C289 C287 1.327 . S
C290 C278 1.349 . S
C290 H284 0.950 . S
C290 C291 1.327 . S
C291 H285 0.950 . S
C291 C290 1.327 . S
C291 C295 1.429 . S
C292 C275 1.574 . S
C292 H286 0.949 . S
C292 C296 1.368 . S
C293 C274 1.429 . S
C293 C287 1.429 . S
C293 C294 1.523 . S
C294 C275 1.368 . S
C294 C288 1.368 . S
C294 C293 1.523 . S
C295 C279 1.429 . S
C295 C291 1.429 . S
C295 C296 1.523 . S
C296 C280 1.368 . S
C296 C292 1.368 . S
C296 C295 1.523 . S
H297 C272 0.950 . S
H298 C274 0.950 . S
H299 C275 0.949 . S
H300 C277 0.950 . S
H301 C279 0.950 . S
C302 C303 1.349 . S
C302 C304 1.327 . S
C302 H327 0.950 . S
C303 C302 1.349 . S
C303 C319 1.349 . S
C304 C302 1.327 . S
C304 C323 1.429 . S
C304 H328 0.950 . S
C305 C322 1.574 . S
C305 C324 1.368 . S
C305 H329 0.949 . S
H306 C310 0.949 . S
C307 C308 1.349 . S
C307 C309 1.327 . S
C307 H330 0.950 . S
C308 C307 1.349 . S
C308 C320 1.349 . S
C309 C307 1.327 . S
C309 C325 1.429 . S
C309 H331 0.950 . S
C310 H306 0.949 . S
C310 C318 1.574 . S
C310 C326 1.368 . S
H311 C319 0.950 . S
H312 C317 0.950 . S
H313 C318 0.949 . S
H314 C320 0.950 . S
H315 C321 0.950 . S
H316 C322 0.949 . S
C317 H312 0.950 . S
C317 C319 1.327 . S
C317 C323 1.429 . S
C318 C310 1.574 . S
C318 H313 0.949 . S
C318 C324 1.368 . S
C319 C303 1.349 . S
C319 H311 0.950 . S
C319 C317 1.327 . S
C320 C308 1.349 . S
C320 H314 0.950 . S
C320 C321 1.327 . S
C321 H315 0.950 . S
C321 C320 1.327 . S
C321 C325 1.429 . S
C322 C305 1.574 . S
C322 H316 0.949 . S
C322 C326 1.368 . S
C323 C304 1.429 . S
C323 C317 1.429 . S
C323 C324 1.523 . S
C324 C305 1.368 . S
C324 C318 1.368 . S
C324 C323 1.523 . S
C325 C309 1.429 . S
C325 C321 1.429 . S
C325 C326 1.523 . S
C326 C310 1.368 . S
C326 C322 1.368 . S
C326 C325 1.523 . S
H327 C302 0.950 . S
H328 C304 0.950 . S
H329 C305 0.949 . S
H330 C307 0.950 . S
H331 C309 0.950 . S
C332 C333 1.349 . S
C332 C334 1.327 . S
C332 H357 0.950 . S
C333 C332 1.349 . S
C333 C349 1.349 . S
C334 C332 1.327 . S
C334 C353 1.429 . S
C334 H358 0.950 . S
C335 C352 1.574 . S
C335 C354 1.368 . S
C335 H359 0.949 . S
H336 C340 0.949 . S
C337 C338 1.349 . S
C337 C339 1.327 . S
C337 H360 0.950 . S
C338 C337 1.349 . S
C338 C350 1.349 . S
C339 C337 1.327 . S
C339 C355 1.429 . S
C339 H361 0.950 . S
C340 H336 0.949 . S
C340 C348 1.574 . S
C340 C356 1.368 . S
H341 C349 0.950 . S
H342 C347 0.950 . S
H343 C348 0.949 . S
H344 C350 0.950 . S
H345 C351 0.950 . S
H346 C352 0.949 . S
C347 H342 0.950 . S
C347 C349 1.327 . S
C347 C353 1.429 . S
C348 C340 1.574 . S
C348 H343 0.949 . S
C348 C354 1.368 . S
C349 C333 1.349 . S
C349 H341 0.950 . S
C349 C347 1.327 . S
C350 C338 1.349 . S
C350 H344 0.950 . S
C350 C351 1.327 . S
C351 H345 0.950 . S
C351 C350 1.327 . S
C351 C355 1.429 . S
C352 C335 1.574 . S
C352 H346 0.949 . S
C352 C356 1.368 . S
C353 C334 1.429 . S
C353 C347 1.429 . S
C353 C354 1.523 . S
C354 C335 1.368 . S
C354 C348 1.368 . S
C354 C353 1.523 . S
C355 C339 1.429 . S
C355 C351 1.429 . S
C355 C356 1.523 . S
C356 C340 1.368 . S
C356 C352 1.368 . S
C356 C355 1.523 . S
H357 C332 0.950 . S
H358 C334 0.950 . S
H359 C335 0.949 . S
H360 C337 0.950 . S
H361 C339 0.950 . S
C362 C363 1.349 . S
C362 C364 1.327 . S
C362 H387 0.950 . S
C363 C362 1.349 . S
C363 C379 1.349 . S
C364 C362 1.327 . S
C364 C383 1.429 . S
C364 H388 0.950 . S
C365 C382 1.574 . S
C365 C384 1.368 . S
C365 H389 0.949 . S
H366 C370 0.949 . S
C367 C368 1.349 . S
C367 C369 1.327 . S
C367 H390 0.950 . S
C368 C367 1.349 . S
C368 C380 1.349 . S
C369 C367 1.327 . S
C369 C385 1.429 . S
C369 H391 0.950 . S
C370 H366 0.949 . S
C370 C378 1.574 . S
C370 C386 1.368 . S
H371 C379 0.950 . S
H372 C377 0.950 . S
H373 C378 0.949 . S
H374 C380 0.950 . S
H375 C381 0.950 . S
H376 C382 0.949 . S
C377 H372 0.950 . S
C377 C379 1.327 . S
C377 C383 1.429 . S
C378 C370 1.574 . S
C378 H373 0.949 . S
C378 C384 1.368 . S
C379 C363 1.349 . S
C379 H371 0.950 . S
C379 C377 1.327 . S
C380 C368 1.349 . S
C380 H374 0.950 . S
C380 C381 1.327 . S
C381 H375 0.950 . S
C381 C380 1.327 . S
C381 C385 1.429 . S
C382 C365 1.574 . S
C382 H376 0.949 . S
C382 C386 1.368 . S
C383 C364 1.429 . S
C383 C377 1.429 . S
C383 C384 1.523 . S
C384 C365 1.368 . S
C384 C378 1.368 . S
C384 C383 1.523 . S
C385 C369 1.429 . S
C385 C381 1.429 . S
C385 C386 1.523 . S
C386 C370 1.368 . S
C386 C382 1.368 . S
C386 C385 1.523 . S
H387 C362 0.950 . S
H388 C364 0.950 . S
H389 C365 0.949 . S
H390 C367 0.950 . S
H391 C369 0.950 . S
C392 C393 1.349 . S
C392 C394 1.327 . S
C392 H417 0.950 . S
C393 C392 1.349 . S
C393 C409 1.349 . S
C394 C392 1.327 . S
C394 C413 1.429 . S
C394 H418 0.950 . S
C395 C412 1.574 1_565 S
C395 C414 1.368 . S
C395 H419 0.949 . S
H396 C400 0.949 . S
C397 C398 1.349 . S
C397 C399 1.327 . S
C397 H420 0.950 . S
C398 C397 1.349 . S
C398 C410 1.349 . S
C399 C397 1.327 . S
C399 C415 1.429 . S
C399 H421 0.950 . S
C400 H396 0.949 . S
C400 C408 1.574 1_545 S
C400 C416 1.368 . S
H401 C409 0.950 . S
H402 C407 0.950 . S
H403 C408 0.949 . S
H404 C410 0.950 . S
H405 C411 0.950 . S
H406 C412 0.949 . S
C407 H402 0.950 . S
C407 C409 1.327 . S
C407 C413 1.429 . S
C408 C400 1.574 1_565 S
C408 H403 0.949 . S
C408 C414 1.368 . S
C409 C393 1.349 . S
C409 H401 0.950 . S
C409 C407 1.327 . S
C410 C398 1.349 . S
C410 H404 0.950 . S
C410 C411 1.327 . S
C411 H405 0.950 . S
C411 C410 1.327 . S
C411 C415 1.429 . S
C412 C395 1.574 1_545 S
C412 H406 0.949 . S
C412 C416 1.368 . S
C413 C394 1.429 . S
C413 C407 1.429 . S
C413 C414 1.523 . S
C414 C395 1.368 . S
C414 C408 1.368 . S
C414 C413 1.523 . S
C415 C399 1.429 . S
C415 C411 1.429 . S
C415 C416 1.523 . S
C416 C400 1.368 . S
C416 C412 1.368 . S
C416 C415 1.523 . S
H417 C392 0.950 . S
H418 C394 0.950 . S
H419 C395 0.949 . S
H420 C397 0.950 . S
H421 C399 0.950 . S
C422 C423 1.349 . S
C422 C424 1.327 . S
C422 H447 0.950 . S
C423 C422 1.349 . S
C423 C439 1.349 . S
C424 C422 1.327 . S
C424 C443 1.429 . S
C424 H448 0.950 . S
C425 C442 1.574 . S
C425 C444 1.368 . S
C425 H449 0.949 . S
H426 C430 0.949 . S
C427 C428 1.349 . S
C427 C429 1.327 . S
C427 H450 0.950 . S
C428 C427 1.349 . S
C428 C440 1.349 . S
C429 C427 1.327 . S
C429 C445 1.429 . S
C429 H451 0.950 . S
C430 H426 0.949 . S
C430 C438 1.574 . S
C430 C446 1.368 . S
H431 C439 0.950 . S
H432 C437 0.950 . S
H433 C438 0.949 . S
H434 C440 0.950 . S
H435 C441 0.950 . S
H436 C442 0.949 . S
C437 H432 0.950 . S
C437 C439 1.327 . S
C437 C443 1.429 . S
C438 C430 1.574 . S
C438 H433 0.949 . S
C438 C444 1.368 . S
C439 C423 1.349 . S
C439 H431 0.950 . S
C439 C437 1.327 . S
C440 C428 1.349 . S
C440 H434 0.950 . S
C440 C441 1.327 . S
C441 H435 0.950 . S
C441 C440 1.327 . S
C441 C445 1.429 . S
C442 C425 1.574 . S
C442 H436 0.949 . S
C442 C446 1.368 . S
C443 C424 1.429 . S
C443 C437 1.429 . S
C443 C444 1.523 . S
C444 C425 1.368 . S
C444 C438 1.368 . S
C444 C443 1.523 . S
C445 C429 1.429 . S
C445 C441 1.429 . S
C445 C446 1.523 . S
C446 C430 1.368 . S
C446 C442 1.368 . S
C446 C445 1.523 . S
H447 C422 0.950 . S
H448 C424 0.950 . S
H449 C425 0.949 . S
H450 C427 0.950 . S
H451 C429 0.950 . S
C452 C453 1.349 . S
C452 C454 1.327 . S
C452 H477 0.950 . S
C453 C452 1.349 . S
C453 C469 1.349 . S
C454 C452 1.327 . S
C454 C473 1.429 . S
C454 H478 0.950 . S
C455 C472 1.574 1_565 S
C455 C474 1.368 . S
C455 H479 0.949 . S
H456 C460 0.949 . S
C457 C458 1.349 . S
C457 C459 1.327 . S
C457 H480 0.950 . S
C458 C457 1.349 . S
C458 C470 1.349 . S
C459 C457 1.327 . S
C459 C475 1.429 . S
C459 H481 0.950 . S
C460 H456 0.949 . S
C460 C468 1.574 1_545 S
C460 C476 1.368 . S
H461 C469 0.950 . S
H462 C467 0.950 . S
H463 C468 0.949 . S
H464 C470 0.950 . S
H465 C471 0.950 . S
H466 C472 0.949 . S
C467 H462 0.950 . S
C467 C469 1.327 . S
C467 C473 1.429 . S
C468 C460 1.574 1_565 S
C468 H463 0.949 . S
C468 C474 1.368 . S
C469 C453 1.349 . S
C469 H461 0.950 . S
C469 C467 1.327 . S
C470 C458 1.349 . S
C470 H464 0.950 . S
C470 C471 1.327 . S
C471 H465 0.950 . S
C471 C470 1.327 . S
C471 C475 1.429 . S
C472 C455 1.574 1_545 S
C472 H466 0.949 . S
C472 C476 1.368 . S
C473 C454 1.429 . S
C473 C467 1.429 . S
C473 C474 1.523 . S
C474 C455 1.368 . S
C474 C468 1.368 . S
C474 C473 1.523 . S
C475 C459 1.429 . S
C475 C471 1.429 . S
C475 C476 1.523 . S
C476 C460 1.368 . S
C476 C472 1.368 . S
C476 C475 1.523 . S
H477 C452 0.950 . S
H478 C454 0.950 . S
H479 C455 0.949 . S
H480 C457 0.950 . S
H481 C459 0.950 . S
C482 C483 1.349 . S
C482 C484 1.327 . S
C482 H507 0.950 . S
C483 C482 1.349 . S
C483 C499 1.349 . S
C484 C482 1.327 . S
C484 C503 1.429 . S
C484 H508 0.950 . S
C485 C502 1.574 . S
C485 C504 1.368 . S
C485 H509 0.949 . S
H486 C490 0.949 . S
C487 C488 1.349 . S
C487 C489 1.327 . S
C487 H510 0.950 . S
C488 C487 1.349 . S
C488 C500 1.349 . S
C489 C487 1.327 . S
C489 C505 1.429 . S
C489 H511 0.950 . S
C490 H486 0.949 . S
C490 C498 1.574 . S
C490 C506 1.368 . S
H491 C499 0.950 . S
H492 C497 0.950 . S
H493 C498 0.949 . S
H494 C500 0.950 . S
H495 C501 0.950 . S
H496 C502 0.949 . S
C497 H492 0.950 . S
C497 C499 1.327 . S
C497 C503 1.429 . S
C498 C490 1.574 . S
C498 H493 0.949 . S
C498 C504 1.368 . S
C499 C483 1.349 . S
C499 H491 0.950 . S
C499 C497 1.327 . S
C500 C488 1.349 . S
C500 H494 0.950 . S
C500 C501 1.327 . S
C501 H495 0.950 . S
C501 C500 1.327 . S
C501 C505 1.429 . S
C502 C485 1.574 . S
C502 H496 0.949 . S
C502 C506 1.368 . S
C503 C484 1.429 . S
C503 C497 1.429 . S
C503 C504 1.523 . S
C504 C485 1.368 . S
C504 C498 1.368 . S
C504 C503 1.523 . S
C505 C489 1.429 . S
C505 C501 1.429 . S
C505 C506 1.523 . S
C506 C490 1.368 . S
C506 C502 1.368 . S
C506 C505 1.523 . S
H507 C482 0.950 . S
H508 C484 0.950 . S
H509 C485 0.949 . S
H510 C487 0.950 . S
H511 C489 0.950 . S
C512 C513 1.349 1_556 S
C512 C514 1.327 . S
C512 H537 0.950 . S
C513 C512 1.349 1_554 S
C513 C529 1.349 . S
C514 C512 1.327 . S
C514 C533 1.429 1_556 S
C514 H538 0.950 . S
C515 C532 1.574 . S
C515 C534 1.368 . S
C515 H539 0.949 . S
H516 C520 0.949 . S
C517 C518 1.349 . S
C517 C519 1.327 1_556 S
C517 H540 0.950 1_556 S
C518 C517 1.349 . S
C518 C530 1.349 . S
C519 C517 1.327 1_554 S
C519 C535 1.429 1_554 S
C519 H541 0.950 . S
C520 H516 0.949 . S
C520 C528 1.574 . S
C520 C536 1.368 . S
H521 C529 0.950 . S
H522 C527 0.950 . S
H523 C528 0.949 . S
H524 C530 0.950 . S
H525 C531 0.950 . S
H526 C532 0.949 . S
C527 H522 0.950 . S
C527 C529 1.327 . S
C527 C533 1.429 . S
C528 C520 1.574 . S
C528 H523 0.949 . S
C528 C534 1.368 1_556 S
C529 C513 1.349 . S
C529 H521 0.950 . S
C529 C527 1.327 . S
C530 C518 1.349 . S
C530 H524 0.950 . S
C530 C531 1.327 . S
C531 H525 0.950 . S
C531 C530 1.327 . S
C531 C535 1.429 . S
C532 C515 1.574 . S
C532 H526 0.949 . S
C532 C536 1.368 1_554 S
C533 C514 1.429 1_554 S
C533 C527 1.429 . S
C533 C534 1.523 . S
C534 C515 1.368 . S
C534 C528 1.368 1_554 S
C534 C533 1.523 . S
C535 C519 1.429 1_556 S
C535 C531 1.429 . S
C535 C536 1.523 . S
C536 C520 1.368 . S
C536 C532 1.368 1_556 S
C536 C535 1.523 . S
H537 C512 0.950 . S
H538 C514 0.950 . S
H539 C515 0.949 . S
H540 C517 0.950 1_554 S
H541 C519 0.950 . S
C542 C543 1.349 . S
C542 C544 1.327 . S
C542 H567 0.950 . S
C543 C542 1.349 . S
C543 C559 1.349 . S
C544 C542 1.327 . S
C544 C563 1.429 . S
C544 H568 0.950 . S
C545 C562 1.574 1_565 S
C545 C564 1.368 1_556 S
C545 H569 0.949 . S
H546 C550 0.949 . S
C547 C548 1.349 . S
C547 C549 1.327 . S
C547 H570 0.950 . S
C548 C547 1.349 . S
C548 C560 1.349 . S
C549 C547 1.327 . S
C549 C565 1.429 . S
C549 H571 0.950 . S
C550 H546 0.949 . S
C550 C558 1.574 1_545 S
C550 C566 1.368 1_554 S
H551 C559 0.950 1_556 S
H552 C557 0.950 . S
H553 C558 0.949 . S
H554 C560 0.950 1_554 S
H555 C561 0.950 . S
H556 C562 0.949 . S
C557 H552 0.950 . S
C557 C559 1.327 1_556 S
C557 C563 1.429 1_556 S
C558 C550 1.574 1_565 S
C558 H553 0.949 . S
C558 C564 1.368 . S
C559 C543 1.349 . S
C559 H551 0.950 1_554 S
C559 C557 1.327 1_554 S
C560 C548 1.349 . S
C560 H554 0.950 1_556 S
C560 C561 1.327 1_556 S
C561 H555 0.950 . S
C561 C560 1.327 1_554 S
C561 C565 1.429 1_554 S
C562 C545 1.574 1_545 S
C562 H556 0.949 . S
C562 C566 1.368 . S
C563 C544 1.429 . S
C563 C557 1.429 1_554 S
C563 C564 1.523 . S
C564 C545 1.368 1_554 S
C564 C558 1.368 . S
C564 C563 1.523 . S
C565 C549 1.429 . S
C565 C561 1.429 1_556 S
C565 C566 1.523 . S
C566 C550 1.368 1_556 S
C566 C562 1.368 . S
C566 C565 1.523 . S
H567 C542 0.950 . S
H568 C544 0.950 . S
H569 C545 0.949 . S
H570 C547 0.950 . S
H571 C549 0.950 . S
C572 C573 1.349 1_554 S
C572 C574 1.327 . S
C572 H597 0.950 . S
C573 C572 1.349 1_556 S
C573 C589 1.349 . S
C574 C572 1.327 . S
C574 C593 1.429 1_554 S
C574 H598 0.950 . S
C575 C592 1.574 . S
C575 C594 1.368 . S
C575 H599 0.949 . S
H576 C580 0.949 . S
C577 C578 1.349 1_556 S
C577 C579 1.327 . S
C577 H600 0.950 . S
C578 C577 1.349 1_554 S
C578 C590 1.349 . S
C579 C577 1.327 . S
C579 C595 1.429 1_556 S
C579 H601 0.950 . S
C580 H576 0.949 . S
C580 C588 1.574 . S
C580 C596 1.368 . S
H581 C589 0.950 . S
H582 C587 0.950 . S
H583 C588 0.949 . S
H584 C590 0.950 . S
H585 C591 0.950 . S
H586 C592 0.949 . S
C587 H582 0.950 . S
C587 C589 1.327 . S
C587 C593 1.429 . S
C588 C580 1.574 . S
C588 H583 0.949 . S
C588 C594 1.368 1_554 S
C589 C573 1.349 . S
C589 H581 0.950 . S
C589 C587 1.327 . S
C590 C578 1.349 . S
C590 H584 0.950 . S
C590 C591 1.327 . S
C591 H585 0.950 . S
C591 C590 1.327 . S
C591 C595 1.429 . S
C592 C575 1.574 . S
C592 H586 0.949 . S
C592 C596 1.368 1_556 S
C593 C574 1.429 1_556 S
C593 C587 1.429 . S
C593 C594 1.523 . S
C594 C575 1.368 . S
C594 C588 1.368 1_556 S
C594 C593 1.523 . S
C595 C579 1.429 1_554 S
C595 C591 1.429 . S
C595 C596 1.523 . S
C596 C580 1.368 . S
C596 C592 1.368 1_554 S
C596 C595 1.523 . S
H597 C572 0.950 . S
H598 C574 0.950 . S
H599 C575 0.949 . S
H600 C577 0.950 . S
H601 C579 0.950 . S
C602 C603 1.349 . S
C602 C604 1.327 . S
C602 H627 0.950 . S
C603 C602 1.349 . S
C603 C619 1.349 1_556 S
C604 C602 1.327 . S
C604 C623 1.429 . S
C604 H628 0.950 . S
C605 C622 1.574 1_545 S
C605 C624 1.368 1_554 S
C605 H629 0.949 . S
H606 C610 0.949 . S
C607 C608 1.349 . S
C607 C609 1.327 . S
C607 H630 0.950 . S
C608 C607 1.349 . S
C608 C620 1.359 . S
C609 C607 1.327 . S
C609 C625 1.429 . S
C609 H631 0.950 . S
C610 H606 0.949 . S
C610 C618 1.574 1_565 S
C610 C626 1.368 1_556 S
H611 C619 0.950 . S
H612 C617 0.950 . S
H613 C618 0.949 . S
H614 C620 0.942 1_556 S
H615 C621 0.950 . S
H616 C622 0.949 . S
C617 H612 0.950 . S
C617 C619 1.327 . S
C617 C623 1.429 1_554 S
C618 C610 1.574 1_545 S
C618 H613 0.949 . S
C618 C624 1.368 . S
C619 C603 1.349 1_554 S
C619 H611 0.950 . S
C619 C617 1.327 . S
C620 C608 1.359 . S
C620 H614 0.942 1_554 S
C620 C621 1.325 1_554 S
C621 H615 0.950 . S
C621 C620 1.325 1_556 S
C621 C625 1.429 1_556 S
C622 C605 1.574 1_565 S
C622 H616 0.949 . S
C622 C626 1.368 . S
C623 C604 1.429 . S
C623 C617 1.429 1_556 S
C623 C624 1.523 . S
C624 C605 1.368 1_556 S
C624 C618 1.368 . S
C624 C623 1.523 . S
C625 C609 1.429 . S
C625 C621 1.429 1_554 S
C625 C626 1.523 . S
C626 C610 1.368 1_554 S
C626 C622 1.368 . S
C626 C625 1.523 . S
H627 C602 0.950 . S
H628 C604 0.950 . S
H629 C605 0.949 . S
H630 C607 0.950 . S
H631 C609 0.950 . S
C632 C633 1.349 . S
C632 C634 1.327 . S
C632 H657 0.950 . S
C633 C632 1.349 . S
C633 C649 1.349 . S
C634 C632 1.327 . S
C634 C653 1.429 . S
C634 H658 0.950 . S
C635 C652 1.574 . S
C635 C654 1.368 . S
C635 H659 0.949 . S
H636 C640 0.949 1_556 S
C637 C638 1.349 . S
C637 C639 1.327 . S
C637 H660 0.950 . S
C638 C637 1.349 . S
C638 C650 1.349 . S
C639 C637 1.327 . S
C639 C655 1.429 . S
C639 H661 0.950 . S
C640 H636 0.949 1_554 S
C640 C648 1.574 . S
C640 C656 1.368 1_554 S
H641 C649 0.950 . S
H642 C647 0.950 . S
H643 C648 0.949 . S
H644 C650 0.950 . S
H645 C651 0.950 . S
H646 C652 0.949 1_556 S
C647 H642 0.950 . S
C647 C649 1.327 . S
C647 C653 1.429 . S
C648 C640 1.574 . S
C648 H643 0.949 . S
C648 C654 1.368 . S
C649 C633 1.349 . S
C649 H641 0.950 . S
C649 C647 1.327 . S
C650 C638 1.349 . S
C650 H644 0.950 . S
C650 C651 1.327 . S
C651 H645 0.950 . S
C651 C650 1.327 . S
C651 C655 1.429 . S
C652 C635 1.574 . S
C652 H646 0.949 1_554 S
C652 C656 1.368 1_554 S
C653 C634 1.429 . S
C653 C647 1.429 . S
C653 C654 1.523 . S
C654 C635 1.368 . S
C654 C648 1.368 . S
C654 C653 1.523 . S
C655 C639 1.429 . S
C655 C651 1.429 . S
C655 C656 1.523 . S
C656 C640 1.368 1_556 S
C656 C652 1.368 1_556 S
C656 C655 1.523 . S
H657 C632 0.950 . S
H658 C634 0.950 . S
H659 C635 0.949 . S
H660 C637 0.950 . S
H661 C639 0.950 . S
C662 C663 1.349 . S
C662 C664 1.327 . S
C662 H687 0.950 . S
C663 C662 1.349 . S
C663 C679 1.349 . S
C664 C662 1.327 . S
C664 C683 1.429 . S
C664 H688 0.950 . S
C665 C682 1.574 . S
C665 C684 1.368 . S
C665 H689 0.949 . S
H666 C670 0.949 1_556 S
C667 C668 1.349 . S
C667 C669 1.327 . S
C667 H690 0.950 . S
C668 C667 1.349 . S
C668 C680 1.349 . S
C669 C667 1.327 . S
C669 C685 1.429 . S
C669 H691 0.950 . S
C670 H666 0.949 1_554 S
C670 C678 1.574 . S
C670 C686 1.368 1_554 S
H671 C679 0.950 . S
H672 C677 0.950 . S
H673 C678 0.949 . S
H674 C680 0.950 . S
H675 C681 0.950 . S
H676 C682 0.949 1_556 S
C677 H672 0.950 . S
C677 C679 1.327 . S
C677 C683 1.429 . S
C678 C670 1.574 . S
C678 H673 0.949 . S
C678 C684 1.368 . S
C679 C663 1.349 . S
C679 H671 0.950 . S
C679 C677 1.327 . S
C680 C668 1.349 . S
C680 H674 0.950 . S
C680 C681 1.327 . S
C681 H675 0.950 . S
C681 C680 1.327 . S
C681 C685 1.429 . S
C682 C665 1.574 . S
C682 H676 0.949 1_554 S
C682 C686 1.368 1_554 S
C683 C664 1.429 . S
C683 C677 1.429 . S
C683 C684 1.523 . S
C684 C665 1.368 . S
C684 C678 1.368 . S
C684 C683 1.523 . S
C685 C669 1.429 . S
C685 C681 1.429 . S
C685 C686 1.523 . S
C686 C670 1.368 1_556 S
C686 C682 1.368 1_556 S
C686 C685 1.523 . S
H687 C662 0.950 . S
H688 C664 0.950 . S
H689 C665 0.949 . S
H690 C667 0.950 . S
H691 C669 0.950 . S
C692 C693 1.349 . S
C692 C694 1.327 . S
C692 H717 0.950 . S
C693 C692 1.349 . S
C693 C709 1.349 . S
C694 C692 1.327 . S
C694 C713 1.429 . S
C694 H718 0.950 . S
C695 C712 1.574 . S
C695 C714 1.368 1_556 S
C695 H719 0.949 1_556 S
H696 C700 0.949 . S
C697 C698 1.349 . S
C697 C699 1.327 . S
C697 H720 0.950 . S
C698 C697 1.349 . S
C698 C710 1.349 . S
C699 C697 1.327 . S
C699 C715 1.429 . S
C699 H721 0.950 . S
C700 H696 0.949 . S
C700 C708 1.574 . S
C700 C716 1.368 . S
H701 C709 0.950 . S
H702 C707 0.950 . S
H703 C708 0.949 1_554 S
H704 C710 0.950 . S
H705 C711 0.950 . S
H706 C712 0.949 . S
C707 H702 0.950 . S
C707 C709 1.327 . S
C707 C713 1.429 . S
C708 C700 1.574 . S
C708 H703 0.949 1_556 S
C708 C714 1.368 1_556 S
C709 C693 1.349 . S
C709 H701 0.950 . S
C709 C707 1.327 . S
C710 C698 1.349 . S
C710 H704 0.950 . S
C710 C711 1.327 . S
C711 H705 0.950 . S
C711 C710 1.327 . S
C711 C715 1.429 . S
C712 C695 1.574 . S
C712 H706 0.949 . S
C712 C716 1.368 . S
C713 C694 1.429 . S
C713 C707 1.429 . S
C713 C714 1.523 . S
C714 C695 1.368 1_554 S
C714 C708 1.368 1_554 S
C714 C713 1.523 . S
C715 C699 1.429 . S
C715 C711 1.429 . S
C715 C716 1.523 . S
C716 C700 1.368 . S
C716 C712 1.368 . S
C716 C715 1.523 . S
H717 C692 0.950 . S
H718 C694 0.950 . S
H719 C695 0.949 1_554 S
H720 C697 0.950 . S
H721 C699 0.950 . S
C722 C723 1.349 . S
C722 C724 1.327 . S
C722 H747 0.950 . S
C723 C722 1.349 . S
C723 C739 1.349 . S
C724 C722 1.327 . S
C724 C743 1.429 . S
C724 H748 0.950 . S
C725 C742 1.574 . S
C725 C744 1.368 . S
C725 H749 0.949 . S
H726 C730 0.949 1_554 S
C727 C728 1.349 . S
C727 C729 1.327 . S
C727 H750 0.950 . S
C728 C727 1.349 . S
C728 C740 1.349 . S
C729 C727 1.327 . S
C729 C745 1.429 . S
C729 H751 0.950 . S
C730 H726 0.949 1_556 S
C730 C738 1.574 . S
C730 C746 1.368 1_556 S
H731 C739 0.950 . S
H732 C737 0.950 . S
H733 C738 0.949 . S
H734 C740 0.950 . S
H735 C741 0.950 . S
H736 C742 0.949 1_554 S
C737 H732 0.950 . S
C737 C739 1.327 . S
C737 C743 1.429 . S
C738 C730 1.574 . S
C738 H733 0.949 . S
C738 C744 1.368 . S
C739 C723 1.349 . S
C739 H731 0.950 . S
C739 C737 1.327 . S
C740 C728 1.349 . S
C740 H734 0.950 . S
C740 C741 1.327 . S
C741 H735 0.950 . S
C741 C740 1.327 . S
C741 C745 1.429 . S
C742 C725 1.574 . S
C742 H736 0.949 1_556 S
C742 C746 1.368 1_556 S
C743 C724 1.429 . S
C743 C737 1.429 . S
C743 C744 1.523 . S
C744 C725 1.368 . S
C744 C738 1.368 . S
C744 C743 1.523 . S
C745 C729 1.429 . S
C745 C741 1.429 . S
C745 C746 1.523 . S
C746 C730 1.368 1_554 S
C746 C742 1.368 1_554 S
C746 C745 1.523 . S
H747 C722 0.950 . S
H748 C724 0.950 . S
H749 C725 0.949 . S
H750 C727 0.950 . S
H751 C729 0.950 . S
C752 C753 1.349 . S
C752 C754 1.327 . S
C752 H777 0.950 . S
C753 C752 1.349 . S
C753 C769 1.349 . S
C754 C752 1.327 . S
C754 C773 1.429 . S
C754 H778 0.950 . S
C755 C772 1.574 . S
C755 C774 1.368 . S
C755 H779 0.949 . S
H756 C760 0.949 . S
C757 C758 1.349 . S
C757 C759 1.327 . S
C757 H780 0.950 . S
C758 C757 1.349 . S
C758 C770 1.349 . S
C759 C757 1.327 . S
C759 C775 1.429 . S
C759 H781 0.950 . S
C760 H756 0.949 . S
C760 C768 1.574 . S
C760 C776 1.368 . S
H761 C769 0.950 . S
H762 C767 0.950 . S
H763 C768 0.949 . S
H764 C770 0.950 . S
H765 C771 0.950 . S
H766 C772 0.949 . S
C767 H762 0.950 . S
C767 C769 1.327 . S
C767 C773 1.429 . S
C768 C760 1.574 . S
C768 H763 0.949 . S
C768 C774 1.368 . S
C769 C753 1.349 . S
C769 H761 0.950 . S
C769 C767 1.327 . S
C770 C758 1.349 . S
C770 H764 0.950 . S
C770 C771 1.327 . S
C771 H765 0.950 . S
C771 C770 1.327 . S
C771 C775 1.429 . S
C772 C755 1.574 . S
C772 H766 0.949 . S
C772 C776 1.368 . S
C773 C754 1.429 . S
C773 C767 1.429 . S
C773 C774 1.523 . S
C774 C755 1.368 . S
C774 C768 1.368 . S
C774 C773 1.523 . S
C775 C759 1.429 . S
C775 C771 1.429 . S
C775 C776 1.523 . S
C776 C760 1.368 . S
C776 C772 1.368 . S
C776 C775 1.523 . S
H777 C752 0.950 . S
H778 C754 0.950 . S
H779 C755 0.949 . S
H780 C757 0.950 . S
H781 C759 0.950 . S
C782 C783 1.349 . S
C782 C784 1.327 . S
C782 H807 0.950 . S
C783 C782 1.349 . S
C783 C799 1.349 . S
C784 C782 1.327 . S
C784 C803 1.429 . S
C784 H808 0.950 . S
C785 C802 1.574 . S
C785 C804 1.368 . S
C785 H809 0.949 . S
H786 C790 0.949 . S
C787 C788 1.349 . S
C787 C789 1.327 . S
C787 H810 0.950 . S
C788 C787 1.349 . S
C788 C800 1.349 . S
C789 C787 1.327 . S
C789 C805 1.429 . S
C789 H811 0.950 . S
C790 H786 0.949 . S
C790 C798 1.574 . S
C790 C806 1.368 . S
H791 C799 0.950 . S
H792 C797 0.950 . S
H793 C798 0.949 . S
H794 C800 0.950 . S
H795 C801 0.950 . S
H796 C802 0.949 . S
C797 H792 0.950 . S
C797 C799 1.327 . S
C797 C803 1.429 . S
C798 C790 1.574 . S
C798 H793 0.949 . S
C798 C804 1.368 . S
C799 C783 1.349 . S
C799 H791 0.950 . S
C799 C797 1.327 . S
C800 C788 1.349 . S
C800 H794 0.950 . S
C800 C801 1.327 . S
C801 H795 0.950 . S
C801 C800 1.327 . S
C801 C805 1.429 . S
C802 C785 1.574 . S
C802 H796 0.949 . S
C802 C806 1.368 . S
C803 C784 1.429 . S
C803 C797 1.429 . S
C803 C804 1.523 . S
C804 C785 1.368 . S
C804 C798 1.368 . S
C804 C803 1.523 . S
C805 C789 1.429 . S
C805 C801 1.429 . S
C805 C806 1.523 . S
C806 C790 1.368 . S
C806 C802 1.368 . S
C806 C805 1.523 . S
H807 C782 0.950 . S
H808 C784 0.950 . S
H809 C785 0.949 . S
H810 C787 0.950 . S
H811 C789 0.950 . S
C812 C813 1.349 . S
C812 C814 1.327 . S
C812 H837 0.950 . S
C813 C812 1.349 . S
C813 C829 1.349 . S
C814 C812 1.327 . S
C814 C833 1.429 . S
C814 H838 0.950 . S
C815 C832 1.574 . S
C815 C834 1.368 . S
C815 H839 0.949 . S
H816 C820 0.949 . S
C817 C818 1.349 . S
C817 C819 1.327 . S
C817 H840 0.950 . S
C818 C817 1.349 . S
C818 C830 1.349 . S
C819 C817 1.327 . S
C819 C835 1.429 . S
C819 H841 0.950 . S
C820 H816 0.949 . S
C820 C828 1.574 . S
C820 C836 1.368 . S
H821 C829 0.950 . S
H822 C827 0.950 . S
H823 C828 0.949 . S
H824 C830 0.950 . S
H825 C831 0.950 . S
H826 C832 0.949 . S
C827 H822 0.950 . S
C827 C829 1.327 . S
C827 C833 1.429 . S
C828 C820 1.574 . S
C828 H823 0.949 . S
C828 C834 1.368 . S
C829 C813 1.349 . S
C829 H821 0.950 . S
C829 C827 1.327 . S
C830 C818 1.349 . S
C830 H824 0.950 . S
C830 C831 1.327 . S
C831 H825 0.950 . S
C831 C830 1.327 . S
C831 C835 1.429 . S
C832 C815 1.574 . S
C832 H826 0.949 . S
C832 C836 1.368 . S
C833 C814 1.429 . S
C833 C827 1.429 . S
C833 C834 1.523 . S
C834 C815 1.368 . S
C834 C828 1.368 . S
C834 C833 1.523 . S
C835 C819 1.429 . S
C835 C831 1.429 . S
C835 C836 1.523 . S
C836 C820 1.368 . S
C836 C832 1.368 . S
C836 C835 1.523 . S
H837 C812 0.950 . S
H838 C814 0.950 . S
H839 C815 0.949 . S
H840 C817 0.950 . S
H841 C819 0.950 . S
C842 C843 1.349 . S
C842 C844 1.327 . S
C842 H867 0.950 . S
C843 C842 1.349 . S
C843 C859 1.349 . S
C844 C842 1.327 . S
C844 C863 1.429 . S
C844 H868 0.950 . S
C845 C862 1.574 . S
C845 C864 1.368 . S
C845 H869 0.949 . S
H846 C850 0.949 . S
C847 C848 1.349 . S
C847 C849 1.327 . S
C847 H870 0.950 . S
C848 C847 1.349 . S
C848 C860 1.349 . S
C849 C847 1.327 . S
C849 C865 1.429 . S
C849 H871 0.950 . S
C850 H846 0.949 . S
C850 C858 1.574 . S
C850 C866 1.368 . S
H851 C859 0.950 . S
H852 C857 0.950 . S
H853 C858 0.949 . S
H854 C860 0.950 . S
H855 C861 0.950 . S
H856 C862 0.949 . S
C857 H852 0.950 . S
C857 C859 1.327 . S
C857 C863 1.429 . S
C858 C850 1.574 . S
C858 H853 0.949 . S
C858 C864 1.368 . S
C859 C843 1.349 . S
C859 H851 0.950 . S
C859 C857 1.327 . S
C860 C848 1.349 . S
C860 H854 0.950 . S
C860 C861 1.327 . S
C861 H855 0.950 . S
C861 C860 1.327 . S
C861 C865 1.429 . S
C862 C845 1.574 . S
C862 H856 0.949 . S
C862 C866 1.368 . S
C863 C844 1.429 . S
C863 C857 1.429 . S
C863 C864 1.523 . S
C864 C845 1.368 . S
C864 C858 1.368 . S
C864 C863 1.523 . S
C865 C849 1.429 . S
C865 C861 1.429 . S
C865 C866 1.523 . S
C866 C850 1.368 . S
C866 C862 1.368 . S
C866 C865 1.523 . S
H867 C842 0.950 . S
H868 C844 0.950 . S
H869 C845 0.949 . S
H870 C847 0.950 . S
H871 C849 0.950 . S
C872 C873 1.349 . S
C872 C874 1.327 . S
C872 H897 0.950 . S
C873 C872 1.349 . S
C873 C889 1.349 . S
C874 C872 1.327 . S
C874 C893 1.429 . S
C874 H898 0.950 . S
C875 C892 1.574 1_455 S
C875 C894 1.368 . S
C875 H899 0.949 . S
H876 C880 0.949 . S
C877 C878 1.349 . S
C877 C879 1.327 . S
C877 H900 0.950 . S
C878 C877 1.349 . S
C878 C890 1.349 . S
C879 C877 1.327 . S
C879 C895 1.429 . S
C879 H901 0.950 . S
C880 H876 0.949 . S
C880 C888 1.574 1_655 S
C880 C896 1.368 . S
H881 C889 0.950 . S
H882 C887 0.950 . S
H883 C888 0.949 . S
H884 C890 0.950 . S
H885 C891 0.950 . S
H886 C892 0.949 . S
C887 H882 0.950 . S
C887 C889 1.327 . S
C887 C893 1.429 . S
C888 C880 1.574 1_455 S
C888 H883 0.949 . S
C888 C894 1.368 . S
C889 C873 1.349 . S
C889 H881 0.950 . S
C889 C887 1.327 . S
C890 C878 1.349 . S
C890 H884 0.950 . S
C890 C891 1.327 . S
C891 H885 0.950 . S
C891 C890 1.327 . S
C891 C895 1.429 . S
C892 C875 1.574 1_655 S
C892 H886 0.949 . S
C892 C896 1.368 . S
C893 C874 1.429 . S
C893 C887 1.429 . S
C893 C894 1.523 . S
C894 C875 1.368 . S
C894 C888 1.368 . S
C894 C893 1.523 . S
C895 C879 1.429 . S
C895 C891 1.429 . S
C895 C896 1.523 . S
C896 C880 1.368 . S
C896 C892 1.368 . S
C896 C895 1.523 . S
H897 C872 0.950 . S
H898 C874 0.950 . S
H899 C875 0.949 . S
H900 C877 0.950 . S
H901 C879 0.950 . S
C902 C903 1.349 . S
C902 C904 1.327 . S
C902 H927 0.950 . S
C903 C902 1.349 . S
C903 C919 1.349 . S
C904 C902 1.327 . S
C904 C923 1.429 . S
C904 H928 0.950 . S
C905 C922 1.574 1_655 S
C905 C924 1.368 . S
C905 H929 0.949 . S
H906 C910 0.949 . S
C907 C908 1.349 . S
C907 C909 1.327 . S
C907 H930 0.950 . S
C908 C907 1.349 . S
C908 C920 1.349 . S
C909 C907 1.327 . S
C909 C925 1.429 . S
C909 H931 0.950 . S
C910 H906 0.949 . S
C910 C918 1.574 1_455 S
C910 C926 1.368 . S
H911 C919 0.950 . S
H912 C917 0.950 . S
H913 C918 0.949 . S
H914 C920 0.950 . S
H915 C921 0.950 . S
H916 C922 0.949 . S
C917 H912 0.950 . S
C917 C919 1.327 . S
C917 C923 1.429 . S
C918 C910 1.574 1_655 S
C918 H913 0.949 . S
C918 C924 1.368 . S
C919 C903 1.349 . S
C919 H911 0.950 . S
C919 C917 1.327 . S
C920 C908 1.349 . S
C920 H914 0.950 . S
C920 C921 1.327 . S
C921 H915 0.950 . S
C921 C920 1.327 . S
C921 C925 1.429 . S
C922 C905 1.574 1_455 S
C922 H916 0.949 . S
C922 C926 1.368 . S
C923 C904 1.429 . S
C923 C917 1.429 . S
C923 C924 1.523 . S
C924 C905 1.368 . S
C924 C918 1.368 . S
C924 C923 1.523 . S
C925 C909 1.429 . S
C925 C921 1.429 . S
C925 C926 1.523 . S
C926 C910 1.368 . S
C926 C922 1.368 . S
C926 C925 1.523 . S
H927 C902 0.950 . S
H928 C904 0.950 . S
H929 C905 0.949 . S
H930 C907 0.950 . S
H931 C909 0.950 . S
C932 C933 1.349 1_556 S
C932 C934 1.327 . S
C932 H957 0.950 . S
C933 C932 1.349 1_554 S
C933 C949 1.349 . S
C934 C932 1.327 . S
C934 C953 1.429 1_556 S
C934 H958 0.950 . S
C935 C952 1.574 . S
C935 C954 1.368 . S
C935 H959 0.949 . S
H936 C940 0.949 . S
C937 C938 1.349 . S
C937 C939 1.327 . S
C937 H960 0.950 . S
C938 C937 1.349 . S
C938 C950 1.349 1_554 S
C939 C937 1.327 . S
C939 C955 1.429 . S
C939 H961 0.950 . S
C940 H936 0.949 . S
C940 C948 1.574 . S
C940 C956 1.368 1_556 S
H941 C949 0.950 . S
H942 C947 0.950 . S
H943 C948 0.949 . S
H944 C950 0.950 . S
H945 C951 0.950 . S
H946 C952 0.949 . S
C947 H942 0.950 . S
C947 C949 1.327 . S
C947 C953 1.429 . S
C948 C940 1.574 . S
C948 H943 0.949 . S
C948 C954 1.368 1_556 S
C949 C933 1.349 . S
C949 H941 0.950 . S
C949 C947 1.327 . S
C950 C938 1.349 1_556 S
C950 H944 0.950 . S
C950 C951 1.327 . S
C951 H945 0.950 . S
C951 C950 1.327 . S
C951 C955 1.429 1_556 S
C952 C935 1.574 . S
C952 H946 0.949 . S
C952 C956 1.368 . S
C953 C934 1.429 1_554 S
C953 C947 1.429 . S
C953 C954 1.523 . S
C954 C935 1.368 . S
C954 C948 1.368 1_554 S
C954 C953 1.523 . S
C955 C939 1.429 . S
C955 C951 1.429 1_554 S
C955 C956 1.523 . S
C956 C940 1.368 1_554 S
C956 C952 1.368 . S
C956 C955 1.523 . S
H957 C932 0.950 . S
H958 C934 0.950 . S
H959 C935 0.949 . S
H960 C937 0.950 . S
H961 C939 0.950 . S
C962 C963 1.349 . S
C962 C964 1.327 . S
C962 H987 0.950 . S
C963 C962 1.349 . S
C963 C979 1.349 1_556 S
C964 C962 1.327 . S
C964 C983 1.429 . S
C964 H988 0.950 . S
C965 C982 1.574 . S
C965 C984 1.368 1_554 S
C965 H989 0.949 . S
H966 C970 0.949 . S
C967 C968 1.349 1_554 S
C967 C969 1.327 . S
C967 H990 0.950 . S
C968 C967 1.349 1_556 S
C968 C980 1.349 . S
C969 C967 1.327 . S
C969 C985 1.429 1_554 S
C969 H991 0.950 . S
C970 H966 0.949 . S
C970 C978 1.574 . S
C970 C986 1.368 . S
H971 C979 0.950 . S
H972 C977 0.950 . S
H973 C978 0.949 . S
H974 C980 0.950 . S
H975 C981 0.950 . S
H976 C982 0.949 . S
C977 H972 0.950 . S
C977 C979 1.327 . S
C977 C983 1.429 1_554 S
C978 C970 1.574 . S
C978 H973 0.949 . S
C978 C984 1.368 . S
C979 C963 1.349 1_554 S
C979 H971 0.950 . S
C979 C977 1.327 . S
C980 C968 1.349 . S
C980 H974 0.950 . S
C980 C981 1.327 . S
C981 H975 0.950 . S
C981 C980 1.327 . S
C981 C985 1.429 . S
C982 C965 1.574 . S
C982 H976 0.949 . S
C982 C986 1.368 1_554 S
C983 C964 1.429 . S
C983 C977 1.429 1_556 S
C983 C984 1.523 . S
C984 C965 1.368 1_556 S
C984 C978 1.368 . S
C984 C983 1.523 . S
C985 C969 1.429 1_556 S
C985 C981 1.429 . S
C985 C986 1.523 . S
C986 C970 1.368 . S
C986 C982 1.368 1_556 S
C986 C985 1.523 . S
H987 C962 0.950 . S
H988 C964 0.950 . S
H989 C965 0.949 . S
H990 C967 0.950 . S
H991 C969 0.950 . S
C273 C0 1.713 . S
C278 C267 1.713 . S
C303 C233 1.715 . S
C308 C63 1.714 . S
C333 C199 1.714 . S
C338 C97 1.715 . S
C363 C136 1.713 . S
C368 C131 1.713 . S
C393 C72 1.718 . S
C398 C4 1.715 . S
C423 C38 1.592 . S
C428 C106 1.595 . S
C453 C115 1.588 . S
C458 C47 1.585 . S
C483 C81 1.457 . S
C488 C13 1.458 . S
C513 C140 1.715 . S
C518 C208 1.717 . S
C543 C174 1.592 . S
C548 C242 1.595 . S
C573 C251 1.588 . S
C578 C183 1.585 . S
C603 C217 1.457 . S
C608 C149 1.458 . S
C633 C17 1.089 . S
C638 C8 1.089 . S
C663 C42 1.089 . S
C668 C51 1.089 . S
C693 C85 1.089 . S
C698 C76 1.089 . S
C723 C110 1.089 . S
C728 C119 1.089 . S
C753 C144 1.089 . S
C758 C153 1.089 . S
C783 C178 1.089 . S
C788 C187 1.089 . S
C813 C212 1.089 . S
C818 C221 1.089 . S
C843 C246 1.089 . S
C848 C255 1.089 . S
C873 C29 1.624 . S
C878 C34 1.624 . S
C903 C102 1.623 . S
C908 C68 1.623 . S
C933 C165 1.625 . S
C938 C170 1.624 . S
C963 C238 1.622 . S
C968 C204 1.622 . S
