# Generated by pormake.
# Topology ooa, (5)-cn, num edge types: 1
# Building blocks:
#     Node 0, Type 0, BuildingBlock: XOMCOT_clean_sbu_1, # of connection points: 5
#     Node 1, Type 0, BuildingBlock: XOMCOT_clean_sbu_1, # of connection points: 5
#     Node 2, Type 0, BuildingBlock: XOMCOT_clean_sbu_1, # of connection points: 5
#     Node 3, Type 0, BuildingBlock: XOMCOT_clean_sbu_1, # of connection points: 5
#     Node 4, Type 0, BuildingBlock: XOMCOT_clean_sbu_1, # of connection points: 5
#     Node 5, Type 0, BuildingBlock: XOMCOT_clean_sbu_1, # of connection points: 5
#     Node 6, Type 0, BuildingBlock: XOMCOT_clean_sbu_1, # of connection points: 5
#     Node 7, Type 0, BuildingBlock: XOMCOT_clean_sbu_1, # of connection points: 5
#     Edge 8, Type (0, 0), BuildingBlock: EZIPEK_clean_linker_0, # of connection points: 2
#     Edge 9, Type (0, 0), BuildingBlock: EZIPEK_clean_linker_0, # of connection points: 2
#     Edge 10, Type (0, 0), BuildingBlock: EZIPEK_clean_linker_0, # of connection points: 2
#     Edge 11, Type (0, 0), BuildingBlock: EZIPEK_clean_linker_0, # of connection points: 2
#     Edge 12, Type (0, 0), BuildingBlock: EZIPEK_clean_linker_0, # of connection points: 2
#     Edge 13, Type (0, 0), BuildingBlock: EZIPEK_clean_linker_0, # of connection points: 2
#     Edge 14, Type (0, 0), BuildingBlock: EZIPEK_clean_linker_0, # of connection points: 2
#     Edge 15, Type (0, 0), BuildingBlock: EZIPEK_clean_linker_0, # of connection points: 2
#     Edge 16, Type (0, 0), BuildingBlock: EZIPEK_clean_linker_0, # of connection points: 2
#     Edge 17, Type (0, 0), BuildingBlock: EZIPEK_clean_linker_0, # of connection points: 2
#     Edge 18, Type (0, 0), BuildingBlock: EZIPEK_clean_linker_0, # of connection points: 2
#     Edge 19, Type (0, 0), BuildingBlock: EZIPEK_clean_linker_0, # of connection points: 2
#     Edge 20, Type (0, 0), BuildingBlock: EZIPEK_clean_linker_0, # of connection points: 2
#     Edge 21, Type (0, 0), BuildingBlock: EZIPEK_clean_linker_0, # of connection points: 2
#     Edge 22, Type (0, 0), BuildingBlock: EZIPEK_clean_linker_0, # of connection points: 2
#     Edge 23, Type (0, 0), BuildingBlock: EZIPEK_clean_linker_0, # of connection points: 2
#     Edge 24, Type (0, 0), BuildingBlock: EZIPEK_clean_linker_0, # of connection points: 2
#     Edge 25, Type (0, 0), BuildingBlock: EZIPEK_clean_linker_0, # of connection points: 2
#     Edge 26, Type (0, 0), BuildingBlock: EZIPEK_clean_linker_0, # of connection points: 2
#     Edge 27, Type (0, 0), BuildingBlock: EZIPEK_clean_linker_0, # of connection points: 2
# Relax obj value: 0.419
# Max RMSD: 0.220
# Mean RMSD: 0.220
data_MOF--net-ooa--node1-XOMCOT_clean_sbu_1--edge1-EZIPEK_clean_linker_0
_symmetry_space_group_name_H-M    P1
_symmetry_Int_Tables_number       1
_symmetry_cell_setting            triclinic
loop_
_symmetry_equiv_pos_as_xyz
'x, y, z'
_cell_length_a     21.321975
_cell_length_b     23.568101
_cell_length_c     38.100681
_cell_angle_alpha  89.457972
_cell_angle_beta   89.811582
_cell_angle_gamma 90.323314
loop_
_atom_site_label
_atom_site_type_symbol
_atom_site_fract_x
_atom_site_fract_y
_atom_site_fract_z
_atom_type_partial_charge
C0 C 0.09039 0.07524 0.12352 0.0
C1 C 0.12588 0.02802 0.13052 0.0
N2 N 0.17178 0.02559 0.10634 0.0
N3 N 0.11416 0.10276 0.09522 0.0
C4 C 0.16419 0.07153 0.0854 0.0
H5 H 0.04729 0.08635 0.1367 0.0
Co6 Co 0.07137 0.15888 0.07047 0.0
C7 C 0.18169 0.22752 0.03824 0.0
O8 O 0.15481 0.27734 0.03966 0.0
N9 N 1.02344 0.21387 0.04586 0.0
C10 C 0.96714 0.29133 0.03347 0.0
C11 C 1.02037 0.27087 0.04973 0.0
C12 C 0.97062 0.20109 0.02779 0.0
N13 N 0.9361 0.24701 0.01984 0.0
O14 O 0.06189 0.10666 0.03372 0.0
H15 H 0.05092 0.29558 0.06628 0.0
H16 H 0.95386 0.15868 0.02325 0.0
O17 O 0.15216 0.18324 0.04901 0.0
C18 C 1.02005 0.06872 0.03888 0.0
O19 O 0.97878 0.07544 0.06419 0.0
N20 N 0.07838 0.20649 0.10889 0.0
C21 C 0.08656 0.23018 0.1795 0.0
C22 C 0.13738 0.24189 0.15732 0.0
C23 C 0.13225 0.22983 0.12172 0.0
C24 C 1.02617 0.2018 0.12942 0.0
C25 C 1.02934 0.21304 0.16518 0.0
H26 H 0.1731 0.23537 0.10566 0.0
H27 H 0.98408 0.18278 0.11882 0.0
H28 H 0.1916 0.07972 0.06192 0.0
H29 H 0.117 -0.00365 0.15072 0.0
H30 H 0.9501 0.33449 0.03397 0.0
H31 H 0.18191 0.25599 0.16784 0.0
H32 H 0.98922 0.20405 0.18188 0.0
C33 C 0.38516 0.75882 0.12201 0.0
C34 C 0.33712 0.7942 0.1318 0.0
N35 N 0.32469 0.82876 0.10451 0.0
N36 N 0.40373 0.77182 0.08884 0.0
C37 C 0.36342 0.8126 0.07857 0.0
H38 H 0.40479 0.7262 0.13857 0.0
Co39 Co 0.46862 0.74261 0.06002 0.0
C40 C 0.3629 0.69969 0.02923 0.0
O41 O 0.36322 0.67218 0.05942 0.0
N42 N 0.53183 0.71292 0.0311 0.0
C43 C 0.5801 0.6628 0.98975 0.0
C44 C 0.52402 0.67206 0.00683 0.0
C45 C 0.59336 0.72703 0.02866 0.0
N46 N 0.6235 0.69749 0.00363 0.0
O47 O 0.48843 0.82045 0.04223 0.0
H48 H 0.48024 0.65037 0.00168 0.0
H49 H 0.61623 0.75829 0.0447 0.0
O50 O 0.40832 0.73366 0.02274 0.0
C51 C 0.48757 0.86978 0.05632 0.0
O52 O 0.47599 0.87503 0.09003 0.0
N53 N 0.52539 0.74656 0.09762 0.0
C54 C 0.56527 0.75477 0.16606 0.0
C55 C 0.53502 0.70539 0.1548 0.0
C56 C 0.51689 0.70156 0.1198 0.0
C57 C 0.56549 0.78939 0.10662 0.0
C58 C 0.58587 0.79457 0.14114 0.0
H59 H 0.48814 0.66612 0.11162 0.0
H60 H 0.57874 0.82202 0.08836 0.0
H61 H 0.36393 0.83167 0.05269 0.0
H62 H 0.31498 0.79619 0.15736 0.0
H63 H 0.58857 0.63282 0.96894 0.0
H64 H 0.52037 0.67281 0.17337 0.0
H65 H 0.61205 0.83189 0.14892 0.0
C66 C 0.11097 0.37806 0.38147 0.0
C67 C 0.1493 0.42141 0.37017 0.0
N68 N 0.19869 0.4244 0.39195 0.0
N69 N 0.13593 0.35352 0.41022 0.0
C70 C 0.18994 0.38243 0.41598 0.0
H71 H 0.06589 0.36688 0.37051 0.0
Co72 Co 0.08972 0.30134 0.43671 0.0
C73 C 0.19156 0.22952 0.4711 0.0
O74 O 0.16025 0.18165 0.46932 0.0
N75 N 1.03733 0.2501 0.46316 0.0
C76 C 0.96912 0.17867 0.47176 0.0
C77 C 1.02703 0.19392 0.45826 0.0
C78 C 0.98516 0.26705 0.48062 0.0
N79 N 0.94256 0.22508 0.48544 0.0
O80 O 0.08143 0.35768 0.4709 0.0
H81 H 0.05528 0.16702 0.44179 0.0
H82 H 0.97414 0.31064 0.48591 0.0
O83 O 0.16753 0.27575 0.45972 0.0
C84 C 0.04201 0.39604 0.46289 0.0
O85 O 0.99916 0.3854 0.4391 0.0
N86 N 0.09706 0.25011 0.40027 0.0
C87 C 0.10226 0.2222 0.33004 0.0
C88 C 0.15716 0.22291 0.35002 0.0
C89 C 0.15362 0.23772 0.38533 0.0
C90 C 0.04282 0.24439 0.3818 0.0
C91 C 0.04435 0.23015 0.34647 0.0
H92 H 0.19671 0.24698 0.3989 0.0
H93 H 0.99893 0.2575 0.39336 0.0
H94 H 0.22029 0.37509 0.43827 0.0
H95 H 0.14067 0.44997 0.34831 0.0
H96 H 0.94569 0.13821 0.46847 0.0
H97 H 0.20258 0.21812 0.3376 0.0
H98 H 1.00136 0.23056 0.33139 0.0
C99 C 0.48148 0.6291 0.36583 0.0
C100 C 0.43466 0.5933 0.35501 0.0
N101 N 0.38519 0.59662 0.37737 0.0
N102 N 0.46342 0.65425 0.3956 0.0
C103 C 0.40601 0.63246 0.40266 0.0
H104 H 0.52724 0.63421 0.35388 0.0
Co105 Co 0.51397 0.70203 0.42244 0.0
C106 C 0.40718 0.78339 0.44044 0.0
O107 O 0.42973 0.82636 0.42209 0.0
N108 N 0.56802 0.74721 0.44979 0.0
C109 C 0.62353 0.81717 0.47368 0.0
C110 C 0.56629 0.8021 0.4596 0.0
C111 C 0.62637 0.72986 0.45877 0.0
N112 N 0.6613 0.77158 0.47305 0.0
O113 O 0.51224 0.64669 0.45864 0.0
H114 H 0.52771 0.83054 0.45532 0.0
H115 H 0.64443 0.68818 0.45302 0.0
O116 O 0.43751 0.73668 0.44245 0.0
C117 C 0.54645 0.60402 0.45198 0.0
O118 O 0.58053 0.6038 0.42319 0.0
N119 N 0.51902 0.75402 0.38452 0.0
C120 C 0.54134 0.78381 0.31507 0.0
C121 C 0.47987 0.77536 0.32705 0.0
C122 C 0.46957 0.76118 0.36219 0.0
C123 C 0.57823 0.76856 0.37384 0.0
C124 C 0.5902 0.78532 0.33934 0.0
H125 H 0.42302 0.74806 0.37002 0.0
H126 H 0.61782 0.76092 0.39054 0.0
H127 H 0.38289 0.63977 0.42741 0.0
H128 H 0.44001 0.56381 0.33372 0.0
H129 H 0.63701 0.85884 0.48282 0.0
H130 H 0.441 0.77425 0.30882 0.0
H131 H 0.63819 0.79204 0.33075 0.0
C132 C 0.97497 0.87062 0.87499 0.0
C133 C 0.93419 0.90858 0.86034 0.0
N134 N 0.87547 0.89689 0.87203 0.0
N135 N 0.94376 0.83666 0.89745 0.0
C136 C 0.88382 0.85431 0.89585 0.0
H137 H 1.02473 0.86799 0.86973 0.0
Co138 Co 0.98433 0.77867 0.92104 0.0
C139 C 0.87492 0.70977 0.95007 0.0
O140 O 0.89075 0.66355 0.93334 0.0
N141 N 1.03015 0.72061 0.94421 0.0
C142 C 0.08942 0.64308 0.94855 0.0
C143 C 1.03397 0.66493 0.93601 0.0
C144 C 0.0826 0.73029 0.96317 0.0
N145 N 0.12007 0.68454 0.9655 0.0
O146 O 0.99667 0.82902 0.95856 0.0
H147 H 1.00304 0.64303 0.91823 0.0
H148 H 0.09747 0.77154 0.9718 0.0
O149 O 0.90668 0.755 0.9446 0.0
C150 C 1.03991 0.86617 0.95584 0.0
O151 O 0.08464 0.85965 0.93243 0.0
N152 N 0.97265 0.73372 0.88186 0.0
C153 C 0.96796 0.72372 0.80979 0.0
C154 C 0.91239 0.72404 0.82938 0.0
C155 C 0.91571 0.72859 0.86578 0.0
C156 C 1.02696 0.72809 0.8633 0.0
C157 C 1.02564 0.72208 0.82704 0.0
H158 H 0.87284 0.73624 0.88008 0.0
H159 H 0.07153 0.73527 0.87604 0.0
H160 H 0.84741 0.83653 0.91229 0.0
H161 H 0.94884 0.94317 0.8435 0.0
H162 H 0.10814 0.60145 0.94312 0.0
H163 H 0.86724 0.72595 0.81647 0.0
H164 H 0.06922 0.72243 0.81233 0.0
C165 C 0.58332 0.09051 0.88263 0.0
C166 C 0.6197 0.05095 0.86628 0.0
N167 N 0.67371 0.04696 0.88412 0.0
N168 N 0.61463 0.11182 0.91029 0.0
C169 C 0.67008 0.0845 0.91056 0.0
H170 H 0.53605 0.1022 0.87554 0.0
Co171 Co 0.57621 0.16449 0.93886 0.0
C172 C 0.68642 0.23583 0.96176 0.0
O173 O 0.6589 0.28277 0.9513 0.0
N174 N 0.53089 0.21444 0.96725 0.0
C175 C 0.48806 0.26608 0.00979 0.0
C176 C 0.54356 0.25045 0.99379 0.0
C177 C 0.46781 0.20821 0.96828 0.0
N178 N 0.4407 0.23896 0.99368 0.0
O179 O 0.56925 0.10855 0.97484 0.0
H180 H 0.58959 0.26131 0.00326 0.0
H181 H 0.44241 0.17861 0.952 0.0
O182 O 0.65823 0.18799 0.95848 0.0
C183 C 0.52864 0.0697 0.97008 0.0
O184 O 0.49175 0.07231 0.94258 0.0
N185 N 0.5818 0.21744 0.90165 0.0
C186 C 0.5811 0.24544 0.83083 0.0
C187 C 0.63769 0.23522 0.84791 0.0
C188 C 0.63713 0.22153 0.88345 0.0
C189 C 0.52696 0.23333 0.88609 0.0
C190 C 0.52568 0.2483 0.85051 0.0
H191 H 0.68008 0.20566 0.89459 0.0
H192 H 0.48295 0.22794 0.89975 0.0
H193 H 0.70603 0.09052 0.93019 0.0
H194 H 0.60685 0.02548 0.84389 0.0
H195 H 0.48323 0.29189 0.03298 0.0
H196 H 0.68118 0.23251 0.83323 0.0
H197 H 0.48118 0.25607 0.83776 0.0
C198 C 1.01213 0.61605 0.60146 0.0
C199 C 0.97516 0.57147 0.6123 0.0
N200 N 0.92266 0.57192 0.59293 0.0
N201 N 0.98322 0.64437 0.57532 0.0
C202 C 0.92833 0.61647 0.57056 0.0
H203 H 0.05794 0.62685 0.61159 0.0
Co204 Co 1.02468 0.70274 0.55192 0.0
C205 C 0.92154 0.7693 0.5153 0.0
O206 O 0.95319 0.81711 0.51435 0.0
N207 N 0.07286 0.76064 0.52874 0.0
C208 C 0.13349 0.83783 0.52142 0.0
C209 C 0.0797 0.81619 0.53694 0.0
C210 C 0.12324 0.75027 0.50792 0.0
N211 N 0.16072 0.7959 0.50339 0.0
O212 O 1.04081 0.65105 0.51583 0.0
H213 H 0.05056 0.83871 0.55538 0.0
H214 H 0.13621 0.70905 0.49858 0.0
O215 O 0.94589 0.72434 0.52833 0.0
C216 C 0.08437 0.61597 0.52263 0.0
O217 O 0.12679 0.62912 0.54616 0.0
N218 N 1.00859 0.74899 0.59012 0.0
C219 C 0.98844 0.76431 0.66109 0.0
C220 C 0.93775 0.76408 0.63801 0.0
C221 C 0.9488 0.75556 0.60244 0.0
C222 C 0.05872 0.75522 0.61186 0.0
C223 C 0.04963 0.76306 0.64775 0.0
H224 H 0.90893 0.74574 0.5863 0.0
H225 H 0.10547 0.74699 0.6021 0.0
H226 H 0.89409 0.62752 0.55077 0.0
H227 H 0.98582 0.54089 0.63278 0.0
H228 H 0.15328 0.87975 0.52504 0.0
H229 H 0.89003 0.76387 0.64787 0.0
H230 H 0.08956 0.76253 0.66525 0.0
C231 C 0.62573 0.38736 0.62309 0.0
C232 C 0.67478 0.42138 0.63304 0.0
N233 N 0.72388 0.41377 0.61089 0.0
N234 N 0.64209 0.35951 0.59401 0.0
C235 C 0.70059 0.37795 0.58637 0.0
H236 H 0.57989 0.38503 0.63526 0.0
Co237 Co 0.59078 0.30979 0.5698 0.0
C238 C 0.68119 0.26298 0.51892 0.0
O239 O 0.63999 0.26894 0.4936 0.0
N240 N 0.53674 0.2607 0.54577 0.0
C241 C 0.48416 0.18471 0.52747 0.0
C242 C 0.53968 0.2039 0.54188 0.0
C243 C 0.47939 0.27497 0.53352 0.0
N244 N 0.44644 0.22967 0.52231 0.0
O245 O 0.58886 0.36235 0.53233 0.0
H246 H 0.57842 0.17786 0.55048 0.0
H247 H 0.46048 0.31736 0.53436 0.0
O248 O 0.66562 0.27435 0.5504 0.0
C249 C 0.55115 0.40273 0.53842 0.0
O250 O 0.51535 0.4004 0.56655 0.0
N251 N 0.59031 0.26183 0.60851 0.0
C252 C 0.58738 0.23752 0.67953 0.0
C253 C 0.64318 0.23107 0.66054 0.0
C254 C 0.64371 0.24346 0.62463 0.0
C255 C 0.53457 0.26285 0.62603 0.0
C256 C 0.53198 0.25052 0.66178 0.0
H257 H 0.68821 0.24476 0.61099 0.0
H258 H 0.49338 0.27948 0.61313 0.0
H259 H 0.72333 0.36766 0.56195 0.0
H260 H 0.67178 0.45207 0.65382 0.0
H261 H 0.47168 0.14106 0.52212 0.0
H262 H 0.68666 0.2213 0.67385 0.0
H263 H 0.48836 0.25598 0.67599 0.0
C264 C 1.02321 0.02118 0.98081 0.0
C265 C 1.02067 0.01639 0.01785 0.0
C266 C 1.03109 0.9128 0.01425 0.0
C267 C 1.03637 0.91806 0.97722 0.0
N268 N 0.04629 0.978 0.92528 0.0
N269 N 1.01574 0.9578 0.07042 0.0
C270 C 1.03509 0.97237 0.96051 0.0
C271 C 1.02189 0.9622 0.03473 0.0
N272 N 1.00971 0.07188 0.96479 0.0
N273 N 1.04086 0.86115 0.03004 0.0
H274 H 1.01825 -0.00793 0.08729 0.0
H275 H 1.00606 0.92003 0.08375 0.0
H276 H 0.0502 0.8243 0.01618 0.0
H277 H 0.04535 0.85479 0.05695 0.0
H278 H 1.00227 0.07665 0.93794 0.0
H279 H 0.99924 0.10859 0.97852 0.0
H280 H 0.05579 0.01672 0.91295 0.0
H281 H 0.0508 0.94425 0.90826 0.0
C282 C 0.46363 0.01488 0.01294 0.0
C283 C 0.52151 0.02189 -0.00487 0.0
C284 C 0.55895 0.93111 0.01891 0.0
C285 C 0.49936 0.922 0.03495 0.0
N286 N 0.39441 0.95493 0.0474 0.0
N287 N 0.62496 -0.0114 0.98065 0.0
C288 C 0.45175 0.9641 0.03224 0.0
C289 C 0.5697 0.98091 -0.00162 0.0
N290 N 0.42089 0.05804 0.01236 0.0
N291 N 0.60603 0.89292 0.02417 0.0
H292 H 0.63606 0.02577 0.96714 0.0
H293 H 0.65929 0.95778 0.97793 0.0
H294 H 0.59892 0.85373 0.03607 0.0
H295 H 0.65295 0.90042 0.01812 0.0
H296 H 0.38012 0.05885 0.02738 0.0
H297 H 0.42816 0.09589 -0.00146 0.0
H298 H 0.35455 0.97873 0.04215 0.0
H299 H 0.38556 0.92193 0.06481 0.0
C300 C 0.07478 0.55433 0.47042 0.0
C301 C 0.08119 0.55876 0.50725 0.0
C302 C 0.05509 0.45796 0.51473 0.0
C303 C 0.04916 0.45322 0.47791 0.0
N304 N 0.04463 0.49848 0.42041 0.0
N305 N 0.09216 0.51172 0.56395 0.0
C306 C 0.05622 0.50182 0.45562 0.0
C307 C 0.0759 0.50978 0.52929 0.0
N308 N 0.09155 0.59944 0.44943 0.0
N309 N 1.03618 0.41396 0.53605 0.0
H310 H 0.10717 0.54794 0.57672 0.0
H311 H 0.09682 0.4757 0.57973 0.0
H312 H 1.01825 0.37595 0.52646 0.0
H313 H 1.03111 0.41721 0.56314 0.0
H314 H 0.09596 0.59759 0.42227 0.0
H315 H 0.10795 0.63775 0.45938 0.0
H316 H 1.03998 0.5337 0.40398 0.0
H317 H 1.0354 0.46108 0.40727 0.0
C318 C 0.56924 0.55643 0.50929 0.0
C319 C 0.54528 0.55329 0.47476 0.0
C320 C 0.531 0.45039 0.48082 0.0
C321 C 0.55098 0.45407 0.51615 0.0
N322 N 0.58426 0.51048 0.56554 0.0
N323 N 0.49331 0.50018 0.42936 0.0
C324 C 0.5684 0.50711 0.53088 0.0
C325 C 0.52367 0.501 0.46091 0.0
N326 N 0.59564 0.60585 0.52088 0.0
N327 N 0.51904 0.39862 0.46625 0.0
H328 H 0.48685 0.53638 0.41405 0.0
H329 H 0.46968 0.46489 0.41971 0.0
H330 H 0.51999 0.36062 0.48041 0.0
H331 H 0.51212 0.39271 0.43949 0.0
H332 H 0.62154 0.60902 0.54389 0.0
H333 H 0.59558 0.64342 0.50631 0.0
H334 H 0.58875 0.54853 0.57898 0.0
H335 H 0.58994 0.47511 0.58165 0.0
C336 C 0.23822 0.88534 0.0798 0.0
C337 C 0.28713 0.87936 0.10451 0.0
C338 C 0.26354 0.97329 0.12815 0.0
C339 C 0.21578 0.97982 0.1028 0.0
N340 N 0.1692 0.94922 0.04866 0.0
N341 N 0.35781 0.92367 0.1454 0.0
C342 C 0.20679 0.93809 0.07671 0.0
C343 C 0.30302 0.92501 0.12694 0.0
N344 N 0.22031 0.83975 0.06027 0.0
N345 N 0.27103 0.0136 0.15333 0.0
H346 H 0.38954 0.89044 0.14368 0.0
H347 H 0.37494 0.95794 0.15961 0.0
H348 H 0.24586 0.05141 0.15318 0.0
H349 H 0.29986 0.00831 0.17513 0.0
H350 H 0.181 0.8397 0.04409 0.0
H351 H 0.24158 0.80019 0.06267 0.0
H352 H 0.1666 0.92303 0.02683 0.0
H353 H 0.1457 -0.01261 0.04555 0.0
C354 C 0.28362 0.47047 0.35858 0.0
C355 C 0.24723 0.46716 0.38963 0.0
C356 C 0.2851 0.56189 0.40587 0.0
C357 C 0.32888 0.56062 0.37774 0.0
N358 N 0.33233 0.53435 0.31692 0.0
N359 N 0.21484 0.50912 0.44421 0.0
C360 C 0.31824 0.52053 0.35087 0.0
C361 C 0.24864 0.51259 0.41382 0.0
N362 N 0.28547 0.42525 0.33651 0.0
N363 N 0.2705 0.61253 0.4208 0.0
H364 H 0.18583 0.47482 0.45041 0.0
H365 H 0.21955 0.53835 0.46441 0.0
H366 H 0.28618 0.6509 0.40993 0.0
H367 H 0.23541 0.61728 0.43961 0.0
H368 H 0.31559 0.42361 0.31492 0.0
H369 H 0.26144 0.38743 0.34189 0.0
H370 H 0.32097 0.50853 0.29578 0.0
H371 H 0.34598 0.57547 0.30972 0.0
C372 C 0.81909 0.98149 0.84771 0.0
C373 C 0.81782 0.92811 0.86509 0.0
C374 C 0.71256 0.94883 0.88703 0.0
C375 C 0.72216 0.00655 0.87758 0.0
N376 N 0.78243 0.0784 0.84729 0.0
N377 N 0.74701 0.85174 0.8794 0.0
C378 C 0.77496 0.02312 0.85746 0.0
C379 C 0.75952 0.90857 0.87863 0.0
N380 N 0.85454 -0.01117 0.8182 0.0
N381 N 0.65907 0.93304 0.9044 0.0
H382 H 0.7776 0.8227 0.86801 0.0
H383 H 0.70408 0.83417 0.88689 0.0
H384 H 0.6236 0.96168 0.91038 0.0
H385 H 0.65108 0.89249 0.91449 0.0
H386 H 0.85404 0.02586 0.80303 0.0
H387 H 0.87528 0.95434 0.80579 0.0
H388 H 0.82331 0.09354 0.83528 0.0
H389 H 0.74938 0.10952 0.853 0.0
C390 C 0.82715 0.43914 0.58234 0.0
C391 C 0.78336 0.44508 0.61025 0.0
C392 C 0.83602 0.53256 0.62793 0.0
C393 C 0.87202 0.53188 0.59675 0.0
N394 N 0.90291 0.48501 0.54369 0.0
N395 N 0.78178 0.47421 0.67058 0.0
C396 C 0.86771 0.48533 0.57365 0.0
C397 C 0.79731 0.48544 0.63647 0.0
N398 N 0.83731 0.38689 0.56839 0.0
N399 N 0.83852 0.57869 0.64926 0.0
H400 H 0.76441 0.43454 0.6784 0.0
H401 H 0.79517 0.50009 0.69132 0.0
H402 H 0.86578 0.61439 0.64318 0.0
H403 H 0.80914 0.5834 0.67095 0.0
H404 H 0.87169 0.37875 0.54964 0.0
H405 H 0.81834 0.35027 0.57994 0.0
H406 H 0.89724 0.45484 0.52412 0.0
H407 H 0.93457 0.51739 0.53732 0.0
C408 C 0.26433 0.25065 0.99294 0.0
C409 C 0.24823 0.22421 0.02551 0.0
C410 C 0.36006 0.20283 0.03525 0.0
C411 C 0.376 0.2348 0.00484 0.0
N412 N 0.34553 0.29412 0.9565 0.0
N413 N 0.28246 0.17748 0.07906 0.0
C414 C 0.32862 0.25994 0.98413 0.0
C415 C 0.29649 0.20047 0.04694 0.0
N416 N 0.21804 0.26469 0.96972 0.0
N417 N 0.40577 0.17308 0.05234 0.0
H418 H 0.23713 0.1702 0.08791 0.0
H419 H 0.31601 0.16772 0.09793 0.0
H420 H 0.4526 0.17374 0.04439 0.0
H421 H 0.39686 0.14366 0.0723 0.0
H422 H 0.22672 0.27917 0.94426 0.0
H423 H 0.17068 0.25643 0.97462 0.0
H424 H 0.31393 0.31883 0.94237 0.0
H425 H 0.39231 0.30128 0.94952 0.0
C426 C 0.2262 0.72844 0.9656 0.0
C427 C 0.18482 0.68451 0.97682 0.0
C428 C 0.27189 0.64157 0.00855 0.0
C429 C 0.30722 0.69288 0.00561 0.0
N430 N 0.31151 0.78965 0.98191 0.0
N431 N 0.16756 0.60208 0.01366 0.0
C432 C 0.28313 0.73763 0.98406 0.0
C433 C 0.2075 0.6415 -0.00057 0.0
N434 N 0.21246 0.75999 0.93643 0.0
N435 N 0.30009 0.59243 0.01906 0.0
H436 H 0.11934 0.60263 0.00932 0.0
H437 H 0.18172 0.57277 0.03267 0.0
H438 H 0.34844 0.58964 0.02283 0.0
H439 H 0.27681 0.55338 0.01933 0.0
H440 H 0.24363 0.78961 0.92558 0.0
H441 H 0.17385 0.75117 0.92061 0.0
H442 H 0.29 0.82441 0.96994 0.0
H443 H 0.35358 0.80029 0.99374 0.0
C444 C 0.3329 0.24784 0.5316 0.0
C445 C 0.38246 0.22921 0.50967 0.0
C446 C 0.30597 0.20465 0.46416 0.0
C447 C 0.25722 0.22921 0.48448 0.0
N448 N 0.22544 0.28056 0.536 0.0
N449 N 0.41783 0.2004 0.45267 0.0
C450 C 0.27116 0.25311 0.51766 0.0
C451 C 0.36939 0.21037 0.47528 0.0
N452 N 0.34427 0.2575 0.56629 0.0
N453 N 0.29193 0.17511 0.43449 0.0
H454 H 0.46467 0.20591 0.45973 0.0
H455 H 0.41157 0.19223 0.42609 0.0
H456 H 0.24638 0.16986 0.42526 0.0
H457 H 0.32486 0.15145 0.42076 0.0
H458 H 0.30914 0.26595 0.58452 0.0
H459 H 0.38819 0.25135 0.5776 0.0
H460 H 0.23445 0.30428 0.55837 0.0
H461 H 0.17904 0.28291 0.52753 0.0
C462 C 0.27469 0.77743 0.50869 0.0
C463 C 0.22297 0.79569 0.4883 0.0
C464 C 0.29065 0.80268 0.43623 0.0
C465 C 0.34372 0.788 0.45707 0.0
N466 N 0.38781 0.77067 0.5144 0.0
N467 N 0.18186 0.83316 0.43456 0.0
C468 C 0.33612 0.77764 0.49368 0.0
C469 C 0.23123 0.81075 0.45264 0.0
N470 N 0.26463 0.75912 0.54237 0.0
N471 N 0.29604 0.80588 0.40051 0.0
H472 H 0.1375 0.83772 0.44582 0.0
H473 H 0.18585 0.85112 0.40958 0.0
H474 H 0.33803 0.79961 0.38719 0.0
H475 H 0.25791 0.80996 0.3837 0.0
H476 H 0.29853 0.73888 0.5575 0.0
H477 H 0.2208 0.76103 0.55453 0.0
H478 H 0.38598 0.76866 0.54168 0.0
H479 H 0.43352 0.77182 0.50458 0.0
C480 C 0.7134 0.75379 0.98093 0.0
C481 C 0.68896 0.70184 0.99401 0.0
C482 C 0.79262 0.65815 0.9871 0.0
C483 C 0.81608 0.70993 0.97228 0.0
N484 N 0.80595 0.81225 0.97579 0.0
N485 N 0.70809 0.60943 0.01855 0.0
C486 C 0.77892 0.75963 0.97532 0.0
C487 C 0.72946 0.65521 -0.00033 0.0
N488 N 0.67384 0.79725 0.97288 0.0
N489 N 0.83154 0.61261 0.99048 0.0
H490 H 0.66293 0.60747 0.0291 0.0
H491 H 0.73597 0.5755 0.02628 0.0
H492 H 0.88017 0.61635 0.98822 0.0
H493 H 0.81605 0.57152 -0.00401 0.0
H494 H 0.68909 0.83455 0.96061 0.0
H495 H 0.62524 0.79376 0.97535 0.0
H496 H 0.78042 0.84916 0.98005 0.0
H497 H 0.85409 0.81855 0.97799 0.0
C498 C 0.80163 0.26121 0.95622 0.0
C499 C 0.75107 0.23871 0.97679 0.0
C500 C 0.82252 0.22811 0.02708 0.0
C501 C 0.87332 0.24644 0.00572 0.0
N502 N 0.91448 0.27354 0.94947 0.0
N503 N 0.71448 0.19583 0.03106 0.0
C504 C 0.86362 0.26135 0.97018 0.0
C505 C 0.76194 0.22046 0.01198 0.0
N506 N 0.79063 0.28261 0.92335 0.0
N507 N 0.83213 0.22007 0.06222 0.0
H508 H 0.6685 0.19271 0.02214 0.0
H509 H 0.72117 0.17542 0.05509 0.0
H510 H 0.8759 0.22573 0.07387 0.0
H511 H 0.79634 0.21242 0.08031 0.0
H512 H 0.82363 0.30575 0.9089 0.0
H513 H 0.7473 0.28031 0.91098 0.0
H514 H 0.91238 0.27849 0.92233 0.0
H515 H 0.96008 0.27471 0.95932 0.0
C516 C 0.80802 0.79277 0.5266 0.0
C517 C 0.8545 0.76902 0.50441 0.0
C518 C 0.77393 0.75187 0.45982 0.0
C519 C 0.72653 0.76917 0.48373 0.0
N520 N 0.69816 0.79278 0.54296 0.0
N521 N 0.88022 0.71788 0.45184 0.0
C522 C 0.74356 0.78584 0.51804 0.0
C523 C 0.83686 0.74557 0.47173 0.0
N524 N 0.82508 0.82314 0.55542 0.0
N525 N 0.75985 0.74516 0.42521 0.0
H526 H 0.92722 0.71439 0.45904 0.0
H527 H 0.86846 0.69476 0.42961 0.0
H528 H 0.71557 0.75342 0.4151 0.0
H529 H 0.79354 0.73775 0.40595 0.0
H530 H 0.79311 0.84569 0.57054 0.0
H531 H 0.87167 0.83064 0.56219 0.0
H532 H 0.70815 0.79976 0.56932 0.0
H533 H 0.65079 0.78519 0.538 0.0
C534 C 0.83984 0.26937 0.47238 0.0
C535 C 0.87656 0.23245 0.49338 0.0
C536 C 0.78286 0.20943 0.52873 0.0
C537 C 0.74848 0.25185 0.51032 0.0
N538 N 0.7517 0.33307 0.47099 0.0
N539 N 0.88557 0.17308 0.54465 0.0
C540 C 0.779 0.28489 0.48388 0.0
C541 C 0.8487 0.20399 0.52248 0.0
N542 N 0.86202 0.28797 0.44063 0.0
N543 N 0.75241 0.17299 0.55117 0.0
H544 H 0.93373 0.16874 0.54066 0.0
H545 H 0.8695 0.1559 0.56833 0.0
H546 H 0.70419 0.17462 0.55567 0.0
H547 H 0.77384 0.13797 0.56279 0.0
H548 H 0.8348 0.31102 0.42291 0.0
H549 H 0.90469 0.27462 0.43027 0.0
H550 H 0.77501 0.36128 0.45416 0.0
H551 H 0.70907 0.34852 0.48023 0.0
C552 C 0.10403 0.1726 0.27219 0.0
C553 C 0.10558 0.2237 0.29131 0.0
C554 C 0.09507 0.27951 0.23712 0.0
C555 C 0.09556 0.22853 0.21788 0.0
N556 N 0.11507 0.12779 0.21559 0.0
N557 N 0.11787 0.32557 0.2921 0.0
C558 C 0.10445 0.17532 0.23498 0.0
C559 C 0.10587 0.27718 0.27377 0.0
N560 N 0.10066 0.12169 0.2896 0.0
N561 N 0.08236 0.32983 0.22053 0.0
H562 H 0.12705 0.32521 0.31889 0.0
H563 H 0.12484 0.36517 0.28033 0.0
H564 H 0.07528 0.33317 0.19351 0.0
H565 H 0.07425 0.36754 0.23378 0.0
H566 H 0.09207 0.08325 0.2772 0.0
H567 H 0.10257 0.11825 0.3169 0.0
H568 H 0.12803 0.08892 0.22647 0.0
H569 H 0.11654 0.12839 0.18825 0.0
C570 C 0.60136 0.73233 0.22681 0.0
C571 C 0.56702 0.76783 0.20392 0.0
C572 C 0.52923 0.82233 0.25404 0.0
C573 C 0.55505 0.78118 0.27698 0.0
N574 N 0.6051 0.68962 0.28444 0.0
N575 N 0.48812 0.84053 0.19612 0.0
C576 C 0.58885 0.73431 0.26328 0.0
C577 C 0.52852 0.81165 0.21751 0.0
N578 N 0.6457 0.69659 0.2137 0.0
N579 N 0.50549 0.87155 0.26714 0.0
H580 H 0.48368 0.83275 0.16937 0.0
H581 H 0.45446 0.86843 0.20558 0.0
H582 H 0.50584 0.88075 0.29388 0.0
H583 H 0.49132 0.9053 0.25123 0.0
H584 H 0.67623 0.67356 0.22961 0.0
H585 H 0.65604 0.69443 0.18695 0.0
H586 H 0.62381 0.65209 0.27479 0.0
H587 H 0.59407 0.68714 0.31105 0.0
C588 C 0.96658 0.69881 0.71182 0.0
C589 C 0.97738 0.75497 0.69902 0.0
C590 C 0.97785 0.79103 0.75883 0.0
C591 C 0.96664 0.73489 0.77158 0.0
N592 N 0.93879 0.63745 0.76103 0.0
N593 N 0.98196 0.85555 0.70876 0.0
C594 C 0.95718 0.68941 0.74827 0.0
C595 C 0.97956 0.80148 0.7221 0.0
N596 N 0.96777 0.65422 0.68918 0.0
N597 N 0.98821 0.83404 0.78196 0.0
H598 H 0.98408 0.86433 0.68188 0.0
H599 H 0.97716 0.8918 0.72389 0.0
H600 H 0.98385 0.82865 0.80897 0.0
H601 H 1.00411 0.87431 0.77471 0.0
H602 H 0.96792 0.61182 0.69704 0.0
H603 H 0.97233 0.65963 0.6622 0.0
H604 H 0.92414 0.60415 0.74523 0.0
H605 H 0.93362 0.62869 0.78777 0.0
C606 C 0.60178 0.29085 0.73549 0.0
C607 C 0.58804 0.23892 0.71833 0.0
C608 C 0.56326 0.1934 0.77463 0.0
C609 C 0.57977 0.24461 0.79198 0.0
N610 N 0.6211 0.33991 0.79016 0.0
N611 N 0.56452 0.13908 0.72075 0.0
C612 C 0.60087 0.29276 0.77272 0.0
C613 C 0.57115 0.18969 0.73769 0.0
N614 N 0.61415 0.33867 0.71603 0.0
N615 N 0.53951 0.1485 0.79348 0.0
H616 H 0.56925 0.13523 0.69361 0.0
H617 H 0.55906 0.10014 0.73351 0.0
H618 H 0.53537 0.14847 0.82068 0.0
H619 H 0.51994 0.11249 0.78223 0.0
H620 H 0.61699 0.37927 0.72642 0.0
H621 H 0.61833 0.33833 0.68883 0.0
H622 H 0.64443 0.37379 0.77812 0.0
H623 H 0.61758 0.34404 0.81733 0.0
loop_
_geom_bond_atom_site_label_1
_geom_bond_atom_site_label_2
_geom_bond_distance
_geom_bond_site_symmetry_2
_ccdc_geom_bond_type
C0 C1 1.351 . S
C0 N3 1.368 . S
C0 H5 0.931 . S
C1 C0 1.351 . S
C1 N2 1.373 . S
C1 H29 0.930 . S
N2 C1 1.373 . S
N2 C4 1.340 . S
N3 C0 1.368 . S
N3 C4 1.321 . S
N3 Co6 2.135 . S
C4 N2 1.340 . S
C4 N3 1.321 . S
C4 H28 0.930 . S
H5 C0 0.931 . S
Co6 N3 2.135 . S
Co6 N9 2.121 . S
Co6 O14 2.055 . S
Co6 O17 2.039 . S
Co6 N20 2.140 . S
C7 O8 1.227 . S
C7 O17 1.265 . S
O8 C7 1.227 . S
N9 Co6 2.121 . S
N9 C11 1.375 . S
N9 C12 1.313 1_455 S
C10 C11 1.338 1_655 S
C10 N13 1.377 . S
C10 H30 0.930 . S
C11 N9 1.375 . S
C11 C10 1.338 1_455 S
C11 H15 0.931 . S
C12 N9 1.313 1_655 S
C12 N13 1.344 . S
C12 H16 0.930 . S
N13 C10 1.377 . S
N13 C12 1.344 . S
O14 Co6 2.055 . S
O14 C18 1.253 1_455 S
H15 C11 0.931 . S
H16 C12 0.930 . S
O17 Co6 2.039 . S
O17 C7 1.265 . S
C18 O14 1.253 1_655 S
C18 O19 1.227 . S
O19 C18 1.227 . S
N20 Co6 2.140 . S
N20 C23 1.346 . S
N20 C24 1.345 . S
C21 C22 1.387 . S
C21 C25 1.395 . S
C22 C21 1.387 . S
C22 C23 1.369 . S
C22 H31 0.929 . S
C23 N20 1.346 . S
C23 C22 1.369 . S
C23 H26 0.928 . S
C24 N20 1.345 . S
C24 C25 1.372 . S
C24 H27 0.931 1_455 S
C25 C21 1.395 . S
C25 C24 1.372 . S
C25 H32 0.925 1_455 S
H26 C23 0.928 . S
H27 C24 0.931 1_655 S
H28 C4 0.930 . S
H29 C1 0.930 . S
H30 C10 0.930 . S
H31 C22 0.929 . S
H32 C25 0.925 1_655 S
C33 C34 1.351 . S
C33 N36 1.368 . S
C33 H38 0.931 . S
C34 C33 1.351 . S
C34 N35 1.373 . S
C34 H62 0.930 . S
N35 C34 1.373 . S
N35 C37 1.340 . S
N36 C33 1.368 . S
N36 C37 1.321 . S
N36 Co39 2.135 . S
C37 N35 1.340 . S
C37 N36 1.321 . S
C37 H61 0.930 . S
H38 C33 0.931 . S
Co39 N36 2.135 . S
Co39 N42 2.121 . S
Co39 O47 2.055 . S
Co39 O50 2.039 . S
Co39 N53 2.140 . S
C40 O41 1.227 . S
C40 O50 1.265 . S
O41 C40 1.227 . S
N42 Co39 2.121 . S
N42 C44 1.375 . S
N42 C45 1.313 . S
C43 C44 1.338 . S
C43 N46 1.377 . S
C43 H63 0.930 . S
C44 N42 1.375 . S
C44 C43 1.338 . S
C44 H48 0.931 . S
C45 N42 1.313 . S
C45 N46 1.344 . S
C45 H49 0.930 . S
N46 C43 1.377 . S
N46 C45 1.344 . S
O47 Co39 2.055 . S
O47 C51 1.253 . S
H48 C44 0.931 . S
H49 C45 0.930 . S
O50 Co39 2.039 . S
O50 C40 1.265 . S
C51 O47 1.253 . S
C51 O52 1.227 . S
O52 C51 1.227 . S
N53 Co39 2.140 . S
N53 C56 1.346 . S
N53 C57 1.345 . S
C54 C55 1.387 . S
C54 C58 1.391 . S
C55 C54 1.387 . S
C55 C56 1.369 . S
C55 H64 0.929 . S
C56 N53 1.346 . S
C56 C55 1.369 . S
C56 H59 0.928 . S
C57 N53 1.345 . S
C57 C58 1.371 . S
C57 H60 0.931 . S
C58 C54 1.391 . S
C58 C57 1.371 . S
C58 H65 0.930 . S
H59 C56 0.928 . S
H60 C57 0.931 . S
H61 C37 0.930 . S
H62 C34 0.930 . S
H63 C43 0.930 . S
H64 C55 0.929 . S
H65 C58 0.930 . S
C66 C67 1.351 . S
C66 N69 1.368 . S
C66 H71 0.931 . S
C67 C66 1.351 . S
C67 N68 1.373 . S
C67 H95 0.930 . S
N68 C67 1.373 . S
N68 C70 1.340 . S
N69 C66 1.368 . S
N69 C70 1.321 . S
N69 Co72 2.135 . S
C70 N68 1.340 . S
C70 N69 1.321 . S
C70 H94 0.930 . S
H71 C66 0.931 . S
Co72 N69 2.135 . S
Co72 N75 2.121 . S
Co72 O80 2.055 . S
Co72 O83 2.039 . S
Co72 N86 2.140 . S
C73 O74 1.227 . S
C73 O83 1.265 . S
O74 C73 1.227 . S
N75 Co72 2.121 . S
N75 C77 1.375 . S
N75 C78 1.313 1_455 S
C76 C77 1.338 1_655 S
C76 N79 1.377 . S
C76 H96 0.930 . S
C77 N75 1.375 . S
C77 C76 1.338 1_455 S
C77 H81 0.931 . S
C78 N75 1.313 1_655 S
C78 N79 1.344 . S
C78 H82 0.930 . S
N79 C76 1.377 . S
N79 C78 1.344 . S
O80 Co72 2.055 . S
O80 C84 1.253 1_455 S
H81 C77 0.931 . S
H82 C78 0.930 . S
O83 Co72 2.039 . S
O83 C73 1.265 . S
C84 O80 1.253 1_655 S
C84 O85 1.227 . S
O85 C84 1.227 . S
N86 Co72 2.140 . S
N86 C89 1.346 . S
N86 C90 1.345 . S
C87 C88 1.387 . S
C87 C91 1.395 . S
C88 C87 1.387 . S
C88 C89 1.369 . S
C88 H97 0.929 . S
C89 N86 1.346 . S
C89 C88 1.369 . S
C89 H92 0.928 . S
C90 N86 1.345 . S
C90 C91 1.372 . S
C90 H93 0.931 1_455 S
C91 C87 1.395 . S
C91 C90 1.372 . S
C91 H98 0.925 1_455 S
H92 C89 0.928 . S
H93 C90 0.931 1_655 S
H94 C70 0.930 . S
H95 C67 0.930 . S
H96 C76 0.930 . S
H97 C88 0.929 . S
H98 C91 0.925 1_655 S
C99 C100 1.351 . S
C99 N102 1.368 . S
C99 H104 0.931 . S
C100 C99 1.351 . S
C100 N101 1.373 . S
C100 H128 0.930 . S
N101 C100 1.373 . S
N101 C103 1.340 . S
N102 C99 1.368 . S
N102 C103 1.321 . S
N102 Co105 2.135 . S
C103 N101 1.340 . S
C103 N102 1.321 . S
C103 H127 0.930 . S
H104 C99 0.931 . S
Co105 N102 2.135 . S
Co105 N108 2.121 . S
Co105 O113 2.055 . S
Co105 O116 2.039 . S
Co105 N119 2.140 . S
C106 O107 1.227 . S
C106 O116 1.265 . S
O107 C106 1.227 . S
N108 Co105 2.121 . S
N108 C110 1.375 . S
N108 C111 1.313 . S
C109 C110 1.338 . S
C109 N112 1.377 . S
C109 H129 0.930 . S
C110 N108 1.375 . S
C110 C109 1.338 . S
C110 H114 0.931 . S
C111 N108 1.313 . S
C111 N112 1.344 . S
C111 H115 0.930 . S
N112 C109 1.377 . S
N112 C111 1.344 . S
O113 Co105 2.055 . S
O113 C117 1.253 . S
H114 C110 0.931 . S
H115 C111 0.930 . S
O116 Co105 2.039 . S
O116 C106 1.265 . S
C117 O113 1.253 . S
C117 O118 1.227 . S
O118 C117 1.227 . S
N119 Co105 2.140 . S
N119 C122 1.346 . S
N119 C123 1.345 . S
C120 C121 1.387 . S
C120 C124 1.391 . S
C121 C120 1.387 . S
C121 C122 1.369 . S
C121 H130 0.929 . S
C122 N119 1.346 . S
C122 C121 1.369 . S
C122 H125 0.928 . S
C123 N119 1.345 . S
C123 C124 1.371 . S
C123 H126 0.931 . S
C124 C120 1.391 . S
C124 C123 1.371 . S
C124 H131 0.930 . S
H125 C122 0.928 . S
H126 C123 0.931 . S
H127 C103 0.930 . S
H128 C100 0.930 . S
H129 C109 0.930 . S
H130 C121 0.929 . S
H131 C124 0.930 . S
C132 C133 1.351 . S
C132 N135 1.368 . S
C132 H137 0.931 . S
C133 C132 1.351 . S
C133 N134 1.373 . S
C133 H161 0.930 . S
N134 C133 1.373 . S
N134 C136 1.340 . S
N135 C132 1.368 . S
N135 C136 1.321 . S
N135 Co138 2.135 . S
C136 N134 1.340 . S
C136 N135 1.321 . S
C136 H160 0.930 . S
H137 C132 0.931 . S
Co138 N135 2.135 . S
Co138 N141 2.121 . S
Co138 O146 2.055 . S
Co138 O149 2.039 . S
Co138 N152 2.140 . S
C139 O140 1.227 . S
C139 O149 1.265 . S
O140 C139 1.227 . S
N141 Co138 2.121 . S
N141 C143 1.375 . S
N141 C144 1.313 1_655 S
C142 C143 1.338 1_455 S
C142 N145 1.377 . S
C142 H162 0.930 . S
C143 N141 1.375 . S
C143 C142 1.338 1_655 S
C143 H147 0.931 . S
C144 N141 1.313 1_455 S
C144 N145 1.344 . S
C144 H148 0.930 . S
N145 C142 1.377 . S
N145 C144 1.344 . S
O146 Co138 2.055 . S
O146 C150 1.253 1_655 S
H147 C143 0.931 . S
H148 C144 0.930 . S
O149 Co138 2.039 . S
O149 C139 1.265 . S
C150 O146 1.253 1_455 S
C150 O151 1.227 . S
O151 C150 1.227 . S
N152 Co138 2.140 . S
N152 C155 1.346 . S
N152 C156 1.345 . S
C153 C154 1.387 . S
C153 C157 1.395 . S
C154 C153 1.387 . S
C154 C155 1.369 . S
C154 H163 0.929 . S
C155 N152 1.346 . S
C155 C154 1.369 . S
C155 H158 0.928 . S
C156 N152 1.345 . S
C156 C157 1.372 . S
C156 H159 0.931 1_655 S
C157 C153 1.395 . S
C157 C156 1.372 . S
C157 H164 0.925 1_655 S
H158 C155 0.928 . S
H159 C156 0.931 1_455 S
H160 C136 0.930 . S
H161 C133 0.930 . S
H162 C142 0.930 . S
H163 C154 0.929 . S
H164 C157 0.925 1_455 S
C165 C166 1.351 . S
C165 N168 1.368 . S
C165 H170 0.931 . S
C166 C165 1.351 . S
C166 N167 1.373 . S
C166 H194 0.930 . S
N167 C166 1.373 . S
N167 C169 1.340 . S
N168 C165 1.368 . S
N168 C169 1.321 . S
N168 Co171 2.135 . S
C169 N167 1.340 . S
C169 N168 1.321 . S
C169 H193 0.930 . S
H170 C165 0.931 . S
Co171 N168 2.135 . S
Co171 N174 2.121 . S
Co171 O179 2.055 . S
Co171 O182 2.039 . S
Co171 N185 2.140 . S
C172 O173 1.227 . S
C172 O182 1.265 . S
O173 C172 1.227 . S
N174 Co171 2.121 . S
N174 C176 1.375 . S
N174 C177 1.313 . S
C175 C176 1.338 . S
C175 N178 1.377 . S
C175 H195 0.930 . S
C176 N174 1.375 . S
C176 C175 1.338 . S
C176 H180 0.931 . S
C177 N174 1.313 . S
C177 N178 1.344 . S
C177 H181 0.930 . S
N178 C175 1.377 . S
N178 C177 1.344 . S
O179 Co171 2.055 . S
O179 C183 1.253 . S
H180 C176 0.931 . S
H181 C177 0.930 . S
O182 Co171 2.039 . S
O182 C172 1.265 . S
C183 O179 1.253 . S
C183 O184 1.227 . S
O184 C183 1.227 . S
N185 Co171 2.140 . S
N185 C188 1.346 . S
N185 C189 1.345 . S
C186 C187 1.387 . S
C186 C190 1.391 . S
C187 C186 1.387 . S
C187 C188 1.369 . S
C187 H196 0.929 . S
C188 N185 1.346 . S
C188 C187 1.369 . S
C188 H191 0.928 . S
C189 N185 1.345 . S
C189 C190 1.371 . S
C189 H192 0.931 . S
C190 C186 1.391 . S
C190 C189 1.371 . S
C190 H197 0.930 . S
H191 C188 0.928 . S
H192 C189 0.931 . S
H193 C169 0.930 . S
H194 C166 0.930 . S
H195 C175 0.930 . S
H196 C187 0.929 . S
H197 C190 0.930 . S
C198 C199 1.351 . S
C198 N201 1.368 . S
C198 H203 0.931 . S
C199 C198 1.351 . S
C199 N200 1.373 . S
C199 H227 0.930 . S
N200 C199 1.373 . S
N200 C202 1.340 . S
N201 C198 1.368 . S
N201 C202 1.321 . S
N201 Co204 2.135 . S
C202 N200 1.340 . S
C202 N201 1.321 . S
C202 H226 0.930 . S
H203 C198 0.931 . S
Co204 N201 2.135 . S
Co204 N207 2.121 . S
Co204 O212 2.055 . S
Co204 O215 2.039 . S
Co204 N218 2.140 . S
C205 O206 1.227 . S
C205 O215 1.265 . S
O206 C205 1.227 . S
N207 Co204 2.121 . S
N207 C209 1.375 . S
N207 C210 1.313 1_655 S
C208 C209 1.338 1_455 S
C208 N211 1.377 . S
C208 H228 0.930 . S
C209 N207 1.375 . S
C209 C208 1.338 1_655 S
C209 H213 0.931 . S
C210 N207 1.313 1_455 S
C210 N211 1.344 . S
C210 H214 0.930 . S
N211 C208 1.377 . S
N211 C210 1.344 . S
O212 Co204 2.055 . S
O212 C216 1.253 1_655 S
H213 C209 0.931 . S
H214 C210 0.930 . S
O215 Co204 2.039 . S
O215 C205 1.265 . S
C216 O212 1.253 1_455 S
C216 O217 1.227 . S
O217 C216 1.227 . S
N218 Co204 2.140 . S
N218 C221 1.346 . S
N218 C222 1.345 . S
C219 C220 1.387 . S
C219 C223 1.395 . S
C220 C219 1.387 . S
C220 C221 1.369 . S
C220 H229 0.929 . S
C221 N218 1.346 . S
C221 C220 1.369 . S
C221 H224 0.928 . S
C222 N218 1.345 . S
C222 C223 1.372 . S
C222 H225 0.931 1_655 S
C223 C219 1.395 . S
C223 C222 1.372 . S
C223 H230 0.925 1_655 S
H224 C221 0.928 . S
H225 C222 0.931 1_455 S
H226 C202 0.930 . S
H227 C199 0.930 . S
H228 C208 0.930 . S
H229 C220 0.929 . S
H230 C223 0.925 1_455 S
C231 C232 1.351 . S
C231 N234 1.368 . S
C231 H236 0.931 . S
C232 C231 1.351 . S
C232 N233 1.373 . S
C232 H260 0.930 . S
N233 C232 1.373 . S
N233 C235 1.340 . S
N234 C231 1.368 . S
N234 C235 1.321 . S
N234 Co237 2.135 . S
C235 N233 1.340 . S
C235 N234 1.321 . S
C235 H259 0.930 . S
H236 C231 0.931 . S
Co237 N234 2.135 . S
Co237 N240 2.121 . S
Co237 O245 2.055 . S
Co237 O248 2.039 . S
Co237 N251 2.140 . S
C238 O239 1.227 . S
C238 O248 1.265 . S
O239 C238 1.227 . S
N240 Co237 2.121 . S
N240 C242 1.375 . S
N240 C243 1.313 . S
C241 C242 1.338 . S
C241 N244 1.377 . S
C241 H261 0.930 . S
C242 N240 1.375 . S
C242 C241 1.338 . S
C242 H246 0.931 . S
C243 N240 1.313 . S
C243 N244 1.344 . S
C243 H247 0.930 . S
N244 C241 1.377 . S
N244 C243 1.344 . S
O245 Co237 2.055 . S
O245 C249 1.253 . S
H246 C242 0.931 . S
H247 C243 0.930 . S
O248 Co237 2.039 . S
O248 C238 1.265 . S
C249 O245 1.253 . S
C249 O250 1.227 . S
O250 C249 1.227 . S
N251 Co237 2.140 . S
N251 C254 1.346 . S
N251 C255 1.345 . S
C252 C253 1.387 . S
C252 C256 1.391 . S
C253 C252 1.387 . S
C253 C254 1.369 . S
C253 H262 0.929 . S
C254 N251 1.346 . S
C254 C253 1.369 . S
C254 H257 0.928 . S
C255 N251 1.345 . S
C255 C256 1.371 . S
C255 H258 0.931 . S
C256 C252 1.391 . S
C256 C255 1.371 . S
C256 H263 0.930 . S
H257 C254 0.928 . S
H258 C255 0.931 . S
H259 C235 0.930 . S
H260 C232 0.930 . S
H261 C241 0.930 . S
H262 C253 0.929 . S
H263 C256 0.930 . S
C264 C265 1.363 1_556 S
C264 C270 1.379 1_545 S
C264 N272 1.356 . S
C265 C264 1.363 1_554 S
C265 C271 1.363 1_655 S
C266 C267 1.363 1_554 S
C266 C271 1.379 1_565 S
C266 N273 1.356 . S
C267 C266 1.363 1_556 S
C267 C270 1.363 1_455 S
N268 C270 1.356 . S
N268 H280 0.984 . S
N268 H281 0.985 . S
N269 C271 1.356 . S
N269 H274 0.984 . S
N269 H275 0.985 . S
C270 C264 1.379 1_565 S
C270 C267 1.363 1_655 S
C270 N268 1.356 . S
C271 C265 1.363 1_455 S
C271 C266 1.379 1_545 S
C271 N269 1.356 . S
N272 C264 1.356 . S
N272 H278 0.984 . S
N272 H279 0.984 . S
N273 C266 1.356 . S
N273 H276 0.984 . S
N273 H277 0.985 . S
H274 N269 0.984 . S
H275 N269 0.985 . S
H276 N273 0.984 . S
H277 N273 0.985 . S
H278 N272 0.984 . S
H279 N272 0.984 . S
H280 N268 0.984 . S
H281 N268 0.985 . S
C282 C283 1.360 1_565 S
C282 C288 1.381 . S
C282 N290 1.355 1_565 S
C283 C282 1.360 1_545 S
C283 C289 1.363 1_556 S
C284 C285 1.360 1_545 S
C284 C289 1.381 . S
C284 N291 1.355 1_545 S
C285 C284 1.360 1_565 S
C285 C288 1.363 1_554 S
N286 C288 1.356 . S
N286 H298 0.984 . S
N286 H299 0.995 . S
N287 C289 1.356 . S
N287 H292 0.995 . S
N287 H293 0.985 . S
C288 C282 1.381 . S
C288 C285 1.363 1_556 S
C288 N286 1.356 . S
C289 C283 1.363 1_554 S
C289 C284 1.381 . S
C289 N287 1.356 . S
N290 C282 1.355 1_545 S
N290 H296 0.984 1_545 S
N290 H297 0.984 . S
N291 C284 1.355 1_565 S
N291 H294 0.984 . S
N291 H295 0.985 1_565 S
H292 N287 0.995 . S
H293 N287 0.985 . S
H294 N291 0.984 . S
H295 N291 0.985 1_545 S
H296 N290 0.984 1_565 S
H297 N290 0.984 . S
H298 N286 0.984 . S
H299 N286 0.995 . S
C300 C301 1.363 . S
C300 C306 1.379 1_455 S
C300 N308 1.356 . S
C301 C300 1.363 . S
C301 C307 1.363 . S
C302 C303 1.363 . S
C302 C307 1.379 1_655 S
C302 N309 1.356 . S
C303 C302 1.363 . S
C303 C306 1.363 . S
N304 C306 1.356 . S
N304 H316 0.987 . S
N304 H317 0.985 . S
N305 C307 1.356 . S
N305 H310 0.984 . S
N305 H311 0.987 . S
C306 C300 1.379 1_655 S
C306 C303 1.363 . S
C306 N304 1.356 . S
C307 C301 1.363 . S
C307 C302 1.379 1_455 S
C307 N305 1.356 . S
N308 C300 1.356 . S
N308 H314 0.984 . S
N308 H315 0.984 . S
N309 C302 1.356 . S
N309 H312 0.984 . S
N309 H313 0.985 . S
H310 N305 0.984 . S
H311 N305 0.987 . S
H312 N309 0.984 . S
H313 N309 0.985 . S
H314 N308 0.984 . S
H315 N308 0.984 . S
H316 N304 0.987 . S
H317 N304 0.985 . S
C318 C319 1.363 . S
C318 C324 1.379 . S
C318 N326 1.356 . S
C319 C318 1.363 . S
C319 C325 1.363 . S
C320 C321 1.363 . S
C320 C325 1.379 . S
C320 N327 1.356 . S
C321 C320 1.363 . S
C321 C324 1.363 . S
N322 C324 1.356 . S
N322 H334 0.984 . S
N322 H335 0.985 . S
N323 C325 1.356 . S
N323 H328 0.984 . S
N323 H329 0.985 . S
C324 C318 1.379 . S
C324 C321 1.363 . S
C324 N322 1.356 . S
C325 C319 1.363 . S
C325 C320 1.379 . S
C325 N323 1.356 . S
N326 C318 1.356 . S
N326 H332 0.984 . S
N326 H333 0.984 . S
N327 C320 1.356 . S
N327 H330 0.984 . S
N327 H331 0.985 . S
H328 N323 0.984 . S
H329 N323 0.985 . S
H330 N327 0.984 . S
H331 N327 0.985 . S
H332 N326 0.984 . S
H333 N326 0.984 . S
H334 N322 0.984 . S
H335 N322 0.985 . S
C336 C337 1.363 . S
C336 C342 1.379 1_565 S
C336 N344 1.356 . S
C337 C336 1.363 . S
C337 C343 1.363 . S
C338 C339 1.363 . S
C338 C343 1.379 1_545 S
C338 N345 1.356 . S
C339 C338 1.363 . S
C339 C342 1.363 . S
N340 C342 1.356 . S
N340 H352 0.984 . S
N340 H353 0.985 . S
N341 C343 1.356 . S
N341 H346 0.984 . S
N341 H347 0.985 . S
C342 C336 1.379 1_545 S
C342 C339 1.363 . S
C342 N340 1.356 . S
C343 C337 1.363 . S
C343 C338 1.379 1_565 S
C343 N341 1.356 . S
N344 C336 1.356 . S
N344 H350 0.984 . S
N344 H351 0.984 . S
N345 C338 1.356 . S
N345 H348 0.984 . S
N345 H349 0.985 . S
H346 N341 0.984 . S
H347 N341 0.985 . S
H348 N345 0.984 . S
H349 N345 0.985 . S
H350 N344 0.984 . S
H351 N344 0.984 . S
H352 N340 0.984 . S
H353 N340 0.985 . S
C354 C355 1.363 . S
C354 C360 1.379 . S
C354 N362 1.356 . S
C355 C354 1.363 . S
C355 C361 1.363 . S
C356 C357 1.363 . S
C356 C361 1.379 . S
C356 N363 1.356 . S
C357 C356 1.363 . S
C357 C360 1.363 . S
N358 C360 1.356 . S
N358 H370 0.984 . S
N358 H371 0.985 . S
N359 C361 1.356 . S
N359 H364 0.984 . S
N359 H365 0.985 . S
C360 C354 1.379 . S
C360 C357 1.363 . S
C360 N358 1.356 . S
C361 C355 1.363 . S
C361 C356 1.379 . S
C361 N359 1.356 . S
N362 C354 1.356 . S
N362 H368 0.984 . S
N362 H369 0.984 . S
N363 C356 1.356 . S
N363 H366 0.984 . S
N363 H367 0.985 . S
H364 N359 0.984 . S
H365 N359 0.985 . S
H366 N363 0.984 . S
H367 N363 0.985 . S
H368 N362 0.984 . S
H369 N362 0.984 . S
H370 N358 0.984 . S
H371 N358 0.985 . S
C372 C373 1.363 . S
C372 C378 1.379 1_565 S
C372 N380 1.356 . S
C373 C372 1.363 . S
C373 C379 1.363 . S
C374 C375 1.363 . S
C374 C379 1.379 1_545 S
C374 N381 1.356 . S
C375 C374 1.363 . S
C375 C378 1.363 . S
N376 C378 1.356 . S
N376 H388 0.984 . S
N376 H389 0.985 . S
N377 C379 1.356 . S
N377 H382 0.984 . S
N377 H383 0.985 . S
C378 C372 1.379 1_545 S
C378 C375 1.363 . S
C378 N376 1.356 . S
C379 C373 1.363 . S
C379 C374 1.379 1_565 S
C379 N377 1.356 . S
N380 C372 1.356 . S
N380 H386 0.984 . S
N380 H387 0.984 . S
N381 C374 1.356 . S
N381 H384 0.984 . S
N381 H385 0.985 . S
H382 N377 0.984 . S
H383 N377 0.985 . S
H384 N381 0.984 . S
H385 N381 0.985 . S
H386 N380 0.984 . S
H387 N380 0.984 . S
H388 N376 0.984 . S
H389 N376 0.985 . S
C390 C391 1.363 . S
C390 C396 1.379 . S
C390 N398 1.356 . S
C391 C390 1.363 . S
C391 C397 1.363 . S
C392 C393 1.363 . S
C392 C397 1.379 . S
C392 N399 1.356 . S
C393 C392 1.363 . S
C393 C396 1.363 . S
N394 C396 1.356 . S
N394 H406 0.984 . S
N394 H407 0.985 . S
N395 C397 1.356 . S
N395 H400 0.984 . S
N395 H401 0.985 . S
C396 C390 1.379 . S
C396 C393 1.363 . S
C396 N394 1.356 . S
C397 C391 1.363 . S
C397 C392 1.379 . S
C397 N395 1.356 . S
N398 C390 1.356 . S
N398 H404 0.984 . S
N398 H405 0.984 . S
N399 C392 1.356 . S
N399 H402 0.984 . S
N399 H403 0.985 . S
H400 N395 0.984 . S
H401 N395 0.985 . S
H402 N399 0.984 . S
H403 N399 0.985 . S
H404 N398 0.984 . S
H405 N398 0.984 . S
H406 N394 0.984 . S
H407 N394 0.985 . S
C408 C409 1.363 1_556 S
C408 C414 1.379 . S
C408 N416 1.356 . S
C409 C408 1.363 1_554 S
C409 C415 1.363 . S
C410 C411 1.363 1_554 S
C410 C415 1.379 . S
C410 N417 1.356 . S
C411 C410 1.363 1_556 S
C411 C414 1.363 . S
N412 C414 1.356 . S
N412 H424 0.984 . S
N412 H425 0.985 . S
N413 C415 1.356 . S
N413 H418 0.984 . S
N413 H419 0.985 . S
C414 C408 1.379 . S
C414 C411 1.363 . S
C414 N412 1.356 . S
C415 C409 1.363 . S
C415 C410 1.379 . S
C415 N413 1.356 . S
N416 C408 1.356 . S
N416 H422 0.984 . S
N416 H423 0.984 . S
N417 C410 1.356 . S
N417 H420 0.984 . S
N417 H421 0.985 . S
H418 N413 0.984 . S
H419 N413 0.985 . S
H420 N417 0.984 . S
H421 N417 0.985 . S
H422 N416 0.984 . S
H423 N416 0.984 . S
H424 N412 0.984 . S
H425 N412 0.985 . S
C426 C427 1.363 . S
C426 C432 1.379 . S
C426 N434 1.356 . S
C427 C426 1.363 . S
C427 C433 1.363 1_556 S
C428 C429 1.363 . S
C428 C433 1.379 . S
C428 N435 1.356 . S
C429 C428 1.363 . S
C429 C432 1.363 1_554 S
N430 C432 1.356 . S
N430 H442 0.984 . S
N430 H443 0.985 . S
N431 C433 1.356 . S
N431 H436 0.984 . S
N431 H437 0.985 . S
C432 C426 1.379 . S
C432 C429 1.363 1_556 S
C432 N430 1.356 . S
C433 C427 1.363 1_554 S
C433 C428 1.379 . S
C433 N431 1.356 . S
N434 C426 1.356 . S
N434 H440 0.984 . S
N434 H441 0.984 . S
N435 C428 1.356 . S
N435 H438 0.984 . S
N435 H439 0.985 . S
H436 N431 0.984 . S
H437 N431 0.985 . S
H438 N435 0.984 . S
H439 N435 0.985 . S
H440 N434 0.984 . S
H441 N434 0.984 . S
H442 N430 0.984 . S
H443 N430 0.985 . S
C444 C445 1.363 . S
C444 C450 1.379 . S
C444 N452 1.356 . S
C445 C444 1.363 . S
C445 C451 1.363 . S
C446 C447 1.363 . S
C446 C451 1.379 . S
C446 N453 1.356 . S
C447 C446 1.363 . S
C447 C450 1.363 . S
N448 C450 1.356 . S
N448 H460 0.984 . S
N448 H461 0.985 . S
N449 C451 1.356 . S
N449 H454 0.984 . S
N449 H455 0.985 . S
C450 C444 1.379 . S
C450 C447 1.363 . S
C450 N448 1.356 . S
C451 C445 1.363 . S
C451 C446 1.379 . S
C451 N449 1.356 . S
N452 C444 1.356 . S
N452 H458 0.984 . S
N452 H459 0.984 . S
N453 C446 1.356 . S
N453 H456 0.984 . S
N453 H457 0.985 . S
H454 N449 0.984 . S
H455 N449 0.985 . S
H456 N453 0.984 . S
H457 N453 0.985 . S
H458 N452 0.984 . S
H459 N452 0.984 . S
H460 N448 0.984 . S
H461 N448 0.985 . S
C462 C463 1.363 . S
C462 C468 1.379 . S
C462 N470 1.356 . S
C463 C462 1.363 . S
C463 C469 1.363 . S
C464 C465 1.363 . S
C464 C469 1.379 . S
C464 N471 1.356 . S
C465 C464 1.363 . S
C465 C468 1.363 . S
N466 C468 1.356 . S
N466 H478 0.984 . S
N466 H479 0.985 . S
N467 C469 1.356 . S
N467 H472 0.984 . S
N467 H473 0.985 . S
C468 C462 1.379 . S
C468 C465 1.363 . S
C468 N466 1.356 . S
C469 C463 1.363 . S
C469 C464 1.379 . S
C469 N467 1.356 . S
N470 C462 1.356 . S
N470 H476 0.984 . S
N470 H477 0.984 . S
N471 C464 1.356 . S
N471 H474 0.984 . S
N471 H475 0.985 . S
H472 N467 0.984 . S
H473 N467 0.985 . S
H474 N471 0.984 . S
H475 N471 0.985 . S
H476 N470 0.984 . S
H477 N470 0.984 . S
H478 N466 0.984 . S
H479 N466 0.985 . S
C480 C481 1.363 1_556 S
C480 C486 1.379 . S
C480 N488 1.356 . S
C481 C480 1.363 1_554 S
C481 C487 1.363 . S
C482 C483 1.363 1_554 S
C482 C487 1.379 . S
C482 N489 1.356 . S
C483 C482 1.363 1_556 S
C483 C486 1.363 . S
N484 C486 1.356 . S
N484 H496 0.984 . S
N484 H497 0.985 . S
N485 C487 1.356 . S
N485 H490 0.984 . S
N485 H491 0.985 . S
C486 C480 1.379 . S
C486 C483 1.363 . S
C486 N484 1.356 . S
C487 C481 1.363 . S
C487 C482 1.379 . S
C487 N485 1.356 . S
N488 C480 1.356 . S
N488 H494 0.984 . S
N488 H495 0.984 . S
N489 C482 1.356 . S
N489 H492 0.984 1_554 S
N489 H493 0.985 . S
H490 N485 0.984 . S
H491 N485 0.985 . S
H492 N489 0.984 1_556 S
H493 N489 0.985 . S
H494 N488 0.984 . S
H495 N488 0.984 . S
H496 N484 0.984 . S
H497 N484 0.985 . S
C498 C499 1.363 . S
C498 C504 1.379 . S
C498 N506 1.356 . S
C499 C498 1.363 . S
C499 C505 1.363 1_556 S
C500 C501 1.363 . S
C500 C505 1.379 . S
C500 N507 1.356 . S
C501 C500 1.363 . S
C501 C504 1.363 1_554 S
N502 C504 1.356 . S
N502 H514 0.984 . S
N502 H515 0.985 . S
N503 C505 1.356 . S
N503 H508 0.984 . S
N503 H509 0.985 . S
C504 C498 1.379 . S
C504 C501 1.363 1_556 S
C504 N502 1.356 . S
C505 C499 1.363 1_554 S
C505 C500 1.379 . S
C505 N503 1.356 . S
N506 C498 1.356 . S
N506 H512 0.984 . S
N506 H513 0.984 . S
N507 C500 1.356 . S
N507 H510 0.984 . S
N507 H511 0.985 . S
H508 N503 0.984 . S
H509 N503 0.985 . S
H510 N507 0.984 . S
H511 N507 0.985 . S
H512 N506 0.984 . S
H513 N506 0.984 . S
H514 N502 0.984 . S
H515 N502 0.985 . S
C516 C517 1.363 . S
C516 C522 1.379 . S
C516 N524 1.356 . S
C517 C516 1.363 . S
C517 C523 1.363 . S
C518 C519 1.363 . S
C518 C523 1.379 . S
C518 N525 1.356 . S
C519 C518 1.363 . S
C519 C522 1.363 . S
N520 C522 1.356 . S
N520 H532 0.984 . S
N520 H533 0.985 . S
N521 C523 1.356 . S
N521 H526 0.984 . S
N521 H527 0.985 . S
C522 C516 1.379 . S
C522 C519 1.363 . S
C522 N520 1.356 . S
C523 C517 1.363 . S
C523 C518 1.379 . S
C523 N521 1.356 . S
N524 C516 1.356 . S
N524 H530 0.984 . S
N524 H531 0.984 . S
N525 C518 1.356 . S
N525 H528 0.984 . S
N525 H529 0.985 . S
H526 N521 0.984 . S
H527 N521 0.985 . S
H528 N525 0.984 . S
H529 N525 0.985 . S
H530 N524 0.984 . S
H531 N524 0.984 . S
H532 N520 0.984 . S
H533 N520 0.985 . S
C534 C535 1.363 . S
C534 C540 1.379 . S
C534 N542 1.356 . S
C535 C534 1.363 . S
C535 C541 1.363 . S
C536 C537 1.363 . S
C536 C541 1.379 . S
C536 N543 1.356 . S
C537 C536 1.363 . S
C537 C540 1.363 . S
N538 C540 1.356 . S
N538 H550 0.984 . S
N538 H551 0.985 . S
N539 C541 1.356 . S
N539 H544 0.984 . S
N539 H545 0.985 . S
C540 C534 1.379 . S
C540 C537 1.363 . S
C540 N538 1.356 . S
C541 C535 1.363 . S
C541 C536 1.379 . S
C541 N539 1.356 . S
N542 C534 1.356 . S
N542 H548 0.984 . S
N542 H549 0.984 . S
N543 C536 1.356 . S
N543 H546 0.984 . S
N543 H547 0.985 . S
H544 N539 0.984 . S
H545 N539 0.985 . S
H546 N543 0.984 . S
H547 N543 0.985 . S
H548 N542 0.984 . S
H549 N542 0.984 . S
H550 N538 0.984 . S
H551 N538 0.985 . S
C552 C553 1.363 . S
C552 C558 1.379 . S
C552 N560 1.356 . S
C553 C552 1.363 . S
C553 C559 1.363 . S
C554 C555 1.363 . S
C554 C559 1.379 . S
C554 N561 1.356 1_455 S
C555 C554 1.363 . S
C555 C558 1.363 . S
N556 C558 1.356 . S
N556 H568 0.984 . S
N556 H569 0.985 . S
N557 C559 1.356 1_655 S
N557 H562 0.984 . S
N557 H563 0.985 . S
C558 C552 1.379 . S
C558 C555 1.363 . S
C558 N556 1.356 . S
C559 C553 1.363 . S
C559 C554 1.379 . S
C559 N557 1.356 1_455 S
N560 C552 1.356 . S
N560 H566 0.984 . S
N560 H567 0.984 . S
N561 C554 1.356 1_655 S
N561 H564 0.984 . S
N561 H565 0.985 . S
H562 N557 0.984 . S
H563 N557 0.985 . S
H564 N561 0.984 . S
H565 N561 0.985 . S
H566 N560 0.984 . S
H567 N560 0.984 . S
H568 N556 0.984 . S
H569 N556 0.985 . S
C570 C571 1.363 . S
C570 C576 1.379 . S
C570 N578 1.356 . S
C571 C570 1.363 . S
C571 C577 1.363 . S
C572 C573 1.363 . S
C572 C577 1.379 . S
C572 N579 1.356 . S
C573 C572 1.363 . S
C573 C576 1.363 . S
N574 C576 1.356 . S
N574 H586 0.984 . S
N574 H587 0.985 . S
N575 C577 1.356 . S
N575 H580 0.984 . S
N575 H581 0.985 . S
C576 C570 1.379 . S
C576 C573 1.363 . S
C576 N574 1.356 . S
C577 C571 1.363 . S
C577 C572 1.379 . S
C577 N575 1.356 . S
N578 C570 1.356 . S
N578 H584 0.984 . S
N578 H585 0.984 . S
N579 C572 1.356 . S
N579 H582 0.984 . S
N579 H583 0.985 . S
H580 N575 0.984 . S
H581 N575 0.985 . S
H582 N579 0.984 . S
H583 N579 0.985 . S
H584 N578 0.984 . S
H585 N578 0.984 . S
H586 N574 0.984 . S
H587 N574 0.985 . S
C588 C589 1.363 . S
C588 C594 1.379 . S
C588 N596 1.356 . S
C589 C588 1.363 . S
C589 C595 1.363 . S
C590 C591 1.363 . S
C590 C595 1.379 . S
C590 N597 1.356 1_655 S
C591 C590 1.363 . S
C591 C594 1.363 . S
N592 C594 1.356 . S
N592 H604 0.984 . S
N592 H605 0.985 . S
N593 C595 1.356 1_455 S
N593 H598 0.984 1_455 S
N593 H599 0.985 . S
C594 C588 1.379 . S
C594 C591 1.363 . S
C594 N592 1.356 . S
C595 C589 1.363 . S
C595 C590 1.379 . S
C595 N593 1.356 1_655 S
N596 C588 1.356 . S
N596 H602 0.984 . S
N596 H603 0.984 . S
N597 C590 1.356 1_455 S
N597 H600 0.984 1_455 S
N597 H601 0.985 . S
H598 N593 0.984 1_655 S
H599 N593 0.985 . S
H600 N597 0.984 1_655 S
H601 N597 0.985 . S
H602 N596 0.984 . S
H603 N596 0.984 . S
H604 N592 0.984 . S
H605 N592 0.985 . S
C606 C607 1.363 . S
C606 C612 1.379 . S
C606 N614 1.356 . S
C607 C606 1.363 . S
C607 C613 1.363 . S
C608 C609 1.363 . S
C608 C613 1.379 . S
C608 N615 1.356 . S
C609 C608 1.363 . S
C609 C612 1.363 . S
N610 C612 1.356 . S
N610 H622 0.984 . S
N610 H623 0.985 . S
N611 C613 1.356 . S
N611 H616 0.984 . S
N611 H617 0.985 . S
C612 C606 1.379 . S
C612 C609 1.363 . S
C612 N610 1.356 . S
C613 C607 1.363 . S
C613 C608 1.379 . S
C613 N611 1.356 . S
N614 C606 1.356 . S
N614 H620 0.984 . S
N614 H621 0.984 . S
N615 C608 1.356 . S
N615 H618 0.984 . S
N615 H619 0.985 . S
H616 N611 0.984 . S
H617 N611 0.985 . S
H618 N615 0.984 . S
H619 N615 0.985 . S
H620 N614 0.984 . S
H621 N614 0.984 . S
H622 N610 0.984 . S
H623 N610 0.985 . S
C265 C18 1.377 . S
C267 C150 1.377 . S
C283 C183 1.377 . S
C285 C51 1.377 . S
C301 C216 1.377 . S
C303 C84 1.377 . S
C319 C117 1.377 . S
C321 C249 1.377 . S
C337 N35 0.856 . S
C339 N2 0.856 . S
C355 N68 0.856 . S
C357 N101 0.856 . S
C373 N134 0.856 . S
C375 N167 0.856 . S
C391 N233 0.856 . S
C393 N200 0.856 . S
C409 C7 1.844 . S
C411 N178 1.943 . S
C427 N145 1.943 . S
C429 C40 1.844 . S
C445 N244 1.943 . S
C447 C73 1.844 . S
C463 N211 1.943 . S
C465 C106 1.844 . S
C481 N46 1.943 . S
C483 C139 1.844 . S
C499 C172 1.844 . S
C501 N13 1.943 . S
C517 C205 1.844 . S
C519 N112 1.943 . S
C535 N79 1.943 . S
C537 C238 1.844 . S
C553 C87 1.531 . S
C555 C21 1.531 . S
C571 C54 1.531 . S
C573 C120 1.531 . S
C589 C219 1.531 . S
C591 C153 1.531 . S
C607 C252 1.531 . S
C609 C186 1.531 . S
