# Generated by pormake.
# Topology sra, (4)-cn, num edge types: 1
# Building blocks:
#     Node 0, Type 0, BuildingBlock: QUQFOY_clean_sbu_3, # of connection points: 4
#     Node 1, Type 0, BuildingBlock: QUQFOY_clean_sbu_3, # of connection points: 4
#     Node 2, Type 0, BuildingBlock: QUQFOY_clean_sbu_3, # of connection points: 4
#     Node 3, Type 0, BuildingBlock: QUQFOY_clean_sbu_3, # of connection points: 4
#     Node 4, Type 0, BuildingBlock: QUQFOY_clean_sbu_3, # of connection points: 4
#     Node 5, Type 0, BuildingBlock: QUQFOY_clean_sbu_3, # of connection points: 4
#     Node 6, Type 0, BuildingBlock: QUQFOY_clean_sbu_3, # of connection points: 4
#     Node 7, Type 0, BuildingBlock: QUQFOY_clean_sbu_3, # of connection points: 4
#     Edge 8, Type (0, 0), BuildingBlock: CIFDUS_clean_linker_0, # of connection points: 2
#     Edge 9, Type (0, 0), BuildingBlock: CIFDUS_clean_linker_0, # of connection points: 2
#     Edge 10, Type (0, 0), BuildingBlock: CIFDUS_clean_linker_0, # of connection points: 2
#     Edge 11, Type (0, 0), BuildingBlock: CIFDUS_clean_linker_0, # of connection points: 2
#     Edge 12, Type (0, 0), BuildingBlock: CIFDUS_clean_linker_0, # of connection points: 2
#     Edge 13, Type (0, 0), BuildingBlock: CIFDUS_clean_linker_0, # of connection points: 2
#     Edge 14, Type (0, 0), BuildingBlock: CIFDUS_clean_linker_0, # of connection points: 2
#     Edge 15, Type (0, 0), BuildingBlock: CIFDUS_clean_linker_0, # of connection points: 2
#     Edge 16, Type (0, 0), BuildingBlock: CIFDUS_clean_linker_0, # of connection points: 2
#     Edge 17, Type (0, 0), BuildingBlock: CIFDUS_clean_linker_0, # of connection points: 2
#     Edge 18, Type (0, 0), BuildingBlock: CIFDUS_clean_linker_0, # of connection points: 2
#     Edge 19, Type (0, 0), BuildingBlock: CIFDUS_clean_linker_0, # of connection points: 2
#     Edge 20, Type (0, 0), BuildingBlock: CIFDUS_clean_linker_0, # of connection points: 2
#     Edge 21, Type (0, 0), BuildingBlock: CIFDUS_clean_linker_0, # of connection points: 2
#     Edge 22, Type (0, 0), BuildingBlock: CIFDUS_clean_linker_0, # of connection points: 2
#     Edge 23, Type (0, 0), BuildingBlock: CIFDUS_clean_linker_0, # of connection points: 2
# Relax obj value: 0.028
# Max RMSD: 0.061
# Mean RMSD: 0.061
data_MOF--net-sra--node1-QUQFOY_clean_sbu_3--edge1-CIFDUS_clean_linker_0
_symmetry_space_group_name_H-M    P1
_symmetry_Int_Tables_number       1
_symmetry_cell_setting            triclinic
loop_
_symmetry_equiv_pos_as_xyz
'x, y, z'
_cell_length_a     25.384037
_cell_length_b     48.781011
_cell_length_c     30.001004
_cell_angle_alpha  89.831118
_cell_angle_beta   89.414363
_cell_angle_gamma 89.860588
loop_
_atom_site_label
_atom_site_type_symbol
_atom_site_fract_x
_atom_site_fract_y
_atom_site_fract_z
_atom_type_partial_charge
C0 C 0.09327 0.07975 0.23783 0.0
O1 O 0.06099 0.08509 0.26924 0.0
Cd2 Cd -0.0255 0.10189 0.25221 0.0
O3 O 0.07756 0.07891 0.19766 0.0
Cd4 Cd -0.00453 0.08106 0.15343 0.0
C5 C 0.0093 0.14858 0.16858 0.0
O6 O 0.92786 0.06928 0.20882 0.0
O7 O 0.90117 0.08845 0.14783 0.0
O8 O 0.01348 0.03401 0.13363 0.0
C9 C 0.8897 0.07716 0.18481 0.0
O10 O -0.00413 0.1425 0.2084 0.0
C11 C 0.01096 0.03734 0.09177 0.0
O12 O 0.01336 0.13018 0.1386 0.0
O13 O 0.00327 0.0617 0.0778 0.0
C14 C 0.88891 0.37254 0.20015 0.0
O15 O 0.91574 0.36636 0.23427 0.0
Cd16 Cd 0.00887 0.35741 0.23116 0.0
O17 O 0.91135 0.37619 0.16247 0.0
Cd18 Cd -0.00037 0.37754 0.12765 0.0
C19 C 0.01127 0.3093 0.14557 0.0
O20 O 0.04833 0.39399 0.19129 0.0
O21 O 0.0955 0.37924 0.13615 0.0
O22 O -0.02362 0.42235 0.09884 0.0
C23 C 0.09374 0.38974 0.17478 0.0
O24 O 0.01792 0.31624 0.18606 0.0
C25 C -0.01513 0.4168 0.05812 0.0
O26 O -8e-05 0.32714 0.11591 0.0
O27 O -0.00054 0.39242 0.04914 0.0
C28 C 0.08513 0.88288 0.76246 0.0
O29 O 0.05768 0.87928 0.72782 0.0
Cd30 Cd 0.96717 0.86444 0.73599 0.0
O31 O 0.06317 0.88284 0.80077 0.0
Cd32 Cd -0.02399 0.88153 0.83798 0.0
C33 C -0.016 0.81411 0.81789 0.0
O34 O 0.91455 0.89526 0.77924 0.0
O35 O 0.88137 0.8763 0.83869 0.0
O36 O -0.00559 0.92805 0.85827 0.0
C37 C 0.87393 0.8873 0.80088 0.0
O38 O -0.02374 0.82219 0.77805 0.0
C39 C -0.00803 0.92467 0.90016 0.0
O40 O -0.01291 0.83133 0.84975 0.0
O41 O -0.01755 0.90047 0.91423 0.0
C42 C 0.90802 0.58139 0.74627 0.0
O43 O 0.94133 0.58249 0.71445 0.0
Cd44 Cd 0.03206 0.59474 0.72651 0.0
O45 O 0.92316 0.58343 0.78647 0.0
Cd46 Cd 0.00506 0.58617 0.83057 0.0
C47 C 0.01347 0.65151 0.79626 0.0
O48 O 0.07145 0.56597 0.78055 0.0
O49 O 0.09984 0.58914 0.83691 0.0
O50 O -0.01922 0.54228 0.8605 0.0
C51 C 0.1103 0.57463 0.80292 0.0
O52 O 0.02631 0.63984 0.75977 0.0
C53 C -0.01839 0.54894 0.9013 0.0
O54 O 9e-05 0.63726 0.83035 0.0
O55 O -0.0088 0.57399 0.91004 0.0
C56 C 0.59385 0.5847 0.73144 0.0
O57 O 0.56115 0.59262 0.76105 0.0
Cd58 Cd 0.47011 0.6028 0.74519 0.0
O59 O 0.57839 0.57973 0.69204 0.0
Cd60 Cd 0.49529 0.57858 0.64953 0.0
C61 C 0.48632 0.64731 0.6559 0.0
O62 O 0.42984 0.56586 0.70699 0.0
O63 O 0.40025 0.58146 0.6444 0.0
O64 O 0.51608 0.53177 0.62958 0.0
C65 C 0.39054 0.57116 0.68245 0.0
O66 O 0.47142 0.6423 0.69577 0.0
C67 C 0.51305 0.53515 0.58775 0.0
O68 O 0.50232 0.62804 0.63038 0.0
O69 O 0.50422 0.55943 0.57398 0.0
C70 C 0.39331 0.88111 0.7057 0.0
O71 O 0.42048 0.87733 0.7405 0.0
Cd72 Cd 0.50951 0.86031 0.7328 0.0
O73 O 0.41519 0.87993 0.6674 0.0
Cd74 Cd 0.50226 0.87533 0.63037 0.0
C75 C 0.48728 0.80876 0.65526 0.0
O76 O 0.5635 0.8902 0.68834 0.0
O77 O 0.5969 0.86896 0.63126 0.0
O78 O 0.48538 0.92071 0.60163 0.0
C79 C 0.60422 0.88144 0.66771 0.0
O80 O 0.49506 0.81701 0.69488 0.0
C81 C 0.48924 0.91453 0.5607 0.0
O82 O 0.487 0.82549 0.62251 0.0
O83 O 0.49893 0.88952 0.55152 0.0
C84 C 0.58183 0.37463 0.25869 0.0
O85 O 0.55508 0.36864 0.22453 0.0
Cd86 Cd 0.46386 0.35676 0.2305 0.0
O87 O 0.55938 0.37796 0.29648 0.0
Cd88 Cd 0.47191 0.38026 0.33357 0.0
C89 C 0.47386 0.31167 0.32143 0.0
O90 O 0.42229 0.39325 0.269 0.0
O91 O 0.37546 0.3812 0.32615 0.0
O92 O 0.49621 0.42628 0.35365 0.0
C93 C 0.377 0.38956 0.28604 0.0
O94 O 0.4693 0.31729 0.28014 0.0
C95 C 0.49004 0.42342 0.39538 0.0
O96 O 0.47597 0.33057 0.3507 0.0
O97 O 0.47569 0.39988 0.40933 0.0
C98 C 0.40707 0.08274 0.2498 0.0
O99 O 0.43996 0.08691 0.21833 0.0
Cd100 Cd 0.53124 0.09811 0.23094 0.0
O101 O 0.42234 0.0822 0.29008 0.0
Cd102 Cd 0.50404 0.08464 0.33393 0.0
C103 C 0.51661 0.15134 0.30744 0.0
O104 O 0.56975 0.06648 0.28114 0.0
O105 O 0.59879 0.08665 0.34023 0.0
O106 O 0.48136 0.04016 0.36309 0.0
C107 C 0.60882 0.07383 0.30443 0.0
O108 O 0.53013 0.14162 0.26962 0.0
C109 C 0.48223 0.04665 0.40396 0.0
O110 O 0.50015 0.13561 0.33873 0.0
O111 O 0.4911 0.07172 0.41295 0.0
H112 H 0.07023 0.27155 0.18707 0.0
H113 H 0.95923 0.28071 0.08031 0.0
H114 H 0.95378 0.23061 0.07318 0.0
H115 H 0.97213 0.18415 0.10497 0.0
H116 H 0.08039 0.17701 0.21425 0.0
H117 H 0.09598 0.22624 0.21242 0.0
C118 C 0.04534 0.26262 0.16179 0.0
C119 C 0.01456 0.27974 0.13475 0.0
C120 C 0.04181 0.23407 0.15854 0.0
C121 C -0.01677 0.26791 0.10161 0.0
C122 C -0.02012 0.23927 0.09776 0.0
C123 C 7e-05 0.19343 0.12745 0.0
C124 C 0.02505 0.17715 0.15982 0.0
C125 C 0.00775 0.22211 0.12706 0.0
C126 C 0.06069 0.18927 0.18922 0.0
C127 C 0.06947 0.2174 0.18831 0.0
H128 H 0.01875 0.77803 0.75757 0.0
H129 H 0.96595 0.78315 0.89428 0.0
H130 H 0.97143 0.73286 0.90095 0.0
H131 H -0.01273 0.68703 0.8654 0.0
H132 H 0.04058 0.68503 0.72794 0.0
H133 H 0.03845 0.73437 0.72435 0.0
C134 C 0.00837 0.76825 0.789 0.0
C135 C -0.00873 0.78426 0.82516 0.0
C136 C 0.01142 0.73974 0.79238 0.0
C137 C -0.02085 0.77124 0.86586 0.0
C138 C -0.01796 0.7425 0.86955 0.0
C139 C -0.00142 0.69744 0.83481 0.0
C140 C 0.01356 0.68201 0.79694 0.0
C141 C -0.00254 0.72643 0.83268 0.0
C142 C 0.02846 0.69601 0.75766 0.0
C143 C 0.02737 0.7244 0.75541 0.0
H144 H 0.42194 0.6871 0.68533 0.0
H145 H 0.55049 0.67254 0.59342 0.0
H146 H 0.55818 0.72211 0.57981 0.0
H147 H 0.53499 0.77003 0.60217 0.0
H148 H 0.40883 0.78268 0.69728 0.0
H149 H 0.39301 0.73349 0.70115 0.0
C150 C 0.45131 0.69471 0.66188 0.0
C151 C 0.48614 0.67627 0.64097 0.0
C152 C 0.45595 0.72297 0.65497 0.0
C153 C 0.52329 0.68638 0.61003 0.0
C154 C 0.52787 0.71471 0.60248 0.0
C155 C 0.50331 0.7619 0.62276 0.0
C156 C 0.47306 0.77976 0.6495 0.0
C157 C 0.4954 0.7333 0.62585 0.0
C158 C 0.43253 0.76917 0.67657 0.0
C159 C 0.42361 0.74108 0.67891 0.0
H160 H 0.54302 0.27803 0.28337 0.0
H161 H 0.42276 0.28056 0.38543 0.0
H162 H 0.42828 0.23034 0.39388 0.0
H163 H 0.4614 0.18522 0.36528 0.0
H164 H 0.58188 0.18513 0.26247 0.0
H165 H 0.58264 0.23478 0.26167 0.0
C166 C 0.51858 0.26759 0.30797 0.0
C167 C 0.48226 0.28268 0.33342 0.0
C168 C 0.52178 0.23909 0.3122 0.0
C169 C 0.45113 0.26918 0.36556 0.0
C170 C 0.45407 0.24051 0.37009 0.0
C171 C 0.48833 0.19614 0.34334 0.0
C172 C 0.52076 0.18141 0.31334 0.0
C173 C 0.48834 0.22512 0.34263 0.0
C174 C 0.55569 0.19588 0.28524 0.0
C175 C 0.55632 0.22434 0.28475 0.0
H176 H 0.326 0.07748 0.30928 0.0
H177 H 0.36026 0.08063 0.16805 0.0
H178 H 0.26634 0.07791 0.15202 0.0
H179 H 0.17445 0.07723 0.17805 0.0
H180 H 0.14015 0.07562 0.31932 0.0
H181 H 0.23427 0.07489 0.33524 0.0
C182 C 0.31306 0.07739 0.27494 0.0
C183 C 0.35029 0.07941 0.23995 0.0
C184 C 0.25895 0.07613 0.26593 0.0
C185 C 0.3326 0.07922 0.19569 0.0
C186 C 0.27884 0.07767 0.18646 0.0
C187 C 0.18746 0.07641 0.21235 0.0
C188 C 0.15015 0.07657 0.24742 0.0
C189 C 0.24165 0.07648 0.22132 0.0
C190 C 0.1679 0.0756 0.29165 0.0
C191 C 0.22176 0.07524 0.30081 0.0
H192 H 0.64171 0.37616 0.18304 0.0
H193 H 0.65239 0.37745 0.32659 0.0
H194 H 0.7483 0.37752 0.32116 0.0
H195 H 0.82915 0.37536 0.2758 0.0
H196 H 0.81838 0.37491 0.13224 0.0
H197 H 0.72252 0.37644 0.13767 0.0
C198 C 0.66498 0.37658 0.21315 0.0
C199 C 0.63984 0.37662 0.25512 0.0
C200 C 0.72014 0.37667 0.20985 0.0
C201 C 0.67066 0.37741 0.29381 0.0
C202 C 0.72556 0.37736 0.29078 0.0
C203 C 0.80585 0.37566 0.2457 0.0
C204 C 0.83093 0.37482 0.20373 0.0
C205 C 0.75071 0.37668 0.24899 0.0
C206 C 0.80014 0.37552 0.16502 0.0
C207 C 0.74527 0.37634 0.16805 0.0
H208 H 0.14593 0.88646 0.68695 0.0
H209 H 0.15537 0.88566 0.83059 0.0
H210 H 0.25118 0.8866 0.82585 0.0
H211 H 0.33264 0.88492 0.78114 0.0
H212 H 0.32336 0.8859 0.6375 0.0
H213 H 0.22754 0.88786 0.64223 0.0
C214 C 0.16889 0.8867 0.71723 0.0
C215 C 0.14325 0.88577 0.75901 0.0
C216 C 0.22423 0.8872 0.71436 0.0
C217 C 0.17383 0.88627 0.7979 0.0
C218 C 0.22878 0.88676 0.79528 0.0
C219 C 0.30974 0.88581 0.75085 0.0
C220 C 0.33539 0.88505 0.70907 0.0
C221 C 0.25444 0.88682 0.75371 0.0
C222 C 0.30487 0.88636 0.67018 0.0
C223 C 0.24992 0.88741 0.6728 0.0
H224 H 0.67555 0.57503 0.67397 0.0
H225 H 0.64007 0.58937 0.81306 0.0
H226 H 0.73387 0.5882 0.83008 0.0
H227 H 0.82598 0.58514 0.80513 0.0
H228 H 0.86163 0.57217 0.66571 0.0
H229 H 0.76767 0.57066 0.64934 0.0
C230 C 0.68821 0.57771 0.70809 0.0
C231 C 0.65065 0.58236 0.74214 0.0
C232 C 0.7423 0.57736 0.71761 0.0
C233 C 0.66799 0.58585 0.78613 0.0
C234 C 0.72169 0.5852 0.79592 0.0
C235 C 0.81331 0.58178 0.77117 0.0
C236 C 0.85099 0.57885 0.73671 0.0
C237 C 0.7592 0.58128 0.76186 0.0
C238 C 0.83363 0.57459 0.69291 0.0
C239 C 0.77984 0.57373 0.68348 0.0
H240 H 0.63219 0.88856 0.75407 0.0
H241 H 0.69654 0.88171 0.62097 0.0
H242 H 0.78587 0.88524 0.65 0.0
H243 H 0.84603 0.88796 0.7137 0.0
H244 H 0.78171 0.89081 0.84719 0.0
H245 H 0.6923 0.89134 0.81772 0.0
C246 C 0.66581 0.88811 0.73147 0.0
C247 C 0.65786 0.88495 0.6855 0.0
C248 C 0.71713 0.88935 0.74852 0.0
C249 C 0.70173 0.88403 0.65656 0.0
C250 C 0.7528 0.88608 0.67311 0.0
C251 C 0.81238 0.88901 0.73622 0.0
C252 C 0.82033 0.88946 0.78248 0.0
C253 C 0.76104 0.88842 0.71908 0.0
C254 C 0.77647 0.8904 0.81141 0.0
C255 C 0.72536 0.89069 0.7946 0.0
H256 H 0.35539 0.57038 0.76821 0.0
H257 H 0.30291 0.56519 0.63223 0.0
H258 H 0.21128 0.56315 0.65778 0.0
H259 H 0.14575 0.56589 0.71853 0.0
H260 H 0.19803 0.57504 0.85397 0.0
H261 H 0.28988 0.57229 0.82908 0.0
C262 C 0.32386 0.56846 0.74429 0.0
C263 C 0.33576 0.5679 0.69848 0.0
C264 C 0.2712 0.56814 0.75914 0.0
C265 C 0.2946 0.56577 0.66771 0.0
C266 C 0.24224 0.56459 0.68227 0.0
C267 C 0.17731 0.5669 0.74258 0.0
C268 C 0.1653 0.57059 0.78796 0.0
C269 C 0.23001 0.5662 0.72786 0.0
C270 C 0.20645 0.57227 0.8188 0.0
C271 C 0.25893 0.57072 0.8046 0.0
H272 H 0.64416 0.07266 0.21884 0.0
H273 H 0.6961 0.06865 0.3551 0.0
H274 H 0.78798 0.06738 0.32996 0.0
H275 H 0.85361 0.07014 0.26944 0.0
H276 H 0.80189 0.07807 0.13349 0.0
H277 H 0.71 0.0751 0.15814 0.0
C278 C 0.67567 0.07112 0.24289 0.0
C279 C 0.66362 0.0706 0.28866 0.0
C280 C 0.72841 0.07136 0.22824 0.0
C281 C 0.70464 0.06909 0.31964 0.0
C282 C 0.7571 0.06841 0.30531 0.0
C283 C 0.82219 0.07098 0.24523 0.0
C284 C 0.83441 0.0743 0.19978 0.0
C285 C 0.76948 0.06997 0.25974 0.0
C286 C 0.79338 0.07565 0.16874 0.0
C287 C 0.74086 0.0739 0.18278 0.0
H288 H 0.19484 0.39073 0.14507 0.0
H289 H 0.09995 0.39507 0.265 0.0
H290 H 0.17944 0.39597 0.3102 0.0
H291 H 0.27593 0.39336 0.31572 0.0
H292 H 0.37069 0.39065 0.19556 0.0
H293 H 0.29126 0.39137 0.15036 0.0
C294 C 0.19163 0.39203 0.18109 0.0
C295 C 0.14171 0.39262 0.2017 0.0
C296 C 0.23743 0.39273 0.20681 0.0
C297 C 0.13801 0.39461 0.24835 0.0
C298 C 0.18341 0.39502 0.27423 0.0
C299 C 0.2791 0.39303 0.27964 0.0
C300 C 0.32896 0.39172 0.259 0.0
C301 C 0.23331 0.39373 0.25384 0.0
C302 C 0.33267 0.39165 0.21223 0.0
C303 C 0.2873 0.39199 0.18635 0.0
H304 H 0.00904 0.03758 0.00101 0.0
H305 H 0.01717 -0.01667 0.11464 0.0
H306 H 0.0128 0.9436 0.06571 0.0
H307 H 0.00277 0.9241 -0.00934 0.0
H308 H -0.00377 0.97853 0.87715 0.0
H309 H 0.00387 0.01811 0.92588 0.0
C310 C 0.0103 0.01707 0.01502 0.0
C311 C 0.01318 0.01349 0.06139 0.0
C312 C 0.0077 -0.00577 -0.0133 0.0
C313 C 0.01494 -0.01327 0.07902 0.0
C314 C 0.01226 0.96394 0.05108 0.0
C315 C 0.00316 0.94462 0.97665 0.0
C316 C -0.00142 0.9483 0.93039 0.0
C317 C 0.00793 0.96743 0.00489 0.0
C318 C -0.0004 0.97505 0.91268 0.0
C319 C 0.00394 -0.00223 0.94052 0.0
H320 H -0.02066 0.49403 0.8896 0.0
H321 H 0.9718 0.55611 -0.00829 0.0
H322 H 0.96907 0.52039 0.04925 0.0
H323 H 0.97345 0.47164 0.07033 0.0
H324 H -0.01417 0.40997 0.96781 0.0
H325 H -0.01804 0.44557 0.91043 0.0
C326 C -0.02343 0.49982 0.92442 0.0
C327 C -0.0243 0.52772 0.93637 0.0
C328 C -0.02378 0.47926 0.95717 0.0
C329 C 0.97251 0.5348 0.98165 0.0
C330 C 0.97106 0.51439 0.01452 0.0
C331 C -0.0251 0.46596 0.03542 0.0
C332 C -0.02004 0.43818 0.02333 0.0
C333 C 0.97361 0.48657 0.00265 0.0
C334 C -0.01789 0.43118 0.97798 0.0
C335 C -0.02013 0.45152 0.94518 0.0
H336 H 0.50039 0.42248 0.48575 0.0
H337 H 0.49763 0.47722 0.37253 0.0
H338 H 0.50716 0.51658 0.42161 0.0
H339 H 0.51251 0.53575 0.49699 0.0
H340 H 0.51761 0.48105 0.61021 0.0
H341 H 0.51158 0.44155 0.56092 0.0
C342 C 0.50201 0.44302 0.47189 0.0
C343 C 0.49789 0.4469 0.42565 0.0
C344 C 0.50805 0.46564 0.50029 0.0
C345 C 0.50063 0.47364 0.40807 0.0
C346 C 0.50604 0.49621 0.4361 0.0
C347 C 0.51282 0.51519 0.51082 0.0
C348 C 0.51521 0.51141 0.55719 0.0
C349 C 0.50932 0.49249 0.48229 0.0
C350 C 0.5158 0.48459 0.57459 0.0
C351 C 0.51212 0.46194 0.54646 0.0
H352 H 0.4793 0.96939 0.57282 0.0
H353 H 0.48768 0.90756 0.47029 0.0
H354 H 0.48242 0.94314 0.41292 0.0
H355 H 0.47945 -0.00831 0.39205 0.0
H356 H 0.47488 0.05371 0.49438 0.0
H357 H 0.47414 0.01801 0.55188 0.0
C358 C 0.47968 0.96365 0.53792 0.0
C359 C 0.48401 0.93584 0.52583 0.0
C360 C 0.47732 -0.01579 0.50518 0.0
C361 C 0.48455 0.92879 0.48048 0.0
C362 C 0.48152 0.94912 0.44768 0.0
C363 C 0.47777 -0.00255 0.42693 0.0
C364 C 0.47721 0.02534 0.43894 0.0
C365 C 0.47842 0.97688 0.45968 0.0
C366 C 0.47534 0.03241 0.48427 0.0
C367 C 0.47505 0.01201 0.51712 0.0
loop_
_geom_bond_atom_site_label_1
_geom_bond_atom_site_label_2
_geom_bond_distance
_geom_bond_site_symmetry_2
_ccdc_geom_bond_type
C0 O1 1.306 . S
C0 O3 1.160 . S
O1 C0 1.306 . S
O1 Cd2 2.228 . S
Cd2 O1 2.228 . S
Cd2 O6 2.273 1_455 S
Cd2 O10 2.277 . S
O3 C0 1.160 . S
O3 Cd4 2.203 . S
Cd4 O3 2.203 . S
Cd4 O6 2.411 1_455 S
Cd4 O7 2.333 1_455 S
Cd4 O8 2.352 . S
Cd4 O12 2.277 . S
Cd4 O13 2.356 . S
C5 O10 1.209 . S
C5 O12 1.226 . S
O6 Cd2 2.273 1_655 S
O6 Cd4 2.411 1_655 S
O6 C9 1.320 . S
O7 Cd4 2.333 1_655 S
O7 C9 1.214 . S
O8 Cd4 2.352 . S
O8 C11 1.258 . S
C9 O6 1.320 . S
C9 O7 1.214 . S
O10 Cd2 2.277 . S
O10 C5 1.209 . S
C11 O8 1.258 . S
C11 O13 1.282 . S
O12 Cd4 2.277 . S
O12 C5 1.226 . S
O13 Cd4 2.356 . S
O13 C11 1.282 . S
C14 O15 1.306 . S
C14 O17 1.160 . S
O15 C14 1.306 . S
O15 Cd16 2.228 1_655 S
Cd16 O15 2.228 1_455 S
Cd16 O20 2.273 . S
Cd16 O24 2.277 . S
O17 C14 1.160 . S
O17 Cd18 2.203 1_655 S
Cd18 O17 2.203 1_455 S
Cd18 O20 2.411 . S
Cd18 O21 2.333 . S
Cd18 O22 2.352 . S
Cd18 O26 2.277 . S
Cd18 O27 2.356 . S
C19 O24 1.209 . S
C19 O26 1.226 . S
O20 Cd16 2.273 . S
O20 Cd18 2.411 . S
O20 C23 1.320 . S
O21 Cd18 2.333 . S
O21 C23 1.214 . S
O22 Cd18 2.352 . S
O22 C25 1.258 . S
C23 O20 1.320 . S
C23 O21 1.214 . S
O24 Cd16 2.277 . S
O24 C19 1.209 . S
C25 O22 1.258 . S
C25 O27 1.282 . S
O26 Cd18 2.277 . S
O26 C19 1.226 . S
O27 Cd18 2.356 . S
O27 C25 1.282 . S
C28 O29 1.306 . S
C28 O31 1.160 . S
O29 C28 1.306 . S
O29 Cd30 2.228 . S
Cd30 O29 2.228 . S
Cd30 O34 2.273 1_455 S
Cd30 O38 2.277 . S
O31 C28 1.160 . S
O31 Cd32 2.203 . S
Cd32 O31 2.203 . S
Cd32 O34 2.411 1_455 S
Cd32 O35 2.333 1_455 S
Cd32 O36 2.352 . S
Cd32 O40 2.277 . S
Cd32 O41 2.356 . S
C33 O38 1.209 . S
C33 O40 1.226 . S
O34 Cd30 2.273 1_655 S
O34 Cd32 2.411 1_655 S
O34 C37 1.320 . S
O35 Cd32 2.333 1_655 S
O35 C37 1.214 . S
O36 Cd32 2.352 . S
O36 C39 1.258 . S
C37 O34 1.320 . S
C37 O35 1.214 . S
O38 Cd30 2.277 . S
O38 C33 1.209 . S
C39 O36 1.258 . S
C39 O41 1.282 . S
O40 Cd32 2.277 . S
O40 C33 1.226 . S
O41 Cd32 2.356 . S
O41 C39 1.282 . S
C42 O43 1.306 . S
C42 O45 1.160 . S
O43 C42 1.306 . S
O43 Cd44 2.228 1_655 S
Cd44 O43 2.228 1_455 S
Cd44 O48 2.273 . S
Cd44 O52 2.277 . S
O45 C42 1.160 . S
O45 Cd46 2.203 1_655 S
Cd46 O45 2.203 1_455 S
Cd46 O48 2.411 . S
Cd46 O49 2.333 . S
Cd46 O50 2.352 . S
Cd46 O54 2.277 . S
Cd46 O55 2.356 . S
C47 O52 1.209 . S
C47 O54 1.226 . S
O48 Cd44 2.273 . S
O48 Cd46 2.411 . S
O48 C51 1.320 . S
O49 Cd46 2.333 . S
O49 C51 1.214 . S
O50 Cd46 2.352 . S
O50 C53 1.258 . S
C51 O48 1.320 . S
C51 O49 1.214 . S
O52 Cd44 2.277 . S
O52 C47 1.209 . S
C53 O50 1.258 . S
C53 O55 1.282 . S
O54 Cd46 2.277 . S
O54 C47 1.226 . S
O55 Cd46 2.356 . S
O55 C53 1.282 . S
C56 O57 1.306 . S
C56 O59 1.160 . S
O57 C56 1.306 . S
O57 Cd58 2.228 . S
Cd58 O57 2.228 . S
Cd58 O62 2.273 . S
Cd58 O66 2.277 . S
O59 C56 1.160 . S
O59 Cd60 2.203 . S
Cd60 O59 2.203 . S
Cd60 O62 2.411 . S
Cd60 O63 2.333 . S
Cd60 O64 2.352 . S
Cd60 O68 2.277 . S
Cd60 O69 2.356 . S
C61 O66 1.209 . S
C61 O68 1.226 . S
O62 Cd58 2.273 . S
O62 Cd60 2.411 . S
O62 C65 1.320 . S
O63 Cd60 2.333 . S
O63 C65 1.214 . S
O64 Cd60 2.352 . S
O64 C67 1.258 . S
C65 O62 1.320 . S
C65 O63 1.214 . S
O66 Cd58 2.277 . S
O66 C61 1.209 . S
C67 O64 1.258 . S
C67 O69 1.282 . S
O68 Cd60 2.277 . S
O68 C61 1.226 . S
O69 Cd60 2.356 . S
O69 C67 1.282 . S
C70 O71 1.306 . S
C70 O73 1.160 . S
O71 C70 1.306 . S
O71 Cd72 2.228 . S
Cd72 O71 2.228 . S
Cd72 O76 2.273 . S
Cd72 O80 2.277 . S
O73 C70 1.160 . S
O73 Cd74 2.203 . S
Cd74 O73 2.203 . S
Cd74 O76 2.411 . S
Cd74 O77 2.333 . S
Cd74 O78 2.352 . S
Cd74 O82 2.277 . S
Cd74 O83 2.356 . S
C75 O80 1.209 . S
C75 O82 1.226 . S
O76 Cd72 2.273 . S
O76 Cd74 2.411 . S
O76 C79 1.320 . S
O77 Cd74 2.333 . S
O77 C79 1.214 . S
O78 Cd74 2.352 . S
O78 C81 1.258 . S
C79 O76 1.320 . S
C79 O77 1.214 . S
O80 Cd72 2.277 . S
O80 C75 1.209 . S
C81 O78 1.258 . S
C81 O83 1.282 . S
O82 Cd74 2.277 . S
O82 C75 1.226 . S
O83 Cd74 2.356 . S
O83 C81 1.282 . S
C84 O85 1.306 . S
C84 O87 1.160 . S
O85 C84 1.306 . S
O85 Cd86 2.228 . S
Cd86 O85 2.228 . S
Cd86 O90 2.273 . S
Cd86 O94 2.277 . S
O87 C84 1.160 . S
O87 Cd88 2.203 . S
Cd88 O87 2.203 . S
Cd88 O90 2.411 . S
Cd88 O91 2.333 . S
Cd88 O92 2.352 . S
Cd88 O96 2.277 . S
Cd88 O97 2.356 . S
C89 O94 1.209 . S
C89 O96 1.226 . S
O90 Cd86 2.273 . S
O90 Cd88 2.411 . S
O90 C93 1.320 . S
O91 Cd88 2.333 . S
O91 C93 1.214 . S
O92 Cd88 2.352 . S
O92 C95 1.258 . S
C93 O90 1.320 . S
C93 O91 1.214 . S
O94 Cd86 2.277 . S
O94 C89 1.209 . S
C95 O92 1.258 . S
C95 O97 1.282 . S
O96 Cd88 2.277 . S
O96 C89 1.226 . S
O97 Cd88 2.356 . S
O97 C95 1.282 . S
C98 O99 1.306 . S
C98 O101 1.160 . S
O99 C98 1.306 . S
O99 Cd100 2.228 . S
Cd100 O99 2.228 . S
Cd100 O104 2.273 . S
Cd100 O108 2.277 . S
O101 C98 1.160 . S
O101 Cd102 2.203 . S
Cd102 O101 2.203 . S
Cd102 O104 2.411 . S
Cd102 O105 2.333 . S
Cd102 O106 2.352 . S
Cd102 O110 2.277 . S
Cd102 O111 2.356 . S
C103 O108 1.209 . S
C103 O110 1.226 . S
O104 Cd100 2.273 . S
O104 Cd102 2.411 . S
O104 C107 1.320 . S
O105 Cd102 2.333 . S
O105 C107 1.214 . S
O106 Cd102 2.352 . S
O106 C109 1.258 . S
C107 O104 1.320 . S
C107 O105 1.214 . S
O108 Cd100 2.277 . S
O108 C103 1.209 . S
C109 O106 1.258 . S
C109 O111 1.282 . S
O110 Cd102 2.277 . S
O110 C103 1.226 . S
O111 Cd102 2.356 . S
O111 C109 1.282 . S
H112 C118 0.930 . S
H113 C121 0.925 1_655 S
H114 C122 0.930 . S
H115 C123 0.930 1_655 S
H116 C126 0.930 . S
H117 C127 0.930 . S
C118 H112 0.930 . S
C118 C119 1.355 . S
C118 C120 1.415 . S
C119 C118 1.355 . S
C119 C121 1.426 . S
C120 C118 1.415 . S
C120 C125 1.425 . S
C120 C127 1.409 . S
C121 H113 0.925 1_455 S
C121 C119 1.426 . S
C121 C122 1.361 1_455 S
C122 H114 0.930 . S
C122 C121 1.361 1_655 S
C122 C125 1.409 1_655 S
C123 H115 0.930 1_455 S
C123 C124 1.355 . S
C123 C125 1.415 . S
C124 C123 1.355 . S
C124 C126 1.419 . S
C125 C120 1.425 . S
C125 C122 1.409 1_455 S
C125 C123 1.415 . S
C126 H116 0.930 . S
C126 C124 1.419 . S
C126 C127 1.362 . S
C127 H117 0.930 . S
C127 C120 1.409 . S
C127 C126 1.362 . S
H128 C134 0.930 . S
H129 C137 0.930 . S
H130 C138 0.930 . S
H131 C139 0.930 . S
H132 C142 0.930 . S
H133 C143 0.930 . S
C134 H128 0.930 . S
C134 C135 1.355 . S
C134 C136 1.415 . S
C135 C134 1.355 . S
C135 C137 1.419 . S
C136 C134 1.415 . S
C136 C141 1.425 . S
C136 C143 1.409 . S
C137 H129 0.930 . S
C137 C135 1.419 . S
C137 C138 1.362 . S
C138 H130 0.930 . S
C138 C137 1.362 . S
C138 C141 1.409 . S
C139 H131 0.930 . S
C139 C140 1.355 . S
C139 C141 1.415 . S
C140 C139 1.355 . S
C140 C142 1.419 . S
C141 C136 1.425 . S
C141 C138 1.409 . S
C141 C139 1.415 . S
C142 H132 0.930 . S
C142 C140 1.419 . S
C142 C143 1.362 . S
C143 H133 0.930 . S
C143 C136 1.409 . S
C143 C142 1.362 . S
H144 C150 0.930 . S
H145 C153 0.930 . S
H146 C154 0.930 . S
H147 C155 0.930 . S
H148 C158 0.930 . S
H149 C159 0.930 . S
C150 H144 0.930 . S
C150 C151 1.355 . S
C150 C152 1.415 . S
C151 C150 1.355 . S
C151 C153 1.419 . S
C152 C150 1.415 . S
C152 C157 1.425 . S
C152 C159 1.409 . S
C153 H145 0.930 . S
C153 C151 1.419 . S
C153 C154 1.362 . S
C154 H146 0.930 . S
C154 C153 1.362 . S
C154 C157 1.409 . S
C155 H147 0.930 . S
C155 C156 1.355 . S
C155 C157 1.415 . S
C156 C155 1.355 . S
C156 C158 1.419 . S
C157 C152 1.425 . S
C157 C154 1.409 . S
C157 C155 1.415 . S
C158 H148 0.930 . S
C158 C156 1.419 . S
C158 C159 1.362 . S
C159 H149 0.930 . S
C159 C152 1.409 . S
C159 C158 1.362 . S
H160 C166 0.930 . S
H161 C169 0.930 . S
H162 C170 0.930 . S
H163 C171 0.930 . S
H164 C174 0.930 . S
H165 C175 0.930 . S
C166 H160 0.930 . S
C166 C167 1.355 . S
C166 C168 1.415 . S
C167 C166 1.355 . S
C167 C169 1.419 . S
C168 C166 1.415 . S
C168 C173 1.425 . S
C168 C175 1.409 . S
C169 H161 0.930 . S
C169 C167 1.419 . S
C169 C170 1.362 . S
C170 H162 0.930 . S
C170 C169 1.362 . S
C170 C173 1.409 . S
C171 H163 0.930 . S
C171 C172 1.355 . S
C171 C173 1.415 . S
C172 C171 1.355 . S
C172 C174 1.419 . S
C173 C168 1.425 . S
C173 C170 1.409 . S
C173 C171 1.415 . S
C174 H164 0.930 . S
C174 C172 1.419 . S
C174 C175 1.362 . S
C175 H165 0.930 . S
C175 C168 1.409 . S
C175 C174 1.362 . S
H176 C182 0.930 . S
H177 C185 0.930 . S
H178 C186 0.930 . S
H179 C187 0.930 . S
H180 C190 0.930 . S
H181 C191 0.930 . S
C182 H176 0.930 . S
C182 C183 1.355 . S
C182 C184 1.415 . S
C183 C182 1.355 . S
C183 C185 1.419 . S
C184 C182 1.415 . S
C184 C189 1.425 . S
C184 C191 1.409 . S
C185 H177 0.930 . S
C185 C183 1.419 . S
C185 C186 1.362 . S
C186 H178 0.930 . S
C186 C185 1.362 . S
C186 C189 1.409 . S
C187 H179 0.930 . S
C187 C188 1.355 . S
C187 C189 1.415 . S
C188 C187 1.355 . S
C188 C190 1.419 . S
C189 C184 1.425 . S
C189 C186 1.409 . S
C189 C187 1.415 . S
C190 H180 0.930 . S
C190 C188 1.419 . S
C190 C191 1.362 . S
C191 H181 0.930 . S
C191 C184 1.409 . S
C191 C190 1.362 . S
H192 C198 0.930 . S
H193 C201 0.930 . S
H194 C202 0.930 . S
H195 C203 0.930 . S
H196 C206 0.930 . S
H197 C207 0.930 . S
C198 H192 0.930 . S
C198 C199 1.355 . S
C198 C200 1.415 . S
C199 C198 1.355 . S
C199 C201 1.419 . S
C200 C198 1.415 . S
C200 C205 1.425 . S
C200 C207 1.409 . S
C201 H193 0.930 . S
C201 C199 1.419 . S
C201 C202 1.362 . S
C202 H194 0.930 . S
C202 C201 1.362 . S
C202 C205 1.409 . S
C203 H195 0.930 . S
C203 C204 1.355 . S
C203 C205 1.415 . S
C204 C203 1.355 . S
C204 C206 1.419 . S
C205 C200 1.425 . S
C205 C202 1.409 . S
C205 C203 1.415 . S
C206 H196 0.930 . S
C206 C204 1.419 . S
C206 C207 1.362 . S
C207 H197 0.930 . S
C207 C200 1.409 . S
C207 C206 1.362 . S
H208 C214 0.930 . S
H209 C217 0.930 . S
H210 C218 0.930 . S
H211 C219 0.930 . S
H212 C222 0.930 . S
H213 C223 0.930 . S
C214 H208 0.930 . S
C214 C215 1.355 . S
C214 C216 1.415 . S
C215 C214 1.355 . S
C215 C217 1.419 . S
C216 C214 1.415 . S
C216 C221 1.425 . S
C216 C223 1.409 . S
C217 H209 0.930 . S
C217 C215 1.419 . S
C217 C218 1.362 . S
C218 H210 0.930 . S
C218 C217 1.362 . S
C218 C221 1.409 . S
C219 H211 0.930 . S
C219 C220 1.355 . S
C219 C221 1.415 . S
C220 C219 1.355 . S
C220 C222 1.419 . S
C221 C216 1.425 . S
C221 C218 1.409 . S
C221 C219 1.415 . S
C222 H212 0.930 . S
C222 C220 1.419 . S
C222 C223 1.362 . S
C223 H213 0.930 . S
C223 C216 1.409 . S
C223 C222 1.362 . S
H224 C230 0.930 . S
H225 C233 0.930 . S
H226 C234 0.930 . S
H227 C235 0.930 . S
H228 C238 0.930 . S
H229 C239 0.930 . S
C230 H224 0.930 . S
C230 C231 1.355 . S
C230 C232 1.415 . S
C231 C230 1.355 . S
C231 C233 1.419 . S
C232 C230 1.415 . S
C232 C237 1.425 . S
C232 C239 1.409 . S
C233 H225 0.930 . S
C233 C231 1.419 . S
C233 C234 1.362 . S
C234 H226 0.930 . S
C234 C233 1.362 . S
C234 C237 1.409 . S
C235 H227 0.930 . S
C235 C236 1.355 . S
C235 C237 1.415 . S
C236 C235 1.355 . S
C236 C238 1.419 . S
C237 C232 1.425 . S
C237 C234 1.409 . S
C237 C235 1.415 . S
C238 H228 0.930 . S
C238 C236 1.419 . S
C238 C239 1.362 . S
C239 H229 0.930 . S
C239 C232 1.409 . S
C239 C238 1.362 . S
H240 C246 0.930 . S
H241 C249 0.930 . S
H242 C250 0.930 . S
H243 C251 0.930 . S
H244 C254 0.930 . S
H245 C255 0.930 . S
C246 H240 0.930 . S
C246 C247 1.355 . S
C246 C248 1.415 . S
C247 C246 1.355 . S
C247 C249 1.419 . S
C248 C246 1.415 . S
C248 C253 1.425 . S
C248 C255 1.409 . S
C249 H241 0.930 . S
C249 C247 1.419 . S
C249 C250 1.362 . S
C250 H242 0.930 . S
C250 C249 1.362 . S
C250 C253 1.409 . S
C251 H243 0.930 . S
C251 C252 1.355 . S
C251 C253 1.415 . S
C252 C251 1.355 . S
C252 C254 1.419 . S
C253 C248 1.425 . S
C253 C250 1.409 . S
C253 C251 1.415 . S
C254 H244 0.930 . S
C254 C252 1.419 . S
C254 C255 1.362 . S
C255 H245 0.930 . S
C255 C248 1.409 . S
C255 C254 1.362 . S
H256 C262 0.930 . S
H257 C265 0.930 . S
H258 C266 0.930 . S
H259 C267 0.930 . S
H260 C270 0.930 . S
H261 C271 0.930 . S
C262 H256 0.930 . S
C262 C263 1.355 . S
C262 C264 1.415 . S
C263 C262 1.355 . S
C263 C265 1.419 . S
C264 C262 1.415 . S
C264 C269 1.425 . S
C264 C271 1.409 . S
C265 H257 0.930 . S
C265 C263 1.419 . S
C265 C266 1.362 . S
C266 H258 0.930 . S
C266 C265 1.362 . S
C266 C269 1.409 . S
C267 H259 0.930 . S
C267 C268 1.355 . S
C267 C269 1.415 . S
C268 C267 1.355 . S
C268 C270 1.419 . S
C269 C264 1.425 . S
C269 C266 1.409 . S
C269 C267 1.415 . S
C270 H260 0.930 . S
C270 C268 1.419 . S
C270 C271 1.362 . S
C271 H261 0.930 . S
C271 C264 1.409 . S
C271 C270 1.362 . S
H272 C278 0.930 . S
H273 C281 0.930 . S
H274 C282 0.930 . S
H275 C283 0.930 . S
H276 C286 0.930 . S
H277 C287 0.930 . S
C278 H272 0.930 . S
C278 C279 1.355 . S
C278 C280 1.415 . S
C279 C278 1.355 . S
C279 C281 1.419 . S
C280 C278 1.415 . S
C280 C285 1.425 . S
C280 C287 1.409 . S
C281 H273 0.930 . S
C281 C279 1.419 . S
C281 C282 1.362 . S
C282 H274 0.930 . S
C282 C281 1.362 . S
C282 C285 1.409 . S
C283 H275 0.930 . S
C283 C284 1.355 . S
C283 C285 1.415 . S
C284 C283 1.355 . S
C284 C286 1.419 . S
C285 C280 1.425 . S
C285 C282 1.409 . S
C285 C283 1.415 . S
C286 H276 0.930 . S
C286 C284 1.419 . S
C286 C287 1.362 . S
C287 H277 0.930 . S
C287 C280 1.409 . S
C287 C286 1.362 . S
H288 C294 0.930 . S
H289 C297 0.930 . S
H290 C298 0.930 . S
H291 C299 0.930 . S
H292 C302 0.930 . S
H293 C303 0.930 . S
C294 H288 0.930 . S
C294 C295 1.355 . S
C294 C296 1.415 . S
C295 C294 1.355 . S
C295 C297 1.419 . S
C296 C294 1.415 . S
C296 C301 1.425 . S
C296 C303 1.409 . S
C297 H289 0.930 . S
C297 C295 1.419 . S
C297 C298 1.362 . S
C298 H290 0.930 . S
C298 C297 1.362 . S
C298 C301 1.409 . S
C299 H291 0.930 . S
C299 C300 1.355 . S
C299 C301 1.415 . S
C300 C299 1.355 . S
C300 C302 1.419 . S
C301 C296 1.425 . S
C301 C298 1.409 . S
C301 C299 1.415 . S
C302 H292 0.930 . S
C302 C300 1.419 . S
C302 C303 1.362 . S
C303 H293 0.930 . S
C303 C296 1.409 . S
C303 C302 1.362 . S
H304 C310 0.930 . S
H305 C313 0.930 . S
H306 C314 0.930 . S
H307 C315 0.928 1_655 S
H308 C318 0.930 . S
H309 C319 0.930 . S
C310 H304 0.930 . S
C310 C311 1.355 . S
C310 C312 1.415 1_554 S
C311 C310 1.355 . S
C311 C313 1.419 1_455 S
C312 C310 1.415 1_556 S
C312 C317 1.425 1_546 S
C312 C319 1.409 . S
C313 H305 0.930 . S
C313 C311 1.419 1_655 S
C313 C314 1.362 1_545 S
C314 H306 0.930 . S
C314 C313 1.362 1_565 S
C314 C317 1.409 1_655 S
C315 H307 0.928 1_455 S
C315 C316 1.355 . S
C315 C317 1.415 1_556 S
C316 C315 1.355 . S
C316 C318 1.419 . S
C317 C312 1.425 1_564 S
C317 C314 1.409 1_455 S
C317 C315 1.415 1_554 S
C318 H308 0.930 . S
C318 C316 1.419 . S
C318 C319 1.362 1_565 S
C319 H309 0.930 . S
C319 C312 1.409 . S
C319 C318 1.362 1_545 S
H320 C326 0.930 . S
H321 C329 0.930 . S
H322 C330 0.930 . S
H323 C331 0.930 . S
H324 C334 0.930 . S
H325 C335 0.930 . S
C326 H320 0.930 . S
C326 C327 1.355 . S
C326 C328 1.415 . S
C327 C326 1.355 . S
C327 C329 1.419 . S
C328 C326 1.415 . S
C328 C333 1.425 1_556 S
C328 C335 1.409 . S
C329 H321 0.930 . S
C329 C327 1.419 . S
C329 C330 1.362 1_556 S
C330 H322 0.930 . S
C330 C329 1.362 1_554 S
C330 C333 1.409 . S
C331 H323 0.930 . S
C331 C332 1.355 . S
C331 C333 1.415 . S
C332 C331 1.355 . S
C332 C334 1.419 . S
C333 C328 1.425 1_554 S
C333 C330 1.409 . S
C333 C331 1.415 . S
C334 H324 0.930 . S
C334 C332 1.419 . S
C334 C335 1.362 1_554 S
C335 H325 0.930 . S
C335 C328 1.409 . S
C335 C334 1.362 1_556 S
H336 C342 0.930 . S
H337 C345 0.930 . S
H338 C346 0.930 . S
H339 C347 0.930 . S
H340 C350 0.930 . S
H341 C351 0.930 . S
C342 H336 0.930 . S
C342 C343 1.355 . S
C342 C344 1.415 . S
C343 C342 1.355 . S
C343 C345 1.419 . S
C344 C342 1.415 . S
C344 C349 1.425 . S
C344 C351 1.409 . S
C345 H337 0.930 . S
C345 C343 1.419 . S
C345 C346 1.362 . S
C346 H338 0.930 . S
C346 C345 1.362 . S
C346 C349 1.409 . S
C347 H339 0.930 . S
C347 C348 1.355 . S
C347 C349 1.415 . S
C348 C347 1.355 . S
C348 C350 1.419 . S
C349 C344 1.425 . S
C349 C346 1.409 . S
C349 C347 1.415 . S
C350 H340 0.930 . S
C350 C348 1.419 . S
C350 C351 1.362 . S
C351 H341 0.930 . S
C351 C344 1.409 . S
C351 C350 1.362 . S
H352 C358 0.930 . S
H353 C361 0.930 . S
H354 C362 0.930 . S
H355 C363 0.930 . S
H356 C366 0.930 . S
H357 C367 0.930 . S
C358 H352 0.930 . S
C358 C359 1.355 . S
C358 C360 1.415 1_565 S
C359 C358 1.355 . S
C359 C361 1.419 . S
C360 C358 1.415 1_545 S
C360 C365 1.425 1_545 S
C360 C367 1.409 . S
C361 H353 0.930 . S
C361 C359 1.419 . S
C361 C362 1.362 . S
C362 H354 0.930 . S
C362 C361 1.362 . S
C362 C365 1.409 . S
C363 H355 0.930 . S
C363 C364 1.355 . S
C363 C365 1.415 1_545 S
C364 C363 1.355 . S
C364 C366 1.419 . S
C365 C360 1.425 1_565 S
C365 C362 1.409 . S
C365 C363 1.415 1_565 S
C366 H356 0.930 . S
C366 C364 1.419 . S
C366 C367 1.362 . S
C367 H357 0.930 . S
C367 C360 1.409 . S
C367 C366 1.362 . S
C119 C19 1.453 . S
C124 C5 1.436 . S
C135 C33 1.453 . S
C140 C47 1.437 . S
C151 C61 1.452 . S
C156 C75 1.437 . S
C167 C89 1.450 . S
C172 C103 1.440 . S
C183 C98 1.425 . S
C188 C0 1.415 . S
C199 C84 1.417 . S
C204 C14 1.437 . S
C215 C28 1.408 . S
C220 C70 1.440 . S
C231 C56 1.421 . S
C236 C42 1.419 . S
C247 C79 1.409 . S
C252 C37 1.409 . S
C263 C65 1.408 . S
C268 C51 1.413 . S
C279 C107 1.412 . S
C284 C9 1.408 . S
C295 C23 1.436 . S
C300 C93 1.438 . S
C311 C11 1.399 . S
C316 C39 1.402 . S
C327 C53 1.389 . S
C332 C25 1.388 . S
C343 C95 1.396 . S
C348 C67 1.401 . S
C359 C81 1.391 . S
C364 C109 1.388 . S
