# Generated by pormake.
# Topology umd, (4)-cn, num edge types: 1
# Building blocks:
#     Node 0, Type 0, BuildingBlock: ICAMEG_clean_sbu_1, # of connection points: 4
#     Node 1, Type 0, BuildingBlock: ICAMEG_clean_sbu_1, # of connection points: 4
#     Node 2, Type 0, BuildingBlock: ICAMEG_clean_sbu_1, # of connection points: 4
#     Node 3, Type 0, BuildingBlock: ICAMEG_clean_sbu_1, # of connection points: 4
#     Node 4, Type 0, BuildingBlock: ICAMEG_clean_sbu_1, # of connection points: 4
#     Node 5, Type 0, BuildingBlock: ICAMEG_clean_sbu_1, # of connection points: 4
#     Node 6, Type 0, BuildingBlock: ICAMEG_clean_sbu_1, # of connection points: 4
#     Node 7, Type 0, BuildingBlock: ICAMEG_clean_sbu_1, # of connection points: 4
#     Node 8, Type 0, BuildingBlock: ICAMEG_clean_sbu_1, # of connection points: 4
#     Node 9, Type 0, BuildingBlock: ICAMEG_clean_sbu_1, # of connection points: 4
#     Node 10, Type 0, BuildingBlock: ICAMEG_clean_sbu_1, # of connection points: 4
#     Node 11, Type 0, BuildingBlock: ICAMEG_clean_sbu_1, # of connection points: 4
#     Node 12, Type 0, BuildingBlock: ICAMEG_clean_sbu_1, # of connection points: 4
#     Node 13, Type 0, BuildingBlock: ICAMEG_clean_sbu_1, # of connection points: 4
#     Node 14, Type 0, BuildingBlock: ICAMEG_clean_sbu_1, # of connection points: 4
#     Node 15, Type 0, BuildingBlock: ICAMEG_clean_sbu_1, # of connection points: 4
#     Edge 16, Type (0, 0), BuildingBlock: TEMPAE_clean_linker_10, # of connection points: 2
#     Edge 17, Type (0, 0), BuildingBlock: TEMPAE_clean_linker_10, # of connection points: 2
#     Edge 18, Type (0, 0), BuildingBlock: TEMPAE_clean_linker_10, # of connection points: 2
#     Edge 19, Type (0, 0), BuildingBlock: TEMPAE_clean_linker_10, # of connection points: 2
#     Edge 20, Type (0, 0), BuildingBlock: TEMPAE_clean_linker_10, # of connection points: 2
#     Edge 21, Type (0, 0), BuildingBlock: TEMPAE_clean_linker_10, # of connection points: 2
#     Edge 22, Type (0, 0), BuildingBlock: TEMPAE_clean_linker_10, # of connection points: 2
#     Edge 23, Type (0, 0), BuildingBlock: TEMPAE_clean_linker_10, # of connection points: 2
#     Edge 24, Type (0, 0), BuildingBlock: TEMPAE_clean_linker_10, # of connection points: 2
#     Edge 25, Type (0, 0), BuildingBlock: TEMPAE_clean_linker_10, # of connection points: 2
#     Edge 26, Type (0, 0), BuildingBlock: TEMPAE_clean_linker_10, # of connection points: 2
#     Edge 27, Type (0, 0), BuildingBlock: TEMPAE_clean_linker_10, # of connection points: 2
#     Edge 28, Type (0, 0), BuildingBlock: TEMPAE_clean_linker_10, # of connection points: 2
#     Edge 29, Type (0, 0), BuildingBlock: TEMPAE_clean_linker_10, # of connection points: 2
#     Edge 30, Type (0, 0), BuildingBlock: TEMPAE_clean_linker_10, # of connection points: 2
#     Edge 31, Type (0, 0), BuildingBlock: TEMPAE_clean_linker_10, # of connection points: 2
#     Edge 32, Type (0, 0), BuildingBlock: TEMPAE_clean_linker_10, # of connection points: 2
#     Edge 33, Type (0, 0), BuildingBlock: TEMPAE_clean_linker_10, # of connection points: 2
#     Edge 34, Type (0, 0), BuildingBlock: TEMPAE_clean_linker_10, # of connection points: 2
#     Edge 35, Type (0, 0), BuildingBlock: TEMPAE_clean_linker_10, # of connection points: 2
#     Edge 36, Type (0, 0), BuildingBlock: TEMPAE_clean_linker_10, # of connection points: 2
#     Edge 37, Type (0, 0), BuildingBlock: TEMPAE_clean_linker_10, # of connection points: 2
#     Edge 38, Type (0, 0), BuildingBlock: TEMPAE_clean_linker_10, # of connection points: 2
#     Edge 39, Type (0, 0), BuildingBlock: TEMPAE_clean_linker_10, # of connection points: 2
#     Edge 40, Type (0, 0), BuildingBlock: TEMPAE_clean_linker_10, # of connection points: 2
#     Edge 41, Type (0, 0), BuildingBlock: TEMPAE_clean_linker_10, # of connection points: 2
#     Edge 42, Type (0, 0), BuildingBlock: TEMPAE_clean_linker_10, # of connection points: 2
#     Edge 43, Type (0, 0), BuildingBlock: TEMPAE_clean_linker_10, # of connection points: 2
#     Edge 44, Type (0, 0), BuildingBlock: TEMPAE_clean_linker_10, # of connection points: 2
#     Edge 45, Type (0, 0), BuildingBlock: TEMPAE_clean_linker_10, # of connection points: 2
#     Edge 46, Type (0, 0), BuildingBlock: TEMPAE_clean_linker_10, # of connection points: 2
#     Edge 47, Type (0, 0), BuildingBlock: TEMPAE_clean_linker_10, # of connection points: 2
# Relax obj value: 0.055
# Max RMSD: 0.157
# Mean RMSD: 0.157
data_MOF--net-umd--node1-ICAMEG_clean_sbu_1--edge1-TEMPAE_clean_linker_10
_symmetry_space_group_name_H-M    P1
_symmetry_Int_Tables_number       1
_symmetry_cell_setting            triclinic
loop_
_symmetry_equiv_pos_as_xyz
'x, y, z'
_cell_length_a     42.108067
_cell_length_b     42.107827
_cell_length_c     61.780557
_cell_angle_alpha  90.002854
_cell_angle_beta   89.994433
_cell_angle_gamma 90.008038
loop_
_atom_site_label
_atom_site_type_symbol
_atom_site_fract_x
_atom_site_fract_y
_atom_site_fract_z
_atom_type_partial_charge
Co0 Co 0.18328 0.4877 0.12235 0.0
Co1 Co 0.16401 0.41159 0.13878 0.0
O2 O 0.18712 0.44164 0.12069 0.0
C3 C 0.16455 0.47071 0.07825 0.0
O4 O 0.14814 0.44767 0.08713 0.0
C5 C 0.23115 0.3961 0.14758 0.0
O6 O 0.2356 0.42584 0.15316 0.0
O7 O 0.17449 0.4361 0.16538 0.0
O8 O 0.18573 0.48604 0.15461 0.0
H9 H 0.08848 0.37842 0.19757 0.0
H10 H 0.2324 0.45815 0.09449 0.0
O11 O 0.18043 0.48983 0.09 0.0
H12 H 0.2913 0.52488 0.14637 0.0
H13 H 0.20565 0.59957 0.09801 0.0
H14 H 0.1481 0.5326 0.15047 0.0
H15 H 0.23277 0.5227 0.14729 0.0
H16 H 0.21043 0.54119 0.09674 0.0
O17 O 0.20386 0.38626 0.14178 0.0
H18 H 0.11686 0.41662 0.1743 0.0
H19 H 0.16402 0.34099 0.14215 0.0
H20 H 0.14286 0.5909 0.15246 0.0
H21 H 0.29092 0.45981 0.09286 0.0
H22 H 0.17177 0.62478 0.12608 0.0
H23 H 0.32076 0.4933 0.11898 0.0
O24 O 0.13613 0.48527 0.12377 0.0
H25 H 0.18739 0.35947 0.06733 0.0
H26 H 0.10415 0.38431 0.12088 0.0
H27 H 0.08988 0.35558 0.08747 0.0
H28 H 0.13168 0.34297 0.06043 0.0
H29 H 0.20056 0.38846 0.10083 0.0
H30 H 0.13632 0.30193 0.16518 0.0
H31 H 0.09815 0.32059 0.19307 0.0
O32 O 0.12398 0.4364 0.13588 0.0
C33 C 0.18182 0.46498 0.16925 0.0
C34 C 0.10497 0.36998 0.18542 0.0
C35 C 0.13186 0.32706 0.16726 0.0
N36 N 0.14185 0.38104 0.15677 0.0
C37 C 0.12104 0.3915 0.17216 0.0
C38 C 0.14751 0.34928 0.1543 0.0
C39 C 0.11043 0.33755 0.18291 0.0
C40 C 0.24522 0.47295 0.10581 0.0
N41 N 0.22921 0.49036 0.12094 0.0
C42 C 0.27835 0.47372 0.10485 0.0
C43 C 0.29508 0.49249 0.11952 0.0
C44 C 0.27857 0.5102 0.13491 0.0
C45 C 0.24544 0.5088 0.1354 0.0
C46 C 0.19299 0.58506 0.10961 0.0
C47 C 0.16093 0.54722 0.13904 0.0
C48 C 0.19556 0.552 0.10895 0.0
N49 N 0.17977 0.53356 0.12363 0.0
C50 C 0.15779 0.5802 0.1402 0.0
C51 C 0.17399 0.59919 0.12538 0.0
C52 C 0.1162 0.46422 0.12975 0.0
C53 C 0.169 0.36469 0.07904 0.0
C54 C 0.12247 0.37891 0.10919 0.0
C55 C 0.11426 0.3626 0.09032 0.0
C56 C 0.13772 0.3555 0.07516 0.0
N57 N 0.1532 0.38785 0.11289 0.0
C58 C 0.17634 0.38096 0.0981 0.0
Co59 Co 0.5052 0.18263 0.62468 0.0
Co60 Co 0.57998 0.16145 0.64204 0.0
O61 O 0.55125 0.18399 0.6229 0.0
C62 C 0.51914 0.15955 0.58096 0.0
O63 O 0.53725 0.13827 0.59033 0.0
C64 C 0.59954 0.22823 0.64689 0.0
O65 O 0.56996 0.23458 0.65198 0.0
O66 O 0.557 0.17731 0.66796 0.0
O67 O 0.50646 0.18507 0.65701 0.0
H68 H 0.60931 0.09196 0.70505 0.0
H69 H 0.53689 0.22993 0.59635 0.0
O70 O 0.50385 0.17975 0.59227 0.0
H71 H 0.47415 0.29266 0.64846 0.0
H72 H 0.39513 0.21098 0.59958 0.0
H73 H 0.458 0.14978 0.65244 0.0
H74 H 0.47347 0.2341 0.64974 0.0
H75 H 0.45372 0.21253 0.59872 0.0
O76 O 0.60804 0.19991 0.64246 0.0
H77 H 0.57255 0.11987 0.68045 0.0
H78 H 0.65044 0.15689 0.64481 0.0
H79 H 0.3995 0.14773 0.65402 0.0
H80 H 0.53806 0.28841 0.59438 0.0
H81 H 0.36766 0.1785 0.62745 0.0
H82 H 0.50658 0.32018 0.6206 0.0
O83 O 0.50527 0.13556 0.62679 0.0
H84 H 0.63094 0.17141 0.5688 0.0
H85 H 0.60261 0.09769 0.62776 0.0
H86 H 0.62902 0.07701 0.59503 0.0
H87 H 0.64337 0.11399 0.56526 0.0
H88 H 0.60433 0.19106 0.60175 0.0
H89 H 0.68808 0.12961 0.66913 0.0
H90 H 0.66754 0.09676 0.69945 0.0
O91 O 0.55224 0.12281 0.64181 0.0
C92 C 0.52791 0.18382 0.67161 0.0
C93 C 0.61855 0.10611 0.69185 0.0
C94 C 0.66277 0.12728 0.67171 0.0
N95 N 0.60936 0.1397 0.6611 0.0
C96 C 0.59786 0.12188 0.67783 0.0
C97 C 0.64135 0.14271 0.65801 0.0
C98 C 0.65122 0.10884 0.68871 0.0
C99 C 0.52289 0.24358 0.60768 0.0
N100 N 0.50495 0.22862 0.62304 0.0
C101 C 0.52375 0.27669 0.60654 0.0
C102 C 0.50612 0.2945 0.62128 0.0
C103 C 0.48793 0.27907 0.63692 0.0
C104 C 0.48767 0.24592 0.63759 0.0
C105 C 0.40874 0.19754 0.61129 0.0
C106 C 0.4443 0.16342 0.64094 0.0
C107 C 0.4419 0.19829 0.61085 0.0
N108 N 0.45921 0.18153 0.62567 0.0
C109 C 0.41119 0.16208 0.64186 0.0
C110 C 0.39334 0.17932 0.62693 0.0
C111 C 0.5246 0.1155 0.63489 0.0
C112 C 0.62491 0.15508 0.5817 0.0
C113 C 0.6088 0.11393 0.61488 0.0
C114 C 0.62378 0.10209 0.5964 0.0
C115 C 0.63184 0.12285 0.57971 0.0
N116 N 0.60213 0.14559 0.61672 0.0
C117 C 0.60997 0.16609 0.60043 0.0
Co118 Co 0.81712 0.51266 0.12416 0.0
Co119 Co 0.84387 0.58639 0.14037 0.0
O120 O 0.8185 0.55866 0.12215 0.0
C121 C 0.84046 0.52482 0.08018 0.0
O122 O 0.86238 0.54249 0.08925 0.0
C123 C 0.77835 0.60761 0.14812 0.0
O124 O 0.77159 0.57812 0.15318 0.0
O125 O 0.83044 0.56348 0.167 0.0
O126 O 0.81451 0.51474 0.15646 0.0
H127 H 0.921 0.61302 0.19973 0.0
H128 H 0.77189 0.54719 0.09583 0.0
O129 O 0.81985 0.51052 0.09174 0.0
H130 H 0.70535 0.48803 0.14769 0.0
H131 H 0.78261 0.40394 0.09984 0.0
H132 H 0.84656 0.4642 0.15263 0.0
H133 H 0.76374 0.48375 0.14897 0.0
H134 H 0.78459 0.46249 0.09841 0.0
O135 O 0.80648 0.61551 0.14277 0.0
H136 H 0.88955 0.57736 0.17642 0.0
H137 H 0.85065 0.65666 0.14327 0.0
H138 H 0.84504 0.40571 0.15478 0.0
H139 H 0.71359 0.55196 0.09384 0.0
H140 H 0.81289 0.3752 0.12824 0.0
H141 H 0.67991 0.52232 0.11995 0.0
O142 O 0.86432 0.50989 0.12617 0.0
H143 H 0.82778 0.63853 0.06801 0.0
H144 H 0.90658 0.60722 0.12307 0.0
H145 H 0.92459 0.63341 0.08953 0.0
H146 H 0.88505 0.64926 0.06173 0.0
H147 H 0.81083 0.6121 0.10171 0.0
H148 H 0.88151 0.69324 0.16632 0.0
H149 H 0.91708 0.67144 0.19474 0.0
O150 O 0.88115 0.55752 0.13814 0.0
C151 C 0.82033 0.5355 0.17101 0.0
C152 C 0.90567 0.62281 0.18736 0.0
C153 C 0.88346 0.66783 0.16863 0.0
N154 N 0.8685 0.61491 0.1584 0.0
C155 C 0.88788 0.60273 0.17407 0.0
C156 C 0.86601 0.64702 0.15565 0.0
C157 C 0.90343 0.65558 0.18456 0.0
C158 C 0.75739 0.53401 0.10714 0.0
N159 N 0.77119 0.51512 0.12246 0.0
C160 C 0.72439 0.5369 0.10598 0.0
C161 C 0.70551 0.52029 0.12065 0.0
C162 C 0.71977 0.50106 0.13623 0.0
C163 C 0.75284 0.49879 0.13691 0.0
C164 C 0.79666 0.41698 0.11152 0.0
C165 C 0.83235 0.45108 0.14112 0.0
C166 C 0.79793 0.45011 0.11075 0.0
N167 N 0.81547 0.46671 0.12553 0.0
C168 C 0.83166 0.41797 0.14237 0.0
C169 C 0.81364 0.40086 0.12746 0.0
C170 C 0.88615 0.52885 0.13241 0.0
C171 C 0.84523 0.63185 0.08004 0.0
C172 C 0.88923 0.61408 0.11106 0.0
C173 C 0.89957 0.62893 0.09211 0.0
C174 C 0.87737 0.63782 0.07651 0.0
N175 N 0.85766 0.60837 0.11442 0.0
C176 C 0.83575 0.61701 0.0992 0.0
Co177 Co 0.48867 0.81779 0.62355 0.0
Co178 Co 0.41396 0.83388 0.644 0.0
O179 O 0.44248 0.81311 0.6235 0.0
C180 C 0.46798 0.83676 0.58016 0.0
O181 O 0.44563 0.85305 0.58993 0.0
C182 C 0.39917 0.76576 0.64709 0.0
O183 O 0.42989 0.76058 0.64694 0.0
O184 O 0.44002 0.8192 0.66872 0.0
O185 O 0.49002 0.81533 0.65596 0.0
H186 H 0.38698 0.90154 0.70839 0.0
H187 H 0.45907 0.76834 0.59599 0.0
O188 O 0.48807 0.82091 0.59116 0.0
H189 H 0.52903 0.71031 0.6463 0.0
H190 H 0.59877 0.79757 0.59501 0.0
H191 H 0.53508 0.85433 0.6497 0.0
H192 H 0.5256 0.76877 0.64765 0.0
H193 H 0.5405 0.79153 0.59604 0.0
O194 O 0.38835 0.79397 0.64607 0.0
H195 H 0.42274 0.87585 0.68204 0.0
H196 H 0.34372 0.83436 0.65001 0.0
H197 H 0.5933 0.86086 0.64938 0.0
H198 H 0.46196 0.7099 0.59396 0.0
H199 H 0.62555 0.83234 0.62188 0.0
H200 H 0.49706 0.6805 0.6193 0.0
O201 O 0.48517 0.86463 0.62531 0.0
H202 H 0.3556 0.81997 0.57371 0.0
H203 H 0.38634 0.89614 0.63062 0.0
H204 H 0.35525 0.91478 0.59927 0.0
H205 H 0.33967 0.87656 0.57053 0.0
H206 H 0.38694 0.80239 0.60524 0.0
H207 H 0.3071 0.85938 0.67612 0.0
H208 H 0.32871 0.89336 0.70551 0.0
O209 O 0.43911 0.87425 0.64248 0.0
C210 C 0.46967 0.81466 0.67128 0.0
C211 C 0.37727 0.8869 0.6956 0.0
C212 C 0.33244 0.8632 0.67751 0.0
N213 N 0.38529 0.85393 0.66438 0.0
C214 C 0.39739 0.87238 0.68059 0.0
C215 C 0.35328 0.84906 0.66279 0.0
C216 C 0.34458 0.88226 0.69399 0.0
C217 C 0.47467 0.75573 0.6069 0.0
N218 N 0.49226 0.77194 0.62185 0.0
C219 C 0.4761 0.72264 0.60574 0.0
C220 C 0.49575 0.70615 0.62 0.0
C221 C 0.51368 0.72286 0.63516 0.0
C222 C 0.51159 0.75595 0.63588 0.0
C223 C 0.58499 0.81004 0.60711 0.0
C224 C 0.54899 0.84165 0.6378 0.0
C225 C 0.552 0.80674 0.60775 0.0
N226 N 0.53448 0.8223 0.62306 0.0
C227 C 0.58193 0.84553 0.63765 0.0
C228 C 0.6 0.82955 0.6222 0.0
C229 C 0.46532 0.8834 0.63415 0.0
C230 C 0.36213 0.83682 0.58617 0.0
C231 C 0.37969 0.87937 0.61817 0.0
C232 C 0.36202 0.89005 0.60048 0.0
C233 C 0.35326 0.86859 0.58437 0.0
N234 N 0.38833 0.84817 0.6198 0.0
C235 C 0.37975 0.82697 0.60411 0.0
Co236 Co 0.1846 0.51034 0.3706 0.0
Co237 Co 0.15994 0.5857 0.35636 0.0
O238 O 0.18459 0.55625 0.37384 0.0
C239 C 0.16179 0.51997 0.415 0.0
O240 O 0.14019 0.53879 0.40668 0.0
C241 C 0.22595 0.60583 0.3489 0.0
O242 O 0.2321 0.57644 0.34323 0.0
O243 O 0.17263 0.56392 0.32909 0.0
O244 O 0.18713 0.51424 0.33844 0.0
H245 H 0.0833 0.6176 0.29792 0.0
H246 H 0.23095 0.54192 0.39966 0.0
O247 O 0.18205 0.50622 0.40288 0.0
H248 H 0.29551 0.48375 0.34615 0.0
H249 H 0.21605 0.39927 0.3917 0.0
H250 H 0.15354 0.46452 0.34092 0.0
H251 H 0.23701 0.48125 0.34491 0.0
H252 H 0.21584 0.4577 0.39478 0.0
O253 O 0.19803 0.61399 0.35456 0.0
H254 H 0.11393 0.57988 0.3202 0.0
H255 H 0.15496 0.65624 0.35531 0.0
H256 H 0.15329 0.40619 0.33713 0.0
H257 H 0.28938 0.54485 0.40163 0.0
H258 H 0.18471 0.37316 0.36265 0.0
H259 H 0.32207 0.5157 0.3747 0.0
O260 O 0.1373 0.50906 0.36868 0.0
H261 H 0.17782 0.63353 0.4299 0.0
H262 H 0.09788 0.6072 0.37438 0.0
H263 H 0.08078 0.63207 0.4086 0.0
H264 H 0.1209 0.64541 0.43664 0.0
H265 H 0.19387 0.60846 0.39551 0.0
H266 H 0.12496 0.69486 0.33331 0.0
H267 H 0.08873 0.67558 0.30443 0.0
O268 O 0.12188 0.55778 0.35796 0.0
C269 C 0.18193 0.53589 0.32441 0.0
C270 C 0.09893 0.6263 0.3105 0.0
C271 C 0.12235 0.66966 0.33034 0.0
N272 N 0.136 0.61583 0.33914 0.0
C273 C 0.11626 0.60504 0.3232 0.0
C274 C 0.13932 0.64769 0.34272 0.0
C275 C 0.10202 0.65882 0.31415 0.0
C276 C 0.24501 0.52897 0.38798 0.0
N277 N 0.23059 0.51137 0.37221 0.0
C278 C 0.27809 0.53081 0.38914 0.0
C279 C 0.29641 0.51448 0.374 0.0
C280 C 0.28153 0.49656 0.35797 0.0
C281 C 0.2484 0.49531 0.35731 0.0
C282 C 0.20231 0.4134 0.38046 0.0
C283 C 0.16743 0.4503 0.352 0.0
C284 C 0.20204 0.44648 0.38216 0.0
N285 N 0.18489 0.46447 0.36794 0.0
C286 C 0.16712 0.41729 0.34981 0.0
C287 C 0.18473 0.39877 0.36415 0.0
C288 C 0.11603 0.52901 0.36299 0.0
C289 C 0.16013 0.62794 0.41777 0.0
C290 C 0.11548 0.61296 0.3865 0.0
C291 C 0.10566 0.62706 0.40583 0.0
C292 C 0.12818 0.63455 0.42156 0.0
N293 N 0.14687 0.60661 0.38289 0.0
C294 C 0.16909 0.61386 0.39823 0.0
Co295 Co 0.49335 0.18505 0.87555 0.0
Co296 Co 0.41718 0.16786 0.85862 0.0
O297 O 0.44731 0.18975 0.87731 0.0
C298 C 0.47636 0.16762 0.91979 0.0
O299 O 0.45369 0.15067 0.91095 0.0
C300 C 0.39994 0.23532 0.85251 0.0
O301 O 0.42939 0.24071 0.8466 0.0
O302 O 0.44074 0.18181 0.83246 0.0
O303 O 0.49181 0.18592 0.84317 0.0
H304 H 0.38416 0.09806 0.79663 0.0
H305 H 0.46549 0.23586 0.90279 0.0
O306 O 0.49545 0.18345 0.90797 0.0
H307 H 0.53171 0.29128 0.84886 0.0
H308 H 0.60561 0.20669 0.89927 0.0
H309 H 0.53759 0.14747 0.84835 0.0
H310 H 0.5283 0.23279 0.84904 0.0
H311 H 0.54733 0.2126 0.90041 0.0
O312 O 0.39092 0.20748 0.85772 0.0
H313 H 0.42234 0.12488 0.82077 0.0
H314 H 0.3465 0.16656 0.85608 0.0
H315 H 0.59576 0.14105 0.84651 0.0
H316 H 0.46839 0.29438 0.90329 0.0
H317 H 0.63018 0.17079 0.87211 0.0
H318 H 0.50164 0.32247 0.87615 0.0
O319 O 0.48995 0.13814 0.87495 0.0
H320 H 0.36546 0.18317 0.93121 0.0
H321 H 0.39179 0.1057 0.87408 0.0
H322 H 0.36388 0.08763 0.90695 0.0
H323 H 0.3505 0.12651 0.93578 0.0
H324 H 0.39375 0.20014 0.89823 0.0
H325 H 0.30748 0.14041 0.8322 0.0
H326 H 0.32626 0.10577 0.80228 0.0
O327 O 0.44286 0.12778 0.85935 0.0
C328 C 0.4702 0.18601 0.82867 0.0
C329 C 0.37568 0.113 0.80966 0.0
C330 C 0.33264 0.1368 0.82961 0.0
N331 N 0.38664 0.14697 0.83995 0.0
C332 C 0.39718 0.12815 0.82343 0.0
C333 C 0.35484 0.15158 0.84306 0.0
C334 C 0.3432 0.11736 0.81283 0.0
C335 C 0.48023 0.24792 0.89106 0.0
N336 N 0.49687 0.23095 0.876 0.0
C337 C 0.48168 0.28105 0.89136 0.0
C338 C 0.50031 0.2968 0.87611 0.0
C339 C 0.51718 0.27932 0.86079 0.0
C340 C 0.51512 0.24621 0.86095 0.0
C341 C 0.59087 0.19367 0.88799 0.0
C342 C 0.55244 0.16068 0.85942 0.0
C343 C 0.55787 0.19689 0.88858 0.0
N344 N 0.53914 0.18064 0.87431 0.0
C345 C 0.58535 0.15686 0.85836 0.0
C346 C 0.60464 0.17353 0.87275 0.0
C347 C 0.46968 0.11902 0.86693 0.0
C348 C 0.37105 0.16603 0.91872 0.0
C349 C 0.38614 0.12275 0.88658 0.0
C350 C 0.37026 0.11239 0.90513 0.0
C351 C 0.36272 0.13422 0.92129 0.0
N352 N 0.39426 0.15398 0.88418 0.0
C353 C 0.38692 0.17553 0.89995 0.0
Co354 Co 0.81746 0.48817 0.37287 0.0
Co355 Co 0.83871 0.41253 0.357 0.0
O356 O 0.81558 0.44222 0.37518 0.0
C357 C 0.84025 0.47525 0.41691 0.0
O358 O 0.86107 0.45614 0.40799 0.0
C359 C 0.77171 0.39604 0.34975 0.0
O360 O 0.76696 0.42596 0.34481 0.0
O361 O 0.8267 0.43601 0.33029 0.0
O362 O 0.81441 0.48587 0.34061 0.0
H363 H 0.91314 0.37978 0.29746 0.0
H364 H 0.7701 0.45727 0.40154 0.0
O365 O 0.82053 0.49056 0.40524 0.0
H366 H 0.70753 0.52045 0.34961 0.0
H367 H 0.79098 0.5994 0.39657 0.0
H368 H 0.85009 0.53401 0.344 0.0
H369 H 0.76607 0.52054 0.34809 0.0
H370 H 0.78877 0.54089 0.39838 0.0
O371 O 0.79931 0.38617 0.35486 0.0
H372 H 0.88455 0.41786 0.3207 0.0
H373 H 0.84041 0.34193 0.35447 0.0
H374 H 0.85275 0.59243 0.34148 0.0
H375 H 0.71163 0.45671 0.40378 0.0
H376 H 0.82304 0.62552 0.3679 0.0
H377 H 0.67993 0.4884 0.37764 0.0
O378 O 0.86472 0.48751 0.37067 0.0
H379 H 0.8195 0.36237 0.42966 0.0
H380 H 0.89992 0.38747 0.37419 0.0
H381 H 0.91627 0.36037 0.40778 0.0
H382 H 0.8759 0.34764 0.4358 0.0
H383 H 0.80422 0.38962 0.39589 0.0
H384 H 0.86835 0.30297 0.33149 0.0
H385 H 0.90511 0.32186 0.30279 0.0
O386 O 0.87802 0.43866 0.35893 0.0
C387 C 0.81856 0.46457 0.32615 0.0
C388 C 0.89728 0.37125 0.30995 0.0
C389 C 0.8721 0.32815 0.32904 0.0
N390 N 0.86106 0.38212 0.33903 0.0
C391 C 0.8811 0.3927 0.3232 0.0
C392 C 0.8563 0.35031 0.34197 0.0
C393 C 0.89273 0.33876 0.31294 0.0
C394 C 0.75648 0.47133 0.39022 0.0
N395 N 0.77148 0.48901 0.37474 0.0
C396 C 0.72337 0.47083 0.39152 0.0
C397 C 0.70561 0.48858 0.37683 0.0
C398 C 0.72107 0.50656 0.36109 0.0
C399 C 0.75422 0.50645 0.36027 0.0
C400 C 0.80398 0.58524 0.38495 0.0
C401 C 0.83694 0.54827 0.35547 0.0
C402 C 0.80287 0.55211 0.38592 0.0
N403 N 0.81908 0.5341 0.37121 0.0
C404 C 0.83861 0.58133 0.354 0.0
C405 C 0.82197 0.59988 0.36885 0.0
C406 C 0.8851 0.46696 0.36449 0.0
C407 C 0.83729 0.36769 0.41754 0.0
C408 C 0.88221 0.38198 0.38629 0.0
C409 C 0.89161 0.36661 0.40528 0.0
C410 C 0.86895 0.35947 0.42099 0.0
N411 N 0.8511 0.3899 0.38301 0.0
C412 C 0.82876 0.38299 0.39834 0.0
Co413 Co 0.50405 0.81994 0.87504 0.0
Co414 Co 0.58022 0.83816 0.85854 0.0
O415 O 0.5501 0.816 0.87704 0.0
C416 C 0.52061 0.83851 0.91918 0.0
O417 O 0.54263 0.85606 0.91011 0.0
C418 C 0.5971 0.77075 0.85261 0.0
O419 O 0.56738 0.76558 0.84725 0.0
O420 O 0.55697 0.82433 0.83225 0.0
O421 O 0.50592 0.81842 0.84262 0.0
H422 H 0.61335 0.9088 0.79702 0.0
H423 H 0.5325 0.77013 0.90287 0.0
O424 O 0.50181 0.82209 0.90749 0.0
H425 H 0.4677 0.71256 0.84919 0.0
H426 H 0.39202 0.79687 0.89861 0.0
H427 H 0.45939 0.85614 0.84731 0.0
H428 H 0.47013 0.77109 0.84886 0.0
H429 H 0.4504 0.79207 0.90003 0.0
O430 O 0.60655 0.79859 0.85749 0.0
H431 H 0.57512 0.88154 0.82091 0.0
H432 H 0.65089 0.83973 0.85619 0.0
H433 H 0.40112 0.86144 0.84518 0.0
H434 H 0.53059 0.7116 0.90389 0.0
H435 H 0.36703 0.83166 0.87097 0.0
H436 H 0.49806 0.68242 0.87688 0.0
O437 O 0.50668 0.86691 0.87398 0.0
H438 H 0.63161 0.82238 0.93117 0.0
H439 H 0.60515 0.9003 0.87437 0.0
H440 H 0.63276 0.91818 0.9074 0.0
H441 H 0.64621 0.87908 0.93607 0.0
H442 H 0.60358 0.8056 0.89805 0.0
H443 H 0.68997 0.86631 0.83257 0.0
H444 H 0.67124 0.90124 0.80279 0.0
O445 O 0.5543 0.87807 0.85938 0.0
C446 C 0.52773 0.81909 0.82825 0.0
C447 C 0.62181 0.89374 0.80999 0.0
C448 C 0.66481 0.86986 0.82993 0.0
N449 N 0.61078 0.85936 0.84006 0.0
C450 C 0.60027 0.87834 0.82361 0.0
C451 C 0.64258 0.85483 0.84323 0.0
C452 C 0.65428 0.88946 0.81323 0.0
C453 C 0.51807 0.75761 0.89119 0.0
N454 N 0.50128 0.774 0.87592 0.0
C455 C 0.51717 0.72446 0.8918 0.0
C456 C 0.49895 0.70811 0.87662 0.0
C457 C 0.48192 0.725 0.86107 0.0
C458 C 0.48342 0.75814 0.86094 0.0
C459 C 0.40661 0.8099 0.88725 0.0
C460 C 0.44469 0.84292 0.85847 0.0
C461 C 0.43967 0.80731 0.888 0.0
N462 N 0.45822 0.82356 0.87362 0.0
C463 C 0.41172 0.84611 0.85724 0.0
C464 C 0.39261 0.82942 0.87173 0.0
C465 C 0.52701 0.88638 0.86641 0.0
C466 C 0.626 0.83962 0.91876 0.0
C467 C 0.61083 0.88315 0.8868 0.0
C468 C 0.62654 0.89341 0.90545 0.0
C469 C 0.63412 0.87145 0.92151 0.0
N470 N 0.6029 0.8519 0.88423 0.0
C471 C 0.61026 0.83023 0.89991 0.0
Co472 Co 0.81873 0.51268 0.87392 0.0
Co473 Co 0.83488 0.58765 0.85404 0.0
O474 O 0.81409 0.55889 0.8744 0.0
C475 C 0.83695 0.5322 0.91772 0.0
O476 O 0.85337 0.55491 0.90844 0.0
C477 C 0.76689 0.6033 0.85144 0.0
O478 O 0.76128 0.57265 0.85146 0.0
O479 O 0.81955 0.56226 0.82917 0.0
O480 O 0.81673 0.51199 0.84152 0.0
H481 H 0.90183 0.61529 0.78942 0.0
H482 H 0.76885 0.54161 0.90145 0.0
O483 O 0.82131 0.51247 0.90629 0.0
H484 H 0.71162 0.47275 0.85001 0.0
H485 H 0.7981 0.40192 0.90113 0.0
H486 H 0.85571 0.46689 0.84757 0.0
H487 H 0.77008 0.47626 0.84909 0.0
H488 H 0.79203 0.4602 0.90068 0.0
O489 O 0.79524 0.61374 0.85243 0.0
H490 H 0.87613 0.57925 0.81559 0.0
H491 H 0.83608 0.65802 0.84873 0.0
H492 H 0.86227 0.40867 0.84731 0.0
H493 H 0.7104 0.5386 0.90306 0.0
H494 H 0.83333 0.37578 0.87425 0.0
H495 H 0.68139 0.50406 0.87715 0.0
O496 O 0.8656 0.51627 0.87256 0.0
H497 H 0.82253 0.64476 0.92494 0.0
H498 H 0.89762 0.61435 0.86728 0.0
H499 H 0.917 0.64463 0.89879 0.0
H500 H 0.87933 0.66004 0.9279 0.0
H501 H 0.8042 0.61423 0.89323 0.0
H502 H 0.8611 0.69492 0.82281 0.0
H503 H 0.89437 0.67358 0.79295 0.0
O504 O 0.87504 0.56209 0.85502 0.0
C505 C 0.81548 0.53259 0.82639 0.0
C506 C 0.8875 0.62488 0.80242 0.0
C507 C 0.86461 0.66957 0.82114 0.0
N508 N 0.85494 0.61655 0.8338 0.0
C509 C 0.87299 0.6046 0.81732 0.0
C510 C 0.85047 0.64857 0.83575 0.0
C511 C 0.88328 0.65759 0.80439 0.0
C512 C 0.75642 0.52624 0.89029 0.0
N513 N 0.77286 0.50903 0.87526 0.0
C514 C 0.72331 0.52475 0.89121 0.0
C515 C 0.70705 0.50542 0.87664 0.0
C516 C 0.72399 0.48786 0.86139 0.0
C517 C 0.75709 0.49 0.86092 0.0
C518 C 0.81076 0.41598 0.88927 0.0
C519 C 0.84285 0.45271 0.85922 0.0
C520 C 0.80745 0.44898 0.88896 0.0
N521 N 0.82325 0.46686 0.87396 0.0
C522 C 0.84675 0.41977 0.85905 0.0
C523 C 0.83053 0.40133 0.87418 0.0
C524 C 0.88427 0.53601 0.86348 0.0
C525 C 0.83915 0.63829 0.91232 0.0
C526 C 0.88109 0.62092 0.87989 0.0
C527 C 0.89219 0.63813 0.89768 0.0
C528 C 0.87104 0.6468 0.91399 0.0
N529 N 0.84978 0.61264 0.87838 0.0
C530 C 0.82888 0.62113 0.89428 0.0
Co531 Co 0.48619 0.81554 0.37396 0.0
Co532 Co 0.41375 0.84125 0.3543 0.0
O533 O 0.43996 0.81678 0.37423 0.0
C534 C 0.4708 0.8396 0.41742 0.0
O535 O 0.45358 0.86138 0.4078 0.0
C536 C 0.3943 0.77491 0.34872 0.0
O537 O 0.42466 0.76791 0.34867 0.0
O538 O 0.43912 0.82714 0.32902 0.0
O539 O 0.48698 0.81219 0.34162 0.0
H540 H 0.39301 0.91662 0.29285 0.0
H541 H 0.45026 0.77074 0.40179 0.0
O542 O 0.48584 0.81895 0.40635 0.0
H543 H 0.51296 0.70335 0.35245 0.0
H544 H 0.593 0.78215 0.40256 0.0
H545 H 0.53671 0.84492 0.34716 0.0
H546 H 0.51696 0.76173 0.35058 0.0
H547 H 0.53443 0.78374 0.40179 0.0
O548 O 0.38519 0.80362 0.35058 0.0
H549 H 0.42629 0.88608 0.31826 0.0
H550 H 0.3439 0.84742 0.34788 0.0
H551 H 0.59529 0.84379 0.34722 0.0
H552 H 0.4458 0.71247 0.40437 0.0
H553 H 0.62381 0.81223 0.37507 0.0
H554 H 0.47718 0.67836 0.37951 0.0
O555 O 0.48872 0.86268 0.3716 0.0
H556 H 0.354 0.82639 0.42398 0.0
H557 H 0.39078 0.90421 0.36984 0.0
H558 H 0.36087 0.92276 0.40176 0.0
H559 H 0.34224 0.8837 0.4291 0.0
H560 H 0.38417 0.8089 0.39189 0.0
H561 H 0.30969 0.87734 0.32267 0.0
H562 H 0.33425 0.91233 0.29496 0.0
O563 O 0.44208 0.87885 0.35755 0.0
C564 C 0.46745 0.8173 0.32619 0.0
C565 C 0.38202 0.90155 0.3049 0.0
C566 C 0.33526 0.87946 0.32162 0.0
N567 N 0.38704 0.86522 0.33464 0.0
C568 C 0.40074 0.88429 0.31938 0.0
C569 C 0.35474 0.86254 0.33582 0.0
C570 C 0.34905 0.8991 0.30608 0.0
C571 C 0.46428 0.75606 0.39109 0.0
N572 N 0.48394 0.76962 0.3761 0.0
C573 C 0.46155 0.72308 0.39256 0.0
C574 C 0.47912 0.70395 0.37858 0.0
C575 C 0.49917 0.71796 0.36338 0.0
C576 C 0.50128 0.75103 0.36235 0.0
C577 C 0.58084 0.79594 0.39032 0.0
C578 C 0.54896 0.83097 0.35924 0.0
C579 C 0.54769 0.79697 0.38983 0.0
N580 N 0.5322 0.81418 0.37433 0.0
C581 C 0.58213 0.83049 0.35924 0.0
C582 C 0.59812 0.81281 0.37488 0.0
C583 C 0.47012 0.88423 0.36446 0.0
C584 C 0.36189 0.84362 0.41215 0.0
C585 C 0.38275 0.88708 0.38167 0.0
C586 C 0.36579 0.89771 0.39969 0.0
C587 C 0.35534 0.87579 0.41502 0.0
N588 N 0.38901 0.85548 0.37894 0.0
C589 C 0.37887 0.83384 0.3939 0.0
Co590 Co 0.18341 0.49578 0.87252 0.0
Co591 Co 0.16228 0.42117 0.85436 0.0
O592 O 0.18434 0.44957 0.87417 0.0
C593 C 0.1593 0.48201 0.91608 0.0
O594 O 0.13791 0.46404 0.90667 0.0
C595 C 0.22936 0.40238 0.85218 0.0
O596 O 0.23596 0.43279 0.85125 0.0
O597 O 0.17893 0.44453 0.82893 0.0
O598 O 0.18677 0.49484 0.84023 0.0
H599 H 0.09377 0.39399 0.79042 0.0
H600 H 0.22967 0.46411 0.90164 0.0
O601 O 0.17973 0.49706 0.90484 0.0
H602 H 0.29436 0.52614 0.85027 0.0
H603 H 0.21171 0.60559 0.89824 0.0
H604 H 0.15152 0.5433 0.84451 0.0
H605 H 0.23586 0.52714 0.84813 0.0
H606 H 0.21295 0.547 0.89896 0.0
O607 O 0.20064 0.393 0.85348 0.0
H608 H 0.12134 0.4299 0.81579 0.0
H609 H 0.15758 0.35079 0.85054 0.0
H610 H 0.14979 0.60182 0.84308 0.0
H611 H 0.28806 0.46269 0.90449 0.0
H612 H 0.18005 0.63336 0.87008 0.0
H613 H 0.32082 0.49376 0.87862 0.0
O614 O 0.13642 0.49592 0.86984 0.0
H615 H 0.17096 0.36814 0.92695 0.0
H616 H 0.09822 0.39824 0.86785 0.0
H617 H 0.07698 0.37095 0.90007 0.0
H618 H 0.11346 0.3557 0.92991 0.0
H619 H 0.19117 0.39563 0.89448 0.0
H620 H 0.13065 0.314 0.82544 0.0
H621 H 0.09835 0.33559 0.79518 0.0
O622 O 0.12369 0.449 0.85473 0.0
C623 C 0.18585 0.47354 0.82554 0.0
C624 C 0.10767 0.3843 0.80359 0.0
C625 C 0.12841 0.3394 0.82323 0.0
N626 N 0.14077 0.39243 0.83473 0.0
C627 C 0.12324 0.40451 0.81804 0.0
C628 C 0.14364 0.36034 0.83737 0.0
C629 C 0.11028 0.35153 0.80626 0.0
C630 C 0.24374 0.47803 0.8905 0.0
N631 N 0.22936 0.49584 0.87482 0.0
C632 C 0.2768 0.477 0.89213 0.0
C633 C 0.29517 0.49438 0.87757 0.0
C634 C 0.28033 0.51253 0.86165 0.0
C635 C 0.24721 0.51295 0.86049 0.0
C636 C 0.1985 0.59211 0.88634 0.0
C637 C 0.16494 0.55687 0.85621 0.0
C638 C 0.19908 0.55894 0.88669 0.0
N639 N 0.18259 0.54179 0.87165 0.0
C640 C 0.16378 0.58999 0.85537 0.0
C641 C 0.18074 0.60768 0.87054 0.0
C642 C 0.11637 0.47664 0.86165 0.0
C643 C 0.15485 0.37456 0.91402 0.0
C644 C 0.11425 0.39167 0.88076 0.0
C645 C 0.10209 0.37619 0.89895 0.0
C646 C 0.12257 0.36763 0.91569 0.0
N647 N 0.14594 0.39833 0.87924 0.0
C648 C 0.16617 0.39001 0.89557 0.0
Co649 Co 0.51306 0.18154 0.37472 0.0
Co650 Co 0.58822 0.16145 0.35647 0.0
O651 O 0.55933 0.18479 0.37543 0.0
C652 C 0.53175 0.16299 0.41871 0.0
O653 O 0.55502 0.14702 0.40972 0.0
C654 C 0.60228 0.22902 0.34919 0.0
O655 O 0.57158 0.23421 0.34961 0.0
O656 O 0.56212 0.17151 0.33063 0.0
O657 O 0.51317 0.18431 0.34242 0.0
H658 H 0.61678 0.08438 0.2975 0.0
H659 H 0.54396 0.23 0.40243 0.0
O660 O 0.51217 0.17845 0.40706 0.0
H661 H 0.47652 0.2903 0.35176 0.0
H662 H 0.40254 0.20504 0.40134 0.0
H663 H 0.46657 0.14693 0.3475 0.0
H664 H 0.47787 0.23176 0.35053 0.0
H665 H 0.46099 0.20921 0.40144 0.0
O666 O 0.61329 0.20109 0.35158 0.0
H667 H 0.58043 0.11343 0.32175 0.0
H668 H 0.6585 0.16115 0.35067 0.0
H669 H 0.40817 0.1423 0.34668 0.0
H670 H 0.54315 0.28851 0.40435 0.0
H671 H 0.37576 0.1715 0.37375 0.0
H672 H 0.50934 0.31906 0.37882 0.0
O673 O 0.51496 0.13437 0.37309 0.0
H674 H 0.6454 0.18687 0.42572 0.0
H675 H 0.61663 0.10205 0.37426 0.0
H676 H 0.64758 0.08873 0.40693 0.0
H677 H 0.66214 0.13131 0.43293 0.0
H678 H 0.61431 0.19911 0.39293 0.0
H679 H 0.6957 0.13281 0.32661 0.0
H680 H 0.67488 0.09402 0.29984 0.0
O681 O 0.56358 0.1216 0.36078 0.0
C682 C 0.53337 0.17967 0.32734 0.0
C683 C 0.62616 0.10113 0.30915 0.0
C684 C 0.67045 0.12835 0.32547 0.0
N685 N 0.61735 0.13872 0.33773 0.0
C686 C 0.6057 0.11757 0.32297 0.0
C687 C 0.64926 0.14436 0.33902 0.0
C688 C 0.65875 0.10658 0.31046 0.0
C689 C 0.52894 0.24312 0.39142 0.0
N690 N 0.51093 0.22749 0.37642 0.0
C691 C 0.52868 0.27625 0.39252 0.0
C692 C 0.50974 0.29337 0.37817 0.0
C693 C 0.49135 0.27726 0.36297 0.0
C694 C 0.49227 0.24411 0.36231 0.0
C695 C 0.4164 0.19226 0.38943 0.0
C696 C 0.4526 0.15988 0.35923 0.0
C697 C 0.44949 0.19448 0.38943 0.0
N698 N 0.46712 0.17854 0.37437 0.0
C699 C 0.41955 0.15709 0.35873 0.0
C700 C 0.40138 0.17345 0.37394 0.0
C701 C 0.53579 0.11414 0.3672 0.0
C702 C 0.63931 0.16813 0.41447 0.0
C703 C 0.6229 0.12072 0.3855 0.0
C704 C 0.64046 0.11303 0.40395 0.0
C705 C 0.64864 0.13694 0.41852 0.0
N706 N 0.61383 0.15137 0.38164 0.0
C707 C 0.62183 0.17495 0.39582 0.0
Co708 Co 0.81707 0.48891 0.62303 0.0
Co709 Co 0.83635 0.41441 0.64257 0.0
O710 O 0.81419 0.44255 0.62248 0.0
C711 C 0.83613 0.47009 0.5793 0.0
O712 O 0.85323 0.44796 0.58864 0.0
C713 C 0.7689 0.39663 0.64572 0.0
O714 O 0.76236 0.42709 0.64568 0.0
O715 O 0.82089 0.43928 0.66765 0.0
O716 O 0.81499 0.48936 0.65542 0.0
H717 H 0.90588 0.3888 0.70628 0.0
H718 H 0.76842 0.45816 0.5954 0.0
O719 O 0.81977 0.48931 0.59065 0.0
H720 H 0.70844 0.52454 0.6469 0.0
H721 H 0.79215 0.59888 0.596 0.0
H722 H 0.85224 0.53602 0.64946 0.0
H723 H 0.767 0.5233 0.64788 0.0
H724 H 0.78838 0.5404 0.59634 0.0
O725 O 0.79755 0.38708 0.64461 0.0
H726 H 0.87841 0.42405 0.68046 0.0
H727 H 0.83978 0.34411 0.64783 0.0
H728 H 0.8565 0.59445 0.64983 0.0
H729 H 0.70989 0.45889 0.59374 0.0
H730 H 0.8263 0.62628 0.62295 0.0
H731 H 0.67951 0.49218 0.61967 0.0
O732 O 0.86404 0.48721 0.62442 0.0
H733 H 0.82394 0.3571 0.57175 0.0
H734 H 0.89951 0.38964 0.62856 0.0
H735 H 0.919 0.36002 0.59678 0.0
H736 H 0.88109 0.34355 0.5681 0.0
H737 H 0.8055 0.38701 0.6037 0.0
H738 H 0.8666 0.30798 0.67341 0.0
H739 H 0.90004 0.33031 0.70284 0.0
O740 O 0.87567 0.44121 0.64109 0.0
C741 C 0.81524 0.46869 0.67054 0.0
C742 C 0.89148 0.37878 0.69347 0.0
C743 C 0.8694 0.33342 0.67504 0.0
N744 N 0.85781 0.38613 0.66253 0.0
C745 C 0.87596 0.39861 0.67877 0.0
C746 C 0.85424 0.35399 0.66063 0.0
C747 C 0.88816 0.34597 0.69155 0.0
C748 C 0.75537 0.47298 0.60657 0.0
N749 N 0.7711 0.49077 0.62165 0.0
C750 C 0.72223 0.47319 0.60562 0.0
C751 C 0.7052 0.49182 0.62021 0.0
C752 C 0.72142 0.50996 0.63551 0.0
C753 C 0.75457 0.50911 0.63601 0.0
C754 C 0.80534 0.58528 0.60784 0.0
C755 C 0.83883 0.54974 0.63784 0.0
C756 C 0.80333 0.55217 0.60809 0.0
N757 N 0.8198 0.53487 0.62307 0.0
C758 C 0.84142 0.5828 0.63807 0.0
C759 C 0.82451 0.60064 0.62296 0.0
C760 C 0.88369 0.46791 0.63294 0.0
C761 C 0.84067 0.36404 0.58418 0.0
C762 C 0.88287 0.38259 0.61614 0.0
C763 C 0.89404 0.36577 0.5982 0.0
C764 C 0.87275 0.3565 0.58212 0.0
N765 N 0.85137 0.38992 0.61802 0.0
C766 C 0.83034 0.38084 0.60236 0.0
Co767 Co 0.51506 0.81541 0.1258 0.0
Co768 Co 0.5901 0.84225 0.1395 0.0
O769 O 0.56101 0.81696 0.12199 0.0
C770 C 0.52298 0.84043 0.08155 0.0
O771 O 0.54184 0.86203 0.08982 0.0
C772 C 0.60952 0.7759 0.14583 0.0
O773 O 0.57923 0.76882 0.14674 0.0
O774 O 0.56782 0.8305 0.16679 0.0
O775 O 0.5199 0.81089 0.15775 0.0
H776 H 0.61934 0.92208 0.19657 0.0
H777 H 0.54679 0.77186 0.09483 0.0
O778 O 0.50986 0.81971 0.09363 0.0
H779 H 0.49262 0.7023 0.14737 0.0
H780 H 0.40426 0.78206 0.10532 0.0
H781 H 0.4693 0.84335 0.15692 0.0
H782 H 0.48843 0.76057 0.15037 0.0
H783 H 0.46256 0.78413 0.10145 0.0
O784 O 0.6185 0.8045 0.14308 0.0
H785 H 0.58262 0.8903 0.17421 0.0
H786 H 0.6606 0.8475 0.14181 0.0
H787 H 0.41113 0.8417 0.1615 0.0
H788 H 0.55138 0.71373 0.09111 0.0
H789 H 0.37821 0.81088 0.13557 0.0
H790 H 0.52429 0.67853 0.11756 0.0
O791 O 0.5125 0.86258 0.12922 0.0
H792 H 0.64041 0.82075 0.06722 0.0
H793 H 0.61225 0.9034 0.12042 0.0
H794 H 0.63818 0.91882 0.0862 0.0
H795 H 0.65246 0.87733 0.05932 0.0
H796 H 0.61423 0.80642 0.10158 0.0
H797 H 0.69818 0.87866 0.1639 0.0
H798 H 0.67758 0.91634 0.19147 0.0
O799 O 0.56214 0.87993 0.1363 0.0
C800 C 0.54101 0.81834 0.17166 0.0
C801 C 0.6286 0.90581 0.18456 0.0
C802 C 0.67286 0.8814 0.16625 0.0
N803 N 0.61947 0.86723 0.15665 0.0
C804 C 0.60793 0.88782 0.17183 0.0
C805 C 0.65147 0.86378 0.15382 0.0
C806 C 0.66128 0.90255 0.18171 0.0
C807 C 0.53462 0.7567 0.10626 0.0
N808 N 0.51724 0.7696 0.12275 0.0
C809 C 0.53743 0.7238 0.10413 0.0
C810 C 0.52227 0.70407 0.119 0.0
C811 C 0.50452 0.71739 0.13574 0.0
C812 C 0.50228 0.7504 0.13738 0.0
C813 C 0.41836 0.79552 0.11674 0.0
C814 C 0.45515 0.82972 0.14565 0.0
C815 C 0.45136 0.79684 0.1146 0.0
N816 N 0.4693 0.81364 0.12904 0.0
C817 C 0.42221 0.82896 0.14829 0.0
C818 C 0.40375 0.81169 0.13372 0.0
C819 C 0.53262 0.88457 0.13308 0.0
C820 C 0.6344 0.83904 0.07883 0.0
C821 C 0.6184 0.88521 0.10881 0.0
C822 C 0.63311 0.89408 0.08947 0.0
C823 C 0.64112 0.87079 0.0744 0.0
N824 N 0.61193 0.85401 0.11305 0.0
C825 C 0.6197 0.83105 0.09835 0.0
Co826 Co 0.18209 0.50249 0.62136 0.0
Co827 Co 0.16518 0.57906 0.63764 0.0
O828 O 0.18683 0.54847 0.6192 0.0
C829 C 0.16402 0.51909 0.57719 0.0
O830 O 0.14694 0.5416 0.58611 0.0
C831 C 0.23283 0.59507 0.6436 0.0
O832 O 0.23764 0.56532 0.64902 0.0
O833 O 0.17875 0.55575 0.66395 0.0
O834 O 0.18365 0.50454 0.65372 0.0
H835 H 0.09534 0.6136 0.69923 0.0
H836 H 0.23243 0.52991 0.59347 0.0
O837 O 0.17994 0.50002 0.58897 0.0
H838 H 0.28878 0.46441 0.64734 0.0
H839 H 0.20314 0.38987 0.59818 0.0
H840 H 0.14505 0.45868 0.64922 0.0
H841 H 0.2303 0.46786 0.64765 0.0
H842 H 0.20905 0.44814 0.59658 0.0
O843 O 0.20513 0.60481 0.6386 0.0
H844 H 0.1219 0.57483 0.67539 0.0
H845 H 0.16468 0.64977 0.63979 0.0
H846 H 0.13864 0.40054 0.65152 0.0
H847 H 0.29092 0.52696 0.59248 0.0
H848 H 0.16782 0.36572 0.62587 0.0
H849 H 0.31948 0.49407 0.61958 0.0
O850 O 0.13516 0.50592 0.6224 0.0
H851 H 0.18163 0.63005 0.56495 0.0
H852 H 0.10339 0.60482 0.62182 0.0
H853 H 0.08589 0.63266 0.58878 0.0
H854 H 0.12516 0.6455 0.56008 0.0
H855 H 0.19802 0.60179 0.59807 0.0
H856 H 0.13882 0.68937 0.66337 0.0
H857 H 0.10375 0.67134 0.69328 0.0
O858 O 0.12486 0.55375 0.63695 0.0
C859 C 0.1835 0.52646 0.66801 0.0
C860 C 0.11046 0.62176 0.6862 0.0
C861 C 0.13489 0.66428 0.66609 0.0
N862 N 0.14451 0.61005 0.65608 0.0
C863 C 0.12546 0.59992 0.6726 0.0
C864 C 0.14951 0.64176 0.65281 0.0
C865 C 0.11521 0.65415 0.68286 0.0
C866 C 0.24468 0.51532 0.6052 0.0
N867 N 0.22798 0.49891 0.6205 0.0
C868 C 0.2778 0.51384 0.60461 0.0
C869 C 0.29381 0.49542 0.61984 0.0
C870 C 0.27661 0.47878 0.63542 0.0
C871 C 0.2435 0.48086 0.63554 0.0
C872 C 0.19037 0.40479 0.60949 0.0
C873 C 0.15801 0.44366 0.63812 0.0
C874 C 0.19358 0.43778 0.60864 0.0
N875 N 0.17765 0.45673 0.62294 0.0
C876 C 0.1542 0.41077 0.63945 0.0
C877 C 0.17055 0.39125 0.62503 0.0
C878 C 0.11606 0.52658 0.62999 0.0
C879 C 0.16432 0.6247 0.57738 0.0
C880 C 0.1206 0.61021 0.60937 0.0
C881 C 0.11056 0.62606 0.59072 0.0
C882 C 0.13262 0.6333 0.57464 0.0
N883 N 0.15173 0.60181 0.61192 0.0
C884 C 0.17349 0.60883 0.59622 0.0
Co885 Co 0.48978 0.18248 0.12626 0.0
Co886 Co 0.41345 0.15916 0.13949 0.0
O887 O 0.44387 0.18332 0.12235 0.0
C888 C 0.48035 0.15883 0.08187 0.0
O889 O 0.46031 0.13822 0.09003 0.0
C890 C 0.39775 0.22627 0.14682 0.0
O891 O 0.42838 0.23159 0.14791 0.0
O892 O 0.43624 0.16891 0.16692 0.0
O893 O 0.485 0.18672 0.15821 0.0
H894 H 0.37968 0.07947 0.19548 0.0
H895 H 0.4604 0.22806 0.09558 0.0
O896 O 0.49485 0.1784 0.0941 0.0
H897 H 0.51781 0.29396 0.1487 0.0
H898 H 0.60221 0.21045 0.10618 0.0
H899 H 0.53393 0.15185 0.15729 0.0
H900 H 0.51905 0.23551 0.15127 0.0
H901 H 0.54391 0.21137 0.10221 0.0
O902 O 0.38718 0.19833 0.14354 0.0
H903 H 0.41816 0.10981 0.17359 0.0
H904 H 0.34278 0.15772 0.14168 0.0
H905 H 0.59209 0.15048 0.16197 0.0
H906 H 0.45876 0.2864 0.09228 0.0
H907 H 0.62664 0.17994 0.13629 0.0
H908 H 0.48748 0.31977 0.11904 0.0
O909 O 0.48992 0.1352 0.1294 0.0
H910 H 0.36478 0.18531 0.06741 0.0
H911 H 0.38801 0.09985 0.11964 0.0
H912 H 0.36149 0.08678 0.08517 0.0
H913 H 0.34971 0.1297 0.05878 0.0
H914 H 0.39147 0.19727 0.10201 0.0
H915 H 0.30346 0.12804 0.16332 0.0
H916 H 0.32187 0.08852 0.1904 0.0
O917 O 0.43938 0.12008 0.13587 0.0
C918 C 0.46353 0.17977 0.17198 0.0
C919 C 0.37137 0.09656 0.18369 0.0
C920 C 0.32859 0.12385 0.16566 0.0
N921 N 0.38271 0.13535 0.15629 0.0
C922 C 0.39304 0.11374 0.17121 0.0
C923 C 0.35095 0.14063 0.15348 0.0
C924 C 0.33893 0.10167 0.18084 0.0
C925 C 0.47328 0.2424 0.10713 0.0
N926 N 0.48994 0.22839 0.12353 0.0
C927 C 0.47214 0.27543 0.10524 0.0
C928 C 0.48822 0.29414 0.12028 0.0
C929 C 0.50521 0.27968 0.13694 0.0
C930 C 0.50579 0.24658 0.13834 0.0
C931 C 0.5874 0.19756 0.11749 0.0
C932 C 0.54881 0.16488 0.14613 0.0
C933 C 0.55439 0.19794 0.11529 0.0
N934 N 0.53556 0.18187 0.1296 0.0
C935 C 0.58172 0.16394 0.14882 0.0
C936 C 0.6011 0.18045 0.1344 0.0
C937 C 0.46873 0.1141 0.13289 0.0
C938 C 0.3697 0.16642 0.0788 0.0
C939 C 0.38295 0.11865 0.10824 0.0
C940 C 0.3679 0.11111 0.08876 0.0
C941 C 0.36128 0.1352 0.07396 0.0
N942 N 0.3911 0.14932 0.11287 0.0
C943 C 0.38469 0.17307 0.09846 0.0
C944 C 0.07092 0.49729 0.11648 0.0
C945 C 0.08209 0.4724 0.1295 0.0
C946 C 0.03863 0.50541 0.11628 0.0
C947 C 0.01719 0.48866 0.12974 0.0
C948 C 0.0283 0.46347 0.14286 0.0
C949 C 0.06058 0.45543 0.14241 0.0
C950 C 0.02749 0.53204 0.10178 0.0
C951 C 0.00623 0.44549 0.15774 0.0
C952 C 0.94194 0.53199 0.14567 0.0
C953 C 0.91934 0.51765 0.13217 0.0
C954 C 0.97376 0.52238 0.14528 0.0
C955 C 0.98333 0.4983 0.13071 0.0
C956 C 0.96066 0.4837 0.11701 0.0
C957 C 0.9288 0.49334 0.11807 0.0
C958 C 0.99714 0.53805 0.16044 0.0
C959 C 0.97018 0.45835 0.10099 0.0
H960 H 0.0874 0.51028 0.1063 0.0
H961 H 0.06907 0.43624 0.15256 0.0
H962 H 0.00794 0.52362 0.09119 0.0
H963 H 0.01793 0.55176 0.11174 0.0
H964 H 0.04688 0.54151 0.09142 0.0
H965 H 0.01859 0.42624 0.16669 0.0
H966 H 0.99554 0.46207 0.16966 0.0
H967 H 0.98645 0.4349 0.14833 0.0
H968 H 0.93471 0.55066 0.15669 0.0
H969 H 0.91144 0.4824 0.10746 0.0
H970 H 0.01583 0.55039 0.15099 0.0
H971 H 0.00912 0.51982 0.17052 0.0
H972 H 0.98559 0.5556 0.17133 0.0
H973 H 0.9882 0.46794 0.08963 0.0
H974 H 0.94965 0.44944 0.09146 0.0
H975 H 0.98123 0.43803 0.10958 0.0
C976 C 0.45728 0.93831 0.64881 0.0
C977 C 0.47314 0.91767 0.63463 0.0
C978 C 0.46503 0.97071 0.64964 0.0
C979 C 0.48884 0.98281 0.63572 0.0
C980 C 0.50469 0.96218 0.62122 0.0
C981 C 0.49682 0.92984 0.62096 0.0
C982 C 0.44793 0.99195 0.66551 0.0
C983 C 0.52989 0.9743 0.60589 0.0
C984 C 0.4896 0.07091 0.62278 0.0
C985 C 0.51485 0.08174 0.63563 0.0
C986 C 0.48073 0.0388 0.62278 0.0
C987 C 0.49719 0.01709 0.63619 0.0
C988 C 0.52228 0.02796 0.64952 0.0
C989 C 0.53099 0.06011 0.64895 0.0
C990 C 0.45416 0.028 0.60809 0.0
C991 C 0.5401 0.00557 0.66424 0.0
H992 H 0.43907 0.92908 0.65951 0.0
H993 H 0.50906 0.91412 0.60984 0.0
H994 H 0.46534 0.00339 0.67651 0.0
H995 H 0.43543 0.01121 0.65672 0.0
H996 H 0.43033 0.97874 0.67543 0.0
H997 H 0.53961 0.95522 0.59539 0.0
H998 H 0.51988 0.99323 0.59543 0.0
H999 H 0.54974 0.98498 0.61519 0.0
H1000 H 0.47712 0.08742 0.61234 0.0
H1001 H 0.55039 0.06831 0.65904 0.0
H1002 H 0.43527 0.01624 0.6177 0.0
H1003 H 0.46329 0.01023 0.59638 0.0
H1004 H 0.44341 0.04798 0.59891 0.0
H1005 H 0.52324 0.99307 0.67511 0.0
H1006 H 0.55804 0.01806 0.67432 0.0
H1007 H 0.55238 0.98719 0.65447 0.0
C1008 C 0.06026 0.53478 0.35007 0.0
C1009 C 0.08248 0.51884 0.36303 0.0
C1010 C 0.02817 0.52608 0.35021 0.0
C1011 C 0.01793 0.50127 0.36399 0.0
C1012 C 0.04019 0.48516 0.3772 0.0
C1013 C 0.07233 0.49392 0.37639 0.0
C1014 C 0.00523 0.54338 0.33557 0.0
C1015 C 0.02999 0.45896 0.39237 0.0
C1016 C 0.93021 0.50001 0.37804 0.0
C1017 C 0.91899 0.4759 0.36439 0.0
C1018 C 0.96253 0.50809 0.37841 0.0
C1019 C 0.9839 0.49215 0.36444 0.0
C1020 C 0.97265 0.46797 0.35051 0.0
C1021 C 0.94038 0.4599 0.35083 0.0
C1022 C 0.97383 0.5336 0.39377 0.0
C1023 C 0.99461 0.45092 0.33506 0.0
H1024 H 0.06801 0.55395 0.33963 0.0
H1025 H 0.08938 0.48175 0.38659 0.0
H1026 H 0.9931 0.5262 0.32474 0.0
H1027 H 0.98661 0.55522 0.34538 0.0
H1028 H 0.01721 0.5616 0.32544 0.0
H1029 H 0.05018 0.44918 0.40184 0.0
H1030 H 0.01182 0.46805 0.40381 0.0
H1031 H 0.01888 0.43935 0.38307 0.0
H1032 H 0.91381 0.5122 0.38872 0.0
H1033 H 0.93181 0.44134 0.34018 0.0
H1034 H 0.98406 0.5537 0.3845 0.0
H1035 H 0.99293 0.52411 0.40431 0.0
H1036 H 0.95438 0.54281 0.40417 0.0
H1037 H 0.0059 0.46829 0.32396 0.0
H1038 H 0.98201 0.43278 0.32522 0.0
H1039 H 0.01395 0.43905 0.34417 0.0
C1040 C 0.53505 0.9418 0.85272 0.0
C1041 C 0.51852 0.92049 0.86605 0.0
C1042 C 0.5269 0.97411 0.85213 0.0
C1043 C 0.50203 0.98544 0.86548 0.0
C1044 C 0.48537 0.9641 0.87905 0.0
C1045 C 0.49364 0.93185 0.87904 0.0
C1046 C 0.54489 0.99611 0.83722 0.0
C1047 C 0.45905 0.97539 0.89378 0.0
C1048 C 0.50171 0.07295 0.88009 0.0
C1049 C 0.47776 0.08482 0.86653 0.0
C1050 C 0.50976 0.04064 0.87994 0.0
C1051 C 0.49383 0.01977 0.86564 0.0
C1052 C 0.46982 0.03161 0.85178 0.0
C1053 C 0.46186 0.06396 0.85253 0.0
C1054 C 0.53511 0.0288 0.89524 0.0
C1055 C 0.45264 0.01012 0.8361 0.0
H1056 H 0.55416 0.93318 0.84254 0.0
H1057 H 0.48087 0.91558 0.88949 0.0
H1058 H 0.52811 0.00834 0.82616 0.0
H1059 H 0.5571 0.01474 0.84681 0.0
H1060 H 0.56287 0.98335 0.82735 0.0
H1061 H 0.44846 0.95572 0.90335 0.0
H1062 H 0.46835 0.99356 0.90514 0.0
H1063 H 0.44001 0.9868 0.88412 0.0
H1064 H 0.51398 0.08887 0.89106 0.0
H1065 H 0.44346 0.07299 0.84191 0.0
H1066 H 0.55479 0.01781 0.88595 0.0
H1067 H 0.52514 0.01017 0.90597 0.0
H1068 H 0.54504 0.04809 0.90547 0.0
H1069 H 0.47 0.99835 0.82523 0.0
H1070 H 0.43513 0.02321 0.82603 0.0
H1071 H 0.44 0.99113 0.84507 0.0
C1072 C 0.93126 0.5062 0.87749 0.0
C1073 C 0.9185 0.52818 0.86281 0.0
C1074 C 0.96361 0.49835 0.87705 0.0
C1075 C 0.98359 0.51238 0.8613 0.0
C1076 C 0.97085 0.53444 0.84635 0.0
C1077 C 0.93849 0.54231 0.84741 0.0
C1078 C 0.97643 0.47514 0.89352 0.0
C1079 C 0.99134 0.54951 0.82912 0.0
C1080 C 0.07221 0.51313 0.8725 0.0
C1081 C 0.08257 0.48641 0.86089 0.0
C1082 C 0.04011 0.52202 0.87261 0.0
C1083 C 0.01786 0.504 0.86061 0.0
C1084 C 0.02821 0.47739 0.84851 0.0
C1085 C 0.06041 0.4688 0.84889 0.0
C1086 C 0.0299 0.55033 0.88592 0.0
C1087 C 0.00522 0.45782 0.83532 0.0
H1088 H 0.916 0.49536 0.88955 0.0
H1089 H 0.92875 0.55916 0.83593 0.0
H1090 H 0.98674 0.45421 0.88519 0.0
H1091 H 0.99579 0.48641 0.90298 0.0
H1092 H 0.95784 0.46678 0.90493 0.0
H1093 H 0.97768 0.56588 0.81853 0.0
H1094 H 0.01101 0.56299 0.83675 0.0
H1095 H 0.00226 0.53079 0.81889 0.0
H1096 H 0.08909 0.52685 0.88189 0.0
H1097 H 0.06818 0.44823 0.83977 0.0
H1098 H 0.0127 0.54268 0.89849 0.0
H1099 H 0.01764 0.56793 0.8755 0.0
H1100 H 0.05025 0.5622 0.89401 0.0
H1101 H 0.98736 0.44673 0.84614 0.0
H1102 H 0.01731 0.43874 0.82602 0.0
H1103 H 0.99216 0.47328 0.82383 0.0
C1104 C 0.54456 0.05813 0.3553 0.0
C1105 C 0.52727 0.08009 0.36768 0.0
C1106 C 0.53612 0.02595 0.35493 0.0
C1107 C 0.51018 0.01537 0.36756 0.0
C1108 C 0.49309 0.03724 0.38049 0.0
C1109 C 0.50166 0.06943 0.38024 0.0
C1110 C 0.55454 0.0034 0.34064 0.0
C1111 C 0.46562 0.02668 0.39447 0.0
C1112 C 0.46735 0.94002 0.35108 0.0
C1113 C 0.48102 0.91754 0.36498 0.0
C1114 C 0.47692 0.97187 0.35159 0.0
C1115 C 0.50026 0.98158 0.36669 0.0
C1116 C 0.51406 0.95905 0.38085 0.0
C1117 C 0.5045 0.92717 0.37968 0.0
C1118 C 0.4621 0.99511 0.33594 0.0
C1119 C 0.53861 0.9687 0.39741 0.0
H1120 H 0.56432 0.06618 0.34551 0.0
H1121 H 0.48838 0.08623 0.38998 0.0
H1122 H 0.56452 0.98375 0.35045 0.0
H1123 H 0.5384 0.99261 0.32849 0.0
H1124 H 0.5743 0.0154 0.33196 0.0
H1125 H 0.45586 0.04637 0.40441 0.0
H1126 H 0.44632 0.01711 0.38414 0.0
H1127 H 0.4733 0.00726 0.40542 0.0
H1128 H 0.44931 0.93268 0.33962 0.0
H1129 H 0.51491 0.90993 0.39061 0.0
H1130 H 0.48086 0.00669 0.3261 0.0
H1131 H 0.4496 0.01413 0.34499 0.0
H1132 H 0.44487 0.98353 0.32484 0.0
H1133 H 0.55953 0.97926 0.38922 0.0
H1134 H 0.54672 0.94833 0.40742 0.0
H1135 H 0.52863 0.98715 0.40828 0.0
C1136 C 0.92881 0.50086 0.61922 0.0
C1137 C 0.9177 0.47686 0.63305 0.0
C1138 C 0.961 0.50938 0.61884 0.0
C1139 C 0.98256 0.49388 0.63288 0.0
C1140 C 0.97147 0.46994 0.6471 0.0
C1141 C 0.93921 0.46152 0.64688 0.0
C1142 C 0.97201 0.53466 0.60321 0.0
C1143 C 0.99371 0.4532 0.66251 0.0
C1144 C 0.06997 0.49358 0.61795 0.0
C1145 C 0.08185 0.51851 0.63067 0.0
C1146 C 0.0377 0.48542 0.61846 0.0
C1147 C 0.01685 0.50225 0.63229 0.0
C1148 C 0.02868 0.52729 0.6453 0.0
C1149 C 0.06101 0.53531 0.64419 0.0
C1150 C 0.02586 0.45893 0.60408 0.0
C1151 C 0.00724 0.54547 0.66046 0.0
H1152 H 0.91241 0.51272 0.60837 0.0
H1153 H 0.93081 0.44309 0.65771 0.0
H1154 H 0.98344 0.55443 0.61216 0.0
H1155 H 0.9901 0.52464 0.59207 0.0
H1156 H 0.95219 0.54448 0.5934 0.0
H1157 H 0.98112 0.43592 0.67305 0.0
H1158 H 0.01229 0.44036 0.65327 0.0
H1159 H 0.00596 0.47084 0.67292 0.0
H1160 H 0.08586 0.48059 0.60735 0.0
H1161 H 0.07002 0.55447 0.65416 0.0
H1162 H 0.00707 0.468 0.59312 0.0
H1163 H 0.01507 0.43987 0.61407 0.0
H1164 H 0.04511 0.44839 0.5941 0.0
H1165 H 0.98807 0.5573 0.65115 0.0
H1166 H 0.0203 0.5638 0.66985 0.0
H1167 H 0.99567 0.52887 0.67197 0.0
C1168 C 0.46071 0.05886 0.12012 0.0
C1169 C 0.47824 0.0806 0.1324 0.0
C1170 C 0.46912 0.02667 0.11961 0.0
C1171 C 0.49493 0.01596 0.13235 0.0
C1172 C 0.51244 0.03788 0.14502 0.0
C1173 C 0.50422 0.07017 0.14456 0.0
C1174 C 0.45065 0.00424 0.10528 0.0
C1175 C 0.53951 0.02717 0.15929 0.0
C1176 C 0.49754 0.92805 0.14601 0.0
C1177 C 0.52182 0.9176 0.13233 0.0
C1178 C 0.48875 0.96021 0.1464 0.0
C1179 C 0.50388 0.98187 0.13218 0.0
C1180 C 0.52776 0.97101 0.11784 0.0
C1181 C 0.53687 0.93903 0.1184 0.0
C1182 C 0.46388 0.97112 0.16235 0.0
C1183 C 0.54363 0.99312 0.10192 0.0
H1184 H 0.44075 0.06719 0.11058 0.0
H1185 H 0.5175 0.08714 0.15418 0.0
H1186 H 0.46701 0.99219 0.09384 0.0
H1187 H 0.43924 0.98552 0.11522 0.0
H1188 H 0.43194 0.01664 0.09583 0.0
H1189 H 0.54978 0.04702 0.16885 0.0
H1190 H 0.53112 0.00852 0.17063 0.0
H1191 H 0.5586 0.01653 0.14928 0.0
H1192 H 0.48623 0.91128 0.15687 0.0
H1193 H 0.55556 0.93063 0.10776 0.0
H1194 H 0.44351 0.98186 0.15365 0.0
H1195 H 0.47397 0.98976 0.17304 0.0
H1196 H 0.45492 0.95137 0.1726 0.0
H1197 H 0.52544 0.00514 0.09183 0.0
H1198 H 0.56045 0.98046 0.09108 0.0
H1199 H 0.55685 0.01187 0.11073 0.0
C1200 C 0.20709 0.50363 0.29513 0.0
C1201 C 0.18585 0.52758 0.30136 0.0
C1202 C 0.20932 0.49397 0.27346 0.0
C1203 C 0.18916 0.50799 0.25782 0.0
C1204 C 0.16807 0.53258 0.26396 0.0
C1205 C 0.16699 0.54238 0.28563 0.0
C1206 C 0.23272 0.4683 0.26739 0.0
C1207 C 0.14572 0.54765 0.24783 0.0
C1208 C 0.20524 0.5002 0.19763 0.0
C1209 C 0.18529 0.47483 0.19205 0.0
C1210 C 0.20757 0.51062 0.21914 0.0
C1211 C 0.18883 0.49585 0.23527 0.0
C1212 C 0.16883 0.47007 0.22975 0.0
C1213 C 0.16764 0.45959 0.20824 0.0
C1214 C 0.22981 0.53761 0.22455 0.0
C1215 C 0.14798 0.45415 0.24643 0.0
H1216 H 0.22193 0.49235 0.30721 0.0
H1217 H 0.15041 0.56077 0.29039 0.0
H1218 H 0.21975 0.44666 0.26224 0.0
H1219 H 0.24748 0.47612 0.25349 0.0
H1220 H 0.24865 0.46194 0.28105 0.0
H1221 H 0.13133 0.567 0.25513 0.0
H1222 H 0.15926 0.5575 0.23397 0.0
H1223 H 0.12936 0.52936 0.24127 0.0
H1224 H 0.21915 0.51184 0.1852 0.0
H1225 H 0.15203 0.4401 0.20397 0.0
H1226 H 0.24596 0.53056 0.23791 0.0
H1227 H 0.21599 0.55841 0.23025 0.0
H1228 H 0.24437 0.545 0.21042 0.0
H1229 H 0.16269 0.44468 0.25984 0.0
H1230 H 0.13384 0.43434 0.23947 0.0
H1231 H 0.1314 0.4718 0.25352 0.0
C1232 C 0.53649 0.20769 0.70798 0.0
C1233 C 0.51827 0.18863 0.6942 0.0
C1234 C 0.52853 0.21074 0.72994 0.0
C1235 C 0.50261 0.19318 0.73833 0.0
C1236 C 0.48403 0.17407 0.72434 0.0
C1237 C 0.49177 0.17251 0.7023 0.0
C1238 C 0.54812 0.23228 0.7442 0.0
C1239 C 0.45687 0.15417 0.73279 0.0
C1240 C 0.50417 0.17057 0.79769 0.0
C1241 C 0.47999 0.18975 0.80604 0.0
C1242 C 0.51193 0.17162 0.77565 0.0
C1243 C 0.4959 0.19328 0.76191 0.0
C1244 C 0.47242 0.21375 0.77056 0.0
C1245 C 0.46422 0.21123 0.79251 0.0
C1246 C 0.53633 0.14866 0.76691 0.0
C1247 C 0.45572 0.23796 0.7566 0.0
H1248 H 0.5569 0.22026 0.70155 0.0
H1249 H 0.47798 0.15749 0.69159 0.0
H1250 H 0.5324 0.24843 0.75352 0.0
H1251 H 0.56165 0.2179 0.75607 0.0
H1252 H 0.5652 0.24681 0.73472 0.0
H1253 H 0.4447 0.14075 0.71971 0.0
H1254 H 0.46588 0.137 0.74495 0.0
H1255 H 0.43916 0.16944 0.74103 0.0
H1256 H 0.51604 0.15376 0.80824 0.0
H1257 H 0.44562 0.22615 0.79915 0.0
H1258 H 0.55593 0.16178 0.75893 0.0
H1259 H 0.52526 0.1332 0.75446 0.0
H1260 H 0.54658 0.13334 0.77978 0.0
H1261 H 0.47337 0.25236 0.74756 0.0
H1262 H 0.44046 0.25416 0.76626 0.0
H1263 H 0.44064 0.22572 0.74447 0.0
C1264 C 0.79435 0.50257 0.19971 0.0
C1265 C 0.81607 0.52634 0.1939 0.0
C1266 C 0.79146 0.49263 0.2213 0.0
C1267 C 0.81142 0.50614 0.23727 0.0
C1268 C 0.83309 0.53042 0.23153 0.0
C1269 C 0.83482 0.54052 0.20996 0.0
C1270 C 0.76745 0.46732 0.22696 0.0
C1271 C 0.85529 0.54493 0.248 0.0
C1272 C 0.79483 0.49912 0.29745 0.0
C1273 C 0.81463 0.47374 0.30323 0.0
C1274 C 0.79243 0.50908 0.27584 0.0
C1275 C 0.81099 0.49386 0.2598 0.0
C1276 C 0.83065 0.46791 0.2655 0.0
C1277 C 0.83189 0.4579 0.28711 0.0
C1278 C 0.77054 0.53627 0.27024 0.0
C1279 C 0.85134 0.45151 0.24895 0.0
H1280 H 0.7796 0.49176 0.18738 0.0
H1281 H 0.85176 0.55878 0.20554 0.0
H1282 H 0.77989 0.44543 0.23224 0.0
H1283 H 0.75241 0.47531 0.24067 0.0
H1284 H 0.75185 0.4613 0.21305 0.0
H1285 H 0.87043 0.56389 0.24093 0.0
H1286 H 0.84155 0.55516 0.26162 0.0
H1287 H 0.87095 0.52624 0.25483 0.0
H1288 H 0.7812 0.51124 0.30983 0.0
H1289 H 0.84736 0.43837 0.2915 0.0
H1290 H 0.75484 0.52956 0.25656 0.0
H1291 H 0.78471 0.55707 0.26496 0.0
H1292 H 0.75554 0.54351 0.28419 0.0
H1293 H 0.83665 0.44255 0.23536 0.0
H1294 H 0.86478 0.43127 0.25596 0.0
H1295 H 0.86855 0.46874 0.24208 0.0
C1296 C 0.53683 0.79453 0.79217 0.0
C1297 C 0.51868 0.81433 0.80553 0.0
C1298 C 0.52946 0.79114 0.77014 0.0
C1299 C 0.50419 0.80905 0.76121 0.0
C1300 C 0.48575 0.82901 0.77474 0.0
C1301 C 0.49287 0.83094 0.79688 0.0
C1302 C 0.54884 0.76869 0.75642 0.0
C1303 C 0.45922 0.84921 0.76572 0.0
C1304 C 0.50588 0.82913 0.70137 0.0
C1305 C 0.48104 0.81031 0.69354 0.0
C1306 C 0.51403 0.82861 0.72338 0.0
C1307 C 0.49765 0.8079 0.7376 0.0
C1308 C 0.47374 0.78752 0.72943 0.0
C1309 C 0.46523 0.78947 0.70752 0.0
C1310 C 0.53897 0.8514 0.73159 0.0
C1311 C 0.4566 0.76427 0.74391 0.0
H1312 H 0.5567 0.78157 0.79901 0.0
H1313 H 0.47911 0.84648 0.80726 0.0
H1314 H 0.53294 0.75224 0.74749 0.0
H1315 H 0.56252 0.78229 0.7442 0.0
H1316 H 0.56576 0.75446 0.76624 0.0
H1317 H 0.44743 0.86373 0.77839 0.0
H1318 H 0.46874 0.86537 0.75309 0.0
H1319 H 0.44108 0.83397 0.75789 0.0
H1320 H 0.51775 0.84552 0.69051 0.0
H1321 H 0.44606 0.77488 0.70131 0.0
H1322 H 0.55797 0.83831 0.74024 0.0
H1323 H 0.5281 0.86808 0.74336 0.0
H1324 H 0.54997 0.86542 0.71833 0.0
H1325 H 0.47393 0.75029 0.75352 0.0
H1326 H 0.44141 0.74761 0.73456 0.0
H1327 H 0.44135 0.77734 0.75552 0.0
C1328 C 0.78926 0.53683 0.79047 0.0
C1329 C 0.81085 0.52143 0.80412 0.0
C1330 C 0.78641 0.52792 0.76868 0.0
C1331 C 0.80663 0.50405 0.76028 0.0
C1332 C 0.82828 0.48826 0.77415 0.0
C1333 C 0.82969 0.49677 0.79606 0.0
C1334 C 0.76221 0.54441 0.75459 0.0
C1335 C 0.85094 0.46339 0.76566 0.0
C1336 C 0.79126 0.462 0.70703 0.0
C1337 C 0.81044 0.47951 0.69288 0.0
C1338 C 0.7885 0.47069 0.72887 0.0
C1339 C 0.80643 0.49665 0.73679 0.0
C1340 C 0.82556 0.51461 0.72243 0.0
C1341 C 0.82686 0.50613 0.70051 0.0
C1342 C 0.76693 0.45175 0.74351 0.0
C1343 C 0.84578 0.54185 0.73039 0.0
H1344 H 0.77464 0.55584 0.79688 0.0
H1345 H 0.84662 0.48521 0.80669 0.0
H1346 H 0.77446 0.55915 0.74228 0.0
H1347 H 0.74768 0.52663 0.74577 0.0
H1348 H 0.74613 0.55997 0.76411 0.0
H1349 H 0.86618 0.45329 0.77863 0.0
H1350 H 0.83758 0.44375 0.75793 0.0
H1351 H 0.86647 0.47399 0.75307 0.0
H1352 H 0.77845 0.44148 0.70098 0.0
H1353 H 0.84196 0.51938 0.68953 0.0
H1354 H 0.75106 0.4679 0.7527 0.0
H1355 H 0.78132 0.43842 0.75549 0.0
H1356 H 0.75212 0.43454 0.73436 0.0
H1357 H 0.83077 0.55991 0.7385 0.0
H1358 H 0.85909 0.55355 0.71707 0.0
H1359 H 0.86306 0.53304 0.74256 0.0
C1360 C 0.46301 0.82911 0.28675 0.0
C1361 C 0.47862 0.81322 0.30364 0.0
C1362 C 0.47443 0.8277 0.26549 0.0
C1363 C 0.50171 0.80931 0.26085 0.0
C1364 C 0.51701 0.79232 0.27765 0.0
C1365 C 0.50551 0.7948 0.29894 0.0
C1366 C 0.45777 0.84667 0.24811 0.0
C1367 C 0.5457 0.77186 0.27318 0.0
C1368 C 0.51147 0.79052 0.2012 0.0
C1369 C 0.53341 0.81374 0.19479 0.0
C1370 C 0.50225 0.7876 0.22293 0.0
C1371 C 0.51464 0.80898 0.23847 0.0
C1372 C 0.53744 0.83191 0.23218 0.0
C1373 C 0.54684 0.83375 0.21044 0.0
C1374 C 0.47849 0.76233 0.22913 0.0
C1375 C 0.55071 0.85558 0.24817 0.0
H1376 H 0.44233 0.84353 0.29022 0.0
H1377 H 0.5176 0.78232 0.31188 0.0
H1378 H 0.47454 0.86401 0.24086 0.0
H1379 H 0.44969 0.83072 0.23493 0.0
H1380 H 0.43687 0.85984 0.25444 0.0
H1381 H 0.55346 0.75841 0.28772 0.0
H1382 H 0.54039 0.75475 0.26 0.0
H1383 H 0.56572 0.7869 0.26761 0.0
H1384 H 0.50131 0.77476 0.18919 0.0
H1385 H 0.5637 0.85184 0.20555 0.0
H1386 H 0.45563 0.77363 0.23362 0.0
H1387 H 0.48698 0.74892 0.24346 0.0
H1388 H 0.47403 0.74533 0.21571 0.0
H1389 H 0.53132 0.87115 0.25412 0.0
H1390 H 0.56951 0.87074 0.24094 0.0
H1391 H 0.56074 0.84312 0.26243 0.0
C1392 C 0.21117 0.46612 0.78958 0.0
C1393 C 0.19072 0.48332 0.80303 0.0
C1394 C 0.21367 0.4735 0.76751 0.0
C1395 C 0.19416 0.49764 0.75869 0.0
C1396 C 0.17373 0.51528 0.77238 0.0
C1397 C 0.17272 0.50826 0.79453 0.0
C1398 C 0.23661 0.45505 0.75356 0.0
C1399 C 0.1518 0.54049 0.76348 0.0
C1400 C 0.2088 0.53517 0.70384 0.0
C1401 C 0.18834 0.51744 0.69069 0.0
C1402 C 0.21219 0.52795 0.72587 0.0
C1403 C 0.19363 0.50332 0.735 0.0
C1404 C 0.17313 0.48518 0.72166 0.0
C1405 C 0.1712 0.49211 0.69951 0.0
C1406 C 0.23517 0.54697 0.73942 0.0
C1407 C 0.15222 0.45938 0.73092 0.0
H1408 H 0.22508 0.44684 0.79634 0.0
H1409 H 0.1566 0.52116 0.80502 0.0
H1410 H 0.22328 0.4398 0.74209 0.0
H1411 H 0.25135 0.47155 0.7438 0.0
H1412 H 0.25256 0.43968 0.76334 0.0
H1413 H 0.13761 0.55221 0.77636 0.0
H1414 H 0.16563 0.55892 0.75479 0.0
H1415 H 0.13525 0.52967 0.75159 0.0
H1416 H 0.22219 0.55463 0.69684 0.0
H1417 H 0.15519 0.47866 0.68926 0.0
H1418 H 0.25083 0.53083 0.74879 0.0
H1419 H 0.22191 0.56168 0.75125 0.0
H1420 H 0.25022 0.56291 0.72941 0.0
H1421 H 0.16688 0.44125 0.73924 0.0
H1422 H 0.13775 0.4474 0.71829 0.0
H1423 H 0.13596 0.46971 0.74319 0.0
C1424 C 0.49649 0.2019 0.29939 0.0
C1425 C 0.52267 0.18285 0.30468 0.0
C1426 C 0.48577 0.20422 0.27794 0.0
C1427 C 0.50112 0.1864 0.26157 0.0
C1428 C 0.52758 0.16718 0.26682 0.0
C1429 C 0.53826 0.16594 0.28826 0.0
C1430 C 0.45795 0.22555 0.27281 0.0
C1431 C 0.54419 0.14732 0.24988 0.0
C1432 C 0.45663 0.16381 0.21054 0.0
C1433 C 0.47111 0.18352 0.19515 0.0
C1434 C 0.46565 0.16503 0.23236 0.0
C1435 C 0.48916 0.18702 0.23898 0.0
C1436 C 0.50279 0.208 0.22368 0.0
C1437 C 0.49389 0.20572 0.20186 0.0
C1438 C 0.45106 0.14182 0.24812 0.0
C1439 C 0.52737 0.23227 0.23024 0.0
H1440 H 0.4845 0.21519 0.312 0.0
H1441 H 0.55837 0.15099 0.29225 0.0
H1442 H 0.46452 0.24255 0.25983 0.0
H1443 H 0.43781 0.21116 0.26667 0.0
H1444 H 0.4498 0.23916 0.28717 0.0
H1445 H 0.56431 0.13348 0.25669 0.0
H1446 H 0.52707 0.13054 0.24242 0.0
H1447 H 0.55341 0.16276 0.23676 0.0
H1448 H 0.43914 0.1465 0.2054 0.0
H1449 H 0.50487 0.22123 0.19003 0.0
H1450 H 0.44084 0.15463 0.26217 0.0
H1451 H 0.46972 0.12569 0.25445 0.0
H1452 H 0.43209 0.1272 0.24056 0.0
H1453 H 0.5188 0.24624 0.2443 0.0
H1454 H 0.53323 0.24887 0.21685 0.0
H1455 H 0.54948 0.22004 0.23532 0.0
C1456 C 0.18985 0.48544 0.95047 0.0
C1457 C 0.16056 0.48345 0.93983 0.0
C1458 C 0.19149 0.4844 0.97313 0.0
C1459 C 0.16306 0.48243 0.98531 0.0
C1460 C 0.13336 0.4817 0.97459 0.0
C1461 C 0.13251 0.48162 0.95191 0.0
C1462 C 0.22362 0.4842 0.98399 0.0
C1463 C 0.10252 0.4806 0.98705 0.0
C1464 C 0.16367 0.44673 0.04158 0.0
C1465 C 0.16501 0.47392 0.05458 0.0
C1466 C 0.16393 0.44918 0.01897 0.0
C1467 C 0.16438 0.47962 0.00923 0.0
C1468 C 0.16548 0.50719 0.02234 0.0
C1469 C 0.16636 0.50397 0.04494 0.0
C1470 C 0.16374 0.41921 0.00554 0.0
C1471 C 0.16494 0.54002 0.01252 0.0
H1472 H 0.21155 0.48659 0.94105 0.0
H1473 H 0.10985 0.48034 0.9436 0.0
H1474 H 0.22536 0.504 0.99576 0.0
H1475 H 0.22666 0.46177 0.99319 0.0
H1476 H 0.2434 0.48637 0.97218 0.0
H1477 H 0.08148 0.48294 0.97631 0.0
H1478 H 0.10067 0.45779 0.99593 0.0
H1479 H 0.10188 0.49994 -0.00076 0.0
H1480 H 0.16292 0.42349 0.04911 0.0
H1481 H 0.16717 0.52497 0.05509 0.0
H1482 H 0.18396 0.41941 0.99401 0.0
H1483 H 0.14163 0.41797 0.99583 0.0
H1484 H 0.16535 0.39745 0.01565 0.0
H1485 H 0.18547 0.54316 0.00148 0.0
H1486 H 0.16567 0.559 0.025 0.0
H1487 H 0.14309 0.54304 0.00269 0.0
C1488 C 0.55573 0.16219 0.45546 0.0
C1489 C 0.5286 0.16347 0.4424 0.0
C1490 C 0.55318 0.16286 0.47808 0.0
C1491 C 0.5227 0.16372 0.48777 0.0
C1492 C 0.4952 0.16471 0.4746 0.0
C1493 C 0.49852 0.16514 0.45201 0.0
C1494 C 0.58308 0.16271 0.49158 0.0
C1495 C 0.46232 0.16459 0.48436 0.0
C1496 C 0.51962 0.13253 0.54525 0.0
C1497 C 0.51779 0.16071 0.5572 0.0
C1498 C 0.51999 0.13314 0.52258 0.0
C1499 C 0.51971 0.16273 0.5117 0.0
C1500 C 0.51773 0.1913 0.52374 0.0
C1501 C 0.51623 0.18991 0.54641 0.0
C1502 C 0.52108 0.10215 0.51028 0.0
C1503 C 0.51834 0.2233 0.51273 0.0
H1504 H 0.579 0.16122 0.44797 0.0
H1505 H 0.47755 0.16592 0.44183 0.0
H1506 H 0.58296 0.18313 0.50294 0.0
H1507 H 0.5841 0.14077 0.50148 0.0
H1508 H 0.60489 0.16399 0.4815 0.0
H1509 H 0.4434 0.16519 0.47183 0.0
H1510 H 0.4591 0.14295 0.49438 0.0
H1511 H 0.45927 0.18535 0.4952 0.0
H1512 H 0.5206 0.10995 0.55367 0.0
H1513 H 0.51512 0.2117 0.55574 0.0
H1514 H 0.54397 0.10011 0.50151 0.0
H1515 H 0.50185 0.10146 0.49801 0.0
H1516 H 0.51854 0.08125 0.52112 0.0
H1517 H 0.5409 0.22605 0.50363 0.0
H1518 H 0.51622 0.24323 0.52442 0.0
H1519 H 0.4987 0.22508 0.50084 0.0
C1520 C 0.80984 0.52171 0.04574 0.0
C1521 C 0.83913 0.52275 0.05644 0.0
C1522 C 0.80837 0.52245 0.02305 0.0
C1523 C 0.83691 0.52317 0.01092 0.0
C1524 C 0.86655 0.52294 0.02173 0.0
C1525 C 0.86728 0.52332 0.0444 0.0
C1526 C 0.77634 0.52364 0.0121 0.0
C1527 C 0.89749 0.52269 0.00936 0.0
C1528 C 0.83372 0.50012 0.95154 0.0
C1529 C 0.83627 0.52982 0.94147 0.0
C1530 C 0.83405 0.49753 0.97418 0.0
C1531 C 0.83589 0.52541 0.98694 0.0
C1532 C 0.83761 0.55552 0.97679 0.0
C1533 C 0.83834 0.55731 0.95413 0.0
C1534 C 0.83321 0.46499 0.98442 0.0
C1535 C 0.83869 0.58583 0.98984 0.0
H1536 H 0.78808 0.52157 0.05513 0.0
H1537 H 0.88993 0.5239 0.05275 0.0
H1538 H 0.77419 0.54598 0.00268 0.0
H1539 H 0.77393 0.50369 0.00049 0.0
H1540 H 0.75642 0.52245 0.02386 0.0
H1541 H 0.91837 0.51988 0.02018 0.0
H1542 H 0.89754 0.50305 0.99738 0.0
H1543 H 0.90018 0.54521 0.00023 0.0
H1544 H 0.83233 0.47886 0.94168 0.0
H1545 H 0.83999 0.5803 0.9463 0.0
H1546 H 0.81245 0.46294 0.99538 0.0
H1547 H 0.85481 0.46142 0.99443 0.0
H1548 H 0.83192 0.44569 0.97219 0.0
H1549 H 0.81834 0.58666 0.00124 0.0
H1550 H 0.83797 0.60735 0.97944 0.0
H1551 H 0.86071 0.58656 -0.00033 0.0
C1552 C 0.49853 0.83407 0.54564 0.0
C1553 C 0.46931 0.83633 0.55636 0.0
C1554 C 0.50004 0.83465 0.52294 0.0
C1555 C 0.47155 0.83638 0.5108 0.0
C1556 C 0.44194 0.83787 0.52162 0.0
C1557 C 0.44123 0.83838 0.54431 0.0
C1558 C 0.53208 0.83405 0.51198 0.0
C1559 C 0.41101 0.83877 0.50926 0.0
C1560 C 0.47147 0.86703 0.45306 0.0
C1561 C 0.47217 0.83871 0.44121 0.0
C1562 C 0.4723 0.86663 0.47575 0.0
C1563 C 0.47264 0.83714 0.48677 0.0
C1564 C 0.47316 0.80844 0.47482 0.0
C1565 C 0.47349 0.80959 0.45212 0.0
C1566 C 0.47275 0.89774 0.48792 0.0
C1567 C 0.47251 0.77655 0.48599 0.0
H1568 H 0.52025 0.8327 0.55502 0.0
H1569 H 0.41861 0.83982 0.55264 0.0
H1570 H 0.53388 0.81308 0.50119 0.0
H1571 H 0.53489 0.85548 0.5017 0.0
H1572 H 0.55197 0.83325 0.52378 0.0
H1573 H 0.39001 0.83815 0.52014 0.0
H1574 H 0.40979 0.86067 0.49932 0.0
H1575 H 0.40967 0.81828 0.498 0.0
H1576 H 0.47072 0.88955 0.44455 0.0
H1577 H 0.47377 0.78769 0.44288 0.0
H1578 H 0.49307 0.89823 0.49935 0.0
H1579 H 0.45075 0.9002 0.49764 0.0
H1580 H 0.47463 0.91851 0.47691 0.0
H1581 H 0.49323 0.77418 0.49694 0.0
H1582 H 0.47278 0.75648 0.47432 0.0
H1583 H 0.45084 0.77464 0.49613 0.0
C1584 C 0.13507 0.51544 0.45068 0.0
C1585 C 0.16316 0.51576 0.43859 0.0
C1586 C 0.13591 0.51307 0.47329 0.0
C1587 C 0.16561 0.5122 0.48401 0.0
C1588 C 0.19408 0.51213 0.47181 0.0
C1589 C 0.19249 0.51337 0.44914 0.0
C1590 C 0.10502 0.51223 0.48572 0.0
C1591 C 0.22618 0.51224 0.4827 0.0
C1592 C 0.16413 0.54478 0.5411 0.0
C1593 C 0.16568 0.51699 0.55347 0.0
C1594 C 0.16521 0.54355 0.51847 0.0
C1595 C 0.16676 0.51368 0.508 0.0
C1596 C 0.16829 0.48547 0.52045 0.0
C1597 C 0.1683 0.48751 0.54314 0.0
C1598 C 0.16449 0.57422 0.50579 0.0
C1599 C 0.16895 0.4532 0.50983 0.0
H1600 H 0.11239 0.51699 0.44242 0.0
H1601 H 0.21421 0.51385 0.43971 0.0
H1602 H 0.10509 0.49221 0.4974 0.0
H1603 H 0.10227 0.53445 0.49517 0.0
H1604 H 0.08413 0.50968 0.47487 0.0
H1605 H 0.246 0.51079 0.47087 0.0
H1606 H 0.22894 0.53436 0.49229 0.0
H1607 H 0.22815 0.49204 0.49413 0.0
H1608 H 0.16244 0.56758 0.54915 0.0
H1609 H 0.16932 0.46603 0.5528 0.0
H1610 H 0.14235 0.57555 0.49611 0.0
H1611 H 0.18471 0.57506 0.49428 0.0
H1612 H 0.16566 0.59544 0.51645 0.0
H1613 H 0.14708 0.44984 0.50006 0.0
H1614 H 0.1706 0.43361 0.52182 0.0
H1615 H 0.1894 0.45146 0.49858 0.0
C1616 C 0.45177 0.1676 0.95625 0.0
C1617 C 0.47921 0.16849 0.94349 0.0
C1618 C 0.45378 0.16753 0.97888 0.0
C1619 C 0.48402 0.16715 0.9889 0.0
C1620 C 0.51186 0.168 0.97603 0.0
C1621 C 0.50909 0.16925 0.9534 0.0
C1622 C 0.42353 0.16765 0.99203 0.0
C1623 C 0.54447 0.16658 0.98614 0.0
C1624 C 0.48772 0.19037 0.04818 0.0
C1625 C 0.4842 0.16079 0.05826 0.0
C1626 C 0.48821 0.19283 0.02554 0.0
C1627 C 0.48624 0.16491 0.01283 0.0
C1628 C 0.48427 0.13485 0.02303 0.0
C1629 C 0.48265 0.13321 0.04567 0.0
C1630 C 0.48928 0.22533 0.01525 0.0
C1631 C 0.48314 0.10449 0.01004 0.0
H1632 H 0.42866 0.1673 0.94851 0.0
H1633 H 0.53029 0.16968 0.94343 0.0
H1634 H 0.42145 0.14515 0.00126 0.0
H1635 H 0.42404 0.18734 0.00396 0.0
H1636 H 0.40205 0.17031 0.98174 0.0
H1637 H 0.56371 0.16781 0.97387 0.0
H1638 H 0.5476 0.18638 0.99777 0.0
H1639 H 0.54704 0.14413 0.99539 0.0
H1640 H 0.48865 0.21171 0.05798 0.0
H1641 H 0.48016 0.11033 0.05354 0.0
H1642 H 0.46701 0.22952 0.00607 0.0
H1643 H 0.50917 0.22683 0.00353 0.0
H1644 H 0.49206 0.24457 0.02741 0.0
H1645 H 0.46046 0.10319 0.00096 0.0
H1646 H 0.48508 0.08306 0.02045 0.0
H1647 H 0.50269 0.10409 0.99799 0.0
C1648 C 0.86708 0.47689 0.45266 0.0
C1649 C 0.83897 0.47777 0.44061 0.0
C1650 C 0.86631 0.47775 0.47533 0.0
C1651 C 0.83664 0.47823 0.48611 0.0
C1652 C 0.80814 0.47923 0.47395 0.0
C1653 C 0.80968 0.47957 0.45126 0.0
C1654 C 0.89722 0.47773 0.48773 0.0
C1655 C 0.77607 0.47872 0.48487 0.0
C1656 C 0.83733 0.44466 0.54304 0.0
C1657 C 0.83551 0.4723 0.55556 0.0
C1658 C 0.83675 0.44624 0.52038 0.0
C1659 C 0.8355 0.47627 0.51009 0.0
C1660 C 0.83394 0.5043 0.52272 0.0
C1661 C 0.83337 0.50192 0.54538 0.0
C1662 C 0.83746 0.41578 0.50748 0.0
C1663 C 0.83367 0.53675 0.51233 0.0
H1664 H 0.88972 0.47573 0.44433 0.0
H1665 H 0.78795 0.47994 0.44185 0.0
H1666 H 0.8975 0.49747 0.49963 0.0
H1667 H 0.8996 0.45526 0.49696 0.0
H1668 H 0.91816 0.48017 0.47691 0.0
H1669 H 0.7562 0.48008 0.47307 0.0
H1670 H 0.77352 0.45654 0.49442 0.0
H1671 H 0.77396 0.49885 0.49635 0.0
H1672 H 0.83867 0.42174 0.55099 0.0
H1673 H 0.83218 0.52329 0.55515 0.0
H1674 H 0.85954 0.41461 0.49773 0.0
H1675 H 0.81718 0.41514 0.49601 0.0
H1676 H 0.83633 0.39438 0.51798 0.0
H1677 H 0.85537 0.53988 0.50235 0.0
H1678 H 0.83263 0.55618 0.52447 0.0
H1679 H 0.813 0.53902 0.50132 0.0
C1680 C 0.51609 0.86733 0.04607 0.0
C1681 C 0.51845 0.83917 0.05798 0.0
C1682 C 0.51345 0.86661 0.02345 0.0
C1683 C 0.51452 0.83705 0.01252 0.0
C1684 C 0.51661 0.8085 0.02456 0.0
C1685 C 0.51795 0.80989 0.04724 0.0
C1686 C 0.51021 0.8975 0.01123 0.0
C1687 C 0.51895 0.77663 0.01348 0.0
C1688 C 0.4896 0.83249 0.95343 0.0
C1689 C 0.51874 0.83706 0.94296 0.0
C1690 C 0.48773 0.83259 0.97614 0.0
C1691 C 0.51584 0.83625 0.9885 0.0
C1692 C 0.54543 0.8399 0.9779 0.0
C1693 C 0.54642 0.8408 0.95525 0.0
C1694 C 0.45568 0.82962 0.98689 0.0
C1695 C 0.57607 0.84296 0.99046 0.0
H1696 H 0.51624 0.88994 0.05448 0.0
H1697 H 0.52004 0.78815 0.05653 0.0
H1698 H 0.53207 0.90202 0.00171 0.0
H1699 H 0.49014 0.89609 -0.00038 0.0
H1700 H 0.50622 0.918 0.02222 0.0
H1701 H 0.5192 0.75662 0.0252 0.0
H1702 H 0.49875 0.77326 0.0022 0.0
H1703 H 0.54104 0.77566 0.0037 0.0
H1704 H 0.46817 0.8298 0.94387 0.0
H1705 H 0.569 0.84404 0.94713 0.0
H1706 H 0.45097 0.85104 0.99685 0.0
H1707 H 0.45543 0.8089 0.99798 0.0
H1708 H 0.43613 0.82685 0.97497 0.0
H1709 H 0.57578 0.86509 0.00019 0.0
H1710 H 0.59723 0.84348 0.97971 0.0
H1711 H 0.57856 0.82281 0.00191 0.0
C1712 C 0.28096 0.37482 0.16381 0.0
C1713 C 0.2579 0.37373 0.14752 0.0
C1714 C 0.30523 0.35199 0.16463 0.0
C1715 C 0.30691 0.32841 0.14831 0.0
C1716 C 0.28435 0.32815 0.13133 0.0
C1717 C 0.25974 0.35049 0.13137 0.0
C1718 C 0.32829 0.35237 0.18333 0.0
C1719 C 0.28594 0.30403 0.11326 0.0
C1720 C 0.38344 0.28261 0.13974 0.0
C1721 C 0.3754 0.25295 0.14839 0.0
C1722 C 0.36148 0.30765 0.1398 0.0
C1723 C 0.33129 0.30304 0.14939 0.0
C1724 C 0.32362 0.27344 0.15894 0.0
C1725 C 0.34561 0.24851 0.15796 0.0
C1726 C 0.37008 0.33851 0.12882 0.0
C1727 C 0.29201 0.26793 0.16987 0.0
H1728 H 0.27929 0.39275 0.17635 0.0
H1729 H 0.242 0.34992 0.11866 0.0
H1730 H 0.32595 0.33004 0.19274 0.0
H1731 H 0.35306 0.35346 0.17727 0.0
H1732 H 0.32422 0.37278 0.19438 0.0
H1733 H 0.26825 0.30884 0.10033 0.0
H1734 H 0.31001 0.30391 0.10593 0.0
H1735 H 0.28151 0.2799 0.1198 0.0
H1736 H 0.40647 0.28586 0.13219 0.0
H1737 H 0.33959 0.22556 0.1648 0.0
H1738 H 0.367 0.35869 0.14016 0.0
H1739 H 0.35388 0.34265 0.11494 0.0
H1740 H 0.39494 0.33859 0.12278 0.0
H1741 H 0.2873 0.28698 0.18186 0.0
H1742 H 0.29099 0.24461 0.17826 0.0
H1743 H 0.27268 0.26877 0.15769 0.0
C1744 C 0.74739 0.34432 0.65731 0.0
C1745 C 0.74302 0.37317 0.64645 0.0
C1746 C 0.7232 0.32145 0.65788 0.0
C1747 C 0.69446 0.32717 0.64663 0.0
C1748 C 0.69006 0.35625 0.63549 0.0
C1749 C 0.71425 0.37919 0.63586 0.0
C1750 C 0.7284 0.29119 0.67051 0.0
C1751 C 0.66018 0.36277 0.62273 0.0
C1752 C 0.64782 0.25343 0.63123 0.0
C1753 C 0.62319 0.25395 0.64645 0.0
C1754 C 0.67061 0.27772 0.63066 0.0
C1755 C 0.66932 0.3024 0.64622 0.0
C1756 C 0.64455 0.30287 0.66172 0.0
C1757 C 0.6214 0.27889 0.6614 0.0
C1758 C 0.69605 0.27695 0.61344 0.0
C1759 C 0.64297 0.3282 0.67899 0.0
H1760 H 0.76963 0.33982 0.66561 0.0
H1761 H 0.71106 0.40144 0.62729 0.0
H1762 H 0.70878 0.28769 0.68226 0.0
H1763 H 0.72827 0.27053 0.65938 0.0
H1764 H 0.75128 0.29132 0.67947 0.0
H1765 H 0.66062 0.38645 0.61481 0.0
H1766 H 0.6571 0.34431 0.61008 0.0
H1767 H 0.63913 0.36154 0.63349 0.0
H1768 H 0.64897 0.23424 0.61955 0.0
H1769 H 0.60242 0.2791 0.67326 0.0
H1770 H 0.7197 0.27392 0.62106 0.0
H1771 H 0.69646 0.29981 0.60451 0.0
H1772 H 0.69239 0.25735 0.60166 0.0
H1773 H 0.66501 0.32773 0.68883 0.0
H1774 H 0.62229 0.32503 0.68994 0.0
H1775 H 0.64143 0.35204 0.67144 0.0
C1776 C 0.72891 0.63059 0.1636 0.0
C1777 C 0.75308 0.63165 0.14806 0.0
C1778 C 0.70505 0.65383 0.16398 0.0
C1779 C 0.70485 0.67783 0.14793 0.0
C1780 C 0.72884 0.67845 0.13188 0.0
C1781 C 0.75306 0.65564 0.13239 0.0
C1782 C 0.68045 0.65305 0.18176 0.0
C1783 C 0.72881 0.70305 0.11408 0.0
C1784 C 0.62733 0.72102 0.13742 0.0
C1785 C 0.63334 0.75051 0.14704 0.0
C1786 C 0.65052 0.69712 0.13746 0.0
C1787 C 0.67982 0.70261 0.14806 0.0
C1788 C 0.68555 0.7321 0.15837 0.0
C1789 C 0.66241 0.75598 0.15736 0.0
C1790 C 0.64399 0.66639 0.12566 0.0
C1791 C 0.71609 0.73844 0.17043 0.0
H1792 H 0.72914 0.61206 0.17578 0.0
H1793 H 0.77165 0.65617 0.12025 0.0
H1794 H 0.68089 0.67577 0.19087 0.0
H1795 H 0.65636 0.65056 0.17471 0.0
H1796 H 0.68442 0.63321 0.1933 0.0
H1797 H 0.74817 0.6991 0.10216 0.0
H1798 H 0.70573 0.70263 0.10541 0.0
H1799 H 0.73164 0.72711 0.12111 0.0
H1800 H 0.60488 0.71702 0.12926 0.0
H1801 H 0.66685 0.77881 0.16491 0.0
H1802 H 0.64579 0.64605 0.13699 0.0
H1803 H 0.66212 0.66274 0.11286 0.0
H1804 H 0.62009 0.66605 0.11806 0.0
H1805 H 0.72021 0.71955 0.18264 0.0
H1806 H 0.71591 0.76181 0.17877 0.0
H1807 H 0.73643 0.73792 0.15903 0.0
C1808 C 0.28339 0.61546 0.65927 0.0
C1809 C 0.25941 0.61773 0.64365 0.0
C1810 C 0.30758 0.63835 0.6604 0.0
C1811 C 0.30826 0.66335 0.64507 0.0
C1812 C 0.28474 0.66492 0.62872 0.0
C1813 C 0.26024 0.64238 0.62846 0.0
C1814 C 0.33167 0.63646 0.67845 0.0
C1815 C 0.28518 0.69064 0.61169 0.0
C1816 C 0.34741 0.74219 0.65787 0.0
C1817 C 0.37686 0.73888 0.64761 0.0
C1818 C 0.32535 0.71726 0.65787 0.0
C1819 C 0.33256 0.68881 0.64667 0.0
C1820 C 0.36238 0.68534 0.63632 0.0
C1821 C 0.38444 0.7103 0.63722 0.0
C1822 C 0.2942 0.72152 0.66963 0.0
C1823 C 0.37051 0.65576 0.62367 0.0
H1824 H 0.28253 0.59648 0.67112 0.0
H1825 H 0.24179 0.64391 0.61626 0.0
H1826 H 0.35608 0.63602 0.67173 0.0
H1827 H 0.3298 0.65792 0.68881 0.0
H1828 H 0.32828 0.61511 0.68876 0.0
H1829 H 0.2668 0.68687 0.59905 0.0
H1830 H 0.28099 0.71409 0.61936 0.0
H1831 H 0.30882 0.69162 0.60378 0.0
H1832 H 0.3417 0.76426 0.66604 0.0
H1833 H 0.40716 0.70792 0.62912 0.0
H1834 H 0.29016 0.7014 0.68091 0.0
H1835 H 0.27433 0.72156 0.65784 0.0
H1836 H 0.29337 0.74404 0.67898 0.0
H1837 H 0.36829 0.63447 0.63412 0.0
H1838 H 0.39497 0.65655 0.61694 0.0
H1839 H 0.35348 0.65284 0.61011 0.0
C1840 C 0.34137 0.75428 0.33766 0.0
C1841 C 0.37061 0.7493 0.34788 0.0
C1842 C 0.31836 0.73021 0.3371 0.0
C1843 C 0.32442 0.70102 0.34771 0.0
C1844 C 0.3539 0.69603 0.3582 0.0
C1845 C 0.37691 0.72009 0.35782 0.0
C1846 C 0.28759 0.73604 0.32519 0.0
C1847 C 0.36081 0.66563 0.37029 0.0
C1848 C 0.25168 0.6539 0.36433 0.0
C1849 C 0.25149 0.62964 0.34883 0.0
C1850 C 0.27581 0.67683 0.36449 0.0
C1851 C 0.29957 0.67604 0.34828 0.0
C1852 C 0.29928 0.65169 0.33246 0.0
C1853 C 0.27549 0.62839 0.33318 0.0
C1854 C 0.27593 0.7018 0.38204 0.0
C1855 C 0.32365 0.65067 0.31455 0.0
H1856 H 0.33666 0.77687 0.32987 0.0
H1857 H 0.39946 0.71644 0.3659 0.0
H1858 H 0.28344 0.71685 0.3132 0.0
H1859 H 0.26743 0.73562 0.33673 0.0
H1860 H 0.28748 0.75923 0.3166 0.0
H1861 H 0.38482 0.66566 0.37774 0.0
H1862 H 0.34289 0.66216 0.38325 0.0
H1863 H 0.359 0.64501 0.3592 0.0
H1864 H 0.23322 0.65462 0.37656 0.0
H1865 H 0.27513 0.60969 0.32111 0.0
H1866 H 0.27276 0.72568 0.37479 0.0
H1867 H 0.29917 0.7018 0.39052 0.0
H1868 H 0.25682 0.69795 0.39416 0.0
H1869 H 0.32281 0.67311 0.30513 0.0
H1870 H 0.31976 0.63045 0.30331 0.0
H1871 H 0.34786 0.64868 0.32147 0.0
C1872 C 0.35307 0.26197 0.86889 0.0
C1873 C 0.37677 0.26147 0.853 0.0
C1874 C 0.33015 0.2861 0.86926 0.0
C1875 C 0.33029 0.30957 0.85285 0.0
C1876 C 0.35424 0.30915 0.83674 0.0
C1877 C 0.3776 0.28536 0.83724 0.0
C1878 C 0.30565 0.28634 0.88712 0.0
C1879 C 0.35459 0.33318 0.81861 0.0
C1880 C 0.2509 0.34927 0.84227 0.0
C1881 C 0.25531 0.37897 0.85201 0.0
C1882 C 0.27548 0.3268 0.84189 0.0
C1883 C 0.30471 0.33386 0.85217 0.0
C1884 C 0.30912 0.36376 0.86224 0.0
C1885 C 0.2845 0.38621 0.8617 0.0
C1886 C 0.27019 0.29556 0.83044 0.0
C1887 C 0.33953 0.37175 0.87399 0.0
H1888 H 0.35265 0.24359 0.88119 0.0
H1889 H 0.39584 0.28475 0.82485 0.0
H1890 H 0.30522 0.30992 0.89515 0.0
H1891 H 0.28169 0.28218 0.88023 0.0
H1892 H 0.31035 0.26786 0.89956 0.0
H1893 H 0.37494 0.32966 0.80742 0.0
H1894 H 0.33222 0.33144 0.80919 0.0
H1895 H 0.35582 0.35759 0.82529 0.0
H1896 H 0.22836 0.34383 0.83463 0.0
H1897 H 0.28777 0.40913 0.86938 0.0
H1898 H 0.27136 0.27575 0.84224 0.0
H1899 H 0.28923 0.29155 0.81831 0.0
H1900 H 0.24684 0.2946 0.82209 0.0
H1901 H 0.34366 0.35428 0.88715 0.0
H1902 H 0.33904 0.39596 0.88113 0.0
H1903 H 0.36 0.37013 0.86275 0.0
C1904 C 0.6532 0.25184 0.3363 0.0
C1905 C 0.62452 0.25575 0.34742 0.0
C1906 C 0.6757 0.27632 0.33565 0.0
C1907 C 0.66976 0.30484 0.34709 0.0
C1908 C 0.6406 0.30901 0.35816 0.0
C1909 C 0.61801 0.28451 0.35788 0.0
C1910 C 0.70609 0.27138 0.32311 0.0
C1911 C 0.63386 0.33869 0.37109 0.0
C1912 C 0.74406 0.34861 0.36445 0.0
C1913 C 0.74496 0.37363 0.34955 0.0
C1914 C 0.71898 0.32676 0.36434 0.0
C1915 C 0.69491 0.32943 0.34844 0.0
C1916 C 0.69572 0.35473 0.33335 0.0
C1917 C 0.72053 0.37692 0.33434 0.0
C1918 C 0.71841 0.30066 0.38111 0.0
C1919 C 0.671 0.35774 0.31577 0.0
H1920 H 0.65803 0.22957 0.32811 0.0
H1921 H 0.59588 0.28729 0.36666 0.0
H1922 H 0.71032 0.29171 0.31205 0.0
H1923 H 0.72649 0.27023 0.33444 0.0
H1924 H 0.70565 0.24916 0.31342 0.0
H1925 H 0.60953 0.33872 0.37805 0.0
H1926 H 0.65125 0.34068 0.38452 0.0
H1927 H 0.63672 0.36007 0.3608 0.0
H1928 H 0.76284 0.34635 0.37636 0.0
H1929 H 0.72142 0.39624 0.32275 0.0
H1930 H 0.72143 0.27727 0.37312 0.0
H1931 H 0.69511 0.30032 0.3895 0.0
H1932 H 0.73746 0.3035 0.39339 0.0
H1933 H 0.67172 0.33642 0.30522 0.0
H1934 H 0.67471 0.37915 0.30557 0.0
H1935 H 0.6469 0.35889 0.32295 0.0
C1936 C 0.71172 0.61903 0.86134 0.0
C1937 C 0.74034 0.62597 0.85081 0.0
C1938 C 0.68701 0.6414 0.86197 0.0
C1939 C 0.69077 0.67083 0.85116 0.0
C1940 C 0.71928 0.67741 0.83986 0.0
C1941 C 0.74397 0.65509 0.84016 0.0
C1942 C 0.65737 0.63397 0.87475 0.0
C1943 C 0.72383 0.70811 0.82761 0.0
C1944 C 0.61766 0.7198 0.83762 0.0
C1945 C 0.61993 0.74431 0.85286 0.0
C1946 C 0.6405 0.69554 0.83691 0.0
C1947 C 0.66546 0.69535 0.85228 0.0
C1948 C 0.66708 0.71947 0.86821 0.0
C1949 C 0.64459 0.74401 0.86806 0.0
C1950 C 0.63856 0.67079 0.81928 0.0
C1951 C 0.69276 0.71957 0.88528 0.0
H1952 H 0.7091 0.59657 0.86974 0.0
H1953 H 0.76608 0.66029 0.83187 0.0
H1954 H 0.65449 0.65163 0.88795 0.0
H1955 H 0.63612 0.63581 0.86423 0.0
H1956 H 0.65803 0.60983 0.88199 0.0
H1957 H 0.74643 0.70848 0.81832 0.0
H1958 H 0.70382 0.71185 0.8162 0.0
H1959 H 0.7239 0.72839 0.83906 0.0
H1960 H 0.59866 0.72023 0.82578 0.0
H1961 H 0.64612 0.76287 0.87997 0.0
H1962 H 0.63779 0.64665 0.82644 0.0
H1963 H 0.66015 0.67204 0.809 0.0
H1964 H 0.61736 0.67399 0.80881 0.0
H1965 H 0.69354 0.69626 0.89364 0.0
H1966 H 0.68907 0.73849 0.89756 0.0
H1967 H 0.71625 0.72328 0.87757 0.0
loop_
_geom_bond_atom_site_label_1
_geom_bond_atom_site_label_2
_geom_bond_distance
_geom_bond_site_symmetry_2
_ccdc_geom_bond_type
Co0 O2 2.143 . S
Co0 O8 2.074 . S
Co0 O11 2.093 . S
Co0 O24 2.097 . S
Co0 N41 2.151 . S
Co0 N49 2.214 . S
Co1 O2 2.160 . S
Co1 O7 2.058 . S
Co1 O17 2.057 . S
Co1 O32 2.037 . S
Co1 N36 2.145 . S
Co1 N57 2.257 . S
O2 Co0 2.143 . S
O2 Co1 2.160 . S
C3 O4 1.278 . S
C3 O11 1.224 . S
O4 C3 1.278 . S
C5 O6 1.245 . S
C5 O17 1.232 . S
O6 C5 1.245 . S
O7 Co1 2.058 . S
O7 C33 1.269 . S
O8 Co0 2.074 . S
O8 C33 1.257 . S
H9 C34 0.930 . S
H10 C40 0.930 . S
O11 Co0 2.093 . S
O11 C3 1.224 . S
H12 C44 0.929 . S
H13 C46 0.930 . S
H14 C47 0.930 . S
H15 C45 0.929 . S
H16 C48 0.928 . S
O17 Co1 2.057 . S
O17 C5 1.232 . S
H18 C37 0.929 . S
H19 C38 0.929 . S
H20 C50 0.931 . S
H21 C42 0.929 . S
H22 C51 0.930 . S
H23 C43 0.931 . S
O24 Co0 2.097 . S
O24 C52 1.214 . S
H25 C53 0.929 . S
H26 C54 0.929 . S
H27 C55 0.930 . S
H28 C56 0.929 . S
H29 C58 0.930 . S
H30 C35 0.930 . S
H31 C39 0.930 . S
O32 Co1 2.037 . S
O32 C52 1.234 . S
C33 O7 1.269 . S
C33 O8 1.257 . S
C34 H9 0.930 . S
C34 C37 1.388 . S
C34 C39 1.418 . S
C35 H30 0.930 . S
C35 C38 1.404 . S
C35 C39 1.353 . S
N36 Co1 2.145 . S
N36 C37 1.397 . S
N36 C38 1.334 . S
C37 H18 0.929 . S
C37 C34 1.388 . S
C37 N36 1.397 . S
C38 H19 0.929 . S
C38 C35 1.404 . S
C38 N36 1.334 . S
C39 H31 0.930 . S
C39 C34 1.418 . S
C39 C35 1.353 . S
C40 H10 0.930 . S
C40 N41 1.330 . S
C40 C42 1.446 . S
N41 Co0 2.151 . S
N41 C40 1.330 . S
N41 C45 1.418 . S
C42 H21 0.929 . S
C42 C40 1.446 . S
C42 C43 1.332 . S
C43 H23 0.931 . S
C43 C42 1.332 . S
C43 C44 1.267 . S
C44 H12 0.929 . S
C44 C43 1.267 . S
C44 C45 1.251 . S
C45 H15 0.929 . S
C45 N41 1.418 . S
C45 C44 1.251 . S
C46 H13 0.930 . S
C46 C48 1.406 . S
C46 C51 1.261 . S
C47 H14 0.930 . S
C47 N49 1.325 . S
C47 C50 1.357 . S
C48 H16 0.928 . S
C48 C46 1.406 . S
C48 N49 1.261 . S
N49 Co0 2.214 . S
N49 C47 1.325 . S
N49 C48 1.261 . S
C50 H20 0.931 . S
C50 C47 1.357 . S
C50 C51 1.312 . S
C51 H22 0.930 . S
C51 C46 1.261 . S
C51 C50 1.312 . S
C52 O24 1.214 . S
C52 O32 1.234 . S
C53 H25 0.929 . S
C53 C56 1.391 . S
C53 C58 1.391 . S
C54 H26 0.929 . S
C54 C55 1.390 . S
C54 N57 1.391 . S
C55 H27 0.930 . S
C55 C54 1.390 . S
C55 C56 1.392 . S
C56 H28 0.929 . S
C56 C53 1.391 . S
C56 C55 1.392 . S
N57 Co1 2.257 . S
N57 C54 1.391 . S
N57 C58 1.388 . S
C58 H29 0.930 . S
C58 C53 1.391 . S
C58 N57 1.388 . S
Co59 O61 2.143 . S
Co59 O67 2.074 . S
Co59 O70 2.093 . S
Co59 O83 2.097 . S
Co59 N100 2.151 . S
Co59 N108 2.214 . S
Co60 O61 2.160 . S
Co60 O66 2.058 . S
Co60 O76 2.057 . S
Co60 O91 2.037 . S
Co60 N95 2.145 . S
Co60 N116 2.257 . S
O61 Co59 2.143 . S
O61 Co60 2.160 . S
C62 O63 1.278 . S
C62 O70 1.224 . S
O63 C62 1.278 . S
C64 O65 1.245 . S
C64 O76 1.232 . S
O65 C64 1.245 . S
O66 Co60 2.058 . S
O66 C92 1.269 . S
O67 Co59 2.074 . S
O67 C92 1.257 . S
H68 C93 0.930 . S
H69 C99 0.930 . S
O70 Co59 2.093 . S
O70 C62 1.224 . S
H71 C103 0.929 . S
H72 C105 0.930 . S
H73 C106 0.930 . S
H74 C104 0.929 . S
H75 C107 0.928 . S
O76 Co60 2.057 . S
O76 C64 1.232 . S
H77 C96 0.929 . S
H78 C97 0.929 . S
H79 C109 0.931 . S
H80 C101 0.929 . S
H81 C110 0.930 . S
H82 C102 0.931 . S
O83 Co59 2.097 . S
O83 C111 1.214 . S
H84 C112 0.929 . S
H85 C113 0.929 . S
H86 C114 0.930 . S
H87 C115 0.929 . S
H88 C117 0.930 . S
H89 C94 0.930 . S
H90 C98 0.930 . S
O91 Co60 2.037 . S
O91 C111 1.234 . S
C92 O66 1.269 . S
C92 O67 1.257 . S
C93 H68 0.930 . S
C93 C96 1.388 . S
C93 C98 1.418 . S
C94 H89 0.930 . S
C94 C97 1.404 . S
C94 C98 1.353 . S
N95 Co60 2.145 . S
N95 C96 1.397 . S
N95 C97 1.334 . S
C96 H77 0.929 . S
C96 C93 1.388 . S
C96 N95 1.397 . S
C97 H78 0.929 . S
C97 C94 1.404 . S
C97 N95 1.334 . S
C98 H90 0.930 . S
C98 C93 1.418 . S
C98 C94 1.353 . S
C99 H69 0.930 . S
C99 N100 1.330 . S
C99 C101 1.446 . S
N100 Co59 2.151 . S
N100 C99 1.330 . S
N100 C104 1.418 . S
C101 H80 0.929 . S
C101 C99 1.446 . S
C101 C102 1.332 . S
C102 H82 0.931 . S
C102 C101 1.332 . S
C102 C103 1.267 . S
C103 H71 0.929 . S
C103 C102 1.267 . S
C103 C104 1.251 . S
C104 H74 0.929 . S
C104 N100 1.418 . S
C104 C103 1.251 . S
C105 H72 0.930 . S
C105 C107 1.406 . S
C105 C110 1.261 . S
C106 H73 0.930 . S
C106 N108 1.325 . S
C106 C109 1.357 . S
C107 H75 0.928 . S
C107 C105 1.406 . S
C107 N108 1.261 . S
N108 Co59 2.214 . S
N108 C106 1.325 . S
N108 C107 1.261 . S
C109 H79 0.931 . S
C109 C106 1.357 . S
C109 C110 1.312 . S
C110 H81 0.930 . S
C110 C105 1.261 . S
C110 C109 1.312 . S
C111 O83 1.214 . S
C111 O91 1.234 . S
C112 H84 0.929 . S
C112 C115 1.391 . S
C112 C117 1.391 . S
C113 H85 0.929 . S
C113 C114 1.390 . S
C113 N116 1.391 . S
C114 H86 0.930 . S
C114 C113 1.390 . S
C114 C115 1.392 . S
C115 H87 0.929 . S
C115 C112 1.391 . S
C115 C114 1.392 . S
N116 Co60 2.257 . S
N116 C113 1.391 . S
N116 C117 1.388 . S
C117 H88 0.930 . S
C117 C112 1.391 . S
C117 N116 1.388 . S
Co118 O120 2.143 . S
Co118 O126 2.074 . S
Co118 O129 2.093 . S
Co118 O142 2.097 . S
Co118 N159 2.151 . S
Co118 N167 2.214 . S
Co119 O120 2.160 . S
Co119 O125 2.058 . S
Co119 O135 2.057 . S
Co119 O150 2.037 . S
Co119 N154 2.145 . S
Co119 N175 2.257 . S
O120 Co118 2.143 . S
O120 Co119 2.160 . S
C121 O122 1.278 . S
C121 O129 1.224 . S
O122 C121 1.278 . S
C123 O124 1.245 . S
C123 O135 1.232 . S
O124 C123 1.245 . S
O125 Co119 2.058 . S
O125 C151 1.269 . S
O126 Co118 2.074 . S
O126 C151 1.257 . S
H127 C152 0.930 . S
H128 C158 0.930 . S
O129 Co118 2.093 . S
O129 C121 1.224 . S
H130 C162 0.929 . S
H131 C164 0.930 . S
H132 C165 0.930 . S
H133 C163 0.929 . S
H134 C166 0.928 . S
O135 Co119 2.057 . S
O135 C123 1.232 . S
H136 C155 0.929 . S
H137 C156 0.929 . S
H138 C168 0.931 . S
H139 C160 0.929 . S
H140 C169 0.930 . S
H141 C161 0.931 . S
O142 Co118 2.097 . S
O142 C170 1.214 . S
H143 C171 0.929 . S
H144 C172 0.929 . S
H145 C173 0.930 . S
H146 C174 0.929 . S
H147 C176 0.930 . S
H148 C153 0.930 . S
H149 C157 0.930 . S
O150 Co119 2.037 . S
O150 C170 1.234 . S
C151 O125 1.269 . S
C151 O126 1.257 . S
C152 H127 0.930 . S
C152 C155 1.388 . S
C152 C157 1.418 . S
C153 H148 0.930 . S
C153 C156 1.404 . S
C153 C157 1.353 . S
N154 Co119 2.145 . S
N154 C155 1.397 . S
N154 C156 1.334 . S
C155 H136 0.929 . S
C155 C152 1.388 . S
C155 N154 1.397 . S
C156 H137 0.929 . S
C156 C153 1.404 . S
C156 N154 1.334 . S
C157 H149 0.930 . S
C157 C152 1.418 . S
C157 C153 1.353 . S
C158 H128 0.930 . S
C158 N159 1.330 . S
C158 C160 1.446 . S
N159 Co118 2.151 . S
N159 C158 1.330 . S
N159 C163 1.418 . S
C160 H139 0.929 . S
C160 C158 1.446 . S
C160 C161 1.332 . S
C161 H141 0.931 . S
C161 C160 1.332 . S
C161 C162 1.267 . S
C162 H130 0.929 . S
C162 C161 1.267 . S
C162 C163 1.251 . S
C163 H133 0.929 . S
C163 N159 1.418 . S
C163 C162 1.251 . S
C164 H131 0.930 . S
C164 C166 1.406 . S
C164 C169 1.261 . S
C165 H132 0.930 . S
C165 N167 1.325 . S
C165 C168 1.357 . S
C166 H134 0.928 . S
C166 C164 1.406 . S
C166 N167 1.261 . S
N167 Co118 2.214 . S
N167 C165 1.325 . S
N167 C166 1.261 . S
C168 H138 0.931 . S
C168 C165 1.357 . S
C168 C169 1.312 . S
C169 H140 0.930 . S
C169 C164 1.261 . S
C169 C168 1.312 . S
C170 O142 1.214 . S
C170 O150 1.234 . S
C171 H143 0.929 . S
C171 C174 1.391 . S
C171 C176 1.391 . S
C172 H144 0.929 . S
C172 C173 1.390 . S
C172 N175 1.391 . S
C173 H145 0.930 . S
C173 C172 1.390 . S
C173 C174 1.392 . S
C174 H146 0.929 . S
C174 C171 1.391 . S
C174 C173 1.392 . S
N175 Co119 2.257 . S
N175 C172 1.391 . S
N175 C176 1.388 . S
C176 H147 0.930 . S
C176 C171 1.391 . S
C176 N175 1.388 . S
Co177 O179 2.143 . S
Co177 O185 2.074 . S
Co177 O188 2.093 . S
Co177 O201 2.097 . S
Co177 N218 2.151 . S
Co177 N226 2.214 . S
Co178 O179 2.160 . S
Co178 O184 2.058 . S
Co178 O194 2.057 . S
Co178 O209 2.037 . S
Co178 N213 2.145 . S
Co178 N234 2.257 . S
O179 Co177 2.143 . S
O179 Co178 2.160 . S
C180 O181 1.278 . S
C180 O188 1.224 . S
O181 C180 1.278 . S
C182 O183 1.245 . S
C182 O194 1.232 . S
O183 C182 1.245 . S
O184 Co178 2.058 . S
O184 C210 1.269 . S
O185 Co177 2.074 . S
O185 C210 1.257 . S
H186 C211 0.930 . S
H187 C217 0.930 . S
O188 Co177 2.093 . S
O188 C180 1.224 . S
H189 C221 0.929 . S
H190 C223 0.930 . S
H191 C224 0.930 . S
H192 C222 0.929 . S
H193 C225 0.928 . S
O194 Co178 2.057 . S
O194 C182 1.232 . S
H195 C214 0.929 . S
H196 C215 0.929 . S
H197 C227 0.931 . S
H198 C219 0.929 . S
H199 C228 0.930 . S
H200 C220 0.931 . S
O201 Co177 2.097 . S
O201 C229 1.214 . S
H202 C230 0.929 . S
H203 C231 0.929 . S
H204 C232 0.930 . S
H205 C233 0.929 . S
H206 C235 0.930 . S
H207 C212 0.930 . S
H208 C216 0.930 . S
O209 Co178 2.037 . S
O209 C229 1.234 . S
C210 O184 1.269 . S
C210 O185 1.257 . S
C211 H186 0.930 . S
C211 C214 1.388 . S
C211 C216 1.418 . S
C212 H207 0.930 . S
C212 C215 1.404 . S
C212 C216 1.353 . S
N213 Co178 2.145 . S
N213 C214 1.397 . S
N213 C215 1.334 . S
C214 H195 0.929 . S
C214 C211 1.388 . S
C214 N213 1.397 . S
C215 H196 0.929 . S
C215 C212 1.404 . S
C215 N213 1.334 . S
C216 H208 0.930 . S
C216 C211 1.418 . S
C216 C212 1.353 . S
C217 H187 0.930 . S
C217 N218 1.330 . S
C217 C219 1.446 . S
N218 Co177 2.151 . S
N218 C217 1.330 . S
N218 C222 1.418 . S
C219 H198 0.929 . S
C219 C217 1.446 . S
C219 C220 1.332 . S
C220 H200 0.931 . S
C220 C219 1.332 . S
C220 C221 1.267 . S
C221 H189 0.929 . S
C221 C220 1.267 . S
C221 C222 1.251 . S
C222 H192 0.929 . S
C222 N218 1.418 . S
C222 C221 1.251 . S
C223 H190 0.930 . S
C223 C225 1.406 . S
C223 C228 1.261 . S
C224 H191 0.930 . S
C224 N226 1.325 . S
C224 C227 1.357 . S
C225 H193 0.928 . S
C225 C223 1.406 . S
C225 N226 1.261 . S
N226 Co177 2.214 . S
N226 C224 1.325 . S
N226 C225 1.261 . S
C227 H197 0.931 . S
C227 C224 1.357 . S
C227 C228 1.312 . S
C228 H199 0.930 . S
C228 C223 1.261 . S
C228 C227 1.312 . S
C229 O201 1.214 . S
C229 O209 1.234 . S
C230 H202 0.929 . S
C230 C233 1.391 . S
C230 C235 1.391 . S
C231 H203 0.929 . S
C231 C232 1.390 . S
C231 N234 1.391 . S
C232 H204 0.930 . S
C232 C231 1.390 . S
C232 C233 1.392 . S
C233 H205 0.929 . S
C233 C230 1.391 . S
C233 C232 1.392 . S
N234 Co178 2.257 . S
N234 C231 1.391 . S
N234 C235 1.388 . S
C235 H206 0.930 . S
C235 C230 1.391 . S
C235 N234 1.388 . S
Co236 O238 2.143 . S
Co236 O244 2.074 . S
Co236 O247 2.093 . S
Co236 O260 2.097 . S
Co236 N277 2.151 . S
Co236 N285 2.214 . S
Co237 O238 2.160 . S
Co237 O243 2.058 . S
Co237 O253 2.057 . S
Co237 O268 2.037 . S
Co237 N272 2.145 . S
Co237 N293 2.257 . S
O238 Co236 2.143 . S
O238 Co237 2.160 . S
C239 O240 1.278 . S
C239 O247 1.224 . S
O240 C239 1.278 . S
C241 O242 1.245 . S
C241 O253 1.232 . S
O242 C241 1.245 . S
O243 Co237 2.058 . S
O243 C269 1.269 . S
O244 Co236 2.074 . S
O244 C269 1.257 . S
H245 C270 0.930 . S
H246 C276 0.930 . S
O247 Co236 2.093 . S
O247 C239 1.224 . S
H248 C280 0.929 . S
H249 C282 0.930 . S
H250 C283 0.930 . S
H251 C281 0.929 . S
H252 C284 0.928 . S
O253 Co237 2.057 . S
O253 C241 1.232 . S
H254 C273 0.929 . S
H255 C274 0.929 . S
H256 C286 0.931 . S
H257 C278 0.929 . S
H258 C287 0.930 . S
H259 C279 0.931 . S
O260 Co236 2.097 . S
O260 C288 1.214 . S
H261 C289 0.929 . S
H262 C290 0.929 . S
H263 C291 0.930 . S
H264 C292 0.929 . S
H265 C294 0.930 . S
H266 C271 0.930 . S
H267 C275 0.930 . S
O268 Co237 2.037 . S
O268 C288 1.234 . S
C269 O243 1.269 . S
C269 O244 1.257 . S
C270 H245 0.930 . S
C270 C273 1.388 . S
C270 C275 1.418 . S
C271 H266 0.930 . S
C271 C274 1.404 . S
C271 C275 1.353 . S
N272 Co237 2.145 . S
N272 C273 1.397 . S
N272 C274 1.334 . S
C273 H254 0.929 . S
C273 C270 1.388 . S
C273 N272 1.397 . S
C274 H255 0.929 . S
C274 C271 1.404 . S
C274 N272 1.334 . S
C275 H267 0.930 . S
C275 C270 1.418 . S
C275 C271 1.353 . S
C276 H246 0.930 . S
C276 N277 1.330 . S
C276 C278 1.446 . S
N277 Co236 2.151 . S
N277 C276 1.330 . S
N277 C281 1.418 . S
C278 H257 0.929 . S
C278 C276 1.446 . S
C278 C279 1.332 . S
C279 H259 0.931 . S
C279 C278 1.332 . S
C279 C280 1.267 . S
C280 H248 0.929 . S
C280 C279 1.267 . S
C280 C281 1.251 . S
C281 H251 0.929 . S
C281 N277 1.418 . S
C281 C280 1.251 . S
C282 H249 0.930 . S
C282 C284 1.406 . S
C282 C287 1.261 . S
C283 H250 0.930 . S
C283 N285 1.325 . S
C283 C286 1.357 . S
C284 H252 0.928 . S
C284 C282 1.406 . S
C284 N285 1.261 . S
N285 Co236 2.214 . S
N285 C283 1.325 . S
N285 C284 1.261 . S
C286 H256 0.931 . S
C286 C283 1.357 . S
C286 C287 1.312 . S
C287 H258 0.930 . S
C287 C282 1.261 . S
C287 C286 1.312 . S
C288 O260 1.214 . S
C288 O268 1.234 . S
C289 H261 0.929 . S
C289 C292 1.391 . S
C289 C294 1.391 . S
C290 H262 0.929 . S
C290 C291 1.390 . S
C290 N293 1.391 . S
C291 H263 0.930 . S
C291 C290 1.390 . S
C291 C292 1.392 . S
C292 H264 0.929 . S
C292 C289 1.391 . S
C292 C291 1.392 . S
N293 Co237 2.257 . S
N293 C290 1.391 . S
N293 C294 1.388 . S
C294 H265 0.930 . S
C294 C289 1.391 . S
C294 N293 1.388 . S
Co295 O297 2.143 . S
Co295 O303 2.074 . S
Co295 O306 2.093 . S
Co295 O319 2.097 . S
Co295 N336 2.151 . S
Co295 N344 2.214 . S
Co296 O297 2.160 . S
Co296 O302 2.058 . S
Co296 O312 2.057 . S
Co296 O327 2.037 . S
Co296 N331 2.145 . S
Co296 N352 2.257 . S
O297 Co295 2.143 . S
O297 Co296 2.160 . S
C298 O299 1.278 . S
C298 O306 1.224 . S
O299 C298 1.278 . S
C300 O301 1.245 . S
C300 O312 1.232 . S
O301 C300 1.245 . S
O302 Co296 2.058 . S
O302 C328 1.269 . S
O303 Co295 2.074 . S
O303 C328 1.257 . S
H304 C329 0.930 . S
H305 C335 0.930 . S
O306 Co295 2.093 . S
O306 C298 1.224 . S
H307 C339 0.929 . S
H308 C341 0.930 . S
H309 C342 0.930 . S
H310 C340 0.929 . S
H311 C343 0.928 . S
O312 Co296 2.057 . S
O312 C300 1.232 . S
H313 C332 0.929 . S
H314 C333 0.929 . S
H315 C345 0.931 . S
H316 C337 0.929 . S
H317 C346 0.930 . S
H318 C338 0.931 . S
O319 Co295 2.097 . S
O319 C347 1.214 . S
H320 C348 0.929 . S
H321 C349 0.929 . S
H322 C350 0.930 . S
H323 C351 0.929 . S
H324 C353 0.930 . S
H325 C330 0.930 . S
H326 C334 0.930 . S
O327 Co296 2.037 . S
O327 C347 1.234 . S
C328 O302 1.269 . S
C328 O303 1.257 . S
C329 H304 0.930 . S
C329 C332 1.388 . S
C329 C334 1.418 . S
C330 H325 0.930 . S
C330 C333 1.404 . S
C330 C334 1.353 . S
N331 Co296 2.145 . S
N331 C332 1.397 . S
N331 C333 1.334 . S
C332 H313 0.929 . S
C332 C329 1.388 . S
C332 N331 1.397 . S
C333 H314 0.929 . S
C333 C330 1.404 . S
C333 N331 1.334 . S
C334 H326 0.930 . S
C334 C329 1.418 . S
C334 C330 1.353 . S
C335 H305 0.930 . S
C335 N336 1.330 . S
C335 C337 1.446 . S
N336 Co295 2.151 . S
N336 C335 1.330 . S
N336 C340 1.418 . S
C337 H316 0.929 . S
C337 C335 1.446 . S
C337 C338 1.332 . S
C338 H318 0.931 . S
C338 C337 1.332 . S
C338 C339 1.267 . S
C339 H307 0.929 . S
C339 C338 1.267 . S
C339 C340 1.251 . S
C340 H310 0.929 . S
C340 N336 1.418 . S
C340 C339 1.251 . S
C341 H308 0.930 . S
C341 C343 1.406 . S
C341 C346 1.261 . S
C342 H309 0.930 . S
C342 N344 1.325 . S
C342 C345 1.357 . S
C343 H311 0.928 . S
C343 C341 1.406 . S
C343 N344 1.261 . S
N344 Co295 2.214 . S
N344 C342 1.325 . S
N344 C343 1.261 . S
C345 H315 0.931 . S
C345 C342 1.357 . S
C345 C346 1.312 . S
C346 H317 0.930 . S
C346 C341 1.261 . S
C346 C345 1.312 . S
C347 O319 1.214 . S
C347 O327 1.234 . S
C348 H320 0.929 . S
C348 C351 1.391 . S
C348 C353 1.391 . S
C349 H321 0.929 . S
C349 C350 1.390 . S
C349 N352 1.391 . S
C350 H322 0.930 . S
C350 C349 1.390 . S
C350 C351 1.392 . S
C351 H323 0.929 . S
C351 C348 1.391 . S
C351 C350 1.392 . S
N352 Co296 2.257 . S
N352 C349 1.391 . S
N352 C353 1.388 . S
C353 H324 0.930 . S
C353 C348 1.391 . S
C353 N352 1.388 . S
Co354 O356 2.143 . S
Co354 O362 2.074 . S
Co354 O365 2.093 . S
Co354 O378 2.097 . S
Co354 N395 2.151 . S
Co354 N403 2.214 . S
Co355 O356 2.160 . S
Co355 O361 2.058 . S
Co355 O371 2.057 . S
Co355 O386 2.037 . S
Co355 N390 2.145 . S
Co355 N411 2.257 . S
O356 Co354 2.143 . S
O356 Co355 2.160 . S
C357 O358 1.278 . S
C357 O365 1.224 . S
O358 C357 1.278 . S
C359 O360 1.245 . S
C359 O371 1.232 . S
O360 C359 1.245 . S
O361 Co355 2.058 . S
O361 C387 1.269 . S
O362 Co354 2.074 . S
O362 C387 1.257 . S
H363 C388 0.930 . S
H364 C394 0.930 . S
O365 Co354 2.093 . S
O365 C357 1.224 . S
H366 C398 0.929 . S
H367 C400 0.930 . S
H368 C401 0.930 . S
H369 C399 0.929 . S
H370 C402 0.928 . S
O371 Co355 2.057 . S
O371 C359 1.232 . S
H372 C391 0.929 . S
H373 C392 0.929 . S
H374 C404 0.931 . S
H375 C396 0.929 . S
H376 C405 0.930 . S
H377 C397 0.931 . S
O378 Co354 2.097 . S
O378 C406 1.214 . S
H379 C407 0.929 . S
H380 C408 0.929 . S
H381 C409 0.930 . S
H382 C410 0.929 . S
H383 C412 0.930 . S
H384 C389 0.930 . S
H385 C393 0.930 . S
O386 Co355 2.037 . S
O386 C406 1.234 . S
C387 O361 1.269 . S
C387 O362 1.257 . S
C388 H363 0.930 . S
C388 C391 1.388 . S
C388 C393 1.418 . S
C389 H384 0.930 . S
C389 C392 1.404 . S
C389 C393 1.353 . S
N390 Co355 2.145 . S
N390 C391 1.397 . S
N390 C392 1.334 . S
C391 H372 0.929 . S
C391 C388 1.388 . S
C391 N390 1.397 . S
C392 H373 0.929 . S
C392 C389 1.404 . S
C392 N390 1.334 . S
C393 H385 0.930 . S
C393 C388 1.418 . S
C393 C389 1.353 . S
C394 H364 0.930 . S
C394 N395 1.330 . S
C394 C396 1.446 . S
N395 Co354 2.151 . S
N395 C394 1.330 . S
N395 C399 1.418 . S
C396 H375 0.929 . S
C396 C394 1.446 . S
C396 C397 1.332 . S
C397 H377 0.931 . S
C397 C396 1.332 . S
C397 C398 1.267 . S
C398 H366 0.929 . S
C398 C397 1.267 . S
C398 C399 1.251 . S
C399 H369 0.929 . S
C399 N395 1.418 . S
C399 C398 1.251 . S
C400 H367 0.930 . S
C400 C402 1.406 . S
C400 C405 1.261 . S
C401 H368 0.930 . S
C401 N403 1.325 . S
C401 C404 1.357 . S
C402 H370 0.928 . S
C402 C400 1.406 . S
C402 N403 1.261 . S
N403 Co354 2.214 . S
N403 C401 1.325 . S
N403 C402 1.261 . S
C404 H374 0.931 . S
C404 C401 1.357 . S
C404 C405 1.312 . S
C405 H376 0.930 . S
C405 C400 1.261 . S
C405 C404 1.312 . S
C406 O378 1.214 . S
C406 O386 1.234 . S
C407 H379 0.929 . S
C407 C410 1.391 . S
C407 C412 1.391 . S
C408 H380 0.929 . S
C408 C409 1.390 . S
C408 N411 1.391 . S
C409 H381 0.930 . S
C409 C408 1.390 . S
C409 C410 1.392 . S
C410 H382 0.929 . S
C410 C407 1.391 . S
C410 C409 1.392 . S
N411 Co355 2.257 . S
N411 C408 1.391 . S
N411 C412 1.388 . S
C412 H383 0.930 . S
C412 C407 1.391 . S
C412 N411 1.388 . S
Co413 O415 2.143 . S
Co413 O421 2.074 . S
Co413 O424 2.093 . S
Co413 O437 2.097 . S
Co413 N454 2.151 . S
Co413 N462 2.214 . S
Co414 O415 2.160 . S
Co414 O420 2.058 . S
Co414 O430 2.057 . S
Co414 O445 2.037 . S
Co414 N449 2.145 . S
Co414 N470 2.257 . S
O415 Co413 2.143 . S
O415 Co414 2.160 . S
C416 O417 1.278 . S
C416 O424 1.224 . S
O417 C416 1.278 . S
C418 O419 1.245 . S
C418 O430 1.232 . S
O419 C418 1.245 . S
O420 Co414 2.058 . S
O420 C446 1.269 . S
O421 Co413 2.074 . S
O421 C446 1.257 . S
H422 C447 0.930 . S
H423 C453 0.930 . S
O424 Co413 2.093 . S
O424 C416 1.224 . S
H425 C457 0.929 . S
H426 C459 0.930 . S
H427 C460 0.930 . S
H428 C458 0.929 . S
H429 C461 0.928 . S
O430 Co414 2.057 . S
O430 C418 1.232 . S
H431 C450 0.929 . S
H432 C451 0.929 . S
H433 C463 0.931 . S
H434 C455 0.929 . S
H435 C464 0.930 . S
H436 C456 0.931 . S
O437 Co413 2.097 . S
O437 C465 1.214 . S
H438 C466 0.929 . S
H439 C467 0.929 . S
H440 C468 0.930 . S
H441 C469 0.929 . S
H442 C471 0.930 . S
H443 C448 0.930 . S
H444 C452 0.930 . S
O445 Co414 2.037 . S
O445 C465 1.234 . S
C446 O420 1.269 . S
C446 O421 1.257 . S
C447 H422 0.930 . S
C447 C450 1.388 . S
C447 C452 1.418 . S
C448 H443 0.930 . S
C448 C451 1.404 . S
C448 C452 1.353 . S
N449 Co414 2.145 . S
N449 C450 1.397 . S
N449 C451 1.334 . S
C450 H431 0.929 . S
C450 C447 1.388 . S
C450 N449 1.397 . S
C451 H432 0.929 . S
C451 C448 1.404 . S
C451 N449 1.334 . S
C452 H444 0.930 . S
C452 C447 1.418 . S
C452 C448 1.353 . S
C453 H423 0.930 . S
C453 N454 1.330 . S
C453 C455 1.446 . S
N454 Co413 2.151 . S
N454 C453 1.330 . S
N454 C458 1.418 . S
C455 H434 0.929 . S
C455 C453 1.446 . S
C455 C456 1.332 . S
C456 H436 0.931 . S
C456 C455 1.332 . S
C456 C457 1.267 . S
C457 H425 0.929 . S
C457 C456 1.267 . S
C457 C458 1.251 . S
C458 H428 0.929 . S
C458 N454 1.418 . S
C458 C457 1.251 . S
C459 H426 0.930 . S
C459 C461 1.406 . S
C459 C464 1.261 . S
C460 H427 0.930 . S
C460 N462 1.325 . S
C460 C463 1.357 . S
C461 H429 0.928 . S
C461 C459 1.406 . S
C461 N462 1.261 . S
N462 Co413 2.214 . S
N462 C460 1.325 . S
N462 C461 1.261 . S
C463 H433 0.931 . S
C463 C460 1.357 . S
C463 C464 1.312 . S
C464 H435 0.930 . S
C464 C459 1.261 . S
C464 C463 1.312 . S
C465 O437 1.214 . S
C465 O445 1.234 . S
C466 H438 0.929 . S
C466 C469 1.391 . S
C466 C471 1.391 . S
C467 H439 0.929 . S
C467 C468 1.390 . S
C467 N470 1.391 . S
C468 H440 0.930 . S
C468 C467 1.390 . S
C468 C469 1.392 . S
C469 H441 0.929 . S
C469 C466 1.391 . S
C469 C468 1.392 . S
N470 Co414 2.257 . S
N470 C467 1.391 . S
N470 C471 1.388 . S
C471 H442 0.930 . S
C471 C466 1.391 . S
C471 N470 1.388 . S
Co472 O474 2.143 . S
Co472 O480 2.074 . S
Co472 O483 2.093 . S
Co472 O496 2.097 . S
Co472 N513 2.151 . S
Co472 N521 2.214 . S
Co473 O474 2.160 . S
Co473 O479 2.058 . S
Co473 O489 2.057 . S
Co473 O504 2.037 . S
Co473 N508 2.145 . S
Co473 N529 2.257 . S
O474 Co472 2.143 . S
O474 Co473 2.160 . S
C475 O476 1.278 . S
C475 O483 1.224 . S
O476 C475 1.278 . S
C477 O478 1.245 . S
C477 O489 1.232 . S
O478 C477 1.245 . S
O479 Co473 2.058 . S
O479 C505 1.269 . S
O480 Co472 2.074 . S
O480 C505 1.257 . S
H481 C506 0.930 . S
H482 C512 0.930 . S
O483 Co472 2.093 . S
O483 C475 1.224 . S
H484 C516 0.929 . S
H485 C518 0.930 . S
H486 C519 0.930 . S
H487 C517 0.929 . S
H488 C520 0.928 . S
O489 Co473 2.057 . S
O489 C477 1.232 . S
H490 C509 0.929 . S
H491 C510 0.929 . S
H492 C522 0.931 . S
H493 C514 0.929 . S
H494 C523 0.930 . S
H495 C515 0.931 . S
O496 Co472 2.097 . S
O496 C524 1.214 . S
H497 C525 0.929 . S
H498 C526 0.929 . S
H499 C527 0.930 . S
H500 C528 0.929 . S
H501 C530 0.930 . S
H502 C507 0.930 . S
H503 C511 0.930 . S
O504 Co473 2.037 . S
O504 C524 1.234 . S
C505 O479 1.269 . S
C505 O480 1.257 . S
C506 H481 0.930 . S
C506 C509 1.388 . S
C506 C511 1.418 . S
C507 H502 0.930 . S
C507 C510 1.404 . S
C507 C511 1.353 . S
N508 Co473 2.145 . S
N508 C509 1.397 . S
N508 C510 1.334 . S
C509 H490 0.929 . S
C509 C506 1.388 . S
C509 N508 1.397 . S
C510 H491 0.929 . S
C510 C507 1.404 . S
C510 N508 1.334 . S
C511 H503 0.930 . S
C511 C506 1.418 . S
C511 C507 1.353 . S
C512 H482 0.930 . S
C512 N513 1.330 . S
C512 C514 1.446 . S
N513 Co472 2.151 . S
N513 C512 1.330 . S
N513 C517 1.418 . S
C514 H493 0.929 . S
C514 C512 1.446 . S
C514 C515 1.332 . S
C515 H495 0.931 . S
C515 C514 1.332 . S
C515 C516 1.267 . S
C516 H484 0.929 . S
C516 C515 1.267 . S
C516 C517 1.251 . S
C517 H487 0.929 . S
C517 N513 1.418 . S
C517 C516 1.251 . S
C518 H485 0.930 . S
C518 C520 1.406 . S
C518 C523 1.261 . S
C519 H486 0.930 . S
C519 N521 1.325 . S
C519 C522 1.357 . S
C520 H488 0.928 . S
C520 C518 1.406 . S
C520 N521 1.261 . S
N521 Co472 2.214 . S
N521 C519 1.325 . S
N521 C520 1.261 . S
C522 H492 0.931 . S
C522 C519 1.357 . S
C522 C523 1.312 . S
C523 H494 0.930 . S
C523 C518 1.261 . S
C523 C522 1.312 . S
C524 O496 1.214 . S
C524 O504 1.234 . S
C525 H497 0.929 . S
C525 C528 1.391 . S
C525 C530 1.391 . S
C526 H498 0.929 . S
C526 C527 1.390 . S
C526 N529 1.391 . S
C527 H499 0.930 . S
C527 C526 1.390 . S
C527 C528 1.392 . S
C528 H500 0.929 . S
C528 C525 1.391 . S
C528 C527 1.392 . S
N529 Co473 2.257 . S
N529 C526 1.391 . S
N529 C530 1.388 . S
C530 H501 0.930 . S
C530 C525 1.391 . S
C530 N529 1.388 . S
Co531 O533 2.143 . S
Co531 O539 2.074 . S
Co531 O542 2.093 . S
Co531 O555 2.097 . S
Co531 N572 2.151 . S
Co531 N580 2.214 . S
Co532 O533 2.160 . S
Co532 O538 2.058 . S
Co532 O548 2.057 . S
Co532 O563 2.037 . S
Co532 N567 2.145 . S
Co532 N588 2.257 . S
O533 Co531 2.143 . S
O533 Co532 2.160 . S
C534 O535 1.278 . S
C534 O542 1.224 . S
O535 C534 1.278 . S
C536 O537 1.245 . S
C536 O548 1.232 . S
O537 C536 1.245 . S
O538 Co532 2.058 . S
O538 C564 1.269 . S
O539 Co531 2.074 . S
O539 C564 1.257 . S
H540 C565 0.930 . S
H541 C571 0.930 . S
O542 Co531 2.093 . S
O542 C534 1.224 . S
H543 C575 0.929 . S
H544 C577 0.930 . S
H545 C578 0.930 . S
H546 C576 0.929 . S
H547 C579 0.928 . S
O548 Co532 2.057 . S
O548 C536 1.232 . S
H549 C568 0.929 . S
H550 C569 0.929 . S
H551 C581 0.931 . S
H552 C573 0.929 . S
H553 C582 0.930 . S
H554 C574 0.931 . S
O555 Co531 2.097 . S
O555 C583 1.214 . S
H556 C584 0.929 . S
H557 C585 0.929 . S
H558 C586 0.930 . S
H559 C587 0.929 . S
H560 C589 0.930 . S
H561 C566 0.930 . S
H562 C570 0.930 . S
O563 Co532 2.037 . S
O563 C583 1.234 . S
C564 O538 1.269 . S
C564 O539 1.257 . S
C565 H540 0.930 . S
C565 C568 1.388 . S
C565 C570 1.418 . S
C566 H561 0.930 . S
C566 C569 1.404 . S
C566 C570 1.353 . S
N567 Co532 2.145 . S
N567 C568 1.397 . S
N567 C569 1.334 . S
C568 H549 0.929 . S
C568 C565 1.388 . S
C568 N567 1.397 . S
C569 H550 0.929 . S
C569 C566 1.404 . S
C569 N567 1.334 . S
C570 H562 0.930 . S
C570 C565 1.418 . S
C570 C566 1.353 . S
C571 H541 0.930 . S
C571 N572 1.330 . S
C571 C573 1.446 . S
N572 Co531 2.151 . S
N572 C571 1.330 . S
N572 C576 1.418 . S
C573 H552 0.929 . S
C573 C571 1.446 . S
C573 C574 1.332 . S
C574 H554 0.931 . S
C574 C573 1.332 . S
C574 C575 1.267 . S
C575 H543 0.929 . S
C575 C574 1.267 . S
C575 C576 1.251 . S
C576 H546 0.929 . S
C576 N572 1.418 . S
C576 C575 1.251 . S
C577 H544 0.930 . S
C577 C579 1.406 . S
C577 C582 1.261 . S
C578 H545 0.930 . S
C578 N580 1.325 . S
C578 C581 1.357 . S
C579 H547 0.928 . S
C579 C577 1.406 . S
C579 N580 1.261 . S
N580 Co531 2.214 . S
N580 C578 1.325 . S
N580 C579 1.261 . S
C581 H551 0.931 . S
C581 C578 1.357 . S
C581 C582 1.312 . S
C582 H553 0.930 . S
C582 C577 1.261 . S
C582 C581 1.312 . S
C583 O555 1.214 . S
C583 O563 1.234 . S
C584 H556 0.929 . S
C584 C587 1.391 . S
C584 C589 1.391 . S
C585 H557 0.929 . S
C585 C586 1.390 . S
C585 N588 1.391 . S
C586 H558 0.930 . S
C586 C585 1.390 . S
C586 C587 1.392 . S
C587 H559 0.929 . S
C587 C584 1.391 . S
C587 C586 1.392 . S
N588 Co532 2.257 . S
N588 C585 1.391 . S
N588 C589 1.388 . S
C589 H560 0.930 . S
C589 C584 1.391 . S
C589 N588 1.388 . S
Co590 O592 2.143 . S
Co590 O598 2.074 . S
Co590 O601 2.093 . S
Co590 O614 2.097 . S
Co590 N631 2.151 . S
Co590 N639 2.214 . S
Co591 O592 2.160 . S
Co591 O597 2.058 . S
Co591 O607 2.057 . S
Co591 O622 2.037 . S
Co591 N626 2.145 . S
Co591 N647 2.257 . S
O592 Co590 2.143 . S
O592 Co591 2.160 . S
C593 O594 1.278 . S
C593 O601 1.224 . S
O594 C593 1.278 . S
C595 O596 1.245 . S
C595 O607 1.232 . S
O596 C595 1.245 . S
O597 Co591 2.058 . S
O597 C623 1.269 . S
O598 Co590 2.074 . S
O598 C623 1.257 . S
H599 C624 0.930 . S
H600 C630 0.930 . S
O601 Co590 2.093 . S
O601 C593 1.224 . S
H602 C634 0.929 . S
H603 C636 0.930 . S
H604 C637 0.930 . S
H605 C635 0.929 . S
H606 C638 0.928 . S
O607 Co591 2.057 . S
O607 C595 1.232 . S
H608 C627 0.929 . S
H609 C628 0.929 . S
H610 C640 0.931 . S
H611 C632 0.929 . S
H612 C641 0.930 . S
H613 C633 0.931 . S
O614 Co590 2.097 . S
O614 C642 1.214 . S
H615 C643 0.929 . S
H616 C644 0.929 . S
H617 C645 0.930 . S
H618 C646 0.929 . S
H619 C648 0.930 . S
H620 C625 0.930 . S
H621 C629 0.930 . S
O622 Co591 2.037 . S
O622 C642 1.234 . S
C623 O597 1.269 . S
C623 O598 1.257 . S
C624 H599 0.930 . S
C624 C627 1.388 . S
C624 C629 1.418 . S
C625 H620 0.930 . S
C625 C628 1.404 . S
C625 C629 1.353 . S
N626 Co591 2.145 . S
N626 C627 1.397 . S
N626 C628 1.334 . S
C627 H608 0.929 . S
C627 C624 1.388 . S
C627 N626 1.397 . S
C628 H609 0.929 . S
C628 C625 1.404 . S
C628 N626 1.334 . S
C629 H621 0.930 . S
C629 C624 1.418 . S
C629 C625 1.353 . S
C630 H600 0.930 . S
C630 N631 1.330 . S
C630 C632 1.446 . S
N631 Co590 2.151 . S
N631 C630 1.330 . S
N631 C635 1.418 . S
C632 H611 0.929 . S
C632 C630 1.446 . S
C632 C633 1.332 . S
C633 H613 0.931 . S
C633 C632 1.332 . S
C633 C634 1.267 . S
C634 H602 0.929 . S
C634 C633 1.267 . S
C634 C635 1.251 . S
C635 H605 0.929 . S
C635 N631 1.418 . S
C635 C634 1.251 . S
C636 H603 0.930 . S
C636 C638 1.406 . S
C636 C641 1.261 . S
C637 H604 0.930 . S
C637 N639 1.325 . S
C637 C640 1.357 . S
C638 H606 0.928 . S
C638 C636 1.406 . S
C638 N639 1.261 . S
N639 Co590 2.214 . S
N639 C637 1.325 . S
N639 C638 1.261 . S
C640 H610 0.931 . S
C640 C637 1.357 . S
C640 C641 1.312 . S
C641 H612 0.930 . S
C641 C636 1.261 . S
C641 C640 1.312 . S
C642 O614 1.214 . S
C642 O622 1.234 . S
C643 H615 0.929 . S
C643 C646 1.391 . S
C643 C648 1.391 . S
C644 H616 0.929 . S
C644 C645 1.390 . S
C644 N647 1.391 . S
C645 H617 0.930 . S
C645 C644 1.390 . S
C645 C646 1.392 . S
C646 H618 0.929 . S
C646 C643 1.391 . S
C646 C645 1.392 . S
N647 Co591 2.257 . S
N647 C644 1.391 . S
N647 C648 1.388 . S
C648 H619 0.930 . S
C648 C643 1.391 . S
C648 N647 1.388 . S
Co649 O651 2.143 . S
Co649 O657 2.074 . S
Co649 O660 2.093 . S
Co649 O673 2.097 . S
Co649 N690 2.151 . S
Co649 N698 2.214 . S
Co650 O651 2.160 . S
Co650 O656 2.058 . S
Co650 O666 2.057 . S
Co650 O681 2.037 . S
Co650 N685 2.145 . S
Co650 N706 2.257 . S
O651 Co649 2.143 . S
O651 Co650 2.160 . S
C652 O653 1.278 . S
C652 O660 1.224 . S
O653 C652 1.278 . S
C654 O655 1.245 . S
C654 O666 1.232 . S
O655 C654 1.245 . S
O656 Co650 2.058 . S
O656 C682 1.269 . S
O657 Co649 2.074 . S
O657 C682 1.257 . S
H658 C683 0.930 . S
H659 C689 0.930 . S
O660 Co649 2.093 . S
O660 C652 1.224 . S
H661 C693 0.929 . S
H662 C695 0.930 . S
H663 C696 0.930 . S
H664 C694 0.929 . S
H665 C697 0.928 . S
O666 Co650 2.057 . S
O666 C654 1.232 . S
H667 C686 0.929 . S
H668 C687 0.929 . S
H669 C699 0.931 . S
H670 C691 0.929 . S
H671 C700 0.930 . S
H672 C692 0.931 . S
O673 Co649 2.097 . S
O673 C701 1.214 . S
H674 C702 0.929 . S
H675 C703 0.929 . S
H676 C704 0.930 . S
H677 C705 0.929 . S
H678 C707 0.930 . S
H679 C684 0.930 . S
H680 C688 0.930 . S
O681 Co650 2.037 . S
O681 C701 1.234 . S
C682 O656 1.269 . S
C682 O657 1.257 . S
C683 H658 0.930 . S
C683 C686 1.388 . S
C683 C688 1.418 . S
C684 H679 0.930 . S
C684 C687 1.404 . S
C684 C688 1.353 . S
N685 Co650 2.145 . S
N685 C686 1.397 . S
N685 C687 1.334 . S
C686 H667 0.929 . S
C686 C683 1.388 . S
C686 N685 1.397 . S
C687 H668 0.929 . S
C687 C684 1.404 . S
C687 N685 1.334 . S
C688 H680 0.930 . S
C688 C683 1.418 . S
C688 C684 1.353 . S
C689 H659 0.930 . S
C689 N690 1.330 . S
C689 C691 1.446 . S
N690 Co649 2.151 . S
N690 C689 1.330 . S
N690 C694 1.418 . S
C691 H670 0.929 . S
C691 C689 1.446 . S
C691 C692 1.332 . S
C692 H672 0.931 . S
C692 C691 1.332 . S
C692 C693 1.267 . S
C693 H661 0.929 . S
C693 C692 1.267 . S
C693 C694 1.251 . S
C694 H664 0.929 . S
C694 N690 1.418 . S
C694 C693 1.251 . S
C695 H662 0.930 . S
C695 C697 1.406 . S
C695 C700 1.261 . S
C696 H663 0.930 . S
C696 N698 1.325 . S
C696 C699 1.357 . S
C697 H665 0.928 . S
C697 C695 1.406 . S
C697 N698 1.261 . S
N698 Co649 2.214 . S
N698 C696 1.325 . S
N698 C697 1.261 . S
C699 H669 0.931 . S
C699 C696 1.357 . S
C699 C700 1.312 . S
C700 H671 0.930 . S
C700 C695 1.261 . S
C700 C699 1.312 . S
C701 O673 1.214 . S
C701 O681 1.234 . S
C702 H674 0.929 . S
C702 C705 1.391 . S
C702 C707 1.391 . S
C703 H675 0.929 . S
C703 C704 1.390 . S
C703 N706 1.391 . S
C704 H676 0.930 . S
C704 C703 1.390 . S
C704 C705 1.392 . S
C705 H677 0.929 . S
C705 C702 1.391 . S
C705 C704 1.392 . S
N706 Co650 2.257 . S
N706 C703 1.391 . S
N706 C707 1.388 . S
C707 H678 0.930 . S
C707 C702 1.391 . S
C707 N706 1.388 . S
Co708 O710 2.143 . S
Co708 O716 2.074 . S
Co708 O719 2.093 . S
Co708 O732 2.097 . S
Co708 N749 2.151 . S
Co708 N757 2.214 . S
Co709 O710 2.160 . S
Co709 O715 2.058 . S
Co709 O725 2.057 . S
Co709 O740 2.037 . S
Co709 N744 2.145 . S
Co709 N765 2.257 . S
O710 Co708 2.143 . S
O710 Co709 2.160 . S
C711 O712 1.278 . S
C711 O719 1.224 . S
O712 C711 1.278 . S
C713 O714 1.245 . S
C713 O725 1.232 . S
O714 C713 1.245 . S
O715 Co709 2.058 . S
O715 C741 1.269 . S
O716 Co708 2.074 . S
O716 C741 1.257 . S
H717 C742 0.930 . S
H718 C748 0.930 . S
O719 Co708 2.093 . S
O719 C711 1.224 . S
H720 C752 0.929 . S
H721 C754 0.930 . S
H722 C755 0.930 . S
H723 C753 0.929 . S
H724 C756 0.928 . S
O725 Co709 2.057 . S
O725 C713 1.232 . S
H726 C745 0.929 . S
H727 C746 0.929 . S
H728 C758 0.931 . S
H729 C750 0.929 . S
H730 C759 0.930 . S
H731 C751 0.931 . S
O732 Co708 2.097 . S
O732 C760 1.214 . S
H733 C761 0.929 . S
H734 C762 0.929 . S
H735 C763 0.930 . S
H736 C764 0.929 . S
H737 C766 0.930 . S
H738 C743 0.930 . S
H739 C747 0.930 . S
O740 Co709 2.037 . S
O740 C760 1.234 . S
C741 O715 1.269 . S
C741 O716 1.257 . S
C742 H717 0.930 . S
C742 C745 1.388 . S
C742 C747 1.418 . S
C743 H738 0.930 . S
C743 C746 1.404 . S
C743 C747 1.353 . S
N744 Co709 2.145 . S
N744 C745 1.397 . S
N744 C746 1.334 . S
C745 H726 0.929 . S
C745 C742 1.388 . S
C745 N744 1.397 . S
C746 H727 0.929 . S
C746 C743 1.404 . S
C746 N744 1.334 . S
C747 H739 0.930 . S
C747 C742 1.418 . S
C747 C743 1.353 . S
C748 H718 0.930 . S
C748 N749 1.330 . S
C748 C750 1.446 . S
N749 Co708 2.151 . S
N749 C748 1.330 . S
N749 C753 1.418 . S
C750 H729 0.929 . S
C750 C748 1.446 . S
C750 C751 1.332 . S
C751 H731 0.931 . S
C751 C750 1.332 . S
C751 C752 1.267 . S
C752 H720 0.929 . S
C752 C751 1.267 . S
C752 C753 1.251 . S
C753 H723 0.929 . S
C753 N749 1.418 . S
C753 C752 1.251 . S
C754 H721 0.930 . S
C754 C756 1.406 . S
C754 C759 1.261 . S
C755 H722 0.930 . S
C755 N757 1.325 . S
C755 C758 1.357 . S
C756 H724 0.928 . S
C756 C754 1.406 . S
C756 N757 1.261 . S
N757 Co708 2.214 . S
N757 C755 1.325 . S
N757 C756 1.261 . S
C758 H728 0.931 . S
C758 C755 1.357 . S
C758 C759 1.312 . S
C759 H730 0.930 . S
C759 C754 1.261 . S
C759 C758 1.312 . S
C760 O732 1.214 . S
C760 O740 1.234 . S
C761 H733 0.929 . S
C761 C764 1.391 . S
C761 C766 1.391 . S
C762 H734 0.929 . S
C762 C763 1.390 . S
C762 N765 1.391 . S
C763 H735 0.930 . S
C763 C762 1.390 . S
C763 C764 1.392 . S
C764 H736 0.929 . S
C764 C761 1.391 . S
C764 C763 1.392 . S
N765 Co709 2.257 . S
N765 C762 1.391 . S
N765 C766 1.388 . S
C766 H737 0.930 . S
C766 C761 1.391 . S
C766 N765 1.388 . S
Co767 O769 2.143 . S
Co767 O775 2.074 . S
Co767 O778 2.093 . S
Co767 O791 2.097 . S
Co767 N808 2.151 . S
Co767 N816 2.214 . S
Co768 O769 2.160 . S
Co768 O774 2.058 . S
Co768 O784 2.057 . S
Co768 O799 2.037 . S
Co768 N803 2.145 . S
Co768 N824 2.257 . S
O769 Co767 2.143 . S
O769 Co768 2.160 . S
C770 O771 1.278 . S
C770 O778 1.224 . S
O771 C770 1.278 . S
C772 O773 1.245 . S
C772 O784 1.232 . S
O773 C772 1.245 . S
O774 Co768 2.058 . S
O774 C800 1.269 . S
O775 Co767 2.074 . S
O775 C800 1.257 . S
H776 C801 0.930 . S
H777 C807 0.930 . S
O778 Co767 2.093 . S
O778 C770 1.224 . S
H779 C811 0.929 . S
H780 C813 0.930 . S
H781 C814 0.930 . S
H782 C812 0.929 . S
H783 C815 0.928 . S
O784 Co768 2.057 . S
O784 C772 1.232 . S
H785 C804 0.929 . S
H786 C805 0.929 . S
H787 C817 0.931 . S
H788 C809 0.929 . S
H789 C818 0.930 . S
H790 C810 0.931 . S
O791 Co767 2.097 . S
O791 C819 1.214 . S
H792 C820 0.929 . S
H793 C821 0.929 . S
H794 C822 0.930 . S
H795 C823 0.929 . S
H796 C825 0.930 . S
H797 C802 0.930 . S
H798 C806 0.930 . S
O799 Co768 2.037 . S
O799 C819 1.234 . S
C800 O774 1.269 . S
C800 O775 1.257 . S
C801 H776 0.930 . S
C801 C804 1.388 . S
C801 C806 1.418 . S
C802 H797 0.930 . S
C802 C805 1.404 . S
C802 C806 1.353 . S
N803 Co768 2.145 . S
N803 C804 1.397 . S
N803 C805 1.334 . S
C804 H785 0.929 . S
C804 C801 1.388 . S
C804 N803 1.397 . S
C805 H786 0.929 . S
C805 C802 1.404 . S
C805 N803 1.334 . S
C806 H798 0.930 . S
C806 C801 1.418 . S
C806 C802 1.353 . S
C807 H777 0.930 . S
C807 N808 1.330 . S
C807 C809 1.446 . S
N808 Co767 2.151 . S
N808 C807 1.330 . S
N808 C812 1.418 . S
C809 H788 0.929 . S
C809 C807 1.446 . S
C809 C810 1.332 . S
C810 H790 0.931 . S
C810 C809 1.332 . S
C810 C811 1.267 . S
C811 H779 0.929 . S
C811 C810 1.267 . S
C811 C812 1.251 . S
C812 H782 0.929 . S
C812 N808 1.418 . S
C812 C811 1.251 . S
C813 H780 0.930 . S
C813 C815 1.406 . S
C813 C818 1.261 . S
C814 H781 0.930 . S
C814 N816 1.325 . S
C814 C817 1.357 . S
C815 H783 0.928 . S
C815 C813 1.406 . S
C815 N816 1.261 . S
N816 Co767 2.214 . S
N816 C814 1.325 . S
N816 C815 1.261 . S
C817 H787 0.931 . S
C817 C814 1.357 . S
C817 C818 1.312 . S
C818 H789 0.930 . S
C818 C813 1.261 . S
C818 C817 1.312 . S
C819 O791 1.214 . S
C819 O799 1.234 . S
C820 H792 0.929 . S
C820 C823 1.391 . S
C820 C825 1.391 . S
C821 H793 0.929 . S
C821 C822 1.390 . S
C821 N824 1.391 . S
C822 H794 0.930 . S
C822 C821 1.390 . S
C822 C823 1.392 . S
C823 H795 0.929 . S
C823 C820 1.391 . S
C823 C822 1.392 . S
N824 Co768 2.257 . S
N824 C821 1.391 . S
N824 C825 1.388 . S
C825 H796 0.930 . S
C825 C820 1.391 . S
C825 N824 1.388 . S
Co826 O828 2.143 . S
Co826 O834 2.074 . S
Co826 O837 2.093 . S
Co826 O850 2.097 . S
Co826 N867 2.151 . S
Co826 N875 2.214 . S
Co827 O828 2.160 . S
Co827 O833 2.058 . S
Co827 O843 2.057 . S
Co827 O858 2.037 . S
Co827 N862 2.145 . S
Co827 N883 2.257 . S
O828 Co826 2.143 . S
O828 Co827 2.160 . S
C829 O830 1.278 . S
C829 O837 1.224 . S
O830 C829 1.278 . S
C831 O832 1.245 . S
C831 O843 1.232 . S
O832 C831 1.245 . S
O833 Co827 2.058 . S
O833 C859 1.269 . S
O834 Co826 2.074 . S
O834 C859 1.257 . S
H835 C860 0.930 . S
H836 C866 0.930 . S
O837 Co826 2.093 . S
O837 C829 1.224 . S
H838 C870 0.929 . S
H839 C872 0.930 . S
H840 C873 0.930 . S
H841 C871 0.929 . S
H842 C874 0.928 . S
O843 Co827 2.057 . S
O843 C831 1.232 . S
H844 C863 0.929 . S
H845 C864 0.929 . S
H846 C876 0.931 . S
H847 C868 0.929 . S
H848 C877 0.930 . S
H849 C869 0.931 . S
O850 Co826 2.097 . S
O850 C878 1.214 . S
H851 C879 0.929 . S
H852 C880 0.929 . S
H853 C881 0.930 . S
H854 C882 0.929 . S
H855 C884 0.930 . S
H856 C861 0.930 . S
H857 C865 0.930 . S
O858 Co827 2.037 . S
O858 C878 1.234 . S
C859 O833 1.269 . S
C859 O834 1.257 . S
C860 H835 0.930 . S
C860 C863 1.388 . S
C860 C865 1.418 . S
C861 H856 0.930 . S
C861 C864 1.404 . S
C861 C865 1.353 . S
N862 Co827 2.145 . S
N862 C863 1.397 . S
N862 C864 1.334 . S
C863 H844 0.929 . S
C863 C860 1.388 . S
C863 N862 1.397 . S
C864 H845 0.929 . S
C864 C861 1.404 . S
C864 N862 1.334 . S
C865 H857 0.930 . S
C865 C860 1.418 . S
C865 C861 1.353 . S
C866 H836 0.930 . S
C866 N867 1.330 . S
C866 C868 1.446 . S
N867 Co826 2.151 . S
N867 C866 1.330 . S
N867 C871 1.418 . S
C868 H847 0.929 . S
C868 C866 1.446 . S
C868 C869 1.332 . S
C869 H849 0.931 . S
C869 C868 1.332 . S
C869 C870 1.267 . S
C870 H838 0.929 . S
C870 C869 1.267 . S
C870 C871 1.251 . S
C871 H841 0.929 . S
C871 N867 1.418 . S
C871 C870 1.251 . S
C872 H839 0.930 . S
C872 C874 1.406 . S
C872 C877 1.261 . S
C873 H840 0.930 . S
C873 N875 1.325 . S
C873 C876 1.357 . S
C874 H842 0.928 . S
C874 C872 1.406 . S
C874 N875 1.261 . S
N875 Co826 2.214 . S
N875 C873 1.325 . S
N875 C874 1.261 . S
C876 H846 0.931 . S
C876 C873 1.357 . S
C876 C877 1.312 . S
C877 H848 0.930 . S
C877 C872 1.261 . S
C877 C876 1.312 . S
C878 O850 1.214 . S
C878 O858 1.234 . S
C879 H851 0.929 . S
C879 C882 1.391 . S
C879 C884 1.391 . S
C880 H852 0.929 . S
C880 C881 1.390 . S
C880 N883 1.391 . S
C881 H853 0.930 . S
C881 C880 1.390 . S
C881 C882 1.392 . S
C882 H854 0.929 . S
C882 C879 1.391 . S
C882 C881 1.392 . S
N883 Co827 2.257 . S
N883 C880 1.391 . S
N883 C884 1.388 . S
C884 H855 0.930 . S
C884 C879 1.391 . S
C884 N883 1.388 . S
Co885 O887 2.143 . S
Co885 O893 2.074 . S
Co885 O896 2.093 . S
Co885 O909 2.097 . S
Co885 N926 2.151 . S
Co885 N934 2.214 . S
Co886 O887 2.160 . S
Co886 O892 2.058 . S
Co886 O902 2.057 . S
Co886 O917 2.037 . S
Co886 N921 2.145 . S
Co886 N942 2.257 . S
O887 Co885 2.143 . S
O887 Co886 2.160 . S
C888 O889 1.278 . S
C888 O896 1.224 . S
O889 C888 1.278 . S
C890 O891 1.245 . S
C890 O902 1.232 . S
O891 C890 1.245 . S
O892 Co886 2.058 . S
O892 C918 1.269 . S
O893 Co885 2.074 . S
O893 C918 1.257 . S
H894 C919 0.930 . S
H895 C925 0.930 . S
O896 Co885 2.093 . S
O896 C888 1.224 . S
H897 C929 0.929 . S
H898 C931 0.930 . S
H899 C932 0.930 . S
H900 C930 0.929 . S
H901 C933 0.928 . S
O902 Co886 2.057 . S
O902 C890 1.232 . S
H903 C922 0.929 . S
H904 C923 0.929 . S
H905 C935 0.931 . S
H906 C927 0.929 . S
H907 C936 0.930 . S
H908 C928 0.931 . S
O909 Co885 2.097 . S
O909 C937 1.214 . S
H910 C938 0.929 . S
H911 C939 0.929 . S
H912 C940 0.930 . S
H913 C941 0.929 . S
H914 C943 0.930 . S
H915 C920 0.930 . S
H916 C924 0.930 . S
O917 Co886 2.037 . S
O917 C937 1.234 . S
C918 O892 1.269 . S
C918 O893 1.257 . S
C919 H894 0.930 . S
C919 C922 1.388 . S
C919 C924 1.418 . S
C920 H915 0.930 . S
C920 C923 1.404 . S
C920 C924 1.353 . S
N921 Co886 2.145 . S
N921 C922 1.397 . S
N921 C923 1.334 . S
C922 H903 0.929 . S
C922 C919 1.388 . S
C922 N921 1.397 . S
C923 H904 0.929 . S
C923 C920 1.404 . S
C923 N921 1.334 . S
C924 H916 0.930 . S
C924 C919 1.418 . S
C924 C920 1.353 . S
C925 H895 0.930 . S
C925 N926 1.330 . S
C925 C927 1.446 . S
N926 Co885 2.151 . S
N926 C925 1.330 . S
N926 C930 1.418 . S
C927 H906 0.929 . S
C927 C925 1.446 . S
C927 C928 1.332 . S
C928 H908 0.931 . S
C928 C927 1.332 . S
C928 C929 1.267 . S
C929 H897 0.929 . S
C929 C928 1.267 . S
C929 C930 1.251 . S
C930 H900 0.929 . S
C930 N926 1.418 . S
C930 C929 1.251 . S
C931 H898 0.930 . S
C931 C933 1.406 . S
C931 C936 1.261 . S
C932 H899 0.930 . S
C932 N934 1.325 . S
C932 C935 1.357 . S
C933 H901 0.928 . S
C933 C931 1.406 . S
C933 N934 1.261 . S
N934 Co885 2.214 . S
N934 C932 1.325 . S
N934 C933 1.261 . S
C935 H905 0.931 . S
C935 C932 1.357 . S
C935 C936 1.312 . S
C936 H907 0.930 . S
C936 C931 1.261 . S
C936 C935 1.312 . S
C937 O909 1.214 . S
C937 O917 1.234 . S
C938 H910 0.929 . S
C938 C941 1.391 . S
C938 C943 1.391 . S
C939 H911 0.929 . S
C939 C940 1.390 . S
C939 N942 1.391 . S
C940 H912 0.930 . S
C940 C939 1.390 . S
C940 C941 1.392 . S
C941 H913 0.929 . S
C941 C938 1.391 . S
C941 C940 1.392 . S
N942 Co886 2.257 . S
N942 C939 1.391 . S
N942 C943 1.388 . S
C943 H914 0.930 . S
C943 C938 1.391 . S
C943 N942 1.388 . S
C944 C945 1.391 . S
C944 C946 1.394 . S
C944 H960 0.931 . S
C945 C944 1.391 . S
C945 C949 1.376 . S
C946 C944 1.394 . S
C946 C947 1.369 . S
C946 C950 1.531 . S
C947 C946 1.369 . S
C947 C948 1.410 . S
C947 C955 1.503 1_455 S
C948 C947 1.410 . S
C948 C949 1.392 . S
C948 C951 1.511 . S
C949 C945 1.376 . S
C949 C948 1.392 . S
C949 H961 0.929 . S
C950 C946 1.531 . S
C950 H962 0.960 . S
C950 H963 0.962 . S
C950 H964 0.960 . S
C951 C948 1.511 . S
C951 H965 0.961 . S
C951 H966 0.961 1_455 S
C951 H967 0.961 1_455 S
C952 C953 1.370 . S
C952 C954 1.363 . S
C952 H968 0.931 . S
C953 C952 1.370 . S
C953 C957 1.408 . S
C954 C952 1.363 . S
C954 C955 1.370 . S
C954 C958 1.524 . S
C955 C947 1.503 1_655 S
C955 C954 1.370 . S
C955 C956 1.403 . S
C956 C955 1.403 . S
C956 C957 1.404 . S
C956 C959 1.539 . S
C957 C953 1.408 . S
C957 C956 1.404 . S
C957 H969 0.930 . S
C958 C954 1.524 . S
C958 H970 0.956 1_655 S
C958 H971 0.961 1_655 S
C958 H972 0.961 . S
C959 C956 1.539 . S
C959 H973 0.958 . S
C959 H974 0.961 . S
C959 H975 0.960 . S
H960 C944 0.931 . S
H961 C949 0.929 . S
H962 C950 0.960 . S
H963 C950 0.962 . S
H964 C950 0.960 . S
H965 C951 0.961 . S
H966 C951 0.961 1_655 S
H967 C951 0.961 1_655 S
H968 C952 0.931 . S
H969 C957 0.930 . S
H970 C958 0.956 1_455 S
H971 C958 0.961 1_455 S
H972 C958 0.961 . S
H973 C959 0.958 . S
H974 C959 0.961 . S
H975 C959 0.960 . S
C976 C977 1.391 . S
C976 C978 1.394 . S
C976 H992 0.931 . S
C977 C976 1.391 . S
C977 C981 1.376 . S
C978 C976 1.394 . S
C978 C979 1.369 . S
C978 C982 1.531 . S
C979 C978 1.369 . S
C979 C980 1.410 . S
C979 C987 1.503 1_565 S
C980 C979 1.410 . S
C980 C981 1.392 . S
C980 C983 1.511 . S
C981 C977 1.376 . S
C981 C980 1.392 . S
C981 H993 0.929 . S
C982 C978 1.531 . S
C982 H994 0.960 1_565 S
C982 H995 0.962 1_565 S
C982 H996 0.960 . S
C983 C980 1.511 . S
C983 H997 0.961 . S
C983 H998 0.961 . S
C983 H999 0.961 . S
C984 C985 1.370 . S
C984 C986 1.363 . S
C984 H1000 0.931 . S
C985 C984 1.370 . S
C985 C989 1.408 . S
C986 C984 1.363 . S
C986 C987 1.370 . S
C986 C990 1.524 . S
C987 C979 1.503 1_545 S
C987 C986 1.370 . S
C987 C988 1.403 . S
C988 C987 1.403 . S
C988 C989 1.404 . S
C988 C991 1.539 . S
C989 C985 1.408 . S
C989 C988 1.404 . S
C989 H1001 0.930 . S
C990 C986 1.524 . S
C990 H1002 0.956 . S
C990 H1003 0.961 . S
C990 H1004 0.961 . S
C991 C988 1.539 . S
C991 H1005 0.958 . S
C991 H1006 0.961 . S
C991 H1007 0.960 1_545 S
H992 C976 0.931 . S
H993 C981 0.929 . S
H994 C982 0.960 1_545 S
H995 C982 0.962 1_545 S
H996 C982 0.960 . S
H997 C983 0.961 . S
H998 C983 0.961 . S
H999 C983 0.961 . S
H1000 C984 0.931 . S
H1001 C989 0.930 . S
H1002 C990 0.956 . S
H1003 C990 0.961 . S
H1004 C990 0.961 . S
H1005 C991 0.958 . S
H1006 C991 0.961 . S
H1007 C991 0.960 1_565 S
C1008 C1009 1.391 . S
C1008 C1010 1.394 . S
C1008 H1024 0.931 . S
C1009 C1008 1.391 . S
C1009 C1013 1.376 . S
C1010 C1008 1.394 . S
C1010 C1011 1.369 . S
C1010 C1014 1.514 1_455 S
C1011 C1010 1.369 . S
C1011 C1012 1.410 . S
C1011 C1019 1.503 1_455 S
C1012 C1011 1.410 . S
C1012 C1013 1.392 . S
C1012 C1015 1.511 . S
C1013 C1009 1.376 . S
C1013 C1012 1.392 . S
C1013 H1025 0.929 . S
C1014 C1010 1.514 1_655 S
C1014 H1026 0.979 . S
C1014 H1027 0.967 . S
C1014 H1028 0.953 1_655 S
C1015 C1012 1.511 . S
C1015 H1029 0.961 . S
C1015 H1030 0.961 . S
C1015 H1031 0.961 . S
C1016 C1017 1.370 . S
C1016 C1018 1.363 . S
C1016 H1032 0.931 . S
C1017 C1016 1.370 . S
C1017 C1021 1.408 . S
C1018 C1016 1.363 . S
C1018 C1019 1.370 . S
C1018 C1022 1.524 . S
C1019 C1011 1.503 1_655 S
C1019 C1018 1.370 . S
C1019 C1020 1.403 . S
C1020 C1019 1.403 . S
C1020 C1021 1.404 . S
C1020 C1023 1.539 . S
C1021 C1017 1.408 . S
C1021 C1020 1.404 . S
C1021 H1033 0.930 . S
C1022 C1018 1.524 . S
C1022 H1034 0.956 . S
C1022 H1035 0.961 1_655 S
C1022 H1036 0.961 . S
C1023 C1020 1.539 . S
C1023 H1037 0.958 . S
C1023 H1038 0.961 . S
C1023 H1039 0.960 . S
H1024 C1008 0.931 . S
H1025 C1013 0.929 . S
H1026 C1014 0.979 . S
H1027 C1014 0.967 . S
H1028 C1014 0.953 1_455 S
H1029 C1015 0.961 . S
H1030 C1015 0.961 . S
H1031 C1015 0.961 . S
H1032 C1016 0.931 . S
H1033 C1021 0.930 . S
H1034 C1022 0.956 . S
H1035 C1022 0.961 1_455 S
H1036 C1022 0.961 . S
H1037 C1023 0.958 . S
H1038 C1023 0.961 . S
H1039 C1023 0.960 . S
C1040 C1041 1.391 . S
C1040 C1042 1.394 . S
C1040 H1056 0.931 . S
C1041 C1040 1.391 . S
C1041 C1045 1.376 . S
C1042 C1040 1.394 . S
C1042 C1043 1.369 . S
C1042 C1046 1.531 . S
C1043 C1042 1.369 . S
C1043 C1044 1.410 . S
C1043 C1051 1.503 1_565 S
C1044 C1043 1.410 . S
C1044 C1045 1.392 . S
C1044 C1047 1.511 . S
C1045 C1041 1.376 . S
C1045 C1044 1.392 . S
C1045 H1057 0.929 . S
C1046 C1042 1.531 . S
C1046 H1058 0.960 1_565 S
C1046 H1059 0.962 1_565 S
C1046 H1060 0.960 . S
C1047 C1044 1.511 . S
C1047 H1061 0.961 . S
C1047 H1062 0.961 . S
C1047 H1063 0.961 . S
C1048 C1049 1.370 . S
C1048 C1050 1.363 . S
C1048 H1064 0.931 . S
C1049 C1048 1.370 . S
C1049 C1053 1.408 . S
C1050 C1048 1.363 . S
C1050 C1051 1.370 . S
C1050 C1054 1.524 . S
C1051 C1043 1.503 1_545 S
C1051 C1050 1.370 . S
C1051 C1052 1.403 . S
C1052 C1051 1.403 . S
C1052 C1053 1.404 . S
C1052 C1055 1.539 . S
C1053 C1049 1.408 . S
C1053 C1052 1.404 . S
C1053 H1065 0.930 . S
C1054 C1050 1.524 . S
C1054 H1066 0.956 . S
C1054 H1067 0.961 . S
C1054 H1068 0.961 . S
C1055 C1052 1.539 . S
C1055 H1069 0.958 . S
C1055 H1070 0.961 . S
C1055 H1071 0.960 1_545 S
H1056 C1040 0.931 . S
H1057 C1045 0.929 . S
H1058 C1046 0.960 1_545 S
H1059 C1046 0.962 1_545 S
H1060 C1046 0.960 . S
H1061 C1047 0.961 . S
H1062 C1047 0.961 . S
H1063 C1047 0.961 . S
H1064 C1048 0.931 . S
H1065 C1053 0.930 . S
H1066 C1054 0.956 . S
H1067 C1054 0.961 . S
H1068 C1054 0.961 . S
H1069 C1055 0.958 . S
H1070 C1055 0.961 . S
H1071 C1055 0.960 1_565 S
C1072 C1073 1.391 . S
C1072 C1074 1.394 . S
C1072 H1088 0.931 . S
C1073 C1072 1.391 . S
C1073 C1077 1.376 . S
C1074 C1072 1.394 . S
C1074 C1075 1.369 . S
C1074 C1078 1.531 . S
C1075 C1074 1.369 . S
C1075 C1076 1.410 . S
C1075 C1083 1.503 1_655 S
C1076 C1075 1.410 . S
C1076 C1077 1.392 . S
C1076 C1079 1.511 . S
C1077 C1073 1.376 . S
C1077 C1076 1.392 . S
C1077 H1089 0.929 . S
C1078 C1074 1.531 . S
C1078 H1090 0.960 1_655 S
C1078 H1091 0.962 1_655 S
C1078 H1092 0.960 . S
C1079 C1076 1.511 . S
C1079 H1093 0.961 . S
C1079 H1094 0.961 . S
C1079 H1095 0.961 . S
C1080 C1081 1.370 . S
C1080 C1082 1.363 . S
C1080 H1096 0.931 . S
C1081 C1080 1.370 . S
C1081 C1085 1.408 . S
C1082 C1080 1.363 . S
C1082 C1083 1.370 . S
C1082 C1086 1.524 . S
C1083 C1075 1.503 1_455 S
C1083 C1082 1.370 . S
C1083 C1084 1.403 . S
C1084 C1083 1.403 . S
C1084 C1085 1.404 . S
C1084 C1087 1.539 . S
C1085 C1081 1.408 . S
C1085 C1084 1.404 . S
C1085 H1097 0.930 . S
C1086 C1082 1.524 . S
C1086 H1098 0.956 . S
C1086 H1099 0.961 . S
C1086 H1100 0.961 . S
C1087 C1084 1.539 . S
C1087 H1101 0.958 . S
C1087 H1102 0.961 . S
C1087 H1103 0.960 1_455 S
H1088 C1072 0.931 . S
H1089 C1077 0.929 . S
H1090 C1078 0.960 1_455 S
H1091 C1078 0.962 1_455 S
H1092 C1078 0.960 . S
H1093 C1079 0.961 . S
H1094 C1079 0.961 . S
H1095 C1079 0.961 . S
H1096 C1080 0.931 . S
H1097 C1085 0.930 . S
H1098 C1086 0.956 . S
H1099 C1086 0.961 . S
H1100 C1086 0.961 . S
H1101 C1087 0.958 . S
H1102 C1087 0.961 . S
H1103 C1087 0.960 1_655 S
C1104 C1105 1.391 . S
C1104 C1106 1.394 . S
C1104 H1120 0.931 . S
C1105 C1104 1.391 . S
C1105 C1109 1.376 . S
C1106 C1104 1.394 . S
C1106 C1107 1.369 . S
C1106 C1110 1.531 1_545 S
C1107 C1106 1.369 . S
C1107 C1108 1.410 . S
C1107 C1115 1.503 1_545 S
C1108 C1107 1.410 . S
C1108 C1109 1.392 . S
C1108 C1111 1.511 . S
C1109 C1105 1.376 . S
C1109 C1108 1.392 . S
C1109 H1121 0.929 . S
C1110 C1106 1.531 1_565 S
C1110 H1122 0.960 . S
C1110 H1123 0.962 . S
C1110 H1124 0.960 1_565 S
C1111 C1108 1.511 . S
C1111 H1125 0.961 . S
C1111 H1126 0.961 . S
C1111 H1127 0.961 . S
C1112 C1113 1.370 . S
C1112 C1114 1.363 . S
C1112 H1128 0.931 . S
C1113 C1112 1.370 . S
C1113 C1117 1.408 . S
C1114 C1112 1.363 . S
C1114 C1115 1.370 . S
C1114 C1118 1.524 . S
C1115 C1107 1.503 1_565 S
C1115 C1114 1.370 . S
C1115 C1116 1.403 . S
C1116 C1115 1.403 . S
C1116 C1117 1.404 . S
C1116 C1119 1.539 . S
C1117 C1113 1.408 . S
C1117 C1116 1.404 . S
C1117 H1129 0.930 . S
C1118 C1114 1.524 . S
C1118 H1130 0.956 . S
C1118 H1131 0.961 1_565 S
C1118 H1132 0.961 . S
C1119 C1116 1.539 . S
C1119 H1133 0.958 . S
C1119 H1134 0.961 . S
C1119 H1135 0.987 . S
H1120 C1104 0.931 . S
H1121 C1109 0.929 . S
H1122 C1110 0.960 . S
H1123 C1110 0.962 . S
H1124 C1110 0.960 1_545 S
H1125 C1111 0.961 . S
H1126 C1111 0.961 . S
H1127 C1111 0.961 . S
H1128 C1112 0.931 . S
H1129 C1117 0.930 . S
H1130 C1118 0.956 . S
H1131 C1118 0.961 1_545 S
H1132 C1118 0.961 . S
H1133 C1119 0.958 . S
H1134 C1119 0.961 . S
H1135 C1119 0.987 . S
C1136 C1137 1.391 . S
C1136 C1138 1.394 . S
C1136 H1152 0.931 . S
C1137 C1136 1.391 . S
C1137 C1141 1.376 . S
C1138 C1136 1.394 . S
C1138 C1139 1.369 . S
C1138 C1142 1.531 . S
C1139 C1138 1.369 . S
C1139 C1140 1.410 . S
C1139 C1147 1.503 1_655 S
C1140 C1139 1.410 . S
C1140 C1141 1.392 . S
C1140 C1143 1.511 . S
C1141 C1137 1.376 . S
C1141 C1140 1.392 . S
C1141 H1153 0.929 . S
C1142 C1138 1.531 . S
C1142 H1154 0.960 . S
C1142 H1155 0.962 . S
C1142 H1156 0.960 . S
C1143 C1140 1.511 . S
C1143 H1157 0.961 . S
C1143 H1158 0.961 1_655 S
C1143 H1159 0.961 . S
C1144 C1145 1.370 . S
C1144 C1146 1.363 . S
C1144 H1160 0.931 . S
C1145 C1144 1.370 . S
C1145 C1149 1.408 . S
C1146 C1144 1.363 . S
C1146 C1147 1.370 . S
C1146 C1150 1.524 . S
C1147 C1139 1.503 1_455 S
C1147 C1146 1.370 . S
C1147 C1148 1.403 . S
C1148 C1147 1.403 . S
C1148 C1149 1.404 . S
C1148 C1151 1.539 . S
C1149 C1145 1.408 . S
C1149 C1148 1.404 . S
C1149 H1161 0.930 . S
C1150 C1146 1.524 . S
C1150 H1162 0.956 . S
C1150 H1163 0.961 . S
C1150 H1164 0.961 . S
C1151 C1148 1.539 . S
C1151 H1165 0.947 1_455 S
C1151 H1166 0.961 . S
C1151 H1167 0.960 1_455 S
H1152 C1136 0.931 . S
H1153 C1141 0.929 . S
H1154 C1142 0.960 . S
H1155 C1142 0.962 . S
H1156 C1142 0.960 . S
H1157 C1143 0.961 . S
H1158 C1143 0.961 1_455 S
H1159 C1143 0.961 . S
H1160 C1144 0.931 . S
H1161 C1149 0.930 . S
H1162 C1150 0.956 . S
H1163 C1150 0.961 . S
H1164 C1150 0.961 . S
H1165 C1151 0.947 1_655 S
H1166 C1151 0.961 . S
H1167 C1151 0.960 1_655 S
C1168 C1169 1.391 . S
C1168 C1170 1.394 . S
C1168 H1184 0.931 . S
C1169 C1168 1.391 . S
C1169 C1173 1.376 . S
C1170 C1168 1.394 . S
C1170 C1171 1.369 . S
C1170 C1174 1.531 . S
C1171 C1170 1.369 . S
C1171 C1172 1.410 . S
C1171 C1179 1.503 1_545 S
C1172 C1171 1.410 . S
C1172 C1173 1.392 . S
C1172 C1175 1.511 . S
C1173 C1169 1.376 . S
C1173 C1172 1.392 . S
C1173 H1185 0.929 . S
C1174 C1170 1.531 . S
C1174 H1186 0.960 1_545 S
C1174 H1187 0.962 1_545 S
C1174 H1188 0.960 . S
C1175 C1172 1.511 . S
C1175 H1189 0.961 . S
C1175 H1190 0.961 . S
C1175 H1191 0.961 . S
C1176 C1177 1.370 . S
C1176 C1178 1.363 . S
C1176 H1192 0.931 . S
C1177 C1176 1.370 . S
C1177 C1181 1.408 . S
C1178 C1176 1.363 . S
C1178 C1179 1.370 . S
C1178 C1182 1.524 . S
C1179 C1171 1.503 1_565 S
C1179 C1178 1.370 . S
C1179 C1180 1.403 . S
C1180 C1179 1.403 . S
C1180 C1181 1.404 . S
C1180 C1183 1.539 . S
C1181 C1177 1.408 . S
C1181 C1180 1.404 . S
C1181 H1193 0.930 . S
C1182 C1178 1.524 . S
C1182 H1194 0.956 . S
C1182 H1195 0.961 . S
C1182 H1196 0.961 . S
C1183 C1180 1.539 . S
C1183 H1197 0.958 . S
C1183 H1198 0.961 . S
C1183 H1199 0.960 1_565 S
H1184 C1168 0.931 . S
H1185 C1173 0.929 . S
H1186 C1174 0.960 1_565 S
H1187 C1174 0.962 1_565 S
H1188 C1174 0.960 . S
H1189 C1175 0.961 . S
H1190 C1175 0.961 . S
H1191 C1175 0.961 . S
H1192 C1176 0.931 . S
H1193 C1181 0.930 . S
H1194 C1182 0.956 . S
H1195 C1182 0.961 . S
H1196 C1182 0.961 . S
H1197 C1183 0.958 . S
H1198 C1183 0.961 . S
H1199 C1183 0.960 1_545 S
C1200 C1201 1.391 . S
C1200 C1202 1.394 . S
C1200 H1216 0.931 . S
C1201 C1200 1.391 . S
C1201 C1205 1.376 . S
C1202 C1200 1.394 . S
C1202 C1203 1.369 . S
C1202 C1206 1.531 . S
C1203 C1202 1.369 . S
C1203 C1204 1.410 . S
C1203 C1211 1.503 . S
C1204 C1203 1.410 . S
C1204 C1205 1.392 . S
C1204 C1207 1.511 . S
C1205 C1201 1.376 . S
C1205 C1204 1.392 . S
C1205 H1217 0.929 . S
C1206 C1202 1.531 . S
C1206 H1218 0.960 . S
C1206 H1219 0.962 . S
C1206 H1220 0.960 . S
C1207 C1204 1.511 . S
C1207 H1221 0.961 . S
C1207 H1222 0.961 . S
C1207 H1223 0.961 . S
C1208 C1209 1.370 . S
C1208 C1210 1.363 . S
C1208 H1224 0.931 . S
C1209 C1208 1.370 . S
C1209 C1213 1.408 . S
C1210 C1208 1.363 . S
C1210 C1211 1.370 . S
C1210 C1214 1.524 . S
C1211 C1203 1.503 . S
C1211 C1210 1.370 . S
C1211 C1212 1.403 . S
C1212 C1211 1.403 . S
C1212 C1213 1.404 . S
C1212 C1215 1.539 . S
C1213 C1209 1.408 . S
C1213 C1212 1.404 . S
C1213 H1225 0.930 . S
C1214 C1210 1.524 . S
C1214 H1226 0.956 . S
C1214 H1227 0.961 . S
C1214 H1228 0.961 . S
C1215 C1212 1.539 . S
C1215 H1229 0.958 . S
C1215 H1230 0.961 . S
C1215 H1231 0.960 . S
H1216 C1200 0.931 . S
H1217 C1205 0.929 . S
H1218 C1206 0.960 . S
H1219 C1206 0.962 . S
H1220 C1206 0.960 . S
H1221 C1207 0.961 . S
H1222 C1207 0.961 . S
H1223 C1207 0.961 . S
H1224 C1208 0.931 . S
H1225 C1213 0.930 . S
H1226 C1214 0.956 . S
H1227 C1214 0.961 . S
H1228 C1214 0.961 . S
H1229 C1215 0.958 . S
H1230 C1215 0.961 . S
H1231 C1215 0.960 . S
C1232 C1233 1.391 . S
C1232 C1234 1.394 . S
C1232 H1248 0.931 . S
C1233 C1232 1.391 . S
C1233 C1237 1.376 . S
C1234 C1232 1.394 . S
C1234 C1235 1.369 . S
C1234 C1238 1.531 . S
C1235 C1234 1.369 . S
C1235 C1236 1.410 . S
C1235 C1243 1.503 . S
C1236 C1235 1.410 . S
C1236 C1237 1.392 . S
C1236 C1239 1.511 . S
C1237 C1233 1.376 . S
C1237 C1236 1.392 . S
C1237 H1249 0.929 . S
C1238 C1234 1.531 . S
C1238 H1250 0.960 . S
C1238 H1251 0.962 . S
C1238 H1252 0.960 . S
C1239 C1236 1.511 . S
C1239 H1253 0.961 . S
C1239 H1254 0.961 . S
C1239 H1255 0.961 . S
C1240 C1241 1.370 . S
C1240 C1242 1.363 . S
C1240 H1256 0.931 . S
C1241 C1240 1.370 . S
C1241 C1245 1.408 . S
C1242 C1240 1.363 . S
C1242 C1243 1.370 . S
C1242 C1246 1.524 . S
C1243 C1235 1.503 . S
C1243 C1242 1.370 . S
C1243 C1244 1.403 . S
C1244 C1243 1.403 . S
C1244 C1245 1.404 . S
C1244 C1247 1.539 . S
C1245 C1241 1.408 . S
C1245 C1244 1.404 . S
C1245 H1257 0.930 . S
C1246 C1242 1.524 . S
C1246 H1258 0.956 . S
C1246 H1259 0.961 . S
C1246 H1260 0.961 . S
C1247 C1244 1.539 . S
C1247 H1261 0.958 . S
C1247 H1262 0.961 . S
C1247 H1263 0.960 . S
H1248 C1232 0.931 . S
H1249 C1237 0.929 . S
H1250 C1238 0.960 . S
H1251 C1238 0.962 . S
H1252 C1238 0.960 . S
H1253 C1239 0.961 . S
H1254 C1239 0.961 . S
H1255 C1239 0.961 . S
H1256 C1240 0.931 . S
H1257 C1245 0.930 . S
H1258 C1246 0.956 . S
H1259 C1246 0.961 . S
H1260 C1246 0.961 . S
H1261 C1247 0.958 . S
H1262 C1247 0.961 . S
H1263 C1247 0.960 . S
C1264 C1265 1.391 . S
C1264 C1266 1.394 . S
C1264 H1280 0.931 . S
C1265 C1264 1.391 . S
C1265 C1269 1.376 . S
C1266 C1264 1.394 . S
C1266 C1267 1.369 . S
C1266 C1270 1.531 . S
C1267 C1266 1.369 . S
C1267 C1268 1.410 . S
C1267 C1275 1.503 . S
C1268 C1267 1.410 . S
C1268 C1269 1.392 . S
C1268 C1271 1.511 . S
C1269 C1265 1.376 . S
C1269 C1268 1.392 . S
C1269 H1281 0.929 . S
C1270 C1266 1.531 . S
C1270 H1282 0.960 . S
C1270 H1283 0.962 . S
C1270 H1284 0.960 . S
C1271 C1268 1.511 . S
C1271 H1285 0.961 . S
C1271 H1286 0.961 . S
C1271 H1287 0.961 . S
C1272 C1273 1.370 . S
C1272 C1274 1.363 . S
C1272 H1288 0.931 . S
C1273 C1272 1.370 . S
C1273 C1277 1.408 . S
C1274 C1272 1.363 . S
C1274 C1275 1.370 . S
C1274 C1278 1.524 . S
C1275 C1267 1.503 . S
C1275 C1274 1.370 . S
C1275 C1276 1.403 . S
C1276 C1275 1.403 . S
C1276 C1277 1.404 . S
C1276 C1279 1.539 . S
C1277 C1273 1.408 . S
C1277 C1276 1.404 . S
C1277 H1289 0.930 . S
C1278 C1274 1.524 . S
C1278 H1290 0.956 . S
C1278 H1291 0.961 . S
C1278 H1292 0.961 . S
C1279 C1276 1.539 . S
C1279 H1293 0.958 . S
C1279 H1294 0.961 . S
C1279 H1295 0.960 . S
H1280 C1264 0.931 . S
H1281 C1269 0.929 . S
H1282 C1270 0.960 . S
H1283 C1270 0.962 . S
H1284 C1270 0.960 . S
H1285 C1271 0.961 . S
H1286 C1271 0.961 . S
H1287 C1271 0.961 . S
H1288 C1272 0.931 . S
H1289 C1277 0.930 . S
H1290 C1278 0.956 . S
H1291 C1278 0.961 . S
H1292 C1278 0.961 . S
H1293 C1279 0.958 . S
H1294 C1279 0.961 . S
H1295 C1279 0.960 . S
C1296 C1297 1.391 . S
C1296 C1298 1.394 . S
C1296 H1312 0.931 . S
C1297 C1296 1.391 . S
C1297 C1301 1.376 . S
C1298 C1296 1.394 . S
C1298 C1299 1.369 . S
C1298 C1302 1.531 . S
C1299 C1298 1.369 . S
C1299 C1300 1.410 . S
C1299 C1307 1.503 . S
C1300 C1299 1.410 . S
C1300 C1301 1.392 . S
C1300 C1303 1.511 . S
C1301 C1297 1.376 . S
C1301 C1300 1.392 . S
C1301 H1313 0.929 . S
C1302 C1298 1.531 . S
C1302 H1314 0.960 . S
C1302 H1315 0.962 . S
C1302 H1316 0.960 . S
C1303 C1300 1.511 . S
C1303 H1317 0.961 . S
C1303 H1318 0.961 . S
C1303 H1319 0.961 . S
C1304 C1305 1.370 . S
C1304 C1306 1.363 . S
C1304 H1320 0.931 . S
C1305 C1304 1.370 . S
C1305 C1309 1.408 . S
C1306 C1304 1.363 . S
C1306 C1307 1.370 . S
C1306 C1310 1.524 . S
C1307 C1299 1.503 . S
C1307 C1306 1.370 . S
C1307 C1308 1.403 . S
C1308 C1307 1.403 . S
C1308 C1309 1.404 . S
C1308 C1311 1.539 . S
C1309 C1305 1.408 . S
C1309 C1308 1.404 . S
C1309 H1321 0.930 . S
C1310 C1306 1.524 . S
C1310 H1322 0.956 . S
C1310 H1323 0.961 . S
C1310 H1324 0.961 . S
C1311 C1308 1.539 . S
C1311 H1325 0.958 . S
C1311 H1326 0.961 . S
C1311 H1327 0.960 . S
H1312 C1296 0.931 . S
H1313 C1301 0.929 . S
H1314 C1302 0.960 . S
H1315 C1302 0.962 . S
H1316 C1302 0.960 . S
H1317 C1303 0.961 . S
H1318 C1303 0.961 . S
H1319 C1303 0.961 . S
H1320 C1304 0.931 . S
H1321 C1309 0.930 . S
H1322 C1310 0.956 . S
H1323 C1310 0.961 . S
H1324 C1310 0.961 . S
H1325 C1311 0.958 . S
H1326 C1311 0.961 . S
H1327 C1311 0.960 . S
C1328 C1329 1.391 . S
C1328 C1330 1.394 . S
C1328 H1344 0.931 . S
C1329 C1328 1.391 . S
C1329 C1333 1.376 . S
C1330 C1328 1.394 . S
C1330 C1331 1.369 . S
C1330 C1334 1.531 . S
C1331 C1330 1.369 . S
C1331 C1332 1.410 . S
C1331 C1339 1.503 . S
C1332 C1331 1.410 . S
C1332 C1333 1.392 . S
C1332 C1335 1.511 . S
C1333 C1329 1.376 . S
C1333 C1332 1.392 . S
C1333 H1345 0.929 . S
C1334 C1330 1.531 . S
C1334 H1346 0.960 . S
C1334 H1347 0.962 . S
C1334 H1348 0.960 . S
C1335 C1332 1.511 . S
C1335 H1349 0.961 . S
C1335 H1350 0.961 . S
C1335 H1351 0.961 . S
C1336 C1337 1.370 . S
C1336 C1338 1.363 . S
C1336 H1352 0.931 . S
C1337 C1336 1.370 . S
C1337 C1341 1.408 . S
C1338 C1336 1.363 . S
C1338 C1339 1.370 . S
C1338 C1342 1.524 . S
C1339 C1331 1.503 . S
C1339 C1338 1.370 . S
C1339 C1340 1.403 . S
C1340 C1339 1.403 . S
C1340 C1341 1.404 . S
C1340 C1343 1.539 . S
C1341 C1337 1.408 . S
C1341 C1340 1.404 . S
C1341 H1353 0.930 . S
C1342 C1338 1.524 . S
C1342 H1354 0.956 . S
C1342 H1355 0.961 . S
C1342 H1356 0.961 . S
C1343 C1340 1.539 . S
C1343 H1357 0.958 . S
C1343 H1358 0.961 . S
C1343 H1359 0.960 . S
H1344 C1328 0.931 . S
H1345 C1333 0.929 . S
H1346 C1334 0.960 . S
H1347 C1334 0.962 . S
H1348 C1334 0.960 . S
H1349 C1335 0.961 . S
H1350 C1335 0.961 . S
H1351 C1335 0.961 . S
H1352 C1336 0.931 . S
H1353 C1341 0.930 . S
H1354 C1342 0.956 . S
H1355 C1342 0.961 . S
H1356 C1342 0.961 . S
H1357 C1343 0.958 . S
H1358 C1343 0.961 . S
H1359 C1343 0.960 . S
C1360 C1361 1.391 . S
C1360 C1362 1.394 . S
C1360 H1376 0.931 . S
C1361 C1360 1.391 . S
C1361 C1365 1.376 . S
C1362 C1360 1.394 . S
C1362 C1363 1.369 . S
C1362 C1366 1.531 . S
C1363 C1362 1.369 . S
C1363 C1364 1.410 . S
C1363 C1371 1.503 . S
C1364 C1363 1.410 . S
C1364 C1365 1.392 . S
C1364 C1367 1.511 . S
C1365 C1361 1.376 . S
C1365 C1364 1.392 . S
C1365 H1377 0.929 . S
C1366 C1362 1.531 . S
C1366 H1378 0.960 . S
C1366 H1379 0.962 . S
C1366 H1380 0.960 . S
C1367 C1364 1.511 . S
C1367 H1381 0.961 . S
C1367 H1382 0.961 . S
C1367 H1383 0.961 . S
C1368 C1369 1.370 . S
C1368 C1370 1.363 . S
C1368 H1384 0.931 . S
C1369 C1368 1.370 . S
C1369 C1373 1.408 . S
C1370 C1368 1.363 . S
C1370 C1371 1.370 . S
C1370 C1374 1.524 . S
C1371 C1363 1.503 . S
C1371 C1370 1.370 . S
C1371 C1372 1.403 . S
C1372 C1371 1.403 . S
C1372 C1373 1.404 . S
C1372 C1375 1.539 . S
C1373 C1369 1.408 . S
C1373 C1372 1.404 . S
C1373 H1385 0.930 . S
C1374 C1370 1.524 . S
C1374 H1386 0.956 . S
C1374 H1387 0.961 . S
C1374 H1388 0.961 . S
C1375 C1372 1.539 . S
C1375 H1389 0.958 . S
C1375 H1390 0.961 . S
C1375 H1391 0.960 . S
H1376 C1360 0.931 . S
H1377 C1365 0.929 . S
H1378 C1366 0.960 . S
H1379 C1366 0.962 . S
H1380 C1366 0.960 . S
H1381 C1367 0.961 . S
H1382 C1367 0.961 . S
H1383 C1367 0.961 . S
H1384 C1368 0.931 . S
H1385 C1373 0.930 . S
H1386 C1374 0.956 . S
H1387 C1374 0.961 . S
H1388 C1374 0.961 . S
H1389 C1375 0.958 . S
H1390 C1375 0.961 . S
H1391 C1375 0.960 . S
C1392 C1393 1.391 . S
C1392 C1394 1.394 . S
C1392 H1408 0.931 . S
C1393 C1392 1.391 . S
C1393 C1397 1.376 . S
C1394 C1392 1.394 . S
C1394 C1395 1.369 . S
C1394 C1398 1.531 . S
C1395 C1394 1.369 . S
C1395 C1396 1.410 . S
C1395 C1403 1.503 . S
C1396 C1395 1.410 . S
C1396 C1397 1.392 . S
C1396 C1399 1.511 . S
C1397 C1393 1.376 . S
C1397 C1396 1.392 . S
C1397 H1409 0.929 . S
C1398 C1394 1.531 . S
C1398 H1410 0.960 . S
C1398 H1411 0.962 . S
C1398 H1412 0.960 . S
C1399 C1396 1.511 . S
C1399 H1413 0.961 . S
C1399 H1414 0.961 . S
C1399 H1415 0.961 . S
C1400 C1401 1.370 . S
C1400 C1402 1.363 . S
C1400 H1416 0.931 . S
C1401 C1400 1.370 . S
C1401 C1405 1.408 . S
C1402 C1400 1.363 . S
C1402 C1403 1.370 . S
C1402 C1406 1.524 . S
C1403 C1395 1.503 . S
C1403 C1402 1.370 . S
C1403 C1404 1.403 . S
C1404 C1403 1.403 . S
C1404 C1405 1.404 . S
C1404 C1407 1.539 . S
C1405 C1401 1.408 . S
C1405 C1404 1.404 . S
C1405 H1417 0.930 . S
C1406 C1402 1.524 . S
C1406 H1418 0.956 . S
C1406 H1419 0.961 . S
C1406 H1420 0.961 . S
C1407 C1404 1.539 . S
C1407 H1421 0.958 . S
C1407 H1422 0.961 . S
C1407 H1423 0.960 . S
H1408 C1392 0.931 . S
H1409 C1397 0.929 . S
H1410 C1398 0.960 . S
H1411 C1398 0.962 . S
H1412 C1398 0.960 . S
H1413 C1399 0.961 . S
H1414 C1399 0.961 . S
H1415 C1399 0.961 . S
H1416 C1400 0.931 . S
H1417 C1405 0.930 . S
H1418 C1406 0.956 . S
H1419 C1406 0.961 . S
H1420 C1406 0.961 . S
H1421 C1407 0.958 . S
H1422 C1407 0.961 . S
H1423 C1407 0.960 . S
C1424 C1425 1.391 . S
C1424 C1426 1.394 . S
C1424 H1440 0.931 . S
C1425 C1424 1.391 . S
C1425 C1429 1.376 . S
C1426 C1424 1.394 . S
C1426 C1427 1.369 . S
C1426 C1430 1.531 . S
C1427 C1426 1.369 . S
C1427 C1428 1.410 . S
C1427 C1435 1.503 . S
C1428 C1427 1.410 . S
C1428 C1429 1.392 . S
C1428 C1431 1.511 . S
C1429 C1425 1.376 . S
C1429 C1428 1.392 . S
C1429 H1441 0.929 . S
C1430 C1426 1.531 . S
C1430 H1442 0.960 . S
C1430 H1443 0.962 . S
C1430 H1444 0.960 . S
C1431 C1428 1.511 . S
C1431 H1445 0.961 . S
C1431 H1446 0.961 . S
C1431 H1447 0.961 . S
C1432 C1433 1.370 . S
C1432 C1434 1.363 . S
C1432 H1448 0.931 . S
C1433 C1432 1.370 . S
C1433 C1437 1.408 . S
C1434 C1432 1.363 . S
C1434 C1435 1.370 . S
C1434 C1438 1.524 . S
C1435 C1427 1.503 . S
C1435 C1434 1.370 . S
C1435 C1436 1.403 . S
C1436 C1435 1.403 . S
C1436 C1437 1.404 . S
C1436 C1439 1.539 . S
C1437 C1433 1.408 . S
C1437 C1436 1.404 . S
C1437 H1449 0.930 . S
C1438 C1434 1.524 . S
C1438 H1450 0.956 . S
C1438 H1451 0.961 . S
C1438 H1452 0.961 . S
C1439 C1436 1.539 . S
C1439 H1453 0.958 . S
C1439 H1454 0.961 . S
C1439 H1455 0.960 . S
H1440 C1424 0.931 . S
H1441 C1429 0.929 . S
H1442 C1430 0.960 . S
H1443 C1430 0.962 . S
H1444 C1430 0.960 . S
H1445 C1431 0.961 . S
H1446 C1431 0.961 . S
H1447 C1431 0.961 . S
H1448 C1432 0.931 . S
H1449 C1437 0.930 . S
H1450 C1438 0.956 . S
H1451 C1438 0.961 . S
H1452 C1438 0.961 . S
H1453 C1439 0.958 . S
H1454 C1439 0.961 . S
H1455 C1439 0.960 . S
C1456 C1457 1.391 . S
C1456 C1458 1.394 . S
C1456 H1472 0.931 . S
C1457 C1456 1.391 . S
C1457 C1461 1.376 . S
C1458 C1456 1.394 . S
C1458 C1459 1.369 . S
C1458 C1462 1.531 . S
C1459 C1458 1.369 . S
C1459 C1460 1.410 . S
C1459 C1467 1.503 1_556 S
C1460 C1459 1.410 . S
C1460 C1461 1.392 . S
C1460 C1463 1.511 . S
C1461 C1457 1.376 . S
C1461 C1460 1.392 . S
C1461 H1473 0.929 . S
C1462 C1458 1.531 . S
C1462 H1474 0.960 1_556 S
C1462 H1475 0.962 . S
C1462 H1476 0.960 . S
C1463 C1460 1.511 . S
C1463 H1477 0.961 . S
C1463 H1478 0.961 1_556 S
C1463 H1479 0.961 . S
C1464 C1465 1.370 . S
C1464 C1466 1.363 . S
C1464 H1480 0.931 . S
C1465 C1464 1.370 . S
C1465 C1469 1.408 . S
C1466 C1464 1.363 . S
C1466 C1467 1.370 . S
C1466 C1470 1.524 . S
C1467 C1459 1.503 1_554 S
C1467 C1466 1.370 . S
C1467 C1468 1.403 . S
C1468 C1467 1.403 . S
C1468 C1469 1.404 . S
C1468 C1471 1.539 . S
C1469 C1465 1.408 . S
C1469 C1468 1.404 . S
C1469 H1481 0.930 . S
C1470 C1466 1.524 . S
C1470 H1482 0.984 . S
C1470 H1483 0.961 1_554 S
C1470 H1484 0.961 . S
C1471 C1468 1.539 . S
C1471 H1485 0.958 . S
C1471 H1486 0.961 . S
C1471 H1487 0.970 . S
H1472 C1456 0.931 . S
H1473 C1461 0.929 . S
H1474 C1462 0.960 1_554 S
H1475 C1462 0.962 . S
H1476 C1462 0.960 . S
H1477 C1463 0.961 . S
H1478 C1463 0.961 1_554 S
H1479 C1463 0.961 . S
H1480 C1464 0.931 . S
H1481 C1469 0.930 . S
H1482 C1470 0.984 . S
H1483 C1470 0.961 1_556 S
H1484 C1470 0.961 . S
H1485 C1471 0.958 . S
H1486 C1471 0.961 . S
H1487 C1471 0.970 . S
C1488 C1489 1.391 . S
C1488 C1490 1.394 . S
C1488 H1504 0.931 . S
C1489 C1488 1.391 . S
C1489 C1493 1.376 . S
C1490 C1488 1.394 . S
C1490 C1491 1.369 . S
C1490 C1494 1.531 . S
C1491 C1490 1.369 . S
C1491 C1492 1.410 . S
C1491 C1499 1.503 . S
C1492 C1491 1.410 . S
C1492 C1493 1.392 . S
C1492 C1495 1.511 . S
C1493 C1489 1.376 . S
C1493 C1492 1.392 . S
C1493 H1505 0.929 . S
C1494 C1490 1.531 . S
C1494 H1506 0.960 . S
C1494 H1507 0.962 . S
C1494 H1508 0.960 . S
C1495 C1492 1.511 . S
C1495 H1509 0.961 . S
C1495 H1510 0.961 . S
C1495 H1511 0.961 . S
C1496 C1497 1.370 . S
C1496 C1498 1.363 . S
C1496 H1512 0.931 . S
C1497 C1496 1.370 . S
C1497 C1501 1.408 . S
C1498 C1496 1.363 . S
C1498 C1499 1.370 . S
C1498 C1502 1.524 . S
C1499 C1491 1.503 . S
C1499 C1498 1.370 . S
C1499 C1500 1.403 . S
C1500 C1499 1.403 . S
C1500 C1501 1.404 . S
C1500 C1503 1.539 . S
C1501 C1497 1.408 . S
C1501 C1500 1.404 . S
C1501 H1513 0.930 . S
C1502 C1498 1.524 . S
C1502 H1514 0.956 . S
C1502 H1515 0.961 . S
C1502 H1516 0.961 . S
C1503 C1500 1.539 . S
C1503 H1517 0.958 . S
C1503 H1518 0.961 . S
C1503 H1519 0.960 . S
H1504 C1488 0.931 . S
H1505 C1493 0.929 . S
H1506 C1494 0.960 . S
H1507 C1494 0.962 . S
H1508 C1494 0.960 . S
H1509 C1495 0.961 . S
H1510 C1495 0.961 . S
H1511 C1495 0.961 . S
H1512 C1496 0.931 . S
H1513 C1501 0.930 . S
H1514 C1502 0.956 . S
H1515 C1502 0.961 . S
H1516 C1502 0.961 . S
H1517 C1503 0.958 . S
H1518 C1503 0.961 . S
H1519 C1503 0.960 . S
C1520 C1521 1.391 . S
C1520 C1522 1.394 . S
C1520 H1536 0.931 . S
C1521 C1520 1.391 . S
C1521 C1525 1.376 . S
C1522 C1520 1.394 . S
C1522 C1523 1.369 . S
C1522 C1526 1.531 . S
C1523 C1522 1.369 . S
C1523 C1524 1.410 . S
C1523 C1531 1.503 1_554 S
C1524 C1523 1.410 . S
C1524 C1525 1.392 . S
C1524 C1527 1.511 . S
C1525 C1521 1.376 . S
C1525 C1524 1.392 . S
C1525 H1537 0.929 . S
C1526 C1522 1.531 . S
C1526 H1538 0.960 1_554 S
C1526 H1539 0.962 . S
C1526 H1540 0.960 . S
C1527 C1524 1.511 . S
C1527 H1541 0.961 . S
C1527 H1542 0.961 1_554 S
C1527 H1543 0.961 . S
C1528 C1529 1.370 . S
C1528 C1530 1.363 . S
C1528 H1544 0.931 . S
C1529 C1528 1.370 . S
C1529 C1533 1.408 . S
C1530 C1528 1.363 . S
C1530 C1531 1.370 . S
C1530 C1534 1.524 . S
C1531 C1523 1.503 1_556 S
C1531 C1530 1.370 . S
C1531 C1532 1.403 . S
C1532 C1531 1.403 . S
C1532 C1533 1.404 . S
C1532 C1535 1.539 . S
C1533 C1529 1.408 . S
C1533 C1532 1.404 . S
C1533 H1545 0.930 . S
C1534 C1530 1.524 . S
C1534 H1546 0.984 . S
C1534 H1547 0.961 1_556 S
C1534 H1548 0.961 . S
C1535 C1532 1.539 . S
C1535 H1549 0.958 . S
C1535 H1550 0.961 . S
C1535 H1551 0.970 . S
H1536 C1520 0.931 . S
H1537 C1525 0.929 . S
H1538 C1526 0.960 1_556 S
H1539 C1526 0.962 . S
H1540 C1526 0.960 . S
H1541 C1527 0.961 . S
H1542 C1527 0.961 1_556 S
H1543 C1527 0.961 . S
H1544 C1528 0.931 . S
H1545 C1533 0.930 . S
H1546 C1534 0.984 . S
H1547 C1534 0.961 1_554 S
H1548 C1534 0.961 . S
H1549 C1535 0.958 . S
H1550 C1535 0.961 . S
H1551 C1535 0.970 . S
C1552 C1553 1.391 . S
C1552 C1554 1.394 . S
C1552 H1568 0.931 . S
C1553 C1552 1.391 . S
C1553 C1557 1.376 . S
C1554 C1552 1.394 . S
C1554 C1555 1.369 . S
C1554 C1558 1.531 . S
C1555 C1554 1.369 . S
C1555 C1556 1.410 . S
C1555 C1563 1.503 . S
C1556 C1555 1.410 . S
C1556 C1557 1.392 . S
C1556 C1559 1.511 . S
C1557 C1553 1.376 . S
C1557 C1556 1.392 . S
C1557 H1569 0.929 . S
C1558 C1554 1.531 . S
C1558 H1570 0.960 . S
C1558 H1571 0.962 . S
C1558 H1572 0.960 . S
C1559 C1556 1.511 . S
C1559 H1573 0.961 . S
C1559 H1574 0.961 . S
C1559 H1575 0.961 . S
C1560 C1561 1.370 . S
C1560 C1562 1.363 . S
C1560 H1576 0.931 . S
C1561 C1560 1.370 . S
C1561 C1565 1.408 . S
C1562 C1560 1.363 . S
C1562 C1563 1.370 . S
C1562 C1566 1.524 . S
C1563 C1555 1.503 . S
C1563 C1562 1.370 . S
C1563 C1564 1.403 . S
C1564 C1563 1.403 . S
C1564 C1565 1.404 . S
C1564 C1567 1.539 . S
C1565 C1561 1.408 . S
C1565 C1564 1.404 . S
C1565 H1577 0.930 . S
C1566 C1562 1.524 . S
C1566 H1578 0.956 . S
C1566 H1579 0.961 . S
C1566 H1580 0.961 . S
C1567 C1564 1.539 . S
C1567 H1581 0.958 . S
C1567 H1582 0.961 . S
C1567 H1583 0.960 . S
H1568 C1552 0.931 . S
H1569 C1557 0.929 . S
H1570 C1558 0.960 . S
H1571 C1558 0.962 . S
H1572 C1558 0.960 . S
H1573 C1559 0.961 . S
H1574 C1559 0.961 . S
H1575 C1559 0.961 . S
H1576 C1560 0.931 . S
H1577 C1565 0.930 . S
H1578 C1566 0.956 . S
H1579 C1566 0.961 . S
H1580 C1566 0.961 . S
H1581 C1567 0.958 . S
H1582 C1567 0.961 . S
H1583 C1567 0.960 . S
C1584 C1585 1.391 . S
C1584 C1586 1.394 . S
C1584 H1600 0.931 . S
C1585 C1584 1.391 . S
C1585 C1589 1.376 . S
C1586 C1584 1.394 . S
C1586 C1587 1.369 . S
C1586 C1590 1.531 . S
C1587 C1586 1.369 . S
C1587 C1588 1.410 . S
C1587 C1595 1.503 . S
C1588 C1587 1.410 . S
C1588 C1589 1.392 . S
C1588 C1591 1.511 . S
C1589 C1585 1.376 . S
C1589 C1588 1.392 . S
C1589 H1601 0.929 . S
C1590 C1586 1.531 . S
C1590 H1602 0.960 . S
C1590 H1603 0.962 . S
C1590 H1604 0.960 . S
C1591 C1588 1.511 . S
C1591 H1605 0.961 . S
C1591 H1606 0.961 . S
C1591 H1607 0.961 . S
C1592 C1593 1.370 . S
C1592 C1594 1.363 . S
C1592 H1608 0.931 . S
C1593 C1592 1.370 . S
C1593 C1597 1.408 . S
C1594 C1592 1.363 . S
C1594 C1595 1.370 . S
C1594 C1598 1.524 . S
C1595 C1587 1.503 . S
C1595 C1594 1.370 . S
C1595 C1596 1.403 . S
C1596 C1595 1.403 . S
C1596 C1597 1.404 . S
C1596 C1599 1.539 . S
C1597 C1593 1.408 . S
C1597 C1596 1.404 . S
C1597 H1609 0.930 . S
C1598 C1594 1.524 . S
C1598 H1610 0.956 . S
C1598 H1611 0.961 . S
C1598 H1612 0.961 . S
C1599 C1596 1.539 . S
C1599 H1613 0.958 . S
C1599 H1614 0.961 . S
C1599 H1615 0.960 . S
H1600 C1584 0.931 . S
H1601 C1589 0.929 . S
H1602 C1590 0.960 . S
H1603 C1590 0.962 . S
H1604 C1590 0.960 . S
H1605 C1591 0.961 . S
H1606 C1591 0.961 . S
H1607 C1591 0.961 . S
H1608 C1592 0.931 . S
H1609 C1597 0.930 . S
H1610 C1598 0.956 . S
H1611 C1598 0.961 . S
H1612 C1598 0.961 . S
H1613 C1599 0.958 . S
H1614 C1599 0.961 . S
H1615 C1599 0.960 . S
C1616 C1617 1.391 . S
C1616 C1618 1.394 . S
C1616 H1632 0.931 . S
C1617 C1616 1.391 . S
C1617 C1621 1.376 . S
C1618 C1616 1.394 . S
C1618 C1619 1.369 . S
C1618 C1622 1.531 . S
C1619 C1618 1.369 . S
C1619 C1620 1.410 . S
C1619 C1627 1.503 1_556 S
C1620 C1619 1.410 . S
C1620 C1621 1.392 . S
C1620 C1623 1.511 . S
C1621 C1617 1.376 . S
C1621 C1620 1.392 . S
C1621 H1633 0.929 . S
C1622 C1618 1.531 . S
C1622 H1634 0.960 1_556 S
C1622 H1635 0.962 . S
C1622 H1636 0.960 . S
C1623 C1620 1.511 . S
C1623 H1637 0.961 . S
C1623 H1638 0.961 1_556 S
C1623 H1639 0.961 . S
C1624 C1625 1.370 . S
C1624 C1626 1.363 . S
C1624 H1640 0.931 . S
C1625 C1624 1.370 . S
C1625 C1629 1.408 . S
C1626 C1624 1.363 . S
C1626 C1627 1.370 . S
C1626 C1630 1.524 . S
C1627 C1619 1.503 1_554 S
C1627 C1626 1.370 . S
C1627 C1628 1.403 . S
C1628 C1627 1.403 . S
C1628 C1629 1.404 . S
C1628 C1631 1.539 . S
C1629 C1625 1.408 . S
C1629 C1628 1.404 . S
C1629 H1641 0.930 . S
C1630 C1626 1.524 . S
C1630 H1642 0.984 . S
C1630 H1643 0.961 1_554 S
C1630 H1644 0.961 . S
C1631 C1628 1.539 . S
C1631 H1645 0.958 . S
C1631 H1646 0.961 . S
C1631 H1647 0.970 . S
H1632 C1616 0.931 . S
H1633 C1621 0.929 . S
H1634 C1622 0.960 1_554 S
H1635 C1622 0.962 . S
H1636 C1622 0.960 . S
H1637 C1623 0.961 . S
H1638 C1623 0.961 1_554 S
H1639 C1623 0.961 . S
H1640 C1624 0.931 . S
H1641 C1629 0.930 . S
H1642 C1630 0.984 . S
H1643 C1630 0.961 1_556 S
H1644 C1630 0.961 . S
H1645 C1631 0.958 . S
H1646 C1631 0.961 . S
H1647 C1631 0.970 . S
C1648 C1649 1.391 . S
C1648 C1650 1.394 . S
C1648 H1664 0.931 . S
C1649 C1648 1.391 . S
C1649 C1653 1.376 . S
C1650 C1648 1.394 . S
C1650 C1651 1.369 . S
C1650 C1654 1.531 . S
C1651 C1650 1.369 . S
C1651 C1652 1.410 . S
C1651 C1659 1.503 . S
C1652 C1651 1.410 . S
C1652 C1653 1.392 . S
C1652 C1655 1.511 . S
C1653 C1649 1.376 . S
C1653 C1652 1.392 . S
C1653 H1665 0.929 . S
C1654 C1650 1.531 . S
C1654 H1666 0.960 . S
C1654 H1667 0.962 . S
C1654 H1668 0.960 . S
C1655 C1652 1.511 . S
C1655 H1669 0.961 . S
C1655 H1670 0.961 . S
C1655 H1671 0.961 . S
C1656 C1657 1.370 . S
C1656 C1658 1.363 . S
C1656 H1672 0.931 . S
C1657 C1656 1.370 . S
C1657 C1661 1.408 . S
C1658 C1656 1.363 . S
C1658 C1659 1.370 . S
C1658 C1662 1.524 . S
C1659 C1651 1.503 . S
C1659 C1658 1.370 . S
C1659 C1660 1.403 . S
C1660 C1659 1.403 . S
C1660 C1661 1.404 . S
C1660 C1663 1.539 . S
C1661 C1657 1.408 . S
C1661 C1660 1.404 . S
C1661 H1673 0.930 . S
C1662 C1658 1.524 . S
C1662 H1674 0.956 . S
C1662 H1675 0.961 . S
C1662 H1676 0.961 . S
C1663 C1660 1.539 . S
C1663 H1677 0.958 . S
C1663 H1678 0.961 . S
C1663 H1679 0.960 . S
H1664 C1648 0.931 . S
H1665 C1653 0.929 . S
H1666 C1654 0.960 . S
H1667 C1654 0.962 . S
H1668 C1654 0.960 . S
H1669 C1655 0.961 . S
H1670 C1655 0.961 . S
H1671 C1655 0.961 . S
H1672 C1656 0.931 . S
H1673 C1661 0.930 . S
H1674 C1662 0.956 . S
H1675 C1662 0.961 . S
H1676 C1662 0.961 . S
H1677 C1663 0.958 . S
H1678 C1663 0.961 . S
H1679 C1663 0.960 . S
C1680 C1681 1.391 . S
C1680 C1682 1.394 . S
C1680 H1696 0.931 . S
C1681 C1680 1.391 . S
C1681 C1685 1.376 . S
C1682 C1680 1.394 . S
C1682 C1683 1.369 . S
C1682 C1686 1.531 . S
C1683 C1682 1.369 . S
C1683 C1684 1.410 . S
C1683 C1691 1.503 1_554 S
C1684 C1683 1.410 . S
C1684 C1685 1.392 . S
C1684 C1687 1.511 . S
C1685 C1681 1.376 . S
C1685 C1684 1.392 . S
C1685 H1697 0.929 . S
C1686 C1682 1.531 . S
C1686 H1698 0.960 1_554 S
C1686 H1699 0.962 . S
C1686 H1700 0.960 . S
C1687 C1684 1.511 . S
C1687 H1701 0.961 . S
C1687 H1702 0.961 1_554 S
C1687 H1703 0.961 . S
C1688 C1689 1.370 . S
C1688 C1690 1.363 . S
C1688 H1704 0.931 . S
C1689 C1688 1.370 . S
C1689 C1693 1.408 . S
C1690 C1688 1.363 . S
C1690 C1691 1.370 . S
C1690 C1694 1.524 . S
C1691 C1683 1.503 1_556 S
C1691 C1690 1.370 . S
C1691 C1692 1.403 . S
C1692 C1691 1.403 . S
C1692 C1693 1.404 . S
C1692 C1695 1.539 . S
C1693 C1689 1.408 . S
C1693 C1692 1.404 . S
C1693 H1705 0.930 . S
C1694 C1690 1.524 . S
C1694 H1706 0.984 . S
C1694 H1707 0.961 1_556 S
C1694 H1708 0.961 . S
C1695 C1692 1.539 . S
C1695 H1709 0.958 . S
C1695 H1710 0.961 . S
C1695 H1711 0.970 . S
H1696 C1680 0.931 . S
H1697 C1685 0.929 . S
H1698 C1686 0.960 1_556 S
H1699 C1686 0.962 . S
H1700 C1686 0.960 . S
H1701 C1687 0.961 . S
H1702 C1687 0.961 1_556 S
H1703 C1687 0.961 . S
H1704 C1688 0.931 . S
H1705 C1693 0.930 . S
H1706 C1694 0.984 . S
H1707 C1694 0.961 1_554 S
H1708 C1694 0.961 . S
H1709 C1695 0.958 . S
H1710 C1695 0.961 . S
H1711 C1695 0.970 . S
C1712 C1713 1.391 . S
C1712 C1714 1.394 . S
C1712 H1728 0.931 . S
C1713 C1712 1.391 . S
C1713 C1717 1.376 . S
C1714 C1712 1.394 . S
C1714 C1715 1.369 . S
C1714 C1718 1.531 . S
C1715 C1714 1.369 . S
C1715 C1716 1.410 . S
C1715 C1723 1.503 . S
C1716 C1715 1.410 . S
C1716 C1717 1.392 . S
C1716 C1719 1.511 . S
C1717 C1713 1.376 . S
C1717 C1716 1.392 . S
C1717 H1729 0.929 . S
C1718 C1714 1.531 . S
C1718 H1730 0.960 . S
C1718 H1731 0.962 . S
C1718 H1732 0.960 . S
C1719 C1716 1.511 . S
C1719 H1733 0.961 . S
C1719 H1734 0.961 . S
C1719 H1735 0.961 . S
C1720 C1721 1.370 . S
C1720 C1722 1.363 . S
C1720 H1736 0.931 . S
C1721 C1720 1.370 . S
C1721 C1725 1.408 . S
C1722 C1720 1.363 . S
C1722 C1723 1.370 . S
C1722 C1726 1.524 . S
C1723 C1715 1.503 . S
C1723 C1722 1.370 . S
C1723 C1724 1.403 . S
C1724 C1723 1.403 . S
C1724 C1725 1.404 . S
C1724 C1727 1.539 . S
C1725 C1721 1.408 . S
C1725 C1724 1.404 . S
C1725 H1737 0.930 . S
C1726 C1722 1.524 . S
C1726 H1738 0.956 . S
C1726 H1739 0.961 . S
C1726 H1740 0.961 . S
C1727 C1724 1.539 . S
C1727 H1741 0.958 . S
C1727 H1742 0.961 . S
C1727 H1743 0.960 . S
H1728 C1712 0.931 . S
H1729 C1717 0.929 . S
H1730 C1718 0.960 . S
H1731 C1718 0.962 . S
H1732 C1718 0.960 . S
H1733 C1719 0.961 . S
H1734 C1719 0.961 . S
H1735 C1719 0.961 . S
H1736 C1720 0.931 . S
H1737 C1725 0.930 . S
H1738 C1726 0.956 . S
H1739 C1726 0.961 . S
H1740 C1726 0.961 . S
H1741 C1727 0.958 . S
H1742 C1727 0.961 . S
H1743 C1727 0.960 . S
C1744 C1745 1.391 . S
C1744 C1746 1.394 . S
C1744 H1760 0.931 . S
C1745 C1744 1.391 . S
C1745 C1749 1.376 . S
C1746 C1744 1.394 . S
C1746 C1747 1.369 . S
C1746 C1750 1.531 . S
C1747 C1746 1.369 . S
C1747 C1748 1.410 . S
C1747 C1755 1.503 . S
C1748 C1747 1.410 . S
C1748 C1749 1.392 . S
C1748 C1751 1.511 . S
C1749 C1745 1.376 . S
C1749 C1748 1.392 . S
C1749 H1761 0.929 . S
C1750 C1746 1.531 . S
C1750 H1762 0.960 . S
C1750 H1763 0.962 . S
C1750 H1764 0.960 . S
C1751 C1748 1.511 . S
C1751 H1765 0.961 . S
C1751 H1766 0.961 . S
C1751 H1767 0.961 . S
C1752 C1753 1.370 . S
C1752 C1754 1.363 . S
C1752 H1768 0.931 . S
C1753 C1752 1.370 . S
C1753 C1757 1.408 . S
C1754 C1752 1.363 . S
C1754 C1755 1.370 . S
C1754 C1758 1.524 . S
C1755 C1747 1.503 . S
C1755 C1754 1.370 . S
C1755 C1756 1.403 . S
C1756 C1755 1.403 . S
C1756 C1757 1.404 . S
C1756 C1759 1.539 . S
C1757 C1753 1.408 . S
C1757 C1756 1.404 . S
C1757 H1769 0.930 . S
C1758 C1754 1.524 . S
C1758 H1770 0.956 . S
C1758 H1771 0.961 . S
C1758 H1772 0.961 . S
C1759 C1756 1.539 . S
C1759 H1773 0.958 . S
C1759 H1774 0.961 . S
C1759 H1775 0.960 . S
H1760 C1744 0.931 . S
H1761 C1749 0.929 . S
H1762 C1750 0.960 . S
H1763 C1750 0.962 . S
H1764 C1750 0.960 . S
H1765 C1751 0.961 . S
H1766 C1751 0.961 . S
H1767 C1751 0.961 . S
H1768 C1752 0.931 . S
H1769 C1757 0.930 . S
H1770 C1758 0.956 . S
H1771 C1758 0.961 . S
H1772 C1758 0.961 . S
H1773 C1759 0.958 . S
H1774 C1759 0.961 . S
H1775 C1759 0.960 . S
C1776 C1777 1.391 . S
C1776 C1778 1.394 . S
C1776 H1792 0.931 . S
C1777 C1776 1.391 . S
C1777 C1781 1.376 . S
C1778 C1776 1.394 . S
C1778 C1779 1.369 . S
C1778 C1782 1.531 . S
C1779 C1778 1.369 . S
C1779 C1780 1.410 . S
C1779 C1787 1.503 . S
C1780 C1779 1.410 . S
C1780 C1781 1.392 . S
C1780 C1783 1.511 . S
C1781 C1777 1.376 . S
C1781 C1780 1.392 . S
C1781 H1793 0.929 . S
C1782 C1778 1.531 . S
C1782 H1794 0.960 . S
C1782 H1795 0.962 . S
C1782 H1796 0.960 . S
C1783 C1780 1.511 . S
C1783 H1797 0.961 . S
C1783 H1798 0.961 . S
C1783 H1799 0.961 . S
C1784 C1785 1.370 . S
C1784 C1786 1.363 . S
C1784 H1800 0.931 . S
C1785 C1784 1.370 . S
C1785 C1789 1.408 . S
C1786 C1784 1.363 . S
C1786 C1787 1.370 . S
C1786 C1790 1.524 . S
C1787 C1779 1.503 . S
C1787 C1786 1.370 . S
C1787 C1788 1.403 . S
C1788 C1787 1.403 . S
C1788 C1789 1.404 . S
C1788 C1791 1.539 . S
C1789 C1785 1.408 . S
C1789 C1788 1.404 . S
C1789 H1801 0.930 . S
C1790 C1786 1.524 . S
C1790 H1802 0.956 . S
C1790 H1803 0.961 . S
C1790 H1804 0.961 . S
C1791 C1788 1.539 . S
C1791 H1805 0.958 . S
C1791 H1806 0.961 . S
C1791 H1807 0.960 . S
H1792 C1776 0.931 . S
H1793 C1781 0.929 . S
H1794 C1782 0.960 . S
H1795 C1782 0.962 . S
H1796 C1782 0.960 . S
H1797 C1783 0.961 . S
H1798 C1783 0.961 . S
H1799 C1783 0.961 . S
H1800 C1784 0.931 . S
H1801 C1789 0.930 . S
H1802 C1790 0.956 . S
H1803 C1790 0.961 . S
H1804 C1790 0.961 . S
H1805 C1791 0.958 . S
H1806 C1791 0.961 . S
H1807 C1791 0.960 . S
C1808 C1809 1.391 . S
C1808 C1810 1.394 . S
C1808 H1824 0.931 . S
C1809 C1808 1.391 . S
C1809 C1813 1.376 . S
C1810 C1808 1.394 . S
C1810 C1811 1.369 . S
C1810 C1814 1.531 . S
C1811 C1810 1.369 . S
C1811 C1812 1.410 . S
C1811 C1819 1.503 . S
C1812 C1811 1.410 . S
C1812 C1813 1.392 . S
C1812 C1815 1.511 . S
C1813 C1809 1.376 . S
C1813 C1812 1.392 . S
C1813 H1825 0.929 . S
C1814 C1810 1.531 . S
C1814 H1826 0.960 . S
C1814 H1827 0.962 . S
C1814 H1828 0.960 . S
C1815 C1812 1.511 . S
C1815 H1829 0.961 . S
C1815 H1830 0.961 . S
C1815 H1831 0.961 . S
C1816 C1817 1.370 . S
C1816 C1818 1.363 . S
C1816 H1832 0.931 . S
C1817 C1816 1.370 . S
C1817 C1821 1.408 . S
C1818 C1816 1.363 . S
C1818 C1819 1.370 . S
C1818 C1822 1.524 . S
C1819 C1811 1.503 . S
C1819 C1818 1.370 . S
C1819 C1820 1.403 . S
C1820 C1819 1.403 . S
C1820 C1821 1.404 . S
C1820 C1823 1.539 . S
C1821 C1817 1.408 . S
C1821 C1820 1.404 . S
C1821 H1833 0.930 . S
C1822 C1818 1.524 . S
C1822 H1834 0.956 . S
C1822 H1835 0.961 . S
C1822 H1836 0.961 . S
C1823 C1820 1.539 . S
C1823 H1837 0.958 . S
C1823 H1838 0.961 . S
C1823 H1839 0.960 . S
H1824 C1808 0.931 . S
H1825 C1813 0.929 . S
H1826 C1814 0.960 . S
H1827 C1814 0.962 . S
H1828 C1814 0.960 . S
H1829 C1815 0.961 . S
H1830 C1815 0.961 . S
H1831 C1815 0.961 . S
H1832 C1816 0.931 . S
H1833 C1821 0.930 . S
H1834 C1822 0.956 . S
H1835 C1822 0.961 . S
H1836 C1822 0.961 . S
H1837 C1823 0.958 . S
H1838 C1823 0.961 . S
H1839 C1823 0.960 . S
C1840 C1841 1.391 . S
C1840 C1842 1.394 . S
C1840 H1856 0.931 . S
C1841 C1840 1.391 . S
C1841 C1845 1.376 . S
C1842 C1840 1.394 . S
C1842 C1843 1.369 . S
C1842 C1846 1.531 . S
C1843 C1842 1.369 . S
C1843 C1844 1.410 . S
C1843 C1851 1.503 . S
C1844 C1843 1.410 . S
C1844 C1845 1.392 . S
C1844 C1847 1.511 . S
C1845 C1841 1.376 . S
C1845 C1844 1.392 . S
C1845 H1857 0.929 . S
C1846 C1842 1.531 . S
C1846 H1858 0.960 . S
C1846 H1859 0.962 . S
C1846 H1860 0.960 . S
C1847 C1844 1.511 . S
C1847 H1861 0.961 . S
C1847 H1862 0.961 . S
C1847 H1863 0.961 . S
C1848 C1849 1.370 . S
C1848 C1850 1.363 . S
C1848 H1864 0.931 . S
C1849 C1848 1.370 . S
C1849 C1853 1.408 . S
C1850 C1848 1.363 . S
C1850 C1851 1.370 . S
C1850 C1854 1.524 . S
C1851 C1843 1.503 . S
C1851 C1850 1.370 . S
C1851 C1852 1.403 . S
C1852 C1851 1.403 . S
C1852 C1853 1.404 . S
C1852 C1855 1.539 . S
C1853 C1849 1.408 . S
C1853 C1852 1.404 . S
C1853 H1865 0.930 . S
C1854 C1850 1.524 . S
C1854 H1866 0.956 . S
C1854 H1867 0.961 . S
C1854 H1868 0.961 . S
C1855 C1852 1.539 . S
C1855 H1869 0.958 . S
C1855 H1870 0.961 . S
C1855 H1871 0.960 . S
H1856 C1840 0.931 . S
H1857 C1845 0.929 . S
H1858 C1846 0.960 . S
H1859 C1846 0.962 . S
H1860 C1846 0.960 . S
H1861 C1847 0.961 . S
H1862 C1847 0.961 . S
H1863 C1847 0.961 . S
H1864 C1848 0.931 . S
H1865 C1853 0.930 . S
H1866 C1854 0.956 . S
H1867 C1854 0.961 . S
H1868 C1854 0.961 . S
H1869 C1855 0.958 . S
H1870 C1855 0.961 . S
H1871 C1855 0.960 . S
C1872 C1873 1.391 . S
C1872 C1874 1.394 . S
C1872 H1888 0.931 . S
C1873 C1872 1.391 . S
C1873 C1877 1.376 . S
C1874 C1872 1.394 . S
C1874 C1875 1.369 . S
C1874 C1878 1.531 . S
C1875 C1874 1.369 . S
C1875 C1876 1.410 . S
C1875 C1883 1.503 . S
C1876 C1875 1.410 . S
C1876 C1877 1.392 . S
C1876 C1879 1.511 . S
C1877 C1873 1.376 . S
C1877 C1876 1.392 . S
C1877 H1889 0.929 . S
C1878 C1874 1.531 . S
C1878 H1890 0.960 . S
C1878 H1891 0.962 . S
C1878 H1892 0.960 . S
C1879 C1876 1.511 . S
C1879 H1893 0.961 . S
C1879 H1894 0.961 . S
C1879 H1895 0.961 . S
C1880 C1881 1.370 . S
C1880 C1882 1.363 . S
C1880 H1896 0.931 . S
C1881 C1880 1.370 . S
C1881 C1885 1.408 . S
C1882 C1880 1.363 . S
C1882 C1883 1.370 . S
C1882 C1886 1.524 . S
C1883 C1875 1.503 . S
C1883 C1882 1.370 . S
C1883 C1884 1.403 . S
C1884 C1883 1.403 . S
C1884 C1885 1.404 . S
C1884 C1887 1.539 . S
C1885 C1881 1.408 . S
C1885 C1884 1.404 . S
C1885 H1897 0.930 . S
C1886 C1882 1.524 . S
C1886 H1898 0.956 . S
C1886 H1899 0.961 . S
C1886 H1900 0.961 . S
C1887 C1884 1.539 . S
C1887 H1901 0.958 . S
C1887 H1902 0.961 . S
C1887 H1903 0.960 . S
H1888 C1872 0.931 . S
H1889 C1877 0.929 . S
H1890 C1878 0.960 . S
H1891 C1878 0.962 . S
H1892 C1878 0.960 . S
H1893 C1879 0.961 . S
H1894 C1879 0.961 . S
H1895 C1879 0.961 . S
H1896 C1880 0.931 . S
H1897 C1885 0.930 . S
H1898 C1886 0.956 . S
H1899 C1886 0.961 . S
H1900 C1886 0.961 . S
H1901 C1887 0.958 . S
H1902 C1887 0.961 . S
H1903 C1887 0.960 . S
C1904 C1905 1.391 . S
C1904 C1906 1.394 . S
C1904 H1920 0.931 . S
C1905 C1904 1.391 . S
C1905 C1909 1.376 . S
C1906 C1904 1.394 . S
C1906 C1907 1.369 . S
C1906 C1910 1.531 . S
C1907 C1906 1.369 . S
C1907 C1908 1.410 . S
C1907 C1915 1.503 . S
C1908 C1907 1.410 . S
C1908 C1909 1.392 . S
C1908 C1911 1.511 . S
C1909 C1905 1.376 . S
C1909 C1908 1.392 . S
C1909 H1921 0.929 . S
C1910 C1906 1.531 . S
C1910 H1922 0.960 . S
C1910 H1923 0.962 . S
C1910 H1924 0.960 . S
C1911 C1908 1.511 . S
C1911 H1925 0.961 . S
C1911 H1926 0.961 . S
C1911 H1927 0.961 . S
C1912 C1913 1.370 . S
C1912 C1914 1.363 . S
C1912 H1928 0.931 . S
C1913 C1912 1.370 . S
C1913 C1917 1.408 . S
C1914 C1912 1.363 . S
C1914 C1915 1.370 . S
C1914 C1918 1.524 . S
C1915 C1907 1.503 . S
C1915 C1914 1.370 . S
C1915 C1916 1.403 . S
C1916 C1915 1.403 . S
C1916 C1917 1.404 . S
C1916 C1919 1.539 . S
C1917 C1913 1.408 . S
C1917 C1916 1.404 . S
C1917 H1929 0.930 . S
C1918 C1914 1.524 . S
C1918 H1930 0.956 . S
C1918 H1931 0.961 . S
C1918 H1932 0.961 . S
C1919 C1916 1.539 . S
C1919 H1933 0.958 . S
C1919 H1934 0.961 . S
C1919 H1935 0.960 . S
H1920 C1904 0.931 . S
H1921 C1909 0.929 . S
H1922 C1910 0.960 . S
H1923 C1910 0.962 . S
H1924 C1910 0.960 . S
H1925 C1911 0.961 . S
H1926 C1911 0.961 . S
H1927 C1911 0.961 . S
H1928 C1912 0.931 . S
H1929 C1917 0.930 . S
H1930 C1918 0.956 . S
H1931 C1918 0.961 . S
H1932 C1918 0.961 . S
H1933 C1919 0.958 . S
H1934 C1919 0.961 . S
H1935 C1919 0.960 . S
C1936 C1937 1.391 . S
C1936 C1938 1.394 . S
C1936 H1952 0.931 . S
C1937 C1936 1.391 . S
C1937 C1941 1.376 . S
C1938 C1936 1.394 . S
C1938 C1939 1.369 . S
C1938 C1942 1.531 . S
C1939 C1938 1.369 . S
C1939 C1940 1.410 . S
C1939 C1947 1.503 . S
C1940 C1939 1.410 . S
C1940 C1941 1.392 . S
C1940 C1943 1.511 . S
C1941 C1937 1.376 . S
C1941 C1940 1.392 . S
C1941 H1953 0.929 . S
C1942 C1938 1.531 . S
C1942 H1954 0.960 . S
C1942 H1955 0.962 . S
C1942 H1956 0.960 . S
C1943 C1940 1.511 . S
C1943 H1957 0.961 . S
C1943 H1958 0.961 . S
C1943 H1959 0.961 . S
C1944 C1945 1.370 . S
C1944 C1946 1.363 . S
C1944 H1960 0.931 . S
C1945 C1944 1.370 . S
C1945 C1949 1.408 . S
C1946 C1944 1.363 . S
C1946 C1947 1.370 . S
C1946 C1950 1.524 . S
C1947 C1939 1.503 . S
C1947 C1946 1.370 . S
C1947 C1948 1.403 . S
C1948 C1947 1.403 . S
C1948 C1949 1.404 . S
C1948 C1951 1.539 . S
C1949 C1945 1.408 . S
C1949 C1948 1.404 . S
C1949 H1961 0.930 . S
C1950 C1946 1.524 . S
C1950 H1962 0.956 . S
C1950 H1963 0.961 . S
C1950 H1964 0.961 . S
C1951 C1948 1.539 . S
C1951 H1965 0.958 . S
C1951 H1966 0.961 . S
C1951 H1967 0.960 . S
H1952 C1936 0.931 . S
H1953 C1941 0.929 . S
H1954 C1942 0.960 . S
H1955 C1942 0.962 . S
H1956 C1942 0.960 . S
H1957 C1943 0.961 . S
H1958 C1943 0.961 . S
H1959 C1943 0.961 . S
H1960 C1944 0.931 . S
H1961 C1949 0.930 . S
H1962 C1950 0.956 . S
H1963 C1950 0.961 . S
H1964 C1950 0.961 . S
H1965 C1951 0.958 . S
H1966 C1951 0.961 . S
H1967 C1951 0.960 . S
C945 C52 1.409 . S
C953 C170 1.411 . S
C977 C229 1.416 . S
C985 C111 1.421 . S
C1009 C288 1.424 . S
C1017 C406 1.420 . S
C1041 C465 1.416 . S
C1049 C347 1.421 . S
C1073 C524 1.401 . S
C1081 C642 1.416 . S
C1105 C701 1.404 . S
C1113 C583 1.412 . S
C1137 C760 1.416 . S
C1145 C878 1.421 . S
C1169 C937 1.401 . S
C1177 C819 1.415 . S
C1201 C269 1.289 . S
C1209 C33 1.265 . S
C1233 C92 1.292 . S
C1241 C328 1.275 . S
C1265 C151 1.295 . S
C1273 C387 1.265 . S
C1297 C446 1.297 . S
C1305 C210 1.272 . S
C1329 C505 1.244 . S
C1337 C741 1.284 . S
C1361 C564 1.276 . S
C1369 C800 1.266 . S
C1393 C623 1.244 . S
C1401 C859 1.284 . S
C1425 C682 1.260 . S
C1433 C918 1.288 . S
C1457 C593 1.367 . S
C1465 C3 1.370 . S
C1489 C652 1.391 . S
C1497 C62 1.382 . S
C1521 C121 1.359 . S
C1529 C475 1.367 . S
C1553 C180 1.381 . S
C1561 C534 1.376 . S
C1585 C239 1.381 . S
C1593 C829 1.379 . S
C1617 C298 1.349 . S
C1625 C888 1.365 . S
C1649 C357 1.374 . S
C1657 C711 1.376 . S
C1681 C770 1.350 . S
C1689 C416 1.366 . S
C1713 C5 1.437 . S
C1721 C890 1.436 . S
C1745 C713 1.427 . S
C1753 C64 1.432 . S
C1777 C123 1.435 . S
C1785 C772 1.436 . S
C1809 C831 1.424 . S
C1817 C182 1.431 . S
C1841 C536 1.425 . S
C1849 C241 1.431 . S
C1873 C300 1.423 . S
C1881 C595 1.431 . S
C1905 C654 1.425 . S
C1913 C359 1.431 . S
C1937 C477 1.432 . S
C1945 C418 1.435 . S
