# Generated by pormake.
# Topology uod, (4)-cn, num edge types: 1
# Building blocks:
#     Node 0, Type 0, BuildingBlock: CEKHIL_clean_sbu_0, # of connection points: 4
#     Node 1, Type 0, BuildingBlock: CEKHIL_clean_sbu_0, # of connection points: 4
#     Node 2, Type 0, BuildingBlock: CEKHIL_clean_sbu_0, # of connection points: 4
#     Node 3, Type 0, BuildingBlock: CEKHIL_clean_sbu_0, # of connection points: 4
#     Node 4, Type 0, BuildingBlock: CEKHIL_clean_sbu_0, # of connection points: 4
#     Node 5, Type 0, BuildingBlock: CEKHIL_clean_sbu_0, # of connection points: 4
#     Node 6, Type 0, BuildingBlock: CEKHIL_clean_sbu_0, # of connection points: 4
#     Node 7, Type 0, BuildingBlock: CEKHIL_clean_sbu_0, # of connection points: 4
#     Node 8, Type 0, BuildingBlock: CEKHIL_clean_sbu_0, # of connection points: 4
#     Node 9, Type 0, BuildingBlock: CEKHIL_clean_sbu_0, # of connection points: 4
#     Node 10, Type 0, BuildingBlock: CEKHIL_clean_sbu_0, # of connection points: 4
#     Node 11, Type 0, BuildingBlock: CEKHIL_clean_sbu_0, # of connection points: 4
#     Node 12, Type 0, BuildingBlock: CEKHIL_clean_sbu_0, # of connection points: 4
#     Node 13, Type 0, BuildingBlock: CEKHIL_clean_sbu_0, # of connection points: 4
#     Node 14, Type 0, BuildingBlock: CEKHIL_clean_sbu_0, # of connection points: 4
#     Node 15, Type 0, BuildingBlock: CEKHIL_clean_sbu_0, # of connection points: 4
#     Node 16, Type 0, BuildingBlock: CEKHIL_clean_sbu_0, # of connection points: 4
#     Node 17, Type 0, BuildingBlock: CEKHIL_clean_sbu_0, # of connection points: 4
#     Node 18, Type 0, BuildingBlock: CEKHIL_clean_sbu_0, # of connection points: 4
#     Node 19, Type 0, BuildingBlock: CEKHIL_clean_sbu_0, # of connection points: 4
#     Node 20, Type 0, BuildingBlock: CEKHIL_clean_sbu_0, # of connection points: 4
#     Node 21, Type 0, BuildingBlock: CEKHIL_clean_sbu_0, # of connection points: 4
#     Node 22, Type 0, BuildingBlock: CEKHIL_clean_sbu_0, # of connection points: 4
#     Node 23, Type 0, BuildingBlock: CEKHIL_clean_sbu_0, # of connection points: 4
#     Node 24, Type 0, BuildingBlock: CEKHIL_clean_sbu_0, # of connection points: 4
#     Node 25, Type 0, BuildingBlock: CEKHIL_clean_sbu_0, # of connection points: 4
#     Node 26, Type 0, BuildingBlock: CEKHIL_clean_sbu_0, # of connection points: 4
#     Node 27, Type 0, BuildingBlock: CEKHIL_clean_sbu_0, # of connection points: 4
#     Node 28, Type 0, BuildingBlock: CEKHIL_clean_sbu_0, # of connection points: 4
#     Node 29, Type 0, BuildingBlock: CEKHIL_clean_sbu_0, # of connection points: 4
#     Node 30, Type 0, BuildingBlock: CEKHIL_clean_sbu_0, # of connection points: 4
#     Node 31, Type 0, BuildingBlock: CEKHIL_clean_sbu_0, # of connection points: 4
#     Edge 32, Type (0, 0), BuildingBlock: ZUJKAS_clean_linker_0, # of connection points: 2
#     Edge 33, Type (0, 0), BuildingBlock: ZUJKAS_clean_linker_0, # of connection points: 2
#     Edge 34, Type (0, 0), BuildingBlock: ZUJKAS_clean_linker_0, # of connection points: 2
#     Edge 35, Type (0, 0), BuildingBlock: ZUJKAS_clean_linker_0, # of connection points: 2
#     Edge 36, Type (0, 0), BuildingBlock: ZUJKAS_clean_linker_0, # of connection points: 2
#     Edge 37, Type (0, 0), BuildingBlock: ZUJKAS_clean_linker_0, # of connection points: 2
#     Edge 38, Type (0, 0), BuildingBlock: ZUJKAS_clean_linker_0, # of connection points: 2
#     Edge 39, Type (0, 0), BuildingBlock: ZUJKAS_clean_linker_0, # of connection points: 2
#     Edge 40, Type (0, 0), BuildingBlock: ZUJKAS_clean_linker_0, # of connection points: 2
#     Edge 41, Type (0, 0), BuildingBlock: ZUJKAS_clean_linker_0, # of connection points: 2
#     Edge 42, Type (0, 0), BuildingBlock: ZUJKAS_clean_linker_0, # of connection points: 2
#     Edge 43, Type (0, 0), BuildingBlock: ZUJKAS_clean_linker_0, # of connection points: 2
#     Edge 44, Type (0, 0), BuildingBlock: ZUJKAS_clean_linker_0, # of connection points: 2
#     Edge 45, Type (0, 0), BuildingBlock: ZUJKAS_clean_linker_0, # of connection points: 2
#     Edge 46, Type (0, 0), BuildingBlock: ZUJKAS_clean_linker_0, # of connection points: 2
#     Edge 47, Type (0, 0), BuildingBlock: ZUJKAS_clean_linker_0, # of connection points: 2
#     Edge 48, Type (0, 0), BuildingBlock: ZUJKAS_clean_linker_0, # of connection points: 2
#     Edge 49, Type (0, 0), BuildingBlock: ZUJKAS_clean_linker_0, # of connection points: 2
#     Edge 50, Type (0, 0), BuildingBlock: ZUJKAS_clean_linker_0, # of connection points: 2
#     Edge 51, Type (0, 0), BuildingBlock: ZUJKAS_clean_linker_0, # of connection points: 2
#     Edge 52, Type (0, 0), BuildingBlock: ZUJKAS_clean_linker_0, # of connection points: 2
#     Edge 53, Type (0, 0), BuildingBlock: ZUJKAS_clean_linker_0, # of connection points: 2
#     Edge 54, Type (0, 0), BuildingBlock: ZUJKAS_clean_linker_0, # of connection points: 2
#     Edge 55, Type (0, 0), BuildingBlock: ZUJKAS_clean_linker_0, # of connection points: 2
#     Edge 56, Type (0, 0), BuildingBlock: ZUJKAS_clean_linker_0, # of connection points: 2
#     Edge 57, Type (0, 0), BuildingBlock: ZUJKAS_clean_linker_0, # of connection points: 2
#     Edge 58, Type (0, 0), BuildingBlock: ZUJKAS_clean_linker_0, # of connection points: 2
#     Edge 59, Type (0, 0), BuildingBlock: ZUJKAS_clean_linker_0, # of connection points: 2
#     Edge 60, Type (0, 0), BuildingBlock: ZUJKAS_clean_linker_0, # of connection points: 2
#     Edge 61, Type (0, 0), BuildingBlock: ZUJKAS_clean_linker_0, # of connection points: 2
#     Edge 62, Type (0, 0), BuildingBlock: ZUJKAS_clean_linker_0, # of connection points: 2
#     Edge 63, Type (0, 0), BuildingBlock: ZUJKAS_clean_linker_0, # of connection points: 2
#     Edge 64, Type (0, 0), BuildingBlock: ZUJKAS_clean_linker_0, # of connection points: 2
#     Edge 65, Type (0, 0), BuildingBlock: ZUJKAS_clean_linker_0, # of connection points: 2
#     Edge 66, Type (0, 0), BuildingBlock: ZUJKAS_clean_linker_0, # of connection points: 2
#     Edge 67, Type (0, 0), BuildingBlock: ZUJKAS_clean_linker_0, # of connection points: 2
#     Edge 68, Type (0, 0), BuildingBlock: ZUJKAS_clean_linker_0, # of connection points: 2
#     Edge 69, Type (0, 0), BuildingBlock: ZUJKAS_clean_linker_0, # of connection points: 2
#     Edge 70, Type (0, 0), BuildingBlock: ZUJKAS_clean_linker_0, # of connection points: 2
#     Edge 71, Type (0, 0), BuildingBlock: ZUJKAS_clean_linker_0, # of connection points: 2
#     Edge 72, Type (0, 0), BuildingBlock: ZUJKAS_clean_linker_0, # of connection points: 2
#     Edge 73, Type (0, 0), BuildingBlock: ZUJKAS_clean_linker_0, # of connection points: 2
#     Edge 74, Type (0, 0), BuildingBlock: ZUJKAS_clean_linker_0, # of connection points: 2
#     Edge 75, Type (0, 0), BuildingBlock: ZUJKAS_clean_linker_0, # of connection points: 2
#     Edge 76, Type (0, 0), BuildingBlock: ZUJKAS_clean_linker_0, # of connection points: 2
#     Edge 77, Type (0, 0), BuildingBlock: ZUJKAS_clean_linker_0, # of connection points: 2
#     Edge 78, Type (0, 0), BuildingBlock: ZUJKAS_clean_linker_0, # of connection points: 2
#     Edge 79, Type (0, 0), BuildingBlock: ZUJKAS_clean_linker_0, # of connection points: 2
#     Edge 80, Type (0, 0), BuildingBlock: ZUJKAS_clean_linker_0, # of connection points: 2
#     Edge 81, Type (0, 0), BuildingBlock: ZUJKAS_clean_linker_0, # of connection points: 2
#     Edge 82, Type (0, 0), BuildingBlock: ZUJKAS_clean_linker_0, # of connection points: 2
#     Edge 83, Type (0, 0), BuildingBlock: ZUJKAS_clean_linker_0, # of connection points: 2
#     Edge 84, Type (0, 0), BuildingBlock: ZUJKAS_clean_linker_0, # of connection points: 2
#     Edge 85, Type (0, 0), BuildingBlock: ZUJKAS_clean_linker_0, # of connection points: 2
#     Edge 86, Type (0, 0), BuildingBlock: ZUJKAS_clean_linker_0, # of connection points: 2
#     Edge 87, Type (0, 0), BuildingBlock: ZUJKAS_clean_linker_0, # of connection points: 2
#     Edge 88, Type (0, 0), BuildingBlock: ZUJKAS_clean_linker_0, # of connection points: 2
#     Edge 89, Type (0, 0), BuildingBlock: ZUJKAS_clean_linker_0, # of connection points: 2
#     Edge 90, Type (0, 0), BuildingBlock: ZUJKAS_clean_linker_0, # of connection points: 2
#     Edge 91, Type (0, 0), BuildingBlock: ZUJKAS_clean_linker_0, # of connection points: 2
#     Edge 92, Type (0, 0), BuildingBlock: ZUJKAS_clean_linker_0, # of connection points: 2
#     Edge 93, Type (0, 0), BuildingBlock: ZUJKAS_clean_linker_0, # of connection points: 2
#     Edge 94, Type (0, 0), BuildingBlock: ZUJKAS_clean_linker_0, # of connection points: 2
#     Edge 95, Type (0, 0), BuildingBlock: ZUJKAS_clean_linker_0, # of connection points: 2
# Relax obj value: 0.170
# Max RMSD: 0.164
# Mean RMSD: 0.164
data_MOF--net-uod--node1-CEKHIL_clean_sbu_0--edge1-ZUJKAS_clean_linker_0
_symmetry_space_group_name_H-M    P1
_symmetry_Int_Tables_number       1
_symmetry_cell_setting            triclinic
loop_
_symmetry_equiv_pos_as_xyz
'x, y, z'
_cell_length_a     119.26636
_cell_length_b     34.171482
_cell_length_c     77.739397
_cell_angle_alpha  90.001321
_cell_angle_beta   90.014898
_cell_angle_gamma 89.951192
loop_
_atom_site_label
_atom_site_type_symbol
_atom_site_fract_x
_atom_site_fract_y
_atom_site_fract_z
_atom_type_partial_charge
Co0 Co 0.05341 0.37533 0.08415 0.0
O1 O 0.03979 0.36963 0.07106 0.0
O2 O 0.05434 0.40505 0.06287 0.0
C3 C 0.05556 0.31238 0.09174 0.0
O4 O 0.069 0.38653 0.09437 0.0
Co5 Co 0.05262 0.35779 0.12352 0.0
O6 O 0.06906 0.36498 0.1218 0.0
C7 C 0.0417 0.42788 0.11016 0.0
C8 C 0.04409 0.39365 0.05996 0.0
C9 C 0.07407 0.37931 0.10875 0.0
O10 O 0.04668 0.42236 0.09571 0.0
O11 O 0.04224 0.40383 0.12274 0.0
O12 O 0.05883 0.32388 0.07657 0.0
O13 O 0.05003 0.3378 0.10055 0.0
Co14 Co 0.20985 0.86491 0.08431 0.0
O15 O 0.22318 0.8678 0.07045 0.0
O16 O 0.20837 0.83178 0.06406 0.0
C17 C 0.20816 0.92924 0.08972 0.0
O18 O 0.19447 0.8563 0.09562 0.0
Co19 Co 0.21148 0.88983 0.12278 0.0
O20 O 0.19493 0.88383 0.12197 0.0
C21 C 0.22178 0.81636 0.11161 0.0
C22 C 0.21857 0.84243 0.06028 0.0
C23 C 0.18965 0.86695 0.10977 0.0
O24 O 0.2166 0.81961 0.09717 0.0
O25 O 0.22165 0.84308 0.12314 0.0
O26 O 0.20436 0.91505 0.07531 0.0
O27 O 0.21381 0.90522 0.0991 0.0
Co28 Co 0.05076 0.86426 0.16715 0.0
O29 O 0.03749 0.8687 0.18108 0.0
O30 O 0.05221 0.83236 0.18777 0.0
C31 C 0.05272 0.928 0.16079 0.0
O32 O 0.06606 0.85419 0.15581 0.0
Co33 Co 0.04893 0.88652 0.12833 0.0
O34 O 0.06541 0.87847 0.12883 0.0
C35 C 0.0381 0.81546 0.14094 0.0
C36 C 0.04205 0.84369 0.1915 0.0
C37 C 0.07075 0.86281 0.14129 0.0
O38 O 0.04378 0.81854 0.15493 0.0
O39 O 0.0381 0.84177 0.12923 0.0
O40 O 0.05642 0.91481 0.17546 0.0
O41 O 0.04694 0.90357 0.15184 0.0
Co42 Co 0.21216 0.37127 0.1674 0.0
O43 O 0.22503 0.36572 0.18211 0.0
O44 O 0.21029 0.40254 0.18813 0.0
C45 C 0.21006 0.30794 0.1605 0.0
O46 O 0.19719 0.38246 0.15521 0.0
Co47 Co 0.21489 0.35086 0.1286 0.0
O48 O 0.19836 0.35727 0.12846 0.0
C49 C 0.22473 0.42308 0.14182 0.0
C50 C 0.22032 0.39072 0.19237 0.0
C51 C 0.19277 0.37334 0.14055 0.0
O52 O 0.21958 0.41726 0.15609 0.0
O53 O 0.2246 0.39874 0.12932 0.0
O54 O 0.20602 0.32101 0.17497 0.0
O55 O 0.21626 0.3321 0.15204 0.0
Co56 Co 0.96049 0.61828 0.92102 0.0
O57 O 0.97381 0.62072 0.93492 0.0
O58 O 0.95874 0.58631 0.9416 0.0
C59 C 0.95927 0.68235 0.91492 0.0
O60 O 0.94507 0.61054 0.90964 0.0
Co61 Co 0.9623 0.64095 0.88231 0.0
O62 O 0.94571 0.64238 0.88426 0.0
C63 C 0.97131 0.56572 0.89389 0.0
C64 C 0.96902 0.59626 0.94531 0.0
C65 C 0.94026 0.6249 0.89611 0.0
O66 O 0.96688 0.5717 0.90872 0.0
O67 O 0.97106 0.5908 0.88167 0.0
O68 O 0.95535 0.6693 0.92946 0.0
O69 O 0.96479 0.65739 0.90583 0.0
Co70 Co 0.80193 0.12091 0.92083 0.0
O71 O 0.7887 0.11821 0.93487 0.0
O72 O 0.80385 0.15218 0.94159 0.0
C73 C 0.80303 0.05694 0.91445 0.0
O74 O 0.81728 0.12866 0.90928 0.0
Co75 Co 0.79977 0.09879 0.88207 0.0
O76 O 0.81639 0.09803 0.88362 0.0
C77 C 0.79064 0.17346 0.89427 0.0
C78 C 0.79361 0.14208 0.94541 0.0
C79 C 0.82195 0.11495 0.89552 0.0
O80 O 0.79554 0.16793 0.9088 0.0
O81 O 0.79055 0.14789 0.88223 0.0
O82 O 0.80706 0.06959 0.92899 0.0
O83 O 0.79749 0.08222 0.90557 0.0
Co84 Co 0.96025 0.11743 0.83187 0.0
O85 O 0.97363 0.11501 0.81815 0.0
O86 O 0.95862 0.14973 0.81138 0.0
C87 C 0.95898 0.05319 0.83769 0.0
O88 O 0.94479 0.12519 0.84308 0.0
Co89 Co 0.96187 0.09355 0.87049 0.0
O90 O 0.94527 0.09313 0.86842 0.0
C91 C 0.97126 0.16856 0.85923 0.0
C92 C 0.96889 0.13958 0.80774 0.0
C93 C 0.93992 0.11092 0.85654 0.0
O94 O 0.96658 0.16371 0.84449 0.0
O95 O 0.97113 0.14252 0.87107 0.0
O96 O 0.95512 0.06658 0.82316 0.0
O97 O 0.96445 0.07795 0.84692 0.0
Co98 Co 0.80248 0.62005 0.83125 0.0
O99 O 0.78928 0.6216 0.81708 0.0
O100 O 0.80434 0.58622 0.81128 0.0
C101 C 0.80362 0.68458 0.83621 0.0
O102 O 0.81779 0.61288 0.84303 0.0
Co103 Co 0.80045 0.64623 0.86948 0.0
O104 O 0.81707 0.64645 0.86795 0.0
C105 C 0.79132 0.57039 0.85903 0.0
C106 C 0.79411 0.59609 0.80721 0.0
C107 C 0.82254 0.62783 0.85646 0.0
O108 O 0.79591 0.57481 0.84421 0.0
O109 O 0.79153 0.59655 0.8708 0.0
O110 O 0.80775 0.67021 0.82204 0.0
O111 O 0.79806 0.66047 0.84565 0.0
Co112 Co 0.04896 0.87288 0.58702 0.0
O113 O 0.03578 0.86652 0.57299 0.0
O114 O 0.05036 0.90313 0.56596 0.0
C115 C 0.05126 0.80996 0.59445 0.0
O116 O 0.06416 0.88491 0.5983 0.0
Co117 Co 0.04721 0.85446 0.62619 0.0
O118 O 0.06371 0.86137 0.62538 0.0
C119 C 0.03624 0.92411 0.61242 0.0
C120 C 0.04028 0.89107 0.5623 0.0
C121 C 0.06896 0.87677 0.61279 0.0
O122 O 0.04163 0.91912 0.59829 0.0
O123 O 0.03662 0.89996 0.62497 0.0
O124 O 0.05492 0.82215 0.5796 0.0
O125 O 0.04531 0.83471 0.603 0.0
Co126 Co 0.21187 0.36334 0.5866 0.0
O127 O 0.22512 0.3679 0.5726 0.0
O128 O 0.21034 0.33197 0.56587 0.0
C129 C 0.2099 0.42689 0.59326 0.0
O130 O 0.19656 0.35302 0.59784 0.0
Co131 Co 0.21348 0.38423 0.62555 0.0
O132 O 0.19695 0.37804 0.62467 0.0
C133 C 0.22412 0.31289 0.61282 0.0
C134 C 0.22051 0.3431 0.56213 0.0
C135 C 0.19171 0.36219 0.61217 0.0
O136 O 0.21889 0.31736 0.59851 0.0
O137 O 0.22378 0.33786 0.62507 0.0
O138 O 0.2062 0.41401 0.57854 0.0
O139 O 0.21568 0.40226 0.60216 0.0
Co140 Co 0.05231 0.3584 0.66664 0.0
O141 O 0.03888 0.36267 0.68018 0.0
O142 O 0.05356 0.32664 0.68733 0.0
C143 C 0.05421 0.42218 0.6603 0.0
O144 O 0.06776 0.34857 0.65574 0.0
Co145 Co 0.05089 0.38043 0.62775 0.0
O146 O 0.06736 0.37254 0.62869 0.0
C147 C 0.03982 0.30979 0.64027 0.0
C148 C 0.04335 0.33785 0.69076 0.0
C149 C 0.07259 0.35709 0.64131 0.0
O150 O 0.04554 0.31253 0.65425 0.0
O151 O 0.03987 0.33626 0.62864 0.0
O152 O 0.05777 0.40916 0.67508 0.0
O153 O 0.04863 0.39752 0.6512 0.0
Co154 Co 0.208 0.87589 0.66828 0.0
O155 O 0.22142 0.87031 0.68181 0.0
O156 O 0.20683 0.9065 0.6893 0.0
C157 C 0.20584 0.81263 0.66112 0.0
O158 O 0.1926 0.88704 0.65743 0.0
Co159 Co 0.2095 0.85653 0.62913 0.0
O160 O 0.19309 0.8659 0.62992 0.0
C161 C 0.22074 0.92573 0.64265 0.0
C162 C 0.21702 0.89482 0.69262 0.0
C163 C 0.18785 0.88032 0.64276 0.0
O164 O 0.21493 0.92231 0.65649 0.0
O165 O 0.22071 0.89998 0.63071 0.0
O166 O 0.20237 0.8248 0.67608 0.0
O167 O 0.21155 0.83759 0.65235 0.0
Co168 Co 0.95896 0.11654 0.42063 0.0
O169 O 0.97213 0.11855 0.43483 0.0
O170 O 0.95697 0.0841 0.441 0.0
C171 C 0.95782 0.18082 0.41484 0.0
O172 O 0.94365 0.10922 0.40889 0.0
Co173 Co 0.96121 0.14044 0.3821 0.0
O174 O 0.94458 0.14069 0.38344 0.0
C175 C 0.97046 0.06553 0.39372 0.0
C176 C 0.96721 0.09396 0.44501 0.0
C177 C 0.93901 0.12329 0.39518 0.0
O178 O 0.96543 0.07022 0.40819 0.0
O179 O 0.9706 0.09169 0.38194 0.0
O180 O 0.95376 0.16743 0.42923 0.0
O181 O 0.96341 0.15602 0.40577 0.0
Co182 Co 0.80164 0.61727 0.42053 0.0
O183 O 0.78838 0.61294 0.43443 0.0
O184 O 0.80336 0.6473 0.44166 0.0
C185 C 0.80306 0.55395 0.4132 0.0
O186 O 0.81701 0.62658 0.40921 0.0
Co187 Co 0.79961 0.59875 0.38144 0.0
O188 O 0.81622 0.59802 0.3831 0.0
C189 C 0.79027 0.67187 0.39476 0.0
C190 C 0.79311 0.63664 0.44521 0.0
C191 C 0.82174 0.61403 0.39528 0.0
O192 O 0.79507 0.66485 0.40923 0.0
O193 O 0.7904 0.6479 0.38212 0.0
O194 O 0.80696 0.56571 0.42797 0.0
O195 O 0.79741 0.57955 0.40464 0.0
Co196 Co 0.96032 0.61759 0.3329 0.0
O197 O 0.97369 0.6149 0.31914 0.0
O198 O 0.95871 0.64983 0.31239 0.0
C199 C 0.95896 0.5535 0.33882 0.0
O200 O 0.94485 0.62577 0.34407 0.0
Co201 Co 0.96176 0.59446 0.37158 0.0
O202 O 0.94518 0.59315 0.36927 0.0
C203 C 0.9711 0.6694 0.36028 0.0
C204 C 0.96898 0.63965 0.30876 0.0
C205 C 0.9399 0.61115 0.35739 0.0
O206 O 0.96676 0.66377 0.34537 0.0
O207 O 0.97065 0.64428 0.37247 0.0
O208 O 0.95511 0.56685 0.32428 0.0
O209 O 0.96446 0.5782 0.34807 0.0
Co210 Co 0.80045 0.11649 0.33247 0.0
O211 O 0.78701 0.1174 0.31884 0.0
O212 O 0.80211 0.08287 0.31238 0.0
C213 C 0.80155 0.18117 0.33731 0.0
O214 O 0.81597 0.11009 0.34363 0.0
Co215 Co 0.79894 0.14331 0.37072 0.0
O216 O 0.81554 0.14397 0.36852 0.0
C217 C 0.78973 0.06712 0.3607 0.0
C218 C 0.7918 0.09243 0.30867 0.0
C219 C 0.82088 0.12544 0.35684 0.0
O220 O 0.79431 0.07096 0.34583 0.0
O221 O 0.78982 0.09411 0.37212 0.0
O222 O 0.8054 0.1668 0.32296 0.0
O223 O 0.79619 0.15696 0.34697 0.0
Co224 Co 0.55207 0.37591 0.58511 0.0
O225 O 0.53879 0.37 0.57131 0.0
O226 O 0.55377 0.40357 0.5634 0.0
C227 C 0.55365 0.31359 0.59391 0.0
O228 O 0.56742 0.38673 0.59616 0.0
Co229 Co 0.5499 0.36246 0.62458 0.0
O230 O 0.56645 0.36763 0.6239 0.0
C231 C 0.54042 0.43323 0.60937 0.0
C232 C 0.54351 0.39274 0.5601 0.0
C233 C 0.57198 0.38024 0.61099 0.0
O234 O 0.54546 0.42474 0.59527 0.0
O235 O 0.54038 0.41069 0.62251 0.0
O236 O 0.55743 0.32366 0.57883 0.0
O237 O 0.54793 0.33997 0.60189 0.0
Co238 Co 0.70933 0.86406 0.5833 0.0
O239 O 0.72262 0.8652 0.56936 0.0
O240 O 0.7077 0.82922 0.56358 0.0
C241 C 0.70809 0.9289 0.58749 0.0
O242 O 0.69395 0.85733 0.59493 0.0
Co243 Co 0.71113 0.89275 0.62122 0.0
O244 O 0.69452 0.89215 0.61954 0.0
C245 C 0.72083 0.81704 0.61157 0.0
C246 C 0.71792 0.83928 0.55958 0.0
C247 C 0.68912 0.8729 0.60817 0.0
O248 O 0.71592 0.81965 0.59689 0.0
O249 O 0.7207 0.84454 0.62275 0.0
O250 O 0.70402 0.91366 0.57347 0.0
O251 O 0.7136 0.90537 0.59728 0.0
Co252 Co 0.55078 0.87116 0.67068 0.0
O253 O 0.53741 0.87168 0.68445 0.0
O254 O 0.55226 0.83507 0.68998 0.0
C255 C 0.55213 0.9363 0.66741 0.0
O256 O 0.56624 0.86463 0.65926 0.0
Co257 Co 0.54946 0.90271 0.63316 0.0
O258 O 0.56606 0.90065 0.63498 0.0
C259 C 0.53963 0.82634 0.64142 0.0
C260 C 0.54204 0.84516 0.69401 0.0
C261 C 0.57125 0.88036 0.64623 0.0
O262 O 0.54423 0.8279 0.65636 0.0
O263 O 0.53998 0.85457 0.63061 0.0
O264 O 0.5561 0.91995 0.68126 0.0
O265 O 0.54669 0.91358 0.65718 0.0
Co266 Co 0.71078 0.3689 0.66969 0.0
O267 O 0.724 0.36387 0.68366 0.0
O268 O 0.70913 0.39902 0.69078 0.0
C269 C 0.70907 0.30571 0.6623 0.0
O270 O 0.69548 0.3792 0.65835 0.0
Co271 Co 0.71281 0.35055 0.63058 0.0
O272 O 0.69622 0.35446 0.63149 0.0
C273 C 0.72239 0.42303 0.64401 0.0
C274 C 0.71933 0.38792 0.69439 0.0
C275 C 0.69078 0.36973 0.64393 0.0
O276 O 0.71756 0.41613 0.65845 0.0
O277 O 0.72221 0.39919 0.63133 0.0
O278 O 0.70524 0.31764 0.67709 0.0
O279 O 0.71485 0.33097 0.65376 0.0
Co280 Co 0.46049 0.61789 0.4205 0.0
O281 O 0.47374 0.62083 0.43452 0.0
O282 O 0.45878 0.5856 0.44097 0.0
C283 C 0.45904 0.68195 0.41451 0.0
O284 O 0.44514 0.60937 0.40901 0.0
Co285 Co 0.46228 0.64082 0.38184 0.0
O286 O 0.44567 0.64099 0.38358 0.0
C287 C 0.47175 0.56633 0.39346 0.0
C288 C 0.46901 0.59591 0.44478 0.0
C289 C 0.44029 0.62323 0.39543 0.0
O290 O 0.46714 0.5718 0.4082 0.0
O291 O 0.47141 0.59147 0.38127 0.0
O292 O 0.45511 0.66856 0.42898 0.0
O293 O 0.46468 0.65733 0.4054 0.0
Co294 Co 0.30262 0.12543 0.41924 0.0
O295 O 0.28902 0.11958 0.43237 0.0
O296 O 0.30386 0.15306 0.44099 0.0
C297 C 0.30446 0.06317 0.41049 0.0
O298 O 0.31823 0.13647 0.40909 0.0
Co299 Co 0.30148 0.11192 0.37957 0.0
O300 O 0.31792 0.11955 0.38103 0.0
C301 C 0.29104 0.18126 0.39442 0.0
C302 C 0.29354 0.14227 0.44382 0.0
C303 C 0.3231 0.13149 0.39439 0.0
O304 O 0.29615 0.17404 0.40862 0.0
O305 O 0.29129 0.15829 0.38145 0.0
O306 O 0.30776 0.07298 0.42586 0.0
O307 O 0.29899 0.08964 0.40217 0.0
Co308 Co 0.46118 0.12088 0.33442 0.0
O309 O 0.47414 0.11768 0.31977 0.0
O310 O 0.45915 0.15365 0.31419 0.0
C311 C 0.45955 0.05677 0.34026 0.0
O312 O 0.44612 0.12982 0.34662 0.0
Co313 Co 0.46383 0.09692 0.37287 0.0
O314 O 0.44724 0.10185 0.37282 0.0
C315 C 0.47349 0.17074 0.36092 0.0
C316 C 0.46926 0.14297 0.30983 0.0
C317 C 0.44164 0.11882 0.36097 0.0
O318 O 0.46819 0.16651 0.34665 0.0
O319 O 0.47365 0.14455 0.37268 0.0
O320 O 0.45545 0.07063 0.32598 0.0
O321 O 0.4655 0.08087 0.34914 0.0
Co322 Co 0.30155 0.6167 0.33518 0.0
O323 O 0.28802 0.61861 0.32173 0.0
O324 O 0.30281 0.58253 0.31522 0.0
C325 C 0.30323 0.68132 0.33988 0.0
O326 O 0.31713 0.60901 0.34611 0.0
Co327 Co 0.30044 0.64385 0.37346 0.0
O328 O 0.31701 0.64195 0.37125 0.0
C329 C 0.28997 0.56999 0.36332 0.0
C330 C 0.29255 0.59291 0.31162 0.0
C331 C 0.32218 0.62338 0.35942 0.0
O332 O 0.29507 0.57212 0.34878 0.0
O333 O 0.29022 0.59741 0.37452 0.0
O334 O 0.30673 0.66653 0.3254 0.0
O335 O 0.2978 0.65765 0.34969 0.0
Co336 Co 0.55059 0.87358 0.08388 0.0
O337 O 0.53714 0.87156 0.07026 0.0
O338 O 0.55188 0.90808 0.06404 0.0
C339 C 0.55227 0.80885 0.08833 0.0
O340 O 0.56608 0.8815 0.09501 0.0
Co341 Co 0.54951 0.84526 0.12202 0.0
O342 O 0.56608 0.84787 0.11997 0.0
C343 C 0.53877 0.91905 0.11213 0.0
C344 C 0.54168 0.89744 0.06026 0.0
C345 C 0.57117 0.86708 0.10827 0.0
O346 O 0.54391 0.91763 0.0976 0.0
O347 O 0.53911 0.89131 0.12317 0.0
O348 O 0.55592 0.82396 0.07401 0.0
O349 O 0.54682 0.83237 0.09818 0.0
Co350 Co 0.70984 0.36103 0.08677 0.0
O351 O 0.72373 0.36426 0.07426 0.0
O352 O 0.7094 0.32708 0.06668 0.0
C353 C 0.70766 0.42543 0.09137 0.0
O354 O 0.694 0.35181 0.09652 0.0
Co355 Co 0.70919 0.38829 0.12511 0.0
O356 O 0.6928 0.38694 0.121 0.0
C357 C 0.72026 0.31465 0.11609 0.0
C358 C 0.71966 0.33841 0.06378 0.0
C359 C 0.68828 0.36702 0.10899 0.0
O360 O 0.71634 0.3171 0.10074 0.0
O361 O 0.71891 0.34087 0.12764 0.0
O362 O 0.70461 0.41046 0.07669 0.0
O363 O 0.71286 0.40204 0.10163 0.0
Co364 Co 0.54982 0.36235 0.16591 0.0
O365 O 0.53656 0.3682 0.17977 0.0
O366 O 0.5516 0.33473 0.18758 0.0
C367 C 0.55129 0.42467 0.15707 0.0
O368 O 0.56518 0.3514 0.15486 0.0
Co369 Co 0.54795 0.37617 0.12637 0.0
O370 O 0.56456 0.37572 0.12792 0.0
C371 C 0.53801 0.30613 0.14157 0.0
C372 C 0.54135 0.3455 0.19095 0.0
C373 C 0.56997 0.36136 0.14059 0.0
O374 O 0.54315 0.31378 0.15568 0.0
O375 O 0.53817 0.32872 0.12845 0.0
O376 O 0.55508 0.41484 0.17218 0.0
O377 O 0.54569 0.39802 0.1491 0.0
Co378 Co 0.71101 0.87714 0.16241 0.0
O379 O 0.72479 0.87311 0.17516 0.0
O380 O 0.70992 0.90634 0.18383 0.0
C381 C 0.70966 0.81391 0.15489 0.0
O382 O 0.69516 0.88619 0.15259 0.0
Co383 Co 0.71113 0.85875 0.12305 0.0
O384 O 0.6947 0.85672 0.12666 0.0
C385 C 0.72119 0.93141 0.13566 0.0
C386 C 0.7203 0.89606 0.18652 0.0
C387 C 0.68978 0.87301 0.13935 0.0
O388 O 0.71711 0.92493 0.15068 0.0
O389 O 0.7203 0.90778 0.12299 0.0
O390 O 0.70628 0.82499 0.17006 0.0
O391 O 0.71471 0.8402 0.14592 0.0
Co392 Co 0.45819 0.1123 0.91795 0.0
O393 O 0.47165 0.11823 0.93139 0.0
O394 O 0.45719 0.08166 0.93898 0.0
C395 C 0.45586 0.17547 0.91094 0.0
O396 O 0.44275 0.1008 0.90731 0.0
Co397 Co 0.45923 0.13183 0.87879 0.0
O398 O 0.44278 0.12436 0.8802 0.0
C399 C 0.47047 0.06193 0.89177 0.0
C400 C 0.46734 0.09365 0.94224 0.0
C401 C 0.43773 0.10894 0.89298 0.0
O402 O 0.46526 0.06627 0.90611 0.0
O403 O 0.46992 0.08659 0.87943 0.0
O404 O 0.45246 0.163 0.92589 0.0
O405 O 0.46158 0.15079 0.902 0.0
Co406 Co 0.30079 0.62155 0.91775 0.0
O407 O 0.28748 0.61755 0.9316 0.0
O408 O 0.30226 0.65338 0.9384 0.0
C409 C 0.30264 0.55767 0.9115 0.0
O410 O 0.31614 0.6311 0.9065 0.0
Co411 Co 0.29899 0.59919 0.87898 0.0
O412 O 0.31549 0.60664 0.87956 0.0
C413 C 0.28884 0.67204 0.89112 0.0
C414 C 0.29207 0.64235 0.94207 0.0
C415 C 0.32083 0.62229 0.89201 0.0
O416 O 0.29402 0.66767 0.90549 0.0
O417 O 0.28887 0.64604 0.87927 0.0
O418 O 0.30638 0.57097 0.92611 0.0
O419 O 0.29689 0.5821 0.90248 0.0
Co420 Co 0.45995 0.62443 0.83586 0.0
O421 O 0.47325 0.61965 0.82202 0.0
O422 O 0.45842 0.65494 0.81485 0.0
C423 C 0.4582 0.56105 0.84297 0.0
O424 O 0.44459 0.63449 0.84705 0.0
Co425 Co 0.4618 0.60461 0.87494 0.0
O426 O 0.44526 0.61074 0.87411 0.0
C427 C 0.47241 0.67529 0.86151 0.0
C428 C 0.4686 0.6437 0.81127 0.0
C429 C 0.43988 0.62576 0.86154 0.0
O430 O 0.46674 0.67121 0.84756 0.0
O431 O 0.47252 0.64961 0.87348 0.0
O432 O 0.45448 0.57314 0.82814 0.0
O433 O 0.46388 0.58627 0.85164 0.0
Co434 Co 0.29983 0.11681 0.83303 0.0
O435 O 0.28696 0.12192 0.8183 0.0
O436 O 0.30165 0.08465 0.81255 0.0
C437 C 0.30195 0.18042 0.83944 0.0
O438 O 0.31478 0.10586 0.84529 0.0
Co439 Co 0.29711 0.13874 0.87166 0.0
O440 O 0.31362 0.1315 0.87196 0.0
C441 C 0.28709 0.06639 0.85892 0.0
C442 C 0.29163 0.09639 0.80826 0.0
C443 C 0.31919 0.11506 0.85994 0.0
O444 O 0.29239 0.07136 0.84471 0.0
O445 O 0.28716 0.09143 0.87115 0.0
O446 O 0.306 0.16677 0.82509 0.0
O447 O 0.29576 0.15656 0.84808 0.0
H448 H 0.02669 0.79401 0.11183 0.0
H449 H 0.01955 0.72899 0.10486 0.0
H450 H 0.02876 0.68836 0.15546 0.0
H451 H 0.03574 0.75317 0.16268 0.0
H452 H 0.03497 0.67062 0.10466 0.0
H453 H 0.99984 0.62834 0.14702 0.0
H454 H 1.00371 0.67881 0.14333 0.0
H455 H 0.01118 0.64974 0.15889 0.0
C456 C 0.02693 0.77155 0.12165 0.0
C457 C 0.03202 0.77853 0.13768 0.0
C458 C 0.02276 0.73451 0.11767 0.0
C459 C 0.02355 0.704 0.12968 0.0
C460 C 0.02785 0.71168 0.14612 0.0
H461 H 0.03861 0.46859 0.13991 0.0
H462 H 0.03103 0.53477 0.14273 0.0
C463 C 0.032 0.74868 0.15013 0.0
C464 C 0.02227 0.66304 0.12403 0.0
H465 H 0.01143 0.57501 0.13621 0.0
C466 C 0.02959 0.64979 0.11119 0.0
C467 C 0.01531 0.63609 0.13272 0.0
C468 C 0.00699 0.64907 0.14615 0.0
C469 C 0.03085 0.6099 0.10774 0.0
C470 C 0.02428 0.58261 0.11702 0.0
C471 C 0.01642 0.59603 0.12912 0.0
C472 C 0.02657 0.54024 0.11583 0.0
C473 C 0.03984 0.59737 0.09519 0.0
C474 C 0.0261 0.52089 0.09994 0.0
C475 C 0.03071 0.48359 0.09821 0.0
C476 C 0.03553 0.46474 0.11248 0.0
C477 C 0.03502 0.48265 0.12871 0.0
C478 C 0.03063 0.52032 0.13034 0.0
H479 H 0.04566 0.62168 0.09195 0.0
H480 H 0.04487 0.5728 0.1005 0.0
H481 H 0.03586 0.58739 0.08306 0.0
H482 H 0.02272 0.53544 0.0887 0.0
H483 H 0.0308 0.46995 0.08562 0.0
H484 H 0.23146 0.79332 0.14196 0.0
H485 H 0.23866 0.72834 0.14907 0.0
H486 H 0.23217 0.68995 0.09716 0.0
H487 H 0.22514 0.7547 0.08982 0.0
H488 H 0.22443 0.66608 0.14699 0.0
H489 H 0.26202 0.63679 0.10742 0.0
H490 H 0.25689 0.68572 0.1115 0.0
H491 H 0.25063 0.65609 0.09494 0.0
C492 C 0.23181 0.77135 0.13193 0.0
C493 C 0.22755 0.77904 0.11539 0.0
C494 C 0.23598 0.73431 0.13601 0.0
C495 C 0.23607 0.70452 0.1236 0.0
C496 C 0.23242 0.71275 0.10683 0.0
H497 H 0.22771 0.46358 0.11193 0.0
H498 H 0.23342 0.53205 0.10924 0.0
C499 C 0.22825 0.74971 0.10273 0.0
C500 C 0.23799 0.66349 0.12876 0.0
H501 H 0.25164 0.57985 0.11708 0.0
C502 C 0.23057 0.64734 0.1408 0.0
C503 C 0.24594 0.63923 0.12052 0.0
C504 C 0.25439 0.65545 0.10799 0.0
C505 C 0.23034 0.60706 0.14396 0.0
C506 C 0.23799 0.58243 0.13519 0.0
C507 C 0.24581 0.59884 0.1238 0.0
C508 C 0.23706 0.53941 0.13634 0.0
C509 C 0.22135 0.5911 0.15574 0.0
C510 C 0.23778 0.52047 0.1523 0.0
C511 C 0.23429 0.48171 0.15393 0.0
C512 C 0.23032 0.4611 0.13951 0.0
C513 C 0.23069 0.47889 0.12325 0.0
C514 C 0.23398 0.51793 0.1217 0.0
H515 H 0.21472 0.61308 0.1585 0.0
H516 H 0.21732 0.56487 0.15002 0.0
H517 H 0.2252 0.58245 0.16817 0.0
H518 H 0.24041 0.53632 0.16367 0.0
H519 H 0.23428 0.46836 0.16658 0.0
H520 H 0.97421 0.22986 0.8371 0.0
H521 H 0.97982 0.29634 0.84435 0.0
H522 H 0.98548 0.26138 0.89694 0.0
H523 H 0.97973 0.19469 0.88992 0.0
H524 H 0.96999 0.32052 0.89302 0.0
H525 H 0.00854 0.35561 0.85644 0.0
H526 H 0.99779 0.33358 0.84349 0.0
H527 H 1.00411 0.30595 0.86065 0.0
C528 C 0.97685 0.23601 0.85015 0.0
C529 C 0.97634 0.20706 0.86301 0.0
C530 C 0.9802 0.27398 0.85421 0.0
C531 C 0.98318 0.28361 0.87113 0.0
C532 C 0.9833 0.25433 0.88377 0.0
H533 H 0.9799 0.51533 0.91759 0.0
H534 H 0.9854 0.44725 0.91296 0.0
C535 C 0.97996 0.2163 0.87974 0.0
C536 C 0.98422 0.3251 0.87612 0.0
H537 H 0.99756 0.4105 0.86628 0.0
C538 C 0.97617 0.3401 0.88748 0.0
C539 C 0.99219 0.35048 0.86864 0.0
C540 C 1.00121 0.33554 0.85674 0.0
C541 C 0.97551 0.38016 0.89096 0.0
C542 C 0.98334 0.40577 0.88322 0.0
C543 C 0.99162 0.39069 0.87224 0.0
C544 C 0.98242 0.44852 0.88551 0.0
C545 C 0.96603 0.39488 0.90214 0.0
C546 C 0.97964 0.47227 0.87141 0.0
C547 C 0.97664 0.51135 0.87397 0.0
C548 C 0.97629 0.52694 0.89068 0.0
C549 C 0.97988 0.50381 0.9046 0.0
C550 C 0.98303 0.46499 0.90199 0.0
H551 H 0.95934 0.37259 0.90379 0.0
H552 H 0.96935 0.40221 0.91508 0.0
H553 H 0.96221 0.4217 0.89659 0.0
H554 H 0.97917 0.46001 0.85858 0.0
H555 H 0.97397 0.52858 0.86301 0.0
H556 H 0.78845 0.53571 0.89042 0.0
H557 H 0.78317 0.46753 0.89575 0.0
H558 H 0.77706 0.45114 0.84153 0.0
H559 H 0.78262 0.51877 0.83603 0.0
H560 H 0.76469 0.41667 0.88812 0.0
H561 H 0.8036 0.3785 0.85238 0.0
H562 H 0.80047 0.42777 0.85914 0.0
H563 H 0.79375 0.40752 0.84045 0.0
C564 C 0.78576 0.51779 0.8797 0.0
C565 C 0.78619 0.53216 0.86278 0.0
C566 C 0.78272 0.47895 0.88276 0.0
C567 C 0.77996 0.45429 0.86897 0.0
C568 C 0.77938 0.46964 0.85228 0.0
H569 H 0.78204 0.20123 0.86396 0.0
H570 H 0.77649 0.26847 0.85758 0.0
C571 C 0.78257 0.50819 0.84917 0.0
C572 C 0.77917 0.4117 0.87171 0.0
H573 H 0.79271 0.32636 0.86258 0.0
C574 C 0.77074 0.39678 0.88246 0.0
C575 C 0.78717 0.38605 0.8644 0.0
C576 C 0.79682 0.40068 0.85358 0.0
C577 C 0.77012 0.35658 0.88609 0.0
C578 C 0.77818 0.33112 0.87886 0.0
C579 C 0.78646 0.34602 0.86789 0.0
C580 C 0.77898 0.28941 0.88355 0.0
C581 C 0.76094 0.34167 0.89768 0.0
C582 C 0.78196 0.27891 0.90037 0.0
C583 C 0.78521 0.24061 0.90406 0.0
C584 C 0.7856 0.21225 0.89094 0.0
C585 C 0.78191 0.22237 0.87434 0.0
C586 C 0.77869 0.26072 0.87067 0.0
H587 H 0.75376 0.3624 0.89825 0.0
H588 H 0.75785 0.3127 0.89327 0.0
H589 H 0.76429 0.33819 0.91091 0.0
H590 H 0.78245 0.30083 0.91041 0.0
H591 H 0.78789 0.23374 0.91703 0.0
H592 H 0.03195 0.96407 0.64204 0.0
H593 H 0.02469 0.03058 0.64436 0.0
H594 H 0.01855 0.03264 0.58962 0.0
H595 H 0.02628 0.96666 0.58716 0.0
H596 H 0.032 0.08811 0.59832 0.0
H597 H 0.9966 0.09372 0.64366 0.0
H598 H 0.00794 0.06687 0.65311 0.0
H599 H 1.00122 0.04844 0.63395 0.0
C600 C 0.02876 0.97832 0.6306 0.0
C601 C 0.02986 0.96066 0.6144 0.0
C602 C 0.02447 0.0162 0.63195 0.0
C603 C 0.02096 0.03652 0.61718 0.0
C604 C 0.02118 0.01748 0.60119 0.0
H605 H 0.02649 0.29219 0.61259 0.0
H606 H 0.01814 0.22878 0.60571 0.0
C607 C 0.02566 0.97995 0.59978 0.0
C608 C 0.01947 0.07946 0.61793 0.0
H609 H 0.00863 0.15237 0.64288 0.0
C610 C 0.0266 0.10228 0.60766 0.0
C611 C 0.01245 0.09792 0.63015 0.0
C612 C 1.00405 0.07534 0.64069 0.0
C613 C 0.02765 0.14255 0.6103 0.0
C614 C 0.02126 0.16054 0.62342 0.0
C615 C 0.01353 0.13833 0.63288 0.0
C616 C 0.02385 0.20068 0.62905 0.0
C617 C 0.03627 0.16487 0.59999 0.0
C618 C 0.02931 0.20614 0.64483 0.0
C619 C 0.03408 0.24221 0.64883 0.0
C620 C 0.03349 0.27338 0.63706 0.0
C621 C 0.02727 0.26858 0.62181 0.0
C622 C 0.02245 0.23247 0.61787 0.0
H623 H 0.04159 0.14528 0.59201 0.0
H624 H 0.03195 0.18568 0.59125 0.0
H625 H 0.04181 0.18203 0.60864 0.0
H626 H 0.03046 0.18183 0.65361 0.0
H627 H 0.03864 0.24503 0.66082 0.0
H628 H 0.2217 0.98968 0.66373 0.0
H629 H 0.22962 0.05357 0.65695 0.0
H630 H 0.24235 0.00862 0.60894 0.0
H631 H 0.23428 0.94456 0.6154 0.0
H632 H 0.25134 0.08534 0.6461 0.0
H633 H 0.21794 0.08993 0.59585 0.0
H634 H 0.21812 0.05317 0.61248 0.0
H635 H 0.22779 0.05019 0.59481 0.0
C636 C 0.22632 0.99308 0.65183 0.0
C637 C 0.22707 0.96232 0.63986 0.0
C638 C 0.23094 0.02954 0.64807 0.0
C639 C 0.2364 0.03575 0.63236 0.0
C640 C 0.23803 0.00432 0.62105 0.0
H641 H 0.23395 0.26779 0.58831 0.0
H642 H 0.24137 0.20165 0.59184 0.0
C643 C 0.23336 0.96785 0.62474 0.0
C644 C 0.23865 0.07618 0.6268 0.0
H645 H 0.22756 0.1475 0.60144 0.0
C646 C 0.24633 0.09895 0.6361 0.0
C647 C 0.23209 0.09361 0.61373 0.0
C648 C 0.22346 0.0707 0.60367 0.0
C649 C 0.24729 0.13932 0.63311 0.0
C650 C 0.24021 0.15713 0.62079 0.0
C651 C 0.23303 0.1338 0.61083 0.0
C652 C 0.23883 0.20001 0.61941 0.0
C653 C 0.25568 0.16252 0.64342 0.0
C654 C 0.23535 0.2216 0.63383 0.0
C655 C 0.23123 0.25957 0.63187 0.0
C656 C 0.23028 0.27606 0.6154 0.0
C657 C 0.23444 0.25544 0.60113 0.0
C658 C 0.23876 0.21782 0.60314 0.0
H659 H 0.26309 0.14429 0.64675 0.0
H660 H 0.25856 0.18886 0.63634 0.0
H661 H 0.25174 0.17201 0.65566 0.0
H662 H 0.23503 0.20818 0.64644 0.0
H663 H 0.22806 0.27487 0.64307 0.0
H664 H 0.97275 0.00388 0.41585 0.0
H665 H 0.97879 0.93771 0.40889 0.0
H666 H 0.98622 0.97362 0.35695 0.0
H667 H 0.98001 0.04004 0.36366 0.0
H668 H 0.97095 0.91413 0.35914 0.0
H669 H 0.00791 0.87908 0.39936 0.0
H670 H 0.99666 0.90044 0.41148 0.0
H671 H 1.00351 0.92875 0.39504 0.0
C672 C 0.97587 -0.00198 0.40301 0.0
C673 C 0.97572 0.02715 0.39022 0.0
C674 C 0.97946 0.96021 0.39914 0.0
C675 C 0.98307 0.95092 0.38247 0.0
C676 C 0.98355 0.98039 0.36993 0.0
H677 H 0.98085 0.71783 0.33692 0.0
H678 H 0.98664 0.78566 0.34142 0.0
C679 C 0.97994 0.01827 0.37378 0.0
C680 C 0.98441 0.90951 0.37749 0.0
H681 H 0.99718 0.82398 0.38892 0.0
C682 C 0.97687 0.89452 0.36534 0.0
C683 C 0.99203 0.88409 0.3858 0.0
C684 C 1.00056 0.89898 0.39853 0.0
C685 C 0.97629 0.85441 0.36193 0.0
C686 C 0.98371 0.82872 0.37058 0.0
C687 C 0.99155 0.84383 0.38228 0.0
C688 C 0.98269 0.78593 0.36859 0.0
C689 C 0.96728 0.83975 0.34988 0.0
C690 C 0.97929 0.76303 0.38263 0.0
C691 C 0.97615 0.72407 0.38017 0.0
C692 C 0.97626 0.70779 0.36358 0.0
C693 C 0.98047 0.72996 0.34979 0.0
C694 C 0.98379 0.76863 0.35233 0.0
H695 H 0.96075 0.86228 0.34739 0.0
H696 H 0.97112 0.83181 0.33736 0.0
H697 H 0.96312 0.81331 0.35519 0.0
H698 H 0.97844 0.77592 0.3953 0.0
H699 H 0.97299 0.70756 0.39102 0.0
H700 H 0.78293 0.72108 0.41993 0.0
H701 H 0.77665 0.78864 0.41658 0.0
H702 H 0.77963 0.77794 0.36145 0.0
H703 H 0.78562 0.71002 0.36467 0.0
H704 H 0.79046 0.84154 0.40352 0.0
H705 H 0.75146 0.84254 0.36518 0.0
H706 H 0.75659 0.79902 0.3758 0.0
H707 H 0.76211 0.81332 0.35517 0.0
C708 C 0.78201 0.73285 0.40706 0.0
C709 C 0.78491 0.71045 0.39255 0.0
C710 C 0.77836 0.77137 0.40518 0.0
C711 C 0.77758 0.78822 0.38877 0.0
C712 C 0.77989 0.76527 0.37422 0.0
H713 H 0.788 0.0025 0.34014 0.0
H714 H 0.78242 0.93676 0.34871 0.0
C715 C 0.78343 0.72653 0.37608 0.0
C716 C 0.77626 0.83106 0.38701 0.0
H717 H 0.76269 0.90183 0.36406 0.0
C718 C 0.7842 0.85486 0.39524 0.0
C719 C 0.76813 0.84827 0.37615 0.0
C720 C 0.75902 0.82442 0.36772 0.0
C721 C 0.7847 0.89509 0.39205 0.0
C722 C 0.77692 0.91203 0.38053 0.0
C723 C 0.76863 0.88863 0.3729 0.0
C724 C 0.77819 0.95293 0.37481 0.0
C725 C 0.79401 0.91867 0.40019 0.0
C726 C 0.77725 0.98395 0.38653 0.0
C727 C 0.78055 0.02161 0.38175 0.0
C728 C 0.78479 0.02874 0.36515 0.0
C729 C 0.78494 -0.002 0.35311 0.0
C730 C 0.78167 0.96041 0.35792 0.0
H731 H 0.8004 0.8998 0.40648 0.0
H732 H 0.79827 0.93711 0.3904 0.0
H733 H 0.79043 0.93836 0.41011 0.0
H734 H 0.77444 0.97868 0.39957 0.0
H735 H 0.78019 0.0447 0.39127 0.0
H736 H 0.53244 0.80507 0.60925 0.0
H737 H 0.52618 0.74023 0.60008 0.0
H738 H 0.52871 0.69881 0.65234 0.0
H739 H 0.53482 0.76332 0.66169 0.0
H740 H 0.54042 0.67814 0.60409 0.0
H741 H 0.5001 0.64539 0.63594 0.0
H742 H 0.50528 0.69473 0.63324 0.0
H743 H 0.51022 0.66478 0.65073 0.0
C744 C 0.53139 0.78244 0.61887 0.0
C745 C 0.53429 0.7892 0.63617 0.0
C746 C 0.52777 0.74548 0.6136 0.0
C747 C 0.52686 0.71492 0.62556 0.0
C748 C 0.52911 0.72221 0.64297 0.0
H749 H 0.53588 0.47542 0.6384 0.0
H750 H 0.52993 0.54384 0.63981 0.0
C751 C 0.53276 0.75904 0.64824 0.0
C752 C 0.52555 0.67412 0.61965 0.0
H753 H 0.51165 0.58926 0.62846 0.0
C754 C 0.53396 0.65882 0.60901 0.0
C755 C 0.51714 0.64913 0.6262 0.0
C756 C 0.50761 0.66446 0.63703 0.0
C757 C 0.53472 0.61862 0.6058 0.0
C758 C 0.52664 0.59325 0.6131 0.0
C759 C 0.51783 0.60883 0.62291 0.0
C760 C 0.52804 0.55036 0.61226 0.0
C761 C 0.54463 0.60349 0.59568 0.0
C762 C 0.52846 0.53107 0.59636 0.0
C763 C 0.53204 0.49226 0.5955 0.0
C764 C 0.53504 0.47199 0.61057 0.0
C765 C 0.53368 0.49038 0.62659 0.0
C766 C 0.53025 0.52939 0.62741 0.0
H767 H 0.5512 0.62619 0.5939 0.0
H768 H 0.54849 0.57789 0.6022 0.0
H769 H 0.54178 0.59404 0.58275 0.0
H770 H 0.52654 0.54657 0.58457 0.0
H771 H 0.5328 0.47853 0.58299 0.0
H772 H 0.72929 0.79428 0.6428 0.0
H773 H 0.73597 0.72911 0.65078 0.0
H774 H 0.73126 0.68993 0.59853 0.0
H775 H 0.72475 0.75482 0.59036 0.0
H776 H 0.72163 0.66725 0.64767 0.0
H777 H 0.76052 0.636 0.61151 0.0
H778 H 0.7554 0.68517 0.615 0.0
H779 H 0.74968 0.65552 0.59799 0.0
C780 C 0.72993 0.77208 0.63291 0.0
C781 C 0.72632 0.77959 0.616 0.0
C782 C 0.73379 0.73493 0.63749 0.0
C783 C 0.73423 0.70489 0.6252 0.0
C784 C 0.73123 0.71292 0.60813 0.0
H785 H 0.72571 0.46336 0.61411 0.0
H786 H 0.7313 0.53194 0.6114 0.0
C787 C 0.72736 0.74996 0.60354 0.0
C788 C 0.73583 0.66389 0.63065 0.0
H789 H 0.74963 0.57959 0.62039 0.0
C790 C 0.72793 0.6482 0.64207 0.0
C791 C 0.74399 0.63923 0.62317 0.0
C792 C 0.75295 0.65494 0.61136 0.0
C793 C 0.72747 0.60799 0.64533 0.0
C794 C 0.73535 0.58298 0.6373 0.0
C795 C 0.74362 0.5989 0.62653 0.0
C796 C 0.73432 0.54004 0.63863 0.0
C797 C 0.71806 0.59247 0.65642 0.0
C798 C 0.73469 0.52158 0.65471 0.0
C799 C 0.7313 0.48273 0.65634 0.0
C800 C 0.72772 0.46157 0.64182 0.0
C801 C 0.72837 0.47905 0.62551 0.0
C802 C 0.73159 0.51815 0.62394 0.0
H803 H 0.7114 0.6147 0.65859 0.0
H804 H 0.71416 0.56628 0.65045 0.0
H805 H 0.72146 0.58385 0.66915 0.0
H806 H 0.73702 0.53782 0.66613 0.0
H807 H 0.73109 0.46969 0.66904 0.0
H808 H 0.47454 0.52851 0.36278 0.0
H809 H 0.48045 0.4605 0.3587 0.0
H810 H 0.48733 0.45064 0.41301 0.0
H811 H 0.4811 0.51807 0.41729 0.0
H812 H 0.49935 0.41339 0.36624 0.0
H813 H 0.46196 0.37269 0.40515 0.0
H814 H 0.46429 0.42182 0.39754 0.0
H815 H 0.47183 0.40379 0.41594 0.0
C816 C 0.47751 0.51205 0.37378 0.0
C817 C 0.47713 0.52817 0.39039 0.0
C818 C 0.48091 0.4733 0.37143 0.0
C819 C 0.48408 0.45045 0.38563 0.0
C820 C 0.48467 0.46763 0.40197 0.0
H821 H 0.48272 0.1967 0.39112 0.0
H822 H 0.48866 0.26339 0.39779 0.0
C823 C 0.4811 0.50607 0.40438 0.0
C824 C 0.48538 0.40775 0.38364 0.0
H825 H 0.47288 0.32149 0.39433 0.0
C826 C 0.49366 0.39317 0.3725 0.0
C827 C 0.47788 0.38158 0.39178 0.0
C828 C 0.46842 0.39564 0.40315 0.0
C829 C 0.49451 0.35292 0.3691 0.0
C830 C 0.48684 0.32699 0.37695 0.0
C831 C 0.47883 0.3415 0.3885 0.0
C832 C 0.48595 0.2854 0.37203 0.0
C833 C 0.50348 0.33855 0.35698 0.0
C834 C 0.48273 0.27559 0.35523 0.0
C835 C 0.47928 0.23762 0.35138 0.0
C836 C 0.47889 0.20888 0.36433 0.0
C837 C 0.48284 0.21817 0.38088 0.0
C838 C 0.48629 0.25622 0.38471 0.0
H839 H 0.51067 0.35915 0.35647 0.0
H840 H 0.50659 0.30919 0.36083 0.0
H841 H 0.49992 0.33631 0.34382 0.0
H842 H 0.48218 0.29786 0.34534 0.0
H843 H 0.4764 0.23138 0.33845 0.0
H844 H 0.2866 0.50661 0.34254 0.0
H845 H 0.27954 0.44265 0.35094 0.0
H846 H 0.27286 0.48575 0.40208 0.0
H847 H 0.28008 0.54996 0.3939 0.0
H848 H 0.28736 0.42459 0.40127 0.0
H849 H 0.25016 0.38813 0.36215 0.0
H850 H 0.2613 0.40734 0.34918 0.0
H851 H 0.25489 0.43788 0.3653 0.0
C852 C 0.28343 0.50283 0.35549 0.0
C853 C 0.28412 0.5332 0.36765 0.0
C854 C 0.27923 0.46634 0.36019 0.0
C855 C 0.27555 0.45964 0.37707 0.0
C856 C 0.27556 0.49054 0.38894 0.0
H857 H 0.2814 0.22381 0.42006 0.0
H858 H 0.274 0.29047 0.41804 0.0
C859 C 0.27977 0.52711 0.38426 0.0
C860 C 0.2739 0.41904 0.38299 0.0
H861 H 0.26147 0.3329 0.37184 0.0
C862 C 0.28148 0.40465 0.39523 0.0
C863 C 0.26626 0.39326 0.37498 0.0
C864 C 0.25762 0.40757 0.36229 0.0
C865 C 0.28232 0.36458 0.39863 0.0
C866 C 0.2751 0.33838 0.38988 0.0
C867 C 0.26698 0.35308 0.3785 0.0
C868 C 0.27697 0.29572 0.39068 0.0
C869 C 0.29155 0.35057 0.41045 0.0
C870 C 0.28032 0.27581 0.37575 0.0
C871 C 0.28434 0.23755 0.3768 0.0
C872 C 0.28518 0.21896 0.39284 0.0
C873 C 0.28106 0.23791 0.40759 0.0
C874 C 0.27683 0.27588 0.40646 0.0
H875 H 0.29771 0.37402 0.41339 0.0
H876 H 0.28784 0.34069 0.42279 0.0
H877 H 0.29614 0.32554 0.40466 0.0
H878 H 0.28046 0.29064 0.36343 0.0
H879 H 0.2874 0.22348 0.36522 0.0
H880 H 0.52822 0.26538 0.16759 0.0
H881 H 0.52081 0.19869 0.16633 0.0
H882 H 0.52752 0.19497 0.1118 0.0
H883 H 0.53446 0.2622 0.11284 0.0
H884 H 0.50853 0.15319 0.12055 0.0
H885 H 0.54457 0.115 0.16313 0.0
H886 H 0.53454 0.14869 0.17188 0.0
H887 H 0.54302 0.16293 0.15382 0.0
C888 C 0.52792 0.25049 0.15529 0.0
C889 C 0.53212 0.26846 0.14035 0.0
C890 C 0.52369 0.2125 0.1546 0.0
C891 C 0.52391 0.19165 0.13907 0.0
C892 C 0.52732 0.21059 0.12393 0.0
H893 H 0.53499 0.98259 0.09161 0.0
H894 H 0.52735 0.04563 0.10019 0.0
C895 C 0.53134 0.24888 0.12454 0.0
C896 C 0.5221 0.14894 0.13877 0.0
H897 H 0.53471 0.06371 0.15078 0.0
C898 C 0.51409 0.13349 0.12741 0.0
C899 C 0.52935 0.12336 0.14782 0.0
C900 C 0.53841 0.13817 0.15976 0.0
C901 C 0.5136 0.0932 0.12407 0.0
C902 C 0.52137 0.06808 0.13223 0.0
C903 C 0.52875 0.08316 0.14459 0.0
C904 C 0.52343 0.02777 0.12622 0.0
C905 C 0.5051 0.07809 0.11136 0.0
C906 C 0.5237 -0.0033 0.138 0.0
C907 C 0.52823 0.96064 0.13321 0.0
C908 C 0.53267 0.95528 0.1166 0.0
C909 C 0.53176 0.98581 0.10456 0.0
C910 C 0.52722 0.02177 0.10936 0.0
H911 H 0.49747 0.09679 0.11124 0.0
H912 H 0.50878 0.07882 0.09825 0.0
H913 H 0.50263 0.0475 0.11432 0.0
H914 H 0.52092 0.00097 0.15113 0.0
H915 H 0.52872 0.93765 0.14277 0.0
H916 H 0.71679 0.985 0.1111 0.0
H917 H 0.7249 0.05005 0.10847 0.0
H918 H 0.7474 0.02491 0.1507 0.0
H919 H 0.73842 0.96092 0.15429 0.0
H920 H 0.74012 0.08955 0.15636 0.0
H921 H 0.75114 0.09858 0.08854 0.0
H922 H 0.73687 0.0828 0.08855 0.0
H923 H 0.74757 0.0522 0.09819 0.0
C924 C 0.72358 0.99333 0.11961 0.0
C925 C 0.72701 0.96846 0.13288 0.0
C926 C 0.72837 0.03026 0.11795 0.0
C927 C 0.73705 0.04226 0.12904 0.0
C928 C 0.74079 0.01643 0.1419 0.0
H929 H 0.73943 0.28754 0.10179 0.0
H930 H 0.74869 0.22486 0.10773 0.0
C931 C 0.73568 0.97999 0.14397 0.0
C932 C 0.74089 0.08354 0.12868 0.0
H933 H 0.74234 0.15978 0.10072 0.0
C934 C 0.741 0.1047 0.14418 0.0
C935 C 0.74271 0.10374 0.11304 0.0
C936 C 0.74472 0.08282 0.09623 0.0
C937 C 0.74129 0.14565 0.14419 0.0
C938 C 0.74072 0.16578 0.12832 0.0
C939 C 0.74225 0.14466 0.11298 0.0
C940 C 0.7367 0.20679 0.12715 0.0
C941 C 0.74175 0.16665 0.16125 0.0
C942 C 0.72703 0.21807 0.1363 0.0
C943 C 0.72204 0.2543 0.13336 0.0
C944 C 0.72635 0.27912 0.1207 0.0
C945 C 0.73604 0.2685 0.11165 0.0
C946 C 0.7413 0.2328 0.11504 0.0
H947 H 0.74758 0.15129 0.17014 0.0
H948 H 0.74457 0.19745 0.15984 0.0
H949 H 0.73334 0.16614 0.16732 0.0
H950 H 0.72295 0.19811 0.1451 0.0
H951 H 0.71445 0.26196 0.14025 0.0
H952 H 0.48597 0.69514 0.88862 0.0
H953 H 0.4933 0.76014 0.89536 0.0
H954 H 0.47966 0.80467 0.84786 0.0
H955 H 0.47249 0.7399 0.84079 0.0
H956 H 0.50086 0.83966 0.85837 0.0
H957 H 0.46816 0.83691 0.90971 0.0
H958 H 0.47864 0.79911 0.91022 0.0
H959 H 0.46866 0.80057 0.89293 0.0
C960 C 0.4847 0.71857 0.87944 0.0
C961 C 0.47837 0.7126 0.86439 0.0
C962 C 0.48895 0.7556 0.88329 0.0
C963 C 0.48684 0.78712 0.87223 0.0
C964 C 0.48135 0.78059 0.85656 0.0
H965 H 0.47463 0.0237 0.86167 0.0
H966 H 0.48257 0.95832 0.85842 0.0
C967 C 0.47717 0.74359 0.85263 0.0
C968 C 0.48859 0.82772 0.878 0.0
H969 H 0.47664 0.89643 0.90383 0.0
C970 C 0.49577 0.85211 0.86855 0.0
C971 C 0.48194 0.84365 0.89133 0.0
C972 C 0.47385 0.81892 0.90161 0.0
C973 C 0.49607 0.89258 0.87159 0.0
C974 C 0.48883 0.90882 0.8841 0.0
C975 C 0.48222 0.88396 0.89427 0.0
C976 C 0.48664 0.95132 0.88543 0.0
C977 C 0.50393 0.91752 0.86108 0.0
C978 C 0.48633 0.96929 0.90166 0.0
C979 C 0.48145 0.0061 0.90361 0.0
C980 C 0.47696 0.02576 0.88931 0.0
C981 C 0.47805 0.00914 0.87289 0.0
C982 C 0.48273 0.97195 0.87099 0.0
H983 H 0.51165 0.90099 0.8577 0.0
H984 H 0.49974 0.92582 0.84886 0.0
H985 H 0.50635 0.94461 0.86803 0.0
H986 H 0.48926 0.95384 0.91298 0.0
H987 H 0.48085 0.01859 0.91639 0.0
H988 H 0.27844 0.69597 0.86146 0.0
H989 H 0.27208 0.76211 0.85451 0.0
H990 H 0.28051 0.8003 0.90575 0.0
H991 H 0.28675 0.73434 0.91299 0.0
H992 H 0.26016 0.83582 0.89058 0.0
H993 H 0.29834 0.84199 0.84931 0.0
H994 H 0.28869 0.80276 0.8451 0.0
H995 H 0.29622 0.80404 0.86509 0.0
C996 C 0.27874 0.7182 0.87138 0.0
C997 C 0.28335 0.71006 0.88766 0.0
C998 C 0.27507 0.75591 0.86738 0.0
C999 C 0.27599 0.78598 0.87956 0.0
C1000 C 0.27976 0.77736 0.89619 0.0
H1001 H 0.28202 0.03045 0.88936 0.0
H1002 H 0.2761 0.9626 0.89318 0.0
C1003 C 0.28341 0.73969 0.90024 0.0
C1004 C 0.2746 0.82719 0.87439 0.0
H1005 H 0.2878 0.89916 0.85191 0.0
C1006 C 0.26608 0.84972 0.88194 0.0
C1007 C 0.2824 0.84504 0.86318 0.0
C1008 C 0.29199 0.82244 0.85526 0.0
C1009 C 0.26527 0.89008 0.87874 0.0
C1010 C 0.27331 0.90811 0.86799 0.0
C1011 C 0.28158 0.88519 0.86003 0.0
C1012 C 0.27415 0.95101 0.86595 0.0
C1013 C 0.25591 0.91305 0.887 0.0
C1014 C 0.27485 0.96718 0.8494 0.0
C1015 C 0.27846 0.00562 0.84718 0.0
C1016 C 0.28138 0.02861 0.86149 0.0
C1017 C 0.27981 0.01342 0.87811 0.0
C1018 C 0.27633 0.97473 0.88031 0.0
H1019 H 0.24856 0.89409 0.88972 0.0
H1020 H 0.25889 0.92514 0.89943 0.0
H1021 H 0.25319 0.93776 0.87871 0.0
H1022 H 0.27324 0.94932 0.83815 0.0
H1023 H 0.27943 0.01676 0.83421 0.0
H1024 H 0.96371 0.53127 0.96463 0.0
H1025 H 0.97601 0.49632 0.98486 0.0
H1026 H 1.00173 0.58309 0.97705 0.0
H1027 H 0.98954 0.61815 0.95715 0.0
H1028 H 0.9969 0.464 0.9773 0.0
H1029 H 1.00123 0.57422 0.02911 0.0
H1030 H 0.99036 0.57696 0.01299 0.0
H1031 H 1.00433 0.59351 0.00818 0.0
C1032 C 0.97189 0.54334 0.96755 0.0
C1033 C 0.97561 0.57764 0.95934 0.0
C1034 C 0.97894 0.52321 0.97902 0.0
C1035 C 0.98977 0.53727 0.98265 0.0
C1036 C 0.99336 0.57201 0.97477 0.0
H1037 H 0.04856 0.45728 0.03946 0.0
H1038 H 0.03556 0.49058 0.0198 0.0
C1039 C 0.98636 0.59198 0.96331 0.0
C1040 C 0.99765 0.51461 0.99376 0.0
H1041 H 0.0145 0.52189 0.02922 0.0
C1042 C 1.00067 0.47651 0.98875 0.0
C1043 C 1.00264 0.53099 0.00864 0.0
C1044 C 0.9994 0.57102 0.01516 0.0
C1045 C 0.00871 0.45478 0.99797 0.0
C1046 C 0.01378 0.47134 0.01274 0.0
C1047 C 0.0107 0.50931 0.01781 0.0
C1048 C 0.02201 0.44935 0.02347 0.0
C1049 C 0.01191 0.41464 0.99155 0.0
C1050 C 0.01877 0.41492 0.03196 0.0
C1051 C 0.02617 0.39587 0.04315 0.0
C1052 C 0.03699 0.41083 0.04616 0.0
C1053 C 0.04034 0.44473 0.03729 0.0
C1054 C 0.03289 0.46393 0.02614 0.0
H1055 H 0.00963 0.41054 0.97781 0.0
H1056 H 0.02106 0.40945 0.99306 0.0
H1057 H 0.00739 0.39221 0.99919 0.0
H1058 H 0.01037 0.40344 0.03038 0.0
H1059 H 0.02328 0.37 0.04986 0.0
H1060 H 0.27126 0.62068 0.95286 0.0
H1061 H 0.25896 0.65483 0.97295 0.0
H1062 H 0.28507 0.73882 0.9832 0.0
H1063 H 0.29745 0.70497 0.96279 0.0
H1064 H 0.26071 0.67283 0.00755 0.0
H1065 H 0.25888 0.80812 0.96807 0.0
H1066 H 0.26458 0.76277 0.95998 0.0
H1067 H 0.27278 0.79311 0.97407 0.0
C1068 C 0.27446 0.64621 0.95949 0.0
C1069 C 0.28534 0.66021 0.95612 0.0
C1070 C 0.26739 0.66573 0.97099 0.0
C1071 C 0.27098 0.69987 0.97935 0.0
C1072 C 0.28202 0.71302 0.97662 0.0
H1073 H 0.23943 0.86302 0.04936 0.0
H1074 H 0.25161 0.82802 0.0294 0.0
C1075 C 0.28913 0.69341 0.96508 0.0
C1076 C 0.26304 0.72188 0.99056 0.0
H1077 H 0.24966 0.80987 0.99501 0.0
C1078 C 0.25827 0.70277 0.00479 0.0
C1079 C 0.25979 0.76088 0.9869 0.0
C1080 C 0.26418 0.78241 0.97135 0.0
C1081 C 0.25057 0.72182 0.01566 0.0
C1082 C 0.24734 0.76086 0.01202 0.0
C1083 C 0.25209 0.77992 0.99776 0.0
C1084 C 0.23949 0.78308 0.02331 0.0
C1085 C 0.24617 0.70029 0.03121 0.0
C1086 C 0.22844 0.77022 0.02619 0.0
C1087 C 0.22139 0.79033 0.03766 0.0
C1088 C 0.22526 0.82375 0.04639 0.0
C1089 C 0.23616 0.83735 0.0429 0.0
C1090 C 0.24317 0.81733 0.03148 0.0
H1091 H 0.25144 0.67448 0.03445 0.0
H1092 H 0.24582 0.71989 0.04259 0.0
H1093 H 0.23755 0.68976 0.02851 0.0
H1094 H 0.22531 0.74434 0.01975 0.0
H1095 H 0.21305 0.77906 0.04006 0.0
H1096 H 0.04713 0.77952 0.21146 0.0
H1097 H 0.03457 0.74524 0.23147 0.0
H1098 H 0.00914 0.83283 0.22298 0.0
H1099 H 0.02152 0.86687 0.20297 0.0
H1100 H 0.02327 0.76953 0.26188 0.0
H1101 H 0.99306 0.73074 0.21032 0.0
H1102 H 0.00701 0.74839 0.20579 0.0
H1103 H 0.9961 0.78208 0.2118 0.0
C1104 C 0.03893 0.79175 0.21405 0.0
C1105 C 0.03531 0.8258 0.20552 0.0
C1106 C 0.03174 0.77205 0.22543 0.0
C1107 C 0.02081 0.78595 0.22841 0.0
C1108 C 0.01742 0.82099 0.22057 0.0
H1109 H 0.96363 0.7042 0.28917 0.0
H1110 H 0.97607 0.73982 0.26942 0.0
C1111 C 0.02456 0.84059 0.20921 0.0
C1112 C 0.01285 0.76364 0.23944 0.0
H1113 H 0.98747 0.71692 0.23897 0.0
C1114 C 0.01547 0.75786 0.25686 0.0
C1115 C 1.00263 0.74854 0.2329 0.0
C1116 C 0.99954 0.75237 0.21415 0.0
C1117 C 0.00809 0.73799 0.26795 0.0
C1118 C 0.9979 0.72277 0.2614 0.0
C1119 C 0.99526 0.72865 0.244 0.0
C1120 C 0.99003 0.69987 0.27235 0.0
C1121 C 0.01118 0.73417 0.28671 0.0
C1122 C 0.99358 0.66485 0.28004 0.0
C1123 C 0.98651 0.64449 0.29123 0.0
C1124 C 0.97566 0.65847 0.29492 0.0
C1125 C 0.9719 0.69256 0.28657 0.0
C1126 C 0.97903 0.71304 0.27534 0.0
H1127 H 0.01757 0.75614 0.29057 0.0
H1128 H 1.0037 0.73766 0.29506 0.0
H1129 H 0.01477 0.70465 0.28901 0.0
H1130 H 1.00192 0.65356 0.2776 0.0
H1131 H 0.98967 0.61821 0.29734 0.0
H1132 H 0.21496 0.45467 0.21231 0.0
H1133 H 0.22725 0.48876 0.23278 0.0
H1134 H 0.25279 0.40122 0.22495 0.0
H1135 H 0.24067 0.36731 0.20453 0.0
H1136 H 0.23832 0.46345 0.26361 0.0
H1137 H 0.26884 0.50422 0.21279 0.0
H1138 H 0.2549 0.48683 0.20794 0.0
H1139 H 0.26575 0.45286 0.21388 0.0
C1140 C 0.22312 0.44237 0.21516 0.0
C1141 C 0.22684 0.40836 0.2067 0.0
C1142 C 0.23016 0.46198 0.2268 0.0
C1143 C 0.24105 0.44803 0.2301 0.0
C1144 C 0.24454 0.41306 0.22231 0.0
H1145 H 0.29788 0.52861 0.29185 0.0
H1146 H 0.28547 0.49341 0.27189 0.0
C1147 C 0.23754 0.39352 0.21072 0.0
C1148 C 0.24888 0.47024 0.24139 0.0
H1149 H 0.2742 0.5173 0.24161 0.0
C1150 C 0.24613 0.4754 0.25879 0.0
C1151 C 0.25911 0.48572 0.2351 0.0
C1152 C 0.26232 0.48251 0.21638 0.0
C1153 C 0.25342 0.49496 0.27014 0.0
C1154 C 0.26365 0.51051 0.26385 0.0
C1155 C 0.26639 0.50531 0.24645 0.0
C1156 C 0.27145 0.533 0.27509 0.0
C1157 C 0.25021 0.49805 0.28887 0.0
C1158 C 0.26785 0.56764 0.28305 0.0
C1159 C 0.2749 0.58775 0.29437 0.0
C1160 C 0.28577 0.57389 0.29793 0.0
C1161 C 0.28957 0.54011 0.28938 0.0
C1162 C 0.28247 0.5199 0.27802 0.0
H1163 H 0.24384 0.47583 0.29248 0.0
H1164 H 0.25765 0.49436 0.29731 0.0
H1165 H 0.24658 0.52742 0.29133 0.0
H1166 H 0.2595 0.5789 0.28067 0.0
H1167 H 0.27171 0.6138 0.30063 0.0
H1168 H 0.79933 0.20461 0.96599 0.0
H1169 H 0.78734 0.23773 0.98723 0.0
H1170 H 0.76117 0.15339 0.97786 0.0
H1171 H 0.77306 0.12008 0.95702 0.0
H1172 H 0.76666 0.27201 0.98074 0.0
H1173 H 0.76189 0.15603 0.02994 0.0
H1174 H 0.77265 0.15436 0.01362 0.0
H1175 H 0.75855 0.13944 0.00866 0.0
C1176 C 0.79112 0.19267 0.96877 0.0
C1177 C 0.78719 0.15959 0.95987 0.0
C1178 C 0.78425 0.21174 0.98082 0.0
C1179 C 0.77339 0.19781 0.98432 0.0
C1180 C 0.76959 0.16427 0.97571 0.0
H1181 H 0.71506 0.27539 0.04289 0.0
H1182 H 0.72796 0.24257 0.0229 0.0
C1183 C 0.7764 0.14534 0.9637 0.0
C1184 C 0.76568 0.21956 0.996 0.0
H1185 H 0.74884 0.20901 0.0313 0.0
C1186 C 0.76285 0.25837 0.9919 0.0
C1187 C 0.76063 0.20168 0.01049 0.0
C1188 C 0.76366 0.16071 0.01605 0.0
C1189 C 0.75494 0.27942 0.00163 0.0
C1190 C 0.74981 0.26141 0.01601 0.0
C1191 C 0.75269 0.22271 0.02019 0.0
C1192 C 0.74172 0.28262 0.02727 0.0
C1193 C 0.75192 0.32045 0.99613 0.0
C1194 C 0.74514 0.31607 0.03631 0.0
C1195 C 0.7378 0.33484 0.04766 0.0
C1196 C 0.72687 0.32052 0.05032 0.0
C1197 C 0.72338 0.28736 0.04104 0.0
C1198 C 0.73076 0.26848 0.02968 0.0
H1199 H 0.75412 0.32589 0.98246 0.0
H1200 H 0.74282 0.32615 0.9979 0.0
H1201 H 0.75664 0.34168 0.00414 0.0
H1202 H 0.7536 0.32713 0.03495 0.0
H1203 H 0.74081 0.36014 0.05467 0.0
H1204 H 0.98943 0.11724 0.79609 0.0
H1205 H 1.00168 0.15187 0.77613 0.0
H1206 H 0.97593 0.23842 0.76773 0.0
H1207 H 0.96358 0.20397 0.78801 0.0
H1208 H 0.99949 0.1724 0.74176 0.0
H1209 H 1.00283 0.30442 0.78316 0.0
H1210 H 0.99698 0.25892 0.7908 0.0
H1211 H 0.98878 0.2908 0.77739 0.0
C1212 C 0.98629 0.14344 0.78989 0.0
C1213 C 0.97553 0.15795 0.79373 0.0
C1214 C 0.99333 0.16324 0.77847 0.0
C1215 C 0.98983 0.19818 0.77067 0.0
C1216 C 0.9789 0.21193 0.77387 0.0
H1217 H 0.02273 0.36119 0.70178 0.0
H1218 H 0.01016 0.32728 0.72156 0.0
C1219 C 0.97181 0.192 0.78532 0.0
C1220 C 0.99778 0.2203 0.75955 0.0
H1221 H 0.012 0.30686 0.75622 0.0
C1222 C 1.00223 0.20179 0.74492 0.0
C1223 C 1.00142 0.25858 0.76374 0.0
C1224 C 0.99735 0.27933 0.7797 0.0
C1225 C 0.01006 0.2207 0.73424 0.0
C1226 C 0.01372 0.25893 0.73845 0.0
C1227 C 0.00924 0.2775 0.75304 0.0
C1228 C 0.02183 0.28073 0.72748 0.0
C1229 C 0.01415 0.19991 0.7183 0.0
C1230 C 0.03275 0.2666 0.72462 0.0
C1231 C 0.04003 0.28609 0.71331 0.0
C1232 C 0.03649 0.3201 0.70467 0.0
C1233 C 0.02573 0.33502 0.70817 0.0
C1234 C 0.0185 0.31564 0.71948 0.0
H1235 H 0.00863 0.175 0.71476 0.0
H1236 H 0.01462 0.22036 0.70722 0.0
H1237 H 0.02269 0.18817 0.72069 0.0
H1238 H 0.03559 0.24012 0.73093 0.0
H1239 H 0.04825 0.2738 0.71089 0.0
H1240 H 0.7394 0.36253 0.70679 0.0
H1241 H 0.752 0.39642 0.72655 0.0
H1242 H 0.72756 0.48838 0.73284 0.0
H1243 H 0.71478 0.4541 0.71324 0.0
H1244 H 0.76116 0.46819 0.72148 0.0
H1245 H 0.73682 0.46847 0.78222 0.0
H1246 H 0.73322 0.43749 0.76424 0.0
H1247 H 0.72927 0.4883 0.76425 0.0
C1248 C 0.73659 0.38956 0.71266 0.0
C1249 C 0.72605 0.40551 0.7085 0.0
C1250 C 0.74384 0.40902 0.72391 0.0
C1251 C 0.74075 0.44489 0.73131 0.0
C1252 C 0.73008 0.46037 0.72759 0.0
H1253 H 0.77402 0.6187 0.79398 0.0
H1254 H 0.76173 0.58198 0.77479 0.0
C1255 C 0.72277 0.44075 0.71637 0.0
C1256 C 0.74899 0.46707 0.74194 0.0
H1257 H 0.753 0.50899 0.78138 0.0
C1258 C 0.7594 0.47689 0.73462 0.0
C1259 C 0.74672 0.47848 0.75909 0.0
C1260 C 0.73595 0.46736 0.768 0.0
C1261 C 0.76747 0.49848 0.7438 0.0
C1262 C 0.76516 0.51017 0.76089 0.0
C1263 C 0.75478 0.50014 0.76826 0.0
C1264 C 0.77322 0.53362 0.77131 0.0
C1265 C 0.77827 0.50949 0.73496 0.0
C1266 C 0.78391 0.51909 0.77554 0.0
C1267 C 0.79105 0.54031 0.78648 0.0
C1268 C 0.78757 0.57625 0.7935 0.0
C1269 C 0.77699 0.59114 0.7888 0.0
C1270 C 0.76992 0.57009 0.77787 0.0
H1271 H 0.7776 0.5069 0.72075 0.0
H1272 H 0.78075 0.53991 0.73822 0.0
H1273 H 0.78504 0.48955 0.73933 0.0
H1274 H 0.78659 0.49071 0.77089 0.0
H1275 H 0.79907 0.52778 0.79003 0.0
H1276 H 0.9616 0.02902 0.46413 0.0
H1277 H 0.9736 0.99394 0.48473 0.0
H1278 H 0.9995 0.08041 0.47769 0.0
H1279 H 0.9876 0.11561 0.45743 0.0
H1280 H 0.99464 0.96158 0.47766 0.0
H1281 H 0.99821 0.07146 0.52977 0.0
H1282 H 0.98754 0.07421 0.51333 0.0
H1283 H 1.00156 0.09083 0.50895 0.0
C1284 C 0.96975 0.04098 0.46729 0.0
C1285 C 0.9736 0.07523 0.4592 0.0
C1286 C 0.97663 0.02079 0.47897 0.0
C1287 C 0.98742 0.03474 0.48292 0.0
C1288 C 0.99114 0.06943 0.47515 0.0
H1289 H 0.04514 0.95487 0.54214 0.0
H1290 H 0.03255 0.9881 0.52185 0.0
C1291 C 0.98432 0.08947 0.46349 0.0
C1292 C 0.99513 0.01202 0.49424 0.0
H1293 H 0.01142 0.01903 0.53031 0.0
C1294 C 0.99822 0.97399 0.48927 0.0
C1295 C 0.99989 0.0283 0.50931 0.0
C1296 C 0.99656 0.0683 0.51577 0.0
C1297 C 0.00613 0.9522 0.49872 0.0
C1298 C 0.01096 0.96863 0.51371 0.0
C1299 C 0.0078 0.00655 0.51874 0.0
C1300 C 0.01899 0.94656 0.52472 0.0
C1301 C 0.00945 0.91215 0.49233 0.0
C1302 C 0.01563 0.91195 0.53294 0.0
C1303 C 0.0228 0.89293 0.54447 0.0
C1304 C 0.0335 0.90813 0.54811 0.0
C1305 C 0.03701 0.94217 0.53949 0.0
C1306 C 0.02979 0.96132 0.52798 0.0
H1307 H 0.00745 0.90832 0.47847 0.0
H1308 H 0.01855 0.90684 0.49426 0.0
H1309 H 1.00475 0.88962 0.49965 0.0
H1310 H 0.00728 0.90035 0.5309 0.0
H1311 H 0.01979 0.86694 0.55097 0.0
H1312 H 0.29891 0.20223 0.46586 0.0
H1313 H 0.28639 0.2353 0.48629 0.0
H1314 H 0.25992 0.15457 0.47346 0.0
H1315 H 0.27235 0.1213 0.45322 0.0
H1316 H 0.26598 0.27183 0.47771 0.0
H1317 H 0.25907 0.15487 0.52604 0.0
H1318 H 0.27048 0.15341 0.51079 0.0
H1319 H 0.25655 0.13992 0.50424 0.0
C1320 C 0.2905 0.19099 0.46768 0.0
C1321 C 0.28666 0.15895 0.45797 0.0
C1322 C 0.28333 0.21007 0.47929 0.0
C1323 C 0.27223 0.19723 0.48155 0.0
C1324 C 0.26849 0.16462 0.4722 0.0
H1325 H 0.21481 0.28118 0.54128 0.0
H1326 H 0.22694 0.24697 0.52065 0.0
C1327 C 0.27562 0.14567 0.46058 0.0
C1328 C 0.26434 0.21933 0.4928 0.0
H1329 H 0.24718 0.21051 0.52782 0.0
C1330 C 0.26192 0.2585 0.48873 0.0
C1331 C 0.25894 0.20183 0.50707 0.0
C1332 C 0.26144 0.1603 0.51243 0.0
C1333 C 0.25418 0.28046 0.4984 0.0
C1334 C 0.24884 0.26307 0.51276 0.0
C1335 C 0.25121 0.22383 0.51677 0.0
C1336 C 0.24114 0.2855 0.52423 0.0
C1337 C 0.25162 0.32187 0.49291 0.0
C1338 C 0.24504 0.31868 0.53303 0.0
C1339 C 0.23812 0.33831 0.54473 0.0
C1340 C 0.22715 0.32512 0.54802 0.0
C1341 C 0.22316 0.29235 0.53894 0.0
C1342 C 0.23012 0.27263 0.52721 0.0
H1343 H 0.25364 0.32666 0.47911 0.0
H1344 H 0.24266 0.32917 0.49505 0.0
H1345 H 0.2568 0.34239 0.50059 0.0
H1346 H 0.25357 0.32874 0.53127 0.0
H1347 H 0.24152 0.36322 0.55159 0.0
H1348 H 0.21249 0.95927 0.71266 0.0
H1349 H 0.22546 0.99291 0.73225 0.0
H1350 H 0.25029 0.9034 0.72337 0.0
H1351 H 0.2375 0.87007 0.70371 0.0
H1352 H 0.23678 0.96956 0.76227 0.0
H1353 H 0.26704 0.00305 0.7101 0.0
H1354 H 0.25299 0.986 0.70586 0.0
H1355 H 0.26376 0.952 0.71214 0.0
C1356 C 0.22065 0.94647 0.71509 0.0
C1357 C 0.22398 0.91212 0.70653 0.0
C1358 C 0.22808 0.96582 0.72622 0.0
C1359 C 0.23897 0.95122 0.72895 0.0
C1360 C 0.24206 0.91582 0.72113 0.0
H1361 H 0.29661 0.03024 0.78951 0.0
H1362 H 0.28403 -0.00509 0.76985 0.0
C1363 C 0.23468 0.8966 0.70999 0.0
C1364 C 0.24717 0.97321 0.7397 0.0
H1365 H 0.27288 0.01766 0.73857 0.0
C1366 C 0.24465 0.98022 0.75707 0.0
C1367 C 0.25747 0.98705 0.73293 0.0
C1368 C 0.26047 0.98201 0.7142 0.0
C1369 C 0.25219 0.00012 0.76788 0.0
C1370 C 0.26247 0.01405 0.7611 0.0
C1371 C 0.26502 0.0069 0.74377 0.0
C1372 C 0.27051 0.03692 0.77177 0.0
C1373 C 0.24918 0.00546 0.78659 0.0
C1374 C 0.26727 0.07299 0.7788 0.0
C1375 C 0.27442 0.09322 0.78993 0.0
C1376 C 0.28503 0.07799 0.79421 0.0
C1377 C 0.28852 0.04285 0.78643 0.0
C1378 C 0.28132 0.02254 0.77526 0.0
H1379 H 0.24256 0.98464 0.79073 0.0
H1380 H 0.25665 0.00141 0.79495 0.0
H1381 H 0.24596 0.03559 0.78858 0.0
H1382 H 0.25908 0.08513 0.77598 0.0
H1383 H 0.27147 0.12029 0.7956 0.0
H1384 H 0.77302 0.61152 0.45753 0.0
H1385 H 0.76039 0.64568 0.47717 0.0
H1386 H 0.7851 0.73623 0.48434 0.0
H1387 H 0.79782 0.7022 0.46446 0.0
H1388 H 0.76239 0.67039 0.51157 0.0
H1389 H 0.75729 0.79614 0.46693 0.0
H1390 H 0.7636 0.75049 0.46037 0.0
H1391 H 0.77151 0.7851 0.47282 0.0
C1392 C 0.77586 0.63844 0.46346 0.0
C1393 C 0.78643 0.65422 0.45936 0.0
C1394 C 0.7686 0.65796 0.47468 0.0
C1395 C 0.77169 0.6939 0.48197 0.0
C1396 C 0.78245 0.70888 0.4786 0.0
H1397 H 0.73803 0.86241 0.5467 0.0
H1398 H 0.75046 0.82646 0.52745 0.0
C1399 C 0.78977 0.6892 0.46739 0.0
C1400 C 0.76344 0.71606 0.49258 0.0
H1401 H 0.74823 0.8009 0.49391 0.0
C1402 C 0.75927 0.6989 0.5077 0.0
C1403 C 0.75931 0.75313 0.48746 0.0
C1404 C 0.76306 0.77227 0.47094 0.0
C1405 C 0.75131 0.71818 0.51805 0.0
C1406 C 0.7472 0.75531 0.51294 0.0
C1407 C 0.75133 0.77238 0.49778 0.0
C1408 C 0.7391 0.77793 0.52366 0.0
C1409 C 0.7476 0.6991 0.5346 0.0
C1410 C 0.72837 0.76329 0.52755 0.0
C1411 C 0.72116 0.78399 0.5386 0.0
C1412 C 0.72458 0.81969 0.54591 0.0
C1413 C 0.73513 0.83494 0.54136 0.0
C1414 C 0.74227 0.81439 0.53034 0.0
H1415 H 0.75339 0.67528 0.5386 0.0
H1416 H 0.74708 0.72093 0.54516 0.0
H1417 H 0.73915 0.68622 0.53278 0.0
H1418 H 0.72563 0.73558 0.52227 0.0
H1419 H 0.71311 0.77141 0.54187 0.0
H1420 H 0.71463 0.95342 0.20983 0.0
H1421 H 0.72709 0.98583 0.23057 0.0
H1422 H 0.7541 0.90915 0.21563 0.0
H1423 H 0.74181 0.87701 0.19489 0.0
H1424 H 0.7398 0.95647 0.2586 0.0
H1425 H 0.76746 0.01835 0.20806 0.0
H1426 H 0.75382 -0.00186 0.20334 0.0
H1427 H 0.76562 0.96629 0.20675 0.0
C1428 C 0.72318 0.9432 0.2111 0.0
C1429 C 0.72723 0.91276 0.20062 0.0
C1430 C 0.73031 0.96182 0.22292 0.0
C1431 C 0.74161 0.9505 0.22438 0.0
C1432 C 0.74551 0.91904 0.21445 0.0
H1433 H 0.79809 0.0318 0.28729 0.0
H1434 H 0.78615 -0.00329 0.26659 0.0
C1435 C 0.73842 0.90048 0.20267 0.0
C1436 C 0.74938 0.97167 0.23613 0.0
H1437 H 0.77358 0.02547 0.23694 0.0
C1438 C 0.74716 0.97168 0.25386 0.0
C1439 C 0.75902 0.99144 0.22995 0.0
C1440 C 0.7616 0.99396 0.21098 0.0
C1441 C 0.75437 0.99042 0.26557 0.0
C1442 C 0.76398 0.01025 0.25938 0.0
C1443 C 0.76624 0.0101 0.24167 0.0
C1444 C 0.77149 0.03263 0.27108 0.0
C1445 C 0.75172 0.98841 0.28453 0.0
C1446 C 0.76733 0.06516 0.28003 0.0
C1447 C 0.77411 0.08527 0.29171 0.0
C1448 C 0.78525 0.07343 0.29472 0.0
C1449 C 0.78956 0.0417 0.28526 0.0
C1450 C 0.78274 0.02156 0.27348 0.0
H1451 H 0.74583 0.96419 0.28752 0.0
H1452 H 0.75948 0.98432 0.29222 0.0
H1453 H 0.74774 0.01628 0.2886 0.0
H1454 H 0.75875 0.07473 0.27814 0.0
H1455 H 0.77051 0.10968 0.29868 0.0
H1456 H 0.48961 0.61737 0.45654 0.0
H1457 H 0.5019 0.58139 0.47604 0.0
H1458 H 0.47605 0.49506 0.48381 0.0
H1459 H 0.46368 0.53083 0.464 0.0
H1460 H 0.49992 0.55915 0.51014 0.0
H1461 H 0.50268 0.42894 0.46755 0.0
H1462 H 0.49685 0.47492 0.46042 0.0
H1463 H 0.48869 0.44262 0.47368 0.0
C1464 C 0.48646 0.59095 0.46252 0.0
C1465 C 0.47566 0.5769 0.45864 0.0
C1466 C 0.49352 0.57037 0.47367 0.0
C1467 C 0.49001 0.53508 0.48113 0.0
C1468 C 0.47904 0.52179 0.47791 0.0
H1469 H 0.52293 0.36922 0.54898 0.0
H1470 H 0.51035 0.40341 0.52924 0.0
C1471 C 0.47193 0.54249 0.46674 0.0
C1472 C 0.49798 0.51215 0.49196 0.0
H1473 H 0.51198 0.42488 0.49438 0.0
C1474 C 0.50257 0.52981 0.50668 0.0
C1475 C 0.50148 0.4739 0.4874 0.0
C1476 C 0.49727 0.45399 0.47133 0.0
C1477 C 0.51041 0.51014 0.51709 0.0
C1478 C 0.51395 0.47197 0.5125 0.0
C1479 C 0.50932 0.45421 0.49783 0.0
C1480 C 0.5221 0.44952 0.52316 0.0
C1481 C 0.51466 0.53006 0.53315 0.0
C1482 C 0.53309 0.46318 0.52584 0.0
C1483 C 0.54037 0.44349 0.53709 0.0
C1484 C 0.53678 0.40976 0.54587 0.0
C1485 C 0.52597 0.39514 0.54246 0.0
C1486 C 0.51874 0.4147 0.53119 0.0
H1487 H 0.50924 0.55508 0.53696 0.0
H1488 H 0.51511 0.50912 0.54405 0.0
H1489 H 0.52322 0.54147 0.53076 0.0
H1490 H 0.53595 0.4896 0.51952 0.0
H1491 H 0.54861 0.45561 0.53947 0.0
H1492 H 0.52157 0.86667 0.70614 0.0
H1493 H 0.50947 0.83127 0.72598 0.0
H1494 H 0.53498 0.74304 0.73251 0.0
H1495 H 0.5472 0.77835 0.71229 0.0
H1496 H 0.51367 0.71212 0.72564 0.0
H1497 H 0.51105 0.82165 0.77802 0.0
H1498 H 0.50769 0.84154 0.75729 0.0
H1499 H 0.52163 0.82378 0.76145 0.0
C1500 C 0.52472 0.84002 0.71196 0.0
C1501 C 0.53541 0.82547 0.70768 0.0
C1502 C 0.51777 0.81987 0.72339 0.0
C1503 C 0.52134 0.78473 0.73095 0.0
C1504 C 0.53207 0.77026 0.72691 0.0
H1505 H 0.48887 0.61881 0.79943 0.0
H1506 H 0.50125 0.65158 0.77902 0.0
C1507 C 0.53908 0.79056 0.71545 0.0
C1508 C 0.51357 0.76242 0.74231 0.0
H1509 H 0.49756 0.77024 0.77863 0.0
C1510 C 0.51023 0.72467 0.73731 0.0
C1511 C 0.50899 0.77889 0.75749 0.0
C1512 C 0.5126 0.81854 0.76399 0.0
C1513 C 0.50227 0.70337 0.74685 0.0
C1514 C 0.49763 0.72 0.76194 0.0
C1515 C 0.50102 0.75763 0.76698 0.0
C1516 C 0.48962 0.6983 0.77312 0.0
C1517 C 0.4987 0.66359 0.74046 0.0
C1518 C 0.4789 0.71355 0.77665 0.0
C1519 C 0.47175 0.69475 0.78837 0.0
C1520 C 0.47526 0.66061 0.79693 0.0
C1521 C 0.48587 0.64493 0.79301 0.0
C1522 C 0.49296 0.66357 0.78126 0.0
H1523 H 0.50056 0.65976 0.72656 0.0
H1524 H 0.50335 0.6407 0.74765 0.0
H1525 H 0.48959 0.65885 0.74256 0.0
H1526 H 0.47616 0.74045 0.77058 0.0
H1527 H 0.46369 0.70779 0.79123 0.0
H1528 H 0.48975 0.12196 0.29745 0.0
H1529 H 0.50158 0.15778 0.27727 0.0
H1530 H 0.47528 0.24285 0.26997 0.0
H1531 H 0.46339 0.20729 0.29048 0.0
H1532 H 0.49903 0.1787 0.24322 0.0
H1533 H 0.50183 0.31068 0.28471 0.0
H1534 H 0.49628 0.26476 0.29237 0.0
H1535 H 0.48781 0.29627 0.27917 0.0
C1536 C 0.4864 0.14807 0.29144 0.0
C1537 C 0.47563 0.16186 0.29567 0.0
C1538 C 0.4932 0.16857 0.2799 0.0
C1539 C 0.48943 0.20347 0.27236 0.0
C1540 C 0.47848 0.21645 0.27592 0.0
H1541 H 0.52062 0.36791 0.20199 0.0
H1542 H 0.50838 0.33383 0.22225 0.0
C1543 C 0.47164 0.19587 0.2875 0.0
C1544 C 0.49712 0.22635 0.26109 0.0
H1545 H 0.51064 0.31426 0.25748 0.0
C1546 C 0.50157 0.20832 0.24635 0.0
C1547 C 0.5005 0.26497 0.26522 0.0
C1548 C 0.49645 0.28529 0.2813 0.0
C1549 C 0.50916 0.22797 0.23552 0.0
C1550 C 0.51256 0.26652 0.23968 0.0
C1551 C 0.50807 0.28466 0.25436 0.0
C1552 C 0.52046 0.2889 0.2286 0.0
C1553 C 0.51329 0.2076 0.2195 0.0
C1554 C 0.53151 0.27584 0.22588 0.0
C1555 C 0.53859 0.29547 0.21434 0.0
C1556 C 0.53474 0.32852 0.20531 0.0
C1557 C 0.52386 0.34253 0.2087 0.0
C1558 C 0.51682 0.32303 0.22027 0.0
H1559 H 0.50798 0.18204 0.21609 0.0
H1560 H 0.51346 0.22806 0.2084 0.0
H1561 H 0.52196 0.19691 0.22169 0.0
H1562 H 0.53457 0.24996 0.23242 0.0
H1563 H 0.5469 0.28385 0.212 0.0
H1564 H 0.46274 0.03054 0.96301 0.0
H1565 H 0.47552 -0.00154 0.98339 0.0
H1566 H 0.5007 0.08564 0.97282 0.0
H1567 H 0.48801 0.11791 0.95267 0.0
H1568 H 0.49668 0.96705 0.97519 0.0
H1569 H 0.50075 0.08167 0.02533 0.0
H1570 H 0.48959 0.08186 0.00963 0.0
H1571 H 0.50335 0.09875 0.00386 0.0
C1572 C 0.47091 0.04334 0.96531 0.0
C1573 C 0.47432 0.07693 0.95627 0.0
C1574 C 0.47823 0.02485 0.97689 0.0
C1575 C 0.48905 0.03984 0.97978 0.0
C1576 C 0.49234 0.0739 0.97108 0.0
H1577 H 0.54688 0.96213 0.04067 0.0
H1578 H 0.53463 -0.00397 0.02004 0.0
C1579 C 0.48507 0.09226 0.95949 0.0
C1580 C 0.49715 0.01867 0.99104 0.0
H1581 H 0.51359 0.0286 0.02682 0.0
C1582 C 0.50032 0.98042 0.98654 0.0
C1583 C 0.50202 0.03627 0.00574 0.0
C1584 C 0.4987 0.07677 0.01156 0.0
C1585 C 0.50829 0.95948 0.99621 0.0
C1586 C 0.51309 0.97692 0.011 0.0
C1587 C 0.50997 0.01528 0.01544 0.0
C1588 C 0.52087 0.95516 0.02257 0.0
C1589 C 0.51165 0.91908 0.99029 0.0
C1590 C 0.51726 0.9209 0.03081 0.0
C1591 C 0.52422 0.90154 0.04251 0.0
C1592 C 0.53497 0.91604 0.04636 0.0
C1593 C 0.5387 0.94999 0.03788 0.0
C1594 C 0.53168 0.96949 0.02616 0.0
H1595 H 0.50994 0.91485 0.97636 0.0
H1596 H 0.52068 0.9135 0.99272 0.0
H1597 H 0.5067 0.89698 0.99748 0.0
H1598 H 0.50889 0.90967 0.02856 0.0
H1599 H 0.52103 0.87563 0.04886 0.0
H1600 H 0.17579 0.3885 0.16384 0.0
H1601 H 0.15564 0.39506 0.15763 0.0
H1602 H 0.16238 0.38287 0.10342 0.0
H1603 H 0.18229 0.37568 0.10942 0.0
H1604 H 0.14328 0.44736 0.13711 0.0
H1605 H 0.13971 0.29628 0.11167 0.0
H1606 H 0.15182 0.31286 0.12352 0.0
H1607 H 0.15029 0.32477 0.10109 0.0
C1608 C 0.17297 0.38746 0.1506 0.0
C1609 C 0.18067 0.381 0.13718 0.0
C1610 C 0.16146 0.39116 0.14706 0.0
C1611 C 0.15746 0.38849 0.13007 0.0
C1612 C 0.1652 0.3839 0.11666 0.0
H1613 H 0.09027 0.38538 0.08349 0.0
H1614 H 0.11066 0.39169 0.08773 0.0
C1615 C 0.17662 0.37996 0.12015 0.0
C1616 C 0.14522 0.38985 0.12621 0.0
H1617 H 0.12398 0.33774 0.10754 0.0
C1618 C 0.13905 0.42335 0.13071 0.0
C1619 C 0.13969 0.35856 0.11778 0.0
C1620 C 0.14568 0.32093 0.11337 0.0
C1621 C 0.12755 0.42653 0.12683 0.0
C1622 C 0.12205 0.39524 0.1184 0.0
C1623 C 0.12823 0.3619 0.11381 0.0
C1624 C 0.10971 0.39504 0.1155 0.0
C1625 C 0.1214 0.46352 0.13166 0.0
C1626 C 0.10244 0.3949 0.12964 0.0
C1627 C 0.09089 0.39106 0.12727 0.0
C1628 C 0.08627 0.38726 0.11067 0.0
C1629 C 0.09353 0.3885 0.09642 0.0
C1630 C 0.10517 0.39197 0.09884 0.0
H1631 H 0.12726 0.48843 0.13352 0.0
H1632 H 0.11516 0.47156 0.12166 0.0
H1633 H 0.11686 0.45874 0.14393 0.0
H1634 H 0.10573 0.39652 0.14261 0.0
H1635 H 0.08557 0.39037 0.13857 0.0
H1636 H 0.08152 0.85372 0.1107 0.0
H1637 H 0.10155 0.84733 0.10544 0.0
H1638 H 0.10779 0.84989 0.16008 0.0
H1639 H 0.08755 0.85526 0.16549 0.0
H1640 H 0.11733 0.89908 0.1128 0.0
H1641 H 0.12756 0.75998 0.14596 0.0
H1642 H 0.11332 0.77493 0.14167 0.0
H1643 H 0.12084 0.79509 0.15968 0.0
C1644 C 0.08711 0.85244 0.12166 0.0
C1645 C 0.0829 0.85508 0.13855 0.0
C1646 C 0.0986 0.84878 0.11861 0.0
C1647 C 0.10624 0.84782 0.13232 0.0
C1648 C 0.10208 0.84968 0.14926 0.0
H1649 H 0.17798 0.87065 0.13992 0.0
H1650 H 0.15787 0.86356 0.1444 0.0
C1651 C 0.0905 0.85291 0.15235 0.0
C1652 C 0.11853 0.84752 0.12865 0.0
H1653 H 0.14304 0.79876 0.13668 0.0
C1654 C 0.12291 0.87689 0.11791 0.0
C1655 C 0.12587 0.81861 0.13528 0.0
C1656 C 0.12166 0.78514 0.14615 0.0
C1657 C 0.1344 0.87861 0.11392 0.0
C1658 C 0.14174 0.85001 0.12071 0.0
C1659 C 0.13739 0.82055 0.1314 0.0
C1660 C 0.15405 0.85178 0.11773 0.0
C1661 C 0.13866 0.91169 0.10285 0.0
C1662 C 0.15867 0.84679 0.10122 0.0
C1663 C 0.17027 0.85071 0.09855 0.0
C1664 C 0.17744 0.85992 0.11236 0.0
C1665 C 0.17275 0.86389 0.12891 0.0
C1666 C 0.16123 0.8597 0.13156 0.0
H1667 H 0.13229 0.93515 0.10119 0.0
H1668 H 0.14634 0.92471 0.10854 0.0
H1669 H 0.14086 0.90018 0.08994 0.0
H1670 H 0.15328 0.84023 0.09038 0.0
H1671 H 0.17357 0.8474 0.08566 0.0
H1672 H 0.8369 0.57207 0.84304 0.0
H1673 H 0.8568 0.56237 0.85025 0.0
H1674 H 0.85575 0.66383 0.88319 0.0
H1675 H 0.83601 0.673 0.87649 0.0
H1676 H 0.87516 0.606 0.84607 0.0
H1677 H 0.86884 0.58541 0.91575 0.0
H1678 H 0.85734 0.58514 0.90068 0.0
H1679 H 0.86278 0.63073 0.90883 0.0
C1680 C 0.84094 0.59228 0.8518 0.0
C1681 C 0.8348 0.62295 0.85937 0.0
C1682 C 0.8523 0.58664 0.85597 0.0
C1683 C 0.85772 0.61162 0.86773 0.0
C1684 C 0.8517 0.6432 0.87464 0.0
H1685 H 0.92677 0.67193 0.87703 0.0
H1686 H 0.90696 0.66383 0.87053 0.0
C1687 C 0.84039 0.64859 0.87065 0.0
C1688 C 0.86974 0.60591 0.87248 0.0
H1689 H 0.88753 0.60417 0.90702 0.0
C1690 C 0.87784 0.60502 0.85939 0.0
C1691 C 0.87331 0.6036 0.88986 0.0
C1692 C 0.86509 0.60081 0.90455 0.0
C1693 C 0.88937 0.60423 0.86321 0.0
C1694 C 0.89295 0.60551 0.88061 0.0
C1695 C 0.88485 0.60399 0.89368 0.0
C1696 C 0.90497 0.61076 0.8854 0.0
C1697 C 0.89759 0.60215 0.84848 0.0
C1698 C 0.9104 0.58495 0.89682 0.0
C1699 C 0.92181 0.58998 0.90089 0.0
C1700 C 0.92796 0.62083 0.89354 0.0
C1701 C 0.92236 0.64736 0.88267 0.0
C1702 C 0.91101 0.64259 0.87879 0.0
H1703 H 0.89382 0.58746 0.83712 0.0
H1704 H 0.89993 0.63227 0.84454 0.0
H1705 H 0.90533 0.58613 0.85217 0.0
H1706 H 0.90589 0.56046 0.9023 0.0
H1707 H 0.92586 0.56911 0.90933 0.0
H1708 H 0.92616 0.0631 0.8747 0.0
H1709 H 0.90628 0.07129 0.88078 0.0
H1710 H 0.90587 0.17753 0.85079 0.0
H1711 H 0.92586 0.16863 0.84413 0.0
H1712 H 0.89596 0.12728 0.89798 0.0
H1713 H 0.8789 0.12297 0.83154 0.0
H1714 H 0.89321 0.10996 0.83637 0.0
H1715 H 0.88914 0.16057 0.83511 0.0
C1716 C 0.92184 0.0881 0.86924 0.0
C1717 C 0.92761 0.11524 0.85892 0.0
C1718 C 0.91045 0.0928 0.87278 0.0
C1719 C 0.90449 0.12492 0.86622 0.0
C1720 C 0.91019 0.15205 0.85575 0.0
H1721 H 0.83661 0.16895 0.90947 0.0
H1722 H 0.85664 0.17658 0.90281 0.0
C1723 C 0.92163 0.14702 0.85197 0.0
C1724 C 0.89242 0.12979 0.87084 0.0
H1725 H 0.86599 0.13424 0.85393 0.0
C1726 C 0.88941 0.12899 0.88834 0.0
C1727 C 0.88383 0.13187 0.85829 0.0
C1728 C 0.88639 0.13105 0.83928 0.0
C1729 C 0.87812 0.12885 0.89361 0.0
C1730 C 0.86954 0.13077 0.88106 0.0
C1731 C 0.87255 0.13292 0.86358 0.0
C1732 C 0.85742 0.12689 0.88553 0.0
C1733 C 0.87553 0.12467 0.91252 0.0
C1734 C 0.85111 0.09691 0.87791 0.0
C1735 C 0.8397 0.09293 0.88147 0.0
C1736 C 0.83425 0.1187 0.89286 0.0
C1737 C 0.84057 0.14841 0.90077 0.0
C1738 C 0.85204 0.15271 0.897 0.0
H1739 H 0.8829 0.11404 0.91992 0.0
H1740 H 0.87309 0.15362 0.9178 0.0
H1741 H 0.86847 0.10407 0.91461 0.0
H1742 H 0.85502 0.07643 0.86912 0.0
H1743 H 0.83513 0.06949 0.87524 0.0
H1744 H 0.17101 0.88312 0.66709 0.0
H1745 H 0.15073 0.88868 0.66169 0.0
H1746 H 0.15715 0.90272 0.60747 0.0
H1747 H 0.17721 0.89631 0.61265 0.0
H1748 H 0.13707 0.94528 0.64644 0.0
H1749 H 0.13645 0.80893 0.60778 0.0
H1750 H 0.14835 0.82293 0.62071 0.0
H1751 H 0.14619 0.8446 0.59987 0.0
C1752 C 0.16808 0.88779 0.65406 0.0
C1753 C 0.17572 0.88866 0.64028 0.0
C1754 C 0.1565 0.89086 0.65097 0.0
C1755 C 0.15239 0.89503 0.63409 0.0
C1756 C 0.16007 0.89828 0.62052 0.0
H1757 H 0.08501 0.89515 0.58844 0.0
H1758 H 0.10525 0.90368 0.59313 0.0
C1759 C 0.17156 0.8948 0.62354 0.0
C1760 C 0.14012 0.89492 0.63047 0.0
H1761 H 0.11982 0.84694 0.60764 0.0
C1762 C 0.13329 0.92371 0.638 0.0
C1763 C 0.13517 0.86682 0.61941 0.0
C1764 C 0.14189 0.83384 0.6116 0.0
C1765 C 0.1217 0.92542 0.63461 0.0
C1766 C 0.11678 0.89732 0.62356 0.0
C1767 C 0.12361 0.86873 0.61595 0.0
C1768 C 0.10445 0.89519 0.62069 0.0
C1769 C 0.11484 0.95756 0.64276 0.0
C1770 C 0.0973 0.88747 0.63457 0.0
C1771 C 0.08581 0.88246 0.63194 0.0
C1772 C 0.08113 0.88489 0.61531 0.0
C1773 C 0.08829 0.89327 0.6014 0.0
C1774 C 0.09986 0.89808 0.60406 0.0
H1775 H 0.12016 0.98277 0.64661 0.0
H1776 H 0.10822 0.96812 0.63386 0.0
H1777 H 0.11072 0.94605 0.6545 0.0
H1778 H 0.10065 0.88428 0.64745 0.0
H1779 H 0.08061 0.87608 0.64301 0.0
H1780 H 0.08374 0.3491 0.61098 0.0
H1781 H 0.10383 0.34297 0.60627 0.0
H1782 H 0.1094 0.34351 0.66109 0.0
H1783 H 0.0891 0.34873 0.66596 0.0
H1784 H 0.11949 0.39495 0.61474 0.0
H1785 H 0.12931 0.2538 0.64657 0.0
H1786 H 0.11513 0.26893 0.64192 0.0
H1787 H 0.12236 0.28823 0.66037 0.0
C1788 C 0.08919 0.34745 0.62211 0.0
C1789 C 0.08478 0.34952 0.63888 0.0
C1790 C 0.10072 0.34393 0.61936 0.0
C1791 C 0.10818 0.34249 0.63328 0.0
C1792 C 0.10382 0.34372 0.65011 0.0
H1793 H 0.17997 0.363 0.64231 0.0
H1794 H 0.15985 0.35585 0.64652 0.0
C1795 C 0.09221 0.34687 0.65289 0.0
C1796 C 0.1205 0.34236 0.62995 0.0
H1797 H 0.14488 0.29266 0.63781 0.0
C1798 C 0.12501 0.37236 0.61968 0.0
C1799 C 0.12775 0.31294 0.63638 0.0
C1800 C 0.1234 0.27893 0.64678 0.0
C1801 C 0.13653 0.37415 0.61593 0.0
C1802 C 0.14377 0.34494 0.62246 0.0
C1803 C 0.1393 0.3149 0.63272 0.0
C1804 C 0.1561 0.34655 0.61964 0.0
C1805 C 0.14091 0.40793 0.6054 0.0
C1806 C 0.16076 0.34291 0.60309 0.0
C1807 C 0.17237 0.3469 0.60058 0.0
C1808 C 0.1795 0.3548 0.61458 0.0
C1809 C 0.17477 0.35729 0.63116 0.0
C1810 C 0.16324 0.35305 0.63365 0.0
H1811 H 0.13463 0.43175 0.60409 0.0
H1812 H 0.14863 0.42018 0.6113 0.0
H1813 H 0.14309 0.39738 0.59232 0.0
H1814 H 0.1554 0.33742 0.59211 0.0
H1815 H 0.1757 0.34473 0.58766 0.0
H1816 H 0.83465 0.17452 0.37434 0.0
H1817 H 0.85457 0.16693 0.38033 0.0
H1818 H 0.85497 0.05894 0.35158 0.0
H1819 H 0.83494 0.06719 0.345 0.0
H1820 H 0.86503 0.11213 0.39807 0.0
H1821 H 0.88179 0.11262 0.33144 0.0
H1822 H 0.86749 0.12577 0.33627 0.0
H1823 H 0.8716 0.07514 0.33551 0.0
C1824 C 0.83898 0.14926 0.36913 0.0
C1825 C 0.83319 0.12144 0.35917 0.0
C1826 C 0.85039 0.14491 0.37262 0.0
C1827 C 0.85636 0.11248 0.36637 0.0
C1828 C 0.85064 0.08466 0.35628 0.0
H1829 H 0.92431 0.07001 0.40953 0.0
H1830 H 0.90425 0.06239 0.40301 0.0
C1831 C 0.83918 0.08932 0.35255 0.0
C1832 C 0.86845 0.108 0.37093 0.0
H1833 H 0.8948 0.10236 0.35382 0.0
C1834 C 0.87154 0.10982 0.38838 0.0
C1835 C 0.87698 0.10515 0.35832 0.0
C1836 C 0.87434 0.1049 0.33933 0.0
C1837 C 0.88285 0.11016 0.39354 0.0
C1838 C 0.89137 0.10738 0.38093 0.0
C1839 C 0.88828 0.1043 0.36352 0.0
C1840 C 0.90352 0.11121 0.38525 0.0
C1841 C 0.88553 0.11541 0.41237 0.0
C1842 C 0.90986 0.14066 0.3773 0.0
C1843 C 0.92128 0.14464 0.3808 0.0
C1844 C 0.92671 0.11938 0.39244 0.0
C1845 C 0.92036 0.09014 0.40063 0.0
C1846 C 0.90888 0.08586 0.39694 0.0
H1847 H 0.87821 0.12663 0.41971 0.0
H1848 H 0.88794 0.08673 0.41796 0.0
H1849 H 0.89263 0.13598 0.41416 0.0
H1850 H 0.90595 0.16076 0.36833 0.0
H1851 H 0.92586 0.16772 0.37433 0.0
H1852 H 0.92594 0.5612 0.37394 0.0
H1853 H 0.90603 0.56914 0.38 0.0
H1854 H 0.90607 0.67951 0.35304 0.0
H1855 H 0.92606 0.67082 0.34632 0.0
H1856 H 0.89579 0.62235 0.39864 0.0
H1857 H 0.87898 0.62981 0.33211 0.0
H1858 H 0.89324 0.61559 0.33661 0.0
H1859 H 0.8893 0.66641 0.3369 0.0
C1860 C 0.9217 0.58702 0.36912 0.0
C1861 C 0.92758 0.61538 0.35962 0.0
C1862 C 0.9103 0.5916 0.37266 0.0
C1863 C 0.90445 0.62483 0.36695 0.0
C1864 C 0.91028 0.65318 0.3573 0.0
H1865 H 0.83652 0.66535 0.41089 0.0
H1866 H 0.85662 0.67315 0.40465 0.0
C1867 C 0.92172 0.64827 0.35349 0.0
C1868 C 0.89237 0.62954 0.37161 0.0
H1869 H 0.86604 0.63844 0.35469 0.0
C1870 C 0.88928 0.62604 0.38902 0.0
C1871 C 0.88385 0.63423 0.3591 0.0
C1872 C 0.88646 0.63638 0.34012 0.0
C1873 C 0.87797 0.62574 0.39418 0.0
C1874 C 0.86945 0.63029 0.38166 0.0
C1875 C 0.87255 0.63513 0.36433 0.0
C1876 C 0.85729 0.62631 0.38589 0.0
C1877 C 0.87528 0.61859 0.41288 0.0
C1878 C 0.85091 0.59788 0.37732 0.0
C1879 C 0.83948 0.59381 0.38067 0.0
C1880 C 0.83406 0.61794 0.39277 0.0
C1881 C 0.84045 0.6461 0.40161 0.0
C1882 C 0.85195 0.65049 0.39808 0.0
H1883 H 0.88257 0.60647 0.42001 0.0
H1884 H 0.87291 0.6467 0.41903 0.0
H1885 H 0.86813 0.598 0.41424 0.0
H1886 H 0.8548 0.57867 0.36796 0.0
H1887 H 0.83488 0.57154 0.37371 0.0
H1888 H 0.58264 0.39495 0.64122 0.0
H1889 H 0.6027 0.39965 0.6466 0.0
H1890 H 0.60924 0.38353 0.5925 0.0
H1891 H 0.58899 0.37983 0.58692 0.0
H1892 H 0.61793 0.34409 0.64184 0.0
H1893 H 0.62987 0.47364 0.60305 0.0
H1894 H 0.61544 0.4617 0.6077 0.0
H1895 H 0.62283 0.43653 0.59081 0.0
C1896 C 0.58831 0.39289 0.63038 0.0
C1897 C 0.58418 0.38695 0.61361 0.0
C1898 C 0.59981 0.39557 0.63351 0.0
C1899 C 0.60754 0.39225 0.61999 0.0
C1900 C 0.60346 0.38707 0.60313 0.0
H1901 H 0.67904 0.36231 0.61396 0.0
H1902 H 0.65901 0.36985 0.60924 0.0
C1903 C 0.59188 0.38481 0.59994 0.0
C1904 C 0.61979 0.39169 0.62389 0.0
H1905 H 0.64484 0.43521 0.61435 0.0
C1906 C 0.62379 0.36428 0.63592 0.0
C1907 C 0.62747 0.41801 0.61621 0.0
C1908 C 0.62369 0.44939 0.60385 0.0
C1909 C 0.63523 0.36188 0.64019 0.0
C1910 C 0.64291 0.38787 0.63237 0.0
C1911 C 0.63893 0.41543 0.62041 0.0
C1912 C 0.65519 0.38514 0.63557 0.0
C1913 C 0.63905 0.33071 0.65264 0.0
C1914 C 0.65981 0.3918 0.65197 0.0
C1915 C 0.67139 0.38749 0.65479 0.0
C1916 C 0.67855 0.37641 0.64124 0.0
C1917 C 0.67385 0.37062 0.62479 0.0
C1918 C 0.66235 0.37505 0.622 0.0
H1919 H 0.63248 0.30822 0.65486 0.0
H1920 H 0.64674 0.31596 0.64784 0.0
H1921 H 0.64107 0.3445 0.66518 0.0
H1922 H 0.65445 0.40016 0.6626 0.0
H1923 H 0.67469 0.39231 0.6676 0.0
H1924 H 0.5852 0.92401 0.62626 0.0
H1925 H 0.60492 0.91314 0.61997 0.0
H1926 H 0.60505 0.81221 0.65326 0.0
H1927 H 0.58515 0.82353 0.66001 0.0
H1928 H 0.62366 0.85498 0.65773 0.0
H1929 H 0.61786 0.83285 0.58803 0.0
H1930 H 0.61191 0.87863 0.5946 0.0
H1931 H 0.60623 0.83353 0.60287 0.0
C1932 C 0.58936 0.89934 0.63226 0.0
C1933 C 0.5835 0.87434 0.64351 0.0
C1934 C 0.60066 0.89298 0.62851 0.0
C1935 C 0.60643 0.86109 0.63565 0.0
C1936 C 0.60075 0.83671 0.64736 0.0
H1937 H 0.67481 0.81634 0.59527 0.0
H1938 H 0.65483 0.80753 0.60222 0.0
C1939 C 0.58938 0.84328 0.65127 0.0
C1940 C 0.61847 0.85449 0.6312 0.0
H1941 H 0.63654 0.85117 0.59706 0.0
C1942 C 0.62645 0.85355 0.64447 0.0
C1943 C 0.62218 0.85154 0.61392 0.0
C1944 C 0.61407 0.84873 0.59907 0.0
C1945 C 0.63801 0.85223 0.6409 0.0
C1946 C 0.64175 0.85299 0.62357 0.0
C1947 C 0.63375 0.8514 0.61034 0.0
C1948 C 0.65382 0.85801 0.619 0.0
C1949 C 0.6461 0.8502 0.6558 0.0
C1950 C 0.65983 0.88994 0.6256 0.0
C1951 C 0.67118 0.89482 0.62176 0.0
C1952 C 0.67684 0.86831 0.61094 0.0
C1953 C 0.67072 0.83722 0.60367 0.0
C1954 C 0.65931 0.8321 0.60769 0.0
H1955 H 0.6422 0.83572 0.66712 0.0
H1956 H 0.65385 0.83402 0.65232 0.0
H1957 H 0.64844 0.88034 0.65972 0.0
H1958 H 0.65574 0.91126 0.63378 0.0
H1959 H 0.67554 0.91956 0.62734 0.0
H1960 H 0.42615 0.56752 0.40931 0.0
H1961 H 0.40618 0.55766 0.40263 0.0
H1962 H 0.40677 0.65888 0.36951 0.0
H1963 H 0.42659 0.6681 0.37565 0.0
H1964 H 0.3879 0.60061 0.40732 0.0
H1965 H 0.3932 0.58102 0.33741 0.0
H1966 H 0.40494 0.58087 0.35204 0.0
H1967 H 0.39929 0.62641 0.34413 0.0
C1968 C 0.42199 0.58762 0.40062 0.0
C1969 C 0.42802 0.61824 0.39283 0.0
C1970 C 0.41059 0.58189 0.39675 0.0
C1971 C 0.40502 0.60676 0.38509 0.0
C1972 C 0.41094 0.6383 0.37797 0.0
H1973 H 0.33613 0.66895 0.37838 0.0
H1974 H 0.35596 0.65958 0.38424 0.0
C1975 C 0.42229 0.64374 0.38164 0.0
C1976 C 0.39294 0.60105 0.38072 0.0
H1977 H 0.37464 0.6001 0.34681 0.0
C1978 C 0.38503 0.59989 0.39408 0.0
C1979 C 0.38911 0.59904 0.36346 0.0
C1980 C 0.39711 0.59643 0.34847 0.0
C1981 C 0.37345 0.59922 0.39067 0.0
C1982 C 0.36962 0.60094 0.37341 0.0
C1983 C 0.37752 0.5996 0.36004 0.0
C1984 C 0.35754 0.60677 0.36907 0.0
C1985 C 0.36544 0.59687 0.40566 0.0
C1986 C 0.35185 0.5815 0.35772 0.0
C1987 C 0.34041 0.58724 0.35404 0.0
C1988 C 0.33448 0.6183 0.3617 0.0
C1989 C 0.34035 0.64423 0.37252 0.0
C1990 C 0.35171 0.63874 0.37601 0.0
H1991 H 0.36936 0.58174 0.4168 0.0
H1992 H 0.36322 0.62692 0.40986 0.0
H1993 H 0.35763 0.58115 0.40215 0.0
H1994 H 0.3562 0.55692 0.35198 0.0
H1995 H 0.33616 0.56682 0.34562 0.0
H1996 H 0.43009 0.10568 0.39078 0.0
H1997 H 0.41015 0.11409 0.39624 0.0
H1998 H 0.40543 0.1563 0.3445 0.0
H1999 H 0.42553 0.14764 0.33875 0.0
H2000 H 0.39639 0.18153 0.39417 0.0
H2001 H 0.3829 0.06507 0.34873 0.0
H2002 H 0.39724 0.07011 0.35577 0.0
H2003 H 0.39167 0.10258 0.33973 0.0
C2004 C 0.42488 0.11681 0.38047 0.0
C2005 C 0.42948 0.12571 0.36423 0.0
C2006 C 0.41344 0.12172 0.38369 0.0
C2007 C 0.40626 0.13541 0.37076 0.0
C2008 C 0.4108 0.14514 0.35461 0.0
H2009 H 0.33396 0.15353 0.36531 0.0
H2010 H 0.35408 0.15836 0.36047 0.0
C2011 C 0.4223 0.14033 0.35136 0.0
C2012 C 0.39402 0.13855 0.37425 0.0
H2013 H 0.36866 0.09995 0.36304 0.0
C2014 C 0.39031 0.16382 0.38733 0.0
C2015 C 0.38611 0.11523 0.36541 0.0
C2016 C 0.38963 0.08644 0.35172 0.0
C2017 C 0.37887 0.16683 0.39163 0.0
C2018 C 0.37095 0.14328 0.38286 0.0
C2019 C 0.3747 0.11807 0.36977 0.0
C2020 C 0.3587 0.14451 0.38669 0.0
C2021 C 0.37537 0.19578 0.40526 0.0
C2022 C 0.35448 0.1359 0.40319 0.0
C2023 C 0.34287 0.1336 0.40607 0.0
C2024 C 0.33529 0.13911 0.39242 0.0
C2025 C 0.33956 0.1488 0.37609 0.0
C2026 C 0.35109 0.15156 0.37329 0.0
H2027 H 0.38179 0.21892 0.40714 0.0
H2028 H 0.36727 0.20994 0.40191 0.0
H2029 H 0.3743 0.1802 0.41767 0.0
H2030 H 0.36016 0.12952 0.41369 0.0
H2031 H 0.33985 0.12569 0.41874 0.0
H2032 H 0.67559 0.82652 0.12138 0.0
H2033 H 0.65557 0.83488 0.11669 0.0
H2034 H 0.65567 0.93706 0.14924 0.0
H2035 H 0.6759 0.92815 0.15442 0.0
H2036 H 0.63739 0.89277 0.15502 0.0
H2037 H 0.64152 0.91335 0.08495 0.0
H2038 H 0.64793 0.86829 0.09145 0.0
H2039 H 0.65347 0.91411 0.09919 0.0
C2040 C 0.67139 0.85086 0.12758 0.0
C2041 C 0.6774 0.87703 0.1381 0.0
C2042 C 0.65993 0.85578 0.12475 0.0
C2043 C 0.65415 0.88741 0.13208 0.0
C2044 C 0.65998 0.91276 0.14321 0.0
H2045 H 0.58482 0.92435 0.09441 0.0
H2046 H 0.60481 0.93539 0.10058 0.0
C2047 C 0.67152 0.90758 0.14623 0.0
C2048 C 0.64199 0.89294 0.12824 0.0
H2049 H 0.6232 0.89357 0.095 0.0
C2050 C 0.6343 0.89357 0.1419 0.0
C2051 C 0.63789 0.89505 0.11114 0.0
C2052 C 0.64566 0.89813 0.09587 0.0
C2053 C 0.62266 0.89375 0.1389 0.0
C2054 C 0.61858 0.89211 0.12177 0.0
C2055 C 0.62627 0.89403 0.10813 0.0
C2056 C 0.60646 0.88587 0.11779 0.0
C2057 C 0.61489 0.89552 0.15419 0.0
C2058 C 0.60081 0.85375 0.12491 0.0
C2059 C 0.58945 0.84763 0.12153 0.0
C2060 C 0.58344 0.87302 0.11064 0.0
C2061 C 0.58919 0.90431 0.10288 0.0
C2062 C 0.6006 0.91071 0.10646 0.0
H2063 H 0.6189 0.91083 0.16519 0.0
H2064 H 0.60693 0.91078 0.15099 0.0
H2065 H 0.6129 0.86532 0.15844 0.0
H2066 H 0.60519 0.8332 0.13312 0.0
H2067 H 0.58537 0.82277 0.12749 0.0
H2068 H 0.67313 0.41627 0.12329 0.0
H2069 H 0.65328 0.40516 0.1285 0.0
H2070 H 0.65552 0.29295 0.10333 0.0
H2071 H 0.67556 0.30455 0.09758 0.0
H2072 H 0.63635 0.32992 0.09488 0.0
H2073 H 0.64086 0.33566 0.16541 0.0
H2074 H 0.64638 0.3793 0.15585 0.0
H2075 H 0.65281 0.33269 0.15122 0.0
C2076 C 0.66943 0.3892 0.11879 0.0
C2077 C 0.67597 0.36104 0.1102 0.0
C2078 C 0.65807 0.38274 0.12193 0.0
C2079 C 0.65296 0.3476 0.1169 0.0
C2080 C 0.65931 0.32005 0.10759 0.0
H2081 H 0.58443 0.31191 0.158 0.0
H2082 H 0.60451 0.30164 0.15223 0.0
C2083 C 0.67074 0.32675 0.10423 0.0
C2084 C 0.64094 0.34057 0.12125 0.0
H2085 H 0.62221 0.34786 0.15439 0.0
C2086 C 0.63329 0.33322 0.10793 0.0
C2087 C 0.63689 0.34368 0.13835 0.0
C2088 C 0.6447 0.3478 0.15353 0.0
C2089 C 0.62168 0.33156 0.11108 0.0
C2090 C 0.61757 0.3386 0.12793 0.0
C2091 C 0.62528 0.34327 0.14142 0.0
C2092 C 0.60538 0.34407 0.13156 0.0
C2093 C 0.61395 0.32249 0.09624 0.0
C2094 C 0.59926 0.37208 0.1223 0.0
C2095 C 0.58786 0.37772 0.12547 0.0
C2096 C 0.58226 0.35604 0.13825 0.0
C2097 C 0.58847 0.329 0.14804 0.0
C2098 C 0.59993 0.32302 0.1447 0.0
H2099 H 0.61821 0.30395 0.08648 0.0
H2100 H 0.60625 0.30721 0.10061 0.0
H2101 H 0.61149 0.35021 0.08983 0.0
H2102 H 0.60331 0.38989 0.1126 0.0
H2103 H 0.58342 0.39936 0.11788 0.0
H2104 H 0.42611 0.10304 0.86294 0.0
H2105 H 0.40594 0.09706 0.85889 0.0
H2106 H 0.40128 0.0911 0.91381 0.0
H2107 H 0.42165 0.09733 0.91806 0.0
H2108 H 0.39018 0.03869 0.86987 0.0
H2109 H 0.38176 0.18559 0.89797 0.0
H2110 H 0.39562 0.17032 0.8915 0.0
H2111 H 0.38964 0.15212 0.91111 0.0
C2112 C 0.42085 0.10025 0.87423 0.0
C2113 C 0.42553 0.10109 0.89087 0.0
C2114 C 0.40929 0.09665 0.87185 0.0
C2115 C 0.40208 0.09414 0.88602 0.0
C2116 C 0.4067 0.09351 0.90268 0.0
H2117 H 0.32958 0.11223 0.89114 0.0
H2118 H 0.34943 0.10354 0.89729 0.0
C2119 C 0.41834 0.09683 0.90509 0.0
C2120 C 0.38974 0.09397 0.88312 0.0
H2121 H 0.36623 0.15004 0.88793 0.0
C2122 C 0.38491 0.0629 0.8739 0.0
C2123 C 0.3829 0.1257 0.88827 0.0
C2124 C 0.3877 0.16055 0.89765 0.0
C2125 C 0.3734 0.06252 0.86985 0.0
C2126 C 0.36658 0.09457 0.87477 0.0
C2127 C 0.37143 0.12547 0.88411 0.0
C2128 C 0.35437 0.09671 0.87069 0.0
C2129 C 0.36863 0.02748 0.86059 0.0
C2130 C 0.35043 0.09544 0.85363 0.0
C2131 C 0.33895 0.10012 0.85002 0.0
C2132 C 0.33124 0.10678 0.8634 0.0
C2133 C 0.33525 0.10745 0.88045 0.0
C2134 C 0.34663 0.10245 0.88403 0.0
H2135 H 0.37406 0.00127 0.86215 0.0
H2136 H 0.3601 0.02035 0.86536 0.0
H2137 H 0.36805 0.03407 0.84665 0.0
H2138 H 0.35624 0.09192 0.84305 0.0
H2139 H 0.33619 0.09975 0.83675 0.0
H2140 H 0.42359 0.64125 0.83715 0.0
H2141 H 0.40328 0.64749 0.84191 0.0
H2142 H 0.40823 0.63107 0.89635 0.0
H2143 H 0.42833 0.62506 0.89184 0.0
H2144 H 0.38933 0.5891 0.85744 0.0
H2145 H 0.38778 0.72788 0.89437 0.0
H2146 H 0.39975 0.71388 0.88152 0.0
H2147 H 0.39768 0.69279 0.90246 0.0
C2148 C 0.42036 0.63954 0.85015 0.0
C2149 C 0.42764 0.63262 0.86408 0.0
C2150 C 0.40875 0.64302 0.85285 0.0
C2151 C 0.40424 0.64028 0.86952 0.0
C2152 C 0.41151 0.63406 0.88342 0.0
H2153 H 0.33768 0.62872 0.9162 0.0
H2154 H 0.35794 0.63428 0.91072 0.0
C2155 C 0.42304 0.63032 0.88075 0.0
C2156 C 0.39191 0.64118 0.87245 0.0
H2157 H 0.3712 0.68902 0.89451 0.0
C2158 C 0.38534 0.61119 0.86538 0.0
C2159 C 0.38674 0.66966 0.88305 0.0
C2160 C 0.39332 0.7031 0.89069 0.0
C2161 C 0.37381 0.60835 0.8689 0.0
C2162 C 0.36859 0.63696 0.87943 0.0
C2163 C 0.37517 0.66708 0.88646 0.0
C2164 C 0.35631 0.63633 0.88299 0.0
C2165 C 0.36741 0.57389 0.86174 0.0
C2166 C 0.34863 0.63702 0.86932 0.0
C2167 C 0.33714 0.63348 0.87241 0.0
C2168 C 0.33298 0.6299 0.88928 0.0
C2169 C 0.34061 0.63137 0.90307 0.0
C2170 C 0.35218 0.63447 0.89994 0.0
H2171 H 0.37308 0.54908 0.85861 0.0
H2172 H 0.36096 0.56346 0.87095 0.0
H2173 H 0.36314 0.58283 0.84968 0.0
H2174 H 0.35154 0.63973 0.85618 0.0
H2175 H 0.33151 0.63316 0.86148 0.0
H2176 H 0.06494 0.98655 0.17617 0.0
H2177 H 0.06829 0.05277 0.16479 0.0
H2178 H 0.0499 0.0234 0.11883 0.0
H2179 H 0.04646 0.95793 0.12998 0.0
H2180 H 0.07748 0.07745 0.12765 0.0
H2181 H 0.03383 0.11997 0.14488 0.0
H2182 H 0.0411 0.08013 0.15533 0.0
H2183 H 0.03555 0.07381 0.13405 0.0
C2184 C 0.06169 0.99423 0.1636 0.0
C2185 C 0.05535 0.96724 0.15404 0.0
C2186 C 0.06367 0.03184 0.1571 0.0
C2187 C 0.05931 0.04267 0.14102 0.0
C2188 C 0.05331 0.01541 0.13127 0.0
H2189 H 0.06315 0.24692 0.07486 0.0
H2190 H 0.06566 0.1812 0.08715 0.0
C2191 C 0.05133 0.97807 0.13772 0.0
C2192 C 0.06013 0.08331 0.13483 0.0
H2193 H 0.04406 0.16406 0.12763 0.0
C2194 C 0.07024 0.0967 0.12776 0.0
C2195 C 0.05064 0.108 0.13504 0.0
C2196 C 0.03966 0.09503 0.14282 0.0
C2197 C 0.07105 0.13439 0.12061 0.0
C2198 C 0.06145 0.15873 0.12043 0.0
C2199 C 0.0514 0.14529 0.12774 0.0
C2200 C 0.06151 0.19872 0.11316 0.0
C2201 C 0.08213 0.14797 0.11346 0.0
C2202 C 0.05835 0.23014 0.12368 0.0
C2203 C 0.05672 0.26715 0.11668 0.0
C2204 C 0.05828 0.27367 0.099 0.0
C2205 C 0.06192 0.24265 0.08853 0.0
C2206 C 0.06343 0.20525 0.09556 0.0
H2207 H 0.08921 0.12994 0.11831 0.0
H2208 H 0.08196 0.14548 0.09923 0.0
H2209 H 0.0837 0.17909 0.1168 0.0
H2210 H 0.05681 0.22571 0.13728 0.0
H2211 H 0.05399 0.29046 0.12513 0.0
H2212 H 0.219 0.96862 0.11481 0.0
H2213 H 0.21475 0.03317 0.12622 0.0
H2214 H 0.18711 0.04417 0.09071 0.0
H2215 H 0.19164 0.97946 0.07867 0.0
H2216 H 0.19846 0.11003 0.09207 0.0
H2217 H 0.19057 0.06423 0.15876 0.0
H2218 H 0.20402 0.04626 0.15228 0.0
H2219 H 0.19157 0.02938 0.14138 0.0
C2220 C 0.21199 0.98469 0.10942 0.0
C2221 C 0.20561 0.969 0.09592 0.0
C2222 C 0.20949 0.02144 0.11611 0.0
C2223 C 0.20037 0.043 0.10974 0.0
C2224 C 0.19408 0.02777 0.09599 0.0
H2225 H 0.19247 0.26049 0.1694 0.0
H2226 H 0.18727 0.1979 0.15608 0.0
C2227 C 0.1967 0.99097 0.08908 0.0
C2228 C 0.198 0.08231 0.11697 0.0
H2229 H 0.19742 0.13127 0.15519 0.0
C2230 C 0.19797 0.11465 0.10586 0.0
C2231 C 0.19695 0.0885 0.13491 0.0
C2232 C 0.19564 0.05512 0.14745 0.0
C2233 C 0.19795 0.153 0.11231 0.0
C2234 C 0.1984 0.15903 0.13032 0.0
C2235 C 0.19738 0.12677 0.14138 0.0
C2236 C 0.20104 0.19782 0.1379 0.0
C2237 C 0.19765 0.18654 0.09969 0.0
C2238 C 0.2106 0.21816 0.13238 0.0
C2239 C 0.21348 0.25388 0.1398 0.0
C2240 C 0.20703 0.26956 0.15323 0.0
C2241 C 0.1976 0.24891 0.1591 0.0
C2242 C 0.1946 0.21331 0.15145 0.0
H2243 H 0.19283 0.17848 0.08799 0.0
H2244 H 0.19384 0.21316 0.10543 0.0
H2245 H 0.20633 0.19349 0.09556 0.0
H2246 H 0.21597 0.20616 0.12246 0.0
H2247 H 0.22086 0.269 0.13513 0.0
H2248 H 0.94186 0.73091 0.92389 0.0
H2249 H 0.93669 0.79304 0.90998 0.0
H2250 H 0.96549 0.78313 0.87665 0.0
H2251 H 0.97038 0.72097 0.88993 0.0
H2252 H 0.94693 0.86067 0.90768 0.0
H2253 H 0.94188 0.80531 0.84177 0.0
H2254 H 0.94287 0.77288 0.86004 0.0
H2255 H 0.95537 0.79075 0.84959 0.0
C2256 C 0.94706 0.74218 0.91359 0.0
C2257 C 0.95648 0.72117 0.90789 0.0
C2258 C 0.94407 0.77744 0.9056 0.0
C2259 C 0.9505 0.7921 0.89188 0.0
C2260 C 0.96013 0.77168 0.8867 0.0
H2261 H 0.96966 0.01522 0.86332 0.0
H2262 H 0.96481 0.95277 0.8763 0.0
C2263 C 0.96301 0.73638 0.89446 0.0
C2264 C 0.94772 0.82988 0.88351 0.0
H2265 H 0.94776 0.87396 0.84413 0.0
C2266 C 0.94684 0.86348 0.89378 0.0
C2267 C 0.94716 0.83366 0.86538 0.0
C2268 C 0.94673 0.79857 0.85361 0.0
C2269 C 0.94654 0.9009 0.8864 0.0
C2270 C 0.94757 0.90476 0.86833 0.0
C2271 C 0.9473 0.87111 0.85801 0.0
C2272 C 0.95028 0.9428 0.86016 0.0
C2273 C 0.94545 0.93592 0.8981 0.0
C2274 C 0.9441 0.95705 0.84607 0.0
C2275 C 0.94706 0.99258 0.83829 0.0
C2276 C 0.95621 0.0142 0.84454 0.0
C2277 C 0.96249 -0.00063 0.85835 0.0
C2278 C 0.95963 0.96388 0.86593 0.0
H2279 H 0.94034 0.92865 0.90962 0.0
H2280 H 0.9539 0.94468 0.90269 0.0
H2281 H 0.94154 0.96118 0.89141 0.0
H2282 H 0.93695 0.94093 0.84124 0.0
H2283 H 0.94206 0.00352 0.82769 0.0
H2284 H 0.79211 0.02059 0.88859 0.0
H2285 H 0.79648 0.95779 0.87543 0.0
H2286 H 0.8245 0.94353 0.91003 0.0
H2287 H 0.81987 0.00631 0.92375 0.0
H2288 H 0.81492 0.93361 0.85855 0.0
H2289 H 0.80798 0.84183 0.91677 0.0
H2290 H 0.80399 0.89269 0.91598 0.0
H2291 H 0.81846 0.87927 0.91869 0.0
C2292 C 0.79915 0.00396 0.89351 0.0
C2293 C 0.80558 0.01805 0.9073 0.0
C2294 C 0.80169 0.96818 0.8859 0.0
C2295 C 0.81077 0.94582 0.8918 0.0
C2296 C 0.81732 0.95996 0.90548 0.0
H2297 H 0.82179 0.73126 0.82922 0.0
H2298 H 0.82609 0.79489 0.8425 0.0
C2299 C 0.81468 -0.00426 0.91331 0.0
C2300 C 0.81302 0.90747 0.88359 0.0
H2301 H 0.81167 0.80924 0.89095 0.0
C2302 C 0.81435 0.90632 0.86563 0.0
C2303 C 0.81231 0.87202 0.8929 0.0
C2304 C 0.81053 0.87125 0.91212 0.0
C2305 C 0.8142 0.87078 0.85658 0.0
C2306 C 0.81302 0.83543 0.86584 0.0
C2307 C 0.81253 0.83647 0.8839 0.0
C2308 C 0.81067 0.79766 0.8572 0.0
C2309 C 0.81454 0.87164 0.83718 0.0
C2310 C 0.80066 0.77808 0.86113 0.0
C2311 C 0.79833 0.74181 0.85387 0.0
C2312 C 0.80587 0.72453 0.8423 0.0
C2313 C 0.81577 0.74439 0.83793 0.0
C2314 C 0.81822 0.78065 0.84549 0.0
H2315 H 0.81331 0.90165 0.832 0.0
H2316 H 0.82282 0.86089 0.83272 0.0
H2317 H 0.80798 0.85228 0.83167 0.0
H2318 H 0.79467 0.79075 0.87002 0.0
H2319 H 0.79063 0.72708 0.85744 0.0
H2320 H 0.06209 0.74885 0.57866 0.0
H2321 H 0.06519 0.68296 0.5905 0.0
H2322 H 0.04994 0.71859 0.63828 0.0
H2323 H 0.04667 0.78374 0.62661 0.0
H2324 H 0.07622 0.65542 0.62315 0.0
H2325 H 0.03041 0.62674 0.61907 0.0
H2326 H 0.03708 0.66623 0.60756 0.0
H2327 H 0.03421 0.67093 0.63015 0.0
C2328 C 0.0595 0.74263 0.59173 0.0
C2329 C 0.054 0.77121 0.60163 0.0
C2330 C 0.06132 0.70517 0.59848 0.0
C2331 C 0.05769 0.69605 0.61517 0.0
C2332 C 0.05269 0.72508 0.62531 0.0
H2333 H 0.06397 0.484 0.67729 0.0
H2334 H 0.06628 0.55111 0.66636 0.0
C2335 C 0.05082 0.76226 0.61858 0.0
C2336 C 0.0582 0.65551 0.62163 0.0
H2337 H 0.04142 0.57941 0.63336 0.0
C2338 C 0.06865 0.63862 0.62536 0.0
C2339 C 0.04827 0.63384 0.62437 0.0
C2340 C 0.03685 0.65012 0.61996 0.0
C2341 C 0.0694 0.60041 0.63197 0.0
C2342 C 0.05944 0.5791 0.63498 0.0
C2343 C 0.04903 0.59605 0.63115 0.0
C2344 C 0.05949 0.53825 0.64116 0.0
C2345 C 0.08078 0.58279 0.63539 0.0
C2346 C 0.05494 0.50911 0.6306 0.0
C2347 C 0.0535 0.47131 0.63682 0.0
C2348 C 0.05659 0.46178 0.65375 0.0
C2349 C 0.06152 0.49061 0.66419 0.0
C2350 C 0.06291 0.52877 0.65794 0.0
H2351 H 0.08763 0.60038 0.62957 0.0
H2352 H 0.0822 0.58129 0.64948 0.0
H2353 H 0.08121 0.55251 0.63024 0.0
H2354 H 0.05222 0.51594 0.61764 0.0
H2355 H 0.04973 0.44979 0.6284 0.0
H2356 H 0.19763 0.48538 0.57797 0.0
H2357 H 0.19422 0.55153 0.58936 0.0
H2358 H 0.2127 0.5223 0.63526 0.0
H2359 H 0.21619 0.4568 0.62409 0.0
H2360 H 0.18477 0.57679 0.62521 0.0
H2361 H 0.22882 0.61869 0.6106 0.0
H2362 H 0.2219 0.57815 0.60015 0.0
H2363 H 0.22697 0.57306 0.62178 0.0
C2364 C 0.20089 0.49307 0.59053 0.0
C2365 C 0.20727 0.46611 0.60006 0.0
C2366 C 0.19888 0.53066 0.59703 0.0
C2367 C 0.20325 0.54156 0.61309 0.0
C2368 C 0.2093 0.51431 0.62282 0.0
H2369 H 0.19787 0.74784 0.6781 0.0
H2370 H 0.19564 0.68165 0.66615 0.0
C2371 C 0.2113 0.47695 0.61637 0.0
C2372 C 0.20233 0.5822 0.61929 0.0
H2373 H 0.21821 0.66294 0.62728 0.0
C2374 C 0.19202 0.59589 0.62557 0.0
C2375 C 0.21183 0.60679 0.61965 0.0
C2376 C 0.22301 0.5937 0.61258 0.0
C2377 C 0.19103 0.63374 0.63252 0.0
C2378 C 0.20063 0.65794 0.63328 0.0
C2379 C 0.21087 0.64422 0.62676 0.0
C2380 C 0.20035 0.6982 0.64025 0.0
C2381 C 0.17975 0.64768 0.63879 0.0
C2382 C 0.20369 0.72922 0.62966 0.0
C2383 C 0.20515 0.7665 0.63647 0.0
C2384 C 0.20323 0.77368 0.65402 0.0
C2385 C 0.19939 0.74306 0.66452 0.0
C2386 C 0.19804 0.70539 0.65769 0.0
H2387 H 0.17282 0.62933 0.63371 0.0
H2388 H 0.17954 0.64614 0.65304 0.0
H2389 H 0.17827 0.67857 0.63497 0.0
H2390 H 0.20553 0.72427 0.61618 0.0
H2391 H 0.20804 0.78947 0.62798 0.0
H2392 H 0.9413 0.50597 0.33009 0.0
H2393 H 0.93614 0.44359 0.34377 0.0
H2394 H 0.96549 0.45105 0.37611 0.0
H2395 H 0.97036 0.5135 0.36308 0.0
H2396 H 0.94614 0.37528 0.3454 0.0
H2397 H 0.94231 0.42955 0.41171 0.0
H2398 H 0.94319 0.4623 0.39353 0.0
H2399 H 0.95575 0.44335 0.40346 0.0
C2400 C 0.94662 0.4941 0.34012 0.0
C2401 C 0.95618 0.51451 0.34563 0.0
C2402 C 0.94364 0.45869 0.34798 0.0
C2403 C 0.95023 0.44329 0.36137 0.0
C2404 C 0.96001 0.46308 0.36633 0.0
H2405 H 0.9684 0.2179 0.38884 0.0
H2406 H 0.96379 0.28077 0.37602 0.0
C2407 C 0.96287 0.49854 0.35872 0.0
C2408 C 0.94741 0.40548 0.36967 0.0
H2409 H 0.9477 0.36057 0.40886 0.0
C2410 C 0.94621 0.37218 0.35929 0.0
C2411 C 0.94708 0.40136 0.3878 0.0
C2412 C 0.94701 0.43621 0.39972 0.0
C2413 C 0.94579 0.33462 0.36654 0.0
C2414 C 0.947 0.3303 0.38456 0.0
C2415 C 0.94708 0.36375 0.39501 0.0
C2416 C 0.94951 0.29187 0.39253 0.0
C2417 C 0.94435 0.29994 0.35473 0.0
C2418 C 0.94339 0.27801 0.40673 0.0
C2419 C 0.9462 0.24221 0.41441 0.0
C2420 C 0.95516 0.2199 0.40794 0.0
C2421 C 0.96138 0.23427 0.39399 0.0
C2422 C 0.95866 0.27002 0.38649 0.0
H2423 H 0.93917 0.30787 0.34336 0.0
H2424 H 0.95268 0.29053 0.34992 0.0
H2425 H 0.94033 0.2749 0.36142 0.0
H2426 H 0.9364 0.29471 0.41176 0.0
H2427 H 0.94125 0.23167 0.42513 0.0
H2428 H 0.81885 0.22915 0.32735 0.0
H2429 H 0.82405 0.29228 0.34033 0.0
H2430 H 0.79536 0.28495 0.374 0.0
H2431 H 0.79043 0.2219 0.36162 0.0
H2432 H 0.81376 0.36071 0.34221 0.0
H2433 H 0.81943 0.30718 0.40833 0.0
H2434 H 0.81829 0.27429 0.39024 0.0
H2435 H 0.80587 0.29259 0.40081 0.0
C2436 C 0.81367 0.24124 0.33749 0.0
C2437 C 0.80428 0.22068 0.34358 0.0
C2438 C 0.81668 0.27708 0.34496 0.0
C2439 C 0.8103 0.2927 0.35853 0.0
C2440 C 0.80067 0.27278 0.36404 0.0
H2441 H 0.79236 0.51837 0.38687 0.0
H2442 H 0.79686 0.45602 0.37344 0.0
C2443 C 0.79778 0.23696 0.3568 0.0
C2444 C 0.81321 0.3307 0.36657 0.0
H2445 H 0.81375 0.37583 0.40569 0.0
C2446 C 0.81402 0.36395 0.35608 0.0
C2447 C 0.81399 0.33497 0.38466 0.0
C2448 C 0.81449 0.3002 0.3966 0.0
C2449 C 0.81451 0.40159 0.36325 0.0
C2450 C 0.81373 0.40601 0.38133 0.0
C2451 C 0.81403 0.37262 0.39181 0.0
C2452 C 0.81136 0.44442 0.38945 0.0
C2453 C 0.81557 0.4362 0.35131 0.0
C2454 C 0.81765 0.45786 0.40356 0.0
C2455 C 0.81487 0.49322 0.41163 0.0
C2456 C 0.80579 0.51561 0.40563 0.0
C2457 C 0.79946 0.50188 0.39166 0.0
C2458 C 0.80213 0.46646 0.38381 0.0
H2459 H 0.82056 0.42837 0.33973 0.0
H2460 H 0.80711 0.4451 0.34683 0.0
H2461 H 0.81961 0.46152 0.35776 0.0
H2462 H 0.82471 0.44107 0.40829 0.0
H2463 H 0.81991 0.50329 0.42234 0.0
H2464 H 0.53864 0.98281 0.6487 0.0
H2465 H 0.54275 0.04767 0.63735 0.0
H2466 H 0.57493 0.04616 0.66274 0.0
H2467 H 0.57059 0.98122 0.67481 0.0
H2468 H 0.5653 0.11768 0.66452 0.0
H2469 H 0.56336 0.06609 0.59743 0.0
H2470 H 0.55062 0.05398 0.60838 0.0
H2471 H 0.56369 0.03274 0.61542 0.0
C2472 C 0.54656 -0.00355 0.652 0.0
C2473 C 0.55434 0.97709 0.6625 0.0
C2474 C 0.54894 0.03332 0.64537 0.0
C2475 C 0.55931 0.05112 0.64868 0.0
C2476 C 0.56694 0.03264 0.65983 0.0
H2477 H 0.56874 0.25816 0.58325 0.0
H2478 H 0.57299 0.19551 0.59723 0.0
C2479 C 0.56445 -0.00423 0.66677 0.0
C2480 C 0.56196 0.08903 0.64038 0.0
H2481 H 0.56009 0.13553 0.60168 0.0
C2482 C 0.56439 0.12153 0.65075 0.0
C2483 C 0.56115 0.09389 0.62233 0.0
C2484 C 0.5597 0.05966 0.61026 0.0
C2485 C 0.56511 0.15926 0.64367 0.0
C2486 C 0.563 0.1646 0.62589 0.0
C2487 C 0.56148 0.13167 0.61537 0.0
C2488 C 0.56127 0.20388 0.61819 0.0
C2489 C 0.56798 0.19298 0.65539 0.0
C2490 C 0.5532 0.22919 0.6252 0.0
C2491 C 0.55084 0.26491 0.61733 0.0
C2492 C 0.55632 0.27576 0.60208 0.0
C2493 C 0.56436 0.25044 0.59497 0.0
C2494 C 0.56682 0.21477 0.60298 0.0
H2495 H 0.57351 0.18323 0.66607 0.0
H2496 H 0.57222 0.217 0.64832 0.0
H2497 H 0.56016 0.20459 0.66123 0.0
H2498 H 0.5485 0.22092 0.63654 0.0
H2499 H 0.54455 0.28372 0.62306 0.0
H2500 H 0.69306 0.25335 0.67289 0.0
H2501 H 0.68857 0.18997 0.65969 0.0
H2502 H 0.71467 0.20806 0.62208 0.0
H2503 H 0.71888 0.27154 0.63474 0.0
H2504 H 0.69607 0.17922 0.60735 0.0
H2505 H 0.70698 0.09217 0.66552 0.0
H2506 H 0.69599 0.12751 0.66834 0.0
H2507 H 0.71003 0.14367 0.66386 0.0
C2508 C 0.69783 0.24363 0.66183 0.0
C2509 C 0.70638 0.26713 0.65492 0.0
C2510 C 0.69528 0.20746 0.65432 0.0
C2511 C 0.70138 0.19406 0.64002 0.0
C2512 C 0.70983 0.21782 0.63307 0.0
H2513 H 0.72184 0.97371 0.60647 0.0
H2514 H 0.71812 0.03836 0.61833 0.0
C2515 C 0.71227 0.25401 0.64038 0.0
C2516 C 0.69939 0.15493 0.63239 0.0
H2517 H 0.7022 0.05743 0.64067 0.0
C2518 C 0.69728 0.15248 0.61464 0.0
C2519 C 0.70098 0.12018 0.64197 0.0
C2520 C 0.70371 0.12079 0.66094 0.0
C2521 C 0.69742 0.11641 0.60599 0.0
C2522 C 0.69939 0.0818 0.61549 0.0
C2523 C 0.70073 0.08408 0.63342 0.0
C2524 C 0.70157 0.04362 0.60707 0.0
C2525 C 0.69616 0.11601 0.58667 0.0
C2526 C 0.6936 0.02534 0.59643 0.0
C2527 C 0.69587 0.98854 0.58923 0.0
C2528 C 0.706 0.9694 0.59295 0.0
C2529 C 0.71396 0.98793 0.60342 0.0
C2530 C 0.71181 0.02476 0.61027 0.0
H2531 H 0.69698 0.14575 0.58103 0.0
H2532 H 0.70253 0.09664 0.58067 0.0
H2533 H 0.68773 0.10462 0.58328 0.0
H2534 H 0.68555 0.03898 0.59405 0.0
H2535 H 0.68954 0.97441 0.5814 0.0
H2536 H 0.44174 0.73071 0.42371 0.0
H2537 H 0.43686 0.79381 0.41041 0.0
H2538 H 0.46575 0.78434 0.37724 0.0
H2539 H 0.47034 0.72122 0.3899 0.0
H2540 H 0.44736 0.86102 0.40896 0.0
H2541 H 0.44242 0.80961 0.3424 0.0
H2542 H 0.44324 0.77611 0.36031 0.0
H2543 H 0.45584 0.79421 0.35019 0.0
C2544 C 0.447 0.74225 0.41356 0.0
C2545 C 0.45636 0.7211 0.40773 0.0
C2546 C 0.44419 0.7781 0.40592 0.0
C2547 C 0.45074 0.79322 0.39243 0.0
C2548 C 0.4603 0.77259 0.38711 0.0
H2549 H 0.47008 0.01845 0.36602 0.0
H2550 H 0.46525 0.95557 0.37861 0.0
C2551 C 0.463 0.73671 0.39451 0.0
C2552 C 0.44814 0.8316 0.38446 0.0
H2553 H 0.44835 0.87792 0.34558 0.0
C2554 C 0.44731 0.86463 0.3951 0.0
C2555 C 0.44765 0.83643 0.36637 0.0
C2556 C 0.44719 0.80205 0.35421 0.0
C2557 C 0.44708 0.90248 0.38812 0.0
C2558 C 0.44813 0.90736 0.3701 0.0
C2559 C 0.44786 0.87429 0.35942 0.0
C2560 C 0.45078 0.94589 0.36232 0.0
C2561 C 0.446 0.93683 0.40021 0.0
C2562 C 0.44461 0.96057 0.34831 0.0
C2563 C 0.44755 -0.00364 0.34075 0.0
C2564 C 0.45668 0.01786 0.34714 0.0
C2565 C 0.46293 0.00271 0.36093 0.0
C2566 C 0.46008 0.96696 0.3683 0.0
H2567 H 0.44089 0.92893 0.41164 0.0
H2568 H 0.45445 0.94529 0.4049 0.0
H2569 H 0.44209 0.96247 0.3938 0.0
H2570 H 0.43749 0.9445 0.34332 0.0
H2571 H 0.44258 0.00747 0.33016 0.0
H2572 H 0.31222 0.74172 0.32108 0.0
H2573 H 0.31583 0.8089 0.33116 0.0
H2574 H 0.30434 0.77719 0.38184 0.0
H2575 H 0.30048 0.71106 0.37194 0.0
H2576 H 0.29601 0.8542 0.35072 0.0
H2577 H 0.33646 0.83879 0.38578 0.0
H2578 H 0.33286 0.80853 0.3675 0.0
H2579 H 0.32633 0.8 0.38793 0.0
C2580 C 0.31057 0.7491 0.33438 0.0
C2581 C 0.30604 0.7212 0.34569 0.0
C2582 C 0.31267 0.78728 0.34012 0.0
C2583 C 0.31047 0.79754 0.35727 0.0
C2584 C 0.30622 0.76951 0.36862 0.0
H2585 H 0.30859 0.99324 0.42641 0.0
H2586 H 0.31113 0.92929 0.41247 0.0
C2587 C 0.30397 0.73177 0.36288 0.0
C2588 C 0.31144 0.83833 0.36318 0.0
H2589 H 0.32613 0.89721 0.3905 0.0
C2590 C 0.30268 0.86403 0.35916 0.0
C2591 C 0.32003 0.85029 0.3745 0.0
C2592 C 0.32952 0.82315 0.37919 0.0
C2593 C 0.30205 0.90121 0.36668 0.0
C2594 C 0.31066 0.91344 0.37804 0.0
C2595 C 0.31957 0.88788 0.38175 0.0
C2596 C 0.31033 0.95225 0.38652 0.0
C2597 C 0.29184 0.92607 0.36305 0.0
C2598 C 0.30945 0.98633 0.37659 0.0
C2599 C 0.30771 0.02241 0.38448 0.0
C2600 C 0.30721 0.02532 0.40248 0.0
C2601 C 0.30888 0.99166 0.4125 0.0
C2602 C 0.31036 0.95525 0.40456 0.0
H2603 H 0.28468 0.90815 0.35839 0.0
H2604 H 0.28911 0.94222 0.37472 0.0
H2605 H 0.29388 0.94765 0.35286 0.0
H2606 H 0.30979 0.9849 0.36268 0.0
H2607 H 0.30665 0.04795 0.37642 0.0
H2608 H 0.54767 0.44407 0.1237 0.0
H2609 H 0.5511 0.50649 0.1097 0.0
H2610 H 0.56378 0.55367 0.15736 0.0
H2611 H 0.56073 0.49023 0.17142 0.0
H2612 H 0.54074 0.57233 0.11816 0.0
H2613 H 0.58668 0.59439 0.12312 0.0
H2614 H 0.58012 0.5475 0.12683 0.0
H2615 H 0.58014 0.58418 0.14343 0.0
C2616 C 0.55135 0.46745 0.1312 0.0
C2617 C 0.5539 0.4623 0.1487 0.0
C2618 C 0.55333 0.50313 0.12313 0.0
C2619 C 0.55781 0.53461 0.1324 0.0
C2620 C 0.56057 0.52948 0.14984 0.0
H2621 H 0.5465 0.77568 0.11866 0.0
H2622 H 0.54922 0.70831 0.12776 0.0
C2623 C 0.55871 0.49341 0.15791 0.0
C2624 C 0.55838 0.57364 0.1242 0.0
H2625 H 0.57568 0.65085 0.11556 0.0
C2626 C 0.54843 0.58918 0.11738 0.0
C2627 C 0.56843 0.5955 0.12307 0.0
C2628 C 0.57947 0.57941 0.12935 0.0
C2629 C 0.54816 0.62648 0.11001 0.0
C2630 C 0.55805 0.64907 0.10966 0.0
C2631 C 0.56811 0.63326 0.11591 0.0
C2632 C 0.55767 0.69049 0.10445 0.0
C2633 C 0.53721 0.64197 0.10301 0.0
C2634 C 0.56175 0.70279 0.08841 0.0
C2635 C 0.56021 0.74162 0.08308 0.0
C2636 C 0.55457 0.76831 0.09379 0.0
C2637 C 0.55083 0.75588 0.11004 0.0
C2638 C 0.55239 0.7174 0.11532 0.0
H2639 H 0.53104 0.61818 0.1008 0.0
H2640 H 0.53355 0.66288 0.11239 0.0
H2641 H 0.53858 0.65787 0.09073 0.0
H2642 H 0.56583 0.68216 0.07987 0.0
H2643 H 0.56321 0.75052 0.07053 0.0
H2644 H 0.69911 0.4854 0.07175 0.0
H2645 H 0.6966 0.55399 0.08075 0.0
H2646 H 0.70766 0.52417 0.1319 0.0
H2647 H 0.71031 0.45655 0.12313 0.0
H2648 H 0.68417 0.58871 0.11427 0.0
H2649 H 0.73037 0.60779 0.10885 0.0
H2650 H 0.72285 0.57023 0.09727 0.0
H2651 H 0.72568 0.56442 0.11981 0.0
C2652 C 0.70086 0.4935 0.08495 0.0
C2653 C 0.70503 0.46578 0.09667 0.0
C2654 C 0.69937 0.53248 0.09007 0.0
C2655 C 0.70199 0.54381 0.10695 0.0
C2656 C 0.70562 0.5158 0.11882 0.0
H2657 H 0.69902 0.75155 0.17011 0.0
H2658 H 0.69576 0.68669 0.15737 0.0
C2659 C 0.70717 0.4772 0.11373 0.0
C2660 C 0.70213 0.58529 0.112 0.0
H2661 H 0.7203 0.65784 0.12307 0.0
C2662 C 0.69202 0.60419 0.11601 0.0
C2663 C 0.71242 0.60506 0.1142 0.0
C2664 C 0.72347 0.58607 0.10971 0.0
C2665 C 0.69199 0.64246 0.12264 0.0
C2666 C 0.70233 0.66163 0.12545 0.0
C2667 C 0.71239 0.64291 0.121 0.0
C2668 C 0.70308 0.70145 0.13272 0.0
C2669 C 0.68096 0.66212 0.12651 0.0
C2670 C 0.70834 0.73084 0.12313 0.0
C2671 C 0.71035 0.76734 0.1304 0.0
C2672 C 0.70711 0.77529 0.14743 0.0
C2673 C 0.7016 0.74616 0.15696 0.0
C2674 C 0.69964 0.70933 0.14966 0.0
H2675 H 0.67386 0.64733 0.11993 0.0
H2676 H 0.6794 0.66106 0.14058 0.0
H2677 H 0.68113 0.69333 0.12254 0.0
H2678 H 0.71112 0.72522 0.11009 0.0
H2679 H 0.7146 0.78914 0.12269 0.0
H2680 H 0.45927 0.20157 0.87845 0.0
H2681 H 0.45677 0.26774 0.86752 0.0
H2682 H 0.44425 0.30488 0.91693 0.0
H2683 H 0.4466 0.23793 0.92805 0.0
H2684 H 0.43266 0.33636 0.88431 0.0
H2685 H 0.47899 0.35347 0.88706 0.0
H2686 H 0.4741 0.31016 0.8763 0.0
H2687 H 0.47164 0.31605 0.89895 0.0
C2688 C 0.45586 0.22358 0.88699 0.0
C2689 C 0.45327 0.21474 0.90419 0.0
C2690 C 0.45441 0.26133 0.88068 0.0
C2691 C 0.45044 0.29104 0.89148 0.0
C2692 C 0.44732 0.28212 0.90844 0.0
H2693 H 0.46359 0.53478 0.87478 0.0
H2694 H 0.46013 0.47047 0.887 0.0
C2695 C 0.44871 0.24405 0.91477 0.0
C2696 C 0.45065 0.33184 0.88536 0.0
H2697 H 0.46882 0.40313 0.87276 0.0
C2698 C 0.44053 0.35122 0.88187 0.0
C2699 C 0.46096 0.35095 0.88234 0.0
C2700 C 0.47206 0.33182 0.88647 0.0
C2701 C 0.44049 0.38934 0.87505 0.0
C2702 C 0.45083 0.40792 0.87155 0.0
C2703 C 0.46091 0.38862 0.87534 0.0
C2704 C 0.45156 0.44802 0.86456 0.0
C2705 C 0.42946 0.40961 0.87185 0.0
C2706 C 0.44779 0.45681 0.84788 0.0
C2707 C 0.44974 0.49389 0.84079 0.0
C2708 C 0.45557 0.52234 0.85029 0.0
C2709 C 0.4591 0.51352 0.86709 0.0
C2710 C 0.45711 0.47678 0.87414 0.0
H2711 H 0.42243 0.39484 0.8786 0.0
H2712 H 0.42983 0.44061 0.8761 0.0
H2713 H 0.42764 0.40935 0.85785 0.0
H2714 H 0.44367 0.43469 0.84017 0.0
H2715 H 0.44692 0.49996 0.82782 0.0
H2716 H 0.31947 0.22811 0.83029 0.0
H2717 H 0.32451 0.29123 0.84333 0.0
H2718 H 0.29568 0.28335 0.87669 0.0
H2719 H 0.29093 0.22013 0.86431 0.0
H2720 H 0.31424 0.35838 0.84424 0.0
H2721 H 0.31893 0.31015 0.91129 0.0
H2722 H 0.31801 0.27577 0.89372 0.0
H2723 H 0.30546 0.29491 0.90365 0.0
C2724 C 0.31427 0.23993 0.84046 0.0
C2725 C 0.30486 0.21922 0.84639 0.0
C2726 C 0.31717 0.27582 0.84794 0.0
C2727 C 0.31068 0.29149 0.86138 0.0
C2728 C 0.3011 0.2712 0.86687 0.0
H2729 H 0.29225 0.51974 0.88551 0.0
H2730 H 0.29683 0.45612 0.87338 0.0
C2731 C 0.29831 0.23525 0.85962 0.0
C2732 C 0.31331 0.33021 0.86902 0.0
H2733 H 0.31316 0.37848 0.90743 0.0
C2734 C 0.31426 0.36267 0.85807 0.0
C2735 C 0.31377 0.33594 0.88705 0.0
C2736 C 0.31413 0.30218 0.89955 0.0
C2737 C 0.31461 0.40085 0.86466 0.0
C2738 C 0.31355 0.4067 0.88263 0.0
C2739 C 0.31366 0.37415 0.89362 0.0
C2740 C 0.31109 0.44579 0.89005 0.0
C2741 C 0.31588 0.43448 0.85224 0.0
C2742 C 0.31721 0.46045 0.9041 0.0
C2743 C 0.31439 0.49663 0.91141 0.0
C2744 C 0.30544 0.51862 0.90471 0.0
C2745 C 0.29927 0.50362 0.89082 0.0
C2746 C 0.30197 0.46743 0.88372 0.0
H2747 H 0.32103 0.42573 0.84097 0.0
H2748 H 0.30749 0.44307 0.84734 0.0
H2749 H 0.31984 0.46029 0.85843 0.0
H2750 H 0.32418 0.444 0.90935 0.0
H2751 H 0.3193 0.50763 0.92209 0.0
loop_
_geom_bond_atom_site_label_1
_geom_bond_atom_site_label_2
_geom_bond_distance
_geom_bond_site_symmetry_2
_ccdc_geom_bond_type
Co0 O1 2.216 . S
Co0 O2 2.091 . S
Co0 O4 2.004 . S
Co0 O10 2.021 . S
Co0 O12 2.137 . S
Co0 O13 2.244 . S
O1 Co0 2.216 . S
O1 C8 1.247 . S
O2 Co0 2.091 . S
O2 C8 1.261 . S
C3 O12 1.247 . S
C3 O13 1.272 . S
O4 Co0 2.004 . S
O4 C9 1.259 . S
Co5 O6 2.061 . S
Co5 O11 2.052 . S
Co5 O13 2.135 . S
O6 Co5 2.061 . S
O6 C9 1.235 . S
C7 O10 1.238 . S
C7 O11 1.241 . S
C8 O1 1.247 . S
C8 O2 1.261 . S
C9 O4 1.259 . S
C9 O6 1.235 . S
O10 Co0 2.021 . S
O10 C7 1.238 . S
O11 Co5 2.052 . S
O11 C7 1.241 . S
O12 Co0 2.137 . S
O12 C3 1.247 . S
O13 Co0 2.244 . S
O13 C3 1.272 . S
O13 Co5 2.135 . S
Co14 O15 2.216 . S
Co14 O16 2.091 . S
Co14 O18 2.004 . S
Co14 O24 2.021 . S
Co14 O26 2.137 . S
Co14 O27 2.244 . S
O15 Co14 2.216 . S
O15 C22 1.247 . S
O16 Co14 2.091 . S
O16 C22 1.261 . S
C17 O26 1.247 . S
C17 O27 1.272 . S
O18 Co14 2.004 . S
O18 C23 1.259 . S
Co19 O20 2.061 . S
Co19 O25 2.052 . S
Co19 O27 2.135 . S
O20 Co19 2.061 . S
O20 C23 1.235 . S
C21 O24 1.238 . S
C21 O25 1.241 . S
C22 O15 1.247 . S
C22 O16 1.261 . S
C23 O18 1.259 . S
C23 O20 1.235 . S
O24 Co14 2.021 . S
O24 C21 1.238 . S
O25 Co19 2.052 . S
O25 C21 1.241 . S
O26 Co14 2.137 . S
O26 C17 1.247 . S
O27 Co14 2.244 . S
O27 C17 1.272 . S
O27 Co19 2.135 . S
Co28 O29 2.216 . S
Co28 O30 2.091 . S
Co28 O32 2.004 . S
Co28 O38 2.021 . S
Co28 O40 2.137 . S
Co28 O41 2.244 . S
O29 Co28 2.216 . S
O29 C36 1.247 . S
O30 Co28 2.091 . S
O30 C36 1.261 . S
C31 O40 1.247 . S
C31 O41 1.272 . S
O32 Co28 2.004 . S
O32 C37 1.259 . S
Co33 O34 2.061 . S
Co33 O39 2.052 . S
Co33 O41 2.135 . S
O34 Co33 2.061 . S
O34 C37 1.235 . S
C35 O38 1.238 . S
C35 O39 1.241 . S
C36 O29 1.247 . S
C36 O30 1.261 . S
C37 O32 1.259 . S
C37 O34 1.235 . S
O38 Co28 2.021 . S
O38 C35 1.238 . S
O39 Co33 2.052 . S
O39 C35 1.241 . S
O40 Co28 2.137 . S
O40 C31 1.247 . S
O41 Co28 2.244 . S
O41 C31 1.272 . S
O41 Co33 2.135 . S
Co42 O43 2.216 . S
Co42 O44 2.091 . S
Co42 O46 2.004 . S
Co42 O52 2.021 . S
Co42 O54 2.137 . S
Co42 O55 2.244 . S
O43 Co42 2.216 . S
O43 C50 1.247 . S
O44 Co42 2.091 . S
O44 C50 1.261 . S
C45 O54 1.247 . S
C45 O55 1.272 . S
O46 Co42 2.004 . S
O46 C51 1.259 . S
Co47 O48 2.061 . S
Co47 O53 2.052 . S
Co47 O55 2.135 . S
O48 Co47 2.061 . S
O48 C51 1.235 . S
C49 O52 1.238 . S
C49 O53 1.241 . S
C50 O43 1.247 . S
C50 O44 1.261 . S
C51 O46 1.259 . S
C51 O48 1.235 . S
O52 Co42 2.021 . S
O52 C49 1.238 . S
O53 Co47 2.052 . S
O53 C49 1.241 . S
O54 Co42 2.137 . S
O54 C45 1.247 . S
O55 Co42 2.244 . S
O55 C45 1.272 . S
O55 Co47 2.135 . S
Co56 O57 2.216 . S
Co56 O58 2.091 . S
Co56 O60 2.004 . S
Co56 O66 2.021 . S
Co56 O68 2.137 . S
Co56 O69 2.244 . S
O57 Co56 2.216 . S
O57 C64 1.247 . S
O58 Co56 2.091 . S
O58 C64 1.261 . S
C59 O68 1.247 . S
C59 O69 1.272 . S
O60 Co56 2.004 . S
O60 C65 1.259 . S
Co61 O62 2.061 . S
Co61 O67 2.052 . S
Co61 O69 2.135 . S
O62 Co61 2.061 . S
O62 C65 1.235 . S
C63 O66 1.238 . S
C63 O67 1.241 . S
C64 O57 1.247 . S
C64 O58 1.261 . S
C65 O60 1.259 . S
C65 O62 1.235 . S
O66 Co56 2.021 . S
O66 C63 1.238 . S
O67 Co61 2.052 . S
O67 C63 1.241 . S
O68 Co56 2.137 . S
O68 C59 1.247 . S
O69 Co56 2.244 . S
O69 C59 1.272 . S
O69 Co61 2.135 . S
Co70 O71 2.216 . S
Co70 O72 2.091 . S
Co70 O74 2.004 . S
Co70 O80 2.021 . S
Co70 O82 2.137 . S
Co70 O83 2.244 . S
O71 Co70 2.216 . S
O71 C78 1.247 . S
O72 Co70 2.091 . S
O72 C78 1.261 . S
C73 O82 1.247 . S
C73 O83 1.272 . S
O74 Co70 2.004 . S
O74 C79 1.259 . S
Co75 O76 2.061 . S
Co75 O81 2.052 . S
Co75 O83 2.135 . S
O76 Co75 2.061 . S
O76 C79 1.235 . S
C77 O80 1.238 . S
C77 O81 1.241 . S
C78 O71 1.247 . S
C78 O72 1.261 . S
C79 O74 1.259 . S
C79 O76 1.235 . S
O80 Co70 2.021 . S
O80 C77 1.238 . S
O81 Co75 2.052 . S
O81 C77 1.241 . S
O82 Co70 2.137 . S
O82 C73 1.247 . S
O83 Co70 2.244 . S
O83 C73 1.272 . S
O83 Co75 2.135 . S
Co84 O85 2.216 . S
Co84 O86 2.091 . S
Co84 O88 2.004 . S
Co84 O94 2.021 . S
Co84 O96 2.137 . S
Co84 O97 2.244 . S
O85 Co84 2.216 . S
O85 C92 1.247 . S
O86 Co84 2.091 . S
O86 C92 1.261 . S
C87 O96 1.247 . S
C87 O97 1.272 . S
O88 Co84 2.004 . S
O88 C93 1.259 . S
Co89 O90 2.061 . S
Co89 O95 2.052 . S
Co89 O97 2.135 . S
O90 Co89 2.061 . S
O90 C93 1.235 . S
C91 O94 1.238 . S
C91 O95 1.241 . S
C92 O85 1.247 . S
C92 O86 1.261 . S
C93 O88 1.259 . S
C93 O90 1.235 . S
O94 Co84 2.021 . S
O94 C91 1.238 . S
O95 Co89 2.052 . S
O95 C91 1.241 . S
O96 Co84 2.137 . S
O96 C87 1.247 . S
O97 Co84 2.244 . S
O97 C87 1.272 . S
O97 Co89 2.135 . S
Co98 O99 2.216 . S
Co98 O100 2.091 . S
Co98 O102 2.004 . S
Co98 O108 2.021 . S
Co98 O110 2.137 . S
Co98 O111 2.244 . S
O99 Co98 2.216 . S
O99 C106 1.247 . S
O100 Co98 2.091 . S
O100 C106 1.261 . S
C101 O110 1.247 . S
C101 O111 1.272 . S
O102 Co98 2.004 . S
O102 C107 1.259 . S
Co103 O104 2.061 . S
Co103 O109 2.052 . S
Co103 O111 2.135 . S
O104 Co103 2.061 . S
O104 C107 1.235 . S
C105 O108 1.238 . S
C105 O109 1.241 . S
C106 O99 1.247 . S
C106 O100 1.261 . S
C107 O102 1.259 . S
C107 O104 1.235 . S
O108 Co98 2.021 . S
O108 C105 1.238 . S
O109 Co103 2.052 . S
O109 C105 1.241 . S
O110 Co98 2.137 . S
O110 C101 1.247 . S
O111 Co98 2.244 . S
O111 C101 1.272 . S
O111 Co103 2.135 . S
Co112 O113 2.216 . S
Co112 O114 2.091 . S
Co112 O116 2.004 . S
Co112 O122 2.021 . S
Co112 O124 2.137 . S
Co112 O125 2.244 . S
O113 Co112 2.216 . S
O113 C120 1.247 . S
O114 Co112 2.091 . S
O114 C120 1.261 . S
C115 O124 1.247 . S
C115 O125 1.272 . S
O116 Co112 2.004 . S
O116 C121 1.259 . S
Co117 O118 2.061 . S
Co117 O123 2.052 . S
Co117 O125 2.135 . S
O118 Co117 2.061 . S
O118 C121 1.235 . S
C119 O122 1.238 . S
C119 O123 1.241 . S
C120 O113 1.247 . S
C120 O114 1.261 . S
C121 O116 1.259 . S
C121 O118 1.235 . S
O122 Co112 2.021 . S
O122 C119 1.238 . S
O123 Co117 2.052 . S
O123 C119 1.241 . S
O124 Co112 2.137 . S
O124 C115 1.247 . S
O125 Co112 2.244 . S
O125 C115 1.272 . S
O125 Co117 2.135 . S
Co126 O127 2.216 . S
Co126 O128 2.091 . S
Co126 O130 2.004 . S
Co126 O136 2.021 . S
Co126 O138 2.137 . S
Co126 O139 2.244 . S
O127 Co126 2.216 . S
O127 C134 1.247 . S
O128 Co126 2.091 . S
O128 C134 1.261 . S
C129 O138 1.247 . S
C129 O139 1.272 . S
O130 Co126 2.004 . S
O130 C135 1.259 . S
Co131 O132 2.061 . S
Co131 O137 2.052 . S
Co131 O139 2.135 . S
O132 Co131 2.061 . S
O132 C135 1.235 . S
C133 O136 1.238 . S
C133 O137 1.241 . S
C134 O127 1.247 . S
C134 O128 1.261 . S
C135 O130 1.259 . S
C135 O132 1.235 . S
O136 Co126 2.021 . S
O136 C133 1.238 . S
O137 Co131 2.052 . S
O137 C133 1.241 . S
O138 Co126 2.137 . S
O138 C129 1.247 . S
O139 Co126 2.244 . S
O139 C129 1.272 . S
O139 Co131 2.135 . S
Co140 O141 2.216 . S
Co140 O142 2.091 . S
Co140 O144 2.004 . S
Co140 O150 2.021 . S
Co140 O152 2.137 . S
Co140 O153 2.244 . S
O141 Co140 2.216 . S
O141 C148 1.247 . S
O142 Co140 2.091 . S
O142 C148 1.261 . S
C143 O152 1.247 . S
C143 O153 1.272 . S
O144 Co140 2.004 . S
O144 C149 1.259 . S
Co145 O146 2.061 . S
Co145 O151 2.052 . S
Co145 O153 2.135 . S
O146 Co145 2.061 . S
O146 C149 1.235 . S
C147 O150 1.238 . S
C147 O151 1.241 . S
C148 O141 1.247 . S
C148 O142 1.261 . S
C149 O144 1.259 . S
C149 O146 1.235 . S
O150 Co140 2.021 . S
O150 C147 1.238 . S
O151 Co145 2.052 . S
O151 C147 1.241 . S
O152 Co140 2.137 . S
O152 C143 1.247 . S
O153 Co140 2.244 . S
O153 C143 1.272 . S
O153 Co145 2.135 . S
Co154 O155 2.216 . S
Co154 O156 2.091 . S
Co154 O158 2.004 . S
Co154 O164 2.021 . S
Co154 O166 2.137 . S
Co154 O167 2.244 . S
O155 Co154 2.216 . S
O155 C162 1.247 . S
O156 Co154 2.091 . S
O156 C162 1.261 . S
C157 O166 1.247 . S
C157 O167 1.272 . S
O158 Co154 2.004 . S
O158 C163 1.259 . S
Co159 O160 2.061 . S
Co159 O165 2.052 . S
Co159 O167 2.135 . S
O160 Co159 2.061 . S
O160 C163 1.235 . S
C161 O164 1.238 . S
C161 O165 1.241 . S
C162 O155 1.247 . S
C162 O156 1.261 . S
C163 O158 1.259 . S
C163 O160 1.235 . S
O164 Co154 2.021 . S
O164 C161 1.238 . S
O165 Co159 2.052 . S
O165 C161 1.241 . S
O166 Co154 2.137 . S
O166 C157 1.247 . S
O167 Co154 2.244 . S
O167 C157 1.272 . S
O167 Co159 2.135 . S
Co168 O169 2.216 . S
Co168 O170 2.091 . S
Co168 O172 2.004 . S
Co168 O178 2.021 . S
Co168 O180 2.137 . S
Co168 O181 2.244 . S
O169 Co168 2.216 . S
O169 C176 1.247 . S
O170 Co168 2.091 . S
O170 C176 1.261 . S
C171 O180 1.247 . S
C171 O181 1.272 . S
O172 Co168 2.004 . S
O172 C177 1.259 . S
Co173 O174 2.061 . S
Co173 O179 2.052 . S
Co173 O181 2.135 . S
O174 Co173 2.061 . S
O174 C177 1.235 . S
C175 O178 1.238 . S
C175 O179 1.241 . S
C176 O169 1.247 . S
C176 O170 1.261 . S
C177 O172 1.259 . S
C177 O174 1.235 . S
O178 Co168 2.021 . S
O178 C175 1.238 . S
O179 Co173 2.052 . S
O179 C175 1.241 . S
O180 Co168 2.137 . S
O180 C171 1.247 . S
O181 Co168 2.244 . S
O181 C171 1.272 . S
O181 Co173 2.135 . S
Co182 O183 2.216 . S
Co182 O184 2.091 . S
Co182 O186 2.004 . S
Co182 O192 2.021 . S
Co182 O194 2.137 . S
Co182 O195 2.244 . S
O183 Co182 2.216 . S
O183 C190 1.247 . S
O184 Co182 2.091 . S
O184 C190 1.261 . S
C185 O194 1.247 . S
C185 O195 1.272 . S
O186 Co182 2.004 . S
O186 C191 1.259 . S
Co187 O188 2.061 . S
Co187 O193 2.052 . S
Co187 O195 2.135 . S
O188 Co187 2.061 . S
O188 C191 1.235 . S
C189 O192 1.238 . S
C189 O193 1.241 . S
C190 O183 1.247 . S
C190 O184 1.261 . S
C191 O186 1.259 . S
C191 O188 1.235 . S
O192 Co182 2.021 . S
O192 C189 1.238 . S
O193 Co187 2.052 . S
O193 C189 1.241 . S
O194 Co182 2.137 . S
O194 C185 1.247 . S
O195 Co182 2.244 . S
O195 C185 1.272 . S
O195 Co187 2.135 . S
Co196 O197 2.216 . S
Co196 O198 2.091 . S
Co196 O200 2.004 . S
Co196 O206 2.021 . S
Co196 O208 2.137 . S
Co196 O209 2.244 . S
O197 Co196 2.216 . S
O197 C204 1.247 . S
O198 Co196 2.091 . S
O198 C204 1.261 . S
C199 O208 1.247 . S
C199 O209 1.272 . S
O200 Co196 2.004 . S
O200 C205 1.259 . S
Co201 O202 2.061 . S
Co201 O207 2.052 . S
Co201 O209 2.135 . S
O202 Co201 2.061 . S
O202 C205 1.235 . S
C203 O206 1.238 . S
C203 O207 1.241 . S
C204 O197 1.247 . S
C204 O198 1.261 . S
C205 O200 1.259 . S
C205 O202 1.235 . S
O206 Co196 2.021 . S
O206 C203 1.238 . S
O207 Co201 2.052 . S
O207 C203 1.241 . S
O208 Co196 2.137 . S
O208 C199 1.247 . S
O209 Co196 2.244 . S
O209 C199 1.272 . S
O209 Co201 2.135 . S
Co210 O211 2.216 . S
Co210 O212 2.091 . S
Co210 O214 2.004 . S
Co210 O220 2.021 . S
Co210 O222 2.137 . S
Co210 O223 2.244 . S
O211 Co210 2.216 . S
O211 C218 1.247 . S
O212 Co210 2.091 . S
O212 C218 1.261 . S
C213 O222 1.247 . S
C213 O223 1.272 . S
O214 Co210 2.004 . S
O214 C219 1.259 . S
Co215 O216 2.061 . S
Co215 O221 2.052 . S
Co215 O223 2.135 . S
O216 Co215 2.061 . S
O216 C219 1.235 . S
C217 O220 1.238 . S
C217 O221 1.241 . S
C218 O211 1.247 . S
C218 O212 1.261 . S
C219 O214 1.259 . S
C219 O216 1.235 . S
O220 Co210 2.021 . S
O220 C217 1.238 . S
O221 Co215 2.052 . S
O221 C217 1.241 . S
O222 Co210 2.137 . S
O222 C213 1.247 . S
O223 Co210 2.244 . S
O223 C213 1.272 . S
O223 Co215 2.135 . S
Co224 O225 2.216 . S
Co224 O226 2.091 . S
Co224 O228 2.004 . S
Co224 O234 2.021 . S
Co224 O236 2.137 . S
Co224 O237 2.244 . S
O225 Co224 2.216 . S
O225 C232 1.247 . S
O226 Co224 2.091 . S
O226 C232 1.261 . S
C227 O236 1.247 . S
C227 O237 1.272 . S
O228 Co224 2.004 . S
O228 C233 1.259 . S
Co229 O230 2.061 . S
Co229 O235 2.052 . S
Co229 O237 2.135 . S
O230 Co229 2.061 . S
O230 C233 1.235 . S
C231 O234 1.238 . S
C231 O235 1.241 . S
C232 O225 1.247 . S
C232 O226 1.261 . S
C233 O228 1.259 . S
C233 O230 1.235 . S
O234 Co224 2.021 . S
O234 C231 1.238 . S
O235 Co229 2.052 . S
O235 C231 1.241 . S
O236 Co224 2.137 . S
O236 C227 1.247 . S
O237 Co224 2.244 . S
O237 C227 1.272 . S
O237 Co229 2.135 . S
Co238 O239 2.216 . S
Co238 O240 2.091 . S
Co238 O242 2.004 . S
Co238 O248 2.021 . S
Co238 O250 2.137 . S
Co238 O251 2.244 . S
O239 Co238 2.216 . S
O239 C246 1.247 . S
O240 Co238 2.091 . S
O240 C246 1.261 . S
C241 O250 1.247 . S
C241 O251 1.272 . S
O242 Co238 2.004 . S
O242 C247 1.259 . S
Co243 O244 2.061 . S
Co243 O249 2.052 . S
Co243 O251 2.135 . S
O244 Co243 2.061 . S
O244 C247 1.235 . S
C245 O248 1.238 . S
C245 O249 1.241 . S
C246 O239 1.247 . S
C246 O240 1.261 . S
C247 O242 1.259 . S
C247 O244 1.235 . S
O248 Co238 2.021 . S
O248 C245 1.238 . S
O249 Co243 2.052 . S
O249 C245 1.241 . S
O250 Co238 2.137 . S
O250 C241 1.247 . S
O251 Co238 2.244 . S
O251 C241 1.272 . S
O251 Co243 2.135 . S
Co252 O253 2.216 . S
Co252 O254 2.091 . S
Co252 O256 2.004 . S
Co252 O262 2.021 . S
Co252 O264 2.137 . S
Co252 O265 2.244 . S
O253 Co252 2.216 . S
O253 C260 1.247 . S
O254 Co252 2.091 . S
O254 C260 1.261 . S
C255 O264 1.247 . S
C255 O265 1.272 . S
O256 Co252 2.004 . S
O256 C261 1.259 . S
Co257 O258 2.061 . S
Co257 O263 2.052 . S
Co257 O265 2.135 . S
O258 Co257 2.061 . S
O258 C261 1.235 . S
C259 O262 1.238 . S
C259 O263 1.241 . S
C260 O253 1.247 . S
C260 O254 1.261 . S
C261 O256 1.259 . S
C261 O258 1.235 . S
O262 Co252 2.021 . S
O262 C259 1.238 . S
O263 Co257 2.052 . S
O263 C259 1.241 . S
O264 Co252 2.137 . S
O264 C255 1.247 . S
O265 Co252 2.244 . S
O265 C255 1.272 . S
O265 Co257 2.135 . S
Co266 O267 2.216 . S
Co266 O268 2.091 . S
Co266 O270 2.004 . S
Co266 O276 2.021 . S
Co266 O278 2.137 . S
Co266 O279 2.244 . S
O267 Co266 2.216 . S
O267 C274 1.247 . S
O268 Co266 2.091 . S
O268 C274 1.261 . S
C269 O278 1.247 . S
C269 O279 1.272 . S
O270 Co266 2.004 . S
O270 C275 1.259 . S
Co271 O272 2.061 . S
Co271 O277 2.052 . S
Co271 O279 2.135 . S
O272 Co271 2.061 . S
O272 C275 1.235 . S
C273 O276 1.238 . S
C273 O277 1.241 . S
C274 O267 1.247 . S
C274 O268 1.261 . S
C275 O270 1.259 . S
C275 O272 1.235 . S
O276 Co266 2.021 . S
O276 C273 1.238 . S
O277 Co271 2.052 . S
O277 C273 1.241 . S
O278 Co266 2.137 . S
O278 C269 1.247 . S
O279 Co266 2.244 . S
O279 C269 1.272 . S
O279 Co271 2.135 . S
Co280 O281 2.216 . S
Co280 O282 2.091 . S
Co280 O284 2.004 . S
Co280 O290 2.021 . S
Co280 O292 2.137 . S
Co280 O293 2.244 . S
O281 Co280 2.216 . S
O281 C288 1.247 . S
O282 Co280 2.091 . S
O282 C288 1.261 . S
C283 O292 1.247 . S
C283 O293 1.272 . S
O284 Co280 2.004 . S
O284 C289 1.259 . S
Co285 O286 2.061 . S
Co285 O291 2.052 . S
Co285 O293 2.135 . S
O286 Co285 2.061 . S
O286 C289 1.235 . S
C287 O290 1.238 . S
C287 O291 1.241 . S
C288 O281 1.247 . S
C288 O282 1.261 . S
C289 O284 1.259 . S
C289 O286 1.235 . S
O290 Co280 2.021 . S
O290 C287 1.238 . S
O291 Co285 2.052 . S
O291 C287 1.241 . S
O292 Co280 2.137 . S
O292 C283 1.247 . S
O293 Co280 2.244 . S
O293 C283 1.272 . S
O293 Co285 2.135 . S
Co294 O295 2.216 . S
Co294 O296 2.091 . S
Co294 O298 2.004 . S
Co294 O304 2.021 . S
Co294 O306 2.137 . S
Co294 O307 2.244 . S
O295 Co294 2.216 . S
O295 C302 1.247 . S
O296 Co294 2.091 . S
O296 C302 1.261 . S
C297 O306 1.247 . S
C297 O307 1.272 . S
O298 Co294 2.004 . S
O298 C303 1.259 . S
Co299 O300 2.061 . S
Co299 O305 2.052 . S
Co299 O307 2.135 . S
O300 Co299 2.061 . S
O300 C303 1.235 . S
C301 O304 1.238 . S
C301 O305 1.241 . S
C302 O295 1.247 . S
C302 O296 1.261 . S
C303 O298 1.259 . S
C303 O300 1.235 . S
O304 Co294 2.021 . S
O304 C301 1.238 . S
O305 Co299 2.052 . S
O305 C301 1.241 . S
O306 Co294 2.137 . S
O306 C297 1.247 . S
O307 Co294 2.244 . S
O307 C297 1.272 . S
O307 Co299 2.135 . S
Co308 O309 2.216 . S
Co308 O310 2.091 . S
Co308 O312 2.004 . S
Co308 O318 2.021 . S
Co308 O320 2.137 . S
Co308 O321 2.244 . S
O309 Co308 2.216 . S
O309 C316 1.247 . S
O310 Co308 2.091 . S
O310 C316 1.261 . S
C311 O320 1.247 . S
C311 O321 1.272 . S
O312 Co308 2.004 . S
O312 C317 1.259 . S
Co313 O314 2.061 . S
Co313 O319 2.052 . S
Co313 O321 2.135 . S
O314 Co313 2.061 . S
O314 C317 1.235 . S
C315 O318 1.238 . S
C315 O319 1.241 . S
C316 O309 1.247 . S
C316 O310 1.261 . S
C317 O312 1.259 . S
C317 O314 1.235 . S
O318 Co308 2.021 . S
O318 C315 1.238 . S
O319 Co313 2.052 . S
O319 C315 1.241 . S
O320 Co308 2.137 . S
O320 C311 1.247 . S
O321 Co308 2.244 . S
O321 C311 1.272 . S
O321 Co313 2.135 . S
Co322 O323 2.216 . S
Co322 O324 2.091 . S
Co322 O326 2.004 . S
Co322 O332 2.021 . S
Co322 O334 2.137 . S
Co322 O335 2.244 . S
O323 Co322 2.216 . S
O323 C330 1.247 . S
O324 Co322 2.091 . S
O324 C330 1.261 . S
C325 O334 1.247 . S
C325 O335 1.272 . S
O326 Co322 2.004 . S
O326 C331 1.259 . S
Co327 O328 2.061 . S
Co327 O333 2.052 . S
Co327 O335 2.135 . S
O328 Co327 2.061 . S
O328 C331 1.235 . S
C329 O332 1.238 . S
C329 O333 1.241 . S
C330 O323 1.247 . S
C330 O324 1.261 . S
C331 O326 1.259 . S
C331 O328 1.235 . S
O332 Co322 2.021 . S
O332 C329 1.238 . S
O333 Co327 2.052 . S
O333 C329 1.241 . S
O334 Co322 2.137 . S
O334 C325 1.247 . S
O335 Co322 2.244 . S
O335 C325 1.272 . S
O335 Co327 2.135 . S
Co336 O337 2.216 . S
Co336 O338 2.091 . S
Co336 O340 2.004 . S
Co336 O346 2.021 . S
Co336 O348 2.137 . S
Co336 O349 2.244 . S
O337 Co336 2.216 . S
O337 C344 1.247 . S
O338 Co336 2.091 . S
O338 C344 1.261 . S
C339 O348 1.247 . S
C339 O349 1.272 . S
O340 Co336 2.004 . S
O340 C345 1.259 . S
Co341 O342 2.061 . S
Co341 O347 2.052 . S
Co341 O349 2.135 . S
O342 Co341 2.061 . S
O342 C345 1.235 . S
C343 O346 1.238 . S
C343 O347 1.241 . S
C344 O337 1.247 . S
C344 O338 1.261 . S
C345 O340 1.259 . S
C345 O342 1.235 . S
O346 Co336 2.021 . S
O346 C343 1.238 . S
O347 Co341 2.052 . S
O347 C343 1.241 . S
O348 Co336 2.137 . S
O348 C339 1.247 . S
O349 Co336 2.244 . S
O349 C339 1.272 . S
O349 Co341 2.135 . S
Co350 O351 2.216 . S
Co350 O352 2.091 . S
Co350 O354 2.004 . S
Co350 O360 2.021 . S
Co350 O362 2.137 . S
Co350 O363 2.244 . S
O351 Co350 2.216 . S
O351 C358 1.247 . S
O352 Co350 2.091 . S
O352 C358 1.261 . S
C353 O362 1.247 . S
C353 O363 1.272 . S
O354 Co350 2.004 . S
O354 C359 1.259 . S
Co355 O356 2.061 . S
Co355 O361 2.052 . S
Co355 O363 2.135 . S
O356 Co355 2.061 . S
O356 C359 1.235 . S
C357 O360 1.238 . S
C357 O361 1.241 . S
C358 O351 1.247 . S
C358 O352 1.261 . S
C359 O354 1.259 . S
C359 O356 1.235 . S
O360 Co350 2.021 . S
O360 C357 1.238 . S
O361 Co355 2.052 . S
O361 C357 1.241 . S
O362 Co350 2.137 . S
O362 C353 1.247 . S
O363 Co350 2.244 . S
O363 C353 1.272 . S
O363 Co355 2.135 . S
Co364 O365 2.216 . S
Co364 O366 2.091 . S
Co364 O368 2.004 . S
Co364 O374 2.021 . S
Co364 O376 2.137 . S
Co364 O377 2.244 . S
O365 Co364 2.216 . S
O365 C372 1.247 . S
O366 Co364 2.091 . S
O366 C372 1.261 . S
C367 O376 1.247 . S
C367 O377 1.272 . S
O368 Co364 2.004 . S
O368 C373 1.259 . S
Co369 O370 2.061 . S
Co369 O375 2.052 . S
Co369 O377 2.135 . S
O370 Co369 2.061 . S
O370 C373 1.235 . S
C371 O374 1.238 . S
C371 O375 1.241 . S
C372 O365 1.247 . S
C372 O366 1.261 . S
C373 O368 1.259 . S
C373 O370 1.235 . S
O374 Co364 2.021 . S
O374 C371 1.238 . S
O375 Co369 2.052 . S
O375 C371 1.241 . S
O376 Co364 2.137 . S
O376 C367 1.247 . S
O377 Co364 2.244 . S
O377 C367 1.272 . S
O377 Co369 2.135 . S
Co378 O379 2.216 . S
Co378 O380 2.091 . S
Co378 O382 2.004 . S
Co378 O388 2.021 . S
Co378 O390 2.137 . S
Co378 O391 2.244 . S
O379 Co378 2.216 . S
O379 C386 1.247 . S
O380 Co378 2.091 . S
O380 C386 1.261 . S
C381 O390 1.247 . S
C381 O391 1.272 . S
O382 Co378 2.004 . S
O382 C387 1.259 . S
Co383 O384 2.061 . S
Co383 O389 2.052 . S
Co383 O391 2.135 . S
O384 Co383 2.061 . S
O384 C387 1.235 . S
C385 O388 1.238 . S
C385 O389 1.241 . S
C386 O379 1.247 . S
C386 O380 1.261 . S
C387 O382 1.259 . S
C387 O384 1.235 . S
O388 Co378 2.021 . S
O388 C385 1.238 . S
O389 Co383 2.052 . S
O389 C385 1.241 . S
O390 Co378 2.137 . S
O390 C381 1.247 . S
O391 Co378 2.244 . S
O391 C381 1.272 . S
O391 Co383 2.135 . S
Co392 O393 2.216 . S
Co392 O394 2.091 . S
Co392 O396 2.004 . S
Co392 O402 2.021 . S
Co392 O404 2.137 . S
Co392 O405 2.244 . S
O393 Co392 2.216 . S
O393 C400 1.247 . S
O394 Co392 2.091 . S
O394 C400 1.261 . S
C395 O404 1.247 . S
C395 O405 1.272 . S
O396 Co392 2.004 . S
O396 C401 1.259 . S
Co397 O398 2.061 . S
Co397 O403 2.052 . S
Co397 O405 2.135 . S
O398 Co397 2.061 . S
O398 C401 1.235 . S
C399 O402 1.238 . S
C399 O403 1.241 . S
C400 O393 1.247 . S
C400 O394 1.261 . S
C401 O396 1.259 . S
C401 O398 1.235 . S
O402 Co392 2.021 . S
O402 C399 1.238 . S
O403 Co397 2.052 . S
O403 C399 1.241 . S
O404 Co392 2.137 . S
O404 C395 1.247 . S
O405 Co392 2.244 . S
O405 C395 1.272 . S
O405 Co397 2.135 . S
Co406 O407 2.216 . S
Co406 O408 2.091 . S
Co406 O410 2.004 . S
Co406 O416 2.021 . S
Co406 O418 2.137 . S
Co406 O419 2.244 . S
O407 Co406 2.216 . S
O407 C414 1.247 . S
O408 Co406 2.091 . S
O408 C414 1.261 . S
C409 O418 1.247 . S
C409 O419 1.272 . S
O410 Co406 2.004 . S
O410 C415 1.259 . S
Co411 O412 2.061 . S
Co411 O417 2.052 . S
Co411 O419 2.135 . S
O412 Co411 2.061 . S
O412 C415 1.235 . S
C413 O416 1.238 . S
C413 O417 1.241 . S
C414 O407 1.247 . S
C414 O408 1.261 . S
C415 O410 1.259 . S
C415 O412 1.235 . S
O416 Co406 2.021 . S
O416 C413 1.238 . S
O417 Co411 2.052 . S
O417 C413 1.241 . S
O418 Co406 2.137 . S
O418 C409 1.247 . S
O419 Co406 2.244 . S
O419 C409 1.272 . S
O419 Co411 2.135 . S
Co420 O421 2.216 . S
Co420 O422 2.091 . S
Co420 O424 2.004 . S
Co420 O430 2.021 . S
Co420 O432 2.137 . S
Co420 O433 2.244 . S
O421 Co420 2.216 . S
O421 C428 1.247 . S
O422 Co420 2.091 . S
O422 C428 1.261 . S
C423 O432 1.247 . S
C423 O433 1.272 . S
O424 Co420 2.004 . S
O424 C429 1.259 . S
Co425 O426 2.061 . S
Co425 O431 2.052 . S
Co425 O433 2.135 . S
O426 Co425 2.061 . S
O426 C429 1.235 . S
C427 O430 1.238 . S
C427 O431 1.241 . S
C428 O421 1.247 . S
C428 O422 1.261 . S
C429 O424 1.259 . S
C429 O426 1.235 . S
O430 Co420 2.021 . S
O430 C427 1.238 . S
O431 Co425 2.052 . S
O431 C427 1.241 . S
O432 Co420 2.137 . S
O432 C423 1.247 . S
O433 Co420 2.244 . S
O433 C423 1.272 . S
O433 Co425 2.135 . S
Co434 O435 2.216 . S
Co434 O436 2.091 . S
Co434 O438 2.004 . S
Co434 O444 2.021 . S
Co434 O446 2.137 . S
Co434 O447 2.244 . S
O435 Co434 2.216 . S
O435 C442 1.247 . S
O436 Co434 2.091 . S
O436 C442 1.261 . S
C437 O446 1.247 . S
C437 O447 1.272 . S
O438 Co434 2.004 . S
O438 C443 1.259 . S
Co439 O440 2.061 . S
Co439 O445 2.052 . S
Co439 O447 2.135 . S
O440 Co439 2.061 . S
O440 C443 1.235 . S
C441 O444 1.238 . S
C441 O445 1.241 . S
C442 O435 1.247 . S
C442 O436 1.261 . S
C443 O438 1.259 . S
C443 O440 1.235 . S
O444 Co434 2.021 . S
O444 C441 1.238 . S
O445 Co439 2.052 . S
O445 C441 1.241 . S
O446 Co434 2.137 . S
O446 C437 1.247 . S
O447 Co434 2.244 . S
O447 C437 1.272 . S
O447 Co439 2.135 . S
H448 C456 0.929 . S
H449 C458 0.930 . S
H450 C460 0.930 . S
H451 C463 0.929 . S
H452 C466 0.930 . S
H453 C468 0.960 . S
H454 C468 0.960 . S
H455 C468 0.960 . S
C456 H448 0.929 . S
C456 C457 1.377 . S
C456 C458 1.384 . S
C457 C456 1.377 . S
C457 C463 1.390 . S
C458 H449 0.930 . S
C458 C456 1.384 . S
C458 C459 1.372 . S
C459 C458 1.372 . S
C459 C460 1.400 . S
C459 C464 1.490 . S
C460 H450 0.930 . S
C460 C459 1.400 . S
C460 C463 1.386 . S
H461 C477 0.930 . S
H462 C478 0.931 . S
C463 H451 0.929 . S
C463 C457 1.390 . S
C463 C460 1.386 . S
C464 C459 1.490 . S
C464 C466 1.395 . S
C464 C467 1.403 . S
H465 C471 0.930 . S
C466 H452 0.930 . S
C466 C464 1.395 . S
C466 C469 1.403 . S
C467 C464 1.403 . S
C467 C468 1.524 . S
C467 C471 1.400 . S
C468 H453 0.960 . S
C468 H454 0.960 . S
C468 H455 0.960 . S
C468 C467 1.524 . S
C469 C466 1.403 . S
C469 C470 1.392 . S
C469 C473 1.495 . S
C470 C469 1.392 . S
C470 C471 1.385 . S
C470 C472 1.478 . S
C471 H465 0.930 . S
C471 C467 1.400 . S
C471 C470 1.385 . S
C472 C470 1.478 . S
C472 C474 1.381 . S
C472 C478 1.383 . S
C473 C469 1.495 . S
C473 H479 0.959 . S
C473 H480 0.961 . S
C473 H481 0.960 . S
C474 C472 1.381 . S
C474 C475 1.394 . S
C474 H482 0.930 . S
C475 C474 1.394 . S
C475 C476 1.383 . S
C475 H483 0.929 . S
C476 C475 1.383 . S
C476 C477 1.377 . S
C477 H461 0.930 . S
C477 C476 1.377 . S
C477 C478 1.379 . S
C478 H462 0.931 . S
C478 C472 1.383 . S
C478 C477 1.379 . S
H479 C473 0.959 . S
H480 C473 0.961 . S
H481 C473 0.960 . S
H482 C474 0.930 . S
H483 C475 0.929 . S
H484 C492 0.929 . S
H485 C494 0.930 . S
H486 C496 0.930 . S
H487 C499 0.929 . S
H488 C502 0.930 . S
H489 C504 0.960 . S
H490 C504 0.960 . S
H491 C504 0.960 . S
C492 H484 0.929 . S
C492 C493 1.377 . S
C492 C494 1.384 . S
C493 C492 1.377 . S
C493 C499 1.390 . S
C494 H485 0.930 . S
C494 C492 1.384 . S
C494 C495 1.372 . S
C495 C494 1.372 . S
C495 C496 1.400 . S
C495 C500 1.490 . S
C496 H486 0.930 . S
C496 C495 1.400 . S
C496 C499 1.386 . S
H497 C513 0.930 . S
H498 C514 0.931 . S
C499 H487 0.929 . S
C499 C493 1.390 . S
C499 C496 1.386 . S
C500 C495 1.490 . S
C500 C502 1.395 . S
C500 C503 1.403 . S
H501 C507 0.930 . S
C502 H488 0.930 . S
C502 C500 1.395 . S
C502 C505 1.403 . S
C503 C500 1.403 . S
C503 C504 1.524 . S
C503 C507 1.400 . S
C504 H489 0.960 . S
C504 H490 0.960 . S
C504 H491 0.960 . S
C504 C503 1.524 . S
C505 C502 1.403 . S
C505 C506 1.392 . S
C505 C509 1.495 . S
C506 C505 1.392 . S
C506 C507 1.385 . S
C506 C508 1.478 . S
C507 H501 0.930 . S
C507 C503 1.400 . S
C507 C506 1.385 . S
C508 C506 1.478 . S
C508 C510 1.381 . S
C508 C514 1.383 . S
C509 C505 1.495 . S
C509 H515 0.959 . S
C509 H516 0.961 . S
C509 H517 0.960 . S
C510 C508 1.381 . S
C510 C511 1.394 . S
C510 H518 0.930 . S
C511 C510 1.394 . S
C511 C512 1.383 . S
C511 H519 0.929 . S
C512 C511 1.383 . S
C512 C513 1.377 . S
C513 H497 0.930 . S
C513 C512 1.377 . S
C513 C514 1.379 . S
C514 H498 0.931 . S
C514 C508 1.383 . S
C514 C513 1.379 . S
H515 C509 0.959 . S
H516 C509 0.961 . S
H517 C509 0.960 . S
H518 C510 0.930 . S
H519 C511 0.929 . S
H520 C528 0.929 . S
H521 C530 0.930 . S
H522 C532 0.930 . S
H523 C535 0.929 . S
H524 C538 0.930 . S
H525 C540 0.960 . S
H526 C540 0.960 . S
H527 C540 0.960 . S
C528 H520 0.929 . S
C528 C529 1.377 . S
C528 C530 1.384 . S
C529 C528 1.377 . S
C529 C535 1.390 . S
C530 H521 0.930 . S
C530 C528 1.384 . S
C530 C531 1.372 . S
C531 C530 1.372 . S
C531 C532 1.400 . S
C531 C536 1.490 . S
C532 H522 0.930 . S
C532 C531 1.400 . S
C532 C535 1.386 . S
H533 C549 0.930 . S
H534 C550 0.931 . S
C535 H523 0.929 . S
C535 C529 1.390 . S
C535 C532 1.386 . S
C536 C531 1.490 . S
C536 C538 1.395 . S
C536 C539 1.403 . S
H537 C543 0.930 . S
C538 H524 0.930 . S
C538 C536 1.395 . S
C538 C541 1.403 . S
C539 C536 1.403 . S
C539 C540 1.524 . S
C539 C543 1.400 . S
C540 H525 0.960 . S
C540 H526 0.960 . S
C540 H527 0.960 . S
C540 C539 1.524 . S
C541 C538 1.403 . S
C541 C542 1.392 . S
C541 C545 1.495 . S
C542 C541 1.392 . S
C542 C543 1.385 . S
C542 C544 1.478 . S
C543 H537 0.930 . S
C543 C539 1.400 . S
C543 C542 1.385 . S
C544 C542 1.478 . S
C544 C546 1.381 . S
C544 C550 1.383 . S
C545 C541 1.495 . S
C545 H551 0.959 . S
C545 H552 0.961 . S
C545 H553 0.960 . S
C546 C544 1.381 . S
C546 C547 1.394 . S
C546 H554 0.930 . S
C547 C546 1.394 . S
C547 C548 1.383 . S
C547 H555 0.929 . S
C548 C547 1.383 . S
C548 C549 1.377 . S
C549 H533 0.930 . S
C549 C548 1.377 . S
C549 C550 1.379 . S
C550 H534 0.931 . S
C550 C544 1.383 . S
C550 C549 1.379 . S
H551 C545 0.959 . S
H552 C545 0.961 . S
H553 C545 0.960 . S
H554 C546 0.930 . S
H555 C547 0.929 . S
H556 C564 0.929 . S
H557 C566 0.930 . S
H558 C568 0.930 . S
H559 C571 0.929 . S
H560 C574 0.930 . S
H561 C576 0.960 . S
H562 C576 0.960 . S
H563 C576 0.960 . S
C564 H556 0.929 . S
C564 C565 1.377 . S
C564 C566 1.384 . S
C565 C564 1.377 . S
C565 C571 1.390 . S
C566 H557 0.930 . S
C566 C564 1.384 . S
C566 C567 1.372 . S
C567 C566 1.372 . S
C567 C568 1.400 . S
C567 C572 1.490 . S
C568 H558 0.930 . S
C568 C567 1.400 . S
C568 C571 1.386 . S
H569 C585 0.930 . S
H570 C586 0.931 . S
C571 H559 0.929 . S
C571 C565 1.390 . S
C571 C568 1.386 . S
C572 C567 1.490 . S
C572 C574 1.395 . S
C572 C575 1.403 . S
H573 C579 0.930 . S
C574 H560 0.930 . S
C574 C572 1.395 . S
C574 C577 1.403 . S
C575 C572 1.403 . S
C575 C576 1.524 . S
C575 C579 1.400 . S
C576 H561 0.960 . S
C576 H562 0.960 . S
C576 H563 0.960 . S
C576 C575 1.524 . S
C577 C574 1.403 . S
C577 C578 1.392 . S
C577 C581 1.495 . S
C578 C577 1.392 . S
C578 C579 1.385 . S
C578 C580 1.478 . S
C579 H573 0.930 . S
C579 C575 1.400 . S
C579 C578 1.385 . S
C580 C578 1.478 . S
C580 C582 1.381 . S
C580 C586 1.383 . S
C581 C577 1.495 . S
C581 H587 0.959 . S
C581 H588 0.961 . S
C581 H589 0.960 . S
C582 C580 1.381 . S
C582 C583 1.394 . S
C582 H590 0.930 . S
C583 C582 1.394 . S
C583 C584 1.383 . S
C583 H591 0.929 . S
C584 C583 1.383 . S
C584 C585 1.377 . S
C585 H569 0.930 . S
C585 C584 1.377 . S
C585 C586 1.379 . S
C586 H570 0.931 . S
C586 C580 1.383 . S
C586 C585 1.379 . S
H587 C581 0.959 . S
H588 C581 0.961 . S
H589 C581 0.960 . S
H590 C582 0.930 . S
H591 C583 0.929 . S
H592 C600 0.929 . S
H593 C602 0.930 . S
H594 C604 0.930 . S
H595 C607 0.929 . S
H596 C610 0.930 . S
H597 C612 0.960 . S
H598 C612 0.960 . S
H599 C612 0.960 . S
C600 H592 0.929 . S
C600 C601 1.377 . S
C600 C602 1.384 1_565 S
C601 C600 1.377 . S
C601 C607 1.390 . S
C602 H593 0.930 . S
C602 C600 1.384 1_545 S
C602 C603 1.372 . S
C603 C602 1.372 . S
C603 C604 1.400 . S
C603 C608 1.490 . S
C604 H594 0.930 . S
C604 C603 1.400 . S
C604 C607 1.386 1_545 S
H605 C621 0.930 . S
H606 C622 0.931 . S
C607 H595 0.929 . S
C607 C601 1.390 . S
C607 C604 1.386 1_565 S
C608 C603 1.490 . S
C608 C610 1.395 . S
C608 C611 1.403 . S
H609 C615 0.930 . S
C610 H596 0.930 . S
C610 C608 1.395 . S
C610 C613 1.403 . S
C611 C608 1.403 . S
C611 C612 1.524 . S
C611 C615 1.400 . S
C612 H597 0.960 . S
C612 H598 0.960 . S
C612 H599 0.960 . S
C612 C611 1.524 . S
C613 C610 1.403 . S
C613 C614 1.392 . S
C613 C617 1.495 . S
C614 C613 1.392 . S
C614 C615 1.385 . S
C614 C616 1.478 . S
C615 H609 0.930 . S
C615 C611 1.400 . S
C615 C614 1.385 . S
C616 C614 1.478 . S
C616 C618 1.381 . S
C616 C622 1.383 . S
C617 C613 1.495 . S
C617 H623 0.959 . S
C617 H624 0.961 . S
C617 H625 0.960 . S
C618 C616 1.381 . S
C618 C619 1.394 . S
C618 H626 0.930 . S
C619 C618 1.394 . S
C619 C620 1.383 . S
C619 H627 0.929 . S
C620 C619 1.383 . S
C620 C621 1.377 . S
C621 H605 0.930 . S
C621 C620 1.377 . S
C621 C622 1.379 . S
C622 H606 0.931 . S
C622 C616 1.383 . S
C622 C621 1.379 . S
H623 C617 0.959 . S
H624 C617 0.961 . S
H625 C617 0.960 . S
H626 C618 0.930 . S
H627 C619 0.929 . S
H628 C636 0.929 . S
H629 C638 0.930 . S
H630 C640 0.930 . S
H631 C643 0.929 . S
H632 C646 0.930 . S
H633 C648 0.960 . S
H634 C648 0.960 . S
H635 C648 0.960 . S
C636 H628 0.929 . S
C636 C637 1.377 . S
C636 C638 1.384 1_565 S
C637 C636 1.377 . S
C637 C643 1.390 . S
C638 H629 0.930 . S
C638 C636 1.384 1_545 S
C638 C639 1.372 . S
C639 C638 1.372 . S
C639 C640 1.400 . S
C639 C644 1.490 . S
C640 H630 0.930 . S
C640 C639 1.400 . S
C640 C643 1.386 1_545 S
H641 C657 0.930 . S
H642 C658 0.931 . S
C643 H631 0.929 . S
C643 C637 1.390 . S
C643 C640 1.386 1_565 S
C644 C639 1.490 . S
C644 C646 1.395 . S
C644 C647 1.403 . S
H645 C651 0.930 . S
C646 H632 0.930 . S
C646 C644 1.395 . S
C646 C649 1.403 . S
C647 C644 1.403 . S
C647 C648 1.524 . S
C647 C651 1.400 . S
C648 H633 0.960 . S
C648 H634 0.960 . S
C648 H635 0.960 . S
C648 C647 1.524 . S
C649 C646 1.403 . S
C649 C650 1.392 . S
C649 C653 1.495 . S
C650 C649 1.392 . S
C650 C651 1.385 . S
C650 C652 1.478 . S
C651 H645 0.930 . S
C651 C647 1.400 . S
C651 C650 1.385 . S
C652 C650 1.478 . S
C652 C654 1.381 . S
C652 C658 1.383 . S
C653 C649 1.495 . S
C653 H659 0.959 . S
C653 H660 0.961 . S
C653 H661 0.960 . S
C654 C652 1.381 . S
C654 C655 1.394 . S
C654 H662 0.930 . S
C655 C654 1.394 . S
C655 C656 1.383 . S
C655 H663 0.929 . S
C656 C655 1.383 . S
C656 C657 1.377 . S
C657 H641 0.930 . S
C657 C656 1.377 . S
C657 C658 1.379 . S
C658 H642 0.931 . S
C658 C652 1.383 . S
C658 C657 1.379 . S
H659 C653 0.959 . S
H660 C653 0.961 . S
H661 C653 0.960 . S
H662 C654 0.930 . S
H663 C655 0.929 . S
H664 C672 0.929 . S
H665 C674 0.930 . S
H666 C676 0.930 . S
H667 C679 0.929 . S
H668 C682 0.930 . S
H669 C684 0.960 . S
H670 C684 0.960 . S
H671 C684 0.960 . S
C672 H664 0.929 . S
C672 C673 1.377 . S
C672 C674 1.384 1_545 S
C673 C672 1.377 . S
C673 C679 1.390 . S
C674 H665 0.930 . S
C674 C672 1.384 1_565 S
C674 C675 1.372 . S
C675 C674 1.372 . S
C675 C676 1.400 . S
C675 C680 1.490 . S
C676 H666 0.930 . S
C676 C675 1.400 . S
C676 C679 1.386 1_565 S
H677 C693 0.930 . S
H678 C694 0.931 . S
C679 H667 0.929 . S
C679 C673 1.390 . S
C679 C676 1.386 1_545 S
C680 C675 1.490 . S
C680 C682 1.395 . S
C680 C683 1.403 . S
H681 C687 0.930 . S
C682 H668 0.930 . S
C682 C680 1.395 . S
C682 C685 1.403 . S
C683 C680 1.403 . S
C683 C684 1.524 . S
C683 C687 1.400 . S
C684 H669 0.960 . S
C684 H670 0.960 . S
C684 H671 0.960 . S
C684 C683 1.524 . S
C685 C682 1.403 . S
C685 C686 1.392 . S
C685 C689 1.495 . S
C686 C685 1.392 . S
C686 C687 1.385 . S
C686 C688 1.478 . S
C687 H681 0.930 . S
C687 C683 1.400 . S
C687 C686 1.385 . S
C688 C686 1.478 . S
C688 C690 1.381 . S
C688 C694 1.383 . S
C689 C685 1.495 . S
C689 H695 0.959 . S
C689 H696 0.961 . S
C689 H697 0.960 . S
C690 C688 1.381 . S
C690 C691 1.394 . S
C690 H698 0.930 . S
C691 C690 1.394 . S
C691 C692 1.383 . S
C691 H699 0.929 . S
C692 C691 1.383 . S
C692 C693 1.377 . S
C693 H677 0.930 . S
C693 C692 1.377 . S
C693 C694 1.379 . S
C694 H678 0.931 . S
C694 C688 1.383 . S
C694 C693 1.379 . S
H695 C689 0.959 . S
H696 C689 0.961 . S
H697 C689 0.960 . S
H698 C690 0.930 . S
H699 C691 0.929 . S
H700 C708 0.929 . S
H701 C710 0.930 . S
H702 C712 0.930 . S
H703 C715 0.929 . S
H704 C718 0.930 . S
H705 C720 0.960 . S
H706 C720 0.960 . S
H707 C720 0.960 . S
C708 H700 0.929 . S
C708 C709 1.377 . S
C708 C710 1.384 . S
C709 C708 1.377 . S
C709 C715 1.390 . S
C710 H701 0.930 . S
C710 C708 1.384 . S
C710 C711 1.372 . S
C711 C710 1.372 . S
C711 C712 1.400 . S
C711 C716 1.490 . S
C712 H702 0.930 . S
C712 C711 1.400 . S
C712 C715 1.386 . S
H713 C729 0.930 . S
H714 C730 0.931 . S
C715 H703 0.929 . S
C715 C709 1.390 . S
C715 C712 1.386 . S
C716 C711 1.490 . S
C716 C718 1.395 . S
C716 C719 1.403 . S
H717 C723 0.930 . S
C718 H704 0.930 . S
C718 C716 1.395 . S
C718 C721 1.403 . S
C719 C716 1.403 . S
C719 C720 1.524 . S
C719 C723 1.400 . S
C720 H705 0.960 . S
C720 H706 0.960 . S
C720 H707 0.960 . S
C720 C719 1.524 . S
C721 C718 1.403 . S
C721 C722 1.392 . S
C721 C725 1.495 . S
C722 C721 1.392 . S
C722 C723 1.385 . S
C722 C724 1.478 . S
C723 H717 0.930 . S
C723 C719 1.400 . S
C723 C722 1.385 . S
C724 C722 1.478 . S
C724 C726 1.381 . S
C724 C730 1.383 . S
C725 C721 1.495 . S
C725 H731 0.959 . S
C725 H732 0.961 . S
C725 H733 0.960 . S
C726 C724 1.381 . S
C726 C727 1.394 1_565 S
C726 H734 0.930 . S
C727 C726 1.394 1_545 S
C727 C728 1.383 . S
C727 H735 0.929 . S
C728 C727 1.383 . S
C728 C729 1.377 . S
C729 H713 0.930 . S
C729 C728 1.377 . S
C729 C730 1.379 1_545 S
C730 H714 0.931 . S
C730 C724 1.383 . S
C730 C729 1.379 1_565 S
H731 C725 0.959 . S
H732 C725 0.961 . S
H733 C725 0.960 . S
H734 C726 0.930 . S
H735 C727 0.929 . S
H736 C744 0.929 . S
H737 C746 0.930 . S
H738 C748 0.930 . S
H739 C751 0.929 . S
H740 C754 0.930 . S
H741 C756 0.960 . S
H742 C756 0.960 . S
H743 C756 0.960 . S
C744 H736 0.929 . S
C744 C745 1.377 . S
C744 C746 1.384 . S
C745 C744 1.377 . S
C745 C751 1.390 . S
C746 H737 0.930 . S
C746 C744 1.384 . S
C746 C747 1.372 . S
C747 C746 1.372 . S
C747 C748 1.400 . S
C747 C752 1.490 . S
C748 H738 0.930 . S
C748 C747 1.400 . S
C748 C751 1.386 . S
H749 C765 0.930 . S
H750 C766 0.931 . S
C751 H739 0.929 . S
C751 C745 1.390 . S
C751 C748 1.386 . S
C752 C747 1.490 . S
C752 C754 1.395 . S
C752 C755 1.403 . S
H753 C759 0.930 . S
C754 H740 0.930 . S
C754 C752 1.395 . S
C754 C757 1.403 . S
C755 C752 1.403 . S
C755 C756 1.524 . S
C755 C759 1.400 . S
C756 H741 0.960 . S
C756 H742 0.960 . S
C756 H743 0.960 . S
C756 C755 1.524 . S
C757 C754 1.403 . S
C757 C758 1.392 . S
C757 C761 1.495 . S
C758 C757 1.392 . S
C758 C759 1.385 . S
C758 C760 1.478 . S
C759 H753 0.930 . S
C759 C755 1.400 . S
C759 C758 1.385 . S
C760 C758 1.478 . S
C760 C762 1.381 . S
C760 C766 1.383 . S
C761 C757 1.495 . S
C761 H767 0.959 . S
C761 H768 0.961 . S
C761 H769 0.960 . S
C762 C760 1.381 . S
C762 C763 1.394 . S
C762 H770 0.930 . S
C763 C762 1.394 . S
C763 C764 1.383 . S
C763 H771 0.929 . S
C764 C763 1.383 . S
C764 C765 1.377 . S
C765 H749 0.930 . S
C765 C764 1.377 . S
C765 C766 1.379 . S
C766 H750 0.931 . S
C766 C760 1.383 . S
C766 C765 1.379 . S
H767 C761 0.959 . S
H768 C761 0.961 . S
H769 C761 0.960 . S
H770 C762 0.930 . S
H771 C763 0.929 . S
H772 C780 0.929 . S
H773 C782 0.930 . S
H774 C784 0.930 . S
H775 C787 0.929 . S
H776 C790 0.930 . S
H777 C792 0.960 . S
H778 C792 0.960 . S
H779 C792 0.960 . S
C780 H772 0.929 . S
C780 C781 1.377 . S
C780 C782 1.384 . S
C781 C780 1.377 . S
C781 C787 1.390 . S
C782 H773 0.930 . S
C782 C780 1.384 . S
C782 C783 1.372 . S
C783 C782 1.372 . S
C783 C784 1.400 . S
C783 C788 1.490 . S
C784 H774 0.930 . S
C784 C783 1.400 . S
C784 C787 1.386 . S
H785 C801 0.930 . S
H786 C802 0.931 . S
C787 H775 0.929 . S
C787 C781 1.390 . S
C787 C784 1.386 . S
C788 C783 1.490 . S
C788 C790 1.395 . S
C788 C791 1.403 . S
H789 C795 0.930 . S
C790 H776 0.930 . S
C790 C788 1.395 . S
C790 C793 1.403 . S
C791 C788 1.403 . S
C791 C792 1.524 . S
C791 C795 1.400 . S
C792 H777 0.960 . S
C792 H778 0.960 . S
C792 H779 0.960 . S
C792 C791 1.524 . S
C793 C790 1.403 . S
C793 C794 1.392 . S
C793 C797 1.495 . S
C794 C793 1.392 . S
C794 C795 1.385 . S
C794 C796 1.478 . S
C795 H789 0.930 . S
C795 C791 1.400 . S
C795 C794 1.385 . S
C796 C794 1.478 . S
C796 C798 1.381 . S
C796 C802 1.383 . S
C797 C793 1.495 . S
C797 H803 0.959 . S
C797 H804 0.961 . S
C797 H805 0.960 . S
C798 C796 1.381 . S
C798 C799 1.394 . S
C798 H806 0.930 . S
C799 C798 1.394 . S
C799 C800 1.383 . S
C799 H807 0.929 . S
C800 C799 1.383 . S
C800 C801 1.377 . S
C801 H785 0.930 . S
C801 C800 1.377 . S
C801 C802 1.379 . S
C802 H786 0.931 . S
C802 C796 1.383 . S
C802 C801 1.379 . S
H803 C797 0.959 . S
H804 C797 0.961 . S
H805 C797 0.960 . S
H806 C798 0.930 . S
H807 C799 0.929 . S
H808 C816 0.929 . S
H809 C818 0.930 . S
H810 C820 0.930 . S
H811 C823 0.929 . S
H812 C826 0.930 . S
H813 C828 0.960 . S
H814 C828 0.960 . S
H815 C828 0.960 . S
C816 H808 0.929 . S
C816 C817 1.377 . S
C816 C818 1.384 . S
C817 C816 1.377 . S
C817 C823 1.390 . S
C818 H809 0.930 . S
C818 C816 1.384 . S
C818 C819 1.372 . S
C819 C818 1.372 . S
C819 C820 1.400 . S
C819 C824 1.490 . S
C820 H810 0.930 . S
C820 C819 1.400 . S
C820 C823 1.386 . S
H821 C837 0.930 . S
H822 C838 0.931 . S
C823 H811 0.929 . S
C823 C817 1.390 . S
C823 C820 1.386 . S
C824 C819 1.490 . S
C824 C826 1.395 . S
C824 C827 1.403 . S
H825 C831 0.930 . S
C826 H812 0.930 . S
C826 C824 1.395 . S
C826 C829 1.403 . S
C827 C824 1.403 . S
C827 C828 1.524 . S
C827 C831 1.400 . S
C828 H813 0.960 . S
C828 H814 0.960 . S
C828 H815 0.960 . S
C828 C827 1.524 . S
C829 C826 1.403 . S
C829 C830 1.392 . S
C829 C833 1.495 . S
C830 C829 1.392 . S
C830 C831 1.385 . S
C830 C832 1.478 . S
C831 H825 0.930 . S
C831 C827 1.400 . S
C831 C830 1.385 . S
C832 C830 1.478 . S
C832 C834 1.381 . S
C832 C838 1.383 . S
C833 C829 1.495 . S
C833 H839 0.959 . S
C833 H840 0.961 . S
C833 H841 0.960 . S
C834 C832 1.381 . S
C834 C835 1.394 . S
C834 H842 0.930 . S
C835 C834 1.394 . S
C835 C836 1.383 . S
C835 H843 0.929 . S
C836 C835 1.383 . S
C836 C837 1.377 . S
C837 H821 0.930 . S
C837 C836 1.377 . S
C837 C838 1.379 . S
C838 H822 0.931 . S
C838 C832 1.383 . S
C838 C837 1.379 . S
H839 C833 0.959 . S
H840 C833 0.961 . S
H841 C833 0.960 . S
H842 C834 0.930 . S
H843 C835 0.929 . S
H844 C852 0.929 . S
H845 C854 0.930 . S
H846 C856 0.930 . S
H847 C859 0.929 . S
H848 C862 0.930 . S
H849 C864 0.960 . S
H850 C864 0.960 . S
H851 C864 0.960 . S
C852 H844 0.929 . S
C852 C853 1.377 . S
C852 C854 1.384 . S
C853 C852 1.377 . S
C853 C859 1.390 . S
C854 H845 0.930 . S
C854 C852 1.384 . S
C854 C855 1.372 . S
C855 C854 1.372 . S
C855 C856 1.400 . S
C855 C860 1.490 . S
C856 H846 0.930 . S
C856 C855 1.400 . S
C856 C859 1.386 . S
H857 C873 0.930 . S
H858 C874 0.931 . S
C859 H847 0.929 . S
C859 C853 1.390 . S
C859 C856 1.386 . S
C860 C855 1.490 . S
C860 C862 1.395 . S
C860 C863 1.403 . S
H861 C867 0.930 . S
C862 H848 0.930 . S
C862 C860 1.395 . S
C862 C865 1.403 . S
C863 C860 1.403 . S
C863 C864 1.524 . S
C863 C867 1.400 . S
C864 H849 0.960 . S
C864 H850 0.960 . S
C864 H851 0.960 . S
C864 C863 1.524 . S
C865 C862 1.403 . S
C865 C866 1.392 . S
C865 C869 1.495 . S
C866 C865 1.392 . S
C866 C867 1.385 . S
C866 C868 1.478 . S
C867 H861 0.930 . S
C867 C863 1.400 . S
C867 C866 1.385 . S
C868 C866 1.478 . S
C868 C870 1.381 . S
C868 C874 1.383 . S
C869 C865 1.495 . S
C869 H875 0.959 . S
C869 H876 0.961 . S
C869 H877 0.960 . S
C870 C868 1.381 . S
C870 C871 1.394 . S
C870 H878 0.930 . S
C871 C870 1.394 . S
C871 C872 1.383 . S
C871 H879 0.929 . S
C872 C871 1.383 . S
C872 C873 1.377 . S
C873 H857 0.930 . S
C873 C872 1.377 . S
C873 C874 1.379 . S
C874 H858 0.931 . S
C874 C868 1.383 . S
C874 C873 1.379 . S
H875 C869 0.959 . S
H876 C869 0.961 . S
H877 C869 0.960 . S
H878 C870 0.930 . S
H879 C871 0.929 . S
H880 C888 0.929 . S
H881 C890 0.930 . S
H882 C892 0.930 . S
H883 C895 0.929 . S
H884 C898 0.930 . S
H885 C900 0.960 . S
H886 C900 0.960 . S
H887 C900 0.960 . S
C888 H880 0.929 . S
C888 C889 1.377 . S
C888 C890 1.384 . S
C889 C888 1.377 . S
C889 C895 1.390 . S
C890 H881 0.930 . S
C890 C888 1.384 . S
C890 C891 1.372 . S
C891 C890 1.372 . S
C891 C892 1.400 . S
C891 C896 1.490 . S
C892 H882 0.930 . S
C892 C891 1.400 . S
C892 C895 1.386 . S
H893 C909 0.930 . S
H894 C910 0.931 . S
C895 H883 0.929 . S
C895 C889 1.390 . S
C895 C892 1.386 . S
C896 C891 1.490 . S
C896 C898 1.395 . S
C896 C899 1.403 . S
H897 C903 0.930 . S
C898 H884 0.930 . S
C898 C896 1.395 . S
C898 C901 1.403 . S
C899 C896 1.403 . S
C899 C900 1.524 . S
C899 C903 1.400 . S
C900 H885 0.960 . S
C900 H886 0.960 . S
C900 H887 0.960 . S
C900 C899 1.524 . S
C901 C898 1.403 . S
C901 C902 1.392 . S
C901 C905 1.495 . S
C902 C901 1.392 . S
C902 C903 1.385 . S
C902 C904 1.478 . S
C903 H897 0.930 . S
C903 C899 1.400 . S
C903 C902 1.385 . S
C904 C902 1.478 . S
C904 C906 1.381 . S
C904 C910 1.383 . S
C905 C901 1.495 . S
C905 H911 0.959 . S
C905 H912 0.961 . S
C905 H913 0.960 . S
C906 C904 1.381 . S
C906 C907 1.394 1_545 S
C906 H914 0.930 . S
C907 C906 1.394 1_565 S
C907 C908 1.383 . S
C907 H915 0.929 . S
C908 C907 1.383 . S
C908 C909 1.377 . S
C909 H893 0.930 . S
C909 C908 1.377 . S
C909 C910 1.379 1_565 S
C910 H894 0.931 . S
C910 C904 1.383 . S
C910 C909 1.379 1_545 S
H911 C905 0.959 . S
H912 C905 0.961 . S
H913 C905 0.960 . S
H914 C906 0.930 . S
H915 C907 0.929 . S
H916 C924 0.929 . S
H917 C926 0.930 . S
H918 C928 0.930 . S
H919 C931 0.929 . S
H920 C934 0.930 . S
H921 C936 0.960 . S
H922 C936 0.960 . S
H923 C936 0.960 . S
C924 H916 0.929 . S
C924 C925 1.377 . S
C924 C926 1.384 1_565 S
C925 C924 1.377 . S
C925 C931 1.390 . S
C926 H917 0.930 . S
C926 C924 1.384 1_545 S
C926 C927 1.372 . S
C927 C926 1.372 . S
C927 C928 1.400 . S
C927 C932 1.490 . S
C928 H918 0.930 . S
C928 C927 1.400 . S
C928 C931 1.386 1_545 S
H929 C945 0.930 . S
H930 C946 0.931 . S
C931 H919 0.929 . S
C931 C925 1.390 . S
C931 C928 1.386 1_565 S
C932 C927 1.490 . S
C932 C934 1.395 . S
C932 C935 1.403 . S
H933 C939 0.930 . S
C934 H920 0.930 . S
C934 C932 1.395 . S
C934 C937 1.403 . S
C935 C932 1.403 . S
C935 C936 1.524 . S
C935 C939 1.400 . S
C936 H921 0.960 . S
C936 H922 0.960 . S
C936 H923 0.960 . S
C936 C935 1.524 . S
C937 C934 1.403 . S
C937 C938 1.392 . S
C937 C941 1.495 . S
C938 C937 1.392 . S
C938 C939 1.385 . S
C938 C940 1.478 . S
C939 H933 0.930 . S
C939 C935 1.400 . S
C939 C938 1.385 . S
C940 C938 1.478 . S
C940 C942 1.381 . S
C940 C946 1.383 . S
C941 C937 1.495 . S
C941 H947 0.959 . S
C941 H948 0.961 . S
C941 H949 0.960 . S
C942 C940 1.381 . S
C942 C943 1.394 . S
C942 H950 0.930 . S
C943 C942 1.394 . S
C943 C944 1.383 . S
C943 H951 0.929 . S
C944 C943 1.383 . S
C944 C945 1.377 . S
C945 H929 0.930 . S
C945 C944 1.377 . S
C945 C946 1.379 . S
C946 H930 0.931 . S
C946 C940 1.383 . S
C946 C945 1.379 . S
H947 C941 0.959 . S
H948 C941 0.961 . S
H949 C941 0.960 . S
H950 C942 0.930 . S
H951 C943 0.929 . S
H952 C960 0.929 . S
H953 C962 0.930 . S
H954 C964 0.930 . S
H955 C967 0.929 . S
H956 C970 0.930 . S
H957 C972 0.960 . S
H958 C972 0.960 . S
H959 C972 0.960 . S
C960 H952 0.929 . S
C960 C961 1.377 . S
C960 C962 1.384 . S
C961 C960 1.377 . S
C961 C967 1.390 . S
C962 H953 0.930 . S
C962 C960 1.384 . S
C962 C963 1.372 . S
C963 C962 1.372 . S
C963 C964 1.400 . S
C963 C968 1.490 . S
C964 H954 0.930 . S
C964 C963 1.400 . S
C964 C967 1.386 . S
H965 C981 0.930 . S
H966 C982 0.931 . S
C967 H955 0.929 . S
C967 C961 1.390 . S
C967 C964 1.386 . S
C968 C963 1.490 . S
C968 C970 1.395 . S
C968 C971 1.403 . S
H969 C975 0.930 . S
C970 H956 0.930 . S
C970 C968 1.395 . S
C970 C973 1.403 . S
C971 C968 1.403 . S
C971 C972 1.524 . S
C971 C975 1.400 . S
C972 H957 0.960 . S
C972 H958 0.960 . S
C972 H959 0.960 . S
C972 C971 1.524 . S
C973 C970 1.403 . S
C973 C974 1.392 . S
C973 C977 1.495 . S
C974 C973 1.392 . S
C974 C975 1.385 . S
C974 C976 1.478 . S
C975 H969 0.930 . S
C975 C971 1.400 . S
C975 C974 1.385 . S
C976 C974 1.478 . S
C976 C978 1.381 . S
C976 C982 1.383 . S
C977 C973 1.495 . S
C977 H983 0.959 . S
C977 H984 0.961 . S
C977 H985 0.960 . S
C978 C976 1.381 . S
C978 C979 1.394 1_565 S
C978 H986 0.930 . S
C979 C978 1.394 1_545 S
C979 C980 1.383 . S
C979 H987 0.929 . S
C980 C979 1.383 . S
C980 C981 1.377 . S
C981 H965 0.930 . S
C981 C980 1.377 . S
C981 C982 1.379 1_545 S
C982 H966 0.931 . S
C982 C976 1.383 . S
C982 C981 1.379 1_565 S
H983 C977 0.959 . S
H984 C977 0.961 . S
H985 C977 0.960 . S
H986 C978 0.930 . S
H987 C979 0.929 . S
H988 C996 0.929 . S
H989 C998 0.930 . S
H990 C1000 0.930 . S
H991 C1003 0.929 . S
H992 C1006 0.930 . S
H993 C1008 0.960 . S
H994 C1008 0.960 . S
H995 C1008 0.960 . S
C996 H988 0.929 . S
C996 C997 1.377 . S
C996 C998 1.384 . S
C997 C996 1.377 . S
C997 C1003 1.390 . S
C998 H989 0.930 . S
C998 C996 1.384 . S
C998 C999 1.372 . S
C999 C998 1.372 . S
C999 C1000 1.400 . S
C999 C1004 1.490 . S
C1000 H990 0.930 . S
C1000 C999 1.400 . S
C1000 C1003 1.386 . S
H1001 C1017 0.930 . S
H1002 C1018 0.931 . S
C1003 H991 0.929 . S
C1003 C997 1.390 . S
C1003 C1000 1.386 . S
C1004 C999 1.490 . S
C1004 C1006 1.395 . S
C1004 C1007 1.403 . S
H1005 C1011 0.930 . S
C1006 H992 0.930 . S
C1006 C1004 1.395 . S
C1006 C1009 1.403 . S
C1007 C1004 1.403 . S
C1007 C1008 1.524 . S
C1007 C1011 1.400 . S
C1008 H993 0.960 . S
C1008 H994 0.960 . S
C1008 H995 0.960 . S
C1008 C1007 1.524 . S
C1009 C1006 1.403 . S
C1009 C1010 1.392 . S
C1009 C1013 1.495 . S
C1010 C1009 1.392 . S
C1010 C1011 1.385 . S
C1010 C1012 1.478 . S
C1011 H1005 0.930 . S
C1011 C1007 1.400 . S
C1011 C1010 1.385 . S
C1012 C1010 1.478 . S
C1012 C1014 1.381 . S
C1012 C1018 1.383 . S
C1013 C1009 1.495 . S
C1013 H1019 0.959 . S
C1013 H1020 0.961 . S
C1013 H1021 0.960 . S
C1014 C1012 1.381 . S
C1014 C1015 1.394 1_565 S
C1014 H1022 0.930 . S
C1015 C1014 1.394 1_545 S
C1015 C1016 1.383 . S
C1015 H1023 0.929 . S
C1016 C1015 1.383 . S
C1016 C1017 1.377 . S
C1017 H1001 0.930 . S
C1017 C1016 1.377 . S
C1017 C1018 1.379 1_545 S
C1018 H1002 0.931 . S
C1018 C1012 1.383 . S
C1018 C1017 1.379 1_565 S
H1019 C1013 0.959 . S
H1020 C1013 0.961 . S
H1021 C1013 0.960 . S
H1022 C1014 0.930 . S
H1023 C1015 0.929 . S
H1024 C1032 0.929 . S
H1025 C1034 0.930 . S
H1026 C1036 1.002 . S
H1027 C1039 0.929 . S
H1028 C1042 0.930 . S
H1029 C1044 1.001 . S
H1030 C1044 0.960 . S
H1031 C1044 0.960 1_556 S
C1032 H1024 0.929 . S
C1032 C1033 1.377 . S
C1032 C1034 1.384 . S
C1033 C1032 1.377 . S
C1033 C1039 1.390 . S
C1034 H1025 0.930 . S
C1034 C1032 1.384 . S
C1034 C1035 1.372 . S
C1035 C1034 1.372 . S
C1035 C1036 1.400 . S
C1035 C1040 1.490 . S
C1036 H1026 1.002 . S
C1036 C1035 1.400 . S
C1036 C1039 1.386 . S
H1037 C1053 0.930 . S
H1038 C1054 0.931 . S
C1039 H1027 0.929 . S
C1039 C1033 1.390 . S
C1039 C1036 1.386 . S
C1040 C1035 1.490 . S
C1040 C1042 1.395 . S
C1040 C1043 1.403 1_556 S
H1041 C1047 0.930 . S
C1042 H1028 0.930 . S
C1042 C1040 1.395 . S
C1042 C1045 1.403 1_655 S
C1043 C1040 1.403 1_554 S
C1043 C1044 1.524 . S
C1043 C1047 1.400 1_655 S
C1044 H1029 1.001 . S
C1044 H1030 0.960 . S
C1044 H1031 0.960 1_554 S
C1044 C1043 1.524 . S
C1045 C1042 1.403 1_455 S
C1045 C1046 1.392 1_556 S
C1045 C1049 1.495 . S
C1046 C1045 1.392 1_554 S
C1046 C1047 1.385 . S
C1046 C1048 1.478 . S
C1047 H1041 0.930 . S
C1047 C1043 1.400 1_455 S
C1047 C1046 1.385 . S
C1048 C1046 1.478 . S
C1048 C1050 1.381 . S
C1048 C1054 1.383 . S
C1049 C1045 1.495 . S
C1049 H1055 0.940 1_455 S
C1049 H1056 0.961 . S
C1049 H1057 0.957 1_556 S
C1050 C1048 1.381 . S
C1050 C1051 1.394 . S
C1050 H1058 0.937 1_455 S
C1051 C1050 1.394 . S
C1051 C1052 1.383 . S
C1051 H1059 0.929 . S
C1052 C1051 1.383 . S
C1052 C1053 1.377 . S
C1053 H1037 0.930 . S
C1053 C1052 1.377 . S
C1053 C1054 1.379 . S
C1054 H1038 0.931 . S
C1054 C1048 1.383 . S
C1054 C1053 1.379 . S
H1055 C1049 0.940 1_655 S
H1056 C1049 0.961 . S
H1057 C1049 0.957 1_554 S
H1058 C1050 0.937 1_655 S
H1059 C1051 0.929 . S
H1060 C1068 0.929 . S
H1061 C1070 0.930 . S
H1062 C1072 0.930 . S
H1063 C1075 0.929 . S
H1064 C1078 0.930 . S
H1065 C1080 0.960 1_554 S
H1066 C1080 0.960 . S
H1067 C1080 0.960 . S
C1068 H1060 0.929 . S
C1068 C1069 1.377 . S
C1068 C1070 1.384 . S
C1069 C1068 1.377 . S
C1069 C1075 1.390 . S
C1070 H1061 0.930 . S
C1070 C1068 1.384 . S
C1070 C1071 1.372 . S
C1071 C1070 1.372 . S
C1071 C1072 1.400 . S
C1071 C1076 1.490 . S
C1072 H1062 0.930 . S
C1072 C1071 1.400 . S
C1072 C1075 1.386 . S
H1073 C1089 0.930 . S
H1074 C1090 0.931 . S
C1075 H1063 0.929 . S
C1075 C1069 1.390 . S
C1075 C1072 1.386 . S
C1076 C1071 1.490 . S
C1076 C1078 1.395 . S
C1076 C1079 1.403 . S
H1077 C1083 0.930 . S
C1078 H1064 0.930 . S
C1078 C1076 1.395 . S
C1078 C1081 1.377 1_556 S
C1079 C1076 1.403 . S
C1079 C1080 1.524 . S
C1079 C1083 1.400 1_556 S
C1080 H1065 0.960 1_556 S
C1080 H1066 0.960 . S
C1080 H1067 0.960 . S
C1080 C1079 1.524 . S
C1081 C1078 1.377 1_554 S
C1081 C1082 1.417 . S
C1081 C1085 1.498 . S
C1082 C1081 1.417 . S
C1082 C1083 1.385 . S
C1082 C1084 1.478 . S
C1083 H1077 0.930 . S
C1083 C1079 1.400 1_554 S
C1083 C1082 1.385 . S
C1084 C1082 1.478 . S
C1084 C1086 1.381 . S
C1084 C1090 1.383 . S
C1085 C1081 1.498 . S
C1085 H1091 0.959 1_554 S
C1085 H1092 0.961 . S
C1085 H1093 0.964 . S
C1086 C1084 1.381 . S
C1086 C1087 1.394 . S
C1086 H1094 0.930 . S
C1087 C1086 1.394 . S
C1087 C1088 1.383 . S
C1087 H1095 0.929 . S
C1088 C1087 1.383 . S
C1088 C1089 1.377 . S
C1089 H1073 0.930 . S
C1089 C1088 1.377 . S
C1089 C1090 1.379 . S
C1090 H1074 0.931 . S
C1090 C1084 1.383 . S
C1090 C1089 1.379 . S
H1091 C1085 0.959 1_556 S
H1092 C1085 0.961 . S
H1093 C1085 0.964 . S
H1094 C1086 0.930 . S
H1095 C1087 0.929 . S
H1096 C1104 0.929 . S
H1097 C1106 0.930 . S
H1098 C1108 0.930 . S
H1099 C1111 0.929 . S
H1100 C1114 0.930 . S
H1101 C1116 0.960 . S
H1102 C1116 0.960 . S
H1103 C1116 0.960 . S
C1104 H1096 0.929 . S
C1104 C1105 1.377 . S
C1104 C1106 1.384 . S
C1105 C1104 1.377 . S
C1105 C1111 1.390 . S
C1106 H1097 0.930 . S
C1106 C1104 1.384 . S
C1106 C1107 1.372 . S
C1107 C1106 1.372 . S
C1107 C1108 1.400 . S
C1107 C1112 1.490 . S
C1108 H1098 0.930 . S
C1108 C1107 1.400 . S
C1108 C1111 1.386 . S
H1109 C1125 0.930 . S
H1110 C1126 0.931 . S
C1111 H1099 0.929 . S
C1111 C1105 1.390 . S
C1111 C1108 1.386 . S
C1112 C1107 1.490 . S
C1112 C1114 1.395 . S
C1112 C1115 1.403 1_455 S
H1113 C1119 0.930 . S
C1114 H1100 0.930 . S
C1114 C1112 1.395 . S
C1114 C1117 1.403 . S
C1115 C1112 1.403 1_655 S
C1115 C1116 1.524 . S
C1115 C1119 1.400 . S
C1116 H1101 0.960 . S
C1116 H1102 0.960 . S
C1116 H1103 0.960 . S
C1116 C1115 1.524 . S
C1117 C1114 1.403 . S
C1117 C1118 1.392 1_455 S
C1117 C1121 1.495 . S
C1118 C1117 1.392 1_655 S
C1118 C1119 1.385 . S
C1118 C1120 1.478 . S
C1119 H1113 0.930 . S
C1119 C1115 1.400 . S
C1119 C1118 1.385 . S
C1120 C1118 1.478 . S
C1120 C1122 1.381 . S
C1120 C1126 1.383 . S
C1121 C1117 1.495 . S
C1121 H1127 0.959 . S
C1121 H1128 0.961 . S
C1121 H1129 0.960 . S
C1122 C1120 1.381 . S
C1122 C1123 1.394 . S
C1122 H1130 0.930 . S
C1123 C1122 1.394 . S
C1123 C1124 1.383 . S
C1123 H1131 0.929 . S
C1124 C1123 1.383 . S
C1124 C1125 1.377 . S
C1125 H1109 0.930 . S
C1125 C1124 1.377 . S
C1125 C1126 1.379 . S
C1126 H1110 0.931 . S
C1126 C1120 1.383 . S
C1126 C1125 1.379 . S
H1127 C1121 0.959 . S
H1128 C1121 0.961 . S
H1129 C1121 0.960 . S
H1130 C1122 0.930 . S
H1131 C1123 0.929 . S
H1132 C1140 0.929 . S
H1133 C1142 0.930 . S
H1134 C1144 0.930 . S
H1135 C1147 0.929 . S
H1136 C1150 0.930 . S
H1137 C1152 0.960 . S
H1138 C1152 0.960 . S
H1139 C1152 0.960 . S
C1140 H1132 0.929 . S
C1140 C1141 1.377 . S
C1140 C1142 1.384 . S
C1141 C1140 1.377 . S
C1141 C1147 1.390 . S
C1142 H1133 0.930 . S
C1142 C1140 1.384 . S
C1142 C1143 1.372 . S
C1143 C1142 1.372 . S
C1143 C1144 1.400 . S
C1143 C1148 1.490 . S
C1144 H1134 0.930 . S
C1144 C1143 1.400 . S
C1144 C1147 1.386 . S
H1145 C1161 0.930 . S
H1146 C1162 0.931 . S
C1147 H1135 0.929 . S
C1147 C1141 1.390 . S
C1147 C1144 1.386 . S
C1148 C1143 1.490 . S
C1148 C1150 1.395 . S
C1148 C1151 1.403 . S
H1149 C1155 0.930 . S
C1150 H1136 0.930 . S
C1150 C1148 1.395 . S
C1150 C1153 1.403 . S
C1151 C1148 1.403 . S
C1151 C1152 1.524 . S
C1151 C1155 1.400 . S
C1152 H1137 0.960 . S
C1152 H1138 0.960 . S
C1152 H1139 0.960 . S
C1152 C1151 1.524 . S
C1153 C1150 1.403 . S
C1153 C1154 1.392 . S
C1153 C1157 1.495 . S
C1154 C1153 1.392 . S
C1154 C1155 1.385 . S
C1154 C1156 1.478 . S
C1155 H1149 0.930 . S
C1155 C1151 1.400 . S
C1155 C1154 1.385 . S
C1156 C1154 1.478 . S
C1156 C1158 1.381 . S
C1156 C1162 1.383 . S
C1157 C1153 1.495 . S
C1157 H1163 0.959 . S
C1157 H1164 0.961 . S
C1157 H1165 0.960 . S
C1158 C1156 1.381 . S
C1158 C1159 1.394 . S
C1158 H1166 0.930 . S
C1159 C1158 1.394 . S
C1159 C1160 1.383 . S
C1159 H1167 0.929 . S
C1160 C1159 1.383 . S
C1160 C1161 1.377 . S
C1161 H1145 0.930 . S
C1161 C1160 1.377 . S
C1161 C1162 1.379 . S
C1162 H1146 0.931 . S
C1162 C1156 1.383 . S
C1162 C1161 1.379 . S
H1163 C1157 0.959 . S
H1164 C1157 0.961 . S
H1165 C1157 0.960 . S
H1166 C1158 0.930 . S
H1167 C1159 0.929 . S
H1168 C1176 0.929 . S
H1169 C1178 0.930 . S
H1170 C1180 0.930 . S
H1171 C1183 0.929 . S
H1172 C1186 0.930 . S
H1173 C1188 0.960 . S
H1174 C1188 0.960 . S
H1175 C1188 0.960 . S
C1176 H1168 0.929 . S
C1176 C1177 1.377 . S
C1176 C1178 1.384 . S
C1177 C1176 1.377 . S
C1177 C1183 1.390 . S
C1178 H1169 0.930 . S
C1178 C1176 1.384 . S
C1178 C1179 1.372 . S
C1179 C1178 1.372 . S
C1179 C1180 1.400 . S
C1179 C1184 1.490 . S
C1180 H1170 0.930 . S
C1180 C1179 1.400 . S
C1180 C1183 1.386 . S
H1181 C1197 0.930 . S
H1182 C1198 0.931 . S
C1183 H1171 0.929 . S
C1183 C1177 1.390 . S
C1183 C1180 1.386 . S
C1184 C1179 1.490 . S
C1184 C1186 1.395 . S
C1184 C1187 1.403 . S
H1185 C1191 0.930 . S
C1186 H1172 0.930 . S
C1186 C1184 1.395 . S
C1186 C1189 1.403 1_556 S
C1187 C1184 1.403 . S
C1187 C1188 1.524 . S
C1187 C1191 1.400 1_556 S
C1188 H1173 0.960 . S
C1188 H1174 0.960 . S
C1188 H1175 0.960 . S
C1188 C1187 1.524 . S
C1189 C1186 1.403 1_554 S
C1189 C1190 1.392 . S
C1189 C1193 1.495 . S
C1190 C1189 1.392 . S
C1190 C1191 1.385 . S
C1190 C1192 1.478 . S
C1191 H1185 0.930 . S
C1191 C1187 1.400 1_554 S
C1191 C1190 1.385 . S
C1192 C1190 1.478 . S
C1192 C1194 1.381 . S
C1192 C1198 1.383 . S
C1193 C1189 1.495 . S
C1193 H1199 0.959 . S
C1193 H1200 0.961 . S
C1193 H1201 0.960 . S
C1194 C1192 1.381 . S
C1194 C1195 1.394 . S
C1194 H1202 0.930 . S
C1195 C1194 1.394 . S
C1195 C1196 1.383 . S
C1195 H1203 0.929 . S
C1196 C1195 1.383 . S
C1196 C1197 1.377 . S
C1197 H1181 0.930 . S
C1197 C1196 1.377 . S
C1197 C1198 1.379 . S
C1198 H1182 0.931 . S
C1198 C1192 1.383 . S
C1198 C1197 1.379 . S
H1199 C1193 0.959 . S
H1200 C1193 0.961 . S
H1201 C1193 0.960 . S
H1202 C1194 0.930 . S
H1203 C1195 0.929 . S
H1204 C1212 0.929 . S
H1205 C1214 0.930 . S
H1206 C1216 0.930 . S
H1207 C1219 0.929 . S
H1208 C1222 0.930 . S
H1209 C1224 0.979 . S
H1210 C1224 0.977 . S
H1211 C1224 0.927 1_655 S
C1212 H1204 0.929 . S
C1212 C1213 1.377 . S
C1212 C1214 1.384 . S
C1213 C1212 1.377 . S
C1213 C1219 1.390 . S
C1214 H1205 0.930 . S
C1214 C1212 1.384 . S
C1214 C1215 1.372 . S
C1215 C1214 1.372 . S
C1215 C1216 1.400 . S
C1215 C1220 1.490 . S
C1216 H1206 0.930 . S
C1216 C1215 1.400 . S
C1216 C1219 1.386 . S
H1217 C1233 0.930 . S
H1218 C1234 0.931 . S
C1219 H1207 0.929 . S
C1219 C1213 1.390 . S
C1219 C1216 1.386 . S
C1220 C1215 1.490 . S
C1220 C1222 1.395 . S
C1220 C1223 1.401 . S
H1221 C1227 0.930 . S
C1222 H1208 0.930 . S
C1222 C1220 1.395 . S
C1222 C1225 1.380 1_655 S
C1223 C1220 1.401 . S
C1223 C1224 1.523 1_655 S
C1223 C1227 1.402 1_655 S
C1224 H1209 0.979 . S
C1224 H1210 0.977 . S
C1224 H1211 0.927 1_455 S
C1224 C1223 1.523 1_455 S
C1225 C1222 1.380 1_455 S
C1225 C1226 1.416 . S
C1225 C1229 1.495 . S
C1226 C1225 1.416 . S
C1226 C1227 1.385 . S
C1226 C1228 1.478 . S
C1227 H1221 0.930 . S
C1227 C1223 1.402 1_455 S
C1227 C1226 1.385 . S
C1228 C1226 1.478 . S
C1228 C1230 1.381 . S
C1228 C1234 1.383 . S
C1229 C1225 1.495 . S
C1229 H1235 0.935 1_455 S
C1229 H1236 0.941 1_455 S
C1229 H1237 1.006 . S
C1230 C1228 1.381 . S
C1230 C1231 1.394 . S
C1230 H1238 0.930 . S
C1231 C1230 1.394 . S
C1231 C1232 1.383 . S
C1231 H1239 0.929 . S
C1232 C1231 1.383 . S
C1232 C1233 1.377 . S
C1233 H1217 0.930 . S
C1233 C1232 1.377 . S
C1233 C1234 1.379 . S
C1234 H1218 0.931 . S
C1234 C1228 1.383 . S
C1234 C1233 1.379 . S
H1235 C1229 0.935 1_655 S
H1236 C1229 0.941 1_655 S
H1237 C1229 1.006 . S
H1238 C1230 0.930 . S
H1239 C1231 0.929 . S
H1240 C1248 0.929 . S
H1241 C1250 0.930 . S
H1242 C1252 0.930 . S
H1243 C1255 0.929 . S
H1244 C1258 0.930 . S
H1245 C1260 0.960 . S
H1246 C1260 0.960 . S
H1247 C1260 0.960 . S
C1248 H1240 0.929 . S
C1248 C1249 1.377 . S
C1248 C1250 1.384 . S
C1249 C1248 1.377 . S
C1249 C1255 1.390 . S
C1250 H1241 0.930 . S
C1250 C1248 1.384 . S
C1250 C1251 1.372 . S
C1251 C1250 1.372 . S
C1251 C1252 1.400 . S
C1251 C1256 1.490 . S
C1252 H1242 0.930 . S
C1252 C1251 1.400 . S
C1252 C1255 1.386 . S
H1253 C1269 0.930 . S
H1254 C1270 0.931 . S
C1255 H1243 0.929 . S
C1255 C1249 1.390 . S
C1255 C1252 1.386 . S
C1256 C1251 1.490 . S
C1256 C1258 1.395 . S
C1256 C1259 1.403 . S
H1257 C1263 0.930 . S
C1258 H1244 0.930 . S
C1258 C1256 1.395 . S
C1258 C1261 1.403 . S
C1259 C1256 1.403 . S
C1259 C1260 1.524 . S
C1259 C1263 1.400 . S
C1260 H1245 0.960 . S
C1260 H1246 0.960 . S
C1260 H1247 0.960 . S
C1260 C1259 1.524 . S
C1261 C1258 1.403 . S
C1261 C1262 1.392 . S
C1261 C1265 1.495 . S
C1262 C1261 1.392 . S
C1262 C1263 1.385 . S
C1262 C1264 1.478 . S
C1263 H1257 0.930 . S
C1263 C1259 1.400 . S
C1263 C1262 1.385 . S
C1264 C1262 1.478 . S
C1264 C1266 1.381 . S
C1264 C1270 1.383 . S
C1265 C1261 1.495 . S
C1265 H1271 0.959 . S
C1265 H1272 0.961 . S
C1265 H1273 0.960 . S
C1266 C1264 1.381 . S
C1266 C1267 1.394 . S
C1266 H1274 0.930 . S
C1267 C1266 1.394 . S
C1267 C1268 1.383 . S
C1267 H1275 0.929 . S
C1268 C1267 1.383 . S
C1268 C1269 1.377 . S
C1269 H1253 0.930 . S
C1269 C1268 1.377 . S
C1269 C1270 1.379 . S
C1270 H1254 0.931 . S
C1270 C1264 1.383 . S
C1270 C1269 1.379 . S
H1271 C1265 0.959 . S
H1272 C1265 0.961 . S
H1273 C1265 0.960 . S
H1274 C1266 0.930 . S
H1275 C1267 0.929 . S
H1276 C1284 0.929 . S
H1277 C1286 0.930 . S
H1278 C1288 1.002 . S
H1279 C1291 0.929 . S
H1280 C1294 0.930 . S
H1281 C1296 1.002 . S
H1282 C1296 0.960 . S
H1283 C1296 0.960 . S
C1284 H1276 0.929 . S
C1284 C1285 1.377 . S
C1284 C1286 1.384 . S
C1285 C1284 1.377 . S
C1285 C1291 1.390 . S
C1286 H1277 0.930 . S
C1286 C1284 1.384 . S
C1286 C1287 1.372 . S
C1287 C1286 1.372 . S
C1287 C1288 1.400 . S
C1287 C1292 1.490 . S
C1288 H1278 1.002 . S
C1288 C1287 1.400 . S
C1288 C1291 1.386 . S
H1289 C1305 0.930 . S
H1290 C1306 0.931 . S
C1291 H1279 0.929 . S
C1291 C1285 1.390 . S
C1291 C1288 1.386 . S
C1292 C1287 1.490 . S
C1292 C1294 1.395 1_545 S
C1292 C1295 1.403 . S
H1293 C1299 0.930 . S
C1294 H1280 0.930 . S
C1294 C1292 1.395 1_565 S
C1294 C1297 1.403 1_655 S
C1295 C1292 1.403 . S
C1295 C1296 1.524 . S
C1295 C1299 1.400 1_655 S
C1296 H1281 1.002 . S
C1296 H1282 0.960 . S
C1296 H1283 0.960 . S
C1296 C1295 1.524 . S
C1297 C1294 1.403 1_455 S
C1297 C1298 1.392 . S
C1297 C1301 1.495 . S
C1298 C1297 1.392 . S
C1298 C1299 1.385 1_565 S
C1298 C1300 1.478 . S
C1299 H1293 0.930 . S
C1299 C1295 1.400 1_455 S
C1299 C1298 1.385 1_545 S
C1300 C1298 1.478 . S
C1300 C1302 1.381 . S
C1300 C1306 1.383 . S
C1301 C1297 1.495 . S
C1301 H1307 0.941 1_455 S
C1301 H1308 0.961 . S
C1301 H1309 0.957 . S
C1302 C1300 1.381 . S
C1302 C1303 1.394 . S
C1302 H1310 0.938 1_455 S
C1303 C1302 1.394 . S
C1303 C1304 1.383 . S
C1303 H1311 0.929 . S
C1304 C1303 1.383 . S
C1304 C1305 1.377 . S
C1305 H1289 0.930 . S
C1305 C1304 1.377 . S
C1305 C1306 1.379 . S
C1306 H1290 0.931 . S
C1306 C1300 1.383 . S
C1306 C1305 1.379 . S
H1307 C1301 0.941 1_655 S
H1308 C1301 0.961 . S
H1309 C1301 0.957 . S
H1310 C1302 0.938 1_655 S
H1311 C1303 0.929 . S
H1312 C1320 0.929 . S
H1313 C1322 0.930 . S
H1314 C1324 0.930 . S
H1315 C1327 0.929 . S
H1316 C1330 0.930 . S
H1317 C1332 0.960 . S
H1318 C1332 0.960 . S
H1319 C1332 0.960 . S
C1320 H1312 0.929 . S
C1320 C1321 1.377 . S
C1320 C1322 1.384 . S
C1321 C1320 1.377 . S
C1321 C1327 1.390 . S
C1322 H1313 0.930 . S
C1322 C1320 1.384 . S
C1322 C1323 1.372 . S
C1323 C1322 1.372 . S
C1323 C1324 1.400 . S
C1323 C1328 1.490 . S
C1324 H1314 0.930 . S
C1324 C1323 1.400 . S
C1324 C1327 1.386 . S
H1325 C1341 0.930 . S
H1326 C1342 0.931 . S
C1327 H1315 0.929 . S
C1327 C1321 1.390 . S
C1327 C1324 1.386 . S
C1328 C1323 1.490 . S
C1328 C1330 1.395 . S
C1328 C1331 1.403 . S
H1329 C1335 0.930 . S
C1330 H1316 0.930 . S
C1330 C1328 1.395 . S
C1330 C1333 1.403 . S
C1331 C1328 1.403 . S
C1331 C1332 1.524 . S
C1331 C1335 1.400 . S
C1332 H1317 0.960 . S
C1332 H1318 0.960 . S
C1332 H1319 0.960 . S
C1332 C1331 1.524 . S
C1333 C1330 1.403 . S
C1333 C1334 1.392 . S
C1333 C1337 1.495 . S
C1334 C1333 1.392 . S
C1334 C1335 1.385 . S
C1334 C1336 1.478 . S
C1335 H1329 0.930 . S
C1335 C1331 1.400 . S
C1335 C1334 1.385 . S
C1336 C1334 1.478 . S
C1336 C1338 1.381 . S
C1336 C1342 1.383 . S
C1337 C1333 1.495 . S
C1337 H1343 0.959 . S
C1337 H1344 0.961 . S
C1337 H1345 0.960 . S
C1338 C1336 1.381 . S
C1338 C1339 1.394 . S
C1338 H1346 0.930 . S
C1339 C1338 1.394 . S
C1339 C1340 1.383 . S
C1339 H1347 0.929 . S
C1340 C1339 1.383 . S
C1340 C1341 1.377 . S
C1341 H1325 0.930 . S
C1341 C1340 1.377 . S
C1341 C1342 1.379 . S
C1342 H1326 0.931 . S
C1342 C1336 1.383 . S
C1342 C1341 1.379 . S
H1343 C1337 0.959 . S
H1344 C1337 0.961 . S
H1345 C1337 0.960 . S
H1346 C1338 0.930 . S
H1347 C1339 0.929 . S
H1348 C1356 0.929 . S
H1349 C1358 0.930 1_545 S
H1350 C1360 0.930 . S
H1351 C1363 0.929 . S
H1352 C1366 0.930 . S
H1353 C1368 0.960 . S
H1354 C1368 0.960 . S
H1355 C1368 0.960 . S
C1356 H1348 0.929 . S
C1356 C1357 1.377 . S
C1356 C1358 1.384 . S
C1357 C1356 1.377 . S
C1357 C1363 1.390 . S
C1358 H1349 0.930 1_565 S
C1358 C1356 1.384 . S
C1358 C1359 1.372 . S
C1359 C1358 1.372 . S
C1359 C1360 1.400 . S
C1359 C1364 1.490 . S
C1360 H1350 0.930 . S
C1360 C1359 1.400 . S
C1360 C1363 1.386 . S
H1361 C1377 0.930 . S
H1362 C1378 0.931 1_565 S
C1363 H1351 0.929 . S
C1363 C1357 1.390 . S
C1363 C1360 1.386 . S
C1364 C1359 1.490 . S
C1364 C1366 1.395 1_565 S
C1364 C1367 1.403 . S
H1365 C1371 0.930 . S
C1366 H1352 0.930 . S
C1366 C1364 1.395 1_545 S
C1366 C1369 1.403 . S
C1367 C1364 1.403 . S
C1367 C1368 1.524 . S
C1367 C1371 1.400 . S
C1368 H1353 0.960 . S
C1368 H1354 0.960 . S
C1368 H1355 0.960 . S
C1368 C1367 1.524 . S
C1369 C1366 1.403 . S
C1369 C1370 1.392 . S
C1369 C1373 1.495 . S
C1370 C1369 1.392 . S
C1370 C1371 1.385 1_545 S
C1370 C1372 1.478 . S
C1371 H1365 0.930 . S
C1371 C1367 1.400 . S
C1371 C1370 1.385 1_565 S
C1372 C1370 1.478 . S
C1372 C1374 1.381 . S
C1372 C1378 1.383 . S
C1373 C1369 1.495 . S
C1373 H1379 0.959 . S
C1373 H1380 0.961 . S
C1373 H1381 0.960 . S
C1374 C1372 1.381 . S
C1374 C1375 1.394 . S
C1374 H1382 0.930 . S
C1375 C1374 1.394 . S
C1375 C1376 1.383 . S
C1375 H1383 0.929 . S
C1376 C1375 1.383 . S
C1376 C1377 1.377 . S
C1377 H1361 0.930 . S
C1377 C1376 1.377 . S
C1377 C1378 1.379 . S
C1378 H1362 0.931 1_545 S
C1378 C1372 1.383 . S
C1378 C1377 1.379 . S
H1379 C1373 0.959 . S
H1380 C1373 0.961 . S
H1381 C1373 0.960 . S
H1382 C1374 0.930 . S
H1383 C1375 0.929 . S
H1384 C1392 0.929 . S
H1385 C1394 0.930 . S
H1386 C1396 0.930 . S
H1387 C1399 0.929 . S
H1388 C1402 0.930 . S
H1389 C1404 0.960 . S
H1390 C1404 0.960 . S
H1391 C1404 0.960 . S
C1392 H1384 0.929 . S
C1392 C1393 1.377 . S
C1392 C1394 1.384 . S
C1393 C1392 1.377 . S
C1393 C1399 1.390 . S
C1394 H1385 0.930 . S
C1394 C1392 1.384 . S
C1394 C1395 1.372 . S
C1395 C1394 1.372 . S
C1395 C1396 1.400 . S
C1395 C1400 1.490 . S
C1396 H1386 0.930 . S
C1396 C1395 1.400 . S
C1396 C1399 1.386 . S
H1397 C1413 0.930 . S
H1398 C1414 0.931 . S
C1399 H1387 0.929 . S
C1399 C1393 1.390 . S
C1399 C1396 1.386 . S
C1400 C1395 1.490 . S
C1400 C1402 1.395 . S
C1400 C1403 1.403 . S
H1401 C1407 0.930 . S
C1402 H1388 0.930 . S
C1402 C1400 1.395 . S
C1402 C1405 1.403 . S
C1403 C1400 1.403 . S
C1403 C1404 1.524 . S
C1403 C1407 1.400 . S
C1404 H1389 0.960 . S
C1404 H1390 0.960 . S
C1404 H1391 0.960 . S
C1404 C1403 1.524 . S
C1405 C1402 1.403 . S
C1405 C1406 1.392 . S
C1405 C1409 1.495 . S
C1406 C1405 1.392 . S
C1406 C1407 1.385 . S
C1406 C1408 1.478 . S
C1407 H1401 0.930 . S
C1407 C1403 1.400 . S
C1407 C1406 1.385 . S
C1408 C1406 1.478 . S
C1408 C1410 1.381 . S
C1408 C1414 1.383 . S
C1409 C1405 1.495 . S
C1409 H1415 0.959 . S
C1409 H1416 0.961 . S
C1409 H1417 0.960 . S
C1410 C1408 1.381 . S
C1410 C1411 1.394 . S
C1410 H1418 0.930 . S
C1411 C1410 1.394 . S
C1411 C1412 1.383 . S
C1411 H1419 0.929 . S
C1412 C1411 1.383 . S
C1412 C1413 1.377 . S
C1413 H1397 0.930 . S
C1413 C1412 1.377 . S
C1413 C1414 1.379 . S
C1414 H1398 0.931 . S
C1414 C1408 1.383 . S
C1414 C1413 1.379 . S
H1415 C1409 0.959 . S
H1416 C1409 0.961 . S
H1417 C1409 0.960 . S
H1418 C1410 0.930 . S
H1419 C1411 0.929 . S
H1420 C1428 0.929 . S
H1421 C1430 0.930 . S
H1422 C1432 0.930 . S
H1423 C1435 0.929 . S
H1424 C1438 0.930 . S
H1425 C1440 0.960 . S
H1426 C1440 0.960 . S
H1427 C1440 0.960 . S
C1428 H1420 0.929 . S
C1428 C1429 1.377 . S
C1428 C1430 1.384 . S
C1429 C1428 1.377 . S
C1429 C1435 1.390 . S
C1430 H1421 0.930 . S
C1430 C1428 1.384 . S
C1430 C1431 1.372 . S
C1431 C1430 1.372 . S
C1431 C1432 1.400 . S
C1431 C1436 1.490 . S
C1432 H1422 0.930 . S
C1432 C1431 1.400 . S
C1432 C1435 1.386 . S
H1433 C1449 0.930 . S
H1434 C1450 0.931 . S
C1435 H1423 0.929 . S
C1435 C1429 1.390 . S
C1435 C1432 1.386 . S
C1436 C1431 1.490 . S
C1436 C1438 1.395 . S
C1436 C1439 1.403 1_565 S
H1437 C1443 0.930 . S
C1438 H1424 0.930 . S
C1438 C1436 1.395 . S
C1438 C1441 1.403 . S
C1439 C1436 1.403 1_545 S
C1439 C1440 1.524 . S
C1439 C1443 1.400 . S
C1440 H1425 0.960 . S
C1440 H1426 0.960 . S
C1440 H1427 0.960 . S
C1440 C1439 1.524 . S
C1441 C1438 1.403 . S
C1441 C1442 1.392 1_565 S
C1441 C1445 1.495 . S
C1442 C1441 1.392 1_545 S
C1442 C1443 1.385 . S
C1442 C1444 1.478 . S
C1443 H1437 0.930 . S
C1443 C1439 1.400 . S
C1443 C1442 1.385 . S
C1444 C1442 1.478 . S
C1444 C1446 1.381 . S
C1444 C1450 1.383 . S
C1445 C1441 1.495 . S
C1445 H1451 0.959 . S
C1445 H1452 0.961 . S
C1445 H1453 0.960 . S
C1446 C1444 1.381 . S
C1446 C1447 1.394 . S
C1446 H1454 0.930 . S
C1447 C1446 1.394 . S
C1447 C1448 1.383 . S
C1447 H1455 0.929 . S
C1448 C1447 1.383 . S
C1448 C1449 1.377 . S
C1449 H1433 0.930 . S
C1449 C1448 1.377 . S
C1449 C1450 1.379 . S
C1450 H1434 0.931 . S
C1450 C1444 1.383 . S
C1450 C1449 1.379 . S
H1451 C1445 0.959 . S
H1452 C1445 0.961 . S
H1453 C1445 0.960 . S
H1454 C1446 0.930 . S
H1455 C1447 0.929 . S
H1456 C1464 0.929 . S
H1457 C1466 0.930 . S
H1458 C1468 0.930 . S
H1459 C1471 0.929 . S
H1460 C1474 0.930 . S
H1461 C1476 0.960 . S
H1462 C1476 0.960 . S
H1463 C1476 0.960 . S
C1464 H1456 0.929 . S
C1464 C1465 1.377 . S
C1464 C1466 1.384 . S
C1465 C1464 1.377 . S
C1465 C1471 1.390 . S
C1466 H1457 0.930 . S
C1466 C1464 1.384 . S
C1466 C1467 1.372 . S
C1467 C1466 1.372 . S
C1467 C1468 1.400 . S
C1467 C1472 1.490 . S
C1468 H1458 0.930 . S
C1468 C1467 1.400 . S
C1468 C1471 1.386 . S
H1469 C1485 0.930 . S
H1470 C1486 0.931 . S
C1471 H1459 0.929 . S
C1471 C1465 1.390 . S
C1471 C1468 1.386 . S
C1472 C1467 1.490 . S
C1472 C1474 1.395 . S
C1472 C1475 1.403 . S
H1473 C1479 0.930 . S
C1474 H1460 0.930 . S
C1474 C1472 1.395 . S
C1474 C1477 1.403 . S
C1475 C1472 1.403 . S
C1475 C1476 1.524 . S
C1475 C1479 1.400 . S
C1476 H1461 0.960 . S
C1476 H1462 0.960 . S
C1476 H1463 0.960 . S
C1476 C1475 1.524 . S
C1477 C1474 1.403 . S
C1477 C1478 1.392 . S
C1477 C1481 1.495 . S
C1478 C1477 1.392 . S
C1478 C1479 1.385 . S
C1478 C1480 1.478 . S
C1479 H1473 0.930 . S
C1479 C1475 1.400 . S
C1479 C1478 1.385 . S
C1480 C1478 1.478 . S
C1480 C1482 1.381 . S
C1480 C1486 1.383 . S
C1481 C1477 1.495 . S
C1481 H1487 0.959 . S
C1481 H1488 0.961 . S
C1481 H1489 0.960 . S
C1482 C1480 1.381 . S
C1482 C1483 1.394 . S
C1482 H1490 0.930 . S
C1483 C1482 1.394 . S
C1483 C1484 1.383 . S
C1483 H1491 0.929 . S
C1484 C1483 1.383 . S
C1484 C1485 1.377 . S
C1485 H1469 0.930 . S
C1485 C1484 1.377 . S
C1485 C1486 1.379 . S
C1486 H1470 0.931 . S
C1486 C1480 1.383 . S
C1486 C1485 1.379 . S
H1487 C1481 0.959 . S
H1488 C1481 0.961 . S
H1489 C1481 0.960 . S
H1490 C1482 0.930 . S
H1491 C1483 0.929 . S
H1492 C1500 0.929 . S
H1493 C1502 0.930 . S
H1494 C1504 0.930 . S
H1495 C1507 0.929 . S
H1496 C1510 0.930 . S
H1497 C1512 0.960 . S
H1498 C1512 0.960 . S
H1499 C1512 0.960 . S
C1500 H1492 0.929 . S
C1500 C1501 1.377 . S
C1500 C1502 1.384 . S
C1501 C1500 1.377 . S
C1501 C1507 1.390 . S
C1502 H1493 0.930 . S
C1502 C1500 1.384 . S
C1502 C1503 1.372 . S
C1503 C1502 1.372 . S
C1503 C1504 1.400 . S
C1503 C1508 1.490 . S
C1504 H1494 0.930 . S
C1504 C1503 1.400 . S
C1504 C1507 1.386 . S
H1505 C1521 0.930 . S
H1506 C1522 0.931 . S
C1507 H1495 0.929 . S
C1507 C1501 1.390 . S
C1507 C1504 1.386 . S
C1508 C1503 1.490 . S
C1508 C1510 1.395 . S
C1508 C1511 1.403 . S
H1509 C1515 0.930 . S
C1510 H1496 0.930 . S
C1510 C1508 1.395 . S
C1510 C1513 1.403 . S
C1511 C1508 1.403 . S
C1511 C1512 1.524 . S
C1511 C1515 1.400 . S
C1512 H1497 0.960 . S
C1512 H1498 0.960 . S
C1512 H1499 0.960 . S
C1512 C1511 1.524 . S
C1513 C1510 1.403 . S
C1513 C1514 1.392 . S
C1513 C1517 1.495 . S
C1514 C1513 1.392 . S
C1514 C1515 1.385 . S
C1514 C1516 1.478 . S
C1515 H1509 0.930 . S
C1515 C1511 1.400 . S
C1515 C1514 1.385 . S
C1516 C1514 1.478 . S
C1516 C1518 1.381 . S
C1516 C1522 1.383 . S
C1517 C1513 1.495 . S
C1517 H1523 0.959 . S
C1517 H1524 0.961 . S
C1517 H1525 0.960 . S
C1518 C1516 1.381 . S
C1518 C1519 1.394 . S
C1518 H1526 0.930 . S
C1519 C1518 1.394 . S
C1519 C1520 1.383 . S
C1519 H1527 0.929 . S
C1520 C1519 1.383 . S
C1520 C1521 1.377 . S
C1521 H1505 0.930 . S
C1521 C1520 1.377 . S
C1521 C1522 1.379 . S
C1522 H1506 0.931 . S
C1522 C1516 1.383 . S
C1522 C1521 1.379 . S
H1523 C1517 0.959 . S
H1524 C1517 0.961 . S
H1525 C1517 0.960 . S
H1526 C1518 0.930 . S
H1527 C1519 0.929 . S
H1528 C1536 0.929 . S
H1529 C1538 0.930 . S
H1530 C1540 0.930 . S
H1531 C1543 0.929 . S
H1532 C1546 0.930 . S
H1533 C1548 0.960 . S
H1534 C1548 0.960 . S
H1535 C1548 0.960 . S
C1536 H1528 0.929 . S
C1536 C1537 1.377 . S
C1536 C1538 1.384 . S
C1537 C1536 1.377 . S
C1537 C1543 1.390 . S
C1538 H1529 0.930 . S
C1538 C1536 1.384 . S
C1538 C1539 1.372 . S
C1539 C1538 1.372 . S
C1539 C1540 1.400 . S
C1539 C1544 1.490 . S
C1540 H1530 0.930 . S
C1540 C1539 1.400 . S
C1540 C1543 1.386 . S
H1541 C1557 0.930 . S
H1542 C1558 0.931 . S
C1543 H1531 0.929 . S
C1543 C1537 1.390 . S
C1543 C1540 1.386 . S
C1544 C1539 1.490 . S
C1544 C1546 1.395 . S
C1544 C1547 1.403 . S
H1545 C1551 0.930 . S
C1546 H1532 0.930 . S
C1546 C1544 1.395 . S
C1546 C1549 1.403 . S
C1547 C1544 1.403 . S
C1547 C1548 1.524 . S
C1547 C1551 1.400 . S
C1548 H1533 0.960 . S
C1548 H1534 0.960 . S
C1548 H1535 0.960 . S
C1548 C1547 1.524 . S
C1549 C1546 1.403 . S
C1549 C1550 1.392 . S
C1549 C1553 1.495 . S
C1550 C1549 1.392 . S
C1550 C1551 1.385 . S
C1550 C1552 1.478 . S
C1551 H1545 0.930 . S
C1551 C1547 1.400 . S
C1551 C1550 1.385 . S
C1552 C1550 1.478 . S
C1552 C1554 1.381 . S
C1552 C1558 1.383 . S
C1553 C1549 1.495 . S
C1553 H1559 0.959 . S
C1553 H1560 0.961 . S
C1553 H1561 0.960 . S
C1554 C1552 1.381 . S
C1554 C1555 1.394 . S
C1554 H1562 0.930 . S
C1555 C1554 1.394 . S
C1555 C1556 1.383 . S
C1555 H1563 0.929 . S
C1556 C1555 1.383 . S
C1556 C1557 1.377 . S
C1557 H1541 0.930 . S
C1557 C1556 1.377 . S
C1557 C1558 1.379 . S
C1558 H1542 0.931 . S
C1558 C1552 1.383 . S
C1558 C1557 1.379 . S
H1559 C1553 0.959 . S
H1560 C1553 0.961 . S
H1561 C1553 0.960 . S
H1562 C1554 0.930 . S
H1563 C1555 0.929 . S
H1564 C1572 0.929 . S
H1565 C1574 0.930 . S
H1566 C1576 0.930 . S
H1567 C1579 0.929 . S
H1568 C1582 0.930 . S
H1569 C1584 0.960 . S
H1570 C1584 0.960 . S
H1571 C1584 0.960 1_556 S
C1572 H1564 0.929 . S
C1572 C1573 1.377 . S
C1572 C1574 1.384 . S
C1573 C1572 1.377 . S
C1573 C1579 1.390 . S
C1574 H1565 0.930 . S
C1574 C1572 1.384 . S
C1574 C1575 1.372 . S
C1575 C1574 1.372 . S
C1575 C1576 1.400 . S
C1575 C1580 1.490 . S
C1576 H1566 0.930 . S
C1576 C1575 1.400 . S
C1576 C1579 1.386 . S
H1577 C1593 0.930 . S
H1578 C1594 0.931 . S
C1579 H1567 0.929 . S
C1579 C1573 1.390 . S
C1579 C1576 1.386 . S
C1580 C1575 1.490 . S
C1580 C1582 1.395 1_545 S
C1580 C1583 1.394 1_556 S
H1581 C1587 0.930 . S
C1582 H1568 0.930 . S
C1582 C1580 1.395 1_565 S
C1582 C1585 1.431 . S
C1583 C1580 1.394 1_554 S
C1583 C1584 1.525 . S
C1583 C1587 1.408 . S
C1584 H1569 0.960 . S
C1584 H1570 0.960 . S
C1584 H1571 0.960 1_554 S
C1584 C1583 1.525 . S
C1585 C1582 1.431 . S
C1585 C1586 1.364 1_556 S
C1585 C1589 1.498 . S
C1586 C1585 1.364 1_554 S
C1586 C1587 1.385 1_565 S
C1586 C1588 1.478 . S
C1587 H1581 0.930 . S
C1587 C1583 1.408 . S
C1587 C1586 1.385 1_545 S
C1588 C1586 1.478 . S
C1588 C1590 1.381 . S
C1588 C1594 1.383 . S
C1589 C1585 1.498 . S
C1589 H1595 0.959 . S
C1589 H1596 0.961 . S
C1589 H1597 0.960 1_556 S
C1590 C1588 1.381 . S
C1590 C1591 1.394 . S
C1590 H1598 0.930 . S
C1591 C1590 1.394 . S
C1591 C1592 1.383 . S
C1591 H1599 0.929 . S
C1592 C1591 1.383 . S
C1592 C1593 1.377 . S
C1593 H1577 0.930 . S
C1593 C1592 1.377 . S
C1593 C1594 1.379 . S
C1594 H1578 0.931 . S
C1594 C1588 1.383 . S
C1594 C1593 1.379 . S
H1595 C1589 0.959 . S
H1596 C1589 0.961 . S
H1597 C1589 0.960 1_554 S
H1598 C1590 0.930 . S
H1599 C1591 0.929 . S
H1600 C1608 0.929 . S
H1601 C1610 0.930 . S
H1602 C1612 0.930 . S
H1603 C1615 0.929 . S
H1604 C1618 0.930 . S
H1605 C1620 0.960 . S
H1606 C1620 0.960 . S
H1607 C1620 0.960 . S
C1608 H1600 0.929 . S
C1608 C1609 1.377 . S
C1608 C1610 1.384 . S
C1609 C1608 1.377 . S
C1609 C1615 1.390 . S
C1610 H1601 0.930 . S
C1610 C1608 1.384 . S
C1610 C1611 1.372 . S
C1611 C1610 1.372 . S
C1611 C1612 1.400 . S
C1611 C1616 1.490 . S
C1612 H1602 0.930 . S
C1612 C1611 1.400 . S
C1612 C1615 1.386 . S
H1613 C1629 0.930 . S
H1614 C1630 0.931 . S
C1615 H1603 0.929 . S
C1615 C1609 1.390 . S
C1615 C1612 1.386 . S
C1616 C1611 1.490 . S
C1616 C1618 1.395 . S
C1616 C1619 1.403 . S
H1617 C1623 0.930 . S
C1618 H1604 0.930 . S
C1618 C1616 1.395 . S
C1618 C1621 1.403 . S
C1619 C1616 1.403 . S
C1619 C1620 1.524 . S
C1619 C1623 1.400 . S
C1620 H1605 0.960 . S
C1620 H1606 0.960 . S
C1620 H1607 0.960 . S
C1620 C1619 1.524 . S
C1621 C1618 1.403 . S
C1621 C1622 1.392 . S
C1621 C1625 1.495 . S
C1622 C1621 1.392 . S
C1622 C1623 1.385 . S
C1622 C1624 1.478 . S
C1623 H1617 0.930 . S
C1623 C1619 1.400 . S
C1623 C1622 1.385 . S
C1624 C1622 1.478 . S
C1624 C1626 1.381 . S
C1624 C1630 1.383 . S
C1625 C1621 1.495 . S
C1625 H1631 0.959 . S
C1625 H1632 0.961 . S
C1625 H1633 0.960 . S
C1626 C1624 1.381 . S
C1626 C1627 1.394 . S
C1626 H1634 0.930 . S
C1627 C1626 1.394 . S
C1627 C1628 1.383 . S
C1627 H1635 0.929 . S
C1628 C1627 1.383 . S
C1628 C1629 1.377 . S
C1629 H1613 0.930 . S
C1629 C1628 1.377 . S
C1629 C1630 1.379 . S
C1630 H1614 0.931 . S
C1630 C1624 1.383 . S
C1630 C1629 1.379 . S
H1631 C1625 0.959 . S
H1632 C1625 0.961 . S
H1633 C1625 0.960 . S
H1634 C1626 0.930 . S
H1635 C1627 0.929 . S
H1636 C1644 0.929 . S
H1637 C1646 0.930 . S
H1638 C1648 0.930 . S
H1639 C1651 0.929 . S
H1640 C1654 0.930 . S
H1641 C1656 0.960 . S
H1642 C1656 0.960 . S
H1643 C1656 0.960 . S
C1644 H1636 0.929 . S
C1644 C1645 1.377 . S
C1644 C1646 1.384 . S
C1645 C1644 1.377 . S
C1645 C1651 1.390 . S
C1646 H1637 0.930 . S
C1646 C1644 1.384 . S
C1646 C1647 1.372 . S
C1647 C1646 1.372 . S
C1647 C1648 1.400 . S
C1647 C1652 1.490 . S
C1648 H1638 0.930 . S
C1648 C1647 1.400 . S
C1648 C1651 1.386 . S
H1649 C1665 0.930 . S
H1650 C1666 0.931 . S
C1651 H1639 0.929 . S
C1651 C1645 1.390 . S
C1651 C1648 1.386 . S
C1652 C1647 1.490 . S
C1652 C1654 1.395 . S
C1652 C1655 1.403 . S
H1653 C1659 0.930 . S
C1654 H1640 0.930 . S
C1654 C1652 1.395 . S
C1654 C1657 1.403 . S
C1655 C1652 1.403 . S
C1655 C1656 1.524 . S
C1655 C1659 1.400 . S
C1656 H1641 0.960 . S
C1656 H1642 0.960 . S
C1656 H1643 0.960 . S
C1656 C1655 1.524 . S
C1657 C1654 1.403 . S
C1657 C1658 1.392 . S
C1657 C1661 1.495 . S
C1658 C1657 1.392 . S
C1658 C1659 1.385 . S
C1658 C1660 1.478 . S
C1659 H1653 0.930 . S
C1659 C1655 1.400 . S
C1659 C1658 1.385 . S
C1660 C1658 1.478 . S
C1660 C1662 1.381 . S
C1660 C1666 1.383 . S
C1661 C1657 1.495 . S
C1661 H1667 0.959 . S
C1661 H1668 0.961 . S
C1661 H1669 0.960 . S
C1662 C1660 1.381 . S
C1662 C1663 1.394 . S
C1662 H1670 0.930 . S
C1663 C1662 1.394 . S
C1663 C1664 1.383 . S
C1663 H1671 0.929 . S
C1664 C1663 1.383 . S
C1664 C1665 1.377 . S
C1665 H1649 0.930 . S
C1665 C1664 1.377 . S
C1665 C1666 1.379 . S
C1666 H1650 0.931 . S
C1666 C1660 1.383 . S
C1666 C1665 1.379 . S
H1667 C1661 0.959 . S
H1668 C1661 0.961 . S
H1669 C1661 0.960 . S
H1670 C1662 0.930 . S
H1671 C1663 0.929 . S
H1672 C1680 0.929 . S
H1673 C1682 0.930 . S
H1674 C1684 0.930 . S
H1675 C1687 0.929 . S
H1676 C1690 0.930 . S
H1677 C1692 0.960 . S
H1678 C1692 0.960 . S
H1679 C1692 0.960 . S
C1680 H1672 0.929 . S
C1680 C1681 1.377 . S
C1680 C1682 1.384 . S
C1681 C1680 1.377 . S
C1681 C1687 1.390 . S
C1682 H1673 0.930 . S
C1682 C1680 1.384 . S
C1682 C1683 1.372 . S
C1683 C1682 1.372 . S
C1683 C1684 1.400 . S
C1683 C1688 1.490 . S
C1684 H1674 0.930 . S
C1684 C1683 1.400 . S
C1684 C1687 1.386 . S
H1685 C1701 0.930 . S
H1686 C1702 0.931 . S
C1687 H1675 0.929 . S
C1687 C1681 1.390 . S
C1687 C1684 1.386 . S
C1688 C1683 1.490 . S
C1688 C1690 1.395 . S
C1688 C1691 1.403 . S
H1689 C1695 0.930 . S
C1690 H1676 0.930 . S
C1690 C1688 1.395 . S
C1690 C1693 1.403 . S
C1691 C1688 1.403 . S
C1691 C1692 1.524 . S
C1691 C1695 1.400 . S
C1692 H1677 0.960 . S
C1692 H1678 0.960 . S
C1692 H1679 0.960 . S
C1692 C1691 1.524 . S
C1693 C1690 1.403 . S
C1693 C1694 1.392 . S
C1693 C1697 1.495 . S
C1694 C1693 1.392 . S
C1694 C1695 1.385 . S
C1694 C1696 1.478 . S
C1695 H1689 0.930 . S
C1695 C1691 1.400 . S
C1695 C1694 1.385 . S
C1696 C1694 1.478 . S
C1696 C1698 1.381 . S
C1696 C1702 1.383 . S
C1697 C1693 1.495 . S
C1697 H1703 0.959 . S
C1697 H1704 0.961 . S
C1697 H1705 0.960 . S
C1698 C1696 1.381 . S
C1698 C1699 1.394 . S
C1698 H1706 0.930 . S
C1699 C1698 1.394 . S
C1699 C1700 1.383 . S
C1699 H1707 0.929 . S
C1700 C1699 1.383 . S
C1700 C1701 1.377 . S
C1701 H1685 0.930 . S
C1701 C1700 1.377 . S
C1701 C1702 1.379 . S
C1702 H1686 0.931 . S
C1702 C1696 1.383 . S
C1702 C1701 1.379 . S
H1703 C1697 0.959 . S
H1704 C1697 0.961 . S
H1705 C1697 0.960 . S
H1706 C1698 0.930 . S
H1707 C1699 0.929 . S
H1708 C1716 0.929 . S
H1709 C1718 0.930 . S
H1710 C1720 0.930 . S
H1711 C1723 0.929 . S
H1712 C1726 0.930 . S
H1713 C1728 0.960 . S
H1714 C1728 0.960 . S
H1715 C1728 0.960 . S
C1716 H1708 0.929 . S
C1716 C1717 1.377 . S
C1716 C1718 1.384 . S
C1717 C1716 1.377 . S
C1717 C1723 1.390 . S
C1718 H1709 0.930 . S
C1718 C1716 1.384 . S
C1718 C1719 1.372 . S
C1719 C1718 1.372 . S
C1719 C1720 1.400 . S
C1719 C1724 1.490 . S
C1720 H1710 0.930 . S
C1720 C1719 1.400 . S
C1720 C1723 1.386 . S
H1721 C1737 0.930 . S
H1722 C1738 0.931 . S
C1723 H1711 0.929 . S
C1723 C1717 1.390 . S
C1723 C1720 1.386 . S
C1724 C1719 1.490 . S
C1724 C1726 1.395 . S
C1724 C1727 1.403 . S
H1725 C1731 0.930 . S
C1726 H1712 0.930 . S
C1726 C1724 1.395 . S
C1726 C1729 1.403 . S
C1727 C1724 1.403 . S
C1727 C1728 1.524 . S
C1727 C1731 1.400 . S
C1728 H1713 0.960 . S
C1728 H1714 0.960 . S
C1728 H1715 0.960 . S
C1728 C1727 1.524 . S
C1729 C1726 1.403 . S
C1729 C1730 1.392 . S
C1729 C1733 1.495 . S
C1730 C1729 1.392 . S
C1730 C1731 1.385 . S
C1730 C1732 1.478 . S
C1731 H1725 0.930 . S
C1731 C1727 1.400 . S
C1731 C1730 1.385 . S
C1732 C1730 1.478 . S
C1732 C1734 1.381 . S
C1732 C1738 1.383 . S
C1733 C1729 1.495 . S
C1733 H1739 0.959 . S
C1733 H1740 0.961 . S
C1733 H1741 0.960 . S
C1734 C1732 1.381 . S
C1734 C1735 1.394 . S
C1734 H1742 0.930 . S
C1735 C1734 1.394 . S
C1735 C1736 1.383 . S
C1735 H1743 0.929 . S
C1736 C1735 1.383 . S
C1736 C1737 1.377 . S
C1737 H1721 0.930 . S
C1737 C1736 1.377 . S
C1737 C1738 1.379 . S
C1738 H1722 0.931 . S
C1738 C1732 1.383 . S
C1738 C1737 1.379 . S
H1739 C1733 0.959 . S
H1740 C1733 0.961 . S
H1741 C1733 0.960 . S
H1742 C1734 0.930 . S
H1743 C1735 0.929 . S
H1744 C1752 0.929 . S
H1745 C1754 0.930 . S
H1746 C1756 0.930 . S
H1747 C1759 0.929 . S
H1748 C1762 0.930 . S
H1749 C1764 0.960 . S
H1750 C1764 0.960 . S
H1751 C1764 0.960 . S
C1752 H1744 0.929 . S
C1752 C1753 1.377 . S
C1752 C1754 1.384 . S
C1753 C1752 1.377 . S
C1753 C1759 1.390 . S
C1754 H1745 0.930 . S
C1754 C1752 1.384 . S
C1754 C1755 1.372 . S
C1755 C1754 1.372 . S
C1755 C1756 1.400 . S
C1755 C1760 1.490 . S
C1756 H1746 0.930 . S
C1756 C1755 1.400 . S
C1756 C1759 1.386 . S
H1757 C1773 0.930 . S
H1758 C1774 0.931 . S
C1759 H1747 0.929 . S
C1759 C1753 1.390 . S
C1759 C1756 1.386 . S
C1760 C1755 1.490 . S
C1760 C1762 1.395 . S
C1760 C1763 1.403 . S
H1761 C1767 0.930 . S
C1762 H1748 0.930 . S
C1762 C1760 1.395 . S
C1762 C1765 1.403 . S
C1763 C1760 1.403 . S
C1763 C1764 1.524 . S
C1763 C1767 1.400 . S
C1764 H1749 0.960 . S
C1764 H1750 0.960 . S
C1764 H1751 0.960 . S
C1764 C1763 1.524 . S
C1765 C1762 1.403 . S
C1765 C1766 1.392 . S
C1765 C1769 1.495 . S
C1766 C1765 1.392 . S
C1766 C1767 1.385 . S
C1766 C1768 1.478 . S
C1767 H1761 0.930 . S
C1767 C1763 1.400 . S
C1767 C1766 1.385 . S
C1768 C1766 1.478 . S
C1768 C1770 1.381 . S
C1768 C1774 1.383 . S
C1769 C1765 1.495 . S
C1769 H1775 0.959 . S
C1769 H1776 0.961 . S
C1769 H1777 0.960 . S
C1770 C1768 1.381 . S
C1770 C1771 1.394 . S
C1770 H1778 0.930 . S
C1771 C1770 1.394 . S
C1771 C1772 1.383 . S
C1771 H1779 0.929 . S
C1772 C1771 1.383 . S
C1772 C1773 1.377 . S
C1773 H1757 0.930 . S
C1773 C1772 1.377 . S
C1773 C1774 1.379 . S
C1774 H1758 0.931 . S
C1774 C1768 1.383 . S
C1774 C1773 1.379 . S
H1775 C1769 0.959 . S
H1776 C1769 0.961 . S
H1777 C1769 0.960 . S
H1778 C1770 0.930 . S
H1779 C1771 0.929 . S
H1780 C1788 0.929 . S
H1781 C1790 0.930 . S
H1782 C1792 0.930 . S
H1783 C1795 0.929 . S
H1784 C1798 0.930 . S
H1785 C1800 0.960 . S
H1786 C1800 0.960 . S
H1787 C1800 0.960 . S
C1788 H1780 0.929 . S
C1788 C1789 1.377 . S
C1788 C1790 1.384 . S
C1789 C1788 1.377 . S
C1789 C1795 1.390 . S
C1790 H1781 0.930 . S
C1790 C1788 1.384 . S
C1790 C1791 1.372 . S
C1791 C1790 1.372 . S
C1791 C1792 1.400 . S
C1791 C1796 1.490 . S
C1792 H1782 0.930 . S
C1792 C1791 1.400 . S
C1792 C1795 1.386 . S
H1793 C1809 0.930 . S
H1794 C1810 0.931 . S
C1795 H1783 0.929 . S
C1795 C1789 1.390 . S
C1795 C1792 1.386 . S
C1796 C1791 1.490 . S
C1796 C1798 1.395 . S
C1796 C1799 1.403 . S
H1797 C1803 0.930 . S
C1798 H1784 0.930 . S
C1798 C1796 1.395 . S
C1798 C1801 1.403 . S
C1799 C1796 1.403 . S
C1799 C1800 1.524 . S
C1799 C1803 1.400 . S
C1800 H1785 0.960 . S
C1800 H1786 0.960 . S
C1800 H1787 0.960 . S
C1800 C1799 1.524 . S
C1801 C1798 1.403 . S
C1801 C1802 1.392 . S
C1801 C1805 1.495 . S
C1802 C1801 1.392 . S
C1802 C1803 1.385 . S
C1802 C1804 1.478 . S
C1803 H1797 0.930 . S
C1803 C1799 1.400 . S
C1803 C1802 1.385 . S
C1804 C1802 1.478 . S
C1804 C1806 1.381 . S
C1804 C1810 1.383 . S
C1805 C1801 1.495 . S
C1805 H1811 0.959 . S
C1805 H1812 0.961 . S
C1805 H1813 0.960 . S
C1806 C1804 1.381 . S
C1806 C1807 1.394 . S
C1806 H1814 0.930 . S
C1807 C1806 1.394 . S
C1807 C1808 1.383 . S
C1807 H1815 0.929 . S
C1808 C1807 1.383 . S
C1808 C1809 1.377 . S
C1809 H1793 0.930 . S
C1809 C1808 1.377 . S
C1809 C1810 1.379 . S
C1810 H1794 0.931 . S
C1810 C1804 1.383 . S
C1810 C1809 1.379 . S
H1811 C1805 0.959 . S
H1812 C1805 0.961 . S
H1813 C1805 0.960 . S
H1814 C1806 0.930 . S
H1815 C1807 0.929 . S
H1816 C1824 0.929 . S
H1817 C1826 0.930 . S
H1818 C1828 0.930 . S
H1819 C1831 0.929 . S
H1820 C1834 0.930 . S
H1821 C1836 0.960 . S
H1822 C1836 0.960 . S
H1823 C1836 0.960 . S
C1824 H1816 0.929 . S
C1824 C1825 1.377 . S
C1824 C1826 1.384 . S
C1825 C1824 1.377 . S
C1825 C1831 1.390 . S
C1826 H1817 0.930 . S
C1826 C1824 1.384 . S
C1826 C1827 1.372 . S
C1827 C1826 1.372 . S
C1827 C1828 1.400 . S
C1827 C1832 1.490 . S
C1828 H1818 0.930 . S
C1828 C1827 1.400 . S
C1828 C1831 1.386 . S
H1829 C1845 0.930 . S
H1830 C1846 0.931 . S
C1831 H1819 0.929 . S
C1831 C1825 1.390 . S
C1831 C1828 1.386 . S
C1832 C1827 1.490 . S
C1832 C1834 1.395 . S
C1832 C1835 1.403 . S
H1833 C1839 0.930 . S
C1834 H1820 0.930 . S
C1834 C1832 1.395 . S
C1834 C1837 1.403 . S
C1835 C1832 1.403 . S
C1835 C1836 1.524 . S
C1835 C1839 1.400 . S
C1836 H1821 0.960 . S
C1836 H1822 0.960 . S
C1836 H1823 0.960 . S
C1836 C1835 1.524 . S
C1837 C1834 1.403 . S
C1837 C1838 1.392 . S
C1837 C1841 1.495 . S
C1838 C1837 1.392 . S
C1838 C1839 1.385 . S
C1838 C1840 1.478 . S
C1839 H1833 0.930 . S
C1839 C1835 1.400 . S
C1839 C1838 1.385 . S
C1840 C1838 1.478 . S
C1840 C1842 1.381 . S
C1840 C1846 1.383 . S
C1841 C1837 1.495 . S
C1841 H1847 0.959 . S
C1841 H1848 0.961 . S
C1841 H1849 0.960 . S
C1842 C1840 1.381 . S
C1842 C1843 1.394 . S
C1842 H1850 0.930 . S
C1843 C1842 1.394 . S
C1843 C1844 1.383 . S
C1843 H1851 0.929 . S
C1844 C1843 1.383 . S
C1844 C1845 1.377 . S
C1845 H1829 0.930 . S
C1845 C1844 1.377 . S
C1845 C1846 1.379 . S
C1846 H1830 0.931 . S
C1846 C1840 1.383 . S
C1846 C1845 1.379 . S
H1847 C1841 0.959 . S
H1848 C1841 0.961 . S
H1849 C1841 0.960 . S
H1850 C1842 0.930 . S
H1851 C1843 0.929 . S
H1852 C1860 0.929 . S
H1853 C1862 0.930 . S
H1854 C1864 0.930 . S
H1855 C1867 0.929 . S
H1856 C1870 0.930 . S
H1857 C1872 0.960 . S
H1858 C1872 0.960 . S
H1859 C1872 0.960 . S
C1860 H1852 0.929 . S
C1860 C1861 1.377 . S
C1860 C1862 1.384 . S
C1861 C1860 1.377 . S
C1861 C1867 1.390 . S
C1862 H1853 0.930 . S
C1862 C1860 1.384 . S
C1862 C1863 1.372 . S
C1863 C1862 1.372 . S
C1863 C1864 1.400 . S
C1863 C1868 1.490 . S
C1864 H1854 0.930 . S
C1864 C1863 1.400 . S
C1864 C1867 1.386 . S
H1865 C1881 0.930 . S
H1866 C1882 0.931 . S
C1867 H1855 0.929 . S
C1867 C1861 1.390 . S
C1867 C1864 1.386 . S
C1868 C1863 1.490 . S
C1868 C1870 1.395 . S
C1868 C1871 1.403 . S
H1869 C1875 0.930 . S
C1870 H1856 0.930 . S
C1870 C1868 1.395 . S
C1870 C1873 1.403 . S
C1871 C1868 1.403 . S
C1871 C1872 1.524 . S
C1871 C1875 1.400 . S
C1872 H1857 0.960 . S
C1872 H1858 0.960 . S
C1872 H1859 0.960 . S
C1872 C1871 1.524 . S
C1873 C1870 1.403 . S
C1873 C1874 1.392 . S
C1873 C1877 1.495 . S
C1874 C1873 1.392 . S
C1874 C1875 1.385 . S
C1874 C1876 1.478 . S
C1875 H1869 0.930 . S
C1875 C1871 1.400 . S
C1875 C1874 1.385 . S
C1876 C1874 1.478 . S
C1876 C1878 1.381 . S
C1876 C1882 1.383 . S
C1877 C1873 1.495 . S
C1877 H1883 0.959 . S
C1877 H1884 0.961 . S
C1877 H1885 0.960 . S
C1878 C1876 1.381 . S
C1878 C1879 1.394 . S
C1878 H1886 0.930 . S
C1879 C1878 1.394 . S
C1879 C1880 1.383 . S
C1879 H1887 0.929 . S
C1880 C1879 1.383 . S
C1880 C1881 1.377 . S
C1881 H1865 0.930 . S
C1881 C1880 1.377 . S
C1881 C1882 1.379 . S
C1882 H1866 0.931 . S
C1882 C1876 1.383 . S
C1882 C1881 1.379 . S
H1883 C1877 0.959 . S
H1884 C1877 0.961 . S
H1885 C1877 0.960 . S
H1886 C1878 0.930 . S
H1887 C1879 0.929 . S
H1888 C1896 0.929 . S
H1889 C1898 0.930 . S
H1890 C1900 0.930 . S
H1891 C1903 0.929 . S
H1892 C1906 0.930 . S
H1893 C1908 0.960 . S
H1894 C1908 0.960 . S
H1895 C1908 0.960 . S
C1896 H1888 0.929 . S
C1896 C1897 1.377 . S
C1896 C1898 1.384 . S
C1897 C1896 1.377 . S
C1897 C1903 1.390 . S
C1898 H1889 0.930 . S
C1898 C1896 1.384 . S
C1898 C1899 1.372 . S
C1899 C1898 1.372 . S
C1899 C1900 1.400 . S
C1899 C1904 1.490 . S
C1900 H1890 0.930 . S
C1900 C1899 1.400 . S
C1900 C1903 1.386 . S
H1901 C1917 0.930 . S
H1902 C1918 0.931 . S
C1903 H1891 0.929 . S
C1903 C1897 1.390 . S
C1903 C1900 1.386 . S
C1904 C1899 1.490 . S
C1904 C1906 1.395 . S
C1904 C1907 1.403 . S
H1905 C1911 0.930 . S
C1906 H1892 0.930 . S
C1906 C1904 1.395 . S
C1906 C1909 1.403 . S
C1907 C1904 1.403 . S
C1907 C1908 1.524 . S
C1907 C1911 1.400 . S
C1908 H1893 0.960 . S
C1908 H1894 0.960 . S
C1908 H1895 0.960 . S
C1908 C1907 1.524 . S
C1909 C1906 1.403 . S
C1909 C1910 1.392 . S
C1909 C1913 1.495 . S
C1910 C1909 1.392 . S
C1910 C1911 1.385 . S
C1910 C1912 1.478 . S
C1911 H1905 0.930 . S
C1911 C1907 1.400 . S
C1911 C1910 1.385 . S
C1912 C1910 1.478 . S
C1912 C1914 1.381 . S
C1912 C1918 1.383 . S
C1913 C1909 1.495 . S
C1913 H1919 0.959 . S
C1913 H1920 0.961 . S
C1913 H1921 0.960 . S
C1914 C1912 1.381 . S
C1914 C1915 1.394 . S
C1914 H1922 0.930 . S
C1915 C1914 1.394 . S
C1915 C1916 1.383 . S
C1915 H1923 0.929 . S
C1916 C1915 1.383 . S
C1916 C1917 1.377 . S
C1917 H1901 0.930 . S
C1917 C1916 1.377 . S
C1917 C1918 1.379 . S
C1918 H1902 0.931 . S
C1918 C1912 1.383 . S
C1918 C1917 1.379 . S
H1919 C1913 0.959 . S
H1920 C1913 0.961 . S
H1921 C1913 0.960 . S
H1922 C1914 0.930 . S
H1923 C1915 0.929 . S
H1924 C1932 0.929 . S
H1925 C1934 0.930 . S
H1926 C1936 0.930 . S
H1927 C1939 0.929 . S
H1928 C1942 0.930 . S
H1929 C1944 0.960 . S
H1930 C1944 0.960 . S
H1931 C1944 0.960 . S
C1932 H1924 0.929 . S
C1932 C1933 1.377 . S
C1932 C1934 1.384 . S
C1933 C1932 1.377 . S
C1933 C1939 1.390 . S
C1934 H1925 0.930 . S
C1934 C1932 1.384 . S
C1934 C1935 1.372 . S
C1935 C1934 1.372 . S
C1935 C1936 1.400 . S
C1935 C1940 1.490 . S
C1936 H1926 0.930 . S
C1936 C1935 1.400 . S
C1936 C1939 1.386 . S
H1937 C1953 0.930 . S
H1938 C1954 0.931 . S
C1939 H1927 0.929 . S
C1939 C1933 1.390 . S
C1939 C1936 1.386 . S
C1940 C1935 1.490 . S
C1940 C1942 1.395 . S
C1940 C1943 1.403 . S
H1941 C1947 0.930 . S
C1942 H1928 0.930 . S
C1942 C1940 1.395 . S
C1942 C1945 1.403 . S
C1943 C1940 1.403 . S
C1943 C1944 1.524 . S
C1943 C1947 1.400 . S
C1944 H1929 0.960 . S
C1944 H1930 0.960 . S
C1944 H1931 0.960 . S
C1944 C1943 1.524 . S
C1945 C1942 1.403 . S
C1945 C1946 1.392 . S
C1945 C1949 1.495 . S
C1946 C1945 1.392 . S
C1946 C1947 1.385 . S
C1946 C1948 1.478 . S
C1947 H1941 0.930 . S
C1947 C1943 1.400 . S
C1947 C1946 1.385 . S
C1948 C1946 1.478 . S
C1948 C1950 1.381 . S
C1948 C1954 1.383 . S
C1949 C1945 1.495 . S
C1949 H1955 0.959 . S
C1949 H1956 0.961 . S
C1949 H1957 0.960 . S
C1950 C1948 1.381 . S
C1950 C1951 1.394 . S
C1950 H1958 0.930 . S
C1951 C1950 1.394 . S
C1951 C1952 1.383 . S
C1951 H1959 0.929 . S
C1952 C1951 1.383 . S
C1952 C1953 1.377 . S
C1953 H1937 0.930 . S
C1953 C1952 1.377 . S
C1953 C1954 1.379 . S
C1954 H1938 0.931 . S
C1954 C1948 1.383 . S
C1954 C1953 1.379 . S
H1955 C1949 0.959 . S
H1956 C1949 0.961 . S
H1957 C1949 0.960 . S
H1958 C1950 0.930 . S
H1959 C1951 0.929 . S
H1960 C1968 0.929 . S
H1961 C1970 0.930 . S
H1962 C1972 0.930 . S
H1963 C1975 0.929 . S
H1964 C1978 0.930 . S
H1965 C1980 0.960 . S
H1966 C1980 0.960 . S
H1967 C1980 0.960 . S
C1968 H1960 0.929 . S
C1968 C1969 1.377 . S
C1968 C1970 1.384 . S
C1969 C1968 1.377 . S
C1969 C1975 1.390 . S
C1970 H1961 0.930 . S
C1970 C1968 1.384 . S
C1970 C1971 1.372 . S
C1971 C1970 1.372 . S
C1971 C1972 1.400 . S
C1971 C1976 1.490 . S
C1972 H1962 0.930 . S
C1972 C1971 1.400 . S
C1972 C1975 1.386 . S
H1973 C1989 0.930 . S
H1974 C1990 0.931 . S
C1975 H1963 0.929 . S
C1975 C1969 1.390 . S
C1975 C1972 1.386 . S
C1976 C1971 1.490 . S
C1976 C1978 1.395 . S
C1976 C1979 1.403 . S
H1977 C1983 0.930 . S
C1978 H1964 0.930 . S
C1978 C1976 1.395 . S
C1978 C1981 1.403 . S
C1979 C1976 1.403 . S
C1979 C1980 1.524 . S
C1979 C1983 1.400 . S
C1980 H1965 0.960 . S
C1980 H1966 0.960 . S
C1980 H1967 0.960 . S
C1980 C1979 1.524 . S
C1981 C1978 1.403 . S
C1981 C1982 1.392 . S
C1981 C1985 1.495 . S
C1982 C1981 1.392 . S
C1982 C1983 1.385 . S
C1982 C1984 1.478 . S
C1983 H1977 0.930 . S
C1983 C1979 1.400 . S
C1983 C1982 1.385 . S
C1984 C1982 1.478 . S
C1984 C1986 1.381 . S
C1984 C1990 1.383 . S
C1985 C1981 1.495 . S
C1985 H1991 0.959 . S
C1985 H1992 0.961 . S
C1985 H1993 0.960 . S
C1986 C1984 1.381 . S
C1986 C1987 1.394 . S
C1986 H1994 0.930 . S
C1987 C1986 1.394 . S
C1987 C1988 1.383 . S
C1987 H1995 0.929 . S
C1988 C1987 1.383 . S
C1988 C1989 1.377 . S
C1989 H1973 0.930 . S
C1989 C1988 1.377 . S
C1989 C1990 1.379 . S
C1990 H1974 0.931 . S
C1990 C1984 1.383 . S
C1990 C1989 1.379 . S
H1991 C1985 0.959 . S
H1992 C1985 0.961 . S
H1993 C1985 0.960 . S
H1994 C1986 0.930 . S
H1995 C1987 0.929 . S
H1996 C2004 0.929 . S
H1997 C2006 0.930 . S
H1998 C2008 0.930 . S
H1999 C2011 0.929 . S
H2000 C2014 0.930 . S
H2001 C2016 0.960 . S
H2002 C2016 0.960 . S
H2003 C2016 0.960 . S
C2004 H1996 0.929 . S
C2004 C2005 1.377 . S
C2004 C2006 1.384 . S
C2005 C2004 1.377 . S
C2005 C2011 1.390 . S
C2006 H1997 0.930 . S
C2006 C2004 1.384 . S
C2006 C2007 1.372 . S
C2007 C2006 1.372 . S
C2007 C2008 1.400 . S
C2007 C2012 1.490 . S
C2008 H1998 0.930 . S
C2008 C2007 1.400 . S
C2008 C2011 1.386 . S
H2009 C2025 0.930 . S
H2010 C2026 0.931 . S
C2011 H1999 0.929 . S
C2011 C2005 1.390 . S
C2011 C2008 1.386 . S
C2012 C2007 1.490 . S
C2012 C2014 1.395 . S
C2012 C2015 1.403 . S
H2013 C2019 0.930 . S
C2014 H2000 0.930 . S
C2014 C2012 1.395 . S
C2014 C2017 1.403 . S
C2015 C2012 1.403 . S
C2015 C2016 1.524 . S
C2015 C2019 1.400 . S
C2016 H2001 0.960 . S
C2016 H2002 0.960 . S
C2016 H2003 0.960 . S
C2016 C2015 1.524 . S
C2017 C2014 1.403 . S
C2017 C2018 1.392 . S
C2017 C2021 1.495 . S
C2018 C2017 1.392 . S
C2018 C2019 1.385 . S
C2018 C2020 1.478 . S
C2019 H2013 0.930 . S
C2019 C2015 1.400 . S
C2019 C2018 1.385 . S
C2020 C2018 1.478 . S
C2020 C2022 1.381 . S
C2020 C2026 1.383 . S
C2021 C2017 1.495 . S
C2021 H2027 0.959 . S
C2021 H2028 0.961 . S
C2021 H2029 0.960 . S
C2022 C2020 1.381 . S
C2022 C2023 1.394 . S
C2022 H2030 0.930 . S
C2023 C2022 1.394 . S
C2023 C2024 1.383 . S
C2023 H2031 0.929 . S
C2024 C2023 1.383 . S
C2024 C2025 1.377 . S
C2025 H2009 0.930 . S
C2025 C2024 1.377 . S
C2025 C2026 1.379 . S
C2026 H2010 0.931 . S
C2026 C2020 1.383 . S
C2026 C2025 1.379 . S
H2027 C2021 0.959 . S
H2028 C2021 0.961 . S
H2029 C2021 0.960 . S
H2030 C2022 0.930 . S
H2031 C2023 0.929 . S
H2032 C2040 0.929 . S
H2033 C2042 0.930 . S
H2034 C2044 0.930 . S
H2035 C2047 0.929 . S
H2036 C2050 0.930 . S
H2037 C2052 0.960 . S
H2038 C2052 0.960 . S
H2039 C2052 0.960 . S
C2040 H2032 0.929 . S
C2040 C2041 1.377 . S
C2040 C2042 1.384 . S
C2041 C2040 1.377 . S
C2041 C2047 1.390 . S
C2042 H2033 0.930 . S
C2042 C2040 1.384 . S
C2042 C2043 1.372 . S
C2043 C2042 1.372 . S
C2043 C2044 1.400 . S
C2043 C2048 1.490 . S
C2044 H2034 0.930 . S
C2044 C2043 1.400 . S
C2044 C2047 1.386 . S
H2045 C2061 0.930 . S
H2046 C2062 0.931 . S
C2047 H2035 0.929 . S
C2047 C2041 1.390 . S
C2047 C2044 1.386 . S
C2048 C2043 1.490 . S
C2048 C2050 1.395 . S
C2048 C2051 1.403 . S
H2049 C2055 0.930 . S
C2050 H2036 0.930 . S
C2050 C2048 1.395 . S
C2050 C2053 1.403 . S
C2051 C2048 1.403 . S
C2051 C2052 1.524 . S
C2051 C2055 1.400 . S
C2052 H2037 0.960 . S
C2052 H2038 0.960 . S
C2052 H2039 0.960 . S
C2052 C2051 1.524 . S
C2053 C2050 1.403 . S
C2053 C2054 1.392 . S
C2053 C2057 1.495 . S
C2054 C2053 1.392 . S
C2054 C2055 1.385 . S
C2054 C2056 1.478 . S
C2055 H2049 0.930 . S
C2055 C2051 1.400 . S
C2055 C2054 1.385 . S
C2056 C2054 1.478 . S
C2056 C2058 1.381 . S
C2056 C2062 1.383 . S
C2057 C2053 1.495 . S
C2057 H2063 0.959 . S
C2057 H2064 0.961 . S
C2057 H2065 0.960 . S
C2058 C2056 1.381 . S
C2058 C2059 1.394 . S
C2058 H2066 0.930 . S
C2059 C2058 1.394 . S
C2059 C2060 1.383 . S
C2059 H2067 0.929 . S
C2060 C2059 1.383 . S
C2060 C2061 1.377 . S
C2061 H2045 0.930 . S
C2061 C2060 1.377 . S
C2061 C2062 1.379 . S
C2062 H2046 0.931 . S
C2062 C2056 1.383 . S
C2062 C2061 1.379 . S
H2063 C2057 0.959 . S
H2064 C2057 0.961 . S
H2065 C2057 0.960 . S
H2066 C2058 0.930 . S
H2067 C2059 0.929 . S
H2068 C2076 0.929 . S
H2069 C2078 0.930 . S
H2070 C2080 0.930 . S
H2071 C2083 0.929 . S
H2072 C2086 0.930 . S
H2073 C2088 0.960 . S
H2074 C2088 0.960 . S
H2075 C2088 0.960 . S
C2076 H2068 0.929 . S
C2076 C2077 1.377 . S
C2076 C2078 1.384 . S
C2077 C2076 1.377 . S
C2077 C2083 1.390 . S
C2078 H2069 0.930 . S
C2078 C2076 1.384 . S
C2078 C2079 1.372 . S
C2079 C2078 1.372 . S
C2079 C2080 1.400 . S
C2079 C2084 1.490 . S
C2080 H2070 0.930 . S
C2080 C2079 1.400 . S
C2080 C2083 1.386 . S
H2081 C2097 0.930 . S
H2082 C2098 0.931 . S
C2083 H2071 0.929 . S
C2083 C2077 1.390 . S
C2083 C2080 1.386 . S
C2084 C2079 1.490 . S
C2084 C2086 1.395 . S
C2084 C2087 1.403 . S
H2085 C2091 0.930 . S
C2086 H2072 0.930 . S
C2086 C2084 1.395 . S
C2086 C2089 1.403 . S
C2087 C2084 1.403 . S
C2087 C2088 1.524 . S
C2087 C2091 1.400 . S
C2088 H2073 0.960 . S
C2088 H2074 0.960 . S
C2088 H2075 0.960 . S
C2088 C2087 1.524 . S
C2089 C2086 1.403 . S
C2089 C2090 1.392 . S
C2089 C2093 1.495 . S
C2090 C2089 1.392 . S
C2090 C2091 1.385 . S
C2090 C2092 1.478 . S
C2091 H2085 0.930 . S
C2091 C2087 1.400 . S
C2091 C2090 1.385 . S
C2092 C2090 1.478 . S
C2092 C2094 1.381 . S
C2092 C2098 1.383 . S
C2093 C2089 1.495 . S
C2093 H2099 0.959 . S
C2093 H2100 0.961 . S
C2093 H2101 0.960 . S
C2094 C2092 1.381 . S
C2094 C2095 1.394 . S
C2094 H2102 0.930 . S
C2095 C2094 1.394 . S
C2095 C2096 1.383 . S
C2095 H2103 0.929 . S
C2096 C2095 1.383 . S
C2096 C2097 1.377 . S
C2097 H2081 0.930 . S
C2097 C2096 1.377 . S
C2097 C2098 1.379 . S
C2098 H2082 0.931 . S
C2098 C2092 1.383 . S
C2098 C2097 1.379 . S
H2099 C2093 0.959 . S
H2100 C2093 0.961 . S
H2101 C2093 0.960 . S
H2102 C2094 0.930 . S
H2103 C2095 0.929 . S
H2104 C2112 0.929 . S
H2105 C2114 0.930 . S
H2106 C2116 0.930 . S
H2107 C2119 0.929 . S
H2108 C2122 0.930 . S
H2109 C2124 0.960 . S
H2110 C2124 0.960 . S
H2111 C2124 0.960 . S
C2112 H2104 0.929 . S
C2112 C2113 1.377 . S
C2112 C2114 1.384 . S
C2113 C2112 1.377 . S
C2113 C2119 1.390 . S
C2114 H2105 0.930 . S
C2114 C2112 1.384 . S
C2114 C2115 1.372 . S
C2115 C2114 1.372 . S
C2115 C2116 1.400 . S
C2115 C2120 1.490 . S
C2116 H2106 0.930 . S
C2116 C2115 1.400 . S
C2116 C2119 1.386 . S
H2117 C2133 0.930 . S
H2118 C2134 0.931 . S
C2119 H2107 0.929 . S
C2119 C2113 1.390 . S
C2119 C2116 1.386 . S
C2120 C2115 1.490 . S
C2120 C2122 1.395 . S
C2120 C2123 1.403 . S
H2121 C2127 0.930 . S
C2122 H2108 0.930 . S
C2122 C2120 1.395 . S
C2122 C2125 1.403 . S
C2123 C2120 1.403 . S
C2123 C2124 1.524 . S
C2123 C2127 1.400 . S
C2124 H2109 0.960 . S
C2124 H2110 0.960 . S
C2124 H2111 0.960 . S
C2124 C2123 1.524 . S
C2125 C2122 1.403 . S
C2125 C2126 1.392 . S
C2125 C2129 1.495 . S
C2126 C2125 1.392 . S
C2126 C2127 1.385 . S
C2126 C2128 1.478 . S
C2127 H2121 0.930 . S
C2127 C2123 1.400 . S
C2127 C2126 1.385 . S
C2128 C2126 1.478 . S
C2128 C2130 1.381 . S
C2128 C2134 1.383 . S
C2129 C2125 1.495 . S
C2129 H2135 0.959 . S
C2129 H2136 0.961 . S
C2129 H2137 0.960 . S
C2130 C2128 1.381 . S
C2130 C2131 1.394 . S
C2130 H2138 0.930 . S
C2131 C2130 1.394 . S
C2131 C2132 1.383 . S
C2131 H2139 0.929 . S
C2132 C2131 1.383 . S
C2132 C2133 1.377 . S
C2133 H2117 0.930 . S
C2133 C2132 1.377 . S
C2133 C2134 1.379 . S
C2134 H2118 0.931 . S
C2134 C2128 1.383 . S
C2134 C2133 1.379 . S
H2135 C2129 0.959 . S
H2136 C2129 0.961 . S
H2137 C2129 0.960 . S
H2138 C2130 0.930 . S
H2139 C2131 0.929 . S
H2140 C2148 0.929 . S
H2141 C2150 0.930 . S
H2142 C2152 0.930 . S
H2143 C2155 0.929 . S
H2144 C2158 0.930 . S
H2145 C2160 0.960 . S
H2146 C2160 0.960 . S
H2147 C2160 0.960 . S
C2148 H2140 0.929 . S
C2148 C2149 1.377 . S
C2148 C2150 1.384 . S
C2149 C2148 1.377 . S
C2149 C2155 1.390 . S
C2150 H2141 0.930 . S
C2150 C2148 1.384 . S
C2150 C2151 1.372 . S
C2151 C2150 1.372 . S
C2151 C2152 1.400 . S
C2151 C2156 1.490 . S
C2152 H2142 0.930 . S
C2152 C2151 1.400 . S
C2152 C2155 1.386 . S
H2153 C2169 0.930 . S
H2154 C2170 0.931 . S
C2155 H2143 0.929 . S
C2155 C2149 1.390 . S
C2155 C2152 1.386 . S
C2156 C2151 1.490 . S
C2156 C2158 1.395 . S
C2156 C2159 1.403 . S
H2157 C2163 0.930 . S
C2158 H2144 0.930 . S
C2158 C2156 1.395 . S
C2158 C2161 1.403 . S
C2159 C2156 1.403 . S
C2159 C2160 1.524 . S
C2159 C2163 1.400 . S
C2160 H2145 0.960 . S
C2160 H2146 0.960 . S
C2160 H2147 0.960 . S
C2160 C2159 1.524 . S
C2161 C2158 1.403 . S
C2161 C2162 1.392 . S
C2161 C2165 1.495 . S
C2162 C2161 1.392 . S
C2162 C2163 1.385 . S
C2162 C2164 1.478 . S
C2163 H2157 0.930 . S
C2163 C2159 1.400 . S
C2163 C2162 1.385 . S
C2164 C2162 1.478 . S
C2164 C2166 1.381 . S
C2164 C2170 1.383 . S
C2165 C2161 1.495 . S
C2165 H2171 0.959 . S
C2165 H2172 0.961 . S
C2165 H2173 0.960 . S
C2166 C2164 1.381 . S
C2166 C2167 1.394 . S
C2166 H2174 0.930 . S
C2167 C2166 1.394 . S
C2167 C2168 1.383 . S
C2167 H2175 0.929 . S
C2168 C2167 1.383 . S
C2168 C2169 1.377 . S
C2169 H2153 0.930 . S
C2169 C2168 1.377 . S
C2169 C2170 1.379 . S
C2170 H2154 0.931 . S
C2170 C2164 1.383 . S
C2170 C2169 1.379 . S
H2171 C2165 0.959 . S
H2172 C2165 0.961 . S
H2173 C2165 0.960 . S
H2174 C2166 0.930 . S
H2175 C2167 0.929 . S
H2176 C2184 0.929 . S
H2177 C2186 0.930 . S
H2178 C2188 0.930 . S
H2179 C2191 0.929 . S
H2180 C2194 0.930 . S
H2181 C2196 0.960 . S
H2182 C2196 0.960 . S
H2183 C2196 0.960 . S
C2184 H2176 0.929 . S
C2184 C2185 1.377 . S
C2184 C2186 1.384 1_565 S
C2185 C2184 1.377 . S
C2185 C2191 1.390 . S
C2186 H2177 0.930 . S
C2186 C2184 1.384 1_545 S
C2186 C2187 1.372 . S
C2187 C2186 1.372 . S
C2187 C2188 1.400 . S
C2187 C2192 1.490 . S
C2188 H2178 0.930 . S
C2188 C2187 1.400 . S
C2188 C2191 1.386 1_545 S
H2189 C2205 0.930 . S
H2190 C2206 0.931 . S
C2191 H2179 0.929 . S
C2191 C2185 1.390 . S
C2191 C2188 1.386 1_565 S
C2192 C2187 1.490 . S
C2192 C2194 1.395 . S
C2192 C2195 1.403 . S
H2193 C2199 0.930 . S
C2194 H2180 0.930 . S
C2194 C2192 1.395 . S
C2194 C2197 1.403 . S
C2195 C2192 1.403 . S
C2195 C2196 1.524 . S
C2195 C2199 1.400 . S
C2196 H2181 0.960 . S
C2196 H2182 0.960 . S
C2196 H2183 0.960 . S
C2196 C2195 1.524 . S
C2197 C2194 1.403 . S
C2197 C2198 1.392 . S
C2197 C2201 1.495 . S
C2198 C2197 1.392 . S
C2198 C2199 1.385 . S
C2198 C2200 1.478 . S
C2199 H2193 0.930 . S
C2199 C2195 1.400 . S
C2199 C2198 1.385 . S
C2200 C2198 1.478 . S
C2200 C2202 1.381 . S
C2200 C2206 1.383 . S
C2201 C2197 1.495 . S
C2201 H2207 0.959 . S
C2201 H2208 0.961 . S
C2201 H2209 0.960 . S
C2202 C2200 1.381 . S
C2202 C2203 1.394 . S
C2202 H2210 0.930 . S
C2203 C2202 1.394 . S
C2203 C2204 1.383 . S
C2203 H2211 0.929 . S
C2204 C2203 1.383 . S
C2204 C2205 1.377 . S
C2205 H2189 0.930 . S
C2205 C2204 1.377 . S
C2205 C2206 1.379 . S
C2206 H2190 0.931 . S
C2206 C2200 1.383 . S
C2206 C2205 1.379 . S
H2207 C2201 0.959 . S
H2208 C2201 0.961 . S
H2209 C2201 0.960 . S
H2210 C2202 0.930 . S
H2211 C2203 0.929 . S
H2212 C2220 0.929 . S
H2213 C2222 0.930 . S
H2214 C2224 0.930 . S
H2215 C2227 0.929 . S
H2216 C2230 0.930 . S
H2217 C2232 0.960 . S
H2218 C2232 0.960 . S
H2219 C2232 0.960 . S
C2220 H2212 0.929 . S
C2220 C2221 1.377 . S
C2220 C2222 1.384 1_565 S
C2221 C2220 1.377 . S
C2221 C2227 1.390 . S
C2222 H2213 0.930 . S
C2222 C2220 1.384 1_545 S
C2222 C2223 1.372 . S
C2223 C2222 1.372 . S
C2223 C2224 1.400 . S
C2223 C2228 1.490 . S
C2224 H2214 0.930 . S
C2224 C2223 1.400 . S
C2224 C2227 1.386 1_545 S
H2225 C2241 0.930 . S
H2226 C2242 0.931 . S
C2227 H2215 0.929 . S
C2227 C2221 1.390 . S
C2227 C2224 1.386 1_565 S
C2228 C2223 1.490 . S
C2228 C2230 1.395 . S
C2228 C2231 1.403 . S
H2229 C2235 0.930 . S
C2230 H2216 0.930 . S
C2230 C2228 1.395 . S
C2230 C2233 1.403 . S
C2231 C2228 1.403 . S
C2231 C2232 1.524 . S
C2231 C2235 1.400 . S
C2232 H2217 0.960 . S
C2232 H2218 0.960 . S
C2232 H2219 0.960 . S
C2232 C2231 1.524 . S
C2233 C2230 1.403 . S
C2233 C2234 1.392 . S
C2233 C2237 1.495 . S
C2234 C2233 1.392 . S
C2234 C2235 1.385 . S
C2234 C2236 1.478 . S
C2235 H2229 0.930 . S
C2235 C2231 1.400 . S
C2235 C2234 1.385 . S
C2236 C2234 1.478 . S
C2236 C2238 1.381 . S
C2236 C2242 1.383 . S
C2237 C2233 1.495 . S
C2237 H2243 0.959 . S
C2237 H2244 0.961 . S
C2237 H2245 0.960 . S
C2238 C2236 1.381 . S
C2238 C2239 1.394 . S
C2238 H2246 0.930 . S
C2239 C2238 1.394 . S
C2239 C2240 1.383 . S
C2239 H2247 0.929 . S
C2240 C2239 1.383 . S
C2240 C2241 1.377 . S
C2241 H2225 0.930 . S
C2241 C2240 1.377 . S
C2241 C2242 1.379 . S
C2242 H2226 0.931 . S
C2242 C2236 1.383 . S
C2242 C2241 1.379 . S
H2243 C2237 0.959 . S
H2244 C2237 0.961 . S
H2245 C2237 0.960 . S
H2246 C2238 0.930 . S
H2247 C2239 0.929 . S
H2248 C2256 0.929 . S
H2249 C2258 0.930 . S
H2250 C2260 0.930 . S
H2251 C2263 0.929 . S
H2252 C2266 0.930 . S
H2253 C2268 0.960 . S
H2254 C2268 0.960 . S
H2255 C2268 0.960 . S
C2256 H2248 0.929 . S
C2256 C2257 1.377 . S
C2256 C2258 1.384 . S
C2257 C2256 1.377 . S
C2257 C2263 1.390 . S
C2258 H2249 0.930 . S
C2258 C2256 1.384 . S
C2258 C2259 1.372 . S
C2259 C2258 1.372 . S
C2259 C2260 1.400 . S
C2259 C2264 1.490 . S
C2260 H2250 0.930 . S
C2260 C2259 1.400 . S
C2260 C2263 1.386 . S
H2261 C2277 0.930 . S
H2262 C2278 0.931 . S
C2263 H2251 0.929 . S
C2263 C2257 1.390 . S
C2263 C2260 1.386 . S
C2264 C2259 1.490 . S
C2264 C2266 1.395 . S
C2264 C2267 1.403 . S
H2265 C2271 0.930 . S
C2266 H2252 0.930 . S
C2266 C2264 1.395 . S
C2266 C2269 1.403 . S
C2267 C2264 1.403 . S
C2267 C2268 1.524 . S
C2267 C2271 1.400 . S
C2268 H2253 0.960 . S
C2268 H2254 0.960 . S
C2268 H2255 0.960 . S
C2268 C2267 1.524 . S
C2269 C2266 1.403 . S
C2269 C2270 1.392 . S
C2269 C2273 1.495 . S
C2270 C2269 1.392 . S
C2270 C2271 1.385 . S
C2270 C2272 1.478 . S
C2271 H2265 0.930 . S
C2271 C2267 1.400 . S
C2271 C2270 1.385 . S
C2272 C2270 1.478 . S
C2272 C2274 1.381 . S
C2272 C2278 1.383 . S
C2273 C2269 1.495 . S
C2273 H2279 0.959 . S
C2273 H2280 0.961 . S
C2273 H2281 0.960 . S
C2274 C2272 1.381 . S
C2274 C2275 1.394 1_565 S
C2274 H2282 0.930 . S
C2275 C2274 1.394 1_545 S
C2275 C2276 1.383 . S
C2275 H2283 0.929 . S
C2276 C2275 1.383 . S
C2276 C2277 1.377 . S
C2277 H2261 0.930 . S
C2277 C2276 1.377 . S
C2277 C2278 1.379 1_545 S
C2278 H2262 0.931 . S
C2278 C2272 1.383 . S
C2278 C2277 1.379 1_565 S
H2279 C2273 0.959 . S
H2280 C2273 0.961 . S
H2281 C2273 0.960 . S
H2282 C2274 0.930 . S
H2283 C2275 0.929 . S
H2284 C2292 0.929 . S
H2285 C2294 0.930 . S
H2286 C2296 0.930 . S
H2287 C2299 0.929 . S
H2288 C2302 0.930 . S
H2289 C2304 0.960 . S
H2290 C2304 0.960 . S
H2291 C2304 0.960 . S
C2292 H2284 0.929 . S
C2292 C2293 1.377 . S
C2292 C2294 1.384 1_545 S
C2293 C2292 1.377 . S
C2293 C2299 1.390 . S
C2294 H2285 0.930 . S
C2294 C2292 1.384 1_565 S
C2294 C2295 1.372 . S
C2295 C2294 1.372 . S
C2295 C2296 1.400 . S
C2295 C2300 1.490 . S
C2296 H2286 0.930 . S
C2296 C2295 1.400 . S
C2296 C2299 1.386 1_565 S
H2297 C2313 0.930 . S
H2298 C2314 0.931 . S
C2299 H2287 0.929 . S
C2299 C2293 1.390 . S
C2299 C2296 1.386 1_545 S
C2300 C2295 1.490 . S
C2300 C2302 1.395 . S
C2300 C2303 1.403 . S
H2301 C2307 0.930 . S
C2302 H2288 0.930 . S
C2302 C2300 1.395 . S
C2302 C2305 1.403 . S
C2303 C2300 1.403 . S
C2303 C2304 1.524 . S
C2303 C2307 1.400 . S
C2304 H2289 0.960 . S
C2304 H2290 0.960 . S
C2304 H2291 0.960 . S
C2304 C2303 1.524 . S
C2305 C2302 1.403 . S
C2305 C2306 1.392 . S
C2305 C2309 1.495 . S
C2306 C2305 1.392 . S
C2306 C2307 1.385 . S
C2306 C2308 1.478 . S
C2307 H2301 0.930 . S
C2307 C2303 1.400 . S
C2307 C2306 1.385 . S
C2308 C2306 1.478 . S
C2308 C2310 1.381 . S
C2308 C2314 1.383 . S
C2309 C2305 1.495 . S
C2309 H2315 0.959 . S
C2309 H2316 0.961 . S
C2309 H2317 0.960 . S
C2310 C2308 1.381 . S
C2310 C2311 1.394 . S
C2310 H2318 0.930 . S
C2311 C2310 1.394 . S
C2311 C2312 1.383 . S
C2311 H2319 0.929 . S
C2312 C2311 1.383 . S
C2312 C2313 1.377 . S
C2313 H2297 0.930 . S
C2313 C2312 1.377 . S
C2313 C2314 1.379 . S
C2314 H2298 0.931 . S
C2314 C2308 1.383 . S
C2314 C2313 1.379 . S
H2315 C2309 0.959 . S
H2316 C2309 0.961 . S
H2317 C2309 0.960 . S
H2318 C2310 0.930 . S
H2319 C2311 0.929 . S
H2320 C2328 0.929 . S
H2321 C2330 0.930 . S
H2322 C2332 0.930 . S
H2323 C2335 0.929 . S
H2324 C2338 0.930 . S
H2325 C2340 0.960 . S
H2326 C2340 0.960 . S
H2327 C2340 0.960 . S
C2328 H2320 0.929 . S
C2328 C2329 1.377 . S
C2328 C2330 1.384 . S
C2329 C2328 1.377 . S
C2329 C2335 1.390 . S
C2330 H2321 0.930 . S
C2330 C2328 1.384 . S
C2330 C2331 1.372 . S
C2331 C2330 1.372 . S
C2331 C2332 1.400 . S
C2331 C2336 1.490 . S
C2332 H2322 0.930 . S
C2332 C2331 1.400 . S
C2332 C2335 1.386 . S
H2333 C2349 0.930 . S
H2334 C2350 0.931 . S
C2335 H2323 0.929 . S
C2335 C2329 1.390 . S
C2335 C2332 1.386 . S
C2336 C2331 1.490 . S
C2336 C2338 1.395 . S
C2336 C2339 1.403 . S
H2337 C2343 0.930 . S
C2338 H2324 0.930 . S
C2338 C2336 1.395 . S
C2338 C2341 1.403 . S
C2339 C2336 1.403 . S
C2339 C2340 1.524 . S
C2339 C2343 1.400 . S
C2340 H2325 0.960 . S
C2340 H2326 0.960 . S
C2340 H2327 0.960 . S
C2340 C2339 1.524 . S
C2341 C2338 1.403 . S
C2341 C2342 1.392 . S
C2341 C2345 1.495 . S
C2342 C2341 1.392 . S
C2342 C2343 1.385 . S
C2342 C2344 1.478 . S
C2343 H2337 0.930 . S
C2343 C2339 1.400 . S
C2343 C2342 1.385 . S
C2344 C2342 1.478 . S
C2344 C2346 1.381 . S
C2344 C2350 1.383 . S
C2345 C2341 1.495 . S
C2345 H2351 0.959 . S
C2345 H2352 0.961 . S
C2345 H2353 0.960 . S
C2346 C2344 1.381 . S
C2346 C2347 1.394 . S
C2346 H2354 0.930 . S
C2347 C2346 1.394 . S
C2347 C2348 1.383 . S
C2347 H2355 0.929 . S
C2348 C2347 1.383 . S
C2348 C2349 1.377 . S
C2349 H2333 0.930 . S
C2349 C2348 1.377 . S
C2349 C2350 1.379 . S
C2350 H2334 0.931 . S
C2350 C2344 1.383 . S
C2350 C2349 1.379 . S
H2351 C2345 0.959 . S
H2352 C2345 0.961 . S
H2353 C2345 0.960 . S
H2354 C2346 0.930 . S
H2355 C2347 0.929 . S
H2356 C2364 0.929 . S
H2357 C2366 0.930 . S
H2358 C2368 0.930 . S
H2359 C2371 0.929 . S
H2360 C2374 0.930 . S
H2361 C2376 0.960 . S
H2362 C2376 0.960 . S
H2363 C2376 0.960 . S
C2364 H2356 0.929 . S
C2364 C2365 1.377 . S
C2364 C2366 1.384 . S
C2365 C2364 1.377 . S
C2365 C2371 1.390 . S
C2366 H2357 0.930 . S
C2366 C2364 1.384 . S
C2366 C2367 1.372 . S
C2367 C2366 1.372 . S
C2367 C2368 1.400 . S
C2367 C2372 1.490 . S
C2368 H2358 0.930 . S
C2368 C2367 1.400 . S
C2368 C2371 1.386 . S
H2369 C2385 0.930 . S
H2370 C2386 0.931 . S
C2371 H2359 0.929 . S
C2371 C2365 1.390 . S
C2371 C2368 1.386 . S
C2372 C2367 1.490 . S
C2372 C2374 1.395 . S
C2372 C2375 1.403 . S
H2373 C2379 0.930 . S
C2374 H2360 0.930 . S
C2374 C2372 1.395 . S
C2374 C2377 1.403 . S
C2375 C2372 1.403 . S
C2375 C2376 1.524 . S
C2375 C2379 1.400 . S
C2376 H2361 0.960 . S
C2376 H2362 0.960 . S
C2376 H2363 0.960 . S
C2376 C2375 1.524 . S
C2377 C2374 1.403 . S
C2377 C2378 1.392 . S
C2377 C2381 1.495 . S
C2378 C2377 1.392 . S
C2378 C2379 1.385 . S
C2378 C2380 1.478 . S
C2379 H2373 0.930 . S
C2379 C2375 1.400 . S
C2379 C2378 1.385 . S
C2380 C2378 1.478 . S
C2380 C2382 1.381 . S
C2380 C2386 1.383 . S
C2381 C2377 1.495 . S
C2381 H2387 0.959 . S
C2381 H2388 0.961 . S
C2381 H2389 0.960 . S
C2382 C2380 1.381 . S
C2382 C2383 1.394 . S
C2382 H2390 0.930 . S
C2383 C2382 1.394 . S
C2383 C2384 1.383 . S
C2383 H2391 0.929 . S
C2384 C2383 1.383 . S
C2384 C2385 1.377 . S
C2385 H2369 0.930 . S
C2385 C2384 1.377 . S
C2385 C2386 1.379 . S
C2386 H2370 0.931 . S
C2386 C2380 1.383 . S
C2386 C2385 1.379 . S
H2387 C2381 0.959 . S
H2388 C2381 0.961 . S
H2389 C2381 0.960 . S
H2390 C2382 0.930 . S
H2391 C2383 0.929 . S
H2392 C2400 0.929 . S
H2393 C2402 0.930 . S
H2394 C2404 0.930 . S
H2395 C2407 0.929 . S
H2396 C2410 0.930 . S
H2397 C2412 0.960 . S
H2398 C2412 0.960 . S
H2399 C2412 0.960 . S
C2400 H2392 0.929 . S
C2400 C2401 1.377 . S
C2400 C2402 1.384 . S
C2401 C2400 1.377 . S
C2401 C2407 1.390 . S
C2402 H2393 0.930 . S
C2402 C2400 1.384 . S
C2402 C2403 1.372 . S
C2403 C2402 1.372 . S
C2403 C2404 1.400 . S
C2403 C2408 1.490 . S
C2404 H2394 0.930 . S
C2404 C2403 1.400 . S
C2404 C2407 1.386 . S
H2405 C2421 0.930 . S
H2406 C2422 0.931 . S
C2407 H2395 0.929 . S
C2407 C2401 1.390 . S
C2407 C2404 1.386 . S
C2408 C2403 1.490 . S
C2408 C2410 1.395 . S
C2408 C2411 1.403 . S
H2409 C2415 0.930 . S
C2410 H2396 0.930 . S
C2410 C2408 1.395 . S
C2410 C2413 1.403 . S
C2411 C2408 1.403 . S
C2411 C2412 1.524 . S
C2411 C2415 1.400 . S
C2412 H2397 0.960 . S
C2412 H2398 0.960 . S
C2412 H2399 0.960 . S
C2412 C2411 1.524 . S
C2413 C2410 1.403 . S
C2413 C2414 1.392 . S
C2413 C2417 1.495 . S
C2414 C2413 1.392 . S
C2414 C2415 1.385 . S
C2414 C2416 1.478 . S
C2415 H2409 0.930 . S
C2415 C2411 1.400 . S
C2415 C2414 1.385 . S
C2416 C2414 1.478 . S
C2416 C2418 1.381 . S
C2416 C2422 1.383 . S
C2417 C2413 1.495 . S
C2417 H2423 0.959 . S
C2417 H2424 0.961 . S
C2417 H2425 0.960 . S
C2418 C2416 1.381 . S
C2418 C2419 1.394 . S
C2418 H2426 0.930 . S
C2419 C2418 1.394 . S
C2419 C2420 1.383 . S
C2419 H2427 0.929 . S
C2420 C2419 1.383 . S
C2420 C2421 1.377 . S
C2421 H2405 0.930 . S
C2421 C2420 1.377 . S
C2421 C2422 1.379 . S
C2422 H2406 0.931 . S
C2422 C2416 1.383 . S
C2422 C2421 1.379 . S
H2423 C2417 0.959 . S
H2424 C2417 0.961 . S
H2425 C2417 0.960 . S
H2426 C2418 0.930 . S
H2427 C2419 0.929 . S
H2428 C2436 0.929 . S
H2429 C2438 0.930 . S
H2430 C2440 0.930 . S
H2431 C2443 0.929 . S
H2432 C2446 0.930 . S
H2433 C2448 0.960 . S
H2434 C2448 0.960 . S
H2435 C2448 0.960 . S
C2436 H2428 0.929 . S
C2436 C2437 1.377 . S
C2436 C2438 1.384 . S
C2437 C2436 1.377 . S
C2437 C2443 1.390 . S
C2438 H2429 0.930 . S
C2438 C2436 1.384 . S
C2438 C2439 1.372 . S
C2439 C2438 1.372 . S
C2439 C2440 1.400 . S
C2439 C2444 1.490 . S
C2440 H2430 0.930 . S
C2440 C2439 1.400 . S
C2440 C2443 1.386 . S
H2441 C2457 0.930 . S
H2442 C2458 0.931 . S
C2443 H2431 0.929 . S
C2443 C2437 1.390 . S
C2443 C2440 1.386 . S
C2444 C2439 1.490 . S
C2444 C2446 1.395 . S
C2444 C2447 1.403 . S
H2445 C2451 0.930 . S
C2446 H2432 0.930 . S
C2446 C2444 1.395 . S
C2446 C2449 1.403 . S
C2447 C2444 1.403 . S
C2447 C2448 1.524 . S
C2447 C2451 1.400 . S
C2448 H2433 0.960 . S
C2448 H2434 0.960 . S
C2448 H2435 0.960 . S
C2448 C2447 1.524 . S
C2449 C2446 1.403 . S
C2449 C2450 1.392 . S
C2449 C2453 1.495 . S
C2450 C2449 1.392 . S
C2450 C2451 1.385 . S
C2450 C2452 1.478 . S
C2451 H2445 0.930 . S
C2451 C2447 1.400 . S
C2451 C2450 1.385 . S
C2452 C2450 1.478 . S
C2452 C2454 1.381 . S
C2452 C2458 1.383 . S
C2453 C2449 1.495 . S
C2453 H2459 0.959 . S
C2453 H2460 0.961 . S
C2453 H2461 0.960 . S
C2454 C2452 1.381 . S
C2454 C2455 1.394 . S
C2454 H2462 0.930 . S
C2455 C2454 1.394 . S
C2455 C2456 1.383 . S
C2455 H2463 0.929 . S
C2456 C2455 1.383 . S
C2456 C2457 1.377 . S
C2457 H2441 0.930 . S
C2457 C2456 1.377 . S
C2457 C2458 1.379 . S
C2458 H2442 0.931 . S
C2458 C2452 1.383 . S
C2458 C2457 1.379 . S
H2459 C2453 0.959 . S
H2460 C2453 0.961 . S
H2461 C2453 0.960 . S
H2462 C2454 0.930 . S
H2463 C2455 0.929 . S
H2464 C2472 0.929 . S
H2465 C2474 0.930 . S
H2466 C2476 0.930 . S
H2467 C2479 0.929 . S
H2468 C2482 0.930 . S
H2469 C2484 0.960 . S
H2470 C2484 0.960 . S
H2471 C2484 0.960 . S
C2472 H2464 0.929 . S
C2472 C2473 1.377 . S
C2472 C2474 1.384 1_565 S
C2473 C2472 1.377 . S
C2473 C2479 1.390 . S
C2474 H2465 0.930 . S
C2474 C2472 1.384 1_545 S
C2474 C2475 1.372 . S
C2475 C2474 1.372 . S
C2475 C2476 1.400 . S
C2475 C2480 1.490 . S
C2476 H2466 0.930 . S
C2476 C2475 1.400 . S
C2476 C2479 1.386 1_545 S
H2477 C2493 0.930 . S
H2478 C2494 0.931 . S
C2479 H2467 0.929 . S
C2479 C2473 1.390 . S
C2479 C2476 1.386 1_565 S
C2480 C2475 1.490 . S
C2480 C2482 1.395 . S
C2480 C2483 1.403 . S
H2481 C2487 0.930 . S
C2482 H2468 0.930 . S
C2482 C2480 1.395 . S
C2482 C2485 1.403 . S
C2483 C2480 1.403 . S
C2483 C2484 1.524 . S
C2483 C2487 1.400 . S
C2484 H2469 0.960 . S
C2484 H2470 0.960 . S
C2484 H2471 0.960 . S
C2484 C2483 1.524 . S
C2485 C2482 1.403 . S
C2485 C2486 1.392 . S
C2485 C2489 1.495 . S
C2486 C2485 1.392 . S
C2486 C2487 1.385 . S
C2486 C2488 1.478 . S
C2487 H2481 0.930 . S
C2487 C2483 1.400 . S
C2487 C2486 1.385 . S
C2488 C2486 1.478 . S
C2488 C2490 1.381 . S
C2488 C2494 1.383 . S
C2489 C2485 1.495 . S
C2489 H2495 0.959 . S
C2489 H2496 0.961 . S
C2489 H2497 0.960 . S
C2490 C2488 1.381 . S
C2490 C2491 1.394 . S
C2490 H2498 0.930 . S
C2491 C2490 1.394 . S
C2491 C2492 1.383 . S
C2491 H2499 0.929 . S
C2492 C2491 1.383 . S
C2492 C2493 1.377 . S
C2493 H2477 0.930 . S
C2493 C2492 1.377 . S
C2493 C2494 1.379 . S
C2494 H2478 0.931 . S
C2494 C2488 1.383 . S
C2494 C2493 1.379 . S
H2495 C2489 0.959 . S
H2496 C2489 0.961 . S
H2497 C2489 0.960 . S
H2498 C2490 0.930 . S
H2499 C2491 0.929 . S
H2500 C2508 0.929 . S
H2501 C2510 0.930 . S
H2502 C2512 0.930 . S
H2503 C2515 0.929 . S
H2504 C2518 0.930 . S
H2505 C2520 0.960 . S
H2506 C2520 0.960 . S
H2507 C2520 0.960 . S
C2508 H2500 0.929 . S
C2508 C2509 1.377 . S
C2508 C2510 1.384 . S
C2509 C2508 1.377 . S
C2509 C2515 1.390 . S
C2510 H2501 0.930 . S
C2510 C2508 1.384 . S
C2510 C2511 1.372 . S
C2511 C2510 1.372 . S
C2511 C2512 1.400 . S
C2511 C2516 1.490 . S
C2512 H2502 0.930 . S
C2512 C2511 1.400 . S
C2512 C2515 1.386 . S
H2513 C2529 0.930 . S
H2514 C2530 0.931 . S
C2515 H2503 0.929 . S
C2515 C2509 1.390 . S
C2515 C2512 1.386 . S
C2516 C2511 1.490 . S
C2516 C2518 1.395 . S
C2516 C2519 1.403 . S
H2517 C2523 0.930 . S
C2518 H2504 0.930 . S
C2518 C2516 1.395 . S
C2518 C2521 1.403 . S
C2519 C2516 1.403 . S
C2519 C2520 1.524 . S
C2519 C2523 1.400 . S
C2520 H2505 0.960 . S
C2520 H2506 0.960 . S
C2520 H2507 0.960 . S
C2520 C2519 1.524 . S
C2521 C2518 1.403 . S
C2521 C2522 1.392 . S
C2521 C2525 1.495 . S
C2522 C2521 1.392 . S
C2522 C2523 1.385 . S
C2522 C2524 1.478 . S
C2523 H2517 0.930 . S
C2523 C2519 1.400 . S
C2523 C2522 1.385 . S
C2524 C2522 1.478 . S
C2524 C2526 1.381 . S
C2524 C2530 1.383 . S
C2525 C2521 1.495 . S
C2525 H2531 0.959 . S
C2525 H2532 0.961 . S
C2525 H2533 0.960 . S
C2526 C2524 1.381 . S
C2526 C2527 1.394 1_545 S
C2526 H2534 0.930 . S
C2527 C2526 1.394 1_565 S
C2527 C2528 1.383 . S
C2527 H2535 0.929 . S
C2528 C2527 1.383 . S
C2528 C2529 1.377 . S
C2529 H2513 0.930 . S
C2529 C2528 1.377 . S
C2529 C2530 1.379 1_565 S
C2530 H2514 0.931 . S
C2530 C2524 1.383 . S
C2530 C2529 1.379 1_545 S
H2531 C2525 0.959 . S
H2532 C2525 0.961 . S
H2533 C2525 0.960 . S
H2534 C2526 0.930 . S
H2535 C2527 0.929 . S
H2536 C2544 0.929 . S
H2537 C2546 0.930 . S
H2538 C2548 0.930 . S
H2539 C2551 0.929 . S
H2540 C2554 0.930 . S
H2541 C2556 0.960 . S
H2542 C2556 0.960 . S
H2543 C2556 0.960 . S
C2544 H2536 0.929 . S
C2544 C2545 1.377 . S
C2544 C2546 1.384 . S
C2545 C2544 1.377 . S
C2545 C2551 1.390 . S
C2546 H2537 0.930 . S
C2546 C2544 1.384 . S
C2546 C2547 1.372 . S
C2547 C2546 1.372 . S
C2547 C2548 1.400 . S
C2547 C2552 1.490 . S
C2548 H2538 0.930 . S
C2548 C2547 1.400 . S
C2548 C2551 1.386 . S
H2549 C2565 0.930 . S
H2550 C2566 0.931 . S
C2551 H2539 0.929 . S
C2551 C2545 1.390 . S
C2551 C2548 1.386 . S
C2552 C2547 1.490 . S
C2552 C2554 1.395 . S
C2552 C2555 1.403 . S
H2553 C2559 0.930 . S
C2554 H2540 0.930 . S
C2554 C2552 1.395 . S
C2554 C2557 1.403 . S
C2555 C2552 1.403 . S
C2555 C2556 1.524 . S
C2555 C2559 1.400 . S
C2556 H2541 0.960 . S
C2556 H2542 0.960 . S
C2556 H2543 0.960 . S
C2556 C2555 1.524 . S
C2557 C2554 1.403 . S
C2557 C2558 1.392 . S
C2557 C2561 1.495 . S
C2558 C2557 1.392 . S
C2558 C2559 1.385 . S
C2558 C2560 1.478 . S
C2559 H2553 0.930 . S
C2559 C2555 1.400 . S
C2559 C2558 1.385 . S
C2560 C2558 1.478 . S
C2560 C2562 1.381 . S
C2560 C2566 1.383 . S
C2561 C2557 1.495 . S
C2561 H2567 0.959 . S
C2561 H2568 0.961 . S
C2561 H2569 0.960 . S
C2562 C2560 1.381 . S
C2562 C2563 1.394 1_565 S
C2562 H2570 0.930 . S
C2563 C2562 1.394 1_545 S
C2563 C2564 1.383 . S
C2563 H2571 0.929 . S
C2564 C2563 1.383 . S
C2564 C2565 1.377 . S
C2565 H2549 0.930 . S
C2565 C2564 1.377 . S
C2565 C2566 1.379 1_545 S
C2566 H2550 0.931 . S
C2566 C2560 1.383 . S
C2566 C2565 1.379 1_565 S
H2567 C2561 0.959 . S
H2568 C2561 0.961 . S
H2569 C2561 0.960 . S
H2570 C2562 0.930 . S
H2571 C2563 0.929 . S
H2572 C2580 0.929 . S
H2573 C2582 0.930 . S
H2574 C2584 0.930 . S
H2575 C2587 0.929 . S
H2576 C2590 0.930 . S
H2577 C2592 0.960 . S
H2578 C2592 0.960 . S
H2579 C2592 0.960 . S
C2580 H2572 0.929 . S
C2580 C2581 1.377 . S
C2580 C2582 1.384 . S
C2581 C2580 1.377 . S
C2581 C2587 1.390 . S
C2582 H2573 0.930 . S
C2582 C2580 1.384 . S
C2582 C2583 1.372 . S
C2583 C2582 1.372 . S
C2583 C2584 1.400 . S
C2583 C2588 1.490 . S
C2584 H2574 0.930 . S
C2584 C2583 1.400 . S
C2584 C2587 1.386 . S
H2585 C2601 0.930 . S
H2586 C2602 0.931 . S
C2587 H2575 0.929 . S
C2587 C2581 1.390 . S
C2587 C2584 1.386 . S
C2588 C2583 1.490 . S
C2588 C2590 1.395 . S
C2588 C2591 1.403 . S
H2589 C2595 0.930 . S
C2590 H2576 0.930 . S
C2590 C2588 1.395 . S
C2590 C2593 1.403 . S
C2591 C2588 1.403 . S
C2591 C2592 1.524 . S
C2591 C2595 1.400 . S
C2592 H2577 0.960 . S
C2592 H2578 0.960 . S
C2592 H2579 0.960 . S
C2592 C2591 1.524 . S
C2593 C2590 1.403 . S
C2593 C2594 1.392 . S
C2593 C2597 1.495 . S
C2594 C2593 1.392 . S
C2594 C2595 1.385 . S
C2594 C2596 1.478 . S
C2595 H2589 0.930 . S
C2595 C2591 1.400 . S
C2595 C2594 1.385 . S
C2596 C2594 1.478 . S
C2596 C2598 1.381 . S
C2596 C2602 1.383 . S
C2597 C2593 1.495 . S
C2597 H2603 0.959 . S
C2597 H2604 0.961 . S
C2597 H2605 0.960 . S
C2598 C2596 1.381 . S
C2598 C2599 1.394 1_565 S
C2598 H2606 0.930 . S
C2599 C2598 1.394 1_545 S
C2599 C2600 1.383 . S
C2599 H2607 0.929 . S
C2600 C2599 1.383 . S
C2600 C2601 1.377 . S
C2601 H2585 0.930 . S
C2601 C2600 1.377 . S
C2601 C2602 1.379 1_545 S
C2602 H2586 0.931 . S
C2602 C2596 1.383 . S
C2602 C2601 1.379 1_565 S
H2603 C2597 0.959 . S
H2604 C2597 0.961 . S
H2605 C2597 0.960 . S
H2606 C2598 0.930 . S
H2607 C2599 0.929 . S
H2608 C2616 0.929 . S
H2609 C2618 0.930 . S
H2610 C2620 0.930 . S
H2611 C2623 0.929 . S
H2612 C2626 0.930 . S
H2613 C2628 0.960 . S
H2614 C2628 0.960 . S
H2615 C2628 0.960 . S
C2616 H2608 0.929 . S
C2616 C2617 1.377 . S
C2616 C2618 1.384 . S
C2617 C2616 1.377 . S
C2617 C2623 1.390 . S
C2618 H2609 0.930 . S
C2618 C2616 1.384 . S
C2618 C2619 1.372 . S
C2619 C2618 1.372 . S
C2619 C2620 1.400 . S
C2619 C2624 1.490 . S
C2620 H2610 0.930 . S
C2620 C2619 1.400 . S
C2620 C2623 1.386 . S
H2621 C2637 0.930 . S
H2622 C2638 0.931 . S
C2623 H2611 0.929 . S
C2623 C2617 1.390 . S
C2623 C2620 1.386 . S
C2624 C2619 1.490 . S
C2624 C2626 1.395 . S
C2624 C2627 1.403 . S
H2625 C2631 0.930 . S
C2626 H2612 0.930 . S
C2626 C2624 1.395 . S
C2626 C2629 1.403 . S
C2627 C2624 1.403 . S
C2627 C2628 1.524 . S
C2627 C2631 1.400 . S
C2628 H2613 0.960 . S
C2628 H2614 0.960 . S
C2628 H2615 0.960 . S
C2628 C2627 1.524 . S
C2629 C2626 1.403 . S
C2629 C2630 1.392 . S
C2629 C2633 1.495 . S
C2630 C2629 1.392 . S
C2630 C2631 1.385 . S
C2630 C2632 1.478 . S
C2631 H2625 0.930 . S
C2631 C2627 1.400 . S
C2631 C2630 1.385 . S
C2632 C2630 1.478 . S
C2632 C2634 1.381 . S
C2632 C2638 1.383 . S
C2633 C2629 1.495 . S
C2633 H2639 0.959 . S
C2633 H2640 0.961 . S
C2633 H2641 0.960 . S
C2634 C2632 1.381 . S
C2634 C2635 1.394 . S
C2634 H2642 0.930 . S
C2635 C2634 1.394 . S
C2635 C2636 1.383 . S
C2635 H2643 0.929 . S
C2636 C2635 1.383 . S
C2636 C2637 1.377 . S
C2637 H2621 0.930 . S
C2637 C2636 1.377 . S
C2637 C2638 1.379 . S
C2638 H2622 0.931 . S
C2638 C2632 1.383 . S
C2638 C2637 1.379 . S
H2639 C2633 0.959 . S
H2640 C2633 0.961 . S
H2641 C2633 0.960 . S
H2642 C2634 0.930 . S
H2643 C2635 0.929 . S
H2644 C2652 0.929 . S
H2645 C2654 0.930 . S
H2646 C2656 0.930 . S
H2647 C2659 0.929 . S
H2648 C2662 0.930 . S
H2649 C2664 0.960 . S
H2650 C2664 0.960 . S
H2651 C2664 0.960 . S
C2652 H2644 0.929 . S
C2652 C2653 1.377 . S
C2652 C2654 1.384 . S
C2653 C2652 1.377 . S
C2653 C2659 1.390 . S
C2654 H2645 0.930 . S
C2654 C2652 1.384 . S
C2654 C2655 1.372 . S
C2655 C2654 1.372 . S
C2655 C2656 1.400 . S
C2655 C2660 1.490 . S
C2656 H2646 0.930 . S
C2656 C2655 1.400 . S
C2656 C2659 1.386 . S
H2657 C2673 0.930 . S
H2658 C2674 0.931 . S
C2659 H2647 0.929 . S
C2659 C2653 1.390 . S
C2659 C2656 1.386 . S
C2660 C2655 1.490 . S
C2660 C2662 1.395 . S
C2660 C2663 1.403 . S
H2661 C2667 0.930 . S
C2662 H2648 0.930 . S
C2662 C2660 1.395 . S
C2662 C2665 1.403 . S
C2663 C2660 1.403 . S
C2663 C2664 1.524 . S
C2663 C2667 1.400 . S
C2664 H2649 0.960 . S
C2664 H2650 0.960 . S
C2664 H2651 0.960 . S
C2664 C2663 1.524 . S
C2665 C2662 1.403 . S
C2665 C2666 1.392 . S
C2665 C2669 1.495 . S
C2666 C2665 1.392 . S
C2666 C2667 1.385 . S
C2666 C2668 1.478 . S
C2667 H2661 0.930 . S
C2667 C2663 1.400 . S
C2667 C2666 1.385 . S
C2668 C2666 1.478 . S
C2668 C2670 1.381 . S
C2668 C2674 1.383 . S
C2669 C2665 1.495 . S
C2669 H2675 0.959 . S
C2669 H2676 0.961 . S
C2669 H2677 0.960 . S
C2670 C2668 1.381 . S
C2670 C2671 1.394 . S
C2670 H2678 0.930 . S
C2671 C2670 1.394 . S
C2671 C2672 1.383 . S
C2671 H2679 0.929 . S
C2672 C2671 1.383 . S
C2672 C2673 1.377 . S
C2673 H2657 0.930 . S
C2673 C2672 1.377 . S
C2673 C2674 1.379 . S
C2674 H2658 0.931 . S
C2674 C2668 1.383 . S
C2674 C2673 1.379 . S
H2675 C2669 0.959 . S
H2676 C2669 0.961 . S
H2677 C2669 0.960 . S
H2678 C2670 0.930 . S
H2679 C2671 0.929 . S
H2680 C2688 0.929 . S
H2681 C2690 0.930 . S
H2682 C2692 0.930 . S
H2683 C2695 0.929 . S
H2684 C2698 0.930 . S
H2685 C2700 0.960 . S
H2686 C2700 0.960 . S
H2687 C2700 0.960 . S
C2688 H2680 0.929 . S
C2688 C2689 1.377 . S
C2688 C2690 1.384 . S
C2689 C2688 1.377 . S
C2689 C2695 1.390 . S
C2690 H2681 0.930 . S
C2690 C2688 1.384 . S
C2690 C2691 1.372 . S
C2691 C2690 1.372 . S
C2691 C2692 1.400 . S
C2691 C2696 1.490 . S
C2692 H2682 0.930 . S
C2692 C2691 1.400 . S
C2692 C2695 1.386 . S
H2693 C2709 0.930 . S
H2694 C2710 0.931 . S
C2695 H2683 0.929 . S
C2695 C2689 1.390 . S
C2695 C2692 1.386 . S
C2696 C2691 1.490 . S
C2696 C2698 1.395 . S
C2696 C2699 1.403 . S
H2697 C2703 0.930 . S
C2698 H2684 0.930 . S
C2698 C2696 1.395 . S
C2698 C2701 1.403 . S
C2699 C2696 1.403 . S
C2699 C2700 1.524 . S
C2699 C2703 1.400 . S
C2700 H2685 0.960 . S
C2700 H2686 0.960 . S
C2700 H2687 0.960 . S
C2700 C2699 1.524 . S
C2701 C2698 1.403 . S
C2701 C2702 1.392 . S
C2701 C2705 1.495 . S
C2702 C2701 1.392 . S
C2702 C2703 1.385 . S
C2702 C2704 1.478 . S
C2703 H2697 0.930 . S
C2703 C2699 1.400 . S
C2703 C2702 1.385 . S
C2704 C2702 1.478 . S
C2704 C2706 1.381 . S
C2704 C2710 1.383 . S
C2705 C2701 1.495 . S
C2705 H2711 0.959 . S
C2705 H2712 0.961 . S
C2705 H2713 0.960 . S
C2706 C2704 1.381 . S
C2706 C2707 1.394 . S
C2706 H2714 0.930 . S
C2707 C2706 1.394 . S
C2707 C2708 1.383 . S
C2707 H2715 0.929 . S
C2708 C2707 1.383 . S
C2708 C2709 1.377 . S
C2709 H2693 0.930 . S
C2709 C2708 1.377 . S
C2709 C2710 1.379 . S
C2710 H2694 0.931 . S
C2710 C2704 1.383 . S
C2710 C2709 1.379 . S
H2711 C2705 0.959 . S
H2712 C2705 0.961 . S
H2713 C2705 0.960 . S
H2714 C2706 0.930 . S
H2715 C2707 0.929 . S
H2716 C2724 0.929 . S
H2717 C2726 0.930 . S
H2718 C2728 0.930 . S
H2719 C2731 0.929 . S
H2720 C2734 0.930 . S
H2721 C2736 0.960 . S
H2722 C2736 0.960 . S
H2723 C2736 0.960 . S
C2724 H2716 0.929 . S
C2724 C2725 1.377 . S
C2724 C2726 1.384 . S
C2725 C2724 1.377 . S
C2725 C2731 1.390 . S
C2726 H2717 0.930 . S
C2726 C2724 1.384 . S
C2726 C2727 1.372 . S
C2727 C2726 1.372 . S
C2727 C2728 1.400 . S
C2727 C2732 1.490 . S
C2728 H2718 0.930 . S
C2728 C2727 1.400 . S
C2728 C2731 1.386 . S
H2729 C2745 0.930 . S
H2730 C2746 0.931 . S
C2731 H2719 0.929 . S
C2731 C2725 1.390 . S
C2731 C2728 1.386 . S
C2732 C2727 1.490 . S
C2732 C2734 1.395 . S
C2732 C2735 1.403 . S
H2733 C2739 0.930 . S
C2734 H2720 0.930 . S
C2734 C2732 1.395 . S
C2734 C2737 1.403 . S
C2735 C2732 1.403 . S
C2735 C2736 1.524 . S
C2735 C2739 1.400 . S
C2736 H2721 0.960 . S
C2736 H2722 0.960 . S
C2736 H2723 0.960 . S
C2736 C2735 1.524 . S
C2737 C2734 1.403 . S
C2737 C2738 1.392 . S
C2737 C2741 1.495 . S
C2738 C2737 1.392 . S
C2738 C2739 1.385 . S
C2738 C2740 1.478 . S
C2739 H2733 0.930 . S
C2739 C2735 1.400 . S
C2739 C2738 1.385 . S
C2740 C2738 1.478 . S
C2740 C2742 1.381 . S
C2740 C2746 1.383 . S
C2741 C2737 1.495 . S
C2741 H2747 0.959 . S
C2741 H2748 0.961 . S
C2741 H2749 0.960 . S
C2742 C2740 1.381 . S
C2742 C2743 1.394 . S
C2742 H2750 0.930 . S
C2743 C2742 1.394 . S
C2743 C2744 1.383 . S
C2743 H2751 0.929 . S
C2744 C2743 1.383 . S
C2744 C2745 1.377 . S
C2745 H2729 0.930 . S
C2745 C2744 1.377 . S
C2745 C2746 1.379 . S
C2746 H2730 0.931 . S
C2746 C2740 1.383 . S
C2746 C2745 1.379 . S
H2747 C2741 0.959 . S
H2748 C2741 0.961 . S
H2749 C2741 0.960 . S
H2750 C2742 0.930 . S
H2751 C2743 0.929 . S
C457 C35 0.305 . S
C476 C7 0.249 . S
C493 C21 0.302 . S
C512 C49 0.309 . S
C529 C91 0.289 . S
C548 C63 0.220 . S
C565 C105 0.276 . S
C584 C77 0.374 . S
C601 C119 0.286 . S
C620 C147 0.242 . S
C637 C161 0.272 . S
C656 C133 0.372 . S
C673 C175 0.282 . S
C692 C203 0.243 . S
C709 C189 0.303 . S
C728 C217 0.239 . S
C745 C259 0.298 . S
C764 C231 0.214 . S
C781 C245 0.306 . S
C800 C273 0.255 . S
C817 C287 0.275 . S
C836 C315 0.372 . S
C853 C329 0.286 . S
C872 C301 0.229 . S
C889 C371 0.283 . S
C908 C343 0.376 . S
C925 C385 0.276 . S
C944 C357 0.296 . S
C961 C427 0.299 . S
C980 C399 0.346 . S
C997 C413 0.282 . S
C1016 C441 0.379 . S
C1033 C64 1.593 . S
C1052 C8 1.601 . S
C1069 C414 1.590 . S
C1088 C22 1.580 . S
C1105 C36 1.591 . S
C1124 C204 1.594 . S
C1141 C50 1.591 . S
C1160 C330 1.593 . S
C1177 C78 1.595 . S
C1196 C358 1.602 . S
C1213 C92 1.594 . S
C1232 C148 1.581 . S
C1249 C274 1.594 . S
C1268 C106 1.580 . S
C1285 C176 1.593 . S
C1304 C120 1.601 . S
C1321 C302 1.594 . S
C1340 C134 1.602 . S
C1357 C162 1.592 . S
C1376 C442 1.597 . S
C1393 C190 1.593 . S
C1412 C246 1.579 . S
C1429 C386 1.591 . S
C1448 C218 1.580 . S
C1465 C288 1.593 . S
C1484 C232 1.579 . S
C1501 C260 1.594 . S
C1520 C428 1.602 . S
C1537 C316 1.591 . S
C1556 C372 1.577 . S
C1573 C400 1.593 . S
C1592 C344 1.601 . S
C1609 C51 1.490 . S
C1628 C9 1.477 . S
C1645 C37 1.485 . S
C1664 C23 1.493 . S
C1681 C107 1.487 . S
C1700 C65 1.466 . S
C1717 C93 1.490 . S
C1736 C79 1.501 . S
C1753 C163 1.487 . S
C1772 C121 1.468 . S
C1789 C149 1.485 . S
C1808 C135 1.491 . S
C1825 C219 1.491 . S
C1844 C177 1.501 . S
C1861 C205 1.491 . S
C1880 C191 1.497 . S
C1897 C233 1.488 . S
C1916 C275 1.499 . S
C1933 C261 1.484 . S
C1952 C247 1.466 . S
C1969 C289 1.486 . S
C1988 C331 1.466 . S
C2005 C317 1.487 . S
C2024 C303 1.501 . S
C2041 C387 1.485 . S
C2060 C345 1.466 . S
C2077 C359 1.485 . S
C2096 C373 1.465 . S
C2113 C401 1.486 . S
C2132 C443 1.497 . S
C2149 C429 1.488 . S
C2168 C415 1.468 . S
C2185 C31 1.469 . S
C2204 C3 1.451 . S
C2221 C17 1.475 . S
C2240 C45 1.479 . S
C2257 C59 1.471 . S
C2276 C87 1.477 . S
C2293 C73 1.474 . S
C2312 C101 1.453 . S
C2329 C115 1.472 . S
C2348 C143 1.459 . S
C2365 C129 1.470 . S
C2384 C157 1.454 . S
C2401 C199 1.472 . S
C2420 C171 1.471 . S
C2437 C213 1.471 . S
C2456 C185 1.476 . S
C2473 C255 1.474 . S
C2492 C227 1.470 . S
C2509 C269 1.469 . S
C2528 C241 1.451 . S
C2545 C283 1.472 . S
C2564 C311 1.470 . S
C2581 C325 1.468 . S
C2600 C297 1.485 . S
C2617 C367 1.471 . S
C2636 C339 1.479 . S
C2653 C353 1.473 . S
C2672 C381 1.464 . S
C2689 C395 1.474 . S
C2708 C423 1.458 . S
C2725 C437 1.471 . S
C2744 C409 1.477 . S
