# Generated by pormake.
# Topology eci, (8)-cn, num edge types: 1
# Building blocks:
#     Node 0, Type 0, BuildingBlock: AJUNOK_clean_sbu_0, # of connection points: 8
#     Node 1, Type 0, BuildingBlock: AJUNOK_clean_sbu_0, # of connection points: 8
#     Node 2, Type 0, BuildingBlock: AJUNOK_clean_sbu_0, # of connection points: 8
#     Node 3, Type 0, BuildingBlock: AJUNOK_clean_sbu_0, # of connection points: 8
#     Edge 4, Type (0, 0), BuildingBlock: MIFKUJ_clean_linker_0, # of connection points: 2
#     Edge 5, Type (0, 0), BuildingBlock: MIFKUJ_clean_linker_0, # of connection points: 2
#     Edge 6, Type (0, 0), BuildingBlock: MIFKUJ_clean_linker_0, # of connection points: 2
#     Edge 7, Type (0, 0), BuildingBlock: MIFKUJ_clean_linker_0, # of connection points: 2
#     Edge 8, Type (0, 0), BuildingBlock: MIFKUJ_clean_linker_0, # of connection points: 2
#     Edge 9, Type (0, 0), BuildingBlock: MIFKUJ_clean_linker_0, # of connection points: 2
#     Edge 10, Type (0, 0), BuildingBlock: MIFKUJ_clean_linker_0, # of connection points: 2
#     Edge 11, Type (0, 0), BuildingBlock: MIFKUJ_clean_linker_0, # of connection points: 2
#     Edge 12, Type (0, 0), BuildingBlock: MIFKUJ_clean_linker_0, # of connection points: 2
#     Edge 13, Type (0, 0), BuildingBlock: MIFKUJ_clean_linker_0, # of connection points: 2
#     Edge 14, Type (0, 0), BuildingBlock: MIFKUJ_clean_linker_0, # of connection points: 2
#     Edge 15, Type (0, 0), BuildingBlock: MIFKUJ_clean_linker_0, # of connection points: 2
#     Edge 16, Type (0, 0), BuildingBlock: MIFKUJ_clean_linker_0, # of connection points: 2
#     Edge 17, Type (0, 0), BuildingBlock: MIFKUJ_clean_linker_0, # of connection points: 2
#     Edge 18, Type (0, 0), BuildingBlock: MIFKUJ_clean_linker_0, # of connection points: 2
#     Edge 19, Type (0, 0), BuildingBlock: MIFKUJ_clean_linker_0, # of connection points: 2
# Relax obj value: 0.355
# Max RMSD: 0.283
# Mean RMSD: 0.283
data_MOF--net-eci--node1-AJUNOK_clean_sbu_0--edge1-MIFKUJ_clean_linker_0
_symmetry_space_group_name_H-M    P1
_symmetry_Int_Tables_number       1
_symmetry_cell_setting            triclinic
loop_
_symmetry_equiv_pos_as_xyz
'x, y, z'
_cell_length_a     42.033552
_cell_length_b     42.086451
_cell_length_c     22.519605
_cell_angle_alpha  89.947895
_cell_angle_beta   90.069401
_cell_angle_gamma 89.96553
loop_
_atom_site_label
_atom_site_type_symbol
_atom_site_fract_x
_atom_site_fract_y
_atom_site_fract_z
_atom_type_partial_charge
Cd0 Cd 0.82596 0.80212 0.10792 0.0
Cd1 Cd 0.79944 0.82059 0.93319 0.0
C2 C 0.80329 0.74265 0.02675 0.0
N3 N 0.79161 0.76616 0.06202 0.0
C4 C 0.74527 0.73532 0.0833 0.0
C5 C 0.758 0.70971 0.05115 0.0
C6 C 0.78653 0.71426 0.01997 0.0
C7 C 0.76265 0.76349 0.08834 0.0
H8 H 0.82696 0.74431 0.00872 0.0
H9 H 0.75449 0.78202 0.11791 0.0
C10 C 0.78648 0.87173 0.0548 0.0
C11 C 0.80582 0.88327 0.84688 0.0
C12 C 0.82235 0.90696 0.81594 0.0
C13 C 0.85548 0.90993 0.82347 0.0
C14 C 0.87093 0.88914 0.86292 0.0
C15 C 0.85363 0.86597 0.89254 0.0
N16 N 0.82182 0.86328 0.88384 0.0
H17 H 0.78045 0.8805 0.84077 0.0
H18 H 0.86577 0.84967 0.92184 0.0
C19 C 0.72617 0.82318 0.98714 0.0
N20 N 0.74827 0.80346 0.96261 0.0
C21 C 0.70866 0.76343 0.94745 0.0
C22 C 0.68526 0.78381 0.97021 0.0
C23 C 0.69445 0.81357 0.99218 0.0
C24 C 0.74014 0.77376 0.94418 0.0
H25 H 0.73234 0.8471 -0.00043 0.0
H26 H 0.75785 0.75856 0.92424 0.0
C27 C 0.87312 0.78908 0.00131 0.0
C28 C 0.82401 0.78217 0.2288 0.0
N29 N 0.86682 0.83937 0.10571 0.0
C30 C 0.88815 0.83688 0.15079 0.0
C31 C 0.91151 0.85995 0.15835 0.0
C32 C 0.91256 0.88607 0.11966 0.0
C33 C 0.89101 0.88749 0.07206 0.0
C34 C 0.86833 0.86349 0.06552 0.0
C35 C 0.79582 0.78381 0.82917 0.0
O36 O 0.79634 0.85209 0.09375 0.0
O37 O 0.78761 0.86527 -0.00041 0.0
O38 O 0.84791 0.7999 0.97776 0.0
O39 O 0.8728 0.78315 0.05637 0.0
O40 O 0.81004 0.80719 0.21146 0.0
O41 O 0.8391 0.76653 0.18998 0.0
O42 O 0.81305 0.77522 0.87283 0.0
O43 O 0.78026 0.80964 0.83433 0.0
H44 H 0.88628 0.81745 0.18205 0.0
H45 H 0.85138 0.86465 0.02954 0.0
H46 H 0.72328 0.73277 0.10788 0.0
H47 H 0.79747 0.69497 -0.00443 0.0
H48 H 0.80937 0.92269 0.78653 0.0
H49 H 0.89633 0.89007 0.87001 0.0
H50 H 0.70243 0.74024 0.93018 0.0
H51 H 0.67693 0.83012 0.00912 0.0
H52 H 0.92751 0.85825 0.19599 0.0
H53 H 0.89127 0.90727 0.04124 0.0
Cd54 Cd 0.71316 0.32939 0.31945 0.0
Cd55 Cd 0.6886 0.31085 0.14453 0.0
C56 C 0.77636 0.31581 0.24035 0.0
N57 N 0.75465 0.30104 0.27566 0.0
C58 C 0.7931 0.26211 0.30458 0.0
C59 C 0.81671 0.27841 0.27268 0.0
C60 C 0.80766 0.30452 0.23756 0.0
C61 C 0.76206 0.27394 0.30554 0.0
H62 H 0.77041 0.33798 0.21888 0.0
H63 H 0.74473 0.26344 0.3351 0.0
C64 C 0.63953 0.29652 0.2681 0.0
C65 C 0.61765 0.31481 0.08217 0.0
C66 C 0.59278 0.32955 0.05112 0.0
C67 C 0.59743 0.35991 0.02638 0.0
C68 C 0.62727 0.37448 0.03301 0.0
C69 C 0.6513 0.35896 0.06425 0.0
N70 N 0.64604 0.32993 0.08865 0.0
H71 H 0.61419 0.29161 0.10176 0.0
H72 H 0.67412 0.37034 0.07016 0.0
C73 C 0.68619 0.23838 0.19869 0.0
N74 N 0.70664 0.26129 0.17954 0.0
C75 C 0.74889 0.2233 0.17341 0.0
C76 C 0.728 0.19908 0.19084 0.0
C77 C 0.69659 0.20706 0.20563 0.0
C78 C 0.73764 0.25436 0.16797 0.0
H79 H 0.66128 0.24364 0.20455 0.0
H80 H 0.75329 0.27261 0.15118 0.0
C81 C 0.72028 0.38347 0.21031 0.0
C82 C 0.73476 0.32137 0.43867 0.0
N83 N 0.68292 0.37448 0.33762 0.0
C84 C 0.69406 0.39593 0.37755 0.0
C85 C 0.67464 0.42063 0.39694 0.0
C86 C 0.64302 0.42261 0.37668 0.0
C87 C 0.63289 0.40114 0.33273 0.0
C88 C 0.6535 0.37743 0.31319 0.0
C89 C 0.72629 0.30248 0.04267 0.0
O90 O 0.6611 0.30252 0.30627 0.0
O91 O 0.64453 0.30028 0.21283 0.0
O92 O 0.70841 0.36238 0.17679 0.0
O93 O 0.72691 0.377 0.26389 0.0
O94 O 0.7103 0.30717 0.41918 0.0
O95 O 0.7493 0.33929 0.40259 0.0
O96 O 0.73518 0.32077 0.0845 0.0
O97 O 0.69975 0.28822 0.04875 0.0
H98 H 0.71776 0.39335 0.39557 0.0
H99 H 0.64547 0.36066 0.28028 0.0
H100 H 0.79913 0.24185 0.3321 0.0
H101 H 0.82523 0.31794 0.21292 0.0
H102 H 0.57018 0.31744 0.04673 0.0
H103 H 0.63173 0.3981 0.01584 0.0
H104 H 0.77327 0.218 0.16142 0.0
H105 H 0.67961 0.18886 0.21793 0.0
H106 H 0.68408 0.43728 0.42903 0.0
H107 H 0.60885 0.40142 0.31556 0.0
Cd108 Cd 0.20823 0.18595 0.41093 0.0
Cd109 Cd 0.17258 0.2043 0.57964 0.0
C110 C 0.27469 0.2108 0.47243 0.0
N111 N 0.25134 0.21996 0.43407 0.0
C112 C 0.28568 0.25951 0.39239 0.0
C113 C 0.31102 0.24872 0.42797 0.0
C114 C 0.30472 0.22503 0.47036 0.0
C115 C 0.25595 0.24468 0.39609 0.0
H116 H 0.27106 0.191 0.50193 0.0
H117 H 0.2373 0.25124 0.3653 0.0
C118 C 0.14241 0.23343 0.44079 0.0
C119 C 0.10164 0.17473 0.5567 0.0
C120 C 0.07744 0.15214 0.56127 0.0
C121 C 0.08434 0.12196 0.58475 0.0
C122 C 0.11583 0.11491 0.60088 0.0
C123 C 0.13911 0.1382 0.59603 0.0
N124 N 0.13173 0.16739 0.57427 0.0
H125 H 0.096 0.19842 0.54158 0.0
H126 H 0.16299 0.13321 0.61101 0.0
C127 C 0.166 0.27857 0.57509 0.0
N128 N 0.18928 0.25664 0.56665 0.0
C129 C 0.22858 0.29762 0.56037 0.0
C130 C 0.20504 0.32072 0.57093 0.0
C131 C 0.17331 0.31081 0.5769 0.0
C132 C 0.22014 0.26541 0.55887 0.0
H133 H 0.14177 0.27085 0.58233 0.0
H134 H 0.23829 0.24741 0.55411 0.0
C135 C 0.22962 0.14434 0.53698 0.0
C136 C 0.22324 0.16572 0.29392 0.0
N137 N 0.16054 0.15674 0.41674 0.0
C138 C 0.15666 0.13127 0.4533 0.0
C139 C 0.13108 0.11049 0.44512 0.0
C140 C 0.10935 0.11603 0.39891 0.0
C141 C 0.11325 0.14305 0.36326 0.0
C142 C 0.13946 0.16274 0.37217 0.0
C143 C 0.16554 0.21055 0.704 0.0
O144 O 0.16509 0.22617 0.40591 0.0
O145 O 0.14331 0.22577 0.4953 0.0
O146 O 0.21168 0.16185 0.56822 0.0
O147 O 0.2315 0.14848 0.48128 0.0
O148 O 0.21965 0.19482 0.30641 0.0
O149 O 0.22145 0.14613 0.33633 0.0
O150 O 0.19259 0.20951 0.67913 0.0
O151 O 0.14125 0.2105 0.67047 0.0
H152 H 0.17421 0.12588 0.48666 0.0
H153 H 0.14404 0.1817 0.34097 0.0
H154 H 0.28926 0.27804 0.35967 0.0
H155 H 0.32346 0.21571 0.49846 0.0
H156 H 0.05338 0.1588 0.54934 0.0
H157 H 0.12236 0.09183 0.61837 0.0
H158 H 0.25337 0.30423 0.55613 0.0
H159 H 0.15434 0.32778 0.58425 0.0
H160 H 0.12907 0.08957 0.47293 0.0
H161 H 0.0976 0.14757 0.32594 0.0
Cd162 Cd 0.33107 0.70447 0.66615 0.0
Cd163 Cd 0.29428 0.68538 0.83402 0.0
C164 C 0.3366 0.77812 0.67486 0.0
N165 N 0.31319 0.75622 0.68227 0.0
C166 C 0.27399 0.7974 0.68805 0.0
C167 C 0.29778 0.82039 0.6789 0.0
C168 C 0.32946 0.81037 0.67354 0.0
C169 C 0.28226 0.76507 0.68875 0.0
H170 H 0.36082 0.77039 0.66757 0.0
H171 H 0.26395 0.7471 0.6918 0.0
C172 C 0.27242 0.64799 0.69772 0.0
C173 C 0.31594 0.61228 0.83279 0.0
C174 C 0.33538 0.58552 0.83701 0.0
C175 C 0.36856 0.58914 0.83677 0.0
C176 C 0.38136 0.61975 0.8307 0.0
C177 C 0.36103 0.64588 0.82714 0.0
N178 N 0.32895 0.6418 0.82849 0.0
H179 H 0.29038 0.60957 0.83489 0.0
H180 H 0.37109 0.66934 0.82493 0.0
C181 C 0.22093 0.69222 0.79805 0.0
N182 N 0.24674 0.71103 0.80765 0.0
C183 C 0.21368 0.75742 0.80749 0.0
C184 C 0.18665 0.7384 0.79794 0.0
C185 C 0.19072 0.70547 0.79214 0.0
C186 C 0.2437 0.74312 0.81242 0.0
H187 H 0.22338 0.66667 0.7983 0.0
H188 H 0.26439 0.75746 0.82233 0.0
C189 C 0.36259 0.73114 0.80313 0.0
C190 C 0.35034 0.71542 0.54674 0.0
N191 N 0.36561 0.66181 0.68411 0.0
C192 C 0.39731 0.66798 0.68828 0.0
C193 C 0.41942 0.64347 0.68156 0.0
C194 C 0.40864 0.61254 0.66976 0.0
C195 C 0.37591 0.60649 0.67099 0.0
C196 C 0.35474 0.63158 0.67791 0.0
C197 C 0.28071 0.67832 0.95669 0.0
O198 O 0.2868 0.66639 0.66192 0.0
O199 O 0.2748 0.65175 0.75343 0.0
O200 O 0.34028 0.72157 0.83666 0.0
O201 O 0.36215 0.72533 0.74792 0.0
O202 O 0.32148 0.71674 0.56255 0.0
O203 O 0.3707 0.70955 0.58666 0.0
O204 O 0.28621 0.70505 0.93312 0.0
O205 O 0.2793 0.65455 0.92231 0.0
H206 H 0.40555 0.69223 0.6918 0.0
H207 H 0.32981 0.62686 0.67383 0.0
H208 H 0.24921 0.80422 0.69156 0.0
H209 H 0.34851 0.82731 0.66671 0.0
H210 H 0.32452 0.56232 0.84154 0.0
H211 H 0.40683 0.62365 0.83117 0.0
H212 H 0.21151 0.78291 0.81272 0.0
H213 H 0.17048 0.6898 0.78677 0.0
H214 H 0.44453 0.6492 0.68034 0.0
H215 H 0.36663 0.58299 0.66241 0.0
H216 H 0.80679 0.81748 0.32449 0.0
H217 H 0.80534 0.80064 0.42839 0.0
H218 H 0.83629 0.70678 0.37794 0.0
H219 H 0.83844 0.72362 0.27356 0.0
H220 H 0.77828 0.71458 0.46223 0.0
H221 H 0.88933 0.74182 0.43511 0.0
H222 H 0.93288 0.77667 0.4014 0.0
H223 H 0.89929 0.85115 0.5155 0.0
H224 H 0.8552 0.81698 0.54903 0.0
H225 H 0.83777 0.73815 0.79396 0.0
H226 H 0.84368 0.71674 0.69354 0.0
H227 H 0.75933 0.7672 0.63829 0.0
H228 H 0.75351 0.78902 0.73808 0.0
H229 H 0.85306 0.76335 0.6063 0.0
H230 H 0.72768 0.72933 0.52016 0.0
H231 H 0.68062 0.6996 0.55433 0.0
H232 H 0.73957 0.64331 0.66942 0.0
H233 H 0.78706 0.67254 0.63559 0.0
C234 C 0.81326 0.79326 0.33546 0.0
C235 C 0.82281 0.77185 0.29116 0.0
C236 C 0.81244 0.78371 0.39467 0.0
C237 C 0.82078 0.75256 0.41036 0.0
C238 C 0.8298 0.73091 0.3663 0.0
C239 C 0.83113 0.7406 0.307 0.0
C240 C 0.82027 0.74322 0.47333 0.0
C241 C 0.79485 0.72472 0.49395 0.0
C242 C 0.84212 0.7564 0.51405 0.0
C243 C 0.86887 0.77685 0.49436 0.0
C244 C 0.89109 0.76571 0.45267 0.0
C245 C 0.9159 0.78534 0.43363 0.0
C246 C 0.91883 0.81611 0.45623 0.0
C247 C 0.897 0.82731 0.49801 0.0
C248 C 0.87212 0.8078 0.51709 0.0
C249 C 0.81998 0.74394 0.76081 0.0
C250 C 0.79558 0.76578 0.77323 0.0
C251 C 0.82331 0.73155 0.70366 0.0
C252 C 0.80192 0.74037 0.65873 0.0
C253 C 0.77586 0.75981 0.6726 0.0
C254 C 0.77277 0.77255 0.72942 0.0
C255 C 0.81034 0.73565 0.5958 0.0
C256 C 0.83714 0.75198 0.57487 0.0
C257 C 0.78935 0.72105 0.55508 0.0
C258 C 0.76094 0.7032 0.57539 0.0
C259 C 0.73065 0.71049 0.55249 0.0
C260 C 0.70388 0.69377 0.57191 0.0
C261 C 0.70709 0.6696 0.61406 0.0
C262 C 0.7371 0.6621 0.63689 0.0
C263 C 0.76395 0.6788 0.61773 0.0
H264 H 0.68634 0.65667 0.62901 0.0
H265 H 0.93805 0.83127 0.44144 0.0
H266 H 0.78975 0.34312 0.48961 0.0
H267 H 0.8044 0.34084 0.59518 0.0
H268 H 0.71721 0.29092 0.63333 0.0
H269 H 0.70259 0.29272 0.52849 0.0
H270 H 0.72925 0.34789 0.70254 0.0
H271 H 0.7803 0.25019 0.63344 0.0
H272 H 0.81847 0.22076 0.57116 0.0
H273 H 0.89564 0.2745 0.64548 0.0
H274 H 0.8578 0.30459 0.70762 0.0
H275 H 0.71669 0.26071 0.95245 0.0
H276 H 0.73865 0.26416 0.85253 0.0
H277 H 0.79919 0.34144 0.9071 0.0
H278 H 0.77731 0.33822 0.00775 0.0
H279 H 0.81329 0.28065 0.79382 0.0
H280 H 0.7605 0.38265 0.85681 0.0
H281 H 0.72122 0.40901 0.92173 0.0
H282 H 0.64832 0.34591 0.85904 0.0
H283 H 0.68736 0.31895 0.7943 0.0
C284 C 0.77387 0.33143 0.52054 0.0
C285 C 0.74492 0.31826 0.50103 0.0
C286 C 0.78232 0.33011 0.58059 0.0
C287 C 0.76177 0.31585 0.62167 0.0
C288 C 0.73326 0.30213 0.60205 0.0
C289 C 0.72499 0.30311 0.5422 0.0
C290 C 0.76869 0.31637 0.68582 0.0
C291 C 0.74806 0.33371 0.72233 0.0
C292 C 0.79351 0.29823 0.71148 0.0
C293 C 0.8162 0.2799 0.67459 0.0
C294 C 0.80537 0.25594 0.63609 0.0
C295 C 0.82695 0.23909 0.6009 0.0
C296 C 0.85945 0.24582 0.60421 0.0
C297 C 0.87045 0.26935 0.64287 0.0
C298 C 0.84895 0.28629 0.6781 0.0
C299 C 0.73538 0.2778 0.94379 0.0
C300 C 0.7447 0.29975 0.98731 0.0
C301 C 0.74821 0.27944 0.8869 0.0
C302 C 0.7704 0.30308 0.87273 0.0
C303 C 0.78225 0.32288 0.91758 0.0
C304 C 0.76947 0.3212 0.97479 0.0
C305 C 0.77373 0.31202 0.80988 0.0
C306 C 0.7957 0.29616 0.77368 0.0
C307 C 0.75049 0.33193 0.78403 0.0
C308 C 0.72675 0.34886 0.8209 0.0
C309 C 0.73607 0.37445 0.85693 0.0
C310 C 0.7139 0.38944 0.89373 0.0
C311 C 0.6823 0.37915 0.89443 0.0
C312 C 0.6728 0.35386 0.85835 0.0
C313 C 0.69492 0.33876 0.82156 0.0
H314 H 0.66517 0.39084 0.92279 0.0
H315 H 0.87612 0.23275 0.57695 0.0
H316 H 0.20907 0.2278 0.78643 0.0
H317 H 0.212 0.20859 0.88845 0.0
H318 H 0.1203 0.16379 0.86905 0.0
H319 H 0.1169 0.18363 0.7666 0.0
H320 H 0.13282 0.18787 0.9867 0.0
H321 H 0.17718 0.11787 0.84748 0.0
H322 H 0.20711 0.10239 0.75828 0.0
H323 H 0.29362 0.13628 0.83759 0.0
H324 H 0.26401 0.15267 0.92699 0.0
H325 H 0.19416 0.11374 0.2485 0.0
H326 H 0.18044 0.10573 0.14373 0.0
H327 H 0.23852 0.18618 0.09586 0.0
H328 H 0.25124 0.19509 0.20053 0.0
H329 H 0.23241 0.12512 0.00903 0.0
H330 H 0.17342 0.21411 0.12132 0.0
H331 H 0.14355 0.22705 0.21261 0.0
H332 H 0.08283 0.14645 0.18427 0.0
H333 H 0.11258 0.13297 0.09301 0.0
C334 C 0.18909 0.21472 0.80447 0.0
C335 C 0.16298 0.20681 0.76866 0.0
C336 C 0.19082 0.20366 0.86258 0.0
C337 C 0.16675 0.18408 0.88541 0.0
C338 C 0.13918 0.17868 0.85184 0.0
C339 C 0.13725 0.19011 0.79355 0.0
C340 C 0.17274 0.16675 0.94132 0.0
C341 C 0.15399 0.17332 0.99124 0.0
C342 C 0.19999 0.14711 0.94695 0.0
C343 C 0.2183 0.13659 0.894 0.0
C344 C 0.20257 0.12218 0.84586 0.0
C345 C 0.21949 0.11325 0.79519 0.0
C346 C 0.25229 0.11832 0.7922 0.0
C347 C 0.26821 0.13232 0.83999 0.0
C348 C 0.25136 0.14141 0.89075 0.0
C349 C 0.20506 0.12884 0.21526 0.0
C350 C 0.22355 0.15516 0.23205 0.0
C351 C 0.19722 0.1242 0.15564 0.0
C352 C 0.20855 0.14538 0.11259 0.0
C353 C 0.22987 0.16949 0.12875 0.0
C354 C 0.237 0.17464 0.18834 0.0
C355 C 0.19327 0.14746 0.05405 0.0
C356 C 0.21039 0.13827 0.00373 0.0
C357 C 0.16398 0.16362 0.04776 0.0
C358 C 0.14498 0.17273 0.10037 0.0
C359 C 0.15354 0.19933 0.13444 0.0
C360 C 0.13674 0.20668 0.18623 0.0
C361 C 0.11125 0.18764 0.20412 0.0
C362 C 0.1025 0.16123 0.17022 0.0
C363 C 0.11929 0.15375 0.11845 0.0
H364 H 0.0983 0.19332 0.24425 0.0
H365 H 0.26538 0.11139 0.75291 0.0
H366 H 0.30439 0.62785 0.01755 0.0
H367 H 0.32571 0.62988 0.11856 0.0
H368 H 0.28469 0.72313 0.1417 0.0
H369 H 0.26443 0.72163 0.04011 0.0
H370 H 0.34712 0.72418 0.1599 0.0
H371 H 0.2593 0.65643 0.22071 0.0
H372 H 0.22611 0.60815 0.21777 0.0
H373 H 0.30806 0.55062 0.25583 0.0
H374 H 0.34181 0.59858 0.25834 0.0
H375 H 0.32443 0.75298 0.46205 0.0
H376 H 0.32781 0.74463 0.35492 0.0
H377 H 0.39658 0.6699 0.38257 0.0
H378 H 0.39418 0.67911 0.49013 0.0
H379 H 0.3361 0.65162 0.33206 0.0
H380 H 0.42029 0.72241 0.29481 0.0
H381 H 0.45245 0.77128 0.29978 0.0
H382 H 0.3764 0.82427 0.21948 0.0
H383 H 0.34353 0.77588 0.21493 0.0
C384 C 0.29887 0.64821 0.04511 0.0
C385 C 0.28307 0.67474 0.02125 0.0
C386 C 0.31123 0.64942 0.10266 0.0
C387 C 0.30723 0.6769 0.13712 0.0
C388 C 0.28848 0.70193 0.11533 0.0
C389 C 0.27663 0.70095 0.05764 0.0
C390 C 0.32519 0.68138 0.19291 0.0
C391 C 0.3445 0.70849 0.19783 0.0
C392 C 0.32336 0.65981 0.24086 0.0
C393 C 0.30313 0.63101 0.23886 0.0
C394 C 0.27029 0.63345 0.22784 0.0
C395 C 0.25137 0.60616 0.22641 0.0
C396 C 0.26499 0.57632 0.23636 0.0
C397 C 0.29756 0.57373 0.24797 0.0
C398 C 0.31659 0.60096 0.24943 0.0
C399 C 0.34124 0.73572 0.44499 0.0
C400 C 0.35884 0.71648 0.48377 0.0
C401 C 0.34329 0.73106 0.38395 0.0
C402 C 0.36237 0.70659 0.36117 0.0
C403 C 0.38193 0.68902 0.39956 0.0
C404 C 0.38054 0.69432 0.46074 0.0
C405 C 0.35617 0.69556 0.30025 0.0
C406 C 0.33928 0.66701 0.29382 0.0
C407 C 0.35995 0.71599 0.25111 0.0
C408 C 0.37934 0.74544 0.25485 0.0
C409 C 0.41026 0.74453 0.27879 0.0
C410 C 0.42866 0.77216 0.28139 0.0
C411 C 0.41646 0.80087 0.26002 0.0
C412 C 0.38583 0.80201 0.23602 0.0
C413 C 0.36731 0.77447 0.23335 0.0
H414 H 0.43077 0.82222 0.262 0.0
H415 H 0.2503 0.55522 0.23526 0.0
H416 H 0.37772 0.73733 0.92161 0.0
H417 H 0.43072 0.74679 0.96374 0.0
H418 H 0.46857 0.75985 0.7876 0.0
H419 H 0.41601 0.75088 0.74516 0.0
H420 H 0.49952 0.71201 0.85812 0.0
H421 H 0.46151 0.82203 0.87575 0.0
H422 H 0.42424 0.86241 0.914 0.0
H423 H 0.44581 0.8343 0.09296 0.0
H424 H 0.48297 0.79353 0.05568 0.0
H425 H 0.65511 0.76552 0.86981 0.0
H426 H 0.59851 0.75631 0.8551 0.0
H427 H 0.58148 0.77468 0.04104 0.0
H428 H 0.63844 0.78567 0.05501 0.0
H429 H 0.53721 0.8011 0.98384 0.0
H430 H 0.57727 0.69696 0.97738 0.0
H431 H 0.61231 0.65226 0.95043 0.0
H432 H 0.58428 0.66136 0.76778 0.0
H433 H 0.54941 0.70642 0.79344 0.0
C434 C 0.39714 0.74304 0.8919 0.0
C435 C 0.39256 0.74316 0.82988 0.0
C436 C 0.42743 0.74831 0.9161 0.0
C437 C 0.45355 0.75374 0.87869 0.0
C438 C 0.44872 0.75549 0.81717 0.0
C439 C 0.41856 0.75049 0.79302 0.0
C440 C 0.48641 0.75532 0.90243 0.0
C441 C 0.50793 0.73159 0.88523 0.0
C442 C 0.49676 0.77979 0.94076 0.0
C443 C 0.47473 0.80455 0.96292 0.0
C444 C 0.45812 0.82432 0.92322 0.0
C445 C 0.43707 0.84731 0.94473 0.0
C446 C 0.4326 0.85087 0.00586 0.0
C447 C 0.44927 0.83151 0.04563 0.0
C448 C 0.47035 0.8085 0.02433 0.0
C449 C 0.63935 0.76713 0.90773 0.0
C450 C 0.65114 0.77583 0.96372 0.0
C451 C 0.60694 0.76173 0.8994 0.0
C452 C 0.58561 0.76393 0.94725 0.0
C453 C 0.59739 0.7726 0.00345 0.0
C454 C 0.62989 0.77874 0.01151 0.0
C455 C 0.55099 0.75845 0.93722 0.0
C456 C 0.52899 0.78122 0.95732 0.0
C457 C 0.53987 0.73237 0.90324 0.0
C458 C 0.56083 0.70524 0.88735 0.0
C459 C 0.57873 0.68958 0.93139 0.0
C460 C 0.59855 0.66415 0.91635 0.0
C461 C 0.60055 0.65401 0.85741 0.0
C462 C 0.5827 0.66925 0.81341 0.0
C463 C 0.56286 0.69471 0.8282 0.0
H464 H 0.6159 0.63431 0.84586 0.0
H465 H 0.41627 0.86866 0.02242 0.0
H466 H 0.7213 0.15127 0.27271 0.0
H467 H 0.73217 0.09432 0.25771 0.0
H468 H 0.76471 0.11402 0.08 0.0
H469 H 0.7547 0.17073 0.0951 0.0
H470 H 0.71108 0.06512 0.10083 0.0
H471 H 0.81807 0.09673 0.15537 0.0
H472 H 0.85865 0.12032 0.22089 0.0
H473 H 0.83443 0.05397 0.35852 0.0
H474 H 0.79318 0.03038 0.29413 0.0
H475 H 0.77301 0.92303 0.98438 0.0
H476 H 0.76245 0.97743 0.01555 0.0
H477 H 0.76768 0.94864 0.19923 0.0
H478 H 0.77917 0.89413 0.16838 0.0
H479 H 0.79978 1.00146 0.18479 0.0
H480 H 0.69572 0.96721 0.13178 0.0
H481 H 0.65417 0.9429 0.06927 0.0
H482 H 0.67019 0.01327 0.93444 0.0
H483 H 0.71219 0.03776 -0.00421 0.0
C484 C 0.73128 0.14339 0.23091 0.0
C485 C 0.73742 0.16532 0.18522 0.0
C486 C 0.73747 0.11101 0.22243 0.0
C487 C 0.74926 0.10017 0.1678 0.0
C488 C 0.75576 0.12206 0.12252 0.0
C489 C 0.75022 0.15439 0.13135 0.0
C490 C 0.75286 0.06582 0.15603 0.0
C491 C 0.73057 0.05116 0.11874 0.0
C492 C 0.77772 0.04764 0.18116 0.0
C493 C 0.80217 0.06212 0.22023 0.0
C494 C 0.82103 0.08748 0.19991 0.0
C495 C 0.84426 0.10077 0.23677 0.0
C496 C 0.84906 0.08872 0.29392 0.0
C497 C 0.83063 0.06334 0.3143 0.0
C498 C 0.80731 0.05001 0.27764 0.0
C499 C 0.77154 0.92809 0.03145 0.0
C500 C 0.77681 0.90408 0.07383 0.0
C501 C 0.76542 0.95929 0.04925 0.0
C502 C 0.7639 0.96715 0.10981 0.0
C503 C 0.76873 0.94318 0.15227 0.0
C504 C 0.77511 0.91197 0.1345 0.0
C505 C 0.75821 1.00059 0.12847 0.0
C506 C 0.78003 0.01518 0.16721 0.0
C507 C 0.73265 0.0187 0.10522 0.0
C508 C 0.70729 0.00416 0.06822 0.0
C509 C 0.69054 0.97737 0.08862 0.0
C510 C 0.66689 0.96358 0.05342 0.0
C511 C 0.65959 0.97649 -0.00214 0.0
C512 C 0.67589 0.00328 0.97746 0.0
C513 C 0.6996 0.01715 0.01246 0.0
H514 H 0.64127 0.96577 0.97068 0.0
H515 H 0.86713 0.09896 0.32233 0.0
H516 H 0.33898 0.25881 0.32002 0.0
H517 H 0.39495 0.2688 0.29892 0.0
H518 H 0.41559 0.26989 0.48645 0.0
H519 H 0.35917 0.26066 0.50823 0.0
H520 H 0.44981 0.31609 0.42347 0.0
H521 H 0.42935 0.20415 0.41137 0.0
H522 H 0.40103 0.15614 0.3777 0.0
H523 H 0.42456 0.17798 0.19672 0.0
H524 H 0.45262 0.22642 0.22925 0.0
H525 H 0.61701 0.29462 0.38269 0.0
H526 H 0.56194 0.28758 0.41514 0.0
H527 H 0.53242 0.27593 0.23296 0.0
H528 H 0.58733 0.28223 0.2003 0.0
H529 H 0.50322 0.23428 0.30017 0.0
H530 H 0.52239 0.34685 0.31074 0.0
H531 H 0.5499 0.3956 0.34312 0.0
H532 H 0.52875 0.3736 0.525 0.0
H533 H 0.50138 0.3245 0.49379 0.0
C534 C 0.35515 0.26199 0.357 0.0
C535 C 0.34443 0.25889 0.41593 0.0
C536 C 0.38729 0.26737 0.34476 0.0
C537 C 0.40957 0.26961 0.39105 0.0
C538 C 0.39885 0.26809 0.45002 0.0
C539 C 0.36661 0.26262 0.46236 0.0
C540 C 0.44416 0.27166 0.37742 0.0
C541 C 0.46166 0.29801 0.39725 0.0
C542 C 0.4595 0.24831 0.34239 0.0
C543 C 0.44285 0.21907 0.32272 0.0
C544 C 0.42828 0.19885 0.36435 0.0
C545 C 0.4123 0.17154 0.34548 0.0
C546 C 0.41093 0.16405 0.2851 0.0
C547 C 0.42561 0.18383 0.24347 0.0
C548 C 0.44158 0.2112 0.2621 0.0
C549 C 0.59889 0.29017 0.34951 0.0
C550 C 0.60674 0.28905 0.28874 0.0
C551 C 0.5673 0.28646 0.36816 0.0
C552 C 0.54285 0.28178 0.32647 0.0
C553 C 0.55078 0.27966 0.26603 0.0
C554 C 0.58229 0.28328 0.24738 0.0
C555 C 0.50896 0.27901 0.34531 0.0
C556 C 0.49153 0.25239 0.32659 0.0
C557 C 0.49376 0.30221 0.38112 0.0
C558 C 0.51019 0.33176 0.39996 0.0
C559 C 0.52386 0.35224 0.35769 0.0
C560 C 0.5394 0.37997 0.37582 0.0
C561 C 0.54124 0.38759 0.4361 0.0
C562 C 0.52739 0.3676 0.47834 0.0
C563 C 0.51184 0.33983 0.46045 0.0
H564 H 0.55329 0.40903 0.45011 0.0
H565 H 0.39855 0.14289 0.27057 0.0
H566 H 0.25917 0.85828 0.74724 0.0
H567 H 0.24924 0.91545 0.73485 0.0
H568 H 0.30845 0.91596 0.57838 0.0
H569 H 0.31886 0.85941 0.59133 0.0
H570 H 0.3227 0.96487 0.64403 0.0
H571 H 0.22477 0.9177 0.57334 0.0
H572 H 0.17653 0.88463 0.58139 0.0
H573 H 0.14442 0.94074 0.72881 0.0
H574 H 0.1927 0.9739 0.72208 0.0
H575 H 0.27064 0.10181 0.486 0.0
H576 H 0.28446 0.04888 0.5226 0.0
H577 H 0.23166 0.06644 0.68318 0.0
H578 H 0.21802 0.11963 0.64748 0.0
H579 H 0.21419 0.01051 0.62877 0.0
H580 H 0.30982 0.06107 0.69199 0.0
H581 H 0.35751 0.09467 0.68162 0.0
H582 H 0.39357 0.03257 0.54626 0.0
H583 H 0.34586 0.9988 0.55523 0.0
C584 C 0.26983 0.87066 0.71008 0.0
C585 C 0.28995 0.85449 0.67052 0.0
C586 C 0.26417 0.90329 0.70298 0.0
C587 C 0.27804 0.92007 0.65552 0.0
C588 C 0.29772 0.9037 0.61563 0.0
C589 C 0.30362 0.87134 0.62305 0.0
C590 C 0.27245 0.95469 0.64688 0.0
C591 C 0.29894 0.97476 0.64023 0.0
C592 C 0.24151 0.96791 0.64367 0.0
C593 C 0.21249 0.94803 0.64764 0.0
C594 C 0.20753 0.92282 0.60775 0.0
C595 C 0.18017 0.90409 0.61203 0.0
C596 C 0.15747 0.91052 0.6557 0.0
C597 C 0.16205 0.93575 0.69508 0.0
C598 C 0.18939 0.95453 0.69104 0.0
C599 C 0.26253 0.09474 0.5297 0.0
C600 C 0.24305 0.11496 0.56357 0.0
C601 C 0.27044 0.06445 0.55055 0.0
C602 C 0.25897 0.05373 0.60558 0.0
C603 C 0.24064 0.07428 0.64057 0.0
C604 C 0.23302 0.10473 0.62011 0.0
C605 C 0.26441 0.02038 0.62458 0.0
C606 C 0.23792 1.00062 0.63323 0.0
C607 C 0.29533 0.00741 0.62934 0.0
C608 C 0.32415 0.02753 0.62399 0.0
C609 C 0.32781 0.0547 0.65969 0.0
C610 C 0.35486 0.07375 0.65413 0.0
C611 C 0.37853 0.06579 0.61323 0.0
C612 C 0.37521 0.03871 0.5779 0.0
C613 C 0.34819 0.01958 0.58327 0.0
H614 H 0.39946 0.08058 0.60898 0.0
H615 H 0.1363 0.896 0.65893 0.0
H616 H 0.9331 0.78656 0.04578 0.0
H617 H 0.98317 0.78374 0.99123 0.0
H618 H 0.93178 0.78223 0.82556 0.0
H619 H 0.88113 0.78601 0.88003 0.0
H620 H 0.98926 0.72891 0.87404 0.0
H621 H 0.96226 0.83475 0.80283 0.0
H622 H 0.94379 0.89005 0.81217 0.0
H623 H 0.01472 0.90774 0.94545 0.0
H624 H 0.03408 0.85254 0.93587 0.0
H625 H 0.13633 0.7252 0.7248 0.0
H626 H 0.08048 0.73931 0.74051 0.0
H627 H 0.10695 0.7949 0.89361 0.0
H628 H 0.16283 0.7811 0.87779 0.0
H629 H 0.05786 0.82256 0.8348 0.0
H630 H 0.08413 0.71769 0.90863 0.0
H631 H 0.10465 0.66299 0.89959 0.0
H632 H 0.03451 0.64265 0.76614 0.0
H633 H 0.01385 0.69742 0.77385 0.0
C634 C 0.93232 0.78554 -0.00226 0.0
C635 C 0.90311 0.78619 0.96723 0.0
C636 C 0.96098 0.78417 0.96668 0.0
C637 C 0.9611 0.78305 0.90453 0.0
C638 C 0.93208 0.78339 0.8736 0.0
C639 C 0.90324 0.78538 0.90474 0.0
C640 C 0.99188 0.77994 0.87327 0.0
C641 C 0.004 0.74935 0.86381 0.0
C642 C 0.01131 0.80662 0.86184 0.0
C643 C 0.99924 0.83942 0.86933 0.0
C644 C 0.97356 0.85027 0.83486 0.0
C645 C 0.963 0.88163 0.84005 0.0
C646 C 0.97772 0.90229 0.88006 0.0
C647 C 1.00324 0.89167 0.91464 0.0
C648 C 0.01413 0.8604 0.90911 0.0
C649 C 0.13028 0.74089 0.76117 0.0
C650 C 0.15394 0.75178 0.80041 0.0
C651 C 0.09837 0.74893 0.77012 0.0
C652 C 0.08945 0.76765 0.81894 0.0
C653 C 0.11325 0.78038 0.85569 0.0
C654 C 0.14522 0.77253 0.84652 0.0
C655 C 0.05538 0.77141 0.83526 0.0
C656 C 0.04288 0.80206 0.84315 0.0
C657 C 0.03556 0.74471 0.84548 0.0
C658 C 0.04768 0.7117 0.84135 0.0
C659 C 0.07322 0.70159 0.87711 0.0
C660 C 0.08486 0.67059 0.87225 0.0
C661 C 0.07095 0.64938 0.8322 0.0
C662 C 0.0453 0.65912 0.79706 0.0
C663 C 0.0336 0.69013 0.80167 0.0
H664 H 0.08 0.62538 0.82848 0.0
H665 H 0.96954 0.9266 0.88386 0.0
H666 H 0.71946 0.40399 0.09476 0.0
H667 H 0.7209 0.45889 0.05897 0.0
H668 H 0.73075 0.49227 0.23909 0.0
H669 H 0.72886 0.43754 0.27531 0.0
H670 H 0.68485 0.52518 0.17608 0.0
H671 H 0.79417 0.49081 0.147 0.0
H672 H 0.83551 0.45533 0.1065 0.0
H673 H 0.80387 0.47587 0.92918 0.0
H674 H 0.76208 0.51119 0.96872 0.0
H675 H 0.74044 0.68153 0.1545 0.0
H676 H 0.72853 0.6258 0.17154 0.0
H677 H 0.73574 0.60752 0.98344 0.0
H678 H 0.74872 0.66364 0.96636 0.0
H679 H 0.76788 0.56519 0.03874 0.0
H680 H 0.66208 0.60229 0.06233 0.0
H681 H 0.61875 0.63676 0.0983 0.0
H682 H 0.64007 0.61041 0.27824 0.0
H683 H 0.68362 0.57585 0.2434 0.0
C684 C 0.72201 0.423 0.12675 0.0
C685 C 0.72404 0.41637 0.18792 0.0
C686 C 0.72295 0.45436 0.10618 0.0
C687 C 0.726 0.47966 0.14637 0.0
C688 C 0.72833 0.47309 0.20734 0.0
C689 C 0.72753 0.44177 0.22792 0.0
C690 C 0.72645 0.51309 0.12527 0.0
C691 C 0.70313 0.53406 0.14642 0.0
C692 C 0.74947 0.52429 0.08456 0.0
C693 C 0.77482 0.50336 0.06084 0.0
C694 C 0.7959 0.48758 0.0994 0.0
C695 C 0.81944 0.46754 0.07662 0.0
C696 C 0.82226 0.46328 0.01532 0.0
C697 C 0.80163 0.47915 0.97665 0.0
C698 C 0.77804 0.49921 -0.00078 0.0
C699 C 0.73855 0.66591 0.11646 0.0
C700 C 0.74521 0.67708 0.05896 0.0
C701 C 0.73172 0.6339 0.12628 0.0
C702 C 0.73073 0.61233 0.07874 0.0
C703 C 0.73629 0.62365 0.02089 0.0
C704 C 0.74358 0.65571 0.0111 0.0
C705 C 0.72662 0.57774 0.09057 0.0
C706 C 0.74924 0.55642 0.06771 0.0
C707 C 0.70259 0.5661 0.12895 0.0
C708 C 0.67625 0.58663 0.15023 0.0
C709 C 0.65762 0.60395 0.10959 0.0
C710 C 0.63297 0.62345 0.12978 0.0
C711 C 0.62666 0.62575 0.19053 0.0
C712 C 0.64494 0.60851 0.2312 0.0
C713 C 0.66954 0.58889 0.21125 0.0
H714 H 0.60758 0.64088 0.2061 0.0
H715 H 0.84048 0.44773 -0.00223 0.0
H716 H 0.86512 0.27172 0.19148 0.0
H717 H 0.92227 0.26542 0.21262 0.0
H718 H 0.90249 0.26555 0.40043 0.0
H719 H 0.84569 0.27132 0.37974 0.0
H720 H 0.95083 0.30926 0.36352 0.0
H721 H 0.92126 0.19975 0.34587 0.0
H722 H 0.89861 0.15227 0.2979 0.0
H723 H 0.96527 0.16138 0.15457 0.0
H724 H 0.98801 0.20932 0.20128 0.0
H725 H 0.09143 0.2561 0.50266 0.0
H726 H 0.03803 0.26612 0.46532 0.0
H727 H 0.07008 0.24853 0.28643 0.0
H728 H 0.12377 0.23773 0.3238 0.0
H729 H 0.01674 0.21592 0.30917 0.0
H730 H 0.04913 0.32399 0.33303 0.0
H731 H 0.07232 0.36989 0.3855 0.0
H732 H 1.00042 0.36273 0.5201 0.0
H733 H 0.97704 0.31651 0.46888 0.0
C734 C 0.87302 0.26997 0.23717 0.0
C735 C 0.85092 0.27166 0.2839 0.0
C736 C 0.90558 0.26638 0.24919 0.0
C737 C 0.91657 0.26504 0.30811 0.0
C738 C 0.89451 0.26651 0.35469 0.0
C739 C 0.86204 0.26951 0.34274 0.0
C740 C 0.95111 0.2633 0.32172 0.0
C741 C 0.96525 0.2888 0.35194 0.0
C742 C 0.96999 0.2369 0.30538 0.0
C743 C 0.956 0.20844 0.2766 0.0
C744 C 0.9308 0.19192 0.3037 0.0
C745 C 0.91802 0.16484 0.27685 0.0
C746 C 0.93041 0.15387 0.2231 0.0
C747 C 0.95564 0.16996 0.19613 0.0
C748 C 0.96848 0.19709 0.22276 0.0
C749 C 0.08738 0.25488 0.45521 0.0
C750 C 0.112 0.24593 0.41634 0.0
C751 C 0.05673 0.26073 0.43384 0.0
C752 C 0.04993 0.25824 0.37295 0.0
C753 C 0.0747 0.25058 0.33361 0.0
C754 C 0.10549 0.24468 0.35502 0.0
C755 C 0.01659 0.26187 0.3514 0.0
C756 C 1.00256 0.23668 0.31985 0.0
C757 C 0.99774 0.28855 0.36668 0.0
C758 C 0.01145 0.31664 0.39726 0.0
C759 C 0.03837 0.33209 0.37399 0.0
C760 C 0.05153 0.35818 0.4035 0.0
C761 C 0.03789 0.36918 0.45616 0.0
C762 C 0.01097 0.35418 0.47931 0.0
C763 C 0.99772 0.32806 0.45001 0.0
H764 H 0.04815 0.38937 0.47897 0.0
H765 H 0.92054 0.13285 0.20246 0.0
H766 H 0.18229 0.361 0.65544 0.0
H767 H 0.19372 0.41732 0.66805 0.0
H768 H 0.25835 0.41414 0.51953 0.0
H769 H 0.24692 0.35731 0.50654 0.0
H770 H 0.28266 0.44839 0.61125 0.0
H771 H 0.18525 0.44669 0.50271 0.0
H772 H 0.13027 0.43008 0.48055 0.0
H773 H 0.09863 0.46969 0.64592 0.0
H774 H 0.15353 0.4861 0.66954 0.0
H775 H 0.28566 0.61926 0.59148 0.0
H776 H 0.27564 0.56387 0.56465 0.0
H777 H 0.2227 0.55064 0.72653 0.0
H778 H 0.2334 0.60582 0.75484 0.0
H779 H 0.19352 0.52569 0.6181 0.0
H780 H 0.29152 0.51951 0.73209 0.0
H781 H 0.34747 0.52899 0.76026 0.0
H782 H 0.37784 0.50366 0.58479 0.0
H783 H 0.32208 0.49343 0.55575 0.0
C784 C 0.19871 0.37228 0.62499 0.0
C785 C 0.21329 0.35478 0.57931 0.0
C786 C 0.20527 0.40451 0.63235 0.0
C787 C 0.22637 0.42014 0.59397 0.0
C788 C 0.2418 0.40259 0.5494 0.0
C789 C 0.23531 0.37016 0.54209 0.0
C790 C 0.23213 0.45477 0.60101 0.0
C791 C 0.26326 0.46541 0.61144 0.0
C792 C 0.20672 0.47689 0.60246 0.0
C793 C 0.17357 0.46745 0.58806 0.0
C794 C 0.16661 0.4517 0.53452 0.0
C795 C 0.13545 0.44233 0.52168 0.0
C796 C 0.11098 0.44878 0.56184 0.0
C797 C 0.11761 0.4647 0.61486 0.0
C798 C 0.14874 0.47407 0.62797 0.0
C799 C 0.2713 0.60484 0.62094 0.0
C800 C 0.26022 0.6171 0.67537 0.0
C801 C 0.26598 0.57304 0.6058 0.0
C802 C 0.24889 0.55309 0.64406 0.0
C803 C 0.2362 0.56565 0.69667 0.0
C804 C 0.24209 0.59725 0.71252 0.0
C805 C 0.24396 0.51917 0.62904 0.0
C806 C 0.21295 0.50872 0.61698 0.0
C807 C 0.2695 0.49729 0.62587 0.0
C808 C 0.3026 0.50616 0.64151 0.0
C809 C 0.31007 0.51645 0.69923 0.0
C810 C 0.34176 0.5217 0.71552 0.0
C811 C 0.36617 0.517 0.67438 0.0
C812 C 0.35891 0.50723 0.61667 0.0
C813 C 0.32729 0.50161 0.60031 0.0
H814 H 0.39067 0.52101 0.68721 0.0
H815 H 0.08687 0.44149 0.55183 0.0
H816 H 0.0461 0.12426 0.37433 0.0
H817 H 0.01035 0.08566 0.32701 0.0
H818 H 0.08452 0.0149 0.33363 0.0
H819 H 0.12009 0.05313 0.38145 0.0
H820 H 0.05982 0.02619 0.2187 0.0
H821 H 0.02373 0.99939 0.41348 0.0
H822 H 1.00027 0.00281 0.51358 0.0
H823 H 0.91565 0.04464 0.44047 0.0
H824 H 0.9386 0.04142 0.33981 0.0
H825 H 0.97607 0.88395 0.14398 0.0
H826 H 0.00862 0.92682 0.18543 0.0
H827 H 0.92914 0.99125 0.17054 0.0
H828 H 0.89653 0.94845 0.12881 0.0
H829 H 0.95484 0.98614 0.28534 0.0
H830 H 0.99053 0.00418 0.08703 0.0
H831 H 0.0119 0.98854 0.98946 0.0
H832 H 0.0985 0.95717 0.0721 0.0
H833 H 0.07743 0.97205 0.17041 0.0
C834 C 0.05441 0.10021 0.36695 0.0
C835 C 0.08579 0.09162 0.38151 0.0
C836 C 0.03403 0.07823 0.34005 0.0
C837 C 0.04493 0.04754 0.3266 0.0
C838 C 0.07573 0.0385 0.34364 0.0
C839 C 0.09591 0.06027 0.37136 0.0
C840 C 0.02542 0.02594 0.28969 0.0
C841 C 0.03697 0.01719 0.23343 0.0
C842 C 0.99532 0.01492 0.30839 0.0
C843 C 0.98304 0.02048 0.36918 0.0
C844 C 1.00038 0.00988 0.41884 0.0
C845 C 0.98704 0.01147 0.4756 0.0
C846 C 0.9564 0.0237 0.48323 0.0
C847 C 0.93931 0.03501 0.43437 0.0
C848 C 0.95246 0.03328 0.37747 0.0
C849 C 0.96585 0.90748 0.1483 0.0
C850 C 0.93387 0.91298 0.13337 0.0
C851 C 0.98443 0.93192 0.17176 0.0
C852 C 0.97121 0.96213 0.18102 0.0
C853 C 0.93972 0.96807 0.16355 0.0
C854 C 0.92124 0.94372 0.13939 0.0
C855 C 0.98924 0.98632 0.21464 0.0
C856 C 0.97745 0.9956 0.27021 0.0
C857 C 0.01923 0.99748 0.19555 0.0
C858 C 0.03227 0.98904 0.13628 0.0
C859 C 0.01404 0.99374 0.08453 0.0
C860 C 0.02611 0.98502 0.02904 0.0
C861 C 0.05651 0.97181 0.02459 0.0
C862 C 0.07494 0.96739 0.07562 0.0
C863 C 0.06295 0.97599 0.13125 0.0
H864 H 0.0658 0.96505 0.98161 0.0
H865 H 0.94592 0.02442 0.527 0.0
H866 H 0.59075 0.45209 0.32652 0.0
H867 H 0.54993 0.48263 0.37739 0.0
H868 H 0.60354 0.47648 0.54062 0.0
H869 H 0.6424 0.44297 0.49224 0.0
H870 H 0.5467 0.46512 0.56488 0.0
H871 H 0.5969 0.54681 0.44817 0.0
H872 H 0.61686 0.57147 0.35612 0.0
H873 H 0.52238 0.57165 0.28341 0.0
H874 H 0.50192 0.54651 0.37471 0.0
H875 H 0.46793 0.59675 0.71152 0.0
H876 H 0.50689 0.56184 0.66323 0.0
H877 H 0.43873 0.54012 0.52595 0.0
H878 H 0.3997 0.57449 0.57387 0.0
H879 H 0.50131 0.56593 0.48818 0.0
H880 H 0.4534 0.4802 0.60075 0.0
H881 H 0.43438 0.45175 0.68952 0.0
H882 H 0.52616 0.46214 0.77133 0.0
H883 H 0.5459 0.49019 0.68221 0.0
C884 C 0.59382 0.45694 0.37335 0.0
C885 C 0.6201 0.44487 0.40498 0.0
C886 C 0.57063 0.47496 0.40222 0.0
C887 C 0.57384 0.48231 0.46275 0.0
C888 C 0.60051 0.47117 0.49388 0.0
C889 C 0.62313 0.45239 0.46563 0.0
C890 C 0.5488 0.50017 0.49482 0.0
C891 C 0.53731 0.48749 0.54845 0.0
C892 C 0.53574 0.52889 0.47273 0.0
C893 C 0.54792 0.54453 0.41815 0.0
C894 C 0.5804 0.55196 0.41244 0.0
C895 C 0.59181 0.56604 0.36039 0.0
C896 C 0.57091 0.57308 0.31389 0.0
C897 C 0.53854 0.56616 0.31944 0.0
C898 C 0.52702 0.55202 0.37136 0.0
C899 C 0.46114 0.58407 0.67164 0.0
C900 C 0.4308 0.58825 0.64658 0.0
C901 C 0.48331 0.56418 0.64426 0.0
C902 C 0.47554 0.5487 0.59105 0.0
C903 C 0.44501 0.55197 0.56701 0.0
C904 C 0.42273 0.57141 0.59476 0.0
C905 C 0.5 0.53101 0.55807 0.0
C906 C 0.51118 0.54372 0.50442 0.0
C907 C 0.51314 0.50262 0.58034 0.0
C908 C 0.50102 0.48741 0.63511 0.0
C909 C 0.46942 0.47668 0.63791 0.0
C910 C 0.45858 0.46049 0.68813 0.0
C911 C 0.47908 0.45514 0.73603 0.0
C912 C 0.51038 0.46622 0.73405 0.0
C913 C 0.52145 0.48212 0.68359 0.0
H914 H 0.47083 0.44215 0.77443 0.0
H915 H 0.57976 0.58393 0.27359 0.0
H916 H 0.0314 0.10873 0.51722 0.0
H917 H 0.98783 0.07266 0.54219 0.0
H918 H 0.03596 0.04659 0.70444 0.0
H919 H 0.07856 0.08352 0.68152 0.0
H920 H 0.01503 0.99493 0.64649 0.0
H921 H 0.97314 0.09924 0.70127 0.0
H922 H 0.9572 0.15436 0.67859 0.0
H923 H 0.89064 0.12049 0.54842 0.0
H924 H 0.9064 0.06518 0.57001 0.0
H925 H 0.90699 0.94403 0.86176 0.0
H926 H 0.94207 0.97751 0.80281 0.0
H927 H 0.88166 0.96473 0.64993 0.0
H928 H 0.84709 0.92942 0.70774 0.0
H929 H 0.90429 0.03175 0.67959 0.0
H930 H 0.94091 0.92734 0.63468 0.0
H931 H 0.95854 0.87223 0.65214 0.0
H932 H 0.03556 0.9059 0.76045 0.0
H933 H 0.01812 0.96123 0.74438 0.0
C934 C 0.03258 0.0954 0.55833 0.0
C935 C 0.05858 0.09887 0.59717 0.0
C936 C 0.00779 0.07458 0.57228 0.0
C937 C 0.00881 0.05667 0.62489 0.0
C938 C 0.03488 0.05988 0.66324 0.0
C939 C 0.05937 0.08088 0.6498 0.0
C940 C 0.98285 0.03468 0.64151 0.0
C941 C 0.99084 0.003 0.65389 0.0
C942 C 0.95104 0.04495 0.64892 0.0
C943 C 0.9412 0.07813 0.63677 0.0
C944 C 0.95523 0.10358 0.66759 0.0
C945 C 0.94621 0.13484 0.65498 0.0
C946 C 0.92299 0.14093 0.61197 0.0
C947 C 0.90866 0.11575 0.58165 0.0
C948 C 0.91761 0.08444 0.5941 0.0
C949 C 0.90115 0.94801 0.8155 0.0
C950 C 0.8744 0.93356 0.78935 0.0
C951 C 0.92116 0.96734 0.78202 0.0
C952 C 0.91452 0.97323 0.72206 0.0
C953 C 0.88709 0.96029 0.69624 0.0
C954 C 0.86728 0.94035 0.72951 0.0
C955 C 0.93697 0.99251 0.68695 0.0
C956 C 0.92835 0.02357 0.67113 0.0
C957 C 0.96829 0.98173 0.67642 0.0
C958 C 0.97807 0.94845 0.68855 0.0
C959 C 0.96137 0.92299 0.66283 0.0
C960 C 0.97144 0.89172 0.67221 0.0
C961 C 0.9983 0.8856 0.70698 0.0
C962 C 0.01493 0.91071 0.73309 0.0
C963 C 0.00493 0.94203 0.72392 0.0
H964 H 0.00613 0.86138 0.71402 0.0
H965 H 0.91604 0.16515 0.60224 0.0
H966 H 0.60048 0.39514 0.9244 0.0
H967 H 0.5593 0.42974 0.88301 0.0
H968 H 0.49396 0.39898 0.0189 0.0
H969 H 0.53512 0.36439 0.06084 0.0
H970 H 0.46414 0.40671 0.91098 0.0
H971 H 0.53321 0.46613 0.0382 0.0
H972 H 0.58433 0.48646 0.07618 0.0
H973 H 0.60304 0.5307 0.90791 0.0
H974 H 0.55221 0.51016 0.86859 0.0
H975 H 0.36107 0.54137 0.91753 0.0
H976 H 0.39804 0.49818 0.93983 0.0
H977 H 0.4611 0.53154 0.80215 0.0
H978 H 0.42415 0.57499 0.78001 0.0
H979 H 0.49195 0.52123 0.90597 0.0
H980 H 0.41488 0.46854 0.78766 0.0
H981 H 0.36242 0.44913 0.75633 0.0
H982 H 0.35533 0.39335 0.91546 0.0
H983 H 0.40771 0.41282 0.9484 0.0
C984 C 0.57727 0.39556 0.94525 0.0
C985 C 0.57118 0.37733 -0.00362 0.0
C986 C 0.55375 0.41526 0.92144 0.0
C987 C 0.52375 0.41729 0.94846 0.0
C988 C 0.51697 0.39776 -0.00261 0.0
C989 C 0.5405 0.37797 0.02123 0.0
C990 C 0.50043 0.4415 0.92846 0.0
C991 C 0.46995 0.43181 0.91046 0.0
C992 C 0.50837 0.47416 0.92696 0.0
C993 C 0.5391 0.48627 0.95023 0.0
C994 C 0.54838 0.47991 0.00909 0.0
C995 C 0.57727 0.49152 0.0309 0.0
C996 C 0.59697 0.50978 -0.00558 0.0
C997 C 0.58779 0.51649 0.93607 0.0
C998 C 0.55895 0.50487 0.91399 0.0
C999 C 0.38253 0.53918 0.8913 0.0
C1000 C 0.38976 0.56153 0.8469 0.0
C1001 C 0.40367 0.51455 0.90421 0.0
C1002 C 0.43224 0.51161 0.87251 0.0
C1003 C 0.43923 0.5335 0.82732 0.0
C1004 C 0.41816 0.55825 0.81465 0.0
C1005 C 0.45548 0.48656 0.88844 0.0
C1006 C 0.48601 0.49614 0.90599 0.0
C1007 C 0.44721 0.45394 0.89045 0.0
C1008 C 0.41548 0.44224 0.87064 0.0
C1009 C 0.40225 0.45221 0.81621 0.0
C1010 C 0.37242 0.44121 0.79812 0.0
C1011 C 0.35554 0.42 0.83386 0.0
C1012 C 0.36846 0.40977 0.88778 0.0
C1013 C 0.39826 0.42078 0.90616 0.0
H1014 H 0.33244 0.41147 0.81977 0.0
H1015 H 0.61931 0.5188 0.01143 0.0
loop_
_geom_bond_atom_site_label_1
_geom_bond_atom_site_label_2
_geom_bond_distance
_geom_bond_site_symmetry_2
_ccdc_geom_bond_type
Cd0 N3 2.334 . S
Cd0 N29 2.304 . S
Cd0 O36 2.268 . S
Cd0 O39 2.273 . S
Cd0 O40 2.417 . S
Cd0 O41 2.330 . S
Cd1 N16 2.304 . S
Cd1 N20 2.334 . S
Cd1 O37 2.273 . S
Cd1 O38 2.268 . S
Cd1 O42 2.417 . S
Cd1 O43 2.330 . S
C2 N3 1.332 . S
C2 C6 1.381 . S
C2 H8 0.931 . S
N3 Cd0 2.334 . S
N3 C2 1.332 . S
N3 C7 1.328 . S
C4 C5 1.396 . S
C4 C7 1.378 . S
C4 H46 0.931 . S
C5 C4 1.396 . S
C5 C6 1.382 . S
C6 C2 1.381 . S
C6 C5 1.382 . S
C6 H47 0.930 . S
C7 N3 1.328 . S
C7 C4 1.378 . S
C7 H9 0.930 . S
H8 C2 0.931 . S
H9 C7 0.930 . S
C10 O36 1.238 . S
C10 O37 1.253 1_554 S
C11 C12 1.379 . S
C11 N16 1.337 . S
C11 H17 0.929 . S
C12 C11 1.379 . S
C12 C13 1.380 . S
C12 H48 0.929 . S
C13 C12 1.380 . S
C13 C14 1.399 . S
C14 C13 1.399 . S
C14 C15 1.376 . S
C14 H49 0.931 . S
C15 C14 1.376 . S
C15 N16 1.338 . S
C15 H18 0.930 . S
N16 Cd1 2.304 . S
N16 C11 1.337 . S
N16 C15 1.338 . S
H17 C11 0.929 . S
H18 C15 0.930 . S
C19 N20 1.332 . S
C19 C23 1.381 . S
C19 H25 0.931 . S
N20 Cd1 2.334 . S
N20 C19 1.332 . S
N20 C24 1.328 . S
C21 C22 1.396 . S
C21 C24 1.378 . S
C21 H50 0.931 . S
C22 C21 1.396 . S
C22 C23 1.382 . S
C23 C19 1.381 . S
C23 C22 1.382 . S
C23 H51 0.930 . S
C24 N20 1.328 . S
C24 C21 1.378 . S
C24 H26 0.930 . S
H25 C19 0.931 . S
H26 C24 0.930 . S
C27 O38 1.238 . S
C27 O39 1.253 1_556 S
C28 O40 1.239 . S
C28 O41 1.230 . S
N29 Cd0 2.304 . S
N29 C30 1.337 . S
N29 C34 1.338 . S
C30 N29 1.337 . S
C30 C31 1.379 . S
C30 H44 0.929 . S
C31 C30 1.379 . S
C31 C32 1.380 . S
C31 H52 0.929 . S
C32 C31 1.380 . S
C32 C33 1.399 . S
C33 C32 1.399 . S
C33 C34 1.376 . S
C33 H53 0.931 . S
C34 N29 1.338 . S
C34 C33 1.376 . S
C34 H45 0.930 . S
C35 O42 1.239 . S
C35 O43 1.230 . S
O36 Cd0 2.268 . S
O36 C10 1.238 . S
O37 Cd1 2.273 . S
O37 C10 1.253 1_556 S
O38 Cd1 2.268 . S
O38 C27 1.238 . S
O39 Cd0 2.273 . S
O39 C27 1.253 1_554 S
O40 Cd0 2.417 . S
O40 C28 1.239 . S
O41 Cd0 2.330 . S
O41 C28 1.230 . S
O42 Cd1 2.417 . S
O42 C35 1.239 . S
O43 Cd1 2.330 . S
O43 C35 1.230 . S
H44 C30 0.929 . S
H45 C34 0.930 . S
H46 C4 0.931 . S
H47 C6 0.930 . S
H48 C12 0.929 . S
H49 C14 0.931 . S
H50 C21 0.931 . S
H51 C23 0.930 . S
H52 C31 0.929 . S
H53 C33 0.931 . S
Cd54 N57 2.334 . S
Cd54 N83 2.304 . S
Cd54 O90 2.268 . S
Cd54 O93 2.273 . S
Cd54 O94 2.417 . S
Cd54 O95 2.330 . S
Cd55 N70 2.304 . S
Cd55 N74 2.334 . S
Cd55 O91 2.273 . S
Cd55 O92 2.268 . S
Cd55 O96 2.417 . S
Cd55 O97 2.330 . S
C56 N57 1.332 . S
C56 C60 1.381 . S
C56 H62 0.931 . S
N57 Cd54 2.334 . S
N57 C56 1.332 . S
N57 C61 1.328 . S
C58 C59 1.396 . S
C58 C61 1.378 . S
C58 H100 0.931 . S
C59 C58 1.396 . S
C59 C60 1.382 . S
C60 C56 1.381 . S
C60 C59 1.382 . S
C60 H101 0.930 . S
C61 N57 1.328 . S
C61 C58 1.378 . S
C61 H63 0.930 . S
H62 C56 0.931 . S
H63 C61 0.930 . S
C64 O90 1.238 . S
C64 O91 1.253 . S
C65 C66 1.379 . S
C65 N70 1.337 . S
C65 H71 0.929 . S
C66 C65 1.379 . S
C66 C67 1.380 . S
C66 H102 0.929 . S
C67 C66 1.380 . S
C67 C68 1.399 . S
C68 C67 1.399 . S
C68 C69 1.376 . S
C68 H103 0.931 . S
C69 C68 1.376 . S
C69 N70 1.338 . S
C69 H72 0.930 . S
N70 Cd55 2.304 . S
N70 C65 1.337 . S
N70 C69 1.338 . S
H71 C65 0.929 . S
H72 C69 0.930 . S
C73 N74 1.332 . S
C73 C77 1.381 . S
C73 H79 0.931 . S
N74 Cd55 2.334 . S
N74 C73 1.332 . S
N74 C78 1.328 . S
C75 C76 1.396 . S
C75 C78 1.378 . S
C75 H104 0.931 . S
C76 C75 1.396 . S
C76 C77 1.382 . S
C77 C73 1.381 . S
C77 C76 1.382 . S
C77 H105 0.930 . S
C78 N74 1.328 . S
C78 C75 1.378 . S
C78 H80 0.930 . S
H79 C73 0.931 . S
H80 C78 0.930 . S
C81 O92 1.238 . S
C81 O93 1.253 . S
C82 O94 1.239 . S
C82 O95 1.230 . S
N83 Cd54 2.304 . S
N83 C84 1.337 . S
N83 C88 1.338 . S
C84 N83 1.337 . S
C84 C85 1.379 . S
C84 H98 0.929 . S
C85 C84 1.379 . S
C85 C86 1.380 . S
C85 H106 0.929 . S
C86 C85 1.380 . S
C86 C87 1.399 . S
C87 C86 1.399 . S
C87 C88 1.376 . S
C87 H107 0.931 . S
C88 N83 1.338 . S
C88 C87 1.376 . S
C88 H99 0.930 . S
C89 O96 1.239 . S
C89 O97 1.230 . S
O90 Cd54 2.268 . S
O90 C64 1.238 . S
O91 Cd55 2.273 . S
O91 C64 1.253 . S
O92 Cd55 2.268 . S
O92 C81 1.238 . S
O93 Cd54 2.273 . S
O93 C81 1.253 . S
O94 Cd54 2.417 . S
O94 C82 1.239 . S
O95 Cd54 2.330 . S
O95 C82 1.230 . S
O96 Cd55 2.417 . S
O96 C89 1.239 . S
O97 Cd55 2.330 . S
O97 C89 1.230 . S
H98 C84 0.929 . S
H99 C88 0.930 . S
H100 C58 0.931 . S
H101 C60 0.930 . S
H102 C66 0.929 . S
H103 C68 0.931 . S
H104 C75 0.931 . S
H105 C77 0.930 . S
H106 C85 0.929 . S
H107 C87 0.931 . S
Cd108 N111 2.334 . S
Cd108 N137 2.304 . S
Cd108 O144 2.268 . S
Cd108 O147 2.273 . S
Cd108 O148 2.417 . S
Cd108 O149 2.330 . S
Cd109 N124 2.304 . S
Cd109 N128 2.334 . S
Cd109 O145 2.273 . S
Cd109 O146 2.268 . S
Cd109 O150 2.417 . S
Cd109 O151 2.330 . S
C110 N111 1.332 . S
C110 C114 1.381 . S
C110 H116 0.931 . S
N111 Cd108 2.334 . S
N111 C110 1.332 . S
N111 C115 1.328 . S
C112 C113 1.396 . S
C112 C115 1.378 . S
C112 H154 0.931 . S
C113 C112 1.396 . S
C113 C114 1.382 . S
C114 C110 1.381 . S
C114 C113 1.382 . S
C114 H155 0.930 . S
C115 N111 1.328 . S
C115 C112 1.378 . S
C115 H117 0.930 . S
H116 C110 0.931 . S
H117 C115 0.930 . S
C118 O144 1.238 . S
C118 O145 1.253 . S
C119 C120 1.379 . S
C119 N124 1.337 . S
C119 H125 0.929 . S
C120 C119 1.379 . S
C120 C121 1.380 . S
C120 H156 0.929 . S
C121 C120 1.380 . S
C121 C122 1.399 . S
C122 C121 1.399 . S
C122 C123 1.376 . S
C122 H157 0.931 . S
C123 C122 1.376 . S
C123 N124 1.338 . S
C123 H126 0.930 . S
N124 Cd109 2.304 . S
N124 C119 1.337 . S
N124 C123 1.338 . S
H125 C119 0.929 . S
H126 C123 0.930 . S
C127 N128 1.332 . S
C127 C131 1.381 . S
C127 H133 0.931 . S
N128 Cd109 2.334 . S
N128 C127 1.332 . S
N128 C132 1.328 . S
C129 C130 1.396 . S
C129 C132 1.378 . S
C129 H158 0.931 . S
C130 C129 1.396 . S
C130 C131 1.382 . S
C131 C127 1.381 . S
C131 C130 1.382 . S
C131 H159 0.930 . S
C132 N128 1.328 . S
C132 C129 1.378 . S
C132 H134 0.930 . S
H133 C127 0.931 . S
H134 C132 0.930 . S
C135 O146 1.238 . S
C135 O147 1.253 . S
C136 O148 1.239 . S
C136 O149 1.230 . S
N137 Cd108 2.304 . S
N137 C138 1.337 . S
N137 C142 1.338 . S
C138 N137 1.337 . S
C138 C139 1.379 . S
C138 H152 0.929 . S
C139 C138 1.379 . S
C139 C140 1.380 . S
C139 H160 0.929 . S
C140 C139 1.380 . S
C140 C141 1.399 . S
C141 C140 1.399 . S
C141 C142 1.376 . S
C141 H161 0.931 . S
C142 N137 1.338 . S
C142 C141 1.376 . S
C142 H153 0.930 . S
C143 O150 1.239 . S
C143 O151 1.230 . S
O144 Cd108 2.268 . S
O144 C118 1.238 . S
O145 Cd109 2.273 . S
O145 C118 1.253 . S
O146 Cd109 2.268 . S
O146 C135 1.238 . S
O147 Cd108 2.273 . S
O147 C135 1.253 . S
O148 Cd108 2.417 . S
O148 C136 1.239 . S
O149 Cd108 2.330 . S
O149 C136 1.230 . S
O150 Cd109 2.417 . S
O150 C143 1.239 . S
O151 Cd109 2.330 . S
O151 C143 1.230 . S
H152 C138 0.929 . S
H153 C142 0.930 . S
H154 C112 0.931 . S
H155 C114 0.930 . S
H156 C120 0.929 . S
H157 C122 0.931 . S
H158 C129 0.931 . S
H159 C131 0.930 . S
H160 C139 0.929 . S
H161 C141 0.931 . S
Cd162 N165 2.334 . S
Cd162 N191 2.304 . S
Cd162 O198 2.268 . S
Cd162 O201 2.273 . S
Cd162 O202 2.417 . S
Cd162 O203 2.330 . S
Cd163 N178 2.304 . S
Cd163 N182 2.334 . S
Cd163 O199 2.273 . S
Cd163 O200 2.268 . S
Cd163 O204 2.417 . S
Cd163 O205 2.330 . S
C164 N165 1.332 . S
C164 C168 1.381 . S
C164 H170 0.931 . S
N165 Cd162 2.334 . S
N165 C164 1.332 . S
N165 C169 1.328 . S
C166 C167 1.396 . S
C166 C169 1.378 . S
C166 H208 0.931 . S
C167 C166 1.396 . S
C167 C168 1.382 . S
C168 C164 1.381 . S
C168 C167 1.382 . S
C168 H209 0.930 . S
C169 N165 1.328 . S
C169 C166 1.378 . S
C169 H171 0.930 . S
H170 C164 0.931 . S
H171 C169 0.930 . S
C172 O198 1.238 . S
C172 O199 1.253 . S
C173 C174 1.379 . S
C173 N178 1.337 . S
C173 H179 0.929 . S
C174 C173 1.379 . S
C174 C175 1.380 . S
C174 H210 0.929 . S
C175 C174 1.380 . S
C175 C176 1.399 . S
C176 C175 1.399 . S
C176 C177 1.376 . S
C176 H211 0.931 . S
C177 C176 1.376 . S
C177 N178 1.338 . S
C177 H180 0.930 . S
N178 Cd163 2.304 . S
N178 C173 1.337 . S
N178 C177 1.338 . S
H179 C173 0.929 . S
H180 C177 0.930 . S
C181 N182 1.332 . S
C181 C185 1.381 . S
C181 H187 0.931 . S
N182 Cd163 2.334 . S
N182 C181 1.332 . S
N182 C186 1.328 . S
C183 C184 1.396 . S
C183 C186 1.378 . S
C183 H212 0.931 . S
C184 C183 1.396 . S
C184 C185 1.382 . S
C185 C181 1.381 . S
C185 C184 1.382 . S
C185 H213 0.930 . S
C186 N182 1.328 . S
C186 C183 1.378 . S
C186 H188 0.930 . S
H187 C181 0.931 . S
H188 C186 0.930 . S
C189 O200 1.238 . S
C189 O201 1.253 . S
C190 O202 1.239 . S
C190 O203 1.230 . S
N191 Cd162 2.304 . S
N191 C192 1.337 . S
N191 C196 1.338 . S
C192 N191 1.337 . S
C192 C193 1.379 . S
C192 H206 0.929 . S
C193 C192 1.379 . S
C193 C194 1.380 . S
C193 H214 0.929 . S
C194 C193 1.380 . S
C194 C195 1.399 . S
C195 C194 1.399 . S
C195 C196 1.376 . S
C195 H215 0.931 . S
C196 N191 1.338 . S
C196 C195 1.376 . S
C196 H207 0.930 . S
C197 O204 1.239 . S
C197 O205 1.230 . S
O198 Cd162 2.268 . S
O198 C172 1.238 . S
O199 Cd163 2.273 . S
O199 C172 1.253 . S
O200 Cd163 2.268 . S
O200 C189 1.238 . S
O201 Cd162 2.273 . S
O201 C189 1.253 . S
O202 Cd162 2.417 . S
O202 C190 1.239 . S
O203 Cd162 2.330 . S
O203 C190 1.230 . S
O204 Cd163 2.417 . S
O204 C197 1.239 . S
O205 Cd163 2.330 . S
O205 C197 1.230 . S
H206 C192 0.929 . S
H207 C196 0.930 . S
H208 C166 0.931 . S
H209 C168 0.930 . S
H210 C174 0.929 . S
H211 C176 0.931 . S
H212 C183 0.931 . S
H213 C185 0.930 . S
H214 C193 0.929 . S
H215 C195 0.931 . S
H216 C234 0.951 . S
H217 C236 0.951 . S
H218 C238 0.950 . S
H219 C239 0.950 . S
H220 C241 0.950 . S
H221 C244 0.950 . S
H222 C245 0.950 . S
H223 C247 0.950 . S
H224 C248 0.950 . S
H225 C249 0.951 . S
H226 C251 0.951 . S
H227 C253 0.950 . S
H228 C254 0.950 . S
H229 C256 0.950 . S
H230 C259 0.950 . S
H231 C260 0.950 . S
H232 C262 0.950 . S
H233 C263 0.950 . S
C234 H216 0.951 . S
C234 C235 1.366 . S
C234 C236 1.388 . S
C235 C234 1.366 . S
C235 C239 1.385 . S
C236 H217 0.951 . S
C236 C234 1.388 . S
C236 C237 1.366 . S
C237 C236 1.366 . S
C237 C238 1.414 . S
C237 C240 1.499 . S
C238 H218 0.950 . S
C238 C237 1.414 . S
C238 C239 1.374 . S
C239 H219 0.950 . S
C239 C235 1.385 . S
C239 C238 1.374 . S
C240 C237 1.499 . S
C240 C241 1.373 . S
C240 C242 1.389 . S
C241 H220 0.950 . S
C241 C240 1.373 . S
C241 C257 1.377 . S
C242 C240 1.389 . S
C242 C243 1.524 . S
C242 C256 1.377 . S
C243 C242 1.524 . S
C243 C244 1.397 . S
C243 C248 1.363 . S
C244 H221 0.950 . S
C244 C243 1.397 . S
C244 C245 1.334 . S
C245 H222 0.950 . S
C245 C244 1.334 . S
C245 C246 1.287 . S
C246 C245 1.287 . S
C246 C247 1.524 . S
C246 H265 0.913 . S
C247 H223 0.950 . S
C247 C246 1.524 . S
C247 C248 1.415 . S
C248 H224 0.950 . S
C248 C243 1.363 . S
C248 C247 1.415 . S
C249 H225 0.951 . S
C249 C250 1.366 . S
C249 C251 1.388 . S
C250 C249 1.366 . S
C250 C254 1.385 . S
C251 H226 0.951 . S
C251 C249 1.388 . S
C251 C252 1.366 . S
C252 C251 1.366 . S
C252 C253 1.414 . S
C252 C255 1.499 . S
C253 H227 0.950 . S
C253 C252 1.414 . S
C253 C254 1.374 . S
C254 H228 0.950 . S
C254 C250 1.385 . S
C254 C253 1.374 . S
C255 C252 1.499 . S
C255 C256 1.373 . S
C255 C257 1.389 . S
C256 H229 0.950 . S
C256 C242 1.377 . S
C256 C255 1.373 . S
C257 C241 1.377 . S
C257 C255 1.389 . S
C257 C258 1.524 . S
C258 C257 1.524 . S
C258 C259 1.397 . S
C258 C263 1.363 . S
C259 H230 0.950 . S
C259 C258 1.397 . S
C259 C260 1.334 . S
C260 H231 0.950 . S
C260 C259 1.334 . S
C260 C261 1.287 . S
C261 C260 1.287 . S
C261 C262 1.524 . S
C261 H264 0.999 . S
C262 H232 0.950 . S
C262 C261 1.524 . S
C262 C263 1.415 . S
C263 H233 0.950 . S
C263 C258 1.363 . S
C263 C262 1.415 . S
H264 C261 0.999 . S
H265 C246 0.913 . S
H266 C284 0.951 . S
H267 C286 0.951 . S
H268 C288 0.950 . S
H269 C289 0.950 . S
H270 C291 0.950 . S
H271 C294 0.950 . S
H272 C295 0.950 . S
H273 C297 0.950 . S
H274 C298 0.950 . S
H275 C299 0.951 . S
H276 C301 0.951 . S
H277 C303 0.950 . S
H278 C304 0.950 1_554 S
H279 C306 0.950 . S
H280 C309 0.950 . S
H281 C310 0.950 . S
H282 C312 0.950 . S
H283 C313 0.950 . S
C284 H266 0.951 . S
C284 C285 1.366 . S
C284 C286 1.388 . S
C285 C284 1.366 . S
C285 C289 1.385 . S
C286 H267 0.951 . S
C286 C284 1.388 . S
C286 C287 1.366 . S
C287 C286 1.366 . S
C287 C288 1.414 . S
C287 C290 1.499 . S
C288 H268 0.950 . S
C288 C287 1.414 . S
C288 C289 1.374 . S
C289 H269 0.950 . S
C289 C285 1.385 . S
C289 C288 1.374 . S
C290 C287 1.499 . S
C290 C291 1.373 . S
C290 C292 1.389 . S
C291 H270 0.950 . S
C291 C290 1.373 . S
C291 C307 1.377 . S
C292 C290 1.389 . S
C292 C293 1.524 . S
C292 C306 1.377 . S
C293 C292 1.524 . S
C293 C294 1.397 . S
C293 C298 1.363 . S
C294 H271 0.950 . S
C294 C293 1.397 . S
C294 C295 1.334 . S
C295 H272 0.950 . S
C295 C294 1.334 . S
C295 C296 1.287 . S
C296 C295 1.287 . S
C296 C297 1.524 . S
C296 H315 0.913 . S
C297 H273 0.950 . S
C297 C296 1.524 . S
C297 C298 1.415 . S
C298 H274 0.950 . S
C298 C293 1.363 . S
C298 C297 1.415 . S
C299 H275 0.951 . S
C299 C300 1.366 1_556 S
C299 C301 1.388 . S
C300 C299 1.366 1_554 S
C300 C304 1.385 1_554 S
C301 H276 0.951 . S
C301 C299 1.388 . S
C301 C302 1.366 . S
C302 C301 1.366 . S
C302 C303 1.414 . S
C302 C305 1.499 . S
C303 H277 0.950 . S
C303 C302 1.414 . S
C303 C304 1.374 . S
C304 H278 0.950 1_556 S
C304 C300 1.385 1_556 S
C304 C303 1.374 . S
C305 C302 1.499 . S
C305 C306 1.373 . S
C305 C307 1.389 . S
C306 H279 0.950 . S
C306 C292 1.377 . S
C306 C305 1.373 . S
C307 C291 1.377 . S
C307 C305 1.389 . S
C307 C308 1.524 . S
C308 C307 1.524 . S
C308 C309 1.397 . S
C308 C313 1.363 . S
C309 H280 0.950 . S
C309 C308 1.397 . S
C309 C310 1.334 . S
C310 H281 0.950 . S
C310 C309 1.334 . S
C310 C311 1.287 . S
C311 C310 1.287 . S
C311 C312 1.524 . S
C311 H314 0.999 . S
C312 H282 0.950 . S
C312 C311 1.524 . S
C312 C313 1.415 . S
C313 H283 0.950 . S
C313 C308 1.363 . S
C313 C312 1.415 . S
H314 C311 0.999 . S
H315 C296 0.913 . S
H316 C334 0.951 . S
H317 C336 0.951 . S
H318 C338 0.950 . S
H319 C339 0.950 . S
H320 C341 0.950 . S
H321 C344 0.950 . S
H322 C345 0.950 . S
H323 C347 0.950 . S
H324 C348 0.950 . S
H325 C349 0.951 . S
H326 C351 0.951 . S
H327 C353 0.950 . S
H328 C354 0.950 . S
H329 C356 0.950 . S
H330 C359 0.950 . S
H331 C360 0.950 . S
H332 C362 0.950 . S
H333 C363 0.950 . S
C334 H316 0.951 . S
C334 C335 1.366 . S
C334 C336 1.388 . S
C335 C334 1.366 . S
C335 C339 1.385 . S
C336 H317 0.951 . S
C336 C334 1.388 . S
C336 C337 1.366 . S
C337 C336 1.366 . S
C337 C338 1.414 . S
C337 C340 1.499 . S
C338 H318 0.950 . S
C338 C337 1.414 . S
C338 C339 1.374 . S
C339 H319 0.950 . S
C339 C335 1.385 . S
C339 C338 1.374 . S
C340 C337 1.499 . S
C340 C341 1.373 . S
C340 C342 1.389 . S
C341 H320 0.950 . S
C341 C340 1.373 . S
C341 C357 1.377 1_556 S
C342 C340 1.389 . S
C342 C343 1.524 . S
C342 C356 1.377 1_556 S
C343 C342 1.524 . S
C343 C344 1.397 . S
C343 C348 1.363 . S
C344 H321 0.950 . S
C344 C343 1.397 . S
C344 C345 1.334 . S
C345 H322 0.950 . S
C345 C344 1.334 . S
C345 C346 1.287 . S
C346 C345 1.287 . S
C346 C347 1.524 . S
C346 H365 0.913 . S
C347 H323 0.950 . S
C347 C346 1.524 . S
C347 C348 1.415 . S
C348 H324 0.950 . S
C348 C343 1.363 . S
C348 C347 1.415 . S
C349 H325 0.951 . S
C349 C350 1.366 . S
C349 C351 1.388 . S
C350 C349 1.366 . S
C350 C354 1.385 . S
C351 H326 0.951 . S
C351 C349 1.388 . S
C351 C352 1.366 . S
C352 C351 1.366 . S
C352 C353 1.414 . S
C352 C355 1.499 . S
C353 H327 0.950 . S
C353 C352 1.414 . S
C353 C354 1.374 . S
C354 H328 0.950 . S
C354 C350 1.385 . S
C354 C353 1.374 . S
C355 C352 1.499 . S
C355 C356 1.373 . S
C355 C357 1.389 . S
C356 H329 0.950 . S
C356 C342 1.377 1_554 S
C356 C355 1.373 . S
C357 C341 1.377 1_554 S
C357 C355 1.389 . S
C357 C358 1.524 . S
C358 C357 1.524 . S
C358 C359 1.397 . S
C358 C363 1.363 . S
C359 H330 0.950 . S
C359 C358 1.397 . S
C359 C360 1.334 . S
C360 H331 0.950 . S
C360 C359 1.334 . S
C360 C361 1.287 . S
C361 C360 1.287 . S
C361 C362 1.524 . S
C361 H364 0.999 . S
C362 H332 0.950 . S
C362 C361 1.524 . S
C362 C363 1.415 . S
C363 H333 0.950 . S
C363 C358 1.363 . S
C363 C362 1.415 . S
H364 C361 0.999 . S
H365 C346 0.913 . S
H366 C384 0.951 . S
H367 C386 0.951 . S
H368 C388 0.950 . S
H369 C389 0.950 . S
H370 C391 0.950 . S
H371 C394 0.950 . S
H372 C395 0.950 . S
H373 C397 0.950 . S
H374 C398 0.950 . S
H375 C399 0.951 . S
H376 C401 0.951 . S
H377 C403 0.950 . S
H378 C404 0.950 . S
H379 C406 0.950 . S
H380 C409 0.950 . S
H381 C410 0.950 . S
H382 C412 0.950 . S
H383 C413 0.950 . S
C384 H366 0.951 . S
C384 C385 1.366 1_554 S
C384 C386 1.388 . S
C385 C384 1.366 1_556 S
C385 C389 1.385 1_556 S
C386 H367 0.951 . S
C386 C384 1.388 . S
C386 C387 1.366 . S
C387 C386 1.366 . S
C387 C388 1.414 . S
C387 C390 1.499 . S
C388 H368 0.950 . S
C388 C387 1.414 . S
C388 C389 1.374 . S
C389 H369 0.950 . S
C389 C385 1.385 1_554 S
C389 C388 1.374 . S
C390 C387 1.499 . S
C390 C391 1.373 . S
C390 C392 1.389 . S
C391 H370 0.950 . S
C391 C390 1.373 . S
C391 C407 1.377 . S
C392 C390 1.389 . S
C392 C393 1.524 . S
C392 C406 1.377 . S
C393 C392 1.524 . S
C393 C394 1.397 . S
C393 C398 1.363 . S
C394 H371 0.950 . S
C394 C393 1.397 . S
C394 C395 1.334 . S
C395 H372 0.950 . S
C395 C394 1.334 . S
C395 C396 1.287 . S
C396 C395 1.287 . S
C396 C397 1.524 . S
C396 H415 0.913 . S
C397 H373 0.950 . S
C397 C396 1.524 . S
C397 C398 1.415 . S
C398 H374 0.950 . S
C398 C393 1.363 . S
C398 C397 1.415 . S
C399 H375 0.951 . S
C399 C400 1.366 . S
C399 C401 1.388 . S
C400 C399 1.366 . S
C400 C404 1.385 . S
C401 H376 0.951 . S
C401 C399 1.388 . S
C401 C402 1.366 . S
C402 C401 1.366 . S
C402 C403 1.414 . S
C402 C405 1.499 . S
C403 H377 0.950 . S
C403 C402 1.414 . S
C403 C404 1.374 . S
C404 H378 0.950 . S
C404 C400 1.385 . S
C404 C403 1.374 . S
C405 C402 1.499 . S
C405 C406 1.373 . S
C405 C407 1.389 . S
C406 H379 0.950 . S
C406 C392 1.377 . S
C406 C405 1.373 . S
C407 C391 1.377 . S
C407 C405 1.389 . S
C407 C408 1.524 . S
C408 C407 1.524 . S
C408 C409 1.397 . S
C408 C413 1.363 . S
C409 H380 0.950 . S
C409 C408 1.397 . S
C409 C410 1.334 . S
C410 H381 0.950 . S
C410 C409 1.334 . S
C410 C411 1.287 . S
C411 C410 1.287 . S
C411 C412 1.524 . S
C411 H414 0.999 . S
C412 H382 0.950 . S
C412 C411 1.524 . S
C412 C413 1.415 . S
C413 H383 0.950 . S
C413 C408 1.363 . S
C413 C412 1.415 . S
H414 C411 0.999 . S
H415 C396 0.913 . S
H416 C434 0.951 . S
H417 C436 0.951 . S
H418 C438 0.950 . S
H419 C439 0.950 . S
H420 C441 0.950 . S
H421 C444 0.950 . S
H422 C445 0.950 . S
H423 C447 0.950 . S
H424 C448 0.950 1_554 S
H425 C449 0.951 . S
H426 C451 0.951 . S
H427 C453 0.950 . S
H428 C454 0.950 . S
H429 C456 0.950 . S
H430 C459 0.950 . S
H431 C460 0.950 . S
H432 C462 0.950 . S
H433 C463 0.950 . S
C434 H416 0.951 . S
C434 C435 1.366 . S
C434 C436 1.388 . S
C435 C434 1.366 . S
C435 C439 1.385 . S
C436 H417 0.951 . S
C436 C434 1.388 . S
C436 C437 1.366 . S
C437 C436 1.366 . S
C437 C438 1.414 . S
C437 C440 1.499 . S
C438 H418 0.950 . S
C438 C437 1.414 . S
C438 C439 1.374 . S
C439 H419 0.950 . S
C439 C435 1.385 . S
C439 C438 1.374 . S
C440 C437 1.499 . S
C440 C441 1.373 . S
C440 C442 1.389 . S
C441 H420 0.950 . S
C441 C440 1.373 . S
C441 C457 1.377 . S
C442 C440 1.389 . S
C442 C443 1.524 . S
C442 C456 1.377 . S
C443 C442 1.524 . S
C443 C444 1.397 . S
C443 C448 1.363 . S
C444 H421 0.950 . S
C444 C443 1.397 . S
C444 C445 1.334 . S
C445 H422 0.950 . S
C445 C444 1.334 . S
C445 C446 1.287 . S
C446 C445 1.287 . S
C446 C447 1.524 1_556 S
C446 H465 0.913 . S
C447 H423 0.950 . S
C447 C446 1.524 1_554 S
C447 C448 1.415 1_554 S
C448 H424 0.950 1_556 S
C448 C443 1.363 . S
C448 C447 1.415 1_556 S
C449 H425 0.951 . S
C449 C450 1.366 . S
C449 C451 1.388 . S
C450 C449 1.366 . S
C450 C454 1.385 . S
C451 H426 0.951 . S
C451 C449 1.388 . S
C451 C452 1.366 . S
C452 C451 1.366 . S
C452 C453 1.414 . S
C452 C455 1.499 . S
C453 H427 0.950 . S
C453 C452 1.414 . S
C453 C454 1.374 . S
C454 H428 0.950 . S
C454 C450 1.385 . S
C454 C453 1.374 . S
C455 C452 1.499 . S
C455 C456 1.373 . S
C455 C457 1.389 . S
C456 H429 0.950 . S
C456 C442 1.377 . S
C456 C455 1.373 . S
C457 C441 1.377 . S
C457 C455 1.389 . S
C457 C458 1.524 . S
C458 C457 1.524 . S
C458 C459 1.397 . S
C458 C463 1.363 . S
C459 H430 0.950 . S
C459 C458 1.397 . S
C459 C460 1.334 . S
C460 H431 0.950 . S
C460 C459 1.334 . S
C460 C461 1.287 . S
C461 C460 1.287 . S
C461 C462 1.524 . S
C461 H464 0.999 . S
C462 H432 0.950 . S
C462 C461 1.524 . S
C462 C463 1.415 . S
C463 H433 0.950 . S
C463 C458 1.363 . S
C463 C462 1.415 . S
H464 C461 0.999 . S
H465 C446 0.913 . S
H466 C484 0.951 . S
H467 C486 0.951 . S
H468 C488 0.950 . S
H469 C489 0.950 . S
H470 C491 0.950 . S
H471 C494 0.950 . S
H472 C495 0.950 . S
H473 C497 0.950 . S
H474 C498 0.950 . S
H475 C499 0.951 1_556 S
H476 C501 0.951 1_546 S
H477 C503 0.950 . S
H478 C504 0.950 . S
H479 C506 0.950 . S
H480 C509 0.950 . S
H481 C510 0.950 1_565 S
H482 C512 0.950 . S
H483 C513 0.950 . S
C484 H466 0.951 . S
C484 C485 1.366 . S
C484 C486 1.388 . S
C485 C484 1.366 . S
C485 C489 1.385 . S
C486 H467 0.951 . S
C486 C484 1.388 . S
C486 C487 1.366 . S
C487 C486 1.366 . S
C487 C488 1.414 . S
C487 C490 1.499 . S
C488 H468 0.950 . S
C488 C487 1.414 . S
C488 C489 1.374 . S
C489 H469 0.950 . S
C489 C485 1.385 . S
C489 C488 1.374 . S
C490 C487 1.499 . S
C490 C491 1.373 . S
C490 C492 1.389 . S
C491 H470 0.950 . S
C491 C490 1.373 . S
C491 C507 1.377 . S
C492 C490 1.389 . S
C492 C493 1.524 . S
C492 C506 1.377 . S
C493 C492 1.524 . S
C493 C494 1.397 . S
C493 C498 1.363 . S
C494 H471 0.950 . S
C494 C493 1.397 . S
C494 C495 1.334 . S
C495 H472 0.950 . S
C495 C494 1.334 . S
C495 C496 1.287 . S
C496 C495 1.287 . S
C496 C497 1.524 . S
C496 H515 0.913 . S
C497 H473 0.950 . S
C497 C496 1.524 . S
C497 C498 1.415 . S
C498 H474 0.950 . S
C498 C493 1.363 . S
C498 C497 1.415 . S
C499 H475 0.951 1_554 S
C499 C500 1.366 . S
C499 C501 1.388 . S
C500 C499 1.366 . S
C500 C504 1.385 . S
C501 H476 0.951 1_564 S
C501 C499 1.388 . S
C501 C502 1.366 . S
C502 C501 1.366 . S
C502 C503 1.414 . S
C502 C505 1.499 1_565 S
C503 H477 0.950 . S
C503 C502 1.414 . S
C503 C504 1.374 . S
C504 H478 0.950 . S
C504 C500 1.385 . S
C504 C503 1.374 . S
C505 C502 1.499 1_545 S
C505 C506 1.373 . S
C505 C507 1.389 . S
C506 H479 0.950 . S
C506 C492 1.377 . S
C506 C505 1.373 . S
C507 C491 1.377 . S
C507 C505 1.389 . S
C507 C508 1.524 1_554 S
C508 C507 1.524 1_556 S
C508 C509 1.397 1_556 S
C508 C513 1.363 . S
C509 H480 0.950 . S
C509 C508 1.397 1_554 S
C509 C510 1.334 1_554 S
C510 H481 0.950 1_545 S
C510 C509 1.334 1_556 S
C510 C511 1.287 . S
C511 C510 1.287 . S
C511 C512 1.524 . S
C511 H514 0.999 . S
C512 H482 0.950 . S
C512 C511 1.524 . S
C512 C513 1.415 . S
C513 H483 0.950 . S
C513 C508 1.363 . S
C513 C512 1.415 . S
H514 C511 0.999 . S
H515 C496 0.913 . S
H516 C534 0.951 . S
H517 C536 0.951 . S
H518 C538 0.950 . S
H519 C539 0.950 . S
H520 C541 0.950 . S
H521 C544 0.950 . S
H522 C545 0.950 . S
H523 C547 0.950 . S
H524 C548 0.950 . S
H525 C549 0.951 . S
H526 C551 0.951 . S
H527 C553 0.950 . S
H528 C554 0.950 . S
H529 C556 0.950 . S
H530 C559 0.950 . S
H531 C560 0.950 . S
H532 C562 0.950 . S
H533 C563 0.950 . S
C534 H516 0.951 . S
C534 C535 1.366 . S
C534 C536 1.388 . S
C535 C534 1.366 . S
C535 C539 1.385 . S
C536 H517 0.951 . S
C536 C534 1.388 . S
C536 C537 1.366 . S
C537 C536 1.366 . S
C537 C538 1.414 . S
C537 C540 1.499 . S
C538 H518 0.950 . S
C538 C537 1.414 . S
C538 C539 1.374 . S
C539 H519 0.950 . S
C539 C535 1.385 . S
C539 C538 1.374 . S
C540 C537 1.499 . S
C540 C541 1.373 . S
C540 C542 1.389 . S
C541 H520 0.950 . S
C541 C540 1.373 . S
C541 C557 1.377 . S
C542 C540 1.389 . S
C542 C543 1.524 . S
C542 C556 1.377 . S
C543 C542 1.524 . S
C543 C544 1.397 . S
C543 C548 1.363 . S
C544 H521 0.950 . S
C544 C543 1.397 . S
C544 C545 1.334 . S
C545 H522 0.950 . S
C545 C544 1.334 . S
C545 C546 1.287 . S
C546 C545 1.287 . S
C546 C547 1.524 . S
C546 H565 0.913 . S
C547 H523 0.950 . S
C547 C546 1.524 . S
C547 C548 1.415 . S
C548 H524 0.950 . S
C548 C543 1.363 . S
C548 C547 1.415 . S
C549 H525 0.951 . S
C549 C550 1.366 . S
C549 C551 1.388 . S
C550 C549 1.366 . S
C550 C554 1.385 . S
C551 H526 0.951 . S
C551 C549 1.388 . S
C551 C552 1.366 . S
C552 C551 1.366 . S
C552 C553 1.414 . S
C552 C555 1.499 . S
C553 H527 0.950 . S
C553 C552 1.414 . S
C553 C554 1.374 . S
C554 H528 0.950 . S
C554 C550 1.385 . S
C554 C553 1.374 . S
C555 C552 1.499 . S
C555 C556 1.373 . S
C555 C557 1.389 . S
C556 H529 0.950 . S
C556 C542 1.377 . S
C556 C555 1.373 . S
C557 C541 1.377 . S
C557 C555 1.389 . S
C557 C558 1.524 . S
C558 C557 1.524 . S
C558 C559 1.397 . S
C558 C563 1.363 . S
C559 H530 0.950 . S
C559 C558 1.397 . S
C559 C560 1.334 . S
C560 H531 0.950 . S
C560 C559 1.334 . S
C560 C561 1.287 . S
C561 C560 1.287 . S
C561 C562 1.524 . S
C561 H564 0.999 . S
C562 H532 0.950 . S
C562 C561 1.524 . S
C562 C563 1.415 . S
C563 H533 0.950 . S
C563 C558 1.363 . S
C563 C562 1.415 . S
H564 C561 0.999 . S
H565 C546 0.913 . S
H566 C584 0.951 . S
H567 C586 0.951 . S
H568 C588 0.950 . S
H569 C589 0.950 . S
H570 C591 0.950 . S
H571 C594 0.950 . S
H572 C595 0.950 . S
H573 C597 0.950 . S
H574 C598 0.950 . S
H575 C599 0.951 . S
H576 C601 0.951 . S
H577 C603 0.950 . S
H578 C604 0.950 . S
H579 C606 0.950 . S
H580 C609 0.950 . S
H581 C610 0.950 . S
H582 C612 0.950 . S
H583 C613 0.950 . S
C584 H566 0.951 . S
C584 C585 1.366 . S
C584 C586 1.388 . S
C585 C584 1.366 . S
C585 C589 1.385 . S
C586 H567 0.951 . S
C586 C584 1.388 . S
C586 C587 1.366 . S
C587 C586 1.366 . S
C587 C588 1.414 . S
C587 C590 1.499 . S
C588 H568 0.950 . S
C588 C587 1.414 . S
C588 C589 1.374 . S
C589 H569 0.950 . S
C589 C585 1.385 . S
C589 C588 1.374 . S
C590 C587 1.499 . S
C590 C591 1.373 . S
C590 C592 1.389 . S
C591 H570 0.950 . S
C591 C590 1.373 . S
C591 C607 1.377 . S
C592 C590 1.389 . S
C592 C593 1.524 . S
C592 C606 1.377 . S
C593 C592 1.524 . S
C593 C594 1.397 . S
C593 C598 1.363 . S
C594 H571 0.950 . S
C594 C593 1.397 . S
C594 C595 1.334 . S
C595 H572 0.950 . S
C595 C594 1.334 . S
C595 C596 1.287 . S
C596 C595 1.287 . S
C596 C597 1.524 . S
C596 H615 0.913 . S
C597 H573 0.950 . S
C597 C596 1.524 . S
C597 C598 1.415 . S
C598 H574 0.950 . S
C598 C593 1.363 . S
C598 C597 1.415 . S
C599 H575 0.951 . S
C599 C600 1.366 . S
C599 C601 1.388 . S
C600 C599 1.366 . S
C600 C604 1.385 . S
C601 H576 0.951 . S
C601 C599 1.388 . S
C601 C602 1.366 . S
C602 C601 1.366 . S
C602 C603 1.414 . S
C602 C605 1.499 1_545 S
C603 H577 0.950 . S
C603 C602 1.414 . S
C603 C604 1.374 . S
C604 H578 0.950 . S
C604 C600 1.385 . S
C604 C603 1.374 . S
C605 C602 1.499 1_565 S
C605 C606 1.373 . S
C605 C607 1.389 . S
C606 H579 0.950 . S
C606 C592 1.377 . S
C606 C605 1.373 . S
C607 C591 1.377 . S
C607 C605 1.389 . S
C607 C608 1.524 . S
C608 C607 1.524 . S
C608 C609 1.397 1_565 S
C608 C613 1.363 . S
C609 H580 0.950 . S
C609 C608 1.397 1_545 S
C609 C610 1.334 . S
C610 H581 0.950 . S
C610 C609 1.334 . S
C610 C611 1.287 . S
C611 C610 1.287 . S
C611 C612 1.524 1_545 S
C611 H614 0.999 . S
C612 H582 0.950 . S
C612 C611 1.524 1_565 S
C612 C613 1.415 . S
C613 H583 0.950 . S
C613 C608 1.363 . S
C613 C612 1.415 . S
H614 C611 0.999 . S
H615 C596 0.913 . S
H616 C634 0.951 1_554 S
H617 C636 0.951 1_454 S
H618 C638 0.950 . S
H619 C639 0.950 . S
H620 C641 0.950 . S
H621 C644 0.950 . S
H622 C645 0.950 1_655 S
H623 C647 0.950 1_554 S
H624 C648 0.950 . S
H625 C649 0.951 . S
H626 C651 0.951 . S
H627 C653 0.950 . S
H628 C654 0.950 . S
H629 C656 0.950 . S
H630 C659 0.950 . S
H631 C660 0.950 . S
H632 C662 0.950 . S
H633 C663 0.950 . S
C634 H616 0.951 1_556 S
C634 C635 1.366 . S
C634 C636 1.388 . S
C635 C634 1.366 . S
C635 C639 1.385 . S
C636 H617 0.951 1_656 S
C636 C634 1.388 . S
C636 C637 1.366 . S
C637 C636 1.366 . S
C637 C638 1.414 . S
C637 C640 1.499 1_655 S
C638 H618 0.950 . S
C638 C637 1.414 . S
C638 C639 1.374 . S
C639 H619 0.950 . S
C639 C635 1.385 . S
C639 C638 1.374 . S
C640 C637 1.499 1_455 S
C640 C641 1.373 . S
C640 C642 1.389 . S
C641 H620 0.950 . S
C641 C640 1.373 . S
C641 C657 1.377 . S
C642 C640 1.389 . S
C642 C643 1.524 . S
C642 C656 1.377 . S
C643 C642 1.524 . S
C643 C644 1.397 . S
C643 C648 1.363 . S
C644 H621 0.950 . S
C644 C643 1.397 . S
C644 C645 1.334 . S
C645 H622 0.950 1_455 S
C645 C644 1.334 . S
C645 C646 1.287 . S
C646 C645 1.287 . S
C646 C647 1.524 . S
C646 H665 0.913 . S
C647 H623 0.950 1_556 S
C647 C646 1.524 . S
C647 C648 1.415 . S
C648 H624 0.950 . S
C648 C643 1.363 . S
C648 C647 1.415 . S
C649 H625 0.951 . S
C649 C650 1.366 . S
C649 C651 1.388 . S
C650 C649 1.366 . S
C650 C654 1.385 . S
C651 H626 0.951 . S
C651 C649 1.388 . S
C651 C652 1.366 . S
C652 C651 1.366 . S
C652 C653 1.414 . S
C652 C655 1.499 . S
C653 H627 0.950 . S
C653 C652 1.414 . S
C653 C654 1.374 . S
C654 H628 0.950 . S
C654 C650 1.385 . S
C654 C653 1.374 . S
C655 C652 1.499 . S
C655 C656 1.373 . S
C655 C657 1.389 . S
C656 H629 0.950 . S
C656 C642 1.377 . S
C656 C655 1.373 . S
C657 C641 1.377 . S
C657 C655 1.389 . S
C657 C658 1.524 . S
C658 C657 1.524 . S
C658 C659 1.397 . S
C658 C663 1.363 . S
C659 H630 0.950 . S
C659 C658 1.397 . S
C659 C660 1.334 . S
C660 H631 0.950 . S
C660 C659 1.334 . S
C660 C661 1.287 . S
C661 C660 1.287 . S
C661 C662 1.524 . S
C661 H664 0.999 . S
C662 H632 0.950 . S
C662 C661 1.524 . S
C662 C663 1.415 . S
C663 H633 0.950 . S
C663 C658 1.363 . S
C663 C662 1.415 . S
H664 C661 0.999 . S
H665 C646 0.913 . S
H666 C684 0.951 . S
H667 C686 0.951 . S
H668 C688 0.950 . S
H669 C689 0.950 . S
H670 C691 0.950 . S
H671 C694 0.950 . S
H672 C695 0.950 . S
H673 C697 0.950 . S
H674 C698 0.950 . S
H675 C699 0.951 . S
H676 C701 0.951 . S
H677 C703 0.950 . S
H678 C704 0.950 . S
H679 C706 0.950 . S
H680 C709 0.950 . S
H681 C710 0.950 . S
H682 C712 0.950 . S
H683 C713 0.950 . S
C684 H666 0.951 . S
C684 C685 1.366 . S
C684 C686 1.388 . S
C685 C684 1.366 . S
C685 C689 1.385 . S
C686 H667 0.951 . S
C686 C684 1.388 . S
C686 C687 1.366 . S
C687 C686 1.366 . S
C687 C688 1.414 . S
C687 C690 1.499 . S
C688 H668 0.950 . S
C688 C687 1.414 . S
C688 C689 1.374 . S
C689 H669 0.950 . S
C689 C685 1.385 . S
C689 C688 1.374 . S
C690 C687 1.499 . S
C690 C691 1.373 . S
C690 C692 1.389 . S
C691 H670 0.950 . S
C691 C690 1.373 . S
C691 C707 1.377 . S
C692 C690 1.389 . S
C692 C693 1.524 . S
C692 C706 1.377 . S
C693 C692 1.524 . S
C693 C694 1.397 . S
C693 C698 1.363 1_554 S
C694 H671 0.950 . S
C694 C693 1.397 . S
C694 C695 1.334 . S
C695 H672 0.950 . S
C695 C694 1.334 . S
C695 C696 1.287 1_554 S
C696 C695 1.287 1_556 S
C696 C697 1.524 . S
C696 H715 0.913 . S
C697 H673 0.950 . S
C697 C696 1.524 . S
C697 C698 1.415 . S
C698 H674 0.950 . S
C698 C693 1.363 1_556 S
C698 C697 1.415 . S
C699 H675 0.951 . S
C699 C700 1.366 . S
C699 C701 1.388 . S
C700 C699 1.366 . S
C700 C704 1.385 . S
C701 H676 0.951 . S
C701 C699 1.388 . S
C701 C702 1.366 . S
C702 C701 1.366 . S
C702 C703 1.414 . S
C702 C705 1.499 . S
C703 H677 0.950 . S
C703 C702 1.414 . S
C703 C704 1.374 . S
C704 H678 0.950 . S
C704 C700 1.385 . S
C704 C703 1.374 . S
C705 C702 1.499 . S
C705 C706 1.373 . S
C705 C707 1.389 . S
C706 H679 0.950 . S
C706 C692 1.377 . S
C706 C705 1.373 . S
C707 C691 1.377 . S
C707 C705 1.389 . S
C707 C708 1.524 . S
C708 C707 1.524 . S
C708 C709 1.397 . S
C708 C713 1.363 . S
C709 H680 0.950 . S
C709 C708 1.397 . S
C709 C710 1.334 . S
C710 H681 0.950 . S
C710 C709 1.334 . S
C710 C711 1.287 . S
C711 C710 1.287 . S
C711 C712 1.524 . S
C711 H714 0.999 . S
C712 H682 0.950 . S
C712 C711 1.524 . S
C712 C713 1.415 . S
C713 H683 0.950 . S
C713 C708 1.363 . S
C713 C712 1.415 . S
H714 C711 0.999 . S
H715 C696 0.913 . S
H716 C734 0.951 . S
H717 C736 0.951 . S
H718 C738 0.950 . S
H719 C739 0.950 . S
H720 C741 0.950 . S
H721 C744 0.950 . S
H722 C745 0.950 . S
H723 C747 0.950 . S
H724 C748 0.950 . S
H725 C749 0.951 . S
H726 C751 0.951 1_655 S
H727 C753 0.950 . S
H728 C754 0.950 . S
H729 C756 0.950 . S
H730 C759 0.950 . S
H731 C760 0.950 1_455 S
H732 C762 0.950 . S
H733 C763 0.950 . S
C734 H716 0.951 . S
C734 C735 1.366 . S
C734 C736 1.388 . S
C735 C734 1.366 . S
C735 C739 1.385 . S
C736 H717 0.951 . S
C736 C734 1.388 . S
C736 C737 1.366 . S
C737 C736 1.366 . S
C737 C738 1.414 . S
C737 C740 1.499 . S
C738 H718 0.950 . S
C738 C737 1.414 . S
C738 C739 1.374 . S
C739 H719 0.950 . S
C739 C735 1.385 . S
C739 C738 1.374 . S
C740 C737 1.499 . S
C740 C741 1.373 . S
C740 C742 1.389 . S
C741 H720 0.950 . S
C741 C740 1.373 . S
C741 C757 1.377 . S
C742 C740 1.389 . S
C742 C743 1.524 . S
C742 C756 1.377 . S
C743 C742 1.524 . S
C743 C744 1.397 . S
C743 C748 1.363 . S
C744 H721 0.950 . S
C744 C743 1.397 . S
C744 C745 1.334 . S
C745 H722 0.950 . S
C745 C744 1.334 . S
C745 C746 1.287 . S
C746 C745 1.287 . S
C746 C747 1.524 . S
C746 H765 0.913 . S
C747 H723 0.950 . S
C747 C746 1.524 . S
C747 C748 1.415 . S
C748 H724 0.950 . S
C748 C743 1.363 . S
C748 C747 1.415 . S
C749 H725 0.951 . S
C749 C750 1.366 . S
C749 C751 1.388 . S
C750 C749 1.366 . S
C750 C754 1.385 . S
C751 H726 0.951 1_455 S
C751 C749 1.388 . S
C751 C752 1.366 . S
C752 C751 1.366 . S
C752 C753 1.414 . S
C752 C755 1.499 1_455 S
C753 H727 0.950 . S
C753 C752 1.414 . S
C753 C754 1.374 . S
C754 H728 0.950 . S
C754 C750 1.385 . S
C754 C753 1.374 . S
C755 C752 1.499 1_655 S
C755 C756 1.373 . S
C755 C757 1.389 . S
C756 H729 0.950 . S
C756 C742 1.377 . S
C756 C755 1.373 . S
C757 C741 1.377 . S
C757 C755 1.389 . S
C757 C758 1.524 . S
C758 C757 1.524 . S
C758 C759 1.397 . S
C758 C763 1.363 . S
C759 H730 0.950 . S
C759 C758 1.397 . S
C759 C760 1.334 . S
C760 H731 0.950 1_655 S
C760 C759 1.334 . S
C760 C761 1.287 . S
C761 C760 1.287 . S
C761 C762 1.524 . S
C761 H764 0.999 . S
C762 H732 0.950 . S
C762 C761 1.524 . S
C762 C763 1.415 . S
C763 H733 0.950 . S
C763 C758 1.363 . S
C763 C762 1.415 . S
H764 C761 0.999 . S
H765 C746 0.913 . S
H766 C784 0.951 . S
H767 C786 0.951 . S
H768 C788 0.950 . S
H769 C789 0.950 . S
H770 C791 0.950 . S
H771 C794 0.950 . S
H772 C795 0.950 . S
H773 C797 0.950 . S
H774 C798 0.950 . S
H775 C799 0.951 . S
H776 C801 0.951 . S
H777 C803 0.950 . S
H778 C804 0.950 . S
H779 C806 0.950 . S
H780 C809 0.950 . S
H781 C810 0.950 . S
H782 C812 0.950 . S
H783 C813 0.950 . S
C784 H766 0.951 . S
C784 C785 1.366 . S
C784 C786 1.388 . S
C785 C784 1.366 . S
C785 C789 1.385 . S
C786 H767 0.951 . S
C786 C784 1.388 . S
C786 C787 1.366 . S
C787 C786 1.366 . S
C787 C788 1.414 . S
C787 C790 1.499 . S
C788 H768 0.950 . S
C788 C787 1.414 . S
C788 C789 1.374 . S
C789 H769 0.950 . S
C789 C785 1.385 . S
C789 C788 1.374 . S
C790 C787 1.499 . S
C790 C791 1.373 . S
C790 C792 1.389 . S
C791 H770 0.950 . S
C791 C790 1.373 . S
C791 C807 1.377 . S
C792 C790 1.389 . S
C792 C793 1.524 . S
C792 C806 1.377 . S
C793 C792 1.524 . S
C793 C794 1.397 . S
C793 C798 1.363 . S
C794 H771 0.950 . S
C794 C793 1.397 . S
C794 C795 1.334 . S
C795 H772 0.950 . S
C795 C794 1.334 . S
C795 C796 1.287 . S
C796 C795 1.287 . S
C796 C797 1.524 . S
C796 H815 0.913 . S
C797 H773 0.950 . S
C797 C796 1.524 . S
C797 C798 1.415 . S
C798 H774 0.950 . S
C798 C793 1.363 . S
C798 C797 1.415 . S
C799 H775 0.951 . S
C799 C800 1.366 . S
C799 C801 1.388 . S
C800 C799 1.366 . S
C800 C804 1.385 . S
C801 H776 0.951 . S
C801 C799 1.388 . S
C801 C802 1.366 . S
C802 C801 1.366 . S
C802 C803 1.414 . S
C802 C805 1.499 . S
C803 H777 0.950 . S
C803 C802 1.414 . S
C803 C804 1.374 . S
C804 H778 0.950 . S
C804 C800 1.385 . S
C804 C803 1.374 . S
C805 C802 1.499 . S
C805 C806 1.373 . S
C805 C807 1.389 . S
C806 H779 0.950 . S
C806 C792 1.377 . S
C806 C805 1.373 . S
C807 C791 1.377 . S
C807 C805 1.389 . S
C807 C808 1.524 . S
C808 C807 1.524 . S
C808 C809 1.397 . S
C808 C813 1.363 . S
C809 H780 0.950 . S
C809 C808 1.397 . S
C809 C810 1.334 . S
C810 H781 0.950 . S
C810 C809 1.334 . S
C810 C811 1.287 . S
C811 C810 1.287 . S
C811 C812 1.524 . S
C811 H814 0.999 . S
C812 H782 0.950 . S
C812 C811 1.524 . S
C812 C813 1.415 . S
C813 H783 0.950 . S
C813 C808 1.363 . S
C813 C812 1.415 . S
H814 C811 0.999 . S
H815 C796 0.913 . S
H816 C834 0.951 . S
H817 C836 0.951 . S
H818 C838 0.950 . S
H819 C839 0.950 . S
H820 C841 0.950 . S
H821 C844 0.950 . S
H822 C845 0.950 . S
H823 C847 0.950 . S
H824 C848 0.950 . S
H825 C849 0.951 . S
H826 C851 0.951 1_455 S
H827 C853 0.950 . S
H828 C854 0.950 . S
H829 C856 0.950 . S
H830 C859 0.950 . S
H831 C860 0.950 . S
H832 C862 0.950 . S
H833 C863 0.950 . S
C834 H816 0.951 . S
C834 C835 1.366 . S
C834 C836 1.388 . S
C835 C834 1.366 . S
C835 C839 1.385 . S
C836 H817 0.951 . S
C836 C834 1.388 . S
C836 C837 1.366 . S
C837 C836 1.366 . S
C837 C838 1.414 . S
C837 C840 1.499 . S
C838 H818 0.950 . S
C838 C837 1.414 . S
C838 C839 1.374 . S
C839 H819 0.950 . S
C839 C835 1.385 . S
C839 C838 1.374 . S
C840 C837 1.499 . S
C840 C841 1.373 . S
C840 C842 1.389 1_545 S
C841 H820 0.950 . S
C841 C840 1.373 . S
C841 C857 1.377 . S
C842 C840 1.389 1_565 S
C842 C843 1.524 . S
C842 C856 1.377 1_455 S
C843 C842 1.524 . S
C843 C844 1.397 . S
C843 C848 1.363 1_455 S
C844 H821 0.950 . S
C844 C843 1.397 . S
C844 C845 1.334 . S
C845 H822 0.950 . S
C845 C844 1.334 . S
C845 C846 1.287 . S
C846 C845 1.287 . S
C846 C847 1.524 1_455 S
C846 H865 0.913 . S
C847 H823 0.950 . S
C847 C846 1.524 1_655 S
C847 C848 1.415 . S
C848 H824 0.950 . S
C848 C843 1.363 1_655 S
C848 C847 1.415 . S
C849 H825 0.951 . S
C849 C850 1.366 . S
C849 C851 1.388 . S
C850 C849 1.366 . S
C850 C854 1.385 . S
C851 H826 0.951 1_655 S
C851 C849 1.388 . S
C851 C852 1.366 . S
C852 C851 1.366 . S
C852 C853 1.414 . S
C852 C855 1.499 . S
C853 H827 0.950 . S
C853 C852 1.414 . S
C853 C854 1.374 . S
C854 H828 0.950 . S
C854 C850 1.385 . S
C854 C853 1.374 . S
C855 C852 1.499 . S
C855 C856 1.373 . S
C855 C857 1.389 1_665 S
C856 H829 0.950 . S
C856 C842 1.377 1_655 S
C856 C855 1.373 . S
C857 C841 1.377 . S
C857 C855 1.389 1_445 S
C857 C858 1.524 . S
C858 C857 1.524 . S
C858 C859 1.397 1_455 S
C858 C863 1.363 . S
C859 H830 0.950 . S
C859 C858 1.397 1_655 S
C859 C860 1.334 . S
C860 H831 0.950 . S
C860 C859 1.334 . S
C860 C861 1.287 . S
C861 C860 1.287 . S
C861 C862 1.524 1_655 S
C861 H864 0.999 1_554 S
C862 H832 0.950 . S
C862 C861 1.524 1_455 S
C862 C863 1.415 . S
C863 H833 0.950 . S
C863 C858 1.363 . S
C863 C862 1.415 . S
H864 C861 0.999 1_556 S
H865 C846 0.913 . S
H866 C884 0.951 . S
H867 C886 0.951 . S
H868 C888 0.950 . S
H869 C889 0.950 . S
H870 C891 0.950 . S
H871 C894 0.950 . S
H872 C895 0.950 . S
H873 C897 0.950 . S
H874 C898 0.950 . S
H875 C899 0.951 . S
H876 C901 0.951 . S
H877 C903 0.950 . S
H878 C904 0.950 . S
H879 C906 0.950 . S
H880 C909 0.950 . S
H881 C910 0.950 . S
H882 C912 0.950 . S
H883 C913 0.950 . S
C884 H866 0.951 . S
C884 C885 1.366 . S
C884 C886 1.388 . S
C885 C884 1.366 . S
C885 C889 1.385 . S
C886 H867 0.951 . S
C886 C884 1.388 . S
C886 C887 1.366 . S
C887 C886 1.366 . S
C887 C888 1.414 . S
C887 C890 1.499 . S
C888 H868 0.950 . S
C888 C887 1.414 . S
C888 C889 1.374 . S
C889 H869 0.950 . S
C889 C885 1.385 . S
C889 C888 1.374 . S
C890 C887 1.499 . S
C890 C891 1.373 . S
C890 C892 1.389 . S
C891 H870 0.950 . S
C891 C890 1.373 . S
C891 C907 1.377 . S
C892 C890 1.389 . S
C892 C893 1.524 . S
C892 C906 1.377 . S
C893 C892 1.524 . S
C893 C894 1.397 . S
C893 C898 1.363 . S
C894 H871 0.950 . S
C894 C893 1.397 . S
C894 C895 1.334 . S
C895 H872 0.950 . S
C895 C894 1.334 . S
C895 C896 1.287 . S
C896 C895 1.287 . S
C896 C897 1.524 . S
C896 H915 0.913 . S
C897 H873 0.950 . S
C897 C896 1.524 . S
C897 C898 1.415 . S
C898 H874 0.950 . S
C898 C893 1.363 . S
C898 C897 1.415 . S
C899 H875 0.951 . S
C899 C900 1.366 . S
C899 C901 1.388 . S
C900 C899 1.366 . S
C900 C904 1.385 . S
C901 H876 0.951 . S
C901 C899 1.388 . S
C901 C902 1.366 . S
C902 C901 1.366 . S
C902 C903 1.414 . S
C902 C905 1.499 . S
C903 H877 0.950 . S
C903 C902 1.414 . S
C903 C904 1.374 . S
C904 H878 0.950 . S
C904 C900 1.385 . S
C904 C903 1.374 . S
C905 C902 1.499 . S
C905 C906 1.373 . S
C905 C907 1.389 . S
C906 H879 0.950 . S
C906 C892 1.377 . S
C906 C905 1.373 . S
C907 C891 1.377 . S
C907 C905 1.389 . S
C907 C908 1.524 . S
C908 C907 1.524 . S
C908 C909 1.397 . S
C908 C913 1.363 . S
C909 H880 0.950 . S
C909 C908 1.397 . S
C909 C910 1.334 . S
C910 H881 0.950 . S
C910 C909 1.334 . S
C910 C911 1.287 . S
C911 C910 1.287 . S
C911 C912 1.524 . S
C911 H914 0.999 . S
C912 H882 0.950 . S
C912 C911 1.524 . S
C912 C913 1.415 . S
C913 H883 0.950 . S
C913 C908 1.363 . S
C913 C912 1.415 . S
H914 C911 0.999 . S
H915 C896 0.913 . S
H916 C934 0.951 . S
H917 C936 0.951 1_655 S
H918 C938 0.950 . S
H919 C939 0.950 . S
H920 C941 0.950 . S
H921 C944 0.950 1_455 S
H922 C945 0.950 1_455 S
H923 C947 0.950 . S
H924 C948 0.950 . S
H925 C949 0.951 . S
H926 C951 0.951 . S
H927 C953 0.950 . S
H928 C954 0.950 . S
H929 C956 0.950 . S
H930 C959 0.950 . S
H931 C960 0.950 . S
H932 C962 0.950 . S
H933 C963 0.950 . S
C934 H916 0.951 . S
C934 C935 1.366 . S
C934 C936 1.388 . S
C935 C934 1.366 . S
C935 C939 1.385 . S
C936 H917 0.951 1_455 S
C936 C934 1.388 . S
C936 C937 1.366 . S
C937 C936 1.366 . S
C937 C938 1.414 . S
C937 C940 1.499 . S
C938 H918 0.950 . S
C938 C937 1.414 . S
C938 C939 1.374 . S
C939 H919 0.950 . S
C939 C935 1.385 . S
C939 C938 1.374 . S
C940 C937 1.499 . S
C940 C941 1.373 1_545 S
C940 C942 1.389 1_455 S
C941 H920 0.950 . S
C941 C940 1.373 1_565 S
C941 C957 1.382 . S
C942 C940 1.389 1_655 S
C942 C943 1.524 . S
C942 C956 1.377 . S
C943 C942 1.524 . S
C943 C944 1.397 . S
C943 C948 1.363 . S
C944 H921 0.950 1_655 S
C944 C943 1.397 . S
C944 C945 1.334 . S
C945 H922 0.950 1_655 S
C945 C944 1.334 . S
C945 C946 1.287 . S
C946 C945 1.287 . S
C946 C947 1.524 . S
C946 H965 0.913 . S
C947 H923 0.950 . S
C947 C946 1.524 . S
C947 C948 1.415 . S
C948 H924 0.950 . S
C948 C943 1.363 . S
C948 C947 1.415 . S
C949 H925 0.951 . S
C949 C950 1.366 . S
C949 C951 1.388 . S
C950 C949 1.366 . S
C950 C954 1.385 . S
C951 H926 0.951 . S
C951 C949 1.388 . S
C951 C952 1.366 . S
C952 C951 1.366 . S
C952 C953 1.414 . S
C952 C955 1.499 . S
C953 H927 0.950 . S
C953 C952 1.414 . S
C953 C954 1.374 . S
C954 H928 0.950 . S
C954 C950 1.385 . S
C954 C953 1.374 . S
C955 C952 1.499 . S
C955 C956 1.373 1_565 S
C955 C957 1.382 1_655 S
C956 H929 0.950 . S
C956 C942 1.377 . S
C956 C955 1.373 1_545 S
C957 C941 1.382 . S
C957 C955 1.382 1_455 S
C957 C958 1.527 . S
C958 C957 1.527 . S
C958 C959 1.397 1_455 S
C958 C963 1.363 . S
C959 H930 0.950 . S
C959 C958 1.397 1_655 S
C959 C960 1.334 . S
C960 H931 0.950 . S
C960 C959 1.334 . S
C960 C961 1.287 1_655 S
C961 C960 1.287 1_455 S
C961 C962 1.524 . S
C961 H964 0.999 . S
C962 H932 0.950 . S
C962 C961 1.524 . S
C962 C963 1.415 . S
C963 H933 0.950 . S
C963 C958 1.363 . S
C963 C962 1.415 . S
H964 C961 0.999 . S
H965 C946 0.913 . S
H966 C984 0.951 . S
H967 C986 0.951 . S
H968 C988 0.950 . S
H969 C989 0.950 . S
H970 C991 0.950 . S
H971 C994 0.950 . S
H972 C995 0.950 . S
H973 C997 0.950 . S
H974 C998 0.950 . S
H975 C999 0.951 . S
H976 C1001 0.951 . S
H977 C1003 0.950 . S
H978 C1004 0.950 . S
H979 C1006 0.950 . S
H980 C1009 0.950 . S
H981 C1010 0.950 . S
H982 C1012 0.950 . S
H983 C1013 0.950 . S
C984 H966 0.951 . S
C984 C985 1.366 . S
C984 C986 1.388 . S
C985 C984 1.366 . S
C985 C989 1.385 . S
C986 H967 0.951 . S
C986 C984 1.388 . S
C986 C987 1.366 . S
C987 C986 1.366 . S
C987 C988 1.414 . S
C987 C990 1.499 . S
C988 H968 0.950 . S
C988 C987 1.414 . S
C988 C989 1.374 . S
C989 H969 0.950 . S
C989 C985 1.385 . S
C989 C988 1.374 . S
C990 C987 1.499 . S
C990 C991 1.373 . S
C990 C992 1.389 . S
C991 H970 0.950 . S
C991 C990 1.373 . S
C991 C1007 1.377 1_554 S
C992 C990 1.389 . S
C992 C993 1.524 . S
C992 C1006 1.377 1_554 S
C993 C992 1.524 . S
C993 C994 1.397 . S
C993 C998 1.363 . S
C994 H971 0.950 . S
C994 C993 1.397 . S
C994 C995 1.334 . S
C995 H972 0.950 . S
C995 C994 1.334 . S
C995 C996 1.287 . S
C996 C995 1.287 . S
C996 C997 1.524 . S
C996 H1015 0.913 . S
C997 H973 0.950 . S
C997 C996 1.524 . S
C997 C998 1.415 . S
C998 H974 0.950 . S
C998 C993 1.363 . S
C998 C997 1.415 . S
C999 H975 0.951 . S
C999 C1000 1.366 . S
C999 C1001 1.388 . S
C1000 C999 1.366 . S
C1000 C1004 1.385 . S
C1001 H976 0.951 . S
C1001 C999 1.388 . S
C1001 C1002 1.366 . S
C1002 C1001 1.366 . S
C1002 C1003 1.414 . S
C1002 C1005 1.499 . S
C1003 H977 0.950 . S
C1003 C1002 1.414 . S
C1003 C1004 1.374 . S
C1004 H978 0.950 . S
C1004 C1000 1.385 . S
C1004 C1003 1.374 . S
C1005 C1002 1.499 . S
C1005 C1006 1.373 . S
C1005 C1007 1.389 . S
C1006 H979 0.950 . S
C1006 C992 1.377 1_556 S
C1006 C1005 1.373 . S
C1007 C991 1.377 1_556 S
C1007 C1005 1.389 . S
C1007 C1008 1.524 . S
C1008 C1007 1.524 . S
C1008 C1009 1.397 . S
C1008 C1013 1.363 . S
C1009 H980 0.950 . S
C1009 C1008 1.397 . S
C1009 C1010 1.334 . S
C1010 H981 0.950 . S
C1010 C1009 1.334 . S
C1010 C1011 1.287 . S
C1011 C1010 1.287 . S
C1011 C1012 1.524 . S
C1011 H1014 0.999 . S
C1012 H982 0.950 . S
C1012 C1011 1.524 . S
C1012 C1013 1.415 . S
C1013 H983 0.950 . S
C1013 C1008 1.363 . S
C1013 C1012 1.415 . S
H1014 C1011 0.999 . S
H1015 C996 0.913 . S
C235 C28 0.791 . S
C250 C35 0.791 . S
C285 C82 0.792 . S
C300 C89 0.792 . S
C335 C143 0.792 . S
C350 C136 0.792 . S
C385 C197 0.791 . S
C400 C190 0.791 . S
C435 C189 2.348 . S
C450 C22 2.340 . S
C485 C76 2.340 . S
C500 C10 2.348 . S
C535 C113 2.340 . S
C550 C64 2.348 . S
C585 C167 2.340 . S
C600 C135 2.348 . S
C635 C27 2.349 . S
C650 C184 2.341 . S
C685 C81 2.348 . S
C700 C5 2.340 . S
C735 C59 2.340 . S
C750 C118 2.348 . S
C785 C130 2.341 . S
C800 C172 2.349 . S
C835 C140 0.561 . S
C850 C32 0.562 . S
C885 C86 0.561 . S
C900 C194 0.561 . S
C935 C121 0.564 . S
C950 C13 0.563 . S
C985 C67 0.561 . S
C1000 C175 0.561 . S
