# Generated by pormake.
# Topology gsi, (4)-cn, num edge types: 1
# Building blocks:
#     Node 0, Type 0, BuildingBlock: ICAMEG_clean_sbu_1, # of connection points: 4
#     Node 1, Type 0, BuildingBlock: ICAMEG_clean_sbu_1, # of connection points: 4
#     Node 2, Type 0, BuildingBlock: ICAMEG_clean_sbu_1, # of connection points: 4
#     Node 3, Type 0, BuildingBlock: ICAMEG_clean_sbu_1, # of connection points: 4
#     Node 4, Type 0, BuildingBlock: ICAMEG_clean_sbu_1, # of connection points: 4
#     Node 5, Type 0, BuildingBlock: ICAMEG_clean_sbu_1, # of connection points: 4
#     Node 6, Type 0, BuildingBlock: ICAMEG_clean_sbu_1, # of connection points: 4
#     Node 7, Type 0, BuildingBlock: ICAMEG_clean_sbu_1, # of connection points: 4
#     Node 8, Type 0, BuildingBlock: ICAMEG_clean_sbu_1, # of connection points: 4
#     Node 9, Type 0, BuildingBlock: ICAMEG_clean_sbu_1, # of connection points: 4
#     Node 10, Type 0, BuildingBlock: ICAMEG_clean_sbu_1, # of connection points: 4
#     Node 11, Type 0, BuildingBlock: ICAMEG_clean_sbu_1, # of connection points: 4
#     Node 12, Type 0, BuildingBlock: ICAMEG_clean_sbu_1, # of connection points: 4
#     Node 13, Type 0, BuildingBlock: ICAMEG_clean_sbu_1, # of connection points: 4
#     Node 14, Type 0, BuildingBlock: ICAMEG_clean_sbu_1, # of connection points: 4
#     Node 15, Type 0, BuildingBlock: ICAMEG_clean_sbu_1, # of connection points: 4
#     Edge 16, Type (0, 0), BuildingBlock: TEMPAE_clean_linker_10, # of connection points: 2
#     Edge 17, Type (0, 0), BuildingBlock: TEMPAE_clean_linker_10, # of connection points: 2
#     Edge 18, Type (0, 0), BuildingBlock: TEMPAE_clean_linker_10, # of connection points: 2
#     Edge 19, Type (0, 0), BuildingBlock: TEMPAE_clean_linker_10, # of connection points: 2
#     Edge 20, Type (0, 0), BuildingBlock: TEMPAE_clean_linker_10, # of connection points: 2
#     Edge 21, Type (0, 0), BuildingBlock: TEMPAE_clean_linker_10, # of connection points: 2
#     Edge 22, Type (0, 0), BuildingBlock: TEMPAE_clean_linker_10, # of connection points: 2
#     Edge 23, Type (0, 0), BuildingBlock: TEMPAE_clean_linker_10, # of connection points: 2
#     Edge 24, Type (0, 0), BuildingBlock: TEMPAE_clean_linker_10, # of connection points: 2
#     Edge 25, Type (0, 0), BuildingBlock: TEMPAE_clean_linker_10, # of connection points: 2
#     Edge 26, Type (0, 0), BuildingBlock: TEMPAE_clean_linker_10, # of connection points: 2
#     Edge 27, Type (0, 0), BuildingBlock: TEMPAE_clean_linker_10, # of connection points: 2
#     Edge 28, Type (0, 0), BuildingBlock: TEMPAE_clean_linker_10, # of connection points: 2
#     Edge 29, Type (0, 0), BuildingBlock: TEMPAE_clean_linker_10, # of connection points: 2
#     Edge 30, Type (0, 0), BuildingBlock: TEMPAE_clean_linker_10, # of connection points: 2
#     Edge 31, Type (0, 0), BuildingBlock: TEMPAE_clean_linker_10, # of connection points: 2
#     Edge 32, Type (0, 0), BuildingBlock: TEMPAE_clean_linker_10, # of connection points: 2
#     Edge 33, Type (0, 0), BuildingBlock: TEMPAE_clean_linker_10, # of connection points: 2
#     Edge 34, Type (0, 0), BuildingBlock: TEMPAE_clean_linker_10, # of connection points: 2
#     Edge 35, Type (0, 0), BuildingBlock: TEMPAE_clean_linker_10, # of connection points: 2
#     Edge 36, Type (0, 0), BuildingBlock: TEMPAE_clean_linker_10, # of connection points: 2
#     Edge 37, Type (0, 0), BuildingBlock: TEMPAE_clean_linker_10, # of connection points: 2
#     Edge 38, Type (0, 0), BuildingBlock: TEMPAE_clean_linker_10, # of connection points: 2
#     Edge 39, Type (0, 0), BuildingBlock: TEMPAE_clean_linker_10, # of connection points: 2
#     Edge 40, Type (0, 0), BuildingBlock: TEMPAE_clean_linker_10, # of connection points: 2
#     Edge 41, Type (0, 0), BuildingBlock: TEMPAE_clean_linker_10, # of connection points: 2
#     Edge 42, Type (0, 0), BuildingBlock: TEMPAE_clean_linker_10, # of connection points: 2
#     Edge 43, Type (0, 0), BuildingBlock: TEMPAE_clean_linker_10, # of connection points: 2
#     Edge 44, Type (0, 0), BuildingBlock: TEMPAE_clean_linker_10, # of connection points: 2
#     Edge 45, Type (0, 0), BuildingBlock: TEMPAE_clean_linker_10, # of connection points: 2
#     Edge 46, Type (0, 0), BuildingBlock: TEMPAE_clean_linker_10, # of connection points: 2
#     Edge 47, Type (0, 0), BuildingBlock: TEMPAE_clean_linker_10, # of connection points: 2
# Relax obj value: 0.183
# Max RMSD: 0.231
# Mean RMSD: 0.183
data_MOF--net-gsi--node1-ICAMEG_clean_sbu_1--edge1-TEMPAE_clean_linker_10
_symmetry_space_group_name_H-M    P1
_symmetry_Int_Tables_number       1
_symmetry_cell_setting            triclinic
loop_
_symmetry_equiv_pos_as_xyz
'x, y, z'
_cell_length_a     36.783894
_cell_length_b     48.291596
_cell_length_c     48.428471
_cell_angle_alpha  89.934822
_cell_angle_beta   90.009889
_cell_angle_gamma 99.644406
loop_
_atom_site_label
_atom_site_type_symbol
_atom_site_fract_x
_atom_site_fract_y
_atom_site_fract_z
_atom_type_partial_charge
Co0 Co 0.13505 0.16037 0.17028 0.0
Co1 Co 0.18051 0.20087 0.11873 0.0
O2 O 0.16455 0.16428 0.1364 0.0
C3 C 0.17824 0.12569 0.20425 0.0
O4 O 0.18488 0.1464 0.22206 0.0
C5 C 0.16563 0.15862 0.07204 0.0
O6 O 0.15142 0.13844 0.08891 0.0
O7 O 0.12835 0.20691 0.11688 0.0
O8 O 0.10778 0.19137 0.15868 0.0
H9 H 0.18091 0.30415 0.10555 0.0
H10 H 0.13712 0.10936 0.13657 0.0
O11 O 0.16083 0.12867 0.18194 0.0
H12 H 0.00585 0.11875 0.14108 0.0
H13 H 0.06042 0.1065 0.24623 0.0
H14 H 0.11317 0.20041 0.21075 0.0
H15 H 0.05297 0.15264 0.1649 0.0
H16 H 0.096 0.1116 0.20284 0.0
O17 O 0.17598 0.18354 0.08088 0.0
H18 H 0.16309 0.25792 0.12779 0.0
H19 H 0.22974 0.22153 0.07125 0.0
H20 H 0.07756 0.19629 0.25415 0.0
H21 H 0.09087 0.07462 0.11287 0.0
H22 H 0.05093 0.14906 0.27217 0.0
H23 H 0.02468 0.07928 0.11489 0.0
O24 O 0.17338 0.18821 0.18892 0.0
H25 H 0.28344 0.14425 0.11154 0.0
H26 H 0.25155 0.23652 0.13494 0.0
H27 H 0.31604 0.22934 0.13876 0.0
H28 H 0.33246 0.18297 0.12681 0.0
H29 H 0.21928 0.15217 0.10851 0.0
H30 H 0.24796 0.26731 0.04824 0.0
H31 H 0.22365 0.30907 0.06547 0.0
O32 O 0.18686 0.22016 0.15537 0.0
C33 C 0.10465 0.20498 0.13635 0.0
C34 C 0.19179 0.28613 0.09791 0.0
C35 C 0.22937 0.26545 0.06572 0.0
N36 N 0.19552 0.23706 0.10098 0.0
C37 C 0.18187 0.25991 0.11046 0.0
C38 C 0.21885 0.23955 0.07879 0.0
C39 C 0.21573 0.28887 0.0754 0.0
C40 C 0.10839 0.11153 0.13762 0.0
N41 N 0.09789 0.13333 0.15179 0.0
C42 C 0.08231 0.09179 0.12412 0.0
C43 C 0.0452 0.09442 0.12525 0.0
C44 C 0.03463 0.1166 0.13988 0.0
C45 C 0.06149 0.13591 0.15312 0.0
C46 C 0.07186 0.1272 0.23858 0.0
C47 C 0.10156 0.1798 0.21842 0.0
C48 C 0.09208 0.13022 0.21405 0.0
N49 N 0.10657 0.15629 0.20424 0.0
C50 C 0.08147 0.17759 0.24302 0.0
C51 C 0.06654 0.15109 0.25312 0.0
C52 C 0.1885 0.21242 0.18045 0.0
C53 C 0.27669 0.16462 0.1166 0.0
C54 C 0.25833 0.21626 0.12975 0.0
C55 C 0.29498 0.21233 0.13192 0.0
C56 C 0.30417 0.18633 0.12522 0.0
N57 N 0.23151 0.19497 0.121 0.0
C58 C 0.24032 0.16931 0.11473 0.0
Co59 Co 0.8556 0.35047 0.17306 0.0
Co60 Co 0.80909 0.31 0.1211 0.0
O61 O 0.82395 0.34637 0.13998 0.0
C62 C 0.79714 0.38639 0.18451 0.0
O63 O 0.77677 0.37544 0.16379 0.0
C64 C 0.82235 0.354 0.07584 0.0
O65 O 0.8352 0.37359 0.09368 0.0
O66 O 0.86158 0.30482 0.11806 0.0
O67 O 0.88539 0.32264 0.15813 0.0
H68 H 0.81159 0.20754 0.10512 0.0
H69 H 0.84573 0.40204 0.14233 0.0
O70 O 0.82777 0.37862 0.18994 0.0
H71 H 0.97962 0.40172 0.14202 0.0
H72 H 0.92943 0.40315 0.24992 0.0
H73 H 0.8858 0.31008 0.20892 0.0
H74 H 0.9372 0.36399 0.16525 0.0
H75 H 0.89097 0.39862 0.20795 0.0
O76 O 0.81261 0.32858 0.08356 0.0
H77 H 0.82851 0.25329 0.12836 0.0
H78 H 0.7595 0.28987 0.07374 0.0
H79 H 0.92456 0.3137 0.25076 0.0
H80 H 0.88713 0.44056 0.11937 0.0
H81 H 0.94663 0.3605 0.27154 0.0
H82 H 0.95464 0.4405 0.11894 0.0
O83 O 0.82124 0.32015 0.19173 0.0
H84 H 0.70173 0.3623 0.11305 0.0
H85 H 0.74031 0.27302 0.13954 0.0
H86 H 0.67508 0.27799 0.14391 0.0
H87 H 0.65528 0.32282 0.13044 0.0
H88 H 0.76671 0.35671 0.10971 0.0
H89 H 0.74207 0.24456 0.04979 0.0
H90 H 0.76807 0.20296 0.06552 0.0
O91 O 0.80415 0.28966 0.1574 0.0
C92 C 0.88713 0.30836 0.13616 0.0
C93 C 0.80001 0.2255 0.09811 0.0
C94 C 0.76104 0.24628 0.06703 0.0
N95 N 0.79491 0.27421 0.10252 0.0
C96 C 0.80942 0.25144 0.11123 0.0
C97 C 0.77111 0.27191 0.08063 0.0
C98 C 0.77562 0.22295 0.07588 0.0
C99 C 0.87503 0.4019 0.14245 0.0
N100 N 0.8889 0.38052 0.15491 0.0
C101 C 0.89836 0.42376 0.1293 0.0
C102 C 0.93622 0.4237 0.12904 0.0
C103 C 0.95024 0.40192 0.14192 0.0
C104 C 0.92604 0.38043 0.15484 0.0
C105 C 0.92005 0.38264 0.24102 0.0
C106 C 0.89552 0.33053 0.21773 0.0
C107 C 0.89819 0.37993 0.21728 0.0
N108 N 0.8864 0.35411 0.20584 0.0
C109 C 0.91736 0.33244 0.24147 0.0
C110 C 0.9297 0.35871 0.25314 0.0
C111 C 0.80538 0.29633 0.18291 0.0
C112 C 0.70996 0.34259 0.11885 0.0
C113 C 0.73213 0.29272 0.13385 0.0
C114 C 0.69503 0.29535 0.13626 0.0
C115 C 0.68393 0.32048 0.12866 0.0
N116 N 0.75759 0.31448 0.12412 0.0
C117 C 0.74683 0.3392 0.11675 0.0
Co118 Co 0.12774 0.8843 0.30646 0.0
Co119 Co 0.17514 0.84488 0.3466 0.0
O120 O 0.16462 0.88158 0.33499 0.0
C121 C 0.17029 0.92799 0.27021 0.0
O122 O 0.16845 0.90899 0.25066 0.0
C123 C 0.17573 0.85041 0.40747 0.0
O124 O 0.14765 0.82966 0.40803 0.0
O125 O 0.1224 0.83355 0.35696 0.0
O126 O 0.09666 0.84804 0.31881 0.0
H127 H 0.14903 0.73961 0.35451 0.0
H128 H 0.14958 0.93181 0.34496 0.0
O129 O 0.15741 0.92115 0.2942 0.0
H130 H 0.01507 0.90489 0.35637 0.0
H131 H 0.0465 0.93458 0.24742 0.0
H132 H 0.08696 0.84415 0.26659 0.0
H133 H 0.04879 0.87974 0.32338 0.0
H134 H 0.09156 0.93077 0.28435 0.0
O135 O 0.18801 0.86074 0.38438 0.0
H136 H 0.1376 0.78604 0.33912 0.0
H137 H 0.23442 0.8256 0.38034 0.0
H138 H 0.04156 0.84695 0.22964 0.0
H139 H 0.11685 0.95776 0.37798 0.0
H140 H 0.02107 0.89243 0.21983 0.0
H141 H 0.04911 0.94431 0.38386 0.0
O142 O 0.15545 0.86322 0.2807 0.0
H143 H 0.29566 0.91138 0.34131 0.0
H144 H 0.22887 0.81843 0.3135 0.0
H145 H 0.29335 0.83316 0.29879 0.0
H146 H 0.32723 0.87989 0.31275 0.0
H147 H 0.23099 0.89594 0.35539 0.0
H148 H 0.24679 0.77959 0.3963 0.0
H149 H 0.20396 0.73615 0.38334 0.0
O150 O 0.16369 0.82828 0.30911 0.0
C151 C 0.09496 0.83304 0.34072 0.0
C152 C 0.16791 0.75838 0.36029 0.0
C153 C 0.22277 0.78081 0.38375 0.0
N154 N 0.18526 0.80856 0.35884 0.0
C155 C 0.16158 0.78475 0.35163 0.0
C156 C 0.21558 0.80682 0.37468 0.0
C157 C 0.19873 0.75645 0.37647 0.0
C158 C 0.12007 0.92595 0.34729 0.0
N159 N 0.10112 0.9044 0.33214 0.0
C160 C 0.1017 0.94067 0.36607 0.0
C161 C 0.0637 0.93309 0.36938 0.0
C162 C 0.04458 0.91097 0.35397 0.0
C163 C 0.06386 0.89675 0.33538 0.0
C164 C 0.0552 0.91464 0.2515 0.0
C165 C 0.0781 0.86399 0.2625 0.0
C166 C 0.08078 0.91237 0.27234 0.0
N167 N 0.09187 0.88725 0.27763 0.0
C168 C 0.05241 0.86546 0.24153 0.0
C169 C 0.04094 0.89099 0.23603 0.0
C170 C 0.16337 0.8389 0.28504 0.0
C171 C 0.2812 0.89094 0.33513 0.0
C172 C 0.24332 0.83887 0.31958 0.0
C173 C 0.27988 0.84706 0.31121 0.0
C174 C 0.29889 0.87327 0.31909 0.0
N175 N 0.2262 0.85625 0.33545 0.0
C176 C 0.24461 0.88205 0.34311 0.0
Co177 Co 0.86932 0.61622 0.30258 0.0
Co178 Co 0.80426 0.64673 0.33808 0.0
O179 O 0.82751 0.61439 0.32818 0.0
C180 C 0.81296 0.5713 0.27851 0.0
O181 O 0.78732 0.58625 0.28447 0.0
C182 C 0.81004 0.64719 0.39917 0.0
O183 O 0.83069 0.67207 0.39706 0.0
O184 O 0.85349 0.67018 0.34598 0.0
O185 O 0.89343 0.65226 0.3191 0.0
H186 H 0.79023 0.74842 0.33572 0.0
H187 H 0.84592 0.56481 0.33585 0.0
O188 O 0.84646 0.58002 0.28499 0.0
H189 H 0.97503 0.59883 0.36261 0.0
H190 H 0.96549 0.57578 0.24907 0.0
H191 H 0.91422 0.66147 0.26984 0.0
H192 H 0.94447 0.6242 0.32769 0.0
H193 H 0.91318 0.57411 0.28123 0.0
O194 O 0.79945 0.6332 0.37745 0.0
H195 H 0.81889 0.70729 0.32408 0.0
H196 H 0.73964 0.65482 0.373 0.0
H197 H 0.9668 0.66415 0.23781 0.0
H198 H 0.87554 0.53862 0.37069 0.0
H199 H 0.99277 0.62107 0.22722 0.0
H200 H 0.94055 0.55565 0.3843 0.0
O201 O 0.84495 0.63723 0.2745 0.0
H202 H 0.70794 0.55974 0.34274 0.0
H203 H 0.73851 0.65581 0.30527 0.0
H204 H 0.67862 0.62691 0.29389 0.0
H205 H 0.66294 0.57852 0.31275 0.0
H206 H 0.76777 0.58924 0.35327 0.0
H207 H 0.71045 0.69546 0.38549 0.0
H208 H 0.73567 0.74267 0.36671 0.0
O209 O 0.80747 0.66011 0.29921 0.0
C210 C 0.88565 0.67073 0.33583 0.0
C211 C 0.779 0.72797 0.34406 0.0
C212 C 0.73422 0.69824 0.37199 0.0
N213 N 0.781 0.67867 0.34786 0.0
C214 C 0.79508 0.70459 0.33751 0.0
C215 C 0.75094 0.67532 0.36491 0.0
C216 C 0.74839 0.72472 0.36144 0.0
C217 C 0.87428 0.57224 0.34156 0.0
N218 N 0.89348 0.59593 0.32968 0.0
C219 C 0.89088 0.55737 0.36135 0.0
C220 C 0.92734 0.56696 0.36899 0.0
C221 C 0.9467 0.59119 0.35685 0.0
C222 C 0.92921 0.60552 0.33715 0.0
C223 C 0.95444 0.5947 0.25354 0.0
C224 C 0.92547 0.64266 0.26544 0.0
C225 C 0.92475 0.59387 0.27167 0.0
N226 N 0.91075 0.6177 0.2775 0.0
C227 C 0.9552 0.6443 0.24724 0.0
C228 C 0.96974 0.62012 0.2413 0.0
C229 C 0.8223 0.65439 0.27663 0.0
C230 C 0.71442 0.58081 0.33444 0.0
C231 C 0.73203 0.63471 0.31339 0.0
C232 C 0.69799 0.61848 0.30697 0.0
C233 C 0.6892 0.59135 0.31758 0.0
N234 N 0.75663 0.62424 0.32994 0.0
C235 C 0.74819 0.59766 0.34043 0.0
Co236 Co 0.37818 0.84666 0.67186 0.0
Co237 Co 0.32472 0.80472 0.62559 0.0
O238 O 0.34351 0.84206 0.64083 0.0
C239 C 0.32371 0.88268 0.69066 0.0
O240 O 0.29626 0.86184 0.68687 0.0
C241 C 0.32986 0.84518 0.57714 0.0
O242 O 0.3458 0.86624 0.5923 0.0
O243 O 0.37624 0.79851 0.61874 0.0
O244 O 0.40202 0.81448 0.65881 0.0
H245 H 0.32236 0.70094 0.61471 0.0
H246 H 0.37228 0.89612 0.63698 0.0
O247 O 0.35668 0.87949 0.68555 0.0
H248 H 0.50272 0.88465 0.63102 0.0
H249 H 0.46509 0.90172 0.74015 0.0
H250 H 0.40544 0.80728 0.7106 0.0
H251 H 0.45896 0.85278 0.65979 0.0
H252 H 0.42276 0.89588 0.70031 0.0
O253 O 0.32221 0.82049 0.58723 0.0
H254 H 0.34387 0.74804 0.63402 0.0
H255 H 0.26741 0.78212 0.58389 0.0
H256 H 0.4479 0.81215 0.75038 0.0
H257 H 0.41517 0.92882 0.60826 0.0
H258 H 0.47805 0.85964 0.7654 0.0
H259 H 0.4809 0.9231 0.60502 0.0
O260 O 0.34211 0.82058 0.69441 0.0
H261 H 0.22086 0.86085 0.62849 0.0
H262 H 0.25778 0.76965 0.64964 0.0
H263 H 0.19464 0.7769 0.66031 0.0
H264 H 0.17567 0.82272 0.64957 0.0
H265 H 0.2838 0.85291 0.61863 0.0
H266 H 0.24535 0.73543 0.56385 0.0
H267 H 0.27274 0.69439 0.57935 0.0
O268 O 0.32528 0.78697 0.66297 0.0
C269 C 0.40226 0.80047 0.63646 0.0
C270 C 0.31013 0.71864 0.60784 0.0
C271 C 0.26695 0.738 0.57927 0.0
N272 N 0.30681 0.76781 0.61023 0.0
C273 C 0.32214 0.74536 0.61875 0.0
C274 C 0.27966 0.76442 0.59063 0.0
C275 C 0.28232 0.71499 0.58798 0.0
C276 C 0.40082 0.89347 0.63567 0.0
N277 N 0.41291 0.87217 0.64966 0.0
C278 C 0.42499 0.91206 0.61937 0.0
C279 C 0.46185 0.90884 0.61755 0.0
C280 C 0.47408 0.88723 0.63208 0.0
C281 C 0.4491 0.86905 0.64815 0.0
C282 C 0.45215 0.88091 0.73378 0.0
C283 C 0.4186 0.82801 0.71693 0.0
C284 C 0.42806 0.87747 0.71129 0.0
N285 N 0.41179 0.85124 0.70303 0.0
C286 C 0.44255 0.83064 0.73951 0.0
C287 C 0.45943 0.85729 0.74793 0.0
C288 C 0.32607 0.796 0.68774 0.0
C289 C 0.22867 0.84069 0.63302 0.0
C290 C 0.24984 0.78965 0.64482 0.0
C291 C 0.21398 0.79362 0.65093 0.0
C292 C 0.20336 0.81932 0.64491 0.0
N293 N 0.2745 0.81061 0.63288 0.0
C294 C 0.26432 0.83597 0.62722 0.0
Co295 Co 0.90234 0.87816 0.83834 0.0
Co296 Co 0.81582 0.87724 0.86436 0.0
O297 O 0.86764 0.87272 0.86946 0.0
C298 C 0.91735 0.82413 0.86264 0.0
O299 O 0.88192 0.81598 0.86684 0.0
C300 C 0.83706 0.90418 0.91968 0.0
O301 O 0.86979 0.91534 0.91043 0.0
O302 O 0.83188 0.91647 0.85067 0.0
O303 O 0.87756 0.90873 0.82262 0.0
H304 H 0.70997 0.90662 0.81275 0.0
H305 H 0.931 0.88005 0.89541 0.0
O306 O 0.92928 0.8483 0.8526 0.0
H307 H 0.9831 0.97183 0.85483 0.0
H308 H 0.02666 0.88619 0.79251 0.0
H309 H 0.89387 0.8859 0.77816 0.0
H310 H 0.9432 0.93611 0.82723 0.0
H311 H 0.98366 0.88056 0.83195 0.0
O312 O 0.81338 0.89046 0.90348 0.0
H313 H 0.7743 0.89984 0.81949 0.0
H314 H 0.7477 0.86515 0.89903 0.0
H315 H 0.93598 0.89193 0.73817 0.0
H316 H 0.97125 0.915 0.92373 0.0
H317 H 0.0029 0.89208 0.74522 0.0
H318 H 0.99748 0.96133 0.90347 0.0
O319 O 0.86907 0.84906 0.81697 0.0
H320 H 0.81859 0.79548 0.92825 0.0
H321 H 0.76167 0.82797 0.84472 0.0
H322 H 0.74324 0.77904 0.86021 0.0
H323 H 0.77164 0.7625 0.90237 0.0
H324 H 0.83682 0.84408 0.91164 0.0
H325 H 0.68314 0.87176 0.89324 0.0
H326 H 0.66385 0.89253 0.84979 0.0
O327 O 0.81523 0.86298 0.8255 0.0
C328 C 0.85415 0.92378 0.83067 0.0
C329 C 0.71802 0.89753 0.83177 0.0
C330 C 0.70298 0.87801 0.87696 0.0
N331 N 0.76483 0.88212 0.85964 0.0
C332 C 0.75442 0.89361 0.8357 0.0
C333 C 0.73964 0.87443 0.88017 0.0
C334 C 0.69217 0.88964 0.85257 0.0
C335 C 0.94251 0.90011 0.88641 0.0
N336 N 0.93458 0.9061 0.85973 0.0
C337 C 0.9652 0.91984 0.90257 0.0
C338 C 0.97986 0.94584 0.8912 0.0
C339 C 0.97175 0.95176 0.86393 0.0
C340 C 0.94893 0.93152 0.84843 0.0
C341 C 0.99757 0.88622 0.78918 0.0
C342 C 0.92299 0.88613 0.78142 0.0
C343 C 0.97306 0.88297 0.81143 0.0
N344 N 0.9363 0.88309 0.80738 0.0
C345 C 0.94669 0.88947 0.75868 0.0
C346 C 0.98422 0.88953 0.76265 0.0
C347 C 0.83472 0.84789 0.81239 0.0
C348 C 0.80598 0.80243 0.90987 0.0
C349 C 0.77449 0.8209 0.86287 0.0
C350 C 0.76377 0.79318 0.87166 0.0
C351 C 0.77968 0.78393 0.89532 0.0
N352 N 0.80042 0.83891 0.87718 0.0
C353 C 0.81607 0.82999 0.90043 0.0
Co354 Co 0.11109 0.632 0.8468 0.0
Co355 Co 0.19456 0.63144 0.87865 0.0
O356 O 0.14233 0.6361 0.88 0.0
C357 C 0.09546 0.68659 0.86919 0.0
O358 O 0.13074 0.69467 0.87413 0.0
C359 C 0.16592 0.60681 0.93395 0.0
O360 O 0.1316 0.60708 0.9268 0.0
O361 O 0.18069 0.59338 0.86166 0.0
O362 O 0.13643 0.60136 0.83235 0.0
H363 H 0.30702 0.60573 0.83308 0.0
H364 H 0.07478 0.63003 0.90141 0.0
O365 O 0.08379 0.66218 0.85964 0.0
H366 H 0.02711 0.53881 0.85811 0.0
H367 H 0.99208 0.62659 0.79396 0.0
H368 H 0.12561 0.62557 0.78718 0.0
H369 H 0.07105 0.57439 0.83334 0.0
H370 H 0.03086 0.63071 0.83578 0.0
O371 O 0.19202 0.61429 0.91678 0.0
H372 H 0.24215 0.61248 0.8356 0.0
H373 H 0.25726 0.6398 0.9188 0.0
H374 H 0.08777 0.62107 0.74486 0.0
H375 H 0.03031 0.59526 0.92683 0.0
H376 H 0.0205 0.62159 0.7481 0.0
H377 H 0.00632 0.54919 0.90521 0.0
O378 O 0.14714 0.66086 0.82735 0.0
H379 H 0.18211 0.70923 0.94539 0.0
H380 H 0.25185 0.68132 0.86616 0.0
H381 H 0.26865 0.72887 0.88552 0.0
H382 H 0.23382 0.74308 0.92555 0.0
H383 H 0.1658 0.66212 0.92509 0.0
H384 H 0.3222 0.63309 0.91724 0.0
H385 H 0.34754 0.61606 0.8741 0.0
O386 O 0.20059 0.64902 0.8411 0.0
C387 C 0.15978 0.58649 0.84084 0.0
C388 C 0.29633 0.61322 0.85197 0.0
C389 C 0.30483 0.62853 0.89922 0.0
N390 N 0.24591 0.62663 0.87727 0.0
C391 C 0.25962 0.61714 0.85351 0.0
C392 C 0.26798 0.6322 0.9 0.0
C393 C 0.31903 0.61899 0.87501 0.0
C394 C 0.06433 0.61008 0.89183 0.0
N395 N 0.07589 0.60412 0.86604 0.0
C396 C 0.03922 0.59045 0.90634 0.0
C397 C 0.0258 0.5646 0.89422 0.0
C398 C 0.03751 0.55874 0.86782 0.0
C399 C 0.06267 0.57888 0.85396 0.0
C400 C 0.02135 0.62629 0.79229 0.0
C401 C 0.09632 0.62566 0.78877 0.0
C402 C 0.04348 0.6287 0.81589 0.0
N403 N 0.08046 0.62825 0.81394 0.0
C404 C 0.07505 0.62317 0.76473 0.0
C405 C 0.03731 0.62349 0.76656 0.0
C406 C 0.18206 0.66285 0.82559 0.0
C407 C 0.19768 0.70322 0.92807 0.0
C408 C 0.23646 0.68729 0.88352 0.0
C409 C 0.24617 0.71427 0.89444 0.0
C410 C 0.22663 0.72223 0.9169 0.0
N411 N 0.20818 0.66865 0.8947 0.0
C412 C 0.18873 0.67642 0.9166 0.0
Co413 Co 0.8307 0.17141 0.64324 0.0
Co414 Co 0.82267 0.15435 0.71182 0.0
O415 O 0.8181 0.14297 0.67258 0.0
C416 C 0.76592 0.13072 0.6185 0.0
O417 O 0.75991 0.11538 0.64094 0.0
C418 C 0.84027 0.09467 0.71132 0.0
O419 O 0.83674 0.09249 0.68441 0.0
O420 O 0.87587 0.17022 0.70613 0.0
O421 O 0.86985 0.19354 0.66694 0.0
H422 H 0.86273 0.22207 0.78911 0.0
H423 H 0.8305 0.11126 0.63001 0.0
O424 O 0.79208 0.15162 0.61744 0.0
H425 H 0.95625 0.1595 0.60862 0.0
H426 H 0.85505 0.20574 0.54558 0.0
H427 H 0.8457 0.23373 0.64286 0.0
H428 H 0.90949 0.18612 0.62609 0.0
H429 H 0.84064 0.16989 0.58202 0.0
O430 O 0.83657 0.11738 0.72359 0.0
H431 H 0.85569 0.20687 0.74057 0.0
H432 H 0.80091 0.12631 0.76582 0.0
H433 H 0.86066 0.27024 0.60713 0.0
H434 H 0.87624 0.08388 0.61228 0.0
H435 H 0.86538 0.25633 0.55806 0.0
H436 H 0.93971 0.108 0.60148 0.0
O437 O 0.79354 0.19289 0.65818 0.0
H438 H 0.70637 0.08304 0.702 0.0
H439 H 0.76037 0.17588 0.73901 0.0
H440 H 0.69416 0.15832 0.74551 0.0
H441 H 0.66671 0.11148 0.7271 0.0
H442 H 0.7722 0.10157 0.69558 0.0
H443 H 0.80781 0.14056 0.81465 0.0
H444 H 0.83872 0.1888 0.82657 0.0
O445 O 0.80888 0.19178 0.70281 0.0
C446 C 0.88761 0.18955 0.68879 0.0
C447 C 0.84913 0.20101 0.78418 0.0
C448 C 0.81836 0.15526 0.79851 0.0
N449 N 0.82773 0.16578 0.75029 0.0
C450 C 0.84498 0.19229 0.75671 0.0
C451 C 0.81465 0.14728 0.77081 0.0
C452 C 0.83568 0.18233 0.80518 0.0
C453 C 0.85785 0.12198 0.6251 0.0
N454 N 0.86708 0.1503 0.62886 0.0
C455 C 0.88374 0.10633 0.61518 0.0
C456 C 0.91936 0.11987 0.60917 0.0
C457 C 0.92866 0.14875 0.61318 0.0
C458 C 0.90205 0.1637 0.62315 0.0
C459 C 0.85319 0.21207 0.5669 0.0
C460 C 0.84804 0.22748 0.62161 0.0
C461 C 0.84497 0.19186 0.58763 0.0
N462 N 0.84271 0.19969 0.61463 0.0
C463 C 0.85637 0.24826 0.60144 0.0
C464 C 0.85898 0.24045 0.57391 0.0
C465 C 0.79306 0.20211 0.68276 0.0
C466 C 0.71806 0.10338 0.71033 0.0
C467 C 0.74876 0.15546 0.7309 0.0
C468 C 0.71118 0.14563 0.73468 0.0
C469 C 0.6958 0.11936 0.72435 0.0
N470 N 0.77058 0.13957 0.71733 0.0
C471 C 0.75554 0.11392 0.70693 0.0
Co472 Co 0.18841 0.34671 0.6485 0.0
Co473 Co 0.191 0.35672 0.71867 0.0
O474 O 0.20055 0.37119 0.6808 0.0
C475 C 0.25631 0.35746 0.61488 0.0
O476 O 0.25784 0.33075 0.61867 0.0
C477 C 0.17768 0.41732 0.72066 0.0
O478 O 0.18318 0.4206 0.694 0.0
O479 O 0.13811 0.34353 0.70938 0.0
O480 O 0.14498 0.32442 0.66803 0.0
H481 H 0.13799 0.28432 0.78888 0.0
H482 H 0.19862 0.40819 0.63941 0.0
O483 O 0.23166 0.36843 0.6275 0.0
H484 H 0.07066 0.3724 0.61097 0.0
H485 H 0.16981 0.32527 0.54706 0.0
H486 H 0.16786 0.28515 0.64084 0.0
H487 H 0.11076 0.33998 0.62793 0.0
H488 H 0.184 0.35608 0.58754 0.0
O489 O 0.17882 0.3937 0.73214 0.0
H490 H 0.15156 0.30312 0.742 0.0
H491 H 0.20862 0.37955 0.77536 0.0
H492 H 0.15316 0.25359 0.60094 0.0
H493 H 0.15959 0.44134 0.6222 0.0
H494 H 0.15415 0.27362 0.55363 0.0
H495 H 0.09507 0.42348 0.60791 0.0
O496 O 0.22017 0.3206 0.66339 0.0
H497 H 0.31201 0.42364 0.71848 0.0
H498 H 0.24794 0.33026 0.74752 0.0
H499 H 0.31383 0.34443 0.75827 0.0
H500 H 0.34632 0.39152 0.74392 0.0
H501 H 0.24639 0.40848 0.70774 0.0
H502 H 0.1953 0.36165 0.8226 0.0
H503 H 0.1599 0.31365 0.82961 0.0
O504 O 0.20285 0.31928 0.70773 0.0
C505 C 0.1262 0.32672 0.68983 0.0
C506 C 0.15353 0.30523 0.7861 0.0
C507 C 0.18564 0.34865 0.80502 0.0
N508 N 0.18106 0.34235 0.75588 0.0
C509 C 0.16139 0.31599 0.75959 0.0
C510 C 0.193 0.35871 0.7782 0.0
C511 C 0.1658 0.32171 0.80894 0.0
C512 C 0.17064 0.40025 0.63308 0.0
N513 N 0.15702 0.3722 0.63473 0.0
C514 C 0.14864 0.41913 0.62342 0.0
C515 C 0.11243 0.4091 0.61543 0.0
C516 C 0.09871 0.38045 0.61718 0.0
C517 C 0.12151 0.3622 0.62695 0.0
C518 C 0.16922 0.31629 0.56758 0.0
C519 C 0.16821 0.29405 0.62034 0.0
C520 C 0.17724 0.33363 0.59059 0.0
N521 N 0.17668 0.32244 0.61658 0.0
C522 C 0.15991 0.27606 0.59782 0.0
C523 C 0.16046 0.28731 0.57128 0.0
C524 C 0.21825 0.30938 0.68726 0.0
C525 C 0.29807 0.40318 0.7251 0.0
C526 C 0.26174 0.35084 0.74123 0.0
C527 C 0.29913 0.35873 0.74738 0.0
C528 C 0.31733 0.38513 0.73931 0.0
N529 N 0.24283 0.36879 0.72758 0.0
C530 C 0.2607 0.39455 0.71926 0.0
Co531 Co 0.59743 0.1287 0.34372 0.0
Co532 Co 0.68268 0.12987 0.37376 0.0
O533 O 0.63024 0.1338 0.37609 0.0
C534 C 0.58307 0.18354 0.36604 0.0
O535 O 0.61843 0.19105 0.37101 0.0
C536 C 0.65627 0.10417 0.42912 0.0
O537 O 0.62159 0.10335 0.42236 0.0
O538 O 0.66931 0.09171 0.35706 0.0
O539 O 0.62235 0.0978 0.32944 0.0
H540 H 0.79473 0.10588 0.32613 0.0
H541 H 0.56349 0.12835 0.39913 0.0
O542 O 0.57073 0.15928 0.35642 0.0
H543 H 0.51472 0.03568 0.35921 0.0
H544 H 0.47594 0.12179 0.29396 0.0
H545 H 0.60899 0.12017 0.28398 0.0
H546 H 0.55747 0.07057 0.33266 0.0
H547 H 0.51677 0.1273 0.33467 0.0
O548 O 0.68183 0.11285 0.41186 0.0
H549 H 0.72955 0.11155 0.32983 0.0
H550 H 0.74663 0.13941 0.41273 0.0
H551 H 0.56907 0.11427 0.24277 0.0
H552 H 0.52025 0.09428 0.42629 0.0
H553 H 0.50203 0.11509 0.24761 0.0
H554 H 0.49571 0.04749 0.40638 0.0
O555 O 0.63226 0.157 0.32262 0.0
H556 H 0.67125 0.20704 0.4414 0.0
H557 H 0.73762 0.18067 0.35967 0.0
H558 H 0.75388 0.22837 0.37884 0.0
H559 H 0.72073 0.2418 0.4201 0.0
H560 H 0.6554 0.15978 0.42129 0.0
H561 H 0.81191 0.13379 0.40998 0.0
H562 H 0.83641 0.11702 0.36641 0.0
O563 O 0.68693 0.14717 0.33611 0.0
C564 C 0.64721 0.08393 0.33712 0.0
C565 C 0.78441 0.11326 0.34521 0.0
C566 C 0.79403 0.12888 0.39228 0.0
N567 N 0.73427 0.1259 0.37142 0.0
C568 C 0.74752 0.11656 0.34742 0.0
C569 C 0.75699 0.13194 0.39374 0.0
C570 C 0.80777 0.11949 0.36782 0.0
C571 C 0.55275 0.10809 0.39027 0.0
N572 N 0.56331 0.10136 0.36444 0.0
C573 C 0.52836 0.08886 0.40578 0.0
C574 C 0.51465 0.0626 0.39461 0.0
C575 C 0.52536 0.05594 0.36817 0.0
C576 C 0.54982 0.0757 0.3533 0.0
C577 C 0.5051 0.12134 0.29159 0.0
C578 C 0.5798 0.12037 0.28629 0.0
C579 C 0.52838 0.12451 0.31456 0.0
N580 N 0.56521 0.12388 0.31174 0.0
C581 C 0.55735 0.11709 0.26286 0.0
C582 C 0.51975 0.11758 0.26559 0.0
C583 C 0.66717 0.15957 0.32021 0.0
C584 C 0.68607 0.20138 0.42353 0.0
C585 C 0.72295 0.18632 0.37759 0.0
C586 C 0.73236 0.21338 0.38838 0.0
C587 C 0.71377 0.22089 0.41154 0.0
N588 N 0.69588 0.1672 0.38956 0.0
C589 C 0.67739 0.17452 0.41216 0.0
Co590 Co 0.6407 0.64866 0.67692 0.0
Co591 Co 0.68987 0.68608 0.62457 0.0
O592 O 0.67299 0.65045 0.64424 0.0
C593 C 0.69819 0.61426 0.69436 0.0
O594 O 0.72382 0.63016 0.67996 0.0
C595 C 0.67939 0.64141 0.57954 0.0
O596 O 0.66823 0.62097 0.59701 0.0
O597 O 0.63795 0.69219 0.61994 0.0
O598 O 0.61368 0.67778 0.66094 0.0
H599 H 0.69138 0.78845 0.60481 0.0
H600 H 0.64774 0.59622 0.64744 0.0
O601 O 0.66522 0.61903 0.69451 0.0
H602 H 0.51515 0.60165 0.64451 0.0
H603 H 0.56156 0.60046 0.75364 0.0
H604 H 0.61358 0.69149 0.71147 0.0
H605 H 0.55897 0.63814 0.66819 0.0
H606 H 0.60083 0.60242 0.7122 0.0
O607 O 0.68705 0.66679 0.58769 0.0
H608 H 0.67226 0.7436 0.62931 0.0
H609 H 0.74163 0.70395 0.57777 0.0
H610 H 0.57409 0.69046 0.75274 0.0
H611 H 0.60488 0.55895 0.62385 0.0
H612 H 0.5478 0.6447 0.77411 0.0
H613 H 0.53805 0.5616 0.62217 0.0
O614 O 0.67682 0.67823 0.69543 0.0
H615 H 0.79432 0.63027 0.6241 0.0
H616 H 0.75943 0.72277 0.64186 0.0
H617 H 0.82385 0.7165 0.64852 0.0
H618 H 0.84181 0.67002 0.63941 0.0
H619 H 0.73019 0.63726 0.61841 0.0
H620 H 0.76117 0.74831 0.55255 0.0
H621 H 0.73614 0.79101 0.56611 0.0
O622 O 0.69417 0.7074 0.66009 0.0
C623 C 0.61248 0.69064 0.63801 0.0
C624 C 0.70257 0.77002 0.59876 0.0
C625 C 0.7417 0.74748 0.5694 0.0
N626 N 0.70595 0.7212 0.60512 0.0
C627 C 0.69192 0.74457 0.61261 0.0
C628 C 0.73042 0.72239 0.58372 0.0
C629 C 0.72765 0.77143 0.57703 0.0
C630 C 0.61871 0.5975 0.64682 0.0
N631 N 0.60596 0.61958 0.65885 0.0
C632 C 0.59456 0.57634 0.63342 0.0
C633 C 0.55708 0.57785 0.63247 0.0
C634 C 0.54423 0.60034 0.64494 0.0
C635 C 0.56921 0.62111 0.65813 0.0
C636 C 0.5728 0.62053 0.74448 0.0
C637 C 0.60205 0.67149 0.72055 0.0
C638 C 0.59514 0.62178 0.72105 0.0
N639 N 0.60929 0.64706 0.70929 0.0
C640 C 0.57979 0.67104 0.74396 0.0
C641 C 0.56508 0.64536 0.75595 0.0
C642 C 0.69318 0.70162 0.68579 0.0
C643 C 0.78692 0.65071 0.62789 0.0
C644 C 0.76683 0.70243 0.63794 0.0
C645 C 0.80347 0.69904 0.64169 0.0
C646 C 0.81353 0.67298 0.63656 0.0
N647 N 0.74083 0.68056 0.62919 0.0
C648 C 0.75054 0.65489 0.62439 0.0
Co649 Co 0.63571 0.38042 0.80492 0.0
Co650 Co 0.68836 0.3407 0.84132 0.0
O651 O 0.6763 0.37766 0.83092 0.0
C652 C 0.69512 0.43003 0.78994 0.0
O653 O 0.71998 0.42108 0.80545 0.0
C654 C 0.70291 0.37648 0.89314 0.0
O655 O 0.69418 0.39881 0.88109 0.0
O656 O 0.63696 0.32808 0.85394 0.0
O657 O 0.60655 0.34432 0.81919 0.0
H658 H 0.66573 0.23512 0.84392 0.0
H659 H 0.66227 0.42889 0.8415 0.0
O660 O 0.66226 0.41658 0.78873 0.0
H661 H 0.53039 0.40112 0.86356 0.0
H662 H 0.54728 0.42992 0.75222 0.0
H663 H 0.58908 0.33948 0.76872 0.0
H664 H 0.55963 0.37575 0.82798 0.0
H665 H 0.59736 0.42668 0.7853 0.0
O666 O 0.70199 0.35351 0.88006 0.0
H667 H 0.65246 0.28181 0.83113 0.0
H668 H 0.74826 0.32105 0.87383 0.0
H669 H 0.53861 0.34172 0.73571 0.0
H670 H 0.63408 0.45505 0.877 0.0
H671 H 0.51741 0.3872 0.72726 0.0
H672 H 0.56766 0.44116 0.8883 0.0
O673 O 0.6596 0.3596 0.77669 0.0
H674 H 0.80932 0.40716 0.83299 0.0
H675 H 0.73952 0.3152 0.80543 0.0
H676 H 0.80297 0.32968 0.78856 0.0
H677 H 0.83844 0.37591 0.8024 0.0
H678 H 0.74576 0.3921 0.84903 0.0
H679 H 0.76239 0.27474 0.88726 0.0
H680 H 0.72106 0.23136 0.87218 0.0
O681 O 0.67497 0.32557 0.80357 0.0
C682 C 0.60783 0.32795 0.83974 0.0
C683 C 0.684 0.25387 0.85057 0.0
C684 C 0.73821 0.27611 0.87492 0.0
N685 N 0.69962 0.30417 0.85161 0.0
C686 C 0.67667 0.28039 0.84334 0.0
C687 C 0.73 0.30228 0.86732 0.0
C688 C 0.71503 0.25177 0.86644 0.0
C689 C 0.63334 0.42285 0.84611 0.0
N690 N 0.61268 0.40087 0.83258 0.0
C691 C 0.61753 0.43768 0.86632 0.0
C692 C 0.58027 0.42986 0.87268 0.0
C693 C 0.55936 0.40738 0.85882 0.0
C694 C 0.57612 0.39303 0.83875 0.0
C695 C 0.55623 0.40997 0.75576 0.0
C696 C 0.57988 0.35932 0.76529 0.0
C697 C 0.58465 0.40802 0.77442 0.0
N698 N 0.59599 0.38286 0.77909 0.0
C699 C 0.55134 0.36047 0.74651 0.0
C700 C 0.53948 0.38599 0.74177 0.0
C701 C 0.66941 0.33576 0.77997 0.0
C702 C 0.79423 0.38689 0.82693 0.0
C703 C 0.75461 0.33542 0.81154 0.0
C704 C 0.79062 0.34347 0.80192 0.0
C705 C 0.81052 0.36938 0.80972 0.0
N706 N 0.7388 0.35262 0.82861 0.0
C707 C 0.75815 0.37812 0.83617 0.0
Co708 Co 0.36277 0.11832 0.80066 0.0
Co709 Co 0.31282 0.15798 0.83878 0.0
O710 O 0.32348 0.12139 0.82714 0.0
C711 C 0.32365 0.07726 0.76078 0.0
O712 O 0.33166 0.09687 0.74189 0.0
C713 C 0.3098 0.1512 0.89943 0.0
O714 O 0.33813 0.17171 0.90059 0.0
O715 O 0.36479 0.16892 0.85103 0.0
O716 O 0.39417 0.15346 0.81517 0.0
H717 H 0.33899 0.26314 0.84791 0.0
H718 H 0.33436 0.06984 0.83663 0.0
O719 O 0.33238 0.08276 0.78595 0.0
H720 H 0.46736 0.09261 0.85704 0.0
H721 H 0.4469 0.06655 0.74609 0.0
H722 H 0.40971 0.1584 0.76382 0.0
H723 H 0.43908 0.12001 0.82256 0.0
H724 H 0.39836 0.07093 0.78016 0.0
O725 O 0.29765 0.14159 0.87605 0.0
H726 H 0.35102 0.21686 0.83264 0.0
H727 H 0.25211 0.17696 0.871 0.0
H728 H 0.45858 0.15501 0.72974 0.0
H729 H 0.36162 0.04167 0.87105 0.0
H730 H 0.47744 0.10882 0.72066 0.0
H731 H 0.42858 0.05303 0.88147 0.0
O732 O 0.33955 0.14127 0.77367 0.0
H733 H 0.19186 0.09267 0.82916 0.0
H734 H 0.2621 0.18526 0.8036 0.0
H735 H 0.19866 0.17128 0.78636 0.0
H736 H 0.16301 0.12473 0.79923 0.0
H737 H 0.25563 0.10734 0.84569 0.0
H738 H 0.2391 0.22282 0.8868 0.0
H739 H 0.28268 0.26634 0.87521 0.0
O740 O 0.32693 0.17508 0.80196 0.0
C741 C 0.39368 0.16902 0.83647 0.0
C742 C 0.31978 0.24433 0.85308 0.0
C743 C 0.26373 0.2217 0.87491 0.0
N744 N 0.30234 0.19419 0.85093 0.0
C745 C 0.32644 0.21805 0.84448 0.0
C746 C 0.27128 0.19578 0.86594 0.0
C747 C 0.28819 0.24611 0.8684 0.0
C748 C 0.36357 0.07478 0.84092 0.0
N749 N 0.38512 0.09642 0.82747 0.0
C750 C 0.37883 0.05881 0.86049 0.0
C751 C 0.41639 0.06522 0.86635 0.0
C752 C 0.43816 0.08743 0.85266 0.0
C753 C 0.42196 0.10293 0.83321 0.0
C754 C 0.43896 0.0868 0.74988 0.0
C755 C 0.41785 0.13824 0.76005 0.0
C756 C 0.41146 0.08941 0.76912 0.0
N757 N 0.40126 0.11492 0.77401 0.0
C758 C 0.44551 0.13645 0.74071 0.0
C759 C 0.45607 0.11052 0.73562 0.0
C760 C 0.33144 0.16552 0.77793 0.0
C761 C 0.20708 0.11304 0.82348 0.0
C762 C 0.24688 0.16489 0.8092 0.0
C763 C 0.21091 0.15713 0.79942 0.0
C764 C 0.19092 0.13102 0.80666 0.0
N765 N 0.2625 0.14718 0.82581 0.0
C766 C 0.24315 0.12149 0.83285 0.0
Co767 Co 0.39834 0.38096 0.34029 0.0
Co768 Co 0.31155 0.3803 0.36587 0.0
O769 O 0.36306 0.37509 0.37099 0.0
C770 C 0.4109 0.32554 0.36252 0.0
O771 O 0.37517 0.31777 0.36548 0.0
C772 C 0.33288 0.40667 0.42137 0.0
O773 O 0.36554 0.41795 0.41207 0.0
O774 O 0.32832 0.41969 0.35282 0.0
O775 O 0.3748 0.41247 0.32529 0.0
H776 H 0.20677 0.41169 0.31463 0.0
H777 H 0.42582 0.38053 0.39759 0.0
O778 O 0.42397 0.35009 0.3539 0.0
H779 H 0.48078 0.47314 0.36022 0.0
H780 H 0.52342 0.38852 0.29576 0.0
H781 H 0.39143 0.39078 0.28029 0.0
H782 H 0.44071 0.43881 0.33124 0.0
H783 H 0.47954 0.38229 0.33465 0.0
O784 O 0.30919 0.39297 0.40517 0.0
H785 H 0.2708 0.40412 0.32132 0.0
H786 H 0.24321 0.36833 0.40029 0.0
H787 H 0.43444 0.39743 0.24085 0.0
H788 H 0.46619 0.41406 0.42725 0.0
H789 H 0.50096 0.39629 0.24846 0.0
H790 H 0.49386 0.46079 0.40861 0.0
O791 O 0.36489 0.35304 0.31775 0.0
H792 H 0.31259 0.29733 0.42849 0.0
H793 H 0.25691 0.33176 0.34534 0.0
H794 H 0.23764 0.28265 0.36006 0.0
H795 H 0.26543 0.26515 0.40201 0.0
H796 H 0.33161 0.34615 0.41269 0.0
H797 H 0.17894 0.37572 0.39454 0.0
H798 H 0.1603 0.39744 0.3514 0.0
O799 O 0.31095 0.36663 0.32681 0.0
C800 C 0.35127 0.42741 0.33335 0.0
C801 C 0.21453 0.40218 0.33351 0.0
C802 C 0.19894 0.38203 0.37837 0.0
N803 N 0.2608 0.38579 0.36117 0.0
C804 C 0.25076 0.39781 0.33741 0.0
C805 C 0.23543 0.37802 0.38156 0.0
C806 C 0.18849 0.3942 0.35416 0.0
C807 C 0.43797 0.40077 0.38929 0.0
N808 N 0.43075 0.40777 0.36275 0.0
C809 C 0.46071 0.41969 0.4062 0.0
C810 C 0.47618 0.44592 0.39574 0.0
C811 C 0.46881 0.45287 0.36861 0.0
C812 C 0.44589 0.43342 0.35233 0.0
C813 C 0.49451 0.38911 0.29218 0.0
C814 C 0.42037 0.39044 0.28379 0.0
C815 C 0.46951 0.38552 0.31411 0.0
N816 N 0.43298 0.38635 0.30977 0.0
C817 C 0.44458 0.39414 0.26137 0.0
C818 C 0.48189 0.39348 0.26565 0.0
C819 C 0.3306 0.35213 0.31309 0.0
C820 C 0.30023 0.30472 0.4102 0.0
C821 C 0.26943 0.32427 0.36343 0.0
C822 C 0.25825 0.29645 0.37177 0.0
C823 C 0.27381 0.28666 0.39532 0.0
N824 N 0.29545 0.34185 0.37808 0.0
C825 C 0.31078 0.33239 0.40122 0.0
Co826 Co 0.33613 0.67841 0.14915 0.0
Co827 Co 0.32823 0.66173 0.21771 0.0
O828 O 0.32289 0.65019 0.17855 0.0
C829 C 0.27095 0.63803 0.12449 0.0
O830 O 0.26512 0.62265 0.14692 0.0
C831 C 0.34322 0.60137 0.21711 0.0
O832 O 0.33982 0.59949 0.19017 0.0
O833 O 0.38172 0.6762 0.21164 0.0
O834 O 0.37609 0.69994 0.17268 0.0
H835 H 0.372 0.72909 0.29452 0.0
H836 H 0.33455 0.61795 0.13624 0.0
O837 O 0.29698 0.65905 0.12347 0.0
H838 H 0.46064 0.66469 0.11379 0.0
H839 H 0.36055 0.71244 0.0514 0.0
H840 H 0.35307 0.74066 0.14878 0.0
H841 H 0.41479 0.69205 0.13139 0.0
H842 H 0.3454 0.67671 0.08786 0.0
O843 O 0.34043 0.62421 0.22951 0.0
H844 H 0.36369 0.71379 0.24608 0.0
H845 H 0.30591 0.63437 0.27193 0.0
H846 H 0.36879 0.77705 0.11301 0.0
H847 H 0.37936 0.58985 0.11837 0.0
H848 H 0.37258 0.76303 0.0639 0.0
H849 H 0.44301 0.6132 0.10704 0.0
O850 O 0.29969 0.70049 0.16425 0.0
H851 H 0.20935 0.59312 0.20854 0.0
H852 H 0.26755 0.68508 0.24521 0.0
H853 H 0.20099 0.66926 0.25191 0.0
H854 H 0.17142 0.62287 0.23367 0.0
H855 H 0.2756 0.60994 0.20189 0.0
H856 H 0.31402 0.64872 0.32066 0.0
H857 H 0.3471 0.69645 0.33224 0.0
O858 O 0.31608 0.69972 0.20866 0.0
C859 C 0.3942 0.6952 0.19415 0.0
C860 C 0.35747 0.70826 0.28975 0.0
C861 C 0.32497 0.66315 0.30442 0.0
N862 N 0.33417 0.67326 0.25611 0.0
C863 C 0.3526 0.69949 0.26233 0.0
C864 C 0.32058 0.65511 0.27676 0.0
C865 C 0.34352 0.68993 0.31089 0.0
C866 C 0.36196 0.62835 0.13109 0.0
N867 N 0.37177 0.65667 0.13463 0.0
C868 C 0.38734 0.61229 0.12109 0.0
C869 C 0.42306 0.62539 0.11478 0.0
C870 C 0.43297 0.65427 0.11857 0.0
C871 C 0.40686 0.66964 0.12862 0.0
C872 C 0.35908 0.71882 0.07273 0.0
C873 C 0.35493 0.73436 0.12749 0.0
C874 C 0.35043 0.69868 0.09348 0.0
N875 N 0.34867 0.70657 0.1205 0.0
C876 C 0.36373 0.75508 0.10731 0.0
C877 C 0.36583 0.74719 0.07976 0.0
C878 C 0.29964 0.70984 0.18881 0.0
C879 C 0.22196 0.61328 0.21678 0.0
C880 C 0.25502 0.66485 0.23716 0.0
C881 C 0.21724 0.65601 0.24107 0.0
C882 C 0.20068 0.63 0.23083 0.0
N883 N 0.27586 0.64826 0.22353 0.0
C884 C 0.25967 0.62285 0.21324 0.0
Co885 Co 0.69755 0.84413 0.15011 0.0
Co886 Co 0.70435 0.86084 0.21949 0.0
O887 O 0.70848 0.87171 0.18023 0.0
C888 C 0.76363 0.85587 0.11453 0.0
O889 O 0.76767 0.82986 0.11975 0.0
C890 C 0.67817 0.91753 0.21745 0.0
O891 O 0.68213 0.91969 0.19056 0.0
O892 O 0.65273 0.84096 0.21363 0.0
O893 O 0.65689 0.82149 0.17198 0.0
H894 H 0.67182 0.79236 0.29744 0.0
H895 H 0.70141 0.90438 0.13633 0.0
O896 O 0.73822 0.86621 0.12688 0.0
H897 H 0.57445 0.85982 0.11334 0.0
H898 H 0.67643 0.81387 0.05092 0.0
H899 H 0.68259 0.78191 0.1473 0.0
H900 H 0.6189 0.83159 0.13178 0.0
H901 H 0.68951 0.84819 0.08878 0.0
O902 O 0.6848 0.89584 0.2302 0.0
H903 H 0.67816 0.80721 0.24871 0.0
H904 H 0.72053 0.89083 0.2733 0.0
H905 H 0.66923 0.74689 0.11009 0.0
H906 H 0.65798 0.93334 0.11753 0.0
H907 H 0.66612 0.7628 0.06148 0.0
H908 H 0.59394 0.91107 0.10597 0.0
O909 O 0.73265 0.82112 0.16599 0.0
H910 H 0.81222 0.93946 0.20763 0.0
H911 H 0.76958 0.84676 0.24964 0.0
H912 H 0.83377 0.8699 0.25662 0.0
H913 H 0.85548 0.91673 0.2357 0.0
H914 H 0.74856 0.91539 0.20081 0.0
H915 H 0.71412 0.87694 0.32228 0.0
H916 H 0.68984 0.82736 0.33463 0.0
O917 O 0.72385 0.8256 0.21141 0.0
C918 C 0.64027 0.82336 0.19485 0.0
C919 C 0.68254 0.81402 0.29232 0.0
C920 C 0.70622 0.86149 0.30626 0.0
N921 N 0.69992 0.84981 0.25811 0.0
C922 C 0.68629 0.82254 0.26475 0.0
C923 C 0.70964 0.86925 0.27847 0.0
C924 C 0.69261 0.83366 0.31317 0.0
C925 C 0.67369 0.8945 0.13115 0.0
N926 N 0.66277 0.86633 0.13515 0.0
C927 C 0.64917 0.91102 0.1206 0.0
C928 C 0.61323 0.89852 0.11416 0.0
C929 C 0.60227 0.86978 0.11832 0.0
C930 C 0.62753 0.85392 0.12891 0.0
C931 C 0.67764 0.80667 0.07202 0.0
C932 C 0.68115 0.78902 0.12622 0.0
C933 C 0.68502 0.826 0.09356 0.0
N934 N 0.68671 0.81708 0.12027 0.0
C935 C 0.67361 0.76908 0.10523 0.0
C936 C 0.67188 0.77802 0.07796 0.0
C937 C 0.73663 0.81377 0.19093 0.0
C938 C 0.80302 0.91916 0.21705 0.0
C939 C 0.7787 0.86707 0.2404 0.0
C940 C 0.81514 0.88012 0.24447 0.0
C941 C 0.8273 0.90638 0.23275 0.0
N942 N 0.75481 0.87986 0.22526 0.0
C943 C 0.76676 0.90547 0.21342 0.0
C944 C 0.21249 0.2261 0.22814 0.0
C945 C 0.20952 0.23274 0.20009 0.0
C946 C 0.23328 0.24516 0.24642 0.0
C947 C 0.25178 0.27135 0.23637 0.0
C948 C 0.24899 0.2781 0.20813 0.0
C949 C 0.22771 0.2589 0.19045 0.0
C950 C 0.23518 0.2374 0.27652 0.0
C951 C 0.26833 0.30575 0.19654 0.0
C952 C 0.27424 0.3326 0.28597 0.0
C953 C 0.31168 0.33268 0.29183 0.0
C954 C 0.25446 0.31261 0.26826 0.0
C955 C 0.2726 0.29236 0.25556 0.0
C956 C 0.31062 0.29271 0.26068 0.0
C957 C 0.3297 0.3128 0.27884 0.0
C958 C 0.21396 0.31298 0.26342 0.0
C959 C 0.33101 0.27169 0.24717 0.0
H960 H 0.19851 0.20605 0.23587 0.0
H961 H 0.22549 0.26451 0.16893 0.0
H962 H 0.26433 0.23818 0.28282 0.0
H963 H 0.22373 0.25286 0.28943 0.0
H964 H 0.21969 0.21609 0.28101 0.0
H965 H 0.26482 0.30722 0.17383 0.0
H966 H 0.25736 0.32336 0.20641 0.0
H967 H 0.29824 0.30859 0.20125 0.0
H968 H 0.25996 0.34793 0.29565 0.0
H969 H 0.35855 0.31261 0.28322 0.0
H970 H 0.1975 0.29245 0.26938 0.0
H971 H 0.20888 0.31618 0.24116 0.0
H972 H 0.2038 0.32979 0.27532 0.0
H973 H 0.31828 0.25008 0.25323 0.0
H974 H 0.36066 0.27504 0.25292 0.0
H975 H 0.3288 0.2731 0.22438 0.0
C976 C 0.77 0.24859 0.1941 0.0
C977 C 0.78613 0.27556 0.20295 0.0
C978 C 0.74994 0.22921 0.21237 0.0
C979 C 0.74584 0.2369 0.24024 0.0
C980 C 0.76229 0.26394 0.24943 0.0
C981 C 0.78228 0.28292 0.23071 0.0
C982 C 0.73307 0.20051 0.20182 0.0
C983 C 0.75861 0.27289 0.27902 0.0
C984 C 0.66779 0.19614 0.28305 0.0
C985 C 0.68648 0.17838 0.29858 0.0
C986 C 0.68669 0.21517 0.26382 0.0
C987 C 0.72512 0.2164 0.25997 0.0
C988 C 0.74396 0.19818 0.27518 0.0
C989 C 0.72448 0.17946 0.29425 0.0
C990 C 0.66566 0.23429 0.24795 0.0
C991 C 0.78487 0.19869 0.27158 0.0
H992 H 0.77285 0.24255 0.17276 0.0
H993 H 0.79449 0.30368 0.23781 0.0
H994 H 0.74418 0.18404 0.21355 0.0
H995 H 0.7028 0.19694 0.2051 0.0
H996 H 0.73858 0.19787 0.1795 0.0
H997 H 0.77282 0.29471 0.28285 0.0
H998 H 0.72905 0.27145 0.28443 0.0
H999 H 0.77036 0.25854 0.2931 0.0
H1000 H 0.63851 0.19554 0.28624 0.0
H1001 H 0.73929 0.16579 0.30597 0.0
H1002 H 0.66913 0.23144 0.22543 0.0
H1003 H 0.6769 0.25653 0.25278 0.0
H1004 H 0.63574 0.23031 0.25286 0.0
H1005 H 0.79115 0.19483 0.24965 0.0
H1006 H 0.79526 0.18272 0.28457 0.0
H1007 H 0.80021 0.21973 0.27709 0.0
C1008 C 0.24959 0.73829 0.17974 0.0
C1009 C 0.28004 0.73341 0.19531 0.0
C1010 C 0.22772 0.75788 0.18863 0.0
C1011 C 0.23683 0.77291 0.21349 0.0
C1012 C 0.26904 0.76938 0.22814 0.0
C1013 C 0.29012 0.74965 0.21893 0.0
C1014 C 0.1937 0.76115 0.17241 0.0
C1015 C 0.28011 0.78522 0.25456 0.0
C1016 C 0.197 0.8351 0.24066 0.0
C1017 C 0.17466 0.82221 0.26204 0.0
C1018 C 0.21532 0.81902 0.22281 0.0
C1019 C 0.21079 0.78951 0.22648 0.0
C1020 C 0.18541 0.77631 0.24636 0.0
C1021 C 0.16783 0.79284 0.26397 0.0
C1022 C 0.24197 0.83387 0.20179 0.0
C1023 C 0.1794 0.7449 0.25084 0.0
H1024 H 0.24171 0.72581 0.16144 0.0
H1025 H 0.31399 0.74633 0.23082 0.0
H1026 H 0.1689 0.75033 0.18346 0.0
H1027 H 0.19105 0.78363 0.17054 0.0
H1028 H 0.19396 0.75198 0.1514 0.0
H1029 H 0.30752 0.78182 0.26217 0.0
H1030 H 0.28093 0.80806 0.25136 0.0
H1031 H 0.25937 0.77831 0.27087 0.0
H1032 H 0.20243 0.85782 0.23919 0.0
H1033 H 0.15021 0.78281 0.28033 0.0
H1034 H 0.24039 0.82191 0.18216 0.0
H1035 H 0.27051 0.83546 0.2098 0.0
H1036 H 0.23666 0.85543 0.19747 0.0
H1037 H 0.17525 0.73363 0.23085 0.0
H1038 H 0.15524 0.73762 0.26432 0.0
H1039 H 0.20422 0.73896 0.26073 0.0
C1040 C 0.77677 0.67055 0.24573 0.0
C1041 C 0.81371 0.67025 0.25231 0.0
C1042 C 0.76686 0.69172 0.22897 0.0
C1043 C 0.79465 0.71335 0.21909 0.0
C1044 C 0.83227 0.71134 0.22325 0.0
C1045 C 0.84141 0.68962 0.23985 0.0
C1046 C 0.72644 0.69272 0.22469 0.0
C1047 C 0.86273 0.73385 0.213 0.0
C1048 C 0.76194 0.77067 0.17619 0.0
C1049 C 0.75532 0.78948 0.19696 0.0
C1050 C 0.77616 0.74614 0.18274 0.0
C1051 C 0.78412 0.74053 0.21061 0.0
C1052 C 0.77906 0.76011 0.2314 0.0
C1053 C 0.76457 0.78413 0.22434 0.0
C1054 C 0.78099 0.72568 0.16006 0.0
C1055 C 0.78742 0.75516 0.26143 0.0
H1056 H 0.75545 0.65533 0.25527 0.0
H1057 H 0.87001 0.68944 0.24517 0.0
H1058 H 0.71795 0.70859 0.23879 0.0
H1059 H 0.72117 0.69905 0.20324 0.0
H1060 H 0.70893 0.67212 0.22908 0.0
H1061 H 0.88968 0.72636 0.21249 0.0
H1062 H 0.85647 0.74108 0.19204 0.0
H1063 H 0.8653 0.75223 0.22704 0.0
H1064 H 0.75481 0.77455 0.15498 0.0
H1065 H 0.75964 0.79838 0.24061 0.0
H1066 H 0.75889 0.70705 0.16164 0.0
H1067 H 0.80776 0.71818 0.1622 0.0
H1068 H 0.77953 0.73511 0.13924 0.0
H1069 H 0.76837 0.73655 0.26927 0.0
H1070 H 0.78446 0.77342 0.27469 0.0
H1071 H 0.81592 0.75077 0.26369 0.0
C1072 C 0.29129 0.74912 0.7019 0.0
C1073 C 0.30673 0.7768 0.70908 0.0
C1074 C 0.27057 0.73102 0.72086 0.0
C1075 C 0.26525 0.74061 0.7479 0.0
C1076 C 0.28117 0.76832 0.75554 0.0
C1077 C 0.30171 0.78612 0.73603 0.0
C1078 C 0.2542 0.70162 0.71185 0.0
C1079 C 0.2763 0.7792 0.78427 0.0
C1080 C 0.18501 0.70022 0.78892 0.0
C1081 C 0.20282 0.68247 0.80518 0.0
C1082 C 0.20503 0.71955 0.77046 0.0
C1083 C 0.24376 0.72122 0.76824 0.0
C1084 C 0.26185 0.7034 0.78457 0.0
C1085 C 0.24122 0.68423 0.80269 0.0
C1086 C 0.18473 0.7381 0.75322 0.0
C1087 C 0.30306 0.70442 0.78278 0.0
H1088 H 0.29504 0.74151 0.68122 0.0
H1089 H 0.31337 0.80744 0.7418 0.0
H1090 H 0.26502 0.68601 0.72498 0.0
H1091 H 0.22382 0.69814 0.71452 0.0
H1092 H 0.26047 0.69755 0.68993 0.0
H1093 H 0.29053 0.8012 0.78702 0.0
H1094 H 0.24653 0.77823 0.78875 0.0
H1095 H 0.28725 0.76574 0.79972 0.0
H1096 H 0.15543 0.69914 0.79069 0.0
H1097 H 0.25543 0.67062 0.815 0.0
H1098 H 0.18859 0.73398 0.73097 0.0
H1099 H 0.19625 0.76051 0.75698 0.0
H1100 H 0.15471 0.73466 0.75777 0.0
H1101 H 0.31071 0.69881 0.76161 0.0
H1102 H 0.31311 0.68984 0.79762 0.0
H1103 H 0.3176 0.72604 0.78695 0.0
C1104 C 0.73152 0.74883 0.69393 0.0
C1105 C 0.71319 0.7232 0.70472 0.0
C1106 C 0.7525 0.76898 0.71083 0.0
C1107 C 0.75487 0.76376 0.73944 0.0
C1108 C 0.73604 0.7382 0.75067 0.0
C1109 C 0.71554 0.71815 0.73316 0.0
C1110 C 0.77217 0.7959 0.698 0.0
C1111 C 0.73752 0.7321 0.78119 0.0
C1112 C 0.83324 0.80678 0.78024 0.0
C1113 C 0.81559 0.82755 0.79196 0.0
C1114 C 0.81386 0.78586 0.76306 0.0
C1115 C 0.77593 0.78561 0.75766 0.0
C1116 C 0.75818 0.80675 0.76906 0.0
C1117 C 0.77824 0.82754 0.78581 0.0
C1118 C 0.83385 0.76387 0.7509 0.0
C1119 C 0.71779 0.80726 0.76386 0.0
H1120 H 0.72977 0.75322 0.67208 0.0
H1121 H 0.70151 0.6985 0.74175 0.0
H1122 H 0.76158 0.81412 0.70696 0.0
H1123 H 0.80209 0.79868 0.70268 0.0
H1124 H 0.76859 0.7963 0.67523 0.0
H1125 H 0.72136 0.71128 0.7867 0.0
H1126 H 0.76654 0.73266 0.78773 0.0
H1127 H 0.7266 0.74854 0.79309 0.0
H1128 H 0.862 0.80652 0.78488 0.0
H1129 H 0.76426 0.84354 0.79453 0.0
H1130 H 0.83174 0.76405 0.72805 0.0
H1131 H 0.82075 0.7427 0.75802 0.0
H1132 H 0.86348 0.76723 0.75672 0.0
H1133 H 0.71281 0.80927 0.74141 0.0
H1134 H 0.70793 0.82485 0.77472 0.0
H1135 H 0.70099 0.78721 0.7708 0.0
C1136 C 0.66708 0.28968 0.7574 0.0
C1137 C 0.67663 0.31895 0.75591 0.0
C1138 C 0.68218 0.27237 0.73904 0.0
C1139 C 0.70789 0.28471 0.71897 0.0
C1140 C 0.71463 0.31429 0.71556 0.0
C1141 C 0.69872 0.33118 0.73413 0.0
C1142 C 0.67378 0.24094 0.74325 0.0
C1143 C 0.74161 0.32823 0.69429 0.0
C1144 C 0.78466 0.24234 0.71255 0.0
C1145 C 0.77421 0.22611 0.68899 0.0
C1146 C 0.76455 0.2628 0.72138 0.0
C1147 C 0.73297 0.26714 0.70635 0.0
C1148 C 0.72355 0.25211 0.68154 0.0
C1149 C 0.74443 0.23172 0.67306 0.0
C1150 C 0.77593 0.27856 0.7478 0.0
C1151 C 0.69023 0.25629 0.66491 0.0
H1152 H 0.64965 0.28028 0.77416 0.0
H1153 H 0.70617 0.35385 0.73307 0.0
H1154 H 0.66922 0.2299 0.72316 0.0
H1155 H 0.69766 0.23382 0.7534 0.0
H1156 H 0.64907 0.23461 0.75644 0.0
H1157 H 0.73745 0.35007 0.68994 0.0
H1158 H 0.77011 0.329 0.70213 0.0
H1159 H 0.73913 0.31615 0.67471 0.0
H1160 H 0.8081 0.2385 0.72466 0.0
H1161 H 0.73635 0.21928 0.65477 0.0
H1162 H 0.75479 0.27224 0.76398 0.0
H1163 H 0.77787 0.30149 0.7445 0.0
H1164 H 0.80289 0.27444 0.75568 0.0
H1165 H 0.66492 0.24565 0.67546 0.0
H1166 H 0.69082 0.24742 0.64379 0.0
H1167 H 0.6883 0.27892 0.6633 0.0
C1168 C 0.22286 0.26682 0.71504 0.0
C1169 C 0.23469 0.28389 0.69224 0.0
C1170 C 0.24105 0.24485 0.72286 0.0
C1171 C 0.27205 0.23978 0.70755 0.0
C1172 C 0.28267 0.25566 0.68339 0.0
C1173 C 0.26375 0.27758 0.67595 0.0
C1174 C 0.22845 0.22825 0.74863 0.0
C1175 C 0.31537 0.25072 0.66643 0.0
C1176 C 0.33616 0.21269 0.75719 0.0
C1177 C 0.32501 0.18364 0.75463 0.0
C1178 C 0.32202 0.23137 0.73973 0.0
C1179 C 0.2957 0.22066 0.71943 0.0
C1180 C 0.28726 0.19128 0.71492 0.0
C1181 C 0.3022 0.17298 0.73263 0.0
C1182 C 0.33219 0.26252 0.74511 0.0
C1183 C 0.25963 0.17905 0.69334 0.0
H1184 H 0.19995 0.2712 0.72744 0.0
H1185 H 0.27294 0.29062 0.65823 0.0
H1186 H 0.22506 0.2054 0.74443 0.0
H1187 H 0.24964 0.23311 0.76503 0.0
H1188 H 0.20194 0.2331 0.75667 0.0
H1189 H 0.3155 0.26058 0.64568 0.0
H1190 H 0.34116 0.25992 0.67726 0.0
H1191 H 0.31562 0.22792 0.66392 0.0
H1192 H 0.35413 0.22087 0.77412 0.0
H1193 H 0.2935 0.15048 0.73074 0.0
H1194 H 0.30884 0.27012 0.75551 0.0
H1195 H 0.33761 0.27428 0.72545 0.0
H1196 H 0.35692 0.2675 0.75854 0.0
H1197 H 0.23134 0.17886 0.70139 0.0
H1198 H 0.26251 0.15714 0.68806 0.0
H1199 H 0.26267 0.19196 0.67425 0.0
C1200 C 0.16378 0.97815 0.27717 0.0
C1201 C 0.18007 0.95812 0.26288 0.0
C1202 C 0.16762 0.00601 0.26782 0.0
C1203 C 0.18927 0.01435 0.2441 0.0
C1204 C 0.20782 0.99467 0.2307 0.0
C1205 C 0.20247 0.96666 0.23996 0.0
C1206 C 0.14656 0.02604 0.28233 0.0
C1207 C 0.23214 1.00293 0.20594 0.0
C1208 C 0.16111 0.07355 0.20177 0.0
C1209 C 0.18432 0.0972 0.21231 0.0
C1210 C 0.16293 0.04649 0.21162 0.0
C1211 C 0.18943 0.04278 0.23192 0.0
C1212 C 0.21425 0.06642 0.24161 0.0
C1213 C 0.21097 0.09344 0.23205 0.0
C1214 C 0.13528 0.02202 0.2012 0.0
C1215 C 0.24367 0.06324 0.26255 0.0
H1216 H 0.14622 0.97169 0.29479 0.0
H1217 H 0.21531 0.9513 0.22895 0.0
H1218 H 0.16538 0.04556 0.28814 0.0
H1219 H 0.12554 0.03208 0.26811 0.0
H1220 H 0.13238 0.01669 0.30123 0.0
H1221 H 0.24866 0.98649 0.20039 0.0
H1222 H 0.21486 0.00647 0.18792 0.0
H1223 H 0.25116 0.02289 0.20996 0.0
H1224 H 0.1402 0.07627 0.1867 0.0
H1225 H 0.22907 0.11164 0.24017 0.0
H1226 H 0.11815 0.01227 0.21865 0.0
H1227 H 0.14972 0.00568 0.19237 0.0
H1228 H 0.11672 0.02842 0.18517 0.0
H1229 H 0.23067 0.0567 0.2827 0.0
H1230 H 0.26337 0.0831 0.26557 0.0
H1231 H 0.25924 0.04659 0.25595 0.0
C1232 C 0.79981 0.41557 0.22694 0.0
C1233 C 0.78806 0.41093 0.19956 0.0
C1234 C 0.79746 0.44093 0.24031 0.0
C1235 C 0.78394 0.4625 0.22569 0.0
C1236 C 0.77008 0.45732 0.19854 0.0
C1237 C 0.77194 0.43139 0.18586 0.0
C1238 C 0.81181 0.4453 0.26948 0.0
C1239 C 0.75603 0.47989 0.18208 0.0
C1240 C 0.76919 0.52729 0.26639 0.0
C1241 C 0.80379 0.54435 0.2636 0.0
C1242 C 0.76181 0.50071 0.25372 0.0
C1243 C 0.78943 0.49141 0.23742 0.0
C1244 C 0.82382 0.50918 0.23365 0.0
C1245 C 0.83069 0.53522 0.24703 0.0
C1246 C 0.72512 0.48214 0.25864 0.0
C1247 C 0.85382 0.5004 0.21602 0.0
H1248 H 0.81205 0.39966 0.23763 0.0
H1249 H 0.7631 0.42792 0.1646 0.0
H1250 H 0.83849 0.45995 0.26931 0.0
H1251 H 0.79234 0.45491 0.28239 0.0
H1252 H 0.81622 0.42531 0.27927 0.0
H1253 H 0.74152 0.47143 0.16299 0.0
H1254 H 0.73699 0.49025 0.19465 0.0
H1255 H 0.77962 0.49627 0.17612 0.0
H1256 H 0.74841 0.53429 0.27929 0.0
H1257 H 0.85733 0.54851 0.24453 0.0
H1258 H 0.72936 0.46348 0.27085 0.0
H1259 H 0.71239 0.47438 0.23875 0.0
H1260 H 0.7056 0.49324 0.26998 0.0
H1261 H 0.86371 0.48217 0.22564 0.0
H1262 H 0.87777 0.51757 0.21341 0.0
H1263 H 0.84285 0.49371 0.1953 0.0
C1264 C 0.30177 0.15161 0.95063 0.0
C1265 C 0.28705 0.14407 0.92449 0.0
C1266 C 0.27909 0.14967 0.97409 0.0
C1267 C 0.24064 0.14036 0.97127 0.0
C1268 C 0.22592 0.13122 0.9452 0.0
C1269 C 0.24936 0.13298 0.92213 0.0
C1270 C 0.29601 0.15912 1.00164 0.0
C1271 C 0.18509 0.1214 0.94127 0.0
C1272 C 0.18745 0.12553 0.03853 0.0
C1273 C 0.17795 0.15191 0.04412 0.0
C1274 C 0.20652 0.12094 0.01423 0.0
C1275 C 0.21575 0.14313 0.99501 0.0
C1276 C 0.20386 0.16915 0.99971 0.0
C1277 C 0.18537 0.17327 0.02429 0.0
C1278 C 0.2189 0.09298 0.01006 0.0
C1279 C 0.21253 0.19323 0.97954 0.0
H1280 H 0.33089 0.16 0.95262 0.0
H1281 H 0.23768 0.12721 0.90197 0.0
H1282 H 0.28686 0.17895 0.00792 0.0
H1283 H 0.28664 0.14322 0.01779 0.0
H1284 H 0.32663 0.16281 1.00095 0.0
H1285 H 0.17868 0.11167 0.92067 0.0
H1286 H 0.17411 0.10598 0.95745 0.0
H1287 H 0.1704 0.13958 0.94326 0.0
H1288 H 0.1821 0.10901 0.05389 0.0
H1289 H 0.17794 0.19366 0.02848 0.0
H1290 H 0.24922 0.09558 0.01287 0.0
H1291 H 0.21271 0.0852 0.98875 0.0
H1292 H 0.20558 0.07686 0.02491 0.0
H1293 H 0.24266 0.20107 0.97946 0.0
H1294 H 0.19812 0.21098 0.98483 0.0
H1295 H 0.20457 0.18606 0.95829 0.0
C1296 C 0.81435 0.34541 0.02525 0.0
C1297 C 0.81028 0.36202 0.04834 0.0
C1298 C 0.79874 0.35072 0.99969 0.0
C1299 C 0.77714 0.37236 0.99757 0.0
C1300 C 0.77344 0.38945 0.02081 0.0
C1301 C 0.79062 0.38437 0.04581 0.0
C1302 C 0.80443 0.3326 0.97521 0.0
C1303 C 0.74955 0.41199 0.01977 0.0
C1304 C 0.75265 0.3963 0.92589 0.0
C1305 C 0.71923 0.37842 0.92095 0.0
C1306 C 0.77174 0.39486 0.9509 0.0
C1307 C 0.75637 0.37566 0.97163 0.0
C1308 C 0.72165 0.35853 0.96708 0.0
C1309 C 0.70391 0.35969 0.94154 0.0
C1310 C 0.80918 0.41279 0.95454 0.0
C1311 C 0.70368 0.33841 0.9889 0.0
H1312 H 0.82941 0.32803 0.02729 0.0
H1313 H 0.78682 0.39685 0.06385 0.0
H1314 H 0.77809 0.31885 0.96991 0.0
H1315 H 0.81312 0.3459 0.95689 0.0
H1316 H 0.8255 0.31911 0.97935 0.0
H1317 H 0.75118 0.42447 0.03912 0.0
H1318 H 0.75769 0.42644 1.00221 0.0
H1319 H 0.72041 0.40212 0.01639 0.0
H1320 H 0.76479 0.41032 0.90962 0.0
H1321 H 0.67819 0.3457 0.93747 0.0
H1322 H 0.83045 0.39907 0.95626 0.0
H1323 H 0.81008 0.42509 0.97392 0.0
H1324 H 0.81653 0.42753 0.93701 0.0
H1325 H 0.72001 0.32132 0.99196 0.0
H1326 H 0.67507 0.32882 0.98324 0.0
H1327 H 0.70302 0.34943 0.00895 0.0
C1328 C 0.30216 0.87637 0.54476 0.0
C1329 C 0.31337 0.85051 0.55016 0.0
C1330 C 0.28077 0.88 0.52136 0.0
C1331 C 0.271 0.85741 0.5027 0.0
C1332 C 0.28397 0.83177 0.50733 0.0
C1333 C 0.30464 0.82855 0.53112 0.0
C1334 C 0.26703 0.90748 0.51739 0.0
C1335 C 0.27489 0.80735 0.48765 0.0
C1336 C 0.18432 0.84848 0.45869 0.0
C1337 C 0.19865 0.85682 0.4326 0.0
C1338 C 0.20729 0.85014 0.48203 0.0
C1339 C 0.24566 0.85979 0.47909 0.0
C1340 C 0.26001 0.86943 0.45304 0.0
C1341 C 0.23627 0.86812 0.43018 0.0
C1342 C 0.19075 0.84027 0.50958 0.0
C1343 C 0.30077 0.87946 0.4489 0.0
H1344 H 0.3084 0.89331 0.55957 0.0
H1345 H 0.31327 0.80854 0.53519 0.0
H1346 H 0.27333 0.91568 0.49622 0.0
H1347 H 0.23661 0.90405 0.51982 0.0
H1348 H 0.27937 0.92367 0.53249 0.0
H1349 H 0.28962 0.78976 0.49297 0.0
H1350 H 0.24481 0.79937 0.48807 0.0
H1351 H 0.28221 0.81424 0.4662 0.0
H1352 H 0.15527 0.83987 0.46074 0.0
H1353 H 0.24771 0.87445 0.41007 0.0
H1354 H 0.2001 0.85605 0.52582 0.0
H1355 H 0.20024 0.82049 0.51562 0.0
H1356 H 0.16012 0.83637 0.50906 0.0
H1357 H 0.31158 0.89531 0.46471 0.0
H1358 H 0.30704 0.88875 0.42809 0.0
H1359 H 0.31576 0.86149 0.4514 0.0
C1360 C 0.70847 0.61198 0.54635 0.0
C1361 C 0.69129 0.63531 0.55136 0.0
C1362 C 0.72711 0.60944 0.52133 0.0
C1363 C 0.72791 0.63045 0.50077 0.0
C1364 C 0.70839 0.65299 0.50511 0.0
C1365 C 0.69071 0.6553 0.53045 0.0
C1366 C 0.74797 0.58531 0.51768 0.0
C1367 C 0.70779 0.67554 0.48355 0.0
C1368 C 0.80725 0.65045 0.45064 0.0
C1369 C 0.79208 0.63858 0.42595 0.0
C1370 C 0.78755 0.64631 0.47556 0.0
C1371 C 0.75144 0.63046 0.47569 0.0
C1372 C 0.73674 0.61724 0.4511 0.0
C1373 C 0.75741 0.62121 0.42658 0.0
C1374 C 0.80462 0.66022 0.50148 0.0
C1375 C 0.6982 0.60055 0.4502 0.0
H1376 H 0.70946 0.59671 0.56263 0.0
H1377 H 0.67747 0.67337 0.5343 0.0
H1378 H 0.74215 0.57538 0.49716 0.0
H1379 H 0.77802 0.59336 0.51864 0.0
H1380 H 0.74097 0.56903 0.53392 0.0
H1381 H 0.68816 0.68987 0.48888 0.0
H1382 H 0.73574 0.68823 0.4815 0.0
H1383 H 0.70006 0.66595 0.46312 0.0
H1384 H 0.8341 0.66374 0.45032 0.0
H1385 H 0.74535 0.61207 0.40756 0.0
H1386 H 0.80168 0.64501 0.51885 0.0
H1387 H 0.79003 0.67766 0.5074 0.0
H1388 H 0.83434 0.66888 0.4987 0.0
H1389 H 0.69368 0.58542 0.46761 0.0
H1390 H 0.69253 0.58884 0.43051 0.0
H1391 H 0.67794 0.61504 0.45244 0.0
C1392 C 0.9192 0.2717 0.1142 0.0
C1393 C 0.91996 0.29437 0.13245 0.0
C1394 C 0.94906 0.25692 0.11255 0.0
C1395 C 0.98086 0.26545 0.12899 0.0
C1396 C 0.98234 0.28899 0.14658 0.0
C1397 C 0.95176 0.30279 0.14843 0.0
C1398 C 0.94599 0.2315 0.09407 0.0
C1399 C 0.0159 0.29922 0.16408 0.0
C1400 C 0.04256 0.21396 0.15189 0.0
C1401 C 0.07238 0.21976 0.13349 0.0
C1402 C 0.012 0.22778 0.14981 0.0
C1403 C 0.0116 0.24877 0.12944 0.0
C1404 C 0.04161 0.2549 0.11082 0.0
C1405 C 0.07141 0.24009 0.11284 0.0
C1406 C 0.98038 0.22022 0.16982 0.0
C1407 C 0.04278 0.27769 0.08934 0.0
H1408 H 0.89473 0.26484 0.10191 0.0
H1409 H 0.95276 0.32004 0.16277 0.0
H1410 H 0.96987 0.23357 0.0798 0.0
H1411 H 0.94656 0.21247 0.10682 0.0
H1412 H 0.92019 0.22831 0.08169 0.0
H1413 H 0.01418 0.31945 0.17449 0.0
H1414 H 0.01888 0.28336 0.18015 0.0
H1415 H 0.0412 0.30198 0.15121 0.0
H1416 H 0.04301 0.19863 0.16815 0.0
H1417 H 0.09438 0.24499 0.09866 0.0
H1418 H 0.95386 0.21563 0.15845 0.0
H1419 H 0.97882 0.23823 0.18369 0.0
H1420 H 0.98335 0.20169 0.18272 0.0
H1421 H 0.01773 0.27368 0.07623 0.0
H1422 H 0.06747 0.27931 0.07585 0.0
H1423 H 0.04299 0.29822 0.09966 0.0
C1424 C 0.95081 0.69526 0.33081 0.0
C1425 C 0.91556 0.69465 0.34225 0.0
C1426 C 0.97871 0.7186 0.33402 0.0
C1427 C 0.97158 0.74205 0.34931 0.0
C1428 C 0.93666 0.74125 0.36194 0.0
C1429 C 0.90896 0.7176 0.35817 0.0
C1430 C 0.01544 0.71856 0.32003 0.0
C1431 C 0.92819 0.76572 0.37868 0.0
C1432 C 0.05883 0.79285 0.36749 0.0
C1433 C 0.06106 0.81203 0.34549 0.0
C1434 C 0.02861 0.77091 0.37009 0.0
C1435 C 1.00008 0.76794 0.35012 0.0
C1436 C 1.00125 0.78807 0.32873 0.0
C1437 C 0.03156 0.80988 0.32675 0.0
C1438 C 0.02821 0.75006 0.39338 0.0
C1439 C 0.97157 0.78565 0.30688 0.0
H1440 H 0.95652 0.67772 0.31856 0.0
H1441 H 0.88192 0.71742 0.36713 0.0
H1442 H 0.02007 0.73537 0.30416 0.0
H1443 H 0.03818 0.72305 0.33526 0.0
H1444 H 0.01707 0.69819 0.30986 0.0
H1445 H 0.90129 0.76069 0.38956 0.0
H1446 H 0.95022 0.7722 0.39415 0.0
H1447 H 0.92738 0.78397 0.36489 0.0
H1448 H 0.08128 0.79435 0.38221 0.0
H1449 H 0.03268 0.82465 0.30978 0.0
H1450 H 0.03378 0.7298 0.38504 0.0
H1451 H 1.00067 0.74596 0.40335 0.0
H1452 H 0.04932 0.75748 0.40931 0.0
H1453 H 0.97264 0.76681 0.29399 0.0
H1454 H 0.97476 0.80435 0.29315 0.0
H1455 H 0.94389 0.78291 0.31658 0.0
C1456 C 0.54879 0.69898 0.64964 0.0
C1457 C 0.58041 0.7052 0.63302 0.0
C1458 C 0.51894 0.71338 0.64656 0.0
C1459 C 0.52102 0.7354 0.62703 0.0
C1460 C 0.55252 0.74158 0.60981 0.0
C1461 C 0.58164 0.72618 0.61276 0.0
C1462 C 0.48571 0.70568 0.66508 0.0
C1463 C 0.55627 0.76536 0.58922 0.0
C1464 C 0.43177 0.76348 0.61234 0.0
C1465 C 0.43356 0.78495 0.63208 0.0
C1466 C 0.46042 0.74754 0.60984 0.0
C1467 C 0.492 0.75368 0.62699 0.0
C1468 C 0.49453 0.77603 0.64613 0.0
C1469 C 0.46514 0.79094 0.64878 0.0
C1470 C 0.4562 0.72339 0.58971 0.0
C1471 C 0.52785 0.78369 0.66457 0.0
H1472 H 0.54743 0.6831 0.66554 0.0
H1473 H 0.60596 0.73134 0.59992 0.0
H1474 H 0.48468 0.72277 0.6802 0.0
H1475 H 0.45994 0.70322 0.65276 0.0
H1476 H 0.48635 0.6859 0.67667 0.0
H1477 H 0.58091 0.76603 0.57581 0.0
H1478 H 0.53137 0.76345 0.57598 0.0
H1479 H 0.5586 0.78563 0.6004 0.0
H1480 H 0.40743 0.75845 0.59949 0.0
H1481 H 0.46688 0.8071 0.6644 0.0
H1482 H 0.45402 0.70331 0.60125 0.0
H1483 H 0.48086 0.72503 0.57626 0.0
H1484 H 0.43134 0.72255 0.57651 0.0
H1485 H 0.5289 0.76662 0.67975 0.0
H1486 H 0.52737 0.80351 0.67608 0.0
H1487 H 0.55356 0.78606 0.65217 0.0
C1488 C 0.85723 0.07322 0.75564 0.0
C1489 C 0.84378 0.0697 0.72851 0.0
C1490 C 0.8586 0.05001 0.77295 0.0
C1491 C 0.84541 0.02252 0.76321 0.0
C1492 C 0.83159 0.01883 0.73587 0.0
C1493 C 0.83134 0.04241 0.71876 0.0
C1494 C 0.87446 0.05493 0.80163 0.0
C1495 C 0.81669 0.98995 0.72479 0.0
C1496 C 0.88045 0.96038 0.79606 0.0
C1497 C 0.85206 0.94989 0.81464 0.0
C1498 C 0.87888 0.98417 0.77972 0.0
C1499 C 0.84758 0.99759 0.78119 0.0
C1500 C 0.81863 0.98713 0.79973 0.0
C1501 C 0.82139 0.96363 0.81647 0.0
C1502 C 0.91077 0.99485 0.76075 0.0
C1503 C 0.78442 1.00046 0.80151 0.0
H1504 H 0.86689 0.09423 0.76336 0.0
H1505 H 0.82041 0.03951 0.69799 0.0
H1506 H 0.8536 0.0462 0.81725 0.0
H1507 H 0.89835 0.04382 0.8041 0.0
H1508 H 0.88367 0.07758 0.80608 0.0
H1509 H 0.80546 0.99068 0.70356 0.0
H1510 H 0.83882 0.97692 0.72452 0.0
H1511 H 0.79452 0.97927 0.73853 0.0
H1512 H 0.90413 0.94991 0.79406 0.0
H1513 H 0.7991 0.95561 0.83046 0.0
H1514 H 0.92137 0.0173 0.76513 0.0
H1515 H 0.90135 0.99345 0.73896 0.0
H1516 H 0.93383 0.98281 0.76295 0.0
H1517 H 0.7919 0.02281 0.80764 0.0
H1518 H 0.7641 0.9896 0.81658 0.0
H1519 H 0.77107 1.00005 0.78092 0.0
C1520 C 0.19315 0.54663 0.82784 0.0
C1521 C 0.16289 0.56064 0.82475 0.0
C1522 C 0.19676 0.52319 0.81132 0.0
C1523 C 0.16905 0.5131 0.79168 0.0
C1524 C 0.13817 0.52683 0.7889 0.0
C1525 C 0.13579 0.55055 0.80505 0.0
C1526 C 0.23053 0.50953 0.81449 0.0
C1527 C 0.1076 0.51658 0.76867 0.0
C1528 C 0.18842 0.46929 0.72954 0.0
C1529 C 0.17455 0.4419 0.73843 0.0
C1530 C 0.18784 0.49254 0.74695 0.0
C1531 C 0.17222 0.48842 0.77372 0.0
C1532 C 0.15784 0.46082 0.78268 0.0
C1533 C 0.15956 0.43792 0.76509 0.0
C1534 C 0.20406 0.52153 0.73674 0.0
C1535 C 0.14009 0.45551 0.81072 0.0
H1536 H 0.21448 0.55437 0.84269 0.0
H1537 H 0.1125 0.56125 0.80203 0.0
H1538 H 0.22232 0.48709 0.82016 0.0
H1539 H 0.24545 0.5102 0.79452 0.0
H1540 H 0.24974 0.51998 0.83048 0.0
H1541 H 0.08454 0.52872 0.77 0.0
H1542 H 0.11855 0.51825 0.74728 0.0
H1543 H 0.09652 0.4941 0.77254 0.0
H1544 H 0.20052 0.47255 0.70914 0.0
H1545 H 0.14881 0.41682 0.77215 0.0
H1546 H 0.22508 0.53183 0.75154 0.0
H1547 H 0.1822 0.53475 0.73542 0.0
H1548 H 0.21708 0.52105 0.71609 0.0
H1549 H 0.15985 0.46404 0.82713 0.0
H1550 H 0.13061 0.43279 0.81475 0.0
H1551 H 0.11605 0.46657 0.81231 0.0
C1552 C 0.80714 0.85699 0.07469 0.0
C1553 C 0.78242 0.8702 0.08989 0.0
C1554 C 0.81952 0.86678 0.04846 0.0
C1555 C 0.80731 0.89066 0.03712 0.0
C1556 C 0.78479 0.90548 0.05327 0.0
C1557 C 0.77243 0.895 0.07941 0.0
C1558 C 0.84331 0.85016 0.032 0.0
C1559 C 0.77168 0.93131 0.04221 0.0
C1560 C 0.85337 0.91761 0.96921 0.0
C1561 C 0.82835 0.90383 0.94977 0.0
C1562 C 0.84622 0.91472 0.9978 0.0
C1563 C 0.81361 0.8973 0.00714 0.0
C1564 C 0.78781 0.88413 0.98757 0.0
C1565 C 0.79535 0.8877 0.9593 0.0
C1566 C 0.87408 0.92955 0.018 0.0
C1567 C 0.75284 0.86511 0.99644 0.0
H1568 H 0.81536 0.83796 0.08261 0.0
H1569 H 0.75349 0.9055 0.09097 0.0
H1570 H 0.82701 0.83947 0.01461 0.0
H1571 H 0.86726 0.86428 0.023 0.0
H1572 H 0.85365 0.83398 0.04474 0.0
H1573 H 0.76 0.94311 0.05876 0.0
H1574 H 0.79461 0.9455 0.032 0.0
H1575 H 0.74996 0.92503 0.02646 0.0
H1576 H 0.87888 0.93017 0.96214 0.0
H1577 H 0.77569 0.8769 0.94465 0.0
H1578 H 0.88787 0.91391 0.02884 0.0
H1579 H 0.86019 0.94057 0.03392 0.0
H1580 H 0.89552 0.94502 0.00763 0.0
H1581 H 0.75988 0.84672 0.00775 0.0
H1582 H 0.73492 0.85733 0.97866 0.0
H1583 H 0.73685 0.87637 0.01075 0.0
C1584 C 0.15137 0.60818 0.9846 0.0
C1585 C 0.17578 0.60365 0.96345 0.0
C1586 C 0.16301 0.61057 0.01234 0.0
C1587 C 0.19981 0.60805 0.01913 0.0
C1588 C 0.22371 0.6015 0.99807 0.0
C1589 C 0.2115 0.59954 0.97054 0.0
C1590 C 0.13668 0.61773 0.03406 0.0
C1591 C 0.263 0.5983 0.00433 0.0
C1592 C 0.24899 0.65066 0.07812 0.0
C1593 C 0.24934 0.63036 0.09886 0.0
C1594 C 0.23185 0.64379 0.05259 0.0
C1595 C 0.21484 0.61576 0.04731 0.0
C1596 C 0.21415 0.59526 0.06839 0.0
C1597 C 0.23122 0.60284 0.09402 0.0
C1598 C 0.23292 0.66647 0.03094 0.0
C1599 C 0.19664 0.56512 0.0635 0.0
H1600 H 0.12377 0.6115 0.97937 0.0
H1601 H 0.2305 0.59581 0.95439 0.0
H1602 H 0.13722 0.60423 0.05255 0.0
H1603 H 0.14539 0.63982 0.04073 0.0
H1604 H 0.10792 0.61532 0.02627 0.0
H1605 H 0.27656 0.58988 0.98643 0.0
H1606 H 0.27917 0.61904 0.00991 0.0
H1607 H 0.26394 0.5841 0.02225 0.0
H1608 H 0.26263 0.67205 0.08172 0.0
H1609 H 0.23153 0.587 0.10985 0.0
H1610 H 0.20465 0.66737 0.02341 0.0
H1611 H 0.24936 0.66153 0.01294 0.0
H1612 H 0.24524 0.68754 0.03887 0.0
H1613 H 0.16812 0.56403 0.05562 0.0
H1614 H 0.19582 0.5522 0.08256 0.0
H1615 H 0.21245 0.55579 0.0475 0.0
C1616 C 0.64286 0.10401 0.48002 0.0
C1617 C 0.66687 0.10031 0.45832 0.0
C1618 C 0.65514 0.10562 0.50762 0.0
C1619 C 0.69215 0.10309 0.51369 0.0
C1620 C 0.71564 0.09734 0.49202 0.0
C1621 C 0.70283 0.09622 0.46465 0.0
C1622 C 0.62925 0.11201 0.53 0.0
C1623 C 0.75513 0.09412 0.4975 0.0
C1624 C 0.74274 0.14431 0.5729 0.0
C1625 C 0.74377 0.12352 0.59304 0.0
C1626 C 0.72486 0.13804 0.54755 0.0
C1627 C 0.70784 0.11012 0.54181 0.0
C1628 C 0.70787 0.0891 0.5623 0.0
C1629 C 0.72562 0.09609 0.5878 0.0
C1630 C 0.72515 0.16126 0.52656 0.0
C1631 C 0.69041 0.05905 0.55687 0.0
H1632 H 0.61508 0.10732 0.47535 0.0
H1633 H 0.7215 0.09311 0.44805 0.0
H1634 H 0.63039 0.09805 0.54807 0.0
H1635 H 0.6379 0.13394 0.53717 0.0
H1636 H 0.60028 0.10962 0.52265 0.0
H1637 H 0.7683 0.08623 0.47912 0.0
H1638 H 0.77134 0.11475 0.50338 0.0
H1639 H 0.7566 0.07947 0.51497 0.0
H1640 H 0.75636 0.16564 0.57685 0.0
H1641 H 0.72645 0.0799 0.60319 0.0
H1642 H 0.69665 0.16218 0.51957 0.0
H1643 H 0.74121 0.15692 0.50814 0.0
H1644 H 0.73747 0.18216 0.53489 0.0
H1645 H 0.66168 0.05804 0.54947 0.0
H1646 H 0.69017 0.04567 0.57557 0.0
H1647 H 0.70589 0.0502 0.54033 0.0
C1648 C 0.26766 0.39748 0.58084 0.0
C1649 C 0.2765 0.37218 0.59099 0.0
C1650 C 0.28074 0.40816 0.55494 0.0
C1651 C 0.30286 0.39306 0.53873 0.0
C1652 C 0.31415 0.36874 0.54987 0.0
C1653 C 0.30105 0.35873 0.57586 0.0
C1654 C 0.26862 0.43447 0.54411 0.0
C1655 C 0.33753 0.35184 0.53337 0.0
C1656 C 0.29085 0.39068 0.46093 0.0
C1657 C 0.3242 0.40633 0.45145 0.0
C1658 C 0.28323 0.3871 0.48918 0.0
C1659 C 0.30933 0.39979 0.5088 0.0
C1660 C 0.34232 0.41675 0.49952 0.0
C1661 C 0.34952 0.41966 0.47093 0.0
C1662 C 0.24782 0.3686 0.49799 0.0
C1663 C 0.37052 0.43105 0.51976 0.0
H1664 H 0.24886 0.40816 0.59235 0.0
H1665 H 0.30843 0.33933 0.58357 0.0
H1666 H 0.2919 0.44829 0.5339 0.0
H1667 H 0.24668 0.42872 0.52843 0.0
H1668 H 0.25755 0.44645 0.5608 0.0
H1669 H 0.34743 0.33542 0.54606 0.0
H1670 H 0.32107 0.34141 0.51594 0.0
H1671 H 0.36176 0.36571 0.52444 0.0
H1672 H 0.27095 0.38026 0.44623 0.0
H1673 H 0.3753 0.43186 0.46391 0.0
H1674 H 0.23224 0.38013 0.51235 0.0
H1675 H 0.25425 0.34997 0.50922 0.0
H1676 H 0.22974 0.36119 0.48019 0.0
H1677 H 0.357 0.44216 0.53584 0.0
H1678 H 0.39223 0.44635 0.50947 0.0
H1679 H 0.38392 0.41507 0.53041 0.0
C1680 C 0.03572 0.70157 0.85707 0.0
C1681 C 0.06893 0.70646 0.87198 0.0
C1682 C 0.01092 0.72067 0.85775 0.0
C1683 C 0.01897 0.74509 0.87425 0.0
C1684 C 0.05184 0.74974 0.89012 0.0
C1685 C 0.07671 0.73054 0.88852 0.0
C1686 C 0.97676 0.71517 0.83992 0.0
C1687 C 0.06101 0.77522 0.90841 0.0
C1688 C 0.97595 0.80739 0.85087 0.0
C1689 C 0.94385 0.80455 0.86701 0.0
C1690 C 1.00086 0.7885 0.8534 0.0
C1691 C 0.99415 0.76658 0.87312 0.0
C1692 C 0.96241 0.76414 0.89016 0.0
C1693 C 0.93727 0.78291 0.8866 0.0
C1694 C 0.03366 0.79142 0.8342 0.0
C1695 C 0.95477 0.74149 0.91189 0.0
H1696 H 0.02955 0.68317 0.84403 0.0
H1697 H 0.10219 0.73436 0.90021 0.0
H1698 H 0.95175 0.71503 0.85273 0.0
H1699 H 0.97751 0.73228 0.82451 0.0
H1700 H 0.97412 0.69485 0.82875 0.0
H1701 H 0.08574 0.77446 0.92138 0.0
H1702 H 0.06622 0.79449 0.89555 0.0
H1703 H 0.03732 0.77702 0.9221 0.0
H1704 H 0.98104 0.82392 0.83549 0.0
H1705 H 0.91265 0.78077 0.89925 0.0
H1706 H 0.03186 0.77233 0.8212 0.0
H1707 H 0.05959 0.79329 0.84625 0.0
H1708 H 0.03537 0.81001 0.82042 0.0
H1709 H 0.94892 0.72058 0.90186 0.0
H1710 H 0.93091 0.74403 0.92515 0.0
H1711 H 0.97941 0.74172 0.92517 0.0
C1712 C 0.06823 0.30764 0.71645 0.0
C1713 C 0.09055 0.30713 0.69298 0.0
C1714 C 0.03515 0.28838 0.7195 0.0
C1715 C 0.02429 0.26798 0.69874 0.0
C1716 C 0.047 0.26712 0.67529 0.0
C1717 C 0.07954 0.2867 0.67263 0.0
C1718 C 0.01148 0.29015 0.74467 0.0
C1719 C 0.03665 0.24572 0.65265 0.0
C1720 C 0.95139 0.20253 0.70911 0.0
C1721 C 0.92156 0.21003 0.69455 0.0
C1722 C 0.98472 0.22162 0.71181 0.0
C1723 C 0.98791 0.24888 0.70007 0.0
C1724 C 0.95706 0.25694 0.6868 0.0
C1725 C 0.92449 0.23744 0.68407 0.0
C1726 C 0.01707 0.21214 0.72594 0.0
C1727 C 0.9589 0.28582 0.67428 0.0
H1728 H 0.07651 0.32314 0.7324 0.0
H1729 H 0.09647 0.28583 0.65445 0.0
H1730 H 0.98465 0.29577 0.73833 0.0
H1731 H 0.00549 0.26943 0.7551 0.0
H1732 H 0.02478 0.30603 0.75972 0.0
H1733 H 0.05847 0.24666 0.63665 0.0
H1734 H 0.03136 0.22422 0.6615 0.0
H1735 H 0.01083 0.24936 0.64248 0.0
H1736 H 0.94923 0.18143 0.71732 0.0
H1737 H 0.9013 0.24363 0.67331 0.0
H1738 H 0.02962 0.22804 0.74119 0.0
H1739 H 0.03857 0.20996 0.7104 0.0
H1740 H 0.00908 0.19166 0.73664 0.0
H1741 H 0.96999 0.30225 0.68948 0.0
H1742 H 0.93148 0.28972 0.66716 0.0
H1743 H 0.97791 0.28811 0.65633 0.0
C1744 C 0.56446 0.22659 0.38729 0.0
C1745 C 0.55733 0.20393 0.36892 0.0
C1746 C 0.5402 0.2462 0.3893 0.0
C1747 C 0.50877 0.24351 0.37191 0.0
C1748 C 0.50147 0.22056 0.35343 0.0
C1749 C 0.52552 0.20091 0.35244 0.0
C1750 C 0.54842 0.26998 0.40975 0.0
C1751 C 0.46897 0.21727 0.33392 0.0
C1752 C 0.42763 0.28195 0.38409 0.0
C1753 C 0.43645 0.30516 0.36649 0.0
C1754 C 0.45173 0.26233 0.38709 0.0
C1755 C 0.48479 0.26558 0.37147 0.0
C1756 C 0.49381 0.2891 0.3538 0.0
C1757 C 0.46982 0.30873 0.35182 0.0
C1758 C 0.44159 0.23792 0.40667 0.0
C1759 C 0.52815 0.29301 0.33613 0.0
H1760 H 0.58887 0.2289 0.4002 0.0
H1761 H 0.51998 0.1836 0.33798 0.0
H1762 H 0.55511 0.29026 0.39858 0.0
H1763 H 0.52377 0.27101 0.42267 0.0
H1764 H 0.57194 0.26769 0.42348 0.0
H1765 H 0.46681 0.19797 0.32115 0.0
H1766 H 0.44295 0.21651 0.34567 0.0
H1767 H 0.47155 0.23571 0.31993 0.0
H1768 H 0.402 0.2792 0.39561 0.0
H1769 H 0.47669 0.32647 0.33796 0.0
H1770 H 0.46495 0.23646 0.4208 0.0
H1771 H 0.43599 0.21801 0.39484 0.0
H1772 H 0.41682 0.2398 0.41919 0.0
H1773 H 0.55294 0.29335 0.34924 0.0
H1774 H 0.53155 0.31275 0.32388 0.0
H1775 H 0.52696 0.27506 0.32169 0.0
C1776 C 0.73316 0.57421 0.70113 0.0
C1777 C 0.70628 0.58963 0.71004 0.0
C1778 C 0.73704 0.54869 0.71405 0.0
C1779 C 0.71396 0.53874 0.73666 0.0
C1780 C 0.68836 0.55519 0.74668 0.0
C1781 C 0.68462 0.58021 0.73311 0.0
C1782 C 0.76434 0.53163 0.70254 0.0
C1783 C 0.66359 0.54572 0.77097 0.0
C1784 C 0.68281 0.46125 0.75127 0.0
C1785 C 0.70378 0.45693 0.77459 0.0
C1786 C 0.68754 0.48732 0.73779 0.0
C1787 C 0.71342 0.50996 0.74816 0.0
C1788 C 0.7357 0.50547 0.77111 0.0
C1789 C 0.73085 0.47888 0.78392 0.0
C1790 C 0.66358 0.49095 0.71315 0.0
C1791 C 0.7632 0.52913 0.78304 0.0
H1792 H 0.74986 0.58136 0.68324 0.0
H1793 H 0.66408 0.59223 0.74031 0.0
H1794 H 0.78118 0.52465 0.71936 0.0
H1795 H 0.74921 0.51248 0.69247 0.0
H1796 H 0.78305 0.5436 0.68709 0.0
H1797 H 0.64797 0.56224 0.77795 0.0
H1798 H 0.64353 0.52682 0.76517 0.0
H1799 H 0.68005 0.53982 0.78856 0.0
H1800 H 0.6621 0.44427 0.74376 0.0
H1801 H 0.74704 0.47568 0.802 0.0
H1802 H 0.6807 0.50089 0.6958 0.0
H1803 H 0.6438 0.50506 0.71866 0.0
H1804 H 0.64766 0.47065 0.70593 0.0
H1805 H 0.78076 0.54022 0.76649 0.0
H1806 H 0.78121 0.52159 0.7988 0.0
H1807 H 0.74825 0.54468 0.79285 0.0
C1808 C 0.31312 0.02552 0.77068 0.0
C1809 C 0.31184 0.04763 0.75205 0.0
C1810 C 0.30894 0.99755 0.76153 0.0
C1811 C 0.30317 0.99151 0.73309 0.0
C1812 C 0.29893 0.01347 0.71459 0.0
C1813 C 0.30338 0.04125 0.72427 0.0
C1814 C 0.31361 0.9748 0.78199 0.0
C1815 C 0.29248 0.00797 0.68415 0.0
C1816 C 0.34745 0.93234 0.70399 0.0
C1817 C 0.31737 0.91038 0.70123 0.0
C1818 C 0.34299 0.95863 0.71432 0.0
C1819 C 0.30748 0.96338 0.72211 0.0
C1820 C 0.27684 0.94147 0.71927 0.0
C1821 C 0.28213 0.91517 0.70885 0.0
C1822 C 0.3765 0.98135 0.71694 0.0
C1823 C 0.23857 0.94581 0.72732 0.0
H1824 H 0.31947 0.03014 0.79222 0.0
H1825 H 0.30194 0.05812 0.70974 0.0
H1826 H 0.29199 0.95608 0.77898 0.0
H1827 H 0.3407 0.96813 0.7786 0.0
H1828 H 0.31247 0.98207 0.80368 0.0
H1829 H 0.28426 0.02627 0.67334 0.0
H1830 H 0.31821 0.0034 0.67453 0.0
H1831 H 0.27079 0.98936 0.68088 0.0
H1832 H 0.37481 0.92905 0.69807 0.0
H1833 H 0.25873 0.89838 0.70679 0.0
H1834 H 0.38004 0.98838 0.73872 0.0
H1835 H 0.3727 0.99987 0.70437 0.0
H1836 H 0.40222 0.97419 0.7101 0.0
H1837 H 0.23804 0.95148 0.74949 0.0
H1838 H 0.21758 0.92678 0.72366 0.0
H1839 H 0.23076 0.96354 0.71539 0.0
C1840 C 0.45879 0.19141 0.82629 0.0
C1841 C 0.4269 0.19026 0.84248 0.0
C1842 C 0.4887 0.21343 0.82917 0.0
C1843 C 0.48685 0.23489 0.84876 0.0
C1844 C 0.45558 0.23316 0.86613 0.0
C1845 C 0.42599 0.21088 0.8628 0.0
C1846 C 0.52154 0.21442 0.81025 0.0
C1847 C 0.45263 0.25555 0.88735 0.0
C1848 C 0.57727 0.2837 0.86344 0.0
C1849 C 0.57524 0.30586 0.845 0.0
C1850 C 0.54814 0.26088 0.86573 0.0
C1851 C 0.51621 0.26023 0.84923 0.0
C1852 C 0.51331 0.28313 0.83155 0.0
C1853 C 0.54276 0.30561 0.82968 0.0
C1854 C 0.55219 0.23694 0.88491 0.0
C1855 C 0.47971 0.28334 0.81364 0.0
H1856 H 0.46001 0.17555 0.81065 0.0
H1857 H 0.40161 0.21024 0.8755 0.0
H1858 H 0.52319 0.23271 0.79614 0.0
H1859 H 0.54745 0.21724 0.82243 0.0
H1860 H 0.51996 0.19509 0.79759 0.0
H1861 H 0.42849 0.24962 0.9012 0.0
H1862 H 0.47801 0.25969 0.9001 0.0
H1863 H 0.44985 0.27546 0.87674 0.0
H1864 H 0.60215 0.28364 0.87542 0.0
H1865 H 0.54067 0.32263 0.81547 0.0
H1866 H 0.55439 0.21791 0.87262 0.0
H1867 H 0.52746 0.23177 0.89826 0.0
H1868 H 0.57701 0.24183 0.89825 0.0
H1869 H 0.47746 0.26603 0.79836 0.0
H1870 H 0.48078 0.30347 0.8023 0.0
H1871 H 0.45432 0.27969 0.82641 0.0
C1872 C 0.35827 0.57893 0.26146 0.0
C1873 C 0.34562 0.57603 0.23408 0.0
C1874 C 0.35879 0.55535 0.27843 0.0
C1875 C 0.34559 0.5281 0.26806 0.0
C1876 C 0.33253 0.52503 0.24049 0.0
C1877 C 0.33308 0.54898 0.22375 0.0
C1878 C 0.37382 0.55959 0.30741 0.0
C1879 C 0.31767 0.49643 0.22873 0.0
C1880 C 0.37906 0.46491 0.3001 0.0
C1881 C 0.35 0.45405 0.31797 0.0
C1882 C 0.37822 0.48918 0.2843 0.0
C1883 C 0.34705 0.50276 0.28562 0.0
C1884 C 0.31747 0.49197 0.3035 0.0
C1885 C 0.31947 0.46795 0.3197 0.0
C1886 C 0.41073 0.50016 0.26601 0.0
C1887 C 0.2834 0.50548 0.30511 0.0
H1888 H 0.368 0.59975 0.26963 0.0
H1889 H 0.32278 0.54654 0.20277 0.0
H1890 H 0.3525 0.55054 0.32258 0.0
H1891 H 0.39759 0.54838 0.31 0.0
H1892 H 0.38296 0.58213 0.31241 0.0
H1893 H 0.30697 0.49767 0.20739 0.0
H1894 H 0.33968 0.4833 0.22847 0.0
H1895 H 0.29511 0.48557 0.24202 0.0
H1896 H 0.40267 0.45435 0.29821 0.0
H1897 H 0.29668 0.45966 0.33315 0.0
H1898 H 0.42134 0.52248 0.27096 0.0
H1899 H 0.40197 0.4993 0.24407 0.0
H1900 H 0.43362 0.48796 0.26832 0.0
H1901 H 0.29093 0.5277 0.31167 0.0
H1902 H 0.26265 0.49444 0.31978 0.0
H1903 H 0.27055 0.50551 0.28438 0.0
C1904 C 0.62309 0.04689 0.30243 0.0
C1905 C 0.65109 0.0584 0.32088 0.0
C1906 C 0.6266 0.02376 0.28573 0.0
C1907 C 0.65937 0.01211 0.28681 0.0
C1908 C 0.68788 0.02359 0.30528 0.0
C1909 C 0.68325 0.04639 0.3223 0.0
C1910 C 0.59519 0.01189 0.26681 0.0
C1911 C 0.72354 0.01209 0.30669 0.0
C1912 C 0.65705 0.93735 0.26113 0.0
C1913 C 0.67087 0.94175 0.23417 0.0
C1914 C 0.65291 0.96001 0.27835 0.0
C1915 C 0.66357 0.98785 0.26865 0.0
C1916 C 0.67739 0.99245 0.24139 0.0
C1917 C 0.68051 0.96934 0.22438 0.0
C1918 C 0.63719 0.95411 0.30697 0.0
C1919 C 0.68957 0.0218 0.2304 0.0
H1920 H 0.59824 0.05602 0.30083 0.0
H1921 H 0.70523 0.05524 0.33621 0.0
H1922 H 0.60446 0.01386 0.24499 0.0
H1923 H 0.58633 0.98918 0.27108 0.0
H1924 H 0.57098 0.02269 0.26917 0.0
H1925 H 0.74328 0.02364 0.32174 0.0
H1926 H 0.71795 0.98959 0.31265 0.0
H1927 H 0.73677 0.01337 0.28603 0.0
H1928 H 0.64951 0.91608 0.26885 0.0
H1929 H 0.69168 0.97291 0.20372 0.0
H1930 H 0.61233 0.96407 0.30957 0.0
H1931 H 0.65758 0.96341 0.32267 0.0
H1932 H 0.62954 0.93126 0.31119 0.0
H1933 H 0.66612 0.03356 0.23066 0.0
H1934 H 0.70039 0.02185 0.20899 0.0
H1935 H 0.71139 0.03331 0.2439 0.0
C1936 C 0.59643 0.7798 0.18238 0.0
C1937 C 0.60518 0.80353 0.19941 0.0
C1938 C 0.56293 0.76129 0.18509 0.0
C1939 C 0.53702 0.76663 0.20515 0.0
C1940 C 0.54605 0.78998 0.22308 0.0
C1941 C 0.58014 0.80808 0.22012 0.0
C1942 C 0.55472 0.73657 0.16566 0.0
C1943 C 0.51907 0.79653 0.24459 0.0
C1944 C 0.43826 0.73929 0.18416 0.0
C1945 C 0.43001 0.71402 0.19905 0.0
C1946 C 0.47226 0.75709 0.18701 0.0
C1947 C 0.49922 0.74949 0.20503 0.0
C1948 C 0.49083 0.72446 0.22081 0.0
C1949 C 0.4562 0.70706 0.21776 0.0
C1950 C 0.47975 0.78365 0.16992 0.0
C1951 C 0.51893 0.71553 0.24011 0.0
H1952 H 0.61569 0.77573 0.16658 0.0
H1953 H 0.58666 0.82623 0.23347 0.0
H1954 H 0.54553 0.71693 0.17745 0.0
H1955 H 0.53192 0.73957 0.15156 0.0
H1956 H 0.57904 0.73387 0.15297 0.0
H1957 H 0.5316 0.81354 0.25878 0.0
H1958 H 0.49502 0.80316 0.23424 0.0
H1959 H 0.50854 0.77751 0.25694 0.0
H1960 H 0.41815 0.74521 0.16994 0.0
H1961 H 0.45007 0.68767 0.22942 0.0
H1962 H 0.50187 0.78209 0.15471 0.0
H1963 H 0.48956 0.802 0.18331 0.0
H1964 H 0.45492 0.78763 0.15851 0.0
H1965 H 0.54227 0.71006 0.22794 0.0
H1966 H 0.50708 0.69706 0.25284 0.0
H1967 H 0.53033 0.73307 0.25404 0.0
loop_
_geom_bond_atom_site_label_1
_geom_bond_atom_site_label_2
_geom_bond_distance
_geom_bond_site_symmetry_2
_ccdc_geom_bond_type
Co0 O2 2.143 . S
Co0 O8 2.074 . S
Co0 O11 2.093 . S
Co0 O24 2.097 . S
Co0 N41 2.151 . S
Co0 N49 2.214 . S
Co1 O2 2.160 . S
Co1 O7 2.058 . S
Co1 O17 2.057 . S
Co1 O32 2.037 . S
Co1 N36 2.145 . S
Co1 N57 2.257 . S
O2 Co0 2.143 . S
O2 Co1 2.160 . S
C3 O4 1.278 . S
C3 O11 1.224 . S
O4 C3 1.278 . S
C5 O6 1.245 . S
C5 O17 1.232 . S
O6 C5 1.245 . S
O7 Co1 2.058 . S
O7 C33 1.269 . S
O8 Co0 2.074 . S
O8 C33 1.257 . S
H9 C34 0.930 . S
H10 C40 0.930 . S
O11 Co0 2.093 . S
O11 C3 1.224 . S
H12 C44 0.929 . S
H13 C46 0.930 . S
H14 C47 0.930 . S
H15 C45 0.929 . S
H16 C48 0.928 . S
O17 Co1 2.057 . S
O17 C5 1.232 . S
H18 C37 0.929 . S
H19 C38 0.929 . S
H20 C50 0.931 . S
H21 C42 0.929 . S
H22 C51 0.930 . S
H23 C43 0.931 . S
O24 Co0 2.097 . S
O24 C52 1.214 . S
H25 C53 0.929 . S
H26 C54 0.929 . S
H27 C55 0.930 . S
H28 C56 0.929 . S
H29 C58 0.930 . S
H30 C35 0.930 . S
H31 C39 0.930 . S
O32 Co1 2.037 . S
O32 C52 1.234 . S
C33 O7 1.269 . S
C33 O8 1.257 . S
C34 H9 0.930 . S
C34 C37 1.388 . S
C34 C39 1.418 . S
C35 H30 0.930 . S
C35 C38 1.404 . S
C35 C39 1.353 . S
N36 Co1 2.145 . S
N36 C37 1.397 . S
N36 C38 1.334 . S
C37 H18 0.929 . S
C37 C34 1.388 . S
C37 N36 1.397 . S
C38 H19 0.929 . S
C38 C35 1.404 . S
C38 N36 1.334 . S
C39 H31 0.930 . S
C39 C34 1.418 . S
C39 C35 1.353 . S
C40 H10 0.930 . S
C40 N41 1.330 . S
C40 C42 1.446 . S
N41 Co0 2.151 . S
N41 C40 1.330 . S
N41 C45 1.418 . S
C42 H21 0.929 . S
C42 C40 1.446 . S
C42 C43 1.332 . S
C43 H23 0.931 . S
C43 C42 1.332 . S
C43 C44 1.267 . S
C44 H12 0.929 . S
C44 C43 1.267 . S
C44 C45 1.251 . S
C45 H15 0.929 . S
C45 N41 1.418 . S
C45 C44 1.251 . S
C46 H13 0.930 . S
C46 C48 1.406 . S
C46 C51 1.261 . S
C47 H14 0.930 . S
C47 N49 1.325 . S
C47 C50 1.357 . S
C48 H16 0.928 . S
C48 C46 1.406 . S
C48 N49 1.261 . S
N49 Co0 2.214 . S
N49 C47 1.325 . S
N49 C48 1.261 . S
C50 H20 0.931 . S
C50 C47 1.357 . S
C50 C51 1.312 . S
C51 H22 0.930 . S
C51 C46 1.261 . S
C51 C50 1.312 . S
C52 O24 1.214 . S
C52 O32 1.234 . S
C53 H25 0.929 . S
C53 C56 1.391 . S
C53 C58 1.391 . S
C54 H26 0.929 . S
C54 C55 1.390 . S
C54 N57 1.391 . S
C55 H27 0.930 . S
C55 C54 1.390 . S
C55 C56 1.392 . S
C56 H28 0.929 . S
C56 C53 1.391 . S
C56 C55 1.392 . S
N57 Co1 2.257 . S
N57 C54 1.391 . S
N57 C58 1.388 . S
C58 H29 0.930 . S
C58 C53 1.391 . S
C58 N57 1.388 . S
Co59 O61 2.143 . S
Co59 O67 2.074 . S
Co59 O70 2.093 . S
Co59 O83 2.097 . S
Co59 N100 2.151 . S
Co59 N108 2.214 . S
Co60 O61 2.160 . S
Co60 O66 2.058 . S
Co60 O76 2.057 . S
Co60 O91 2.037 . S
Co60 N95 2.145 . S
Co60 N116 2.257 . S
O61 Co59 2.143 . S
O61 Co60 2.160 . S
C62 O63 1.278 . S
C62 O70 1.224 . S
O63 C62 1.278 . S
C64 O65 1.245 . S
C64 O76 1.232 . S
O65 C64 1.245 . S
O66 Co60 2.058 . S
O66 C92 1.269 . S
O67 Co59 2.074 . S
O67 C92 1.257 . S
H68 C93 0.930 . S
H69 C99 0.930 . S
O70 Co59 2.093 . S
O70 C62 1.224 . S
H71 C103 0.929 . S
H72 C105 0.930 . S
H73 C106 0.930 . S
H74 C104 0.929 . S
H75 C107 0.928 . S
O76 Co60 2.057 . S
O76 C64 1.232 . S
H77 C96 0.929 . S
H78 C97 0.929 . S
H79 C109 0.931 . S
H80 C101 0.929 . S
H81 C110 0.930 . S
H82 C102 0.931 . S
O83 Co59 2.097 . S
O83 C111 1.214 . S
H84 C112 0.929 . S
H85 C113 0.929 . S
H86 C114 0.930 . S
H87 C115 0.929 . S
H88 C117 0.930 . S
H89 C94 0.930 . S
H90 C98 0.930 . S
O91 Co60 2.037 . S
O91 C111 1.234 . S
C92 O66 1.269 . S
C92 O67 1.257 . S
C93 H68 0.930 . S
C93 C96 1.388 . S
C93 C98 1.418 . S
C94 H89 0.930 . S
C94 C97 1.404 . S
C94 C98 1.353 . S
N95 Co60 2.145 . S
N95 C96 1.397 . S
N95 C97 1.334 . S
C96 H77 0.929 . S
C96 C93 1.388 . S
C96 N95 1.397 . S
C97 H78 0.929 . S
C97 C94 1.404 . S
C97 N95 1.334 . S
C98 H90 0.930 . S
C98 C93 1.418 . S
C98 C94 1.353 . S
C99 H69 0.930 . S
C99 N100 1.330 . S
C99 C101 1.446 . S
N100 Co59 2.151 . S
N100 C99 1.330 . S
N100 C104 1.418 . S
C101 H80 0.929 . S
C101 C99 1.446 . S
C101 C102 1.332 . S
C102 H82 0.931 . S
C102 C101 1.332 . S
C102 C103 1.267 . S
C103 H71 0.929 . S
C103 C102 1.267 . S
C103 C104 1.251 . S
C104 H74 0.929 . S
C104 N100 1.418 . S
C104 C103 1.251 . S
C105 H72 0.930 . S
C105 C107 1.406 . S
C105 C110 1.261 . S
C106 H73 0.930 . S
C106 N108 1.325 . S
C106 C109 1.357 . S
C107 H75 0.928 . S
C107 C105 1.406 . S
C107 N108 1.261 . S
N108 Co59 2.214 . S
N108 C106 1.325 . S
N108 C107 1.261 . S
C109 H79 0.931 . S
C109 C106 1.357 . S
C109 C110 1.312 . S
C110 H81 0.930 . S
C110 C105 1.261 . S
C110 C109 1.312 . S
C111 O83 1.214 . S
C111 O91 1.234 . S
C112 H84 0.929 . S
C112 C115 1.391 . S
C112 C117 1.391 . S
C113 H85 0.929 . S
C113 C114 1.390 . S
C113 N116 1.391 . S
C114 H86 0.930 . S
C114 C113 1.390 . S
C114 C115 1.392 . S
C115 H87 0.929 . S
C115 C112 1.391 . S
C115 C114 1.392 . S
N116 Co60 2.257 . S
N116 C113 1.391 . S
N116 C117 1.388 . S
C117 H88 0.930 . S
C117 C112 1.391 . S
C117 N116 1.388 . S
Co118 O120 2.143 . S
Co118 O126 2.074 . S
Co118 O129 2.093 . S
Co118 O142 2.097 . S
Co118 N159 2.151 . S
Co118 N167 2.214 . S
Co119 O120 2.160 . S
Co119 O125 2.058 . S
Co119 O135 2.057 . S
Co119 O150 2.037 . S
Co119 N154 2.145 . S
Co119 N175 2.257 . S
O120 Co118 2.143 . S
O120 Co119 2.160 . S
C121 O122 1.278 . S
C121 O129 1.224 . S
O122 C121 1.278 . S
C123 O124 1.245 . S
C123 O135 1.232 . S
O124 C123 1.245 . S
O125 Co119 2.058 . S
O125 C151 1.269 . S
O126 Co118 2.074 . S
O126 C151 1.257 . S
H127 C152 0.930 . S
H128 C158 0.930 . S
O129 Co118 2.093 . S
O129 C121 1.224 . S
H130 C162 0.929 . S
H131 C164 0.930 . S
H132 C165 0.930 . S
H133 C163 0.929 . S
H134 C166 0.928 . S
O135 Co119 2.057 . S
O135 C123 1.232 . S
H136 C155 0.929 . S
H137 C156 0.929 . S
H138 C168 0.931 . S
H139 C160 0.929 . S
H140 C169 0.930 . S
H141 C161 0.931 . S
O142 Co118 2.097 . S
O142 C170 1.214 . S
H143 C171 0.929 . S
H144 C172 0.929 . S
H145 C173 0.930 . S
H146 C174 0.929 . S
H147 C176 0.930 . S
H148 C153 0.930 . S
H149 C157 0.930 . S
O150 Co119 2.037 . S
O150 C170 1.234 . S
C151 O125 1.269 . S
C151 O126 1.257 . S
C152 H127 0.930 . S
C152 C155 1.388 . S
C152 C157 1.418 . S
C153 H148 0.930 . S
C153 C156 1.404 . S
C153 C157 1.353 . S
N154 Co119 2.145 . S
N154 C155 1.397 . S
N154 C156 1.334 . S
C155 H136 0.929 . S
C155 C152 1.388 . S
C155 N154 1.397 . S
C156 H137 0.929 . S
C156 C153 1.404 . S
C156 N154 1.334 . S
C157 H149 0.930 . S
C157 C152 1.418 . S
C157 C153 1.353 . S
C158 H128 0.930 . S
C158 N159 1.330 . S
C158 C160 1.446 . S
N159 Co118 2.151 . S
N159 C158 1.330 . S
N159 C163 1.418 . S
C160 H139 0.929 . S
C160 C158 1.446 . S
C160 C161 1.332 . S
C161 H141 0.931 . S
C161 C160 1.332 . S
C161 C162 1.267 . S
C162 H130 0.929 . S
C162 C161 1.267 . S
C162 C163 1.251 . S
C163 H133 0.929 . S
C163 N159 1.418 . S
C163 C162 1.251 . S
C164 H131 0.930 . S
C164 C166 1.406 . S
C164 C169 1.261 . S
C165 H132 0.930 . S
C165 N167 1.325 . S
C165 C168 1.357 . S
C166 H134 0.928 . S
C166 C164 1.406 . S
C166 N167 1.261 . S
N167 Co118 2.214 . S
N167 C165 1.325 . S
N167 C166 1.261 . S
C168 H138 0.931 . S
C168 C165 1.357 . S
C168 C169 1.312 . S
C169 H140 0.930 . S
C169 C164 1.261 . S
C169 C168 1.312 . S
C170 O142 1.214 . S
C170 O150 1.234 . S
C171 H143 0.929 . S
C171 C174 1.391 . S
C171 C176 1.391 . S
C172 H144 0.929 . S
C172 C173 1.390 . S
C172 N175 1.391 . S
C173 H145 0.930 . S
C173 C172 1.390 . S
C173 C174 1.392 . S
C174 H146 0.929 . S
C174 C171 1.391 . S
C174 C173 1.392 . S
N175 Co119 2.257 . S
N175 C172 1.391 . S
N175 C176 1.388 . S
C176 H147 0.930 . S
C176 C171 1.391 . S
C176 N175 1.388 . S
Co177 O179 2.143 . S
Co177 O185 2.074 . S
Co177 O188 2.093 . S
Co177 O201 2.097 . S
Co177 N218 2.151 . S
Co177 N226 2.214 . S
Co178 O179 2.160 . S
Co178 O184 2.058 . S
Co178 O194 2.057 . S
Co178 O209 2.037 . S
Co178 N213 2.145 . S
Co178 N234 2.257 . S
O179 Co177 2.143 . S
O179 Co178 2.160 . S
C180 O181 1.278 . S
C180 O188 1.224 . S
O181 C180 1.278 . S
C182 O183 1.245 . S
C182 O194 1.232 . S
O183 C182 1.245 . S
O184 Co178 2.058 . S
O184 C210 1.269 . S
O185 Co177 2.074 . S
O185 C210 1.257 . S
H186 C211 0.930 . S
H187 C217 0.930 . S
O188 Co177 2.093 . S
O188 C180 1.224 . S
H189 C221 0.929 . S
H190 C223 0.930 . S
H191 C224 0.930 . S
H192 C222 0.929 . S
H193 C225 0.928 . S
O194 Co178 2.057 . S
O194 C182 1.232 . S
H195 C214 0.929 . S
H196 C215 0.929 . S
H197 C227 0.931 . S
H198 C219 0.929 . S
H199 C228 0.930 . S
H200 C220 0.931 . S
O201 Co177 2.097 . S
O201 C229 1.214 . S
H202 C230 0.929 . S
H203 C231 0.929 . S
H204 C232 0.930 . S
H205 C233 0.929 . S
H206 C235 0.930 . S
H207 C212 0.930 . S
H208 C216 0.930 . S
O209 Co178 2.037 . S
O209 C229 1.234 . S
C210 O184 1.269 . S
C210 O185 1.257 . S
C211 H186 0.930 . S
C211 C214 1.388 . S
C211 C216 1.418 . S
C212 H207 0.930 . S
C212 C215 1.404 . S
C212 C216 1.353 . S
N213 Co178 2.145 . S
N213 C214 1.397 . S
N213 C215 1.334 . S
C214 H195 0.929 . S
C214 C211 1.388 . S
C214 N213 1.397 . S
C215 H196 0.929 . S
C215 C212 1.404 . S
C215 N213 1.334 . S
C216 H208 0.930 . S
C216 C211 1.418 . S
C216 C212 1.353 . S
C217 H187 0.930 . S
C217 N218 1.330 . S
C217 C219 1.446 . S
N218 Co177 2.151 . S
N218 C217 1.330 . S
N218 C222 1.418 . S
C219 H198 0.929 . S
C219 C217 1.446 . S
C219 C220 1.332 . S
C220 H200 0.931 . S
C220 C219 1.332 . S
C220 C221 1.267 . S
C221 H189 0.929 . S
C221 C220 1.267 . S
C221 C222 1.251 . S
C222 H192 0.929 . S
C222 N218 1.418 . S
C222 C221 1.251 . S
C223 H190 0.930 . S
C223 C225 1.406 . S
C223 C228 1.261 . S
C224 H191 0.930 . S
C224 N226 1.325 . S
C224 C227 1.357 . S
C225 H193 0.928 . S
C225 C223 1.406 . S
C225 N226 1.261 . S
N226 Co177 2.214 . S
N226 C224 1.325 . S
N226 C225 1.261 . S
C227 H197 0.931 . S
C227 C224 1.357 . S
C227 C228 1.312 . S
C228 H199 0.930 . S
C228 C223 1.261 . S
C228 C227 1.312 . S
C229 O201 1.214 . S
C229 O209 1.234 . S
C230 H202 0.929 . S
C230 C233 1.391 . S
C230 C235 1.391 . S
C231 H203 0.929 . S
C231 C232 1.390 . S
C231 N234 1.391 . S
C232 H204 0.930 . S
C232 C231 1.390 . S
C232 C233 1.392 . S
C233 H205 0.929 . S
C233 C230 1.391 . S
C233 C232 1.392 . S
N234 Co178 2.257 . S
N234 C231 1.391 . S
N234 C235 1.388 . S
C235 H206 0.930 . S
C235 C230 1.391 . S
C235 N234 1.388 . S
Co236 O238 2.143 . S
Co236 O244 2.074 . S
Co236 O247 2.093 . S
Co236 O260 2.097 . S
Co236 N277 2.151 . S
Co236 N285 2.214 . S
Co237 O238 2.160 . S
Co237 O243 2.058 . S
Co237 O253 2.057 . S
Co237 O268 2.037 . S
Co237 N272 2.145 . S
Co237 N293 2.257 . S
O238 Co236 2.143 . S
O238 Co237 2.160 . S
C239 O240 1.278 . S
C239 O247 1.224 . S
O240 C239 1.278 . S
C241 O242 1.245 . S
C241 O253 1.232 . S
O242 C241 1.245 . S
O243 Co237 2.058 . S
O243 C269 1.269 . S
O244 Co236 2.074 . S
O244 C269 1.257 . S
H245 C270 0.930 . S
H246 C276 0.930 . S
O247 Co236 2.093 . S
O247 C239 1.224 . S
H248 C280 0.929 . S
H249 C282 0.930 . S
H250 C283 0.930 . S
H251 C281 0.929 . S
H252 C284 0.928 . S
O253 Co237 2.057 . S
O253 C241 1.232 . S
H254 C273 0.929 . S
H255 C274 0.929 . S
H256 C286 0.931 . S
H257 C278 0.929 . S
H258 C287 0.930 . S
H259 C279 0.931 . S
O260 Co236 2.097 . S
O260 C288 1.214 . S
H261 C289 0.929 . S
H262 C290 0.929 . S
H263 C291 0.930 . S
H264 C292 0.929 . S
H265 C294 0.930 . S
H266 C271 0.930 . S
H267 C275 0.930 . S
O268 Co237 2.037 . S
O268 C288 1.234 . S
C269 O243 1.269 . S
C269 O244 1.257 . S
C270 H245 0.930 . S
C270 C273 1.388 . S
C270 C275 1.418 . S
C271 H266 0.930 . S
C271 C274 1.404 . S
C271 C275 1.353 . S
N272 Co237 2.145 . S
N272 C273 1.397 . S
N272 C274 1.334 . S
C273 H254 0.929 . S
C273 C270 1.388 . S
C273 N272 1.397 . S
C274 H255 0.929 . S
C274 C271 1.404 . S
C274 N272 1.334 . S
C275 H267 0.930 . S
C275 C270 1.418 . S
C275 C271 1.353 . S
C276 H246 0.930 . S
C276 N277 1.330 . S
C276 C278 1.446 . S
N277 Co236 2.151 . S
N277 C276 1.330 . S
N277 C281 1.418 . S
C278 H257 0.929 . S
C278 C276 1.446 . S
C278 C279 1.332 . S
C279 H259 0.931 . S
C279 C278 1.332 . S
C279 C280 1.267 . S
C280 H248 0.929 . S
C280 C279 1.267 . S
C280 C281 1.251 . S
C281 H251 0.929 . S
C281 N277 1.418 . S
C281 C280 1.251 . S
C282 H249 0.930 . S
C282 C284 1.406 . S
C282 C287 1.261 . S
C283 H250 0.930 . S
C283 N285 1.325 . S
C283 C286 1.357 . S
C284 H252 0.928 . S
C284 C282 1.406 . S
C284 N285 1.261 . S
N285 Co236 2.214 . S
N285 C283 1.325 . S
N285 C284 1.261 . S
C286 H256 0.931 . S
C286 C283 1.357 . S
C286 C287 1.312 . S
C287 H258 0.930 . S
C287 C282 1.261 . S
C287 C286 1.312 . S
C288 O260 1.214 . S
C288 O268 1.234 . S
C289 H261 0.929 . S
C289 C292 1.391 . S
C289 C294 1.391 . S
C290 H262 0.929 . S
C290 C291 1.390 . S
C290 N293 1.391 . S
C291 H263 0.930 . S
C291 C290 1.390 . S
C291 C292 1.392 . S
C292 H264 0.929 . S
C292 C289 1.391 . S
C292 C291 1.392 . S
N293 Co237 2.257 . S
N293 C290 1.391 . S
N293 C294 1.388 . S
C294 H265 0.930 . S
C294 C289 1.391 . S
C294 N293 1.388 . S
Co295 O297 2.143 . S
Co295 O303 2.074 . S
Co295 O306 2.093 . S
Co295 O319 2.097 . S
Co295 N336 2.151 . S
Co295 N344 2.214 . S
Co296 O297 2.160 . S
Co296 O302 2.058 . S
Co296 O312 2.057 . S
Co296 O327 2.037 . S
Co296 N331 2.145 . S
Co296 N352 2.257 . S
O297 Co295 2.143 . S
O297 Co296 2.160 . S
C298 O299 1.278 . S
C298 O306 1.224 . S
O299 C298 1.278 . S
C300 O301 1.245 . S
C300 O312 1.232 . S
O301 C300 1.245 . S
O302 Co296 2.058 . S
O302 C328 1.269 . S
O303 Co295 2.074 . S
O303 C328 1.257 . S
H304 C329 0.930 . S
H305 C335 0.930 . S
O306 Co295 2.093 . S
O306 C298 1.224 . S
H307 C339 0.929 . S
H308 C341 0.930 1_455 S
H309 C342 0.930 . S
H310 C340 0.929 . S
H311 C343 0.928 . S
O312 Co296 2.057 . S
O312 C300 1.232 . S
H313 C332 0.929 . S
H314 C333 0.929 . S
H315 C345 0.931 . S
H316 C337 0.928 . S
H317 C346 0.930 . S
H318 C338 0.931 . S
O319 Co295 2.097 . S
O319 C347 1.214 . S
H320 C348 0.929 . S
H321 C349 0.929 . S
H322 C350 0.930 . S
H323 C351 0.929 . S
H324 C353 0.930 . S
H325 C330 0.930 . S
H326 C334 0.930 . S
O327 Co296 2.037 . S
O327 C347 1.234 . S
C328 O302 1.269 . S
C328 O303 1.257 . S
C329 H304 0.930 . S
C329 C332 1.388 . S
C329 C334 1.418 . S
C330 H325 0.930 . S
C330 C333 1.404 . S
C330 C334 1.353 . S
N331 Co296 2.145 . S
N331 C332 1.397 . S
N331 C333 1.334 . S
C332 H313 0.929 . S
C332 C329 1.388 . S
C332 N331 1.397 . S
C333 H314 0.929 . S
C333 C330 1.404 . S
C333 N331 1.334 . S
C334 H326 0.930 . S
C334 C329 1.418 . S
C334 C330 1.353 . S
C335 H305 0.930 . S
C335 N336 1.330 . S
C335 C337 1.448 1_655 S
N336 Co295 2.151 . S
N336 C335 1.330 . S
N336 C340 1.418 . S
C337 H316 0.928 . S
C337 C335 1.448 1_455 S
C337 C338 1.331 . S
C338 H318 0.931 . S
C338 C337 1.331 . S
C338 C339 1.267 1_455 S
C339 H307 0.929 . S
C339 C338 1.267 1_655 S
C339 C340 1.251 . S
C340 H310 0.929 . S
C340 N336 1.418 . S
C340 C339 1.251 . S
C341 H308 0.930 1_655 S
C341 C343 1.406 . S
C341 C346 1.261 . S
C342 H309 0.930 . S
C342 N344 1.325 . S
C342 C345 1.357 . S
C343 H311 0.928 . S
C343 C341 1.406 . S
C343 N344 1.261 . S
N344 Co295 2.214 . S
N344 C342 1.325 . S
N344 C343 1.261 . S
C345 H315 0.931 . S
C345 C342 1.357 . S
C345 C346 1.312 . S
C346 H317 0.930 . S
C346 C341 1.261 . S
C346 C345 1.312 . S
C347 O319 1.214 . S
C347 O327 1.234 . S
C348 H320 0.929 . S
C348 C351 1.391 . S
C348 C353 1.391 . S
C349 H321 0.929 . S
C349 C350 1.390 . S
C349 N352 1.391 . S
C350 H322 0.930 . S
C350 C349 1.390 . S
C350 C351 1.392 . S
C351 H323 0.929 . S
C351 C348 1.391 . S
C351 C350 1.392 . S
N352 Co296 2.257 . S
N352 C349 1.391 . S
N352 C353 1.388 . S
C353 H324 0.930 . S
C353 C348 1.391 . S
C353 N352 1.388 . S
Co354 O356 2.143 . S
Co354 O362 2.074 . S
Co354 O365 2.093 . S
Co354 O378 2.097 . S
Co354 N395 2.151 . S
Co354 N403 2.214 . S
Co355 O356 2.160 . S
Co355 O361 2.058 . S
Co355 O371 2.057 . S
Co355 O386 2.037 . S
Co355 N390 2.145 . S
Co355 N411 2.257 . S
O356 Co354 2.143 . S
O356 Co355 2.160 . S
C357 O358 1.278 . S
C357 O365 1.224 . S
O358 C357 1.278 . S
C359 O360 1.245 . S
C359 O371 1.232 . S
O360 C359 1.245 . S
O361 Co355 2.058 . S
O361 C387 1.269 . S
O362 Co354 2.074 . S
O362 C387 1.257 . S
H363 C388 0.930 . S
H364 C394 0.930 . S
O365 Co354 2.093 . S
O365 C357 1.224 . S
H366 C398 0.929 . S
H367 C400 0.930 1_655 S
H368 C401 0.930 . S
H369 C399 0.929 . S
H370 C402 0.928 . S
O371 Co355 2.057 . S
O371 C359 1.232 . S
H372 C391 0.929 . S
H373 C392 0.929 . S
H374 C404 0.931 . S
H375 C396 0.928 . S
H376 C405 0.930 . S
H377 C397 0.931 . S
O378 Co354 2.097 . S
O378 C406 1.214 . S
H379 C407 0.929 . S
H380 C408 0.929 . S
H381 C409 0.930 . S
H382 C410 0.929 . S
H383 C412 0.930 . S
H384 C389 0.930 . S
H385 C393 0.930 . S
O386 Co355 2.037 . S
O386 C406 1.234 . S
C387 O361 1.269 . S
C387 O362 1.257 . S
C388 H363 0.930 . S
C388 C391 1.388 . S
C388 C393 1.418 . S
C389 H384 0.930 . S
C389 C392 1.404 . S
C389 C393 1.353 . S
N390 Co355 2.145 . S
N390 C391 1.397 . S
N390 C392 1.334 . S
C391 H372 0.929 . S
C391 C388 1.388 . S
C391 N390 1.397 . S
C392 H373 0.929 . S
C392 C389 1.404 . S
C392 N390 1.334 . S
C393 H385 0.930 . S
C393 C388 1.418 . S
C393 C389 1.353 . S
C394 H364 0.930 . S
C394 N395 1.330 . S
C394 C396 1.448 1_455 S
N395 Co354 2.151 . S
N395 C394 1.330 . S
N395 C399 1.418 . S
C396 H375 0.928 . S
C396 C394 1.448 1_655 S
C396 C397 1.331 . S
C397 H377 0.931 . S
C397 C396 1.331 . S
C397 C398 1.267 1_655 S
C398 H366 0.929 . S
C398 C397 1.267 1_455 S
C398 C399 1.251 . S
C399 H369 0.929 . S
C399 N395 1.418 . S
C399 C398 1.251 . S
C400 H367 0.930 1_455 S
C400 C402 1.406 . S
C400 C405 1.261 . S
C401 H368 0.930 . S
C401 N403 1.325 . S
C401 C404 1.357 . S
C402 H370 0.928 . S
C402 C400 1.406 . S
C402 N403 1.261 . S
N403 Co354 2.214 . S
N403 C401 1.325 . S
N403 C402 1.261 . S
C404 H374 0.931 . S
C404 C401 1.357 . S
C404 C405 1.312 . S
C405 H376 0.930 . S
C405 C400 1.261 . S
C405 C404 1.312 . S
C406 O378 1.214 . S
C406 O386 1.234 . S
C407 H379 0.929 . S
C407 C410 1.391 . S
C407 C412 1.391 . S
C408 H380 0.929 . S
C408 C409 1.390 . S
C408 N411 1.391 . S
C409 H381 0.930 . S
C409 C408 1.390 . S
C409 C410 1.392 . S
C410 H382 0.929 . S
C410 C407 1.391 . S
C410 C409 1.392 . S
N411 Co355 2.257 . S
N411 C408 1.391 . S
N411 C412 1.388 . S
C412 H383 0.930 . S
C412 C407 1.391 . S
C412 N411 1.388 . S
Co413 O415 2.143 . S
Co413 O421 2.074 . S
Co413 O424 2.093 . S
Co413 O437 2.097 . S
Co413 N454 2.151 . S
Co413 N462 2.214 . S
Co414 O415 2.160 . S
Co414 O420 2.058 . S
Co414 O430 2.057 . S
Co414 O445 2.037 . S
Co414 N449 2.145 . S
Co414 N470 2.257 . S
O415 Co413 2.143 . S
O415 Co414 2.160 . S
C416 O417 1.278 . S
C416 O424 1.224 . S
O417 C416 1.278 . S
C418 O419 1.245 . S
C418 O430 1.232 . S
O419 C418 1.245 . S
O420 Co414 2.058 . S
O420 C446 1.269 . S
O421 Co413 2.074 . S
O421 C446 1.257 . S
H422 C447 0.930 . S
H423 C453 0.930 . S
O424 Co413 2.093 . S
O424 C416 1.224 . S
H425 C457 0.929 . S
H426 C459 0.930 . S
H427 C460 0.930 . S
H428 C458 0.929 . S
H429 C461 0.928 . S
O430 Co414 2.057 . S
O430 C418 1.232 . S
H431 C450 0.929 . S
H432 C451 0.929 . S
H433 C463 0.931 . S
H434 C455 0.929 . S
H435 C464 0.930 . S
H436 C456 0.931 . S
O437 Co413 2.097 . S
O437 C465 1.214 . S
H438 C466 0.929 . S
H439 C467 0.929 . S
H440 C468 0.930 . S
H441 C469 0.929 . S
H442 C471 0.930 . S
H443 C448 0.930 . S
H444 C452 0.930 . S
O445 Co414 2.037 . S
O445 C465 1.234 . S
C446 O420 1.269 . S
C446 O421 1.257 . S
C447 H422 0.930 . S
C447 C450 1.388 . S
C447 C452 1.418 . S
C448 H443 0.930 . S
C448 C451 1.404 . S
C448 C452 1.353 . S
N449 Co414 2.145 . S
N449 C450 1.397 . S
N449 C451 1.334 . S
C450 H431 0.929 . S
C450 C447 1.388 . S
C450 N449 1.397 . S
C451 H432 0.929 . S
C451 C448 1.404 . S
C451 N449 1.334 . S
C452 H444 0.930 . S
C452 C447 1.418 . S
C452 C448 1.353 . S
C453 H423 0.930 . S
C453 N454 1.330 . S
C453 C455 1.446 . S
N454 Co413 2.151 . S
N454 C453 1.330 . S
N454 C458 1.418 . S
C455 H434 0.929 . S
C455 C453 1.446 . S
C455 C456 1.332 . S
C456 H436 0.931 . S
C456 C455 1.332 . S
C456 C457 1.267 . S
C457 H425 0.929 . S
C457 C456 1.267 . S
C457 C458 1.251 . S
C458 H428 0.929 . S
C458 N454 1.418 . S
C458 C457 1.251 . S
C459 H426 0.930 . S
C459 C461 1.406 . S
C459 C464 1.261 . S
C460 H427 0.930 . S
C460 N462 1.325 . S
C460 C463 1.357 . S
C461 H429 0.928 . S
C461 C459 1.406 . S
C461 N462 1.261 . S
N462 Co413 2.214 . S
N462 C460 1.325 . S
N462 C461 1.261 . S
C463 H433 0.931 . S
C463 C460 1.357 . S
C463 C464 1.312 . S
C464 H435 0.930 . S
C464 C459 1.261 . S
C464 C463 1.312 . S
C465 O437 1.214 . S
C465 O445 1.234 . S
C466 H438 0.929 . S
C466 C469 1.391 . S
C466 C471 1.391 . S
C467 H439 0.929 . S
C467 C468 1.390 . S
C467 N470 1.391 . S
C468 H440 0.930 . S
C468 C467 1.390 . S
C468 C469 1.392 . S
C469 H441 0.929 . S
C469 C466 1.391 . S
C469 C468 1.392 . S
N470 Co414 2.257 . S
N470 C467 1.391 . S
N470 C471 1.388 . S
C471 H442 0.930 . S
C471 C466 1.391 . S
C471 N470 1.388 . S
Co472 O474 2.143 . S
Co472 O480 2.074 . S
Co472 O483 2.093 . S
Co472 O496 2.097 . S
Co472 N513 2.151 . S
Co472 N521 2.214 . S
Co473 O474 2.160 . S
Co473 O479 2.058 . S
Co473 O489 2.057 . S
Co473 O504 2.037 . S
Co473 N508 2.145 . S
Co473 N529 2.257 . S
O474 Co472 2.143 . S
O474 Co473 2.160 . S
C475 O476 1.278 . S
C475 O483 1.224 . S
O476 C475 1.278 . S
C477 O478 1.245 . S
C477 O489 1.232 . S
O478 C477 1.245 . S
O479 Co473 2.058 . S
O479 C505 1.269 . S
O480 Co472 2.074 . S
O480 C505 1.257 . S
H481 C506 0.930 . S
H482 C512 0.930 . S
O483 Co472 2.093 . S
O483 C475 1.224 . S
H484 C516 0.929 . S
H485 C518 0.930 . S
H486 C519 0.930 . S
H487 C517 0.929 . S
H488 C520 0.928 . S
O489 Co473 2.057 . S
O489 C477 1.232 . S
H490 C509 0.929 . S
H491 C510 0.929 . S
H492 C522 0.931 . S
H493 C514 0.929 . S
H494 C523 0.930 . S
H495 C515 0.931 . S
O496 Co472 2.097 . S
O496 C524 1.214 . S
H497 C525 0.929 . S
H498 C526 0.929 . S
H499 C527 0.930 . S
H500 C528 0.929 . S
H501 C530 0.930 . S
H502 C507 0.930 . S
H503 C511 0.930 . S
O504 Co473 2.037 . S
O504 C524 1.234 . S
C505 O479 1.269 . S
C505 O480 1.257 . S
C506 H481 0.930 . S
C506 C509 1.388 . S
C506 C511 1.418 . S
C507 H502 0.930 . S
C507 C510 1.404 . S
C507 C511 1.353 . S
N508 Co473 2.145 . S
N508 C509 1.397 . S
N508 C510 1.334 . S
C509 H490 0.929 . S
C509 C506 1.388 . S
C509 N508 1.397 . S
C510 H491 0.929 . S
C510 C507 1.404 . S
C510 N508 1.334 . S
C511 H503 0.930 . S
C511 C506 1.418 . S
C511 C507 1.353 . S
C512 H482 0.930 . S
C512 N513 1.330 . S
C512 C514 1.446 . S
N513 Co472 2.151 . S
N513 C512 1.330 . S
N513 C517 1.418 . S
C514 H493 0.929 . S
C514 C512 1.446 . S
C514 C515 1.332 . S
C515 H495 0.931 . S
C515 C514 1.332 . S
C515 C516 1.267 . S
C516 H484 0.929 . S
C516 C515 1.267 . S
C516 C517 1.251 . S
C517 H487 0.929 . S
C517 N513 1.418 . S
C517 C516 1.251 . S
C518 H485 0.930 . S
C518 C520 1.406 . S
C518 C523 1.261 . S
C519 H486 0.930 . S
C519 N521 1.325 . S
C519 C522 1.357 . S
C520 H488 0.928 . S
C520 C518 1.406 . S
C520 N521 1.261 . S
N521 Co472 2.214 . S
N521 C519 1.325 . S
N521 C520 1.261 . S
C522 H492 0.931 . S
C522 C519 1.357 . S
C522 C523 1.312 . S
C523 H494 0.930 . S
C523 C518 1.261 . S
C523 C522 1.312 . S
C524 O496 1.214 . S
C524 O504 1.234 . S
C525 H497 0.929 . S
C525 C528 1.391 . S
C525 C530 1.391 . S
C526 H498 0.929 . S
C526 C527 1.390 . S
C526 N529 1.391 . S
C527 H499 0.930 . S
C527 C526 1.390 . S
C527 C528 1.392 . S
C528 H500 0.929 . S
C528 C525 1.391 . S
C528 C527 1.392 . S
N529 Co473 2.257 . S
N529 C526 1.391 . S
N529 C530 1.388 . S
C530 H501 0.930 . S
C530 C525 1.391 . S
C530 N529 1.388 . S
Co531 O533 2.143 . S
Co531 O539 2.074 . S
Co531 O542 2.093 . S
Co531 O555 2.097 . S
Co531 N572 2.151 . S
Co531 N580 2.214 . S
Co532 O533 2.160 . S
Co532 O538 2.058 . S
Co532 O548 2.057 . S
Co532 O563 2.037 . S
Co532 N567 2.145 . S
Co532 N588 2.257 . S
O533 Co531 2.143 . S
O533 Co532 2.160 . S
C534 O535 1.278 . S
C534 O542 1.224 . S
O535 C534 1.278 . S
C536 O537 1.245 . S
C536 O548 1.232 . S
O537 C536 1.245 . S
O538 Co532 2.058 . S
O538 C564 1.269 . S
O539 Co531 2.074 . S
O539 C564 1.257 . S
H540 C565 0.930 . S
H541 C571 0.930 . S
O542 Co531 2.093 . S
O542 C534 1.224 . S
H543 C575 0.929 . S
H544 C577 0.930 . S
H545 C578 0.930 . S
H546 C576 0.929 . S
H547 C579 0.928 . S
O548 Co532 2.057 . S
O548 C536 1.232 . S
H549 C568 0.929 . S
H550 C569 0.929 . S
H551 C581 0.931 . S
H552 C573 0.929 . S
H553 C582 0.930 . S
H554 C574 0.931 . S
O555 Co531 2.097 . S
O555 C583 1.214 . S
H556 C584 0.929 . S
H557 C585 0.929 . S
H558 C586 0.930 . S
H559 C587 0.929 . S
H560 C589 0.930 . S
H561 C566 0.930 . S
H562 C570 0.930 . S
O563 Co532 2.037 . S
O563 C583 1.234 . S
C564 O538 1.269 . S
C564 O539 1.257 . S
C565 H540 0.930 . S
C565 C568 1.388 . S
C565 C570 1.418 . S
C566 H561 0.930 . S
C566 C569 1.404 . S
C566 C570 1.353 . S
N567 Co532 2.145 . S
N567 C568 1.397 . S
N567 C569 1.334 . S
C568 H549 0.929 . S
C568 C565 1.388 . S
C568 N567 1.397 . S
C569 H550 0.929 . S
C569 C566 1.404 . S
C569 N567 1.334 . S
C570 H562 0.930 . S
C570 C565 1.418 . S
C570 C566 1.353 . S
C571 H541 0.930 . S
C571 N572 1.330 . S
C571 C573 1.446 . S
N572 Co531 2.151 . S
N572 C571 1.330 . S
N572 C576 1.418 . S
C573 H552 0.929 . S
C573 C571 1.446 . S
C573 C574 1.332 . S
C574 H554 0.931 . S
C574 C573 1.332 . S
C574 C575 1.267 . S
C575 H543 0.929 . S
C575 C574 1.267 . S
C575 C576 1.251 . S
C576 H546 0.929 . S
C576 N572 1.418 . S
C576 C575 1.251 . S
C577 H544 0.930 . S
C577 C579 1.406 . S
C577 C582 1.261 . S
C578 H545 0.930 . S
C578 N580 1.325 . S
C578 C581 1.357 . S
C579 H547 0.928 . S
C579 C577 1.406 . S
C579 N580 1.261 . S
N580 Co531 2.214 . S
N580 C578 1.325 . S
N580 C579 1.261 . S
C581 H551 0.931 . S
C581 C578 1.357 . S
C581 C582 1.312 . S
C582 H553 0.930 . S
C582 C577 1.261 . S
C582 C581 1.312 . S
C583 O555 1.214 . S
C583 O563 1.234 . S
C584 H556 0.929 . S
C584 C587 1.391 . S
C584 C589 1.391 . S
C585 H557 0.929 . S
C585 C586 1.390 . S
C585 N588 1.391 . S
C586 H558 0.930 . S
C586 C585 1.390 . S
C586 C587 1.392 . S
C587 H559 0.929 . S
C587 C584 1.391 . S
C587 C586 1.392 . S
N588 Co532 2.257 . S
N588 C585 1.391 . S
N588 C589 1.388 . S
C589 H560 0.930 . S
C589 C584 1.391 . S
C589 N588 1.388 . S
Co590 O592 2.143 . S
Co590 O598 2.074 . S
Co590 O601 2.093 . S
Co590 O614 2.097 . S
Co590 N631 2.151 . S
Co590 N639 2.214 . S
Co591 O592 2.160 . S
Co591 O597 2.058 . S
Co591 O607 2.057 . S
Co591 O622 2.037 . S
Co591 N626 2.145 . S
Co591 N647 2.257 . S
O592 Co590 2.143 . S
O592 Co591 2.160 . S
C593 O594 1.278 . S
C593 O601 1.224 . S
O594 C593 1.278 . S
C595 O596 1.245 . S
C595 O607 1.232 . S
O596 C595 1.245 . S
O597 Co591 2.058 . S
O597 C623 1.269 . S
O598 Co590 2.074 . S
O598 C623 1.257 . S
H599 C624 0.930 . S
H600 C630 0.930 . S
O601 Co590 2.093 . S
O601 C593 1.224 . S
H602 C634 0.929 . S
H603 C636 0.930 . S
H604 C637 0.930 . S
H605 C635 0.929 . S
H606 C638 0.928 . S
O607 Co591 2.057 . S
O607 C595 1.232 . S
H608 C627 0.929 . S
H609 C628 0.929 . S
H610 C640 0.931 . S
H611 C632 0.929 . S
H612 C641 0.930 . S
H613 C633 0.931 . S
O614 Co590 2.097 . S
O614 C642 1.214 . S
H615 C643 0.929 . S
H616 C644 0.929 . S
H617 C645 0.930 . S
H618 C646 0.929 . S
H619 C648 0.930 . S
H620 C625 0.930 . S
H621 C629 0.930 . S
O622 Co591 2.037 . S
O622 C642 1.234 . S
C623 O597 1.269 . S
C623 O598 1.257 . S
C624 H599 0.930 . S
C624 C627 1.388 . S
C624 C629 1.418 . S
C625 H620 0.930 . S
C625 C628 1.404 . S
C625 C629 1.353 . S
N626 Co591 2.145 . S
N626 C627 1.397 . S
N626 C628 1.334 . S
C627 H608 0.929 . S
C627 C624 1.388 . S
C627 N626 1.397 . S
C628 H609 0.929 . S
C628 C625 1.404 . S
C628 N626 1.334 . S
C629 H621 0.930 . S
C629 C624 1.418 . S
C629 C625 1.353 . S
C630 H600 0.930 . S
C630 N631 1.330 . S
C630 C632 1.446 . S
N631 Co590 2.151 . S
N631 C630 1.330 . S
N631 C635 1.418 . S
C632 H611 0.929 . S
C632 C630 1.446 . S
C632 C633 1.332 . S
C633 H613 0.931 . S
C633 C632 1.332 . S
C633 C634 1.267 . S
C634 H602 0.929 . S
C634 C633 1.267 . S
C634 C635 1.251 . S
C635 H605 0.929 . S
C635 N631 1.418 . S
C635 C634 1.251 . S
C636 H603 0.930 . S
C636 C638 1.406 . S
C636 C641 1.261 . S
C637 H604 0.930 . S
C637 N639 1.325 . S
C637 C640 1.357 . S
C638 H606 0.928 . S
C638 C636 1.406 . S
C638 N639 1.261 . S
N639 Co590 2.214 . S
N639 C637 1.325 . S
N639 C638 1.261 . S
C640 H610 0.931 . S
C640 C637 1.357 . S
C640 C641 1.312 . S
C641 H612 0.930 . S
C641 C636 1.261 . S
C641 C640 1.312 . S
C642 O614 1.214 . S
C642 O622 1.234 . S
C643 H615 0.929 . S
C643 C646 1.391 . S
C643 C648 1.391 . S
C644 H616 0.929 . S
C644 C645 1.390 . S
C644 N647 1.391 . S
C645 H617 0.930 . S
C645 C644 1.390 . S
C645 C646 1.392 . S
C646 H618 0.929 . S
C646 C643 1.391 . S
C646 C645 1.392 . S
N647 Co591 2.257 . S
N647 C644 1.391 . S
N647 C648 1.388 . S
C648 H619 0.930 . S
C648 C643 1.391 . S
C648 N647 1.388 . S
Co649 O651 2.143 . S
Co649 O657 2.074 . S
Co649 O660 2.093 . S
Co649 O673 2.097 . S
Co649 N690 2.151 . S
Co649 N698 2.214 . S
Co650 O651 2.160 . S
Co650 O656 2.058 . S
Co650 O666 2.057 . S
Co650 O681 2.037 . S
Co650 N685 2.145 . S
Co650 N706 2.257 . S
O651 Co649 2.143 . S
O651 Co650 2.160 . S
C652 O653 1.278 . S
C652 O660 1.224 . S
O653 C652 1.278 . S
C654 O655 1.245 . S
C654 O666 1.232 . S
O655 C654 1.245 . S
O656 Co650 2.058 . S
O656 C682 1.269 . S
O657 Co649 2.074 . S
O657 C682 1.257 . S
H658 C683 0.930 . S
H659 C689 0.930 . S
O660 Co649 2.093 . S
O660 C652 1.224 . S
H661 C693 0.929 . S
H662 C695 0.930 . S
H663 C696 0.930 . S
H664 C694 0.929 . S
H665 C697 0.928 . S
O666 Co650 2.057 . S
O666 C654 1.232 . S
H667 C686 0.929 . S
H668 C687 0.929 . S
H669 C699 0.931 . S
H670 C691 0.929 . S
H671 C700 0.930 . S
H672 C692 0.931 . S
O673 Co649 2.097 . S
O673 C701 1.214 . S
H674 C702 0.929 . S
H675 C703 0.929 . S
H676 C704 0.930 . S
H677 C705 0.929 . S
H678 C707 0.930 . S
H679 C684 0.930 . S
H680 C688 0.930 . S
O681 Co650 2.037 . S
O681 C701 1.234 . S
C682 O656 1.269 . S
C682 O657 1.257 . S
C683 H658 0.930 . S
C683 C686 1.388 . S
C683 C688 1.418 . S
C684 H679 0.930 . S
C684 C687 1.404 . S
C684 C688 1.353 . S
N685 Co650 2.145 . S
N685 C686 1.397 . S
N685 C687 1.334 . S
C686 H667 0.929 . S
C686 C683 1.388 . S
C686 N685 1.397 . S
C687 H668 0.929 . S
C687 C684 1.404 . S
C687 N685 1.334 . S
C688 H680 0.930 . S
C688 C683 1.418 . S
C688 C684 1.353 . S
C689 H659 0.930 . S
C689 N690 1.330 . S
C689 C691 1.446 . S
N690 Co649 2.151 . S
N690 C689 1.330 . S
N690 C694 1.418 . S
C691 H670 0.929 . S
C691 C689 1.446 . S
C691 C692 1.332 . S
C692 H672 0.931 . S
C692 C691 1.332 . S
C692 C693 1.267 . S
C693 H661 0.929 . S
C693 C692 1.267 . S
C693 C694 1.251 . S
C694 H664 0.929 . S
C694 N690 1.418 . S
C694 C693 1.251 . S
C695 H662 0.930 . S
C695 C697 1.406 . S
C695 C700 1.261 . S
C696 H663 0.930 . S
C696 N698 1.325 . S
C696 C699 1.357 . S
C697 H665 0.928 . S
C697 C695 1.406 . S
C697 N698 1.261 . S
N698 Co649 2.214 . S
N698 C696 1.325 . S
N698 C697 1.261 . S
C699 H669 0.931 . S
C699 C696 1.357 . S
C699 C700 1.312 . S
C700 H671 0.930 . S
C700 C695 1.261 . S
C700 C699 1.312 . S
C701 O673 1.214 . S
C701 O681 1.234 . S
C702 H674 0.929 . S
C702 C705 1.391 . S
C702 C707 1.391 . S
C703 H675 0.929 . S
C703 C704 1.390 . S
C703 N706 1.391 . S
C704 H676 0.930 . S
C704 C703 1.390 . S
C704 C705 1.392 . S
C705 H677 0.929 . S
C705 C702 1.391 . S
C705 C704 1.392 . S
N706 Co650 2.257 . S
N706 C703 1.391 . S
N706 C707 1.388 . S
C707 H678 0.930 . S
C707 C702 1.391 . S
C707 N706 1.388 . S
Co708 O710 2.143 . S
Co708 O716 2.074 . S
Co708 O719 2.093 . S
Co708 O732 2.097 . S
Co708 N749 2.151 . S
Co708 N757 2.214 . S
Co709 O710 2.160 . S
Co709 O715 2.058 . S
Co709 O725 2.057 . S
Co709 O740 2.037 . S
Co709 N744 2.145 . S
Co709 N765 2.257 . S
O710 Co708 2.143 . S
O710 Co709 2.160 . S
C711 O712 1.278 . S
C711 O719 1.224 . S
O712 C711 1.278 . S
C713 O714 1.245 . S
C713 O725 1.232 . S
O714 C713 1.245 . S
O715 Co709 2.058 . S
O715 C741 1.269 . S
O716 Co708 2.074 . S
O716 C741 1.257 . S
H717 C742 0.930 . S
H718 C748 0.930 . S
O719 Co708 2.093 . S
O719 C711 1.224 . S
H720 C752 0.929 . S
H721 C754 0.930 . S
H722 C755 0.930 . S
H723 C753 0.929 . S
H724 C756 0.928 . S
O725 Co709 2.057 . S
O725 C713 1.232 . S
H726 C745 0.929 . S
H727 C746 0.929 . S
H728 C758 0.931 . S
H729 C750 0.929 . S
H730 C759 0.930 . S
H731 C751 0.931 . S
O732 Co708 2.097 . S
O732 C760 1.214 . S
H733 C761 0.929 . S
H734 C762 0.929 . S
H735 C763 0.930 . S
H736 C764 0.929 . S
H737 C766 0.930 . S
H738 C743 0.930 . S
H739 C747 0.930 . S
O740 Co709 2.037 . S
O740 C760 1.234 . S
C741 O715 1.269 . S
C741 O716 1.257 . S
C742 H717 0.930 . S
C742 C745 1.388 . S
C742 C747 1.418 . S
C743 H738 0.930 . S
C743 C746 1.404 . S
C743 C747 1.353 . S
N744 Co709 2.145 . S
N744 C745 1.397 . S
N744 C746 1.334 . S
C745 H726 0.929 . S
C745 C742 1.388 . S
C745 N744 1.397 . S
C746 H727 0.929 . S
C746 C743 1.404 . S
C746 N744 1.334 . S
C747 H739 0.930 . S
C747 C742 1.418 . S
C747 C743 1.353 . S
C748 H718 0.930 . S
C748 N749 1.330 . S
C748 C750 1.446 . S
N749 Co708 2.151 . S
N749 C748 1.330 . S
N749 C753 1.418 . S
C750 H729 0.929 . S
C750 C748 1.446 . S
C750 C751 1.332 . S
C751 H731 0.931 . S
C751 C750 1.332 . S
C751 C752 1.267 . S
C752 H720 0.929 . S
C752 C751 1.267 . S
C752 C753 1.251 . S
C753 H723 0.929 . S
C753 N749 1.418 . S
C753 C752 1.251 . S
C754 H721 0.930 . S
C754 C756 1.406 . S
C754 C759 1.261 . S
C755 H722 0.930 . S
C755 N757 1.325 . S
C755 C758 1.357 . S
C756 H724 0.928 . S
C756 C754 1.406 . S
C756 N757 1.261 . S
N757 Co708 2.214 . S
N757 C755 1.325 . S
N757 C756 1.261 . S
C758 H728 0.931 . S
C758 C755 1.357 . S
C758 C759 1.312 . S
C759 H730 0.930 . S
C759 C754 1.261 . S
C759 C758 1.312 . S
C760 O732 1.214 . S
C760 O740 1.234 . S
C761 H733 0.929 . S
C761 C764 1.391 . S
C761 C766 1.391 . S
C762 H734 0.929 . S
C762 C763 1.390 . S
C762 N765 1.391 . S
C763 H735 0.930 . S
C763 C762 1.390 . S
C763 C764 1.392 . S
C764 H736 0.929 . S
C764 C761 1.391 . S
C764 C763 1.392 . S
N765 Co709 2.257 . S
N765 C762 1.391 . S
N765 C766 1.388 . S
C766 H737 0.930 . S
C766 C761 1.391 . S
C766 N765 1.388 . S
Co767 O769 2.143 . S
Co767 O775 2.074 . S
Co767 O778 2.093 . S
Co767 O791 2.097 . S
Co767 N808 2.151 . S
Co767 N816 2.214 . S
Co768 O769 2.160 . S
Co768 O774 2.058 . S
Co768 O784 2.057 . S
Co768 O799 2.037 . S
Co768 N803 2.145 . S
Co768 N824 2.257 . S
O769 Co767 2.143 . S
O769 Co768 2.160 . S
C770 O771 1.278 . S
C770 O778 1.224 . S
O771 C770 1.278 . S
C772 O773 1.245 . S
C772 O784 1.232 . S
O773 C772 1.245 . S
O774 Co768 2.058 . S
O774 C800 1.269 . S
O775 Co767 2.074 . S
O775 C800 1.257 . S
H776 C801 0.930 . S
H777 C807 0.930 . S
O778 Co767 2.093 . S
O778 C770 1.224 . S
H779 C811 0.929 . S
H780 C813 0.930 . S
H781 C814 0.930 . S
H782 C812 0.929 . S
H783 C815 0.928 . S
O784 Co768 2.057 . S
O784 C772 1.232 . S
H785 C804 0.929 . S
H786 C805 0.929 . S
H787 C817 0.931 . S
H788 C809 0.929 . S
H789 C818 0.930 . S
H790 C810 0.931 . S
O791 Co767 2.097 . S
O791 C819 1.214 . S
H792 C820 0.929 . S
H793 C821 0.929 . S
H794 C822 0.930 . S
H795 C823 0.929 . S
H796 C825 0.930 . S
H797 C802 0.930 . S
H798 C806 0.930 . S
O799 Co768 2.037 . S
O799 C819 1.234 . S
C800 O774 1.269 . S
C800 O775 1.257 . S
C801 H776 0.930 . S
C801 C804 1.388 . S
C801 C806 1.418 . S
C802 H797 0.930 . S
C802 C805 1.404 . S
C802 C806 1.353 . S
N803 Co768 2.145 . S
N803 C804 1.397 . S
N803 C805 1.334 . S
C804 H785 0.929 . S
C804 C801 1.388 . S
C804 N803 1.397 . S
C805 H786 0.929 . S
C805 C802 1.404 . S
C805 N803 1.334 . S
C806 H798 0.930 . S
C806 C801 1.418 . S
C806 C802 1.353 . S
C807 H777 0.930 . S
C807 N808 1.330 . S
C807 C809 1.446 . S
N808 Co767 2.151 . S
N808 C807 1.330 . S
N808 C812 1.418 . S
C809 H788 0.929 . S
C809 C807 1.446 . S
C809 C810 1.332 . S
C810 H790 0.931 . S
C810 C809 1.332 . S
C810 C811 1.267 . S
C811 H779 0.929 . S
C811 C810 1.267 . S
C811 C812 1.251 . S
C812 H782 0.929 . S
C812 N808 1.418 . S
C812 C811 1.251 . S
C813 H780 0.930 . S
C813 C815 1.406 . S
C813 C818 1.261 . S
C814 H781 0.930 . S
C814 N816 1.325 . S
C814 C817 1.357 . S
C815 H783 0.928 . S
C815 C813 1.406 . S
C815 N816 1.261 . S
N816 Co767 2.214 . S
N816 C814 1.325 . S
N816 C815 1.261 . S
C817 H787 0.931 . S
C817 C814 1.357 . S
C817 C818 1.312 . S
C818 H789 0.930 . S
C818 C813 1.261 . S
C818 C817 1.312 . S
C819 O791 1.214 . S
C819 O799 1.234 . S
C820 H792 0.929 . S
C820 C823 1.391 . S
C820 C825 1.391 . S
C821 H793 0.929 . S
C821 C822 1.390 . S
C821 N824 1.391 . S
C822 H794 0.930 . S
C822 C821 1.390 . S
C822 C823 1.392 . S
C823 H795 0.929 . S
C823 C820 1.391 . S
C823 C822 1.392 . S
N824 Co768 2.257 . S
N824 C821 1.391 . S
N824 C825 1.388 . S
C825 H796 0.930 . S
C825 C820 1.391 . S
C825 N824 1.388 . S
Co826 O828 2.143 . S
Co826 O834 2.074 . S
Co826 O837 2.093 . S
Co826 O850 2.097 . S
Co826 N867 2.151 . S
Co826 N875 2.214 . S
Co827 O828 2.160 . S
Co827 O833 2.058 . S
Co827 O843 2.057 . S
Co827 O858 2.037 . S
Co827 N862 2.145 . S
Co827 N883 2.257 . S
O828 Co826 2.143 . S
O828 Co827 2.160 . S
C829 O830 1.278 . S
C829 O837 1.224 . S
O830 C829 1.278 . S
C831 O832 1.245 . S
C831 O843 1.232 . S
O832 C831 1.245 . S
O833 Co827 2.058 . S
O833 C859 1.269 . S
O834 Co826 2.074 . S
O834 C859 1.257 . S
H835 C860 0.930 . S
H836 C866 0.930 . S
O837 Co826 2.093 . S
O837 C829 1.224 . S
H838 C870 0.929 . S
H839 C872 0.930 . S
H840 C873 0.930 . S
H841 C871 0.929 . S
H842 C874 0.928 . S
O843 Co827 2.057 . S
O843 C831 1.232 . S
H844 C863 0.929 . S
H845 C864 0.929 . S
H846 C876 0.931 . S
H847 C868 0.929 . S
H848 C877 0.930 . S
H849 C869 0.931 . S
O850 Co826 2.097 . S
O850 C878 1.214 . S
H851 C879 0.929 . S
H852 C880 0.929 . S
H853 C881 0.930 . S
H854 C882 0.929 . S
H855 C884 0.930 . S
H856 C861 0.930 . S
H857 C865 0.930 . S
O858 Co827 2.037 . S
O858 C878 1.234 . S
C859 O833 1.269 . S
C859 O834 1.257 . S
C860 H835 0.930 . S
C860 C863 1.388 . S
C860 C865 1.418 . S
C861 H856 0.930 . S
C861 C864 1.404 . S
C861 C865 1.353 . S
N862 Co827 2.145 . S
N862 C863 1.397 . S
N862 C864 1.334 . S
C863 H844 0.929 . S
C863 C860 1.388 . S
C863 N862 1.397 . S
C864 H845 0.929 . S
C864 C861 1.404 . S
C864 N862 1.334 . S
C865 H857 0.930 . S
C865 C860 1.418 . S
C865 C861 1.353 . S
C866 H836 0.930 . S
C866 N867 1.330 . S
C866 C868 1.446 . S
N867 Co826 2.151 . S
N867 C866 1.330 . S
N867 C871 1.418 . S
C868 H847 0.929 . S
C868 C866 1.446 . S
C868 C869 1.332 . S
C869 H849 0.931 . S
C869 C868 1.332 . S
C869 C870 1.267 . S
C870 H838 0.929 . S
C870 C869 1.267 . S
C870 C871 1.251 . S
C871 H841 0.929 . S
C871 N867 1.418 . S
C871 C870 1.251 . S
C872 H839 0.930 . S
C872 C874 1.406 . S
C872 C877 1.261 . S
C873 H840 0.930 . S
C873 N875 1.325 . S
C873 C876 1.357 . S
C874 H842 0.928 . S
C874 C872 1.406 . S
C874 N875 1.261 . S
N875 Co826 2.214 . S
N875 C873 1.325 . S
N875 C874 1.261 . S
C876 H846 0.931 . S
C876 C873 1.357 . S
C876 C877 1.312 . S
C877 H848 0.930 . S
C877 C872 1.261 . S
C877 C876 1.312 . S
C878 O850 1.214 . S
C878 O858 1.234 . S
C879 H851 0.929 . S
C879 C882 1.391 . S
C879 C884 1.391 . S
C880 H852 0.929 . S
C880 C881 1.390 . S
C880 N883 1.391 . S
C881 H853 0.930 . S
C881 C880 1.390 . S
C881 C882 1.392 . S
C882 H854 0.929 . S
C882 C879 1.391 . S
C882 C881 1.392 . S
N883 Co827 2.257 . S
N883 C880 1.391 . S
N883 C884 1.388 . S
C884 H855 0.930 . S
C884 C879 1.391 . S
C884 N883 1.388 . S
Co885 O887 2.143 . S
Co885 O893 2.074 . S
Co885 O896 2.093 . S
Co885 O909 2.097 . S
Co885 N926 2.151 . S
Co885 N934 2.214 . S
Co886 O887 2.160 . S
Co886 O892 2.058 . S
Co886 O902 2.057 . S
Co886 O917 2.037 . S
Co886 N921 2.145 . S
Co886 N942 2.257 . S
O887 Co885 2.143 . S
O887 Co886 2.160 . S
C888 O889 1.278 . S
C888 O896 1.224 . S
O889 C888 1.278 . S
C890 O891 1.245 . S
C890 O902 1.232 . S
O891 C890 1.245 . S
O892 Co886 2.058 . S
O892 C918 1.269 . S
O893 Co885 2.074 . S
O893 C918 1.257 . S
H894 C919 0.930 . S
H895 C925 0.930 . S
O896 Co885 2.093 . S
O896 C888 1.224 . S
H897 C929 0.929 . S
H898 C931 0.930 . S
H899 C932 0.930 . S
H900 C930 0.929 . S
H901 C933 0.928 . S
O902 Co886 2.057 . S
O902 C890 1.232 . S
H903 C922 0.929 . S
H904 C923 0.929 . S
H905 C935 0.931 . S
H906 C927 0.929 . S
H907 C936 0.930 . S
H908 C928 0.931 . S
O909 Co885 2.097 . S
O909 C937 1.214 . S
H910 C938 0.929 . S
H911 C939 0.929 . S
H912 C940 0.930 . S
H913 C941 0.929 . S
H914 C943 0.930 . S
H915 C920 0.930 . S
H916 C924 0.930 . S
O917 Co886 2.037 . S
O917 C937 1.234 . S
C918 O892 1.269 . S
C918 O893 1.257 . S
C919 H894 0.930 . S
C919 C922 1.388 . S
C919 C924 1.418 . S
C920 H915 0.930 . S
C920 C923 1.404 . S
C920 C924 1.353 . S
N921 Co886 2.145 . S
N921 C922 1.397 . S
N921 C923 1.334 . S
C922 H903 0.929 . S
C922 C919 1.388 . S
C922 N921 1.397 . S
C923 H904 0.929 . S
C923 C920 1.404 . S
C923 N921 1.334 . S
C924 H916 0.930 . S
C924 C919 1.418 . S
C924 C920 1.353 . S
C925 H895 0.930 . S
C925 N926 1.330 . S
C925 C927 1.446 . S
N926 Co885 2.151 . S
N926 C925 1.330 . S
N926 C930 1.418 . S
C927 H906 0.929 . S
C927 C925 1.446 . S
C927 C928 1.332 . S
C928 H908 0.931 . S
C928 C927 1.332 . S
C928 C929 1.267 . S
C929 H897 0.929 . S
C929 C928 1.267 . S
C929 C930 1.251 . S
C930 H900 0.929 . S
C930 N926 1.418 . S
C930 C929 1.251 . S
C931 H898 0.930 . S
C931 C933 1.406 . S
C931 C936 1.261 . S
C932 H899 0.930 . S
C932 N934 1.325 . S
C932 C935 1.357 . S
C933 H901 0.928 . S
C933 C931 1.406 . S
C933 N934 1.261 . S
N934 Co885 2.214 . S
N934 C932 1.325 . S
N934 C933 1.261 . S
C935 H905 0.931 . S
C935 C932 1.357 . S
C935 C936 1.312 . S
C936 H907 0.930 . S
C936 C931 1.261 . S
C936 C935 1.312 . S
C937 O909 1.214 . S
C937 O917 1.234 . S
C938 H910 0.929 . S
C938 C941 1.391 . S
C938 C943 1.391 . S
C939 H911 0.929 . S
C939 C940 1.390 . S
C939 N942 1.391 . S
C940 H912 0.930 . S
C940 C939 1.390 . S
C940 C941 1.392 . S
C941 H913 0.929 . S
C941 C938 1.391 . S
C941 C940 1.392 . S
N942 Co886 2.257 . S
N942 C939 1.391 . S
N942 C943 1.388 . S
C943 H914 0.930 . S
C943 C938 1.391 . S
C943 N942 1.388 . S
C944 C945 1.391 . S
C944 C946 1.394 . S
C944 H960 0.931 . S
C945 C944 1.391 . S
C945 C949 1.376 . S
C946 C944 1.394 . S
C946 C947 1.369 . S
C946 C950 1.531 . S
C947 C946 1.369 . S
C947 C948 1.410 . S
C947 C955 1.503 . S
C948 C947 1.410 . S
C948 C949 1.392 . S
C948 C951 1.511 . S
C949 C945 1.376 . S
C949 C948 1.392 . S
C949 H961 0.929 . S
C950 C946 1.531 . S
C950 H962 0.960 . S
C950 H963 0.962 . S
C950 H964 0.960 . S
C951 C948 1.511 . S
C951 H965 0.961 . S
C951 H966 0.961 . S
C951 H967 0.961 . S
C952 C953 1.370 . S
C952 C954 1.363 . S
C952 H968 0.931 . S
C953 C952 1.370 . S
C953 C957 1.408 . S
C954 C952 1.363 . S
C954 C955 1.370 . S
C954 C958 1.524 . S
C955 C947 1.503 . S
C955 C954 1.370 . S
C955 C956 1.403 . S
C956 C955 1.403 . S
C956 C957 1.404 . S
C956 C959 1.539 . S
C957 C953 1.408 . S
C957 C956 1.404 . S
C957 H969 0.930 . S
C958 C954 1.524 . S
C958 H970 0.956 . S
C958 H971 0.961 . S
C958 H972 0.961 . S
C959 C956 1.539 . S
C959 H973 0.958 . S
C959 H974 0.961 . S
C959 H975 0.960 . S
H960 C944 0.931 . S
H961 C949 0.929 . S
H962 C950 0.960 . S
H963 C950 0.962 . S
H964 C950 0.960 . S
H965 C951 0.961 . S
H966 C951 0.961 . S
H967 C951 0.961 . S
H968 C952 0.931 . S
H969 C957 0.930 . S
H970 C958 0.956 . S
H971 C958 0.961 . S
H972 C958 0.961 . S
H973 C959 0.958 . S
H974 C959 0.961 . S
H975 C959 0.960 . S
C976 C977 1.391 . S
C976 C978 1.394 . S
C976 H992 0.931 . S
C977 C976 1.391 . S
C977 C981 1.376 . S
C978 C976 1.394 . S
C978 C979 1.369 . S
C978 C982 1.531 . S
C979 C978 1.369 . S
C979 C980 1.410 . S
C979 C987 1.503 . S
C980 C979 1.410 . S
C980 C981 1.392 . S
C980 C983 1.511 . S
C981 C977 1.376 . S
C981 C980 1.392 . S
C981 H993 0.929 . S
C982 C978 1.531 . S
C982 H994 0.960 . S
C982 H995 0.962 . S
C982 H996 0.960 . S
C983 C980 1.511 . S
C983 H997 0.961 . S
C983 H998 0.961 . S
C983 H999 0.961 . S
C984 C985 1.370 . S
C984 C986 1.363 . S
C984 H1000 0.931 . S
C985 C984 1.370 . S
C985 C989 1.408 . S
C986 C984 1.363 . S
C986 C987 1.370 . S
C986 C990 1.524 . S
C987 C979 1.503 . S
C987 C986 1.370 . S
C987 C988 1.403 . S
C988 C987 1.403 . S
C988 C989 1.404 . S
C988 C991 1.539 . S
C989 C985 1.408 . S
C989 C988 1.404 . S
C989 H1001 0.930 . S
C990 C986 1.524 . S
C990 H1002 0.956 . S
C990 H1003 0.961 . S
C990 H1004 0.961 . S
C991 C988 1.539 . S
C991 H1005 0.958 . S
C991 H1006 0.961 . S
C991 H1007 0.960 . S
H992 C976 0.931 . S
H993 C981 0.929 . S
H994 C982 0.960 . S
H995 C982 0.962 . S
H996 C982 0.960 . S
H997 C983 0.961 . S
H998 C983 0.961 . S
H999 C983 0.961 . S
H1000 C984 0.931 . S
H1001 C989 0.930 . S
H1002 C990 0.956 . S
H1003 C990 0.961 . S
H1004 C990 0.961 . S
H1005 C991 0.958 . S
H1006 C991 0.961 . S
H1007 C991 0.960 . S
C1008 C1009 1.391 . S
C1008 C1010 1.394 . S
C1008 H1024 0.931 . S
C1009 C1008 1.391 . S
C1009 C1013 1.376 . S
C1010 C1008 1.394 . S
C1010 C1011 1.369 . S
C1010 C1014 1.531 . S
C1011 C1010 1.369 . S
C1011 C1012 1.410 . S
C1011 C1019 1.503 . S
C1012 C1011 1.410 . S
C1012 C1013 1.392 . S
C1012 C1015 1.511 . S
C1013 C1009 1.376 . S
C1013 C1012 1.392 . S
C1013 H1025 0.929 . S
C1014 C1010 1.531 . S
C1014 H1026 0.960 . S
C1014 H1027 0.962 . S
C1014 H1028 0.960 . S
C1015 C1012 1.511 . S
C1015 H1029 0.961 . S
C1015 H1030 0.961 . S
C1015 H1031 0.961 . S
C1016 C1017 1.370 . S
C1016 C1018 1.363 . S
C1016 H1032 0.931 . S
C1017 C1016 1.370 . S
C1017 C1021 1.408 . S
C1018 C1016 1.363 . S
C1018 C1019 1.370 . S
C1018 C1022 1.524 . S
C1019 C1011 1.503 . S
C1019 C1018 1.370 . S
C1019 C1020 1.403 . S
C1020 C1019 1.403 . S
C1020 C1021 1.404 . S
C1020 C1023 1.539 . S
C1021 C1017 1.408 . S
C1021 C1020 1.404 . S
C1021 H1033 0.930 . S
C1022 C1018 1.524 . S
C1022 H1034 0.956 . S
C1022 H1035 0.961 . S
C1022 H1036 0.961 . S
C1023 C1020 1.539 . S
C1023 H1037 0.958 . S
C1023 H1038 0.961 . S
C1023 H1039 0.960 . S
H1024 C1008 0.931 . S
H1025 C1013 0.929 . S
H1026 C1014 0.960 . S
H1027 C1014 0.962 . S
H1028 C1014 0.960 . S
H1029 C1015 0.961 . S
H1030 C1015 0.961 . S
H1031 C1015 0.961 . S
H1032 C1016 0.931 . S
H1033 C1021 0.930 . S
H1034 C1022 0.956 . S
H1035 C1022 0.961 . S
H1036 C1022 0.961 . S
H1037 C1023 0.958 . S
H1038 C1023 0.961 . S
H1039 C1023 0.960 . S
C1040 C1041 1.391 . S
C1040 C1042 1.394 . S
C1040 H1056 0.931 . S
C1041 C1040 1.391 . S
C1041 C1045 1.376 . S
C1042 C1040 1.394 . S
C1042 C1043 1.369 . S
C1042 C1046 1.531 . S
C1043 C1042 1.369 . S
C1043 C1044 1.410 . S
C1043 C1051 1.503 . S
C1044 C1043 1.410 . S
C1044 C1045 1.392 . S
C1044 C1047 1.511 . S
C1045 C1041 1.376 . S
C1045 C1044 1.392 . S
C1045 H1057 0.929 . S
C1046 C1042 1.531 . S
C1046 H1058 0.960 . S
C1046 H1059 0.962 . S
C1046 H1060 0.960 . S
C1047 C1044 1.511 . S
C1047 H1061 0.961 . S
C1047 H1062 0.961 . S
C1047 H1063 0.961 . S
C1048 C1049 1.370 . S
C1048 C1050 1.363 . S
C1048 H1064 0.931 . S
C1049 C1048 1.370 . S
C1049 C1053 1.408 . S
C1050 C1048 1.363 . S
C1050 C1051 1.370 . S
C1050 C1054 1.524 . S
C1051 C1043 1.503 . S
C1051 C1050 1.370 . S
C1051 C1052 1.403 . S
C1052 C1051 1.403 . S
C1052 C1053 1.404 . S
C1052 C1055 1.539 . S
C1053 C1049 1.408 . S
C1053 C1052 1.404 . S
C1053 H1065 0.930 . S
C1054 C1050 1.524 . S
C1054 H1066 0.956 . S
C1054 H1067 0.961 . S
C1054 H1068 0.961 . S
C1055 C1052 1.539 . S
C1055 H1069 0.958 . S
C1055 H1070 0.961 . S
C1055 H1071 0.960 . S
H1056 C1040 0.931 . S
H1057 C1045 0.929 . S
H1058 C1046 0.960 . S
H1059 C1046 0.962 . S
H1060 C1046 0.960 . S
H1061 C1047 0.961 . S
H1062 C1047 0.961 . S
H1063 C1047 0.961 . S
H1064 C1048 0.931 . S
H1065 C1053 0.930 . S
H1066 C1054 0.956 . S
H1067 C1054 0.961 . S
H1068 C1054 0.961 . S
H1069 C1055 0.958 . S
H1070 C1055 0.961 . S
H1071 C1055 0.960 . S
C1072 C1073 1.391 . S
C1072 C1074 1.394 . S
C1072 H1088 0.931 . S
C1073 C1072 1.391 . S
C1073 C1077 1.376 . S
C1074 C1072 1.394 . S
C1074 C1075 1.369 . S
C1074 C1078 1.531 . S
C1075 C1074 1.369 . S
C1075 C1076 1.410 . S
C1075 C1083 1.503 . S
C1076 C1075 1.410 . S
C1076 C1077 1.392 . S
C1076 C1079 1.511 . S
C1077 C1073 1.376 . S
C1077 C1076 1.392 . S
C1077 H1089 0.929 . S
C1078 C1074 1.531 . S
C1078 H1090 0.960 . S
C1078 H1091 0.962 . S
C1078 H1092 0.960 . S
C1079 C1076 1.511 . S
C1079 H1093 0.961 . S
C1079 H1094 0.961 . S
C1079 H1095 0.961 . S
C1080 C1081 1.370 . S
C1080 C1082 1.363 . S
C1080 H1096 0.931 . S
C1081 C1080 1.370 . S
C1081 C1085 1.408 . S
C1082 C1080 1.363 . S
C1082 C1083 1.370 . S
C1082 C1086 1.524 . S
C1083 C1075 1.503 . S
C1083 C1082 1.370 . S
C1083 C1084 1.403 . S
C1084 C1083 1.403 . S
C1084 C1085 1.404 . S
C1084 C1087 1.539 . S
C1085 C1081 1.408 . S
C1085 C1084 1.404 . S
C1085 H1097 0.930 . S
C1086 C1082 1.524 . S
C1086 H1098 0.956 . S
C1086 H1099 0.961 . S
C1086 H1100 0.961 . S
C1087 C1084 1.539 . S
C1087 H1101 0.958 . S
C1087 H1102 0.961 . S
C1087 H1103 0.960 . S
H1088 C1072 0.931 . S
H1089 C1077 0.929 . S
H1090 C1078 0.960 . S
H1091 C1078 0.962 . S
H1092 C1078 0.960 . S
H1093 C1079 0.961 . S
H1094 C1079 0.961 . S
H1095 C1079 0.961 . S
H1096 C1080 0.931 . S
H1097 C1085 0.930 . S
H1098 C1086 0.956 . S
H1099 C1086 0.961 . S
H1100 C1086 0.961 . S
H1101 C1087 0.958 . S
H1102 C1087 0.961 . S
H1103 C1087 0.960 . S
C1104 C1105 1.391 . S
C1104 C1106 1.394 . S
C1104 H1120 0.931 . S
C1105 C1104 1.391 . S
C1105 C1109 1.376 . S
C1106 C1104 1.394 . S
C1106 C1107 1.369 . S
C1106 C1110 1.531 . S
C1107 C1106 1.369 . S
C1107 C1108 1.410 . S
C1107 C1115 1.503 . S
C1108 C1107 1.410 . S
C1108 C1109 1.392 . S
C1108 C1111 1.511 . S
C1109 C1105 1.376 . S
C1109 C1108 1.392 . S
C1109 H1121 0.929 . S
C1110 C1106 1.531 . S
C1110 H1122 0.960 . S
C1110 H1123 0.962 . S
C1110 H1124 0.960 . S
C1111 C1108 1.511 . S
C1111 H1125 0.961 . S
C1111 H1126 0.961 . S
C1111 H1127 0.961 . S
C1112 C1113 1.370 . S
C1112 C1114 1.363 . S
C1112 H1128 0.931 . S
C1113 C1112 1.370 . S
C1113 C1117 1.408 . S
C1114 C1112 1.363 . S
C1114 C1115 1.370 . S
C1114 C1118 1.524 . S
C1115 C1107 1.503 . S
C1115 C1114 1.370 . S
C1115 C1116 1.403 . S
C1116 C1115 1.403 . S
C1116 C1117 1.404 . S
C1116 C1119 1.539 . S
C1117 C1113 1.408 . S
C1117 C1116 1.404 . S
C1117 H1129 0.930 . S
C1118 C1114 1.524 . S
C1118 H1130 0.956 . S
C1118 H1131 0.961 . S
C1118 H1132 0.961 . S
C1119 C1116 1.539 . S
C1119 H1133 0.958 . S
C1119 H1134 0.961 . S
C1119 H1135 0.960 . S
H1120 C1104 0.931 . S
H1121 C1109 0.929 . S
H1122 C1110 0.960 . S
H1123 C1110 0.962 . S
H1124 C1110 0.960 . S
H1125 C1111 0.961 . S
H1126 C1111 0.961 . S
H1127 C1111 0.961 . S
H1128 C1112 0.931 . S
H1129 C1117 0.930 . S
H1130 C1118 0.956 . S
H1131 C1118 0.961 . S
H1132 C1118 0.961 . S
H1133 C1119 0.958 . S
H1134 C1119 0.961 . S
H1135 C1119 0.960 . S
C1136 C1137 1.391 . S
C1136 C1138 1.394 . S
C1136 H1152 0.931 . S
C1137 C1136 1.391 . S
C1137 C1141 1.376 . S
C1138 C1136 1.394 . S
C1138 C1139 1.369 . S
C1138 C1142 1.531 . S
C1139 C1138 1.369 . S
C1139 C1140 1.410 . S
C1139 C1147 1.503 . S
C1140 C1139 1.410 . S
C1140 C1141 1.392 . S
C1140 C1143 1.511 . S
C1141 C1137 1.376 . S
C1141 C1140 1.392 . S
C1141 H1153 0.929 . S
C1142 C1138 1.531 . S
C1142 H1154 0.960 . S
C1142 H1155 0.962 . S
C1142 H1156 0.960 . S
C1143 C1140 1.511 . S
C1143 H1157 0.961 . S
C1143 H1158 0.961 . S
C1143 H1159 0.961 . S
C1144 C1145 1.370 . S
C1144 C1146 1.363 . S
C1144 H1160 0.931 . S
C1145 C1144 1.370 . S
C1145 C1149 1.408 . S
C1146 C1144 1.363 . S
C1146 C1147 1.370 . S
C1146 C1150 1.524 . S
C1147 C1139 1.503 . S
C1147 C1146 1.370 . S
C1147 C1148 1.403 . S
C1148 C1147 1.403 . S
C1148 C1149 1.404 . S
C1148 C1151 1.539 . S
C1149 C1145 1.408 . S
C1149 C1148 1.404 . S
C1149 H1161 0.930 . S
C1150 C1146 1.524 . S
C1150 H1162 0.956 . S
C1150 H1163 0.961 . S
C1150 H1164 0.961 . S
C1151 C1148 1.539 . S
C1151 H1165 0.958 . S
C1151 H1166 0.961 . S
C1151 H1167 0.960 . S
H1152 C1136 0.931 . S
H1153 C1141 0.929 . S
H1154 C1142 0.960 . S
H1155 C1142 0.962 . S
H1156 C1142 0.960 . S
H1157 C1143 0.961 . S
H1158 C1143 0.961 . S
H1159 C1143 0.961 . S
H1160 C1144 0.931 . S
H1161 C1149 0.930 . S
H1162 C1150 0.956 . S
H1163 C1150 0.961 . S
H1164 C1150 0.961 . S
H1165 C1151 0.958 . S
H1166 C1151 0.961 . S
H1167 C1151 0.960 . S
C1168 C1169 1.391 . S
C1168 C1170 1.394 . S
C1168 H1184 0.931 . S
C1169 C1168 1.391 . S
C1169 C1173 1.376 . S
C1170 C1168 1.394 . S
C1170 C1171 1.369 . S
C1170 C1174 1.531 . S
C1171 C1170 1.369 . S
C1171 C1172 1.410 . S
C1171 C1179 1.503 . S
C1172 C1171 1.410 . S
C1172 C1173 1.392 . S
C1172 C1175 1.511 . S
C1173 C1169 1.376 . S
C1173 C1172 1.392 . S
C1173 H1185 0.929 . S
C1174 C1170 1.531 . S
C1174 H1186 0.960 . S
C1174 H1187 0.962 . S
C1174 H1188 0.960 . S
C1175 C1172 1.511 . S
C1175 H1189 0.961 . S
C1175 H1190 0.961 . S
C1175 H1191 0.961 . S
C1176 C1177 1.370 . S
C1176 C1178 1.363 . S
C1176 H1192 0.931 . S
C1177 C1176 1.370 . S
C1177 C1181 1.408 . S
C1178 C1176 1.363 . S
C1178 C1179 1.370 . S
C1178 C1182 1.524 . S
C1179 C1171 1.503 . S
C1179 C1178 1.370 . S
C1179 C1180 1.403 . S
C1180 C1179 1.403 . S
C1180 C1181 1.404 . S
C1180 C1183 1.539 . S
C1181 C1177 1.408 . S
C1181 C1180 1.404 . S
C1181 H1193 0.930 . S
C1182 C1178 1.524 . S
C1182 H1194 0.956 . S
C1182 H1195 0.961 . S
C1182 H1196 0.961 . S
C1183 C1180 1.539 . S
C1183 H1197 0.958 . S
C1183 H1198 0.961 . S
C1183 H1199 0.960 . S
H1184 C1168 0.931 . S
H1185 C1173 0.929 . S
H1186 C1174 0.960 . S
H1187 C1174 0.962 . S
H1188 C1174 0.960 . S
H1189 C1175 0.961 . S
H1190 C1175 0.961 . S
H1191 C1175 0.961 . S
H1192 C1176 0.931 . S
H1193 C1181 0.930 . S
H1194 C1182 0.956 . S
H1195 C1182 0.961 . S
H1196 C1182 0.961 . S
H1197 C1183 0.958 . S
H1198 C1183 0.961 . S
H1199 C1183 0.960 . S
C1200 C1201 1.391 . S
C1200 C1202 1.394 . S
C1200 H1216 0.931 . S
C1201 C1200 1.391 . S
C1201 C1205 1.376 . S
C1202 C1200 1.394 . S
C1202 C1203 1.369 1_565 S
C1202 C1206 1.531 1_565 S
C1203 C1202 1.369 1_545 S
C1203 C1204 1.410 1_545 S
C1203 C1211 1.503 . S
C1204 C1203 1.410 1_565 S
C1204 C1205 1.392 . S
C1204 C1207 1.511 1_565 S
C1205 C1201 1.376 . S
C1205 C1204 1.392 . S
C1205 H1217 0.929 . S
C1206 C1202 1.531 1_545 S
C1206 H1218 0.960 . S
C1206 H1219 0.970 . S
C1206 H1220 0.960 . S
C1207 C1204 1.511 1_545 S
C1207 H1221 0.961 1_545 S
C1207 H1222 0.961 . S
C1207 H1223 0.961 . S
C1208 C1209 1.370 . S
C1208 C1210 1.363 . S
C1208 H1224 0.931 . S
C1209 C1208 1.370 . S
C1209 C1213 1.408 . S
C1210 C1208 1.363 . S
C1210 C1211 1.370 . S
C1210 C1214 1.524 1_545 S
C1211 C1203 1.503 . S
C1211 C1210 1.370 . S
C1211 C1212 1.403 . S
C1212 C1211 1.403 . S
C1212 C1213 1.404 . S
C1212 C1215 1.539 . S
C1213 C1209 1.408 . S
C1213 C1212 1.404 . S
C1213 H1225 0.930 . S
C1214 C1210 1.524 1_565 S
C1214 H1226 0.956 . S
C1214 H1227 0.961 . S
C1214 H1228 0.961 . S
C1215 C1212 1.539 . S
C1215 H1229 0.958 . S
C1215 H1230 0.961 . S
C1215 H1231 0.960 . S
H1216 C1200 0.931 . S
H1217 C1205 0.929 . S
H1218 C1206 0.960 . S
H1219 C1206 0.970 . S
H1220 C1206 0.960 . S
H1221 C1207 0.961 1_565 S
H1222 C1207 0.961 . S
H1223 C1207 0.961 . S
H1224 C1208 0.931 . S
H1225 C1213 0.930 . S
H1226 C1214 0.956 . S
H1227 C1214 0.961 . S
H1228 C1214 0.961 . S
H1229 C1215 0.958 . S
H1230 C1215 0.961 . S
H1231 C1215 0.960 . S
C1232 C1233 1.391 . S
C1232 C1234 1.394 . S
C1232 H1248 0.931 . S
C1233 C1232 1.391 . S
C1233 C1237 1.376 . S
C1234 C1232 1.394 . S
C1234 C1235 1.369 . S
C1234 C1238 1.531 . S
C1235 C1234 1.369 . S
C1235 C1236 1.410 . S
C1235 C1243 1.503 . S
C1236 C1235 1.410 . S
C1236 C1237 1.392 . S
C1236 C1239 1.511 . S
C1237 C1233 1.376 . S
C1237 C1236 1.392 . S
C1237 H1249 0.929 . S
C1238 C1234 1.531 . S
C1238 H1250 0.960 . S
C1238 H1251 0.962 . S
C1238 H1252 0.960 . S
C1239 C1236 1.511 . S
C1239 H1253 0.961 . S
C1239 H1254 0.961 . S
C1239 H1255 0.961 . S
C1240 C1241 1.370 . S
C1240 C1242 1.363 . S
C1240 H1256 0.931 . S
C1241 C1240 1.370 . S
C1241 C1245 1.408 . S
C1242 C1240 1.363 . S
C1242 C1243 1.370 . S
C1242 C1246 1.524 . S
C1243 C1235 1.503 . S
C1243 C1242 1.370 . S
C1243 C1244 1.403 . S
C1244 C1243 1.403 . S
C1244 C1245 1.404 . S
C1244 C1247 1.539 . S
C1245 C1241 1.408 . S
C1245 C1244 1.404 . S
C1245 H1257 0.930 . S
C1246 C1242 1.524 . S
C1246 H1258 0.956 . S
C1246 H1259 0.961 . S
C1246 H1260 0.961 . S
C1247 C1244 1.539 . S
C1247 H1261 0.958 . S
C1247 H1262 0.961 . S
C1247 H1263 0.960 . S
H1248 C1232 0.931 . S
H1249 C1237 0.929 . S
H1250 C1238 0.960 . S
H1251 C1238 0.962 . S
H1252 C1238 0.960 . S
H1253 C1239 0.961 . S
H1254 C1239 0.961 . S
H1255 C1239 0.961 . S
H1256 C1240 0.931 . S
H1257 C1245 0.930 . S
H1258 C1246 0.956 . S
H1259 C1246 0.961 . S
H1260 C1246 0.961 . S
H1261 C1247 0.958 . S
H1262 C1247 0.961 . S
H1263 C1247 0.960 . S
C1264 C1265 1.391 . S
C1264 C1266 1.394 . S
C1264 H1280 0.931 . S
C1265 C1264 1.391 . S
C1265 C1269 1.376 . S
C1266 C1264 1.394 . S
C1266 C1267 1.369 . S
C1266 C1270 1.531 . S
C1267 C1266 1.369 . S
C1267 C1268 1.410 . S
C1267 C1275 1.503 . S
C1268 C1267 1.410 . S
C1268 C1269 1.392 . S
C1268 C1271 1.511 . S
C1269 C1265 1.376 . S
C1269 C1268 1.392 . S
C1269 H1281 0.929 . S
C1270 C1266 1.531 . S
C1270 H1282 0.978 . S
C1270 H1283 0.941 1_556 S
C1270 H1284 0.960 . S
C1271 C1268 1.511 . S
C1271 H1285 0.961 . S
C1271 H1286 0.961 . S
C1271 H1287 0.961 . S
C1272 C1273 1.370 . S
C1272 C1274 1.363 . S
C1272 H1288 0.931 . S
C1273 C1272 1.370 . S
C1273 C1277 1.408 . S
C1274 C1272 1.363 . S
C1274 C1275 1.370 1_554 S
C1274 C1278 1.524 . S
C1275 C1267 1.503 . S
C1275 C1274 1.370 1_556 S
C1275 C1276 1.402 1_556 S
C1276 C1275 1.402 1_554 S
C1276 C1277 1.405 . S
C1276 C1279 1.539 1_554 S
C1277 C1273 1.408 . S
C1277 C1276 1.405 . S
C1277 H1289 0.930 . S
C1278 C1274 1.524 . S
C1278 H1290 0.956 . S
C1278 H1291 0.961 1_554 S
C1278 H1292 0.961 . S
C1279 C1276 1.539 1_556 S
C1279 H1293 0.958 . S
C1279 H1294 0.961 . S
C1279 H1295 0.960 . S
H1280 C1264 0.931 . S
H1281 C1269 0.929 . S
H1282 C1270 0.978 . S
H1283 C1270 0.941 1_554 S
H1284 C1270 0.960 . S
H1285 C1271 0.961 . S
H1286 C1271 0.961 . S
H1287 C1271 0.961 . S
H1288 C1272 0.931 . S
H1289 C1277 0.930 . S
H1290 C1278 0.956 . S
H1291 C1278 0.961 1_556 S
H1292 C1278 0.961 . S
H1293 C1279 0.958 . S
H1294 C1279 0.961 . S
H1295 C1279 0.960 . S
C1296 C1297 1.391 . S
C1296 C1298 1.394 1_554 S
C1296 H1312 0.931 . S
C1297 C1296 1.391 . S
C1297 C1301 1.376 . S
C1298 C1296 1.394 1_556 S
C1298 C1299 1.369 . S
C1298 C1302 1.531 . S
C1299 C1298 1.369 . S
C1299 C1300 1.410 1_556 S
C1299 C1307 1.503 . S
C1300 C1299 1.410 1_554 S
C1300 C1301 1.392 . S
C1300 C1303 1.511 . S
C1301 C1297 1.376 . S
C1301 C1300 1.392 . S
C1301 H1313 0.929 . S
C1302 C1298 1.531 . S
C1302 H1314 0.960 . S
C1302 H1315 0.962 . S
C1302 H1316 0.960 . S
C1303 C1300 1.511 . S
C1303 H1317 0.961 . S
C1303 H1318 0.961 . S
C1303 H1319 0.961 . S
C1304 C1305 1.370 . S
C1304 C1306 1.363 . S
C1304 H1320 0.931 . S
C1305 C1304 1.370 . S
C1305 C1309 1.408 . S
C1306 C1304 1.363 . S
C1306 C1307 1.370 . S
C1306 C1310 1.524 . S
C1307 C1299 1.503 . S
C1307 C1306 1.370 . S
C1307 C1308 1.403 . S
C1308 C1307 1.403 . S
C1308 C1309 1.404 . S
C1308 C1311 1.539 . S
C1309 C1305 1.408 . S
C1309 C1308 1.404 . S
C1309 H1321 0.930 . S
C1310 C1306 1.524 . S
C1310 H1322 0.956 . S
C1310 H1323 0.961 . S
C1310 H1324 0.961 . S
C1311 C1308 1.539 . S
C1311 H1325 0.958 . S
C1311 H1326 0.961 . S
C1311 H1327 0.960 . S
H1312 C1296 0.931 . S
H1313 C1301 0.929 . S
H1314 C1302 0.960 . S
H1315 C1302 0.962 . S
H1316 C1302 0.960 . S
H1317 C1303 0.961 . S
H1318 C1303 0.961 . S
H1319 C1303 0.961 . S
H1320 C1304 0.931 . S
H1321 C1309 0.930 . S
H1322 C1310 0.956 . S
H1323 C1310 0.961 . S
H1324 C1310 0.961 . S
H1325 C1311 0.958 . S
H1326 C1311 0.961 . S
H1327 C1311 0.960 . S
C1328 C1329 1.391 . S
C1328 C1330 1.394 . S
C1328 H1344 0.931 . S
C1329 C1328 1.391 . S
C1329 C1333 1.376 . S
C1330 C1328 1.394 . S
C1330 C1331 1.369 . S
C1330 C1334 1.531 . S
C1331 C1330 1.369 . S
C1331 C1332 1.410 . S
C1331 C1339 1.503 . S
C1332 C1331 1.410 . S
C1332 C1333 1.392 . S
C1332 C1335 1.511 . S
C1333 C1329 1.376 . S
C1333 C1332 1.392 . S
C1333 H1345 0.929 . S
C1334 C1330 1.531 . S
C1334 H1346 0.960 . S
C1334 H1347 0.962 . S
C1334 H1348 0.960 . S
C1335 C1332 1.511 . S
C1335 H1349 0.961 . S
C1335 H1350 0.961 . S
C1335 H1351 0.961 . S
C1336 C1337 1.370 . S
C1336 C1338 1.363 . S
C1336 H1352 0.931 . S
C1337 C1336 1.370 . S
C1337 C1341 1.408 . S
C1338 C1336 1.363 . S
C1338 C1339 1.370 . S
C1338 C1342 1.524 . S
C1339 C1331 1.503 . S
C1339 C1338 1.370 . S
C1339 C1340 1.403 . S
C1340 C1339 1.403 . S
C1340 C1341 1.404 . S
C1340 C1343 1.539 . S
C1341 C1337 1.408 . S
C1341 C1340 1.404 . S
C1341 H1353 0.930 . S
C1342 C1338 1.524 . S
C1342 H1354 0.956 . S
C1342 H1355 0.961 . S
C1342 H1356 0.961 . S
C1343 C1340 1.539 . S
C1343 H1357 0.958 . S
C1343 H1358 0.961 . S
C1343 H1359 0.960 . S
H1344 C1328 0.931 . S
H1345 C1333 0.929 . S
H1346 C1334 0.960 . S
H1347 C1334 0.962 . S
H1348 C1334 0.960 . S
H1349 C1335 0.961 . S
H1350 C1335 0.961 . S
H1351 C1335 0.961 . S
H1352 C1336 0.931 . S
H1353 C1341 0.930 . S
H1354 C1342 0.956 . S
H1355 C1342 0.961 . S
H1356 C1342 0.961 . S
H1357 C1343 0.958 . S
H1358 C1343 0.961 . S
H1359 C1343 0.960 . S
C1360 C1361 1.391 . S
C1360 C1362 1.394 . S
C1360 H1376 0.931 . S
C1361 C1360 1.391 . S
C1361 C1365 1.376 . S
C1362 C1360 1.394 . S
C1362 C1363 1.369 . S
C1362 C1366 1.531 . S
C1363 C1362 1.369 . S
C1363 C1364 1.410 . S
C1363 C1371 1.503 . S
C1364 C1363 1.410 . S
C1364 C1365 1.392 . S
C1364 C1367 1.511 . S
C1365 C1361 1.376 . S
C1365 C1364 1.392 . S
C1365 H1377 0.929 . S
C1366 C1362 1.531 . S
C1366 H1378 0.960 . S
C1366 H1379 0.962 . S
C1366 H1380 0.960 . S
C1367 C1364 1.511 . S
C1367 H1381 0.961 . S
C1367 H1382 0.961 . S
C1367 H1383 0.961 . S
C1368 C1369 1.370 . S
C1368 C1370 1.363 . S
C1368 H1384 0.931 . S
C1369 C1368 1.370 . S
C1369 C1373 1.408 . S
C1370 C1368 1.363 . S
C1370 C1371 1.370 . S
C1370 C1374 1.524 . S
C1371 C1363 1.503 . S
C1371 C1370 1.370 . S
C1371 C1372 1.403 . S
C1372 C1371 1.403 . S
C1372 C1373 1.404 . S
C1372 C1375 1.539 . S
C1373 C1369 1.408 . S
C1373 C1372 1.404 . S
C1373 H1385 0.930 . S
C1374 C1370 1.524 . S
C1374 H1386 0.956 . S
C1374 H1387 0.961 . S
C1374 H1388 0.961 . S
C1375 C1372 1.539 . S
C1375 H1389 0.958 . S
C1375 H1390 0.961 . S
C1375 H1391 0.960 . S
H1376 C1360 0.931 . S
H1377 C1365 0.929 . S
H1378 C1366 0.960 . S
H1379 C1366 0.962 . S
H1380 C1366 0.960 . S
H1381 C1367 0.961 . S
H1382 C1367 0.961 . S
H1383 C1367 0.961 . S
H1384 C1368 0.931 . S
H1385 C1373 0.930 . S
H1386 C1374 0.956 . S
H1387 C1374 0.961 . S
H1388 C1374 0.961 . S
H1389 C1375 0.958 . S
H1390 C1375 0.961 . S
H1391 C1375 0.960 . S
C1392 C1393 1.391 . S
C1392 C1394 1.394 . S
C1392 H1408 0.931 . S
C1393 C1392 1.391 . S
C1393 C1397 1.376 . S
C1394 C1392 1.394 . S
C1394 C1395 1.369 . S
C1394 C1398 1.531 . S
C1395 C1394 1.369 . S
C1395 C1396 1.410 . S
C1395 C1403 1.503 1_655 S
C1396 C1395 1.410 . S
C1396 C1397 1.392 . S
C1396 C1399 1.511 1_655 S
C1397 C1393 1.376 . S
C1397 C1396 1.392 . S
C1397 H1409 0.929 . S
C1398 C1394 1.531 . S
C1398 H1410 0.960 . S
C1398 H1411 0.962 . S
C1398 H1412 0.960 . S
C1399 C1396 1.511 1_455 S
C1399 H1413 0.961 . S
C1399 H1414 0.961 . S
C1399 H1415 0.961 . S
C1400 C1401 1.370 . S
C1400 C1402 1.363 . S
C1400 H1416 0.931 . S
C1401 C1400 1.370 . S
C1401 C1405 1.408 . S
C1402 C1400 1.363 . S
C1402 C1403 1.370 . S
C1402 C1406 1.524 1_455 S
C1403 C1395 1.503 1_455 S
C1403 C1402 1.370 . S
C1403 C1404 1.403 . S
C1404 C1403 1.403 . S
C1404 C1405 1.404 . S
C1404 C1407 1.539 . S
C1405 C1401 1.408 . S
C1405 C1404 1.404 . S
C1405 H1417 0.930 . S
C1406 C1402 1.524 1_655 S
C1406 H1418 0.956 . S
C1406 H1419 0.961 . S
C1406 H1420 0.961 . S
C1407 C1404 1.539 . S
C1407 H1421 0.958 . S
C1407 H1422 0.961 . S
C1407 H1423 0.960 . S
H1408 C1392 0.931 . S
H1409 C1397 0.929 . S
H1410 C1398 0.960 . S
H1411 C1398 0.962 . S
H1412 C1398 0.960 . S
H1413 C1399 0.961 . S
H1414 C1399 0.961 . S
H1415 C1399 0.961 . S
H1416 C1400 0.931 . S
H1417 C1405 0.930 . S
H1418 C1406 0.956 . S
H1419 C1406 0.961 . S
H1420 C1406 0.961 . S
H1421 C1407 0.958 . S
H1422 C1407 0.961 . S
H1423 C1407 0.960 . S
C1424 C1425 1.391 . S
C1424 C1426 1.394 . S
C1424 H1440 0.931 . S
C1425 C1424 1.391 . S
C1425 C1429 1.376 . S
C1426 C1424 1.394 . S
C1426 C1427 1.369 . S
C1426 C1430 1.531 1_655 S
C1427 C1426 1.369 . S
C1427 C1428 1.410 . S
C1427 C1435 1.503 1_655 S
C1428 C1427 1.410 . S
C1428 C1429 1.392 . S
C1428 C1431 1.511 . S
C1429 C1425 1.376 . S
C1429 C1428 1.392 . S
C1429 H1441 0.929 . S
C1430 C1426 1.531 1_455 S
C1430 H1442 0.960 . S
C1430 H1443 0.962 . S
C1430 H1444 0.960 . S
C1431 C1428 1.511 . S
C1431 H1445 0.961 . S
C1431 H1446 0.961 . S
C1431 H1447 0.961 . S
C1432 C1433 1.370 . S
C1432 C1434 1.363 . S
C1432 H1448 0.931 . S
C1433 C1432 1.370 . S
C1433 C1437 1.408 . S
C1434 C1432 1.363 . S
C1434 C1435 1.370 . S
C1434 C1438 1.524 . S
C1435 C1427 1.503 1_455 S
C1435 C1434 1.370 . S
C1435 C1436 1.403 . S
C1436 C1435 1.403 . S
C1436 C1437 1.404 . S
C1436 C1439 1.539 . S
C1437 C1433 1.408 . S
C1437 C1436 1.404 . S
C1437 H1449 0.930 . S
C1438 C1434 1.524 . S
C1438 H1450 0.956 . S
C1438 H1451 0.983 . S
C1438 H1452 0.961 . S
C1439 C1436 1.539 . S
C1439 H1453 0.958 . S
C1439 H1454 0.961 . S
C1439 H1455 0.960 1_455 S
H1440 C1424 0.931 . S
H1441 C1429 0.929 . S
H1442 C1430 0.960 . S
H1443 C1430 0.962 . S
H1444 C1430 0.960 . S
H1445 C1431 0.961 . S
H1446 C1431 0.961 . S
H1447 C1431 0.961 . S
H1448 C1432 0.931 . S
H1449 C1437 0.930 . S
H1450 C1438 0.956 . S
H1451 C1438 0.983 . S
H1452 C1438 0.961 . S
H1453 C1439 0.958 . S
H1454 C1439 0.961 . S
H1455 C1439 0.960 1_655 S
C1456 C1457 1.391 . S
C1456 C1458 1.394 . S
C1456 H1472 0.931 . S
C1457 C1456 1.391 . S
C1457 C1461 1.376 . S
C1458 C1456 1.394 . S
C1458 C1459 1.369 . S
C1458 C1462 1.531 . S
C1459 C1458 1.369 . S
C1459 C1460 1.410 . S
C1459 C1467 1.503 . S
C1460 C1459 1.410 . S
C1460 C1461 1.392 . S
C1460 C1463 1.511 . S
C1461 C1457 1.376 . S
C1461 C1460 1.392 . S
C1461 H1473 0.929 . S
C1462 C1458 1.531 . S
C1462 H1474 0.960 . S
C1462 H1475 0.962 . S
C1462 H1476 0.960 . S
C1463 C1460 1.511 . S
C1463 H1477 0.961 . S
C1463 H1478 0.961 . S
C1463 H1479 0.961 . S
C1464 C1465 1.370 . S
C1464 C1466 1.363 . S
C1464 H1480 0.931 . S
C1465 C1464 1.370 . S
C1465 C1469 1.408 . S
C1466 C1464 1.363 . S
C1466 C1467 1.370 . S
C1466 C1470 1.524 . S
C1467 C1459 1.503 . S
C1467 C1466 1.370 . S
C1467 C1468 1.403 . S
C1468 C1467 1.403 . S
C1468 C1469 1.404 . S
C1468 C1471 1.539 . S
C1469 C1465 1.408 . S
C1469 C1468 1.404 . S
C1469 H1481 0.930 . S
C1470 C1466 1.524 . S
C1470 H1482 0.956 . S
C1470 H1483 0.961 . S
C1470 H1484 0.961 . S
C1471 C1468 1.539 . S
C1471 H1485 0.958 . S
C1471 H1486 0.961 . S
C1471 H1487 0.960 . S
H1472 C1456 0.931 . S
H1473 C1461 0.929 . S
H1474 C1462 0.960 . S
H1475 C1462 0.962 . S
H1476 C1462 0.960 . S
H1477 C1463 0.961 . S
H1478 C1463 0.961 . S
H1479 C1463 0.961 . S
H1480 C1464 0.931 . S
H1481 C1469 0.930 . S
H1482 C1470 0.956 . S
H1483 C1470 0.961 . S
H1484 C1470 0.961 . S
H1485 C1471 0.958 . S
H1486 C1471 0.961 . S
H1487 C1471 0.960 . S
C1488 C1489 1.391 . S
C1488 C1490 1.394 . S
C1488 H1504 0.931 . S
C1489 C1488 1.391 . S
C1489 C1493 1.376 . S
C1490 C1488 1.394 . S
C1490 C1491 1.369 . S
C1490 C1494 1.531 . S
C1491 C1490 1.369 . S
C1491 C1492 1.410 . S
C1491 C1499 1.503 1_545 S
C1492 C1491 1.410 . S
C1492 C1493 1.392 . S
C1492 C1495 1.511 1_545 S
C1493 C1489 1.376 . S
C1493 C1492 1.392 . S
C1493 H1505 0.929 . S
C1494 C1490 1.531 . S
C1494 H1506 0.960 . S
C1494 H1507 0.962 . S
C1494 H1508 0.960 . S
C1495 C1492 1.511 1_565 S
C1495 H1509 0.961 . S
C1495 H1510 0.961 . S
C1495 H1511 0.961 . S
C1496 C1497 1.370 . S
C1496 C1498 1.363 . S
C1496 H1512 0.931 . S
C1497 C1496 1.370 . S
C1497 C1501 1.408 . S
C1498 C1496 1.363 . S
C1498 C1499 1.370 . S
C1498 C1502 1.524 . S
C1499 C1491 1.503 1_565 S
C1499 C1498 1.370 . S
C1499 C1500 1.403 . S
C1500 C1499 1.403 . S
C1500 C1501 1.404 . S
C1500 C1503 1.553 . S
C1501 C1497 1.408 . S
C1501 C1500 1.404 . S
C1501 H1513 0.930 . S
C1502 C1498 1.524 . S
C1502 H1514 0.956 . S
C1502 H1515 0.961 . S
C1502 H1516 0.961 . S
C1503 C1500 1.553 . S
C1503 H1517 0.944 1_565 S
C1503 H1518 0.971 . S
C1503 H1519 0.951 1_565 S
H1504 C1488 0.931 . S
H1505 C1493 0.929 . S
H1506 C1494 0.960 . S
H1507 C1494 0.962 . S
H1508 C1494 0.960 . S
H1509 C1495 0.961 . S
H1510 C1495 0.961 . S
H1511 C1495 0.961 . S
H1512 C1496 0.931 . S
H1513 C1501 0.930 . S
H1514 C1502 0.956 . S
H1515 C1502 0.961 . S
H1516 C1502 0.961 . S
H1517 C1503 0.944 1_545 S
H1518 C1503 0.971 . S
H1519 C1503 0.951 1_545 S
C1520 C1521 1.391 . S
C1520 C1522 1.394 . S
C1520 H1536 0.931 . S
C1521 C1520 1.391 . S
C1521 C1525 1.376 . S
C1522 C1520 1.394 . S
C1522 C1523 1.369 . S
C1522 C1526 1.531 . S
C1523 C1522 1.369 . S
C1523 C1524 1.410 . S
C1523 C1531 1.503 . S
C1524 C1523 1.410 . S
C1524 C1525 1.392 . S
C1524 C1527 1.511 . S
C1525 C1521 1.376 . S
C1525 C1524 1.392 . S
C1525 H1537 0.929 . S
C1526 C1522 1.531 . S
C1526 H1538 0.960 . S
C1526 H1539 0.962 . S
C1526 H1540 0.960 . S
C1527 C1524 1.511 . S
C1527 H1541 0.961 . S
C1527 H1542 0.961 . S
C1527 H1543 0.961 . S
C1528 C1529 1.370 . S
C1528 C1530 1.363 . S
C1528 H1544 0.931 . S
C1529 C1528 1.370 . S
C1529 C1533 1.408 . S
C1530 C1528 1.363 . S
C1530 C1531 1.370 . S
C1530 C1534 1.524 . S
C1531 C1523 1.503 . S
C1531 C1530 1.370 . S
C1531 C1532 1.403 . S
C1532 C1531 1.403 . S
C1532 C1533 1.404 . S
C1532 C1535 1.539 . S
C1533 C1529 1.408 . S
C1533 C1532 1.404 . S
C1533 H1545 0.930 . S
C1534 C1530 1.524 . S
C1534 H1546 0.956 . S
C1534 H1547 0.961 . S
C1534 H1548 0.961 . S
C1535 C1532 1.539 . S
C1535 H1549 0.958 . S
C1535 H1550 0.961 . S
C1535 H1551 0.960 . S
H1536 C1520 0.931 . S
H1537 C1525 0.929 . S
H1538 C1526 0.960 . S
H1539 C1526 0.962 . S
H1540 C1526 0.960 . S
H1541 C1527 0.961 . S
H1542 C1527 0.961 . S
H1543 C1527 0.961 . S
H1544 C1528 0.931 . S
H1545 C1533 0.930 . S
H1546 C1534 0.956 . S
H1547 C1534 0.961 . S
H1548 C1534 0.961 . S
H1549 C1535 0.958 . S
H1550 C1535 0.961 . S
H1551 C1535 0.960 . S
C1552 C1553 1.391 . S
C1552 C1554 1.394 . S
C1552 H1568 0.931 . S
C1553 C1552 1.391 . S
C1553 C1557 1.376 . S
C1554 C1552 1.394 . S
C1554 C1555 1.369 . S
C1554 C1558 1.531 . S
C1555 C1554 1.369 . S
C1555 C1556 1.410 . S
C1555 C1563 1.503 . S
C1556 C1555 1.410 . S
C1556 C1557 1.392 . S
C1556 C1559 1.511 . S
C1557 C1553 1.376 . S
C1557 C1556 1.392 . S
C1557 H1569 0.929 . S
C1558 C1554 1.531 . S
C1558 H1570 0.960 . S
C1558 H1571 0.962 . S
C1558 H1572 0.960 . S
C1559 C1556 1.511 . S
C1559 H1573 0.961 . S
C1559 H1574 0.961 . S
C1559 H1575 0.961 . S
C1560 C1561 1.370 . S
C1560 C1562 1.363 . S
C1560 H1576 0.931 . S
C1561 C1560 1.370 . S
C1561 C1565 1.408 . S
C1562 C1560 1.363 . S
C1562 C1563 1.370 1_556 S
C1562 C1566 1.524 1_556 S
C1563 C1555 1.503 . S
C1563 C1562 1.370 1_554 S
C1563 C1564 1.403 1_554 S
C1564 C1563 1.403 1_556 S
C1564 C1565 1.404 . S
C1564 C1567 1.539 1_556 S
C1565 C1561 1.408 . S
C1565 C1564 1.404 . S
C1565 H1577 0.930 . S
C1566 C1562 1.524 1_554 S
C1566 H1578 0.956 . S
C1566 H1579 0.961 . S
C1566 H1580 0.961 . S
C1567 C1564 1.539 1_554 S
C1567 H1581 0.958 . S
C1567 H1582 0.961 1_554 S
C1567 H1583 0.960 . S
H1568 C1552 0.931 . S
H1569 C1557 0.929 . S
H1570 C1558 0.960 . S
H1571 C1558 0.962 . S
H1572 C1558 0.960 . S
H1573 C1559 0.961 . S
H1574 C1559 0.961 . S
H1575 C1559 0.961 . S
H1576 C1560 0.931 . S
H1577 C1565 0.930 . S
H1578 C1566 0.956 . S
H1579 C1566 0.961 . S
H1580 C1566 0.961 . S
H1581 C1567 0.958 . S
H1582 C1567 0.961 1_556 S
H1583 C1567 0.960 . S
C1584 C1585 1.391 . S
C1584 C1586 1.394 1_556 S
C1584 H1600 0.931 . S
C1585 C1584 1.391 . S
C1585 C1589 1.376 . S
C1586 C1584 1.394 1_554 S
C1586 C1587 1.369 . S
C1586 C1590 1.531 . S
C1587 C1586 1.369 . S
C1587 C1588 1.410 1_554 S
C1587 C1595 1.503 . S
C1588 C1587 1.410 1_556 S
C1588 C1589 1.392 . S
C1588 C1591 1.511 . S
C1589 C1585 1.376 . S
C1589 C1588 1.392 . S
C1589 H1601 0.929 . S
C1590 C1586 1.531 . S
C1590 H1602 0.960 . S
C1590 H1603 0.962 . S
C1590 H1604 0.960 . S
C1591 C1588 1.511 . S
C1591 H1605 0.961 . S
C1591 H1606 0.961 1_556 S
C1591 H1607 0.961 . S
C1592 C1593 1.370 . S
C1592 C1594 1.363 . S
C1592 H1608 0.931 . S
C1593 C1592 1.370 . S
C1593 C1597 1.408 . S
C1594 C1592 1.363 . S
C1594 C1595 1.370 . S
C1594 C1598 1.524 . S
C1595 C1587 1.503 . S
C1595 C1594 1.370 . S
C1595 C1596 1.403 . S
C1596 C1595 1.403 . S
C1596 C1597 1.404 . S
C1596 C1599 1.539 . S
C1597 C1593 1.408 . S
C1597 C1596 1.404 . S
C1597 H1609 0.930 . S
C1598 C1594 1.524 . S
C1598 H1610 0.956 . S
C1598 H1611 0.961 . S
C1598 H1612 0.961 . S
C1599 C1596 1.539 . S
C1599 H1613 0.958 . S
C1599 H1614 0.961 . S
C1599 H1615 0.960 . S
H1600 C1584 0.931 . S
H1601 C1589 0.929 . S
H1602 C1590 0.960 . S
H1603 C1590 0.962 . S
H1604 C1590 0.960 . S
H1605 C1591 0.961 . S
H1606 C1591 0.961 1_554 S
H1607 C1591 0.961 . S
H1608 C1592 0.931 . S
H1609 C1597 0.930 . S
H1610 C1598 0.956 . S
H1611 C1598 0.961 . S
H1612 C1598 0.961 . S
H1613 C1599 0.958 . S
H1614 C1599 0.961 . S
H1615 C1599 0.960 . S
C1616 C1617 1.391 . S
C1616 C1618 1.394 . S
C1616 H1632 0.931 . S
C1617 C1616 1.391 . S
C1617 C1621 1.376 . S
C1618 C1616 1.394 . S
C1618 C1619 1.369 . S
C1618 C1622 1.531 . S
C1619 C1618 1.369 . S
C1619 C1620 1.410 . S
C1619 C1627 1.503 . S
C1620 C1619 1.410 . S
C1620 C1621 1.392 . S
C1620 C1623 1.511 . S
C1621 C1617 1.376 . S
C1621 C1620 1.392 . S
C1621 H1633 0.929 . S
C1622 C1618 1.531 . S
C1622 H1634 0.960 . S
C1622 H1635 0.962 . S
C1622 H1636 0.960 . S
C1623 C1620 1.511 . S
C1623 H1637 0.961 . S
C1623 H1638 0.961 . S
C1623 H1639 0.961 . S
C1624 C1625 1.370 . S
C1624 C1626 1.363 . S
C1624 H1640 0.931 . S
C1625 C1624 1.370 . S
C1625 C1629 1.408 . S
C1626 C1624 1.363 . S
C1626 C1627 1.370 . S
C1626 C1630 1.524 . S
C1627 C1619 1.503 . S
C1627 C1626 1.370 . S
C1627 C1628 1.403 . S
C1628 C1627 1.403 . S
C1628 C1629 1.404 . S
C1628 C1631 1.539 . S
C1629 C1625 1.408 . S
C1629 C1628 1.404 . S
C1629 H1641 0.930 . S
C1630 C1626 1.524 . S
C1630 H1642 0.956 . S
C1630 H1643 0.961 . S
C1630 H1644 0.961 . S
C1631 C1628 1.539 . S
C1631 H1645 0.958 . S
C1631 H1646 0.961 . S
C1631 H1647 0.960 . S
H1632 C1616 0.931 . S
H1633 C1621 0.929 . S
H1634 C1622 0.960 . S
H1635 C1622 0.962 . S
H1636 C1622 0.960 . S
H1637 C1623 0.961 . S
H1638 C1623 0.961 . S
H1639 C1623 0.961 . S
H1640 C1624 0.931 . S
H1641 C1629 0.930 . S
H1642 C1630 0.956 . S
H1643 C1630 0.961 . S
H1644 C1630 0.961 . S
H1645 C1631 0.958 . S
H1646 C1631 0.961 . S
H1647 C1631 0.960 . S
C1648 C1649 1.391 . S
C1648 C1650 1.394 . S
C1648 H1664 0.931 . S
C1649 C1648 1.391 . S
C1649 C1653 1.376 . S
C1650 C1648 1.394 . S
C1650 C1651 1.369 . S
C1650 C1654 1.531 . S
C1651 C1650 1.369 . S
C1651 C1652 1.410 . S
C1651 C1659 1.503 . S
C1652 C1651 1.410 . S
C1652 C1653 1.392 . S
C1652 C1655 1.511 . S
C1653 C1649 1.376 . S
C1653 C1652 1.392 . S
C1653 H1665 0.929 . S
C1654 C1650 1.531 . S
C1654 H1666 0.960 . S
C1654 H1667 0.962 . S
C1654 H1668 0.960 . S
C1655 C1652 1.511 . S
C1655 H1669 0.961 . S
C1655 H1670 0.961 . S
C1655 H1671 0.961 . S
C1656 C1657 1.370 . S
C1656 C1658 1.363 . S
C1656 H1672 0.931 . S
C1657 C1656 1.370 . S
C1657 C1661 1.408 . S
C1658 C1656 1.363 . S
C1658 C1659 1.370 . S
C1658 C1662 1.524 . S
C1659 C1651 1.503 . S
C1659 C1658 1.370 . S
C1659 C1660 1.403 . S
C1660 C1659 1.403 . S
C1660 C1661 1.404 . S
C1660 C1663 1.539 . S
C1661 C1657 1.408 . S
C1661 C1660 1.404 . S
C1661 H1673 0.930 . S
C1662 C1658 1.524 . S
C1662 H1674 0.956 . S
C1662 H1675 0.961 . S
C1662 H1676 0.961 . S
C1663 C1660 1.539 . S
C1663 H1677 0.958 . S
C1663 H1678 0.961 . S
C1663 H1679 0.960 . S
H1664 C1648 0.931 . S
H1665 C1653 0.929 . S
H1666 C1654 0.960 . S
H1667 C1654 0.962 . S
H1668 C1654 0.960 . S
H1669 C1655 0.961 . S
H1670 C1655 0.961 . S
H1671 C1655 0.961 . S
H1672 C1656 0.931 . S
H1673 C1661 0.930 . S
H1674 C1662 0.956 . S
H1675 C1662 0.961 . S
H1676 C1662 0.961 . S
H1677 C1663 0.958 . S
H1678 C1663 0.961 . S
H1679 C1663 0.960 . S
C1680 C1681 1.391 . S
C1680 C1682 1.394 1_455 S
C1680 H1696 0.931 1_455 S
C1681 C1680 1.391 . S
C1681 C1685 1.376 . S
C1682 C1680 1.394 1_655 S
C1682 C1683 1.369 1_655 S
C1682 C1686 1.531 . S
C1683 C1682 1.369 1_455 S
C1683 C1684 1.410 . S
C1683 C1691 1.503 1_455 S
C1684 C1683 1.410 . S
C1684 C1685 1.392 . S
C1684 C1687 1.511 . S
C1685 C1681 1.376 . S
C1685 C1684 1.392 . S
C1685 H1697 0.929 . S
C1686 C1682 1.531 . S
C1686 H1698 0.960 . S
C1686 H1699 0.962 . S
C1686 H1700 0.960 . S
C1687 C1684 1.511 . S
C1687 H1701 0.961 . S
C1687 H1702 0.961 . S
C1687 H1703 0.961 . S
C1688 C1689 1.370 . S
C1688 C1690 1.363 . S
C1688 H1704 0.931 . S
C1689 C1688 1.370 . S
C1689 C1693 1.408 . S
C1690 C1688 1.363 . S
C1690 C1691 1.370 . S
C1690 C1694 1.524 . S
C1691 C1683 1.503 1_655 S
C1691 C1690 1.370 . S
C1691 C1692 1.403 . S
C1692 C1691 1.403 . S
C1692 C1693 1.404 . S
C1692 C1695 1.539 1_655 S
C1693 C1689 1.408 . S
C1693 C1692 1.404 . S
C1693 H1705 0.930 . S
C1694 C1690 1.524 . S
C1694 H1706 0.956 . S
C1694 H1707 0.961 1_655 S
C1694 H1708 0.961 . S
C1695 C1692 1.539 1_455 S
C1695 H1709 0.958 1_455 S
C1695 H1710 0.961 . S
C1695 H1711 0.960 . S
H1696 C1680 0.931 1_655 S
H1697 C1685 0.929 . S
H1698 C1686 0.960 . S
H1699 C1686 0.962 . S
H1700 C1686 0.960 . S
H1701 C1687 0.961 . S
H1702 C1687 0.961 . S
H1703 C1687 0.961 . S
H1704 C1688 0.931 . S
H1705 C1693 0.930 . S
H1706 C1694 0.956 . S
H1707 C1694 0.961 1_455 S
H1708 C1694 0.961 . S
H1709 C1695 0.958 1_655 S
H1710 C1695 0.961 . S
H1711 C1695 0.960 . S
C1712 C1713 1.391 . S
C1712 C1714 1.394 . S
C1712 H1728 0.931 . S
C1713 C1712 1.391 . S
C1713 C1717 1.376 . S
C1714 C1712 1.394 . S
C1714 C1715 1.369 . S
C1714 C1718 1.531 1_455 S
C1715 C1714 1.369 . S
C1715 C1716 1.410 . S
C1715 C1723 1.503 1_455 S
C1716 C1715 1.410 . S
C1716 C1717 1.392 . S
C1716 C1719 1.511 . S
C1717 C1713 1.376 . S
C1717 C1716 1.392 . S
C1717 H1729 0.929 . S
C1718 C1714 1.531 1_655 S
C1718 H1730 0.960 . S
C1718 H1731 0.962 1_655 S
C1718 H1732 0.960 . S
C1719 C1716 1.511 . S
C1719 H1733 0.961 . S
C1719 H1734 0.961 . S
C1719 H1735 0.961 . S
C1720 C1721 1.370 . S
C1720 C1722 1.363 . S
C1720 H1736 0.931 . S
C1721 C1720 1.370 . S
C1721 C1725 1.408 . S
C1722 C1720 1.363 . S
C1722 C1723 1.370 . S
C1722 C1726 1.524 1_655 S
C1723 C1715 1.503 1_655 S
C1723 C1722 1.370 . S
C1723 C1724 1.403 . S
C1724 C1723 1.403 . S
C1724 C1725 1.404 . S
C1724 C1727 1.539 . S
C1725 C1721 1.408 . S
C1725 C1724 1.404 . S
C1725 H1737 0.930 . S
C1726 C1722 1.524 1_455 S
C1726 H1738 0.956 . S
C1726 H1739 0.961 . S
C1726 H1740 0.961 . S
C1727 C1724 1.539 . S
C1727 H1741 0.958 . S
C1727 H1742 0.961 . S
C1727 H1743 0.960 . S
H1728 C1712 0.931 . S
H1729 C1717 0.929 . S
H1730 C1718 0.960 . S
H1731 C1718 0.962 1_455 S
H1732 C1718 0.960 . S
H1733 C1719 0.961 . S
H1734 C1719 0.961 . S
H1735 C1719 0.961 . S
H1736 C1720 0.931 . S
H1737 C1725 0.930 . S
H1738 C1726 0.956 . S
H1739 C1726 0.961 . S
H1740 C1726 0.961 . S
H1741 C1727 0.958 . S
H1742 C1727 0.961 . S
H1743 C1727 0.960 . S
C1744 C1745 1.391 . S
C1744 C1746 1.394 . S
C1744 H1760 0.931 . S
C1745 C1744 1.391 . S
C1745 C1749 1.376 . S
C1746 C1744 1.394 . S
C1746 C1747 1.369 . S
C1746 C1750 1.531 . S
C1747 C1746 1.369 . S
C1747 C1748 1.410 . S
C1747 C1755 1.503 . S
C1748 C1747 1.410 . S
C1748 C1749 1.392 . S
C1748 C1751 1.511 . S
C1749 C1745 1.376 . S
C1749 C1748 1.392 . S
C1749 H1761 0.929 . S
C1750 C1746 1.531 . S
C1750 H1762 0.960 . S
C1750 H1763 0.962 . S
C1750 H1764 0.960 . S
C1751 C1748 1.511 . S
C1751 H1765 0.961 . S
C1751 H1766 0.961 . S
C1751 H1767 0.961 . S
C1752 C1753 1.370 . S
C1752 C1754 1.363 . S
C1752 H1768 0.931 . S
C1753 C1752 1.370 . S
C1753 C1757 1.408 . S
C1754 C1752 1.363 . S
C1754 C1755 1.370 . S
C1754 C1758 1.524 . S
C1755 C1747 1.503 . S
C1755 C1754 1.370 . S
C1755 C1756 1.403 . S
C1756 C1755 1.403 . S
C1756 C1757 1.404 . S
C1756 C1759 1.539 . S
C1757 C1753 1.408 . S
C1757 C1756 1.404 . S
C1757 H1769 0.930 . S
C1758 C1754 1.524 . S
C1758 H1770 0.956 . S
C1758 H1771 0.961 . S
C1758 H1772 0.961 . S
C1759 C1756 1.539 . S
C1759 H1773 0.958 . S
C1759 H1774 0.961 . S
C1759 H1775 0.960 . S
H1760 C1744 0.931 . S
H1761 C1749 0.929 . S
H1762 C1750 0.960 . S
H1763 C1750 0.962 . S
H1764 C1750 0.960 . S
H1765 C1751 0.961 . S
H1766 C1751 0.961 . S
H1767 C1751 0.961 . S
H1768 C1752 0.931 . S
H1769 C1757 0.930 . S
H1770 C1758 0.956 . S
H1771 C1758 0.961 . S
H1772 C1758 0.961 . S
H1773 C1759 0.958 . S
H1774 C1759 0.961 . S
H1775 C1759 0.960 . S
C1776 C1777 1.391 . S
C1776 C1778 1.394 . S
C1776 H1792 0.931 . S
C1777 C1776 1.391 . S
C1777 C1781 1.376 . S
C1778 C1776 1.394 . S
C1778 C1779 1.369 . S
C1778 C1782 1.531 . S
C1779 C1778 1.369 . S
C1779 C1780 1.410 . S
C1779 C1787 1.503 . S
C1780 C1779 1.410 . S
C1780 C1781 1.392 . S
C1780 C1783 1.511 . S
C1781 C1777 1.376 . S
C1781 C1780 1.392 . S
C1781 H1793 0.929 . S
C1782 C1778 1.531 . S
C1782 H1794 0.960 . S
C1782 H1795 0.962 . S
C1782 H1796 0.960 . S
C1783 C1780 1.511 . S
C1783 H1797 0.961 . S
C1783 H1798 0.961 . S
C1783 H1799 0.961 . S
C1784 C1785 1.370 . S
C1784 C1786 1.363 . S
C1784 H1800 0.931 . S
C1785 C1784 1.370 . S
C1785 C1789 1.408 . S
C1786 C1784 1.363 . S
C1786 C1787 1.370 . S
C1786 C1790 1.524 . S
C1787 C1779 1.503 . S
C1787 C1786 1.370 . S
C1787 C1788 1.403 . S
C1788 C1787 1.403 . S
C1788 C1789 1.404 . S
C1788 C1791 1.539 . S
C1789 C1785 1.408 . S
C1789 C1788 1.404 . S
C1789 H1801 0.930 . S
C1790 C1786 1.524 . S
C1790 H1802 0.956 . S
C1790 H1803 0.961 . S
C1790 H1804 0.961 . S
C1791 C1788 1.539 . S
C1791 H1805 0.958 . S
C1791 H1806 0.961 . S
C1791 H1807 0.960 . S
H1792 C1776 0.931 . S
H1793 C1781 0.929 . S
H1794 C1782 0.960 . S
H1795 C1782 0.962 . S
H1796 C1782 0.960 . S
H1797 C1783 0.961 . S
H1798 C1783 0.961 . S
H1799 C1783 0.961 . S
H1800 C1784 0.931 . S
H1801 C1789 0.930 . S
H1802 C1790 0.956 . S
H1803 C1790 0.961 . S
H1804 C1790 0.961 . S
H1805 C1791 0.958 . S
H1806 C1791 0.961 . S
H1807 C1791 0.960 . S
C1808 C1809 1.391 . S
C1808 C1810 1.394 . S
C1808 H1824 0.931 . S
C1809 C1808 1.391 . S
C1809 C1813 1.376 . S
C1810 C1808 1.394 . S
C1810 C1811 1.369 1_545 S
C1810 C1814 1.531 1_545 S
C1811 C1810 1.369 1_565 S
C1811 C1812 1.410 1_565 S
C1811 C1819 1.503 . S
C1812 C1811 1.410 1_545 S
C1812 C1813 1.392 . S
C1812 C1815 1.511 1_545 S
C1813 C1809 1.376 . S
C1813 C1812 1.392 . S
C1813 H1825 0.929 . S
C1814 C1810 1.531 1_565 S
C1814 H1826 0.960 . S
C1814 H1827 0.962 . S
C1814 H1828 0.960 . S
C1815 C1812 1.511 1_565 S
C1815 H1829 0.961 1_565 S
C1815 H1830 0.961 . S
C1815 H1831 0.961 . S
C1816 C1817 1.370 . S
C1816 C1818 1.363 . S
C1816 H1832 0.931 . S
C1817 C1816 1.370 . S
C1817 C1821 1.408 . S
C1818 C1816 1.363 . S
C1818 C1819 1.370 . S
C1818 C1822 1.524 1_565 S
C1819 C1811 1.503 . S
C1819 C1818 1.370 . S
C1819 C1820 1.403 . S
C1820 C1819 1.403 . S
C1820 C1821 1.404 . S
C1820 C1823 1.539 . S
C1821 C1817 1.408 . S
C1821 C1820 1.404 . S
C1821 H1833 0.930 . S
C1822 C1818 1.524 1_545 S
C1822 H1834 0.956 . S
C1822 H1835 0.961 . S
C1822 H1836 0.961 . S
C1823 C1820 1.539 . S
C1823 H1837 0.958 . S
C1823 H1838 0.961 . S
C1823 H1839 0.960 . S
H1824 C1808 0.931 . S
H1825 C1813 0.929 . S
H1826 C1814 0.960 . S
H1827 C1814 0.962 . S
H1828 C1814 0.960 . S
H1829 C1815 0.961 1_545 S
H1830 C1815 0.961 . S
H1831 C1815 0.961 . S
H1832 C1816 0.931 . S
H1833 C1821 0.930 . S
H1834 C1822 0.956 . S
H1835 C1822 0.961 . S
H1836 C1822 0.961 . S
H1837 C1823 0.958 . S
H1838 C1823 0.961 . S
H1839 C1823 0.960 . S
C1840 C1841 1.391 . S
C1840 C1842 1.394 . S
C1840 H1856 0.931 . S
C1841 C1840 1.391 . S
C1841 C1845 1.376 . S
C1842 C1840 1.394 . S
C1842 C1843 1.369 . S
C1842 C1846 1.531 . S
C1843 C1842 1.369 . S
C1843 C1844 1.410 . S
C1843 C1851 1.503 . S
C1844 C1843 1.410 . S
C1844 C1845 1.392 . S
C1844 C1847 1.511 . S
C1845 C1841 1.376 . S
C1845 C1844 1.392 . S
C1845 H1857 0.929 . S
C1846 C1842 1.531 . S
C1846 H1858 0.960 . S
C1846 H1859 0.962 . S
C1846 H1860 0.960 . S
C1847 C1844 1.511 . S
C1847 H1861 0.961 . S
C1847 H1862 0.961 . S
C1847 H1863 0.961 . S
C1848 C1849 1.370 . S
C1848 C1850 1.363 . S
C1848 H1864 0.931 . S
C1849 C1848 1.370 . S
C1849 C1853 1.408 . S
C1850 C1848 1.363 . S
C1850 C1851 1.370 . S
C1850 C1854 1.524 . S
C1851 C1843 1.503 . S
C1851 C1850 1.370 . S
C1851 C1852 1.403 . S
C1852 C1851 1.403 . S
C1852 C1853 1.404 . S
C1852 C1855 1.539 . S
C1853 C1849 1.408 . S
C1853 C1852 1.404 . S
C1853 H1865 0.930 . S
C1854 C1850 1.524 . S
C1854 H1866 0.956 . S
C1854 H1867 0.961 . S
C1854 H1868 0.961 . S
C1855 C1852 1.539 . S
C1855 H1869 0.958 . S
C1855 H1870 0.961 . S
C1855 H1871 0.960 . S
H1856 C1840 0.931 . S
H1857 C1845 0.929 . S
H1858 C1846 0.960 . S
H1859 C1846 0.962 . S
H1860 C1846 0.960 . S
H1861 C1847 0.961 . S
H1862 C1847 0.961 . S
H1863 C1847 0.961 . S
H1864 C1848 0.931 . S
H1865 C1853 0.930 . S
H1866 C1854 0.956 . S
H1867 C1854 0.961 . S
H1868 C1854 0.961 . S
H1869 C1855 0.958 . S
H1870 C1855 0.961 . S
H1871 C1855 0.960 . S
C1872 C1873 1.391 . S
C1872 C1874 1.394 . S
C1872 H1888 0.931 . S
C1873 C1872 1.391 . S
C1873 C1877 1.376 . S
C1874 C1872 1.394 . S
C1874 C1875 1.369 . S
C1874 C1878 1.531 . S
C1875 C1874 1.369 . S
C1875 C1876 1.410 . S
C1875 C1883 1.503 . S
C1876 C1875 1.410 . S
C1876 C1877 1.392 . S
C1876 C1879 1.511 . S
C1877 C1873 1.376 . S
C1877 C1876 1.392 . S
C1877 H1889 0.929 . S
C1878 C1874 1.531 . S
C1878 H1890 0.960 . S
C1878 H1891 0.962 . S
C1878 H1892 0.960 . S
C1879 C1876 1.511 . S
C1879 H1893 0.961 . S
C1879 H1894 0.961 . S
C1879 H1895 0.961 . S
C1880 C1881 1.370 . S
C1880 C1882 1.363 . S
C1880 H1896 0.931 . S
C1881 C1880 1.370 . S
C1881 C1885 1.408 . S
C1882 C1880 1.363 . S
C1882 C1883 1.370 . S
C1882 C1886 1.524 . S
C1883 C1875 1.503 . S
C1883 C1882 1.370 . S
C1883 C1884 1.403 . S
C1884 C1883 1.403 . S
C1884 C1885 1.404 . S
C1884 C1887 1.539 . S
C1885 C1881 1.408 . S
C1885 C1884 1.404 . S
C1885 H1897 0.930 . S
C1886 C1882 1.524 . S
C1886 H1898 0.956 . S
C1886 H1899 0.961 . S
C1886 H1900 0.961 . S
C1887 C1884 1.539 . S
C1887 H1901 0.958 . S
C1887 H1902 0.961 . S
C1887 H1903 0.960 . S
H1888 C1872 0.931 . S
H1889 C1877 0.929 . S
H1890 C1878 0.960 . S
H1891 C1878 0.962 . S
H1892 C1878 0.960 . S
H1893 C1879 0.961 . S
H1894 C1879 0.961 . S
H1895 C1879 0.961 . S
H1896 C1880 0.931 . S
H1897 C1885 0.930 . S
H1898 C1886 0.956 . S
H1899 C1886 0.961 . S
H1900 C1886 0.961 . S
H1901 C1887 0.958 . S
H1902 C1887 0.961 . S
H1903 C1887 0.960 . S
C1904 C1905 1.391 . S
C1904 C1906 1.394 . S
C1904 H1920 0.931 . S
C1905 C1904 1.391 . S
C1905 C1909 1.376 . S
C1906 C1904 1.394 . S
C1906 C1907 1.369 . S
C1906 C1910 1.531 . S
C1907 C1906 1.369 . S
C1907 C1908 1.410 . S
C1907 C1915 1.503 1_545 S
C1908 C1907 1.410 . S
C1908 C1909 1.392 . S
C1908 C1911 1.511 . S
C1909 C1905 1.376 . S
C1909 C1908 1.392 . S
C1909 H1921 0.929 . S
C1910 C1906 1.531 . S
C1910 H1922 0.960 . S
C1910 H1923 0.962 1_545 S
C1910 H1924 0.960 . S
C1911 C1908 1.511 . S
C1911 H1925 0.961 . S
C1911 H1926 0.961 . S
C1911 H1927 0.961 . S
C1912 C1913 1.370 . S
C1912 C1914 1.363 . S
C1912 H1928 0.931 . S
C1913 C1912 1.370 . S
C1913 C1917 1.408 . S
C1914 C1912 1.363 . S
C1914 C1915 1.370 . S
C1914 C1918 1.524 . S
C1915 C1907 1.503 1_565 S
C1915 C1914 1.370 . S
C1915 C1916 1.406 . S
C1916 C1915 1.406 . S
C1916 C1917 1.424 . S
C1916 C1919 1.517 1_565 S
C1917 C1913 1.408 . S
C1917 C1916 1.424 . S
C1917 H1929 0.930 . S
C1918 C1914 1.524 . S
C1918 H1930 0.956 . S
C1918 H1931 0.961 . S
C1918 H1932 0.961 . S
C1919 C1916 1.517 1_545 S
C1919 H1933 0.958 . S
C1919 H1934 0.961 . S
C1919 H1935 0.960 . S
H1920 C1904 0.931 . S
H1921 C1909 0.929 . S
H1922 C1910 0.960 . S
H1923 C1910 0.962 1_565 S
H1924 C1910 0.960 . S
H1925 C1911 0.961 . S
H1926 C1911 0.961 . S
H1927 C1911 0.961 . S
H1928 C1912 0.931 . S
H1929 C1917 0.930 . S
H1930 C1918 0.956 . S
H1931 C1918 0.961 . S
H1932 C1918 0.961 . S
H1933 C1919 0.958 . S
H1934 C1919 0.961 . S
H1935 C1919 0.960 . S
C1936 C1937 1.391 . S
C1936 C1938 1.394 . S
C1936 H1952 0.931 . S
C1937 C1936 1.391 . S
C1937 C1941 1.376 . S
C1938 C1936 1.394 . S
C1938 C1939 1.369 . S
C1938 C1942 1.531 . S
C1939 C1938 1.369 . S
C1939 C1940 1.410 . S
C1939 C1947 1.503 . S
C1940 C1939 1.410 . S
C1940 C1941 1.392 . S
C1940 C1943 1.511 . S
C1941 C1937 1.376 . S
C1941 C1940 1.392 . S
C1941 H1953 0.929 . S
C1942 C1938 1.531 . S
C1942 H1954 0.960 . S
C1942 H1955 0.962 . S
C1942 H1956 0.960 . S
C1943 C1940 1.511 . S
C1943 H1957 0.961 . S
C1943 H1958 0.961 . S
C1943 H1959 0.961 . S
C1944 C1945 1.370 . S
C1944 C1946 1.363 . S
C1944 H1960 0.931 . S
C1945 C1944 1.370 . S
C1945 C1949 1.408 . S
C1946 C1944 1.363 . S
C1946 C1947 1.370 . S
C1946 C1950 1.524 . S
C1947 C1939 1.503 . S
C1947 C1946 1.370 . S
C1947 C1948 1.403 . S
C1948 C1947 1.403 . S
C1948 C1949 1.404 . S
C1948 C1951 1.539 . S
C1949 C1945 1.408 . S
C1949 C1948 1.404 . S
C1949 H1961 0.930 . S
C1950 C1946 1.524 . S
C1950 H1962 0.956 . S
C1950 H1963 0.961 . S
C1950 H1964 0.961 . S
C1951 C1948 1.539 . S
C1951 H1965 0.958 . S
C1951 H1966 0.961 . S
C1951 H1967 0.960 . S
H1952 C1936 0.931 . S
H1953 C1941 0.929 . S
H1954 C1942 0.960 . S
H1955 C1942 0.962 . S
H1956 C1942 0.960 . S
H1957 C1943 0.961 . S
H1958 C1943 0.961 . S
H1959 C1943 0.961 . S
H1960 C1944 0.931 . S
H1961 C1949 0.930 . S
H1962 C1950 0.956 . S
H1963 C1950 0.961 . S
H1964 C1950 0.961 . S
H1965 C1951 0.958 . S
H1966 C1951 0.961 . S
H1967 C1951 0.960 . S
C945 C52 1.541 . S
C953 C819 1.514 . S
C977 C111 1.551 . S
C985 C583 1.515 . S
C1009 C878 1.010 . S
C1017 C170 0.996 . S
C1041 C229 0.992 . S
C1049 C937 1.018 . S
C1073 C288 1.546 . S
C1081 C406 1.522 . S
C1105 C642 1.530 . S
C1113 C347 1.531 . S
C1137 C701 1.036 . S
C1145 C465 1.023 . S
C1169 C524 1.022 . S
C1177 C760 1.017 . S
C1201 C121 1.511 . S
C1209 C3 1.489 . S
C1233 C62 1.485 . S
C1241 C180 1.485 . S
C1265 C713 1.516 . S
C1273 C5 1.587 . S
C1297 C64 1.574 . S
C1305 C654 1.542 . S
C1329 C241 1.594 . S
C1337 C123 1.540 . S
C1361 C595 1.589 . S
C1369 C182 1.552 . S
C1393 C92 2.191 . S
C1401 C33 2.197 . S
C1425 C210 1.578 . S
C1433 C151 1.585 . S
C1457 C623 2.195 . S
C1465 C269 2.195 . S
C1489 C418 1.821 . S
C1497 C328 1.858 . S
C1521 C387 1.860 . S
C1529 C477 1.834 . S
C1553 C888 1.614 . S
C1561 C300 1.666 . S
C1585 C359 1.670 . S
C1593 C829 1.642 . S
C1617 C536 1.675 . S
C1625 C416 1.647 . S
C1649 C475 1.657 . S
C1657 C772 1.674 . S
C1681 C357 1.157 . S
C1689 C298 1.159 . S
C1713 C505 1.866 . S
C1721 C446 1.862 . S
C1745 C534 1.103 . S
C1753 C770 1.149 . S
C1777 C593 1.470 . S
C1785 C652 1.496 . S
C1809 C711 1.511 . S
C1817 C239 1.489 . S
C1841 C741 1.579 . S
C1849 C682 1.585 . S
C1873 C831 1.818 . S
C1881 C800 1.859 . S
C1905 C564 1.838 . S
C1913 C890 1.845 . S
C1937 C918 1.873 . S
C1945 C859 1.868 . S
