# Generated by pormake.
# Topology umw, (4)-cn, num edge types: 1
# Building blocks:
#     Node 0, Type 0, BuildingBlock: ICAMEG_clean_sbu_1, # of connection points: 4
#     Node 1, Type 0, BuildingBlock: ICAMEG_clean_sbu_1, # of connection points: 4
#     Node 2, Type 0, BuildingBlock: ICAMEG_clean_sbu_1, # of connection points: 4
#     Node 3, Type 0, BuildingBlock: ICAMEG_clean_sbu_1, # of connection points: 4
#     Node 4, Type 0, BuildingBlock: ICAMEG_clean_sbu_1, # of connection points: 4
#     Node 5, Type 0, BuildingBlock: ICAMEG_clean_sbu_1, # of connection points: 4
#     Node 6, Type 0, BuildingBlock: ICAMEG_clean_sbu_1, # of connection points: 4
#     Node 7, Type 0, BuildingBlock: ICAMEG_clean_sbu_1, # of connection points: 4
#     Edge 8, Type (0, 0), BuildingBlock: XUDNAN_clean_linker_2, # of connection points: 2
#     Edge 9, Type (0, 0), BuildingBlock: XUDNAN_clean_linker_2, # of connection points: 2
#     Edge 10, Type (0, 0), BuildingBlock: XUDNAN_clean_linker_2, # of connection points: 2
#     Edge 11, Type (0, 0), BuildingBlock: XUDNAN_clean_linker_2, # of connection points: 2
#     Edge 12, Type (0, 0), BuildingBlock: XUDNAN_clean_linker_2, # of connection points: 2
#     Edge 13, Type (0, 0), BuildingBlock: XUDNAN_clean_linker_2, # of connection points: 2
#     Edge 14, Type (0, 0), BuildingBlock: XUDNAN_clean_linker_2, # of connection points: 2
#     Edge 15, Type (0, 0), BuildingBlock: XUDNAN_clean_linker_2, # of connection points: 2
#     Edge 16, Type (0, 0), BuildingBlock: XUDNAN_clean_linker_2, # of connection points: 2
#     Edge 17, Type (0, 0), BuildingBlock: XUDNAN_clean_linker_2, # of connection points: 2
#     Edge 18, Type (0, 0), BuildingBlock: XUDNAN_clean_linker_2, # of connection points: 2
#     Edge 19, Type (0, 0), BuildingBlock: XUDNAN_clean_linker_2, # of connection points: 2
#     Edge 20, Type (0, 0), BuildingBlock: XUDNAN_clean_linker_2, # of connection points: 2
#     Edge 21, Type (0, 0), BuildingBlock: XUDNAN_clean_linker_2, # of connection points: 2
#     Edge 22, Type (0, 0), BuildingBlock: XUDNAN_clean_linker_2, # of connection points: 2
#     Edge 23, Type (0, 0), BuildingBlock: XUDNAN_clean_linker_2, # of connection points: 2
# Relax obj value: 0.119
# Max RMSD: 0.128
# Mean RMSD: 0.128
data_MOF--net-umw--node1-ICAMEG_clean_sbu_1--edge1-XUDNAN_clean_linker_2
_symmetry_space_group_name_H-M    P1
_symmetry_Int_Tables_number       1
_symmetry_cell_setting            triclinic
loop_
_symmetry_equiv_pos_as_xyz
'x, y, z'
_cell_length_a     42.749897
_cell_length_b     42.824368
_cell_length_c     28.90197
_cell_angle_alpha  89.988859
_cell_angle_beta   89.908248
_cell_angle_gamma 89.967664
loop_
_atom_site_label
_atom_site_type_symbol
_atom_site_fract_x
_atom_site_fract_y
_atom_site_fract_z
_atom_type_partial_charge
Co0 Co 0.45752 0.1619 0.29035 0.0
Co1 Co 0.39128 0.16673 0.35879 0.0
O2 O 0.41534 0.17851 0.30331 0.0
C3 C 0.4255 0.16244 0.19674 0.0
O4 O 0.39812 0.16991 0.21405 0.0
C5 C 0.38836 0.23626 0.36908 0.0
O6 O 0.41893 0.23749 0.36487 0.0
O7 O 0.42713 0.1777 0.39967 0.0
O8 O 0.46858 0.16392 0.35677 0.0
H9 H 0.37612 0.11498 0.51324 0.0
H10 H 0.4336 0.21841 0.24177 0.0
O11 O 0.44918 0.15887 0.22267 0.0
H12 H 0.53137 0.25172 0.31708 0.0
H13 H 0.55805 0.15177 0.20022 0.0
H14 H 0.49798 0.11445 0.33512 0.0
H15 H 0.51291 0.19746 0.32442 0.0
H16 H 0.50598 0.17358 0.21762 0.0
O17 O 0.37419 0.21026 0.36509 0.0
H18 H 0.40505 0.12901 0.44235 0.0
H19 H 0.32674 0.18025 0.39322 0.0
H20 H 0.5501 0.09219 0.31915 0.0
H21 H 0.45138 0.27274 0.23306 0.0
H22 H 0.5805 0.11085 0.25125 0.0
H23 H 0.5006 0.28978 0.27095 0.0
O24 O 0.44246 0.11818 0.29806 0.0
H25 H 0.31368 0.18608 0.23165 0.0
H26 H 0.34932 0.11124 0.35003 0.0
H27 H 0.30524 0.0972 0.29927 0.0
H28 H 0.28705 0.13482 0.23964 0.0
H29 H 0.35802 0.19896 0.28274 0.0
H30 H 0.29706 0.16699 0.46372 0.0
H31 H 0.32173 0.13403 0.5243 0.0
O32 O 0.40685 0.12279 0.35471 0.0
C33 C 0.45631 0.17242 0.39477 0.0
C34 C 0.36508 0.12927 0.48703 0.0
C35 C 0.32073 0.15849 0.45927 0.0
N36 N 0.36757 0.1553 0.41354 0.0
C37 C 0.38132 0.13723 0.44676 0.0
C38 C 0.33768 0.16598 0.41945 0.0
C39 C 0.33458 0.13999 0.49324 0.0
C40 C 0.45522 0.22541 0.25786 0.0
N41 N 0.47237 0.20453 0.28304 0.0
C42 C 0.4651 0.25633 0.25303 0.0
C43 C 0.49268 0.26589 0.27436 0.0
C44 C 0.50995 0.24455 0.30026 0.0
C45 C 0.49933 0.21384 0.30435 0.0
C46 C 0.54507 0.1435 0.22997 0.0
C47 C 0.51115 0.12286 0.3057 0.0
C48 C 0.51553 0.15572 0.23998 0.0
N49 N 0.49901 0.14547 0.27759 0.0
C50 C 0.54062 0.1101 0.29675 0.0
C51 C 0.55765 0.12055 0.25862 0.0
C52 C 0.42439 0.10637 0.32854 0.0
C53 C 0.32138 0.16949 0.2575 0.0
C54 C 0.34181 0.12758 0.32383 0.0
C55 C 0.3167 0.11958 0.29535 0.0
C56 C 0.30648 0.14071 0.26196 0.0
N57 N 0.35634 0.15584 0.31919 0.0
C58 C 0.34641 0.17669 0.28661 0.0
Co59 Co 0.82509 0.4758 0.5852 0.0
Co60 Co 0.83932 0.39675 0.6007 0.0
O61 O 0.81692 0.43177 0.57147 0.0
C62 C 0.83631 0.47282 0.48323 0.0
O63 O 0.84651 0.44397 0.48632 0.0
C64 C 0.77388 0.38958 0.63283 0.0
O65 O 0.77322 0.42013 0.63591 0.0
O66 O 0.83995 0.41732 0.663 0.0
O67 O 0.8244 0.46674 0.65174 0.0
H68 H 0.9244 0.34712 0.69536 0.0
H69 H 0.77247 0.45863 0.5239 0.0
O70 O 0.82595 0.48714 0.51852 0.0
H71 H 0.72429 0.51489 0.65474 0.0
H72 H 0.81152 0.59206 0.56685 0.0
H73 H 0.86627 0.5085 0.65181 0.0
H74 H 0.78146 0.50775 0.65078 0.0
H75 H 0.80134 0.53672 0.54881 0.0
O76 O 0.79847 0.37595 0.61792 0.0
H77 H 0.89554 0.39096 0.66015 0.0
H78 H 0.83055 0.32769 0.60065 0.0
H79 H 0.87683 0.56354 0.67137 0.0
H80 H 0.71516 0.46551 0.5262 0.0
H81 H 0.84937 0.60577 0.62871 0.0
H82 H 0.69072 0.4937 0.5921 0.0
O83 O 0.87139 0.46877 0.58304 0.0
H84 H 0.78967 0.35873 0.45373 0.0
H85 H 0.88792 0.36602 0.54226 0.0
H86 H 0.88822 0.34103 0.46537 0.0
H87 H 0.83881 0.33721 0.4206 0.0
H88 H 0.79052 0.3838 0.5306 0.0
H89 H 0.85848 0.28319 0.63572 0.0
H90 H 0.90586 0.29277 0.68327 0.0
O91 O 0.88017 0.41693 0.58506 0.0
C92 C 0.83221 0.44428 0.6778 0.0
C93 C 0.90383 0.34264 0.67463 0.0
C94 C 0.8668 0.30676 0.6412 0.0
N95 N 0.8615 0.36187 0.62817 0.0
C96 C 0.88744 0.36736 0.65449 0.0
C97 C 0.85103 0.33206 0.62156 0.0
C98 C 0.8934 0.31215 0.66786 0.0
C99 C 0.76199 0.47116 0.55245 0.0
N100 N 0.78027 0.4828 0.58711 0.0
C101 C 0.72954 0.47489 0.55366 0.0
C102 C 0.71584 0.49068 0.59068 0.0
C103 C 0.73465 0.50255 0.62585 0.0
C104 C 0.76701 0.49836 0.6235 0.0
C105 C 0.82361 0.57387 0.58572 0.0
C106 C 0.85409 0.52674 0.63326 0.0
C107 C 0.81801 0.54249 0.57556 0.0
N108 N 0.83307 0.51938 0.59941 0.0
C109 C 0.86023 0.55786 0.64441 0.0
C110 C 0.84484 0.58155 0.62044 0.0
C111 C 0.88967 0.44512 0.58168 0.0
C112 C 0.81133 0.36018 0.47295 0.0
C113 C 0.86636 0.36454 0.52291 0.0
C114 C 0.86665 0.3503 0.47945 0.0
C115 C 0.83892 0.34814 0.45436 0.0
N116 N 0.83919 0.37622 0.54093 0.0
C117 C 0.81192 0.37424 0.51655 0.0
Co118 Co 0.53321 0.83067 0.82038 0.0
Co119 Co 0.60998 0.84656 0.84755 0.0
O120 O 0.57778 0.82038 0.81888 0.0
C121 C 0.54087 0.8214 0.71909 0.0
O122 O 0.56503 0.84033 0.71975 0.0
C123 C 0.62212 0.78539 0.89259 0.0
O124 O 0.59245 0.78525 0.90445 0.0
O125 O 0.58664 0.84792 0.90766 0.0
O126 O 0.53683 0.8481 0.88339 0.0
H127 H 0.65018 0.93827 0.93809 0.0
H128 H 0.55283 0.76648 0.79561 0.0
O129 O 0.5274 0.81367 0.75665 0.0
H130 H 0.48859 0.75506 0.93649 0.0
H131 H 0.41887 0.80984 0.7922 0.0
H132 H 0.496 0.8854 0.85142 0.0
H133 H 0.497 0.80691 0.90154 0.0
H134 H 0.47515 0.79722 0.79185 0.0
O135 O 0.63304 0.80794 0.86865 0.0
H136 H 0.6097 0.90499 0.90269 0.0
H137 H 0.67953 0.8428 0.853 0.0
H138 H 0.43995 0.89886 0.85288 0.0
H139 H 0.54469 0.71409 0.82911 0.0
H140 H 0.40092 0.86095 0.82304 0.0
H141 H 0.51246 0.70817 0.90015 0.0
O142 O 0.5416 0.87303 0.79491 0.0
H143 H 0.65639 0.79461 0.70753 0.0
H144 H 0.63968 0.89493 0.7876 0.0
H145 H 0.66743 0.8942 0.71274 0.0
H146 H 0.67601 0.84375 0.67223 0.0
H147 H 0.62849 0.79647 0.78228 0.0
H148 H 0.72074 0.87518 0.88846 0.0
H149 H 0.70616 0.92339 0.93115 0.0
O150 O 0.58774 0.88563 0.82719 0.0
C151 C 0.55743 0.85183 0.91444 0.0
C152 C 0.65683 0.91735 0.91951 0.0
C153 C 0.69643 0.88192 0.8917 0.0
N154 N 0.64226 0.87209 0.87557 0.0
C155 C 0.63402 0.89846 0.89928 0.0
C156 C 0.67299 0.86362 0.87183 0.0
C157 C 0.68824 0.90898 0.91562 0.0
C158 C 0.53848 0.76401 0.82622 0.0
N159 N 0.52525 0.78967 0.84639 0.0
C160 C 0.53407 0.73432 0.84516 0.0
C161 C 0.51602 0.73103 0.88506 0.0
C162 C 0.50263 0.75732 0.90547 0.0
C163 C 0.50754 0.78664 0.88557 0.0
C164 C 0.43564 0.82657 0.80527 0.0
C165 C 0.47919 0.86873 0.83855 0.0
C166 C 0.46756 0.8196 0.80499 0.0
N167 N 0.48888 0.84056 0.82156 0.0
C168 C 0.44746 0.87651 0.83939 0.0
C169 C 0.42558 0.85524 0.82261 0.0
C170 C 0.56275 0.89287 0.80539 0.0
C171 C 0.65286 0.81673 0.72489 0.0
C172 C 0.64321 0.87291 0.7701 0.0
C173 C 0.65901 0.87263 0.72777 0.0
C174 C 0.66383 0.84431 0.70508 0.0
N175 N 0.63259 0.84575 0.78935 0.0
C176 C 0.63717 0.81791 0.76728 0.0
Co177 Co 0.18559 0.52236 0.07745 0.0
Co178 Co 0.17577 0.60242 0.08903 0.0
O179 O 0.19634 0.56556 0.06191 0.0
C180 C 0.17593 0.52105 0.97654 0.0
O181 O 0.16135 0.54798 0.97946 0.0
C182 C 0.24204 0.60954 0.11573 0.0
O183 O 0.24168 0.57949 0.12454 0.0
O184 O 0.17785 0.58502 0.15317 0.0
O185 O 0.18153 0.53331 0.14299 0.0
H186 H 0.09643 0.65885 0.18657 0.0
H187 H 0.24274 0.53457 0.02243 0.0
O188 O 0.18903 0.50923 0.01179 0.0
H189 H 0.27958 0.48374 0.16547 0.0
H190 H 0.19759 0.40539 0.07017 0.0
H191 H 0.13727 0.49272 0.13668 0.0
H192 H 0.22328 0.49267 0.15254 0.0
H193 H 0.21082 0.45986 0.05055 0.0
O194 O 0.21765 0.62283 0.09962 0.0
H195 H 0.12266 0.61262 0.15348 0.0
H196 H 0.18594 0.67101 0.08022 0.0
H197 H 0.12351 0.43866 0.15774 0.0
H198 H 0.29929 0.52582 0.03378 0.0
H199 H 0.15378 0.39451 0.12438 0.0
H200 H 0.31801 0.50035 0.10582 0.0
O201 O 0.14025 0.53108 0.06866 0.0
H202 H 0.21918 0.63133 0.93323 0.0
H203 H 0.12524 0.6315 0.03247 0.0
H204 H 0.12186 0.65234 0.95308 0.0
H205 H 0.16909 0.65238 0.90289 0.0
H206 H 0.22142 0.61044 0.01276 0.0
H207 H 0.16068 0.71787 0.11302 0.0
H208 H 0.11548 0.71194 0.16641 0.0
O209 O 0.13361 0.5827 0.07999 0.0
C210 C 0.17896 0.55718 0.1686 0.0
C211 C 0.11606 0.66174 0.16325 0.0
C212 C 0.15214 0.69486 0.12202 0.0
N213 N 0.15565 0.63913 0.11472 0.0
C214 C 0.13093 0.63566 0.1443 0.0
C215 C 0.16641 0.66825 0.10366 0.0
C216 C 0.12677 0.69152 0.15196 0.0
C217 C 0.25073 0.52315 0.05361 0.0
N218 N 0.22975 0.51399 0.08662 0.0
C219 C 0.28276 0.51839 0.05995 0.0
C220 C 0.29325 0.50414 0.10041 0.0
C221 C 0.2717 0.49483 0.13391 0.0
C222 C 0.23985 0.50001 0.12643 0.0
C223 C 0.18429 0.42443 0.08505 0.0
C224 C 0.1507 0.47366 0.12227 0.0
C225 C 0.19164 0.45532 0.07401 0.0
N226 N 0.17507 0.47949 0.09288 0.0
C227 C 0.14273 0.44309 0.13421 0.0
C228 C 0.15971 0.41834 0.11546 0.0
C229 C 0.12297 0.5553 0.07226 0.0
C230 C 0.19846 0.6315 0.95479 0.0
C231 C 0.14586 0.63133 0.01079 0.0
C232 C 0.14383 0.64324 0.9659 0.0
C233 C 0.17034 0.64327 0.93777 0.0
N234 N 0.17353 0.61986 0.02723 0.0
C235 C 0.19962 0.61981 -0.00012 0.0
Co236 Co 0.47275 0.81866 0.30753 0.0
Co237 Co 0.39512 0.82548 0.27312 0.0
O238 O 0.42916 0.80398 0.30581 0.0
C239 C 0.45386 0.81643 0.40617 0.0
O240 O 0.42556 0.82494 0.39399 0.0
C241 C 0.39546 0.76224 0.22957 0.0
O242 O 0.42616 0.76246 0.23077 0.0
O243 O 0.42202 0.83264 0.21737 0.0
O244 O 0.47189 0.82562 0.23998 0.0
H245 H 0.34786 0.91236 0.17954 0.0
H246 H 0.45583 0.75773 0.3491 0.0
O247 O 0.47504 0.81218 0.37589 0.0
H248 H 0.53337 0.7333 0.22787 0.0
H249 H 0.5853 0.81558 0.3587 0.0
H250 H 0.50747 0.87031 0.26242 0.0
H251 H 0.5178 0.78779 0.24316 0.0
H252 H 0.53058 0.79745 0.35611 0.0
O253 O 0.37997 0.7852 0.24571 0.0
H254 H 0.39011 0.88489 0.221 0.0
H255 H 0.32763 0.81157 0.25649 0.0
H256 H 0.56203 0.88898 0.26353 0.0
H257 H 0.47097 0.70289 0.33533 0.0
H258 H 0.60136 0.86157 0.31198 0.0
H259 H 0.50992 0.69039 0.27421 0.0
O260 O 0.45968 0.86297 0.31854 0.0
H261 H 0.34831 0.76145 0.40132 0.0
H262 H 0.35353 0.86607 0.33042 0.0
H263 H 0.32122 0.858 0.40015 0.0
H264 H 0.31842 0.80536 0.43603 0.0
H265 H 0.3806 0.77064 0.33181 0.0
H266 H 0.28481 0.83808 0.21505 0.0
H267 H 0.29477 0.88893 0.17635 0.0
O268 O 0.40875 0.86602 0.29956 0.0
C269 C 0.45139 0.83154 0.2094 0.0
C270 C 0.34321 0.89026 0.19635 0.0
C271 C 0.30783 0.84855 0.21623 0.0
N272 N 0.36133 0.84673 0.24129 0.0
C273 C 0.36702 0.87463 0.21997 0.0
C274 C 0.33221 0.8336 0.23953 0.0
C275 C 0.31344 0.87708 0.19454 0.0
C276 C 0.47298 0.75247 0.3227 0.0
N277 N 0.48593 0.77591 0.29698 0.0
C278 C 0.48138 0.72138 0.31496 0.0
C279 C 0.50321 0.71438 0.28062 0.0
C280 C 0.51636 0.73843 0.25458 0.0
C281 C 0.50737 0.76924 0.26327 0.0
C282 C 0.56839 0.82769 0.33738 0.0
C283 C 0.5245 0.85811 0.28332 0.0
C284 C 0.53735 0.81758 0.33588 0.0
N285 N 0.51589 0.83269 0.3089 0.0
C286 C 0.55534 0.86886 0.28393 0.0
C287 C 0.57739 0.85349 0.31115 0.0
C288 C 0.43401 0.87792 0.31461 0.0
C289 C 0.34927 0.78447 0.38593 0.0
C290 C 0.35251 0.84312 0.34591 0.0
C291 C 0.33411 0.83867 0.38533 0.0
C292 C 0.33254 0.80913 0.40543 0.0
N293 N 0.36883 0.8188 0.32697 0.0
C294 C 0.3674 0.78977 0.34646 0.0
Co295 Co 0.18594 0.46222 0.57853 0.0
Co296 Co 0.16867 0.39636 0.51381 0.0
O297 O 0.19104 0.41793 0.5636 0.0
C298 C 0.16909 0.43206 0.66729 0.0
O299 O 0.15419 0.40972 0.64543 0.0
C300 C 0.23546 0.38952 0.48725 0.0
O301 O 0.23858 0.41926 0.49722 0.0
O302 O 0.17578 0.43155 0.46959 0.0
O303 O 0.18711 0.47355 0.51269 0.0
H304 H 0.09118 0.38739 0.38401 0.0
H305 H 0.236 0.42555 0.62376 0.0
O306 O 0.18434 0.45279 0.64547 0.0
H307 H 0.29047 0.50996 0.54014 0.0
H308 H 0.20586 0.55978 0.67125 0.0
H309 H 0.14814 0.5142 0.54003 0.0
H310 H 0.23291 0.50635 0.53869 0.0
H311 H 0.21281 0.50436 0.65054 0.0
O312 O 0.20894 0.37629 0.49248 0.0
H313 H 0.11911 0.41416 0.4472 0.0
H314 H 0.17155 0.33198 0.47471 0.0
H315 H 0.14071 0.5698 0.55933 0.0
H316 H 0.29362 0.42841 0.62643 0.0
H317 H 0.16965 0.59293 0.62542 0.0
H318 H 0.32122 0.4708 0.58428 0.0
O319 O 0.13944 0.4587 0.57576 0.0
H320 H 0.20034 0.3173 0.63334 0.0
H321 H 0.11278 0.35896 0.54115 0.0
H322 H 0.10309 0.31618 0.59648 0.0
H323 H 0.14709 0.29501 0.64297 0.0
H324 H 0.2089 0.36031 0.57792 0.0
H325 H 0.14436 0.30437 0.41158 0.0
H326 H 0.10377 0.33209 0.36585 0.0
O327 O 0.12815 0.41584 0.53396 0.0
C328 C 0.18244 0.46045 0.47402 0.0
C329 C 0.10873 0.37502 0.4038 0.0
C330 C 0.13862 0.32844 0.41923 0.0
N331 N 0.14675 0.37457 0.46482 0.0
C332 C 0.12455 0.39003 0.4397 0.0
C333 C 0.15398 0.34421 0.45486 0.0
C334 C 0.11584 0.34401 0.39359 0.0
C335 C 0.24786 0.4442 0.60566 0.0
N336 N 0.23112 0.4658 0.58125 0.0
C337 C 0.28048 0.44564 0.60716 0.0
C338 C 0.29595 0.46941 0.58345 0.0
C339 C 0.27871 0.49138 0.55865 0.0
C340 C 0.24613 0.48918 0.55788 0.0
C341 C 0.19317 0.54999 0.64231 0.0
C342 C 0.16101 0.52414 0.56862 0.0
C343 C 0.19698 0.51861 0.63044 0.0
N344 N 0.18107 0.50609 0.59386 0.0
C345 C 0.15663 0.55562 0.57947 0.0
C346 C 0.17285 0.56858 0.61659 0.0
C347 C 0.11997 0.43985 0.55729 0.0
C348 C 0.18099 0.32628 0.61322 0.0
C349 C 0.132 0.34998 0.56142 0.0
C350 C 0.1264 0.32569 0.59259 0.0
C351 C 0.1511 0.31381 0.61864 0.0
N352 N 0.16139 0.36205 0.55625 0.0
C353 C 0.18572 0.35055 0.58168 0.0
Co354 Co 0.52819 0.18713 0.79141 0.0
Co355 Co 0.60715 0.17291 0.7721 0.0
O356 O 0.57263 0.19496 0.80345 0.0
C357 C 0.526 0.17407 0.89304 0.0
O358 O 0.54803 0.15289 0.88866 0.0
C359 C 0.61691 0.23867 0.74515 0.0
O360 O 0.5865 0.23993 0.73938 0.0
O361 O 0.58704 0.17664 0.70987 0.0
O362 O 0.53624 0.18409 0.72473 0.0
H363 H 0.65452 0.09204 0.66727 0.0
H364 H 0.54669 0.24209 0.84705 0.0
O365 O 0.51773 0.19052 0.85855 0.0
H366 H 0.49125 0.28512 0.71178 0.0
H367 H 0.41231 0.2051 0.81 0.0
H368 H 0.49363 0.14314 0.73097 0.0
H369 H 0.49719 0.22824 0.72145 0.0
H370 H 0.46817 0.21486 0.82528 0.0
O371 O 0.62951 0.21362 0.76011 0.0
H372 H 0.6114 0.12025 0.70574 0.0
H373 H 0.67661 0.1791 0.77398 0.0
H374 H 0.43807 0.13295 0.71411 0.0
H375 H 0.54102 0.29918 0.83898 0.0
H376 H 0.39694 0.164 0.75384 0.0
H377 H 0.51324 0.32103 0.77085 0.0
O378 O 0.53448 0.14102 0.79724 0.0
H379 H 0.6457 0.21282 0.92513 0.0
H380 H 0.63621 0.12038 0.82443 0.0
H381 H 0.66074 0.11499 0.90121 0.0
H382 H 0.66568 0.16147 0.95209 0.0
H383 H 0.62103 0.21704 0.84821 0.0
H384 H 0.72042 0.1518 0.73577 0.0
H385 H 0.70949 0.10782 0.68216 0.0
O386 O 0.5855 0.13202 0.78242 0.0
C387 C 0.55883 0.18039 0.69688 0.0
C388 C 0.65958 0.11111 0.69065 0.0
C389 C 0.69657 0.14468 0.72905 0.0
N390 N 0.6415 0.15114 0.7423 0.0
C391 C 0.63527 0.1271 0.71265 0.0
C392 C 0.67167 0.16011 0.75048 0.0
C393 C 0.69042 0.12 0.69899 0.0
C394 C 0.53429 0.25144 0.81757 0.0
N395 N 0.52219 0.23184 0.78488 0.0
C396 C 0.53127 0.28377 0.81307 0.0
C397 C 0.51572 0.29602 0.7748 0.0
C398 C 0.5034 0.27588 0.74163 0.0
C399 C 0.50691 0.24368 0.74723 0.0
C400 C 0.43 0.19136 0.79255 0.0
C401 C 0.47589 0.1568 0.74838 0.0
C402 C 0.46168 0.19666 0.80128 0.0
N403 N 0.48418 0.17952 0.77921 0.0
C404 C 0.44446 0.15089 0.7387 0.0
C405 C 0.4214 0.16832 0.76101 0.0
C406 C 0.55779 0.12265 0.79154 0.0
C407 C 0.64372 0.19241 0.90325 0.0
C408 C 0.63811 0.14065 0.84649 0.0
C409 C 0.65211 0.13749 0.88986 0.0
C410 C 0.6549 0.16358 0.91838 0.0
N411 N 0.62725 0.16901 0.83189 0.0
C412 C 0.62986 0.19469 0.85964 0.0
Co413 Co 0.82753 0.53854 0.07387 0.0
Co414 Co 0.84372 0.61185 0.02909 0.0
O415 O 0.81995 0.58335 0.06868 0.0
C416 C 0.83564 0.55995 0.16962 0.0
O417 O 0.85123 0.58388 0.15307 0.0
C418 C 0.794 0.6412 0.9715 0.0
O419 O 0.81199 0.63597 0.93543 0.0
O420 O 0.83975 0.58303 0.97477 0.0
O421 O 0.83326 0.53533 0.00636 0.0
H422 H 0.92607 0.64113 0.91266 0.0
H423 H 0.77112 0.56566 0.11787 0.0
O424 O 0.8229 0.54044 0.14241 0.0
H425 H 0.73153 0.48964 0.00399 0.0
H426 H 0.80775 0.43079 0.13727 0.0
H427 H 0.87218 0.49391 0.03102 0.0
H428 H 0.78827 0.49752 0.01415 0.0
H429 H 0.79846 0.48736 0.12915 0.0
O430 O 0.80289 0.63271 0.01182 0.0
H431 H 0.89541 0.60505 0.9614 0.0
H432 H 0.8422 0.68094 0.01411 0.0
H433 H 0.88203 0.43736 0.03757 0.0
H434 H 0.71416 0.55833 0.10915 0.0
H435 H 0.8497 0.40539 0.09109 0.0
H436 H 0.69406 0.5201 0.05183 0.0
O437 O 0.87334 0.54512 0.08044 0.0
H438 H 0.80417 0.67126 0.16731 0.0
H439 H 0.89717 0.64486 0.07403 0.0
H440 H 0.903 0.67829 0.1429 0.0
H441 H 0.85626 0.69175 0.19003 0.0
H442 H 0.79943 0.63758 0.09849 0.0
H443 H 0.8722 0.71783 0.9658 0.0
H444 H 0.91451 0.69796 0.91466 0.0
O445 O 0.88425 0.59098 0.04592 0.0
C446 C 0.83746 0.55336 0.97202 0.0
C447 C 0.90768 0.65007 0.93478 0.0
C448 C 0.87746 0.69312 0.96462 0.0
N449 N 0.86704 0.64086 0.99054 0.0
C450 C 0.89025 0.62975 0.96246 0.0
C451 C 0.86055 0.67213 0.99188 0.0
C452 C 0.90119 0.68196 0.93593 0.0
C453 C 0.76251 0.54883 0.0931 0.0
N454 N 0.78294 0.5319 0.06677 0.0
C455 C 0.73025 0.54485 0.08821 0.0
C456 C 0.71899 0.52342 0.056 0.0
C457 C 0.74 0.50633 0.02913 0.0
C458 C 0.77209 0.51095 0.03495 0.0
C459 C 0.82195 0.44445 0.11375 0.0
C460 C 0.85784 0.48013 0.05403 0.0
C461 C 0.81684 0.47651 0.10907 0.0
N462 N 0.83462 0.49391 0.07934 0.0
C463 C 0.8636 0.44813 0.05775 0.0
C464 C 0.84548 0.43021 0.08782 0.0
C465 C 0.8926 0.56571 0.06598 0.0
C466 C 0.82469 0.66565 0.14695 0.0
C467 C 0.87673 0.65051 0.09442 0.0
C468 C 0.88017 0.66953 0.13332 0.0
C469 C 0.85393 0.6771 0.15973 0.0
N470 N 0.84795 0.63941 0.08205 0.0
C471 C 0.82213 0.64672 0.10779 0.0
H472 H 0.44075 0.18425 0.48547 0.0
H473 H 0.5201 0.16648 0.39494 0.0
H474 H 0.55557 0.16905 0.46154 0.0
H475 H 0.48052 0.2379 0.56347 0.0
H476 H 0.46087 0.22287 0.614 0.0
H477 H 0.44176 0.22167 0.55852 0.0
H478 H 0.43391 0.16187 0.56719 0.0
H479 H 0.45299 0.16296 0.62264 0.0
H480 H 0.46737 0.13729 0.578 0.0
H481 H 0.58257 0.17106 0.53901 0.0
H482 H 0.59809 0.17237 0.62163 0.0
H483 H 0.50091 0.18816 0.65958 0.0
C484 C 0.4656 0.18129 0.4795 0.0
C485 C 0.47751 0.17543 0.43484 0.0
C486 C 0.51025 0.17126 0.42873 0.0
C487 C 0.53072 0.17265 0.46636 0.0
C488 C 0.51819 0.17819 0.50995 0.0
C489 C 0.4864 0.18247 0.51669 0.0
C490 C 0.47876 0.18675 0.56727 0.0
C491 C 0.46465 0.21923 0.57633 0.0
C492 C 0.45698 0.16066 0.58479 0.0
C493 C 0.51113 0.1839 0.58775 0.0
C494 C 0.53366 0.17912 0.55433 0.0
C495 C 0.56516 0.17502 0.56559 0.0
C496 C 0.57377 0.17577 0.61249 0.0
C497 C 0.55085 0.18048 0.64718 0.0
C498 C 0.51923 0.18471 0.6342 0.0
H499 H 0.79531 0.4844 0.72543 0.0
H500 H 0.87491 0.42239 0.74045 0.0
H501 H 0.88569 0.44526 0.81758 0.0
H502 H 0.83 0.55034 0.77166 0.0
H503 H 0.79566 0.56463 0.80113 0.0
H504 H 0.79162 0.54092 0.75005 0.0
H505 H 0.75715 0.50127 0.7947 0.0
H506 H 0.76017 0.52533 0.84561 0.0
H507 H 0.7713 0.48476 0.84811 0.0
H508 H 0.89068 0.47854 0.88844 0.0
H509 H 0.88519 0.51455 0.9547 0.0
H510 H 0.80253 0.55532 0.89256 0.0
C511 C 0.81459 0.47512 0.74544 0.0
C512 C 0.83434 0.45168 0.72728 0.0
C513 C 0.85931 0.44004 0.75423 0.0
C514 C 0.86577 0.45315 0.79769 0.0
C515 C 0.84679 0.4775 0.81339 0.0
C516 C 0.82129 0.48788 0.78856 0.0
C517 C 0.80505 0.51491 0.81233 0.0
C518 C 0.80564 0.54444 0.78198 0.0
C519 C 0.77143 0.50603 0.82601 0.0
C520 C 0.82572 0.51856 0.85433 0.0
C521 C 0.84971 0.49679 0.85411 0.0
C522 C 0.87188 0.49547 0.88917 0.0
C523 C 0.86869 0.51607 0.92637 0.0
C524 C 0.8436 0.5376 0.92812 0.0
C525 C 0.82221 0.53939 0.89131 0.0
H526 H 0.50326 0.80789 0.1672 0.0
H527 H 0.42651 0.87284 0.14735 0.0
H528 H 0.4503 0.89016 0.07354 0.0
H529 H 0.56477 0.85556 0.11954 0.0
H530 H 0.58433 0.82336 0.0916 0.0
H531 H 0.56203 0.81685 0.1437 0.0
H532 H 0.52855 0.77495 0.10198 0.0
H533 H 0.55126 0.78082 0.05024 0.0
H534 H 0.50931 0.78482 0.04846 0.0
H535 H 0.48215 0.90026 0.00296 0.0
H536 H 0.51483 0.89634 0.93291 0.0
H537 H 0.5704 0.82377 -0.00255 0.0
C538 C 0.49147 0.82577 0.14731 0.0
C539 C 0.46318 0.83923 0.16293 0.0
C540 C 0.44811 0.86216 0.13572 0.0
C541 C 0.46165 0.87238 0.09417 0.0
C542 C 0.49003 0.8592 0.08041 0.0
C543 C 0.50443 0.83592 0.10563 0.0
C544 C 0.5336 0.82401 0.08158 0.0
C545 C 0.56292 0.83033 0.11086 0.0
C546 C 0.53048 0.78909 0.06986 0.0
C547 C 0.53325 0.84404 0.03845 0.0
C548 C 0.50821 0.86458 0.03904 0.0
C549 C 0.50189 0.88444 0.00219 0.0
C550 C 0.52066 0.88216 0.96273 0.0
C551 C 0.54523 0.86002 0.96029 0.0
C552 C 0.55234 0.84148 -0.00085 0.0
H553 H 0.16926 0.44453 0.38427 0.0
H554 H 0.19826 0.52242 0.47055 0.0
H555 H 0.19784 0.55701 0.40265 0.0
H556 H 0.21513 0.46514 0.28531 0.0
H557 H 0.1857 0.45281 0.24464 0.0
H558 H 0.18815 0.43444 0.30052 0.0
H559 H 0.12986 0.44814 0.31576 0.0
H560 H 0.12748 0.46684 0.26004 0.0
H561 H 0.11721 0.48821 0.31162 0.0
H562 H 0.19463 0.58336 0.32421 0.0
H563 H 0.19158 0.59756 0.24095 0.0
H564 H 0.16414 0.50232 0.20929 0.0
C565 C 0.17568 0.46879 0.38895 0.0
C566 C 0.18383 0.48062 0.43273 0.0
C567 C 0.19196 0.51266 0.4373 0.0
C568 C 0.19169 0.53262 0.39899 0.0
C569 C 0.18317 0.52026 0.35642 0.0
C570 C 0.17547 0.48906 0.3512 0.0
C571 C 0.16767 0.4814 0.3017 0.0
C572 C 0.19053 0.45702 0.28189 0.0
C573 C 0.13353 0.47052 0.29703 0.0
C574 C 0.1725 0.51306 0.27995 0.0
C575 C 0.18122 0.53534 0.31181 0.0
C576 C 0.18769 0.56612 0.29886 0.0
C577 C 0.18579 0.57403 0.25171 0.0
C578 C 0.17776 0.55105 0.21866 0.0
C579 C 0.17047 0.52049 0.23346 0.0
H580 H 0.32545 0.23995 0.38792 0.0
H581 H 0.40987 0.29617 0.38272 0.0
H582 H 0.37986 0.34171 0.41124 0.0
H583 H 0.27123 0.30058 0.35213 0.0
H584 H 0.24075 0.28742 0.39064 0.0
H585 H 0.26866 0.2599 0.36776 0.0
H586 H 0.28291 0.24276 0.45107 0.0
H587 H 0.25518 0.27032 0.47422 0.0
H588 H 0.29548 0.2717 0.49234 0.0
H589 H 0.34061 0.38076 0.44319 0.0
H590 H 0.29554 0.41023 0.47418 0.0
H591 H 0.23705 0.328 0.45917 0.0
C592 C 0.33769 0.26187 0.39227 0.0
C593 C 0.37013 0.2644 0.38288 0.0
C594 C 0.38508 0.29359 0.38947 0.0
C595 C 0.36821 0.3196 0.40574 0.0
C596 C 0.33638 0.3161 0.41531 0.0
C597 C 0.32127 0.28796 0.40862 0.0
C598 C 0.28711 0.29003 0.42255 0.0
C599 C 0.26568 0.28414 0.38077 0.0
C600 C 0.27975 0.26736 0.46241 0.0
C601 C 0.28531 0.32371 0.4384 0.0
C602 C 0.31395 0.33839 0.43387 0.0
C603 C 0.31807 0.3695 0.44668 0.0
C604 C 0.29228 0.38605 0.46432 0.0
C605 C 0.26264 0.37153 0.46914 0.0
C606 C 0.25931 0.33987 0.45598 0.0
H607 H 0.77089 0.32676 0.65428 0.0
H608 H 0.71463 0.41108 0.64745 0.0
H609 H 0.66898 0.38183 0.67652 0.0
H610 H 0.71015 0.27269 0.61949 0.0
H611 H 0.72245 0.24242 0.65881 0.0
H612 H 0.75064 0.26977 0.63631 0.0
H613 H 0.76672 0.28441 0.71989 0.0
H614 H 0.73844 0.25725 0.74263 0.0
H615 H 0.73729 0.29764 0.76012 0.0
H616 H 0.62919 0.34364 0.70549 0.0
H617 H 0.59792 0.29893 0.73316 0.0
H618 H 0.67997 0.23941 0.72453 0.0
C619 C 0.74889 0.33899 0.65856 0.0
C620 C 0.74634 0.37124 0.64839 0.0
C621 C 0.71721 0.38644 0.655 0.0
C622 C 0.69111 0.37001 0.67151 0.0
C623 C 0.69446 0.33839 0.68166 0.0
C624 C 0.72258 0.32298 0.67555 0.0
C625 C 0.71988 0.28897 0.68995 0.0
C626 C 0.72615 0.26718 0.64867 0.0
C627 C 0.74189 0.28165 0.73057 0.0
C628 C 0.68583 0.28769 0.7049 0.0
C629 C 0.67162 0.31646 0.69963 0.0
C630 C 0.6401 0.32103 0.70995 0.0
C631 C 0.62251 0.29547 0.72565 0.0
C632 C 0.63649 0.26572 0.73131 0.0
C633 C 0.66869 0.26195 0.72115 0.0
H634 H 0.77995 0.68444 0.90458 0.0
H635 H 0.74175 0.63901 0.02631 0.0
H636 H 0.69283 0.66941 0.01753 0.0
H637 H 0.74876 0.7602 0.93058 0.0
H638 H 0.74133 0.77021 0.87103 0.0
H639 H 0.77244 0.74352 0.8852 0.0
H640 H 0.74834 0.70203 0.83065 0.0
H641 H 0.71712 0.7286 0.81633 0.0
H642 H 0.70819 0.69034 0.83872 0.0
H643 H 0.64767 0.70445 -0.00543 0.0
H644 H 0.61165 0.74444 0.96364 0.0
H645 H 0.68069 0.7697 0.85994 0.0
C646 C 0.76114 0.68064 0.92908 0.0
C647 C 0.76448 0.65905 0.96583 0.0
C648 C 0.73963 0.65531 -0.00219 0.0
C649 C 0.71174 0.67242 0.99301 0.0
C650 C 0.70922 0.69356 0.95644 0.0
C651 C 0.7334 0.698 0.92534 0.0
C652 C 0.72544 0.72341 0.89067 0.0
C653 C 0.74835 0.75096 0.89463 0.0
C654 C 0.72473 0.7103 0.84116 0.0
C655 C 0.69294 0.73251 0.90695 0.0
C656 C 0.68387 0.71475 0.94459 0.0
C657 C 0.65461 0.71857 0.96524 0.0
C658 C 0.63425 0.7413 0.9473 0.0
C659 C 0.64332 0.76032 0.90945 0.0
C660 C 0.67309 0.75568 0.88905 0.0
H661 H 0.24517 0.67242 0.13364 0.0
H662 H 0.30202 0.58859 0.12651 0.0
H663 H 0.34823 0.6189 0.15151 0.0
H664 H 0.30481 0.72775 0.0953 0.0
H665 H 0.2923 0.75763 0.13518 0.0
H666 H 0.26443 0.72983 0.11314 0.0
H667 H 0.24934 0.71456 0.197 0.0
H668 H 0.27725 0.74219 0.21925 0.0
H669 H 0.27939 0.70178 0.23642 0.0
H670 H 0.38821 0.65846 0.17926 0.0
H671 H 0.41782 0.7034 0.21062 0.0
H672 H 0.334 0.76042 0.203 0.0
C673 C 0.26746 0.66055 0.13657 0.0
C674 C 0.27008 0.6282 0.12768 0.0
C675 C 0.29951 0.61339 0.13298 0.0
C676 C 0.3259 0.63042 0.14708 0.0
C677 C 0.32245 0.66221 0.15618 0.0
C678 C 0.29393 0.6771 0.15131 0.0
C679 C 0.29602 0.71102 0.16587 0.0
C680 C 0.28898 0.73284 0.12493 0.0
C681 C 0.27421 0.71776 0.20709 0.0
C682 C 0.3301 0.71286 0.17992 0.0
C683 C 0.34509 0.68459 0.17363 0.0
C684 C 0.37669 0.68072 0.18429 0.0
C685 C 0.39334 0.70637 0.20203 0.0
C686 C 0.37826 0.73539 0.20947 0.0
C687 C 0.34623 0.73851 0.19803 0.0
H688 H 0.46938 0.92675 0.28243 0.0
H689 H 0.39393 0.90302 0.37636 0.0
H690 H 0.38581 0.95895 0.39358 0.0
H691 H 0.49913 0.99603 0.34639 0.0
H692 H 0.50648 0.01783 0.29413 0.0
H693 H 0.50933 0.97582 0.29376 0.0
H694 H 0.46938 0.97351 0.22658 0.0
H695 H 0.46618 0.01544 0.22701 0.0
H696 H 0.43163 0.99173 0.23355 0.0
H697 H 0.38343 0.01655 0.39703 0.0
H698 H 0.3859 0.07326 0.386 0.0
H699 H 0.46118 0.06123 0.28619 0.0
C700 C 0.45184 0.93348 0.30762 0.0
C701 C 0.43261 0.91082 0.32891 0.0
C702 C 0.40906 0.92021 0.36032 0.0
C703 C 0.40431 0.95184 0.37026 0.0
C704 C 0.42311 0.97378 0.34801 0.0
C705 C 0.4464 0.96516 0.31732 0.0
C706 C 0.46134 0.99372 0.29528 0.0
C707 C 0.49614 0.99598 0.30817 0.0
C708 C 0.45685 0.99358 0.24248 0.0
C709 C 0.44248 0.0196 0.31794 0.0
C710 C 0.42085 0.00745 0.3486 0.0
C711 C 0.40033 0.0264 0.37325 0.0
C712 C 0.40188 0.05869 0.3665 0.0
C713 C 0.42358 0.07194 0.33489 0.0
C714 C 0.44423 0.05196 0.31044 0.0
H715 H 0.93612 0.40269 0.56016 0.0
H716 H 0.92098 0.50028 0.59461 0.0
H717 H 0.97791 0.50933 0.592 0.0
H718 H 0.00589 0.39188 0.62602 0.0
H719 H 0.0246 0.36707 0.58387 0.0
H720 H 0.98256 0.36816 0.58783 0.0
H721 H 0.97907 0.38266 0.50096 0.0
H722 H 0.02111 0.38152 0.49669 0.0
H723 H 1.00014 0.41619 0.47969 0.0
H724 H 0.03667 0.50735 0.58951 0.0
H725 H 0.09285 0.49541 0.5817 0.0
H726 H 0.07008 0.3997 0.54527 0.0
C727 C 0.94472 0.42601 0.56696 0.0
C728 C 0.9239 0.45076 0.57766 0.0
C729 C 0.93628 0.48093 0.58614 0.0
C730 C 0.96866 0.48631 0.5849 0.0
C731 C 0.98846 0.46139 0.57465 0.0
C732 C 0.97699 0.43191 0.56531 0.0
C733 C 0.00338 0.40927 0.55473 0.0
C734 C 0.00414 0.38252 0.59023 0.0
C735 C 1.00076 0.39667 0.50506 0.0
C736 C 0.03149 0.43058 0.55998 0.0
C737 C 0.02234 0.46048 0.57181 0.0
C738 C 0.04409 0.48407 0.5799 0.0
C739 C 0.07601 0.477 0.57553 0.0
C740 C 0.08604 0.44663 0.56268 0.0
C741 C 0.06329 0.4232 0.55478 0.0
H742 H 0.60413 0.94205 0.81151 0.0
H743 H 0.50746 0.92008 0.77875 0.0
H744 H 0.49565 0.97628 0.77286 0.0
H745 H 0.58967 0.00849 0.8805 0.0
H746 H 0.62262 0.03056 0.85938 0.0
H747 H 0.624 0.98853 0.85946 0.0
H748 H 0.63599 0.98844 0.77156 0.0
H749 H 0.635 0.03051 0.77129 0.0
H750 H 0.61018 0.00881 0.73257 0.0
H751 H 0.4933 0.03503 0.77678 0.0
H752 H 0.50209 0.09194 0.78026 0.0
H753 H 0.60084 0.07576 0.80587 0.0
C754 C 0.58055 0.94896 0.80247 0.0
C755 C 0.55671 0.92646 0.79586 0.0
C756 C 0.52619 0.9367 0.78403 0.0
C757 C 0.51918 0.96865 0.78076 0.0
C758 C 0.54302 0.99015 0.78867 0.0
C759 C 0.57323 0.98076 0.79836 0.0
C760 C 0.59462 0.00865 0.80493 0.0
C761 C 0.60854 0.00907 0.85399 0.0
C762 C 0.62047 0.00912 0.76788 0.0
C763 C 0.5716 0.03519 0.79804 0.0
C764 C 0.54191 0.02401 0.78913 0.0
C765 C 0.51653 0.04406 0.78319 0.0
C766 C 0.52173 0.07639 0.78553 0.0
C767 C 0.55217 0.08844 0.79314 0.0
C768 C 0.57732 0.06739 0.7997 0.0
H769 H 0.94254 0.60654 0.05887 0.0
H770 H 0.91962 0.50895 0.08223 0.0
H771 H 0.97562 0.49598 0.08387 0.0
H772 H 0.00923 0.5944 0.98606 0.0
H773 H 0.03189 0.62577 0.01056 0.0
H774 H 0.98979 0.62783 0.01084 0.0
H775 H 0.99007 0.63543 0.09977 0.0
H776 H 0.03218 0.6336 0.09972 0.0
H777 H 0.00995 0.60736 0.13576 0.0
H778 H 0.03366 0.49278 0.07935 0.0
H779 H 0.09067 0.50031 0.07755 0.0
H780 H 0.07708 0.60035 0.06204 0.0
C781 C 0.94929 0.58247 0.06457 0.0
C782 C 0.92651 0.55877 0.07023 0.0
C783 C 0.93645 0.52759 0.07786 0.0
C784 C 0.96828 0.51991 0.07867 0.0
C785 C 0.99005 0.5437 0.07247 0.0
C786 C 0.9811 0.57442 0.06632 0.0
C787 C 0.00948 0.59553 0.06192 0.0
C788 C 0.01013 0.61184 0.01452 0.0
C789 C 0.01047 0.61939 0.10166 0.0
C790 C 0.03568 0.57177 0.06616 0.0
C791 C 0.02385 0.542 0.07172 0.0
C792 C 0.04325 0.51601 0.07539 0.0
C793 C 0.07568 0.52056 0.07414 0.0
C794 C 0.08854 0.55095 0.06984 0.0
C795 C 0.0681 0.57684 0.06553 0.0
H796 H 0.534 0.14234 0.97547 0.0
H797 H 0.47497 0.2112 0.90794 0.0
H798 H 0.43997 0.2117 0.97531 0.0
H799 H 0.47264 0.09941 0.03221 0.0
H800 H 0.49433 0.09342 0.08491 0.0
H801 H 0.51476 0.09747 0.03067 0.0
H802 H 0.54725 0.14338 0.06409 0.0
H803 H 0.52731 0.13893 0.11858 0.0
H804 H 0.52725 0.17621 0.08965 0.0
H805 H 0.4105 0.20441 0.04963 0.0
H806 H 0.39337 0.19522 0.13041 0.0
H807 H 0.47216 0.13274 0.15042 0.0
C808 C 0.51381 0.15761 0.97493 0.0
C809 C 0.50716 0.17641 0.936 0.0
C810 C 0.48056 0.19629 0.93698 0.0
C811 C 0.46035 0.19669 0.9751 0.0
C812 C 0.46712 0.17736 0.01236 0.0
C813 C 0.4935 0.15862 0.01304 0.0
C814 C 0.49616 0.1413 0.05851 0.0
C815 C 0.49436 0.1058 0.05111 0.0
C816 C 0.52627 0.15052 0.08422 0.0
C817 C 0.4673 0.1534 0.08316 0.0
C818 C 0.45057 0.17381 0.05574 0.0
C819 C 0.42336 0.18842 0.0715 0.0
C820 C 0.41363 0.18289 0.11722 0.0
C821 C 0.43139 0.16327 0.14649 0.0
C822 C 0.45806 0.1478 0.1287 0.0
H823 H 0.82799 0.50324 0.21107 0.0
H824 H 0.84482 0.6012 0.24057 0.0
H825 H 0.84733 0.58902 0.32423 0.0
H826 H 0.78034 0.48592 0.31043 0.0
H827 H 0.79702 0.44768 0.31893 0.0
H828 H 0.79553 0.46435 0.26175 0.0
H829 H 0.85537 0.45677 0.25332 0.0
H830 H 0.85713 0.44025 0.31059 0.0
H831 H 0.88118 0.47339 0.296 0.0
H832 H 0.84682 0.5665 0.40373 0.0
H833 H 0.84532 0.53508 0.47497 0.0
H834 H 0.83196 0.45091 0.39368 0.0
C835 C 0.83185 0.52221 0.23516 0.0
C836 C 0.83586 0.55326 0.21959 0.0
C837 C 0.84156 0.57732 0.25197 0.0
C838 C 0.84303 0.57061 0.29941 0.0
C839 C 0.8392 0.5397 0.31355 0.0
C840 C 0.83393 0.51585 0.28242 0.0
C841 C 0.83158 0.4845 0.30653 0.0
C842 C 0.79919 0.46976 0.29896 0.0
C843 C 0.85789 0.46243 0.29066 0.0
C844 C 0.83603 0.49447 0.35633 0.0
C845 C 0.84021 0.52645 0.35946 0.0
C846 C 0.84375 0.54146 0.40173 0.0
C847 C 0.84277 0.52338 0.44195 0.0
C848 C 0.83859 0.49057 0.43969 0.0
C849 C 0.83554 0.47588 0.39627 0.0
H850 H 0.5613 0.83286 0.62993 0.0
H851 H 0.48499 0.79144 0.70814 0.0
H852 H 0.45518 0.78426 0.63645 0.0
H853 H 0.51566 0.87468 0.55107 0.0
H854 H 0.54013 0.86753 0.50134 0.0
H855 H 0.55693 0.86757 0.5584 0.0
H856 H 0.57883 0.81186 0.54508 0.0
H857 H 0.56237 0.81178 0.4877 0.0
H858 H 0.55266 0.781 0.52777 0.0
H859 H 0.43063 0.78778 0.55815 0.0
H860 H 0.41628 0.79499 0.47578 0.0
H861 H 0.50956 0.82984 0.44709 0.0
C862 C 0.53859 0.82173 0.63187 0.0
C863 C 0.52549 0.81298 0.67488 0.0
C864 C 0.49563 0.79851 0.67581 0.0
C865 C 0.47838 0.79432 0.63519 0.0
C866 C 0.49149 0.80411 0.59363 0.0
C867 C 0.52119 0.81685 0.59141 0.0
C868 C 0.52955 0.82571 0.54216 0.0
C869 C 0.53593 0.86096 0.53803 0.0
C870 C 0.55751 0.80643 0.52465 0.0
C871 C 0.49964 0.81668 0.51747 0.0
C872 C 0.47788 0.80451 0.54786 0.0
C873 C 0.44768 0.79666 0.53376 0.0
C874 C 0.43965 0.80099 0.48714 0.0
C875 C 0.46194 0.81254 0.4553 0.0
C876 C 0.49229 0.82038 0.47071 0.0
H877 H 0.163 0.54043 0.88805 0.0
H878 H 0.18418 0.45812 0.96997 0.0
H879 H 0.17937 0.42516 0.90067 0.0
H880 H 0.10724 0.50373 0.80982 0.0
H881 H 0.12095 0.52511 0.76004 0.0
H882 H 0.12367 0.5422 0.81686 0.0
H883 H 0.18336 0.55032 0.80557 0.0
H884 H 0.1806 0.53363 0.74862 0.0
H885 H 0.20755 0.51742 0.79007 0.0
H886 H 0.17331 0.40093 0.82179 0.0
H887 H 0.17239 0.38894 0.73758 0.0
H888 H 0.15715 0.48703 0.70814 0.0
C889 C 0.1664 0.51547 0.89138 0.0
C890 C 0.17389 0.50188 0.93432 0.0
C891 C 0.17859 0.46913 0.9373 0.0
C892 C 0.17563 0.4501 0.89823 0.0
C893 C 0.16814 0.46417 0.85637 0.0
C894 C 0.16396 0.49614 0.85257 0.0
C895 C 0.15832 0.50566 0.80299 0.0
C896 C 0.12559 0.52002 0.7971 0.0
C897 C 0.184 0.52807 0.78582 0.0
C898 C 0.16054 0.47417 0.7796 0.0
C899 C 0.1656 0.45037 0.81091 0.0
C900 C 0.16922 0.41933 0.79686 0.0
C901 C 0.16853 0.41266 0.74925 0.0
C902 C 0.16485 0.4371 0.71697 0.0
C903 C 0.16012 0.46798 0.73244 0.0
loop_
_geom_bond_atom_site_label_1
_geom_bond_atom_site_label_2
_geom_bond_distance
_geom_bond_site_symmetry_2
_ccdc_geom_bond_type
Co0 O2 2.143 . S
Co0 O8 2.074 . S
Co0 O11 2.093 . S
Co0 O24 2.097 . S
Co0 N41 2.151 . S
Co0 N49 2.214 . S
Co1 O2 2.160 . S
Co1 O7 2.058 . S
Co1 O17 2.057 . S
Co1 O32 2.037 . S
Co1 N36 2.145 . S
Co1 N57 2.257 . S
O2 Co0 2.143 . S
O2 Co1 2.160 . S
C3 O4 1.278 . S
C3 O11 1.224 . S
O4 C3 1.278 . S
C5 O6 1.245 . S
C5 O17 1.232 . S
O6 C5 1.245 . S
O7 Co1 2.058 . S
O7 C33 1.269 . S
O8 Co0 2.074 . S
O8 C33 1.257 . S
H9 C34 0.930 . S
H10 C40 0.930 . S
O11 Co0 2.093 . S
O11 C3 1.224 . S
H12 C44 0.929 . S
H13 C46 0.930 . S
H14 C47 0.930 . S
H15 C45 0.929 . S
H16 C48 0.928 . S
O17 Co1 2.057 . S
O17 C5 1.232 . S
H18 C37 0.929 . S
H19 C38 0.929 . S
H20 C50 0.931 . S
H21 C42 0.929 . S
H22 C51 0.930 . S
H23 C43 0.931 . S
O24 Co0 2.097 . S
O24 C52 1.214 . S
H25 C53 0.929 . S
H26 C54 0.929 . S
H27 C55 0.930 . S
H28 C56 0.929 . S
H29 C58 0.930 . S
H30 C35 0.930 . S
H31 C39 0.930 . S
O32 Co1 2.037 . S
O32 C52 1.234 . S
C33 O7 1.269 . S
C33 O8 1.257 . S
C34 H9 0.930 . S
C34 C37 1.388 . S
C34 C39 1.418 . S
C35 H30 0.930 . S
C35 C38 1.404 . S
C35 C39 1.353 . S
N36 Co1 2.145 . S
N36 C37 1.397 . S
N36 C38 1.334 . S
C37 H18 0.929 . S
C37 C34 1.388 . S
C37 N36 1.397 . S
C38 H19 0.929 . S
C38 C35 1.404 . S
C38 N36 1.334 . S
C39 H31 0.930 . S
C39 C34 1.418 . S
C39 C35 1.353 . S
C40 H10 0.930 . S
C40 N41 1.330 . S
C40 C42 1.446 . S
N41 Co0 2.151 . S
N41 C40 1.330 . S
N41 C45 1.418 . S
C42 H21 0.929 . S
C42 C40 1.446 . S
C42 C43 1.332 . S
C43 H23 0.931 . S
C43 C42 1.332 . S
C43 C44 1.267 . S
C44 H12 0.929 . S
C44 C43 1.267 . S
C44 C45 1.251 . S
C45 H15 0.929 . S
C45 N41 1.418 . S
C45 C44 1.251 . S
C46 H13 0.930 . S
C46 C48 1.406 . S
C46 C51 1.261 . S
C47 H14 0.930 . S
C47 N49 1.325 . S
C47 C50 1.357 . S
C48 H16 0.928 . S
C48 C46 1.406 . S
C48 N49 1.261 . S
N49 Co0 2.214 . S
N49 C47 1.325 . S
N49 C48 1.261 . S
C50 H20 0.931 . S
C50 C47 1.357 . S
C50 C51 1.312 . S
C51 H22 0.930 . S
C51 C46 1.261 . S
C51 C50 1.312 . S
C52 O24 1.214 . S
C52 O32 1.234 . S
C53 H25 0.929 . S
C53 C56 1.391 . S
C53 C58 1.391 . S
C54 H26 0.929 . S
C54 C55 1.390 . S
C54 N57 1.391 . S
C55 H27 0.930 . S
C55 C54 1.390 . S
C55 C56 1.392 . S
C56 H28 0.929 . S
C56 C53 1.391 . S
C56 C55 1.392 . S
N57 Co1 2.257 . S
N57 C54 1.391 . S
N57 C58 1.388 . S
C58 H29 0.930 . S
C58 C53 1.391 . S
C58 N57 1.388 . S
Co59 O61 2.143 . S
Co59 O67 2.074 . S
Co59 O70 2.093 . S
Co59 O83 2.097 . S
Co59 N100 2.151 . S
Co59 N108 2.214 . S
Co60 O61 2.160 . S
Co60 O66 2.058 . S
Co60 O76 2.057 . S
Co60 O91 2.037 . S
Co60 N95 2.145 . S
Co60 N116 2.257 . S
O61 Co59 2.143 . S
O61 Co60 2.160 . S
C62 O63 1.278 . S
C62 O70 1.224 . S
O63 C62 1.278 . S
C64 O65 1.245 . S
C64 O76 1.232 . S
O65 C64 1.245 . S
O66 Co60 2.058 . S
O66 C92 1.269 . S
O67 Co59 2.074 . S
O67 C92 1.257 . S
H68 C93 0.930 . S
H69 C99 0.930 . S
O70 Co59 2.093 . S
O70 C62 1.224 . S
H71 C103 0.929 . S
H72 C105 0.930 . S
H73 C106 0.930 . S
H74 C104 0.929 . S
H75 C107 0.928 . S
O76 Co60 2.057 . S
O76 C64 1.232 . S
H77 C96 0.929 . S
H78 C97 0.929 . S
H79 C109 0.931 . S
H80 C101 0.929 . S
H81 C110 0.930 . S
H82 C102 0.931 . S
O83 Co59 2.097 . S
O83 C111 1.214 . S
H84 C112 0.929 . S
H85 C113 0.929 . S
H86 C114 0.930 . S
H87 C115 0.929 . S
H88 C117 0.930 . S
H89 C94 0.930 . S
H90 C98 0.930 . S
O91 Co60 2.037 . S
O91 C111 1.234 . S
C92 O66 1.269 . S
C92 O67 1.257 . S
C93 H68 0.930 . S
C93 C96 1.388 . S
C93 C98 1.418 . S
C94 H89 0.930 . S
C94 C97 1.404 . S
C94 C98 1.353 . S
N95 Co60 2.145 . S
N95 C96 1.397 . S
N95 C97 1.334 . S
C96 H77 0.929 . S
C96 C93 1.388 . S
C96 N95 1.397 . S
C97 H78 0.929 . S
C97 C94 1.404 . S
C97 N95 1.334 . S
C98 H90 0.930 . S
C98 C93 1.418 . S
C98 C94 1.353 . S
C99 H69 0.930 . S
C99 N100 1.330 . S
C99 C101 1.446 . S
N100 Co59 2.151 . S
N100 C99 1.330 . S
N100 C104 1.418 . S
C101 H80 0.929 . S
C101 C99 1.446 . S
C101 C102 1.332 . S
C102 H82 0.931 . S
C102 C101 1.332 . S
C102 C103 1.267 . S
C103 H71 0.929 . S
C103 C102 1.267 . S
C103 C104 1.251 . S
C104 H74 0.929 . S
C104 N100 1.418 . S
C104 C103 1.251 . S
C105 H72 0.930 . S
C105 C107 1.406 . S
C105 C110 1.261 . S
C106 H73 0.930 . S
C106 N108 1.325 . S
C106 C109 1.357 . S
C107 H75 0.928 . S
C107 C105 1.406 . S
C107 N108 1.261 . S
N108 Co59 2.214 . S
N108 C106 1.325 . S
N108 C107 1.261 . S
C109 H79 0.931 . S
C109 C106 1.357 . S
C109 C110 1.312 . S
C110 H81 0.930 . S
C110 C105 1.261 . S
C110 C109 1.312 . S
C111 O83 1.214 . S
C111 O91 1.234 . S
C112 H84 0.929 . S
C112 C115 1.391 . S
C112 C117 1.391 . S
C113 H85 0.929 . S
C113 C114 1.390 . S
C113 N116 1.391 . S
C114 H86 0.930 . S
C114 C113 1.390 . S
C114 C115 1.392 . S
C115 H87 0.929 . S
C115 C112 1.391 . S
C115 C114 1.392 . S
N116 Co60 2.257 . S
N116 C113 1.391 . S
N116 C117 1.388 . S
C117 H88 0.930 . S
C117 C112 1.391 . S
C117 N116 1.388 . S
Co118 O120 2.143 . S
Co118 O126 2.074 . S
Co118 O129 2.093 . S
Co118 O142 2.097 . S
Co118 N159 2.151 . S
Co118 N167 2.214 . S
Co119 O120 2.160 . S
Co119 O125 2.058 . S
Co119 O135 2.057 . S
Co119 O150 2.037 . S
Co119 N154 2.145 . S
Co119 N175 2.257 . S
O120 Co118 2.143 . S
O120 Co119 2.160 . S
C121 O122 1.278 . S
C121 O129 1.224 . S
O122 C121 1.278 . S
C123 O124 1.245 . S
C123 O135 1.232 . S
O124 C123 1.245 . S
O125 Co119 2.058 . S
O125 C151 1.269 . S
O126 Co118 2.074 . S
O126 C151 1.257 . S
H127 C152 0.930 . S
H128 C158 0.930 . S
O129 Co118 2.093 . S
O129 C121 1.224 . S
H130 C162 0.929 . S
H131 C164 0.930 . S
H132 C165 0.930 . S
H133 C163 0.929 . S
H134 C166 0.928 . S
O135 Co119 2.057 . S
O135 C123 1.232 . S
H136 C155 0.929 . S
H137 C156 0.929 . S
H138 C168 0.931 . S
H139 C160 0.929 . S
H140 C169 0.930 . S
H141 C161 0.931 . S
O142 Co118 2.097 . S
O142 C170 1.214 . S
H143 C171 0.929 . S
H144 C172 0.929 . S
H145 C173 0.930 . S
H146 C174 0.929 . S
H147 C176 0.930 . S
H148 C153 0.930 . S
H149 C157 0.930 . S
O150 Co119 2.037 . S
O150 C170 1.234 . S
C151 O125 1.269 . S
C151 O126 1.257 . S
C152 H127 0.930 . S
C152 C155 1.388 . S
C152 C157 1.418 . S
C153 H148 0.930 . S
C153 C156 1.404 . S
C153 C157 1.353 . S
N154 Co119 2.145 . S
N154 C155 1.397 . S
N154 C156 1.334 . S
C155 H136 0.929 . S
C155 C152 1.388 . S
C155 N154 1.397 . S
C156 H137 0.929 . S
C156 C153 1.404 . S
C156 N154 1.334 . S
C157 H149 0.930 . S
C157 C152 1.418 . S
C157 C153 1.353 . S
C158 H128 0.930 . S
C158 N159 1.330 . S
C158 C160 1.446 . S
N159 Co118 2.151 . S
N159 C158 1.330 . S
N159 C163 1.418 . S
C160 H139 0.929 . S
C160 C158 1.446 . S
C160 C161 1.332 . S
C161 H141 0.931 . S
C161 C160 1.332 . S
C161 C162 1.267 . S
C162 H130 0.929 . S
C162 C161 1.267 . S
C162 C163 1.251 . S
C163 H133 0.929 . S
C163 N159 1.418 . S
C163 C162 1.251 . S
C164 H131 0.930 . S
C164 C166 1.406 . S
C164 C169 1.261 . S
C165 H132 0.930 . S
C165 N167 1.325 . S
C165 C168 1.357 . S
C166 H134 0.928 . S
C166 C164 1.406 . S
C166 N167 1.261 . S
N167 Co118 2.214 . S
N167 C165 1.325 . S
N167 C166 1.261 . S
C168 H138 0.931 . S
C168 C165 1.357 . S
C168 C169 1.312 . S
C169 H140 0.930 . S
C169 C164 1.261 . S
C169 C168 1.312 . S
C170 O142 1.214 . S
C170 O150 1.234 . S
C171 H143 0.929 . S
C171 C174 1.391 . S
C171 C176 1.391 . S
C172 H144 0.929 . S
C172 C173 1.390 . S
C172 N175 1.391 . S
C173 H145 0.930 . S
C173 C172 1.390 . S
C173 C174 1.392 . S
C174 H146 0.929 . S
C174 C171 1.391 . S
C174 C173 1.392 . S
N175 Co119 2.257 . S
N175 C172 1.391 . S
N175 C176 1.388 . S
C176 H147 0.930 . S
C176 C171 1.391 . S
C176 N175 1.388 . S
Co177 O179 2.143 . S
Co177 O185 2.074 . S
Co177 O188 2.093 1_554 S
Co177 O201 2.097 . S
Co177 N218 2.151 . S
Co177 N226 2.214 . S
Co178 O179 2.160 . S
Co178 O184 2.058 . S
Co178 O194 2.057 . S
Co178 O209 2.037 . S
Co178 N213 2.145 . S
Co178 N234 2.257 . S
O179 Co177 2.143 . S
O179 Co178 2.160 . S
C180 O181 1.278 . S
C180 O188 1.224 . S
O181 C180 1.278 . S
C182 O183 1.245 . S
C182 O194 1.232 . S
O183 C182 1.245 . S
O184 Co178 2.058 . S
O184 C210 1.269 . S
O185 Co177 2.074 . S
O185 C210 1.257 . S
H186 C211 0.930 . S
H187 C217 0.930 . S
O188 Co177 2.093 1_556 S
O188 C180 1.224 . S
H189 C221 0.929 . S
H190 C223 0.930 . S
H191 C224 0.930 . S
H192 C222 0.929 . S
H193 C225 0.928 . S
O194 Co178 2.057 . S
O194 C182 1.232 . S
H195 C214 0.929 . S
H196 C215 0.929 . S
H197 C227 0.931 . S
H198 C219 0.929 . S
H199 C228 0.930 . S
H200 C220 0.931 . S
O201 Co177 2.097 . S
O201 C229 1.214 . S
H202 C230 0.929 . S
H203 C231 0.929 . S
H204 C232 0.930 . S
H205 C233 0.929 . S
H206 C235 0.930 . S
H207 C212 0.930 . S
H208 C216 0.930 . S
O209 Co178 2.037 . S
O209 C229 1.234 . S
C210 O184 1.269 . S
C210 O185 1.257 . S
C211 H186 0.930 . S
C211 C214 1.388 . S
C211 C216 1.418 . S
C212 H207 0.930 . S
C212 C215 1.404 . S
C212 C216 1.353 . S
N213 Co178 2.145 . S
N213 C214 1.397 . S
N213 C215 1.334 . S
C214 H195 0.929 . S
C214 C211 1.388 . S
C214 N213 1.397 . S
C215 H196 0.929 . S
C215 C212 1.404 . S
C215 N213 1.334 . S
C216 H208 0.930 . S
C216 C211 1.418 . S
C216 C212 1.353 . S
C217 H187 0.930 . S
C217 N218 1.330 . S
C217 C219 1.446 . S
N218 Co177 2.151 . S
N218 C217 1.330 . S
N218 C222 1.418 . S
C219 H198 0.929 . S
C219 C217 1.446 . S
C219 C220 1.332 . S
C220 H200 0.931 . S
C220 C219 1.332 . S
C220 C221 1.267 . S
C221 H189 0.929 . S
C221 C220 1.267 . S
C221 C222 1.251 . S
C222 H192 0.929 . S
C222 N218 1.418 . S
C222 C221 1.251 . S
C223 H190 0.930 . S
C223 C225 1.406 . S
C223 C228 1.261 . S
C224 H191 0.930 . S
C224 N226 1.325 . S
C224 C227 1.357 . S
C225 H193 0.928 . S
C225 C223 1.406 . S
C225 N226 1.261 . S
N226 Co177 2.214 . S
N226 C224 1.325 . S
N226 C225 1.261 . S
C227 H197 0.931 . S
C227 C224 1.357 . S
C227 C228 1.312 . S
C228 H199 0.930 . S
C228 C223 1.261 . S
C228 C227 1.312 . S
C229 O201 1.214 . S
C229 O209 1.234 . S
C230 H202 0.929 . S
C230 C233 1.391 . S
C230 C235 1.391 1_556 S
C231 H203 0.929 . S
C231 C232 1.390 . S
C231 N234 1.391 . S
C232 H204 0.930 . S
C232 C231 1.390 . S
C232 C233 1.392 1_554 S
C233 H205 0.929 . S
C233 C230 1.391 . S
C233 C232 1.392 1_556 S
N234 Co178 2.257 . S
N234 C231 1.391 . S
N234 C235 1.388 . S
C235 H206 0.930 . S
C235 C230 1.391 1_554 S
C235 N234 1.388 . S
Co236 O238 2.143 . S
Co236 O244 2.074 . S
Co236 O247 2.093 . S
Co236 O260 2.097 . S
Co236 N277 2.151 . S
Co236 N285 2.214 . S
Co237 O238 2.160 . S
Co237 O243 2.058 . S
Co237 O253 2.057 . S
Co237 O268 2.037 . S
Co237 N272 2.145 . S
Co237 N293 2.257 . S
O238 Co236 2.143 . S
O238 Co237 2.160 . S
C239 O240 1.278 . S
C239 O247 1.224 . S
O240 C239 1.278 . S
C241 O242 1.245 . S
C241 O253 1.232 . S
O242 C241 1.245 . S
O243 Co237 2.058 . S
O243 C269 1.269 . S
O244 Co236 2.074 . S
O244 C269 1.257 . S
H245 C270 0.930 . S
H246 C276 0.930 . S
O247 Co236 2.093 . S
O247 C239 1.224 . S
H248 C280 0.929 . S
H249 C282 0.930 . S
H250 C283 0.930 . S
H251 C281 0.929 . S
H252 C284 0.928 . S
O253 Co237 2.057 . S
O253 C241 1.232 . S
H254 C273 0.929 . S
H255 C274 0.929 . S
H256 C286 0.931 . S
H257 C278 0.929 . S
H258 C287 0.930 . S
H259 C279 0.931 . S
O260 Co236 2.097 . S
O260 C288 1.214 . S
H261 C289 0.929 . S
H262 C290 0.929 . S
H263 C291 0.930 . S
H264 C292 0.929 . S
H265 C294 0.930 . S
H266 C271 0.930 . S
H267 C275 0.930 . S
O268 Co237 2.037 . S
O268 C288 1.234 . S
C269 O243 1.269 . S
C269 O244 1.257 . S
C270 H245 0.930 . S
C270 C273 1.388 . S
C270 C275 1.418 . S
C271 H266 0.930 . S
C271 C274 1.404 . S
C271 C275 1.353 . S
N272 Co237 2.145 . S
N272 C273 1.397 . S
N272 C274 1.334 . S
C273 H254 0.929 . S
C273 C270 1.388 . S
C273 N272 1.397 . S
C274 H255 0.929 . S
C274 C271 1.404 . S
C274 N272 1.334 . S
C275 H267 0.930 . S
C275 C270 1.418 . S
C275 C271 1.353 . S
C276 H246 0.930 . S
C276 N277 1.330 . S
C276 C278 1.446 . S
N277 Co236 2.151 . S
N277 C276 1.330 . S
N277 C281 1.418 . S
C278 H257 0.929 . S
C278 C276 1.446 . S
C278 C279 1.332 . S
C279 H259 0.931 . S
C279 C278 1.332 . S
C279 C280 1.267 . S
C280 H248 0.929 . S
C280 C279 1.267 . S
C280 C281 1.251 . S
C281 H251 0.929 . S
C281 N277 1.418 . S
C281 C280 1.251 . S
C282 H249 0.930 . S
C282 C284 1.406 . S
C282 C287 1.261 . S
C283 H250 0.930 . S
C283 N285 1.325 . S
C283 C286 1.357 . S
C284 H252 0.928 . S
C284 C282 1.406 . S
C284 N285 1.261 . S
N285 Co236 2.214 . S
N285 C283 1.325 . S
N285 C284 1.261 . S
C286 H256 0.931 . S
C286 C283 1.357 . S
C286 C287 1.312 . S
C287 H258 0.930 . S
C287 C282 1.261 . S
C287 C286 1.312 . S
C288 O260 1.214 . S
C288 O268 1.234 . S
C289 H261 0.929 . S
C289 C292 1.391 . S
C289 C294 1.391 . S
C290 H262 0.929 . S
C290 C291 1.390 . S
C290 N293 1.391 . S
C291 H263 0.930 . S
C291 C290 1.390 . S
C291 C292 1.392 . S
C292 H264 0.929 . S
C292 C289 1.391 . S
C292 C291 1.392 . S
N293 Co237 2.257 . S
N293 C290 1.391 . S
N293 C294 1.388 . S
C294 H265 0.930 . S
C294 C289 1.391 . S
C294 N293 1.388 . S
Co295 O297 2.143 . S
Co295 O303 2.074 . S
Co295 O306 2.093 . S
Co295 O319 2.097 . S
Co295 N336 2.151 . S
Co295 N344 2.214 . S
Co296 O297 2.160 . S
Co296 O302 2.058 . S
Co296 O312 2.057 . S
Co296 O327 2.037 . S
Co296 N331 2.145 . S
Co296 N352 2.257 . S
O297 Co295 2.143 . S
O297 Co296 2.160 . S
C298 O299 1.278 . S
C298 O306 1.224 . S
O299 C298 1.278 . S
C300 O301 1.245 . S
C300 O312 1.232 . S
O301 C300 1.245 . S
O302 Co296 2.058 . S
O302 C328 1.269 . S
O303 Co295 2.074 . S
O303 C328 1.257 . S
H304 C329 0.930 . S
H305 C335 0.930 . S
O306 Co295 2.093 . S
O306 C298 1.224 . S
H307 C339 0.929 . S
H308 C341 0.930 . S
H309 C342 0.930 . S
H310 C340 0.929 . S
H311 C343 0.928 . S
O312 Co296 2.057 . S
O312 C300 1.232 . S
H313 C332 0.929 . S
H314 C333 0.929 . S
H315 C345 0.931 . S
H316 C337 0.929 . S
H317 C346 0.930 . S
H318 C338 0.931 . S
O319 Co295 2.097 . S
O319 C347 1.214 . S
H320 C348 0.929 . S
H321 C349 0.929 . S
H322 C350 0.930 . S
H323 C351 0.929 . S
H324 C353 0.930 . S
H325 C330 0.930 . S
H326 C334 0.930 . S
O327 Co296 2.037 . S
O327 C347 1.234 . S
C328 O302 1.269 . S
C328 O303 1.257 . S
C329 H304 0.930 . S
C329 C332 1.388 . S
C329 C334 1.418 . S
C330 H325 0.930 . S
C330 C333 1.404 . S
C330 C334 1.353 . S
N331 Co296 2.145 . S
N331 C332 1.397 . S
N331 C333 1.334 . S
C332 H313 0.929 . S
C332 C329 1.388 . S
C332 N331 1.397 . S
C333 H314 0.929 . S
C333 C330 1.404 . S
C333 N331 1.334 . S
C334 H326 0.930 . S
C334 C329 1.418 . S
C334 C330 1.353 . S
C335 H305 0.930 . S
C335 N336 1.330 . S
C335 C337 1.446 . S
N336 Co295 2.151 . S
N336 C335 1.330 . S
N336 C340 1.418 . S
C337 H316 0.929 . S
C337 C335 1.446 . S
C337 C338 1.332 . S
C338 H318 0.931 . S
C338 C337 1.332 . S
C338 C339 1.267 . S
C339 H307 0.929 . S
C339 C338 1.267 . S
C339 C340 1.251 . S
C340 H310 0.929 . S
C340 N336 1.418 . S
C340 C339 1.251 . S
C341 H308 0.930 . S
C341 C343 1.406 . S
C341 C346 1.261 . S
C342 H309 0.930 . S
C342 N344 1.325 . S
C342 C345 1.357 . S
C343 H311 0.928 . S
C343 C341 1.406 . S
C343 N344 1.261 . S
N344 Co295 2.214 . S
N344 C342 1.325 . S
N344 C343 1.261 . S
C345 H315 0.931 . S
C345 C342 1.357 . S
C345 C346 1.312 . S
C346 H317 0.930 . S
C346 C341 1.261 . S
C346 C345 1.312 . S
C347 O319 1.214 . S
C347 O327 1.234 . S
C348 H320 0.929 . S
C348 C351 1.391 . S
C348 C353 1.391 . S
C349 H321 0.929 . S
C349 C350 1.390 . S
C349 N352 1.391 . S
C350 H322 0.930 . S
C350 C349 1.390 . S
C350 C351 1.392 . S
C351 H323 0.929 . S
C351 C348 1.391 . S
C351 C350 1.392 . S
N352 Co296 2.257 . S
N352 C349 1.391 . S
N352 C353 1.388 . S
C353 H324 0.930 . S
C353 C348 1.391 . S
C353 N352 1.388 . S
Co354 O356 2.143 . S
Co354 O362 2.074 . S
Co354 O365 2.093 . S
Co354 O378 2.097 . S
Co354 N395 2.151 . S
Co354 N403 2.214 . S
Co355 O356 2.160 . S
Co355 O361 2.058 . S
Co355 O371 2.057 . S
Co355 O386 2.037 . S
Co355 N390 2.145 . S
Co355 N411 2.257 . S
O356 Co354 2.143 . S
O356 Co355 2.160 . S
C357 O358 1.278 . S
C357 O365 1.224 . S
O358 C357 1.278 . S
C359 O360 1.245 . S
C359 O371 1.232 . S
O360 C359 1.245 . S
O361 Co355 2.058 . S
O361 C387 1.269 . S
O362 Co354 2.074 . S
O362 C387 1.257 . S
H363 C388 0.930 . S
H364 C394 0.930 . S
O365 Co354 2.093 . S
O365 C357 1.224 . S
H366 C398 0.929 . S
H367 C400 0.930 . S
H368 C401 0.930 . S
H369 C399 0.929 . S
H370 C402 0.928 . S
O371 Co355 2.057 . S
O371 C359 1.232 . S
H372 C391 0.929 . S
H373 C392 0.929 . S
H374 C404 0.931 . S
H375 C396 0.929 . S
H376 C405 0.930 . S
H377 C397 0.931 . S
O378 Co354 2.097 . S
O378 C406 1.214 . S
H379 C407 0.929 . S
H380 C408 0.929 . S
H381 C409 0.930 . S
H382 C410 0.929 . S
H383 C412 0.930 . S
H384 C389 0.930 . S
H385 C393 0.930 . S
O386 Co355 2.037 . S
O386 C406 1.234 . S
C387 O361 1.269 . S
C387 O362 1.257 . S
C388 H363 0.930 . S
C388 C391 1.388 . S
C388 C393 1.418 . S
C389 H384 0.930 . S
C389 C392 1.404 . S
C389 C393 1.353 . S
N390 Co355 2.145 . S
N390 C391 1.397 . S
N390 C392 1.334 . S
C391 H372 0.929 . S
C391 C388 1.388 . S
C391 N390 1.397 . S
C392 H373 0.929 . S
C392 C389 1.404 . S
C392 N390 1.334 . S
C393 H385 0.930 . S
C393 C388 1.418 . S
C393 C389 1.353 . S
C394 H364 0.930 . S
C394 N395 1.330 . S
C394 C396 1.446 . S
N395 Co354 2.151 . S
N395 C394 1.330 . S
N395 C399 1.418 . S
C396 H375 0.929 . S
C396 C394 1.446 . S
C396 C397 1.332 . S
C397 H377 0.931 . S
C397 C396 1.332 . S
C397 C398 1.267 . S
C398 H366 0.929 . S
C398 C397 1.267 . S
C398 C399 1.251 . S
C399 H369 0.929 . S
C399 N395 1.418 . S
C399 C398 1.251 . S
C400 H367 0.930 . S
C400 C402 1.406 . S
C400 C405 1.261 . S
C401 H368 0.930 . S
C401 N403 1.325 . S
C401 C404 1.357 . S
C402 H370 0.928 . S
C402 C400 1.406 . S
C402 N403 1.261 . S
N403 Co354 2.214 . S
N403 C401 1.325 . S
N403 C402 1.261 . S
C404 H374 0.931 . S
C404 C401 1.357 . S
C404 C405 1.312 . S
C405 H376 0.930 . S
C405 C400 1.261 . S
C405 C404 1.312 . S
C406 O378 1.214 . S
C406 O386 1.234 . S
C407 H379 0.929 . S
C407 C410 1.391 . S
C407 C412 1.391 . S
C408 H380 0.929 . S
C408 C409 1.390 . S
C408 N411 1.391 . S
C409 H381 0.930 . S
C409 C408 1.390 . S
C409 C410 1.392 . S
C410 H382 0.929 . S
C410 C407 1.391 . S
C410 C409 1.392 . S
N411 Co355 2.257 . S
N411 C408 1.391 . S
N411 C412 1.388 . S
C412 H383 0.930 . S
C412 C407 1.391 . S
C412 N411 1.388 . S
Co413 O415 2.143 . S
Co413 O421 2.074 1_554 S
Co413 O424 2.093 . S
Co413 O437 2.097 . S
Co413 N454 2.151 . S
Co413 N462 2.214 . S
Co414 O415 2.160 . S
Co414 O420 2.058 1_554 S
Co414 O430 2.057 . S
Co414 O445 2.037 . S
Co414 N449 2.145 1_554 S
Co414 N470 2.257 . S
O415 Co413 2.143 . S
O415 Co414 2.160 . S
C416 O417 1.278 . S
C416 O424 1.224 . S
O417 C416 1.278 . S
C418 O419 1.245 . S
C418 O430 1.232 . S
O419 C418 1.245 . S
O420 Co414 2.058 1_556 S
O420 C446 1.269 . S
O421 Co413 2.074 1_556 S
O421 C446 1.257 . S
H422 C447 0.930 . S
H423 C453 0.930 . S
O424 Co413 2.093 . S
O424 C416 1.224 . S
H425 C457 0.929 . S
H426 C459 0.930 . S
H427 C460 0.930 . S
H428 C458 0.929 . S
H429 C461 0.928 . S
O430 Co414 2.057 . S
O430 C418 1.232 . S
H431 C450 0.929 . S
H432 C451 0.929 . S
H433 C463 0.931 . S
H434 C455 0.929 . S
H435 C464 0.930 . S
H436 C456 0.931 . S
O437 Co413 2.097 . S
O437 C465 1.214 . S
H438 C466 0.929 . S
H439 C467 0.929 . S
H440 C468 0.930 . S
H441 C469 0.929 . S
H442 C471 0.930 . S
H443 C448 0.930 . S
H444 C452 0.930 . S
O445 Co414 2.037 . S
O445 C465 1.234 . S
C446 O420 1.269 . S
C446 O421 1.257 . S
C447 H422 0.930 . S
C447 C450 1.388 . S
C447 C452 1.418 . S
C448 H443 0.930 . S
C448 C451 1.404 . S
C448 C452 1.353 . S
N449 Co414 2.145 1_556 S
N449 C450 1.397 . S
N449 C451 1.334 . S
C450 H431 0.929 . S
C450 C447 1.388 . S
C450 N449 1.397 . S
C451 H432 0.929 . S
C451 C448 1.404 . S
C451 N449 1.334 . S
C452 H444 0.930 . S
C452 C447 1.418 . S
C452 C448 1.353 . S
C453 H423 0.930 . S
C453 N454 1.330 . S
C453 C455 1.446 . S
N454 Co413 2.151 . S
N454 C453 1.330 . S
N454 C458 1.418 . S
C455 H434 0.929 . S
C455 C453 1.446 . S
C455 C456 1.332 . S
C456 H436 0.931 . S
C456 C455 1.332 . S
C456 C457 1.267 . S
C457 H425 0.929 . S
C457 C456 1.267 . S
C457 C458 1.251 . S
C458 H428 0.929 . S
C458 N454 1.418 . S
C458 C457 1.251 . S
C459 H426 0.930 . S
C459 C461 1.406 . S
C459 C464 1.261 . S
C460 H427 0.930 . S
C460 N462 1.325 . S
C460 C463 1.357 . S
C461 H429 0.928 . S
C461 C459 1.406 . S
C461 N462 1.261 . S
N462 Co413 2.214 . S
N462 C460 1.325 . S
N462 C461 1.261 . S
C463 H433 0.931 . S
C463 C460 1.357 . S
C463 C464 1.312 . S
C464 H435 0.930 . S
C464 C459 1.261 . S
C464 C463 1.312 . S
C465 O437 1.214 . S
C465 O445 1.234 . S
C466 H438 0.929 . S
C466 C469 1.391 . S
C466 C471 1.391 . S
C467 H439 0.929 . S
C467 C468 1.390 . S
C467 N470 1.391 . S
C468 H440 0.930 . S
C468 C467 1.390 . S
C468 C469 1.392 . S
C469 H441 0.929 . S
C469 C466 1.391 . S
C469 C468 1.392 . S
N470 Co414 2.257 . S
N470 C467 1.391 . S
N470 C471 1.388 . S
C471 H442 0.930 . S
C471 C466 1.391 . S
C471 N470 1.388 . S
H472 C484 0.930 . S
H473 C486 0.930 . S
H474 C487 0.930 . S
H475 C491 0.959 . S
H476 C491 0.959 . S
H477 C491 0.961 . S
H478 C492 0.960 . S
H479 C492 0.961 . S
H480 C492 0.959 . S
H481 C495 0.929 . S
H482 C496 0.931 . S
H483 C498 0.930 . S
C484 H472 0.930 . S
C484 C485 1.399 . S
C484 C489 1.399 . S
C485 C484 1.399 . S
C485 C486 1.376 . S
C486 H473 0.930 . S
C486 C485 1.376 . S
C486 C487 1.388 . S
C487 H474 0.930 . S
C487 C486 1.388 . S
C487 C488 1.390 . S
C488 C487 1.390 . S
C488 C489 1.394 . S
C488 C494 1.465 . S
C489 C484 1.399 . S
C489 C488 1.394 . S
C489 C490 1.516 . S
C490 C489 1.516 . S
C490 C491 1.502 . S
C490 C492 1.561 . S
C490 C493 1.526 . S
C491 H475 0.959 . S
C491 H476 0.959 . S
C491 H477 0.961 . S
C491 C490 1.502 . S
C492 H478 0.960 . S
C492 H479 0.961 . S
C492 H480 0.959 . S
C492 C490 1.561 . S
C493 C490 1.526 . S
C493 C494 1.396 . S
C493 C498 1.390 . S
C494 C488 1.465 . S
C494 C493 1.396 . S
C494 C495 1.399 . S
C495 H481 0.929 . S
C495 C494 1.399 . S
C495 C496 1.385 . S
C496 H482 0.931 . S
C496 C495 1.385 . S
C496 C497 1.389 . S
C497 C496 1.389 . S
C497 C498 1.387 . S
C498 H483 0.930 . S
C498 C493 1.390 . S
C498 C497 1.387 . S
H499 C511 0.930 . S
H500 C513 0.930 . S
H501 C514 0.930 . S
H502 C518 0.959 . S
H503 C518 0.959 . S
H504 C518 0.961 . S
H505 C519 0.960 . S
H506 C519 0.961 . S
H507 C519 0.959 . S
H508 C522 0.929 . S
H509 C523 0.931 . S
H510 C525 0.930 . S
C511 H499 0.930 . S
C511 C512 1.399 . S
C511 C516 1.399 . S
C512 C511 1.399 . S
C512 C513 1.376 . S
C513 H500 0.930 . S
C513 C512 1.376 . S
C513 C514 1.388 . S
C514 H501 0.930 . S
C514 C513 1.388 . S
C514 C515 1.390 . S
C515 C514 1.390 . S
C515 C516 1.394 . S
C515 C521 1.465 . S
C516 C511 1.399 . S
C516 C515 1.394 . S
C516 C517 1.516 . S
C517 C516 1.516 . S
C517 C518 1.502 . S
C517 C519 1.561 . S
C517 C520 1.526 . S
C518 H502 0.959 . S
C518 H503 0.959 . S
C518 H504 0.961 . S
C518 C517 1.502 . S
C519 H505 0.960 . S
C519 H506 0.961 . S
C519 H507 0.959 . S
C519 C517 1.561 . S
C520 C517 1.526 . S
C520 C521 1.396 . S
C520 C525 1.390 . S
C521 C515 1.465 . S
C521 C520 1.396 . S
C521 C522 1.399 . S
C522 H508 0.929 . S
C522 C521 1.399 . S
C522 C523 1.385 . S
C523 H509 0.931 . S
C523 C522 1.385 . S
C523 C524 1.389 . S
C524 C523 1.389 . S
C524 C525 1.387 . S
C525 H510 0.930 . S
C525 C520 1.390 . S
C525 C524 1.387 . S
H526 C538 0.930 . S
H527 C540 0.930 . S
H528 C541 0.930 . S
H529 C545 0.959 . S
H530 C545 0.959 . S
H531 C545 0.961 . S
H532 C546 0.960 . S
H533 C546 0.961 . S
H534 C546 0.959 . S
H535 C549 0.929 . S
H536 C550 0.931 . S
H537 C552 0.930 . S
C538 H526 0.930 . S
C538 C539 1.399 . S
C538 C543 1.399 . S
C539 C538 1.399 . S
C539 C540 1.376 . S
C540 H527 0.930 . S
C540 C539 1.376 . S
C540 C541 1.388 . S
C541 H528 0.930 . S
C541 C540 1.388 . S
C541 C542 1.390 . S
C542 C541 1.390 . S
C542 C543 1.394 . S
C542 C548 1.465 . S
C543 C538 1.399 . S
C543 C542 1.394 . S
C543 C544 1.516 . S
C544 C543 1.516 . S
C544 C545 1.502 . S
C544 C546 1.561 . S
C544 C547 1.526 . S
C545 H529 0.959 . S
C545 H530 0.959 . S
C545 H531 0.961 . S
C545 C544 1.502 . S
C546 H532 0.960 . S
C546 H533 0.961 . S
C546 H534 0.959 . S
C546 C544 1.561 . S
C547 C544 1.526 . S
C547 C548 1.396 . S
C547 C552 1.390 1_554 S
C548 C542 1.465 . S
C548 C547 1.396 . S
C548 C549 1.399 . S
C549 H535 0.929 . S
C549 C548 1.399 . S
C549 C550 1.385 1_554 S
C550 H536 0.931 . S
C550 C549 1.385 1_556 S
C550 C551 1.389 . S
C551 C550 1.389 . S
C551 C552 1.387 . S
C552 H537 0.930 . S
C552 C547 1.390 1_556 S
C552 C551 1.387 . S
H553 C565 0.930 . S
H554 C567 0.930 . S
H555 C568 0.930 . S
H556 C572 0.959 . S
H557 C572 0.959 . S
H558 C572 0.961 . S
H559 C573 0.960 . S
H560 C573 0.961 . S
H561 C573 0.959 . S
H562 C576 0.929 . S
H563 C577 0.931 . S
H564 C579 0.930 . S
C565 H553 0.930 . S
C565 C566 1.399 . S
C565 C570 1.399 . S
C566 C565 1.399 . S
C566 C567 1.376 . S
C567 H554 0.930 . S
C567 C566 1.376 . S
C567 C568 1.388 . S
C568 H555 0.930 . S
C568 C567 1.388 . S
C568 C569 1.390 . S
C569 C568 1.390 . S
C569 C570 1.394 . S
C569 C575 1.465 . S
C570 C565 1.399 . S
C570 C569 1.394 . S
C570 C571 1.516 . S
C571 C570 1.516 . S
C571 C572 1.502 . S
C571 C573 1.561 . S
C571 C574 1.526 . S
C572 H556 0.959 . S
C572 H557 0.959 . S
C572 H558 0.961 . S
C572 C571 1.502 . S
C573 H559 0.960 . S
C573 H560 0.961 . S
C573 H561 0.959 . S
C573 C571 1.561 . S
C574 C571 1.526 . S
C574 C575 1.396 . S
C574 C579 1.390 . S
C575 C569 1.465 . S
C575 C574 1.396 . S
C575 C576 1.399 . S
C576 H562 0.929 . S
C576 C575 1.399 . S
C576 C577 1.385 . S
C577 H563 0.931 . S
C577 C576 1.385 . S
C577 C578 1.389 . S
C578 C577 1.389 . S
C578 C579 1.387 . S
C579 H564 0.930 . S
C579 C574 1.390 . S
C579 C578 1.387 . S
H580 C592 0.930 . S
H581 C594 0.930 . S
H582 C595 0.930 . S
H583 C599 0.959 . S
H584 C599 0.959 . S
H585 C599 0.961 . S
H586 C600 0.960 . S
H587 C600 0.961 . S
H588 C600 0.959 . S
H589 C603 0.929 . S
H590 C604 0.931 . S
H591 C606 0.930 . S
C592 H580 0.930 . S
C592 C593 1.399 . S
C592 C597 1.399 . S
C593 C592 1.399 . S
C593 C594 1.376 . S
C594 H581 0.930 . S
C594 C593 1.376 . S
C594 C595 1.388 . S
C595 H582 0.930 . S
C595 C594 1.388 . S
C595 C596 1.390 . S
C596 C595 1.390 . S
C596 C597 1.394 . S
C596 C602 1.465 . S
C597 C592 1.399 . S
C597 C596 1.394 . S
C597 C598 1.516 . S
C598 C597 1.516 . S
C598 C599 1.502 . S
C598 C600 1.561 . S
C598 C601 1.526 . S
C599 H583 0.959 . S
C599 H584 0.959 . S
C599 H585 0.961 . S
C599 C598 1.502 . S
C600 H586 0.960 . S
C600 H587 0.961 . S
C600 H588 0.959 . S
C600 C598 1.561 . S
C601 C598 1.526 . S
C601 C602 1.396 . S
C601 C606 1.390 . S
C602 C596 1.465 . S
C602 C601 1.396 . S
C602 C603 1.399 . S
C603 H589 0.929 . S
C603 C602 1.399 . S
C603 C604 1.385 . S
C604 H590 0.931 . S
C604 C603 1.385 . S
C604 C605 1.389 . S
C605 C604 1.389 . S
C605 C606 1.387 . S
C606 H591 0.930 . S
C606 C601 1.390 . S
C606 C605 1.387 . S
H607 C619 0.930 . S
H608 C621 0.930 . S
H609 C622 0.930 . S
H610 C626 0.959 . S
H611 C626 0.959 . S
H612 C626 0.961 . S
H613 C627 0.960 . S
H614 C627 0.961 . S
H615 C627 0.959 . S
H616 C630 0.929 . S
H617 C631 0.931 . S
H618 C633 0.930 . S
C619 H607 0.930 . S
C619 C620 1.399 . S
C619 C624 1.399 . S
C620 C619 1.399 . S
C620 C621 1.376 . S
C621 H608 0.930 . S
C621 C620 1.376 . S
C621 C622 1.388 . S
C622 H609 0.930 . S
C622 C621 1.388 . S
C622 C623 1.390 . S
C623 C622 1.390 . S
C623 C624 1.394 . S
C623 C629 1.465 . S
C624 C619 1.399 . S
C624 C623 1.394 . S
C624 C625 1.516 . S
C625 C624 1.516 . S
C625 C626 1.502 . S
C625 C627 1.561 . S
C625 C628 1.526 . S
C626 H610 0.959 . S
C626 H611 0.959 . S
C626 H612 0.961 . S
C626 C625 1.502 . S
C627 H613 0.960 . S
C627 H614 0.961 . S
C627 H615 0.959 . S
C627 C625 1.561 . S
C628 C625 1.526 . S
C628 C629 1.396 . S
C628 C633 1.390 . S
C629 C623 1.465 . S
C629 C628 1.396 . S
C629 C630 1.399 . S
C630 H616 0.929 . S
C630 C629 1.399 . S
C630 C631 1.385 . S
C631 H617 0.931 . S
C631 C630 1.385 . S
C631 C632 1.389 . S
C632 C631 1.389 . S
C632 C633 1.387 . S
C633 H618 0.930 . S
C633 C628 1.390 . S
C633 C632 1.387 . S
H634 C646 0.930 . S
H635 C648 0.930 . S
H636 C649 0.930 . S
H637 C653 0.959 . S
H638 C653 0.959 . S
H639 C653 0.961 . S
H640 C654 0.960 . S
H641 C654 0.961 . S
H642 C654 0.959 . S
H643 C657 0.947 . S
H644 C658 0.931 . S
H645 C660 0.930 . S
C646 H634 0.930 . S
C646 C647 1.399 1_556 S
C646 C651 1.399 . S
C647 C646 1.399 1_554 S
C647 C648 1.376 . S
C648 H635 0.930 . S
C648 C647 1.376 . S
C648 C649 1.388 . S
C649 H636 0.930 . S
C649 C648 1.388 . S
C649 C650 1.390 1_554 S
C650 C649 1.390 1_556 S
C650 C651 1.394 . S
C650 C656 1.465 . S
C651 C646 1.399 . S
C651 C650 1.394 . S
C651 C652 1.516 . S
C652 C651 1.516 . S
C652 C653 1.502 . S
C652 C654 1.561 . S
C652 C655 1.526 . S
C653 H637 0.959 . S
C653 H638 0.959 . S
C653 H639 0.961 . S
C653 C652 1.502 . S
C654 H640 0.960 . S
C654 H641 0.961 . S
C654 H642 0.959 . S
C654 C652 1.561 . S
C655 C652 1.526 . S
C655 C656 1.396 . S
C655 C660 1.390 . S
C656 C650 1.465 . S
C656 C655 1.396 . S
C656 C657 1.399 . S
C657 H643 0.947 . S
C657 C656 1.399 . S
C657 C658 1.385 . S
C658 H644 0.931 . S
C658 C657 1.385 . S
C658 C659 1.389 . S
C659 C658 1.389 . S
C659 C660 1.387 . S
C660 H645 0.930 . S
C660 C655 1.390 . S
C660 C659 1.387 . S
H661 C673 0.930 . S
H662 C675 0.930 . S
H663 C676 0.930 . S
H664 C680 0.959 . S
H665 C680 0.959 . S
H666 C680 0.961 . S
H667 C681 0.960 . S
H668 C681 0.961 . S
H669 C681 0.959 . S
H670 C684 0.929 . S
H671 C685 0.931 . S
H672 C687 0.930 . S
C673 H661 0.930 . S
C673 C674 1.399 . S
C673 C678 1.399 . S
C674 C673 1.399 . S
C674 C675 1.376 . S
C675 H662 0.930 . S
C675 C674 1.376 . S
C675 C676 1.388 . S
C676 H663 0.930 . S
C676 C675 1.388 . S
C676 C677 1.390 . S
C677 C676 1.390 . S
C677 C678 1.394 . S
C677 C683 1.465 . S
C678 C673 1.399 . S
C678 C677 1.394 . S
C678 C679 1.516 . S
C679 C678 1.516 . S
C679 C680 1.502 . S
C679 C681 1.561 . S
C679 C682 1.526 . S
C680 H664 0.959 . S
C680 H665 0.959 . S
C680 H666 0.961 . S
C680 C679 1.502 . S
C681 H667 0.960 . S
C681 H668 0.961 . S
C681 H669 0.959 . S
C681 C679 1.561 . S
C682 C679 1.526 . S
C682 C683 1.396 . S
C682 C687 1.390 . S
C683 C677 1.465 . S
C683 C682 1.396 . S
C683 C684 1.399 . S
C684 H670 0.929 . S
C684 C683 1.399 . S
C684 C685 1.385 . S
C685 H671 0.931 . S
C685 C684 1.385 . S
C685 C686 1.389 . S
C686 C685 1.389 . S
C686 C687 1.387 . S
C687 H672 0.930 . S
C687 C682 1.390 . S
C687 C686 1.387 . S
H688 C700 0.930 . S
H689 C702 0.930 . S
H690 C703 0.930 . S
H691 C707 0.959 . S
H692 C707 0.959 . S
H693 C707 0.961 1_565 S
H694 C708 0.960 1_565 S
H695 C708 0.961 . S
H696 C708 0.959 . S
H697 C711 0.929 . S
H698 C712 0.931 . S
H699 C714 0.930 . S
C700 H688 0.930 . S
C700 C701 1.399 . S
C700 C705 1.399 . S
C701 C700 1.399 . S
C701 C702 1.376 . S
C702 H689 0.930 . S
C702 C701 1.376 . S
C702 C703 1.388 . S
C703 H690 0.930 . S
C703 C702 1.388 . S
C703 C704 1.390 . S
C704 C703 1.390 . S
C704 C705 1.394 . S
C704 C710 1.465 1_565 S
C705 C700 1.399 . S
C705 C704 1.394 . S
C705 C706 1.516 1_565 S
C706 C705 1.516 1_545 S
C706 C707 1.502 . S
C706 C708 1.561 . S
C706 C709 1.526 . S
C707 H691 0.959 . S
C707 H692 0.959 . S
C707 H693 0.961 1_545 S
C707 C706 1.502 . S
C708 H694 0.960 1_545 S
C708 H695 0.961 . S
C708 H696 0.959 . S
C708 C706 1.561 . S
C709 C706 1.526 . S
C709 C710 1.396 . S
C709 C714 1.390 . S
C710 C704 1.465 1_545 S
C710 C709 1.396 . S
C710 C711 1.399 . S
C711 H697 0.929 . S
C711 C710 1.399 . S
C711 C712 1.385 . S
C712 H698 0.931 . S
C712 C711 1.385 . S
C712 C713 1.389 . S
C713 C712 1.389 . S
C713 C714 1.387 . S
C714 H699 0.930 . S
C714 C709 1.390 . S
C714 C713 1.387 . S
H715 C727 0.930 . S
H716 C729 0.930 . S
H717 C730 0.930 . S
H718 C734 0.959 . S
H719 C734 0.959 . S
H720 C734 0.961 1_655 S
H721 C735 0.960 . S
H722 C735 0.961 1_455 S
H723 C735 0.959 . S
H724 C738 0.929 . S
H725 C739 0.931 . S
H726 C741 0.930 . S
C727 H715 0.930 . S
C727 C728 1.399 . S
C727 C732 1.399 . S
C728 C727 1.399 . S
C728 C729 1.376 . S
C729 H716 0.930 . S
C729 C728 1.376 . S
C729 C730 1.388 . S
C730 H717 0.930 . S
C730 C729 1.388 . S
C730 C731 1.390 . S
C731 C730 1.390 . S
C731 C732 1.394 . S
C731 C737 1.465 1_655 S
C732 C727 1.399 . S
C732 C731 1.394 . S
C732 C733 1.516 1_655 S
C733 C732 1.516 1_455 S
C733 C734 1.502 . S
C733 C735 1.561 1_455 S
C733 C736 1.526 . S
C734 H718 0.959 . S
C734 H719 0.959 . S
C734 H720 0.961 1_455 S
C734 C733 1.502 . S
C735 H721 0.960 . S
C735 H722 0.961 1_655 S
C735 H723 0.959 . S
C735 C733 1.561 1_655 S
C736 C733 1.526 . S
C736 C737 1.396 . S
C736 C741 1.390 . S
C737 C731 1.465 1_455 S
C737 C736 1.396 . S
C737 C738 1.399 . S
C738 H724 0.929 . S
C738 C737 1.399 . S
C738 C739 1.385 . S
C739 H725 0.931 . S
C739 C738 1.385 . S
C739 C740 1.389 . S
C740 C739 1.389 . S
C740 C741 1.387 . S
C741 H726 0.930 . S
C741 C736 1.390 . S
C741 C740 1.387 . S
H742 C754 0.930 . S
H743 C756 0.930 . S
H744 C757 0.930 . S
H745 C761 0.959 . S
H746 C761 0.959 1_545 S
H747 C761 0.961 . S
H748 C762 0.960 . S
H749 C762 0.961 1_545 S
H750 C762 0.959 . S
H751 C765 0.929 . S
H752 C766 0.931 . S
H753 C768 0.930 . S
C754 H742 0.930 . S
C754 C755 1.399 . S
C754 C759 1.399 . S
C755 C754 1.399 . S
C755 C756 1.376 . S
C756 H743 0.930 . S
C756 C755 1.376 . S
C756 C757 1.388 . S
C757 H744 0.930 . S
C757 C756 1.388 . S
C757 C758 1.390 . S
C758 C757 1.390 . S
C758 C759 1.394 . S
C758 C764 1.465 1_565 S
C759 C754 1.399 . S
C759 C758 1.394 . S
C759 C760 1.516 . S
C760 C759 1.516 . S
C760 C761 1.502 . S
C760 C762 1.561 . S
C760 C763 1.526 1_565 S
C761 H745 0.959 . S
C761 H746 0.959 1_565 S
C761 H747 0.961 . S
C761 C760 1.502 . S
C762 H748 0.960 . S
C762 H749 0.961 1_565 S
C762 H750 0.959 . S
C762 C760 1.561 . S
C763 C760 1.526 1_545 S
C763 C764 1.396 . S
C763 C768 1.390 . S
C764 C758 1.465 1_545 S
C764 C763 1.396 . S
C764 C765 1.399 . S
C765 H751 0.929 . S
C765 C764 1.399 . S
C765 C766 1.385 . S
C766 H752 0.931 . S
C766 C765 1.385 . S
C766 C767 1.389 . S
C767 C766 1.389 . S
C767 C768 1.387 . S
C768 H753 0.930 . S
C768 C763 1.390 . S
C768 C767 1.387 . S
H769 C781 0.930 . S
H770 C783 0.930 . S
H771 C784 0.930 . S
H772 C788 0.959 . S
H773 C788 0.959 . S
H774 C788 0.961 1_655 S
H775 C789 0.960 . S
H776 C789 0.961 1_455 S
H777 C789 0.959 . S
H778 C792 0.929 . S
H779 C793 0.931 . S
H780 C795 0.930 . S
C781 H769 0.930 . S
C781 C782 1.399 . S
C781 C786 1.399 . S
C782 C781 1.399 . S
C782 C783 1.376 . S
C783 H770 0.930 . S
C783 C782 1.376 . S
C783 C784 1.388 . S
C784 H771 0.930 . S
C784 C783 1.388 . S
C784 C785 1.390 . S
C785 C784 1.390 . S
C785 C786 1.394 . S
C785 C791 1.465 1_655 S
C786 C781 1.399 . S
C786 C785 1.394 . S
C786 C787 1.543 . S
C787 C786 1.543 . S
C787 C788 1.498 1_655 S
C787 C789 1.566 . S
C787 C790 1.498 1_655 S
C788 H772 0.959 . S
C788 H773 0.959 . S
C788 H774 0.961 1_455 S
C788 C787 1.498 1_455 S
C789 H775 0.960 . S
C789 H776 0.961 1_655 S
C789 H777 0.959 . S
C789 C787 1.566 . S
C790 C787 1.498 1_455 S
C790 C791 1.396 . S
C790 C795 1.390 . S
C791 C785 1.465 1_455 S
C791 C790 1.396 . S
C791 C792 1.399 . S
C792 H778 0.929 . S
C792 C791 1.399 . S
C792 C793 1.385 . S
C793 H779 0.931 . S
C793 C792 1.385 . S
C793 C794 1.389 . S
C794 C793 1.389 . S
C794 C795 1.387 . S
C795 H780 0.930 . S
C795 C790 1.390 . S
C795 C794 1.387 . S
H796 C808 0.930 . S
H797 C810 0.930 . S
H798 C811 0.930 . S
H799 C815 0.959 . S
H800 C815 0.959 . S
H801 C815 0.961 . S
H802 C816 0.960 . S
H803 C816 0.961 . S
H804 C816 0.959 . S
H805 C819 0.929 . S
H806 C820 0.931 . S
H807 C822 0.930 . S
C808 H796 0.930 . S
C808 C809 1.399 . S
C808 C813 1.399 1_556 S
C809 C808 1.399 . S
C809 C810 1.376 . S
C810 H797 0.930 . S
C810 C809 1.376 . S
C810 C811 1.388 1_556 S
C811 H798 0.930 . S
C811 C810 1.388 1_554 S
C811 C812 1.390 . S
C812 C811 1.390 . S
C812 C813 1.394 . S
C812 C818 1.465 . S
C813 C808 1.399 1_554 S
C813 C812 1.394 . S
C813 C814 1.516 . S
C814 C813 1.516 . S
C814 C815 1.502 . S
C814 C816 1.561 . S
C814 C817 1.526 . S
C815 H799 0.959 . S
C815 H800 0.959 . S
C815 H801 0.961 . S
C815 C814 1.502 . S
C816 H802 0.960 . S
C816 H803 0.961 . S
C816 H804 0.959 . S
C816 C814 1.561 . S
C817 C814 1.526 . S
C817 C818 1.396 . S
C817 C822 1.390 . S
C818 C812 1.465 . S
C818 C817 1.396 . S
C818 C819 1.399 . S
C819 H805 0.929 . S
C819 C818 1.399 . S
C819 C820 1.385 . S
C820 H806 0.931 . S
C820 C819 1.385 . S
C820 C821 1.389 . S
C821 C820 1.389 . S
C821 C822 1.387 . S
C822 H807 0.930 . S
C822 C817 1.390 . S
C822 C821 1.387 . S
H823 C835 0.930 . S
H824 C837 0.930 . S
H825 C838 0.930 . S
H826 C842 0.959 . S
H827 C842 0.959 . S
H828 C842 0.961 . S
H829 C843 0.960 . S
H830 C843 0.961 . S
H831 C843 0.959 . S
H832 C846 0.929 . S
H833 C847 0.931 . S
H834 C849 0.930 . S
C835 H823 0.930 . S
C835 C836 1.399 . S
C835 C840 1.399 . S
C836 C835 1.399 . S
C836 C837 1.376 . S
C837 H824 0.930 . S
C837 C836 1.376 . S
C837 C838 1.388 . S
C838 H825 0.930 . S
C838 C837 1.388 . S
C838 C839 1.390 . S
C839 C838 1.390 . S
C839 C840 1.394 . S
C839 C845 1.465 . S
C840 C835 1.399 . S
C840 C839 1.394 . S
C840 C841 1.516 . S
C841 C840 1.516 . S
C841 C842 1.502 . S
C841 C843 1.561 . S
C841 C844 1.526 . S
C842 H826 0.959 . S
C842 H827 0.959 . S
C842 H828 0.961 . S
C842 C841 1.502 . S
C843 H829 0.960 . S
C843 H830 0.961 . S
C843 H831 0.959 . S
C843 C841 1.561 . S
C844 C841 1.526 . S
C844 C845 1.396 . S
C844 C849 1.390 . S
C845 C839 1.465 . S
C845 C844 1.396 . S
C845 C846 1.399 . S
C846 H832 0.929 . S
C846 C845 1.399 . S
C846 C847 1.385 . S
C847 H833 0.931 . S
C847 C846 1.385 . S
C847 C848 1.389 . S
C848 C847 1.389 . S
C848 C849 1.387 . S
C849 H834 0.930 . S
C849 C844 1.390 . S
C849 C848 1.387 . S
H850 C862 0.930 . S
H851 C864 0.930 . S
H852 C865 0.930 . S
H853 C869 0.959 . S
H854 C869 0.959 . S
H855 C869 0.961 . S
H856 C870 0.960 . S
H857 C870 0.961 . S
H858 C870 0.959 . S
H859 C873 0.929 . S
H860 C874 0.931 . S
H861 C876 0.930 . S
C862 H850 0.930 . S
C862 C863 1.399 . S
C862 C867 1.399 . S
C863 C862 1.399 . S
C863 C864 1.376 . S
C864 H851 0.930 . S
C864 C863 1.376 . S
C864 C865 1.388 . S
C865 H852 0.930 . S
C865 C864 1.388 . S
C865 C866 1.390 . S
C866 C865 1.390 . S
C866 C867 1.394 . S
C866 C872 1.465 . S
C867 C862 1.399 . S
C867 C866 1.394 . S
C867 C868 1.516 . S
C868 C867 1.516 . S
C868 C869 1.502 . S
C868 C870 1.561 . S
C868 C871 1.526 . S
C869 H853 0.959 . S
C869 H854 0.959 . S
C869 H855 0.961 . S
C869 C868 1.502 . S
C870 H856 0.960 . S
C870 H857 0.961 . S
C870 H858 0.959 . S
C870 C868 1.561 . S
C871 C868 1.526 . S
C871 C872 1.396 . S
C871 C876 1.390 . S
C872 C866 1.465 . S
C872 C871 1.396 . S
C872 C873 1.399 . S
C873 H859 0.929 . S
C873 C872 1.399 . S
C873 C874 1.385 . S
C874 H860 0.931 . S
C874 C873 1.385 . S
C874 C875 1.389 . S
C875 C874 1.389 . S
C875 C876 1.387 . S
C876 H861 0.930 . S
C876 C871 1.390 . S
C876 C875 1.387 . S
H877 C889 0.930 . S
H878 C891 0.930 . S
H879 C892 0.930 . S
H880 C896 0.959 . S
H881 C896 0.959 . S
H882 C896 0.961 . S
H883 C897 0.960 . S
H884 C897 0.961 . S
H885 C897 0.959 . S
H886 C900 0.929 . S
H887 C901 0.931 . S
H888 C903 0.930 . S
C889 H877 0.930 . S
C889 C890 1.399 . S
C889 C894 1.399 . S
C890 C889 1.399 . S
C890 C891 1.376 . S
C891 H878 0.930 . S
C891 C890 1.376 . S
C891 C892 1.388 . S
C892 H879 0.930 . S
C892 C891 1.388 . S
C892 C893 1.390 . S
C893 C892 1.390 . S
C893 C894 1.394 . S
C893 C899 1.465 . S
C894 C889 1.399 . S
C894 C893 1.394 . S
C894 C895 1.516 . S
C895 C894 1.516 . S
C895 C896 1.502 . S
C895 C897 1.561 . S
C895 C898 1.526 . S
C896 H880 0.959 . S
C896 H881 0.959 . S
C896 H882 0.961 . S
C896 C895 1.502 . S
C897 H883 0.960 . S
C897 H884 0.961 . S
C897 H885 0.959 . S
C897 C895 1.561 . S
C898 C895 1.526 . S
C898 C899 1.396 . S
C898 C903 1.390 . S
C899 C893 1.465 . S
C899 C898 1.396 . S
C899 C900 1.399 . S
C900 H886 0.929 . S
C900 C899 1.399 . S
C900 C901 1.385 . S
C901 H887 0.931 . S
C901 C900 1.385 . S
C901 C902 1.389 . S
C902 C901 1.389 . S
C902 C903 1.387 . S
C903 H888 0.930 . S
C903 C898 1.390 . S
C903 C902 1.387 . S
C485 C33 0.887 . S
C497 C387 0.863 . S
C512 C92 0.864 . S
C524 C446 0.878 . S
C539 C269 0.858 . S
C551 C151 0.885 . S
C566 C328 0.890 . S
C578 C210 0.855 . S
C593 C5 1.645 . S
C605 C300 1.608 . S
C620 C64 1.609 . S
C632 C359 1.643 . S
C647 C418 1.653 . S
C659 C123 1.602 . S
C674 C182 1.605 . S
C686 C241 1.647 . S
C701 C288 1.601 . S
C713 C52 1.622 . S
C728 C111 1.605 . S
C740 C347 1.621 . S
C755 C170 1.625 . S
C767 C406 1.600 . S
C782 C465 1.611 . S
C794 C229 1.616 . S
C809 C357 1.373 . S
C821 C3 1.365 . S
C836 C416 1.322 . S
C848 C62 1.311 . S
C863 C121 1.372 . S
C875 C239 1.372 . S
C890 C180 1.357 . S
C902 C298 1.368 . S
