# Generated by pormake.
# Topology uns, (4)-cn, num edge types: 1
# Building blocks:
#     Node 0, Type 0, BuildingBlock: CEKHIL_clean_sbu_0, # of connection points: 4
#     Node 1, Type 0, BuildingBlock: CEKHIL_clean_sbu_0, # of connection points: 4
#     Node 2, Type 0, BuildingBlock: CEKHIL_clean_sbu_0, # of connection points: 4
#     Node 3, Type 0, BuildingBlock: CEKHIL_clean_sbu_0, # of connection points: 4
#     Node 4, Type 0, BuildingBlock: CEKHIL_clean_sbu_0, # of connection points: 4
#     Node 5, Type 0, BuildingBlock: CEKHIL_clean_sbu_0, # of connection points: 4
#     Node 6, Type 0, BuildingBlock: CEKHIL_clean_sbu_0, # of connection points: 4
#     Node 7, Type 0, BuildingBlock: CEKHIL_clean_sbu_0, # of connection points: 4
#     Node 8, Type 0, BuildingBlock: CEKHIL_clean_sbu_0, # of connection points: 4
#     Node 9, Type 0, BuildingBlock: CEKHIL_clean_sbu_0, # of connection points: 4
#     Node 10, Type 0, BuildingBlock: CEKHIL_clean_sbu_0, # of connection points: 4
#     Node 11, Type 0, BuildingBlock: CEKHIL_clean_sbu_0, # of connection points: 4
#     Node 12, Type 0, BuildingBlock: CEKHIL_clean_sbu_0, # of connection points: 4
#     Node 13, Type 0, BuildingBlock: CEKHIL_clean_sbu_0, # of connection points: 4
#     Node 14, Type 0, BuildingBlock: CEKHIL_clean_sbu_0, # of connection points: 4
#     Node 15, Type 0, BuildingBlock: CEKHIL_clean_sbu_0, # of connection points: 4
#     Node 16, Type 0, BuildingBlock: CEKHIL_clean_sbu_0, # of connection points: 4
#     Node 17, Type 0, BuildingBlock: CEKHIL_clean_sbu_0, # of connection points: 4
#     Node 18, Type 0, BuildingBlock: CEKHIL_clean_sbu_0, # of connection points: 4
#     Node 19, Type 0, BuildingBlock: CEKHIL_clean_sbu_0, # of connection points: 4
#     Node 20, Type 0, BuildingBlock: CEKHIL_clean_sbu_0, # of connection points: 4
#     Node 21, Type 0, BuildingBlock: CEKHIL_clean_sbu_0, # of connection points: 4
#     Node 22, Type 0, BuildingBlock: CEKHIL_clean_sbu_0, # of connection points: 4
#     Node 23, Type 0, BuildingBlock: CEKHIL_clean_sbu_0, # of connection points: 4
#     Node 24, Type 0, BuildingBlock: CEKHIL_clean_sbu_0, # of connection points: 4
#     Node 25, Type 0, BuildingBlock: CEKHIL_clean_sbu_0, # of connection points: 4
#     Node 26, Type 0, BuildingBlock: CEKHIL_clean_sbu_0, # of connection points: 4
#     Node 27, Type 0, BuildingBlock: CEKHIL_clean_sbu_0, # of connection points: 4
#     Node 28, Type 0, BuildingBlock: CEKHIL_clean_sbu_0, # of connection points: 4
#     Node 29, Type 0, BuildingBlock: CEKHIL_clean_sbu_0, # of connection points: 4
#     Node 30, Type 0, BuildingBlock: CEKHIL_clean_sbu_0, # of connection points: 4
#     Node 31, Type 0, BuildingBlock: CEKHIL_clean_sbu_0, # of connection points: 4
#     Node 32, Type 0, BuildingBlock: CEKHIL_clean_sbu_0, # of connection points: 4
#     Node 33, Type 0, BuildingBlock: CEKHIL_clean_sbu_0, # of connection points: 4
#     Node 34, Type 0, BuildingBlock: CEKHIL_clean_sbu_0, # of connection points: 4
#     Node 35, Type 0, BuildingBlock: CEKHIL_clean_sbu_0, # of connection points: 4
#     Edge 36, Type (0, 0), BuildingBlock: XIVTED_clean_linker_0, # of connection points: 2
#     Edge 37, Type (0, 0), BuildingBlock: XIVTED_clean_linker_0, # of connection points: 2
#     Edge 38, Type (0, 0), BuildingBlock: XIVTED_clean_linker_0, # of connection points: 2
#     Edge 39, Type (0, 0), BuildingBlock: XIVTED_clean_linker_0, # of connection points: 2
#     Edge 40, Type (0, 0), BuildingBlock: XIVTED_clean_linker_0, # of connection points: 2
#     Edge 41, Type (0, 0), BuildingBlock: XIVTED_clean_linker_0, # of connection points: 2
#     Edge 42, Type (0, 0), BuildingBlock: XIVTED_clean_linker_0, # of connection points: 2
#     Edge 43, Type (0, 0), BuildingBlock: XIVTED_clean_linker_0, # of connection points: 2
#     Edge 44, Type (0, 0), BuildingBlock: XIVTED_clean_linker_0, # of connection points: 2
#     Edge 45, Type (0, 0), BuildingBlock: XIVTED_clean_linker_0, # of connection points: 2
#     Edge 46, Type (0, 0), BuildingBlock: XIVTED_clean_linker_0, # of connection points: 2
#     Edge 47, Type (0, 0), BuildingBlock: XIVTED_clean_linker_0, # of connection points: 2
#     Edge 48, Type (0, 0), BuildingBlock: XIVTED_clean_linker_0, # of connection points: 2
#     Edge 49, Type (0, 0), BuildingBlock: XIVTED_clean_linker_0, # of connection points: 2
#     Edge 50, Type (0, 0), BuildingBlock: XIVTED_clean_linker_0, # of connection points: 2
#     Edge 51, Type (0, 0), BuildingBlock: XIVTED_clean_linker_0, # of connection points: 2
#     Edge 52, Type (0, 0), BuildingBlock: XIVTED_clean_linker_0, # of connection points: 2
#     Edge 53, Type (0, 0), BuildingBlock: XIVTED_clean_linker_0, # of connection points: 2
#     Edge 54, Type (0, 0), BuildingBlock: XIVTED_clean_linker_0, # of connection points: 2
#     Edge 55, Type (0, 0), BuildingBlock: XIVTED_clean_linker_0, # of connection points: 2
#     Edge 56, Type (0, 0), BuildingBlock: XIVTED_clean_linker_0, # of connection points: 2
#     Edge 57, Type (0, 0), BuildingBlock: XIVTED_clean_linker_0, # of connection points: 2
#     Edge 58, Type (0, 0), BuildingBlock: XIVTED_clean_linker_0, # of connection points: 2
#     Edge 59, Type (0, 0), BuildingBlock: XIVTED_clean_linker_0, # of connection points: 2
#     Edge 60, Type (0, 0), BuildingBlock: XIVTED_clean_linker_0, # of connection points: 2
#     Edge 61, Type (0, 0), BuildingBlock: XIVTED_clean_linker_0, # of connection points: 2
#     Edge 62, Type (0, 0), BuildingBlock: XIVTED_clean_linker_0, # of connection points: 2
#     Edge 63, Type (0, 0), BuildingBlock: XIVTED_clean_linker_0, # of connection points: 2
#     Edge 64, Type (0, 0), BuildingBlock: XIVTED_clean_linker_0, # of connection points: 2
#     Edge 65, Type (0, 0), BuildingBlock: XIVTED_clean_linker_0, # of connection points: 2
#     Edge 66, Type (0, 0), BuildingBlock: XIVTED_clean_linker_0, # of connection points: 2
#     Edge 67, Type (0, 0), BuildingBlock: XIVTED_clean_linker_0, # of connection points: 2
#     Edge 68, Type (0, 0), BuildingBlock: XIVTED_clean_linker_0, # of connection points: 2
#     Edge 69, Type (0, 0), BuildingBlock: XIVTED_clean_linker_0, # of connection points: 2
#     Edge 70, Type (0, 0), BuildingBlock: XIVTED_clean_linker_0, # of connection points: 2
#     Edge 71, Type (0, 0), BuildingBlock: XIVTED_clean_linker_0, # of connection points: 2
#     Edge 72, Type (0, 0), BuildingBlock: XIVTED_clean_linker_0, # of connection points: 2
#     Edge 73, Type (0, 0), BuildingBlock: XIVTED_clean_linker_0, # of connection points: 2
#     Edge 74, Type (0, 0), BuildingBlock: XIVTED_clean_linker_0, # of connection points: 2
#     Edge 75, Type (0, 0), BuildingBlock: XIVTED_clean_linker_0, # of connection points: 2
#     Edge 76, Type (0, 0), BuildingBlock: XIVTED_clean_linker_0, # of connection points: 2
#     Edge 77, Type (0, 0), BuildingBlock: XIVTED_clean_linker_0, # of connection points: 2
#     Edge 78, Type (0, 0), BuildingBlock: XIVTED_clean_linker_0, # of connection points: 2
#     Edge 79, Type (0, 0), BuildingBlock: XIVTED_clean_linker_0, # of connection points: 2
#     Edge 80, Type (0, 0), BuildingBlock: XIVTED_clean_linker_0, # of connection points: 2
#     Edge 81, Type (0, 0), BuildingBlock: XIVTED_clean_linker_0, # of connection points: 2
#     Edge 82, Type (0, 0), BuildingBlock: XIVTED_clean_linker_0, # of connection points: 2
#     Edge 83, Type (0, 0), BuildingBlock: XIVTED_clean_linker_0, # of connection points: 2
#     Edge 84, Type (0, 0), BuildingBlock: XIVTED_clean_linker_0, # of connection points: 2
#     Edge 85, Type (0, 0), BuildingBlock: XIVTED_clean_linker_0, # of connection points: 2
#     Edge 86, Type (0, 0), BuildingBlock: XIVTED_clean_linker_0, # of connection points: 2
#     Edge 87, Type (0, 0), BuildingBlock: XIVTED_clean_linker_0, # of connection points: 2
#     Edge 88, Type (0, 0), BuildingBlock: XIVTED_clean_linker_0, # of connection points: 2
#     Edge 89, Type (0, 0), BuildingBlock: XIVTED_clean_linker_0, # of connection points: 2
#     Edge 90, Type (0, 0), BuildingBlock: XIVTED_clean_linker_0, # of connection points: 2
#     Edge 91, Type (0, 0), BuildingBlock: XIVTED_clean_linker_0, # of connection points: 2
#     Edge 92, Type (0, 0), BuildingBlock: XIVTED_clean_linker_0, # of connection points: 2
#     Edge 93, Type (0, 0), BuildingBlock: XIVTED_clean_linker_0, # of connection points: 2
#     Edge 94, Type (0, 0), BuildingBlock: XIVTED_clean_linker_0, # of connection points: 2
#     Edge 95, Type (0, 0), BuildingBlock: XIVTED_clean_linker_0, # of connection points: 2
#     Edge 96, Type (0, 0), BuildingBlock: XIVTED_clean_linker_0, # of connection points: 2
#     Edge 97, Type (0, 0), BuildingBlock: XIVTED_clean_linker_0, # of connection points: 2
#     Edge 98, Type (0, 0), BuildingBlock: XIVTED_clean_linker_0, # of connection points: 2
#     Edge 99, Type (0, 0), BuildingBlock: XIVTED_clean_linker_0, # of connection points: 2
#     Edge 100, Type (0, 0), BuildingBlock: XIVTED_clean_linker_0, # of connection points: 2
#     Edge 101, Type (0, 0), BuildingBlock: XIVTED_clean_linker_0, # of connection points: 2
#     Edge 102, Type (0, 0), BuildingBlock: XIVTED_clean_linker_0, # of connection points: 2
#     Edge 103, Type (0, 0), BuildingBlock: XIVTED_clean_linker_0, # of connection points: 2
#     Edge 104, Type (0, 0), BuildingBlock: XIVTED_clean_linker_0, # of connection points: 2
#     Edge 105, Type (0, 0), BuildingBlock: XIVTED_clean_linker_0, # of connection points: 2
#     Edge 106, Type (0, 0), BuildingBlock: XIVTED_clean_linker_0, # of connection points: 2
#     Edge 107, Type (0, 0), BuildingBlock: XIVTED_clean_linker_0, # of connection points: 2
# Relax obj value: 0.114
# Max RMSD: 0.262
# Mean RMSD: 0.246
data_MOF--net-uns--node1-CEKHIL_clean_sbu_0--edge1-XIVTED_clean_linker_0
_symmetry_space_group_name_H-M    P1
_symmetry_Int_Tables_number       1
_symmetry_cell_setting            triclinic
loop_
_symmetry_equiv_pos_as_xyz
'x, y, z'
_cell_length_a     55.034103
_cell_length_b     54.183262
_cell_length_c     55.626352
_cell_angle_alpha  91.312781
_cell_angle_beta   89.997485
_cell_angle_gamma 120.51458
loop_
_atom_site_label
_atom_site_type_symbol
_atom_site_fract_x
_atom_site_fract_y
_atom_site_fract_z
_atom_type_partial_charge
Co0 Co 0.29737 0.20689 0.05123 0.0
O1 O 0.31362 0.18877 0.069 0.0
O2 O 0.29847 0.21615 0.08526 0.0
C3 C 0.26867 0.16951 0.02726 0.0
O4 O 0.2786 0.22824 0.03824 0.0
Co5 Co 0.31129 0.21716 0.9975 0.0
O6 O 0.28434 0.23131 0.99811 0.0
C7 C 0.35553 0.24947 0.03283 0.0
C8 C 0.31109 0.20153 0.08804 0.0
C9 C 0.27408 0.23519 0.0174 0.0
O10 O 0.33598 0.24094 0.04843 0.0
O11 O 0.35089 0.24128 0.01074 0.0
O12 O 0.26114 0.17185 0.04898 0.0
O13 O 0.29452 0.18786 0.02187 0.0
Co14 Co 0.82561 0.09342 0.06165 0.0
O15 O 0.86332 0.10982 0.05009 0.0
O16 O 0.82559 0.09686 0.02699 0.0
C17 C 0.83352 0.12409 0.0923 0.0
O18 O 0.78366 0.07678 0.06838 0.0
Co19 Co 0.8133 0.0663 0.11184 0.0
O20 O 0.77903 0.06917 0.1082 0.0
C21 C 0.81637 0.03338 0.07077 0.0
C22 C 0.85275 0.10774 0.02883 0.0
C23 C 0.7694 0.07124 0.08797 0.0
O24 O 0.82009 0.05393 0.05732 0.0
O25 O 0.81439 0.03434 0.09366 0.0
O26 O 0.83166 0.13081 0.07041 0.0
O27 O 0.83562 0.10144 0.09446 0.0
Co28 Co 0.90506 0.72688 0.05565 0.0
O29 O 0.89322 0.75273 0.04531 0.0
O30 O 0.89724 0.72189 0.02124 0.0
C31 C 0.87725 0.70959 0.08777 0.0
O32 O 0.91623 0.69664 0.06103 0.0
Co33 Co 0.93768 0.74116 0.10406 0.0
O34 O 0.92774 0.70067 0.10036 0.0
C35 C 0.96831 0.77172 0.06142 0.0
C36 C 0.89093 0.74194 0.02383 0.0
C37 C 0.92202 0.68732 0.0801 0.0
O38 O 0.94532 0.75651 0.04936 0.0
O39 O 0.96998 0.77 0.08421 0.0
O40 O 0.86753 0.70007 0.06621 0.0
O41 O 0.90219 0.7324 0.08893 0.0
Co42 Co 0.17591 0.27337 0.44676 0.0
O43 O 0.13776 0.24766 0.45613 0.0
O44 O 0.17206 0.27715 0.48124 0.0
C45 C 0.16692 0.29226 0.4149 0.0
O46 O 0.21771 0.30323 0.44239 0.0
Co47 Co 0.19507 0.26061 0.39794 0.0
O48 O 0.22585 0.3008 0.40295 0.0
C49 C 0.19384 0.22831 0.43989 0.0
C50 C 0.14565 0.25756 0.47791 0.0
C51 C 0.23326 0.31319 0.42361 0.0
O52 O 0.1857 0.24294 0.4524 0.0
O53 O 0.19788 0.23107 0.4172 0.0
O54 O 0.16624 0.30121 0.43658 0.0
O55 O 0.16845 0.26914 0.41341 0.0
Co56 Co 0.73165 0.8998 0.43746 0.0
O57 O 0.7561 0.88702 0.44899 0.0
O58 O 0.72783 0.89521 0.472 0.0
C59 C 0.71173 0.86893 0.40627 0.0
O60 O 0.70302 0.91239 0.43074 0.0
Co61 Co 0.74474 0.92795 0.3876 0.0
O62 O 0.70597 0.92104 0.3911 0.0
C63 C 0.77864 0.96203 0.42925 0.0
C64 C 0.74643 0.88721 0.47019 0.0
C65 C 0.69361 0.91726 0.41121 0.0
O66 O 0.76273 0.94076 0.44246 0.0
O67 O 0.77613 0.96106 0.40632 0.0
O68 O 0.7033 0.86116 0.42803 0.0
O69 O 0.73508 0.8933 0.40459 0.0
Co70 Co 0.08704 0.78729 0.4497 0.0
O71 O 0.12133 0.80443 0.43184 0.0
O72 O 0.07865 0.7775 0.41573 0.0
C73 C 0.09698 0.82567 0.47296 0.0
O74 O 0.04696 0.7669 0.46282 0.0
Co75 Co 0.09052 0.77799 0.50357 0.0
O76 O 0.04948 0.76411 0.50299 0.0
C77 C 0.10191 0.74464 0.46891 0.0
C78 C 0.10589 0.79163 0.41289 0.0
C79 C 0.03541 0.76022 0.48365 0.0
O80 O 0.0908 0.75283 0.45311 0.0
O81 O 0.10573 0.75341 0.49086 0.0
O82 O 0.08676 0.82282 0.45131 0.0
O83 O 0.10378 0.80691 0.4788 0.0
Co84 Co 0.73735 0.82247 0.92703 0.0
O85 O 0.71372 0.83643 0.91585 0.0
O86 O 0.75752 0.85253 0.90403 0.0
C87 C 0.70492 0.77581 0.92147 0.0
O88 O 0.76723 0.8117 0.93465 0.0
Co89 Co 0.72025 0.78616 0.97287 0.0
O90 O 0.74638 0.77445 0.95946 0.0
C91 C 0.74757 0.8491 0.97781 0.0
C92 C 0.73417 0.85301 0.90197 0.0
C93 C 0.76631 0.79042 0.94548 0.0
O94 O 0.75097 0.851 0.95488 0.0
O95 O 0.73433 0.82509 0.9884 0.0
O96 O 0.72004 0.79083 0.90372 0.0
O97 O 0.70789 0.79 0.94137 0.0
Co98 Co 0.16935 0.9349 0.94125 0.0
O99 O 0.12943 0.91402 0.94606 0.0
O100 O 0.15901 0.90132 0.96018 0.0
C101 C 0.17561 0.97821 0.95157 0.0
O102 O 0.2121 0.95197 0.93989 0.0
Co103 Co 0.19299 0.9809 0.90128 0.0
O104 O 0.22968 0.9871 0.91269 0.0
C105 C 0.17126 0.91986 0.88839 0.0
C106 C 0.13334 0.89652 0.9587 0.0
C107 C 0.2327 0.97176 0.92806 0.0
O108 O 0.16485 0.91269 0.91037 0.0
O109 O 0.18163 0.94547 0.88109 0.0
O110 O 0.17408 0.9608 0.96789 0.0
O111 O 0.17041 0.96792 0.92978 0.0
Co112 Co 0.07882 0.24898 0.94067 0.0
O113 O 0.09729 0.23105 0.95525 0.0
O114 O 0.11294 0.27764 0.95754 0.0
C115 C 0.03486 0.21752 0.95251 0.0
O116 O 0.06387 0.27414 0.9286 0.0
Co117 Co 0.0353 0.21497 0.89955 0.0
O118 O 0.02876 0.2477 0.90181 0.0
C119 C 0.09565 0.24615 0.88853 0.0
C120 C 0.11618 0.25628 0.96322 0.0
C121 C 0.04401 0.27071 0.91414 0.0
O122 O 0.10125 0.25587 0.91035 0.0
O123 O 0.0708 0.22753 0.88111 0.0
O124 O 0.05243 0.2379 0.96708 0.0
O125 O 0.04548 0.21446 0.93272 0.0
Co126 Co 0.82676 0.7443 0.56231 0.0
O127 O 0.8626 0.76159 0.5468 0.0
O128 O 0.83133 0.71507 0.5454 0.0
C129 C 0.81437 0.77592 0.5507 0.0
O130 O 0.78708 0.71976 0.57553 0.0
Co131 Co 0.81928 0.77947 0.60361 0.0
O132 O 0.77982 0.74705 0.6025 0.0
C133 C 0.84805 0.74773 0.61399 0.0
C134 C 0.85584 0.73613 0.53912 0.0
C135 C 0.77136 0.72372 0.59046 0.0
O136 O 0.84323 0.7378 0.59222 0.0
O137 O 0.84226 0.7666 0.62162 0.0
O138 O 0.81068 0.75507 0.53628 0.0
O139 O 0.82869 0.77922 0.57014 0.0
Co140 Co 0.23702 0.06541 0.55581 0.0
O141 O 0.21568 0.08356 0.54961 0.0
O142 O 0.25952 0.09993 0.53762 0.0
C143 C 0.20286 0.02092 0.54434 0.0
O144 O 0.26486 0.05123 0.55915 0.0
Co145 Co 0.21452 0.01991 0.59604 0.0
O146 O 0.24797 0.0172 0.58735 0.0
C147 C 0.24627 0.08137 0.60943 0.0
C148 C 0.23729 0.10262 0.5381 0.0
C149 C 0.2666 0.03281 0.57222 0.0
O150 O 0.25152 0.08771 0.58716 0.0
O151 O 0.22964 0.05585 0.61643 0.0
O152 O 0.21891 0.03912 0.52854 0.0
O153 O 0.20586 0.03108 0.56607 0.0
Co154 Co 0.90875 0.17672 0.57079 0.0
O155 O 0.87122 0.16382 0.58166 0.0
O156 O 0.89822 0.1474 0.59465 0.0
C157 C 0.92364 0.22362 0.57524 0.0
O158 O 0.94929 0.18659 0.56363 0.0
Co159 Co 0.92869 0.21161 0.52424 0.0
O160 O 0.96631 0.2232 0.53809 0.0
C161 C 0.89206 0.14867 0.52053 0.0
C162 C 0.8747 0.14762 0.5963 0.0
C163 C 0.9699 0.20745 0.55261 0.0
O164 O 0.8935 0.14736 0.54353 0.0
O165 O 0.90325 0.17238 0.50945 0.0
O166 O 0.92343 0.20899 0.59341 0.0
O167 O 0.91238 0.20898 0.55553 0.0
Co168 Co 0.96132 0.53797 0.38457 0.0
O169 O 0.97728 0.51925 0.40171 0.0
O170 O 0.95585 0.54022 0.41888 0.0
C171 C 0.94008 0.50448 0.35535 0.0
O172 O 0.94157 0.55852 0.37194 0.0
Co173 Co 0.9841 0.5596 0.33445 0.0
O174 O 0.95447 0.57022 0.33356 0.0
C175 C 0.02075 0.58589 0.37594 0.0
C176 C 0.97047 0.52755 0.42131 0.0
C177 C 0.93979 0.56881 0.35177 0.0
O178 O 0.99825 0.57437 0.38838 0.0
O179 O 0.02064 0.58155 0.35326 0.0
O180 O 0.92783 0.50186 0.37592 0.0
O181 O 0.96586 0.5255 0.35408 0.0
Co182 Co 0.49275 0.42794 0.39508 0.0
O183 O 0.52958 0.4416 0.38223 0.0
O184 O 0.49181 0.43205 0.36053 0.0
C185 C 0.50492 0.45932 0.4261 0.0
O186 O 0.45162 0.4143 0.40341 0.0
Co187 Co 0.481 0.40079 0.44535 0.0
O188 O 0.4481 0.40624 0.44318 0.0
C189 C 0.48025 0.36665 0.40344 0.0
C190 C 0.51866 0.44086 0.36143 0.0
C191 C 0.43821 0.40926 0.42345 0.0
O192 O 0.4839 0.38729 0.39011 0.0
O193 O 0.48 0.36815 0.42644 0.0
O194 O 0.50243 0.46646 0.40453 0.0
O195 O 0.50443 0.43519 0.42752 0.0
Co196 Co 0.5729 0.05739 0.38891 0.0
O197 O 0.56112 0.08363 0.37957 0.0
O198 O 0.56498 0.05346 0.35452 0.0
C199 C 0.54524 0.03902 0.42096 0.0
O200 O 0.58388 0.02685 0.3932 0.0
Co201 Co 0.60535 0.06988 0.43733 0.0
O202 O 0.59485 0.02933 0.43253 0.0
C203 C 0.63623 0.10181 0.39525 0.0
C204 C 0.5587 0.07345 0.35783 0.0
C205 C 0.58921 0.01667 0.41196 0.0
O206 O 0.61329 0.08721 0.38295 0.0
O207 O 0.63771 0.09922 0.41794 0.0
O208 O 0.53532 0.03021 0.39933 0.0
O209 O 0.57011 0.06189 0.42231 0.0
Co210 Co 0.84473 0.60184 0.77685 0.0
O211 O 0.80625 0.57655 0.7857 0.0
O212 O 0.8404 0.6054 0.81121 0.0
C213 C 0.83685 0.62144 0.74489 0.0
O214 O 0.8867 0.63125 0.77332 0.0
Co215 Co 0.86499 0.58984 0.72827 0.0
O216 O 0.89615 0.62972 0.7341 0.0
C217 C 0.86203 0.55633 0.76994 0.0
C218 C 0.81391 0.58626 0.80757 0.0
C219 C 0.90295 0.64152 0.75501 0.0
O220 O 0.85375 0.57084 0.78247 0.0
O221 O 0.86677 0.55964 0.74737 0.0
O222 O 0.8359 0.63028 0.76656 0.0
O223 O 0.83805 0.59814 0.74341 0.0
Co224 Co 0.39949 0.23707 0.77002 0.0
O225 O 0.42537 0.22635 0.78205 0.0
O226 O 0.3959 0.23313 0.80462 0.0
C227 C 0.38095 0.20525 0.73923 0.0
O228 O 0.36939 0.24751 0.76287 0.0
Co229 Co 0.41099 0.26397 0.71969 0.0
O230 O 0.37164 0.25542 0.72313 0.0
C231 C 0.44449 0.29978 0.76088 0.0
C232 C 0.41549 0.22645 0.80317 0.0
C233 C 0.35936 0.25151 0.7433 0.0
O234 O 0.42919 0.27865 0.77443 0.0
O235 O 0.44184 0.29812 0.73793 0.0
O236 O 0.37251 0.19773 0.76104 0.0
O237 O 0.4034 0.23031 0.73732 0.0
Co238 Co 0.75105 0.123 0.78259 0.0
O239 O 0.78606 0.14169 0.76591 0.0
O240 O 0.74402 0.12143 0.74819 0.0
C241 C 0.76314 0.15606 0.81218 0.0
O242 O 0.71053 0.10263 0.79472 0.0
Co243 Co 0.75104 0.10037 0.83255 0.0
O244 O 0.71096 0.09036 0.83304 0.0
C245 C 0.76198 0.0747 0.79093 0.0
C246 C 0.77133 0.1339 0.74611 0.0
C247 C 0.69808 0.09221 0.81473 0.0
O248 O 0.75117 0.08641 0.77853 0.0
O249 O 0.76592 0.07872 0.81367 0.0
O250 O 0.75399 0.1592 0.79156 0.0
O251 O 0.76754 0.1348 0.81331 0.0
Co252 Co 0.40216 0.15193 0.26213 0.0
O253 O 0.37835 0.16541 0.25034 0.0
O254 O 0.42187 0.18075 0.23809 0.0
C255 C 0.36949 0.10513 0.25821 0.0
O256 O 0.43215 0.14145 0.27017 0.0
Co257 Co 0.38625 0.11808 0.30925 0.0
O258 O 0.41182 0.10544 0.29621 0.0
C259 C 0.41323 0.18111 0.31191 0.0
C260 C 0.39853 0.18123 0.23593 0.0
C261 C 0.43137 0.12061 0.28163 0.0
O262 O 0.41636 0.18184 0.28895 0.0
O263 O 0.40028 0.15768 0.32335 0.0
O264 O 0.38428 0.11921 0.23997 0.0
O265 O 0.37296 0.12029 0.27763 0.0
Co266 Co 0.83827 0.26565 0.27441 0.0
O267 O 0.80007 0.24952 0.28438 0.0
O268 O 0.82763 0.23241 0.2941 0.0
C269 C 0.85193 0.31146 0.28378 0.0
O270 O 0.87928 0.27816 0.26722 0.0
Co271 Co 0.85671 0.30722 0.23146 0.0
O272 O 0.89379 0.31083 0.23799 0.0
C273 C 0.8232 0.24508 0.22203 0.0
C274 C 0.80313 0.23059 0.29559 0.0
C275 C 0.89823 0.29596 0.25291 0.0
O276 O 0.82554 0.24061 0.24429 0.0
O277 O 0.83157 0.27002 0.21389 0.0
O278 O 0.85146 0.29461 0.30021 0.0
O279 O 0.84097 0.29938 0.26323 0.0
Co280 Co 0.74313 0.58169 0.27186 0.0
O281 O 0.76118 0.56247 0.28481 0.0
O282 O 0.77697 0.60886 0.28994 0.0
C283 C 0.69886 0.54931 0.28254 0.0
O284 O 0.72856 0.60791 0.26175 0.0
Co285 Co 0.70024 0.5509 0.22965 0.0
O286 O 0.69397 0.58363 0.23402 0.0
C287 C 0.76086 0.58321 0.21935 0.0
C288 C 0.77998 0.58699 0.29412 0.0
C289 C 0.70906 0.60569 0.24744 0.0
O290 O 0.76619 0.591 0.24164 0.0
O291 O 0.73608 0.56526 0.21132 0.0
O292 O 0.71618 0.56859 0.29797 0.0
O293 O 0.70982 0.54779 0.26242 0.0
Co294 Co 0.49403 0.08518 0.89851 0.0
O295 O 0.53019 0.10236 0.88356 0.0
O296 O 0.49809 0.05617 0.88061 0.0
C297 C 0.48301 0.1181 0.88787 0.0
O298 O 0.45391 0.06092 0.91095 0.0
Co299 Co 0.48674 0.11924 0.94084 0.0
O300 O 0.44683 0.08797 0.93832 0.0
C301 C 0.51365 0.08545 0.95021 0.0
C302 C 0.52298 0.07711 0.87499 0.0
C303 C 0.43809 0.06498 0.92571 0.0
O304 O 0.50932 0.07668 0.92812 0.0
O305 O 0.50825 0.10436 0.95849 0.0
O306 O 0.47911 0.09768 0.87287 0.0
O307 O 0.49679 0.12028 0.90739 0.0
Co308 Co 0.90288 0.39448 0.8911 0.0
O309 O 0.88033 0.41009 0.88132 0.0
O310 O 0.9245 0.42673 0.87019 0.0
C311 C 0.87036 0.34833 0.88344 0.0
O312 O 0.93173 0.38236 0.89795 0.0
Co313 Co 0.88179 0.35513 0.93551 0.0
O314 O 0.91512 0.35142 0.92851 0.0
C315 C 0.91118 0.41763 0.94289 0.0
C316 C 0.90175 0.42849 0.86923 0.0
C317 C 0.93367 0.36548 0.91279 0.0
O318 O 0.91668 0.42095 0.92034 0.0
O319 O 0.89501 0.39317 0.95202 0.0
O320 O 0.88596 0.36436 0.86629 0.0
O321 O 0.8724 0.36134 0.90371 0.0
Co322 Co 0.57943 0.5147 0.90235 0.0
O323 O 0.54248 0.50318 0.914 0.0
O324 O 0.56852 0.48527 0.92615 0.0
C325 C 0.59615 0.56199 0.90677 0.0
O326 O 0.61922 0.52289 0.89436 0.0
Co327 Co 0.59905 0.54885 0.8555 0.0
O328 O 0.6367 0.55913 0.86844 0.0
C329 C 0.56064 0.48623 0.85234 0.0
C330 C 0.54552 0.4864 0.9283 0.0
C331 C 0.63992 0.54308 0.8829 0.0
O332 O 0.56262 0.48522 0.87531 0.0
O333 O 0.57225 0.50977 0.841 0.0
O334 O 0.59571 0.54711 0.92484 0.0
O335 O 0.58399 0.54745 0.8872 0.0
Co336 Co 0.62908 0.87447 0.71859 0.0
O337 O 0.64702 0.85823 0.73658 0.0
O338 O 0.63122 0.88525 0.7524 0.0
C339 C 0.60049 0.83531 0.69618 0.0
O340 O 0.60872 0.89411 0.70527 0.0
Co341 Co 0.64063 0.88222 0.6644 0.0
O342 O 0.61354 0.8962 0.66503 0.0
C343 C 0.686 0.91649 0.69826 0.0
C344 C 0.64471 0.87151 0.75534 0.0
C345 C 0.60357 0.90039 0.68438 0.0
O346 O 0.66697 0.90905 0.71424 0.0
O347 O 0.68067 0.90691 0.67654 0.0
O348 O 0.59348 0.83864 0.71785 0.0
O349 O 0.6258 0.85416 0.68985 0.0
Co350 Co 0.16374 0.7593 0.73094 0.0
O351 O 0.20075 0.77453 0.71803 0.0
O352 O 0.16258 0.7642 0.69656 0.0
C353 C 0.17518 0.78955 0.76262 0.0
O354 O 0.1224 0.74408 0.73911 0.0
Co355 Co 0.15212 0.73101 0.78067 0.0
O356 O 0.11805 0.7345 0.77857 0.0
C357 C 0.15241 0.69826 0.73804 0.0
C358 C 0.18959 0.77378 0.69735 0.0
C359 C 0.10835 0.73774 0.75883 0.0
O360 O 0.15622 0.7192 0.72504 0.0
O361 O 0.15169 0.69913 0.76104 0.0
O362 O 0.17183 0.79707 0.74148 0.0
O363 O 0.17551 0.76585 0.76337 0.0
Co364 Co 0.2348 0.38747 0.72272 0.0
O365 O 0.22331 0.41395 0.71337 0.0
O366 O 0.2261 0.38303 0.68846 0.0
C367 C 0.20796 0.37015 0.75536 0.0
O368 O 0.2454 0.35664 0.72697 0.0
Co369 Co 0.2682 0.40017 0.77075 0.0
O370 O 0.25738 0.3595 0.76609 0.0
C371 C 0.29836 0.4311 0.728 0.0
C372 C 0.22033 0.40338 0.69171 0.0
C373 C 0.25119 0.34664 0.74559 0.0
O374 O 0.27514 0.41669 0.71602 0.0
O375 O 0.30023 0.42879 0.75069 0.0
O376 O 0.19736 0.3609 0.73396 0.0
O377 O 0.23301 0.39274 0.75609 0.0
Co378 Co 0.50637 0.93331 0.10912 0.0
O379 O 0.46814 0.90817 0.11858 0.0
O380 O 0.50293 0.93708 0.14359 0.0
C381 C 0.49801 0.953 0.07752 0.0
O382 O 0.54826 0.9626 0.10481 0.0
Co383 Co 0.52519 0.92038 0.06029 0.0
O384 O 0.55643 0.96032 0.06538 0.0
C385 C 0.52318 0.88741 0.10191 0.0
C386 C 0.47637 0.91793 0.14036 0.0
C387 C 0.56388 0.97254 0.0861 0.0
O388 O 0.51531 0.90223 0.11445 0.0
O389 O 0.52755 0.89039 0.07928 0.0
O390 O 0.49744 0.96176 0.0993 0.0
O391 O 0.49893 0.92954 0.07575 0.0
Co392 Co 0.06537 0.57059 0.10308 0.0
O393 O 0.0896 0.55742 0.11438 0.0
O394 O 0.06207 0.56638 0.13767 0.0
C395 C 0.04473 0.53942 0.0722 0.0
O396 O 0.03706 0.58369 0.09663 0.0
Co397 Co 0.07788 0.59819 0.05302 0.0
O398 O 0.03923 0.59153 0.05686 0.0
C399 C 0.11272 0.63246 0.09422 0.0
C400 C 0.08036 0.55798 0.13569 0.0
C401 C 0.02733 0.58829 0.07715 0.0
O402 O 0.09691 0.61137 0.10762 0.0
O403 O 0.10975 0.63136 0.07132 0.0
O404 O 0.03651 0.53203 0.09407 0.0
O405 O 0.06819 0.56362 0.07018 0.0
Co406 Co 0.42228 0.45775 0.11585 0.0
O407 O 0.45721 0.47634 0.09903 0.0
O408 O 0.41505 0.45572 0.08146 0.0
C409 C 0.43421 0.49112 0.14511 0.0
O410 O 0.38183 0.43741 0.12809 0.0
Co411 Co 0.42259 0.43597 0.16617 0.0
O412 O 0.38246 0.42582 0.16661 0.0
C413 C 0.43316 0.40945 0.1249 0.0
C414 C 0.44235 0.46831 0.07929 0.0
C415 C 0.36948 0.42729 0.1482 0.0
O416 O 0.42258 0.4212 0.11223 0.0
O417 O 0.43715 0.41383 0.14761 0.0
O418 O 0.42503 0.49395 0.12439 0.0
O419 O 0.43884 0.47003 0.1465 0.0
Co420 Co 0.06585 0.48367 0.59533 0.0
O421 O 0.04175 0.49716 0.58437 0.0
O422 O 0.0849 0.51249 0.57116 0.0
C423 C 0.03308 0.43696 0.59144 0.0
O424 O 0.09595 0.47306 0.60257 0.0
Co425 Co 0.05077 0.44965 0.64232 0.0
O426 O 0.07593 0.43691 0.62851 0.0
C427 C 0.07856 0.51274 0.64523 0.0
C428 C 0.06145 0.51286 0.56956 0.0
C429 C 0.09527 0.45212 0.61379 0.0
O430 O 0.08078 0.51349 0.62219 0.0
O431 O 0.06585 0.48931 0.65668 0.0
O432 O 0.04752 0.45113 0.5731 0.0
O433 O 0.03693 0.45199 0.61101 0.0
Co434 Co 0.50473 0.59547 0.61369 0.0
O435 O 0.46537 0.57667 0.62045 0.0
O436 O 0.49363 0.56084 0.63145 0.0
C437 C 0.51449 0.6396 0.62574 0.0
O438 O 0.54682 0.61039 0.60965 0.0
Co439 Co 0.5263 0.64136 0.57382 0.0
O440 O 0.56294 0.64471 0.58172 0.0
C441 C 0.49674 0.58007 0.56 0.0
C442 C 0.46852 0.55768 0.63147 0.0
C443 C 0.56658 0.62918 0.59649 0.0
O444 O 0.49662 0.57358 0.58211 0.0
O445 O 0.50499 0.60557 0.55333 0.0
O446 O 0.51303 0.62142 0.64126 0.0
O447 O 0.50705 0.62959 0.60401 0.0
Co448 Co 0.41215 0.91858 0.60544 0.0
O449 O 0.43037 0.90094 0.62092 0.0
O450 O 0.44591 0.94751 0.62262 0.0
C451 C 0.36795 0.88706 0.61678 0.0
O452 O 0.39732 0.94342 0.59227 0.0
Co453 Co 0.36983 0.88387 0.56383 0.0
O454 O 0.36298 0.91641 0.56504 0.0
C455 C 0.43043 0.91569 0.55379 0.0
C456 C 0.44913 0.92627 0.62879 0.0
C457 C 0.3778 0.93964 0.57722 0.0
O458 O 0.43538 0.92529 0.57566 0.0
O459 O 0.40581 0.89698 0.54596 0.0
O460 O 0.38511 0.90772 0.63133 0.0
O461 O 0.37906 0.88381 0.59737 0.0
Co462 Co 0.16143 0.41629 0.22885 0.0
O463 O 0.19846 0.43457 0.21543 0.0
O464 O 0.16728 0.3882 0.21141 0.0
C465 C 0.15014 0.44884 0.21745 0.0
O466 O 0.12074 0.39087 0.23956 0.0
Co467 Co 0.15038 0.44871 0.27035 0.0
O468 O 0.11114 0.4162 0.26678 0.0
C469 C 0.17866 0.41658 0.28135 0.0
C470 C 0.19224 0.40965 0.20671 0.0
C471 C 0.10378 0.39372 0.25381 0.0
O472 O 0.17549 0.40781 0.25928 0.0
O473 O 0.17224 0.435 0.28896 0.0
O474 O 0.14747 0.42887 0.20245 0.0
O475 O 0.16278 0.45075 0.23757 0.0
Co476 Co 0.56817 0.72942 0.22462 0.0
O477 O 0.54533 0.74461 0.2146 0.0
O478 O 0.58955 0.76161 0.20355 0.0
C479 C 0.536 0.68314 0.21702 0.0
O480 O 0.59725 0.71766 0.23169 0.0
Co481 Co 0.54711 0.69008 0.26911 0.0
O482 O 0.58046 0.68643 0.26203 0.0
C483 C 0.57634 0.75261 0.2764 0.0
C484 C 0.56659 0.76296 0.20233 0.0
C485 C 0.59915 0.70068 0.24646 0.0
O486 O 0.58175 0.75599 0.25382 0.0
O487 O 0.56024 0.72814 0.28552 0.0
O488 O 0.55156 0.69921 0.19988 0.0
O489 O 0.53784 0.69616 0.23724 0.0
Co490 Co 0.24366 0.84481 0.23731 0.0
O491 O 0.20623 0.83107 0.24888 0.0
O492 O 0.23403 0.81494 0.26039 0.0
C493 C 0.25818 0.89159 0.24256 0.0
O494 O 0.28412 0.85524 0.22938 0.0
Co495 Co 0.26269 0.88079 0.19125 0.0
O496 O 0.30062 0.89226 0.20433 0.0
C497 C 0.22658 0.81785 0.1867 0.0
C498 C 0.21026 0.81452 0.26269 0.0
C499 C 0.30449 0.87628 0.21837 0.0
O500 O 0.22831 0.81607 0.20962 0.0
O501 O 0.23739 0.84179 0.176 0.0
O502 O 0.2584 0.87673 0.2604 0.0
O503 O 0.24668 0.87719 0.22281 0.0
H504 H 0.30517 0.21968 0.13323 0.0
H505 H 0.42349 0.19406 0.19182 0.0
H506 H 0.3505 0.18611 0.09439 0.0
H507 H 0.35906 0.19725 0.23357 0.0
H508 H 0.40452 0.2037 0.15565 0.0
H509 H 0.33118 0.22208 0.17004 0.0
C510 C 0.32048 0.21275 0.13246 0.0
C511 C 0.32533 0.20223 0.11082 0.0
C512 C 0.39487 0.2028 0.17283 0.0
C513 C 0.35561 0.20571 0.15248 0.0
C514 C 0.40591 0.19766 0.1935 0.0
C515 C 0.39265 0.19461 0.21564 0.0
C516 C 0.3706 0.20513 0.17443 0.0
C517 C 0.36973 0.19919 0.21676 0.0
C518 C 0.33539 0.21426 0.15339 0.0
C519 C 0.34569 0.19389 0.11075 0.0
N520 N 0.35923 0.20395 0.1964 0.0
N521 N 0.36007 0.19585 0.1312 0.0
H522 H 0.80025 0.1472 0.08972 0.0
H523 H 0.80551 0.24216 0.17573 0.0
H524 H 0.84819 0.12919 0.14038 0.0
H525 H 0.82248 0.19447 0.22748 0.0
H526 H 0.80246 0.20915 0.14429 0.0
H527 H 0.78846 0.17028 0.12161 0.0
C528 C 0.80875 0.14861 0.1076 0.0
C529 C 0.826 0.13711 0.11232 0.0
C530 C 0.80585 0.20503 0.16254 0.0
C531 C 0.81348 0.16476 0.14902 0.0
C532 C 0.80779 0.22418 0.18059 0.0
C533 C 0.81449 0.22127 0.20426 0.0
C534 C 0.81064 0.18264 0.16813 0.0
C535 C 0.81726 0.19754 0.20946 0.0
C536 C 0.8021 0.162 0.12587 0.0
C537 C 0.83532 0.13836 0.13598 0.0
N538 N 0.81584 0.17942 0.19144 0.0
N539 N 0.82927 0.1524 0.15347 0.0
H540 H 0.81279 0.63213 0.22648 0.0
H541 H 0.82516 0.66271 0.08696 0.0
H542 H 0.75963 0.57104 0.17124 0.0
H543 H 0.89431 0.71588 0.1357 0.0
H544 H 0.8006 0.63057 0.11923 0.0
H545 H 0.84375 0.66341 0.19514 0.0
C546 C 0.80793 0.62494 0.20785 0.0
C547 C 0.78324 0.599 0.20151 0.0
C548 C 0.82118 0.64915 0.12302 0.0
C549 C 0.8183 0.63497 0.16571 0.0
C550 C 0.83523 0.66773 0.10456 0.0
C551 C 0.86195 0.69205 0.10857 0.0
C552 C 0.83366 0.65478 0.14597 0.0
C553 C 0.8737 0.6974 0.13187 0.0
C554 C 0.82556 0.64294 0.18999 0.0
C555 C 0.77812 0.59092 0.17707 0.0
N556 N 0.85941 0.67886 0.14981 0.0
N557 N 0.79524 0.60898 0.16014 0.0
H558 H 0.17258 0.34489 0.41677 0.0
H559 H 0.18011 0.36676 0.27548 0.0
H560 H 0.17178 0.28257 0.36651 0.0
H561 H 0.19203 0.43118 0.32894 0.0
H562 H 0.18058 0.33682 0.30756 0.0
H563 H 0.18161 0.37703 0.38408 0.0
C564 C 0.17418 0.33785 0.39876 0.0
C565 C 0.17119 0.31084 0.39436 0.0
C566 C 0.18355 0.3577 0.31218 0.0
C567 C 0.18174 0.34797 0.35651 0.0
C568 C 0.18349 0.37495 0.29387 0.0
C569 C 0.18562 0.40144 0.29952 0.0
C570 C 0.18571 0.36701 0.33626 0.0
C571 C 0.18992 0.41081 0.32368 0.0
C572 C 0.17956 0.3564 0.38005 0.0
C573 C 0.17373 0.30313 0.37063 0.0
N574 N 0.18946 0.39349 0.34111 0.0
N575 N 0.17871 0.32158 0.35249 0.0
H576 H 0.62695 0.80168 0.26851 0.0
H577 H 0.65853 0.82383 0.40877 0.0
H578 H 0.56476 0.75845 0.32318 0.0
H579 H 0.71907 0.88084 0.35776 0.0
H580 H 0.62393 0.8013 0.37672 0.0
H581 H 0.66006 0.83391 0.29966 0.0
C582 C 0.61994 0.79946 0.28694 0.0
C583 C 0.59319 0.77695 0.29332 0.0
C584 C 0.6447 0.81877 0.37238 0.0
C585 C 0.6311 0.81331 0.32895 0.0
C586 C 0.66467 0.83155 0.39072 0.0
C587 C 0.69188 0.8542 0.38594 0.0
C588 C 0.65186 0.82829 0.3488 0.0
C589 C 0.69838 0.86329 0.36216 0.0
C590 C 0.63897 0.81773 0.30473 0.0
C591 C 0.58531 0.77513 0.31747 0.0
N592 N 0.67851 0.85015 0.34436 0.0
N593 N 0.60431 0.79274 0.3344 0.0
H594 H 0.16009 0.8049 0.40676 0.0
H595 H 0.15482 0.79877 0.26507 0.0
H596 H 0.08213 0.77521 0.36741 0.0
H597 H 0.22173 0.79968 0.30615 0.0
H598 H 0.12668 0.78778 0.30151 0.0
H599 H 0.1825 0.80251 0.36977 0.0
C600 C 0.14769 0.79803 0.39026 0.0
C601 C 0.11928 0.79068 0.3901 0.0
C602 C 0.14725 0.78976 0.30247 0.0
C603 C 0.14491 0.7877 0.34753 0.0
C604 C 0.16329 0.79592 0.28167 0.0
C605 C 0.19073 0.80035 0.28266 0.0
C606 C 0.15898 0.78861 0.32451 0.0
C607 C 0.20068 0.79641 0.30459 0.0
C608 C 0.16045 0.79636 0.36917 0.0
C609 C 0.10415 0.78137 0.36826 0.0
N610 N 0.18503 0.79134 0.32477 0.0
N611 N 0.11726 0.78047 0.34774 0.0
H612 H 0.63887 0.88988 0.8005 0.0
H613 H 0.7597 0.86748 0.85816 0.0
H614 H 0.68608 0.8588 0.76125 0.0
H615 H 0.69462 0.86896 0.90024 0.0
H616 H 0.74069 0.87758 0.82227 0.0
H617 H 0.66579 0.89354 0.83711 0.0
C618 C 0.65483 0.88382 0.79959 0.0
C619 C 0.65988 0.87352 0.77793 0.0
C620 C 0.73092 0.87625 0.83947 0.0
C621 C 0.69115 0.87842 0.81933 0.0
C622 C 0.74199 0.87084 0.85998 0.0
C623 C 0.72852 0.8671 0.8821 0.0
C624 C 0.7064 0.87811 0.84121 0.0
C625 C 0.70544 0.87141 0.88342 0.0
C626 C 0.67024 0.88604 0.8204 0.0
C627 C 0.68108 0.86633 0.77766 0.0
N628 N 0.69488 0.87637 0.8632 0.0
N629 N 0.69589 0.86892 0.798 0.0
H630 H 0.2135 0.92617 0.85987 0.0
H631 H 0.13247 0.79899 0.77238 0.0
H632 H 0.12787 0.86498 0.87878 0.0
H633 H 0.21162 0.81347 0.80087 0.0
H634 H 0.12972 0.82749 0.80607 0.0
H635 H 0.2136 0.89031 0.83222 0.0
C636 C 0.19465 0.90521 0.85799 0.0
C637 C 0.1705 0.89844 0.87128 0.0
C638 C 0.1474 0.82398 0.80511 0.0
C639 C 0.17052 0.85778 0.83982 0.0
C640 C 0.14904 0.80788 0.78598 0.0
C641 C 0.17223 0.80389 0.78414 0.0
C642 C 0.16967 0.83705 0.82184 0.0
C643 C 0.19336 0.816 0.80193 0.0
C644 C 0.19487 0.88479 0.84251 0.0
C645 C 0.14677 0.87091 0.86863 0.0
N646 N 0.19192 0.83269 0.81987 0.0
N647 N 0.14714 0.8516 0.85276 0.0
H648 H 0.09483 0.22934 0.84161 0.0
H649 H 0.22465 0.38077 0.80319 0.0
H650 H 0.14656 0.29643 0.89349 0.0
H651 H 0.16057 0.3178 0.75497 0.0
H652 H 0.20159 0.34823 0.83671 0.0
H653 H 0.12549 0.25877 0.80978 0.0
C654 C 0.11293 0.25005 0.8464 0.0
C655 C 0.11778 0.26056 0.87025 0.0
C656 C 0.19272 0.34164 0.81873 0.0
C657 C 0.15276 0.29475 0.8337 0.0
C658 C 0.20575 0.36023 0.79968 0.0
C659 C 0.19436 0.35211 0.77632 0.0
C660 C 0.1684 0.31476 0.8142 0.0
C661 C 0.17002 0.32514 0.77268 0.0
C662 C 0.13036 0.26697 0.82816 0.0
C663 C 0.14184 0.2875 0.87533 0.0
N664 N 0.15793 0.30753 0.79136 0.0
N665 N 0.1582 0.30389 0.85714 0.0
H666 H 0.86407 0.76392 0.66103 0.0
H667 H 0.84187 0.61145 0.69671 0.0
H668 H 0.84924 0.69783 0.60824 0.0
H669 H 0.84373 0.67464 0.74657 0.0
H670 H 0.85142 0.64471 0.66379 0.0
H671 H 0.86569 0.73413 0.69235 0.0
C672 C 0.86167 0.74337 0.65593 0.0
C673 C 0.85602 0.73323 0.63197 0.0
C674 C 0.84981 0.65121 0.68199 0.0
C675 C 0.85725 0.69862 0.66794 0.0
C676 C 0.84422 0.63221 0.70071 0.0
C677 C 0.8417 0.64016 0.72435 0.0
C678 C 0.85312 0.67831 0.68712 0.0
C679 C 0.84522 0.66743 0.72862 0.0
C680 C 0.8624 0.72624 0.67388 0.0
C681 C 0.8534 0.70648 0.62649 0.0
N682 N 0.85071 0.68542 0.71023 0.0
N683 N 0.85357 0.68988 0.6444 0.0
H684 H 0.38664 0.21819 0.69101 0.0
H685 H 0.23699 0.07951 0.65779 0.0
H686 H 0.33203 0.15445 0.74114 0.0
H687 H 0.29434 0.13369 0.60362 0.0
H688 H 0.26955 0.11157 0.68882 0.0
H689 H 0.35196 0.19101 0.6587 0.0
C690 C 0.36754 0.19844 0.69517 0.0
C691 C 0.36224 0.18855 0.71877 0.0
C692 C 0.27499 0.11663 0.67015 0.0
C693 C 0.3225 0.15782 0.68225 0.0
C694 C 0.25627 0.09837 0.65239 0.0
C695 C 0.26306 0.10364 0.62803 0.0
C696 C 0.30088 0.14033 0.66361 0.0
C697 C 0.28827 0.12868 0.62218 0.0
C698 C 0.34771 0.18307 0.67681 0.0
C699 C 0.33707 0.16295 0.72324 0.0
N700 N 0.30648 0.14593 0.63987 0.0
N701 N 0.3182 0.14859 0.70522 0.0
H702 H 0.81946 0.13276 0.59795 0.0
H703 H 0.82652 0.15104 0.73948 0.0
H704 H 0.88627 0.13649 0.64127 0.0
H705 H 0.7477 0.11743 0.70047 0.0
H706 H 0.84876 0.14738 0.70293 0.0
H707 H 0.792 0.12618 0.63432 0.0
C708 C 0.82801 0.13139 0.61508 0.0
C709 C 0.85524 0.13531 0.61664 0.0
C710 C 0.8266 0.14076 0.70229 0.0
C711 C 0.82435 0.12876 0.65834 0.0
C712 C 0.81389 0.14318 0.72313 0.0
C713 C 0.78517 0.13476 0.72305 0.0
C714 C 0.8107 0.1302 0.68094 0.0
C715 C 0.76994 0.12442 0.70131 0.0
C716 C 0.81239 0.12781 0.63583 0.0
C717 C 0.86535 0.13345 0.63924 0.0
N718 N 0.78294 0.12259 0.68104 0.0
N719 N 0.85013 0.13088 0.65927 0.0
H720 H 0.96262 0.54407 0.46665 0.0
H721 H 0.08516 0.52496 0.52496 0.0
H722 H 0.00913 0.51134 0.42847 0.0
H723 H 0.02095 0.52754 0.56755 0.0
H724 H 0.0642 0.53209 0.48885 0.0
H725 H 0.98897 0.54751 0.50358 0.0
C726 C 0.9781 0.53735 0.46607 0.0
C727 C 0.9834 0.52706 0.4445 0.0
C728 C 0.055 0.53159 0.50618 0.0
C729 C 0.01416 0.5319 0.48625 0.0
C730 C 0.06721 0.52793 0.52681 0.0
C731 C 0.05461 0.5254 0.5492 0.0
C732 C 0.03019 0.53292 0.50805 0.0
C733 C 0.03115 0.52912 0.55054 0.0
C734 C 0.99327 0.53955 0.48705 0.0
C735 C 0.00403 0.51908 0.4447 0.0
N736 N 0.01948 0.53238 0.53021 0.0
N737 N 0.01869 0.52179 0.46516 0.0
H738 H 0.50171 0.44687 0.47431 0.0
H739 H 0.48612 0.58169 0.51226 0.0
H740 H 0.50237 0.50787 0.42533 0.0
H741 H 0.49454 0.52854 0.56439 0.0
H742 H 0.48554 0.55008 0.48024 0.0
H743 H 0.49466 0.47302 0.50779 0.0
C744 C 0.50055 0.46579 0.47064 0.0
C745 C 0.50275 0.47528 0.44705 0.0
C746 C 0.4873 0.54514 0.49868 0.0
C747 C 0.49426 0.50483 0.48492 0.0
C748 C 0.48748 0.56314 0.51702 0.0
C749 C 0.49077 0.55802 0.54105 0.0
C750 C 0.49067 0.52189 0.50432 0.0
C751 C 0.4921 0.53341 0.54609 0.0
C752 C 0.49636 0.48057 0.48967 0.0
C753 C 0.50087 0.49976 0.44321 0.0
N754 N 0.49243 0.51643 0.52784 0.0
N755 N 0.49672 0.5136 0.46189 0.0
H756 H 0.4989 0.98599 0.41889 0.0
H757 H 0.48187 0.96519 0.56008 0.0
H758 H 0.55927 0.04887 0.46949 0.0
H759 H 0.43036 0.90037 0.50652 0.0
H760 H 0.51314 0.99469 0.52825 0.0
H761 H 0.47557 0.95387 0.45151 0.0
C762 C 0.50724 0.99317 0.43696 0.0
C763 C 0.53097 0.02036 0.44147 0.0
C764 C 0.49526 0.97381 0.52356 0.0
C765 C 0.5041 0.98323 0.47928 0.0
C766 C 0.47745 0.9568 0.54174 0.0
C767 C 0.45309 0.93036 0.53596 0.0
C768 C 0.48863 0.9643 0.49949 0.0
C769 C 0.44858 0.92072 0.51187 0.0
C770 C 0.49394 0.97461 0.45564 0.0
C771 C 0.54088 0.02819 0.46527 0.0
N772 N 0.46593 0.93783 0.49455 0.0
N773 N 0.52724 0.00975 0.48339 0.0
H774 H 0.52918 0.09936 0.99759 0.0
H775 H 0.50352 0.9443 0.02903 0.0
H776 H 0.51304 0.03477 0.94286 0.0
H777 H 0.50476 0.00604 0.08023 0.0
H778 H 0.51383 0.97877 0.99688 0.0
H779 H 0.5294 0.06776 0.02786 0.0
C780 C 0.52617 0.07874 0.99185 0.0
C781 C 0.52062 0.0696 0.96765 0.0
C782 C 0.51189 0.98465 0.01522 0.0
C783 C 0.52022 0.0329 0.00242 0.0
C784 C 0.50585 0.96497 0.03348 0.0
C785 C 0.50301 0.97219 0.05729 0.0
C786 C 0.51533 0.01168 0.02099 0.0
C787 C 0.50653 -0.00064 0.06214 0.0
C788 C 0.5261 0.06057 0.0092 0.0
C789 C 0.51718 0.04268 0.96133 0.0
N790 N 0.51249 0.01801 0.04422 0.0
N791 N 0.51658 0.02506 0.97866 0.0
H792 H 0.96115 0.46735 0.9348 0.0
H793 H 0.99135 0.49484 0.07528 0.0
H794 H 0.89946 0.42332 0.98967 0.0
H795 H 0.05224 0.5495 0.02341 0.0
H796 H 0.95706 0.47067 0.04326 0.0
H797 H 0.99353 0.5009 0.96571 0.0
C798 C 0.9541 0.46517 0.95322 0.0
C799 C 0.92771 0.44214 0.95974 0.0
C800 C 0.97784 0.48796 0.0387 0.0
C801 C 0.9648 0.48008 0.99509 0.0
C802 C 0.99763 0.50171 0.05705 0.0
C803 C 0.02487 0.52411 0.05201 0.0
C804 C 0.98523 0.49627 0.01488 0.0
C805 C 0.03153 0.53215 0.02801 0.0
C806 C 0.97271 0.48421 0.97086 0.0
C807 C 0.91975 0.4404 0.98386 0.0
N808 N 0.01185 0.51805 0.01022 0.0
N809 N 0.93835 0.45883 0.00065 0.0
H810 H 0.4909 0.47353 0.93061 0.0
H811 H 0.49704 0.48355 0.07255 0.0
H812 H 0.55639 0.47269 0.9725 0.0
H813 H 0.41892 0.45429 0.0335 0.0
H814 H 0.51916 0.48109 0.03548 0.0
H815 H 0.46342 0.46564 0.96717 0.0
C816 C 0.49917 0.47095 0.94744 0.0
C817 C 0.52603 0.47392 0.94859 0.0
C818 C 0.49718 0.47515 0.03495 0.0
C819 C 0.4951 0.46579 0.99052 0.0
C820 C 0.48455 0.47688 0.0561 0.0
C821 C 0.45609 0.46939 0.05613 0.0
C822 C 0.48145 0.46623 0.01343 0.0
C823 C 0.44097 0.46052 0.03425 0.0
C824 C 0.48352 0.46659 0.9683 0.0
C825 C 0.53576 0.47045 0.97081 0.0
N826 N 0.45392 0.45939 0.0137 0.0
N827 N 0.52053 0.46712 0.99099 0.0
H828 H 0.20596 0.02658 0.92512 0.0
H829 H 0.21455 0.12791 0.03548 0.0
H830 H 0.1643 0.99707 0.99294 0.0
H831 H 0.28054 0.15475 0.98307 0.0
H832 H 0.18681 0.08296 0.01276 0.0
H833 H 0.22473 0.07643 0.93965 0.0
C834 C 0.20033 0.03063 0.94283 0.0
C835 C 0.18389 0.00792 0.95803 0.0
C836 C 0.20721 0.09884 0.00606 0.0
C837 C 0.20474 0.06421 0.97445 0.0
C838 C 0.22306 0.12451 0.01899 0.0
C839 C 0.25015 0.14476 0.01142 0.0
C840 C 0.21852 0.09336 0.9854 0.0
C841 C 0.2599 0.13944 0.98971 0.0
C842 C 0.21109 0.05894 0.9511 0.0
C843 C 0.17722 0.01409 0.98082 0.0
N844 N 0.24422 0.11398 0.97757 0.0
N845 N 0.18773 0.04165 0.98837 0.0
H846 H 0.00411 0.23553 0.97732 0.0
H847 H 0.88112 0.08501 0.00678 0.0
H848 H 0.9969 0.1618 0.93933 0.0
H849 H 0.86914 0.1576 0.00663 0.0
H850 H 0.92277 0.11112 0.98148 0.0
H851 H 0.95463 0.20694 0.98867 0.0
C852 C 0.99198 0.2133 0.97128 0.0
C853 C 0.00452 0.20082 0.95763 0.0
C854 C 0.91051 0.12098 0.98633 0.0
C855 C 0.94812 0.16796 0.97073 0.0
C856 C 0.88676 0.10608 0.00062 0.0
C857 C 0.8717 0.11919 0.00838 0.0
C858 C 0.9197 0.1495 0.98065 0.0
C859 C 0.88009 0.14673 0.00061 0.0
C860 C 0.96372 0.19709 0.97756 0.0
C861 C 0.98789 0.17208 0.94997 0.0
N862 N 0.90395 0.16129 0.98757 0.0
N863 N 0.96059 0.15635 0.95707 0.0
H864 H 0.86005 0.71091 0.98406 0.0
H865 H 0.8222 0.83063 0.951 0.0
H866 H 0.89672 0.79437 0.01881 0.0
H867 H 0.76512 0.73986 0.9406 0.0
H868 H 0.85938 0.82082 0.96305 0.0
H869 H 0.83489 0.72488 0.95595 0.0
C870 C 0.86336 0.73238 0.98536 0.0
C871 C 0.8801 0.7514 0.00393 0.0
C872 C 0.83894 0.80313 0.95742 0.0
C873 C 0.85178 0.76753 0.97192 0.0
C874 C 0.81786 0.80875 0.95032 0.0
C875 C 0.79061 0.78598 0.945 0.0
C876 C 0.83266 0.77461 0.95893 0.0
C877 C 0.78589 0.75796 0.94475 0.0
C878 C 0.84896 0.7403 0.96941 0.0
C879 C 0.88364 0.77894 0.00492 0.0
N880 N 0.8066 0.75301 0.95193 0.0
N881 N 0.86943 0.78612 0.98928 0.0
H882 H 0.98558 0.16726 0.54685 0.0
H883 H 0.14455 0.28753 0.51802 0.0
H884 H 0.01919 0.25778 0.55893 0.0
H885 H 0.09859 0.20515 0.4814 0.0
H886 H 0.1044 0.27294 0.54512 0.0
H887 H 0.03288 0.17729 0.53559 0.0
C888 C 0.00314 0.1891 0.54808 0.0
C889 C 0.99859 0.21176 0.55368 0.0
C890 C 0.10344 0.25788 0.53147 0.0
C891 C 0.05239 0.22341 0.54061 0.0
C892 C 0.12635 0.26614 0.51611 0.0
C893 C 0.12464 0.24763 0.4973 0.0
C894 C 0.07901 0.23079 0.52817 0.0
C895 C 0.10054 0.2202 0.4955 0.0
C896 C 0.03003 0.19485 0.54141 0.0
C897 C 0.02193 0.23975 0.55459 0.0
N898 N 0.0786 0.21268 0.51059 0.0
N899 N 0.04778 0.24485 0.54783 0.0
H900 H 0.76415 0.7586 0.5286 0.0
H901 H 0.79971 0.90629 0.48605 0.0
H902 H 0.83607 0.83304 0.56072 0.0
H903 H 0.71298 0.84292 0.49891 0.0
H904 H 0.81473 0.8809 0.51272 0.0
H905 H 0.74528 0.78878 0.51622 0.0
C906 C 0.77581 0.7813 0.5332 0.0
C907 C 0.80176 0.79352 0.54546 0.0
C908 C 0.79242 0.87302 0.51026 0.0
C909 C 0.78062 0.82806 0.53109 0.0
C910 C 0.78388 0.88747 0.49513 0.0
C911 C 0.75514 0.87666 0.49057 0.0
C912 C 0.77203 0.84703 0.52001 0.0
C913 C 0.73534 0.852 0.50231 0.0
C914 C 0.76494 0.79842 0.52634 0.0
C915 C 0.81599 0.82294 0.55123 0.0
N916 N 0.74415 0.83751 0.51606 0.0
N917 N 0.80555 0.83943 0.54347 0.0
H918 H 0.1819 0.97287 0.57176 0.0
H919 H 0.08912 0.86986 0.4623 0.0
H920 H 0.1776 0.00127 0.5009 0.0
H921 H 0.12413 0.84116 0.51697 0.0
H922 H 0.11008 0.91647 0.48297 0.0
H923 H 0.15037 0.92289 0.55767 0.0
C924 C 0.17402 0.96857 0.55339 0.0
C925 C 0.18243 0.99102 0.53735 0.0
C926 C 0.11289 0.89985 0.49059 0.0
C927 C 0.14635 0.93461 0.52145 0.0
C928 C 0.10088 0.87322 0.47886 0.0
C929 C 0.10541 0.85183 0.48769 0.0
C930 C 0.12943 0.90514 0.51137 0.0
C931 C 0.1205 0.85726 0.50941 0.0
C932 C 0.15618 0.9402 0.54539 0.0
C933 C 0.17181 0.9845 0.51374 0.0
N934 N 0.13231 0.8836 0.52044 0.0
N935 N 0.1543 0.95691 0.50651 0.0
H936 H 0.74439 0.85536 0.02677 0.0
H937 H 0.82948 0.02664 0.02466 0.0
H938 H 0.77954 0.90439 0.96283 0.0
H939 H 0.79225 0.97914 0.08887 0.0
H940 H 0.81545 0.98183 0.00285 0.0
H941 H 0.76495 0.90008 0.05059 0.0
C942 C 0.75642 0.87547 0.0177 0.0
C943 C 0.76 0.876 0.99265 0.0
C944 C 0.81051 0.98114 0.02175 0.0
C945 C 0.78376 0.92734 0.01994 0.0
C946 C 0.81858 0.00678 0.03427 0.0
C947 C 0.81177 0.00668 0.05862 0.0
C948 C 0.79528 0.95504 0.03353 0.0
C949 C 0.7979 0.98026 0.07012 0.0
C950 C 0.76822 0.90101 0.03136 0.0
C951 C 0.77598 0.90279 0.98201 0.0
N952 N 0.78983 0.95546 0.05741 0.0
N953 N 0.78716 0.92731 0.99569 0.0
H954 H 0.07776 0.87151 0.94792 0.0
H955 H 0.02457 0.79716 0.07497 0.0
H956 H 0.13508 0.8717 0.00088 0.0
H957 H 0.97015 0.7894 0.01576 0.0
H958 H 0.06569 0.82526 0.04941 0.0
H959 H 0.03829 0.84084 0.97322 0.0
C960 C 0.08198 0.86474 0.96481 0.0
C961 C 0.10969 0.87415 0.97233 0.0
C962 C 0.0447 0.81734 0.04212 0.0
C963 C 0.06446 0.83939 0.00186 0.0
C964 C 0.02125 0.80154 0.05674 0.0
C965 C 0.99382 0.79085 0.04753 0.0
C966 C 0.04058 0.82257 0.01824 0.0
C967 C 0.9908 0.797 0.0237 0.0
C968 C 0.05941 0.84729 0.97935 0.0
C969 C 0.11396 0.8647 0.99438 0.0
N970 N 0.01379 0.81237 0.00999 0.0
N971 N 0.09154 0.84805 0.00857 0.0
H972 H 0.11574 0.21996 0.996 0.0
H973 H 0.27552 0.27248 0.98446 0.0
H974 H 0.17155 0.29969 0.96198 0.0
H975 H 0.2277 0.22232 0.04446 0.0
H976 H 0.23862 0.28384 0.97626 0.0
H977 H 0.15649 0.22092 0.0145 0.0
C978 C 0.13664 0.23795 0.99278 0.0
C979 C 0.14039 0.25975 0.97743 0.0
C980 C 0.23646 0.27084 0.99151 0.0
C981 C 0.18715 0.26062 0.99803 0.0
C982 C 0.25744 0.26425 0.99616 0.0
C983 C 0.25453 0.24624 0.01506 0.0
C984 C 0.21203 0.25869 0.00546 0.0
C985 C 0.23078 0.23629 0.02972 0.0
C986 C 0.15987 0.23852 0.00339 0.0
C987 C 0.16784 0.28256 0.97382 0.0
N988 N 0.21013 0.24214 0.02429 0.0
N989 N 0.1903 0.2821 0.98363 0.0
H990 H 0.8676 0.69265 0.54113 0.0
H991 H 0.00189 0.77244 0.45588 0.0
H992 H 0.89109 0.77131 0.5054 0.0
H993 H 0.99946 0.72353 0.51688 0.0
H994 H 0.95337 0.76048 0.46446 0.0
H995 H 0.90827 0.69246 0.52274 0.0
C996 C 0.88085 0.70939 0.52891 0.0
C997 C 0.87622 0.73212 0.52483 0.0
C998 C 0.96335 0.75197 0.47566 0.0
C999 C 0.92228 0.73197 0.50378 0.0
C1000 C 0.99093 0.75864 0.47071 0.0
C1001 C 0.00479 0.74923 0.48587 0.0
C1002 C 0.94943 0.73536 0.49563 0.0
C1003 C 0.98964 0.73154 0.50494 0.0
C1004 C 0.90408 0.70939 0.51858 0.0
C1005 C 0.89414 0.75352 0.50909 0.0
N1006 N 0.96283 0.72529 0.50937 0.0
N1007 N 0.91643 0.75299 0.4992 0.0
H1008 H 0.22585 0.20468 0.42541 0.0
H1009 H 0.20381 0.12411 0.54917 0.0
H1010 H 0.17703 0.20805 0.48484 0.0
H1011 H 0.26473 0.13063 0.4971 0.0
H1012 H 0.19388 0.15475 0.52494 0.0
H1013 H 0.23939 0.17621 0.44987 0.0
C1014 C 0.21776 0.19922 0.44345 0.0
C1015 C 0.20027 0.20879 0.45307 0.0
C1016 C 0.20963 0.1498 0.51878 0.0
C1017 C 0.2159 0.17664 0.48111 0.0
C1018 C 0.21537 0.13234 0.53269 0.0
C1019 C 0.23509 0.12484 0.5251 0.0
C1020 C 0.2234 0.15963 0.49682 0.0
C1021 C 0.2495 0.13613 0.50363 0.0
C1022 C 0.22571 0.18322 0.45746 0.0
C1023 C 0.19063 0.2013 0.47664 0.0
N1024 N 0.24313 0.15278 0.49003 0.0
N1025 N 0.19856 0.18574 0.48976 0.0
H1026 H 0.79611 0.97009 0.47624 0.0
H1027 H 0.88309 0.14127 0.47155 0.0
H1028 H 0.80811 0.01621 0.41085 0.0
H1029 H 0.86728 0.09371 0.53665 0.0
H1030 H 0.85856 0.09603 0.44848 0.0
H1031 H 0.8256 0.01538 0.49784 0.0
C1032 C 0.80511 0.98974 0.46634 0.0
C1033 C 0.79934 0.98928 0.44167 0.0
C1034 C 0.86053 0.09553 0.4678 0.0
C1035 C 0.83313 0.04149 0.46651 0.0
C1036 C 0.8745 0.12137 0.48104 0.0
C1037 C 0.87719 0.12142 0.50618 0.0
C1038 C 0.84916 0.06947 0.47974 0.0
C1039 C 0.86567 0.09487 0.51737 0.0
C1040 C 0.82195 0.01566 0.47874 0.0
C1041 C 0.81191 0.0155 0.42985 0.0
N1042 N 0.85216 0.07005 0.50409 0.0
N1043 N 0.82802 0.04057 0.44242 0.0
H1044 H 0.96803 0.48763 0.32493 0.0
H1045 H 0.83275 0.3474 0.27255 0.0
H1046 H 0.88442 0.46748 0.34537 0.0
H1047 H 0.90301 0.34555 0.30478 0.0
H1048 H 0.85506 0.39866 0.28423 0.0
H1049 H 0.94726 0.44239 0.30147 0.0
C1050 C 0.94529 0.4741 0.32388 0.0
C1051 C 0.92783 0.48097 0.33725 0.0
C1052 C 0.86568 0.387 0.28829 0.0
C1053 C 0.90423 0.42989 0.31035 0.0
C1054 C 0.85309 0.35799 0.28166 0.0
C1055 C 0.86608 0.34252 0.28803 0.0
C1056 C 0.89175 0.40048 0.30052 0.0
C1057 C 0.89231 0.35688 0.29986 0.0
C1058 C 0.93355 0.44834 0.31064 0.0
C1059 C 0.89852 0.46267 0.33545 0.0
N1060 N 0.90439 0.38518 0.3057 0.0
N1061 N 0.88755 0.43777 0.32232 0.0
H1062 H 0.53129 0.48813 0.33626 0.0
H1063 H 0.6622 0.49337 0.26914 0.0
H1064 H 0.54958 0.41997 0.34118 0.0
H1065 H 0.66672 0.56602 0.30685 0.0
H1066 H 0.61268 0.46383 0.28158 0.0
H1067 H 0.57264 0.5141 0.31046 0.0
C1068 C 0.54334 0.47814 0.33103 0.0
C1069 C 0.53714 0.45192 0.34057 0.0
C1070 C 0.62449 0.48638 0.2867 0.0
C1071 C 0.5841 0.48128 0.31149 0.0
C1072 C 0.65258 0.50315 0.27965 0.0
C1073 C 0.66847 0.53194 0.28734 0.0
C1074 C 0.6122 0.49885 0.30083 0.0
C1075 C 0.6552 0.54374 0.30091 0.0
C1076 C 0.567 0.49303 0.31659 0.0
C1077 C 0.55374 0.44011 0.33393 0.0
N1078 N 0.6278 0.52715 0.30724 0.0
N1079 N 0.57664 0.45496 0.31985 0.0
H1080 H 0.56511 0.12624 0.35388 0.0
H1081 H 0.42922 0.06965 0.2764 0.0
H1082 H 0.5265 0.04312 0.31836 0.0
H1083 H 0.48747 0.16008 0.28713 0.0
H1084 H 0.46654 0.05999 0.28751 0.0
H1085 H 0.53971 0.14018 0.32655 0.0
C1086 C 0.55163 0.11109 0.33999 0.0
C1087 C 0.54764 0.0834 0.33848 0.0
C1088 C 0.47147 0.08201 0.28678 0.0
C1089 C 0.518 0.09899 0.30744 0.0
C1090 C 0.4502 0.08753 0.28036 0.0
C1091 C 0.45535 0.11568 0.28093 0.0
C1092 C 0.49782 0.10478 0.29456 0.0
C1093 C 0.48275 0.13809 0.28636 0.0
C1094 C 0.5372 0.1191 0.32432 0.0
C1095 C 0.53009 0.06466 0.3201 0.0
N1096 N 0.50282 0.13212 0.29358 0.0
N1097 N 0.51537 0.07256 0.30561 0.0
H1098 H 0.6533 0.50125 0.87662 0.0
H1099 H 0.81409 0.61636 0.848 0.0
H1100 H 0.69037 0.59228 0.88862 0.0
H1101 H 0.76507 0.5351 0.81023 0.0
H1102 H 0.77412 0.60322 0.87498 0.0
H1103 H 0.69979 0.50922 0.86492 0.0
C1104 C 0.67145 0.52275 0.87773 0.0
C1105 C 0.66812 0.54618 0.88346 0.0
C1106 C 0.77243 0.58807 0.86109 0.0
C1107 C 0.72098 0.55546 0.86995 0.0
C1108 C 0.79521 0.59549 0.84579 0.0
C1109 C 0.79265 0.57692 0.82671 0.0
C1110 C 0.74723 0.56172 0.85746 0.0
C1111 C 0.76771 0.55018 0.82454 0.0
C1112 C 0.69786 0.52733 0.87082 0.0
C1113 C 0.69217 0.5737 0.8842 0.0
N1114 N 0.7459 0.54346 0.8396 0.0
N1115 N 0.71755 0.57765 0.87726 0.0
H1116 H 0.46945 0.24384 0.81581 0.0
H1117 H 0.43074 0.10096 0.87051 0.0
H1118 H 0.3834 0.18712 0.8364 0.0
H1119 H 0.508 0.17621 0.89406 0.0
H1120 H 0.41272 0.13161 0.85735 0.0
H1121 H 0.48497 0.22041 0.8441 0.0
C1122 C 0.45395 0.22692 0.82682 0.0
C1123 C 0.42518 0.21731 0.82393 0.0
C1124 C 0.43338 0.14139 0.86584 0.0
C1125 C 0.44256 0.18986 0.85545 0.0
C1126 C 0.44372 0.12398 0.87316 0.0
C1127 C 0.47089 0.13625 0.88315 0.0
C1128 C 0.45079 0.17128 0.86776 0.0
C1129 C 0.48691 0.16608 0.88639 0.0
C1130 C 0.46278 0.21362 0.84292 0.0
C1131 C 0.4058 0.19519 0.83833 0.0
N1132 N 0.47689 0.18274 0.87813 0.0
N1133 N 0.41477 0.18162 0.85307 0.0
H1134 H 0.81478 0.31394 0.894 0.0
H1135 H 0.80672 0.17123 0.84365 0.0
H1136 H 0.88667 0.31258 0.86485 0.0
H1137 H 0.74559 0.19406 0.82185 0.0
H1138 H 0.83149 0.21606 0.86761 0.0
H1139 H 0.78491 0.26264 0.88279 0.0
C1140 C 0.82428 0.30261 0.88575 0.0
C1141 C 0.85297 0.31719 0.88007 0.0
C1142 C 0.81224 0.21077 0.85803 0.0
C1143 C 0.81958 0.2592 0.86803 0.0
C1144 C 0.79805 0.18526 0.84449 0.0
C1145 C 0.77435 0.17927 0.83058 0.0
C1146 C 0.80216 0.2299 0.85805 0.0
C1147 C 0.76403 0.19818 0.83216 0.0
C1148 C 0.80734 0.27358 0.87936 0.0
C1149 C 0.8645 0.30192 0.86926 0.0
N1150 N 0.77813 0.22286 0.84557 0.0
N1151 N 0.84774 0.27364 0.86359 0.0
H1152 H 0.44277 0.23558 0.2947 0.0
H1153 H 0.46017 0.31356 0.423 0.0
H1154 H 0.41183 0.18982 0.36072 0.0
H1155 H 0.48653 0.35765 0.35584 0.0
H1156 H 0.44604 0.26834 0.40127 0.0
H1157 H 0.46212 0.28068 0.31753 0.0
C1158 C 0.44002 0.23494 0.314 0.0
C1159 C 0.42541 0.20872 0.32573 0.0
C1160 C 0.45509 0.28796 0.39135 0.0
C1161 C 0.44769 0.26058 0.35209 0.0
C1162 C 0.46329 0.31382 0.40376 0.0
C1163 C 0.47434 0.33948 0.39124 0.0
C1164 C 0.45803 0.28776 0.36625 0.0
C1165 C 0.47784 0.33843 0.36628 0.0
C1166 C 0.45114 0.26079 0.32706 0.0
C1167 C 0.42276 0.20944 0.35084 0.0
N1168 N 0.46959 0.31303 0.35464 0.0
N1169 N 0.43369 0.23493 0.36316 0.0
H1170 H 0.69219 0.12638 0.40936 0.0
H1171 H 0.74792 0.20944 0.28638 0.0
H1172 H 0.63898 0.12148 0.35018 0.0
H1173 H 0.80404 0.20249 0.33624 0.0
H1174 H 0.70815 0.17802 0.31095 0.0
H1175 H 0.73387 0.1559 0.38478 0.0
C1176 C 0.68925 0.13167 0.39134 0.0
C1177 C 0.66199 0.12143 0.38186 0.0
C1178 C 0.72905 0.18308 0.31659 0.0
C1179 C 0.7094 0.15483 0.35373 0.0
C1180 C 0.75182 0.20105 0.3025 0.0
C1181 C 0.7793 0.20861 0.30933 0.0
C1182 C 0.73362 0.17273 0.338 0.0
C1183 C 0.7831 0.197 0.33033 0.0
C1184 C 0.71302 0.14828 0.37728 0.0
C1185 C 0.65947 0.12873 0.35832 0.0
N1186 N 0.76046 0.17979 0.34414 0.0
N1187 N 0.68277 0.14493 0.34518 0.0
H1188 H 0.94193 0.60907 0.32171 0.0
H1189 H 0.77888 0.54655 0.32252 0.0
H1190 H 0.88903 0.54817 0.3743 0.0
H1191 H 0.83492 0.63162 0.29731 0.0
H1192 H 0.81895 0.54663 0.34145 0.0
H1193 H 0.90374 0.61815 0.31229 0.0
C1194 C 0.9224 0.5979 0.33151 0.0
C1195 C 0.91858 0.57767 0.3487 0.0
C1196 C 0.82249 0.5655 0.33215 0.0
C1197 C 0.87466 0.58761 0.33768 0.0
C1198 C 0.79965 0.56544 0.32127 0.0
C1199 C 0.80368 0.5891 0.3083 0.0
C1200 C 0.84975 0.58908 0.3295 0.0
C1201 C 0.83098 0.61302 0.30725 0.0
C1202 C 0.90067 0.60318 0.32618 0.0
C1203 C 0.8929 0.56395 0.36095 0.0
N1204 N 0.85314 0.6122 0.31732 0.0
N1205 N 0.87172 0.56876 0.35487 0.0
H1206 H 0.53132 0.03116 0.87306 0.0
H1207 H 0.66854 0.11282 0.79117 0.0
H1208 H 0.56104 0.11471 0.84407 0.0
H1209 H 0.65946 0.05284 0.84512 0.0
H1210 H 0.62145 0.10423 0.80105 0.0
H1211 H 0.57085 0.0298 0.85351 0.0
C1212 C 0.54574 0.04885 0.86212 0.0
C1213 C 0.54314 0.07317 0.86027 0.0
C1214 C 0.62964 0.09262 0.81042 0.0
C1215 C 0.58794 0.07171 0.83789 0.0
C1216 C 0.65642 0.09739 0.80471 0.0
C1217 C 0.66807 0.08378 0.81754 0.0
C1218 C 0.61425 0.07378 0.82882 0.0
C1219 C 0.65143 0.06408 0.83501 0.0
C1220 C 0.56833 0.04816 0.85113 0.0
C1221 C 0.5625 0.09567 0.84609 0.0
N1222 N 0.62543 0.05978 0.84023 0.0
N1223 N 0.58411 0.09446 0.83551 0.0
H1224 H 0.8673 0.44913 0.87852 0.0
H1225 H 0.89371 0.53223 0.75562 0.0
H1226 H 0.92973 0.45591 0.82799 0.0
H1227 H 0.84388 0.53511 0.81441 0.0
H1228 H 0.90589 0.50255 0.7799 0.0
H1229 H 0.85807 0.47981 0.85384 0.0
C1230 C 0.87925 0.4573 0.86221 0.0
C1231 C 0.89924 0.44991 0.85524 0.0
C1232 C 0.89228 0.50972 0.78737 0.0
C1233 C 0.88847 0.485 0.82646 0.0
C1234 C 0.88511 0.52642 0.77347 0.0
C1235 C 0.86773 0.53621 0.78297 0.0
C1236 C 0.88179 0.50265 0.81078 0.0
C1237 C 0.85742 0.52823 0.8063 0.0
C1238 C 0.87394 0.47485 0.84806 0.0
C1239 C 0.91423 0.46127 0.83401 0.0
N1240 N 0.86461 0.512 0.8193 0.0
N1241 N 0.90834 0.47812 0.82017 0.0
H1242 H 0.53525 0.43173 0.86934 0.0
H1243 H 0.47381 0.35343 0.74131 0.0
H1244 H 0.54981 0.47781 0.80353 0.0
H1245 H 0.4614 0.3095 0.80802 0.0
H1246 H 0.50365 0.39915 0.76295 0.0
H1247 H 0.50955 0.38678 0.84644 0.0
C1248 C 0.53303 0.43247 0.85007 0.0
C1249 C 0.54469 0.45874 0.83843 0.0
C1250 C 0.4945 0.37945 0.77277 0.0
C1251 C 0.51513 0.40698 0.81193 0.0
C1252 C 0.47756 0.35333 0.76041 0.0
C1253 C 0.46484 0.32752 0.77286 0.0
C1254 C 0.49877 0.37975 0.79772 0.0
C1255 C 0.47045 0.32878 0.79764 0.0
C1256 C 0.51836 0.40669 0.83695 0.0
C1257 C 0.54114 0.45813 0.81333 0.0
N1258 N 0.48683 0.35439 0.80921 0.0
N1259 N 0.52663 0.43268 0.80093 0.0
H1260 H 0.53872 0.68759 0.59814 0.0
H1261 H 0.55011 0.78972 0.70874 0.0
H1262 H 0.51054 0.6589 0.66994 0.0
H1263 H 0.61084 0.82005 0.65158 0.0
H1264 H 0.52518 0.74267 0.68868 0.0
H1265 H 0.55605 0.7373 0.61235 0.0
C1266 C 0.53591 0.69175 0.61677 0.0
C1267 C 0.52346 0.66931 0.633 0.0
C1268 C 0.54378 0.75973 0.68039 0.0
C1269 C 0.5425 0.72542 0.64906 0.0
C1270 C 0.55798 0.78662 0.69177 0.0
C1271 C 0.58289 0.80864 0.68202 0.0
C1272 C 0.55443 0.75485 0.65904 0.0
C1273 C 0.59191 0.80347 0.65984 0.0
C1274 C 0.54581 0.71998 0.62483 0.0
C1275 C 0.52031 0.67567 0.65694 0.0
N1276 N 0.5778 0.77693 0.64915 0.0
N1277 N 0.52972 0.70313 0.66423 0.0
H1278 H 0.22054 0.75335 0.67656 0.0
H1279 H 0.33565 0.90407 0.64042 0.0
H1280 H 0.20169 0.82117 0.6725 0.0
H1281 H 0.33167 0.8305 0.60495 0.0
H1282 H 0.2866 0.87402 0.65264 0.0
H1283 H 0.26065 0.7798 0.64983 0.0
C1284 C 0.22436 0.7734 0.66931 0.0
C1285 C 0.20782 0.7851 0.67639 0.0
C1286 C 0.29628 0.86453 0.64184 0.0
C1287 C 0.25413 0.81592 0.64695 0.0
C1288 C 0.32429 0.88158 0.63505 0.0
C1289 C 0.33765 0.86957 0.62191 0.0
C1290 C 0.28183 0.83509 0.63608 0.0
C1291 C 0.32202 0.84045 0.61516 0.0
C1292 C 0.24723 0.78849 0.65417 0.0
C1293 C 0.21383 0.81137 0.66708 0.0
N1294 N 0.29503 0.82396 0.6228 0.0
N1295 N 0.23699 0.82631 0.65326 0.0
H1296 H 0.22688 0.45627 0.68796 0.0
H1297 H 0.09331 0.40138 0.60738 0.0
H1298 H 0.18861 0.37348 0.65186 0.0
H1299 H 0.15119 0.49151 0.62029 0.0
H1300 H 0.13022 0.39137 0.61913 0.0
H1301 H 0.20235 0.47075 0.66018 0.0
C1302 C 0.21362 0.44129 0.67388 0.0
C1303 C 0.20948 0.41353 0.67233 0.0
C1304 C 0.1352 0.41343 0.61872 0.0
C1305 C 0.18088 0.42978 0.6407 0.0
C1306 C 0.11418 0.41914 0.6119 0.0
C1307 C 0.1193 0.44729 0.61292 0.0
C1308 C 0.16124 0.43595 0.62735 0.0
C1309 C 0.14652 0.46954 0.61913 0.0
C1310 C 0.19971 0.44961 0.65794 0.0
C1311 C 0.19228 0.39505 0.65367 0.0
N1312 N 0.1663 0.46334 0.62672 0.0
N1313 N 0.17807 0.40328 0.63889 0.0
H1314 H 0.35423 0.92647 0.22306 0.0
H1315 H 0.42886 0.866 0.14428 0.0
H1316 H 0.31945 0.83554 0.21273 0.0
H1317 H 0.47627 0.94861 0.18026 0.0
H1318 H 0.39013 0.85324 0.17207 0.0
H1319 H 0.40054 0.93454 0.2115 0.0
C1320 C 0.35662 0.90815 0.21908 0.0
C1321 C 0.33307 0.88032 0.21873 0.0
C1322 C 0.40921 0.87393 0.17429 0.0
C1323 C 0.38566 0.88941 0.20461 0.0
C1324 C 0.43127 0.88126 0.15837 0.0
C1325 C 0.45562 0.9085 0.15988 0.0
C1326 C 0.41114 0.89428 0.19145 0.0
C1327 C 0.45779 0.92741 0.17851 0.0
C1328 C 0.38302 0.91275 0.21241 0.0
C1329 C 0.33715 0.85731 0.2133 0.0
N1330 N 0.43552 0.92021 0.19325 0.0
N1331 N 0.36282 0.8624 0.20583 0.0
H1332 H 0.17294 0.50609 0.22729 0.0
H1333 H 0.04686 0.51521 0.16573 0.0
H1334 H 0.1001 0.43243 0.19536 0.0
H1335 H 0.1338 0.57558 0.1503 0.0
H1336 H 0.06245 0.48976 0.19202 0.0
H1337 H 0.1545 0.53653 0.21361 0.0
C1338 C 0.15283 0.49633 0.21784 0.0
C1339 C 0.13809 0.46692 0.21209 0.0
C1340 C 0.07804 0.50909 0.1834 0.0
C1341 C 0.11672 0.50108 0.19727 0.0
C1342 C 0.06921 0.52368 0.16864 0.0
C1343 C 0.08917 0.54741 0.15601 0.0
C1344 C 0.10695 0.51884 0.18583 0.0
C1345 C 0.11788 0.55732 0.15986 0.0
C1346 C 0.14241 0.51361 0.21007 0.0
C1347 C 0.11219 0.45514 0.19979 0.0
N1348 N 0.12598 0.54291 0.17441 0.0
N1349 N 0.10227 0.47228 0.19278 0.0
H1350 H 0.48023 0.6478 0.22631 0.0
H1351 H 0.47739 0.50708 0.17721 0.0
H1352 H 0.55413 0.64824 0.20008 0.0
H1353 H 0.41524 0.528 0.15433 0.0
H1354 H 0.50071 0.5517 0.20157 0.0
H1355 H 0.45164 0.5964 0.21504 0.0
C1356 C 0.49042 0.63684 0.21871 0.0
C1357 C 0.51932 0.65194 0.21383 0.0
C1358 C 0.48155 0.54604 0.19165 0.0
C1359 C 0.48737 0.59386 0.20171 0.0
C1360 C 0.4682 0.52064 0.17788 0.0
C1361 C 0.44464 0.51421 0.16357 0.0
C1362 C 0.47078 0.56459 0.19147 0.0
C1363 C 0.4336 0.53251 0.16494 0.0
C1364 C 0.47422 0.60775 0.21229 0.0
C1365 C 0.53177 0.63715 0.20385 0.0
N1366 N 0.4469 0.55707 0.17856 0.0
N1367 N 0.5157 0.60881 0.1981 0.0
H1368 H 0.13241 0.64502 0.75715 0.0
H1369 H 0.10842 0.56717 0.62798 0.0
H1370 H 0.15791 0.68958 0.69015 0.0
H1371 H 0.07925 0.52147 0.69422 0.0
H1372 H 0.12989 0.61229 0.651 0.0
H1373 H 0.11677 0.5998 0.73499 0.0
C1374 C 0.13507 0.6454 0.73784 0.0
C1375 C 0.14626 0.67119 0.72551 0.0
C1376 C 0.11884 0.5924 0.66052 0.0
C1377 C 0.12814 0.61942 0.70001 0.0
C1378 C 0.10648 0.56655 0.64737 0.0
C1379 C 0.09177 0.54035 0.65911 0.0
C1380 C 0.11652 0.59221 0.68567 0.0
C1381 C 0.09022 0.54108 0.68433 0.0
C1382 C 0.12599 0.61952 0.72519 0.0
C1383 C 0.14914 0.67025 0.70045 0.0
N1384 N 0.10234 0.56657 0.69674 0.0
N1385 N 0.13998 0.64481 0.68856 0.0
H1386 H 0.30086 0.44971 0.68253 0.0
H1387 H 0.46899 0.52907 0.67173 0.0
H1388 H 0.35431 0.4549 0.74163 0.0
H1389 H 0.41331 0.53542 0.62094 0.0
H1390 H 0.42768 0.49716 0.69594 0.0
H1391 H 0.34239 0.4773 0.65845 0.0
C1392 C 0.32138 0.45677 0.69054 0.0
C1393 C 0.32402 0.44997 0.71423 0.0
C1394 C 0.42461 0.5054 0.67937 0.0
C1395 C 0.37205 0.48168 0.68643 0.0
C1396 C 0.44808 0.5233 0.66547 0.0
C1397 C 0.44447 0.53491 0.6444 0.0
C1398 C 0.39755 0.49899 0.67187 0.0
C1399 C 0.41704 0.52709 0.63717 0.0
C1400 C 0.34518 0.47255 0.6767 0.0
C1401 C 0.35129 0.45983 0.72352 0.0
N1402 N 0.39473 0.50975 0.65088 0.0
N1403 N 0.37431 0.47515 0.70955 0.0
H1404 H 0.55774 0.88824 0.71202 0.0
H1405 H 0.50452 0.96944 0.62707 0.0
H1406 H 0.60456 0.93718 0.65116 0.0
H1407 H 0.44868 0.89064 0.66234 0.0
H1408 H 0.54507 0.96905 0.64548 0.0
H1409 H 0.5214 0.90053 0.70341 0.0
C1410 C 0.56069 0.9021 0.69721 0.0
C1411 C 0.584 0.91144 0.68211 0.0
C1412 C 0.52387 0.95222 0.64953 0.0
C1413 C 0.5428 0.92572 0.67233 0.0
C1414 C 0.50081 0.95255 0.63921 0.0
C1415 C 0.47335 0.92995 0.64314 0.0
C1416 C 0.51923 0.92944 0.6642 0.0
C1417 C 0.4696 0.90835 0.65876 0.0
C1418 C 0.53992 0.90897 0.69225 0.0
C1419 C 0.5867 0.92923 0.66306 0.0
N1420 N 0.49226 0.90855 0.66865 0.0
N1421 N 0.56629 0.93569 0.65863 0.0
H1422 H 0.20122 0.36411 0.2044 0.0
H1423 H 0.34001 0.44802 0.12475 0.0
H1424 H 0.23175 0.4488 0.17757 0.0
H1425 H 0.33081 0.3877 0.17841 0.0
H1426 H 0.29281 0.43921 0.1345 0.0
H1427 H 0.24155 0.36369 0.18551 0.0
C1428 C 0.21604 0.38229 0.19411 0.0
C1429 C 0.21338 0.40661 0.19265 0.0
C1430 C 0.30101 0.42759 0.14383 0.0
C1431 C 0.25903 0.40618 0.17096 0.0
C1432 C 0.32784 0.43247 0.13819 0.0
C1433 C 0.33946 0.4188 0.15096 0.0
C1434 C 0.28552 0.40855 0.16208 0.0
C1435 C 0.32277 0.39896 0.16833 0.0
C1436 C 0.23906 0.38212 0.18349 0.0
C1437 C 0.23324 0.42974 0.17929 0.0
N1438 N 0.2967 0.39452 0.17346 0.0
N1439 N 0.25524 0.42899 0.169 0.0
H1440 H 0.50131 0.86328 0.14466 0.0
H1441 H 0.59708 0.79248 0.16261 0.0
H1442 H 0.55796 0.86619 0.08964 0.0
H1443 H 0.52842 0.77968 0.20825 0.0
H1444 H 0.58662 0.82241 0.13663 0.0
H1445 H 0.51376 0.83459 0.16884 0.0
C1446 C 0.51628 0.85769 0.13756 0.0
C1447 C 0.5286 0.86719 0.11506 0.0
C1448 C 0.57399 0.81305 0.1524 0.0
C1449 C 0.54332 0.8343 0.14299 0.0
C1450 C 0.5801 0.79624 0.1673 0.0
C1451 C 0.56352 0.78354 0.18754 0.0
C1452 C 0.5514 0.81726 0.15808 0.0
C1453 C 0.54164 0.78885 0.19274 0.0
C1454 C 0.52345 0.84128 0.15144 0.0
C1455 C 0.5478 0.85912 0.10682 0.0
N1456 N 0.53626 0.8052 0.17815 0.0
N1457 N 0.55477 0.84326 0.12088 0.0
H1458 H 0.21638 0.81133 0.13784 0.0
H1459 H 0.13257 0.64004 0.14037 0.0
H1460 H 0.20341 0.76266 0.20186 0.0
H1461 H 0.14082 0.68689 0.07617 0.0
H1462 H 0.16246 0.68514 0.16207 0.0
H1463 H 0.19204 0.76647 0.11419 0.0
C1464 C 0.20846 0.79127 0.14697 0.0
C1465 C 0.21185 0.79088 0.17198 0.0
C1466 C 0.15791 0.68563 0.14321 0.0
C1467 C 0.18408 0.73941 0.14488 0.0
C1468 C 0.14084 0.65983 0.13075 0.0
C1469 C 0.13388 0.65963 0.10642 0.0
C1470 C 0.16808 0.71162 0.13139 0.0
C1471 C 0.14556 0.686 0.09491 0.0
C1472 C 0.1946 0.76566 0.1334 0.0
C1473 C 0.2012 0.76415 0.1827 0.0
N1474 N 0.16188 0.71096 0.10756 0.0
N1475 N 0.18779 0.73958 0.16911 0.0
H1476 H 0.39386 0.29947 0.01165 0.0
H1477 H 0.43079 0.36094 0.14193 0.0
H1478 H 0.38072 0.24891 0.07423 0.0
H1479 H 0.44939 0.41182 0.07868 0.0
H1480 H 0.42849 0.32201 0.11691 0.0
H1481 H 0.43027 0.34163 0.03392 0.0
C1482 C 0.39951 0.29705 0.02974 0.0
C1483 C 0.38383 0.27114 0.04148 0.0
C1484 C 0.43381 0.34198 0.10857 0.0
C1485 C 0.42439 0.31903 0.06728 0.0
C1486 C 0.43513 0.36417 0.12291 0.0
C1487 C 0.43909 0.38902 0.11213 0.0
C1488 C 0.43614 0.34476 0.08341 0.0
C1489 C 0.44512 0.39243 0.0875 0.0
C1490 C 0.42012 0.32113 0.04258 0.0
C1491 C 0.39194 0.26892 0.06487 0.0
N1492 N 0.44279 0.37029 0.07386 0.0
N1493 N 0.41113 0.29276 0.07727 0.0
H1494 H 0.59727 0.99404 0.12682 0.0
H1495 H 0.73555 0.06373 0.04869 0.0
H1496 H 0.59722 0.00633 0.05041 0.0
H1497 H 0.73644 0.06602 0.12638 0.0
H1498 H 0.6853 0.04814 0.0492 0.0
H1499 H 0.64845 0.02632 0.12778 0.0
C1500 C 0.6079 0.00404 0.11038 0.0
C1501 C 0.59308 0.99695 0.08843 0.0
C1502 C 0.69663 0.05244 0.06613 0.0
C1503 C 0.65154 0.03337 0.08925 0.0
C1504 C 0.72532 0.06131 0.06582 0.0
C1505 C 0.7401 0.06553 0.08748 0.0
C1506 C 0.68268 0.04762 0.08825 0.0
C1507 C 0.72578 0.06236 0.10918 0.0
C1508 C 0.63715 0.02235 0.11088 0.0
C1509 C 0.60794 0.01064 0.06766 0.0
N1510 N 0.69783 0.0532 0.109 0.0
N1511 N 0.63639 0.02775 0.0685 0.0
H1512 H 0.92109 0.65467 0.117 0.0
H1513 H 0.99532 0.58713 0.03925 0.0
H1514 H 0.93228 0.66311 0.04021 0.0
H1515 H 0.00309 0.59874 0.11651 0.0
H1516 H 0.96067 0.60242 0.03934 0.0
H1517 H 0.93889 0.62166 0.11645 0.0
C1518 C 0.9268 0.64916 0.09991 0.0
C1519 C 0.92584 0.66222 0.07866 0.0
C1520 C 0.96966 0.60126 0.0563 0.0
C1521 C 0.94633 0.62446 0.07803 0.0
C1522 C 0.98951 0.59257 0.05632 0.0
C1523 C 0.0027 0.59235 0.0779 0.0
C1524 C 0.96285 0.60979 0.07799 0.0
C1525 C 0.99375 0.59894 0.09945 0.0
C1526 C 0.93701 0.63033 0.09967 0.0
C1527 C 0.93294 0.65379 0.05703 0.0
N1528 N 0.97465 0.60783 0.09891 0.0
N1529 N 0.94337 0.63578 0.05733 0.0
H1530 H 0.26496 0.34871 0.38816 0.0
H1531 H 0.40769 0.40631 0.4631 0.0
H1532 H 0.26828 0.33311 0.46349 0.0
H1533 H 0.40258 0.40175 0.38548 0.0
H1534 H 0.35792 0.39139 0.4646 0.0
H1535 H 0.31603 0.38031 0.38867 0.0
C1536 C 0.27639 0.3524 0.40497 0.0
C1537 C 0.26241 0.33776 0.42573 0.0
C1538 C 0.36774 0.39397 0.44724 0.0
C1539 C 0.32095 0.3738 0.4263 0.0
C1540 C 0.3962 0.40245 0.4463 0.0
C1541 C 0.40928 0.40467 0.42407 0.0
C1542 C 0.35209 0.38769 0.42583 0.0
C1543 C 0.39335 0.4 0.403 0.0
C1544 C 0.30556 0.37038 0.40519 0.0
C1545 C 0.27821 0.34378 0.44706 0.0
N1546 N 0.36546 0.39135 0.40441 0.0
N1547 N 0.30677 0.361 0.4467 0.0
H1548 H 0.59942 0.99341 0.37142 0.0
H1549 H 0.66719 0.92457 0.45052 0.0
H1550 H 0.58702 0.9824 0.44793 0.0
H1551 H 0.66334 0.91848 0.37292 0.0
H1552 H 0.63199 0.93943 0.44981 0.0
H1553 H 0.61643 0.95952 0.37086 0.0
C1554 C 0.5996 0.98334 0.38797 0.0
C1555 C 0.59252 0.9913 0.40983 0.0
C1556 C 0.63852 0.93437 0.43295 0.0
C1557 C 0.6124 0.95303 0.40947 0.0
C1558 C 0.65862 0.92586 0.43338 0.0
C1559 C 0.66881 0.92103 0.41176 0.0
C1560 C 0.62879 0.93825 0.41075 0.0
C1561 C 0.6567 0.92276 0.39005 0.0
C1562 C 0.60944 0.96409 0.3877 0.0
C1563 C 0.59302 0.97746 0.43074 0.0
N1564 N 0.63774 0.93172 0.39009 0.0
N1565 N 0.60337 0.95947 0.43014 0.0
H1566 H 0.13126 0.7469 0.42946 0.0
H1567 H 0.03512 0.58057 0.42116 0.0
H1568 H 0.08647 0.69291 0.48857 0.0
H1569 H 0.06577 0.63646 0.36073 0.0
H1570 H 0.07093 0.61878 0.44685 0.0
H1571 H 0.12565 0.70515 0.40689 0.0
C1572 C 0.12124 0.72632 0.43804 0.0
C1573 C 0.10869 0.72301 0.4606 0.0
C1574 C 0.07038 0.62252 0.42787 0.0
C1575 C 0.10137 0.67522 0.43466 0.0
C1576 C 0.0499 0.60077 0.41319 0.0
C1577 C 0.04699 0.60584 0.38902 0.0
C1578 C 0.08767 0.64968 0.41837 0.0
C1579 C 0.06704 0.63196 0.37941 0.0
C1580 C 0.11791 0.7025 0.4251 0.0
C1581 C 0.09614 0.69616 0.47109 0.0
N1582 N 0.08614 0.65328 0.39431 0.0
N1583 N 0.09204 0.67301 0.4577 0.0
H1584 H 0.61506 0.59493 0.94764 0.0
H1585 H 0.69108 0.74316 0.88032 0.0
H1586 H 0.60941 0.60052 0.87077 0.0
H1587 H 0.67794 0.73717 0.95696 0.0
H1588 H 0.6628 0.69103 0.87635 0.0
H1589 H 0.63974 0.64703 0.95131 0.0
C1590 C 0.61898 0.60716 0.9315 0.0
C1591 C 0.61027 0.59344 0.90883 0.0
C1592 C 0.66594 0.70111 0.89402 0.0
C1593 C 0.63862 0.65313 0.91293 0.0
C1594 C 0.68215 0.73085 0.89633 0.0
C1595 C 0.68691 0.74444 0.91904 0.0
C1596 C 0.65466 0.68482 0.91461 0.0
C1597 C 0.67478 0.72751 0.93913 0.0
C1598 C 0.63299 0.63691 0.93364 0.0
C1599 C 0.61578 0.61031 0.88857 0.0
N1600 N 0.65934 0.6985 0.93646 0.0
N1601 N 0.62982 0.63937 0.89108 0.0
H1602 H 0.26434 0.98012 0.96903 0.0
H1603 H 0.40318 0.0245 0.89202 0.0
H1604 H 0.26564 0.97333 0.89174 0.0
H1605 H 0.40459 0.05517 0.96458 0.0
H1606 H 0.35181 0.99346 0.89452 0.0
H1607 H 0.31492 0.9956 0.97032 0.0
C1608 C 0.27516 0.98126 0.95245 0.0
C1609 C 0.26116 0.9759 0.93025 0.0
C1610 C 0.36348 0.00668 0.91001 0.0
C1611 C 0.31839 0.99332 0.93149 0.0
C1612 C 0.39276 0.02427 0.90861 0.0
C1613 C 0.40804 0.04276 0.92796 0.0
C1614 C 0.34953 0.00746 0.93097 0.0
C1615 C 0.3935 0.04162 0.94907 0.0
C1616 C 0.30392 0.99019 0.95314 0.0
C1617 C 0.27595 0.97772 0.9092 0.0
N1618 N 0.36504 0.0245 0.94994 0.0
N1619 N 0.30379 0.98648 0.9103 0.0
H1620 H 0.02436 0.28393 0.87457 0.0
H1621 H 0.96154 0.36083 0.95089 0.0
H1622 H 0.04769 0.30919 0.94895 0.0
H1623 H 0.96125 0.36074 0.87338 0.0
H1624 H 0.9967 0.34612 0.9502 0.0
H1625 H 0.00512 0.31571 0.8729 0.0
C1626 C 0.02581 0.29656 0.89047 0.0
C1627 C 0.03725 0.29367 0.91204 0.0
C1628 C 0.98942 0.34981 0.93332 0.0
C1629 C 0.01488 0.32976 0.91036 0.0
C1630 C 0.96927 0.3581 0.9337 0.0
C1631 C 0.9583 0.36161 0.91213 0.0
C1632 C 0.99819 0.34429 0.91119 0.0
C1633 C 0.96918 0.35815 0.89038 0.0
C1634 C 0.01492 0.31478 0.88947 0.0
C1635 C 0.03894 0.31074 0.93201 0.0
N1636 N 0.98814 0.34906 0.89043 0.0
N1637 N 0.0273 0.32765 0.93083 0.0
H1638 H 0.73993 0.71265 0.63079 0.0
H1639 H 0.5974 0.63052 0.55838 0.0
H1640 H 0.73523 0.68346 0.55723 0.0
H1641 H 0.60014 0.63661 0.63581 0.0
H1642 H 0.64728 0.64524 0.55824 0.0
H1643 H 0.68906 0.68092 0.63408 0.0
C1644 C 0.72818 0.69921 0.61541 0.0
C1645 C 0.7417 0.70098 0.59357 0.0
C1646 C 0.63697 0.64285 0.57532 0.0
C1647 C 0.68338 0.66486 0.59713 0.0
C1648 C 0.60853 0.63452 0.5754 0.0
C1649 C 0.59489 0.63269 0.59714 0.0
C1650 C 0.65212 0.65016 0.59714 0.0
C1651 C 0.61003 0.63786 0.6187 0.0
C1652 C 0.69915 0.681 0.61734 0.0
C1653 C 0.72559 0.68283 0.57434 0.0
N1654 N 0.6381 0.64698 0.61815 0.0
N1655 N 0.69714 0.66592 0.57642 0.0
H1656 H 0.29796 0.03368 0.60974 0.0
H1657 H 0.35756 0.95083 0.53688 0.0
H1658 H 0.29155 0.02446 0.53249 0.0
H1659 H 0.38203 0.97997 0.61045 0.0
H1660 H 0.33833 0.98247 0.53363 0.0
H1661 H 0.33355 0.01954 0.60947 0.0
C1662 C 0.30453 0.02914 0.59265 0.0
C1663 C 0.29173 0.02991 0.57111 0.0
C1664 C 0.34835 0.9824 0.55036 0.0
C1665 C 0.33195 0.01304 0.57065 0.0
C1666 C 0.35924 0.96425 0.55227 0.0
C1667 C 0.37098 0.96246 0.57411 0.0
C1668 C 0.34866 -0.00151 0.5706 0.0
C1669 C 0.37301 0.9806 0.59334 0.0
C1670 C 0.32487 0.02111 0.59249 0.0
C1671 C 0.30098 0.02405 0.54945 0.0
N1672 N 0.36141 0.99746 0.59129 0.0
N1673 N 0.32017 0.01525 0.54979 0.0
H1674 H 0.00704 0.39948 0.62794 0.0
H1675 H 0.93551 0.2615 0.53906 0.0
H1676 H 0.01678 0.40335 0.55088 0.0
H1677 H 0.94235 0.257 0.61594 0.0
H1678 H 0.95994 0.31386 0.54316 0.0
H1679 H 0.97777 0.34715 0.62402 0.0
C1680 C 0.00289 0.38932 0.61023 0.0
C1681 C 0.01444 0.40565 0.58974 0.0
C1682 C 0.95599 0.30136 0.55912 0.0
C1683 C 0.98108 0.34614 0.58508 0.0
C1684 C 0.94202 0.27153 0.55678 0.0
C1685 C 0.93712 0.25501 0.57716 0.0
C1686 C 0.96486 0.3146 0.58202 0.0
C1687 C 0.94592 0.26901 0.59973 0.0
C1688 C 0.98627 0.35952 0.60799 0.0
C1689 C 0.00843 0.39151 0.56718 0.0
N1690 N 0.95941 0.29801 0.60156 0.0
N1691 N 0.99219 0.36256 0.56545 0.0
H1692 H 0.93534 0.66087 0.79638 0.0
H1693 H 0.07561 0.73513 0.7203 0.0
H1694 H 0.93737 0.67681 0.72052 0.0
H1695 H 0.07445 0.72838 0.79757 0.0
H1696 H 0.0256 0.7203 0.72088 0.0
H1697 H 0.9866 0.69255 0.79844 0.0
C1698 C 0.94645 0.67158 0.78031 0.0
C1699 C 0.93218 0.66568 0.75815 0.0
C1700 C 0.03641 0.72242 0.73774 0.0
C1701 C 0.99074 0.70145 0.76022 0.0
C1702 C 0.06498 0.73086 0.73739 0.0
C1703 C 0.07915 0.73239 0.75883 0.0
C1704 C 0.0219 0.71531 0.75966 0.0
C1705 C 0.0643 0.72691 0.7805 0.0
C1706 C 0.97575 0.68953 0.78143 0.0
C1707 C 0.94764 0.68022 0.73789 0.0
N1708 N 0.03644 0.71823 0.78031 0.0
N1709 N 0.97612 0.697 0.73931 0.0
H1710 H 0.26109 0.32361 0.70476 0.0
H1711 H 0.33203 0.25705 0.78274 0.0
H1712 H 0.2499 0.31251 0.78135 0.0
H1713 H 0.32872 0.25243 0.70509 0.0
H1714 H 0.29578 0.27047 0.78238 0.0
H1715 H 0.27901 0.2905 0.70374 0.0
C1716 C 0.26169 0.31364 0.72123 0.0
C1717 C 0.2547 0.3214 0.74324 0.0
C1718 C 0.30266 0.26604 0.76542 0.0
C1719 C 0.27566 0.28403 0.74235 0.0
C1720 C 0.32337 0.25835 0.76565 0.0
C1721 C 0.33399 0.25434 0.74393 0.0
C1722 C 0.29275 0.26995 0.74333 0.0
C1723 C 0.32173 0.25605 0.72231 0.0
C1724 C 0.27208 0.29485 0.7207 0.0
C1725 C 0.25579 0.30771 0.76405 0.0
N1726 N 0.30217 0.26423 0.72255 0.0
N1727 N 0.26666 0.29018 0.76318 0.0
H1728 H 0.71409 0.91441 0.73702 0.0
H1729 H 0.78179 0.08045 0.74572 0.0
H1730 H 0.72153 0.9682 0.6783 0.0
H1731 H 0.75697 0.02427 0.80593 0.0
H1732 H 0.78011 0.04265 0.71992 0.0
H1733 H 0.75003 0.95639 0.75949 0.0
C1734 C 0.72429 0.93501 0.72846 0.0
C1735 C 0.71458 0.93818 0.70609 0.0
C1736 C 0.77575 0.03877 0.73888 0.0
C1737 C 0.75478 0.9862 0.73191 0.0
C1738 C 0.77659 0.06027 0.75361 0.0
C1739 C 0.7685 0.05497 0.77775 0.0
C1740 C 0.76623 0.01163 0.74828 0.0
C1741 C 0.76278 0.02892 0.78728 0.0
C1742 C 0.74465 0.95896 0.74135 0.0
C1743 C 0.72836 0.96506 0.69564 0.0
N1744 N 0.76099 0.00784 0.77232 0.0
N1745 N 0.74728 0.98832 0.70898 0.0
H1746 H 0.26954 0.92955 0.2066 0.0
H1747 H 0.34334 0.06792 0.29486 0.0
H1748 H 0.27825 0.92504 0.28324 0.0
H1749 H 0.35327 0.07118 0.21783 0.0
H1750 H 0.31382 0.01557 0.2912 0.0
H1751 H 0.29465 0.98191 0.21063 0.0
C1752 C 0.2766 0.93958 0.22427 0.0
C1753 C 0.272 0.92303 0.24459 0.0
C1754 C 0.32243 0.02781 0.27512 0.0
C1755 C 0.30057 0.98269 0.24936 0.0
C1756 C 0.33918 0.05763 0.27721 0.0
C1757 C 0.35083 0.0738 0.25664 0.0
C1758 C 0.31715 0.01426 0.25229 0.0
C1759 C 0.34483 0.05947 0.23417 0.0
C1760 C 0.29098 0.96942 0.22657 0.0
C1761 C 0.28154 0.93706 0.26708 0.0
N1762 N 0.3284 0.03052 0.23259 0.0
N1763 N 0.2954 0.96611 0.26887 0.0
H1764 H 0.93156 0.30319 0.21475 0.0
H1765 H 0.06996 0.37856 0.29284 0.0
H1766 H 0.93013 0.2991 0.29208 0.0
H1767 H 0.06987 0.35675 0.21777 0.0
H1768 H 0.01899 0.34614 0.29356 0.0
H1769 H 0.98169 0.3189 0.21559 0.0
C1770 C 0.9418 0.30518 0.23192 0.0
C1771 C 0.92687 0.30019 0.25342 0.0
C1772 C 0.03011 0.34798 0.27703 0.0
C1773 C 0.98437 0.31869 0.25456 0.0
C1774 C 0.05919 0.36658 0.27657 0.0
C1775 C 0.07403 0.37058 0.25511 0.0
C1776 C 0.01562 0.33376 0.25573 0.0
C1777 C 0.05917 0.35432 0.23465 0.0
C1778 C 0.97039 0.31406 0.23238 0.0
C1779 C 0.94097 0.3028 0.27513 0.0
N1780 N 0.03063 0.33702 0.23533 0.0
N1781 N 0.96916 0.31248 0.27521 0.0
H1782 H 0.71181 0.64168 0.28423 0.0
H1783 H 0.62883 0.6995 0.20717 0.0
H1784 H 0.69139 0.6223 0.20872 0.0
H1785 H 0.62512 0.69266 0.28434 0.0
H1786 H 0.66422 0.68455 0.20668 0.0
H1787 H 0.69258 0.67385 0.28342 0.0
C1788 C 0.7039 0.64473 0.2674 0.0
C1789 C 0.70271 0.62902 0.24662 0.0
C1790 C 0.65598 0.68685 0.22373 0.0
C1791 C 0.68084 0.66557 0.24552 0.0
C1792 C 0.63594 0.69548 0.224 0.0
C1793 C 0.62378 0.69679 0.24576 0.0
C1794 C 0.66403 0.67992 0.24541 0.0
C1795 C 0.63365 0.69136 0.26712 0.0
C1796 C 0.69282 0.66293 0.26695 0.0
C1797 C 0.6922 0.63367 0.22525 0.0
N1798 N 0.65301 0.68293 0.2664 0.0
N1799 N 0.68143 0.65131 0.22529 0.0
loop_
_geom_bond_atom_site_label_1
_geom_bond_atom_site_label_2
_geom_bond_distance
_geom_bond_site_symmetry_2
_ccdc_geom_bond_type
Co0 O1 2.216 . S
Co0 O2 2.091 . S
Co0 O4 2.004 . S
Co0 O10 2.021 . S
Co0 O12 2.137 . S
Co0 O13 2.244 . S
O1 Co0 2.216 . S
O1 C8 1.247 . S
O2 Co0 2.091 . S
O2 C8 1.261 . S
C3 O12 1.247 . S
C3 O13 1.272 . S
O4 Co0 2.004 . S
O4 C9 1.259 . S
Co5 O6 2.061 . S
Co5 O11 2.052 . S
Co5 O13 2.135 . S
O6 Co5 2.061 . S
O6 C9 1.235 . S
C7 O10 1.238 . S
C7 O11 1.241 . S
C8 O1 1.247 . S
C8 O2 1.261 . S
C9 O4 1.259 . S
C9 O6 1.235 . S
O10 Co0 2.021 . S
O10 C7 1.238 . S
O11 Co5 2.052 . S
O11 C7 1.241 . S
O12 Co0 2.137 . S
O12 C3 1.247 . S
O13 Co0 2.244 . S
O13 C3 1.272 . S
O13 Co5 2.135 . S
Co14 O15 2.216 . S
Co14 O16 2.091 . S
Co14 O18 2.004 . S
Co14 O24 2.021 . S
Co14 O26 2.137 . S
Co14 O27 2.244 . S
O15 Co14 2.216 . S
O15 C22 1.247 . S
O16 Co14 2.091 . S
O16 C22 1.261 . S
C17 O26 1.247 . S
C17 O27 1.272 . S
O18 Co14 2.004 . S
O18 C23 1.259 . S
Co19 O20 2.061 . S
Co19 O25 2.052 . S
Co19 O27 2.135 . S
O20 Co19 2.061 . S
O20 C23 1.235 . S
C21 O24 1.238 . S
C21 O25 1.241 . S
C22 O15 1.247 . S
C22 O16 1.261 . S
C23 O18 1.259 . S
C23 O20 1.235 . S
O24 Co14 2.021 . S
O24 C21 1.238 . S
O25 Co19 2.052 . S
O25 C21 1.241 . S
O26 Co14 2.137 . S
O26 C17 1.247 . S
O27 Co14 2.244 . S
O27 C17 1.272 . S
O27 Co19 2.135 . S
Co28 O29 2.216 . S
Co28 O30 2.091 . S
Co28 O32 2.004 . S
Co28 O38 2.021 . S
Co28 O40 2.137 . S
Co28 O41 2.244 . S
O29 Co28 2.216 . S
O29 C36 1.247 . S
O30 Co28 2.091 . S
O30 C36 1.261 . S
C31 O40 1.247 . S
C31 O41 1.272 . S
O32 Co28 2.004 . S
O32 C37 1.259 . S
Co33 O34 2.061 . S
Co33 O39 2.052 . S
Co33 O41 2.135 . S
O34 Co33 2.061 . S
O34 C37 1.235 . S
C35 O38 1.238 . S
C35 O39 1.241 . S
C36 O29 1.247 . S
C36 O30 1.261 . S
C37 O32 1.259 . S
C37 O34 1.235 . S
O38 Co28 2.021 . S
O38 C35 1.238 . S
O39 Co33 2.052 . S
O39 C35 1.241 . S
O40 Co28 2.137 . S
O40 C31 1.247 . S
O41 Co28 2.244 . S
O41 C31 1.272 . S
O41 Co33 2.135 . S
Co42 O43 2.216 . S
Co42 O44 2.091 . S
Co42 O46 2.004 . S
Co42 O52 2.021 . S
Co42 O54 2.137 . S
Co42 O55 2.244 . S
O43 Co42 2.216 . S
O43 C50 1.247 . S
O44 Co42 2.091 . S
O44 C50 1.261 . S
C45 O54 1.247 . S
C45 O55 1.272 . S
O46 Co42 2.004 . S
O46 C51 1.259 . S
Co47 O48 2.061 . S
Co47 O53 2.052 . S
Co47 O55 2.135 . S
O48 Co47 2.061 . S
O48 C51 1.235 . S
C49 O52 1.238 . S
C49 O53 1.241 . S
C50 O43 1.247 . S
C50 O44 1.261 . S
C51 O46 1.259 . S
C51 O48 1.235 . S
O52 Co42 2.021 . S
O52 C49 1.238 . S
O53 Co47 2.052 . S
O53 C49 1.241 . S
O54 Co42 2.137 . S
O54 C45 1.247 . S
O55 Co42 2.244 . S
O55 C45 1.272 . S
O55 Co47 2.135 . S
Co56 O57 2.216 . S
Co56 O58 2.091 . S
Co56 O60 2.004 . S
Co56 O66 2.021 . S
Co56 O68 2.137 . S
Co56 O69 2.244 . S
O57 Co56 2.216 . S
O57 C64 1.247 . S
O58 Co56 2.091 . S
O58 C64 1.261 . S
C59 O68 1.247 . S
C59 O69 1.272 . S
O60 Co56 2.004 . S
O60 C65 1.259 . S
Co61 O62 2.061 . S
Co61 O67 2.052 . S
Co61 O69 2.135 . S
O62 Co61 2.061 . S
O62 C65 1.235 . S
C63 O66 1.238 . S
C63 O67 1.241 . S
C64 O57 1.247 . S
C64 O58 1.261 . S
C65 O60 1.259 . S
C65 O62 1.235 . S
O66 Co56 2.021 . S
O66 C63 1.238 . S
O67 Co61 2.052 . S
O67 C63 1.241 . S
O68 Co56 2.137 . S
O68 C59 1.247 . S
O69 Co56 2.244 . S
O69 C59 1.272 . S
O69 Co61 2.135 . S
Co70 O71 2.216 . S
Co70 O72 2.091 . S
Co70 O74 2.004 . S
Co70 O80 2.021 . S
Co70 O82 2.137 . S
Co70 O83 2.244 . S
O71 Co70 2.216 . S
O71 C78 1.247 . S
O72 Co70 2.091 . S
O72 C78 1.261 . S
C73 O82 1.247 . S
C73 O83 1.272 . S
O74 Co70 2.004 . S
O74 C79 1.259 . S
Co75 O76 2.061 . S
Co75 O81 2.052 . S
Co75 O83 2.135 . S
O76 Co75 2.061 . S
O76 C79 1.235 . S
C77 O80 1.238 . S
C77 O81 1.241 . S
C78 O71 1.247 . S
C78 O72 1.261 . S
C79 O74 1.259 . S
C79 O76 1.235 . S
O80 Co70 2.021 . S
O80 C77 1.238 . S
O81 Co75 2.052 . S
O81 C77 1.241 . S
O82 Co70 2.137 . S
O82 C73 1.247 . S
O83 Co70 2.244 . S
O83 C73 1.272 . S
O83 Co75 2.135 . S
Co84 O85 2.216 . S
Co84 O86 2.091 . S
Co84 O88 2.004 . S
Co84 O94 2.021 . S
Co84 O96 2.137 . S
Co84 O97 2.244 . S
O85 Co84 2.216 . S
O85 C92 1.247 . S
O86 Co84 2.091 . S
O86 C92 1.261 . S
C87 O96 1.247 . S
C87 O97 1.272 . S
O88 Co84 2.004 . S
O88 C93 1.259 . S
Co89 O90 2.061 . S
Co89 O95 2.052 . S
Co89 O97 2.135 . S
O90 Co89 2.061 . S
O90 C93 1.235 . S
C91 O94 1.238 . S
C91 O95 1.241 . S
C92 O85 1.247 . S
C92 O86 1.261 . S
C93 O88 1.259 . S
C93 O90 1.235 . S
O94 Co84 2.021 . S
O94 C91 1.238 . S
O95 Co89 2.052 . S
O95 C91 1.241 . S
O96 Co84 2.137 . S
O96 C87 1.247 . S
O97 Co84 2.244 . S
O97 C87 1.272 . S
O97 Co89 2.135 . S
Co98 O99 2.216 . S
Co98 O100 2.091 . S
Co98 O102 2.004 . S
Co98 O108 2.021 . S
Co98 O110 2.137 . S
Co98 O111 2.244 . S
O99 Co98 2.216 . S
O99 C106 1.247 . S
O100 Co98 2.091 . S
O100 C106 1.261 . S
C101 O110 1.247 . S
C101 O111 1.272 . S
O102 Co98 2.004 . S
O102 C107 1.259 . S
Co103 O104 2.061 . S
Co103 O109 2.052 . S
Co103 O111 2.135 . S
O104 Co103 2.061 . S
O104 C107 1.235 . S
C105 O108 1.238 . S
C105 O109 1.241 . S
C106 O99 1.247 . S
C106 O100 1.261 . S
C107 O102 1.259 . S
C107 O104 1.235 . S
O108 Co98 2.021 . S
O108 C105 1.238 . S
O109 Co103 2.052 . S
O109 C105 1.241 . S
O110 Co98 2.137 . S
O110 C101 1.247 . S
O111 Co98 2.244 . S
O111 C101 1.272 . S
O111 Co103 2.135 . S
Co112 O113 2.216 . S
Co112 O114 2.091 . S
Co112 O116 2.004 . S
Co112 O122 2.021 . S
Co112 O124 2.137 . S
Co112 O125 2.244 . S
O113 Co112 2.216 . S
O113 C120 1.247 . S
O114 Co112 2.091 . S
O114 C120 1.261 . S
C115 O124 1.247 . S
C115 O125 1.272 . S
O116 Co112 2.004 . S
O116 C121 1.259 . S
Co117 O118 2.061 . S
Co117 O123 2.052 . S
Co117 O125 2.135 . S
O118 Co117 2.061 . S
O118 C121 1.235 . S
C119 O122 1.238 . S
C119 O123 1.241 . S
C120 O113 1.247 . S
C120 O114 1.261 . S
C121 O116 1.259 . S
C121 O118 1.235 . S
O122 Co112 2.021 . S
O122 C119 1.238 . S
O123 Co117 2.052 . S
O123 C119 1.241 . S
O124 Co112 2.137 . S
O124 C115 1.247 . S
O125 Co112 2.244 . S
O125 C115 1.272 . S
O125 Co117 2.135 . S
Co126 O127 2.216 . S
Co126 O128 2.091 . S
Co126 O130 2.004 . S
Co126 O136 2.021 . S
Co126 O138 2.137 . S
Co126 O139 2.244 . S
O127 Co126 2.216 . S
O127 C134 1.247 . S
O128 Co126 2.091 . S
O128 C134 1.261 . S
C129 O138 1.247 . S
C129 O139 1.272 . S
O130 Co126 2.004 . S
O130 C135 1.259 . S
Co131 O132 2.061 . S
Co131 O137 2.052 . S
Co131 O139 2.135 . S
O132 Co131 2.061 . S
O132 C135 1.235 . S
C133 O136 1.238 . S
C133 O137 1.241 . S
C134 O127 1.247 . S
C134 O128 1.261 . S
C135 O130 1.259 . S
C135 O132 1.235 . S
O136 Co126 2.021 . S
O136 C133 1.238 . S
O137 Co131 2.052 . S
O137 C133 1.241 . S
O138 Co126 2.137 . S
O138 C129 1.247 . S
O139 Co126 2.244 . S
O139 C129 1.272 . S
O139 Co131 2.135 . S
Co140 O141 2.216 . S
Co140 O142 2.091 . S
Co140 O144 2.004 . S
Co140 O150 2.021 . S
Co140 O152 2.137 . S
Co140 O153 2.244 . S
O141 Co140 2.216 . S
O141 C148 1.247 . S
O142 Co140 2.091 . S
O142 C148 1.261 . S
C143 O152 1.247 . S
C143 O153 1.272 . S
O144 Co140 2.004 . S
O144 C149 1.259 . S
Co145 O146 2.061 . S
Co145 O151 2.052 . S
Co145 O153 2.135 . S
O146 Co145 2.061 . S
O146 C149 1.235 . S
C147 O150 1.238 . S
C147 O151 1.241 . S
C148 O141 1.247 . S
C148 O142 1.261 . S
C149 O144 1.259 . S
C149 O146 1.235 . S
O150 Co140 2.021 . S
O150 C147 1.238 . S
O151 Co145 2.052 . S
O151 C147 1.241 . S
O152 Co140 2.137 . S
O152 C143 1.247 . S
O153 Co140 2.244 . S
O153 C143 1.272 . S
O153 Co145 2.135 . S
Co154 O155 2.216 . S
Co154 O156 2.091 . S
Co154 O158 2.004 . S
Co154 O164 2.021 . S
Co154 O166 2.137 . S
Co154 O167 2.244 . S
O155 Co154 2.216 . S
O155 C162 1.247 . S
O156 Co154 2.091 . S
O156 C162 1.261 . S
C157 O166 1.247 . S
C157 O167 1.272 . S
O158 Co154 2.004 . S
O158 C163 1.259 . S
Co159 O160 2.061 . S
Co159 O165 2.052 . S
Co159 O167 2.135 . S
O160 Co159 2.061 . S
O160 C163 1.235 . S
C161 O164 1.238 . S
C161 O165 1.241 . S
C162 O155 1.247 . S
C162 O156 1.261 . S
C163 O158 1.259 . S
C163 O160 1.235 . S
O164 Co154 2.021 . S
O164 C161 1.238 . S
O165 Co159 2.052 . S
O165 C161 1.241 . S
O166 Co154 2.137 . S
O166 C157 1.247 . S
O167 Co154 2.244 . S
O167 C157 1.272 . S
O167 Co159 2.135 . S
Co168 O169 2.216 . S
Co168 O170 2.091 . S
Co168 O172 2.004 . S
Co168 O178 2.021 . S
Co168 O180 2.137 . S
Co168 O181 2.244 . S
O169 Co168 2.216 . S
O169 C176 1.247 . S
O170 Co168 2.091 . S
O170 C176 1.261 . S
C171 O180 1.247 . S
C171 O181 1.272 . S
O172 Co168 2.004 . S
O172 C177 1.259 . S
Co173 O174 2.061 . S
Co173 O179 2.052 . S
Co173 O181 2.135 . S
O174 Co173 2.061 . S
O174 C177 1.235 . S
C175 O178 1.238 . S
C175 O179 1.241 . S
C176 O169 1.247 . S
C176 O170 1.261 . S
C177 O172 1.259 . S
C177 O174 1.235 . S
O178 Co168 2.021 . S
O178 C175 1.238 . S
O179 Co173 2.052 . S
O179 C175 1.241 . S
O180 Co168 2.137 . S
O180 C171 1.247 . S
O181 Co168 2.244 . S
O181 C171 1.272 . S
O181 Co173 2.135 . S
Co182 O183 2.216 . S
Co182 O184 2.091 . S
Co182 O186 2.004 . S
Co182 O192 2.021 . S
Co182 O194 2.137 . S
Co182 O195 2.244 . S
O183 Co182 2.216 . S
O183 C190 1.247 . S
O184 Co182 2.091 . S
O184 C190 1.261 . S
C185 O194 1.247 . S
C185 O195 1.272 . S
O186 Co182 2.004 . S
O186 C191 1.259 . S
Co187 O188 2.061 . S
Co187 O193 2.052 . S
Co187 O195 2.135 . S
O188 Co187 2.061 . S
O188 C191 1.235 . S
C189 O192 1.238 . S
C189 O193 1.241 . S
C190 O183 1.247 . S
C190 O184 1.261 . S
C191 O186 1.259 . S
C191 O188 1.235 . S
O192 Co182 2.021 . S
O192 C189 1.238 . S
O193 Co187 2.052 . S
O193 C189 1.241 . S
O194 Co182 2.137 . S
O194 C185 1.247 . S
O195 Co182 2.244 . S
O195 C185 1.272 . S
O195 Co187 2.135 . S
Co196 O197 2.216 . S
Co196 O198 2.091 . S
Co196 O200 2.004 . S
Co196 O206 2.021 . S
Co196 O208 2.137 . S
Co196 O209 2.244 . S
O197 Co196 2.216 . S
O197 C204 1.247 . S
O198 Co196 2.091 . S
O198 C204 1.261 . S
C199 O208 1.247 . S
C199 O209 1.272 . S
O200 Co196 2.004 . S
O200 C205 1.259 . S
Co201 O202 2.061 . S
Co201 O207 2.052 . S
Co201 O209 2.135 . S
O202 Co201 2.061 . S
O202 C205 1.235 . S
C203 O206 1.238 . S
C203 O207 1.241 . S
C204 O197 1.247 . S
C204 O198 1.261 . S
C205 O200 1.259 . S
C205 O202 1.235 . S
O206 Co196 2.021 . S
O206 C203 1.238 . S
O207 Co201 2.052 . S
O207 C203 1.241 . S
O208 Co196 2.137 . S
O208 C199 1.247 . S
O209 Co196 2.244 . S
O209 C199 1.272 . S
O209 Co201 2.135 . S
Co210 O211 2.216 . S
Co210 O212 2.091 . S
Co210 O214 2.004 . S
Co210 O220 2.021 . S
Co210 O222 2.137 . S
Co210 O223 2.244 . S
O211 Co210 2.216 . S
O211 C218 1.247 . S
O212 Co210 2.091 . S
O212 C218 1.261 . S
C213 O222 1.247 . S
C213 O223 1.272 . S
O214 Co210 2.004 . S
O214 C219 1.259 . S
Co215 O216 2.061 . S
Co215 O221 2.052 . S
Co215 O223 2.135 . S
O216 Co215 2.061 . S
O216 C219 1.235 . S
C217 O220 1.238 . S
C217 O221 1.241 . S
C218 O211 1.247 . S
C218 O212 1.261 . S
C219 O214 1.259 . S
C219 O216 1.235 . S
O220 Co210 2.021 . S
O220 C217 1.238 . S
O221 Co215 2.052 . S
O221 C217 1.241 . S
O222 Co210 2.137 . S
O222 C213 1.247 . S
O223 Co210 2.244 . S
O223 C213 1.272 . S
O223 Co215 2.135 . S
Co224 O225 2.216 . S
Co224 O226 2.091 . S
Co224 O228 2.004 . S
Co224 O234 2.021 . S
Co224 O236 2.137 . S
Co224 O237 2.244 . S
O225 Co224 2.216 . S
O225 C232 1.247 . S
O226 Co224 2.091 . S
O226 C232 1.261 . S
C227 O236 1.247 . S
C227 O237 1.272 . S
O228 Co224 2.004 . S
O228 C233 1.259 . S
Co229 O230 2.061 . S
Co229 O235 2.052 . S
Co229 O237 2.135 . S
O230 Co229 2.061 . S
O230 C233 1.235 . S
C231 O234 1.238 . S
C231 O235 1.241 . S
C232 O225 1.247 . S
C232 O226 1.261 . S
C233 O228 1.259 . S
C233 O230 1.235 . S
O234 Co224 2.021 . S
O234 C231 1.238 . S
O235 Co229 2.052 . S
O235 C231 1.241 . S
O236 Co224 2.137 . S
O236 C227 1.247 . S
O237 Co224 2.244 . S
O237 C227 1.272 . S
O237 Co229 2.135 . S
Co238 O239 2.216 . S
Co238 O240 2.091 . S
Co238 O242 2.004 . S
Co238 O248 2.021 . S
Co238 O250 2.137 . S
Co238 O251 2.244 . S
O239 Co238 2.216 . S
O239 C246 1.247 . S
O240 Co238 2.091 . S
O240 C246 1.261 . S
C241 O250 1.247 . S
C241 O251 1.272 . S
O242 Co238 2.004 . S
O242 C247 1.259 . S
Co243 O244 2.061 . S
Co243 O249 2.052 . S
Co243 O251 2.135 . S
O244 Co243 2.061 . S
O244 C247 1.235 . S
C245 O248 1.238 . S
C245 O249 1.241 . S
C246 O239 1.247 . S
C246 O240 1.261 . S
C247 O242 1.259 . S
C247 O244 1.235 . S
O248 Co238 2.021 . S
O248 C245 1.238 . S
O249 Co243 2.052 . S
O249 C245 1.241 . S
O250 Co238 2.137 . S
O250 C241 1.247 . S
O251 Co238 2.244 . S
O251 C241 1.272 . S
O251 Co243 2.135 . S
Co252 O253 2.216 . S
Co252 O254 2.091 . S
Co252 O256 2.004 . S
Co252 O262 2.021 . S
Co252 O264 2.137 . S
Co252 O265 2.244 . S
O253 Co252 2.216 . S
O253 C260 1.247 . S
O254 Co252 2.091 . S
O254 C260 1.261 . S
C255 O264 1.247 . S
C255 O265 1.272 . S
O256 Co252 2.004 . S
O256 C261 1.259 . S
Co257 O258 2.061 . S
Co257 O263 2.052 . S
Co257 O265 2.135 . S
O258 Co257 2.061 . S
O258 C261 1.235 . S
C259 O262 1.238 . S
C259 O263 1.241 . S
C260 O253 1.247 . S
C260 O254 1.261 . S
C261 O256 1.259 . S
C261 O258 1.235 . S
O262 Co252 2.021 . S
O262 C259 1.238 . S
O263 Co257 2.052 . S
O263 C259 1.241 . S
O264 Co252 2.137 . S
O264 C255 1.247 . S
O265 Co252 2.244 . S
O265 C255 1.272 . S
O265 Co257 2.135 . S
Co266 O267 2.216 . S
Co266 O268 2.091 . S
Co266 O270 2.004 . S
Co266 O276 2.021 . S
Co266 O278 2.137 . S
Co266 O279 2.244 . S
O267 Co266 2.216 . S
O267 C274 1.247 . S
O268 Co266 2.091 . S
O268 C274 1.261 . S
C269 O278 1.247 . S
C269 O279 1.272 . S
O270 Co266 2.004 . S
O270 C275 1.259 . S
Co271 O272 2.061 . S
Co271 O277 2.052 . S
Co271 O279 2.135 . S
O272 Co271 2.061 . S
O272 C275 1.235 . S
C273 O276 1.238 . S
C273 O277 1.241 . S
C274 O267 1.247 . S
C274 O268 1.261 . S
C275 O270 1.259 . S
C275 O272 1.235 . S
O276 Co266 2.021 . S
O276 C273 1.238 . S
O277 Co271 2.052 . S
O277 C273 1.241 . S
O278 Co266 2.137 . S
O278 C269 1.247 . S
O279 Co266 2.244 . S
O279 C269 1.272 . S
O279 Co271 2.135 . S
Co280 O281 2.216 . S
Co280 O282 2.091 . S
Co280 O284 2.004 . S
Co280 O290 2.021 . S
Co280 O292 2.137 . S
Co280 O293 2.244 . S
O281 Co280 2.216 . S
O281 C288 1.247 . S
O282 Co280 2.091 . S
O282 C288 1.261 . S
C283 O292 1.247 . S
C283 O293 1.272 . S
O284 Co280 2.004 . S
O284 C289 1.259 . S
Co285 O286 2.061 . S
Co285 O291 2.052 . S
Co285 O293 2.135 . S
O286 Co285 2.061 . S
O286 C289 1.235 . S
C287 O290 1.238 . S
C287 O291 1.241 . S
C288 O281 1.247 . S
C288 O282 1.261 . S
C289 O284 1.259 . S
C289 O286 1.235 . S
O290 Co280 2.021 . S
O290 C287 1.238 . S
O291 Co285 2.052 . S
O291 C287 1.241 . S
O292 Co280 2.137 . S
O292 C283 1.247 . S
O293 Co280 2.244 . S
O293 C283 1.272 . S
O293 Co285 2.135 . S
Co294 O295 2.216 . S
Co294 O296 2.091 . S
Co294 O298 2.004 . S
Co294 O304 2.021 . S
Co294 O306 2.137 . S
Co294 O307 2.244 . S
O295 Co294 2.216 . S
O295 C302 1.247 . S
O296 Co294 2.091 . S
O296 C302 1.261 . S
C297 O306 1.247 . S
C297 O307 1.272 . S
O298 Co294 2.004 . S
O298 C303 1.259 . S
Co299 O300 2.061 . S
Co299 O305 2.052 . S
Co299 O307 2.135 . S
O300 Co299 2.061 . S
O300 C303 1.235 . S
C301 O304 1.238 . S
C301 O305 1.241 . S
C302 O295 1.247 . S
C302 O296 1.261 . S
C303 O298 1.259 . S
C303 O300 1.235 . S
O304 Co294 2.021 . S
O304 C301 1.238 . S
O305 Co299 2.052 . S
O305 C301 1.241 . S
O306 Co294 2.137 . S
O306 C297 1.247 . S
O307 Co294 2.244 . S
O307 C297 1.272 . S
O307 Co299 2.135 . S
Co308 O309 2.216 . S
Co308 O310 2.091 . S
Co308 O312 2.004 . S
Co308 O318 2.021 . S
Co308 O320 2.137 . S
Co308 O321 2.244 . S
O309 Co308 2.216 . S
O309 C316 1.247 . S
O310 Co308 2.091 . S
O310 C316 1.261 . S
C311 O320 1.247 . S
C311 O321 1.272 . S
O312 Co308 2.004 . S
O312 C317 1.259 . S
Co313 O314 2.061 . S
Co313 O319 2.052 . S
Co313 O321 2.135 . S
O314 Co313 2.061 . S
O314 C317 1.235 . S
C315 O318 1.238 . S
C315 O319 1.241 . S
C316 O309 1.247 . S
C316 O310 1.261 . S
C317 O312 1.259 . S
C317 O314 1.235 . S
O318 Co308 2.021 . S
O318 C315 1.238 . S
O319 Co313 2.052 . S
O319 C315 1.241 . S
O320 Co308 2.137 . S
O320 C311 1.247 . S
O321 Co308 2.244 . S
O321 C311 1.272 . S
O321 Co313 2.135 . S
Co322 O323 2.216 . S
Co322 O324 2.091 . S
Co322 O326 2.004 . S
Co322 O332 2.021 . S
Co322 O334 2.137 . S
Co322 O335 2.244 . S
O323 Co322 2.216 . S
O323 C330 1.247 . S
O324 Co322 2.091 . S
O324 C330 1.261 . S
C325 O334 1.247 . S
C325 O335 1.272 . S
O326 Co322 2.004 . S
O326 C331 1.259 . S
Co327 O328 2.061 . S
Co327 O333 2.052 . S
Co327 O335 2.135 . S
O328 Co327 2.061 . S
O328 C331 1.235 . S
C329 O332 1.238 . S
C329 O333 1.241 . S
C330 O323 1.247 . S
C330 O324 1.261 . S
C331 O326 1.259 . S
C331 O328 1.235 . S
O332 Co322 2.021 . S
O332 C329 1.238 . S
O333 Co327 2.052 . S
O333 C329 1.241 . S
O334 Co322 2.137 . S
O334 C325 1.247 . S
O335 Co322 2.244 . S
O335 C325 1.272 . S
O335 Co327 2.135 . S
Co336 O337 2.216 . S
Co336 O338 2.091 . S
Co336 O340 2.004 . S
Co336 O346 2.021 . S
Co336 O348 2.137 . S
Co336 O349 2.244 . S
O337 Co336 2.216 . S
O337 C344 1.247 . S
O338 Co336 2.091 . S
O338 C344 1.261 . S
C339 O348 1.247 . S
C339 O349 1.272 . S
O340 Co336 2.004 . S
O340 C345 1.259 . S
Co341 O342 2.061 . S
Co341 O347 2.052 . S
Co341 O349 2.135 . S
O342 Co341 2.061 . S
O342 C345 1.235 . S
C343 O346 1.238 . S
C343 O347 1.241 . S
C344 O337 1.247 . S
C344 O338 1.261 . S
C345 O340 1.259 . S
C345 O342 1.235 . S
O346 Co336 2.021 . S
O346 C343 1.238 . S
O347 Co341 2.052 . S
O347 C343 1.241 . S
O348 Co336 2.137 . S
O348 C339 1.247 . S
O349 Co336 2.244 . S
O349 C339 1.272 . S
O349 Co341 2.135 . S
Co350 O351 2.216 . S
Co350 O352 2.091 . S
Co350 O354 2.004 . S
Co350 O360 2.021 . S
Co350 O362 2.137 . S
Co350 O363 2.244 . S
O351 Co350 2.216 . S
O351 C358 1.247 . S
O352 Co350 2.091 . S
O352 C358 1.261 . S
C353 O362 1.247 . S
C353 O363 1.272 . S
O354 Co350 2.004 . S
O354 C359 1.259 . S
Co355 O356 2.061 . S
Co355 O361 2.052 . S
Co355 O363 2.135 . S
O356 Co355 2.061 . S
O356 C359 1.235 . S
C357 O360 1.238 . S
C357 O361 1.241 . S
C358 O351 1.247 . S
C358 O352 1.261 . S
C359 O354 1.259 . S
C359 O356 1.235 . S
O360 Co350 2.021 . S
O360 C357 1.238 . S
O361 Co355 2.052 . S
O361 C357 1.241 . S
O362 Co350 2.137 . S
O362 C353 1.247 . S
O363 Co350 2.244 . S
O363 C353 1.272 . S
O363 Co355 2.135 . S
Co364 O365 2.216 . S
Co364 O366 2.091 . S
Co364 O368 2.004 . S
Co364 O374 2.021 . S
Co364 O376 2.137 . S
Co364 O377 2.244 . S
O365 Co364 2.216 . S
O365 C372 1.247 . S
O366 Co364 2.091 . S
O366 C372 1.261 . S
C367 O376 1.247 . S
C367 O377 1.272 . S
O368 Co364 2.004 . S
O368 C373 1.259 . S
Co369 O370 2.061 . S
Co369 O375 2.052 . S
Co369 O377 2.135 . S
O370 Co369 2.061 . S
O370 C373 1.235 . S
C371 O374 1.238 . S
C371 O375 1.241 . S
C372 O365 1.247 . S
C372 O366 1.261 . S
C373 O368 1.259 . S
C373 O370 1.235 . S
O374 Co364 2.021 . S
O374 C371 1.238 . S
O375 Co369 2.052 . S
O375 C371 1.241 . S
O376 Co364 2.137 . S
O376 C367 1.247 . S
O377 Co364 2.244 . S
O377 C367 1.272 . S
O377 Co369 2.135 . S
Co378 O379 2.216 . S
Co378 O380 2.091 . S
Co378 O382 2.004 . S
Co378 O388 2.021 . S
Co378 O390 2.137 . S
Co378 O391 2.244 . S
O379 Co378 2.216 . S
O379 C386 1.247 . S
O380 Co378 2.091 . S
O380 C386 1.261 . S
C381 O390 1.247 . S
C381 O391 1.272 . S
O382 Co378 2.004 . S
O382 C387 1.259 . S
Co383 O384 2.061 . S
Co383 O389 2.052 . S
Co383 O391 2.135 . S
O384 Co383 2.061 . S
O384 C387 1.235 . S
C385 O388 1.238 . S
C385 O389 1.241 . S
C386 O379 1.247 . S
C386 O380 1.261 . S
C387 O382 1.259 . S
C387 O384 1.235 . S
O388 Co378 2.021 . S
O388 C385 1.238 . S
O389 Co383 2.052 . S
O389 C385 1.241 . S
O390 Co378 2.137 . S
O390 C381 1.247 . S
O391 Co378 2.244 . S
O391 C381 1.272 . S
O391 Co383 2.135 . S
Co392 O393 2.216 . S
Co392 O394 2.091 . S
Co392 O396 2.004 . S
Co392 O402 2.021 . S
Co392 O404 2.137 . S
Co392 O405 2.244 . S
O393 Co392 2.216 . S
O393 C400 1.247 . S
O394 Co392 2.091 . S
O394 C400 1.261 . S
C395 O404 1.247 . S
C395 O405 1.272 . S
O396 Co392 2.004 . S
O396 C401 1.259 . S
Co397 O398 2.061 . S
Co397 O403 2.052 . S
Co397 O405 2.135 . S
O398 Co397 2.061 . S
O398 C401 1.235 . S
C399 O402 1.238 . S
C399 O403 1.241 . S
C400 O393 1.247 . S
C400 O394 1.261 . S
C401 O396 1.259 . S
C401 O398 1.235 . S
O402 Co392 2.021 . S
O402 C399 1.238 . S
O403 Co397 2.052 . S
O403 C399 1.241 . S
O404 Co392 2.137 . S
O404 C395 1.247 . S
O405 Co392 2.244 . S
O405 C395 1.272 . S
O405 Co397 2.135 . S
Co406 O407 2.216 . S
Co406 O408 2.091 . S
Co406 O410 2.004 . S
Co406 O416 2.021 . S
Co406 O418 2.137 . S
Co406 O419 2.244 . S
O407 Co406 2.216 . S
O407 C414 1.247 . S
O408 Co406 2.091 . S
O408 C414 1.261 . S
C409 O418 1.247 . S
C409 O419 1.272 . S
O410 Co406 2.004 . S
O410 C415 1.259 . S
Co411 O412 2.061 . S
Co411 O417 2.052 . S
Co411 O419 2.135 . S
O412 Co411 2.061 . S
O412 C415 1.235 . S
C413 O416 1.238 . S
C413 O417 1.241 . S
C414 O407 1.247 . S
C414 O408 1.261 . S
C415 O410 1.259 . S
C415 O412 1.235 . S
O416 Co406 2.021 . S
O416 C413 1.238 . S
O417 Co411 2.052 . S
O417 C413 1.241 . S
O418 Co406 2.137 . S
O418 C409 1.247 . S
O419 Co406 2.244 . S
O419 C409 1.272 . S
O419 Co411 2.135 . S
Co420 O421 2.216 . S
Co420 O422 2.091 . S
Co420 O424 2.004 . S
Co420 O430 2.021 . S
Co420 O432 2.137 . S
Co420 O433 2.244 . S
O421 Co420 2.216 . S
O421 C428 1.247 . S
O422 Co420 2.091 . S
O422 C428 1.261 . S
C423 O432 1.247 . S
C423 O433 1.272 . S
O424 Co420 2.004 . S
O424 C429 1.259 . S
Co425 O426 2.061 . S
Co425 O431 2.052 . S
Co425 O433 2.135 . S
O426 Co425 2.061 . S
O426 C429 1.235 . S
C427 O430 1.238 . S
C427 O431 1.241 . S
C428 O421 1.247 . S
C428 O422 1.261 . S
C429 O424 1.259 . S
C429 O426 1.235 . S
O430 Co420 2.021 . S
O430 C427 1.238 . S
O431 Co425 2.052 . S
O431 C427 1.241 . S
O432 Co420 2.137 . S
O432 C423 1.247 . S
O433 Co420 2.244 . S
O433 C423 1.272 . S
O433 Co425 2.135 . S
Co434 O435 2.216 . S
Co434 O436 2.091 . S
Co434 O438 2.004 . S
Co434 O444 2.021 . S
Co434 O446 2.137 . S
Co434 O447 2.244 . S
O435 Co434 2.216 . S
O435 C442 1.247 . S
O436 Co434 2.091 . S
O436 C442 1.261 . S
C437 O446 1.247 . S
C437 O447 1.272 . S
O438 Co434 2.004 . S
O438 C443 1.259 . S
Co439 O440 2.061 . S
Co439 O445 2.052 . S
Co439 O447 2.135 . S
O440 Co439 2.061 . S
O440 C443 1.235 . S
C441 O444 1.238 . S
C441 O445 1.241 . S
C442 O435 1.247 . S
C442 O436 1.261 . S
C443 O438 1.259 . S
C443 O440 1.235 . S
O444 Co434 2.021 . S
O444 C441 1.238 . S
O445 Co439 2.052 . S
O445 C441 1.241 . S
O446 Co434 2.137 . S
O446 C437 1.247 . S
O447 Co434 2.244 . S
O447 C437 1.272 . S
O447 Co439 2.135 . S
Co448 O449 2.216 . S
Co448 O450 2.091 . S
Co448 O452 2.004 . S
Co448 O458 2.021 . S
Co448 O460 2.137 . S
Co448 O461 2.244 . S
O449 Co448 2.216 . S
O449 C456 1.247 . S
O450 Co448 2.091 . S
O450 C456 1.261 . S
C451 O460 1.247 . S
C451 O461 1.272 . S
O452 Co448 2.004 . S
O452 C457 1.259 . S
Co453 O454 2.061 . S
Co453 O459 2.052 . S
Co453 O461 2.135 . S
O454 Co453 2.061 . S
O454 C457 1.235 . S
C455 O458 1.238 . S
C455 O459 1.241 . S
C456 O449 1.247 . S
C456 O450 1.261 . S
C457 O452 1.259 . S
C457 O454 1.235 . S
O458 Co448 2.021 . S
O458 C455 1.238 . S
O459 Co453 2.052 . S
O459 C455 1.241 . S
O460 Co448 2.137 . S
O460 C451 1.247 . S
O461 Co448 2.244 . S
O461 C451 1.272 . S
O461 Co453 2.135 . S
Co462 O463 2.216 . S
Co462 O464 2.091 . S
Co462 O466 2.004 . S
Co462 O472 2.021 . S
Co462 O474 2.137 . S
Co462 O475 2.244 . S
O463 Co462 2.216 . S
O463 C470 1.247 . S
O464 Co462 2.091 . S
O464 C470 1.261 . S
C465 O474 1.247 . S
C465 O475 1.272 . S
O466 Co462 2.004 . S
O466 C471 1.259 . S
Co467 O468 2.061 . S
Co467 O473 2.052 . S
Co467 O475 2.135 . S
O468 Co467 2.061 . S
O468 C471 1.235 . S
C469 O472 1.238 . S
C469 O473 1.241 . S
C470 O463 1.247 . S
C470 O464 1.261 . S
C471 O466 1.259 . S
C471 O468 1.235 . S
O472 Co462 2.021 . S
O472 C469 1.238 . S
O473 Co467 2.052 . S
O473 C469 1.241 . S
O474 Co462 2.137 . S
O474 C465 1.247 . S
O475 Co462 2.244 . S
O475 C465 1.272 . S
O475 Co467 2.135 . S
Co476 O477 2.216 . S
Co476 O478 2.091 . S
Co476 O480 2.004 . S
Co476 O486 2.021 . S
Co476 O488 2.137 . S
Co476 O489 2.244 . S
O477 Co476 2.216 . S
O477 C484 1.247 . S
O478 Co476 2.091 . S
O478 C484 1.261 . S
C479 O488 1.247 . S
C479 O489 1.272 . S
O480 Co476 2.004 . S
O480 C485 1.259 . S
Co481 O482 2.061 . S
Co481 O487 2.052 . S
Co481 O489 2.135 . S
O482 Co481 2.061 . S
O482 C485 1.235 . S
C483 O486 1.238 . S
C483 O487 1.241 . S
C484 O477 1.247 . S
C484 O478 1.261 . S
C485 O480 1.259 . S
C485 O482 1.235 . S
O486 Co476 2.021 . S
O486 C483 1.238 . S
O487 Co481 2.052 . S
O487 C483 1.241 . S
O488 Co476 2.137 . S
O488 C479 1.247 . S
O489 Co476 2.244 . S
O489 C479 1.272 . S
O489 Co481 2.135 . S
Co490 O491 2.216 . S
Co490 O492 2.091 . S
Co490 O494 2.004 . S
Co490 O500 2.021 . S
Co490 O502 2.137 . S
Co490 O503 2.244 . S
O491 Co490 2.216 . S
O491 C498 1.247 . S
O492 Co490 2.091 . S
O492 C498 1.261 . S
C493 O502 1.247 . S
C493 O503 1.272 . S
O494 Co490 2.004 . S
O494 C499 1.259 . S
Co495 O496 2.061 . S
Co495 O501 2.052 . S
Co495 O503 2.135 . S
O496 Co495 2.061 . S
O496 C499 1.235 . S
C497 O500 1.238 . S
C497 O501 1.241 . S
C498 O491 1.247 . S
C498 O492 1.261 . S
C499 O494 1.259 . S
C499 O496 1.235 . S
O500 Co490 2.021 . S
O500 C497 1.238 . S
O501 Co495 2.052 . S
O501 C497 1.241 . S
O502 Co490 2.137 . S
O502 C493 1.247 . S
O503 Co490 2.244 . S
O503 C493 1.272 . S
O503 Co495 2.135 . S
H504 C510 0.930 . S
H505 C514 0.930 . S
H506 C519 0.929 . S
H507 C517 0.929 . S
H508 C512 0.929 . S
H509 C518 0.929 . S
C510 H504 0.930 . S
C510 C511 1.367 . S
C510 C518 1.378 . S
C511 C510 1.367 . S
C511 C519 1.433 . S
C512 H508 0.929 . S
C512 C514 1.378 . S
C512 C516 1.350 . S
C513 C516 1.463 . S
C513 C518 1.350 . S
C513 N521 1.427 . S
C514 H505 0.930 . S
C514 C512 1.378 . S
C514 C515 1.367 . S
C515 C514 1.367 . S
C515 C517 1.433 . S
C516 C512 1.350 . S
C516 C513 1.463 . S
C516 N520 1.427 . S
C517 H507 0.929 . S
C517 C515 1.433 . S
C517 N520 1.384 . S
C518 H509 0.929 . S
C518 C510 1.378 . S
C518 C513 1.350 . S
C519 H506 0.929 . S
C519 C511 1.433 . S
C519 N521 1.384 . S
N520 C516 1.427 . S
N520 C517 1.384 . S
N521 C513 1.427 . S
N521 C519 1.384 . S
H522 C528 0.930 . S
H523 C532 0.930 . S
H524 C537 0.929 . S
H525 C535 0.929 . S
H526 C530 0.929 . S
H527 C536 0.929 . S
C528 H522 0.930 . S
C528 C529 1.367 . S
C528 C536 1.378 . S
C529 C528 1.367 . S
C529 C537 1.433 . S
C530 H526 0.929 . S
C530 C532 1.378 . S
C530 C534 1.350 . S
C531 C534 1.463 . S
C531 C536 1.350 . S
C531 N539 1.427 . S
C532 H523 0.930 . S
C532 C530 1.378 . S
C532 C533 1.367 . S
C533 C532 1.367 . S
C533 C535 1.433 . S
C534 C530 1.350 . S
C534 C531 1.463 . S
C534 N538 1.427 . S
C535 H525 0.929 . S
C535 C533 1.433 . S
C535 N538 1.384 . S
C536 H527 0.929 . S
C536 C528 1.378 . S
C536 C531 1.350 . S
C537 H524 0.929 . S
C537 C529 1.433 . S
C537 N539 1.384 . S
N538 C534 1.427 . S
N538 C535 1.384 . S
N539 C531 1.427 . S
N539 C537 1.384 . S
H540 C546 0.930 . S
H541 C550 0.930 . S
H542 C555 0.929 . S
H543 C553 0.929 . S
H544 C548 0.929 . S
H545 C554 0.929 . S
C546 H540 0.930 . S
C546 C547 1.367 . S
C546 C554 1.378 . S
C547 C546 1.367 . S
C547 C555 1.433 . S
C548 H544 0.929 . S
C548 C550 1.378 . S
C548 C552 1.350 . S
C549 C552 1.463 . S
C549 C554 1.350 . S
C549 N557 1.427 . S
C550 H541 0.930 . S
C550 C548 1.378 . S
C550 C551 1.367 . S
C551 C550 1.367 . S
C551 C553 1.433 . S
C552 C548 1.350 . S
C552 C549 1.463 . S
C552 N556 1.427 . S
C553 H543 0.929 . S
C553 C551 1.433 . S
C553 N556 1.384 . S
C554 H545 0.929 . S
C554 C546 1.378 . S
C554 C549 1.350 . S
C555 H542 0.929 . S
C555 C547 1.433 . S
C555 N557 1.384 . S
N556 C552 1.427 . S
N556 C553 1.384 . S
N557 C549 1.427 . S
N557 C555 1.384 . S
H558 C564 0.930 . S
H559 C568 0.930 . S
H560 C573 0.929 . S
H561 C571 0.929 . S
H562 C566 0.929 . S
H563 C572 0.929 . S
C564 H558 0.930 . S
C564 C565 1.367 . S
C564 C572 1.378 . S
C565 C564 1.367 . S
C565 C573 1.433 . S
C566 H562 0.929 . S
C566 C568 1.378 . S
C566 C570 1.350 . S
C567 C570 1.463 . S
C567 C572 1.350 . S
C567 N575 1.427 . S
C568 H559 0.930 . S
C568 C566 1.378 . S
C568 C569 1.367 . S
C569 C568 1.367 . S
C569 C571 1.433 . S
C570 C566 1.350 . S
C570 C567 1.463 . S
C570 N574 1.427 . S
C571 H561 0.929 . S
C571 C569 1.433 . S
C571 N574 1.384 . S
C572 H563 0.929 . S
C572 C564 1.378 . S
C572 C567 1.350 . S
C573 H560 0.929 . S
C573 C565 1.433 . S
C573 N575 1.384 . S
N574 C570 1.427 . S
N574 C571 1.384 . S
N575 C567 1.427 . S
N575 C573 1.384 . S
H576 C582 0.930 . S
H577 C586 0.930 . S
H578 C591 0.929 . S
H579 C589 0.929 . S
H580 C584 0.929 . S
H581 C590 0.929 . S
C582 H576 0.930 . S
C582 C583 1.367 . S
C582 C590 1.378 . S
C583 C582 1.367 . S
C583 C591 1.433 . S
C584 H580 0.929 . S
C584 C586 1.378 . S
C584 C588 1.350 . S
C585 C588 1.463 . S
C585 C590 1.350 . S
C585 N593 1.427 . S
C586 H577 0.930 . S
C586 C584 1.378 . S
C586 C587 1.367 . S
C587 C586 1.367 . S
C587 C589 1.433 . S
C588 C584 1.350 . S
C588 C585 1.463 . S
C588 N592 1.427 . S
C589 H579 0.929 . S
C589 C587 1.433 . S
C589 N592 1.384 . S
C590 H581 0.929 . S
C590 C582 1.378 . S
C590 C585 1.350 . S
C591 H578 0.929 . S
C591 C583 1.433 . S
C591 N593 1.384 . S
N592 C588 1.427 . S
N592 C589 1.384 . S
N593 C585 1.427 . S
N593 C591 1.384 . S
H594 C600 0.930 . S
H595 C604 0.930 . S
H596 C609 0.929 . S
H597 C607 0.929 . S
H598 C602 0.929 . S
H599 C608 0.929 . S
C600 H594 0.930 . S
C600 C601 1.367 . S
C600 C608 1.378 . S
C601 C600 1.367 . S
C601 C609 1.433 . S
C602 H598 0.929 . S
C602 C604 1.378 . S
C602 C606 1.350 . S
C603 C606 1.463 . S
C603 C608 1.350 . S
C603 N611 1.427 . S
C604 H595 0.930 . S
C604 C602 1.378 . S
C604 C605 1.367 . S
C605 C604 1.367 . S
C605 C607 1.433 . S
C606 C602 1.350 . S
C606 C603 1.463 . S
C606 N610 1.427 . S
C607 H597 0.929 . S
C607 C605 1.433 . S
C607 N610 1.384 . S
C608 H599 0.929 . S
C608 C600 1.378 . S
C608 C603 1.350 . S
C609 H596 0.929 . S
C609 C601 1.433 . S
C609 N611 1.384 . S
N610 C606 1.427 . S
N610 C607 1.384 . S
N611 C603 1.427 . S
N611 C609 1.384 . S
H612 C618 0.930 . S
H613 C622 0.930 . S
H614 C627 0.929 . S
H615 C625 0.929 . S
H616 C620 0.929 . S
H617 C626 0.929 . S
C618 H612 0.930 . S
C618 C619 1.367 . S
C618 C626 1.378 . S
C619 C618 1.367 . S
C619 C627 1.433 . S
C620 H616 0.929 . S
C620 C622 1.378 . S
C620 C624 1.350 . S
C621 C624 1.463 . S
C621 C626 1.350 . S
C621 N629 1.427 . S
C622 H613 0.930 . S
C622 C620 1.378 . S
C622 C623 1.367 . S
C623 C622 1.367 . S
C623 C625 1.433 . S
C624 C620 1.350 . S
C624 C621 1.463 . S
C624 N628 1.427 . S
C625 H615 0.929 . S
C625 C623 1.433 . S
C625 N628 1.384 . S
C626 H617 0.929 . S
C626 C618 1.378 . S
C626 C621 1.350 . S
C627 H614 0.929 . S
C627 C619 1.433 . S
C627 N629 1.384 . S
N628 C624 1.427 . S
N628 C625 1.384 . S
N629 C621 1.427 . S
N629 C627 1.384 . S
H630 C636 0.930 . S
H631 C640 0.930 . S
H632 C645 0.929 . S
H633 C643 0.929 . S
H634 C638 0.929 . S
H635 C644 0.929 . S
C636 H630 0.930 . S
C636 C637 1.367 . S
C636 C644 1.378 . S
C637 C636 1.367 . S
C637 C645 1.433 . S
C638 H634 0.929 . S
C638 C640 1.378 . S
C638 C642 1.350 . S
C639 C642 1.463 . S
C639 C644 1.350 . S
C639 N647 1.427 . S
C640 H631 0.930 . S
C640 C638 1.378 . S
C640 C641 1.367 . S
C641 C640 1.367 . S
C641 C643 1.433 . S
C642 C638 1.350 . S
C642 C639 1.463 . S
C642 N646 1.427 . S
C643 H633 0.929 . S
C643 C641 1.433 . S
C643 N646 1.384 . S
C644 H635 0.929 . S
C644 C636 1.378 . S
C644 C639 1.350 . S
C645 H632 0.929 . S
C645 C637 1.433 . S
C645 N647 1.384 . S
N646 C642 1.427 . S
N646 C643 1.384 . S
N647 C639 1.427 . S
N647 C645 1.384 . S
H648 C654 0.930 . S
H649 C658 0.930 . S
H650 C663 0.929 . S
H651 C661 0.929 . S
H652 C656 0.929 . S
H653 C662 0.929 . S
C654 H648 0.930 . S
C654 C655 1.367 . S
C654 C662 1.378 . S
C655 C654 1.367 . S
C655 C663 1.433 . S
C656 H652 0.929 . S
C656 C658 1.378 . S
C656 C660 1.350 . S
C657 C660 1.463 . S
C657 C662 1.350 . S
C657 N665 1.427 . S
C658 H649 0.930 . S
C658 C656 1.378 . S
C658 C659 1.367 . S
C659 C658 1.367 . S
C659 C661 1.433 . S
C660 C656 1.350 . S
C660 C657 1.463 . S
C660 N664 1.427 . S
C661 H651 0.929 . S
C661 C659 1.433 . S
C661 N664 1.384 . S
C662 H653 0.929 . S
C662 C654 1.378 . S
C662 C657 1.350 . S
C663 H650 0.929 . S
C663 C655 1.433 . S
C663 N665 1.384 . S
N664 C660 1.427 . S
N664 C661 1.384 . S
N665 C657 1.427 . S
N665 C663 1.384 . S
H666 C672 0.930 . S
H667 C676 0.930 . S
H668 C681 0.929 . S
H669 C679 0.929 . S
H670 C674 0.929 . S
H671 C680 0.929 . S
C672 H666 0.930 . S
C672 C673 1.367 . S
C672 C680 1.378 . S
C673 C672 1.367 . S
C673 C681 1.433 . S
C674 H670 0.929 . S
C674 C676 1.378 . S
C674 C678 1.350 . S
C675 C678 1.463 . S
C675 C680 1.350 . S
C675 N683 1.427 . S
C676 H667 0.930 . S
C676 C674 1.378 . S
C676 C677 1.367 . S
C677 C676 1.367 . S
C677 C679 1.433 . S
C678 C674 1.350 . S
C678 C675 1.463 . S
C678 N682 1.427 . S
C679 H669 0.929 . S
C679 C677 1.433 . S
C679 N682 1.384 . S
C680 H671 0.929 . S
C680 C672 1.378 . S
C680 C675 1.350 . S
C681 H668 0.929 . S
C681 C673 1.433 . S
C681 N683 1.384 . S
N682 C678 1.427 . S
N682 C679 1.384 . S
N683 C675 1.427 . S
N683 C681 1.384 . S
H684 C690 0.930 . S
H685 C694 0.930 . S
H686 C699 0.929 . S
H687 C697 0.929 . S
H688 C692 0.929 . S
H689 C698 0.929 . S
C690 H684 0.930 . S
C690 C691 1.367 . S
C690 C698 1.378 . S
C691 C690 1.367 . S
C691 C699 1.433 . S
C692 H688 0.929 . S
C692 C694 1.378 . S
C692 C696 1.350 . S
C693 C696 1.463 . S
C693 C698 1.350 . S
C693 N701 1.427 . S
C694 H685 0.930 . S
C694 C692 1.378 . S
C694 C695 1.367 . S
C695 C694 1.367 . S
C695 C697 1.433 . S
C696 C692 1.350 . S
C696 C693 1.463 . S
C696 N700 1.427 . S
C697 H687 0.929 . S
C697 C695 1.433 . S
C697 N700 1.384 . S
C698 H689 0.929 . S
C698 C690 1.378 . S
C698 C693 1.350 . S
C699 H686 0.929 . S
C699 C691 1.433 . S
C699 N701 1.384 . S
N700 C696 1.427 . S
N700 C697 1.384 . S
N701 C693 1.427 . S
N701 C699 1.384 . S
H702 C708 0.930 . S
H703 C712 0.930 . S
H704 C717 0.929 . S
H705 C715 0.929 . S
H706 C710 0.929 . S
H707 C716 0.929 . S
C708 H702 0.930 . S
C708 C709 1.367 . S
C708 C716 1.378 . S
C709 C708 1.367 . S
C709 C717 1.433 . S
C710 H706 0.929 . S
C710 C712 1.378 . S
C710 C714 1.350 . S
C711 C714 1.463 . S
C711 C716 1.350 . S
C711 N719 1.427 . S
C712 H703 0.930 . S
C712 C710 1.378 . S
C712 C713 1.367 . S
C713 C712 1.367 . S
C713 C715 1.433 . S
C714 C710 1.350 . S
C714 C711 1.463 . S
C714 N718 1.427 . S
C715 H705 0.929 . S
C715 C713 1.433 . S
C715 N718 1.384 . S
C716 H707 0.929 . S
C716 C708 1.378 . S
C716 C711 1.350 . S
C717 H704 0.929 . S
C717 C709 1.433 . S
C717 N719 1.384 . S
N718 C714 1.427 . S
N718 C715 1.384 . S
N719 C711 1.427 . S
N719 C717 1.384 . S
H720 C726 0.930 . S
H721 C730 0.930 . S
H722 C735 0.929 . S
H723 C733 0.929 . S
H724 C728 0.929 . S
H725 C734 0.929 . S
C726 H720 0.930 . S
C726 C727 1.367 . S
C726 C734 1.378 . S
C727 C726 1.367 . S
C727 C735 1.433 . S
C728 H724 0.929 . S
C728 C730 1.378 . S
C728 C732 1.350 . S
C729 C732 1.463 1_655 S
C729 C734 1.350 . S
C729 N737 1.427 . S
C730 H721 0.930 . S
C730 C728 1.378 . S
C730 C731 1.367 . S
C731 C730 1.367 . S
C731 C733 1.433 . S
C732 C728 1.350 . S
C732 C729 1.463 1_455 S
C732 N736 1.427 . S
C733 H723 0.929 . S
C733 C731 1.433 . S
C733 N736 1.384 . S
C734 H725 0.929 . S
C734 C726 1.378 . S
C734 C729 1.350 . S
C735 H722 0.929 . S
C735 C727 1.433 . S
C735 N737 1.384 . S
N736 C732 1.427 . S
N736 C733 1.384 . S
N737 C729 1.427 . S
N737 C735 1.384 . S
H738 C744 0.930 . S
H739 C748 0.930 . S
H740 C753 0.929 . S
H741 C751 0.929 . S
H742 C746 0.929 . S
H743 C752 0.929 . S
C744 H738 0.930 . S
C744 C745 1.367 . S
C744 C752 1.378 . S
C745 C744 1.367 . S
C745 C753 1.433 . S
C746 H742 0.929 . S
C746 C748 1.378 . S
C746 C750 1.350 . S
C747 C750 1.463 . S
C747 C752 1.350 . S
C747 N755 1.427 . S
C748 H739 0.930 . S
C748 C746 1.378 . S
C748 C749 1.367 . S
C749 C748 1.367 . S
C749 C751 1.433 . S
C750 C746 1.350 . S
C750 C747 1.463 . S
C750 N754 1.427 . S
C751 H741 0.929 . S
C751 C749 1.433 . S
C751 N754 1.384 . S
C752 H743 0.929 . S
C752 C744 1.378 . S
C752 C747 1.350 . S
C753 H740 0.929 . S
C753 C745 1.433 . S
C753 N755 1.384 . S
N754 C750 1.427 . S
N754 C751 1.384 . S
N755 C747 1.427 . S
N755 C753 1.384 . S
H756 C762 0.930 . S
H757 C766 0.930 . S
H758 C771 0.929 . S
H759 C769 0.929 . S
H760 C764 0.929 1_545 S
H761 C770 0.927 1_565 S
C762 H756 0.930 . S
C762 C763 1.367 . S
C762 C770 1.379 . S
C763 C762 1.367 . S
C763 C771 1.433 . S
C764 H760 0.929 1_565 S
C764 C766 1.378 . S
C764 C768 1.350 . S
C765 C768 1.463 1_545 S
C765 C770 1.350 . S
C765 N773 1.427 . S
C766 H757 0.930 . S
C766 C764 1.378 . S
C766 C767 1.367 . S
C767 C766 1.367 . S
C767 C769 1.433 . S
C768 C764 1.350 . S
C768 C765 1.463 1_565 S
C768 N772 1.427 . S
C769 H759 0.929 . S
C769 C767 1.433 . S
C769 N772 1.384 . S
C770 H761 0.927 1_545 S
C770 C762 1.379 . S
C770 C765 1.350 . S
C771 H758 0.929 . S
C771 C763 1.433 . S
C771 N773 1.384 . S
N772 C768 1.427 . S
N772 C769 1.384 . S
N773 C765 1.427 . S
N773 C771 1.384 . S
H774 C780 0.930 . S
H775 C784 0.930 . S
H776 C789 0.929 . S
H777 C787 0.929 . S
H778 C782 0.929 1_545 S
H779 C788 0.929 1_565 S
C780 H774 0.930 . S
C780 C781 1.367 . S
C780 C788 1.378 . S
C781 C780 1.367 . S
C781 C789 1.433 . S
C782 H778 0.929 1_565 S
C782 C784 1.378 . S
C782 C786 1.350 . S
C783 C786 1.463 1_546 S
C783 C788 1.350 . S
C783 N791 1.427 . S
C784 H775 0.930 . S
C784 C782 1.378 . S
C784 C785 1.367 . S
C785 C784 1.367 . S
C785 C787 1.433 . S
C786 C782 1.350 . S
C786 C783 1.463 1_564 S
C786 N790 1.427 . S
C787 H777 0.929 . S
C787 C785 1.433 . S
C787 N790 1.384 . S
C788 H779 0.929 1_545 S
C788 C780 1.378 . S
C788 C783 1.350 . S
C789 H776 0.929 . S
C789 C781 1.433 . S
C789 N791 1.384 . S
N790 C786 1.427 . S
N790 C787 1.384 . S
N791 C783 1.427 . S
N791 C789 1.384 . S
H792 C798 0.930 . S
H793 C802 0.930 . S
H794 C807 0.929 . S
H795 C805 0.929 . S
H796 C800 0.929 . S
H797 C806 0.929 1_455 S
C798 H792 0.930 . S
C798 C799 1.367 . S
C798 C806 1.378 . S
C799 C798 1.367 . S
C799 C807 1.433 . S
C800 H796 0.929 . S
C800 C802 1.378 1_655 S
C800 C804 1.350 1_655 S
C801 C804 1.463 1_656 S
C801 C806 1.350 . S
C801 N809 1.427 . S
C802 H793 0.930 . S
C802 C800 1.378 1_455 S
C802 C803 1.367 . S
C803 C802 1.367 . S
C803 C805 1.433 . S
C804 C800 1.350 1_455 S
C804 C801 1.463 1_454 S
C804 N808 1.427 . S
C805 H795 0.929 . S
C805 C803 1.433 . S
C805 N808 1.384 . S
C806 H797 0.929 1_655 S
C806 C798 1.378 . S
C806 C801 1.350 . S
C807 H794 0.929 . S
C807 C799 1.433 . S
C807 N809 1.384 . S
N808 C804 1.427 . S
N808 C805 1.384 . S
N809 C801 1.427 . S
N809 C807 1.384 . S
H810 C816 0.930 . S
H811 C820 0.930 . S
H812 C825 0.929 . S
H813 C823 0.929 . S
H814 C818 0.929 . S
H815 C824 0.929 . S
C816 H810 0.930 . S
C816 C817 1.367 . S
C816 C824 1.378 . S
C817 C816 1.367 . S
C817 C825 1.433 . S
C818 H814 0.929 . S
C818 C820 1.378 . S
C818 C822 1.350 . S
C819 C822 1.463 1_556 S
C819 C824 1.350 . S
C819 N827 1.427 1_556 S
C820 H811 0.930 . S
C820 C818 1.378 . S
C820 C821 1.367 . S
C821 C820 1.367 . S
C821 C823 1.433 . S
C822 C818 1.350 . S
C822 C819 1.463 1_554 S
C822 N826 1.427 . S
C823 H813 0.929 . S
C823 C821 1.433 . S
C823 N826 1.384 . S
C824 H815 0.929 . S
C824 C816 1.378 . S
C824 C819 1.350 . S
C825 H812 0.929 . S
C825 C817 1.433 . S
C825 N827 1.384 1_556 S
N826 C822 1.427 . S
N826 C823 1.384 . S
N827 C819 1.427 1_554 S
N827 C825 1.384 1_554 S
H828 C834 0.930 . S
H829 C838 0.930 . S
H830 C843 0.929 1_565 S
H831 C841 0.929 . S
H832 C836 0.929 . S
H833 C842 0.929 . S
C834 H828 0.930 . S
C834 C835 1.367 1_545 S
C834 C842 1.378 . S
C835 C834 1.367 1_565 S
C835 C843 1.433 1_565 S
C836 H832 0.929 . S
C836 C838 1.378 . S
C836 C840 1.350 1_554 S
C837 C840 1.463 . S
C837 C842 1.350 . S
C837 N845 1.427 . S
C838 H829 0.930 . S
C838 C836 1.378 . S
C838 C839 1.367 . S
C839 C838 1.367 . S
C839 C841 1.433 1_554 S
C840 C836 1.350 1_556 S
C840 C837 1.463 . S
C840 N844 1.427 . S
C841 H831 0.929 . S
C841 C839 1.433 1_556 S
C841 N844 1.384 . S
C842 H833 0.929 . S
C842 C834 1.378 . S
C842 C837 1.350 . S
C843 H830 0.929 1_545 S
C843 C835 1.433 1_545 S
C843 N845 1.384 . S
N844 C840 1.427 . S
N844 C841 1.384 . S
N845 C837 1.427 . S
N845 C843 1.384 . S
H846 C852 0.930 . S
H847 C856 0.930 . S
H848 C861 0.924 1_455 S
H849 C859 0.929 . S
H850 C854 0.929 . S
H851 C860 0.929 . S
C852 H846 0.930 . S
C852 C853 1.367 1_655 S
C852 C860 1.378 . S
C853 C852 1.367 1_455 S
C853 C861 1.433 1_455 S
C854 H850 0.929 . S
C854 C856 1.378 1_556 S
C854 C858 1.350 . S
C855 C858 1.463 . S
C855 C860 1.350 . S
C855 N863 1.427 . S
C856 H847 0.930 . S
C856 C854 1.378 1_554 S
C856 C857 1.367 . S
C857 C856 1.367 . S
C857 C859 1.433 . S
C858 C854 1.350 . S
C858 C855 1.463 . S
C858 N862 1.427 . S
C859 H849 0.929 . S
C859 C857 1.433 . S
C859 N862 1.384 1_554 S
C860 H851 0.929 . S
C860 C852 1.378 . S
C860 C855 1.350 . S
C861 H848 0.924 1_655 S
C861 C853 1.433 1_655 S
C861 N863 1.384 . S
N862 C858 1.427 . S
N862 C859 1.384 1_556 S
N863 C855 1.427 . S
N863 C861 1.384 . S
H864 C870 0.930 . S
H865 C874 0.930 . S
H866 C879 0.929 . S
H867 C877 0.929 . S
H868 C872 0.929 1_554 S
H869 C878 0.929 . S
C870 H864 0.930 . S
C870 C871 1.367 1_556 S
C870 C878 1.378 . S
C871 C870 1.367 1_554 S
C871 C879 1.433 . S
C872 H868 0.929 1_556 S
C872 C874 1.378 . S
C872 C876 1.350 . S
C873 C876 1.463 . S
C873 C878 1.350 . S
C873 N881 1.427 1_556 S
C874 H865 0.930 . S
C874 C872 1.378 . S
C874 C875 1.367 . S
C875 C874 1.367 . S
C875 C877 1.433 . S
C876 C872 1.350 . S
C876 C873 1.463 . S
C876 N880 1.427 . S
C877 H867 0.929 . S
C877 C875 1.433 . S
C877 N880 1.384 . S
C878 H869 0.929 . S
C878 C870 1.378 . S
C878 C873 1.350 . S
C879 H866 0.929 . S
C879 C871 1.433 . S
C879 N881 1.384 . S
N880 C876 1.427 . S
N880 C877 1.384 . S
N881 C873 1.427 1_554 S
N881 C879 1.384 . S
H882 C888 0.930 1_655 S
H883 C892 0.930 . S
H884 C897 0.929 . S
H885 C895 0.929 . S
H886 C890 0.929 . S
H887 C896 0.929 . S
C888 H882 0.930 1_455 S
C888 C889 1.367 1_455 S
C888 C896 1.378 . S
C889 C888 1.367 1_655 S
C889 C897 1.433 1_655 S
C890 H886 0.929 . S
C890 C892 1.378 . S
C890 C894 1.350 . S
C891 C894 1.463 . S
C891 C896 1.350 . S
C891 N899 1.427 . S
C892 H883 0.930 . S
C892 C890 1.378 . S
C892 C893 1.367 . S
C893 C892 1.367 . S
C893 C895 1.433 . S
C894 C890 1.350 . S
C894 C891 1.463 . S
C894 N898 1.427 . S
C895 H885 0.929 . S
C895 C893 1.433 . S
C895 N898 1.384 . S
C896 H887 0.929 . S
C896 C888 1.378 . S
C896 C891 1.350 . S
C897 H884 0.929 . S
C897 C889 1.433 1_455 S
C897 N899 1.384 . S
N898 C894 1.427 . S
N898 C895 1.384 . S
N899 C891 1.427 . S
N899 C897 1.384 . S
H900 C906 0.930 . S
H901 C910 0.930 . S
H902 C915 0.929 . S
H903 C913 0.929 . S
H904 C908 0.929 . S
H905 C914 0.929 . S
C906 H900 0.930 . S
C906 C907 1.367 . S
C906 C914 1.378 . S
C907 C906 1.367 . S
C907 C915 1.433 . S
C908 H904 0.929 . S
C908 C910 1.378 . S
C908 C912 1.350 . S
C909 C912 1.463 . S
C909 C914 1.350 . S
C909 N917 1.427 . S
C910 H901 0.930 . S
C910 C908 1.378 . S
C910 C911 1.367 . S
C911 C910 1.367 . S
C911 C913 1.433 . S
C912 C908 1.350 . S
C912 C909 1.463 . S
C912 N916 1.427 . S
C913 H903 0.929 . S
C913 C911 1.433 . S
C913 N916 1.384 . S
C914 H905 0.929 . S
C914 C906 1.378 . S
C914 C909 1.350 . S
C915 H902 0.929 . S
C915 C907 1.433 . S
C915 N917 1.384 . S
N916 C912 1.427 . S
N916 C913 1.384 . S
N917 C909 1.427 . S
N917 C915 1.384 . S
H918 C924 0.930 . S
H919 C928 0.930 . S
H920 C933 0.930 1_545 S
H921 C931 0.929 . S
H922 C926 0.929 . S
H923 C932 0.929 . S
C924 H918 0.930 . S
C924 C925 1.367 1_565 S
C924 C932 1.378 . S
C925 C924 1.367 1_545 S
C925 C933 1.434 1_545 S
C926 H922 0.929 . S
C926 C928 1.378 . S
C926 C930 1.350 . S
C927 C930 1.463 . S
C927 C932 1.350 . S
C927 N935 1.427 . S
C928 H919 0.930 . S
C928 C926 1.378 . S
C928 C929 1.367 . S
C929 C928 1.367 . S
C929 C931 1.433 . S
C930 C926 1.350 . S
C930 C927 1.463 . S
C930 N934 1.427 . S
C931 H921 0.929 . S
C931 C929 1.433 . S
C931 N934 1.384 . S
C932 H923 0.929 . S
C932 C924 1.378 . S
C932 C927 1.350 . S
C933 H920 0.930 1_565 S
C933 C925 1.434 1_565 S
C933 N935 1.381 . S
N934 C930 1.427 . S
N934 C931 1.384 . S
N935 C927 1.427 . S
N935 C933 1.381 . S
H936 C942 0.930 . S
H937 C946 0.930 . S
H938 C951 0.929 . S
H939 C949 0.929 . S
H940 C944 0.929 1_556 S
H941 C950 0.929 . S
C942 H936 0.930 . S
C942 C943 1.367 . S
C942 C950 1.378 1_556 S
C943 C942 1.367 . S
C943 C951 1.433 . S
C944 H940 0.929 1_554 S
C944 C946 1.378 1_565 S
C944 C948 1.350 . S
C945 C948 1.463 1_556 S
C945 C950 1.350 1_556 S
C945 N953 1.427 . S
C946 H937 0.930 . S
C946 C944 1.378 1_545 S
C946 C947 1.367 . S
C947 C946 1.367 . S
C947 C949 1.433 1_545 S
C948 C944 1.350 . S
C948 C945 1.463 1_554 S
C948 N952 1.427 . S
C949 H939 0.929 . S
C949 C947 1.433 1_565 S
C949 N952 1.384 . S
C950 H941 0.929 . S
C950 C942 1.378 1_554 S
C950 C945 1.350 1_554 S
C951 H938 0.929 . S
C951 C943 1.433 . S
C951 N953 1.384 . S
N952 C948 1.427 . S
N952 C949 1.384 . S
N953 C945 1.427 . S
N953 C951 1.384 . S
H954 C960 0.930 . S
H955 C964 0.930 . S
H956 C969 0.929 . S
H957 C967 0.929 1_655 S
H958 C962 0.929 . S
H959 C968 0.929 . S
C960 H954 0.930 . S
C960 C961 1.367 . S
C960 C968 1.378 . S
C961 C960 1.367 . S
C961 C969 1.433 . S
C962 H958 0.929 . S
C962 C964 1.378 . S
C962 C966 1.350 . S
C963 C966 1.488 . S
C963 C968 1.337 1_554 S
C963 N971 1.418 1_554 S
C964 H955 0.930 . S
C964 C962 1.378 . S
C964 C965 1.367 1_455 S
C965 C964 1.367 1_655 S
C965 C967 1.433 1_655 S
C966 C962 1.350 . S
C966 C963 1.488 . S
C966 N970 1.427 . S
C967 H957 0.929 1_455 S
C967 C965 1.433 1_455 S
C967 N970 1.384 . S
C968 H959 0.929 . S
C968 C960 1.378 . S
C968 C963 1.337 1_556 S
C969 H956 0.929 . S
C969 C961 1.433 . S
C969 N971 1.384 . S
N970 C966 1.427 . S
N970 C967 1.384 . S
N971 C963 1.418 1_556 S
N971 C969 1.384 . S
H972 C978 0.930 . S
H973 C982 0.930 . S
H974 C987 0.929 . S
H975 C985 0.929 . S
H976 C980 0.929 . S
H977 C986 0.929 . S
C978 H972 0.930 . S
C978 C979 1.367 . S
C978 C986 1.378 1_556 S
C979 C978 1.367 . S
C979 C987 1.433 . S
C980 H976 0.929 . S
C980 C982 1.378 1_556 S
C980 C984 1.350 1_556 S
C981 C984 1.463 1_556 S
C981 C986 1.350 1_556 S
C981 N989 1.427 . S
C982 H973 0.930 . S
C982 C980 1.378 1_554 S
C982 C983 1.367 . S
C983 C982 1.367 . S
C983 C985 1.433 . S
C984 C980 1.350 1_554 S
C984 C981 1.463 1_554 S
C984 N988 1.427 . S
C985 H975 0.929 . S
C985 C983 1.433 . S
C985 N988 1.384 . S
C986 H977 0.929 . S
C986 C978 1.378 1_554 S
C986 C981 1.350 1_554 S
C987 H974 0.929 . S
C987 C979 1.433 . S
C987 N989 1.384 . S
N988 C984 1.427 . S
N988 C985 1.384 . S
N989 C981 1.427 . S
N989 C987 1.384 . S
H990 C996 0.930 . S
H991 C1000 0.930 . S
H992 C1005 0.929 . S
H993 C1003 0.929 . S
H994 C998 0.929 . S
H995 C1004 0.929 . S
C996 H990 0.930 . S
C996 C997 1.367 . S
C996 C1004 1.378 . S
C997 C996 1.367 . S
C997 C1005 1.433 . S
C998 H994 0.929 . S
C998 C1000 1.378 . S
C998 C1002 1.350 . S
C999 C1002 1.463 . S
C999 C1004 1.350 . S
C999 N1007 1.427 . S
C1000 H991 0.930 . S
C1000 C998 1.378 . S
C1000 C1001 1.367 1_655 S
C1001 C1000 1.367 1_455 S
C1001 C1003 1.433 . S
C1002 C998 1.350 . S
C1002 C999 1.463 . S
C1002 N1006 1.427 . S
C1003 H993 0.929 . S
C1003 C1001 1.433 . S
C1003 N1006 1.384 1_455 S
C1004 H995 0.929 . S
C1004 C996 1.378 . S
C1004 C999 1.350 . S
C1005 H992 0.929 . S
C1005 C997 1.433 . S
C1005 N1007 1.384 . S
N1006 C1002 1.427 . S
N1006 C1003 1.384 1_655 S
N1007 C999 1.427 . S
N1007 C1005 1.384 . S
H1008 C1014 0.930 . S
H1009 C1018 0.930 . S
H1010 C1023 0.929 . S
H1011 C1021 0.929 . S
H1012 C1016 0.929 . S
H1013 C1022 0.929 . S
C1014 H1008 0.930 . S
C1014 C1015 1.367 . S
C1014 C1022 1.378 . S
C1015 C1014 1.367 . S
C1015 C1023 1.433 . S
C1016 H1012 0.929 . S
C1016 C1018 1.378 . S
C1016 C1020 1.350 . S
C1017 C1020 1.463 . S
C1017 C1022 1.350 . S
C1017 N1025 1.427 . S
C1018 H1009 0.930 . S
C1018 C1016 1.378 . S
C1018 C1019 1.367 . S
C1019 C1018 1.367 . S
C1019 C1021 1.433 . S
C1020 C1016 1.350 . S
C1020 C1017 1.463 . S
C1020 N1024 1.427 . S
C1021 H1011 0.929 . S
C1021 C1019 1.433 . S
C1021 N1024 1.384 . S
C1022 H1013 0.929 . S
C1022 C1014 1.378 . S
C1022 C1017 1.350 . S
C1023 H1010 0.929 . S
C1023 C1015 1.433 . S
C1023 N1025 1.384 . S
N1024 C1020 1.427 . S
N1024 C1021 1.384 . S
N1025 C1017 1.427 . S
N1025 C1023 1.384 . S
H1026 C1032 0.930 . S
H1027 C1036 0.930 . S
H1028 C1041 0.929 . S
H1029 C1039 0.929 . S
H1030 C1034 0.929 . S
H1031 C1040 0.929 . S
C1032 H1026 0.930 . S
C1032 C1033 1.367 . S
C1032 C1040 1.378 1_565 S
C1033 C1032 1.367 . S
C1033 C1041 1.433 1_565 S
C1034 H1030 0.929 . S
C1034 C1036 1.378 . S
C1034 C1038 1.350 . S
C1035 C1038 1.463 . S
C1035 C1040 1.350 . S
C1035 N1043 1.427 . S
C1036 H1027 0.930 . S
C1036 C1034 1.378 . S
C1036 C1037 1.367 . S
C1037 C1036 1.367 . S
C1037 C1039 1.433 . S
C1038 C1034 1.350 . S
C1038 C1035 1.463 . S
C1038 N1042 1.427 . S
C1039 H1029 0.929 . S
C1039 C1037 1.433 . S
C1039 N1042 1.384 . S
C1040 H1031 0.929 . S
C1040 C1032 1.378 1_545 S
C1040 C1035 1.350 . S
C1041 H1028 0.929 . S
C1041 C1033 1.433 1_545 S
C1041 N1043 1.384 . S
N1042 C1038 1.427 . S
N1042 C1039 1.384 . S
N1043 C1035 1.427 . S
N1043 C1041 1.384 . S
H1044 C1050 0.930 . S
H1045 C1054 0.930 . S
H1046 C1059 0.929 . S
H1047 C1057 0.929 . S
H1048 C1052 0.929 . S
H1049 C1058 0.929 . S
C1050 H1044 0.930 . S
C1050 C1051 1.367 . S
C1050 C1058 1.378 . S
C1051 C1050 1.367 . S
C1051 C1059 1.433 . S
C1052 H1048 0.929 . S
C1052 C1054 1.378 . S
C1052 C1056 1.350 . S
C1053 C1056 1.463 . S
C1053 C1058 1.350 . S
C1053 N1061 1.427 . S
C1054 H1045 0.930 . S
C1054 C1052 1.378 . S
C1054 C1055 1.367 . S
C1055 C1054 1.367 . S
C1055 C1057 1.433 . S
C1056 C1052 1.350 . S
C1056 C1053 1.463 . S
C1056 N1060 1.427 . S
C1057 H1047 0.929 . S
C1057 C1055 1.433 . S
C1057 N1060 1.384 . S
C1058 H1049 0.929 . S
C1058 C1050 1.378 . S
C1058 C1053 1.350 . S
C1059 H1046 0.929 . S
C1059 C1051 1.433 . S
C1059 N1061 1.384 . S
N1060 C1056 1.427 . S
N1060 C1057 1.384 . S
N1061 C1053 1.427 . S
N1061 C1059 1.384 . S
H1062 C1068 0.930 . S
H1063 C1072 0.930 . S
H1064 C1077 0.929 . S
H1065 C1075 0.929 . S
H1066 C1070 0.929 . S
H1067 C1076 0.929 . S
C1068 H1062 0.930 . S
C1068 C1069 1.367 . S
C1068 C1076 1.378 . S
C1069 C1068 1.367 . S
C1069 C1077 1.433 . S
C1070 H1066 0.929 . S
C1070 C1072 1.378 . S
C1070 C1074 1.350 . S
C1071 C1074 1.463 . S
C1071 C1076 1.350 . S
C1071 N1079 1.427 . S
C1072 H1063 0.930 . S
C1072 C1070 1.378 . S
C1072 C1073 1.367 . S
C1073 C1072 1.367 . S
C1073 C1075 1.433 . S
C1074 C1070 1.350 . S
C1074 C1071 1.463 . S
C1074 N1078 1.427 . S
C1075 H1065 0.929 . S
C1075 C1073 1.433 . S
C1075 N1078 1.384 . S
C1076 H1067 0.929 . S
C1076 C1068 1.378 . S
C1076 C1071 1.350 . S
C1077 H1064 0.929 . S
C1077 C1069 1.433 . S
C1077 N1079 1.384 . S
N1078 C1074 1.427 . S
N1078 C1075 1.384 . S
N1079 C1071 1.427 . S
N1079 C1077 1.384 . S
H1080 C1086 0.930 . S
H1081 C1090 0.930 . S
H1082 C1095 0.929 . S
H1083 C1093 0.929 . S
H1084 C1088 0.929 . S
H1085 C1094 0.929 . S
C1086 H1080 0.930 . S
C1086 C1087 1.367 . S
C1086 C1094 1.378 . S
C1087 C1086 1.367 . S
C1087 C1095 1.433 . S
C1088 H1084 0.929 . S
C1088 C1090 1.378 . S
C1088 C1092 1.350 . S
C1089 C1092 1.463 . S
C1089 C1094 1.350 . S
C1089 N1097 1.427 . S
C1090 H1081 0.930 . S
C1090 C1088 1.378 . S
C1090 C1091 1.367 . S
C1091 C1090 1.367 . S
C1091 C1093 1.433 . S
C1092 C1088 1.350 . S
C1092 C1089 1.463 . S
C1092 N1096 1.427 . S
C1093 H1083 0.929 . S
C1093 C1091 1.433 . S
C1093 N1096 1.384 . S
C1094 H1085 0.929 . S
C1094 C1086 1.378 . S
C1094 C1089 1.350 . S
C1095 H1082 0.929 . S
C1095 C1087 1.433 . S
C1095 N1097 1.384 . S
N1096 C1092 1.427 . S
N1096 C1093 1.384 . S
N1097 C1089 1.427 . S
N1097 C1095 1.384 . S
H1098 C1104 0.930 . S
H1099 C1108 0.930 . S
H1100 C1113 0.929 . S
H1101 C1111 0.929 . S
H1102 C1106 0.929 . S
H1103 C1112 0.929 . S
C1104 H1098 0.930 . S
C1104 C1105 1.367 . S
C1104 C1112 1.378 . S
C1105 C1104 1.367 . S
C1105 C1113 1.433 . S
C1106 H1102 0.929 . S
C1106 C1108 1.378 . S
C1106 C1110 1.350 . S
C1107 C1110 1.463 . S
C1107 C1112 1.350 . S
C1107 N1115 1.427 . S
C1108 H1099 0.930 . S
C1108 C1106 1.378 . S
C1108 C1109 1.367 . S
C1109 C1108 1.367 . S
C1109 C1111 1.433 . S
C1110 C1106 1.350 . S
C1110 C1107 1.463 . S
C1110 N1114 1.427 . S
C1111 H1101 0.929 . S
C1111 C1109 1.433 . S
C1111 N1114 1.384 . S
C1112 H1103 0.929 . S
C1112 C1104 1.378 . S
C1112 C1107 1.350 . S
C1113 H1100 0.929 . S
C1113 C1105 1.433 . S
C1113 N1115 1.384 . S
N1114 C1110 1.427 . S
N1114 C1111 1.384 . S
N1115 C1107 1.427 . S
N1115 C1113 1.384 . S
H1116 C1122 0.930 . S
H1117 C1126 0.930 . S
H1118 C1131 0.929 . S
H1119 C1129 0.929 . S
H1120 C1124 0.929 . S
H1121 C1130 0.929 . S
C1122 H1116 0.930 . S
C1122 C1123 1.367 . S
C1122 C1130 1.378 . S
C1123 C1122 1.367 . S
C1123 C1131 1.433 . S
C1124 H1120 0.929 . S
C1124 C1126 1.378 . S
C1124 C1128 1.350 . S
C1125 C1128 1.463 . S
C1125 C1130 1.350 . S
C1125 N1133 1.427 . S
C1126 H1117 0.930 . S
C1126 C1124 1.378 . S
C1126 C1127 1.367 . S
C1127 C1126 1.367 . S
C1127 C1129 1.433 . S
C1128 C1124 1.350 . S
C1128 C1125 1.463 . S
C1128 N1132 1.427 . S
C1129 H1119 0.929 . S
C1129 C1127 1.433 . S
C1129 N1132 1.384 . S
C1130 H1121 0.929 . S
C1130 C1122 1.378 . S
C1130 C1125 1.350 . S
C1131 H1118 0.929 . S
C1131 C1123 1.433 . S
C1131 N1133 1.384 . S
N1132 C1128 1.427 . S
N1132 C1129 1.384 . S
N1133 C1125 1.427 . S
N1133 C1131 1.384 . S
H1134 C1140 0.930 . S
H1135 C1144 0.930 . S
H1136 C1149 0.929 . S
H1137 C1147 0.929 . S
H1138 C1142 0.929 . S
H1139 C1148 0.929 . S
C1140 H1134 0.930 . S
C1140 C1141 1.367 . S
C1140 C1148 1.378 . S
C1141 C1140 1.367 . S
C1141 C1149 1.433 . S
C1142 H1138 0.929 . S
C1142 C1144 1.378 . S
C1142 C1146 1.350 . S
C1143 C1146 1.463 . S
C1143 C1148 1.350 . S
C1143 N1151 1.427 . S
C1144 H1135 0.930 . S
C1144 C1142 1.378 . S
C1144 C1145 1.367 . S
C1145 C1144 1.367 . S
C1145 C1147 1.433 . S
C1146 C1142 1.350 . S
C1146 C1143 1.463 . S
C1146 N1150 1.427 . S
C1147 H1137 0.929 . S
C1147 C1145 1.433 . S
C1147 N1150 1.384 . S
C1148 H1139 0.929 . S
C1148 C1140 1.378 . S
C1148 C1143 1.350 . S
C1149 H1136 0.929 . S
C1149 C1141 1.433 . S
C1149 N1151 1.384 . S
N1150 C1146 1.427 . S
N1150 C1147 1.384 . S
N1151 C1143 1.427 . S
N1151 C1149 1.384 . S
H1152 C1158 0.930 . S
H1153 C1162 0.930 . S
H1154 C1167 0.929 . S
H1155 C1165 0.929 . S
H1156 C1160 0.929 . S
H1157 C1166 0.929 . S
C1158 H1152 0.930 . S
C1158 C1159 1.367 . S
C1158 C1166 1.378 . S
C1159 C1158 1.367 . S
C1159 C1167 1.433 . S
C1160 H1156 0.929 . S
C1160 C1162 1.378 . S
C1160 C1164 1.350 . S
C1161 C1164 1.463 . S
C1161 C1166 1.350 . S
C1161 N1169 1.427 . S
C1162 H1153 0.930 . S
C1162 C1160 1.378 . S
C1162 C1163 1.367 . S
C1163 C1162 1.367 . S
C1163 C1165 1.433 . S
C1164 C1160 1.350 . S
C1164 C1161 1.463 . S
C1164 N1168 1.427 . S
C1165 H1155 0.929 . S
C1165 C1163 1.433 . S
C1165 N1168 1.384 . S
C1166 H1157 0.929 . S
C1166 C1158 1.378 . S
C1166 C1161 1.350 . S
C1167 H1154 0.929 . S
C1167 C1159 1.433 . S
C1167 N1169 1.384 . S
N1168 C1164 1.427 . S
N1168 C1165 1.384 . S
N1169 C1161 1.427 . S
N1169 C1167 1.384 . S
H1170 C1176 0.930 . S
H1171 C1180 0.930 . S
H1172 C1185 0.929 . S
H1173 C1183 0.929 . S
H1174 C1178 0.929 . S
H1175 C1184 0.929 . S
C1176 H1170 0.930 . S
C1176 C1177 1.367 . S
C1176 C1184 1.378 . S
C1177 C1176 1.367 . S
C1177 C1185 1.433 . S
C1178 H1174 0.929 . S
C1178 C1180 1.378 . S
C1178 C1182 1.350 . S
C1179 C1182 1.463 . S
C1179 C1184 1.350 . S
C1179 N1187 1.427 . S
C1180 H1171 0.930 . S
C1180 C1178 1.378 . S
C1180 C1181 1.367 . S
C1181 C1180 1.367 . S
C1181 C1183 1.433 . S
C1182 C1178 1.350 . S
C1182 C1179 1.463 . S
C1182 N1186 1.427 . S
C1183 H1173 0.929 . S
C1183 C1181 1.433 . S
C1183 N1186 1.384 . S
C1184 H1175 0.929 . S
C1184 C1176 1.378 . S
C1184 C1179 1.350 . S
C1185 H1172 0.929 . S
C1185 C1177 1.433 . S
C1185 N1187 1.384 . S
N1186 C1182 1.427 . S
N1186 C1183 1.384 . S
N1187 C1179 1.427 . S
N1187 C1185 1.384 . S
H1188 C1194 0.930 . S
H1189 C1198 0.930 . S
H1190 C1203 0.929 . S
H1191 C1201 0.929 . S
H1192 C1196 0.929 . S
H1193 C1202 0.929 . S
C1194 H1188 0.930 . S
C1194 C1195 1.367 . S
C1194 C1202 1.378 . S
C1195 C1194 1.367 . S
C1195 C1203 1.433 . S
C1196 H1192 0.929 . S
C1196 C1198 1.378 . S
C1196 C1200 1.350 . S
C1197 C1200 1.463 . S
C1197 C1202 1.350 . S
C1197 N1205 1.427 . S
C1198 H1189 0.930 . S
C1198 C1196 1.378 . S
C1198 C1199 1.367 . S
C1199 C1198 1.367 . S
C1199 C1201 1.433 . S
C1200 C1196 1.350 . S
C1200 C1197 1.463 . S
C1200 N1204 1.427 . S
C1201 H1191 0.929 . S
C1201 C1199 1.433 . S
C1201 N1204 1.384 . S
C1202 H1193 0.929 . S
C1202 C1194 1.378 . S
C1202 C1197 1.350 . S
C1203 H1190 0.929 . S
C1203 C1195 1.433 . S
C1203 N1205 1.384 . S
N1204 C1200 1.427 . S
N1204 C1201 1.384 . S
N1205 C1197 1.427 . S
N1205 C1203 1.384 . S
H1206 C1212 0.930 . S
H1207 C1216 0.930 . S
H1208 C1221 0.929 . S
H1209 C1219 0.929 . S
H1210 C1214 0.929 . S
H1211 C1220 0.929 . S
C1212 H1206 0.930 . S
C1212 C1213 1.367 . S
C1212 C1220 1.378 . S
C1213 C1212 1.367 . S
C1213 C1221 1.433 . S
C1214 H1210 0.929 . S
C1214 C1216 1.378 . S
C1214 C1218 1.350 . S
C1215 C1218 1.463 . S
C1215 C1220 1.350 . S
C1215 N1223 1.427 . S
C1216 H1207 0.930 . S
C1216 C1214 1.378 . S
C1216 C1217 1.367 . S
C1217 C1216 1.367 . S
C1217 C1219 1.433 . S
C1218 C1214 1.350 . S
C1218 C1215 1.463 . S
C1218 N1222 1.427 . S
C1219 H1209 0.929 . S
C1219 C1217 1.433 . S
C1219 N1222 1.384 . S
C1220 H1211 0.929 . S
C1220 C1212 1.378 . S
C1220 C1215 1.350 . S
C1221 H1208 0.929 . S
C1221 C1213 1.433 . S
C1221 N1223 1.384 . S
N1222 C1218 1.427 . S
N1222 C1219 1.384 . S
N1223 C1215 1.427 . S
N1223 C1221 1.384 . S
H1224 C1230 0.930 . S
H1225 C1234 0.930 . S
H1226 C1239 0.929 . S
H1227 C1237 0.929 . S
H1228 C1232 0.929 . S
H1229 C1238 0.929 . S
C1230 H1224 0.930 . S
C1230 C1231 1.367 . S
C1230 C1238 1.378 . S
C1231 C1230 1.367 . S
C1231 C1239 1.433 . S
C1232 H1228 0.929 . S
C1232 C1234 1.378 . S
C1232 C1236 1.350 . S
C1233 C1236 1.463 . S
C1233 C1238 1.350 . S
C1233 N1241 1.427 . S
C1234 H1225 0.930 . S
C1234 C1232 1.378 . S
C1234 C1235 1.367 . S
C1235 C1234 1.367 . S
C1235 C1237 1.433 . S
C1236 C1232 1.350 . S
C1236 C1233 1.463 . S
C1236 N1240 1.427 . S
C1237 H1227 0.929 . S
C1237 C1235 1.433 . S
C1237 N1240 1.384 . S
C1238 H1229 0.929 . S
C1238 C1230 1.378 . S
C1238 C1233 1.350 . S
C1239 H1226 0.929 . S
C1239 C1231 1.433 . S
C1239 N1241 1.384 . S
N1240 C1236 1.427 . S
N1240 C1237 1.384 . S
N1241 C1233 1.427 . S
N1241 C1239 1.384 . S
H1242 C1248 0.930 . S
H1243 C1252 0.930 . S
H1244 C1257 0.929 . S
H1245 C1255 0.929 . S
H1246 C1250 0.929 . S
H1247 C1256 0.929 . S
C1248 H1242 0.930 . S
C1248 C1249 1.367 . S
C1248 C1256 1.378 . S
C1249 C1248 1.367 . S
C1249 C1257 1.433 . S
C1250 H1246 0.929 . S
C1250 C1252 1.378 . S
C1250 C1254 1.350 . S
C1251 C1254 1.463 . S
C1251 C1256 1.350 . S
C1251 N1259 1.427 . S
C1252 H1243 0.930 . S
C1252 C1250 1.378 . S
C1252 C1253 1.367 . S
C1253 C1252 1.367 . S
C1253 C1255 1.433 . S
C1254 C1250 1.350 . S
C1254 C1251 1.463 . S
C1254 N1258 1.427 . S
C1255 H1245 0.929 . S
C1255 C1253 1.433 . S
C1255 N1258 1.384 . S
C1256 H1247 0.929 . S
C1256 C1248 1.378 . S
C1256 C1251 1.350 . S
C1257 H1244 0.929 . S
C1257 C1249 1.433 . S
C1257 N1259 1.384 . S
N1258 C1254 1.427 . S
N1258 C1255 1.384 . S
N1259 C1251 1.427 . S
N1259 C1257 1.384 . S
H1260 C1266 0.930 . S
H1261 C1270 0.930 . S
H1262 C1275 0.929 . S
H1263 C1273 0.929 . S
H1264 C1268 0.929 . S
H1265 C1274 0.929 . S
C1266 H1260 0.930 . S
C1266 C1267 1.367 . S
C1266 C1274 1.378 . S
C1267 C1266 1.367 . S
C1267 C1275 1.433 . S
C1268 H1264 0.929 . S
C1268 C1270 1.378 . S
C1268 C1272 1.350 . S
C1269 C1272 1.463 . S
C1269 C1274 1.350 . S
C1269 N1277 1.427 . S
C1270 H1261 0.930 . S
C1270 C1268 1.378 . S
C1270 C1271 1.367 . S
C1271 C1270 1.367 . S
C1271 C1273 1.433 . S
C1272 C1268 1.350 . S
C1272 C1269 1.463 . S
C1272 N1276 1.427 . S
C1273 H1263 0.929 . S
C1273 C1271 1.433 . S
C1273 N1276 1.384 . S
C1274 H1265 0.929 . S
C1274 C1266 1.378 . S
C1274 C1269 1.350 . S
C1275 H1262 0.929 . S
C1275 C1267 1.433 . S
C1275 N1277 1.384 . S
N1276 C1272 1.427 . S
N1276 C1273 1.384 . S
N1277 C1269 1.427 . S
N1277 C1275 1.384 . S
H1278 C1284 0.930 . S
H1279 C1288 0.930 . S
H1280 C1293 0.929 . S
H1281 C1291 0.929 . S
H1282 C1286 0.929 . S
H1283 C1292 0.929 . S
C1284 H1278 0.930 . S
C1284 C1285 1.367 . S
C1284 C1292 1.378 . S
C1285 C1284 1.367 . S
C1285 C1293 1.433 . S
C1286 H1282 0.929 . S
C1286 C1288 1.378 . S
C1286 C1290 1.350 . S
C1287 C1290 1.463 . S
C1287 C1292 1.350 . S
C1287 N1295 1.427 . S
C1288 H1279 0.930 . S
C1288 C1286 1.378 . S
C1288 C1289 1.367 . S
C1289 C1288 1.367 . S
C1289 C1291 1.433 . S
C1290 C1286 1.350 . S
C1290 C1287 1.463 . S
C1290 N1294 1.427 . S
C1291 H1281 0.929 . S
C1291 C1289 1.433 . S
C1291 N1294 1.384 . S
C1292 H1283 0.929 . S
C1292 C1284 1.378 . S
C1292 C1287 1.350 . S
C1293 H1280 0.929 . S
C1293 C1285 1.433 . S
C1293 N1295 1.384 . S
N1294 C1290 1.427 . S
N1294 C1291 1.384 . S
N1295 C1287 1.427 . S
N1295 C1293 1.384 . S
H1296 C1302 0.930 . S
H1297 C1306 0.930 . S
H1298 C1311 0.929 . S
H1299 C1309 0.929 . S
H1300 C1304 0.929 . S
H1301 C1310 0.929 . S
C1302 H1296 0.930 . S
C1302 C1303 1.367 . S
C1302 C1310 1.378 . S
C1303 C1302 1.367 . S
C1303 C1311 1.433 . S
C1304 H1300 0.929 . S
C1304 C1306 1.378 . S
C1304 C1308 1.350 . S
C1305 C1308 1.463 . S
C1305 C1310 1.350 . S
C1305 N1313 1.427 . S
C1306 H1297 0.930 . S
C1306 C1304 1.378 . S
C1306 C1307 1.367 . S
C1307 C1306 1.367 . S
C1307 C1309 1.433 . S
C1308 C1304 1.350 . S
C1308 C1305 1.463 . S
C1308 N1312 1.427 . S
C1309 H1299 0.929 . S
C1309 C1307 1.433 . S
C1309 N1312 1.384 . S
C1310 H1301 0.929 . S
C1310 C1302 1.378 . S
C1310 C1305 1.350 . S
C1311 H1298 0.929 . S
C1311 C1303 1.433 . S
C1311 N1313 1.384 . S
N1312 C1308 1.427 . S
N1312 C1309 1.384 . S
N1313 C1305 1.427 . S
N1313 C1311 1.384 . S
H1314 C1320 0.930 . S
H1315 C1324 0.930 . S
H1316 C1329 0.929 . S
H1317 C1327 0.929 . S
H1318 C1322 0.929 . S
H1319 C1328 0.929 . S
C1320 H1314 0.930 . S
C1320 C1321 1.367 . S
C1320 C1328 1.378 . S
C1321 C1320 1.367 . S
C1321 C1329 1.433 . S
C1322 H1318 0.929 . S
C1322 C1324 1.378 . S
C1322 C1326 1.350 . S
C1323 C1326 1.463 . S
C1323 C1328 1.350 . S
C1323 N1331 1.427 . S
C1324 H1315 0.930 . S
C1324 C1322 1.378 . S
C1324 C1325 1.367 . S
C1325 C1324 1.367 . S
C1325 C1327 1.433 . S
C1326 C1322 1.350 . S
C1326 C1323 1.463 . S
C1326 N1330 1.427 . S
C1327 H1317 0.929 . S
C1327 C1325 1.433 . S
C1327 N1330 1.384 . S
C1328 H1319 0.929 . S
C1328 C1320 1.378 . S
C1328 C1323 1.350 . S
C1329 H1316 0.929 . S
C1329 C1321 1.433 . S
C1329 N1331 1.384 . S
N1330 C1326 1.427 . S
N1330 C1327 1.384 . S
N1331 C1323 1.427 . S
N1331 C1329 1.384 . S
H1332 C1338 0.930 . S
H1333 C1342 0.930 . S
H1334 C1347 0.929 . S
H1335 C1345 0.929 . S
H1336 C1340 0.929 . S
H1337 C1346 0.929 . S
C1338 H1332 0.930 . S
C1338 C1339 1.367 . S
C1338 C1346 1.378 . S
C1339 C1338 1.367 . S
C1339 C1347 1.433 . S
C1340 H1336 0.929 . S
C1340 C1342 1.378 . S
C1340 C1344 1.350 . S
C1341 C1344 1.463 . S
C1341 C1346 1.350 . S
C1341 N1349 1.427 . S
C1342 H1333 0.930 . S
C1342 C1340 1.378 . S
C1342 C1343 1.367 . S
C1343 C1342 1.367 . S
C1343 C1345 1.433 . S
C1344 C1340 1.350 . S
C1344 C1341 1.463 . S
C1344 N1348 1.427 . S
C1345 H1335 0.929 . S
C1345 C1343 1.433 . S
C1345 N1348 1.384 . S
C1346 H1337 0.929 . S
C1346 C1338 1.378 . S
C1346 C1341 1.350 . S
C1347 H1334 0.929 . S
C1347 C1339 1.433 . S
C1347 N1349 1.384 . S
N1348 C1344 1.427 . S
N1348 C1345 1.384 . S
N1349 C1341 1.427 . S
N1349 C1347 1.384 . S
H1350 C1356 0.930 . S
H1351 C1360 0.930 . S
H1352 C1365 0.929 . S
H1353 C1363 0.929 . S
H1354 C1358 0.929 . S
H1355 C1364 0.929 . S
C1356 H1350 0.930 . S
C1356 C1357 1.367 . S
C1356 C1364 1.378 . S
C1357 C1356 1.367 . S
C1357 C1365 1.433 . S
C1358 H1354 0.929 . S
C1358 C1360 1.378 . S
C1358 C1362 1.350 . S
C1359 C1362 1.463 . S
C1359 C1364 1.350 . S
C1359 N1367 1.427 . S
C1360 H1351 0.930 . S
C1360 C1358 1.378 . S
C1360 C1361 1.367 . S
C1361 C1360 1.367 . S
C1361 C1363 1.433 . S
C1362 C1358 1.350 . S
C1362 C1359 1.463 . S
C1362 N1366 1.427 . S
C1363 H1353 0.929 . S
C1363 C1361 1.433 . S
C1363 N1366 1.384 . S
C1364 H1355 0.929 . S
C1364 C1356 1.378 . S
C1364 C1359 1.350 . S
C1365 H1352 0.929 . S
C1365 C1357 1.433 . S
C1365 N1367 1.384 . S
N1366 C1362 1.427 . S
N1366 C1363 1.384 . S
N1367 C1359 1.427 . S
N1367 C1365 1.384 . S
H1368 C1374 0.930 . S
H1369 C1378 0.930 . S
H1370 C1383 0.929 . S
H1371 C1381 0.929 . S
H1372 C1376 0.929 . S
H1373 C1382 0.929 . S
C1374 H1368 0.930 . S
C1374 C1375 1.367 . S
C1374 C1382 1.378 . S
C1375 C1374 1.367 . S
C1375 C1383 1.433 . S
C1376 H1372 0.929 . S
C1376 C1378 1.378 . S
C1376 C1380 1.350 . S
C1377 C1380 1.463 . S
C1377 C1382 1.350 . S
C1377 N1385 1.427 . S
C1378 H1369 0.930 . S
C1378 C1376 1.378 . S
C1378 C1379 1.367 . S
C1379 C1378 1.367 . S
C1379 C1381 1.433 . S
C1380 C1376 1.350 . S
C1380 C1377 1.463 . S
C1380 N1384 1.427 . S
C1381 H1371 0.929 . S
C1381 C1379 1.433 . S
C1381 N1384 1.384 . S
C1382 H1373 0.929 . S
C1382 C1374 1.378 . S
C1382 C1377 1.350 . S
C1383 H1370 0.929 . S
C1383 C1375 1.433 . S
C1383 N1385 1.384 . S
N1384 C1380 1.427 . S
N1384 C1381 1.384 . S
N1385 C1377 1.427 . S
N1385 C1383 1.384 . S
H1386 C1392 0.930 . S
H1387 C1396 0.930 . S
H1388 C1401 0.929 . S
H1389 C1399 0.929 . S
H1390 C1394 0.929 . S
H1391 C1400 0.929 . S
C1392 H1386 0.930 . S
C1392 C1393 1.367 . S
C1392 C1400 1.378 . S
C1393 C1392 1.367 . S
C1393 C1401 1.433 . S
C1394 H1390 0.929 . S
C1394 C1396 1.378 . S
C1394 C1398 1.350 . S
C1395 C1398 1.463 . S
C1395 C1400 1.350 . S
C1395 N1403 1.427 . S
C1396 H1387 0.930 . S
C1396 C1394 1.378 . S
C1396 C1397 1.367 . S
C1397 C1396 1.367 . S
C1397 C1399 1.433 . S
C1398 C1394 1.350 . S
C1398 C1395 1.463 . S
C1398 N1402 1.427 . S
C1399 H1389 0.929 . S
C1399 C1397 1.433 . S
C1399 N1402 1.384 . S
C1400 H1391 0.929 . S
C1400 C1392 1.378 . S
C1400 C1395 1.350 . S
C1401 H1388 0.929 . S
C1401 C1393 1.433 . S
C1401 N1403 1.384 . S
N1402 C1398 1.427 . S
N1402 C1399 1.384 . S
N1403 C1395 1.427 . S
N1403 C1401 1.384 . S
H1404 C1410 0.930 . S
H1405 C1414 0.930 . S
H1406 C1419 0.929 . S
H1407 C1417 0.929 . S
H1408 C1412 0.929 . S
H1409 C1418 0.929 . S
C1410 H1404 0.930 . S
C1410 C1411 1.367 . S
C1410 C1418 1.378 . S
C1411 C1410 1.367 . S
C1411 C1419 1.433 . S
C1412 H1408 0.929 . S
C1412 C1414 1.378 . S
C1412 C1416 1.350 . S
C1413 C1416 1.463 . S
C1413 C1418 1.350 . S
C1413 N1421 1.427 . S
C1414 H1405 0.930 . S
C1414 C1412 1.378 . S
C1414 C1415 1.367 . S
C1415 C1414 1.367 . S
C1415 C1417 1.433 . S
C1416 C1412 1.350 . S
C1416 C1413 1.463 . S
C1416 N1420 1.427 . S
C1417 H1407 0.929 . S
C1417 C1415 1.433 . S
C1417 N1420 1.384 . S
C1418 H1409 0.929 . S
C1418 C1410 1.378 . S
C1418 C1413 1.350 . S
C1419 H1406 0.929 . S
C1419 C1411 1.433 . S
C1419 N1421 1.384 . S
N1420 C1416 1.427 . S
N1420 C1417 1.384 . S
N1421 C1413 1.427 . S
N1421 C1419 1.384 . S
H1422 C1428 0.930 . S
H1423 C1432 0.930 . S
H1424 C1437 0.929 . S
H1425 C1435 0.929 . S
H1426 C1430 0.929 . S
H1427 C1436 0.929 . S
C1428 H1422 0.930 . S
C1428 C1429 1.367 . S
C1428 C1436 1.378 . S
C1429 C1428 1.367 . S
C1429 C1437 1.433 . S
C1430 H1426 0.929 . S
C1430 C1432 1.378 . S
C1430 C1434 1.350 . S
C1431 C1434 1.463 . S
C1431 C1436 1.350 . S
C1431 N1439 1.427 . S
C1432 H1423 0.930 . S
C1432 C1430 1.378 . S
C1432 C1433 1.367 . S
C1433 C1432 1.367 . S
C1433 C1435 1.433 . S
C1434 C1430 1.350 . S
C1434 C1431 1.463 . S
C1434 N1438 1.427 . S
C1435 H1425 0.929 . S
C1435 C1433 1.433 . S
C1435 N1438 1.384 . S
C1436 H1427 0.929 . S
C1436 C1428 1.378 . S
C1436 C1431 1.350 . S
C1437 H1424 0.929 . S
C1437 C1429 1.433 . S
C1437 N1439 1.384 . S
N1438 C1434 1.427 . S
N1438 C1435 1.384 . S
N1439 C1431 1.427 . S
N1439 C1437 1.384 . S
H1440 C1446 0.930 . S
H1441 C1450 0.930 . S
H1442 C1455 0.929 . S
H1443 C1453 0.929 . S
H1444 C1448 0.929 . S
H1445 C1454 0.929 . S
C1446 H1440 0.930 . S
C1446 C1447 1.367 . S
C1446 C1454 1.378 . S
C1447 C1446 1.367 . S
C1447 C1455 1.433 . S
C1448 H1444 0.929 . S
C1448 C1450 1.378 . S
C1448 C1452 1.350 . S
C1449 C1452 1.463 . S
C1449 C1454 1.350 . S
C1449 N1457 1.427 . S
C1450 H1441 0.930 . S
C1450 C1448 1.378 . S
C1450 C1451 1.367 . S
C1451 C1450 1.367 . S
C1451 C1453 1.433 . S
C1452 C1448 1.350 . S
C1452 C1449 1.463 . S
C1452 N1456 1.427 . S
C1453 H1443 0.929 . S
C1453 C1451 1.433 . S
C1453 N1456 1.384 . S
C1454 H1445 0.929 . S
C1454 C1446 1.378 . S
C1454 C1449 1.350 . S
C1455 H1442 0.929 . S
C1455 C1447 1.433 . S
C1455 N1457 1.384 . S
N1456 C1452 1.427 . S
N1456 C1453 1.384 . S
N1457 C1449 1.427 . S
N1457 C1455 1.384 . S
H1458 C1464 0.930 . S
H1459 C1468 0.930 . S
H1460 C1473 0.929 . S
H1461 C1471 0.929 . S
H1462 C1466 0.929 . S
H1463 C1472 0.929 . S
C1464 H1458 0.930 . S
C1464 C1465 1.367 . S
C1464 C1472 1.378 . S
C1465 C1464 1.367 . S
C1465 C1473 1.433 . S
C1466 H1462 0.929 . S
C1466 C1468 1.378 . S
C1466 C1470 1.350 . S
C1467 C1470 1.463 . S
C1467 C1472 1.350 . S
C1467 N1475 1.427 . S
C1468 H1459 0.930 . S
C1468 C1466 1.378 . S
C1468 C1469 1.367 . S
C1469 C1468 1.367 . S
C1469 C1471 1.433 . S
C1470 C1466 1.350 . S
C1470 C1467 1.463 . S
C1470 N1474 1.427 . S
C1471 H1461 0.929 . S
C1471 C1469 1.433 . S
C1471 N1474 1.384 . S
C1472 H1463 0.929 . S
C1472 C1464 1.378 . S
C1472 C1467 1.350 . S
C1473 H1460 0.929 . S
C1473 C1465 1.433 . S
C1473 N1475 1.384 . S
N1474 C1470 1.427 . S
N1474 C1471 1.384 . S
N1475 C1467 1.427 . S
N1475 C1473 1.384 . S
H1476 C1482 0.930 . S
H1477 C1486 0.930 . S
H1478 C1491 0.929 . S
H1479 C1489 0.929 . S
H1480 C1484 0.929 . S
H1481 C1490 0.929 . S
C1482 H1476 0.930 . S
C1482 C1483 1.367 . S
C1482 C1490 1.378 . S
C1483 C1482 1.367 . S
C1483 C1491 1.433 . S
C1484 H1480 0.929 . S
C1484 C1486 1.378 . S
C1484 C1488 1.350 . S
C1485 C1488 1.463 . S
C1485 C1490 1.350 . S
C1485 N1493 1.427 . S
C1486 H1477 0.930 . S
C1486 C1484 1.378 . S
C1486 C1487 1.367 . S
C1487 C1486 1.367 . S
C1487 C1489 1.433 . S
C1488 C1484 1.350 . S
C1488 C1485 1.463 . S
C1488 N1492 1.427 . S
C1489 H1479 0.929 . S
C1489 C1487 1.433 . S
C1489 N1492 1.384 . S
C1490 H1481 0.929 . S
C1490 C1482 1.378 . S
C1490 C1485 1.350 . S
C1491 H1478 0.929 . S
C1491 C1483 1.433 . S
C1491 N1493 1.384 . S
N1492 C1488 1.427 . S
N1492 C1489 1.384 . S
N1493 C1485 1.427 . S
N1493 C1491 1.384 . S
H1494 C1500 0.930 . S
H1495 C1504 0.930 . S
H1496 C1509 0.929 . S
H1497 C1507 0.929 . S
H1498 C1502 0.929 . S
H1499 C1508 0.929 . S
C1500 H1494 0.930 . S
C1500 C1501 1.367 . S
C1500 C1508 1.378 1_565 S
C1501 C1500 1.367 . S
C1501 C1509 1.433 . S
C1502 H1498 0.929 . S
C1502 C1504 1.378 . S
C1502 C1506 1.350 . S
C1503 C1506 1.463 . S
C1503 C1508 1.350 . S
C1503 N1511 1.429 1_545 S
C1504 H1495 0.930 . S
C1504 C1502 1.378 . S
C1504 C1505 1.367 . S
C1505 C1504 1.367 . S
C1505 C1507 1.433 . S
C1506 C1502 1.350 . S
C1506 C1503 1.463 . S
C1506 N1510 1.427 . S
C1507 H1497 0.929 . S
C1507 C1505 1.433 . S
C1507 N1510 1.384 . S
C1508 H1499 0.929 . S
C1508 C1500 1.378 1_545 S
C1508 C1503 1.350 . S
C1509 H1496 0.929 . S
C1509 C1501 1.433 . S
C1509 N1511 1.383 . S
N1510 C1506 1.427 . S
N1510 C1507 1.384 . S
N1511 C1503 1.429 1_565 S
N1511 C1509 1.383 . S
H1512 C1518 0.930 . S
H1513 C1522 0.930 . S
H1514 C1527 0.929 . S
H1515 C1525 0.929 . S
H1516 C1520 0.929 . S
H1517 C1526 0.929 . S
C1518 H1512 0.930 . S
C1518 C1519 1.367 . S
C1518 C1526 1.378 . S
C1519 C1518 1.367 . S
C1519 C1527 1.433 . S
C1520 H1516 0.929 . S
C1520 C1522 1.378 1_655 S
C1520 C1524 1.350 . S
C1521 C1524 1.463 . S
C1521 C1526 1.350 . S
C1521 N1529 1.427 . S
C1522 H1513 0.930 . S
C1522 C1520 1.378 1_455 S
C1522 C1523 1.367 . S
C1523 C1522 1.367 . S
C1523 C1525 1.433 . S
C1524 C1520 1.350 . S
C1524 C1521 1.463 . S
C1524 N1528 1.427 1_655 S
C1525 H1515 0.929 . S
C1525 C1523 1.433 . S
C1525 N1528 1.384 . S
C1526 H1517 0.929 . S
C1526 C1518 1.378 . S
C1526 C1521 1.350 . S
C1527 H1514 0.929 . S
C1527 C1519 1.433 . S
C1527 N1529 1.384 . S
N1528 C1524 1.427 1_455 S
N1528 C1525 1.384 . S
N1529 C1521 1.427 . S
N1529 C1527 1.384 . S
H1530 C1536 0.930 . S
H1531 C1540 0.930 . S
H1532 C1545 0.929 . S
H1533 C1543 0.929 . S
H1534 C1538 0.929 . S
H1535 C1544 0.929 . S
C1536 H1530 0.930 . S
C1536 C1537 1.367 . S
C1536 C1544 1.378 . S
C1537 C1536 1.367 . S
C1537 C1545 1.433 . S
C1538 H1534 0.929 . S
C1538 C1540 1.378 . S
C1538 C1542 1.350 . S
C1539 C1542 1.463 . S
C1539 C1544 1.350 . S
C1539 N1547 1.427 . S
C1540 H1531 0.930 . S
C1540 C1538 1.378 . S
C1540 C1541 1.367 . S
C1541 C1540 1.367 . S
C1541 C1543 1.433 . S
C1542 C1538 1.350 . S
C1542 C1539 1.463 . S
C1542 N1546 1.427 . S
C1543 H1533 0.929 . S
C1543 C1541 1.433 . S
C1543 N1546 1.384 . S
C1544 H1535 0.929 . S
C1544 C1536 1.378 . S
C1544 C1539 1.350 . S
C1545 H1532 0.929 . S
C1545 C1537 1.433 . S
C1545 N1547 1.384 . S
N1546 C1542 1.427 . S
N1546 C1543 1.384 . S
N1547 C1539 1.427 . S
N1547 C1545 1.384 . S
H1548 C1554 0.930 . S
H1549 C1558 0.930 . S
H1550 C1563 0.929 . S
H1551 C1561 0.929 . S
H1552 C1556 0.929 1_545 S
H1553 C1562 0.929 . S
C1554 H1548 0.930 . S
C1554 C1555 1.367 1_565 S
C1554 C1562 1.378 . S
C1555 C1554 1.367 1_545 S
C1555 C1563 1.433 . S
C1556 H1552 0.929 1_565 S
C1556 C1558 1.378 . S
C1556 C1560 1.350 . S
C1557 C1560 1.463 . S
C1557 C1562 1.350 . S
C1557 N1565 1.427 1_565 S
C1558 H1549 0.930 . S
C1558 C1556 1.378 . S
C1558 C1559 1.367 . S
C1559 C1558 1.367 . S
C1559 C1561 1.433 . S
C1560 C1556 1.350 . S
C1560 C1557 1.463 . S
C1560 N1564 1.427 . S
C1561 H1551 0.929 . S
C1561 C1559 1.433 . S
C1561 N1564 1.384 . S
C1562 H1553 0.929 . S
C1562 C1554 1.378 . S
C1562 C1557 1.350 . S
C1563 H1550 0.929 . S
C1563 C1555 1.433 . S
C1563 N1565 1.384 . S
N1564 C1560 1.427 . S
N1564 C1561 1.384 . S
N1565 C1557 1.427 1_545 S
N1565 C1563 1.384 . S
H1566 C1572 0.930 . S
H1567 C1576 0.930 . S
H1568 C1581 0.929 . S
H1569 C1579 0.929 . S
H1570 C1574 0.929 . S
H1571 C1580 0.929 . S
C1572 H1566 0.930 . S
C1572 C1573 1.367 . S
C1572 C1580 1.378 . S
C1573 C1572 1.367 . S
C1573 C1581 1.433 . S
C1574 H1570 0.929 . S
C1574 C1576 1.378 . S
C1574 C1578 1.350 1_655 S
C1575 C1578 1.463 . S
C1575 C1580 1.350 . S
C1575 N1583 1.427 . S
C1576 H1567 0.930 . S
C1576 C1574 1.378 . S
C1576 C1577 1.367 . S
C1577 C1576 1.367 . S
C1577 C1579 1.433 1_655 S
C1578 C1574 1.350 1_455 S
C1578 C1575 1.463 . S
C1578 N1582 1.427 . S
C1579 H1569 0.929 . S
C1579 C1577 1.433 1_455 S
C1579 N1582 1.384 . S
C1580 H1571 0.929 . S
C1580 C1572 1.378 . S
C1580 C1575 1.350 . S
C1581 H1568 0.929 . S
C1581 C1573 1.433 . S
C1581 N1583 1.384 . S
N1582 C1578 1.427 . S
N1582 C1579 1.384 . S
N1583 C1575 1.427 . S
N1583 C1581 1.384 . S
H1584 C1590 0.930 . S
H1585 C1594 0.930 . S
H1586 C1599 0.929 . S
H1587 C1597 0.929 . S
H1588 C1592 0.929 . S
H1589 C1598 0.929 . S
C1590 H1584 0.930 . S
C1590 C1591 1.367 . S
C1590 C1598 1.378 . S
C1591 C1590 1.367 . S
C1591 C1599 1.433 . S
C1592 H1588 0.929 . S
C1592 C1594 1.378 . S
C1592 C1596 1.350 . S
C1593 C1596 1.463 . S
C1593 C1598 1.350 . S
C1593 N1601 1.427 . S
C1594 H1585 0.930 . S
C1594 C1592 1.378 . S
C1594 C1595 1.367 . S
C1595 C1594 1.367 . S
C1595 C1597 1.433 . S
C1596 C1592 1.350 . S
C1596 C1593 1.463 . S
C1596 N1600 1.427 . S
C1597 H1587 0.929 . S
C1597 C1595 1.433 . S
C1597 N1600 1.384 . S
C1598 H1589 0.929 . S
C1598 C1590 1.378 . S
C1598 C1593 1.350 . S
C1599 H1586 0.929 . S
C1599 C1591 1.433 . S
C1599 N1601 1.384 . S
N1600 C1596 1.427 . S
N1600 C1597 1.384 . S
N1601 C1593 1.427 . S
N1601 C1599 1.384 . S
H1602 C1608 0.930 . S
H1603 C1612 0.930 . S
H1604 C1617 0.929 . S
H1605 C1615 0.929 . S
H1606 C1610 0.929 . S
H1607 C1616 0.929 1_545 S
C1608 H1602 0.930 . S
C1608 C1609 1.367 . S
C1608 C1616 1.378 . S
C1609 C1608 1.367 . S
C1609 C1617 1.433 . S
C1610 H1606 0.929 . S
C1610 C1612 1.378 . S
C1610 C1614 1.350 . S
C1611 C1614 1.463 . S
C1611 C1616 1.350 . S
C1611 N1619 1.427 . S
C1612 H1603 0.930 . S
C1612 C1610 1.378 . S
C1612 C1613 1.367 1_565 S
C1613 C1612 1.367 1_545 S
C1613 C1615 1.433 . S
C1614 C1610 1.350 . S
C1614 C1611 1.463 . S
C1614 N1618 1.427 1_565 S
C1615 H1605 0.929 . S
C1615 C1613 1.433 . S
C1615 N1618 1.384 . S
C1616 H1607 0.929 1_565 S
C1616 C1608 1.378 . S
C1616 C1611 1.350 . S
C1617 H1604 0.929 . S
C1617 C1609 1.433 . S
C1617 N1619 1.384 . S
N1618 C1614 1.427 1_545 S
N1618 C1615 1.384 . S
N1619 C1611 1.427 . S
N1619 C1617 1.384 . S
H1620 C1626 0.930 . S
H1621 C1630 0.930 . S
H1622 C1635 0.929 . S
H1623 C1633 0.929 . S
H1624 C1628 0.919 1_455 S
H1625 C1634 0.929 . S
C1626 H1620 0.930 . S
C1626 C1627 1.367 . S
C1626 C1634 1.378 . S
C1627 C1626 1.367 . S
C1627 C1635 1.433 . S
C1628 H1624 0.919 1_655 S
C1628 C1630 1.404 . S
C1628 C1632 1.335 1_655 S
C1629 C1632 1.463 . S
C1629 C1634 1.350 . S
C1629 N1637 1.427 . S
C1630 H1621 0.930 . S
C1630 C1628 1.404 . S
C1630 C1631 1.367 . S
C1631 C1630 1.367 . S
C1631 C1633 1.433 . S
C1632 C1628 1.335 1_455 S
C1632 C1629 1.463 . S
C1632 N1636 1.427 1_455 S
C1633 H1623 0.929 . S
C1633 C1631 1.433 . S
C1633 N1636 1.384 . S
C1634 H1625 0.929 . S
C1634 C1626 1.378 . S
C1634 C1629 1.350 . S
C1635 H1622 0.929 . S
C1635 C1627 1.433 . S
C1635 N1637 1.384 . S
N1636 C1632 1.427 1_655 S
N1636 C1633 1.384 . S
N1637 C1629 1.427 . S
N1637 C1635 1.384 . S
H1638 C1644 0.930 . S
H1639 C1648 0.930 . S
H1640 C1653 0.929 . S
H1641 C1651 0.929 . S
H1642 C1646 0.929 . S
H1643 C1652 0.929 . S
C1644 H1638 0.930 . S
C1644 C1645 1.367 . S
C1644 C1652 1.378 . S
C1645 C1644 1.367 . S
C1645 C1653 1.433 . S
C1646 H1642 0.929 . S
C1646 C1648 1.378 . S
C1646 C1650 1.350 . S
C1647 C1650 1.463 . S
C1647 C1652 1.350 . S
C1647 N1655 1.427 . S
C1648 H1639 0.930 . S
C1648 C1646 1.378 . S
C1648 C1649 1.367 . S
C1649 C1648 1.367 . S
C1649 C1651 1.433 . S
C1650 C1646 1.350 . S
C1650 C1647 1.463 . S
C1650 N1654 1.427 . S
C1651 H1641 0.929 . S
C1651 C1649 1.433 . S
C1651 N1654 1.384 . S
C1652 H1643 0.929 . S
C1652 C1644 1.378 . S
C1652 C1647 1.350 . S
C1653 H1640 0.929 . S
C1653 C1645 1.433 . S
C1653 N1655 1.384 . S
N1654 C1650 1.427 . S
N1654 C1651 1.384 . S
N1655 C1647 1.427 . S
N1655 C1653 1.384 . S
H1656 C1662 0.930 . S
H1657 C1666 0.930 . S
H1658 C1671 0.929 . S
H1659 C1669 0.929 . S
H1660 C1664 0.929 . S
H1661 C1670 0.929 . S
C1662 H1656 0.930 . S
C1662 C1663 1.367 . S
C1662 C1670 1.378 . S
C1663 C1662 1.367 . S
C1663 C1671 1.433 . S
C1664 H1660 0.929 . S
C1664 C1666 1.378 . S
C1664 C1668 1.350 1_565 S
C1665 C1668 1.463 . S
C1665 C1670 1.350 . S
C1665 N1673 1.427 . S
C1666 H1657 0.930 . S
C1666 C1664 1.378 . S
C1666 C1667 1.367 . S
C1667 C1666 1.367 . S
C1667 C1669 1.433 1_565 S
C1668 C1664 1.350 1_545 S
C1668 C1665 1.463 . S
C1668 N1672 1.427 . S
C1669 H1659 0.929 . S
C1669 C1667 1.433 1_545 S
C1669 N1672 1.384 . S
C1670 H1661 0.929 . S
C1670 C1662 1.378 . S
C1670 C1665 1.350 . S
C1671 H1658 0.929 . S
C1671 C1663 1.433 . S
C1671 N1673 1.384 . S
N1672 C1668 1.427 . S
N1672 C1669 1.384 . S
N1673 C1665 1.427 . S
N1673 C1671 1.384 . S
H1674 C1680 0.930 . S
H1675 C1684 0.930 . S
H1676 C1689 0.929 . S
H1677 C1687 0.929 . S
H1678 C1682 0.929 . S
H1679 C1688 0.929 . S
C1680 H1674 0.930 . S
C1680 C1681 1.367 . S
C1680 C1688 1.378 . S
C1681 C1680 1.367 . S
C1681 C1689 1.433 . S
C1682 H1678 0.929 . S
C1682 C1684 1.378 . S
C1682 C1686 1.350 . S
C1683 C1686 1.463 . S
C1683 C1688 1.350 1_655 S
C1683 N1691 1.427 . S
C1684 H1675 0.930 . S
C1684 C1682 1.378 . S
C1684 C1685 1.367 . S
C1685 C1684 1.367 . S
C1685 C1687 1.433 . S
C1686 C1682 1.350 . S
C1686 C1683 1.463 . S
C1686 N1690 1.427 . S
C1687 H1677 0.929 . S
C1687 C1685 1.433 . S
C1687 N1690 1.384 . S
C1688 H1679 0.929 . S
C1688 C1680 1.378 . S
C1688 C1683 1.350 1_455 S
C1689 H1676 0.929 . S
C1689 C1681 1.433 . S
C1689 N1691 1.384 1_455 S
N1690 C1686 1.427 . S
N1690 C1687 1.384 . S
N1691 C1683 1.427 . S
N1691 C1689 1.384 1_655 S
H1692 C1698 0.930 . S
H1693 C1702 0.930 . S
H1694 C1707 0.929 . S
H1695 C1705 0.929 . S
H1696 C1700 0.929 . S
H1697 C1706 0.929 . S
C1698 H1692 0.930 . S
C1698 C1699 1.367 . S
C1698 C1706 1.378 . S
C1699 C1698 1.367 . S
C1699 C1707 1.433 . S
C1700 H1696 0.929 . S
C1700 C1702 1.378 . S
C1700 C1704 1.350 . S
C1701 C1704 1.463 1_655 S
C1701 C1706 1.350 . S
C1701 N1709 1.427 . S
C1702 H1693 0.930 . S
C1702 C1700 1.378 . S
C1702 C1703 1.367 . S
C1703 C1702 1.367 . S
C1703 C1705 1.433 . S
C1704 C1700 1.350 . S
C1704 C1701 1.463 1_455 S
C1704 N1708 1.427 . S
C1705 H1695 0.929 . S
C1705 C1703 1.433 . S
C1705 N1708 1.384 . S
C1706 H1697 0.929 . S
C1706 C1698 1.378 . S
C1706 C1701 1.350 . S
C1707 H1694 0.929 . S
C1707 C1699 1.433 . S
C1707 N1709 1.384 . S
N1708 C1704 1.427 . S
N1708 C1705 1.384 . S
N1709 C1701 1.427 . S
N1709 C1707 1.384 . S
H1710 C1716 0.930 . S
H1711 C1720 0.930 . S
H1712 C1725 0.929 . S
H1713 C1723 0.929 . S
H1714 C1718 0.929 . S
H1715 C1724 0.929 . S
C1716 H1710 0.930 . S
C1716 C1717 1.367 . S
C1716 C1724 1.378 . S
C1717 C1716 1.367 . S
C1717 C1725 1.433 . S
C1718 H1714 0.929 . S
C1718 C1720 1.378 . S
C1718 C1722 1.350 . S
C1719 C1722 1.463 . S
C1719 C1724 1.350 . S
C1719 N1727 1.427 . S
C1720 H1711 0.930 . S
C1720 C1718 1.378 . S
C1720 C1721 1.367 . S
C1721 C1720 1.367 . S
C1721 C1723 1.433 . S
C1722 C1718 1.350 . S
C1722 C1719 1.463 . S
C1722 N1726 1.427 . S
C1723 H1713 0.929 . S
C1723 C1721 1.433 . S
C1723 N1726 1.384 . S
C1724 H1715 0.929 . S
C1724 C1716 1.378 . S
C1724 C1719 1.350 . S
C1725 H1712 0.929 . S
C1725 C1717 1.433 . S
C1725 N1727 1.384 . S
N1726 C1722 1.427 . S
N1726 C1723 1.384 . S
N1727 C1719 1.427 . S
N1727 C1725 1.384 . S
H1728 C1734 0.930 . S
H1729 C1738 0.930 . S
H1730 C1743 0.929 . S
H1731 C1741 0.929 . S
H1732 C1736 0.929 . S
H1733 C1742 0.929 . S
C1734 H1728 0.930 . S
C1734 C1735 1.367 . S
C1734 C1742 1.378 . S
C1735 C1734 1.367 . S
C1735 C1743 1.433 . S
C1736 H1732 0.929 . S
C1736 C1738 1.378 . S
C1736 C1740 1.350 . S
C1737 C1740 1.463 1_565 S
C1737 C1742 1.350 . S
C1737 N1745 1.427 . S
C1738 H1729 0.930 . S
C1738 C1736 1.378 . S
C1738 C1739 1.367 . S
C1739 C1738 1.367 . S
C1739 C1741 1.433 . S
C1740 C1736 1.350 . S
C1740 C1737 1.463 1_545 S
C1740 N1744 1.427 . S
C1741 H1731 0.929 . S
C1741 C1739 1.433 . S
C1741 N1744 1.384 . S
C1742 H1733 0.929 . S
C1742 C1734 1.378 . S
C1742 C1737 1.350 . S
C1743 H1730 0.929 . S
C1743 C1735 1.433 . S
C1743 N1745 1.384 . S
N1744 C1740 1.427 . S
N1744 C1741 1.384 . S
N1745 C1737 1.427 . S
N1745 C1743 1.384 . S
H1746 C1752 0.930 . S
H1747 C1756 0.930 . S
H1748 C1761 0.929 . S
H1749 C1759 0.929 . S
H1750 C1754 0.929 . S
H1751 C1760 0.929 . S
C1752 H1746 0.930 . S
C1752 C1753 1.367 . S
C1752 C1760 1.378 . S
C1753 C1752 1.367 . S
C1753 C1761 1.433 . S
C1754 H1750 0.929 . S
C1754 C1756 1.378 . S
C1754 C1758 1.350 . S
C1755 C1758 1.463 1_565 S
C1755 C1760 1.350 . S
C1755 N1763 1.427 . S
C1756 H1747 0.930 . S
C1756 C1754 1.378 . S
C1756 C1757 1.367 . S
C1757 C1756 1.367 . S
C1757 C1759 1.433 . S
C1758 C1754 1.350 . S
C1758 C1755 1.463 1_545 S
C1758 N1762 1.427 . S
C1759 H1749 0.929 . S
C1759 C1757 1.433 . S
C1759 N1762 1.384 . S
C1760 H1751 0.929 . S
C1760 C1752 1.378 . S
C1760 C1755 1.350 . S
C1761 H1748 0.929 . S
C1761 C1753 1.433 . S
C1761 N1763 1.384 . S
N1762 C1758 1.427 . S
N1762 C1759 1.384 . S
N1763 C1755 1.427 . S
N1763 C1761 1.384 . S
H1764 C1770 0.930 . S
H1765 C1774 0.930 . S
H1766 C1779 0.929 . S
H1767 C1777 0.929 . S
H1768 C1772 0.929 . S
H1769 C1778 0.929 . S
C1770 H1764 0.930 . S
C1770 C1771 1.367 . S
C1770 C1778 1.378 . S
C1771 C1770 1.367 . S
C1771 C1779 1.433 . S
C1772 H1768 0.929 . S
C1772 C1774 1.378 . S
C1772 C1776 1.350 . S
C1773 C1776 1.463 1_655 S
C1773 C1778 1.350 . S
C1773 N1781 1.427 . S
C1774 H1765 0.930 . S
C1774 C1772 1.378 . S
C1774 C1775 1.367 . S
C1775 C1774 1.367 . S
C1775 C1777 1.433 . S
C1776 C1772 1.350 . S
C1776 C1773 1.463 1_455 S
C1776 N1780 1.427 . S
C1777 H1767 0.929 . S
C1777 C1775 1.433 . S
C1777 N1780 1.384 . S
C1778 H1769 0.929 . S
C1778 C1770 1.378 . S
C1778 C1773 1.350 . S
C1779 H1766 0.929 . S
C1779 C1771 1.433 . S
C1779 N1781 1.384 . S
N1780 C1776 1.427 . S
N1780 C1777 1.384 . S
N1781 C1773 1.427 . S
N1781 C1779 1.384 . S
H1782 C1788 0.930 . S
H1783 C1792 0.930 . S
H1784 C1797 0.929 . S
H1785 C1795 0.929 . S
H1786 C1790 0.929 . S
H1787 C1796 0.929 . S
C1788 H1782 0.930 . S
C1788 C1789 1.367 . S
C1788 C1796 1.378 . S
C1789 C1788 1.367 . S
C1789 C1797 1.433 . S
C1790 H1786 0.929 . S
C1790 C1792 1.378 . S
C1790 C1794 1.350 . S
C1791 C1794 1.463 . S
C1791 C1796 1.350 . S
C1791 N1799 1.427 . S
C1792 H1783 0.930 . S
C1792 C1790 1.378 . S
C1792 C1793 1.367 . S
C1793 C1792 1.367 . S
C1793 C1795 1.433 . S
C1794 C1790 1.350 . S
C1794 C1791 1.463 . S
C1794 N1798 1.427 . S
C1795 H1785 0.929 . S
C1795 C1793 1.433 . S
C1795 N1798 1.384 . S
C1796 H1787 0.929 . S
C1796 C1788 1.378 . S
C1796 C1791 1.350 . S
C1797 H1784 0.929 . S
C1797 C1789 1.433 . S
C1797 N1799 1.384 . S
N1798 C1794 1.427 . S
N1798 C1795 1.384 . S
N1799 C1791 1.427 . S
N1799 C1797 1.384 . S
C511 C8 1.359 . S
C515 C260 1.354 . S
C529 C17 1.455 . S
C533 C273 1.463 . S
C547 C287 1.480 . S
C551 C31 1.450 . S
C565 C45 1.439 . S
C569 C469 1.467 . S
C583 C483 1.476 . S
C587 C59 1.458 . S
C601 C78 1.349 . S
C605 C498 1.342 . S
C619 C344 1.351 . S
C623 C92 1.343 . S
C637 C105 1.463 . S
C641 C353 1.456 . S
C655 C119 1.470 . S
C659 C367 1.449 . S
C673 C133 1.475 . S
C677 C213 1.453 . S
C691 C227 1.463 . S
C695 C147 1.468 . S
C709 C162 1.345 . S
C713 C246 1.349 . S
C727 C176 1.355 . S
C731 C428 1.348 . S
C745 C185 1.465 . S
C749 C441 1.471 . S
C763 C199 1.438 . S
C767 C455 1.471 . S
C781 C301 1.467 . S
C785 C381 1.443 . S
C799 C315 1.464 . S
C803 C395 1.451 . S
C817 C330 1.342 . S
C821 C414 1.348 . S
C835 C101 1.307 . S
C839 C3 1.310 . S
C853 C115 1.361 . S
C857 C22 1.411 . S
C871 C36 1.323 . S
C875 C93 1.248 . S
C889 C163 1.262 . S
C893 C50 1.325 . S
C907 C129 1.364 . S
C911 C64 1.411 . S
C925 C143 1.317 . S
C929 C73 1.316 . S
C943 C91 1.344 . S
C947 C21 1.328 . S
C961 C106 1.421 . S
C965 C35 1.379 . S
C979 C120 1.334 . S
C983 C9 1.275 . S
C997 C134 1.338 . S
C1001 C79 1.292 . S
C1015 C49 1.379 . S
C1019 C148 1.421 . S
C1033 C63 1.318 . S
C1037 C161 1.335 . S
C1051 C171 1.315 . S
C1055 C269 1.316 . S
C1069 C190 1.414 . S
C1073 C283 1.374 . S
C1087 C204 1.321 . S
C1091 C261 1.245 . S
C1105 C331 1.257 . S
C1109 C218 1.325 . S
C1123 C232 1.411 . S
C1127 C297 1.367 . S
C1141 C311 1.317 . S
C1145 C241 1.320 . S
C1159 C259 1.345 . S
C1163 C189 1.317 . S
C1177 C203 1.387 . S
C1181 C274 1.427 . S
C1195 C177 1.275 . S
C1199 C288 1.333 . S
C1213 C302 1.341 . S
C1217 C247 1.293 . S
C1231 C316 1.428 . S
C1235 C217 1.390 . S
C1249 C329 1.347 . S
C1253 C231 1.321 . S
C1267 C437 1.317 . S
C1271 C339 1.317 . S
C1285 C358 1.411 . S
C1289 C451 1.363 . S
C1303 C372 1.317 . S
C1307 C429 1.251 . S
C1321 C499 1.256 . S
C1325 C386 1.318 . S
C1339 C465 1.367 . S
C1343 C400 1.417 . S
C1357 C479 1.317 . S
C1361 C409 1.318 . S
C1375 C357 1.312 . S
C1379 C427 1.341 . S
C1393 C371 1.384 . S
C1397 C442 1.423 . S
C1411 C345 1.294 . S
C1415 C456 1.340 . S
C1429 C470 1.337 . S
C1433 C415 1.278 . S
C1447 C385 1.392 . S
C1451 C484 1.427 . S
C1465 C497 1.337 . S
C1469 C399 1.321 . S
C1483 C7 0.991 . S
C1487 C413 0.994 . S
C1501 C387 0.982 . S
C1505 C23 0.983 . S
C1519 C37 0.959 . S
C1523 C401 0.964 . S
C1537 C51 0.970 . S
C1541 C191 0.959 . S
C1555 C205 0.984 . S
C1559 C65 0.976 . S
C1573 C77 0.996 . S
C1577 C175 0.989 . S
C1591 C325 0.970 . S
C1595 C87 0.975 . S
C1609 C107 0.980 . S
C1613 C303 0.993 . S
C1627 C121 0.972 . S
C1631 C317 0.976 . S
C1645 C135 0.970 . S
C1649 C443 0.980 . S
C1663 C149 0.991 . S
C1667 C457 0.973 . S
C1681 C423 0.985 . S
C1685 C157 0.990 . S
C1699 C219 0.984 . S
C1703 C359 0.980 . S
C1717 C373 0.979 . S
C1721 C233 0.984 . S
C1735 C343 0.996 . S
C1739 C245 0.989 . S
C1753 C493 0.990 . S
C1757 C255 0.986 . S
C1771 C275 0.971 . S
C1775 C471 0.978 . S
C1789 C289 0.984 . S
C1793 C485 0.994 . S
