# Generated by pormake.
# Topology uoc, (4)-cn, num edge types: 1
# Building blocks:
#     Node 0, Type 0, BuildingBlock: QUQFOY_clean_sbu_3, # of connection points: 4
#     Node 1, Type 0, BuildingBlock: QUQFOY_clean_sbu_3, # of connection points: 4
#     Node 2, Type 0, BuildingBlock: QUQFOY_clean_sbu_3, # of connection points: 4
#     Node 3, Type 0, BuildingBlock: QUQFOY_clean_sbu_3, # of connection points: 4
#     Node 4, Type 0, BuildingBlock: QUQFOY_clean_sbu_3, # of connection points: 4
#     Node 5, Type 0, BuildingBlock: QUQFOY_clean_sbu_3, # of connection points: 4
#     Node 6, Type 0, BuildingBlock: QUQFOY_clean_sbu_3, # of connection points: 4
#     Node 7, Type 0, BuildingBlock: QUQFOY_clean_sbu_3, # of connection points: 4
#     Edge 8, Type (0, 0), BuildingBlock: OJICUG_clean_linker_0, # of connection points: 2
#     Edge 9, Type (0, 0), BuildingBlock: OJICUG_clean_linker_0, # of connection points: 2
#     Edge 10, Type (0, 0), BuildingBlock: OJICUG_clean_linker_0, # of connection points: 2
#     Edge 11, Type (0, 0), BuildingBlock: OJICUG_clean_linker_0, # of connection points: 2
#     Edge 12, Type (0, 0), BuildingBlock: OJICUG_clean_linker_0, # of connection points: 2
#     Edge 13, Type (0, 0), BuildingBlock: OJICUG_clean_linker_0, # of connection points: 2
#     Edge 14, Type (0, 0), BuildingBlock: OJICUG_clean_linker_0, # of connection points: 2
#     Edge 15, Type (0, 0), BuildingBlock: OJICUG_clean_linker_0, # of connection points: 2
#     Edge 16, Type (0, 0), BuildingBlock: OJICUG_clean_linker_0, # of connection points: 2
#     Edge 17, Type (0, 0), BuildingBlock: OJICUG_clean_linker_0, # of connection points: 2
#     Edge 18, Type (0, 0), BuildingBlock: OJICUG_clean_linker_0, # of connection points: 2
#     Edge 19, Type (0, 0), BuildingBlock: OJICUG_clean_linker_0, # of connection points: 2
#     Edge 20, Type (0, 0), BuildingBlock: OJICUG_clean_linker_0, # of connection points: 2
#     Edge 21, Type (0, 0), BuildingBlock: OJICUG_clean_linker_0, # of connection points: 2
#     Edge 22, Type (0, 0), BuildingBlock: OJICUG_clean_linker_0, # of connection points: 2
#     Edge 23, Type (0, 0), BuildingBlock: OJICUG_clean_linker_0, # of connection points: 2
# Relax obj value: 0.101
# Max RMSD: 0.112
# Mean RMSD: 0.112
data_MOF--net-uoc--node1-QUQFOY_clean_sbu_3--edge1-OJICUG_clean_linker_0
_symmetry_space_group_name_H-M    P1
_symmetry_Int_Tables_number       1
_symmetry_cell_setting            triclinic
loop_
_symmetry_equiv_pos_as_xyz
'x, y, z'
_cell_length_a     20.470102
_cell_length_b     20.399207
_cell_length_c     43.67701
_cell_angle_alpha  90.081679
_cell_angle_beta   90.055189
_cell_angle_gamma 97.15787
loop_
_atom_site_label
_atom_site_type_symbol
_atom_site_fract_x
_atom_site_fract_y
_atom_site_fract_z
_atom_type_partial_charge
C0 C 0.24612 0.2543 0.02346 0.0
O1 O 0.27998 0.2186 0.03916 0.0
Cd2 Cd 0.24337 0.18244 0.08935 0.0
O3 O 0.19506 0.27421 0.03495 0.0
Cd4 Cd 0.13505 0.26732 0.08379 0.0
C5 C 0.08877 0.10612 0.07391 0.0
O6 O 0.222 0.27206 0.12281 0.0
O7 O 0.12371 0.23123 0.13652 0.0
O8 O 0.1257 0.38516 0.08213 0.0
C9 C 0.18207 0.25314 0.14421 0.0
O10 O 0.14723 0.09926 0.08215 0.0
C11 C 0.06323 0.37832 0.08251 0.0
O12 O 0.07148 0.16338 0.07049 0.0
O13 O 0.03412 0.31964 0.08345 0.0
C14 C 0.75366 0.74905 0.39262 0.0
O15 O 0.71876 0.78311 0.37659 0.0
Cd16 Cd 0.68363 0.74598 0.32627 0.0
O17 O 0.77366 0.69765 0.38133 0.0
Cd18 Cd 0.76809 0.63734 0.33238 0.0
C19 C 0.60738 0.5909 0.34165 0.0
O20 O 0.773 0.72393 0.2931 0.0
O21 O 0.73193 0.62513 0.27966 0.0
O22 O 0.88572 0.62872 0.33419 0.0
C23 C 0.75395 0.68348 0.2718 0.0
O24 O 0.6008 0.64955 0.33334 0.0
C25 C 0.87931 0.56604 0.33378 0.0
O26 O 0.66433 0.57339 0.3453 0.0
O27 O 0.82097 0.53647 0.33286 0.0
C28 C 0.23567 0.23419 0.52343 0.0
O29 O 0.20174 0.26974 0.5392 0.0
Cd30 Cd 0.23818 0.30535 0.58957 0.0
O31 O 0.28661 0.21407 0.53495 0.0
Cd32 Cd 0.34631 0.22034 0.58393 0.0
C33 C 0.39288 0.38152 0.57447 0.0
O34 O 0.25938 0.21559 0.62289 0.0
O35 O 0.35769 0.25644 0.63671 0.0
O36 O 0.35557 0.10246 0.58206 0.0
C37 C 0.29935 0.23451 0.64434 0.0
O38 O 0.33443 0.38844 0.58267 0.0
C39 C 0.41804 0.10928 0.58254 0.0
O40 O 0.41009 0.32424 0.57095 0.0
O41 O 0.44716 0.16795 0.58362 0.0
C42 C 0.72846 0.73949 0.89252 0.0
O43 O 0.76353 0.70566 0.87645 0.0
Cd44 Cd 0.79878 0.74317 0.82629 0.0
O45 O 0.70845 0.79097 0.88137 0.0
Cd46 Cd 0.71419 0.85186 0.83265 0.0
C47 C 0.87495 0.89823 0.84212 0.0
O48 O 0.70925 0.7654 0.79322 0.0
O49 O 0.75002 0.86427 0.77993 0.0
O50 O 0.59658 0.86051 0.83447 0.0
C51 C 0.72812 0.80589 0.77198 0.0
O52 O 0.88153 0.83963 0.83366 0.0
C53 C 0.60299 0.92319 0.83422 0.0
O54 O 0.818 0.91572 0.84579 0.0
O55 O 0.66133 0.95276 0.83339 0.0
C56 C 0.74529 0.75755 0.52317 0.0
O57 O 0.77899 0.72226 0.5392 0.0
Cd58 Cd 0.74221 0.68748 0.58953 0.0
O59 O 0.69429 0.77802 0.53445 0.0
Cd60 Cd 0.63435 0.7726 0.58337 0.0
C61 C 0.58742 0.6114 0.57423 0.0
O62 O 0.72087 0.77762 0.62265 0.0
O63 O 0.62247 0.73664 0.6361 0.0
O64 O 0.62518 0.89053 0.58163 0.0
C65 C 0.68067 0.75872 0.64395 0.0
O66 O 0.6458 0.60455 0.58259 0.0
C67 C 0.5627 0.88374 0.58199 0.0
O68 O 0.57031 0.66863 0.57047 0.0
O69 O 0.53356 0.82507 0.58286 0.0
C70 C 0.25266 0.24936 0.89296 0.0
O71 O 0.21747 0.28372 0.87723 0.0
Cd72 Cd 0.18143 0.24725 0.82693 0.0
O73 O 0.27229 0.19807 0.88139 0.0
Cd74 Cd 0.26589 0.13812 0.83241 0.0
C75 C 0.10513 0.09208 0.84212 0.0
O76 O 0.27053 0.22542 0.79353 0.0
O77 O 0.22988 0.12678 0.77965 0.0
O78 O 0.38344 0.12939 0.83429 0.0
C79 C 0.25156 0.18539 0.77205 0.0
O80 O 0.09851 0.15086 0.83403 0.0
C81 C 0.37702 0.06671 0.83378 0.0
O82 O 0.1621 0.07443 0.84547 0.0
O83 O 0.31867 0.03717 0.83267 0.0
C84 C 0.7361 0.72998 0.02301 0.0
O85 O 0.70239 0.76529 0.03904 0.0
Cd86 Cd 0.73948 0.80058 0.08933 0.0
O87 O 0.78717 0.70963 0.0343 0.0
Cd88 Cd 0.84725 0.71524 0.08326 0.0
C89 C 0.89427 0.87627 0.07384 0.0
O90 O 0.76091 0.71076 0.1225 0.0
O91 O 0.85939 0.75175 0.13597 0.0
O92 O 0.85623 0.59723 0.08151 0.0
C93 C 0.80119 0.72984 0.14381 0.0
O94 O 0.83594 0.88327 0.08219 0.0
C95 C 0.9187 0.60396 0.08195 0.0
O96 O 0.91134 0.81896 0.07021 0.0
O97 O 0.94791 0.6626 0.08286 0.0
C98 C 0.22977 0.2402 0.39286 0.0
O99 O 0.26491 0.20578 0.37713 0.0
Cd100 Cd 0.30065 0.24175 0.32681 0.0
O101 O 0.21004 0.29141 0.38131 0.0
Cd102 Cd 0.21629 0.35091 0.33227 0.0
C103 C 0.37713 0.39706 0.34179 0.0
O104 O 0.21133 0.26323 0.29342 0.0
O105 O 0.25209 0.3617 0.27951 0.0
O106 O 0.09876 0.35975 0.33402 0.0
C107 C 0.23025 0.30306 0.27194 0.0
O108 O 0.38366 0.3382 0.33373 0.0
C109 C 0.10522 0.42243 0.33349 0.0
O110 O 0.3202 0.41475 0.34521 0.0
O111 O 0.16358 0.45193 0.33245 0.0
C112 C 0.22369 0.30648 -0.02662 0.0
C113 C 0.25993 0.2651 -0.0095 0.0
H114 H 0.19383 0.33491 0.9289 0.0
C115 C 0.30259 0.22742 -0.02491 0.0
H116 H 0.191 0.33681 -0.0154 0.0
C117 C 0.30396 0.22611 0.94313 0.0
C118 C 0.26308 0.26283 0.926 0.0
H119 H 0.33161 0.19546 -0.0124 0.0
H120 H 0.33424 0.19336 0.93191 0.0
C121 C 0.22544 0.30554 0.94142 0.0
C122 C 0.72116 0.66446 0.2172 0.0
C123 C 0.75998 0.70158 0.23921 0.0
H124 H 0.70283 0.64552 0.16949 0.0
C125 C 0.80817 0.75227 0.22959 0.0
H126 H 0.6834 0.62529 0.22408 0.0
C127 C 0.8201 0.76293 0.1984 0.0
C128 C 0.78297 0.7241 0.17639 0.0
H129 H 0.8388 0.78148 0.24611 0.0
H130 H 0.85944 0.80051 0.19152 0.0
C131 C 0.73206 0.67616 0.18601 0.0
C132 C 0.25824 0.18247 0.47321 0.0
C133 C 0.2221 0.22386 0.49039 0.0
H134 H 0.28816 0.15424 0.4287 0.0
C135 C 0.1798 0.26199 0.47502 0.0
H136 H 0.29066 0.15183 0.48439 0.0
C137 C 0.17863 0.26361 0.44306 0.0
C138 C 0.21935 0.22676 0.42588 0.0
H139 H 0.1509 0.29401 0.48757 0.0
H140 H 0.1486 0.29663 0.43188 0.0
C141 C 0.25669 0.18371 0.44125 0.0
C142 C 0.76052 0.82502 0.71738 0.0
C143 C 0.72203 0.78773 0.73937 0.0
H144 H 0.77856 0.84386 0.66969 0.0
C145 C 0.67414 0.73669 0.72971 0.0
H146 H 0.79806 0.86447 0.7243 0.0
C147 C 0.66217 0.72582 0.69852 0.0
C148 C 0.69898 0.76478 0.67653 0.0
H149 H 0.64376 0.70734 0.74621 0.0
H150 H 0.62306 0.68794 0.69161 0.0
C151 C 0.7496 0.81311 0.68619 0.0
C152 C 0.26271 0.32051 0.21727 0.0
C153 C 0.22412 0.28396 0.23945 0.0
H154 H 0.28061 0.33818 0.16949 0.0
C155 C 0.176 0.23286 0.23006 0.0
H156 H 0.30043 0.35997 0.22398 0.0
C157 C 0.16385 0.2213 0.19893 0.0
C158 C 0.20069 0.25963 0.17674 0.0
H159 H 0.14555 0.20405 0.24672 0.0
H160 H 0.12453 0.18346 0.19222 0.0
C161 C 0.2516 0.30792 0.18614 0.0
C162 C 0.80203 0.72891 0.47514 0.0
C163 C 0.75931 0.76718 0.49016 0.0
H164 H 0.83422 0.69358 0.4323 0.0
C165 C 0.72334 0.80808 0.47263 0.0
H166 H 0.83083 0.69726 0.48797 0.0
C167 C 0.72554 0.80625 0.44068 0.0
C168 C 0.76336 0.76309 0.42566 0.0
H169 H 0.69058 0.83881 0.48352 0.0
H170 H 0.69421 0.83538 0.42786 0.0
C171 C 0.80384 0.7267 0.4432 0.0
C172 C 0.3175 0.26681 0.69906 0.0
C173 C 0.28078 0.22816 0.67686 0.0
H174 H 0.33582 0.28451 0.74685 0.0
C175 C 0.23009 0.17973 0.68623 0.0
H176 H 0.35666 0.30476 0.69237 0.0
C177 C 0.21908 0.16734 0.71736 0.0
C178 C 0.25756 0.20423 0.73956 0.0
H179 H 0.20118 0.14923 0.66956 0.0
H180 H 0.18153 0.12778 0.72405 0.0
C181 C 0.30546 0.25545 0.73019 0.0
C182 C 0.67933 0.75859 -0.02502 0.0
C183 C 0.72213 0.72038 -0.01003 0.0
H184 H 0.64731 0.79419 0.93218 0.0
C185 C 0.75834 0.67975 -0.02761 0.0
H186 H 0.65034 0.79003 -0.01216 0.0
C187 C 0.75635 0.68186 0.94045 0.0
C188 C 0.71851 0.72505 0.92549 0.0
H189 H 0.79117 0.64907 -0.01674 0.0
H190 H 0.78789 0.65298 0.9276 0.0
C191 C 0.67773 0.76109 0.94304 0.0
C192 C 0.97177 0.05428 0.06968 0.0
C193 C 0.03924 0.04736 0.07047 0.0
H194 H 0.87296 0.0056 0.0702 0.0
C195 C 0.05854 0.98367 0.06991 0.0
H196 H 0.95526 0.1027 0.07004 0.0
C197 C 0.01132 0.92802 0.0697 0.0
C198 C 0.94385 0.93496 0.07044 0.0
H199 H 0.11015 0.97672 0.07029 0.0
H200 H 0.02781 0.87959 0.07009 0.0
C201 C 0.92456 -0.00136 0.06986 0.0
C202 C 0.98342 0.4252 0.3341 0.0
C203 C 0.04748 0.4592 0.3339 0.0
H204 H 0.88 0.4323 0.33421 0.0
C205 C 0.05582 0.52861 0.33393 0.0
H206 H 0.9754 0.3717 0.33409 0.0
C207 C 0.00116 0.56332 0.33405 0.0
C208 C 0.93709 0.52931 0.33409 0.0
H209 H 0.10459 0.55621 0.33379 0.0
H210 H 0.00917 0.61682 0.33397 0.0
C211 C 0.92876 0.4599 0.33417 0.0
C212 C 0.50989 0.43331 0.57039 0.0
C213 C 0.44242 0.44024 0.57111 0.0
H214 H 0.60872 0.482 0.57089 0.0
C215 C 0.42313 0.50393 0.57047 0.0
H216 H 0.5264 0.38489 0.57083 0.0
C217 C 0.47035 0.55958 0.57021 0.0
C218 C 0.53783 0.55265 0.57097 0.0
H219 H 0.37153 0.51088 0.5708 0.0
H220 H 0.45386 0.60801 0.57051 0.0
C221 C 0.55711 0.48895 0.57052 0.0
C222 C 0.55352 0.02932 0.83469 0.0
C223 C 0.54521 0.95991 0.83455 0.0
H224 H 0.50684 0.11751 0.83461 0.0
C225 C 0.48115 0.92588 0.83442 0.0
H226 H 0.60227 0.05694 0.83481 0.0
C227 C 0.42647 0.96057 0.83426 0.0
C228 C 0.43478 0.02998 0.83427 0.0
H229 H 0.47315 0.87238 0.8343 0.0
H230 H 0.37772 0.93295 0.83405 0.0
C231 C 0.49884 0.06401 0.83458 0.0
C232 C 0.9221 0.4818 0.08171 0.0
C233 C 0.95565 0.54623 0.0817 0.0
H234 H 0.92982 0.37814 0.082 0.0
C235 C 0.02481 0.55501 0.08172 0.0
H236 H 0.8688 0.47345 0.0817 0.0
C237 C 0.05975 0.50042 0.08186 0.0
C238 C 0.02622 0.43599 0.08203 0.0
H239 H 0.05206 0.60407 0.0817 0.0
H240 H 0.11306 0.50879 0.08195 0.0
C241 C 0.95705 0.4272 0.0819 0.0
C242 C 0.49926 0.42667 0.34571 0.0
C243 C 0.43597 0.44648 0.34509 0.0
H244 H 0.60311 0.45681 0.34555 0.0
C245 C 0.42954 0.5143 0.34573 0.0
H246 H 0.50583 0.3748 0.34544 0.0
C247 C 0.48528 0.56133 0.34551 0.0
C248 C 0.54857 0.54151 0.34502 0.0
H249 H 0.38144 0.5312 0.34531 0.0
H250 H 0.4787 0.61319 0.34508 0.0
C251 C 0.55501 0.47372 0.34587 0.0
C252 C 0.42155 0.98716 0.58177 0.0
C253 C 0.45506 0.05162 0.58203 0.0
H254 H 0.42932 0.88353 0.58156 0.0
C255 C 0.52422 0.06044 0.58198 0.0
H256 H 0.36825 0.97878 0.5818 0.0
C257 C 0.5592 0.00587 0.5818 0.0
C258 C 0.5257 0.94141 0.58172 0.0
H259 H 0.55143 0.10951 0.58215 0.0
H260 H 0.61251 0.01425 0.58186 0.0
C261 C 0.45653 0.9326 0.58164 0.0
C262 C -0.00295 0.92785 0.84601 0.0
C263 C 0.93375 0.94764 0.84555 0.0
H264 H 0.10088 0.95799 0.84573 0.0
C265 C 0.92731 0.01544 0.84642 0.0
H266 H 0.00364 0.87598 0.84556 0.0
C267 C 0.98304 0.06249 0.84622 0.0
C268 C 0.04634 0.04269 0.84553 0.0
H269 H 0.8792 0.03233 0.84614 0.0
H270 H 0.97646 0.11436 0.84595 0.0
C271 C 0.05278 0.97489 0.84619 0.0
loop_
_geom_bond_atom_site_label_1
_geom_bond_atom_site_label_2
_geom_bond_distance
_geom_bond_site_symmetry_2
_ccdc_geom_bond_type
C0 O1 1.306 . S
C0 O3 1.160 . S
O1 C0 1.306 . S
O1 Cd2 2.228 . S
Cd2 O1 2.228 . S
Cd2 O6 2.273 . S
Cd2 O10 2.277 . S
O3 C0 1.160 . S
O3 Cd4 2.203 . S
Cd4 O3 2.203 . S
Cd4 O6 2.411 . S
Cd4 O7 2.333 . S
Cd4 O8 2.352 . S
Cd4 O12 2.277 . S
Cd4 O13 2.356 . S
C5 O10 1.209 . S
C5 O12 1.226 . S
O6 Cd2 2.273 . S
O6 Cd4 2.411 . S
O6 C9 1.320 . S
O7 Cd4 2.333 . S
O7 C9 1.214 . S
O8 Cd4 2.352 . S
O8 C11 1.258 . S
C9 O6 1.320 . S
C9 O7 1.214 . S
O10 Cd2 2.277 . S
O10 C5 1.209 . S
C11 O8 1.258 . S
C11 O13 1.282 . S
O12 Cd4 2.277 . S
O12 C5 1.226 . S
O13 Cd4 2.356 . S
O13 C11 1.282 . S
C14 O15 1.306 . S
C14 O17 1.160 . S
O15 C14 1.306 . S
O15 Cd16 2.228 . S
Cd16 O15 2.228 . S
Cd16 O20 2.273 . S
Cd16 O24 2.277 . S
O17 C14 1.160 . S
O17 Cd18 2.203 . S
Cd18 O17 2.203 . S
Cd18 O20 2.411 . S
Cd18 O21 2.333 . S
Cd18 O22 2.352 . S
Cd18 O26 2.277 . S
Cd18 O27 2.356 . S
C19 O24 1.209 . S
C19 O26 1.226 . S
O20 Cd16 2.273 . S
O20 Cd18 2.411 . S
O20 C23 1.320 . S
O21 Cd18 2.333 . S
O21 C23 1.214 . S
O22 Cd18 2.352 . S
O22 C25 1.258 . S
C23 O20 1.320 . S
C23 O21 1.214 . S
O24 Cd16 2.277 . S
O24 C19 1.209 . S
C25 O22 1.258 . S
C25 O27 1.282 . S
O26 Cd18 2.277 . S
O26 C19 1.226 . S
O27 Cd18 2.356 . S
O27 C25 1.282 . S
C28 O29 1.306 . S
C28 O31 1.160 . S
O29 C28 1.306 . S
O29 Cd30 2.228 . S
Cd30 O29 2.228 . S
Cd30 O34 2.273 . S
Cd30 O38 2.277 . S
O31 C28 1.160 . S
O31 Cd32 2.203 . S
Cd32 O31 2.203 . S
Cd32 O34 2.411 . S
Cd32 O35 2.333 . S
Cd32 O36 2.352 . S
Cd32 O40 2.277 . S
Cd32 O41 2.356 . S
C33 O38 1.209 . S
C33 O40 1.226 . S
O34 Cd30 2.273 . S
O34 Cd32 2.411 . S
O34 C37 1.320 . S
O35 Cd32 2.333 . S
O35 C37 1.214 . S
O36 Cd32 2.352 . S
O36 C39 1.258 . S
C37 O34 1.320 . S
C37 O35 1.214 . S
O38 Cd30 2.277 . S
O38 C33 1.209 . S
C39 O36 1.258 . S
C39 O41 1.282 . S
O40 Cd32 2.277 . S
O40 C33 1.226 . S
O41 Cd32 2.356 . S
O41 C39 1.282 . S
C42 O43 1.306 . S
C42 O45 1.160 . S
O43 C42 1.306 . S
O43 Cd44 2.228 . S
Cd44 O43 2.228 . S
Cd44 O48 2.273 . S
Cd44 O52 2.277 . S
O45 C42 1.160 . S
O45 Cd46 2.203 . S
Cd46 O45 2.203 . S
Cd46 O48 2.411 . S
Cd46 O49 2.333 . S
Cd46 O50 2.352 . S
Cd46 O54 2.277 . S
Cd46 O55 2.356 . S
C47 O52 1.209 . S
C47 O54 1.226 . S
O48 Cd44 2.273 . S
O48 Cd46 2.411 . S
O48 C51 1.320 . S
O49 Cd46 2.333 . S
O49 C51 1.214 . S
O50 Cd46 2.352 . S
O50 C53 1.258 . S
C51 O48 1.320 . S
C51 O49 1.214 . S
O52 Cd44 2.277 . S
O52 C47 1.209 . S
C53 O50 1.258 . S
C53 O55 1.282 . S
O54 Cd46 2.277 . S
O54 C47 1.226 . S
O55 Cd46 2.356 . S
O55 C53 1.282 . S
C56 O57 1.306 . S
C56 O59 1.160 . S
O57 C56 1.306 . S
O57 Cd58 2.228 . S
Cd58 O57 2.228 . S
Cd58 O62 2.273 . S
Cd58 O66 2.277 . S
O59 C56 1.160 . S
O59 Cd60 2.203 . S
Cd60 O59 2.203 . S
Cd60 O62 2.411 . S
Cd60 O63 2.333 . S
Cd60 O64 2.352 . S
Cd60 O68 2.277 . S
Cd60 O69 2.356 . S
C61 O66 1.209 . S
C61 O68 1.226 . S
O62 Cd58 2.273 . S
O62 Cd60 2.411 . S
O62 C65 1.320 . S
O63 Cd60 2.333 . S
O63 C65 1.214 . S
O64 Cd60 2.352 . S
O64 C67 1.258 . S
C65 O62 1.320 . S
C65 O63 1.214 . S
O66 Cd58 2.277 . S
O66 C61 1.209 . S
C67 O64 1.258 . S
C67 O69 1.282 . S
O68 Cd60 2.277 . S
O68 C61 1.226 . S
O69 Cd60 2.356 . S
O69 C67 1.282 . S
C70 O71 1.306 . S
C70 O73 1.160 . S
O71 C70 1.306 . S
O71 Cd72 2.228 . S
Cd72 O71 2.228 . S
Cd72 O76 2.273 . S
Cd72 O80 2.277 . S
O73 C70 1.160 . S
O73 Cd74 2.203 . S
Cd74 O73 2.203 . S
Cd74 O76 2.411 . S
Cd74 O77 2.333 . S
Cd74 O78 2.352 . S
Cd74 O82 2.277 . S
Cd74 O83 2.356 . S
C75 O80 1.209 . S
C75 O82 1.226 . S
O76 Cd72 2.273 . S
O76 Cd74 2.411 . S
O76 C79 1.320 . S
O77 Cd74 2.333 . S
O77 C79 1.214 . S
O78 Cd74 2.352 . S
O78 C81 1.258 . S
C79 O76 1.320 . S
C79 O77 1.214 . S
O80 Cd72 2.277 . S
O80 C75 1.209 . S
C81 O78 1.258 . S
C81 O83 1.282 . S
O82 Cd74 2.277 . S
O82 C75 1.226 . S
O83 Cd74 2.356 . S
O83 C81 1.282 . S
C84 O85 1.306 . S
C84 O87 1.160 . S
O85 C84 1.306 . S
O85 Cd86 2.228 . S
Cd86 O85 2.228 . S
Cd86 O90 2.273 . S
Cd86 O94 2.277 . S
O87 C84 1.160 . S
O87 Cd88 2.203 . S
Cd88 O87 2.203 . S
Cd88 O90 2.411 . S
Cd88 O91 2.333 . S
Cd88 O92 2.352 . S
Cd88 O96 2.277 . S
Cd88 O97 2.356 . S
C89 O94 1.209 . S
C89 O96 1.226 . S
O90 Cd86 2.273 . S
O90 Cd88 2.411 . S
O90 C93 1.320 . S
O91 Cd88 2.333 . S
O91 C93 1.214 . S
O92 Cd88 2.352 . S
O92 C95 1.258 . S
C93 O90 1.320 . S
C93 O91 1.214 . S
O94 Cd86 2.277 . S
O94 C89 1.209 . S
C95 O92 1.258 . S
C95 O97 1.282 . S
O96 Cd88 2.277 . S
O96 C89 1.226 . S
O97 Cd88 2.356 . S
O97 C95 1.282 . S
C98 O99 1.306 . S
C98 O101 1.160 . S
O99 C98 1.306 . S
O99 Cd100 2.228 . S
Cd100 O99 2.228 . S
Cd100 O104 2.273 . S
Cd100 O108 2.277 . S
O101 C98 1.160 . S
O101 Cd102 2.203 . S
Cd102 O101 2.203 . S
Cd102 O104 2.411 . S
Cd102 O105 2.333 . S
Cd102 O106 2.352 . S
Cd102 O110 2.277 . S
Cd102 O111 2.356 . S
C103 O108 1.209 . S
C103 O110 1.226 . S
O104 Cd100 2.273 . S
O104 Cd102 2.411 . S
O104 C107 1.320 . S
O105 Cd102 2.333 . S
O105 C107 1.214 . S
O106 Cd102 2.352 . S
O106 C109 1.258 . S
C107 O104 1.320 . S
C107 O105 1.214 . S
O108 Cd100 2.277 . S
O108 C103 1.209 . S
C109 O106 1.258 . S
C109 O111 1.282 . S
O110 Cd102 2.277 . S
O110 C103 1.226 . S
O111 Cd102 2.356 . S
O111 C109 1.282 . S
C112 C113 1.387 . S
C112 H116 0.950 . S
C112 C121 1.390 1_554 S
C113 C112 1.387 . S
C113 C115 1.387 . S
H114 C121 0.950 . S
C115 C113 1.387 . S
C115 C117 1.390 1_554 S
C115 H119 0.950 . S
H116 C112 0.950 . S
C117 C115 1.390 1_556 S
C117 C118 1.387 . S
C117 H120 0.950 . S
C118 C117 1.387 . S
C118 C121 1.387 . S
H119 C115 0.950 . S
H120 C117 0.950 . S
C121 C112 1.390 1_556 S
C121 H114 0.950 . S
C121 C118 1.387 . S
C122 C123 1.387 . S
C122 H126 0.950 . S
C122 C131 1.390 . S
C123 C122 1.387 . S
C123 C125 1.387 . S
H124 C131 0.950 . S
C125 C123 1.387 . S
C125 C127 1.390 . S
C125 H129 0.950 . S
H126 C122 0.950 . S
C127 C125 1.390 . S
C127 C128 1.387 . S
C127 H130 0.950 . S
C128 C127 1.387 . S
C128 C131 1.387 . S
H129 C125 0.950 . S
H130 C127 0.950 . S
C131 C122 1.390 . S
C131 H124 0.950 . S
C131 C128 1.387 . S
C132 C133 1.387 . S
C132 H136 0.950 . S
C132 C141 1.390 . S
C133 C132 1.387 . S
C133 C135 1.387 . S
H134 C141 0.950 . S
C135 C133 1.387 . S
C135 C137 1.390 . S
C135 H139 0.950 . S
H136 C132 0.950 . S
C137 C135 1.390 . S
C137 C138 1.387 . S
C137 H140 0.950 . S
C138 C137 1.387 . S
C138 C141 1.387 . S
H139 C135 0.950 . S
H140 C137 0.950 . S
C141 C132 1.390 . S
C141 H134 0.950 . S
C141 C138 1.387 . S
C142 C143 1.387 . S
C142 H146 0.950 . S
C142 C151 1.390 . S
C143 C142 1.387 . S
C143 C145 1.387 . S
H144 C151 0.950 . S
C145 C143 1.387 . S
C145 C147 1.390 . S
C145 H149 0.950 . S
H146 C142 0.950 . S
C147 C145 1.390 . S
C147 C148 1.387 . S
C147 H150 0.950 . S
C148 C147 1.387 . S
C148 C151 1.387 . S
H149 C145 0.950 . S
H150 C147 0.950 . S
C151 C142 1.390 . S
C151 H144 0.950 . S
C151 C148 1.387 . S
C152 C153 1.387 . S
C152 H156 0.950 . S
C152 C161 1.390 . S
C153 C152 1.387 . S
C153 C155 1.387 . S
H154 C161 0.950 . S
C155 C153 1.387 . S
C155 C157 1.390 . S
C155 H159 0.950 . S
H156 C152 0.950 . S
C157 C155 1.390 . S
C157 C158 1.387 . S
C157 H160 0.950 . S
C158 C157 1.387 . S
C158 C161 1.387 . S
H159 C155 0.950 . S
H160 C157 0.950 . S
C161 C152 1.390 . S
C161 H154 0.950 . S
C161 C158 1.387 . S
C162 C163 1.387 . S
C162 H166 0.950 . S
C162 C171 1.390 . S
C163 C162 1.387 . S
C163 C165 1.387 . S
H164 C171 0.950 . S
C165 C163 1.387 . S
C165 C167 1.390 . S
C165 H169 0.950 . S
H166 C162 0.950 . S
C167 C165 1.390 . S
C167 C168 1.387 . S
C167 H170 0.950 . S
C168 C167 1.387 . S
C168 C171 1.387 . S
H169 C165 0.950 . S
H170 C167 0.950 . S
C171 C162 1.390 . S
C171 H164 0.950 . S
C171 C168 1.387 . S
C172 C173 1.387 . S
C172 H176 0.950 . S
C172 C181 1.390 . S
C173 C172 1.387 . S
C173 C175 1.387 . S
H174 C181 0.950 . S
C175 C173 1.387 . S
C175 C177 1.390 . S
C175 H179 0.950 . S
H176 C172 0.950 . S
C177 C175 1.390 . S
C177 C178 1.387 . S
C177 H180 0.950 . S
C178 C177 1.387 . S
C178 C181 1.387 . S
H179 C175 0.950 . S
H180 C177 0.950 . S
C181 C172 1.390 . S
C181 H174 0.950 . S
C181 C178 1.387 . S
C182 C183 1.387 . S
C182 H186 0.950 . S
C182 C191 1.390 1_554 S
C183 C182 1.387 . S
C183 C185 1.387 . S
H184 C191 0.950 . S
C185 C183 1.387 . S
C185 C187 1.390 1_554 S
C185 H189 0.950 . S
H186 C182 0.950 . S
C187 C185 1.390 1_556 S
C187 C188 1.387 . S
C187 H190 0.950 . S
C188 C187 1.387 . S
C188 C191 1.387 . S
H189 C185 0.950 . S
H190 C187 0.950 . S
C191 C182 1.390 1_556 S
C191 H184 0.950 . S
C191 C188 1.387 . S
C192 C193 1.387 . S
C192 H196 0.950 . S
C192 C201 1.390 1_445 S
C193 C192 1.387 . S
C193 C195 1.387 . S
H194 C201 0.950 . S
C195 C193 1.387 . S
C195 C197 1.390 1_445 S
C195 H199 0.950 . S
H196 C192 0.950 . S
C197 C195 1.390 1_665 S
C197 C198 1.387 . S
C197 H200 0.950 . S
C198 C197 1.387 . S
C198 C201 1.387 . S
H199 C195 0.950 . S
H200 C197 0.950 . S
C201 C192 1.390 1_665 S
C201 H194 0.950 . S
C201 C198 1.387 . S
C202 C203 1.387 . S
C202 H206 0.950 . S
C202 C211 1.390 1_455 S
C203 C202 1.387 . S
C203 C205 1.387 . S
H204 C211 0.950 . S
C205 C203 1.387 . S
C205 C207 1.390 1_455 S
C205 H209 0.950 . S
H206 C202 0.950 . S
C207 C205 1.390 1_655 S
C207 C208 1.387 . S
C207 H210 0.950 . S
C208 C207 1.387 . S
C208 C211 1.387 . S
H209 C205 0.950 . S
H210 C207 0.950 . S
C211 C202 1.390 1_655 S
C211 H204 0.950 . S
C211 C208 1.387 . S
C212 C213 1.387 . S
C212 H216 0.950 . S
C212 C221 1.390 . S
C213 C212 1.387 . S
C213 C215 1.387 . S
H214 C221 0.950 . S
C215 C213 1.387 . S
C215 C217 1.390 . S
C215 H219 0.950 . S
H216 C212 0.950 . S
C217 C215 1.390 . S
C217 C218 1.387 . S
C217 H220 0.950 . S
C218 C217 1.387 . S
C218 C221 1.387 . S
H219 C215 0.950 . S
H220 C217 0.950 . S
C221 C212 1.390 . S
C221 H214 0.950 . S
C221 C218 1.387 . S
C222 C223 1.387 . S
C222 H226 0.950 . S
C222 C231 1.390 1_565 S
C223 C222 1.387 . S
C223 C225 1.387 . S
H224 C231 0.950 . S
C225 C223 1.387 . S
C225 C227 1.390 1_565 S
C225 H229 0.950 . S
H226 C222 0.950 . S
C227 C225 1.390 1_545 S
C227 C228 1.387 . S
C227 H230 0.950 . S
C228 C227 1.387 . S
C228 C231 1.387 . S
H229 C225 0.950 . S
H230 C227 0.950 . S
C231 C222 1.390 1_545 S
C231 H224 0.950 . S
C231 C228 1.387 . S
C232 C233 1.387 . S
C232 H236 0.950 . S
C232 C241 1.390 1_655 S
C233 C232 1.387 . S
C233 C235 1.387 . S
H234 C241 0.950 . S
C235 C233 1.387 . S
C235 C237 1.390 1_655 S
C235 H239 0.950 . S
H236 C232 0.950 . S
C237 C235 1.390 1_455 S
C237 C238 1.387 . S
C237 H240 0.950 . S
C238 C237 1.387 . S
C238 C241 1.387 . S
H239 C235 0.950 . S
H240 C237 0.950 . S
C241 C232 1.390 1_455 S
C241 H234 0.950 . S
C241 C238 1.387 . S
C242 C243 1.387 . S
C242 H246 0.950 . S
C242 C251 1.390 . S
C243 C242 1.387 . S
C243 C245 1.387 . S
H244 C251 0.950 . S
C245 C243 1.387 . S
C245 C247 1.390 . S
C245 H249 0.950 . S
H246 C242 0.950 . S
C247 C245 1.390 . S
C247 C248 1.387 . S
C247 H250 0.950 . S
C248 C247 1.387 . S
C248 C251 1.387 . S
H249 C245 0.950 . S
H250 C247 0.950 . S
C251 C242 1.390 . S
C251 H244 0.950 . S
C251 C248 1.387 . S
C252 C253 1.387 . S
C252 H256 0.950 . S
C252 C261 1.390 1_545 S
C253 C252 1.387 . S
C253 C255 1.387 . S
H254 C261 0.950 . S
C255 C253 1.387 . S
C255 C257 1.390 1_545 S
C255 H259 0.950 . S
H256 C252 0.950 . S
C257 C255 1.390 1_565 S
C257 C258 1.387 . S
C257 H260 0.950 . S
C258 C257 1.387 . S
C258 C261 1.387 . S
H259 C255 0.950 . S
H260 C257 0.950 . S
C261 C252 1.390 1_565 S
C261 H254 0.950 . S
C261 C258 1.387 . S
C262 C263 1.387 . S
C262 H266 0.950 . S
C262 C271 1.390 1_665 S
C263 C262 1.387 . S
C263 C265 1.387 . S
H264 C271 0.950 . S
C265 C263 1.387 . S
C265 C267 1.390 1_665 S
C265 H269 0.950 . S
H266 C262 0.950 . S
C267 C265 1.390 1_445 S
C267 C268 1.387 . S
C267 H270 0.950 . S
C268 C267 1.387 . S
C268 C271 1.387 . S
H269 C265 0.950 . S
H270 C267 0.950 . S
C271 C262 1.390 1_445 S
C271 H264 0.950 . S
C271 C268 1.387 . S
C113 C0 1.340 . S
C118 C70 1.342 . S
C123 C23 1.318 . S
C128 C93 1.318 . S
C133 C28 1.341 . S
C138 C98 1.341 . S
C143 C51 1.319 . S
C148 C65 1.320 . S
C153 C107 1.317 . S
C158 C9 1.318 . S
C163 C56 1.342 . S
C168 C14 1.341 . S
C173 C37 1.317 . S
C178 C79 1.319 . S
C183 C84 1.342 . S
C188 C42 1.341 . S
C193 C5 1.575 . S
C198 C89 1.575 . S
C203 C109 1.566 . S
C208 C25 1.566 . S
C213 C33 1.575 . S
C218 C61 1.575 . S
C223 C53 1.564 . S
C228 C81 1.564 . S
C233 C95 1.566 . S
C238 C11 1.566 . S
C243 C103 1.573 . S
C248 C19 1.573 . S
C253 C39 1.566 . S
C258 C67 1.566 . S
C263 C47 1.575 . S
C268 C75 1.575 . S
