# Generated by pormake.
# Topology mok, (4)-cn, num edge types: 1
# Building blocks:
#     Node 0, Type 0, BuildingBlock: CEKHIL_clean_sbu_0, # of connection points: 4
#     Node 1, Type 0, BuildingBlock: CEKHIL_clean_sbu_0, # of connection points: 4
#     Node 2, Type 0, BuildingBlock: CEKHIL_clean_sbu_0, # of connection points: 4
#     Node 3, Type 0, BuildingBlock: CEKHIL_clean_sbu_0, # of connection points: 4
#     Node 4, Type 0, BuildingBlock: CEKHIL_clean_sbu_0, # of connection points: 4
#     Node 5, Type 0, BuildingBlock: CEKHIL_clean_sbu_0, # of connection points: 4
#     Node 6, Type 0, BuildingBlock: CEKHIL_clean_sbu_0, # of connection points: 4
#     Node 7, Type 0, BuildingBlock: CEKHIL_clean_sbu_0, # of connection points: 4
#     Edge 8, Type (0, 0), BuildingBlock: ZUJKAS_clean_linker_0, # of connection points: 2
#     Edge 9, Type (0, 0), BuildingBlock: ZUJKAS_clean_linker_0, # of connection points: 2
#     Edge 10, Type (0, 0), BuildingBlock: ZUJKAS_clean_linker_0, # of connection points: 2
#     Edge 11, Type (0, 0), BuildingBlock: ZUJKAS_clean_linker_0, # of connection points: 2
#     Edge 12, Type (0, 0), BuildingBlock: ZUJKAS_clean_linker_0, # of connection points: 2
#     Edge 13, Type (0, 0), BuildingBlock: ZUJKAS_clean_linker_0, # of connection points: 2
#     Edge 14, Type (0, 0), BuildingBlock: ZUJKAS_clean_linker_0, # of connection points: 2
#     Edge 15, Type (0, 0), BuildingBlock: ZUJKAS_clean_linker_0, # of connection points: 2
#     Edge 16, Type (0, 0), BuildingBlock: ZUJKAS_clean_linker_0, # of connection points: 2
#     Edge 17, Type (0, 0), BuildingBlock: ZUJKAS_clean_linker_0, # of connection points: 2
#     Edge 18, Type (0, 0), BuildingBlock: ZUJKAS_clean_linker_0, # of connection points: 2
#     Edge 19, Type (0, 0), BuildingBlock: ZUJKAS_clean_linker_0, # of connection points: 2
#     Edge 20, Type (0, 0), BuildingBlock: ZUJKAS_clean_linker_0, # of connection points: 2
#     Edge 21, Type (0, 0), BuildingBlock: ZUJKAS_clean_linker_0, # of connection points: 2
#     Edge 22, Type (0, 0), BuildingBlock: ZUJKAS_clean_linker_0, # of connection points: 2
#     Edge 23, Type (0, 0), BuildingBlock: ZUJKAS_clean_linker_0, # of connection points: 2
# Relax obj value: 0.018
# Max RMSD: 0.041
# Mean RMSD: 0.041
data_MOF--net-mok--node1-CEKHIL_clean_sbu_0--edge1-ZUJKAS_clean_linker_0
_symmetry_space_group_name_H-M    P1
_symmetry_Int_Tables_number       1
_symmetry_cell_setting            triclinic
loop_
_symmetry_equiv_pos_as_xyz
'x, y, z'
_cell_length_a     69.283291
_cell_length_b     19.892651
_cell_length_c     35.210754
_cell_angle_alpha  90.001534
_cell_angle_beta   90.012656
_cell_angle_gamma 89.968459
loop_
_atom_site_label
_atom_site_type_symbol
_atom_site_fract_x
_atom_site_fract_y
_atom_site_fract_z
_atom_type_partial_charge
Co0 Co 0.61225 0.3014 0.01337 0.0
O1 O 0.58499 0.28376 0.01694 0.0
O2 O 0.60611 0.21278 0.99253 0.0
C3 C 0.61534 0.34108 0.0732 0.0
O4 O 0.64187 0.30263 0.00734 0.0
Co5 Co 0.62668 0.44932 0.0222 0.0
O6 O 0.65228 0.40528 0.02514 0.0
C7 C 0.60748 0.40706 0.95149 0.0
C8 C 0.58826 0.22557 0.00179 0.0
C9 C 0.65557 0.34468 0.01519 0.0
O10 O 0.60847 0.34495 0.96186 0.0
O11 O 0.61221 0.45602 0.97317 0.0
O12 O 0.61551 0.27666 0.06701 0.0
O13 O 0.61162 0.37777 0.04399 0.0
Co14 Co 0.40149 0.69646 0.01639 0.0
O15 O 0.42887 0.71269 0.01909 0.0
O16 O 0.40781 0.78475 0.99544 0.0
C17 C 0.39882 0.65644 0.07622 0.0
O18 O 0.37182 0.69709 0.01125 0.0
Co19 Co 0.38609 0.54986 0.02569 0.0
O20 O 0.36088 0.59603 0.03051 0.0
C21 C 0.40501 0.59066 0.95433 0.0
C22 C 0.42568 0.77107 0.00409 0.0
C23 C 0.35791 0.65665 0.02023 0.0
O24 O 0.40461 0.65284 0.96473 0.0
O25 O 0.40001 0.54218 0.97612 0.0
O26 O 0.39887 0.72094 0.07025 0.0
O27 O 0.402 0.61983 0.04675 0.0
Co28 Co 0.61256 0.69525 0.49834 0.0
O29 O 0.5852 0.71206 0.49529 0.0
O30 O 0.60632 0.78399 0.51879 0.0
C31 C 0.61535 0.65414 0.43878 0.0
O32 O 0.64221 0.69542 0.50376 0.0
Co33 Co 0.62781 0.54831 0.49024 0.0
O34 O 0.65308 0.59388 0.48513 0.0
C35 C 0.60895 0.59094 0.56133 0.0
C36 C 0.58845 0.77054 0.5101 0.0
C37 C 0.6561 0.65463 0.49507 0.0
O38 O 0.60921 0.65272 0.5502 0.0
O39 O 0.61409 0.54182 0.54012 0.0
O40 O 0.61536 0.71874 0.44441 0.0
O41 O 0.61202 0.61804 0.46839 0.0
Co42 Co 0.40154 0.3002 0.50098 0.0
O43 O 0.42891 0.28392 0.49822 0.0
O44 O 0.40786 0.21139 0.5213 0.0
C45 C 0.39886 0.34131 0.44142 0.0
O46 O 0.37187 0.29959 0.50603 0.0
Co47 Co 0.38616 0.44697 0.49274 0.0
O48 O 0.361 0.40086 0.48691 0.0
C49 C 0.40481 0.40438 0.56409 0.0
C50 C 0.42573 0.2252 0.51278 0.0
C51 C 0.35799 0.34012 0.49688 0.0
O52 O 0.40466 0.34261 0.55291 0.0
O53 O 0.39969 0.45348 0.54284 0.0
O54 O 0.39889 0.27673 0.44707 0.0
O55 O 0.40208 0.37749 0.47106 0.0
Co56 Co 0.11245 0.80035 0.01691 0.0
O57 O 0.08511 0.78395 0.02108 0.0
O58 O 0.10588 0.71211 0.99627 0.0
C59 C 0.1161 0.84053 0.07655 0.0
O60 O 0.14201 0.79959 0.01009 0.0
Co61 Co 0.12782 0.94722 0.02469 0.0
O62 O 0.1534 0.90287 0.02418 0.0
C63 C 0.10799 0.90563 0.95459 0.0
C64 C 0.08812 0.72572 0.00572 0.0
C65 C 0.15608 0.8414 0.01533 0.0
O66 O 0.10857 0.84367 0.96536 0.0
O67 O 0.11317 0.95452 0.9759 0.0
O68 O 0.11589 0.77602 0.07059 0.0
O69 O 0.11242 0.87715 0.04728 0.0
Co70 Co 0.90135 0.19902 0.01817 0.0
O71 O 0.92886 0.21319 0.02007 0.0
O72 O 0.90811 0.28631 0.99644 0.0
C73 C 0.89882 0.16092 0.07843 0.0
O74 O 0.87168 0.20218 0.01368 0.0
Co75 Co 0.88464 0.05475 0.02924 0.0
O76 O 0.86016 0.10445 0.03671 0.0
C77 C 0.90283 0.09182 0.95632 0.0
C78 C 0.92594 0.27154 0.0048 0.0
C79 C 0.85759 0.16448 0.02506 0.0
O80 O 0.90385 0.15388 0.96682 0.0
O81 O 0.89709 0.04459 0.97827 0.0
O82 O 0.89923 0.22519 0.07178 0.0
O83 O 0.90153 0.12306 0.04924 0.0
Co84 Co 0.11243 0.19531 0.50185 0.0
O85 O 0.08497 0.2108 0.49949 0.0
O86 O 0.10601 0.28441 0.52143 0.0
C87 C 0.11529 0.15344 0.44242 0.0
O88 O 0.14208 0.19679 0.50697 0.0
Co89 Co 0.12793 0.04846 0.49446 0.0
O90 O 0.15348 0.09298 0.49402 0.0
C91 C 0.10849 0.09161 0.56473 0.0
C92 C 0.0881 0.26986 0.51371 0.0
C93 C 0.15615 0.15486 0.50191 0.0
O94 O 0.10939 0.15355 0.55402 0.0
O95 O 0.11324 0.04239 0.54326 0.0
O96 O 0.11503 0.21807 0.44784 0.0
O97 O 0.11206 0.11755 0.47218 0.0
Co98 Co 0.90159 0.80098 0.50245 0.0
O99 O 0.92906 0.78594 0.50067 0.0
O100 O 0.90797 0.71108 0.52099 0.0
C101 C 0.89915 0.84549 0.44355 0.0
O102 O 0.8719 0.79921 0.50676 0.0
Co103 Co 0.88615 0.94824 0.49666 0.0
O104 O 0.86064 0.90358 0.49486 0.0
C105 C 0.90544 0.90221 0.56644 0.0
C106 C 0.92592 0.72628 0.51402 0.0
C107 C 0.85788 0.8414 0.50187 0.0
O108 O 0.90424 0.84062 0.55523 0.0
O109 O 0.90101 0.95231 0.54535 0.0
O110 O 0.89941 0.78063 0.448 0.0
O111 O 0.90212 0.87994 0.47394 0.0
H112 H 0.84203 0.26831 0.98258 0.0
H113 H 0.80779 0.30117 0.97851 0.0
H114 H 0.79316 0.14851 0.06039 0.0
H115 H 0.82694 0.11553 0.06463 0.0
H116 H 0.77445 0.20922 0.95951 0.0
H117 H 0.7691 0.32767 0.102 0.0
H118 H 0.79186 0.31594 0.07783 0.0
H119 H 0.78036 0.24622 0.10099 0.0
C120 C 0.83153 0.24229 -3e-05 0.0
C121 C 0.83729 0.18924 0.02389 0.0
C122 C 0.81197 0.2608 0.99744 0.0
C123 C 0.79793 0.22736 0.01925 0.0
C124 C 0.80372 0.17528 0.04349 0.0
H125 H 0.67114 0.21789 0.00275 0.0
H126 H 0.70555 0.18695 0.00177 0.0
C127 C 0.8231 0.15642 0.04577 0.0
C128 C 0.77714 0.24569 0.0168 0.0
H129 H 0.73974 0.30768 0.06947 0.0
C130 C 0.76684 0.23115 0.98341 0.0
C131 C 0.76725 0.27416 0.04803 0.0
C132 C 0.77768 0.2925 0.0842 0.0
C133 C 0.74686 0.24368 0.98065 0.0
C134 C 0.73689 0.27092 0.01221 0.0
C135 C 0.7473 0.28613 0.04539 0.0
C136 C 0.71596 0.28831 0.0109 0.0
C137 C 0.73663 0.22876 0.9438 0.0
C138 C 0.71032 0.35516 0.01668 0.0
C139 C 0.69083 0.37277 0.01747 0.0
C140 C 0.67627 0.32397 0.01265 0.0
C141 C 0.6819 0.25683 0.00642 0.0
C142 C 0.70158 0.23915 0.00567 0.0
H143 H 0.74694 0.22157 0.91997 0.0
H144 H 0.7281 0.18191 0.94699 0.0
H145 H 0.72651 0.27002 0.93634 0.0
H146 H 0.72108 0.39402 0.02077 0.0
H147 H 0.68724 0.42511 0.02217 0.0
H148 H 0.17169 0.71451 0.02479 0.0
H149 H 0.20613 0.68393 0.02361 0.0
H150 H 0.22075 0.8877 0.99347 0.0
H151 H 0.18679 0.91874 0.99568 0.0
H152 H 0.23425 0.68853 0.96922 0.0
H153 H 0.25403 0.8625 0.08568 0.0
H154 H 0.22928 0.84331 0.07414 0.0
H155 H 0.24244 0.90466 0.04689 0.0
C156 C 0.18227 0.75256 0.01773 0.0
C157 C 0.17648 0.81926 0.01091 0.0
C158 C 0.20196 0.73515 0.01716 0.0
C159 C 0.21615 0.78401 0.00957 0.0
C160 C 0.21023 0.8496 0.00076 0.0
H161 H 0.34308 0.77934 0.9966 0.0
H162 H 0.30885 0.81178 0.99211 0.0
C163 C 0.19072 0.86714 0.00179 0.0
C164 C 0.23715 0.76713 0.01084 0.0
H165 H 0.28007 0.81345 0.05141 0.0
C166 C 0.24422 0.71564 0.98735 0.0
C167 C 0.25029 0.80258 0.03441 0.0
C168 C 0.24361 0.85586 0.06198 0.0
C169 C 0.264 0.69938 0.98638 0.0
C170 C 0.2771 0.73505 0.0098 0.0
C171 C 0.27008 0.78666 0.03316 0.0
C172 C 0.2979 0.71641 0.01232 0.0
C173 C 0.27075 0.64454 0.95992 0.0
C174 C 0.30312 0.65279 0.02591 0.0
C175 C 0.32251 0.63431 0.02862 0.0
C176 C 0.33735 0.67905 0.01794 0.0
C177 C 0.33212 0.74348 0.00493 0.0
C178 C 0.31256 0.76206 0.00232 0.0
H179 H 0.26019 0.63526 0.93675 0.0
H180 H 0.28493 0.65732 0.94711 0.0
H181 H 0.27244 0.59714 0.9762 0.0
H182 H 0.29214 0.61727 0.03467 0.0
H183 H 0.3258 0.58444 0.03913 0.0
H184 H 0.84259 0.71403 0.49187 0.0
H185 H 0.80821 0.68257 0.49195 0.0
H186 H 0.7928 0.88661 0.52 0.0
H187 H 0.82666 0.91849 0.51898 0.0
H188 H 0.7798 0.68815 0.54601 0.0
H189 H 0.76004 0.85738 0.42734 0.0
H190 H 0.7848 0.83923 0.43945 0.0
H191 H 0.7714 0.90128 0.46577 0.0
C192 C 0.83185 0.75201 0.49814 0.0
C193 C 0.83742 0.81898 0.50481 0.0
C194 C 0.8122 0.73407 0.4981 0.0
C195 C 0.79781 0.78268 0.50488 0.0
C196 C 0.80348 0.84865 0.51334 0.0
H197 H 0.67097 0.77808 0.51715 0.0
H198 H 0.70521 0.81041 0.52126 0.0
C199 C 0.82295 0.86668 0.51296 0.0
C200 C 0.77686 0.76511 0.50344 0.0
H201 H 0.73396 0.80951 0.46208 0.0
C202 C 0.76982 0.71442 0.52748 0.0
C203 C 0.76373 0.79951 0.47935 0.0
C204 C 0.77039 0.8519 0.45125 0.0
C205 C 0.75005 0.69804 0.52855 0.0
C206 C 0.73695 0.73274 0.50466 0.0
C207 C 0.74396 0.78347 0.48069 0.0
C208 C 0.71614 0.71409 0.50241 0.0
C209 C 0.74332 0.64424 0.55568 0.0
C210 C 0.7109 0.64991 0.48974 0.0
C211 C 0.6915 0.63147 0.48727 0.0
C212 C 0.67667 0.67682 0.49725 0.0
C213 C 0.68193 0.74175 0.50937 0.0
C214 C 0.70149 0.76027 0.51176 0.0
H215 H 0.75387 0.6359 0.57898 0.0
H216 H 0.72913 0.65748 0.56831 0.0
H217 H 0.74166 0.5962 0.54 0.0
H218 H 0.72187 0.61392 0.4815 0.0
H219 H 0.68819 0.58118 0.47746 0.0
H220 H 0.17165 0.28129 0.49018 0.0
H221 H 0.20607 0.31217 0.4907 0.0
H222 H 0.22092 0.11002 0.52393 0.0
H223 H 0.18698 0.07865 0.52231 0.0
H224 H 0.23408 0.31088 0.54494 0.0
H225 H 0.25439 0.13076 0.43191 0.0
H226 H 0.22957 0.14998 0.44295 0.0
H227 H 0.24283 0.09038 0.47131 0.0
C228 C 0.18228 0.24366 0.49773 0.0
C229 C 0.17656 0.17728 0.50562 0.0
C230 C 0.20195 0.26123 0.49793 0.0
C231 C 0.21621 0.21287 0.50623 0.0
C232 C 0.21036 0.14767 0.51605 0.0
H233 H 0.343 0.21851 0.52173 0.0
H234 H 0.30875 0.18633 0.52564 0.0
C235 C 0.19086 0.12994 0.51536 0.0
C236 C 0.2372 0.22993 0.50485 0.0
H237 H 0.2803 0.18152 0.46581 0.0
C238 C 0.24414 0.28281 0.52746 0.0
C239 C 0.25045 0.19325 0.48211 0.0
C240 C 0.24392 0.1384 0.45542 0.0
C241 C 0.2639 0.29924 0.52844 0.0
C242 C 0.27712 0.26226 0.50592 0.0
C243 C 0.27022 0.20932 0.48339 0.0
C244 C 0.29794 0.28064 0.50354 0.0
C245 C 0.27051 0.35561 0.55398 0.0
C246 C 0.30327 0.34351 0.48904 0.0
C247 C 0.32268 0.36185 0.48669 0.0
C248 C 0.33743 0.31769 0.49862 0.0
C249 C 0.3321 0.25391 0.51243 0.0
C250 C 0.31253 0.23549 0.51472 0.0
H251 H 0.25984 0.36626 0.57675 0.0
H252 H 0.28463 0.34359 0.56731 0.0
H253 H 0.27228 0.40202 0.53685 0.0
H254 H 0.29235 0.37857 0.47936 0.0
H255 H 0.32605 0.41115 0.47548 0.0
H256 H 0.61843 0.474 0.0901 0.0
H257 H 0.62195 0.52534 0.15261 0.0
H258 H 0.6237 0.32878 0.20415 0.0
H259 H 0.62007 0.27664 0.14134 0.0
H260 H 0.59646 0.41886 0.23622 0.0
H261 H 0.66873 0.53733 0.22434 0.0
H262 H 0.65267 0.55598 0.18568 0.0
H263 H 0.66076 0.47109 0.19293 0.0
C264 C 0.61981 0.44153 0.11464 0.0
C265 C 0.61896 0.37123 0.11085 0.0
C266 C 0.62196 0.47104 0.15033 0.0
C267 C 0.62335 0.43087 0.1829 0.0
C268 C 0.6228 0.36058 0.17924 0.0
H269 H 0.61955 0.52115 0.42339 0.0
H270 H 0.6226 0.46756 0.36142 0.0
C271 C 0.62073 0.33091 0.14342 0.0
C272 C 0.62378 0.46262 0.22091 0.0
H273 H 0.64928 0.57127 0.27679 0.0
C274 C 0.6081 0.45164 0.24529 0.0
C275 C 0.63887 0.50598 0.23235 0.0
C276 C 0.65631 0.51799 0.20762 0.0
C277 C 0.60689 0.48392 0.2806 0.0
C278 C 0.622 0.5272 0.29214 0.0
C279 C 0.63773 0.53811 0.26781 0.0
C280 C 0.62175 0.56064 0.3297 0.0
C281 C 0.5892 0.47275 0.30482 0.0
C282 C 0.62109 0.63104 0.33249 0.0
C283 C 0.61951 0.66207 0.36807 0.0
C284 C 0.6186 0.62299 0.40126 0.0
C285 C 0.62001 0.55267 0.39833 0.0
C286 C 0.62168 0.52186 0.36292 0.0
H287 H 0.5769 0.45319 0.28785 0.0
H288 H 0.59258 0.43521 0.32717 0.0
H289 H 0.58464 0.52005 0.31896 0.0
H290 H 0.62126 0.66181 0.30711 0.0
H291 H 0.61852 0.71635 0.3695 0.0
H292 H 0.39663 0.71925 0.1455 0.0
H293 H 0.39405 0.66515 0.20807 0.0
H294 H 0.39084 0.47094 0.15402 0.0
H295 H 0.39375 0.52401 0.09193 0.0
H296 H 0.36573 0.57722 0.23951 0.0
H297 H 0.43707 0.45236 0.22582 0.0
H298 H 0.42952 0.5198 0.19491 0.0
H299 H 0.42091 0.43566 0.18711 0.0
C300 C 0.39525 0.66509 0.14705 0.0
C301 C 0.3956 0.62582 0.11388 0.0
C302 C 0.39378 0.63431 0.18271 0.0
C303 C 0.39265 0.56398 0.1856 0.0
C304 C 0.39214 0.52513 0.15243 0.0
H305 H 0.39394 0.27823 0.37291 0.0
H306 H 0.39046 0.33157 0.31039 0.0
C307 C 0.39372 0.55567 0.11694 0.0
C308 C 0.39252 0.53061 0.22317 0.0
H309 H 0.41767 0.41938 0.27799 0.0
C310 C 0.3771 0.54291 0.24805 0.0
C311 C 0.40738 0.48579 0.23412 0.0
C312 C 0.42476 0.47297 0.20928 0.0
C313 C 0.376 0.5106 0.28346 0.0
C314 C 0.39084 0.46565 0.29431 0.0
C315 C 0.40623 0.45338 0.2694 0.0
C316 C 0.39129 0.43329 0.33215 0.0
C317 C 0.35884 0.52404 0.30871 0.0
C318 C 0.39293 0.47285 0.36492 0.0
C319 C 0.39496 0.44265 0.40045 0.0
C320 C 0.39548 0.37225 0.40388 0.0
C321 C 0.39354 0.33256 0.37111 0.0
C322 C 0.39155 0.36292 0.33546 0.0
H323 H 0.3464 0.54422 0.29235 0.0
H324 H 0.35422 0.47759 0.32365 0.0
H325 H 0.36287 0.56192 0.33044 0.0
H326 H 0.39319 0.52718 0.36293 0.0
H327 H 0.3965 0.47464 0.42516 0.0
H328 H 0.40778 0.67448 0.89232 0.0
H329 H 0.41223 0.64086 0.82578 0.0
H330 H 0.41859 0.43423 0.86046 0.0
H331 H 0.4141 0.46675 0.92654 0.0
H332 H 0.4428 0.56219 0.78704 0.0
H333 H 0.37107 0.43697 0.78785 0.0
H334 H 0.37823 0.49688 0.82368 0.0
H335 H 0.38714 0.41211 0.82537 0.0
C336 C 0.4104 0.62205 0.88582 0.0
C337 C 0.41027 0.57322 0.91472 0.0
C338 C 0.41293 0.60297 0.84783 0.0
C339 C 0.41537 0.53495 0.83831 0.0
C340 C 0.41638 0.48681 0.86724 0.0
H341 H 0.41029 0.31693 0.62368 0.0
H342 H 0.41562 0.34599 0.69054 0.0
C343 C 0.4138 0.50564 0.90502 0.0
C344 C 0.41569 0.51325 0.79814 0.0
H345 H 0.3901 0.42305 0.73288 0.0
C346 C 0.4313 0.53184 0.77509 0.0
C347 C 0.40068 0.47343 0.78283 0.0
C348 C 0.38323 0.454 0.80603 0.0
C349 C 0.43237 0.51104 0.737 0.0
C350 C 0.41726 0.47164 0.72161 0.0
C351 C 0.40175 0.4527 0.74484 0.0
C352 C 0.41644 0.45339 0.68086 0.0
C353 C 0.44973 0.53078 0.71371 0.0
C354 C 0.41527 0.50407 0.65334 0.0
C355 C 0.41221 0.48775 0.6153 0.0
C356 C 0.4101 0.42027 0.60391 0.0
C357 C 0.41187 0.36933 0.63141 0.0
C358 C 0.4149 0.38584 0.66961 0.0
H359 H 0.46236 0.54233 0.73202 0.0
H360 H 0.4538 0.49031 0.69351 0.0
H361 H 0.44626 0.57663 0.6971 0.0
H362 H 0.41598 0.55654 0.66145 0.0
H363 H 0.41097 0.5284 0.59498 0.0
H364 H 0.60585 0.32329 0.88936 0.0
H365 H 0.60129 0.35666 0.82283 0.0
H366 H 0.59205 0.56181 0.85785 0.0
H367 H 0.59669 0.52951 0.92396 0.0
H368 H 0.57019 0.43055 0.78309 0.0
H369 H 0.64016 0.56723 0.78705 0.0
H370 H 0.63342 0.50618 0.82256 0.0
H371 H 0.62335 0.58939 0.82383 0.0
C372 C 0.60255 0.37528 0.88294 0.0
C373 C 0.60196 0.42389 0.91195 0.0
C374 C 0.59996 0.39423 0.84495 0.0
C375 C 0.59671 0.46188 0.83553 0.0
C376 C 0.5949 0.50958 0.86455 0.0
H377 H 0.60205 0.67858 0.6203 0.0
H378 H 0.5962 0.6499 0.68702 0.0
C379 C 0.59755 0.49088 0.90235 0.0
C380 C 0.59649 0.48381 0.79539 0.0
H381 H 0.62169 0.57749 0.73114 0.0
C382 C 0.58142 0.46266 0.77164 0.0
C383 C 0.61115 0.52592 0.78071 0.0
C384 C 0.62804 0.5482 0.80468 0.0
C385 C 0.58056 0.48301 0.73345 0.0
C386 C 0.59535 0.52456 0.71867 0.0
C387 C 0.61029 0.54616 0.74262 0.0
C388 C 0.59651 0.54232 0.67787 0.0
C389 C 0.56376 0.46039 0.7094 0.0
C390 C 0.59852 0.49141 0.65067 0.0
C391 C 0.60187 0.50751 0.6127 0.0
C392 C 0.60346 0.57503 0.60106 0.0
C393 C 0.6009 0.62613 0.62822 0.0
C394 C 0.59756 0.60984 0.66635 0.0
H395 H 0.55102 0.44766 0.72715 0.0
H396 H 0.55954 0.49974 0.68862 0.0
H397 H 0.56795 0.41456 0.69343 0.0
H398 H 0.59822 0.43901 0.659 0.0
H399 H 0.60372 0.4667 0.59267 0.0
H400 H 0.11842 0.77739 0.14566 0.0
H401 H 0.12109 0.83105 0.2083 0.0
H402 H 0.12468 0.02549 0.15462 0.0
H403 H 0.12166 0.97277 0.09238 0.0
H404 H 0.14923 0.91784 0.24065 0.0
H405 H 0.07825 0.04467 0.22561 0.0
H406 H 0.08586 0.9775 0.19459 0.0
H407 H 0.09469 0.06154 0.1874 0.0
C408 C 0.11992 0.83151 0.14729 0.0
C409 C 0.1196 0.87095 0.11419 0.0
C410 C 0.12145 0.86205 0.18302 0.0
C411 C 0.12268 0.93233 0.18605 0.0
C412 C 0.1233 0.97134 0.15293 0.0
H413 H 0.12062 0.21636 0.37404 0.0
H414 H 0.1244 0.16313 0.31161 0.0
C415 C 0.12165 0.94102 0.11736 0.0
C416 C 0.12267 0.96543 0.22374 0.0
H417 H 0.09735 0.07639 0.27843 0.0
C418 C 0.13788 0.95234 0.24903 0.0
C419 C 0.10782 0.01042 0.23452 0.0
C420 C 0.09063 0.02401 0.20929 0.0
C421 C 0.13878 0.98404 0.28465 0.0
C422 C 0.12395 0.02919 0.29532 0.0
C423 C 0.10878 0.04222 0.27 0.0
C424 C 0.12335 0.06136 0.33324 0.0
C425 C 0.15573 0.96975 0.31032 0.0
C426 C 0.12149 0.02176 0.36597 0.0
C427 C 0.1193 0.05193 0.4015 0.0
C428 C 0.11881 0.12234 0.40496 0.0
C429 C 0.12098 0.16202 0.37224 0.0
C430 C 0.12313 0.13171 0.33662 0.0
H431 H 0.16823 0.94941 0.29423 0.0
H432 H 0.16036 0.01586 0.32558 0.0
H433 H 0.15145 0.93172 0.33178 0.0
H434 H 0.12118 0.96744 0.36393 0.0
H435 H 0.1176 0.01995 0.42616 0.0
H436 H 0.89614 0.78663 0.37339 0.0
H437 H 0.89334 0.84385 0.31183 0.0
H438 H 0.89193 0.03567 0.36884 0.0
H439 H 0.89504 0.97932 0.43008 0.0
H440 H 0.86516 0.93455 0.28309 0.0
H441 H 0.93726 0.05476 0.29496 0.0
H442 H 0.92978 0.98665 0.32542 0.0
H443 H 0.92148 0.07081 0.33437 0.0
C444 C 0.89514 0.84095 0.37274 0.0
C445 C 0.89601 0.87852 0.40649 0.0
C446 C 0.89353 0.87353 0.33763 0.0
C447 C 0.8928 0.94402 0.33581 0.0
C448 C 0.8929 0.98133 0.36958 0.0
H449 H 0.89499 0.22747 0.14622 0.0
H450 H 0.89144 0.17719 0.20955 0.0
C451 C 0.89459 0.94895 0.40456 0.0
C452 C 0.89238 0.97887 0.29865 0.0
H453 H 0.91783 0.08789 0.24301 0.0
C454 C 0.87667 0.96802 0.27426 0.0
C455 C 0.9074 0.02268 0.28732 0.0
C456 C 0.92503 0.03411 0.31169 0.0
C457 C 0.87552 1.00029 0.23885 0.0
C458 C 0.89062 0.04367 0.22743 0.0
C459 C 0.90621 0.05501 0.252 0.0
C460 C 0.89119 0.07454 0.18917 0.0
C461 C 0.85808 0.98819 0.21412 0.0
C462 C 0.89229 0.03347 0.1569 0.0
C463 C 0.89435 0.06191 0.12092 0.0
C464 C 0.89547 0.13205 0.1165 0.0
C465 C 0.89411 0.1733 0.14878 0.0
C466 C 0.89209 0.14468 0.1849 0.0
H467 H 0.84555 0.97028 0.23102 0.0
H468 H 0.85384 0.03462 0.19872 0.0
H469 H 0.86157 0.94895 0.19281 0.0
H470 H 0.89206 0.97923 0.15962 0.0
H471 H 0.89544 0.02871 0.09664 0.0
H472 H 0.90291 0.8199 0.62895 0.0
H473 H 0.90708 0.85305 0.69564 0.0
H474 H 0.92454 0.05135 0.66015 0.0
H475 H 0.92013 0.01931 0.59388 0.0
H476 H 0.93851 0.90978 0.73848 0.0
H477 H 0.87646 0.08558 0.72576 0.0
H478 H 0.88162 0.02219 0.69053 0.0
H479 H 0.89535 0.09881 0.69166 0.0
C480 C 0.90793 0.87018 0.63538 0.0
C481 C 0.91087 0.91732 0.6062 0.0
C482 C 0.91028 0.88907 0.67344 0.0
C483 C 0.91567 0.95512 0.68274 0.0
C484 C 0.91991 1.00065 0.65357 0.0
H485 H 0.91447 0.17472 0.89794 0.0
H486 H 0.92029 0.1431 0.8316 0.0
C487 C 0.91743 0.98212 0.61571 0.0
C488 C 0.91574 0.97796 0.72277 0.0
H489 H 0.8935 0.08668 0.78373 0.0
C490 C 0.92869 0.94846 0.74845 0.0
C491 C 0.90295 0.02865 0.73557 0.0
C492 C 0.88818 0.06035 0.70959 0.0
C493 C 0.92926 0.96859 0.78668 0.0
C494 C 0.91629 0.01867 0.79957 0.0
C495 C 0.90353 0.04873 0.77372 0.0
C496 C 0.91462 0.03721 0.84022 0.0
C497 C 0.94385 0.93643 0.81281 0.0
C498 C 0.90947 0.98827 0.86695 0.0
C499 C 0.90616 0.006 0.90469 0.0
C500 C 0.90772 0.07342 0.91659 0.0
C501 C 0.91315 0.12238 0.88983 0.0
C502 C 0.9165 0.10442 0.85192 0.0
H503 H 0.9564 0.91641 0.79675 0.0
H504 H 0.94916 0.97272 0.83438 0.0
H505 H 0.93697 0.89368 0.82784 0.0
H506 H 0.90742 0.93644 0.85841 0.0
H507 H 0.90194 0.96678 0.92432 0.0
H508 H 0.10202 0.03019 0.92415 0.0
H509 H 0.09686 0.05907 0.85787 0.0
H510 H 0.09594 0.84871 0.82838 0.0
H511 H 0.10149 0.81888 0.89504 0.0
H512 H 0.12158 0.92235 0.7859 0.0
H513 H 0.05066 0.05092 0.78744 0.0
H514 H 0.06717 0.08405 0.82194 0.0
H515 H 0.05887 0.99867 0.82616 0.0
C516 C 0.10045 0.98973 0.90381 0.0
C517 C 0.10232 0.92206 0.91501 0.0
C518 C 0.0973 0.0065 0.86585 0.0
C519 C 0.09575 0.95611 0.83824 0.0
C520 C 0.09695 0.88839 0.84936 0.0
H521 H 0.09772 0.96949 0.59257 0.0
H522 H 0.09282 0.93784 0.65868 0.0
C523 C 0.10011 0.87143 0.88746 0.0
C524 C 0.09502 0.97465 0.79748 0.0
H525 H 0.07038 0.06901 0.73236 0.0
C526 C 0.11025 0.95365 0.77408 0.0
C527 C 0.08033 0.01622 0.78226 0.0
C528 C 0.06324 0.03828 0.80567 0.0
C529 C 0.11146 0.97432 0.73611 0.0
C530 C 0.09689 0.0163 0.72096 0.0
C531 C 0.08156 0.03702 0.74418 0.0
C532 C 0.09737 0.03795 0.68078 0.0
C533 C 0.12862 0.95246 0.71272 0.0
C534 C 0.10068 0.1055 0.67121 0.0
C535 C 0.10344 0.12409 0.6332 0.0
C536 C 0.10295 0.07521 0.60433 0.0
C537 C 0.09851 0.00832 0.61407 0.0
C538 C 0.09571 0.99 0.65187 0.0
H539 H 0.14061 0.93358 0.73076 0.0
H540 H 0.12417 0.91126 0.69336 0.0
H541 H 0.13408 0.99464 0.69508 0.0
H542 H 0.10191 0.14326 0.69324 0.0
H543 H 0.10676 0.17601 0.62665 0.0
H544 H 0.45857 0.77776 0.0454 0.0
H545 H 0.4855 0.85544 0.03863 0.0
H546 H 0.45715 0.94851 0.94293 0.0
H547 H 0.42941 0.87302 0.95144 0.0
H548 H 0.51075 0.87344 0.9881 0.0
H549 H 0.47041 0.11335 0.99838 0.0
H550 H 0.45914 0.03341 0.00738 0.0
H551 H 0.46259 0.06238 0.95935 0.0
C552 C 0.45797 0.81518 0.02308 0.0
C553 C 0.44179 0.81956 -0.00088 0.0
C554 C 0.47347 0.8596 0.01911 0.0
C555 C 0.47345 0.90903 0.99058 0.0
C556 C 0.45741 0.91258 0.96599 0.0
H557 H 0.58524 0.11917 0.95168 0.0
H558 H 0.5577 0.04247 0.94402 0.0
C559 C 0.44158 0.86905 0.97064 0.0
C560 C 0.49042 0.95543 0.9869 0.0
H561 H 0.50357 0.12105 0.9838 0.0
C562 C 0.50913 0.92765 0.98725 0.0
C563 C 0.48851 0.0264 0.98596 0.0
C564 C 0.4691 0.06072 0.98812 0.0
C565 C 0.52579 0.96822 0.98798 0.0
C566 C 0.52387 0.03913 0.98645 0.0
C567 C 0.50519 0.06685 0.98482 0.0
C568 C 0.54078 0.08589 0.98968 0.0
C569 C 0.54516 0.93433 0.99235 0.0
C570 C 0.54038 0.13765 0.01683 0.0
C571 C 0.55578 0.18252 0.02035 0.0
C572 C 0.57226 0.17646 0.99727 0.0
C573 C 0.57285 0.12461 0.97017 0.0
C574 C 0.55713 0.08041 0.966 0.0
H575 H 0.54371 0.8827 0.00405 0.0
H576 H 0.55214 0.93014 0.96409 0.0
H577 H 0.5548 0.96352 0.01138 0.0
H578 H 0.5281 0.14331 0.03562 0.0
H579 H 0.55486 0.22172 0.04163 0.0
H580 H 0.55576 0.77847 0.46823 0.0
H581 H 0.52886 0.8564 0.47503 0.0
H582 H 0.5569 0.94742 0.57168 0.0
H583 H 0.58462 0.87178 0.56313 0.0
H584 H 0.50345 0.87357 0.52521 0.0
H585 H 0.54383 0.1135 0.51734 0.0
H586 H 0.55514 0.03372 0.50796 0.0
H587 H 0.55149 0.06167 0.55613 0.0
C588 C 0.5563 0.81554 0.49075 0.0
C589 C 0.57239 0.81932 0.51496 0.0
C590 C 0.54082 0.86009 0.49474 0.0
C591 C 0.54076 0.90901 0.52356 0.0
C592 C 0.55671 0.91195 0.54839 0.0
H593 H 0.42869 0.11779 0.56216 0.0
H594 H 0.4563 0.04133 0.56982 0.0
C595 C 0.57253 0.86832 0.54371 0.0
C596 C 0.52377 0.95542 0.52733 0.0
H597 H 0.51061 0.12101 0.53157 0.0
C598 C 0.50507 0.92774 0.5265 0.0
C599 C 0.52568 0.02635 0.52886 0.0
C600 C 0.5451 0.06065 0.52724 0.0
C601 C 0.48842 0.96839 0.52584 0.0
C602 C 0.49032 0.03926 0.52797 0.0
C603 C 0.509 0.06685 0.53009 0.0
C604 C 0.47342 0.08615 0.5249 0.0
C605 C 0.46907 0.93466 0.5209 0.0
C606 C 0.47392 0.13875 0.49827 0.0
C607 C 0.45847 0.18353 0.4948 0.0
C608 C 0.44186 0.17652 0.51739 0.0
C609 C 0.44119 0.12396 0.54404 0.0
C610 C 0.45695 0.07988 0.54819 0.0
H611 H 0.47057 0.88337 0.50874 0.0
H612 H 0.462 0.92963 0.54902 0.0
H613 H 0.45948 0.96439 0.50201 0.0
H614 H 0.48629 0.14507 0.4798 0.0
H615 H 0.45945 0.22332 0.47388 0.0
H616 H 0.08445 0.62332 0.9534 0.0
H617 H 0.05654 0.54866 0.94431 0.0
H618 H 0.02806 0.64237 0.0396 0.0
H619 H 0.05517 0.71911 0.04703 0.0
H620 H 0.04061 0.45642 0.9824 0.0
H621 H 0.98475 0.65139 0.96841 0.0
H622 H 0.01009 0.67186 0.96869 0.0
H623 H 0.99698 0.66253 0.01272 0.0
C624 C 0.07213 0.62813 0.97214 0.0
C625 C 0.0719 0.67766 0.0006 0.0
C626 C 0.05615 0.58548 0.96696 0.0
C627 C 0.03974 0.59088 0.99049 0.0
C628 C 0.03999 0.63875 0.01985 0.0
H629 H 0.96016 0.27171 0.04216 0.0
H630 H 0.98721 0.34855 0.03491 0.0
C631 C 0.05566 0.68227 0.02439 0.0
C632 C 0.02275 0.54493 0.98572 0.0
H633 H 0.97336 0.5414 0.98737 0.0
C634 C 0.02592 0.47531 0.98294 0.0
C635 C 1.00342 0.56882 0.98516 0.0
C636 C 0.99865 0.64279 0.98343 0.0
C637 C 0.01051 0.42924 0.98158 0.0
C638 C 0.99123 0.45284 0.98494 0.0
C639 C 0.98803 0.52261 0.98571 0.0
C640 C 0.97436 0.40625 0.98926 0.0
C641 C 0.01519 0.3558 0.976 0.0
C642 C 0.95739 0.41468 0.96761 0.0
C643 C 0.94147 0.37171 0.9727 0.0
C644 C 0.9423 0.3189 -0.00082 0.0
C645 C 0.95916 0.31108 0.02099 0.0
C646 C 0.9748 0.35475 0.01656 0.0
H647 H 0.02869 0.34949 0.95934 0.0
H648 H 0.01756 0.33191 0.00409 0.0
H649 H 1.00338 0.32888 0.96107 0.0
H650 H 0.95648 0.45433 0.94661 0.0
H651 H 0.92867 0.37916 0.95555 0.0
H652 H 0.04959 0.24265 0.51082 0.0
H653 H 0.02259 0.32127 0.51573 0.0
H654 H 0.06241 0.48451 0.53377 0.0
H655 H 0.08969 0.40566 0.52911 0.0
H656 H 0.01274 0.41673 0.57779 0.0
H657 H 0.02834 0.53883 0.43898 0.0
H658 H 0.03783 0.45716 0.45142 0.0
H659 H 0.0481 0.53157 0.4719 0.0
C660 C 0.05267 0.29521 0.51607 0.0
C661 C 0.07186 0.31787 0.5194 0.0
C662 C 0.03717 0.34008 0.51895 0.0
C663 C 0.04045 0.40886 0.52477 0.0
C664 C 0.05955 0.43167 0.52893 0.0
H665 H 0.96428 0.75542 0.5143 0.0
H666 H 0.9915 0.67832 0.51981 0.0
C667 C 0.07512 0.38655 0.52642 0.0
C668 C 0.02382 0.45647 0.52534 0.0
H669 H 1.00209 0.58102 0.47395 0.0
C670 C 0.0104 0.45285 0.55517 0.0
C671 C 0.02076 0.50337 0.49577 0.0
C672 C 0.03439 0.50807 0.46247 0.0
C673 C 0.99419 0.49568 0.55657 0.0
C674 C 0.99097 0.54219 0.5267 0.0
C675 C 1.00445 0.54557 0.49688 0.0
C676 C 0.97401 0.58888 0.52591 0.0
C677 C 0.98098 0.49172 0.59055 0.0
C678 C 0.9549 0.56484 0.5277 0.0
C679 C 0.93917 0.60933 0.52502 0.0
C680 C 0.94224 0.6786 0.5198 0.0
C681 C 0.96135 0.7024 0.51823 0.0
C682 C 0.97699 0.65823 0.52132 0.0
H683 H 0.98839 0.46913 0.61547 0.0
H684 H 0.97554 0.54223 0.59867 0.0
H685 H 0.96843 0.45944 0.58349 0.0
H686 H 0.95211 0.51151 0.53025 0.0
H687 H 0.92465 0.58928 0.52596 0.0
loop_
_geom_bond_atom_site_label_1
_geom_bond_atom_site_label_2
_geom_bond_distance
_geom_bond_site_symmetry_2
_ccdc_geom_bond_type
Co0 O1 2.216 . S
Co0 O2 2.091 . S
Co0 O4 2.004 . S
Co0 O10 2.021 1_554 S
Co0 O12 2.137 . S
Co0 O13 2.244 . S
O1 Co0 2.216 . S
O1 C8 1.247 . S
O2 Co0 2.091 . S
O2 C8 1.261 . S
C3 O12 1.247 . S
C3 O13 1.272 . S
O4 Co0 2.004 . S
O4 C9 1.259 . S
Co5 O6 2.061 . S
Co5 O11 2.052 1_554 S
Co5 O13 2.135 . S
O6 Co5 2.061 . S
O6 C9 1.235 . S
C7 O10 1.238 . S
C7 O11 1.241 . S
C8 O1 1.247 . S
C8 O2 1.261 . S
C9 O4 1.259 . S
C9 O6 1.235 . S
O10 Co0 2.021 1_556 S
O10 C7 1.238 . S
O11 Co5 2.052 1_556 S
O11 C7 1.241 . S
O12 Co0 2.137 . S
O12 C3 1.247 . S
O13 Co0 2.244 . S
O13 C3 1.272 . S
O13 Co5 2.135 . S
Co14 O15 2.216 . S
Co14 O16 2.091 . S
Co14 O18 2.004 . S
Co14 O24 2.021 1_554 S
Co14 O26 2.137 . S
Co14 O27 2.244 . S
O15 Co14 2.216 . S
O15 C22 1.247 . S
O16 Co14 2.091 . S
O16 C22 1.261 . S
C17 O26 1.247 . S
C17 O27 1.272 . S
O18 Co14 2.004 . S
O18 C23 1.259 . S
Co19 O20 2.061 . S
Co19 O25 2.052 1_554 S
Co19 O27 2.135 . S
O20 Co19 2.061 . S
O20 C23 1.235 . S
C21 O24 1.238 . S
C21 O25 1.241 . S
C22 O15 1.247 . S
C22 O16 1.261 . S
C23 O18 1.259 . S
C23 O20 1.235 . S
O24 Co14 2.021 1_556 S
O24 C21 1.238 . S
O25 Co19 2.052 1_556 S
O25 C21 1.241 . S
O26 Co14 2.137 . S
O26 C17 1.247 . S
O27 Co14 2.244 . S
O27 C17 1.272 . S
O27 Co19 2.135 . S
Co28 O29 2.216 . S
Co28 O30 2.091 . S
Co28 O32 2.004 . S
Co28 O38 2.021 . S
Co28 O40 2.137 . S
Co28 O41 2.244 . S
O29 Co28 2.216 . S
O29 C36 1.247 . S
O30 Co28 2.091 . S
O30 C36 1.261 . S
C31 O40 1.247 . S
C31 O41 1.272 . S
O32 Co28 2.004 . S
O32 C37 1.259 . S
Co33 O34 2.061 . S
Co33 O39 2.052 . S
Co33 O41 2.135 . S
O34 Co33 2.061 . S
O34 C37 1.235 . S
C35 O38 1.238 . S
C35 O39 1.241 . S
C36 O29 1.247 . S
C36 O30 1.261 . S
C37 O32 1.259 . S
C37 O34 1.235 . S
O38 Co28 2.021 . S
O38 C35 1.238 . S
O39 Co33 2.052 . S
O39 C35 1.241 . S
O40 Co28 2.137 . S
O40 C31 1.247 . S
O41 Co28 2.244 . S
O41 C31 1.272 . S
O41 Co33 2.135 . S
Co42 O43 2.216 . S
Co42 O44 2.091 . S
Co42 O46 2.004 . S
Co42 O52 2.021 . S
Co42 O54 2.137 . S
Co42 O55 2.244 . S
O43 Co42 2.216 . S
O43 C50 1.247 . S
O44 Co42 2.091 . S
O44 C50 1.261 . S
C45 O54 1.247 . S
C45 O55 1.272 . S
O46 Co42 2.004 . S
O46 C51 1.259 . S
Co47 O48 2.061 . S
Co47 O53 2.052 . S
Co47 O55 2.135 . S
O48 Co47 2.061 . S
O48 C51 1.235 . S
C49 O52 1.238 . S
C49 O53 1.241 . S
C50 O43 1.247 . S
C50 O44 1.261 . S
C51 O46 1.259 . S
C51 O48 1.235 . S
O52 Co42 2.021 . S
O52 C49 1.238 . S
O53 Co47 2.052 . S
O53 C49 1.241 . S
O54 Co42 2.137 . S
O54 C45 1.247 . S
O55 Co42 2.244 . S
O55 C45 1.272 . S
O55 Co47 2.135 . S
Co56 O57 2.216 . S
Co56 O58 2.091 . S
Co56 O60 2.004 . S
Co56 O66 2.021 1_554 S
Co56 O68 2.137 . S
Co56 O69 2.244 . S
O57 Co56 2.216 . S
O57 C64 1.247 . S
O58 Co56 2.091 . S
O58 C64 1.261 . S
C59 O68 1.247 . S
C59 O69 1.272 . S
O60 Co56 2.004 . S
O60 C65 1.259 . S
Co61 O62 2.061 . S
Co61 O67 2.052 1_554 S
Co61 O69 2.135 . S
O62 Co61 2.061 . S
O62 C65 1.235 . S
C63 O66 1.238 . S
C63 O67 1.241 . S
C64 O57 1.247 . S
C64 O58 1.261 . S
C65 O60 1.259 . S
C65 O62 1.235 . S
O66 Co56 2.021 1_556 S
O66 C63 1.238 . S
O67 Co61 2.052 1_556 S
O67 C63 1.241 . S
O68 Co56 2.137 . S
O68 C59 1.247 . S
O69 Co56 2.244 . S
O69 C59 1.272 . S
O69 Co61 2.135 . S
Co70 O71 2.216 . S
Co70 O72 2.091 . S
Co70 O74 2.004 . S
Co70 O80 2.021 1_554 S
Co70 O82 2.137 . S
Co70 O83 2.244 . S
O71 Co70 2.216 . S
O71 C78 1.247 . S
O72 Co70 2.091 . S
O72 C78 1.261 . S
C73 O82 1.247 . S
C73 O83 1.272 . S
O74 Co70 2.004 . S
O74 C79 1.259 . S
Co75 O76 2.061 . S
Co75 O81 2.052 1_554 S
Co75 O83 2.135 . S
O76 Co75 2.061 . S
O76 C79 1.235 . S
C77 O80 1.238 . S
C77 O81 1.241 . S
C78 O71 1.247 . S
C78 O72 1.261 . S
C79 O74 1.259 . S
C79 O76 1.235 . S
O80 Co70 2.021 1_556 S
O80 C77 1.238 . S
O81 Co75 2.052 1_556 S
O81 C77 1.241 . S
O82 Co70 2.137 . S
O82 C73 1.247 . S
O83 Co70 2.244 . S
O83 C73 1.272 . S
O83 Co75 2.135 . S
Co84 O85 2.216 . S
Co84 O86 2.091 . S
Co84 O88 2.004 . S
Co84 O94 2.021 . S
Co84 O96 2.137 . S
Co84 O97 2.244 . S
O85 Co84 2.216 . S
O85 C92 1.247 . S
O86 Co84 2.091 . S
O86 C92 1.261 . S
C87 O96 1.247 . S
C87 O97 1.272 . S
O88 Co84 2.004 . S
O88 C93 1.259 . S
Co89 O90 2.061 . S
Co89 O95 2.052 . S
Co89 O97 2.135 . S
O90 Co89 2.061 . S
O90 C93 1.235 . S
C91 O94 1.238 . S
C91 O95 1.241 . S
C92 O85 1.247 . S
C92 O86 1.261 . S
C93 O88 1.259 . S
C93 O90 1.235 . S
O94 Co84 2.021 . S
O94 C91 1.238 . S
O95 Co89 2.052 . S
O95 C91 1.241 . S
O96 Co84 2.137 . S
O96 C87 1.247 . S
O97 Co84 2.244 . S
O97 C87 1.272 . S
O97 Co89 2.135 . S
Co98 O99 2.216 . S
Co98 O100 2.091 . S
Co98 O102 2.004 . S
Co98 O108 2.021 . S
Co98 O110 2.137 . S
Co98 O111 2.244 . S
O99 Co98 2.216 . S
O99 C106 1.247 . S
O100 Co98 2.091 . S
O100 C106 1.261 . S
C101 O110 1.247 . S
C101 O111 1.272 . S
O102 Co98 2.004 . S
O102 C107 1.259 . S
Co103 O104 2.061 . S
Co103 O109 2.052 . S
Co103 O111 2.135 . S
O104 Co103 2.061 . S
O104 C107 1.235 . S
C105 O108 1.238 . S
C105 O109 1.241 . S
C106 O99 1.247 . S
C106 O100 1.261 . S
C107 O102 1.259 . S
C107 O104 1.235 . S
O108 Co98 2.021 . S
O108 C105 1.238 . S
O109 Co103 2.052 . S
O109 C105 1.241 . S
O110 Co98 2.137 . S
O110 C101 1.247 . S
O111 Co98 2.244 . S
O111 C101 1.272 . S
O111 Co103 2.135 . S
H112 C120 0.929 . S
H113 C122 0.930 . S
H114 C124 0.930 . S
H115 C127 0.929 . S
H116 C130 0.930 . S
H117 C132 0.960 . S
H118 C132 0.960 . S
H119 C132 0.960 . S
C120 H112 0.929 . S
C120 C121 1.377 1_556 S
C120 C122 1.384 . S
C121 C120 1.377 1_554 S
C121 C127 1.390 . S
C122 H113 0.930 . S
C122 C120 1.384 . S
C122 C123 1.372 1_556 S
C123 C122 1.372 1_554 S
C123 C124 1.400 . S
C123 C128 1.490 . S
C124 H114 0.930 . S
C124 C123 1.400 . S
C124 C127 1.386 . S
H125 C141 0.930 . S
H126 C142 0.931 . S
C127 H115 0.929 . S
C127 C121 1.390 . S
C127 C124 1.386 . S
C128 C123 1.490 . S
C128 C130 1.395 1_554 S
C128 C131 1.403 . S
H129 C135 0.930 . S
C130 H116 0.930 . S
C130 C128 1.395 1_556 S
C130 C133 1.403 . S
C131 C128 1.403 . S
C131 C132 1.524 . S
C131 C135 1.400 . S
C132 H117 0.960 . S
C132 H118 0.960 . S
C132 H119 0.960 . S
C132 C131 1.524 . S
C133 C130 1.403 . S
C133 C134 1.392 1_556 S
C133 C137 1.495 . S
C134 C133 1.392 1_554 S
C134 C135 1.385 . S
C134 C136 1.478 . S
C135 H129 0.930 . S
C135 C131 1.400 . S
C135 C134 1.385 . S
C136 C134 1.478 . S
C136 C138 1.381 1_554 S
C136 C142 1.383 . S
C137 C133 1.495 . S
C137 H143 0.959 . S
C137 H144 0.961 . S
C137 H145 0.960 . S
C138 C136 1.381 1_556 S
C138 C139 1.394 . S
C138 H146 0.930 . S
C139 C138 1.394 . S
C139 C140 1.383 1_556 S
C139 H147 0.929 . S
C140 C139 1.383 1_554 S
C140 C141 1.377 . S
C141 H125 0.930 . S
C141 C140 1.377 . S
C141 C142 1.379 . S
C142 H126 0.931 . S
C142 C136 1.383 . S
C142 C141 1.379 . S
H143 C137 0.959 . S
H144 C137 0.961 . S
H145 C137 0.960 . S
H146 C138 0.930 . S
H147 C139 0.929 . S
H148 C156 0.929 . S
H149 C158 0.930 . S
H150 C160 0.930 . S
H151 C163 0.929 . S
H152 C166 0.930 . S
H153 C168 0.960 . S
H154 C168 0.960 . S
H155 C168 0.960 . S
C156 H148 0.929 . S
C156 C157 1.377 . S
C156 C158 1.384 . S
C157 C156 1.377 . S
C157 C163 1.390 1_554 S
C158 H149 0.930 . S
C158 C156 1.384 . S
C158 C159 1.372 . S
C159 C158 1.372 . S
C159 C160 1.400 1_554 S
C159 C164 1.490 . S
C160 H150 0.930 . S
C160 C159 1.400 1_556 S
C160 C163 1.386 . S
H161 C177 0.930 . S
H162 C178 0.931 . S
C163 H151 0.929 . S
C163 C157 1.390 1_556 S
C163 C160 1.386 . S
C164 C159 1.490 . S
C164 C166 1.395 . S
C164 C167 1.403 . S
H165 C171 0.930 . S
C166 H152 0.930 . S
C166 C164 1.395 . S
C166 C169 1.403 . S
C167 C164 1.403 . S
C167 C168 1.524 . S
C167 C171 1.400 . S
C168 H153 0.960 . S
C168 H154 0.960 . S
C168 H155 0.960 . S
C168 C167 1.524 . S
C169 C166 1.403 . S
C169 C170 1.392 . S
C169 C173 1.495 1_554 S
C170 C169 1.392 . S
C170 C171 1.385 . S
C170 C172 1.478 . S
C171 H165 0.930 . S
C171 C167 1.400 . S
C171 C170 1.385 . S
C172 C170 1.478 . S
C172 C174 1.381 . S
C172 C178 1.383 1_554 S
C173 C169 1.495 1_556 S
C173 H179 0.959 . S
C173 H180 0.962 . S
C173 H181 0.959 1_556 S
C174 C172 1.381 . S
C174 C175 1.394 . S
C174 H182 0.930 . S
C175 C174 1.394 . S
C175 C176 1.383 . S
C175 H183 0.929 . S
C176 C175 1.383 . S
C176 C177 1.377 1_554 S
C177 H161 0.930 . S
C177 C176 1.377 1_556 S
C177 C178 1.379 . S
C178 H162 0.931 . S
C178 C172 1.383 1_556 S
C178 C177 1.379 . S
H179 C173 0.959 . S
H180 C173 0.962 . S
H181 C173 0.959 1_554 S
H182 C174 0.930 . S
H183 C175 0.929 . S
H184 C192 0.929 . S
H185 C194 0.930 . S
H186 C196 0.930 . S
H187 C199 0.929 . S
H188 C202 0.930 . S
H189 C204 0.960 . S
H190 C204 0.960 . S
H191 C204 0.960 . S
C192 H184 0.929 . S
C192 C193 1.377 . S
C192 C194 1.384 . S
C193 C192 1.377 . S
C193 C199 1.390 . S
C194 H185 0.930 . S
C194 C192 1.384 . S
C194 C195 1.372 . S
C195 C194 1.372 . S
C195 C196 1.400 . S
C195 C200 1.490 . S
C196 H186 0.930 . S
C196 C195 1.400 . S
C196 C199 1.386 . S
H197 C213 0.930 . S
H198 C214 0.931 . S
C199 H187 0.929 . S
C199 C193 1.390 . S
C199 C196 1.386 . S
C200 C195 1.490 . S
C200 C202 1.395 . S
C200 C203 1.403 . S
H201 C207 0.930 . S
C202 H188 0.930 . S
C202 C200 1.395 . S
C202 C205 1.403 . S
C203 C200 1.403 . S
C203 C204 1.524 . S
C203 C207 1.400 . S
C204 H189 0.960 . S
C204 H190 0.960 . S
C204 H191 0.960 . S
C204 C203 1.524 . S
C205 C202 1.403 . S
C205 C206 1.392 . S
C205 C209 1.495 . S
C206 C205 1.392 . S
C206 C207 1.385 . S
C206 C208 1.478 . S
C207 H201 0.930 . S
C207 C203 1.400 . S
C207 C206 1.385 . S
C208 C206 1.478 . S
C208 C210 1.381 . S
C208 C214 1.383 . S
C209 C205 1.495 . S
C209 H215 0.959 . S
C209 H216 0.961 . S
C209 H217 0.960 . S
C210 C208 1.381 . S
C210 C211 1.394 . S
C210 H218 0.930 . S
C211 C210 1.394 . S
C211 C212 1.383 . S
C211 H219 0.929 . S
C212 C211 1.383 . S
C212 C213 1.377 . S
C213 H197 0.930 . S
C213 C212 1.377 . S
C213 C214 1.379 . S
C214 H198 0.931 . S
C214 C208 1.383 . S
C214 C213 1.379 . S
H215 C209 0.959 . S
H216 C209 0.961 . S
H217 C209 0.960 . S
H218 C210 0.930 . S
H219 C211 0.929 . S
H220 C228 0.929 . S
H221 C230 0.930 . S
H222 C232 0.930 . S
H223 C235 0.929 . S
H224 C238 0.930 . S
H225 C240 0.960 . S
H226 C240 0.960 . S
H227 C240 0.960 . S
C228 H220 0.929 . S
C228 C229 1.377 . S
C228 C230 1.384 . S
C229 C228 1.377 . S
C229 C235 1.390 . S
C230 H221 0.930 . S
C230 C228 1.384 . S
C230 C231 1.372 . S
C231 C230 1.372 . S
C231 C232 1.400 . S
C231 C236 1.490 . S
C232 H222 0.930 . S
C232 C231 1.400 . S
C232 C235 1.386 . S
H233 C249 0.930 . S
H234 C250 0.931 . S
C235 H223 0.929 . S
C235 C229 1.390 . S
C235 C232 1.386 . S
C236 C231 1.490 . S
C236 C238 1.395 . S
C236 C239 1.403 . S
H237 C243 0.930 . S
C238 H224 0.930 . S
C238 C236 1.395 . S
C238 C241 1.403 . S
C239 C236 1.403 . S
C239 C240 1.524 . S
C239 C243 1.400 . S
C240 H225 0.960 . S
C240 H226 0.960 . S
C240 H227 0.960 . S
C240 C239 1.524 . S
C241 C238 1.403 . S
C241 C242 1.392 . S
C241 C245 1.495 . S
C242 C241 1.392 . S
C242 C243 1.385 . S
C242 C244 1.478 . S
C243 H237 0.930 . S
C243 C239 1.400 . S
C243 C242 1.385 . S
C244 C242 1.478 . S
C244 C246 1.381 . S
C244 C250 1.383 . S
C245 C241 1.495 . S
C245 H251 0.959 . S
C245 H252 0.961 . S
C245 H253 0.960 . S
C246 C244 1.381 . S
C246 C247 1.394 . S
C246 H254 0.930 . S
C247 C246 1.394 . S
C247 C248 1.383 . S
C247 H255 0.929 . S
C248 C247 1.383 . S
C248 C249 1.377 . S
C249 H233 0.930 . S
C249 C248 1.377 . S
C249 C250 1.379 . S
C250 H234 0.931 . S
C250 C244 1.383 . S
C250 C249 1.379 . S
H251 C245 0.959 . S
H252 C245 0.961 . S
H253 C245 0.960 . S
H254 C246 0.930 . S
H255 C247 0.929 . S
H256 C264 0.929 . S
H257 C266 0.930 . S
H258 C268 0.930 . S
H259 C271 0.929 . S
H260 C274 0.930 . S
H261 C276 0.960 . S
H262 C276 0.960 . S
H263 C276 0.960 . S
C264 H256 0.929 . S
C264 C265 1.377 . S
C264 C266 1.384 . S
C265 C264 1.377 . S
C265 C271 1.390 . S
C266 H257 0.930 . S
C266 C264 1.384 . S
C266 C267 1.372 . S
C267 C266 1.372 . S
C267 C268 1.400 . S
C267 C272 1.490 . S
C268 H258 0.930 . S
C268 C267 1.400 . S
C268 C271 1.386 . S
H269 C285 0.930 . S
H270 C286 0.931 . S
C271 H259 0.929 . S
C271 C265 1.390 . S
C271 C268 1.386 . S
C272 C267 1.490 . S
C272 C274 1.395 . S
C272 C275 1.403 . S
H273 C279 0.930 . S
C274 H260 0.930 . S
C274 C272 1.395 . S
C274 C277 1.403 . S
C275 C272 1.403 . S
C275 C276 1.524 . S
C275 C279 1.400 . S
C276 H261 0.960 . S
C276 H262 0.960 . S
C276 H263 0.960 . S
C276 C275 1.524 . S
C277 C274 1.403 . S
C277 C278 1.392 . S
C277 C281 1.495 . S
C278 C277 1.392 . S
C278 C279 1.385 . S
C278 C280 1.478 . S
C279 H273 0.930 . S
C279 C275 1.400 . S
C279 C278 1.385 . S
C280 C278 1.478 . S
C280 C282 1.381 . S
C280 C286 1.383 . S
C281 C277 1.495 . S
C281 H287 0.959 . S
C281 H288 0.961 . S
C281 H289 0.960 . S
C282 C280 1.381 . S
C282 C283 1.394 . S
C282 H290 0.930 . S
C283 C282 1.394 . S
C283 C284 1.383 . S
C283 H291 0.929 . S
C284 C283 1.383 . S
C284 C285 1.377 . S
C285 H269 0.930 . S
C285 C284 1.377 . S
C285 C286 1.379 . S
C286 H270 0.931 . S
C286 C280 1.383 . S
C286 C285 1.379 . S
H287 C281 0.959 . S
H288 C281 0.961 . S
H289 C281 0.960 . S
H290 C282 0.930 . S
H291 C283 0.929 . S
H292 C300 0.929 . S
H293 C302 0.930 . S
H294 C304 0.930 . S
H295 C307 0.929 . S
H296 C310 0.930 . S
H297 C312 0.960 . S
H298 C312 0.960 . S
H299 C312 0.960 . S
C300 H292 0.929 . S
C300 C301 1.377 . S
C300 C302 1.384 . S
C301 C300 1.377 . S
C301 C307 1.390 . S
C302 H293 0.930 . S
C302 C300 1.384 . S
C302 C303 1.372 . S
C303 C302 1.372 . S
C303 C304 1.400 . S
C303 C308 1.490 . S
C304 H294 0.930 . S
C304 C303 1.400 . S
C304 C307 1.386 . S
H305 C321 0.930 . S
H306 C322 0.931 . S
C307 H295 0.929 . S
C307 C301 1.390 . S
C307 C304 1.386 . S
C308 C303 1.490 . S
C308 C310 1.395 . S
C308 C311 1.403 . S
H309 C315 0.930 . S
C310 H296 0.930 . S
C310 C308 1.395 . S
C310 C313 1.403 . S
C311 C308 1.403 . S
C311 C312 1.524 . S
C311 C315 1.400 . S
C312 H297 0.960 . S
C312 H298 0.960 . S
C312 H299 0.960 . S
C312 C311 1.524 . S
C313 C310 1.403 . S
C313 C314 1.392 . S
C313 C317 1.495 . S
C314 C313 1.392 . S
C314 C315 1.385 . S
C314 C316 1.478 . S
C315 H309 0.930 . S
C315 C311 1.400 . S
C315 C314 1.385 . S
C316 C314 1.478 . S
C316 C318 1.381 . S
C316 C322 1.383 . S
C317 C313 1.495 . S
C317 H323 0.959 . S
C317 H324 0.961 . S
C317 H325 0.960 . S
C318 C316 1.381 . S
C318 C319 1.394 . S
C318 H326 0.930 . S
C319 C318 1.394 . S
C319 C320 1.383 . S
C319 H327 0.929 . S
C320 C319 1.383 . S
C320 C321 1.377 . S
C321 H305 0.930 . S
C321 C320 1.377 . S
C321 C322 1.379 . S
C322 H306 0.931 . S
C322 C316 1.383 . S
C322 C321 1.379 . S
H323 C317 0.959 . S
H324 C317 0.961 . S
H325 C317 0.960 . S
H326 C318 0.930 . S
H327 C319 0.929 . S
H328 C336 0.929 . S
H329 C338 0.930 . S
H330 C340 0.930 . S
H331 C343 0.929 . S
H332 C346 0.930 . S
H333 C348 0.960 . S
H334 C348 0.960 . S
H335 C348 0.960 . S
C336 H328 0.929 . S
C336 C337 1.377 . S
C336 C338 1.384 . S
C337 C336 1.377 . S
C337 C343 1.390 . S
C338 H329 0.930 . S
C338 C336 1.384 . S
C338 C339 1.372 . S
C339 C338 1.372 . S
C339 C340 1.400 . S
C339 C344 1.490 . S
C340 H330 0.930 . S
C340 C339 1.400 . S
C340 C343 1.386 . S
H341 C357 0.930 . S
H342 C358 0.931 . S
C343 H331 0.929 . S
C343 C337 1.390 . S
C343 C340 1.386 . S
C344 C339 1.490 . S
C344 C346 1.395 . S
C344 C347 1.403 . S
H345 C351 0.930 . S
C346 H332 0.930 . S
C346 C344 1.395 . S
C346 C349 1.403 . S
C347 C344 1.403 . S
C347 C348 1.524 . S
C347 C351 1.400 . S
C348 H333 0.960 . S
C348 H334 0.960 . S
C348 H335 0.960 . S
C348 C347 1.524 . S
C349 C346 1.403 . S
C349 C350 1.392 . S
C349 C353 1.495 . S
C350 C349 1.392 . S
C350 C351 1.385 . S
C350 C352 1.478 . S
C351 H345 0.930 . S
C351 C347 1.400 . S
C351 C350 1.385 . S
C352 C350 1.478 . S
C352 C354 1.381 . S
C352 C358 1.383 . S
C353 C349 1.495 . S
C353 H359 0.959 . S
C353 H360 0.961 . S
C353 H361 0.960 . S
C354 C352 1.381 . S
C354 C355 1.394 . S
C354 H362 0.930 . S
C355 C354 1.394 . S
C355 C356 1.383 . S
C355 H363 0.929 . S
C356 C355 1.383 . S
C356 C357 1.377 . S
C357 H341 0.930 . S
C357 C356 1.377 . S
C357 C358 1.379 . S
C358 H342 0.931 . S
C358 C352 1.383 . S
C358 C357 1.379 . S
H359 C353 0.959 . S
H360 C353 0.961 . S
H361 C353 0.960 . S
H362 C354 0.930 . S
H363 C355 0.929 . S
H364 C372 0.929 . S
H365 C374 0.930 . S
H366 C376 0.930 . S
H367 C379 0.929 . S
H368 C382 0.930 . S
H369 C384 0.960 . S
H370 C384 0.960 . S
H371 C384 0.960 . S
C372 H364 0.929 . S
C372 C373 1.377 . S
C372 C374 1.384 . S
C373 C372 1.377 . S
C373 C379 1.390 . S
C374 H365 0.930 . S
C374 C372 1.384 . S
C374 C375 1.372 . S
C375 C374 1.372 . S
C375 C376 1.400 . S
C375 C380 1.490 . S
C376 H366 0.930 . S
C376 C375 1.400 . S
C376 C379 1.386 . S
H377 C393 0.930 . S
H378 C394 0.931 . S
C379 H367 0.929 . S
C379 C373 1.390 . S
C379 C376 1.386 . S
C380 C375 1.490 . S
C380 C382 1.395 . S
C380 C383 1.403 . S
H381 C387 0.930 . S
C382 H368 0.930 . S
C382 C380 1.395 . S
C382 C385 1.403 . S
C383 C380 1.403 . S
C383 C384 1.524 . S
C383 C387 1.400 . S
C384 H369 0.960 . S
C384 H370 0.960 . S
C384 H371 0.960 . S
C384 C383 1.524 . S
C385 C382 1.403 . S
C385 C386 1.392 . S
C385 C389 1.495 . S
C386 C385 1.392 . S
C386 C387 1.385 . S
C386 C388 1.478 . S
C387 H381 0.930 . S
C387 C383 1.400 . S
C387 C386 1.385 . S
C388 C386 1.478 . S
C388 C390 1.381 . S
C388 C394 1.383 . S
C389 C385 1.495 . S
C389 H395 0.959 . S
C389 H396 0.961 . S
C389 H397 0.960 . S
C390 C388 1.381 . S
C390 C391 1.394 . S
C390 H398 0.930 . S
C391 C390 1.394 . S
C391 C392 1.383 . S
C391 H399 0.929 . S
C392 C391 1.383 . S
C392 C393 1.377 . S
C393 H377 0.930 . S
C393 C392 1.377 . S
C393 C394 1.379 . S
C394 H378 0.931 . S
C394 C388 1.383 . S
C394 C393 1.379 . S
H395 C389 0.959 . S
H396 C389 0.961 . S
H397 C389 0.960 . S
H398 C390 0.930 . S
H399 C391 0.929 . S
H400 C408 0.929 . S
H401 C410 0.930 . S
H402 C412 0.930 . S
H403 C415 0.929 . S
H404 C418 0.930 . S
H405 C420 0.960 . S
H406 C420 0.960 . S
H407 C420 0.960 . S
C408 H400 0.929 . S
C408 C409 1.377 . S
C408 C410 1.384 . S
C409 C408 1.377 . S
C409 C415 1.390 . S
C410 H401 0.930 . S
C410 C408 1.384 . S
C410 C411 1.372 . S
C411 C410 1.372 . S
C411 C412 1.400 . S
C411 C416 1.490 . S
C412 H402 0.930 . S
C412 C411 1.400 . S
C412 C415 1.386 . S
H413 C429 0.930 . S
H414 C430 0.931 . S
C415 H403 0.929 . S
C415 C409 1.390 . S
C415 C412 1.386 . S
C416 C411 1.490 . S
C416 C418 1.395 . S
C416 C419 1.403 1_565 S
H417 C423 0.930 . S
C418 H404 0.930 . S
C418 C416 1.395 . S
C418 C421 1.403 . S
C419 C416 1.403 1_545 S
C419 C420 1.524 . S
C419 C423 1.400 . S
C420 H405 0.960 . S
C420 H406 0.960 . S
C420 H407 0.960 . S
C420 C419 1.524 . S
C421 C418 1.403 . S
C421 C422 1.392 1_565 S
C421 C425 1.495 . S
C422 C421 1.392 1_545 S
C422 C423 1.385 . S
C422 C424 1.478 . S
C423 H417 0.930 . S
C423 C419 1.400 . S
C423 C422 1.385 . S
C424 C422 1.478 . S
C424 C426 1.381 . S
C424 C430 1.383 . S
C425 C421 1.495 . S
C425 H431 0.959 . S
C425 H432 0.961 . S
C425 H433 0.960 . S
C426 C424 1.381 . S
C426 C427 1.394 . S
C426 H434 0.930 . S
C427 C426 1.394 . S
C427 C428 1.383 . S
C427 H435 0.929 . S
C428 C427 1.383 . S
C428 C429 1.377 . S
C429 H413 0.930 . S
C429 C428 1.377 . S
C429 C430 1.379 . S
C430 H414 0.931 . S
C430 C424 1.383 . S
C430 C429 1.379 . S
H431 C425 0.959 . S
H432 C425 0.961 . S
H433 C425 0.960 . S
H434 C426 0.930 . S
H435 C427 0.929 . S
H436 C444 0.929 . S
H437 C446 0.930 . S
H438 C448 0.930 1_545 S
H439 C451 0.929 . S
H440 C454 0.930 . S
H441 C456 0.960 . S
H442 C456 0.960 . S
H443 C456 0.960 . S
C444 H436 0.929 . S
C444 C445 1.377 . S
C444 C446 1.384 . S
C445 C444 1.377 . S
C445 C451 1.390 . S
C446 H437 0.930 . S
C446 C444 1.384 . S
C446 C447 1.372 . S
C447 C446 1.372 . S
C447 C448 1.400 . S
C447 C452 1.490 . S
C448 H438 0.930 1_565 S
C448 C447 1.400 . S
C448 C451 1.386 . S
H449 C465 0.930 . S
H450 C466 0.931 . S
C451 H439 0.929 . S
C451 C445 1.390 . S
C451 C448 1.386 . S
C452 C447 1.490 . S
C452 C454 1.395 . S
C452 C455 1.403 1_565 S
H453 C459 0.930 . S
C454 H440 0.930 . S
C454 C452 1.395 . S
C454 C457 1.403 . S
C455 C452 1.403 1_545 S
C455 C456 1.524 . S
C455 C459 1.400 . S
C456 H441 0.960 . S
C456 H442 0.960 . S
C456 H443 0.960 . S
C456 C455 1.524 . S
C457 C454 1.403 . S
C457 C458 1.392 1_565 S
C457 C461 1.495 . S
C458 C457 1.392 1_545 S
C458 C459 1.385 . S
C458 C460 1.478 . S
C459 H453 0.930 . S
C459 C455 1.400 . S
C459 C458 1.385 . S
C460 C458 1.478 . S
C460 C462 1.381 . S
C460 C466 1.383 . S
C461 C457 1.495 . S
C461 H467 0.959 . S
C461 H468 0.961 . S
C461 H469 0.960 . S
C462 C460 1.381 . S
C462 C463 1.394 . S
C462 H470 0.930 1_545 S
C463 C462 1.394 . S
C463 C464 1.383 . S
C463 H471 0.929 . S
C464 C463 1.383 . S
C464 C465 1.377 . S
C465 H449 0.930 . S
C465 C464 1.377 . S
C465 C466 1.379 . S
C466 H450 0.931 . S
C466 C460 1.383 . S
C466 C465 1.379 . S
H467 C461 0.959 . S
H468 C461 0.961 . S
H469 C461 0.960 . S
H470 C462 0.930 1_565 S
H471 C463 0.929 . S
H472 C480 0.929 . S
H473 C482 0.930 . S
H474 C484 0.930 . S
H475 C487 0.929 . S
H476 C490 0.930 . S
H477 C492 0.960 . S
H478 C492 0.960 . S
H479 C492 0.960 . S
C480 H472 0.929 . S
C480 C481 1.377 . S
C480 C482 1.384 . S
C481 C480 1.377 . S
C481 C487 1.390 . S
C482 H473 0.930 . S
C482 C480 1.384 . S
C482 C483 1.372 . S
C483 C482 1.372 . S
C483 C484 1.400 . S
C483 C488 1.490 . S
C484 H474 0.930 . S
C484 C483 1.400 . S
C484 C487 1.386 . S
H485 C501 0.930 . S
H486 C502 0.931 . S
C487 H475 0.929 . S
C487 C481 1.390 . S
C487 C484 1.386 . S
C488 C483 1.490 . S
C488 C490 1.395 . S
C488 C491 1.403 1_565 S
H489 C495 0.930 . S
C490 H476 0.930 . S
C490 C488 1.395 . S
C490 C493 1.403 . S
C491 C488 1.403 1_545 S
C491 C492 1.524 . S
C491 C495 1.400 . S
C492 H477 0.960 . S
C492 H478 0.960 . S
C492 H479 0.960 . S
C492 C491 1.524 . S
C493 C490 1.403 . S
C493 C494 1.392 1_565 S
C493 C497 1.495 . S
C494 C493 1.392 1_545 S
C494 C495 1.385 . S
C494 C496 1.478 . S
C495 H489 0.930 . S
C495 C491 1.400 . S
C495 C494 1.385 . S
C496 C494 1.478 . S
C496 C498 1.381 . S
C496 C502 1.383 . S
C497 C493 1.495 . S
C497 H503 0.959 . S
C497 H504 0.961 . S
C497 H505 0.960 . S
C498 C496 1.381 . S
C498 C499 1.394 . S
C498 H506 0.930 . S
C499 C498 1.394 . S
C499 C500 1.383 . S
C499 H507 0.929 . S
C500 C499 1.383 . S
C500 C501 1.377 . S
C501 H485 0.930 . S
C501 C500 1.377 . S
C501 C502 1.379 . S
C502 H486 0.931 . S
C502 C496 1.383 . S
C502 C501 1.379 . S
H503 C497 0.959 . S
H504 C497 0.961 . S
H505 C497 0.960 . S
H506 C498 0.930 . S
H507 C499 0.929 . S
H508 C516 0.929 . S
H509 C518 0.930 . S
H510 C520 0.930 . S
H511 C523 0.929 . S
H512 C526 0.930 . S
H513 C528 0.960 . S
H514 C528 0.960 . S
H515 C528 0.960 . S
C516 H508 0.929 . S
C516 C517 1.377 . S
C516 C518 1.384 . S
C517 C516 1.377 . S
C517 C523 1.390 . S
C518 H509 0.930 . S
C518 C516 1.384 . S
C518 C519 1.372 . S
C519 C518 1.372 . S
C519 C520 1.400 . S
C519 C524 1.490 . S
C520 H510 0.930 . S
C520 C519 1.400 . S
C520 C523 1.386 . S
H521 C537 0.930 . S
H522 C538 0.931 . S
C523 H511 0.929 . S
C523 C517 1.390 . S
C523 C520 1.386 . S
C524 C519 1.490 . S
C524 C526 1.395 . S
C524 C527 1.403 1_565 S
H525 C531 0.930 . S
C526 H512 0.930 . S
C526 C524 1.395 . S
C526 C529 1.403 . S
C527 C524 1.403 1_545 S
C527 C528 1.524 . S
C527 C531 1.400 . S
C528 H513 0.960 . S
C528 H514 0.960 . S
C528 H515 0.960 . S
C528 C527 1.524 . S
C529 C526 1.403 . S
C529 C530 1.392 1_565 S
C529 C533 1.495 . S
C530 C529 1.392 1_545 S
C530 C531 1.385 . S
C530 C532 1.478 . S
C531 H525 0.930 . S
C531 C527 1.400 . S
C531 C530 1.385 . S
C532 C530 1.478 . S
C532 C534 1.381 . S
C532 C538 1.383 . S
C533 C529 1.495 . S
C533 H539 0.959 . S
C533 H540 0.961 . S
C533 H541 0.960 . S
C534 C532 1.381 . S
C534 C535 1.394 . S
C534 H542 0.930 . S
C535 C534 1.394 . S
C535 C536 1.383 . S
C535 H543 0.929 . S
C536 C535 1.383 . S
C536 C537 1.377 . S
C537 H521 0.930 . S
C537 C536 1.377 . S
C537 C538 1.379 . S
C538 H522 0.931 . S
C538 C532 1.383 . S
C538 C537 1.379 . S
H539 C533 0.959 . S
H540 C533 0.961 . S
H541 C533 0.960 . S
H542 C534 0.930 . S
H543 C535 0.929 . S
H544 C552 0.929 . S
H545 C554 0.930 . S
H546 C556 0.930 . S
H547 C559 0.929 . S
H548 C562 0.930 . S
H549 C564 0.960 . S
H550 C564 0.960 . S
H551 C564 0.960 . S
C552 H544 0.929 . S
C552 C553 1.377 . S
C552 C554 1.384 . S
C553 C552 1.377 . S
C553 C559 1.390 1_554 S
C554 H545 0.930 . S
C554 C552 1.384 . S
C554 C555 1.372 . S
C555 C554 1.372 . S
C555 C556 1.400 1_554 S
C555 C560 1.490 . S
C556 H546 0.930 . S
C556 C555 1.400 1_556 S
C556 C559 1.386 . S
H557 C573 0.930 . S
H558 C574 0.931 . S
C559 H547 0.929 . S
C559 C553 1.390 1_556 S
C559 C556 1.386 . S
C560 C555 1.490 . S
C560 C562 1.395 . S
C560 C563 1.403 1_564 S
H561 C567 0.930 . S
C562 H548 0.930 . S
C562 C560 1.395 . S
C562 C565 1.403 . S
C563 C560 1.403 1_546 S
C563 C564 1.524 . S
C563 C567 1.400 . S
C564 H549 0.960 . S
C564 H550 0.960 . S
C564 H551 0.960 . S
C564 C563 1.524 . S
C565 C562 1.403 . S
C565 C566 1.392 1_565 S
C565 C569 1.495 . S
C566 C565 1.392 1_545 S
C566 C567 1.385 1_554 S
C566 C568 1.478 . S
C567 H561 0.930 . S
C567 C563 1.400 . S
C567 C566 1.385 1_556 S
C568 C566 1.478 . S
C568 C570 1.381 . S
C568 C574 1.383 1_554 S
C569 C565 1.495 . S
C569 H575 0.959 . S
C569 H576 0.961 . S
C569 H577 0.960 . S
C570 C568 1.381 . S
C570 C571 1.394 . S
C570 H578 0.930 . S
C571 C570 1.394 . S
C571 C572 1.383 . S
C571 H579 0.929 . S
C572 C571 1.383 . S
C572 C573 1.377 1_554 S
C573 H557 0.930 . S
C573 C572 1.377 1_556 S
C573 C574 1.379 . S
C574 H558 0.931 . S
C574 C568 1.383 1_556 S
C574 C573 1.379 . S
H575 C569 0.959 . S
H576 C569 0.961 . S
H577 C569 0.960 . S
H578 C570 0.930 . S
H579 C571 0.929 . S
H580 C588 0.929 . S
H581 C590 0.930 . S
H582 C592 0.930 . S
H583 C595 0.929 . S
H584 C598 0.930 . S
H585 C600 0.960 . S
H586 C600 0.960 . S
H587 C600 0.960 . S
C588 H580 0.929 . S
C588 C589 1.377 . S
C588 C590 1.384 . S
C589 C588 1.377 . S
C589 C595 1.390 . S
C590 H581 0.930 . S
C590 C588 1.384 . S
C590 C591 1.372 . S
C591 C590 1.372 . S
C591 C592 1.400 . S
C591 C596 1.490 . S
C592 H582 0.930 . S
C592 C591 1.400 . S
C592 C595 1.386 . S
H593 C609 0.930 . S
H594 C610 0.931 . S
C595 H583 0.929 . S
C595 C589 1.390 . S
C595 C592 1.386 . S
C596 C591 1.490 . S
C596 C598 1.395 . S
C596 C599 1.403 1_565 S
H597 C603 0.930 . S
C598 H584 0.930 . S
C598 C596 1.395 . S
C598 C601 1.403 . S
C599 C596 1.403 1_545 S
C599 C600 1.524 . S
C599 C603 1.400 . S
C600 H585 0.960 . S
C600 H586 0.960 . S
C600 H587 0.960 . S
C600 C599 1.524 . S
C601 C598 1.403 . S
C601 C602 1.392 1_565 S
C601 C605 1.495 . S
C602 C601 1.392 1_545 S
C602 C603 1.385 . S
C602 C604 1.478 . S
C603 H597 0.930 . S
C603 C599 1.400 . S
C603 C602 1.385 . S
C604 C602 1.478 . S
C604 C606 1.381 . S
C604 C610 1.383 . S
C605 C601 1.495 . S
C605 H611 0.959 . S
C605 H612 0.961 . S
C605 H613 0.960 . S
C606 C604 1.381 . S
C606 C607 1.394 . S
C606 H614 0.930 . S
C607 C606 1.394 . S
C607 C608 1.383 . S
C607 H615 0.929 . S
C608 C607 1.383 . S
C608 C609 1.377 . S
C609 H593 0.930 . S
C609 C608 1.377 . S
C609 C610 1.379 . S
C610 H594 0.931 . S
C610 C604 1.383 . S
C610 C609 1.379 . S
H611 C605 0.959 . S
H612 C605 0.961 . S
H613 C605 0.960 . S
H614 C606 0.930 . S
H615 C607 0.929 . S
H616 C624 0.929 . S
H617 C626 0.930 . S
H618 C628 0.930 . S
H619 C631 0.929 . S
H620 C634 0.930 . S
H621 C636 0.960 . S
H622 C636 0.960 . S
H623 C636 0.971 . S
C624 H616 0.929 . S
C624 C625 1.377 1_556 S
C624 C626 1.384 . S
C625 C624 1.377 1_554 S
C625 C631 1.390 . S
C626 H617 0.930 . S
C626 C624 1.384 . S
C626 C627 1.372 1_556 S
C627 C626 1.372 1_554 S
C627 C628 1.400 . S
C627 C632 1.490 . S
C628 H618 0.930 . S
C628 C627 1.400 . S
C628 C631 1.386 . S
H629 C645 0.930 . S
H630 C646 0.931 . S
C631 H619 0.929 . S
C631 C625 1.390 . S
C631 C628 1.386 . S
C632 C627 1.490 . S
C632 C634 1.395 1_554 S
C632 C635 1.403 1_455 S
H633 C639 0.930 . S
C634 H620 0.930 . S
C634 C632 1.395 1_556 S
C634 C637 1.403 . S
C635 C632 1.403 1_655 S
C635 C636 1.524 . S
C635 C639 1.400 . S
C636 H621 0.960 . S
C636 H622 0.960 . S
C636 H623 0.971 . S
C636 C635 1.524 . S
C637 C634 1.403 . S
C637 C638 1.392 1_456 S
C637 C641 1.495 . S
C638 C637 1.392 1_654 S
C638 C639 1.385 . S
C638 C640 1.478 . S
C639 H633 0.930 . S
C639 C635 1.400 . S
C639 C638 1.385 . S
C640 C638 1.478 . S
C640 C642 1.381 1_554 S
C640 C646 1.383 . S
C641 C637 1.495 . S
C641 H647 0.959 . S
C641 H648 0.961 . S
C641 H649 0.960 . S
C642 C640 1.381 1_556 S
C642 C643 1.394 . S
C642 H650 0.930 . S
C643 C642 1.394 . S
C643 C644 1.383 1_556 S
C643 H651 0.929 . S
C644 C643 1.383 1_554 S
C644 C645 1.377 . S
C645 H629 0.930 . S
C645 C644 1.377 . S
C645 C646 1.379 . S
C646 H630 0.931 . S
C646 C640 1.383 . S
C646 C645 1.379 . S
H647 C641 0.959 . S
H648 C641 0.961 . S
H649 C641 0.960 . S
H650 C642 0.930 . S
H651 C643 0.929 . S
H652 C660 0.929 . S
H653 C662 0.930 . S
H654 C664 0.930 . S
H655 C667 0.929 . S
H656 C670 0.930 . S
H657 C672 0.960 . S
H658 C672 0.960 . S
H659 C672 0.960 . S
C660 H652 0.929 . S
C660 C661 1.377 . S
C660 C662 1.384 . S
C661 C660 1.377 . S
C661 C667 1.390 . S
C662 H653 0.930 . S
C662 C660 1.384 . S
C662 C663 1.372 . S
C663 C662 1.372 . S
C663 C664 1.400 . S
C663 C668 1.490 . S
C664 H654 0.930 . S
C664 C663 1.400 . S
C664 C667 1.386 . S
H665 C681 0.930 . S
H666 C682 0.931 . S
C667 H655 0.929 . S
C667 C661 1.390 . S
C667 C664 1.386 . S
C668 C663 1.490 . S
C668 C670 1.395 . S
C668 C671 1.403 . S
H669 C675 0.930 . S
C670 H656 0.930 . S
C670 C668 1.395 . S
C670 C673 1.403 1_455 S
C671 C668 1.403 . S
C671 C672 1.524 . S
C671 C675 1.400 1_455 S
C672 H657 0.960 . S
C672 H658 0.960 . S
C672 H659 0.960 . S
C672 C671 1.524 . S
C673 C670 1.403 1_655 S
C673 C674 1.392 . S
C673 C677 1.495 . S
C674 C673 1.392 . S
C674 C675 1.385 . S
C674 C676 1.478 . S
C675 H669 0.930 . S
C675 C671 1.400 1_655 S
C675 C674 1.385 . S
C676 C674 1.478 . S
C676 C678 1.381 . S
C676 C682 1.383 . S
C677 C673 1.495 . S
C677 H683 0.959 . S
C677 H684 0.961 . S
C677 H685 0.960 . S
C678 C676 1.381 . S
C678 C679 1.394 . S
C678 H686 0.930 . S
C679 C678 1.394 . S
C679 C680 1.383 . S
C679 H687 0.929 . S
C680 C679 1.383 . S
C680 C681 1.377 . S
C681 H665 0.930 . S
C681 C680 1.377 . S
C681 C682 1.379 . S
C682 H666 0.931 . S
C682 C676 1.383 . S
C682 C681 1.379 . S
H683 C677 0.959 . S
H684 C677 0.961 . S
H685 C677 0.960 . S
H686 C678 0.930 . S
H687 C679 0.929 . S
C121 C79 1.484 . S
C140 C9 1.490 . S
C157 C65 1.479 . S
C176 C23 1.462 . S
C193 C107 1.479 . S
C212 C37 1.462 . S
C229 C93 1.478 . S
C248 C51 1.461 . S
C265 C3 1.375 . S
C284 C31 1.378 . S
C301 C17 1.374 . S
C320 C45 1.379 . S
C337 C21 1.352 . S
C356 C49 1.363 . S
C373 C7 1.352 . S
C392 C35 1.360 . S
C409 C59 1.374 . S
C428 C87 1.380 . S
C445 C101 1.373 . S
C464 C73 1.377 . S
C481 C105 1.349 . S
C500 C77 1.337 . S
C517 C63 1.350 . S
C536 C91 1.328 . S
C553 C22 1.496 . S
C572 C8 1.488 . S
C589 C36 1.496 . S
C608 C50 1.488 . S
C625 C64 1.499 . S
C644 C78 1.500 . S
C661 C92 1.498 . S
C680 C106 1.497 . S
