# Generated by pormake.
# Topology neb, (4)-cn, num edge types: 1
# Building blocks:
#     Node 0, Type 0, BuildingBlock: AZAVOO_clean_sbu_0, # of connection points: 4
#     Node 1, Type 0, BuildingBlock: AZAVOO_clean_sbu_0, # of connection points: 4
#     Node 2, Type 0, BuildingBlock: AZAVOO_clean_sbu_0, # of connection points: 4
#     Node 3, Type 0, BuildingBlock: AZAVOO_clean_sbu_0, # of connection points: 4
#     Node 4, Type 0, BuildingBlock: AZAVOO_clean_sbu_0, # of connection points: 4
#     Node 5, Type 0, BuildingBlock: AZAVOO_clean_sbu_0, # of connection points: 4
#     Node 6, Type 0, BuildingBlock: AZAVOO_clean_sbu_0, # of connection points: 4
#     Node 7, Type 0, BuildingBlock: AZAVOO_clean_sbu_0, # of connection points: 4
#     Node 8, Type 0, BuildingBlock: AZAVOO_clean_sbu_0, # of connection points: 4
#     Node 9, Type 0, BuildingBlock: AZAVOO_clean_sbu_0, # of connection points: 4
#     Node 10, Type 0, BuildingBlock: AZAVOO_clean_sbu_0, # of connection points: 4
#     Node 11, Type 0, BuildingBlock: AZAVOO_clean_sbu_0, # of connection points: 4
#     Node 12, Type 0, BuildingBlock: AZAVOO_clean_sbu_0, # of connection points: 4
#     Node 13, Type 0, BuildingBlock: AZAVOO_clean_sbu_0, # of connection points: 4
#     Node 14, Type 0, BuildingBlock: AZAVOO_clean_sbu_0, # of connection points: 4
#     Node 15, Type 0, BuildingBlock: AZAVOO_clean_sbu_0, # of connection points: 4
#     Edge 16, Type (0, 0), BuildingBlock: EYOCIG_clean_linker_4, # of connection points: 2
#     Edge 17, Type (0, 0), BuildingBlock: EYOCIG_clean_linker_4, # of connection points: 2
#     Edge 18, Type (0, 0), BuildingBlock: EYOCIG_clean_linker_4, # of connection points: 2
#     Edge 19, Type (0, 0), BuildingBlock: EYOCIG_clean_linker_4, # of connection points: 2
#     Edge 20, Type (0, 0), BuildingBlock: EYOCIG_clean_linker_4, # of connection points: 2
#     Edge 21, Type (0, 0), BuildingBlock: EYOCIG_clean_linker_4, # of connection points: 2
#     Edge 22, Type (0, 0), BuildingBlock: EYOCIG_clean_linker_4, # of connection points: 2
#     Edge 23, Type (0, 0), BuildingBlock: EYOCIG_clean_linker_4, # of connection points: 2
#     Edge 24, Type (0, 0), BuildingBlock: EYOCIG_clean_linker_4, # of connection points: 2
#     Edge 25, Type (0, 0), BuildingBlock: EYOCIG_clean_linker_4, # of connection points: 2
#     Edge 26, Type (0, 0), BuildingBlock: EYOCIG_clean_linker_4, # of connection points: 2
#     Edge 27, Type (0, 0), BuildingBlock: EYOCIG_clean_linker_4, # of connection points: 2
#     Edge 28, Type (0, 0), BuildingBlock: EYOCIG_clean_linker_4, # of connection points: 2
#     Edge 29, Type (0, 0), BuildingBlock: EYOCIG_clean_linker_4, # of connection points: 2
#     Edge 30, Type (0, 0), BuildingBlock: EYOCIG_clean_linker_4, # of connection points: 2
#     Edge 31, Type (0, 0), BuildingBlock: EYOCIG_clean_linker_4, # of connection points: 2
#     Edge 32, Type (0, 0), BuildingBlock: EYOCIG_clean_linker_4, # of connection points: 2
#     Edge 33, Type (0, 0), BuildingBlock: EYOCIG_clean_linker_4, # of connection points: 2
#     Edge 34, Type (0, 0), BuildingBlock: EYOCIG_clean_linker_4, # of connection points: 2
#     Edge 35, Type (0, 0), BuildingBlock: EYOCIG_clean_linker_4, # of connection points: 2
#     Edge 36, Type (0, 0), BuildingBlock: EYOCIG_clean_linker_4, # of connection points: 2
#     Edge 37, Type (0, 0), BuildingBlock: EYOCIG_clean_linker_4, # of connection points: 2
#     Edge 38, Type (0, 0), BuildingBlock: EYOCIG_clean_linker_4, # of connection points: 2
#     Edge 39, Type (0, 0), BuildingBlock: EYOCIG_clean_linker_4, # of connection points: 2
#     Edge 40, Type (0, 0), BuildingBlock: EYOCIG_clean_linker_4, # of connection points: 2
#     Edge 41, Type (0, 0), BuildingBlock: EYOCIG_clean_linker_4, # of connection points: 2
#     Edge 42, Type (0, 0), BuildingBlock: EYOCIG_clean_linker_4, # of connection points: 2
#     Edge 43, Type (0, 0), BuildingBlock: EYOCIG_clean_linker_4, # of connection points: 2
#     Edge 44, Type (0, 0), BuildingBlock: EYOCIG_clean_linker_4, # of connection points: 2
#     Edge 45, Type (0, 0), BuildingBlock: EYOCIG_clean_linker_4, # of connection points: 2
#     Edge 46, Type (0, 0), BuildingBlock: EYOCIG_clean_linker_4, # of connection points: 2
#     Edge 47, Type (0, 0), BuildingBlock: EYOCIG_clean_linker_4, # of connection points: 2
# Relax obj value: 0.092
# Max RMSD: 0.142
# Mean RMSD: 0.142
data_MOF--net-neb--node1-AZAVOO_clean_sbu_0--edge1-EYOCIG_clean_linker_4
_symmetry_space_group_name_H-M    P1
_symmetry_Int_Tables_number       1
_symmetry_cell_setting            triclinic
loop_
_symmetry_equiv_pos_as_xyz
'x, y, z'
_cell_length_a     40.68515
_cell_length_b     15.859961
_cell_length_c     60.078671
_cell_angle_alpha  97.868908
_cell_angle_beta   89.997026
_cell_angle_gamma 89.982278
loop_
_atom_site_label
_atom_site_type_symbol
_atom_site_fract_x
_atom_site_fract_y
_atom_site_fract_z
_atom_type_partial_charge
Mg0 Mg 0.09419 0.18531 0.42416 0.0
O1 O 0.10311 0.06857 0.39782 0.0
O2 O 0.14185 0.10282 0.37419 0.0
Mg3 Mg 0.15763 0.24063 0.3848 0.0
C4 C 0.12134 0.05048 0.38059 0.0
C5 C 0.0377 0.12606 0.45368 0.0
O6 O 0.0285 0.20516 0.45334 0.0
O7 O 0.1425 0.16653 0.44267 0.0
O8 O 0.17789 0.21464 0.4187 0.0
O9 O 0.05731 0.23241 0.40101 0.0
O10 O 0.11002 0.26635 0.40144 0.0
C11 C 0.17135 0.18875 0.43737 0.0
C12 C 0.08155 0.2698 0.39246 0.0
O13 O 0.06456 0.09962 0.44444 0.0
Mg14 Mg 0.09407 0.04646 0.76887 0.0
O15 O 0.10317 0.16372 0.79505 0.0
O16 O 0.14251 0.13005 0.81833 0.0
Mg17 Mg 0.15823 -0.00788 0.80784 0.0
C18 C 0.12179 0.1822 0.81208 0.0
C19 C 0.03761 0.10233 0.7389 0.0
O20 O 0.02946 0.02226 0.73885 0.0
O21 O 0.14196 0.06558 0.75002 0.0
O22 O 0.17776 0.01739 0.77372 0.0
O23 O 0.05763 -0.00114 0.79219 0.0
O24 O 0.11043 0.96587 0.79153 0.0
C25 C 0.17089 0.04316 0.75509 0.0
C26 C 0.08206 0.96172 0.8006 0.0
O27 O 0.06384 0.13087 0.74861 0.0
Mg28 Mg 0.87374 0.7967 0.5187 0.0
O29 O 0.86563 0.91419 0.545 0.0
O30 O 0.82693 0.88126 0.56884 0.0
Mg31 Mg 0.81064 0.74375 0.55861 0.0
C32 C 0.84752 0.93304 0.56227 0.0
C33 C 0.93051 0.85224 0.48905 0.0
O34 O 0.93914 0.77294 0.48979 0.0
O35 O 0.82523 0.81756 0.50066 0.0
O36 O 0.78999 0.77061 0.52492 0.0
O37 O 0.91074 0.74802 0.54148 0.0
O38 O 0.85784 0.71646 0.54157 0.0
C39 C 0.79634 0.79652 0.50623 0.0
C40 C 0.88645 0.71157 0.55025 0.0
O41 O 0.90374 0.88039 0.49809 0.0
Mg42 Mg 0.87416 0.93583 0.17427 0.0
O43 O 0.86565 0.81826 0.14809 0.0
O44 O 0.82685 0.85145 0.12436 0.0
Mg45 Mg 0.81074 0.98918 0.13464 0.0
C46 C 0.84747 0.79956 0.13085 0.0
C47 C 0.93042 0.87984 0.2044 0.0
O48 O 0.9389 0.95953 0.20416 0.0
O49 O 0.82585 0.91684 0.19271 0.0
O50 O 0.79047 0.96417 0.1686 0.0
O51 O 0.91103 0.98297 0.15116 0.0
O52 O 0.85823 0.01591 0.15135 0.0
C53 C 0.797 0.93882 0.18734 0.0
C54 C 0.88676 0.01974 0.14247 0.0
O55 O 0.90401 0.85171 0.19485 0.0
Mg56 Mg 0.09403 0.68386 0.92434 0.0
O57 O 0.10308 0.56726 0.89791 0.0
O58 O 0.14227 0.60174 0.87462 0.0
Mg59 Mg 0.15812 0.73927 0.88544 0.0
C60 C 0.1216 0.54934 0.88081 0.0
C61 C 0.03764 0.62753 0.95435 0.0
O62 O 0.02957 0.70778 0.95462 0.0
O63 O 0.142 0.66349 0.943 0.0
O64 O 0.17783 0.71166 0.91932 0.0
O65 O 0.05754 0.73213 0.90116 0.0
O66 O 0.11035 0.76504 0.90183 0.0
C67 C 0.171 0.68515 0.93786 0.0
C68 C 0.08198 0.76927 0.89276 0.0
O69 O 0.06378 0.59903 0.94448 0.0
Mg70 Mg 0.09448 0.54683 0.26868 0.0
O71 O 0.10252 0.66384 0.2951 0.0
O72 O 0.14135 0.63081 0.31883 0.0
Mg73 Mg 0.15773 0.49342 0.30841 0.0
C74 C 0.12066 0.68256 0.31235 0.0
C75 C 0.03734 0.60513 0.23968 0.0
O76 O 0.02797 0.52657 0.24064 0.0
O77 O 0.1429 0.56812 0.2506 0.0
O78 O 0.17825 0.52071 0.27472 0.0
O79 O 0.05758 0.49762 0.29144 0.0
O80 O 0.1105 0.46606 0.2914 0.0
C81 C 0.1718 0.54691 0.25607 0.0
C82 C 0.08192 0.46098 0.30011 0.0
O83 O 0.06458 0.63152 0.24831 0.0
Mg84 Mg 0.87337 0.29601 0.0187 0.0
O85 O 0.86559 0.41335 0.04509 0.0
O86 O 0.82707 0.38055 0.06905 0.0
Mg87 Mg 0.81063 0.2431 0.05883 0.0
C88 C 0.84766 0.43221 0.06244 0.0
C89 C 0.93037 0.35392 -0.01034 0.0
O90 O 0.93988 0.2757 -0.00904 0.0
O91 O 0.82473 0.31668 0.00082 0.0
O92 O 0.78972 0.2693 0.02515 0.0
O93 O 0.91057 0.2472 0.04132 0.0
O94 O 0.85767 0.21559 0.04158 0.0
C95 C 0.79593 0.29511 0.00643 0.0
C96 C 0.88635 0.21065 0.05014 0.0
O97 O 0.903 0.38031 -0.00191 0.0
Mg98 Mg 0.87395 0.43554 0.67414 0.0
O99 O 0.86492 0.31893 0.64776 0.0
O100 O 0.82617 0.35365 0.62419 0.0
Mg101 Mg 0.81055 0.49159 0.63489 0.0
C102 C 0.84665 0.30108 0.63054 0.0
C103 C 0.93053 0.37616 0.70341 0.0
O104 O 0.93977 0.4551 0.70288 0.0
O105 O 0.82566 0.41703 0.69269 0.0
O106 O 0.79028 0.4656 0.66879 0.0
O107 O 0.91089 0.48248 0.65104 0.0
O108 O 0.85821 0.51683 0.65148 0.0
C109 C 0.79682 0.43954 0.68744 0.0
C110 C 0.8867 0.52016 0.64252 0.0
O111 O 0.90355 0.34974 0.69437 0.0
Mg112 Mg 0.59388 0.18478 0.92439 0.0
O113 O 0.60306 0.06918 0.89769 0.0
O114 O 0.6422 0.10468 0.8745 0.0
Mg115 Mg 0.65776 0.24232 0.88563 0.0
C116 C 0.62158 0.05189 0.88056 0.0
C117 C 0.53693 0.12604 0.9533 0.0
O118 O 0.52834 0.20561 0.95297 0.0
O119 O 0.64194 0.1646 0.943 0.0
O120 O 0.67757 0.21451 0.91947 0.0
O121 O 0.55724 0.23364 0.90141 0.0
O122 O 0.60999 0.26721 0.90211 0.0
C123 C 0.67084 0.18736 0.93795 0.0
C124 C 0.58156 0.27156 0.89312 0.0
O125 O 0.56375 0.09853 0.94421 0.0
Mg126 Mg 0.59461 0.04675 0.26883 0.0
O127 O 0.60317 0.16343 0.29533 0.0
O128 O 0.64218 0.12923 0.31879 0.0
Mg129 Mg 0.65827 -0.0082 0.30809 0.0
C130 C 0.62152 0.18148 0.31252 0.0
C131 C 0.53791 0.10255 0.23914 0.0
O132 O 0.52973 0.02267 0.2394 0.0
O133 O 0.64282 0.0677 0.25047 0.0
O134 O 0.67839 0.01953 0.27433 0.0
O135 O 0.55789 -0.00223 0.29174 0.0
O136 O 0.61077 0.96559 0.2914 0.0
C137 C 0.67176 0.0461 0.25576 0.0
C138 C 0.58227 0.96081 0.30026 0.0
O139 O 0.56435 0.1312 0.24856 0.0
Mg140 Mg 0.3736 0.79632 0.01884 0.0
O141 O 0.36483 0.91387 0.04501 0.0
O142 O 0.32625 0.88004 0.06881 0.0
Mg143 Mg 0.31074 0.74176 0.05874 0.0
C144 C 0.34658 0.93239 0.06223 0.0
C145 C 0.42967 0.85248 -0.01129 0.0
O146 O 0.43822 0.773 -0.01077 0.0
O147 O 0.32502 0.81456 0.00064 0.0
O148 O 0.29003 0.76656 0.0249 0.0
O149 O 0.41081 0.7492 0.04177 0.0
O150 O 0.35808 0.71587 0.04177 0.0
C151 C 0.29628 0.79215 0.00615 0.0
C152 C 0.3867 0.7119 0.05049 0.0
O153 O 0.40316 0.88076 -0.00188 0.0
Mg154 Mg 0.37327 0.93499 0.6744 0.0
O155 O 0.36507 0.81957 0.64751 0.0
O156 O 0.32657 0.85477 0.62381 0.0
Mg157 Mg 0.31044 -0.00802 0.63479 0.0
C158 C 0.34707 0.8022 0.63013 0.0
C159 C 0.42958 0.87534 0.70393 0.0
O160 O 0.43858 0.95468 0.70376 0.0
O161 O 0.32469 0.91321 0.69219 0.0
O162 O 0.28966 0.96265 0.6682 0.0
O163 O 0.41044 0.98498 0.65196 0.0
O164 O 0.3576 0.01741 0.65201 0.0
C165 C 0.29589 0.93513 0.68671 0.0
C166 C 0.38623 0.0224 0.64337 0.0
O167 O 0.40286 0.84867 0.69454 0.0
Mg168 Mg 0.59403 0.68441 0.42429 0.0
O169 O 0.60344 0.56731 0.39814 0.0
O170 O 0.64254 0.60141 0.37476 0.0
Mg171 Mg 0.65798 0.73957 0.38526 0.0
C172 C 0.62198 0.54902 0.38108 0.0
C173 C 0.53722 0.62631 0.45359 0.0
O174 O 0.52835 0.70558 0.45311 0.0
O175 O 0.64206 0.66646 0.44317 0.0
O176 O 0.67771 0.71463 0.41936 0.0
O177 O 0.55745 0.73105 0.40086 0.0
O178 O 0.61014 0.7652 0.40158 0.0
C179 C 0.67095 0.68904 0.43803 0.0
C180 C 0.58178 0.76858 0.39245 0.0
O181 O 0.56407 0.59912 0.44451 0.0
Mg182 Mg 0.59401 0.5471 0.76903 0.0
O183 O 0.60284 0.66496 0.79506 0.0
O184 O 0.64166 0.63167 0.81878 0.0
Mg185 Mg 0.65748 0.49368 0.80862 0.0
C186 C 0.62116 0.68375 0.81223 0.0
C187 C 0.53717 0.60256 0.73942 0.0
O188 O 0.52863 0.52323 0.74019 0.0
O189 O 0.64237 0.56587 0.75054 0.0
O190 O 0.67784 0.51918 0.77471 0.0
O191 O 0.55716 0.50042 0.79225 0.0
O192 O 0.60994 0.46725 0.79199 0.0
C193 C 0.67129 0.54452 0.75597 0.0
C194 C 0.58144 0.46363 0.80093 0.0
O195 O 0.56393 0.63085 0.74843 0.0
Mg196 Mg 0.37391 0.2964 0.51897 0.0
O197 O 0.36538 0.41458 0.5449 0.0
O198 O 0.32643 0.38249 0.56867 0.0
Mg199 Mg 0.31026 0.24473 0.55863 0.0
C200 C 0.3471 0.43398 0.56206 0.0
C201 C 0.43054 0.35122 0.48896 0.0
O202 O 0.43897 0.27163 0.48943 0.0
O203 O 0.32566 0.31582 0.50047 0.0
O204 O 0.29004 0.26992 0.52465 0.0
O205 O 0.41065 0.24949 0.54223 0.0
O206 O 0.3578 0.21711 0.54205 0.0
C207 C 0.29669 0.2949 0.50589 0.0
C208 C 0.3863 0.21321 0.55098 0.0
O209 O 0.40402 0.3797 0.49829 0.0
Mg210 Mg 0.37402 0.4344 0.17408 0.0
O211 O 0.36445 0.31806 0.14769 0.0
O212 O 0.32566 0.35383 0.12429 0.0
Mg213 Mg 0.31055 0.49208 0.13507 0.0
C214 C 0.346 0.30073 0.13053 0.0
C215 C 0.43034 0.37495 0.20352 0.0
O216 O 0.43937 0.45419 0.20322 0.0
O217 O 0.32582 0.41671 0.19278 0.0
O218 O 0.29047 0.46624 0.16902 0.0
O219 O 0.41097 0.48072 0.1509 0.0
O220 O 0.35839 0.5161 0.1515 0.0
C221 C 0.29702 0.43987 0.18762 0.0
C222 C 0.38685 0.51895 0.14246 0.0
O223 O 0.40356 0.34821 0.19425 0.0
C224 C 0.2479 0.25879 0.47773 0.0
C225 C 0.27191 0.2792 0.48891 0.0
C226 C 0.21996 0.22578 0.46562 0.0
C227 C 0.19604 0.20482 0.4544 0.0
C228 C 0.97282 0.95939 0.47471 0.0
C229 C 0.95358 0.91029 0.48124 0.0
C230 C -0.00415 0.01746 0.46786 0.0
C231 C 0.01511 0.06655 0.46135 0.0
C232 C 0.24672 0.97019 0.71452 0.0
C233 C 0.27089 0.94973 0.70354 0.0
C234 C 0.21887 0.0042 0.72652 0.0
C235 C 0.19517 0.02624 0.73783 0.0
C236 C -0.00458 0.20958 0.72448 0.0
C237 C 0.01457 0.16032 0.73103 0.0
C238 C 0.97243 0.26771 0.7176 0.0
C239 C 0.95315 0.31675 0.71109 0.0
C240 C 0.74712 0.76109 0.47844 0.0
C241 C 0.77132 0.78141 0.48942 0.0
C242 C 0.71916 0.72757 0.46647 0.0
C243 C 0.69537 0.70581 0.45522 0.0
C244 C 0.72055 0.01075 0.22761 0.0
C245 C 0.69651 0.03119 0.23875 0.0
C246 C 0.74846 0.97721 0.21557 0.0
C247 C 0.77234 0.95566 0.20437 0.0
C248 C 0.97241 0.77206 0.2188 0.0
C249 C 0.95335 0.82154 0.21225 0.0
C250 C -0.00466 0.71363 0.22561 0.0
C251 C 0.01463 0.66447 0.23206 0.0
C252 C 0.24746 0.75394 -0.02181 0.0
C253 C 0.27144 0.77541 -0.01073 0.0
C254 C 0.21953 0.72046 0.96618 0.0
C255 C 0.19556 0.69999 0.95499 0.0
C256 C -0.00454 0.52009 0.96867 0.0
C257 C 0.01461 0.56944 0.96217 0.0
C258 C 0.97244 0.46195 -0.0245 0.0
C259 C 0.95308 0.41309 -0.01801 0.0
C260 C 0.24869 0.47789 0.21602 0.0
C261 C 0.2725 0.45633 0.20475 0.0
C262 C 0.2208 0.51138 0.22809 0.0
C263 C 0.1967 0.53177 0.23917 0.0
C264 C 0.7191 0.22404 0.96645 0.0
C265 C 0.69528 0.20288 0.95516 0.0
C266 C 0.74694 0.2578 -0.02147 0.0
C267 C 0.77098 0.27888 -0.01041 0.0
C268 C 0.72024 0.50896 0.72788 0.0
C269 C 0.69618 0.52913 0.73904 0.0
C270 C 0.74823 0.47629 0.71576 0.0
C271 C 0.77213 0.45547 0.70449 0.0
C272 C 0.49458 0.01819 0.96729 0.0
C273 C 0.51389 0.06748 0.96091 0.0
C274 C 0.47165 0.95983 -0.02588 0.0
C275 C 0.45261 0.91047 -0.01925 0.0
C276 C 0.47237 0.26701 0.21781 0.0
C277 C 0.45301 0.31577 0.21125 0.0
C278 C 0.49548 0.20927 0.22473 0.0
C279 C 0.51475 0.16028 0.23128 0.0
C280 C 0.47161 0.76726 0.71817 0.0
C281 C 0.45224 0.81604 0.71163 0.0
C282 C 0.49475 0.70948 0.72506 0.0
C283 C 0.51403 0.66045 0.7316 0.0
C284 C 0.47272 0.45841 0.4745 0.0
C285 C 0.4536 0.40909 0.48106 0.0
C286 C 0.49541 0.51741 0.4677 0.0
C287 C 0.51441 0.56736 0.46128 0.0
C288 C 0.115 0.82916 0.33861 0.0
C289 C 0.1165 0.76337 0.32598 0.0
C290 C 0.11529 0.90454 0.35407 0.0
C291 C 0.11711 0.97016 0.36673 0.0
C292 C 0.07642 0.34399 0.35586 0.0
C293 C 0.07764 0.30946 0.37252 0.0
C294 C 0.07654 0.3853 0.33645 0.0
C295 C 0.07793 0.42043 0.31989 0.0
C296 C 0.11634 0.32841 0.83857 0.0
C297 C 0.11781 0.26273 0.82589 0.0
C298 C 0.11629 0.40354 0.85414 0.0
C299 C 0.1177 0.46902 0.8669 0.0
C300 C 0.07718 0.84447 0.85631 0.0
C301 C 0.07834 0.80955 0.87291 0.0
C302 C 0.0772 0.88606 0.83696 0.0
C303 C 0.0784 0.92119 0.8204 0.0
C304 C 0.85261 0.15525 0.60392 0.0
C305 C 0.85081 0.22083 0.61662 0.0
C306 C 0.85298 0.07988 0.58845 0.0
C307 C 0.85159 0.01402 0.57584 0.0
C308 C 0.892 0.59491 0.60603 0.0
C309 C 0.8907 0.56012 0.62264 0.0
C310 C 0.89194 0.63631 0.58664 0.0
C311 C 0.89053 0.67126 0.57005 0.0
C312 C 0.85378 0.57847 0.0888 0.0
C313 C 0.85209 0.51287 0.07611 0.0
C314 C 0.85366 0.65358 0.10437 0.0
C315 C 0.85188 0.71912 0.11707 0.0
C316 C 0.89205 0.09387 0.10588 0.0
C317 C 0.89074 0.0594 0.12255 0.0
C318 C 0.892 0.13517 0.08648 0.0
C319 C 0.89057 0.17024 0.06992 0.0
C320 C 0.61593 0.83093 0.8383 0.0
C321 C 0.61726 0.76486 0.82577 0.0
C322 C 0.61613 0.90637 0.85375 0.0
C323 C 0.61772 0.97183 0.86651 0.0
C324 C 0.57639 0.34819 0.85693 0.0
C325 C 0.57776 0.31263 0.87341 0.0
C326 C 0.57627 0.3897 0.83757 0.0
C327 C 0.5775 0.4241 0.82088 0.0
C328 C 0.61619 0.32751 0.33909 0.0
C329 C 0.61757 0.26197 0.32635 0.0
C330 C 0.61641 0.40275 0.35462 0.0
C331 C 0.618 0.46851 0.36726 0.0
C332 C 0.57692 0.84339 0.35594 0.0
C333 C 0.57805 0.8086 0.37256 0.0
C334 C 0.57706 0.88495 0.33658 0.0
C335 C 0.57842 0.92015 0.32003 0.0
C336 C 0.35136 0.15488 0.10384 0.0
C337 C 0.34982 0.22046 0.11656 0.0
C338 C 0.35163 0.07949 0.08837 0.0
C339 C 0.35039 0.0135 0.0758 0.0
C340 C 0.39229 0.59419 0.10607 0.0
C341 C 0.39089 0.55917 0.12264 0.0
C342 C 0.39234 0.63604 0.08676 0.0
C343 C 0.39095 0.67135 0.07024 0.0
C344 C 0.35288 0.65659 0.60346 0.0
C345 C 0.35118 0.72202 0.6162 0.0
C346 C 0.35292 0.58112 0.58804 0.0
C347 C 0.35132 0.51503 0.57555 0.0
C348 C 0.39156 0.13976 0.5877 0.0
C349 C 0.39021 0.17388 0.57097 0.0
C350 C 0.39164 0.09856 0.60712 0.0
C351 C 0.39032 0.06316 0.62364 0.0
loop_
_geom_bond_atom_site_label_1
_geom_bond_atom_site_label_2
_geom_bond_distance
_geom_bond_site_symmetry_2
_ccdc_geom_bond_type
Mg0 O1 2.028 . S
Mg0 O7 1.986 . S
Mg0 O9 2.114 . S
Mg0 O10 2.251 . S
Mg0 O13 2.010 . S
O1 Mg0 2.028 . S
O1 C4 1.250 . S
O2 Mg3 2.028 . S
O2 C4 1.248 . S
Mg3 O2 2.028 . S
Mg3 O8 2.032 . S
Mg3 O10 2.079 . S
C4 O1 1.250 . S
C4 O2 1.248 . S
C5 O6 1.264 . S
C5 O13 1.249 . S
O6 C5 1.264 . S
O7 Mg0 1.986 . S
O7 C11 1.246 . S
O8 Mg3 2.032 . S
O8 C11 1.259 . S
O9 Mg0 2.114 . S
O9 C12 1.252 . S
O10 Mg0 2.251 . S
O10 Mg3 2.079 . S
O10 C12 1.273 . S
C11 O7 1.246 . S
C11 O8 1.259 . S
C12 O9 1.252 . S
C12 O10 1.273 . S
O13 Mg0 2.010 . S
O13 C5 1.249 . S
Mg14 O15 2.028 . S
Mg14 O21 1.986 . S
Mg14 O23 2.114 . S
Mg14 O24 2.251 . S
Mg14 O27 2.010 . S
O15 Mg14 2.028 . S
O15 C18 1.250 . S
O16 Mg17 2.028 . S
O16 C18 1.248 . S
Mg17 O16 2.028 . S
Mg17 O22 2.032 . S
Mg17 O24 2.079 . S
C18 O15 1.250 . S
C18 O16 1.248 . S
C19 O20 1.264 . S
C19 O27 1.249 . S
O20 C19 1.264 . S
O21 Mg14 1.986 . S
O21 C25 1.246 . S
O22 Mg17 2.032 . S
O22 C25 1.259 . S
O23 Mg14 2.114 . S
O23 C26 1.252 1_545 S
O24 Mg14 2.251 . S
O24 Mg17 2.079 . S
O24 C26 1.273 1_545 S
C25 O21 1.246 . S
C25 O22 1.259 . S
C26 O23 1.252 1_565 S
C26 O24 1.273 1_565 S
O27 Mg14 2.010 . S
O27 C19 1.249 . S
Mg28 O29 2.028 . S
Mg28 O35 1.986 . S
Mg28 O37 2.114 . S
Mg28 O38 2.251 . S
Mg28 O41 2.010 . S
O29 Mg28 2.028 . S
O29 C32 1.250 . S
O30 Mg31 2.028 . S
O30 C32 1.248 . S
Mg31 O30 2.028 . S
Mg31 O36 2.032 . S
Mg31 O38 2.079 . S
C32 O29 1.250 . S
C32 O30 1.248 . S
C33 O34 1.264 . S
C33 O41 1.249 . S
O34 C33 1.264 . S
O35 Mg28 1.986 . S
O35 C39 1.246 . S
O36 Mg31 2.032 . S
O36 C39 1.259 . S
O37 Mg28 2.114 . S
O37 C40 1.252 . S
O38 Mg28 2.251 . S
O38 Mg31 2.079 . S
O38 C40 1.273 . S
C39 O35 1.246 . S
C39 O36 1.259 . S
C40 O37 1.252 . S
C40 O38 1.273 . S
O41 Mg28 2.010 . S
O41 C33 1.249 . S
Mg42 O43 2.028 . S
Mg42 O49 1.986 . S
Mg42 O51 2.114 . S
Mg42 O52 2.251 . S
Mg42 O55 2.010 . S
O43 Mg42 2.028 . S
O43 C46 1.250 . S
O44 Mg45 2.028 . S
O44 C46 1.248 . S
Mg45 O44 2.028 . S
Mg45 O50 2.032 . S
Mg45 O52 2.079 . S
C46 O43 1.250 . S
C46 O44 1.248 . S
C47 O48 1.264 . S
C47 O55 1.249 . S
O48 C47 1.264 . S
O49 Mg42 1.986 . S
O49 C53 1.246 . S
O50 Mg45 2.032 . S
O50 C53 1.259 . S
O51 Mg42 2.114 . S
O51 C54 1.252 1_565 S
O52 Mg42 2.251 . S
O52 Mg45 2.079 . S
O52 C54 1.273 1_565 S
C53 O49 1.246 . S
C53 O50 1.259 . S
C54 O51 1.252 1_545 S
C54 O52 1.273 1_545 S
O55 Mg42 2.010 . S
O55 C47 1.249 . S
Mg56 O57 2.028 . S
Mg56 O63 1.986 . S
Mg56 O65 2.114 . S
Mg56 O66 2.251 . S
Mg56 O69 2.010 . S
O57 Mg56 2.028 . S
O57 C60 1.250 . S
O58 Mg59 2.028 . S
O58 C60 1.248 . S
Mg59 O58 2.028 . S
Mg59 O64 2.032 . S
Mg59 O66 2.079 . S
C60 O57 1.250 . S
C60 O58 1.248 . S
C61 O62 1.264 . S
C61 O69 1.249 . S
O62 C61 1.264 . S
O63 Mg56 1.986 . S
O63 C67 1.246 . S
O64 Mg59 2.032 . S
O64 C67 1.259 . S
O65 Mg56 2.114 . S
O65 C68 1.252 . S
O66 Mg56 2.251 . S
O66 Mg59 2.079 . S
O66 C68 1.273 . S
C67 O63 1.246 . S
C67 O64 1.259 . S
C68 O65 1.252 . S
C68 O66 1.273 . S
O69 Mg56 2.010 . S
O69 C61 1.249 . S
Mg70 O71 2.028 . S
Mg70 O77 1.986 . S
Mg70 O79 2.114 . S
Mg70 O80 2.251 . S
Mg70 O83 2.010 . S
O71 Mg70 2.028 . S
O71 C74 1.250 . S
O72 Mg73 2.028 . S
O72 C74 1.248 . S
Mg73 O72 2.028 . S
Mg73 O78 2.032 . S
Mg73 O80 2.079 . S
C74 O71 1.250 . S
C74 O72 1.248 . S
C75 O76 1.264 . S
C75 O83 1.249 . S
O76 C75 1.264 . S
O77 Mg70 1.986 . S
O77 C81 1.246 . S
O78 Mg73 2.032 . S
O78 C81 1.259 . S
O79 Mg70 2.114 . S
O79 C82 1.252 . S
O80 Mg70 2.251 . S
O80 Mg73 2.079 . S
O80 C82 1.273 . S
C81 O77 1.246 . S
C81 O78 1.259 . S
C82 O79 1.252 . S
C82 O80 1.273 . S
O83 Mg70 2.010 . S
O83 C75 1.249 . S
Mg84 O85 2.028 . S
Mg84 O91 1.986 . S
Mg84 O93 2.114 . S
Mg84 O94 2.251 . S
Mg84 O97 2.010 . S
O85 Mg84 2.028 . S
O85 C88 1.250 . S
O86 Mg87 2.028 . S
O86 C88 1.248 . S
Mg87 O86 2.028 . S
Mg87 O92 2.032 . S
Mg87 O94 2.079 . S
C88 O85 1.250 . S
C88 O86 1.248 . S
C89 O90 1.264 . S
C89 O97 1.249 . S
O90 C89 1.264 . S
O91 Mg84 1.986 . S
O91 C95 1.246 . S
O92 Mg87 2.032 . S
O92 C95 1.259 . S
O93 Mg84 2.114 . S
O93 C96 1.252 . S
O94 Mg84 2.251 . S
O94 Mg87 2.079 . S
O94 C96 1.273 . S
C95 O91 1.246 . S
C95 O92 1.259 . S
C96 O93 1.252 . S
C96 O94 1.273 . S
O97 Mg84 2.010 . S
O97 C89 1.249 . S
Mg98 O99 2.028 . S
Mg98 O105 1.986 . S
Mg98 O107 2.114 . S
Mg98 O108 2.251 . S
Mg98 O111 2.010 . S
O99 Mg98 2.028 . S
O99 C102 1.250 . S
O100 Mg101 2.028 . S
O100 C102 1.248 . S
Mg101 O100 2.028 . S
Mg101 O106 2.032 . S
Mg101 O108 2.079 . S
C102 O99 1.250 . S
C102 O100 1.248 . S
C103 O104 1.264 . S
C103 O111 1.249 . S
O104 C103 1.264 . S
O105 Mg98 1.986 . S
O105 C109 1.246 . S
O106 Mg101 2.032 . S
O106 C109 1.259 . S
O107 Mg98 2.114 . S
O107 C110 1.252 . S
O108 Mg98 2.251 . S
O108 Mg101 2.079 . S
O108 C110 1.273 . S
C109 O105 1.246 . S
C109 O106 1.259 . S
C110 O107 1.252 . S
C110 O108 1.273 . S
O111 Mg98 2.010 . S
O111 C103 1.249 . S
Mg112 O113 2.028 . S
Mg112 O119 1.986 . S
Mg112 O121 2.114 . S
Mg112 O122 2.251 . S
Mg112 O125 2.010 . S
O113 Mg112 2.028 . S
O113 C116 1.250 . S
O114 Mg115 2.028 . S
O114 C116 1.248 . S
Mg115 O114 2.028 . S
Mg115 O120 2.032 . S
Mg115 O122 2.079 . S
C116 O113 1.250 . S
C116 O114 1.248 . S
C117 O118 1.264 . S
C117 O125 1.249 . S
O118 C117 1.264 . S
O119 Mg112 1.986 . S
O119 C123 1.246 . S
O120 Mg115 2.032 . S
O120 C123 1.259 . S
O121 Mg112 2.114 . S
O121 C124 1.252 . S
O122 Mg112 2.251 . S
O122 Mg115 2.079 . S
O122 C124 1.273 . S
C123 O119 1.246 . S
C123 O120 1.259 . S
C124 O121 1.252 . S
C124 O122 1.273 . S
O125 Mg112 2.010 . S
O125 C117 1.249 . S
Mg126 O127 2.028 . S
Mg126 O133 1.986 . S
Mg126 O135 2.114 . S
Mg126 O136 2.251 . S
Mg126 O139 2.010 . S
O127 Mg126 2.028 . S
O127 C130 1.250 . S
O128 Mg129 2.028 . S
O128 C130 1.248 . S
Mg129 O128 2.028 . S
Mg129 O134 2.032 . S
Mg129 O136 2.079 . S
C130 O127 1.250 . S
C130 O128 1.248 . S
C131 O132 1.264 . S
C131 O139 1.249 . S
O132 C131 1.264 . S
O133 Mg126 1.986 . S
O133 C137 1.246 . S
O134 Mg129 2.032 . S
O134 C137 1.259 . S
O135 Mg126 2.114 . S
O135 C138 1.252 1_545 S
O136 Mg126 2.251 . S
O136 Mg129 2.079 . S
O136 C138 1.273 1_545 S
C137 O133 1.246 . S
C137 O134 1.259 . S
C138 O135 1.252 1_565 S
C138 O136 1.273 1_565 S
O139 Mg126 2.010 . S
O139 C131 1.249 . S
Mg140 O141 2.028 . S
Mg140 O147 1.986 . S
Mg140 O149 2.114 . S
Mg140 O150 2.251 . S
Mg140 O153 2.010 . S
O141 Mg140 2.028 . S
O141 C144 1.250 . S
O142 Mg143 2.028 . S
O142 C144 1.248 . S
Mg143 O142 2.028 . S
Mg143 O148 2.032 . S
Mg143 O150 2.079 . S
C144 O141 1.250 . S
C144 O142 1.248 . S
C145 O146 1.264 . S
C145 O153 1.249 . S
O146 C145 1.264 . S
O147 Mg140 1.986 . S
O147 C151 1.246 . S
O148 Mg143 2.032 . S
O148 C151 1.259 . S
O149 Mg140 2.114 . S
O149 C152 1.252 . S
O150 Mg140 2.251 . S
O150 Mg143 2.079 . S
O150 C152 1.273 . S
C151 O147 1.246 . S
C151 O148 1.259 . S
C152 O149 1.252 . S
C152 O150 1.273 . S
O153 Mg140 2.010 . S
O153 C145 1.249 . S
Mg154 O155 2.028 . S
Mg154 O161 1.986 . S
Mg154 O163 2.114 . S
Mg154 O164 2.251 . S
Mg154 O167 2.010 . S
O155 Mg154 2.028 . S
O155 C158 1.250 . S
O156 Mg157 2.028 . S
O156 C158 1.248 . S
Mg157 O156 2.028 . S
Mg157 O162 2.032 . S
Mg157 O164 2.079 . S
C158 O155 1.250 . S
C158 O156 1.248 . S
C159 O160 1.264 . S
C159 O167 1.249 . S
O160 C159 1.264 . S
O161 Mg154 1.986 . S
O161 C165 1.246 . S
O162 Mg157 2.032 . S
O162 C165 1.259 . S
O163 Mg154 2.114 . S
O163 C166 1.252 1_565 S
O164 Mg154 2.251 . S
O164 Mg157 2.079 . S
O164 C166 1.273 1_565 S
C165 O161 1.246 . S
C165 O162 1.259 . S
C166 O163 1.252 1_545 S
C166 O164 1.273 1_545 S
O167 Mg154 2.010 . S
O167 C159 1.249 . S
Mg168 O169 2.028 . S
Mg168 O175 1.986 . S
Mg168 O177 2.114 . S
Mg168 O178 2.251 . S
Mg168 O181 2.010 . S
O169 Mg168 2.028 . S
O169 C172 1.250 . S
O170 Mg171 2.028 . S
O170 C172 1.248 . S
Mg171 O170 2.028 . S
Mg171 O176 2.032 . S
Mg171 O178 2.079 . S
C172 O169 1.250 . S
C172 O170 1.248 . S
C173 O174 1.264 . S
C173 O181 1.249 . S
O174 C173 1.264 . S
O175 Mg168 1.986 . S
O175 C179 1.246 . S
O176 Mg171 2.032 . S
O176 C179 1.259 . S
O177 Mg168 2.114 . S
O177 C180 1.252 . S
O178 Mg168 2.251 . S
O178 Mg171 2.079 . S
O178 C180 1.273 . S
C179 O175 1.246 . S
C179 O176 1.259 . S
C180 O177 1.252 . S
C180 O178 1.273 . S
O181 Mg168 2.010 . S
O181 C173 1.249 . S
Mg182 O183 2.028 . S
Mg182 O189 1.986 . S
Mg182 O191 2.114 . S
Mg182 O192 2.251 . S
Mg182 O195 2.010 . S
O183 Mg182 2.028 . S
O183 C186 1.250 . S
O184 Mg185 2.028 . S
O184 C186 1.248 . S
Mg185 O184 2.028 . S
Mg185 O190 2.032 . S
Mg185 O192 2.079 . S
C186 O183 1.250 . S
C186 O184 1.248 . S
C187 O188 1.264 . S
C187 O195 1.249 . S
O188 C187 1.264 . S
O189 Mg182 1.986 . S
O189 C193 1.246 . S
O190 Mg185 2.032 . S
O190 C193 1.259 . S
O191 Mg182 2.114 . S
O191 C194 1.252 . S
O192 Mg182 2.251 . S
O192 Mg185 2.079 . S
O192 C194 1.273 . S
C193 O189 1.246 . S
C193 O190 1.259 . S
C194 O191 1.252 . S
C194 O192 1.273 . S
O195 Mg182 2.010 . S
O195 C187 1.249 . S
Mg196 O197 2.028 . S
Mg196 O203 1.986 . S
Mg196 O205 2.114 . S
Mg196 O206 2.251 . S
Mg196 O209 2.010 . S
O197 Mg196 2.028 . S
O197 C200 1.250 . S
O198 Mg199 2.028 . S
O198 C200 1.248 . S
Mg199 O198 2.028 . S
Mg199 O204 2.032 . S
Mg199 O206 2.079 . S
C200 O197 1.250 . S
C200 O198 1.248 . S
C201 O202 1.264 . S
C201 O209 1.249 . S
O202 C201 1.264 . S
O203 Mg196 1.986 . S
O203 C207 1.246 . S
O204 Mg199 2.032 . S
O204 C207 1.259 . S
O205 Mg196 2.114 . S
O205 C208 1.252 . S
O206 Mg196 2.251 . S
O206 Mg199 2.079 . S
O206 C208 1.273 . S
C207 O203 1.246 . S
C207 O204 1.259 . S
C208 O205 1.252 . S
C208 O206 1.273 . S
O209 Mg196 2.010 . S
O209 C201 1.249 . S
Mg210 O211 2.028 . S
Mg210 O217 1.986 . S
Mg210 O219 2.114 . S
Mg210 O220 2.251 . S
Mg210 O223 2.010 . S
O211 Mg210 2.028 . S
O211 C214 1.250 . S
O212 Mg213 2.028 . S
O212 C214 1.248 . S
Mg213 O212 2.028 . S
Mg213 O218 2.032 . S
Mg213 O220 2.079 . S
C214 O211 1.250 . S
C214 O212 1.248 . S
C215 O216 1.264 . S
C215 O223 1.249 . S
O216 C215 1.264 . S
O217 Mg210 1.986 . S
O217 C221 1.246 . S
O218 Mg213 2.032 . S
O218 C221 1.259 . S
O219 Mg210 2.114 . S
O219 C222 1.252 . S
O220 Mg210 2.251 . S
O220 Mg213 2.079 . S
O220 C222 1.273 . S
C221 O217 1.246 . S
C221 O218 1.259 . S
C222 O219 1.252 . S
C222 O220 1.273 . S
O223 Mg210 2.010 . S
O223 C215 1.249 . S
C224 C225 1.170 . S
C224 C226 1.380 . S
C225 C224 1.170 . S
C226 C224 1.380 . S
C226 C227 1.170 . S
C227 C226 1.170 . S
C228 C229 1.170 . S
C228 C230 1.380 1_665 S
C229 C228 1.170 . S
C230 C228 1.380 1_445 S
C230 C231 1.170 . S
C231 C230 1.170 . S
C232 C233 1.170 . S
C232 C234 1.380 1_565 S
C233 C232 1.170 . S
C234 C232 1.380 1_545 S
C234 C235 1.170 . S
C235 C234 1.170 . S
C236 C237 1.170 . S
C236 C238 1.380 1_455 S
C237 C236 1.170 . S
C238 C236 1.380 1_655 S
C238 C239 1.170 . S
C239 C238 1.170 . S
C240 C241 1.170 . S
C240 C242 1.380 . S
C241 C240 1.170 . S
C242 C240 1.380 . S
C242 C243 1.170 . S
C243 C242 1.170 . S
C244 C245 1.170 . S
C244 C246 1.380 1_545 S
C245 C244 1.170 . S
C246 C244 1.380 1_565 S
C246 C247 1.170 . S
C247 C246 1.170 . S
C248 C249 1.170 . S
C248 C250 1.380 1_655 S
C249 C248 1.170 . S
C250 C248 1.380 1_455 S
C250 C251 1.170 . S
C251 C250 1.170 . S
C252 C253 1.170 . S
C252 C254 1.380 1_554 S
C253 C252 1.170 . S
C254 C252 1.380 1_556 S
C254 C255 1.170 . S
C255 C254 1.170 . S
C256 C257 1.170 . S
C256 C258 1.380 1_456 S
C257 C256 1.170 . S
C258 C256 1.380 1_654 S
C258 C259 1.170 . S
C259 C258 1.170 . S
C260 C261 1.170 . S
C260 C262 1.380 . S
C261 C260 1.170 . S
C262 C260 1.380 . S
C262 C263 1.170 . S
C263 C262 1.170 . S
C264 C265 1.170 . S
C264 C266 1.380 1_556 S
C265 C264 1.170 . S
C266 C264 1.380 1_554 S
C266 C267 1.170 . S
C267 C266 1.170 . S
C268 C269 1.170 . S
C268 C270 1.380 . S
C269 C268 1.170 . S
C270 C268 1.380 . S
C270 C271 1.170 . S
C271 C270 1.170 . S
C272 C273 1.170 . S
C272 C274 1.380 1_546 S
C273 C272 1.170 . S
C274 C272 1.380 1_564 S
C274 C275 1.170 . S
C275 C274 1.170 . S
C276 C277 1.170 . S
C276 C278 1.380 . S
C277 C276 1.170 . S
C278 C276 1.380 . S
C278 C279 1.170 . S
C279 C278 1.170 . S
C280 C281 1.170 . S
C280 C282 1.380 . S
C281 C280 1.170 . S
C282 C280 1.380 . S
C282 C283 1.170 . S
C283 C282 1.170 . S
C284 C285 1.170 . S
C284 C286 1.380 . S
C285 C284 1.170 . S
C286 C284 1.380 . S
C286 C287 1.170 . S
C287 C286 1.170 . S
C288 C289 1.170 . S
C288 C290 1.380 . S
C289 C288 1.170 . S
C290 C288 1.380 . S
C290 C291 1.170 . S
C291 C290 1.170 . S
C292 C293 1.170 . S
C292 C294 1.380 . S
C293 C292 1.170 . S
C294 C292 1.380 . S
C294 C295 1.170 . S
C295 C294 1.170 . S
C296 C297 1.170 . S
C296 C298 1.380 . S
C297 C296 1.170 . S
C298 C296 1.380 . S
C298 C299 1.170 . S
C299 C298 1.170 . S
C300 C301 1.170 . S
C300 C302 1.380 . S
C301 C300 1.170 . S
C302 C300 1.380 . S
C302 C303 1.170 . S
C303 C302 1.170 . S
C304 C305 1.170 . S
C304 C306 1.380 . S
C305 C304 1.170 . S
C306 C304 1.380 . S
C306 C307 1.170 . S
C307 C306 1.170 . S
C308 C309 1.170 . S
C308 C310 1.380 . S
C309 C308 1.170 . S
C310 C308 1.380 . S
C310 C311 1.170 . S
C311 C310 1.170 . S
C312 C313 1.170 . S
C312 C314 1.380 . S
C313 C312 1.170 . S
C314 C312 1.380 . S
C314 C315 1.170 . S
C315 C314 1.170 . S
C316 C317 1.170 . S
C316 C318 1.380 . S
C317 C316 1.170 . S
C318 C316 1.380 . S
C318 C319 1.170 . S
C319 C318 1.170 . S
C320 C321 1.170 . S
C320 C322 1.380 . S
C321 C320 1.170 . S
C322 C320 1.380 . S
C322 C323 1.170 . S
C323 C322 1.170 . S
C324 C325 1.170 . S
C324 C326 1.380 . S
C325 C324 1.170 . S
C326 C324 1.380 . S
C326 C327 1.170 . S
C327 C326 1.170 . S
C328 C329 1.170 . S
C328 C330 1.380 . S
C329 C328 1.170 . S
C330 C328 1.380 . S
C330 C331 1.170 . S
C331 C330 1.170 . S
C332 C333 1.170 . S
C332 C334 1.380 . S
C333 C332 1.170 . S
C334 C332 1.380 . S
C334 C335 1.170 . S
C335 C334 1.170 . S
C336 C337 1.170 . S
C336 C338 1.380 . S
C337 C336 1.170 . S
C338 C336 1.380 . S
C338 C339 1.170 . S
C339 C338 1.170 . S
C340 C341 1.170 . S
C340 C342 1.380 . S
C341 C340 1.170 . S
C342 C340 1.380 . S
C342 C343 1.170 . S
C343 C342 1.170 . S
C344 C345 1.170 . S
C344 C346 1.380 . S
C345 C344 1.170 . S
C346 C344 1.380 . S
C346 C347 1.170 . S
C347 C346 1.170 . S
C348 C349 1.170 . S
C348 C350 1.380 . S
C349 C348 1.170 . S
C350 C348 1.380 . S
C350 C351 1.170 . S
C351 C350 1.170 . S
C225 C207 1.521 . S
C227 C11 1.490 . S
C229 C33 1.392 . S
C231 C5 1.437 . S
C233 C165 1.508 . S
C235 C25 1.510 . S
C237 C19 1.390 . S
C239 C103 1.445 . S
C241 C39 1.514 . S
C243 C179 1.504 . S
C245 C137 1.498 . S
C247 C53 1.500 . S
C249 C47 1.391 . S
C251 C75 1.448 . S
C253 C151 1.487 . S
C255 C67 1.518 . S
C257 C61 1.394 . S
C259 C89 1.432 . S
C261 C221 1.500 . S
C263 C81 1.498 . S
C265 C123 1.519 . S
C267 C95 1.495 . S
C269 C193 1.500 . S
C271 C109 1.498 . S
C273 C117 1.448 . S
C275 C145 1.402 . S
C277 C215 1.450 . S
C279 C131 1.394 . S
C281 C159 1.441 . S
C283 C187 1.415 . S
C285 C201 1.390 . S
C287 C173 1.445 . S
C289 C74 1.207 . S
C291 C4 1.161 1_565 S
C293 C12 1.245 . S
C295 C82 1.255 . S
C297 C18 1.184 . S
C299 C60 1.179 . S
C301 C68 1.245 . S
C303 C26 1.253 . S
C305 C102 1.170 . S
C307 C32 1.204 1_545 S
C309 C110 1.255 . S
C311 C40 1.262 . S
C313 C88 1.207 . S
C315 C46 1.187 . S
C317 C54 1.251 . S
C319 C96 1.264 . S
C321 C186 1.198 . S
C323 C116 1.166 1_565 S
C325 C124 1.265 . S
C327 C194 1.253 . S
C329 C130 1.176 . S
C331 C172 1.187 . S
C333 C180 1.246 . S
C335 C138 1.250 . S
C337 C214 1.161 . S
C339 C144 1.187 1_545 S
C341 C222 1.249 . S
C343 C152 1.265 . S
C345 C158 1.167 . S
C347 C200 1.202 . S
C349 C208 1.249 . S
C351 C166 1.265 . S
