# Generated by pormake.
# Topology unr, (4)-cn, num edge types: 1
# Building blocks:
#     Node 0, Type 0, BuildingBlock: NAHDIM_clean_sbu_0, # of connection points: 4
#     Node 1, Type 0, BuildingBlock: NAHDIM_clean_sbu_0, # of connection points: 4
#     Node 2, Type 0, BuildingBlock: NAHDIM_clean_sbu_0, # of connection points: 4
#     Node 3, Type 0, BuildingBlock: NAHDIM_clean_sbu_0, # of connection points: 4
#     Node 4, Type 0, BuildingBlock: NAHDIM_clean_sbu_0, # of connection points: 4
#     Node 5, Type 0, BuildingBlock: NAHDIM_clean_sbu_0, # of connection points: 4
#     Node 6, Type 0, BuildingBlock: NAHDIM_clean_sbu_0, # of connection points: 4
#     Node 7, Type 0, BuildingBlock: NAHDIM_clean_sbu_0, # of connection points: 4
#     Node 8, Type 0, BuildingBlock: NAHDIM_clean_sbu_0, # of connection points: 4
#     Node 9, Type 0, BuildingBlock: NAHDIM_clean_sbu_0, # of connection points: 4
#     Node 10, Type 0, BuildingBlock: NAHDIM_clean_sbu_0, # of connection points: 4
#     Node 11, Type 0, BuildingBlock: NAHDIM_clean_sbu_0, # of connection points: 4
#     Node 12, Type 0, BuildingBlock: NAHDIM_clean_sbu_0, # of connection points: 4
#     Node 13, Type 0, BuildingBlock: NAHDIM_clean_sbu_0, # of connection points: 4
#     Node 14, Type 0, BuildingBlock: NAHDIM_clean_sbu_0, # of connection points: 4
#     Node 15, Type 0, BuildingBlock: NAHDIM_clean_sbu_0, # of connection points: 4
#     Node 16, Type 0, BuildingBlock: NAHDIM_clean_sbu_0, # of connection points: 4
#     Node 17, Type 0, BuildingBlock: NAHDIM_clean_sbu_0, # of connection points: 4
#     Node 18, Type 0, BuildingBlock: NAHDIM_clean_sbu_0, # of connection points: 4
#     Node 19, Type 0, BuildingBlock: NAHDIM_clean_sbu_0, # of connection points: 4
#     Node 20, Type 0, BuildingBlock: NAHDIM_clean_sbu_0, # of connection points: 4
#     Node 21, Type 0, BuildingBlock: NAHDIM_clean_sbu_0, # of connection points: 4
#     Node 22, Type 0, BuildingBlock: NAHDIM_clean_sbu_0, # of connection points: 4
#     Node 23, Type 0, BuildingBlock: NAHDIM_clean_sbu_0, # of connection points: 4
#     Node 24, Type 0, BuildingBlock: NAHDIM_clean_sbu_0, # of connection points: 4
#     Node 25, Type 0, BuildingBlock: NAHDIM_clean_sbu_0, # of connection points: 4
#     Node 26, Type 0, BuildingBlock: NAHDIM_clean_sbu_0, # of connection points: 4
#     Node 27, Type 0, BuildingBlock: NAHDIM_clean_sbu_0, # of connection points: 4
#     Node 28, Type 0, BuildingBlock: NAHDIM_clean_sbu_0, # of connection points: 4
#     Node 29, Type 0, BuildingBlock: NAHDIM_clean_sbu_0, # of connection points: 4
#     Node 30, Type 0, BuildingBlock: NAHDIM_clean_sbu_0, # of connection points: 4
#     Node 31, Type 0, BuildingBlock: NAHDIM_clean_sbu_0, # of connection points: 4
#     Node 32, Type 0, BuildingBlock: NAHDIM_clean_sbu_0, # of connection points: 4
#     Node 33, Type 0, BuildingBlock: NAHDIM_clean_sbu_0, # of connection points: 4
#     Node 34, Type 0, BuildingBlock: NAHDIM_clean_sbu_0, # of connection points: 4
#     Node 35, Type 0, BuildingBlock: NAHDIM_clean_sbu_0, # of connection points: 4
#     Edge 36, Type (0, 0), BuildingBlock: ZUJKAS_clean_linker_0, # of connection points: 2
#     Edge 37, Type (0, 0), BuildingBlock: ZUJKAS_clean_linker_0, # of connection points: 2
#     Edge 38, Type (0, 0), BuildingBlock: ZUJKAS_clean_linker_0, # of connection points: 2
#     Edge 39, Type (0, 0), BuildingBlock: ZUJKAS_clean_linker_0, # of connection points: 2
#     Edge 40, Type (0, 0), BuildingBlock: ZUJKAS_clean_linker_0, # of connection points: 2
#     Edge 41, Type (0, 0), BuildingBlock: ZUJKAS_clean_linker_0, # of connection points: 2
#     Edge 42, Type (0, 0), BuildingBlock: ZUJKAS_clean_linker_0, # of connection points: 2
#     Edge 43, Type (0, 0), BuildingBlock: ZUJKAS_clean_linker_0, # of connection points: 2
#     Edge 44, Type (0, 0), BuildingBlock: ZUJKAS_clean_linker_0, # of connection points: 2
#     Edge 45, Type (0, 0), BuildingBlock: ZUJKAS_clean_linker_0, # of connection points: 2
#     Edge 46, Type (0, 0), BuildingBlock: ZUJKAS_clean_linker_0, # of connection points: 2
#     Edge 47, Type (0, 0), BuildingBlock: ZUJKAS_clean_linker_0, # of connection points: 2
#     Edge 48, Type (0, 0), BuildingBlock: ZUJKAS_clean_linker_0, # of connection points: 2
#     Edge 49, Type (0, 0), BuildingBlock: ZUJKAS_clean_linker_0, # of connection points: 2
#     Edge 50, Type (0, 0), BuildingBlock: ZUJKAS_clean_linker_0, # of connection points: 2
#     Edge 51, Type (0, 0), BuildingBlock: ZUJKAS_clean_linker_0, # of connection points: 2
#     Edge 52, Type (0, 0), BuildingBlock: ZUJKAS_clean_linker_0, # of connection points: 2
#     Edge 53, Type (0, 0), BuildingBlock: ZUJKAS_clean_linker_0, # of connection points: 2
#     Edge 54, Type (0, 0), BuildingBlock: ZUJKAS_clean_linker_0, # of connection points: 2
#     Edge 55, Type (0, 0), BuildingBlock: ZUJKAS_clean_linker_0, # of connection points: 2
#     Edge 56, Type (0, 0), BuildingBlock: ZUJKAS_clean_linker_0, # of connection points: 2
#     Edge 57, Type (0, 0), BuildingBlock: ZUJKAS_clean_linker_0, # of connection points: 2
#     Edge 58, Type (0, 0), BuildingBlock: ZUJKAS_clean_linker_0, # of connection points: 2
#     Edge 59, Type (0, 0), BuildingBlock: ZUJKAS_clean_linker_0, # of connection points: 2
#     Edge 60, Type (0, 0), BuildingBlock: ZUJKAS_clean_linker_0, # of connection points: 2
#     Edge 61, Type (0, 0), BuildingBlock: ZUJKAS_clean_linker_0, # of connection points: 2
#     Edge 62, Type (0, 0), BuildingBlock: ZUJKAS_clean_linker_0, # of connection points: 2
#     Edge 63, Type (0, 0), BuildingBlock: ZUJKAS_clean_linker_0, # of connection points: 2
#     Edge 64, Type (0, 0), BuildingBlock: ZUJKAS_clean_linker_0, # of connection points: 2
#     Edge 65, Type (0, 0), BuildingBlock: ZUJKAS_clean_linker_0, # of connection points: 2
#     Edge 66, Type (0, 0), BuildingBlock: ZUJKAS_clean_linker_0, # of connection points: 2
#     Edge 67, Type (0, 0), BuildingBlock: ZUJKAS_clean_linker_0, # of connection points: 2
#     Edge 68, Type (0, 0), BuildingBlock: ZUJKAS_clean_linker_0, # of connection points: 2
#     Edge 69, Type (0, 0), BuildingBlock: ZUJKAS_clean_linker_0, # of connection points: 2
#     Edge 70, Type (0, 0), BuildingBlock: ZUJKAS_clean_linker_0, # of connection points: 2
#     Edge 71, Type (0, 0), BuildingBlock: ZUJKAS_clean_linker_0, # of connection points: 2
#     Edge 72, Type (0, 0), BuildingBlock: ZUJKAS_clean_linker_0, # of connection points: 2
#     Edge 73, Type (0, 0), BuildingBlock: ZUJKAS_clean_linker_0, # of connection points: 2
#     Edge 74, Type (0, 0), BuildingBlock: ZUJKAS_clean_linker_0, # of connection points: 2
#     Edge 75, Type (0, 0), BuildingBlock: ZUJKAS_clean_linker_0, # of connection points: 2
#     Edge 76, Type (0, 0), BuildingBlock: ZUJKAS_clean_linker_0, # of connection points: 2
#     Edge 77, Type (0, 0), BuildingBlock: ZUJKAS_clean_linker_0, # of connection points: 2
#     Edge 78, Type (0, 0), BuildingBlock: ZUJKAS_clean_linker_0, # of connection points: 2
#     Edge 79, Type (0, 0), BuildingBlock: ZUJKAS_clean_linker_0, # of connection points: 2
#     Edge 80, Type (0, 0), BuildingBlock: ZUJKAS_clean_linker_0, # of connection points: 2
#     Edge 81, Type (0, 0), BuildingBlock: ZUJKAS_clean_linker_0, # of connection points: 2
#     Edge 82, Type (0, 0), BuildingBlock: ZUJKAS_clean_linker_0, # of connection points: 2
#     Edge 83, Type (0, 0), BuildingBlock: ZUJKAS_clean_linker_0, # of connection points: 2
#     Edge 84, Type (0, 0), BuildingBlock: ZUJKAS_clean_linker_0, # of connection points: 2
#     Edge 85, Type (0, 0), BuildingBlock: ZUJKAS_clean_linker_0, # of connection points: 2
#     Edge 86, Type (0, 0), BuildingBlock: ZUJKAS_clean_linker_0, # of connection points: 2
#     Edge 87, Type (0, 0), BuildingBlock: ZUJKAS_clean_linker_0, # of connection points: 2
#     Edge 88, Type (0, 0), BuildingBlock: ZUJKAS_clean_linker_0, # of connection points: 2
#     Edge 89, Type (0, 0), BuildingBlock: ZUJKAS_clean_linker_0, # of connection points: 2
#     Edge 90, Type (0, 0), BuildingBlock: ZUJKAS_clean_linker_0, # of connection points: 2
#     Edge 91, Type (0, 0), BuildingBlock: ZUJKAS_clean_linker_0, # of connection points: 2
#     Edge 92, Type (0, 0), BuildingBlock: ZUJKAS_clean_linker_0, # of connection points: 2
#     Edge 93, Type (0, 0), BuildingBlock: ZUJKAS_clean_linker_0, # of connection points: 2
#     Edge 94, Type (0, 0), BuildingBlock: ZUJKAS_clean_linker_0, # of connection points: 2
#     Edge 95, Type (0, 0), BuildingBlock: ZUJKAS_clean_linker_0, # of connection points: 2
#     Edge 96, Type (0, 0), BuildingBlock: ZUJKAS_clean_linker_0, # of connection points: 2
#     Edge 97, Type (0, 0), BuildingBlock: ZUJKAS_clean_linker_0, # of connection points: 2
#     Edge 98, Type (0, 0), BuildingBlock: ZUJKAS_clean_linker_0, # of connection points: 2
#     Edge 99, Type (0, 0), BuildingBlock: ZUJKAS_clean_linker_0, # of connection points: 2
#     Edge 100, Type (0, 0), BuildingBlock: ZUJKAS_clean_linker_0, # of connection points: 2
#     Edge 101, Type (0, 0), BuildingBlock: ZUJKAS_clean_linker_0, # of connection points: 2
#     Edge 102, Type (0, 0), BuildingBlock: ZUJKAS_clean_linker_0, # of connection points: 2
#     Edge 103, Type (0, 0), BuildingBlock: ZUJKAS_clean_linker_0, # of connection points: 2
#     Edge 104, Type (0, 0), BuildingBlock: ZUJKAS_clean_linker_0, # of connection points: 2
#     Edge 105, Type (0, 0), BuildingBlock: ZUJKAS_clean_linker_0, # of connection points: 2
#     Edge 106, Type (0, 0), BuildingBlock: ZUJKAS_clean_linker_0, # of connection points: 2
#     Edge 107, Type (0, 0), BuildingBlock: ZUJKAS_clean_linker_0, # of connection points: 2
# Relax obj value: 0.421
# Max RMSD: 0.252
# Mean RMSD: 0.246
data_MOF--net-unr--node1-NAHDIM_clean_sbu_0--edge1-ZUJKAS_clean_linker_0
_symmetry_space_group_name_H-M    P1
_symmetry_Int_Tables_number       1
_symmetry_cell_setting            triclinic
loop_
_symmetry_equiv_pos_as_xyz
'x, y, z'
_cell_length_a     60.389293
_cell_length_b     60.39798
_cell_length_c     150.40033
_cell_angle_alpha  90.02277
_cell_angle_beta   89.977318
_cell_angle_gamma 120.00749
loop_
_atom_site_label
_atom_site_type_symbol
_atom_site_fract_x
_atom_site_fract_y
_atom_site_fract_z
_atom_type_partial_charge
C0 C 0.22563 0.18075 0.18541 0.0
O1 O 0.21869 0.17123 0.19344 0.0
O2 O 0.15919 0.1288 0.18266 0.0
Zn3 Zn 0.17375 0.16615 0.18533 0.0
O4 O 0.17282 0.17039 0.19859 0.0
C5 C 0.14228 0.18959 0.18293 0.0
O6 O 0.15377 0.20235 0.19017 0.0
O7 O 0.20962 0.18298 0.18055 0.0
C8 C 0.1871 0.19093 0.20282 0.0
O9 O 0.20374 0.21133 0.19842 0.0
C10 C 0.16114 0.11313 0.18778 0.0
O11 O 0.17263 0.1211 0.19549 0.0
O12 O 0.15005 0.17573 0.17927 0.0
C13 C 0.81963 0.03584 0.17159 0.0
O14 O 0.83881 0.03235 0.16953 0.0
O15 O 0.85969 0.03558 0.18659 0.0
Zn16 Zn 0.82191 0.00994 0.18665 0.0
O17 O 0.80996 0.00795 0.19923 0.0
C18 C 0.81472 0.96625 0.17534 0.0
O19 O 0.81317 0.97863 0.16842 0.0
O20 O 0.80661 0.02507 0.17852 0.0
C21 C 0.82101 0.00101 0.20484 0.0
O22 O 0.83795 0.99507 0.20197 0.0
C23 C 0.87703 0.0302 0.1848 0.0
O24 O 0.87067 0.00635 0.18325 0.0
O25 O 0.81677 0.97554 0.18308 0.0
C26 C 0.95232 0.75531 0.18274 0.0
O27 O 0.9554 0.7559 0.19139 0.0
O28 O 0.95524 0.82345 0.18153 0.0
Zn29 Zn 0.97834 0.80979 0.18478 0.0
O30 O 0.97656 0.80544 0.19804 0.0
C31 C 0.01758 0.84771 0.17385 0.0
O32 O -0.00142 0.83945 0.16815 0.0
O33 O 0.96353 0.77615 0.17841 0.0
C34 C 0.99376 0.80437 0.20256 0.0
O35 O 0.0137 0.80591 0.19845 0.0
C36 C 0.95963 0.84536 0.18402 0.0
O37 O 0.97985 0.85956 0.18894 0.0
O38 O 0.01394 0.83609 0.18121 0.0
C39 C 0.19641 0.23099 0.31998 0.0
O40 O 0.20169 0.23229 0.31146 0.0
O41 O 0.12723 0.16841 0.31658 0.0
Zn42 Zn 0.1643 0.17813 0.31585 0.0
O43 O 0.17463 0.18546 0.30304 0.0
C44 C 0.15213 0.13359 0.32594 0.0
O45 O 0.1388 0.14153 0.33047 0.0
O46 O 0.18339 0.20913 0.32357 0.0
C47 C 0.16161 0.16785 0.29748 0.0
O48 O 0.14292 0.14592 0.30041 0.0
C49 C 0.12002 0.18484 0.31731 0.0
O50 O 0.13722 0.20928 0.3174 0.0
O51 O 0.16662 0.14758 0.31972 0.0
C52 C 0.77856 0.95155 0.31706 0.0
O53 O 0.78778 0.94806 0.30961 0.0
O54 O 0.84399 0.97169 0.31854 0.0
Zn55 Zn 0.82736 0.99292 0.31637 0.0
O56 O 0.82587 0.99808 0.30319 0.0
C57 C 0.85447 0.048 0.31908 0.0
O58 O 0.84103 0.04813 0.31224 0.0
O59 O 0.79209 0.97197 0.32146 0.0
C60 C 0.80877 0.00136 0.29953 0.0
O61 O 0.79116 0.00198 0.30449 0.0
C62 C 0.84844 0.95954 0.31257 0.0
O63 O 0.84285 0.96121 0.30425 0.0
O64 O 0.84983 0.0267 0.32235 0.0
C65 C 0.03892 0.79504 0.31686 0.0
O66 O 0.03794 0.79598 0.30815 0.0
O67 O 0.02606 0.84977 0.31504 0.0
Zn68 Zn 0.00319 0.81158 0.31491 0.0
O69 O 0.99708 0.80022 0.30214 0.0
C70 C 0.97217 0.81693 0.32782 0.0
O71 O 0.99431 0.82903 0.33193 0.0
O72 O 0.02317 0.79839 0.32145 0.0
C73 C 0.97906 0.7997 0.29762 0.0
O74 O 0.96307 0.80542 0.30151 0.0
C75 C 0.01793 0.86518 0.31358 0.0
O76 O 0.9938 0.85609 0.31147 0.0
O77 O 0.97051 0.80448 0.3208 0.0
C78 C 0.7542 0.80434 0.81331 0.0
O79 O 0.75353 0.80018 0.80472 0.0
O80 O 0.8035 0.81771 0.79771 0.0
Zn81 Zn 0.80835 0.83054 0.81034 0.0
O82 O 0.81962 0.86797 0.81018 0.0
C83 C 0.84775 0.81723 0.81216 0.0
O84 O 0.83781 0.80489 0.80471 0.0
O85 O 0.77559 0.81444 0.81731 0.0
C86 C 0.84257 0.88499 0.80855 0.0
O87 O 0.85938 0.87797 0.80661 0.0
C88 C 0.79784 0.82821 0.79148 0.0
O89 O 0.794 0.84727 0.79335 0.0
O90 O 0.83682 0.82767 0.81619 0.0
C91 C 0.19996 0.95235 0.82067 0.0
O92 O 0.20774 0.95985 0.8125 0.0
O93 O 0.18189 0.98484 0.80522 0.0
Zn94 Zn 0.17203 0.97918 0.81818 0.0
O95 O 0.13402 0.95585 0.81886 0.0
C96 C 0.19108 0.03336 0.82 0.0
O97 O 0.20391 0.03486 0.81275 0.0
O98 O 0.18705 0.96073 0.82464 0.0
C99 C 0.11893 0.95973 0.81409 0.0
O100 O 0.12847 0.97922 0.80858 0.0
C101 C 0.17123 0.96651 0.7997 0.0
O102 O 0.15475 0.94355 0.80263 0.0
O103 O 0.17849 0.01191 0.82389 0.0
C104 C 0.04408 0.2401 0.81809 0.0
O105 O 0.03801 0.23859 0.80964 0.0
O106 O 0.01792 0.1882 0.80331 0.0
Zn107 Zn 0.02106 0.18544 0.81653 0.0
O108 O 0.04628 0.17351 0.81855 0.0
C109 C 0.96664 0.15157 0.81718 0.0
O110 O 0.96694 0.16556 0.81044 0.0
O111 O 0.03611 0.21962 0.82254 0.0
C112 C 0.03984 0.15013 0.81773 0.0
O113 O 0.01617 0.13345 0.81553 0.0
C114 C 0.03698 0.19477 0.7982 0.0
O115 O 0.05922 0.20061 0.80167 0.0
O116 O 0.98729 0.15829 0.82139 0.0
C117 C 0.7951 0.75357 0.6775 0.0
O118 O 0.78334 0.75369 0.68483 0.0
O119 O 0.81545 0.80175 0.69383 0.0
Zn120 Zn 0.82716 0.8076 0.68108 0.0
O121 O 0.86507 0.82129 0.68096 0.0
C122 C 0.80983 0.84406 0.67978 0.0
O123 O 0.79635 0.83185 0.68682 0.0
O124 O 0.81209 0.77472 0.67423 0.0
C125 C 0.87975 0.83731 0.68672 0.0
O126 O 0.86988 0.84496 0.69297 0.0
C127 C 0.82175 0.78963 0.69921 0.0
O128 O 0.83546 0.77974 0.6963 0.0
O129 O 0.82219 0.83526 0.67569 0.0
C130 C 0.23886 0.06288 0.68673 0.0
O131 O 0.23605 0.06391 0.69536 0.0
O132 O 0.19053 0.02193 0.70138 0.0
Zn133 Zn 0.18641 0.02962 0.68867 0.0
O134 O 0.17475 0.05544 0.68867 0.0
C135 C 0.1509 0.97579 0.68583 0.0
O136 O 0.16361 0.97284 0.69237 0.0
O137 O 0.21985 0.04683 0.68217 0.0
C138 C 0.16927 0.06143 0.68123 0.0
O139 O 0.17092 0.05018 0.67398 0.0
C140 C 0.17167 0.01496 0.70661 0.0
O141 O 0.15029 0.01265 0.70349 0.0
O142 O 0.15871 0.99805 0.68272 0.0
C143 C 0.94164 0.18229 0.68716 0.0
O144 O 0.94169 0.17611 0.69553 0.0
O145 O 0.98695 0.17588 0.69967 0.0
Zn146 Zn 0.97818 0.16676 0.68679 0.0
O147 O 0.95437 0.12873 0.68596 0.0
C148 C 0.03213 0.192 0.68276 0.0
O149 O 0.03384 0.20687 0.68941 0.0
O150 O 0.95804 0.18213 0.6819 0.0
C151 C 0.96161 0.1131 0.68364 0.0
O152 O 0.9859 0.1217 0.68194 0.0
C153 C 0.99746 0.1655 0.70398 0.0
O154 O 0.0027 0.14949 0.69985 0.0
O155 O 0.01012 0.17544 0.67996 0.0
C156 C 0.89491 0.53229 0.51705 0.0
O157 O 0.89335 0.53302 0.52574 0.0
O158 O 0.82686 0.46986 0.5168 0.0
Zn159 Zn 0.84067 0.50747 0.51859 0.0
O160 O 0.84406 0.5142 0.53173 0.0
C161 C 0.80202 0.50371 0.50683 0.0
O162 O 0.8087 0.48904 0.50251 0.0
O163 O 0.87473 0.52466 0.51244 0.0
C164 C 0.82415 0.50285 0.53653 0.0
O165 O 0.80203 0.4878 0.53271 0.0
C166 C 0.83898 0.45908 0.5196 0.0
O167 O 0.86039 0.47262 0.52402 0.0
O168 O 0.81484 0.51581 0.51363 0.0
C169 C 0.46283 0.36752 0.5159 0.0
O170 O 0.46129 0.36412 0.52456 0.0
O171 O 0.52579 0.3614 0.51472 0.0
Zn172 Zn 0.48827 0.33847 0.51704 0.0
O173 O 0.48331 0.33613 0.53027 0.0
C174 C 0.4888 0.30194 0.50518 0.0
O175 O 0.50281 0.32267 0.50047 0.0
O176 O 0.47106 0.35571 0.51118 0.0
C177 C 0.49428 0.32671 0.53484 0.0
O178 O 0.50777 0.31819 0.53074 0.0
C179 C 0.53664 0.38485 0.51691 0.0
O180 O 0.5232 0.39354 0.52093 0.0
O181 O 0.47832 0.30374 0.51226 0.0
C182 C 0.62456 0.09946 0.51601 0.0
O183 O 0.62245 0.10224 0.52457 0.0
O184 O 0.63002 0.16651 0.5149 0.0
Zn185 Zn 0.65472 0.1538 0.51718 0.0
O186 O 0.65796 0.15256 0.53049 0.0
C187 C 0.70952 0.19013 0.51564 0.0
O188 O 0.71143 0.17944 0.52298 0.0
O189 O 0.63954 0.11902 0.51144 0.0
C190 C 0.66754 0.14115 0.53473 0.0
O191 O 0.67671 0.1287 0.53033 0.0
C192 C 0.60601 0.15227 0.51386 0.0
O193 O 0.59572 0.12735 0.51441 0.0
O194 O 0.68795 0.18072 0.51178 0.0
C195 C 0.84739 0.5514 0.66379 0.0
O196 O 0.83278 0.53003 0.66809 0.0
O197 O 0.79965 0.50189 0.65201 0.0
Zn198 Zn 0.83725 0.51627 0.6498 0.0
O199 O 0.84255 0.52137 0.63664 0.0
C200 C 0.83369 0.47443 0.65984 0.0
O201 O 0.81796 0.4788 0.66455 0.0
O202 O 0.85518 0.55014 0.65606 0.0
C203 C 0.83123 0.50144 0.63184 0.0
O204 O 0.81754 0.47912 0.63572 0.0
C205 C 0.78943 0.51586 0.65162 0.0
O206 O 0.80359 0.54012 0.64951 0.0
O207 O 0.84637 0.48983 0.65362 0.0
C208 C 0.43303 0.29669 0.64928 0.0
O209 O 0.43504 0.29879 0.64059 0.0
O210 O 0.5037 0.3066 0.65096 0.0
Zn211 Zn 0.48738 0.3277 0.64817 0.0
O212 O 0.48438 0.32877 0.63491 0.0
C213 C 0.52298 0.36627 0.65986 0.0
O214 O 0.51647 0.34627 0.66496 0.0
O215 O 0.45286 0.30964 0.65402 0.0
C216 C 0.50429 0.33727 0.63012 0.0
O217 O 0.52662 0.3457 0.63397 0.0
C218 C 0.49322 0.2833 0.64862 0.0
O219 O 0.47183 0.27321 0.64405 0.0
O220 O 0.51102 0.36322 0.6526 0.0
C221 C 0.70564 0.13668 0.65048 0.0
O222 O 0.70567 0.13752 0.64175 0.0
O223 O 0.69611 0.19561 0.64916 0.0
Zn224 Zn 0.67342 0.15768 0.64791 0.0
O225 O 0.67029 0.14868 0.63496 0.0
C226 C 0.63866 0.16101 0.65972 0.0
O227 O 0.65978 0.17362 0.66438 0.0
O228 O 0.6909 0.14222 0.65476 0.0
C229 C 0.66297 0.15991 0.62958 0.0
O230 O 0.65691 0.17653 0.63269 0.0
C231 C 0.71806 0.20831 0.64561 0.0
O232 O 0.72659 0.19655 0.6405 0.0
O233 O 0.63918 0.14975 0.65265 0.0
C234 C 0.42238 0.14471 0.14842 0.0
O235 O 0.42911 0.15267 0.1402 0.0
O236 O 0.47351 0.15159 0.1355 0.0
Zn237 Zn 0.47396 0.16038 0.14841 0.0
O238 O 0.48639 0.198 0.14903 0.0
C239 C 0.5067 0.13938 0.15216 0.0
O240 O 0.49532 0.12511 0.14518 0.0
O241 O 0.43866 0.14376 0.15352 0.0
C242 C 0.49587 0.21058 0.15614 0.0
O243 O 0.49807 0.19884 0.16314 0.0
C244 C 0.49325 0.16617 0.13096 0.0
O245 O 0.513 0.18503 0.13498 0.0
O246 O 0.49904 0.15411 0.15513 0.0
C247 C 0.84462 0.27486 0.14738 0.0
O248 O 0.83823 0.27677 0.13919 0.0
O249 O 0.83087 0.31691 0.13664 0.0
Zn250 Zn 0.82413 0.30688 0.14951 0.0
O251 O 0.78683 0.28082 0.15059 0.0
C252 C 0.84656 0.3601 0.15391 0.0
O253 O 0.86203 0.36279 0.14733 0.0
O254 O 0.84259 0.28858 0.15339 0.0
C255 C 0.77397 0.27887 0.15753 0.0
O256 O 0.78515 0.29468 0.16419 0.0
C257 C 0.81594 0.32253 0.13255 0.0
O258 O 0.79716 0.32258 0.13695 0.0
O259 O 0.83077 0.33772 0.15663 0.0
C260 C 0.70624 0.57043 0.15237 0.0
O261 O 0.70028 0.57033 0.14397 0.0
O262 O 0.67602 0.51882 0.13701 0.0
Zn263 Zn 0.68199 0.5157 0.15001 0.0
O264 O 0.70819 0.50468 0.15098 0.0
C265 C 0.62819 0.47961 0.1519 0.0
O266 O 0.62647 0.49135 0.14481 0.0
O267 O 0.69765 0.54927 0.15644 0.0
C268 C 0.70349 0.48256 0.14862 0.0
O269 O 0.68087 0.46642 0.14534 0.0
C270 C 0.69434 0.52745 0.13146 0.0
O271 O 0.71767 0.53537 0.13433 0.0
O272 O 0.6498 0.48807 0.15564 0.0
C273 C 0.48101 0.09268 0.01721 0.0
O274 O 0.48375 0.0962 0.02585 0.0
O275 O 0.49201 0.1438 0.03103 0.0
Zn276 Zn 0.50181 0.14579 0.01815 0.0
O277 O 0.53916 0.1569 0.01786 0.0
C278 C 0.48515 0.18249 0.01527 0.0
O279 O 0.47188 0.17226 0.02254 0.0
O280 O 0.4849 0.11138 0.01228 0.0
C281 C 0.55212 0.16569 0.01078 0.0
O282 O 0.54097 0.16807 0.00363 0.0
C283 C 0.50697 0.16242 0.03596 0.0
O284 O 0.52702 0.18201 0.03235 0.0
O285 O 0.49755 0.17277 0.0118 0.0
C286 C 0.89838 0.39254 0.0204 0.0
O287 O 0.89001 0.39491 0.02821 0.0
O288 O 0.84689 0.34801 0.03312 0.0
Zn289 Zn 0.8476 0.35421 0.01997 0.0
O290 O 0.83273 0.37705 0.01799 0.0
C291 C 0.81831 0.29976 0.01719 0.0
O292 O 0.82973 0.29919 0.02455 0.0
O293 O 0.88359 0.3738 0.01548 0.0
C294 C 0.83858 0.39148 0.01121 0.0
O295 O 0.85448 0.39124 0.00529 0.0
C296 C 0.82693 0.34346 0.03742 0.0
O297 O 0.80741 0.34211 0.03308 0.0
O298 O 0.82484 0.32123 0.01362 0.0
C299 C 0.6172 0.52581 0.01784 0.0
O300 O 0.62331 0.53186 0.02622 0.0
O301 O 0.65458 0.51085 0.0324 0.0
Zn302 Zn 0.64717 0.50065 0.01952 0.0
O303 O 0.62415 0.46258 0.0189 0.0
C304 C 0.70112 0.5197 0.01675 0.0
O305 O 0.70314 0.52936 0.02473 0.0
O306 O 0.6273 0.51495 0.01357 0.0
C307 C 0.61922 0.45207 0.01128 0.0
O308 O 0.62977 0.46633 0.00422 0.0
C309 C 0.63742 0.49973 0.03829 0.0
O310 O 0.61436 0.48206 0.03585 0.0
O311 O 0.67937 0.50842 0.01299 0.0
C312 C 0.56878 0.85978 0.84883 0.0
O313 O 0.56646 0.8574 0.85751 0.0
O314 O 0.50432 0.80345 0.85116 0.0
Zn315 Zn 0.51628 0.84104 0.85085 0.0
O316 O 0.52108 0.85338 0.8635 0.0
C317 C 0.47653 0.83166 0.83843 0.0
O318 O 0.48406 0.8167 0.83483 0.0
O319 O 0.54958 0.85628 0.84427 0.0
C320 C 0.50296 0.85305 0.8679 0.0
O321 O 0.48096 0.84574 0.86396 0.0
C322 C 0.48157 0.78622 0.85294 0.0
O323 O 0.46448 0.79285 0.85492 0.0
O324 O 0.48913 0.84582 0.84493 0.0
C325 C 0.13404 0.70091 0.84674 0.0
O326 O 0.13033 0.6962 0.8553 0.0
O327 O 0.19699 0.69312 0.84575 0.0
Zn328 Zn 0.15942 0.67185 0.84837 0.0
O329 O 0.15492 0.67129 0.86162 0.0
C330 C 0.15707 0.63324 0.83693 0.0
O331 O 0.17 0.65311 0.83173 0.0
O332 O 0.14335 0.68975 0.8422 0.0
C333 C 0.16978 0.66747 0.86653 0.0
O334 O 0.18717 0.6635 0.86279 0.0
C335 C 0.20904 0.71677 0.84769 0.0
O336 O 0.19679 0.72691 0.85162 0.0
O337 O 0.14803 0.63628 0.84416 0.0
C338 C 0.28614 0.42845 0.85033 0.0
O339 O 0.28488 0.43091 0.85896 0.0
O340 O 0.29709 0.49586 0.84964 0.0
Zn341 Zn 0.32019 0.48164 0.85206 0.0
O342 O 0.3224 0.47859 0.86535 0.0
C343 C 0.3749 0.51841 0.8512 0.0
O344 O 0.37603 0.50816 0.85876 0.0
O345 O 0.3026 0.44748 0.84587 0.0
C346 C 0.33188 0.46647 0.86919 0.0
O347 O 0.34143 0.4551 0.86436 0.0
C348 C 0.27529 0.48785 0.85319 0.0
O349 O 0.26713 0.46976 0.85923 0.0
O350 O 0.354 0.50816 0.84688 0.0
C351 C 0.53633 0.90599 0.98392 0.0
O352 O 0.53967 0.90619 0.97528 0.0
O353 O 0.46984 0.83795 0.98392 0.0
Zn354 Zn 0.50696 0.85197 0.98107 0.0
O355 O 0.51121 0.85839 0.96786 0.0
C356 C 0.50539 0.8118 0.99146 0.0
O357 O 0.49422 0.81964 0.99713 0.0
O358 O 0.52549 0.88469 0.98798 0.0
C359 C 0.51514 0.84436 0.96255 0.0
O360 O 0.51715 0.82518 0.96572 0.0
C361 C 0.45242 0.81962 0.97949 0.0
O362 O 0.45884 0.8099 0.97283 0.0
O363 O 0.51518 0.82476 0.98444 0.0
C364 C 0.09724 0.61907 0.98067 0.0
O365 O 0.10308 0.61501 0.97265 0.0
O366 O 0.16242 0.63091 0.98197 0.0
Zn367 Zn 0.14889 0.65467 0.97953 0.0
O368 O 0.14677 0.65801 0.96627 0.0
C369 C 0.18518 0.68917 0.99202 0.0
O370 O 0.17579 0.66826 0.99684 0.0
O371 O 0.11413 0.6378 0.98513 0.0
C372 C 0.16494 0.67577 0.96187 0.0
O373 O 0.18541 0.69295 0.9661 0.0
C374 C 0.18435 0.63561 0.97937 0.0
O375 O 0.19847 0.6562 0.97461 0.0
O376 O 0.17428 0.68857 0.98473 0.0
C377 C 0.3721 0.46341 0.98547 0.0
O378 O 0.36978 0.4597 0.97683 0.0
O379 O 0.37056 0.5273 0.98246 0.0
Zn380 Zn 0.34513 0.48976 0.98165 0.0
O381 O 0.34179 0.47877 0.96884 0.0
C382 C 0.31131 0.49673 0.99309 0.0
O383 O 0.33183 0.50787 0.99812 0.0
O384 O 0.36021 0.47326 0.98922 0.0
C385 C 0.32452 0.47807 0.96382 0.0
O386 O 0.30807 0.48409 0.96712 0.0
C387 C 0.36964 0.54408 0.97764 0.0
O388 O 0.35168 0.53686 0.97158 0.0
O389 O 0.31184 0.48533 0.98607 0.0
C390 C 0.08591 0.48359 0.48297 0.0
O391 O 0.09021 0.48791 0.47441 0.0
O392 O 0.13755 0.49341 0.46947 0.0
Zn393 Zn 0.13879 0.50309 0.48234 0.0
O394 O 0.15081 0.54068 0.48271 0.0
C395 C 0.17331 0.48386 0.48581 0.0
O396 O 0.16177 0.46902 0.47896 0.0
O397 O 0.10409 0.4863 0.48796 0.0
C398 C 0.16122 0.55363 0.48968 0.0
O399 O 0.16436 0.54224 0.49661 0.0
C400 C 0.15727 0.50753 0.46484 0.0
O401 O 0.17711 0.52667 0.46872 0.0
O402 O 0.16503 0.49803 0.48882 0.0
C403 C 0.51778 0.61222 0.48527 0.0
O404 O 0.51718 0.61474 0.47662 0.0
O405 O 0.50192 0.64893 0.47168 0.0
Zn406 Zn 0.4952 0.64376 0.48485 0.0
O407 O 0.45734 0.62002 0.48648 0.0
C408 C 0.51924 0.6985 0.48688 0.0
O409 O 0.53197 0.6987 0.47977 0.0
O410 O 0.5117 0.62527 0.4903 0.0
C411 C 0.44206 0.62757 0.48893 0.0
O412 O 0.45095 0.65202 0.49041 0.0
C413 C 0.48788 0.6544 0.46696 0.0
O414 O 0.46995 0.65723 0.47084 0.0
O415 O 0.50455 0.67729 0.49066 0.0
C416 C 0.39251 0.90346 0.47862 0.0
O417 O 0.39326 0.8967 0.47037 0.0
O418 O 0.34704 0.85234 0.46591 0.0
Zn419 Zn 0.35591 0.85194 0.47876 0.0
O420 O 0.38046 0.83875 0.47935 0.0
C421 C 0.30224 0.82094 0.48279 0.0
O422 O 0.2998 0.83302 0.47593 0.0
O423 O 0.37538 0.88733 0.48379 0.0
C424 C 0.38844 0.83621 0.48688 0.0
O425 O 0.37984 0.84161 0.49411 0.0
C426 C 0.341 0.83241 0.46135 0.0
O427 O 0.34004 0.81251 0.46527 0.0
O428 O 0.32451 0.82748 0.48561 0.0
C429 C 0.14748 0.42378 0.35177 0.0
O430 O 0.1488 0.42697 0.36043 0.0
O431 O 0.16092 0.4761 0.36539 0.0
Zn432 Zn 0.17045 0.47753 0.3525 0.0
O433 O 0.20792 0.48901 0.35206 0.0
C434 C 0.15231 0.51304 0.3492 0.0
O435 O 0.13806 0.50223 0.35624 0.0
O436 O 0.15325 0.44291 0.34679 0.0
C437 C 0.22085 0.49905 0.34505 0.0
O438 O 0.20952 0.50221 0.33811 0.0
C439 C 0.17573 0.49504 0.37023 0.0
O440 O 0.1956 0.51463 0.36654 0.0
O441 O 0.16577 0.50409 0.34607 0.0
C442 C 0.57109 0.72598 0.35464 0.0
O443 O 0.56298 0.72889 0.36243 0.0
O444 O 0.51992 0.68121 0.36753 0.0
Zn445 Zn 0.52008 0.68912 0.35453 0.0
O446 O 0.50791 0.71451 0.3533 0.0
C447 C 0.48859 0.63509 0.35103 0.0
O448 O 0.50025 0.63303 0.35809 0.0
O449 O 0.55581 0.70742 0.34975 0.0
C450 C 0.4856 0.70863 0.35072 0.0
O451 O 0.46896 0.68465 0.34892 0.0
C452 C 0.4997 0.67468 0.37199 0.0
O453 O 0.47954 0.67269 0.36792 0.0
O454 O 0.49574 0.65717 0.34788 0.0
C455 C 0.28549 0.86049 0.34811 0.0
O456 O 0.28945 0.8615 0.35673 0.0
O457 O 0.31753 0.83919 0.36171 0.0
Zn458 Zn 0.3137 0.83409 0.34846 0.0
O459 O 0.2894 0.79653 0.34635 0.0
C460 C 0.36849 0.85728 0.34717 0.0
O461 O 0.36813 0.86974 0.35428 0.0
O462 O 0.29656 0.85205 0.34309 0.0
C463 C 0.29658 0.78123 0.34359 0.0
O464 O 0.32095 0.78993 0.34199 0.0
C465 C 0.32169 0.82404 0.36633 0.0
O466 O 0.32402 0.80601 0.3623 0.0
O467 O 0.34767 0.84322 0.34307 0.0
H468 H 0.11402 0.20651 0.19187 0.0
H469 H 0.06759 0.18755 0.19111 0.0
H470 H 0.06501 0.14204 0.16863 0.0
H471 H 0.11136 0.161 0.16925 0.0
H472 H 0.02635 0.15821 0.1687 0.0
H473 H 0.03191 0.11158 0.19993 0.0
H474 H 0.049 0.14595 0.19982 0.0
H475 H 0.05906 0.12881 0.19268 0.0
C476 C 0.10373 0.19314 0.18656 0.0
C477 C 0.11631 0.18474 0.18077 0.0
C478 C 0.07717 0.18229 0.18616 0.0
C479 C 0.06293 0.16299 0.17996 0.0
C480 C 0.07571 0.1568 0.17351 0.0
H481 H 0.91914 0.02529 0.18226 0.0
H482 H 0.96365 0.0595 0.18093 0.0
C483 C 0.10223 0.16763 0.17389 0.0
C484 C 0.03503 0.14628 0.18106 0.0
H485 H 0.99108 0.09846 0.19425 0.0
C486 C 0.01851 0.14537 0.17434 0.0
C487 C 0.02506 0.12926 0.18836 0.0
C488 C 0.0421 0.12868 0.1956 0.0
C489 C 0.99217 0.12762 0.17468 0.0
C490 C 0.98233 0.11051 0.18194 0.0
C491 C -0.00121 0.11172 0.18872 0.0
C492 C 0.95523 0.09016 0.18244 0.0
C493 C 0.97519 0.12658 0.16716 0.0
C494 C 0.93589 0.09617 0.1838 0.0
C495 C 0.91044 0.07667 0.18462 0.0
C496 C 0.90397 0.05085 0.18408 0.0
C497 C 0.92347 0.04496 0.1827 0.0
C498 C 0.94889 0.06446 0.18193 0.0
H499 H 0.98638 0.13838 0.16139 0.0
H500 H 0.96279 0.10655 0.1649 0.0
H501 H 0.96256 0.13381 0.16952 0.0
H502 H 0.94051 0.11592 0.18434 0.0
H503 H 0.89586 0.08185 0.18566 0.0
H504 H 0.82517 0.94913 0.15988 0.0
H505 H 0.84294 0.92064 0.1586 0.0
H506 H 0.83526 0.90807 0.18694 0.0
H507 H 0.81713 0.93591 0.18825 0.0
H508 H 0.88762 0.93234 0.16627 0.0
H509 H 0.81396 0.83725 0.17817 0.0
H510 H 0.80639 0.86143 0.17483 0.0
H511 H 0.81797 0.8616 0.18589 0.0
C512 C 0.82648 0.93962 0.16579 0.0
C513 C 0.81995 0.94497 0.17418 0.0
C514 C 0.8367 0.92341 0.16505 0.0
C515 C 0.84027 0.91208 0.17266 0.0
C516 C 0.8322 0.91611 0.18094 0.0
H517 H 0.9621 0.89024 0.18875 0.0
H518 H 0.93249 0.905 0.18466 0.0
C519 C 0.82201 0.93226 0.18169 0.0
C520 C 0.85578 0.89933 0.17226 0.0
H521 H 0.85814 0.84748 0.18002 0.0
C522 C 0.88098 0.91354 0.16909 0.0
C523 C 0.84709 0.8747 0.17585 0.0
C524 C 0.81977 0.85778 0.17878 0.0
C525 C 0.89818 0.90447 0.16996 0.0
C526 C 0.8901 0.88083 0.17426 0.0
C527 C 0.86445 0.86584 0.17687 0.0
C528 C 0.90827 0.872 0.17653 0.0
C529 C 0.92499 0.92054 0.16639 0.0
C530 C 0.90411 0.84826 0.17351 0.0
C531 C 0.92088 0.83965 0.1759 0.0
C532 C 0.94205 0.85461 0.18141 0.0
C533 C 0.94609 0.87834 0.18446 0.0
C534 C 0.92928 0.88689 0.18207 0.0
H535 H 0.92567 0.93326 0.16093 0.0
H536 H 0.93765 0.93285 0.17181 0.0
H537 H 0.93267 0.90842 0.16388 0.0
H538 H 0.8879 0.83641 0.16928 0.0
H539 H 0.9172 0.82125 0.17345 0.0
H540 H 0.13935 0.09159 0.17183 0.0
H541 H 0.12057 0.04683 0.16743 0.0
H542 H 0.13986 0.02884 0.19299 0.0
H543 H 0.1591 0.07373 0.19743 0.0
H544 H 0.14989 0.00513 0.17826 0.0
H545 H 0.05166 0.99124 0.17742 0.0
H546 H 0.07472 0.01705 0.17068 0.0
H547 H 0.07813 0.01871 0.18257 0.0
C548 C 0.13967 0.07816 0.17652 0.0
C549 C 0.15047 0.08617 0.18503 0.0
C550 C 0.12891 0.05258 0.17399 0.0
C551 C 0.12853 0.03452 0.17993 0.0
C552 C 0.13993 0.04253 0.18832 0.0
H553 H 0.05741 0.87314 0.18542 0.0
H554 H 0.08824 0.9188 0.18544 0.0
C555 C 0.1508 0.06815 0.19086 0.0
C556 C 0.11529 0.00709 0.17754 0.0
H557 H 0.05626 0.95639 0.17306 0.0
C558 C 0.12944 0.99444 0.17708 0.0
C559 C 0.08863 0.99327 0.176 0.0
C560 C 0.07229 0.00564 0.17676 0.0
C561 C 0.11754 0.9682 0.17513 0.0
C562 C 0.09081 0.95432 0.17374 0.0
C563 C 0.07681 0.96713 0.17404 0.0
C564 C 0.07633 0.92616 0.17274 0.0
C565 C 0.13366 0.9556 0.17457 0.0
C566 C 0.05977 0.91497 0.16549 0.0
C567 C 0.04191 0.88883 0.16549 0.0
C568 C 0.0402 0.8735 0.17278 0.0
C569 C 0.05817 0.8844 0.1797 0.0
C570 C 0.07597 0.91054 0.1797 0.0
H571 H 0.15386 0.96969 0.17294 0.0
H572 H 0.13344 0.94699 0.18111 0.0
H573 H 0.12611 0.9402 0.16949 0.0
H574 H 0.05972 0.92673 0.16006 0.0
H575 H 0.02844 0.88104 0.16004 0.0
H576 H 0.11641 0.0962 0.33663 0.0
H577 H 0.09984 0.05031 0.33538 0.0
H578 H 0.15672 0.06381 0.31549 0.0
H579 H 0.1732 0.10981 0.31658 0.0
H580 H 0.10829 0.03184 0.30972 0.0
H581 H 0.12219 -0.00028 0.34266 0.0
H582 H 0.10715 0.01884 0.34341 0.0
H583 H 0.13935 0.03284 0.33926 0.0
C584 C 0.12587 0.0895 0.33216 0.0
C585 C 0.14595 0.10666 0.32664 0.0
C586 C 0.11644 0.06321 0.33149 0.0
C587 C 0.12711 0.05364 0.32537 0.0
C588 C 0.14823 0.07082 0.32026 0.0
H589 H 0.06854 0.88996 0.31813 0.0
H590 H 0.09656 0.93576 0.3207 0.0
C591 C 0.15765 0.09711 0.32091 0.0
C592 C 0.11411 0.02588 0.32345 0.0
H593 H 0.09053 0.96726 0.33315 0.0
C594 C 0.10472 0.01773 0.31482 0.0
C595 C 0.1096 0.00751 0.33009 0.0
C596 C 0.12033 0.01516 0.33935 0.0
C597 C 0.09014 0.99169 0.31272 0.0
C598 C 0.08445 0.97334 0.31947 0.0
C599 C 0.09466 0.98142 0.32802 0.0
C600 C 0.06753 0.9457 0.31781 0.0
C601 C 0.08087 0.98404 0.30329 0.0
C602 C 0.04189 0.93616 0.31538 0.0
C603 C 0.02583 0.91003 0.31388 0.0
C604 C 0.03512 0.89296 0.31483 0.0
C605 C 0.06082 0.9026 0.3173 0.0
C606 C 0.07685 0.92874 0.3188 0.0
H607 H 0.09242 -0.00036 0.29851 0.0
H608 H 0.08156 0.96669 0.30129 0.0
H609 H 0.06074 0.97968 0.30281 0.0
H610 H 0.03422 0.94891 0.31474 0.0
H611 H 0.00611 0.9032 0.31207 0.0
H612 H 0.87541 0.09546 0.31141 0.0
H613 H 0.92025 0.12927 0.31226 0.0
H614 H 0.934 0.08661 0.33234 0.0
H615 H 0.88927 0.05309 0.33169 0.0
H616 H 0.96421 0.14025 0.33448 0.0
H617 H 0.96775 0.10815 0.30002 0.0
H618 H 0.94626 0.12017 0.30184 0.0
H619 H 0.9402 0.09094 0.30709 0.0
C620 C 0.88777 0.09363 0.31621 0.0
C621 C 0.87893 0.07125 0.32132 0.0
C622 C 0.91341 0.11294 0.31666 0.0
C623 C 0.93053 0.11005 0.32218 0.0
C624 C 0.92112 0.0891 0.32797 0.0
H625 H 0.07989 0.13598 0.31685 0.0
H626 H 0.03447 0.12185 0.31813 0.0
C627 C 0.89552 0.06988 0.32757 0.0
C628 C 0.95852 0.12633 0.32102 0.0
H629 H 0.00664 0.13695 0.30666 0.0
C630 C 0.97356 0.13997 0.32836 0.0
C631 C 0.97058 0.12555 0.31305 0.0
C632 C 0.95548 0.1103 0.30506 0.0
C633 C 0.00038 0.15217 0.32801 0.0
C634 C 0.01231 0.15075 0.32011 0.0
C635 C 0.99732 0.13801 0.31268 0.0
C636 C 0.04002 0.15992 0.31965 0.0
C637 C 0.01574 0.16529 0.33622 0.0
C638 C 0.05817 0.18606 0.32006 0.0
C639 C 0.08426 0.19425 0.31932 0.0
C640 C 0.09252 0.17639 0.31813 0.0
C641 C 0.07421 0.15024 0.31775 0.0
C642 C 0.04823 0.14211 0.31848 0.0
H643 H 0.0034 0.16168 0.34214 0.0
H644 H 0.02956 0.15872 0.33766 0.0
H645 H 0.02684 0.18622 0.33504 0.0
H646 H 0.05215 0.2001 0.32085 0.0
H647 H 0.0979 0.21455 0.31965 0.0
H648 H 0.8634 0.93344 0.30152 0.0
H649 H 0.8806 0.90585 0.30575 0.0
H650 H 0.8746 0.92056 0.33344 0.0
H651 H 0.85735 0.94812 0.32931 0.0
H652 H 0.92574 0.92105 0.31635 0.0
H653 H 0.83816 0.84099 0.33147 0.0
H654 H 0.83718 0.86388 0.32399 0.0
H655 H 0.84702 0.87256 0.33532 0.0
C656 C 0.86565 0.93075 0.30851 0.0
C657 C 0.859 0.94297 0.31507 0.0
C658 C 0.87545 0.91498 0.31091 0.0
C659 C 0.87852 0.91095 0.3199 0.0
C660 C 0.87196 0.92312 0.32647 0.0
H661 H 0.97504 0.85317 0.33941 0.0
H662 H 0.94969 0.87443 0.33876 0.0
C663 C 0.86228 0.93899 0.32408 0.0
C664 C 0.88964 0.89489 0.32239 0.0
H665 H 0.87634 0.83912 0.33267 0.0
C666 C 0.91499 0.90318 0.31993 0.0
C667 C 0.87543 0.87153 0.32702 0.0
C668 C 0.84786 0.8615 0.32956 0.0
C669 C 0.92661 0.88874 0.32201 0.0
C670 C 0.91252 0.86553 0.32673 0.0
C671 C 0.88711 0.85711 0.32915 0.0
C672 C 0.92377 0.84929 0.32869 0.0
C673 C 0.95372 0.8981 0.31898 0.0
C674 C 0.91653 0.82724 0.32362 0.0
C675 C 0.93095 0.81501 0.32396 0.0
C676 C 0.95284 0.82472 0.32939 0.0
C677 C 0.95842 0.84528 0.33512 0.0
C678 C 0.94402 0.85754 0.33474 0.0
H679 H 0.96049 0.91423 0.31421 0.0
H680 H 0.96666 0.90473 0.32483 0.0
H681 H 0.9553 0.88235 0.31579 0.0
H682 H 0.90085 0.82059 0.31893 0.0
H683 H 0.92602 0.79911 0.31951 0.0
H684 H 0.87417 0.84177 0.82722 0.0
H685 H 0.92031 0.8616 0.82957 0.0
H686 H 0.92758 0.82995 0.80476 0.0
H687 H 0.8815 0.8094 0.8025 0.0
H688 H 0.96099 0.83126 0.81722 0.0
H689 H 0.96519 0.92516 0.81509 0.0
H690 H 0.94586 0.9052 0.82404 0.0
H691 H 0.93646 0.89541 0.81271 0.0
C692 C 0.88551 0.83854 0.82236 0.0
C693 C 0.87424 0.8244 0.81459 0.0
C694 C 0.91189 0.85003 0.82369 0.0
C695 C 0.92743 0.8479 0.8172 0.0
C696 C 0.91596 0.83205 0.80981 0.0
H697 H 0.08197 0.95757 0.80309 0.0
H698 H 0.03577 0.92919 0.80425 0.0
C699 C 0.88957 0.82031 0.80853 0.0
C700 C 0.95565 0.86392 0.81761 0.0
H701 H 0.00414 0.92599 0.81729 0.0
C702 C 0.97048 0.85198 0.81729 0.0
C703 C 0.96793 0.89096 0.81752 0.0
C704 C 0.9531 0.905 0.81727 0.0
C705 C 0.99728 0.86634 0.81681 0.0
C706 C 0.00954 0.89337 0.81687 0.0
C707 C 0.9947 0.90527 0.8173 0.0
C708 C 0.03766 0.90983 0.81609 0.0
C709 C 0.01211 0.85244 0.81592 0.0
C710 C 0.05407 0.90846 0.82239 0.0
C711 C 0.08052 0.92449 0.82169 0.0
C712 C 0.09099 0.94248 0.81476 0.0
C713 C 0.0745 0.94396 0.80851 0.0
C714 C 0.0481 0.92775 0.80917 0.0
H715 H -0.00022 0.83246 0.81359 0.0
H716 H 0.0283 0.86244 0.8112 0.0
H717 H 0.02 0.85171 0.8225 0.0
H718 H 0.04643 0.89525 0.82792 0.0
H719 H 0.09273 0.92304 0.82665 0.0
H720 H 0.03187 0.10148 0.81735 0.0
H721 H 0.06365 0.08806 0.8191 0.0
H722 H 0.12279 0.16663 0.82261 0.0
H723 H 0.09107 0.18026 0.821 0.0
H724 H 0.10588 0.10247 0.80838 0.0
H725 H 0.13496 0.13037 0.84352 0.0
H726 H 0.10625 0.12791 0.83887 0.0
H727 H 0.13687 0.15526 0.83646 0.0
C728 C 0.05159 0.11592 0.81856 0.0
C729 C 0.05894 0.14193 0.81904 0.0
C730 C 0.06972 0.10821 0.81956 0.0
C731 C 0.0955 0.12633 0.82109 0.0
C732 C 0.10292 0.15231 0.82162 0.0
H733 H 0.20896 0.07949 0.81163 0.0
H734 H 0.19057 0.10747 0.81259 0.0
C735 C 0.08477 0.16005 0.82064 0.0
C736 C 0.11467 0.11793 0.82162 0.0
H737 H 0.15726 0.11387 0.83551 0.0
C738 C 0.11725 0.1051 0.81428 0.0
C739 C 0.12935 0.12135 0.82936 0.0
C740 C 0.12667 0.13428 0.83755 0.0
C741 C 0.13371 0.09504 0.81452 0.0
C742 C 0.14845 0.09846 0.82225 0.0
C743 C 0.14621 0.11167 0.82955 0.0
C744 C 0.16405 0.08594 0.82312 0.0
C745 C 0.13426 0.07984 0.80663 0.0
C746 C 0.15655 0.0658 0.82918 0.0
C747 C 0.16717 0.04994 0.82871 0.0
C748 C 0.18537 0.05391 0.82214 0.0
C749 C 0.19473 0.0757 0.81669 0.0
C750 C 0.18417 0.09165 0.8172 0.0
H751 H 0.11808 0.07478 0.80199 0.0
H752 H 0.15233 0.09135 0.80289 0.0
H753 H 0.1335 0.06193 0.80883 0.0
H754 H 0.14118 0.06122 0.83385 0.0
H755 H 0.15972 0.03351 0.83309 0.0
H756 H 0.8126 0.90575 0.81264 0.0
H757 H 0.82604 0.95106 0.81432 0.0
H758 H 0.90361 0.97136 0.80803 0.0
H759 H 0.89038 0.92621 0.80624 0.0
H760 H 0.86193 0.98648 0.82612 0.0
H761 H 0.88989 0.01634 0.79119 0.0
H762 H 0.8706 0.98323 0.7944 0.0
H763 H 0.9048 -0.0005 0.79569 0.0
C764 C 0.8325 0.91986 0.81154 0.0
C765 C 0.85043 0.91238 0.80926 0.0
C766 C 0.84012 0.94572 0.81252 0.0
C767 C 0.86572 0.96454 0.81118 0.0
C768 C 0.88365 0.95714 0.80892 0.0
H769 H 0.96292 0.11497 0.82875 0.0
H770 H 0.93263 0.0693 0.82796 0.0
C771 C 0.87607 0.93132 0.80794 0.0
C772 C 0.87403 0.99192 0.81242 0.0
H773 H 0.90619 0.04978 0.80209 0.0
C774 C 0.87127 0.00033 0.82084 0.0
C775 C 0.88571 0.00985 0.80548 0.0
C776 C 0.88771 0.00177 0.79616 0.0
C777 C 0.88126 0.02645 0.82263 0.0
C778 C 0.89464 0.04453 0.81585 0.0
C779 C 0.89607 0.03594 0.80731 0.0
C780 C 0.90944 0.07241 0.8176 0.0
C781 C 0.87767 0.03441 0.83177 0.0
C782 C 0.90624 0.0895 0.81217 0.0
C783 C 0.92375 0.11572 0.81254 0.0
C784 C 0.94488 0.12526 0.81831 0.0
C785 C 0.94689 0.1083 0.82422 0.0
C786 C 0.92944 0.08211 0.82382 0.0
H787 H 0.86006 0.0191 0.83498 0.0
H788 H 0.89415 0.03794 0.83602 0.0
H789 H 0.87652 0.05218 0.83153 0.0
H790 H 0.89095 0.08241 0.80731 0.0
H791 H 0.92158 0.12826 0.80792 0.0
H792 H 0.97095 0.07417 0.68009 0.0
H793 H 0.93967 0.02869 0.67848 0.0
H794 H 0.87839 0.0442 0.68343 0.0
H795 H 0.90951 0.08978 0.68505 0.0
H796 H 0.90262 0.99741 0.69193 0.0
H797 H 0.85793 0.00066 0.65994 0.0
H798 H 0.88909 0.02591 0.6634 0.0
H799 H 0.86081 0.02297 0.66843 0.0
C800 C 0.95083 0.06796 0.68081 0.0
C801 C 0.94272 0.08559 0.68269 0.0
C802 C 0.933 0.04199 0.67988 0.0
C803 C 0.90677 0.03322 0.68073 0.0
C804 C 0.89856 0.0507 0.68261 0.0
H805 H 0.79494 0.87276 0.68946 0.0
H806 H 0.81468 0.91932 0.68917 0.0
C807 C 0.91638 0.07669 0.68359 0.0
C808 C 0.88819 0.00558 0.68005 0.0
H809 H 0.84077 0.96041 0.66701 0.0
C810 C 0.88897 0.9893 0.68652 0.0
C811 C 0.87056 0.9952 0.67295 0.0
C812 C 0.86951 0.01197 0.66573 0.0
C813 C 0.87271 0.96278 0.68604 0.0
C814 C 0.85506 0.95234 0.67895 0.0
C815 C 0.85414 0.9686 0.67249 0.0
C816 C 0.83893 0.92438 0.67788 0.0
C817 C 0.87505 0.94602 0.69299 0.0
C818 C 0.84503 0.91186 0.6713 0.0
C819 C 0.83382 0.88527 0.67143 0.0
C820 C 0.81634 0.87083 0.67817 0.0
C821 C 0.80849 0.8833 0.68423 0.0
C822 C 0.81977 0.90991 0.68409 0.0
H823 H 0.89239 0.95677 0.69718 0.0
H824 H 0.85804 0.93797 0.6974 0.0
H825 H 0.87575 0.92979 0.6898 0.0
H826 H 0.85973 0.92277 0.66642 0.0
H827 H 0.84013 0.87625 0.66662 0.0
H828 H 0.12088 0.97368 0.67189 0.0
H829 H 0.07473 0.94512 0.67045 0.0
H830 H 0.07511 0.9038 0.69377 0.0
H831 H 0.12131 0.93175 0.69512 0.0
H832 H 0.03971 0.87228 0.68114 0.0
H833 H 0.03119 0.95805 0.68811 0.0
H834 H 0.04955 0.96078 0.67837 0.0
H835 H 0.06101 0.95823 0.68914 0.0
C836 C 0.11124 0.9581 0.67658 0.0
C837 C 0.12466 0.95525 0.68371 0.0
C838 C 0.08486 0.94191 0.67578 0.0
C839 C 0.07145 0.92287 0.68216 0.0
C840 C 0.0851 0.91854 0.68882 0.0
H841 H 0.91592 0.86752 0.69887 0.0
H842 H 0.96224 0.88622 0.69772 0.0
C843 C 0.11153 0.93455 0.68958 0.0
C844 C 0.04316 0.90935 0.68249 0.0
H845 H 0.9929 0.91955 0.68536 0.0
C846 C 0.02941 0.88255 0.68203 0.0
C847 C 0.02986 0.92284 0.68385 0.0
C848 C 0.04361 0.95153 0.68499 0.0
C849 C 0.00264 0.86886 0.68285 0.0
C850 C 0.98934 0.88243 0.68398 0.0
C851 C 0.00313 0.9092 0.68444 0.0
C852 C 0.96115 0.86942 0.68489 0.0
C853 C 0.98895 0.84003 0.68273 0.0
C854 C 0.94516 0.85373 0.67807 0.0
C855 C 0.91865 0.84287 0.67874 0.0
C856 C 0.90769 0.84781 0.68619 0.0
C857 C 0.92375 0.8634 0.69304 0.0
C858 C 0.95023 0.87408 0.69239 0.0
H859 H 0.00211 0.8327 0.6843 0.0
H860 H 0.97292 0.83182 0.68758 0.0
H861 H 0.98096 0.83312 0.676 0.0
H862 H 0.95318 0.85038 0.67213 0.0
H863 H 0.9068 0.83106 0.67333 0.0
H864 H 0.03521 0.16299 0.66939 0.0
H865 H 0.06694 0.14933 0.66807 0.0
H866 H 0.11054 0.20003 0.68943 0.0
H867 H 0.079 0.21397 0.69081 0.0
H868 H 0.12888 0.17948 0.66795 0.0
H869 H 0.07621 0.11944 0.69723 0.0
H870 H 0.06163 0.13169 0.6897 0.0
H871 H 0.08576 0.15288 0.69733 0.0
C872 C 0.05196 0.17188 0.67362 0.0
C873 C 0.05436 0.18925 0.68031 0.0
C874 C 0.07009 0.16409 0.67284 0.0
C875 C 0.09083 0.17353 0.67872 0.0
C876 C 0.09458 0.19258 0.68485 0.0
H877 H 0.17158 0.09405 0.69427 0.0
H878 H 0.15643 0.12474 0.69351 0.0
C879 C 0.07652 0.2005 0.68562 0.0
C880 C 0.10584 0.16044 0.6794 0.0
H881 H 0.10867 0.11372 0.69118 0.0
C882 C 0.12473 0.16526 0.67306 0.0
C883 C 0.10026 0.14197 0.68609 0.0
C884 C 0.07981 0.13596 0.69298 0.0
C885 C 0.13819 0.15185 0.67321 0.0
C886 C 0.132 0.13273 0.67975 0.0
C887 C 0.11344 0.12839 0.68619 0.0
C888 C 0.14354 0.11607 0.67986 0.0
C889 C 0.15899 0.15845 0.66643 0.0
C890 C 0.14132 0.10098 0.67245 0.0
C891 C 0.15014 0.08357 0.67284 0.0
C892 C 0.16091 0.08059 0.68071 0.0
C893 C 0.16326 0.09582 0.68812 0.0
C894 C 0.1547 0.11342 0.68769 0.0
H895 H 0.16706 0.1784 0.66401 0.0
H896 H 0.17475 0.15614 0.66921 0.0
H897 H 0.15082 0.14553 0.66062 0.0
H898 H 0.13209 0.10209 0.66643 0.0
H899 H 0.14791 0.072 0.66704 0.0
H900 H 0.56875 0.3738 0.50758 0.0
H901 H 0.61421 0.40221 0.50452 0.0
H902 H 0.6119 0.46338 0.51847 0.0
H903 H 0.56636 0.43514 0.52158 0.0
H904 H 0.63995 0.45425 0.49584 0.0
H905 H 0.6683 0.45234 0.53098 0.0
H906 H 0.63784 0.42828 0.52658 0.0
H907 H 0.64328 0.45969 0.52901 0.0
C908 C 0.57785 0.39331 0.50998 0.0
C909 C 0.56399 0.40216 0.51489 0.0
C910 C 0.60378 0.40953 0.50819 0.0
C911 C 0.61631 0.43478 0.5113 0.0
C912 C 0.6025 0.44387 0.51606 0.0
H913 H 0.78176 0.53055 0.51466 0.0
H914 H 0.7369 0.51947 0.51454 0.0
C915 C 0.57652 0.4277 0.51783 0.0
C916 C 0.64414 0.4511 0.50992 0.0
H917 H 0.70114 0.4748 0.5207 0.0
C918 C 0.65341 0.45904 0.50127 0.0
C919 C 0.6615 0.45741 0.51704 0.0
C920 C 0.6524 0.44895 0.52644 0.0
C921 C 0.67979 0.47274 0.49952 0.0
C922 C 0.6972 0.47801 0.50659 0.0
C923 C 0.68782 0.47086 0.51529 0.0
C924 C 0.72497 0.48847 0.50511 0.0
C925 C 0.68868 0.48128 0.49012 0.0
C926 C 0.73336 0.47537 0.4996 0.0
C927 C 0.75903 0.48182 0.49959 0.0
C928 C 0.77669 0.50119 0.50522 0.0
C929 C 0.7686 0.51544 0.51028 0.0
C930 C 0.74295 0.50912 0.51023 0.0
H931 H 0.67464 0.4845 0.4864 0.0
H932 H 0.70754 0.49915 0.48998 0.0
H933 H 0.69044 0.46608 0.48661 0.0
H934 H 0.71982 0.45901 0.49575 0.0
H935 H 0.76458 0.47042 0.49563 0.0
H936 H 0.46434 0.2565 0.51419 0.0
H937 H 0.47631 0.22337 0.51433 0.0
H938 H 0.53052 0.26225 0.49326 0.0
H939 H 0.51843 0.29524 0.49294 0.0
H940 H 0.50607 0.2072 0.49263 0.0
H941 H 0.54747 0.24863 0.52571 0.0
H942 H 0.51379 0.23685 0.52448 0.0
H943 H 0.5363 0.26399 0.5181 0.0
C944 C 0.47828 0.25764 0.5094 0.0
C945 C 0.49086 0.27882 0.50369 0.0
C946 C 0.48513 0.23871 0.50951 0.0
C947 C 0.50472 0.24077 0.50396 0.0
C948 C 0.51546 0.26046 0.49764 0.0
H949 H 0.62126 0.20295 0.51234 0.0
H950 H 0.59454 0.222 0.50957 0.0
C951 C 0.50854 0.27933 0.49749 0.0
C952 C 0.51659 0.22483 0.50554 0.0
H953 H 0.55379 0.21565 0.52046 0.0
C954 C 0.51628 0.20876 0.49874 0.0
C955 C 0.53024 0.22735 0.51348 0.0
C956 C 0.53224 0.24526 0.52085 0.0
C957 C 0.52954 0.19528 0.49965 0.0
C958 C 0.54323 0.19791 0.50758 0.0
C959 C 0.54316 0.21364 0.51441 0.0
C960 C 0.55915 0.18586 0.50877 0.0
C961 C 0.52964 0.17911 0.49202 0.0
C962 C 0.54803 0.15921 0.50926 0.0
C963 C 0.56326 0.14821 0.51085 0.0
C964 C 0.58984 0.16375 0.51203 0.0
C965 C 0.60087 0.19044 0.51148 0.0
C966 C 0.58564 0.20137 0.50989 0.0
H967 H 0.52213 0.18283 0.4858 0.0
H968 H 0.5493 0.18272 0.49077 0.0
H969 H 0.51744 0.1586 0.49374 0.0
H970 H 0.52754 0.14695 0.50856 0.0
H971 H 0.55418 0.12759 0.51125 0.0
H972 H 0.75473 0.22018 0.52432 0.0
H973 H 0.78215 0.26645 0.52274 0.0
H974 H 0.73777 0.26577 0.5002 0.0
H975 H 0.71017 0.21955 0.5017 0.0
H976 H 0.81001 0.30369 0.50701 0.0
H977 H 0.72619 0.30518 0.52184 0.0
H978 H 0.73016 0.27753 0.52251 0.0
H979 H 0.72021 0.28508 0.51227 0.0
C980 C 0.75124 0.2297 0.51885 0.0
C981 C 0.72992 0.21625 0.51325 0.0
C982 C 0.76697 0.25615 0.51796 0.0
C983 C 0.76166 0.26943 0.51145 0.0
C984 C 0.74199 0.25576 0.50531 0.0
H985 H 0.79898 0.4275 0.50891 0.0
H986 H 0.78227 0.38205 0.5061 0.0
C987 C 0.72624 0.22935 0.50619 0.0
C988 C 0.77391 0.29754 0.51194 0.0
H989 H 0.76201 0.34475 0.51835 0.0
C990 C 0.7996 0.31278 0.50945 0.0
C991 C 0.76018 0.30916 0.51517 0.0
C992 C 0.7327 0.2935 0.51817 0.0
C993 C 0.81188 0.33959 0.51001 0.0
C994 C 0.79817 0.35121 0.51332 0.0
C995 C 0.77246 0.33583 0.51578 0.0
C996 C 0.80995 0.37923 0.51445 0.0
C997 C 0.83921 0.35521 0.50691 0.0
C998 C 0.83104 0.39275 0.52009 0.0
C999 C 0.84072 0.4188 0.52169 0.0
C1000 C 0.82923 0.43169 0.51776 0.0
C1001 C 0.8082 0.41812 0.51207 0.0
C1002 C 0.79868 0.39216 0.51043 0.0
H1003 H 0.84437 0.34423 0.50224 0.0
H1004 H 0.84264 0.37304 0.50356 0.0
H1005 H 0.85214 0.36056 0.51274 0.0
H1006 H 0.83962 0.38302 0.52345 0.0
H1007 H 0.85688 0.4287 0.52613 0.0
H1008 H 0.80623 0.43615 0.67168 0.0
H1009 H 0.79338 0.39111 0.66996 0.0
H1010 H 0.84218 0.40933 0.647 0.0
H1011 H 0.85519 0.45455 0.64863 0.0
H1012 H 0.77014 0.36951 0.65189 0.0
H1013 H 0.84902 0.35226 0.66202 0.0
H1014 H 0.84504 0.37735 0.66696 0.0
H1015 H 0.85663 0.38073 0.6558 0.0
C1016 C 0.81487 0.43077 0.66642 0.0
C1017 C 0.83143 0.4489 0.66021 0.0
C1018 C 0.80751 0.40501 0.66547 0.0
C1019 C 0.81682 0.397 0.65836 0.0
C1020 C 0.83501 0.41525 0.65258 0.0
H1021 H 0.76342 0.24286 0.63777 0.0
H1022 H 0.78864 0.289 0.6406 0.0
C1023 C 0.84237 0.44108 0.65352 0.0
C1024 C 0.80419 0.36955 0.65613 0.0
H1025 H 0.81157 0.31711 0.65618 0.0
C1026 C 0.77916 0.35801 0.65283 0.0
C1027 C 0.81629 0.3549 0.65721 0.0
C1028 C 0.84322 0.36676 0.66072 0.0
C1029 C 0.76567 0.332 0.65066 0.0
C1030 C 0.77732 0.31698 0.65207 0.0
C1031 C 0.80266 0.32866 0.65517 0.0
C1032 C 0.76299 0.28898 0.65065 0.0
C1033 C 0.73914 0.32091 0.6468 0.0
C1034 C 0.74055 0.27372 0.65549 0.0
C1035 C 0.72603 0.24754 0.65384 0.0
C1036 C 0.73387 0.23602 0.64739 0.0
C1037 C 0.75682 0.2512 0.64274 0.0
C1038 C 0.77128 0.27752 0.64437 0.0
H1039 H 0.73621 0.33593 0.64368 0.0
H1040 H 0.73544 0.30608 0.64173 0.0
H1041 H 0.72484 0.31194 0.6522 0.0
H1042 H 0.73413 0.28211 0.66051 0.0
H1043 H 0.70864 0.23636 0.65762 0.0
H1044 H 0.5442 0.40992 0.64982 0.0
H1045 H 0.58919 0.44337 0.64969 0.0
H1046 H 0.60328 0.40938 0.67261 0.0
H1047 H 0.55832 0.37598 0.67288 0.0
H1048 H 0.63371 0.46588 0.67155 0.0
H1049 H 0.63579 0.41447 0.64109 0.0
H1050 H 0.61327 0.42569 0.64108 0.0
H1051 H 0.60914 0.40103 0.6487 0.0
C1052 C 0.55667 0.40996 0.655 0.0
C1053 C 0.54781 0.38994 0.66124 0.0
C1054 C 0.58237 0.4291 0.65491 0.0
C1055 C 0.59956 0.42846 0.66103 0.0
C1056 C 0.59028 0.41008 0.66781 0.0
H1057 H 0.75483 0.46623 0.65555 0.0
H1058 H 0.70909 0.44759 0.65826 0.0
C1059 C 0.56456 0.39096 0.66793 0.0
C1060 C 0.62743 0.44411 0.65955 0.0
H1061 H 0.6747 0.44921 0.64579 0.0
C1062 C 0.64274 0.4625 0.66589 0.0
C1063 C 0.63905 0.43926 0.65221 0.0
C1064 C 0.62358 0.41893 0.6454 0.0
C1065 C 0.66954 0.4761 0.66509 0.0
C1066 C 0.68107 0.47112 0.65776 0.0
C1067 C 0.6657 0.45299 0.65138 0.0
C1068 C 0.70912 0.48324 0.65678 0.0
C1069 C 0.68537 0.495 0.67221 0.0
C1070 C 0.72426 0.50949 0.65506 0.0
C1071 C 0.75049 0.52024 0.65348 0.0
C1072 C 0.76189 0.50484 0.65355 0.0
C1073 C 0.74666 0.47862 0.65541 0.0
C1074 C 0.72052 0.46793 0.65698 0.0
H1075 H 0.67381 0.49343 0.67818 0.0
H1076 H 0.70141 0.4921 0.67425 0.0
H1077 H 0.69371 0.5147 0.66953 0.0
H1078 H 0.71572 0.52153 0.65475 0.0
H1079 H 0.76173 0.54053 0.6521 0.0
H1080 H 0.59436 0.14264 0.65012 0.0
H1081 H 0.56467 0.15908 0.65037 0.0
H1082 H 0.60468 0.20676 0.67281 0.0
H1083 H 0.6345 0.19051 0.67266 0.0
H1084 H 0.53348 0.16749 0.66534 0.0
H1085 H 0.61471 0.25401 0.64999 0.0
H1086 H 0.61302 0.22331 0.64997 0.0
H1087 H 0.6212 0.24188 0.65998 0.0
C1088 C 0.59643 0.15606 0.65528 0.0
C1089 C 0.61709 0.16562 0.66127 0.0
C1090 C 0.5794 0.16538 0.65541 0.0
C1091 C 0.58278 0.18432 0.66153 0.0
C1092 C 0.60193 0.19222 0.66802 0.0
H1093 H 0.53366 0.29657 0.65975 0.0
H1094 H 0.55349 0.27121 0.66367 0.0
C1095 C 0.61893 0.18289 0.66791 0.0
C1096 C 0.56884 0.19839 0.66032 0.0
H1097 H 0.57679 0.25485 0.65245 0.0
C1098 C 0.54286 0.18662 0.66256 0.0
C1099 C 0.58126 0.22327 0.65666 0.0
C1100 C 0.60905 0.23644 0.65394 0.0
C1101 C 0.52895 0.19935 0.66131 0.0
C1102 C 0.54133 0.22417 0.65755 0.0
C1103 C 0.56736 0.23586 0.65536 0.0
C1104 C 0.5278 0.23847 0.65569 0.0
C1105 C 0.50132 0.1863 0.66418 0.0
C1106 C 0.5068 0.22852 0.64989 0.0
C1107 C 0.49532 0.24294 0.64766 0.0
C1108 C 0.5049 0.26772 0.65111 0.0
C1109 C 0.52588 0.27759 0.65695 0.0
C1110 C 0.53719 0.26309 0.65922 0.0
H1111 H 0.49702 0.17121 0.66922 0.0
H1112 H 0.49633 0.20024 0.66699 0.0
H1113 H 0.48892 0.17704 0.65832 0.0
H1114 H 0.49965 0.20985 0.6469 0.0
H1115 H 0.47926 0.23485 0.64312 0.0
H1116 H 0.74775 0.2375 0.1467 0.0
H1117 H 0.7021 0.20608 0.14708 0.0
H1118 H 0.69257 0.24461 0.16965 0.0
H1119 H 0.73841 0.2757 0.1695 0.0
H1120 H 0.66443 0.19205 0.17125 0.0
H1121 H 0.64925 0.22319 0.13816 0.0
H1122 H 0.67225 0.21266 0.13812 0.0
H1123 H 0.67875 0.24087 0.14425 0.0
C1124 C 0.73596 0.23924 0.15177 0.0
C1125 C 0.7466 0.25926 0.15801 0.0
C1126 C 0.70988 0.22131 0.15196 0.0
C1127 C 0.69388 0.22334 0.15828 0.0
C1128 C 0.70458 0.24277 0.1647 0.0
H1129 H 0.53573 0.16824 0.16613 0.0
H1130 H 0.58104 0.18339 0.16854 0.0
C1131 C 0.73075 0.26056 0.16458 0.0
C1132 C 0.66585 0.20596 0.15795 0.0
H1133 H 0.61363 0.18821 0.14479 0.0
C1134 C 0.6533 0.19109 0.16545 0.0
C1135 C 0.65138 0.20484 0.15038 0.0
C1136 C 0.66351 0.2214 0.1423 0.0
C1137 C 0.6266 0.17518 0.1656 0.0
C1138 C 0.61221 0.17428 0.15806 0.0
C1139 C 0.6248 0.18872 0.15051 0.0
C1140 C 0.58393 0.16047 0.15804 0.0
C1141 C 0.61397 0.15956 0.1738 0.0
C1142 C 0.57037 0.14201 0.1515 0.0
C1143 C 0.54444 0.13333 0.15008 0.0
C1144 C 0.53177 0.14329 0.15511 0.0
C1145 C 0.54495 0.16026 0.16212 0.0
C1146 C 0.57084 0.16884 0.16355 0.0
H1147 H 0.62767 0.1568 0.17791 0.0
H1148 H 0.60656 0.16971 0.17791 0.0
H1149 H 0.5976 0.14055 0.172 0.0
H1150 H 0.58021 0.13543 0.14715 0.0
H1151 H 0.53485 0.1202 0.14465 0.0
H1152 H 0.87151 0.40908 0.14748 0.0
H1153 H 0.85667 0.43996 0.14834 0.0
H1154 H 0.79616 0.38971 0.1661 0.0
H1155 H 0.81115 0.35914 0.16546 0.0
H1156 H 0.81099 0.42725 0.14179 0.0
H1157 H 0.81452 0.45794 0.17656 0.0
H1158 H 0.83256 0.44329 0.17275 0.0
H1159 H 0.79947 0.42381 0.17589 0.0
C1160 C 0.85561 0.40501 0.15183 0.0
C1161 C 0.84228 0.38146 0.1563 0.0
C1162 C 0.84713 0.42269 0.1523 0.0
C1163 C 0.8253 0.41719 0.15728 0.0
C1164 C 0.81331 0.39465 0.16234 0.0
H1165 H 0.69958 0.43664 0.14454 0.0
H1166 H 0.73199 0.42415 0.14653 0.0
C1167 C 0.82183 0.37704 0.16191 0.0
C1168 C 0.81243 0.43238 0.15601 0.0
H1169 H 0.782 0.45871 0.1672 0.0
C1170 C 0.80514 0.43462 0.14734 0.0
C1171 C 0.80493 0.44221 0.16323 0.0
C1172 C 0.81354 0.44193 0.17261 0.0
C1173 C 0.78934 0.44502 0.14574 0.0
C1174 C 0.78016 0.45291 0.15302 0.0
C1175 C 0.7887 0.45219 0.16164 0.0
C1176 C 0.76068 0.4607 0.15184 0.0
C1177 C 0.78224 0.44701 0.13627 0.0
C1178 C 0.76589 0.48519 0.15436 0.0
C1179 C 0.74735 0.49236 0.15326 0.0
C1180 C 0.7232 0.47506 0.14969 0.0
C1181 C 0.71801 0.45046 0.14725 0.0
C1182 C 0.73656 0.44333 0.14835 0.0
H1183 H 0.79657 0.44763 0.13149 0.0
H1184 H 0.76352 0.42996 0.13468 0.0
H1185 H 0.78053 0.46433 0.13531 0.0
H1186 H 0.78436 0.49879 0.15711 0.0
H1187 H 0.75194 0.51144 0.15524 0.0
H1188 H 0.48551 0.23833 0.14425 0.0
H1189 H 0.50128 0.2843 0.14448 0.0
H1190 H 0.54208 0.29133 0.16882 0.0
H1191 H 0.52573 0.24519 0.16879 0.0
H1192 H 0.51895 0.32067 0.16899 0.0
H1193 H 0.57391 0.33613 0.13776 0.0
H1194 H 0.54035 0.31389 0.13663 0.0
H1195 H 0.55959 0.30623 0.14371 0.0
C1196 C 0.4978 0.24965 0.14967 0.0
C1197 C 0.50465 0.23821 0.15645 0.0
C1198 C 0.50684 0.27592 0.14977 0.0
C1199 C 0.52327 0.29129 0.15656 0.0
C1200 C 0.5295 0.27981 0.16349 0.0
H1201 H 0.62581 0.44964 0.16591 0.0
H1202 H 0.59571 0.40404 0.16776 0.0
C1203 C 0.52021 0.25347 0.16345 0.0
C1204 C 0.53476 0.31943 0.15628 0.0
H1205 H 0.57346 0.37194 0.14378 0.0
C1206 C 0.53081 0.33191 0.16347 0.0
C1207 C 0.55032 0.33403 0.14908 0.0
C1208 C 0.55654 0.32196 0.1414 0.0
C1209 C 0.54203 0.35865 0.16365 0.0
C1210 C 0.55761 0.37315 0.15647 0.0
C1211 C 0.56121 0.36066 0.14923 0.0
C1212 C 0.57212 0.4014 0.15653 0.0
C1213 C 0.53722 0.37122 0.1715 0.0
C1214 C 0.56845 0.41513 0.14974 0.0
C1215 C 0.58563 0.44122 0.14865 0.0
C1216 C 0.607 0.4539 0.15427 0.0
C1217 C 0.6096 0.44044 0.16145 0.0
C1218 C 0.59232 0.41438 0.16256 0.0
H1219 H 0.51999 0.35747 0.17529 0.0
H1220 H 0.55391 0.37886 0.17604 0.0
H1221 H 0.53481 0.38746 0.16931 0.0
H1222 H 0.55301 0.40537 0.145 0.0
H1223 H 0.58303 0.45102 0.14307 0.0
H1224 H 0.61101 0.42271 0.99649 0.0
H1225 H 0.58313 0.37637 0.99509 0.0
H1226 H 0.5602 0.37217 0.02246 0.0
H1227 H 0.58818 0.41845 0.02397 0.0
H1228 H 0.58785 0.33949 0.00739 0.0
H1229 H 0.49186 0.33113 0.00711 0.0
H1230 H 0.52056 0.35994 0.00375 0.0
H1231 H 0.51426 0.35207 0.01532 0.0
C1232 C 0.59991 0.41197 0.0022 0.0
C1233 C 0.60185 0.42422 0.01035 0.0
C1234 C 0.58398 0.38554 0.00137 0.0
C1235 C 0.56945 0.37103 0.00864 0.0
C1236 C 0.57104 0.38319 0.01675 0.0
H1237 H 0.47611 0.21612 0.02447 0.0
H1238 H 0.4945 0.26167 0.02147 0.0
C1239 C 0.58716 0.40957 0.01761 0.0
C1240 C 0.55413 0.34291 0.00798 0.0
H1241 H 0.49302 0.29261 0.00864 0.0
C1242 C 0.5671 0.32915 0.00754 0.0
C1243 C 0.52714 0.32971 0.00826 0.0
C1244 C 0.51249 0.34387 0.00857 0.0
C1245 C 0.55382 0.30236 0.00775 0.0
C1246 C 0.52673 0.289 0.00809 0.0
C1247 C 0.51374 0.30286 0.00831 0.0
C1248 C 0.51185 0.26079 0.00898 0.0
C1249 C 0.56905 0.28873 0.00806 0.0
C1250 C 0.51429 0.24492 0.00271 0.0
C1251 C 0.5041 0.21889 0.00447 0.0
C1252 C 0.49085 0.20825 0.01244 0.0
C1253 C 0.48631 0.22372 0.01829 0.0
C1254 C 0.49683 0.24981 0.01658 0.0
H1255 H 0.5893 0.30183 0.00995 0.0
H1256 H 0.56062 0.27267 0.01288 0.0
H1257 H 0.56893 0.28084 0.00139 0.0
H1258 H 0.52515 0.25289 0.99666 0.0
H1259 H 0.50762 0.20737 -0.00022 0.0
H1260 H 0.79155 0.25414 0.02593 0.0
H1261 H 0.74668 0.22207 0.0236 0.0
H1262 H 0.74467 0.26238 0.00024 0.0
H1263 H 0.7895 0.29448 0.00248 0.0
H1264 H 0.71217 0.24072 0.02429 0.0
H1265 H 0.69967 0.18644 0.99315 0.0
H1266 H 0.72962 0.20242 0.99914 0.0
H1267 H 0.72029 0.22041 0.99212 0.0
C1268 C 0.78186 0.25573 0.02011 0.0
C1269 C 0.79398 0.2771 0.01446 0.0
C1270 C 0.7562 0.23736 0.0188 0.0
C1271 C 0.7424 0.23985 0.01175 0.0
C1272 C 0.75507 0.25989 0.00565 0.0
H1273 H 0.58778 0.1946 0.99826 0.0
H1274 H 0.63369 0.20974 0.9986 0.0
C1275 C 0.78069 0.27834 0.00698 0.0
C1276 C 0.71414 0.22473 0.01172 0.0
H1277 H 0.66238 0.18582 0.99893 0.0
C1278 C 0.70122 0.22832 0.01883 0.0
C1279 C 0.70005 0.20897 0.00452 0.0
C1280 C 0.71307 0.2041 0.99682 0.0
C1281 C 0.67458 0.21741 0.01877 0.0
C1282 C 0.6604 0.20182 0.01152 0.0
C1283 C 0.67329 0.19772 0.0045 0.0
C1284 C 0.63233 0.19071 0.01096 0.0
C1285 C 0.66208 0.22378 0.02628 0.0
C1286 C 0.61629 0.17452 0.01768 0.0
C1287 C 0.59016 0.16621 0.01758 0.0
C1288 C 0.57954 0.17353 0.01065 0.0
C1289 C 0.59544 0.18874 0.00371 0.0
C1290 C 0.62164 0.19732 0.00387 0.0
H1291 H 0.67609 0.24105 0.03001 0.0
H1292 H 0.6467 0.22709 0.02376 0.0
H1293 H 0.65345 0.20756 0.03103 0.0
H1294 H 0.62406 0.16868 0.02309 0.0
H1295 H 0.57833 0.15416 0.02295 0.0
H1296 H 0.80419 0.39527 0.02194 0.0
H1297 H 0.78521 0.42229 0.01983 0.0
H1298 H 0.82855 0.4526 0.99569 0.0
H1299 H 0.84794 0.42569 0.99777 0.0
H1300 H 0.82851 0.49025 0.00728 0.0
H1301 H 0.73087 0.40979 0.00082 0.0
H1302 H 0.74463 0.40561 0.01081 0.0
H1303 H 0.7589 0.4064 0.00022 0.0
C1304 C 0.80972 0.40764 0.01617 0.0
C1305 C 0.82742 0.40817 0.00998 0.0
C1306 C 0.79877 0.423 0.01496 0.0
C1307 C 0.80519 0.43909 0.00753 0.0
C1308 C 0.82325 0.44015 0.00143 0.0
H1309 H 0.7036 0.5009 0.00045 0.0
H1310 H 0.73307 0.48627 0.99599 0.0
C1311 C 0.83423 0.42472 0.00262 0.0
C1312 C 0.79288 0.45472 0.00624 0.0
H1313 H 0.73418 0.44958 0.00504 0.0
C1314 C 0.80793 0.48146 0.00664 0.0
C1315 C 0.76613 0.44322 0.00519 0.0
C1316 C 0.7492 0.41468 0.00414 0.0
C1317 C 0.79665 0.49694 0.00661 0.0
C1318 C 0.76969 0.48525 0.00631 0.0
C1319 C 0.75486 0.4586 0.00533 0.0
C1320 C 0.75607 0.4996 0.00793 0.0
C1321 C 0.8137 0.52557 0.00705 0.0
C1322 C 0.75982 0.51288 0.01596 0.0
C1323 C 0.74314 0.52146 0.0185 0.0
C1324 C 0.72211 0.51648 0.01312 0.0
C1325 C 0.71951 0.50487 0.00478 0.0
C1326 C 0.73634 0.4965 0.00221 0.0
H1327 H 0.83255 0.53162 0.00391 0.0
H1328 H 0.80484 0.53561 0.0037 0.0
H1329 H 0.81721 0.53163 0.01411 0.0
H1330 H 0.77452 0.51503 0.02058 0.0
H1331 H 0.74569 0.53032 0.02496 0.0
H1332 H 0.24158 0.76661 0.85229 0.0
H1333 H 0.2873 0.79238 0.84897 0.0
H1334 H 0.2843 0.72874 0.83488 0.0
H1335 H 0.23866 0.70283 0.83815 0.0
H1336 H 0.32449 0.77863 0.85415 0.0
H1337 H 0.32263 0.79014 0.8176 0.0
H1338 H 0.2952 0.7816 0.82461 0.0
H1339 H 0.30343 0.75787 0.82152 0.0
C1340 C 0.25059 0.75815 0.84842 0.0
C1341 C 0.2365 0.73265 0.8455 0.0
C1342 C 0.27668 0.77293 0.84652 0.0
C1343 C 0.28902 0.76257 0.84157 0.0
C1344 C 0.27498 0.73723 0.83856 0.0
H1345 H 0.43865 0.79297 0.82876 0.0
H1346 H 0.39334 0.78002 0.82881 0.0
C1347 C 0.24895 0.7224 0.8405 0.0
C1348 C 0.31698 0.77746 0.84013 0.0
H1349 H 0.3629 0.80059 0.82399 0.0
C1350 C 0.33297 0.78382 0.84758 0.0
C1351 C 0.32783 0.78399 0.83154 0.0
C1352 C 0.31143 0.77827 0.82335 0.0
C1353 C 0.35958 0.79555 0.84664 0.0
C1354 C 0.3705 0.80173 0.83803 0.0
C1355 C 0.3545 0.79597 0.83059 0.0
C1356 C 0.39827 0.81226 0.83664 0.0
C1357 C 0.37561 0.8 0.85487 0.0
C1358 C 0.41621 0.8354 0.84061 0.0
C1359 C 0.44213 0.84276 0.84066 0.0
C1360 C 0.45054 0.82723 0.83664 0.0
C1361 C 0.43281 0.80531 0.83196 0.0
C1362 C 0.40687 0.79785 0.83198 0.0
H1363 H 0.36384 0.78891 0.86066 0.0
H1364 H 0.39049 0.79465 0.85369 0.0
H1365 H 0.38534 0.82057 0.85666 0.0
H1366 H 0.41001 0.84713 0.84404 0.0
H1367 H 0.45537 0.85992 0.84424 0.0
H1368 H 0.18329 0.62406 0.82401 0.0
H1369 H 0.19696 0.59227 0.82461 0.0
H1370 H 0.15074 0.55895 0.84799 0.0
H1371 H 0.13682 0.59052 0.84744 0.0
H1372 H 0.22386 0.59408 0.84034 0.0
H1373 H 0.14298 0.49609 0.83408 0.0
H1374 H 0.14328 0.52446 0.83006 0.0
H1375 H 0.13622 0.51526 0.84152 0.0
C1376 C 0.17529 0.60943 0.8291 0.0
C1377 C 0.15933 0.61012 0.83577 0.0
C1378 C 0.18313 0.59127 0.82942 0.0
C1379 C 0.17489 0.57332 0.83635 0.0
C1380 C 0.15707 0.57243 0.84252 0.0
H1381 H 0.23136 0.48141 0.86094 0.0
H1382 H 0.20609 0.50108 0.85642 0.0
C1383 C 0.14925 0.59062 0.84222 0.0
C1384 C 0.18845 0.55908 0.83809 0.0
H1385 H 0.18048 0.49935 0.84062 0.0
C1386 C 0.21447 0.57337 0.84029 0.0
C1387 C 0.17596 0.5321 0.8382 0.0
C1388 C 0.1481 0.516 0.83578 0.0
C1389 C 0.22832 0.56144 0.84275 0.0
C1390 C 0.21596 0.53442 0.84277 0.0
C1391 C 0.1899 0.52006 0.84056 0.0
C1392 C 0.22997 0.52096 0.84511 0.0
C1393 C 0.25585 0.57793 0.84558 0.0
C1394 C 0.25139 0.52522 0.84014 0.0
C1395 C 0.266 0.51436 0.84276 0.0
C1396 C 0.25923 0.49867 0.85034 0.0
C1397 C 0.23715 0.49356 0.85511 0.0
C1398 C 0.22264 0.50467 0.85252 0.0
H1399 H 0.26014 0.5974 0.84757 0.0
H1400 H 0.26056 0.56919 0.85123 0.0
H1401 H 0.26855 0.57999 0.83992 0.0
H1402 H 0.25703 0.53728 0.83429 0.0
H1403 H 0.28267 0.51836 0.83886 0.0
H1404 H 0.4203 0.54837 0.8598 0.0
H1405 H 0.44621 0.59498 0.85905 0.0
H1406 H 0.39935 0.59578 0.83757 0.0
H1407 H 0.37376 0.54927 0.83811 0.0
H1408 H 0.45056 0.63425 0.83609 0.0
H1409 H 0.41087 0.63175 0.8697 0.0
H1410 H 0.4291 0.61577 0.8688 0.0
H1411 H 0.39944 0.60361 0.86286 0.0
C1412 C 0.41595 0.55838 0.85474 0.0
C1413 C 0.39457 0.54514 0.84916 0.0
C1414 C 0.4307 0.58504 0.85436 0.0
C1415 C 0.42416 0.59881 0.84845 0.0
C1416 C 0.40454 0.5855 0.84225 0.0
H1417 H 0.43381 0.74439 0.85457 0.0
H1418 H 0.42181 0.6994 0.85325 0.0
C1419 C 0.3899 0.55886 0.84258 0.0
C1420 C 0.43539 0.62681 0.84939 0.0
H1421 H 0.43757 0.67221 0.86347 0.0
C1422 C 0.44797 0.64265 0.84209 0.0
C1423 C 0.43147 0.63757 0.85718 0.0
C1424 C 0.4168 0.62134 0.86507 0.0
C1425 C 0.45658 0.66899 0.84236 0.0
C1426 C 0.4528 0.67971 0.85019 0.0
C1427 C 0.44052 0.66391 0.85751 0.0
C1428 C 0.46035 0.70706 0.85083 0.0
C1429 C 0.46876 0.6849 0.83417 0.0
C1430 C 0.48603 0.72625 0.85 0.0
C1431 C 0.49294 0.75198 0.85072 0.0
C1432 C 0.47429 0.75896 0.85237 0.0
C1433 C 0.44863 0.73967 0.85331 0.0
C1434 C 0.44174 0.71396 0.85255 0.0
H1435 H 0.46471 0.67285 0.82813 0.0
H1436 H 0.46189 0.69863 0.83303 0.0
H1437 H 0.4898 0.69601 0.83509 0.0
H1438 H 0.50076 0.72133 0.84887 0.0
H1439 H 0.51291 0.76638 0.85001 0.0
H1440 H 0.37495 0.58488 0.96804 0.0
H1441 H 0.40341 0.63027 0.97117 0.0
H1442 H 0.43306 0.61076 0.9941 0.0
H1443 H 0.4051 0.56537 0.99092 0.0
H1444 H 0.40294 0.65545 0.98606 0.0
H1445 H 0.49827 0.66405 0.98197 0.0
H1446 H 0.46919 0.63672 0.97804 0.0
H1447 H 0.47762 0.63951 0.98961 0.0
C1448 C 0.38774 0.59023 0.97369 0.0
C1449 C 0.38778 0.57152 0.97922 0.0
C1450 C 0.40399 0.61617 0.97547 0.0
C1451 C 0.42059 0.62388 0.9828 0.0
C1452 C 0.42085 0.60525 0.98829 0.0
H1453 H 0.4816 0.77695 0.00479 0.0
H1454 H 0.46385 0.7307 0.00376 0.0
C1455 C 0.40471 0.5793 0.98649 0.0
C1456 C 0.43628 0.65139 0.98502 0.0
H1457 H 0.4976 0.70006 0.98806 0.0
C1458 C 0.42364 0.66521 0.9865 0.0
C1459 C 0.46329 0.66405 0.98554 0.0
C1460 C 0.47796 0.65041 0.98363 0.0
C1461 C 0.43722 0.6914 0.98844 0.0
C1462 C 0.46419 0.704 0.98914 0.0
C1463 C 0.4769 0.69022 0.98766 0.0
C1464 C 0.47942 0.7319 0.9907 0.0
C1465 C 0.42258 0.7055 0.98942 0.0
C1466 C 0.49557 0.74793 0.98398 0.0
C1467 C 0.506 0.77438 0.98459 0.0
C1468 C 0.5003 0.78517 0.99191 0.0
C1469 C 0.48609 0.76922 0.99901 0.0
C1470 C 0.47581 0.74277 0.99842 0.0
H1471 H 0.40285 0.69433 0.98673 0.0
H1472 H 0.42115 0.70911 0.99657 0.0
H1473 H 0.43254 0.72423 0.98595 0.0
H1474 H 0.49876 0.7399 0.978 0.0
H1475 H 0.51705 0.78611 0.97903 0.0
H1476 H 0.21403 0.73055 0.9814 0.0
H1477 H 0.26042 0.75735 0.98169 0.0
H1478 H 0.26325 0.72219 0.00629 0.0
H1479 H 0.21674 0.69467 0.00595 0.0
H1480 H 0.29869 0.79135 0.99294 0.0
H1481 H 0.30135 0.70115 0.98889 0.0
H1482 H 0.27213 0.70221 0.98807 0.0
H1483 H 0.28563 0.70288 0.99878 0.0
C1484 C 0.22438 0.72888 0.987 0.0
C1485 C 0.21173 0.71001 0.99354 0.0
C1486 C 0.25095 0.74427 0.98715 0.0
C1487 C 0.26528 0.74119 0.99387 0.0
C1488 C 0.25253 0.72436 0.00092 0.0
H1489 H 0.43308 0.8309 0.99415 0.0
H1490 H 0.38813 0.8128 0.99828 0.0
C1491 C 0.22593 0.70877 0.00074 0.0
C1492 C 0.29336 0.75336 0.99286 0.0
H1493 H 0.34078 0.73942 0.98903 0.0
C1494 C 0.308 0.78008 0.99217 0.0
C1495 C 0.30529 0.73848 0.99167 0.0
C1496 C 0.29033 0.70959 0.99181 0.0
C1497 C 0.33425 0.79233 0.99021 0.0
C1498 C 0.34617 0.77744 0.98909 0.0
C1499 C 0.33159 0.75077 0.98993 0.0
C1500 C 0.37346 0.78886 0.98659 0.0
C1501 C 0.34872 0.82098 0.989 0.0
C1502 C 0.38014 0.78094 0.97876 0.0
C1503 C 0.40579 0.79097 0.97644 0.0
C1504 C 0.42525 0.80916 0.98191 0.0
C1505 C 0.41852 0.81707 0.98976 0.0
C1506 C 0.39284 0.80687 0.99211 0.0
H1507 H 0.33563 0.82865 0.98789 0.0
H1508 H 0.36001 0.83008 0.99509 0.0
H1509 H 0.36216 0.82658 0.9833 0.0
H1510 H 0.36546 0.76697 0.97443 0.0
H1511 H 0.41034 0.78448 0.97036 0.0
H1512 H 0.1642 0.59709 0.99165 0.0
H1513 H 0.18165 0.57025 0.9965 0.0
H1514 H 0.24383 0.60841 0.97785 0.0
H1515 H 0.22699 0.63586 0.97318 0.0
H1516 H 0.1898 0.53652 0.98788 0.0
H1517 H 0.28219 0.61436 0.00033 0.0
H1518 H 0.25605 0.61942 0.99747 0.0
H1519 H 0.27724 0.61972 0.98897 0.0
C1520 C 0.18164 0.59981 0.98859 0.0
C1521 C 0.19433 0.61872 0.98207 0.0
C1522 C 0.19158 0.58446 0.99138 0.0
C1523 C 0.21434 0.58769 0.98768 0.0
C1524 C 0.22666 0.6061 0.981 0.0
H1525 H 0.27328 0.4882 0.98141 0.0
H1526 H 0.24606 0.50716 0.9818 0.0
C1527 C 0.2169 0.62164 0.97828 0.0
C1528 C 0.22494 0.57144 0.99062 0.0
H1529 H 0.28029 0.57435 0.99725 0.0
C1530 C 0.20948 0.54475 0.99006 0.0
C1531 C 0.25037 0.58212 0.99372 0.0
C1532 C 0.2673 0.61046 0.99526 0.0
C1533 C 0.21925 0.52853 0.99199 0.0
C1534 C 0.24535 0.53935 0.99431 0.0
C1535 C 0.26035 0.56597 0.99538 0.0
C1536 C 0.25827 0.52397 0.99488 0.0
C1537 C 0.2015 0.50001 0.99147 0.0
C1538 C 0.27416 0.52685 0.00213 0.0
C1539 C 0.29024 0.51641 0.00184 0.0
C1540 C 0.29064 0.50284 0.99431 0.0
C1541 C 0.27339 0.49844 0.98734 0.0
C1542 C 0.2576 0.50915 0.98758 0.0
H1543 H 0.18157 0.4949 0.99314 0.0
H1544 H 0.2014 0.49347 0.98457 0.0
H1545 H 0.20753 0.48956 0.99604 0.0
H1546 H 0.27502 0.53822 0.00783 0.0
H1547 H 0.30325 0.52007 0.00733 0.0
H1548 H 0.20279 0.51411 0.49946 0.0
H1549 H 0.24877 0.53164 0.50131 0.0
H1550 H 0.24865 0.48413 0.4799 0.0
H1551 H 0.20261 0.46644 0.47796 0.0
H1552 H 0.2844 0.50976 0.50293 0.0
H1553 H 0.29091 0.56185 0.47156 0.0
H1554 H 0.26215 0.54661 0.47819 0.0
H1555 H 0.27081 0.52762 0.47144 0.0
C1556 C 0.21236 0.50681 0.49531 0.0
C1557 C 0.19913 0.48923 0.48845 0.0
C1558 C 0.23863 0.51682 0.49639 0.0
C1559 C 0.25203 0.50941 0.49065 0.0
C1560 C 0.23855 0.49017 0.48434 0.0
H1561 H 0.41796 0.57537 0.48777 0.0
H1562 H 0.37196 0.54505 0.48868 0.0
C1563 C 0.21224 0.48007 0.48326 0.0
C1564 C 0.28023 0.5245 0.4904 0.0
H1565 H 0.3295 0.57102 0.47839 0.0
C1566 C 0.29436 0.52297 0.49754 0.0
C1567 C 0.29299 0.54195 0.4834 0.0
C1568 C 0.27855 0.54487 0.47572 0.0
C1569 C 0.3211 0.53862 0.49785 0.0
C1570 C 0.33376 0.55613 0.49087 0.0
C1571 C 0.31963 0.55748 0.48371 0.0
C1572 C 0.36161 0.57407 0.49097 0.0
C1573 C 0.33562 0.53694 0.50573 0.0
C1574 C 0.37087 0.60036 0.49192 0.0
C1575 C 0.39707 0.61772 0.49141 0.0
C1576 C 0.41443 0.60907 0.48984 0.0
C1577 C 0.40507 0.58264 0.48897 0.0
C1578 C 0.37884 0.56528 0.48954 0.0
H1579 H 0.32266 0.52487 0.51113 0.0
H1580 H 0.34746 0.52858 0.50358 0.0
H1581 H 0.34874 0.55634 0.5084 0.0
H1582 H 0.35776 0.60745 0.49296 0.0
H1583 H 0.40363 0.63792 0.49209 0.0
H1584 H 0.49312 0.70398 0.50076 0.0
H1585 H 0.47859 0.73509 0.5018 0.0
H1586 H 0.52304 0.77406 0.47864 0.0
H1587 H 0.53782 0.74313 0.47752 0.0
H1588 H 0.50955 0.79915 0.49917 0.0
H1589 H 0.43798 0.73351 0.47439 0.0
H1590 H 0.45241 0.72208 0.48231 0.0
H1591 H 0.47103 0.742 0.47327 0.0
C1592 C 0.50051 0.71964 0.49605 0.0
C1593 C 0.51629 0.72082 0.48896 0.0
C1594 C 0.49223 0.73742 0.49668 0.0
C1595 C 0.49965 0.75664 0.49026 0.0
C1596 C 0.51722 0.75932 0.48366 0.0
H1597 H 0.41573 0.83102 0.47338 0.0
H1598 H 0.44562 0.81498 0.47432 0.0
C1599 C 0.5256 0.74159 0.48304 0.0
C1600 C 0.48574 0.77082 0.48956 0.0
H1601 H 0.43414 0.76817 0.47932 0.0
C1602 C 0.49314 0.79258 0.49481 0.0
C1603 C 0.46444 0.76208 0.48384 0.0
C1604 C 0.45578 0.73861 0.47812 0.0
C1605 C 0.47962 0.80592 0.49448 0.0
C1606 C 0.45789 0.7968 0.4889 0.0
C1607 C 0.4508 0.77517 0.48358 0.0
C1608 C 0.4417 0.80883 0.48855 0.0
C1609 C 0.48892 0.82979 0.50001 0.0
C1610 C 0.42956 0.81071 0.49624 0.0
C1611 C 0.41257 0.82004 0.49573 0.0
C1612 C 0.40711 0.82724 0.48749 0.0
C1613 C 0.41943 0.82551 0.47981 0.0
C1614 C 0.43658 0.81642 0.48034 0.0
H1615 H 0.50955 0.83844 0.50165 0.0
H1616 H 0.48592 0.84428 0.49652 0.0
H1617 H 0.47811 0.82482 0.50636 0.0
H1618 H 0.43265 0.8043 0.5026 0.0
H1619 H 0.40328 0.82102 0.50175 0.0
H1620 H 0.25473 0.79453 0.47528 0.0
H1621 H 0.22283 0.74974 0.47789 0.0
H1622 H 0.26848 0.74651 0.49934 0.0
H1623 H 0.3005 0.79125 0.49679 0.0
H1624 H 0.24016 0.71378 0.47589 0.0
H1625 H 0.19384 0.70392 0.50867 0.0
H1626 H 0.20872 0.7335 0.50245 0.0
H1627 H 0.22805 0.72397 0.50861 0.0
C1628 C 0.25763 0.78457 0.48074 0.0
C1629 C 0.28033 0.79636 0.48575 0.0
C1630 C 0.23935 0.75897 0.48222 0.0
C1631 C 0.24329 0.74488 0.48882 0.0
C1632 C 0.26491 0.75716 0.4943 0.0
H1633 H 0.19355 0.58878 0.50174 0.0
H1634 H 0.21085 0.63506 0.50148 0.0
C1635 C 0.28328 0.78271 0.49279 0.0
C1636 C 0.2274 0.7167 0.48897 0.0
H1637 H 0.18958 0.66578 0.50225 0.0
C1638 C 0.22874 0.70323 0.48159 0.0
C1639 C 0.21292 0.70314 0.49647 0.0
C1640 C 0.21055 0.71682 0.50449 0.0
C1641 C 0.21675 0.67649 0.48162 0.0
C1642 C 0.20234 0.66282 0.48915 0.0
C1643 C 0.20055 0.6763 0.49648 0.0
C1644 C 0.19011 0.63461 0.48968 0.0
C1645 C 0.22071 0.6633 0.47375 0.0
C1646 C 0.17225 0.61896 0.48326 0.0
C1647 C 0.16267 0.59259 0.4833 0.0
C1648 C 0.17038 0.58134 0.48989 0.0
C1649 C 0.18733 0.5969 0.49656 0.0
C1650 C 0.19716 0.62333 0.49644 0.0
H1651 H 0.23751 0.67672 0.4697 0.0
H1652 H 0.2235 0.6473 0.47593 0.0
H1653 H 0.2036 0.6554 0.4694 0.0
H1654 H 0.16605 0.6272 0.47812 0.0
H1655 H 0.14933 0.58104 0.47815 0.0
H1656 H 0.30636 0.74271 0.33983 0.0
H1657 H 0.27573 0.69686 0.33923 0.0
H1658 H 0.21401 0.71133 0.34468 0.0
H1659 H 0.24451 0.75733 0.34532 0.0
H1660 H 0.24149 0.66984 0.3545 0.0
H1661 H 0.19051 0.66021 0.32261 0.0
H1662 H 0.22243 0.6864 0.32472 0.0
H1663 H 0.19553 0.68574 0.33003 0.0
C1664 C 0.28625 0.73622 0.34081 0.0
C1665 C 0.27788 0.75366 0.34266 0.0
C1666 C 0.2688 0.71003 0.34045 0.0
C1667 C 0.24267 0.70084 0.34184 0.0
C1668 C 0.2341 0.71816 0.34348 0.0
H1669 H 0.13623 0.54351 0.35701 0.0
H1670 H 0.15401 0.58935 0.35454 0.0
C1671 C 0.25157 0.74439 0.34389 0.0
C1672 C 0.22481 0.67301 0.34228 0.0
H1673 H 0.17665 0.62265 0.33113 0.0
C1674 C 0.22719 0.65951 0.34943 0.0
C1675 C 0.20628 0.65977 0.33563 0.0
C1676 C 0.20345 0.67362 0.32776 0.0
C1677 C 0.21168 0.63293 0.35008 0.0
C1678 C 0.19321 0.61958 0.34341 0.0
C1679 C 0.19066 0.63308 0.33627 0.0
C1680 C 0.17797 0.59139 0.34353 0.0
C1681 C 0.21566 0.61916 0.35775 0.0
C1682 C 0.18464 0.57729 0.33784 0.0
C1683 C 0.17461 0.55113 0.33923 0.0
C1684 C 0.15773 0.53872 0.34634 0.0
C1685 C 0.1493 0.5525 0.35151 0.0
C1686 C 0.15944 0.5787 0.35012 0.0
H1687 H 0.23316 0.63188 0.36162 0.0
H1688 H 0.19898 0.61176 0.3623 0.0
H1689 H 0.2171 0.60258 0.3553 0.0
H1690 H 0.19893 0.58682 0.33271 0.0
H1691 H 0.18133 0.54102 0.33509 0.0
H1692 H 0.24794 0.48701 0.35668 0.0
H1693 H 0.29394 0.5028 0.35663 0.0
H1694 H 0.30221 0.54666 0.33297 0.0
H1695 H 0.25608 0.5303 0.33281 0.0
H1696 H 0.33192 0.52415 0.33236 0.0
H1697 H 0.34496 0.5744 0.36454 0.0
H1698 H 0.32299 0.54064 0.36508 0.0
H1699 H 0.3154 0.56066 0.3584 0.0
C1700 C 0.25954 0.49995 0.35145 0.0
C1701 C 0.24845 0.50767 0.34481 0.0
C1702 C 0.28583 0.509 0.35144 0.0
C1703 C 0.30156 0.52632 0.3449 0.0
C1704 C 0.29042 0.53339 0.3381 0.0
H1705 H 0.459 0.63304 0.33695 0.0
H1706 H 0.41392 0.60175 0.33464 0.0
C1707 C 0.26407 0.52409 0.33804 0.0
C1708 C 0.32972 0.53798 0.34535 0.0
H1709 H 0.38139 0.57566 0.35836 0.0
C1710 C 0.34276 0.53532 0.33805 0.0
C1711 C 0.34382 0.55265 0.35278 0.0
C1712 C 0.33115 0.55751 0.36061 0.0
C1713 C 0.36956 0.54707 0.33798 0.0
C1714 C 0.38355 0.56183 0.34538 0.0
C1715 C 0.37051 0.56404 0.35274 0.0
C1716 C 0.4118 0.5771 0.34544 0.0
C1717 C 0.38273 0.54374 0.33 0.0
C1718 C 0.42571 0.57321 0.35212 0.0
C1719 C 0.45152 0.59108 0.35346 0.0
C1720 C 0.4637 0.61333 0.34823 0.0
C1721 C 0.45018 0.61616 0.34112 0.0
C1722 C 0.42441 0.5982 0.33975 0.0
H1723 H 0.36944 0.52683 0.32597 0.0
H1724 H 0.39006 0.56094 0.32571 0.0
H1725 H 0.39925 0.54165 0.33206 0.0
H1726 H 0.41622 0.55708 0.3566 0.0
H1727 H 0.46136 0.58829 0.35898 0.0
H1728 H 0.41215 0.87504 0.35706 0.0
H1729 H 0.44219 0.85911 0.35664 0.0
H1730 H 0.40421 0.81425 0.3334 0.0
H1731 H 0.37434 0.83025 0.33369 0.0
H1732 H 0.42228 0.80758 0.35906 0.0
H1733 H 0.47899 0.83799 0.32799 0.0
H1734 H 0.46321 0.85432 0.33243 0.0
H1735 H 0.44546 0.82542 0.32607 0.0
C1736 C 0.41074 0.86252 0.35166 0.0
C1737 C 0.39058 0.8536 0.34549 0.0
C1738 C 0.42793 0.85341 0.35144 0.0
C1739 C 0.42544 0.83551 0.34499 0.0
C1740 C 0.40677 0.82836 0.33836 0.0
H1741 H 0.43825 0.70213 0.3474 0.0
H1742 H 0.42645 0.73531 0.34615 0.0
C1743 C 0.38956 0.83742 0.33857 0.0
C1744 C 0.43895 0.8209 0.3461 0.0
H1745 H 0.47434 0.79989 0.33502 0.0
C1746 C 0.43409 0.80631 0.35387 0.0
C1747 C 0.4543 0.81923 0.33933 0.0
C1748 C 0.46102 0.83528 0.33102 0.0
C1749 C 0.44315 0.78917 0.35487 0.0
C1750 C 0.45726 0.78645 0.3479 0.0
C1751 C 0.46324 0.80189 0.34031 0.0
C1752 C 0.46483 0.76673 0.34828 0.0
C1753 C 0.43703 0.77354 0.36328 0.0
C1754 C 0.49035 0.77359 0.34981 0.0
C1755 C 0.49714 0.75469 0.3506 0.0
C1756 C 0.47851 0.72866 0.34978 0.0
C1757 C 0.45303 0.72197 0.34808 0.0
C1758 C 0.44625 0.74086 0.34736 0.0
H1759 H 0.43029 0.78132 0.36867 0.0
H1760 H 0.42173 0.75364 0.36188 0.0
H1761 H 0.45409 0.77287 0.36565 0.0
H1762 H 0.5049 0.7935 0.35054 0.0
H1763 H 0.51697 0.76047 0.35186 0.0
H1764 H 0.13685 0.13423 0.28399 0.0
H1765 H 0.14372 0.14203 0.26802 0.0
H1766 H 0.20376 0.21932 0.27313 0.0
H1767 H 0.19723 0.21165 0.28915 0.0
H1768 H 0.13959 0.18011 0.25833 0.0
H1769 H 0.23666 0.19145 0.2556 0.0
H1770 H 0.21633 0.17695 0.26515 0.0
H1771 H 0.23294 0.21104 0.26379 0.0
C1772 C 0.15166 0.15284 0.28173 0.0
C1773 C 0.16653 0.17231 0.28784 0.0
C1774 C 0.15552 0.15726 0.27261 0.0
C1775 C 0.17438 0.18116 0.26942 0.0
C1776 C 0.18939 0.20062 0.27547 0.0
H1777 H 0.21622 0.23054 0.21415 0.0
H1778 H 0.2134 0.23056 0.23042 0.0
C1779 C 0.18555 0.19622 0.28462 0.0
C1780 C 0.17757 0.18579 0.25973 0.0
H1781 H 0.21871 0.19727 0.24249 0.0
C1782 C 0.15691 0.18396 0.25486 0.0
C1783 C 0.20029 0.191 0.25526 0.0
C1784 C 0.22281 0.19257 0.26018 0.0
C1785 C 0.15821 0.18686 0.2456 0.0
C1786 C 0.18061 0.19127 0.2411 0.0
C1787 C 0.20157 0.19386 0.24598 0.0
C1788 C 0.18203 0.19164 0.23128 0.0
C1789 C 0.13559 0.18514 0.24071 0.0
C1790 C 0.16549 0.16966 0.22644 0.0
C1791 C 0.16704 0.16955 0.21719 0.0
C1792 C 0.18528 0.19142 0.21261 0.0
C1793 C 0.20191 0.21343 0.21748 0.0
C1794 C 0.20036 0.21348 0.22676 0.0
H1795 H 0.12333 0.1891 0.24518 0.0
H1796 H 0.14189 0.19877 0.23505 0.0
H1797 H 0.12375 0.16551 0.23802 0.0
H1798 H 0.15156 0.15244 0.22982 0.0
H1799 H 0.15403 0.15224 0.21364 0.0
H1800 H 0.84439 0.99046 0.21832 0.0
H1801 H 0.83855 0.99276 0.23428 0.0
H1802 H 0.78152 0.01425 0.22927 0.0
H1803 H 0.78722 0.01203 0.21319 0.0
H1804 H 0.84462 0.0395 0.24334 0.0
H1805 H 0.74885 0.95243 0.2476 0.0
H1806 H 0.76933 0.95612 0.23828 0.0
H1807 H 0.75322 0.97424 0.23871 0.0
C1808 C 0.83045 0.9955 0.22058 0.0
C1809 C 0.81628 0.00109 0.21448 0.0
C1810 C 0.82718 0.99683 0.2297 0.0
C1811 C 0.80956 0.00356 0.23291 0.0
C1812 C 0.79506 0.0088 0.22688 0.0
H1813 H 0.77496 0.00825 0.28939 0.0
H1814 H 0.77437 0.01141 0.27315 0.0
C1815 C 0.79839 0.00758 0.21772 0.0
C1816 C 0.80729 0.00593 0.24259 0.0
H1817 H 0.76966 0.9754 0.26051 0.0
C1818 C 0.82814 0.02566 0.2471 0.0
C1819 C 0.78566 0.98797 0.24742 0.0
C1820 C 0.76294 0.96636 0.24281 0.0
C1821 C 0.82824 0.02751 0.25639 0.0
C1822 C 0.80717 0.00877 0.26128 0.0
C1823 C 0.78583 0.98966 0.25674 0.0
C1824 C 0.80776 0.0076 0.27109 0.0
C1825 C 0.85102 0.04939 0.26089 0.0
C1826 C 0.82655 0.00411 0.27528 0.0
C1827 C 0.82698 0.00235 0.28451 0.0
C1828 C 0.80847 0.00381 0.28975 0.0
C1829 C 0.78954 0.00715 0.28554 0.0
C1830 C 0.78915 0.00894 0.27628 0.0
H1831 H 0.86124 0.06597 0.25633 0.0
H1832 H 0.8452 0.05578 0.26693 0.0
H1833 H 0.86465 0.04305 0.2629 0.0
H1834 H 0.84073 0.00243 0.27139 0.0
H1835 H 0.84171 -0.00041 0.28753 0.0
H1836 H 0.94417 0.79893 0.28586 0.0
H1837 H 0.94464 0.79577 0.26966 0.0
H1838 H 0.01197 0.78838 0.27121 0.0
H1839 H 0.01145 0.7911 0.28739 0.0
H1840 H 0.9842 0.82989 0.25893 0.0
H1841 H 0.96699 0.73148 0.2539 0.0
H1842 H 0.96051 0.74203 0.26432 0.0
H1843 H 0.99267 0.75039 0.26143 0.0
C1844 C 0.95884 0.79621 0.28277 0.0
C1845 C 0.97779 0.7953 0.28792 0.0
C1846 C 0.95909 0.79443 0.27351 0.0
C1847 C 0.97817 0.79157 0.26925 0.0
C1848 C 0.99676 0.79005 0.27437 0.0
H1849 H 0.02641 0.8007 0.21432 0.0
H1850 H 0.02245 0.7972 0.23055 0.0
C1851 C 0.99651 0.79177 0.28363 0.0
C1852 C 0.97987 0.79229 0.25943 0.0
H1853 H 0.98076 0.75888 0.24124 0.0
C1854 C 0.98324 0.81429 0.25505 0.0
C1855 C 0.97883 0.77197 0.25441 0.0
C1856 C 0.97432 0.74753 0.25873 0.0
C1857 C 0.98595 0.81669 0.24579 0.0
C1858 C 0.9849 0.79639 0.24078 0.0
C1859 C 0.98159 0.7744 0.24513 0.0
C1860 C 0.98685 0.7976 0.23098 0.0
C1861 C 0.99043 0.84113 0.24146 0.0
C1862 C 0.96792 0.79856 0.22588 0.0
C1863 C 0.97011 0.80057 0.21665 0.0
C1864 C 0.99126 0.80157 0.21233 0.0
C1865 C 0.00996 0.80009 0.21745 0.0
C1866 C 0.00771 0.79803 0.22671 0.0
H1867 H 0.99678 0.85697 0.24635 0.0
H1868 H 0.00502 0.84713 0.23612 0.0
H1869 H 0.97233 0.83792 0.23841 0.0
H1870 H 0.95148 0.79785 0.22907 0.0
H1871 H 0.95527 0.8015 0.2129 0.0
H1872 H 0.83197 0.7652 0.71254 0.0
H1873 H 0.82363 0.76564 0.72845 0.0
H1874 H 0.78917 0.81202 0.72334 0.0
H1875 H 0.79697 0.81132 0.70746 0.0
H1876 H 0.84311 0.80815 0.73893 0.0
H1877 H 0.73732 0.75807 0.73991 0.0
H1878 H 0.75481 0.75683 0.73036 0.0
H1879 H 0.75062 0.784 0.7321 0.0
C1880 C 0.82228 0.77518 0.71479 0.0
C1881 C 0.81513 0.78822 0.70874 0.0
C1882 C 0.81753 0.7754 0.72388 0.0
C1883 C 0.80544 0.78853 0.72706 0.0
C1884 C 0.79795 0.80123 0.72101 0.0
H1885 H 0.78483 0.84543 0.77668 0.0
H1886 H 0.78564 0.83335 0.76121 0.0
C1887 C 0.80261 0.80097 0.71194 0.0
C1888 C 0.80256 0.79082 0.73674 0.0
H1889 H 0.75918 0.78279 0.7528 0.0
C1890 C 0.82473 0.80226 0.742 0.0
C1891 C 0.77854 0.78317 0.7407 0.0
C1892 C 0.75394 0.7696 0.73549 0.0
C1893 C 0.82365 0.80715 0.75105 0.0
C1894 C 0.79973 0.80013 0.75495 0.0
C1895 C 0.77748 0.78819 0.74976 0.0
C1896 C 0.79765 0.806 0.76435 0.0
C1897 C 0.84819 0.82063 0.75631 0.0
C1898 C 0.80365 0.79419 0.77122 0.0
C1899 C 0.8032 0.80102 0.78006 0.0
C1900 C 0.79672 0.81978 0.78218 0.0
C1901 C 0.79001 0.83101 0.77528 0.0
C1902 C 0.7904 0.82411 0.76644 0.0
H1903 H 0.86533 0.82903 0.75195 0.0
H1904 H 0.84866 0.8361 0.76045 0.0
H1905 H 0.84934 0.80674 0.76084 0.0
H1906 H 0.80898 0.77993 0.76972 0.0
H1907 H 0.80836 0.79193 0.78522 0.0
H1908 H 0.14768 0.93276 0.7861 0.0
H1909 H 0.15224 0.94186 0.77018 0.0
H1910 H 0.20941 0.02018 0.77551 0.0
H1911 H 0.20462 0.0114 0.79148 0.0
H1912 H 0.17225 0.01648 0.76447 0.0
H1913 H 0.20779 0.95311 0.75256 0.0
H1914 H 0.17912 0.93644 0.75905 0.0
H1915 H 0.208 0.9609 0.76417 0.0
C1916 C 0.1615 0.95185 0.78389 0.0
C1917 C 0.17576 0.97137 0.79006 0.0
C1918 C 0.1642 0.95696 0.77478 0.0
C1919 C 0.18142 0.9816 0.77166 0.0
C1920 C 0.19611 0.001 0.77779 0.0
H1921 H 0.21392 0.02076 0.71541 0.0
H1922 H 0.21757 0.01361 0.73124 0.0
C1923 C 0.19335 0.99594 0.78691 0.0
C1924 C 0.18255 0.98761 0.76207 0.0
H1925 H 0.19121 0.96941 0.74146 0.0
C1926 C 0.17665 0.00637 0.75945 0.0
C1927 C 0.18858 0.97461 0.75553 0.0
C1928 C 0.19649 0.95532 0.75796 0.0
C1929 C 0.17583 0.01193 0.75045 0.0
C1930 C 0.18054 0.99798 0.74389 0.0
C1931 C 0.18728 0.97983 0.74651 0.0
C1932 C 0.17818 0.00176 0.7343 0.0
C1933 C 0.17003 0.03276 0.74804 0.0
C1934 C 0.15469 0.99699 0.73077 0.0
C1935 C 0.15255 0.00113 0.72176 0.0
C1936 C 0.17383 0.0099 0.71609 0.0
C1937 C 0.1972 0.01408 0.71961 0.0
C1938 C 0.19933 0.00999 0.72864 0.0
H1939 H 0.17407 0.0462 0.75366 0.0
H1940 H 0.18137 0.0438 0.74218 0.0
H1941 H 0.14944 0.02399 0.74636 0.0
H1942 H 0.138 0.99009 0.73499 0.0
H1943 H 0.13423 0.9975 0.71925 0.0
H1944 H 0.01835 0.14525 0.71515 0.0
H1945 H 0.02589 0.1526 0.73113 0.0
H1946 H 0.99678 0.20482 0.73048 0.0
H1947 H 0.98928 0.19774 0.71447 0.0
H1948 H 0.04321 0.22228 0.74046 0.0
H1949 H 0.96747 0.12423 0.74981 0.0
H1950 H 0.99025 0.12556 0.74182 0.0
H1951 H 0.96933 0.13754 0.7389 0.0
C1952 C 0.0136 0.15835 0.71839 0.0
C1953 C 0.00303 0.17076 0.71356 0.0
C1954 C 0.01784 0.16245 0.72752 0.0
C1955 C 0.01154 0.17896 0.73197 0.0
C1956 C 0.00164 0.19191 0.72715 0.0
H1957 H 0.99378 0.18421 0.789 0.0
H1958 H 0.98812 0.18242 0.77287 0.0
C1959 C 0.99733 0.1878 0.71801 0.0
C1960 C 0.01495 0.18241 0.7417 0.0
H1961 H 0.99466 0.15034 0.76137 0.0
C1962 C 0.03258 0.20662 0.74506 0.0
C1963 C 0.00075 0.16198 0.74764 0.0
C1964 C 0.98071 0.13589 0.74439 0.0
C1965 C 0.03677 0.21081 0.75424 0.0
C1966 C 0.02316 0.19015 0.76016 0.0
C1967 C 0.00518 0.16608 0.7568 0.0
C1968 C 0.02723 0.19295 0.76988 0.0
C1969 C 0.05547 0.23733 0.75752 0.0
C1970 C 0.05111 0.19947 0.77353 0.0
C1971 C 0.05444 0.20056 0.78274 0.0
C1972 C 0.03386 0.19494 0.78846 0.0
C1973 C 0.01002 0.18865 0.78478 0.0
C1974 C 0.00674 0.18761 0.77557 0.0
H1975 H 0.05912 0.25211 0.75243 0.0
H1976 H 0.04837 0.24187 0.76368 0.0
H1977 H 0.07395 0.23841 0.75907 0.0
H1978 H 0.06703 0.20315 0.76925 0.0
H1979 H 0.07301 0.20535 0.78537 0.0
H1980 H 0.86736 0.52982 0.54657 0.0
H1981 H 0.87052 0.53219 0.5628 0.0
H1982 H 0.78872 0.48395 0.56486 0.0
H1983 H 0.78528 0.48161 0.54865 0.0
H1984 H 0.81036 0.52777 0.57627 0.0
H1985 H 0.86029 0.47164 0.57868 0.0
H1986 H 0.87472 0.49878 0.57135 0.0
H1987 H 0.84378 0.47218 0.56875 0.0
C1988 C 0.85001 0.5198 0.55047 0.0
C1989 C 0.82606 0.50539 0.54632 0.0
C1990 C 0.85189 0.52109 0.55974 0.0
C1991 C 0.82989 0.50796 0.565 0.0
C1992 C 0.80592 0.49413 0.56089 0.0
H1993 H 0.81044 0.46231 0.61985 0.0
H1994 H 0.8112 0.46533 0.60364 0.0
C1995 C 0.80401 0.49278 0.55163 0.0
C1996 C 0.8318 0.50829 0.5748 0.0
H1997 H 0.85431 0.48847 0.59206 0.0
C1998 C 0.82004 0.51928 0.57974 0.0
C1999 C 0.84423 0.49695 0.57927 0.0
C2000 C 0.85632 0.48401 0.57427 0.0
C2001 C 0.82039 0.51924 0.58907 0.0
C2002 C 0.83305 0.50813 0.59353 0.0
C2003 C 0.84481 0.49715 0.58859 0.0
C2004 C 0.83327 0.50664 0.60334 0.0
C2005 C 0.80663 0.53044 0.59408 0.0
C2006 C 0.84578 0.5289 0.60851 0.0
C2007 C 0.84541 0.52727 0.61779 0.0
C2008 C 0.83255 0.50331 0.62203 0.0
C2009 C 0.82043 0.48105 0.6168 0.0
C2010 C 0.82087 0.48272 0.60754 0.0
H2011 H 0.79351 0.53342 0.58971 0.0
H2012 H 0.79543 0.51782 0.59968 0.0
H2013 H 0.82089 0.54924 0.59689 0.0
H2014 H 0.8558 0.54752 0.60537 0.0
H2015 H 0.85501 0.54476 0.62163 0.0
H2016 H 0.51447 0.30687 0.54651 0.0
H2017 H 0.51378 0.30814 0.56274 0.0
H2018 H 0.47051 0.34722 0.56165 0.0
H2019 H 0.47123 0.34623 0.54539 0.0
H2020 H 0.51363 0.37024 0.57301 0.0
H2021 H 0.4528 0.26627 0.57958 0.0
H2022 H 0.47942 0.27445 0.57231 0.0
H2023 H 0.45434 0.28029 0.56883 0.0
C2024 C 0.50464 0.31557 0.54971 0.0
C2025 C 0.49287 0.32641 0.54466 0.0
C2026 C 0.50416 0.31616 0.55899 0.0
C2027 C 0.49184 0.3275 0.56337 0.0
C2028 C 0.48001 0.33827 0.55837 0.0
H2029 H 0.46081 0.31887 0.62012 0.0
H2030 H 0.45741 0.31748 0.6039 0.0
C2031 C 0.48041 0.33764 0.54909 0.0
C2032 C 0.49225 0.32908 0.57319 0.0
H2033 H 0.47423 0.29272 0.59202 0.0
C2034 C 0.5049 0.35332 0.57718 0.0
C2035 C 0.48061 0.30696 0.57858 0.0
C2036 C 0.46581 0.2805 0.57463 0.0
C2037 C 0.50674 0.35602 0.58646 0.0
C2038 C 0.49591 0.33387 0.59184 0.0
C2039 C 0.48271 0.30965 0.58786 0.0
C2040 C 0.49816 0.33541 0.60164 0.0
C2041 C 0.5201 0.38252 0.59042 0.0
C2042 C 0.52221 0.34581 0.60572 0.0
C2043 C 0.52425 0.34664 0.61498 0.0
C2044 C 0.50223 0.33697 0.62032 0.0
C2045 C 0.47815 0.32655 0.6162 0.0
C2046 C 0.47615 0.3257 0.60694 0.0
H2047 H 0.52159 0.39711 0.58558 0.0
H2048 H 0.50989 0.38341 0.59643 0.0
H2049 H 0.53976 0.38756 0.59242 0.0
H2050 H 0.53939 0.353 0.60173 0.0
H2051 H 0.54306 0.35468 0.61794 0.0
H2052 H 0.68441 0.11723 0.5461 0.0
H2053 H 0.68275 0.11672 0.56239 0.0
H2054 H 0.64893 0.16491 0.56182 0.0
H2055 H 0.65022 0.16533 0.54562 0.0
H2056 H 0.70516 0.15836 0.57429 0.0
H2057 H 0.59957 0.1049 0.57752 0.0
H2058 H 0.61571 0.10598 0.56728 0.0
H2059 H 0.61122 0.13226 0.57036 0.0
C2060 C 0.67657 0.12766 0.54945 0.0
C2061 C 0.66729 0.14118 0.54456 0.0
C2062 C 0.67563 0.12734 0.55874 0.0
C2063 C 0.66527 0.14037 0.56328 0.0
C2064 C 0.65645 0.15423 0.55843 0.0
H2065 H 0.64747 0.18007 0.61635 0.0
H2066 H 0.64819 0.17358 0.60032 0.0
C2067 C 0.65736 0.15457 0.54916 0.0
C2068 C 0.66422 0.14018 0.5731 0.0
H2069 H 0.62323 0.12629 0.59056 0.0
C2070 C 0.68726 0.15106 0.57787 0.0
C2071 C 0.6408 0.1306 0.57773 0.0
C2072 C 0.6154 0.11755 0.57297 0.0
C2073 C 0.68757 0.15359 0.58715 0.0
C2074 C 0.66418 0.14468 0.59174 0.0
C2075 C 0.64112 0.13321 0.587 0.0
C2076 C 0.66332 0.14794 0.60145 0.0
C2077 C 0.71292 0.16663 0.59194 0.0
C2078 C 0.67122 0.13531 0.60737 0.0
C2079 C 0.67081 0.13894 0.61653 0.0
C2080 C 0.66243 0.15523 0.61991 0.0
C2081 C 0.6541 0.16747 0.61396 0.0
C2082 C 0.65447 0.16378 0.60481 0.0
H2083 H 0.72923 0.17688 0.58728 0.0
H2084 H 0.71343 0.18049 0.59691 0.0
H2085 H 0.71554 0.15207 0.59554 0.0
H2086 H 0.67772 0.12268 0.60489 0.0
H2087 H 0.67728 0.12916 0.62094 0.0
H2088 H 0.53704 0.19789 0.04828 0.0
H2089 H 0.53131 0.19566 0.06439 0.0
H2090 H 0.46148 0.12333 0.06172 0.0
H2091 H 0.46728 0.12514 0.04557 0.0
H2092 H 0.49136 0.19246 0.07446 0.0
H2093 H 0.50243 0.10733 0.07966 0.0
H2094 H 0.51096 0.12499 0.06935 0.0
H2095 H 0.47799 0.10297 0.07188 0.0
C2096 C 0.52043 0.18149 0.0511 0.0
C2097 C 0.5027 0.1616 0.04565 0.0
C2098 C 0.51719 0.18027 0.06031 0.0
C2099 C 0.49621 0.15914 0.06424 0.0
C2100 C 0.4781 0.13953 0.05882 0.0
H2101 H 0.45593 0.12901 0.12055 0.0
H2102 H 0.45519 0.12618 0.10429 0.0
C2103 C 0.48136 0.14069 0.04959 0.0
C2104 C 0.49344 0.15791 0.07403 0.0
H2105 H 0.49315 0.12433 0.09234 0.0
C2106 C 0.49167 0.17753 0.07837 0.0
C2107 C 0.49381 0.13835 0.0791 0.0
C2108 C 0.49661 0.1173 0.07479 0.0
C2109 C 0.49049 0.17826 0.08766 0.0
C2110 C 0.49138 0.15902 0.09272 0.0
C2111 C 0.4925 0.13903 0.0884 0.0
C2112 C 0.49224 0.16 0.10253 0.0
C2113 C 0.48833 0.19962 0.09201 0.0
C2114 C 0.51359 0.1796 0.10688 0.0
C2115 C 0.51415 0.18122 0.11613 0.0
C2116 C 0.49333 0.16325 0.12121 0.0
C2117 C 0.47223 0.1432 0.11683 0.0
C2118 C 0.47175 0.14154 0.10755 0.0
H2119 H 0.48189 0.20928 0.08724 0.0
H2120 H 0.47477 0.19232 0.09769 0.0
H2121 H 0.50735 0.21409 0.09462 0.0
H2122 H 0.52973 0.19379 0.10309 0.0
H2123 H 0.53073 0.19684 0.11929 0.0
H2124 H 0.78898 0.33808 0.04862 0.0
H2125 H 0.78843 0.33581 0.06485 0.0
H2126 H 0.86201 0.34034 0.06457 0.0
H2127 H 0.86299 0.34315 0.04834 0.0
H2128 H 0.79044 0.30043 0.07581 0.0
H2129 H 0.87365 0.39716 0.08181 0.0
H2130 H 0.8581 0.3874 0.07113 0.0
H2131 H 0.88037 0.37756 0.0746 0.0
C2132 C 0.80507 0.33862 0.05201 0.0
C2133 C 0.82611 0.34097 0.0472 0.0
C2134 C 0.80472 0.33732 0.06128 0.0
C2135 C 0.82538 0.33839 0.06591 0.0
C2136 C 0.84615 0.34013 0.06113 0.0
H2137 H 0.85317 0.32479 0.1216 0.0
H2138 H 0.85561 0.32923 0.1054 0.0
C2139 C 0.84659 0.34154 0.05185 0.0
C2140 C 0.8249 0.33719 0.07574 0.0
H2141 H 0.85671 0.36992 0.09438 0.0
C2142 C 0.80486 0.31566 0.07988 0.0
C2143 C 0.84375 0.35713 0.081 0.0
C2144 C 0.86506 0.38123 0.07693 0.0
C2145 C 0.80334 0.31337 0.08916 0.0
C2146 C 0.82221 0.33326 0.09442 0.0
C2147 C 0.8423 0.35474 0.0903 0.0
C2148 C 0.82138 0.33196 0.10422 0.0
C2149 C 0.78181 0.28952 0.09329 0.0
C2150 C 0.80163 0.33265 0.10889 0.0
C2151 C 0.8002 0.33021 0.11813 0.0
C2152 C 0.81852 0.32703 0.12285 0.0
C2153 C 0.8387 0.3271 0.11816 0.0
C2154 C 0.84016 0.32964 0.10891 0.0
H2155 H 0.77206 0.27387 0.08835 0.0
H2156 H 0.78902 0.28264 0.09881 0.0
H2157 H 0.76745 0.29395 0.09608 0.0
H2158 H 0.78718 0.3348 0.10536 0.0
H2159 H 0.78448 0.33035 0.12155 0.0
H2160 H 0.64793 0.5071 0.12319 0.0
H2161 H 0.63961 0.50548 0.10723 0.0
H2162 H 0.72073 0.54728 0.10208 0.0
H2163 H 0.72927 0.54852 0.11802 0.0
H2164 H 0.6531 0.54366 0.09479 0.0
H2165 H 0.69672 0.4841 0.08665 0.0
H2166 H 0.68976 0.48898 0.09791 0.0
H2167 H 0.71782 0.51328 0.09236 0.0
C2168 C 0.66402 0.516 0.11867 0.0
C2169 C 0.68928 0.52773 0.12186 0.0
C2170 C 0.65922 0.51507 0.10955 0.0
C2171 C 0.67955 0.52585 0.10347 0.0
C2172 C 0.70477 0.53832 0.10665 0.0
H2173 H 0.68433 0.53092 0.04569 0.0
H2174 H 0.69476 0.53923 0.0615 0.0
C2175 C 0.70961 0.53911 0.11576 0.0
C2176 C 0.67426 0.52374 0.0938 0.0
H2177 H 0.68351 0.49965 0.07451 0.0
C2178 C 0.65972 0.53403 0.09035 0.0
C2179 C 0.68288 0.51109 0.08804 0.0
C2180 C 0.69746 0.49851 0.09142 0.0
C2181 C 0.65374 0.53217 0.08127 0.0
C2182 C 0.66236 0.51952 0.07553 0.0
C2183 C 0.67707 0.50944 0.07895 0.0
C2184 C 0.65572 0.51582 0.06598 0.0
C2185 C 0.63845 0.5439 0.07785 0.0
C2186 C 0.63031 0.49988 0.0633 0.0
C2187 C 0.62428 0.49498 0.05429 0.0
C2188 C 0.64359 0.50594 0.0478 0.0
C2189 C 0.669 0.52223 0.05052 0.0
C2190 C 0.67501 0.527 0.05954 0.0
H2191 H 0.63827 0.55779 0.08265 0.0
H2192 H 0.64626 0.55377 0.07141 0.0
H2193 H 0.61839 0.52856 0.07672 0.0
H2194 H 0.61523 0.49077 0.0682 0.0
H2195 H 0.60454 0.48233 0.05241 0.0
H2196 H 0.50983 0.88115 0.95379 0.0
H2197 H 0.50829 0.88638 0.93771 0.0
H2198 H 0.52074 0.82289 0.9333 0.0
H2199 H 0.52201 0.81727 0.94935 0.0
H2200 H 0.54449 0.89512 0.92427 0.0
H2201 H 0.45435 0.80298 0.91961 0.0
H2202 H 0.46544 0.81741 0.9304 0.0
H2203 H 0.47895 0.8 0.92524 0.0
C2204 C 0.51232 0.86833 0.9494 0.0
C2205 C 0.51581 0.84862 0.95285 0.0
C2206 C 0.51147 0.87139 0.94023 0.0
C2207 C 0.51397 0.85476 0.93435 0.0
C2208 C 0.51827 0.8356 0.93775 0.0
H2209 H 0.54434 0.86422 0.87832 0.0
H2210 H 0.5471 0.86768 0.8945 0.0
C2211 C 0.51911 0.8325 0.94692 0.0
C2212 C 0.51174 0.85715 0.92465 0.0
H2213 H 0.47701 0.82428 0.9065 0.0
C2214 C 0.52966 0.87974 0.92037 0.0
C2215 C 0.49208 0.83722 0.91963 0.0
C2216 C 0.47144 0.81312 0.92395 0.0
C2217 C 0.52893 0.88257 0.91113 0.0
C2218 C 0.51 0.86212 0.90607 0.0
C2219 C 0.49161 0.83988 0.91039 0.0
C2220 C 0.50933 0.86281 0.89623 0.0
C2221 C 0.54834 0.90743 0.90689 0.0
C2222 C 0.48713 0.8588 0.89184 0.0
C2223 C 0.48538 0.85656 0.88259 0.0
C2224 C 0.50578 0.85816 0.87757 0.0
C2225 C 0.5283 0.86298 0.88198 0.0
C2226 C 0.53 0.86514 0.89123 0.0
H2227 H 0.55617 0.9234 0.91176 0.0
H2228 H 0.56452 0.90547 0.90433 0.0
H2229 H 0.53988 0.91246 0.90123 0.0
H2230 H 0.47092 0.85683 0.89559 0.0
H2231 H 0.46778 0.85288 0.8794 0.0
H2232 H 0.12504 0.6439 0.95113 0.0
H2233 H 0.12416 0.64288 0.93488 0.0
H2234 H 0.20125 0.70674 0.93416 0.0
H2235 H 0.20219 0.70822 0.9504 0.0
H2236 H 0.16888 0.71094 0.92196 0.0
H2237 H 0.1622 0.61595 0.91987 0.0
H2238 H 0.13757 0.6164 0.92644 0.0
H2239 H 0.1703 0.63427 0.93004 0.0
C2240 C 0.14178 0.65781 0.94752 0.0
C2241 C 0.16377 0.67603 0.95206 0.0
C2242 C 0.14128 0.6571 0.93823 0.0
C2243 C 0.16281 0.67443 0.93333 0.0
C2244 C 0.18449 0.69311 0.93783 0.0
H2245 H 0.20035 0.66267 0.87884 0.0
H2246 H 0.19809 0.66482 0.89501 0.0
C2247 C 0.18499 0.69391 0.94711 0.0
C2248 C 0.16294 0.67291 0.92352 0.0
H2249 H 0.15864 0.63398 0.90635 0.0
C2250 C 0.16663 0.69413 0.91853 0.0
C2251 C 0.16033 0.65105 0.91909 0.0
C2252 C 0.15761 0.62819 0.92412 0.0
C2253 C 0.16764 0.69403 0.90921 0.0
C2254 C 0.16444 0.67195 0.90478 0.0
C2255 C 0.16087 0.65079 0.90977 0.0
C2256 C 0.16555 0.67066 0.89498 0.0
C2257 C 0.17276 0.71778 0.9042 0.0
C2258 C 0.14777 0.67292 0.88962 0.0
C2259 C 0.14906 0.6718 0.88036 0.0
C2260 C 0.16803 0.66817 0.87632 0.0
C2261 C 0.18554 0.66552 0.88173 0.0
C2262 C 0.18428 0.66672 0.89098 0.0
H2263 H 0.18105 0.7349 0.90858 0.0
H2264 H 0.18603 0.7215 0.89856 0.0
H2265 H 0.1545 0.71508 0.90148 0.0
H2266 H 0.13284 0.67543 0.89259 0.0
H2267 H 0.13519 0.67376 0.87638 0.0
H2268 H 0.30813 0.48251 0.8808 0.0
H2269 H 0.30732 0.47979 0.89701 0.0
H2270 H 0.35363 0.44395 0.89604 0.0
H2271 H 0.35455 0.4465 0.87975 0.0
H2272 H 0.29023 0.43171 0.90775 0.0
H2273 H 0.39123 0.50857 0.91314 0.0
H2274 H 0.37416 0.50637 0.90301 0.0
H2275 H 0.38501 0.48411 0.90506 0.0
C2276 C 0.3182 0.47407 0.88401 0.0
C2277 C 0.3315 0.46479 0.87899 0.0
C2278 C 0.31764 0.47248 0.89327 0.0
C2279 C 0.33051 0.4618 0.89768 0.0
C2280 C 0.34373 0.45241 0.89272 0.0
H2281 H 0.35413 0.46257 0.95504 0.0
H2282 H 0.35469 0.45509 0.93907 0.0
C2283 C 0.34419 0.45385 0.88344 0.0
C2284 C 0.33002 0.46068 0.90748 0.0
H2285 H 0.36616 0.4896 0.92584 0.0
C2286 C 0.30685 0.44418 0.91173 0.0
C2287 C 0.35181 0.47687 0.9126 0.0
C2288 C 0.37701 0.49513 0.90827 0.0
C2289 C 0.30477 0.44372 0.92102 0.0
C2290 C 0.32628 0.46071 0.92615 0.0
C2291 C 0.34968 0.47663 0.92189 0.0
C2292 C 0.32464 0.46338 0.93588 0.0
C2293 C 0.27956 0.42504 0.92525 0.0
C2294 C 0.3076 0.47056 0.93937 0.0
C2295 C 0.30713 0.47472 0.94848 0.0
C2296 C 0.32396 0.47211 0.95426 0.0
C2297 C 0.34091 0.46474 0.95076 0.0
C2298 C 0.34126 0.46045 0.94164 0.0
H2299 H 0.2682 0.40827 0.92087 0.0
H2300 H 0.28241 0.41813 0.93176 0.0
H2301 H 0.26821 0.43463 0.92637 0.0
H2302 H 0.29507 0.47359 0.93502 0.0
H2303 H 0.29398 0.48056 0.95095 0.0
H2304 H 0.19541 0.53614 0.45309 0.0
H2305 H 0.19549 0.53032 0.43704 0.0
H2306 H 0.12053 0.46331 0.43864 0.0
H2307 H 0.12005 0.46925 0.45473 0.0
H2308 H 0.19132 0.48931 0.42744 0.0
H2309 H 0.11101 0.50639 0.41972 0.0
H2310 H 0.1268 0.51403 0.43039 0.0
H2311 H 0.10383 0.48149 0.42767 0.0
C2312 C 0.17891 0.52015 0.45005 0.0
C2313 C 0.15765 0.50325 0.45518 0.0
C2314 C 0.17901 0.51685 0.44087 0.0
C2315 C 0.15786 0.49664 0.43664 0.0
C2316 C 0.13682 0.47936 0.44176 0.0
H2317 H 0.13586 0.45834 0.37995 0.0
H2318 H 0.13035 0.45695 0.39613 0.0
C2319 C 0.13665 0.48269 0.45095 0.0
C2320 C 0.15813 0.49378 0.42688 0.0
H2321 H 0.12902 0.49576 0.40766 0.0
C2322 C 0.17765 0.49063 0.42311 0.0
C2323 C 0.14021 0.49545 0.42127 0.0
C2324 C 0.11938 0.49973 0.42493 0.0
C2325 C 0.17991 0.48939 0.41388 0.0
C2326 C 0.16236 0.49163 0.40828 0.0
C2327 C 0.14242 0.49407 0.41202 0.0
C2328 C 0.16521 0.49271 0.39851 0.0
C2329 C 0.20111 0.48578 0.41016 0.0
C2330 C 0.18635 0.51354 0.39453 0.0
C2331 C 0.18951 0.51447 0.38532 0.0
C2332 C 0.17155 0.49455 0.37993 0.0
C2333 C 0.15008 0.47393 0.38393 0.0
C2334 C 0.14688 0.47309 0.39316 0.0
H2335 H 0.20901 0.47829 0.41526 0.0
H2336 H 0.19423 0.47244 0.40442 0.0
H2337 H 0.21687 0.50447 0.40781 0.0
H2338 H 0.20048 0.52904 0.39856 0.0
H2339 H 0.20621 0.53067 0.38245 0.0
H2340 H 0.53706 0.67481 0.38234 0.0
H2341 H 0.53635 0.66895 0.39846 0.0
H2342 H 0.46082 0.65972 0.39966 0.0
H2343 H 0.46112 0.66499 0.38358 0.0
H2344 H 0.53214 0.69823 0.41142 0.0
H2345 H 0.45148 0.59882 0.4139 0.0
H2346 H 0.46704 0.61285 0.40348 0.0
H2347 H 0.44309 0.61924 0.4079 0.0
C2348 C 0.5202 0.67128 0.38603 0.0
C2349 C 0.4991 0.67027 0.38168 0.0
C2350 C 0.51984 0.66795 0.39523 0.0
C2351 C 0.49837 0.66348 0.40023 0.0
C2352 C 0.47732 0.6625 0.39591 0.0
H2353 H 0.45769 0.6607 0.45491 0.0
H2354 H 0.46192 0.66292 0.43872 0.0
C2355 C 0.4776 0.66569 0.38671 0.0
C2356 C 0.49841 0.66117 0.41003 0.0
H2357 H 0.46413 0.62307 0.42742 0.0
C2358 C 0.51748 0.68166 0.41492 0.0
C2359 C 0.47929 0.63949 0.41457 0.0
C2360 C 0.45923 0.61624 0.40969 0.0
C2361 C 0.51735 0.68145 0.42425 0.0
C2362 C 0.49774 0.66016 0.42876 0.0
C2363 C 0.47903 0.63943 0.4239 0.0
C2364 C 0.49581 0.65938 0.43855 0.0
C2365 C 0.53764 0.70428 0.42924 0.0
C2366 C 0.51351 0.65661 0.44377 0.0
C2367 C 0.51111 0.65522 0.45303 0.0
C2368 C 0.49099 0.65664 0.45719 0.0
C2369 C 0.47344 0.65961 0.45192 0.0
C2370 C 0.47577 0.66083 0.44267 0.0
H2371 H 0.54929 0.72071 0.42477 0.0
H2372 H 0.52876 0.71042 0.43443 0.0
H2373 H 0.55061 0.69891 0.43262 0.0
H2374 H 0.52897 0.65523 0.44067 0.0
H2375 H 0.52492 0.65289 0.45691 0.0
H2376 H 0.33258 0.79471 0.44953 0.0
H2377 H 0.32784 0.79521 0.43342 0.0
H2378 H 0.33402 0.86938 0.43516 0.0
H2379 H 0.33934 0.86932 0.45129 0.0
H2380 H 0.29193 0.79897 0.42322 0.0
H2381 H 0.38921 0.88146 0.4171 0.0
H2382 H 0.37994 0.865 0.42764 0.0
H2383 H 0.37018 0.88774 0.42475 0.0
C2384 C 0.33289 0.81114 0.4465 0.0
C2385 C 0.33657 0.83209 0.45168 0.0
C2386 C 0.33016 0.81137 0.43729 0.0
C2387 C 0.33105 0.83253 0.43309 0.0
C2388 C 0.33389 0.85313 0.43826 0.0
H2389 H 0.32111 0.86103 0.37669 0.0
H2390 H 0.32238 0.86362 0.39296 0.0
C2391 C 0.33676 0.85299 0.44748 0.0
C2392 C 0.32911 0.8329 0.42329 0.0
H2393 H 0.36193 0.86458 0.40464 0.0
C2394 C 0.3072 0.81334 0.41916 0.0
C2395 C 0.3491 0.8517 0.41802 0.0
C2396 C 0.37355 0.87255 0.42207 0.0
C2397 C 0.30478 0.81199 0.40987 0.0
C2398 C 0.32489 0.83056 0.40462 0.0
C2399 C 0.34657 0.85043 0.40873 0.0
C2400 C 0.32421 0.82907 0.39482 0.0
C2401 C 0.28075 0.79075 0.40574 0.0
C2402 C 0.32525 0.80901 0.39052 0.0
C2403 C 0.32469 0.80753 0.38126 0.0
C2404 C 0.32305 0.82611 0.37613 0.0
C2405 C 0.32229 0.84637 0.38046 0.0
C2406 C 0.32301 0.8479 0.38974 0.0
H2407 H 0.26489 0.78167 0.41064 0.0
H2408 H 0.27444 0.79801 0.40007 0.0
H2409 H 0.28467 0.77582 0.40317 0.0
H2410 H 0.32657 0.79452 0.39435 0.0
H2411 H 0.32536 0.79172 0.37813 0.0
H2412 H 0.23951 0.18602 0.16785 0.0
H2413 H 0.2735 0.18017 0.16141 0.0
H2414 H 0.29848 0.1743 0.18771 0.0
H2415 H 0.26454 0.17989 0.19421 0.0
H2416 H 0.32819 0.20555 0.16388 0.0
H2417 H 0.27819 0.10485 0.17569 0.0
H2418 H 0.26297 0.12405 0.17537 0.0
H2419 H 0.28489 0.12833 0.18417 0.0
C2420 C 0.25259 0.18406 0.17227 0.0
C2421 C 0.24913 0.18302 0.18154 0.0
C2422 C 0.2719 0.18062 0.16858 0.0
C2423 C 0.28795 0.17614 0.1741 0.0
C2424 C 0.28583 0.17713 0.18335 0.0
H2425 H 0.40784 0.14017 0.16588 0.0
H2426 H 0.37356 0.1461 0.17197 0.0
C2427 C 0.26653 0.18048 0.18705 0.0
C2428 C 0.30595 0.16898 0.17023 0.0
H2429 H 0.31901 0.12018 0.16915 0.0
C2430 C 0.32618 0.18687 0.16498 0.0
C2431 C 0.30309 0.14453 0.17169 0.0
C2432 C 0.281 0.12421 0.17697 0.0
C2433 C 0.34408 0.18116 0.16131 0.0
C2434 C 0.34129 0.15676 0.16281 0.0
C2435 C 0.321 0.13883 0.16802 0.0
C2436 C 0.35961 0.14977 0.15912 0.0
C2437 C 0.36617 0.20147 0.15603 0.0
C2438 C 0.36217 0.14861 0.1499 0.0
C2439 C 0.38164 0.14519 0.1464 0.0
C2440 C 0.39881 0.14279 0.15209 0.0
C2441 C 0.39498 0.14205 0.16133 0.0
C2442 C 0.37548 0.14552 0.16482 0.0
H2443 H 0.36873 0.22079 0.15719 0.0
H2444 H 0.38426 0.20189 0.15775 0.0
H2445 H 0.36251 0.19708 0.14883 0.0
H2446 H 0.34967 0.15129 0.14541 0.0
H2447 H 0.38392 0.14558 0.13925 0.0
H2448 H 0.84694 0.06467 0.15741 0.0
H2449 H 0.85134 0.10532 0.15264 0.0
H2450 H 0.79356 0.09614 0.1715 0.0
H2451 H 0.78892 0.05533 0.17633 0.0
H2452 H 0.79199 0.117 0.15392 0.0
H2453 H 0.8871 0.16716 0.17046 0.0
H2454 H 0.88237 0.14254 0.16268 0.0
H2455 H 0.86379 0.13418 0.17272 0.0
C2456 C 0.83475 0.07098 0.16042 0.0
C2457 C 0.81786 0.05696 0.16735 0.0
C2458 C 0.83742 0.09427 0.15772 0.0
C2459 C 0.82321 0.10388 0.16188 0.0
C2460 C 0.80485 0.08904 0.16828 0.0
H2461 H 0.8469 0.25763 0.16405 0.0
H2462 H 0.84351 0.21649 0.16768 0.0
C2463 C 0.80218 0.06571 0.17101 0.0
C2464 C 0.82875 0.13012 0.15998 0.0
H2465 H 0.87483 0.19283 0.1623 0.0
C2466 C 0.81007 0.13359 0.15574 0.0
C2467 C 0.85225 0.15164 0.1625 0.0
C2468 C 0.87251 0.14885 0.16741 0.0
C2469 C 0.8145 0.15818 0.15378 0.0
C2470 C 0.83827 0.17967 0.15608 0.0
C2471 C 0.85676 0.17622 0.16048 0.0
C2472 C 0.84403 0.20586 0.15398 0.0
C2473 C 0.79367 0.16106 0.14934 0.0
C2474 C 0.84667 0.21384 0.14511 0.0
C2475 C 0.84875 0.23728 0.14302 0.0
C2476 C 0.84815 0.2531 0.14976 0.0
C2477 C 0.84736 0.24585 0.1587 0.0
C2478 C 0.84533 0.22235 0.16079 0.0
H2479 H 0.77488 0.1431 0.14961 0.0
H2480 H 0.79176 0.17662 0.15252 0.0
H2481 H 0.79872 0.16619 0.14225 0.0
H2482 H 0.84613 0.20146 0.1398 0.0
H2483 H 0.84957 0.2424 0.13607 0.0
H2484 H 0.91958 0.70961 0.19059 0.0
H2485 H 0.87777 0.67733 0.18498 0.0
H2486 H 0.89308 0.71811 0.16015 0.0
H2487 H 0.93501 0.7503 0.16563 0.0
H2488 H 0.84166 0.69156 0.18045 0.0
H2489 H 0.85952 0.64348 0.15216 0.0
H2490 H 0.88345 0.6614 0.16048 0.0
H2491 H 0.87735 0.67778 0.15169 0.0
C2492 C 0.91442 0.71132 0.18383 0.0
C2493 C 0.93052 0.73271 0.1786 0.0
C2494 C 0.89046 0.6929 0.18066 0.0
C2495 C 0.88234 0.69541 0.17217 0.0
C2496 C 0.89911 0.71567 0.16668 0.0
H2497 H 0.73783 0.61587 0.1441 0.0
H2498 H 0.77981 0.64904 0.14931 0.0
C2499 C 0.92308 0.7341 0.16984 0.0
C2500 C 0.8554 0.67872 0.1695 0.0
H2501 H 0.81724 0.63625 0.1537 0.0
C2502 C 0.83627 0.67933 0.17463 0.0
C2503 C 0.84854 0.66308 0.16185 0.0
C2504 C 0.86825 0.66115 0.15626 0.0
C2505 C 0.8104 0.6648 0.17229 0.0
C2506 C 0.80352 0.64904 0.16467 0.0
C2507 C 0.82265 0.64855 0.1595 0.0
C2508 C 0.77654 0.63174 0.16219 0.0
C2509 C 0.79069 0.6667 0.17789 0.0
C2510 C 0.76048 0.61159 0.16785 0.0
C2511 C 0.73646 0.59266 0.16491 0.0
C2512 C 0.72821 0.59344 0.15623 0.0
C2513 C 0.74359 0.61466 0.15082 0.0
C2514 C 0.76765 0.63358 0.15376 0.0
H2515 H 0.79936 0.68461 0.18187 0.0
H2516 H 0.77521 0.66597 0.1737 0.0
H2517 H 0.78198 0.65034 0.18258 0.0
H2518 H 0.76711 0.60966 0.17433 0.0
H2519 H 0.72508 0.5766 0.16926 0.0
H2520 H 0.13639 0.37979 0.3605 0.0
H2521 H 0.14413 0.34602 0.35513 0.0
H2522 H 0.16409 0.38166 0.32931 0.0
H2523 H 0.15642 0.41555 0.33458 0.0
H2524 H 0.12556 0.31175 0.33896 0.0
H2525 H 0.22986 0.38233 0.33976 0.0
H2526 H 0.20666 0.38728 0.34568 0.0
H2527 H 0.2099 0.39163 0.33385 0.0
C2528 C 0.14185 0.38015 0.35361 0.0
C2529 C 0.14616 0.40055 0.348 0.0
C2530 C 0.14628 0.36087 0.35057 0.0
C2531 C 0.15515 0.36176 0.3419 0.0
C2532 C 0.15757 0.38095 0.33607 0.0
H2533 H 0.2131 0.27859 0.31306 0.0
H2534 H 0.20465 0.31121 0.31904 0.0
C2535 C 0.15303 0.40019 0.33908 0.0
C2536 C 0.16383 0.34387 0.33919 0.0
H2537 H 0.21761 0.34096 0.33448 0.0
C2538 C 0.14565 0.31803 0.338 0.0
C2539 C 0.19009 0.35231 0.33797 0.0
C2540 C 0.21037 0.37986 0.33943 0.0
C2541 C 0.15303 0.30034 0.33541 0.0
C2542 C 0.17935 0.30875 0.33423 0.0
C2543 C 0.19751 0.33462 0.33545 0.0
C2544 C 0.18818 0.29107 0.33134 0.0
C2545 C 0.13256 0.27298 0.3337 0.0
C2546 C 0.18315 0.26976 0.33652 0.0
C2547 C 0.18794 0.25104 0.33313 0.0
C2548 C 0.19793 0.25345 0.3245 0.0
C2549 C 0.2052 0.27603 0.31969 0.0
C2550 C 0.20031 0.29468 0.32308 0.0
H2551 H 0.11342 0.27109 0.33283 0.0
H2552 H 0.13704 0.2653 0.32768 0.0
H2553 H 0.13151 0.26101 0.33946 0.0
H2554 H 0.17442 0.26703 0.34302 0.0
H2555 H 0.18237 0.23401 0.33705 0.0
H2556 H 0.60716 0.76809 0.36343 0.0
H2557 H 0.64298 0.80619 0.35692 0.0
H2558 H 0.62598 0.76944 0.33125 0.0
H2559 H 0.58974 0.73124 0.33768 0.0
H2560 H 0.68658 0.81521 0.34721 0.0
H2561 H 0.62027 0.8339 0.32719 0.0
H2562 H 0.60939 0.81095 0.33614 0.0
H2563 H 0.61712 0.803 0.32551 0.0
C2564 C 0.61122 0.76792 0.35642 0.0
C2565 C 0.59539 0.74678 0.35104 0.0
C2566 C 0.6317 0.78973 0.35272 0.0
C2567 C 0.63668 0.79079 0.34358 0.0
C2568 C 0.62203 0.76913 0.33829 0.0
H2569 H 0.74407 0.90798 0.30863 0.0
H2570 H 0.70887 0.86973 0.31532 0.0
C2571 C 0.60149 0.74726 0.34199 0.0
C2572 C 0.65637 0.81505 0.33957 0.0
H2573 H 0.66456 0.86181 0.32496 0.0
C2574 C 0.68181 0.82546 0.34236 0.0
C2575 C 0.64994 0.82839 0.3333 0.0
C2576 C 0.62268 0.81867 0.3304 0.0
C2577 C 0.70118 0.84869 0.33889 0.0
C2578 C 0.69475 0.86195 0.33259 0.0
C2579 C 0.66931 0.85158 0.32982 0.0
C2580 C 0.71443 0.88603 0.3285 0.0
C2581 C 0.72843 0.85858 0.34182 0.0
C2582 C 0.72853 0.90814 0.33364 0.0
C2583 C 0.74865 0.93013 0.32983 0.0
C2584 C 0.75493 0.93022 0.32082 0.0
C2585 C 0.73983 0.90845 0.3156 0.0
C2586 C 0.71972 0.88658 0.31941 0.0
H2587 H 0.73082 0.84366 0.34528 0.0
H2588 H 0.74163 0.86568 0.33604 0.0
H2589 H 0.73412 0.87479 0.34649 0.0
H2590 H 0.72436 0.90816 0.34065 0.0
H2591 H 0.75991 0.94663 0.33402 0.0
H2592 H 0.07618 0.789 0.30897 0.0
H2593 H 0.11824 0.80123 0.31507 0.0
H2594 H 0.09621 0.8186 0.34024 0.0
H2595 H 0.05395 0.80614 0.33424 0.0
H2596 H 0.15088 0.85142 0.32122 0.0
H2597 H 0.13264 0.77919 0.34737 0.0
H2598 H 0.10991 0.77378 0.33865 0.0
H2599 H 0.11298 0.79372 0.34797 0.0
C2600 C 0.08002 0.79479 0.31587 0.0
C2601 C 0.0618 0.79679 0.3211 0.0
C2602 C 0.10409 0.80186 0.31933 0.0
C2603 C 0.1103 0.81087 0.32808 0.0
C2604 C 0.09167 0.81141 0.3335 0.0
H2605 H 0.25278 0.8707 0.35744 0.0
H2606 H 0.21098 0.86303 0.3525 0.0
C2607 C 0.06752 0.80428 0.33005 0.0
C2608 C 0.13694 0.82193 0.33122 0.0
H2609 H 0.17449 0.81481 0.34654 0.0
C2610 C 0.15609 0.84342 0.32675 0.0
C2611 C 0.14353 0.8116 0.33849 0.0
C2612 C 0.12376 0.78818 0.34337 0.0
C2613 C 0.18178 0.85481 0.32934 0.0
C2614 C 0.18846 0.84418 0.33649 0.0
C2615 C 0.16924 0.82298 0.34107 0.0
C2616 C 0.21537 0.8535 0.339 0.0
C2617 C 0.20151 0.87819 0.32442 0.0
C2618 C 0.23199 0.85157 0.33294 0.0
C2619 C 0.25592 0.85602 0.33573 0.0
C2620 C 0.26348 0.86218 0.34465 0.0
C2621 C 0.24751 0.86589 0.35053 0.0
C2622 C 0.22357 0.86142 0.34774 0.0
H2623 H 0.19273 0.88831 0.32107 0.0
H2624 H 0.21671 0.89174 0.32899 0.0
H2625 H 0.21058 0.87226 0.31924 0.0
H2626 H 0.22588 0.84512 0.3262 0.0
H2627 H 0.26775 0.85302 0.33102 0.0
H2628 H 0.70837 0.79267 0.80585 0.0
H2629 H 0.67653 0.80202 0.81203 0.0
H2630 H 0.71803 0.8248 0.83679 0.0
H2631 H 0.75026 0.81592 0.83064 0.0
H2632 H 0.64499 0.78646 0.82716 0.0
H2633 H 0.71817 0.88968 0.82844 0.0
H2634 H 0.72325 0.86653 0.82257 0.0
H2635 H 0.7265 0.86922 0.83446 0.0
C2636 C 0.7105 0.79918 0.81268 0.0
C2637 C 0.73211 0.80401 0.8177 0.0
C2638 C 0.6923 0.80457 0.81618 0.0
C2639 C 0.6954 0.8148 0.82476 0.0
C2640 C 0.71573 0.81756 0.83006 0.0
H2641 H 0.61299 0.86785 0.85659 0.0
H2642 H 0.64472 0.85868 0.85017 0.0
C2643 C 0.734 0.81226 0.82656 0.0
C2644 C 0.67824 0.82398 0.82794 0.0
H2645 H 0.6775 0.87775 0.83453 0.0
C2646 C 0.65204 0.80641 0.82874 0.0
C2647 C 0.68756 0.8501 0.82992 0.0
C2648 C 0.71536 0.87006 0.82873 0.0
C2649 C 0.63493 0.81417 0.83169 0.0
C2650 C 0.6443 0.84022 0.83374 0.0
C2651 C 0.67047 0.85782 0.83291 0.0
C2652 C 0.62726 0.84926 0.83714 0.0
C2653 C 0.60705 0.79436 0.83278 0.0
C2654 C 0.60775 0.8482 0.83179 0.0
C2655 C 0.58963 0.85355 0.83542 0.0
C2656 C 0.59077 0.85994 0.84446 0.0
C2657 C 0.61147 0.86279 0.84962 0.0
C2658 C 0.6296 0.85753 0.84597 0.0
H2659 H 0.60384 0.77458 0.83259 0.0
H2660 H 0.59951 0.79715 0.83916 0.0
H2661 H 0.59589 0.79641 0.8273 0.0
H2662 H 0.60597 0.84227 0.8249 0.0
H2663 H 0.57398 0.85127 0.83126 0.0
H2664 H 0.12132 0.73309 0.85516 0.0
H2665 H 0.13196 0.77587 0.85034 0.0
H2666 H 0.15932 0.76401 0.82531 0.0
H2667 H 0.149 0.72125 0.83009 0.0
H2668 H 0.19532 0.80748 0.8347 0.0
H2669 H 0.10214 0.80444 0.83217 0.0
H2670 H 0.10668 0.79197 0.84242 0.0
H2671 H 0.10473 0.77591 0.83213 0.0
C2672 C 0.12894 0.73927 0.84853 0.0
C2673 C 0.13452 0.72383 0.84304 0.0
C2674 C 0.13496 0.76373 0.84578 0.0
C2675 C 0.14642 0.77305 0.83748 0.0
C2676 C 0.15051 0.75711 0.83175 0.0
H2677 H 0.21425 0.92137 0.81222 0.0
H2678 H 0.20396 0.87849 0.81678 0.0
C2679 C 0.14447 0.73263 0.83449 0.0
C2680 C 0.15658 0.80024 0.83517 0.0
H2681 H 0.13947 0.84558 0.83211 0.0
C2682 C 0.18312 0.81582 0.83407 0.0
C2683 C 0.14061 0.811 0.83443 0.0
C2684 C 0.11193 0.79495 0.83527 0.0
C2685 C 0.1942 0.84209 0.83238 0.0
C2686 C 0.17823 0.85288 0.83167 0.0
C2687 C 0.15168 0.83725 0.83274 0.0
C2688 C 0.18838 0.88019 0.82956 0.0
C2689 C 0.22289 0.85814 0.83158 0.0
C2690 C 0.18357 0.89556 0.83532 0.0
C2691 C 0.18932 0.92005 0.83272 0.0
C2692 C 0.1998 0.92949 0.82427 0.0
C2693 C 0.20625 0.91472 0.81877 0.0
C2694 C 0.20041 0.89018 0.82137 0.0
H2695 H 0.23264 0.84863 0.83469 0.0
H2696 H 0.22821 0.86115 0.82444 0.0
H2697 H 0.23007 0.87716 0.83472 0.0
H2698 H 0.17434 0.88818 0.84167 0.0
H2699 H 0.18421 0.93098 0.83713 0.0
H2700 H 0.2504 0.38358 0.85774 0.0
H2701 H 0.20925 0.35259 0.85131 0.0
H2702 H 0.23074 0.3939 0.8265 0.0
H2703 H 0.27215 0.42485 0.83283 0.0
H2704 H 0.1752 0.36818 0.84546 0.0
H2705 H 0.19728 0.31905 0.81854 0.0
H2706 H 0.2196 0.33651 0.82735 0.0
H2707 H 0.21544 0.35337 0.81826 0.0
C2708 C 0.24668 0.38568 0.85083 0.0
C2709 C 0.26445 0.40674 0.84581 0.0
C2710 C 0.22312 0.36802 0.84719 0.0
C2711 C 0.21695 0.37102 0.83846 0.0
C2712 C 0.23527 0.39107 0.83322 0.0
H2713 H 0.07444 0.28461 0.80912 0.0
H2714 H 0.11553 0.31992 0.81411 0.0
C2715 C 0.25894 0.40873 0.83686 0.0
C2716 C 0.19052 0.35475 0.8352 0.0
H2717 H 0.15457 0.31037 0.81954 0.0
C2718 C 0.17066 0.35552 0.83979 0.0
C2719 C 0.18477 0.33855 0.82774 0.0
C2720 C 0.20533 0.33657 0.82271 0.0
C2721 C 0.14509 0.34025 0.83719 0.0
C2722 C 0.13927 0.32361 0.82987 0.0
C2723 C 0.15917 0.32329 0.82513 0.0
C2724 C 0.11264 0.30494 0.82738 0.0
C2725 C 0.12453 0.34209 0.84228 0.0
C2726 C 0.09709 0.28532 0.8333 0.0
C2727 C 0.0736 0.26513 0.83049 0.0
C2728 C 0.06538 0.26414 0.82168 0.0
C2729 C 0.0802 0.28477 0.81595 0.0
C2730 C 0.10375 0.30492 0.81877 0.0
H2731 H 0.13238 0.36056 0.84588 0.0
H2732 H 0.10904 0.34003 0.83777 0.0
H2733 H 0.11604 0.32648 0.84726 0.0
H2734 H 0.10376 0.28481 0.83994 0.0
H2735 H 0.06265 0.24957 0.83507 0.0
H2736 H 0.82487 0.5585 0.67844 0.0
H2737 H 0.81569 0.59312 0.68081 0.0
H2738 H 0.85964 0.63178 0.6575 0.0
H2739 H 0.86911 0.59734 0.65507 0.0
H2740 H 0.86564 0.66433 0.67249 0.0
H2741 H 0.76397 0.59781 0.66365 0.0
H2742 H 0.77662 0.5872 0.67243 0.0
H2743 H 0.78911 0.5907 0.66137 0.0
C2744 C 0.83311 0.57463 0.67392 0.0
C2745 C 0.84741 0.57496 0.66648 0.0
C2746 C 0.82765 0.59427 0.67525 0.0
C2747 C 0.83642 0.61455 0.66919 0.0
C2748 C 0.85246 0.61607 0.66219 0.0
H2749 H 0.81743 0.74662 0.66276 0.0
H2750 H 0.82535 0.71127 0.66008 0.0
C2751 C 0.85793 0.59642 0.66084 0.0
C2752 C 0.82769 0.63338 0.66983 0.0
H2753 H 0.77457 0.6395 0.66823 0.0
C2754 C 0.84577 0.65898 0.67154 0.0
C2755 C 0.80172 0.62619 0.66854 0.0
C2756 C 0.7817 0.59904 0.66632 0.0
C2757 C 0.83851 0.67763 0.67219 0.0
C2758 C 0.81255 0.67048 0.67089 0.0
C2759 C 0.79444 0.64486 0.66918 0.0
C2760 C 0.80393 0.68942 0.67154 0.0
C2761 C 0.85857 0.70473 0.67445 0.0
C2762 C 0.78779 0.68789 0.67851 0.0
C2763 C 0.783 0.70795 0.68002 0.0
C2764 C 0.79437 0.72983 0.67459 0.0
C2765 C 0.80864 0.73018 0.66714 0.0
C2766 C 0.81334 0.71009 0.66562 0.0
H2767 H 0.87613 0.7058 0.67723 0.0
H2768 H 0.86399 0.71655 0.66833 0.0
H2769 H 0.85109 0.71317 0.67933 0.0
H2770 H 0.78014 0.6719 0.68309 0.0
H2771 H 0.77182 0.70701 0.68579 0.0
H2772 H 0.42491 0.28233 0.66678 0.0
H2773 H 0.3907 0.24203 0.67277 0.0
H2774 H 0.35496 0.22188 0.64696 0.0
H2775 H 0.38914 0.26202 0.64086 0.0
H2776 H 0.33575 0.21853 0.67279 0.0
H2777 H 0.37069 0.16403 0.65314 0.0
H2778 H 0.38959 0.19816 0.65478 0.0
H2779 H 0.36387 0.18526 0.64687 0.0
C2780 C 0.40954 0.26957 0.6624 0.0
C2781 C 0.40994 0.27522 0.65331 0.0
C2782 C 0.39006 0.24654 0.66584 0.0
C2783 C 0.37075 0.22882 0.66024 0.0
C2784 C 0.37007 0.23515 0.65132 0.0
H2785 H 0.24546 0.07465 0.66899 0.0
H2786 H 0.27859 0.11455 0.66233 0.0
C2787 C 0.38952 0.25817 0.64787 0.0
C2788 C 0.35211 0.20322 0.66366 0.0
H2789 H 0.33338 0.13989 0.66173 0.0
C2790 C 0.3352 0.20132 0.67039 0.0
C2791 C 0.35156 0.18089 0.66048 0.0
C2792 C 0.37 0.18205 0.65347 0.0
C2793 C 0.31747 0.17753 0.67398 0.0
C2794 C 0.3171 0.15522 0.67088 0.0
C2795 C 0.33385 0.15709 0.66409 0.0
C2796 C 0.29928 0.12979 0.67462 0.0
C2797 C 0.29901 0.17642 0.68098 0.0
C2798 C 0.3008 0.12471 0.68363 0.0
C2799 C 0.28197 0.102 0.68745 0.0
C2800 C 0.26139 0.08393 0.68231 0.0
C2801 C 0.26103 0.08821 0.67313 0.0
C2802 C 0.27987 0.11102 0.66932 0.0
H2803 H 0.2976 0.19407 0.68104 0.0
H2804 H 0.27963 0.15973 0.6799 0.0
H2805 H 0.30576 0.17438 0.68763 0.0
H2806 H 0.31603 0.13877 0.68777 0.0
H2807 H 0.28294 0.09914 0.69452 0.0
H2808 H 0.74287 0.12957 0.64313 0.0
H2809 H 0.78187 0.13612 0.65027 0.0
H2810 H 0.75508 0.14768 0.67549 0.0
H2811 H 0.71605 0.14167 0.66834 0.0
H2812 H 0.80271 0.1868 0.67116 0.0
H2813 H 0.79907 0.09402 0.66674 0.0
H2814 H 0.79415 0.10619 0.6565 0.0
H2815 H 0.77127 0.09752 0.66538 0.0
C2816 C 0.74493 0.1329 0.65023 0.0
C2817 C 0.72642 0.13526 0.65515 0.0
C2818 C 0.76723 0.13653 0.65432 0.0
C2819 C 0.77129 0.14222 0.66342 0.0
C2820 C 0.75226 0.14325 0.66845 0.0
H2821 H 0.90398 0.18408 0.69659 0.0
H2822 H 0.86303 0.17692 0.69088 0.0
C2823 C 0.72993 0.1397 0.66436 0.0
C2824 C 0.79643 0.14963 0.66742 0.0
H2825 H 0.84011 0.13008 0.67011 0.0
C2826 C 0.81078 0.1743 0.67104 0.0
C2827 C 0.80692 0.13332 0.66721 0.0
C2828 C 0.79194 0.1062 0.66383 0.0
C2829 C 0.83569 0.18335 0.67422 0.0
C2830 C 0.84635 0.16724 0.67379 0.0
C2831 C 0.83189 0.14246 0.67031 0.0
C2832 C 0.87233 0.1754 0.67709 0.0
C2833 C 0.85068 0.21023 0.6778 0.0
C2834 C 0.89124 0.17747 0.67118 0.0
C2835 C 0.91471 0.18165 0.67441 0.0
C2836 C 0.91943 0.18344 0.68361 0.0
C2837 C 0.90091 0.18274 0.68946 0.0
C2838 C 0.87752 0.17871 0.68622 0.0
H2839 H 0.8417 0.22183 0.67605 0.0
H2840 H 0.85166 0.20953 0.68515 0.0
H2841 H 0.87057 0.21994 0.6752 0.0
H2842 H 0.88748 0.17493 0.6641 0.0
H2843 H 0.92854 0.18205 0.66973 0.0
H2844 H 0.07635 0.48752 0.50052 0.0
H2845 H 0.04258 0.49445 0.50645 0.0
H2846 H 0.01005 0.48434 0.48023 0.0
H2847 H 0.04357 0.47725 0.47424 0.0
H2848 H 0.03715 0.53602 0.50005 0.0
H2849 H 0.94731 0.44286 0.4964 0.0
H2850 H 0.9785 0.4456 0.49649 0.0
H2851 H 0.96713 0.45358 0.48665 0.0
C2852 C 0.0616 0.48604 0.49606 0.0
C2853 C 0.06274 0.48203 0.48689 0.0
C2854 C 0.04241 0.49012 0.49945 0.0
C2855 C 0.02389 0.4899 0.49377 0.0
C2856 C 0.02402 0.4843 0.48473 0.0
H2857 H 0.90231 0.52521 0.49955 0.0
H2858 H 0.93578 0.51799 0.49354 0.0
C2859 C 0.04325 0.48032 0.48132 0.0
C2860 C 0.00617 0.49823 0.49707 0.0
H2861 H 0.94302 0.47898 0.49971 0.0
C2862 C 0.01656 0.52353 0.50004 0.0
C2863 C 0.97939 0.48193 0.49694 0.0
C2864 C 0.96735 0.4544 0.49402 0.0
C2865 C 0.00079 0.53314 0.50279 0.0
C2866 C 0.97398 0.51682 0.50269 0.0
C2867 C 0.96361 0.49149 0.49972 0.0
C2868 C 0.95623 0.52517 0.50598 0.0
C2869 C 0.01294 0.56078 0.50559 0.0
C2870 C 0.95715 0.53237 0.51489 0.0
C2871 C 0.93817 0.53669 0.51834 0.0
C2872 C 0.91776 0.53354 0.51295 0.0
C2873 C 0.91774 0.52778 0.50389 0.0
C2874 C 0.93677 0.52352 0.50044 0.0
H2875 H 0.03256 0.57236 0.50284 0.0
H2876 H 0.00129 0.56933 0.5034 0.0
H2877 H 0.01437 0.56196 0.51294 0.0
H2878 H 0.97177 0.53336 0.51931 0.0
H2879 H 0.93875 0.54105 0.52535 0.0
H2880 H 0.45299 0.40141 0.52459 0.0
H2881 H 0.46155 0.44306 0.51914 0.0
H2882 H 0.48094 0.42629 0.49337 0.0
H2883 H 0.47222 0.38454 0.49871 0.0
H2884 H 0.51076 0.47935 0.51296 0.0
H2885 H 0.43638 0.45803 0.48739 0.0
H2886 H 0.43305 0.43514 0.49577 0.0
H2887 H 0.45284 0.44032 0.48619 0.0
C2888 C 0.45838 0.40625 0.51769 0.0
C2889 C 0.46212 0.38972 0.5121 0.0
C2890 C 0.46337 0.43011 0.5146 0.0
C2891 C 0.47189 0.43771 0.50587 0.0
C2892 C 0.47408 0.42064 0.50011 0.0
H2893 H 0.52697 0.57834 0.47628 0.0
H2894 H 0.51916 0.53685 0.48163 0.0
C2895 C 0.46911 0.39678 0.50318 0.0
C2896 C 0.48099 0.46433 0.50306 0.0
H2897 H 0.47127 0.50059 0.48792 0.0
C2898 C 0.50205 0.48406 0.50752 0.0
C2899 C 0.46972 0.47029 0.49592 0.0
C2900 C 0.44661 0.44988 0.49108 0.0
C2901 C 0.51237 0.50967 0.50495 0.0
C2902 C 0.50105 0.51564 0.49783 0.0
C2903 C 0.48001 0.4959 0.49335 0.0
C2904 C 0.50997 0.54228 0.49506 0.0
C2905 C 0.53556 0.53003 0.50977 0.0
C2906 C 0.50822 0.55938 0.50094 0.0
C2907 C 0.5128 0.58318 0.49793 0.0
C2908 C 0.51889 0.5901 0.48895 0.0
C2909 C 0.52221 0.57356 0.48323 0.0
C2910 C 0.51767 0.5498 0.48625 0.0
H2911 H 0.54608 0.52188 0.51326 0.0
H2912 H 0.54886 0.54508 0.50511 0.0
H2913 H 0.52935 0.53918 0.51483 0.0
H2914 H 0.50195 0.55379 0.50773 0.0
H2915 H 0.51003 0.59543 0.5025 0.0
H2916 H 0.61509 0.09131 0.49813 0.0
H2917 H 0.57606 0.05739 0.49125 0.0
H2918 H 0.54953 0.02166 0.51684 0.0
H2919 H 0.58837 0.05534 0.52379 0.0
H2920 H 0.54934 -0.00065 0.49232 0.0
H2921 H 0.49703 0.04404 0.50747 0.0
H2922 H 0.53136 0.06102 0.50615 0.0
H2923 H 0.51671 0.0378 0.51485 0.0
C2924 C 0.60129 0.07588 0.50227 0.0
C2925 C 0.60464 0.07622 0.51153 0.0
C2926 C 0.57899 0.0566 0.49832 0.0
C2927 C 0.55983 0.03747 0.50359 0.0
C2928 C 0.56402 0.03657 0.51271 0.0
H2929 H 0.40423 0.91717 0.49608 0.0
H2930 H 0.44488 0.95134 0.5019 0.0
C2931 C 0.58628 0.05577 0.51665 0.0
C2932 C 0.53464 0.01966 0.49973 0.0
H2933 H 0.47222 0.00497 0.49985 0.0
C2934 C 0.53247 0.00057 0.49391 0.0
C2935 C 0.51281 0.02151 0.50185 0.0
C2936 C 0.51446 0.04229 0.50787 0.0
C2937 C 0.50871 0.98272 0.49031 0.0
C2938 C 0.48681 0.98449 0.49245 0.0
C2939 C 0.48908 0.00375 0.49822 0.0
C2940 C 0.46125 0.96603 0.48894 0.0
C2941 C 0.50712 0.96167 0.48445 0.0
C2942 C 0.45663 0.96386 0.47976 0.0
C2943 C 0.43347 0.94439 0.47642 0.0
C2944 C 0.4145 0.9269 0.48221 0.0
C2945 C 0.41848 0.93031 0.49144 0.0
C2946 C 0.44172 0.94975 0.49478 0.0
H2947 H 0.52419 0.95941 0.48519 0.0
H2948 H 0.48977 0.94313 0.486 0.0
H2949 H 0.50596 0.96635 0.47739 0.0
H2950 H 0.47126 0.9767 0.47517 0.0
H2951 H 0.43087 0.94243 0.46928 0.0
H2952 H 0.48912 0.0851 -0.00016 0.0
H2953 H 0.49798 0.05233 0.99421 0.0
H2954 H 0.48183 0.01693 0.0201 0.0
H2955 H 0.47278 0.04945 0.02578 0.0
H2956 H 0.53826 0.04664 0.00194 0.0
H2957 H 0.44491 0.95606 0.00277 0.0
H2958 H 0.44736 0.98712 0.0027 0.0
H2959 H 0.45304 0.97479 0.01278 0.0
C2960 C 0.4867 0.06992 0.00428 0.0
C2961 C 0.48043 0.06997 0.01328 0.0
C2962 C 0.49192 0.05131 0.00106 0.0
C2963 C 0.49058 0.0323 0.00675 0.0
C2964 C 0.4827 0.03131 0.01558 0.0
H2965 H 0.52643 0.91105 0.00133 0.0
H2966 H 0.51894 0.94415 0.0075 0.0
C2967 C 0.47759 0.04995 0.01882 0.0
C2968 C 0.49995 0.01516 0.00375 0.0
H2969 H 0.48186 0.95254 0.00044 0.0
C2970 C 0.52594 0.02606 0.00155 0.0
C2971 C 0.48385 0.98838 0.00337 0.0
C2972 C 0.45568 0.97582 0.00546 0.0
C2973 C 0.53636 0.01079 0.99907 0.0
C2974 C 0.52022 0.98399 0.99863 0.0
C2975 C 0.49423 0.97311 0.00085 0.0
C2976 C 0.5294 0.96679 0.99547 0.0
C2977 C 0.5646 0.02344 0.99711 0.0
C2978 C 0.53873 0.96911 0.98677 0.0
C2979 C 0.54322 0.95034 0.98324 0.0
C2980 C 0.53808 0.92872 0.98831 0.0
C2981 C 0.53047 0.92739 0.99723 0.0
C2982 C 0.52608 0.94623 0.00076 0.0
H2983 H 0.57537 0.04252 0.00032 0.0
H2984 H 0.57266 0.01145 -0.0006 0.0
H2985 H 0.56762 0.02621 0.98982 0.0
H2986 H 0.54106 0.98462 0.98253 0.0
H2987 H 0.54907 0.95196 0.97635 0.0
H2988 H 0.9345 0.43435 0.02931 0.0
H2989 H 0.96862 0.47385 0.02283 0.0
H2990 H 0.94942 0.4397 0.99675 0.0
H2991 H 0.91508 0.40009 0.00315 0.0
H2992 H 0.01161 0.48446 0.01149 0.0
H2993 H 0.9401 0.50362 0.99531 0.0
H2994 H 0.93178 0.48036 0.00408 0.0
H2995 H 0.93672 0.47289 0.99296 0.0
C2996 C 0.93779 0.43506 0.02221 0.0
C2997 C 0.92191 0.41421 0.01673 0.0
C2998 C 0.95727 0.45765 0.01853 0.0
C2999 C 0.96106 0.45976 0.00931 0.0
C3000 C 0.94638 0.43848 0.00387 0.0
H3001 H 0.05773 0.57732 0.97288 0.0
H3002 H 0.02357 0.53999 0.98035 0.0
C3003 C 0.92694 0.41583 0.00755 0.0
C3004 C 0.97952 0.48463 0.00536 0.0
H3005 H 0.98366 0.53211 0.99194 0.0
C3006 C 0.00558 0.49499 0.00725 0.0
C3007 C 0.9714 0.49827 -0.0001 0.0
C3008 C 0.94346 0.4884 0.99798 0.0
C3009 C 0.02393 0.5184 0.00357 0.0
C3010 C 0.01583 0.53195 0.99803 0.0
C3011 C 0.98972 0.5217 0.99623 0.0
C3012 C 0.03437 0.55595 0.99357 0.0
C3013 C 0.05186 0.52803 0.0054 0.0
C3014 C 0.05097 0.57772 0.99851 0.0
C3015 C 0.07057 0.59916 0.99426 0.0
C3016 C 0.07377 0.59907 0.985 0.0
C3017 C 0.05592 0.57791 0.98003 0.0
C3018 C 0.03638 0.55654 0.98428 0.0
H3019 H 0.05507 0.51283 0.00819 0.0
H3020 H 0.06336 0.5355 -0.00077 0.0
H3021 H 0.05898 0.54388 0.01029 0.0
H3022 H 0.04931 0.57777 0.00569 0.0
H3023 H 0.08393 0.61522 0.99828 0.0
H3024 H 0.40495 0.44872 0.97892 0.0
H3025 H 0.44612 0.45865 0.98525 0.0
H3026 H 0.42972 0.4888 0.00876 0.0
H3027 H 0.3884 0.47879 0.00253 0.0
H3028 H 0.48233 0.51046 0.98926 0.0
H3029 H 0.46163 0.44728 0.01865 0.0
H3030 H 0.43876 0.44009 0.00981 0.0
H3031 H 0.44378 0.46374 0.01803 0.0
C3032 C 0.40973 0.45678 0.98555 0.0
C3033 C 0.39351 0.46325 0.99017 0.0
C3034 C 0.43331 0.46251 0.98914 0.0
C3035 C 0.44095 0.47453 0.99744 0.0
C3036 C 0.42404 0.47928 0.00237 0.0
H3037 H 0.58507 0.53895 0.02614 0.0
H3038 H 0.54296 0.52988 0.02096 0.0
C3039 C 0.40043 0.47356 0.99879 0.0
C3040 C 0.46762 0.48481 0.00044 0.0
H3041 H 0.50443 0.48065 0.0168 0.0
C3042 C 0.48721 0.5039 0.99526 0.0
C3043 C 0.47379 0.47644 0.00833 0.0
C3044 C 0.45344 0.45562 0.01401 0.0
C3045 C 0.51293 0.51488 0.99777 0.0
C3046 C 0.51917 0.50619 0.00558 0.0
C3047 C 0.49954 0.48734 0.01083 0.0
C3048 C 0.54597 0.51521 0.00817 0.0
C3049 C 0.53314 0.53586 0.99209 0.0
C3050 C 0.56183 0.51061 0.00258 0.0
C3051 C 0.58592 0.51588 0.00549 0.0
C3052 C 0.59446 0.52557 0.01409 0.0
C3053 C 0.57909 0.53149 0.01948 0.0
C3054 C 0.55497 0.52622 0.01656 0.0
H3055 H 0.52504 0.5455 0.98805 0.0
H3056 H 0.54895 0.55042 0.99623 0.0
H3057 H 0.54125 0.52746 0.98746 0.0
H3058 H 0.5551 0.50176 0.99614 0.0
H3059 H 0.59724 0.51105 0.00117 0.0
loop_
_geom_bond_atom_site_label_1
_geom_bond_atom_site_label_2
_geom_bond_distance
_geom_bond_site_symmetry_2
_ccdc_geom_bond_type
C0 O1 1.160 . S
C0 O7 1.185 . S
O1 C0 1.160 . S
O2 Zn3 1.899 . S
O2 C10 1.284 . S
Zn3 O2 1.899 . S
Zn3 O4 2.032 . S
Zn3 O7 2.086 . S
Zn3 O12 1.977 . S
O4 Zn3 2.032 . S
O4 C8 1.278 . S
C5 O6 1.203 . S
C5 O12 1.267 . S
O6 C5 1.203 . S
O7 C0 1.185 . S
O7 Zn3 2.086 . S
C8 O4 1.278 . S
C8 O9 1.211 . S
O9 C8 1.211 . S
C10 O2 1.284 . S
C10 O11 1.273 . S
O11 C10 1.273 . S
O12 Zn3 1.977 . S
O12 C5 1.267 . S
C13 O14 1.160 . S
C13 O20 1.185 . S
O14 C13 1.160 . S
O15 Zn16 1.899 . S
O15 C23 1.284 . S
Zn16 O15 1.899 . S
Zn16 O17 2.032 . S
Zn16 O20 2.086 . S
Zn16 O25 1.977 1_545 S
O17 Zn16 2.032 . S
O17 C21 1.278 . S
C18 O19 1.203 . S
C18 O25 1.267 . S
O19 C18 1.203 . S
O20 C13 1.185 . S
O20 Zn16 2.086 . S
C21 O17 1.278 . S
C21 O22 1.211 1_545 S
O22 C21 1.211 1_565 S
C23 O15 1.284 . S
C23 O24 1.273 . S
O24 C23 1.273 . S
O25 Zn16 1.977 1_565 S
O25 C18 1.267 . S
C26 O27 1.160 . S
C26 O33 1.185 . S
O27 C26 1.160 . S
O28 Zn29 1.899 . S
O28 C36 1.284 . S
Zn29 O28 1.899 . S
Zn29 O30 2.032 . S
Zn29 O33 2.086 . S
Zn29 O38 1.977 1_655 S
O30 Zn29 2.032 . S
O30 C34 1.278 . S
C31 O32 1.203 . S
C31 O38 1.267 . S
O32 C31 1.203 . S
O33 C26 1.185 . S
O33 Zn29 2.086 . S
C34 O30 1.278 . S
C34 O35 1.211 1_655 S
O35 C34 1.211 1_455 S
C36 O28 1.284 . S
C36 O37 1.273 . S
O37 C36 1.273 . S
O38 Zn29 1.977 1_455 S
O38 C31 1.267 . S
C39 O40 1.160 . S
C39 O46 1.185 . S
O40 C39 1.160 . S
O41 Zn42 1.899 . S
O41 C49 1.284 . S
Zn42 O41 1.899 . S
Zn42 O43 2.032 . S
Zn42 O46 2.086 . S
Zn42 O51 1.977 . S
O43 Zn42 2.032 . S
O43 C47 1.278 . S
C44 O45 1.203 . S
C44 O51 1.267 . S
O45 C44 1.203 . S
O46 C39 1.185 . S
O46 Zn42 2.086 . S
C47 O43 1.278 . S
C47 O48 1.211 . S
O48 C47 1.211 . S
C49 O41 1.284 . S
C49 O50 1.273 . S
O50 C49 1.273 . S
O51 Zn42 1.977 . S
O51 C44 1.267 . S
C52 O53 1.160 . S
C52 O59 1.185 . S
O53 C52 1.160 . S
O54 Zn55 1.899 . S
O54 C62 1.284 . S
Zn55 O54 1.899 . S
Zn55 O56 2.032 . S
Zn55 O59 2.086 . S
Zn55 O64 1.977 1_565 S
O56 Zn55 2.032 . S
O56 C60 1.278 . S
C57 O58 1.203 . S
C57 O64 1.267 . S
O58 C57 1.203 . S
O59 C52 1.185 . S
O59 Zn55 2.086 . S
C60 O56 1.278 . S
C60 O61 1.211 1_565 S
O61 C60 1.211 1_545 S
C62 O54 1.284 . S
C62 O63 1.273 . S
O63 C62 1.273 . S
O64 Zn55 1.977 1_545 S
O64 C57 1.267 . S
C65 O66 1.160 . S
C65 O72 1.185 . S
O66 C65 1.160 . S
O67 Zn68 1.899 . S
O67 C75 1.284 . S
Zn68 O67 1.899 . S
Zn68 O69 2.032 . S
Zn68 O72 2.086 . S
Zn68 O77 1.977 1_455 S
O69 Zn68 2.032 . S
O69 C73 1.278 . S
C70 O71 1.203 . S
C70 O77 1.267 . S
O71 C70 1.203 . S
O72 C65 1.185 . S
O72 Zn68 2.086 . S
C73 O69 1.278 . S
C73 O74 1.211 1_455 S
O74 C73 1.211 1_655 S
C75 O67 1.284 . S
C75 O76 1.273 . S
O76 C75 1.273 . S
O77 Zn68 1.977 1_655 S
O77 C70 1.267 . S
C78 O79 1.160 . S
C78 O85 1.185 . S
O79 C78 1.160 . S
O80 Zn81 1.899 . S
O80 C88 1.284 . S
Zn81 O80 1.899 . S
Zn81 O82 2.032 . S
Zn81 O85 2.086 . S
Zn81 O90 1.977 . S
O82 Zn81 2.032 . S
O82 C86 1.278 . S
C83 O84 1.203 . S
C83 O90 1.267 . S
O84 C83 1.203 . S
O85 C78 1.185 . S
O85 Zn81 2.086 . S
C86 O82 1.278 . S
C86 O87 1.211 . S
O87 C86 1.211 . S
C88 O80 1.284 . S
C88 O89 1.273 . S
O89 C88 1.273 . S
O90 Zn81 1.977 . S
O90 C83 1.267 . S
C91 O92 1.160 . S
C91 O98 1.185 . S
O92 C91 1.160 . S
O93 Zn94 1.899 . S
O93 C101 1.284 . S
Zn94 O93 1.899 . S
Zn94 O95 2.032 . S
Zn94 O98 2.086 . S
Zn94 O103 1.977 1_565 S
O95 Zn94 2.032 . S
O95 C99 1.278 . S
C96 O97 1.203 . S
C96 O103 1.267 . S
O97 C96 1.203 . S
O98 C91 1.185 . S
O98 Zn94 2.086 . S
C99 O95 1.278 . S
C99 O100 1.211 . S
O100 C99 1.211 . S
C101 O93 1.284 . S
C101 O102 1.273 . S
O102 C101 1.273 . S
O103 Zn94 1.977 1_545 S
O103 C96 1.267 . S
C104 O105 1.160 . S
C104 O111 1.185 . S
O105 C104 1.160 . S
O106 Zn107 1.899 . S
O106 C114 1.284 . S
Zn107 O106 1.899 . S
Zn107 O108 2.032 . S
Zn107 O111 2.086 . S
Zn107 O116 1.977 1_455 S
O108 Zn107 2.032 . S
O108 C112 1.278 . S
C109 O110 1.203 . S
C109 O116 1.267 . S
O110 C109 1.203 . S
O111 C104 1.185 . S
O111 Zn107 2.086 . S
C112 O108 1.278 . S
C112 O113 1.211 . S
O113 C112 1.211 . S
C114 O106 1.284 . S
C114 O115 1.273 . S
O115 C114 1.273 . S
O116 Zn107 1.977 1_655 S
O116 C109 1.267 . S
C117 O118 1.160 . S
C117 O124 1.185 . S
O118 C117 1.160 . S
O119 Zn120 1.899 . S
O119 C127 1.284 . S
Zn120 O119 1.899 . S
Zn120 O121 2.032 . S
Zn120 O124 2.086 . S
Zn120 O129 1.977 . S
O121 Zn120 2.032 . S
O121 C125 1.278 . S
C122 O123 1.203 . S
C122 O129 1.267 . S
O123 C122 1.203 . S
O124 C117 1.185 . S
O124 Zn120 2.086 . S
C125 O121 1.278 . S
C125 O126 1.211 . S
O126 C125 1.211 . S
C127 O119 1.284 . S
C127 O128 1.273 . S
O128 C127 1.273 . S
O129 Zn120 1.977 . S
O129 C122 1.267 . S
C130 O131 1.160 . S
C130 O137 1.185 . S
O131 C130 1.160 . S
O132 Zn133 1.899 . S
O132 C140 1.284 . S
Zn133 O132 1.899 . S
Zn133 O134 2.032 . S
Zn133 O137 2.086 . S
Zn133 O142 1.977 1_545 S
O134 Zn133 2.032 . S
O134 C138 1.278 . S
C135 O136 1.203 . S
C135 O142 1.267 . S
O136 C135 1.203 . S
O137 C130 1.185 . S
O137 Zn133 2.086 . S
C138 O134 1.278 . S
C138 O139 1.211 . S
O139 C138 1.211 . S
C140 O132 1.284 . S
C140 O141 1.273 . S
O141 C140 1.273 . S
O142 Zn133 1.977 1_565 S
O142 C135 1.267 . S
C143 O144 1.160 . S
C143 O150 1.185 . S
O144 C143 1.160 . S
O145 Zn146 1.899 . S
O145 C153 1.284 . S
Zn146 O145 1.899 . S
Zn146 O147 2.032 . S
Zn146 O150 2.086 . S
Zn146 O155 1.977 1_655 S
O147 Zn146 2.032 . S
O147 C151 1.278 . S
C148 O149 1.203 . S
C148 O155 1.267 . S
O149 C148 1.203 . S
O150 C143 1.185 . S
O150 Zn146 2.086 . S
C151 O147 1.278 . S
C151 O152 1.211 . S
O152 C151 1.211 . S
C153 O145 1.284 . S
C153 O154 1.273 . S
O154 C153 1.273 . S
O155 Zn146 1.977 1_455 S
O155 C148 1.267 . S
C156 O157 1.160 . S
C156 O163 1.185 . S
O157 C156 1.160 . S
O158 Zn159 1.899 . S
O158 C166 1.284 . S
Zn159 O158 1.899 . S
Zn159 O160 2.032 . S
Zn159 O163 2.086 . S
Zn159 O168 1.977 . S
O160 Zn159 2.032 . S
O160 C164 1.278 . S
C161 O162 1.203 . S
C161 O168 1.267 . S
O162 C161 1.203 . S
O163 C156 1.185 . S
O163 Zn159 2.086 . S
C164 O160 1.278 . S
C164 O165 1.211 . S
O165 C164 1.211 . S
C166 O158 1.284 . S
C166 O167 1.273 . S
O167 C166 1.273 . S
O168 Zn159 1.977 . S
O168 C161 1.267 . S
C169 O170 1.160 . S
C169 O176 1.185 . S
O170 C169 1.160 . S
O171 Zn172 1.899 . S
O171 C179 1.284 . S
Zn172 O171 1.899 . S
Zn172 O173 2.032 . S
Zn172 O176 2.086 . S
Zn172 O181 1.977 . S
O173 Zn172 2.032 . S
O173 C177 1.278 . S
C174 O175 1.203 . S
C174 O181 1.267 . S
O175 C174 1.203 . S
O176 C169 1.185 . S
O176 Zn172 2.086 . S
C177 O173 1.278 . S
C177 O178 1.211 . S
O178 C177 1.211 . S
C179 O171 1.284 . S
C179 O180 1.273 . S
O180 C179 1.273 . S
O181 Zn172 1.977 . S
O181 C174 1.267 . S
C182 O183 1.160 . S
C182 O189 1.185 . S
O183 C182 1.160 . S
O184 Zn185 1.899 . S
O184 C192 1.284 . S
Zn185 O184 1.899 . S
Zn185 O186 2.032 . S
Zn185 O189 2.086 . S
Zn185 O194 1.977 . S
O186 Zn185 2.032 . S
O186 C190 1.278 . S
C187 O188 1.203 . S
C187 O194 1.267 . S
O188 C187 1.203 . S
O189 C182 1.185 . S
O189 Zn185 2.086 . S
C190 O186 1.278 . S
C190 O191 1.211 . S
O191 C190 1.211 . S
C192 O184 1.284 . S
C192 O193 1.273 . S
O193 C192 1.273 . S
O194 Zn185 1.977 . S
O194 C187 1.267 . S
C195 O196 1.160 . S
C195 O202 1.185 . S
O196 C195 1.160 . S
O197 Zn198 1.899 . S
O197 C205 1.284 . S
Zn198 O197 1.899 . S
Zn198 O199 2.032 . S
Zn198 O202 2.086 . S
Zn198 O207 1.977 . S
O199 Zn198 2.032 . S
O199 C203 1.278 . S
C200 O201 1.203 . S
C200 O207 1.267 . S
O201 C200 1.203 . S
O202 C195 1.185 . S
O202 Zn198 2.086 . S
C203 O199 1.278 . S
C203 O204 1.211 . S
O204 C203 1.211 . S
C205 O197 1.284 . S
C205 O206 1.273 . S
O206 C205 1.273 . S
O207 Zn198 1.977 . S
O207 C200 1.267 . S
C208 O209 1.160 . S
C208 O215 1.185 . S
O209 C208 1.160 . S
O210 Zn211 1.899 . S
O210 C218 1.284 . S
Zn211 O210 1.899 . S
Zn211 O212 2.032 . S
Zn211 O215 2.086 . S
Zn211 O220 1.977 . S
O212 Zn211 2.032 . S
O212 C216 1.278 . S
C213 O214 1.203 . S
C213 O220 1.267 . S
O214 C213 1.203 . S
O215 C208 1.185 . S
O215 Zn211 2.086 . S
C216 O212 1.278 . S
C216 O217 1.211 . S
O217 C216 1.211 . S
C218 O210 1.284 . S
C218 O219 1.273 . S
O219 C218 1.273 . S
O220 Zn211 1.977 . S
O220 C213 1.267 . S
C221 O222 1.160 . S
C221 O228 1.185 . S
O222 C221 1.160 . S
O223 Zn224 1.899 . S
O223 C231 1.284 . S
Zn224 O223 1.899 . S
Zn224 O225 2.032 . S
Zn224 O228 2.086 . S
Zn224 O233 1.977 . S
O225 Zn224 2.032 . S
O225 C229 1.278 . S
C226 O227 1.203 . S
C226 O233 1.267 . S
O227 C226 1.203 . S
O228 C221 1.185 . S
O228 Zn224 2.086 . S
C229 O225 1.278 . S
C229 O230 1.211 . S
O230 C229 1.211 . S
C231 O223 1.284 . S
C231 O232 1.273 . S
O232 C231 1.273 . S
O233 Zn224 1.977 . S
O233 C226 1.267 . S
C234 O235 1.160 . S
C234 O241 1.185 . S
O235 C234 1.160 . S
O236 Zn237 1.899 . S
O236 C244 1.284 . S
Zn237 O236 1.899 . S
Zn237 O238 2.032 . S
Zn237 O241 2.086 . S
Zn237 O246 1.977 . S
O238 Zn237 2.032 . S
O238 C242 1.278 . S
C239 O240 1.203 . S
C239 O246 1.267 . S
O240 C239 1.203 . S
O241 C234 1.185 . S
O241 Zn237 2.086 . S
C242 O238 1.278 . S
C242 O243 1.211 . S
O243 C242 1.211 . S
C244 O236 1.284 . S
C244 O245 1.273 . S
O245 C244 1.273 . S
O246 Zn237 1.977 . S
O246 C239 1.267 . S
C247 O248 1.160 . S
C247 O254 1.185 . S
O248 C247 1.160 . S
O249 Zn250 1.899 . S
O249 C257 1.284 . S
Zn250 O249 1.899 . S
Zn250 O251 2.032 . S
Zn250 O254 2.086 . S
Zn250 O259 1.977 . S
O251 Zn250 2.032 . S
O251 C255 1.278 . S
C252 O253 1.203 . S
C252 O259 1.267 . S
O253 C252 1.203 . S
O254 C247 1.185 . S
O254 Zn250 2.086 . S
C255 O251 1.278 . S
C255 O256 1.211 . S
O256 C255 1.211 . S
C257 O249 1.284 . S
C257 O258 1.273 . S
O258 C257 1.273 . S
O259 Zn250 1.977 . S
O259 C252 1.267 . S
C260 O261 1.160 . S
C260 O267 1.185 . S
O261 C260 1.160 . S
O262 Zn263 1.899 . S
O262 C270 1.284 . S
Zn263 O262 1.899 . S
Zn263 O264 2.032 . S
Zn263 O267 2.086 . S
Zn263 O272 1.977 . S
O264 Zn263 2.032 . S
O264 C268 1.278 . S
C265 O266 1.203 . S
C265 O272 1.267 . S
O266 C265 1.203 . S
O267 C260 1.185 . S
O267 Zn263 2.086 . S
C268 O264 1.278 . S
C268 O269 1.211 . S
O269 C268 1.211 . S
C270 O262 1.284 . S
C270 O271 1.273 . S
O271 C270 1.273 . S
O272 Zn263 1.977 . S
O272 C265 1.267 . S
C273 O274 1.160 . S
C273 O280 1.185 . S
O274 C273 1.160 . S
O275 Zn276 1.899 . S
O275 C283 1.284 . S
Zn276 O275 1.899 . S
Zn276 O277 2.032 . S
Zn276 O280 2.086 . S
Zn276 O285 1.977 . S
O277 Zn276 2.032 . S
O277 C281 1.278 . S
C278 O279 1.203 . S
C278 O285 1.267 . S
O279 C278 1.203 . S
O280 C273 1.185 . S
O280 Zn276 2.086 . S
C281 O277 1.278 . S
C281 O282 1.211 . S
O282 C281 1.211 . S
C283 O275 1.284 . S
C283 O284 1.273 . S
O284 C283 1.273 . S
O285 Zn276 1.977 . S
O285 C278 1.267 . S
C286 O287 1.160 . S
C286 O293 1.185 . S
O287 C286 1.160 . S
O288 Zn289 1.899 . S
O288 C296 1.284 . S
Zn289 O288 1.899 . S
Zn289 O290 2.032 . S
Zn289 O293 2.086 . S
Zn289 O298 1.977 . S
O290 Zn289 2.032 . S
O290 C294 1.278 . S
C291 O292 1.203 . S
C291 O298 1.267 . S
O292 C291 1.203 . S
O293 C286 1.185 . S
O293 Zn289 2.086 . S
C294 O290 1.278 . S
C294 O295 1.211 . S
O295 C294 1.211 . S
C296 O288 1.284 . S
C296 O297 1.273 . S
O297 C296 1.273 . S
O298 Zn289 1.977 . S
O298 C291 1.267 . S
C299 O300 1.160 . S
C299 O306 1.185 . S
O300 C299 1.160 . S
O301 Zn302 1.899 . S
O301 C309 1.284 . S
Zn302 O301 1.899 . S
Zn302 O303 2.032 . S
Zn302 O306 2.086 . S
Zn302 O311 1.977 . S
O303 Zn302 2.032 . S
O303 C307 1.278 . S
C304 O305 1.203 . S
C304 O311 1.267 . S
O305 C304 1.203 . S
O306 C299 1.185 . S
O306 Zn302 2.086 . S
C307 O303 1.278 . S
C307 O308 1.211 . S
O308 C307 1.211 . S
C309 O301 1.284 . S
C309 O310 1.273 . S
O310 C309 1.273 . S
O311 Zn302 1.977 . S
O311 C304 1.267 . S
C312 O313 1.160 . S
C312 O319 1.185 . S
O313 C312 1.160 . S
O314 Zn315 1.899 . S
O314 C322 1.284 . S
Zn315 O314 1.899 . S
Zn315 O316 2.032 . S
Zn315 O319 2.086 . S
Zn315 O324 1.977 . S
O316 Zn315 2.032 . S
O316 C320 1.278 . S
C317 O318 1.203 . S
C317 O324 1.267 . S
O318 C317 1.203 . S
O319 C312 1.185 . S
O319 Zn315 2.086 . S
C320 O316 1.278 . S
C320 O321 1.211 . S
O321 C320 1.211 . S
C322 O314 1.284 . S
C322 O323 1.273 . S
O323 C322 1.273 . S
O324 Zn315 1.977 . S
O324 C317 1.267 . S
C325 O326 1.160 . S
C325 O332 1.185 . S
O326 C325 1.160 . S
O327 Zn328 1.899 . S
O327 C335 1.284 . S
Zn328 O327 1.899 . S
Zn328 O329 2.032 . S
Zn328 O332 2.086 . S
Zn328 O337 1.977 . S
O329 Zn328 2.032 . S
O329 C333 1.278 . S
C330 O331 1.203 . S
C330 O337 1.267 . S
O331 C330 1.203 . S
O332 C325 1.185 . S
O332 Zn328 2.086 . S
C333 O329 1.278 . S
C333 O334 1.211 . S
O334 C333 1.211 . S
C335 O327 1.284 . S
C335 O336 1.273 . S
O336 C335 1.273 . S
O337 Zn328 1.977 . S
O337 C330 1.267 . S
C338 O339 1.160 . S
C338 O345 1.185 . S
O339 C338 1.160 . S
O340 Zn341 1.899 . S
O340 C348 1.284 . S
Zn341 O340 1.899 . S
Zn341 O342 2.032 . S
Zn341 O345 2.086 . S
Zn341 O350 1.977 . S
O342 Zn341 2.032 . S
O342 C346 1.278 . S
C343 O344 1.203 . S
C343 O350 1.267 . S
O344 C343 1.203 . S
O345 C338 1.185 . S
O345 Zn341 2.086 . S
C346 O342 1.278 . S
C346 O347 1.211 . S
O347 C346 1.211 . S
C348 O340 1.284 . S
C348 O349 1.273 . S
O349 C348 1.273 . S
O350 Zn341 1.977 . S
O350 C343 1.267 . S
C351 O352 1.160 . S
C351 O358 1.185 . S
O352 C351 1.160 . S
O353 Zn354 1.899 . S
O353 C361 1.284 . S
Zn354 O353 1.899 . S
Zn354 O355 2.032 . S
Zn354 O358 2.086 . S
Zn354 O363 1.977 . S
O355 Zn354 2.032 . S
O355 C359 1.278 . S
C356 O357 1.203 . S
C356 O363 1.267 . S
O357 C356 1.203 . S
O358 C351 1.185 . S
O358 Zn354 2.086 . S
C359 O355 1.278 . S
C359 O360 1.211 . S
O360 C359 1.211 . S
C361 O353 1.284 . S
C361 O362 1.273 . S
O362 C361 1.273 . S
O363 Zn354 1.977 . S
O363 C356 1.267 . S
C364 O365 1.160 . S
C364 O371 1.185 . S
O365 C364 1.160 . S
O366 Zn367 1.899 . S
O366 C374 1.284 . S
Zn367 O366 1.899 . S
Zn367 O368 2.032 . S
Zn367 O371 2.086 . S
Zn367 O376 1.977 . S
O368 Zn367 2.032 . S
O368 C372 1.278 . S
C369 O370 1.203 . S
C369 O376 1.267 . S
O370 C369 1.203 . S
O371 C364 1.185 . S
O371 Zn367 2.086 . S
C372 O368 1.278 . S
C372 O373 1.211 . S
O373 C372 1.211 . S
C374 O366 1.284 . S
C374 O375 1.273 . S
O375 C374 1.273 . S
O376 Zn367 1.977 . S
O376 C369 1.267 . S
C377 O378 1.160 . S
C377 O384 1.185 . S
O378 C377 1.160 . S
O379 Zn380 1.899 . S
O379 C387 1.284 . S
Zn380 O379 1.899 . S
Zn380 O381 2.032 . S
Zn380 O384 2.086 . S
Zn380 O389 1.977 . S
O381 Zn380 2.032 . S
O381 C385 1.278 . S
C382 O383 1.203 . S
C382 O389 1.267 . S
O383 C382 1.203 . S
O384 C377 1.185 . S
O384 Zn380 2.086 . S
C385 O381 1.278 . S
C385 O386 1.211 . S
O386 C385 1.211 . S
C387 O379 1.284 . S
C387 O388 1.273 . S
O388 C387 1.273 . S
O389 Zn380 1.977 . S
O389 C382 1.267 . S
C390 O391 1.160 . S
C390 O397 1.185 . S
O391 C390 1.160 . S
O392 Zn393 1.899 . S
O392 C400 1.284 . S
Zn393 O392 1.899 . S
Zn393 O394 2.032 . S
Zn393 O397 2.086 . S
Zn393 O402 1.977 . S
O394 Zn393 2.032 . S
O394 C398 1.278 . S
C395 O396 1.203 . S
C395 O402 1.267 . S
O396 C395 1.203 . S
O397 C390 1.185 . S
O397 Zn393 2.086 . S
C398 O394 1.278 . S
C398 O399 1.211 . S
O399 C398 1.211 . S
C400 O392 1.284 . S
C400 O401 1.273 . S
O401 C400 1.273 . S
O402 Zn393 1.977 . S
O402 C395 1.267 . S
C403 O404 1.160 . S
C403 O410 1.185 . S
O404 C403 1.160 . S
O405 Zn406 1.899 . S
O405 C413 1.284 . S
Zn406 O405 1.899 . S
Zn406 O407 2.032 . S
Zn406 O410 2.086 . S
Zn406 O415 1.977 . S
O407 Zn406 2.032 . S
O407 C411 1.278 . S
C408 O409 1.203 . S
C408 O415 1.267 . S
O409 C408 1.203 . S
O410 C403 1.185 . S
O410 Zn406 2.086 . S
C411 O407 1.278 . S
C411 O412 1.211 . S
O412 C411 1.211 . S
C413 O405 1.284 . S
C413 O414 1.273 . S
O414 C413 1.273 . S
O415 Zn406 1.977 . S
O415 C408 1.267 . S
C416 O417 1.160 . S
C416 O423 1.185 . S
O417 C416 1.160 . S
O418 Zn419 1.899 . S
O418 C426 1.284 . S
Zn419 O418 1.899 . S
Zn419 O420 2.032 . S
Zn419 O423 2.086 . S
Zn419 O428 1.977 . S
O420 Zn419 2.032 . S
O420 C424 1.278 . S
C421 O422 1.203 . S
C421 O428 1.267 . S
O422 C421 1.203 . S
O423 C416 1.185 . S
O423 Zn419 2.086 . S
C424 O420 1.278 . S
C424 O425 1.211 . S
O425 C424 1.211 . S
C426 O418 1.284 . S
C426 O427 1.273 . S
O427 C426 1.273 . S
O428 Zn419 1.977 . S
O428 C421 1.267 . S
C429 O430 1.160 . S
C429 O436 1.185 . S
O430 C429 1.160 . S
O431 Zn432 1.899 . S
O431 C439 1.284 . S
Zn432 O431 1.899 . S
Zn432 O433 2.032 . S
Zn432 O436 2.086 . S
Zn432 O441 1.977 . S
O433 Zn432 2.032 . S
O433 C437 1.278 . S
C434 O435 1.203 . S
C434 O441 1.267 . S
O435 C434 1.203 . S
O436 C429 1.185 . S
O436 Zn432 2.086 . S
C437 O433 1.278 . S
C437 O438 1.211 . S
O438 C437 1.211 . S
C439 O431 1.284 . S
C439 O440 1.273 . S
O440 C439 1.273 . S
O441 Zn432 1.977 . S
O441 C434 1.267 . S
C442 O443 1.160 . S
C442 O449 1.185 . S
O443 C442 1.160 . S
O444 Zn445 1.899 . S
O444 C452 1.284 . S
Zn445 O444 1.899 . S
Zn445 O446 2.032 . S
Zn445 O449 2.086 . S
Zn445 O454 1.977 . S
O446 Zn445 2.032 . S
O446 C450 1.278 . S
C447 O448 1.203 . S
C447 O454 1.267 . S
O448 C447 1.203 . S
O449 C442 1.185 . S
O449 Zn445 2.086 . S
C450 O446 1.278 . S
C450 O451 1.211 . S
O451 C450 1.211 . S
C452 O444 1.284 . S
C452 O453 1.273 . S
O453 C452 1.273 . S
O454 Zn445 1.977 . S
O454 C447 1.267 . S
C455 O456 1.160 . S
C455 O462 1.185 . S
O456 C455 1.160 . S
O457 Zn458 1.899 . S
O457 C465 1.284 . S
Zn458 O457 1.899 . S
Zn458 O459 2.032 . S
Zn458 O462 2.086 . S
Zn458 O467 1.977 . S
O459 Zn458 2.032 . S
O459 C463 1.278 . S
C460 O461 1.203 . S
C460 O467 1.267 . S
O461 C460 1.203 . S
O462 C455 1.185 . S
O462 Zn458 2.086 . S
C463 O459 1.278 . S
C463 O464 1.211 . S
O464 C463 1.211 . S
C465 O457 1.284 . S
C465 O466 1.273 . S
O466 C465 1.273 . S
O467 Zn458 1.977 . S
O467 C460 1.267 . S
H468 C476 0.929 . S
H469 C478 0.930 . S
H470 C480 0.930 . S
H471 C483 0.929 . S
H472 C486 0.930 . S
H473 C488 0.960 . S
H474 C488 0.960 . S
H475 C488 0.960 . S
C476 H468 0.929 . S
C476 C477 1.377 . S
C476 C478 1.384 . S
C477 C476 1.377 . S
C477 C483 1.390 . S
C478 H469 0.930 . S
C478 C476 1.384 . S
C478 C479 1.372 . S
C479 C478 1.372 . S
C479 C480 1.400 . S
C479 C484 1.490 . S
C480 H470 0.930 . S
C480 C479 1.400 . S
C480 C483 1.386 . S
H481 C497 0.930 . S
H482 C498 0.931 . S
C483 H471 0.929 . S
C483 C477 1.390 . S
C483 C480 1.386 . S
C484 C479 1.490 . S
C484 C486 1.395 . S
C484 C487 1.403 . S
H485 C491 0.930 1_655 S
C486 H472 0.930 . S
C486 C484 1.395 . S
C486 C489 1.403 . S
C487 C484 1.403 . S
C487 C488 1.524 . S
C487 C491 1.400 . S
C488 H473 0.960 . S
C488 H474 0.960 . S
C488 H475 0.960 . S
C488 C487 1.524 . S
C489 C486 1.403 . S
C489 C490 1.392 1_455 S
C489 C493 1.495 1_455 S
C490 C489 1.392 1_655 S
C490 C491 1.385 1_655 S
C490 C492 1.478 . S
C491 H485 0.930 1_455 S
C491 C487 1.400 . S
C491 C490 1.385 1_455 S
C492 C490 1.478 . S
C492 C494 1.381 . S
C492 C498 1.383 . S
C493 C489 1.495 1_655 S
C493 H499 0.959 . S
C493 H500 0.961 . S
C493 H501 0.960 . S
C494 C492 1.381 . S
C494 C495 1.394 . S
C494 H502 0.930 . S
C495 C494 1.394 . S
C495 C496 1.383 . S
C495 H503 0.929 . S
C496 C495 1.383 . S
C496 C497 1.377 . S
C497 H481 0.930 . S
C497 C496 1.377 . S
C497 C498 1.379 . S
C498 H482 0.931 . S
C498 C492 1.383 . S
C498 C497 1.379 . S
H499 C493 0.959 . S
H500 C493 0.961 . S
H501 C493 0.960 . S
H502 C494 0.930 . S
H503 C495 0.929 . S
H504 C512 0.929 . S
H505 C514 0.930 . S
H506 C516 0.930 . S
H507 C519 0.929 . S
H508 C522 0.930 . S
H509 C524 0.960 . S
H510 C524 0.960 . S
H511 C524 0.960 . S
C512 H504 0.929 . S
C512 C513 1.377 . S
C512 C514 1.384 . S
C513 C512 1.377 . S
C513 C519 1.390 . S
C514 H505 0.930 . S
C514 C512 1.384 . S
C514 C515 1.372 . S
C515 C514 1.372 . S
C515 C516 1.400 . S
C515 C520 1.490 . S
C516 H506 0.930 . S
C516 C515 1.400 . S
C516 C519 1.386 . S
H517 C533 0.930 . S
H518 C534 0.931 . S
C519 H507 0.929 . S
C519 C513 1.390 . S
C519 C516 1.386 . S
C520 C515 1.490 . S
C520 C522 1.395 . S
C520 C523 1.403 . S
H521 C527 0.930 . S
C522 H508 0.930 . S
C522 C520 1.395 . S
C522 C525 1.403 . S
C523 C520 1.403 . S
C523 C524 1.524 . S
C523 C527 1.400 . S
C524 H509 0.960 . S
C524 H510 0.960 . S
C524 H511 0.960 . S
C524 C523 1.524 . S
C525 C522 1.403 . S
C525 C526 1.392 . S
C525 C529 1.495 . S
C526 C525 1.392 . S
C526 C527 1.385 . S
C526 C528 1.478 . S
C527 H521 0.930 . S
C527 C523 1.400 . S
C527 C526 1.385 . S
C528 C526 1.478 . S
C528 C530 1.381 . S
C528 C534 1.383 . S
C529 C525 1.495 . S
C529 H535 0.959 . S
C529 H536 0.961 . S
C529 H537 0.960 . S
C530 C528 1.381 . S
C530 C531 1.394 . S
C530 H538 0.930 . S
C531 C530 1.394 . S
C531 C532 1.383 . S
C531 H539 0.929 . S
C532 C531 1.383 . S
C532 C533 1.377 . S
C533 H517 0.930 . S
C533 C532 1.377 . S
C533 C534 1.379 . S
C534 H518 0.931 . S
C534 C528 1.383 . S
C534 C533 1.379 . S
H535 C529 0.959 . S
H536 C529 0.961 . S
H537 C529 0.960 . S
H538 C530 0.930 . S
H539 C531 0.929 . S
H540 C548 0.929 . S
H541 C550 0.930 . S
H542 C552 0.930 . S
H543 C555 0.929 . S
H544 C558 0.924 1_545 S
H545 C560 0.960 1_565 S
H546 C560 0.960 . S
H547 C560 0.960 . S
C548 H540 0.929 . S
C548 C549 1.377 . S
C548 C550 1.384 . S
C549 C548 1.377 . S
C549 C555 1.390 . S
C550 H541 0.930 . S
C550 C548 1.384 . S
C550 C551 1.372 . S
C551 C550 1.372 . S
C551 C552 1.400 . S
C551 C556 1.490 . S
C552 H542 0.930 . S
C552 C551 1.400 . S
C552 C555 1.386 . S
H553 C569 0.930 . S
H554 C570 0.931 . S
C555 H543 0.929 . S
C555 C549 1.390 . S
C555 C552 1.386 . S
C556 C551 1.490 . S
C556 C558 1.363 1_545 S
C556 C559 1.403 1_545 S
H557 C563 0.930 . S
C558 H544 0.924 1_565 S
C558 C556 1.363 1_565 S
C558 C561 1.441 . S
C559 C556 1.403 1_565 S
C559 C560 1.524 1_565 S
C559 C563 1.400 . S
C560 H545 0.960 1_545 S
C560 H546 0.960 . S
C560 H547 0.960 . S
C560 C559 1.524 1_545 S
C561 C558 1.441 . S
C561 C562 1.392 . S
C561 C565 1.495 . S
C562 C561 1.392 . S
C562 C563 1.385 . S
C562 C564 1.478 . S
C563 H557 0.930 . S
C563 C559 1.400 . S
C563 C562 1.385 . S
C564 C562 1.478 . S
C564 C566 1.381 . S
C564 C570 1.383 . S
C565 C561 1.495 . S
C565 H571 0.959 . S
C565 H572 0.961 . S
C565 H573 0.960 . S
C566 C564 1.381 . S
C566 C567 1.394 . S
C566 H574 0.930 . S
C567 C566 1.394 . S
C567 C568 1.383 . S
C567 H575 0.929 . S
C568 C567 1.383 . S
C568 C569 1.377 . S
C569 H553 0.930 . S
C569 C568 1.377 . S
C569 C570 1.379 . S
C570 H554 0.931 . S
C570 C564 1.383 . S
C570 C569 1.379 . S
H571 C565 0.959 . S
H572 C565 0.961 . S
H573 C565 0.960 . S
H574 C566 0.930 . S
H575 C567 0.929 . S
H576 C584 0.929 . S
H577 C586 0.930 . S
H578 C588 0.930 . S
H579 C591 0.929 . S
H580 C594 0.930 . S
H581 C596 0.960 . S
H582 C596 0.960 . S
H583 C596 0.960 . S
C584 H576 0.929 . S
C584 C585 1.377 . S
C584 C586 1.384 . S
C585 C584 1.377 . S
C585 C591 1.390 . S
C586 H577 0.930 . S
C586 C584 1.384 . S
C586 C587 1.372 . S
C587 C586 1.372 . S
C587 C588 1.400 . S
C587 C592 1.490 . S
C588 H578 0.930 . S
C588 C587 1.400 . S
C588 C591 1.386 . S
H589 C605 0.930 . S
H590 C606 0.931 . S
C591 H579 0.929 . S
C591 C585 1.390 . S
C591 C588 1.386 . S
C592 C587 1.490 . S
C592 C594 1.395 . S
C592 C595 1.403 . S
H593 C599 0.926 1_565 S
C594 H580 0.930 . S
C594 C592 1.395 . S
C594 C597 1.403 . S
C595 C592 1.403 . S
C595 C596 1.524 . S
C595 C599 1.407 . S
C596 H581 0.960 . S
C596 H582 0.960 . S
C596 H583 0.960 . S
C596 C595 1.524 . S
C597 C594 1.403 . S
C597 C598 1.392 1_545 S
C597 C601 1.495 1_545 S
C598 C597 1.392 1_565 S
C598 C599 1.382 1_565 S
C598 C600 1.478 . S
C599 H593 0.926 1_545 S
C599 C595 1.407 . S
C599 C598 1.382 1_545 S
C600 C598 1.478 . S
C600 C602 1.381 . S
C600 C606 1.383 . S
C601 C597 1.495 1_565 S
C601 H607 0.959 1_565 S
C601 H608 0.961 . S
C601 H609 0.960 . S
C602 C600 1.381 . S
C602 C603 1.394 . S
C602 H610 0.930 . S
C603 C602 1.394 . S
C603 C604 1.383 . S
C603 H611 0.929 . S
C604 C603 1.383 . S
C604 C605 1.377 . S
C605 H589 0.930 . S
C605 C604 1.377 . S
C605 C606 1.379 . S
C606 H590 0.931 . S
C606 C600 1.383 . S
C606 C605 1.379 . S
H607 C601 0.959 1_545 S
H608 C601 0.961 . S
H609 C601 0.960 . S
H610 C602 0.930 . S
H611 C603 0.929 . S
H612 C620 0.929 . S
H613 C622 0.930 . S
H614 C624 0.930 . S
H615 C627 0.929 . S
H616 C630 0.930 . S
H617 C632 0.960 . S
H618 C632 0.960 . S
H619 C632 0.960 . S
C620 H612 0.929 . S
C620 C621 1.377 . S
C620 C622 1.384 . S
C621 C620 1.377 . S
C621 C627 1.390 . S
C622 H613 0.930 . S
C622 C620 1.384 . S
C622 C623 1.372 . S
C623 C622 1.372 . S
C623 C624 1.400 . S
C623 C628 1.490 . S
C624 H614 0.930 . S
C624 C623 1.400 . S
C624 C627 1.386 . S
H625 C641 0.930 . S
H626 C642 0.931 . S
C627 H615 0.929 . S
C627 C621 1.390 . S
C627 C624 1.386 . S
C628 C623 1.490 . S
C628 C630 1.395 . S
C628 C631 1.403 . S
H629 C635 0.930 1_455 S
C630 H616 0.930 . S
C630 C628 1.395 . S
C630 C633 1.403 . S
C631 C628 1.403 . S
C631 C632 1.524 . S
C631 C635 1.400 . S
C632 H617 0.960 . S
C632 H618 0.960 . S
C632 H619 0.960 . S
C632 C631 1.524 . S
C633 C630 1.403 . S
C633 C634 1.392 1_655 S
C633 C637 1.495 1_655 S
C634 C633 1.392 1_455 S
C634 C635 1.385 1_455 S
C634 C636 1.478 . S
C635 H629 0.930 1_655 S
C635 C631 1.400 . S
C635 C634 1.385 1_655 S
C636 C634 1.478 . S
C636 C638 1.381 . S
C636 C642 1.383 . S
C637 C633 1.495 1_455 S
C637 H643 0.950 1_455 S
C637 H644 0.961 . S
C637 H645 0.960 . S
C638 C636 1.381 . S
C638 C639 1.394 . S
C638 H646 0.930 . S
C639 C638 1.394 . S
C639 C640 1.383 . S
C639 H647 0.929 . S
C640 C639 1.383 . S
C640 C641 1.377 . S
C641 H625 0.930 . S
C641 C640 1.377 . S
C641 C642 1.379 . S
C642 H626 0.931 . S
C642 C636 1.383 . S
C642 C641 1.379 . S
H643 C637 0.950 1_655 S
H644 C637 0.961 . S
H645 C637 0.960 . S
H646 C638 0.930 . S
H647 C639 0.929 . S
H648 C656 0.929 . S
H649 C658 0.930 . S
H650 C660 0.930 . S
H651 C663 0.929 . S
H652 C666 0.930 . S
H653 C668 0.960 . S
H654 C668 0.960 . S
H655 C668 0.960 . S
C656 H648 0.929 . S
C656 C657 1.377 . S
C656 C658 1.384 . S
C657 C656 1.377 . S
C657 C663 1.390 . S
C658 H649 0.930 . S
C658 C656 1.384 . S
C658 C659 1.372 . S
C659 C658 1.372 . S
C659 C660 1.400 . S
C659 C664 1.490 . S
C660 H650 0.930 . S
C660 C659 1.400 . S
C660 C663 1.386 . S
H661 C677 0.930 . S
H662 C678 0.931 . S
C663 H651 0.929 . S
C663 C657 1.390 . S
C663 C660 1.386 . S
C664 C659 1.490 . S
C664 C666 1.395 . S
C664 C667 1.403 . S
H665 C671 0.930 . S
C666 H652 0.930 . S
C666 C664 1.395 . S
C666 C669 1.403 . S
C667 C664 1.403 . S
C667 C668 1.524 . S
C667 C671 1.400 . S
C668 H653 0.960 . S
C668 H654 0.960 . S
C668 H655 0.960 . S
C668 C667 1.524 . S
C669 C666 1.403 . S
C669 C670 1.392 . S
C669 C673 1.495 . S
C670 C669 1.392 . S
C670 C671 1.385 . S
C670 C672 1.478 . S
C671 H665 0.930 . S
C671 C667 1.400 . S
C671 C670 1.385 . S
C672 C670 1.478 . S
C672 C674 1.381 . S
C672 C678 1.383 . S
C673 C669 1.495 . S
C673 H679 0.959 . S
C673 H680 0.961 . S
C673 H681 0.960 . S
C674 C672 1.381 . S
C674 C675 1.394 . S
C674 H682 0.930 . S
C675 C674 1.394 . S
C675 C676 1.383 . S
C675 H683 0.929 . S
C676 C675 1.383 . S
C676 C677 1.377 . S
C677 H661 0.930 . S
C677 C676 1.377 . S
C677 C678 1.379 . S
C678 H662 0.931 . S
C678 C672 1.383 . S
C678 C677 1.379 . S
H679 C673 0.959 . S
H680 C673 0.961 . S
H681 C673 0.960 . S
H682 C674 0.930 . S
H683 C675 0.929 . S
H684 C692 0.929 . S
H685 C694 0.930 . S
H686 C696 0.930 . S
H687 C699 0.929 . S
H688 C702 0.930 . S
H689 C704 0.960 . S
H690 C704 0.960 . S
H691 C704 0.960 . S
C692 H684 0.929 . S
C692 C693 1.377 . S
C692 C694 1.384 . S
C693 C692 1.377 . S
C693 C699 1.390 . S
C694 H685 0.930 . S
C694 C692 1.384 . S
C694 C695 1.372 . S
C695 C694 1.372 . S
C695 C696 1.400 . S
C695 C700 1.490 . S
C696 H686 0.930 . S
C696 C695 1.400 . S
C696 C699 1.386 . S
H697 C713 0.930 . S
H698 C714 0.931 . S
C699 H687 0.929 . S
C699 C693 1.390 . S
C699 C696 1.386 . S
C700 C695 1.490 . S
C700 C702 1.395 . S
C700 C703 1.403 . S
H701 C707 0.930 1_455 S
C702 H688 0.930 . S
C702 C700 1.395 . S
C702 C705 1.403 . S
C703 C700 1.403 . S
C703 C704 1.524 . S
C703 C707 1.400 . S
C704 H689 0.960 . S
C704 H690 0.960 . S
C704 H691 0.960 . S
C704 C703 1.524 . S
C705 C702 1.403 . S
C705 C706 1.392 1_655 S
C705 C709 1.495 1_655 S
C706 C705 1.392 1_455 S
C706 C707 1.385 1_455 S
C706 C708 1.478 . S
C707 H701 0.930 1_655 S
C707 C703 1.400 . S
C707 C706 1.385 1_655 S
C708 C706 1.478 . S
C708 C710 1.381 . S
C708 C714 1.383 . S
C709 C705 1.495 1_455 S
C709 H715 0.959 1_455 S
C709 H716 0.961 . S
C709 H717 0.960 . S
C710 C708 1.381 . S
C710 C711 1.394 . S
C710 H718 0.930 . S
C711 C710 1.394 . S
C711 C712 1.383 . S
C711 H719 0.929 . S
C712 C711 1.383 . S
C712 C713 1.377 . S
C713 H697 0.930 . S
C713 C712 1.377 . S
C713 C714 1.379 . S
C714 H698 0.931 . S
C714 C708 1.383 . S
C714 C713 1.379 . S
H715 C709 0.959 1_655 S
H716 C709 0.961 . S
H717 C709 0.960 . S
H718 C710 0.930 . S
H719 C711 0.929 . S
H720 C728 0.929 . S
H721 C730 0.930 . S
H722 C732 0.930 . S
H723 C735 0.929 . S
H724 C738 0.930 . S
H725 C740 0.960 . S
H726 C740 0.960 . S
H727 C740 0.960 . S
C728 H720 0.929 . S
C728 C729 1.377 . S
C728 C730 1.384 . S
C729 C728 1.377 . S
C729 C735 1.390 . S
C730 H721 0.930 . S
C730 C728 1.384 . S
C730 C731 1.372 . S
C731 C730 1.372 . S
C731 C732 1.400 . S
C731 C736 1.490 . S
C732 H722 0.930 . S
C732 C731 1.400 . S
C732 C735 1.386 . S
H733 C749 0.930 . S
H734 C750 0.931 . S
C735 H723 0.929 . S
C735 C729 1.390 . S
C735 C732 1.386 . S
C736 C731 1.490 . S
C736 C738 1.395 . S
C736 C739 1.403 . S
H737 C743 0.930 . S
C738 H724 0.930 . S
C738 C736 1.395 . S
C738 C741 1.403 . S
C739 C736 1.403 . S
C739 C740 1.524 . S
C739 C743 1.400 . S
C740 H725 0.960 . S
C740 H726 0.960 . S
C740 H727 0.960 . S
C740 C739 1.524 . S
C741 C738 1.403 . S
C741 C742 1.392 . S
C741 C745 1.495 . S
C742 C741 1.392 . S
C742 C743 1.385 . S
C742 C744 1.478 . S
C743 H737 0.930 . S
C743 C739 1.400 . S
C743 C742 1.385 . S
C744 C742 1.478 . S
C744 C746 1.381 . S
C744 C750 1.383 . S
C745 C741 1.495 . S
C745 H751 0.959 . S
C745 H752 0.961 . S
C745 H753 0.960 . S
C746 C744 1.381 . S
C746 C747 1.394 . S
C746 H754 0.930 . S
C747 C746 1.394 . S
C747 C748 1.383 . S
C747 H755 0.929 . S
C748 C747 1.383 . S
C748 C749 1.377 . S
C749 H733 0.930 . S
C749 C748 1.377 . S
C749 C750 1.379 . S
C750 H734 0.931 . S
C750 C744 1.383 . S
C750 C749 1.379 . S
H751 C745 0.959 . S
H752 C745 0.961 . S
H753 C745 0.960 . S
H754 C746 0.930 . S
H755 C747 0.929 . S
H756 C764 0.929 . S
H757 C766 0.930 . S
H758 C768 0.930 . S
H759 C771 0.929 . S
H760 C774 0.930 1_565 S
H761 C776 0.960 1_545 S
H762 C776 0.960 . S
H763 C776 0.960 . S
C764 H756 0.929 . S
C764 C765 1.377 . S
C764 C766 1.384 . S
C765 C764 1.377 . S
C765 C771 1.390 . S
C766 H757 0.930 . S
C766 C764 1.384 . S
C766 C767 1.372 . S
C767 C766 1.372 . S
C767 C768 1.400 . S
C767 C772 1.490 . S
C768 H758 0.930 . S
C768 C767 1.400 . S
C768 C771 1.386 . S
H769 C785 0.930 . S
H770 C786 0.931 . S
C771 H759 0.929 . S
C771 C765 1.390 . S
C771 C768 1.386 . S
C772 C767 1.490 . S
C772 C774 1.395 1_565 S
C772 C775 1.403 1_565 S
H773 C779 0.930 . S
C774 H760 0.930 1_545 S
C774 C772 1.395 1_545 S
C774 C777 1.403 . S
C775 C772 1.403 1_545 S
C775 C776 1.524 1_545 S
C775 C779 1.400 . S
C776 H761 0.960 1_565 S
C776 H762 0.960 . S
C776 H763 0.960 . S
C776 C775 1.524 1_565 S
C777 C774 1.403 . S
C777 C778 1.392 . S
C777 C781 1.495 . S
C778 C777 1.392 . S
C778 C779 1.385 . S
C778 C780 1.478 . S
C779 H773 0.930 . S
C779 C775 1.400 . S
C779 C778 1.385 . S
C780 C778 1.478 . S
C780 C782 1.381 . S
C780 C786 1.383 . S
C781 C777 1.495 . S
C781 H787 0.959 . S
C781 H788 0.961 . S
C781 H789 0.960 . S
C782 C780 1.381 . S
C782 C783 1.394 . S
C782 H790 0.930 . S
C783 C782 1.394 . S
C783 C784 1.383 . S
C783 H791 0.929 . S
C784 C783 1.383 . S
C784 C785 1.377 . S
C785 H769 0.930 . S
C785 C784 1.377 . S
C785 C786 1.379 . S
C786 H770 0.931 . S
C786 C780 1.383 . S
C786 C785 1.379 . S
H787 C781 0.959 . S
H788 C781 0.961 . S
H789 C781 0.960 . S
H790 C782 0.930 . S
H791 C783 0.929 . S
H792 C800 0.929 . S
H793 C802 0.930 . S
H794 C804 0.930 . S
H795 C807 0.929 . S
H796 C810 0.930 1_545 S
H797 C812 0.960 1_565 S
H798 C812 0.960 . S
H799 C812 0.960 . S
C800 H792 0.929 . S
C800 C801 1.377 . S
C800 C802 1.384 . S
C801 C800 1.377 . S
C801 C807 1.390 . S
C802 H793 0.930 . S
C802 C800 1.384 . S
C802 C803 1.372 . S
C803 C802 1.372 . S
C803 C804 1.400 . S
C803 C808 1.490 . S
C804 H794 0.930 . S
C804 C803 1.400 . S
C804 C807 1.386 . S
H805 C821 0.930 . S
H806 C822 0.931 . S
C807 H795 0.929 . S
C807 C801 1.390 . S
C807 C804 1.386 . S
C808 C803 1.490 . S
C808 C810 1.395 1_545 S
C808 C811 1.403 1_545 S
H809 C815 0.930 . S
C810 H796 0.930 1_565 S
C810 C808 1.395 1_565 S
C810 C813 1.403 . S
C811 C808 1.403 1_565 S
C811 C812 1.524 1_565 S
C811 C815 1.400 . S
C812 H797 0.960 1_545 S
C812 H798 0.960 . S
C812 H799 0.960 . S
C812 C811 1.524 1_545 S
C813 C810 1.403 . S
C813 C814 1.392 . S
C813 C817 1.495 . S
C814 C813 1.392 . S
C814 C815 1.385 . S
C814 C816 1.478 . S
C815 H809 0.930 . S
C815 C811 1.400 . S
C815 C814 1.385 . S
C816 C814 1.478 . S
C816 C818 1.381 . S
C816 C822 1.383 . S
C817 C813 1.495 . S
C817 H823 0.959 . S
C817 H824 0.961 . S
C817 H825 0.960 . S
C818 C816 1.381 . S
C818 C819 1.394 . S
C818 H826 0.930 . S
C819 C818 1.394 . S
C819 C820 1.383 . S
C819 H827 0.929 . S
C820 C819 1.383 . S
C820 C821 1.377 . S
C821 H805 0.930 . S
C821 C820 1.377 . S
C821 C822 1.379 . S
C822 H806 0.931 . S
C822 C816 1.383 . S
C822 C821 1.379 . S
H823 C817 0.959 . S
H824 C817 0.961 . S
H825 C817 0.960 . S
H826 C818 0.930 . S
H827 C819 0.929 . S
H828 C836 0.929 . S
H829 C838 0.930 . S
H830 C840 0.930 . S
H831 C843 0.929 . S
H832 C846 0.930 . S
H833 C848 0.960 . S
H834 C848 0.960 . S
H835 C848 0.960 . S
C836 H828 0.929 . S
C836 C837 1.377 . S
C836 C838 1.384 . S
C837 C836 1.377 . S
C837 C843 1.390 . S
C838 H829 0.930 . S
C838 C836 1.384 . S
C838 C839 1.372 . S
C839 C838 1.372 . S
C839 C840 1.400 . S
C839 C844 1.490 . S
C840 H830 0.930 . S
C840 C839 1.400 . S
C840 C843 1.386 . S
H841 C857 0.930 . S
H842 C858 0.931 . S
C843 H831 0.929 . S
C843 C837 1.390 . S
C843 C840 1.386 . S
C844 C839 1.490 . S
C844 C846 1.395 . S
C844 C847 1.403 . S
H845 C851 0.930 1_655 S
C846 H832 0.930 . S
C846 C844 1.395 . S
C846 C849 1.403 . S
C847 C844 1.403 . S
C847 C848 1.524 . S
C847 C851 1.400 . S
C848 H833 0.960 . S
C848 H834 0.960 . S
C848 H835 0.960 . S
C848 C847 1.524 . S
C849 C846 1.403 . S
C849 C850 1.392 1_455 S
C849 C853 1.495 1_455 S
C850 C849 1.392 1_655 S
C850 C851 1.385 1_655 S
C850 C852 1.478 . S
C851 H845 0.930 1_455 S
C851 C847 1.400 . S
C851 C850 1.385 1_455 S
C852 C850 1.478 . S
C852 C854 1.381 . S
C852 C858 1.383 . S
C853 C849 1.495 1_655 S
C853 H859 0.959 1_655 S
C853 H860 0.961 . S
C853 H861 0.960 . S
C854 C852 1.381 . S
C854 C855 1.394 . S
C854 H862 0.930 . S
C855 C854 1.394 . S
C855 C856 1.383 . S
C855 H863 0.929 . S
C856 C855 1.383 . S
C856 C857 1.377 . S
C857 H841 0.930 . S
C857 C856 1.377 . S
C857 C858 1.379 . S
C858 H842 0.931 . S
C858 C852 1.383 . S
C858 C857 1.379 . S
H859 C853 0.959 1_455 S
H860 C853 0.961 . S
H861 C853 0.960 . S
H862 C854 0.930 . S
H863 C855 0.929 . S
H864 C872 0.929 . S
H865 C874 0.930 . S
H866 C876 0.930 . S
H867 C879 0.929 . S
H868 C882 0.930 . S
H869 C884 0.960 . S
H870 C884 0.960 . S
H871 C884 0.960 . S
C872 H864 0.929 . S
C872 C873 1.377 . S
C872 C874 1.384 . S
C873 C872 1.377 . S
C873 C879 1.390 . S
C874 H865 0.930 . S
C874 C872 1.384 . S
C874 C875 1.372 . S
C875 C874 1.372 . S
C875 C876 1.400 . S
C875 C880 1.490 . S
C876 H866 0.930 . S
C876 C875 1.400 . S
C876 C879 1.386 . S
H877 C893 0.930 . S
H878 C894 0.931 . S
C879 H867 0.929 . S
C879 C873 1.390 . S
C879 C876 1.386 . S
C880 C875 1.490 . S
C880 C882 1.395 . S
C880 C883 1.403 . S
H881 C887 0.930 . S
C882 H868 0.930 . S
C882 C880 1.395 . S
C882 C885 1.403 . S
C883 C880 1.403 . S
C883 C884 1.524 . S
C883 C887 1.400 . S
C884 H869 0.960 . S
C884 H870 0.960 . S
C884 H871 0.960 . S
C884 C883 1.524 . S
C885 C882 1.403 . S
C885 C886 1.392 . S
C885 C889 1.495 . S
C886 C885 1.392 . S
C886 C887 1.385 . S
C886 C888 1.478 . S
C887 H881 0.930 . S
C887 C883 1.400 . S
C887 C886 1.385 . S
C888 C886 1.478 . S
C888 C890 1.381 . S
C888 C894 1.383 . S
C889 C885 1.495 . S
C889 H895 0.959 . S
C889 H896 0.961 . S
C889 H897 0.960 . S
C890 C888 1.381 . S
C890 C891 1.394 . S
C890 H898 0.930 . S
C891 C890 1.394 . S
C891 C892 1.383 . S
C891 H899 0.929 . S
C892 C891 1.383 . S
C892 C893 1.377 . S
C893 H877 0.930 . S
C893 C892 1.377 . S
C893 C894 1.379 . S
C894 H878 0.931 . S
C894 C888 1.383 . S
C894 C893 1.379 . S
H895 C889 0.959 . S
H896 C889 0.961 . S
H897 C889 0.960 . S
H898 C890 0.930 . S
H899 C891 0.929 . S
H900 C908 0.929 . S
H901 C910 0.930 . S
H902 C912 0.930 . S
H903 C915 0.929 . S
H904 C918 0.930 . S
H905 C920 0.960 . S
H906 C920 0.960 . S
H907 C920 0.960 . S
C908 H900 0.929 . S
C908 C909 1.377 . S
C908 C910 1.384 . S
C909 C908 1.377 . S
C909 C915 1.390 . S
C910 H901 0.930 . S
C910 C908 1.384 . S
C910 C911 1.372 . S
C911 C910 1.372 . S
C911 C912 1.400 . S
C911 C916 1.490 . S
C912 H902 0.930 . S
C912 C911 1.400 . S
C912 C915 1.386 . S
H913 C929 0.930 . S
H914 C930 0.931 . S
C915 H903 0.929 . S
C915 C909 1.390 . S
C915 C912 1.386 . S
C916 C911 1.490 . S
C916 C918 1.395 . S
C916 C919 1.403 . S
H917 C923 0.930 . S
C918 H904 0.930 . S
C918 C916 1.395 . S
C918 C921 1.403 . S
C919 C916 1.403 . S
C919 C920 1.524 . S
C919 C923 1.400 . S
C920 H905 0.960 . S
C920 H906 0.960 . S
C920 H907 0.960 . S
C920 C919 1.524 . S
C921 C918 1.403 . S
C921 C922 1.392 . S
C921 C925 1.495 . S
C922 C921 1.392 . S
C922 C923 1.385 . S
C922 C924 1.478 . S
C923 H917 0.930 . S
C923 C919 1.400 . S
C923 C922 1.385 . S
C924 C922 1.478 . S
C924 C926 1.381 . S
C924 C930 1.383 . S
C925 C921 1.495 . S
C925 H931 0.959 . S
C925 H932 0.961 . S
C925 H933 0.960 . S
C926 C924 1.381 . S
C926 C927 1.394 . S
C926 H934 0.930 . S
C927 C926 1.394 . S
C927 C928 1.383 . S
C927 H935 0.929 . S
C928 C927 1.383 . S
C928 C929 1.377 . S
C929 H913 0.930 . S
C929 C928 1.377 . S
C929 C930 1.379 . S
C930 H914 0.931 . S
C930 C924 1.383 . S
C930 C929 1.379 . S
H931 C925 0.959 . S
H932 C925 0.961 . S
H933 C925 0.960 . S
H934 C926 0.930 . S
H935 C927 0.929 . S
H936 C944 0.929 . S
H937 C946 0.930 . S
H938 C948 0.930 . S
H939 C951 0.929 . S
H940 C954 0.930 . S
H941 C956 0.960 . S
H942 C956 0.960 . S
H943 C956 0.960 . S
C944 H936 0.929 . S
C944 C945 1.377 . S
C944 C946 1.384 . S
C945 C944 1.377 . S
C945 C951 1.390 . S
C946 H937 0.930 . S
C946 C944 1.384 . S
C946 C947 1.372 . S
C947 C946 1.372 . S
C947 C948 1.400 . S
C947 C952 1.490 . S
C948 H938 0.930 . S
C948 C947 1.400 . S
C948 C951 1.386 . S
H949 C965 0.930 . S
H950 C966 0.931 . S
C951 H939 0.929 . S
C951 C945 1.390 . S
C951 C948 1.386 . S
C952 C947 1.490 . S
C952 C954 1.395 . S
C952 C955 1.403 . S
H953 C959 0.930 . S
C954 H940 0.930 . S
C954 C952 1.395 . S
C954 C957 1.403 . S
C955 C952 1.403 . S
C955 C956 1.524 . S
C955 C959 1.400 . S
C956 H941 0.960 . S
C956 H942 0.960 . S
C956 H943 0.960 . S
C956 C955 1.524 . S
C957 C954 1.403 . S
C957 C958 1.392 . S
C957 C961 1.495 . S
C958 C957 1.392 . S
C958 C959 1.385 . S
C958 C960 1.478 . S
C959 H953 0.930 . S
C959 C955 1.400 . S
C959 C958 1.385 . S
C960 C958 1.478 . S
C960 C962 1.381 . S
C960 C966 1.383 . S
C961 C957 1.495 . S
C961 H967 0.959 . S
C961 H968 0.961 . S
C961 H969 0.960 . S
C962 C960 1.381 . S
C962 C963 1.394 . S
C962 H970 0.930 . S
C963 C962 1.394 . S
C963 C964 1.383 . S
C963 H971 0.929 . S
C964 C963 1.383 . S
C964 C965 1.377 . S
C965 H949 0.930 . S
C965 C964 1.377 . S
C965 C966 1.379 . S
C966 H950 0.931 . S
C966 C960 1.383 . S
C966 C965 1.379 . S
H967 C961 0.959 . S
H968 C961 0.961 . S
H969 C961 0.960 . S
H970 C962 0.930 . S
H971 C963 0.929 . S
H972 C980 0.929 . S
H973 C982 0.930 . S
H974 C984 0.930 . S
H975 C987 0.929 . S
H976 C990 0.930 . S
H977 C992 0.960 . S
H978 C992 0.960 . S
H979 C992 0.960 . S
C980 H972 0.929 . S
C980 C981 1.377 . S
C980 C982 1.384 . S
C981 C980 1.377 . S
C981 C987 1.390 . S
C982 H973 0.930 . S
C982 C980 1.384 . S
C982 C983 1.372 . S
C983 C982 1.372 . S
C983 C984 1.400 . S
C983 C988 1.490 . S
C984 H974 0.930 . S
C984 C983 1.400 . S
C984 C987 1.386 . S
H985 C1001 0.930 . S
H986 C1002 0.931 . S
C987 H975 0.929 . S
C987 C981 1.390 . S
C987 C984 1.386 . S
C988 C983 1.490 . S
C988 C990 1.395 . S
C988 C991 1.403 . S
H989 C995 0.930 . S
C990 H976 0.930 . S
C990 C988 1.395 . S
C990 C993 1.403 . S
C991 C988 1.403 . S
C991 C992 1.524 . S
C991 C995 1.400 . S
C992 H977 0.960 . S
C992 H978 0.960 . S
C992 H979 0.960 . S
C992 C991 1.524 . S
C993 C990 1.403 . S
C993 C994 1.392 . S
C993 C997 1.495 . S
C994 C993 1.392 . S
C994 C995 1.385 . S
C994 C996 1.478 . S
C995 H989 0.930 . S
C995 C991 1.400 . S
C995 C994 1.385 . S
C996 C994 1.478 . S
C996 C998 1.381 . S
C996 C1002 1.383 . S
C997 C993 1.495 . S
C997 H1003 0.959 . S
C997 H1004 0.961 . S
C997 H1005 0.960 . S
C998 C996 1.381 . S
C998 C999 1.394 . S
C998 H1006 0.930 . S
C999 C998 1.394 . S
C999 C1000 1.383 . S
C999 H1007 0.929 . S
C1000 C999 1.383 . S
C1000 C1001 1.377 . S
C1001 H985 0.930 . S
C1001 C1000 1.377 . S
C1001 C1002 1.379 . S
C1002 H986 0.931 . S
C1002 C996 1.383 . S
C1002 C1001 1.379 . S
H1003 C997 0.959 . S
H1004 C997 0.961 . S
H1005 C997 0.960 . S
H1006 C998 0.930 . S
H1007 C999 0.929 . S
H1008 C1016 0.929 . S
H1009 C1018 0.930 . S
H1010 C1020 0.930 . S
H1011 C1023 0.929 . S
H1012 C1026 0.930 . S
H1013 C1028 0.960 . S
H1014 C1028 0.960 . S
H1015 C1028 0.960 . S
C1016 H1008 0.929 . S
C1016 C1017 1.377 . S
C1016 C1018 1.384 . S
C1017 C1016 1.377 . S
C1017 C1023 1.390 . S
C1018 H1009 0.930 . S
C1018 C1016 1.384 . S
C1018 C1019 1.372 . S
C1019 C1018 1.372 . S
C1019 C1020 1.400 . S
C1019 C1024 1.490 . S
C1020 H1010 0.930 . S
C1020 C1019 1.400 . S
C1020 C1023 1.386 . S
H1021 C1037 0.930 . S
H1022 C1038 0.931 . S
C1023 H1011 0.929 . S
C1023 C1017 1.390 . S
C1023 C1020 1.386 . S
C1024 C1019 1.490 . S
C1024 C1026 1.395 . S
C1024 C1027 1.403 . S
H1025 C1031 0.930 . S
C1026 H1012 0.930 . S
C1026 C1024 1.395 . S
C1026 C1029 1.403 . S
C1027 C1024 1.403 . S
C1027 C1028 1.524 . S
C1027 C1031 1.400 . S
C1028 H1013 0.960 . S
C1028 H1014 0.960 . S
C1028 H1015 0.960 . S
C1028 C1027 1.524 . S
C1029 C1026 1.403 . S
C1029 C1030 1.392 . S
C1029 C1033 1.495 . S
C1030 C1029 1.392 . S
C1030 C1031 1.385 . S
C1030 C1032 1.478 . S
C1031 H1025 0.930 . S
C1031 C1027 1.400 . S
C1031 C1030 1.385 . S
C1032 C1030 1.478 . S
C1032 C1034 1.381 . S
C1032 C1038 1.383 . S
C1033 C1029 1.495 . S
C1033 H1039 0.959 . S
C1033 H1040 0.961 . S
C1033 H1041 0.960 . S
C1034 C1032 1.381 . S
C1034 C1035 1.394 . S
C1034 H1042 0.930 . S
C1035 C1034 1.394 . S
C1035 C1036 1.383 . S
C1035 H1043 0.929 . S
C1036 C1035 1.383 . S
C1036 C1037 1.377 . S
C1037 H1021 0.930 . S
C1037 C1036 1.377 . S
C1037 C1038 1.379 . S
C1038 H1022 0.931 . S
C1038 C1032 1.383 . S
C1038 C1037 1.379 . S
H1039 C1033 0.959 . S
H1040 C1033 0.961 . S
H1041 C1033 0.960 . S
H1042 C1034 0.930 . S
H1043 C1035 0.929 . S
H1044 C1052 0.929 . S
H1045 C1054 0.930 . S
H1046 C1056 0.930 . S
H1047 C1059 0.929 . S
H1048 C1062 0.930 . S
H1049 C1064 0.960 . S
H1050 C1064 0.960 . S
H1051 C1064 0.960 . S
C1052 H1044 0.929 . S
C1052 C1053 1.377 . S
C1052 C1054 1.384 . S
C1053 C1052 1.377 . S
C1053 C1059 1.390 . S
C1054 H1045 0.930 . S
C1054 C1052 1.384 . S
C1054 C1055 1.372 . S
C1055 C1054 1.372 . S
C1055 C1056 1.400 . S
C1055 C1060 1.490 . S
C1056 H1046 0.930 . S
C1056 C1055 1.400 . S
C1056 C1059 1.386 . S
H1057 C1073 0.930 . S
H1058 C1074 0.931 . S
C1059 H1047 0.929 . S
C1059 C1053 1.390 . S
C1059 C1056 1.386 . S
C1060 C1055 1.490 . S
C1060 C1062 1.395 . S
C1060 C1063 1.403 . S
H1061 C1067 0.930 . S
C1062 H1048 0.930 . S
C1062 C1060 1.395 . S
C1062 C1065 1.403 . S
C1063 C1060 1.403 . S
C1063 C1064 1.524 . S
C1063 C1067 1.400 . S
C1064 H1049 0.960 . S
C1064 H1050 0.960 . S
C1064 H1051 0.960 . S
C1064 C1063 1.524 . S
C1065 C1062 1.403 . S
C1065 C1066 1.392 . S
C1065 C1069 1.495 . S
C1066 C1065 1.392 . S
C1066 C1067 1.385 . S
C1066 C1068 1.478 . S
C1067 H1061 0.930 . S
C1067 C1063 1.400 . S
C1067 C1066 1.385 . S
C1068 C1066 1.478 . S
C1068 C1070 1.381 . S
C1068 C1074 1.383 . S
C1069 C1065 1.495 . S
C1069 H1075 0.959 . S
C1069 H1076 0.961 . S
C1069 H1077 0.960 . S
C1070 C1068 1.381 . S
C1070 C1071 1.394 . S
C1070 H1078 0.930 . S
C1071 C1070 1.394 . S
C1071 C1072 1.383 . S
C1071 H1079 0.929 . S
C1072 C1071 1.383 . S
C1072 C1073 1.377 . S
C1073 H1057 0.930 . S
C1073 C1072 1.377 . S
C1073 C1074 1.379 . S
C1074 H1058 0.931 . S
C1074 C1068 1.383 . S
C1074 C1073 1.379 . S
H1075 C1069 0.959 . S
H1076 C1069 0.961 . S
H1077 C1069 0.960 . S
H1078 C1070 0.930 . S
H1079 C1071 0.929 . S
H1080 C1088 0.929 . S
H1081 C1090 0.930 . S
H1082 C1092 0.930 . S
H1083 C1095 0.929 . S
H1084 C1098 0.930 . S
H1085 C1100 0.960 . S
H1086 C1100 0.960 . S
H1087 C1100 0.960 . S
C1088 H1080 0.929 . S
C1088 C1089 1.377 . S
C1088 C1090 1.384 . S
C1089 C1088 1.377 . S
C1089 C1095 1.390 . S
C1090 H1081 0.930 . S
C1090 C1088 1.384 . S
C1090 C1091 1.372 . S
C1091 C1090 1.372 . S
C1091 C1092 1.400 . S
C1091 C1096 1.490 . S
C1092 H1082 0.930 . S
C1092 C1091 1.400 . S
C1092 C1095 1.386 . S
H1093 C1109 0.930 . S
H1094 C1110 0.931 . S
C1095 H1083 0.929 . S
C1095 C1089 1.390 . S
C1095 C1092 1.386 . S
C1096 C1091 1.490 . S
C1096 C1098 1.395 . S
C1096 C1099 1.403 . S
H1097 C1103 0.930 . S
C1098 H1084 0.930 . S
C1098 C1096 1.395 . S
C1098 C1101 1.403 . S
C1099 C1096 1.403 . S
C1099 C1100 1.524 . S
C1099 C1103 1.400 . S
C1100 H1085 0.960 . S
C1100 H1086 0.960 . S
C1100 H1087 0.960 . S
C1100 C1099 1.524 . S
C1101 C1098 1.403 . S
C1101 C1102 1.392 . S
C1101 C1105 1.495 . S
C1102 C1101 1.392 . S
C1102 C1103 1.385 . S
C1102 C1104 1.478 . S
C1103 H1097 0.930 . S
C1103 C1099 1.400 . S
C1103 C1102 1.385 . S
C1104 C1102 1.478 . S
C1104 C1106 1.381 . S
C1104 C1110 1.383 . S
C1105 C1101 1.495 . S
C1105 H1111 0.959 . S
C1105 H1112 0.961 . S
C1105 H1113 0.960 . S
C1106 C1104 1.381 . S
C1106 C1107 1.394 . S
C1106 H1114 0.930 . S
C1107 C1106 1.394 . S
C1107 C1108 1.383 . S
C1107 H1115 0.929 . S
C1108 C1107 1.383 . S
C1108 C1109 1.377 . S
C1109 H1093 0.930 . S
C1109 C1108 1.377 . S
C1109 C1110 1.379 . S
C1110 H1094 0.931 . S
C1110 C1104 1.383 . S
C1110 C1109 1.379 . S
H1111 C1105 0.959 . S
H1112 C1105 0.961 . S
H1113 C1105 0.960 . S
H1114 C1106 0.930 . S
H1115 C1107 0.929 . S
H1116 C1124 0.929 . S
H1117 C1126 0.930 . S
H1118 C1128 0.930 . S
H1119 C1131 0.929 . S
H1120 C1134 0.930 . S
H1121 C1136 0.960 . S
H1122 C1136 0.960 . S
H1123 C1136 0.960 . S
C1124 H1116 0.929 . S
C1124 C1125 1.377 . S
C1124 C1126 1.384 . S
C1125 C1124 1.377 . S
C1125 C1131 1.390 . S
C1126 H1117 0.930 . S
C1126 C1124 1.384 . S
C1126 C1127 1.372 . S
C1127 C1126 1.372 . S
C1127 C1128 1.400 . S
C1127 C1132 1.490 . S
C1128 H1118 0.930 . S
C1128 C1127 1.400 . S
C1128 C1131 1.386 . S
H1129 C1145 0.930 . S
H1130 C1146 0.931 . S
C1131 H1119 0.929 . S
C1131 C1125 1.390 . S
C1131 C1128 1.386 . S
C1132 C1127 1.490 . S
C1132 C1134 1.395 . S
C1132 C1135 1.403 . S
H1133 C1139 0.930 . S
C1134 H1120 0.930 . S
C1134 C1132 1.395 . S
C1134 C1137 1.403 . S
C1135 C1132 1.403 . S
C1135 C1136 1.524 . S
C1135 C1139 1.400 . S
C1136 H1121 0.960 . S
C1136 H1122 0.960 . S
C1136 H1123 0.960 . S
C1136 C1135 1.524 . S
C1137 C1134 1.403 . S
C1137 C1138 1.392 . S
C1137 C1141 1.495 . S
C1138 C1137 1.392 . S
C1138 C1139 1.385 . S
C1138 C1140 1.478 . S
C1139 H1133 0.930 . S
C1139 C1135 1.400 . S
C1139 C1138 1.385 . S
C1140 C1138 1.478 . S
C1140 C1142 1.381 . S
C1140 C1146 1.383 . S
C1141 C1137 1.495 . S
C1141 H1147 0.959 . S
C1141 H1148 0.961 . S
C1141 H1149 0.960 . S
C1142 C1140 1.381 . S
C1142 C1143 1.394 . S
C1142 H1150 0.930 . S
C1143 C1142 1.394 . S
C1143 C1144 1.383 . S
C1143 H1151 0.929 . S
C1144 C1143 1.383 . S
C1144 C1145 1.377 . S
C1145 H1129 0.930 . S
C1145 C1144 1.377 . S
C1145 C1146 1.379 . S
C1146 H1130 0.931 . S
C1146 C1140 1.383 . S
C1146 C1145 1.379 . S
H1147 C1141 0.959 . S
H1148 C1141 0.961 . S
H1149 C1141 0.960 . S
H1150 C1142 0.930 . S
H1151 C1143 0.929 . S
H1152 C1160 0.929 . S
H1153 C1162 0.930 . S
H1154 C1164 0.930 . S
H1155 C1167 0.929 . S
H1156 C1170 0.930 . S
H1157 C1172 0.960 . S
H1158 C1172 0.960 . S
H1159 C1172 0.960 . S
C1160 H1152 0.929 . S
C1160 C1161 1.377 . S
C1160 C1162 1.384 . S
C1161 C1160 1.377 . S
C1161 C1167 1.390 . S
C1162 H1153 0.930 . S
C1162 C1160 1.384 . S
C1162 C1163 1.372 . S
C1163 C1162 1.372 . S
C1163 C1164 1.400 . S
C1163 C1168 1.490 . S
C1164 H1154 0.930 . S
C1164 C1163 1.400 . S
C1164 C1167 1.386 . S
H1165 C1181 0.930 . S
H1166 C1182 0.931 . S
C1167 H1155 0.929 . S
C1167 C1161 1.390 . S
C1167 C1164 1.386 . S
C1168 C1163 1.490 . S
C1168 C1170 1.395 . S
C1168 C1171 1.403 . S
H1169 C1175 0.930 . S
C1170 H1156 0.930 . S
C1170 C1168 1.395 . S
C1170 C1173 1.403 . S
C1171 C1168 1.403 . S
C1171 C1172 1.524 . S
C1171 C1175 1.400 . S
C1172 H1157 0.960 . S
C1172 H1158 0.960 . S
C1172 H1159 0.960 . S
C1172 C1171 1.524 . S
C1173 C1170 1.403 . S
C1173 C1174 1.392 . S
C1173 C1177 1.495 . S
C1174 C1173 1.392 . S
C1174 C1175 1.385 . S
C1174 C1176 1.478 . S
C1175 H1169 0.930 . S
C1175 C1171 1.400 . S
C1175 C1174 1.385 . S
C1176 C1174 1.478 . S
C1176 C1178 1.381 . S
C1176 C1182 1.383 . S
C1177 C1173 1.495 . S
C1177 H1183 0.959 . S
C1177 H1184 0.961 . S
C1177 H1185 0.960 . S
C1178 C1176 1.381 . S
C1178 C1179 1.394 . S
C1178 H1186 0.930 . S
C1179 C1178 1.394 . S
C1179 C1180 1.383 . S
C1179 H1187 0.929 . S
C1180 C1179 1.383 . S
C1180 C1181 1.377 . S
C1181 H1165 0.930 . S
C1181 C1180 1.377 . S
C1181 C1182 1.379 . S
C1182 H1166 0.931 . S
C1182 C1176 1.383 . S
C1182 C1181 1.379 . S
H1183 C1177 0.959 . S
H1184 C1177 0.961 . S
H1185 C1177 0.960 . S
H1186 C1178 0.930 . S
H1187 C1179 0.929 . S
H1188 C1196 0.929 . S
H1189 C1198 0.930 . S
H1190 C1200 0.930 . S
H1191 C1203 0.929 . S
H1192 C1206 0.930 . S
H1193 C1208 0.960 . S
H1194 C1208 0.960 . S
H1195 C1208 0.960 . S
C1196 H1188 0.929 . S
C1196 C1197 1.377 . S
C1196 C1198 1.384 . S
C1197 C1196 1.377 . S
C1197 C1203 1.390 . S
C1198 H1189 0.930 . S
C1198 C1196 1.384 . S
C1198 C1199 1.372 . S
C1199 C1198 1.372 . S
C1199 C1200 1.400 . S
C1199 C1204 1.490 . S
C1200 H1190 0.930 . S
C1200 C1199 1.400 . S
C1200 C1203 1.386 . S
H1201 C1217 0.930 . S
H1202 C1218 0.931 . S
C1203 H1191 0.929 . S
C1203 C1197 1.390 . S
C1203 C1200 1.386 . S
C1204 C1199 1.490 . S
C1204 C1206 1.395 . S
C1204 C1207 1.403 . S
H1205 C1211 0.930 . S
C1206 H1192 0.930 . S
C1206 C1204 1.395 . S
C1206 C1209 1.403 . S
C1207 C1204 1.403 . S
C1207 C1208 1.524 . S
C1207 C1211 1.400 . S
C1208 H1193 0.960 . S
C1208 H1194 0.960 . S
C1208 H1195 0.960 . S
C1208 C1207 1.524 . S
C1209 C1206 1.403 . S
C1209 C1210 1.392 . S
C1209 C1213 1.495 . S
C1210 C1209 1.392 . S
C1210 C1211 1.385 . S
C1210 C1212 1.478 . S
C1211 H1205 0.930 . S
C1211 C1207 1.400 . S
C1211 C1210 1.385 . S
C1212 C1210 1.478 . S
C1212 C1214 1.381 . S
C1212 C1218 1.383 . S
C1213 C1209 1.495 . S
C1213 H1219 0.959 . S
C1213 H1220 0.961 . S
C1213 H1221 0.960 . S
C1214 C1212 1.381 . S
C1214 C1215 1.394 . S
C1214 H1222 0.930 . S
C1215 C1214 1.394 . S
C1215 C1216 1.383 . S
C1215 H1223 0.929 . S
C1216 C1215 1.383 . S
C1216 C1217 1.377 . S
C1217 H1201 0.930 . S
C1217 C1216 1.377 . S
C1217 C1218 1.379 . S
C1218 H1202 0.931 . S
C1218 C1212 1.383 . S
C1218 C1217 1.379 . S
H1219 C1213 0.959 . S
H1220 C1213 0.961 . S
H1221 C1213 0.960 . S
H1222 C1214 0.930 . S
H1223 C1215 0.929 . S
H1224 C1232 0.929 . S
H1225 C1234 0.930 . S
H1226 C1236 0.930 . S
H1227 C1239 0.929 . S
H1228 C1242 0.930 . S
H1229 C1244 0.960 . S
H1230 C1244 0.960 . S
H1231 C1244 0.960 . S
C1232 H1224 0.929 . S
C1232 C1233 1.377 . S
C1232 C1234 1.384 . S
C1233 C1232 1.377 . S
C1233 C1239 1.390 . S
C1234 H1225 0.930 . S
C1234 C1232 1.384 . S
C1234 C1235 1.372 . S
C1235 C1234 1.372 . S
C1235 C1236 1.400 . S
C1235 C1240 1.490 . S
C1236 H1226 0.930 . S
C1236 C1235 1.400 . S
C1236 C1239 1.386 . S
H1237 C1253 0.930 . S
H1238 C1254 0.931 . S
C1239 H1227 0.929 . S
C1239 C1233 1.390 . S
C1239 C1236 1.386 . S
C1240 C1235 1.490 . S
C1240 C1242 1.395 . S
C1240 C1243 1.403 . S
H1241 C1247 0.930 . S
C1242 H1228 0.930 . S
C1242 C1240 1.395 . S
C1242 C1245 1.403 . S
C1243 C1240 1.403 . S
C1243 C1244 1.524 . S
C1243 C1247 1.400 . S
C1244 H1229 0.960 . S
C1244 H1230 0.960 . S
C1244 H1231 0.960 . S
C1244 C1243 1.524 . S
C1245 C1242 1.403 . S
C1245 C1246 1.392 . S
C1245 C1249 1.495 . S
C1246 C1245 1.392 . S
C1246 C1247 1.385 . S
C1246 C1248 1.478 . S
C1247 H1241 0.930 . S
C1247 C1243 1.400 . S
C1247 C1246 1.385 . S
C1248 C1246 1.478 . S
C1248 C1250 1.381 . S
C1248 C1254 1.383 . S
C1249 C1245 1.495 . S
C1249 H1255 0.959 . S
C1249 H1256 0.961 . S
C1249 H1257 0.960 . S
C1250 C1248 1.381 . S
C1250 C1251 1.394 . S
C1250 H1258 0.930 . S
C1251 C1250 1.394 . S
C1251 C1252 1.383 . S
C1251 H1259 0.929 . S
C1252 C1251 1.383 . S
C1252 C1253 1.377 . S
C1253 H1237 0.930 . S
C1253 C1252 1.377 . S
C1253 C1254 1.379 . S
C1254 H1238 0.931 . S
C1254 C1248 1.383 . S
C1254 C1253 1.379 . S
H1255 C1249 0.959 . S
H1256 C1249 0.961 . S
H1257 C1249 0.960 . S
H1258 C1250 0.930 . S
H1259 C1251 0.929 . S
H1260 C1268 0.929 . S
H1261 C1270 0.930 . S
H1262 C1272 1.034 . S
H1263 C1275 0.876 1_556 S
H1264 C1278 0.930 . S
H1265 C1280 0.960 . S
H1266 C1280 0.960 . S
H1267 C1280 0.947 1_556 S
C1268 H1260 0.929 . S
C1268 C1269 1.377 . S
C1268 C1270 1.384 . S
C1269 C1268 1.377 . S
C1269 C1275 1.390 . S
C1270 H1261 0.930 . S
C1270 C1268 1.384 . S
C1270 C1271 1.372 . S
C1271 C1270 1.372 . S
C1271 C1272 1.400 . S
C1271 C1276 1.490 . S
C1272 H1262 1.034 . S
C1272 C1271 1.400 . S
C1272 C1275 1.386 . S
H1273 C1289 0.930 . S
H1274 C1290 0.931 . S
C1275 H1263 0.876 1_554 S
C1275 C1269 1.390 . S
C1275 C1272 1.386 . S
C1276 C1271 1.490 . S
C1276 C1278 1.395 . S
C1276 C1279 1.403 . S
H1277 C1283 0.930 . S
C1278 H1264 0.930 . S
C1278 C1276 1.395 . S
C1278 C1281 1.403 . S
C1279 C1276 1.403 . S
C1279 C1280 1.524 . S
C1279 C1283 1.400 . S
C1280 H1265 0.960 . S
C1280 H1266 0.960 . S
C1280 H1267 0.947 1_554 S
C1280 C1279 1.524 . S
C1281 C1278 1.403 . S
C1281 C1282 1.392 . S
C1281 C1285 1.495 . S
C1282 C1281 1.392 . S
C1282 C1283 1.385 . S
C1282 C1284 1.478 . S
C1283 H1277 0.930 . S
C1283 C1279 1.400 . S
C1283 C1282 1.385 . S
C1284 C1282 1.478 . S
C1284 C1286 1.381 . S
C1284 C1290 1.383 . S
C1285 C1281 1.495 . S
C1285 H1291 0.959 . S
C1285 H1292 0.961 . S
C1285 H1293 0.960 . S
C1286 C1284 1.381 . S
C1286 C1287 1.394 . S
C1286 H1294 0.930 . S
C1287 C1286 1.394 . S
C1287 C1288 1.383 . S
C1287 H1295 0.929 . S
C1288 C1287 1.383 . S
C1288 C1289 1.377 . S
C1289 H1273 0.930 . S
C1289 C1288 1.377 . S
C1289 C1290 1.379 . S
C1290 H1274 0.931 . S
C1290 C1284 1.383 . S
C1290 C1289 1.379 . S
H1291 C1285 0.959 . S
H1292 C1285 0.961 . S
H1293 C1285 0.960 . S
H1294 C1286 0.930 . S
H1295 C1287 0.929 . S
H1296 C1304 0.929 . S
H1297 C1306 0.930 . S
H1298 C1308 0.930 . S
H1299 C1311 0.929 . S
H1300 C1314 0.930 . S
H1301 C1316 0.960 . S
H1302 C1316 0.960 . S
H1303 C1316 0.960 . S
C1304 H1296 0.929 . S
C1304 C1305 1.377 . S
C1304 C1306 1.384 . S
C1305 C1304 1.377 . S
C1305 C1311 1.390 . S
C1306 H1297 0.930 . S
C1306 C1304 1.384 . S
C1306 C1307 1.372 . S
C1307 C1306 1.372 . S
C1307 C1308 1.400 . S
C1307 C1312 1.490 . S
C1308 H1298 0.930 . S
C1308 C1307 1.400 . S
C1308 C1311 1.386 . S
H1309 C1325 0.930 . S
H1310 C1326 0.931 . S
C1311 H1299 0.929 . S
C1311 C1305 1.390 . S
C1311 C1308 1.386 . S
C1312 C1307 1.490 . S
C1312 C1314 1.395 . S
C1312 C1315 1.403 . S
H1313 C1319 0.930 . S
C1314 H1300 0.930 . S
C1314 C1312 1.395 . S
C1314 C1317 1.403 . S
C1315 C1312 1.403 . S
C1315 C1316 1.524 . S
C1315 C1319 1.400 . S
C1316 H1301 0.960 . S
C1316 H1302 0.960 . S
C1316 H1303 0.960 . S
C1316 C1315 1.524 . S
C1317 C1314 1.403 . S
C1317 C1318 1.392 . S
C1317 C1321 1.495 . S
C1318 C1317 1.392 . S
C1318 C1319 1.385 . S
C1318 C1320 1.478 . S
C1319 H1313 0.930 . S
C1319 C1315 1.400 . S
C1319 C1318 1.385 . S
C1320 C1318 1.478 . S
C1320 C1322 1.381 . S
C1320 C1326 1.383 . S
C1321 C1317 1.495 . S
C1321 H1327 0.959 . S
C1321 H1328 0.961 . S
C1321 H1329 0.960 . S
C1322 C1320 1.381 . S
C1322 C1323 1.394 . S
C1322 H1330 0.930 . S
C1323 C1322 1.394 . S
C1323 C1324 1.383 . S
C1323 H1331 0.929 . S
C1324 C1323 1.383 . S
C1324 C1325 1.377 . S
C1325 H1309 0.930 . S
C1325 C1324 1.377 . S
C1325 C1326 1.379 . S
C1326 H1310 0.931 . S
C1326 C1320 1.383 . S
C1326 C1325 1.379 . S
H1327 C1321 0.959 . S
H1328 C1321 0.961 . S
H1329 C1321 0.960 . S
H1330 C1322 0.930 . S
H1331 C1323 0.929 . S
H1332 C1340 0.929 . S
H1333 C1342 0.930 . S
H1334 C1344 0.930 . S
H1335 C1347 0.929 . S
H1336 C1350 0.930 . S
H1337 C1352 0.960 . S
H1338 C1352 0.960 . S
H1339 C1352 0.960 . S
C1340 H1332 0.929 . S
C1340 C1341 1.377 . S
C1340 C1342 1.384 . S
C1341 C1340 1.377 . S
C1341 C1347 1.390 . S
C1342 H1333 0.930 . S
C1342 C1340 1.384 . S
C1342 C1343 1.372 . S
C1343 C1342 1.372 . S
C1343 C1344 1.400 . S
C1343 C1348 1.490 . S
C1344 H1334 0.930 . S
C1344 C1343 1.400 . S
C1344 C1347 1.386 . S
H1345 C1361 0.930 . S
H1346 C1362 0.931 . S
C1347 H1335 0.929 . S
C1347 C1341 1.390 . S
C1347 C1344 1.386 . S
C1348 C1343 1.490 . S
C1348 C1350 1.395 . S
C1348 C1351 1.403 . S
H1349 C1355 0.930 . S
C1350 H1336 0.930 . S
C1350 C1348 1.395 . S
C1350 C1353 1.403 . S
C1351 C1348 1.403 . S
C1351 C1352 1.524 . S
C1351 C1355 1.400 . S
C1352 H1337 0.960 . S
C1352 H1338 0.960 . S
C1352 H1339 0.960 . S
C1352 C1351 1.524 . S
C1353 C1350 1.403 . S
C1353 C1354 1.392 . S
C1353 C1357 1.495 . S
C1354 C1353 1.392 . S
C1354 C1355 1.385 . S
C1354 C1356 1.478 . S
C1355 H1349 0.930 . S
C1355 C1351 1.400 . S
C1355 C1354 1.385 . S
C1356 C1354 1.478 . S
C1356 C1358 1.381 . S
C1356 C1362 1.383 . S
C1357 C1353 1.495 . S
C1357 H1363 0.959 . S
C1357 H1364 0.961 . S
C1357 H1365 0.960 . S
C1358 C1356 1.381 . S
C1358 C1359 1.394 . S
C1358 H1366 0.930 . S
C1359 C1358 1.394 . S
C1359 C1360 1.383 . S
C1359 H1367 0.929 . S
C1360 C1359 1.383 . S
C1360 C1361 1.377 . S
C1361 H1345 0.930 . S
C1361 C1360 1.377 . S
C1361 C1362 1.379 . S
C1362 H1346 0.931 . S
C1362 C1356 1.383 . S
C1362 C1361 1.379 . S
H1363 C1357 0.959 . S
H1364 C1357 0.961 . S
H1365 C1357 0.960 . S
H1366 C1358 0.930 . S
H1367 C1359 0.929 . S
H1368 C1376 0.929 . S
H1369 C1378 0.930 . S
H1370 C1380 0.930 . S
H1371 C1383 0.929 . S
H1372 C1386 0.930 . S
H1373 C1388 0.960 . S
H1374 C1388 0.960 . S
H1375 C1388 0.960 . S
C1376 H1368 0.929 . S
C1376 C1377 1.377 . S
C1376 C1378 1.384 . S
C1377 C1376 1.377 . S
C1377 C1383 1.390 . S
C1378 H1369 0.930 . S
C1378 C1376 1.384 . S
C1378 C1379 1.372 . S
C1379 C1378 1.372 . S
C1379 C1380 1.400 . S
C1379 C1384 1.490 . S
C1380 H1370 0.930 . S
C1380 C1379 1.400 . S
C1380 C1383 1.386 . S
H1381 C1397 0.930 . S
H1382 C1398 0.931 . S
C1383 H1371 0.929 . S
C1383 C1377 1.390 . S
C1383 C1380 1.386 . S
C1384 C1379 1.490 . S
C1384 C1386 1.395 . S
C1384 C1387 1.403 . S
H1385 C1391 0.930 . S
C1386 H1372 0.930 . S
C1386 C1384 1.395 . S
C1386 C1389 1.403 . S
C1387 C1384 1.403 . S
C1387 C1388 1.524 . S
C1387 C1391 1.400 . S
C1388 H1373 0.960 . S
C1388 H1374 0.960 . S
C1388 H1375 0.960 . S
C1388 C1387 1.524 . S
C1389 C1386 1.403 . S
C1389 C1390 1.392 . S
C1389 C1393 1.495 . S
C1390 C1389 1.392 . S
C1390 C1391 1.385 . S
C1390 C1392 1.478 . S
C1391 H1385 0.930 . S
C1391 C1387 1.400 . S
C1391 C1390 1.385 . S
C1392 C1390 1.478 . S
C1392 C1394 1.381 . S
C1392 C1398 1.383 . S
C1393 C1389 1.495 . S
C1393 H1399 0.959 . S
C1393 H1400 0.961 . S
C1393 H1401 0.960 . S
C1394 C1392 1.381 . S
C1394 C1395 1.394 . S
C1394 H1402 0.930 . S
C1395 C1394 1.394 . S
C1395 C1396 1.383 . S
C1395 H1403 0.929 . S
C1396 C1395 1.383 . S
C1396 C1397 1.377 . S
C1397 H1381 0.930 . S
C1397 C1396 1.377 . S
C1397 C1398 1.379 . S
C1398 H1382 0.931 . S
C1398 C1392 1.383 . S
C1398 C1397 1.379 . S
H1399 C1393 0.959 . S
H1400 C1393 0.961 . S
H1401 C1393 0.960 . S
H1402 C1394 0.930 . S
H1403 C1395 0.929 . S
H1404 C1412 0.929 . S
H1405 C1414 0.930 . S
H1406 C1416 0.930 . S
H1407 C1419 0.929 . S
H1408 C1422 0.930 . S
H1409 C1424 0.960 . S
H1410 C1424 0.960 . S
H1411 C1424 0.960 . S
C1412 H1404 0.929 . S
C1412 C1413 1.377 . S
C1412 C1414 1.384 . S
C1413 C1412 1.377 . S
C1413 C1419 1.390 . S
C1414 H1405 0.930 . S
C1414 C1412 1.384 . S
C1414 C1415 1.372 . S
C1415 C1414 1.372 . S
C1415 C1416 1.400 . S
C1415 C1420 1.490 . S
C1416 H1406 0.930 . S
C1416 C1415 1.400 . S
C1416 C1419 1.386 . S
H1417 C1433 0.930 . S
H1418 C1434 0.931 . S
C1419 H1407 0.929 . S
C1419 C1413 1.390 . S
C1419 C1416 1.386 . S
C1420 C1415 1.490 . S
C1420 C1422 1.395 . S
C1420 C1423 1.403 . S
H1421 C1427 0.930 . S
C1422 H1408 0.930 . S
C1422 C1420 1.395 . S
C1422 C1425 1.403 . S
C1423 C1420 1.403 . S
C1423 C1424 1.524 . S
C1423 C1427 1.400 . S
C1424 H1409 0.960 . S
C1424 H1410 0.960 . S
C1424 H1411 0.960 . S
C1424 C1423 1.524 . S
C1425 C1422 1.403 . S
C1425 C1426 1.392 . S
C1425 C1429 1.495 . S
C1426 C1425 1.392 . S
C1426 C1427 1.385 . S
C1426 C1428 1.478 . S
C1427 H1421 0.930 . S
C1427 C1423 1.400 . S
C1427 C1426 1.385 . S
C1428 C1426 1.478 . S
C1428 C1430 1.381 . S
C1428 C1434 1.383 . S
C1429 C1425 1.495 . S
C1429 H1435 0.959 . S
C1429 H1436 0.961 . S
C1429 H1437 0.960 . S
C1430 C1428 1.381 . S
C1430 C1431 1.394 . S
C1430 H1438 0.930 . S
C1431 C1430 1.394 . S
C1431 C1432 1.383 . S
C1431 H1439 0.929 . S
C1432 C1431 1.383 . S
C1432 C1433 1.377 . S
C1433 H1417 0.930 . S
C1433 C1432 1.377 . S
C1433 C1434 1.379 . S
C1434 H1418 0.931 . S
C1434 C1428 1.383 . S
C1434 C1433 1.379 . S
H1435 C1429 0.959 . S
H1436 C1429 0.961 . S
H1437 C1429 0.960 . S
H1438 C1430 0.930 . S
H1439 C1431 0.929 . S
H1440 C1448 0.929 . S
H1441 C1450 0.930 . S
H1442 C1452 0.930 . S
H1443 C1455 0.929 . S
H1444 C1458 0.930 . S
H1445 C1460 0.960 . S
H1446 C1460 0.960 . S
H1447 C1460 0.960 . S
C1448 H1440 0.929 . S
C1448 C1449 1.377 . S
C1448 C1450 1.384 . S
C1449 C1448 1.377 . S
C1449 C1455 1.390 . S
C1450 H1441 0.930 . S
C1450 C1448 1.384 . S
C1450 C1451 1.372 . S
C1451 C1450 1.372 . S
C1451 C1452 1.400 . S
C1451 C1456 1.490 . S
C1452 H1442 0.930 . S
C1452 C1451 1.400 . S
C1452 C1455 1.386 . S
H1453 C1469 0.930 . S
H1454 C1470 0.931 . S
C1455 H1443 0.929 . S
C1455 C1449 1.390 . S
C1455 C1452 1.386 . S
C1456 C1451 1.490 . S
C1456 C1458 1.395 . S
C1456 C1459 1.403 . S
H1457 C1463 0.930 . S
C1458 H1444 0.930 . S
C1458 C1456 1.395 . S
C1458 C1461 1.403 . S
C1459 C1456 1.403 . S
C1459 C1460 1.524 . S
C1459 C1463 1.400 . S
C1460 H1445 0.960 . S
C1460 H1446 0.960 . S
C1460 H1447 0.960 . S
C1460 C1459 1.524 . S
C1461 C1458 1.403 . S
C1461 C1462 1.392 . S
C1461 C1465 1.495 . S
C1462 C1461 1.392 . S
C1462 C1463 1.385 . S
C1462 C1464 1.478 . S
C1463 H1457 0.930 . S
C1463 C1459 1.400 . S
C1463 C1462 1.385 . S
C1464 C1462 1.478 . S
C1464 C1466 1.381 . S
C1464 C1470 1.383 . S
C1465 C1461 1.495 . S
C1465 H1471 0.959 . S
C1465 H1472 0.961 1_556 S
C1465 H1473 0.960 . S
C1466 C1464 1.381 . S
C1466 C1467 1.394 . S
C1466 H1474 0.930 . S
C1467 C1466 1.394 . S
C1467 C1468 1.383 . S
C1467 H1475 0.929 . S
C1468 C1467 1.383 . S
C1468 C1469 1.377 . S
C1469 H1453 0.930 . S
C1469 C1468 1.377 . S
C1469 C1470 1.379 . S
C1470 H1454 0.931 . S
C1470 C1464 1.383 . S
C1470 C1469 1.379 . S
H1471 C1465 0.959 . S
H1472 C1465 0.961 1_554 S
H1473 C1465 0.960 . S
H1474 C1466 0.930 . S
H1475 C1467 0.929 . S
H1476 C1484 0.929 . S
H1477 C1486 0.930 . S
H1478 C1488 1.020 . S
H1479 C1491 0.869 1_554 S
H1480 C1494 0.930 . S
H1481 C1496 0.956 . S
H1482 C1496 0.963 1_556 S
H1483 C1496 0.955 . S
C1484 H1476 0.929 . S
C1484 C1485 1.377 . S
C1484 C1486 1.384 . S
C1485 C1484 1.377 . S
C1485 C1491 1.390 . S
C1486 H1477 0.930 . S
C1486 C1484 1.384 . S
C1486 C1487 1.372 . S
C1487 C1486 1.372 . S
C1487 C1488 1.400 . S
C1487 C1492 1.490 . S
C1488 H1478 1.020 . S
C1488 C1487 1.400 . S
C1488 C1491 1.386 . S
H1489 C1505 0.930 . S
H1490 C1506 0.931 . S
C1491 H1479 0.869 1_556 S
C1491 C1485 1.390 . S
C1491 C1488 1.386 . S
C1492 C1487 1.490 . S
C1492 C1494 1.395 . S
C1492 C1495 1.403 . S
H1493 C1499 0.930 . S
C1494 H1480 0.930 . S
C1494 C1492 1.395 . S
C1494 C1497 1.403 . S
C1495 C1492 1.403 . S
C1495 C1496 1.530 1_556 S
C1495 C1499 1.400 . S
C1496 H1481 0.956 . S
C1496 H1482 0.963 1_554 S
C1496 H1483 0.955 . S
C1496 C1495 1.530 1_554 S
C1497 C1494 1.403 . S
C1497 C1498 1.392 . S
C1497 C1501 1.495 . S
C1498 C1497 1.392 . S
C1498 C1499 1.385 . S
C1498 C1500 1.478 . S
C1499 H1493 0.930 . S
C1499 C1495 1.400 . S
C1499 C1498 1.385 . S
C1500 C1498 1.478 . S
C1500 C1502 1.381 . S
C1500 C1506 1.383 . S
C1501 C1497 1.495 . S
C1501 H1507 0.959 . S
C1501 H1508 0.961 . S
C1501 H1509 0.960 . S
C1502 C1500 1.381 . S
C1502 C1503 1.394 . S
C1502 H1510 0.930 . S
C1503 C1502 1.394 . S
C1503 C1504 1.383 . S
C1503 H1511 0.929 . S
C1504 C1503 1.383 . S
C1504 C1505 1.377 . S
C1505 H1489 0.930 . S
C1505 C1504 1.377 . S
C1505 C1506 1.379 . S
C1506 H1490 0.931 . S
C1506 C1500 1.383 . S
C1506 C1505 1.379 . S
H1507 C1501 0.959 . S
H1508 C1501 0.961 . S
H1509 C1501 0.960 . S
H1510 C1502 0.930 . S
H1511 C1503 0.929 . S
H1512 C1520 0.929 . S
H1513 C1522 0.930 . S
H1514 C1524 0.930 . S
H1515 C1527 0.929 . S
H1516 C1530 0.930 . S
H1517 C1532 0.960 . S
H1518 C1532 0.960 . S
H1519 C1532 0.960 . S
C1520 H1512 0.929 . S
C1520 C1521 1.377 . S
C1520 C1522 1.384 . S
C1521 C1520 1.377 . S
C1521 C1527 1.390 . S
C1522 H1513 0.930 . S
C1522 C1520 1.384 . S
C1522 C1523 1.372 . S
C1523 C1522 1.372 . S
C1523 C1524 1.400 . S
C1523 C1528 1.490 . S
C1524 H1514 0.930 . S
C1524 C1523 1.400 . S
C1524 C1527 1.386 . S
H1525 C1541 0.930 . S
H1526 C1542 0.931 . S
C1527 H1515 0.929 . S
C1527 C1521 1.390 . S
C1527 C1524 1.386 . S
C1528 C1523 1.490 . S
C1528 C1530 1.395 . S
C1528 C1531 1.403 . S
H1529 C1535 0.930 . S
C1530 H1516 0.930 . S
C1530 C1528 1.395 . S
C1530 C1533 1.403 . S
C1531 C1528 1.403 . S
C1531 C1532 1.524 . S
C1531 C1535 1.400 . S
C1532 H1517 0.960 . S
C1532 H1518 0.960 . S
C1532 H1519 0.960 . S
C1532 C1531 1.524 . S
C1533 C1530 1.403 . S
C1533 C1534 1.392 . S
C1533 C1537 1.495 . S
C1534 C1533 1.392 . S
C1534 C1535 1.385 . S
C1534 C1536 1.478 . S
C1535 H1529 0.930 . S
C1535 C1531 1.400 . S
C1535 C1534 1.385 . S
C1536 C1534 1.478 . S
C1536 C1538 1.381 . S
C1536 C1542 1.383 . S
C1537 C1533 1.495 . S
C1537 H1543 0.959 . S
C1537 H1544 0.961 . S
C1537 H1545 0.960 . S
C1538 C1536 1.381 . S
C1538 C1539 1.394 . S
C1538 H1546 0.935 . S
C1539 C1538 1.394 . S
C1539 C1540 1.383 . S
C1539 H1547 0.929 1_556 S
C1540 C1539 1.383 . S
C1540 C1541 1.377 . S
C1541 H1525 0.930 . S
C1541 C1540 1.377 . S
C1541 C1542 1.379 . S
C1542 H1526 0.931 . S
C1542 C1536 1.383 . S
C1542 C1541 1.379 . S
H1543 C1537 0.959 . S
H1544 C1537 0.961 . S
H1545 C1537 0.960 . S
H1546 C1538 0.935 . S
H1547 C1539 0.929 1_554 S
H1548 C1556 0.929 . S
H1549 C1558 0.930 . S
H1550 C1560 0.930 . S
H1551 C1563 0.929 . S
H1552 C1566 0.930 . S
H1553 C1568 0.960 . S
H1554 C1568 0.960 . S
H1555 C1568 0.960 . S
C1556 H1548 0.929 . S
C1556 C1557 1.377 . S
C1556 C1558 1.384 . S
C1557 C1556 1.377 . S
C1557 C1563 1.390 . S
C1558 H1549 0.930 . S
C1558 C1556 1.384 . S
C1558 C1559 1.372 . S
C1559 C1558 1.372 . S
C1559 C1560 1.400 . S
C1559 C1564 1.490 . S
C1560 H1550 0.930 . S
C1560 C1559 1.400 . S
C1560 C1563 1.386 . S
H1561 C1577 0.930 . S
H1562 C1578 0.931 . S
C1563 H1551 0.929 . S
C1563 C1557 1.390 . S
C1563 C1560 1.386 . S
C1564 C1559 1.490 . S
C1564 C1566 1.395 . S
C1564 C1567 1.403 . S
H1565 C1571 0.930 . S
C1566 H1552 0.930 . S
C1566 C1564 1.395 . S
C1566 C1569 1.403 . S
C1567 C1564 1.403 . S
C1567 C1568 1.524 . S
C1567 C1571 1.400 . S
C1568 H1553 0.960 . S
C1568 H1554 0.960 . S
C1568 H1555 0.960 . S
C1568 C1567 1.524 . S
C1569 C1566 1.403 . S
C1569 C1570 1.392 . S
C1569 C1573 1.495 . S
C1570 C1569 1.392 . S
C1570 C1571 1.385 . S
C1570 C1572 1.478 . S
C1571 H1565 0.930 . S
C1571 C1567 1.400 . S
C1571 C1570 1.385 . S
C1572 C1570 1.478 . S
C1572 C1574 1.381 . S
C1572 C1578 1.383 . S
C1573 C1569 1.495 . S
C1573 H1579 0.959 . S
C1573 H1580 0.961 . S
C1573 H1581 0.960 . S
C1574 C1572 1.381 . S
C1574 C1575 1.394 . S
C1574 H1582 0.930 . S
C1575 C1574 1.394 . S
C1575 C1576 1.383 . S
C1575 H1583 0.929 . S
C1576 C1575 1.383 . S
C1576 C1577 1.377 . S
C1577 H1561 0.930 . S
C1577 C1576 1.377 . S
C1577 C1578 1.379 . S
C1578 H1562 0.931 . S
C1578 C1572 1.383 . S
C1578 C1577 1.379 . S
H1579 C1573 0.959 . S
H1580 C1573 0.961 . S
H1581 C1573 0.960 . S
H1582 C1574 0.930 . S
H1583 C1575 0.929 . S
H1584 C1592 0.929 . S
H1585 C1594 0.930 . S
H1586 C1596 0.930 . S
H1587 C1599 0.929 . S
H1588 C1602 0.930 . S
H1589 C1604 0.960 . S
H1590 C1604 0.960 . S
H1591 C1604 0.960 . S
C1592 H1584 0.929 . S
C1592 C1593 1.377 . S
C1592 C1594 1.384 . S
C1593 C1592 1.377 . S
C1593 C1599 1.390 . S
C1594 H1585 0.930 . S
C1594 C1592 1.384 . S
C1594 C1595 1.372 . S
C1595 C1594 1.372 . S
C1595 C1596 1.400 . S
C1595 C1600 1.490 . S
C1596 H1586 0.930 . S
C1596 C1595 1.400 . S
C1596 C1599 1.386 . S
H1597 C1613 0.930 . S
H1598 C1614 0.931 . S
C1599 H1587 0.929 . S
C1599 C1593 1.390 . S
C1599 C1596 1.386 . S
C1600 C1595 1.490 . S
C1600 C1602 1.395 . S
C1600 C1603 1.403 . S
H1601 C1607 0.930 . S
C1602 H1588 0.930 . S
C1602 C1600 1.395 . S
C1602 C1605 1.403 . S
C1603 C1600 1.403 . S
C1603 C1604 1.524 . S
C1603 C1607 1.400 . S
C1604 H1589 0.960 . S
C1604 H1590 0.960 . S
C1604 H1591 0.960 . S
C1604 C1603 1.524 . S
C1605 C1602 1.403 . S
C1605 C1606 1.392 . S
C1605 C1609 1.495 . S
C1606 C1605 1.392 . S
C1606 C1607 1.385 . S
C1606 C1608 1.478 . S
C1607 H1601 0.930 . S
C1607 C1603 1.400 . S
C1607 C1606 1.385 . S
C1608 C1606 1.478 . S
C1608 C1610 1.381 . S
C1608 C1614 1.383 . S
C1609 C1605 1.495 . S
C1609 H1615 0.959 . S
C1609 H1616 0.961 . S
C1609 H1617 0.960 . S
C1610 C1608 1.381 . S
C1610 C1611 1.394 . S
C1610 H1618 0.930 . S
C1611 C1610 1.394 . S
C1611 C1612 1.383 . S
C1611 H1619 0.929 . S
C1612 C1611 1.383 . S
C1612 C1613 1.377 . S
C1613 H1597 0.930 . S
C1613 C1612 1.377 . S
C1613 C1614 1.379 . S
C1614 H1598 0.931 . S
C1614 C1608 1.383 . S
C1614 C1613 1.379 . S
H1615 C1609 0.959 . S
H1616 C1609 0.961 . S
H1617 C1609 0.960 . S
H1618 C1610 0.930 . S
H1619 C1611 0.929 . S
H1620 C1628 0.929 . S
H1621 C1630 0.930 . S
H1622 C1632 0.930 . S
H1623 C1635 0.929 . S
H1624 C1638 0.930 . S
H1625 C1640 0.960 . S
H1626 C1640 0.960 . S
H1627 C1640 0.960 . S
C1628 H1620 0.929 . S
C1628 C1629 1.377 . S
C1628 C1630 1.384 . S
C1629 C1628 1.377 . S
C1629 C1635 1.390 . S
C1630 H1621 0.930 . S
C1630 C1628 1.384 . S
C1630 C1631 1.372 . S
C1631 C1630 1.372 . S
C1631 C1632 1.400 . S
C1631 C1636 1.490 . S
C1632 H1622 0.930 . S
C1632 C1631 1.400 . S
C1632 C1635 1.386 . S
H1633 C1649 0.930 . S
H1634 C1650 0.931 . S
C1635 H1623 0.929 . S
C1635 C1629 1.390 . S
C1635 C1632 1.386 . S
C1636 C1631 1.490 . S
C1636 C1638 1.395 . S
C1636 C1639 1.403 . S
H1637 C1643 0.930 . S
C1638 H1624 0.930 . S
C1638 C1636 1.395 . S
C1638 C1641 1.403 . S
C1639 C1636 1.403 . S
C1639 C1640 1.524 . S
C1639 C1643 1.400 . S
C1640 H1625 0.960 . S
C1640 H1626 0.960 . S
C1640 H1627 0.960 . S
C1640 C1639 1.524 . S
C1641 C1638 1.403 . S
C1641 C1642 1.392 . S
C1641 C1645 1.495 . S
C1642 C1641 1.392 . S
C1642 C1643 1.385 . S
C1642 C1644 1.478 . S
C1643 H1637 0.930 . S
C1643 C1639 1.400 . S
C1643 C1642 1.385 . S
C1644 C1642 1.478 . S
C1644 C1646 1.381 . S
C1644 C1650 1.383 . S
C1645 C1641 1.495 . S
C1645 H1651 0.959 . S
C1645 H1652 0.961 . S
C1645 H1653 0.960 . S
C1646 C1644 1.381 . S
C1646 C1647 1.394 . S
C1646 H1654 0.930 . S
C1647 C1646 1.394 . S
C1647 C1648 1.383 . S
C1647 H1655 0.929 . S
C1648 C1647 1.383 . S
C1648 C1649 1.377 . S
C1649 H1633 0.930 . S
C1649 C1648 1.377 . S
C1649 C1650 1.379 . S
C1650 H1634 0.931 . S
C1650 C1644 1.383 . S
C1650 C1649 1.379 . S
H1651 C1645 0.959 . S
H1652 C1645 0.961 . S
H1653 C1645 0.960 . S
H1654 C1646 0.930 . S
H1655 C1647 0.929 . S
H1656 C1664 0.929 . S
H1657 C1666 0.930 . S
H1658 C1668 0.930 . S
H1659 C1671 0.929 . S
H1660 C1674 0.930 . S
H1661 C1676 0.960 . S
H1662 C1676 0.960 . S
H1663 C1676 0.960 . S
C1664 H1656 0.929 . S
C1664 C1665 1.377 . S
C1664 C1666 1.384 . S
C1665 C1664 1.377 . S
C1665 C1671 1.390 . S
C1666 H1657 0.930 . S
C1666 C1664 1.384 . S
C1666 C1667 1.372 . S
C1667 C1666 1.372 . S
C1667 C1668 1.400 . S
C1667 C1672 1.490 . S
C1668 H1658 0.930 . S
C1668 C1667 1.400 . S
C1668 C1671 1.386 . S
H1669 C1685 0.930 . S
H1670 C1686 0.931 . S
C1671 H1659 0.929 . S
C1671 C1665 1.390 . S
C1671 C1668 1.386 . S
C1672 C1667 1.490 . S
C1672 C1674 1.395 . S
C1672 C1675 1.403 . S
H1673 C1679 0.930 . S
C1674 H1660 0.930 . S
C1674 C1672 1.395 . S
C1674 C1677 1.403 . S
C1675 C1672 1.403 . S
C1675 C1676 1.524 . S
C1675 C1679 1.400 . S
C1676 H1661 0.960 . S
C1676 H1662 0.960 . S
C1676 H1663 0.960 . S
C1676 C1675 1.524 . S
C1677 C1674 1.403 . S
C1677 C1678 1.392 . S
C1677 C1681 1.495 . S
C1678 C1677 1.392 . S
C1678 C1679 1.385 . S
C1678 C1680 1.478 . S
C1679 H1673 0.930 . S
C1679 C1675 1.400 . S
C1679 C1678 1.385 . S
C1680 C1678 1.478 . S
C1680 C1682 1.381 . S
C1680 C1686 1.383 . S
C1681 C1677 1.495 . S
C1681 H1687 0.959 . S
C1681 H1688 0.961 . S
C1681 H1689 0.960 . S
C1682 C1680 1.381 . S
C1682 C1683 1.394 . S
C1682 H1690 0.930 . S
C1683 C1682 1.394 . S
C1683 C1684 1.383 . S
C1683 H1691 0.929 . S
C1684 C1683 1.383 . S
C1684 C1685 1.377 . S
C1685 H1669 0.930 . S
C1685 C1684 1.377 . S
C1685 C1686 1.379 . S
C1686 H1670 0.931 . S
C1686 C1680 1.383 . S
C1686 C1685 1.379 . S
H1687 C1681 0.959 . S
H1688 C1681 0.961 . S
H1689 C1681 0.960 . S
H1690 C1682 0.930 . S
H1691 C1683 0.929 . S
H1692 C1700 0.929 . S
H1693 C1702 0.930 . S
H1694 C1704 0.930 . S
H1695 C1707 0.929 . S
H1696 C1710 0.930 . S
H1697 C1712 0.960 . S
H1698 C1712 0.960 . S
H1699 C1712 0.960 . S
C1700 H1692 0.929 . S
C1700 C1701 1.377 . S
C1700 C1702 1.384 . S
C1701 C1700 1.377 . S
C1701 C1707 1.390 . S
C1702 H1693 0.930 . S
C1702 C1700 1.384 . S
C1702 C1703 1.372 . S
C1703 C1702 1.372 . S
C1703 C1704 1.400 . S
C1703 C1708 1.490 . S
C1704 H1694 0.930 . S
C1704 C1703 1.400 . S
C1704 C1707 1.386 . S
H1705 C1721 0.930 . S
H1706 C1722 0.931 . S
C1707 H1695 0.929 . S
C1707 C1701 1.390 . S
C1707 C1704 1.386 . S
C1708 C1703 1.490 . S
C1708 C1710 1.395 . S
C1708 C1711 1.403 . S
H1709 C1715 0.930 . S
C1710 H1696 0.930 . S
C1710 C1708 1.395 . S
C1710 C1713 1.403 . S
C1711 C1708 1.403 . S
C1711 C1712 1.524 . S
C1711 C1715 1.400 . S
C1712 H1697 0.960 . S
C1712 H1698 0.960 . S
C1712 H1699 0.960 . S
C1712 C1711 1.524 . S
C1713 C1710 1.403 . S
C1713 C1714 1.392 . S
C1713 C1717 1.495 . S
C1714 C1713 1.392 . S
C1714 C1715 1.385 . S
C1714 C1716 1.478 . S
C1715 H1709 0.930 . S
C1715 C1711 1.400 . S
C1715 C1714 1.385 . S
C1716 C1714 1.478 . S
C1716 C1718 1.381 . S
C1716 C1722 1.383 . S
C1717 C1713 1.495 . S
C1717 H1723 0.959 . S
C1717 H1724 0.961 . S
C1717 H1725 0.960 . S
C1718 C1716 1.381 . S
C1718 C1719 1.394 . S
C1718 H1726 0.930 . S
C1719 C1718 1.394 . S
C1719 C1720 1.383 . S
C1719 H1727 0.929 . S
C1720 C1719 1.383 . S
C1720 C1721 1.377 . S
C1721 H1705 0.930 . S
C1721 C1720 1.377 . S
C1721 C1722 1.379 . S
C1722 H1706 0.931 . S
C1722 C1716 1.383 . S
C1722 C1721 1.379 . S
H1723 C1717 0.959 . S
H1724 C1717 0.961 . S
H1725 C1717 0.960 . S
H1726 C1718 0.930 . S
H1727 C1719 0.929 . S
H1728 C1736 0.929 . S
H1729 C1738 0.930 . S
H1730 C1740 0.930 . S
H1731 C1743 0.929 . S
H1732 C1746 0.930 . S
H1733 C1748 0.960 . S
H1734 C1748 0.960 . S
H1735 C1748 0.960 . S
C1736 H1728 0.929 . S
C1736 C1737 1.377 . S
C1736 C1738 1.384 . S
C1737 C1736 1.377 . S
C1737 C1743 1.390 . S
C1738 H1729 0.930 . S
C1738 C1736 1.384 . S
C1738 C1739 1.372 . S
C1739 C1738 1.372 . S
C1739 C1740 1.400 . S
C1739 C1744 1.490 . S
C1740 H1730 0.930 . S
C1740 C1739 1.400 . S
C1740 C1743 1.386 . S
H1741 C1757 0.930 . S
H1742 C1758 0.931 . S
C1743 H1731 0.929 . S
C1743 C1737 1.390 . S
C1743 C1740 1.386 . S
C1744 C1739 1.490 . S
C1744 C1746 1.395 . S
C1744 C1747 1.403 . S
H1745 C1751 0.930 . S
C1746 H1732 0.930 . S
C1746 C1744 1.395 . S
C1746 C1749 1.403 . S
C1747 C1744 1.403 . S
C1747 C1748 1.524 . S
C1747 C1751 1.400 . S
C1748 H1733 0.960 . S
C1748 H1734 0.960 . S
C1748 H1735 0.960 . S
C1748 C1747 1.524 . S
C1749 C1746 1.403 . S
C1749 C1750 1.392 . S
C1749 C1753 1.495 . S
C1750 C1749 1.392 . S
C1750 C1751 1.385 . S
C1750 C1752 1.478 . S
C1751 H1745 0.930 . S
C1751 C1747 1.400 . S
C1751 C1750 1.385 . S
C1752 C1750 1.478 . S
C1752 C1754 1.381 . S
C1752 C1758 1.383 . S
C1753 C1749 1.495 . S
C1753 H1759 0.959 . S
C1753 H1760 0.961 . S
C1753 H1761 0.960 . S
C1754 C1752 1.381 . S
C1754 C1755 1.394 . S
C1754 H1762 0.930 . S
C1755 C1754 1.394 . S
C1755 C1756 1.383 . S
C1755 H1763 0.929 . S
C1756 C1755 1.383 . S
C1756 C1757 1.377 . S
C1757 H1741 0.930 . S
C1757 C1756 1.377 . S
C1757 C1758 1.379 . S
C1758 H1742 0.931 . S
C1758 C1752 1.383 . S
C1758 C1757 1.379 . S
H1759 C1753 0.959 . S
H1760 C1753 0.961 . S
H1761 C1753 0.960 . S
H1762 C1754 0.930 . S
H1763 C1755 0.929 . S
H1764 C1772 0.929 . S
H1765 C1774 0.930 . S
H1766 C1776 0.930 . S
H1767 C1779 0.929 . S
H1768 C1782 0.930 . S
H1769 C1784 0.960 . S
H1770 C1784 0.960 . S
H1771 C1784 0.960 . S
C1772 H1764 0.929 . S
C1772 C1773 1.377 . S
C1772 C1774 1.384 . S
C1773 C1772 1.377 . S
C1773 C1779 1.390 . S
C1774 H1765 0.930 . S
C1774 C1772 1.384 . S
C1774 C1775 1.372 . S
C1775 C1774 1.372 . S
C1775 C1776 1.400 . S
C1775 C1780 1.490 . S
C1776 H1766 0.930 . S
C1776 C1775 1.400 . S
C1776 C1779 1.386 . S
H1777 C1793 0.930 . S
H1778 C1794 0.931 . S
C1779 H1767 0.929 . S
C1779 C1773 1.390 . S
C1779 C1776 1.386 . S
C1780 C1775 1.490 . S
C1780 C1782 1.395 . S
C1780 C1783 1.403 . S
H1781 C1787 0.930 . S
C1782 H1768 0.930 . S
C1782 C1780 1.395 . S
C1782 C1785 1.403 . S
C1783 C1780 1.403 . S
C1783 C1784 1.524 . S
C1783 C1787 1.400 . S
C1784 H1769 0.960 . S
C1784 H1770 0.960 . S
C1784 H1771 0.960 . S
C1784 C1783 1.524 . S
C1785 C1782 1.403 . S
C1785 C1786 1.392 . S
C1785 C1789 1.495 . S
C1786 C1785 1.392 . S
C1786 C1787 1.385 . S
C1786 C1788 1.478 . S
C1787 H1781 0.930 . S
C1787 C1783 1.400 . S
C1787 C1786 1.385 . S
C1788 C1786 1.478 . S
C1788 C1790 1.381 . S
C1788 C1794 1.383 . S
C1789 C1785 1.495 . S
C1789 H1795 0.959 . S
C1789 H1796 0.961 . S
C1789 H1797 0.960 . S
C1790 C1788 1.381 . S
C1790 C1791 1.394 . S
C1790 H1798 0.930 . S
C1791 C1790 1.394 . S
C1791 C1792 1.383 . S
C1791 H1799 0.929 . S
C1792 C1791 1.383 . S
C1792 C1793 1.377 . S
C1793 H1777 0.930 . S
C1793 C1792 1.377 . S
C1793 C1794 1.379 . S
C1794 H1778 0.931 . S
C1794 C1788 1.383 . S
C1794 C1793 1.379 . S
H1795 C1789 0.959 . S
H1796 C1789 0.961 . S
H1797 C1789 0.960 . S
H1798 C1790 0.930 . S
H1799 C1791 0.929 . S
H1800 C1808 0.929 . S
H1801 C1810 0.930 . S
H1802 C1812 0.930 . S
H1803 C1815 0.929 . S
H1804 C1818 0.930 . S
H1805 C1820 0.960 . S
H1806 C1820 0.960 . S
H1807 C1820 0.960 . S
C1808 H1800 0.929 . S
C1808 C1809 1.377 1_565 S
C1808 C1810 1.384 . S
C1809 C1808 1.377 1_545 S
C1809 C1815 1.390 . S
C1810 H1801 0.930 . S
C1810 C1808 1.384 . S
C1810 C1811 1.372 1_565 S
C1811 C1810 1.372 1_545 S
C1811 C1812 1.400 . S
C1811 C1816 1.490 . S
C1812 H1802 0.930 . S
C1812 C1811 1.400 . S
C1812 C1815 1.386 . S
H1813 C1829 0.930 . S
H1814 C1830 0.931 . S
C1815 H1803 0.929 . S
C1815 C1809 1.390 . S
C1815 C1812 1.386 . S
C1816 C1811 1.490 . S
C1816 C1818 1.395 . S
C1816 C1819 1.403 1_545 S
H1817 C1823 0.930 . S
C1818 H1804 0.930 . S
C1818 C1816 1.395 . S
C1818 C1821 1.403 . S
C1819 C1816 1.403 1_565 S
C1819 C1820 1.524 . S
C1819 C1823 1.400 . S
C1820 H1805 0.960 . S
C1820 H1806 0.960 . S
C1820 H1807 0.960 . S
C1820 C1819 1.524 . S
C1821 C1818 1.403 . S
C1821 C1822 1.396 1_545 S
C1821 C1825 1.495 . S
C1822 C1821 1.396 1_565 S
C1822 C1823 1.380 . S
C1822 C1824 1.481 . S
C1823 H1817 0.930 . S
C1823 C1819 1.400 . S
C1823 C1822 1.380 . S
C1824 C1822 1.481 . S
C1824 C1826 1.381 . S
C1824 C1830 1.383 1_565 S
C1825 C1821 1.495 . S
C1825 H1831 0.959 . S
C1825 H1832 0.961 . S
C1825 H1833 0.960 . S
C1826 C1824 1.381 . S
C1826 C1827 1.394 . S
C1826 H1834 0.930 . S
C1827 C1826 1.394 . S
C1827 C1828 1.383 . S
C1827 H1835 0.929 . S
C1828 C1827 1.383 . S
C1828 C1829 1.377 1_565 S
C1829 H1813 0.930 . S
C1829 C1828 1.377 1_545 S
C1829 C1830 1.379 . S
C1830 H1814 0.931 . S
C1830 C1824 1.383 1_545 S
C1830 C1829 1.379 . S
H1831 C1825 0.959 . S
H1832 C1825 0.961 . S
H1833 C1825 0.960 . S
H1834 C1826 0.930 . S
H1835 C1827 0.929 . S
H1836 C1844 0.929 . S
H1837 C1846 0.930 . S
H1838 C1848 0.930 . S
H1839 C1851 0.929 . S
H1840 C1854 0.930 . S
H1841 C1856 0.960 . S
H1842 C1856 0.960 1_655 S
H1843 C1856 0.960 . S
C1844 H1836 0.929 . S
C1844 C1845 1.377 1_655 S
C1844 C1846 1.384 . S
C1845 C1844 1.377 1_455 S
C1845 C1851 1.390 . S
C1846 H1837 0.930 . S
C1846 C1844 1.384 . S
C1846 C1847 1.372 1_655 S
C1847 C1846 1.372 1_455 S
C1847 C1848 1.400 . S
C1847 C1852 1.490 . S
C1848 H1838 0.930 . S
C1848 C1847 1.400 . S
C1848 C1851 1.386 . S
H1849 C1865 0.930 . S
H1850 C1866 0.931 . S
C1851 H1839 0.929 . S
C1851 C1845 1.390 . S
C1851 C1848 1.386 . S
C1852 C1847 1.490 . S
C1852 C1854 1.395 1_455 S
C1852 C1855 1.403 . S
H1853 C1859 0.940 . S
C1854 H1840 0.930 . S
C1854 C1852 1.395 1_655 S
C1854 C1857 1.403 . S
C1855 C1852 1.403 . S
C1855 C1856 1.524 . S
C1855 C1859 1.402 . S
C1856 H1841 0.960 . S
C1856 H1842 0.960 1_455 S
C1856 H1843 0.960 . S
C1856 C1855 1.524 . S
C1857 C1854 1.403 . S
C1857 C1858 1.392 . S
C1857 C1861 1.495 . S
C1858 C1857 1.392 . S
C1858 C1859 1.374 1_655 S
C1858 C1860 1.478 . S
C1859 H1853 0.940 . S
C1859 C1855 1.402 . S
C1859 C1858 1.374 1_455 S
C1860 C1858 1.478 . S
C1860 C1862 1.381 . S
C1860 C1866 1.383 1_655 S
C1861 C1857 1.495 . S
C1861 H1867 0.959 . S
C1861 H1868 0.961 1_655 S
C1861 H1869 0.960 . S
C1862 C1860 1.381 . S
C1862 C1863 1.394 . S
C1862 H1870 0.930 . S
C1863 C1862 1.394 . S
C1863 C1864 1.383 . S
C1863 H1871 0.929 . S
C1864 C1863 1.383 . S
C1864 C1865 1.377 1_655 S
C1865 H1849 0.930 . S
C1865 C1864 1.377 1_455 S
C1865 C1866 1.379 . S
C1866 H1850 0.931 . S
C1866 C1860 1.383 1_455 S
C1866 C1865 1.379 . S
H1867 C1861 0.959 . S
H1868 C1861 0.961 1_455 S
H1869 C1861 0.960 . S
H1870 C1862 0.930 . S
H1871 C1863 0.929 . S
H1872 C1880 0.929 . S
H1873 C1882 0.930 . S
H1874 C1884 0.930 . S
H1875 C1887 0.929 . S
H1876 C1890 0.930 . S
H1877 C1892 0.960 . S
H1878 C1892 0.960 . S
H1879 C1892 0.960 . S
C1880 H1872 0.929 . S
C1880 C1881 1.377 . S
C1880 C1882 1.384 . S
C1881 C1880 1.377 . S
C1881 C1887 1.390 . S
C1882 H1873 0.930 . S
C1882 C1880 1.384 . S
C1882 C1883 1.372 . S
C1883 C1882 1.372 . S
C1883 C1884 1.400 . S
C1883 C1888 1.490 . S
C1884 H1874 0.930 . S
C1884 C1883 1.400 . S
C1884 C1887 1.386 . S
H1885 C1901 0.930 . S
H1886 C1902 0.931 . S
C1887 H1875 0.929 . S
C1887 C1881 1.390 . S
C1887 C1884 1.386 . S
C1888 C1883 1.490 . S
C1888 C1890 1.395 . S
C1888 C1891 1.403 . S
H1889 C1895 0.930 . S
C1890 H1876 0.930 . S
C1890 C1888 1.395 . S
C1890 C1893 1.403 . S
C1891 C1888 1.403 . S
C1891 C1892 1.524 . S
C1891 C1895 1.400 . S
C1892 H1877 0.960 . S
C1892 H1878 0.960 . S
C1892 H1879 0.960 . S
C1892 C1891 1.524 . S
C1893 C1890 1.403 . S
C1893 C1894 1.392 . S
C1893 C1897 1.495 . S
C1894 C1893 1.392 . S
C1894 C1895 1.385 . S
C1894 C1896 1.478 . S
C1895 H1889 0.930 . S
C1895 C1891 1.400 . S
C1895 C1894 1.385 . S
C1896 C1894 1.478 . S
C1896 C1898 1.381 . S
C1896 C1902 1.383 . S
C1897 C1893 1.495 . S
C1897 H1903 0.959 . S
C1897 H1904 0.961 . S
C1897 H1905 0.960 . S
C1898 C1896 1.381 . S
C1898 C1899 1.394 . S
C1898 H1906 0.930 . S
C1899 C1898 1.394 . S
C1899 C1900 1.383 . S
C1899 H1907 0.929 . S
C1900 C1899 1.383 . S
C1900 C1901 1.377 . S
C1901 H1885 0.930 . S
C1901 C1900 1.377 . S
C1901 C1902 1.379 . S
C1902 H1886 0.931 . S
C1902 C1896 1.383 . S
C1902 C1901 1.379 . S
H1903 C1897 0.959 . S
H1904 C1897 0.961 . S
H1905 C1897 0.960 . S
H1906 C1898 0.930 . S
H1907 C1899 0.929 . S
H1908 C1916 0.929 . S
H1909 C1918 0.930 . S
H1910 C1920 0.930 . S
H1911 C1923 0.929 . S
H1912 C1926 0.930 . S
H1913 C1928 0.960 . S
H1914 C1928 0.960 . S
H1915 C1928 0.960 . S
C1916 H1908 0.929 . S
C1916 C1917 1.377 . S
C1916 C1918 1.384 . S
C1917 C1916 1.377 . S
C1917 C1923 1.390 . S
C1918 H1909 0.930 . S
C1918 C1916 1.384 . S
C1918 C1919 1.372 . S
C1919 C1918 1.372 . S
C1919 C1920 1.400 . S
C1919 C1924 1.490 . S
C1920 H1910 0.930 . S
C1920 C1919 1.400 . S
C1920 C1923 1.386 . S
H1921 C1937 0.930 . S
H1922 C1938 0.931 . S
C1923 H1911 0.929 . S
C1923 C1917 1.390 . S
C1923 C1920 1.386 . S
C1924 C1919 1.490 . S
C1924 C1926 1.395 1_565 S
C1924 C1927 1.403 . S
H1925 C1931 0.930 . S
C1926 H1912 0.930 . S
C1926 C1924 1.395 1_545 S
C1926 C1929 1.403 . S
C1927 C1924 1.403 . S
C1927 C1928 1.524 . S
C1927 C1931 1.400 . S
C1928 H1913 0.960 . S
C1928 H1914 0.960 . S
C1928 H1915 0.960 . S
C1928 C1927 1.524 . S
C1929 C1926 1.403 . S
C1929 C1930 1.392 . S
C1929 C1933 1.495 . S
C1930 C1929 1.392 . S
C1930 C1931 1.385 1_545 S
C1930 C1932 1.478 . S
C1931 H1925 0.930 . S
C1931 C1927 1.400 . S
C1931 C1930 1.385 1_565 S
C1932 C1930 1.478 . S
C1932 C1934 1.381 . S
C1932 C1938 1.383 . S
C1933 C1929 1.495 . S
C1933 H1939 0.959 . S
C1933 H1940 0.961 . S
C1933 H1941 0.960 . S
C1934 C1932 1.381 . S
C1934 C1935 1.394 . S
C1934 H1942 0.930 . S
C1935 C1934 1.394 . S
C1935 C1936 1.383 . S
C1935 H1943 0.929 . S
C1936 C1935 1.383 . S
C1936 C1937 1.377 . S
C1937 H1921 0.930 . S
C1937 C1936 1.377 . S
C1937 C1938 1.379 . S
C1938 H1922 0.931 . S
C1938 C1932 1.383 . S
C1938 C1937 1.379 . S
H1939 C1933 0.959 . S
H1940 C1933 0.961 . S
H1941 C1933 0.960 . S
H1942 C1934 0.930 . S
H1943 C1935 0.929 . S
H1944 C1952 0.929 . S
H1945 C1954 0.930 1_455 S
H1946 C1956 0.930 . S
H1947 C1959 0.929 . S
H1948 C1962 0.930 . S
H1949 C1964 0.960 . S
H1950 C1964 0.960 . S
H1951 C1964 0.960 . S
C1952 H1944 0.929 . S
C1952 C1953 1.377 . S
C1952 C1954 1.384 . S
C1953 C1952 1.377 . S
C1953 C1959 1.390 . S
C1954 H1945 0.930 1_655 S
C1954 C1952 1.384 . S
C1954 C1955 1.372 . S
C1955 C1954 1.372 . S
C1955 C1956 1.400 . S
C1955 C1960 1.490 . S
C1956 H1946 0.930 . S
C1956 C1955 1.400 . S
C1956 C1959 1.386 . S
H1957 C1973 0.930 . S
H1958 C1974 0.931 . S
C1959 H1947 0.929 . S
C1959 C1953 1.390 . S
C1959 C1956 1.386 . S
C1960 C1955 1.490 . S
C1960 C1962 1.395 1_655 S
C1960 C1963 1.403 . S
H1961 C1967 0.930 . S
C1962 H1948 0.930 . S
C1962 C1960 1.395 1_455 S
C1962 C1965 1.403 . S
C1963 C1960 1.403 . S
C1963 C1964 1.524 . S
C1963 C1967 1.400 . S
C1964 H1949 0.960 . S
C1964 H1950 0.960 . S
C1964 H1951 0.960 . S
C1964 C1963 1.524 . S
C1965 C1962 1.403 . S
C1965 C1966 1.392 . S
C1965 C1969 1.495 . S
C1966 C1965 1.392 . S
C1966 C1967 1.385 1_455 S
C1966 C1968 1.478 . S
C1967 H1961 0.930 . S
C1967 C1963 1.400 . S
C1967 C1966 1.385 1_655 S
C1968 C1966 1.478 . S
C1968 C1970 1.381 . S
C1968 C1974 1.383 . S
C1969 C1965 1.495 . S
C1969 H1975 0.959 . S
C1969 H1976 0.961 . S
C1969 H1977 0.960 . S
C1970 C1968 1.381 . S
C1970 C1971 1.394 . S
C1970 H1978 0.930 . S
C1971 C1970 1.394 . S
C1971 C1972 1.383 . S
C1971 H1979 0.929 . S
C1972 C1971 1.383 . S
C1972 C1973 1.377 . S
C1973 H1957 0.930 . S
C1973 C1972 1.377 . S
C1973 C1974 1.379 . S
C1974 H1958 0.931 . S
C1974 C1968 1.383 . S
C1974 C1973 1.379 . S
H1975 C1969 0.959 . S
H1976 C1969 0.961 . S
H1977 C1969 0.960 . S
H1978 C1970 0.930 . S
H1979 C1971 0.929 . S
H1980 C1988 0.929 . S
H1981 C1990 0.930 . S
H1982 C1992 0.930 . S
H1983 C1995 0.929 . S
H1984 C1998 0.930 . S
H1985 C2000 0.960 . S
H1986 C2000 0.960 . S
H1987 C2000 0.960 . S
C1988 H1980 0.929 . S
C1988 C1989 1.377 . S
C1988 C1990 1.384 . S
C1989 C1988 1.377 . S
C1989 C1995 1.390 . S
C1990 H1981 0.930 . S
C1990 C1988 1.384 . S
C1990 C1991 1.372 . S
C1991 C1990 1.372 . S
C1991 C1992 1.400 . S
C1991 C1996 1.490 . S
C1992 H1982 0.930 . S
C1992 C1991 1.400 . S
C1992 C1995 1.386 . S
H1993 C2009 0.930 . S
H1994 C2010 0.931 . S
C1995 H1983 0.929 . S
C1995 C1989 1.390 . S
C1995 C1992 1.386 . S
C1996 C1991 1.490 . S
C1996 C1998 1.395 . S
C1996 C1999 1.403 . S
H1997 C2003 0.930 . S
C1998 H1984 0.930 . S
C1998 C1996 1.395 . S
C1998 C2001 1.403 . S
C1999 C1996 1.403 . S
C1999 C2000 1.524 . S
C1999 C2003 1.400 . S
C2000 H1985 0.960 . S
C2000 H1986 0.960 . S
C2000 H1987 0.960 . S
C2000 C1999 1.524 . S
C2001 C1998 1.403 . S
C2001 C2002 1.392 . S
C2001 C2005 1.495 . S
C2002 C2001 1.392 . S
C2002 C2003 1.385 . S
C2002 C2004 1.478 . S
C2003 H1997 0.930 . S
C2003 C1999 1.400 . S
C2003 C2002 1.385 . S
C2004 C2002 1.478 . S
C2004 C2006 1.381 . S
C2004 C2010 1.383 . S
C2005 C2001 1.495 . S
C2005 H2011 0.959 . S
C2005 H2012 0.961 . S
C2005 H2013 0.960 . S
C2006 C2004 1.381 . S
C2006 C2007 1.394 . S
C2006 H2014 0.930 . S
C2007 C2006 1.394 . S
C2007 C2008 1.383 . S
C2007 H2015 0.929 . S
C2008 C2007 1.383 . S
C2008 C2009 1.377 . S
C2009 H1993 0.930 . S
C2009 C2008 1.377 . S
C2009 C2010 1.379 . S
C2010 H1994 0.931 . S
C2010 C2004 1.383 . S
C2010 C2009 1.379 . S
H2011 C2005 0.959 . S
H2012 C2005 0.961 . S
H2013 C2005 0.960 . S
H2014 C2006 0.930 . S
H2015 C2007 0.929 . S
H2016 C2024 0.929 . S
H2017 C2026 0.930 . S
H2018 C2028 0.930 . S
H2019 C2031 0.929 . S
H2020 C2034 0.930 . S
H2021 C2036 0.960 . S
H2022 C2036 0.960 . S
H2023 C2036 0.960 . S
C2024 H2016 0.929 . S
C2024 C2025 1.377 . S
C2024 C2026 1.384 . S
C2025 C2024 1.377 . S
C2025 C2031 1.390 . S
C2026 H2017 0.930 . S
C2026 C2024 1.384 . S
C2026 C2027 1.372 . S
C2027 C2026 1.372 . S
C2027 C2028 1.400 . S
C2027 C2032 1.490 . S
C2028 H2018 0.930 . S
C2028 C2027 1.400 . S
C2028 C2031 1.386 . S
H2029 C2045 0.930 . S
H2030 C2046 0.931 . S
C2031 H2019 0.929 . S
C2031 C2025 1.390 . S
C2031 C2028 1.386 . S
C2032 C2027 1.490 . S
C2032 C2034 1.395 . S
C2032 C2035 1.403 . S
H2033 C2039 0.930 . S
C2034 H2020 0.930 . S
C2034 C2032 1.395 . S
C2034 C2037 1.403 . S
C2035 C2032 1.403 . S
C2035 C2036 1.524 . S
C2035 C2039 1.400 . S
C2036 H2021 0.960 . S
C2036 H2022 0.960 . S
C2036 H2023 0.960 . S
C2036 C2035 1.524 . S
C2037 C2034 1.403 . S
C2037 C2038 1.392 . S
C2037 C2041 1.495 . S
C2038 C2037 1.392 . S
C2038 C2039 1.385 . S
C2038 C2040 1.478 . S
C2039 H2033 0.930 . S
C2039 C2035 1.400 . S
C2039 C2038 1.385 . S
C2040 C2038 1.478 . S
C2040 C2042 1.381 . S
C2040 C2046 1.383 . S
C2041 C2037 1.495 . S
C2041 H2047 0.959 . S
C2041 H2048 0.961 . S
C2041 H2049 0.960 . S
C2042 C2040 1.381 . S
C2042 C2043 1.394 . S
C2042 H2050 0.930 . S
C2043 C2042 1.394 . S
C2043 C2044 1.383 . S
C2043 H2051 0.929 . S
C2044 C2043 1.383 . S
C2044 C2045 1.377 . S
C2045 H2029 0.930 . S
C2045 C2044 1.377 . S
C2045 C2046 1.379 . S
C2046 H2030 0.931 . S
C2046 C2040 1.383 . S
C2046 C2045 1.379 . S
H2047 C2041 0.959 . S
H2048 C2041 0.961 . S
H2049 C2041 0.960 . S
H2050 C2042 0.930 . S
H2051 C2043 0.929 . S
H2052 C2060 0.929 . S
H2053 C2062 0.930 . S
H2054 C2064 0.930 . S
H2055 C2067 0.929 . S
H2056 C2070 0.930 . S
H2057 C2072 0.960 . S
H2058 C2072 0.960 . S
H2059 C2072 0.960 . S
C2060 H2052 0.929 . S
C2060 C2061 1.377 . S
C2060 C2062 1.384 . S
C2061 C2060 1.377 . S
C2061 C2067 1.390 . S
C2062 H2053 0.930 . S
C2062 C2060 1.384 . S
C2062 C2063 1.372 . S
C2063 C2062 1.372 . S
C2063 C2064 1.400 . S
C2063 C2068 1.490 . S
C2064 H2054 0.930 . S
C2064 C2063 1.400 . S
C2064 C2067 1.386 . S
H2065 C2081 0.930 . S
H2066 C2082 0.931 . S
C2067 H2055 0.929 . S
C2067 C2061 1.390 . S
C2067 C2064 1.386 . S
C2068 C2063 1.490 . S
C2068 C2070 1.395 . S
C2068 C2071 1.403 . S
H2069 C2075 0.930 . S
C2070 H2056 0.930 . S
C2070 C2068 1.395 . S
C2070 C2073 1.403 . S
C2071 C2068 1.403 . S
C2071 C2072 1.524 . S
C2071 C2075 1.400 . S
C2072 H2057 0.960 . S
C2072 H2058 0.960 . S
C2072 H2059 0.960 . S
C2072 C2071 1.524 . S
C2073 C2070 1.403 . S
C2073 C2074 1.392 . S
C2073 C2077 1.495 . S
C2074 C2073 1.392 . S
C2074 C2075 1.385 . S
C2074 C2076 1.478 . S
C2075 H2069 0.930 . S
C2075 C2071 1.400 . S
C2075 C2074 1.385 . S
C2076 C2074 1.478 . S
C2076 C2078 1.381 . S
C2076 C2082 1.383 . S
C2077 C2073 1.495 . S
C2077 H2083 0.959 . S
C2077 H2084 0.961 . S
C2077 H2085 0.960 . S
C2078 C2076 1.381 . S
C2078 C2079 1.394 . S
C2078 H2086 0.930 . S
C2079 C2078 1.394 . S
C2079 C2080 1.383 . S
C2079 H2087 0.929 . S
C2080 C2079 1.383 . S
C2080 C2081 1.377 . S
C2081 H2065 0.930 . S
C2081 C2080 1.377 . S
C2081 C2082 1.379 . S
C2082 H2066 0.931 . S
C2082 C2076 1.383 . S
C2082 C2081 1.379 . S
H2083 C2077 0.959 . S
H2084 C2077 0.961 . S
H2085 C2077 0.960 . S
H2086 C2078 0.930 . S
H2087 C2079 0.929 . S
H2088 C2096 0.929 . S
H2089 C2098 0.930 . S
H2090 C2100 0.930 . S
H2091 C2103 0.929 . S
H2092 C2106 0.930 . S
H2093 C2108 0.960 . S
H2094 C2108 0.960 . S
H2095 C2108 0.960 . S
C2096 H2088 0.929 . S
C2096 C2097 1.377 . S
C2096 C2098 1.384 . S
C2097 C2096 1.377 . S
C2097 C2103 1.390 . S
C2098 H2089 0.930 . S
C2098 C2096 1.384 . S
C2098 C2099 1.372 . S
C2099 C2098 1.372 . S
C2099 C2100 1.400 . S
C2099 C2104 1.490 . S
C2100 H2090 0.930 . S
C2100 C2099 1.400 . S
C2100 C2103 1.386 . S
H2101 C2117 0.930 . S
H2102 C2118 0.931 . S
C2103 H2091 0.929 . S
C2103 C2097 1.390 . S
C2103 C2100 1.386 . S
C2104 C2099 1.490 . S
C2104 C2106 1.395 . S
C2104 C2107 1.403 . S
H2105 C2111 0.930 . S
C2106 H2092 0.930 . S
C2106 C2104 1.395 . S
C2106 C2109 1.403 . S
C2107 C2104 1.403 . S
C2107 C2108 1.524 . S
C2107 C2111 1.400 . S
C2108 H2093 0.960 . S
C2108 H2094 0.960 . S
C2108 H2095 0.960 . S
C2108 C2107 1.524 . S
C2109 C2106 1.403 . S
C2109 C2110 1.392 . S
C2109 C2113 1.495 . S
C2110 C2109 1.392 . S
C2110 C2111 1.385 . S
C2110 C2112 1.478 . S
C2111 H2105 0.930 . S
C2111 C2107 1.400 . S
C2111 C2110 1.385 . S
C2112 C2110 1.478 . S
C2112 C2114 1.381 . S
C2112 C2118 1.383 . S
C2113 C2109 1.495 . S
C2113 H2119 0.959 . S
C2113 H2120 0.961 . S
C2113 H2121 0.960 . S
C2114 C2112 1.381 . S
C2114 C2115 1.394 . S
C2114 H2122 0.930 . S
C2115 C2114 1.394 . S
C2115 C2116 1.383 . S
C2115 H2123 0.929 . S
C2116 C2115 1.383 . S
C2116 C2117 1.377 . S
C2117 H2101 0.930 . S
C2117 C2116 1.377 . S
C2117 C2118 1.379 . S
C2118 H2102 0.931 . S
C2118 C2112 1.383 . S
C2118 C2117 1.379 . S
H2119 C2113 0.959 . S
H2120 C2113 0.961 . S
H2121 C2113 0.960 . S
H2122 C2114 0.930 . S
H2123 C2115 0.929 . S
H2124 C2132 0.929 . S
H2125 C2134 0.930 . S
H2126 C2136 0.930 . S
H2127 C2139 0.929 . S
H2128 C2142 0.930 . S
H2129 C2144 0.960 . S
H2130 C2144 0.960 . S
H2131 C2144 0.960 . S
C2132 H2124 0.929 . S
C2132 C2133 1.377 . S
C2132 C2134 1.384 . S
C2133 C2132 1.377 . S
C2133 C2139 1.390 . S
C2134 H2125 0.930 . S
C2134 C2132 1.384 . S
C2134 C2135 1.372 . S
C2135 C2134 1.372 . S
C2135 C2136 1.400 . S
C2135 C2140 1.490 . S
C2136 H2126 0.930 . S
C2136 C2135 1.400 . S
C2136 C2139 1.386 . S
H2137 C2153 0.930 . S
H2138 C2154 0.931 . S
C2139 H2127 0.929 . S
C2139 C2133 1.390 . S
C2139 C2136 1.386 . S
C2140 C2135 1.490 . S
C2140 C2142 1.395 . S
C2140 C2143 1.403 . S
H2141 C2147 0.930 . S
C2142 H2128 0.930 . S
C2142 C2140 1.395 . S
C2142 C2145 1.403 . S
C2143 C2140 1.403 . S
C2143 C2144 1.524 . S
C2143 C2147 1.400 . S
C2144 H2129 0.960 . S
C2144 H2130 0.960 . S
C2144 H2131 0.960 . S
C2144 C2143 1.524 . S
C2145 C2142 1.403 . S
C2145 C2146 1.392 . S
C2145 C2149 1.495 . S
C2146 C2145 1.392 . S
C2146 C2147 1.385 . S
C2146 C2148 1.478 . S
C2147 H2141 0.930 . S
C2147 C2143 1.400 . S
C2147 C2146 1.385 . S
C2148 C2146 1.478 . S
C2148 C2150 1.381 . S
C2148 C2154 1.383 . S
C2149 C2145 1.495 . S
C2149 H2155 0.959 . S
C2149 H2156 0.961 . S
C2149 H2157 0.960 . S
C2150 C2148 1.381 . S
C2150 C2151 1.394 . S
C2150 H2158 0.930 . S
C2151 C2150 1.394 . S
C2151 C2152 1.383 . S
C2151 H2159 0.929 . S
C2152 C2151 1.383 . S
C2152 C2153 1.377 . S
C2153 H2137 0.930 . S
C2153 C2152 1.377 . S
C2153 C2154 1.379 . S
C2154 H2138 0.931 . S
C2154 C2148 1.383 . S
C2154 C2153 1.379 . S
H2155 C2149 0.959 . S
H2156 C2149 0.961 . S
H2157 C2149 0.960 . S
H2158 C2150 0.930 . S
H2159 C2151 0.929 . S
H2160 C2168 0.929 . S
H2161 C2170 0.930 . S
H2162 C2172 0.930 . S
H2163 C2175 0.929 . S
H2164 C2178 0.930 . S
H2165 C2180 0.960 . S
H2166 C2180 0.960 . S
H2167 C2180 0.960 . S
C2168 H2160 0.929 . S
C2168 C2169 1.377 . S
C2168 C2170 1.384 . S
C2169 C2168 1.377 . S
C2169 C2175 1.390 . S
C2170 H2161 0.930 . S
C2170 C2168 1.384 . S
C2170 C2171 1.372 . S
C2171 C2170 1.372 . S
C2171 C2172 1.400 . S
C2171 C2176 1.490 . S
C2172 H2162 0.930 . S
C2172 C2171 1.400 . S
C2172 C2175 1.386 . S
H2173 C2189 0.930 . S
H2174 C2190 0.931 . S
C2175 H2163 0.929 . S
C2175 C2169 1.390 . S
C2175 C2172 1.386 . S
C2176 C2171 1.490 . S
C2176 C2178 1.395 . S
C2176 C2179 1.403 . S
H2177 C2183 0.930 . S
C2178 H2164 0.930 . S
C2178 C2176 1.395 . S
C2178 C2181 1.403 . S
C2179 C2176 1.403 . S
C2179 C2180 1.524 . S
C2179 C2183 1.400 . S
C2180 H2165 0.960 . S
C2180 H2166 0.960 . S
C2180 H2167 0.960 . S
C2180 C2179 1.524 . S
C2181 C2178 1.403 . S
C2181 C2182 1.392 . S
C2181 C2185 1.495 . S
C2182 C2181 1.392 . S
C2182 C2183 1.385 . S
C2182 C2184 1.478 . S
C2183 H2177 0.930 . S
C2183 C2179 1.400 . S
C2183 C2182 1.385 . S
C2184 C2182 1.478 . S
C2184 C2186 1.381 . S
C2184 C2190 1.383 . S
C2185 C2181 1.495 . S
C2185 H2191 0.959 . S
C2185 H2192 0.961 . S
C2185 H2193 0.960 . S
C2186 C2184 1.381 . S
C2186 C2187 1.394 . S
C2186 H2194 0.930 . S
C2187 C2186 1.394 . S
C2187 C2188 1.383 . S
C2187 H2195 0.929 . S
C2188 C2187 1.383 . S
C2188 C2189 1.377 . S
C2189 H2173 0.930 . S
C2189 C2188 1.377 . S
C2189 C2190 1.379 . S
C2190 H2174 0.931 . S
C2190 C2184 1.383 . S
C2190 C2189 1.379 . S
H2191 C2185 0.959 . S
H2192 C2185 0.961 . S
H2193 C2185 0.960 . S
H2194 C2186 0.930 . S
H2195 C2187 0.929 . S
H2196 C2204 0.929 . S
H2197 C2206 0.930 . S
H2198 C2208 0.930 . S
H2199 C2211 0.929 . S
H2200 C2214 0.930 . S
H2201 C2216 0.960 . S
H2202 C2216 0.960 . S
H2203 C2216 0.960 . S
C2204 H2196 0.929 . S
C2204 C2205 1.377 . S
C2204 C2206 1.384 . S
C2205 C2204 1.377 . S
C2205 C2211 1.390 . S
C2206 H2197 0.930 . S
C2206 C2204 1.384 . S
C2206 C2207 1.372 . S
C2207 C2206 1.372 . S
C2207 C2208 1.400 . S
C2207 C2212 1.490 . S
C2208 H2198 0.930 . S
C2208 C2207 1.400 . S
C2208 C2211 1.386 . S
H2209 C2225 0.930 . S
H2210 C2226 0.931 . S
C2211 H2199 0.929 . S
C2211 C2205 1.390 . S
C2211 C2208 1.386 . S
C2212 C2207 1.490 . S
C2212 C2214 1.395 . S
C2212 C2215 1.403 . S
H2213 C2219 0.930 . S
C2214 H2200 0.930 . S
C2214 C2212 1.395 . S
C2214 C2217 1.403 . S
C2215 C2212 1.403 . S
C2215 C2216 1.524 . S
C2215 C2219 1.400 . S
C2216 H2201 0.960 . S
C2216 H2202 0.960 . S
C2216 H2203 0.960 . S
C2216 C2215 1.524 . S
C2217 C2214 1.403 . S
C2217 C2218 1.392 . S
C2217 C2221 1.495 . S
C2218 C2217 1.392 . S
C2218 C2219 1.385 . S
C2218 C2220 1.478 . S
C2219 H2213 0.930 . S
C2219 C2215 1.400 . S
C2219 C2218 1.385 . S
C2220 C2218 1.478 . S
C2220 C2222 1.381 . S
C2220 C2226 1.383 . S
C2221 C2217 1.495 . S
C2221 H2227 0.959 . S
C2221 H2228 0.961 . S
C2221 H2229 0.960 . S
C2222 C2220 1.381 . S
C2222 C2223 1.394 . S
C2222 H2230 0.930 . S
C2223 C2222 1.394 . S
C2223 C2224 1.383 . S
C2223 H2231 0.929 . S
C2224 C2223 1.383 . S
C2224 C2225 1.377 . S
C2225 H2209 0.930 . S
C2225 C2224 1.377 . S
C2225 C2226 1.379 . S
C2226 H2210 0.931 . S
C2226 C2220 1.383 . S
C2226 C2225 1.379 . S
H2227 C2221 0.959 . S
H2228 C2221 0.961 . S
H2229 C2221 0.960 . S
H2230 C2222 0.930 . S
H2231 C2223 0.929 . S
H2232 C2240 0.929 . S
H2233 C2242 0.930 . S
H2234 C2244 0.930 . S
H2235 C2247 0.929 . S
H2236 C2250 0.930 . S
H2237 C2252 0.960 . S
H2238 C2252 0.960 . S
H2239 C2252 0.960 . S
C2240 H2232 0.929 . S
C2240 C2241 1.377 . S
C2240 C2242 1.384 . S
C2241 C2240 1.377 . S
C2241 C2247 1.390 . S
C2242 H2233 0.930 . S
C2242 C2240 1.384 . S
C2242 C2243 1.372 . S
C2243 C2242 1.372 . S
C2243 C2244 1.400 . S
C2243 C2248 1.490 . S
C2244 H2234 0.930 . S
C2244 C2243 1.400 . S
C2244 C2247 1.386 . S
H2245 C2261 0.930 . S
H2246 C2262 0.931 . S
C2247 H2235 0.929 . S
C2247 C2241 1.390 . S
C2247 C2244 1.386 . S
C2248 C2243 1.490 . S
C2248 C2250 1.395 . S
C2248 C2251 1.403 . S
H2249 C2255 0.930 . S
C2250 H2236 0.930 . S
C2250 C2248 1.395 . S
C2250 C2253 1.403 . S
C2251 C2248 1.403 . S
C2251 C2252 1.524 . S
C2251 C2255 1.400 . S
C2252 H2237 0.960 . S
C2252 H2238 0.960 . S
C2252 H2239 0.960 . S
C2252 C2251 1.524 . S
C2253 C2250 1.403 . S
C2253 C2254 1.392 . S
C2253 C2257 1.495 . S
C2254 C2253 1.392 . S
C2254 C2255 1.385 . S
C2254 C2256 1.478 . S
C2255 H2249 0.930 . S
C2255 C2251 1.400 . S
C2255 C2254 1.385 . S
C2256 C2254 1.478 . S
C2256 C2258 1.381 . S
C2256 C2262 1.383 . S
C2257 C2253 1.495 . S
C2257 H2263 0.959 . S
C2257 H2264 0.961 . S
C2257 H2265 0.960 . S
C2258 C2256 1.381 . S
C2258 C2259 1.394 . S
C2258 H2266 0.930 . S
C2259 C2258 1.394 . S
C2259 C2260 1.383 . S
C2259 H2267 0.929 . S
C2260 C2259 1.383 . S
C2260 C2261 1.377 . S
C2261 H2245 0.930 . S
C2261 C2260 1.377 . S
C2261 C2262 1.379 . S
C2262 H2246 0.931 . S
C2262 C2256 1.383 . S
C2262 C2261 1.379 . S
H2263 C2257 0.959 . S
H2264 C2257 0.961 . S
H2265 C2257 0.960 . S
H2266 C2258 0.930 . S
H2267 C2259 0.929 . S
H2268 C2276 0.929 . S
H2269 C2278 0.930 . S
H2270 C2280 0.930 . S
H2271 C2283 0.929 . S
H2272 C2286 0.930 . S
H2273 C2288 0.960 . S
H2274 C2288 0.960 . S
H2275 C2288 0.960 . S
C2276 H2268 0.929 . S
C2276 C2277 1.377 . S
C2276 C2278 1.384 . S
C2277 C2276 1.377 . S
C2277 C2283 1.390 . S
C2278 H2269 0.930 . S
C2278 C2276 1.384 . S
C2278 C2279 1.372 . S
C2279 C2278 1.372 . S
C2279 C2280 1.400 . S
C2279 C2284 1.490 . S
C2280 H2270 0.930 . S
C2280 C2279 1.400 . S
C2280 C2283 1.386 . S
H2281 C2297 0.930 . S
H2282 C2298 0.931 . S
C2283 H2271 0.929 . S
C2283 C2277 1.390 . S
C2283 C2280 1.386 . S
C2284 C2279 1.490 . S
C2284 C2286 1.395 . S
C2284 C2287 1.403 . S
H2285 C2291 0.930 . S
C2286 H2272 0.930 . S
C2286 C2284 1.395 . S
C2286 C2289 1.403 . S
C2287 C2284 1.403 . S
C2287 C2288 1.524 . S
C2287 C2291 1.400 . S
C2288 H2273 0.960 . S
C2288 H2274 0.960 . S
C2288 H2275 0.960 . S
C2288 C2287 1.524 . S
C2289 C2286 1.403 . S
C2289 C2290 1.392 . S
C2289 C2293 1.495 . S
C2290 C2289 1.392 . S
C2290 C2291 1.385 . S
C2290 C2292 1.478 . S
C2291 H2285 0.930 . S
C2291 C2287 1.400 . S
C2291 C2290 1.385 . S
C2292 C2290 1.478 . S
C2292 C2294 1.381 . S
C2292 C2298 1.383 . S
C2293 C2289 1.495 . S
C2293 H2299 0.959 . S
C2293 H2300 0.961 . S
C2293 H2301 0.960 . S
C2294 C2292 1.381 . S
C2294 C2295 1.394 . S
C2294 H2302 0.930 . S
C2295 C2294 1.394 . S
C2295 C2296 1.383 . S
C2295 H2303 0.929 . S
C2296 C2295 1.383 . S
C2296 C2297 1.377 . S
C2297 H2281 0.930 . S
C2297 C2296 1.377 . S
C2297 C2298 1.379 . S
C2298 H2282 0.931 . S
C2298 C2292 1.383 . S
C2298 C2297 1.379 . S
H2299 C2293 0.959 . S
H2300 C2293 0.961 . S
H2301 C2293 0.960 . S
H2302 C2294 0.930 . S
H2303 C2295 0.929 . S
H2304 C2312 0.929 . S
H2305 C2314 0.930 . S
H2306 C2316 0.930 . S
H2307 C2319 0.929 . S
H2308 C2322 0.930 . S
H2309 C2324 0.960 . S
H2310 C2324 0.960 . S
H2311 C2324 0.960 . S
C2312 H2304 0.929 . S
C2312 C2313 1.377 . S
C2312 C2314 1.384 . S
C2313 C2312 1.377 . S
C2313 C2319 1.390 . S
C2314 H2305 0.930 . S
C2314 C2312 1.384 . S
C2314 C2315 1.372 . S
C2315 C2314 1.372 . S
C2315 C2316 1.400 . S
C2315 C2320 1.490 . S
C2316 H2306 0.930 . S
C2316 C2315 1.400 . S
C2316 C2319 1.386 . S
H2317 C2333 0.930 . S
H2318 C2334 0.931 . S
C2319 H2307 0.929 . S
C2319 C2313 1.390 . S
C2319 C2316 1.386 . S
C2320 C2315 1.490 . S
C2320 C2322 1.395 . S
C2320 C2323 1.403 . S
H2321 C2327 0.930 . S
C2322 H2308 0.930 . S
C2322 C2320 1.395 . S
C2322 C2325 1.403 . S
C2323 C2320 1.403 . S
C2323 C2324 1.524 . S
C2323 C2327 1.400 . S
C2324 H2309 0.960 . S
C2324 H2310 0.960 . S
C2324 H2311 0.960 . S
C2324 C2323 1.524 . S
C2325 C2322 1.403 . S
C2325 C2326 1.392 . S
C2325 C2329 1.495 . S
C2326 C2325 1.392 . S
C2326 C2327 1.385 . S
C2326 C2328 1.478 . S
C2327 H2321 0.930 . S
C2327 C2323 1.400 . S
C2327 C2326 1.385 . S
C2328 C2326 1.478 . S
C2328 C2330 1.381 . S
C2328 C2334 1.383 . S
C2329 C2325 1.495 . S
C2329 H2335 0.959 . S
C2329 H2336 0.961 . S
C2329 H2337 0.960 . S
C2330 C2328 1.381 . S
C2330 C2331 1.394 . S
C2330 H2338 0.930 . S
C2331 C2330 1.394 . S
C2331 C2332 1.383 . S
C2331 H2339 0.929 . S
C2332 C2331 1.383 . S
C2332 C2333 1.377 . S
C2333 H2317 0.930 . S
C2333 C2332 1.377 . S
C2333 C2334 1.379 . S
C2334 H2318 0.931 . S
C2334 C2328 1.383 . S
C2334 C2333 1.379 . S
H2335 C2329 0.959 . S
H2336 C2329 0.961 . S
H2337 C2329 0.960 . S
H2338 C2330 0.930 . S
H2339 C2331 0.929 . S
H2340 C2348 0.929 . S
H2341 C2350 0.930 . S
H2342 C2352 0.930 . S
H2343 C2355 0.929 . S
H2344 C2358 0.930 . S
H2345 C2360 0.960 . S
H2346 C2360 0.960 . S
H2347 C2360 0.960 . S
C2348 H2340 0.929 . S
C2348 C2349 1.377 . S
C2348 C2350 1.384 . S
C2349 C2348 1.377 . S
C2349 C2355 1.390 . S
C2350 H2341 0.930 . S
C2350 C2348 1.384 . S
C2350 C2351 1.372 . S
C2351 C2350 1.372 . S
C2351 C2352 1.400 . S
C2351 C2356 1.490 . S
C2352 H2342 0.930 . S
C2352 C2351 1.400 . S
C2352 C2355 1.386 . S
H2353 C2369 0.930 . S
H2354 C2370 0.931 . S
C2355 H2343 0.929 . S
C2355 C2349 1.390 . S
C2355 C2352 1.386 . S
C2356 C2351 1.490 . S
C2356 C2358 1.395 . S
C2356 C2359 1.403 . S
H2357 C2363 0.930 . S
C2358 H2344 0.930 . S
C2358 C2356 1.395 . S
C2358 C2361 1.403 . S
C2359 C2356 1.403 . S
C2359 C2360 1.524 . S
C2359 C2363 1.400 . S
C2360 H2345 0.960 . S
C2360 H2346 0.960 . S
C2360 H2347 0.960 . S
C2360 C2359 1.524 . S
C2361 C2358 1.403 . S
C2361 C2362 1.392 . S
C2361 C2365 1.495 . S
C2362 C2361 1.392 . S
C2362 C2363 1.385 . S
C2362 C2364 1.478 . S
C2363 H2357 0.930 . S
C2363 C2359 1.400 . S
C2363 C2362 1.385 . S
C2364 C2362 1.478 . S
C2364 C2366 1.381 . S
C2364 C2370 1.383 . S
C2365 C2361 1.495 . S
C2365 H2371 0.959 . S
C2365 H2372 0.961 . S
C2365 H2373 0.960 . S
C2366 C2364 1.381 . S
C2366 C2367 1.394 . S
C2366 H2374 0.930 . S
C2367 C2366 1.394 . S
C2367 C2368 1.383 . S
C2367 H2375 0.929 . S
C2368 C2367 1.383 . S
C2368 C2369 1.377 . S
C2369 H2353 0.930 . S
C2369 C2368 1.377 . S
C2369 C2370 1.379 . S
C2370 H2354 0.931 . S
C2370 C2364 1.383 . S
C2370 C2369 1.379 . S
H2371 C2365 0.959 . S
H2372 C2365 0.961 . S
H2373 C2365 0.960 . S
H2374 C2366 0.930 . S
H2375 C2367 0.929 . S
H2376 C2384 0.929 . S
H2377 C2386 0.930 . S
H2378 C2388 0.930 . S
H2379 C2391 0.929 . S
H2380 C2394 0.930 . S
H2381 C2396 0.960 . S
H2382 C2396 0.960 . S
H2383 C2396 0.960 . S
C2384 H2376 0.929 . S
C2384 C2385 1.377 . S
C2384 C2386 1.384 . S
C2385 C2384 1.377 . S
C2385 C2391 1.390 . S
C2386 H2377 0.930 . S
C2386 C2384 1.384 . S
C2386 C2387 1.372 . S
C2387 C2386 1.372 . S
C2387 C2388 1.400 . S
C2387 C2392 1.490 . S
C2388 H2378 0.930 . S
C2388 C2387 1.400 . S
C2388 C2391 1.386 . S
H2389 C2405 0.930 . S
H2390 C2406 0.931 . S
C2391 H2379 0.929 . S
C2391 C2385 1.390 . S
C2391 C2388 1.386 . S
C2392 C2387 1.490 . S
C2392 C2394 1.395 . S
C2392 C2395 1.403 . S
H2393 C2399 0.930 . S
C2394 H2380 0.930 . S
C2394 C2392 1.395 . S
C2394 C2397 1.403 . S
C2395 C2392 1.403 . S
C2395 C2396 1.524 . S
C2395 C2399 1.400 . S
C2396 H2381 0.960 . S
C2396 H2382 0.960 . S
C2396 H2383 0.960 . S
C2396 C2395 1.524 . S
C2397 C2394 1.403 . S
C2397 C2398 1.392 . S
C2397 C2401 1.495 . S
C2398 C2397 1.392 . S
C2398 C2399 1.385 . S
C2398 C2400 1.478 . S
C2399 H2393 0.930 . S
C2399 C2395 1.400 . S
C2399 C2398 1.385 . S
C2400 C2398 1.478 . S
C2400 C2402 1.381 . S
C2400 C2406 1.383 . S
C2401 C2397 1.495 . S
C2401 H2407 0.959 . S
C2401 H2408 0.961 . S
C2401 H2409 0.960 . S
C2402 C2400 1.381 . S
C2402 C2403 1.394 . S
C2402 H2410 0.930 . S
C2403 C2402 1.394 . S
C2403 C2404 1.383 . S
C2403 H2411 0.929 . S
C2404 C2403 1.383 . S
C2404 C2405 1.377 . S
C2405 H2389 0.930 . S
C2405 C2404 1.377 . S
C2405 C2406 1.379 . S
C2406 H2390 0.931 . S
C2406 C2400 1.383 . S
C2406 C2405 1.379 . S
H2407 C2401 0.959 . S
H2408 C2401 0.961 . S
H2409 C2401 0.960 . S
H2410 C2402 0.930 . S
H2411 C2403 0.929 . S
H2412 C2420 0.929 . S
H2413 C2422 0.930 . S
H2414 C2424 0.930 . S
H2415 C2427 0.929 . S
H2416 C2430 0.930 . S
H2417 C2432 0.960 . S
H2418 C2432 0.960 . S
H2419 C2432 0.960 . S
C2420 H2412 0.929 . S
C2420 C2421 1.377 . S
C2420 C2422 1.384 . S
C2421 C2420 1.377 . S
C2421 C2427 1.390 . S
C2422 H2413 0.930 . S
C2422 C2420 1.384 . S
C2422 C2423 1.372 . S
C2423 C2422 1.372 . S
C2423 C2424 1.400 . S
C2423 C2428 1.490 . S
C2424 H2414 0.930 . S
C2424 C2423 1.400 . S
C2424 C2427 1.386 . S
H2425 C2441 0.930 . S
H2426 C2442 0.931 . S
C2427 H2415 0.929 . S
C2427 C2421 1.390 . S
C2427 C2424 1.386 . S
C2428 C2423 1.490 . S
C2428 C2430 1.395 . S
C2428 C2431 1.403 . S
H2429 C2435 0.930 . S
C2430 H2416 0.930 . S
C2430 C2428 1.395 . S
C2430 C2433 1.403 . S
C2431 C2428 1.403 . S
C2431 C2432 1.524 . S
C2431 C2435 1.400 . S
C2432 H2417 0.960 . S
C2432 H2418 0.960 . S
C2432 H2419 0.960 . S
C2432 C2431 1.524 . S
C2433 C2430 1.403 . S
C2433 C2434 1.392 . S
C2433 C2437 1.495 . S
C2434 C2433 1.392 . S
C2434 C2435 1.385 . S
C2434 C2436 1.478 . S
C2435 H2429 0.930 . S
C2435 C2431 1.400 . S
C2435 C2434 1.385 . S
C2436 C2434 1.478 . S
C2436 C2438 1.381 . S
C2436 C2442 1.383 . S
C2437 C2433 1.495 . S
C2437 H2443 0.959 . S
C2437 H2444 0.961 . S
C2437 H2445 0.960 . S
C2438 C2436 1.381 . S
C2438 C2439 1.394 . S
C2438 H2446 0.930 . S
C2439 C2438 1.394 . S
C2439 C2440 1.383 . S
C2439 H2447 0.929 . S
C2440 C2439 1.383 . S
C2440 C2441 1.377 . S
C2441 H2425 0.930 . S
C2441 C2440 1.377 . S
C2441 C2442 1.379 . S
C2442 H2426 0.931 . S
C2442 C2436 1.383 . S
C2442 C2441 1.379 . S
H2443 C2437 0.959 . S
H2444 C2437 0.961 . S
H2445 C2437 0.960 . S
H2446 C2438 0.930 . S
H2447 C2439 0.929 . S
H2448 C2456 0.929 . S
H2449 C2458 0.930 . S
H2450 C2460 0.930 . S
H2451 C2463 0.929 . S
H2452 C2466 0.930 . S
H2453 C2468 0.960 . S
H2454 C2468 0.960 . S
H2455 C2468 0.960 . S
C2456 H2448 0.929 . S
C2456 C2457 1.377 . S
C2456 C2458 1.384 . S
C2457 C2456 1.377 . S
C2457 C2463 1.390 . S
C2458 H2449 0.930 . S
C2458 C2456 1.384 . S
C2458 C2459 1.372 . S
C2459 C2458 1.372 . S
C2459 C2460 1.400 . S
C2459 C2464 1.490 . S
C2460 H2450 0.930 . S
C2460 C2459 1.400 . S
C2460 C2463 1.386 . S
H2461 C2477 0.930 . S
H2462 C2478 0.931 . S
C2463 H2451 0.929 . S
C2463 C2457 1.390 . S
C2463 C2460 1.386 . S
C2464 C2459 1.490 . S
C2464 C2466 1.395 . S
C2464 C2467 1.403 . S
H2465 C2471 0.930 . S
C2466 H2452 0.930 . S
C2466 C2464 1.395 . S
C2466 C2469 1.403 . S
C2467 C2464 1.403 . S
C2467 C2468 1.524 . S
C2467 C2471 1.400 . S
C2468 H2453 0.960 . S
C2468 H2454 0.960 . S
C2468 H2455 0.960 . S
C2468 C2467 1.524 . S
C2469 C2466 1.403 . S
C2469 C2470 1.392 . S
C2469 C2473 1.495 . S
C2470 C2469 1.392 . S
C2470 C2471 1.385 . S
C2470 C2472 1.478 . S
C2471 H2465 0.930 . S
C2471 C2467 1.400 . S
C2471 C2470 1.385 . S
C2472 C2470 1.478 . S
C2472 C2474 1.381 . S
C2472 C2478 1.383 . S
C2473 C2469 1.495 . S
C2473 H2479 0.959 . S
C2473 H2480 0.961 . S
C2473 H2481 0.960 . S
C2474 C2472 1.381 . S
C2474 C2475 1.394 . S
C2474 H2482 0.930 . S
C2475 C2474 1.394 . S
C2475 C2476 1.383 . S
C2475 H2483 0.929 . S
C2476 C2475 1.383 . S
C2476 C2477 1.377 . S
C2477 H2461 0.930 . S
C2477 C2476 1.377 . S
C2477 C2478 1.379 . S
C2478 H2462 0.931 . S
C2478 C2472 1.383 . S
C2478 C2477 1.379 . S
H2479 C2473 0.959 . S
H2480 C2473 0.961 . S
H2481 C2473 0.960 . S
H2482 C2474 0.930 . S
H2483 C2475 0.929 . S
H2484 C2492 0.929 . S
H2485 C2494 0.930 . S
H2486 C2496 0.930 . S
H2487 C2499 0.929 . S
H2488 C2502 0.930 . S
H2489 C2504 0.960 . S
H2490 C2504 0.960 . S
H2491 C2504 0.960 . S
C2492 H2484 0.929 . S
C2492 C2493 1.377 . S
C2492 C2494 1.384 . S
C2493 C2492 1.377 . S
C2493 C2499 1.390 . S
C2494 H2485 0.930 . S
C2494 C2492 1.384 . S
C2494 C2495 1.372 . S
C2495 C2494 1.372 . S
C2495 C2496 1.400 . S
C2495 C2500 1.490 . S
C2496 H2486 0.930 . S
C2496 C2495 1.400 . S
C2496 C2499 1.386 . S
H2497 C2513 0.930 . S
H2498 C2514 0.931 . S
C2499 H2487 0.929 . S
C2499 C2493 1.390 . S
C2499 C2496 1.386 . S
C2500 C2495 1.490 . S
C2500 C2502 1.395 . S
C2500 C2503 1.403 . S
H2501 C2507 0.930 . S
C2502 H2488 0.930 . S
C2502 C2500 1.395 . S
C2502 C2505 1.403 . S
C2503 C2500 1.403 . S
C2503 C2504 1.524 . S
C2503 C2507 1.400 . S
C2504 H2489 0.960 . S
C2504 H2490 0.960 . S
C2504 H2491 0.960 . S
C2504 C2503 1.524 . S
C2505 C2502 1.403 . S
C2505 C2506 1.392 . S
C2505 C2509 1.495 . S
C2506 C2505 1.392 . S
C2506 C2507 1.385 . S
C2506 C2508 1.478 . S
C2507 H2501 0.930 . S
C2507 C2503 1.400 . S
C2507 C2506 1.385 . S
C2508 C2506 1.478 . S
C2508 C2510 1.381 . S
C2508 C2514 1.383 . S
C2509 C2505 1.495 . S
C2509 H2515 0.959 . S
C2509 H2516 0.961 . S
C2509 H2517 0.960 . S
C2510 C2508 1.381 . S
C2510 C2511 1.394 . S
C2510 H2518 0.930 . S
C2511 C2510 1.394 . S
C2511 C2512 1.383 . S
C2511 H2519 0.929 . S
C2512 C2511 1.383 . S
C2512 C2513 1.377 . S
C2513 H2497 0.930 . S
C2513 C2512 1.377 . S
C2513 C2514 1.379 . S
C2514 H2498 0.931 . S
C2514 C2508 1.383 . S
C2514 C2513 1.379 . S
H2515 C2509 0.959 . S
H2516 C2509 0.961 . S
H2517 C2509 0.960 . S
H2518 C2510 0.930 . S
H2519 C2511 0.929 . S
H2520 C2528 0.929 . S
H2521 C2530 0.930 . S
H2522 C2532 0.930 . S
H2523 C2535 0.929 . S
H2524 C2538 0.930 . S
H2525 C2540 0.960 . S
H2526 C2540 0.960 . S
H2527 C2540 0.960 . S
C2528 H2520 0.929 . S
C2528 C2529 1.377 . S
C2528 C2530 1.384 . S
C2529 C2528 1.377 . S
C2529 C2535 1.390 . S
C2530 H2521 0.930 . S
C2530 C2528 1.384 . S
C2530 C2531 1.372 . S
C2531 C2530 1.372 . S
C2531 C2532 1.400 . S
C2531 C2536 1.490 . S
C2532 H2522 0.930 . S
C2532 C2531 1.400 . S
C2532 C2535 1.386 . S
H2533 C2549 0.930 . S
H2534 C2550 0.931 . S
C2535 H2523 0.929 . S
C2535 C2529 1.390 . S
C2535 C2532 1.386 . S
C2536 C2531 1.490 . S
C2536 C2538 1.395 . S
C2536 C2539 1.403 . S
H2537 C2543 0.930 . S
C2538 H2524 0.930 . S
C2538 C2536 1.395 . S
C2538 C2541 1.403 . S
C2539 C2536 1.403 . S
C2539 C2540 1.524 . S
C2539 C2543 1.400 . S
C2540 H2525 0.960 . S
C2540 H2526 0.960 . S
C2540 H2527 0.960 . S
C2540 C2539 1.524 . S
C2541 C2538 1.403 . S
C2541 C2542 1.392 . S
C2541 C2545 1.495 . S
C2542 C2541 1.392 . S
C2542 C2543 1.385 . S
C2542 C2544 1.478 . S
C2543 H2537 0.930 . S
C2543 C2539 1.400 . S
C2543 C2542 1.385 . S
C2544 C2542 1.478 . S
C2544 C2546 1.381 . S
C2544 C2550 1.383 . S
C2545 C2541 1.495 . S
C2545 H2551 0.959 . S
C2545 H2552 0.961 . S
C2545 H2553 0.960 . S
C2546 C2544 1.381 . S
C2546 C2547 1.394 . S
C2546 H2554 0.930 . S
C2547 C2546 1.394 . S
C2547 C2548 1.383 . S
C2547 H2555 0.929 . S
C2548 C2547 1.383 . S
C2548 C2549 1.377 . S
C2549 H2533 0.930 . S
C2549 C2548 1.377 . S
C2549 C2550 1.379 . S
C2550 H2534 0.931 . S
C2550 C2544 1.383 . S
C2550 C2549 1.379 . S
H2551 C2545 0.959 . S
H2552 C2545 0.961 . S
H2553 C2545 0.960 . S
H2554 C2546 0.930 . S
H2555 C2547 0.929 . S
H2556 C2564 0.929 . S
H2557 C2566 0.930 . S
H2558 C2568 0.930 . S
H2559 C2571 0.929 . S
H2560 C2574 0.930 . S
H2561 C2576 0.960 . S
H2562 C2576 0.960 . S
H2563 C2576 0.960 . S
C2564 H2556 0.929 . S
C2564 C2565 1.377 . S
C2564 C2566 1.384 . S
C2565 C2564 1.377 . S
C2565 C2571 1.390 . S
C2566 H2557 0.930 . S
C2566 C2564 1.384 . S
C2566 C2567 1.372 . S
C2567 C2566 1.372 . S
C2567 C2568 1.400 . S
C2567 C2572 1.490 . S
C2568 H2558 0.930 . S
C2568 C2567 1.400 . S
C2568 C2571 1.386 . S
H2569 C2585 0.930 . S
H2570 C2586 0.931 . S
C2571 H2559 0.929 . S
C2571 C2565 1.390 . S
C2571 C2568 1.386 . S
C2572 C2567 1.490 . S
C2572 C2574 1.395 . S
C2572 C2575 1.403 . S
H2573 C2579 0.930 . S
C2574 H2560 0.930 . S
C2574 C2572 1.395 . S
C2574 C2577 1.403 . S
C2575 C2572 1.403 . S
C2575 C2576 1.524 . S
C2575 C2579 1.400 . S
C2576 H2561 0.960 . S
C2576 H2562 0.960 . S
C2576 H2563 0.960 . S
C2576 C2575 1.524 . S
C2577 C2574 1.403 . S
C2577 C2578 1.392 . S
C2577 C2581 1.495 . S
C2578 C2577 1.392 . S
C2578 C2579 1.385 . S
C2578 C2580 1.478 . S
C2579 H2573 0.930 . S
C2579 C2575 1.400 . S
C2579 C2578 1.385 . S
C2580 C2578 1.478 . S
C2580 C2582 1.381 . S
C2580 C2586 1.383 . S
C2581 C2577 1.495 . S
C2581 H2587 0.959 . S
C2581 H2588 0.961 . S
C2581 H2589 0.960 . S
C2582 C2580 1.381 . S
C2582 C2583 1.394 . S
C2582 H2590 0.930 . S
C2583 C2582 1.394 . S
C2583 C2584 1.383 . S
C2583 H2591 0.929 . S
C2584 C2583 1.383 . S
C2584 C2585 1.377 . S
C2585 H2569 0.930 . S
C2585 C2584 1.377 . S
C2585 C2586 1.379 . S
C2586 H2570 0.931 . S
C2586 C2580 1.383 . S
C2586 C2585 1.379 . S
H2587 C2581 0.959 . S
H2588 C2581 0.961 . S
H2589 C2581 0.960 . S
H2590 C2582 0.930 . S
H2591 C2583 0.929 . S
H2592 C2600 0.929 . S
H2593 C2602 0.930 . S
H2594 C2604 0.930 . S
H2595 C2607 0.929 . S
H2596 C2610 0.930 . S
H2597 C2612 0.960 . S
H2598 C2612 0.960 . S
H2599 C2612 0.960 . S
C2600 H2592 0.929 . S
C2600 C2601 1.377 . S
C2600 C2602 1.384 . S
C2601 C2600 1.377 . S
C2601 C2607 1.390 . S
C2602 H2593 0.930 . S
C2602 C2600 1.384 . S
C2602 C2603 1.372 . S
C2603 C2602 1.372 . S
C2603 C2604 1.400 . S
C2603 C2608 1.490 . S
C2604 H2594 0.930 . S
C2604 C2603 1.400 . S
C2604 C2607 1.386 . S
H2605 C2621 0.930 . S
H2606 C2622 0.931 . S
C2607 H2595 0.929 . S
C2607 C2601 1.390 . S
C2607 C2604 1.386 . S
C2608 C2603 1.490 . S
C2608 C2610 1.395 . S
C2608 C2611 1.403 . S
H2609 C2615 0.930 . S
C2610 H2596 0.930 . S
C2610 C2608 1.395 . S
C2610 C2613 1.403 . S
C2611 C2608 1.403 . S
C2611 C2612 1.524 . S
C2611 C2615 1.400 . S
C2612 H2597 0.960 . S
C2612 H2598 0.960 . S
C2612 H2599 0.960 . S
C2612 C2611 1.524 . S
C2613 C2610 1.403 . S
C2613 C2614 1.392 . S
C2613 C2617 1.495 . S
C2614 C2613 1.392 . S
C2614 C2615 1.385 . S
C2614 C2616 1.478 . S
C2615 H2609 0.930 . S
C2615 C2611 1.400 . S
C2615 C2614 1.385 . S
C2616 C2614 1.478 . S
C2616 C2618 1.381 . S
C2616 C2622 1.383 . S
C2617 C2613 1.495 . S
C2617 H2623 0.959 . S
C2617 H2624 0.961 . S
C2617 H2625 0.960 . S
C2618 C2616 1.381 . S
C2618 C2619 1.394 . S
C2618 H2626 0.930 . S
C2619 C2618 1.394 . S
C2619 C2620 1.383 . S
C2619 H2627 0.929 . S
C2620 C2619 1.383 . S
C2620 C2621 1.377 . S
C2621 H2605 0.930 . S
C2621 C2620 1.377 . S
C2621 C2622 1.379 . S
C2622 H2606 0.931 . S
C2622 C2616 1.383 . S
C2622 C2621 1.379 . S
H2623 C2617 0.959 . S
H2624 C2617 0.961 . S
H2625 C2617 0.960 . S
H2626 C2618 0.930 . S
H2627 C2619 0.929 . S
H2628 C2636 0.929 . S
H2629 C2638 0.930 . S
H2630 C2640 0.930 . S
H2631 C2643 0.929 . S
H2632 C2646 0.930 . S
H2633 C2648 0.960 . S
H2634 C2648 0.960 . S
H2635 C2648 0.960 . S
C2636 H2628 0.929 . S
C2636 C2637 1.377 . S
C2636 C2638 1.384 . S
C2637 C2636 1.377 . S
C2637 C2643 1.390 . S
C2638 H2629 0.930 . S
C2638 C2636 1.384 . S
C2638 C2639 1.372 . S
C2639 C2638 1.372 . S
C2639 C2640 1.400 . S
C2639 C2644 1.490 . S
C2640 H2630 0.930 . S
C2640 C2639 1.400 . S
C2640 C2643 1.386 . S
H2641 C2657 0.930 . S
H2642 C2658 0.931 . S
C2643 H2631 0.929 . S
C2643 C2637 1.390 . S
C2643 C2640 1.386 . S
C2644 C2639 1.490 . S
C2644 C2646 1.395 . S
C2644 C2647 1.403 . S
H2645 C2651 0.930 . S
C2646 H2632 0.930 . S
C2646 C2644 1.395 . S
C2646 C2649 1.403 . S
C2647 C2644 1.403 . S
C2647 C2648 1.524 . S
C2647 C2651 1.400 . S
C2648 H2633 0.960 . S
C2648 H2634 0.960 . S
C2648 H2635 0.960 . S
C2648 C2647 1.524 . S
C2649 C2646 1.403 . S
C2649 C2650 1.392 . S
C2649 C2653 1.495 . S
C2650 C2649 1.392 . S
C2650 C2651 1.385 . S
C2650 C2652 1.478 . S
C2651 H2645 0.930 . S
C2651 C2647 1.400 . S
C2651 C2650 1.385 . S
C2652 C2650 1.478 . S
C2652 C2654 1.381 . S
C2652 C2658 1.383 . S
C2653 C2649 1.495 . S
C2653 H2659 0.959 . S
C2653 H2660 0.961 . S
C2653 H2661 0.960 . S
C2654 C2652 1.381 . S
C2654 C2655 1.394 . S
C2654 H2662 0.930 . S
C2655 C2654 1.394 . S
C2655 C2656 1.383 . S
C2655 H2663 0.929 . S
C2656 C2655 1.383 . S
C2656 C2657 1.377 . S
C2657 H2641 0.930 . S
C2657 C2656 1.377 . S
C2657 C2658 1.379 . S
C2658 H2642 0.931 . S
C2658 C2652 1.383 . S
C2658 C2657 1.379 . S
H2659 C2653 0.959 . S
H2660 C2653 0.961 . S
H2661 C2653 0.960 . S
H2662 C2654 0.930 . S
H2663 C2655 0.929 . S
H2664 C2672 0.929 . S
H2665 C2674 0.930 . S
H2666 C2676 0.930 . S
H2667 C2679 0.929 . S
H2668 C2682 0.930 . S
H2669 C2684 0.960 . S
H2670 C2684 0.960 . S
H2671 C2684 0.960 . S
C2672 H2664 0.929 . S
C2672 C2673 1.377 . S
C2672 C2674 1.384 . S
C2673 C2672 1.377 . S
C2673 C2679 1.390 . S
C2674 H2665 0.930 . S
C2674 C2672 1.384 . S
C2674 C2675 1.372 . S
C2675 C2674 1.372 . S
C2675 C2676 1.400 . S
C2675 C2680 1.490 . S
C2676 H2666 0.930 . S
C2676 C2675 1.400 . S
C2676 C2679 1.386 . S
H2677 C2693 0.930 . S
H2678 C2694 0.931 . S
C2679 H2667 0.929 . S
C2679 C2673 1.390 . S
C2679 C2676 1.386 . S
C2680 C2675 1.490 . S
C2680 C2682 1.395 . S
C2680 C2683 1.403 . S
H2681 C2687 0.930 . S
C2682 H2668 0.930 . S
C2682 C2680 1.395 . S
C2682 C2685 1.403 . S
C2683 C2680 1.403 . S
C2683 C2684 1.524 . S
C2683 C2687 1.400 . S
C2684 H2669 0.960 . S
C2684 H2670 0.960 . S
C2684 H2671 0.960 . S
C2684 C2683 1.524 . S
C2685 C2682 1.403 . S
C2685 C2686 1.392 . S
C2685 C2689 1.495 . S
C2686 C2685 1.392 . S
C2686 C2687 1.385 . S
C2686 C2688 1.478 . S
C2687 H2681 0.930 . S
C2687 C2683 1.400 . S
C2687 C2686 1.385 . S
C2688 C2686 1.478 . S
C2688 C2690 1.381 . S
C2688 C2694 1.383 . S
C2689 C2685 1.495 . S
C2689 H2695 0.959 . S
C2689 H2696 0.961 . S
C2689 H2697 0.960 . S
C2690 C2688 1.381 . S
C2690 C2691 1.394 . S
C2690 H2698 0.930 . S
C2691 C2690 1.394 . S
C2691 C2692 1.383 . S
C2691 H2699 0.929 . S
C2692 C2691 1.383 . S
C2692 C2693 1.377 . S
C2693 H2677 0.930 . S
C2693 C2692 1.377 . S
C2693 C2694 1.379 . S
C2694 H2678 0.931 . S
C2694 C2688 1.383 . S
C2694 C2693 1.379 . S
H2695 C2689 0.959 . S
H2696 C2689 0.961 . S
H2697 C2689 0.960 . S
H2698 C2690 0.930 . S
H2699 C2691 0.929 . S
H2700 C2708 0.929 . S
H2701 C2710 0.930 . S
H2702 C2712 0.930 . S
H2703 C2715 0.929 . S
H2704 C2718 0.930 . S
H2705 C2720 0.960 . S
H2706 C2720 0.960 . S
H2707 C2720 0.960 . S
C2708 H2700 0.929 . S
C2708 C2709 1.377 . S
C2708 C2710 1.384 . S
C2709 C2708 1.377 . S
C2709 C2715 1.390 . S
C2710 H2701 0.930 . S
C2710 C2708 1.384 . S
C2710 C2711 1.372 . S
C2711 C2710 1.372 . S
C2711 C2712 1.400 . S
C2711 C2716 1.490 . S
C2712 H2702 0.930 . S
C2712 C2711 1.400 . S
C2712 C2715 1.386 . S
H2713 C2729 0.930 . S
H2714 C2730 0.931 . S
C2715 H2703 0.929 . S
C2715 C2709 1.390 . S
C2715 C2712 1.386 . S
C2716 C2711 1.490 . S
C2716 C2718 1.395 . S
C2716 C2719 1.403 . S
H2717 C2723 0.930 . S
C2718 H2704 0.930 . S
C2718 C2716 1.395 . S
C2718 C2721 1.403 . S
C2719 C2716 1.403 . S
C2719 C2720 1.524 . S
C2719 C2723 1.400 . S
C2720 H2705 0.960 . S
C2720 H2706 0.960 . S
C2720 H2707 0.960 . S
C2720 C2719 1.524 . S
C2721 C2718 1.403 . S
C2721 C2722 1.392 . S
C2721 C2725 1.495 . S
C2722 C2721 1.392 . S
C2722 C2723 1.385 . S
C2722 C2724 1.478 . S
C2723 H2717 0.930 . S
C2723 C2719 1.400 . S
C2723 C2722 1.385 . S
C2724 C2722 1.478 . S
C2724 C2726 1.381 . S
C2724 C2730 1.383 . S
C2725 C2721 1.495 . S
C2725 H2731 0.959 . S
C2725 H2732 0.961 . S
C2725 H2733 0.960 . S
C2726 C2724 1.381 . S
C2726 C2727 1.394 . S
C2726 H2734 0.930 . S
C2727 C2726 1.394 . S
C2727 C2728 1.383 . S
C2727 H2735 0.929 . S
C2728 C2727 1.383 . S
C2728 C2729 1.377 . S
C2729 H2713 0.930 . S
C2729 C2728 1.377 . S
C2729 C2730 1.379 . S
C2730 H2714 0.931 . S
C2730 C2724 1.383 . S
C2730 C2729 1.379 . S
H2731 C2725 0.959 . S
H2732 C2725 0.961 . S
H2733 C2725 0.960 . S
H2734 C2726 0.930 . S
H2735 C2727 0.929 . S
H2736 C2744 0.929 . S
H2737 C2746 0.930 . S
H2738 C2748 0.930 . S
H2739 C2751 0.929 . S
H2740 C2754 0.930 . S
H2741 C2756 0.960 . S
H2742 C2756 0.960 . S
H2743 C2756 0.960 . S
C2744 H2736 0.929 . S
C2744 C2745 1.377 . S
C2744 C2746 1.384 . S
C2745 C2744 1.377 . S
C2745 C2751 1.390 . S
C2746 H2737 0.930 . S
C2746 C2744 1.384 . S
C2746 C2747 1.372 . S
C2747 C2746 1.372 . S
C2747 C2748 1.400 . S
C2747 C2752 1.490 . S
C2748 H2738 0.930 . S
C2748 C2747 1.400 . S
C2748 C2751 1.386 . S
H2749 C2765 0.930 . S
H2750 C2766 0.931 . S
C2751 H2739 0.929 . S
C2751 C2745 1.390 . S
C2751 C2748 1.386 . S
C2752 C2747 1.490 . S
C2752 C2754 1.395 . S
C2752 C2755 1.403 . S
H2753 C2759 0.930 . S
C2754 H2740 0.930 . S
C2754 C2752 1.395 . S
C2754 C2757 1.403 . S
C2755 C2752 1.403 . S
C2755 C2756 1.524 . S
C2755 C2759 1.400 . S
C2756 H2741 0.960 . S
C2756 H2742 0.960 . S
C2756 H2743 0.960 . S
C2756 C2755 1.524 . S
C2757 C2754 1.403 . S
C2757 C2758 1.392 . S
C2757 C2761 1.495 . S
C2758 C2757 1.392 . S
C2758 C2759 1.385 . S
C2758 C2760 1.478 . S
C2759 H2753 0.930 . S
C2759 C2755 1.400 . S
C2759 C2758 1.385 . S
C2760 C2758 1.478 . S
C2760 C2762 1.381 . S
C2760 C2766 1.383 . S
C2761 C2757 1.495 . S
C2761 H2767 0.959 . S
C2761 H2768 0.961 . S
C2761 H2769 0.960 . S
C2762 C2760 1.381 . S
C2762 C2763 1.394 . S
C2762 H2770 0.930 . S
C2763 C2762 1.394 . S
C2763 C2764 1.383 . S
C2763 H2771 0.929 . S
C2764 C2763 1.383 . S
C2764 C2765 1.377 . S
C2765 H2749 0.930 . S
C2765 C2764 1.377 . S
C2765 C2766 1.379 . S
C2766 H2750 0.931 . S
C2766 C2760 1.383 . S
C2766 C2765 1.379 . S
H2767 C2761 0.959 . S
H2768 C2761 0.961 . S
H2769 C2761 0.960 . S
H2770 C2762 0.930 . S
H2771 C2763 0.929 . S
H2772 C2780 0.929 . S
H2773 C2782 0.930 . S
H2774 C2784 0.930 . S
H2775 C2787 0.929 . S
H2776 C2790 0.930 . S
H2777 C2792 0.960 . S
H2778 C2792 0.960 . S
H2779 C2792 0.960 . S
C2780 H2772 0.929 . S
C2780 C2781 1.377 . S
C2780 C2782 1.384 . S
C2781 C2780 1.377 . S
C2781 C2787 1.390 . S
C2782 H2773 0.930 . S
C2782 C2780 1.384 . S
C2782 C2783 1.372 . S
C2783 C2782 1.372 . S
C2783 C2784 1.400 . S
C2783 C2788 1.490 . S
C2784 H2774 0.930 . S
C2784 C2783 1.400 . S
C2784 C2787 1.386 . S
H2785 C2801 0.930 . S
H2786 C2802 0.931 . S
C2787 H2775 0.929 . S
C2787 C2781 1.390 . S
C2787 C2784 1.386 . S
C2788 C2783 1.490 . S
C2788 C2790 1.395 . S
C2788 C2791 1.403 . S
H2789 C2795 0.930 . S
C2790 H2776 0.930 . S
C2790 C2788 1.395 . S
C2790 C2793 1.403 . S
C2791 C2788 1.403 . S
C2791 C2792 1.524 . S
C2791 C2795 1.400 . S
C2792 H2777 0.960 . S
C2792 H2778 0.960 . S
C2792 H2779 0.960 . S
C2792 C2791 1.524 . S
C2793 C2790 1.403 . S
C2793 C2794 1.392 . S
C2793 C2797 1.495 . S
C2794 C2793 1.392 . S
C2794 C2795 1.385 . S
C2794 C2796 1.478 . S
C2795 H2789 0.930 . S
C2795 C2791 1.400 . S
C2795 C2794 1.385 . S
C2796 C2794 1.478 . S
C2796 C2798 1.381 . S
C2796 C2802 1.383 . S
C2797 C2793 1.495 . S
C2797 H2803 0.959 . S
C2797 H2804 0.961 . S
C2797 H2805 0.960 . S
C2798 C2796 1.381 . S
C2798 C2799 1.394 . S
C2798 H2806 0.930 . S
C2799 C2798 1.394 . S
C2799 C2800 1.383 . S
C2799 H2807 0.929 . S
C2800 C2799 1.383 . S
C2800 C2801 1.377 . S
C2801 H2785 0.930 . S
C2801 C2800 1.377 . S
C2801 C2802 1.379 . S
C2802 H2786 0.931 . S
C2802 C2796 1.383 . S
C2802 C2801 1.379 . S
H2803 C2797 0.959 . S
H2804 C2797 0.961 . S
H2805 C2797 0.960 . S
H2806 C2798 0.930 . S
H2807 C2799 0.929 . S
H2808 C2816 0.929 . S
H2809 C2818 0.930 . S
H2810 C2820 0.930 . S
H2811 C2823 0.929 . S
H2812 C2826 0.930 . S
H2813 C2828 0.960 . S
H2814 C2828 0.960 . S
H2815 C2828 0.960 . S
C2816 H2808 0.929 . S
C2816 C2817 1.377 . S
C2816 C2818 1.384 . S
C2817 C2816 1.377 . S
C2817 C2823 1.390 . S
C2818 H2809 0.930 . S
C2818 C2816 1.384 . S
C2818 C2819 1.372 . S
C2819 C2818 1.372 . S
C2819 C2820 1.400 . S
C2819 C2824 1.490 . S
C2820 H2810 0.930 . S
C2820 C2819 1.400 . S
C2820 C2823 1.386 . S
H2821 C2837 0.930 . S
H2822 C2838 0.931 . S
C2823 H2811 0.929 . S
C2823 C2817 1.390 . S
C2823 C2820 1.386 . S
C2824 C2819 1.490 . S
C2824 C2826 1.395 . S
C2824 C2827 1.403 . S
H2825 C2831 0.930 . S
C2826 H2812 0.930 . S
C2826 C2824 1.395 . S
C2826 C2829 1.403 . S
C2827 C2824 1.403 . S
C2827 C2828 1.524 . S
C2827 C2831 1.400 . S
C2828 H2813 0.960 . S
C2828 H2814 0.960 . S
C2828 H2815 0.960 . S
C2828 C2827 1.524 . S
C2829 C2826 1.403 . S
C2829 C2830 1.392 . S
C2829 C2833 1.495 . S
C2830 C2829 1.392 . S
C2830 C2831 1.385 . S
C2830 C2832 1.478 . S
C2831 H2825 0.930 . S
C2831 C2827 1.400 . S
C2831 C2830 1.385 . S
C2832 C2830 1.478 . S
C2832 C2834 1.381 . S
C2832 C2838 1.383 . S
C2833 C2829 1.495 . S
C2833 H2839 0.959 . S
C2833 H2840 0.961 . S
C2833 H2841 0.960 . S
C2834 C2832 1.381 . S
C2834 C2835 1.394 . S
C2834 H2842 0.930 . S
C2835 C2834 1.394 . S
C2835 C2836 1.383 . S
C2835 H2843 0.929 . S
C2836 C2835 1.383 . S
C2836 C2837 1.377 . S
C2837 H2821 0.930 . S
C2837 C2836 1.377 . S
C2837 C2838 1.379 . S
C2838 H2822 0.931 . S
C2838 C2832 1.383 . S
C2838 C2837 1.379 . S
H2839 C2833 0.959 . S
H2840 C2833 0.961 . S
H2841 C2833 0.960 . S
H2842 C2834 0.930 . S
H2843 C2835 0.929 . S
H2844 C2852 0.929 . S
H2845 C2854 0.930 . S
H2846 C2856 0.930 . S
H2847 C2859 0.929 . S
H2848 C2862 0.930 . S
H2849 C2864 0.960 . S
H2850 C2864 0.960 1_455 S
H2851 C2864 0.960 . S
C2852 H2844 0.929 . S
C2852 C2853 1.377 . S
C2852 C2854 1.384 . S
C2853 C2852 1.377 . S
C2853 C2859 1.390 . S
C2854 H2845 0.930 . S
C2854 C2852 1.384 . S
C2854 C2855 1.372 . S
C2855 C2854 1.372 . S
C2855 C2856 1.400 . S
C2855 C2860 1.490 . S
C2856 H2846 0.930 . S
C2856 C2855 1.400 . S
C2856 C2859 1.386 . S
H2857 C2873 0.930 . S
H2858 C2874 0.931 . S
C2859 H2847 0.929 . S
C2859 C2853 1.390 . S
C2859 C2856 1.386 . S
C2860 C2855 1.490 . S
C2860 C2862 1.395 . S
C2860 C2863 1.399 1_455 S
H2861 C2867 0.930 . S
C2862 H2848 0.930 . S
C2862 C2860 1.395 . S
C2862 C2865 1.403 . S
C2863 C2860 1.399 1_655 S
C2863 C2864 1.522 . S
C2863 C2867 1.406 . S
C2864 H2849 0.960 . S
C2864 H2850 0.960 1_655 S
C2864 H2851 0.960 . S
C2864 C2863 1.522 . S
C2865 C2862 1.403 . S
C2865 C2866 1.392 1_455 S
C2865 C2869 1.495 . S
C2866 C2865 1.392 1_655 S
C2866 C2867 1.385 . S
C2866 C2868 1.478 . S
C2867 H2861 0.930 . S
C2867 C2863 1.406 . S
C2867 C2866 1.385 . S
C2868 C2866 1.478 . S
C2868 C2870 1.381 . S
C2868 C2874 1.383 . S
C2869 C2865 1.495 . S
C2869 H2875 0.959 . S
C2869 H2876 0.961 1_455 S
C2869 H2877 0.960 . S
C2870 C2868 1.381 . S
C2870 C2871 1.394 . S
C2870 H2878 0.930 . S
C2871 C2870 1.394 . S
C2871 C2872 1.383 . S
C2871 H2879 0.929 . S
C2872 C2871 1.383 . S
C2872 C2873 1.377 . S
C2873 H2857 0.930 . S
C2873 C2872 1.377 . S
C2873 C2874 1.379 . S
C2874 H2858 0.931 . S
C2874 C2868 1.383 . S
C2874 C2873 1.379 . S
H2875 C2869 0.959 . S
H2876 C2869 0.961 1_655 S
H2877 C2869 0.960 . S
H2878 C2870 0.930 . S
H2879 C2871 0.929 . S
H2880 C2888 0.929 . S
H2881 C2890 0.930 . S
H2882 C2892 0.930 . S
H2883 C2895 0.929 . S
H2884 C2898 0.930 . S
H2885 C2900 0.960 . S
H2886 C2900 0.960 . S
H2887 C2900 0.960 . S
C2888 H2880 0.929 . S
C2888 C2889 1.377 . S
C2888 C2890 1.384 . S
C2889 C2888 1.377 . S
C2889 C2895 1.390 . S
C2890 H2881 0.930 . S
C2890 C2888 1.384 . S
C2890 C2891 1.372 . S
C2891 C2890 1.372 . S
C2891 C2892 1.400 . S
C2891 C2896 1.490 . S
C2892 H2882 0.930 . S
C2892 C2891 1.400 . S
C2892 C2895 1.386 . S
H2893 C2909 0.930 . S
H2894 C2910 0.931 . S
C2895 H2883 0.929 . S
C2895 C2889 1.390 . S
C2895 C2892 1.386 . S
C2896 C2891 1.490 . S
C2896 C2898 1.395 . S
C2896 C2899 1.403 . S
H2897 C2903 0.930 . S
C2898 H2884 0.930 . S
C2898 C2896 1.395 . S
C2898 C2901 1.403 . S
C2899 C2896 1.403 . S
C2899 C2900 1.524 . S
C2899 C2903 1.400 . S
C2900 H2885 0.960 . S
C2900 H2886 0.960 . S
C2900 H2887 0.960 . S
C2900 C2899 1.524 . S
C2901 C2898 1.403 . S
C2901 C2902 1.392 . S
C2901 C2905 1.495 . S
C2902 C2901 1.392 . S
C2902 C2903 1.385 . S
C2902 C2904 1.478 . S
C2903 H2897 0.930 . S
C2903 C2899 1.400 . S
C2903 C2902 1.385 . S
C2904 C2902 1.478 . S
C2904 C2906 1.381 . S
C2904 C2910 1.383 . S
C2905 C2901 1.495 . S
C2905 H2911 0.959 . S
C2905 H2912 0.961 . S
C2905 H2913 0.960 . S
C2906 C2904 1.381 . S
C2906 C2907 1.394 . S
C2906 H2914 0.930 . S
C2907 C2906 1.394 . S
C2907 C2908 1.383 . S
C2907 H2915 0.929 . S
C2908 C2907 1.383 . S
C2908 C2909 1.377 . S
C2909 H2893 0.930 . S
C2909 C2908 1.377 . S
C2909 C2910 1.379 . S
C2910 H2894 0.931 . S
C2910 C2904 1.383 . S
C2910 C2909 1.379 . S
H2911 C2905 0.959 . S
H2912 C2905 0.961 . S
H2913 C2905 0.960 . S
H2914 C2906 0.930 . S
H2915 C2907 0.929 . S
H2916 C2924 0.929 . S
H2917 C2926 0.930 . S
H2918 C2928 0.930 . S
H2919 C2931 0.929 . S
H2920 C2934 0.930 . S
H2921 C2936 0.960 . S
H2922 C2936 0.960 . S
H2923 C2936 0.960 . S
C2924 H2916 0.929 . S
C2924 C2925 1.377 . S
C2924 C2926 1.384 . S
C2925 C2924 1.377 . S
C2925 C2931 1.390 . S
C2926 H2917 0.930 . S
C2926 C2924 1.384 . S
C2926 C2927 1.372 . S
C2927 C2926 1.372 . S
C2927 C2928 1.400 . S
C2927 C2932 1.490 . S
C2928 H2918 0.930 . S
C2928 C2927 1.400 . S
C2928 C2931 1.386 . S
H2929 C2945 0.930 . S
H2930 C2946 0.931 . S
C2931 H2919 0.929 . S
C2931 C2925 1.390 . S
C2931 C2928 1.386 . S
C2932 C2927 1.490 . S
C2932 C2934 1.395 1_545 S
C2932 C2935 1.403 . S
H2933 C2939 0.930 . S
C2934 H2920 0.930 . S
C2934 C2932 1.395 1_565 S
C2934 C2937 1.403 . S
C2935 C2932 1.403 . S
C2935 C2936 1.524 . S
C2935 C2939 1.400 1_545 S
C2936 H2921 0.960 . S
C2936 H2922 0.960 . S
C2936 H2923 0.960 . S
C2936 C2935 1.524 . S
C2937 C2934 1.403 . S
C2937 C2938 1.392 . S
C2937 C2941 1.495 . S
C2938 C2937 1.392 . S
C2938 C2939 1.385 . S
C2938 C2940 1.478 . S
C2939 H2933 0.930 . S
C2939 C2935 1.400 1_565 S
C2939 C2938 1.385 . S
C2940 C2938 1.478 . S
C2940 C2942 1.381 . S
C2940 C2946 1.383 . S
C2941 C2937 1.495 . S
C2941 H2947 0.959 . S
C2941 H2948 0.961 . S
C2941 H2949 0.960 . S
C2942 C2940 1.381 . S
C2942 C2943 1.394 . S
C2942 H2950 0.930 . S
C2943 C2942 1.394 . S
C2943 C2944 1.383 . S
C2943 H2951 0.929 . S
C2944 C2943 1.383 . S
C2944 C2945 1.377 . S
C2945 H2929 0.930 . S
C2945 C2944 1.377 . S
C2945 C2946 1.379 . S
C2946 H2930 0.931 . S
C2946 C2940 1.383 . S
C2946 C2945 1.379 . S
H2947 C2941 0.959 . S
H2948 C2941 0.961 . S
H2949 C2941 0.960 . S
H2950 C2942 0.930 . S
H2951 C2943 0.929 . S
H2952 C2960 0.929 . S
H2953 C2962 0.930 . S
H2954 C2964 0.930 . S
H2955 C2967 0.929 . S
H2956 C2970 0.930 . S
H2957 C2972 0.960 . S
H2958 C2972 0.960 . S
H2959 C2972 0.960 . S
C2960 H2952 0.929 . S
C2960 C2961 1.377 1_556 S
C2960 C2962 1.384 . S
C2961 C2960 1.377 1_554 S
C2961 C2967 1.390 . S
C2962 H2953 0.930 . S
C2962 C2960 1.384 . S
C2962 C2963 1.372 1_556 S
C2963 C2962 1.372 1_554 S
C2963 C2964 1.400 . S
C2963 C2968 1.490 . S
C2964 H2954 0.930 . S
C2964 C2963 1.400 . S
C2964 C2967 1.386 . S
H2965 C2981 0.930 . S
H2966 C2982 0.931 . S
C2967 H2955 0.929 . S
C2967 C2961 1.390 . S
C2967 C2964 1.386 . S
C2968 C2963 1.490 . S
C2968 C2970 1.395 1_554 S
C2968 C2971 1.403 1_545 S
H2969 C2975 0.930 . S
C2970 H2956 0.930 . S
C2970 C2968 1.395 1_556 S
C2970 C2973 1.403 . S
C2971 C2968 1.403 1_565 S
C2971 C2972 1.524 . S
C2971 C2975 1.400 . S
C2972 H2957 0.960 . S
C2972 H2958 0.960 . S
C2972 H2959 0.960 . S
C2972 C2971 1.524 . S
C2973 C2970 1.403 . S
C2973 C2974 1.392 1_545 S
C2973 C2977 1.495 . S
C2974 C2973 1.392 1_565 S
C2974 C2975 1.385 1_556 S
C2974 C2976 1.478 . S
C2975 H2969 0.930 . S
C2975 C2971 1.400 . S
C2975 C2974 1.385 1_554 S
C2976 C2974 1.478 . S
C2976 C2978 1.381 . S
C2976 C2982 1.383 1_556 S
C2977 C2973 1.495 . S
C2977 H2983 0.959 . S
C2977 H2984 0.961 . S
C2977 H2985 0.960 . S
C2978 C2976 1.381 . S
C2978 C2979 1.394 . S
C2978 H2986 0.930 . S
C2979 C2978 1.394 . S
C2979 C2980 1.383 . S
C2979 H2987 0.929 . S
C2980 C2979 1.383 . S
C2980 C2981 1.377 1_556 S
C2981 H2965 0.930 . S
C2981 C2980 1.377 1_554 S
C2981 C2982 1.379 . S
C2982 H2966 0.931 . S
C2982 C2976 1.383 1_554 S
C2982 C2981 1.379 . S
H2983 C2977 0.959 . S
H2984 C2977 0.961 . S
H2985 C2977 0.960 . S
H2986 C2978 0.930 . S
H2987 C2979 0.929 . S
H2988 C2996 0.929 . S
H2989 C2998 0.930 . S
H2990 C3000 0.930 . S
H2991 C3003 0.929 . S
H2992 C3006 0.933 1_455 S
H2993 C3008 0.960 . S
H2994 C3008 0.960 . S
H2995 C3008 0.960 . S
C2996 H2988 0.929 . S
C2996 C2997 1.377 . S
C2996 C2998 1.384 . S
C2997 C2996 1.377 . S
C2997 C3003 1.390 1_554 S
C2998 H2989 0.930 . S
C2998 C2996 1.384 . S
C2998 C2999 1.372 . S
C2999 C2998 1.372 . S
C2999 C3000 1.400 1_554 S
C2999 C3004 1.490 . S
C3000 H2990 0.930 . S
C3000 C2999 1.400 1_556 S
C3000 C3003 1.386 . S
H3001 C3017 0.930 . S
H3002 C3018 0.931 . S
C3003 H2991 0.929 . S
C3003 C2997 1.390 1_556 S
C3003 C3000 1.386 . S
C3004 C2999 1.490 . S
C3004 C3006 1.393 . S
C3004 C3007 1.403 1_554 S
H3005 C3011 0.931 . S
C3006 H2992 0.933 1_655 S
C3006 C3004 1.393 . S
C3006 C3009 1.405 1_655 S
C3007 C3004 1.403 1_556 S
C3007 C3008 1.524 . S
C3007 C3011 1.412 . S
C3008 H2993 0.960 . S
C3008 H2994 0.960 . S
C3008 H2995 0.960 . S
C3008 C3007 1.524 . S
C3009 C3006 1.405 1_455 S
C3009 C3010 1.374 1_554 S
C3009 C3013 1.495 . S
C3010 C3009 1.374 1_556 S
C3010 C3011 1.378 1_455 S
C3010 C3012 1.483 . S
C3011 H3005 0.931 . S
C3011 C3007 1.412 . S
C3011 C3010 1.378 1_655 S
C3012 C3010 1.483 . S
C3012 C3014 1.381 1_556 S
C3012 C3018 1.383 . S
C3013 C3009 1.495 . S
C3013 H3019 0.959 . S
C3013 H3020 0.961 . S
C3013 H3021 0.960 . S
C3014 C3012 1.381 1_554 S
C3014 C3015 1.394 . S
C3014 H3022 0.930 . S
C3015 C3014 1.394 . S
C3015 C3016 1.383 1_554 S
C3015 H3023 0.929 . S
C3016 C3015 1.383 1_556 S
C3016 C3017 1.377 . S
C3017 H3001 0.930 . S
C3017 C3016 1.377 . S
C3017 C3018 1.379 . S
C3018 H3002 0.931 . S
C3018 C3012 1.383 . S
C3018 C3017 1.379 . S
H3019 C3013 0.959 . S
H3020 C3013 0.961 . S
H3021 C3013 0.960 . S
H3022 C3014 0.930 . S
H3023 C3015 0.929 . S
H3024 C3032 0.929 . S
H3025 C3034 0.930 . S
H3026 C3036 0.930 . S
H3027 C3039 0.946 . S
H3028 C3042 0.930 . S
H3029 C3044 0.960 . S
H3030 C3044 0.960 . S
H3031 C3044 0.960 . S
C3032 H3024 0.929 . S
C3032 C3033 1.377 . S
C3032 C3034 1.384 . S
C3033 C3032 1.377 . S
C3033 C3039 1.369 1_556 S
C3034 H3025 0.930 . S
C3034 C3032 1.384 . S
C3034 C3035 1.372 . S
C3035 C3034 1.372 . S
C3035 C3036 1.400 1_556 S
C3035 C3040 1.490 . S
C3036 H3026 0.930 . S
C3036 C3035 1.400 1_554 S
C3036 C3039 1.390 . S
H3037 C3053 0.930 . S
H3038 C3054 0.931 . S
C3039 H3027 0.946 . S
C3039 C3033 1.369 1_554 S
C3039 C3036 1.390 . S
C3040 C3035 1.490 . S
C3040 C3042 1.395 . S
C3040 C3043 1.403 1_556 S
H3041 C3047 0.930 . S
C3042 H3028 0.930 . S
C3042 C3040 1.395 . S
C3042 C3045 1.403 . S
C3043 C3040 1.403 1_554 S
C3043 C3044 1.524 . S
C3043 C3047 1.400 . S
C3044 H3029 0.960 . S
C3044 H3030 0.960 . S
C3044 H3031 0.960 . S
C3044 C3043 1.524 . S
C3045 C3042 1.403 . S
C3045 C3046 1.401 1_556 S
C3045 C3049 1.495 . S
C3046 C3045 1.401 1_554 S
C3046 C3047 1.378 . S
C3046 C3048 1.476 . S
C3047 H3041 0.930 . S
C3047 C3043 1.400 . S
C3047 C3046 1.378 . S
C3048 C3046 1.476 . S
C3048 C3050 1.381 1_554 S
C3048 C3054 1.383 . S
C3049 C3045 1.495 . S
C3049 H3055 0.959 . S
C3049 H3056 0.961 . S
C3049 H3057 0.960 . S
C3050 C3048 1.381 1_556 S
C3050 C3051 1.409 . S
C3050 H3058 0.930 . S
C3051 C3050 1.409 . S
C3051 C3052 1.341 1_556 S
C3051 H3059 0.959 . S
C3052 C3051 1.341 1_554 S
C3052 C3053 1.377 . S
C3053 H3037 0.930 . S
C3053 C3052 1.377 . S
C3053 C3054 1.379 . S
C3054 H3038 0.931 . S
C3054 C3048 1.383 . S
C3054 C3053 1.379 . S
H3055 C3049 0.959 . S
H3056 C3049 0.961 . S
H3057 C3049 0.960 . S
H3058 C3050 0.930 . S
H3059 C3051 0.959 . S
C477 C5 0.781 . S
C496 C23 0.837 . S
C513 C18 0.794 . S
C532 C36 0.823 . S
C549 C10 0.819 . S
C568 C31 0.864 . S
C585 C44 0.763 . S
C604 C75 0.794 . S
C621 C57 0.776 . S
C640 C49 0.836 . S
C657 C62 0.813 . S
C676 C70 0.691 . S
C693 C83 0.751 . S
C712 C99 0.786 . S
C729 C112 0.731 . S
C748 C96 0.665 . S
C765 C86 0.748 . S
C784 C109 0.821 . S
C801 C151 0.732 . S
C820 C122 0.660 . S
C837 C135 0.752 . S
C856 C125 0.787 . S
C873 C148 0.733 . S
C892 C138 0.760 . S
C909 C179 0.816 . S
C928 C161 0.863 . S
C945 C174 0.775 . S
C964 C192 0.836 . S
C981 C187 0.769 . S
C1000 C166 0.832 . S
C1017 C200 0.786 . S
C1036 C231 0.803 . S
C1053 C213 0.759 . S
C1072 C205 0.819 . S
C1089 C226 0.757 . S
C1108 C218 0.814 . S
C1125 C255 0.745 . S
C1144 C239 0.834 . S
C1161 C252 0.764 . S
C1180 C268 0.754 . S
C1197 C242 0.746 . S
C1216 C265 0.833 . S
C1233 C307 0.739 . S
C1252 C278 0.664 . S
C1269 C291 0.750 . S
C1288 C281 0.706 . S
C1305 C294 0.740 . S
C1324 C304 0.826 . S
C1341 C335 0.814 . S
C1360 C317 0.681 . S
C1377 C330 0.785 . S
C1396 C348 0.802 . S
C1413 C343 0.776 . S
C1432 C322 0.836 . S
C1449 C387 0.811 . S
C1468 C356 0.743 . S
C1485 C369 0.757 . S
C1504 C361 0.800 . S
C1521 C374 0.820 . S
C1540 C382 0.851 . S
C1557 C395 0.734 . S
C1576 C411 0.761 . S
C1593 C408 0.726 . S
C1612 C424 0.716 . S
C1629 C421 0.760 . S
C1648 C398 0.730 . S
C1665 C463 0.730 . S
C1684 C434 0.677 . S
C1701 C437 0.747 . S
C1720 C447 0.831 . S
C1737 C460 0.754 . S
C1756 C450 0.715 . S
C1773 C47 1.494 . S
C1792 C8 1.472 . S
C1809 C21 1.496 . S
C1828 C60 1.471 . S
C1845 C73 1.499 . S
C1864 C34 1.477 . S
C1881 C127 1.542 . S
C1900 C88 1.523 . S
C1917 C101 1.535 . S
C1936 C140 1.521 . S
C1953 C153 1.535 . S
C1972 C114 1.522 . S
C1989 C164 1.504 . S
C2008 C203 1.513 . S
C2025 C177 1.495 . S
C2044 C216 1.470 . S
C2061 C190 1.502 . S
C2080 C229 1.491 . S
C2097 C283 1.535 . S
C2116 C244 1.521 . S
C2133 C296 1.535 . S
C2152 C257 1.520 . S
C2169 C270 1.539 . S
C2188 C309 1.557 . S
C2205 C359 1.501 . S
C2224 C320 1.518 . S
C2241 C372 1.505 . S
C2260 C333 1.513 . S
C2277 C346 1.497 . S
C2296 C385 1.502 . S
C2313 C400 1.534 . S
C2332 C439 1.526 . S
C2349 C452 1.541 . S
C2368 C413 1.560 . S
C2385 C426 1.535 . S
C2404 C465 1.525 . S
C2421 C0 1.364 . S
C2440 C234 1.421 . S
C2457 C13 1.376 . S
C2476 C247 1.456 . S
C2493 C26 1.378 . S
C2512 C260 1.477 . S
C2529 C429 1.457 . S
C2548 C39 1.366 . S
C2565 C442 1.460 . S
C2584 C52 1.381 . S
C2601 C65 1.384 . S
C2620 C455 1.491 . S
C2637 C78 1.452 . S
C2656 C312 1.324 . S
C2673 C325 1.369 . S
C2692 C91 1.445 . S
C2709 C338 1.384 . S
C2728 C104 1.491 . S
C2745 C195 1.373 . S
C2764 C117 1.449 . S
C2781 C208 1.365 . S
C2800 C130 1.423 . S
C2817 C221 1.367 . S
C2836 C143 1.432 . S
C2853 C390 1.466 . S
C2872 C156 1.416 . S
C2889 C169 1.383 . S
C2908 C403 1.491 . S
C2925 C182 1.370 . S
C2944 C416 1.436 . S
C2961 C273 1.466 . S
C2980 C351 1.411 . S
C2997 C286 1.455 . S
C3016 C364 1.345 . S
C3033 C377 1.384 . S
C3052 C299 1.492 . S
