# Generated by pormake.
# Topology umy, (4)-cn, num edge types: 1
# Building blocks:
#     Node 0, Type 0, BuildingBlock: KUFVIS_clean_sbu_0, # of connection points: 4
#     Node 1, Type 0, BuildingBlock: KUFVIS_clean_sbu_0, # of connection points: 4
#     Node 2, Type 0, BuildingBlock: KUFVIS_clean_sbu_0, # of connection points: 4
#     Node 3, Type 0, BuildingBlock: KUFVIS_clean_sbu_0, # of connection points: 4
#     Node 4, Type 0, BuildingBlock: KUFVIS_clean_sbu_0, # of connection points: 4
#     Node 5, Type 0, BuildingBlock: KUFVIS_clean_sbu_0, # of connection points: 4
#     Node 6, Type 0, BuildingBlock: KUFVIS_clean_sbu_0, # of connection points: 4
#     Node 7, Type 0, BuildingBlock: KUFVIS_clean_sbu_0, # of connection points: 4
#     Node 8, Type 0, BuildingBlock: KUFVIS_clean_sbu_0, # of connection points: 4
#     Node 9, Type 0, BuildingBlock: KUFVIS_clean_sbu_0, # of connection points: 4
#     Node 10, Type 0, BuildingBlock: KUFVIS_clean_sbu_0, # of connection points: 4
#     Node 11, Type 0, BuildingBlock: KUFVIS_clean_sbu_0, # of connection points: 4
#     Edge 12, Type (0, 0), BuildingBlock: ZUJKAS_clean_linker_0, # of connection points: 2
#     Edge 13, Type (0, 0), BuildingBlock: ZUJKAS_clean_linker_0, # of connection points: 2
#     Edge 14, Type (0, 0), BuildingBlock: ZUJKAS_clean_linker_0, # of connection points: 2
#     Edge 15, Type (0, 0), BuildingBlock: ZUJKAS_clean_linker_0, # of connection points: 2
#     Edge 16, Type (0, 0), BuildingBlock: ZUJKAS_clean_linker_0, # of connection points: 2
#     Edge 17, Type (0, 0), BuildingBlock: ZUJKAS_clean_linker_0, # of connection points: 2
#     Edge 18, Type (0, 0), BuildingBlock: ZUJKAS_clean_linker_0, # of connection points: 2
#     Edge 19, Type (0, 0), BuildingBlock: ZUJKAS_clean_linker_0, # of connection points: 2
#     Edge 20, Type (0, 0), BuildingBlock: ZUJKAS_clean_linker_0, # of connection points: 2
#     Edge 21, Type (0, 0), BuildingBlock: ZUJKAS_clean_linker_0, # of connection points: 2
#     Edge 22, Type (0, 0), BuildingBlock: ZUJKAS_clean_linker_0, # of connection points: 2
#     Edge 23, Type (0, 0), BuildingBlock: ZUJKAS_clean_linker_0, # of connection points: 2
#     Edge 24, Type (0, 0), BuildingBlock: ZUJKAS_clean_linker_0, # of connection points: 2
#     Edge 25, Type (0, 0), BuildingBlock: ZUJKAS_clean_linker_0, # of connection points: 2
#     Edge 26, Type (0, 0), BuildingBlock: ZUJKAS_clean_linker_0, # of connection points: 2
#     Edge 27, Type (0, 0), BuildingBlock: ZUJKAS_clean_linker_0, # of connection points: 2
#     Edge 28, Type (0, 0), BuildingBlock: ZUJKAS_clean_linker_0, # of connection points: 2
#     Edge 29, Type (0, 0), BuildingBlock: ZUJKAS_clean_linker_0, # of connection points: 2
#     Edge 30, Type (0, 0), BuildingBlock: ZUJKAS_clean_linker_0, # of connection points: 2
#     Edge 31, Type (0, 0), BuildingBlock: ZUJKAS_clean_linker_0, # of connection points: 2
#     Edge 32, Type (0, 0), BuildingBlock: ZUJKAS_clean_linker_0, # of connection points: 2
#     Edge 33, Type (0, 0), BuildingBlock: ZUJKAS_clean_linker_0, # of connection points: 2
#     Edge 34, Type (0, 0), BuildingBlock: ZUJKAS_clean_linker_0, # of connection points: 2
#     Edge 35, Type (0, 0), BuildingBlock: ZUJKAS_clean_linker_0, # of connection points: 2
# Relax obj value: 0.094
# Max RMSD: 0.078
# Mean RMSD: 0.078
data_MOF--net-umy--node1-KUFVIS_clean_sbu_0--edge1-ZUJKAS_clean_linker_0
_symmetry_space_group_name_H-M    P1
_symmetry_Int_Tables_number       1
_symmetry_cell_setting            triclinic
loop_
_symmetry_equiv_pos_as_xyz
'x, y, z'
_cell_length_a     49.633594
_cell_length_b     49.651363
_cell_length_c     66.004323
_cell_angle_alpha  90.019031
_cell_angle_beta   89.977528
_cell_angle_gamma 119.94249
loop_
_atom_site_label
_atom_site_type_symbol
_atom_site_fract_x
_atom_site_fract_y
_atom_site_fract_z
_atom_type_partial_charge
Mn0 Mn 0.07451 0.3484 0.13642 0.0
Mn1 Mn 0.14398 0.41337 0.14274 0.0
C2 C 0.10969 0.34995 0.16019 0.0
C3 C 0.02229 0.31772 0.14583 0.0
C4 C 0.1293 0.36925 0.10716 0.0
O5 O 0.06781 0.3818 0.12288 0.0
O6 O 0.11419 0.42388 0.13009 0.0
C7 C 0.12605 0.44544 0.17315 0.0
N8 N 0.14414 0.43318 0.1676 0.0
C9 C 0.1721 0.44871 0.19915 0.0
C10 C 0.15389 0.46165 0.20516 0.0
C11 C 0.1307 0.4599 0.19213 0.0
C12 C 0.16634 0.4345 0.1801 0.0
H13 H 0.10822 0.44418 0.16318 0.0
C14 C 0.08657 0.4112 0.12284 0.0
O15 O 0.03225 0.31383 0.12846 0.0
O16 O 0.0422 0.34039 0.157 0.0
N17 N 0.17464 0.40619 0.15523 0.0
C18 C 0.18922 0.39133 0.14755 0.0
C19 C 0.21247 0.39016 0.15898 0.0
C20 C 0.2207 0.40452 0.17808 0.0
C21 C 0.20559 0.41994 0.18557 0.0
C22 C 0.18258 0.42032 0.17351 0.0
H23 H 0.18309 0.38036 0.13285 0.0
O24 O 0.08811 0.32354 0.15316 0.0
O25 O 0.11004 0.37439 0.153 0.0
O26 O 0.10169 0.34919 0.11258 0.0
O27 O 0.14639 0.3942 0.11709 0.0
C28 C 0.21229 0.43475 0.20459 0.0
C29 C 0.19552 0.44908 0.2114 0.0
H30 H 0.1574 0.47282 0.21979 0.0
H31 H 0.11646 0.46972 0.1967 0.0
H32 H 0.22403 0.37822 0.15308 0.0
H33 H 0.23857 0.40348 0.18688 0.0
H34 H 0.23001 0.43489 0.21424 0.0
H35 H 0.20059 0.45999 0.22619 0.0
Mn36 Mn 0.73043 0.06606 0.3001 0.0
Mn37 Mn 0.73444 0.13564 0.30464 0.0
C38 C 0.76318 0.10197 0.32374 0.0
C39 C 0.70883 0.01415 0.31032 0.0
C40 C 0.76583 0.12045 0.27059 0.0
O41 O 0.69073 0.05866 0.28576 0.0
O42 O 0.69539 0.10582 0.29064 0.0
C43 C 0.68196 0.11726 0.33309 0.0
N44 N 0.71267 0.13555 0.32855 0.0
C45 C 0.72238 0.1629 0.36022 0.0
C46 C 0.69083 0.14446 0.36518 0.0
C47 C 0.67056 0.12149 0.35158 0.0
C48 C 0.73241 0.15757 0.34159 0.0
H49 H 0.66631 0.09956 0.32268 0.0
C50 C 0.68078 0.07786 0.28393 0.0
O51 O 0.7232 0.02359 0.29307 0.0
O52 O 0.70569 0.03437 0.32089 0.0
N53 N 0.77102 0.16651 0.31814 0.0
C54 C 0.80097 0.18156 0.31139 0.0
C55 C 0.8243 0.20485 0.32342 0.0
C56 C 0.81656 0.21263 0.34215 0.0
C57 C 0.78553 0.19709 0.34866 0.0
C58 C 0.76328 0.17411 0.33602 0.0
H59 H 0.80704 0.17575 0.29697 0.0
O60 O 0.76838 0.08029 0.31736 0.0
O61 O 0.73919 0.10202 0.316 0.0
O62 O 0.75745 0.09268 0.27619 0.0
O63 O 0.75807 0.13801 0.28005 0.0
C64 C 0.77584 0.20334 0.36727 0.0
C65 C 0.74431 0.18616 0.37309 0.0
H66 H 0.68195 0.14764 0.37944 0.0
H67 H 0.64621 0.10709 0.35534 0.0
H68 H 0.84819 0.21676 0.31827 0.0
H69 H 0.83464 0.23051 0.35144 0.0
H70 H 0.79252 0.22103 0.37734 0.0
H71 H 0.73725 0.19086 0.38758 0.0
Mn72 Mn 0.6618 0.72328 0.46826 0.0
Mn73 Mn 0.59288 0.72138 0.46903 0.0
C74 C 0.65352 0.7544 0.49067 0.0
C75 C 0.69481 0.70553 0.47987 0.0
C76 C 0.64226 0.75676 0.43733 0.0
O77 O 0.63336 0.68259 0.45345 0.0
O78 O 0.58898 0.68448 0.4547 0.0
C79 C 0.55882 0.66621 0.49541 0.0
N80 N 0.56893 0.69671 0.49146 0.0
C81 C 0.54186 0.70072 0.5205 0.0
C82 C 0.53105 0.66932 0.52485 0.0
C83 C 0.53972 0.65204 0.51232 0.0
C84 C 0.56115 0.71367 0.5036 0.0
H85 H 0.56519 0.65276 0.48571 0.0
C86 C 0.60449 0.6713 0.44955 0.0
O87 O 0.69962 0.7198 0.46261 0.0
O88 O 0.67022 0.70049 0.48984 0.0
N89 N 0.59272 0.75533 0.48261 0.0
C90 C 0.60623 0.78566 0.47681 0.0
C91 C 0.60053 0.80631 0.48806 0.0
C92 C 0.58049 0.79541 0.50486 0.0
C93 C 0.56664 0.76402 0.51042 0.0
C94 C 0.57353 0.74465 0.49881 0.0
H95 H 0.62123 0.79401 0.4637 0.0
O96 O 0.68147 0.76149 0.4854 0.0
O97 O 0.63108 0.72915 0.48275 0.0
O98 O 0.66184 0.7491 0.44371 0.0
O99 O 0.61597 0.7477 0.4458 0.0
C100 C 0.54624 0.75117 0.52701 0.0
C101 C 0.53419 0.71966 0.53221 0.0
H102 H 0.51613 0.65826 0.5378 0.0
H103 H 0.53152 0.62781 0.51559 0.0
H104 H 0.6113 0.8305 0.48367 0.0
H105 H 0.57596 0.81137 0.5134 0.0
H106 H 0.53993 0.76541 0.53603 0.0
H107 H 0.51902 0.71023 0.54524 0.0
Mn108 Mn 0.94921 0.66734 0.63371 0.0
Mn109 Mn 0.87908 0.60259 0.63863 0.0
C110 C 0.91334 0.66611 0.65677 0.0
C111 C 1.00111 0.69725 0.64402 0.0
C112 C 0.89617 0.64757 0.60329 0.0
O113 O 0.95594 0.63385 0.62037 0.0
O114 O 0.90948 0.59168 0.62736 0.0
C115 C 0.89373 0.56943 0.67018 0.0
N116 N 0.8763 0.5819 0.66362 0.0
C117 C 0.84507 0.56538 0.69388 0.0
C118 C 0.86253 0.55214 0.70088 0.0
C119 C 0.88701 0.55425 0.68901 0.0
C120 C 0.85271 0.58003 0.67494 0.0
H121 H 0.91268 0.57116 0.66116 0.0
C122 C 0.93737 0.60442 0.62052 0.0
O123 O 0.99201 0.70162 0.62648 0.0
O124 O 0.98054 0.67454 0.65486 0.0
N125 N 0.84782 0.6101 0.64975 0.0
C126 C 0.83478 0.62607 0.64149 0.0
C127 C 0.8104 0.62691 0.65171 0.0
C128 C 0.79966 0.61131 0.67026 0.0
C129 C 0.81368 0.59534 0.67858 0.0
C130 C 0.83758 0.59493 0.66757 0.0
H131 H 0.8428 0.63798 0.62719 0.0
O132 O 0.93553 0.69239 0.65001 0.0
O133 O 0.91271 0.64138 0.64972 0.0
O134 O 0.92334 0.66764 0.6094 0.0
O135 O 0.87882 0.62221 0.6127 0.0
C136 C 0.80516 0.58018 0.69749 0.0
C137 C 0.82089 0.56527 0.70515 0.0
H138 H 0.85757 0.5406 0.71546 0.0
H139 H 0.90072 0.54427 0.69438 0.0
H140 H 0.79984 0.63947 0.64527 0.0
H141 H 0.78075 0.6119 0.67804 0.0
H142 H 0.78685 0.58024 0.70639 0.0
H143 H 0.81447 0.55413 0.71985 0.0
Mn144 Mn 0.29315 0.946 0.8007 0.0
Mn145 Mn 0.28729 0.87548 0.80513 0.0
C146 C 0.25975 0.9107 0.82426 0.0
C147 C 0.31507 0.99795 0.81087 0.0
C148 C 0.25692 0.8919 0.77111 0.0
O149 O 0.33271 0.95259 0.78668 0.0
O150 O 0.32675 0.90481 0.79115 0.0
C151 C 0.33958 0.89179 0.83335 0.0
N152 N 0.30879 0.87425 0.82881 0.0
C153 C 0.29854 0.84573 0.86003 0.0
C154 C 0.33017 0.86335 0.86497 0.0
C155 C 0.35076 0.88651 0.85158 0.0
C156 C 0.2888 0.85179 0.84153 0.0
H157 H 0.35546 0.9097 0.82314 0.0
C158 C 0.34204 0.93292 0.78472 0.0
O159 O 0.30111 0.98862 0.79349 0.0
O160 O 0.31792 0.97763 0.82154 0.0
N161 N 0.25034 0.84513 0.8186 0.0
C162 C 0.22022 0.83205 0.81237 0.0
C163 C 0.19647 0.8095 0.82456 0.0
C164 C 0.20394 0.80051 0.84293 0.0
C165 C 0.23512 0.81412 0.84894 0.0
C166 C 0.25782 0.83634 0.83611 0.0
H167 H 0.21434 0.83899 0.79832 0.0
O168 O 0.25522 0.93265 0.81754 0.0
O169 O 0.28352 0.90976 0.81679 0.0
O170 O 0.2661 0.91985 0.77664 0.0
O171 O 0.26389 0.87387 0.78066 0.0
C172 C 0.24449 0.80718 0.86743 0.0
C173 C 0.27618 0.82295 0.87296 0.0
H174 H 0.33885 0.85955 0.87911 0.0
H175 H 0.37518 0.90032 0.85535 0.0
H176 H 0.17245 0.79918 0.81985 0.0
H177 H 0.18552 0.78338 0.8524 0.0
H178 H 0.22745 0.79017 0.87768 0.0
H179 H 0.28302 0.81778 0.88737 0.0
Mn180 Mn 0.35249 0.28631 0.96904 0.0
Mn181 Mn 0.41605 0.27877 0.97452 0.0
C182 C 0.35322 0.25298 0.99319 0.0
C183 C 0.32383 0.31009 0.97851 0.0
C184 C 0.36992 0.24913 0.94003 0.0
O185 O 0.38623 0.32503 0.95475 0.0
O186 O 0.42748 0.31858 0.96062 0.0
C187 C 0.45213 0.33048 0.00309 0.0
N188 N 0.4383 0.29968 0.99847 0.0
C189 C 0.45494 0.28844 0.03002 0.0
C190 C 0.46954 0.32007 0.03506 0.0
C191 C 0.46808 0.34117 0.02154 0.0
C192 C 0.43969 0.2792 0.01132 0.0
H193 H 0.45097 0.34675 0.99278 0.0
C194 C 0.41525 0.33409 0.95352 0.0
O195 O 0.31874 0.29547 0.96135 0.0
O196 O 0.34654 0.3123 0.98939 0.0
N197 N 0.40803 0.24136 0.98803 0.0
C198 C 0.39056 0.21137 0.98165 0.0
C199 C 0.38826 0.1872 0.99391 0.0
C200 C 0.40405 0.1941 0.01253 0.0
C201 C 0.42205 0.22515 0.0187 0.0
C202 C 0.42365 0.24829 0.00579 0.0
H203 H 0.37825 0.20592 0.96741 0.0
O204 O 0.32703 0.24899 0.98628 0.0
O205 O 0.37821 0.27612 0.98557 0.0
O206 O 0.3511 0.25838 0.94539 0.0
O207 O 0.39474 0.25595 0.94976 0.0
C208 C 0.43777 0.23399 0.03741 0.0
C209 C 0.45424 0.26561 0.04306 0.0
H210 H 0.48162 0.32837 0.04935 0.0
H211 H 0.47915 0.36559 0.02537 0.0
H212 H 0.37423 0.16329 0.98908 0.0
H213 H 0.40192 0.17537 0.02205 0.0
H214 H 0.43687 0.21661 0.04774 0.0
H215 H 0.46579 0.27207 0.05763 0.0
Mn216 Mn 0.6684 0.94059 0.702 0.0
Mn217 Mn 0.60179 0.87161 0.69909 0.0
C218 C 0.66358 0.90346 0.6788 0.0
C219 C 0.6988 0.99218 0.69118 0.0
C220 C 0.64933 0.88756 0.73253 0.0
O221 O 0.63709 0.94917 0.71671 0.0
O222 O 0.59355 0.90266 0.71234 0.0
C223 C 0.56765 0.88915 0.67012 0.0
N224 N 0.57972 0.87071 0.67515 0.0
C225 C 0.56117 0.84177 0.6441 0.0
C226 C 0.54839 0.86033 0.63864 0.0
C227 C 0.55172 0.88417 0.65169 0.0
C228 C 0.57678 0.84781 0.66267 0.0
H229 H 0.57022 0.90754 0.68009 0.0
C230 C 0.60782 0.93079 0.71874 0.0
O231 O 0.70421 0.98296 0.70836 0.0
O232 O 0.67505 0.97188 0.68095 0.0
N233 N 0.60666 0.83964 0.68638 0.0
C234 C 0.62159 0.82479 0.69346 0.0
C235 C 0.62115 0.80078 0.68195 0.0
C236 C 0.60519 0.79214 0.66339 0.0
C237 C 0.58975 0.80756 0.65652 0.0
C238 C 0.5909 0.83124 0.66867 0.0
H239 H 0.63386 0.83131 0.70772 0.0
O240 O 0.69086 0.92515 0.68453 0.0
O241 O 0.64011 0.90419 0.68688 0.0
O242 O 0.66938 0.9145 0.72603 0.0
O243 O 0.62326 0.87017 0.72387 0.0
C244 C 0.57355 0.8006 0.638 0.0
C245 C 0.55939 0.81778 0.63175 0.0
H246 H 0.53615 0.85663 0.62441 0.0
H247 H 0.54203 0.89869 0.64754 0.0
H248 H 0.63313 0.78899 0.68736 0.0
H249 H 0.60507 0.77374 0.6545 0.0
H250 H 0.57222 0.78237 0.6283 0.0
H251 H 0.54743 0.81254 0.61731 0.0
Mn252 Mn 0.73232 0.66123 0.86866 0.0
Mn253 Mn 0.7409 0.59817 0.86446 0.0
C254 C 0.76847 0.66149 0.84632 0.0
C255 C 0.70907 0.68961 0.85746 0.0
C256 C 0.76655 0.64342 0.89975 0.0
O257 O 0.69222 0.62685 0.88145 0.0
O258 O 0.69947 0.58608 0.87598 0.0
C259 C 0.69302 0.56297 0.83338 0.0
N260 N 0.72313 0.5767 0.83968 0.0
C261 C 0.73838 0.56068 0.80942 0.0
C262 C 0.7075 0.54625 0.80264 0.0
C263 C 0.68475 0.54746 0.81466 0.0
C264 C 0.7452 0.57563 0.82826 0.0
H265 H 0.67548 0.56389 0.84255 0.0
C266 C 0.68304 0.59777 0.88223 0.0
O267 O 0.72172 0.69436 0.87531 0.0
O268 O 0.70844 0.66738 0.84685 0.0
N269 N 0.77994 0.60677 0.85322 0.0
C270 C 0.80894 0.62365 0.86132 0.0
C271 C 0.83448 0.62538 0.85097 0.0
C272 C 0.82992 0.6097 0.83247 0.0
C273 C 0.7999 0.59274 0.82434 0.0
C274 C 0.77529 0.59149 0.83546 0.0
H275 H 0.81257 0.63563 0.87558 0.0
O276 O 0.77138 0.68737 0.85301 0.0
O277 O 0.74467 0.63625 0.85309 0.0
O278 O 0.75793 0.66238 0.89362 0.0
O279 O 0.76054 0.61871 0.89016 0.0
C280 C 0.79349 0.57736 0.80551 0.0
C281 C 0.76276 0.5614 0.79804 0.0
H282 H 0.70105 0.53442 0.78816 0.0
H283 H 0.66089 0.53648 0.80949 0.0
H284 H 0.85762 0.63868 0.85728 0.0
H285 H 0.84968 0.61099 0.8246 0.0
H286 H 0.81209 0.57803 0.79653 0.0
H287 H 0.7582 0.55006 0.78341 0.0
Mn288 Mn 0.07507 0.72565 0.03403 0.0
Mn289 Mn 0.14578 0.73228 0.02843 0.0
C290 C 0.10963 0.75967 0.01034 0.0
C291 C 0.02274 0.7028 0.02471 0.0
C292 C 0.12887 0.76034 0.06369 0.0
O293 O 0.06967 0.68621 0.0477 0.0
O294 O 0.11652 0.69136 0.04064 0.0
C295 C 0.13128 0.68322 0.99788 0.0
N296 N 0.14808 0.71354 0.00368 0.0
C297 C 0.17748 0.72749 0.97265 0.0
C298 C 0.16061 0.69638 0.9664 0.0
C299 C 0.13739 0.67417 0.97907 0.0
C300 C 0.17063 0.73508 0.99167 0.0
H301 H 0.11334 0.66609 0.00754 0.0
C302 C 0.08884 0.67602 0.0478 0.0
O303 O 0.03249 0.71684 0.04202 0.0
O304 O 0.04297 0.70053 0.01352 0.0
N305 N 0.1758 0.77081 0.01638 0.0
C306 C 0.18795 0.8002 0.02384 0.0
C307 C 0.21033 0.82539 0.01251 0.0
C308 C 0.22007 0.82012 0.99367 0.0
C309 C 0.20735 0.78966 0.98635 0.0
C310 C 0.18527 0.76544 0.99838 0.0
H311 H 0.18042 0.80441 0.03825 0.0
O312 O 0.08741 0.7636 0.01732 0.0
O313 O 0.11111 0.7361 0.01756 0.0
O314 O 0.10151 0.75282 0.0578 0.0
O315 O 0.14656 0.75285 0.05419 0.0
C316 C 0.21508 0.78247 0.96734 0.0
C317 C 0.2002 0.7514 0.96051 0.0
H318 H 0.16503 0.68935 0.95181 0.0
H319 H 0.12417 0.65014 0.9743 0.0
H320 H 0.21994 0.84885 0.01822 0.0
H321 H 0.23708 0.83965 0.98487 0.0
H322 H 0.23201 0.80073 0.95768 0.0
H323 H 0.20595 0.74624 0.94572 0.0
Mn324 Mn 0.35307 0.06885 0.20251 0.0
Mn325 Mn 0.41656 0.14048 0.20056 0.0
C326 C 0.35477 0.10541 0.18013 0.0
C327 C 0.32537 0.01767 0.19059 0.0
C328 C 0.36837 0.11978 0.23404 0.0
O329 O 0.38631 0.06258 0.21649 0.0
O330 O 0.4277 0.1108 0.21288 0.0
C331 C 0.45455 0.12875 0.17112 0.0
N332 N 0.44012 0.14483 0.17664 0.0
C333 C 0.45781 0.1761 0.14645 0.0
C334 C 0.47303 0.16 0.14051 0.0
C335 C 0.47136 0.1362 0.15289 0.0
C336 C 0.44174 0.16792 0.16491 0.0
H337 H 0.4532 0.11034 0.18055 0.0
C338 C 0.41523 0.08237 0.2186 0.0
O339 O 0.31937 0.02509 0.20824 0.0
O340 O 0.34847 0.03943 0.18065 0.0
N341 N 0.40872 0.17105 0.18864 0.0
C342 C 0.39051 0.18239 0.19567 0.0
C343 C 0.38828 0.20527 0.18449 0.0
C344 C 0.40485 0.21631 0.16627 0.0
C345 C 0.42356 0.2044 0.1594 0.0
C346 C 0.42506 0.18179 0.17125 0.0
H347 H 0.37754 0.17383 0.20959 0.0
O348 O 0.32832 0.08233 0.18593 0.0
O349 O 0.37946 0.10659 0.1878 0.0
O350 O 0.34987 0.09256 0.22723 0.0
O351 O 0.39393 0.1389 0.22547 0.0
C352 C 0.44007 0.21344 0.14097 0.0
C353 C 0.45722 0.19934 0.13451 0.0
H354 H 0.48575 0.16546 0.12636 0.0
H355 H 0.4829 0.12356 0.14836 0.0
H356 H 0.37368 0.21425 0.18986 0.0
H357 H 0.40278 0.23369 0.15758 0.0
H358 H 0.43928 0.23081 0.13146 0.0
H359 H 0.46939 0.20611 0.12015 0.0
Mn360 Mn 0.28703 0.34869 0.3707 0.0
Mn361 Mn 0.28782 0.41707 0.37081 0.0
C362 C 0.25484 0.35642 0.34903 0.0
C363 C 0.30562 0.31687 0.35814 0.0
C364 C 0.25411 0.36731 0.40255 0.0
O365 O 0.32789 0.37756 0.38526 0.0
O366 O 0.32575 0.4218 0.3841 0.0
C367 C 0.3414 0.4519 0.34329 0.0
N368 N 0.311 0.44119 0.348 0.0
C369 C 0.30475 0.46769 0.31946 0.0
C370 C 0.33603 0.47912 0.31434 0.0
C371 C 0.35438 0.47103 0.32625 0.0
C372 C 0.29302 0.44843 0.33648 0.0
H373 H 0.35566 0.44598 0.35251 0.0
C374 C 0.33923 0.40649 0.38898 0.0
O375 O 0.29182 0.31143 0.37563 0.0
O376 O 0.30975 0.34141 0.34854 0.0
N377 N 0.25274 0.41629 0.35822 0.0
C378 C 0.22263 0.40202 0.36461 0.0
C379 C 0.20097 0.40694 0.35398 0.0
C380 C 0.21062 0.42695 0.33716 0.0
C381 C 0.2418 0.44156 0.33097 0.0
C382 C 0.26222 0.43543 0.34198 0.0
H383 H 0.21523 0.38701 0.37773 0.0
O384 O 0.24848 0.32857 0.35394 0.0
O385 O 0.28007 0.37906 0.35683 0.0
O386 O 0.26121 0.34762 0.39556 0.0
O387 O 0.26306 0.39385 0.39454 0.0
C388 C 0.25342 0.46195 0.31429 0.0
C389 C 0.28477 0.47468 0.30838 0.0
H390 H 0.34617 0.49404 0.30128 0.0
H391 H 0.37852 0.4797 0.32238 0.0
H392 H 0.17695 0.39557 0.35884 0.0
H393 H 0.19388 0.43085 0.32908 0.0
H394 H 0.23836 0.46769 0.30574 0.0
H395 H 0.29324 0.48981 0.29528 0.0
Mn396 Mn 0.9387 0.28624 0.53368 0.0
Mn397 Mn 0.86981 0.28436 0.53227 0.0
C398 C 0.89973 0.25257 0.51184 0.0
C399 C 0.98955 0.3057 0.52176 0.0
C400 C 0.88667 0.25266 0.56512 0.0
O401 O 0.94907 0.32723 0.54754 0.0
O402 O 0.90193 0.32309 0.5453 0.0
C403 C 0.88748 0.33699 0.50409 0.0
N404 N 0.86844 0.30658 0.50904 0.0
C405 C 0.83535 0.2989 0.48045 0.0
C406 C 0.85453 0.33015 0.47505 0.0
C407 C 0.88083 0.34922 0.48686 0.0
C408 C 0.84342 0.2879 0.49759 0.0
H409 H 0.90751 0.35183 0.51325 0.0
C410 C 0.93061 0.33783 0.55046 0.0
O411 O 0.98112 0.29248 0.5394 0.0
O412 O 0.96894 0.30884 0.51162 0.0
N413 N 0.83642 0.24847 0.51976 0.0
C414 C 0.82124 0.21851 0.52645 0.0
C415 C 0.79485 0.19621 0.51597 0.0
C416 C 0.78397 0.20509 0.49904 0.0
C417 C 0.79987 0.23612 0.49254 0.0
C418 C 0.82631 0.25718 0.50337 0.0
H419 H 0.82916 0.21172 0.5397 0.0
O420 O 0.92165 0.24718 0.51742 0.0
O421 O 0.90128 0.27763 0.5191 0.0
O422 O 0.91404 0.26098 0.55869 0.0
O423 O 0.86858 0.26039 0.55637 0.0
C424 C 0.7905 0.24702 0.47577 0.0
C425 C 0.80846 0.27826 0.46955 0.0
H426 H 0.84932 0.33974 0.46187 0.0
H427 H 0.89578 0.37336 0.48279 0.0
H428 H 0.78271 0.17231 0.52108 0.0
H429 H 0.76345 0.18788 0.49111 0.0
H430 H 0.76973 0.23145 0.46736 0.0
H431 H 0.80136 0.28617 0.45637 0.0
H432 H 0.0319 0.63298 0.06397 0.0
H433 H 0.01625 0.58032 0.07606 0.0
H434 H 0.10736 0.59506 0.06167 0.0
H435 H 0.1231 0.64697 0.04958 0.0
H436 H 0.05659 0.53709 0.04756 0.0
H437 H 0.04758 0.55961 0.12936 0.0
H438 H 0.02647 0.56897 0.11118 0.0
H439 H 0.06813 0.59095 0.11155 0.0
C440 C 0.04862 0.62503 0.06347 0.0
C441 C 0.07883 0.64442 0.05586 0.0
C442 C 0.03962 0.59494 0.07038 0.0
C443 C 0.06069 0.58384 0.06978 0.0
C444 C 0.09069 0.6031 0.06218 0.0
H445 H 0.11749 0.47432 0.12543 0.0
H446 H 0.10226 0.51034 0.11237 0.0
C447 C 0.09968 0.63295 0.05535 0.0
C448 C 0.05247 0.55248 0.07728 0.0
H449 H 0.04672 0.51333 0.12103 0.0
C450 C 0.05357 0.53141 0.06357 0.0
C451 C 0.04865 0.54529 0.09817 0.0
C452 C 0.04773 0.56732 0.11354 0.0
C453 C 0.05313 0.50435 0.07033 0.0
C454 C 0.05128 0.49816 0.09134 0.0
C455 C 0.04797 0.51811 0.10492 0.0
C456 C 0.05871 0.4749 0.09969 0.0
C457 C 0.05712 0.48389 0.05515 0.0
C458 C 0.03915 0.44275 0.09694 0.0
C459 C 0.04786 0.4217 0.10445 0.0
C460 C 0.07633 0.43259 0.11471 0.0
C461 C 0.09551 0.46486 0.1175 0.0
C462 C 0.08677 0.48564 0.11014 0.0
H463 H 0.06049 0.49322 0.03949 0.0
H464 H 0.07745 0.4814 0.0593 0.0
H465 H 0.03622 0.46036 0.05533 0.0
H466 H 0.01726 0.43399 0.08901 0.0
H467 H 0.03248 0.39704 0.10212 0.0
H468 H 0.66334 0.11397 0.26346 0.0
H469 H 0.61141 0.10014 0.25177 0.0
H470 H 0.57656 1.00568 0.27144 0.0
H471 H 0.62904 0.01936 0.28314 0.0
H472 H 0.56644 0.04595 0.22373 0.0
H473 H 0.52796 0.04597 0.30316 0.0
H474 H 0.56865 0.06706 0.29644 0.0
H475 H 0.54831 0.02543 0.29695 0.0
C476 C 0.64478 0.0901 0.26505 0.0
C477 C 0.65024 0.06777 0.27432 0.0
C478 C 0.61514 0.08224 0.25831 0.0
C479 C 0.59019 0.05199 0.26087 0.0
C480 C 0.5956 0.02919 0.26938 0.0
H481 H 0.40641 0.02308 0.22102 0.0
H482 H 0.4446 0.00819 0.23198 0.0
C483 C 0.62555 0.03698 0.27595 0.0
C484 C 0.55848 0.04563 0.25579 0.0
H485 H 0.49654 0.04733 0.27699 0.0
C486 C 0.55063 0.04525 0.23534 0.0
C487 C 0.5382 0.04515 0.27102 0.0
C488 C 0.54598 0.04596 0.29318 0.0
C489 C 0.52368 0.04595 0.22972 0.0
C490 C 0.50434 0.04726 0.24495 0.0
C491 C 0.51134 0.04603 0.26539 0.0
C492 C 0.47992 0.05496 0.23989 0.0
C493 C 0.51702 0.04743 0.20758 0.0
C494 C 0.48708 0.086 0.24108 0.0
C495 C 0.4656 0.09457 0.23476 0.0
C496 C 0.43631 0.07221 0.22725 0.0
C497 C 0.42869 0.04083 0.22682 0.0
C498 C 0.45046 0.03229 0.23299 0.0
H499 H 0.53378 0.04519 0.19756 0.0
H500 H 0.49315 0.02857 0.2039 0.0
H501 H 0.51812 0.06989 0.20432 0.0
H502 H 0.50972 0.1038 0.24637 0.0
H503 H 0.47222 0.11891 0.23544 0.0
H504 H 0.55417 0.65137 0.4252 0.0
H505 H 0.51838 0.59826 0.41442 0.0
H506 H 0.5774 0.56755 0.4416 0.0
H507 H 0.61372 0.62119 0.45252 0.0
H508 H 0.52605 0.55242 0.39108 0.0
H509 H 0.49113 0.51935 0.4716 0.0
H510 H 0.5124 0.55949 0.46372 0.0
H511 H 0.53168 0.53714 0.46502 0.0
C512 C 0.55992 0.63347 0.42856 0.0
C513 C 0.58665 0.64041 0.43983 0.0
C514 C 0.53946 0.60312 0.42235 0.0
C515 C 0.54504 0.57893 0.42741 0.0
C516 C 0.57259 0.58591 0.43768 0.0
H517 H 0.38942 0.3974 0.38545 0.0
H518 H 0.44326 0.4338 0.39599 0.0
C519 C 0.59339 0.61654 0.44376 0.0
C520 C 0.52029 0.54646 0.42335 0.0
H521 H 0.45887 0.48497 0.44657 0.0
C522 C 0.51183 0.53716 0.40318 0.0
C523 C 0.50164 0.52683 0.43922 0.0
C524 C 0.5094 0.53604 0.46115 0.0
C525 C 0.48419 0.50964 0.39843 0.0
C526 C 0.46463 0.49092 0.41429 0.0
C527 C 0.47407 0.49925 0.43446 0.0
C528 C 0.43211 0.46626 0.4103 0.0
C529 C 0.47483 0.50201 0.3765 0.0
C530 C 0.408 0.4719 0.41552 0.0
C531 C 0.37755 0.4514 0.40952 0.0
C532 C 0.3704 0.42456 0.39831 0.0
C533 C 0.39422 0.41781 0.39417 0.0
C534 C 0.42497 0.43866 0.40004 0.0
H535 H 0.49155 0.52025 0.36605 0.0
H536 H 0.47353 0.47967 0.37255 0.0
H537 H 0.45143 0.49919 0.37404 0.0
H538 H 0.41299 0.49302 0.42345 0.0
H539 H 0.35969 0.45716 0.41306 0.0
H540 H 0.91049 0.54235 0.62766 0.0
H541 H 0.92686 0.50646 0.61593 0.0
H542 H 1.00509 0.58111 0.58514 0.0
H543 H 0.98891 0.61793 0.59711 0.0
H544 H 0.96614 0.52502 0.56124 0.0
H545 H 1.00218 0.49733 0.63394 0.0
H546 H 0.96582 0.49678 0.63582 0.0
H547 H 1.00073 0.53263 0.63001 0.0
C548 C 0.93132 0.55145 0.6185 0.0
C549 C 0.94834 0.58317 0.61331 0.0
C550 C 0.94081 0.53081 0.61195 0.0
C551 C 0.96748 0.54119 0.59999 0.0
C552 C 0.98463 0.57275 0.59461 0.0
H553 H 0.99144 0.38332 0.55853 0.0
H554 H 0.00958 0.43707 0.56977 0.0
C555 C 0.97533 0.5937 0.60142 0.0
C556 C 0.97534 0.51798 0.59208 0.0
H557 H 0.98323 0.4569 0.6082 0.0
C558 C 0.97097 0.51075 0.57137 0.0
C559 C 0.98179 0.49945 0.60528 0.0
C560 C 0.98821 0.50711 0.62748 0.0
C561 C 0.96992 0.48375 0.5639 0.0
C562 C 0.97329 0.46361 0.57748 0.0
C563 C 0.98055 0.47233 0.59782 0.0
C564 C 0.96345 0.43121 0.57163 0.0
C565 C 0.96296 0.47568 0.54178 0.0
C566 C 0.93164 0.41016 0.56956 0.0
C567 C 0.92126 0.37974 0.5634 0.0
C568 C 0.94247 0.36947 0.55906 0.0
C569 C 0.97447 0.3904 0.56176 0.0
C570 C 0.98489 0.4211 0.56808 0.0
H571 H 0.96842 0.49647 0.53252 0.0
H572 H 0.97638 0.46495 0.53587 0.0
H573 H 0.93785 0.45856 0.53998 0.0
H574 H 0.91474 0.41745 0.57249 0.0
H575 H 0.89645 0.36443 0.56169 0.0
H576 H 0.61373 0.98874 0.71616 0.0
H577 H 0.57584 1.00368 0.72792 0.0
H578 H 0.52016 0.91284 0.75435 0.0
H579 H 0.55727 0.8977 0.74244 0.0
H580 H 0.50722 0.96457 0.71595 0.0
H581 H 0.52809 0.9786 0.79889 0.0
H582 H 0.55787 0.98391 0.78091 0.0
H583 H 0.52819 0.94545 0.78797 0.0
C584 C 0.59375 0.97229 0.72488 0.0
C585 C 0.58839 0.94207 0.72839 0.0
C586 C 0.57211 0.98078 0.73149 0.0
C587 C 0.54536 0.9594 0.74211 0.0
C588 C 0.54081 0.92977 0.74638 0.0
H589 H 0.35972 0.89671 0.76437 0.0
H590 H 0.41168 0.91084 0.7524 0.0
C591 C 0.56199 0.92113 0.7395 0.0
C592 C 0.52036 0.96632 0.74722 0.0
H593 H 0.47792 0.96816 0.78737 0.0
C594 C 0.50124 0.96623 0.73153 0.0
C595 C 0.51261 0.96843 0.76753 0.0
C596 C 0.53287 0.96937 0.78484 0.0
C597 C 0.47336 0.96597 0.73575 0.0
C598 C 0.46455 0.96589 0.75612 0.0
C599 C 0.48476 0.96822 0.77175 0.0
C600 C 0.43276 0.95898 0.76153 0.0
C601 C 0.4527 0.96424 0.71847 0.0
C602 C 0.42735 0.98153 0.77046 0.0
C603 C 0.39743 0.9736 0.77712 0.0
C604 C 0.37273 0.94283 0.77535 0.0
C605 C 0.37825 0.92058 0.766 0.0
C606 C 0.4079 0.92862 0.75909 0.0
H607 H 0.46565 0.97162 0.70392 0.0
H608 H 0.4335 0.93989 0.71678 0.0
H609 H 0.4422 0.97902 0.72158 0.0
H610 H 0.44636 1.00504 0.7726 0.0
H611 H 0.39393 0.99115 0.78443 0.0
H612 H 0.47373 0.35387 0.93947 0.0
H613 H 0.51088 0.40481 0.92606 0.0
H614 H 0.44347 0.4348 0.93266 0.0
H615 H 0.40559 0.38333 0.94618 0.0
H616 H 0.49847 0.43847 0.89025 0.0
H617 H 0.52903 0.49831 0.96523 0.0
H618 H 0.51402 0.45691 0.96359 0.0
H619 H 0.48896 0.47238 0.95839 0.0
C620 C 0.46657 0.37113 0.93803 0.0
C621 C 0.43664 0.36449 0.94399 0.0
C622 C 0.48788 0.40025 0.93032 0.0
C623 C 0.47995 0.42353 0.92852 0.0
C624 C 0.44999 0.41706 0.93405 0.0
H625 H 0.63649 0.60953 0.89446 0.0
H626 H 0.58328 0.57106 0.90495 0.0
C627 C 0.42839 0.38765 0.94166 0.0
C628 C 0.50376 0.45449 0.92106 0.0
H629 H 0.56315 0.52386 0.93801 0.0
C630 C 0.51213 0.45752 0.90056 0.0
C631 C 0.52142 0.47926 0.93456 0.0
C632 C 0.51311 0.47685 0.95672 0.0
C633 C 0.5389 0.48393 0.89344 0.0
C634 C 0.55806 0.50758 0.90727 0.0
C635 C 0.54843 0.50565 0.92747 0.0
C636 C 0.59014 0.53154 0.90167 0.0
C637 C 0.54736 0.48561 0.87134 0.0
C638 C 0.61167 0.52209 0.89695 0.0
C639 C 0.64181 0.54375 0.89112 0.0
C640 C 0.65135 0.57559 0.88988 0.0
C641 C 0.62995 0.58523 0.8952 0.0
C642 C 0.59956 0.56332 0.90115 0.0
H643 H 0.52647 0.47137 0.86186 0.0
H644 H 0.55916 0.50997 0.86578 0.0
H645 H 0.56347 0.47639 0.86936 0.0
H646 H 0.60505 0.49775 0.89767 0.0
H647 H 0.65752 0.53528 0.88734 0.0
H648 H 0.10755 0.31454 0.08581 0.0
H649 H 0.13482 0.30307 0.05916 0.0
H650 H 0.21066 0.39755 0.06175 0.0
H651 H 0.18371 0.40935 0.0881 0.0
H652 H 0.19412 0.37288 0.02146 0.0
H653 H 0.21198 0.29554 0.07408 0.0
H654 H 0.17247 0.28655 0.07031 0.0
H655 H 0.1995 0.32201 0.08281 0.0
C656 C 0.1298 0.33302 0.0805 0.0
C657 C 0.14352 0.3628 0.0893 0.0
C658 C 0.14542 0.32636 0.06532 0.0
C659 C 0.17496 0.34936 0.05867 0.0
C660 C 0.18793 0.37944 0.06668 0.0
H661 H 0.33207 0.34395 0.01268 0.0
H662 H 0.29403 0.35342 0.02979 0.0
C663 C 0.17247 0.38608 0.08184 0.0
C664 C 0.1936 0.34193 0.04448 0.0
H665 H 0.2343 0.30328 0.04175 0.0
C666 C 0.20262 0.35736 0.02574 0.0
C667 C 0.20497 0.32198 0.05025 0.0
C668 C 0.19701 0.30568 0.0705 0.0
C669 C 0.22312 0.35375 0.01277 0.0
C670 C 0.23478 0.33414 0.0187 0.0
C671 C 0.22522 0.31823 0.03722 0.0
C672 C 0.25866 0.33139 0.00675 0.0
C673 C 0.23318 0.37181 0.99321 0.0
C674 C 0.25169 0.31649 0.9878 0.0
C675 C 0.27355 0.31106 0.97788 0.0
C676 C 0.30263 0.32033 0.98682 0.0
C677 C 0.30991 0.33645 0.00535 0.0
C678 C 0.28815 0.34183 0.01521 0.0
H679 H 0.22568 0.38944 0.99224 0.0
H680 H 0.25886 0.38369 0.99162 0.0
H681 H 0.22286 0.35553 0.98027 0.0
H682 H 0.22894 0.30796 0.9811 0.0
H683 H 0.26715 0.29838 0.9637 0.0
H684 H 0.7803 0.17411 0.25058 0.0
H685 H 0.81924 0.2002 0.22434 0.0
H686 H 0.83906 0.12498 0.22416 0.0
H687 H 0.80004 0.09856 0.25081 0.0
H688 H 0.89153 0.18244 0.22824 0.0
H689 H 0.82151 0.18515 0.16399 0.0
H690 H 0.81348 0.19917 0.18696 0.0
H691 H 0.8044 0.15931 0.18533 0.0
C692 C 0.79252 0.16274 0.24482 0.0
C693 C 0.78699 0.13417 0.25291 0.0
C694 C 0.81466 0.17765 0.22962 0.0
C695 C 0.83178 0.16438 0.22202 0.0
C696 C 0.8259 0.13552 0.22967 0.0
H697 H 0.97811 0.26188 0.12955 0.0
H698 H 0.93051 0.22188 0.1462 0.0
C699 C 0.80354 0.12041 0.24488 0.0
C700 C 0.85782 0.18237 0.20767 0.0
H701 H 0.87623 0.22368 0.16342 0.0
C702 C 0.88811 0.19097 0.2139 0.0
C703 C 0.85342 0.19334 0.18885 0.0
C704 C 0.8214 0.1835 0.18078 0.0
C705 C 0.91412 0.21159 0.2024 0.0
C706 C 0.90979 0.22423 0.1843 0.0
C707 C 0.87951 0.21429 0.17744 0.0
C708 C 0.9366 0.2492 0.17313 0.0
C709 C 0.94614 0.22023 0.20994 0.0
C710 C 0.95504 0.27815 0.1824 0.0
C711 C 0.98199 0.30096 0.17295 0.0
C712 C 0.9911 0.29536 0.15396 0.0
C713 C 0.97171 0.26693 0.14416 0.0
C714 C 0.94459 0.24402 0.15367 0.0
H715 H 0.94533 0.20274 0.2208 0.0
H716 H 0.9617 0.22253 0.19716 0.0
H717 H 0.95639 0.24294 0.21788 0.0
H718 H 0.94899 0.28281 0.19726 0.0
H719 H 0.99624 0.32263 0.18089 0.0
H720 H 0.60414 0.77208 0.41662 0.0
H721 H 0.61823 0.81147 0.39053 0.0
H722 H 0.71312 0.83093 0.39229 0.0
H723 H 0.69927 0.79148 0.41878 0.0
H724 H 0.70809 0.88356 0.39571 0.0
H725 H 0.63811 0.81363 0.33054 0.0
H726 H 0.6152 0.80581 0.35311 0.0
H727 H 0.6459 0.7965 0.35229 0.0
C728 C 0.62797 0.78434 0.41133 0.0
C729 C 0.65057 0.77852 0.4199 0.0
C730 C 0.63593 0.80674 0.39622 0.0
C731 C 0.66662 0.82386 0.38918 0.0
C732 C 0.6892 0.81779 0.39736 0.0
H733 H 0.72066 0.96925 0.29541 0.0
H734 H 0.71186 0.92177 0.3129 0.0
C735 C 0.68123 0.79518 0.41248 0.0
C736 C 0.67535 0.84993 0.37473 0.0
H737 H 0.65499 0.86842 0.3295 0.0
C738 C 0.69686 0.88017 0.38109 0.0
C739 C 0.66094 0.84557 0.35555 0.0
C740 C 0.63899 0.81358 0.34736 0.0
C741 C 0.70308 0.90619 0.3693 0.0
C742 C 0.68711 0.90193 0.35076 0.0
C743 C 0.6669 0.87166 0.34384 0.0
C744 C 0.6899 0.92879 0.33911 0.0
C745 C 0.72629 0.93815 0.37698 0.0
C746 C 0.6794 0.94773 0.3477 0.0
C747 C 0.68422 0.9746 0.33777 0.0
C748 C 0.6996 0.98315 0.31897 0.0
C749 C 0.70871 0.9633 0.30986 0.0
C750 C 0.70381 0.93625 0.31985 0.0
H751 H 0.74232 0.9372 0.38833 0.0
H752 H 0.74027 0.95356 0.36433 0.0
H753 H 0.71366 0.94869 0.38436 0.0
H754 H 0.66812 0.9421 0.36237 0.0
H755 H 0.67673 0.98922 0.34519 0.0
H756 H 0.75211 0.71941 0.46512 0.0
H757 H 0.7915 0.71137 0.48214 0.0
H758 H 0.72841 0.66658 0.53192 0.0
H759 H 0.68923 0.67478 0.51521 0.0
H760 H 0.78697 0.71345 0.54406 0.0
H761 H 0.79621 0.6317 0.49074 0.0
H762 H 0.80071 0.66683 0.47972 0.0
H763 H 0.76391 0.63881 0.4903 0.0
C764 C 0.74648 0.70741 0.47955 0.0
C765 C 0.71751 0.69772 0.4888 0.0
C766 C 0.769 0.70278 0.48923 0.0
C767 C 0.76286 0.68821 0.50827 0.0
C768 C 0.73368 0.67788 0.51725 0.0
H769 H 0.84381 0.60749 0.58238 0.0
H770 H 0.81577 0.62022 0.55742 0.0
C771 C 0.71125 0.68251 0.50763 0.0
C772 C 0.78712 0.68504 0.51949 0.0
H773 H 0.83005 0.64851 0.51891 0.0
C774 C 0.7966 0.69946 0.5385 0.0
C775 C 0.79953 0.66666 0.51223 0.0
C776 C 0.78948 0.64987 0.49221 0.0
C777 C 0.81758 0.69548 0.55065 0.0
C778 C 0.82991 0.67698 0.54347 0.0
C779 C 0.82088 0.66299 0.52428 0.0
C780 C 0.84953 0.66931 0.55657 0.0
C781 C 0.8253 0.70999 0.57147 0.0
C782 C 0.87851 0.69253 0.56389 0.0
C783 C 0.89476 0.68532 0.57829 0.0
C784 C 0.88225 0.65475 0.5856 0.0
C785 C 0.8541 0.63134 0.57727 0.0
C786 C 0.838 0.63854 0.56291 0.0
H787 H 0.80936 0.71852 0.57617 0.0
H788 H 0.82406 0.69304 0.58293 0.0
H789 H 0.84936 0.73006 0.57145 0.0
H790 H 0.88809 0.71638 0.55895 0.0
H791 H 0.91635 0.70393 0.58433 0.0
H792 H 0.04592 0.75361 0.62882 0.0
H793 H 0.09331 0.79256 0.64613 0.0
H794 H 0.07316 0.72944 0.69613 0.0
H795 H 0.02596 0.69073 0.67913 0.0
H796 H 0.08385 0.78879 0.70747 0.0
H797 H 0.1774 0.79632 0.65719 0.0
H798 H 0.14691 0.80019 0.64527 0.0
H799 H 0.13817 0.76379 0.65648 0.0
C800 C 0.05197 0.74782 0.64331 0.0
C801 C 0.03214 0.71907 0.6526 0.0
C802 C 0.07905 0.77011 0.65318 0.0
C803 C 0.08679 0.76389 0.67242 0.0
C804 C 0.06761 0.73478 0.68132 0.0
H805 H 0.24194 0.83826 0.75095 0.0
H806 H 0.20231 0.81213 0.72509 0.0
C807 C 0.04066 0.71261 0.67152 0.0
C808 C 0.11366 0.78806 0.68406 0.0
H809 H 0.19306 0.8289 0.6859 0.0
C810 C 0.10774 0.79785 0.70266 0.0
C811 C 0.14478 0.79974 0.67777 0.0
C812 C 0.15243 0.78942 0.65816 0.0
C813 C 0.13205 0.81826 0.71544 0.0
C814 C 0.16321 0.82959 0.70933 0.0
C815 C 0.16916 0.82045 0.69046 0.0
C816 C 0.18964 0.84787 0.72334 0.0
C817 C 0.12416 0.82627 0.73584 0.0
C818 C 0.19641 0.87723 0.73061 0.0
C819 C 0.21923 0.8924 0.74555 0.0
C820 C 0.23561 0.87841 0.75348 0.0
C821 C 0.22967 0.84969 0.74539 0.0
C822 C 0.20705 0.83469 0.73049 0.0
H823 H 0.09916 0.81134 0.73967 0.0
H824 H 0.13828 0.82379 0.74796 0.0
H825 H 0.12954 0.85081 0.73571 0.0
H826 H 0.18353 0.88804 0.72508 0.0
H827 H 0.22322 0.91449 0.75138 0.0
H828 H 0.34554 0.02263 0.8463 0.0
H829 H 0.35207 0.06886 0.8637 0.0
H830 H 0.30976 0.08905 0.81333 0.0
H831 H 0.30309 0.04252 0.79564 0.0
H832 H 0.36455 0.14277 0.83116 0.0
H833 H 0.27529 0.07054 0.8881 0.0
H834 H 0.30508 0.06042 0.88477 0.0
H835 H 0.27923 0.05519 0.86416 0.0
C836 C 0.33799 0.03707 0.83873 0.0
C837 C 0.32358 0.02873 0.81961 0.0
C838 C 0.34158 0.06342 0.84878 0.0
C839 C 0.3308 0.082 0.84 0.0
C840 C 0.31799 0.07483 0.82044 0.0
H841 H 0.31385 0.21487 0.92024 0.0
H842 H 0.30171 0.17656 0.89312 0.0
C843 C 0.31432 0.04832 0.81032 0.0
C844 C 0.33209 0.10815 0.85174 0.0
H845 H 0.30787 0.12421 0.89627 0.0
C846 C 0.35185 0.13877 0.84525 0.0
C847 C 0.31506 0.10289 0.86993 0.0
C848 C 0.29222 0.07049 0.87711 0.0
C849 C 0.35638 0.16427 0.85709 0.0
C850 C 0.34097 0.15895 0.87599 0.0
C851 C 0.31985 0.12834 0.88187 0.0
C852 C 0.34859 0.18442 0.89075 0.0
C853 C 0.37799 0.19668 0.84941 0.0
C854 C 0.37891 0.20158 0.89839 0.0
C855 C 0.38584 0.22326 0.91385 0.0
C856 C 0.3626 0.22832 0.92217 0.0
C857 C 0.33234 0.21172 0.91412 0.0
C858 C 0.32536 0.18977 0.89866 0.0
H859 H 0.37959 0.19714 0.83261 0.0
H860 H 0.37023 0.21312 0.85432 0.0
H861 H 0.40165 0.20489 0.85554 0.0
H862 H 0.39708 0.19741 0.8929 0.0
H863 H 0.40942 0.23556 0.9196 0.0
H864 H 0.70551 0.73793 0.87539 0.0
H865 H 0.69252 0.77437 0.85884 0.0
H866 H 0.67917 0.7259 0.80221 0.0
H867 H 0.69075 0.68909 0.81864 0.0
H868 H 0.7206 0.81475 0.82903 0.0
H869 H 0.602 0.73123 0.8033 0.0
H870 H 0.62254 0.72062 0.82121 0.0
H871 H 0.62874 0.71962 0.79435 0.0
C872 C 0.69918 0.73474 0.85951 0.0
C873 C 0.6988 0.71036 0.84841 0.0
C874 C 0.69193 0.75567 0.85004 0.0
C875 C 0.68423 0.75259 0.82932 0.0
C876 C 0.684 0.72829 0.81831 0.0
H877 H 0.70443 0.89047 0.74163 0.0
H878 H 0.71325 0.8604 0.76752 0.0
C879 C 0.69082 0.70726 0.82776 0.0
C880 C 0.67785 0.77537 0.81877 0.0
H881 H 0.62812 0.77969 0.785 0.0
C882 C 0.70011 0.80717 0.81966 0.0
C883 C 0.65086 0.76572 0.80683 0.0
C884 C 0.62456 0.73247 0.80656 0.0
C885 C 0.6968 0.8293 0.80824 0.0
C886 C 0.67102 0.81926 0.79502 0.0
C887 C 0.64816 0.7876 0.79485 0.0
C888 C 0.6673 0.84064 0.78084 0.0
C889 C 0.72087 0.86317 0.81067 0.0
C890 C 0.63849 0.83953 0.77939 0.0
C891 C 0.63318 0.85593 0.76419 0.0
C892 C 0.65675 0.87439 0.75035 0.0
C893 C 0.68606 0.87687 0.75235 0.0
C894 C 0.69115 0.85977 0.76726 0.0
H895 H 0.73159 0.86786 0.82598 0.0
H896 H 0.73971 0.86942 0.79943 0.0
H897 H 0.71071 0.87842 0.8083 0.0
H898 H 0.61967 0.82508 0.78961 0.0
H899 H 0.61034 0.85358 0.76295 0.0
H900 H 0.80101 0.69998 0.91888 0.0
H901 H 0.84043 0.71293 0.94533 0.0
H902 H 0.81773 0.61708 0.94763 0.0
H903 H 0.77828 0.6039 0.92167 0.0
H904 H 0.8298 0.64527 0.98601 0.0
H905 H 0.92235 0.71604 0.92999 0.0
H906 H 0.89342 0.72714 0.93415 0.0
H907 H 0.88255 0.69035 0.92259 0.0
C908 C 0.80397 0.68157 0.92534 0.0
C909 C 0.7867 0.65097 0.91794 0.0
C910 C 0.82666 0.68904 0.94034 0.0
C911 C 0.8324 0.66605 0.94819 0.0
C912 C 0.81383 0.63523 0.94175 0.0
H913 H 0.99613 0.66995 0.99032 0.0
H914 H 0.9484 0.66145 0.97402 0.0
C915 C 0.79132 0.62778 0.9268 0.0
C916 C 0.85919 0.67394 0.96181 0.0
H917 H 0.93849 0.70988 0.96217 0.0
C918 C 0.85361 0.65974 0.98095 0.0
C919 C 0.89021 0.69244 0.95502 0.0
C920 C 0.89769 0.70724 0.93428 0.0
C921 C 0.87819 0.663 0.99329 0.0
C922 C 0.90915 0.68116 0.98635 0.0
C923 C 0.91473 0.696 0.96746 0.0
C924 C 0.93613 0.68355 0.99768 0.0
C925 C 0.87084 0.64594 0.01323 0.0
C926 C 0.94478 0.69817 0.01669 0.0
C927 C 0.97212 0.70292 0.02617 0.0
C928 C 0.99134 0.69333 0.01669 0.0
C929 C 0.9819 0.67764 0.99805 0.0
C930 C 0.95465 0.67285 0.98865 0.0
H931 H 0.84579 0.62829 0.01459 0.0
H932 H 0.88476 0.63421 0.01509 0.0
H933 H 0.87696 0.66285 0.0258 0.0
H934 H 0.93108 0.70698 0.02383 0.0
H935 H 0.97888 0.71532 0.04044 0.0
H936 H 0.32503 1.00271 0.15103 0.0
H937 H 0.28834 0.95522 0.13369 0.0
H938 H 0.24284 0.91533 0.19052 0.0
H939 H 0.27887 0.96394 0.20794 0.0
H940 H 0.27666 0.89906 0.13526 0.0
H941 H 0.16894 0.89895 0.15779 0.0
H942 H 0.20712 0.93134 0.16287 0.0
H943 H 0.19093 0.8975 0.17889 0.0
C944 C 0.30733 0.98384 0.15993 0.0
C945 C 0.30483 0.98718 0.18089 0.0
C946 C 0.28625 0.9566 0.14995 0.0
C947 C 0.26229 0.93172 0.16064 0.0
C948 C 0.26045 0.93446 0.18176 0.0
H949 H 0.16492 0.75635 0.09318 0.0
H950 H 0.19433 0.79483 0.11937 0.0
C951 C 0.2813 0.96211 0.19177 0.0
C952 C 0.23978 0.9032 0.14936 0.0
H953 H 0.1626 0.85582 0.13871 0.0
C954 C 0.25171 0.88961 0.13607 0.0
C955 C 0.20717 0.89101 0.15015 0.0
C956 C 0.19274 0.9056 0.16303 0.0
C957 C 0.23228 0.8649 0.12325 0.0
C958 C 0.1996 0.85212 0.12441 0.0
C959 C 0.18755 0.8653 0.13796 0.0
C960 C 0.17785 0.82626 0.11089 0.0
C961 C 0.24729 0.85395 0.10788 0.0
C962 C 0.15675 0.82974 0.09846 0.0
C963 C 0.13899 0.80711 0.08397 0.0
C964 C 0.14238 0.78087 0.08148 0.0
C965 C 0.16212 0.77655 0.09467 0.0
C966 C 0.17919 0.79871 0.10949 0.0
H967 H 0.27181 0.87199 0.10486 0.0
H968 H 0.24742 0.83313 0.11385 0.0
H969 H 0.23447 0.84777 0.09329 0.0
H970 H 0.15505 0.85063 0.09932 0.0
H971 H 0.1241 0.81109 0.0739 0.0
H972 H 0.40503 0.15236 0.26568 0.0
H973 H 0.39376 0.1801 0.29191 0.0
H974 H 0.30153 0.14458 0.26734 0.0
H975 H 0.31228 0.11527 0.24188 0.0
H976 H 0.38534 0.22541 0.28609 0.0
H977 H 0.27986 0.13705 0.32535 0.0
H978 H 0.30181 0.12659 0.30851 0.0
H979 H 0.27331 0.13552 0.29858 0.0
C980 C 0.382 0.14967 0.26636 0.0
C981 C 0.3594 0.13143 0.25193 0.0
C982 C 0.3756 0.16568 0.28127 0.0
C983 C 0.34667 0.16441 0.28184 0.0
C984 C 0.32369 0.14534 0.26775 0.0
H985 H 0.32295 0.31705 0.31905 0.0
H986 H 0.33351 0.27967 0.30225 0.0
C987 C 0.32986 0.12863 0.25312 0.0
C988 C 0.34207 0.18577 0.29553 0.0
H989 H 0.29088 0.19012 0.32821 0.0
C990 C 0.36484 0.21746 0.29552 0.0
C991 C 0.31564 0.17567 0.30815 0.0
C992 C 0.29148 0.14179 0.31033 0.0
C993 C 0.36155 0.2393 0.30716 0.0
C994 C 0.33405 0.22957 0.31858 0.0
C995 C 0.31176 0.19776 0.31923 0.0
C996 C 0.3275 0.25224 0.32914 0.0
C997 C 0.38784 0.27257 0.30717 0.0
C998 C 0.31942 0.24882 0.34979 0.0
C999 C 0.31273 0.27002 0.35944 0.0
C1000 C 0.31412 0.29507 0.3486 0.0
C1001 C 0.32216 0.29835 0.32796 0.0
C1002 C 0.32839 0.27701 0.31832 0.0
H1003 H 0.4105 0.27391 0.30414 0.0
H1004 H 0.38392 0.28557 0.29495 0.0
H1005 H 0.38946 0.2842 0.32185 0.0
H1006 H 0.31832 0.22978 0.35846 0.0
H1007 H 0.30637 0.26673 0.37531 0.0
H1008 H 0.25656 0.40443 0.43354 0.0
H1009 H 0.21635 0.39359 0.45877 0.0
H1010 H 0.16073 0.30115 0.43434 0.0
H1011 H 0.20186 0.31148 0.40985 0.0
H1012 H 0.16264 0.38497 0.45161 0.0
H1013 H 0.14475 0.28032 0.49245 0.0
H1014 H 0.17772 0.30215 0.47605 0.0
H1015 H 0.14078 0.27346 0.46569 0.0
C1016 C 0.23615 0.38147 0.434 0.0
C1017 C 0.23242 0.3587 0.41987 0.0
C1018 C 0.21307 0.37531 0.44836 0.0
C1019 C 0.1854 0.34643 0.44869 0.0
C1020 C 0.1821 0.3233 0.43492 0.0
H1021 H 1.00756 0.32251 0.48271 0.0
H1022 H 0.05602 0.33313 0.46662 0.0
C1023 C 0.2056 0.32923 0.42084 0.0
C1024 C 0.15895 0.34199 0.46181 0.0
H1025 H 0.10267 0.2914 0.49427 0.0
C1026 C 0.14989 0.36466 0.46115 0.0
C1027 C 0.14235 0.31581 0.47457 0.0
C1028 C 0.15214 0.29176 0.47741 0.0
C1029 C 0.12439 0.36152 0.47229 0.0
C1030 C 0.10644 0.33429 0.48388 0.0
C1031 C 0.11606 0.31208 0.48516 0.0
C1032 C 0.07697 0.32791 0.49402 0.0
C1033 C 0.11723 0.3877 0.47162 0.0
C1034 C 0.07193 0.32034 0.51473 0.0
C1035 C 0.04378 0.31364 0.52396 0.0
C1036 C 0.02021 0.3145 0.51266 0.0
C1037 C 0.02538 0.32212 0.49197 0.0
C1038 C 0.05324 0.32838 0.48273 0.0
H1039 H 0.13852 0.41033 0.46853 0.0
H1040 H 0.10055 0.38339 0.45915 0.0
H1041 H 0.10686 0.38966 0.48606 0.0
H1042 H 0.08977 0.31958 0.52375 0.0
H1043 H 0.04041 0.30761 0.53989 0.0
H1044 H 0.91033 0.21917 0.58378 0.0
H1045 H 0.88482 0.17866 0.60965 0.0
H1046 H 0.80809 0.19617 0.61162 0.0
H1047 H 0.83333 0.23668 0.58614 0.0
H1048 H 0.82582 0.18564 0.65025 0.0
H1049 H 0.8086 0.09443 0.59434 0.0
H1050 H 0.84802 0.12498 0.5982 0.0
H1051 H 0.8204 0.13374 0.58688 0.0
C1052 C 0.88828 0.21477 0.58996 0.0
C1053 C 0.8738 0.23106 0.58267 0.0
C1054 C 0.87364 0.19146 0.60466 0.0
C1055 C 0.84431 0.18405 0.61233 0.0
C1056 C 0.83065 0.20139 0.60588 0.0
H1057 H 0.69065 0.01692 0.65653 0.0
H1058 H 0.72804 0.06477 0.63953 0.0
C1059 C 0.84515 0.22453 0.59121 0.0
C1060 C 0.82658 0.15702 0.62601 0.0
H1061 H 0.78748 0.07763 0.62677 0.0
C1062 C 0.81773 0.16201 0.64526 0.0
C1063 C 0.81571 0.1262 0.61933 0.0
C1064 C 0.82339 0.1193 0.59852 0.0
C1065 C 0.79784 0.13699 0.65783 0.0
C1066 C 0.78671 0.10621 0.65102 0.0
C1067 C 0.79614 0.10126 0.63199 0.0
C1068 C 0.76346 0.07867 0.66261 0.0
C1069 C 0.78783 0.1436 0.67792 0.0
C1070 C 0.7707 0.07077 0.68148 0.0
C1071 C 0.7492 0.04329 0.69135 0.0
C1072 C 0.72018 0.02322 0.68243 0.0
C1073 C 0.71275 0.03178 0.66385 0.0
C1074 C 0.73416 0.05912 0.65405 0.0
H1075 H 0.79402 0.16833 0.67935 0.0
H1076 H 0.76232 0.12867 0.67996 0.0
H1077 H 0.79946 0.13823 0.69034 0.0
H1078 H 0.79333 0.0853 0.68825 0.0
H1079 H 0.75571 0.03724 0.70556 0.0
H1080 H 0.28118 0.392 0.31579 0.0
H1081 H 0.25508 0.39215 0.28438 0.0
H1082 H 0.16637 0.32769 0.31086 0.0
H1083 H 0.19264 0.32746 0.34233 0.0
H1084 H 0.17497 0.30868 0.27357 0.0
H1085 H 0.20326 0.43173 0.26943 0.0
H1086 H 0.23568 0.42648 0.27532 0.0
H1087 H 0.20355 0.41295 0.29274 0.0
C1088 C 0.25603 0.3788 0.31512 0.0
C1089 C 0.23874 0.36052 0.33162 0.0
C1090 C 0.24113 0.37875 0.29715 0.0
C1091 C 0.2087 0.36026 0.29535 0.0
C1092 C 0.19138 0.34227 0.31196 0.0
H1093 H 0.10511 0.37566 0.19488 0.0
H1094 H 0.12741 0.3757 0.22784 0.0
C1095 C 0.20632 0.34226 0.32992 0.0
C1096 C 0.19318 0.35807 0.27572 0.0
H1097 H 0.1825 0.4015 0.24019 0.0
C1098 C 0.17656 0.32896 0.26622 0.0
C1099 C 0.1948 0.38437 0.26632 0.0
C1100 C 0.21005 0.41567 0.27649 0.0
C1101 C 0.16192 0.32559 0.24741 0.0
C1102 C 0.16483 0.35227 0.23756 0.0
C1103 C 0.18096 0.38119 0.24734 0.0
C1104 C 0.15049 0.3509 0.21753 0.0
C1105 C 0.14273 0.29335 0.2387 0.0
C1106 C 0.15597 0.337 0.20062 0.0
C1107 C 0.14256 0.33636 0.18184 0.0
C1108 C 0.12474 0.35089 0.17952 0.0
C1109 C 0.11939 0.36489 0.1963 0.0
C1110 C 0.13206 0.36484 0.21512 0.0
H1111 H 0.13467 0.27531 0.25073 0.0
H1112 H 0.12208 0.2908 0.23048 0.0
H1113 H 0.15721 0.28881 0.22796 0.0
H1114 H 0.17086 0.32694 0.20187 0.0
H1115 H 0.14668 0.32522 0.16904 0.0
H1116 H 0.88997 0.27742 0.47804 0.0
H1117 H 0.86427 0.25028 0.4468 0.0
H1118 H 0.8422 0.16277 0.47428 0.0
H1119 H 0.86835 0.19015 0.50557 0.0
H1120 H 0.86868 0.16996 0.43718 0.0
H1121 H 0.77354 0.19761 0.4319 0.0
H1122 H 0.81098 0.23043 0.43753 0.0
H1123 H 0.7928 0.19871 0.4553 0.0
C1124 C 0.87868 0.25229 0.47761 0.0
C1125 C 0.88018 0.23568 0.49435 0.0
C1126 C 0.8641 0.23679 0.45973 0.0
C1127 C 0.85082 0.20439 0.45828 0.0
C1128 C 0.8521 0.18774 0.4751 0.0
H1129 H 0.73242 0.0988 0.35798 0.0
H1130 H 0.7543 0.12179 0.39088 0.0
C1131 C 0.86685 0.2033 0.49296 0.0
C1132 C 0.83748 0.18825 0.43879 0.0
H1133 H 0.78356 0.17682 0.40288 0.0
C1134 C 0.85 0.17136 0.42965 0.0
C1135 C 0.81278 0.18959 0.42915 0.0
C1136 C 0.79646 0.20483 0.43899 0.0
C1137 C 0.83878 0.15623 0.41097 0.0
C1138 C 0.8151 0.15898 0.40083 0.0
C1139 C 0.80227 0.17537 0.41025 0.0
C1140 C 0.8023 0.14427 0.38086 0.0
C1141 C 0.85182 0.13674 0.40271 0.0
C1142 C 0.82185 0.14921 0.36414 0.0
C1143 C 0.80927 0.13538 0.34542 0.0
C1144 C 0.77696 0.11773 0.34294 0.0
C1145 C 0.75743 0.11297 0.35951 0.0
C1146 C 0.76995 0.12603 0.3783 0.0
H1147 H 0.86154 0.12881 0.41499 0.0
H1148 H 0.83379 0.11598 0.39455 0.0
H1149 H 0.871 0.15093 0.39202 0.0
H1150 H 0.84678 0.16396 0.36548 0.0
H1151 H 0.82467 0.13901 0.33279 0.0
H1152 H 0.68755 0.86581 0.67034 0.0
H1153 H 0.68399 0.83951 0.63808 0.0
H1154 H 0.63205 0.87967 0.6123 0.0
H1155 H 0.63424 0.90438 0.64475 0.0
H1156 H 0.60697 0.82309 0.60109 0.0
H1157 H 0.73351 0.87607 0.58819 0.0
H1158 H 0.72161 0.8545 0.6114 0.0
H1159 H 0.71777 0.8885 0.60839 0.0
C1160 C 0.67521 0.86867 0.65775 0.0
C1161 C 0.66054 0.88638 0.66 0.0
C1162 C 0.6735 0.85402 0.63928 0.0
C1163 C 0.6583 0.85809 0.62256 0.0
C1164 C 0.64393 0.87613 0.6249 0.0
H1165 H 0.68115 0.81643 0.49775 0.0
H1166 H 0.68022 0.842 0.52937 0.0
C1167 C 0.64507 0.89015 0.64343 0.0
C1168 C 0.65667 0.8432 0.6027 0.0
H1169 H 0.70049 0.83493 0.56593 0.0
C1170 C 0.62744 0.82559 0.59351 0.0
C1171 C 0.68347 0.84725 0.59237 0.0
C1172 C 0.71587 0.86788 0.60049 0.0
C1173 C 0.62416 0.81158 0.57455 0.0
C1174 C 0.65072 0.81448 0.56462 0.0
C1175 C 0.68005 0.8324 0.57364 0.0
C1176 C 0.64869 0.79921 0.54486 0.0
C1177 C 0.59248 0.79496 0.56491 0.0
C1178 C 0.63103 0.76673 0.54296 0.0
C1179 C 0.63131 0.75223 0.52486 0.0
C1180 C 0.6492 0.76994 0.50835 0.0
C1181 C 0.66668 0.8024 0.51017 0.0
C1182 C 0.66626 0.81694 0.52822 0.0
H1183 H 0.57593 0.80079 0.57233 0.0
H1184 H 0.59433 0.80128 0.54867 0.0
H1185 H 0.58278 0.76948 0.56612 0.0
H1186 H 0.61804 0.75246 0.55573 0.0
H1187 H 0.61866 0.72708 0.52408 0.0
H1188 H 0.90562 0.63205 0.69035 0.0
H1189 H 0.87976 0.63163 0.72181 0.0
H1190 H 0.86551 0.70488 0.69852 0.0
H1191 H 0.88805 0.70231 0.66601 0.0
H1192 H 0.89409 0.67015 0.74901 0.0
H1193 H 0.78207 0.6527 0.71986 0.0
H1194 H 0.81013 0.65078 0.70361 0.0
H1195 H 0.81397 0.6878 0.71005 0.0
C1196 C 0.89547 0.64686 0.69163 0.0
C1197 C 0.89683 0.66565 0.67538 0.0
C1198 C 0.88134 0.6472 0.70979 0.0
C1199 C 0.86974 0.66762 0.71251 0.0
C1200 C 0.87282 0.68784 0.69659 0.0
H1201 H 0.82975 0.69974 0.83753 0.0
H1202 H 0.8558 0.70374 0.80518 0.0
C1203 C 0.88597 0.68661 0.67809 0.0
C1204 C 0.85591 0.66849 0.73237 0.0
H1205 H 0.79328 0.6675 0.75447 0.0
C1206 C 0.87181 0.66916 0.75016 0.0
C1207 C 0.82686 0.66726 0.73404 0.0
C1208 C 0.80715 0.66428 0.71586 0.0
C1209 C 0.85924 0.66774 0.76943 0.0
C1210 C 0.83064 0.66744 0.7711 0.0
C1211 C 0.81517 0.66766 0.75332 0.0
C1212 C 0.81544 0.66549 0.79093 0.0
C1213 C 0.87637 0.66537 0.7876 0.0
C1214 C 0.78369 0.64391 0.79347 0.0
C1215 C 0.76862 0.64271 0.81154 0.0
C1216 C 0.78524 0.66182 0.82788 0.0
C1217 C 0.8168 0.68383 0.82537 0.0
C1218 C 0.83173 0.68588 0.80696 0.0
H1219 H 0.89089 0.65492 0.78351 0.0
H1220 H 0.89213 0.68901 0.79362 0.0
H1221 H 0.86008 0.65113 0.79974 0.0
H1222 H 0.77033 0.62815 0.78135 0.0
H1223 H 0.7438 0.62703 0.81265 0.0
H1224 H 0.19851 0.88541 0.83346 0.0
H1225 H 0.17311 0.86195 0.86567 0.0
H1226 H 0.26032 0.87522 0.88887 0.0
H1227 H 0.28612 0.90208 0.85769 0.0
H1228 H 0.16078 0.81398 0.88387 0.0
H1229 H 0.23921 0.9081 0.93541 0.0
H1230 H 0.24234 0.91276 0.90833 0.0
H1231 H 0.26095 0.89448 0.92147 0.0
C1232 C 0.21212 0.88335 0.84556 0.0
C1233 C 0.24392 0.89423 0.84291 0.0
C1234 C 0.19766 0.86989 0.86394 0.0
C1235 C 0.21477 0.86703 0.87997 0.0
C1236 C 0.24663 0.8779 0.87714 0.0
H1237 H 0.11705 0.73353 0.97645 0.0
H1238 H 0.14363 0.75952 0.94526 0.0
C1239 C 0.26123 0.89237 0.85906 0.0
C1240 C 0.19908 0.85209 0.89936 0.0
H1241 H 0.20656 0.8585 0.95081 0.0
C1242 C 0.1706 0.82407 0.89849 0.0
C1243 C 0.21145 0.86529 0.91857 0.0
C1244 C 0.23996 0.89698 0.92097 0.0
C1245 C 0.15421 0.80899 0.91611 0.0
C1246 C 0.16774 0.82097 0.93531 0.0
C1247 C 0.19621 0.84899 0.93619 0.0
C1248 C 0.15277 0.80519 0.95467 0.0
C1249 C 0.1221 0.78107 0.91374 0.0
C1250 C 0.15046 0.82226 0.97095 0.0
C1251 C 0.13702 0.80762 0.98929 0.0
C1252 C 0.12572 0.77571 0.99166 0.0
C1253 C 0.12702 0.75847 0.97526 0.0
C1254 C 0.14138 0.7732 0.9572 0.0
H1255 H 0.11101 0.7824 0.89943 0.0
H1256 H 0.12389 0.7597 0.91296 0.0
H1257 H 0.10663 0.77896 0.92652 0.0
H1258 H 0.15884 0.84692 0.96944 0.0
H1259 H 0.13542 0.82118 1.00161 0.0
H1260 H 0.31831 0.13027 0.17109 0.0
H1261 H 0.31655 0.15423 0.13902 0.0
H1262 H 0.39231 0.14356 0.11623 0.0
H1263 H 0.39131 0.11638 0.14724 0.0
H1264 H 0.35207 0.20289 0.12057 0.0
H1265 H 0.33764 0.10813 0.06996 0.0
H1266 H 0.33617 0.10408 0.09709 0.0
H1267 H 0.37304 0.12258 0.08396 0.0
C1268 C 0.33447 0.13309 0.15913 0.0
C1269 C 0.35582 0.12273 0.16182 0.0
C1270 C 0.33356 0.14682 0.14084 0.0
C1271 C 0.35399 0.15037 0.12494 0.0
C1272 C 0.3756 0.14031 0.12787 0.0
H1273 H 0.38747 0.28048 0.02661 0.0
H1274 H 0.38849 0.25575 0.0583 0.0
C1275 C 0.37572 0.12563 0.14585 0.0
C1276 C 0.35279 0.16477 0.10544 0.0
H1277 H 0.3532 0.15705 0.05407 0.0
C1278 C 0.35184 0.19256 0.10604 0.0
C1279 C 0.35195 0.15117 0.08638 0.0
C1280 C 0.34938 0.11968 0.08433 0.0
C1281 C 0.35013 0.2071 0.08825 0.0
C1282 C 0.35154 0.19468 0.06919 0.0
C1283 C 0.35244 0.16687 0.0686 0.0
C1284 C 0.35178 0.20977 0.04967 0.0
C1285 C 0.34572 0.23496 0.0903 0.0
C1286 C 0.332 0.19208 0.03372 0.0
C1287 C 0.33283 0.20598 0.01514 0.0
C1288 C 0.3535 0.23774 0.01219 0.0
C1289 C 0.37241 0.25563 0.02827 0.0
C1290 C 0.37231 0.24163 0.0466 0.0
H1291 H 0.33364 0.23406 0.10468 0.0
H1292 H 0.3688 0.25644 0.09067 0.0
H1293 H 0.332 0.2365 0.07754 0.0
H1294 H 0.31577 0.1675 0.03566 0.0
H1295 H 0.3174 0.19195 0.00307 0.0
loop_
_geom_bond_atom_site_label_1
_geom_bond_atom_site_label_2
_geom_bond_distance
_geom_bond_site_symmetry_2
_ccdc_geom_bond_type
Mn0 O5 2.095 . S
Mn0 O15 2.162 . S
Mn0 O16 2.297 . S
Mn0 O24 2.385 . S
Mn0 O25 2.209 . S
Mn0 O26 2.094 . S
Mn1 O6 2.121 . S
Mn1 N8 2.257 . S
Mn1 N17 2.282 . S
Mn1 O25 2.215 . S
Mn1 O27 2.117 . S
C2 O24 1.234 . S
C2 O25 1.283 . S
C3 O15 1.281 . S
C3 O16 1.236 . S
C4 O26 1.240 . S
C4 O27 1.264 . S
O5 Mn0 2.095 . S
O5 C14 1.250 . S
O6 Mn1 2.121 . S
O6 C14 1.258 . S
C7 N8 1.326 . S
C7 C11 1.460 . S
C7 H13 0.929 . S
N8 Mn1 2.257 . S
N8 C7 1.326 . S
N8 C12 1.362 . S
C9 C10 1.258 . S
C9 C12 1.431 . S
C9 C29 1.449 . S
C10 C9 1.258 . S
C10 C11 1.477 . S
C10 H30 0.931 . S
C11 C7 1.460 . S
C11 C10 1.477 . S
C11 H31 0.930 . S
C12 N8 1.362 . S
C12 C9 1.431 . S
C12 C22 1.476 . S
H13 C7 0.929 . S
C14 O5 1.250 . S
C14 O6 1.258 . S
O15 Mn0 2.162 . S
O15 C3 1.281 . S
O16 Mn0 2.297 . S
O16 C3 1.236 . S
N17 Mn1 2.282 . S
N17 C18 1.328 . S
N17 C22 1.318 . S
C18 N17 1.328 . S
C18 C19 1.457 . S
C18 H23 0.929 . S
C19 C18 1.457 . S
C19 C20 1.291 . S
C19 H32 0.931 . S
C20 C19 1.291 . S
C20 C21 1.373 . S
C20 H33 0.929 . S
C21 C20 1.373 . S
C21 C22 1.396 . S
C21 C28 1.403 . S
C22 C12 1.476 . S
C22 N17 1.318 . S
C22 C21 1.396 . S
H23 C18 0.929 . S
O24 Mn0 2.385 . S
O24 C2 1.234 . S
O25 Mn0 2.209 . S
O25 Mn1 2.215 . S
O25 C2 1.283 . S
O26 Mn0 2.094 . S
O26 C4 1.240 . S
O27 Mn1 2.117 . S
O27 C4 1.264 . S
C28 C21 1.403 . S
C28 C29 1.399 . S
C28 H34 0.929 . S
C29 C9 1.449 . S
C29 C28 1.399 . S
C29 H35 0.930 . S
H30 C10 0.931 . S
H31 C11 0.930 . S
H32 C19 0.931 . S
H33 C20 0.929 . S
H34 C28 0.929 . S
H35 C29 0.930 . S
Mn36 O41 2.095 . S
Mn36 O51 2.162 . S
Mn36 O52 2.297 . S
Mn36 O60 2.385 . S
Mn36 O61 2.209 . S
Mn36 O62 2.094 . S
Mn37 O42 2.121 . S
Mn37 N44 2.257 . S
Mn37 N53 2.282 . S
Mn37 O61 2.215 . S
Mn37 O63 2.117 . S
C38 O60 1.234 . S
C38 O61 1.283 . S
C39 O51 1.281 . S
C39 O52 1.236 . S
C40 O62 1.240 . S
C40 O63 1.264 . S
O41 Mn36 2.095 . S
O41 C50 1.250 . S
O42 Mn37 2.121 . S
O42 C50 1.258 . S
C43 N44 1.326 . S
C43 C47 1.460 . S
C43 H49 0.929 . S
N44 Mn37 2.257 . S
N44 C43 1.326 . S
N44 C48 1.362 . S
C45 C46 1.258 . S
C45 C48 1.431 . S
C45 C65 1.449 . S
C46 C45 1.258 . S
C46 C47 1.477 . S
C46 H66 0.931 . S
C47 C43 1.460 . S
C47 C46 1.477 . S
C47 H67 0.930 . S
C48 N44 1.362 . S
C48 C45 1.431 . S
C48 C58 1.476 . S
H49 C43 0.929 . S
C50 O41 1.250 . S
C50 O42 1.258 . S
O51 Mn36 2.162 . S
O51 C39 1.281 . S
O52 Mn36 2.297 . S
O52 C39 1.236 . S
N53 Mn37 2.282 . S
N53 C54 1.328 . S
N53 C58 1.318 . S
C54 N53 1.328 . S
C54 C55 1.457 . S
C54 H59 0.929 . S
C55 C54 1.457 . S
C55 C56 1.291 . S
C55 H68 0.931 . S
C56 C55 1.291 . S
C56 C57 1.373 . S
C56 H69 0.929 . S
C57 C56 1.373 . S
C57 C58 1.396 . S
C57 C64 1.403 . S
C58 C48 1.476 . S
C58 N53 1.318 . S
C58 C57 1.396 . S
H59 C54 0.929 . S
O60 Mn36 2.385 . S
O60 C38 1.234 . S
O61 Mn36 2.209 . S
O61 Mn37 2.215 . S
O61 C38 1.283 . S
O62 Mn36 2.094 . S
O62 C40 1.240 . S
O63 Mn37 2.117 . S
O63 C40 1.264 . S
C64 C57 1.403 . S
C64 C65 1.399 . S
C64 H70 0.929 . S
C65 C45 1.449 . S
C65 C64 1.399 . S
C65 H71 0.930 . S
H66 C46 0.931 . S
H67 C47 0.930 . S
H68 C55 0.931 . S
H69 C56 0.929 . S
H70 C64 0.929 . S
H71 C65 0.930 . S
Mn72 O77 2.095 . S
Mn72 O87 2.162 . S
Mn72 O88 2.297 . S
Mn72 O96 2.385 . S
Mn72 O97 2.209 . S
Mn72 O98 2.094 . S
Mn73 O78 2.121 . S
Mn73 N80 2.257 . S
Mn73 N89 2.282 . S
Mn73 O97 2.215 . S
Mn73 O99 2.117 . S
C74 O96 1.234 . S
C74 O97 1.283 . S
C75 O87 1.281 . S
C75 O88 1.236 . S
C76 O98 1.240 . S
C76 O99 1.264 . S
O77 Mn72 2.095 . S
O77 C86 1.250 . S
O78 Mn73 2.121 . S
O78 C86 1.258 . S
C79 N80 1.326 . S
C79 C83 1.460 . S
C79 H85 0.929 . S
N80 Mn73 2.257 . S
N80 C79 1.326 . S
N80 C84 1.362 . S
C81 C82 1.258 . S
C81 C84 1.431 . S
C81 C101 1.449 . S
C82 C81 1.258 . S
C82 C83 1.477 . S
C82 H102 0.931 . S
C83 C79 1.460 . S
C83 C82 1.477 . S
C83 H103 0.930 . S
C84 N80 1.362 . S
C84 C81 1.431 . S
C84 C94 1.476 . S
H85 C79 0.929 . S
C86 O77 1.250 . S
C86 O78 1.258 . S
O87 Mn72 2.162 . S
O87 C75 1.281 . S
O88 Mn72 2.297 . S
O88 C75 1.236 . S
N89 Mn73 2.282 . S
N89 C90 1.328 . S
N89 C94 1.318 . S
C90 N89 1.328 . S
C90 C91 1.457 . S
C90 H95 0.929 . S
C91 C90 1.457 . S
C91 C92 1.291 . S
C91 H104 0.931 . S
C92 C91 1.291 . S
C92 C93 1.373 . S
C92 H105 0.929 . S
C93 C92 1.373 . S
C93 C94 1.396 . S
C93 C100 1.403 . S
C94 C84 1.476 . S
C94 N89 1.318 . S
C94 C93 1.396 . S
H95 C90 0.929 . S
O96 Mn72 2.385 . S
O96 C74 1.234 . S
O97 Mn72 2.209 . S
O97 Mn73 2.215 . S
O97 C74 1.283 . S
O98 Mn72 2.094 . S
O98 C76 1.240 . S
O99 Mn73 2.117 . S
O99 C76 1.264 . S
C100 C93 1.403 . S
C100 C101 1.399 . S
C100 H106 0.929 . S
C101 C81 1.449 . S
C101 C100 1.399 . S
C101 H107 0.930 . S
H102 C82 0.931 . S
H103 C83 0.930 . S
H104 C91 0.931 . S
H105 C92 0.929 . S
H106 C100 0.929 . S
H107 C101 0.930 . S
Mn108 O113 2.095 . S
Mn108 O123 2.162 . S
Mn108 O124 2.297 . S
Mn108 O132 2.385 . S
Mn108 O133 2.209 . S
Mn108 O134 2.094 . S
Mn109 O114 2.121 . S
Mn109 N116 2.257 . S
Mn109 N125 2.282 . S
Mn109 O133 2.215 . S
Mn109 O135 2.117 . S
C110 O132 1.234 . S
C110 O133 1.283 . S
C111 O123 1.281 . S
C111 O124 1.236 . S
C112 O134 1.240 . S
C112 O135 1.264 . S
O113 Mn108 2.095 . S
O113 C122 1.250 . S
O114 Mn109 2.121 . S
O114 C122 1.258 . S
C115 N116 1.326 . S
C115 C119 1.460 . S
C115 H121 0.929 . S
N116 Mn109 2.257 . S
N116 C115 1.326 . S
N116 C120 1.362 . S
C117 C118 1.258 . S
C117 C120 1.431 . S
C117 C137 1.449 . S
C118 C117 1.258 . S
C118 C119 1.477 . S
C118 H138 0.931 . S
C119 C115 1.460 . S
C119 C118 1.477 . S
C119 H139 0.930 . S
C120 N116 1.362 . S
C120 C117 1.431 . S
C120 C130 1.476 . S
H121 C115 0.929 . S
C122 O113 1.250 . S
C122 O114 1.258 . S
O123 Mn108 2.162 . S
O123 C111 1.281 . S
O124 Mn108 2.297 . S
O124 C111 1.236 . S
N125 Mn109 2.282 . S
N125 C126 1.328 . S
N125 C130 1.318 . S
C126 N125 1.328 . S
C126 C127 1.457 . S
C126 H131 0.929 . S
C127 C126 1.457 . S
C127 C128 1.291 . S
C127 H140 0.931 . S
C128 C127 1.291 . S
C128 C129 1.373 . S
C128 H141 0.929 . S
C129 C128 1.373 . S
C129 C130 1.396 . S
C129 C136 1.403 . S
C130 C120 1.476 . S
C130 N125 1.318 . S
C130 C129 1.396 . S
H131 C126 0.929 . S
O132 Mn108 2.385 . S
O132 C110 1.234 . S
O133 Mn108 2.209 . S
O133 Mn109 2.215 . S
O133 C110 1.283 . S
O134 Mn108 2.094 . S
O134 C112 1.240 . S
O135 Mn109 2.117 . S
O135 C112 1.264 . S
C136 C129 1.403 . S
C136 C137 1.399 . S
C136 H142 0.929 . S
C137 C117 1.449 . S
C137 C136 1.399 . S
C137 H143 0.930 . S
H138 C118 0.931 . S
H139 C119 0.930 . S
H140 C127 0.931 . S
H141 C128 0.929 . S
H142 C136 0.929 . S
H143 C137 0.930 . S
Mn144 O149 2.095 . S
Mn144 O159 2.162 . S
Mn144 O160 2.297 . S
Mn144 O168 2.385 . S
Mn144 O169 2.209 . S
Mn144 O170 2.094 . S
Mn145 O150 2.121 . S
Mn145 N152 2.257 . S
Mn145 N161 2.282 . S
Mn145 O169 2.215 . S
Mn145 O171 2.117 . S
C146 O168 1.234 . S
C146 O169 1.283 . S
C147 O159 1.281 . S
C147 O160 1.236 . S
C148 O170 1.240 . S
C148 O171 1.264 . S
O149 Mn144 2.095 . S
O149 C158 1.250 . S
O150 Mn145 2.121 . S
O150 C158 1.258 . S
C151 N152 1.326 . S
C151 C155 1.460 . S
C151 H157 0.929 . S
N152 Mn145 2.257 . S
N152 C151 1.326 . S
N152 C156 1.362 . S
C153 C154 1.258 . S
C153 C156 1.431 . S
C153 C173 1.449 . S
C154 C153 1.258 . S
C154 C155 1.477 . S
C154 H174 0.931 . S
C155 C151 1.460 . S
C155 C154 1.477 . S
C155 H175 0.930 . S
C156 N152 1.362 . S
C156 C153 1.431 . S
C156 C166 1.476 . S
H157 C151 0.929 . S
C158 O149 1.250 . S
C158 O150 1.258 . S
O159 Mn144 2.162 . S
O159 C147 1.281 . S
O160 Mn144 2.297 . S
O160 C147 1.236 . S
N161 Mn145 2.282 . S
N161 C162 1.328 . S
N161 C166 1.318 . S
C162 N161 1.328 . S
C162 C163 1.457 . S
C162 H167 0.929 . S
C163 C162 1.457 . S
C163 C164 1.291 . S
C163 H176 0.931 . S
C164 C163 1.291 . S
C164 C165 1.373 . S
C164 H177 0.929 . S
C165 C164 1.373 . S
C165 C166 1.396 . S
C165 C172 1.403 . S
C166 C156 1.476 . S
C166 N161 1.318 . S
C166 C165 1.396 . S
H167 C162 0.929 . S
O168 Mn144 2.385 . S
O168 C146 1.234 . S
O169 Mn144 2.209 . S
O169 Mn145 2.215 . S
O169 C146 1.283 . S
O170 Mn144 2.094 . S
O170 C148 1.240 . S
O171 Mn145 2.117 . S
O171 C148 1.264 . S
C172 C165 1.403 . S
C172 C173 1.399 . S
C172 H178 0.929 . S
C173 C153 1.449 . S
C173 C172 1.399 . S
C173 H179 0.930 . S
H174 C154 0.931 . S
H175 C155 0.930 . S
H176 C163 0.931 . S
H177 C164 0.929 . S
H178 C172 0.929 . S
H179 C173 0.930 . S
Mn180 O185 2.095 . S
Mn180 O195 2.162 . S
Mn180 O196 2.297 . S
Mn180 O204 2.385 . S
Mn180 O205 2.209 . S
Mn180 O206 2.094 . S
Mn181 O186 2.121 . S
Mn181 N188 2.257 . S
Mn181 N197 2.282 . S
Mn181 O205 2.215 . S
Mn181 O207 2.117 . S
C182 O204 1.234 . S
C182 O205 1.283 . S
C183 O195 1.281 . S
C183 O196 1.236 . S
C184 O206 1.240 . S
C184 O207 1.264 . S
O185 Mn180 2.095 . S
O185 C194 1.250 . S
O186 Mn181 2.121 . S
O186 C194 1.258 . S
C187 N188 1.326 . S
C187 C191 1.460 1_556 S
C187 H193 0.929 . S
N188 Mn181 2.257 . S
N188 C187 1.326 . S
N188 C192 1.362 . S
C189 C190 1.258 . S
C189 C192 1.431 1_554 S
C189 C209 1.449 . S
C190 C189 1.258 . S
C190 C191 1.477 . S
C190 H210 0.931 . S
C191 C187 1.460 1_554 S
C191 C190 1.477 . S
C191 H211 0.930 . S
C192 N188 1.362 . S
C192 C189 1.431 1_556 S
C192 C202 1.476 . S
H193 C187 0.929 . S
C194 O185 1.250 . S
C194 O186 1.258 . S
O195 Mn180 2.162 . S
O195 C183 1.281 . S
O196 Mn180 2.297 . S
O196 C183 1.236 . S
N197 Mn181 2.282 . S
N197 C198 1.328 . S
N197 C202 1.318 . S
C198 N197 1.328 . S
C198 C199 1.457 . S
C198 H203 0.929 . S
C199 C198 1.457 . S
C199 C200 1.289 1_556 S
C199 H212 0.931 . S
C200 C199 1.289 1_554 S
C200 C201 1.373 . S
C200 H213 0.931 . S
C201 C200 1.373 . S
C201 C202 1.396 1_554 S
C201 C208 1.403 . S
C202 C192 1.476 . S
C202 N197 1.318 . S
C202 C201 1.396 1_556 S
H203 C198 0.929 . S
O204 Mn180 2.385 . S
O204 C182 1.234 . S
O205 Mn180 2.209 . S
O205 Mn181 2.215 . S
O205 C182 1.283 . S
O206 Mn180 2.094 . S
O206 C184 1.240 . S
O207 Mn181 2.117 . S
O207 C184 1.264 . S
C208 C201 1.403 . S
C208 C209 1.399 . S
C208 H214 0.929 . S
C209 C189 1.449 . S
C209 C208 1.399 . S
C209 H215 0.930 . S
H210 C190 0.931 . S
H211 C191 0.930 . S
H212 C199 0.931 . S
H213 C200 0.931 . S
H214 C208 0.929 . S
H215 C209 0.930 . S
Mn216 O221 2.095 . S
Mn216 O231 2.162 . S
Mn216 O232 2.297 . S
Mn216 O240 2.385 . S
Mn216 O241 2.209 . S
Mn216 O242 2.094 . S
Mn217 O222 2.121 . S
Mn217 N224 2.257 . S
Mn217 N233 2.282 . S
Mn217 O241 2.215 . S
Mn217 O243 2.117 . S
C218 O240 1.234 . S
C218 O241 1.283 . S
C219 O231 1.281 . S
C219 O232 1.236 . S
C220 O242 1.240 . S
C220 O243 1.264 . S
O221 Mn216 2.095 . S
O221 C230 1.250 . S
O222 Mn217 2.121 . S
O222 C230 1.258 . S
C223 N224 1.326 . S
C223 C227 1.460 . S
C223 H229 0.929 . S
N224 Mn217 2.257 . S
N224 C223 1.326 . S
N224 C228 1.362 . S
C225 C226 1.258 . S
C225 C228 1.431 . S
C225 C245 1.449 . S
C226 C225 1.258 . S
C226 C227 1.477 . S
C226 H246 0.931 . S
C227 C223 1.460 . S
C227 C226 1.477 . S
C227 H247 0.930 . S
C228 N224 1.362 . S
C228 C225 1.431 . S
C228 C238 1.476 . S
H229 C223 0.929 . S
C230 O221 1.250 . S
C230 O222 1.258 . S
O231 Mn216 2.162 . S
O231 C219 1.281 . S
O232 Mn216 2.297 . S
O232 C219 1.236 . S
N233 Mn217 2.282 . S
N233 C234 1.328 . S
N233 C238 1.318 . S
C234 N233 1.328 . S
C234 C235 1.457 . S
C234 H239 0.929 . S
C235 C234 1.457 . S
C235 C236 1.291 . S
C235 H248 0.931 . S
C236 C235 1.291 . S
C236 C237 1.373 . S
C236 H249 0.929 . S
C237 C236 1.373 . S
C237 C238 1.396 . S
C237 C244 1.403 . S
C238 C228 1.476 . S
C238 N233 1.318 . S
C238 C237 1.396 . S
H239 C234 0.929 . S
O240 Mn216 2.385 . S
O240 C218 1.234 . S
O241 Mn216 2.209 . S
O241 Mn217 2.215 . S
O241 C218 1.283 . S
O242 Mn216 2.094 . S
O242 C220 1.240 . S
O243 Mn217 2.117 . S
O243 C220 1.264 . S
C244 C237 1.403 . S
C244 C245 1.399 . S
C244 H250 0.929 . S
C245 C225 1.449 . S
C245 C244 1.399 . S
C245 H251 0.930 . S
H246 C226 0.931 . S
H247 C227 0.930 . S
H248 C235 0.931 . S
H249 C236 0.929 . S
H250 C244 0.929 . S
H251 C245 0.930 . S
Mn252 O257 2.095 . S
Mn252 O267 2.162 . S
Mn252 O268 2.297 . S
Mn252 O276 2.385 . S
Mn252 O277 2.209 . S
Mn252 O278 2.094 . S
Mn253 O258 2.121 . S
Mn253 N260 2.257 . S
Mn253 N269 2.282 . S
Mn253 O277 2.215 . S
Mn253 O279 2.117 . S
C254 O276 1.234 . S
C254 O277 1.283 . S
C255 O267 1.281 . S
C255 O268 1.236 . S
C256 O278 1.240 . S
C256 O279 1.264 . S
O257 Mn252 2.095 . S
O257 C266 1.250 . S
O258 Mn253 2.121 . S
O258 C266 1.258 . S
C259 N260 1.326 . S
C259 C263 1.460 . S
C259 H265 0.929 . S
N260 Mn253 2.257 . S
N260 C259 1.326 . S
N260 C264 1.362 . S
C261 C262 1.258 . S
C261 C264 1.431 . S
C261 C281 1.449 . S
C262 C261 1.258 . S
C262 C263 1.477 . S
C262 H282 0.931 . S
C263 C259 1.460 . S
C263 C262 1.477 . S
C263 H283 0.930 . S
C264 N260 1.362 . S
C264 C261 1.431 . S
C264 C274 1.476 . S
H265 C259 0.929 . S
C266 O257 1.250 . S
C266 O258 1.258 . S
O267 Mn252 2.162 . S
O267 C255 1.281 . S
O268 Mn252 2.297 . S
O268 C255 1.236 . S
N269 Mn253 2.282 . S
N269 C270 1.328 . S
N269 C274 1.318 . S
C270 N269 1.328 . S
C270 C271 1.457 . S
C270 H275 0.929 . S
C271 C270 1.457 . S
C271 C272 1.291 . S
C271 H284 0.931 . S
C272 C271 1.291 . S
C272 C273 1.373 . S
C272 H285 0.929 . S
C273 C272 1.373 . S
C273 C274 1.396 . S
C273 C280 1.403 . S
C274 C264 1.476 . S
C274 N269 1.318 . S
C274 C273 1.396 . S
H275 C270 0.929 . S
O276 Mn252 2.385 . S
O276 C254 1.234 . S
O277 Mn252 2.209 . S
O277 Mn253 2.215 . S
O277 C254 1.283 . S
O278 Mn252 2.094 . S
O278 C256 1.240 . S
O279 Mn253 2.117 . S
O279 C256 1.264 . S
C280 C273 1.403 . S
C280 C281 1.399 . S
C280 H286 0.929 . S
C281 C261 1.449 . S
C281 C280 1.399 . S
C281 H287 0.930 . S
H282 C262 0.931 . S
H283 C263 0.930 . S
H284 C271 0.931 . S
H285 C272 0.929 . S
H286 C280 0.929 . S
H287 C281 0.930 . S
Mn288 O293 2.095 . S
Mn288 O303 2.162 . S
Mn288 O304 2.297 . S
Mn288 O312 2.385 . S
Mn288 O313 2.209 . S
Mn288 O314 2.094 . S
Mn289 O294 2.121 . S
Mn289 N296 2.257 . S
Mn289 N305 2.282 . S
Mn289 O313 2.215 . S
Mn289 O315 2.117 . S
C290 O312 1.234 . S
C290 O313 1.283 . S
C291 O303 1.281 . S
C291 O304 1.236 . S
C292 O314 1.240 . S
C292 O315 1.264 . S
O293 Mn288 2.095 . S
O293 C302 1.250 . S
O294 Mn289 2.121 . S
O294 C302 1.258 . S
C295 N296 1.326 . S
C295 C299 1.460 1_554 S
C295 H301 0.929 . S
N296 Mn289 2.257 . S
N296 C295 1.326 . S
N296 C300 1.362 . S
C297 C298 1.258 . S
C297 C300 1.431 1_556 S
C297 C317 1.449 . S
C298 C297 1.258 . S
C298 C299 1.477 . S
C298 H318 0.931 . S
C299 C295 1.460 1_556 S
C299 C298 1.477 . S
C299 H319 0.930 . S
C300 N296 1.362 . S
C300 C297 1.431 1_554 S
C300 C310 1.476 . S
H301 C295 0.929 . S
C302 O293 1.250 . S
C302 O294 1.258 . S
O303 Mn288 2.162 . S
O303 C291 1.281 . S
O304 Mn288 2.297 . S
O304 C291 1.236 . S
N305 Mn289 2.282 . S
N305 C306 1.328 . S
N305 C310 1.318 . S
C306 N305 1.328 . S
C306 C307 1.457 . S
C306 H311 0.929 . S
C307 C306 1.457 . S
C307 C308 1.289 1_554 S
C307 H320 0.931 . S
C308 C307 1.289 1_556 S
C308 C309 1.373 . S
C308 H321 0.931 . S
C309 C308 1.373 . S
C309 C310 1.396 1_556 S
C309 C316 1.403 . S
C310 C300 1.476 . S
C310 N305 1.318 . S
C310 C309 1.396 1_554 S
H311 C306 0.929 . S
O312 Mn288 2.385 . S
O312 C290 1.234 . S
O313 Mn288 2.209 . S
O313 Mn289 2.215 . S
O313 C290 1.283 . S
O314 Mn288 2.094 . S
O314 C292 1.240 . S
O315 Mn289 2.117 . S
O315 C292 1.264 . S
C316 C309 1.403 . S
C316 C317 1.399 . S
C316 H322 0.929 . S
C317 C297 1.449 . S
C317 C316 1.399 . S
C317 H323 0.930 . S
H318 C298 0.931 . S
H319 C299 0.930 . S
H320 C307 0.931 . S
H321 C308 0.931 . S
H322 C316 0.929 . S
H323 C317 0.930 . S
Mn324 O329 2.095 . S
Mn324 O339 2.162 . S
Mn324 O340 2.297 . S
Mn324 O348 2.385 . S
Mn324 O349 2.209 . S
Mn324 O350 2.094 . S
Mn325 O330 2.121 . S
Mn325 N332 2.257 . S
Mn325 N341 2.282 . S
Mn325 O349 2.215 . S
Mn325 O351 2.117 . S
C326 O348 1.234 . S
C326 O349 1.283 . S
C327 O339 1.281 . S
C327 O340 1.236 . S
C328 O350 1.240 . S
C328 O351 1.264 . S
O329 Mn324 2.095 . S
O329 C338 1.250 . S
O330 Mn325 2.121 . S
O330 C338 1.258 . S
C331 N332 1.326 . S
C331 C335 1.460 . S
C331 H337 0.929 . S
N332 Mn325 2.257 . S
N332 C331 1.326 . S
N332 C336 1.362 . S
C333 C334 1.258 . S
C333 C336 1.431 . S
C333 C353 1.449 . S
C334 C333 1.258 . S
C334 C335 1.477 . S
C334 H354 0.931 . S
C335 C331 1.460 . S
C335 C334 1.477 . S
C335 H355 0.930 . S
C336 N332 1.362 . S
C336 C333 1.431 . S
C336 C346 1.476 . S
H337 C331 0.929 . S
C338 O329 1.250 . S
C338 O330 1.258 . S
O339 Mn324 2.162 . S
O339 C327 1.281 . S
O340 Mn324 2.297 . S
O340 C327 1.236 . S
N341 Mn325 2.282 . S
N341 C342 1.328 . S
N341 C346 1.318 . S
C342 N341 1.328 . S
C342 C343 1.457 . S
C342 H347 0.929 . S
C343 C342 1.457 . S
C343 C344 1.291 . S
C343 H356 0.931 . S
C344 C343 1.291 . S
C344 C345 1.373 . S
C344 H357 0.929 . S
C345 C344 1.373 . S
C345 C346 1.396 . S
C345 C352 1.403 . S
C346 C336 1.476 . S
C346 N341 1.318 . S
C346 C345 1.396 . S
H347 C342 0.929 . S
O348 Mn324 2.385 . S
O348 C326 1.234 . S
O349 Mn324 2.209 . S
O349 Mn325 2.215 . S
O349 C326 1.283 . S
O350 Mn324 2.094 . S
O350 C328 1.240 . S
O351 Mn325 2.117 . S
O351 C328 1.264 . S
C352 C345 1.403 . S
C352 C353 1.399 . S
C352 H358 0.929 . S
C353 C333 1.449 . S
C353 C352 1.399 . S
C353 H359 0.930 . S
H354 C334 0.931 . S
H355 C335 0.930 . S
H356 C343 0.931 . S
H357 C344 0.929 . S
H358 C352 0.929 . S
H359 C353 0.930 . S
Mn360 O365 2.095 . S
Mn360 O375 2.162 . S
Mn360 O376 2.297 . S
Mn360 O384 2.385 . S
Mn360 O385 2.209 . S
Mn360 O386 2.094 . S
Mn361 O366 2.121 . S
Mn361 N368 2.257 . S
Mn361 N377 2.282 . S
Mn361 O385 2.215 . S
Mn361 O387 2.117 . S
C362 O384 1.234 . S
C362 O385 1.283 . S
C363 O375 1.281 . S
C363 O376 1.236 . S
C364 O386 1.240 . S
C364 O387 1.264 . S
O365 Mn360 2.095 . S
O365 C374 1.250 . S
O366 Mn361 2.121 . S
O366 C374 1.258 . S
C367 N368 1.326 . S
C367 C371 1.460 . S
C367 H373 0.929 . S
N368 Mn361 2.257 . S
N368 C367 1.326 . S
N368 C372 1.362 . S
C369 C370 1.258 . S
C369 C372 1.431 . S
C369 C389 1.449 . S
C370 C369 1.258 . S
C370 C371 1.477 . S
C370 H390 0.931 . S
C371 C367 1.460 . S
C371 C370 1.477 . S
C371 H391 0.930 . S
C372 N368 1.362 . S
C372 C369 1.431 . S
C372 C382 1.476 . S
H373 C367 0.929 . S
C374 O365 1.250 . S
C374 O366 1.258 . S
O375 Mn360 2.162 . S
O375 C363 1.281 . S
O376 Mn360 2.297 . S
O376 C363 1.236 . S
N377 Mn361 2.282 . S
N377 C378 1.328 . S
N377 C382 1.318 . S
C378 N377 1.328 . S
C378 C379 1.457 . S
C378 H383 0.929 . S
C379 C378 1.457 . S
C379 C380 1.291 . S
C379 H392 0.931 . S
C380 C379 1.291 . S
C380 C381 1.373 . S
C380 H393 0.929 . S
C381 C380 1.373 . S
C381 C382 1.396 . S
C381 C388 1.403 . S
C382 C372 1.476 . S
C382 N377 1.318 . S
C382 C381 1.396 . S
H383 C378 0.929 . S
O384 Mn360 2.385 . S
O384 C362 1.234 . S
O385 Mn360 2.209 . S
O385 Mn361 2.215 . S
O385 C362 1.283 . S
O386 Mn360 2.094 . S
O386 C364 1.240 . S
O387 Mn361 2.117 . S
O387 C364 1.264 . S
C388 C381 1.403 . S
C388 C389 1.399 . S
C388 H394 0.929 . S
C389 C369 1.449 . S
C389 C388 1.399 . S
C389 H395 0.930 . S
H390 C370 0.931 . S
H391 C371 0.930 . S
H392 C379 0.931 . S
H393 C380 0.929 . S
H394 C388 0.929 . S
H395 C389 0.930 . S
Mn396 O401 2.095 . S
Mn396 O411 2.162 . S
Mn396 O412 2.297 . S
Mn396 O420 2.385 . S
Mn396 O421 2.209 . S
Mn396 O422 2.094 . S
Mn397 O402 2.121 . S
Mn397 N404 2.257 . S
Mn397 N413 2.282 . S
Mn397 O421 2.215 . S
Mn397 O423 2.117 . S
C398 O420 1.234 . S
C398 O421 1.283 . S
C399 O411 1.281 . S
C399 O412 1.236 . S
C400 O422 1.240 . S
C400 O423 1.264 . S
O401 Mn396 2.095 . S
O401 C410 1.250 . S
O402 Mn397 2.121 . S
O402 C410 1.258 . S
C403 N404 1.326 . S
C403 C407 1.460 . S
C403 H409 0.929 . S
N404 Mn397 2.257 . S
N404 C403 1.326 . S
N404 C408 1.362 . S
C405 C406 1.258 . S
C405 C408 1.431 . S
C405 C425 1.449 . S
C406 C405 1.258 . S
C406 C407 1.477 . S
C406 H426 0.931 . S
C407 C403 1.460 . S
C407 C406 1.477 . S
C407 H427 0.930 . S
C408 N404 1.362 . S
C408 C405 1.431 . S
C408 C418 1.476 . S
H409 C403 0.929 . S
C410 O401 1.250 . S
C410 O402 1.258 . S
O411 Mn396 2.162 . S
O411 C399 1.281 . S
O412 Mn396 2.297 . S
O412 C399 1.236 . S
N413 Mn397 2.282 . S
N413 C414 1.328 . S
N413 C418 1.318 . S
C414 N413 1.328 . S
C414 C415 1.457 . S
C414 H419 0.929 . S
C415 C414 1.457 . S
C415 C416 1.291 . S
C415 H428 0.931 . S
C416 C415 1.291 . S
C416 C417 1.373 . S
C416 H429 0.929 . S
C417 C416 1.373 . S
C417 C418 1.396 . S
C417 C424 1.403 . S
C418 C408 1.476 . S
C418 N413 1.318 . S
C418 C417 1.396 . S
H419 C414 0.929 . S
O420 Mn396 2.385 . S
O420 C398 1.234 . S
O421 Mn396 2.209 . S
O421 Mn397 2.215 . S
O421 C398 1.283 . S
O422 Mn396 2.094 . S
O422 C400 1.240 . S
O423 Mn397 2.117 . S
O423 C400 1.264 . S
C424 C417 1.403 . S
C424 C425 1.399 . S
C424 H430 0.929 . S
C425 C405 1.449 . S
C425 C424 1.399 . S
C425 H431 0.930 . S
H426 C406 0.931 . S
H427 C407 0.930 . S
H428 C415 0.931 . S
H429 C416 0.929 . S
H430 C424 0.929 . S
H431 C425 0.930 . S
H432 C440 0.929 . S
H433 C442 0.930 . S
H434 C444 0.930 . S
H435 C447 0.929 . S
H436 C450 0.930 . S
H437 C452 0.960 . S
H438 C452 0.960 . S
H439 C452 0.960 . S
C440 H432 0.929 . S
C440 C441 1.377 . S
C440 C442 1.384 . S
C441 C440 1.377 . S
C441 C447 1.390 . S
C442 H433 0.930 . S
C442 C440 1.384 . S
C442 C443 1.372 . S
C443 C442 1.372 . S
C443 C444 1.400 . S
C443 C448 1.490 . S
C444 H434 0.930 . S
C444 C443 1.400 . S
C444 C447 1.386 . S
H445 C461 0.930 . S
H446 C462 0.931 . S
C447 H435 0.929 . S
C447 C441 1.390 . S
C447 C444 1.386 . S
C448 C443 1.490 . S
C448 C450 1.395 . S
C448 C451 1.403 . S
H449 C455 0.930 . S
C450 H436 0.930 . S
C450 C448 1.395 . S
C450 C453 1.403 . S
C451 C448 1.403 . S
C451 C452 1.524 . S
C451 C455 1.400 . S
C452 H437 0.960 . S
C452 H438 0.960 . S
C452 H439 0.960 . S
C452 C451 1.524 . S
C453 C450 1.403 . S
C453 C454 1.392 . S
C453 C457 1.495 . S
C454 C453 1.392 . S
C454 C455 1.385 . S
C454 C456 1.478 . S
C455 H449 0.930 . S
C455 C451 1.400 . S
C455 C454 1.385 . S
C456 C454 1.478 . S
C456 C458 1.381 . S
C456 C462 1.383 . S
C457 C453 1.495 . S
C457 H463 0.959 . S
C457 H464 0.961 . S
C457 H465 0.960 . S
C458 C456 1.381 . S
C458 C459 1.394 . S
C458 H466 0.930 . S
C459 C458 1.394 . S
C459 C460 1.383 . S
C459 H467 0.929 . S
C460 C459 1.383 . S
C460 C461 1.377 . S
C461 H445 0.930 . S
C461 C460 1.377 . S
C461 C462 1.379 . S
C462 H446 0.931 . S
C462 C456 1.383 . S
C462 C461 1.379 . S
H463 C457 0.959 . S
H464 C457 0.961 . S
H465 C457 0.960 . S
H466 C458 0.930 . S
H467 C459 0.929 . S
H468 C476 0.929 . S
H469 C478 0.930 . S
H470 C480 0.930 . S
H471 C483 0.929 . S
H472 C486 0.930 . S
H473 C488 0.960 . S
H474 C488 0.960 . S
H475 C488 0.960 . S
C476 H468 0.929 . S
C476 C477 1.377 . S
C476 C478 1.384 . S
C477 C476 1.377 . S
C477 C483 1.390 . S
C478 H469 0.930 . S
C478 C476 1.384 . S
C478 C479 1.372 . S
C479 C478 1.372 . S
C479 C480 1.400 . S
C479 C484 1.490 . S
C480 H470 0.930 . S
C480 C479 1.400 . S
C480 C483 1.386 . S
H481 C497 0.930 . S
H482 C498 0.931 . S
C483 H471 0.929 . S
C483 C477 1.390 . S
C483 C480 1.386 . S
C484 C479 1.490 . S
C484 C486 1.395 . S
C484 C487 1.403 . S
H485 C491 0.930 . S
C486 H472 0.930 . S
C486 C484 1.395 . S
C486 C489 1.403 . S
C487 C484 1.403 . S
C487 C488 1.524 . S
C487 C491 1.400 . S
C488 H473 0.960 . S
C488 H474 0.960 . S
C488 H475 0.960 . S
C488 C487 1.524 . S
C489 C486 1.403 . S
C489 C490 1.392 . S
C489 C493 1.495 . S
C490 C489 1.392 . S
C490 C491 1.385 . S
C490 C492 1.478 . S
C491 H485 0.930 . S
C491 C487 1.400 . S
C491 C490 1.385 . S
C492 C490 1.478 . S
C492 C494 1.381 . S
C492 C498 1.383 . S
C493 C489 1.495 . S
C493 H499 0.959 . S
C493 H500 0.961 . S
C493 H501 0.960 . S
C494 C492 1.381 . S
C494 C495 1.394 . S
C494 H502 0.930 . S
C495 C494 1.394 . S
C495 C496 1.383 . S
C495 H503 0.929 . S
C496 C495 1.383 . S
C496 C497 1.377 . S
C497 H481 0.930 . S
C497 C496 1.377 . S
C497 C498 1.379 . S
C498 H482 0.931 . S
C498 C492 1.383 . S
C498 C497 1.379 . S
H499 C493 0.959 . S
H500 C493 0.961 . S
H501 C493 0.960 . S
H502 C494 0.930 . S
H503 C495 0.929 . S
H504 C512 0.929 . S
H505 C514 0.930 . S
H506 C516 0.930 . S
H507 C519 0.929 . S
H508 C522 0.930 . S
H509 C524 0.960 . S
H510 C524 0.960 . S
H511 C524 0.960 . S
C512 H504 0.929 . S
C512 C513 1.377 . S
C512 C514 1.384 . S
C513 C512 1.377 . S
C513 C519 1.390 . S
C514 H505 0.930 . S
C514 C512 1.384 . S
C514 C515 1.372 . S
C515 C514 1.372 . S
C515 C516 1.400 . S
C515 C520 1.490 . S
C516 H506 0.930 . S
C516 C515 1.400 . S
C516 C519 1.386 . S
H517 C533 0.930 . S
H518 C534 0.931 . S
C519 H507 0.929 . S
C519 C513 1.390 . S
C519 C516 1.386 . S
C520 C515 1.490 . S
C520 C522 1.395 . S
C520 C523 1.403 . S
H521 C527 0.930 . S
C522 H508 0.930 . S
C522 C520 1.395 . S
C522 C525 1.403 . S
C523 C520 1.403 . S
C523 C524 1.524 . S
C523 C527 1.400 . S
C524 H509 0.960 . S
C524 H510 0.960 . S
C524 H511 0.960 . S
C524 C523 1.524 . S
C525 C522 1.403 . S
C525 C526 1.392 . S
C525 C529 1.495 . S
C526 C525 1.392 . S
C526 C527 1.385 . S
C526 C528 1.478 . S
C527 H521 0.930 . S
C527 C523 1.400 . S
C527 C526 1.385 . S
C528 C526 1.478 . S
C528 C530 1.381 . S
C528 C534 1.383 . S
C529 C525 1.495 . S
C529 H535 0.959 . S
C529 H536 0.961 . S
C529 H537 0.960 . S
C530 C528 1.381 . S
C530 C531 1.394 . S
C530 H538 0.930 . S
C531 C530 1.394 . S
C531 C532 1.383 . S
C531 H539 0.929 . S
C532 C531 1.383 . S
C532 C533 1.377 . S
C533 H517 0.930 . S
C533 C532 1.377 . S
C533 C534 1.379 . S
C534 H518 0.931 . S
C534 C528 1.383 . S
C534 C533 1.379 . S
H535 C529 0.959 . S
H536 C529 0.961 . S
H537 C529 0.960 . S
H538 C530 0.930 . S
H539 C531 0.929 . S
H540 C548 0.929 . S
H541 C550 0.930 . S
H542 C552 0.930 . S
H543 C555 0.929 . S
H544 C558 0.930 . S
H545 C560 0.960 . S
H546 C560 0.960 . S
H547 C560 0.960 . S
C548 H540 0.929 . S
C548 C549 1.377 . S
C548 C550 1.384 . S
C549 C548 1.377 . S
C549 C555 1.390 . S
C550 H541 0.930 . S
C550 C548 1.384 . S
C550 C551 1.372 . S
C551 C550 1.372 . S
C551 C552 1.400 . S
C551 C556 1.490 . S
C552 H542 0.930 . S
C552 C551 1.400 . S
C552 C555 1.386 . S
H553 C569 0.930 . S
H554 C570 0.931 . S
C555 H543 0.929 . S
C555 C549 1.390 . S
C555 C552 1.386 . S
C556 C551 1.490 . S
C556 C558 1.395 . S
C556 C559 1.403 . S
H557 C563 0.930 . S
C558 H544 0.930 . S
C558 C556 1.395 . S
C558 C561 1.403 . S
C559 C556 1.403 . S
C559 C560 1.524 . S
C559 C563 1.400 . S
C560 H545 0.960 . S
C560 H546 0.960 . S
C560 H547 0.960 . S
C560 C559 1.524 . S
C561 C558 1.403 . S
C561 C562 1.392 . S
C561 C565 1.495 . S
C562 C561 1.392 . S
C562 C563 1.385 . S
C562 C564 1.478 . S
C563 H557 0.930 . S
C563 C559 1.400 . S
C563 C562 1.385 . S
C564 C562 1.478 . S
C564 C566 1.381 . S
C564 C570 1.383 . S
C565 C561 1.495 . S
C565 H571 0.959 . S
C565 H572 0.961 . S
C565 H573 0.960 . S
C566 C564 1.381 . S
C566 C567 1.394 . S
C566 H574 0.930 . S
C567 C566 1.394 . S
C567 C568 1.383 . S
C567 H575 0.929 . S
C568 C567 1.383 . S
C568 C569 1.377 . S
C569 H553 0.930 . S
C569 C568 1.377 . S
C569 C570 1.379 . S
C570 H554 0.931 . S
C570 C564 1.383 . S
C570 C569 1.379 . S
H571 C565 0.959 . S
H572 C565 0.961 . S
H573 C565 0.960 . S
H574 C566 0.930 . S
H575 C567 0.929 . S
H576 C584 0.929 . S
H577 C586 0.930 . S
H578 C588 0.930 . S
H579 C591 0.929 . S
H580 C594 0.930 . S
H581 C596 0.960 . S
H582 C596 0.960 . S
H583 C596 0.960 . S
C584 H576 0.929 . S
C584 C585 1.377 . S
C584 C586 1.384 . S
C585 C584 1.377 . S
C585 C591 1.390 . S
C586 H577 0.930 . S
C586 C584 1.384 . S
C586 C587 1.372 . S
C587 C586 1.372 . S
C587 C588 1.400 . S
C587 C592 1.490 . S
C588 H578 0.930 . S
C588 C587 1.400 . S
C588 C591 1.386 . S
H589 C605 0.930 . S
H590 C606 0.931 . S
C591 H579 0.929 . S
C591 C585 1.390 . S
C591 C588 1.386 . S
C592 C587 1.490 . S
C592 C594 1.395 . S
C592 C595 1.403 . S
H593 C599 0.930 . S
C594 H580 0.930 . S
C594 C592 1.395 . S
C594 C597 1.403 . S
C595 C592 1.403 . S
C595 C596 1.524 . S
C595 C599 1.400 . S
C596 H581 0.960 . S
C596 H582 0.960 . S
C596 H583 0.960 . S
C596 C595 1.524 . S
C597 C594 1.403 . S
C597 C598 1.392 . S
C597 C601 1.495 . S
C598 C597 1.392 . S
C598 C599 1.385 . S
C598 C600 1.478 . S
C599 H593 0.930 . S
C599 C595 1.400 . S
C599 C598 1.385 . S
C600 C598 1.478 . S
C600 C602 1.381 . S
C600 C606 1.383 . S
C601 C597 1.495 . S
C601 H607 0.959 . S
C601 H608 0.961 . S
C601 H609 0.960 . S
C602 C600 1.381 . S
C602 C603 1.394 . S
C602 H610 0.930 . S
C603 C602 1.394 . S
C603 C604 1.383 . S
C603 H611 0.929 . S
C604 C603 1.383 . S
C604 C605 1.377 . S
C605 H589 0.930 . S
C605 C604 1.377 . S
C605 C606 1.379 . S
C606 H590 0.931 . S
C606 C600 1.383 . S
C606 C605 1.379 . S
H607 C601 0.959 . S
H608 C601 0.961 . S
H609 C601 0.960 . S
H610 C602 0.930 . S
H611 C603 0.929 . S
H612 C620 0.929 . S
H613 C622 0.930 . S
H614 C624 0.930 . S
H615 C627 0.929 . S
H616 C630 0.930 . S
H617 C632 0.960 . S
H618 C632 0.960 . S
H619 C632 0.960 . S
C620 H612 0.929 . S
C620 C621 1.377 . S
C620 C622 1.384 . S
C621 C620 1.377 . S
C621 C627 1.390 . S
C622 H613 0.930 . S
C622 C620 1.384 . S
C622 C623 1.372 . S
C623 C622 1.372 . S
C623 C624 1.400 . S
C623 C628 1.490 . S
C624 H614 0.930 . S
C624 C623 1.400 . S
C624 C627 1.386 . S
H625 C641 0.930 . S
H626 C642 0.931 . S
C627 H615 0.929 . S
C627 C621 1.390 . S
C627 C624 1.386 . S
C628 C623 1.490 . S
C628 C630 1.395 . S
C628 C631 1.403 . S
H629 C635 0.930 . S
C630 H616 0.930 . S
C630 C628 1.395 . S
C630 C633 1.403 . S
C631 C628 1.403 . S
C631 C632 1.524 . S
C631 C635 1.400 . S
C632 H617 0.960 . S
C632 H618 0.960 . S
C632 H619 0.960 . S
C632 C631 1.524 . S
C633 C630 1.403 . S
C633 C634 1.392 . S
C633 C637 1.495 . S
C634 C633 1.392 . S
C634 C635 1.385 . S
C634 C636 1.478 . S
C635 H629 0.930 . S
C635 C631 1.400 . S
C635 C634 1.385 . S
C636 C634 1.478 . S
C636 C638 1.381 . S
C636 C642 1.383 . S
C637 C633 1.495 . S
C637 H643 0.959 . S
C637 H644 0.961 . S
C637 H645 0.960 . S
C638 C636 1.381 . S
C638 C639 1.394 . S
C638 H646 0.930 . S
C639 C638 1.394 . S
C639 C640 1.383 . S
C639 H647 0.929 . S
C640 C639 1.383 . S
C640 C641 1.377 . S
C641 H625 0.930 . S
C641 C640 1.377 . S
C641 C642 1.379 . S
C642 H626 0.931 . S
C642 C636 1.383 . S
C642 C641 1.379 . S
H643 C637 0.959 . S
H644 C637 0.961 . S
H645 C637 0.960 . S
H646 C638 0.930 . S
H647 C639 0.929 . S
H648 C656 0.929 . S
H649 C658 0.930 . S
H650 C660 0.930 . S
H651 C663 0.929 . S
H652 C666 0.930 . S
H653 C668 0.960 . S
H654 C668 0.960 . S
H655 C668 0.960 . S
C656 H648 0.929 . S
C656 C657 1.377 . S
C656 C658 1.384 . S
C657 C656 1.377 . S
C657 C663 1.390 . S
C658 H649 0.930 . S
C658 C656 1.384 . S
C658 C659 1.372 . S
C659 C658 1.372 . S
C659 C660 1.400 . S
C659 C664 1.490 . S
C660 H650 0.930 . S
C660 C659 1.400 . S
C660 C663 1.386 . S
H661 C677 0.930 . S
H662 C678 0.931 . S
C663 H651 0.929 . S
C663 C657 1.390 . S
C663 C660 1.386 . S
C664 C659 1.490 . S
C664 C666 1.395 . S
C664 C667 1.403 . S
H665 C671 0.930 . S
C666 H652 0.930 . S
C666 C664 1.395 . S
C666 C669 1.403 . S
C667 C664 1.403 . S
C667 C668 1.524 . S
C667 C671 1.400 . S
C668 H653 0.960 . S
C668 H654 0.960 . S
C668 H655 0.960 . S
C668 C667 1.524 . S
C669 C666 1.403 . S
C669 C670 1.392 . S
C669 C673 1.495 1_554 S
C670 C669 1.392 . S
C670 C671 1.385 . S
C670 C672 1.478 . S
C671 H665 0.930 . S
C671 C667 1.400 . S
C671 C670 1.385 . S
C672 C670 1.478 . S
C672 C674 1.381 1_554 S
C672 C678 1.383 . S
C673 C669 1.495 1_556 S
C673 H679 0.959 . S
C673 H680 0.961 . S
C673 H681 0.960 . S
C674 C672 1.381 1_556 S
C674 C675 1.394 . S
C674 H682 0.930 . S
C675 C674 1.394 . S
C675 C676 1.383 . S
C675 H683 0.929 . S
C676 C675 1.383 . S
C676 C677 1.377 1_556 S
C677 H661 0.930 . S
C677 C676 1.377 1_554 S
C677 C678 1.379 . S
C678 H662 0.931 . S
C678 C672 1.383 . S
C678 C677 1.379 . S
H679 C673 0.959 . S
H680 C673 0.961 . S
H681 C673 0.960 . S
H682 C674 0.930 . S
H683 C675 0.929 . S
H684 C692 0.929 . S
H685 C694 0.930 . S
H686 C696 0.930 . S
H687 C699 0.929 . S
H688 C702 0.930 . S
H689 C704 0.960 . S
H690 C704 0.960 . S
H691 C704 0.960 . S
C692 H684 0.929 . S
C692 C693 1.377 . S
C692 C694 1.384 . S
C693 C692 1.377 . S
C693 C699 1.390 . S
C694 H685 0.930 . S
C694 C692 1.384 . S
C694 C695 1.372 . S
C695 C694 1.372 . S
C695 C696 1.400 . S
C695 C700 1.490 . S
C696 H686 0.930 . S
C696 C695 1.400 . S
C696 C699 1.386 . S
H697 C713 0.930 1_455 S
H698 C714 0.931 . S
C699 H687 0.929 . S
C699 C693 1.390 . S
C699 C696 1.386 . S
C700 C695 1.490 . S
C700 C702 1.395 . S
C700 C703 1.403 . S
H701 C707 0.930 . S
C702 H688 0.930 . S
C702 C700 1.395 . S
C702 C705 1.403 . S
C703 C700 1.403 . S
C703 C704 1.524 . S
C703 C707 1.400 . S
C704 H689 0.960 . S
C704 H690 0.960 . S
C704 H691 0.960 . S
C704 C703 1.524 . S
C705 C702 1.403 . S
C705 C706 1.392 . S
C705 C709 1.495 . S
C706 C705 1.392 . S
C706 C707 1.385 . S
C706 C708 1.478 . S
C707 H701 0.930 . S
C707 C703 1.400 . S
C707 C706 1.385 . S
C708 C706 1.478 . S
C708 C710 1.381 . S
C708 C714 1.383 . S
C709 C705 1.495 . S
C709 H715 0.959 . S
C709 H716 0.961 . S
C709 H717 0.960 . S
C710 C708 1.381 . S
C710 C711 1.394 . S
C710 H718 0.930 . S
C711 C710 1.394 . S
C711 C712 1.383 . S
C711 H719 0.929 . S
C712 C711 1.383 . S
C712 C713 1.377 . S
C713 H697 0.930 1_655 S
C713 C712 1.377 . S
C713 C714 1.379 . S
C714 H698 0.931 . S
C714 C708 1.383 . S
C714 C713 1.379 . S
H715 C709 0.959 . S
H716 C709 0.961 . S
H717 C709 0.960 . S
H718 C710 0.930 . S
H719 C711 0.929 . S
H720 C728 0.929 . S
H721 C730 0.930 . S
H722 C732 0.930 . S
H723 C735 0.929 . S
H724 C738 0.930 . S
H725 C740 0.960 . S
H726 C740 0.960 . S
H727 C740 0.960 . S
C728 H720 0.929 . S
C728 C729 1.377 . S
C728 C730 1.384 . S
C729 C728 1.377 . S
C729 C735 1.390 . S
C730 H721 0.930 . S
C730 C728 1.384 . S
C730 C731 1.372 . S
C731 C730 1.372 . S
C731 C732 1.400 . S
C731 C736 1.490 . S
C732 H722 0.930 . S
C732 C731 1.400 . S
C732 C735 1.386 . S
H733 C749 0.930 . S
H734 C750 0.931 . S
C735 H723 0.929 . S
C735 C729 1.390 . S
C735 C732 1.386 . S
C736 C731 1.490 . S
C736 C738 1.395 . S
C736 C739 1.403 . S
H737 C743 0.930 . S
C738 H724 0.930 . S
C738 C736 1.395 . S
C738 C741 1.403 . S
C739 C736 1.403 . S
C739 C740 1.524 . S
C739 C743 1.400 . S
C740 H725 0.960 . S
C740 H726 0.960 . S
C740 H727 0.960 . S
C740 C739 1.524 . S
C741 C738 1.403 . S
C741 C742 1.392 . S
C741 C745 1.495 . S
C742 C741 1.392 . S
C742 C743 1.385 . S
C742 C744 1.478 . S
C743 H737 0.930 . S
C743 C739 1.400 . S
C743 C742 1.385 . S
C744 C742 1.478 . S
C744 C746 1.381 . S
C744 C750 1.383 . S
C745 C741 1.495 . S
C745 H751 0.959 . S
C745 H752 0.961 . S
C745 H753 0.960 . S
C746 C744 1.381 . S
C746 C747 1.394 . S
C746 H754 0.930 . S
C747 C746 1.394 . S
C747 C748 1.383 . S
C747 H755 0.929 . S
C748 C747 1.383 . S
C748 C749 1.377 . S
C749 H733 0.930 . S
C749 C748 1.377 . S
C749 C750 1.379 . S
C750 H734 0.931 . S
C750 C744 1.383 . S
C750 C749 1.379 . S
H751 C745 0.959 . S
H752 C745 0.961 . S
H753 C745 0.960 . S
H754 C746 0.930 . S
H755 C747 0.929 . S
H756 C764 0.929 . S
H757 C766 0.930 . S
H758 C768 0.930 . S
H759 C771 0.929 . S
H760 C774 0.930 . S
H761 C776 0.960 . S
H762 C776 0.960 . S
H763 C776 0.960 . S
C764 H756 0.929 . S
C764 C765 1.377 . S
C764 C766 1.384 . S
C765 C764 1.377 . S
C765 C771 1.390 . S
C766 H757 0.930 . S
C766 C764 1.384 . S
C766 C767 1.372 . S
C767 C766 1.372 . S
C767 C768 1.400 . S
C767 C772 1.490 . S
C768 H758 0.930 . S
C768 C767 1.400 . S
C768 C771 1.386 . S
H769 C785 0.930 . S
H770 C786 0.931 . S
C771 H759 0.929 . S
C771 C765 1.390 . S
C771 C768 1.386 . S
C772 C767 1.490 . S
C772 C774 1.395 . S
C772 C775 1.403 . S
H773 C779 0.930 . S
C774 H760 0.930 . S
C774 C772 1.395 . S
C774 C777 1.403 . S
C775 C772 1.403 . S
C775 C776 1.524 . S
C775 C779 1.400 . S
C776 H761 0.960 . S
C776 H762 0.960 . S
C776 H763 0.960 . S
C776 C775 1.524 . S
C777 C774 1.403 . S
C777 C778 1.392 . S
C777 C781 1.495 . S
C778 C777 1.392 . S
C778 C779 1.385 . S
C778 C780 1.478 . S
C779 H773 0.930 . S
C779 C775 1.400 . S
C779 C778 1.385 . S
C780 C778 1.478 . S
C780 C782 1.381 . S
C780 C786 1.383 . S
C781 C777 1.495 . S
C781 H787 0.959 . S
C781 H788 0.961 . S
C781 H789 0.960 . S
C782 C780 1.381 . S
C782 C783 1.394 . S
C782 H790 0.930 . S
C783 C782 1.394 . S
C783 C784 1.383 . S
C783 H791 0.929 . S
C784 C783 1.383 . S
C784 C785 1.377 . S
C785 H769 0.930 . S
C785 C784 1.377 . S
C785 C786 1.379 . S
C786 H770 0.931 . S
C786 C780 1.383 . S
C786 C785 1.379 . S
H787 C781 0.959 . S
H788 C781 0.961 . S
H789 C781 0.960 . S
H790 C782 0.930 . S
H791 C783 0.929 . S
H792 C800 0.929 . S
H793 C802 0.930 . S
H794 C804 0.930 . S
H795 C807 0.929 . S
H796 C810 0.930 . S
H797 C812 0.960 . S
H798 C812 0.960 . S
H799 C812 0.960 . S
C800 H792 0.929 . S
C800 C801 1.377 . S
C800 C802 1.384 . S
C801 C800 1.377 . S
C801 C807 1.390 . S
C802 H793 0.930 . S
C802 C800 1.384 . S
C802 C803 1.372 . S
C803 C802 1.372 . S
C803 C804 1.400 . S
C803 C808 1.490 . S
C804 H794 0.930 . S
C804 C803 1.400 . S
C804 C807 1.386 . S
H805 C821 0.930 . S
H806 C822 0.931 . S
C807 H795 0.929 . S
C807 C801 1.390 . S
C807 C804 1.386 . S
C808 C803 1.490 . S
C808 C810 1.395 . S
C808 C811 1.403 . S
H809 C815 0.930 . S
C810 H796 0.930 . S
C810 C808 1.395 . S
C810 C813 1.403 . S
C811 C808 1.403 . S
C811 C812 1.524 . S
C811 C815 1.400 . S
C812 H797 0.960 . S
C812 H798 0.960 . S
C812 H799 0.960 . S
C812 C811 1.524 . S
C813 C810 1.403 . S
C813 C814 1.392 . S
C813 C817 1.495 . S
C814 C813 1.392 . S
C814 C815 1.385 . S
C814 C816 1.478 . S
C815 H809 0.930 . S
C815 C811 1.400 . S
C815 C814 1.385 . S
C816 C814 1.478 . S
C816 C818 1.381 . S
C816 C822 1.383 . S
C817 C813 1.495 . S
C817 H823 0.959 . S
C817 H824 0.961 . S
C817 H825 0.960 . S
C818 C816 1.381 . S
C818 C819 1.394 . S
C818 H826 0.930 . S
C819 C818 1.394 . S
C819 C820 1.383 . S
C819 H827 0.929 . S
C820 C819 1.383 . S
C820 C821 1.377 . S
C821 H805 0.930 . S
C821 C820 1.377 . S
C821 C822 1.379 . S
C822 H806 0.931 . S
C822 C816 1.383 . S
C822 C821 1.379 . S
H823 C817 0.959 . S
H824 C817 0.961 . S
H825 C817 0.960 . S
H826 C818 0.930 . S
H827 C819 0.929 . S
H828 C836 0.929 . S
H829 C838 0.930 . S
H830 C840 0.930 . S
H831 C843 0.929 1_565 S
H832 C846 0.930 . S
H833 C848 0.960 . S
H834 C848 0.960 . S
H835 C848 0.960 . S
C836 H828 0.929 . S
C836 C837 1.377 . S
C836 C838 1.384 . S
C837 C836 1.377 . S
C837 C843 1.390 . S
C838 H829 0.930 . S
C838 C836 1.384 . S
C838 C839 1.372 . S
C839 C838 1.372 . S
C839 C840 1.400 . S
C839 C844 1.490 . S
C840 H830 0.930 . S
C840 C839 1.400 . S
C840 C843 1.386 . S
H841 C857 0.930 . S
H842 C858 0.931 . S
C843 H831 0.929 1_545 S
C843 C837 1.390 . S
C843 C840 1.386 . S
C844 C839 1.490 . S
C844 C846 1.395 . S
C844 C847 1.403 . S
H845 C851 0.930 . S
C846 H832 0.930 . S
C846 C844 1.395 . S
C846 C849 1.403 . S
C847 C844 1.403 . S
C847 C848 1.524 . S
C847 C851 1.400 . S
C848 H833 0.960 . S
C848 H834 0.960 . S
C848 H835 0.960 . S
C848 C847 1.524 . S
C849 C846 1.403 . S
C849 C850 1.392 . S
C849 C853 1.495 . S
C850 C849 1.392 . S
C850 C851 1.385 . S
C850 C852 1.478 . S
C851 H845 0.930 . S
C851 C847 1.400 . S
C851 C850 1.385 . S
C852 C850 1.478 . S
C852 C854 1.381 . S
C852 C858 1.383 . S
C853 C849 1.495 . S
C853 H859 0.959 . S
C853 H860 0.961 . S
C853 H861 0.960 . S
C854 C852 1.381 . S
C854 C855 1.394 . S
C854 H862 0.930 . S
C855 C854 1.394 . S
C855 C856 1.383 . S
C855 H863 0.929 . S
C856 C855 1.383 . S
C856 C857 1.377 . S
C857 H841 0.930 . S
C857 C856 1.377 . S
C857 C858 1.379 . S
C858 H842 0.931 . S
C858 C852 1.383 . S
C858 C857 1.379 . S
H859 C853 0.959 . S
H860 C853 0.961 . S
H861 C853 0.960 . S
H862 C854 0.930 . S
H863 C855 0.929 . S
H864 C872 0.929 . S
H865 C874 0.930 . S
H866 C876 0.930 . S
H867 C879 0.929 . S
H868 C882 0.930 . S
H869 C884 0.960 . S
H870 C884 0.960 . S
H871 C884 0.960 . S
C872 H864 0.929 . S
C872 C873 1.377 . S
C872 C874 1.384 . S
C873 C872 1.377 . S
C873 C879 1.390 . S
C874 H865 0.930 . S
C874 C872 1.384 . S
C874 C875 1.372 . S
C875 C874 1.372 . S
C875 C876 1.400 . S
C875 C880 1.490 . S
C876 H866 0.930 . S
C876 C875 1.400 . S
C876 C879 1.386 . S
H877 C893 0.930 . S
H878 C894 0.931 . S
C879 H867 0.929 . S
C879 C873 1.390 . S
C879 C876 1.386 . S
C880 C875 1.490 . S
C880 C882 1.395 . S
C880 C883 1.403 . S
H881 C887 0.930 . S
C882 H868 0.930 . S
C882 C880 1.395 . S
C882 C885 1.403 . S
C883 C880 1.403 . S
C883 C884 1.524 . S
C883 C887 1.400 . S
C884 H869 0.960 . S
C884 H870 0.960 . S
C884 H871 0.960 . S
C884 C883 1.524 . S
C885 C882 1.403 . S
C885 C886 1.392 . S
C885 C889 1.495 . S
C886 C885 1.392 . S
C886 C887 1.385 . S
C886 C888 1.478 . S
C887 H881 0.930 . S
C887 C883 1.400 . S
C887 C886 1.385 . S
C888 C886 1.478 . S
C888 C890 1.381 . S
C888 C894 1.383 . S
C889 C885 1.495 . S
C889 H895 0.959 . S
C889 H896 0.961 . S
C889 H897 0.960 . S
C890 C888 1.381 . S
C890 C891 1.394 . S
C890 H898 0.930 . S
C891 C890 1.394 . S
C891 C892 1.383 . S
C891 H899 0.929 . S
C892 C891 1.383 . S
C892 C893 1.377 . S
C893 H877 0.930 . S
C893 C892 1.377 . S
C893 C894 1.379 . S
C894 H878 0.931 . S
C894 C888 1.383 . S
C894 C893 1.379 . S
H895 C889 0.959 . S
H896 C889 0.961 . S
H897 C889 0.960 . S
H898 C890 0.930 . S
H899 C891 0.929 . S
H900 C908 0.929 . S
H901 C910 0.930 . S
H902 C912 0.930 . S
H903 C915 0.929 . S
H904 C918 0.930 . S
H905 C920 0.960 . S
H906 C920 0.960 . S
H907 C920 0.960 . S
C908 H900 0.929 . S
C908 C909 1.377 . S
C908 C910 1.384 . S
C909 C908 1.377 . S
C909 C915 1.390 . S
C910 H901 0.930 . S
C910 C908 1.384 . S
C910 C911 1.372 . S
C911 C910 1.372 . S
C911 C912 1.400 . S
C911 C916 1.490 . S
C912 H902 0.930 . S
C912 C911 1.400 . S
C912 C915 1.386 . S
H913 C929 0.930 . S
H914 C930 0.931 . S
C915 H903 0.929 . S
C915 C909 1.390 . S
C915 C912 1.386 . S
C916 C911 1.490 . S
C916 C918 1.395 . S
C916 C919 1.403 . S
H917 C923 0.930 . S
C918 H904 0.930 . S
C918 C916 1.395 . S
C918 C921 1.403 . S
C919 C916 1.403 . S
C919 C920 1.524 . S
C919 C923 1.400 . S
C920 H905 0.960 . S
C920 H906 0.960 . S
C920 H907 0.960 . S
C920 C919 1.524 . S
C921 C918 1.403 . S
C921 C922 1.392 . S
C921 C925 1.495 . S
C922 C921 1.392 . S
C922 C923 1.385 . S
C922 C924 1.478 . S
C923 H917 0.930 . S
C923 C919 1.400 . S
C923 C922 1.385 . S
C924 C922 1.478 . S
C924 C926 1.381 . S
C924 C930 1.383 . S
C925 C921 1.495 . S
C925 H931 0.959 . S
C925 H932 0.961 1_556 S
C925 H933 0.960 . S
C926 C924 1.381 . S
C926 C927 1.394 . S
C926 H934 0.930 . S
C927 C926 1.394 . S
C927 C928 1.383 1_556 S
C927 H935 0.929 1_655 S
C928 C927 1.383 1_554 S
C928 C929 1.377 . S
C929 H913 0.930 . S
C929 C928 1.377 . S
C929 C930 1.379 1_554 S
C930 H914 0.931 . S
C930 C924 1.383 . S
C930 C929 1.379 1_556 S
H931 C925 0.959 . S
H932 C925 0.961 1_554 S
H933 C925 0.960 . S
H934 C926 0.930 . S
H935 C927 0.929 1_455 S
H936 C944 0.929 1_545 S
H937 C946 0.930 . S
H938 C948 0.930 . S
H939 C951 0.929 . S
H940 C954 0.930 . S
H941 C956 0.960 . S
H942 C956 0.960 . S
H943 C956 0.960 . S
C944 H936 0.929 1_565 S
C944 C945 1.377 . S
C944 C946 1.384 . S
C945 C944 1.377 . S
C945 C951 1.390 . S
C946 H937 0.930 . S
C946 C944 1.384 . S
C946 C947 1.372 . S
C947 C946 1.372 . S
C947 C948 1.400 . S
C947 C952 1.490 . S
C948 H938 0.930 . S
C948 C947 1.400 . S
C948 C951 1.386 . S
H949 C965 0.930 . S
H950 C966 0.931 . S
C951 H939 0.929 . S
C951 C945 1.390 . S
C951 C948 1.386 . S
C952 C947 1.490 . S
C952 C954 1.395 . S
C952 C955 1.403 . S
H953 C959 0.930 . S
C954 H940 0.930 . S
C954 C952 1.395 . S
C954 C957 1.403 . S
C955 C952 1.403 . S
C955 C956 1.524 . S
C955 C959 1.400 . S
C956 H941 0.960 . S
C956 H942 0.960 . S
C956 H943 0.960 . S
C956 C955 1.524 . S
C957 C954 1.403 . S
C957 C958 1.392 . S
C957 C961 1.495 . S
C958 C957 1.392 . S
C958 C959 1.385 . S
C958 C960 1.478 . S
C959 H953 0.930 . S
C959 C955 1.400 . S
C959 C958 1.385 . S
C960 C958 1.478 . S
C960 C962 1.381 . S
C960 C966 1.383 . S
C961 C957 1.495 . S
C961 H967 0.959 . S
C961 H968 0.961 . S
C961 H969 0.960 . S
C962 C960 1.381 . S
C962 C963 1.394 . S
C962 H970 0.930 . S
C963 C962 1.394 . S
C963 C964 1.383 . S
C963 H971 0.929 . S
C964 C963 1.383 . S
C964 C965 1.377 . S
C965 H949 0.930 . S
C965 C964 1.377 . S
C965 C966 1.379 . S
C966 H950 0.931 . S
C966 C960 1.383 . S
C966 C965 1.379 . S
H967 C961 0.959 . S
H968 C961 0.961 . S
H969 C961 0.960 . S
H970 C962 0.930 . S
H971 C963 0.929 . S
H972 C980 0.929 . S
H973 C982 0.930 . S
H974 C984 0.930 . S
H975 C987 0.929 . S
H976 C990 0.930 . S
H977 C992 0.960 . S
H978 C992 0.960 . S
H979 C992 0.960 . S
C980 H972 0.929 . S
C980 C981 1.377 . S
C980 C982 1.384 . S
C981 C980 1.377 . S
C981 C987 1.390 . S
C982 H973 0.930 . S
C982 C980 1.384 . S
C982 C983 1.372 . S
C983 C982 1.372 . S
C983 C984 1.400 . S
C983 C988 1.490 . S
C984 H974 0.930 . S
C984 C983 1.400 . S
C984 C987 1.386 . S
H985 C1001 0.930 . S
H986 C1002 0.931 . S
C987 H975 0.929 . S
C987 C981 1.390 . S
C987 C984 1.386 . S
C988 C983 1.490 . S
C988 C990 1.395 . S
C988 C991 1.403 . S
H989 C995 0.930 . S
C990 H976 0.930 . S
C990 C988 1.395 . S
C990 C993 1.403 . S
C991 C988 1.403 . S
C991 C992 1.524 . S
C991 C995 1.400 . S
C992 H977 0.960 . S
C992 H978 0.960 . S
C992 H979 0.960 . S
C992 C991 1.524 . S
C993 C990 1.403 . S
C993 C994 1.392 . S
C993 C997 1.495 . S
C994 C993 1.392 . S
C994 C995 1.385 . S
C994 C996 1.478 . S
C995 H989 0.930 . S
C995 C991 1.400 . S
C995 C994 1.385 . S
C996 C994 1.478 . S
C996 C998 1.381 . S
C996 C1002 1.383 . S
C997 C993 1.495 . S
C997 H1003 0.959 . S
C997 H1004 0.961 . S
C997 H1005 0.960 . S
C998 C996 1.381 . S
C998 C999 1.394 . S
C998 H1006 0.930 . S
C999 C998 1.394 . S
C999 C1000 1.383 . S
C999 H1007 0.929 . S
C1000 C999 1.383 . S
C1000 C1001 1.377 . S
C1001 H985 0.930 . S
C1001 C1000 1.377 . S
C1001 C1002 1.379 . S
C1002 H986 0.931 . S
C1002 C996 1.383 . S
C1002 C1001 1.379 . S
H1003 C997 0.959 . S
H1004 C997 0.961 . S
H1005 C997 0.960 . S
H1006 C998 0.930 . S
H1007 C999 0.929 . S
H1008 C1016 0.929 . S
H1009 C1018 0.930 . S
H1010 C1020 0.930 . S
H1011 C1023 0.929 . S
H1012 C1026 0.930 . S
H1013 C1028 0.960 . S
H1014 C1028 0.960 . S
H1015 C1028 0.960 . S
C1016 H1008 0.929 . S
C1016 C1017 1.377 . S
C1016 C1018 1.384 . S
C1017 C1016 1.377 . S
C1017 C1023 1.390 . S
C1018 H1009 0.930 . S
C1018 C1016 1.384 . S
C1018 C1019 1.372 . S
C1019 C1018 1.372 . S
C1019 C1020 1.400 . S
C1019 C1024 1.490 . S
C1020 H1010 0.930 . S
C1020 C1019 1.400 . S
C1020 C1023 1.386 . S
H1021 C1037 0.930 1_655 S
H1022 C1038 0.931 . S
C1023 H1011 0.929 . S
C1023 C1017 1.390 . S
C1023 C1020 1.386 . S
C1024 C1019 1.490 . S
C1024 C1026 1.395 . S
C1024 C1027 1.403 . S
H1025 C1031 0.930 . S
C1026 H1012 0.930 . S
C1026 C1024 1.395 . S
C1026 C1029 1.403 . S
C1027 C1024 1.403 . S
C1027 C1028 1.524 . S
C1027 C1031 1.400 . S
C1028 H1013 0.960 . S
C1028 H1014 0.960 . S
C1028 H1015 0.960 . S
C1028 C1027 1.524 . S
C1029 C1026 1.403 . S
C1029 C1030 1.392 . S
C1029 C1033 1.495 . S
C1030 C1029 1.392 . S
C1030 C1031 1.385 . S
C1030 C1032 1.478 . S
C1031 H1025 0.930 . S
C1031 C1027 1.400 . S
C1031 C1030 1.385 . S
C1032 C1030 1.478 . S
C1032 C1034 1.381 . S
C1032 C1038 1.383 . S
C1033 C1029 1.495 . S
C1033 H1039 0.959 . S
C1033 H1040 0.961 . S
C1033 H1041 0.960 . S
C1034 C1032 1.381 . S
C1034 C1035 1.394 . S
C1034 H1042 0.930 . S
C1035 C1034 1.394 . S
C1035 C1036 1.383 . S
C1035 H1043 0.929 . S
C1036 C1035 1.383 . S
C1036 C1037 1.377 . S
C1037 H1021 0.930 1_455 S
C1037 C1036 1.377 . S
C1037 C1038 1.379 . S
C1038 H1022 0.931 . S
C1038 C1032 1.383 . S
C1038 C1037 1.379 . S
H1039 C1033 0.959 . S
H1040 C1033 0.961 . S
H1041 C1033 0.960 . S
H1042 C1034 0.930 . S
H1043 C1035 0.929 . S
H1044 C1052 0.929 . S
H1045 C1054 0.930 . S
H1046 C1056 0.930 . S
H1047 C1059 0.929 . S
H1048 C1062 0.930 . S
H1049 C1064 0.960 . S
H1050 C1064 0.960 . S
H1051 C1064 0.960 . S
C1052 H1044 0.929 . S
C1052 C1053 1.377 . S
C1052 C1054 1.384 . S
C1053 C1052 1.377 . S
C1053 C1059 1.390 . S
C1054 H1045 0.930 . S
C1054 C1052 1.384 . S
C1054 C1055 1.372 . S
C1055 C1054 1.372 . S
C1055 C1056 1.400 . S
C1055 C1060 1.490 . S
C1056 H1046 0.930 . S
C1056 C1055 1.400 . S
C1056 C1059 1.386 . S
H1057 C1073 0.930 . S
H1058 C1074 0.931 . S
C1059 H1047 0.929 . S
C1059 C1053 1.390 . S
C1059 C1056 1.386 . S
C1060 C1055 1.490 . S
C1060 C1062 1.395 . S
C1060 C1063 1.403 . S
H1061 C1067 0.930 . S
C1062 H1048 0.930 . S
C1062 C1060 1.395 . S
C1062 C1065 1.403 . S
C1063 C1060 1.403 . S
C1063 C1064 1.524 . S
C1063 C1067 1.400 . S
C1064 H1049 0.960 . S
C1064 H1050 0.960 . S
C1064 H1051 0.960 . S
C1064 C1063 1.524 . S
C1065 C1062 1.403 . S
C1065 C1066 1.392 . S
C1065 C1069 1.495 . S
C1066 C1065 1.392 . S
C1066 C1067 1.385 . S
C1066 C1068 1.478 . S
C1067 H1061 0.930 . S
C1067 C1063 1.400 . S
C1067 C1066 1.385 . S
C1068 C1066 1.478 . S
C1068 C1070 1.381 . S
C1068 C1074 1.383 . S
C1069 C1065 1.495 . S
C1069 H1075 0.959 . S
C1069 H1076 0.961 . S
C1069 H1077 0.960 . S
C1070 C1068 1.381 . S
C1070 C1071 1.394 . S
C1070 H1078 0.930 . S
C1071 C1070 1.394 . S
C1071 C1072 1.383 . S
C1071 H1079 0.929 1_545 S
C1072 C1071 1.383 . S
C1072 C1073 1.377 . S
C1073 H1057 0.930 . S
C1073 C1072 1.377 . S
C1073 C1074 1.379 . S
C1074 H1058 0.931 . S
C1074 C1068 1.383 . S
C1074 C1073 1.379 . S
H1075 C1069 0.959 . S
H1076 C1069 0.961 . S
H1077 C1069 0.960 . S
H1078 C1070 0.930 . S
H1079 C1071 0.929 1_565 S
H1080 C1088 0.929 . S
H1081 C1090 0.930 . S
H1082 C1092 0.930 . S
H1083 C1095 0.929 . S
H1084 C1098 0.930 . S
H1085 C1100 0.960 . S
H1086 C1100 0.960 . S
H1087 C1100 0.960 . S
C1088 H1080 0.929 . S
C1088 C1089 1.377 . S
C1088 C1090 1.384 . S
C1089 C1088 1.377 . S
C1089 C1095 1.390 . S
C1090 H1081 0.930 . S
C1090 C1088 1.384 . S
C1090 C1091 1.372 . S
C1091 C1090 1.372 . S
C1091 C1092 1.400 . S
C1091 C1096 1.490 . S
C1092 H1082 0.930 . S
C1092 C1091 1.400 . S
C1092 C1095 1.386 . S
H1093 C1109 0.930 . S
H1094 C1110 0.931 . S
C1095 H1083 0.929 . S
C1095 C1089 1.390 . S
C1095 C1092 1.386 . S
C1096 C1091 1.490 . S
C1096 C1098 1.395 . S
C1096 C1099 1.403 . S
H1097 C1103 0.930 . S
C1098 H1084 0.930 . S
C1098 C1096 1.395 . S
C1098 C1101 1.403 . S
C1099 C1096 1.403 . S
C1099 C1100 1.524 . S
C1099 C1103 1.400 . S
C1100 H1085 0.960 . S
C1100 H1086 0.960 . S
C1100 H1087 0.960 . S
C1100 C1099 1.524 . S
C1101 C1098 1.403 . S
C1101 C1102 1.392 . S
C1101 C1105 1.495 . S
C1102 C1101 1.392 . S
C1102 C1103 1.385 . S
C1102 C1104 1.478 . S
C1103 H1097 0.930 . S
C1103 C1099 1.400 . S
C1103 C1102 1.385 . S
C1104 C1102 1.478 . S
C1104 C1106 1.381 . S
C1104 C1110 1.383 . S
C1105 C1101 1.495 . S
C1105 H1111 0.959 . S
C1105 H1112 0.961 . S
C1105 H1113 0.960 . S
C1106 C1104 1.381 . S
C1106 C1107 1.394 . S
C1106 H1114 0.930 . S
C1107 C1106 1.394 . S
C1107 C1108 1.383 . S
C1107 H1115 0.929 . S
C1108 C1107 1.383 . S
C1108 C1109 1.377 . S
C1109 H1093 0.930 . S
C1109 C1108 1.377 . S
C1109 C1110 1.379 . S
C1110 H1094 0.931 . S
C1110 C1104 1.383 . S
C1110 C1109 1.379 . S
H1111 C1105 0.959 . S
H1112 C1105 0.961 . S
H1113 C1105 0.960 . S
H1114 C1106 0.930 . S
H1115 C1107 0.929 . S
H1116 C1124 0.929 . S
H1117 C1126 0.930 . S
H1118 C1128 0.930 . S
H1119 C1131 0.929 . S
H1120 C1134 0.930 . S
H1121 C1136 0.960 . S
H1122 C1136 0.960 . S
H1123 C1136 0.960 . S
C1124 H1116 0.929 . S
C1124 C1125 1.377 . S
C1124 C1126 1.384 . S
C1125 C1124 1.377 . S
C1125 C1131 1.390 . S
C1126 H1117 0.930 . S
C1126 C1124 1.384 . S
C1126 C1127 1.372 . S
C1127 C1126 1.372 . S
C1127 C1128 1.400 . S
C1127 C1132 1.490 . S
C1128 H1118 0.930 . S
C1128 C1127 1.400 . S
C1128 C1131 1.386 . S
H1129 C1145 0.930 . S
H1130 C1146 0.931 . S
C1131 H1119 0.929 . S
C1131 C1125 1.390 . S
C1131 C1128 1.386 . S
C1132 C1127 1.490 . S
C1132 C1134 1.395 . S
C1132 C1135 1.403 . S
H1133 C1139 0.930 . S
C1134 H1120 0.930 . S
C1134 C1132 1.395 . S
C1134 C1137 1.403 . S
C1135 C1132 1.403 . S
C1135 C1136 1.524 . S
C1135 C1139 1.400 . S
C1136 H1121 0.960 . S
C1136 H1122 0.960 . S
C1136 H1123 0.960 . S
C1136 C1135 1.524 . S
C1137 C1134 1.403 . S
C1137 C1138 1.392 . S
C1137 C1141 1.495 . S
C1138 C1137 1.392 . S
C1138 C1139 1.385 . S
C1138 C1140 1.478 . S
C1139 H1133 0.930 . S
C1139 C1135 1.400 . S
C1139 C1138 1.385 . S
C1140 C1138 1.478 . S
C1140 C1142 1.381 . S
C1140 C1146 1.383 . S
C1141 C1137 1.495 . S
C1141 H1147 0.959 . S
C1141 H1148 0.961 . S
C1141 H1149 0.960 . S
C1142 C1140 1.381 . S
C1142 C1143 1.394 . S
C1142 H1150 0.930 . S
C1143 C1142 1.394 . S
C1143 C1144 1.383 . S
C1143 H1151 0.929 . S
C1144 C1143 1.383 . S
C1144 C1145 1.377 . S
C1145 H1129 0.930 . S
C1145 C1144 1.377 . S
C1145 C1146 1.379 . S
C1146 H1130 0.931 . S
C1146 C1140 1.383 . S
C1146 C1145 1.379 . S
H1147 C1141 0.959 . S
H1148 C1141 0.961 . S
H1149 C1141 0.960 . S
H1150 C1142 0.930 . S
H1151 C1143 0.929 . S
H1152 C1160 0.929 . S
H1153 C1162 0.930 . S
H1154 C1164 0.930 . S
H1155 C1167 0.929 . S
H1156 C1170 0.930 . S
H1157 C1172 0.960 . S
H1158 C1172 0.960 . S
H1159 C1172 0.960 . S
C1160 H1152 0.929 . S
C1160 C1161 1.377 . S
C1160 C1162 1.384 . S
C1161 C1160 1.377 . S
C1161 C1167 1.390 . S
C1162 H1153 0.930 . S
C1162 C1160 1.384 . S
C1162 C1163 1.372 . S
C1163 C1162 1.372 . S
C1163 C1164 1.400 . S
C1163 C1168 1.490 . S
C1164 H1154 0.930 . S
C1164 C1163 1.400 . S
C1164 C1167 1.386 . S
H1165 C1181 0.930 . S
H1166 C1182 0.931 . S
C1167 H1155 0.929 . S
C1167 C1161 1.390 . S
C1167 C1164 1.386 . S
C1168 C1163 1.490 . S
C1168 C1170 1.395 . S
C1168 C1171 1.403 . S
H1169 C1175 0.930 . S
C1170 H1156 0.930 . S
C1170 C1168 1.395 . S
C1170 C1173 1.403 . S
C1171 C1168 1.403 . S
C1171 C1172 1.524 . S
C1171 C1175 1.400 . S
C1172 H1157 0.960 . S
C1172 H1158 0.960 . S
C1172 H1159 0.960 . S
C1172 C1171 1.524 . S
C1173 C1170 1.403 . S
C1173 C1174 1.392 . S
C1173 C1177 1.495 . S
C1174 C1173 1.392 . S
C1174 C1175 1.385 . S
C1174 C1176 1.478 . S
C1175 H1169 0.930 . S
C1175 C1171 1.400 . S
C1175 C1174 1.385 . S
C1176 C1174 1.478 . S
C1176 C1178 1.381 . S
C1176 C1182 1.383 . S
C1177 C1173 1.495 . S
C1177 H1183 0.959 . S
C1177 H1184 0.961 . S
C1177 H1185 0.960 . S
C1178 C1176 1.381 . S
C1178 C1179 1.394 . S
C1178 H1186 0.930 . S
C1179 C1178 1.394 . S
C1179 C1180 1.383 . S
C1179 H1187 0.929 . S
C1180 C1179 1.383 . S
C1180 C1181 1.377 . S
C1181 H1165 0.930 . S
C1181 C1180 1.377 . S
C1181 C1182 1.379 . S
C1182 H1166 0.931 . S
C1182 C1176 1.383 . S
C1182 C1181 1.379 . S
H1183 C1177 0.959 . S
H1184 C1177 0.961 . S
H1185 C1177 0.960 . S
H1186 C1178 0.930 . S
H1187 C1179 0.929 . S
H1188 C1196 0.929 . S
H1189 C1198 0.930 . S
H1190 C1200 0.930 . S
H1191 C1203 0.929 . S
H1192 C1206 0.930 . S
H1193 C1208 0.960 . S
H1194 C1208 0.960 . S
H1195 C1208 0.960 . S
C1196 H1188 0.929 . S
C1196 C1197 1.377 . S
C1196 C1198 1.384 . S
C1197 C1196 1.377 . S
C1197 C1203 1.390 . S
C1198 H1189 0.930 . S
C1198 C1196 1.384 . S
C1198 C1199 1.372 . S
C1199 C1198 1.372 . S
C1199 C1200 1.400 . S
C1199 C1204 1.490 . S
C1200 H1190 0.930 . S
C1200 C1199 1.400 . S
C1200 C1203 1.386 . S
H1201 C1217 0.930 . S
H1202 C1218 0.931 . S
C1203 H1191 0.929 . S
C1203 C1197 1.390 . S
C1203 C1200 1.386 . S
C1204 C1199 1.490 . S
C1204 C1206 1.395 . S
C1204 C1207 1.403 . S
H1205 C1211 0.930 . S
C1206 H1192 0.930 . S
C1206 C1204 1.395 . S
C1206 C1209 1.403 . S
C1207 C1204 1.403 . S
C1207 C1208 1.524 . S
C1207 C1211 1.400 . S
C1208 H1193 0.960 . S
C1208 H1194 0.960 . S
C1208 H1195 0.960 . S
C1208 C1207 1.524 . S
C1209 C1206 1.403 . S
C1209 C1210 1.392 . S
C1209 C1213 1.495 . S
C1210 C1209 1.392 . S
C1210 C1211 1.385 . S
C1210 C1212 1.478 . S
C1211 H1205 0.930 . S
C1211 C1207 1.400 . S
C1211 C1210 1.385 . S
C1212 C1210 1.478 . S
C1212 C1214 1.381 . S
C1212 C1218 1.383 . S
C1213 C1209 1.495 . S
C1213 H1219 0.959 . S
C1213 H1220 0.961 . S
C1213 H1221 0.960 . S
C1214 C1212 1.381 . S
C1214 C1215 1.394 . S
C1214 H1222 0.930 . S
C1215 C1214 1.394 . S
C1215 C1216 1.383 . S
C1215 H1223 0.929 . S
C1216 C1215 1.383 . S
C1216 C1217 1.377 . S
C1217 H1201 0.930 . S
C1217 C1216 1.377 . S
C1217 C1218 1.379 . S
C1218 H1202 0.931 . S
C1218 C1212 1.383 . S
C1218 C1217 1.379 . S
H1219 C1213 0.959 . S
H1220 C1213 0.961 . S
H1221 C1213 0.960 . S
H1222 C1214 0.930 . S
H1223 C1215 0.929 . S
H1224 C1232 0.929 . S
H1225 C1234 0.930 . S
H1226 C1236 0.930 . S
H1227 C1239 0.929 . S
H1228 C1242 0.930 . S
H1229 C1244 0.960 . S
H1230 C1244 0.960 . S
H1231 C1244 0.960 . S
C1232 H1224 0.929 . S
C1232 C1233 1.377 . S
C1232 C1234 1.384 . S
C1233 C1232 1.377 . S
C1233 C1239 1.390 . S
C1234 H1225 0.930 . S
C1234 C1232 1.384 . S
C1234 C1235 1.372 . S
C1235 C1234 1.372 . S
C1235 C1236 1.400 . S
C1235 C1240 1.490 . S
C1236 H1226 0.930 . S
C1236 C1235 1.400 . S
C1236 C1239 1.386 . S
H1237 C1253 0.930 . S
H1238 C1254 0.931 . S
C1239 H1227 0.929 . S
C1239 C1233 1.390 . S
C1239 C1236 1.386 . S
C1240 C1235 1.490 . S
C1240 C1242 1.395 . S
C1240 C1243 1.403 . S
H1241 C1247 0.930 . S
C1242 H1228 0.930 . S
C1242 C1240 1.395 . S
C1242 C1245 1.403 . S
C1243 C1240 1.403 . S
C1243 C1244 1.524 . S
C1243 C1247 1.400 . S
C1244 H1229 0.960 . S
C1244 H1230 0.960 . S
C1244 H1231 0.960 . S
C1244 C1243 1.524 . S
C1245 C1242 1.403 . S
C1245 C1246 1.392 . S
C1245 C1249 1.495 . S
C1246 C1245 1.392 . S
C1246 C1247 1.385 . S
C1246 C1248 1.478 . S
C1247 H1241 0.930 . S
C1247 C1243 1.400 . S
C1247 C1246 1.385 . S
C1248 C1246 1.478 . S
C1248 C1250 1.381 . S
C1248 C1254 1.383 . S
C1249 C1245 1.495 . S
C1249 H1255 0.959 . S
C1249 H1256 0.961 . S
C1249 H1257 0.960 . S
C1250 C1248 1.381 . S
C1250 C1251 1.394 . S
C1250 H1258 0.930 . S
C1251 C1250 1.394 . S
C1251 C1252 1.383 . S
C1251 H1259 0.929 . S
C1252 C1251 1.383 . S
C1252 C1253 1.377 . S
C1253 H1237 0.930 . S
C1253 C1252 1.377 . S
C1253 C1254 1.379 . S
C1254 H1238 0.931 . S
C1254 C1248 1.383 . S
C1254 C1253 1.379 . S
H1255 C1249 0.959 . S
H1256 C1249 0.961 . S
H1257 C1249 0.960 . S
H1258 C1250 0.930 . S
H1259 C1251 0.929 . S
H1260 C1268 0.929 . S
H1261 C1270 0.930 . S
H1262 C1272 0.930 . S
H1263 C1275 0.929 . S
H1264 C1278 0.930 . S
H1265 C1280 0.960 . S
H1266 C1280 0.960 . S
H1267 C1280 0.960 . S
C1268 H1260 0.929 . S
C1268 C1269 1.377 . S
C1268 C1270 1.384 . S
C1269 C1268 1.377 . S
C1269 C1275 1.390 . S
C1270 H1261 0.930 . S
C1270 C1268 1.384 . S
C1270 C1271 1.372 . S
C1271 C1270 1.372 . S
C1271 C1272 1.400 . S
C1271 C1276 1.490 . S
C1272 H1262 0.930 . S
C1272 C1271 1.400 . S
C1272 C1275 1.386 . S
H1273 C1289 0.930 . S
H1274 C1290 0.931 . S
C1275 H1263 0.929 . S
C1275 C1269 1.390 . S
C1275 C1272 1.386 . S
C1276 C1271 1.490 . S
C1276 C1278 1.395 . S
C1276 C1279 1.403 . S
H1277 C1283 0.930 . S
C1278 H1264 0.930 . S
C1278 C1276 1.395 . S
C1278 C1281 1.403 . S
C1279 C1276 1.403 . S
C1279 C1280 1.524 . S
C1279 C1283 1.400 . S
C1280 H1265 0.960 . S
C1280 H1266 0.960 . S
C1280 H1267 0.960 . S
C1280 C1279 1.524 . S
C1281 C1278 1.403 . S
C1281 C1282 1.392 . S
C1281 C1285 1.495 . S
C1282 C1281 1.392 . S
C1282 C1283 1.385 . S
C1282 C1284 1.478 . S
C1283 H1277 0.930 . S
C1283 C1279 1.400 . S
C1283 C1282 1.385 . S
C1284 C1282 1.478 . S
C1284 C1286 1.381 . S
C1284 C1290 1.383 . S
C1285 C1281 1.495 . S
C1285 H1291 0.959 . S
C1285 H1292 0.961 . S
C1285 H1293 0.960 . S
C1286 C1284 1.381 . S
C1286 C1287 1.394 . S
C1286 H1294 0.930 . S
C1287 C1286 1.394 . S
C1287 C1288 1.383 . S
C1287 H1295 0.929 . S
C1288 C1287 1.383 . S
C1288 C1289 1.377 . S
C1289 H1273 0.930 . S
C1289 C1288 1.377 . S
C1289 C1290 1.379 . S
C1290 H1274 0.931 . S
C1290 C1284 1.383 . S
C1290 C1289 1.379 . S
H1291 C1285 0.959 . S
H1292 C1285 0.961 . S
H1293 C1285 0.960 . S
H1294 C1286 0.930 . S
H1295 C1287 0.929 . S
C441 C302 1.174 . S
C460 C14 1.135 . S
C477 C50 1.160 . S
C496 C338 1.176 . S
C513 C86 1.160 . S
C532 C374 1.177 . S
C549 C122 1.168 . S
C568 C410 1.133 . S
C585 C230 1.174 . S
C604 C158 1.158 . S
C621 C194 1.164 . S
C640 C266 1.146 . S
C657 C4 1.501 . S
C676 C183 1.522 . S
C693 C40 1.500 . S
C712 C3 1.508 1_655 S
C729 C76 1.498 . S
C748 C39 1.503 1_565 S
C765 C75 1.517 . S
C784 C112 1.504 . S
C801 C111 1.515 1_455 S
C820 C148 1.491 . S
C837 C147 1.515 1_545 S
C856 C184 1.509 . S
C873 C255 1.517 . S
C892 C220 1.513 . S
C909 C256 1.497 . S
C928 C291 1.511 1_655 S
C945 C327 1.512 1_565 S
C964 C292 1.483 . S
C981 C328 1.503 . S
C1000 C363 1.517 . S
C1017 C364 1.503 . S
C1036 C399 1.519 1_455 S
C1053 C400 1.497 . S
C1072 C219 1.513 1_545 S
C1089 C362 1.174 . S
C1108 C2 1.151 . S
C1125 C398 1.172 . S
C1144 C38 1.148 . S
C1161 C218 1.168 . S
C1180 C74 1.187 . S
C1197 C110 1.173 . S
C1216 C254 1.172 . S
C1233 C146 1.166 . S
C1252 C290 1.175 1_556 S
C1269 C326 1.167 . S
C1288 C182 1.171 1_554 S
