# Generated by pormake.
# Topology vmo, (7)-cn, num edge types: 1
# Building blocks:
#     Node 0, Type 0, BuildingBlock: NUHQUE_clean_sbu_2, # of connection points: 7
#     Node 1, Type 0, BuildingBlock: NUHQUE_clean_sbu_2, # of connection points: 7
#     Node 2, Type 0, BuildingBlock: NUHQUE_clean_sbu_2, # of connection points: 7
#     Node 3, Type 0, BuildingBlock: NUHQUE_clean_sbu_2, # of connection points: 7
#     Node 4, Type 0, BuildingBlock: NUHQUE_clean_sbu_2, # of connection points: 7
#     Node 5, Type 0, BuildingBlock: NUHQUE_clean_sbu_2, # of connection points: 7
#     Node 6, Type 0, BuildingBlock: NUHQUE_clean_sbu_2, # of connection points: 7
#     Node 7, Type 0, BuildingBlock: NUHQUE_clean_sbu_2, # of connection points: 7
#     Edge 8, Type (0, 0), BuildingBlock: EZIPEK_clean_linker_0, # of connection points: 2
#     Edge 9, Type (0, 0), BuildingBlock: EZIPEK_clean_linker_0, # of connection points: 2
#     Edge 10, Type (0, 0), BuildingBlock: EZIPEK_clean_linker_0, # of connection points: 2
#     Edge 11, Type (0, 0), BuildingBlock: EZIPEK_clean_linker_0, # of connection points: 2
#     Edge 12, Type (0, 0), BuildingBlock: EZIPEK_clean_linker_0, # of connection points: 2
#     Edge 13, Type (0, 0), BuildingBlock: EZIPEK_clean_linker_0, # of connection points: 2
#     Edge 14, Type (0, 0), BuildingBlock: EZIPEK_clean_linker_0, # of connection points: 2
#     Edge 15, Type (0, 0), BuildingBlock: EZIPEK_clean_linker_0, # of connection points: 2
#     Edge 16, Type (0, 0), BuildingBlock: EZIPEK_clean_linker_0, # of connection points: 2
#     Edge 17, Type (0, 0), BuildingBlock: EZIPEK_clean_linker_0, # of connection points: 2
#     Edge 18, Type (0, 0), BuildingBlock: EZIPEK_clean_linker_0, # of connection points: 2
#     Edge 19, Type (0, 0), BuildingBlock: EZIPEK_clean_linker_0, # of connection points: 2
#     Edge 20, Type (0, 0), BuildingBlock: EZIPEK_clean_linker_0, # of connection points: 2
#     Edge 21, Type (0, 0), BuildingBlock: EZIPEK_clean_linker_0, # of connection points: 2
#     Edge 22, Type (0, 0), BuildingBlock: EZIPEK_clean_linker_0, # of connection points: 2
#     Edge 23, Type (0, 0), BuildingBlock: EZIPEK_clean_linker_0, # of connection points: 2
#     Edge 24, Type (0, 0), BuildingBlock: EZIPEK_clean_linker_0, # of connection points: 2
#     Edge 25, Type (0, 0), BuildingBlock: EZIPEK_clean_linker_0, # of connection points: 2
#     Edge 26, Type (0, 0), BuildingBlock: EZIPEK_clean_linker_0, # of connection points: 2
#     Edge 27, Type (0, 0), BuildingBlock: EZIPEK_clean_linker_0, # of connection points: 2
#     Edge 28, Type (0, 0), BuildingBlock: EZIPEK_clean_linker_0, # of connection points: 2
#     Edge 29, Type (0, 0), BuildingBlock: EZIPEK_clean_linker_0, # of connection points: 2
#     Edge 30, Type (0, 0), BuildingBlock: EZIPEK_clean_linker_0, # of connection points: 2
#     Edge 31, Type (0, 0), BuildingBlock: EZIPEK_clean_linker_0, # of connection points: 2
#     Edge 32, Type (0, 0), BuildingBlock: EZIPEK_clean_linker_0, # of connection points: 2
#     Edge 33, Type (0, 0), BuildingBlock: EZIPEK_clean_linker_0, # of connection points: 2
#     Edge 34, Type (0, 0), BuildingBlock: EZIPEK_clean_linker_0, # of connection points: 2
#     Edge 35, Type (0, 0), BuildingBlock: EZIPEK_clean_linker_0, # of connection points: 2
# Relax obj value: 0.258
# Max RMSD: 0.268
# Mean RMSD: 0.268
data_MOF--net-vmo--node1-NUHQUE_clean_sbu_2--edge1-EZIPEK_clean_linker_0
_symmetry_space_group_name_H-M    P1
_symmetry_Int_Tables_number       1
_symmetry_cell_setting            triclinic
loop_
_symmetry_equiv_pos_as_xyz
'x, y, z'
_cell_length_a     25.003656
_cell_length_b     47.484498
_cell_length_c     19.97853
_cell_angle_alpha  89.867056
_cell_angle_beta   112.21488
_cell_angle_gamma 89.786612
loop_
_atom_site_label
_atom_site_type_symbol
_atom_site_fract_x
_atom_site_fract_y
_atom_site_fract_z
_atom_type_partial_charge
O0 O 0.31782 0.45971 0.36245 0.0
Tb1 Tb 0.25804 0.44069 0.262 0.0
Eu2 Eu 0.20539 0.38841 0.12694 0.0
C3 C 0.30717 0.45911 0.42225 0.0
O4 O 0.26951 0.44085 0.42695 0.0
C5 C 0.16327 0.39831 0.25718 0.0
O6 O 0.15777 0.37353 1.01043 0.0
C7 C 0.2952 0.35734 0.19841 0.0
C8 C 0.11478 0.38891 0.96539 0.0
O9 O 0.09745 0.41116 0.99073 0.0
C10 C 0.27164 0.445 0.11355 0.0
C11 C 0.33895 0.33952 0.18476 0.0
C12 C 0.39838 0.34146 0.22876 0.0
C13 C 0.43961 0.32355 0.21721 0.0
C14 C 0.41946 0.30316 0.16198 0.0
C15 C 0.36015 0.29972 0.12237 0.0
C16 C 0.32065 0.31858 0.13168 0.0
O17 O 0.21778 0.40508 0.2958 0.0
O18 O 0.14545 0.3961 0.18624 0.0
O19 O 0.21628 0.48135 0.26086 0.0
O20 O 0.17454 0.45077 0.18077 0.0
C21 C 0.17073 0.47579 0.20408 0.0
O22 O 0.22782 0.42801 0.08239 0.0
O23 O 0.30101 0.44447 0.18455 0.0
O24 O 0.24169 0.34803 0.17271 0.0
O25 O 0.29833 0.38473 0.19121 0.0
H26 H 0.41237 0.35658 0.27248 0.0
H27 H 0.4496 0.28861 0.15305 0.0
H28 H 0.27505 0.31571 0.09992 0.0
O29 O 0.84439 0.46441 0.25051 0.0
Tb30 Tb 0.88488 0.44294 0.35533 0.0
Eu31 Eu 0.91897 0.38807 0.48727 0.0
C32 C 0.87385 0.46806 0.20841 0.0
O33 O 0.92564 0.45686 0.22782 0.0
C34 C 0.97796 0.39781 0.37 0.0
O35 O 0.96247 0.37437 0.60578 0.0
C36 C 0.83346 0.3552 0.41448 0.0
C37 C 1.00282 0.39047 0.65185 0.0
O38 O 1.01864 0.4133 0.62703 0.0
C39 C 0.84392 0.444 0.48163 0.0
C40 C 0.7897 0.3373 0.42759 0.0
C41 C 0.73008 0.33985 0.38474 0.0
C42 C 0.68903 0.32195 0.39638 0.0
C43 C 0.70955 0.30097 0.45061 0.0
C44 C 0.769 0.29692 0.48878 0.0
C45 C 0.80827 0.31568 0.47928 0.0
O46 O 0.92759 0.4077 0.32486 0.0
O47 O 0.98695 0.39255 0.43834 0.0
O48 O 0.95968 0.44668 0.4545 0.0
O49 O 0.93454 0.48195 0.38324 0.0
C50 C 0.97182 0.47231 0.44391 0.0
O51 O 0.88837 0.42834 0.52105 0.0
O52 O 0.82374 0.44304 0.41006 0.0
O53 O 0.88758 0.34684 0.44497 0.0
O54 O 0.82773 0.38264 0.41674 0.0
H55 H 0.71578 0.35546 0.34188 0.0
H56 H 0.67957 0.28647 0.45969 0.0
H57 H 0.85394 0.31228 0.5101 0.0
O58 O 0.88074 0.51488 0.7637 0.0
Tb59 Tb 0.91007 0.54286 0.85778 0.0
Eu60 Eu 0.93854 0.59661 0.97944 0.0
C61 C 0.84514 0.52298 0.69888 0.0
O62 O 0.82231 0.54835 0.69014 0.0
C63 C 0.98875 0.59186 0.85248 0.0
O64 O 0.98767 0.60809 0.09864 0.0
C65 C 0.85584 0.63233 0.91332 0.0
C66 C 1.02107 0.58923 0.1448 0.0
O67 O 1.0268 0.5642 0.12064 0.0
C68 C 0.86264 0.54107 0.9791 0.0
C69 C 0.80896 0.65046 0.91912 0.0
C70 C 0.74973 0.6445 0.8807 0.0
C71 C 0.70656 0.66422 0.87909 0.0
C72 C 0.72336 0.68989 0.91607 0.0
C73 C 0.78188 0.69578 0.95462 0.0
C74 C 0.82396 0.67609 0.95641 0.0
O75 O 0.93995 0.57898 0.81389 0.0
O76 O 1.00265 0.59441 0.92286 0.0
O77 O 0.97548 0.50981 0.90184 0.0
O78 O 0.97926 0.54707 0.96185 0.0
C79 C 1.00328 0.52313 0.96168 0.0
O80 O 0.90439 0.55818 1.01748 0.0
O81 O 0.84577 0.53992 0.90769 0.0
O82 O 0.90926 0.63943 0.95315 0.0
O83 O 0.84864 0.6049 0.90603 0.0
H84 H 0.73723 0.62505 0.85066 0.0
H85 H 0.6909 0.70532 0.91478 0.0
H86 H 0.86892 0.68144 0.98558 0.0
O87 O 0.29987 0.51552 0.8463 0.0
Tb88 Tb 0.26661 0.54168 0.74864 0.0
Eu89 Eu 0.23062 0.59459 0.62024 0.0
C90 C 0.30492 0.52491 0.91044 0.0
O91 O 0.29687 0.55182 0.91847 0.0
C92 C 0.17306 0.58581 0.73978 0.0
O93 O 0.18476 0.60542 0.49992 0.0
C94 C 0.3096 0.63119 0.68904 0.0
C95 C 0.13924 0.59086 0.45835 0.0
O96 O 0.11874 0.57116 0.48818 0.0
C97 C 0.31354 0.54117 0.62893 0.0
C98 C 0.35566 0.64997 0.68424 0.0
C99 C 0.41519 0.64409 0.72148 0.0
C100 C 0.45746 0.66412 0.72271 0.0
C101 C 0.43945 0.68991 0.68597 0.0
C102 C 0.38056 0.69577 0.64901 0.0
C103 C 0.33939 0.67591 0.64826 0.0
O104 O 0.22318 0.57524 0.78377 0.0
O105 O 0.1633 0.59076 0.67095 0.0
O106 O 0.19517 0.54062 0.64529 0.0
O107 O 0.21385 0.50404 0.71227 0.0
C108 C 0.18032 0.51505 0.65121 0.0
O109 O 0.26873 0.55625 0.58772 0.0
O110 O 0.33159 0.54237 0.70024 0.0
O111 O 0.25603 0.63768 0.64759 0.0
O112 O 0.31876 0.60387 0.69674 0.0
H113 H 0.42865 0.62445 0.75086 0.0
H114 H 0.4712 0.70549 0.68651 0.0
H115 H 0.29414 0.68122 0.62018 0.0
O116 O 0.79118 0.96728 0.35428 0.0
Tb117 Tb 0.75762 0.94049 0.25804 0.0
Eu118 Eu 0.72042 0.88769 0.12305 0.0
C119 C 0.81005 0.95806 0.42156 0.0
O120 O 0.81961 0.93098 0.43438 0.0
C121 C 0.67456 0.89329 0.25286 0.0
O122 O 0.67545 0.87466 1.00379 0.0
C123 C 0.80847 0.85504 0.19183 0.0
C124 C 0.63448 0.89059 0.95693 0.0
O125 O 0.61731 0.91327 0.98079 0.0
C126 C 0.79308 0.94454 0.12769 0.0
C127 C 0.85237 0.83737 0.17795 0.0
C128 C 0.91185 0.83952 0.22154 0.0
C129 C 0.95316 0.82159 0.21023 0.0
C130 C 0.93307 0.80099 0.15547 0.0
C131 C 0.87371 0.79731 0.11641 0.0
C132 C 0.83415 0.81612 0.12566 0.0
O133 O 0.72701 0.90221 0.29247 0.0
O134 O 0.65847 0.89107 0.18196 0.0
O135 O 0.69931 0.97656 0.23719 0.0
O136 O 0.6814 0.94408 0.15906 0.0
C137 C 0.66446 0.96808 0.17439 0.0
O138 O 0.74826 0.92893 0.08985 0.0
O139 O 0.81553 0.94351 0.1993 0.0
O140 O 0.75464 0.84639 0.16315 0.0
O141 O 0.81292 0.88252 0.18887 0.0
H142 H 0.92582 0.8548 0.26489 0.0
H143 H 0.96328 0.78645 0.1467 0.0
H144 H 0.78854 0.813 0.09437 0.0
O145 O 0.34931 0.96691 0.2537 0.0
Tb146 Tb 0.39693 0.94172 0.3509 0.0
Eu147 Eu 0.43657 0.88489 0.47801 0.0
C148 C 0.36204 0.96629 0.1952 0.0
O149 O 0.39765 0.94686 0.1898 0.0
C150 C 0.48017 0.89438 0.34688 0.0
O151 O 0.485 0.8714 0.59658 0.0
C152 C 0.3469 0.85377 0.41009 0.0
C153 C 0.52538 0.88791 0.64164 0.0
O154 O 0.54035 0.91062 0.61547 0.0
C155 C 0.37266 0.94339 0.4916 0.0
C156 C 0.30275 0.8368 0.42487 0.0
C157 C 0.24337 0.83902 0.38069 0.0
C158 C 0.20207 0.82128 0.39222 0.0
C159 C 0.22216 0.80065 0.44741 0.0
C160 C 0.28148 0.797 0.48727 0.0
C161 C 0.32087 0.81585 0.47838 0.0
O162 O 0.42836 0.90512 0.30932 0.0
O163 O 0.49657 0.88954 0.41701 0.0
O164 O 0.47813 0.94219 0.44246 0.0
O165 O 0.45357 0.9783 0.37552 0.0
C166 C 0.49366 0.96716 0.43165 0.0
O167 O 0.41266 0.92421 0.52272 0.0
O168 O 0.34711 0.94524 0.42018 0.0
O169 O 0.40037 0.8442 0.43801 0.0
O170 O 0.34369 0.88137 0.41315 0.0
H171 H 0.22949 0.85415 0.33667 0.0
H172 H 0.19205 0.78609 0.45598 0.0
H173 H 0.36644 0.81273 0.5103 0.0
O174 O 0.35093 0.01987 0.76102 0.0
Tb175 Tb 0.38693 0.04777 0.85505 0.0
Eu176 Eu 0.42797 0.10111 0.97905 0.0
C177 C 0.35331 0.02571 0.69756 0.0
O178 O 0.37119 0.05061 0.68674 0.0
C179 C 0.47497 0.09235 0.85054 0.0
O180 O 0.47771 0.11248 0.09813 0.0
C181 C 0.34529 0.1368 0.91264 0.0
C182 C 0.51497 0.09442 0.14267 0.0
O183 O 0.5254 0.07062 0.11637 0.0
C184 C 0.34746 0.04827 0.98158 0.0
C185 C 0.29797 0.15442 0.91902 0.0
C186 C 0.23889 0.1479 0.8814 0.0
C187 C 0.19506 0.16693 0.88137 0.0
C188 C 0.21105 0.19237 0.91969 0.0
C189 C 0.26943 0.19886 0.95709 0.0
C190 C 0.3122 0.17996 0.95675 0.0
O191 O 0.4231 0.08222 0.81213 0.0
O192 O 0.49041 0.09689 0.92062 0.0
O193 O 0.43978 0.01006 0.89572 0.0
O194 O 0.46301 0.04828 0.95426 0.0
C195 C 0.47638 0.02213 0.95275 0.0
O196 O 0.39382 0.06305 1.01844 0.0
O197 O 0.32619 0.049 0.91003 0.0
O198 O 0.39863 0.14401 0.95272 0.0
O199 O 0.33846 0.10938 0.90496 0.0
H200 H 0.22697 0.12856 0.85074 0.0
H201 H 0.17808 0.20722 0.91995 0.0
H202 H 0.35701 0.18576 0.98519 0.0
O203 O 0.80417 0.02268 0.8569 0.0
Tb204 Tb 0.75774 0.0454 0.75561 0.0
Eu205 Eu 0.71568 0.09626 0.62076 0.0
C206 C 0.78731 0.02403 0.91193 0.0
O207 O 0.74865 0.043 0.91074 0.0
C208 C 0.66627 0.09016 0.74772 0.0
O209 O 0.67019 0.10921 0.5018 0.0
C210 C 0.79974 0.13027 0.6915 0.0
C211 C 0.62971 0.09294 0.45655 0.0
O212 O 0.61435 0.07018 0.48202 0.0
C213 C 0.79279 0.0411 0.62468 0.0
C214 C 0.8447 0.14947 0.68541 0.0
C215 C 0.9044 0.14425 0.72344 0.0
C216 C 0.94591 0.16474 0.72491 0.0
C217 C 0.9269 0.19042 0.68808 0.0
C218 C 0.86786 0.19554 0.64977 0.0
C219 C 0.82747 0.17508 0.64806 0.0
O220 O 0.71888 0.08148 0.78928 0.0
O221 O 0.65163 0.09239 0.67696 0.0
O222 O 0.68176 0.04136 0.65793 0.0
O223 O 0.70468 0.0073 0.73199 0.0
C224 C 0.66749 0.01642 0.67069 0.0
O225 O 0.74718 0.05619 0.58574 0.0
O226 O 0.81532 0.04317 0.69609 0.0
O227 O 0.74557 0.13809 0.65796 0.0
O228 O 0.80705 0.1029 0.69025 0.0
H229 H 0.91852 0.12474 0.75331 0.0
H230 H 0.95801 0.20644 0.68924 0.0
H231 H 0.78207 0.17977 0.61882 0.0
C232 C 0.59373 0.34923 0.33364 0.0
C233 C 0.62522 0.32334 0.34904 0.0
C234 C 0.53313 0.29853 0.29295 0.0
C235 C 0.50316 0.32417 0.26564 0.0
N236 N 0.51185 0.37414 0.24744 0.0
N237 N 0.6229 0.27396 0.31767 0.0
C238 C 0.53538 0.34968 0.28235 0.0
C239 C 0.59436 0.29814 0.321 0.0
N240 N 0.61799 0.3732 0.36978 0.0
N241 N 0.5037 0.27462 0.29511 0.0
H242 H 0.66736 0.27329 0.33061 0.0
H243 H 0.60125 0.25571 0.29313 0.0
H244 H 0.45913 0.27445 0.28161 0.0
H245 H 0.52467 0.25602 0.31911 0.0
H246 H 0.59476 0.39193 0.36415 0.0
H247 H 0.6587 0.3735 0.41129 0.0
H248 H 0.53564 0.39263 0.25398 0.0
H249 H 0.47111 0.37513 0.20606 0.0
C250 C 0.54519 0.65918 0.84003 0.0
C251 C 0.52101 0.65896 0.76317 0.0
C252 C 0.61909 0.65971 0.76148 0.0
C253 C 0.64326 0.65889 0.83832 0.0
N254 N 0.62946 0.65074 0.9497 0.0
N255 N 0.53496 0.65198 0.65152 0.0
C256 C 0.6062 0.65628 0.87716 0.0
C257 C 0.55811 0.65691 0.72423 0.0
N258 N 0.5104 0.66378 0.87777 0.0
N259 N 0.65384 0.66474 0.72395 0.0
H260 H 0.49066 0.64959 0.62286 0.0
H261 H 0.55982 0.64754 0.62112 0.0
H262 H 0.69848 0.66703 0.74886 0.0
H263 H 0.63797 0.66886 0.66862 0.0
H264 H 0.52626 0.66745 0.93323 0.0
H265 H 0.46574 0.66623 0.853 0.0
H266 H 0.60468 0.64589 0.97992 0.0
H267 H 0.67381 0.64826 0.97826 0.0
C268 C 1.04718 0.797 0.28674 0.0
C269 C 1.01675 0.82247 0.25856 0.0
C270 C 0.1066 0.84807 0.32672 0.0
C271 C 0.13856 0.82233 0.34354 0.0
N272 N 0.13775 0.77284 0.31387 0.0
N273 N 1.02466 0.87237 0.23886 0.0
C274 C 0.10843 0.79693 0.31576 0.0
C275 C 1.04847 0.84813 0.27479 0.0
N276 N 1.01815 0.77298 0.28914 0.0
N277 N 0.13017 0.87228 0.36209 0.0
H278 H 0.98411 0.87305 0.19703 0.0
H279 H 1.04809 0.89096 0.24506 0.0
H280 H 0.17072 0.8729 0.40387 0.0
H281 H 0.10655 0.89093 0.35549 0.0
H282 H 1.0394 0.75453 0.3138 0.0
H283 H 0.97357 0.7726 0.27526 0.0
H284 H 0.11672 0.75444 0.28951 0.0
H285 H 0.18237 0.77235 0.32796 0.0
C286 C 1.03385 0.16009 0.84226 0.0
C287 C 1.00965 0.16014 0.7654 0.0
C288 C 0.10765 0.16229 0.76372 0.0
C289 C 0.13191 0.16115 0.84054 0.0
N290 N 0.11847 0.15188 0.95169 0.0
N291 N 1.02395 0.1541 0.65365 0.0
C292 C 0.09498 0.15772 0.87931 0.0
C293 C 1.04684 0.15888 0.72644 0.0
N294 N 0.99891 0.16394 0.88011 0.0
N295 N 0.14206 0.16824 0.72626 0.0
H296 H 0.97979 0.15123 0.62494 0.0
H297 H 1.04904 0.15022 0.62323 0.0
H298 H 0.18654 0.17111 0.75115 0.0
H299 H 0.12589 0.1726 0.67104 0.0
H300 H 1.01464 0.16738 0.93567 0.0
H301 H 0.95416 0.16602 0.8554 0.0
H302 H 0.0939 0.14644 0.98176 0.0
H303 H 0.16291 0.14975 0.98017 0.0
C304 C 0.29966 0.24946 0.96255 0.0
C305 C 0.28741 0.22565 0.99753 0.0
C306 C 0.3241 0.25023 0.11394 0.0
C307 C 0.33776 0.27382 0.07939 0.0
N308 N 0.33343 0.29789 0.9714 0.0
N309 N 0.29135 0.20179 0.10579 0.0
C310 C 0.32421 0.27396 1.00373 0.0
C311 C 0.30019 0.22571 0.07301 0.0
N312 N 0.28969 0.24808 0.8904 0.0
N313 N 0.33205 0.2518 0.18552 0.0
H314 H 0.27099 0.18398 0.07708 0.0
H315 H 0.30641 0.19883 0.16147 0.0
H316 H 0.35125 0.26893 0.2182 0.0
H317 H 0.31682 0.23697 0.21229 0.0
H318 H 0.30275 0.26324 0.86225 0.0
H319 H 0.26978 0.2309 0.85827 0.0
H320 H 0.31964 0.3008 0.91582 0.0
H321 H 0.35314 0.31573 1.00054 0.0
C322 C 0.80381 0.26954 0.60566 0.0
C323 C 0.79203 0.27066 0.53051 0.0
C324 C 0.83879 0.22459 0.53697 0.0
C325 C 0.84663 0.22251 0.61083 0.0
N326 N 0.83267 0.24121 0.71515 0.0
N327 N 0.7923 0.24852 0.42199 0.0
C328 C 0.82813 0.24454 0.64519 0.0
C329 C 0.80787 0.24794 0.49543 0.0
N330 N 0.79309 0.29267 0.63938 0.0
N331 N 0.862 0.20442 0.50701 0.0
H332 H 0.77141 0.26562 0.38981 0.0
H333 H 0.79631 0.23136 0.3919 0.0
H334 H 0.88406 0.18677 0.53556 0.0
H335 H 0.86352 0.20611 0.45583 0.0
H336 H 0.8066 0.29454 0.69523 0.0
H337 H 0.77344 0.31089 0.61145 0.0
H338 H 0.81401 0.25487 0.74088 0.0
H339 H 0.85268 0.22378 0.74672 0.0
C340 C 0.84089 0.77037 0.99938 0.0
C341 C 0.85125 0.77124 0.07417 0.0
C342 C 0.80685 0.72468 0.06682 0.0
C343 C 0.80075 0.72283 0.99352 0.0
N344 N 0.81548 0.7423 0.89031 0.0
N345 N 0.8497 0.74865 0.18179 0.0
C346 C 0.81862 0.74529 0.95976 0.0
C347 C 0.83569 0.74822 0.10862 0.0
N348 N 0.85105 0.79378 0.96608 0.0
N349 N 0.78411 0.70408 0.096 0.0
H350 H 0.86894 0.76586 0.21409 0.0
H351 H 0.84599 0.73132 0.21169 0.0
H352 H 0.76377 0.68624 0.06739 0.0
H353 H 0.78126 0.70551 0.14651 0.0
H354 H 0.83852 0.79578 0.91033 0.0
H355 H 0.86909 0.81211 0.9941 0.0
H356 H 0.83391 0.75631 0.86517 0.0
H357 H 0.79683 0.72484 0.85858 0.0
C358 C 0.34651 0.72348 0.53383 0.0
C359 C 0.36015 0.72273 0.60948 0.0
C360 C 0.31864 0.77012 0.60479 0.0
C361 C 0.30449 0.77071 0.52902 0.0
N362 N 0.31076 0.75017 0.42174 0.0
N363 N 0.35636 0.74351 0.71745 0.0
C364 C 0.31977 0.7479 0.49356 0.0
C365 C 0.3458 0.74568 0.64524 0.0
N366 N 0.35735 0.70028 0.50028 0.0
N367 N 0.30761 0.79335 0.63797 0.0
H368 H 0.37817 0.72643 0.74907 0.0
H369 H 0.34187 0.75789 0.74607 0.0
H370 H 0.28582 0.81105 0.60935 0.0
H371 H 0.32183 0.79586 0.69366 0.0
H372 H 0.34193 0.69765 0.44452 0.0
H373 H 0.37993 0.68267 0.52845 0.0
H374 H 0.32706 0.73612 0.39429 0.0
H375 H 0.28932 0.76715 0.38943 0.0
C376 C 0.34722 0.49292 1.01999 0.0
C377 C 0.2984 0.5046 0.96375 0.0
C378 C 0.23446 0.48111 1.01361 0.0
C379 C 0.28274 0.46691 0.06591 0.0
N380 N 0.38461 0.45583 0.10983 0.0
N381 N 0.19513 0.50614 0.89935 0.0
C382 C 0.33919 0.47202 0.06712 0.0
C383 C 0.24195 0.49746 0.95819 0.0
N384 N 0.40123 0.50194 1.02863 0.0
N385 N 0.18147 0.48014 1.01861 0.0
H386 H 0.19822 0.51925 0.85903 0.0
H387 H 0.15355 0.49845 0.88701 0.0
H388 H 0.17425 0.47049 0.06113 0.0
H389 H 0.14567 0.49142 0.98487 0.0
H390 H 0.43822 0.49659 0.07307 0.0
H391 H 0.40841 0.5165 0.99374 0.0
H392 H 0.42548 0.45656 0.10749 0.0
H393 H 0.38036 0.43976 0.14305 0.0
C394 C 0.81202 0.4763 0.63645 0.0
C395 C 0.83331 0.50391 0.63522 0.0
C396 C 0.83375 0.49456 0.51408 0.0
C397 C 0.8239 0.46552 0.52199 0.0
N398 N 0.80072 0.42864 0.58916 0.0
N399 N 0.87172 0.53818 0.57592 0.0
C400 C 0.81151 0.45648 0.5825 0.0
C401 C 0.84514 0.51294 0.57425 0.0
N402 N 0.79105 0.46923 0.68824 0.0
N403 N 0.83414 0.50457 0.45014 0.0
H404 H 0.88276 0.55195 0.61949 0.0
H405 H 0.88815 0.54425 0.53734 0.0
H406 H 0.82596 0.49202 0.4048 0.0
H407 H 0.83616 0.52595 0.43951 0.0
H408 H 0.77006 0.45036 0.68845 0.0
H409 H 0.78992 0.48336 0.72761 0.0
H410 H 0.79928 0.41974 0.63613 0.0
H411 H 0.79528 0.41415 0.54787 0.0
C412 C 0.84354 0.47397 0.07358 0.0
C413 C 0.85178 0.48607 0.14176 0.0
C414 C 0.83492 0.53293 0.08502 0.0
C415 C 0.84031 0.52158 1.02219 0.0
N416 N 0.83947 0.4804 0.95094 0.0
N417 N 0.85553 0.52752 0.21302 0.0
C418 C 0.8403 0.49176 1.01404 0.0
C419 C 0.84613 0.51564 0.14731 0.0
N420 N 0.8383 0.44539 0.06603 0.0
N421 N 0.8193 0.56055 0.08472 0.0
H422 H 0.86331 0.51574 0.25985 0.0
H423 H 0.85947 0.54914 0.22218 0.0
H424 H 0.80976 0.5733 1.03894 0.0
H425 H 0.80996 0.56981 0.12626 0.0
H426 H 0.8275 0.43492 1.01703 0.0
H427 H 0.84004 0.43212 0.10855 0.0
H428 H 0.84753 0.45926 0.94468 0.0
H429 H 0.8314 0.49214 0.90417 0.0
C430 C 0.33793 0.49073 0.60552 0.0
C431 C 0.33644 0.52011 0.59055 0.0
C432 C 0.33242 0.50979 0.46813 0.0
C433 C 0.33136 0.48031 0.48195 0.0
N434 N 0.35767 0.44381 0.57255 0.0
N435 N 0.35578 0.55659 0.51953 0.0
C436 C 0.34262 0.47124 0.55383 0.0
C437 C 0.34214 0.52915 0.52593 0.0
N438 N 0.33049 0.48103 0.6658 0.0
N439 N 0.31994 0.51984 0.39973 0.0
H440 H 0.36356 0.57098 0.5616 0.0
H441 H 0.36549 0.5641 0.4764 0.0
H442 H 0.31389 0.50734 0.35501 0.0
H443 H 0.31222 0.5411 0.38635 0.0
H444 H 0.32316 0.45989 0.67336 0.0
H445 H 0.32823 0.49397 0.7065 0.0
H446 H 0.37106 0.43641 0.62555 0.0
H447 H 0.36312 0.42938 0.53626 0.0
C448 C 0.81626 -0.00567 0.0984 0.0
C449 C 0.81354 0.96483 0.08516 0.0
C450 C 0.80559 0.9737 0.96058 0.0
C451 C 0.80728 0.00326 0.97312 0.0
N452 N 0.83546 0.04059 0.06081 0.0
N453 N 0.82878 0.92713 1.01412 0.0
C454 C 0.81986 0.01315 1.04452 0.0
C455 C 0.81656 0.95487 1.01982 0.0
N456 N 0.81153 0.00474 0.15959 0.0
N457 N 0.78878 0.96325 0.89204 0.0
H458 H 0.83775 0.91305 0.0573 0.0
H459 H 0.8362 0.91901 0.96996 0.0
H460 H 0.77801 0.9757 0.84594 0.0
H461 H 0.78042 0.94198 0.88021 0.0
H462 H 0.80601 0.0261 0.16708 0.0
H463 H 0.80939 0.99219 0.20117 0.0
H464 H 0.85009 0.04849 0.11327 0.0
H465 H 0.83998 0.05458 1.02293 0.0
C466 C 0.30519 -0.00183 0.58083 0.0
C467 C 0.35277 0.00247 0.64705 0.0
C468 C 0.41286 0.97336 0.60311 0.0
C469 C 0.36412 0.96542 0.5409 0.0
N470 N 0.26021 0.96696 0.4788 0.0
N471 N 0.44597 0.98588 0.72859 0.0
C472 C 0.30901 0.97697 0.53165 0.0
C473 C 0.40446 0.98729 0.66064 0.0
N474 N 0.2565 0.01418 0.56497 0.0
N475 N 0.46785 0.96941 0.6061 0.0
H476 H 0.44076 -0.00503 0.77302 0.0
H477 H 0.48234 0.97294 0.74163 0.0
H478 H 0.47688 0.96214 0.56251 0.0
H479 H 0.50411 0.97706 0.6482 0.0
H480 H 0.22274 0.01408 0.5145 0.0
H481 H 0.25172 0.02882 0.60123 0.0
H482 H 0.21876 0.97288 0.47404 0.0
H483 H 0.26079 0.95071 0.44415 0.0
C484 C 0.31807 0.97963 0.0631 0.0
C485 C 0.34007 0.98822 0.13668 0.0
C486 C 0.33259 0.03734 0.09525 0.0
C487 C 0.32639 0.02833 1.02507 0.0
N488 N 0.30572 0.98997 0.93928 0.0
N489 N 0.37174 0.02647 0.22276 0.0
C490 C 0.31562 -0.00073 1.00751 0.0
C491 C 0.34701 0.01746 0.15287 0.0
N492 N 0.29845 0.95272 1.04636 0.0
N493 N 0.32548 0.06519 0.10674 0.0
H494 H 0.38513 0.01303 0.26725 0.0
H495 H 0.38374 0.04731 0.23637 0.0
H496 H 0.31382 0.07997 0.06476 0.0
H497 H 0.32474 0.07286 0.15523 0.0
H498 H 0.27691 0.94569 0.99367 0.0
H499 H 0.29828 0.93824 0.08565 0.0
H500 H 0.30721 0.96879 0.9267 0.0
H501 H 0.29721 0.00324 0.89504 0.0
C502 C 0.78968 0.97134 0.53303 0.0
C503 C 0.81454 0.97817 0.48159 0.0
C504 C 0.83369 0.02613 0.53225 0.0
C505 C 0.81186 0.01861 0.58592 0.0
N506 N 0.78575 0.98134 0.64982 0.0
N507 N 0.87353 0.01012 0.4453 0.0
C508 C 0.79593 0.99026 0.59076 0.0
C509 C 0.8406 0.00502 0.48515 0.0
N510 N 0.75568 0.94806 0.52384 0.0
N511 N 0.84703 0.05359 0.52548 0.0
H512 H 0.88153 -0.00513 0.41273 0.0
H513 H 0.89774 0.02836 0.45035 0.0
H514 H 0.84606 0.06915 0.56185 0.0
H515 H 0.85612 0.06111 0.48193 0.0
H516 H 0.73226 0.94378 0.55607 0.0
H517 H 0.74502 0.9348 0.47929 0.0
H518 H 0.77937 0.96024 0.65911 0.0
H519 H 0.79054 -0.00565 0.6935 0.0
C520 C 1.03131 0.48991 0.06473 0.0
C521 C 1.04714 0.51169 1.02726 0.0
C522 C 0.13822 0.51878 0.13012 0.0
C523 C 0.12435 0.49513 0.1632 0.0
N524 N 1.05274 0.46571 0.17892 0.0
N525 N 0.11258 0.54821 1.0226 0.0
C526 C 1.06885 0.48327 0.13576 0.0
C527 C 0.09946 0.52692 0.06008 0.0
N528 N 0.98126 0.47521 1.03214 0.0
N529 N 0.18889 0.53264 0.16517 0.0
H530 H 0.08697 0.55308 0.96905 0.0
H531 H 0.14941 0.56057 1.04254 0.0
H532 H 0.2151 0.52815 0.21866 0.0
H533 H 0.20367 0.54958 0.14414 0.0
H534 H 0.97033 0.45735 1.05437 0.0
H535 H 0.95198 0.47947 0.98016 0.0
H536 H 1.01138 0.45761 0.16533 0.0
H537 H 0.08012 0.46177 0.23222 0.0
C538 C 0.12182 0.50113 0.52619 0.0
C539 C 0.12799 0.50262 0.59954 0.0
C540 C 1.0287 0.48769 0.56874 0.0
C541 C 1.02169 0.48716 0.49482 0.0
N542 N 1.05735 0.49771 0.40072 0.0
N543 N 0.08626 0.5021 0.6907 0.0
C544 C 1.06674 0.49557 0.47259 0.0
C545 C 0.08136 0.49698 0.62117 0.0
N546 N 0.16944 0.50365 0.50861 0.0
N547 N 0.98462 0.47933 0.58863 0.0
H548 H 0.12406 0.5091 0.7312 0.0
H549 H 1.05163 0.50173 0.70751 0.0
H550 H 0.94325 0.47586 0.55103 0.0
H551 H 0.98921 0.47504 0.64165 0.0
H552 H 0.16918 0.50065 0.45693 0.0
H553 H 0.21091 0.50625 0.54745 0.0
H554 H 0.08668 0.50668 0.38142 0.0
H555 H 1.01847 0.49247 0.35948 0.0
C556 C 0.5131 0.98401 1.04436 0.0
C557 C 0.52394 0.00834 1.01049 0.0
C558 C 0.62304 0.01014 0.09837 0.0
C559 C 0.6146 0.98357 0.12507 0.0
N560 N 0.55309 0.94402 0.12187 0.0
N561 N 0.59099 0.04242 0.99754 0.0
C562 C 0.56008 0.9701 0.09745 0.0
C563 C 0.57925 0.021 1.03568 0.0
N564 N 0.45779 0.97509 1.02891 0.0
N565 N 0.67274 0.02499 0.13204 0.0
H566 H 0.5604 0.05073 0.9504 0.0
H567 H 0.6324 0.0501 1.00846 0.0
H568 H 0.70719 0.01765 0.17693 0.0
H569 H 0.67779 0.04586 0.11942 0.0
H570 H 0.44697 0.95952 0.05833 0.0
H571 H 0.42185 0.98502 0.99118 0.0
H572 H 0.51667 0.93164 0.0969 0.0
H573 H 0.58498 0.93412 0.16519 0.0
C574 C 0.5896 0.96368 0.53013 0.0
C575 C 0.54433 0.98115 0.48424 0.0
C576 C 0.57205 0.01843 0.57305 0.0
C577 C 0.61831 0.00146 0.61828 0.0
N578 N 0.66054 0.95516 0.65052 0.0
N579 N 0.50649 0.02822 0.45117 0.0
C580 C 0.62427 0.97319 0.60018 0.0
C581 C 0.53953 0.00949 0.50221 0.0
N582 N 0.60072 0.93854 0.50475 0.0
N583 N 0.55786 0.04259 0.5995 0.0
H584 H 0.48837 0.02343 0.39637 0.0
H585 H 0.50438 0.04964 0.46117 0.0
H586 H 0.57889 0.04848 0.65329 0.0
H587 H 0.5213 0.05465 0.57136 0.0
H588 H 0.63527 0.92537 0.53298 0.0
H589 H 0.57846 0.93226 0.45156 0.0
H590 H 0.66333 0.9337 0.64201 0.0
H591 H 0.68279 0.96072 0.70419 0.0
C592 C 0.99797 0.38247 0.77577 0.0
C593 C 1.03099 0.38389 0.73142 0.0
C594 C 0.12048 0.3852 0.84119 0.0
C595 C 0.0876 0.38307 0.88554 0.0
N596 N 0.99643 0.37278 0.89462 0.0
N597 N 0.12384 0.37918 0.72212 0.0
C598 C 1.02674 0.37946 0.85248 0.0
C599 C 0.09234 0.38286 0.7644 0.0
N600 N 0.93933 0.38579 0.74545 0.0
N601 N 0.17808 0.39124 0.87173 0.0
H602 H 0.10466 0.37687 0.66611 0.0
H603 H 0.16824 0.37551 0.743 0.0
H604 H 0.20052 0.39316 0.92731 0.0
H605 H 0.20274 0.39655 0.84167 0.0
H606 H 0.91364 0.38838 0.77565 0.0
H607 H 0.91652 0.38817 0.69002 0.0
H608 H 0.95303 0.36712 0.87366 0.0
H609 H 1.01626 0.37017 0.95054 0.0
C610 C 1.05132 0.60219 0.34609 0.0
C611 C 0.11126 0.59548 0.37787 0.0
C612 C 0.11331 0.59233 0.25552 0.0
C613 C 1.05214 0.59514 0.22409 0.0
N614 N 0.96182 0.59961 0.24054 0.0
N615 N 0.1981 0.58072 0.36193 0.0
C616 C 1.02086 0.59956 0.26964 0.0
C617 C 0.14214 0.58996 0.33232 0.0
N618 N 1.02361 0.6116 0.38909 0.0
N619 N 0.14409 0.59237 0.2117 0.0
H620 H 0.22081 0.57857 0.41747 0.0
H621 H 0.22061 0.57303 0.33131 0.0
H622 H 0.12449 0.59425 0.15557 0.0
H623 H 0.189 0.59325 0.23114 0.0
H624 H 0.98156 0.6195 0.36889 0.0
H625 H 1.04463 0.61408 0.44484 0.0
H626 H 0.93646 0.59917 0.27157 0.0
H627 H 0.93793 0.59792 0.18519 0.0
C628 C 0.64153 0.8846 0.83345 0.0
C629 C 0.60777 0.88412 0.87701 0.0
C630 C 0.51903 0.88306 0.76578 0.0
C631 C 0.55279 0.88263 0.72222 0.0
N632 N 0.64626 0.87667 0.71552 0.0
N633 N 0.51521 0.87618 0.88456 0.0
C634 C 0.6141 0.88137 0.75658 0.0
C635 C 0.54676 0.8812 0.84294 0.0
N636 N 0.69943 0.88985 0.86479 0.0
N637 N 0.46063 0.88708 0.73404 0.0
H638 H 0.53409 0.87438 0.94075 0.0
H639 H 0.47153 0.87104 0.86319 0.0
H640 H 0.43852 0.88861 0.67827 0.0
H641 H 0.43461 0.89114 0.76315 0.0
H642 H 0.72519 0.89391 0.83537 0.0
H643 H 0.72119 0.89228 0.92036 0.0
H644 H 0.69056 0.87277 0.73732 0.0
H645 H 0.62765 0.87392 0.65961 0.0
C646 C 0.60595 0.09899 0.25498 0.0
C647 C 0.54453 0.0997 0.22266 0.0
C648 C 0.54137 0.10357 0.34445 0.0
C649 C 0.60206 0.09896 0.37669 0.0
N650 N 0.69188 0.08965 0.3622 0.0
N651 N 0.45315 0.10008 0.2374 0.0
C652 C 0.63442 0.09632 0.33182 0.0
C653 C 0.51206 0.10169 0.2676 0.0
N654 N 0.6372 0.10136 0.21199 0.0
N655 N 0.51179 0.11012 0.38759 0.0
H656 H 0.43002 0.09878 0.18184 0.0
H657 H 0.42727 0.09796 0.26745 0.0
H658 H 0.53193 0.11173 0.44368 0.0
H659 H 0.46871 0.11652 0.36767 0.0
H660 H 0.68187 0.10376 0.23207 0.0
H661 H 0.61784 0.10364 0.15594 0.0
H662 H 0.71637 0.08392 0.33224 0.0
H663 H 0.71444 0.08786 0.41787 0.0
C664 C 0.11674 0.41666 0.34245 0.0
C665 C 0.11897 0.39626 0.29158 0.0
C666 C 1.02677 0.37689 0.29019 0.0
C667 C 1.028 0.39578 0.34586 0.0
N668 N 0.0854 0.42809 0.43915 0.0
N669 N 0.0821 0.35249 0.23076 0.0
C670 C 0.07673 0.41362 0.37694 0.0
C671 C 0.07553 0.37509 0.26921 0.0
N672 N 0.14897 0.44055 0.35356 0.0
N673 N 0.97939 0.36041 0.25769 0.0
H674 H 0.11856 0.34958 0.2181 0.0
H675 H 1.05474 0.33514 0.21846 0.0
H676 H 0.94477 0.35974 0.27469 0.0
H677 H 0.97301 0.34872 0.21126 0.0
H678 H 0.14425 0.45739 0.38422 0.0
H679 H 0.17428 0.44531 0.32425 0.0
H680 H 0.1238 0.43864 0.46751 0.0
H681 H 1.05764 0.42739 0.46673 0.0
C682 C 1.06721 0.58281 0.72418 0.0
C683 C 0.12497 0.59088 0.7668 0.0
C684 C 0.09082 0.60712 0.86161 0.0
C685 C 1.03352 0.59784 0.81927 0.0
N686 N 0.96648 0.59314 0.69591 0.0
N687 N 0.1873 0.61841 0.86692 0.0
C688 C 1.02137 0.59063 0.74614 0.0
C689 C 0.13566 0.60508 0.83329 0.0
N690 N 1.0555 0.56655 0.66404 0.0
N691 N 0.10227 0.61916 0.92749 0.0
H692 H 0.21957 0.61891 0.84583 0.0
H693 H 0.19639 0.63132 0.91184 0.0
H694 H 1.07029 0.62862 0.94142 0.0
H695 H 0.14374 0.62087 0.96686 0.0
H696 H 1.01469 0.55812 0.63582 0.0
H697 H 0.08719 0.55871 0.64711 0.0
H698 H 0.95653 0.59032 0.64075 0.0
H699 H 0.93328 0.60246 0.70777 0.0
C700 C 0.55353 0.91854 0.30843 0.0
C701 C 0.52593 0.89327 0.31516 0.0
C702 C 0.5972 0.86689 0.28125 0.0
C703 C 0.62849 0.89215 0.28399 0.0
N704 N 0.6435 0.94074 0.32299 0.0
N705 N 0.52556 0.84259 0.31537 0.0
C706 C 0.60911 0.91749 0.3051 0.0
C707 C 0.54915 0.86713 0.30395 0.0
N708 N 0.52634 0.9438 0.30349 0.0
N709 N 0.61334 0.84269 0.25701 0.0
H710 H 0.48882 0.84214 0.32825 0.0
H711 H 0.5441 0.82287 0.31583 0.0
H712 H 0.65013 0.84142 0.24436 0.0
H713 H 0.58879 0.82437 0.24612 0.0
H714 H 0.54223 0.96262 0.29149 0.0
H715 H 0.48477 0.9453 0.30264 0.0
H716 H 0.63288 0.95877 0.34512 0.0
H717 H 0.6854 0.94095 0.32448 0.0
C718 C 0.54624 0.11827 0.80856 0.0
C719 C 0.52122 0.09262 0.81929 0.0
C720 C 0.59728 0.06634 0.79564 0.0
C721 C 0.61913 0.09162 0.77765 0.0
N722 N 0.61015 0.14182 0.75962 0.0
N723 N 0.51669 0.04207 0.80709 0.0
C724 C 0.59215 0.11767 0.78175 0.0
C725 C 0.54476 0.0667 0.80769 0.0
N726 N 0.52645 0.1432 0.82455 0.0
N727 N 0.62713 0.04172 0.80263 0.0
H728 H 0.47873 0.04094 0.81661 0.0
H729 H 0.52856 0.02301 0.79095 0.0
H730 H 0.66483 0.04032 0.79292 0.0
H731 H 0.61791 0.02343 0.82504 0.0
H732 H 0.54656 0.16245 0.82568 0.0
H733 H 0.49143 0.14438 0.84076 0.0
H734 H 0.5886 0.16103 0.75364 0.0
H735 H 0.64511 0.14227 0.7432 0.0
loop_
_geom_bond_atom_site_label_1
_geom_bond_atom_site_label_2
_geom_bond_distance
_geom_bond_site_symmetry_2
_ccdc_geom_bond_type
O0 Tb1 2.292 . S
O0 C3 1.255 . S
Tb1 O0 2.292 . S
Tb1 O17 2.326 . S
Tb1 O19 2.500 . S
Tb1 O20 2.473 . S
Tb1 O23 2.324 . S
Eu2 O6 2.292 1_554 S
Eu2 C7 2.852 . S
Eu2 O18 2.324 . S
Eu2 O22 2.326 . S
Eu2 O24 2.500 . S
Eu2 O25 2.473 . S
C3 O0 1.255 . S
C3 O4 1.247 . S
O4 C3 1.247 . S
C5 O17 1.242 . S
C5 O18 1.258 . S
O6 Eu2 2.292 1_556 S
O6 C8 1.255 . S
C7 Eu2 2.852 . S
C7 C11 1.503 . S
C7 O24 1.273 . S
C7 O25 1.257 . S
C8 O6 1.255 . S
C8 O9 1.247 . S
O9 C8 1.247 . S
C10 O22 1.242 . S
C10 O23 1.258 . S
C11 C7 1.503 . S
C11 C12 1.379 . S
C11 C16 1.392 . S
C12 C11 1.379 . S
C12 C13 1.404 . S
C12 H26 0.929 . S
C13 C12 1.404 . S
C13 C14 1.389 . S
C14 C13 1.389 . S
C14 C15 1.399 . S
C14 H27 0.931 . S
C15 C14 1.399 . S
C15 C16 1.390 . S
C16 C11 1.392 . S
C16 C15 1.390 . S
C16 H28 0.929 . S
O17 Tb1 2.326 . S
O17 C5 1.242 . S
O18 Eu2 2.324 . S
O18 C5 1.258 . S
O19 Tb1 2.500 . S
O19 C21 1.273 . S
O20 Tb1 2.473 . S
O20 C21 1.257 . S
C21 O19 1.273 . S
C21 O20 1.257 . S
O22 Eu2 2.326 . S
O22 C10 1.242 . S
O23 Tb1 2.324 . S
O23 C10 1.258 . S
O24 Eu2 2.500 . S
O24 C7 1.273 . S
O25 Eu2 2.473 . S
O25 C7 1.257 . S
H26 C12 0.929 . S
H27 C14 0.931 . S
H28 C16 0.929 . S
O29 Tb30 2.292 . S
O29 C32 1.255 . S
Tb30 O29 2.292 . S
Tb30 O46 2.326 . S
Tb30 O48 2.500 . S
Tb30 O49 2.473 . S
Tb30 O52 2.324 . S
Eu31 O35 2.292 . S
Eu31 C36 2.852 . S
Eu31 O47 2.324 . S
Eu31 O51 2.326 . S
Eu31 O53 2.500 . S
Eu31 O54 2.473 . S
C32 O29 1.255 . S
C32 O33 1.247 . S
O33 C32 1.247 . S
C34 O46 1.242 . S
C34 O47 1.258 . S
O35 Eu31 2.292 . S
O35 C37 1.255 . S
C36 Eu31 2.852 . S
C36 C40 1.503 . S
C36 O53 1.273 . S
C36 O54 1.257 . S
C37 O35 1.255 . S
C37 O38 1.247 . S
O38 C37 1.247 . S
C39 O51 1.242 . S
C39 O52 1.258 . S
C40 C36 1.503 . S
C40 C41 1.379 . S
C40 C45 1.392 . S
C41 C40 1.379 . S
C41 C42 1.404 . S
C41 H55 0.929 . S
C42 C41 1.404 . S
C42 C43 1.389 . S
C43 C42 1.389 . S
C43 C44 1.399 . S
C43 H56 0.931 . S
C44 C43 1.399 . S
C44 C45 1.390 . S
C45 C40 1.392 . S
C45 C44 1.390 . S
C45 H57 0.929 . S
O46 Tb30 2.326 . S
O46 C34 1.242 . S
O47 Eu31 2.324 . S
O47 C34 1.258 . S
O48 Tb30 2.500 . S
O48 C50 1.273 . S
O49 Tb30 2.473 . S
O49 C50 1.257 . S
C50 O48 1.273 . S
C50 O49 1.257 . S
O51 Eu31 2.326 . S
O51 C39 1.242 . S
O52 Tb30 2.324 . S
O52 C39 1.258 . S
O53 Eu31 2.500 . S
O53 C36 1.273 . S
O54 Eu31 2.473 . S
O54 C36 1.257 . S
H55 C41 0.929 . S
H56 C43 0.931 . S
H57 C45 0.929 . S
O58 Tb59 2.292 . S
O58 C61 1.255 . S
Tb59 O58 2.292 . S
Tb59 O75 2.326 . S
Tb59 O77 2.500 . S
Tb59 O78 2.473 . S
Tb59 O81 2.324 . S
Eu60 O64 2.292 1_556 S
Eu60 C65 2.852 . S
Eu60 O76 2.324 . S
Eu60 O80 2.326 . S
Eu60 O82 2.500 . S
Eu60 O83 2.473 . S
C61 O58 1.255 . S
C61 O62 1.247 . S
O62 C61 1.247 . S
C63 O75 1.242 . S
C63 O76 1.258 . S
O64 Eu60 2.292 1_554 S
O64 C66 1.255 . S
C65 Eu60 2.852 . S
C65 C69 1.503 . S
C65 O82 1.273 . S
C65 O83 1.257 . S
C66 O64 1.255 . S
C66 O67 1.247 . S
O67 C66 1.247 . S
C68 O80 1.242 . S
C68 O81 1.258 . S
C69 C65 1.503 . S
C69 C70 1.379 . S
C69 C74 1.392 . S
C70 C69 1.379 . S
C70 C71 1.404 . S
C70 H84 0.929 . S
C71 C70 1.404 . S
C71 C72 1.389 . S
C72 C71 1.389 . S
C72 C73 1.399 . S
C72 H85 0.931 . S
C73 C72 1.399 . S
C73 C74 1.390 . S
C74 C69 1.392 . S
C74 C73 1.390 . S
C74 H86 0.929 . S
O75 Tb59 2.326 . S
O75 C63 1.242 . S
O76 Eu60 2.324 . S
O76 C63 1.258 . S
O77 Tb59 2.500 . S
O77 C79 1.273 . S
O78 Tb59 2.473 . S
O78 C79 1.257 . S
C79 O77 1.273 . S
C79 O78 1.257 . S
O80 Eu60 2.326 . S
O80 C68 1.242 . S
O81 Tb59 2.324 . S
O81 C68 1.258 . S
O82 Eu60 2.500 . S
O82 C65 1.273 . S
O83 Eu60 2.473 . S
O83 C65 1.257 . S
H84 C70 0.929 . S
H85 C72 0.931 . S
H86 C74 0.929 . S
O87 Tb88 2.292 . S
O87 C90 1.255 . S
Tb88 O87 2.292 . S
Tb88 O104 2.326 . S
Tb88 O106 2.500 . S
Tb88 O107 2.473 . S
Tb88 O110 2.324 . S
Eu89 O93 2.292 . S
Eu89 C94 2.852 . S
Eu89 O105 2.324 . S
Eu89 O109 2.326 . S
Eu89 O111 2.500 . S
Eu89 O112 2.473 . S
C90 O87 1.255 . S
C90 O91 1.247 . S
O91 C90 1.247 . S
C92 O104 1.242 . S
C92 O105 1.258 . S
O93 Eu89 2.292 . S
O93 C95 1.255 . S
C94 Eu89 2.852 . S
C94 C98 1.503 . S
C94 O111 1.273 . S
C94 O112 1.257 . S
C95 O93 1.255 . S
C95 O96 1.247 . S
O96 C95 1.247 . S
C97 O109 1.242 . S
C97 O110 1.258 . S
C98 C94 1.503 . S
C98 C99 1.379 . S
C98 C103 1.392 . S
C99 C98 1.379 . S
C99 C100 1.404 . S
C99 H113 0.929 . S
C100 C99 1.404 . S
C100 C101 1.389 . S
C101 C100 1.389 . S
C101 C102 1.399 . S
C101 H114 0.931 . S
C102 C101 1.399 . S
C102 C103 1.390 . S
C103 C98 1.392 . S
C103 C102 1.390 . S
C103 H115 0.929 . S
O104 Tb88 2.326 . S
O104 C92 1.242 . S
O105 Eu89 2.324 . S
O105 C92 1.258 . S
O106 Tb88 2.500 . S
O106 C108 1.273 . S
O107 Tb88 2.473 . S
O107 C108 1.257 . S
C108 O106 1.273 . S
C108 O107 1.257 . S
O109 Eu89 2.326 . S
O109 C97 1.242 . S
O110 Tb88 2.324 . S
O110 C97 1.258 . S
O111 Eu89 2.500 . S
O111 C94 1.273 . S
O112 Eu89 2.473 . S
O112 C94 1.257 . S
H113 C99 0.929 . S
H114 C101 0.931 . S
H115 C103 0.929 . S
O116 Tb117 2.292 . S
O116 C119 1.255 . S
Tb117 O116 2.292 . S
Tb117 O133 2.326 . S
Tb117 O135 2.500 1_565 S
Tb117 O136 2.473 . S
Tb117 O139 2.324 . S
Eu118 O122 2.292 1_554 S
Eu118 C123 2.852 . S
Eu118 O134 2.324 . S
Eu118 O138 2.326 . S
Eu118 O140 2.500 . S
Eu118 O141 2.473 . S
C119 O116 1.255 . S
C119 O120 1.247 . S
O120 C119 1.247 . S
C121 O133 1.242 . S
C121 O134 1.258 . S
O122 Eu118 2.292 1_556 S
O122 C124 1.255 . S
C123 Eu118 2.852 . S
C123 C127 1.503 . S
C123 O140 1.273 . S
C123 O141 1.257 . S
C124 O122 1.255 . S
C124 O125 1.247 . S
O125 C124 1.247 . S
C126 O138 1.242 . S
C126 O139 1.258 . S
C127 C123 1.503 . S
C127 C128 1.379 . S
C127 C132 1.392 . S
C128 C127 1.379 . S
C128 C129 1.404 . S
C128 H142 0.929 . S
C129 C128 1.404 . S
C129 C130 1.389 . S
C130 C129 1.389 . S
C130 C131 1.399 . S
C130 H143 0.931 . S
C131 C130 1.399 . S
C131 C132 1.390 . S
C132 C127 1.392 . S
C132 C131 1.390 . S
C132 H144 0.929 . S
O133 Tb117 2.326 . S
O133 C121 1.242 . S
O134 Eu118 2.324 . S
O134 C121 1.258 . S
O135 Tb117 2.500 1_545 S
O135 C137 1.272 1_545 S
O136 Tb117 2.473 . S
O136 C137 1.257 . S
C137 O135 1.272 1_565 S
C137 O136 1.257 . S
O138 Eu118 2.326 . S
O138 C126 1.242 . S
O139 Tb117 2.324 . S
O139 C126 1.258 . S
O140 Eu118 2.500 . S
O140 C123 1.273 . S
O141 Eu118 2.473 . S
O141 C123 1.257 . S
H142 C128 0.929 . S
H143 C130 0.931 . S
H144 C132 0.929 . S
O145 Tb146 2.292 . S
O145 C148 1.255 . S
Tb146 O145 2.292 . S
Tb146 O162 2.326 . S
Tb146 O164 2.500 1_565 S
Tb146 O165 2.473 . S
Tb146 O168 2.324 . S
Eu147 O151 2.292 . S
Eu147 C152 2.852 . S
Eu147 O163 2.324 . S
Eu147 O167 2.326 . S
Eu147 O169 2.500 . S
Eu147 O170 2.473 . S
C148 O145 1.255 . S
C148 O149 1.247 . S
O149 C148 1.247 . S
C150 O162 1.242 . S
C150 O163 1.258 . S
O151 Eu147 2.292 . S
O151 C153 1.255 . S
C152 Eu147 2.852 . S
C152 C156 1.503 . S
C152 O169 1.273 . S
C152 O170 1.257 . S
C153 O151 1.255 . S
C153 O154 1.247 . S
O154 C153 1.247 . S
C155 O167 1.242 . S
C155 O168 1.258 . S
C156 C152 1.503 . S
C156 C157 1.379 . S
C156 C161 1.392 . S
C157 C156 1.379 . S
C157 C158 1.404 . S
C157 H171 0.929 . S
C158 C157 1.404 . S
C158 C159 1.389 . S
C159 C158 1.389 . S
C159 C160 1.399 . S
C159 H172 0.931 . S
C160 C159 1.399 . S
C160 C161 1.390 . S
C161 C156 1.392 . S
C161 C160 1.390 . S
C161 H173 0.929 . S
O162 Tb146 2.326 . S
O162 C150 1.242 . S
O163 Eu147 2.324 . S
O163 C150 1.258 . S
O164 Tb146 2.500 1_545 S
O164 C166 1.272 1_545 S
O165 Tb146 2.473 . S
O165 C166 1.257 . S
C166 O164 1.272 1_565 S
C166 O165 1.257 . S
O167 Eu147 2.326 . S
O167 C155 1.242 . S
O168 Tb146 2.324 . S
O168 C155 1.258 . S
O169 Eu147 2.500 . S
O169 C152 1.273 . S
O170 Eu147 2.473 . S
O170 C152 1.257 . S
H171 C157 0.929 . S
H172 C159 0.931 . S
H173 C161 0.929 . S
O174 Tb175 2.292 . S
O174 C177 1.255 . S
Tb175 O174 2.292 . S
Tb175 O191 2.326 . S
Tb175 O193 2.500 1_545 S
Tb175 O194 2.473 . S
Tb175 O197 2.324 . S
Eu176 O180 2.292 1_556 S
Eu176 C181 2.852 . S
Eu176 O192 2.324 . S
Eu176 O196 2.326 . S
Eu176 O198 2.500 . S
Eu176 O199 2.473 . S
C177 O174 1.255 . S
C177 O178 1.247 . S
O178 C177 1.247 . S
C179 O191 1.242 . S
C179 O192 1.258 . S
O180 Eu176 2.292 1_554 S
O180 C182 1.255 . S
C181 Eu176 2.852 . S
C181 C185 1.503 . S
C181 O198 1.273 . S
C181 O199 1.257 . S
C182 O180 1.255 . S
C182 O183 1.247 . S
O183 C182 1.247 . S
C184 O196 1.242 . S
C184 O197 1.258 . S
C185 C181 1.503 . S
C185 C186 1.379 . S
C185 C190 1.392 . S
C186 C185 1.379 . S
C186 C187 1.404 . S
C186 H200 0.929 . S
C187 C186 1.404 . S
C187 C188 1.389 . S
C188 C187 1.389 . S
C188 C189 1.399 . S
C188 H201 0.931 . S
C189 C188 1.399 . S
C189 C190 1.390 . S
C190 C185 1.392 . S
C190 C189 1.390 . S
C190 H202 0.929 . S
O191 Tb175 2.326 . S
O191 C179 1.242 . S
O192 Eu176 2.324 . S
O192 C179 1.258 . S
O193 Tb175 2.500 1_565 S
O193 C195 1.272 1_565 S
O194 Tb175 2.473 . S
O194 C195 1.257 . S
C195 O193 1.272 1_545 S
C195 O194 1.257 . S
O196 Eu176 2.326 . S
O196 C184 1.242 . S
O197 Tb175 2.324 . S
O197 C184 1.258 . S
O198 Eu176 2.500 . S
O198 C181 1.273 . S
O199 Eu176 2.473 . S
O199 C181 1.257 . S
H200 C186 0.929 . S
H201 C188 0.931 . S
H202 C190 0.929 . S
O203 Tb204 2.292 . S
O203 C206 1.255 . S
Tb204 O203 2.292 . S
Tb204 O220 2.326 . S
Tb204 O222 2.500 1_545 S
Tb204 O223 2.473 . S
Tb204 O226 2.324 . S
Eu205 O209 2.292 . S
Eu205 C210 2.852 . S
Eu205 O221 2.324 . S
Eu205 O225 2.326 . S
Eu205 O227 2.500 . S
Eu205 O228 2.473 . S
C206 O203 1.255 . S
C206 O207 1.247 . S
O207 C206 1.247 . S
C208 O220 1.242 . S
C208 O221 1.258 . S
O209 Eu205 2.292 . S
O209 C211 1.255 . S
C210 Eu205 2.852 . S
C210 C214 1.503 . S
C210 O227 1.273 . S
C210 O228 1.257 . S
C211 O209 1.255 . S
C211 O212 1.247 . S
O212 C211 1.247 . S
C213 O225 1.242 . S
C213 O226 1.258 . S
C214 C210 1.503 . S
C214 C215 1.379 . S
C214 C219 1.392 . S
C215 C214 1.379 . S
C215 C216 1.404 . S
C215 H229 0.929 . S
C216 C215 1.404 . S
C216 C217 1.389 . S
C217 C216 1.389 . S
C217 C218 1.399 . S
C217 H230 0.931 . S
C218 C217 1.399 . S
C218 C219 1.390 . S
C219 C214 1.392 . S
C219 C218 1.390 . S
C219 H231 0.929 . S
O220 Tb204 2.326 . S
O220 C208 1.242 . S
O221 Eu205 2.324 . S
O221 C208 1.258 . S
O222 Tb204 2.500 1_565 S
O222 C224 1.272 1_565 S
O223 Tb204 2.473 . S
O223 C224 1.257 . S
C224 O222 1.272 1_545 S
C224 O223 1.257 . S
O225 Eu205 2.326 . S
O225 C213 1.242 . S
O226 Tb204 2.324 . S
O226 C213 1.258 . S
O227 Eu205 2.500 . S
O227 C210 1.273 . S
O228 Eu205 2.473 . S
O228 C210 1.257 . S
H229 C215 0.929 . S
H230 C217 0.931 . S
H231 C219 0.929 . S
C232 C233 1.363 . S
C232 C238 1.379 . S
C232 N240 1.356 . S
C233 C232 1.363 . S
C233 C239 1.363 . S
C234 C235 1.363 . S
C234 C239 1.379 . S
C234 N241 1.356 . S
C235 C234 1.363 . S
C235 C238 1.363 . S
N236 C238 1.356 . S
N236 H248 0.984 . S
N236 H249 0.985 . S
N237 C239 1.356 . S
N237 H242 0.984 . S
N237 H243 0.985 . S
C238 C232 1.379 . S
C238 C235 1.363 . S
C238 N236 1.356 . S
C239 C233 1.363 . S
C239 C234 1.379 . S
C239 N237 1.356 . S
N240 C232 1.356 . S
N240 H246 0.984 . S
N240 H247 0.984 . S
N241 C234 1.356 . S
N241 H244 0.984 . S
N241 H245 0.985 . S
H242 N237 0.984 . S
H243 N237 0.985 . S
H244 N241 0.984 . S
H245 N241 0.985 . S
H246 N240 0.984 . S
H247 N240 0.984 . S
H248 N236 0.984 . S
H249 N236 0.985 . S
C250 C251 1.363 . S
C250 C256 1.379 . S
C250 N258 1.356 . S
C251 C250 1.363 . S
C251 C257 1.363 . S
C252 C253 1.363 . S
C252 C257 1.379 . S
C252 N259 1.356 . S
C253 C252 1.363 . S
C253 C256 1.363 . S
N254 C256 1.356 . S
N254 H266 0.984 . S
N254 H267 0.985 . S
N255 C257 1.356 . S
N255 H260 0.984 . S
N255 H261 0.985 . S
C256 C250 1.379 . S
C256 C253 1.363 . S
C256 N254 1.356 . S
C257 C251 1.363 . S
C257 C252 1.379 . S
C257 N255 1.356 . S
N258 C250 1.356 . S
N258 H264 0.984 . S
N258 H265 0.984 . S
N259 C252 1.356 . S
N259 H262 0.984 . S
N259 H263 0.985 . S
H260 N255 0.984 . S
H261 N255 0.985 . S
H262 N259 0.984 . S
H263 N259 0.985 . S
H264 N258 0.984 . S
H265 N258 0.984 . S
H266 N254 0.984 . S
H267 N254 0.985 . S
C268 C269 1.363 . S
C268 C274 1.379 1_655 S
C268 N276 1.356 . S
C269 C268 1.363 . S
C269 C275 1.363 . S
C270 C271 1.363 . S
C270 C275 1.379 1_455 S
C270 N277 1.356 . S
C271 C270 1.363 . S
C271 C274 1.363 . S
N272 C274 1.356 . S
N272 H284 0.984 . S
N272 H285 0.985 . S
N273 C275 1.356 . S
N273 H278 0.984 . S
N273 H279 0.985 . S
C274 C268 1.379 1_455 S
C274 C271 1.363 . S
C274 N272 1.356 . S
C275 C269 1.363 . S
C275 C270 1.379 1_655 S
C275 N273 1.356 . S
N276 C268 1.356 . S
N276 H282 0.984 . S
N276 H283 0.984 . S
N277 C270 1.356 . S
N277 H280 0.984 . S
N277 H281 0.985 . S
H278 N273 0.984 . S
H279 N273 0.985 . S
H280 N277 0.984 . S
H281 N277 0.985 . S
H282 N276 0.984 . S
H283 N276 0.984 . S
H284 N272 0.984 . S
H285 N272 0.985 . S
C286 C287 1.363 . S
C286 C292 1.379 1_655 S
C286 N294 1.356 . S
C287 C286 1.363 . S
C287 C293 1.363 . S
C288 C289 1.363 . S
C288 C293 1.379 1_455 S
C288 N295 1.356 . S
C289 C288 1.363 . S
C289 C292 1.363 . S
N290 C292 1.356 . S
N290 H302 0.984 . S
N290 H303 0.985 . S
N291 C293 1.356 . S
N291 H296 0.984 . S
N291 H297 0.985 . S
C292 C286 1.379 1_455 S
C292 C289 1.363 . S
C292 N290 1.356 . S
C293 C287 1.363 . S
C293 C288 1.379 1_655 S
C293 N291 1.356 . S
N294 C286 1.356 . S
N294 H300 0.984 . S
N294 H301 0.984 . S
N295 C288 1.356 . S
N295 H298 0.984 . S
N295 H299 0.985 . S
H296 N291 0.984 . S
H297 N291 0.985 . S
H298 N295 0.984 . S
H299 N295 0.985 . S
H300 N294 0.984 . S
H301 N294 0.984 . S
H302 N290 0.984 . S
H303 N290 0.985 . S
C304 C305 1.363 . S
C304 C310 1.379 . S
C304 N312 1.356 . S
C305 C304 1.363 . S
C305 C311 1.363 1_556 S
C306 C307 1.363 . S
C306 C311 1.379 . S
C306 N313 1.356 . S
C307 C306 1.363 . S
C307 C310 1.363 1_554 S
N308 C310 1.356 . S
N308 H320 0.984 . S
N308 H321 0.985 . S
N309 C311 1.356 . S
N309 H314 0.984 . S
N309 H315 0.985 . S
C310 C304 1.379 . S
C310 C307 1.363 1_556 S
C310 N308 1.356 . S
C311 C305 1.363 1_554 S
C311 C306 1.379 . S
C311 N309 1.356 . S
N312 C304 1.356 . S
N312 H318 0.984 . S
N312 H319 0.984 . S
N313 C306 1.356 . S
N313 H316 0.984 . S
N313 H317 0.985 . S
H314 N309 0.984 . S
H315 N309 0.985 . S
H316 N313 0.984 . S
H317 N313 0.985 . S
H318 N312 0.984 . S
H319 N312 0.984 . S
H320 N308 0.984 . S
H321 N308 0.985 . S
C322 C323 1.363 . S
C322 C328 1.379 . S
C322 N330 1.356 . S
C323 C322 1.363 . S
C323 C329 1.363 . S
C324 C325 1.363 . S
C324 C329 1.379 . S
C324 N331 1.356 . S
C325 C324 1.363 . S
C325 C328 1.363 . S
N326 C328 1.356 . S
N326 H338 0.984 . S
N326 H339 0.985 . S
N327 C329 1.356 . S
N327 H332 0.984 . S
N327 H333 0.985 . S
C328 C322 1.379 . S
C328 C325 1.363 . S
C328 N326 1.356 . S
C329 C323 1.363 . S
C329 C324 1.379 . S
C329 N327 1.356 . S
N330 C322 1.356 . S
N330 H336 0.984 . S
N330 H337 0.984 . S
N331 C324 1.356 . S
N331 H334 0.984 . S
N331 H335 0.985 . S
H332 N327 0.984 . S
H333 N327 0.985 . S
H334 N331 0.984 . S
H335 N331 0.985 . S
H336 N330 0.984 . S
H337 N330 0.984 . S
H338 N326 0.984 . S
H339 N326 0.985 . S
C340 C341 1.363 1_556 S
C340 C346 1.379 . S
C340 N348 1.356 . S
C341 C340 1.363 1_554 S
C341 C347 1.363 . S
C342 C343 1.363 1_554 S
C342 C347 1.379 . S
C342 N349 1.356 . S
C343 C342 1.363 1_556 S
C343 C346 1.363 . S
N344 C346 1.356 . S
N344 H356 0.984 . S
N344 H357 0.985 . S
N345 C347 1.356 . S
N345 H350 0.984 . S
N345 H351 0.985 . S
C346 C340 1.379 . S
C346 C343 1.363 . S
C346 N344 1.356 . S
C347 C341 1.363 . S
C347 C342 1.379 . S
C347 N345 1.356 . S
N348 C340 1.356 . S
N348 H354 0.984 . S
N348 H355 0.984 . S
N349 C342 1.356 . S
N349 H352 0.984 . S
N349 H353 0.985 . S
H350 N345 0.984 . S
H351 N345 0.985 . S
H352 N349 0.984 . S
H353 N349 0.985 . S
H354 N348 0.984 . S
H355 N348 0.984 . S
H356 N344 0.984 . S
H357 N344 0.985 . S
C358 C359 1.363 . S
C358 C364 1.379 . S
C358 N366 1.356 . S
C359 C358 1.363 . S
C359 C365 1.363 . S
C360 C361 1.363 . S
C360 C365 1.379 . S
C360 N367 1.356 . S
C361 C360 1.363 . S
C361 C364 1.363 . S
N362 C364 1.356 . S
N362 H374 0.984 . S
N362 H375 0.985 . S
N363 C365 1.356 . S
N363 H368 0.984 . S
N363 H369 0.985 . S
C364 C358 1.379 . S
C364 C361 1.363 . S
C364 N362 1.356 . S
C365 C359 1.363 . S
C365 C360 1.379 . S
C365 N363 1.356 . S
N366 C358 1.356 . S
N366 H372 0.984 . S
N366 H373 0.984 . S
N367 C360 1.356 . S
N367 H370 0.984 . S
N367 H371 0.985 . S
H368 N363 0.984 . S
H369 N363 0.985 . S
H370 N367 0.984 . S
H371 N367 0.985 . S
H372 N366 0.984 . S
H373 N366 0.984 . S
H374 N362 0.984 . S
H375 N362 0.985 . S
C376 C377 1.363 . S
C376 C382 1.379 . S
C376 N384 1.356 . S
C377 C376 1.363 . S
C377 C383 1.363 . S
C378 C379 1.363 . S
C378 C383 1.379 . S
C378 N385 1.356 . S
C379 C378 1.363 . S
C379 C382 1.363 . S
N380 C382 1.356 1_554 S
N380 H392 0.984 . S
N380 H393 0.985 . S
N381 C383 1.356 . S
N381 H386 0.984 . S
N381 H387 0.985 . S
C382 C376 1.379 . S
C382 C379 1.363 . S
C382 N380 1.356 1_556 S
C383 C377 1.363 . S
C383 C378 1.379 . S
C383 N381 1.356 . S
N384 C376 1.356 . S
N384 H390 0.984 . S
N384 H391 0.984 . S
N385 C378 1.356 . S
N385 H388 0.984 . S
N385 H389 0.985 . S
H386 N381 0.984 . S
H387 N381 0.985 . S
H388 N385 0.984 . S
H389 N385 0.985 . S
H390 N384 0.984 . S
H391 N384 0.984 . S
H392 N380 0.984 . S
H393 N380 0.985 . S
C394 C395 1.363 . S
C394 C400 1.379 . S
C394 N402 1.356 . S
C395 C394 1.363 . S
C395 C401 1.363 . S
C396 C397 1.363 . S
C396 C401 1.379 . S
C396 N403 1.356 . S
C397 C396 1.363 . S
C397 C400 1.363 . S
N398 C400 1.356 . S
N398 H410 0.984 . S
N398 H411 0.985 . S
N399 C401 1.356 . S
N399 H404 0.984 . S
N399 H405 0.985 . S
C400 C394 1.379 . S
C400 C397 1.363 . S
C400 N398 1.356 . S
C401 C395 1.363 . S
C401 C396 1.379 . S
C401 N399 1.356 . S
N402 C394 1.356 . S
N402 H408 0.984 . S
N402 H409 0.984 . S
N403 C396 1.356 . S
N403 H406 0.984 . S
N403 H407 0.985 . S
H404 N399 0.984 . S
H405 N399 0.985 . S
H406 N403 0.984 . S
H407 N403 0.985 . S
H408 N402 0.984 . S
H409 N402 0.984 . S
H410 N398 0.984 . S
H411 N398 0.985 . S
C412 C413 1.363 . S
C412 C418 1.379 . S
C412 N420 1.356 . S
C413 C412 1.363 . S
C413 C419 1.363 . S
C414 C415 1.363 . S
C414 C419 1.379 . S
C414 N421 1.356 . S
C415 C414 1.363 . S
C415 C418 1.363 . S
N416 C418 1.356 1_556 S
N416 H428 0.984 . S
N416 H429 0.985 . S
N417 C419 1.356 . S
N417 H422 0.984 . S
N417 H423 0.985 . S
C418 C412 1.379 . S
C418 C415 1.363 . S
C418 N416 1.356 1_554 S
C419 C413 1.363 . S
C419 C414 1.379 . S
C419 N417 1.356 . S
N420 C412 1.356 . S
N420 H426 0.984 . S
N420 H427 0.984 . S
N421 C414 1.356 . S
N421 H424 0.984 . S
N421 H425 0.985 . S
H422 N417 0.984 . S
H423 N417 0.985 . S
H424 N421 0.984 . S
H425 N421 0.985 . S
H426 N420 0.984 . S
H427 N420 0.984 . S
H428 N416 0.984 . S
H429 N416 0.985 . S
C430 C431 1.363 . S
C430 C436 1.379 . S
C430 N438 1.356 . S
C431 C430 1.363 . S
C431 C437 1.363 . S
C432 C433 1.363 . S
C432 C437 1.379 . S
C432 N439 1.356 . S
C433 C432 1.363 . S
C433 C436 1.363 . S
N434 C436 1.356 . S
N434 H446 0.984 . S
N434 H447 0.985 . S
N435 C437 1.356 . S
N435 H440 0.984 . S
N435 H441 0.985 . S
C436 C430 1.379 . S
C436 C433 1.363 . S
C436 N434 1.356 . S
C437 C431 1.363 . S
C437 C432 1.379 . S
C437 N435 1.356 . S
N438 C430 1.356 . S
N438 H444 0.984 . S
N438 H445 0.984 . S
N439 C432 1.356 . S
N439 H442 0.984 . S
N439 H443 0.985 . S
H440 N435 0.984 . S
H441 N435 0.985 . S
H442 N439 0.984 . S
H443 N439 0.985 . S
H444 N438 0.984 . S
H445 N438 0.984 . S
H446 N434 0.984 . S
H447 N434 0.985 . S
C448 C449 1.363 . S
C448 C454 1.379 1_565 S
C448 N456 1.356 1_556 S
C449 C448 1.363 . S
C449 C455 1.363 . S
C450 C451 1.363 1_565 S
C450 C455 1.379 . S
C450 N457 1.356 . S
C451 C450 1.363 1_545 S
C451 C454 1.363 . S
N452 C454 1.356 . S
N452 H464 0.984 . S
N452 H465 0.985 . S
N453 C455 1.356 . S
N453 H458 0.984 . S
N453 H459 0.985 . S
C454 C448 1.379 1_545 S
C454 C451 1.363 . S
C454 N452 1.356 . S
C455 C449 1.363 . S
C455 C450 1.379 . S
C455 N453 1.356 . S
N456 C448 1.356 1_554 S
N456 H462 0.984 1_565 S
N456 H463 0.984 . S
N457 C450 1.356 . S
N457 H460 0.959 1_565 S
N457 H461 0.985 . S
H458 N453 0.984 . S
H459 N453 0.985 . S
H460 N457 0.959 1_545 S
H461 N457 0.985 . S
H462 N456 0.984 1_545 S
H463 N456 0.984 . S
H464 N452 0.984 . S
H465 N452 0.985 . S
C466 C467 1.363 . S
C466 C472 1.379 1_545 S
C466 N474 1.356 . S
C467 C466 1.363 . S
C467 C473 1.363 1_545 S
C468 C469 1.363 . S
C468 C473 1.379 . S
C468 N475 1.356 . S
C469 C468 1.363 . S
C469 C472 1.363 . S
N470 C472 1.356 . S
N470 H482 0.984 . S
N470 H483 0.985 . S
N471 C473 1.356 . S
N471 H476 0.984 1_565 S
N471 H477 0.985 . S
C472 C466 1.379 1_565 S
C472 C469 1.363 . S
C472 N470 1.356 . S
C473 C467 1.363 1_565 S
C473 C468 1.379 . S
C473 N471 1.356 . S
N474 C466 1.356 . S
N474 H480 0.984 . S
N474 H481 0.984 . S
N475 C468 1.356 . S
N475 H478 0.984 . S
N475 H479 0.985 . S
H476 N471 0.984 1_545 S
H477 N471 0.985 . S
H478 N475 0.984 . S
H479 N475 0.985 . S
H480 N474 0.984 . S
H481 N474 0.984 . S
H482 N470 0.984 . S
H483 N470 0.985 . S
C484 C485 1.363 . S
C484 C490 1.379 1_565 S
C484 N492 1.356 . S
C485 C484 1.363 . S
C485 C491 1.363 1_565 S
C486 C487 1.363 . S
C486 C491 1.379 . S
C486 N493 1.356 . S
C487 C486 1.363 . S
C487 C490 1.363 . S
N488 C490 1.356 1_556 S
N488 H500 0.984 1_545 S
N488 H501 0.985 . S
N489 C491 1.356 . S
N489 H494 0.959 1_545 S
N489 H495 0.985 . S
C490 C484 1.379 1_545 S
C490 C487 1.363 . S
C490 N488 1.356 1_554 S
C491 C485 1.363 1_545 S
C491 C486 1.379 . S
C491 N489 1.356 . S
N492 C484 1.356 . S
N492 H498 0.984 . S
N492 H499 0.984 . S
N493 C486 1.356 . S
N493 H496 0.984 . S
N493 H497 0.985 . S
H494 N489 0.959 1_565 S
H495 N489 0.985 . S
H496 N493 0.984 . S
H497 N493 0.985 . S
H498 N492 0.984 . S
H499 N492 0.984 . S
H500 N488 0.984 1_565 S
H501 N488 0.985 . S
C502 C503 1.363 . S
C502 C508 1.379 1_565 S
C502 N510 1.356 . S
C503 C502 1.363 . S
C503 C509 1.363 1_565 S
C504 C505 1.363 . S
C504 C509 1.379 . S
C504 N511 1.356 . S
C505 C504 1.363 . S
C505 C508 1.363 . S
N506 C508 1.356 . S
N506 H518 0.984 1_545 S
N506 H519 0.985 . S
N507 C509 1.356 . S
N507 H512 0.974 1_545 S
N507 H513 0.985 . S
C508 C502 1.379 1_545 S
C508 C505 1.363 . S
C508 N506 1.356 . S
C509 C503 1.363 1_545 S
C509 C504 1.379 . S
C509 N507 1.356 . S
N510 C502 1.356 . S
N510 H516 0.984 . S
N510 H517 0.984 . S
N511 C504 1.356 . S
N511 H514 0.984 . S
N511 H515 0.985 . S
H512 N507 0.974 1_565 S
H513 N507 0.985 . S
H514 N511 0.984 . S
H515 N511 0.985 . S
H516 N510 0.984 . S
H517 N510 0.984 . S
H518 N506 0.984 1_565 S
H519 N506 0.985 . S
C520 C521 1.363 . S
C520 C526 1.379 1_556 S
C520 N528 1.356 . S
C521 C520 1.363 . S
C521 C527 1.363 1_655 S
C522 C523 1.363 . S
C522 C527 1.379 1_554 S
C522 N529 1.356 . S
C523 C522 1.363 . S
C523 C526 1.363 1_455 S
N524 C526 1.356 . S
N524 H536 0.984 . S
N524 H537 0.985 . S
N525 C527 1.356 . S
N525 H530 0.984 . S
N525 H531 0.985 . S
C526 C520 1.379 1_554 S
C526 C523 1.363 1_655 S
C526 N524 1.356 . S
C527 C521 1.363 1_455 S
C527 C522 1.379 1_556 S
C527 N525 1.356 . S
N528 C520 1.356 . S
N528 H534 0.984 . S
N528 H535 0.984 . S
N529 C522 1.356 . S
N529 H532 0.984 . S
N529 H533 0.985 . S
H530 N525 0.984 . S
H531 N525 0.985 . S
H532 N529 0.984 . S
H533 N529 0.985 . S
H534 N528 0.984 . S
H535 N528 0.984 . S
H536 N524 0.984 . S
H537 N524 0.985 . S
C538 C539 1.363 . S
C538 C544 1.379 . S
C538 N546 1.356 . S
C539 C538 1.363 . S
C539 C545 1.363 1_455 S
C540 C541 1.363 . S
C540 C545 1.379 . S
C540 N547 1.356 . S
C541 C540 1.363 . S
C541 C544 1.363 1_655 S
N542 C544 1.356 . S
N542 H554 0.984 . S
N542 H555 0.985 . S
N543 C545 1.356 . S
N543 H548 0.984 . S
N543 H549 0.985 . S
C544 C538 1.379 . S
C544 C541 1.363 1_455 S
C544 N542 1.356 . S
C545 C539 1.363 1_655 S
C545 C540 1.379 . S
C545 N543 1.356 . S
N546 C538 1.356 . S
N546 H552 0.984 . S
N546 H553 0.984 . S
N547 C540 1.356 . S
N547 H550 0.984 . S
N547 H551 0.985 . S
H548 N543 0.984 . S
H549 N543 0.985 . S
H550 N547 0.984 . S
H551 N547 0.985 . S
H552 N546 0.984 . S
H553 N546 0.984 . S
H554 N542 0.984 . S
H555 N542 0.985 . S
C556 C557 1.363 1_565 S
C556 C562 1.379 1_556 S
C556 N564 1.356 . S
C557 C556 1.363 1_545 S
C557 C563 1.363 . S
C558 C559 1.363 1_545 S
C558 C563 1.379 1_554 S
C558 N565 1.356 . S
C559 C558 1.363 1_565 S
C559 C562 1.363 . S
N560 C562 1.356 . S
N560 H572 0.984 . S
N560 H573 0.985 . S
N561 C563 1.356 . S
N561 H566 0.984 . S
N561 H567 0.985 . S
C562 C556 1.379 1_554 S
C562 C559 1.363 . S
C562 N560 1.356 . S
C563 C557 1.363 . S
C563 C558 1.379 1_556 S
C563 N561 1.356 . S
N564 C556 1.356 . S
N564 H570 0.984 . S
N564 H571 0.984 . S
N565 C558 1.356 . S
N565 H568 0.984 . S
N565 H569 0.985 . S
H566 N561 0.984 . S
H567 N561 0.985 . S
H568 N565 0.984 . S
H569 N565 0.985 . S
H570 N564 0.984 . S
H571 N564 0.984 . S
H572 N560 0.984 . S
H573 N560 0.985 . S
C574 C575 1.363 . S
C574 C580 1.379 . S
C574 N582 1.356 . S
C575 C574 1.363 . S
C575 C581 1.363 1_565 S
C576 C577 1.363 . S
C576 C581 1.379 . S
C576 N583 1.356 . S
C577 C576 1.363 . S
C577 C580 1.363 1_545 S
N578 C580 1.356 . S
N578 H590 0.984 . S
N578 H591 0.985 . S
N579 C581 1.356 . S
N579 H584 0.984 . S
N579 H585 0.985 . S
C580 C574 1.379 . S
C580 C577 1.363 1_565 S
C580 N578 1.356 . S
C581 C575 1.363 1_545 S
C581 C576 1.379 . S
C581 N579 1.356 . S
N582 C574 1.356 . S
N582 H588 0.984 . S
N582 H589 0.984 . S
N583 C576 1.356 . S
N583 H586 0.984 . S
N583 H587 0.985 . S
H584 N579 0.984 . S
H585 N579 0.985 . S
H586 N583 0.984 . S
H587 N583 0.985 . S
H588 N582 0.984 . S
H589 N582 0.984 . S
H590 N578 0.984 . S
H591 N578 0.985 . S
C592 C593 1.363 . S
C592 C598 1.379 . S
C592 N600 1.356 . S
C593 C592 1.363 . S
C593 C599 1.363 1_655 S
C594 C595 1.363 . S
C594 C599 1.379 . S
C594 N601 1.356 . S
C595 C594 1.363 . S
C595 C598 1.363 1_455 S
N596 C598 1.356 1_455 S
N596 H608 0.984 1_455 S
N596 H609 0.985 . S
N597 C599 1.356 1_655 S
N597 H602 0.984 . S
N597 H603 0.985 1_655 S
C598 C592 1.379 . S
C598 C595 1.363 1_655 S
C598 N596 1.356 1_655 S
C599 C593 1.363 1_455 S
C599 C594 1.379 . S
C599 N597 1.356 1_455 S
N600 C592 1.356 . S
N600 H606 0.984 . S
N600 H607 0.984 . S
N601 C594 1.356 . S
N601 H604 0.984 . S
N601 H605 0.985 . S
H602 N597 0.984 . S
H603 N597 0.985 1_455 S
H604 N601 0.984 . S
H605 N601 0.985 . S
H606 N600 0.984 . S
H607 N600 0.984 . S
H608 N596 0.984 1_655 S
H609 N596 0.985 . S
C610 C611 1.363 1_655 S
C610 C616 1.379 . S
C610 N618 1.356 1_655 S
C611 C610 1.363 1_455 S
C611 C617 1.363 . S
C612 C613 1.363 1_455 S
C612 C617 1.379 . S
C612 N619 1.356 1_455 S
C613 C612 1.363 1_655 S
C613 C616 1.363 . S
N614 C616 1.356 . S
N614 H626 0.984 . S
N614 H627 0.985 . S
N615 C617 1.356 . S
N615 H620 0.984 . S
N615 H621 0.985 . S
C616 C610 1.379 . S
C616 C613 1.363 . S
C616 N614 1.356 . S
C617 C611 1.363 . S
C617 C612 1.379 . S
C617 N615 1.356 . S
N618 C610 1.356 1_455 S
N618 H624 0.984 1_455 S
N618 H625 0.984 . S
N619 C612 1.356 1_655 S
N619 H622 0.984 . S
N619 H623 0.985 1_655 S
H620 N615 0.984 . S
H621 N615 0.985 . S
H622 N619 0.984 . S
H623 N619 0.985 1_455 S
H624 N618 0.984 1_655 S
H625 N618 0.984 . S
H626 N614 0.984 . S
H627 N614 0.985 . S
C628 C629 1.363 . S
C628 C634 1.379 . S
C628 N636 1.356 . S
C629 C628 1.363 . S
C629 C635 1.363 . S
C630 C631 1.363 . S
C630 C635 1.379 . S
C630 N637 1.356 . S
C631 C630 1.363 . S
C631 C634 1.363 . S
N632 C634 1.356 . S
N632 H644 0.984 . S
N632 H645 0.985 . S
N633 C635 1.356 . S
N633 H638 0.984 . S
N633 H639 0.985 . S
C634 C628 1.379 . S
C634 C631 1.363 . S
C634 N632 1.356 . S
C635 C629 1.363 . S
C635 C630 1.379 . S
C635 N633 1.356 . S
N636 C628 1.356 . S
N636 H642 0.984 . S
N636 H643 0.984 . S
N637 C630 1.356 . S
N637 H640 0.984 . S
N637 H641 0.985 . S
H638 N633 0.984 . S
H639 N633 0.985 . S
H640 N637 0.984 . S
H641 N637 0.985 . S
H642 N636 0.984 . S
H643 N636 0.984 . S
H644 N632 0.984 . S
H645 N632 0.985 . S
C646 C647 1.363 . S
C646 C652 1.379 . S
C646 N654 1.356 . S
C647 C646 1.363 . S
C647 C653 1.363 . S
C648 C649 1.363 . S
C648 C653 1.379 . S
C648 N655 1.356 . S
C649 C648 1.363 . S
C649 C652 1.363 . S
N650 C652 1.356 . S
N650 H662 0.984 . S
N650 H663 0.985 . S
N651 C653 1.356 . S
N651 H656 0.984 . S
N651 H657 0.985 . S
C652 C646 1.379 . S
C652 C649 1.363 . S
C652 N650 1.356 . S
C653 C647 1.363 . S
C653 C648 1.379 . S
C653 N651 1.356 . S
N654 C646 1.356 . S
N654 H660 0.984 . S
N654 H661 0.984 . S
N655 C648 1.356 . S
N655 H658 0.984 . S
N655 H659 0.985 . S
H656 N651 0.984 . S
H657 N651 0.985 . S
H658 N655 0.984 . S
H659 N655 0.985 . S
H660 N654 0.984 . S
H661 N654 0.984 . S
H662 N650 0.984 . S
H663 N650 0.985 . S
C664 C665 1.363 . S
C664 C670 1.379 . S
C664 N672 1.356 . S
C665 C664 1.363 . S
C665 C671 1.363 1_455 S
C666 C667 1.363 . S
C666 C671 1.379 . S
C666 N673 1.356 . S
C667 C666 1.363 . S
C667 C670 1.363 1_655 S
N668 C670 1.356 1_655 S
N668 H680 0.984 1_655 S
N668 H681 0.985 . S
N669 C671 1.356 1_455 S
N669 H674 0.984 . S
N669 H675 0.985 1_455 S
C670 C664 1.379 . S
C670 C667 1.363 1_455 S
C670 N668 1.356 1_455 S
C671 C665 1.363 1_655 S
C671 C666 1.379 . S
C671 N669 1.356 1_655 S
N672 C664 1.356 . S
N672 H678 0.984 . S
N672 H679 0.984 . S
N673 C666 1.356 . S
N673 H676 0.984 . S
N673 H677 0.985 . S
H674 N669 0.984 . S
H675 N669 0.985 1_655 S
H676 N673 0.984 . S
H677 N673 0.985 . S
H678 N672 0.984 . S
H679 N672 0.984 . S
H680 N668 0.984 1_455 S
H681 N668 0.985 . S
C682 C683 1.363 1_655 S
C682 C688 1.379 . S
C682 N690 1.356 1_655 S
C683 C682 1.363 1_455 S
C683 C689 1.363 . S
C684 C685 1.363 1_455 S
C684 C689 1.379 . S
C684 N691 1.356 1_455 S
C685 C684 1.363 1_655 S
C685 C688 1.363 . S
N686 C688 1.356 . S
N686 H698 0.984 . S
N686 H699 0.985 . S
N687 C689 1.356 . S
N687 H692 0.984 . S
N687 H693 0.985 . S
C688 C682 1.379 . S
C688 C685 1.363 . S
C688 N686 1.356 . S
C689 C683 1.363 . S
C689 C684 1.379 . S
C689 N687 1.356 . S
N690 C682 1.356 1_455 S
N690 H696 0.984 1_455 S
N690 H697 0.984 . S
N691 C684 1.356 1_655 S
N691 H694 0.984 . S
N691 H695 0.985 1_655 S
H692 N687 0.984 . S
H693 N687 0.985 . S
H694 N691 0.984 . S
H695 N691 0.985 1_455 S
H696 N690 0.984 1_655 S
H697 N690 0.984 . S
H698 N686 0.984 . S
H699 N686 0.985 . S
C700 C701 1.363 . S
C700 C706 1.379 . S
C700 N708 1.356 . S
C701 C700 1.363 . S
C701 C707 1.363 . S
C702 C703 1.363 . S
C702 C707 1.379 . S
C702 N709 1.356 . S
C703 C702 1.363 . S
C703 C706 1.363 . S
N704 C706 1.356 . S
N704 H716 0.984 . S
N704 H717 0.985 . S
N705 C707 1.356 . S
N705 H710 0.984 . S
N705 H711 0.985 . S
C706 C700 1.379 . S
C706 C703 1.363 . S
C706 N704 1.356 . S
C707 C701 1.363 . S
C707 C702 1.379 . S
C707 N705 1.356 . S
N708 C700 1.356 . S
N708 H714 0.984 . S
N708 H715 0.984 . S
N709 C702 1.356 . S
N709 H712 0.984 . S
N709 H713 0.985 . S
H710 N705 0.984 . S
H711 N705 0.985 . S
H712 N709 0.984 . S
H713 N709 0.985 . S
H714 N708 0.984 . S
H715 N708 0.984 . S
H716 N704 0.984 . S
H717 N704 0.985 . S
C718 C719 1.363 . S
C718 C724 1.379 . S
C718 N726 1.356 . S
C719 C718 1.363 . S
C719 C725 1.363 . S
C720 C721 1.363 . S
C720 C725 1.379 . S
C720 N727 1.356 . S
C721 C720 1.363 . S
C721 C724 1.363 . S
N722 C724 1.356 . S
N722 H734 0.984 . S
N722 H735 0.985 . S
N723 C725 1.356 . S
N723 H728 0.984 . S
N723 H729 0.985 . S
C724 C718 1.379 . S
C724 C721 1.363 . S
C724 N722 1.356 . S
C725 C719 1.363 . S
C725 C720 1.379 . S
C725 N723 1.356 . S
N726 C718 1.356 . S
N726 H732 0.984 . S
N726 H733 0.984 . S
N727 C720 1.356 . S
N727 H730 0.984 . S
N727 H731 0.985 . S
H728 N723 0.984 . S
H729 N723 0.985 . S
H730 N727 0.984 . S
H731 N727 0.985 . S
H732 N726 0.984 . S
H733 N726 0.984 . S
H734 N722 0.984 . S
H735 N722 0.985 . S
C233 C42 2.933 . S
C235 C13 2.933 . S
C251 C100 2.933 . S
C253 C71 2.933 . S
C269 C129 2.933 . S
C271 C158 2.933 . S
C287 C216 2.933 . S
C289 C187 2.933 . S
C305 C189 3.034 . S
C307 C15 3.034 . S
C323 C44 3.034 . S
C325 C218 3.034 . S
C341 C131 3.034 . S
C343 C73 3.034 . S
C359 C102 3.034 . S
C361 C160 3.034 . S
C377 C90 2.007 . S
C379 C10 1.904 1_556 S
C395 C61 2.007 . S
C397 C39 1.904 . S
C413 C32 2.007 . S
C415 C68 1.904 1_554 S
C431 C97 1.904 . S
C433 C3 2.007 . S
C449 C126 1.904 1_556 S
C451 C206 2.007 . S
C467 C177 2.007 . S
C469 C155 1.904 . S
C485 C148 2.007 . S
C487 C184 1.904 1_554 S
C503 C119 2.007 . S
C505 C213 1.904 . S
C521 C79 0.758 . S
C523 C21 0.758 . S
C539 C108 0.758 . S
C541 C50 0.758 . S
C557 C195 0.758 . S
C559 C137 0.758 . S
C575 C166 0.758 . S
C577 C224 0.758 . S
C593 C37 1.007 . S
C595 C8 1.007 . S
C611 C95 1.007 . S
C613 C66 1.007 . S
C629 C124 1.007 . S
C631 C153 1.007 . S
C647 C182 1.007 . S
C649 C211 1.007 . S
C665 C5 2.198 . S
C667 C34 2.198 . S
C683 C92 2.198 . S
C685 C63 2.198 . S
C701 C150 2.198 . S
C703 C121 2.198 . S
C719 C179 2.198 . S
C721 C208 2.198 . S
