# Generated by pormake.
# Topology snz, (6)-cn, num edge types: 1
# Building blocks:
#     Node 0, Type 0, BuildingBlock: CUKXOW_clean_sbu_0, # of connection points: 6
#     Node 1, Type 0, BuildingBlock: CUKXOW_clean_sbu_0, # of connection points: 6
#     Node 2, Type 0, BuildingBlock: CUKXOW_clean_sbu_0, # of connection points: 6
#     Node 3, Type 0, BuildingBlock: CUKXOW_clean_sbu_0, # of connection points: 6
#     Node 4, Type 0, BuildingBlock: CUKXOW_clean_sbu_0, # of connection points: 6
#     Node 5, Type 0, BuildingBlock: CUKXOW_clean_sbu_0, # of connection points: 6
#     Node 6, Type 0, BuildingBlock: CUKXOW_clean_sbu_0, # of connection points: 6
#     Node 7, Type 0, BuildingBlock: CUKXOW_clean_sbu_0, # of connection points: 6
#     Node 8, Type 0, BuildingBlock: CUKXOW_clean_sbu_0, # of connection points: 6
#     Edge 9, Type (0, 0), BuildingBlock: TEMPAE_clean_linker_10, # of connection points: 2
#     Edge 10, Type (0, 0), BuildingBlock: TEMPAE_clean_linker_10, # of connection points: 2
#     Edge 11, Type (0, 0), BuildingBlock: TEMPAE_clean_linker_10, # of connection points: 2
#     Edge 12, Type (0, 0), BuildingBlock: TEMPAE_clean_linker_10, # of connection points: 2
#     Edge 13, Type (0, 0), BuildingBlock: TEMPAE_clean_linker_10, # of connection points: 2
#     Edge 14, Type (0, 0), BuildingBlock: TEMPAE_clean_linker_10, # of connection points: 2
#     Edge 15, Type (0, 0), BuildingBlock: TEMPAE_clean_linker_10, # of connection points: 2
#     Edge 16, Type (0, 0), BuildingBlock: TEMPAE_clean_linker_10, # of connection points: 2
#     Edge 17, Type (0, 0), BuildingBlock: TEMPAE_clean_linker_10, # of connection points: 2
#     Edge 18, Type (0, 0), BuildingBlock: TEMPAE_clean_linker_10, # of connection points: 2
#     Edge 19, Type (0, 0), BuildingBlock: TEMPAE_clean_linker_10, # of connection points: 2
#     Edge 20, Type (0, 0), BuildingBlock: TEMPAE_clean_linker_10, # of connection points: 2
#     Edge 21, Type (0, 0), BuildingBlock: TEMPAE_clean_linker_10, # of connection points: 2
#     Edge 22, Type (0, 0), BuildingBlock: TEMPAE_clean_linker_10, # of connection points: 2
#     Edge 23, Type (0, 0), BuildingBlock: TEMPAE_clean_linker_10, # of connection points: 2
#     Edge 24, Type (0, 0), BuildingBlock: TEMPAE_clean_linker_10, # of connection points: 2
#     Edge 25, Type (0, 0), BuildingBlock: TEMPAE_clean_linker_10, # of connection points: 2
#     Edge 26, Type (0, 0), BuildingBlock: TEMPAE_clean_linker_10, # of connection points: 2
#     Edge 27, Type (0, 0), BuildingBlock: TEMPAE_clean_linker_10, # of connection points: 2
#     Edge 28, Type (0, 0), BuildingBlock: TEMPAE_clean_linker_10, # of connection points: 2
#     Edge 29, Type (0, 0), BuildingBlock: TEMPAE_clean_linker_10, # of connection points: 2
#     Edge 30, Type (0, 0), BuildingBlock: TEMPAE_clean_linker_10, # of connection points: 2
#     Edge 31, Type (0, 0), BuildingBlock: TEMPAE_clean_linker_10, # of connection points: 2
#     Edge 32, Type (0, 0), BuildingBlock: TEMPAE_clean_linker_10, # of connection points: 2
#     Edge 33, Type (0, 0), BuildingBlock: TEMPAE_clean_linker_10, # of connection points: 2
#     Edge 34, Type (0, 0), BuildingBlock: TEMPAE_clean_linker_10, # of connection points: 2
#     Edge 35, Type (0, 0), BuildingBlock: TEMPAE_clean_linker_10, # of connection points: 2
# Relax obj value: 0.105
# Max RMSD: 0.185
# Mean RMSD: 0.132
data_MOF--net-snz--node1-CUKXOW_clean_sbu_0--edge1-TEMPAE_clean_linker_10
_symmetry_space_group_name_H-M    P1
_symmetry_Int_Tables_number       1
_symmetry_cell_setting            triclinic
loop_
_symmetry_equiv_pos_as_xyz
'x, y, z'
_cell_length_a     50.236117
_cell_length_b     56.973262
_cell_length_c     14.713986
_cell_angle_alpha  93.273408
_cell_angle_beta   93.074298
_cell_angle_gamma 120.15392
loop_
_atom_site_label
_atom_site_type_symbol
_atom_site_fract_x
_atom_site_fract_y
_atom_site_fract_z
_atom_type_partial_charge
Tb0 Tb 0.03115 0.42566 0.97165 0.0
C1 C 0.07482 0.46483 0.83977 0.0
Tb2 Tb 0.07384 0.48824 0.0359 0.0
O3 O 1.00467 0.43544 0.87199 0.0
O4 O 0.02661 0.46078 0.99161 0.0
O5 O 0.06288 0.44005 0.86734 0.0
C6 C 0.09628 0.54075 0.08432 0.0
O7 O 0.07767 0.48611 0.89054 0.0
C8 C 0.10315 0.46102 0.06771 0.0
C9 C 0.03327 0.449 0.17015 0.0
O10 O 0.09004 0.52974 0.00029 0.0
O11 O 0.0897 0.52219 0.14015 0.0
O12 O 0.11551 0.48714 0.08601 0.0
O13 O 0.07612 0.45253 0.03307 0.0
O14 O 0.04137 0.47254 0.13741 0.0
O15 O 0.02989 0.42764 0.11902 0.0
C16 C 1.00299 0.37174 0.94264 0.0
O17 O 0.98945 0.38531 0.96493 0.0
O18 O 0.03214 0.38851 0.93665 0.0
C19 C 1.0119 0.45851 0.91654 0.0
Tb20 Tb 0.60719 0.50279 0.98691 0.0
C21 C 0.60285 0.47075 0.15612 0.0
Tb22 Tb 0.58722 0.43912 0.96035 0.0
O23 O 0.56312 0.49698 0.03061 0.0
O24 O 0.56866 0.46414 -0.00371 0.0
O25 O 0.61719 0.49482 0.12306 0.0
C26 C 0.56374 0.38575 0.94967 0.0
O27 O 0.58749 0.44698 0.10546 0.0
C28 C 0.64525 0.47368 0.92246 0.0
C29 C 0.57509 0.46722 0.79908 0.0
O30 O 0.58826 0.40361 0.00142 0.0
O31 O 0.55176 0.3979 0.90525 0.0
O32 O 0.63326 0.44752 0.91974 0.0
O33 O 0.62422 0.47773 0.94539 0.0
O34 O 0.56718 0.444 0.83522 0.0
O35 O 0.59357 0.49209 0.84162 0.0
C36 C 0.64811 0.55554 0.00268 0.0
O37 O 0.6188 0.54498 0.9771 0.0
O38 O 0.65408 0.53651 0.01976 0.0
C39 C 0.5492 0.47036 0.02227 0.0
Tb40 Tb 0.61445 0.97318 0.08578 0.0
C41 C 0.60909 0.93463 0.92111 0.0
Tb42 Tb 0.63356 0.93177 0.11377 0.0
O43 O 0.66285 0.00552 0.11155 0.0
O44 O 0.65182 0.96811 0.04726 0.0
O45 O 0.59359 0.94397 0.96506 0.0
C46 C 0.67021 0.91131 0.15525 0.0
O47 O 0.63044 0.93154 0.96626 0.0
C48 C 0.57399 0.9133 0.12672 0.0
C49 C 0.63829 0.97245 0.2816 0.0
O50 O 0.64327 0.89798 0.10828 0.0
O51 O 0.67617 0.93584 0.17878 0.0
O52 O 0.58518 0.89799 0.10159 0.0
O53 O 0.59634 0.93681 0.15252 0.0
O54 O 0.64727 0.95575 0.24709 0.0
O55 O 0.62156 0.98002 0.23243 0.0
C56 C 0.59086 0.00327 0.02818 0.0
O57 O 0.6165 0.00523 0.00732 0.0
O58 O 0.57807 0.98417 0.08266 0.0
C59 C 0.67413 0.99136 0.07661 0.0
Tb60 Tb 0.82794 0.79922 0.31788 0.0
C61 C 0.87371 0.8347 0.17853 0.0
Tb62 Tb 0.87402 0.85933 0.37146 0.0
O63 O 0.78981 0.80624 0.34087 0.0
O64 O 0.82989 0.83672 0.29441 0.0
O65 O 0.85651 0.80999 0.20458 0.0
C66 C 0.90143 0.91333 0.39523 0.0
O67 O 0.88133 0.85737 0.22962 0.0
C68 C 0.89245 0.82598 0.42607 0.0
C69 C 0.83608 0.82276 0.51632 0.0
O70 O 0.91563 0.89984 0.3816 0.0
O71 O 0.87202 0.89643 0.39596 0.0
O72 O 0.90225 0.85013 0.46642 0.0
O73 O 0.87605 0.82308 0.35395 0.0
O74 O 0.84531 0.8465 0.48347 0.0
O75 O 0.83059 0.80077 0.46471 0.0
C76 C 0.7962 0.74805 0.24393 0.0
O77 O 0.81106 0.75575 0.3251 0.0
O78 O 0.799 0.76899 0.20571 0.0
C79 C 0.80399 0.83117 0.32032 0.0
Tb80 Tb 0.31354 0.84635 0.37262 0.0
C81 C 0.32762 0.81629 0.52 0.0
Tb82 Tb 0.2962 0.78596 0.33004 0.0
O83 O 0.26382 0.83218 0.34916 0.0
O84 O 0.27825 0.80725 0.40255 0.0
O85 O 0.3389 0.83933 0.48078 0.0
C86 C 0.25296 0.73424 0.29103 0.0
O87 O 0.30749 0.79223 0.47612 0.0
C88 C 0.35383 0.81867 0.29525 0.0
C89 C 0.29562 0.82192 0.17301 0.0
O90 O 0.28088 0.74245 0.32744 0.0
O91 O 0.24993 0.75499 0.2762 0.0
O92 O 0.34061 0.79213 0.28806 0.0
O93 O 0.33435 0.82467 0.32239 0.0
O94 O 0.28452 0.79728 0.20135 0.0
O95 O 0.31086 0.8448 0.22744 0.0
C96 C 0.33272 0.89725 0.43784 0.0
O97 O 0.31306 0.87556 0.47314 0.0
O98 O 0.34241 0.89043 0.36636 0.0
C99 C 0.25468 0.80828 0.37626 0.0
Tb100 Tb 0.26765 0.35018 0.19986 0.0
C101 C 0.26757 0.3132 0.04373 0.0
Tb102 Tb 0.29492 0.31383 0.2373 0.0
O103 O 0.30714 0.37744 0.12575 0.0
O104 O 0.31299 0.35592 0.22502 0.0
O105 O 0.24879 0.31878 0.087 0.0
C106 C 0.32456 0.28601 0.25273 0.0
O107 O 0.29077 0.31287 0.08915 0.0
C108 C 0.23878 0.2956 0.28677 0.0
C109 C 0.29506 0.35174 0.39856 0.0
O110 O 0.2965 0.27622 0.21606 0.0
O111 O 0.33629 0.31178 0.27812 0.0
O112 O 0.25854 0.28979 0.32303 0.0
O113 O 0.24926 0.30807 0.21705 0.0
O114 O 0.30934 0.33931 0.36581 0.0
O115 O 0.2762 0.35666 0.34745 0.0
C116 C 0.23128 0.37204 0.17774 0.0
O117 O 0.23635 0.36331 0.2526 0.0
O118 O 0.24718 0.36898 0.11663 0.0
C119 C 0.32583 0.37035 0.16169 0.0
Tb120 Tb 0.4294 0.15124 0.63535 0.0
C121 C 0.49935 0.19881 0.69252 0.0
Tb122 Tb 0.47884 0.13761 0.67666 0.0
O123 O 0.41029 0.14016 0.76778 0.0
O124 O 0.45683 0.15414 0.75609 0.0
O125 O 0.47147 0.19157 0.65395 0.0
C126 C 0.51024 0.11478 0.74282 0.0
O127 O 0.50718 0.18089 0.71637 0.0
C128 C 0.47139 0.14636 0.50417 0.0
C129 C 0.40917 0.09101 0.64519 0.0
O130 O 0.50935 0.13514 0.78326 0.0
O131 O 0.49436 0.10792 0.66375 0.0
O132 O 0.49772 0.15203 0.54582 0.0
O133 O 0.45068 0.13407 0.55697 0.0
O134 O 0.43596 0.10047 0.69441 0.0
O135 O 0.40246 0.10738 0.60171 0.0
C136 C 0.40098 0.17233 0.53992 0.0
O137 O 0.39371 0.16276 0.61877 0.0
O138 O 0.42369 0.16962 0.51533 0.0
C139 C 0.43582 0.14387 0.80992 0.0
Tb140 Tb 0.91489 0.1229 0.65442 0.0
C141 C 0.95837 0.1009 0.60434 0.0
Tb142 Tb 0.98227 0.1642 0.63093 0.0
O143 O 0.9042 0.10837 0.50718 0.0
O144 O 0.93946 0.14773 0.5497 0.0
O145 O 0.93298 0.09567 0.64279 0.0
C146 C 0.03567 0.1958 0.55929 0.0
O147 O 0.97923 0.12562 0.58474 0.0
C148 C 0.9687 0.15662 0.80375 0.0
C149 C 0.93912 0.18614 0.68265 0.0
O150 O 0.03314 0.18491 0.63605 0.0
O151 O 1.0083 0.18902 0.52403 0.0
O152 O 0.99039 0.1793 0.77745 0.0
O153 O 0.95789 0.13899 0.73486 0.0
O154 O 0.96365 0.19114 0.6396 0.0
O155 O 0.91888 0.16152 0.70445 0.0
C156 C 0.86313 0.09164 0.73383 0.0
O157 O 0.8906 0.09646 0.75974 0.0
O158 O 0.86457 0.10431 0.66172 0.0
C159 C 0.92752 0.13004 0.48085 0.0
Tb160 Tb 0.98686 0.66059 0.65828 0.0
C161 C 0.96344 0.60012 0.69852 0.0
Tb162 Tb 0.91796 0.624 0.67588 0.0
O163 O 0.99947 0.65962 0.80272 0.0
O164 O 0.95645 0.6546 0.76317 0.0
O165 O 0.98558 0.622 0.6654 0.0
C166 C 0.86119 0.59322 0.73239 0.0
O167 O 0.93622 0.59753 0.71383 0.0
C168 C 0.93318 0.63264 0.50564 0.0
C169 C 0.94176 0.68475 0.63989 0.0
O170 O 0.87047 0.58851 0.65628 0.0
O171 O 0.88403 0.61504 0.77684 0.0
O172 O 0.90704 0.62815 0.53318 0.0
O173 O 0.94835 0.62967 0.57126 0.0
O174 O 0.92001 0.66309 0.67497 0.0
O175 O 0.96844 0.68688 0.62079 0.0
C176 C 0.04226 0.69112 0.59352 0.0
O177 O 0.03365 0.69696 0.66916 0.0
O178 O 0.01959 0.66818 0.55444 0.0
C179 C 0.97251 0.6529 0.82942 0.0
C180 C 0.08277 0.44847 0.69035 0.0
C181 C 0.0776 0.46688 0.74226 0.0
C182 C 0.07749 0.44539 0.59516 0.0
C183 C 0.06624 0.46073 0.55261 0.0
C184 C 0.06257 0.48039 0.6045 0.0
C185 C 0.06877 0.48352 0.69916 0.0
C186 C 0.08243 0.42482 0.54072 0.0
C187 C 0.05027 0.49687 0.56083 0.0
C188 C 0.07094 0.46969 0.30308 0.0
C189 C 0.04068 0.45061 0.26746 0.0
C190 C 0.07991 0.47247 0.39582 0.0
C191 C 0.05778 0.45604 0.45373 0.0
C192 C 0.02723 0.43629 0.41782 0.0
C193 C 1.01906 0.43351 0.3237 0.0
C194 C 0.1128 0.49335 0.43193 0.0
C195 C 1.00312 0.41876 0.47903 0.0
H196 H 0.08959 0.43565 0.7244 0.0
H197 H 0.0643 0.49747 0.73966 0.0
H198 H 0.05981 0.40766 0.5099 0.0
H199 H 0.09666 0.43424 0.48378 0.0
H200 H 0.09396 0.41646 0.58365 0.0
H201 H 0.04981 0.51195 0.61108 0.0
H202 H 0.06461 0.5079 0.506 0.0
H203 H 0.02638 0.483 0.52868 0.0
H204 H 0.08769 0.4824 0.25791 0.0
H205 H 0.99581 0.41864 0.29458 0.0
H206 H 0.12316 0.48373 0.4732 0.0
H207 H 0.11298 0.50964 0.47753 0.0
H208 H 0.12764 0.50295 0.37618 0.0
H209 H 1.0114 0.40738 0.5192 0.0
H210 H 0.98072 0.40392 0.43976 0.0
H211 H 0.99918 0.43189 0.52856 0.0
C212 C 0.56635 0.48704 0.66342 0.0
C213 C 0.56633 0.46516 0.70201 0.0
C214 C 0.56588 0.48806 0.56893 0.0
C215 C 0.5665 0.46718 0.51438 0.0
C216 C 0.56311 0.44369 0.55223 0.0
C217 C 0.5625 0.44278 0.6462 0.0
C218 C 0.5676 0.51254 0.52891 0.0
C219 C 0.56396 0.4211 0.49563 0.0
C220 C 0.563 0.45807 0.26087 0.0
C221 C 0.5945 0.47073 0.24835 0.0
C222 C 0.55338 0.45911 0.3469 0.0
C223 C 0.57597 0.47162 0.42201 0.0
C224 C 0.60797 0.48494 0.40955 0.0
C225 C 0.61692 0.48492 0.32141 0.0
C226 C 0.5192 0.446 0.35751 0.0
C227 C 0.6326 0.49794 0.4894 0.0
H228 H 0.56846 0.50399 0.70713 0.0
H229 H 0.56214 0.42569 0.67629 0.0
H230 H 0.59204 0.52756 0.52023 0.0
H231 H 0.55429 0.50669 0.46069 0.0
H232 H 0.55866 0.52269 0.57447 0.0
H233 H 0.55875 0.40342 0.53492 0.0
H234 H 0.54712 0.41377 0.43419 0.0
H235 H 0.5873 0.42902 0.47178 0.0
H236 H 0.54581 0.44756 0.20305 0.0
H237 H 0.6412 0.49507 0.3099 0.0
H238 H 0.51467 0.45872 0.40702 0.0
H239 H 0.51073 0.42587 0.38415 0.0
H240 H 0.50557 0.44277 0.29125 0.0
H241 H 0.62997 0.51352 0.53008 0.0
H242 H 0.65634 0.50782 0.4672 0.0
H243 H 0.62997 0.48223 0.53521 0.0
C244 C 0.63342 0.9707 0.82085 0.0
C245 C 0.61526 0.94278 0.82965 0.0
C246 C 0.64111 0.98014 0.73553 0.0
C247 C 0.62973 0.96103 0.65764 0.0
C248 C 0.6115 0.93266 0.66634 0.0
C249 C 0.60464 0.92377 0.75333 0.0
C250 C 0.66074 0.01047 0.72923 0.0
C251 C 0.5991 0.91185 0.58383 0.0
C252 C 0.61818 0.97931 0.42375 0.0
C253 C 0.64142 0.97752 0.38104 0.0
C254 C 0.61516 0.97561 0.51636 0.0
C255 C 0.63626 0.97055 0.56643 0.0
C256 C 0.66185 0.97193 0.52615 0.0
C257 C 0.66401 0.9752 0.43303 0.0
C258 C 0.58787 0.97465 0.55821 0.0
C259 C 0.68552 0.96787 0.57955 0.0
H260 H 0.64183 0.98522 0.8812 0.0
H261 H 0.59086 0.9022 0.76169 0.0
H262 H 0.67741 0.01505 0.67709 0.0
H263 H 0.64556 0.01856 0.70863 0.0
H264 H 0.67381 0.02153 0.79592 0.0
H265 H 0.58533 0.89064 0.60265 0.0
H266 H 0.58426 0.91584 0.53618 0.0
H267 H 0.61851 0.91357 0.54642 0.0
H268 H 0.60072 0.98114 0.38341 0.0
H269 H 0.68226 0.97427 0.39981 0.0
H270 H 0.59549 0.98751 0.62446 0.0
H271 H 0.57137 0.95341 0.57208 0.0
H272 H 0.57544 0.98165 0.51261 0.0
H273 H 0.69349 0.98069 0.64597 0.0
H274 H 0.70593 0.97293 0.54135 0.0
H275 H 0.67482 0.94628 0.59467 0.0
C276 C 0.82399 0.80242 0.66329 0.0
C277 C 0.84325 0.82364 0.61328 0.0
C278 C 0.83262 0.80304 0.75564 0.0
C279 C 0.86188 0.82442 0.79477 0.0
C280 C 0.88236 0.84446 0.74181 0.0
C281 C 0.87213 0.8446 0.65271 0.0
C282 C 0.81 0.78184 0.81217 0.0
C283 C 0.91452 0.86642 0.78027 0.0
C284 C 0.86747 0.85133 0.03628 0.0
C285 C 0.87794 0.83641 0.08271 0.0
C286 C 0.86189 0.84729 0.94181 0.0
C287 C 0.86878 0.82909 0.89369 0.0
C288 C 0.88204 0.81581 0.93994 0.0
C289 C 0.88563 0.81903 0.03532 0.0
C290 C 0.84697 0.86128 0.89433 0.0
C291 C 0.89118 0.79747 0.88965 0.0
H292 H 0.80197 0.78601 0.6311 0.0
H293 H 0.88719 0.86091 0.61346 0.0
H294 H 0.82079 0.77139 0.84615 0.0
H295 H 0.80368 0.79191 0.86677 0.0
H296 H 0.78852 0.76627 0.77038 0.0
H297 H 0.92941 0.87675 0.72538 0.0
H298 H 0.91316 0.88203 0.82513 0.0
H299 H 0.92576 0.85765 0.82233 0.0
H300 H 0.86099 0.8643 0.07427 0.0
H301 H 0.89348 0.80742 0.07278 0.0
H302 H 0.82557 0.84595 0.8518 0.0
H303 H 0.86286 0.87553 0.84812 0.0
H304 H 0.84091 0.87302 0.9434 0.0
H305 H 0.87054 0.77686 0.87323 0.0
H306 H 0.90868 0.79533 0.932 0.0
H307 H 0.90063 0.80533 0.82442 0.0
C308 C 0.30813 0.83111 0.64327 0.0
C309 C 0.32523 0.81914 0.61644 0.0
C310 C 0.30202 0.83235 0.7335 0.0
C311 C 0.31372 0.82156 0.79763 0.0
C312 C 0.33141 0.80969 0.77119 0.0
C313 C 0.33662 0.80821 0.67923 0.0
C314 C 0.28255 0.84461 0.75962 0.0
C315 C 0.34445 0.79845 0.83968 0.0
C316 C 0.32119 0.84655 0.04339 0.0
C317 C 0.29633 0.82385 0.07519 0.0
C318 C 0.32716 0.84606 0.9524 0.0
C319 C 0.30715 0.82267 0.89248 0.0
C320 C 0.28068 0.80054 0.92252 0.0
C321 C 0.27569 0.8013 0.01455 0.0
C322 C 0.35568 0.8699 0.92163 0.0
C323 C 0.25842 0.77574 0.85843 0.0
H324 H 0.29859 0.83868 0.59269 0.0
H325 H 0.3494 0.79864 0.65649 0.0
H326 H 0.26143 0.82915 0.78829 0.0
H327 H 0.29557 0.86185 0.81347 0.0
H328 H 0.27543 0.85217 0.70047 0.0
H329 H 0.35861 0.79081 0.80811 0.0
H330 H 0.35903 0.81449 0.89588 0.0
H331 H 0.32534 0.78149 0.87078 0.0
H332 H 0.33724 0.86396 0.09062 0.0
H333 H 0.25638 0.78389 0.03974 0.0
H334 H 0.34933 0.87778 0.86206 0.0
H335 H 0.37167 0.86308 0.89937 0.0
H336 H 0.36823 0.8869 0.97672 0.0
H337 H 0.25018 0.78194 0.79797 0.0
H338 H 0.23803 0.76106 0.89207 0.0
H339 H 0.27041 0.76513 0.83304 0.0
C340 C 0.26469 0.34283 0.52943 0.0
C341 C 0.29382 0.35348 0.49693 0.0
C342 C 0.26064 0.33651 0.61947 0.0
C343 C 0.2867 0.34225 0.6787 0.0
C344 C 0.31663 0.35513 0.64821 0.0
C345 C 0.31975 0.35998 0.55621 0.0
C346 C 0.22826 0.32207 0.64916 0.0
C347 C 0.34503 0.36284 0.71166 0.0
C348 C 0.2734 0.34358 0.92627 0.0
C349 C 0.27043 0.31888 0.94865 0.0
C350 C 0.28034 0.35207 0.83963 0.0
C351 C 0.28233 0.33452 0.77245 0.0
C352 C 0.27847 0.30909 0.79369 0.0
C353 C 0.27344 0.30187 0.88325 0.0
C354 C 0.28575 0.37985 0.82032 0.0
C355 C 0.2792 0.28948 0.72179 0.0
H356 H 0.24459 0.3373 0.48254 0.0
H357 H 0.34218 0.36803 0.52997 0.0
H358 H 0.22225 0.3014 0.66692 0.0
H359 H 0.22682 0.3332 0.7112 0.0
H360 H 0.21073 0.31997 0.59494 0.0
H361 H 0.36673 0.37587 0.68018 0.0
H362 H 0.34506 0.37389 0.77634 0.0
H363 H 0.34491 0.34415 0.72962 0.0
H364 H 0.27138 0.35682 0.97759 0.0
H365 H 0.27138 0.28292 0.9018 0.0
H366 H 0.26733 0.3776 0.76942 0.0
H367 H 0.30812 0.39157 0.79062 0.0
H368 H 0.28604 0.39189 0.88289 0.0
H369 H 0.26152 0.28456 0.66398 0.0
H370 H 0.27476 0.27018 0.74914 0.0
H371 H 0.30204 0.29905 0.69393 0.0
C372 C 0.45288 0.12145 0.34594 0.0
C373 C 0.46566 0.14591 0.403 0.0
C374 C 0.44838 0.12089 0.24981 0.0
C375 C 0.4561 0.14529 0.20902 0.0
C376 C 0.46849 0.16998 0.26709 0.0
C377 C 0.4735 0.17004 0.3628 0.0
C378 C 0.43561 0.09413 0.19169 0.0
C379 C 0.47629 0.19639 0.22815 0.0
C380 C 0.46983 0.14968 0.95336 0.0
C381 C 0.44112 0.14399 0.9117 0.0
C382 C 0.47492 0.14986 0.04914 0.0
C383 C 0.451 0.14492 0.10615 0.0
C384 C 0.42208 0.13954 0.06436 0.0
C385 C 0.41743 0.13887 0.96826 0.0
C386 C 0.50599 0.15531 0.08932 0.0
C387 C 0.39601 0.13473 0.12142 0.0
H388 H 0.44687 0.10274 0.37653 0.0
H389 H 0.48326 0.18899 0.40654 0.0
H390 H 0.41357 0.08901 0.15255 0.0
H391 H 0.45202 0.09592 0.14122 0.0
H392 H 0.43133 0.07708 0.23314 0.0
H393 H 0.48482 0.21366 0.28218 0.0
H394 H 0.49426 0.20149 0.17999 0.0
H395 H 0.45554 0.19415 0.18879 0.0
H396 H 0.48842 0.15396 0.91099 0.0
H397 H 0.39519 0.13462 0.9374 0.0
H398 H 0.50297 0.13837 0.12952 0.0
H399 H 0.51716 0.17422 0.13692 0.0
H400 H 0.52174 0.15758 0.03595 0.0
H401 H 0.3896 0.11672 0.15988 0.0
H402 H 0.37513 0.13129 0.07927 0.0
H403 H 0.40363 0.15253 0.17249 0.0
C404 C 0.96302 0.14401 0.35247 0.0
C405 C 0.93355 0.13492 0.38211 0.0
C406 C 0.9684 0.14705 0.25882 0.0
C407 C 0.94386 0.14134 0.19171 0.0
C408 C 0.91406 0.13233 0.22177 0.0
C409 C 0.90922 0.1288 0.31548 0.0
C410 C 1.00038 0.1559 0.23147 0.0
C411 C 0.88716 0.12657 0.15487 0.0
C412 C 0.96631 0.17404 0.96368 0.0
C413 C 0.96091 0.15206 0.90149 0.0
C414 C 0.9602 0.17072 0.05658 0.0
C415 C 0.94936 0.14491 0.09084 0.0
C416 C 0.94392 0.12261 0.02809 0.0
C417 C 0.94921 0.12633 0.93457 0.0
C418 C 0.96523 0.19499 0.11809 0.0
C419 C 0.93304 0.09479 0.06009 0.0
H420 H 0.98177 0.14781 0.40216 0.0
H421 H 0.88627 0.1215 0.33697 0.0
H422 H 0.99924 0.14084 0.17777 0.0
H423 H 1.00995 0.17574 0.20201 0.0
H424 H 1.01657 0.15809 0.2902 0.0
H425 H 0.86607 0.12169 0.18933 0.0
H426 H 0.89334 0.14447 0.11598 0.0
H427 H 0.88162 0.10911 0.1046 0.0
H428 H 0.97507 0.19399 0.93925 0.0
H429 H 0.94506 0.10918 0.88782 0.0
H430 H 0.98404 0.2005 0.17274 0.0
H431 H 0.94398 0.18981 0.15195 0.0
H432 H 0.97142 0.21309 0.08013 0.0
H433 H 0.94875 0.09633 0.11909 0.0
H434 H 0.93203 0.08006 0.00524 0.0
H435 H 0.90967 0.08657 0.08374 0.0
C436 C 0.92889 0.64978 0.35491 0.0
C437 C 0.94115 0.63718 0.40867 0.0
C438 C 0.93421 0.65313 0.26183 0.0
C439 C 0.95134 0.64274 0.21894 0.0
C440 C 0.96379 0.62994 0.2731 0.0
C441 C 0.95904 0.62777 0.36729 0.0
C442 C 0.92147 0.66792 0.20939 0.0
C443 C 0.98155 0.61791 0.23095 0.0
C444 C 0.93877 0.62915 0.95515 0.0
C445 C 0.9658 0.651 0.92792 0.0
C446 C 0.93393 0.62601 0.0489 0.0
C447 C 0.95632 0.64549 0.1181 0.0
C448 C 0.9834 0.66786 0.0904 0.0
C449 C 0.98802 0.67002 -0.00356 0.0
C450 C 0.90511 0.60139 0.07392 0.0
C451 C 1.00754 0.68973 0.16013 0.0
H452 H 0.91519 0.65729 0.38615 0.0
H453 H 0.96841 0.6178 0.40773 0.0
H454 H 0.94027 0.68487 0.17725 0.0
H455 H 0.90402 0.6538 0.15352 0.0
H456 H 0.91046 0.67639 0.25369 0.0
H457 H 0.9887 0.60769 0.28067 0.0
H458 H 0.96713 0.60284 0.17222 0.0
H459 H 1.00254 0.63413 0.20408 0.0
H460 H 0.92195 0.61386 0.90324 0.0
H461 H 1.00911 0.68686 0.97635 0.0
H462 H 0.89148 0.6079 0.11412 0.0
H463 H 0.91158 0.58947 0.11773 0.0
H464 H 0.89014 0.58787 0.01275 0.0
H465 H 0.99668 0.69834 0.20434 0.0
H466 H 0.02641 0.7066 0.12777 0.0
H467 H 1.01785 0.68084 0.20517 0.0
C468 C 0.1943 0.38594 0.23351 0.0
C469 C 0.21 0.38271 0.16234 0.0
C470 C 0.17452 0.39651 0.21918 0.0
C471 C 0.17023 0.4039 0.13145 0.0
C472 C 0.18544 0.39994 0.05888 0.0
C473 C 0.20518 0.38949 0.07528 0.0
C474 C 0.15885 0.40044 0.29849 0.0
C475 C 0.18149 0.40739 0.96427 0.0
C476 C 0.10395 0.41709 0.07223 0.0
C477 C 0.11929 0.44562 0.08424 0.0
C478 C 0.12001 0.40307 0.08832 0.0
C479 C 0.15216 0.418 0.11724 0.0
C480 C 0.16753 0.44683 0.13052 0.0
C481 C 0.15095 0.4602 0.11399 0.0
C482 C 0.10269 0.37233 0.07336 0.0
C483 C 0.20168 0.46366 0.16142 0.0
H484 H 0.19777 0.38052 0.30077 0.0
H485 H 0.21705 0.38682 0.01976 0.0
H486 H 0.16778 0.42252 0.31547 0.0
H487 H 0.13359 0.39058 0.27964 0.0
H488 H 0.16275 0.39191 0.36051 0.0
H489 H 0.19316 0.40132 0.91387 0.0
H490 H 0.15658 0.39744 0.94018 0.0
H491 H 0.19124 0.42975 0.96621 0.0
H492 H 0.07944 0.40574 0.05093 0.0
H493 H 0.16297 0.48228 0.12393 0.0
H494 H 0.10693 0.36366 0.13433 0.0
H495 H 0.11123 0.36576 0.0148 0.0
H496 H 0.07738 0.36365 0.05894 0.0
H497 H 0.20665 0.45733 0.22711 0.0
H498 H 0.21003 0.48585 0.17065 0.0
H499 H 0.21508 0.46012 0.1104 0.0
C500 C 0.66126 0.60321 0.04313 0.0
C501 C 0.67083 0.58463 0.02034 0.0
C502 C 0.68304 0.63032 0.07427 0.0
C503 C 0.71494 0.63893 0.07991 0.0
C504 C 0.72467 0.62056 0.05106 0.0
C505 C 0.70237 0.5934 0.023 0.0
C506 C 0.67187 0.64934 0.10556 0.0
C507 C 0.75849 0.62924 0.05337 0.0
C508 C 0.76935 0.71519 0.10728 0.0
C509 C 0.77774 0.71997 0.2017 0.0
C510 C 0.74981 0.68869 0.06589 0.0
C511 C 0.73792 0.66671 0.12095 0.0
C512 C 0.74696 0.67141 0.21618 0.0
C513 C 0.76716 0.6981 0.25544 0.0
C514 C 0.74143 0.68427 0.96375 0.0
C515 C 0.73443 0.6484 0.27697 0.0
H516 H 0.63677 0.5962 0.04137 0.0
H517 H 0.70962 0.57888 0.00476 0.0
H518 H 0.67879 0.65571 0.17977 0.0
H519 H 0.68279 0.66807 0.06945 0.0
H520 H 0.64635 0.6397 0.09349 0.0
H521 H 0.76211 0.61415 0.01315 0.0
H522 H 0.77189 0.64933 0.02616 0.0
H523 H 0.76799 0.63138 0.12514 0.0
H524 H 0.7779 0.73222 0.06579 0.0
H525 H 0.77374 0.70197 0.32852 0.0
H526 H 0.71639 0.6767 0.94905 0.0
H527 H 0.74588 0.66849 0.93283 0.0
H528 H 0.75464 0.70328 0.92999 0.0
H529 H 0.70887 0.63851 0.27373 0.0
H530 H 0.7441 0.6555 0.34945 0.0
H531 H 0.73984 0.63262 0.2526 0.0
C532 C 0.51738 0.87851 0.10293 0.0
C533 C 0.54157 0.90276 0.14903 0.0
C534 C 0.48674 0.8675 0.12595 0.0
C535 C 0.48011 0.88054 0.19906 0.0
C536 C 0.5045 0.90528 0.24514 0.0
C537 C 0.53479 0.9163 0.21865 0.0
C538 C 0.46151 0.84153 0.0731 0.0
C539 C 0.49887 0.91956 0.32491 0.0
C540 C 0.39514 0.85847 0.22378 0.0
C541 C 0.38667 0.83741 0.28072 0.0
C542 C 0.42555 0.87306 0.19742 0.0
C543 C 0.44826 0.86704 0.23145 0.0
C544 C 0.43999 0.84674 0.2931 0.0
C545 C 0.40924 0.83182 0.31519 0.0
C546 C 0.43285 0.89378 0.12924 0.0
C547 C 0.46341 0.84012 0.33374 0.0
H548 H 0.52245 0.86808 0.04864 0.0
H549 H 0.55341 0.93501 0.25487 0.0
H550 H 0.45272 0.8247 0.11808 0.0
H551 H 0.44177 0.84402 0.04984 0.0
H552 H 0.46975 0.83545 0.01252 0.0
H553 H 0.51997 0.93908 0.35156 0.0
H554 H 0.48024 0.92381 0.30456 0.0
H555 H 0.49099 0.90608 0.38109 0.0
H556 H 0.37758 0.86248 0.19576 0.0
H557 H 0.40271 0.81546 0.35901 0.0
H558 H 0.43727 0.8862 0.06392 0.0
H559 H 0.45413 0.91329 0.15411 0.0
H560 H 0.41362 0.89781 0.11529 0.0
H561 H 0.47035 0.83056 0.27932 0.0
H562 H 0.4542 0.82595 0.38771 0.0
H563 H 0.48456 0.85907 0.36369 0.0
C564 C 0.59672 0.04087 0.9385 0.0
C565 C 0.57859 0.01996 0.99209 0.0
C566 C 0.5857 0.05668 0.90024 0.0
C567 C 0.55567 0.05135 0.91539 0.0
C568 C 0.53728 0.03036 0.97013 0.0
C569 C 0.54904 0.01491 0.00825 0.0
C570 C 0.6061 0.07892 0.84274 0.0
C571 C 0.50507 0.02399 0.98722 0.0
C572 C 0.538 0.10762 0.87423 0.0
C573 C 0.52291 0.09922 0.78561 0.0
C574 C 0.54844 0.09204 0.91793 0.0
C575 C 0.54348 0.06745 0.87192 0.0
C576 C 0.52811 0.05886 0.78244 0.0
C577 C 0.51809 0.07492 0.74024 0.0
C578 C 0.56491 0.10197 0.01308 0.0
C579 C 0.52229 0.03272 0.73124 0.0
H580 H 0.61962 0.04483 0.92592 0.0
H581 H 0.535 -0.00131 0.04949 0.0
H582 H 0.59486 0.07456 0.77199 0.0
H583 H 0.60933 0.09878 0.87076 0.0
H584 H 0.62921 0.08095 0.83976 0.0
H585 H 0.49398 0.0074 0.03268 0.0
H586 H 0.50578 0.04248 0.01877 0.0
H587 H 0.49039 0.01779 0.92131 0.0
H588 H 0.54149 0.12631 0.90968 0.0
H589 H 0.50612 0.06825 0.67203 0.0
H590 H 0.58878 0.10562 0.01261 0.0
H591 H 0.55288 0.08615 0.06034 0.0
H592 H 0.56617 0.12112 0.04036 0.0
H593 H 0.54462 0.03391 0.72076 0.0
H594 H 0.50905 0.02845 0.66346 0.0
H595 H 0.50924 0.0153 0.77199 0.0
C596 C 0.94724 0.2324 0.66918 0.0
C597 C 0.93725 0.20974 0.71907 0.0
C598 C 0.95216 0.25721 0.71015 0.0
C599 C 0.94784 0.25948 0.8039 0.0
C600 C 0.9358 0.23612 0.8529 0.0
C601 C 0.93029 0.21133 0.80932 0.0
C602 C 0.96437 0.28152 0.65499 0.0
C603 C 0.93142 0.23781 0.95325 0.0
C604 C 1.00553 0.32969 0.91654 0.0
C605 C 0.98764 0.34214 0.91946 0.0
C606 C 0.99226 0.30218 0.88452 0.0
C607 C 0.96045 0.28699 0.8527 0.0
C608 C 0.94195 0.29916 0.85938 0.0
C609 C 0.95579 0.32669 0.89363 0.0
C610 C 1.01269 0.28979 0.88044 0.0
C611 C 0.90805 0.28365 0.82542 0.0
H612 H 0.95249 0.23102 0.59921 0.0
H613 H 0.9229 0.1938 0.84815 0.0
H614 H 0.95187 0.29273 0.66622 0.0
H615 H 0.98918 0.29579 0.67756 0.0
H616 H 0.96216 0.27549 0.58059 0.0
H617 H 0.91733 0.21729 0.97725 0.0
H618 H 0.95436 0.24828 0.99357 0.0
H619 H 0.92018 0.24994 0.9677 0.0
H620 H 0.03014 0.34166 0.93734 0.0
H621 H 0.94201 0.33644 0.8959 0.0
H622 H 1.0155 0.28565 0.80803 0.0
H623 H 1.00189 0.27005 0.91088 0.0
H624 H 0.03601 0.30343 0.91692 0.0
H625 H 0.90554 0.28035 0.74964 0.0
H626 H 0.89612 0.29479 0.84615 0.0
H627 H 0.89629 0.26327 0.85149 0.0
C628 C 0.82356 0.58181 0.85152 0.0
C629 C 0.82954 0.57707 0.76227 0.0
C630 C 0.79371 0.56667 0.88082 0.0
C631 C 0.76904 0.54639 0.81925 0.0
C632 C 0.77492 0.54192 0.72849 0.0
C633 C 0.80507 0.55714 0.7014 0.0
C634 C 0.78887 0.57186 0.97861 0.0
C635 C 0.74937 0.52083 0.66006 0.0
C636 C 0.70002 0.48627 0.90916 0.0
C637 C 0.67719 0.49354 0.90187 0.0
C638 C 0.73006 0.50356 0.88488 0.0
C639 C 0.73756 0.52872 0.85079 0.0
C640 C 0.71463 0.53633 0.84415 0.0
C641 C 0.6847 0.51863 0.86959 0.0
C642 C 0.75368 0.49466 0.89451 0.0
C643 C 0.72151 0.5629 0.80826 0.0
H644 H 0.84237 0.59713 0.89909 0.0
H645 H 0.80945 0.5535 0.63217 0.0
H646 H 0.76744 0.57282 0.98211 0.0
H647 H 0.78614 0.55472 0.01716 0.0
H648 H 0.80866 0.59109 0.0131 0.0
H649 H 0.75725 0.52084 0.59094 0.0
H650 H 0.7405 0.50023 0.68339 0.0
H651 H 0.72976 0.52463 0.65493 0.0
H652 H 0.6943 0.46684 0.93368 0.0
H653 H 0.66693 0.52399 0.86118 0.0
H654 H 0.77469 0.51056 0.93709 0.0
H655 H 0.7608 0.4921 0.82631 0.0
H656 H 0.74467 0.47512 0.92605 0.0
H657 H 0.74197 0.58018 0.84876 0.0
H658 H 0.70169 0.5664 0.81076 0.0
H659 H 0.72723 0.56297 0.73644 0.0
C660 C 0.99896 0.58095 0.71077 0.0
C661 C 0.97015 0.57845 0.724 0.0
C662 C 1.00644 0.56162 0.73953 0.0
C663 C 0.98464 0.53909 0.78271 0.0
C664 C 0.95536 0.53619 0.79504 0.0
C665 C 0.94849 0.55584 0.76569 0.0
C666 C 0.0379 0.56556 0.72491 0.0
C667 C 0.93139 0.51246 0.84048 0.0
C668 C 0.99259 0.47597 0.79201 0.0
C669 C 1.00568 0.47943 0.88187 0.0
C670 C 0.98601 0.49534 0.75846 0.0
C671 C 0.99257 0.51877 0.81624 0.0
C672 C 1.00635 0.52257 0.90664 0.0
C673 C 1.01271 0.50286 0.93831 0.0
C674 C 0.9718 0.49061 0.66131 0.0
C675 C 1.01414 0.54735 0.97033 0.0
H676 H 1.01599 0.59827 0.67884 0.0
H677 H 0.92622 0.55362 0.77669 0.0
H678 H 0.05065 0.56781 0.7918 0.0
H679 H 0.03537 0.54735 0.6848 0.0
H680 H 0.05202 0.5838 0.68849 0.0
H681 H 0.9095 0.51275 0.8433 0.0
H682 H 0.92619 0.49295 0.80298 0.0
H683 H 0.94055 0.51288 0.91124 0.0
H684 H 0.98742 0.45803 0.74776 0.0
H685 H 0.02294 0.50569 0.00773 0.0
H686 H 0.98655 0.50816 0.62303 0.0
H687 H 0.94888 0.48906 0.66111 0.0
H688 H 0.96881 0.47174 0.62451 0.0
H689 H 0.02946 0.56621 0.93858 0.0
H690 H 0.02582 0.5478 0.03726 0.0
H691 H 0.99269 0.54763 0.98258 0.0
C692 C 0.52609 0.33739 0.89475 0.0
C693 C 0.55627 0.35768 0.92593 0.0
C694 C 0.51969 0.31127 0.86245 0.0
C695 C 0.54436 0.30601 0.85759 0.0
C696 C 0.57484 0.32647 0.89005 0.0
C697 C 0.58033 0.35197 0.92568 0.0
C698 C 0.48668 0.28954 0.83163 0.0
C699 C 0.60182 0.32192 0.88269 0.0
C700 C 0.52269 0.23204 0.82764 0.0
C701 C 0.51812 0.22701 0.73229 0.0
C702 C 0.53218 0.258 0.86996 0.0
C703 C 0.53829 0.27943 0.81499 0.0
C704 C 0.53619 0.27484 0.71853 0.0
C705 C 0.52528 0.24837 0.67805 0.0
C706 C 0.53304 0.26184 0.97273 0.0
C707 C 0.54376 0.2975 0.65797 0.0
H708 H 0.50762 0.34201 0.89512 0.0
H709 H 0.60379 0.36796 0.94863 0.0
H710 H 0.48402 0.28461 0.75649 0.0
H711 H 0.48063 0.27053 0.86373 0.0
H712 H 0.46997 0.29607 0.84904 0.0
H713 H 0.62393 0.33962 0.91445 0.0
H714 H 0.59768 0.30353 0.91584 0.0
H715 H 0.6043 0.31828 0.80953 0.0
H716 H 0.51626 0.21515 0.86908 0.0
H717 H 0.52124 0.24414 0.60422 0.0
H718 H 0.5141 0.26545 0.99043 0.0
H719 H 0.5551 0.27998 0.00194 0.0
H720 H 0.5302 0.24376 0.00576 0.0
H721 H 0.52549 0.30299 0.65799 0.0
H722 H 0.54542 0.29149 0.58625 0.0
H723 H 0.56597 0.31601 0.68432 0.0
C724 C 0.83828 0.06455 0.86329 0.0
C725 C 0.83542 0.07542 0.7826 0.0
C726 C 0.81271 0.04983 0.9129 0.0
C727 C 0.78348 0.04586 0.88124 0.0
C728 C 0.78039 0.05654 0.79909 0.0
C729 C 0.80642 0.07121 0.75074 0.0
C730 C 0.81709 0.0388 -0.00014 0.0
C731 C 0.74963 0.05269 0.76284 0.0
C732 C 0.71008 0.98974 0.96784 0.0
C733 C 0.70379 0.00453 0.03417 0.0
C734 C 0.7361 0.00281 0.9183 0.0
C735 C 0.7564 0.03137 0.93565 0.0
C736 C 0.7506 0.04623 0.00445 0.0
C737 C 0.72443 0.03263 0.0529 0.0
C738 C 0.7415 0.98616 0.84602 0.0
C739 C 0.77156 0.07668 0.02506 0.0
H740 H 0.86069 0.0678 0.88838 0.0
H741 H 0.80413 0.07957 0.6884 0.0
H742 H 0.81177 0.04826 0.05882 0.0
H743 H 0.80082 0.01648 -0.00416 0.0
H744 H 0.84106 0.04281 0.01345 0.0
H745 H 0.75102 0.06226 0.69822 0.0
H746 H 0.7323 0.03062 0.75019 0.0
H747 H 0.74106 0.06162 0.81444 0.0
H748 H 0.69417 0.96803 0.95271 0.0
H749 H 0.71967 0.0442 0.10388 0.0
H750 H 0.7649 0.98897 0.8599 0.0
H751 H 0.74052 0.9933 0.77801 0.0
H752 H 0.72412 0.96406 0.84273 0.0
H753 H 0.79567 0.08166 0.04332 0.0
H754 H 0.76427 0.08516 0.08198 0.0
H755 H 0.77165 0.087 0.96325 0.0
C756 C 0.71668 0.91578 0.2437 0.0
C757 C 0.69113 0.90077 0.1786 0.0
C758 C 0.73674 0.90618 0.26792 0.0
C759 C 0.73149 0.88115 0.22481 0.0
C760 C 0.70601 0.86617 0.15761 0.0
C761 C 0.68597 0.87603 0.13597 0.0
C762 C 0.76318 0.92256 0.34109 0.0
C763 C 0.69982 0.83961 0.10895 0.0
C764 C 0.79688 0.86507 0.23588 0.0
C765 C 0.78767 0.84625 0.30152 0.0
C766 C 0.77897 0.87677 0.21043 0.0
C767 C 0.75164 0.86993 0.25319 0.0
C768 C 0.7431 0.85178 0.32226 0.0
C769 C 0.761 0.83996 0.34474 0.0
C770 C 0.78871 0.89572 0.13568 0.0
C771 C 0.71467 0.84442 0.37136 0.0
H772 H 0.72076 0.93493 0.27695 0.0
H773 H 0.66637 0.86446 0.08517 0.0
H774 H 0.76044 0.91029 0.39953 0.0
H775 H 0.78545 0.92753 0.31421 0.0
H776 H 0.7645 0.94187 0.36676 0.0
H777 H 0.68023 0.83126 0.0547 0.0
H778 H 0.72077 0.84258 0.07753 0.0
H779 H 0.69442 0.82428 0.15879 0.0
H780 H 0.81739 0.86983 0.20187 0.0
H781 H 0.75391 0.82548 0.3958 0.0
H782 H 0.79138 0.91559 0.16076 0.0
H783 H 0.77048 0.88689 0.07735 0.0
H784 H 0.81082 0.89941 0.11047 0.0
H785 H 0.71555 0.86318 0.4009 0.0
H786 H 0.71226 0.83134 0.42717 0.0
H787 H 0.69369 0.8334 0.32217 0.0
C788 C 0.23437 0.68468 0.26254 0.0
C789 C 0.22813 0.70597 0.26703 0.0
C790 C 0.21082 0.65797 0.23292 0.0
C791 C 0.18049 0.6527 0.20847 0.0
C792 C 0.17401 0.67413 0.21516 0.0
C793 C 0.19798 0.70058 0.24447 0.0
C794 C 0.21848 0.63551 0.22595 0.0
C795 C 0.14185 0.66918 0.19127 0.0
C796 C 0.12924 0.5887 0.05022 0.0
C797 C 0.11363 0.57005 0.11315 0.0
C798 C 0.15048 0.61606 0.08014 0.0
C799 C 0.15568 0.62474 0.17481 0.0
C800 C 0.13837 0.6063 0.23777 0.0
C801 C 0.11762 0.57902 0.2061 0.0
C802 C 0.16846 0.63533 0.01116 0.0
C803 C 0.14284 0.61505 0.33893 0.0
H804 H 0.25774 0.68899 0.27998 0.0
H805 H 0.19314 0.71712 0.24917 0.0
H806 H 0.20385 0.61919 0.26872 0.0
H807 H 0.21335 0.62617 0.15425 0.0
H808 H 0.24316 0.64302 0.2481 0.0
H809 H 0.14149 0.68851 0.19042 0.0
H810 H 0.13213 0.65742 0.12329 0.0
H811 H 0.12638 0.65687 0.24215 0.0
H812 H 0.12607 0.58165 0.97831 0.0
H813 H 0.10532 0.56451 0.25459 0.0
H814 H 0.19334 0.64201 0.02407 0.0
H815 H 0.16647 0.65386 0.0184 0.0
H816 H 0.16035 0.62576 0.9397 0.0
H817 H 0.16632 0.62029 0.36696 0.0
H818 H 0.1256 0.59882 0.37745 0.0
H819 H 0.14107 0.6336 0.35093 0.0
C820 C 0.50281 0.46351 0.09657 0.0
C821 C 0.51704 0.45213 0.0453 0.0
C822 C 0.47205 0.44774 0.11711 0.0
C823 C 0.4545 0.41977 0.08421 0.0
C824 C 0.46895 0.40791 0.034 0.0
C825 C 0.50017 0.4242 0.01572 0.0
C826 C 0.45817 0.46121 0.17306 0.0
C827 C 0.45121 0.37819 -0.00205 0.0
C828 C 0.3797 0.37866 0.19787 0.0
C829 C 0.35813 0.38056 0.13884 0.0
C830 C 0.41087 0.39014 0.17905 0.0
C831 C 0.42073 0.40372 0.09889 0.0
C832 C 0.39856 0.40447 0.03707 0.0
C833 C 0.36769 0.39307 0.05804 0.0
C834 C 0.43345 0.38893 0.24777 0.0
C835 C 0.40766 0.41827 0.95014 0.0
H836 H 0.51584 0.48501 0.12087 0.0
H837 H 0.51107 0.41527 0.97636 0.0
H838 H 0.4387 0.46062 0.13155 0.0
H839 H 0.4487 0.44994 0.23341 0.0
H840 H 0.4753 0.4828 0.19732 0.0
H841 H 0.46603 0.37168 0.96425 0.0
H842 H 0.44093 0.36535 0.05453 0.0
H843 H 0.43184 0.37437 0.94773 0.0
H844 H 0.37248 0.36901 0.26045 0.0
H845 H 0.35104 0.39428 0.01146 0.0
H846 H 0.44611 0.40856 0.29163 0.0
H847 H 0.45077 0.38585 0.21358 0.0
H848 H 0.42147 0.37233 0.29265 0.0
H849 H 0.42323 0.44055 0.9673 0.0
H850 H 0.3873 0.41488 0.90524 0.0
H851 H 0.4206 0.41063 0.91142 0.0
C852 C 0.95567 0.7279 0.56702 0.0
C853 C 0.9352 0.70657 0.61583 0.0
C854 C 0.94878 0.74758 0.53838 0.0
C855 C 0.92075 0.74606 0.55903 0.0
C856 C 0.90026 0.72491 0.60976 0.0
C857 C 0.90768 0.70545 0.63732 0.0
C858 C 0.97131 0.76978 0.48459 0.0
C859 C 0.87022 0.72259 0.6337 0.0
C860 C 0.91505 0.81017 0.5469 0.0
C861 C 0.89908 0.8053 0.46044 0.0
C862 C 0.92192 0.79097 0.58036 0.0
C863 C 0.91266 0.76628 0.52593 0.0
C864 C 0.8961 0.76114 0.43897 0.0
C865 C 0.8895 0.7807 0.40734 0.0
C866 C 0.93932 0.79723 0.67368 0.0
C867 C 0.88559 0.73506 0.3789 0.0
H868 H 0.97693 0.72901 0.54955 0.0
H869 H 0.89164 0.68913 0.67497 0.0
H870 H 0.96006 0.76826 0.4158 0.0
H871 H 0.97823 0.7901 0.5193 0.0
H872 H 0.99247 0.7686 0.47616 0.0
H873 H 0.85716 0.70541 0.67552 0.0
H874 H 0.87479 0.74178 0.67213 0.0
H875 H 0.85544 0.71952 0.57021 0.0
H876 H 0.92226 0.82908 0.58855 0.0
H877 H 0.87707 0.77684 0.34056 0.0
H878 H 0.96148 0.79768 0.66744 0.0
H879 H 0.92571 0.78094 0.71786 0.0
H880 H 0.94439 0.8171 0.70809 0.0
H881 H 0.90595 0.73357 0.36159 0.0
H882 H 0.87221 0.73381 0.31435 0.0
H883 H 0.87096 0.7172 0.41609 0.0
C884 C 0.36681 0.04927 0.55338 0.0
C885 C 0.38934 0.06115 0.62822 0.0
C886 C 0.35336 0.02144 0.52412 0.0
C887 C 0.36302 0.00549 0.5705 0.0
C888 C 0.38389 0.01694 0.65029 0.0
C889 C 0.39653 0.04457 0.67874 0.0
C890 C 0.3305 0.00962 0.44007 0.0
C891 C 0.39484 0.00062 0.70154 0.0
C892 C 0.32196 0.9286 0.53112 0.0
C893 C 0.34025 0.92494 0.46973 0.0
C894 C 0.32825 0.95476 0.56161 0.0
C895 C 0.35385 0.97768 0.53141 0.0
C896 C 0.37226 0.97405 0.46876 0.0
C897 C 0.36501 0.94759 0.43785 0.0
C898 C 0.30785 0.9579 0.62709 0.0
C899 C 0.40011 0.9981 0.43637 0.0
H900 H 0.36106 0.06195 0.51433 0.0
H901 H 0.41359 0.05354 0.73761 0.0
H902 H 0.34182 0.00642 0.38178 0.0
H903 H 0.31055 0.98948 0.45111 0.0
H904 H 0.32178 0.0233 0.42089 0.0
H905 H 0.40914 0.01195 0.76643 0.0
H906 H 0.37489 0.98113 0.71749 0.0
H907 H 0.40892 0.99548 0.65798 0.0
H908 H 0.30254 0.91096 0.55492 0.0
H909 H 0.37902 0.94464 0.39012 0.0
H910 H 0.29977 0.97139 0.60108 0.0
H911 H 0.32126 0.96771 0.69427 0.0
H912 H 0.28736 0.93801 0.63778 0.0
H913 H 0.39321 0.01171 0.40478 0.0
H914 H 0.41148 0.99175 0.38577 0.0
H915 H 0.41727 0.01022 0.4956 0.0
C916 C 0.09352 0.22278 0.56535 0.0
C917 C 0.06459 0.21214 0.51584 0.0
C918 C 0.12102 0.23785 0.52362 0.0
C919 C 0.11956 0.24185 0.42958 0.0
C920 C 0.0903 0.23123 0.37955 0.0
C921 C 0.06321 0.21675 0.42352 0.0
C922 C 0.15168 0.2492 0.57993 0.0
C923 C 0.08758 0.23445 0.27892 0.0
C924 C 0.19294 0.29696 0.33861 0.0
C925 C 0.20629 0.28186 0.30832 0.0
C926 C 0.16435 0.28422 0.37665 0.0
C927 C 0.14859 0.25563 0.38265 0.0
C928 C 0.16145 0.24021 0.34769 0.0
C929 C 0.19035 0.25358 0.31244 0.0
C930 C 0.1519 0.30154 0.41482 0.0
C931 C 0.14524 0.20968 0.3506 0.0
H932 H 0.09466 0.21937 0.63682 0.0
H933 H 0.04085 0.20846 0.38489 0.0
H934 H 0.16425 0.2392 0.554 0.0
H935 H 0.16627 0.27132 0.5734 0.0
H936 H 0.14895 0.24614 0.65349 0.0
H937 H 0.06319 0.226 0.25072 0.0
H938 H 0.10101 0.2563 0.26698 0.0
H939 H 0.09751 0.22381 0.24043 0.0
H940 H 0.20564 0.3189 0.33753 0.0
H941 H 0.20089 0.24195 0.28981 0.0
H942 H 0.15264 0.30154 0.49034 0.0
H943 H 0.12739 0.29295 0.38821 0.0
H944 H 0.16545 0.32298 0.39789 0.0
H945 H 0.14469 0.20482 0.42266 0.0
H946 H 0.15687 0.20042 0.31319 0.0
H947 H 0.12091 0.20002 0.32042 0.0
C948 C 0.36701 0.19263 0.52735 0.0
C949 C 0.38823 0.18674 0.48966 0.0
C950 C 0.35689 0.20833 0.48281 0.0
C951 C 0.36823 0.21824 0.39857 0.0
C952 C 0.38908 0.21171 0.35922 0.0
C953 C 0.39887 0.19608 0.40536 0.0
C954 C 0.33458 0.21482 0.52687 0.0
C955 C 0.40159 0.22171 0.26942 0.0
C956 C 0.32174 0.2411 0.25507 0.0
C957 C 0.33804 0.26932 0.27945 0.0
C958 C 0.33186 0.22429 0.29095 0.0
C959 C 0.35882 0.23601 0.35307 0.0
C960 C 0.37607 0.26466 0.3749 0.0
C961 C 0.36549 0.281 0.33757 0.0
C962 C 0.31305 0.19388 0.26511 0.0
C963 C 0.40499 0.27796 0.44065 0.0
H964 H 0.35885 0.18548 0.59261 0.0
H965 H 0.4153 0.19152 0.37598 0.0
H966 H 0.34551 0.23721 0.54271 0.0
H967 H 0.31369 0.20801 0.47887 0.0
H968 H 0.32728 0.20494 0.59107 0.0
H969 H 0.41634 0.21363 0.24577 0.0
H970 H 0.38228 0.21562 0.21588 0.0
H971 H 0.41551 0.24432 0.27669 0.0
H972 H 0.30048 0.23201 0.21012 0.0
H973 H 0.3781 0.30282 0.35672 0.0
H974 H 0.30287 0.18335 0.32616 0.0
H975 H 0.32808 0.18622 0.24083 0.0
H976 H 0.29402 0.18822 0.21086 0.0
H977 H 0.39904 0.27099 0.50946 0.0
H978 H 0.41667 0.30058 0.4465 0.0
H979 H 0.42152 0.2718 0.41833 0.0
C980 C 0.89787 0.95513 0.40665 0.0
C981 C 0.91615 0.94307 0.41276 0.0
C982 C 0.91053 0.983 0.43174 0.0
C983 C 0.94212 -0.00096 0.46542 0.0
C984 C 0.96105 0.98719 0.46785 0.0
C985 C 0.94781 0.95923 0.4407 0.0
C986 C 0.88965 0.99494 0.42652 0.0
C987 C 0.99472 0.00361 0.50402 0.0
C988 C 0.96991 0.07454 0.48864 0.0
C989 C 0.96174 0.07748 0.57625 0.0
C990 C 0.96584 0.04942 0.45302 0.0
C991 C 0.95389 0.0272 0.50738 0.0
C992 C 0.94853 0.03105 0.59905 0.0
C993 C 0.95214 0.05609 0.63198 0.0
C994 C 0.97159 0.04606 0.35483 0.0
C995 C 0.93644 0.00806 0.65997 0.0
H996 H 0.87343 0.94261 0.384 0.0
H997 H 0.9619 0.9498 0.44527 0.0
H998 H 0.88626 0.00055 0.49664 0.0
H999 H 0.90041 0.01381 0.39106 0.0
H1000 H 0.86659 0.98042 0.39001 0.0
H1001 H 1.00719 0.99254 0.48918 0.0
H1002 H 1.0064 0.02343 0.47422 0.0
H1003 H 0.99656 0.00811 0.57922 0.0
H1004 H 0.97712 0.09111 0.44545 0.0
H1005 H 0.94607 0.05858 0.70009 0.0
H1006 H 0.94911 0.03489 0.3121 0.0
H1007 H 0.98313 0.03388 0.34762 0.0
H1008 H 0.986 0.06604 0.32773 0.0
H1009 H 0.91186 0.99307 0.63689 0.0
H1010 H 0.9379 0.01544 0.73263 0.0
H1011 H 0.94955 0.9972 0.65558 0.0
C1012 C 0.0791 0.69946 0.47371 0.0
C1013 C 0.07303 0.70751 0.55837 0.0
C1014 C 0.10819 0.71466 0.43984 0.0
C1015 C 0.13194 0.73854 0.49185 0.0
C1016 C 0.1259 0.74666 0.57761 0.0
C1017 C 0.09657 0.73113 0.60962 0.0
C1018 C 0.11351 0.70519 0.3483 0.0
C1019 C 0.1505 0.7718 0.63577 0.0
C1020 C 0.21674 0.76688 0.44862 0.0
C1021 C 0.22276 0.78914 0.3993 0.0
C1022 C 0.18721 0.74992 0.47744 0.0
C1023 C 0.16297 0.75525 0.45646 0.0
C1024 C 0.16876 0.77726 0.4043 0.0
C1025 C 0.19854 0.79392 0.37659 0.0
C1026 C 0.18221 0.7267 0.53246 0.0
C1027 C 0.14364 0.78357 0.37937 0.0
H1028 H 0.06104 0.68122 0.43369 0.0
H1029 H 0.0921 0.73744 0.67517 0.0
H1030 H 0.11968 0.72126 0.30093 0.0
H1031 H 0.13326 0.70165 0.35632 0.0
H1032 H 0.09287 0.6861 0.31651 0.0
H1033 H 0.14235 0.77521 0.70124 0.0
H1034 H 0.1712 0.76996 0.65131 0.0
H1035 H 0.15786 0.79002 0.59772 0.0
H1036 H 0.23533 0.76304 0.46652 0.0
H1037 H 0.20298 0.81104 0.33834 0.0
H1038 H 0.16242 0.70724 0.49971 0.0
H1039 H 0.17637 0.73015 0.60175 0.0
H1040 H 0.20295 0.7245 0.53962 0.0
H1041 H 0.12312 0.76521 0.34346 0.0
H1042 H 0.15137 0.80051 0.33489 0.0
H1043 H 0.13618 0.78925 0.44242 0.0
loop_
_geom_bond_atom_site_label_1
_geom_bond_atom_site_label_2
_geom_bond_distance
_geom_bond_site_symmetry_2
_ccdc_geom_bond_type
Tb0 O3 2.453 1_455 S
Tb0 O4 2.596 . S
Tb0 O5 2.374 1_554 S
Tb0 O13 2.343 . S
Tb0 O15 2.353 . S
Tb0 O17 2.427 1_455 S
Tb0 O18 2.513 1_554 S
C1 O5 1.251 . S
C1 O7 1.263 . S
Tb2 O4 2.343 . S
Tb2 O7 2.353 1_554 S
Tb2 O10 2.427 . S
Tb2 O11 2.513 . S
Tb2 O12 2.453 . S
Tb2 O13 2.596 . S
Tb2 O14 2.374 . S
O3 Tb0 2.453 1_655 S
O3 C19 1.245 1_655 S
O4 Tb0 2.596 . S
O4 Tb2 2.343 . S
O4 C19 1.259 . S
O5 Tb0 2.374 1_556 S
O5 C1 1.251 . S
C6 O10 1.275 . S
C6 O11 1.246 . S
O7 C1 1.263 . S
O7 Tb2 2.353 1_556 S
C8 O12 1.245 . S
C8 O13 1.259 . S
C9 O14 1.250 . S
C9 O15 1.263 . S
O10 Tb2 2.427 . S
O10 C6 1.275 . S
O11 Tb2 2.513 . S
O11 C6 1.246 . S
O12 Tb2 2.453 . S
O12 C8 1.245 . S
O13 Tb0 2.343 . S
O13 Tb2 2.596 . S
O13 C8 1.259 . S
O14 Tb2 2.374 . S
O14 C9 1.250 . S
O15 Tb0 2.353 . S
O15 C9 1.263 . S
C16 O17 1.275 . S
C16 O18 1.246 1_654 S
O17 Tb0 2.427 1_655 S
O17 C16 1.275 . S
O18 Tb0 2.513 1_556 S
O18 C16 1.246 1_456 S
C19 O3 1.245 1_455 S
C19 O4 1.259 . S
Tb20 O23 2.453 . S
Tb20 O24 2.596 . S
Tb20 O25 2.374 . S
Tb20 O33 2.343 . S
Tb20 O35 2.353 1_554 S
Tb20 O37 2.427 . S
Tb20 O38 2.513 . S
C21 O25 1.251 . S
C21 O27 1.263 . S
Tb22 O24 2.343 . S
Tb22 O27 2.353 . S
Tb22 O30 2.427 . S
Tb22 O31 2.513 1_554 S
Tb22 O32 2.453 . S
Tb22 O33 2.596 . S
Tb22 O34 2.374 1_554 S
O23 Tb20 2.453 . S
O23 C39 1.245 . S
O24 Tb20 2.596 . S
O24 Tb22 2.343 . S
O24 C39 1.259 . S
O25 Tb20 2.374 . S
O25 C21 1.251 . S
C26 O30 1.275 . S
C26 O31 1.246 1_554 S
O27 C21 1.263 . S
O27 Tb22 2.353 . S
C28 O32 1.245 . S
C28 O33 1.259 . S
C29 O34 1.250 . S
C29 O35 1.263 . S
O30 Tb22 2.427 . S
O30 C26 1.275 . S
O31 Tb22 2.513 1_556 S
O31 C26 1.246 1_556 S
O32 Tb22 2.453 . S
O32 C28 1.245 . S
O33 Tb20 2.343 . S
O33 Tb22 2.596 . S
O33 C28 1.259 . S
O34 Tb22 2.374 1_556 S
O34 C29 1.250 . S
O35 Tb20 2.353 1_556 S
O35 C29 1.263 . S
C36 O37 1.275 . S
C36 O38 1.246 . S
O37 Tb20 2.427 . S
O37 C36 1.275 . S
O38 Tb20 2.513 . S
O38 C36 1.246 . S
C39 O23 1.245 . S
C39 O24 1.259 . S
Tb40 O43 2.453 . S
Tb40 O44 2.596 . S
Tb40 O45 2.374 1_554 S
Tb40 O53 2.343 . S
Tb40 O55 2.353 . S
Tb40 O57 2.427 . S
Tb40 O58 2.513 . S
C41 O45 1.251 . S
C41 O47 1.263 1_545 S
Tb42 O44 2.343 1_565 S
Tb42 O47 2.353 1_554 S
Tb42 O50 2.427 . S
Tb42 O51 2.513 . S
Tb42 O52 2.453 . S
Tb42 O53 2.596 1_565 S
Tb42 O54 2.374 . S
O43 Tb40 2.453 . S
O43 C59 1.245 . S
O44 Tb40 2.596 . S
O44 Tb42 2.343 1_545 S
O44 C59 1.259 . S
O45 Tb40 2.374 1_556 S
O45 C41 1.251 . S
C46 O50 1.275 . S
C46 O51 1.246 . S
O47 C41 1.263 1_565 S
O47 Tb42 2.353 1_556 S
C48 O52 1.245 . S
C48 O53 1.259 1_565 S
C49 O54 1.250 1_545 S
C49 O55 1.263 . S
O50 Tb42 2.427 . S
O50 C46 1.275 . S
O51 Tb42 2.513 . S
O51 C46 1.246 . S
O52 Tb42 2.453 . S
O52 C48 1.245 . S
O53 Tb40 2.343 . S
O53 Tb42 2.596 1_545 S
O53 C48 1.259 1_545 S
O54 Tb42 2.374 . S
O54 C49 1.250 1_565 S
O55 Tb40 2.353 . S
O55 C49 1.263 . S
C56 O57 1.275 . S
C56 O58 1.246 . S
O57 Tb40 2.427 . S
O57 C56 1.275 . S
O58 Tb40 2.513 . S
O58 C56 1.246 . S
C59 O43 1.245 . S
C59 O44 1.259 . S
Tb60 O63 2.453 . S
Tb60 O64 2.596 . S
Tb60 O65 2.374 . S
Tb60 O73 2.343 . S
Tb60 O75 2.353 . S
Tb60 O77 2.427 . S
Tb60 O78 2.513 . S
C61 O65 1.251 . S
C61 O67 1.263 . S
Tb62 O64 2.343 . S
Tb62 O67 2.353 . S
Tb62 O70 2.427 . S
Tb62 O71 2.513 . S
Tb62 O72 2.453 . S
Tb62 O73 2.596 . S
Tb62 O74 2.374 . S
O63 Tb60 2.453 . S
O63 C79 1.245 . S
O64 Tb60 2.596 . S
O64 Tb62 2.343 . S
O64 C79 1.259 . S
O65 Tb60 2.374 . S
O65 C61 1.251 . S
C66 O70 1.275 . S
C66 O71 1.246 . S
O67 C61 1.263 . S
O67 Tb62 2.353 . S
C68 O72 1.245 . S
C68 O73 1.259 . S
C69 O74 1.250 . S
C69 O75 1.263 . S
O70 Tb62 2.427 . S
O70 C66 1.275 . S
O71 Tb62 2.513 . S
O71 C66 1.246 . S
O72 Tb62 2.453 . S
O72 C68 1.245 . S
O73 Tb60 2.343 . S
O73 Tb62 2.596 . S
O73 C68 1.259 . S
O74 Tb62 2.374 . S
O74 C69 1.250 . S
O75 Tb60 2.353 . S
O75 C69 1.263 . S
C76 O77 1.275 . S
C76 O78 1.246 . S
O77 Tb60 2.427 . S
O77 C76 1.275 . S
O78 Tb60 2.513 . S
O78 C76 1.246 . S
C79 O63 1.245 . S
C79 O64 1.259 . S
Tb80 O83 2.453 . S
Tb80 O84 2.596 . S
Tb80 O85 2.374 . S
Tb80 O93 2.343 . S
Tb80 O95 2.353 . S
Tb80 O97 2.427 . S
Tb80 O98 2.513 . S
C81 O85 1.251 . S
C81 O87 1.263 . S
Tb82 O84 2.343 . S
Tb82 O87 2.353 . S
Tb82 O90 2.427 . S
Tb82 O91 2.513 . S
Tb82 O92 2.453 . S
Tb82 O93 2.596 . S
Tb82 O94 2.374 . S
O83 Tb80 2.453 . S
O83 C99 1.245 . S
O84 Tb80 2.596 . S
O84 Tb82 2.343 . S
O84 C99 1.259 . S
O85 Tb80 2.374 . S
O85 C81 1.251 . S
C86 O90 1.275 . S
C86 O91 1.246 . S
O87 C81 1.263 . S
O87 Tb82 2.353 . S
C88 O92 1.245 . S
C88 O93 1.259 . S
C89 O94 1.250 . S
C89 O95 1.263 . S
O90 Tb82 2.427 . S
O90 C86 1.275 . S
O91 Tb82 2.513 . S
O91 C86 1.246 . S
O92 Tb82 2.453 . S
O92 C88 1.245 . S
O93 Tb80 2.343 . S
O93 Tb82 2.596 . S
O93 C88 1.259 . S
O94 Tb82 2.374 . S
O94 C89 1.250 . S
O95 Tb80 2.353 . S
O95 C89 1.263 . S
C96 O97 1.275 . S
C96 O98 1.246 . S
O97 Tb80 2.427 . S
O97 C96 1.275 . S
O98 Tb80 2.513 . S
O98 C96 1.246 . S
C99 O83 1.245 . S
C99 O84 1.259 . S
Tb100 O103 2.453 . S
Tb100 O104 2.596 . S
Tb100 O105 2.374 . S
Tb100 O113 2.343 . S
Tb100 O115 2.353 . S
Tb100 O117 2.427 . S
Tb100 O118 2.513 . S
C101 O105 1.251 . S
C101 O107 1.263 . S
Tb102 O104 2.343 . S
Tb102 O107 2.353 . S
Tb102 O110 2.427 . S
Tb102 O111 2.513 . S
Tb102 O112 2.453 . S
Tb102 O113 2.596 . S
Tb102 O114 2.374 . S
O103 Tb100 2.453 . S
O103 C119 1.245 . S
O104 Tb100 2.596 . S
O104 Tb102 2.343 . S
O104 C119 1.259 . S
O105 Tb100 2.374 . S
O105 C101 1.251 . S
C106 O110 1.275 . S
C106 O111 1.246 . S
O107 C101 1.263 . S
O107 Tb102 2.353 . S
C108 O112 1.245 . S
C108 O113 1.259 . S
C109 O114 1.250 . S
C109 O115 1.263 . S
O110 Tb102 2.427 . S
O110 C106 1.275 . S
O111 Tb102 2.513 . S
O111 C106 1.246 . S
O112 Tb102 2.453 . S
O112 C108 1.245 . S
O113 Tb100 2.343 . S
O113 Tb102 2.596 . S
O113 C108 1.259 . S
O114 Tb102 2.374 . S
O114 C109 1.250 . S
O115 Tb100 2.353 . S
O115 C109 1.263 . S
C116 O117 1.275 . S
C116 O118 1.246 . S
O117 Tb100 2.427 . S
O117 C116 1.275 . S
O118 Tb100 2.513 . S
O118 C116 1.246 . S
C119 O103 1.245 . S
C119 O104 1.259 . S
Tb120 O123 2.453 . S
Tb120 O124 2.596 . S
Tb120 O125 2.374 . S
Tb120 O133 2.343 . S
Tb120 O135 2.353 . S
Tb120 O137 2.427 . S
Tb120 O138 2.513 . S
C121 O125 1.251 . S
C121 O127 1.263 . S
Tb122 O124 2.343 . S
Tb122 O127 2.353 . S
Tb122 O130 2.427 . S
Tb122 O131 2.513 . S
Tb122 O132 2.453 . S
Tb122 O133 2.596 . S
Tb122 O134 2.374 . S
O123 Tb120 2.453 . S
O123 C139 1.245 . S
O124 Tb120 2.596 . S
O124 Tb122 2.343 . S
O124 C139 1.259 . S
O125 Tb120 2.374 . S
O125 C121 1.251 . S
C126 O130 1.275 . S
C126 O131 1.246 . S
O127 C121 1.263 . S
O127 Tb122 2.353 . S
C128 O132 1.245 . S
C128 O133 1.259 . S
C129 O134 1.250 . S
C129 O135 1.263 . S
O130 Tb122 2.427 . S
O130 C126 1.275 . S
O131 Tb122 2.513 . S
O131 C126 1.246 . S
O132 Tb122 2.453 . S
O132 C128 1.245 . S
O133 Tb120 2.343 . S
O133 Tb122 2.596 . S
O133 C128 1.259 . S
O134 Tb122 2.374 . S
O134 C129 1.250 . S
O135 Tb120 2.353 . S
O135 C129 1.263 . S
C136 O137 1.275 . S
C136 O138 1.246 . S
O137 Tb120 2.427 . S
O137 C136 1.275 . S
O138 Tb120 2.513 . S
O138 C136 1.246 . S
C139 O123 1.245 . S
C139 O124 1.259 . S
Tb140 O143 2.453 . S
Tb140 O144 2.596 . S
Tb140 O145 2.374 . S
Tb140 O153 2.343 . S
Tb140 O155 2.353 . S
Tb140 O157 2.427 . S
Tb140 O158 2.513 . S
C141 O145 1.251 . S
C141 O147 1.263 . S
Tb142 O144 2.343 . S
Tb142 O147 2.353 . S
Tb142 O150 2.412 1_655 S
Tb142 O151 2.513 1_655 S
Tb142 O152 2.453 . S
Tb142 O153 2.596 . S
Tb142 O154 2.374 . S
O143 Tb140 2.453 . S
O143 C159 1.245 . S
O144 Tb140 2.596 . S
O144 Tb142 2.343 . S
O144 C159 1.259 . S
O145 Tb140 2.374 . S
O145 C141 1.251 . S
C146 O150 1.274 . S
C146 O151 1.246 . S
O147 C141 1.263 . S
O147 Tb142 2.353 . S
C148 O152 1.245 . S
C148 O153 1.259 . S
C149 O154 1.250 . S
C149 O155 1.263 . S
O150 Tb142 2.412 1_455 S
O150 C146 1.274 . S
O151 Tb142 2.513 1_455 S
O151 C146 1.246 . S
O152 Tb142 2.453 . S
O152 C148 1.245 . S
O153 Tb140 2.343 . S
O153 Tb142 2.596 . S
O153 C148 1.259 . S
O154 Tb142 2.374 . S
O154 C149 1.250 . S
O155 Tb140 2.353 . S
O155 C149 1.263 . S
C156 O157 1.275 . S
C156 O158 1.246 . S
O157 Tb140 2.427 . S
O157 C156 1.275 . S
O158 Tb140 2.513 . S
O158 C156 1.246 . S
C159 O143 1.245 . S
C159 O144 1.259 . S
Tb160 O163 2.453 . S
Tb160 O164 2.596 . S
Tb160 O165 2.374 . S
Tb160 O173 2.343 . S
Tb160 O175 2.353 . S
Tb160 O177 2.427 . S
Tb160 O178 2.513 1_655 S
C161 O165 1.251 . S
C161 O167 1.263 . S
Tb162 O164 2.343 . S
Tb162 O167 2.353 . S
Tb162 O170 2.427 . S
Tb162 O171 2.513 . S
Tb162 O172 2.453 . S
Tb162 O173 2.596 . S
Tb162 O174 2.374 . S
O163 Tb160 2.453 . S
O163 C179 1.245 . S
O164 Tb160 2.596 . S
O164 Tb162 2.343 . S
O164 C179 1.259 . S
O165 Tb160 2.374 . S
O165 C161 1.251 . S
C166 O170 1.275 . S
C166 O171 1.246 . S
O167 C161 1.263 . S
O167 Tb162 2.353 . S
C168 O172 1.245 . S
C168 O173 1.259 . S
C169 O174 1.250 . S
C169 O175 1.263 . S
O170 Tb162 2.427 . S
O170 C166 1.275 . S
O171 Tb162 2.513 . S
O171 C166 1.246 . S
O172 Tb162 2.453 . S
O172 C168 1.245 . S
O173 Tb160 2.343 . S
O173 Tb162 2.596 . S
O173 C168 1.259 . S
O174 Tb162 2.374 . S
O174 C169 1.250 . S
O175 Tb160 2.353 . S
O175 C169 1.263 . S
C176 O177 1.275 1_455 S
C176 O178 1.246 . S
O177 Tb160 2.427 . S
O177 C176 1.275 1_655 S
O178 Tb160 2.513 1_455 S
O178 C176 1.246 . S
C179 O163 1.245 . S
C179 O164 1.259 . S
C180 C181 1.391 . S
C180 C182 1.394 . S
C180 H196 0.931 . S
C181 C180 1.391 . S
C181 C185 1.376 . S
C182 C180 1.394 . S
C182 C183 1.369 . S
C182 C186 1.531 . S
C183 C182 1.369 . S
C183 C184 1.410 . S
C183 C191 1.503 . S
C184 C183 1.410 . S
C184 C185 1.392 . S
C184 C187 1.511 . S
C185 C181 1.376 . S
C185 C184 1.392 . S
C185 H197 0.929 . S
C186 C182 1.531 . S
C186 H198 0.960 . S
C186 H199 0.962 . S
C186 H200 0.960 . S
C187 C184 1.511 . S
C187 H201 0.961 . S
C187 H202 0.961 . S
C187 H203 0.961 1_455 S
C188 C189 1.370 . S
C188 C190 1.363 . S
C188 H204 0.931 . S
C189 C188 1.370 . S
C189 C193 1.408 . S
C190 C188 1.363 . S
C190 C191 1.370 . S
C190 C194 1.524 . S
C191 C183 1.503 . S
C191 C190 1.370 . S
C191 C192 1.403 . S
C192 C191 1.403 . S
C192 C193 1.404 . S
C192 C195 1.539 1_455 S
C193 C189 1.408 . S
C193 C192 1.404 . S
C193 H205 0.930 1_455 S
C194 C190 1.524 . S
C194 H206 0.956 . S
C194 H207 0.961 . S
C194 H208 0.961 . S
C195 C192 1.539 1_655 S
C195 H209 0.958 . S
C195 H210 0.961 . S
C195 H211 0.960 . S
H196 C180 0.931 . S
H197 C185 0.929 . S
H198 C186 0.960 . S
H199 C186 0.962 . S
H200 C186 0.960 . S
H201 C187 0.961 . S
H202 C187 0.961 . S
H203 C187 0.961 1_655 S
H204 C188 0.931 . S
H205 C193 0.930 1_655 S
H206 C194 0.956 . S
H207 C194 0.961 . S
H208 C194 0.961 . S
H209 C195 0.958 . S
H210 C195 0.961 . S
H211 C195 0.960 . S
C212 C213 1.391 . S
C212 C214 1.394 . S
C212 H228 0.931 . S
C213 C212 1.391 . S
C213 C217 1.376 . S
C214 C212 1.394 . S
C214 C215 1.369 . S
C214 C218 1.531 . S
C215 C214 1.369 . S
C215 C216 1.410 . S
C215 C223 1.503 . S
C216 C215 1.410 . S
C216 C217 1.392 . S
C216 C219 1.511 . S
C217 C213 1.376 . S
C217 C216 1.392 . S
C217 H229 0.929 . S
C218 C214 1.531 . S
C218 H230 0.960 . S
C218 H231 0.962 . S
C218 H232 0.960 . S
C219 C216 1.511 . S
C219 H233 0.961 . S
C219 H234 0.961 . S
C219 H235 0.961 . S
C220 C221 1.370 . S
C220 C222 1.363 . S
C220 H236 0.931 . S
C221 C220 1.370 . S
C221 C225 1.408 . S
C222 C220 1.363 . S
C222 C223 1.370 . S
C222 C226 1.524 . S
C223 C215 1.503 . S
C223 C222 1.370 . S
C223 C224 1.403 . S
C224 C223 1.403 . S
C224 C225 1.404 . S
C224 C227 1.539 . S
C225 C221 1.408 . S
C225 C224 1.404 . S
C225 H237 0.930 . S
C226 C222 1.524 . S
C226 H238 0.956 . S
C226 H239 0.961 . S
C226 H240 0.961 . S
C227 C224 1.539 . S
C227 H241 0.958 . S
C227 H242 0.961 . S
C227 H243 0.960 . S
H228 C212 0.931 . S
H229 C217 0.929 . S
H230 C218 0.960 . S
H231 C218 0.962 . S
H232 C218 0.960 . S
H233 C219 0.961 . S
H234 C219 0.961 . S
H235 C219 0.961 . S
H236 C220 0.931 . S
H237 C225 0.930 . S
H238 C226 0.956 . S
H239 C226 0.961 . S
H240 C226 0.961 . S
H241 C227 0.958 . S
H242 C227 0.961 . S
H243 C227 0.960 . S
C244 C245 1.391 . S
C244 C246 1.394 . S
C244 H260 0.931 . S
C245 C244 1.391 . S
C245 C249 1.376 1_545 S
C246 C244 1.394 . S
C246 C247 1.369 . S
C246 C250 1.531 . S
C247 C246 1.369 . S
C247 C248 1.410 1_545 S
C247 C255 1.503 . S
C248 C247 1.410 1_565 S
C248 C249 1.392 . S
C248 C251 1.511 . S
C249 C245 1.376 1_565 S
C249 C248 1.392 . S
C249 H261 0.929 . S
C250 C246 1.531 . S
C250 H262 0.960 . S
C250 H263 0.962 . S
C250 H264 0.960 . S
C251 C248 1.511 . S
C251 H265 0.961 . S
C251 H266 0.961 . S
C251 H267 0.966 . S
C252 C253 1.364 1_565 S
C252 C254 1.366 . S
C252 H268 0.934 . S
C253 C252 1.364 1_545 S
C253 C257 1.408 . S
C254 C252 1.366 . S
C254 C255 1.370 1_565 S
C254 C258 1.524 . S
C255 C247 1.503 . S
C255 C254 1.370 1_545 S
C255 C256 1.403 . S
C256 C255 1.403 . S
C256 C257 1.404 . S
C256 C259 1.539 . S
C257 C253 1.408 . S
C257 C256 1.404 . S
C257 H269 0.930 . S
C258 C254 1.524 . S
C258 H270 0.956 . S
C258 H271 0.961 . S
C258 H272 0.961 . S
C259 C256 1.539 . S
C259 H273 0.958 . S
C259 H274 0.961 . S
C259 H275 0.960 . S
H260 C244 0.931 . S
H261 C249 0.929 . S
H262 C250 0.960 . S
H263 C250 0.962 . S
H264 C250 0.960 . S
H265 C251 0.961 . S
H266 C251 0.961 . S
H267 C251 0.966 . S
H268 C252 0.934 . S
H269 C257 0.930 . S
H270 C258 0.956 . S
H271 C258 0.961 . S
H272 C258 0.961 . S
H273 C259 0.958 . S
H274 C259 0.961 . S
H275 C259 0.960 . S
C276 C277 1.391 . S
C276 C278 1.394 . S
C276 H292 0.931 . S
C277 C276 1.391 . S
C277 C281 1.376 . S
C278 C276 1.394 . S
C278 C279 1.369 . S
C278 C282 1.531 . S
C279 C278 1.369 . S
C279 C280 1.410 . S
C279 C287 1.503 . S
C280 C279 1.410 . S
C280 C281 1.392 . S
C280 C283 1.511 . S
C281 C277 1.376 . S
C281 C280 1.392 . S
C281 H293 0.929 . S
C282 C278 1.531 . S
C282 H294 0.960 . S
C282 H295 0.962 . S
C282 H296 0.960 . S
C283 C280 1.511 . S
C283 H297 0.961 . S
C283 H298 0.961 . S
C283 H299 0.961 . S
C284 C285 1.370 1_556 S
C284 C286 1.363 . S
C284 H300 0.931 . S
C285 C284 1.370 1_554 S
C285 C289 1.408 1_554 S
C286 C284 1.363 . S
C286 C287 1.370 . S
C286 C290 1.524 . S
C287 C279 1.503 . S
C287 C286 1.370 . S
C287 C288 1.403 . S
C288 C287 1.403 . S
C288 C289 1.404 . S
C288 C291 1.539 . S
C289 C285 1.408 1_556 S
C289 C288 1.404 . S
C289 H301 0.930 1_556 S
C290 C286 1.524 . S
C290 H302 0.956 . S
C290 H303 0.961 . S
C290 H304 0.961 . S
C291 C288 1.539 . S
C291 H305 0.958 . S
C291 H306 0.961 . S
C291 H307 0.960 . S
H292 C276 0.931 . S
H293 C281 0.929 . S
H294 C282 0.960 . S
H295 C282 0.962 . S
H296 C282 0.960 . S
H297 C283 0.961 . S
H298 C283 0.961 . S
H299 C283 0.961 . S
H300 C284 0.931 . S
H301 C289 0.930 1_554 S
H302 C290 0.956 . S
H303 C290 0.961 . S
H304 C290 0.961 . S
H305 C291 0.958 . S
H306 C291 0.961 . S
H307 C291 0.960 . S
C308 C309 1.391 . S
C308 C310 1.394 . S
C308 H324 0.931 . S
C309 C308 1.391 . S
C309 C313 1.376 . S
C310 C308 1.394 . S
C310 C311 1.369 . S
C310 C314 1.531 . S
C311 C310 1.369 . S
C311 C312 1.410 . S
C311 C319 1.503 . S
C312 C311 1.410 . S
C312 C313 1.392 . S
C312 C315 1.511 . S
C313 C309 1.376 . S
C313 C312 1.392 . S
C313 H325 0.929 . S
C314 C310 1.531 . S
C314 H326 0.960 . S
C314 H327 0.962 . S
C314 H328 0.960 . S
C315 C312 1.511 . S
C315 H329 0.961 . S
C315 H330 0.961 . S
C315 H331 0.961 . S
C316 C317 1.370 . S
C316 C318 1.363 . S
C316 H332 0.931 . S
C317 C316 1.370 . S
C317 C321 1.408 . S
C318 C316 1.363 . S
C318 C319 1.370 . S
C318 C322 1.524 . S
C319 C311 1.503 . S
C319 C318 1.370 . S
C319 C320 1.403 . S
C320 C319 1.403 . S
C320 C321 1.404 . S
C320 C323 1.539 . S
C321 C317 1.408 . S
C321 C320 1.404 . S
C321 H333 0.930 . S
C322 C318 1.524 . S
C322 H334 0.956 . S
C322 H335 0.961 . S
C322 H336 0.961 . S
C323 C320 1.539 . S
C323 H337 0.958 . S
C323 H338 0.961 . S
C323 H339 0.960 . S
H324 C308 0.931 . S
H325 C313 0.929 . S
H326 C314 0.960 . S
H327 C314 0.962 . S
H328 C314 0.960 . S
H329 C315 0.961 . S
H330 C315 0.961 . S
H331 C315 0.961 . S
H332 C316 0.931 . S
H333 C321 0.930 . S
H334 C322 0.956 . S
H335 C322 0.961 . S
H336 C322 0.961 . S
H337 C323 0.958 . S
H338 C323 0.961 . S
H339 C323 0.960 . S
C340 C341 1.391 . S
C340 C342 1.394 . S
C340 H356 0.931 . S
C341 C340 1.391 . S
C341 C345 1.376 . S
C342 C340 1.394 . S
C342 C343 1.369 . S
C342 C346 1.531 . S
C343 C342 1.369 . S
C343 C344 1.410 . S
C343 C351 1.503 . S
C344 C343 1.410 . S
C344 C345 1.392 . S
C344 C347 1.511 . S
C345 C341 1.376 . S
C345 C344 1.392 . S
C345 H357 0.929 . S
C346 C342 1.531 . S
C346 H358 0.960 . S
C346 H359 0.962 . S
C346 H360 0.960 . S
C347 C344 1.511 . S
C347 H361 0.961 . S
C347 H362 0.961 . S
C347 H363 0.961 . S
C348 C349 1.370 . S
C348 C350 1.363 . S
C348 H364 0.931 . S
C349 C348 1.370 . S
C349 C353 1.408 . S
C350 C348 1.363 . S
C350 C351 1.370 . S
C350 C354 1.524 . S
C351 C343 1.503 . S
C351 C350 1.370 . S
C351 C352 1.403 . S
C352 C351 1.403 . S
C352 C353 1.404 . S
C352 C355 1.539 . S
C353 C349 1.408 . S
C353 C352 1.404 . S
C353 H365 0.930 . S
C354 C350 1.524 . S
C354 H366 0.956 . S
C354 H367 0.961 . S
C354 H368 0.961 . S
C355 C352 1.539 . S
C355 H369 0.958 . S
C355 H370 0.961 . S
C355 H371 0.960 . S
H356 C340 0.931 . S
H357 C345 0.929 . S
H358 C346 0.960 . S
H359 C346 0.962 . S
H360 C346 0.960 . S
H361 C347 0.961 . S
H362 C347 0.961 . S
H363 C347 0.961 . S
H364 C348 0.931 . S
H365 C353 0.930 . S
H366 C354 0.956 . S
H367 C354 0.961 . S
H368 C354 0.961 . S
H369 C355 0.958 . S
H370 C355 0.961 . S
H371 C355 0.960 . S
C372 C373 1.391 . S
C372 C374 1.394 . S
C372 H388 0.931 . S
C373 C372 1.391 . S
C373 C377 1.376 . S
C374 C372 1.394 . S
C374 C375 1.369 . S
C374 C378 1.531 . S
C375 C374 1.369 . S
C375 C376 1.410 . S
C375 C383 1.503 . S
C376 C375 1.410 . S
C376 C377 1.392 . S
C376 C379 1.511 . S
C377 C373 1.376 . S
C377 C376 1.392 . S
C377 H389 0.929 . S
C378 C374 1.531 . S
C378 H390 0.960 . S
C378 H391 0.962 . S
C378 H392 0.960 . S
C379 C376 1.511 . S
C379 H393 0.961 . S
C379 H394 0.961 . S
C379 H395 0.961 . S
C380 C381 1.370 . S
C380 C382 1.363 1_556 S
C380 H396 0.931 . S
C381 C380 1.370 . S
C381 C385 1.408 . S
C382 C380 1.363 1_554 S
C382 C383 1.370 . S
C382 C386 1.524 . S
C383 C375 1.503 . S
C383 C382 1.370 . S
C383 C384 1.403 . S
C384 C383 1.403 . S
C384 C385 1.404 1_554 S
C384 C387 1.539 . S
C385 C381 1.408 . S
C385 C384 1.404 1_556 S
C385 H397 0.930 . S
C386 C382 1.524 . S
C386 H398 0.956 . S
C386 H399 0.961 . S
C386 H400 0.961 . S
C387 C384 1.539 . S
C387 H401 0.958 . S
C387 H402 0.961 . S
C387 H403 0.960 . S
H388 C372 0.931 . S
H389 C377 0.929 . S
H390 C378 0.960 . S
H391 C378 0.962 . S
H392 C378 0.960 . S
H393 C379 0.961 . S
H394 C379 0.961 . S
H395 C379 0.961 . S
H396 C380 0.931 . S
H397 C385 0.930 . S
H398 C386 0.956 . S
H399 C386 0.961 . S
H400 C386 0.961 . S
H401 C387 0.958 . S
H402 C387 0.961 . S
H403 C387 0.960 . S
C404 C405 1.391 . S
C404 C406 1.394 . S
C404 H420 0.931 . S
C405 C404 1.391 . S
C405 C409 1.376 . S
C406 C404 1.394 . S
C406 C407 1.369 . S
C406 C410 1.531 . S
C407 C406 1.369 . S
C407 C408 1.410 . S
C407 C415 1.503 . S
C408 C407 1.410 . S
C408 C409 1.392 . S
C408 C411 1.511 . S
C409 C405 1.376 . S
C409 C408 1.392 . S
C409 H421 0.929 . S
C410 C406 1.531 . S
C410 H422 0.960 . S
C410 H423 0.962 . S
C410 H424 0.960 . S
C411 C408 1.511 . S
C411 H425 0.961 . S
C411 H426 0.961 . S
C411 H427 0.961 . S
C412 C413 1.370 . S
C412 C414 1.363 1_556 S
C412 H428 0.931 . S
C413 C412 1.370 . S
C413 C417 1.408 . S
C414 C412 1.363 1_554 S
C414 C415 1.370 . S
C414 C418 1.524 . S
C415 C407 1.503 . S
C415 C414 1.370 . S
C415 C416 1.403 . S
C416 C415 1.403 . S
C416 C417 1.404 1_554 S
C416 C419 1.539 . S
C417 C413 1.408 . S
C417 C416 1.404 1_556 S
C417 H429 0.930 . S
C418 C414 1.524 . S
C418 H430 0.956 . S
C418 H431 0.961 . S
C418 H432 0.943 1_655 S
C419 C416 1.539 . S
C419 H433 0.958 . S
C419 H434 0.961 . S
C419 H435 0.960 . S
H420 C404 0.931 . S
H421 C409 0.929 . S
H422 C410 0.960 . S
H423 C410 0.962 . S
H424 C410 0.960 . S
H425 C411 0.961 . S
H426 C411 0.961 . S
H427 C411 0.961 . S
H428 C412 0.931 . S
H429 C417 0.930 . S
H430 C418 0.956 . S
H431 C418 0.961 . S
H432 C418 0.943 1_455 S
H433 C419 0.958 . S
H434 C419 0.961 . S
H435 C419 0.960 . S
C436 C437 1.391 . S
C436 C438 1.394 . S
C436 H452 0.931 . S
C437 C436 1.391 . S
C437 C441 1.376 . S
C438 C436 1.394 . S
C438 C439 1.369 . S
C438 C442 1.531 . S
C439 C438 1.369 . S
C439 C440 1.410 . S
C439 C447 1.503 . S
C440 C439 1.410 . S
C440 C441 1.392 . S
C440 C443 1.511 . S
C441 C437 1.376 . S
C441 C440 1.392 . S
C441 H453 0.929 . S
C442 C438 1.531 . S
C442 H454 0.960 . S
C442 H455 0.962 . S
C442 H456 0.960 . S
C443 C440 1.511 . S
C443 H457 0.961 . S
C443 H458 0.961 . S
C443 H459 0.961 1_655 S
C444 C445 1.370 . S
C444 C446 1.363 1_556 S
C444 H460 0.931 . S
C445 C444 1.370 . S
C445 C449 1.408 . S
C446 C444 1.363 1_554 S
C446 C447 1.370 . S
C446 C450 1.524 . S
C447 C439 1.503 . S
C447 C446 1.370 . S
C447 C448 1.403 . S
C448 C447 1.403 . S
C448 C449 1.404 1_554 S
C448 C451 1.539 . S
C449 C445 1.408 . S
C449 C448 1.404 1_556 S
C449 H461 0.930 . S
C450 C446 1.524 . S
C450 H462 0.956 . S
C450 H463 0.961 . S
C450 H464 0.961 . S
C451 C448 1.539 . S
C451 H465 0.958 . S
C451 H466 0.961 . S
C451 H467 0.960 . S
H452 C436 0.931 . S
H453 C441 0.929 . S
H454 C442 0.960 . S
H455 C442 0.962 . S
H456 C442 0.960 . S
H457 C443 0.961 . S
H458 C443 0.961 . S
H459 C443 0.961 1_455 S
H460 C444 0.931 . S
H461 C449 0.930 . S
H462 C450 0.956 . S
H463 C450 0.961 . S
H464 C450 0.961 . S
H465 C451 0.958 . S
H466 C451 0.961 . S
H467 C451 0.960 . S
C468 C469 1.391 . S
C468 C470 1.394 . S
C468 H484 0.931 . S
C469 C468 1.391 . S
C469 C473 1.376 . S
C470 C468 1.394 . S
C470 C471 1.369 . S
C470 C474 1.531 . S
C471 C470 1.369 . S
C471 C472 1.410 . S
C471 C479 1.503 . S
C472 C471 1.410 . S
C472 C473 1.392 . S
C472 C475 1.511 . S
C473 C469 1.376 . S
C473 C472 1.392 . S
C473 H485 0.929 . S
C474 C470 1.531 . S
C474 H486 0.960 . S
C474 H487 0.962 . S
C474 H488 0.960 . S
C475 C472 1.511 . S
C475 H489 0.961 . S
C475 H490 0.961 . S
C475 H491 0.961 . S
C476 C477 1.370 . S
C476 C478 1.363 . S
C476 H492 0.925 1_554 S
C477 C476 1.370 . S
C477 C481 1.408 . S
C478 C476 1.363 . S
C478 C479 1.370 . S
C478 C482 1.524 1_554 S
C479 C471 1.503 . S
C479 C478 1.370 . S
C479 C480 1.403 . S
C480 C479 1.403 . S
C480 C481 1.404 . S
C480 C483 1.539 . S
C481 C477 1.408 . S
C481 C480 1.404 . S
C481 H493 0.930 . S
C482 C478 1.524 1_556 S
C482 H494 0.956 1_556 S
C482 H495 0.961 . S
C482 H496 0.961 . S
C483 C480 1.539 . S
C483 H497 0.958 . S
C483 H498 0.961 . S
C483 H499 0.960 . S
H484 C468 0.931 . S
H485 C473 0.929 . S
H486 C474 0.960 . S
H487 C474 0.962 . S
H488 C474 0.960 . S
H489 C475 0.961 . S
H490 C475 0.961 . S
H491 C475 0.961 . S
H492 C476 0.925 1_556 S
H493 C481 0.930 . S
H494 C482 0.956 1_554 S
H495 C482 0.961 . S
H496 C482 0.961 . S
H497 C483 0.958 . S
H498 C483 0.961 . S
H499 C483 0.960 . S
C500 C501 1.391 . S
C500 C502 1.394 . S
C500 H516 0.931 . S
C501 C500 1.391 . S
C501 C505 1.376 . S
C502 C500 1.394 . S
C502 C503 1.369 . S
C502 C506 1.531 . S
C503 C502 1.369 . S
C503 C504 1.410 . S
C503 C511 1.503 . S
C504 C503 1.410 . S
C504 C505 1.392 . S
C504 C507 1.511 . S
C505 C501 1.376 . S
C505 C504 1.392 . S
C505 H517 0.929 . S
C506 C502 1.531 . S
C506 H518 0.960 . S
C506 H519 0.962 . S
C506 H520 0.960 . S
C507 C504 1.511 . S
C507 H521 0.961 . S
C507 H522 0.961 . S
C507 H523 0.961 . S
C508 C509 1.370 . S
C508 C510 1.363 . S
C508 H524 0.931 . S
C509 C508 1.370 . S
C509 C513 1.408 . S
C510 C508 1.363 . S
C510 C511 1.370 . S
C510 C514 1.524 . S
C511 C503 1.503 . S
C511 C510 1.370 . S
C511 C512 1.403 . S
C512 C511 1.403 . S
C512 C513 1.404 . S
C512 C515 1.539 . S
C513 C509 1.408 . S
C513 C512 1.404 . S
C513 H525 0.930 . S
C514 C510 1.524 . S
C514 H526 0.956 . S
C514 H527 0.961 . S
C514 H528 0.961 1_554 S
C515 C512 1.539 . S
C515 H529 0.958 . S
C515 H530 0.961 . S
C515 H531 0.960 . S
H516 C500 0.931 . S
H517 C505 0.929 . S
H518 C506 0.960 . S
H519 C506 0.962 . S
H520 C506 0.960 . S
H521 C507 0.961 . S
H522 C507 0.961 . S
H523 C507 0.961 . S
H524 C508 0.931 . S
H525 C513 0.930 . S
H526 C514 0.956 . S
H527 C514 0.961 . S
H528 C514 0.961 1_556 S
H529 C515 0.958 . S
H530 C515 0.961 . S
H531 C515 0.960 . S
C532 C533 1.391 . S
C532 C534 1.394 . S
C532 H548 0.931 . S
C533 C532 1.391 . S
C533 C537 1.376 . S
C534 C532 1.394 . S
C534 C535 1.369 . S
C534 C538 1.531 . S
C535 C534 1.369 . S
C535 C536 1.410 . S
C535 C543 1.503 . S
C536 C535 1.410 . S
C536 C537 1.392 . S
C536 C539 1.511 . S
C537 C533 1.376 . S
C537 C536 1.392 . S
C537 H549 0.929 . S
C538 C534 1.531 . S
C538 H550 0.960 . S
C538 H551 0.962 . S
C538 H552 0.960 . S
C539 C536 1.511 . S
C539 H553 0.961 . S
C539 H554 0.961 . S
C539 H555 0.961 . S
C540 C541 1.370 . S
C540 C542 1.363 . S
C540 H556 0.931 . S
C541 C540 1.370 . S
C541 C545 1.408 . S
C542 C540 1.363 . S
C542 C543 1.370 . S
C542 C546 1.524 . S
C543 C535 1.503 . S
C543 C542 1.370 . S
C543 C544 1.403 . S
C544 C543 1.403 . S
C544 C545 1.404 . S
C544 C547 1.539 . S
C545 C541 1.408 . S
C545 C544 1.404 . S
C545 H557 0.930 . S
C546 C542 1.524 . S
C546 H558 0.956 . S
C546 H559 0.961 . S
C546 H560 0.961 . S
C547 C544 1.539 . S
C547 H561 0.958 . S
C547 H562 0.961 . S
C547 H563 0.960 . S
H548 C532 0.931 . S
H549 C537 0.929 . S
H550 C538 0.960 . S
H551 C538 0.962 . S
H552 C538 0.960 . S
H553 C539 0.961 . S
H554 C539 0.961 . S
H555 C539 0.961 . S
H556 C540 0.931 . S
H557 C545 0.930 . S
H558 C546 0.956 . S
H559 C546 0.961 . S
H560 C546 0.961 . S
H561 C547 0.958 . S
H562 C547 0.961 . S
H563 C547 0.960 . S
C564 C565 1.391 . S
C564 C566 1.394 1_554 S
C564 H580 0.931 . S
C565 C564 1.391 . S
C565 C569 1.376 . S
C566 C564 1.394 1_556 S
C566 C567 1.371 . S
C566 C570 1.531 . S
C567 C566 1.371 . S
C567 C568 1.404 1_556 S
C567 C575 1.507 . S
C568 C567 1.404 1_554 S
C568 C569 1.392 . S
C568 C571 1.511 . S
C569 C565 1.376 . S
C569 C568 1.392 . S
C569 H581 0.929 . S
C570 C566 1.531 . S
C570 H582 0.960 . S
C570 H583 0.962 . S
C570 H584 0.960 . S
C571 C568 1.511 . S
C571 H585 0.961 . S
C571 H586 0.961 . S
C571 H587 0.961 . S
C572 C573 1.370 . S
C572 C574 1.363 . S
C572 H588 0.931 . S
C573 C572 1.370 . S
C573 C577 1.408 . S
C574 C572 1.363 . S
C574 C575 1.370 . S
C574 C578 1.524 1_556 S
C575 C567 1.507 . S
C575 C574 1.370 . S
C575 C576 1.403 . S
C576 C575 1.403 . S
C576 C577 1.404 . S
C576 C579 1.539 . S
C577 C573 1.408 . S
C577 C576 1.404 . S
C577 H589 0.930 . S
C578 C574 1.524 1_554 S
C578 H590 0.956 . S
C578 H591 0.961 . S
C578 H592 0.961 . S
C579 C576 1.539 . S
C579 H593 0.958 . S
C579 H594 0.961 . S
C579 H595 0.960 . S
H580 C564 0.931 . S
H581 C569 0.929 . S
H582 C570 0.960 . S
H583 C570 0.962 . S
H584 C570 0.960 . S
H585 C571 0.961 . S
H586 C571 0.961 . S
H587 C571 0.961 . S
H588 C572 0.931 . S
H589 C577 0.930 . S
H590 C578 0.956 . S
H591 C578 0.961 . S
H592 C578 0.961 . S
H593 C579 0.958 . S
H594 C579 0.961 . S
H595 C579 0.960 . S
C596 C597 1.391 . S
C596 C598 1.394 . S
C596 H612 0.931 . S
C597 C596 1.391 . S
C597 C601 1.376 . S
C598 C596 1.394 . S
C598 C599 1.369 . S
C598 C602 1.531 1_655 S
C599 C598 1.369 . S
C599 C600 1.410 . S
C599 C607 1.503 . S
C600 C599 1.410 . S
C600 C601 1.392 . S
C600 C603 1.511 . S
C601 C597 1.376 . S
C601 C600 1.392 . S
C601 H613 0.929 . S
C602 C598 1.531 1_455 S
C602 H614 0.960 1_455 S
C602 H615 0.962 . S
C602 H616 0.960 . S
C603 C600 1.511 . S
C603 H617 0.961 . S
C603 H618 0.961 . S
C603 H619 0.961 . S
C604 C605 1.370 1_454 S
C604 C606 1.363 1_454 S
C604 H620 0.931 . S
C605 C604 1.370 1_656 S
C605 C609 1.408 . S
C606 C604 1.363 1_656 S
C606 C607 1.370 . S
C606 C610 1.524 1_656 S
C607 C599 1.503 . S
C607 C606 1.370 . S
C607 C608 1.403 . S
C608 C607 1.403 . S
C608 C609 1.404 . S
C608 C611 1.539 . S
C609 C605 1.408 . S
C609 C608 1.404 . S
C609 H621 0.930 . S
C610 C606 1.524 1_454 S
C610 H622 0.956 1_554 S
C610 H623 0.961 1_455 S
C610 H624 0.961 . S
C611 C608 1.539 . S
C611 H625 0.958 . S
C611 H626 0.961 . S
C611 H627 0.960 . S
H612 C596 0.931 . S
H613 C601 0.929 . S
H614 C602 0.960 1_655 S
H615 C602 0.962 . S
H616 C602 0.960 . S
H617 C603 0.961 . S
H618 C603 0.961 . S
H619 C603 0.961 . S
H620 C604 0.931 . S
H621 C609 0.930 . S
H622 C610 0.956 1_556 S
H623 C610 0.961 1_655 S
H624 C610 0.961 . S
H625 C611 0.958 . S
H626 C611 0.961 . S
H627 C611 0.960 . S
C628 C629 1.391 . S
C628 C630 1.394 . S
C628 H644 0.931 . S
C629 C628 1.391 . S
C629 C633 1.376 . S
C630 C628 1.394 . S
C630 C631 1.369 . S
C630 C634 1.531 1_556 S
C631 C630 1.369 . S
C631 C632 1.410 . S
C631 C639 1.503 . S
C632 C631 1.410 . S
C632 C633 1.392 . S
C632 C635 1.511 . S
C633 C629 1.376 . S
C633 C632 1.392 . S
C633 H645 0.929 . S
C634 C630 1.531 1_554 S
C634 H646 0.960 . S
C634 H647 0.962 . S
C634 H648 0.960 . S
C635 C632 1.511 . S
C635 H649 0.961 . S
C635 H650 0.961 . S
C635 H651 0.961 . S
C636 C637 1.370 1_556 S
C636 C638 1.363 . S
C636 H652 0.931 . S
C637 C636 1.370 1_554 S
C637 C641 1.408 . S
C638 C636 1.363 . S
C638 C639 1.370 . S
C638 C642 1.524 . S
C639 C631 1.503 . S
C639 C638 1.370 . S
C639 C640 1.403 1_556 S
C640 C639 1.403 1_554 S
C640 C641 1.404 . S
C640 C643 1.539 . S
C641 C637 1.408 . S
C641 C640 1.404 . S
C641 H653 0.930 . S
C642 C638 1.524 . S
C642 H654 0.956 . S
C642 H655 0.961 . S
C642 H656 0.961 . S
C643 C640 1.539 . S
C643 H657 0.958 . S
C643 H658 0.961 . S
C643 H659 0.960 1_554 S
H644 C628 0.931 . S
H645 C633 0.929 . S
H646 C634 0.960 . S
H647 C634 0.962 . S
H648 C634 0.960 . S
H649 C635 0.961 . S
H650 C635 0.961 . S
H651 C635 0.961 . S
H652 C636 0.931 . S
H653 C641 0.930 . S
H654 C642 0.956 . S
H655 C642 0.961 . S
H656 C642 0.961 . S
H657 C643 0.958 . S
H658 C643 0.961 . S
H659 C643 0.960 1_556 S
C660 C661 1.391 . S
C660 C662 1.385 1_655 S
C660 H676 0.931 1_655 S
C661 C660 1.391 . S
C661 C665 1.376 . S
C662 C660 1.385 1_455 S
C662 C663 1.364 1_455 S
C662 C666 1.544 . S
C663 C662 1.364 1_655 S
C663 C664 1.410 . S
C663 C671 1.503 . S
C664 C663 1.410 . S
C664 C665 1.392 . S
C664 C667 1.511 . S
C665 C661 1.376 . S
C665 C664 1.392 . S
C665 H677 0.929 . S
C666 C662 1.544 . S
C666 H678 0.960 . S
C666 H679 0.962 . S
C666 H680 0.960 . S
C667 C664 1.511 . S
C667 H681 0.961 . S
C667 H682 0.961 . S
C667 H683 0.961 . S
C668 C669 1.370 1_655 S
C668 C670 1.363 . S
C668 H684 0.931 . S
C669 C668 1.370 1_455 S
C669 C673 1.408 1_556 S
C670 C668 1.363 . S
C670 C671 1.370 . S
C670 C674 1.524 . S
C671 C663 1.503 . S
C671 C670 1.370 . S
C671 C672 1.403 1_556 S
C672 C671 1.403 1_554 S
C672 C673 1.404 1_655 S
C672 C675 1.539 . S
C673 C669 1.408 1_554 S
C673 C672 1.404 1_455 S
C673 H685 0.930 . S
C674 C670 1.524 . S
C674 H686 0.956 . S
C674 H687 0.961 . S
C674 H688 0.961 . S
C675 C672 1.539 . S
C675 H689 0.958 1_655 S
C675 H690 0.961 . S
C675 H691 0.960 . S
H676 C660 0.931 1_455 S
H677 C665 0.929 . S
H678 C666 0.960 . S
H679 C666 0.962 . S
H680 C666 0.960 . S
H681 C667 0.961 . S
H682 C667 0.961 . S
H683 C667 0.961 . S
H684 C668 0.931 . S
H685 C673 0.930 . S
H686 C674 0.956 . S
H687 C674 0.961 . S
H688 C674 0.961 . S
H689 C675 0.958 1_455 S
H690 C675 0.961 . S
H691 C675 0.960 . S
C692 C693 1.391 1_556 S
C692 C694 1.394 . S
C692 H708 0.931 . S
C693 C692 1.391 1_554 S
C693 C697 1.376 . S
C694 C692 1.394 . S
C694 C695 1.369 . S
C694 C698 1.531 . S
C695 C694 1.369 . S
C695 C696 1.410 1_556 S
C695 C703 1.503 . S
C696 C695 1.410 1_554 S
C696 C697 1.392 . S
C696 C699 1.511 . S
C697 C693 1.376 . S
C697 C696 1.392 . S
C697 H709 0.929 . S
C698 C694 1.531 . S
C698 H710 0.960 . S
C698 H711 0.962 . S
C698 H712 0.960 . S
C699 C696 1.511 . S
C699 H713 0.961 . S
C699 H714 0.961 . S
C699 H715 0.961 . S
C700 C701 1.370 . S
C700 C702 1.363 . S
C700 H716 0.931 . S
C701 C700 1.370 . S
C701 C705 1.408 . S
C702 C700 1.363 . S
C702 C703 1.370 . S
C702 C706 1.524 . S
C703 C695 1.503 . S
C703 C702 1.370 . S
C703 C704 1.403 . S
C704 C703 1.403 . S
C704 C705 1.404 . S
C704 C707 1.539 . S
C705 C701 1.408 . S
C705 C704 1.404 . S
C705 H717 0.930 . S
C706 C702 1.524 . S
C706 H718 0.956 . S
C706 H719 0.961 1_556 S
C706 H720 0.961 . S
C707 C704 1.539 . S
C707 H721 0.958 . S
C707 H722 0.961 . S
C707 H723 0.960 . S
H708 C692 0.931 . S
H709 C697 0.929 . S
H710 C698 0.960 . S
H711 C698 0.962 . S
H712 C698 0.960 . S
H713 C699 0.961 . S
H714 C699 0.961 . S
H715 C699 0.961 . S
H716 C700 0.931 . S
H717 C705 0.930 . S
H718 C706 0.956 . S
H719 C706 0.961 1_554 S
H720 C706 0.961 . S
H721 C707 0.958 . S
H722 C707 0.961 . S
H723 C707 0.960 . S
C724 C725 1.391 . S
C724 C726 1.394 . S
C724 H740 0.931 . S
C725 C724 1.391 . S
C725 C729 1.376 . S
C726 C724 1.394 . S
C726 C727 1.369 . S
C726 C730 1.531 1_556 S
C727 C726 1.369 . S
C727 C728 1.410 . S
C727 C735 1.503 . S
C728 C727 1.410 . S
C728 C729 1.392 . S
C728 C731 1.511 . S
C729 C725 1.376 . S
C729 C728 1.392 . S
C729 H741 0.929 . S
C730 C726 1.531 1_554 S
C730 H742 0.960 . S
C730 H743 0.962 . S
C730 H744 0.960 . S
C731 C728 1.511 . S
C731 H745 0.961 . S
C731 H746 0.961 . S
C731 H747 0.961 . S
C732 C733 1.370 . S
C732 C734 1.363 . S
C732 H748 0.931 . S
C733 C732 1.370 . S
C733 C737 1.408 . S
C734 C732 1.363 . S
C734 C735 1.370 1_554 S
C734 C738 1.524 . S
C735 C727 1.503 . S
C735 C734 1.370 1_556 S
C735 C736 1.403 . S
C736 C735 1.403 . S
C736 C737 1.404 1_556 S
C736 C739 1.539 . S
C737 C733 1.408 . S
C737 C736 1.404 1_554 S
C737 H749 0.930 . S
C738 C734 1.524 . S
C738 H750 0.956 . S
C738 H751 0.961 1_554 S
C738 H752 0.961 . S
C739 C736 1.539 . S
C739 H753 0.958 . S
C739 H754 0.961 . S
C739 H755 0.960 . S
H740 C724 0.931 . S
H741 C729 0.929 . S
H742 C730 0.960 . S
H743 C730 0.962 . S
H744 C730 0.960 . S
H745 C731 0.961 . S
H746 C731 0.961 . S
H747 C731 0.961 . S
H748 C732 0.931 . S
H749 C737 0.930 . S
H750 C738 0.956 . S
H751 C738 0.961 1_556 S
H752 C738 0.961 . S
H753 C739 0.958 . S
H754 C739 0.961 . S
H755 C739 0.960 . S
C756 C757 1.391 . S
C756 C758 1.394 . S
C756 H772 0.931 . S
C757 C756 1.391 . S
C757 C761 1.376 . S
C758 C756 1.394 . S
C758 C759 1.369 . S
C758 C762 1.531 . S
C759 C758 1.369 . S
C759 C760 1.410 . S
C759 C767 1.503 . S
C760 C759 1.410 . S
C760 C761 1.392 . S
C760 C763 1.511 . S
C761 C757 1.376 . S
C761 C760 1.392 . S
C761 H773 0.929 . S
C762 C758 1.531 . S
C762 H774 0.960 . S
C762 H775 0.962 . S
C762 H776 0.960 . S
C763 C760 1.511 . S
C763 H777 0.961 . S
C763 H778 0.961 . S
C763 H779 0.961 . S
C764 C765 1.370 . S
C764 C766 1.363 . S
C764 H780 0.931 . S
C765 C764 1.370 . S
C765 C769 1.408 . S
C766 C764 1.363 . S
C766 C767 1.370 . S
C766 C770 1.524 . S
C767 C759 1.503 . S
C767 C766 1.370 . S
C767 C768 1.403 . S
C768 C767 1.403 . S
C768 C769 1.404 . S
C768 C771 1.539 . S
C769 C765 1.408 . S
C769 C768 1.404 . S
C769 H781 0.930 . S
C770 C766 1.524 . S
C770 H782 0.956 . S
C770 H783 0.961 . S
C770 H784 0.961 . S
C771 C768 1.539 . S
C771 H785 0.958 . S
C771 H786 0.961 . S
C771 H787 0.960 . S
H772 C756 0.931 . S
H773 C761 0.929 . S
H774 C762 0.960 . S
H775 C762 0.962 . S
H776 C762 0.960 . S
H777 C763 0.961 . S
H778 C763 0.961 . S
H779 C763 0.961 . S
H780 C764 0.931 . S
H781 C769 0.930 . S
H782 C770 0.956 . S
H783 C770 0.961 . S
H784 C770 0.961 . S
H785 C771 0.958 . S
H786 C771 0.961 . S
H787 C771 0.960 . S
C788 C789 1.391 . S
C788 C790 1.394 . S
C788 H804 0.931 . S
C789 C788 1.391 . S
C789 C793 1.376 . S
C790 C788 1.394 . S
C790 C791 1.369 . S
C790 C794 1.531 . S
C791 C790 1.369 . S
C791 C792 1.410 . S
C791 C799 1.503 . S
C792 C791 1.410 . S
C792 C793 1.392 . S
C792 C795 1.511 . S
C793 C789 1.376 . S
C793 C792 1.392 . S
C793 H805 0.929 . S
C794 C790 1.531 . S
C794 H806 0.960 . S
C794 H807 0.962 . S
C794 H808 0.960 . S
C795 C792 1.511 . S
C795 H809 0.961 . S
C795 H810 0.961 . S
C795 H811 0.961 . S
C796 C797 1.370 . S
C796 C798 1.363 . S
C796 H812 0.931 . S
C797 C796 1.370 . S
C797 C801 1.408 . S
C798 C796 1.363 . S
C798 C799 1.370 . S
C798 C802 1.524 . S
C799 C791 1.503 . S
C799 C798 1.370 . S
C799 C800 1.403 . S
C800 C799 1.403 . S
C800 C801 1.404 . S
C800 C803 1.539 . S
C801 C797 1.408 . S
C801 C800 1.404 . S
C801 H813 0.930 . S
C802 C798 1.524 . S
C802 H814 0.956 . S
C802 H815 0.961 1_554 S
C802 H816 0.961 1_554 S
C803 C800 1.539 . S
C803 H817 0.958 . S
C803 H818 0.961 . S
C803 H819 0.960 . S
H804 C788 0.931 . S
H805 C793 0.929 . S
H806 C794 0.960 . S
H807 C794 0.962 . S
H808 C794 0.960 . S
H809 C795 0.961 . S
H810 C795 0.961 . S
H811 C795 0.961 . S
H812 C796 0.931 . S
H813 C801 0.930 . S
H814 C802 0.956 . S
H815 C802 0.961 1_556 S
H816 C802 0.961 1_556 S
H817 C803 0.958 . S
H818 C803 0.961 . S
H819 C803 0.960 . S
C820 C821 1.391 . S
C820 C822 1.394 . S
C820 H836 0.931 . S
C821 C820 1.391 . S
C821 C825 1.376 . S
C822 C820 1.394 . S
C822 C823 1.369 . S
C822 C826 1.531 . S
C823 C822 1.369 . S
C823 C824 1.410 . S
C823 C831 1.503 . S
C824 C823 1.410 . S
C824 C825 1.392 . S
C824 C827 1.511 . S
C825 C821 1.376 . S
C825 C824 1.392 . S
C825 H837 0.929 . S
C826 C822 1.531 . S
C826 H838 0.960 . S
C826 H839 0.962 . S
C826 H840 0.960 . S
C827 C824 1.511 . S
C827 H841 0.961 . S
C827 H842 0.961 . S
C827 H843 0.961 1_554 S
C828 C829 1.370 . S
C828 C830 1.363 . S
C828 H844 0.931 . S
C829 C828 1.370 . S
C829 C833 1.408 . S
C830 C828 1.363 . S
C830 C831 1.370 . S
C830 C834 1.524 . S
C831 C823 1.503 . S
C831 C830 1.370 . S
C831 C832 1.403 . S
C832 C831 1.403 . S
C832 C833 1.404 . S
C832 C835 1.539 1_554 S
C833 C829 1.408 . S
C833 C832 1.404 . S
C833 H845 0.930 . S
C834 C830 1.524 . S
C834 H846 0.956 . S
C834 H847 0.961 . S
C834 H848 0.961 . S
C835 C832 1.539 1_556 S
C835 H849 0.958 . S
C835 H850 0.961 . S
C835 H851 0.960 . S
H836 C820 0.931 . S
H837 C825 0.929 . S
H838 C826 0.960 . S
H839 C826 0.962 . S
H840 C826 0.960 . S
H841 C827 0.961 . S
H842 C827 0.961 . S
H843 C827 0.961 1_556 S
H844 C828 0.931 . S
H845 C833 0.930 . S
H846 C834 0.956 . S
H847 C834 0.961 . S
H848 C834 0.961 . S
H849 C835 0.958 . S
H850 C835 0.961 . S
H851 C835 0.960 . S
C852 C853 1.391 . S
C852 C854 1.394 . S
C852 H868 0.931 . S
C853 C852 1.391 . S
C853 C857 1.376 . S
C854 C852 1.394 . S
C854 C855 1.369 . S
C854 C858 1.531 . S
C855 C854 1.369 . S
C855 C856 1.410 . S
C855 C863 1.503 . S
C856 C855 1.410 . S
C856 C857 1.392 . S
C856 C859 1.511 . S
C857 C853 1.376 . S
C857 C856 1.392 . S
C857 H869 0.929 . S
C858 C854 1.531 . S
C858 H870 0.960 . S
C858 H871 0.962 . S
C858 H872 0.960 . S
C859 C856 1.511 . S
C859 H873 0.961 . S
C859 H874 0.961 . S
C859 H875 0.961 . S
C860 C861 1.370 . S
C860 C862 1.363 . S
C860 H876 0.931 . S
C861 C860 1.370 . S
C861 C865 1.408 . S
C862 C860 1.363 . S
C862 C863 1.370 . S
C862 C866 1.524 . S
C863 C855 1.503 . S
C863 C862 1.370 . S
C863 C864 1.403 . S
C864 C863 1.403 . S
C864 C865 1.404 . S
C864 C867 1.539 . S
C865 C861 1.408 . S
C865 C864 1.404 . S
C865 H877 0.930 . S
C866 C862 1.524 . S
C866 H878 0.956 . S
C866 H879 0.961 . S
C866 H880 0.961 . S
C867 C864 1.539 . S
C867 H881 0.958 . S
C867 H882 0.961 . S
C867 H883 0.960 . S
H868 C852 0.931 . S
H869 C857 0.929 . S
H870 C858 0.960 . S
H871 C858 0.962 . S
H872 C858 0.960 . S
H873 C859 0.961 . S
H874 C859 0.961 . S
H875 C859 0.961 . S
H876 C860 0.931 . S
H877 C865 0.930 . S
H878 C866 0.956 . S
H879 C866 0.961 . S
H880 C866 0.961 . S
H881 C867 0.958 . S
H882 C867 0.961 . S
H883 C867 0.960 . S
C884 C885 1.391 . S
C884 C886 1.394 . S
C884 H900 0.931 . S
C885 C884 1.391 . S
C885 C889 1.376 . S
C886 C884 1.394 . S
C886 C887 1.369 . S
C886 C890 1.531 . S
C887 C886 1.369 . S
C887 C888 1.410 . S
C887 C895 1.503 1_545 S
C888 C887 1.410 . S
C888 C889 1.392 . S
C888 C891 1.511 . S
C889 C885 1.376 . S
C889 C888 1.392 . S
C889 H901 0.929 . S
C890 C886 1.531 . S
C890 H902 0.960 . S
C890 H903 0.962 . S
C890 H904 0.960 . S
C891 C888 1.511 . S
C891 H905 0.961 . S
C891 H906 0.961 1_545 S
C891 H907 0.961 . S
C892 C893 1.370 . S
C892 C894 1.363 . S
C892 H908 0.931 . S
C893 C892 1.370 . S
C893 C897 1.408 . S
C894 C892 1.363 . S
C894 C895 1.370 . S
C894 C898 1.524 . S
C895 C887 1.503 1_565 S
C895 C894 1.370 . S
C895 C896 1.403 . S
C896 C895 1.403 . S
C896 C897 1.404 . S
C896 C899 1.539 1_565 S
C897 C893 1.408 . S
C897 C896 1.404 . S
C897 H909 0.930 . S
C898 C894 1.524 . S
C898 H910 0.956 . S
C898 H911 0.961 . S
C898 H912 0.961 . S
C899 C896 1.539 1_545 S
C899 H913 0.958 . S
C899 H914 0.961 . S
C899 H915 0.960 . S
H900 C884 0.931 . S
H901 C889 0.929 . S
H902 C890 0.960 . S
H903 C890 0.962 . S
H904 C890 0.960 . S
H905 C891 0.961 . S
H906 C891 0.961 1_565 S
H907 C891 0.961 . S
H908 C892 0.931 . S
H909 C897 0.930 . S
H910 C898 0.956 . S
H911 C898 0.961 . S
H912 C898 0.961 . S
H913 C899 0.958 . S
H914 C899 0.961 . S
H915 C899 0.960 . S
C916 C917 1.391 . S
C916 C918 1.394 . S
C916 H932 0.931 . S
C917 C916 1.391 . S
C917 C921 1.376 . S
C918 C916 1.394 . S
C918 C919 1.369 . S
C918 C922 1.531 . S
C919 C918 1.369 . S
C919 C920 1.410 . S
C919 C927 1.503 . S
C920 C919 1.410 . S
C920 C921 1.392 . S
C920 C923 1.511 . S
C921 C917 1.376 . S
C921 C920 1.392 . S
C921 H933 0.929 . S
C922 C918 1.531 . S
C922 H934 0.960 . S
C922 H935 0.962 . S
C922 H936 0.960 . S
C923 C920 1.511 . S
C923 H937 0.961 . S
C923 H938 0.961 . S
C923 H939 0.961 . S
C924 C925 1.370 . S
C924 C926 1.363 . S
C924 H940 0.931 . S
C925 C924 1.370 . S
C925 C929 1.408 . S
C926 C924 1.363 . S
C926 C927 1.370 . S
C926 C930 1.524 . S
C927 C919 1.503 . S
C927 C926 1.370 . S
C927 C928 1.403 . S
C928 C927 1.403 . S
C928 C929 1.404 . S
C928 C931 1.539 . S
C929 C925 1.408 . S
C929 C928 1.404 . S
C929 H941 0.930 . S
C930 C926 1.524 . S
C930 H942 0.956 . S
C930 H943 0.961 . S
C930 H944 0.961 . S
C931 C928 1.539 . S
C931 H945 0.958 . S
C931 H946 0.961 . S
C931 H947 0.960 . S
H932 C916 0.931 . S
H933 C921 0.929 . S
H934 C922 0.960 . S
H935 C922 0.962 . S
H936 C922 0.960 . S
H937 C923 0.961 . S
H938 C923 0.961 . S
H939 C923 0.961 . S
H940 C924 0.931 . S
H941 C929 0.930 . S
H942 C930 0.956 . S
H943 C930 0.961 . S
H944 C930 0.961 . S
H945 C931 0.958 . S
H946 C931 0.961 . S
H947 C931 0.960 . S
C948 C949 1.391 . S
C948 C950 1.394 . S
C948 H964 0.931 . S
C949 C948 1.391 . S
C949 C953 1.376 . S
C950 C948 1.394 . S
C950 C951 1.369 . S
C950 C954 1.531 . S
C951 C950 1.369 . S
C951 C952 1.410 . S
C951 C959 1.503 . S
C952 C951 1.410 . S
C952 C953 1.392 . S
C952 C955 1.511 . S
C953 C949 1.376 . S
C953 C952 1.392 . S
C953 H965 0.929 . S
C954 C950 1.531 . S
C954 H966 0.960 . S
C954 H967 0.962 . S
C954 H968 0.960 . S
C955 C952 1.511 . S
C955 H969 0.961 . S
C955 H970 0.961 . S
C955 H971 0.961 . S
C956 C957 1.370 . S
C956 C958 1.363 . S
C956 H972 0.931 . S
C957 C956 1.370 . S
C957 C961 1.408 . S
C958 C956 1.363 . S
C958 C959 1.370 . S
C958 C962 1.524 . S
C959 C951 1.503 . S
C959 C958 1.370 . S
C959 C960 1.403 . S
C960 C959 1.403 . S
C960 C961 1.404 . S
C960 C963 1.539 . S
C961 C957 1.408 . S
C961 C960 1.404 . S
C961 H973 0.930 . S
C962 C958 1.524 . S
C962 H974 0.956 . S
C962 H975 0.961 . S
C962 H976 0.961 . S
C963 C960 1.539 . S
C963 H977 0.958 . S
C963 H978 0.961 . S
C963 H979 0.960 . S
H964 C948 0.931 . S
H965 C953 0.929 . S
H966 C954 0.960 . S
H967 C954 0.962 . S
H968 C954 0.960 . S
H969 C955 0.961 . S
H970 C955 0.961 . S
H971 C955 0.961 . S
H972 C956 0.931 . S
H973 C961 0.930 . S
H974 C962 0.956 . S
H975 C962 0.961 . S
H976 C962 0.961 . S
H977 C963 0.958 . S
H978 C963 0.961 . S
H979 C963 0.960 . S
C980 C981 1.391 . S
C980 C982 1.394 . S
C980 H996 0.931 . S
C981 C980 1.391 . S
C981 C985 1.376 . S
C982 C980 1.394 . S
C982 C983 1.369 . S
C982 C986 1.531 . S
C983 C982 1.369 . S
C983 C984 1.410 . S
C983 C991 1.503 1_565 S
C984 C983 1.410 . S
C984 C985 1.392 . S
C984 C987 1.511 1_565 S
C985 C981 1.376 . S
C985 C984 1.392 . S
C985 H997 0.929 . S
C986 C982 1.531 . S
C986 H998 0.960 . S
C986 H999 0.962 . S
C986 H1000 0.960 . S
C987 C984 1.511 1_545 S
C987 H1001 0.961 . S
C987 H1002 0.961 . S
C987 H1003 0.961 . S
C988 C989 1.370 . S
C988 C990 1.363 . S
C988 H1004 0.931 . S
C989 C988 1.370 . S
C989 C993 1.408 . S
C990 C988 1.363 . S
C990 C991 1.370 . S
C990 C994 1.524 . S
C991 C983 1.503 1_545 S
C991 C990 1.370 . S
C991 C992 1.403 . S
C992 C991 1.403 . S
C992 C993 1.404 . S
C992 C995 1.539 . S
C993 C989 1.408 . S
C993 C992 1.404 . S
C993 H1005 0.930 . S
C994 C990 1.524 . S
C994 H1006 0.956 . S
C994 H1007 0.961 . S
C994 H1008 0.961 . S
C995 C992 1.539 . S
C995 H1009 0.958 1_545 S
C995 H1010 0.961 . S
C995 H1011 0.960 1_545 S
H996 C980 0.931 . S
H997 C985 0.929 . S
H998 C986 0.960 . S
H999 C986 0.962 . S
H1000 C986 0.960 . S
H1001 C987 0.961 . S
H1002 C987 0.961 . S
H1003 C987 0.961 . S
H1004 C988 0.931 . S
H1005 C993 0.930 . S
H1006 C994 0.956 . S
H1007 C994 0.961 . S
H1008 C994 0.961 . S
H1009 C995 0.958 1_565 S
H1010 C995 0.961 . S
H1011 C995 0.960 1_565 S
C1012 C1013 1.391 . S
C1012 C1014 1.394 . S
C1012 H1028 0.931 . S
C1013 C1012 1.391 . S
C1013 C1017 1.376 . S
C1014 C1012 1.394 . S
C1014 C1015 1.369 . S
C1014 C1018 1.531 . S
C1015 C1014 1.369 . S
C1015 C1016 1.410 . S
C1015 C1023 1.503 . S
C1016 C1015 1.410 . S
C1016 C1017 1.392 . S
C1016 C1019 1.511 . S
C1017 C1013 1.376 . S
C1017 C1016 1.392 . S
C1017 H1029 0.929 . S
C1018 C1014 1.531 . S
C1018 H1030 0.960 . S
C1018 H1031 0.962 . S
C1018 H1032 0.960 . S
C1019 C1016 1.511 . S
C1019 H1033 0.961 . S
C1019 H1034 0.961 . S
C1019 H1035 0.961 . S
C1020 C1021 1.370 . S
C1020 C1022 1.363 . S
C1020 H1036 0.931 . S
C1021 C1020 1.370 . S
C1021 C1025 1.408 . S
C1022 C1020 1.363 . S
C1022 C1023 1.370 . S
C1022 C1026 1.524 . S
C1023 C1015 1.503 . S
C1023 C1022 1.370 . S
C1023 C1024 1.403 . S
C1024 C1023 1.403 . S
C1024 C1025 1.404 . S
C1024 C1027 1.539 . S
C1025 C1021 1.408 . S
C1025 C1024 1.404 . S
C1025 H1037 0.930 . S
C1026 C1022 1.524 . S
C1026 H1038 0.956 . S
C1026 H1039 0.961 . S
C1026 H1040 0.961 . S
C1027 C1024 1.539 . S
C1027 H1041 0.958 . S
C1027 H1042 0.961 . S
C1027 H1043 0.960 . S
H1028 C1012 0.931 . S
H1029 C1017 0.929 . S
H1030 C1018 0.960 . S
H1031 C1018 0.962 . S
H1032 C1018 0.960 . S
H1033 C1019 0.961 . S
H1034 C1019 0.961 . S
H1035 C1019 0.961 . S
H1036 C1020 0.931 . S
H1037 C1025 0.930 . S
H1038 C1026 0.956 . S
H1039 C1026 0.961 . S
H1040 C1026 0.961 . S
H1041 C1027 0.958 . S
H1042 C1027 0.961 . S
H1043 C1027 0.960 . S
C181 C1 1.094 . S
C189 C9 1.114 . S
C213 C29 1.138 . S
C221 C21 1.109 . S
C245 C41 1.157 . S
C253 C49 1.146 . S
C277 C69 1.137 . S
C285 C61 1.099 . S
C309 C81 1.142 . S
C317 C89 1.107 1_556 S
C341 C109 1.127 . S
C349 C101 1.162 1_556 S
C373 C128 1.330 . S
C381 C139 1.302 . S
C405 C159 1.276 . S
C413 C148 1.324 . S
C437 C168 1.349 . S
C445 C179 1.309 . S
C469 C116 2.098 . S
C477 C8 2.064 . S
C501 C36 1.611 . S
C509 C76 1.611 . S
C533 C48 2.571 . S
C541 C88 2.547 . S
C565 C56 1.027 . S
C573 C126 1.072 . S
C597 C149 1.295 . S
C605 C16 1.260 1_556 S
C629 C166 1.629 . S
C637 C28 1.617 . S
C661 C161 1.739 . S
C669 C19 1.715 1_556 S
C693 C26 0.956 . S
C701 C121 1.061 . S
C725 C156 1.397 . S
C733 C59 1.333 . S
C757 C46 2.087 . S
C765 C79 2.058 . S
C789 C86 1.632 . S
C797 C6 1.610 . S
C821 C39 2.532 . S
C829 C119 2.584 . S
C853 C169 1.729 . S
C861 C68 1.715 . S
C885 C129 1.051 . S
C893 C96 1.036 . S
C917 C146 1.423 . S
C925 C108 1.348 . S
C949 C136 1.050 . S
C957 C106 1.027 . S
C981 C66 1.235 . S
C989 C141 1.300 . S
C1013 C176 1.639 . S
C1021 C99 1.610 . S
