# Generated by pormake.
# Topology sxg, (6)-cn, num edge types: 1
# Building blocks:
#     Node 0, Type 0, BuildingBlock: OJICUG_clean_sbu_0, # of connection points: 6
#     Node 1, Type 0, BuildingBlock: OJICUG_clean_sbu_0, # of connection points: 6
#     Node 2, Type 0, BuildingBlock: OJICUG_clean_sbu_0, # of connection points: 6
#     Node 3, Type 0, BuildingBlock: OJICUG_clean_sbu_0, # of connection points: 6
#     Node 4, Type 0, BuildingBlock: OJICUG_clean_sbu_0, # of connection points: 6
#     Node 5, Type 0, BuildingBlock: OJICUG_clean_sbu_0, # of connection points: 6
#     Node 6, Type 0, BuildingBlock: OJICUG_clean_sbu_0, # of connection points: 6
#     Node 7, Type 0, BuildingBlock: OJICUG_clean_sbu_0, # of connection points: 6
#     Node 8, Type 0, BuildingBlock: OJICUG_clean_sbu_0, # of connection points: 6
#     Node 9, Type 0, BuildingBlock: OJICUG_clean_sbu_0, # of connection points: 6
#     Node 10, Type 0, BuildingBlock: OJICUG_clean_sbu_0, # of connection points: 6
#     Node 11, Type 0, BuildingBlock: OJICUG_clean_sbu_0, # of connection points: 6
#     Node 12, Type 0, BuildingBlock: OJICUG_clean_sbu_0, # of connection points: 6
#     Node 13, Type 0, BuildingBlock: OJICUG_clean_sbu_0, # of connection points: 6
#     Node 14, Type 0, BuildingBlock: OJICUG_clean_sbu_0, # of connection points: 6
#     Node 15, Type 0, BuildingBlock: OJICUG_clean_sbu_0, # of connection points: 6
#     Node 16, Type 0, BuildingBlock: OJICUG_clean_sbu_0, # of connection points: 6
#     Node 17, Type 0, BuildingBlock: OJICUG_clean_sbu_0, # of connection points: 6
#     Node 18, Type 0, BuildingBlock: OJICUG_clean_sbu_0, # of connection points: 6
#     Node 19, Type 0, BuildingBlock: OJICUG_clean_sbu_0, # of connection points: 6
#     Node 20, Type 0, BuildingBlock: OJICUG_clean_sbu_0, # of connection points: 6
#     Node 21, Type 0, BuildingBlock: OJICUG_clean_sbu_0, # of connection points: 6
#     Node 22, Type 0, BuildingBlock: OJICUG_clean_sbu_0, # of connection points: 6
#     Node 23, Type 0, BuildingBlock: OJICUG_clean_sbu_0, # of connection points: 6
#     Edge 24, Type (0, 0), BuildingBlock: KIFKEQ_clean_linker_1, # of connection points: 2
#     Edge 25, Type (0, 0), BuildingBlock: KIFKEQ_clean_linker_1, # of connection points: 2
#     Edge 26, Type (0, 0), BuildingBlock: KIFKEQ_clean_linker_1, # of connection points: 2
#     Edge 27, Type (0, 0), BuildingBlock: KIFKEQ_clean_linker_1, # of connection points: 2
#     Edge 28, Type (0, 0), BuildingBlock: KIFKEQ_clean_linker_1, # of connection points: 2
#     Edge 29, Type (0, 0), BuildingBlock: KIFKEQ_clean_linker_1, # of connection points: 2
#     Edge 30, Type (0, 0), BuildingBlock: KIFKEQ_clean_linker_1, # of connection points: 2
#     Edge 31, Type (0, 0), BuildingBlock: KIFKEQ_clean_linker_1, # of connection points: 2
#     Edge 32, Type (0, 0), BuildingBlock: KIFKEQ_clean_linker_1, # of connection points: 2
#     Edge 33, Type (0, 0), BuildingBlock: KIFKEQ_clean_linker_1, # of connection points: 2
#     Edge 34, Type (0, 0), BuildingBlock: KIFKEQ_clean_linker_1, # of connection points: 2
#     Edge 35, Type (0, 0), BuildingBlock: KIFKEQ_clean_linker_1, # of connection points: 2
#     Edge 36, Type (0, 0), BuildingBlock: KIFKEQ_clean_linker_1, # of connection points: 2
#     Edge 37, Type (0, 0), BuildingBlock: KIFKEQ_clean_linker_1, # of connection points: 2
#     Edge 38, Type (0, 0), BuildingBlock: KIFKEQ_clean_linker_1, # of connection points: 2
#     Edge 39, Type (0, 0), BuildingBlock: KIFKEQ_clean_linker_1, # of connection points: 2
#     Edge 40, Type (0, 0), BuildingBlock: KIFKEQ_clean_linker_1, # of connection points: 2
#     Edge 41, Type (0, 0), BuildingBlock: KIFKEQ_clean_linker_1, # of connection points: 2
#     Edge 42, Type (0, 0), BuildingBlock: KIFKEQ_clean_linker_1, # of connection points: 2
#     Edge 43, Type (0, 0), BuildingBlock: KIFKEQ_clean_linker_1, # of connection points: 2
#     Edge 44, Type (0, 0), BuildingBlock: KIFKEQ_clean_linker_1, # of connection points: 2
#     Edge 45, Type (0, 0), BuildingBlock: KIFKEQ_clean_linker_1, # of connection points: 2
#     Edge 46, Type (0, 0), BuildingBlock: KIFKEQ_clean_linker_1, # of connection points: 2
#     Edge 47, Type (0, 0), BuildingBlock: KIFKEQ_clean_linker_1, # of connection points: 2
#     Edge 48, Type (0, 0), BuildingBlock: KIFKEQ_clean_linker_1, # of connection points: 2
#     Edge 49, Type (0, 0), BuildingBlock: KIFKEQ_clean_linker_1, # of connection points: 2
#     Edge 50, Type (0, 0), BuildingBlock: KIFKEQ_clean_linker_1, # of connection points: 2
#     Edge 51, Type (0, 0), BuildingBlock: KIFKEQ_clean_linker_1, # of connection points: 2
#     Edge 52, Type (0, 0), BuildingBlock: KIFKEQ_clean_linker_1, # of connection points: 2
#     Edge 53, Type (0, 0), BuildingBlock: KIFKEQ_clean_linker_1, # of connection points: 2
#     Edge 54, Type (0, 0), BuildingBlock: KIFKEQ_clean_linker_1, # of connection points: 2
#     Edge 55, Type (0, 0), BuildingBlock: KIFKEQ_clean_linker_1, # of connection points: 2
#     Edge 56, Type (0, 0), BuildingBlock: KIFKEQ_clean_linker_1, # of connection points: 2
#     Edge 57, Type (0, 0), BuildingBlock: KIFKEQ_clean_linker_1, # of connection points: 2
#     Edge 58, Type (0, 0), BuildingBlock: KIFKEQ_clean_linker_1, # of connection points: 2
#     Edge 59, Type (0, 0), BuildingBlock: KIFKEQ_clean_linker_1, # of connection points: 2
#     Edge 60, Type (0, 0), BuildingBlock: KIFKEQ_clean_linker_1, # of connection points: 2
#     Edge 61, Type (0, 0), BuildingBlock: KIFKEQ_clean_linker_1, # of connection points: 2
#     Edge 62, Type (0, 0), BuildingBlock: KIFKEQ_clean_linker_1, # of connection points: 2
#     Edge 63, Type (0, 0), BuildingBlock: KIFKEQ_clean_linker_1, # of connection points: 2
#     Edge 64, Type (0, 0), BuildingBlock: KIFKEQ_clean_linker_1, # of connection points: 2
#     Edge 65, Type (0, 0), BuildingBlock: KIFKEQ_clean_linker_1, # of connection points: 2
#     Edge 66, Type (0, 0), BuildingBlock: KIFKEQ_clean_linker_1, # of connection points: 2
#     Edge 67, Type (0, 0), BuildingBlock: KIFKEQ_clean_linker_1, # of connection points: 2
#     Edge 68, Type (0, 0), BuildingBlock: KIFKEQ_clean_linker_1, # of connection points: 2
#     Edge 69, Type (0, 0), BuildingBlock: KIFKEQ_clean_linker_1, # of connection points: 2
#     Edge 70, Type (0, 0), BuildingBlock: KIFKEQ_clean_linker_1, # of connection points: 2
#     Edge 71, Type (0, 0), BuildingBlock: KIFKEQ_clean_linker_1, # of connection points: 2
#     Edge 72, Type (0, 0), BuildingBlock: KIFKEQ_clean_linker_1, # of connection points: 2
#     Edge 73, Type (0, 0), BuildingBlock: KIFKEQ_clean_linker_1, # of connection points: 2
#     Edge 74, Type (0, 0), BuildingBlock: KIFKEQ_clean_linker_1, # of connection points: 2
#     Edge 75, Type (0, 0), BuildingBlock: KIFKEQ_clean_linker_1, # of connection points: 2
#     Edge 76, Type (0, 0), BuildingBlock: KIFKEQ_clean_linker_1, # of connection points: 2
#     Edge 77, Type (0, 0), BuildingBlock: KIFKEQ_clean_linker_1, # of connection points: 2
#     Edge 78, Type (0, 0), BuildingBlock: KIFKEQ_clean_linker_1, # of connection points: 2
#     Edge 79, Type (0, 0), BuildingBlock: KIFKEQ_clean_linker_1, # of connection points: 2
#     Edge 80, Type (0, 0), BuildingBlock: KIFKEQ_clean_linker_1, # of connection points: 2
#     Edge 81, Type (0, 0), BuildingBlock: KIFKEQ_clean_linker_1, # of connection points: 2
#     Edge 82, Type (0, 0), BuildingBlock: KIFKEQ_clean_linker_1, # of connection points: 2
#     Edge 83, Type (0, 0), BuildingBlock: KIFKEQ_clean_linker_1, # of connection points: 2
#     Edge 84, Type (0, 0), BuildingBlock: KIFKEQ_clean_linker_1, # of connection points: 2
#     Edge 85, Type (0, 0), BuildingBlock: KIFKEQ_clean_linker_1, # of connection points: 2
#     Edge 86, Type (0, 0), BuildingBlock: KIFKEQ_clean_linker_1, # of connection points: 2
#     Edge 87, Type (0, 0), BuildingBlock: KIFKEQ_clean_linker_1, # of connection points: 2
#     Edge 88, Type (0, 0), BuildingBlock: KIFKEQ_clean_linker_1, # of connection points: 2
#     Edge 89, Type (0, 0), BuildingBlock: KIFKEQ_clean_linker_1, # of connection points: 2
#     Edge 90, Type (0, 0), BuildingBlock: KIFKEQ_clean_linker_1, # of connection points: 2
#     Edge 91, Type (0, 0), BuildingBlock: KIFKEQ_clean_linker_1, # of connection points: 2
#     Edge 92, Type (0, 0), BuildingBlock: KIFKEQ_clean_linker_1, # of connection points: 2
#     Edge 93, Type (0, 0), BuildingBlock: KIFKEQ_clean_linker_1, # of connection points: 2
#     Edge 94, Type (0, 0), BuildingBlock: KIFKEQ_clean_linker_1, # of connection points: 2
#     Edge 95, Type (0, 0), BuildingBlock: KIFKEQ_clean_linker_1, # of connection points: 2
# Relax obj value: 0.142
# Max RMSD: 0.235
# Mean RMSD: 0.235
data_MOF--net-sxg--node1-OJICUG_clean_sbu_0--edge1-KIFKEQ_clean_linker_1
_symmetry_space_group_name_H-M    P1
_symmetry_Int_Tables_number       1
_symmetry_cell_setting            triclinic
loop_
_symmetry_equiv_pos_as_xyz
'x, y, z'
_cell_length_a     47.552934
_cell_length_b     47.517673
_cell_length_c     47.513507
_cell_angle_alpha  90.032042
_cell_angle_beta   90.041085
_cell_angle_gamma 90.039129
loop_
_atom_site_label
_atom_site_type_symbol
_atom_site_fract_x
_atom_site_fract_y
_atom_site_fract_z
_atom_type_partial_charge
Sc0 Sc 0.07321 0.37125 0.16966 0.0
Sc1 Sc 0.05467 0.35543 0.24012 0.0
Sc2 Sc 0.06263 0.30092 0.19049 0.0
O3 O 0.06327 0.34255 0.2001 0.0
C4 C 0.03453 0.32753 0.13571 0.0
C5 C 0.02333 0.40199 0.20257 0.0
C6 C 0.01078 0.30499 0.23311 0.0
C7 C 0.10601 0.39565 0.22323 0.0
C8 C 0.11711 0.32265 0.1573 0.0
C9 C 0.09164 0.30032 0.25072 0.0
O10 O 0.04527 0.35189 0.13909 0.0
O11 O 0.02613 0.388 0.2253 0.0
O12 O 0.02384 0.29269 0.21318 0.0
O13 O 0.10257 0.39316 0.19678 0.0
O14 O 0.10254 0.30361 0.16913 0.0
O15 O 0.08172 0.32364 0.25952 0.0
O16 O 0.1089 0.34789 0.15481 0.0
O17 O 0.08993 0.38389 0.24108 0.0
O18 O 0.08627 0.29029 0.22664 0.0
O19 O 0.03908 0.39837 0.18129 0.0
O20 O 0.03897 0.30729 0.15259 0.0
O21 O 0.01905 0.32798 0.244 0.0
Sc22 Sc 0.42195 0.6248 0.66996 0.0
Sc23 Sc 0.43899 0.63884 0.74097 0.0
Sc24 Sc 0.43486 0.69443 0.69201 0.0
O25 O 0.43213 0.65269 0.70099 0.0
C26 C 0.46344 0.66764 0.63784 0.0
C27 C 0.46971 0.59181 0.70346 0.0
C28 C 0.48484 0.68758 0.73693 0.0
C29 C 0.38693 0.60055 0.72215 0.0
C30 C 0.38083 0.67542 0.65621 0.0
C31 C 0.40371 0.6952 0.75107 0.0
O32 O 0.45084 0.64404 0.64013 0.0
O33 O 0.46637 0.60518 0.72649 0.0
O34 O 0.47271 0.70094 0.71707 0.0
O35 O 0.3915 0.60286 0.69587 0.0
O36 O 0.39649 0.69398 0.66752 0.0
O37 O 0.41318 0.67171 0.7599 0.0
O38 O 0.38737 0.64958 0.65546 0.0
O39 O 0.4025 0.61209 0.74058 0.0
O40 O 0.40943 0.70532 0.72709 0.0
O41 O 0.4551 0.5966 0.6816 0.0
O42 O 0.46033 0.68754 0.65544 0.0
O43 O 0.47561 0.66439 0.74645 0.0
Sc44 Sc 0.56277 0.19554 0.80643 0.0
Sc45 Sc 0.5542 0.14015 0.75777 0.0
Sc46 Sc 0.57327 0.12575 0.82818 0.0
O47 O 0.5632 0.15379 0.79744 0.0
C48 C 0.61699 0.17433 0.84063 0.0
C49 C 0.59204 0.19498 0.74674 0.0
C50 C 0.60548 0.10023 0.77457 0.0
C51 C 0.511 0.19063 0.7631 0.0
C52 C 0.5343 0.17047 0.86113 0.0
C53 C 0.52289 0.09461 0.79685 0.0
O54 O 0.6012 0.19358 0.83082 0.0
O55 O 0.58 0.17269 0.73777 0.0
O56 O 0.60133 0.10206 0.80099 0.0
O57 O 0.5254 0.20397 0.7814 0.0
O58 O 0.54676 0.14677 0.85913 0.0
O59 O 0.52682 0.10669 0.77319 0.0
O60 O 0.53703 0.18986 0.84293 0.0
O61 O 0.51769 0.16632 0.75424 0.0
O62 O 0.53788 0.09975 0.81837 0.0
O63 O 0.58855 0.20465 0.77133 0.0
O64 O 0.60991 0.14863 0.84071 0.0
O65 O 0.59019 0.11285 0.75663 0.0
Sc66 Sc 0.9328 0.80057 0.30644 0.0
Sc67 Sc 0.93866 0.85511 0.25687 0.0
Sc68 Sc 0.92111 0.87036 0.32735 0.0
O69 O 0.93112 0.84205 0.29688 0.0
C70 C 0.87916 0.82122 0.34188 0.0
C71 C 0.90183 0.79918 0.24792 0.0
C72 C 0.88663 0.89364 0.27424 0.0
C73 C 0.98304 0.80606 0.26112 0.0
C74 C 0.96203 0.82689 0.35983 0.0
C75 C 0.96986 0.90195 0.29479 0.0
O76 O 0.89572 0.80217 0.33294 0.0
O77 O 0.91409 0.82093 0.23801 0.0
O78 O 0.89269 0.89403 0.30035 0.0
O79 O 0.96889 0.79239 0.27936 0.0
O80 O 0.94811 0.84981 0.35822 0.0
O81 O 0.96489 0.89026 0.27108 0.0
O82 O 0.96029 0.80752 0.34145 0.0
O83 O 0.9764 0.83068 0.25313 0.0
O84 O 0.95611 0.89616 0.31689 0.0
O85 O 0.90525 0.79062 0.27293 0.0
O86 O 0.88495 0.84719 0.34028 0.0
O87 O 0.90094 0.87996 0.25628 0.0
Sc88 Sc 0.16804 0.07372 0.36814 0.0
Sc89 Sc 0.23887 0.0564 0.35304 0.0
Sc90 Sc 0.18944 0.06062 0.29824 0.0
O91 O 0.19876 0.06332 0.33984 0.0
C92 C 0.13508 0.03281 0.32536 0.0
C93 C 0.20155 0.02569 0.40057 0.0
C94 C 0.23369 0.01011 0.30481 0.0
C95 C 0.22082 0.10881 0.39103 0.0
C96 C 0.1551 0.11542 0.31801 0.0
C97 C 0.24857 0.09143 0.29652 0.0
O98 O 0.13748 0.04565 0.34882 0.0
O99 O 0.22456 0.02933 0.38723 0.0
O100 O 0.21377 0.02231 0.2916 0.0
O101 O 0.19456 0.10365 0.39037 0.0
O102 O 0.16634 0.09988 0.29933 0.0
O103 O 0.25776 0.08208 0.31992 0.0
O104 O 0.15372 0.10871 0.34376 0.0
O105 O 0.23887 0.09348 0.37871 0.0
O106 O 0.22452 0.08545 0.28684 0.0
O107 O 0.17957 0.0401 0.39579 0.0
O108 O 0.15273 0.03553 0.30551 0.0
O109 O 0.24366 0.01946 0.32779 0.0
Sc110 Sc 0.30494 0.9329 0.80261 0.0
Sc111 Sc 0.25647 0.94188 0.85738 0.0
Sc112 Sc 0.32636 0.92213 0.87228 0.0
O113 O 0.29592 0.9325 0.84419 0.0
C114 C 0.33972 0.87915 0.82372 0.0
C115 C 0.24572 0.90427 0.80207 0.0
C116 C 0.27227 0.88988 0.89667 0.0
C117 C 0.26104 0.98442 0.80736 0.0
C118 C 0.35877 0.96213 0.82788 0.0
C119 C 0.29542 0.97199 0.90399 0.0
O120 O 0.33153 0.89589 0.8045 0.0
O121 O 0.23656 0.91823 0.82313 0.0
O122 O 0.29861 0.89482 0.89611 0.0
O123 O 0.27779 0.9687 0.79355 0.0
O124 O 0.35763 0.94792 0.8507 0.0
O125 O 0.27177 0.96775 0.89202 0.0
O126 O 0.33986 0.96077 0.80898 0.0
O127 O 0.25441 0.97958 0.83276 0.0
O128 O 0.31726 0.95773 0.89832 0.0
O129 O 0.2711 0.90504 0.79394 0.0
O130 O 0.33792 0.88514 0.84961 0.0
O131 O 0.2545 0.90464 0.88315 0.0
Sc132 Sc 0.68838 0.43204 0.69679 0.0
Sc133 Sc 0.73705 0.44243 0.64229 0.0
Sc134 Sc 0.66725 0.42208 0.62633 0.0
O135 O 0.69751 0.43245 0.65511 0.0
C136 C 0.65547 0.37756 0.67443 0.0
C137 C 0.74912 0.40551 0.69729 0.0
C138 C 0.7217 0.3899 0.60319 0.0
C139 C 0.72971 0.4856 0.69242 0.0
C140 C 0.63333 0.46 0.67093 0.0
C141 C 0.6987 0.47211 0.59507 0.0
O142 O 0.66627 0.3925 0.69381 0.0
O143 O 0.75768 0.41822 0.67533 0.0
O144 O 0.69525 0.39421 0.60341 0.0
O145 O 0.71197 0.47038 0.70562 0.0
O146 O 0.63617 0.44863 0.64676 0.0
O147 O 0.72185 0.46884 0.60818 0.0
O148 O 0.65084 0.45641 0.69085 0.0
O149 O 0.73881 0.47946 0.66803 0.0
O150 O 0.67718 0.45705 0.59977 0.0
O151 O 0.72425 0.40742 0.70654 0.0
O152 O 0.65395 0.38545 0.64903 0.0
O153 O 0.73911 0.40548 0.61627 0.0
Sc154 Sc 0.82646 0.5731 0.12535 0.0
Sc155 Sc 0.75568 0.55437 0.13904 0.0
Sc156 Sc 0.80375 0.5617 0.195 0.0
O157 O 0.79528 0.56285 0.15312 0.0
C158 C 0.85911 0.53364 0.16938 0.0
C159 C 0.7944 0.52373 0.09303 0.0
C160 C 0.76118 0.50981 0.18894 0.0
C161 C 0.77361 0.60647 0.10014 0.0
C162 C 0.83763 0.61632 0.17488 0.0
C163 C 0.74338 0.59023 0.19459 0.0
O164 O 0.85641 0.54492 0.14519 0.0
O165 O 0.77129 0.5266 0.10629 0.0
O166 O 0.78059 0.52293 0.20203 0.0
O167 O 0.79997 0.6027 0.10298 0.0
O168 O 0.82541 0.6015 0.19345 0.0
O169 O 0.73535 0.58031 0.17099 0.0
O170 O 0.8406 0.60851 0.14956 0.0
O171 O 0.75543 0.5904 0.11144 0.0
O172 O 0.76735 0.58544 0.20515 0.0
O173 O 0.8157 0.53923 0.09751 0.0
O174 O 0.84173 0.53777 0.18928 0.0
O175 O 0.75117 0.5181 0.16556 0.0
Sc176 Sc 0.37104 0.17187 0.07317 0.0
Sc177 Sc 0.35686 0.24305 0.05641 0.0
Sc178 Sc 0.30155 0.1939 0.05974 0.0
O179 O 0.34318 0.20293 0.06288 0.0
C180 C 0.32876 0.13904 0.03211 0.0
C181 C 0.40373 0.20588 0.02532 0.0
C182 C 0.30828 0.23812 0.00982 0.0
C183 C 0.39525 0.2239 0.1084 0.0
C184 C 0.32033 0.1594 0.1145 0.0
C185 C 0.30042 0.25334 0.09084 0.0
O186 O 0.35283 0.14227 0.04346 0.0
O187 O 0.38962 0.22856 0.02794 0.0
O188 O 0.2959 0.21686 0.02054 0.0
O189 O 0.39198 0.19761 0.10449 0.0
O190 O 0.30218 0.17227 0.09966 0.0
O191 O 0.32488 0.26164 0.08366 0.0
O192 O 0.34572 0.15623 0.10706 0.0
O193 O 0.38467 0.2423 0.09215 0.0
O194 O 0.28995 0.23012 0.08302 0.0
O195 O 0.39974 0.1844 0.04072 0.0
O196 O 0.30847 0.1559 0.03628 0.0
O197 O 0.33017 0.24906 0.02059 0.0
Sc198 Sc 0.80183 0.30424 0.93413 0.0
Sc199 Sc 0.85723 0.25538 0.94038 0.0
Sc200 Sc 0.87165 0.32604 0.92235 0.0
O201 O 0.84357 0.29521 0.93248 0.0
C202 C 0.82191 0.33928 0.88002 0.0
C203 C 0.80159 0.24469 0.904 0.0
C204 C 0.89632 0.27319 0.88863 0.0
C205 C 0.80764 0.26019 0.98504 0.0
C206 C 0.8282 0.35864 0.96276 0.0
C207 C 0.90379 0.29343 0.97126 0.0
O208 O 0.80305 0.32833 0.89552 0.0
O209 O 0.82469 0.23595 0.91446 0.0
O210 O 0.89407 0.29955 0.89279 0.0
O211 O 0.79444 0.2796 0.97206 0.0
O212 O 0.85192 0.35627 0.95048 0.0
O213 O 0.89053 0.27032 0.96803 0.0
O214 O 0.80835 0.34101 0.95949 0.0
O215 O 0.83118 0.25073 0.97675 0.0
O216 O 0.89918 0.31502 0.95623 0.0
O217 O 0.79151 0.2689 0.90876 0.0
O218 O 0.84761 0.33999 0.88701 0.0
O219 O 0.88444 0.25504 0.90426 0.0
Sc220 Sc 0.69312 0.68846 0.43211 0.0
Sc221 Sc 0.63927 0.73763 0.44112 0.0
Sc222 Sc 0.62298 0.66792 0.42189 0.0
O223 O 0.65169 0.69792 0.432 0.0
C224 C 0.67121 0.65351 0.37868 0.0
C225 C 0.69467 0.74762 0.40387 0.0
C226 C 0.60069 0.72214 0.38858 0.0
C227 C 0.68869 0.73241 0.48393 0.0
C228 C 0.66721 0.63513 0.46178 0.0
C229 C 0.59151 0.69993 0.47097 0.0
O230 O 0.69063 0.66184 0.39513 0.0
O231 O 0.67417 0.7571 0.41834 0.0
O232 O 0.59946 0.69598 0.39442 0.0
O233 O 0.70246 0.71578 0.46797 0.0
O234 O 0.64405 0.63675 0.4482 0.0
O235 O 0.60373 0.72337 0.46633 0.0
O236 O 0.68661 0.65348 0.45978 0.0
O237 O 0.66322 0.73895 0.47927 0.0
O238 O 0.59716 0.6777 0.45731 0.0
O239 O 0.70202 0.72201 0.40404 0.0
O240 O 0.6454 0.65547 0.38493 0.0
O241 O 0.61498 0.73962 0.403 0.0
Sc242 Sc 0.12556 0.82907 0.57324 0.0
Sc243 Sc 0.14211 0.75954 0.55363 0.0
Sc244 Sc 0.19578 0.80888 0.56305 0.0
O245 O 0.15437 0.79927 0.56303 0.0
C246 C 0.16974 0.86217 0.53337 0.0
C247 C 0.09397 0.79699 0.52418 0.0
C248 C 0.1915 0.76519 0.51102 0.0
C249 C 0.10352 0.77443 0.60631 0.0
C250 C 0.17381 0.84378 0.61641 0.0
C251 C 0.19746 0.74965 0.59105 0.0
O252 O 0.1465 0.86042 0.54684 0.0
O253 O 0.10646 0.77367 0.52856 0.0
O254 O 0.20527 0.78167 0.52717 0.0
O255 O 0.10235 0.80069 0.60081 0.0
O256 O 0.19324 0.83543 0.60003 0.0
O257 O 0.17708 0.74015 0.57638 0.0
O258 O 0.14801 0.84172 0.61014 0.0
O259 O 0.11774 0.75716 0.59162 0.0
O260 O 0.20471 0.7753 0.59108 0.0
O261 O 0.09953 0.81919 0.53793 0.0
O262 O 0.18917 0.84389 0.53545 0.0
O263 O 0.166 0.75866 0.51549 0.0
Sc264 Sc 0.93552 0.69475 0.80282 0.0
Sc265 Sc 0.93758 0.63913 0.75397 0.0
Sc266 Sc 0.92148 0.62548 0.82539 0.0
O267 O 0.93175 0.65309 0.79407 0.0
C268 C 0.96349 0.66748 0.85747 0.0
C269 C 0.9845 0.68756 0.75769 0.0
C270 C 0.96879 0.59241 0.79109 0.0
C271 C 0.90321 0.69557 0.74401 0.0
C272 C 0.881 0.67674 0.83815 0.0
C273 C 0.88569 0.601 0.77391 0.0
O274 O 0.95949 0.68775 0.84051 0.0
O275 O 0.9733 0.66574 0.74702 0.0
O276 O 0.95348 0.59646 0.81262 0.0
O277 O 0.91174 0.70625 0.76689 0.0
O278 O 0.88808 0.65123 0.84123 0.0
O279 O 0.90193 0.61129 0.75536 0.0
O280 O 0.89592 0.69468 0.82506 0.0
O281 O 0.90999 0.67097 0.73576 0.0
O282 O 0.8897 0.60459 0.80015 0.0
O283 O 0.9744 0.7 0.77922 0.0
O284 O 0.95167 0.64358 0.85454 0.0
O285 O 0.96618 0.60651 0.76839 0.0
Sc286 Sc 0.56332 0.30055 0.30602 0.0
Sc287 Sc 0.55392 0.35599 0.25779 0.0
Sc288 Sc 0.57419 0.37055 0.32802 0.0
O289 O 0.5636 0.34237 0.29727 0.0
C290 C 0.53594 0.32629 0.36167 0.0
C291 C 0.51031 0.3055 0.26461 0.0
C292 C 0.52378 0.40208 0.29682 0.0
C293 C 0.59041 0.301 0.24507 0.0
C294 C 0.61828 0.32172 0.33881 0.0
C295 C 0.60604 0.39545 0.27416 0.0
O296 O 0.54002 0.3063 0.34436 0.0
O297 O 0.51784 0.32908 0.2545 0.0
O298 O 0.53981 0.39798 0.31781 0.0
O299 O 0.58657 0.29061 0.26929 0.0
O300 O 0.61018 0.34695 0.34171 0.0
O301 O 0.58961 0.38393 0.25643 0.0
O302 O 0.60347 0.30284 0.327 0.0
O303 O 0.57963 0.32418 0.23703 0.0
O304 O 0.60297 0.39284 0.30064 0.0
O305 O 0.52426 0.29259 0.28354 0.0
O306 O 0.54684 0.35062 0.35864 0.0
O307 O 0.52627 0.3886 0.27377 0.0
Sc308 Sc 0.43352 0.80002 0.18975 0.0
Sc309 Sc 0.43938 0.85533 0.23844 0.0
Sc310 Sc 0.42183 0.86984 0.16778 0.0
O311 O 0.43184 0.84176 0.19861 0.0
C312 C 0.46271 0.82607 0.13578 0.0
C313 C 0.48449 0.80687 0.23414 0.0
C314 C 0.46963 0.90278 0.20063 0.0
C315 C 0.40379 0.79906 0.24898 0.0
C316 C 0.37969 0.82008 0.1542 0.0
C317 C 0.38672 0.89278 0.22056 0.0
O318 O 0.45999 0.80655 0.15385 0.0
O319 O 0.47708 0.83124 0.24222 0.0
O320 O 0.45596 0.89712 0.17841 0.0
O321 O 0.40693 0.78988 0.22416 0.0
O322 O 0.38624 0.84592 0.15434 0.0
O323 O 0.4015 0.87983 0.23869 0.0
O324 O 0.39561 0.80111 0.16438 0.0
O325 O 0.41555 0.82138 0.25807 0.0
O326 O 0.39256 0.89287 0.19439 0.0
O327 O 0.47065 0.79279 0.21589 0.0
O328 O 0.44968 0.8495 0.13754 0.0
O329 O 0.46529 0.89029 0.22398 0.0
Sc330 Sc 0.06399 0.1936 0.68999 0.0
Sc331 Sc 0.05317 0.13924 0.73845 0.0
Sc332 Sc 0.07334 0.12366 0.66879 0.0
O333 O 0.06329 0.15206 0.69904 0.0
C334 C 0.03465 0.16888 0.63594 0.0
C335 C 0.01163 0.1898 0.73293 0.0
C336 C 0.02302 0.09252 0.69965 0.0
C337 C 0.09149 0.19394 0.74959 0.0
C338 C 0.11744 0.17133 0.65551 0.0
C339 C 0.10475 0.09929 0.72344 0.0
O340 O 0.03639 0.18781 0.65479 0.0
O341 O 0.01573 0.16423 0.73947 0.0
O342 O 0.03725 0.09812 0.67774 0.0
O343 O 0.09173 0.20166 0.72407 0.0
O344 O 0.11085 0.14557 0.65724 0.0
O345 O 0.09014 0.11322 0.74102 0.0
O346 O 0.10114 0.19088 0.66373 0.0
O347 O 0.07667 0.17343 0.75861 0.0
O348 O 0.09995 0.09959 0.69704 0.0
O349 O 0.0281 0.2034 0.71674 0.0
O350 O 0.04819 0.14566 0.63725 0.0
O351 O 0.02735 0.10456 0.72325 0.0
Sc352 Sc 0.82496 0.92168 0.62501 0.0
Sc353 Sc 0.75454 0.94126 0.63899 0.0
Sc354 Sc 0.80282 0.93295 0.69475 0.0
O355 O 0.79407 0.93216 0.65292 0.0
C356 C 0.83597 0.87802 0.67393 0.0
C357 C 0.77144 0.88932 0.59955 0.0
C358 C 0.74232 0.90495 0.69441 0.0
C359 C 0.79388 0.97196 0.59343 0.0
C360 C 0.85828 0.96059 0.66922 0.0
C361 C 0.7604 0.9852 0.6893 0.0
O362 O 0.83811 0.88555 0.64846 0.0
O363 O 0.75348 0.90512 0.61155 0.0
O364 O 0.76661 0.90883 0.70461 0.0
O365 O 0.81506 0.9565 0.59838 0.0
O366 O 0.84065 0.95723 0.68906 0.0
O367 O 0.75083 0.97773 0.66545 0.0
O368 O 0.85561 0.94877 0.64528 0.0
O369 O 0.77031 0.96864 0.60579 0.0
O370 O 0.77932 0.97143 0.70242 0.0
O371 O 0.79784 0.89315 0.60192 0.0
O372 O 0.8248 0.89327 0.69284 0.0
O373 O 0.73405 0.9158 0.6713 0.0
Sc374 Sc 0.6883 0.06243 0.19577 0.0
Sc375 Sc 0.73785 0.05667 0.14132 0.0
Sc376 Sc 0.66749 0.07405 0.12556 0.0
O377 O 0.69784 0.0641 0.15419 0.0
C378 C 0.63477 0.03326 0.1689 0.0
C379 C 0.73308 0.01167 0.18995 0.0
C380 C 0.70079 0.02614 0.09342 0.0
C381 C 0.74718 0.09272 0.19753 0.0
C382 C 0.65314 0.11626 0.17495 0.0
C383 C 0.72057 0.10904 0.10317 0.0
O384 O 0.65263 0.03582 0.18865 0.0
O385 O 0.74148 0.01911 0.1657 0.0
O386 O 0.67852 0.03984 0.09866 0.0
O387 O 0.72233 0.08925 0.20638 0.0
O388 O 0.65381 0.10972 0.14912 0.0
O389 O 0.73846 0.09437 0.11653 0.0
O390 O 0.66286 0.10029 0.19415 0.0
O391 O 0.75676 0.08093 0.17543 0.0
O392 O 0.69442 0.10322 0.10276 0.0
O393 O 0.7145 0.02539 0.20367 0.0
O394 O 0.63687 0.04634 0.14552 0.0
O395 O 0.72394 0.03048 0.10628 0.0
Sc396 Sc 0.30522 0.56192 0.30297 0.0
Sc397 Sc 0.2558 0.55484 0.35763 0.0
Sc398 Sc 0.32611 0.57338 0.37305 0.0
O399 O 0.2957 0.56319 0.34458 0.0
C400 C 0.35903 0.53297 0.32965 0.0
C401 C 0.26123 0.5107 0.30808 0.0
C402 C 0.29351 0.52433 0.40483 0.0
C403 C 0.24576 0.59138 0.3017 0.0
C404 C 0.34014 0.61583 0.32374 0.0
C405 C 0.27265 0.60697 0.39677 0.0
O406 O 0.34125 0.53569 0.30984 0.0
O407 O 0.25237 0.51766 0.33231 0.0
O408 O 0.31533 0.53895 0.40003 0.0
O409 O 0.27061 0.58819 0.29264 0.0
O410 O 0.33971 0.60933 0.34958 0.0
O411 O 0.25466 0.59171 0.38408 0.0
O412 O 0.33024 0.59985 0.30468 0.0
O413 O 0.23653 0.57963 0.324 0.0
O414 O 0.29898 0.60229 0.39555 0.0
O415 O 0.27968 0.52484 0.29473 0.0
O416 O 0.35682 0.54586 0.35313 0.0
O417 O 0.27035 0.52803 0.3918 0.0
Sc418 Sc 0.16691 0.42274 0.86938 0.0
Sc419 Sc 0.23684 0.44128 0.85246 0.0
Sc420 Sc 0.18664 0.43349 0.79887 0.0
O421 O 0.19675 0.43278 0.8403 0.0
C422 C 0.15204 0.37977 0.82076 0.0
C423 C 0.22093 0.38908 0.89155 0.0
C424 C 0.24571 0.40375 0.79702 0.0
C425 C 0.19997 0.4718 0.9005 0.0
C426 C 0.13336 0.4626 0.8258 0.0
C427 C 0.23056 0.48501 0.80301 0.0
O428 O 0.15318 0.38644 0.84654 0.0
O429 O 0.2384 0.40408 0.87798 0.0
O430 O 0.22063 0.40677 0.78864 0.0
O431 O 0.17792 0.45748 0.89578 0.0
O432 O 0.15111 0.45998 0.80601 0.0
O433 O 0.23939 0.47862 0.8274 0.0
O434 O 0.13568 0.44981 0.84934 0.0
O435 O 0.22297 0.46786 0.88725 0.0
O436 O 0.2124 0.47032 0.78977 0.0
O437 O 0.19464 0.39426 0.89204 0.0
O438 O 0.16133 0.39569 0.80136 0.0
O439 O 0.25564 0.41637 0.81856 0.0
Sc440 Sc 0.62558 0.82736 0.92306 0.0
Sc441 Sc 0.64257 0.75731 0.941 0.0
Sc442 Sc 0.69607 0.80773 0.93373 0.0
O443 O 0.65469 0.7975 0.93289 0.0
C444 C 0.67401 0.84233 0.88003 0.0
C445 C 0.60339 0.77353 0.88898 0.0
C446 C 0.69811 0.74873 0.90371 0.0
C447 C 0.59459 0.79401 0.9718 0.0
C448 C 0.66908 0.86091 0.9631 0.0
C449 C 0.69191 0.7633 0.98492 0.0
O450 O 0.64829 0.84112 0.8868 0.0
O451 O 0.61716 0.75594 0.90366 0.0
O452 O 0.70639 0.77386 0.90684 0.0
O453 O 0.59937 0.81621 0.95778 0.0
O454 O 0.68893 0.84323 0.96045 0.0
O455 O 0.66753 0.75455 0.9784 0.0
O456 O 0.64561 0.85853 0.95023 0.0
O457 O 0.60772 0.77098 0.96758 0.0
O458 O 0.70514 0.78164 0.97046 0.0
O459 O 0.60278 0.79975 0.89453 0.0
O460 O 0.69352 0.83317 0.89593 0.0
O461 O 0.67658 0.73868 0.91618 0.0
Sc462 Sc 0.19442 0.68916 0.06315 0.0
Sc463 Sc 0.13957 0.73795 0.05429 0.0
Sc464 Sc 0.12446 0.66784 0.0737 0.0
O465 O 0.15277 0.69832 0.06352 0.0
C466 C 0.16871 0.63514 0.03381 0.0
C467 C 0.18987 0.73288 0.01147 0.0
C468 C 0.09302 0.69944 0.02376 0.0
C469 C 0.19463 0.74873 0.09202 0.0
C470 C 0.17321 0.6543 0.11692 0.0
C471 C 0.09994 0.72179 0.10613 0.0
O472 O 0.18823 0.65326 0.03647 0.0
O473 O 0.16506 0.74081 0.01726 0.0
O474 O 0.09789 0.6778 0.03865 0.0
O475 O 0.20358 0.72371 0.08994 0.0
O476 O 0.14743 0.65498 0.11026 0.0
O477 O 0.11281 0.73957 0.09082 0.0
O478 O 0.19241 0.66379 0.1009 0.0
O479 O 0.17293 0.75779 0.07905 0.0
O480 O 0.10129 0.69534 0.1019 0.0
O481 O 0.20334 0.7152 0.02647 0.0
O482 O 0.14523 0.63701 0.04676 0.0
O483 O 0.10573 0.72278 0.02745 0.0
Sc484 Sc 0.30091 0.30229 0.56085 0.0
Sc485 Sc 0.35699 0.25426 0.55515 0.0
Sc486 Sc 0.37034 0.32524 0.57336 0.0
O487 O 0.34276 0.29393 0.56291 0.0
C488 C 0.32693 0.35792 0.53347 0.0
C489 C 0.30769 0.25949 0.50952 0.0
C490 C 0.40321 0.29268 0.52461 0.0
C491 C 0.30114 0.24201 0.59005 0.0
C492 C 0.32011 0.33629 0.61575 0.0
C493 C 0.39547 0.27284 0.6073 0.0
O494 O 0.3069 0.34071 0.53769 0.0
O495 O 0.3303 0.249 0.51919 0.0
O496 O 0.39884 0.31395 0.54021 0.0
O497 O 0.29021 0.26549 0.58385 0.0
O498 O 0.34537 0.33985 0.608 0.0
O499 O 0.38476 0.25456 0.59094 0.0
O500 O 0.30189 0.32343 0.60098 0.0
O501 O 0.32535 0.23429 0.58161 0.0
O502 O 0.39211 0.29917 0.60374 0.0
O503 O 0.29484 0.27979 0.52146 0.0
O504 O 0.35117 0.35495 0.54451 0.0
O505 O 0.38958 0.26971 0.52712 0.0
Sc506 Sc 0.87055 0.16997 0.42273 0.0
Sc507 Sc 0.85738 0.24098 0.44021 0.0
Sc508 Sc 0.8015 0.19228 0.43629 0.0
O509 O 0.84316 0.20113 0.43327 0.0
C510 C 0.82018 0.15714 0.38156 0.0
C511 C 0.89598 0.22231 0.38862 0.0
C512 C 0.80117 0.25083 0.40428 0.0
C513 C 0.90311 0.20218 0.47164 0.0
C514 C 0.82755 0.13792 0.46424 0.0
C515 C 0.80864 0.23758 0.48593 0.0
O516 O 0.84616 0.15723 0.38741 0.0
O517 O 0.88403 0.24071 0.40383 0.0
O518 O 0.79112 0.22687 0.41025 0.0
O519 O 0.89759 0.18046 0.45705 0.0
O520 O 0.80841 0.15647 0.46271 0.0
O521 O 0.83205 0.24667 0.47689 0.0
O522 O 0.85032 0.13938 0.45014 0.0
O523 O 0.89109 0.22589 0.46762 0.0
O524 O 0.79503 0.21797 0.47369 0.0
O525 O 0.89374 0.19605 0.3933 0.0
O526 O 0.80162 0.16707 0.39813 0.0
O527 O 0.8245 0.25996 0.41404 0.0
H528 H 0.11366 0.41687 0.27605 0.0
H529 H 0.15421 0.41037 0.19499 0.0
H530 H 0.15451 0.4411 0.29474 0.0
H531 H 0.19581 0.4338 0.21404 0.0
H532 H 0.24958 0.50685 0.25195 0.0
H533 H 0.21356 0.47756 0.23012 0.0
H534 H 0.20118 0.43429 0.30917 0.0
H535 H 0.23623 0.46453 0.33117 0.0
C536 C 0.13139 0.42048 0.26222 0.0
C537 C 0.13058 0.4117 0.23399 0.0
C538 C 0.15506 0.43414 0.27305 0.0
C539 C 0.17881 0.4391 0.25609 0.0
C540 C 0.17791 0.43055 0.22772 0.0
C541 C 0.15402 0.41711 0.21677 0.0
C542 C 0.23972 0.49053 0.26443 0.0
C543 C 0.24559 0.48812 0.29333 0.0
C544 C 0.21894 0.47374 0.25193 0.0
C545 C 0.20385 0.45394 0.268 0.0
C546 C 0.21162 0.44994 0.29633 0.0
C547 C 0.23201 0.467 0.30889 0.0
H548 H 0.24405 0.4876 0.74721 0.0
H549 H 0.25296 0.53271 0.82556 0.0
H550 H 0.2801 0.51732 0.72598 0.0
H551 H 0.28798 0.56332 0.80412 0.0
H552 H 0.37681 0.58065 0.77498 0.0
H553 H 0.33541 0.55647 0.7922 0.0
H554 H 0.29786 0.56128 0.70946 0.0
H555 H 0.34009 0.58481 0.69189 0.0
C556 C 0.25292 0.50461 0.75956 0.0
C557 C 0.24586 0.50769 0.78812 0.0
C558 C 0.2737 0.52164 0.74741 0.0
C559 C 0.28758 0.54232 0.76351 0.0
C560 C 0.2785 0.547 0.79132 0.0
C561 C 0.25812 0.52972 0.80355 0.0
C562 C 0.35978 0.57656 0.76038 0.0
C563 C 0.36186 0.5847 0.73203 0.0
C564 C 0.33579 0.56291 0.77036 0.0
C565 C 0.31291 0.55725 0.7524 0.0
C566 C 0.31506 0.56514 0.72391 0.0
C567 C 0.33929 0.57863 0.71381 0.0
H568 H 0.65354 0.08508 0.80297 0.0
H569 H 0.61298 0.0789 0.72185 0.0
H570 H 0.69512 0.06165 0.78388 0.0
H571 H 0.65371 0.05464 0.70313 0.0
H572 H 0.73508 0.03125 0.66631 0.0
H573 H 0.70011 0.06135 0.6885 0.0
H574 H 0.7134 0.01835 0.76757 0.0
H575 H 0.7494 0.98928 0.74554 0.0
C576 C 0.65334 0.07837 0.78118 0.0
C577 C 0.62992 0.08392 0.76394 0.0
C578 C 0.67721 0.06494 0.7702 0.0
C579 C 0.67811 0.05652 0.74177 0.0
C580 C 0.65432 0.06153 0.72485 0.0
C581 C 0.63071 0.07519 0.7357 0.0
C582 C 0.7311 0.02884 0.68863 0.0
C583 C 0.74497 0.00786 0.70414 0.0
C584 C 0.71072 0.04581 0.70132 0.0
C585 C 0.70319 0.04182 0.72972 0.0
C586 C 0.71856 0.02217 0.74571 0.0
C587 C 0.73935 0.00551 0.73309 0.0
H588 H 0.8542 0.87964 0.22932 0.0
H589 H 0.8605 0.94022 0.29674 0.0
H590 H 0.81257 0.9032 0.21165 0.0
H591 H 0.81947 0.96507 0.27807 0.0
H592 H 0.7363 -0.00148 0.24645 0.0
H593 H 0.77039 0.96716 0.26891 0.0
H594 H 0.80176 0.94336 0.18689 0.0
H595 H 0.76721 0.97321 0.1648 0.0
C596 C 0.84684 0.89827 0.2402 0.0
C597 C 0.86098 0.90834 0.26417 0.0
C598 C 0.82291 0.91189 0.23001 0.0
C599 C 0.81269 0.93644 0.24305 0.0
C600 C 0.82642 0.94611 0.26755 0.0
C601 C 0.85015 0.93205 0.27814 0.0
C602 C 0.74992 0.98588 0.23327 0.0
C603 C 0.74902 0.98855 0.20379 0.0
C604 C 0.76982 0.96821 0.24616 0.0
C605 C 0.78924 0.95284 0.22985 0.0
C606 C 0.78712 0.95443 0.20035 0.0
C607 C 0.76725 0.97182 0.18756 0.0
H608 H 0.25215 0.26037 0.493 0.0
H609 H 0.33254 0.22305 0.47309 0.0
H610 H 0.22904 0.22728 0.46097 0.0
H611 H 0.30966 0.18962 0.44238 0.0
H612 H 0.26704 0.13923 0.37738 0.0
H613 H 0.2858 0.18063 0.40063 0.0
H614 H 0.21735 0.17812 0.46043 0.0
H615 H 0.19771 0.1372 0.43596 0.0
C616 C 0.26497 0.24558 0.48135 0.0
C617 C 0.2942 0.24429 0.48576 0.0
C618 C 0.25167 0.22631 0.4633 0.0
C619 C 0.26736 0.20545 0.44926 0.0
C620 C 0.29677 0.20545 0.45246 0.0
C621 C 0.30998 0.22464 0.4703 0.0
C622 C 0.25592 0.14753 0.39547 0.0
C623 C 0.23117 0.13461 0.40519 0.0
C624 C 0.26672 0.17131 0.40886 0.0
C625 C 0.25344 0.18258 0.43277 0.0
C626 C 0.22807 0.17024 0.44195 0.0
C627 C 0.21692 0.14661 0.42812 0.0
H628 H 0.30206 0.84378 0.91469 0.0
H629 H 0.21863 0.87966 0.91446 0.0
H630 H 0.28399 0.80189 0.93826 0.0
H631 H 0.2008 0.83856 0.93894 0.0
H632 H 0.16782 0.75552 0.96359 0.0
H633 H 0.1893 0.79106 0.93359 0.0
H634 H 0.26651 0.78435 0.98124 0.0
H635 H 0.2453 0.74779 0.01026 0.0
C636 C 0.27993 0.8429 0.91999 0.0
C637 C 0.26181 0.86513 0.91266 0.0
C638 C 0.26954 0.81884 0.93353 0.0
C639 C 0.24081 0.81652 0.94035 0.0
C640 C 0.22288 0.83906 0.9334 0.0
C641 C 0.23318 0.86289 0.91959 0.0
C642 C 0.18965 0.76109 0.96709 0.0
C643 C 0.20484 0.74887 0.98929 0.0
C644 C 0.20189 0.78179 0.95016 0.0
C645 C 0.22948 0.79128 0.95538 0.0
C646 C 0.24529 0.77763 0.97642 0.0
C647 C 0.23316 0.75653 0.99306 0.0
H648 H 0.83394 0.27516 0.52103 0.0
H649 H 0.75317 0.23755 0.50285 0.0
H650 H 0.81156 0.30946 0.551 0.0
H651 H 0.7306 0.27147 0.53429 0.0
H652 H 0.69881 0.36093 0.55855 0.0
H653 H 0.71872 0.32021 0.5342 0.0
H654 H 0.78853 0.31994 0.59257 0.0
H655 H 0.76946 0.36124 0.61568 0.0
C656 C 0.8114 0.2737 0.52402 0.0
C657 C 0.79538 0.25369 0.50921 0.0
C658 C 0.79848 0.29341 0.54147 0.0
C659 C 0.76912 0.29356 0.545 0.0
C660 C 0.7532 0.27238 0.53165 0.0
C661 C 0.76619 0.25264 0.51393 0.0
C662 C 0.71844 0.35212 0.56606 0.0
C663 C 0.73286 0.36468 0.58863 0.0
C664 C 0.72974 0.32857 0.55231 0.0
C665 C 0.75546 0.31679 0.56118 0.0
C666 C 0.76913 0.32877 0.58457 0.0
C667 C 0.75816 0.35252 0.59789 0.0
H668 H 0.72069 0.61592 0.0799 0.0
H669 H 0.80325 0.65364 0.08439 0.0
H670 H 0.70309 0.65714 0.05555 0.0
H671 H 0.78533 0.69561 0.06076 0.0
H672 H 0.74772 0.74988 0.98765 0.0
H673 H 0.76894 0.71346 0.01695 0.0
H674 H 0.69062 0.70449 0.06222 0.0
H675 H 0.66923 0.73993 0.03206 0.0
C676 C 0.7351 0.6331 0.07583 0.0
C677 C 0.76342 0.63135 0.08412 0.0
C678 C 0.72491 0.65699 0.06208 0.0
C679 C 0.74262 0.68008 0.05648 0.0
C680 C 0.77107 0.67825 0.06452 0.0
C681 C 0.78136 0.65414 0.07809 0.0
C682 C 0.73532 0.74069 0.00442 0.0
C683 C 0.70675 0.74764 0.00744 0.0
C684 C 0.74746 0.71967 0.0212 0.0
C685 C 0.73133 0.7054 0.04157 0.0
C686 C 0.70346 0.71426 0.04614 0.0
C687 C 0.69126 0.7349 0.02912 0.0
H688 H 0.41666 0.27633 0.11771 0.0
H689 H 0.40911 0.19436 0.15627 0.0
H690 H 0.4404 0.29388 0.15928 0.0
H691 H 0.43222 0.21229 0.19864 0.0
H692 H 0.50607 0.24942 0.25295 0.0
H693 H 0.4763 0.22803 0.21697 0.0
H694 H 0.43276 0.30715 0.20635 0.0
H695 H 0.46344 0.3287 0.24131 0.0
C696 C 0.41991 0.26204 0.13516 0.0
C697 C 0.41095 0.2339 0.13356 0.0
C698 C 0.4333 0.27222 0.15925 0.0
C699 C 0.43787 0.2547 0.18269 0.0
C700 C 0.42919 0.2264 0.18102 0.0
C701 C 0.41595 0.2161 0.1567 0.0
C702 C 0.48953 0.26196 0.24354 0.0
C703 C 0.4872 0.29079 0.2498 0.0
C704 C 0.47249 0.24972 0.22278 0.0
C705 C 0.45256 0.26602 0.20811 0.0
C706 C 0.44851 0.29417 0.21645 0.0
C707 C 0.46581 0.30647 0.23681 0.0
H708 H 0.91397 0.30305 0.84228 0.0
H709 H 0.91493 0.2198 0.8788 0.0
H710 H 0.93794 0.28491 0.80055 0.0
H711 H 0.93948 0.20197 0.83783 0.0
H712 H 0.963 0.16864 0.75479 0.0
H713 H 0.9329 0.19067 0.78988 0.0
H714 H 0.98202 0.26702 0.78415 0.0
H715 H 0.01139 0.24526 0.74817 0.0
C716 C 0.91954 0.28097 0.84156 0.0
C717 C 0.91245 0.26289 0.86392 0.0
C718 C 0.93328 0.27055 0.81761 0.0
C719 C 0.94037 0.24186 0.81555 0.0
C720 C 0.93369 0.22401 0.8382 0.0
C721 C 0.91982 0.23432 0.86193 0.0
C722 C 0.96689 0.19038 0.7605 0.0
C723 C 0.98965 0.20514 0.74881 0.0
C724 C 0.94985 0.20294 0.78088 0.0
C725 C 0.95545 0.23042 0.79048 0.0
C726 C 0.977 0.24587 0.7773 0.0
C727 C 0.99383 0.23341 0.75657 0.0
H728 H 0.49821 0.75056 0.23704 0.0
H729 H 0.52247 0.8323 0.26875 0.0
H730 H 0.52931 0.72824 0.2714 0.0
H731 H 0.55208 0.81029 0.30359 0.0
H732 H 0.6151 0.76754 0.35697 0.0
H733 H 0.59217 0.78554 0.31508 0.0
H734 H 0.53013 0.71918 0.32051 0.0
H735 H 0.55428 0.70023 0.36178 0.0
C736 C 0.51057 0.7638 0.2509 0.0
C737 C 0.50763 0.79325 0.25018 0.0
C738 C 0.52809 0.75098 0.27094 0.0
C739 C 0.54302 0.76734 0.2907 0.0
C740 C 0.54129 0.79682 0.2887 0.0
C741 C 0.52405 0.80955 0.26867 0.0
C742 C 0.59655 0.75676 0.34924 0.0
C743 C 0.58624 0.73271 0.363 0.0
C744 C 0.58331 0.76713 0.32516 0.0
C745 C 0.55896 0.75414 0.31442 0.0
C746 C 0.54899 0.72963 0.32785 0.0
C747 C 0.56264 0.7189 0.35173 0.0
H748 H 0.0594 0.79787 0.63572 0.0
H749 H 0.11497 0.72602 0.63464 0.0
H750 H 0.03459 0.77786 0.67613 0.0
H751 H 0.09121 0.70674 0.67545 0.0
H752 H 0.01803 0.66222 0.71889 0.0
H753 H 0.04846 0.68457 0.68487 0.0
H754 H 0.03495 0.76501 0.72516 0.0
H755 H 0.00324 0.74248 0.75895 0.0
C756 C 0.06649 0.77797 0.64426 0.0
C757 C 0.08881 0.7633 0.63156 0.0
C758 C 0.05245 0.76659 0.66762 0.0
C759 C 0.06066 0.74047 0.67902 0.0
C760 C 0.08376 0.72651 0.66692 0.0
C761 C 0.09745 0.73762 0.64344 0.0
C762 C 0.02186 0.68461 0.72091 0.0
C763 C 0.00797 0.70054 0.74161 0.0
C764 C 0.03954 0.6975 0.70136 0.0
C765 C 0.04411 0.72674 0.70198 0.0
C766 C 0.03154 0.74252 0.72371 0.0
C767 C 0.01369 0.72955 0.74337 0.0
H768 H 0.83841 0.58621 0.80402 0.0
H769 H 0.87573 0.58027 0.72134 0.0
H770 H 0.79604 0.56285 0.78636 0.0
H771 H 0.83416 0.55642 0.70406 0.0
H772 H 0.75181 0.53354 0.67009 0.0
H773 H 0.78666 0.56422 0.69182 0.0
H774 H 0.77826 0.51843 0.76994 0.0
H775 H 0.74246 0.48855 0.74841 0.0
C776 C 0.83771 0.5797 0.78218 0.0
C777 C 0.86051 0.58522 0.7641 0.0
C778 C 0.8134 0.56633 0.77204 0.0
C779 C 0.81138 0.55808 0.74363 0.0
C780 C 0.83446 0.56317 0.72583 0.0
C781 C 0.85855 0.57663 0.73585 0.0
C782 C 0.75679 0.53062 0.69216 0.0
C783 C 0.7445 0.50855 0.70748 0.0
C784 C 0.77706 0.54795 0.70455 0.0
C785 C 0.78598 0.5433 0.73243 0.0
C786 C 0.77199 0.52268 0.74845 0.0
C787 C 0.75133 0.50558 0.73613 0.0
H788 H 0.61291 0.41767 0.22167 0.0
H789 H 0.65512 0.40858 0.30167 0.0
H790 H 0.65383 0.4415 0.20267 0.0
H791 H 0.69678 0.43151 0.28228 0.0
H792 H 0.75128 0.50423 0.24521 0.0
H793 H 0.71526 0.47501 0.26701 0.0
H794 H 0.6999 0.43446 0.18696 0.0
H795 H 0.73492 0.46474 0.16504 0.0
C796 C 0.63103 0.42063 0.23519 0.0
C797 C 0.63065 0.41127 0.26322 0.0
C798 C 0.65473 0.43404 0.22418 0.0
C799 C 0.67897 0.43814 0.24073 0.0
C800 C 0.67851 0.42896 0.26891 0.0
C801 C 0.65459 0.41581 0.28006 0.0
C802 C 0.74077 0.48848 0.23248 0.0
C803 C 0.74579 0.4869 0.20337 0.0
C804 C 0.71998 0.47174 0.24496 0.0
C805 C 0.70404 0.45277 0.22866 0.0
C806 C 0.71099 0.44949 0.20004 0.0
C807 C 0.73138 0.46654 0.1875 0.0
H808 H 0.35898 0.93807 0.19739 0.0
H809 H 0.3553 0.87874 0.26606 0.0
H810 H 0.31763 0.96226 0.21622 0.0
H811 H 0.31344 0.90169 0.28398 0.0
H812 H 0.26906 0.97309 0.33028 0.0
H813 H 0.3032 0.9428 0.30807 0.0
H814 H 0.26838 0.96284 0.22643 0.0
H815 H 0.2346 0.99451 0.24893 0.0
C816 C 0.34913 0.93002 0.21629 0.0
C817 C 0.36079 0.90692 0.23058 0.0
C818 C 0.32524 0.94368 0.22697 0.0
C819 C 0.31224 0.9342 0.2519 0.0
C820 C 0.32323 0.91018 0.26524 0.0
C821 C 0.34729 0.89694 0.25492 0.0
C822 C 0.26823 0.97071 0.30761 0.0
C823 C 0.24918 0.9865 0.29142 0.0
C824 C 0.28785 0.9531 0.29478 0.0
C825 C 0.28889 0.95043 0.26531 0.0
C826 C 0.26859 0.96477 0.24913 0.0
C827 C 0.24891 0.9826 0.26206 0.0
H828 H 0.24565 0.98493 0.752 0.0
H829 H 0.2381 0.03235 0.82913 0.0
H830 H 0.2092 0.01381 0.73054 0.0
H831 H 0.20262 0.06219 0.80736 0.0
H832 H 0.11438 0.08178 0.77731 0.0
H833 H 0.15511 0.05707 0.79563 0.0
H834 H 0.19232 0.05683 0.71262 0.0
H835 H 0.1508 0.08063 0.69407 0.0
C836 C 0.23694 0.00222 0.76404 0.0
C837 C 0.24465 0.00626 0.79232 0.0
C838 C 0.21591 0.01879 0.75174 0.0
C839 C 0.20239 0.04005 0.76735 0.0
C840 C 0.21183 0.04546 0.79493 0.0
C841 C 0.23248 0.02861 0.80734 0.0
C842 C 0.13119 0.07638 0.76292 0.0
C843 C 0.12922 0.08312 0.7342 0.0
C844 C 0.1548 0.06245 0.77349 0.0
C845 C 0.17737 0.05518 0.75575 0.0
C846 C 0.17532 0.0618 0.72693 0.0
C847 C 0.15148 0.07547 0.71627 0.0
H848 H 0.71795 0.87963 0.5808 0.0
H849 H 0.80105 0.84295 0.58167 0.0
H850 H 0.70007 0.83876 0.55592 0.0
H851 H 0.78289 0.80136 0.55752 0.0
H852 H 0.74408 0.7479 0.48471 0.0
H853 H 0.76538 0.78446 0.51378 0.0
H854 H 0.68842 0.791 0.56169 0.0
H855 H 0.66687 0.75533 0.53184 0.0
C856 C 0.73242 0.86276 0.57581 0.0
C857 C 0.76098 0.8647 0.58324 0.0
C858 C 0.72208 0.83907 0.56175 0.0
C859 C 0.73988 0.81639 0.55496 0.0
C860 C 0.76854 0.81842 0.56217 0.0
C861 C 0.77897 0.84231 0.57606 0.0
C862 C 0.73198 0.75661 0.50195 0.0
C863 C 0.70372 0.74882 0.50586 0.0
C864 C 0.74418 0.77771 0.51862 0.0
C865 C 0.72847 0.79127 0.53977 0.0
C866 C 0.70092 0.78175 0.54505 0.0
C867 C 0.68864 0.761 0.52817 0.0
H868 H 0.7515 0.25946 -0.00052 0.0
H869 H 0.83219 0.22475 0.0227 0.0
H870 H 0.72828 0.22618 0.03116 0.0
H871 H 0.80926 0.19109 0.05302 0.0
H872 H 0.76591 0.1406 0.11749 0.0
H873 H 0.78448 0.18193 0.09402 0.0
H874 H 0.7177 0.17693 0.0324 0.0
H875 H 0.69822 0.13611 0.05706 0.0
C876 C 0.76433 0.24519 0.01175 0.0
C877 C 0.79373 0.24473 0.00839 0.0
C878 C 0.75099 0.2258 0.0296 0.0
C879 C 0.76677 0.20561 0.0445 0.0
C880 C 0.79626 0.2064 0.04228 0.0
C881 C 0.80951 0.22573 0.02465 0.0
C882 C 0.75512 0.14833 0.09895 0.0
C883 C 0.73087 0.13475 0.08882 0.0
C884 C 0.76581 0.17208 0.08542 0.0
C885 C 0.75295 0.18265 0.06095 0.0
C886 C 0.72809 0.16961 0.05131 0.0
C887 C 0.71703 0.14604 0.06526 0.0
H888 H 0.17003 0.74333 0.46244 0.0
H889 H 0.24654 0.74871 0.51107 0.0
H890 H 0.19128 0.70747 0.43267 0.0
H891 H 0.26749 0.71192 0.48214 0.0
H892 H 0.30301 0.65265 0.41522 0.0
H893 H 0.28541 0.69471 0.43886 0.0
H894 H 0.20157 0.65948 0.43829 0.0
H895 H 0.21894 0.61815 0.41387 0.0
C896 C 0.1916 0.73718 0.46644 0.0
C897 C 0.20656 0.74883 0.48915 0.0
C898 C 0.2037 0.71631 0.44962 0.0
C899 C 0.23091 0.70613 0.45537 0.0
C900 C 0.24656 0.71919 0.47692 0.0
C901 C 0.23457 0.74042 0.49352 0.0
C902 C 0.28083 0.65387 0.42023 0.0
C903 C 0.26241 0.63195 0.41261 0.0
C904 C 0.27071 0.67804 0.43382 0.0
C905 C 0.24196 0.6808 0.44031 0.0
C906 C 0.2237 0.65861 0.43302 0.0
C907 C 0.23374 0.63465 0.41923 0.0
H908 H 0.25311 0.23678 0.99207 0.0
H909 H 0.33333 0.27586 0.97494 0.0
H910 H 0.23023 0.27026 0.9603 0.0
H911 H 0.31066 0.30963 0.94448 0.0
H912 H 0.26845 0.36004 0.87894 0.0
H913 H 0.28762 0.31894 0.90225 0.0
H914 H 0.21788 0.31934 0.96056 0.0
H915 H 0.19789 0.36002 0.93611 0.0
C916 C 0.26595 0.25205 0.98107 0.0
C917 C 0.29505 0.25369 0.98618 0.0
C918 C 0.25278 0.27154 0.96319 0.0
C919 C 0.26847 0.29296 0.95 0.0
C920 C 0.29779 0.29337 0.9539 0.0
C921 C 0.31087 0.27398 0.97159 0.0
C922 C 0.25714 0.3514 0.89674 0.0
C923 C 0.23188 0.36366 0.906 0.0
C924 C 0.26818 0.32776 0.91016 0.0
C925 C 0.2546 0.31592 0.93362 0.0
C926 C 0.22883 0.32766 0.94241 0.0
C927 C 0.21749 0.35117 0.9286 0.0
H928 H 0.50107 0.7433 0.73743 0.0
H929 H 0.52089 0.66223 0.77345 0.0
H930 H 0.53279 0.76587 0.77117 0.0
H931 H 0.55122 0.68457 0.80756 0.0
H932 H 0.61633 0.7268 0.85872 0.0
H933 H 0.59279 0.70817 0.81742 0.0
H934 H 0.53336 0.77693 0.82031 0.0
H935 H 0.55807 0.79641 0.86109 0.0
C936 C 0.5126 0.73023 0.75211 0.0
C937 C 0.50827 0.70094 0.75278 0.0
C938 C 0.53046 0.74321 0.77176 0.0
C939 C 0.5444 0.72717 0.79244 0.0
C940 C 0.54123 0.69774 0.7919 0.0
C941 C 0.52359 0.68484 0.7723 0.0
C942 C 0.59824 0.738 0.85057 0.0
C943 C 0.58877 0.76284 0.86352 0.0
C944 C 0.58467 0.72727 0.82682 0.0
C945 C 0.56083 0.74073 0.8156 0.0
C946 C 0.55179 0.76608 0.8281 0.0
C947 C 0.56576 0.77713 0.85168 0.0
H948 H 0.02913 0.82932 0.23605 0.0
H949 H 0.98646 0.7501 0.24828 0.0
H950 H 0.05954 0.80761 0.20105 0.0
H951 H 0.01585 0.72857 0.21222 0.0
H952 H 0.08344 0.69326 0.15366 0.0
H953 H 0.05921 0.71218 0.19484 0.0
H954 H 0.05464 0.79352 0.15436 0.0
H955 H 0.07976 0.77494 0.11404 0.0
C956 C 0.02655 0.80712 0.23154 0.0
C957 C 0.00535 0.79147 0.24491 0.0
C958 C 0.04372 0.7947 0.21115 0.0
C959 C 0.03977 0.76643 0.20309 0.0
C960 C 0.01971 0.75032 0.21781 0.0
C961 C 0.00283 0.76266 0.23861 0.0
C962 C 0.07715 0.71516 0.15358 0.0
C963 C 0.0836 0.73257 0.13053 0.0
C964 C 0.06322 0.72605 0.17723 0.0
C965 C 0.05513 0.75456 0.17828 0.0
C966 C 0.06117 0.77171 0.15488 0.0
C967 C 0.07536 0.76095 0.13149 0.0
H968 H 0.46426 0.16753 0.73928 0.0
H969 H 0.50733 0.24667 0.75088 0.0
H970 H 0.43375 0.18913 0.70428 0.0
H971 H 0.47767 0.26811 0.7149 0.0
H972 H 0.40985 0.30209 0.65519 0.0
H973 H 0.43339 0.28393 0.69718 0.0
H974 H 0.44114 0.20259 0.65717 0.0
H975 H 0.41696 0.22036 0.61595 0.0
C976 C 0.46683 0.18972 0.73471 0.0
C977 C 0.48828 0.20535 0.74772 0.0
C978 C 0.44959 0.20206 0.71435 0.0
C979 C 0.45373 0.2302 0.70607 0.0
C980 C 0.47379 0.24642 0.72068 0.0
C981 C 0.49078 0.23415 0.74142 0.0
C982 C 0.41669 0.28035 0.65538 0.0
C983 C 0.41144 0.26268 0.63218 0.0
C984 C 0.43018 0.26993 0.67948 0.0
C985 C 0.43887 0.24164 0.68085 0.0
C986 C 0.43406 0.22424 0.65735 0.0
C987 C 0.42041 0.23454 0.63347 0.0
H988 H 0.91776 0.27457 0.37996 0.0
H989 H 0.91025 0.19283 0.34084 0.0
H990 H 0.94161 0.29235 0.33862 0.0
H991 H 0.93342 0.21101 0.29862 0.0
H992 H 0.0066 0.2488 0.24402 0.0
H993 H 0.97713 0.227 0.27997 0.0
H994 H 0.93376 0.30604 0.29189 0.0
H995 H 0.96422 0.32798 0.25705 0.0
C996 C 0.92107 0.26039 0.36241 0.0
C997 C 0.91206 0.23226 0.36376 0.0
C998 C 0.93451 0.2707 0.33845 0.0
C999 C 0.93903 0.25334 0.31488 0.0
C1000 C 0.93041 0.22501 0.31635 0.0
C1001 C 0.91715 0.21455 0.34057 0.0
C1002 C 0.99016 0.26123 0.25373 0.0
C1003 C 0.98781 0.29013 0.24789 0.0
C1004 C 0.9733 0.24876 0.27447 0.0
C1005 C 0.95352 0.26491 0.28949 0.0
C1006 C 0.94942 0.29316 0.28153 0.0
C1007 C 0.96658 0.30569 0.26125 0.0
H1008 H 0.10576 0.14307 0.32801 0.0
H1009 H 0.18888 0.15354 0.29359 0.0
H1010 H 0.09516 0.19231 0.31765 0.0
H1011 H 0.17974 0.20314 0.28557 0.0
H1012 H 0.13954 0.27478 0.23599 0.0
H1013 H 0.15704 0.23146 0.2554 0.0
H1014 H 0.10001 0.24003 0.32593 0.0
H1015 H 0.08111 0.28306 0.30478 0.0
C1016 C 0.12172 0.15607 0.31823 0.0
C1017 C 0.14772 0.1445 0.3106 0.0
C1018 C 0.11596 0.18446 0.3128 0.0
C1019 C 0.1365 0.20204 0.30054 0.0
C1020 C 0.16296 0.19035 0.29413 0.0
C1021 C 0.16829 0.16185 0.29864 0.0
C1022 C 0.13147 0.26793 0.25619 0.0
C1023 C 0.1089 0.28211 0.2688 0.0
C1024 C 0.14153 0.2429 0.26748 0.0
C1025 C 0.1296 0.23155 0.29208 0.0
C1026 C 0.10913 0.24757 0.30647 0.0
C1027 C 0.09872 0.27262 0.29481 0.0
H1028 H 0.3553 0.83611 0.85886 0.0
H1029 H 0.34533 0.85698 0.77082 0.0
H1030 H 0.36633 0.78766 0.8461 0.0
H1031 H 0.35689 0.8088 0.75819 0.0
H1032 H 0.35346 0.71891 0.74022 0.0
H1033 H 0.33595 0.76232 0.76118 0.0
H1034 H 0.40278 0.75945 0.8228 0.0
H1035 H 0.41967 0.71538 0.80215 0.0
C1036 C 0.35576 0.8305 0.83676 0.0
C1037 C 0.34935 0.85053 0.81584 0.0
C1038 C 0.36204 0.80268 0.82951 0.0
C1039 C 0.362 0.79424 0.8012 0.0
C1040 C 0.35636 0.81443 0.78028 0.0
C1041 C 0.35007 0.84219 0.78749 0.0
C1042 C 0.36355 0.72693 0.75905 0.0
C1043 C 0.38775 0.71387 0.76974 0.0
C1044 C 0.35388 0.75202 0.77075 0.0
C1045 C 0.36852 0.76476 0.79308 0.0
C1046 C 0.39109 0.75019 0.80556 0.0
C1047 C 0.40062 0.72483 0.79395 0.0
H1048 H 0.60635 0.34948 0.66406 0.0
H1049 H 0.69 0.33925 0.69743 0.0
H1050 H 0.59574 0.30039 0.67528 0.0
H1051 H 0.68075 0.28975 0.70627 0.0
H1052 H 0.64001 0.2215 0.76018 0.0
H1053 H 0.65781 0.26361 0.73846 0.0
H1054 H 0.60015 0.25208 0.6688 0.0
H1055 H 0.58101 0.21027 0.69212 0.0
C1056 C 0.62248 0.33651 0.67358 0.0
C1057 C 0.64859 0.34812 0.6808 0.0
C1058 C 0.61667 0.30823 0.67958 0.0
C1059 C 0.63726 0.29085 0.69204 0.0
C1060 C 0.66397 0.30246 0.69762 0.0
C1061 C 0.66936 0.33085 0.69257 0.0
C1062 C 0.63177 0.22745 0.73974 0.0
C1063 C 0.60897 0.21285 0.72797 0.0
C1064 C 0.64205 0.25173 0.72709 0.0
C1065 C 0.63011 0.26189 0.70197 0.0
C1066 C 0.60933 0.24542 0.68855 0.0
C1067 C 0.59874 0.2211 0.70153 0.0
H1068 H 0.80388 0.65395 0.20018 0.0
H1069 H 0.88631 0.64484 0.16361 0.0
H1070 H 0.81323 0.70326 0.20975 0.0
H1071 H 0.89708 0.69375 0.1755 0.0
H1072 H 0.91123 0.78406 0.19289 0.0
H1073 H 0.89187 0.74216 0.16986 0.0
H1074 H 0.83735 0.72888 0.24161 0.0
H1075 H 0.85523 0.77109 0.2631 0.0
C1076 C 0.82432 0.66252 0.1948 0.0
C1077 C 0.84469 0.6456 0.18189 0.0
C1078 C 0.82975 0.69082 0.20025 0.0
C1079 C 0.85615 0.70268 0.19392 0.0
C1080 C 0.87637 0.68568 0.18039 0.0
C1081 C 0.87048 0.6575 0.17401 0.0
C1082 C 0.89416 0.77278 0.20292 0.0
C1083 C 0.88486 0.78058 0.22983 0.0
C1084 C 0.88345 0.74843 0.19006 0.0
C1085 C 0.86346 0.73151 0.20407 0.0
C1086 C 0.85246 0.74114 0.22981 0.0
C1087 C 0.86284 0.76545 0.24234 0.0
H1088 H 0.23172 0.13723 0.26849 0.0
H1089 H 0.30389 0.08394 0.2816 0.0
H1090 H 0.25254 0.15604 0.22641 0.0
H1091 H 0.32619 0.10415 0.23967 0.0
H1092 H 0.33227 0.1105 0.14236 0.0
H1093 H 0.32047 0.09886 0.19107 0.0
H1094 H 0.2838 0.18163 0.20134 0.0
H1095 H 0.29346 0.19183 0.15225 0.0
C1096 C 0.25277 0.1305 0.26293 0.0
C1097 C 0.26612 0.10902 0.2781 0.0
C1098 C 0.26489 0.14138 0.23868 0.0
C1099 C 0.291 0.13136 0.22909 0.0
C1100 C 0.30572 0.11184 0.24597 0.0
C1101 C 0.29329 0.10066 0.27032 0.0
C1102 C 0.32131 0.12588 0.15512 0.0
C1103 C 0.31284 0.15162 0.14347 0.0
C1104 C 0.31499 0.11951 0.18318 0.0
C1105 C 0.30089 0.13918 0.20034 0.0
C1106 C 0.2938 0.16551 0.18874 0.0
C1107 C 0.29925 0.17142 0.16055 0.0
H1108 H 0.19723 0.92498 0.77981 0.0
H1109 H 0.252 0.85266 0.77917 0.0
H1110 H 0.17642 0.90954 0.73525 0.0
H1111 H 0.23092 0.83684 0.73516 0.0
H1112 H 0.22616 0.84663 0.64017 0.0
H1113 H 0.23798 0.85806 0.6886 0.0
H1114 H 0.15042 0.87398 0.70665 0.0
H1115 H 0.13846 0.86288 0.65791 0.0
C1116 C 0.20375 0.90504 0.77088 0.0
C1117 C 0.22618 0.88998 0.7828 0.0
C1118 C 0.19206 0.89633 0.74523 0.0
C1119 C 0.20265 0.87242 0.73132 0.0
C1120 C 0.2229 0.85578 0.74498 0.0
C1121 C 0.23465 0.86456 0.77038 0.0
C1122 C 0.20939 0.8528 0.6543 0.0
C1123 C 0.18135 0.85374 0.64505 0.0
C1124 C 0.21613 0.85902 0.68221 0.0
C1125 C 0.19503 0.86635 0.70161 0.0
C1126 C 0.1671 0.86828 0.69222 0.0
C1127 C 0.16031 0.86195 0.66426 0.0
H1128 H 0.74344 0.35278 0.71728 0.0
H1129 H 0.79731 0.42576 0.72036 0.0
H1130 H 0.7649 0.3349 0.76029 0.0
H1131 H 0.81835 0.40841 0.76404 0.0
H1132 H 0.85671 0.36086 0.83938 0.0
H1133 H 0.84467 0.37301 0.79102 0.0
H1134 H 0.75772 0.35265 0.80771 0.0
H1135 H 0.76969 0.33997 0.85577 0.0
C1136 C 0.76069 0.3644 0.72665 0.0
C1137 C 0.76887 0.39052 0.71562 0.0
C1138 C 0.77264 0.35445 0.75151 0.0
C1139 C 0.79268 0.37068 0.76601 0.0
C1140 C 0.80291 0.39545 0.75339 0.0
C1141 C 0.79109 0.40528 0.72825 0.0
C1142 C 0.83497 0.35912 0.83282 0.0
C1143 C 0.81415 0.34937 0.85154 0.0
C1144 C 0.82813 0.36606 0.80505 0.0
C1145 C 0.80038 0.36332 0.79538 0.0
C1146 C 0.77948 0.35426 0.81428 0.0
C1147 C 0.78628 0.34733 0.84199 0.0
H1148 H 0.69374 0.57158 0.21576 0.0
H1149 H 0.75114 0.64184 0.21672 0.0
H1150 H 0.6729 0.58808 0.2599 0.0
H1151 H 0.73001 0.65884 0.26025 0.0
H1152 H 0.72367 0.64992 0.35531 0.0
H1153 H 0.73564 0.63827 0.30699 0.0
H1154 H 0.64791 0.62407 0.28812 0.0
H1155 H 0.6358 0.63532 0.33675 0.0
C1156 C 0.7008 0.59138 0.22463 0.0
C1157 C 0.72387 0.60558 0.21291 0.0
C1158 C 0.68911 0.60069 0.25005 0.0
C1159 C 0.70038 0.62432 0.26395 0.0
C1160 C 0.7214 0.64013 0.25045 0.0
C1161 C 0.73316 0.63073 0.22528 0.0
C1162 C 0.70689 0.6441 0.34101 0.0
C1163 C 0.67877 0.64362 0.35003 0.0
C1164 C 0.71372 0.63777 0.31316 0.0
C1165 C 0.69263 0.6308 0.29355 0.0
C1166 C 0.6646 0.62945 0.30269 0.0
C1167 C 0.65772 0.63586 0.3306 0.0
H1168 H 0.27193 0.23578 0.13598 0.0
H1169 H 0.28563 0.30883 0.08405 0.0
H1170 H 0.22959 0.25622 0.15455 0.0
H1171 H 0.24338 0.33076 0.10399 0.0
H1172 H 0.14588 0.33658 0.10936 0.0
H1173 H 0.19485 0.32542 0.09825 0.0
H1174 H 0.20407 0.28688 0.1803 0.0
H1175 H 0.15478 0.29586 0.1899 0.0
C1176 C 0.26646 0.25695 0.12958 0.0
C1177 C 0.28195 0.27069 0.10859 0.0
C1178 C 0.24203 0.26886 0.14028 0.0
C1179 C 0.23251 0.29514 0.13056 0.0
C1180 C 0.24962 0.31018 0.11149 0.0
C1181 C 0.27416 0.29797 0.10048 0.0
C1182 C 0.15849 0.32542 0.12472 0.0
C1183 C 0.14648 0.31618 0.15003 0.0
C1184 C 0.1867 0.31943 0.11864 0.0
C1185 C 0.20364 0.30489 0.13821 0.0
C1186 C 0.19169 0.29719 0.16422 0.0
C1187 C 0.16337 0.3023 0.1698 0.0
H1188 H 0.77954 0.25363 0.85254 0.0
H1189 H 0.78013 0.19477 0.92157 0.0
H1190 H 0.73606 0.23288 0.83494 0.0
H1191 H 0.73598 0.17444 0.90461 0.0
H1192 H 0.65872 0.13864 0.85835 0.0
H1193 H 0.70748 0.15032 0.8691 0.0
H1194 H 0.68947 0.23824 0.85465 0.0
H1195 H 0.64101 0.22663 0.84334 0.0
C1196 C 0.77088 0.23545 0.86326 0.0
C1197 C 0.78312 0.22562 0.88825 0.0
C1198 C 0.74574 0.2239 0.85352 0.0
C1199 C 0.73212 0.20262 0.86889 0.0
C1200 C 0.7459 0.19086 0.89232 0.0
C1201 C 0.77133 0.20227 0.90191 0.0
C1202 C 0.66508 0.16051 0.85763 0.0
C1203 C 0.64585 0.18172 0.84994 0.0
C1204 C 0.69309 0.16715 0.86375 0.0
C1205 C 0.7025 0.19512 0.86226 0.0
C1206 C 0.68311 0.21636 0.85524 0.0
C1207 C 0.65517 0.20975 0.84911 0.0
H1208 H 0.71754 0.74102 0.35232 0.0
H1209 H 0.71725 0.79601 0.4246 0.0
H1210 H 0.76128 0.76228 0.33616 0.0
H1211 H 0.76156 0.81694 0.40888 0.0
H1212 H 0.8376 0.85579 0.36195 0.0
H1213 H 0.78927 0.84312 0.37348 0.0
H1214 H 0.80814 0.75588 0.35632 0.0
H1215 H 0.85621 0.76844 0.34431 0.0
C1216 C 0.72639 0.7584 0.36418 0.0
C1217 C 0.71415 0.76692 0.38966 0.0
C1218 C 0.75163 0.77026 0.35521 0.0
C1219 C 0.76528 0.79064 0.37172 0.0
C1220 C 0.75158 0.80119 0.39576 0.0
C1221 C 0.72608 0.78943 0.40464 0.0
C1222 C 0.83153 0.83385 0.36082 0.0
C1223 C 0.85085 0.81313 0.35208 0.0
C1224 C 0.8038 0.82666 0.36741 0.0
C1225 C 0.79475 0.79862 0.3653 0.0
C1226 C 0.81427 0.77781 0.35743 0.0
C1227 C 0.84197 0.78496 0.35089 0.0
H1228 H 0.33972 0.6413 0.63433 0.0
H1229 H 0.35768 0.72813 0.6551 0.0
H1230 H 0.29167 0.65416 0.62198 0.0
H1231 H 0.30992 0.74092 0.64219 0.0
H1232 H 0.21929 0.75586 0.64314 0.0
H1233 H 0.2626 0.73445 0.66021 0.0
H1234 H 0.26476 0.68074 0.58681 0.0
H1235 H 0.2208 0.70173 0.57023 0.0
C1236 C 0.33358 0.66319 0.63597 0.0
C1237 C 0.35263 0.68369 0.64581 0.0
C1238 C 0.30599 0.67049 0.6289 0.0
C1239 C 0.29683 0.69843 0.63157 0.0
C1240 C 0.31609 0.71904 0.64062 0.0
C1241 C 0.34363 0.71177 0.64769 0.0
C1242 C 0.22846 0.73866 0.63129 0.0
C1243 C 0.21683 0.73037 0.60544 0.0
C1244 C 0.25347 0.72672 0.6408 0.0
C1245 C 0.26755 0.70654 0.62441 0.0
C1246 C 0.25445 0.6963 0.59987 0.0
C1247 C 0.22916 0.70811 0.59048 0.0
H1248 H 0.88277 0.84831 0.65879 0.0
H1249 H 0.80398 0.84151 0.7031 0.0
H1250 H 0.89355 0.79936 0.67029 0.0
H1251 H 0.81318 0.79215 0.7125 0.0
H1252 H 0.85929 0.7249 0.76303 0.0
H1253 H 0.84001 0.76686 0.74248 0.0
H1254 H 0.88672 0.75087 0.66592 0.0
H1255 H 0.90743 0.70898 0.68788 0.0
C1256 C 0.86773 0.83616 0.67084 0.0
C1257 C 0.84305 0.84875 0.68093 0.0
C1258 C 0.87358 0.80796 0.67701 0.0
C1259 C 0.85438 0.79159 0.69263 0.0
C1260 C 0.82897 0.80411 0.70128 0.0
C1261 C 0.82364 0.83245 0.69596 0.0
C1262 C 0.86467 0.72979 0.74144 0.0
C1263 C 0.88489 0.71385 0.72709 0.0
C1264 C 0.85354 0.75399 0.72947 0.0
C1265 C 0.86206 0.7628 0.70254 0.0
C1266 C 0.88021 0.74517 0.68698 0.0
C1267 C 0.89165 0.72085 0.69925 0.0
H1268 H 0.65248 0.14107 0.22703 0.0
H1269 H 0.63202 0.15672 0.13971 0.0
H1270 H 0.64082 0.1896 0.23832 0.0
H1271 H 0.62096 0.20546 0.15103 0.0
H1272 H 0.57019 0.27831 0.19678 0.0
H1273 H 0.58644 0.23383 0.17664 0.0
H1274 H 0.65963 0.23652 0.23055 0.0
H1275 H 0.64282 0.28042 0.25109 0.0
C1276 C 0.64537 0.15476 0.21026 0.0
C1277 C 0.64322 0.14488 0.18248 0.0
C1278 C 0.63906 0.18274 0.21665 0.0
C1279 C 0.63049 0.20156 0.19544 0.0
C1280 C 0.62755 0.19153 0.16782 0.0
C1281 C 0.63386 0.16353 0.16139 0.0
C1282 C 0.59043 0.27004 0.20321 0.0
C1283 C 0.6054 0.28272 0.22529 0.0
C1284 C 0.59961 0.24441 0.19194 0.0
C1285 C 0.62391 0.23127 0.20262 0.0
C1286 C 0.64041 0.24572 0.22247 0.0
C1287 C 0.63113 0.27111 0.23384 0.0
H1288 H 0.42197 0.77842 0.29915 0.0
H1289 H 0.35279 0.77577 0.24047 0.0
H1290 H 0.40537 0.73464 0.32066 0.0
H1291 H 0.33562 0.73269 0.26233 0.0
H1292 H 0.34448 0.63808 0.27087 0.0
H1293 H 0.35633 0.68608 0.25806 0.0
H1294 H 0.36923 0.7068 0.34566 0.0
H1295 H 0.35781 0.65842 0.35862 0.0
C1296 C 0.40242 0.76922 0.29185 0.0
C1297 C 0.38861 0.78028 0.26822 0.0
C1298 C 0.39303 0.74405 0.30397 0.0
C1299 C 0.36965 0.72982 0.29262 0.0
C1300 C 0.35417 0.74273 0.27099 0.0
C1301 C 0.36369 0.7676 0.25876 0.0
C1302 C 0.35003 0.65272 0.28745 0.0
C1303 C 0.35012 0.6443 0.31578 0.0
C1304 C 0.35649 0.68039 0.28013 0.0
C1305 C 0.36314 0.70041 0.30092 0.0
C1306 C 0.36411 0.69188 0.32919 0.0
C1307 C 0.35762 0.66412 0.33655 0.0
H1308 H 0.14362 0.21593 0.74468 0.0
H1309 H 0.06962 0.21716 0.79713 0.0
H1310 H 0.15944 0.25998 0.76569 0.0
H1311 H 0.08505 0.26177 0.81781 0.0
H1312 H 0.13114 0.3391 0.85608 0.0
H1313 H 0.11992 0.29031 0.84451 0.0
H1314 H 0.13933 0.30668 0.75726 0.0
H1315 H 0.15092 0.35515 0.7687 0.0
C1316 C 0.13132 0.22514 0.76152 0.0
C1317 C 0.10546 0.21325 0.76934 0.0
C1318 C 0.14011 0.25057 0.77323 0.0
C1319 C 0.12304 0.26476 0.79274 0.0
C1320 C 0.09861 0.25138 0.80274 0.0
C1321 C 0.08989 0.2257 0.79113 0.0
C1322 C 0.13282 0.33237 0.83437 0.0
C1323 C 0.14205 0.35112 0.81332 0.0
C1324 C 0.12643 0.30438 0.8278 0.0
C1325 C 0.12927 0.2945 0.80011 0.0
C1326 C 0.13765 0.31345 0.77897 0.0
C1327 C 0.14395 0.34139 0.78547 0.0
H1328 H 0.7258 0.84358 0.85483 0.0
H1329 H 0.63821 0.86283 0.83965 0.0
H1330 H 0.7366 0.8552 0.8062 0.0
H1331 H 0.64907 0.87394 0.79076 0.0
H1332 H 0.69409 0.92497 0.71733 0.0
H1333 H 0.67431 0.90877 0.76201 0.0
H1334 H 0.72859 0.83592 0.7594 0.0
H1335 H 0.74872 0.85265 0.71529 0.0
C1336 C 0.70885 0.85043 0.84122 0.0
C1337 C 0.68114 0.85224 0.85127 0.0
C1338 C 0.71497 0.85672 0.81318 0.0
C1339 C 0.69357 0.86496 0.79443 0.0
C1340 C 0.666 0.86759 0.80463 0.0
C1341 C 0.65984 0.86125 0.8327 0.0
C1342 C 0.70067 0.9048 0.72566 0.0
C1343 C 0.72273 0.88991 0.71291 0.0
C1344 C 0.68962 0.89566 0.75141 0.0
C1345 C 0.7005 0.87148 0.76463 0.0
C1346 C 0.72035 0.85504 0.75014 0.0
C1347 C 0.73148 0.86428 0.72463 0.0
H1348 H 0.79696 0.07512 0.21924 0.0
H1349 H 0.73771 0.14378 0.22038 0.0
H1350 H 0.81727 0.09194 0.26344 0.0
H1351 H 0.75846 0.16128 0.26392 0.0
H1352 H 0.76714 0.15456 0.35901 0.0
H1353 H 0.75425 0.14256 0.31091 0.0
H1354 H 0.84157 0.12725 0.29102 0.0
H1355 H 0.85445 0.13844 0.33926 0.0
C1356 C 0.78931 0.09463 0.22822 0.0
C1357 C 0.76588 0.10823 0.21657 0.0
C1358 C 0.80072 0.10415 0.25367 0.0
C1359 C 0.78891 0.1275 0.26759 0.0
C1360 C 0.76745 0.14275 0.25417 0.0
C1361 C 0.7559 0.13307 0.229 0.0
C1362 C 0.78357 0.14839 0.34449 0.0
C1363 C 0.8118 0.14744 0.35312 0.0
C1364 C 0.77625 0.14187 0.31678 0.0
C1365 C 0.79698 0.13441 0.29698 0.0
C1366 C 0.82511 0.13287 0.30574 0.0
C1367 C 0.83244 0.13928 0.33347 0.0
H1368 H 0.13803 0.63631 0.15908 0.0
H1369 H 0.22581 0.65063 0.14003 0.0
H1370 H 0.15046 0.62499 0.20763 0.0
H1371 H 0.2381 0.63888 0.18823 0.0
H1372 H 0.25431 0.64243 0.27846 0.0
H1373 H 0.2332 0.65927 0.23487 0.0
H1374 H 0.17524 0.58921 0.23596 0.0
H1375 H 0.19602 0.5729 0.2802 0.0
C1376 C 0.16 0.63675 0.1651 0.0
C1377 C 0.18092 0.64448 0.14557 0.0
C1378 C 0.16707 0.63031 0.19297 0.0
C1379 C 0.19518 0.63155 0.20194 0.0
C1380 C 0.21613 0.63848 0.18222 0.0
C1381 C 0.20911 0.64488 0.15443 0.0
C1382 C 0.23623 0.63139 0.27 0.0
C1383 C 0.22667 0.60649 0.28264 0.0
C1384 C 0.22445 0.64071 0.2448 0.0
C1385 C 0.20314 0.62507 0.23151 0.0
C1386 C 0.19168 0.60168 0.24563 0.0
C1387 C 0.20336 0.59248 0.2711 0.0
H1388 H 0.23048 0.35693 0.76924 0.0
H1389 H 0.30079 0.41295 0.78198 0.0
H1390 H 0.25217 0.33833 0.7275 0.0
H1391 H 0.32403 0.39285 0.74058 0.0
H1392 H 0.33118 0.38547 0.64348 0.0
H1393 H 0.31883 0.39719 0.69202 0.0
H1394 H 0.28416 0.31358 0.70272 0.0
H1395 H 0.29423 0.30325 0.65371 0.0
C1396 C 0.25128 0.36443 0.76364 0.0
C1397 C 0.26378 0.38664 0.77857 0.0
C1398 C 0.26394 0.35361 0.73962 0.0
C1399 C 0.28979 0.36435 0.73008 0.0
C1400 C 0.30374 0.3846 0.74679 0.0
C1401 C 0.29076 0.39575 0.77085 0.0
C1402 C 0.32059 0.36989 0.65632 0.0
C1403 C 0.31277 0.34387 0.64481 0.0
C1404 C 0.31395 0.37633 0.68429 0.0
C1405 C 0.30017 0.35646 0.7015 0.0
C1406 C 0.29385 0.32984 0.69007 0.0
C1407 C 0.29959 0.32384 0.66195 0.0
H1408 H 0.85404 0.66761 0.88812 0.0
H1409 H 0.84264 0.70117 0.80468 0.0
H1410 H 0.8053 0.67935 0.89958 0.0
H1411 H 0.79356 0.71075 0.81483 0.0
H1412 H 0.72514 0.76355 0.8564 0.0
H1413 H 0.76771 0.7428 0.83859 0.0
H1414 H 0.75695 0.67208 0.89501 0.0
H1415 H 0.71466 0.69438 0.91422 0.0
C1416 C 0.84095 0.67746 0.87227 0.0
C1417 C 0.85215 0.68451 0.84592 0.0
C1418 C 0.81287 0.68371 0.87855 0.0
C1419 C 0.79527 0.69627 0.85822 0.0
C1420 C 0.80648 0.70198 0.8314 0.0
C1421 C 0.83467 0.69661 0.82552 0.0
C1422 C 0.7314 0.74313 0.86442 0.0
C1423 C 0.71684 0.73072 0.88689 0.0
C1424 C 0.75592 0.73105 0.85411 0.0
C1425 C 0.76634 0.70588 0.86566 0.0
C1426 C 0.75004 0.69189 0.88616 0.0
C1427 C 0.72547 0.70429 0.89678 0.0
H1428 H 0.2165 0.74205 0.14399 0.0
H1429 H 0.21716 0.79726 0.07199 0.0
H1430 H 0.26039 0.76279 0.16055 0.0
H1431 H 0.26165 0.81758 0.08799 0.0
H1432 H 0.33868 0.85499 0.13357 0.0
H1433 H 0.29007 0.84312 0.12252 0.0
H1434 H 0.30716 0.75589 0.14146 0.0
H1435 H 0.35553 0.76772 0.15313 0.0
C1436 C 0.22554 0.75945 0.13234 0.0
C1437 C 0.21351 0.7682 0.10684 0.0
C1438 C 0.25091 0.77096 0.1415 0.0
C1439 C 0.26495 0.79117 0.12511 0.0
C1440 C 0.25141 0.80198 0.10106 0.0
C1441 C 0.22578 0.79059 0.09202 0.0
C1442 C 0.33217 0.83321 0.13521 0.0
C1443 C 0.35111 0.8123 0.14433 0.0
C1444 C 0.30425 0.82647 0.12889 0.0
C1445 C 0.29459 0.79868 0.13159 0.0
C1446 C 0.31372 0.77766 0.1399 0.0
C1447 C 0.34161 0.78438 0.14623 0.0
H1448 H 0.27971 0.25076 0.64169 0.0
H1449 H 0.27951 0.19214 0.57244 0.0
H1450 H 0.23639 0.22999 0.65962 0.0
H1451 H 0.23558 0.17164 0.58984 0.0
H1452 H 0.15921 0.1355 0.63803 0.0
H1453 H 0.2078 0.14729 0.62648 0.0
H1454 H 0.18945 0.23533 0.63965 0.0
H1455 H 0.14117 0.22367 0.6516 0.0
C1456 C 0.27094 0.2326 0.63102 0.0
C1457 C 0.28293 0.22281 0.6059 0.0
C1458 C 0.2459 0.22103 0.64095 0.0
C1459 C 0.23214 0.19974 0.62568 0.0
C1460 C 0.24565 0.18805 0.60206 0.0
C1461 C 0.27094 0.19955 0.59222 0.0
C1462 C 0.16547 0.15742 0.6383 0.0
C1463 C 0.14619 0.17865 0.6458 0.0
C1464 C 0.19336 0.16411 0.63172 0.0
C1465 C 0.20263 0.19216 0.63263 0.0
C1466 C 0.18319 0.21341 0.63947 0.0
C1467 C 0.15535 0.20676 0.64598 0.0
H1468 H 0.6556 0.29505 0.30562 0.0
H1469 H 0.64744 0.33502 0.38666 0.0
H1470 H 0.70495 0.28581 0.31485 0.0
H1471 H 0.69639 0.32355 0.39739 0.0
H1472 H 0.78665 0.3063 0.41169 0.0
H1473 H 0.7447 0.32871 0.39177 0.0
H1474 H 0.73095 0.25507 0.33979 0.0
H1475 H 0.77317 0.23418 0.35825 0.0
C1476 C 0.66438 0.30129 0.32574 0.0
C1477 C 0.64769 0.31506 0.34575 0.0
C1478 C 0.69272 0.29601 0.33112 0.0
C1479 C 0.70488 0.30341 0.35714 0.0
C1480 C 0.68812 0.3178 0.37696 0.0
C1481 C 0.65991 0.32397 0.3711 0.0
C1482 C 0.77528 0.29574 0.39498 0.0
C1483 C 0.78298 0.26853 0.38654 0.0
C1484 C 0.75088 0.30822 0.38398 0.0
C1485 C 0.73379 0.29353 0.36458 0.0
C1486 C 0.74332 0.26742 0.35439 0.0
C1487 C 0.76767 0.25525 0.36506 0.0
H1488 H 0.01786 0.2766 0.11483 0.0
H1489 H 0.00943 0.36605 0.10079 0.0
H1490 H 0.98777 0.26725 0.07456 0.0
H1491 H 0.97841 0.35671 0.06101 0.0
H1492 H 0.90883 0.26155 0.01917 0.0
H1493 H 0.9405 0.26966 0.05881 0.0
H1494 H 0.97822 0.33946 0.01432 0.0
H1495 H 0.94601 0.33199 0.97536 0.0
C1496 C 0.00941 0.29432 0.10327 0.0
C1497 C 0.01612 0.32211 0.11106 0.0
C1498 C 0.99198 0.28893 0.08021 0.0
C1499 C 0.98056 0.31118 0.06445 0.0
C1500 C 0.9872 0.339 0.07232 0.0
C1501 C 0.00489 0.3444 0.09524 0.0
C1502 C 0.92408 0.27844 0.01779 0.0
C1503 C 0.92477 0.2962 0.99418 0.0
C1504 C 0.9423 0.2831 0.0405 0.0
C1505 C 0.96181 0.30543 0.03995 0.0
C1506 C 0.96305 0.32253 0.01586 0.0
C1507 C 0.94469 0.31807 0.99337 0.0
H1508 H 0.58723 0.73255 0.51839 0.0
H1509 H 0.54933 0.66152 0.47617 0.0
H1510 H 0.55659 0.7248 0.55883 0.0
H1511 H 0.51791 0.65448 0.51584 0.0
H1512 H 0.48742 0.62878 0.60248 0.0
H1513 H 0.51783 0.63767 0.56219 0.0
H1514 H 0.51061 0.72725 0.57653 0.0
H1515 H 0.48134 0.71826 0.6174 0.0
C1516 C 0.57195 0.71565 0.51752 0.0
C1517 C 0.5708 0.6976 0.49414 0.0
C1518 C 0.55432 0.71118 0.5407 0.0
C1519 C 0.53484 0.68879 0.54085 0.0
C1520 C 0.53307 0.67145 0.51692 0.0
C1521 C 0.55094 0.67566 0.49399 0.0
C1522 C 0.49238 0.65035 0.59703 0.0
C1523 C 0.48198 0.67276 0.61324 0.0
C1524 C 0.50969 0.65552 0.57378 0.0
C1525 C 0.51669 0.68325 0.56589 0.0
C1526 C 0.50616 0.70562 0.58213 0.0
C1527 C 0.48919 0.70044 0.60556 0.0
H1528 H 0.40712 0.23599 0.97615 0.0
H1529 H 0.44789 0.16949 0.02276 0.0
H1530 H 0.4388 0.2276 0.93663 0.0
H1531 H 0.48015 0.16182 0.98391 0.0
H1532 H 0.51179 0.13258 0.89847 0.0
H1533 H 0.48095 0.14237 0.93824 0.0
H1534 H 0.48541 0.23135 0.91984 0.0
H1535 H 0.51526 0.22146 0.87958 0.0
C1536 C 0.42318 0.21996 0.97816 0.0
C1537 C 0.42486 0.20333 0.00253 0.0
C1538 C 0.44141 0.21513 0.95551 0.0
C1539 C 0.46194 0.19378 0.95687 0.0
C1540 C 0.4642 0.17792 0.98173 0.0
C1541 C 0.44582 0.18251 0.00416 0.0
C1542 C 0.50621 0.15422 0.90295 0.0
C1543 C 0.51598 0.17618 0.88577 0.0
C1544 C 0.48862 0.1599 0.92588 0.0
C1545 C 0.48065 0.18772 0.9324 0.0
C1546 C 0.49064 0.20966 0.91527 0.0
C1547 C 0.50794 0.20396 0.89221 0.0
H1548 H 0.05102 0.83461 0.52 0.0
H1549 H 0.08942 0.76465 0.4766 0.0
H1550 H 0.01843 0.84102 0.48114 0.0
H1551 H 0.05763 0.77182 0.43693 0.0
H1552 H 0.98125 0.77664 0.37984 0.0
H1553 H 0.01144 0.76824 0.42023 0.0
H1554 H 0.01651 0.85792 0.43499 0.0
H1555 H 0.98515 0.86615 0.39527 0.0
C1556 C 0.05251 0.8206 0.50207 0.0
C1557 C 0.07282 0.79913 0.50137 0.0
C1558 C 0.03396 0.82444 0.47961 0.0
C1559 C 0.03549 0.80721 0.45559 0.0
C1560 C 0.0555 0.78532 0.45515 0.0
C1561 C 0.07381 0.7812 0.47788 0.0
C1562 C 0.9888 0.79459 0.39172 0.0
C1563 C 0.98074 0.8221 0.38433 0.0
C1564 C 0.0063 0.78976 0.41485 0.0
C1565 C 0.01656 0.81234 0.43103 0.0
C1566 C 0.00862 0.8399 0.42346 0.0
C1567 C 0.99076 0.8447 0.40054 0.0
H1568 H 0.08594 0.03028 0.35536 0.0
H1569 H 0.12833 0.99351 0.28382 0.0
H1570 H 0.04517 0.00061 0.34624 0.0
H1571 H 0.08803 0.96311 0.27533 0.0
H1572 H 0.00106 0.92815 0.25328 0.0
H1573 H 0.04016 0.96111 0.25984 0.0
H1574 H 0.03159 0.95316 0.35005 0.0
H1575 H 0.99246 0.92148 0.34362 0.0
C1576 C 0.08668 0.01568 0.33786 0.0
C1577 C 0.11047 0.01424 0.32043 0.0
C1578 C 0.06331 -0.00142 0.33262 0.0
C1579 C 0.06327 0.97932 0.31006 0.0
C1580 C 0.08707 0.97796 0.2926 0.0
C1581 C 0.11031 0.99527 0.29765 0.0
C1582 C 0.00747 0.93364 0.27445 0.0
C1583 C 0.9934 0.92229 0.29784 0.0
C1584 C 0.02997 0.9524 0.27826 0.0
C1585 C 0.03898 0.95999 0.30552 0.0
C1586 C 0.02491 0.94845 0.32876 0.0
C1587 C 0.00244 0.93003 0.325 0.0
H1588 H 0.50205 0.07362 0.84596 0.0
H1589 H 0.49 0.06989 0.75585 0.0
H1590 H 0.46301 0.04168 0.8527 0.0
H1591 H 0.45116 0.03682 0.76263 0.0
H1592 H 0.36421 0.00295 0.78761 0.0
H1593 H 0.40396 0.03408 0.77937 0.0
H1594 H 0.44905 0.99434 0.84763 0.0
H1595 H 0.40885 0.96387 0.85652 0.0
C1596 C 0.4913 0.06571 0.82748 0.0
C1597 C 0.49933 0.07433 0.8003 0.0
C1598 C 0.4689 0.04716 0.83138 0.0
C1599 C 0.45394 0.0364 0.80825 0.0
C1600 C 0.46198 0.04491 0.78099 0.0
C1601 C 0.48436 0.06375 0.77706 0.0
C1602 C 0.38259 0.00082 0.80089 0.0
C1603 C 0.38322 0.98094 0.82285 0.0
C1604 C 0.40554 0.01858 0.796 0.0
C1605 C 0.42982 0.01682 0.8128 0.0
C1606 C 0.43055 0.9967 0.83456 0.0
C1607 C 0.4075 0.9791 0.83961 0.0
H1608 H 0.59785 0.48414 0.6324 0.0
H1609 H 0.61294 0.47741 0.72183 0.0
H1610 H 0.55816 0.51518 0.64151 0.0
H1611 H 0.57265 0.50751 0.73102 0.0
H1612 H 0.51745 0.58676 0.73555 0.0
H1613 H 0.55672 0.55458 0.72803 0.0
H1614 H 0.5118 0.516 0.65889 0.0
H1615 H 0.47325 0.54878 0.66574 0.0
C1616 C 0.59252 0.48903 0.65401 0.0
C1617 C 0.60864 0.47829 0.67634 0.0
C1618 C 0.56963 0.50673 0.6593 0.0
C1619 C 0.56204 0.51387 0.68706 0.0
C1620 C 0.57807 0.5029 0.70937 0.0
C1621 C 0.60113 0.48547 0.70408 0.0
C1622 C 0.5159 0.57121 0.71894 0.0
C1623 C 0.49231 0.57047 0.70115 0.0
C1624 C 0.5384 0.55269 0.71463 0.0
C1625 C 0.53764 0.53279 0.69263 0.0
C1626 C 0.51352 0.53145 0.67556 0.0
C1627 C 0.49126 0.55014 0.67965 0.0
H1628 H 0.97473 0.40571 0.23366 0.0
H1629 H 0.01939 0.44523 0.1651 0.0
H1630 H 0.93508 0.43742 0.22591 0.0
H1631 H 0.98045 0.47747 0.15804 0.0
H1632 H 0.89491 0.50973 0.13096 0.0
H1633 H 0.93432 0.47836 0.14006 0.0
H1634 H 0.91858 0.48433 0.22946 0.0
H1635 H 0.87856 0.51483 0.22026 0.0
C1636 C 0.97628 0.42145 0.21725 0.0
C1637 C 0.00018 0.42279 0.19991 0.0
C1638 C 0.95356 0.43971 0.21281 0.0
C1639 C 0.95434 0.45993 0.19112 0.0
C1640 C 0.97869 0.46177 0.17445 0.0
C1641 C 0.00119 0.44337 0.17867 0.0
C1642 C 0.89987 0.50439 0.15256 0.0
C1643 C 0.8835 0.51486 0.17484 0.0
C1644 C 0.92262 0.48648 0.15783 0.0
C1645 C 0.92984 0.47881 0.18556 0.0
C1646 C 0.91348 0.48937 0.20783 0.0
C1647 C 0.89057 0.50705 0.20253 0.0
H1648 H 0.27812 0.11724 0.01592 0.0
H1649 H 0.36762 0.10479 0.00659 0.0
H1650 H 0.26918 0.07639 0.98652 0.0
H1651 H 0.3587 0.0645 0.97609 0.0
H1652 H 0.26253 0.01907 0.90943 0.0
H1653 H 0.27063 0.05947 0.94006 0.0
H1654 H 0.34292 0.01763 0.97607 0.0
H1655 H 0.33546 0.97795 0.94467 0.0
C1656 C 0.29594 0.10594 0.00735 0.0
C1657 C 0.32363 0.11433 0.01367 0.0
C1658 C 0.29078 0.08253 0.9903 0.0
C1659 C 0.31316 0.067 0.9788 0.0
C1660 C 0.34089 0.07555 0.98496 0.0
C1661 C 0.34605 0.0988 0.00233 0.0
C1662 C 0.27998 0.01844 0.92408 0.0
C1663 C 0.29839 0.99533 0.92452 0.0
C1664 C 0.28464 0.0416 0.94173 0.0
C1665 C 0.30761 0.04204 0.9605 0.0
C1666 C 0.32544 0.01846 0.96147 0.0
C1667 C 0.321 0.99553 0.94361 0.0
H1668 H 0.86691 0.39419 0.98676 0.0
H1669 H 0.77756 0.37867 0.98092 0.0
H1670 H 0.85793 0.43402 0.01781 0.0
H1671 H 0.76849 0.41905 0.01091 0.0
H1672 H 0.76327 0.47531 0.08881 0.0
H1673 H 0.77152 0.43546 0.05755 0.0
H1674 H 0.84044 0.48035 0.01873 0.0
H1675 H 0.83289 0.51955 0.0507 0.0
C1676 C 0.84535 0.39942 0.99189 0.0
C1677 C 0.823 0.38316 0.98139 0.0
C1678 C 0.84014 0.42239 0.00959 0.0
C1679 C 0.81242 0.42991 0.01692 0.0
C1680 C 0.79011 0.41369 0.00621 0.0
C1681 C 0.79533 0.39056 0.98883 0.0
C1682 C 0.78002 0.47673 0.07343 0.0
C1683 C 0.79747 0.50057 0.07233 0.0
C1684 C 0.78475 0.45388 0.05542 0.0
C1685 C 0.80682 0.45449 0.03564 0.0
C1686 C 0.82369 0.47875 0.03408 0.0
C1687 C 0.81919 0.50139 0.05228 0.0
H1688 H 0.71755 0.61568 0.48142 0.0
H1689 H 0.62823 0.59939 0.48483 0.0
H1690 H 0.72615 0.57575 0.51214 0.0
H1691 H 0.63667 0.56011 0.51665 0.0
H1692 H 0.72985 0.52051 0.59082 0.0
H1693 H 0.72223 0.55981 0.55871 0.0
H1694 H 0.65418 0.5141 0.51911 0.0
H1695 H 0.66104 0.47556 0.55196 0.0
C1696 C 0.69968 0.6037 0.48894 0.0
C1697 C 0.67217 0.61074 0.48062 0.0
C1698 C 0.70462 0.58084 0.50675 0.0
C1699 C 0.68215 0.56458 0.51704 0.0
C1700 C 0.65459 0.57174 0.50878 0.0
C1701 C 0.64969 0.5944 0.49063 0.0
C1702 C 0.71342 0.51883 0.5751 0.0
C1703 C 0.69599 0.49497 0.57404 0.0
C1704 C 0.70906 0.54133 0.55659 0.0
C1705 C 0.68741 0.54034 0.53632 0.0
C1706 C 0.67058 0.51603 0.53481 0.0
C1707 C 0.67468 0.49377 0.55354 0.0
H1708 H 0.22015 0.88113 0.51341 0.0
H1709 H 0.13107 0.89873 0.51091 0.0
H1710 H 0.2291 0.9212 0.48299 0.0
H1711 H 0.13986 0.93821 0.47939 0.0
H1712 H 0.16494 0.0226 0.44449 0.0
H1713 H 0.15809 0.98398 0.47723 0.0
H1714 H 0.22511 0.93784 0.43663 0.0
H1715 H 0.23271 0.97724 0.40457 0.0
C1716 C 0.20239 0.89342 0.50616 0.0
C1717 C 0.17485 0.88668 0.51466 0.0
C1718 C 0.20754 0.91638 0.48851 0.0
C1719 C 0.18527 0.93309 0.47857 0.0
C1720 C 0.15767 0.92624 0.487 0.0
C1721 C 0.15255 0.90345 0.50497 0.0
C1722 C 0.1784 0.0043 0.4427 0.0
C1723 C 0.19936 0.00299 0.42187 0.0
C1724 C 0.17429 0.98198 0.46135 0.0
C1725 C 0.19075 0.95748 0.45949 0.0
C1726 C 0.21219 0.95643 0.43901 0.0
C1727 C 0.21656 0.97901 0.42054 0.0
H1728 H 0.98841 0.62828 0.8918 0.0
H1729 H 0.98113 0.71795 0.87866 0.0
H1730 H 0.01939 0.63679 0.93179 0.0
H1731 H 0.01103 0.72651 0.91923 0.0
H1732 H 0.08835 0.73187 0.97624 0.0
H1733 H 0.05749 0.72407 0.93597 0.0
H1734 H 0.02001 0.65294 0.97855 0.0
H1735 H 0.0516 0.66008 0.01812 0.0
C1736 C 0.99323 0.64981 0.89757 0.0
C1737 C 0.9823 0.67239 0.88195 0.0
C1738 C 0.01088 0.65474 0.92066 0.0
C1739 C 0.01775 0.6824 0.92894 0.0
C1740 C 0.00669 0.70494 0.9133 0.0
C1741 C 0.98936 0.7 0.89005 0.0
C1742 C 0.07334 0.71473 0.97706 0.0
C1743 C 0.07253 0.69656 0.00037 0.0
C1744 C 0.05556 0.71025 0.95397 0.0
C1745 C 0.03628 0.6877 0.95379 0.0
C1746 C 0.03499 0.67008 0.97753 0.0
C1747 C 0.05297 0.67434 0.0004 0.0
H1748 H 0.51875 0.27535 0.38221 0.0
H1749 H 0.51121 0.36479 0.3968 0.0
H1750 H 0.48827 0.26614 0.42223 0.0
H1751 H 0.47983 0.35564 0.43622 0.0
H1752 H 0.44561 0.3312 0.52112 0.0
H1753 H 0.47852 0.33842 0.48273 0.0
H1754 H 0.44097 0.26893 0.4375 0.0
H1755 H 0.40865 0.26105 0.47656 0.0
C1756 C 0.51045 0.29309 0.39385 0.0
C1757 C 0.5175 0.32084 0.38628 0.0
C1758 C 0.49279 0.28779 0.41676 0.0
C1759 C 0.48147 0.31009 0.43256 0.0
C1760 C 0.48852 0.33787 0.42492 0.0
C1761 C 0.50643 0.34316 0.40218 0.0
C1762 C 0.44447 0.31731 0.50307 0.0
C1763 C 0.42441 0.29557 0.5019 0.0
C1764 C 0.46325 0.32161 0.4809 0.0
C1765 C 0.4623 0.3045 0.45677 0.0
C1766 C 0.44259 0.28235 0.45584 0.0
C1767 C 0.42397 0.27785 0.47822 0.0
H1768 H 0.59114 0.76268 0.02025 0.0
H1769 H 0.5505 0.83025 0.97515 0.0
H1770 H 0.55941 0.77023 0.05997 0.0
H1771 H 0.51816 0.83705 0.01406 0.0
H1772 H 0.48273 0.77548 0.11717 0.0
H1773 H 0.51307 0.76631 0.07709 0.0
H1774 H 0.51692 0.85556 0.05981 0.0
H1775 H 0.48553 0.86458 0.09929 0.0
C1776 C 0.57508 0.77876 0.01861 0.0
C1777 C 0.57346 0.79596 0.99464 0.0
C1778 C 0.55683 0.78311 0.04137 0.0
C1779 C 0.53632 0.80453 0.04048 0.0
C1780 C 0.53411 0.82091 0.01595 0.0
C1781 C 0.55253 0.81682 0.99346 0.0
C1782 C 0.49003 0.79319 0.10483 0.0
C1783 C 0.4816 0.82081 0.11146 0.0
C1784 C 0.50763 0.78791 0.08186 0.0
C1785 C 0.51754 0.81013 0.06504 0.0
C1786 C 0.50929 0.8378 0.07186 0.0
C1787 C 0.4914 0.84305 0.09465 0.0
H1788 H 0.92427 0.15304 0.49207 0.0
H1789 H 0.92816 0.24309 0.50457 0.0
H1790 H 0.95622 0.14602 0.53094 0.0
H1791 H 0.96134 0.236 0.54333 0.0
H1792 H 0.99444 0.20969 0.63055 0.0
H1793 H 0.9639 0.21881 0.59051 0.0
H1794 H 0.00344 0.15075 0.54495 0.0
H1795 H 0.03327 0.14097 0.58543 0.0
C1796 C 0.93225 0.17147 0.50286 0.0
C1797 C 0.92363 0.19871 0.495 0.0
C1798 C 0.95082 0.16739 0.52517 0.0
C1799 C 0.96164 0.1904 0.54025 0.0
C1800 C 0.95321 0.21774 0.53238 0.0
C1801 C 0.93431 0.22184 0.51006 0.0
C1802 C 0.99664 0.19664 0.61199 0.0
C1803 C 0.01622 0.17444 0.61132 0.0
C1804 C 0.97924 0.20205 0.58889 0.0
C1805 C 0.98109 0.18554 0.56441 0.0
C1806 C 0.001 0.16361 0.56361 0.0
C1807 C 0.01822 0.15802 0.58682 0.0
H1808 H 0.89225 0.98573 0.6301 0.0
H1809 H 0.87992 0.97777 0.71981 0.0
H1810 H 0.93186 0.01709 0.63837 0.0
H1811 H 0.92032 0.00813 0.72819 0.0
H1812 H 0.97631 0.08658 0.73302 0.0
H1813 H 0.93666 0.05474 0.72595 0.0
H1814 H 0.97852 0.01876 0.65363 0.0
H1815 H 0.01735 0.05137 0.66001 0.0
C1816 C 0.89821 0.99041 0.65162 0.0
C1817 C 0.88288 0.9792 0.67427 0.0
C1818 C 0.92109 0.00831 0.65641 0.0
C1819 C 0.92955 0.01518 0.68401 0.0
C1820 C 0.91426 0.00378 0.70665 0.0
C1821 C 0.89114 0.98618 0.70184 0.0
C1822 C 0.97707 0.07172 0.71574 0.0
C1823 C -7e-05 0.07165 0.69701 0.0
C1824 C 0.95436 0.05335 0.7117 0.0
C1825 C 0.95413 0.03418 0.68904 0.0
C1826 C 0.97748 0.03362 0.67087 0.0
C1827 C -7e-05 0.05222 0.67468 0.0
H1828 H 0.61459 0.01489 0.21941 0.0
H1829 H 0.59923 0.00963 0.12993 0.0
H1830 H 0.57403 0.98513 0.22827 0.0
H1831 H 0.55926 0.97871 0.13868 0.0
H1832 H 0.51716 0.9075 0.23301 0.0
H1833 H 0.55704 0.9389 0.22537 0.0
H1834 H 0.51306 0.97764 0.15576 0.0
H1835 H 0.47395 0.94546 0.16267 0.0
C1836 C 0.6027 0.00713 0.20156 0.0
C1837 C 0.61018 0.01468 0.17392 0.0
C1838 C 0.57946 0.98988 0.20666 0.0
C1839 C 0.56323 0.97937 0.18426 0.0
C1840 C 0.57086 0.98679 0.15656 0.0
C1841 C 0.59392 0.0044 0.15147 0.0
C1842 C 0.51595 0.92295 0.21629 0.0
C1843 C 0.49246 0.9239 0.19839 0.0
C1844 C 0.53881 0.94102 0.21188 0.0
C1845 C 0.53851 0.96075 0.18972 0.0
C1846 C 0.51447 0.9623 0.17254 0.0
C1847 C 0.49187 0.944 0.17669 0.0
H1848 H 0.47516 0.40595 0.26603 0.0
H1849 H 0.51959 0.44446 0.33542 0.0
H1850 H 0.43544 0.43728 0.27418 0.0
H1851 H 0.48051 0.47654 0.34285 0.0
H1852 H 0.39457 0.50962 0.36874 0.0
H1853 H 0.43426 0.47831 0.36022 0.0
H1854 H 0.41927 0.48379 0.27062 0.0
H1855 H 0.37903 0.514 0.27926 0.0
C1856 C 0.47664 0.42142 0.28273 0.0
C1857 C 0.50054 0.42263 0.3001 0.0
C1858 C 0.45387 0.43949 0.28739 0.0
C1859 C 0.45458 0.45947 0.30931 0.0
C1860 C 0.47884 0.46107 0.3262 0.0
C1861 C 0.50141 0.44279 0.32177 0.0
C1862 C 0.39978 0.50412 0.34724 0.0
C1863 C 0.38354 0.51427 0.32473 0.0
C1864 C 0.42267 0.48627 0.34229 0.0
C1865 C 0.43012 0.47843 0.31467 0.0
C1866 C 0.41395 0.48884 0.29219 0.0
C1867 C 0.39089 0.50636 0.29716 0.0
H1868 H 0.0965 0.48514 0.86423 0.0
H1869 H 0.11426 0.48143 0.7751 0.0
H1870 H 0.05651 0.51588 0.85475 0.0
H1871 H 0.0739 0.51109 0.76558 0.0
H1872 H 0.01784 0.58921 0.76097 0.0
H1873 H 0.0575 0.55781 0.76949 0.0
H1874 H 0.01058 0.51636 0.83546 0.0
H1875 H 0.97152 0.54836 0.82763 0.0
C1876 C 0.09175 0.49068 0.84263 0.0
C1877 C 0.10868 0.48091 0.82049 0.0
C1878 C 0.06872 0.50818 0.83713 0.0
C1879 C 0.0619 0.51603 0.80934 0.0
C1880 C 0.07875 0.50599 0.78725 0.0
C1881 C 0.10188 0.4888 0.79276 0.0
C1882 C 0.01592 0.57317 0.77705 0.0
C1883 C 0.99159 0.57136 0.79368 0.0
C1884 C 0.03865 0.55512 0.78196 0.0
C1885 C 0.0374 0.53465 0.80338 0.0
C1886 C 0.01262 0.53228 0.81928 0.0
C1887 C 0.99008 0.55048 0.8146 0.0
H1888 H 0.63022 0.89675 0.98634 0.0
H1889 H 0.71957 0.88099 0.98163 0.0
H1890 H 0.63909 0.9368 0.01721 0.0
H1891 H 0.72853 0.92155 0.01138 0.0
H1892 H 0.73281 0.97833 0.08932 0.0
H1893 H 0.72521 0.93841 0.05785 0.0
H1894 H 0.65676 0.98303 0.01786 0.0
H1895 H 0.66366 0.02219 0.05002 0.0
C1896 C 0.65175 0.90198 0.99168 0.0
C1897 C 0.67413 0.88559 0.98157 0.0
C1898 C 0.6569 0.92507 0.00926 0.0
C1899 C 0.68459 0.93257 0.01682 0.0
C1900 C 0.70693 0.91622 0.00649 0.0
C1901 C 0.70176 0.89297 0.98925 0.0
C1902 C 0.71637 0.97967 0.07358 0.0
C1903 C 0.69876 0.00333 0.07226 0.0
C1904 C 0.71198 0.9568 0.05548 0.0
C1905 C 0.69013 0.95728 0.03541 0.0
C1906 C 0.67329 0.9815 0.03348 0.0
C1907 C 0.67743 0.00412 0.05177 0.0
H1908 H 0.23151 0.5201 0.90456 0.0
H1909 H 0.16334 0.47516 0.94434 0.0
H1910 H 0.22418 0.55955 0.93671 0.0
H1911 H 0.15675 0.51379 0.97712 0.0
H1912 H 0.13004 0.59895 0.01076 0.0
H1913 H 0.13878 0.55964 0.97904 0.0
H1914 H 0.2281 0.57619 0.98326 0.0
H1915 H 0.21921 0.61614 0.01396 0.0
C1916 C 0.21532 0.51844 0.9205 0.0
C1917 C 0.19792 0.49458 0.92176 0.0
C1918 C 0.2111 0.54104 0.93901 0.0
C1919 C 0.18962 0.54011 0.95945 0.0
C1920 C 0.17298 0.51571 0.96126 0.0
C1921 C 0.17694 0.49338 0.94257 0.0
C1922 C 0.15153 0.59417 0.00493 0.0
C1923 C 0.17387 0.61076 0.01492 0.0
C1924 C 0.15662 0.57148 0.98683 0.0
C1925 C 0.18422 0.56452 0.97855 0.0
C1926 C 0.20654 0.58108 0.98871 0.0
C1927 C 0.20143 0.60396 0.00651 0.0
H1928 H 0.27599 0.37853 0.51641 0.0
H1929 H 0.36534 0.39327 0.50888 0.0
H1930 H 0.26668 0.41929 0.48695 0.0
H1931 H 0.35609 0.43343 0.47845 0.0
H1932 H 0.33197 0.51939 0.44708 0.0
H1933 H 0.33913 0.47993 0.47874 0.0
H1934 H 0.26898 0.43649 0.44035 0.0
H1935 H 0.26117 0.47666 0.40933 0.0
C1936 C 0.2937 0.39033 0.50827 0.0
C1937 C 0.32145 0.38262 0.51511 0.0
C1938 C 0.28833 0.41368 0.4912 0.0
C1939 C 0.31058 0.42982 0.48025 0.0
C1940 C 0.33836 0.42192 0.48692 0.0
C1941 C 0.34371 0.39874 0.50425 0.0
C1942 C 0.3179 0.50151 0.44553 0.0
C1943 C 0.29602 0.50117 0.42561 0.0
C1944 C 0.32217 0.47872 0.46356 0.0
C1945 C 0.30491 0.45473 0.46196 0.0
C1946 C 0.28256 0.45466 0.44246 0.0
C1947 C 0.27806 0.47769 0.4246 0.0
H1948 H 0.78791 0.13252 0.50555 0.0
H1949 H 0.85563 0.08755 0.46493 0.0
H1950 H 0.77911 0.09219 0.53575 0.0
H1951 H 0.84615 0.04676 0.49444 0.0
H1952 H 0.84334 0.99173 0.57234 0.0
H1953 H 0.85094 0.03128 0.54126 0.0
H1954 H 0.76124 0.04538 0.53705 0.0
H1955 H 0.75362 0.00604 0.56931 0.0
C1956 C 0.80083 0.11394 0.50292 0.0
C1957 C 0.82259 0.11335 0.48286 0.0
C1958 C 0.7956 0.09068 0.52012 0.0
C1959 C 0.81183 0.0661 0.51758 0.0
C1960 C 0.83349 0.06546 0.49736 0.0
C1961 C 0.83891 0.08885 0.48034 0.0
C1962 C 0.82511 0.00307 0.56472 0.0
C1963 C 0.7978 0.99556 0.57334 0.0
C1964 C 0.82952 0.02577 0.54668 0.0
C1965 C 0.80674 0.04154 0.53643 0.0
C1966 C 0.77934 0.03394 0.5448 0.0
C1967 C 0.77492 0.01127 0.56316 0.0
loop_
_geom_bond_atom_site_label_1
_geom_bond_atom_site_label_2
_geom_bond_distance
_geom_bond_site_symmetry_2
_ccdc_geom_bond_type
Sc0 O3 2.025 . S
Sc0 O10 2.105 . S
Sc0 O13 2.105 . S
Sc0 O16 2.105 . S
Sc0 O19 2.105 . S
Sc1 O3 2.025 . S
Sc1 O11 2.105 . S
Sc1 O15 2.105 . S
Sc1 O17 2.105 . S
Sc1 O21 2.105 . S
Sc2 O3 2.025 . S
Sc2 O12 2.108 1_455 S
Sc2 O14 2.105 . S
Sc2 O18 2.105 . S
Sc2 O20 2.105 . S
O3 Sc0 2.025 . S
O3 Sc1 2.025 . S
O3 Sc2 2.025 . S
C4 O10 1.268 1_655 S
C4 O20 1.268 1_655 S
C5 O11 1.268 . S
C5 O19 1.268 . S
C6 O12 1.267 . S
C6 O21 1.268 1_655 S
C7 O13 1.268 . S
C7 O17 1.268 . S
C8 O14 1.268 . S
C8 O16 1.268 . S
C9 O15 1.268 . S
C9 O18 1.268 . S
O10 Sc0 2.105 . S
O10 C4 1.268 1_455 S
O11 Sc1 2.105 . S
O11 C5 1.268 . S
O12 Sc2 2.108 1_655 S
O12 C6 1.267 . S
O13 Sc0 2.105 . S
O13 C7 1.268 . S
O14 Sc2 2.105 . S
O14 C8 1.268 . S
O15 Sc1 2.105 . S
O15 C9 1.268 . S
O16 Sc0 2.105 . S
O16 C8 1.268 . S
O17 Sc1 2.105 . S
O17 C7 1.268 . S
O18 Sc2 2.105 . S
O18 C9 1.268 . S
O19 Sc0 2.105 . S
O19 C5 1.268 . S
O20 Sc2 2.105 . S
O20 C4 1.268 1_455 S
O21 Sc1 2.105 . S
O21 C6 1.268 1_455 S
Sc22 O25 2.025 . S
Sc22 O32 2.105 . S
Sc22 O35 2.105 . S
Sc22 O38 2.105 . S
Sc22 O41 2.105 . S
Sc23 O25 2.025 . S
Sc23 O33 2.105 . S
Sc23 O37 2.105 . S
Sc23 O39 2.105 . S
Sc23 O43 2.105 . S
Sc24 O25 2.025 . S
Sc24 O34 2.105 . S
Sc24 O36 2.105 . S
Sc24 O40 2.105 . S
Sc24 O42 2.105 . S
O25 Sc22 2.025 . S
O25 Sc23 2.025 . S
O25 Sc24 2.025 . S
C26 O32 1.268 . S
C26 O42 1.268 . S
C27 O33 1.268 . S
C27 O41 1.268 . S
C28 O34 1.268 . S
C28 O43 1.268 . S
C29 O35 1.268 . S
C29 O39 1.268 . S
C30 O36 1.268 . S
C30 O38 1.268 . S
C31 O37 1.268 . S
C31 O40 1.268 . S
O32 Sc22 2.105 . S
O32 C26 1.268 . S
O33 Sc23 2.105 . S
O33 C27 1.268 . S
O34 Sc24 2.105 . S
O34 C28 1.268 . S
O35 Sc22 2.105 . S
O35 C29 1.268 . S
O36 Sc24 2.105 . S
O36 C30 1.268 . S
O37 Sc23 2.105 . S
O37 C31 1.268 . S
O38 Sc22 2.105 . S
O38 C30 1.268 . S
O39 Sc23 2.105 . S
O39 C29 1.268 . S
O40 Sc24 2.105 . S
O40 C31 1.268 . S
O41 Sc22 2.105 . S
O41 C27 1.268 . S
O42 Sc24 2.105 . S
O42 C26 1.268 . S
O43 Sc23 2.105 . S
O43 C28 1.268 . S
Sc44 O47 2.025 . S
Sc44 O54 2.105 . S
Sc44 O57 2.105 . S
Sc44 O60 2.105 . S
Sc44 O63 2.105 . S
Sc45 O47 2.025 . S
Sc45 O55 2.105 . S
Sc45 O59 2.105 . S
Sc45 O61 2.105 . S
Sc45 O65 2.105 . S
Sc46 O47 2.025 . S
Sc46 O56 2.105 . S
Sc46 O58 2.105 . S
Sc46 O62 2.105 . S
Sc46 O64 2.105 . S
O47 Sc44 2.025 . S
O47 Sc45 2.025 . S
O47 Sc46 2.025 . S
C48 O54 1.268 . S
C48 O64 1.268 . S
C49 O55 1.268 . S
C49 O63 1.268 . S
C50 O56 1.268 . S
C50 O65 1.268 . S
C51 O57 1.268 . S
C51 O61 1.268 . S
C52 O58 1.268 . S
C52 O60 1.268 . S
C53 O59 1.268 . S
C53 O62 1.268 . S
O54 Sc44 2.105 . S
O54 C48 1.268 . S
O55 Sc45 2.105 . S
O55 C49 1.268 . S
O56 Sc46 2.105 . S
O56 C50 1.268 . S
O57 Sc44 2.105 . S
O57 C51 1.268 . S
O58 Sc46 2.105 . S
O58 C52 1.268 . S
O59 Sc45 2.105 . S
O59 C53 1.268 . S
O60 Sc44 2.105 . S
O60 C52 1.268 . S
O61 Sc45 2.105 . S
O61 C51 1.268 . S
O62 Sc46 2.105 . S
O62 C53 1.268 . S
O63 Sc44 2.105 . S
O63 C49 1.268 . S
O64 Sc46 2.105 . S
O64 C48 1.268 . S
O65 Sc45 2.105 . S
O65 C50 1.268 . S
Sc66 O69 2.025 . S
Sc66 O76 2.105 . S
Sc66 O79 2.108 1_655 S
Sc66 O82 2.105 . S
Sc66 O85 2.105 . S
Sc67 O69 2.025 . S
Sc67 O77 2.105 . S
Sc67 O81 2.105 . S
Sc67 O83 2.105 . S
Sc67 O87 2.105 . S
Sc68 O69 2.025 . S
Sc68 O78 2.105 . S
Sc68 O80 2.105 . S
Sc68 O84 2.105 . S
Sc68 O86 2.105 . S
O69 Sc66 2.025 . S
O69 Sc67 2.025 . S
O69 Sc68 2.025 . S
C70 O76 1.268 . S
C70 O86 1.268 . S
C71 O77 1.268 . S
C71 O85 1.268 . S
C72 O78 1.268 . S
C72 O87 1.268 . S
C73 O79 1.267 . S
C73 O83 1.268 1_455 S
C74 O80 1.268 1_455 S
C74 O82 1.268 1_455 S
C75 O81 1.268 . S
C75 O84 1.268 . S
O76 Sc66 2.105 . S
O76 C70 1.268 . S
O77 Sc67 2.105 . S
O77 C71 1.268 . S
O78 Sc68 2.105 . S
O78 C72 1.268 . S
O79 Sc66 2.108 1_455 S
O79 C73 1.267 . S
O80 Sc68 2.105 . S
O80 C74 1.268 1_655 S
O81 Sc67 2.105 . S
O81 C75 1.268 . S
O82 Sc66 2.105 . S
O82 C74 1.268 1_655 S
O83 Sc67 2.105 . S
O83 C73 1.268 1_655 S
O84 Sc68 2.105 . S
O84 C75 1.268 . S
O85 Sc66 2.105 . S
O85 C71 1.268 . S
O86 Sc68 2.105 . S
O86 C70 1.268 . S
O87 Sc67 2.105 . S
O87 C72 1.268 . S
Sc88 O91 2.025 . S
Sc88 O98 2.105 . S
Sc88 O101 2.105 . S
Sc88 O104 2.105 . S
Sc88 O107 2.105 . S
Sc89 O91 2.025 . S
Sc89 O99 2.105 . S
Sc89 O103 2.105 . S
Sc89 O105 2.105 . S
Sc89 O109 2.105 . S
Sc90 O91 2.025 . S
Sc90 O100 2.108 1_545 S
Sc90 O102 2.105 . S
Sc90 O106 2.105 . S
Sc90 O108 2.105 . S
O91 Sc88 2.025 . S
O91 Sc89 2.025 . S
O91 Sc90 2.025 . S
C92 O98 1.268 1_565 S
C92 O108 1.268 1_565 S
C93 O99 1.268 . S
C93 O107 1.268 . S
C94 O100 1.267 . S
C94 O109 1.268 1_565 S
C95 O101 1.268 . S
C95 O105 1.268 . S
C96 O102 1.268 . S
C96 O104 1.268 . S
C97 O103 1.268 . S
C97 O106 1.268 . S
O98 Sc88 2.105 . S
O98 C92 1.268 1_545 S
O99 Sc89 2.105 . S
O99 C93 1.268 . S
O100 Sc90 2.108 1_565 S
O100 C94 1.267 . S
O101 Sc88 2.105 . S
O101 C95 1.268 . S
O102 Sc90 2.105 . S
O102 C96 1.268 . S
O103 Sc89 2.105 . S
O103 C97 1.268 . S
O104 Sc88 2.105 . S
O104 C96 1.268 . S
O105 Sc89 2.105 . S
O105 C95 1.268 . S
O106 Sc90 2.105 . S
O106 C97 1.268 . S
O107 Sc88 2.105 . S
O107 C93 1.268 . S
O108 Sc90 2.105 . S
O108 C92 1.268 1_545 S
O109 Sc89 2.105 . S
O109 C94 1.268 1_545 S
Sc110 O113 2.025 . S
Sc110 O120 2.105 . S
Sc110 O123 2.108 1_565 S
Sc110 O126 2.105 . S
Sc110 O129 2.105 . S
Sc111 O113 2.025 . S
Sc111 O121 2.105 . S
Sc111 O125 2.105 . S
Sc111 O127 2.105 . S
Sc111 O131 2.105 . S
Sc112 O113 2.025 . S
Sc112 O122 2.105 . S
Sc112 O124 2.105 . S
Sc112 O128 2.105 . S
Sc112 O130 2.105 . S
O113 Sc110 2.025 . S
O113 Sc111 2.025 . S
O113 Sc112 2.025 . S
C114 O120 1.268 . S
C114 O130 1.268 . S
C115 O121 1.268 . S
C115 O129 1.268 . S
C116 O122 1.268 . S
C116 O131 1.268 . S
C117 O123 1.267 . S
C117 O127 1.268 1_545 S
C118 O124 1.268 1_545 S
C118 O126 1.268 1_545 S
C119 O125 1.268 . S
C119 O128 1.268 . S
O120 Sc110 2.105 . S
O120 C114 1.268 . S
O121 Sc111 2.105 . S
O121 C115 1.268 . S
O122 Sc112 2.105 . S
O122 C116 1.268 . S
O123 Sc110 2.108 1_545 S
O123 C117 1.267 . S
O124 Sc112 2.105 . S
O124 C118 1.268 1_565 S
O125 Sc111 2.105 . S
O125 C119 1.268 . S
O126 Sc110 2.105 . S
O126 C118 1.268 1_565 S
O127 Sc111 2.105 . S
O127 C117 1.268 1_565 S
O128 Sc112 2.105 . S
O128 C119 1.268 . S
O129 Sc110 2.105 . S
O129 C115 1.268 . S
O130 Sc112 2.105 . S
O130 C114 1.268 . S
O131 Sc111 2.105 . S
O131 C116 1.268 . S
Sc132 O135 2.025 . S
Sc132 O142 2.105 . S
Sc132 O145 2.105 . S
Sc132 O148 2.105 . S
Sc132 O151 2.105 . S
Sc133 O135 2.025 . S
Sc133 O143 2.105 . S
Sc133 O147 2.105 . S
Sc133 O149 2.105 . S
Sc133 O153 2.105 . S
Sc134 O135 2.025 . S
Sc134 O144 2.105 . S
Sc134 O146 2.105 . S
Sc134 O150 2.105 . S
Sc134 O152 2.105 . S
O135 Sc132 2.025 . S
O135 Sc133 2.025 . S
O135 Sc134 2.025 . S
C136 O142 1.268 . S
C136 O152 1.268 . S
C137 O143 1.268 . S
C137 O151 1.268 . S
C138 O144 1.268 . S
C138 O153 1.268 . S
C139 O145 1.268 . S
C139 O149 1.268 . S
C140 O146 1.268 . S
C140 O148 1.268 . S
C141 O147 1.268 . S
C141 O150 1.268 . S
O142 Sc132 2.105 . S
O142 C136 1.268 . S
O143 Sc133 2.105 . S
O143 C137 1.268 . S
O144 Sc134 2.105 . S
O144 C138 1.268 . S
O145 Sc132 2.105 . S
O145 C139 1.268 . S
O146 Sc134 2.105 . S
O146 C140 1.268 . S
O147 Sc133 2.105 . S
O147 C141 1.268 . S
O148 Sc132 2.105 . S
O148 C140 1.268 . S
O149 Sc133 2.105 . S
O149 C139 1.268 . S
O150 Sc134 2.105 . S
O150 C141 1.268 . S
O151 Sc132 2.105 . S
O151 C137 1.268 . S
O152 Sc134 2.105 . S
O152 C136 1.268 . S
O153 Sc133 2.105 . S
O153 C138 1.268 . S
Sc154 O157 2.025 . S
Sc154 O164 2.105 . S
Sc154 O167 2.105 . S
Sc154 O170 2.105 . S
Sc154 O173 2.105 . S
Sc155 O157 2.025 . S
Sc155 O165 2.105 . S
Sc155 O169 2.105 . S
Sc155 O171 2.105 . S
Sc155 O175 2.105 . S
Sc156 O157 2.025 . S
Sc156 O166 2.105 . S
Sc156 O168 2.105 . S
Sc156 O172 2.105 . S
Sc156 O174 2.105 . S
O157 Sc154 2.025 . S
O157 Sc155 2.025 . S
O157 Sc156 2.025 . S
C158 O164 1.268 . S
C158 O174 1.268 . S
C159 O165 1.268 . S
C159 O173 1.268 . S
C160 O166 1.268 . S
C160 O175 1.268 . S
C161 O167 1.268 . S
C161 O171 1.268 . S
C162 O168 1.268 . S
C162 O170 1.268 . S
C163 O169 1.268 . S
C163 O172 1.268 . S
O164 Sc154 2.105 . S
O164 C158 1.268 . S
O165 Sc155 2.105 . S
O165 C159 1.268 . S
O166 Sc156 2.105 . S
O166 C160 1.268 . S
O167 Sc154 2.105 . S
O167 C161 1.268 . S
O168 Sc156 2.105 . S
O168 C162 1.268 . S
O169 Sc155 2.105 . S
O169 C163 1.268 . S
O170 Sc154 2.105 . S
O170 C162 1.268 . S
O171 Sc155 2.105 . S
O171 C161 1.268 . S
O172 Sc156 2.105 . S
O172 C163 1.268 . S
O173 Sc154 2.105 . S
O173 C159 1.268 . S
O174 Sc156 2.105 . S
O174 C158 1.268 . S
O175 Sc155 2.105 . S
O175 C160 1.268 . S
Sc176 O179 2.025 . S
Sc176 O186 2.105 . S
Sc176 O189 2.105 . S
Sc176 O192 2.105 . S
Sc176 O195 2.105 . S
Sc177 O179 2.025 . S
Sc177 O187 2.105 . S
Sc177 O191 2.105 . S
Sc177 O193 2.105 . S
Sc177 O197 2.105 . S
Sc178 O179 2.025 . S
Sc178 O188 2.108 1_554 S
Sc178 O190 2.105 . S
Sc178 O194 2.105 . S
Sc178 O196 2.105 . S
O179 Sc176 2.025 . S
O179 Sc177 2.025 . S
O179 Sc178 2.025 . S
C180 O186 1.268 1_556 S
C180 O196 1.268 1_556 S
C181 O187 1.268 . S
C181 O195 1.268 . S
C182 O188 1.267 . S
C182 O197 1.268 1_556 S
C183 O189 1.268 . S
C183 O193 1.268 . S
C184 O190 1.268 . S
C184 O192 1.268 . S
C185 O191 1.268 . S
C185 O194 1.268 . S
O186 Sc176 2.105 . S
O186 C180 1.268 1_554 S
O187 Sc177 2.105 . S
O187 C181 1.268 . S
O188 Sc178 2.108 1_556 S
O188 C182 1.267 . S
O189 Sc176 2.105 . S
O189 C183 1.268 . S
O190 Sc178 2.105 . S
O190 C184 1.268 . S
O191 Sc177 2.105 . S
O191 C185 1.268 . S
O192 Sc176 2.105 . S
O192 C184 1.268 . S
O193 Sc177 2.105 . S
O193 C183 1.268 . S
O194 Sc178 2.105 . S
O194 C185 1.268 . S
O195 Sc176 2.105 . S
O195 C181 1.268 . S
O196 Sc178 2.105 . S
O196 C180 1.268 1_554 S
O197 Sc177 2.105 . S
O197 C182 1.268 1_554 S
Sc198 O201 2.025 . S
Sc198 O208 2.105 . S
Sc198 O211 2.108 1_556 S
Sc198 O214 2.105 . S
Sc198 O217 2.105 . S
Sc199 O201 2.025 . S
Sc199 O209 2.105 . S
Sc199 O213 2.105 . S
Sc199 O215 2.105 . S
Sc199 O219 2.105 . S
Sc200 O201 2.025 . S
Sc200 O210 2.105 . S
Sc200 O212 2.105 . S
Sc200 O216 2.105 . S
Sc200 O218 2.105 . S
O201 Sc198 2.025 . S
O201 Sc199 2.025 . S
O201 Sc200 2.025 . S
C202 O208 1.268 . S
C202 O218 1.268 . S
C203 O209 1.268 . S
C203 O217 1.268 . S
C204 O210 1.268 . S
C204 O219 1.268 . S
C205 O211 1.267 . S
C205 O215 1.268 1_554 S
C206 O212 1.268 1_554 S
C206 O214 1.268 1_554 S
C207 O213 1.268 . S
C207 O216 1.268 . S
O208 Sc198 2.105 . S
O208 C202 1.268 . S
O209 Sc199 2.105 . S
O209 C203 1.268 . S
O210 Sc200 2.105 . S
O210 C204 1.268 . S
O211 Sc198 2.108 1_554 S
O211 C205 1.267 . S
O212 Sc200 2.105 . S
O212 C206 1.268 1_556 S
O213 Sc199 2.105 . S
O213 C207 1.268 . S
O214 Sc198 2.105 . S
O214 C206 1.268 1_556 S
O215 Sc199 2.105 . S
O215 C205 1.268 1_556 S
O216 Sc200 2.105 . S
O216 C207 1.268 . S
O217 Sc198 2.105 . S
O217 C203 1.268 . S
O218 Sc200 2.105 . S
O218 C202 1.268 . S
O219 Sc199 2.105 . S
O219 C204 1.268 . S
Sc220 O223 2.025 . S
Sc220 O230 2.105 . S
Sc220 O233 2.105 . S
Sc220 O236 2.105 . S
Sc220 O239 2.105 . S
Sc221 O223 2.025 . S
Sc221 O231 2.105 . S
Sc221 O235 2.105 . S
Sc221 O237 2.105 . S
Sc221 O241 2.105 . S
Sc222 O223 2.025 . S
Sc222 O232 2.105 . S
Sc222 O234 2.105 . S
Sc222 O238 2.105 . S
Sc222 O240 2.105 . S
O223 Sc220 2.025 . S
O223 Sc221 2.025 . S
O223 Sc222 2.025 . S
C224 O230 1.268 . S
C224 O240 1.268 . S
C225 O231 1.268 . S
C225 O239 1.268 . S
C226 O232 1.268 . S
C226 O241 1.268 . S
C227 O233 1.268 . S
C227 O237 1.268 . S
C228 O234 1.268 . S
C228 O236 1.268 . S
C229 O235 1.268 . S
C229 O238 1.268 . S
O230 Sc220 2.105 . S
O230 C224 1.268 . S
O231 Sc221 2.105 . S
O231 C225 1.268 . S
O232 Sc222 2.105 . S
O232 C226 1.268 . S
O233 Sc220 2.105 . S
O233 C227 1.268 . S
O234 Sc222 2.105 . S
O234 C228 1.268 . S
O235 Sc221 2.105 . S
O235 C229 1.268 . S
O236 Sc220 2.105 . S
O236 C228 1.268 . S
O237 Sc221 2.105 . S
O237 C227 1.268 . S
O238 Sc222 2.105 . S
O238 C229 1.268 . S
O239 Sc220 2.105 . S
O239 C225 1.268 . S
O240 Sc222 2.105 . S
O240 C224 1.268 . S
O241 Sc221 2.105 . S
O241 C226 1.268 . S
Sc242 O245 2.025 . S
Sc242 O252 2.105 . S
Sc242 O255 2.105 . S
Sc242 O258 2.105 . S
Sc242 O261 2.105 . S
Sc243 O245 2.025 . S
Sc243 O253 2.105 . S
Sc243 O257 2.105 . S
Sc243 O259 2.105 . S
Sc243 O263 2.105 . S
Sc244 O245 2.025 . S
Sc244 O254 2.105 . S
Sc244 O256 2.105 . S
Sc244 O260 2.105 . S
Sc244 O262 2.105 . S
O245 Sc242 2.025 . S
O245 Sc243 2.025 . S
O245 Sc244 2.025 . S
C246 O252 1.268 . S
C246 O262 1.268 . S
C247 O253 1.268 . S
C247 O261 1.268 . S
C248 O254 1.268 . S
C248 O263 1.268 . S
C249 O255 1.268 . S
C249 O259 1.268 . S
C250 O256 1.268 . S
C250 O258 1.268 . S
C251 O257 1.268 . S
C251 O260 1.268 . S
O252 Sc242 2.105 . S
O252 C246 1.268 . S
O253 Sc243 2.105 . S
O253 C247 1.268 . S
O254 Sc244 2.105 . S
O254 C248 1.268 . S
O255 Sc242 2.105 . S
O255 C249 1.268 . S
O256 Sc244 2.105 . S
O256 C250 1.268 . S
O257 Sc243 2.105 . S
O257 C251 1.268 . S
O258 Sc242 2.105 . S
O258 C250 1.268 . S
O259 Sc243 2.105 . S
O259 C249 1.268 . S
O260 Sc244 2.105 . S
O260 C251 1.268 . S
O261 Sc242 2.105 . S
O261 C247 1.268 . S
O262 Sc244 2.105 . S
O262 C246 1.268 . S
O263 Sc243 2.105 . S
O263 C248 1.268 . S
Sc264 O267 2.025 . S
Sc264 O274 2.105 . S
Sc264 O277 2.105 . S
Sc264 O280 2.105 . S
Sc264 O283 2.108 1_655 S
Sc265 O267 2.025 . S
Sc265 O275 2.105 . S
Sc265 O279 2.105 . S
Sc265 O281 2.105 . S
Sc265 O285 2.105 . S
Sc266 O267 2.025 . S
Sc266 O276 2.105 . S
Sc266 O278 2.105 . S
Sc266 O282 2.105 . S
Sc266 O284 2.105 . S
O267 Sc264 2.025 . S
O267 Sc265 2.025 . S
O267 Sc266 2.025 . S
C268 O274 1.268 1_455 S
C268 O284 1.268 1_455 S
C269 O275 1.268 1_455 S
C269 O283 1.267 . S
C270 O276 1.268 . S
C270 O285 1.268 . S
C271 O277 1.268 . S
C271 O281 1.268 . S
C272 O278 1.268 . S
C272 O280 1.268 . S
C273 O279 1.268 . S
C273 O282 1.268 . S
O274 Sc264 2.105 . S
O274 C268 1.268 1_655 S
O275 Sc265 2.105 . S
O275 C269 1.268 1_655 S
O276 Sc266 2.105 . S
O276 C270 1.268 . S
O277 Sc264 2.105 . S
O277 C271 1.268 . S
O278 Sc266 2.105 . S
O278 C272 1.268 . S
O279 Sc265 2.105 . S
O279 C273 1.268 . S
O280 Sc264 2.105 . S
O280 C272 1.268 . S
O281 Sc265 2.105 . S
O281 C271 1.268 . S
O282 Sc266 2.105 . S
O282 C273 1.268 . S
O283 Sc264 2.108 1_455 S
O283 C269 1.267 . S
O284 Sc266 2.105 . S
O284 C268 1.268 1_655 S
O285 Sc265 2.105 . S
O285 C270 1.268 . S
Sc286 O289 2.025 . S
Sc286 O296 2.105 . S
Sc286 O299 2.105 . S
Sc286 O302 2.105 . S
Sc286 O305 2.105 . S
Sc287 O289 2.025 . S
Sc287 O297 2.105 . S
Sc287 O301 2.105 . S
Sc287 O303 2.105 . S
Sc287 O307 2.105 . S
Sc288 O289 2.025 . S
Sc288 O298 2.105 . S
Sc288 O300 2.105 . S
Sc288 O304 2.105 . S
Sc288 O306 2.105 . S
O289 Sc286 2.025 . S
O289 Sc287 2.025 . S
O289 Sc288 2.025 . S
C290 O296 1.268 . S
C290 O306 1.268 . S
C291 O297 1.268 . S
C291 O305 1.268 . S
C292 O298 1.268 . S
C292 O307 1.268 . S
C293 O299 1.268 . S
C293 O303 1.268 . S
C294 O300 1.268 . S
C294 O302 1.268 . S
C295 O301 1.268 . S
C295 O304 1.268 . S
O296 Sc286 2.105 . S
O296 C290 1.268 . S
O297 Sc287 2.105 . S
O297 C291 1.268 . S
O298 Sc288 2.105 . S
O298 C292 1.268 . S
O299 Sc286 2.105 . S
O299 C293 1.268 . S
O300 Sc288 2.105 . S
O300 C294 1.268 . S
O301 Sc287 2.105 . S
O301 C295 1.268 . S
O302 Sc286 2.105 . S
O302 C294 1.268 . S
O303 Sc287 2.105 . S
O303 C293 1.268 . S
O304 Sc288 2.105 . S
O304 C295 1.268 . S
O305 Sc286 2.105 . S
O305 C291 1.268 . S
O306 Sc288 2.105 . S
O306 C290 1.268 . S
O307 Sc287 2.105 . S
O307 C292 1.268 . S
Sc308 O311 2.025 . S
Sc308 O318 2.105 . S
Sc308 O321 2.105 . S
Sc308 O324 2.105 . S
Sc308 O327 2.105 . S
Sc309 O311 2.025 . S
Sc309 O319 2.105 . S
Sc309 O323 2.105 . S
Sc309 O325 2.105 . S
Sc309 O329 2.105 . S
Sc310 O311 2.025 . S
Sc310 O320 2.105 . S
Sc310 O322 2.105 . S
Sc310 O326 2.105 . S
Sc310 O328 2.105 . S
O311 Sc308 2.025 . S
O311 Sc309 2.025 . S
O311 Sc310 2.025 . S
C312 O318 1.268 . S
C312 O328 1.268 . S
C313 O319 1.268 . S
C313 O327 1.268 . S
C314 O320 1.268 . S
C314 O329 1.268 . S
C315 O321 1.268 . S
C315 O325 1.268 . S
C316 O322 1.268 . S
C316 O324 1.268 . S
C317 O323 1.268 . S
C317 O326 1.268 . S
O318 Sc308 2.105 . S
O318 C312 1.268 . S
O319 Sc309 2.105 . S
O319 C313 1.268 . S
O320 Sc310 2.105 . S
O320 C314 1.268 . S
O321 Sc308 2.105 . S
O321 C315 1.268 . S
O322 Sc310 2.105 . S
O322 C316 1.268 . S
O323 Sc309 2.105 . S
O323 C317 1.268 . S
O324 Sc308 2.105 . S
O324 C316 1.268 . S
O325 Sc309 2.105 . S
O325 C315 1.268 . S
O326 Sc310 2.105 . S
O326 C317 1.268 . S
O327 Sc308 2.105 . S
O327 C313 1.268 . S
O328 Sc310 2.105 . S
O328 C312 1.268 . S
O329 Sc309 2.105 . S
O329 C314 1.268 . S
Sc330 O333 2.025 . S
Sc330 O340 2.105 . S
Sc330 O343 2.105 . S
Sc330 O346 2.105 . S
Sc330 O349 2.108 1_455 S
Sc331 O333 2.025 . S
Sc331 O341 2.105 . S
Sc331 O345 2.105 . S
Sc331 O347 2.105 . S
Sc331 O351 2.105 . S
Sc332 O333 2.025 . S
Sc332 O342 2.105 . S
Sc332 O344 2.105 . S
Sc332 O348 2.105 . S
Sc332 O350 2.105 . S
O333 Sc330 2.025 . S
O333 Sc331 2.025 . S
O333 Sc332 2.025 . S
C334 O340 1.268 1_655 S
C334 O350 1.268 1_655 S
C335 O341 1.268 1_655 S
C335 O349 1.267 . S
C336 O342 1.268 . S
C336 O351 1.268 . S
C337 O343 1.268 . S
C337 O347 1.268 . S
C338 O344 1.268 . S
C338 O346 1.268 . S
C339 O345 1.268 . S
C339 O348 1.268 . S
O340 Sc330 2.105 . S
O340 C334 1.268 1_455 S
O341 Sc331 2.105 . S
O341 C335 1.268 1_455 S
O342 Sc332 2.105 . S
O342 C336 1.268 . S
O343 Sc330 2.105 . S
O343 C337 1.268 . S
O344 Sc332 2.105 . S
O344 C338 1.268 . S
O345 Sc331 2.105 . S
O345 C339 1.268 . S
O346 Sc330 2.105 . S
O346 C338 1.268 . S
O347 Sc331 2.105 . S
O347 C337 1.268 . S
O348 Sc332 2.105 . S
O348 C339 1.268 . S
O349 Sc330 2.108 1_655 S
O349 C335 1.267 . S
O350 Sc332 2.105 . S
O350 C334 1.268 1_455 S
O351 Sc331 2.105 . S
O351 C336 1.268 . S
Sc352 O355 2.025 . S
Sc352 O362 2.105 . S
Sc352 O365 2.105 . S
Sc352 O368 2.105 . S
Sc352 O371 2.105 . S
Sc353 O355 2.025 . S
Sc353 O363 2.105 . S
Sc353 O367 2.105 . S
Sc353 O369 2.105 . S
Sc353 O373 2.105 . S
Sc354 O355 2.025 . S
Sc354 O364 2.105 . S
Sc354 O366 2.105 . S
Sc354 O370 2.108 1_565 S
Sc354 O372 2.105 . S
O355 Sc352 2.025 . S
O355 Sc353 2.025 . S
O355 Sc354 2.025 . S
C356 O362 1.268 . S
C356 O372 1.268 . S
C357 O363 1.268 . S
C357 O371 1.268 . S
C358 O364 1.268 . S
C358 O373 1.268 . S
C359 O365 1.268 . S
C359 O369 1.268 . S
C360 O366 1.268 1_545 S
C360 O368 1.268 1_545 S
C361 O367 1.268 1_545 S
C361 O370 1.267 . S
O362 Sc352 2.105 . S
O362 C356 1.268 . S
O363 Sc353 2.105 . S
O363 C357 1.268 . S
O364 Sc354 2.105 . S
O364 C358 1.268 . S
O365 Sc352 2.105 . S
O365 C359 1.268 . S
O366 Sc354 2.105 . S
O366 C360 1.268 1_565 S
O367 Sc353 2.105 . S
O367 C361 1.268 1_565 S
O368 Sc352 2.105 . S
O368 C360 1.268 1_565 S
O369 Sc353 2.105 . S
O369 C359 1.268 . S
O370 Sc354 2.108 1_545 S
O370 C361 1.267 . S
O371 Sc352 2.105 . S
O371 C357 1.268 . S
O372 Sc354 2.105 . S
O372 C356 1.268 . S
O373 Sc353 2.105 . S
O373 C358 1.268 . S
Sc374 O377 2.025 . S
Sc374 O384 2.105 . S
Sc374 O387 2.105 . S
Sc374 O390 2.105 . S
Sc374 O393 2.108 1_545 S
Sc375 O377 2.025 . S
Sc375 O385 2.105 . S
Sc375 O389 2.105 . S
Sc375 O391 2.105 . S
Sc375 O395 2.105 . S
Sc376 O377 2.025 . S
Sc376 O386 2.105 . S
Sc376 O388 2.105 . S
Sc376 O392 2.105 . S
Sc376 O394 2.105 . S
O377 Sc374 2.025 . S
O377 Sc375 2.025 . S
O377 Sc376 2.025 . S
C378 O384 1.268 1_565 S
C378 O394 1.268 1_565 S
C379 O385 1.268 1_565 S
C379 O393 1.267 . S
C380 O386 1.268 . S
C380 O395 1.268 . S
C381 O387 1.268 . S
C381 O391 1.268 . S
C382 O388 1.268 . S
C382 O390 1.268 . S
C383 O389 1.268 . S
C383 O392 1.268 . S
O384 Sc374 2.105 . S
O384 C378 1.268 1_545 S
O385 Sc375 2.105 . S
O385 C379 1.268 1_545 S
O386 Sc376 2.105 . S
O386 C380 1.268 . S
O387 Sc374 2.105 . S
O387 C381 1.268 . S
O388 Sc376 2.105 . S
O388 C382 1.268 . S
O389 Sc375 2.105 . S
O389 C383 1.268 . S
O390 Sc374 2.105 . S
O390 C382 1.268 . S
O391 Sc375 2.105 . S
O391 C381 1.268 . S
O392 Sc376 2.105 . S
O392 C383 1.268 . S
O393 Sc374 2.108 1_565 S
O393 C379 1.267 . S
O394 Sc376 2.105 . S
O394 C378 1.268 1_545 S
O395 Sc375 2.105 . S
O395 C380 1.268 . S
Sc396 O399 2.025 . S
Sc396 O406 2.105 . S
Sc396 O409 2.105 . S
Sc396 O412 2.105 . S
Sc396 O415 2.105 . S
Sc397 O399 2.025 . S
Sc397 O407 2.105 . S
Sc397 O411 2.105 . S
Sc397 O413 2.105 . S
Sc397 O417 2.105 . S
Sc398 O399 2.025 . S
Sc398 O408 2.105 . S
Sc398 O410 2.105 . S
Sc398 O414 2.105 . S
Sc398 O416 2.105 . S
O399 Sc396 2.025 . S
O399 Sc397 2.025 . S
O399 Sc398 2.025 . S
C400 O406 1.268 . S
C400 O416 1.268 . S
C401 O407 1.268 . S
C401 O415 1.268 . S
C402 O408 1.268 . S
C402 O417 1.268 . S
C403 O409 1.268 . S
C403 O413 1.268 . S
C404 O410 1.268 . S
C404 O412 1.268 . S
C405 O411 1.268 . S
C405 O414 1.268 . S
O406 Sc396 2.105 . S
O406 C400 1.268 . S
O407 Sc397 2.105 . S
O407 C401 1.268 . S
O408 Sc398 2.105 . S
O408 C402 1.268 . S
O409 Sc396 2.105 . S
O409 C403 1.268 . S
O410 Sc398 2.105 . S
O410 C404 1.268 . S
O411 Sc397 2.105 . S
O411 C405 1.268 . S
O412 Sc396 2.105 . S
O412 C404 1.268 . S
O413 Sc397 2.105 . S
O413 C403 1.268 . S
O414 Sc398 2.105 . S
O414 C405 1.268 . S
O415 Sc396 2.105 . S
O415 C401 1.268 . S
O416 Sc398 2.105 . S
O416 C400 1.268 . S
O417 Sc397 2.105 . S
O417 C402 1.268 . S
Sc418 O421 2.025 . S
Sc418 O428 2.105 . S
Sc418 O431 2.105 . S
Sc418 O434 2.105 . S
Sc418 O437 2.105 . S
Sc419 O421 2.025 . S
Sc419 O429 2.105 . S
Sc419 O433 2.105 . S
Sc419 O435 2.105 . S
Sc419 O439 2.105 . S
Sc420 O421 2.025 . S
Sc420 O430 2.105 . S
Sc420 O432 2.105 . S
Sc420 O436 2.105 . S
Sc420 O438 2.105 . S
O421 Sc418 2.025 . S
O421 Sc419 2.025 . S
O421 Sc420 2.025 . S
C422 O428 1.268 . S
C422 O438 1.268 . S
C423 O429 1.268 . S
C423 O437 1.268 . S
C424 O430 1.268 . S
C424 O439 1.268 . S
C425 O431 1.268 . S
C425 O435 1.268 . S
C426 O432 1.268 . S
C426 O434 1.268 . S
C427 O433 1.268 . S
C427 O436 1.268 . S
O428 Sc418 2.105 . S
O428 C422 1.268 . S
O429 Sc419 2.105 . S
O429 C423 1.268 . S
O430 Sc420 2.105 . S
O430 C424 1.268 . S
O431 Sc418 2.105 . S
O431 C425 1.268 . S
O432 Sc420 2.105 . S
O432 C426 1.268 . S
O433 Sc419 2.105 . S
O433 C427 1.268 . S
O434 Sc418 2.105 . S
O434 C426 1.268 . S
O435 Sc419 2.105 . S
O435 C425 1.268 . S
O436 Sc420 2.105 . S
O436 C427 1.268 . S
O437 Sc418 2.105 . S
O437 C423 1.268 . S
O438 Sc420 2.105 . S
O438 C422 1.268 . S
O439 Sc419 2.105 . S
O439 C424 1.268 . S
Sc440 O443 2.025 . S
Sc440 O450 2.105 . S
Sc440 O453 2.105 . S
Sc440 O456 2.105 . S
Sc440 O459 2.105 . S
Sc441 O443 2.025 . S
Sc441 O451 2.105 . S
Sc441 O455 2.105 . S
Sc441 O457 2.105 . S
Sc441 O461 2.105 . S
Sc442 O443 2.025 . S
Sc442 O452 2.105 . S
Sc442 O454 2.105 . S
Sc442 O458 2.108 1_556 S
Sc442 O460 2.105 . S
O443 Sc440 2.025 . S
O443 Sc441 2.025 . S
O443 Sc442 2.025 . S
C444 O450 1.268 . S
C444 O460 1.268 . S
C445 O451 1.268 . S
C445 O459 1.268 . S
C446 O452 1.268 . S
C446 O461 1.268 . S
C447 O453 1.268 . S
C447 O457 1.268 . S
C448 O454 1.268 1_554 S
C448 O456 1.268 1_554 S
C449 O455 1.268 1_554 S
C449 O458 1.267 . S
O450 Sc440 2.105 . S
O450 C444 1.268 . S
O451 Sc441 2.105 . S
O451 C445 1.268 . S
O452 Sc442 2.105 . S
O452 C446 1.268 . S
O453 Sc440 2.105 . S
O453 C447 1.268 . S
O454 Sc442 2.105 . S
O454 C448 1.268 1_556 S
O455 Sc441 2.105 . S
O455 C449 1.268 1_556 S
O456 Sc440 2.105 . S
O456 C448 1.268 1_556 S
O457 Sc441 2.105 . S
O457 C447 1.268 . S
O458 Sc442 2.108 1_554 S
O458 C449 1.267 . S
O459 Sc440 2.105 . S
O459 C445 1.268 . S
O460 Sc442 2.105 . S
O460 C444 1.268 . S
O461 Sc441 2.105 . S
O461 C446 1.268 . S
Sc462 O465 2.025 . S
Sc462 O472 2.105 . S
Sc462 O475 2.105 . S
Sc462 O478 2.105 . S
Sc462 O481 2.108 1_554 S
Sc463 O465 2.025 . S
Sc463 O473 2.105 . S
Sc463 O477 2.105 . S
Sc463 O479 2.105 . S
Sc463 O483 2.105 . S
Sc464 O465 2.025 . S
Sc464 O474 2.105 . S
Sc464 O476 2.105 . S
Sc464 O480 2.105 . S
Sc464 O482 2.105 . S
O465 Sc462 2.025 . S
O465 Sc463 2.025 . S
O465 Sc464 2.025 . S
C466 O472 1.268 1_556 S
C466 O482 1.268 1_556 S
C467 O473 1.268 1_556 S
C467 O481 1.267 . S
C468 O474 1.268 . S
C468 O483 1.268 . S
C469 O475 1.268 . S
C469 O479 1.268 . S
C470 O476 1.268 . S
C470 O478 1.268 . S
C471 O477 1.268 . S
C471 O480 1.268 . S
O472 Sc462 2.105 . S
O472 C466 1.268 1_554 S
O473 Sc463 2.105 . S
O473 C467 1.268 1_554 S
O474 Sc464 2.105 . S
O474 C468 1.268 . S
O475 Sc462 2.105 . S
O475 C469 1.268 . S
O476 Sc464 2.105 . S
O476 C470 1.268 . S
O477 Sc463 2.105 . S
O477 C471 1.268 . S
O478 Sc462 2.105 . S
O478 C470 1.268 . S
O479 Sc463 2.105 . S
O479 C469 1.268 . S
O480 Sc464 2.105 . S
O480 C471 1.268 . S
O481 Sc462 2.108 1_556 S
O481 C467 1.267 . S
O482 Sc464 2.105 . S
O482 C466 1.268 1_554 S
O483 Sc463 2.105 . S
O483 C468 1.268 . S
Sc484 O487 2.025 . S
Sc484 O494 2.105 . S
Sc484 O497 2.105 . S
Sc484 O500 2.105 . S
Sc484 O503 2.105 . S
Sc485 O487 2.025 . S
Sc485 O495 2.105 . S
Sc485 O499 2.105 . S
Sc485 O501 2.105 . S
Sc485 O505 2.105 . S
Sc486 O487 2.025 . S
Sc486 O496 2.105 . S
Sc486 O498 2.105 . S
Sc486 O502 2.105 . S
Sc486 O504 2.105 . S
O487 Sc484 2.025 . S
O487 Sc485 2.025 . S
O487 Sc486 2.025 . S
C488 O494 1.268 . S
C488 O504 1.268 . S
C489 O495 1.268 . S
C489 O503 1.268 . S
C490 O496 1.268 . S
C490 O505 1.268 . S
C491 O497 1.268 . S
C491 O501 1.268 . S
C492 O498 1.268 . S
C492 O500 1.268 . S
C493 O499 1.268 . S
C493 O502 1.268 . S
O494 Sc484 2.105 . S
O494 C488 1.268 . S
O495 Sc485 2.105 . S
O495 C489 1.268 . S
O496 Sc486 2.105 . S
O496 C490 1.268 . S
O497 Sc484 2.105 . S
O497 C491 1.268 . S
O498 Sc486 2.105 . S
O498 C492 1.268 . S
O499 Sc485 2.105 . S
O499 C493 1.268 . S
O500 Sc484 2.105 . S
O500 C492 1.268 . S
O501 Sc485 2.105 . S
O501 C491 1.268 . S
O502 Sc486 2.105 . S
O502 C493 1.268 . S
O503 Sc484 2.105 . S
O503 C489 1.268 . S
O504 Sc486 2.105 . S
O504 C488 1.268 . S
O505 Sc485 2.105 . S
O505 C490 1.268 . S
Sc506 O509 2.025 . S
Sc506 O516 2.105 . S
Sc506 O519 2.105 . S
Sc506 O522 2.105 . S
Sc506 O525 2.105 . S
Sc507 O509 2.025 . S
Sc507 O517 2.105 . S
Sc507 O521 2.105 . S
Sc507 O523 2.105 . S
Sc507 O527 2.105 . S
Sc508 O509 2.025 . S
Sc508 O518 2.105 . S
Sc508 O520 2.105 . S
Sc508 O524 2.105 . S
Sc508 O526 2.105 . S
O509 Sc506 2.025 . S
O509 Sc507 2.025 . S
O509 Sc508 2.025 . S
C510 O516 1.268 . S
C510 O526 1.268 . S
C511 O517 1.268 . S
C511 O525 1.268 . S
C512 O518 1.268 . S
C512 O527 1.268 . S
C513 O519 1.268 . S
C513 O523 1.268 . S
C514 O520 1.268 . S
C514 O522 1.268 . S
C515 O521 1.268 . S
C515 O524 1.268 . S
O516 Sc506 2.105 . S
O516 C510 1.268 . S
O517 Sc507 2.105 . S
O517 C511 1.268 . S
O518 Sc508 2.105 . S
O518 C512 1.268 . S
O519 Sc506 2.105 . S
O519 C513 1.268 . S
O520 Sc508 2.105 . S
O520 C514 1.268 . S
O521 Sc507 2.105 . S
O521 C515 1.268 . S
O522 Sc506 2.105 . S
O522 C514 1.268 . S
O523 Sc507 2.105 . S
O523 C513 1.268 . S
O524 Sc508 2.105 . S
O524 C515 1.268 . S
O525 Sc506 2.105 . S
O525 C511 1.268 . S
O526 Sc508 2.105 . S
O526 C510 1.268 . S
O527 Sc507 2.105 . S
O527 C512 1.268 . S
H528 C536 0.950 . S
H529 C541 0.950 . S
H530 C538 0.950 . S
H531 C540 0.950 . S
H532 C542 0.950 . S
H533 C544 0.950 . S
H534 C546 0.950 . S
H535 C547 0.950 . S
C536 H528 0.950 . S
C536 C537 1.386 . S
C536 C538 1.391 . S
C537 C536 1.386 . S
C537 C541 1.393 . S
C538 H530 0.950 . S
C538 C536 1.391 . S
C538 C539 1.400 . S
C539 C538 1.400 . S
C539 C540 1.398 . S
C539 C545 1.491 . S
C540 H531 0.950 . S
C540 C539 1.398 . S
C540 C541 1.391 . S
C541 H529 0.950 . S
C541 C537 1.393 . S
C541 C540 1.391 . S
C542 H532 0.950 . S
C542 C543 1.386 . S
C542 C544 1.391 . S
C543 C542 1.386 . S
C543 C547 1.393 . S
C544 H533 0.950 . S
C544 C542 1.391 . S
C544 C545 1.400 . S
C545 C539 1.491 . S
C545 C544 1.400 . S
C545 C546 1.398 . S
C546 H534 0.950 . S
C546 C545 1.398 . S
C546 C547 1.391 . S
C547 H535 0.950 . S
C547 C543 1.393 . S
C547 C546 1.391 . S
H548 C556 0.950 . S
H549 C561 0.950 . S
H550 C558 0.950 . S
H551 C560 0.950 . S
H552 C562 0.950 . S
H553 C564 0.950 . S
H554 C566 0.950 . S
H555 C567 0.950 . S
C556 H548 0.950 . S
C556 C557 1.386 . S
C556 C558 1.391 . S
C557 C556 1.386 . S
C557 C561 1.393 . S
C558 H550 0.950 . S
C558 C556 1.391 . S
C558 C559 1.400 . S
C559 C558 1.400 . S
C559 C560 1.398 . S
C559 C565 1.491 . S
C560 H551 0.950 . S
C560 C559 1.398 . S
C560 C561 1.391 . S
C561 H549 0.950 . S
C561 C557 1.393 . S
C561 C560 1.391 . S
C562 H552 0.950 . S
C562 C563 1.386 . S
C562 C564 1.391 . S
C563 C562 1.386 . S
C563 C567 1.393 . S
C564 H553 0.950 . S
C564 C562 1.391 . S
C564 C565 1.400 . S
C565 C559 1.491 . S
C565 C564 1.400 . S
C565 C566 1.398 . S
C566 H554 0.950 . S
C566 C565 1.398 . S
C566 C567 1.391 . S
C567 H555 0.950 . S
C567 C563 1.393 . S
C567 C566 1.391 . S
H568 C576 0.950 . S
H569 C581 0.950 . S
H570 C578 0.950 . S
H571 C580 0.950 . S
H572 C582 0.950 . S
H573 C584 0.950 . S
H574 C586 0.950 . S
H575 C587 0.950 . S
C576 H568 0.950 . S
C576 C577 1.386 . S
C576 C578 1.391 . S
C577 C576 1.386 . S
C577 C581 1.393 . S
C578 H570 0.950 . S
C578 C576 1.391 . S
C578 C579 1.400 . S
C579 C578 1.400 . S
C579 C580 1.398 . S
C579 C585 1.491 . S
C580 H571 0.950 . S
C580 C579 1.398 . S
C580 C581 1.391 . S
C581 H569 0.950 . S
C581 C577 1.393 . S
C581 C580 1.391 . S
C582 H572 0.950 . S
C582 C583 1.386 . S
C582 C584 1.391 . S
C583 C582 1.386 . S
C583 C587 1.393 . S
C584 H573 0.950 . S
C584 C582 1.391 . S
C584 C585 1.400 . S
C585 C579 1.491 . S
C585 C584 1.400 . S
C585 C586 1.398 . S
C586 H574 0.950 . S
C586 C585 1.398 . S
C586 C587 1.391 . S
C587 H575 0.950 . S
C587 C583 1.393 . S
C587 C586 1.391 . S
H588 C596 0.950 . S
H589 C601 0.950 . S
H590 C598 0.950 . S
H591 C600 0.950 . S
H592 C602 0.950 . S
H593 C604 0.950 . S
H594 C606 0.950 . S
H595 C607 0.950 . S
C596 H588 0.950 . S
C596 C597 1.386 . S
C596 C598 1.391 . S
C597 C596 1.386 . S
C597 C601 1.393 . S
C598 H590 0.950 . S
C598 C596 1.391 . S
C598 C599 1.400 . S
C599 C598 1.400 . S
C599 C600 1.398 . S
C599 C605 1.491 . S
C600 H591 0.950 . S
C600 C599 1.398 . S
C600 C601 1.391 . S
C601 H589 0.950 . S
C601 C597 1.393 . S
C601 C600 1.391 . S
C602 H592 0.950 . S
C602 C603 1.386 . S
C602 C604 1.391 . S
C603 C602 1.386 . S
C603 C607 1.393 . S
C604 H593 0.950 . S
C604 C602 1.391 . S
C604 C605 1.400 . S
C605 C599 1.491 . S
C605 C604 1.400 . S
C605 C606 1.398 . S
C606 H594 0.950 . S
C606 C605 1.398 . S
C606 C607 1.391 . S
C607 H595 0.950 . S
C607 C603 1.393 . S
C607 C606 1.391 . S
H608 C616 0.950 . S
H609 C621 0.950 . S
H610 C618 0.950 . S
H611 C620 0.950 . S
H612 C622 0.950 . S
H613 C624 0.950 . S
H614 C626 0.950 . S
H615 C627 0.950 . S
C616 H608 0.950 . S
C616 C617 1.386 . S
C616 C618 1.391 . S
C617 C616 1.386 . S
C617 C621 1.393 . S
C618 H610 0.950 . S
C618 C616 1.391 . S
C618 C619 1.400 . S
C619 C618 1.400 . S
C619 C620 1.398 . S
C619 C625 1.491 . S
C620 H611 0.950 . S
C620 C619 1.398 . S
C620 C621 1.391 . S
C621 H609 0.950 . S
C621 C617 1.393 . S
C621 C620 1.391 . S
C622 H612 0.950 . S
C622 C623 1.386 . S
C622 C624 1.391 . S
C623 C622 1.386 . S
C623 C627 1.393 . S
C624 H613 0.950 . S
C624 C622 1.391 . S
C624 C625 1.400 . S
C625 C619 1.491 . S
C625 C624 1.400 . S
C625 C626 1.398 . S
C626 H614 0.950 . S
C626 C625 1.398 . S
C626 C627 1.391 . S
C627 H615 0.950 . S
C627 C623 1.393 . S
C627 C626 1.391 . S
H628 C636 0.950 . S
H629 C641 0.950 . S
H630 C638 0.950 . S
H631 C640 0.950 . S
H632 C642 0.950 . S
H633 C644 0.950 . S
H634 C646 0.950 . S
H635 C647 0.950 . S
C636 H628 0.950 . S
C636 C637 1.386 . S
C636 C638 1.391 . S
C637 C636 1.386 . S
C637 C641 1.393 . S
C638 H630 0.950 . S
C638 C636 1.391 . S
C638 C639 1.400 . S
C639 C638 1.400 . S
C639 C640 1.398 . S
C639 C645 1.491 . S
C640 H631 0.950 . S
C640 C639 1.398 . S
C640 C641 1.391 . S
C641 H629 0.950 . S
C641 C637 1.393 . S
C641 C640 1.391 . S
C642 H632 0.950 . S
C642 C643 1.386 . S
C642 C644 1.391 . S
C643 C642 1.386 . S
C643 C647 1.393 . S
C644 H633 0.950 . S
C644 C642 1.391 . S
C644 C645 1.400 . S
C645 C639 1.491 . S
C645 C644 1.400 . S
C645 C646 1.398 . S
C646 H634 0.950 . S
C646 C645 1.398 . S
C646 C647 1.391 . S
C647 H635 0.950 . S
C647 C643 1.393 . S
C647 C646 1.391 . S
H648 C656 0.950 . S
H649 C661 0.950 . S
H650 C658 0.950 . S
H651 C660 0.950 . S
H652 C662 0.950 . S
H653 C664 0.950 . S
H654 C666 0.950 . S
H655 C667 0.950 . S
C656 H648 0.950 . S
C656 C657 1.386 . S
C656 C658 1.391 . S
C657 C656 1.386 . S
C657 C661 1.393 . S
C658 H650 0.950 . S
C658 C656 1.391 . S
C658 C659 1.400 . S
C659 C658 1.400 . S
C659 C660 1.398 . S
C659 C665 1.491 . S
C660 H651 0.950 . S
C660 C659 1.398 . S
C660 C661 1.391 . S
C661 H649 0.950 . S
C661 C657 1.393 . S
C661 C660 1.391 . S
C662 H652 0.950 . S
C662 C663 1.386 . S
C662 C664 1.391 . S
C663 C662 1.386 . S
C663 C667 1.393 . S
C664 H653 0.950 . S
C664 C662 1.391 . S
C664 C665 1.400 . S
C665 C659 1.491 . S
C665 C664 1.400 . S
C665 C666 1.398 . S
C666 H654 0.950 . S
C666 C665 1.398 . S
C666 C667 1.391 . S
C667 H655 0.950 . S
C667 C663 1.393 . S
C667 C666 1.391 . S
H668 C676 0.950 . S
H669 C681 0.950 . S
H670 C678 0.950 . S
H671 C680 0.950 . S
H672 C682 0.950 . S
H673 C684 0.950 . S
H674 C686 0.950 . S
H675 C687 0.950 . S
C676 H668 0.950 . S
C676 C677 1.386 . S
C676 C678 1.391 . S
C677 C676 1.386 . S
C677 C681 1.393 . S
C678 H670 0.950 . S
C678 C676 1.391 . S
C678 C679 1.400 . S
C679 C678 1.400 . S
C679 C680 1.398 . S
C679 C685 1.491 . S
C680 H671 0.950 . S
C680 C679 1.398 . S
C680 C681 1.391 . S
C681 H669 0.950 . S
C681 C677 1.393 . S
C681 C680 1.391 . S
C682 H672 0.950 . S
C682 C683 1.386 . S
C682 C684 1.391 . S
C683 C682 1.386 . S
C683 C687 1.393 . S
C684 H673 0.950 . S
C684 C682 1.391 . S
C684 C685 1.400 . S
C685 C679 1.491 . S
C685 C684 1.400 . S
C685 C686 1.398 . S
C686 H674 0.950 . S
C686 C685 1.398 . S
C686 C687 1.391 . S
C687 H675 0.950 . S
C687 C683 1.393 . S
C687 C686 1.391 . S
H688 C696 0.950 . S
H689 C701 0.950 . S
H690 C698 0.950 . S
H691 C700 0.950 . S
H692 C702 0.950 . S
H693 C704 0.950 . S
H694 C706 0.950 . S
H695 C707 0.950 . S
C696 H688 0.950 . S
C696 C697 1.386 . S
C696 C698 1.391 . S
C697 C696 1.386 . S
C697 C701 1.393 . S
C698 H690 0.950 . S
C698 C696 1.391 . S
C698 C699 1.400 . S
C699 C698 1.400 . S
C699 C700 1.398 . S
C699 C705 1.491 . S
C700 H691 0.950 . S
C700 C699 1.398 . S
C700 C701 1.391 . S
C701 H689 0.950 . S
C701 C697 1.393 . S
C701 C700 1.391 . S
C702 H692 0.950 . S
C702 C703 1.386 . S
C702 C704 1.391 . S
C703 C702 1.386 . S
C703 C707 1.393 . S
C704 H693 0.950 . S
C704 C702 1.391 . S
C704 C705 1.400 . S
C705 C699 1.491 . S
C705 C704 1.400 . S
C705 C706 1.398 . S
C706 H694 0.950 . S
C706 C705 1.398 . S
C706 C707 1.391 . S
C707 H695 0.950 . S
C707 C703 1.393 . S
C707 C706 1.391 . S
H708 C716 0.950 . S
H709 C721 0.950 . S
H710 C718 0.950 . S
H711 C720 0.950 . S
H712 C722 0.950 . S
H713 C724 0.950 . S
H714 C726 0.950 . S
H715 C727 0.950 . S
C716 H708 0.950 . S
C716 C717 1.386 . S
C716 C718 1.391 . S
C717 C716 1.386 . S
C717 C721 1.393 . S
C718 H710 0.950 . S
C718 C716 1.391 . S
C718 C719 1.400 . S
C719 C718 1.400 . S
C719 C720 1.398 . S
C719 C725 1.491 . S
C720 H711 0.950 . S
C720 C719 1.398 . S
C720 C721 1.391 . S
C721 H709 0.950 . S
C721 C717 1.393 . S
C721 C720 1.391 . S
C722 H712 0.950 . S
C722 C723 1.386 . S
C722 C724 1.391 . S
C723 C722 1.386 . S
C723 C727 1.393 . S
C724 H713 0.950 . S
C724 C722 1.391 . S
C724 C725 1.400 . S
C725 C719 1.491 . S
C725 C724 1.400 . S
C725 C726 1.398 . S
C726 H714 0.950 . S
C726 C725 1.398 . S
C726 C727 1.391 . S
C727 H715 0.950 . S
C727 C723 1.393 . S
C727 C726 1.391 . S
H728 C736 0.950 . S
H729 C741 0.950 . S
H730 C738 0.950 . S
H731 C740 0.950 . S
H732 C742 0.950 . S
H733 C744 0.950 . S
H734 C746 0.950 . S
H735 C747 0.950 . S
C736 H728 0.950 . S
C736 C737 1.386 . S
C736 C738 1.391 . S
C737 C736 1.386 . S
C737 C741 1.393 . S
C738 H730 0.950 . S
C738 C736 1.391 . S
C738 C739 1.400 . S
C739 C738 1.400 . S
C739 C740 1.398 . S
C739 C745 1.491 . S
C740 H731 0.950 . S
C740 C739 1.398 . S
C740 C741 1.391 . S
C741 H729 0.950 . S
C741 C737 1.393 . S
C741 C740 1.391 . S
C742 H732 0.950 . S
C742 C743 1.386 . S
C742 C744 1.391 . S
C743 C742 1.386 . S
C743 C747 1.393 . S
C744 H733 0.950 . S
C744 C742 1.391 . S
C744 C745 1.400 . S
C745 C739 1.491 . S
C745 C744 1.400 . S
C745 C746 1.398 . S
C746 H734 0.950 . S
C746 C745 1.398 . S
C746 C747 1.391 . S
C747 H735 0.950 . S
C747 C743 1.393 . S
C747 C746 1.391 . S
H748 C756 0.950 . S
H749 C761 0.950 . S
H750 C758 0.950 . S
H751 C760 0.950 . S
H752 C762 0.950 . S
H753 C764 0.950 . S
H754 C766 0.950 . S
H755 C767 0.950 . S
C756 H748 0.950 . S
C756 C757 1.386 . S
C756 C758 1.391 . S
C757 C756 1.386 . S
C757 C761 1.393 . S
C758 H750 0.950 . S
C758 C756 1.391 . S
C758 C759 1.400 . S
C759 C758 1.400 . S
C759 C760 1.398 . S
C759 C765 1.491 . S
C760 H751 0.950 . S
C760 C759 1.398 . S
C760 C761 1.391 . S
C761 H749 0.950 . S
C761 C757 1.393 . S
C761 C760 1.391 . S
C762 H752 0.950 . S
C762 C763 1.386 . S
C762 C764 1.391 . S
C763 C762 1.386 . S
C763 C767 1.393 . S
C764 H753 0.950 . S
C764 C762 1.391 . S
C764 C765 1.400 . S
C765 C759 1.491 . S
C765 C764 1.400 . S
C765 C766 1.398 . S
C766 H754 0.950 . S
C766 C765 1.398 . S
C766 C767 1.391 . S
C767 H755 0.950 . S
C767 C763 1.393 . S
C767 C766 1.391 . S
H768 C776 0.950 . S
H769 C781 0.950 . S
H770 C778 0.950 . S
H771 C780 0.950 . S
H772 C782 0.950 . S
H773 C784 0.950 . S
H774 C786 0.950 . S
H775 C787 0.950 . S
C776 H768 0.950 . S
C776 C777 1.386 . S
C776 C778 1.391 . S
C777 C776 1.386 . S
C777 C781 1.393 . S
C778 H770 0.950 . S
C778 C776 1.391 . S
C778 C779 1.400 . S
C779 C778 1.400 . S
C779 C780 1.398 . S
C779 C785 1.491 . S
C780 H771 0.950 . S
C780 C779 1.398 . S
C780 C781 1.391 . S
C781 H769 0.950 . S
C781 C777 1.393 . S
C781 C780 1.391 . S
C782 H772 0.950 . S
C782 C783 1.386 . S
C782 C784 1.391 . S
C783 C782 1.386 . S
C783 C787 1.393 . S
C784 H773 0.950 . S
C784 C782 1.391 . S
C784 C785 1.400 . S
C785 C779 1.491 . S
C785 C784 1.400 . S
C785 C786 1.398 . S
C786 H774 0.950 . S
C786 C785 1.398 . S
C786 C787 1.391 . S
C787 H775 0.950 . S
C787 C783 1.393 . S
C787 C786 1.391 . S
H788 C796 0.950 . S
H789 C801 0.950 . S
H790 C798 0.950 . S
H791 C800 0.950 . S
H792 C802 0.950 . S
H793 C804 0.950 . S
H794 C806 0.950 . S
H795 C807 0.950 . S
C796 H788 0.950 . S
C796 C797 1.386 . S
C796 C798 1.391 . S
C797 C796 1.386 . S
C797 C801 1.393 . S
C798 H790 0.950 . S
C798 C796 1.391 . S
C798 C799 1.400 . S
C799 C798 1.400 . S
C799 C800 1.398 . S
C799 C805 1.491 . S
C800 H791 0.950 . S
C800 C799 1.398 . S
C800 C801 1.391 . S
C801 H789 0.950 . S
C801 C797 1.393 . S
C801 C800 1.391 . S
C802 H792 0.950 . S
C802 C803 1.386 . S
C802 C804 1.391 . S
C803 C802 1.386 . S
C803 C807 1.393 . S
C804 H793 0.950 . S
C804 C802 1.391 . S
C804 C805 1.400 . S
C805 C799 1.491 . S
C805 C804 1.400 . S
C805 C806 1.398 . S
C806 H794 0.950 . S
C806 C805 1.398 . S
C806 C807 1.391 . S
C807 H795 0.950 . S
C807 C803 1.393 . S
C807 C806 1.391 . S
H808 C816 0.950 . S
H809 C821 0.950 . S
H810 C818 0.950 . S
H811 C820 0.950 . S
H812 C822 0.950 . S
H813 C824 0.950 . S
H814 C826 0.950 . S
H815 C827 0.950 . S
C816 H808 0.950 . S
C816 C817 1.386 . S
C816 C818 1.391 . S
C817 C816 1.386 . S
C817 C821 1.393 . S
C818 H810 0.950 . S
C818 C816 1.391 . S
C818 C819 1.400 . S
C819 C818 1.400 . S
C819 C820 1.398 . S
C819 C825 1.491 . S
C820 H811 0.950 . S
C820 C819 1.398 . S
C820 C821 1.391 . S
C821 H809 0.950 . S
C821 C817 1.393 . S
C821 C820 1.391 . S
C822 H812 0.950 . S
C822 C823 1.386 . S
C822 C824 1.391 . S
C823 C822 1.386 . S
C823 C827 1.393 . S
C824 H813 0.950 . S
C824 C822 1.391 . S
C824 C825 1.400 . S
C825 C819 1.491 . S
C825 C824 1.400 . S
C825 C826 1.398 . S
C826 H814 0.950 . S
C826 C825 1.398 . S
C826 C827 1.391 . S
C827 H815 0.950 . S
C827 C823 1.393 . S
C827 C826 1.391 . S
H828 C836 0.950 . S
H829 C841 0.950 . S
H830 C838 0.950 . S
H831 C840 0.950 . S
H832 C842 0.950 . S
H833 C844 0.950 . S
H834 C846 0.950 . S
H835 C847 0.950 . S
C836 H828 0.950 . S
C836 C837 1.386 . S
C836 C838 1.391 . S
C837 C836 1.386 . S
C837 C841 1.393 . S
C838 H830 0.950 . S
C838 C836 1.391 . S
C838 C839 1.400 . S
C839 C838 1.400 . S
C839 C840 1.398 . S
C839 C845 1.491 . S
C840 H831 0.950 . S
C840 C839 1.398 . S
C840 C841 1.391 . S
C841 H829 0.950 . S
C841 C837 1.393 . S
C841 C840 1.391 . S
C842 H832 0.950 . S
C842 C843 1.386 . S
C842 C844 1.391 . S
C843 C842 1.386 . S
C843 C847 1.393 . S
C844 H833 0.950 . S
C844 C842 1.391 . S
C844 C845 1.400 . S
C845 C839 1.491 . S
C845 C844 1.400 . S
C845 C846 1.398 . S
C846 H834 0.950 . S
C846 C845 1.398 . S
C846 C847 1.391 . S
C847 H835 0.950 . S
C847 C843 1.393 . S
C847 C846 1.391 . S
H848 C856 0.950 . S
H849 C861 0.950 . S
H850 C858 0.950 . S
H851 C860 0.950 . S
H852 C862 0.950 . S
H853 C864 0.950 . S
H854 C866 0.950 . S
H855 C867 0.950 . S
C856 H848 0.950 . S
C856 C857 1.386 . S
C856 C858 1.391 . S
C857 C856 1.386 . S
C857 C861 1.393 . S
C858 H850 0.950 . S
C858 C856 1.391 . S
C858 C859 1.400 . S
C859 C858 1.400 . S
C859 C860 1.398 . S
C859 C865 1.491 . S
C860 H851 0.950 . S
C860 C859 1.398 . S
C860 C861 1.391 . S
C861 H849 0.950 . S
C861 C857 1.393 . S
C861 C860 1.391 . S
C862 H852 0.950 . S
C862 C863 1.386 . S
C862 C864 1.391 . S
C863 C862 1.386 . S
C863 C867 1.393 . S
C864 H853 0.950 . S
C864 C862 1.391 . S
C864 C865 1.400 . S
C865 C859 1.491 . S
C865 C864 1.400 . S
C865 C866 1.398 . S
C866 H854 0.950 . S
C866 C865 1.398 . S
C866 C867 1.391 . S
C867 H855 0.950 . S
C867 C863 1.393 . S
C867 C866 1.391 . S
H868 C876 0.950 . S
H869 C881 0.950 . S
H870 C878 0.950 . S
H871 C880 0.950 . S
H872 C882 0.950 . S
H873 C884 0.950 . S
H874 C886 0.950 . S
H875 C887 0.950 . S
C876 H868 0.950 . S
C876 C877 1.386 . S
C876 C878 1.391 . S
C877 C876 1.386 . S
C877 C881 1.393 . S
C878 H870 0.950 . S
C878 C876 1.391 . S
C878 C879 1.400 . S
C879 C878 1.400 . S
C879 C880 1.398 . S
C879 C885 1.491 . S
C880 H871 0.950 . S
C880 C879 1.398 . S
C880 C881 1.391 . S
C881 H869 0.950 . S
C881 C877 1.393 . S
C881 C880 1.391 . S
C882 H872 0.950 . S
C882 C883 1.386 . S
C882 C884 1.391 . S
C883 C882 1.386 . S
C883 C887 1.393 . S
C884 H873 0.950 . S
C884 C882 1.391 . S
C884 C885 1.400 . S
C885 C879 1.491 . S
C885 C884 1.400 . S
C885 C886 1.398 . S
C886 H874 0.950 . S
C886 C885 1.398 . S
C886 C887 1.391 . S
C887 H875 0.950 . S
C887 C883 1.393 . S
C887 C886 1.391 . S
H888 C896 0.950 . S
H889 C901 0.950 . S
H890 C898 0.950 . S
H891 C900 0.950 . S
H892 C902 0.950 . S
H893 C904 0.950 . S
H894 C906 0.950 . S
H895 C907 0.950 . S
C896 H888 0.950 . S
C896 C897 1.386 . S
C896 C898 1.391 . S
C897 C896 1.386 . S
C897 C901 1.393 . S
C898 H890 0.950 . S
C898 C896 1.391 . S
C898 C899 1.400 . S
C899 C898 1.400 . S
C899 C900 1.398 . S
C899 C905 1.491 . S
C900 H891 0.950 . S
C900 C899 1.398 . S
C900 C901 1.391 . S
C901 H889 0.950 . S
C901 C897 1.393 . S
C901 C900 1.391 . S
C902 H892 0.950 . S
C902 C903 1.386 . S
C902 C904 1.391 . S
C903 C902 1.386 . S
C903 C907 1.393 . S
C904 H893 0.950 . S
C904 C902 1.391 . S
C904 C905 1.400 . S
C905 C899 1.491 . S
C905 C904 1.400 . S
C905 C906 1.398 . S
C906 H894 0.950 . S
C906 C905 1.398 . S
C906 C907 1.391 . S
C907 H895 0.950 . S
C907 C903 1.393 . S
C907 C906 1.391 . S
H908 C916 0.950 . S
H909 C921 0.950 . S
H910 C918 0.950 . S
H911 C920 0.950 . S
H912 C922 0.950 . S
H913 C924 0.950 . S
H914 C926 0.950 . S
H915 C927 0.950 . S
C916 H908 0.950 . S
C916 C917 1.386 . S
C916 C918 1.391 . S
C917 C916 1.386 . S
C917 C921 1.393 . S
C918 H910 0.950 . S
C918 C916 1.391 . S
C918 C919 1.400 . S
C919 C918 1.400 . S
C919 C920 1.398 . S
C919 C925 1.491 . S
C920 H911 0.950 . S
C920 C919 1.398 . S
C920 C921 1.391 . S
C921 H909 0.950 . S
C921 C917 1.393 . S
C921 C920 1.391 . S
C922 H912 0.950 . S
C922 C923 1.386 . S
C922 C924 1.391 . S
C923 C922 1.386 . S
C923 C927 1.393 . S
C924 H913 0.950 . S
C924 C922 1.391 . S
C924 C925 1.400 . S
C925 C919 1.491 . S
C925 C924 1.400 . S
C925 C926 1.398 . S
C926 H914 0.950 . S
C926 C925 1.398 . S
C926 C927 1.391 . S
C927 H915 0.950 . S
C927 C923 1.393 . S
C927 C926 1.391 . S
H928 C936 0.950 . S
H929 C941 0.950 . S
H930 C938 0.950 . S
H931 C940 0.950 . S
H932 C942 0.950 . S
H933 C944 0.950 . S
H934 C946 0.950 . S
H935 C947 0.950 . S
C936 H928 0.950 . S
C936 C937 1.386 . S
C936 C938 1.391 . S
C937 C936 1.386 . S
C937 C941 1.393 . S
C938 H930 0.950 . S
C938 C936 1.391 . S
C938 C939 1.400 . S
C939 C938 1.400 . S
C939 C940 1.398 . S
C939 C945 1.491 . S
C940 H931 0.950 . S
C940 C939 1.398 . S
C940 C941 1.391 . S
C941 H929 0.950 . S
C941 C937 1.393 . S
C941 C940 1.391 . S
C942 H932 0.950 . S
C942 C943 1.386 . S
C942 C944 1.391 . S
C943 C942 1.386 . S
C943 C947 1.393 . S
C944 H933 0.950 . S
C944 C942 1.391 . S
C944 C945 1.400 . S
C945 C939 1.491 . S
C945 C944 1.400 . S
C945 C946 1.398 . S
C946 H934 0.950 . S
C946 C945 1.398 . S
C946 C947 1.391 . S
C947 H935 0.950 . S
C947 C943 1.393 . S
C947 C946 1.391 . S
H948 C956 0.950 . S
H949 C961 0.950 . S
H950 C958 0.950 . S
H951 C960 0.950 . S
H952 C962 0.950 . S
H953 C964 0.950 . S
H954 C966 0.950 . S
H955 C967 0.950 . S
C956 H948 0.950 . S
C956 C957 1.386 . S
C956 C958 1.391 . S
C957 C956 1.386 . S
C957 C961 1.393 . S
C958 H950 0.950 . S
C958 C956 1.391 . S
C958 C959 1.400 . S
C959 C958 1.400 . S
C959 C960 1.398 . S
C959 C965 1.491 . S
C960 H951 0.950 . S
C960 C959 1.398 . S
C960 C961 1.391 . S
C961 H949 0.950 . S
C961 C957 1.393 . S
C961 C960 1.391 . S
C962 H952 0.950 . S
C962 C963 1.386 . S
C962 C964 1.391 . S
C963 C962 1.386 . S
C963 C967 1.393 . S
C964 H953 0.950 . S
C964 C962 1.391 . S
C964 C965 1.400 . S
C965 C959 1.491 . S
C965 C964 1.400 . S
C965 C966 1.398 . S
C966 H954 0.950 . S
C966 C965 1.398 . S
C966 C967 1.391 . S
C967 H955 0.950 . S
C967 C963 1.393 . S
C967 C966 1.391 . S
H968 C976 0.950 . S
H969 C981 0.950 . S
H970 C978 0.950 . S
H971 C980 0.950 . S
H972 C982 0.950 . S
H973 C984 0.950 . S
H974 C986 0.950 . S
H975 C987 0.950 . S
C976 H968 0.950 . S
C976 C977 1.386 . S
C976 C978 1.391 . S
C977 C976 1.386 . S
C977 C981 1.393 . S
C978 H970 0.950 . S
C978 C976 1.391 . S
C978 C979 1.400 . S
C979 C978 1.400 . S
C979 C980 1.398 . S
C979 C985 1.491 . S
C980 H971 0.950 . S
C980 C979 1.398 . S
C980 C981 1.391 . S
C981 H969 0.950 . S
C981 C977 1.393 . S
C981 C980 1.391 . S
C982 H972 0.950 . S
C982 C983 1.386 . S
C982 C984 1.391 . S
C983 C982 1.386 . S
C983 C987 1.393 . S
C984 H973 0.950 . S
C984 C982 1.391 . S
C984 C985 1.400 . S
C985 C979 1.491 . S
C985 C984 1.400 . S
C985 C986 1.398 . S
C986 H974 0.950 . S
C986 C985 1.398 . S
C986 C987 1.391 . S
C987 H975 0.950 . S
C987 C983 1.393 . S
C987 C986 1.391 . S
H988 C996 0.950 . S
H989 C1001 0.950 . S
H990 C998 0.950 . S
H991 C1000 0.950 . S
H992 C1002 0.950 . S
H993 C1004 0.950 . S
H994 C1006 0.950 . S
H995 C1007 0.950 . S
C996 H988 0.950 . S
C996 C997 1.386 . S
C996 C998 1.391 . S
C997 C996 1.386 . S
C997 C1001 1.393 . S
C998 H990 0.950 . S
C998 C996 1.391 . S
C998 C999 1.400 . S
C999 C998 1.400 . S
C999 C1000 1.398 . S
C999 C1005 1.491 . S
C1000 H991 0.950 . S
C1000 C999 1.398 . S
C1000 C1001 1.391 . S
C1001 H989 0.950 . S
C1001 C997 1.393 . S
C1001 C1000 1.391 . S
C1002 H992 0.950 . S
C1002 C1003 1.386 . S
C1002 C1004 1.391 . S
C1003 C1002 1.386 . S
C1003 C1007 1.393 . S
C1004 H993 0.950 . S
C1004 C1002 1.391 . S
C1004 C1005 1.400 . S
C1005 C999 1.491 . S
C1005 C1004 1.400 . S
C1005 C1006 1.398 . S
C1006 H994 0.950 . S
C1006 C1005 1.398 . S
C1006 C1007 1.391 . S
C1007 H995 0.950 . S
C1007 C1003 1.393 . S
C1007 C1006 1.391 . S
H1008 C1016 0.950 . S
H1009 C1021 0.950 . S
H1010 C1018 0.950 . S
H1011 C1020 0.950 . S
H1012 C1022 0.950 . S
H1013 C1024 0.950 . S
H1014 C1026 0.950 . S
H1015 C1027 0.950 . S
C1016 H1008 0.950 . S
C1016 C1017 1.386 . S
C1016 C1018 1.391 . S
C1017 C1016 1.386 . S
C1017 C1021 1.393 . S
C1018 H1010 0.950 . S
C1018 C1016 1.391 . S
C1018 C1019 1.400 . S
C1019 C1018 1.400 . S
C1019 C1020 1.398 . S
C1019 C1025 1.491 . S
C1020 H1011 0.950 . S
C1020 C1019 1.398 . S
C1020 C1021 1.391 . S
C1021 H1009 0.950 . S
C1021 C1017 1.393 . S
C1021 C1020 1.391 . S
C1022 H1012 0.950 . S
C1022 C1023 1.386 . S
C1022 C1024 1.391 . S
C1023 C1022 1.386 . S
C1023 C1027 1.393 . S
C1024 H1013 0.950 . S
C1024 C1022 1.391 . S
C1024 C1025 1.400 . S
C1025 C1019 1.491 . S
C1025 C1024 1.400 . S
C1025 C1026 1.398 . S
C1026 H1014 0.950 . S
C1026 C1025 1.398 . S
C1026 C1027 1.391 . S
C1027 H1015 0.950 . S
C1027 C1023 1.393 . S
C1027 C1026 1.391 . S
H1028 C1036 0.950 . S
H1029 C1041 0.950 . S
H1030 C1038 0.950 . S
H1031 C1040 0.950 . S
H1032 C1042 0.950 . S
H1033 C1044 0.950 . S
H1034 C1046 0.950 . S
H1035 C1047 0.950 . S
C1036 H1028 0.950 . S
C1036 C1037 1.386 . S
C1036 C1038 1.391 . S
C1037 C1036 1.386 . S
C1037 C1041 1.393 . S
C1038 H1030 0.950 . S
C1038 C1036 1.391 . S
C1038 C1039 1.400 . S
C1039 C1038 1.400 . S
C1039 C1040 1.398 . S
C1039 C1045 1.491 . S
C1040 H1031 0.950 . S
C1040 C1039 1.398 . S
C1040 C1041 1.391 . S
C1041 H1029 0.950 . S
C1041 C1037 1.393 . S
C1041 C1040 1.391 . S
C1042 H1032 0.950 . S
C1042 C1043 1.386 . S
C1042 C1044 1.391 . S
C1043 C1042 1.386 . S
C1043 C1047 1.393 . S
C1044 H1033 0.950 . S
C1044 C1042 1.391 . S
C1044 C1045 1.400 . S
C1045 C1039 1.491 . S
C1045 C1044 1.400 . S
C1045 C1046 1.398 . S
C1046 H1034 0.950 . S
C1046 C1045 1.398 . S
C1046 C1047 1.391 . S
C1047 H1035 0.950 . S
C1047 C1043 1.393 . S
C1047 C1046 1.391 . S
H1048 C1056 0.950 . S
H1049 C1061 0.950 . S
H1050 C1058 0.950 . S
H1051 C1060 0.950 . S
H1052 C1062 0.950 . S
H1053 C1064 0.950 . S
H1054 C1066 0.950 . S
H1055 C1067 0.950 . S
C1056 H1048 0.950 . S
C1056 C1057 1.386 . S
C1056 C1058 1.391 . S
C1057 C1056 1.386 . S
C1057 C1061 1.393 . S
C1058 H1050 0.950 . S
C1058 C1056 1.391 . S
C1058 C1059 1.400 . S
C1059 C1058 1.400 . S
C1059 C1060 1.398 . S
C1059 C1065 1.491 . S
C1060 H1051 0.950 . S
C1060 C1059 1.398 . S
C1060 C1061 1.391 . S
C1061 H1049 0.950 . S
C1061 C1057 1.393 . S
C1061 C1060 1.391 . S
C1062 H1052 0.950 . S
C1062 C1063 1.386 . S
C1062 C1064 1.391 . S
C1063 C1062 1.386 . S
C1063 C1067 1.393 . S
C1064 H1053 0.950 . S
C1064 C1062 1.391 . S
C1064 C1065 1.400 . S
C1065 C1059 1.491 . S
C1065 C1064 1.400 . S
C1065 C1066 1.398 . S
C1066 H1054 0.950 . S
C1066 C1065 1.398 . S
C1066 C1067 1.391 . S
C1067 H1055 0.950 . S
C1067 C1063 1.393 . S
C1067 C1066 1.391 . S
H1068 C1076 0.950 . S
H1069 C1081 0.950 . S
H1070 C1078 0.950 . S
H1071 C1080 0.950 . S
H1072 C1082 0.950 . S
H1073 C1084 0.950 . S
H1074 C1086 0.950 . S
H1075 C1087 0.950 . S
C1076 H1068 0.950 . S
C1076 C1077 1.386 . S
C1076 C1078 1.391 . S
C1077 C1076 1.386 . S
C1077 C1081 1.393 . S
C1078 H1070 0.950 . S
C1078 C1076 1.391 . S
C1078 C1079 1.400 . S
C1079 C1078 1.400 . S
C1079 C1080 1.398 . S
C1079 C1085 1.491 . S
C1080 H1071 0.950 . S
C1080 C1079 1.398 . S
C1080 C1081 1.391 . S
C1081 H1069 0.950 . S
C1081 C1077 1.393 . S
C1081 C1080 1.391 . S
C1082 H1072 0.950 . S
C1082 C1083 1.386 . S
C1082 C1084 1.391 . S
C1083 C1082 1.386 . S
C1083 C1087 1.393 . S
C1084 H1073 0.950 . S
C1084 C1082 1.391 . S
C1084 C1085 1.400 . S
C1085 C1079 1.491 . S
C1085 C1084 1.400 . S
C1085 C1086 1.398 . S
C1086 H1074 0.950 . S
C1086 C1085 1.398 . S
C1086 C1087 1.391 . S
C1087 H1075 0.950 . S
C1087 C1083 1.393 . S
C1087 C1086 1.391 . S
H1088 C1096 0.950 . S
H1089 C1101 0.950 . S
H1090 C1098 0.950 . S
H1091 C1100 0.950 . S
H1092 C1102 0.950 . S
H1093 C1104 0.950 . S
H1094 C1106 0.950 . S
H1095 C1107 0.950 . S
C1096 H1088 0.950 . S
C1096 C1097 1.386 . S
C1096 C1098 1.391 . S
C1097 C1096 1.386 . S
C1097 C1101 1.393 . S
C1098 H1090 0.950 . S
C1098 C1096 1.391 . S
C1098 C1099 1.400 . S
C1099 C1098 1.400 . S
C1099 C1100 1.398 . S
C1099 C1105 1.491 . S
C1100 H1091 0.950 . S
C1100 C1099 1.398 . S
C1100 C1101 1.391 . S
C1101 H1089 0.950 . S
C1101 C1097 1.393 . S
C1101 C1100 1.391 . S
C1102 H1092 0.950 . S
C1102 C1103 1.386 . S
C1102 C1104 1.391 . S
C1103 C1102 1.386 . S
C1103 C1107 1.393 . S
C1104 H1093 0.950 . S
C1104 C1102 1.391 . S
C1104 C1105 1.400 . S
C1105 C1099 1.491 . S
C1105 C1104 1.400 . S
C1105 C1106 1.398 . S
C1106 H1094 0.950 . S
C1106 C1105 1.398 . S
C1106 C1107 1.391 . S
C1107 H1095 0.950 . S
C1107 C1103 1.393 . S
C1107 C1106 1.391 . S
H1108 C1116 0.950 . S
H1109 C1121 0.950 . S
H1110 C1118 0.950 . S
H1111 C1120 0.950 . S
H1112 C1122 0.950 . S
H1113 C1124 0.950 . S
H1114 C1126 0.950 . S
H1115 C1127 0.950 . S
C1116 H1108 0.950 . S
C1116 C1117 1.386 . S
C1116 C1118 1.391 . S
C1117 C1116 1.386 . S
C1117 C1121 1.393 . S
C1118 H1110 0.950 . S
C1118 C1116 1.391 . S
C1118 C1119 1.400 . S
C1119 C1118 1.400 . S
C1119 C1120 1.398 . S
C1119 C1125 1.491 . S
C1120 H1111 0.950 . S
C1120 C1119 1.398 . S
C1120 C1121 1.391 . S
C1121 H1109 0.950 . S
C1121 C1117 1.393 . S
C1121 C1120 1.391 . S
C1122 H1112 0.950 . S
C1122 C1123 1.386 . S
C1122 C1124 1.391 . S
C1123 C1122 1.386 . S
C1123 C1127 1.393 . S
C1124 H1113 0.950 . S
C1124 C1122 1.391 . S
C1124 C1125 1.400 . S
C1125 C1119 1.491 . S
C1125 C1124 1.400 . S
C1125 C1126 1.398 . S
C1126 H1114 0.950 . S
C1126 C1125 1.398 . S
C1126 C1127 1.391 . S
C1127 H1115 0.950 . S
C1127 C1123 1.393 . S
C1127 C1126 1.391 . S
H1128 C1136 0.950 . S
H1129 C1141 0.950 . S
H1130 C1138 0.950 . S
H1131 C1140 0.950 . S
H1132 C1142 0.950 . S
H1133 C1144 0.950 . S
H1134 C1146 0.950 . S
H1135 C1147 0.950 . S
C1136 H1128 0.950 . S
C1136 C1137 1.386 . S
C1136 C1138 1.391 . S
C1137 C1136 1.386 . S
C1137 C1141 1.393 . S
C1138 H1130 0.950 . S
C1138 C1136 1.391 . S
C1138 C1139 1.400 . S
C1139 C1138 1.400 . S
C1139 C1140 1.398 . S
C1139 C1145 1.491 . S
C1140 H1131 0.950 . S
C1140 C1139 1.398 . S
C1140 C1141 1.391 . S
C1141 H1129 0.950 . S
C1141 C1137 1.393 . S
C1141 C1140 1.391 . S
C1142 H1132 0.950 . S
C1142 C1143 1.386 . S
C1142 C1144 1.391 . S
C1143 C1142 1.386 . S
C1143 C1147 1.393 . S
C1144 H1133 0.950 . S
C1144 C1142 1.391 . S
C1144 C1145 1.400 . S
C1145 C1139 1.491 . S
C1145 C1144 1.400 . S
C1145 C1146 1.398 . S
C1146 H1134 0.950 . S
C1146 C1145 1.398 . S
C1146 C1147 1.391 . S
C1147 H1135 0.950 . S
C1147 C1143 1.393 . S
C1147 C1146 1.391 . S
H1148 C1156 0.950 . S
H1149 C1161 0.950 . S
H1150 C1158 0.950 . S
H1151 C1160 0.950 . S
H1152 C1162 0.950 . S
H1153 C1164 0.950 . S
H1154 C1166 0.950 . S
H1155 C1167 0.950 . S
C1156 H1148 0.950 . S
C1156 C1157 1.386 . S
C1156 C1158 1.391 . S
C1157 C1156 1.386 . S
C1157 C1161 1.393 . S
C1158 H1150 0.950 . S
C1158 C1156 1.391 . S
C1158 C1159 1.400 . S
C1159 C1158 1.400 . S
C1159 C1160 1.398 . S
C1159 C1165 1.491 . S
C1160 H1151 0.950 . S
C1160 C1159 1.398 . S
C1160 C1161 1.391 . S
C1161 H1149 0.950 . S
C1161 C1157 1.393 . S
C1161 C1160 1.391 . S
C1162 H1152 0.950 . S
C1162 C1163 1.386 . S
C1162 C1164 1.391 . S
C1163 C1162 1.386 . S
C1163 C1167 1.393 . S
C1164 H1153 0.950 . S
C1164 C1162 1.391 . S
C1164 C1165 1.400 . S
C1165 C1159 1.491 . S
C1165 C1164 1.400 . S
C1165 C1166 1.398 . S
C1166 H1154 0.950 . S
C1166 C1165 1.398 . S
C1166 C1167 1.391 . S
C1167 H1155 0.950 . S
C1167 C1163 1.393 . S
C1167 C1166 1.391 . S
H1168 C1176 0.950 . S
H1169 C1181 0.950 . S
H1170 C1178 0.950 . S
H1171 C1180 0.950 . S
H1172 C1182 0.950 . S
H1173 C1184 0.950 . S
H1174 C1186 0.950 . S
H1175 C1187 0.950 . S
C1176 H1168 0.950 . S
C1176 C1177 1.386 . S
C1176 C1178 1.391 . S
C1177 C1176 1.386 . S
C1177 C1181 1.393 . S
C1178 H1170 0.950 . S
C1178 C1176 1.391 . S
C1178 C1179 1.400 . S
C1179 C1178 1.400 . S
C1179 C1180 1.398 . S
C1179 C1185 1.491 . S
C1180 H1171 0.950 . S
C1180 C1179 1.398 . S
C1180 C1181 1.391 . S
C1181 H1169 0.950 . S
C1181 C1177 1.393 . S
C1181 C1180 1.391 . S
C1182 H1172 0.950 . S
C1182 C1183 1.386 . S
C1182 C1184 1.391 . S
C1183 C1182 1.386 . S
C1183 C1187 1.393 . S
C1184 H1173 0.950 . S
C1184 C1182 1.391 . S
C1184 C1185 1.400 . S
C1185 C1179 1.491 . S
C1185 C1184 1.400 . S
C1185 C1186 1.398 . S
C1186 H1174 0.950 . S
C1186 C1185 1.398 . S
C1186 C1187 1.391 . S
C1187 H1175 0.950 . S
C1187 C1183 1.393 . S
C1187 C1186 1.391 . S
H1188 C1196 0.950 . S
H1189 C1201 0.950 . S
H1190 C1198 0.950 . S
H1191 C1200 0.950 . S
H1192 C1202 0.950 . S
H1193 C1204 0.950 . S
H1194 C1206 0.950 . S
H1195 C1207 0.950 . S
C1196 H1188 0.950 . S
C1196 C1197 1.386 . S
C1196 C1198 1.391 . S
C1197 C1196 1.386 . S
C1197 C1201 1.393 . S
C1198 H1190 0.950 . S
C1198 C1196 1.391 . S
C1198 C1199 1.400 . S
C1199 C1198 1.400 . S
C1199 C1200 1.398 . S
C1199 C1205 1.491 . S
C1200 H1191 0.950 . S
C1200 C1199 1.398 . S
C1200 C1201 1.391 . S
C1201 H1189 0.950 . S
C1201 C1197 1.393 . S
C1201 C1200 1.391 . S
C1202 H1192 0.950 . S
C1202 C1203 1.386 . S
C1202 C1204 1.391 . S
C1203 C1202 1.386 . S
C1203 C1207 1.393 . S
C1204 H1193 0.950 . S
C1204 C1202 1.391 . S
C1204 C1205 1.400 . S
C1205 C1199 1.491 . S
C1205 C1204 1.400 . S
C1205 C1206 1.398 . S
C1206 H1194 0.950 . S
C1206 C1205 1.398 . S
C1206 C1207 1.391 . S
C1207 H1195 0.950 . S
C1207 C1203 1.393 . S
C1207 C1206 1.391 . S
H1208 C1216 0.950 . S
H1209 C1221 0.950 . S
H1210 C1218 0.950 . S
H1211 C1220 0.950 . S
H1212 C1222 0.950 . S
H1213 C1224 0.950 . S
H1214 C1226 0.950 . S
H1215 C1227 0.950 . S
C1216 H1208 0.950 . S
C1216 C1217 1.386 . S
C1216 C1218 1.391 . S
C1217 C1216 1.386 . S
C1217 C1221 1.393 . S
C1218 H1210 0.950 . S
C1218 C1216 1.391 . S
C1218 C1219 1.400 . S
C1219 C1218 1.400 . S
C1219 C1220 1.398 . S
C1219 C1225 1.491 . S
C1220 H1211 0.950 . S
C1220 C1219 1.398 . S
C1220 C1221 1.391 . S
C1221 H1209 0.950 . S
C1221 C1217 1.393 . S
C1221 C1220 1.391 . S
C1222 H1212 0.950 . S
C1222 C1223 1.386 . S
C1222 C1224 1.391 . S
C1223 C1222 1.386 . S
C1223 C1227 1.393 . S
C1224 H1213 0.950 . S
C1224 C1222 1.391 . S
C1224 C1225 1.400 . S
C1225 C1219 1.491 . S
C1225 C1224 1.400 . S
C1225 C1226 1.398 . S
C1226 H1214 0.950 . S
C1226 C1225 1.398 . S
C1226 C1227 1.391 . S
C1227 H1215 0.950 . S
C1227 C1223 1.393 . S
C1227 C1226 1.391 . S
H1228 C1236 0.950 . S
H1229 C1241 0.950 . S
H1230 C1238 0.950 . S
H1231 C1240 0.950 . S
H1232 C1242 0.950 . S
H1233 C1244 0.950 . S
H1234 C1246 0.950 . S
H1235 C1247 0.950 . S
C1236 H1228 0.950 . S
C1236 C1237 1.386 . S
C1236 C1238 1.391 . S
C1237 C1236 1.386 . S
C1237 C1241 1.393 . S
C1238 H1230 0.950 . S
C1238 C1236 1.391 . S
C1238 C1239 1.400 . S
C1239 C1238 1.400 . S
C1239 C1240 1.398 . S
C1239 C1245 1.491 . S
C1240 H1231 0.950 . S
C1240 C1239 1.398 . S
C1240 C1241 1.391 . S
C1241 H1229 0.950 . S
C1241 C1237 1.393 . S
C1241 C1240 1.391 . S
C1242 H1232 0.950 . S
C1242 C1243 1.386 . S
C1242 C1244 1.391 . S
C1243 C1242 1.386 . S
C1243 C1247 1.393 . S
C1244 H1233 0.950 . S
C1244 C1242 1.391 . S
C1244 C1245 1.400 . S
C1245 C1239 1.491 . S
C1245 C1244 1.400 . S
C1245 C1246 1.398 . S
C1246 H1234 0.950 . S
C1246 C1245 1.398 . S
C1246 C1247 1.391 . S
C1247 H1235 0.950 . S
C1247 C1243 1.393 . S
C1247 C1246 1.391 . S
H1248 C1256 0.950 . S
H1249 C1261 0.950 . S
H1250 C1258 0.950 . S
H1251 C1260 0.950 . S
H1252 C1262 0.950 . S
H1253 C1264 0.950 . S
H1254 C1266 0.950 . S
H1255 C1267 0.950 . S
C1256 H1248 0.950 . S
C1256 C1257 1.386 . S
C1256 C1258 1.391 . S
C1257 C1256 1.386 . S
C1257 C1261 1.393 . S
C1258 H1250 0.950 . S
C1258 C1256 1.391 . S
C1258 C1259 1.400 . S
C1259 C1258 1.400 . S
C1259 C1260 1.398 . S
C1259 C1265 1.491 . S
C1260 H1251 0.950 . S
C1260 C1259 1.398 . S
C1260 C1261 1.391 . S
C1261 H1249 0.950 . S
C1261 C1257 1.393 . S
C1261 C1260 1.391 . S
C1262 H1252 0.950 . S
C1262 C1263 1.386 . S
C1262 C1264 1.391 . S
C1263 C1262 1.386 . S
C1263 C1267 1.393 . S
C1264 H1253 0.950 . S
C1264 C1262 1.391 . S
C1264 C1265 1.400 . S
C1265 C1259 1.491 . S
C1265 C1264 1.400 . S
C1265 C1266 1.398 . S
C1266 H1254 0.950 . S
C1266 C1265 1.398 . S
C1266 C1267 1.391 . S
C1267 H1255 0.950 . S
C1267 C1263 1.393 . S
C1267 C1266 1.391 . S
H1268 C1276 0.950 . S
H1269 C1281 0.950 . S
H1270 C1278 0.950 . S
H1271 C1280 0.950 . S
H1272 C1282 0.950 . S
H1273 C1284 0.950 . S
H1274 C1286 0.950 . S
H1275 C1287 0.950 . S
C1276 H1268 0.950 . S
C1276 C1277 1.386 . S
C1276 C1278 1.391 . S
C1277 C1276 1.386 . S
C1277 C1281 1.393 . S
C1278 H1270 0.950 . S
C1278 C1276 1.391 . S
C1278 C1279 1.400 . S
C1279 C1278 1.400 . S
C1279 C1280 1.398 . S
C1279 C1285 1.491 . S
C1280 H1271 0.950 . S
C1280 C1279 1.398 . S
C1280 C1281 1.391 . S
C1281 H1269 0.950 . S
C1281 C1277 1.393 . S
C1281 C1280 1.391 . S
C1282 H1272 0.950 . S
C1282 C1283 1.386 . S
C1282 C1284 1.391 . S
C1283 C1282 1.386 . S
C1283 C1287 1.393 . S
C1284 H1273 0.950 . S
C1284 C1282 1.391 . S
C1284 C1285 1.400 . S
C1285 C1279 1.491 . S
C1285 C1284 1.400 . S
C1285 C1286 1.398 . S
C1286 H1274 0.950 . S
C1286 C1285 1.398 . S
C1286 C1287 1.391 . S
C1287 H1275 0.950 . S
C1287 C1283 1.393 . S
C1287 C1286 1.391 . S
H1288 C1296 0.950 . S
H1289 C1301 0.950 . S
H1290 C1298 0.950 . S
H1291 C1300 0.950 . S
H1292 C1302 0.950 . S
H1293 C1304 0.950 . S
H1294 C1306 0.950 . S
H1295 C1307 0.950 . S
C1296 H1288 0.950 . S
C1296 C1297 1.386 . S
C1296 C1298 1.391 . S
C1297 C1296 1.386 . S
C1297 C1301 1.393 . S
C1298 H1290 0.950 . S
C1298 C1296 1.391 . S
C1298 C1299 1.400 . S
C1299 C1298 1.400 . S
C1299 C1300 1.398 . S
C1299 C1305 1.491 . S
C1300 H1291 0.950 . S
C1300 C1299 1.398 . S
C1300 C1301 1.391 . S
C1301 H1289 0.950 . S
C1301 C1297 1.393 . S
C1301 C1300 1.391 . S
C1302 H1292 0.950 . S
C1302 C1303 1.386 . S
C1302 C1304 1.391 . S
C1303 C1302 1.386 . S
C1303 C1307 1.393 . S
C1304 H1293 0.950 . S
C1304 C1302 1.391 . S
C1304 C1305 1.400 . S
C1305 C1299 1.491 . S
C1305 C1304 1.400 . S
C1305 C1306 1.398 . S
C1306 H1294 0.950 . S
C1306 C1305 1.398 . S
C1306 C1307 1.391 . S
C1307 H1295 0.950 . S
C1307 C1303 1.393 . S
C1307 C1306 1.391 . S
H1308 C1316 0.950 . S
H1309 C1321 0.950 . S
H1310 C1318 0.950 . S
H1311 C1320 0.950 . S
H1312 C1322 0.950 . S
H1313 C1324 0.950 . S
H1314 C1326 0.950 . S
H1315 C1327 0.950 . S
C1316 H1308 0.950 . S
C1316 C1317 1.386 . S
C1316 C1318 1.391 . S
C1317 C1316 1.386 . S
C1317 C1321 1.393 . S
C1318 H1310 0.950 . S
C1318 C1316 1.391 . S
C1318 C1319 1.400 . S
C1319 C1318 1.400 . S
C1319 C1320 1.398 . S
C1319 C1325 1.491 . S
C1320 H1311 0.950 . S
C1320 C1319 1.398 . S
C1320 C1321 1.391 . S
C1321 H1309 0.950 . S
C1321 C1317 1.393 . S
C1321 C1320 1.391 . S
C1322 H1312 0.950 . S
C1322 C1323 1.386 . S
C1322 C1324 1.391 . S
C1323 C1322 1.386 . S
C1323 C1327 1.393 . S
C1324 H1313 0.950 . S
C1324 C1322 1.391 . S
C1324 C1325 1.400 . S
C1325 C1319 1.491 . S
C1325 C1324 1.400 . S
C1325 C1326 1.398 . S
C1326 H1314 0.950 . S
C1326 C1325 1.398 . S
C1326 C1327 1.391 . S
C1327 H1315 0.950 . S
C1327 C1323 1.393 . S
C1327 C1326 1.391 . S
H1328 C1336 0.950 . S
H1329 C1341 0.950 . S
H1330 C1338 0.950 . S
H1331 C1340 0.950 . S
H1332 C1342 0.950 . S
H1333 C1344 0.950 . S
H1334 C1346 0.950 . S
H1335 C1347 0.950 . S
C1336 H1328 0.950 . S
C1336 C1337 1.386 . S
C1336 C1338 1.391 . S
C1337 C1336 1.386 . S
C1337 C1341 1.393 . S
C1338 H1330 0.950 . S
C1338 C1336 1.391 . S
C1338 C1339 1.400 . S
C1339 C1338 1.400 . S
C1339 C1340 1.398 . S
C1339 C1345 1.491 . S
C1340 H1331 0.950 . S
C1340 C1339 1.398 . S
C1340 C1341 1.391 . S
C1341 H1329 0.950 . S
C1341 C1337 1.393 . S
C1341 C1340 1.391 . S
C1342 H1332 0.950 . S
C1342 C1343 1.386 . S
C1342 C1344 1.391 . S
C1343 C1342 1.386 . S
C1343 C1347 1.393 . S
C1344 H1333 0.950 . S
C1344 C1342 1.391 . S
C1344 C1345 1.400 . S
C1345 C1339 1.491 . S
C1345 C1344 1.400 . S
C1345 C1346 1.398 . S
C1346 H1334 0.950 . S
C1346 C1345 1.398 . S
C1346 C1347 1.391 . S
C1347 H1335 0.950 . S
C1347 C1343 1.393 . S
C1347 C1346 1.391 . S
H1348 C1356 0.950 . S
H1349 C1361 0.950 . S
H1350 C1358 0.950 . S
H1351 C1360 0.950 . S
H1352 C1362 0.950 . S
H1353 C1364 0.950 . S
H1354 C1366 0.950 . S
H1355 C1367 0.950 . S
C1356 H1348 0.950 . S
C1356 C1357 1.386 . S
C1356 C1358 1.391 . S
C1357 C1356 1.386 . S
C1357 C1361 1.393 . S
C1358 H1350 0.950 . S
C1358 C1356 1.391 . S
C1358 C1359 1.400 . S
C1359 C1358 1.400 . S
C1359 C1360 1.398 . S
C1359 C1365 1.491 . S
C1360 H1351 0.950 . S
C1360 C1359 1.398 . S
C1360 C1361 1.391 . S
C1361 H1349 0.950 . S
C1361 C1357 1.393 . S
C1361 C1360 1.391 . S
C1362 H1352 0.950 . S
C1362 C1363 1.386 . S
C1362 C1364 1.391 . S
C1363 C1362 1.386 . S
C1363 C1367 1.393 . S
C1364 H1353 0.950 . S
C1364 C1362 1.391 . S
C1364 C1365 1.400 . S
C1365 C1359 1.491 . S
C1365 C1364 1.400 . S
C1365 C1366 1.398 . S
C1366 H1354 0.950 . S
C1366 C1365 1.398 . S
C1366 C1367 1.391 . S
C1367 H1355 0.950 . S
C1367 C1363 1.393 . S
C1367 C1366 1.391 . S
H1368 C1376 0.950 . S
H1369 C1381 0.950 . S
H1370 C1378 0.950 . S
H1371 C1380 0.950 . S
H1372 C1382 0.950 . S
H1373 C1384 0.950 . S
H1374 C1386 0.950 . S
H1375 C1387 0.950 . S
C1376 H1368 0.950 . S
C1376 C1377 1.386 . S
C1376 C1378 1.391 . S
C1377 C1376 1.386 . S
C1377 C1381 1.393 . S
C1378 H1370 0.950 . S
C1378 C1376 1.391 . S
C1378 C1379 1.400 . S
C1379 C1378 1.400 . S
C1379 C1380 1.398 . S
C1379 C1385 1.491 . S
C1380 H1371 0.950 . S
C1380 C1379 1.398 . S
C1380 C1381 1.391 . S
C1381 H1369 0.950 . S
C1381 C1377 1.393 . S
C1381 C1380 1.391 . S
C1382 H1372 0.950 . S
C1382 C1383 1.386 . S
C1382 C1384 1.391 . S
C1383 C1382 1.386 . S
C1383 C1387 1.393 . S
C1384 H1373 0.950 . S
C1384 C1382 1.391 . S
C1384 C1385 1.400 . S
C1385 C1379 1.491 . S
C1385 C1384 1.400 . S
C1385 C1386 1.398 . S
C1386 H1374 0.950 . S
C1386 C1385 1.398 . S
C1386 C1387 1.391 . S
C1387 H1375 0.950 . S
C1387 C1383 1.393 . S
C1387 C1386 1.391 . S
H1388 C1396 0.950 . S
H1389 C1401 0.950 . S
H1390 C1398 0.950 . S
H1391 C1400 0.950 . S
H1392 C1402 0.950 . S
H1393 C1404 0.950 . S
H1394 C1406 0.950 . S
H1395 C1407 0.950 . S
C1396 H1388 0.950 . S
C1396 C1397 1.386 . S
C1396 C1398 1.391 . S
C1397 C1396 1.386 . S
C1397 C1401 1.393 . S
C1398 H1390 0.950 . S
C1398 C1396 1.391 . S
C1398 C1399 1.400 . S
C1399 C1398 1.400 . S
C1399 C1400 1.398 . S
C1399 C1405 1.491 . S
C1400 H1391 0.950 . S
C1400 C1399 1.398 . S
C1400 C1401 1.391 . S
C1401 H1389 0.950 . S
C1401 C1397 1.393 . S
C1401 C1400 1.391 . S
C1402 H1392 0.950 . S
C1402 C1403 1.386 . S
C1402 C1404 1.391 . S
C1403 C1402 1.386 . S
C1403 C1407 1.393 . S
C1404 H1393 0.950 . S
C1404 C1402 1.391 . S
C1404 C1405 1.400 . S
C1405 C1399 1.491 . S
C1405 C1404 1.400 . S
C1405 C1406 1.398 . S
C1406 H1394 0.950 . S
C1406 C1405 1.398 . S
C1406 C1407 1.391 . S
C1407 H1395 0.950 . S
C1407 C1403 1.393 . S
C1407 C1406 1.391 . S
H1408 C1416 0.950 . S
H1409 C1421 0.950 . S
H1410 C1418 0.950 . S
H1411 C1420 0.950 . S
H1412 C1422 0.950 . S
H1413 C1424 0.950 . S
H1414 C1426 0.950 . S
H1415 C1427 0.950 . S
C1416 H1408 0.950 . S
C1416 C1417 1.386 . S
C1416 C1418 1.391 . S
C1417 C1416 1.386 . S
C1417 C1421 1.393 . S
C1418 H1410 0.950 . S
C1418 C1416 1.391 . S
C1418 C1419 1.400 . S
C1419 C1418 1.400 . S
C1419 C1420 1.398 . S
C1419 C1425 1.491 . S
C1420 H1411 0.950 . S
C1420 C1419 1.398 . S
C1420 C1421 1.391 . S
C1421 H1409 0.950 . S
C1421 C1417 1.393 . S
C1421 C1420 1.391 . S
C1422 H1412 0.950 . S
C1422 C1423 1.386 . S
C1422 C1424 1.391 . S
C1423 C1422 1.386 . S
C1423 C1427 1.393 . S
C1424 H1413 0.950 . S
C1424 C1422 1.391 . S
C1424 C1425 1.400 . S
C1425 C1419 1.491 . S
C1425 C1424 1.400 . S
C1425 C1426 1.398 . S
C1426 H1414 0.950 . S
C1426 C1425 1.398 . S
C1426 C1427 1.391 . S
C1427 H1415 0.950 . S
C1427 C1423 1.393 . S
C1427 C1426 1.391 . S
H1428 C1436 0.950 . S
H1429 C1441 0.950 . S
H1430 C1438 0.950 . S
H1431 C1440 0.950 . S
H1432 C1442 0.950 . S
H1433 C1444 0.950 . S
H1434 C1446 0.950 . S
H1435 C1447 0.950 . S
C1436 H1428 0.950 . S
C1436 C1437 1.386 . S
C1436 C1438 1.391 . S
C1437 C1436 1.386 . S
C1437 C1441 1.393 . S
C1438 H1430 0.950 . S
C1438 C1436 1.391 . S
C1438 C1439 1.400 . S
C1439 C1438 1.400 . S
C1439 C1440 1.398 . S
C1439 C1445 1.491 . S
C1440 H1431 0.950 . S
C1440 C1439 1.398 . S
C1440 C1441 1.391 . S
C1441 H1429 0.950 . S
C1441 C1437 1.393 . S
C1441 C1440 1.391 . S
C1442 H1432 0.950 . S
C1442 C1443 1.386 . S
C1442 C1444 1.391 . S
C1443 C1442 1.386 . S
C1443 C1447 1.393 . S
C1444 H1433 0.950 . S
C1444 C1442 1.391 . S
C1444 C1445 1.400 . S
C1445 C1439 1.491 . S
C1445 C1444 1.400 . S
C1445 C1446 1.398 . S
C1446 H1434 0.950 . S
C1446 C1445 1.398 . S
C1446 C1447 1.391 . S
C1447 H1435 0.950 . S
C1447 C1443 1.393 . S
C1447 C1446 1.391 . S
H1448 C1456 0.950 . S
H1449 C1461 0.950 . S
H1450 C1458 0.950 . S
H1451 C1460 0.950 . S
H1452 C1462 0.950 . S
H1453 C1464 0.950 . S
H1454 C1466 0.950 . S
H1455 C1467 0.950 . S
C1456 H1448 0.950 . S
C1456 C1457 1.386 . S
C1456 C1458 1.391 . S
C1457 C1456 1.386 . S
C1457 C1461 1.393 . S
C1458 H1450 0.950 . S
C1458 C1456 1.391 . S
C1458 C1459 1.400 . S
C1459 C1458 1.400 . S
C1459 C1460 1.398 . S
C1459 C1465 1.491 . S
C1460 H1451 0.950 . S
C1460 C1459 1.398 . S
C1460 C1461 1.391 . S
C1461 H1449 0.950 . S
C1461 C1457 1.393 . S
C1461 C1460 1.391 . S
C1462 H1452 0.950 . S
C1462 C1463 1.386 . S
C1462 C1464 1.391 . S
C1463 C1462 1.386 . S
C1463 C1467 1.393 . S
C1464 H1453 0.950 . S
C1464 C1462 1.391 . S
C1464 C1465 1.400 . S
C1465 C1459 1.491 . S
C1465 C1464 1.400 . S
C1465 C1466 1.398 . S
C1466 H1454 0.950 . S
C1466 C1465 1.398 . S
C1466 C1467 1.391 . S
C1467 H1455 0.950 . S
C1467 C1463 1.393 . S
C1467 C1466 1.391 . S
H1468 C1476 0.950 . S
H1469 C1481 0.950 . S
H1470 C1478 0.950 . S
H1471 C1480 0.950 . S
H1472 C1482 0.950 . S
H1473 C1484 0.950 . S
H1474 C1486 0.950 . S
H1475 C1487 0.950 . S
C1476 H1468 0.950 . S
C1476 C1477 1.386 . S
C1476 C1478 1.391 . S
C1477 C1476 1.386 . S
C1477 C1481 1.393 . S
C1478 H1470 0.950 . S
C1478 C1476 1.391 . S
C1478 C1479 1.400 . S
C1479 C1478 1.400 . S
C1479 C1480 1.398 . S
C1479 C1485 1.491 . S
C1480 H1471 0.950 . S
C1480 C1479 1.398 . S
C1480 C1481 1.391 . S
C1481 H1469 0.950 . S
C1481 C1477 1.393 . S
C1481 C1480 1.391 . S
C1482 H1472 0.950 . S
C1482 C1483 1.386 . S
C1482 C1484 1.391 . S
C1483 C1482 1.386 . S
C1483 C1487 1.393 . S
C1484 H1473 0.950 . S
C1484 C1482 1.391 . S
C1484 C1485 1.400 . S
C1485 C1479 1.491 . S
C1485 C1484 1.400 . S
C1485 C1486 1.398 . S
C1486 H1474 0.950 . S
C1486 C1485 1.398 . S
C1486 C1487 1.391 . S
C1487 H1475 0.950 . S
C1487 C1483 1.393 . S
C1487 C1486 1.391 . S
H1488 C1496 0.950 1_455 S
H1489 C1501 0.950 . S
H1490 C1498 0.950 . S
H1491 C1500 0.950 . S
H1492 C1502 0.950 . S
H1493 C1504 0.950 . S
H1494 C1506 0.950 . S
H1495 C1507 0.950 1_556 S
C1496 H1488 0.950 1_655 S
C1496 C1497 1.386 . S
C1496 C1498 1.391 . S
C1497 C1496 1.386 . S
C1497 C1501 1.393 . S
C1498 H1490 0.950 . S
C1498 C1496 1.391 . S
C1498 C1499 1.400 . S
C1499 C1498 1.400 . S
C1499 C1500 1.398 . S
C1499 C1505 1.491 . S
C1500 H1491 0.950 . S
C1500 C1499 1.398 . S
C1500 C1501 1.391 . S
C1501 H1489 0.950 . S
C1501 C1497 1.393 . S
C1501 C1500 1.391 . S
C1502 H1492 0.950 . S
C1502 C1503 1.386 . S
C1502 C1504 1.391 . S
C1503 C1502 1.386 . S
C1503 C1507 1.393 . S
C1504 H1493 0.950 . S
C1504 C1502 1.391 . S
C1504 C1505 1.400 . S
C1505 C1499 1.491 . S
C1505 C1504 1.400 . S
C1505 C1506 1.398 . S
C1506 H1494 0.950 . S
C1506 C1505 1.398 . S
C1506 C1507 1.391 . S
C1507 H1495 0.950 1_554 S
C1507 C1503 1.393 . S
C1507 C1506 1.391 . S
H1508 C1516 0.950 . S
H1509 C1521 0.950 . S
H1510 C1518 0.950 . S
H1511 C1520 0.950 . S
H1512 C1522 0.950 . S
H1513 C1524 0.950 . S
H1514 C1526 0.950 . S
H1515 C1527 0.950 . S
C1516 H1508 0.950 . S
C1516 C1517 1.386 . S
C1516 C1518 1.391 . S
C1517 C1516 1.386 . S
C1517 C1521 1.393 . S
C1518 H1510 0.950 . S
C1518 C1516 1.391 . S
C1518 C1519 1.400 . S
C1519 C1518 1.400 . S
C1519 C1520 1.398 . S
C1519 C1525 1.491 . S
C1520 H1511 0.950 . S
C1520 C1519 1.398 . S
C1520 C1521 1.391 . S
C1521 H1509 0.950 . S
C1521 C1517 1.393 . S
C1521 C1520 1.391 . S
C1522 H1512 0.950 . S
C1522 C1523 1.386 . S
C1522 C1524 1.391 . S
C1523 C1522 1.386 . S
C1523 C1527 1.393 . S
C1524 H1513 0.950 . S
C1524 C1522 1.391 . S
C1524 C1525 1.400 . S
C1525 C1519 1.491 . S
C1525 C1524 1.400 . S
C1525 C1526 1.398 . S
C1526 H1514 0.950 . S
C1526 C1525 1.398 . S
C1526 C1527 1.391 . S
C1527 H1515 0.950 . S
C1527 C1523 1.393 . S
C1527 C1526 1.391 . S
H1528 C1536 0.950 . S
H1529 C1541 0.950 1_554 S
H1530 C1538 0.950 . S
H1531 C1540 0.950 . S
H1532 C1542 0.950 . S
H1533 C1544 0.950 . S
H1534 C1546 0.950 . S
H1535 C1547 0.950 . S
C1536 H1528 0.950 . S
C1536 C1537 1.386 . S
C1536 C1538 1.391 . S
C1537 C1536 1.386 . S
C1537 C1541 1.393 . S
C1538 H1530 0.950 . S
C1538 C1536 1.391 . S
C1538 C1539 1.400 . S
C1539 C1538 1.400 . S
C1539 C1540 1.398 . S
C1539 C1545 1.491 . S
C1540 H1531 0.950 . S
C1540 C1539 1.398 . S
C1540 C1541 1.391 . S
C1541 H1529 0.950 1_556 S
C1541 C1537 1.393 . S
C1541 C1540 1.391 . S
C1542 H1532 0.950 . S
C1542 C1543 1.386 . S
C1542 C1544 1.391 . S
C1543 C1542 1.386 . S
C1543 C1547 1.393 . S
C1544 H1533 0.950 . S
C1544 C1542 1.391 . S
C1544 C1545 1.400 . S
C1545 C1539 1.491 . S
C1545 C1544 1.400 . S
C1545 C1546 1.398 . S
C1546 H1534 0.950 . S
C1546 C1545 1.398 . S
C1546 C1547 1.391 . S
C1547 H1535 0.950 . S
C1547 C1543 1.393 . S
C1547 C1546 1.391 . S
H1548 C1556 0.950 . S
H1549 C1561 0.950 . S
H1550 C1558 0.950 . S
H1551 C1560 0.950 . S
H1552 C1562 0.950 . S
H1553 C1564 0.950 . S
H1554 C1566 0.950 . S
H1555 C1567 0.950 . S
C1556 H1548 0.950 . S
C1556 C1557 1.386 . S
C1556 C1558 1.391 . S
C1557 C1556 1.386 . S
C1557 C1561 1.393 . S
C1558 H1550 0.950 . S
C1558 C1556 1.391 . S
C1558 C1559 1.400 . S
C1559 C1558 1.400 . S
C1559 C1560 1.398 . S
C1559 C1565 1.491 . S
C1560 H1551 0.950 . S
C1560 C1559 1.398 . S
C1560 C1561 1.391 . S
C1561 H1549 0.950 . S
C1561 C1557 1.393 . S
C1561 C1560 1.391 . S
C1562 H1552 0.950 . S
C1562 C1563 1.386 . S
C1562 C1564 1.391 . S
C1563 C1562 1.386 . S
C1563 C1567 1.393 . S
C1564 H1553 0.950 . S
C1564 C1562 1.391 . S
C1564 C1565 1.400 . S
C1565 C1559 1.491 . S
C1565 C1564 1.400 . S
C1565 C1566 1.398 . S
C1566 H1554 0.950 . S
C1566 C1565 1.398 . S
C1566 C1567 1.391 . S
C1567 H1555 0.950 . S
C1567 C1563 1.393 . S
C1567 C1566 1.391 . S
H1568 C1576 0.950 . S
H1569 C1581 0.950 1_545 S
H1570 C1578 0.950 . S
H1571 C1580 0.950 . S
H1572 C1582 0.950 . S
H1573 C1584 0.950 . S
H1574 C1586 0.950 . S
H1575 C1587 0.950 . S
C1576 H1568 0.950 . S
C1576 C1577 1.386 . S
C1576 C1578 1.391 . S
C1577 C1576 1.386 . S
C1577 C1581 1.393 . S
C1578 H1570 0.950 . S
C1578 C1576 1.391 . S
C1578 C1579 1.400 . S
C1579 C1578 1.400 . S
C1579 C1580 1.398 . S
C1579 C1585 1.491 . S
C1580 H1571 0.950 . S
C1580 C1579 1.398 . S
C1580 C1581 1.391 . S
C1581 H1569 0.950 1_565 S
C1581 C1577 1.393 . S
C1581 C1580 1.391 . S
C1582 H1572 0.950 . S
C1582 C1583 1.386 . S
C1582 C1584 1.391 . S
C1583 C1582 1.386 . S
C1583 C1587 1.393 . S
C1584 H1573 0.950 . S
C1584 C1582 1.391 . S
C1584 C1585 1.400 . S
C1585 C1579 1.491 . S
C1585 C1584 1.400 . S
C1585 C1586 1.398 . S
C1586 H1574 0.950 . S
C1586 C1585 1.398 . S
C1586 C1587 1.391 . S
C1587 H1575 0.950 . S
C1587 C1583 1.393 . S
C1587 C1586 1.391 . S
H1588 C1596 0.950 . S
H1589 C1601 0.950 . S
H1590 C1598 0.950 . S
H1591 C1600 0.950 . S
H1592 C1602 0.950 . S
H1593 C1604 0.950 . S
H1594 C1606 0.950 . S
H1595 C1607 0.950 1_565 S
C1596 H1588 0.950 . S
C1596 C1597 1.386 . S
C1596 C1598 1.391 . S
C1597 C1596 1.386 . S
C1597 C1601 1.393 . S
C1598 H1590 0.950 . S
C1598 C1596 1.391 . S
C1598 C1599 1.400 . S
C1599 C1598 1.400 . S
C1599 C1600 1.398 . S
C1599 C1605 1.491 . S
C1600 H1591 0.950 . S
C1600 C1599 1.398 . S
C1600 C1601 1.391 . S
C1601 H1589 0.950 . S
C1601 C1597 1.393 . S
C1601 C1600 1.391 . S
C1602 H1592 0.950 . S
C1602 C1603 1.386 . S
C1602 C1604 1.391 . S
C1603 C1602 1.386 . S
C1603 C1607 1.393 . S
C1604 H1593 0.950 . S
C1604 C1602 1.391 . S
C1604 C1605 1.400 . S
C1605 C1599 1.491 . S
C1605 C1604 1.400 . S
C1605 C1606 1.398 . S
C1606 H1594 0.950 . S
C1606 C1605 1.398 . S
C1606 C1607 1.391 . S
C1607 H1595 0.950 1_545 S
C1607 C1603 1.393 . S
C1607 C1606 1.391 . S
H1608 C1616 0.950 . S
H1609 C1621 0.950 . S
H1610 C1618 0.950 . S
H1611 C1620 0.950 . S
H1612 C1622 0.950 . S
H1613 C1624 0.950 . S
H1614 C1626 0.950 . S
H1615 C1627 0.950 . S
C1616 H1608 0.950 . S
C1616 C1617 1.386 . S
C1616 C1618 1.391 . S
C1617 C1616 1.386 . S
C1617 C1621 1.393 . S
C1618 H1610 0.950 . S
C1618 C1616 1.391 . S
C1618 C1619 1.400 . S
C1619 C1618 1.400 . S
C1619 C1620 1.398 . S
C1619 C1625 1.491 . S
C1620 H1611 0.950 . S
C1620 C1619 1.398 . S
C1620 C1621 1.391 . S
C1621 H1609 0.950 . S
C1621 C1617 1.393 . S
C1621 C1620 1.391 . S
C1622 H1612 0.950 . S
C1622 C1623 1.386 . S
C1622 C1624 1.391 . S
C1623 C1622 1.386 . S
C1623 C1627 1.393 . S
C1624 H1613 0.950 . S
C1624 C1622 1.391 . S
C1624 C1625 1.400 . S
C1625 C1619 1.491 . S
C1625 C1624 1.400 . S
C1625 C1626 1.398 . S
C1626 H1614 0.950 . S
C1626 C1625 1.398 . S
C1626 C1627 1.391 . S
C1627 H1615 0.950 . S
C1627 C1623 1.393 . S
C1627 C1626 1.391 . S
H1628 C1636 0.950 . S
H1629 C1641 0.950 1_455 S
H1630 C1638 0.950 . S
H1631 C1640 0.950 . S
H1632 C1642 0.950 . S
H1633 C1644 0.950 . S
H1634 C1646 0.950 . S
H1635 C1647 0.950 . S
C1636 H1628 0.950 . S
C1636 C1637 1.386 . S
C1636 C1638 1.391 . S
C1637 C1636 1.386 . S
C1637 C1641 1.393 . S
C1638 H1630 0.950 . S
C1638 C1636 1.391 . S
C1638 C1639 1.400 . S
C1639 C1638 1.400 . S
C1639 C1640 1.398 . S
C1639 C1645 1.491 . S
C1640 H1631 0.950 . S
C1640 C1639 1.398 . S
C1640 C1641 1.391 . S
C1641 H1629 0.950 1_655 S
C1641 C1637 1.393 . S
C1641 C1640 1.391 . S
C1642 H1632 0.950 . S
C1642 C1643 1.386 . S
C1642 C1644 1.391 . S
C1643 C1642 1.386 . S
C1643 C1647 1.393 . S
C1644 H1633 0.950 . S
C1644 C1642 1.391 . S
C1644 C1645 1.400 . S
C1645 C1639 1.491 . S
C1645 C1644 1.400 . S
C1645 C1646 1.398 . S
C1646 H1634 0.950 . S
C1646 C1645 1.398 . S
C1646 C1647 1.391 . S
C1647 H1635 0.950 . S
C1647 C1643 1.393 . S
C1647 C1646 1.391 . S
H1648 C1656 0.950 1_554 S
H1649 C1661 0.950 . S
H1650 C1658 0.950 . S
H1651 C1660 0.950 . S
H1652 C1662 0.950 . S
H1653 C1664 0.950 . S
H1654 C1666 0.950 . S
H1655 C1667 0.950 1_565 S
C1656 H1648 0.950 1_556 S
C1656 C1657 1.386 . S
C1656 C1658 1.391 . S
C1657 C1656 1.386 . S
C1657 C1661 1.393 . S
C1658 H1650 0.950 . S
C1658 C1656 1.391 . S
C1658 C1659 1.400 . S
C1659 C1658 1.400 . S
C1659 C1660 1.398 . S
C1659 C1665 1.491 . S
C1660 H1651 0.950 . S
C1660 C1659 1.398 . S
C1660 C1661 1.391 . S
C1661 H1649 0.950 . S
C1661 C1657 1.393 . S
C1661 C1660 1.391 . S
C1662 H1652 0.950 . S
C1662 C1663 1.386 . S
C1662 C1664 1.391 . S
C1663 C1662 1.386 . S
C1663 C1667 1.393 . S
C1664 H1653 0.950 . S
C1664 C1662 1.391 . S
C1664 C1665 1.400 . S
C1665 C1659 1.491 . S
C1665 C1664 1.400 . S
C1665 C1666 1.398 . S
C1666 H1654 0.950 . S
C1666 C1665 1.398 . S
C1666 C1667 1.391 . S
C1667 H1655 0.950 1_545 S
C1667 C1663 1.393 . S
C1667 C1666 1.391 . S
H1668 C1676 0.942 1_556 S
H1669 C1681 0.950 . S
H1670 C1678 0.950 . S
H1671 C1680 0.950 . S
H1672 C1682 0.950 . S
H1673 C1684 0.950 . S
H1674 C1686 0.950 . S
H1675 C1687 0.950 . S
C1676 H1668 0.942 1_554 S
C1676 C1677 1.386 . S
C1676 C1678 1.391 . S
C1677 C1676 1.386 . S
C1677 C1681 1.393 . S
C1678 H1670 0.950 . S
C1678 C1676 1.391 . S
C1678 C1679 1.400 . S
C1679 C1678 1.400 . S
C1679 C1680 1.398 . S
C1679 C1685 1.491 . S
C1680 H1671 0.950 . S
C1680 C1679 1.398 . S
C1680 C1681 1.391 . S
C1681 H1669 0.950 . S
C1681 C1677 1.393 . S
C1681 C1680 1.391 . S
C1682 H1672 0.950 . S
C1682 C1683 1.386 . S
C1682 C1684 1.391 . S
C1683 C1682 1.386 . S
C1683 C1687 1.393 . S
C1684 H1673 0.950 . S
C1684 C1682 1.391 . S
C1684 C1685 1.400 . S
C1685 C1679 1.491 . S
C1685 C1684 1.400 . S
C1685 C1686 1.398 . S
C1686 H1674 0.950 . S
C1686 C1685 1.398 . S
C1686 C1687 1.391 . S
C1687 H1675 0.950 . S
C1687 C1683 1.393 . S
C1687 C1686 1.391 . S
H1688 C1696 0.950 . S
H1689 C1701 0.950 . S
H1690 C1698 0.950 . S
H1691 C1700 0.950 . S
H1692 C1702 0.950 . S
H1693 C1704 0.950 . S
H1694 C1706 0.950 . S
H1695 C1707 0.950 . S
C1696 H1688 0.950 . S
C1696 C1697 1.386 . S
C1696 C1698 1.391 . S
C1697 C1696 1.386 . S
C1697 C1701 1.393 . S
C1698 H1690 0.950 . S
C1698 C1696 1.391 . S
C1698 C1699 1.400 . S
C1699 C1698 1.400 . S
C1699 C1700 1.398 . S
C1699 C1705 1.491 . S
C1700 H1691 0.950 . S
C1700 C1699 1.398 . S
C1700 C1701 1.391 . S
C1701 H1689 0.950 . S
C1701 C1697 1.393 . S
C1701 C1700 1.391 . S
C1702 H1692 0.950 . S
C1702 C1703 1.386 . S
C1702 C1704 1.391 . S
C1703 C1702 1.386 . S
C1703 C1707 1.393 . S
C1704 H1693 0.950 . S
C1704 C1702 1.391 . S
C1704 C1705 1.400 . S
C1705 C1699 1.491 . S
C1705 C1704 1.400 . S
C1705 C1706 1.398 . S
C1706 H1694 0.950 . S
C1706 C1705 1.398 . S
C1706 C1707 1.391 . S
C1707 H1695 0.950 . S
C1707 C1703 1.393 . S
C1707 C1706 1.391 . S
H1708 C1716 0.950 . S
H1709 C1721 0.950 . S
H1710 C1718 0.950 . S
H1711 C1720 0.950 . S
H1712 C1722 0.950 . S
H1713 C1724 0.950 . S
H1714 C1726 0.950 . S
H1715 C1727 0.950 . S
C1716 H1708 0.950 . S
C1716 C1717 1.386 . S
C1716 C1718 1.391 . S
C1717 C1716 1.386 . S
C1717 C1721 1.393 . S
C1718 H1710 0.950 . S
C1718 C1716 1.391 . S
C1718 C1719 1.400 . S
C1719 C1718 1.400 . S
C1719 C1720 1.398 . S
C1719 C1725 1.491 . S
C1720 H1711 0.950 . S
C1720 C1719 1.398 . S
C1720 C1721 1.391 . S
C1721 H1709 0.950 . S
C1721 C1717 1.393 . S
C1721 C1720 1.391 . S
C1722 H1712 0.950 . S
C1722 C1723 1.386 . S
C1722 C1724 1.391 . S
C1723 C1722 1.386 . S
C1723 C1727 1.393 . S
C1724 H1713 0.950 . S
C1724 C1722 1.391 . S
C1724 C1725 1.400 . S
C1725 C1719 1.491 . S
C1725 C1724 1.400 . S
C1725 C1726 1.398 . S
C1726 H1714 0.950 . S
C1726 C1725 1.398 . S
C1726 C1727 1.391 . S
C1727 H1715 0.950 . S
C1727 C1723 1.393 . S
C1727 C1726 1.391 . S
H1728 C1736 0.950 . S
H1729 C1741 0.950 . S
H1730 C1738 0.950 . S
H1731 C1740 0.950 . S
H1732 C1742 0.950 . S
H1733 C1744 0.950 . S
H1734 C1746 0.950 . S
H1735 C1747 0.950 . S
C1736 H1728 0.950 . S
C1736 C1737 1.386 . S
C1736 C1738 1.391 . S
C1737 C1736 1.386 . S
C1737 C1741 1.393 . S
C1738 H1730 0.950 . S
C1738 C1736 1.391 . S
C1738 C1739 1.400 . S
C1739 C1738 1.400 . S
C1739 C1740 1.398 . S
C1739 C1745 1.491 . S
C1740 H1731 0.950 . S
C1740 C1739 1.398 . S
C1740 C1741 1.391 . S
C1741 H1729 0.950 . S
C1741 C1737 1.393 . S
C1741 C1740 1.391 . S
C1742 H1732 0.950 . S
C1742 C1743 1.386 . S
C1742 C1744 1.391 . S
C1743 C1742 1.386 . S
C1743 C1747 1.393 . S
C1744 H1733 0.950 . S
C1744 C1742 1.391 . S
C1744 C1745 1.400 . S
C1745 C1739 1.491 . S
C1745 C1744 1.400 . S
C1745 C1746 1.398 . S
C1746 H1734 0.950 . S
C1746 C1745 1.398 . S
C1746 C1747 1.391 . S
C1747 H1735 0.950 . S
C1747 C1743 1.393 . S
C1747 C1746 1.391 . S
H1748 C1756 0.950 . S
H1749 C1761 0.950 . S
H1750 C1758 0.950 . S
H1751 C1760 0.950 . S
H1752 C1762 0.950 . S
H1753 C1764 0.950 . S
H1754 C1766 0.950 . S
H1755 C1767 0.950 . S
C1756 H1748 0.950 . S
C1756 C1757 1.386 . S
C1756 C1758 1.391 . S
C1757 C1756 1.386 . S
C1757 C1761 1.393 . S
C1758 H1750 0.950 . S
C1758 C1756 1.391 . S
C1758 C1759 1.400 . S
C1759 C1758 1.400 . S
C1759 C1760 1.398 . S
C1759 C1765 1.491 . S
C1760 H1751 0.950 . S
C1760 C1759 1.398 . S
C1760 C1761 1.391 . S
C1761 H1749 0.950 . S
C1761 C1757 1.393 . S
C1761 C1760 1.391 . S
C1762 H1752 0.950 . S
C1762 C1763 1.386 . S
C1762 C1764 1.391 . S
C1763 C1762 1.386 . S
C1763 C1767 1.393 . S
C1764 H1753 0.950 . S
C1764 C1762 1.391 . S
C1764 C1765 1.400 . S
C1765 C1759 1.491 . S
C1765 C1764 1.400 . S
C1765 C1766 1.398 . S
C1766 H1754 0.950 . S
C1766 C1765 1.398 . S
C1766 C1767 1.391 . S
C1767 H1755 0.950 . S
C1767 C1763 1.393 . S
C1767 C1766 1.391 . S
H1768 C1776 0.950 . S
H1769 C1781 0.950 1_556 S
H1770 C1778 0.950 . S
H1771 C1780 0.950 . S
H1772 C1782 0.950 . S
H1773 C1784 0.950 . S
H1774 C1786 0.950 . S
H1775 C1787 0.950 . S
C1776 H1768 0.950 . S
C1776 C1777 1.386 . S
C1776 C1778 1.391 . S
C1777 C1776 1.386 . S
C1777 C1781 1.393 . S
C1778 H1770 0.950 . S
C1778 C1776 1.391 . S
C1778 C1779 1.400 . S
C1779 C1778 1.400 . S
C1779 C1780 1.398 . S
C1779 C1785 1.491 . S
C1780 H1771 0.950 . S
C1780 C1779 1.398 . S
C1780 C1781 1.391 . S
C1781 H1769 0.950 1_554 S
C1781 C1777 1.393 . S
C1781 C1780 1.391 . S
C1782 H1772 0.950 . S
C1782 C1783 1.386 . S
C1782 C1784 1.391 . S
C1783 C1782 1.386 . S
C1783 C1787 1.393 . S
C1784 H1773 0.950 . S
C1784 C1782 1.391 . S
C1784 C1785 1.400 . S
C1785 C1779 1.491 . S
C1785 C1784 1.400 . S
C1785 C1786 1.398 . S
C1786 H1774 0.950 . S
C1786 C1785 1.398 . S
C1786 C1787 1.391 . S
C1787 H1775 0.950 . S
C1787 C1783 1.393 . S
C1787 C1786 1.391 . S
H1788 C1796 0.950 . S
H1789 C1801 0.950 . S
H1790 C1798 0.950 . S
H1791 C1800 0.950 . S
H1792 C1802 0.950 . S
H1793 C1804 0.950 . S
H1794 C1806 0.950 . S
H1795 C1807 0.950 . S
C1796 H1788 0.950 . S
C1796 C1797 1.386 . S
C1796 C1798 1.391 . S
C1797 C1796 1.386 . S
C1797 C1801 1.393 . S
C1798 H1790 0.950 . S
C1798 C1796 1.391 . S
C1798 C1799 1.400 . S
C1799 C1798 1.400 . S
C1799 C1800 1.398 . S
C1799 C1805 1.491 . S
C1800 H1791 0.950 . S
C1800 C1799 1.398 . S
C1800 C1801 1.391 . S
C1801 H1789 0.950 . S
C1801 C1797 1.393 . S
C1801 C1800 1.391 . S
C1802 H1792 0.950 . S
C1802 C1803 1.386 . S
C1802 C1804 1.391 . S
C1803 C1802 1.386 . S
C1803 C1807 1.393 . S
C1804 H1793 0.950 . S
C1804 C1802 1.391 . S
C1804 C1805 1.400 . S
C1805 C1799 1.491 . S
C1805 C1804 1.400 . S
C1805 C1806 1.398 . S
C1806 H1794 0.950 . S
C1806 C1805 1.398 . S
C1806 C1807 1.391 . S
C1807 H1795 0.950 . S
C1807 C1803 1.393 . S
C1807 C1806 1.391 . S
H1808 C1816 0.950 . S
H1809 C1821 0.950 . S
H1810 C1818 0.950 . S
H1811 C1820 0.950 . S
H1812 C1822 0.950 . S
H1813 C1824 0.950 . S
H1814 C1826 0.950 . S
H1815 C1827 0.950 . S
C1816 H1808 0.950 . S
C1816 C1817 1.386 . S
C1816 C1818 1.391 . S
C1817 C1816 1.386 . S
C1817 C1821 1.393 . S
C1818 H1810 0.950 . S
C1818 C1816 1.391 . S
C1818 C1819 1.400 . S
C1819 C1818 1.400 . S
C1819 C1820 1.398 . S
C1819 C1825 1.491 . S
C1820 H1811 0.950 . S
C1820 C1819 1.398 . S
C1820 C1821 1.391 . S
C1821 H1809 0.950 . S
C1821 C1817 1.393 . S
C1821 C1820 1.391 . S
C1822 H1812 0.950 . S
C1822 C1823 1.386 . S
C1822 C1824 1.391 . S
C1823 C1822 1.386 . S
C1823 C1827 1.393 . S
C1824 H1813 0.950 . S
C1824 C1822 1.391 . S
C1824 C1825 1.400 . S
C1825 C1819 1.491 . S
C1825 C1824 1.400 . S
C1825 C1826 1.398 . S
C1826 H1814 0.950 . S
C1826 C1825 1.398 . S
C1826 C1827 1.391 . S
C1827 H1815 0.950 . S
C1827 C1823 1.393 . S
C1827 C1826 1.391 . S
H1828 C1836 0.950 1_545 S
H1829 C1841 0.950 . S
H1830 C1838 0.950 . S
H1831 C1840 0.950 . S
H1832 C1842 0.950 . S
H1833 C1844 0.950 . S
H1834 C1846 0.950 . S
H1835 C1847 0.950 . S
C1836 H1828 0.950 1_565 S
C1836 C1837 1.386 . S
C1836 C1838 1.391 . S
C1837 C1836 1.386 . S
C1837 C1841 1.393 . S
C1838 H1830 0.950 . S
C1838 C1836 1.391 . S
C1838 C1839 1.400 . S
C1839 C1838 1.400 . S
C1839 C1840 1.398 . S
C1839 C1845 1.491 . S
C1840 H1831 0.950 . S
C1840 C1839 1.398 . S
C1840 C1841 1.391 . S
C1841 H1829 0.950 . S
C1841 C1837 1.393 . S
C1841 C1840 1.391 . S
C1842 H1832 0.950 . S
C1842 C1843 1.386 . S
C1842 C1844 1.391 . S
C1843 C1842 1.386 . S
C1843 C1847 1.393 . S
C1844 H1833 0.950 . S
C1844 C1842 1.391 . S
C1844 C1845 1.400 . S
C1845 C1839 1.491 . S
C1845 C1844 1.400 . S
C1845 C1846 1.398 . S
C1846 H1834 0.950 . S
C1846 C1845 1.398 . S
C1846 C1847 1.391 . S
C1847 H1835 0.950 . S
C1847 C1843 1.393 . S
C1847 C1846 1.391 . S
H1848 C1856 0.950 . S
H1849 C1861 0.950 . S
H1850 C1858 0.950 . S
H1851 C1860 0.950 . S
H1852 C1862 0.950 . S
H1853 C1864 0.950 . S
H1854 C1866 0.950 . S
H1855 C1867 0.950 . S
C1856 H1848 0.950 . S
C1856 C1857 1.386 . S
C1856 C1858 1.391 . S
C1857 C1856 1.386 . S
C1857 C1861 1.393 . S
C1858 H1850 0.950 . S
C1858 C1856 1.391 . S
C1858 C1859 1.400 . S
C1859 C1858 1.400 . S
C1859 C1860 1.398 . S
C1859 C1865 1.491 . S
C1860 H1851 0.950 . S
C1860 C1859 1.398 . S
C1860 C1861 1.391 . S
C1861 H1849 0.950 . S
C1861 C1857 1.393 . S
C1861 C1860 1.391 . S
C1862 H1852 0.950 . S
C1862 C1863 1.386 . S
C1862 C1864 1.391 . S
C1863 C1862 1.386 . S
C1863 C1867 1.393 . S
C1864 H1853 0.950 . S
C1864 C1862 1.391 . S
C1864 C1865 1.400 . S
C1865 C1859 1.491 . S
C1865 C1864 1.400 . S
C1865 C1866 1.398 . S
C1866 H1854 0.950 . S
C1866 C1865 1.398 . S
C1866 C1867 1.391 . S
C1867 H1855 0.950 . S
C1867 C1863 1.393 . S
C1867 C1866 1.391 . S
H1868 C1876 0.950 . S
H1869 C1881 0.950 . S
H1870 C1878 0.950 . S
H1871 C1880 0.950 . S
H1872 C1882 0.950 . S
H1873 C1884 0.950 . S
H1874 C1886 0.950 . S
H1875 C1887 0.950 1_655 S
C1876 H1868 0.950 . S
C1876 C1877 1.386 . S
C1876 C1878 1.391 . S
C1877 C1876 1.386 . S
C1877 C1881 1.393 . S
C1878 H1870 0.950 . S
C1878 C1876 1.391 . S
C1878 C1879 1.400 . S
C1879 C1878 1.400 . S
C1879 C1880 1.398 . S
C1879 C1885 1.491 . S
C1880 H1871 0.950 . S
C1880 C1879 1.398 . S
C1880 C1881 1.391 . S
C1881 H1869 0.950 . S
C1881 C1877 1.393 . S
C1881 C1880 1.391 . S
C1882 H1872 0.950 . S
C1882 C1883 1.386 . S
C1882 C1884 1.391 . S
C1883 C1882 1.386 . S
C1883 C1887 1.393 . S
C1884 H1873 0.950 . S
C1884 C1882 1.391 . S
C1884 C1885 1.400 . S
C1885 C1879 1.491 . S
C1885 C1884 1.400 . S
C1885 C1886 1.398 . S
C1886 H1874 0.950 . S
C1886 C1885 1.398 . S
C1886 C1887 1.391 . S
C1887 H1875 0.950 1_455 S
C1887 C1883 1.393 . S
C1887 C1886 1.391 . S
H1888 C1896 0.950 1_556 S
H1889 C1901 0.950 . S
H1890 C1898 0.950 . S
H1891 C1900 0.950 . S
H1892 C1902 0.950 . S
H1893 C1904 0.950 . S
H1894 C1906 0.950 . S
H1895 C1907 0.950 1_545 S
C1896 H1888 0.950 1_554 S
C1896 C1897 1.386 . S
C1896 C1898 1.391 . S
C1897 C1896 1.386 . S
C1897 C1901 1.393 . S
C1898 H1890 0.950 . S
C1898 C1896 1.391 . S
C1898 C1899 1.400 . S
C1899 C1898 1.400 . S
C1899 C1900 1.398 . S
C1899 C1905 1.491 . S
C1900 H1891 0.950 . S
C1900 C1899 1.398 . S
C1900 C1901 1.391 . S
C1901 H1889 0.950 . S
C1901 C1897 1.393 . S
C1901 C1900 1.391 . S
C1902 H1892 0.950 . S
C1902 C1903 1.386 . S
C1902 C1904 1.391 . S
C1903 C1902 1.386 . S
C1903 C1907 1.393 . S
C1904 H1893 0.950 . S
C1904 C1902 1.391 . S
C1904 C1905 1.400 . S
C1905 C1899 1.491 . S
C1905 C1904 1.400 . S
C1905 C1906 1.398 . S
C1906 H1894 0.950 . S
C1906 C1905 1.398 . S
C1906 C1907 1.391 . S
C1907 H1895 0.950 1_565 S
C1907 C1903 1.393 . S
C1907 C1906 1.391 . S
H1908 C1916 0.950 . S
H1909 C1921 0.950 . S
H1910 C1918 0.950 . S
H1911 C1920 0.950 . S
H1912 C1922 0.950 . S
H1913 C1924 0.950 . S
H1914 C1926 0.950 . S
H1915 C1927 0.950 . S
C1916 H1908 0.950 . S
C1916 C1917 1.386 . S
C1916 C1918 1.391 . S
C1917 C1916 1.386 . S
C1917 C1921 1.393 . S
C1918 H1910 0.950 . S
C1918 C1916 1.391 . S
C1918 C1919 1.400 . S
C1919 C1918 1.400 . S
C1919 C1920 1.398 . S
C1919 C1925 1.491 . S
C1920 H1911 0.950 . S
C1920 C1919 1.398 . S
C1920 C1921 1.391 . S
C1921 H1909 0.950 . S
C1921 C1917 1.393 . S
C1921 C1920 1.391 . S
C1922 H1912 0.950 . S
C1922 C1923 1.386 . S
C1922 C1924 1.391 . S
C1923 C1922 1.386 . S
C1923 C1927 1.393 . S
C1924 H1913 0.950 . S
C1924 C1922 1.391 . S
C1924 C1925 1.400 . S
C1925 C1919 1.491 . S
C1925 C1924 1.400 . S
C1925 C1926 1.398 . S
C1926 H1914 0.950 . S
C1926 C1925 1.398 . S
C1926 C1927 1.391 . S
C1927 H1915 0.950 . S
C1927 C1923 1.393 . S
C1927 C1926 1.391 . S
H1928 C1936 0.950 . S
H1929 C1941 0.950 . S
H1930 C1938 0.950 . S
H1931 C1940 0.950 . S
H1932 C1942 0.950 . S
H1933 C1944 0.950 . S
H1934 C1946 0.950 . S
H1935 C1947 0.950 . S
C1936 H1928 0.950 . S
C1936 C1937 1.386 . S
C1936 C1938 1.391 . S
C1937 C1936 1.386 . S
C1937 C1941 1.393 . S
C1938 H1930 0.950 . S
C1938 C1936 1.391 . S
C1938 C1939 1.400 . S
C1939 C1938 1.400 . S
C1939 C1940 1.398 . S
C1939 C1945 1.491 . S
C1940 H1931 0.950 . S
C1940 C1939 1.398 . S
C1940 C1941 1.391 . S
C1941 H1929 0.950 . S
C1941 C1937 1.393 . S
C1941 C1940 1.391 . S
C1942 H1932 0.950 . S
C1942 C1943 1.386 . S
C1942 C1944 1.391 . S
C1943 C1942 1.386 . S
C1943 C1947 1.393 . S
C1944 H1933 0.950 . S
C1944 C1942 1.391 . S
C1944 C1945 1.400 . S
C1945 C1939 1.491 . S
C1945 C1944 1.400 . S
C1945 C1946 1.398 . S
C1946 H1934 0.950 . S
C1946 C1945 1.398 . S
C1946 C1947 1.391 . S
C1947 H1935 0.950 . S
C1947 C1943 1.393 . S
C1947 C1946 1.391 . S
H1948 C1956 0.950 . S
H1949 C1961 0.950 . S
H1950 C1958 0.950 . S
H1951 C1960 0.950 . S
H1952 C1962 0.950 . S
H1953 C1964 0.950 . S
H1954 C1966 0.950 . S
H1955 C1967 0.950 . S
C1956 H1948 0.950 . S
C1956 C1957 1.386 . S
C1956 C1958 1.391 . S
C1957 C1956 1.386 . S
C1957 C1961 1.393 . S
C1958 H1950 0.950 . S
C1958 C1956 1.391 . S
C1958 C1959 1.400 . S
C1959 C1958 1.400 . S
C1959 C1960 1.398 . S
C1959 C1965 1.491 . S
C1960 H1951 0.950 . S
C1960 C1959 1.398 . S
C1960 C1961 1.391 . S
C1961 H1949 0.950 . S
C1961 C1957 1.393 . S
C1961 C1960 1.391 . S
C1962 H1952 0.950 . S
C1962 C1963 1.386 . S
C1962 C1964 1.391 . S
C1963 C1962 1.386 . S
C1963 C1967 1.393 . S
C1964 H1953 0.950 . S
C1964 C1962 1.391 . S
C1964 C1965 1.400 . S
C1965 C1959 1.491 . S
C1965 C1964 1.400 . S
C1965 C1966 1.398 . S
C1966 H1954 0.950 . S
C1966 C1965 1.398 . S
C1966 C1967 1.391 . S
C1967 H1955 0.950 . S
C1967 C1963 1.393 . S
C1967 C1966 1.391 . S
C537 C7 1.785 . S
C543 C401 1.721 . S
C557 C427 1.733 . S
C563 C29 1.780 . S
C577 C50 1.778 . S
C583 C361 1.736 . S
C597 C72 1.787 . S
C603 C379 1.720 . S
C617 C489 1.731 . S
C623 C95 1.781 . S
C637 C116 1.775 . S
C643 C467 1.741 . S
C657 C515 1.730 . S
C663 C138 1.780 . S
C677 C161 1.787 . S
C683 C449 1.719 . S
C697 C183 1.784 . S
C703 C291 1.725 . S
C717 C204 1.778 . S
C723 C335 1.736 . S
C737 C313 1.742 . S
C743 C226 1.775 . S
C757 C249 1.776 . S
C763 C269 1.740 . S
C777 C273 1.785 . S
C783 C139 1.722 . S
C797 C295 1.776 . S
C803 C160 1.741 . S
C817 C317 1.782 . S
C823 C94 1.727 . S
C837 C117 1.722 . S
C843 C339 1.786 . S
C857 C357 1.776 . S
C863 C227 1.738 . S
C877 C205 1.729 . S
C883 C383 1.781 . S
C897 C248 1.742 . S
C903 C405 1.775 . S
C917 C182 1.726 . S
C923 C423 1.783 . S
C937 C28 1.724 . S
C943 C445 1.783 . S
C957 C73 1.741 . S
C963 C471 1.775 . S
C977 C51 1.741 . S
C983 C493 1.775 . S
C997 C511 1.777 . S
C1003 C6 1.738 . S
C1017 C96 1.195 . S
C1023 C9 1.125 . S
C1037 C114 1.193 . S
C1043 C31 1.118 . S
C1057 C136 1.190 . S
C1063 C49 1.114 . S
C1077 C162 1.198 . S
C1083 C71 1.150 . S
C1097 C97 1.151 . S
C1103 C184 1.198 . S
C1117 C115 1.119 . S
C1123 C250 1.193 . S
C1137 C137 1.149 . S
C1143 C202 1.197 . S
C1157 C163 1.116 . S
C1163 C224 1.193 . S
C1177 C185 1.134 . S
C1183 C8 1.197 . S
C1197 C203 1.150 . S
C1203 C48 1.197 . S
C1217 C225 1.149 . S
C1223 C70 1.197 . S
C1237 C30 1.192 . S
C1243 C251 1.114 . S
C1257 C356 1.195 . S
C1263 C271 1.128 . S
C1277 C382 1.193 . S
C1283 C293 1.119 . S
C1297 C315 1.144 . S
C1303 C404 1.196 . S
C1317 C337 1.112 . S
C1323 C422 1.191 . S
C1337 C444 1.194 . S
C1343 C358 1.119 . S
C1357 C381 1.137 . S
C1363 C510 1.194 . S
C1377 C470 1.195 . S
C1383 C403 1.142 . S
C1397 C424 1.111 . S
C1403 C492 1.190 . S
C1417 C272 1.198 . S
C1423 C446 1.151 . S
C1437 C469 1.118 . S
C1443 C316 1.193 . S
C1457 C491 1.110 . S
C1463 C338 1.190 . S
C1477 C294 1.193 . S
C1483 C512 1.130 . S
C1497 C4 1.290 . S
C1503 C207 1.294 1_554 S
C1517 C229 1.302 . S
C1523 C26 1.292 . S
C1537 C181 1.303 1_556 S
C1543 C52 1.291 . S
C1557 C247 1.299 . S
C1563 C74 1.278 . S
C1577 C92 1.282 . S
C1583 C75 1.303 1_455 S
C1597 C53 1.296 . S
C1603 C118 1.281 . S
C1617 C140 1.281 . S
C1623 C27 1.303 . S
C1637 C5 1.301 1_655 S
C1643 C158 1.295 . S
C1657 C180 1.291 . S
C1663 C119 1.294 1_545 S
C1677 C206 1.281 . S
C1683 C159 1.296 . S
C1697 C228 1.287 . S
C1703 C141 1.294 . S
C1717 C246 1.296 . S
C1723 C93 1.299 1_565 S
C1737 C268 1.296 . S
C1743 C468 1.298 1_556 S
C1757 C290 1.284 . S
C1763 C490 1.304 . S
C1777 C447 1.294 1_554 S
C1783 C312 1.286 . S
C1797 C513 1.295 . S
C1803 C334 1.293 . S
C1817 C360 1.296 . S
C1823 C336 1.299 1_655 S
C1837 C378 1.288 . S
C1843 C314 1.304 . S
C1857 C292 1.301 . S
C1863 C400 1.278 . S
C1877 C426 1.293 . S
C1883 C270 1.302 1_455 S
C1897 C448 1.293 . S
C1903 C380 1.302 1_565 S
C1917 C425 1.297 . S
C1923 C466 1.280 . S
C1937 C488 1.278 . S
C1943 C402 1.298 . S
C1957 C514 1.278 . S
C1963 C359 1.302 1_545 S
