# Generated by pormake.
# Topology unj, (4)-cn, num edge types: 1
# Building blocks:
#     Node 0, Type 0, BuildingBlock: QUQFOY_clean_sbu_3, # of connection points: 4
#     Node 1, Type 0, BuildingBlock: QUQFOY_clean_sbu_3, # of connection points: 4
#     Node 2, Type 0, BuildingBlock: QUQFOY_clean_sbu_3, # of connection points: 4
#     Node 3, Type 0, BuildingBlock: QUQFOY_clean_sbu_3, # of connection points: 4
#     Node 4, Type 0, BuildingBlock: QUQFOY_clean_sbu_3, # of connection points: 4
#     Node 5, Type 0, BuildingBlock: QUQFOY_clean_sbu_3, # of connection points: 4
#     Edge 6, Type (0, 0), BuildingBlock: TEMPAE_clean_linker_10, # of connection points: 2
#     Edge 7, Type (0, 0), BuildingBlock: TEMPAE_clean_linker_10, # of connection points: 2
#     Edge 8, Type (0, 0), BuildingBlock: TEMPAE_clean_linker_10, # of connection points: 2
#     Edge 9, Type (0, 0), BuildingBlock: TEMPAE_clean_linker_10, # of connection points: 2
#     Edge 10, Type (0, 0), BuildingBlock: TEMPAE_clean_linker_10, # of connection points: 2
#     Edge 11, Type (0, 0), BuildingBlock: TEMPAE_clean_linker_10, # of connection points: 2
#     Edge 12, Type (0, 0), BuildingBlock: TEMPAE_clean_linker_10, # of connection points: 2
#     Edge 13, Type (0, 0), BuildingBlock: TEMPAE_clean_linker_10, # of connection points: 2
#     Edge 14, Type (0, 0), BuildingBlock: TEMPAE_clean_linker_10, # of connection points: 2
#     Edge 15, Type (0, 0), BuildingBlock: TEMPAE_clean_linker_10, # of connection points: 2
#     Edge 16, Type (0, 0), BuildingBlock: TEMPAE_clean_linker_10, # of connection points: 2
#     Edge 17, Type (0, 0), BuildingBlock: TEMPAE_clean_linker_10, # of connection points: 2
# Relax obj value: 0.028
# Max RMSD: 0.079
# Mean RMSD: 0.079
data_MOF--net-unj--node1-QUQFOY_clean_sbu_3--edge1-TEMPAE_clean_linker_10
_symmetry_space_group_name_H-M    P1
_symmetry_Int_Tables_number       1
_symmetry_cell_setting            triclinic
loop_
_symmetry_equiv_pos_as_xyz
'x, y, z'
_cell_length_a     34.685055
_cell_length_b     34.826501
_cell_length_c     38.486829
_cell_angle_alpha  89.874421
_cell_angle_beta   90.210723
_cell_angle_gamma 119.87411
loop_
_atom_site_label
_atom_site_type_symbol
_atom_site_fract_x
_atom_site_fract_y
_atom_site_fract_z
_atom_type_partial_charge
C0 C 0.53408 0.23433 0.49842 0.0
O1 O 0.55431 0.21313 0.5049 0.0
Cd2 Cd 0.53933 0.16681 0.55485 0.0
O3 O 0.50405 0.23179 0.51886 0.0
Cd4 Cd 0.46867 0.19517 0.57446 0.0
C5 C 0.42911 0.09289 0.54094 0.0
O6 O 0.53924 0.21225 0.60118 0.0
O7 O 0.48106 0.17176 0.63197 0.0
O8 O 0.46297 0.26185 0.58014 0.0
C9 C 0.52307 0.19349 0.62991 0.0
O10 O 0.46849 0.09947 0.54409 0.0
C11 C 0.42649 0.24337 0.59662 0.0
O12 O 0.42026 0.12335 0.54786 0.0
O13 O 0.40888 0.20206 0.60213 0.0
C14 C 0.30014 0.55796 0.67088 0.0
O15 O 0.34187 0.5778 0.67604 0.0
Cd16 Cd 0.37647 0.56063 0.72311 0.0
O17 O 0.27381 0.52701 0.69111 0.0
Cd18 Cd 0.27828 0.48901 0.74397 0.0
C19 C 0.34219 0.45219 0.70621 0.0
O20 O 0.3333 0.55617 0.7727 0.0
O21 O 0.31545 0.49531 0.80003 0.0
O22 O 0.21282 0.48782 0.76715 0.0
C23 C 0.33608 0.53733 0.8 0.0
O24 O 0.37466 0.4915 0.7091 0.0
C25 C 0.18906 0.44602 0.76889 0.0
O26 O 0.30305 0.44272 0.71486 0.0
O27 O 0.20632 0.42348 0.75827 0.0
C28 C 0.73433 0.28913 0.83168 0.0
O29 O 0.75336 0.33046 0.83756 0.0
Cd30 Cd 0.80514 0.36582 0.88335 0.0
O31 O 0.74184 0.26378 0.85109 0.0
Cd32 Cd 0.78502 0.26865 0.90476 0.0
C33 C 0.88274 0.33461 0.86447 0.0
O34 O 0.76547 0.31979 0.93163 0.0
O35 O 0.8083 0.30452 0.96211 0.0
O36 O 0.7212 0.19437 0.91115 0.0
C37 C 0.7855 0.3237 0.96006 0.0
O38 O 0.87142 0.36419 0.86468 0.0
C39 C 0.74175 0.17864 0.92791 0.0
O40 O 0.85744 0.29633 0.87712 0.0
O41 O 0.78296 0.2044 0.93323 0.0
C42 C 0.43485 0.73917 0.00609 0.0
O43 O 0.4148 0.76111 0.00942 0.0
Cd44 Cd 0.42944 0.8131 0.05547 0.0
O45 O 0.46496 0.74415 0.02764 0.0
Cd46 Cd 0.50083 0.78739 0.08064 0.0
C47 C 0.53908 0.88753 0.04153 0.0
O48 O 0.43178 0.77494 0.10623 0.0
O49 O 0.49109 0.81775 0.13562 0.0
O50 O 0.50011 0.72323 0.10569 0.0
C51 C 0.44894 0.79641 0.1339 0.0
O52 O 0.49931 0.88018 0.0427 0.0
C53 C 0.54192 0.74044 0.10833 0.0
O54 O 0.5486 0.85837 0.05157 0.0
O55 O 0.56553 0.77997 0.09757 0.0
C56 C 0.68162 0.42838 0.16266 0.0
O57 O 0.63993 0.40637 0.16761 0.0
Cd58 Cd 0.60454 0.4216 0.21409 0.0
O59 O 0.70675 0.4595 0.18337 0.0
Cd60 Cd 0.70076 0.49399 0.23834 0.0
C61 C 0.63837 0.53136 0.19936 0.0
O62 O 0.64745 0.4226 0.26354 0.0
O63 O 0.66327 0.47992 0.29477 0.0
O64 O 0.774 0.50149 0.24605 0.0
C65 C 0.64369 0.43814 0.29222 0.0
O66 O 0.60773 0.49101 0.19805 0.0
C67 C 0.79038 0.53735 0.26312 0.0
O68 O 0.67619 0.54215 0.21234 0.0
O69 O 0.7654 0.55378 0.26814 0.0
C70 C 0.23847 0.69149 0.33489 0.0
O71 O 0.21933 0.65 0.34022 0.0
Cd72 Cd 0.17134 0.61491 0.38886 0.0
O73 O 0.23191 0.71643 0.35527 0.0
Cd74 Cd 0.18936 0.70964 0.40861 0.0
C75 C 0.08943 0.63968 0.37262 0.0
O76 O 0.21313 0.66178 0.4363 0.0
O77 O 0.16875 0.67496 0.46643 0.0
O78 O 0.25103 0.78485 0.41408 0.0
C79 C 0.19391 0.65833 0.46496 0.0
O80 O 0.09969 0.60954 0.3763 0.0
C81 C 0.22949 0.79965 0.43045 0.0
O82 O 0.11714 0.67977 0.38003 0.0
O83 O 0.1886 0.7728 0.43601 0.0
C84 C 0.39682 0.01172 0.53248 0.0
C85 C 0.39401 0.05005 0.52722 0.0
C86 C 0.36578 0.97138 0.51738 0.0
C87 C 0.33185 0.96968 0.49574 0.0
C88 C 0.32826 0.00808 0.49093 0.0
C89 C 0.35914 0.04779 0.50712 0.0
C90 C 0.37006 0.93086 0.52383 0.0
C91 C 0.29312 0.00773 0.46745 0.0
C92 C 0.29149 0.87767 0.42928 0.0
C93 C 0.25211 0.84501 0.44454 0.0
C94 C 0.31639 0.91947 0.44467 0.0
C95 C 0.30212 0.92826 0.47659 0.0
C96 C 0.26147 0.89593 0.49145 0.0
C97 C 0.2366 0.85475 0.47497 0.0
C98 C 0.35896 0.95351 0.42753 0.0
C99 C 0.2456 0.9038 0.52576 0.0
H100 H 0.42356 0.01335 0.54827 0.0
H101 H 0.35713 0.07752 0.50282 0.0
H102 H 0.3378 0.90284 0.53258 0.0
H103 H 0.37904 0.92059 0.4993 0.0
H104 H 0.39581 0.93686 0.54368 0.0
H105 H 0.29288 0.0395 0.46834 0.0
H106 H 0.29923 0.00164 0.44027 0.0
H107 H 0.2597 0.98046 0.47478 0.0
H108 H 0.3033 0.87025 0.40557 0.0
H109 H 0.20624 0.82937 0.48691 0.0
H110 H 0.38785 0.9585 0.44343 0.0
H111 H 0.36009 0.98587 0.42585 0.0
H112 H 0.36269 0.94336 0.40097 0.0
H113 H 0.26844 0.90558 0.54677 0.0
H114 H 0.21143 0.87707 0.53218 0.0
H115 H 0.24613 0.9359 0.52547 0.0
C116 C 0.41673 0.30956 0.59496 0.0
C117 C 0.4072 0.26945 0.61062 0.0
C118 C 0.40198 0.33671 0.60976 0.0
C119 C 0.37837 0.32403 0.64153 0.0
C120 C 0.36775 0.28302 0.65702 0.0
C121 C 0.38179 0.25588 0.64108 0.0
C122 C 0.41285 0.3796 0.59193 0.0
C123 C 0.34358 0.26886 0.6913 0.0
C124 C 0.39101 0.41967 0.69673 0.0
C125 C 0.35008 0.41766 0.69144 0.0
C126 C 0.39997 0.3884 0.68156 0.0
C127 C 0.36771 0.35519 0.6597 0.0
C128 C 0.32618 0.35287 0.65441 0.0
C129 C 0.31759 0.38381 0.67081 0.0
C130 C 0.44421 0.39126 0.6886 0.0
C131 C 0.29148 0.31869 0.63053 0.0
H132 H 0.4361 0.3199 0.57125 0.0
H133 H 0.3747 0.22499 0.65335 0.0
H134 H 0.3825 0.38248 0.58941 0.0
H135 H 0.43713 0.408 0.60782 0.0
H136 H 0.42721 0.38233 0.56567 0.0
H137 H 0.33558 0.23487 0.69885 0.0
H138 H 0.36451 0.29218 0.71198 0.0
H139 H 0.31225 0.27005 0.69009 0.0
H140 H 0.41602 0.44567 0.71291 0.0
H141 H 0.28607 0.38252 0.66645 0.0
H142 H 0.4636 0.39908 0.66419 0.0
H143 H 0.43898 0.35888 0.69804 0.0
H144 H 0.46428 0.41704 0.70816 0.0
H145 H 0.30489 0.32355 0.60375 0.0
H146 H 0.26045 0.32059 0.62991 0.0
H147 H 0.28315 0.28491 0.6388 0.0
C148 C 0.94213 0.37407 0.82059 0.0
C149 C 0.92574 0.34517 0.849 0.0
C150 C 0.98381 0.3863 0.80636 0.0
C151 C 0.01032 0.37036 0.82167 0.0
C152 C -0.0064 0.34053 0.85004 0.0
C153 C 0.95108 0.32771 0.86306 0.0
C154 C -8e-05 0.41718 0.77548 0.0
C155 C 0.02137 0.32378 0.86761 0.0
C156 C 0.11035 0.38402 0.77101 0.0
C157 C 0.14379 0.42508 0.78333 0.0
C158 C 0.06661 0.36538 0.78347 0.0
C159 C 0.05674 0.38777 0.80958 0.0
C160 C 0.09095 0.42841 0.82301 0.0
C161 C 0.1339 0.44692 0.80929 0.0
C162 C 0.03072 0.32266 0.76783 0.0
C163 C 0.08208 0.45273 0.85152 0.0
H164 H 0.92225 0.38713 0.80943 0.0
H165 H 0.93841 0.30548 0.88514 0.0
H166 H 0.02835 0.44963 0.78335 0.0
H167 H 0.01192 0.40358 0.7548 0.0
H168 H 0.9735 0.42281 0.76445 0.0
H169 H 0.00256 0.29878 0.88801 0.0
H170 H 0.03362 0.30884 0.84828 0.0
H171 H 0.05098 0.35195 0.87979 0.0
H172 H 0.11806 0.36728 0.7508 0.0
H173 H 0.15995 0.47847 0.81909 0.0
H174 H 0.00574 0.32865 0.75455 0.0
H175 H 0.01306 0.2978 0.78849 0.0
H176 H 0.04418 0.30852 0.74873 0.0
H177 H 0.05947 0.46431 0.84178 0.0
H178 H 0.11306 0.48188 0.86114 0.0
H179 H 0.06528 0.43014 0.87371 0.0
C180 C 0.60882 0.93162 0.00738 0.0
C181 C 0.57398 0.92988 0.02696 0.0
C182 C 0.63959 0.97089 -0.00943 0.0
C183 C 0.63604 0.00946 -0.00566 0.0
C184 C 0.60201 0.00823 0.01536 0.0
C185 C 0.57099 0.96828 0.03097 0.0
C186 C 0.6747 0.97063 0.96767 0.0
C187 C 0.59778 0.04892 0.02081 0.0
C188 C 0.73262 0.12373 0.97352 0.0
C189 C 0.71788 0.13352 0.94257 0.0
C190 C 0.70698 0.08283 -0.00974 0.0
C191 C 0.66633 0.0507 0.97511 0.0
C192 C 0.65272 0.05954 0.94276 0.0
C193 C 0.67833 0.10114 0.92715 0.0
C194 C 0.7221 0.07506 0.02509 0.0
C195 C 0.61023 0.02568 0.92527 0.0
H196 H 0.61089 0.90181 0.00402 0.0
H197 H 0.54424 0.96702 0.04633 0.0
H198 H 0.66911 0.97691 0.94033 0.0
H199 H 0.7082 -0.00243 0.97533 0.0
H200 H 0.67439 0.93861 0.96884 0.0
H201 H 0.5718 0.0433 0.04017 0.0
H202 H 0.62997 0.077 0.02971 0.0
H203 H 0.58919 0.05888 -0.00414 0.0
H204 H 0.76307 0.14888 -0.0144 0.0
H205 H 0.66709 0.10857 0.90306 0.0
H206 H 0.72165 0.043 0.02522 0.0
H207 H 0.69877 0.07324 0.04554 0.0
H208 H 0.7561 0.10183 0.032 0.0
H209 H 0.6087 -0.00689 0.92414 0.0
H210 H 0.60706 0.03571 0.89846 0.0
H211 H 0.58124 0.02119 0.9406 0.0
C212 C 0.64976 0.60812 0.20021 0.0
C213 C 0.6297 0.5658 0.18532 0.0
C214 C 0.63938 0.64007 0.18829 0.0
C215 C 0.6093 0.62971 0.16019 0.0
C216 C 0.59053 0.58762 0.14413 0.0
C217 C 0.60043 0.55594 0.15725 0.0
C218 C 0.65912 0.68415 0.20665 0.0
C219 C 0.55922 0.57568 0.11353 0.0
C220 C 0.53868 0.68387 0.14938 0.0
C221 C 0.56158 0.71514 0.12334 0.0
C222 C 0.55518 0.65746 0.16283 0.0
C223 C 0.59476 0.6614 0.14902 0.0
C224 C 0.61846 0.69349 0.12307 0.0
C225 C 0.60189 0.72057 0.11089 0.0
C226 C 0.5296 0.62456 0.19121 0.0
C227 C 0.66012 0.69781 0.10708 0.0
H228 H 0.67229 0.61568 0.22202 0.0
H229 H 0.58534 0.52339 0.14543 0.0
H230 H 0.6755 0.71167 0.18772 0.0
H231 H 0.63221 0.68746 0.21929 0.0
H232 H 0.6838 0.68794 0.22679 0.0
H233 H 0.55093 0.54325 0.10197 0.0
H234 H 0.52788 0.57408 0.1219 0.0
H235 H 0.57417 0.60154 0.09313 0.0
H236 H 0.50772 0.68006 0.15926 0.0
H237 H 0.61942 0.74464 0.0906 0.0
H238 H 0.55215 0.62812 0.21303 0.0
H239 H 0.51537 0.59036 0.18103 0.0
H240 H 0.50201 0.62874 0.20145 0.0
H241 H 0.68451 0.70218 0.12759 0.0
H242 H 0.67605 0.72612 0.08871 0.0
H243 H 0.65182 0.66695 0.09285 0.0
C244 C 0.04049 0.65835 0.33731 0.0
C245 C 0.04548 0.62805 0.35817 0.0
C246 C -0.00036 0.64649 0.32126 0.0
C247 C 0.96272 0.6038 0.32712 0.0
C248 C 0.96727 0.57367 0.34917 0.0
C249 C 0.00881 0.58594 0.364 0.0
C250 C -0.00362 0.67904 0.29718 0.0
C251 C 0.92837 0.52828 0.35678 0.0
C252 C 0.84606 0.58249 0.30855 0.0
C253 C 0.83559 0.55757 0.27791 0.0
C254 C 0.88757 0.59824 0.32474 0.0
C255 C 0.91967 0.58989 0.3093 0.0
C256 C 0.90986 0.56636 0.27753 0.0
C257 C 0.86764 0.54987 0.26249 0.0
C258 C 0.89642 0.62223 0.35902 0.0
C259 C 0.94364 0.55784 0.25978 0.0
H260 H 0.06897 0.69081 0.33253 0.0
H261 H 0.01258 0.5626 0.38033 0.0
H262 H -0.01232 0.6649 0.27061 0.0
H263 H 0.96948 0.68523 0.30578 0.0
H264 H 0.02795 0.7112 0.29592 0.0
H265 H 0.93668 0.51006 0.3764 0.0
H266 H 0.89979 0.53116 0.36641 0.0
H267 H 0.91745 0.50838 0.33258 0.0
H268 H 0.82112 0.58813 0.32063 0.0
H269 H 0.85963 0.53083 0.23866 0.0
H270 H 0.92719 0.65495 0.35749 0.0
H271 H 0.90173 0.60292 0.37957 0.0
H272 H 0.86854 0.62733 0.36699 0.0
H273 H 0.97552 0.58932 0.25665 0.0
H274 H 0.93213 0.54238 0.2338 0.0
H275 H 0.95047 0.53556 0.27604 0.0
C276 C 0.51948 0.28016 0.45584 0.0
C277 C 0.54663 0.26345 0.46753 0.0
C278 C 0.5317 0.30861 0.42702 0.0
C279 C 0.57229 0.32106 0.40989 0.0
C280 C 0.59982 0.30434 0.42159 0.0
C281 C 0.5865 0.27549 0.4501 0.0
C282 C 0.50123 0.32531 0.4149 0.0
C283 C 0.64363 0.31729 0.40421 0.0
C284 C 0.59414 0.36321 0.31716 0.0
C285 C 0.62146 0.4089 0.32217 0.0
C286 C 0.57615 0.33438 0.34553 0.0
C287 C 0.58634 0.35165 0.37968 0.0
C288 C 0.61267 0.39792 0.38488 0.0
C289 C 0.62966 0.42608 0.35599 0.0
C290 C 0.54757 0.28529 0.33896 0.0
C291 C 0.62462 0.4175 0.42093 0.0
H292 H 0.48853 0.27086 0.46911 0.0
H293 H 0.6078 0.26297 0.45911 0.0
H294 H 0.51875 0.36198 0.41632 0.0
H295 H 0.49183 0.31603 0.38732 0.0
H296 H 0.47043 0.31182 0.43067 0.0
H297 H 0.66143 0.30184 0.41683 0.0
H298 H 0.63801 0.30728 0.37649 0.0
H299 H 0.66542 0.35381 0.40494 0.0
H300 H 0.58741 0.34985 0.29102 0.0
H301 H 0.65083 0.46138 0.35998 0.0
H302 H 0.51614 0.27172 0.35387 0.0
H303 H 0.56522 0.2679 0.34804 0.0
H304 H 0.53935 0.27767 0.31099 0.0
H305 H 0.59421 0.40594 0.43683 0.0
H306 H 0.64296 0.45429 0.42053 0.0
H307 H 0.6457 0.4061 0.43403 0.0
C308 C 0.19465 0.64824 0.52924 0.0
C309 C 0.20353 0.63907 0.49571 0.0
C310 C 0.20785 0.63372 0.55865 0.0
C311 C 0.22974 0.60893 0.55429 0.0
C312 C 0.23708 0.59804 0.52048 0.0
C313 C 0.22418 0.61354 0.49158 0.0
C314 C 0.19991 0.64635 0.59432 0.0
C315 C 0.25968 0.57105 0.51481 0.0
C316 C 0.30828 0.61148 0.6242 0.0
C317 C 0.28184 0.57116 0.64135 0.0
C318 C 0.29135 0.62455 0.59628 0.0
C319 C 0.24715 0.5963 0.58492 0.0
C320 C 0.22024 0.5556 0.60212 0.0
C321 C 0.23782 0.54364 0.63032 0.0
C322 C 0.32088 0.6685 0.57882 0.0
C323 C 0.17315 0.5244 0.59041 0.0
H324 H 0.17884 0.66812 0.53251 0.0
H325 H 0.2308 0.60612 0.46568 0.0
H326 H 0.182 0.61645 0.61085 0.0
H327 H 0.23227 0.66838 0.60713 0.0
H328 H 0.18037 0.66371 0.59332 0.0
H329 H 0.26 0.56277 0.48699 0.0
H330 H 0.29452 0.58977 0.52425 0.0
H331 H 0.24266 0.5398 0.52992 0.0
H332 H 0.34219 0.63309 0.63276 0.0
H333 H 0.21723 0.51236 0.6434 0.0
H334 H 0.30455 0.68897 0.57894 0.0
H335 H 0.32617 0.66307 0.55127 0.0
H336 H 0.35383 0.68739 0.59173 0.0
H337 H 0.1534 0.54149 0.59086 0.0
H338 H 0.15633 0.49435 0.60698 0.0
H339 H 0.17319 0.51396 0.56319 0.0
C340 C 0.68764 0.29673 0.78574 0.0
C341 C 0.70212 0.27041 0.80262 0.0
C342 C 0.65692 0.27988 0.75839 0.0
C343 C 0.64052 0.23569 0.74733 0.0
C344 C 0.65477 0.20878 0.76425 0.0
C345 C 0.68531 0.22641 0.79186 0.0
C346 C 0.64223 0.30954 0.74119 0.0
C347 C 0.63822 0.16164 0.75288 0.0
C348 C 0.53483 0.18895 0.69359 0.0
C349 C 0.55211 0.19888 0.65983 0.0
C350 C 0.5631 0.19884 0.72246 0.0
C351 C 0.60954 0.21862 0.71726 0.0
C352 C 0.6268 0.22633 0.68312 0.0
C353 C 0.59789 0.21662 0.65481 0.0
C354 C 0.54352 0.19041 0.75851 0.0
C355 C 0.67607 0.24688 0.6765 0.0
H356 H 0.70013 0.33064 0.79402 0.0
H357 H 0.69632 0.20586 0.80478 0.0
H358 H 0.65198 0.31427 0.71341 0.0
H359 H 0.60548 0.29382 0.74213 0.0
H360 H 0.65696 0.3426 0.75373 0.0
H361 H 0.65161 0.1447 0.76934 0.0
H362 H 0.60138 0.14248 0.75386 0.0
H363 H 0.648 0.1612 0.72554 0.0
H364 H 0.49944 0.17518 0.69757 0.0
H365 H 0.61134 0.22389 0.62871 0.0
H366 H 0.55365 0.2225 0.77148 0.0
H367 H 0.55638 0.17269 0.77452 0.0
H368 H 0.50661 0.1707 0.75808 0.0
H369 H 0.69344 0.28184 0.68536 0.0
H370 H 0.68357 0.24623 0.64854 0.0
H371 H 0.68994 0.22929 0.69152 0.0
C372 C 0.38765 0.60905 0.82837 0.0
C373 C 0.35772 0.56355 0.83143 0.0
C374 C 0.4037 0.63609 0.85784 0.0
C375 C 0.38892 0.61721 0.89113 0.0
C376 C 0.36053 0.5709 0.89451 0.0
C377 C 0.34546 0.54447 0.86453 0.0
C378 C 0.43459 0.68522 0.85318 0.0
C379 C 0.3439 0.54965 0.92959 0.0
C380 C 0.44933 0.68836 0.96941 0.0
C381 C 0.42273 0.7071 0.97724 0.0
C382 C 0.43842 0.65839 0.9418 0.0
C383 C 0.3998 0.64664 0.92181 0.0
C384 C 0.37235 0.66473 0.93004 0.0
C385 C 0.38428 0.69492 0.95752 0.0
C386 C 0.46865 0.64004 0.93354 0.0
C387 C 0.33063 0.65266 0.9095 0.0
H388 H 0.39754 0.62381 0.80279 0.0
H389 H 0.32223 0.5093 0.86696 0.0
H390 H 0.41696 0.70335 0.86015 0.0
H391 H 0.46373 0.69703 0.87076 0.0
H392 H 0.44665 0.69387 0.82603 0.0
H393 H 0.32612 0.51291 0.92815 0.0
H394 H 0.37189 0.56078 0.94825 0.0
H395 H 0.32075 0.56003 0.94012 0.0
H396 H 0.47911 0.69759 0.98454 0.0
H397 H 0.36333 0.70892 0.96358 0.0
H398 H 0.48309 0.6511 0.90727 0.0
H399 H 0.44944 0.60333 0.93315 0.0
H400 H 0.49626 0.65083 0.95261 0.0
H401 H 0.33938 0.66376 0.88218 0.0
H402 H 0.31175 0.6679 0.92035 0.0
H403 H 0.30861 0.61618 0.90909 0.0
C404 C 0.78804 0.33771 0.02392 0.0
C405 C 0.77896 0.34607 -0.00989 0.0
C406 C 0.77657 0.3544 0.05283 0.0
C407 C 0.75616 0.38049 0.04764 0.0
C408 C 0.74937 0.39116 0.0135 0.0
C409 C 0.76055 0.37352 -0.01487 0.0
C410 C 0.78397 0.34202 0.08886 0.0
C411 C 0.72833 0.41944 0.00692 0.0
C412 C 0.67535 0.37677 0.11526 0.0
C413 C 0.70113 0.41661 0.13324 0.0
C414 C 0.6932 0.36445 0.08775 0.0
C415 C 0.7378 0.39289 0.07762 0.0
C416 C 0.76408 0.43321 0.09555 0.0
C417 C 0.74549 0.44449 0.12334 0.0
C418 C 0.66422 0.32094 0.06946 0.0
C419 C 0.81161 0.46454 0.08516 0.0
H420 H 0.80226 0.31648 0.02785 0.0
H421 H 0.75392 0.38045 0.95899 0.0
H422 H 0.80103 0.37188 0.10553 0.0
H423 H 0.75139 0.31948 0.10103 0.0
H424 H 0.80402 0.32518 0.08854 0.0
H425 H 0.72984 0.42863 0.97909 0.0
H426 H 0.69294 0.40114 0.01494 0.0
H427 H 0.74508 0.45018 0.02264 0.0
H428 H 0.64117 0.35485 0.1229 0.0
H429 H 0.7656 0.47536 0.13709 0.0
H430 H 0.68025 0.3002 0.07029 0.0
H431 H 0.66028 0.32701 0.04171 0.0
H432 H 0.63067 0.30197 0.08127 0.0
H433 H 0.83127 0.44737 0.08636 0.0
H434 H 0.82777 0.49431 0.10207 0.0
H435 H 0.81268 0.47542 0.05788 0.0
C436 C 0.28755 0.75608 0.29692 0.0
C437 C 0.26999 0.71126 0.30564 0.0
C438 C 0.31819 0.77533 0.2697 0.0
C439 C 0.33179 0.74922 0.25101 0.0
C440 C 0.31445 0.70409 0.25983 0.0
C441 C 0.28361 0.68562 0.28691 0.0
C442 C 0.33568 0.82344 0.26075 0.0
C443 C 0.32839 0.67521 0.2406 0.0
C444 C 0.37499 0.77518 0.15895 0.0
C445 C 0.4206 0.79153 0.16399 0.0
C446 C 0.34602 0.76375 0.18724 0.0
C447 C 0.36303 0.76827 0.22136 0.0
C448 C 0.40941 0.78705 0.2267 0.0
C449 C 0.43778 0.79877 0.19786 0.0
C450 C 0.29688 0.74454 0.18048 0.0
C451 C 0.42873 0.7922 0.26273 0.0
H452 H 0.27722 0.77616 0.31127 0.0
H453 H 0.27049 0.65107 0.2936 0.0
H454 H 0.37251 0.84195 0.26232 0.0
H455 H 0.32648 0.8263 0.23362 0.0
H456 H 0.32247 0.83944 0.27829 0.0
H457 H 0.3129 0.64116 0.25144 0.0
H458 H 0.31892 0.67298 0.2128 0.0
H459 H 0.36506 0.69015 0.24174 0.0
H460 H 0.36167 0.76998 0.13277 0.0
H461 H 0.47302 0.81135 0.20183 0.0
H462 H 0.28332 0.76111 0.19697 0.0
H463 H 0.27897 0.70887 0.1874 0.0
H464 H 0.2897 0.74786 0.15283 0.0
H465 H 0.41599 0.80867 0.28016 0.0
H466 H 0.46564 0.81166 0.26269 0.0
H467 H 0.41825 0.759 0.27382 0.0
loop_
_geom_bond_atom_site_label_1
_geom_bond_atom_site_label_2
_geom_bond_distance
_geom_bond_site_symmetry_2
_ccdc_geom_bond_type
C0 O1 1.306 . S
C0 O3 1.160 . S
O1 C0 1.306 . S
O1 Cd2 2.228 . S
Cd2 O1 2.228 . S
Cd2 O6 2.273 . S
Cd2 O10 2.277 . S
O3 C0 1.160 . S
O3 Cd4 2.203 . S
Cd4 O3 2.203 . S
Cd4 O6 2.411 . S
Cd4 O7 2.333 . S
Cd4 O8 2.352 . S
Cd4 O12 2.277 . S
Cd4 O13 2.356 . S
C5 O10 1.209 . S
C5 O12 1.226 . S
O6 Cd2 2.273 . S
O6 Cd4 2.411 . S
O6 C9 1.320 . S
O7 Cd4 2.333 . S
O7 C9 1.214 . S
O8 Cd4 2.352 . S
O8 C11 1.258 . S
C9 O6 1.320 . S
C9 O7 1.214 . S
O10 Cd2 2.277 . S
O10 C5 1.209 . S
C11 O8 1.258 . S
C11 O13 1.282 . S
O12 Cd4 2.277 . S
O12 C5 1.226 . S
O13 Cd4 2.356 . S
O13 C11 1.282 . S
C14 O15 1.306 . S
C14 O17 1.160 . S
O15 C14 1.306 . S
O15 Cd16 2.228 . S
Cd16 O15 2.228 . S
Cd16 O20 2.273 . S
Cd16 O24 2.277 . S
O17 C14 1.160 . S
O17 Cd18 2.203 . S
Cd18 O17 2.203 . S
Cd18 O20 2.411 . S
Cd18 O21 2.333 . S
Cd18 O22 2.352 . S
Cd18 O26 2.277 . S
Cd18 O27 2.356 . S
C19 O24 1.209 . S
C19 O26 1.226 . S
O20 Cd16 2.273 . S
O20 Cd18 2.411 . S
O20 C23 1.320 . S
O21 Cd18 2.333 . S
O21 C23 1.214 . S
O22 Cd18 2.352 . S
O22 C25 1.258 . S
C23 O20 1.320 . S
C23 O21 1.214 . S
O24 Cd16 2.277 . S
O24 C19 1.209 . S
C25 O22 1.258 . S
C25 O27 1.282 . S
O26 Cd18 2.277 . S
O26 C19 1.226 . S
O27 Cd18 2.356 . S
O27 C25 1.282 . S
C28 O29 1.306 . S
C28 O31 1.160 . S
O29 C28 1.306 . S
O29 Cd30 2.228 . S
Cd30 O29 2.228 . S
Cd30 O34 2.273 . S
Cd30 O38 2.277 . S
O31 C28 1.160 . S
O31 Cd32 2.203 . S
Cd32 O31 2.203 . S
Cd32 O34 2.411 . S
Cd32 O35 2.333 . S
Cd32 O36 2.352 . S
Cd32 O40 2.277 . S
Cd32 O41 2.356 . S
C33 O38 1.209 . S
C33 O40 1.226 . S
O34 Cd30 2.273 . S
O34 Cd32 2.411 . S
O34 C37 1.320 . S
O35 Cd32 2.333 . S
O35 C37 1.214 . S
O36 Cd32 2.352 . S
O36 C39 1.258 . S
C37 O34 1.320 . S
C37 O35 1.214 . S
O38 Cd30 2.277 . S
O38 C33 1.209 . S
C39 O36 1.258 . S
C39 O41 1.282 . S
O40 Cd32 2.277 . S
O40 C33 1.226 . S
O41 Cd32 2.356 . S
O41 C39 1.282 . S
C42 O43 1.306 . S
C42 O45 1.160 . S
O43 C42 1.306 . S
O43 Cd44 2.228 . S
Cd44 O43 2.228 . S
Cd44 O48 2.273 . S
Cd44 O52 2.277 . S
O45 C42 1.160 . S
O45 Cd46 2.203 . S
Cd46 O45 2.203 . S
Cd46 O48 2.411 . S
Cd46 O49 2.333 . S
Cd46 O50 2.352 . S
Cd46 O54 2.277 . S
Cd46 O55 2.356 . S
C47 O52 1.209 . S
C47 O54 1.226 . S
O48 Cd44 2.273 . S
O48 Cd46 2.411 . S
O48 C51 1.320 . S
O49 Cd46 2.333 . S
O49 C51 1.214 . S
O50 Cd46 2.352 . S
O50 C53 1.258 . S
C51 O48 1.320 . S
C51 O49 1.214 . S
O52 Cd44 2.277 . S
O52 C47 1.209 . S
C53 O50 1.258 . S
C53 O55 1.282 . S
O54 Cd46 2.277 . S
O54 C47 1.226 . S
O55 Cd46 2.356 . S
O55 C53 1.282 . S
C56 O57 1.306 . S
C56 O59 1.160 . S
O57 C56 1.306 . S
O57 Cd58 2.228 . S
Cd58 O57 2.228 . S
Cd58 O62 2.273 . S
Cd58 O66 2.277 . S
O59 C56 1.160 . S
O59 Cd60 2.203 . S
Cd60 O59 2.203 . S
Cd60 O62 2.411 . S
Cd60 O63 2.333 . S
Cd60 O64 2.352 . S
Cd60 O68 2.277 . S
Cd60 O69 2.356 . S
C61 O66 1.209 . S
C61 O68 1.226 . S
O62 Cd58 2.273 . S
O62 Cd60 2.411 . S
O62 C65 1.320 . S
O63 Cd60 2.333 . S
O63 C65 1.214 . S
O64 Cd60 2.352 . S
O64 C67 1.258 . S
C65 O62 1.320 . S
C65 O63 1.214 . S
O66 Cd58 2.277 . S
O66 C61 1.209 . S
C67 O64 1.258 . S
C67 O69 1.282 . S
O68 Cd60 2.277 . S
O68 C61 1.226 . S
O69 Cd60 2.356 . S
O69 C67 1.282 . S
C70 O71 1.306 . S
C70 O73 1.160 . S
O71 C70 1.306 . S
O71 Cd72 2.228 . S
Cd72 O71 2.228 . S
Cd72 O76 2.273 . S
Cd72 O80 2.277 . S
O73 C70 1.160 . S
O73 Cd74 2.203 . S
Cd74 O73 2.203 . S
Cd74 O76 2.411 . S
Cd74 O77 2.333 . S
Cd74 O78 2.352 . S
Cd74 O82 2.277 . S
Cd74 O83 2.356 . S
C75 O80 1.209 . S
C75 O82 1.226 . S
O76 Cd72 2.273 . S
O76 Cd74 2.411 . S
O76 C79 1.320 . S
O77 Cd74 2.333 . S
O77 C79 1.214 . S
O78 Cd74 2.352 . S
O78 C81 1.258 . S
C79 O76 1.320 . S
C79 O77 1.214 . S
O80 Cd72 2.277 . S
O80 C75 1.209 . S
C81 O78 1.258 . S
C81 O83 1.282 . S
O82 Cd74 2.277 . S
O82 C75 1.226 . S
O83 Cd74 2.356 . S
O83 C81 1.282 . S
C84 C85 1.391 . S
C84 C86 1.394 . S
C84 H100 0.931 . S
C85 C84 1.391 . S
C85 C89 1.376 . S
C86 C84 1.394 . S
C86 C87 1.369 . S
C86 C90 1.531 . S
C87 C86 1.369 . S
C87 C88 1.410 . S
C87 C95 1.503 1_545 S
C88 C87 1.410 . S
C88 C89 1.392 . S
C88 C91 1.511 . S
C89 C85 1.376 . S
C89 C88 1.392 . S
C89 H101 0.929 . S
C90 C86 1.531 . S
C90 H102 0.960 . S
C90 H103 0.962 . S
C90 H104 0.960 . S
C91 C88 1.511 . S
C91 H105 0.961 . S
C91 H106 0.961 . S
C91 H107 0.961 . S
C92 C93 1.370 . S
C92 C94 1.363 . S
C92 H108 0.931 . S
C93 C92 1.370 . S
C93 C97 1.408 . S
C94 C92 1.363 . S
C94 C95 1.370 . S
C94 C98 1.524 1_565 S
C95 C87 1.503 1_565 S
C95 C94 1.370 . S
C95 C96 1.403 . S
C96 C95 1.403 . S
C96 C97 1.404 . S
C96 C99 1.539 . S
C97 C93 1.408 . S
C97 C96 1.404 . S
C97 H109 0.930 . S
C98 C94 1.524 1_545 S
C98 H110 0.956 . S
C98 H111 0.961 . S
C98 H112 0.961 . S
C99 C96 1.539 . S
C99 H113 0.958 . S
C99 H114 0.961 . S
C99 H115 0.960 . S
H100 C84 0.931 . S
H101 C89 0.929 . S
H102 C90 0.960 . S
H103 C90 0.962 . S
H104 C90 0.960 . S
H105 C91 0.961 . S
H106 C91 0.961 . S
H107 C91 0.961 . S
H108 C92 0.931 . S
H109 C97 0.930 . S
H110 C98 0.956 . S
H111 C98 0.961 . S
H112 C98 0.961 . S
H113 C99 0.958 . S
H114 C99 0.961 . S
H115 C99 0.960 . S
C116 C117 1.391 . S
C116 C118 1.394 . S
C116 H132 0.931 . S
C117 C116 1.391 . S
C117 C121 1.376 . S
C118 C116 1.394 . S
C118 C119 1.369 . S
C118 C122 1.531 . S
C119 C118 1.369 . S
C119 C120 1.410 . S
C119 C127 1.503 . S
C120 C119 1.410 . S
C120 C121 1.392 . S
C120 C123 1.511 . S
C121 C117 1.376 . S
C121 C120 1.392 . S
C121 H133 0.929 . S
C122 C118 1.531 . S
C122 H134 0.960 . S
C122 H135 0.962 . S
C122 H136 0.960 . S
C123 C120 1.511 . S
C123 H137 0.961 . S
C123 H138 0.961 . S
C123 H139 0.961 . S
C124 C125 1.370 . S
C124 C126 1.363 . S
C124 H140 0.931 . S
C125 C124 1.370 . S
C125 C129 1.408 . S
C126 C124 1.363 . S
C126 C127 1.370 . S
C126 C130 1.524 . S
C127 C119 1.503 . S
C127 C126 1.370 . S
C127 C128 1.403 . S
C128 C127 1.403 . S
C128 C129 1.404 . S
C128 C131 1.539 . S
C129 C125 1.408 . S
C129 C128 1.404 . S
C129 H141 0.930 . S
C130 C126 1.524 . S
C130 H142 0.956 . S
C130 H143 0.961 . S
C130 H144 0.961 . S
C131 C128 1.539 . S
C131 H145 0.958 . S
C131 H146 0.961 . S
C131 H147 0.960 . S
H132 C116 0.931 . S
H133 C121 0.929 . S
H134 C122 0.960 . S
H135 C122 0.962 . S
H136 C122 0.960 . S
H137 C123 0.961 . S
H138 C123 0.961 . S
H139 C123 0.961 . S
H140 C124 0.931 . S
H141 C129 0.930 . S
H142 C130 0.956 . S
H143 C130 0.961 . S
H144 C130 0.961 . S
H145 C131 0.958 . S
H146 C131 0.961 . S
H147 C131 0.960 . S
C148 C149 1.391 . S
C148 C150 1.394 . S
C148 H164 0.931 . S
C149 C148 1.391 . S
C149 C153 1.376 . S
C150 C148 1.394 . S
C150 C151 1.369 . S
C150 C154 1.531 . S
C151 C150 1.369 . S
C151 C152 1.410 . S
C151 C159 1.503 1_655 S
C152 C151 1.410 . S
C152 C153 1.392 . S
C152 C155 1.498 1_655 S
C153 C149 1.376 . S
C153 C152 1.392 . S
C153 H165 0.929 . S
C154 C150 1.531 . S
C154 H166 0.960 . S
C154 H167 0.962 . S
C154 H168 0.960 . S
C155 C152 1.498 1_455 S
C155 H169 0.962 1_455 S
C155 H170 0.974 . S
C155 H171 0.959 . S
C156 C157 1.370 . S
C156 C158 1.363 . S
C156 H172 0.931 . S
C157 C156 1.370 . S
C157 C161 1.408 . S
C158 C156 1.363 . S
C158 C159 1.370 . S
C158 C162 1.524 1_455 S
C159 C151 1.503 1_455 S
C159 C158 1.370 . S
C159 C160 1.403 . S
C160 C159 1.403 . S
C160 C161 1.404 . S
C160 C163 1.539 . S
C161 C157 1.408 . S
C161 C160 1.404 . S
C161 H173 0.930 . S
C162 C158 1.524 1_655 S
C162 H174 0.956 . S
C162 H175 0.961 . S
C162 H176 0.961 1_655 S
C163 C160 1.539 . S
C163 H177 0.958 . S
C163 H178 0.961 . S
C163 H179 0.960 . S
H164 C148 0.931 . S
H165 C153 0.929 . S
H166 C154 0.960 . S
H167 C154 0.962 . S
H168 C154 0.960 . S
H169 C155 0.962 1_655 S
H170 C155 0.974 . S
H171 C155 0.959 . S
H172 C156 0.931 . S
H173 C161 0.930 . S
H174 C162 0.956 . S
H175 C162 0.961 . S
H176 C162 0.961 1_455 S
H177 C163 0.958 . S
H178 C163 0.961 . S
H179 C163 0.960 . S
C180 C181 1.391 . S
C180 C182 1.394 . S
C180 H196 0.931 . S
C181 C180 1.391 . S
C181 C185 1.376 . S
C182 C180 1.394 . S
C182 C183 1.369 . S
C182 C186 1.531 1_554 S
C183 C182 1.369 . S
C183 C184 1.410 . S
C183 C191 1.503 1_564 S
C184 C183 1.410 . S
C184 C185 1.392 . S
C184 C187 1.511 . S
C185 C181 1.376 . S
C185 C184 1.392 . S
C185 H197 0.929 . S
C186 C182 1.531 1_556 S
C186 H198 0.960 . S
C186 H199 0.962 1_556 S
C186 H200 0.960 . S
C187 C184 1.511 . S
C187 H201 0.961 . S
C187 H202 0.968 . S
C187 H203 0.961 1_554 S
C188 C189 1.370 . S
C188 C190 1.363 1_556 S
C188 H204 0.931 1_556 S
C189 C188 1.370 . S
C189 C193 1.408 . S
C190 C188 1.363 1_554 S
C190 C191 1.370 1_554 S
C190 C194 1.524 . S
C191 C183 1.503 1_546 S
C191 C190 1.370 1_556 S
C191 C192 1.403 . S
C192 C191 1.403 . S
C192 C193 1.404 . S
C192 C195 1.539 1_545 S
C193 C189 1.408 . S
C193 C192 1.404 . S
C193 H205 0.930 . S
C194 C190 1.524 . S
C194 H206 0.956 . S
C194 H207 0.961 . S
C194 H208 0.961 . S
C195 C192 1.539 1_565 S
C195 H209 0.958 . S
C195 H210 0.961 . S
C195 H211 0.960 . S
H196 C180 0.931 . S
H197 C185 0.929 . S
H198 C186 0.960 . S
H199 C186 0.962 1_554 S
H200 C186 0.960 . S
H201 C187 0.961 . S
H202 C187 0.968 . S
H203 C187 0.961 1_556 S
H204 C188 0.931 1_554 S
H205 C193 0.930 . S
H206 C194 0.956 . S
H207 C194 0.961 . S
H208 C194 0.961 . S
H209 C195 0.958 . S
H210 C195 0.961 . S
H211 C195 0.960 . S
C212 C213 1.391 . S
C212 C214 1.394 . S
C212 H228 0.931 . S
C213 C212 1.391 . S
C213 C217 1.376 . S
C214 C212 1.394 . S
C214 C215 1.369 . S
C214 C218 1.531 . S
C215 C214 1.369 . S
C215 C216 1.410 . S
C215 C223 1.503 . S
C216 C215 1.410 . S
C216 C217 1.392 . S
C216 C219 1.511 . S
C217 C213 1.376 . S
C217 C216 1.392 . S
C217 H229 0.929 . S
C218 C214 1.531 . S
C218 H230 0.960 . S
C218 H231 0.962 . S
C218 H232 0.960 . S
C219 C216 1.511 . S
C219 H233 0.961 . S
C219 H234 0.961 . S
C219 H235 0.961 . S
C220 C221 1.370 . S
C220 C222 1.363 . S
C220 H236 0.931 . S
C221 C220 1.370 . S
C221 C225 1.408 . S
C222 C220 1.363 . S
C222 C223 1.370 . S
C222 C226 1.524 . S
C223 C215 1.503 . S
C223 C222 1.370 . S
C223 C224 1.403 . S
C224 C223 1.403 . S
C224 C225 1.404 . S
C224 C227 1.539 . S
C225 C221 1.408 . S
C225 C224 1.404 . S
C225 H237 0.930 . S
C226 C222 1.524 . S
C226 H238 0.956 . S
C226 H239 0.961 . S
C226 H240 0.961 . S
C227 C224 1.539 . S
C227 H241 0.958 . S
C227 H242 0.961 . S
C227 H243 0.960 . S
H228 C212 0.931 . S
H229 C217 0.929 . S
H230 C218 0.960 . S
H231 C218 0.962 . S
H232 C218 0.960 . S
H233 C219 0.961 . S
H234 C219 0.961 . S
H235 C219 0.961 . S
H236 C220 0.931 . S
H237 C225 0.930 . S
H238 C226 0.956 . S
H239 C226 0.961 . S
H240 C226 0.961 . S
H241 C227 0.958 . S
H242 C227 0.961 . S
H243 C227 0.960 . S
C244 C245 1.391 . S
C244 C246 1.394 . S
C244 H260 0.931 . S
C245 C244 1.391 . S
C245 C249 1.376 . S
C246 C244 1.394 . S
C246 C247 1.369 . S
C246 C250 1.531 . S
C247 C246 1.369 . S
C247 C248 1.410 . S
C247 C255 1.503 1_455 S
C248 C247 1.410 . S
C248 C249 1.392 . S
C248 C251 1.511 . S
C249 C245 1.376 . S
C249 C248 1.392 . S
C249 H261 0.929 . S
C250 C246 1.531 . S
C250 H262 0.960 . S
C250 H263 0.962 . S
C250 H264 0.960 . S
C251 C248 1.511 . S
C251 H265 0.961 . S
C251 H266 0.961 . S
C251 H267 0.961 . S
C252 C253 1.370 . S
C252 C254 1.363 . S
C252 H268 0.931 . S
C253 C252 1.370 . S
C253 C257 1.408 . S
C254 C252 1.363 . S
C254 C255 1.370 . S
C254 C258 1.524 . S
C255 C247 1.503 1_655 S
C255 C254 1.370 . S
C255 C256 1.403 . S
C256 C255 1.403 . S
C256 C257 1.404 . S
C256 C259 1.539 1_655 S
C257 C253 1.408 . S
C257 C256 1.404 . S
C257 H269 0.930 . S
C258 C254 1.524 . S
C258 H270 0.956 . S
C258 H271 0.961 . S
C258 H272 0.961 . S
C259 C256 1.539 1_455 S
C259 H273 0.958 . S
C259 H274 0.961 . S
C259 H275 0.960 . S
H260 C244 0.931 . S
H261 C249 0.929 . S
H262 C250 0.960 . S
H263 C250 0.962 . S
H264 C250 0.960 . S
H265 C251 0.961 . S
H266 C251 0.961 . S
H267 C251 0.961 . S
H268 C252 0.931 . S
H269 C257 0.930 . S
H270 C258 0.956 . S
H271 C258 0.961 . S
H272 C258 0.961 . S
H273 C259 0.958 . S
H274 C259 0.961 . S
H275 C259 0.960 . S
C276 C277 1.391 . S
C276 C278 1.394 . S
C276 H292 0.931 . S
C277 C276 1.391 . S
C277 C281 1.376 . S
C278 C276 1.394 . S
C278 C279 1.369 . S
C278 C282 1.531 . S
C279 C278 1.369 . S
C279 C280 1.410 . S
C279 C287 1.503 . S
C280 C279 1.410 . S
C280 C281 1.392 . S
C280 C283 1.511 . S
C281 C277 1.376 . S
C281 C280 1.392 . S
C281 H293 0.929 . S
C282 C278 1.531 . S
C282 H294 0.960 . S
C282 H295 0.962 . S
C282 H296 0.960 . S
C283 C280 1.511 . S
C283 H297 0.961 . S
C283 H298 0.961 . S
C283 H299 0.961 . S
C284 C285 1.370 . S
C284 C286 1.363 . S
C284 H300 0.931 . S
C285 C284 1.370 . S
C285 C289 1.408 . S
C286 C284 1.363 . S
C286 C287 1.370 . S
C286 C290 1.524 . S
C287 C279 1.503 . S
C287 C286 1.370 . S
C287 C288 1.403 . S
C288 C287 1.403 . S
C288 C289 1.404 . S
C288 C291 1.539 . S
C289 C285 1.408 . S
C289 C288 1.404 . S
C289 H301 0.930 . S
C290 C286 1.524 . S
C290 H302 0.956 . S
C290 H303 0.961 . S
C290 H304 0.961 . S
C291 C288 1.539 . S
C291 H305 0.958 . S
C291 H306 0.961 . S
C291 H307 0.960 . S
H292 C276 0.931 . S
H293 C281 0.929 . S
H294 C282 0.960 . S
H295 C282 0.962 . S
H296 C282 0.960 . S
H297 C283 0.961 . S
H298 C283 0.961 . S
H299 C283 0.961 . S
H300 C284 0.931 . S
H301 C289 0.930 . S
H302 C290 0.956 . S
H303 C290 0.961 . S
H304 C290 0.961 . S
H305 C291 0.958 . S
H306 C291 0.961 . S
H307 C291 0.960 . S
C308 C309 1.391 . S
C308 C310 1.394 . S
C308 H324 0.931 . S
C309 C308 1.391 . S
C309 C313 1.376 . S
C310 C308 1.394 . S
C310 C311 1.369 . S
C310 C314 1.531 . S
C311 C310 1.369 . S
C311 C312 1.410 . S
C311 C319 1.503 . S
C312 C311 1.410 . S
C312 C313 1.392 . S
C312 C315 1.511 . S
C313 C309 1.376 . S
C313 C312 1.392 . S
C313 H325 0.929 . S
C314 C310 1.531 . S
C314 H326 0.960 . S
C314 H327 0.962 . S
C314 H328 0.960 . S
C315 C312 1.511 . S
C315 H329 0.961 . S
C315 H330 0.961 . S
C315 H331 0.961 . S
C316 C317 1.370 . S
C316 C318 1.363 . S
C316 H332 0.931 . S
C317 C316 1.370 . S
C317 C321 1.408 . S
C318 C316 1.363 . S
C318 C319 1.370 . S
C318 C322 1.524 . S
C319 C311 1.503 . S
C319 C318 1.370 . S
C319 C320 1.403 . S
C320 C319 1.403 . S
C320 C321 1.404 . S
C320 C323 1.539 . S
C321 C317 1.408 . S
C321 C320 1.404 . S
C321 H333 0.930 . S
C322 C318 1.524 . S
C322 H334 0.956 . S
C322 H335 0.961 . S
C322 H336 0.961 . S
C323 C320 1.539 . S
C323 H337 0.958 . S
C323 H338 0.961 . S
C323 H339 0.960 . S
H324 C308 0.931 . S
H325 C313 0.929 . S
H326 C314 0.960 . S
H327 C314 0.962 . S
H328 C314 0.960 . S
H329 C315 0.961 . S
H330 C315 0.961 . S
H331 C315 0.961 . S
H332 C316 0.931 . S
H333 C321 0.930 . S
H334 C322 0.956 . S
H335 C322 0.961 . S
H336 C322 0.961 . S
H337 C323 0.958 . S
H338 C323 0.961 . S
H339 C323 0.960 . S
C340 C341 1.391 . S
C340 C342 1.394 . S
C340 H356 0.931 . S
C341 C340 1.391 . S
C341 C345 1.376 . S
C342 C340 1.394 . S
C342 C343 1.369 . S
C342 C346 1.531 . S
C343 C342 1.369 . S
C343 C344 1.410 . S
C343 C351 1.503 . S
C344 C343 1.410 . S
C344 C345 1.392 . S
C344 C347 1.511 . S
C345 C341 1.376 . S
C345 C344 1.392 . S
C345 H357 0.929 . S
C346 C342 1.531 . S
C346 H358 0.960 . S
C346 H359 0.962 . S
C346 H360 0.960 . S
C347 C344 1.511 . S
C347 H361 0.961 . S
C347 H362 0.961 . S
C347 H363 0.961 . S
C348 C349 1.370 . S
C348 C350 1.363 . S
C348 H364 0.931 . S
C349 C348 1.370 . S
C349 C353 1.408 . S
C350 C348 1.363 . S
C350 C351 1.370 . S
C350 C354 1.524 . S
C351 C343 1.503 . S
C351 C350 1.370 . S
C351 C352 1.403 . S
C352 C351 1.403 . S
C352 C353 1.404 . S
C352 C355 1.539 . S
C353 C349 1.408 . S
C353 C352 1.404 . S
C353 H365 0.930 . S
C354 C350 1.524 . S
C354 H366 0.956 . S
C354 H367 0.961 . S
C354 H368 0.961 . S
C355 C352 1.539 . S
C355 H369 0.958 . S
C355 H370 0.961 . S
C355 H371 0.960 . S
H356 C340 0.931 . S
H357 C345 0.929 . S
H358 C346 0.960 . S
H359 C346 0.962 . S
H360 C346 0.960 . S
H361 C347 0.961 . S
H362 C347 0.961 . S
H363 C347 0.961 . S
H364 C348 0.931 . S
H365 C353 0.930 . S
H366 C354 0.956 . S
H367 C354 0.961 . S
H368 C354 0.961 . S
H369 C355 0.958 . S
H370 C355 0.961 . S
H371 C355 0.960 . S
C372 C373 1.391 . S
C372 C374 1.394 . S
C372 H388 0.931 . S
C373 C372 1.391 . S
C373 C377 1.376 . S
C374 C372 1.394 . S
C374 C375 1.369 . S
C374 C378 1.531 . S
C375 C374 1.369 . S
C375 C376 1.410 . S
C375 C383 1.503 . S
C376 C375 1.410 . S
C376 C377 1.392 . S
C376 C379 1.511 . S
C377 C373 1.376 . S
C377 C376 1.392 . S
C377 H389 0.929 . S
C378 C374 1.531 . S
C378 H390 0.960 . S
C378 H391 0.962 . S
C378 H392 0.960 . S
C379 C376 1.511 . S
C379 H393 0.961 . S
C379 H394 0.961 . S
C379 H395 0.961 . S
C380 C381 1.370 . S
C380 C382 1.363 . S
C380 H396 0.931 1_556 S
C381 C380 1.370 . S
C381 C385 1.408 . S
C382 C380 1.363 . S
C382 C383 1.370 . S
C382 C386 1.524 . S
C383 C375 1.503 . S
C383 C382 1.370 . S
C383 C384 1.403 . S
C384 C383 1.403 . S
C384 C385 1.404 . S
C384 C387 1.539 . S
C385 C381 1.408 . S
C385 C384 1.404 . S
C385 H397 0.930 . S
C386 C382 1.524 . S
C386 H398 0.956 . S
C386 H399 0.961 . S
C386 H400 0.961 . S
C387 C384 1.539 . S
C387 H401 0.958 . S
C387 H402 0.961 . S
C387 H403 0.960 . S
H388 C372 0.931 . S
H389 C377 0.929 . S
H390 C378 0.960 . S
H391 C378 0.962 . S
H392 C378 0.960 . S
H393 C379 0.961 . S
H394 C379 0.961 . S
H395 C379 0.961 . S
H396 C380 0.931 1_554 S
H397 C385 0.930 . S
H398 C386 0.956 . S
H399 C386 0.961 . S
H400 C386 0.961 . S
H401 C387 0.958 . S
H402 C387 0.961 . S
H403 C387 0.960 . S
C404 C405 1.391 . S
C404 C406 1.394 . S
C404 H420 0.931 . S
C405 C404 1.391 . S
C405 C409 1.376 . S
C406 C404 1.394 . S
C406 C407 1.369 . S
C406 C410 1.531 . S
C407 C406 1.369 . S
C407 C408 1.410 . S
C407 C415 1.503 . S
C408 C407 1.410 . S
C408 C409 1.392 . S
C408 C411 1.511 . S
C409 C405 1.376 . S
C409 C408 1.392 . S
C409 H421 0.929 1_554 S
C410 C406 1.531 . S
C410 H422 0.960 . S
C410 H423 0.962 . S
C410 H424 0.960 . S
C411 C408 1.511 . S
C411 H425 0.961 . S
C411 H426 0.961 . S
C411 H427 0.961 . S
C412 C413 1.370 . S
C412 C414 1.363 . S
C412 H428 0.931 . S
C413 C412 1.370 . S
C413 C417 1.408 . S
C414 C412 1.363 . S
C414 C415 1.370 . S
C414 C418 1.524 . S
C415 C407 1.503 . S
C415 C414 1.370 . S
C415 C416 1.403 . S
C416 C415 1.403 . S
C416 C417 1.404 . S
C416 C419 1.539 . S
C417 C413 1.408 . S
C417 C416 1.404 . S
C417 H429 0.930 . S
C418 C414 1.524 . S
C418 H430 0.956 . S
C418 H431 0.961 . S
C418 H432 0.961 . S
C419 C416 1.539 . S
C419 H433 0.958 . S
C419 H434 0.961 . S
C419 H435 0.960 . S
H420 C404 0.931 . S
H421 C409 0.929 1_556 S
H422 C410 0.960 . S
H423 C410 0.962 . S
H424 C410 0.960 . S
H425 C411 0.961 . S
H426 C411 0.961 . S
H427 C411 0.961 . S
H428 C412 0.931 . S
H429 C417 0.930 . S
H430 C418 0.956 . S
H431 C418 0.961 . S
H432 C418 0.961 . S
H433 C419 0.958 . S
H434 C419 0.961 . S
H435 C419 0.960 . S
C436 C437 1.391 . S
C436 C438 1.394 . S
C436 H452 0.931 . S
C437 C436 1.391 . S
C437 C441 1.376 . S
C438 C436 1.394 . S
C438 C439 1.369 . S
C438 C442 1.531 . S
C439 C438 1.369 . S
C439 C440 1.410 . S
C439 C447 1.503 . S
C440 C439 1.410 . S
C440 C441 1.392 . S
C440 C443 1.511 . S
C441 C437 1.376 . S
C441 C440 1.392 . S
C441 H453 0.929 . S
C442 C438 1.531 . S
C442 H454 0.960 . S
C442 H455 0.962 . S
C442 H456 0.960 . S
C443 C440 1.511 . S
C443 H457 0.961 . S
C443 H458 0.961 . S
C443 H459 0.961 . S
C444 C445 1.370 . S
C444 C446 1.363 . S
C444 H460 0.931 . S
C445 C444 1.370 . S
C445 C449 1.408 . S
C446 C444 1.363 . S
C446 C447 1.370 . S
C446 C450 1.524 . S
C447 C439 1.503 . S
C447 C446 1.370 . S
C447 C448 1.403 . S
C448 C447 1.403 . S
C448 C449 1.404 . S
C448 C451 1.539 . S
C449 C445 1.408 . S
C449 C448 1.404 . S
C449 H461 0.930 . S
C450 C446 1.524 . S
C450 H462 0.956 . S
C450 H463 0.961 . S
C450 H464 0.961 . S
C451 C448 1.539 . S
C451 H465 0.958 . S
C451 H466 0.961 . S
C451 H467 0.960 . S
H452 C436 0.931 . S
H453 C441 0.929 . S
H454 C442 0.960 . S
H455 C442 0.962 . S
H456 C442 0.960 . S
H457 C443 0.961 . S
H458 C443 0.961 . S
H459 C443 0.961 . S
H460 C444 0.931 . S
H461 C449 0.930 . S
H462 C450 0.956 . S
H463 C450 0.961 . S
H464 C450 0.961 . S
H465 C451 0.958 . S
H466 C451 0.961 . S
H467 C451 0.960 . S
C85 C5 1.607 . S
C93 C81 1.599 . S
C117 C11 1.597 . S
C125 C19 1.607 . S
C149 C33 1.607 . S
C157 C25 1.604 . S
C181 C47 1.601 . S
C189 C39 1.605 . S
C213 C61 1.602 . S
C221 C53 1.599 . S
C245 C75 1.601 . S
C253 C67 1.605 . S
C277 C0 1.456 . S
C285 C65 1.457 . S
C309 C79 1.461 . S
C317 C14 1.450 . S
C341 C28 1.443 . S
C349 C9 1.460 . S
C373 C23 1.455 . S
C381 C42 1.443 1_556 S
C405 C37 1.454 1_554 S
C413 C56 1.453 . S
C437 C70 1.458 . S
C445 C51 1.458 . S
