# Generated by pormake.
# Topology uoi, (4)-cn, num edge types: 1
# Building blocks:
#     Node 0, Type 0, BuildingBlock: AZAVOO_clean_sbu_0, # of connection points: 4
#     Node 1, Type 0, BuildingBlock: AZAVOO_clean_sbu_0, # of connection points: 4
#     Node 2, Type 0, BuildingBlock: AZAVOO_clean_sbu_0, # of connection points: 4
#     Node 3, Type 0, BuildingBlock: AZAVOO_clean_sbu_0, # of connection points: 4
#     Node 4, Type 0, BuildingBlock: AZAVOO_clean_sbu_0, # of connection points: 4
#     Node 5, Type 0, BuildingBlock: AZAVOO_clean_sbu_0, # of connection points: 4
#     Node 6, Type 0, BuildingBlock: AZAVOO_clean_sbu_0, # of connection points: 4
#     Node 7, Type 0, BuildingBlock: AZAVOO_clean_sbu_0, # of connection points: 4
#     Node 8, Type 0, BuildingBlock: AZAVOO_clean_sbu_0, # of connection points: 4
#     Node 9, Type 0, BuildingBlock: AZAVOO_clean_sbu_0, # of connection points: 4
#     Node 10, Type 0, BuildingBlock: AZAVOO_clean_sbu_0, # of connection points: 4
#     Node 11, Type 0, BuildingBlock: AZAVOO_clean_sbu_0, # of connection points: 4
#     Node 12, Type 0, BuildingBlock: AZAVOO_clean_sbu_0, # of connection points: 4
#     Node 13, Type 0, BuildingBlock: AZAVOO_clean_sbu_0, # of connection points: 4
#     Node 14, Type 0, BuildingBlock: AZAVOO_clean_sbu_0, # of connection points: 4
#     Node 15, Type 0, BuildingBlock: AZAVOO_clean_sbu_0, # of connection points: 4
#     Node 16, Type 0, BuildingBlock: AZAVOO_clean_sbu_0, # of connection points: 4
#     Node 17, Type 0, BuildingBlock: AZAVOO_clean_sbu_0, # of connection points: 4
#     Node 18, Type 0, BuildingBlock: AZAVOO_clean_sbu_0, # of connection points: 4
#     Node 19, Type 0, BuildingBlock: AZAVOO_clean_sbu_0, # of connection points: 4
#     Node 20, Type 0, BuildingBlock: AZAVOO_clean_sbu_0, # of connection points: 4
#     Node 21, Type 0, BuildingBlock: AZAVOO_clean_sbu_0, # of connection points: 4
#     Node 22, Type 0, BuildingBlock: AZAVOO_clean_sbu_0, # of connection points: 4
#     Node 23, Type 0, BuildingBlock: AZAVOO_clean_sbu_0, # of connection points: 4
#     Node 24, Type 0, BuildingBlock: AZAVOO_clean_sbu_0, # of connection points: 4
#     Node 25, Type 0, BuildingBlock: AZAVOO_clean_sbu_0, # of connection points: 4
#     Node 26, Type 0, BuildingBlock: AZAVOO_clean_sbu_0, # of connection points: 4
#     Node 27, Type 0, BuildingBlock: AZAVOO_clean_sbu_0, # of connection points: 4
#     Node 28, Type 0, BuildingBlock: AZAVOO_clean_sbu_0, # of connection points: 4
#     Node 29, Type 0, BuildingBlock: AZAVOO_clean_sbu_0, # of connection points: 4
#     Node 30, Type 0, BuildingBlock: AZAVOO_clean_sbu_0, # of connection points: 4
#     Node 31, Type 0, BuildingBlock: AZAVOO_clean_sbu_0, # of connection points: 4
#     Edge 32, Type (0, 0), BuildingBlock: AJUNOK_clean_linker_0, # of connection points: 2
#     Edge 33, Type (0, 0), BuildingBlock: AJUNOK_clean_linker_0, # of connection points: 2
#     Edge 34, Type (0, 0), BuildingBlock: AJUNOK_clean_linker_0, # of connection points: 2
#     Edge 35, Type (0, 0), BuildingBlock: AJUNOK_clean_linker_0, # of connection points: 2
#     Edge 36, Type (0, 0), BuildingBlock: AJUNOK_clean_linker_0, # of connection points: 2
#     Edge 37, Type (0, 0), BuildingBlock: AJUNOK_clean_linker_0, # of connection points: 2
#     Edge 38, Type (0, 0), BuildingBlock: AJUNOK_clean_linker_0, # of connection points: 2
#     Edge 39, Type (0, 0), BuildingBlock: AJUNOK_clean_linker_0, # of connection points: 2
#     Edge 40, Type (0, 0), BuildingBlock: AJUNOK_clean_linker_0, # of connection points: 2
#     Edge 41, Type (0, 0), BuildingBlock: AJUNOK_clean_linker_0, # of connection points: 2
#     Edge 42, Type (0, 0), BuildingBlock: AJUNOK_clean_linker_0, # of connection points: 2
#     Edge 43, Type (0, 0), BuildingBlock: AJUNOK_clean_linker_0, # of connection points: 2
#     Edge 44, Type (0, 0), BuildingBlock: AJUNOK_clean_linker_0, # of connection points: 2
#     Edge 45, Type (0, 0), BuildingBlock: AJUNOK_clean_linker_0, # of connection points: 2
#     Edge 46, Type (0, 0), BuildingBlock: AJUNOK_clean_linker_0, # of connection points: 2
#     Edge 47, Type (0, 0), BuildingBlock: AJUNOK_clean_linker_0, # of connection points: 2
#     Edge 48, Type (0, 0), BuildingBlock: AJUNOK_clean_linker_0, # of connection points: 2
#     Edge 49, Type (0, 0), BuildingBlock: AJUNOK_clean_linker_0, # of connection points: 2
#     Edge 50, Type (0, 0), BuildingBlock: AJUNOK_clean_linker_0, # of connection points: 2
#     Edge 51, Type (0, 0), BuildingBlock: AJUNOK_clean_linker_0, # of connection points: 2
#     Edge 52, Type (0, 0), BuildingBlock: AJUNOK_clean_linker_0, # of connection points: 2
#     Edge 53, Type (0, 0), BuildingBlock: AJUNOK_clean_linker_0, # of connection points: 2
#     Edge 54, Type (0, 0), BuildingBlock: AJUNOK_clean_linker_0, # of connection points: 2
#     Edge 55, Type (0, 0), BuildingBlock: AJUNOK_clean_linker_0, # of connection points: 2
#     Edge 56, Type (0, 0), BuildingBlock: AJUNOK_clean_linker_0, # of connection points: 2
#     Edge 57, Type (0, 0), BuildingBlock: AJUNOK_clean_linker_0, # of connection points: 2
#     Edge 58, Type (0, 0), BuildingBlock: AJUNOK_clean_linker_0, # of connection points: 2
#     Edge 59, Type (0, 0), BuildingBlock: AJUNOK_clean_linker_0, # of connection points: 2
#     Edge 60, Type (0, 0), BuildingBlock: AJUNOK_clean_linker_0, # of connection points: 2
#     Edge 61, Type (0, 0), BuildingBlock: AJUNOK_clean_linker_0, # of connection points: 2
#     Edge 62, Type (0, 0), BuildingBlock: AJUNOK_clean_linker_0, # of connection points: 2
#     Edge 63, Type (0, 0), BuildingBlock: AJUNOK_clean_linker_0, # of connection points: 2
#     Edge 64, Type (0, 0), BuildingBlock: AJUNOK_clean_linker_0, # of connection points: 2
#     Edge 65, Type (0, 0), BuildingBlock: AJUNOK_clean_linker_0, # of connection points: 2
#     Edge 66, Type (0, 0), BuildingBlock: AJUNOK_clean_linker_0, # of connection points: 2
#     Edge 67, Type (0, 0), BuildingBlock: AJUNOK_clean_linker_0, # of connection points: 2
#     Edge 68, Type (0, 0), BuildingBlock: AJUNOK_clean_linker_0, # of connection points: 2
#     Edge 69, Type (0, 0), BuildingBlock: AJUNOK_clean_linker_0, # of connection points: 2
#     Edge 70, Type (0, 0), BuildingBlock: AJUNOK_clean_linker_0, # of connection points: 2
#     Edge 71, Type (0, 0), BuildingBlock: AJUNOK_clean_linker_0, # of connection points: 2
#     Edge 72, Type (0, 0), BuildingBlock: AJUNOK_clean_linker_0, # of connection points: 2
#     Edge 73, Type (0, 0), BuildingBlock: AJUNOK_clean_linker_0, # of connection points: 2
#     Edge 74, Type (0, 0), BuildingBlock: AJUNOK_clean_linker_0, # of connection points: 2
#     Edge 75, Type (0, 0), BuildingBlock: AJUNOK_clean_linker_0, # of connection points: 2
#     Edge 76, Type (0, 0), BuildingBlock: AJUNOK_clean_linker_0, # of connection points: 2
#     Edge 77, Type (0, 0), BuildingBlock: AJUNOK_clean_linker_0, # of connection points: 2
#     Edge 78, Type (0, 0), BuildingBlock: AJUNOK_clean_linker_0, # of connection points: 2
#     Edge 79, Type (0, 0), BuildingBlock: AJUNOK_clean_linker_0, # of connection points: 2
#     Edge 80, Type (0, 0), BuildingBlock: AJUNOK_clean_linker_0, # of connection points: 2
#     Edge 81, Type (0, 0), BuildingBlock: AJUNOK_clean_linker_0, # of connection points: 2
#     Edge 82, Type (0, 0), BuildingBlock: AJUNOK_clean_linker_0, # of connection points: 2
#     Edge 83, Type (0, 0), BuildingBlock: AJUNOK_clean_linker_0, # of connection points: 2
#     Edge 84, Type (0, 0), BuildingBlock: AJUNOK_clean_linker_0, # of connection points: 2
#     Edge 85, Type (0, 0), BuildingBlock: AJUNOK_clean_linker_0, # of connection points: 2
#     Edge 86, Type (0, 0), BuildingBlock: AJUNOK_clean_linker_0, # of connection points: 2
#     Edge 87, Type (0, 0), BuildingBlock: AJUNOK_clean_linker_0, # of connection points: 2
#     Edge 88, Type (0, 0), BuildingBlock: AJUNOK_clean_linker_0, # of connection points: 2
#     Edge 89, Type (0, 0), BuildingBlock: AJUNOK_clean_linker_0, # of connection points: 2
#     Edge 90, Type (0, 0), BuildingBlock: AJUNOK_clean_linker_0, # of connection points: 2
#     Edge 91, Type (0, 0), BuildingBlock: AJUNOK_clean_linker_0, # of connection points: 2
#     Edge 92, Type (0, 0), BuildingBlock: AJUNOK_clean_linker_0, # of connection points: 2
#     Edge 93, Type (0, 0), BuildingBlock: AJUNOK_clean_linker_0, # of connection points: 2
#     Edge 94, Type (0, 0), BuildingBlock: AJUNOK_clean_linker_0, # of connection points: 2
#     Edge 95, Type (0, 0), BuildingBlock: AJUNOK_clean_linker_0, # of connection points: 2
# Relax obj value: 0.346
# Max RMSD: 0.232
# Mean RMSD: 0.225
data_MOF--net-uoi--node1-AZAVOO_clean_sbu_0--edge1-AJUNOK_clean_linker_0
_symmetry_space_group_name_H-M    P1
_symmetry_Int_Tables_number       1
_symmetry_cell_setting            triclinic
loop_
_symmetry_equiv_pos_as_xyz
'x, y, z'
_cell_length_a     63.345328
_cell_length_b     63.382135
_cell_length_c     13.08097
_cell_angle_alpha  90.103891
_cell_angle_beta   89.791853
_cell_angle_gamma 89.938416
loop_
_atom_site_label
_atom_site_type_symbol
_atom_site_fract_x
_atom_site_fract_y
_atom_site_fract_z
_atom_type_partial_charge
Mg0 Mg 0.19581 0.17042 0.11242 0.0
O1 O 0.18885 0.19958 0.20774 0.0
O2 O 0.16669 0.21996 0.12132 0.0
Mg3 Mg 0.15498 0.20122 0.98081 0.0
C4 C 0.17922 0.21699 0.19619 0.0
C5 C 0.22833 0.16751 0.29621 0.0
O6 O 0.23802 0.18174 0.2402 0.0
O7 O 0.16483 0.15241 0.14786 0.0
O8 O 0.14167 0.17204 0.06099 0.0
O9 O 0.21787 0.19239 0.02308 0.0
O10 O 0.18549 0.18479 0.97642 0.0
C11 C 0.14613 0.15579 0.1143 0.0
C12 C 0.20231 0.19531 0.96085 0.0
O13 O 0.21164 0.1589 0.26165 0.0
Mg14 Mg 0.06418 0.9372 0.35894 0.0
O15 O 0.03591 0.92939 0.45919 0.0
O16 O 0.0165 0.90552 0.37808 0.0
Mg17 Mg 0.03513 0.89364 0.23756 0.0
C18 C 0.01902 0.91874 0.45076 0.0
C19 C 0.06762 0.97301 0.53066 0.0
O20 O 0.05499 0.98298 0.4676 0.0
O21 O 0.08416 0.90745 0.39883 0.0
O22 O 0.06509 0.88289 0.31855 0.0
O23 O 0.04037 0.95727 0.27014 0.0
O24 O 0.04944 0.92502 0.22677 0.0
C25 C 0.08126 0.88831 0.37017 0.0
C26 C 0.03755 0.94097 0.212 0.0
O27 O 0.07524 0.9552 0.50378 0.0
Mg28 Mg 0.29616 0.81428 0.59981 0.0
O29 O 0.30081 0.78562 0.701 0.0
O30 O 0.32754 0.76651 0.64141 0.0
Mg31 Mg 0.34226 0.78441 0.50582 0.0
C32 C 0.31221 0.76916 0.70373 0.0
C33 C 0.26012 0.81605 0.77426 0.0
O34 O 0.25191 0.80067 0.72007 0.0
O35 O 0.32507 0.83359 0.6549 0.0
O36 O 0.35158 0.81481 0.58759 0.0
O37 O 0.27784 0.79216 0.49174 0.0
O38 O 0.31137 0.79927 0.47374 0.0
C39 C 0.34473 0.83108 0.63475 0.0
C40 C 0.29539 0.78879 0.44338 0.0
O41 O 0.27621 0.82582 0.73926 0.0
Mg42 Mg 0.41621 0.04228 0.85933 0.0
O43 O 0.44554 0.04853 0.95403 0.0
O44 O 0.46574 0.07181 0.87306 0.0
Mg45 Mg 0.44671 0.08482 0.7368 0.0
C46 C 0.46282 0.05849 0.94481 0.0
C47 C 0.41637 0.00979 0.04325 0.0
O48 O 0.43349 0.00382 0.99396 0.0
O49 O 0.39832 0.07275 0.90616 0.0
O50 O 0.41787 0.09686 0.82469 0.0
O51 O 0.43792 0.02141 0.76136 0.0
O52 O 0.43038 0.0544 0.72578 0.0
C53 C 0.40185 0.09186 0.87892 0.0
C54 C 0.44083 0.03779 0.70407 0.0
O55 O 0.40486 0.02413 0.00373 0.0
Mg56 Mg 0.19805 0.81034 0.38203 0.0
O57 O 0.19096 0.78099 0.29002 0.0
O58 O 0.16869 0.76098 0.3782 0.0
Mg59 Mg 0.15673 0.78024 0.51675 0.0
C60 C 0.1813 0.76366 0.30299 0.0
C61 C 0.23289 0.81617 0.20171 0.0
O62 O 0.24541 0.80666 0.26694 0.0
O63 O 0.16702 0.82847 0.34392 0.0
O64 O 0.14394 0.80884 0.43151 0.0
O65 O 0.2195 0.78797 0.47369 0.0
O66 O 0.18731 0.79639 0.52016 0.0
C67 C 0.14821 0.82482 0.37605 0.0
C68 C 0.20374 0.78525 0.53546 0.0
O69 O 0.21409 0.82074 0.22927 0.0
Mg70 Mg 0.42515 0.94679 0.6446 0.0
O71 O 0.45392 0.93696 0.55424 0.0
O72 O 0.47303 0.91418 0.64325 0.0
Mg73 Mg 0.45321 0.90515 0.78529 0.0
C74 C 0.47067 0.92625 0.56613 0.0
C75 C 0.40814 0.97983 0.46536 0.0
O76 O 0.40134 -0.00756 0.53819 0.0
O77 O 0.40554 0.91652 0.61139 0.0
O78 O 0.42399 0.89305 0.70224 0.0
O79 O 0.4486 0.96793 0.73024 0.0
O80 O 0.43864 0.93665 0.78359 0.0
C81 C 0.40818 0.89781 0.64653 0.0
C82 C 0.45054 0.95268 0.79522 0.0
O83 O 0.41653 0.96225 0.48929 0.0
Mg84 Mg 0.28605 0.16934 0.90763 0.0
O85 O 0.29118 0.19923 0.81592 0.0
O86 O 0.31423 0.21967 0.89599 0.0
Mg87 Mg 0.32711 0.20088 0.03378 0.0
C88 C 0.30086 0.21665 0.82455 0.0
C89 C 0.25208 0.16391 0.72602 0.0
O90 O 0.2395 0.17449 0.78755 0.0
O91 O 0.31734 0.15259 0.86362 0.0
O92 O 0.34063 0.17253 0.94777 0.0
O93 O 0.26415 0.19025 0.0051 0.0
O94 O 0.29714 0.18346 0.04285 0.0
C95 C 0.33623 0.15647 0.89293 0.0
C96 C 0.28028 0.19359 0.06338 0.0
O97 O 0.27019 0.15822 0.75787 0.0
Mg98 Mg 0.06186 0.04359 0.11178 0.0
O99 O 0.0335 0.05198 0.0142 0.0
O100 O 0.0144 0.0761 0.09617 0.0
Mg101 Mg 0.03328 0.08717 0.23702 0.0
C102 C 0.01681 0.06297 0.02293 0.0
C103 C 0.06877 0.00637 0.94728 0.0
O104 O 0.06022 -0.0052 0.01961 0.0
O105 O 0.08191 0.0732 0.07328 0.0
O106 O 0.06339 0.09801 0.15622 0.0
O107 O 0.03825 0.02354 0.20254 0.0
O108 O 0.04767 0.0557 0.24545 0.0
C109 C 0.07948 0.09229 0.10411 0.0
C110 C 0.03602 0.03969 0.26234 0.0
O111 O 0.07251 0.02577 0.96527 0.0
Mg112 Mg 0.78814 0.81056 0.88199 0.0
O113 O 0.79438 0.78258 0.77656 0.0
O114 O 0.81893 0.76225 0.84673 0.0
Mg115 Mg 0.83237 0.77974 0.987 0.0
C116 C 0.80507 0.76562 0.77799 0.0
C117 C 0.77382 0.82832 0.6618 0.0
O118 O 0.79406 0.83222 0.65167 0.0
O119 O 0.81773 0.8302 0.83464 0.0
O120 O 0.84248 0.8099 0.90624 0.0
O121 O 0.7687 0.78722 0.9758 0.0
O122 O 0.80174 0.79517 0.00913 0.0
C123 C 0.83705 0.8265 0.85785 0.0
C124 C 0.78554 0.78397 0.02925 0.0
O125 O 0.76691 0.82145 0.74727 0.0
Mg126 Mg 0.92025 0.04404 0.61265 0.0
O127 O 0.94866 0.05233 0.5152 0.0
O128 O 0.96785 0.07632 0.59666 0.0
Mg129 Mg 0.94865 0.08766 0.73683 0.0
C130 C 0.9654 0.06317 0.5236 0.0
C131 C 0.91395 0.00681 0.44713 0.0
O132 O 0.92208 -0.00498 0.51953 0.0
O133 O 0.90027 0.07364 0.57231 0.0
O134 O 0.91881 0.09842 0.65419 0.0
O135 O 0.94382 0.02408 0.70354 0.0
O136 O 0.93426 0.05622 0.74644 0.0
C137 C 0.90285 0.0928 0.60148 0.0
C138 C 0.94599 0.04025 0.76315 0.0
O139 O 0.91019 0.0262 0.46564 0.0
Mg140 Mg 0.69021 0.16582 0.38226 0.0
O141 O 0.68163 0.19439 0.28649 0.0
O142 O 0.65839 0.2138 0.37244 0.0
Mg143 Mg 0.64804 0.19488 0.51472 0.0
C144 C 0.67101 0.21127 0.29707 0.0
C145 C 0.72453 0.16039 0.20163 0.0
O146 O 0.73707 0.17053 0.26452 0.0
O147 O 0.66005 0.14631 0.34836 0.0
O148 O 0.63597 0.16522 0.43419 0.0
O149 O 0.71134 0.18921 0.46669 0.0
O150 O 0.67949 0.18023 0.51782 0.0
C151 C 0.64114 0.14909 0.38103 0.0
C152 C 0.69567 0.19197 0.52911 0.0
O153 O 0.70618 0.15501 0.23201 0.0
Mg154 Mg 0.56688 0.94606 0.14686 0.0
O155 O 0.53841 0.9395 0.04494 0.0
O156 O 0.51901 0.91451 0.11809 0.0
Mg157 Mg 0.53772 0.90088 0.25382 0.0
C158 C 0.52157 0.92867 0.0499 0.0
C159 C 0.56588 0.97944 0.96891 0.0
O160 O 0.54729 0.98246 0.01148 0.0
O161 O 0.58672 0.91707 0.09611 0.0
O162 O 0.56792 0.89135 0.16961 0.0
O163 O 0.54374 0.9649 0.24676 0.0
O164 O 0.5524 0.93187 0.27445 0.0
C165 C 0.58412 0.89762 0.11988 0.0
C166 C 0.54121 0.94779 0.29931 0.0
O167 O 0.57861 0.96652 0.01096 0.0
Mg168 Mg 0.78365 0.16581 0.59479 0.0
O169 O 0.78855 0.19535 0.69035 0.0
O170 O 0.81043 0.21692 0.6091 0.0
Mg171 Mg 0.82291 0.1992 0.46637 0.0
C172 C 0.7977 0.21309 0.68269 0.0
C173 C 0.75032 0.16135 0.7733 0.0
O174 O 0.7403 0.17461 0.71351 0.0
O175 O 0.81562 0.14971 0.63269 0.0
O176 O 0.83767 0.17081 0.54686 0.0
O177 O 0.76037 0.18625 0.50583 0.0
O178 O 0.7934 0.18102 0.45993 0.0
C179 C 0.83419 0.15438 0.60061 0.0
C180 C 0.77593 0.1905 0.44483 0.0
O181 O 0.76778 0.15354 0.74265 0.0
Mg182 Mg 0.55718 0.03649 0.35668 0.0
O183 O 0.52822 0.04596 0.44726 0.0
O184 O 0.51005 0.07033 0.36367 0.0
Mg185 Mg 0.53064 0.08031 0.22573 0.0
C186 C 0.51184 0.0573 0.43744 0.0
C187 C 0.5801 0.01587 0.56289 0.0
O188 O 0.59835 0.02371 0.53397 0.0
O189 O 0.57736 0.06566 0.40113 0.0
O190 O 0.55992 0.09057 0.31443 0.0
O191 O 0.53406 0.01675 0.26371 0.0
O192 O 0.54458 0.04853 0.21943 0.0
C193 C 0.57534 0.08477 0.37041 0.0
C194 C 0.53261 0.03272 0.20256 0.0
O195 O 0.56398 0.01823 0.5061 0.0
Mg196 Mg 0.6985 0.81559 0.08803 0.0
O197 O 0.68995 0.78726 0.18769 0.0
O198 O 0.6661 0.7679 0.10622 0.0
Mg199 Mg 0.6541 0.78707 0.96874 0.0
C200 C 0.67932 0.77036 0.17863 0.0
C201 C 0.72847 0.81424 0.28261 0.0
O202 O 0.72909 0.7943 0.25552 0.0
O203 O 0.66915 0.83576 0.13199 0.0
O204 O 0.64411 0.81699 0.05321 0.0
O205 O 0.71807 0.79199 0.99486 0.0
O206 O 0.68556 0.80115 0.95719 0.0
C207 C 0.64989 0.83308 0.10475 0.0
C208 C 0.70149 0.78942 0.93862 0.0
O209 O 0.71833 0.82737 0.22745 0.0
Mg210 Mg 0.9212 0.93861 0.85676 0.0
O211 O 0.94902 0.93061 0.95867 0.0
O212 O 0.96883 0.90638 0.88187 0.0
Mg213 Mg 0.95132 0.89536 0.73653 0.0
C214 C 0.96571 0.91953 0.95446 0.0
C215 C 0.91767 0.97396 0.02996 0.0
O216 O 0.93139 0.98334 0.9698 0.0
O217 O 0.90104 0.90869 0.89376 0.0
O218 O 0.92062 0.8848 0.81105 0.0
O219 O 0.94518 0.95878 0.76704 0.0
O220 O 0.93637 0.92644 0.72576 0.0
C221 C 0.90409 0.88977 0.86157 0.0
C222 C 0.94783 0.94252 0.70838 0.0
O223 O 0.90945 0.95661 0.00081 0.0
Mg224 Mg 0.69595 0.67319 0.58258 0.0
O225 O 0.68877 0.70168 0.68116 0.0
O226 O 0.66578 0.7224 0.60229 0.0
Mg227 Mg 0.65465 0.70465 0.45754 0.0
C228 C 0.67853 0.71886 0.67572 0.0
C229 C 0.73033 0.66603 0.76007 0.0
O230 O 0.74259 0.67692 0.69853 0.0
O231 O 0.66507 0.65491 0.6181 0.0
O232 O 0.64182 0.67507 0.53499 0.0
O233 O 0.71768 0.69592 0.4945 0.0
O234 O 0.68522 0.68834 0.44954 0.0
C235 C 0.64627 0.65862 0.58678 0.0
C236 C 0.70189 0.69908 0.43391 0.0
O237 O 0.71184 0.66109 0.73058 0.0
Mg238 Mg 0.56171 0.44025 0.84991 0.0
O239 O 0.53222 0.43096 0.9372 0.0
O240 O 0.51401 0.4071 0.85021 0.0
Mg241 Mg 0.53454 0.39735 0.71183 0.0
C242 C 0.51573 0.41986 0.92532 0.0
C243 C 0.57647 0.47527 0.02766 0.0
O244 O 0.58335 0.48791 0.95543 0.0
O245 O 0.58149 0.41021 0.89088 0.0
O246 O 0.56336 0.38658 0.79962 0.0
O247 O 0.53873 0.46044 0.75481 0.0
O248 O 0.54923 0.42872 0.71151 0.0
C249 C 0.57884 0.39135 0.85715 0.0
C250 C 0.53734 0.44448 0.69336 0.0
O251 O 0.56916 0.45721 0.00344 0.0
Mg252 Mg 0.77748 0.30843 0.10066 0.0
O253 O 0.78445 0.27924 0.19521 0.0
O254 O 0.80796 0.25926 0.11365 0.0
Mg255 Mg 0.82042 0.27834 0.97606 0.0
C256 C 0.79483 0.26216 0.18664 0.0
C257 C 0.75801 0.33458 0.2985 0.0
O258 O 0.76984 0.35052 0.26978 0.0
O259 O 0.80768 0.327 0.14896 0.0
O260 O 0.83118 0.30724 0.06419 0.0
O261 O 0.75726 0.28615 0.0034 0.0
O262 O 0.78998 0.29451 0.96626 0.0
C263 C 0.82667 0.32321 0.11954 0.0
C264 C 0.77372 0.28348 0.94592 0.0
O265 O 0.75787 0.31781 0.24454 0.0
Mg266 Mg 0.92137 0.54013 0.42097 0.0
O267 O 0.94522 0.55402 0.53539 0.0
O268 O 0.96653 0.57538 0.44783 0.0
Mg269 Mg 0.94359 0.58942 0.33171 0.0
C270 C 0.96296 0.56318 0.52346 0.0
C271 C 0.92745 0.50774 0.59437 0.0
O272 O 0.94566 0.50838 0.54618 0.0
O273 O 0.89526 0.56495 0.44796 0.0
O274 O 0.91808 0.5912 0.45564 0.0
O275 O 0.9496 0.52613 0.3354 0.0
O276 O 0.93511 0.55652 0.29668 0.0
C277 C 0.89909 0.58474 0.44915 0.0
C278 C 0.94977 0.54305 0.2802 0.0
O279 O 0.9121 0.51819 0.55689 0.0
Mg280 Mg 0.69193 0.30823 0.88372 0.0
O281 O 0.68444 0.28031 0.78129 0.0
O282 O 0.65949 0.26083 0.85441 0.0
Mg283 Mg 0.64694 0.27915 0.99481 0.0
C284 C 0.67324 0.26372 0.7842 0.0
C285 C 0.71243 0.33453 0.69001 0.0
O286 O 0.69971 0.35007 0.71555 0.0
O287 O 0.66286 0.32866 0.8363 0.0
O288 O 0.63788 0.30947 0.91332 0.0
O289 O 0.71061 0.28434 0.97971 0.0
O290 O 0.678 0.29374 0.01295 0.0
C291 C 0.64354 0.3257 0.86272 0.0
C292 C 0.69376 0.2821 0.03472 0.0
O293 O 0.71282 0.31794 0.74488 0.0
Mg294 Mg 0.91528 0.4317 0.15535 0.0
O295 O 0.9423 0.42219 0.05047 0.0
O296 O 0.96114 0.39644 0.12048 0.0
Mg297 Mg 0.94231 0.38477 0.26068 0.0
C298 C 0.95836 0.41022 0.0508 0.0
C299 C 0.92171 0.46628 0.99491 0.0
O300 O 0.93771 0.46775 0.05805 0.0
O301 O 0.89316 0.40406 0.10634 0.0
O302 O 0.91136 0.378 0.17995 0.0
O303 O 0.94017 0.44879 0.25194 0.0
O304 O 0.92943 0.41656 0.28223 0.0
C305 C 0.89529 0.38456 0.13083 0.0
C306 C 0.94191 0.43162 0.30451 0.0
O307 O 0.90679 0.45362 0.01815 0.0
Mg308 Mg 0.78719 0.66771 0.37466 0.0
O309 O 0.79676 0.69553 0.27647 0.0
O310 O 0.81982 0.71534 0.36044 0.0
Mg311 Mg 0.82941 0.69694 0.50526 0.0
C312 C 0.80757 0.7123 0.28457 0.0
C313 C 0.75443 0.66451 0.18959 0.0
O314 O 0.74359 0.67761 0.24738 0.0
O315 O 0.81703 0.64731 0.34466 0.0
O316 O 0.84078 0.66647 0.43005 0.0
O317 O 0.76632 0.6919 0.45805 0.0
O318 O 0.7979 0.6825 0.50924 0.0
C319 C 0.83577 0.65006 0.37894 0.0
C320 C 0.78187 0.69444 0.52076 0.0
O321 O 0.77142 0.65653 0.22443 0.0
Mg322 Mg 0.56686 0.544 0.6139 0.0
O323 O 0.53821 0.54964 0.51331 0.0
O324 O 0.51774 0.57401 0.58494 0.0
Mg325 Mg 0.53544 0.58742 0.72465 0.0
C326 C 0.52114 0.56015 0.51585 0.0
C327 C 0.56716 0.50953 0.44252 0.0
O328 O 0.55017 0.50483 0.49558 0.0
O329 O 0.58514 0.5741 0.56493 0.0
O330 O 0.56501 0.59857 0.64107 0.0
O331 O 0.5447 0.52384 0.71272 0.0
O332 O 0.55178 0.55715 0.74295 0.0
C333 C 0.58139 0.59333 0.58985 0.0
C334 C 0.54142 0.54065 0.76683 0.0
O335 O 0.57892 0.5244 0.47511 0.0
Mg336 Mg 0.28667 0.31231 0.40896 0.0
O337 O 0.29165 0.28234 0.31706 0.0
O338 O 0.31435 0.2616 0.39762 0.0
Mg339 Mg 0.3272 0.28025 0.53617 0.0
C340 C 0.30114 0.2648 0.32569 0.0
C341 C 0.25292 0.31778 0.2268 0.0
O342 O 0.24036 0.30716 0.288 0.0
O343 O 0.31822 0.32867 0.36584 0.0
O344 O 0.34105 0.30837 0.45079 0.0
O345 O 0.26445 0.29167 0.50568 0.0
O346 O 0.29745 0.29809 0.54434 0.0
C347 C 0.33701 0.32448 0.39587 0.0
C348 C 0.28048 0.28816 0.56435 0.0
O349 O 0.27099 0.32352 0.25899 0.0
Mg350 Mg 0.42454 0.54036 0.11143 0.0
O351 O 0.45348 0.5497 0.01994 0.0
O352 O 0.47209 0.57323 0.10731 0.0
Mg353 Mg 0.45201 0.58315 0.2469 0.0
C354 C 0.47011 0.5606 0.03183 0.0
C355 C 0.41314 0.50452 0.9378 0.0
O356 O 0.41331 0.49059 0.01203 0.0
O357 O 0.40473 0.57023 0.07438 0.0
O358 O 0.42284 0.59461 0.16135 0.0
O359 O 0.448 0.51985 0.19921 0.0
O360 O 0.4379 0.55147 0.2485 0.0
C361 C 0.40715 0.58922 0.1063 0.0
C362 C 0.45008 0.53565 0.26123 0.0
O363 O 0.41558 0.52398 0.95909 0.0
Mg364 Mg 0.19946 0.66848 0.88849 0.0
O365 O 0.19233 0.69749 0.79319 0.0
O366 O 0.16898 0.71784 0.87299 0.0
Mg367 Mg 0.15759 0.69932 0.01512 0.0
C368 C 0.18197 0.71459 0.79977 0.0
C369 C 0.23197 0.66701 0.70325 0.0
O370 O 0.24052 0.68226 0.75718 0.0
O371 O 0.16877 0.65007 0.85075 0.0
O372 O 0.14514 0.66985 0.9351 0.0
O373 O 0.22081 0.69062 0.98182 0.0
O374 O 0.1881 0.68285 0.02232 0.0
C375 C 0.14991 0.65348 0.88278 0.0
C376 C 0.20473 0.69335 0.04173 0.0
O377 O 0.21624 0.65708 0.7406 0.0
Mg378 Mg 0.05657 0.43409 0.65315 0.0
O379 O 0.02972 0.42259 0.55431 0.0
O380 O 0.01219 0.3972 0.63448 0.0
Mg381 Mg 0.03144 0.38841 0.7775 0.0
C382 C 0.01402 0.41023 0.56067 0.0
C383 C 0.07211 0.47133 0.49233 0.0
O384 O 0.07702 0.48291 0.57214 0.0
O385 O 0.07917 0.40632 0.61488 0.0
O386 O 0.06221 0.38021 0.6955 0.0
O387 O 0.03061 0.4521 0.73702 0.0
O388 O 0.04265 0.42114 0.78602 0.0
C389 C 0.07789 0.38703 0.64375 0.0
C390 C 0.02913 0.43594 0.79702 0.0
O391 O 0.06518 0.45268 0.50604 0.0
Mg392 Mg 0.29324 0.67158 0.0964 0.0
O393 O 0.30242 0.70101 0.18321 0.0
O394 O 0.32617 0.71979 0.09707 0.0
Mg395 Mg 0.33534 0.69936 0.95704 0.0
C396 C 0.31328 0.71767 0.17155 0.0
C397 C 0.2582 0.66369 0.27487 0.0
O398 O 0.24436 0.66892 0.20474 0.0
O399 O 0.32342 0.65222 0.13147 0.0
O400 O 0.34747 0.67024 0.04155 0.0
O401 O 0.27188 0.69434 0.0102 0.0
O402 O 0.30362 0.68491 0.95847 0.0
C403 C 0.34228 0.65458 0.09746 0.0
C404 C 0.28748 0.69675 0.94699 0.0
O405 O 0.27765 0.6624 0.25058 0.0
Mg406 Mg 0.06274 0.54301 0.91059 0.0
O407 O 0.03656 0.5539 0.0178 0.0
O408 O 0.01772 0.57866 0.94021 0.0
Mg409 Mg 0.03445 0.58712 0.78907 0.0
C410 C 0.02058 0.56603 0.01481 0.0
C411 C 0.06347 0.5096 0.08733 0.0
O412 O 0.04647 0.50416 0.03647 0.0
O413 O 0.08486 0.57181 0.93745 0.0
O414 O 0.06615 0.59663 0.85674 0.0
O415 O 0.03699 0.52338 0.83489 0.0
O416 O 0.04677 0.55483 0.78171 0.0
C417 C 0.0827 0.59073 0.90417 0.0
C418 C 0.03419 0.5392 0.77403 0.0
O419 O 0.07483 0.52456 0.0523 0.0
Mg420 Mg 0.19631 0.31168 0.61387 0.0
O421 O 0.18979 0.28246 0.70838 0.0
O422 O 0.16722 0.26218 0.62364 0.0
Mg423 Mg 0.15489 0.28106 0.48536 0.0
C424 C 0.18005 0.26512 0.69738 0.0
C425 C 0.22929 0.31426 0.79677 0.0
O426 O 0.23885 0.29986 0.74092 0.0
O427 O 0.16552 0.32943 0.65549 0.0
O428 O 0.14198 0.30975 0.57137 0.0
O429 O 0.21793 0.28976 0.52073 0.0
O430 O 0.18534 0.29746 0.47818 0.0
C431 C 0.14662 0.32585 0.62561 0.0
C432 C 0.20206 0.28689 0.46027 0.0
O433 O 0.21267 0.32301 0.76222 0.0
Mg434 Mg 0.41967 0.43635 0.34978 0.0
O435 O 0.44914 0.43083 0.44548 0.0
O436 O 0.46812 0.40551 0.37209 0.0
Mg437 Mg 0.44923 0.39187 0.23712 0.0
C438 C 0.46592 0.41989 0.43975 0.0
C439 C 0.41964 0.47165 0.52064 0.0
O440 O 0.43607 0.47744 0.46591 0.0
O441 O 0.40117 0.40673 0.40348 0.0
O442 O 0.42 0.38149 0.32559 0.0
O443 O 0.44138 0.45584 0.2454 0.0
O444 O 0.43365 0.42257 0.21953 0.0
C445 C 0.40415 0.38734 0.37903 0.0
C446 C 0.44419 0.43875 0.19267 0.0
O447 O 0.4086 0.45612 0.4896 0.0
C448 C 0.22565 0.15943 0.5847 0.0
C449 C 0.24674 0.16208 0.61558 0.0
C450 C 0.21997 0.16007 0.48078 0.0
C451 C 0.23509 0.16398 0.40382 0.0
H452 H 0.21339 0.15712 0.64147 0.0
H453 H 0.20345 0.15843 0.46111 0.0
S454 S 0.29249 0.17186 0.444 0.0
N455 N 0.2829 0.16815 0.5601 0.0
N456 N 0.27214 0.17011 0.36592 0.0
C457 C 0.25627 0.16632 0.4336 0.0
C458 C 0.26213 0.16513 0.53904 0.0
C459 C 0.06857 0.00307 0.65616 0.0
C460 C 0.07059 0.98129 0.63651 0.0
C461 C 0.06907 0.01113 0.75642 0.0
C462 C 0.07108 -0.00229 0.84163 0.0
H463 H 0.06623 0.01399 0.59356 0.0
H464 H 0.06695 0.02795 0.76729 0.0
S465 S 0.07725 0.93949 0.83242 0.0
N466 N 0.07533 0.94651 0.71127 0.0
N467 N 0.07569 0.96157 0.89921 0.0
C468 C 0.07349 0.97595 0.82304 0.0
C469 C 0.07342 0.96778 0.72079 0.0
C470 C 0.22521 0.81596 0.01286 0.0
C471 C 0.23973 0.81885 0.09307 0.0
C472 C 0.23179 0.81576 0.9098 0.0
C473 C 0.25305 0.81913 0.88235 0.0
H474 H 0.20876 0.81284 0.02995 0.0
H475 H 0.22019 0.81254 0.85117 0.0
S476 S 0.29726 0.82806 0.06292 0.0
N477 N 0.27635 0.82533 0.1375 0.0
N478 N 0.28853 0.82586 0.94456 0.0
C479 C 0.26758 0.82286 0.96166 0.0
C480 C 0.26098 0.82245 0.06664 0.0
C481 C 0.42382 0.98398 0.18412 0.0
C482 C 0.41217 0.0014 0.14825 0.0
C483 C 0.42186 0.97679 0.28524 0.0
C484 C 0.40835 0.98683 0.35611 0.0
H485 H 0.4349 0.97596 0.13415 0.0
H486 H 0.43157 0.96358 0.30863 0.0
S487 S 0.37341 0.03246 0.30049 0.0
N488 N 0.3858 0.02795 0.19133 0.0
N489 N 0.38234 0.01462 0.38141 0.0
C490 C 0.39619 0.00395 0.32081 0.0
C491 C 0.39801 0.01115 0.21714 0.0
C492 C 0.73331 0.80889 0.46994 0.0
C493 C 0.73808 0.82051 0.38128 0.0
C494 C 0.74391 0.81259 0.56242 0.0
C495 C 0.7602 0.82762 0.56911 0.0
H496 H 0.72161 0.79645 0.46722 0.0
H497 H 0.74011 0.8027 0.6274 0.0
S498 S 0.7778 0.86311 0.35996 0.0
N499 N 0.75907 0.84861 0.30732 0.0
N500 N 0.77967 0.85509 0.47974 0.0
C501 C 0.7646 0.83986 0.48167 0.0
C502 C 0.75338 0.83644 0.38814 0.0
C503 C 0.91627 0.0118 0.25688 0.0
C504 C 0.91234 -0.00155 0.34082 0.0
C505 C 0.91738 0.00384 0.15652 0.0
C506 C 0.91407 0.98228 0.13542 0.0
H507 H 0.91942 0.02841 0.26909 0.0
H508 H 0.9212 0.01464 0.0951 0.0
S509 S 0.90202 0.94091 0.32751 0.0
N510 N 0.90451 0.96271 0.39568 0.0
N511 N 0.9059 0.94787 0.20733 0.0
C512 C 0.90931 0.96892 0.21829 0.0
C513 C 0.90866 0.97695 0.32076 0.0
C514 C 0.75789 0.1553 0.95961 0.0
C515 C 0.74309 0.15844 0.88086 0.0
C516 C 0.75175 0.1555 0.06315 0.0
C517 C 0.73048 0.15821 0.09193 0.0
H518 H 0.77451 0.15366 0.94149 0.0
H519 H 0.76379 0.15381 0.12118 0.0
S520 S 0.68545 0.16637 0.91547 0.0
N521 N 0.70616 0.16404 0.83923 0.0
N522 N 0.69455 0.16374 0.03284 0.0
C523 C 0.71544 0.16064 0.01382 0.0
C524 C 0.72175 0.16092 0.90868 0.0
C525 C 0.55402 -0.00153 0.81148 0.0
C526 C 0.57056 0.98913 0.86726 0.0
C527 C 0.5573 0.00674 0.71332 0.0
C528 C 0.57736 0.00639 0.6665 0.0
H529 H 0.5382 -0.00081 0.84305 0.0
H530 H 0.54395 0.01368 0.6743 0.0
S531 S 0.62615 0.98401 0.77933 0.0
N532 N 0.60789 0.98005 0.86767 0.0
N533 N 0.61412 -0.00398 0.6839 0.0
C534 C 0.59415 -0.00264 0.72157 0.0
C535 C 0.59074 0.98862 0.82147 0.0
C536 C 0.72138 0.66365 0.94691 0.0
C537 C 0.73666 0.66267 0.86844 0.0
C538 C 0.72722 0.66355 0.05058 0.0
C539 C 0.74849 0.66175 0.0802 0.0
H540 H 0.70485 0.66563 0.92826 0.0
H541 H 0.71498 0.66533 0.108 0.0
S542 S 0.79445 0.65714 0.90447 0.0
N543 N 0.77392 0.65908 0.82764 0.0
N544 N 0.7848 0.65783 0.0219 0.0
C545 C 0.76381 0.6596 0.00248 0.0
C546 C 0.75792 0.66037 0.89689 0.0
C547 C 0.58507 0.50833 0.26946 0.0
C548 C 0.57087 0.49941 0.34051 0.0
C549 C 0.58708 0.50026 0.16933 0.0
C550 C 0.57521 0.48274 0.13624 0.0
H551 H 0.59428 0.52206 0.29018 0.0
H552 H 0.59788 0.508 0.11714 0.0
S553 S 0.53586 0.45348 0.29232 0.0
N554 N 0.54483 0.47188 0.37006 0.0
N555 N 0.54884 0.45666 0.18396 0.0
C556 C 0.56134 0.47338 0.20742 0.0
C557 C 0.55912 0.48171 0.30875 0.0
C558 C 0.74086 0.31628 0.44766 0.0
C559 C 0.74625 0.33523 0.39784 0.0
C560 C 0.73055 0.31628 0.54302 0.0
C561 C 0.72457 0.33522 0.59182 0.0
H562 H 0.74485 0.30125 0.41331 0.0
H563 H 0.72692 0.30124 0.57795 0.0
S564 S 0.73477 0.38923 0.49392 0.0
N565 N 0.74497 0.37354 0.40563 0.0
N566 N 0.72496 0.37352 0.58275 0.0
C567 C 0.72972 0.3543 0.54265 0.0
C568 C 0.74068 0.35431 0.44642 0.0
C569 C 0.90477 0.48131 0.83501 0.0
C570 C 0.92295 0.47698 0.89322 0.0
C571 C 0.90618 0.49134 0.73875 0.0
C572 C 0.92586 0.49685 0.69561 0.0
H573 H 0.88933 0.47717 0.86454 0.0
H574 H 0.89176 0.49461 0.69748 0.0
S575 S 0.97836 0.48807 0.81509 0.0
N576 N 0.9613 0.47893 0.89946 0.0
N577 N 0.96399 0.49661 0.71877 0.0
C578 C 0.94415 0.4922 0.75255 0.0
C579 C 0.94268 0.48262 0.85114 0.0
C580 C 0.22081 0.32143 0.98154 0.0
C581 C 0.236 0.31777 0.90449 0.0
C582 C 0.22646 0.32204 0.08551 0.0
C583 C 0.24759 0.31963 0.11637 0.0
H584 H 0.20427 0.32288 0.96185 0.0
H585 H 0.21415 0.32411 0.1423 0.0
S586 S 0.29348 0.31046 0.94454 0.0
N587 N 0.27312 0.31206 0.86646 0.0
N588 N 0.28383 0.31398 0.06076 0.0
C589 C 0.26302 0.31681 0.03975 0.0
C590 C 0.2572 0.31563 0.93425 0.0
C591 C 0.4059 0.46971 0.70152 0.0
C592 C 0.41595 0.4813 0.6234 0.0
C593 C 0.40462 0.47749 0.80235 0.0
C594 C 0.41291 0.49738 0.82885 0.0
H595 H 0.3997 0.45413 0.68576 0.0
H596 H 0.39734 0.46768 0.86029 0.0
S597 S 0.43981 0.53447 0.65164 0.0
N598 N 0.43376 0.51401 0.57925 0.0
N599 N 0.43087 0.52879 0.76694 0.0
C600 C 0.42227 0.50945 0.75048 0.0
C601 C 0.42392 0.50138 0.64844 0.0
C602 C 0.26566 0.66892 0.46153 0.0
C603 C 0.2517 0.6623 0.38429 0.0
C604 C 0.25931 0.6698 0.56458 0.0
C605 C 0.23891 0.66362 0.59531 0.0
H606 H 0.28139 0.67426 0.44188 0.0
H607 H 0.27043 0.67571 0.62047 0.0
S608 S 0.19672 0.64382 0.42366 0.0
N609 N 0.21673 0.64881 0.3461 0.0
N610 N 0.20498 0.64987 0.53967 0.0
C611 C 0.22503 0.65622 0.51924 0.0
C612 C 0.23136 0.65576 0.41392 0.0
C613 C 0.05978 0.47112 0.31004 0.0
C614 C 0.07199 0.48062 0.38726 0.0
C615 C 0.05769 0.48033 0.21307 0.0
C616 C 0.06793 0.49936 0.18785 0.0
H617 H 0.05115 0.45671 0.32533 0.0
H618 H 0.04763 0.47256 0.15783 0.0
S619 S 0.103 0.53001 0.3597 0.0
N620 N 0.0953 0.50978 0.42993 0.0
N621 N 0.0916 0.52692 0.24731 0.0
C622 C 0.08084 0.50867 0.2629 0.0
C623 C 0.08278 0.49939 0.36249 0.0
C624 C 0.09234 0.12954 0.10053 0.0
C625 C 0.09706 0.10783 0.09704 0.0
C626 C 0.10824 0.14477 0.11081 0.0
C627 C 0.12964 0.13905 0.11983 0.0
H628 H 0.07611 0.13487 0.09618 0.0
H629 H 0.10368 0.16125 0.11117 0.0
S630 S 0.15061 0.08431 0.11588 0.0
N631 N 0.12483 0.08136 0.10395 0.0
N632 N 0.15474 0.10999 0.12343 0.0
C633 C 0.13466 0.11738 0.11691 0.0
C634 C 0.11841 0.10182 0.10501 0.0
C635 C 0.13588 0.86267 0.36702 0.0
C636 C 0.13117 0.84093 0.36543 0.0
C637 C 0.11977 0.878 0.37465 0.0
C638 C 0.09831 0.87219 0.3803 0.0
H639 H 0.15216 0.86788 0.36508 0.0
H640 H 0.12414 0.89451 0.37349 0.0
S641 S 0.07755 0.81739 0.37862 0.0
N642 N 0.10338 0.81452 0.36959 0.0
N643 N 0.07337 0.84307 0.38428 0.0
C644 C 0.09347 0.8505 0.37871 0.0
C645 C 0.10978 0.83499 0.37101 0.0
C646 C 0.39701 0.86002 0.64867 0.0
C647 C 0.39144 0.8814 0.63681 0.0
C648 C 0.38171 0.84411 0.65356 0.0
C649 C 0.36 0.84875 0.64804 0.0
H650 H 0.41345 0.85545 0.65451 0.0
H651 H 0.387 0.82791 0.66045 0.0
S652 S 0.33678 0.90222 0.61845 0.0
N653 N 0.36251 0.90642 0.62108 0.0
N654 N 0.33368 0.87646 0.62992 0.0
C655 C 0.3541 0.87008 0.63724 0.0
C656 C 0.36979 0.88637 0.63118 0.0
C657 C 0.34797 0.11858 0.8813 0.0
C658 C 0.35309 0.14022 0.88116 0.0
C659 C 0.36375 0.10296 0.88715 0.0
C660 C 0.3853 0.10834 0.89214 0.0
H661 H 0.3316 0.11365 0.87947 0.0
H662 H 0.35904 0.08654 0.88479 0.0
S663 S 0.40716 0.16269 0.89401 0.0
N664 N 0.38138 0.16611 0.88664 0.0
N665 N 0.41085 0.13692 0.89711 0.0
C666 C 0.3906 0.12991 0.89206 0.0
C667 C 0.37459 0.14577 0.88654 0.0
C668 C 0.86552 0.87943 0.87437 0.0
C669 C 0.88696 0.87355 0.86616 0.0
C670 C 0.84919 0.86441 0.86442 0.0
C671 C 0.85366 0.84293 0.84599 0.0
H672 H 0.86129 0.89579 0.88705 0.0
H673 H 0.833 0.86954 0.87468 0.0
S674 S 0.90695 0.81924 0.8161 0.0
N675 N 0.91151 0.84446 0.83792 0.0
N676 N 0.88104 0.81673 0.81745 0.0
C677 C 0.87496 0.83696 0.8363 0.0
C678 C 0.8915 0.85208 0.84707 0.0
C679 C 0.8477 0.11699 0.60721 0.0
C680 C 0.8518 0.13885 0.60873 0.0
C681 C 0.86419 0.10212 0.59842 0.0
C682 C 0.88545 0.10851 0.59172 0.0
H683 H 0.83159 0.1113 0.61032 0.0
H684 H 0.86026 0.08549 0.5998 0.0
S685 S 0.90473 0.16383 0.59243 0.0
N686 N 0.87885 0.16602 0.6027 0.0
N687 N 0.90961 0.13828 0.58665 0.0
C688 C 0.88972 0.13031 0.59313 0.0
C689 C 0.87301 0.14539 0.60165 0.0
C690 C 0.58767 0.12208 0.38223 0.0
C691 C 0.59263 0.10042 0.38372 0.0
C692 C 0.60345 0.13753 0.3773 0.0
C693 C 0.62499 0.13211 0.37195 0.0
H694 H 0.57134 0.12719 0.38371 0.0
H695 H 0.59867 0.15395 0.3778 0.0
S696 S 0.64661 0.07763 0.37368 0.0
N697 N 0.62077 0.07431 0.37969 0.0
N698 N 0.6505 0.10339 0.37022 0.0
C699 C 0.63027 0.11051 0.37338 0.0
C700 C 0.61411 0.09469 0.3798 0.0
C701 C 0.59656 0.86032 0.10846 0.0
C702 C 0.60151 0.88197 0.10693 0.0
C703 C 0.61231 0.84484 0.113 0.0
C704 C 0.63388 0.85017 0.11699 0.0
H705 H 0.58025 0.8552 0.10719 0.0
H706 H 0.60748 0.82845 0.11253 0.0
S707 S 0.65555 0.90457 0.1152 0.0
N708 N 0.62971 0.90799 0.11044 0.0
N709 N 0.65941 0.8788 0.11806 0.0
C710 C 0.63917 0.87176 0.11577 0.0
C711 C 0.62302 0.88763 0.11037 0.0
C712 C 0.61946 0.60469 0.58673 0.0
C713 C 0.5979 0.60985 0.5777 0.0
C714 C 0.635 0.62051 0.59504 0.0
C715 C 0.6296 0.64209 0.59398 0.0
H716 H 0.62434 0.58833 0.59066 0.0
H717 H 0.65139 0.61576 0.60027 0.0
S718 S 0.57537 0.66395 0.5704 0.0
N719 N 0.57207 0.63814 0.56677 0.0
N720 N 0.60101 0.66765 0.58283 0.0
C721 C 0.60808 0.64739 0.58432 0.0
C722 C 0.59235 0.63136 0.57587 0.0
C723 C 0.61705 0.37994 0.868 0.0
C724 C 0.59539 0.37478 0.8687 0.0
C725 C 0.63273 0.36413 0.85961 0.0
C726 C 0.62731 0.34261 0.85165 0.0
H727 H 0.62192 0.3963 0.87124 0.0
H728 H 0.64917 0.36877 0.86197 0.0
S729 S 0.57288 0.3208 0.84979 0.0
N730 N 0.56952 0.3465 0.86182 0.0
N731 N 0.59864 0.31718 0.84384 0.0
C732 C 0.6057 0.33737 0.85187 0.0
C733 C 0.58988 0.35331 0.86123 0.0
C734 C 0.83979 0.36081 0.1313 0.0
C735 C 0.84392 0.33894 0.13315 0.0
C736 C 0.85637 0.37566 0.12447 0.0
C737 C 0.87766 0.36917 0.11911 0.0
H738 H 0.82366 0.36649 0.13234 0.0
H739 H 0.8525 0.3923 0.12574 0.0
S740 S 0.89687 0.31372 0.1217 0.0
N741 N 0.87098 0.3117 0.13097 0.0
N742 N 0.90174 0.33923 0.11507 0.0
C743 C 0.88186 0.34733 0.12061 0.0
C744 C 0.86515 0.33236 0.12874 0.0
C745 C 0.8729 0.63752 0.39397 0.0
C746 C 0.85149 0.63253 0.37913 0.0
C747 C 0.8878 0.62202 0.41818 0.0
C748 C 0.88215 0.60062 0.42866 0.0
H749 H 0.87817 0.65375 0.39007 0.0
H750 H 0.90397 0.62705 0.4293 0.0
S751 S 0.82824 0.57884 0.39255 0.0
N752 N 0.82539 0.60444 0.37336 0.0
N753 N 0.85353 0.57513 0.41732 0.0
C754 C 0.86088 0.59521 0.41067 0.0
C755 C 0.84559 0.61114 0.3859 0.0
C756 C 0.36574 0.37733 0.38739 0.0
C757 C 0.38715 0.37143 0.3942 0.0
C758 C 0.3496 0.36208 0.38213 0.0
C759 C 0.35423 0.34032 0.38421 0.0
H760 H 0.36143 0.39385 0.38292 0.0
H761 H 0.33337 0.3674 0.37871 0.0
S762 S 0.40774 0.31659 0.40267 0.0
N763 N 0.412 0.34226 0.40379 0.0
N764 N 0.38192 0.31377 0.39383 0.0
C765 C 0.37558 0.33427 0.39155 0.0
C766 C 0.39193 0.34974 0.39675 0.0
C767 C 0.39537 0.62677 0.09645 0.0
C768 C 0.39008 0.60519 0.09493 0.0
C769 C 0.37982 0.64249 0.10167 0.0
C770 C 0.35822 0.63742 0.10751 0.0
H771 H 0.41177 0.6316 0.09434 0.0
H772 H 0.38482 0.65883 0.10072 0.0
S773 S 0.3358 0.58331 0.10697 0.0
N774 N 0.36158 0.57955 0.10016 0.0
N775 N 0.3323 0.60914 0.11038 0.0
C776 C 0.35263 0.61591 0.10659 0.0
C777 C 0.36853 0.59982 0.09974 0.0
C778 C 0.11206 0.6427 0.88438 0.0
C779 C 0.13343 0.63676 0.87721 0.0
C780 C 0.09605 0.62773 0.89769 0.0
C781 C 0.10056 0.60602 0.9055 0.0
H782 H 0.10761 0.6592 0.88111 0.0
H783 H 0.07988 0.63329 0.90151 0.0
S784 S 0.15393 0.58193 0.89115 0.0
N785 N 0.15831 0.6075 0.87897 0.0
N786 N 0.1281 0.57927 0.90332 0.0
C787 C 0.12186 0.59975 0.89832 0.0
C788 C 0.13827 0.61509 0.88379 0.0
C789 C 0.1085 0.33565 0.63435 0.0
C790 C 0.12976 0.34202 0.63861 0.0
C791 C 0.09203 0.35038 0.63137 0.0
C792 C 0.09598 0.37224 0.63119 0.0
H793 H 0.10449 0.31904 0.63259 0.0
H794 H 0.07597 0.34452 0.6298 0.0
S795 S 0.14881 0.39741 0.64075 0.0
N796 N 0.1539 0.37184 0.64177 0.0
N797 N 0.12284 0.39959 0.63634 0.0
C798 C 0.11715 0.37893 0.63488 0.0
C799 C 0.13403 0.36384 0.63907 0.0
C800 C 0.20363 0.23381 0.91905 0.0
C801 C 0.20106 0.21281 0.88692 0.0
C802 C 0.19661 0.25067 0.85787 0.0
C803 C 0.18652 0.24708 0.76314 0.0
H804 H 0.20998 0.23718 0.9941 0.0
H805 H 0.19865 0.26661 0.88622 0.0
S806 S 0.17836 0.1948 0.64096 0.0
N807 N 0.18933 0.18933 0.7521 0.0
N808 N 0.17635 0.22074 0.63696 0.0
C809 C 0.18476 0.2261 0.72888 0.0
C810 C 0.19199 0.20907 0.79076 0.0
C811 C 0.00402 0.91824 0.00066 0.0
C812 C 0.98341 0.92489 0.02512 0.0
C813 C 0.0214 0.92466 0.05874 0.0
C814 C 0.01909 0.93805 0.14403 0.0
H815 H 0.00691 0.90816 0.93512 0.0
H816 H 0.03686 0.91876 0.03735 0.0
S817 S 0.96865 0.95954 0.24426 0.0
N818 N 0.96172 0.94557 0.14304 0.0
N819 N -0.00541 0.95739 0.25228 0.0
C820 C -0.00131 0.94496 0.16983 0.0
C821 C 0.98083 0.93839 0.11063 0.0
C822 C 0.32349 0.75139 0.25929 0.0
C823 C 0.30823 0.73604 0.23814 0.0
C824 C 0.31875 0.76877 0.32181 0.0
C825 C 0.29862 0.77145 0.36737 0.0
H826 H 0.33929 0.74989 0.22812 0.0
H827 H 0.33115 0.78017 0.33446 0.0
S828 S 0.25163 0.73869 0.31198 0.0
N829 N 0.27105 0.72673 0.2508 0.0
N830 N 0.26234 0.75912 0.3706 0.0
C831 C 0.28278 0.75702 0.3405 0.0
C832 C 0.28757 0.73936 0.27591 0.0
C833 C 0.49617 0.04001 0.59359 0.0
C834 C 0.49344 0.05255 0.50515 0.0
C835 C 0.47892 0.03381 0.65461 0.0
C836 C 0.45828 0.03988 0.62936 0.0
H837 H 0.51181 0.03508 0.61669 0.0
H838 H 0.48186 0.02503 0.72413 0.0
S839 S 0.44202 0.07106 0.40306 0.0
N840 N 0.46797 0.06959 0.39339 0.0
N841 N 0.4358 0.05815 0.50839 0.0
C842 C 0.45523 0.0519 0.54031 0.0
C843 C 0.4727 0.05822 0.47828 0.0
C844 C 0.18317 0.7532 0.75758 0.0
C845 C 0.18782 0.73225 0.72973 0.0
C846 C 0.18985 0.77025 0.6974 0.0
C847 C 0.20159 0.76721 0.60689 0.0
H848 H 0.17435 0.75656 0.82683 0.0
H849 H 0.18529 0.78604 0.72068 0.0
S850 S 0.21762 0.71561 0.49782 0.0
N851 N 0.20492 0.70947 0.60403 0.0
N852 N 0.21722 0.74163 0.49121 0.0
C853 C 0.20662 0.74644 0.57849 0.0
C854 C 0.19977 0.72897 0.63964 0.0
C855 C 0.48942 0.95349 0.83365 0.0
C856 C 0.46849 0.95045 0.86666 0.0
C857 C 0.50656 0.94621 0.89257 0.0
C858 C 0.50334 0.93536 0.98567 0.0
H859 H 0.49255 0.96057 0.75983 0.0
H860 H 0.52243 0.94871 0.8639 0.0
S861 S 0.45144 0.92598 0.11067 0.0
N862 N 0.44554 0.93767 0.00179 0.0
N863 N 0.47742 0.92406 0.11198 0.0
C864 C 0.48243 0.9331 0.02091 0.0
C865 C 0.46514 0.94064 0.96161 0.0
C866 C 0.29689 0.20933 0.21658 0.0
C867 C 0.28201 0.21124 0.13736 0.0
C868 C 0.30302 0.22666 0.27572 0.0
C869 C 0.29461 0.24687 0.25842 0.0
H870 H 0.30451 0.1943 0.23083 0.0
H871 H 0.31466 0.22413 0.33491 0.0
S872 S 0.25395 0.26013 0.06345 0.0
N873 N 0.25825 0.23465 0.04697 0.0
N874 N 0.26944 0.26746 0.15844 0.0
C875 C 0.27902 0.24889 0.18148 0.0
C876 C 0.27276 0.23105 0.1212 0.0
C877 C -0.00265 0.03887 0.30456 0.0
C878 C 0.01829 0.04247 0.33489 0.0
C879 C 0.98032 0.04611 0.36465 0.0
C880 C 0.98362 0.05737 0.4567 0.0
H881 H -0.00588 0.03126 0.23205 0.0
H882 H 0.96443 0.04305 0.33809 0.0
S883 S 0.03576 0.06897 0.57303 0.0
N884 N 0.04149 0.05676 0.46487 0.0
N885 N 0.00974 0.07021 0.5778 0.0
C886 C 0.00458 0.06048 0.48863 0.0
C887 C 0.02181 0.05304 0.42783 0.0
C888 C 0.79988 0.7683 0.18801 0.0
C889 C 0.78849 0.76557 0.09683 0.0
C890 C 0.80659 0.75101 0.24616 0.0
C891 C 0.80244 0.73016 0.21485 0.0
H892 H 0.8039 0.78403 0.214 0.0
H893 H 0.81485 0.75409 0.31697 0.0
S894 S 0.77489 0.71456 0.97591 0.0
N895 N 0.77434 0.7406 0.97444 0.0
N896 N 0.78698 0.7079 0.08278 0.0
C897 C 0.79123 0.72723 0.12268 0.0
C898 C 0.78423 0.74495 0.06401 0.0
C899 C 0.00176 0.046 0.86442 0.0
C900 C -0.00143 0.05741 0.95624 0.0
C901 C 0.98466 0.03902 0.80466 0.0
C902 C 0.96375 0.04305 0.83504 0.0
H903 H 0.01762 0.0426 0.83782 0.0
H904 H 0.98785 0.03123 0.73243 0.0
S905 S 0.94648 0.07019 0.07254 0.0
N906 N 0.97251 0.07093 0.07706 0.0
N907 N 0.94066 0.05797 0.96478 0.0
C908 C 0.96031 0.05383 0.92765 0.0
C909 C 0.97761 0.06099 0.98813 0.0
C910 C 0.67528 0.22507 0.74742 0.0
C911 C 0.67915 0.24589 0.71548 0.0
C912 C 0.68215 0.20779 0.68934 0.0
C913 C 0.69334 0.21046 0.59721 0.0
H914 H 0.66698 0.222 0.81838 0.0
H915 H 0.67811 0.19209 0.71542 0.0
S916 S 0.70662 0.2615 0.47566 0.0
N917 N 0.69453 0.26817 0.58313 0.0
N918 N 0.70734 0.23545 0.47417 0.0
C919 C 0.69755 0.2311 0.56424 0.0
C920 C 0.69045 0.24884 0.62325 0.0
C921 C 0.48612 0.94483 0.41297 0.0
C922 C 0.48885 0.93104 0.49702 0.0
C923 C 0.50327 0.9514 0.35232 0.0
C924 C 0.52381 0.94439 0.37312 0.0
H925 H 0.47057 0.95067 0.39355 0.0
H926 H 0.50031 0.96139 0.28676 0.0
S927 S 0.54006 0.90919 0.5853 0.0
N928 N 0.51424 0.91137 0.59871 0.0
N929 N 0.54622 0.92354 0.48437 0.0
C930 C 0.52687 0.93089 0.45713 0.0
C931 C 0.5095 0.92423 0.51895 0.0
C932 C 0.79233 0.22337 0.21975 0.0
C933 C 0.78897 0.24417 0.25406 0.0
C934 C 0.78621 0.20601 0.27894 0.0
C935 C 0.77628 0.20865 0.37445 0.0
H936 H 0.79984 0.2204 0.14658 0.0
H937 H 0.78998 0.19032 0.25134 0.0
S938 S 0.76407 0.25952 0.50108 0.0
N939 N 0.77494 0.26631 0.39093 0.0
N940 N 0.76347 0.23347 0.50162 0.0
C941 C 0.77225 0.22923 0.40892 0.0
C942 C 0.77861 0.24702 0.34893 0.0
C943 C 0.47718 0.04125 0.10355 0.0
C944 C 0.48086 0.05169 0.00978 0.0
C945 C 0.49395 0.03351 0.1631 0.0
C946 C 0.51498 0.03575 0.13044 0.0
H947 H 0.46121 0.03934 0.13209 0.0
H948 H 0.49049 0.02665 0.2371 0.0
S949 S 0.53321 0.05916 0.88611 0.0
N950 N 0.50729 0.06191 0.88369 0.0
N951 N 0.53858 0.04756 -0.0041 0.0
C952 C 0.51883 0.04533 0.03546 0.0
C953 C 0.50187 0.05326 0.9751 0.0
C954 C 0.6849 0.7742 0.78385 0.0
C955 C 0.69833 0.77139 0.86825 0.0
C956 C 0.67814 0.75712 0.72435 0.0
C957 C 0.6844 0.73634 0.74682 0.0
H958 H 0.67921 0.78982 0.76452 0.0
H959 H 0.66802 0.76035 0.65965 0.0
S960 S 0.71894 0.72041 0.96309 0.0
N961 N 0.71734 0.74633 0.97331 0.0
N962 N 0.70478 0.71399 0.86194 0.0
C963 C 0.69796 0.7333 0.8314 0.0
C964 C 0.70494 0.75085 0.89173 0.0
C965 C 0.00367 0.93732 0.60517 0.0
C966 C 0.0007 0.92483 0.51661 0.0
C967 C 0.98644 0.94458 0.66408 0.0
C968 C 0.96562 0.93977 0.6359 0.0
H969 H 0.01947 0.94133 0.63006 0.0
H970 H 0.98948 0.95315 0.73422 0.0
S971 S 0.94888 0.9096 0.40678 0.0
N972 N 0.9749 0.9094 0.40104 0.0
N973 N 0.94283 0.92301 0.5111 0.0
C974 C 0.9624 0.92803 0.54597 0.0
C975 C 0.97981 0.92053 0.48665 0.0
C976 C 0.69661 0.75497 0.33556 0.0
C977 C 0.68545 0.75197 0.24323 0.0
C978 C 0.70379 0.73774 0.39404 0.0
C979 C 0.7002 0.71691 0.36174 0.0
H980 H 0.69944 0.77075 0.36408 0.0
H981 H 0.71118 0.74075 0.46723 0.0
S982 S 0.67383 0.70018 0.12228 0.0
N983 N 0.67268 0.72619 0.11983 0.0
N984 N 0.68607 0.69414 0.22949 0.0
C985 C 0.68987 0.7137 0.2681 0.0
C986 C 0.68247 0.7311 0.20908 0.0
C987 C 0.48196 0.44152 0.58246 0.0
C988 C 0.48435 0.42633 0.50372 0.0
C989 C 0.49935 0.44871 0.63983 0.0
C990 C 0.51981 0.44115 0.61992 0.0
H991 H 0.46648 0.44773 0.6011 0.0
H992 H 0.49659 0.45952 0.70272 0.0
S993 S 0.53516 0.4027 0.41794 0.0
N994 N 0.50933 0.40491 0.40682 0.0
N995 N 0.54173 0.41875 0.51196 0.0
C996 C 0.52253 0.42669 0.53888 0.0
C997 C 0.50492 0.41915 0.48182 0.0
C998 C 0.79055 0.26843 0.79074 0.0
C999 C 0.77653 0.26569 0.87342 0.0
C1000 C 0.79755 0.25137 0.73149 0.0
C1001 C 0.7909 0.23063 0.75211 0.0
H1002 H 0.79669 0.28397 0.77323 0.0
H1003 H 0.8083 0.25457 0.66886 0.0
S1004 S 0.75386 0.21493 0.96047 0.0
N1005 N 0.75599 0.24078 0.97295 0.0
N1006 N 0.76887 0.20848 0.86167 0.0
C1007 C 0.77644 0.22769 0.8338 0.0
C1008 C 0.76926 0.24524 0.8941 0.0
C1009 C 0.98772 0.53955 0.2236 0.0
C1010 C 0.9678 0.54902 0.2128 0.0
C1011 C 0.00499 0.54596 0.16323 0.0
C1012 C 0.00307 0.56214 0.08942 0.0
H1013 H 0.99006 0.52714 0.27931 0.0
H1014 H 0.01985 0.53776 0.17319 0.0
S1015 S 0.95408 0.59206 0.03175 0.0
N1016 N 0.94706 0.57533 0.12207 0.0
N1017 N 0.97942 0.5877 0.01143 0.0
C1018 C 0.98326 0.572 0.07964 0.0
C1019 C 0.96568 0.56533 0.14022 0.0
C1020 C 0.69715 0.24396 0.08572 0.0
C1021 C 0.69027 0.26455 0.1076 0.0
C1022 C 0.69035 0.22676 0.14547 0.0
C1023 C 0.67637 0.22949 0.22927 0.0
H1024 H 0.70718 0.24101 0.02 0.0
H1025 H 0.69608 0.21118 0.12536 0.0
S1026 S 0.65522 0.28083 0.32179 0.0
N1027 N 0.66974 0.28698 0.22123 0.0
N1028 N 0.65698 0.25496 0.33292 0.0
C1029 C 0.66983 0.25019 0.25266 0.0
C1030 C 0.67681 0.2676 0.19221 0.0
C1031 C 0.97971 0.43636 0.35765 0.0
C1032 C 0.95987 0.42711 0.37359 0.0
C1033 C -0.00268 0.43008 0.41519 0.0
C1034 C -0.0042 0.41427 0.49125 0.0
H1035 H 0.98178 0.44823 0.29886 0.0
H1036 H 0.0122 0.4379 0.40051 0.0
S1037 S 0.9469 0.38565 0.56424 0.0
N1038 N 0.93944 0.40181 0.47246 0.0
N1039 N 0.97241 0.38977 0.57901 0.0
C1040 C 0.97595 0.40491 0.5074 0.0
C1041 C 0.95803 0.41142 0.44945 0.0
C1042 C 0.7964 0.70993 0.67925 0.0
C1043 C 0.78426 0.71272 0.59036 0.0
C1044 C 0.80344 0.72711 0.73709 0.0
C1045 C 0.79859 0.74798 0.7092 0.0
H1046 H 0.80107 0.69423 0.70286 0.0
H1047 H 0.81268 0.7239 0.80485 0.0
S1048 S 0.76733 0.76388 0.48171 0.0
N1049 N 0.76774 0.73785 0.47615 0.0
N1050 N 0.78056 0.7704 0.58577 0.0
C1051 C 0.78601 0.75103 0.62128 0.0
C1052 C 0.7789 0.73337 0.5619 0.0
C1053 C 0.50352 0.53605 0.81843 0.0
C1054 C 0.52396 0.54306 0.8413 0.0
C1055 C 0.48618 0.54223 0.87903 0.0
C1056 C 0.48859 0.5557 0.96463 0.0
H1057 H 0.50078 0.52647 0.75109 0.0
H1058 H 0.47071 0.53646 0.85799 0.0
S1059 S 0.53954 0.57673 0.06077 0.0
N1060 N 0.54601 0.56308 0.95774 0.0
N1061 N 0.51367 0.57454 0.07183 0.0
C1062 C 0.50918 0.56225 0.98945 0.0
C1063 C 0.52675 0.55595 0.92787 0.0
C1064 C 0.30296 0.2548 0.77578 0.0
C1065 C 0.29439 0.23468 0.75801 0.0
C1066 C 0.29693 0.27222 0.71725 0.0
C1067 C 0.28201 0.2705 0.63808 0.0
H1068 H 0.31466 0.25719 0.83484 0.0
H1069 H 0.30468 0.28716 0.73183 0.0
S1070 S 0.25341 0.22195 0.56368 0.0
N1071 N 0.26891 0.21442 0.65816 0.0
N1072 N 0.25795 0.24738 0.54764 0.0
C1073 C 0.27255 0.2508 0.62163 0.0
C1074 C 0.2787 0.23286 0.68138 0.0
C1075 C 0.48266 0.55865 0.47456 0.0
C1076 C 0.50355 0.55353 0.44741 0.0
C1077 C 0.46553 0.55143 0.41709 0.0
C1078 C 0.46837 0.53866 0.32998 0.0
H1079 H 0.47939 0.56826 0.54134 0.0
H1080 H 0.44981 0.55639 0.43971 0.0
S1081 S 0.51971 0.52107 0.22296 0.0
N1082 N 0.5261 0.53491 0.32543 0.0
N1083 N 0.49366 0.52146 0.21753 0.0
C1084 C 0.48907 0.53311 0.30202 0.0
C1085 C 0.50667 0.54055 0.36052 0.0
C1086 C 0.20096 0.74846 0.15159 0.0
C1087 C 0.18776 0.74538 0.23791 0.0
C1088 C 0.20824 0.73137 0.09212 0.0
C1089 C 0.20271 0.71059 0.11731 0.0
H1090 H 0.20547 0.76423 0.12853 0.0
H1091 H 0.21727 0.73454 0.02334 0.0
S1092 S 0.17069 0.69348 0.34029 0.0
N1093 N 0.17098 0.71945 0.34856 0.0
N1094 N 0.18476 0.68761 0.2377 0.0
C1095 C 0.19046 0.70721 0.2057 0.0
C1096 C 0.1829 0.72449 0.26552 0.0
C1097 C 0.01376 0.42245 0.95857 0.0
C1098 C 0.01051 0.4316 0.86197 0.0
C1099 C -0.00313 0.41474 0.017 0.0
C1100 C 0.97601 0.41574 0.98092 0.0
H1101 H 0.0296 0.42105 0.98888 0.0
H1102 H 0.00018 0.40838 0.0921 0.0
S1103 S 0.95932 0.43571 0.72713 0.0
N1104 N 0.98513 0.43942 0.72856 0.0
N1105 N 0.95319 0.42543 0.83938 0.0
C1106 C 0.97255 0.42452 0.88348 0.0
C1107 C 0.98984 0.43231 0.82371 0.0
C1108 C 0.30307 0.71301 0.79267 0.0
C1109 C 0.29002 0.71525 0.87931 0.0
C1110 C 0.3105 0.73052 0.73869 0.0
C1111 C 0.3051 0.75118 0.76829 0.0
H1112 H 0.30824 0.69748 0.7683 0.0
H1113 H 0.32052 0.72776 0.67271 0.0
S1114 S 0.27081 0.7657 0.98894 0.0
N1115 N 0.27166 0.73967 0.9919 0.0
N1116 N 0.28522 0.77283 0.88922 0.0
C1117 C 0.29143 0.75368 0.85314 0.0
C1118 C 0.28393 0.73569 0.90869 0.0
C1119 C 0.00123 0.55572 0.54947 0.0
C1120 C 0.98069 0.55678 0.59037 0.0
C1121 C 0.01821 0.54853 0.6082 0.0
C1122 C 0.01534 0.54193 0.7098 0.0
H1123 H 0.00424 0.56039 0.47111 0.0
H1124 H 0.03387 0.5486 0.57455 0.0
S1125 S 0.96514 0.5432 0.85605 0.0
N1126 N 0.95857 0.55129 0.74043 0.0
N1127 N 0.99074 0.53818 0.85132 0.0
C1128 C -0.00504 0.54291 0.75209 0.0
C1129 C 0.97757 0.55019 0.69215 0.0
C1130 C 0.20309 0.24835 0.41764 0.0
C1131 C 0.20042 0.26936 0.38617 0.0
C1132 C 0.19594 0.2315 0.35655 0.0
C1133 C 0.18562 0.23507 0.2624 0.0
H1134 H 0.2097 0.24496 0.49212 0.0
H1135 H 0.19813 0.21556 0.38441 0.0
S1136 S 0.17701 0.28742 0.14211 0.0
N1137 N 0.18825 0.29287 0.25271 0.0
N1138 N 0.17503 0.26148 0.13763 0.0
C1139 C 0.18369 0.25608 0.22889 0.0
C1140 C 0.19103 0.27312 0.29077 0.0
C1141 C 0.48081 0.4463 0.12756 0.0
C1142 C 0.46149 0.43575 0.11724 0.0
C1143 C 0.49828 0.44076 0.06643 0.0
C1144 C 0.49719 0.42438 0.9929 0.0
H1145 H 0.48268 0.45844 0.18527 0.0
H1146 H 0.51274 0.44952 0.07691 0.0
S1147 S 0.44932 0.39316 0.93094 0.0
N1148 N 0.4417 0.40919 0.02354 0.0
N1149 N 0.47445 0.3986 0.91043 0.0
C1150 C 0.47768 0.41415 0.98033 0.0
C1151 C 0.45989 0.41989 0.04188 0.0
loop_
_geom_bond_atom_site_label_1
_geom_bond_atom_site_label_2
_geom_bond_distance
_geom_bond_site_symmetry_2
_ccdc_geom_bond_type
Mg0 O1 2.028 . S
Mg0 O7 1.986 . S
Mg0 O9 2.114 . S
Mg0 O10 2.251 . S
Mg0 O13 2.010 . S
O1 Mg0 2.028 . S
O1 C4 1.250 . S
O2 Mg3 2.028 . S
O2 C4 1.248 . S
Mg3 O2 2.028 . S
Mg3 O8 2.032 . S
Mg3 O10 2.079 . S
C4 O1 1.250 . S
C4 O2 1.248 . S
C5 O6 1.264 . S
C5 O13 1.249 . S
O6 C5 1.264 . S
O7 Mg0 1.986 . S
O7 C11 1.246 . S
O8 Mg3 2.032 . S
O8 C11 1.259 . S
O9 Mg0 2.114 . S
O9 C12 1.252 . S
O10 Mg0 2.251 . S
O10 Mg3 2.079 . S
O10 C12 1.273 . S
C11 O7 1.246 . S
C11 O8 1.259 . S
C12 O9 1.252 . S
C12 O10 1.273 . S
O13 Mg0 2.010 . S
O13 C5 1.249 . S
Mg14 O15 2.028 . S
Mg14 O21 1.986 . S
Mg14 O23 2.114 . S
Mg14 O24 2.251 . S
Mg14 O27 2.010 . S
O15 Mg14 2.028 . S
O15 C18 1.250 . S
O16 Mg17 2.028 . S
O16 C18 1.248 . S
Mg17 O16 2.028 . S
Mg17 O22 2.032 . S
Mg17 O24 2.079 . S
C18 O15 1.250 . S
C18 O16 1.248 . S
C19 O20 1.264 . S
C19 O27 1.249 . S
O20 C19 1.264 . S
O21 Mg14 1.986 . S
O21 C25 1.246 . S
O22 Mg17 2.032 . S
O22 C25 1.259 . S
O23 Mg14 2.114 . S
O23 C26 1.252 . S
O24 Mg14 2.251 . S
O24 Mg17 2.079 . S
O24 C26 1.273 . S
C25 O21 1.246 . S
C25 O22 1.259 . S
C26 O23 1.252 . S
C26 O24 1.273 . S
O27 Mg14 2.010 . S
O27 C19 1.249 . S
Mg28 O29 2.028 . S
Mg28 O35 1.986 . S
Mg28 O37 2.114 . S
Mg28 O38 2.251 . S
Mg28 O41 2.010 . S
O29 Mg28 2.028 . S
O29 C32 1.250 . S
O30 Mg31 2.028 . S
O30 C32 1.248 . S
Mg31 O30 2.028 . S
Mg31 O36 2.032 . S
Mg31 O38 2.079 . S
C32 O29 1.250 . S
C32 O30 1.248 . S
C33 O34 1.264 . S
C33 O41 1.249 . S
O34 C33 1.264 . S
O35 Mg28 1.986 . S
O35 C39 1.246 . S
O36 Mg31 2.032 . S
O36 C39 1.259 . S
O37 Mg28 2.114 . S
O37 C40 1.252 . S
O38 Mg28 2.251 . S
O38 Mg31 2.079 . S
O38 C40 1.273 . S
C39 O35 1.246 . S
C39 O36 1.259 . S
C40 O37 1.252 . S
C40 O38 1.273 . S
O41 Mg28 2.010 . S
O41 C33 1.249 . S
Mg42 O43 2.028 1_556 S
Mg42 O49 1.986 . S
Mg42 O51 2.114 . S
Mg42 O52 2.251 . S
Mg42 O55 2.010 1_556 S
O43 Mg42 2.028 1_554 S
O43 C46 1.250 . S
O44 Mg45 2.028 1_554 S
O44 C46 1.248 . S
Mg45 O44 2.028 1_556 S
Mg45 O50 2.032 . S
Mg45 O52 2.079 . S
C46 O43 1.250 . S
C46 O44 1.248 . S
C47 O48 1.264 1_554 S
C47 O55 1.249 . S
O48 C47 1.264 1_556 S
O49 Mg42 1.986 . S
O49 C53 1.246 . S
O50 Mg45 2.032 . S
O50 C53 1.259 . S
O51 Mg42 2.114 . S
O51 C54 1.252 . S
O52 Mg42 2.251 . S
O52 Mg45 2.079 . S
O52 C54 1.273 . S
C53 O49 1.246 . S
C53 O50 1.259 . S
C54 O51 1.252 . S
C54 O52 1.273 . S
O55 Mg42 2.010 1_554 S
O55 C47 1.249 . S
Mg56 O57 2.028 . S
Mg56 O63 1.986 . S
Mg56 O65 2.114 . S
Mg56 O66 2.251 . S
Mg56 O69 2.010 . S
O57 Mg56 2.028 . S
O57 C60 1.250 . S
O58 Mg59 2.028 . S
O58 C60 1.248 . S
Mg59 O58 2.028 . S
Mg59 O64 2.032 . S
Mg59 O66 2.079 . S
C60 O57 1.250 . S
C60 O58 1.248 . S
C61 O62 1.264 . S
C61 O69 1.249 . S
O62 C61 1.264 . S
O63 Mg56 1.986 . S
O63 C67 1.246 . S
O64 Mg59 2.032 . S
O64 C67 1.259 . S
O65 Mg56 2.114 . S
O65 C68 1.252 . S
O66 Mg56 2.251 . S
O66 Mg59 2.079 . S
O66 C68 1.273 . S
C67 O63 1.246 . S
C67 O64 1.259 . S
C68 O65 1.252 . S
C68 O66 1.273 . S
O69 Mg56 2.010 . S
O69 C61 1.249 . S
Mg70 O71 2.028 . S
Mg70 O77 1.986 . S
Mg70 O79 2.114 . S
Mg70 O80 2.251 . S
Mg70 O83 2.010 . S
O71 Mg70 2.028 . S
O71 C74 1.250 . S
O72 Mg73 2.028 . S
O72 C74 1.248 . S
Mg73 O72 2.028 . S
Mg73 O78 2.032 . S
Mg73 O80 2.079 . S
C74 O71 1.250 . S
C74 O72 1.248 . S
C75 O76 1.264 . S
C75 O83 1.249 . S
O76 C75 1.264 . S
O77 Mg70 1.986 . S
O77 C81 1.246 . S
O78 Mg73 2.032 . S
O78 C81 1.259 . S
O79 Mg70 2.114 . S
O79 C82 1.252 . S
O80 Mg70 2.251 . S
O80 Mg73 2.079 . S
O80 C82 1.273 . S
C81 O77 1.246 . S
C81 O78 1.259 . S
C82 O79 1.252 . S
C82 O80 1.273 . S
O83 Mg70 2.010 . S
O83 C75 1.249 . S
Mg84 O85 2.028 . S
Mg84 O91 1.986 . S
Mg84 O93 2.114 . S
Mg84 O94 2.251 . S
Mg84 O97 2.010 . S
O85 Mg84 2.028 . S
O85 C88 1.250 . S
O86 Mg87 2.028 . S
O86 C88 1.248 . S
Mg87 O86 2.028 . S
Mg87 O92 2.032 . S
Mg87 O94 2.079 . S
C88 O85 1.250 . S
C88 O86 1.248 . S
C89 O90 1.264 . S
C89 O97 1.249 . S
O90 C89 1.264 . S
O91 Mg84 1.986 . S
O91 C95 1.246 . S
O92 Mg87 2.032 . S
O92 C95 1.259 . S
O93 Mg84 2.114 . S
O93 C96 1.252 . S
O94 Mg84 2.251 . S
O94 Mg87 2.079 . S
O94 C96 1.273 . S
C95 O91 1.246 . S
C95 O92 1.259 . S
C96 O93 1.252 . S
C96 O94 1.273 . S
O97 Mg84 2.010 . S
O97 C89 1.249 . S
Mg98 O99 2.028 1_554 S
Mg98 O105 1.986 . S
Mg98 O107 2.114 . S
Mg98 O108 2.251 . S
Mg98 O111 2.010 1_554 S
O99 Mg98 2.028 1_556 S
O99 C102 1.250 . S
O100 Mg101 2.028 1_556 S
O100 C102 1.248 . S
Mg101 O100 2.028 1_554 S
Mg101 O106 2.032 . S
Mg101 O108 2.079 . S
C102 O99 1.250 . S
C102 O100 1.248 . S
C103 O104 1.264 1_556 S
C103 O111 1.249 . S
O104 C103 1.264 1_554 S
O105 Mg98 1.986 . S
O105 C109 1.246 . S
O106 Mg101 2.032 . S
O106 C109 1.259 . S
O107 Mg98 2.114 . S
O107 C110 1.252 . S
O108 Mg98 2.251 . S
O108 Mg101 2.079 . S
O108 C110 1.273 . S
C109 O105 1.246 . S
C109 O106 1.259 . S
C110 O107 1.252 . S
C110 O108 1.273 . S
O111 Mg98 2.010 1_556 S
O111 C103 1.249 . S
Mg112 O113 2.028 . S
Mg112 O119 1.986 . S
Mg112 O121 2.114 . S
Mg112 O122 2.251 . S
Mg112 O125 2.010 . S
O113 Mg112 2.028 . S
O113 C116 1.250 . S
O114 Mg115 2.028 . S
O114 C116 1.248 . S
Mg115 O114 2.028 . S
Mg115 O120 2.032 . S
Mg115 O122 2.079 . S
C116 O113 1.250 . S
C116 O114 1.248 . S
C117 O118 1.264 . S
C117 O125 1.249 . S
O118 C117 1.264 . S
O119 Mg112 1.986 . S
O119 C123 1.246 . S
O120 Mg115 2.032 . S
O120 C123 1.259 . S
O121 Mg112 2.114 . S
O121 C124 1.252 . S
O122 Mg112 2.251 . S
O122 Mg115 2.079 . S
O122 C124 1.273 . S
C123 O119 1.246 . S
C123 O120 1.259 . S
C124 O121 1.252 . S
C124 O122 1.273 . S
O125 Mg112 2.010 . S
O125 C117 1.249 . S
Mg126 O127 2.028 . S
Mg126 O133 1.986 . S
Mg126 O135 2.114 . S
Mg126 O136 2.251 . S
Mg126 O139 2.010 . S
O127 Mg126 2.028 . S
O127 C130 1.250 . S
O128 Mg129 2.028 . S
O128 C130 1.248 . S
Mg129 O128 2.028 . S
Mg129 O134 2.032 . S
Mg129 O136 2.079 . S
C130 O127 1.250 . S
C130 O128 1.248 . S
C131 O132 1.264 . S
C131 O139 1.249 . S
O132 C131 1.264 . S
O133 Mg126 1.986 . S
O133 C137 1.246 . S
O134 Mg129 2.032 . S
O134 C137 1.259 . S
O135 Mg126 2.114 . S
O135 C138 1.252 . S
O136 Mg126 2.251 . S
O136 Mg129 2.079 . S
O136 C138 1.273 . S
C137 O133 1.246 . S
C137 O134 1.259 . S
C138 O135 1.252 . S
C138 O136 1.273 . S
O139 Mg126 2.010 . S
O139 C131 1.249 . S
Mg140 O141 2.028 . S
Mg140 O147 1.986 . S
Mg140 O149 2.114 . S
Mg140 O150 2.251 . S
Mg140 O153 2.010 . S
O141 Mg140 2.028 . S
O141 C144 1.250 . S
O142 Mg143 2.028 . S
O142 C144 1.248 . S
Mg143 O142 2.028 . S
Mg143 O148 2.032 . S
Mg143 O150 2.079 . S
C144 O141 1.250 . S
C144 O142 1.248 . S
C145 O146 1.264 . S
C145 O153 1.249 . S
O146 C145 1.264 . S
O147 Mg140 1.986 . S
O147 C151 1.246 . S
O148 Mg143 2.032 . S
O148 C151 1.259 . S
O149 Mg140 2.114 . S
O149 C152 1.252 . S
O150 Mg140 2.251 . S
O150 Mg143 2.079 . S
O150 C152 1.273 . S
C151 O147 1.246 . S
C151 O148 1.259 . S
C152 O149 1.252 . S
C152 O150 1.273 . S
O153 Mg140 2.010 . S
O153 C145 1.249 . S
Mg154 O155 2.028 1_554 S
Mg154 O161 1.986 . S
Mg154 O163 2.114 . S
Mg154 O164 2.251 . S
Mg154 O167 2.010 1_554 S
O155 Mg154 2.028 1_556 S
O155 C158 1.250 . S
O156 Mg157 2.028 1_556 S
O156 C158 1.248 . S
Mg157 O156 2.028 1_554 S
Mg157 O162 2.032 . S
Mg157 O164 2.079 . S
C158 O155 1.250 . S
C158 O156 1.248 . S
C159 O160 1.264 1_556 S
C159 O167 1.249 . S
O160 C159 1.264 1_554 S
O161 Mg154 1.986 . S
O161 C165 1.246 . S
O162 Mg157 2.032 . S
O162 C165 1.259 . S
O163 Mg154 2.114 . S
O163 C166 1.252 . S
O164 Mg154 2.251 . S
O164 Mg157 2.079 . S
O164 C166 1.273 . S
C165 O161 1.246 . S
C165 O162 1.259 . S
C166 O163 1.252 . S
C166 O164 1.273 . S
O167 Mg154 2.010 1_556 S
O167 C159 1.249 . S
Mg168 O169 2.028 . S
Mg168 O175 1.986 . S
Mg168 O177 2.114 . S
Mg168 O178 2.251 . S
Mg168 O181 2.010 . S
O169 Mg168 2.028 . S
O169 C172 1.250 . S
O170 Mg171 2.028 . S
O170 C172 1.248 . S
Mg171 O170 2.028 . S
Mg171 O176 2.032 . S
Mg171 O178 2.079 . S
C172 O169 1.250 . S
C172 O170 1.248 . S
C173 O174 1.264 . S
C173 O181 1.249 . S
O174 C173 1.264 . S
O175 Mg168 1.986 . S
O175 C179 1.246 . S
O176 Mg171 2.032 . S
O176 C179 1.259 . S
O177 Mg168 2.114 . S
O177 C180 1.252 . S
O178 Mg168 2.251 . S
O178 Mg171 2.079 . S
O178 C180 1.273 . S
C179 O175 1.246 . S
C179 O176 1.259 . S
C180 O177 1.252 . S
C180 O178 1.273 . S
O181 Mg168 2.010 . S
O181 C173 1.249 . S
Mg182 O183 2.028 . S
Mg182 O189 1.986 . S
Mg182 O191 2.114 . S
Mg182 O192 2.251 . S
Mg182 O195 2.010 . S
O183 Mg182 2.028 . S
O183 C186 1.250 . S
O184 Mg185 2.028 . S
O184 C186 1.248 . S
Mg185 O184 2.028 . S
Mg185 O190 2.032 . S
Mg185 O192 2.079 . S
C186 O183 1.250 . S
C186 O184 1.248 . S
C187 O188 1.264 . S
C187 O195 1.249 . S
O188 C187 1.264 . S
O189 Mg182 1.986 . S
O189 C193 1.246 . S
O190 Mg185 2.032 . S
O190 C193 1.259 . S
O191 Mg182 2.114 . S
O191 C194 1.252 . S
O192 Mg182 2.251 . S
O192 Mg185 2.079 . S
O192 C194 1.273 . S
C193 O189 1.246 . S
C193 O190 1.259 . S
C194 O191 1.252 . S
C194 O192 1.273 . S
O195 Mg182 2.010 . S
O195 C187 1.249 . S
Mg196 O197 2.028 . S
Mg196 O203 1.986 . S
Mg196 O205 2.114 . S
Mg196 O206 2.251 . S
Mg196 O209 2.010 . S
O197 Mg196 2.028 . S
O197 C200 1.250 . S
O198 Mg199 2.028 . S
O198 C200 1.248 . S
Mg199 O198 2.028 . S
Mg199 O204 2.032 . S
Mg199 O206 2.079 . S
C200 O197 1.250 . S
C200 O198 1.248 . S
C201 O202 1.264 . S
C201 O209 1.249 . S
O202 C201 1.264 . S
O203 Mg196 1.986 . S
O203 C207 1.246 . S
O204 Mg199 2.032 . S
O204 C207 1.259 . S
O205 Mg196 2.114 . S
O205 C208 1.252 . S
O206 Mg196 2.251 . S
O206 Mg199 2.079 . S
O206 C208 1.273 . S
C207 O203 1.246 . S
C207 O204 1.259 . S
C208 O205 1.252 . S
C208 O206 1.273 . S
O209 Mg196 2.010 . S
O209 C201 1.249 . S
Mg210 O211 2.028 1_556 S
Mg210 O217 1.986 . S
Mg210 O219 2.114 . S
Mg210 O220 2.251 . S
Mg210 O223 2.010 1_556 S
O211 Mg210 2.028 1_554 S
O211 C214 1.250 . S
O212 Mg213 2.028 1_554 S
O212 C214 1.248 . S
Mg213 O212 2.028 1_556 S
Mg213 O218 2.032 . S
Mg213 O220 2.079 . S
C214 O211 1.250 . S
C214 O212 1.248 . S
C215 O216 1.264 1_554 S
C215 O223 1.249 . S
O216 C215 1.264 1_556 S
O217 Mg210 1.986 . S
O217 C221 1.246 . S
O218 Mg213 2.032 . S
O218 C221 1.259 . S
O219 Mg210 2.114 . S
O219 C222 1.252 . S
O220 Mg210 2.251 . S
O220 Mg213 2.079 . S
O220 C222 1.273 . S
C221 O217 1.246 . S
C221 O218 1.259 . S
C222 O219 1.252 . S
C222 O220 1.273 . S
O223 Mg210 2.010 1_554 S
O223 C215 1.249 . S
Mg224 O225 2.028 . S
Mg224 O231 1.986 . S
Mg224 O233 2.114 . S
Mg224 O234 2.251 . S
Mg224 O237 2.010 . S
O225 Mg224 2.028 . S
O225 C228 1.250 . S
O226 Mg227 2.028 . S
O226 C228 1.248 . S
Mg227 O226 2.028 . S
Mg227 O232 2.032 . S
Mg227 O234 2.079 . S
C228 O225 1.250 . S
C228 O226 1.248 . S
C229 O230 1.264 . S
C229 O237 1.249 . S
O230 C229 1.264 . S
O231 Mg224 1.986 . S
O231 C235 1.246 . S
O232 Mg227 2.032 . S
O232 C235 1.259 . S
O233 Mg224 2.114 . S
O233 C236 1.252 . S
O234 Mg224 2.251 . S
O234 Mg227 2.079 . S
O234 C236 1.273 . S
C235 O231 1.246 . S
C235 O232 1.259 . S
C236 O233 1.252 . S
C236 O234 1.273 . S
O237 Mg224 2.010 . S
O237 C229 1.249 . S
Mg238 O239 2.028 1_556 S
Mg238 O245 1.986 . S
Mg238 O247 2.114 . S
Mg238 O248 2.251 . S
Mg238 O251 2.010 1_556 S
O239 Mg238 2.028 1_554 S
O239 C242 1.250 . S
O240 Mg241 2.028 1_554 S
O240 C242 1.248 . S
Mg241 O240 2.028 1_556 S
Mg241 O246 2.032 . S
Mg241 O248 2.079 . S
C242 O239 1.250 . S
C242 O240 1.248 . S
C243 O244 1.264 1_554 S
C243 O251 1.249 . S
O244 C243 1.264 1_556 S
O245 Mg238 1.986 . S
O245 C249 1.246 . S
O246 Mg241 2.032 . S
O246 C249 1.259 . S
O247 Mg238 2.114 . S
O247 C250 1.252 . S
O248 Mg238 2.251 . S
O248 Mg241 2.079 . S
O248 C250 1.273 . S
C249 O245 1.246 . S
C249 O246 1.259 . S
C250 O247 1.252 . S
C250 O248 1.273 . S
O251 Mg238 2.010 1_554 S
O251 C243 1.249 . S
Mg252 O253 2.028 . S
Mg252 O259 1.986 . S
Mg252 O261 2.114 . S
Mg252 O262 2.251 . S
Mg252 O265 2.010 . S
O253 Mg252 2.028 . S
O253 C256 1.250 . S
O254 Mg255 2.028 . S
O254 C256 1.248 . S
Mg255 O254 2.028 . S
Mg255 O260 2.032 . S
Mg255 O262 2.079 . S
C256 O253 1.250 . S
C256 O254 1.248 . S
C257 O258 1.264 . S
C257 O265 1.249 . S
O258 C257 1.264 . S
O259 Mg252 1.986 . S
O259 C263 1.246 . S
O260 Mg255 2.032 . S
O260 C263 1.259 . S
O261 Mg252 2.114 . S
O261 C264 1.252 . S
O262 Mg252 2.251 . S
O262 Mg255 2.079 . S
O262 C264 1.273 . S
C263 O259 1.246 . S
C263 O260 1.259 . S
C264 O261 1.252 . S
C264 O262 1.273 . S
O265 Mg252 2.010 . S
O265 C257 1.249 . S
Mg266 O267 2.028 . S
Mg266 O273 1.986 . S
Mg266 O275 2.114 . S
Mg266 O276 2.251 . S
Mg266 O279 2.010 . S
O267 Mg266 2.028 . S
O267 C270 1.250 . S
O268 Mg269 2.028 . S
O268 C270 1.248 . S
Mg269 O268 2.028 . S
Mg269 O274 2.032 . S
Mg269 O276 2.079 . S
C270 O267 1.250 . S
C270 O268 1.248 . S
C271 O272 1.264 . S
C271 O279 1.249 . S
O272 C271 1.264 . S
O273 Mg266 1.986 . S
O273 C277 1.246 . S
O274 Mg269 2.032 . S
O274 C277 1.259 . S
O275 Mg266 2.114 . S
O275 C278 1.252 . S
O276 Mg266 2.251 . S
O276 Mg269 2.079 . S
O276 C278 1.273 . S
C277 O273 1.246 . S
C277 O274 1.259 . S
C278 O275 1.252 . S
C278 O276 1.273 . S
O279 Mg266 2.010 . S
O279 C271 1.249 . S
Mg280 O281 2.028 . S
Mg280 O287 1.986 . S
Mg280 O289 2.114 . S
Mg280 O290 2.251 . S
Mg280 O293 2.010 . S
O281 Mg280 2.028 . S
O281 C284 1.250 . S
O282 Mg283 2.028 . S
O282 C284 1.248 . S
Mg283 O282 2.028 . S
Mg283 O288 2.032 . S
Mg283 O290 2.079 . S
C284 O281 1.250 . S
C284 O282 1.248 . S
C285 O286 1.264 . S
C285 O293 1.249 . S
O286 C285 1.264 . S
O287 Mg280 1.986 . S
O287 C291 1.246 . S
O288 Mg283 2.032 . S
O288 C291 1.259 . S
O289 Mg280 2.114 . S
O289 C292 1.252 . S
O290 Mg280 2.251 . S
O290 Mg283 2.079 . S
O290 C292 1.273 . S
C291 O287 1.246 . S
C291 O288 1.259 . S
C292 O289 1.252 . S
C292 O290 1.273 . S
O293 Mg280 2.010 . S
O293 C285 1.249 . S
Mg294 O295 2.028 1_554 S
Mg294 O301 1.986 . S
Mg294 O303 2.114 . S
Mg294 O304 2.251 . S
Mg294 O307 2.010 1_554 S
O295 Mg294 2.028 1_556 S
O295 C298 1.250 . S
O296 Mg297 2.028 1_556 S
O296 C298 1.248 . S
Mg297 O296 2.028 1_554 S
Mg297 O302 2.032 . S
Mg297 O304 2.079 . S
C298 O295 1.250 . S
C298 O296 1.248 . S
C299 O300 1.264 1_556 S
C299 O307 1.249 . S
O300 C299 1.264 1_554 S
O301 Mg294 1.986 . S
O301 C305 1.246 . S
O302 Mg297 2.032 . S
O302 C305 1.259 . S
O303 Mg294 2.114 . S
O303 C306 1.252 . S
O304 Mg294 2.251 . S
O304 Mg297 2.079 . S
O304 C306 1.273 . S
C305 O301 1.246 . S
C305 O302 1.259 . S
C306 O303 1.252 . S
C306 O304 1.273 . S
O307 Mg294 2.010 1_556 S
O307 C299 1.249 . S
Mg308 O309 2.028 . S
Mg308 O315 1.986 . S
Mg308 O317 2.114 . S
Mg308 O318 2.251 . S
Mg308 O321 2.010 . S
O309 Mg308 2.028 . S
O309 C312 1.250 . S
O310 Mg311 2.028 . S
O310 C312 1.248 . S
Mg311 O310 2.028 . S
Mg311 O316 2.032 . S
Mg311 O318 2.079 . S
C312 O309 1.250 . S
C312 O310 1.248 . S
C313 O314 1.264 . S
C313 O321 1.249 . S
O314 C313 1.264 . S
O315 Mg308 1.986 . S
O315 C319 1.246 . S
O316 Mg311 2.032 . S
O316 C319 1.259 . S
O317 Mg308 2.114 . S
O317 C320 1.252 . S
O318 Mg308 2.251 . S
O318 Mg311 2.079 . S
O318 C320 1.273 . S
C319 O315 1.246 . S
C319 O316 1.259 . S
C320 O317 1.252 . S
C320 O318 1.273 . S
O321 Mg308 2.010 . S
O321 C313 1.249 . S
Mg322 O323 2.028 . S
Mg322 O329 1.986 . S
Mg322 O331 2.114 . S
Mg322 O332 2.251 . S
Mg322 O335 2.010 . S
O323 Mg322 2.028 . S
O323 C326 1.250 . S
O324 Mg325 2.028 . S
O324 C326 1.248 . S
Mg325 O324 2.028 . S
Mg325 O330 2.032 . S
Mg325 O332 2.079 . S
C326 O323 1.250 . S
C326 O324 1.248 . S
C327 O328 1.264 . S
C327 O335 1.249 . S
O328 C327 1.264 . S
O329 Mg322 1.986 . S
O329 C333 1.246 . S
O330 Mg325 2.032 . S
O330 C333 1.259 . S
O331 Mg322 2.114 . S
O331 C334 1.252 . S
O332 Mg322 2.251 . S
O332 Mg325 2.079 . S
O332 C334 1.273 . S
C333 O329 1.246 . S
C333 O330 1.259 . S
C334 O331 1.252 . S
C334 O332 1.273 . S
O335 Mg322 2.010 . S
O335 C327 1.249 . S
Mg336 O337 2.028 . S
Mg336 O343 1.986 . S
Mg336 O345 2.114 . S
Mg336 O346 2.251 . S
Mg336 O349 2.010 . S
O337 Mg336 2.028 . S
O337 C340 1.250 . S
O338 Mg339 2.028 . S
O338 C340 1.248 . S
Mg339 O338 2.028 . S
Mg339 O344 2.032 . S
Mg339 O346 2.079 . S
C340 O337 1.250 . S
C340 O338 1.248 . S
C341 O342 1.264 . S
C341 O349 1.249 . S
O342 C341 1.264 . S
O343 Mg336 1.986 . S
O343 C347 1.246 . S
O344 Mg339 2.032 . S
O344 C347 1.259 . S
O345 Mg336 2.114 . S
O345 C348 1.252 . S
O346 Mg336 2.251 . S
O346 Mg339 2.079 . S
O346 C348 1.273 . S
C347 O343 1.246 . S
C347 O344 1.259 . S
C348 O345 1.252 . S
C348 O346 1.273 . S
O349 Mg336 2.010 . S
O349 C341 1.249 . S
Mg350 O351 2.028 1_554 S
Mg350 O357 1.986 . S
Mg350 O359 2.114 . S
Mg350 O360 2.251 . S
Mg350 O363 2.010 1_554 S
O351 Mg350 2.028 1_556 S
O351 C354 1.250 . S
O352 Mg353 2.028 1_556 S
O352 C354 1.248 . S
Mg353 O352 2.028 1_554 S
Mg353 O358 2.032 . S
Mg353 O360 2.079 . S
C354 O351 1.250 . S
C354 O352 1.248 . S
C355 O356 1.264 1_556 S
C355 O363 1.249 . S
O356 C355 1.264 1_554 S
O357 Mg350 1.986 . S
O357 C361 1.246 . S
O358 Mg353 2.032 . S
O358 C361 1.259 . S
O359 Mg350 2.114 . S
O359 C362 1.252 . S
O360 Mg350 2.251 . S
O360 Mg353 2.079 . S
O360 C362 1.273 . S
C361 O357 1.246 . S
C361 O358 1.259 . S
C362 O359 1.252 . S
C362 O360 1.273 . S
O363 Mg350 2.010 1_556 S
O363 C355 1.249 . S
Mg364 O365 2.028 . S
Mg364 O371 1.986 . S
Mg364 O373 2.114 . S
Mg364 O374 2.251 . S
Mg364 O377 2.010 . S
O365 Mg364 2.028 . S
O365 C368 1.250 . S
O366 Mg367 2.028 . S
O366 C368 1.248 . S
Mg367 O366 2.028 . S
Mg367 O372 2.032 . S
Mg367 O374 2.079 . S
C368 O365 1.250 . S
C368 O366 1.248 . S
C369 O370 1.264 . S
C369 O377 1.249 . S
O370 C369 1.264 . S
O371 Mg364 1.986 . S
O371 C375 1.246 . S
O372 Mg367 2.032 . S
O372 C375 1.259 . S
O373 Mg364 2.114 . S
O373 C376 1.252 . S
O374 Mg364 2.251 . S
O374 Mg367 2.079 . S
O374 C376 1.273 . S
C375 O371 1.246 . S
C375 O372 1.259 . S
C376 O373 1.252 . S
C376 O374 1.273 . S
O377 Mg364 2.010 . S
O377 C369 1.249 . S
Mg378 O379 2.028 . S
Mg378 O385 1.986 . S
Mg378 O387 2.114 . S
Mg378 O388 2.251 . S
Mg378 O391 2.010 . S
O379 Mg378 2.028 . S
O379 C382 1.250 . S
O380 Mg381 2.028 . S
O380 C382 1.248 . S
Mg381 O380 2.028 . S
Mg381 O386 2.032 . S
Mg381 O388 2.079 . S
C382 O379 1.250 . S
C382 O380 1.248 . S
C383 O384 1.264 . S
C383 O391 1.249 . S
O384 C383 1.264 . S
O385 Mg378 1.986 . S
O385 C389 1.246 . S
O386 Mg381 2.032 . S
O386 C389 1.259 . S
O387 Mg378 2.114 . S
O387 C390 1.252 . S
O388 Mg378 2.251 . S
O388 Mg381 2.079 . S
O388 C390 1.273 . S
C389 O385 1.246 . S
C389 O386 1.259 . S
C390 O387 1.252 . S
C390 O388 1.273 . S
O391 Mg378 2.010 . S
O391 C383 1.249 . S
Mg392 O393 2.028 . S
Mg392 O399 1.986 . S
Mg392 O401 2.114 . S
Mg392 O402 2.251 . S
Mg392 O405 2.010 . S
O393 Mg392 2.028 . S
O393 C396 1.250 . S
O394 Mg395 2.028 . S
O394 C396 1.248 . S
Mg395 O394 2.028 . S
Mg395 O400 2.032 . S
Mg395 O402 2.079 . S
C396 O393 1.250 . S
C396 O394 1.248 . S
C397 O398 1.264 . S
C397 O405 1.249 . S
O398 C397 1.264 . S
O399 Mg392 1.986 . S
O399 C403 1.246 . S
O400 Mg395 2.032 . S
O400 C403 1.259 . S
O401 Mg392 2.114 . S
O401 C404 1.252 . S
O402 Mg392 2.251 . S
O402 Mg395 2.079 . S
O402 C404 1.273 . S
C403 O399 1.246 . S
C403 O400 1.259 . S
C404 O401 1.252 . S
C404 O402 1.273 . S
O405 Mg392 2.010 . S
O405 C397 1.249 . S
Mg406 O407 2.028 1_556 S
Mg406 O413 1.986 . S
Mg406 O415 2.114 . S
Mg406 O416 2.251 . S
Mg406 O419 2.010 1_556 S
O407 Mg406 2.028 1_554 S
O407 C410 1.250 . S
O408 Mg409 2.028 1_554 S
O408 C410 1.248 . S
Mg409 O408 2.028 1_556 S
Mg409 O414 2.032 . S
Mg409 O416 2.079 . S
C410 O407 1.250 . S
C410 O408 1.248 . S
C411 O412 1.264 1_554 S
C411 O419 1.249 . S
O412 C411 1.264 1_556 S
O413 Mg406 1.986 . S
O413 C417 1.246 . S
O414 Mg409 2.032 . S
O414 C417 1.259 . S
O415 Mg406 2.114 . S
O415 C418 1.252 . S
O416 Mg406 2.251 . S
O416 Mg409 2.079 . S
O416 C418 1.273 . S
C417 O413 1.246 . S
C417 O414 1.259 . S
C418 O415 1.252 . S
C418 O416 1.273 . S
O419 Mg406 2.010 1_554 S
O419 C411 1.249 . S
Mg420 O421 2.028 . S
Mg420 O427 1.986 . S
Mg420 O429 2.114 . S
Mg420 O430 2.251 . S
Mg420 O433 2.010 . S
O421 Mg420 2.028 . S
O421 C424 1.250 . S
O422 Mg423 2.028 . S
O422 C424 1.248 . S
Mg423 O422 2.028 . S
Mg423 O428 2.032 . S
Mg423 O430 2.079 . S
C424 O421 1.250 . S
C424 O422 1.248 . S
C425 O426 1.264 . S
C425 O433 1.249 . S
O426 C425 1.264 . S
O427 Mg420 1.986 . S
O427 C431 1.246 . S
O428 Mg423 2.032 . S
O428 C431 1.259 . S
O429 Mg420 2.114 . S
O429 C432 1.252 . S
O430 Mg420 2.251 . S
O430 Mg423 2.079 . S
O430 C432 1.273 . S
C431 O427 1.246 . S
C431 O428 1.259 . S
C432 O429 1.252 . S
C432 O430 1.273 . S
O433 Mg420 2.010 . S
O433 C425 1.249 . S
Mg434 O435 2.028 . S
Mg434 O441 1.986 . S
Mg434 O443 2.114 . S
Mg434 O444 2.251 . S
Mg434 O447 2.010 . S
O435 Mg434 2.028 . S
O435 C438 1.250 . S
O436 Mg437 2.028 . S
O436 C438 1.248 . S
Mg437 O436 2.028 . S
Mg437 O442 2.032 . S
Mg437 O444 2.079 . S
C438 O435 1.250 . S
C438 O436 1.248 . S
C439 O440 1.264 . S
C439 O447 1.249 . S
O440 C439 1.264 . S
O441 Mg434 1.986 . S
O441 C445 1.246 . S
O442 Mg437 2.032 . S
O442 C445 1.259 . S
O443 Mg434 2.114 . S
O443 C446 1.252 . S
O444 Mg434 2.251 . S
O444 Mg437 2.079 . S
O444 C446 1.273 . S
C445 O441 1.246 . S
C445 O442 1.259 . S
C446 O443 1.252 . S
C446 O444 1.273 . S
O447 Mg434 2.010 . S
O447 C439 1.249 . S
C448 C449 1.369 . S
C448 C450 1.419 . S
C448 H452 0.930 . S
C449 C448 1.369 . S
C449 C458 1.429 . S
C450 C448 1.419 . S
C450 C451 1.363 . S
C450 H453 0.929 . S
C451 C450 1.363 . S
C451 C457 1.428 . S
H452 C448 0.930 . S
H453 C450 0.929 . S
S454 N455 1.613 . S
S454 N456 1.610 . S
N455 S454 1.613 . S
N455 C458 1.350 . S
N456 S454 1.610 . S
N456 C457 1.351 . S
C457 C451 1.428 . S
C457 N456 1.351 . S
C457 C458 1.434 . S
C458 C449 1.429 . S
C458 N455 1.350 . S
C458 C457 1.434 . S
C459 C460 1.369 1_545 S
C459 C461 1.419 . S
C459 H463 0.930 . S
C460 C459 1.369 1_565 S
C460 C469 1.429 . S
C461 C459 1.419 . S
C461 C462 1.363 . S
C461 H464 0.929 . S
C462 C461 1.363 . S
C462 C468 1.428 1_545 S
H463 C459 0.930 . S
H464 C461 0.929 . S
S465 N466 1.613 . S
S465 N467 1.610 . S
N466 S465 1.613 . S
N466 C469 1.350 . S
N467 S465 1.610 . S
N467 C468 1.351 . S
C468 C462 1.428 1_565 S
C468 N467 1.351 . S
C468 C469 1.434 . S
C469 C460 1.429 . S
C469 N466 1.350 . S
C469 C468 1.434 . S
C470 C471 1.369 . S
C470 C472 1.419 1_554 S
C470 H474 0.930 . S
C471 C470 1.369 . S
C471 C480 1.429 . S
C472 C470 1.419 1_556 S
C472 C473 1.363 . S
C472 H475 0.929 . S
C473 C472 1.363 . S
C473 C479 1.428 . S
H474 C470 0.930 . S
H475 C472 0.929 . S
S476 N477 1.613 . S
S476 N478 1.610 . S
N477 S476 1.613 . S
N477 C480 1.350 . S
N478 S476 1.610 . S
N478 C479 1.351 1_554 S
C479 C473 1.428 . S
C479 N478 1.351 1_556 S
C479 C480 1.434 1_556 S
C480 C471 1.429 . S
C480 N477 1.350 . S
C480 C479 1.434 1_554 S
C481 C482 1.369 1_565 S
C481 C483 1.419 . S
C481 H485 0.930 . S
C482 C481 1.369 1_545 S
C482 C491 1.429 . S
C483 C481 1.419 . S
C483 C484 1.363 . S
C483 H486 0.929 . S
C484 C483 1.363 . S
C484 C490 1.428 1_565 S
H485 C481 0.930 . S
H486 C483 0.929 . S
S487 N488 1.613 . S
S487 N489 1.610 . S
N488 S487 1.613 . S
N488 C491 1.350 . S
N489 S487 1.610 . S
N489 C490 1.351 . S
C490 C484 1.428 1_545 S
C490 N489 1.351 . S
C490 C491 1.434 . S
C491 C482 1.429 . S
C491 N488 1.350 . S
C491 C490 1.434 . S
C492 C493 1.369 . S
C492 C494 1.419 . S
C492 H496 0.930 . S
C493 C492 1.369 . S
C493 C502 1.429 . S
C494 C492 1.419 . S
C494 C495 1.363 . S
C494 H497 0.929 . S
C495 C494 1.363 . S
C495 C501 1.428 . S
H496 C492 0.930 . S
H497 C494 0.929 . S
S498 N499 1.613 . S
S498 N500 1.610 . S
N499 S498 1.613 . S
N499 C502 1.350 . S
N500 S498 1.610 . S
N500 C501 1.351 . S
C501 C495 1.428 . S
C501 N500 1.351 . S
C501 C502 1.434 . S
C502 C493 1.429 . S
C502 N499 1.350 . S
C502 C501 1.434 . S
C503 C504 1.369 . S
C503 C505 1.419 . S
C503 H507 0.930 . S
C504 C503 1.369 . S
C504 C513 1.429 1_545 S
C505 C503 1.419 . S
C505 C506 1.363 1_545 S
C505 H508 0.929 . S
C506 C505 1.363 1_565 S
C506 C512 1.428 . S
H507 C503 0.930 . S
H508 C505 0.929 . S
S509 N510 1.613 . S
S509 N511 1.610 . S
N510 S509 1.613 . S
N510 C513 1.350 . S
N511 S509 1.610 . S
N511 C512 1.351 . S
C512 C506 1.428 . S
C512 N511 1.351 . S
C512 C513 1.434 . S
C513 C504 1.429 1_565 S
C513 N510 1.350 . S
C513 C512 1.434 . S
C514 C515 1.369 . S
C514 C516 1.419 1_556 S
C514 H518 0.930 . S
C515 C514 1.369 . S
C515 C524 1.429 . S
C516 C514 1.419 1_554 S
C516 C517 1.363 . S
C516 H519 0.929 . S
C517 C516 1.363 . S
C517 C523 1.433 . S
H518 C514 0.930 . S
H519 C516 0.929 . S
S520 N521 1.613 . S
S520 N522 1.610 . S
N521 S520 1.613 . S
N521 C524 1.350 . S
N522 S520 1.610 . S
N522 C523 1.350 1_556 S
C523 C517 1.433 . S
C523 N522 1.350 1_554 S
C523 C524 1.429 1_554 S
C524 C515 1.429 . S
C524 N521 1.350 . S
C524 C523 1.429 1_556 S
C525 C526 1.369 . S
C525 C527 1.419 1_565 S
C525 H529 0.930 . S
C526 C525 1.369 . S
C526 C535 1.429 . S
C527 C525 1.419 1_545 S
C527 C528 1.363 . S
C527 H530 0.929 . S
C528 C527 1.363 . S
C528 C534 1.428 . S
H529 C525 0.930 . S
H530 C527 0.929 . S
S531 N532 1.613 . S
S531 N533 1.610 1_565 S
N532 S531 1.613 . S
N532 C535 1.350 . S
N533 S531 1.610 1_545 S
N533 C534 1.351 . S
C534 C528 1.428 . S
C534 N533 1.351 . S
C534 C535 1.434 1_545 S
C535 C526 1.429 . S
C535 N532 1.350 . S
C535 C534 1.434 1_565 S
C536 C537 1.369 . S
C536 C538 1.419 1_556 S
C536 H540 0.930 . S
C537 C536 1.369 . S
C537 C546 1.429 . S
C538 C536 1.419 1_554 S
C538 C539 1.363 . S
C538 H541 0.929 . S
C539 C538 1.363 . S
C539 C545 1.428 . S
H540 C536 0.930 . S
H541 C538 0.929 . S
S542 N543 1.613 . S
S542 N544 1.619 . S
N543 S542 1.613 . S
N543 C546 1.350 . S
N544 S542 1.619 . S
N544 C545 1.350 1_556 S
C545 C539 1.428 . S
C545 N544 1.350 1_554 S
C545 C546 1.434 1_554 S
C546 C537 1.429 . S
C546 N543 1.350 . S
C546 C545 1.434 1_556 S
C547 C548 1.369 . S
C547 C549 1.419 . S
C547 H551 0.930 . S
C548 C547 1.369 . S
C548 C557 1.429 . S
C549 C547 1.419 . S
C549 C550 1.363 . S
C549 H552 0.929 . S
C550 C549 1.363 . S
C550 C556 1.428 . S
H551 C547 0.930 . S
H552 C549 0.929 . S
S553 N554 1.613 . S
S553 N555 1.610 . S
N554 S553 1.613 . S
N554 C557 1.350 . S
N555 S553 1.610 . S
N555 C556 1.351 . S
C556 C550 1.428 . S
C556 N555 1.351 . S
C556 C557 1.434 . S
C557 C548 1.429 . S
C557 N554 1.350 . S
C557 C556 1.434 . S
C558 C559 1.369 . S
C558 C560 1.419 . S
C558 H562 0.930 . S
C559 C558 1.369 . S
C559 C568 1.429 . S
C560 C558 1.419 . S
C560 C561 1.363 . S
C560 H563 0.929 . S
C561 C560 1.363 . S
C561 C567 1.428 . S
H562 C558 0.930 . S
H563 C560 0.929 . S
S564 N565 1.613 . S
S564 N566 1.610 . S
N565 S564 1.613 . S
N565 C568 1.350 . S
N566 S564 1.610 . S
N566 C567 1.351 . S
C567 C561 1.428 . S
C567 N566 1.351 . S
C567 C568 1.434 . S
C568 C559 1.429 . S
C568 N565 1.350 . S
C568 C567 1.434 . S
C569 C570 1.369 . S
C569 C571 1.419 . S
C569 H573 0.930 . S
C570 C569 1.369 . S
C570 C579 1.429 . S
C571 C569 1.419 . S
C571 C572 1.363 . S
C571 H574 0.929 . S
C572 C571 1.363 . S
C572 C578 1.428 . S
H573 C569 0.930 . S
H574 C571 0.929 . S
S575 N576 1.613 . S
S575 N577 1.610 . S
N576 S575 1.613 . S
N576 C579 1.350 . S
N577 S575 1.610 . S
N577 C578 1.351 . S
C578 C572 1.428 . S
C578 N577 1.351 . S
C578 C579 1.434 . S
C579 C570 1.429 . S
C579 N576 1.350 . S
C579 C578 1.434 . S
C580 C581 1.369 . S
C580 C582 1.419 1_556 S
C580 H584 0.930 . S
C581 C580 1.369 . S
C581 C590 1.429 . S
C582 C580 1.419 1_554 S
C582 C583 1.363 . S
C582 H585 0.929 . S
C583 C582 1.363 . S
C583 C589 1.428 . S
H584 C580 0.930 . S
H585 C582 0.929 . S
S586 N587 1.613 . S
S586 N588 1.602 1_556 S
N587 S586 1.613 . S
N587 C590 1.350 . S
N588 S586 1.602 1_554 S
N588 C589 1.352 . S
C589 C583 1.428 . S
C589 N588 1.352 . S
C589 C590 1.434 1_554 S
C590 C581 1.429 . S
C590 N587 1.350 . S
C590 C589 1.434 1_556 S
C591 C592 1.369 . S
C591 C593 1.419 . S
C591 H595 0.930 . S
C592 C591 1.369 . S
C592 C601 1.429 . S
C593 C591 1.419 . S
C593 C594 1.363 . S
C593 H596 0.929 . S
C594 C593 1.363 . S
C594 C600 1.428 . S
H595 C591 0.930 . S
H596 C593 0.929 . S
S597 N598 1.613 . S
S597 N599 1.610 . S
N598 S597 1.613 . S
N598 C601 1.350 . S
N599 S597 1.610 . S
N599 C600 1.351 . S
C600 C594 1.428 . S
C600 N599 1.351 . S
C600 C601 1.434 . S
C601 C592 1.429 . S
C601 N598 1.350 . S
C601 C600 1.434 . S
C602 C603 1.369 . S
C602 C604 1.419 . S
C602 H606 0.930 . S
C603 C602 1.369 . S
C603 C612 1.429 . S
C604 C602 1.419 . S
C604 C605 1.363 . S
C604 H607 0.929 . S
C605 C604 1.363 . S
C605 C611 1.428 . S
H606 C602 0.930 . S
H607 C604 0.929 . S
S608 N609 1.613 . S
S608 N610 1.610 . S
N609 S608 1.613 . S
N609 C612 1.350 . S
N610 S608 1.610 . S
N610 C611 1.351 . S
C611 C605 1.428 . S
C611 N610 1.351 . S
C611 C612 1.434 . S
C612 C603 1.429 . S
C612 N609 1.350 . S
C612 C611 1.434 . S
C613 C614 1.369 . S
C613 C615 1.419 . S
C613 H617 0.930 . S
C614 C613 1.369 . S
C614 C623 1.429 . S
C615 C613 1.419 . S
C615 C616 1.363 . S
C615 H618 0.929 . S
C616 C615 1.363 . S
C616 C622 1.428 . S
H617 C613 0.930 . S
H618 C615 0.929 . S
S619 N620 1.613 . S
S619 N621 1.610 . S
N620 S619 1.613 . S
N620 C623 1.350 . S
N621 S619 1.610 . S
N621 C622 1.351 . S
C622 C616 1.428 . S
C622 N621 1.351 . S
C622 C623 1.434 . S
C623 C614 1.429 . S
C623 N620 1.350 . S
C623 C622 1.434 . S
C624 C625 1.369 . S
C624 C626 1.419 . S
C624 H628 0.930 . S
C625 C624 1.369 . S
C625 C634 1.429 . S
C626 C624 1.419 . S
C626 C627 1.363 . S
C626 H629 0.929 . S
C627 C626 1.363 . S
C627 C633 1.428 . S
H628 C624 0.930 . S
H629 C626 0.929 . S
S630 N631 1.614 . S
S630 N632 1.605 1_556 S
N631 S630 1.614 . S
N631 C634 1.350 1_556 S
N632 S630 1.605 1_554 S
N632 C633 1.351 . S
C633 C627 1.428 . S
C633 N632 1.351 . S
C633 C634 1.434 . S
C634 C625 1.429 . S
C634 N631 1.350 1_554 S
C634 C633 1.434 . S
C635 C636 1.369 . S
C635 C637 1.419 . S
C635 H639 0.930 . S
C636 C635 1.369 . S
C636 C645 1.429 . S
C637 C635 1.419 . S
C637 C638 1.363 . S
C637 H640 0.929 . S
C638 C637 1.363 . S
C638 C644 1.428 . S
H639 C635 0.930 . S
H640 C637 0.929 . S
S641 N642 1.613 . S
S641 N643 1.610 . S
N642 S641 1.613 . S
N642 C645 1.350 . S
N643 S641 1.610 . S
N643 C644 1.351 . S
C644 C638 1.428 . S
C644 N643 1.351 . S
C644 C645 1.434 . S
C645 C636 1.429 . S
C645 N642 1.350 . S
C645 C644 1.434 . S
C646 C647 1.369 . S
C646 C648 1.419 . S
C646 H650 0.930 . S
C647 C646 1.369 . S
C647 C656 1.429 . S
C648 C646 1.419 . S
C648 C649 1.363 . S
C648 H651 0.929 . S
C649 C648 1.363 . S
C649 C655 1.428 . S
H650 C646 0.930 . S
H651 C648 0.929 . S
S652 N653 1.613 . S
S652 N654 1.610 . S
N653 S652 1.613 . S
N653 C656 1.350 . S
N654 S652 1.610 . S
N654 C655 1.351 . S
C655 C649 1.428 . S
C655 N654 1.351 . S
C655 C656 1.434 . S
C656 C647 1.429 . S
C656 N653 1.350 . S
C656 C655 1.434 . S
C657 C658 1.369 . S
C657 C659 1.419 . S
C657 H661 0.930 . S
C658 C657 1.369 . S
C658 C667 1.429 . S
C659 C657 1.419 . S
C659 C660 1.363 . S
C659 H662 0.929 . S
C660 C659 1.363 . S
C660 C666 1.428 . S
H661 C657 0.930 . S
H662 C659 0.929 . S
S663 N664 1.613 1_554 S
S663 N665 1.610 . S
N664 S663 1.613 1_556 S
N664 C667 1.350 . S
N665 S663 1.610 . S
N665 C666 1.351 1_554 S
C666 C660 1.428 . S
C666 N665 1.351 1_556 S
C666 C667 1.434 . S
C667 C658 1.429 . S
C667 N664 1.350 . S
C667 C666 1.434 . S
C668 C669 1.369 . S
C668 C670 1.419 . S
C668 H672 0.930 . S
C669 C668 1.369 . S
C669 C678 1.429 . S
C670 C668 1.419 . S
C670 C671 1.363 . S
C670 H673 0.929 . S
C671 C670 1.363 . S
C671 C677 1.428 . S
H672 C668 0.930 . S
H673 C670 0.929 . S
S674 N675 1.613 . S
S674 N676 1.610 . S
N675 S674 1.613 . S
N675 C678 1.350 . S
N676 S674 1.610 . S
N676 C677 1.351 . S
C677 C671 1.428 . S
C677 N676 1.351 . S
C677 C678 1.434 . S
C678 C669 1.429 . S
C678 N675 1.350 . S
C678 C677 1.434 . S
C679 C680 1.369 . S
C679 C681 1.419 . S
C679 H683 0.930 . S
C680 C679 1.369 . S
C680 C689 1.429 . S
C681 C679 1.419 . S
C681 C682 1.363 . S
C681 H684 0.929 . S
C682 C681 1.363 . S
C682 C688 1.428 . S
H683 C679 0.930 . S
H684 C681 0.929 . S
S685 N686 1.613 . S
S685 N687 1.610 . S
N686 S685 1.613 . S
N686 C689 1.350 . S
N687 S685 1.610 . S
N687 C688 1.351 . S
C688 C682 1.428 . S
C688 N687 1.351 . S
C688 C689 1.434 . S
C689 C680 1.429 . S
C689 N686 1.350 . S
C689 C688 1.434 . S
C690 C691 1.369 . S
C690 C692 1.419 . S
C690 H694 0.930 . S
C691 C690 1.369 . S
C691 C700 1.429 . S
C692 C690 1.419 . S
C692 C693 1.363 . S
C692 H695 0.929 . S
C693 C692 1.363 . S
C693 C699 1.428 . S
H694 C690 0.930 . S
H695 C692 0.929 . S
S696 N697 1.613 . S
S696 N698 1.610 . S
N697 S696 1.613 . S
N697 C700 1.350 . S
N698 S696 1.610 . S
N698 C699 1.351 . S
C699 C693 1.428 . S
C699 N698 1.351 . S
C699 C700 1.434 . S
C700 C691 1.429 . S
C700 N697 1.350 . S
C700 C699 1.434 . S
C701 C702 1.369 . S
C701 C703 1.419 . S
C701 H705 0.930 1_554 S
C702 C701 1.369 . S
C702 C711 1.429 . S
C703 C701 1.419 . S
C703 C704 1.363 . S
C703 H706 0.929 . S
C704 C703 1.363 . S
C704 C710 1.428 . S
H705 C701 0.930 1_556 S
H706 C703 0.929 . S
S707 N708 1.613 . S
S707 N709 1.610 . S
N708 S707 1.613 . S
N708 C711 1.350 . S
N709 S707 1.610 . S
N709 C710 1.351 . S
C710 C704 1.428 . S
C710 N709 1.351 . S
C710 C711 1.434 . S
C711 C702 1.429 . S
C711 N708 1.350 . S
C711 C710 1.434 . S
C712 C713 1.369 . S
C712 C714 1.419 . S
C712 H716 0.930 . S
C713 C712 1.369 . S
C713 C722 1.429 . S
C714 C712 1.419 . S
C714 C715 1.363 . S
C714 H717 0.929 . S
C715 C714 1.363 . S
C715 C721 1.428 . S
H716 C712 0.930 . S
H717 C714 0.929 . S
S718 N719 1.613 . S
S718 N720 1.610 . S
N719 S718 1.613 . S
N719 C722 1.350 . S
N720 S718 1.610 . S
N720 C721 1.351 . S
C721 C715 1.428 . S
C721 N720 1.351 . S
C721 C722 1.434 . S
C722 C713 1.429 . S
C722 N719 1.350 . S
C722 C721 1.434 . S
C723 C724 1.369 . S
C723 C725 1.419 . S
C723 H727 0.930 1_556 S
C724 C723 1.369 . S
C724 C733 1.429 . S
C725 C723 1.419 . S
C725 C726 1.363 . S
C725 H728 0.929 . S
C726 C725 1.363 . S
C726 C732 1.428 . S
H727 C723 0.930 1_554 S
H728 C725 0.929 . S
S729 N730 1.613 . S
S729 N731 1.610 . S
N730 S729 1.613 . S
N730 C733 1.350 . S
N731 S729 1.610 . S
N731 C732 1.351 . S
C732 C726 1.428 . S
C732 N731 1.351 . S
C732 C733 1.434 . S
C733 C724 1.429 . S
C733 N730 1.350 . S
C733 C732 1.434 . S
C734 C735 1.369 . S
C734 C736 1.419 . S
C734 H738 0.930 . S
C735 C734 1.369 . S
C735 C744 1.429 . S
C736 C734 1.419 . S
C736 C737 1.363 . S
C736 H739 0.929 1_554 S
C737 C736 1.363 . S
C737 C743 1.428 . S
H738 C734 0.930 . S
H739 C736 0.929 1_556 S
S740 N741 1.613 . S
S740 N742 1.610 . S
N741 S740 1.613 . S
N741 C744 1.350 . S
N742 S740 1.610 . S
N742 C743 1.351 . S
C743 C737 1.428 . S
C743 N742 1.351 . S
C743 C744 1.434 . S
C744 C735 1.429 . S
C744 N741 1.350 . S
C744 C743 1.434 . S
C745 C746 1.369 . S
C745 C747 1.419 . S
C745 H749 0.930 . S
C746 C745 1.369 . S
C746 C755 1.429 . S
C747 C745 1.419 . S
C747 C748 1.363 . S
C747 H750 0.929 . S
C748 C747 1.363 . S
C748 C754 1.428 . S
H749 C745 0.930 . S
H750 C747 0.929 . S
S751 N752 1.613 . S
S751 N753 1.610 . S
N752 S751 1.613 . S
N752 C755 1.350 . S
N753 S751 1.610 . S
N753 C754 1.351 . S
C754 C748 1.428 . S
C754 N753 1.351 . S
C754 C755 1.434 . S
C755 C746 1.429 . S
C755 N752 1.350 . S
C755 C754 1.434 . S
C756 C757 1.369 . S
C756 C758 1.419 . S
C756 H760 0.930 . S
C757 C756 1.369 . S
C757 C766 1.429 . S
C758 C756 1.419 . S
C758 C759 1.363 . S
C758 H761 0.929 . S
C759 C758 1.363 . S
C759 C765 1.428 . S
H760 C756 0.930 . S
H761 C758 0.929 . S
S762 N763 1.613 . S
S762 N764 1.610 . S
N763 S762 1.613 . S
N763 C766 1.350 . S
N764 S762 1.610 . S
N764 C765 1.351 . S
C765 C759 1.428 . S
C765 N764 1.351 . S
C765 C766 1.434 . S
C766 C757 1.429 . S
C766 N763 1.350 . S
C766 C765 1.434 . S
C767 C768 1.369 . S
C767 C769 1.419 . S
C767 H771 0.930 . S
C768 C767 1.369 . S
C768 C777 1.429 . S
C769 C767 1.419 . S
C769 C770 1.363 . S
C769 H772 0.929 . S
C770 C769 1.363 . S
C770 C776 1.428 . S
H771 C767 0.930 . S
H772 C769 0.929 . S
S773 N774 1.613 . S
S773 N775 1.610 . S
N774 S773 1.613 . S
N774 C777 1.350 . S
N775 S773 1.610 . S
N775 C776 1.351 . S
C776 C770 1.428 . S
C776 N775 1.351 . S
C776 C777 1.434 . S
C777 C768 1.429 . S
C777 N774 1.350 . S
C777 C776 1.434 . S
C778 C779 1.369 . S
C778 C780 1.419 . S
C778 H782 0.930 . S
C779 C778 1.369 . S
C779 C788 1.429 . S
C780 C778 1.419 . S
C780 C781 1.363 . S
C780 H783 0.929 . S
C781 C780 1.363 . S
C781 C787 1.428 . S
H782 C778 0.930 . S
H783 C780 0.929 . S
S784 N785 1.613 1_554 S
S784 N786 1.610 . S
N785 S784 1.613 1_556 S
N785 C788 1.350 . S
N786 S784 1.610 . S
N786 C787 1.351 1_554 S
C787 C781 1.428 . S
C787 N786 1.351 1_556 S
C787 C788 1.434 . S
C788 C779 1.429 . S
C788 N785 1.350 . S
C788 C787 1.434 . S
C789 C790 1.369 . S
C789 C791 1.419 . S
C789 H793 0.930 . S
C790 C789 1.369 . S
C790 C799 1.429 . S
C791 C789 1.419 . S
C791 C792 1.363 . S
C791 H794 0.929 . S
C792 C791 1.363 . S
C792 C798 1.428 . S
H793 C789 0.930 . S
H794 C791 0.929 . S
S795 N796 1.613 . S
S795 N797 1.610 . S
N796 S795 1.613 . S
N796 C799 1.350 . S
N797 S795 1.610 . S
N797 C798 1.351 . S
C798 C792 1.428 . S
C798 N797 1.351 . S
C798 C799 1.434 . S
C799 C790 1.429 . S
C799 N796 1.350 . S
C799 C798 1.434 . S
C800 C801 1.369 1_554 S
C800 C802 1.419 1_554 S
C800 H804 0.930 . S
C801 C800 1.369 1_556 S
C801 C810 1.429 . S
C802 C800 1.419 1_556 S
C802 C803 1.363 . S
C802 H805 0.929 1_556 S
C803 C802 1.363 . S
C803 C809 1.428 . S
H804 C800 0.930 . S
H805 C802 0.929 1_554 S
S806 N807 1.613 . S
S806 N808 1.610 . S
N807 S806 1.613 . S
N807 C810 1.350 . S
N808 S806 1.610 . S
N808 C809 1.351 . S
C809 C803 1.428 . S
C809 N808 1.351 . S
C809 C810 1.434 . S
C810 C801 1.429 . S
C810 N807 1.350 . S
C810 C809 1.434 . S
C811 C812 1.369 . S
C811 C813 1.419 1_655 S
C811 H815 0.930 . S
C812 C811 1.369 . S
C812 C821 1.429 . S
C813 C811 1.419 1_455 S
C813 C814 1.363 . S
C813 H816 0.929 . S
C814 C813 1.363 . S
C814 C820 1.428 . S
H815 C811 0.930 . S
H816 C813 0.929 . S
S817 N818 1.613 . S
S817 N819 1.610 1_655 S
N818 S817 1.613 . S
N818 C821 1.350 . S
N819 S817 1.610 1_455 S
N819 C820 1.351 . S
C820 C814 1.428 . S
C820 N819 1.351 . S
C820 C821 1.434 1_455 S
C821 C812 1.429 . S
C821 N818 1.350 . S
C821 C820 1.434 1_655 S
C822 C823 1.369 . S
C822 C824 1.419 . S
C822 H826 0.930 . S
C823 C822 1.369 . S
C823 C832 1.429 . S
C824 C822 1.419 . S
C824 C825 1.363 . S
C824 H827 0.929 . S
C825 C824 1.363 . S
C825 C831 1.428 . S
H826 C822 0.930 . S
H827 C824 0.929 . S
S828 N829 1.613 . S
S828 N830 1.610 . S
N829 S828 1.613 . S
N829 C832 1.350 . S
N830 S828 1.610 . S
N830 C831 1.351 . S
C831 C825 1.428 . S
C831 N830 1.351 . S
C831 C832 1.434 . S
C832 C823 1.429 . S
C832 N829 1.350 . S
C832 C831 1.434 . S
C833 C834 1.369 . S
C833 C835 1.419 . S
C833 H837 0.930 . S
C834 C833 1.369 . S
C834 C843 1.429 . S
C835 C833 1.419 . S
C835 C836 1.363 . S
C835 H838 0.929 . S
C836 C835 1.363 . S
C836 C842 1.428 . S
H837 C833 0.930 . S
H838 C835 0.929 . S
S839 N840 1.613 . S
S839 N841 1.610 . S
N840 S839 1.613 . S
N840 C843 1.350 . S
N841 S839 1.610 . S
N841 C842 1.351 . S
C842 C836 1.428 . S
C842 N841 1.351 . S
C842 C843 1.434 . S
C843 C834 1.429 . S
C843 N840 1.350 . S
C843 C842 1.434 . S
C844 C845 1.369 . S
C844 C846 1.419 . S
C844 H848 0.930 . S
C845 C844 1.369 . S
C845 C854 1.429 . S
C846 C844 1.419 . S
C846 C847 1.363 . S
C846 H849 0.929 . S
C847 C846 1.363 . S
C847 C853 1.428 . S
H848 C844 0.930 . S
H849 C846 0.929 . S
S850 N851 1.613 . S
S850 N852 1.610 . S
N851 S850 1.613 . S
N851 C854 1.350 . S
N852 S850 1.610 . S
N852 C853 1.351 . S
C853 C847 1.428 . S
C853 N852 1.351 . S
C853 C854 1.434 . S
C854 C845 1.429 . S
C854 N851 1.350 . S
C854 C853 1.434 . S
C855 C856 1.369 . S
C855 C857 1.419 . S
C855 H859 0.930 . S
C856 C855 1.369 . S
C856 C865 1.429 . S
C857 C855 1.419 . S
C857 C858 1.363 . S
C857 H860 0.929 . S
C858 C857 1.363 . S
C858 C864 1.428 . S
H859 C855 0.930 . S
H860 C857 0.929 . S
S861 N862 1.613 1_554 S
S861 N863 1.610 1_554 S
N862 S861 1.613 1_556 S
N862 C865 1.350 . S
N863 S861 1.610 1_556 S
N863 C864 1.351 . S
C864 C858 1.428 . S
C864 N863 1.351 . S
C864 C865 1.434 . S
C865 C856 1.429 . S
C865 N862 1.350 . S
C865 C864 1.434 . S
C866 C867 1.369 1_556 S
C866 C868 1.419 1_556 S
C866 H870 0.930 . S
C867 C866 1.369 1_554 S
C867 C876 1.429 . S
C868 C866 1.419 1_554 S
C868 C869 1.363 . S
C868 H871 0.929 1_554 S
C869 C868 1.363 . S
C869 C875 1.428 . S
H870 C866 0.930 . S
H871 C868 0.929 1_556 S
S872 N873 1.613 . S
S872 N874 1.610 . S
N873 S872 1.613 . S
N873 C876 1.350 . S
N874 S872 1.610 . S
N874 C875 1.351 . S
C875 C869 1.428 . S
C875 N874 1.351 . S
C875 C876 1.434 . S
C876 C867 1.429 . S
C876 N873 1.350 . S
C876 C875 1.434 . S
C877 C878 1.369 . S
C877 C879 1.419 1_455 S
C877 H881 0.930 . S
C878 C877 1.369 . S
C878 C887 1.429 . S
C879 C877 1.419 1_655 S
C879 C880 1.363 . S
C879 H882 0.929 . S
C880 C879 1.363 . S
C880 C886 1.428 . S
H881 C877 0.930 . S
H882 C879 0.929 . S
S883 N884 1.647 . S
S883 N885 1.575 1_455 S
N884 S883 1.647 . S
N884 C887 1.350 . S
N885 S883 1.575 1_655 S
N885 C886 1.351 . S
C886 C880 1.428 . S
C886 N885 1.351 . S
C886 C887 1.434 1_655 S
C887 C878 1.429 . S
C887 N884 1.350 . S
C887 C886 1.434 1_455 S
C888 C889 1.369 . S
C888 C890 1.419 . S
C888 H892 0.930 . S
C889 C888 1.369 . S
C889 C898 1.429 1_554 S
C890 C888 1.419 . S
C890 C891 1.363 . S
C890 H893 0.929 . S
C891 C890 1.363 . S
C891 C897 1.428 . S
H892 C888 0.930 . S
H893 C890 0.929 . S
S894 N895 1.613 . S
S894 N896 1.610 . S
N895 S894 1.613 . S
N895 C898 1.350 . S
N896 S894 1.610 . S
N896 C897 1.351 1_556 S
C897 C891 1.428 . S
C897 N896 1.351 1_554 S
C897 C898 1.434 1_554 S
C898 C889 1.429 1_556 S
C898 N895 1.350 . S
C898 C897 1.434 1_556 S
C899 C900 1.369 . S
C899 C901 1.394 1_455 S
C899 H903 0.930 . S
C900 C899 1.369 . S
C900 C909 1.429 . S
C901 C899 1.394 1_655 S
C901 C902 1.387 . S
C901 H904 0.929 . S
C902 C901 1.387 . S
C902 C908 1.428 . S
H903 C899 0.930 . S
H904 C901 0.929 . S
S905 N906 1.616 . S
S905 N907 1.610 . S
N906 S905 1.616 . S
N906 C909 1.350 1_655 S
N907 S905 1.610 . S
N907 C908 1.351 . S
C908 C902 1.428 . S
C908 N907 1.351 . S
C908 C909 1.434 1_655 S
C909 C900 1.429 . S
C909 N906 1.350 1_455 S
C909 C908 1.434 1_455 S
C910 C911 1.369 . S
C910 C912 1.419 . S
C910 H914 0.930 . S
C911 C910 1.369 . S
C911 C920 1.429 . S
C912 C910 1.419 . S
C912 C913 1.363 . S
C912 H915 0.929 . S
C913 C912 1.363 . S
C913 C919 1.428 . S
H914 C910 0.930 . S
H915 C912 0.929 . S
S916 N917 1.613 . S
S916 N918 1.610 . S
N917 S916 1.613 . S
N917 C920 1.350 . S
N918 S916 1.610 . S
N918 C919 1.351 . S
C919 C913 1.428 . S
C919 N918 1.351 . S
C919 C920 1.434 . S
C920 C911 1.429 . S
C920 N917 1.350 . S
C920 C919 1.434 . S
C921 C922 1.369 . S
C921 C923 1.419 . S
C921 H925 0.930 . S
C922 C921 1.369 . S
C922 C931 1.429 . S
C923 C921 1.419 . S
C923 C924 1.363 . S
C923 H926 0.929 . S
C924 C923 1.363 . S
C924 C930 1.428 . S
H925 C921 0.930 . S
H926 C923 0.929 . S
S927 N928 1.613 . S
S927 N929 1.610 . S
N928 S927 1.613 . S
N928 C931 1.350 . S
N929 S927 1.610 . S
N929 C930 1.351 . S
C930 C924 1.428 . S
C930 N929 1.351 . S
C930 C931 1.434 . S
C931 C922 1.429 . S
C931 N928 1.350 . S
C931 C930 1.434 . S
C932 C933 1.369 . S
C932 C934 1.419 . S
C932 H936 0.930 . S
C933 C932 1.369 . S
C933 C942 1.429 . S
C934 C932 1.419 . S
C934 C935 1.363 . S
C934 H937 0.929 . S
C935 C934 1.363 . S
C935 C941 1.428 . S
H936 C932 0.930 . S
H937 C934 0.929 . S
S938 N939 1.613 . S
S938 N940 1.610 . S
N939 S938 1.613 . S
N939 C942 1.350 . S
N940 S938 1.610 . S
N940 C941 1.351 . S
C941 C935 1.428 . S
C941 N940 1.351 . S
C941 C942 1.434 . S
C942 C933 1.429 . S
C942 N939 1.350 . S
C942 C941 1.434 . S
C943 C944 1.369 . S
C943 C945 1.419 . S
C943 H947 0.930 . S
C944 C943 1.369 . S
C944 C953 1.429 . S
C945 C943 1.419 . S
C945 C946 1.363 . S
C945 H948 0.929 . S
C946 C945 1.363 . S
C946 C952 1.428 . S
H947 C943 0.930 . S
H948 C945 0.929 . S
S949 N950 1.613 1_556 S
S949 N951 1.610 1_556 S
N950 S949 1.613 1_554 S
N950 C953 1.350 . S
N951 S949 1.610 1_554 S
N951 C952 1.351 . S
C952 C946 1.428 . S
C952 N951 1.351 . S
C952 C953 1.434 . S
C953 C944 1.429 . S
C953 N950 1.350 . S
C953 C952 1.434 . S
C954 C955 1.369 1_554 S
C954 C956 1.415 1_554 S
C954 H958 0.935 . S
C955 C954 1.369 1_556 S
C955 C964 1.429 . S
C956 C954 1.415 1_556 S
C956 C957 1.363 . S
C956 H959 0.929 . S
C957 C956 1.363 . S
C957 C963 1.428 . S
H958 C954 0.935 . S
H959 C956 0.929 . S
S960 N961 1.613 . S
S960 N962 1.610 . S
N961 S960 1.613 . S
N961 C964 1.350 . S
N962 S960 1.610 . S
N962 C963 1.351 . S
C963 C957 1.428 . S
C963 N962 1.351 . S
C963 C964 1.434 . S
C964 C955 1.429 . S
C964 N961 1.350 . S
C964 C963 1.434 . S
C965 C966 1.369 . S
C965 C967 1.419 1_455 S
C965 H969 0.930 . S
C966 C965 1.369 . S
C966 C975 1.429 . S
C967 C965 1.419 1_655 S
C967 C968 1.363 . S
C967 H970 0.929 . S
C968 C967 1.363 . S
C968 C974 1.428 . S
H969 C965 0.930 . S
H970 C967 0.929 . S
S971 N972 1.613 1_655 S
S971 N973 1.610 . S
N972 S971 1.613 1_455 S
N972 C975 1.350 . S
N973 S971 1.610 . S
N973 C974 1.351 . S
C974 C968 1.428 . S
C974 N973 1.351 . S
C974 C975 1.434 1_655 S
C975 C966 1.429 . S
C975 N972 1.350 . S
C975 C974 1.434 1_455 S
C976 C977 1.369 . S
C976 C978 1.419 . S
C976 H980 0.930 . S
C977 C976 1.369 . S
C977 C986 1.429 . S
C978 C976 1.419 . S
C978 C979 1.363 . S
C978 H981 0.929 . S
C979 C978 1.363 . S
C979 C985 1.428 . S
H980 C976 0.930 . S
H981 C978 0.929 . S
S982 N983 1.613 . S
S982 N984 1.610 . S
N983 S982 1.613 . S
N983 C986 1.350 . S
N984 S982 1.610 . S
N984 C985 1.351 . S
C985 C979 1.428 . S
C985 N984 1.351 . S
C985 C986 1.434 . S
C986 C977 1.429 . S
C986 N983 1.350 . S
C986 C985 1.434 . S
C987 C988 1.369 . S
C987 C989 1.419 . S
C987 H991 0.930 . S
C988 C987 1.369 . S
C988 C997 1.429 . S
C989 C987 1.419 . S
C989 C990 1.363 . S
C989 H992 0.929 . S
C990 C989 1.363 . S
C990 C996 1.428 . S
H991 C987 0.930 . S
H992 C989 0.929 . S
S993 N994 1.613 . S
S993 N995 1.610 . S
N994 S993 1.613 . S
N994 C997 1.350 . S
N995 S993 1.610 . S
N995 C996 1.351 . S
C996 C990 1.428 . S
C996 N995 1.351 . S
C996 C997 1.434 . S
C997 C988 1.429 . S
C997 N994 1.350 . S
C997 C996 1.434 . S
C998 C999 1.369 1_554 S
C998 C1000 1.419 1_554 S
C998 H1002 0.930 . S
C999 C998 1.369 1_556 S
C999 C1008 1.429 . S
C1000 C998 1.419 1_556 S
C1000 C1001 1.363 . S
C1000 H1003 0.929 . S
C1001 C1000 1.363 . S
C1001 C1007 1.428 . S
H1002 C998 0.930 . S
H1003 C1000 0.929 . S
S1004 N1005 1.613 . S
S1004 N1006 1.610 . S
N1005 S1004 1.613 . S
N1005 C1008 1.350 . S
N1006 S1004 1.610 . S
N1006 C1007 1.351 . S
C1007 C1001 1.428 . S
C1007 N1006 1.351 . S
C1007 C1008 1.434 . S
C1008 C999 1.429 . S
C1008 N1005 1.350 . S
C1008 C1007 1.434 . S
C1009 C1010 1.369 . S
C1009 C1011 1.419 1_655 S
C1009 H1013 0.930 . S
C1010 C1009 1.369 . S
C1010 C1019 1.429 . S
C1011 C1009 1.419 1_455 S
C1011 C1012 1.363 . S
C1011 H1014 0.929 . S
C1012 C1011 1.363 . S
C1012 C1018 1.428 . S
H1013 C1009 0.930 . S
H1014 C1011 0.929 . S
S1015 N1016 1.613 . S
S1015 N1017 1.610 1_655 S
N1016 S1015 1.613 . S
N1016 C1019 1.350 . S
N1017 S1015 1.610 1_455 S
N1017 C1018 1.351 . S
C1018 C1012 1.428 . S
C1018 N1017 1.351 . S
C1018 C1019 1.434 1_455 S
C1019 C1010 1.429 . S
C1019 N1016 1.350 . S
C1019 C1018 1.434 1_655 S
C1020 C1021 1.369 . S
C1020 C1022 1.419 . S
C1020 H1024 0.930 . S
C1021 C1020 1.369 . S
C1021 C1030 1.429 . S
C1022 C1020 1.419 . S
C1022 C1023 1.363 . S
C1022 H1025 0.929 . S
C1023 C1022 1.363 . S
C1023 C1029 1.428 . S
H1024 C1020 0.930 . S
H1025 C1022 0.929 . S
S1026 N1027 1.613 1_554 S
S1026 N1028 1.610 . S
N1027 S1026 1.613 1_556 S
N1027 C1030 1.350 1_556 S
N1028 S1026 1.610 . S
N1028 C1029 1.351 . S
C1029 C1023 1.428 . S
C1029 N1028 1.351 . S
C1029 C1030 1.434 . S
C1030 C1021 1.429 . S
C1030 N1027 1.350 1_554 S
C1030 C1029 1.434 . S
C1031 C1032 1.349 1_455 S
C1031 C1033 1.438 . S
C1031 H1035 0.930 . S
C1032 C1031 1.349 1_655 S
C1032 C1041 1.429 . S
C1033 C1031 1.438 . S
C1033 C1034 1.363 . S
C1033 H1036 0.929 . S
C1034 C1033 1.363 . S
C1034 C1040 1.475 . S
H1035 C1031 0.930 . S
H1036 C1033 0.929 . S
S1037 N1038 1.613 . S
S1037 N1039 1.610 . S
N1038 S1037 1.613 . S
N1038 C1041 1.350 . S
N1039 S1037 1.610 . S
N1039 C1040 1.346 1_655 S
C1040 C1034 1.475 . S
C1040 N1039 1.346 1_455 S
C1040 C1041 1.388 1_455 S
C1041 C1032 1.429 . S
C1041 N1038 1.350 . S
C1041 C1040 1.388 1_655 S
C1042 C1043 1.369 . S
C1042 C1044 1.419 . S
C1042 H1046 0.930 . S
C1043 C1042 1.369 . S
C1043 C1052 1.429 . S
C1044 C1042 1.419 . S
C1044 C1045 1.363 . S
C1044 H1047 0.929 . S
C1045 C1044 1.363 . S
C1045 C1051 1.428 . S
H1046 C1042 0.930 . S
H1047 C1044 0.929 . S
S1048 N1049 1.613 . S
S1048 N1050 1.610 . S
N1049 S1048 1.613 . S
N1049 C1052 1.350 . S
N1050 S1048 1.610 . S
N1050 C1051 1.351 . S
C1051 C1045 1.428 . S
C1051 N1050 1.351 . S
C1051 C1052 1.434 . S
C1052 C1043 1.429 . S
C1052 N1049 1.350 . S
C1052 C1051 1.434 . S
C1053 C1054 1.369 . S
C1053 C1055 1.419 . S
C1053 H1057 0.930 . S
C1054 C1053 1.369 . S
C1054 C1063 1.429 . S
C1055 C1053 1.419 . S
C1055 C1056 1.363 . S
C1055 H1058 0.929 . S
C1056 C1055 1.363 . S
C1056 C1062 1.428 . S
H1057 C1053 0.930 . S
H1058 C1055 0.929 . S
S1059 N1060 1.613 . S
S1059 N1061 1.610 . S
N1060 S1059 1.613 . S
N1060 C1063 1.350 . S
N1061 S1059 1.610 . S
N1061 C1062 1.351 . S
C1062 C1056 1.428 . S
C1062 N1061 1.351 . S
C1062 C1063 1.434 . S
C1063 C1054 1.429 . S
C1063 N1060 1.350 . S
C1063 C1062 1.434 . S
C1064 C1065 1.369 . S
C1064 C1066 1.419 . S
C1064 H1068 0.930 . S
C1065 C1064 1.369 . S
C1065 C1074 1.429 . S
C1066 C1064 1.419 . S
C1066 C1067 1.363 . S
C1066 H1069 0.929 . S
C1067 C1066 1.363 . S
C1067 C1073 1.428 . S
H1068 C1064 0.930 . S
H1069 C1066 0.929 . S
S1070 N1071 1.613 . S
S1070 N1072 1.610 . S
N1071 S1070 1.613 . S
N1071 C1074 1.350 . S
N1072 S1070 1.610 . S
N1072 C1073 1.351 . S
C1073 C1067 1.428 . S
C1073 N1072 1.351 . S
C1073 C1074 1.434 . S
C1074 C1065 1.429 . S
C1074 N1071 1.350 . S
C1074 C1073 1.434 . S
C1075 C1076 1.369 . S
C1075 C1077 1.419 . S
C1075 H1079 0.930 . S
C1076 C1075 1.369 . S
C1076 C1085 1.429 . S
C1077 C1075 1.419 . S
C1077 C1078 1.363 . S
C1077 H1080 0.929 . S
C1078 C1077 1.363 . S
C1078 C1084 1.428 . S
H1079 C1075 0.930 . S
H1080 C1077 0.929 . S
S1081 N1082 1.613 . S
S1081 N1083 1.610 . S
N1082 S1081 1.613 . S
N1082 C1085 1.350 . S
N1083 S1081 1.610 . S
N1083 C1084 1.351 . S
C1084 C1078 1.428 . S
C1084 N1083 1.351 . S
C1084 C1085 1.434 . S
C1085 C1076 1.429 . S
C1085 N1082 1.350 . S
C1085 C1084 1.434 . S
C1086 C1087 1.369 . S
C1086 C1088 1.419 1_554 S
C1086 H1090 0.930 1_554 S
C1087 C1086 1.369 . S
C1087 C1096 1.429 . S
C1088 C1086 1.419 1_556 S
C1088 C1089 1.363 1_556 S
C1088 H1091 0.929 . S
C1089 C1088 1.363 1_554 S
C1089 C1095 1.428 . S
H1090 C1086 0.930 1_556 S
H1091 C1088 0.929 . S
S1092 N1093 1.613 . S
S1092 N1094 1.610 . S
N1093 S1092 1.613 . S
N1093 C1096 1.350 . S
N1094 S1092 1.610 . S
N1094 C1095 1.351 . S
C1095 C1089 1.428 . S
C1095 N1094 1.351 . S
C1095 C1096 1.434 . S
C1096 C1087 1.429 . S
C1096 N1093 1.350 . S
C1096 C1095 1.434 . S
C1097 C1098 1.369 . S
C1097 C1099 1.419 1_455 S
C1097 H1101 0.930 . S
C1098 C1097 1.369 . S
C1098 C1107 1.429 1_455 S
C1099 C1097 1.419 1_655 S
C1099 C1100 1.363 . S
C1099 H1102 0.932 . S
C1100 C1099 1.363 . S
C1100 C1106 1.428 . S
H1101 C1097 0.930 . S
H1102 C1099 0.932 . S
S1103 N1104 1.613 . S
S1103 N1105 1.610 . S
N1104 S1103 1.613 . S
N1104 C1107 1.350 . S
N1105 S1103 1.610 . S
N1105 C1106 1.351 . S
C1106 C1100 1.428 . S
C1106 N1105 1.351 . S
C1106 C1107 1.434 . S
C1107 C1098 1.429 1_655 S
C1107 N1104 1.350 . S
C1107 C1106 1.434 . S
C1108 C1109 1.369 . S
C1108 C1110 1.419 . S
C1108 H1112 0.930 . S
C1109 C1108 1.369 . S
C1109 C1118 1.429 1_556 S
C1110 C1108 1.419 . S
C1110 C1111 1.363 . S
C1110 H1113 0.929 . S
C1111 C1110 1.363 . S
C1111 C1117 1.428 1_556 S
H1112 C1108 0.930 . S
H1113 C1110 0.929 . S
S1114 N1115 1.613 . S
S1114 N1116 1.610 . S
N1115 S1114 1.613 . S
N1115 C1118 1.350 . S
N1116 S1114 1.610 . S
N1116 C1117 1.351 . S
C1117 C1111 1.428 1_554 S
C1117 N1116 1.351 . S
C1117 C1118 1.434 . S
C1118 C1109 1.429 1_554 S
C1118 N1115 1.350 . S
C1118 C1117 1.434 . S
C1119 C1120 1.369 . S
C1119 C1121 1.419 1_655 S
C1119 H1123 0.930 . S
C1120 C1119 1.369 . S
C1120 C1129 1.429 . S
C1121 C1119 1.419 1_455 S
C1121 C1122 1.363 . S
C1121 H1124 0.929 . S
C1122 C1121 1.363 . S
C1122 C1128 1.387 1_455 S
H1123 C1119 0.930 . S
H1124 C1121 0.929 . S
S1125 N1126 1.613 . S
S1125 N1127 1.610 . S
N1126 S1125 1.613 . S
N1126 C1129 1.350 . S
N1127 S1125 1.610 . S
N1127 C1128 1.357 . S
C1128 C1122 1.387 1_655 S
C1128 N1127 1.357 . S
C1128 C1129 1.475 . S
C1129 C1120 1.429 . S
C1129 N1126 1.350 . S
C1129 C1128 1.475 . S
C1130 C1131 1.369 . S
C1130 C1132 1.419 . S
C1130 H1134 0.930 . S
C1131 C1130 1.369 . S
C1131 C1140 1.429 . S
C1132 C1130 1.419 . S
C1132 C1133 1.363 . S
C1132 H1135 0.929 . S
C1133 C1132 1.363 . S
C1133 C1139 1.428 . S
H1134 C1130 0.930 . S
H1135 C1132 0.929 . S
S1136 N1137 1.613 . S
S1136 N1138 1.610 . S
N1137 S1136 1.613 . S
N1137 C1140 1.350 . S
N1138 S1136 1.610 . S
N1138 C1139 1.351 . S
C1139 C1133 1.428 . S
C1139 N1138 1.351 . S
C1139 C1140 1.434 . S
C1140 C1131 1.429 . S
C1140 N1137 1.350 . S
C1140 C1139 1.434 . S
C1141 C1142 1.369 . S
C1141 C1143 1.419 . S
C1141 H1145 0.930 . S
C1142 C1141 1.369 . S
C1142 C1151 1.429 . S
C1143 C1141 1.419 . S
C1143 C1144 1.363 . S
C1143 H1146 0.929 . S
C1144 C1143 1.363 . S
C1144 C1150 1.428 . S
H1145 C1141 0.930 . S
H1146 C1143 0.929 . S
S1147 N1148 1.613 . S
S1147 N1149 1.610 . S
N1148 S1147 1.613 . S
N1148 C1151 1.350 . S
N1149 S1147 1.610 . S
N1149 C1150 1.351 . S
C1150 C1144 1.428 . S
C1150 N1149 1.351 . S
C1150 C1151 1.434 . S
C1151 C1142 1.429 . S
C1151 N1148 1.350 . S
C1151 C1150 1.434 . S
C449 C89 1.689 . S
C451 C5 1.685 . S
C460 C19 1.631 . S
C462 C103 1.625 . S
C471 C61 1.683 . S
C473 C33 1.687 . S
C482 C47 1.631 . S
C484 C75 1.625 . S
C493 C201 1.683 . S
C495 C117 1.685 . S
C504 C131 1.626 . S
C506 C215 1.630 . S
C515 C173 1.685 . S
C517 C145 1.688 . S
C526 C159 1.625 . S
C528 C187 1.626 . S
C537 C229 1.683 . S
C539 C313 1.686 . S
C548 C327 1.628 . S
C550 C243 1.630 . S
C559 C257 1.684 . S
C561 C285 1.684 . S
C570 C299 1.631 . S
C572 C271 1.630 . S
C581 C425 1.687 . S
C583 C341 1.689 . S
C592 C439 1.629 . S
C594 C355 1.630 . S
C603 C397 1.683 . S
C605 C369 1.687 . S
C614 C383 1.625 . S
C616 C411 1.628 . S
C625 C109 1.200 . S
C627 C11 1.193 . S
C636 C67 1.194 . S
C638 C25 1.190 . S
C647 C81 1.197 . S
C649 C39 1.193 . S
C658 C95 1.184 . S
C660 C53 1.195 . S
C669 C221 1.189 . S
C671 C123 1.190 . S
C680 C179 1.183 . S
C682 C137 1.193 . S
C691 C193 1.194 . S
C693 C151 1.194 . S
C702 C165 1.194 . S
C704 C207 1.195 . S
C713 C333 1.188 . S
C715 C235 1.188 . S
C724 C249 1.189 . S
C726 C291 1.191 . S
C735 C263 1.195 . S
C737 C305 1.192 . S
C746 C319 1.191 . S
C748 C277 1.198 . S
C757 C445 1.196 . S
C759 C347 1.185 . S
C768 C361 1.201 . S
C770 C403 1.191 . S
C779 C375 1.189 . S
C781 C417 1.200 . S
C790 C431 1.191 . S
C792 C389 1.198 . S
C801 C12 1.185 1_556 S
C803 C424 1.166 . S
C812 C214 1.140 . S
C814 C26 1.141 . S
C823 C396 1.165 . S
C825 C40 1.184 . S
C834 C186 1.153 . S
C836 C54 1.158 . S
C845 C368 1.165 . S
C847 C68 1.185 . S
C856 C82 1.153 . S
C858 C158 1.127 . S
C867 C96 1.184 1_554 S
C869 C340 1.168 . S
C878 C110 1.157 . S
C880 C130 1.151 . S
C889 C124 1.172 1_554 S
C891 C312 1.176 . S
C900 C102 1.129 . S
C902 C138 1.147 . S
C911 C284 1.176 . S
C913 C152 1.178 . S
C922 C74 1.142 . S
C924 C166 1.165 . S
C933 C256 1.174 . S
C935 C180 1.180 . S
C944 C46 1.126 . S
C946 C194 1.151 . S
C955 C208 1.185 1_556 S
C957 C228 1.167 . S
C966 C18 1.151 . S
C968 C222 1.159 . S
C977 C200 1.175 . S
C979 C236 1.178 . S
C988 C438 1.141 . S
C990 C250 1.166 . S
C999 C264 1.182 1_556 S
C1001 C172 1.169 . S
C1010 C278 1.143 . S
C1012 C410 1.135 . S
C1021 C292 1.177 1_554 S
C1023 C144 1.172 . S
C1032 C306 1.167 . S
C1034 C382 1.143 . S
C1043 C320 1.176 . S
C1045 C116 1.175 . S
C1054 C334 1.152 . S
C1056 C354 1.127 . S
C1065 C88 1.166 . S
C1067 C348 1.185 . S
C1076 C326 1.154 . S
C1078 C362 1.158 . S
C1087 C60 1.164 . S
C1089 C376 1.183 1_554 S
C1098 C390 1.147 . S
C1100 C298 1.133 . S
C1109 C404 1.175 1_556 S
C1111 C32 1.176 . S
C1120 C270 1.155 . S
C1122 C418 1.157 . S
C1131 C432 1.181 . S
C1133 C4 1.169 . S
C1142 C446 1.143 . S
C1144 C242 1.134 . S
