# Generated by pormake.
# Topology atn, (4)-cn, num edge types: 1
# Building blocks:
#     Node 0, Type 0, BuildingBlock: ICAMEG_clean_sbu_1, # of connection points: 4
#     Node 1, Type 0, BuildingBlock: ICAMEG_clean_sbu_1, # of connection points: 4
#     Node 2, Type 0, BuildingBlock: ICAMEG_clean_sbu_1, # of connection points: 4
#     Node 3, Type 0, BuildingBlock: ICAMEG_clean_sbu_1, # of connection points: 4
#     Node 4, Type 0, BuildingBlock: ICAMEG_clean_sbu_1, # of connection points: 4
#     Node 5, Type 0, BuildingBlock: ICAMEG_clean_sbu_1, # of connection points: 4
#     Node 6, Type 0, BuildingBlock: ICAMEG_clean_sbu_1, # of connection points: 4
#     Node 7, Type 0, BuildingBlock: ICAMEG_clean_sbu_1, # of connection points: 4
#     Node 8, Type 0, BuildingBlock: ICAMEG_clean_sbu_1, # of connection points: 4
#     Node 9, Type 0, BuildingBlock: ICAMEG_clean_sbu_1, # of connection points: 4
#     Node 10, Type 0, BuildingBlock: ICAMEG_clean_sbu_1, # of connection points: 4
#     Node 11, Type 0, BuildingBlock: ICAMEG_clean_sbu_1, # of connection points: 4
#     Node 12, Type 0, BuildingBlock: ICAMEG_clean_sbu_1, # of connection points: 4
#     Node 13, Type 0, BuildingBlock: ICAMEG_clean_sbu_1, # of connection points: 4
#     Node 14, Type 0, BuildingBlock: ICAMEG_clean_sbu_1, # of connection points: 4
#     Node 15, Type 0, BuildingBlock: ICAMEG_clean_sbu_1, # of connection points: 4
#     Edge 16, Type (0, 0), BuildingBlock: UVAHIK_clean_linker_0, # of connection points: 2
#     Edge 17, Type (0, 0), BuildingBlock: UVAHIK_clean_linker_0, # of connection points: 2
#     Edge 18, Type (0, 0), BuildingBlock: UVAHIK_clean_linker_0, # of connection points: 2
#     Edge 19, Type (0, 0), BuildingBlock: UVAHIK_clean_linker_0, # of connection points: 2
#     Edge 20, Type (0, 0), BuildingBlock: UVAHIK_clean_linker_0, # of connection points: 2
#     Edge 21, Type (0, 0), BuildingBlock: UVAHIK_clean_linker_0, # of connection points: 2
#     Edge 22, Type (0, 0), BuildingBlock: UVAHIK_clean_linker_0, # of connection points: 2
#     Edge 23, Type (0, 0), BuildingBlock: UVAHIK_clean_linker_0, # of connection points: 2
#     Edge 24, Type (0, 0), BuildingBlock: UVAHIK_clean_linker_0, # of connection points: 2
#     Edge 25, Type (0, 0), BuildingBlock: UVAHIK_clean_linker_0, # of connection points: 2
#     Edge 26, Type (0, 0), BuildingBlock: UVAHIK_clean_linker_0, # of connection points: 2
#     Edge 27, Type (0, 0), BuildingBlock: UVAHIK_clean_linker_0, # of connection points: 2
#     Edge 28, Type (0, 0), BuildingBlock: UVAHIK_clean_linker_0, # of connection points: 2
#     Edge 29, Type (0, 0), BuildingBlock: UVAHIK_clean_linker_0, # of connection points: 2
#     Edge 30, Type (0, 0), BuildingBlock: UVAHIK_clean_linker_0, # of connection points: 2
#     Edge 31, Type (0, 0), BuildingBlock: UVAHIK_clean_linker_0, # of connection points: 2
#     Edge 32, Type (0, 0), BuildingBlock: UVAHIK_clean_linker_0, # of connection points: 2
#     Edge 33, Type (0, 0), BuildingBlock: UVAHIK_clean_linker_0, # of connection points: 2
#     Edge 34, Type (0, 0), BuildingBlock: UVAHIK_clean_linker_0, # of connection points: 2
#     Edge 35, Type (0, 0), BuildingBlock: UVAHIK_clean_linker_0, # of connection points: 2
#     Edge 36, Type (0, 0), BuildingBlock: UVAHIK_clean_linker_0, # of connection points: 2
#     Edge 37, Type (0, 0), BuildingBlock: UVAHIK_clean_linker_0, # of connection points: 2
#     Edge 38, Type (0, 0), BuildingBlock: UVAHIK_clean_linker_0, # of connection points: 2
#     Edge 39, Type (0, 0), BuildingBlock: UVAHIK_clean_linker_0, # of connection points: 2
#     Edge 40, Type (0, 0), BuildingBlock: UVAHIK_clean_linker_0, # of connection points: 2
#     Edge 41, Type (0, 0), BuildingBlock: UVAHIK_clean_linker_0, # of connection points: 2
#     Edge 42, Type (0, 0), BuildingBlock: UVAHIK_clean_linker_0, # of connection points: 2
#     Edge 43, Type (0, 0), BuildingBlock: UVAHIK_clean_linker_0, # of connection points: 2
#     Edge 44, Type (0, 0), BuildingBlock: UVAHIK_clean_linker_0, # of connection points: 2
#     Edge 45, Type (0, 0), BuildingBlock: UVAHIK_clean_linker_0, # of connection points: 2
#     Edge 46, Type (0, 0), BuildingBlock: UVAHIK_clean_linker_0, # of connection points: 2
#     Edge 47, Type (0, 0), BuildingBlock: UVAHIK_clean_linker_0, # of connection points: 2
# Relax obj value: 0.022
# Max RMSD: 0.061
# Mean RMSD: 0.061
data_MOF--net-atn--node1-ICAMEG_clean_sbu_1--edge1-UVAHIK_clean_linker_0
_symmetry_space_group_name_H-M    P1
_symmetry_Int_Tables_number       1
_symmetry_cell_setting            triclinic
loop_
_symmetry_equiv_pos_as_xyz
'x, y, z'
_cell_length_a     78.811448
_cell_length_b     78.816105
_cell_length_c     38.590297
_cell_angle_alpha  90.011206
_cell_angle_beta   90.005165
_cell_angle_gamma 90.018508
loop_
_atom_site_label
_atom_site_type_symbol
_atom_site_fract_x
_atom_site_fract_y
_atom_site_fract_z
_atom_type_partial_charge
Co0 Co 0.17985 0.35648 0.00968 0.0
Co1 Co 0.2122 0.38294 0.03683 0.0
O2 O 0.19337 0.37723 0.00579 0.0
C3 C 0.19171 0.35562 0.937 0.0
O4 O 0.20675 0.36038 0.94796 0.0
C5 C 0.19015 0.41382 0.03841 0.0
O6 O 0.17679 0.40404 0.04234 0.0
O7 O 0.19796 0.37837 0.0788 0.0
O8 O 0.17978 0.35825 0.06102 0.0
H9 H 0.25109 0.37403 0.13835 0.0
H10 H 0.16813 0.38432 0.96411 0.0
O11 O 0.17947 0.35398 0.95821 0.0
H12 H 0.12256 0.37669 0.05029 0.0
H13 H 0.13307 0.31632 0.97529 0.0
H14 H 0.18094 0.32618 0.05512 0.0
H15 H 0.14802 0.35852 0.05154 0.0
H16 H 0.15003 0.34256 0.97141 0.0
O17 O 0.20493 0.40733 0.0369 0.0
H18 H 0.2276 0.36687 0.09868 0.0
H19 H 0.23665 0.41184 0.04092 0.0
H20 H 0.16423 0.29982 0.06011 0.0
H21 H 0.14281 0.40269 0.9617 0.0
H22 H 0.14011 0.29476 0.01999 0.0
H23 H 0.11983 0.39896 0.00509 0.0
O24 O 0.20068 0.34224 0.01148 0.0
H25 H 0.2239 0.40749 0.91904 0.0
H26 H 0.24731 0.37345 0.01491 0.0
H27 H 0.26466 0.37837 0.96272 0.0
H28 H 0.25297 0.39554 0.91432 0.0
H29 H 0.20692 0.40205 0.97153 0.0
H30 H 0.26013 0.41956 0.08013 0.0
H31 H 0.26753 0.40054 0.12918 0.0
O32 O 0.22034 0.35883 0.03661 0.0
C33 C 0.18639 0.36737 0.08467 0.0
C34 C 0.24802 0.38239 0.11702 0.0
C35 C 0.25307 0.40796 0.08437 0.0
N36 N 0.23082 0.38887 0.06741 0.0
C37 C 0.23476 0.37838 0.09442 0.0
C38 C 0.23973 0.40355 0.06232 0.0
C39 C 0.25722 0.39728 0.11188 0.0
C40 C 0.15811 0.38253 0.98288 0.0
N41 N 0.15953 0.37034 0.00787 0.0
C42 C 0.14383 0.39301 0.98147 0.0
C43 C 0.13096 0.39092 0.00585 0.0
C44 C 0.13249 0.37844 0.03124 0.0
C45 C 0.14696 0.36822 0.03189 0.0
C46 C 0.14354 0.31839 0.99297 0.0
C47 C 0.17039 0.32411 0.03771 0.0
C48 C 0.1532 0.33321 0.99085 0.0
N49 N 0.16638 0.33595 0.01319 0.0
C50 C 0.16101 0.30914 0.0406 0.0
C51 C 0.14749 0.3063 0.01806 0.0
C52 C 0.21539 0.34458 0.02445 0.0
C53 C 0.22914 0.39999 0.93995 0.0
C54 C 0.24207 0.38078 0.99385 0.0
C55 C 0.25199 0.38361 0.96442 0.0
C56 C 0.24544 0.39326 0.9373 0.0
N57 N 0.22608 0.38737 0.99625 0.0
C58 C 0.2196 0.39691 0.9698 0.0
Co59 Co 0.65199 0.17974 0.0102 0.0
Co60 Co 0.62574 0.2124 0.03666 0.0
O61 O 0.63133 0.19337 0.00598 0.0
C62 C 0.65298 0.19123 0.93727 0.0
O63 O 0.64821 0.20634 0.94774 0.0
C64 C 0.59485 0.19041 0.03875 0.0
O65 O 0.60469 0.17706 0.04183 0.0
O66 O 0.63028 0.19838 0.07893 0.0
O67 O 0.65019 0.17992 0.06149 0.0
H68 H 0.635 0.2518 0.13723 0.0
H69 H 0.62417 0.16794 0.96461 0.0
O70 O 0.65454 0.17911 0.9588 0.0
H71 H 0.63132 0.1228 0.05188 0.0
H72 H 0.69184 0.13256 0.97684 0.0
H73 H 0.68228 0.18087 0.05568 0.0
H74 H 0.64964 0.14816 0.05275 0.0
H75 H 0.66571 0.14965 0.97257 0.0
O76 O 0.6013 0.20521 0.03721 0.0
H77 H 0.64198 0.22806 0.09807 0.0
H78 H 0.59698 0.23699 0.04032 0.0
H79 H 0.70853 0.16403 0.06104 0.0
H80 H 0.60565 0.14271 0.96257 0.0
H81 H 0.71344 0.13968 0.02142 0.0
H82 H 0.60914 0.11995 0.00651 0.0
O83 O 0.66639 0.20048 0.01167 0.0
H84 H 0.60096 0.22361 0.91887 0.0
H85 H 0.63551 0.24727 0.01377 0.0
H86 H 0.63058 0.26436 0.96125 0.0
H87 H 0.61315 0.25255 0.91333 0.0
H88 H 0.60641 0.20688 0.9717 0.0
H89 H 0.58944 0.26073 0.07903 0.0
H90 H 0.60855 0.26831 0.12781 0.0
O91 O 0.64989 0.22041 0.03613 0.0
C92 C 0.64115 0.18673 0.08501 0.0
C93 C 0.62659 0.24865 0.11601 0.0
C94 C 0.601 0.25364 0.08338 0.0
N95 N 0.61995 0.23121 0.06683 0.0
C96 C 0.6305 0.23525 0.0937 0.0
C97 C 0.60532 0.24016 0.06161 0.0
C98 C 0.61174 0.2579 0.11073 0.0
C99 C 0.62586 0.15801 0.98361 0.0
N100 N 0.638 0.1595 0.00871 0.0
C101 C 0.6153 0.14379 0.98241 0.0
C102 C 0.61724 0.13103 0.00711 0.0
C103 C 0.62967 0.13263 0.03259 0.0
C104 C 0.63998 0.14705 0.03302 0.0
C105 C 0.68983 0.14311 0.9943 0.0
C106 C 0.68428 0.17022 0.03849 0.0
C107 C 0.67508 0.15286 0.99197 0.0
N108 N 0.67242 0.16616 0.01403 0.0
C109 C 0.69919 0.16077 0.04159 0.0
C110 C 0.70194 0.14712 0.01933 0.0
C111 C 0.66413 0.21528 0.02426 0.0
C112 C 0.60856 0.22891 0.93958 0.0
C113 C 0.62806 0.24199 0.99294 0.0
C114 C 0.62522 0.25176 0.96332 0.0
C115 C 0.61543 0.24513 0.93647 0.0
N116 N 0.62131 0.22607 0.9958 0.0
C117 C 0.61165 0.21951 0.96961 0.0
Co118 Co 0.8274 0.65184 0.01128 0.0
Co119 Co 0.79501 0.62523 0.03656 0.0
O120 O 0.81429 0.63087 0.00674 0.0
C121 C 0.81761 0.65155 0.93754 0.0
O122 O 0.80229 0.64711 0.94736 0.0
C123 C 0.81671 0.59411 0.03891 0.0
O124 O 0.83007 0.60373 0.04425 0.0
O125 O 0.80894 0.62938 0.07906 0.0
O126 O 0.82581 0.65093 0.0627 0.0
H127 H 0.75512 0.63397 0.13648 0.0
H128 H 0.84112 0.62367 0.96892 0.0
O129 O 0.82933 0.65354 0.95983 0.0
H130 H 0.88337 0.63308 0.06123 0.0
H131 H 0.87475 0.69204 0.98071 0.0
H132 H 0.82422 0.68303 0.05376 0.0
H133 H 0.85763 0.65079 0.05788 0.0
H134 H 0.85831 0.66549 0.97645 0.0
O135 O 0.80204 0.60077 0.03634 0.0
H136 H 0.77912 0.64109 0.09809 0.0
H137 H 0.77025 0.59655 0.03882 0.0
H138 H 0.84037 0.70971 0.0591 0.0
H139 H 0.86677 0.60576 0.97111 0.0
H140 H 0.86584 0.71435 0.02238 0.0
H141 H 0.88808 0.61039 0.01759 0.0
O142 O 0.80638 0.66569 0.00954 0.0
H143 H 0.78432 0.60136 0.91777 0.0
H144 H 0.76025 0.63519 0.01326 0.0
H145 H 0.74341 0.63071 0.96021 0.0
H146 H 0.75544 0.61364 0.91198 0.0
H147 H 0.80079 0.60638 0.97112 0.0
H148 H 0.74626 0.58886 0.07674 0.0
H149 H 0.73851 0.60768 0.12589 0.0
O150 O 0.78704 0.64949 0.0366 0.0
C151 C 0.81952 0.64122 0.08576 0.0
C152 C 0.75834 0.62569 0.11509 0.0
C153 C 0.75339 0.60036 0.0816 0.0
N154 N 0.77601 0.61931 0.06614 0.0
C155 C 0.77189 0.62968 0.09322 0.0
C156 C 0.76702 0.60475 0.06028 0.0
C157 C 0.74904 0.61093 0.10916 0.0
C158 C 0.85043 0.62587 0.989 0.0
N159 N 0.84792 0.6383 0.01313 0.0
C160 C 0.86489 0.61564 0.99021 0.0
C161 C 0.87683 0.61823 0.01633 0.0
C162 C 0.87418 0.63095 0.04084 0.0
C163 C 0.85956 0.64091 0.03886 0.0
C164 C 0.86371 0.69015 0.99694 0.0
C165 C 0.83538 0.68489 0.03794 0.0
C166 C 0.85434 0.67515 0.99462 0.0
N167 N 0.84044 0.67263 0.01516 0.0
C168 C 0.84443 0.70006 0.04096 0.0
C169 C 0.85871 0.70266 0.02033 0.0
C170 C 0.7918 0.66352 0.02311 0.0
C171 C 0.77894 0.60882 0.9386 0.0
C172 C 0.76563 0.62792 0.99229 0.0
C173 C 0.756 0.62533 0.96237 0.0
C174 C 0.76275 0.61573 0.93535 0.0
N175 N 0.78152 0.62115 0.99526 0.0
C176 C 0.78818 0.61166 0.96893 0.0
Co177 Co 0.3559 0.82831 0.01055 0.0
Co178 Co 0.38234 0.79567 0.03626 0.0
O179 O 0.37661 0.81478 0.00594 0.0
C180 C 0.35484 0.81704 0.93749 0.0
O181 O 0.3597 0.80192 0.94776 0.0
C182 C 0.41319 0.81774 0.03853 0.0
O183 O 0.40334 0.83107 0.04188 0.0
O184 O 0.37785 0.80955 0.07874 0.0
O185 O 0.35781 0.828 0.06184 0.0
H186 H 0.37346 0.75595 0.1364 0.0
H187 H 0.38357 0.84037 0.96487 0.0
O188 O 0.35323 0.82908 0.95918 0.0
H189 H 0.37642 0.88521 0.05279 0.0
H190 H 0.31578 0.87543 0.97815 0.0
H191 H 0.32572 0.82694 0.0563 0.0
H192 H 0.35821 0.85977 0.0535 0.0
H193 H 0.34197 0.85845 0.97342 0.0
O194 O 0.40675 0.80294 0.03671 0.0
H195 H 0.36631 0.77978 0.09762 0.0
H196 H 0.41118 0.77114 0.03928 0.0
H197 H 0.29942 0.84366 0.06212 0.0
H198 H 0.40197 0.86568 0.96299 0.0
H199 H 0.29432 0.8681 0.02284 0.0
H200 H 0.39848 0.8883 0.00725 0.0
O201 O 0.34158 0.8075 0.01186 0.0
H202 H 0.40691 0.78493 0.91811 0.0
H203 H 0.37263 0.76085 0.01293 0.0
H204 H 0.37751 0.74394 0.96012 0.0
H205 H 0.39481 0.75597 0.91224 0.0
H206 H 0.40152 0.80147 0.97123 0.0
H207 H 0.41889 0.74732 0.0776 0.0
H208 H 0.39993 0.73954 0.12649 0.0
O209 O 0.35823 0.78758 0.03585 0.0
C210 C 0.36697 0.82113 0.08513 0.0
C211 C 0.38181 0.75918 0.11513 0.0
C212 C 0.40732 0.75436 0.08216 0.0
N213 N 0.38826 0.77678 0.06611 0.0
C214 C 0.3778 0.77263 0.09304 0.0
C215 C 0.40291 0.7679 0.06061 0.0
C216 C 0.39667 0.75 0.10958 0.0
C217 C 0.38188 0.85024 0.98402 0.0
N218 N 0.3698 0.84862 0.0092 0.0
C219 C 0.39237 0.86451 0.98291 0.0
C220 C 0.39043 0.87718 0.00778 0.0
C221 C 0.37806 0.87545 0.03336 0.0
C222 C 0.36782 0.86099 0.0337 0.0
C223 C 0.31787 0.86483 0.99546 0.0
C224 C 0.32363 0.83762 0.03926 0.0
C225 C 0.33266 0.85515 0.99286 0.0
N226 N 0.33542 0.8418 0.01474 0.0
C227 C 0.3087 0.84701 0.04261 0.0
C228 C 0.30584 0.86071 0.02055 0.0
C229 C 0.34394 0.79268 0.0242 0.0
C230 C 0.39937 0.77955 0.9388 0.0
C231 C 0.38003 0.76622 0.99213 0.0
C232 C 0.38283 0.75656 0.96233 0.0
C233 C 0.39255 0.76331 0.9355 0.0
N234 N 0.38672 0.78215 0.99516 0.0
C235 C 0.39631 0.78883 0.969 0.0
Co236 Co 0.17923 0.65156 0.00929 0.0
Co237 Co 0.212 0.62539 0.98303 0.0
O238 O 0.19287 0.63091 0.01349 0.0
C239 C 0.19057 0.65249 0.08234 0.0
O240 O 0.20571 0.64774 0.07198 0.0
C241 C 0.19 0.59451 0.98021 0.0
O242 O 0.17665 0.60436 0.97704 0.0
O243 O 0.19814 0.63008 0.94059 0.0
O244 O 0.17952 0.64985 0.958 0.0
H245 H 0.25178 0.63493 0.8832 0.0
H246 H 0.16736 0.62367 0.05456 0.0
O247 O 0.1785 0.65404 0.06071 0.0
H248 H 0.12239 0.63093 0.96696 0.0
H249 H 0.13195 0.69134 0.04249 0.0
H250 H 0.18044 0.68193 0.96404 0.0
H251 H 0.14774 0.64927 0.96644 0.0
H252 H 0.14905 0.66521 0.04673 0.0
O253 O 0.20479 0.60097 0.98204 0.0
H254 H 0.22791 0.64181 0.9221 0.0
H255 H 0.23658 0.59662 0.97934 0.0
H256 H 0.1636 0.70817 0.95871 0.0
H257 H 0.14213 0.60514 0.05626 0.0
H258 H 0.13916 0.71301 0.99813 0.0
H259 H 0.11945 0.60868 0.01215 0.0
O260 O 0.19997 0.66598 0.00815 0.0
H261 H 0.22272 0.60031 0.10073 0.0
H262 H 0.24684 0.63497 0.00653 0.0
H263 H 0.26372 0.62988 0.05929 0.0
H264 H 0.25167 0.61239 0.10685 0.0
H265 H 0.2062 0.60592 0.04769 0.0
H266 H 0.26044 0.58917 0.94089 0.0
H267 H 0.26822 0.60844 0.8925 0.0
O268 O 0.22005 0.64954 0.98404 0.0
C269 C 0.18645 0.6409 0.93448 0.0
C270 C 0.24854 0.62645 0.90425 0.0
C271 C 0.25339 0.60076 0.9366 0.0
N272 N 0.23092 0.61968 0.95307 0.0
C273 C 0.23507 0.63031 0.92641 0.0
C274 C 0.23983 0.60502 0.95822 0.0
C275 C 0.25775 0.61158 0.90946 0.0
C276 C 0.15746 0.62538 0.03549 0.0
N277 N 0.159 0.63756 0.0105 0.0
C278 C 0.14324 0.61481 0.03649 0.0
C279 C 0.13054 0.61679 0.0117 0.0
C280 C 0.13218 0.62926 0.98632 0.0
C281 C 0.14659 0.63958 0.98609 0.0
C282 C 0.14255 0.68936 0.02511 0.0
C283 C 0.16976 0.6839 0.98115 0.0
C284 C 0.1523 0.67461 0.02744 0.0
N285 N 0.16565 0.672 0.00548 0.0
C286 C 0.1603 0.6988 0.97807 0.0
C287 C 0.1466 0.70152 0.00022 0.0
C288 C 0.21484 0.66374 0.99591 0.0
C289 C 0.22811 0.60794 0.08019 0.0
C290 C 0.24145 0.6275 0.02721 0.0
C291 C 0.2511 0.62457 0.05697 0.0
C292 C 0.24435 0.61475 0.08362 0.0
N293 N 0.22552 0.62082 0.02405 0.0
C294 C 0.21884 0.61112 0.05003 0.0
Co295 Co 0.35648 0.18052 0.00773 0.0
Co296 Co 0.38325 0.21265 0.98211 0.0
O297 O 0.37765 0.19334 0.01187 0.0
C298 C 0.35751 0.1896 0.08189 0.0
O299 O 0.36199 0.20499 0.07263 0.0
C300 C 0.41427 0.19081 0.979 0.0
O301 O 0.40458 0.17751 0.9737 0.0
O302 O 0.37879 0.19883 0.93957 0.0
O303 O 0.35688 0.18256 0.95631 0.0
H304 H 0.37423 0.2528 0.88272 0.0
H305 H 0.38488 0.16608 0.04841 0.0
O306 O 0.35527 0.17813 0.05914 0.0
H307 H 0.37404 0.12477 0.95499 0.0
H308 H 0.31602 0.13338 0.03822 0.0
H309 H 0.32488 0.18449 0.96681 0.0
H310 H 0.3567 0.1507 0.95999 0.0
H311 H 0.34283 0.14945 0.04191 0.0
O312 O 0.40768 0.20551 0.98179 0.0
H313 H 0.36717 0.22875 0.92102 0.0
H314 H 0.41203 0.23729 0.97948 0.0
H315 H 0.29794 0.16873 0.96207 0.0
H316 H 0.40243 0.14023 0.04456 0.0
H317 H 0.29338 0.14297 0.99796 0.0
H318 H 0.39708 0.11939 0.99752 0.0
O319 O 0.34293 0.20171 0.01077 0.0
H320 H 0.4078 0.22305 0.10043 0.0
H321 H 0.37349 0.24739 0.00594 0.0
H322 H 0.37834 0.26412 0.05899 0.0
H323 H 0.39565 0.25197 0.1067 0.0
H324 H 0.40241 0.20668 0.04709 0.0
H325 H 0.41965 0.26132 0.94163 0.0
H326 H 0.40064 0.26926 0.89293 0.0
O327 O 0.35903 0.22074 0.98258 0.0
C328 C 0.36659 0.18866 0.93304 0.0
C329 C 0.38259 0.24949 0.90391 0.0
C330 C 0.4081 0.25425 0.93694 0.0
N331 N 0.38912 0.23168 0.95257 0.0
C332 C 0.37864 0.23591 0.92573 0.0
C333 C 0.40374 0.2406 0.95822 0.0
C334 C 0.39742 0.25871 0.90963 0.0
C335 C 0.38237 0.15698 0.02808 0.0
N336 N 0.36974 0.15985 0.00456 0.0
C337 C 0.39239 0.14241 0.02594 0.0
C338 C 0.3894 0.13073 -0.0005 0.0
C339 C 0.37649 0.13375 0.97562 0.0
C340 C 0.36674 0.14848 0.97853 0.0
C341 C 0.31788 0.14455 0.02235 0.0
C342 C 0.32305 0.17321 0.98227 0.0
C343 C 0.33303 0.1537 0.02435 0.0
N344 N 0.33549 0.16777 0.00426 0.0
C345 C 0.30774 0.16438 0.97958 0.0
C346 C 0.30518 0.14993 -0.00025 0.0
C347 C 0.3451 0.21621 0.99683 0.0
C348 C 0.40024 0.22849 0.07982 0.0
C349 C 0.38087 0.24195 0.02668 0.0
C350 C 0.38367 0.25152 0.05661 0.0
C351 C 0.3934 0.2447 0.08334 0.0
N352 N 0.38758 0.22604 0.02343 0.0
C353 C 0.39719 0.21931 0.04949 0.0
Co354 Co 0.82807 0.35744 0.01019 0.0
Co355 Co 0.79508 0.3825 0.98125 0.0
O356 O 0.81384 0.37766 0.01286 0.0
C357 C 0.81552 0.35499 0.08249 0.0
O358 O 0.79995 0.35542 0.07041 0.0
C359 C 0.8166 0.4136 0.97855 0.0
O360 O 0.83 0.40381 0.97559 0.0
O361 O 0.80963 0.37785 0.93985 0.0
O362 O 0.82843 0.35852 0.95861 0.0
H363 H 0.75693 0.37148 0.87941 0.0
H364 H 0.83861 0.38623 0.05472 0.0
O365 O 0.82815 0.35597 0.06201 0.0
H366 H 0.88486 0.37913 0.96988 0.0
H367 H 0.87586 0.31948 0.04866 0.0
H368 H 0.82855 0.32656 0.96628 0.0
H369 H 0.86 0.36012 0.96892 0.0
H370 H 0.85791 0.34511 0.05047 0.0
O371 O 0.80183 0.40706 0.98016 0.0
H372 H 0.78036 0.36533 0.91992 0.0
H373 H 0.77004 0.41076 0.97526 0.0
H374 H 0.84625 0.3008 0.96339 0.0
H375 H 0.86332 0.40542 0.05682 0.0
H376 H 0.87011 0.29714 0.00479 0.0
H377 H 0.88664 0.40196 0.01411 0.0
O378 O 0.80776 0.3424 0.00816 0.0
H379 H 0.78223 0.4077 0.09797 0.0
H380 H 0.7601 0.37239 0.00271 0.0
H381 H 0.74235 0.37735 0.05432 0.0
H382 H 0.75339 0.39517 0.10241 0.0
H383 H 0.79962 0.40224 0.04602 0.0
H384 H 0.7466 0.41748 0.93519 0.0
H385 H 0.73987 0.39772 0.88693 0.0
O386 O 0.78762 0.35819 0.98243 0.0
C387 C 0.82155 0.36718 0.93452 0.0
C388 C 0.75971 0.38016 0.9004 0.0
C389 C 0.75392 0.40599 0.93167 0.0
N390 N 0.77648 0.38761 0.95004 0.0
C391 C 0.77292 0.37673 0.92346 0.0
C392 C 0.76724 0.40215 0.95421 0.0
C393 C 0.75015 0.3949 0.90461 0.0
C394 C 0.84879 0.38454 0.03626 0.0
N395 N 0.84789 0.37203 0.0118 0.0
C396 C 0.86271 0.39549 0.03749 0.0
C397 C 0.87578 0.39356 0.01348 0.0
C398 C 0.87478 0.38076 0.98864 0.0
C399 C 0.86065 0.37006 0.98816 0.0
C400 C 0.86552 0.32095 0.03043 0.0
C401 C 0.83897 0.32511 0.98424 0.0
C402 C 0.8553 0.33541 0.03137 0.0
N403 N 0.84229 0.33738 0.00832 0.0
C404 C 0.84892 0.31047 0.98254 0.0
C405 C 0.86229 0.30842 0.00581 0.0
C406 C 0.79301 0.34418 0.99494 0.0
C407 C 0.77728 0.39992 0.07719 0.0
C408 C 0.76504 0.38003 0.02361 0.0
C409 C 0.75491 0.38286 0.05272 0.0
C410 C 0.7611 0.39287 0.07968 0.0
N411 N 0.78089 0.38698 0.02135 0.0
C412 C 0.78704 0.39682 0.04766 0.0
Co413 Co 0.65092 0.82811 0.00927 0.0
Co414 Co 0.62484 0.7957 0.98145 0.0
O415 O 0.6303 0.81444 0.01278 0.0
C416 C 0.65234 0.81625 0.08199 0.0
O417 O 0.64957 0.80078 0.07065 0.0
C418 C 0.59382 0.81746 0.97988 0.0
O419 O 0.60354 0.83082 0.97549 0.0
O420 O 0.62923 0.81018 0.93978 0.0
O421 O 0.64957 0.82806 0.95781 0.0
H422 H 0.63416 0.75734 0.87923 0.0
H423 H 0.62262 0.83974 0.05385 0.0
O424 O 0.65284 0.82863 0.06087 0.0
H425 H 0.63061 0.88514 0.96747 0.0
H426 H 0.69042 0.87524 0.04477 0.0
H427 H 0.68158 0.82723 0.96481 0.0
H428 H 0.64896 0.85982 0.96705 0.0
H429 H 0.66429 0.85807 0.04788 0.0
O430 O 0.60037 0.80271 0.98165 0.0
H431 H 0.64106 0.78074 0.9193 0.0
H432 H 0.59621 0.77097 0.97696 0.0
H433 H 0.70783 0.84415 0.96062 0.0
H434 H 0.60406 0.86493 0.05542 0.0
H435 H 0.71238 0.86835 0.0008 0.0
H436 H 0.60797 0.88783 0.01193 0.0
O437 O 0.66534 0.80737 0.00791 0.0
H438 H 0.60075 0.78322 0.0993 0.0
H439 H 0.63476 0.76061 0.0026 0.0
H440 H 0.63016 0.74297 0.0545 0.0
H441 H 0.613 0.75426 0.10332 0.0
H442 H 0.60585 0.80049 0.04706 0.0
H443 H 0.58874 0.74757 0.93735 0.0
H444 H 0.60782 0.74058 0.88815 0.0
O445 O 0.64905 0.78788 0.98143 0.0
C446 C 0.64038 0.82162 0.93405 0.0
C447 C 0.62576 0.76024 0.90063 0.0
C448 C 0.60026 0.75477 0.93322 0.0
N449 N 0.61911 0.77715 0.95055 0.0
C450 C 0.62963 0.77344 0.92345 0.0
C451 C 0.60453 0.76807 0.9555 0.0
C452 C 0.61098 0.75085 0.90563 0.0
C453 C 0.62449 0.84972 0.03504 0.0
N454 N 0.63689 0.84833 0.01045 0.0
C455 C 0.61391 0.86392 0.03597 0.0
C456 C 0.61609 0.87676 0.01153 0.0
C457 C 0.62878 0.87525 0.98656 0.0
C458 C 0.6391 0.86085 0.98638 0.0
C459 C 0.68857 0.86475 0.02707 0.0
C460 C 0.68343 0.8378 0.98225 0.0
C461 C 0.67382 0.85496 0.02876 0.0
N462 N 0.67136 0.84174 0.00637 0.0
C463 C 0.69833 0.84731 0.97981 0.0
C464 C 0.70089 0.86088 0.00239 0.0
C465 C 0.66318 0.79279 0.99422 0.0
C466 C 0.60824 0.77816 0.0782 0.0
C467 C 0.62742 0.76566 0.02382 0.0
C468 C 0.62478 0.75559 0.0531 0.0
C469 C 0.61513 0.76192 0.08046 0.0
N470 N 0.62064 0.78159 0.0218 0.0
C471 C 0.61114 0.78786 0.0485 0.0
Co472 Co 0.68 0.85699 0.51052 0.0
Co473 Co 0.71267 0.88311 0.53699 0.0
O474 O 0.69374 0.87753 0.50622 0.0
C475 C 0.6916 0.85512 0.43769 0.0
O476 O 0.7071 0.85795 0.44878 0.0
C477 C 0.69103 0.91423 0.53846 0.0
O478 O 0.67766 0.90458 0.5433 0.0
O479 O 0.69838 0.87901 0.57904 0.0
O480 O 0.68026 0.85868 0.56195 0.0
H481 H 0.75148 0.87423 0.63863 0.0
H482 H 0.6683 0.88504 0.46538 0.0
O483 O 0.67928 0.85474 0.45897 0.0
H484 H 0.62324 0.87782 0.55278 0.0
H485 H 0.63256 0.81748 0.47687 0.0
H486 H 0.68093 0.82662 0.55578 0.0
H487 H 0.64849 0.85936 0.55325 0.0
H488 H 0.64984 0.8435 0.47277 0.0
O489 O 0.70574 0.9076 0.53641 0.0
H490 H 0.72786 0.86719 0.5992 0.0
H491 H 0.73753 0.91166 0.54028 0.0
H492 H 0.6639 0.80047 0.56097 0.0
H493 H 0.64318 0.90369 0.46375 0.0
H494 H 0.63952 0.79578 0.52131 0.0
H495 H 0.62046 0.90017 0.50776 0.0
O496 O 0.70069 0.84248 0.51191 0.0
H497 H 0.72462 0.90651 0.41834 0.0
H498 H 0.7476 0.87292 0.51529 0.0
H499 H 0.76498 0.87716 0.46291 0.0
H500 H 0.75351 0.89411 0.41396 0.0
H501 H 0.7076 0.90176 0.47108 0.0
H502 H 0.76116 0.91926 0.57922 0.0
H503 H 0.76831 0.90044 0.62873 0.0
O504 O 0.7204 0.85888 0.53741 0.0
C505 C 0.6869 0.86798 0.58531 0.0
C506 C 0.74852 0.88251 0.61709 0.0
C507 C 0.75393 0.9078 0.58378 0.0
N508 N 0.73139 0.88894 0.56736 0.0
C509 C 0.73519 0.87856 0.59463 0.0
C510 C 0.74051 0.90345 0.56188 0.0
C511 C 0.75795 0.89723 0.61154 0.0
C512 C 0.65839 0.88333 0.48442 0.0
N513 N 0.65984 0.8711 0.50932 0.0
C514 C 0.64423 0.89397 0.48345 0.0
C515 C 0.6315 0.89201 0.50818 0.0
C516 C 0.63305 0.87948 0.53347 0.0
C517 C 0.64741 0.8691 0.53367 0.0
C518 C 0.64313 0.8194 0.49434 0.0
C519 C 0.67028 0.82471 0.53857 0.0
C520 C 0.65298 0.83409 0.49209 0.0
N521 N 0.6663 0.83663 0.51419 0.0
C522 C 0.66071 0.80986 0.54157 0.0
C523 C 0.64704 0.80723 0.51929 0.0
C524 C 0.71536 0.84468 0.52516 0.0
C525 C 0.72977 0.89911 0.4395 0.0
C526 C 0.74247 0.88017 0.49403 0.0
C527 C 0.7524 0.88261 0.46447 0.0
C528 C 0.74596 0.89213 0.43704 0.0
N529 N 0.72658 0.88703 0.49625 0.0
C530 C 0.72021 0.89642 0.46948 0.0
Co531 Co 0.15145 0.67943 0.51063 0.0
Co532 Co 0.12491 0.71196 0.53666 0.0
O533 O 0.13071 0.69294 0.50617 0.0
C534 C 0.15257 0.69119 0.43798 0.0
O535 O 0.14774 0.70621 0.44884 0.0
C536 C 0.09413 0.68977 0.53855 0.0
O537 O 0.10402 0.67644 0.54144 0.0
O538 O 0.12949 0.69803 0.579 0.0
O539 O 0.14944 0.6795 0.56192 0.0
H540 H 0.13368 0.75153 0.63715 0.0
H541 H 0.1239 0.66753 0.46445 0.0
O542 O 0.15419 0.67896 0.45923 0.0
H543 H 0.13099 0.62229 0.55151 0.0
H544 H 0.19173 0.63259 0.47744 0.0
H545 H 0.18154 0.68061 0.55668 0.0
H546 H 0.14913 0.64777 0.55292 0.0
H547 H 0.16552 0.64954 0.47288 0.0
O548 O 0.10053 0.7046 0.53713 0.0
H549 H 0.14091 0.7278 0.59814 0.0
H550 H 0.09598 0.73637 0.53996 0.0
H551 H 0.20786 0.66391 0.56233 0.0
H552 H 0.10558 0.64217 0.46188 0.0
H553 H 0.21309 0.6397 0.52251 0.0
H554 H 0.10903 0.61936 0.50571 0.0
O555 O 0.16574 0.70025 0.51249 0.0
H556 H 0.10028 0.72278 0.41859 0.0
H557 H 0.13443 0.74688 0.51363 0.0
H558 H 0.12947 0.76385 0.46094 0.0
H559 H 0.11225 0.75181 0.41295 0.0
H560 H 0.10575 0.70619 0.4716 0.0
H561 H 0.08818 0.76008 0.57851 0.0
H562 H 0.10714 0.76784 0.62744 0.0
O563 O 0.14899 0.72017 0.53625 0.0
C564 C 0.14032 0.68637 0.58527 0.0
C565 C 0.12534 0.7483 0.61587 0.0
C566 C 0.09979 0.75308 0.58298 0.0
N567 N 0.11893 0.73077 0.56669 0.0
C568 C 0.12939 0.73491 0.59364 0.0
C569 C 0.10424 0.73961 0.5613 0.0
C570 C 0.11044 0.75743 0.61042 0.0
C571 C 0.12558 0.65757 0.48341 0.0
N572 N 0.1376 0.65911 0.50874 0.0
C573 C 0.11513 0.64328 0.48191 0.0
C574 C 0.11705 0.6305 0.50654 0.0
C575 C 0.12936 0.63214 0.53227 0.0
C576 C 0.13956 0.64663 0.533 0.0
C577 C 0.18958 0.64308 0.49499 0.0
C578 C 0.18368 0.67003 0.5394 0.0
C579 C 0.17478 0.65275 0.49249 0.0
N580 N 0.17195 0.66597 0.51467 0.0
C581 C 0.19862 0.66065 0.54266 0.0
C582 C 0.20156 0.64708 0.52029 0.0
C583 C 0.16331 0.71508 0.52478 0.0
C584 C 0.1078 0.72817 0.43933 0.0
C585 C 0.12706 0.74151 0.49278 0.0
C586 C 0.12422 0.7512 0.46305 0.0
C587 C 0.11453 0.74445 0.43616 0.0
N588 N 0.12044 0.72554 0.49569 0.0
C589 C 0.11089 0.71886 0.46947 0.0
Co590 Co 0.32847 0.15127 0.51135 0.0
Co591 Co 0.29614 0.12458 0.53684 0.0
O592 O 0.31562 0.1301 0.50739 0.0
C593 C 0.31924 0.15017 0.43732 0.0
O594 O 0.3039 0.14563 0.4468 0.0
C595 C 0.31817 0.09372 0.54091 0.0
O596 O 0.3315 0.10354 0.5447 0.0
O597 O 0.30964 0.12944 0.57963 0.0
O598 O 0.3265 0.1509 0.56275 0.0
H599 H 0.2553 0.13414 0.63483 0.0
H600 H 0.34287 0.1229 0.47048 0.0
O601 O 0.33077 0.15245 0.4599 0.0
H602 H 0.38425 0.13362 0.56383 0.0
H603 H 0.37566 0.19161 0.48048 0.0
H604 H 0.32461 0.18291 0.55217 0.0
H605 H 0.35832 0.15097 0.559 0.0
H606 H 0.35953 0.16484 0.47694 0.0
O607 O 0.30342 0.10019 0.53834 0.0
H608 H 0.27956 0.14104 0.59696 0.0
H609 H 0.27163 0.09571 0.53968 0.0
H610 H 0.34044 0.20982 0.55676 0.0
H611 H 0.36873 0.10535 0.47414 0.0
H612 H 0.36617 0.2143 0.52073 0.0
H613 H 0.3896 0.11064 0.52115 0.0
O614 O 0.30733 0.16489 0.50837 0.0
H615 H 0.28679 0.09912 0.41898 0.0
H616 H 0.2615 0.13387 0.51173 0.0
H617 H 0.2452 0.12854 0.4583 0.0
H618 H 0.25784 0.11101 0.41146 0.0
H619 H 0.30272 0.10498 0.47266 0.0
H620 H 0.24739 0.08824 0.57711 0.0
H621 H 0.23904 0.10757 0.625 0.0
O622 O 0.28791 0.14873 0.53531 0.0
C623 C 0.32006 0.14146 0.58609 0.0
C624 C 0.25879 0.12564 0.614 0.0
C625 C 0.25437 0.09986 0.58163 0.0
N626 N 0.27695 0.11884 0.56603 0.0
C627 C 0.27249 0.1295 0.59242 0.0
C628 C 0.26814 0.10413 0.56059 0.0
C629 C 0.24968 0.11072 0.60849 0.0
C630 C 0.35199 0.12538 0.49079 0.0
N631 N 0.34913 0.13798 0.5144 0.0
C632 C 0.36656 0.11536 0.49282 0.0
C633 C 0.37826 0.11831 0.51924 0.0
C634 C 0.37525 0.1312 0.54322 0.0
C635 C 0.36053 0.14095 0.54041 0.0
C636 C 0.36451 0.18978 0.49641 0.0
C637 C 0.33589 0.1847 0.53666 0.0
C638 C 0.35532 0.17466 0.4945 0.0
N639 N 0.34127 0.17223 0.51467 0.0
C640 C 0.34476 0.19999 0.53926 0.0
C641 C 0.35918 0.20251 0.519 0.0
C642 C 0.29266 0.16269 0.5215 0.0
C643 C 0.28114 0.10677 0.4392 0.0
C644 C 0.26714 0.12639 0.49136 0.0
C645 C 0.25782 0.12333 0.46122 0.0
C646 C 0.26491 0.11347 0.43498 0.0
N647 N 0.28308 0.11983 0.49529 0.0
C648 C 0.29008 0.11009 0.46972 0.0
Co649 Co 0.85759 0.32822 0.50949 0.0
Co650 Co 0.88272 0.29505 0.53737 0.0
O651 O 0.87777 0.31395 0.50622 0.0
C652 C 0.85496 0.31573 0.43727 0.0
O653 O 0.8557 0.30019 0.44941 0.0
C654 C 0.91385 0.31652 0.54013 0.0
O655 O 0.90409 0.32991 0.54354 0.0
O656 O 0.87824 0.30942 0.5791 0.0
O657 O 0.85895 0.32844 0.56107 0.0
H658 H 0.87206 0.25647 0.63866 0.0
H659 H 0.88615 0.33881 0.46443 0.0
O660 O 0.85583 0.32839 0.4577 0.0
H661 H 0.87964 0.38483 0.55 0.0
H662 H 0.81954 0.37618 0.47235 0.0
H663 H 0.82695 0.32866 0.55408 0.0
H664 H 0.86058 0.36001 0.55109 0.0
H665 H 0.84511 0.35817 0.46979 0.0
O666 O 0.90729 0.30177 0.53821 0.0
H667 H 0.86578 0.28009 0.59871 0.0
H668 H 0.91096 0.26994 0.54242 0.0
H669 H 0.80125 0.34643 0.55773 0.0
H670 H 0.9054 0.36347 0.46221 0.0
H671 H 0.79742 0.37039 0.51666 0.0
H672 H 0.90224 0.38667 0.50529 0.0
O673 O 0.8425 0.30794 0.51161 0.0
H674 H 0.90744 0.28269 0.42003 0.0
H675 H 0.87245 0.26019 0.51538 0.0
H676 H 0.87717 0.24267 0.46335 0.0
H677 H 0.89483 0.2539 0.41521 0.0
H678 H 0.90223 0.29984 0.47241 0.0
H679 H 0.91781 0.24631 0.58193 0.0
H680 H 0.89824 0.2394 0.63038 0.0
O681 O 0.85839 0.28762 0.53645 0.0
C682 C 0.86768 0.32139 0.58486 0.0
C683 C 0.88066 0.25933 0.61759 0.0
C684 C 0.90635 0.25364 0.58578 0.0
N685 N 0.88793 0.27631 0.56815 0.0
C686 C 0.87715 0.27265 0.59483 0.0
C687 C 0.90243 0.26707 0.56355 0.0
C688 C 0.89536 0.24977 0.61295 0.0
C689 C 0.88459 0.34893 0.48305 0.0
N690 N 0.87222 0.348 0.50778 0.0
C691 C 0.89557 0.36283 0.48176 0.0
C692 C 0.89381 0.37583 0.50597 0.0
C693 C 0.88114 0.3748 0.53108 0.0
C694 C 0.87041 0.36069 0.53163 0.0
C695 C 0.82108 0.3658 0.49044 0.0
C696 C 0.82542 0.33913 0.53626 0.0
C697 C 0.83551 0.35554 0.48907 0.0
N698 N 0.83757 0.34247 0.51195 0.0
C699 C 0.81082 0.34912 0.53839 0.0
C700 C 0.80868 0.36254 0.51531 0.0
C701 C 0.84432 0.29312 0.52443 0.0
C702 C 0.89974 0.27765 0.44083 0.0
C703 C 0.88002 0.26521 0.49446 0.0
C704 C 0.88272 0.25521 0.46511 0.0
C705 C 0.89264 0.26151 0.43813 0.0
N706 N 0.88702 0.28103 0.49694 0.0
C707 C 0.89677 0.28729 0.4706 0.0
Co708 Co 0.67979 0.15221 0.50886 0.0
Co709 Co 0.71256 0.12595 0.48295 0.0
O710 O 0.69349 0.1316 0.5134 0.0
C711 C 0.69155 0.15349 0.58147 0.0
O712 O 0.70662 0.14879 0.5706 0.0
C713 C 0.69063 0.095 0.48093 0.0
O714 O 0.67726 0.1048 0.47772 0.0
O715 O 0.69859 0.13036 0.44059 0.0
O716 O 0.67988 0.15015 0.45757 0.0
H717 H 0.75208 0.13497 0.3825 0.0
H718 H 0.66816 0.12458 0.5551 0.0
O719 O 0.6793 0.15499 0.56024 0.0
H720 H 0.62284 0.13117 0.46801 0.0
H721 H 0.63258 0.19208 0.54191 0.0
H722 H 0.68068 0.18226 0.4627 0.0
H723 H 0.64815 0.14956 0.46657 0.0
H724 H 0.64978 0.16604 0.54656 0.0
O725 O 0.70541 0.1015 0.48259 0.0
H726 H 0.72828 0.14202 0.42143 0.0
H727 H 0.73723 0.09723 0.4798 0.0
H728 H 0.66373 0.20841 0.45695 0.0
H729 H 0.64298 0.10601 0.5577 0.0
H730 H 0.63948 0.21346 0.49676 0.0
H731 H 0.62013 0.10921 0.51385 0.0
O732 O 0.70048 0.16669 0.50694 0.0
H733 H 0.72362 0.10152 0.60109 0.0
H734 H 0.74738 0.13585 0.506 0.0
H735 H 0.76439 0.13111 0.55873 0.0
H736 H 0.75252 0.11379 0.60674 0.0
H737 H 0.70698 0.10678 0.54805 0.0
H738 H 0.76103 0.08961 0.44134 0.0
H739 H 0.76863 0.10859 0.39235 0.0
O740 O 0.72054 0.1501 0.48326 0.0
C741 C 0.68683 0.14107 0.43426 0.0
C742 C 0.74892 0.12662 0.40381 0.0
C743 C 0.75392 0.10115 0.4368 0.0
N744 N 0.73143 0.12011 0.45297 0.0
C745 C 0.73548 0.13057 0.42599 0.0
C746 C 0.7404 0.1055 0.45843 0.0
C747 C 0.75819 0.11181 0.40933 0.0
C748 C 0.65819 0.12615 0.53613 0.0
N749 N 0.6596 0.13817 0.51078 0.0
C750 C 0.644 0.11556 0.53765 0.0
C751 C 0.63119 0.11734 0.51301 0.0
C752 C 0.63271 0.12965 0.48726 0.0
C753 C 0.6471 0.13999 0.48652 0.0
C754 C 0.64309 0.19001 0.52437 0.0
C755 C 0.67009 0.18432 0.47997 0.0
C756 C 0.65289 0.17531 0.52692 0.0
N757 N 0.66614 0.17258 0.50475 0.0
C758 C 0.66056 0.19917 0.47666 0.0
C759 C 0.64697 0.202 0.49902 0.0
C760 C 0.71532 0.16439 0.49465 0.0
C761 C 0.72894 0.10908 0.58034 0.0
C762 C 0.74208 0.12844 0.52687 0.0
C763 C 0.7518 0.12572 0.55661 0.0
C764 C 0.74514 0.11599 0.58352 0.0
N765 N 0.72618 0.12165 0.52395 0.0
C766 C 0.7196 0.11205 0.55019 0.0
Co767 Co 0.85581 0.67997 0.50776 0.0
Co768 Co 0.88252 0.7123 0.48269 0.0
O769 O 0.87682 0.69299 0.51238 0.0
C770 C 0.85614 0.68955 0.58164 0.0
O771 O 0.86063 0.70489 0.57207 0.0
C772 C 0.91352 0.69046 0.47991 0.0
O773 O 0.90382 0.67719 0.4743 0.0
O774 O 0.87829 0.69847 0.44008 0.0
O775 O 0.85669 0.68167 0.45635 0.0
H776 H 0.87386 0.75243 0.38315 0.0
H777 H 0.88397 0.66606 0.54988 0.0
O778 O 0.85414 0.6779 0.55918 0.0
H779 H 0.87437 0.62406 0.4572 0.0
H780 H 0.81548 0.63266 0.53796 0.0
H781 H 0.8246 0.68334 0.46541 0.0
H782 H 0.85673 0.64984 0.46087 0.0
H783 H 0.84209 0.64901 0.54231 0.0
O784 O 0.90696 0.70516 0.4828 0.0
H785 H 0.86667 0.72838 0.42135 0.0
H786 H 0.91131 0.73694 0.48051 0.0
H787 H 0.79785 0.66729 0.46 0.0
H788 H 0.90182 0.64038 0.54736 0.0
H789 H 0.79316 0.64175 0.49646 0.0
H790 H 0.89709 0.61919 0.50069 0.0
O791 O 0.84203 0.70102 0.50974 0.0
H792 H 0.90649 0.72269 0.6015 0.0
H793 H 0.8727 0.74706 0.50627 0.0
H794 H 0.87727 0.76378 0.55944 0.0
H795 H 0.89433 0.75161 0.60753 0.0
H796 H 0.90138 0.70633 0.54804 0.0
H797 H 0.91906 0.76097 0.44277 0.0
H798 H 0.90023 0.7689 0.39377 0.0
O799 O 0.85828 0.72036 0.48278 0.0
C800 C 0.86641 0.68795 0.43332 0.0
C801 C 0.88214 0.74913 0.40447 0.0
C802 C 0.90753 0.7539 0.4379 0.0
N803 N 0.8885 0.73133 0.45324 0.0
C804 C 0.87812 0.73555 0.42624 0.0
C805 C 0.9031 0.74025 0.45912 0.0
C806 C 0.89695 0.75835 0.41043 0.0
C807 C 0.88173 0.65681 0.52971 0.0
N808 N 0.86928 0.6594 0.50567 0.0
C809 C 0.89192 0.64233 0.52832 0.0
C810 C 0.88928 0.63046 0.5021 0.0
C811 C 0.87654 0.63319 0.47767 0.0
C812 C 0.86662 0.64783 0.47983 0.0
C813 C 0.81739 0.64374 0.52185 0.0
C814 C 0.82271 0.67216 0.48113 0.0
C815 C 0.83243 0.65305 0.52421 0.0
N816 N 0.83497 0.667 0.50381 0.0
C817 C 0.80751 0.66316 0.47806 0.0
C818 C 0.80488 0.64884 0.49855 0.0
C819 C 0.84424 0.71563 0.49628 0.0
C820 C 0.89904 0.72814 0.58073 0.0
C821 C 0.87996 0.74161 0.52719 0.0
C822 C 0.8826 0.75118 0.55717 0.0
C823 C 0.89219 0.74435 0.58412 0.0
N824 N 0.88667 0.7257 0.52408 0.0
C825 C 0.89615 0.71895 0.55034 0.0
Co826 Co 0.32795 0.85609 0.50907 0.0
Co827 Co 0.2953 0.88231 0.48257 0.0
O828 O 0.31432 0.87674 0.51321 0.0
C829 C 0.31634 0.85519 0.58182 0.0
O830 O 0.30124 0.8598 0.57098 0.0
C831 C 0.31726 0.91323 0.48047 0.0
O832 O 0.33058 0.90345 0.47619 0.0
O833 O 0.30934 0.87779 0.44031 0.0
O834 O 0.32776 0.85783 0.45777 0.0
H835 H 0.2559 0.87311 0.38196 0.0
H836 H 0.33972 0.88402 0.55441 0.0
O837 O 0.32855 0.85362 0.56051 0.0
H838 H 0.38489 0.87669 0.46727 0.0
H839 H 0.37511 0.81626 0.54266 0.0
H840 H 0.32683 0.82576 0.4637 0.0
H841 H 0.35955 0.85834 0.46657 0.0
H842 H 0.35802 0.84239 0.54681 0.0
O843 O 0.30248 0.90674 0.48231 0.0
H844 H 0.27964 0.86611 0.42111 0.0
H845 H 0.27072 0.91109 0.47893 0.0
H846 H 0.34367 0.79951 0.45846 0.0
H847 H 0.36493 0.90257 0.55627 0.0
H848 H 0.368 0.79463 0.49814 0.0
H849 H 0.38771 0.89899 0.5124 0.0
O850 O 0.3072 0.84171 0.50768 0.0
H851 H 0.28406 0.9069 0.60053 0.0
H852 H 0.26038 0.8726 0.50529 0.0
H853 H 0.24327 0.87745 0.55784 0.0
H854 H 0.2551 0.89475 0.60593 0.0
H855 H 0.30081 0.90153 0.54769 0.0
H856 H 0.24699 0.91865 0.44025 0.0
H857 H 0.2394 0.89955 0.39143 0.0
O858 O 0.28728 0.85814 0.48303 0.0
C859 C 0.32097 0.86689 0.43424 0.0
C860 C 0.25906 0.88151 0.4032 0.0
C861 C 0.25407 0.90708 0.43588 0.0
N862 N 0.27649 0.88812 0.45239 0.0
C863 C 0.27245 0.87759 0.4255 0.0
C864 C 0.26756 0.90276 0.45763 0.0
C865 C 0.24981 0.89636 0.40851 0.0
C866 C 0.34966 0.88229 0.53544 0.0
N867 N 0.34819 0.87008 0.51048 0.0
C868 C 0.36387 0.89287 0.53654 0.0
C869 C 0.37663 0.89087 0.51188 0.0
C870 C 0.37505 0.87837 0.48653 0.0
C871 C 0.36065 0.86805 0.4862 0.0
C872 C 0.36456 0.81826 0.52518 0.0
C873 C 0.33747 0.82377 0.48092 0.0
C874 C 0.35482 0.83301 0.52745 0.0
N875 N 0.34152 0.83565 0.50534 0.0
C876 C 0.34693 0.80886 0.47789 0.0
C877 C 0.36057 0.80612 0.50018 0.0
C878 C 0.29241 0.84394 0.49506 0.0
C879 C 0.27877 0.89935 0.57975 0.0
C880 C 0.26567 0.87999 0.5262 0.0
C881 C 0.25589 0.88278 0.55584 0.0
C882 C 0.26253 0.89251 0.58278 0.0
N883 N 0.2816 0.8867 0.52343 0.0
C884 C 0.28817 0.8963 0.54971 0.0
Co885 Co 0.15233 0.32772 0.50802 0.0
Co886 Co 0.1256 0.29531 0.48255 0.0
O887 O 0.13156 0.31432 0.51297 0.0
C888 C 0.15355 0.31668 0.58128 0.0
O889 O 0.14873 0.30152 0.57122 0.0
C890 C 0.09457 0.31718 0.48159 0.0
O891 O 0.10421 0.33058 0.47699 0.0
O892 O 0.12967 0.3094 0.44019 0.0
O893 O 0.15031 0.32728 0.4567 0.0
H894 H 0.13361 0.25607 0.38127 0.0
H895 H 0.12477 0.34004 0.55367 0.0
O896 O 0.1551 0.32865 0.5594 0.0
H897 H 0.13213 0.38464 0.46535 0.0
H898 H 0.19283 0.3747 0.53951 0.0
H899 H 0.18242 0.32602 0.46206 0.0
H900 H 0.15019 0.3591 0.46481 0.0
H901 H 0.16654 0.3579 0.54466 0.0
O902 O 0.10119 0.30246 0.48337 0.0
H903 H 0.14107 0.27975 0.42022 0.0
H904 H 0.09681 0.27069 0.4802 0.0
H905 H 0.20882 0.34256 0.45583 0.0
H906 H 0.10652 0.36545 0.55537 0.0
H907 H 0.21416 0.36709 0.49475 0.0
H908 H 0.11012 0.38795 0.51091 0.0
O909 O 0.16649 0.30681 0.50682 0.0
H910 H 0.10223 0.28398 0.60148 0.0
H911 H 0.13555 0.26037 0.50475 0.0
H912 H 0.13121 0.24322 0.55741 0.0
H913 H 0.1144 0.25501 0.60625 0.0
H914 H 0.10709 0.30077 0.54849 0.0
H915 H 0.08879 0.24701 0.44173 0.0
H916 H 0.1073 0.23953 0.39192 0.0
O917 O 0.14974 0.28727 0.48182 0.0
C918 C 0.14082 0.32073 0.4336 0.0
C919 C 0.12547 0.25919 0.40293 0.0
C920 C 0.1003 0.25412 0.43684 0.0
N921 N 0.11944 0.27653 0.45256 0.0
C922 C 0.12965 0.27255 0.42513 0.0
C923 C 0.10488 0.26757 0.45847 0.0
C924 C 0.11069 0.24992 0.40891 0.0
C925 C 0.12651 0.34985 0.53443 0.0
N926 N 0.13856 0.34811 0.50923 0.0
C927 C 0.1161 0.36418 0.53544 0.0
C928 C 0.1181 0.37678 0.51045 0.0
C929 C 0.13044 0.37493 0.48486 0.0
C930 C 0.1406 0.36041 0.48462 0.0
C931 C 0.19063 0.36406 0.52236 0.0
C932 C 0.18461 0.33674 0.47895 0.0
C933 C 0.17578 0.35448 0.52519 0.0
N934 N 0.17289 0.34107 0.5035 0.0
C935 C 0.1996 0.34603 0.47536 0.0
C936 C 0.20259 0.35979 0.49723 0.0
C937 C 0.16404 0.29214 0.49381 0.0
C938 C 0.10957 0.2787 0.58037 0.0
C939 C 0.12838 0.26565 0.52598 0.0
C940 C 0.12587 0.25584 0.55568 0.0
C941 C 0.11642 0.26245 0.58305 0.0
N942 N 0.12165 0.28159 0.52355 0.0
C943 C 0.11232 0.28812 0.55025 0.0
C944 C 0.17206 0.56814 0.98669 0.0
C945 C 0.18811 0.57581 0.98336 0.0
C946 C 0.17062 0.55051 0.99106 0.0
C947 C 0.19472 0.51049 0.97836 0.0
H948 H 0.16446 0.49185 0.04787 0.0
C949 C 0.2028 0.44255 0.02839 0.0
C950 C 0.18828 0.43243 0.03323 0.0
C951 C 0.20134 0.45986 0.02144 0.0
C952 C 0.17281 0.49684 0.02804 0.0
H953 H 0.21519 0.57084 0.98191 0.0
H954 H 0.21268 0.54041 0.98959 0.0
H955 H 0.16438 0.52241 0.03638 0.0
H956 H 0.16078 0.4328 0.03514 0.0
H957 H 0.15825 0.46323 0.02301 0.0
H958 H 0.20334 0.48507 0.97027 0.0
C959 C 0.20117 0.54789 0.98843 0.0
C960 C 0.17276 0.51435 0.02143 0.0
C961 C 0.20261 0.56543 0.98423 0.0
C962 C 0.17223 0.44021 0.03163 0.0
C963 C 0.17077 0.45765 0.02475 0.0
C964 C 0.19478 0.49306 0.98497 0.0
C965 C 0.18518 0.54017 0.99195 0.0
C966 C 0.18397 0.52143 0.99696 0.0
C967 C 0.18533 0.46763 0.01909 0.0
C968 C 0.18409 0.48603 0.01037 0.0
H969 H 0.16063 0.57576 0.98628 0.0
H970 H 0.1581 0.54496 0.99349 0.0
H971 H 0.20324 0.51542 0.95877 0.0
H972 H 0.21539 0.43708 0.02958 0.0
H973 H 0.21284 0.4672 0.01794 0.0
C974 C 0.44292 0.20342 0.9901 0.0
C975 C 0.43287 0.18894 0.98423 0.0
C976 C 0.46022 0.20193 0.99712 0.0
C977 C 0.49732 0.1736 0.98922 0.0
H978 H 0.51568 0.2032 0.06022 0.0
C979 C 0.56852 0.17249 0.03136 0.0
C980 C 0.57615 0.18852 0.03539 0.0
C981 C 0.5509 0.17106 0.02675 0.0
C982 C 0.5108 0.19492 0.04015 0.0
H983 H 0.43336 0.16149 0.98054 0.0
H984 H 0.46377 0.15889 0.99284 0.0
H985 H 0.48535 0.20337 0.04846 0.0
H986 H 0.57114 0.21558 0.03791 0.0
H987 H 0.54071 0.21308 0.02988 0.0
H988 H 0.52294 0.16533 0.98071 0.0
C989 C 0.45815 0.17142 0.99184 0.0
C990 C 0.49339 0.19502 0.03338 0.0
C991 C 0.44072 0.17291 0.98486 0.0
C992 C 0.56575 0.20301 0.03502 0.0
C993 C 0.54822 0.20158 0.03062 0.0
C994 C 0.51482 0.1735 0.99601 0.0
C995 C 0.46806 0.18592 0.99853 0.0
C996 C 0.48644 0.18462 0.00737 0.0
C997 C 0.54053 0.18562 0.02637 0.0
C998 C 0.52181 0.18442 0.02112 0.0
H999 H 0.4374 0.216 0.98965 0.0
H1000 H 0.4675 0.2134 0.0014 0.0
H1001 H 0.4924 0.16548 0.96891 0.0
H1002 H 0.57616 0.16107 0.03137 0.0
H1003 H 0.54537 0.15857 0.02376 0.0
C1004 C 0.83447 0.43993 0.98594 0.0
C1005 C 0.81844 0.43229 0.98187 0.0
C1006 C 0.8359 0.45754 0.99058 0.0
C1007 C 0.81211 0.49766 0.9773 0.0
H1008 H 0.84162 0.5159 0.04858 0.0
C1009 C 0.80396 0.56557 0.02751 0.0
C1010 C 0.81849 0.57552 0.03347 0.0
C1011 C 0.80536 0.54826 0.02038 0.0
C1012 C 0.83349 0.51103 0.02826 0.0
H1013 H 0.79139 0.43728 0.97929 0.0
H1014 H 0.79388 0.46773 0.98737 0.0
H1015 H 0.84164 0.48538 0.03673 0.0
H1016 H 0.84594 0.57488 0.03719 0.0
H1017 H 0.84837 0.54447 0.02469 0.0
H1018 H 0.80378 0.52315 0.96902 0.0
C1019 C 0.80538 0.46021 0.98664 0.0
C1020 C 0.83351 0.49354 0.02144 0.0
C1021 C 0.80394 0.44269 0.9822 0.0
C1022 C 0.83448 0.5676 0.03279 0.0
C1023 C 0.83588 0.55017 0.02571 0.0
C1024 C 0.81209 0.51507 0.98409 0.0
C1025 C 0.82135 0.46789 0.99097 0.0
C1026 C 0.82257 0.4866 0.99632 0.0
C1027 C 0.82132 0.54035 0.01896 0.0
C1028 C 0.82252 0.52196 0.01011 0.0
H1029 H 0.84589 0.43229 0.98596 0.0
H1030 H 0.84839 0.46305 0.99361 0.0
H1031 H 0.80381 0.49282 0.95723 0.0
H1032 H 0.79141 0.57115 0.02798 0.0
H1033 H 0.79385 0.54105 0.01605 0.0
C1034 C 0.56514 0.8048 0.99046 0.0
C1035 C 0.57522 0.81931 0.98519 0.0
C1036 C 0.54783 0.80628 0.99746 0.0
C1037 C 0.51083 0.83475 0.99026 0.0
H1038 H 0.49227 0.80468 0.0602 0.0
C1039 C 0.43955 0.83568 0.03178 0.0
C1040 C 0.43189 0.81964 0.03528 0.0
C1041 C 0.45718 0.83712 0.02737 0.0
C1042 C 0.4972 0.8131 0.04043 0.0
H1043 H 0.57481 0.84679 0.98259 0.0
H1044 H 0.54439 0.84935 0.99483 0.0
H1045 H 0.52262 0.80452 0.04866 0.0
H1046 H 0.43687 0.79256 0.03705 0.0
H1047 H 0.4673 0.79507 0.02934 0.0
H1048 H 0.48525 0.84314 0.9818 0.0
C1049 C 0.54999 0.83683 0.99338 0.0
C1050 C 0.51462 0.813 0.03379 0.0
C1051 C 0.56742 0.83536 0.98644 0.0
C1052 C 0.44228 0.80513 0.03457 0.0
C1053 C 0.45981 0.80657 0.03035 0.0
C1054 C 0.49332 0.83484 0.99691 0.0
C1055 C 0.54004 0.82229 -0.00057 0.0
C1056 C 0.52164 0.82356 0.00815 0.0
C1057 C 0.46752 0.82256 0.02665 0.0
C1058 C 0.48626 0.82376 0.02162 0.0
H1059 H 0.57063 0.79222 0.98954 0.0
H1060 H 0.54051 0.79479 0.00127 0.0
H1061 H 0.5158 0.843 0.97025 0.0
H1062 H 0.43192 0.8471 0.03207 0.0
H1063 H 0.46272 0.84963 0.02479 0.0
C1064 C 0.6728 0.06859 0.48775 0.0
C1065 C 0.68881 0.0763 0.48416 0.0
C1066 C 0.67142 0.05095 0.49211 0.0
C1067 C 0.69551 0.011 0.47866 0.0
H1068 H 0.6657 0.99224 0.54884 0.0
C1069 C 0.70375 0.94286 0.52767 0.0
C1070 C 0.68923 0.93283 0.53315 0.0
C1071 C 0.70232 0.96019 0.52082 0.0
C1072 C 0.67392 0.99726 0.52882 0.0
H1073 H 0.7159 0.0714 0.4822 0.0
H1074 H 0.71349 0.04095 0.48981 0.0
H1075 H 0.66554 0.02281 0.53758 0.0
H1076 H 0.66176 0.93334 0.53626 0.0
H1077 H 0.65926 0.96378 0.52426 0.0
H1078 H 0.70406 0.98561 0.4701 0.0
C1079 C 0.70196 0.04841 0.48891 0.0
C1080 C 0.67382 0.01478 0.52234 0.0
C1081 C 0.70335 0.06595 0.48475 0.0
C1082 C 0.67321 0.94069 0.53224 0.0
C1083 C 0.67178 0.95814 0.52544 0.0
C1084 C 0.69561 0.99356 0.48512 0.0
C1085 C 0.68601 0.04065 0.49268 0.0
C1086 C 0.68486 0.0219 0.49762 0.0
C1087 C 0.68633 0.96805 0.51922 0.0
C1088 C 0.68508 0.98648 0.51074 0.0
H1089 H 0.66134 0.07618 0.48756 0.0
H1090 H 0.65893 0.04536 0.49474 0.0
H1091 H 0.70389 0.01598 0.45888 0.0
H1092 H 0.71632 0.93732 0.52833 0.0
H1093 H 0.71381 0.96747 0.51688 0.0
C1094 C 0.93994 0.67249 0.48533 0.0
C1095 C 0.93211 0.68853 0.48524 0.0
C1096 C 0.95737 0.67093 0.49225 0.0
C1097 C 0.99267 0.69415 0.53446 0.0
H1098 H 0.02214 0.66496 0.48048 0.0
C1099 C 0.06499 0.7023 0.53551 0.0
C1100 C 0.07544 0.68784 0.53534 0.0
C1101 C 0.04746 0.70085 0.53127 0.0
C1102 C 0.01404 0.67298 0.49614 0.0
H1103 H 0.93665 0.71553 0.49163 0.0
H1104 H 0.96676 0.71281 0.50329 0.0
H1105 H 0.99159 0.66518 0.46893 0.0
H1106 H 0.07551 0.66042 0.53053 0.0
H1107 H 0.04471 0.65788 0.52319 0.0
H1108 H 0.015 0.70213 0.56139 0.0
C1109 C 0.95947 0.70139 0.49861 0.0
C1110 C 0.99653 0.67312 0.4895 0.0
C1111 C 0.94216 0.70295 0.49164 0.0
C1112 C 0.06784 0.67182 0.53094 0.0
C1113 C 0.05021 0.67037 0.52649 0.0
C1114 C 0.0101 0.69401 0.54109 0.0
C1115 C 0.96729 0.68537 0.49943 0.0
C1116 C 0.98569 0.68398 0.50812 0.0
C1117 C 0.03981 0.6849 0.52665 0.0
C1118 C 0.02107 0.68369 0.52157 0.0
H1119 H 0.93258 0.66111 0.48058 0.0
H1120 H 0.96299 0.65839 0.4928 0.0
H1121 H 0.98466 0.70236 0.5499 0.0
H1122 H 0.07035 0.71486 0.5387 0.0
H1123 H 0.03992 0.71234 0.53096 0.0
C1124 C 0.30549 0.06466 0.53676 0.0
C1125 C 0.32003 0.07501 0.53778 0.0
C1126 C 0.30688 0.04714 0.53239 0.0
C1127 C 0.33514 0.01364 0.49891 0.0
H1128 H 0.30445 0.98428 0.54964 0.0
C1129 C 0.33528 0.93955 0.48735 0.0
C1130 C 0.31919 0.93182 0.4858 0.0
C1131 C 0.33682 0.95696 0.49448 0.0
C1132 C 0.31303 0.99229 0.53505 0.0
H1133 H 0.34751 0.0749 0.53504 0.0
H1134 H 0.34995 0.0441 0.52751 0.0
H1135 H 0.30472 0.01458 0.5617 0.0
H1136 H 0.29211 0.93654 0.48973 0.0
H1137 H 0.29481 0.96663 0.50178 0.0
H1138 H 0.34328 0.99122 0.472 0.0
C1139 C 0.33745 0.04968 0.52995 0.0
C1140 C 0.3132 0.00969 0.54199 0.0
C1141 C 0.33606 0.06731 0.53451 0.0
C1142 C 0.30473 0.94197 0.49089 0.0
C1143 C 0.30627 0.95926 0.49808 0.0
C1144 C 0.33498 0.99615 0.49196 0.0
C1145 C 0.32285 0.03938 0.52886 0.0
C1146 C 0.32399 0.02066 0.52355 0.0
C1147 C 0.32231 0.96697 0.50042 0.0
C1148 C 0.32366 0.98533 0.50947 0.0
H1149 H 0.29292 0.0701 0.53905 0.0
H1150 H 0.29535 0.03969 0.53109 0.0
H1151 H 0.34354 0.02173 0.48407 0.0
H1152 H 0.34669 0.93211 0.48365 0.0
H1153 H 0.34937 0.96249 0.49621 0.0
C1154 C 0.06804 0.33489 0.48846 0.0
C1155 C 0.07596 0.3189 0.48696 0.0
C1156 C 0.05059 0.3362 0.49536 0.0
C1157 C 0.01532 0.31188 0.53503 0.0
H1158 H 0.98584 0.34218 0.48369 0.0
C1159 C 0.94291 0.30385 0.53572 0.0
C1160 C 0.93255 0.31836 0.53682 0.0
C1161 C 0.96045 0.3053 0.53144 0.0
C1162 C 0.99394 0.33382 0.49862 0.0
H1163 H 0.07155 0.29176 0.49082 0.0
H1164 H 0.04141 0.29407 0.50244 0.0
H1165 H 0.01641 0.34229 0.47231 0.0
H1166 H 0.93262 0.34585 0.53419 0.0
H1167 H 0.96339 0.34838 0.52684 0.0
H1168 H 0.99298 0.30325 0.56107 0.0
C1169 C 0.04865 0.30562 0.4989 0.0
C1170 C 0.01146 0.33388 0.49207 0.0
C1171 C 0.06597 0.30431 0.49195 0.0
C1172 C 0.94022 0.33441 0.53361 0.0
C1173 C 0.95784 0.33586 0.52915 0.0
C1174 C 0.99788 0.31182 0.54155 0.0
C1175 C 0.04074 0.32156 0.50112 0.0
C1176 C 0.02231 0.32266 0.50974 0.0
C1177 C 0.96817 0.32129 0.52805 0.0
C1178 C 0.98691 0.32255 0.52299 0.0
H1179 H 0.07536 0.34639 0.48482 0.0
H1180 H 0.0449 0.34868 0.49701 0.0
H1181 H 0.02334 0.30335 0.54973 0.0
H1182 H 0.93748 0.29127 0.53794 0.0
H1183 H 0.96794 0.29379 0.53014 0.0
C1184 C 0.24506 0.3333 0.02996 0.0
C1185 C 0.22771 0.33031 0.02381 0.0
C1186 C 0.25692 0.32024 0.02652 0.0
C1187 C 0.26427 0.27561 0.03348 0.0
H1188 H 0.29916 0.2816 0.9637 0.0
C1189 C 0.3144 0.2234 0.00717 0.0
C1190 C 0.33086 0.22856 0.99779 0.0
C1191 C 0.30112 0.23517 0.00896 0.0
C1192 C 0.28973 0.27977 0.98376 0.0
H1193 H 0.2092 0.31088 0.011 0.0
H1194 H 0.23003 0.28788 0.00631 0.0
H1195 H 0.27752 0.30333 0.97144 0.0
H1196 H 0.34608 0.25023 0.98243 0.0
H1197 H 0.32341 0.27076 0.98755 0.0
H1198 H 0.27682 0.25255 0.04728 0.0
C1199 C 0.23433 0.30052 0.01302 0.0
C1200 C 0.27725 0.2922 0.9879 0.0
C1201 C 0.22246 0.31369 0.01565 0.0
C1202 C 0.33365 0.24576 0.98997 0.0
C1203 C 0.32048 0.25756 0.99249 0.0
C1204 C 0.277 0.26333 0.02992 0.0
C1205 C 0.25168 0.30379 0.0178 0.0
C1206 C 0.26446 0.29025 0.01284 0.0
C1207 C 0.30399 0.25249 0.00201 0.0
C1208 C 0.29 0.26526 0.00509 0.0
H1209 H 0.24961 0.34581 0.03676 0.0
H1210 H 0.27024 0.323 0.03066 0.0
H1211 H 0.25456 0.27392 0.05304 0.0
H1212 H 0.31172 0.21023 0.01298 0.0
H1213 H 0.28858 0.23061 0.01562 0.0
C1214 C 0.78669 0.31322 0.00532 0.0
C1215 C 0.78108 0.32957 0.99605 0.0
C1216 C 0.77512 0.2998 0.00855 0.0
C1217 C 0.73221 0.29102 0.03338 0.0
H1218 H 0.73348 0.25047 0.97659 0.0
C1219 C 0.67581 0.24475 0.03046 0.0
C1220 C 0.67857 0.22742 0.02396 0.0
C1221 C 0.68911 0.25641 0.02826 0.0
C1222 C 0.73308 0.26151 0.99324 0.0
H1223 H 0.75887 0.34432 0.98174 0.0
H1224 H 0.73878 0.32111 0.98881 0.0
H1225 H 0.75561 0.27199 0.97021 0.0
H1226 H 0.6978 0.20871 0.01139 0.0
H1227 H 0.72117 0.22892 0.00917 0.0
H1228 H 0.71016 0.28061 0.05737 0.0
C1229 C 0.75214 0.31874 0.99336 0.0
C1230 C 0.74573 0.27387 0.98935 0.0
C1231 C 0.76369 0.33203 0.98937 0.0
C1232 C 0.69515 0.22199 0.01622 0.0
C1233 C 0.70856 0.23364 0.01467 0.0
C1234 C 0.71979 0.27855 0.03784 0.0
C1235 C 0.75772 0.30256 0.00324 0.0
C1236 C 0.7452 0.28885 0.00896 0.0
C1237 C 0.70572 0.25107 0.02032 0.0
C1238 C 0.7198 0.26374 0.01735 0.0
H1239 H 0.79999 0.31082 0.01044 0.0
H1240 H 0.77969 0.28738 0.01615 0.0
H1241 H 0.73167 0.30241 0.04906 0.0
H1242 H 0.66328 0.24946 0.03663 0.0
H1243 H 0.68621 0.26969 0.0321 0.0
C1244 C 0.76219 0.67505 0.02854 0.0
C1245 C 0.77954 0.67784 0.02207 0.0
C1246 C 0.75045 0.68823 0.02491 0.0
C1247 C 0.74357 0.73293 0.03102 0.0
H1248 H 0.70901 0.72735 0.96044 0.0
C1249 C 0.694 0.78565 0.00386 0.0
C1250 C 0.67752 0.78054 0.99452 0.0
C1251 C 0.70725 0.77383 0.00563 0.0
C1252 C 0.71834 0.72907 0.98071 0.0
H1253 H 0.79821 0.697 0.00849 0.0
H1254 H 0.77763 0.72017 0.00349 0.0
H1255 H 0.73024 0.70529 0.96887 0.0
H1256 H 0.66226 0.75889 0.97906 0.0
H1257 H 0.68482 0.73833 0.98407 0.0
H1258 H 0.73131 0.75623 0.04433 0.0
C1259 C 0.77321 0.70762 0.01058 0.0
C1260 C 0.73059 0.71645 0.98526 0.0
C1261 C 0.78493 0.69434 0.01338 0.0
C1262 C 0.67471 0.76336 0.98656 0.0
C1263 C 0.68782 0.75151 0.98902 0.0
C1264 C 0.73107 0.74542 0.02705 0.0
C1265 C 0.75585 0.70458 0.01572 0.0
C1266 C 0.74325 0.71825 0.01051 0.0
C1267 C 0.70431 0.75652 0.99864 0.0
C1268 C 0.71817 0.74363 0.00195 0.0
H1269 H 0.75756 0.66263 0.03577 0.0
H1270 H 0.73712 0.68565 0.02928 0.0
H1271 H 0.75321 0.73452 0.05077 0.0
H1272 H 0.69669 0.79881 0.00984 0.0
H1273 H 0.71979 0.77832 0.01241 0.0
C1274 C 0.24446 0.67532 0.99168 0.0
C1275 C 0.22702 0.67815 0.99703 0.0
C1276 C 0.25614 0.68852 0.99545 0.0
C1277 C 0.26268 0.73359 0.98942 0.0
H1278 H 0.29833 0.72709 0.05734 0.0
C1279 C 0.31296 0.78578 0.01614 0.0
C1280 C 0.32957 0.78045 0.02387 0.0
C1281 C 0.29962 0.77404 0.01458 0.0
C1282 C 0.28867 0.72908 0.03783 0.0
H1283 H 0.20818 0.6974 0.00884 0.0
H1284 H 0.22871 0.72063 0.01421 0.0
H1285 H 0.27687 0.70522 0.04932 0.0
H1286 H 0.345 0.75851 0.0365 0.0
H1287 H 0.32221 0.73812 0.03196 0.0
H1288 H 0.27482 0.75702 0.97649 0.0
C1289 C 0.23322 0.70803 0.0078 0.0
C1290 C 0.2763 0.71656 0.0335 0.0
C1291 C 0.22152 0.69472 0.00479 0.0
C1292 C 0.33244 0.76314 0.03033 0.0
C1293 C 0.31922 0.75139 0.02812 0.0
C1294 C 0.27528 0.746 0.99319 0.0
C1295 C 0.25066 0.70495 0.00379 0.0
C1296 C 0.26326 0.71865 0.00913 0.0
C1297 C 0.30258 0.75662 0.0202 0.0
C1298 C 0.28858 0.74386 0.01727 0.0
H1299 H 0.24919 0.66284 0.98522 0.0
H1300 H 0.26952 0.68589 0.99188 0.0
H1301 H 0.25276 0.73542 0.97033 0.0
H1302 H 0.31022 0.79904 0.01134 0.0
H1303 H 0.28698 0.77868 0.00909 0.0
C1304 C 0.8328 0.74528 0.49109 0.0
C1305 C 0.82996 0.72793 0.49745 0.0
C1306 C 0.81966 0.75705 0.49479 0.0
C1307 C 0.77487 0.76395 0.48896 0.0
H1308 H 0.78081 0.79882 0.55879 0.0
C1309 C 0.72236 0.81379 0.51606 0.0
C1310 C 0.72757 0.8303 0.52496 0.0
C1311 C 0.73415 0.80049 0.51436 0.0
C1312 C 0.77898 0.7894 0.53872 0.0
H1313 H 0.81074 0.70931 0.51092 0.0
H1314 H 0.78764 0.72995 0.51606 0.0
H1315 H 0.80279 0.77751 0.55037 0.0
H1316 H 0.74933 0.84557 0.53971 0.0
H1317 H 0.7698 0.82292 0.53482 0.0
H1318 H 0.75153 0.77619 0.47585 0.0
C1319 C 0.80019 0.73434 0.50899 0.0
C1320 C 0.79156 0.77711 0.53418 0.0
C1321 C 0.81344 0.72258 0.50612 0.0
C1322 C 0.74479 0.83309 0.53255 0.0
C1323 C 0.75659 0.81994 0.53017 0.0
C1324 C 0.76242 0.77649 0.49292 0.0
C1325 C 0.80329 0.7517 0.50395 0.0
C1326 C 0.78965 0.76434 0.50919 0.0
C1327 C 0.7515 0.80341 0.52098 0.0
C1328 C 0.76434 0.7895 0.51774 0.0
H1329 H 0.84523 0.74988 0.48388 0.0
H1330 H 0.82228 0.77039 0.49048 0.0
H1331 H 0.77318 0.75423 0.46941 0.0
H1332 H 0.70917 0.8111 0.51037 0.0
H1333 H 0.72959 0.78793 0.50792 0.0
C1334 C 0.2628 0.83238 0.49029 0.0
C1335 C 0.28021 0.82956 0.49606 0.0
C1336 C 0.25107 0.81922 0.49417 0.0
C1337 C 0.24448 0.77412 0.48924 0.0
H1338 H 0.20871 0.78104 0.55672 0.0
C1339 C 0.1943 0.72202 0.51699 0.0
C1340 C 0.17766 0.72734 0.52446 0.0
C1341 C 0.2076 0.73378 0.51526 0.0
C1342 C 0.2184 0.77893 0.53732 0.0
H1343 H 0.29895 0.81033 0.50866 0.0
H1344 H 0.27836 0.78717 0.51417 0.0
H1345 H 0.23015 0.80289 0.54823 0.0
H1346 H 0.16214 0.7493 0.53652 0.0
H1347 H 0.18488 0.76973 0.53167 0.0
H1348 H 0.23239 0.7506 0.47688 0.0
C1349 C 0.2739 0.79974 0.50738 0.0
C1350 C 0.23076 0.79144 0.53272 0.0
C1351 C 0.28565 0.81301 0.50428 0.0
C1352 C 0.17473 0.74468 0.53055 0.0
C1353 C 0.18792 0.75645 0.52817 0.0
C1354 C 0.23188 0.76173 0.49326 0.0
C1355 C 0.25649 0.80283 0.503 0.0
C1356 C 0.24385 0.78919 0.50853 0.0
C1357 C 0.20458 0.75123 0.52044 0.0
C1358 C 0.21855 0.764 0.51721 0.0
H1359 H 0.25811 0.84483 0.48348 0.0
H1360 H 0.23771 0.82185 0.4903 0.0
H1361 H 0.25443 0.77217 0.47029 0.0
H1362 H 0.19707 0.70874 0.51248 0.0
H1363 H 0.22027 0.72915 0.50996 0.0
C1364 C 0.28568 0.19345 0.51127 0.0
C1365 C 0.28031 0.17692 0.51978 0.0
C1366 C 0.27391 0.20669 0.5083 0.0
C1367 C 0.23092 0.21535 0.48359 0.0
H1368 H 0.23255 0.25553 0.54146 0.0
C1369 C 0.17528 0.26257 0.48653 0.0
C1370 C 0.17829 0.27978 0.4938 0.0
C1371 C 0.18835 0.25066 0.48865 0.0
C1372 C 0.23204 0.2446 0.52451 0.0
H1373 H 0.25831 0.16159 0.53277 0.0
H1374 H 0.23782 0.18453 0.52604 0.0
H1375 H 0.25443 0.23377 0.54736 0.0
H1376 H 0.19776 0.29805 0.5075 0.0
H1377 H 0.22077 0.27744 0.50946 0.0
H1378 H 0.20906 0.22617 0.45965 0.0
C1379 C 0.25116 0.18717 0.52194 0.0
C1380 C 0.24454 0.23209 0.52816 0.0
C1381 C 0.26293 0.17404 0.52573 0.0
C1382 C 0.19491 0.28487 0.50209 0.0
C1383 C 0.20811 0.27297 0.50351 0.0
C1384 C 0.21866 0.22799 0.47935 0.0
C1385 C 0.25653 0.20357 0.51307 0.0
C1386 C 0.24391 0.21726 0.5081 0.0
C1387 C 0.20499 0.25563 0.49722 0.0
C1388 C 0.21882 0.24269 0.50017 0.0
H1389 H 0.29897 0.19618 0.50677 0.0
H1390 H 0.27833 0.21927 0.50146 0.0
H1391 H 0.23032 0.20409 0.46754 0.0
H1392 H 0.16271 0.25813 0.47983 0.0
H1393 H 0.18522 0.23746 0.48425 0.0
C1394 C 0.83215 0.2638 0.52964 0.0
C1395 C 0.82969 0.28122 0.52333 0.0
C1396 C 0.81883 0.25228 0.52558 0.0
C1397 C 0.77387 0.246 0.52961 0.0
H1398 H 0.78066 0.21041 0.46162 0.0
C1399 C 0.72199 0.19544 0.5024 0.0
C1400 C 0.72745 0.17885 0.49485 0.0
C1401 C 0.73364 0.20887 0.50395 0.0
C1402 C 0.77859 0.22006 0.48114 0.0
H1403 H 0.81091 0.30021 0.50955 0.0
H1404 H 0.78744 0.27996 0.50369 0.0
H1405 H 0.80249 0.23189 0.4701 0.0
H1406 H 0.74952 0.16355 0.48252 0.0
H1407 H 0.76974 0.18649 0.48702 0.0
H1408 H 0.75042 0.23379 0.54216 0.0
C1409 C 0.79987 0.27535 0.51108 0.0
C1410 C 0.79107 0.23245 0.48571 0.0
C1411 C 0.81332 0.28689 0.51438 0.0
C1412 C 0.74479 0.17609 0.48853 0.0
C1413 C 0.75644 0.1894 0.49072 0.0
C1414 C 0.7615 0.23337 0.5256 0.0
C1415 C 0.80263 0.25792 0.51598 0.0
C1416 C 0.78889 0.24543 0.51013 0.0
C1417 C 0.75108 0.20601 0.49849 0.0
C1418 C 0.76375 0.22009 0.50152 0.0
H1419 H 0.84446 0.25892 0.53701 0.0
H1420 H 0.8212 0.2389 0.52984 0.0
H1421 H 0.77198 0.25588 0.54874 0.0
H1422 H 0.7087 0.1981 0.5071 0.0
H1423 H 0.7289 0.22148 0.50932 0.0
C1424 C 0.15541 0.3394 0.39043 0.0
C1425 C 0.14346 0.32655 0.39736 0.0
C1426 C 0.15874 0.34458 0.35657 0.0
C1427 C 0.15626 0.32991 0.26626 0.0
H1428 H 0.16504 0.37726 0.24524 0.0
C1429 C 0.16715 0.35275 0.12672 0.0
C1430 C 0.18041 0.36438 0.12067 0.0
C1431 C 0.16193 0.34892 0.16031 0.0
C1432 C 0.16279 0.36397 0.25077 0.0
H1433 H 0.12549 0.30921 0.37372 0.0
H1434 H 0.13125 0.31839 0.31426 0.0
H1435 H 0.1564 0.36911 0.30366 0.0
H1436 H 0.19834 0.3813 0.14565 0.0
H1437 H 0.1892 0.37449 0.2047 0.0
H1438 H 0.16274 0.32475 0.21349 0.0
C1439 C 0.13813 0.32434 0.3353 0.0
C1440 C 0.1578 0.35929 0.28423 0.0
C1441 C 0.13475 0.31914 0.36938 0.0
C1442 C 0.18807 0.37234 0.14929 0.0
C1443 C 0.1828 0.36847 0.18312 0.0
C1444 C 0.16123 0.33459 0.23284 0.0
C1445 C 0.15024 0.33707 0.32853 0.0
C1446 C 0.15456 0.34218 0.29244 0.0
C1447 C 0.1698 0.35654 0.18897 0.0
C1448 C 0.16459 0.35167 0.22469 0.0
H1449 H 0.16249 0.3454 0.41114 0.0
H1450 H 0.16834 0.35419 0.35236 0.0
H1451 H 0.15418 0.3166 0.2718 0.0
H1452 H 0.16084 0.34635 0.10549 0.0
H1453 H 0.15168 0.33992 0.16381 0.0
C1454 C 0.66784 0.15533 0.39122 0.0
C1455 C 0.68103 0.14374 0.39805 0.0
C1456 C 0.66276 0.15876 0.35734 0.0
C1457 C 0.67811 0.15733 0.26738 0.0
H1458 H 0.63072 0.16511 0.24513 0.0
C1459 C 0.65583 0.16777 0.12744 0.0
C1460 C 0.64409 0.18088 0.12111 0.0
C1461 C 0.65956 0.16264 0.16112 0.0
C1462 C 0.64401 0.16314 0.25104 0.0
H1463 H 0.699 0.12647 0.37425 0.0
H1464 H 0.68995 0.13237 0.31481 0.0
H1465 H 0.63867 0.15635 0.30362 0.0
H1466 H 0.62685 0.19866 0.14564 0.0
H1467 H 0.63347 0.18965 0.20488 0.0
H1468 H 0.68347 0.16415 0.21488 0.0
C1469 C 0.6837 0.13892 0.33592 0.0
C1470 C 0.64858 0.15809 0.28452 0.0
C1471 C 0.68881 0.13545 0.36998 0.0
C1472 C 0.63591 0.1885 0.14952 0.0
C1473 C 0.63967 0.18331 0.18344 0.0
C1474 C 0.67355 0.16233 0.23393 0.0
C1475 C 0.67068 0.15072 0.32922 0.0
C1476 C 0.6657 0.15519 0.29314 0.0
C1477 C 0.65172 0.17046 0.18957 0.0
C1478 C 0.65645 0.16532 0.22536 0.0
H1479 H 0.66154 0.16206 0.41202 0.0
H1480 H 0.6529 0.16812 0.3532 0.0
H1481 H 0.69143 0.15554 0.27326 0.0
H1482 H 0.66238 0.16149 0.10637 0.0
H1483 H 0.66866 0.1525 0.16487 0.0
C1484 C 0.84692 0.67715 0.3876 0.0
C1485 C 0.86322 0.68268 0.3971 0.0
C1486 C 0.84362 0.67144 0.35413 0.0
C1487 C 0.86058 0.67188 0.26439 0.0
H1488 H 0.8258 0.6376 0.25172 0.0
C1489 C 0.83035 0.66069 0.13147 0.0
C1490 C 0.82484 0.64439 0.12196 0.0
C1491 C 0.83608 0.66399 0.16493 0.0
C1492 C 0.83574 0.64697 0.25463 0.0
H1493 H 0.8889 0.68659 0.3788 0.0
H1494 H 0.88332 0.67603 0.32022 0.0
H1495 H 0.83466 0.64533 0.3098 0.0
H1496 H 0.82099 0.6187 0.1402 0.0
H1497 H 0.83159 0.62427 0.19876 0.0
H1498 H 0.86219 0.67299 0.20922 0.0
C1499 C 0.87294 0.67647 0.33857 0.0
C1500 C 0.84065 0.65165 0.28811 0.0
C1501 C 0.87619 0.6825 0.37215 0.0
C1502 C 0.82507 0.63141 0.14687 0.0
C1503 C 0.83112 0.63465 0.18043 0.0
C1504 C 0.85589 0.66698 0.23091 0.0
C1505 C 0.8566 0.67077 0.32918 0.0
C1506 C 0.85279 0.66452 0.29349 0.0
C1507 C 0.83679 0.651 0.18985 0.0
C1508 C 0.84306 0.6548 0.22553 0.0
H1509 H 0.83657 0.67735 0.40604 0.0
H1510 H 0.83076 0.66773 0.3478 0.0
H1511 H 0.86993 0.68184 0.26731 0.0
H1512 H 0.83011 0.67106 0.11306 0.0
H1513 H 0.83977 0.67685 0.17128 0.0
C1514 C 0.31918 0.87204 0.3697 0.0
C1515 C 0.32682 0.86392 0.39815 0.0
C1516 C 0.32437 0.86824 0.3358 0.0
C1517 C 0.34552 0.83438 0.28548 0.0
H1518 H 0.35129 0.86919 0.21558 0.0
C1519 C 0.37256 0.81918 0.14944 0.0
C1520 C 0.36419 0.82687 0.12135 0.0
C1521 C 0.36903 0.82428 0.1835 0.0
C1522 C 0.34961 0.8593 0.23474 0.0
H1523 H 0.34626 0.84571 0.41297 0.0
H1524 H 0.35527 0.83938 0.35451 0.0
H1525 H 0.34249 0.87717 0.27402 0.0
H1526 H 0.34566 0.84615 0.10737 0.0
H1527 H 0.33952 0.85477 0.16615 0.0
H1528 H 0.35243 0.81648 0.24625 0.0
C1529 C 0.3451 0.84844 0.35821 0.0
C1530 C 0.34453 0.86388 0.2682 0.0
C1531 C 0.33997 0.85221 0.39187 0.0
C1532 C 0.35246 0.83993 0.12818 0.0
C1533 C 0.34897 0.845 0.16203 0.0
C1534 C 0.35055 0.8298 0.25205 0.0
C1535 C 0.33726 0.85623 0.32972 0.0
C1536 C 0.34242 0.85147 0.29395 0.0
C1537 C 0.35711 0.83719 0.19017 0.0
C1538 C 0.35261 0.84218 0.22622 0.0
H1539 H 0.309 0.88107 0.37354 0.0
H1540 H 0.31802 0.87439 0.31432 0.0
H1541 H 0.34376 0.82447 0.30458 0.0
H1542 H 0.38165 0.80909 0.14518 0.0
H1543 H 0.37565 0.81811 0.20462 0.0
C1544 C 0.13478 0.6883 0.64959 0.0
C1545 C 0.14309 0.68058 0.62147 0.0
C1546 C 0.13834 0.68322 0.68363 0.0
C1547 C 0.15784 0.64826 0.73492 0.0
H1548 H 0.16373 0.6832 0.80455 0.0
C1549 C 0.18833 0.63574 0.86994 0.0
C1550 C 0.18066 0.64387 0.89835 0.0
C1551 C 0.18314 0.63949 0.83601 0.0
C1552 C 0.16197 0.67326 0.78551 0.0
H1553 H 0.16154 0.66124 0.6074 0.0
H1554 H 0.16775 0.65265 0.66618 0.0
H1555 H 0.15501 0.69109 0.7462 0.0
H1556 H 0.16119 0.66209 0.91305 0.0
H1557 H 0.15221 0.66835 0.85455 0.0
H1558 H 0.16501 0.63046 0.77429 0.0
C1559 C 0.15831 0.66244 0.66209 0.0
C1560 C 0.1569 0.67779 0.75207 0.0
C1561 C 0.15479 0.66749 0.62824 0.0
C1562 C 0.16751 0.65557 0.89199 0.0
C1563 C 0.16238 0.6593 0.85831 0.0
C1564 C 0.16295 0.64373 0.76839 0.0
C1565 C 0.15025 0.6703 0.69026 0.0
C1566 C 0.15481 0.66536 0.72632 0.0
C1567 C 0.17024 0.65148 0.82987 0.0
C1568 C 0.16507 0.65618 0.79407 0.0
H1569 H 0.12571 0.69842 0.64537 0.0
H1570 H 0.13177 0.68942 0.70478 0.0
H1571 H 0.15615 0.63833 0.71583 0.0
H1572 H 0.19851 0.62671 0.87384 0.0
H1573 H 0.18951 0.63332 0.81457 0.0
C1574 C 0.32471 0.13283 0.64832 0.0
C1575 C 0.32476 0.14534 0.62236 0.0
C1576 C 0.32987 0.13686 0.68216 0.0
C1577 C 0.33159 0.17185 0.74288 0.0
H1578 H 0.3686 0.14851 0.78901 0.0
C1579 C 0.34612 0.17911 0.88794 0.0
C1580 C 0.36277 0.18388 0.89678 0.0
C1581 C 0.34211 0.17424 0.85423 0.0
C1582 C 0.3583 0.15514 0.77627 0.0
H1583 H 0.32988 0.17191 0.61174 0.0
H1584 H 0.33831 0.17892 0.67059 0.0
H1585 H 0.35961 0.13943 0.73079 0.0
H1586 H 0.38832 0.18713 0.87716 0.0
H1587 H 0.38129 0.17812 0.81773 0.0
H1588 H 0.33001 0.18735 0.78835 0.0
C1589 C 0.33456 0.166 0.66474 0.0
C1590 C 0.35307 0.14985 0.74327 0.0
C1591 C 0.32978 0.16194 0.63101 0.0
C1592 C 0.37539 0.18359 0.87104 0.0
C1593 C 0.3714 0.17835 0.83723 0.0
C1594 C 0.33659 0.1769 0.77599 0.0
C1595 C 0.33474 0.15353 0.69059 0.0
C1596 C 0.33973 0.15825 0.72628 0.0
C1597 C 0.35468 0.17373 0.8286 0.0
C1598 C 0.35002 0.16866 0.79293 0.0
H1599 H 0.32098 0.11993 0.64235 0.0
H1600 H 0.32984 0.12705 0.70182 0.0
H1601 H 0.32128 0.17851 0.73025 0.0
H1602 H 0.33606 0.17926 0.90704 0.0
H1603 H 0.32915 0.17069 0.84825 0.0
C1604 C 0.84076 0.35242 0.89241 0.0
C1605 C 0.82756 0.36408 0.89853 0.0
C1606 C 0.84596 0.34861 0.85873 0.0
C1607 C 0.84514 0.36405 0.7684 0.0
H1608 H 0.85332 0.31674 0.74624 0.0
C1609 C 0.85314 0.34035 0.6278 0.0
C1610 C 0.86481 0.32723 0.62104 0.0
C1611 C 0.84959 0.34538 0.66172 0.0
C1612 C 0.85136 0.33004 0.75206 0.0
H1613 H 0.80969 0.38109 0.87361 0.0
H1614 H 0.81879 0.37438 0.81458 0.0
H1615 H 0.84498 0.32465 0.80482 0.0
H1616 H 0.88211 0.30934 0.64504 0.0
H1617 H 0.87606 0.31832 0.70437 0.0
H1618 H 0.85151 0.36944 0.7156 0.0
C1619 C 0.82517 0.36829 0.83609 0.0
C1620 C 0.84652 0.33458 0.78567 0.0
C1621 C 0.81992 0.3721 0.86993 0.0
C1622 C 0.87305 0.31947 0.64921 0.0
C1623 C 0.86949 0.32454 0.68326 0.0
C1624 C 0.85003 0.35951 0.73477 0.0
C1625 C 0.83813 0.35634 0.83011 0.0
C1626 C 0.84331 0.35163 0.79425 0.0
C1627 C 0.8576 0.33748 0.68994 0.0
C1628 C 0.85313 0.34243 0.72612 0.0
H1629 H 0.84705 0.34601 0.91365 0.0
H1630 H 0.85616 0.33958 0.85511 0.0
H1631 H 0.843 0.37731 0.77425 0.0
H1632 H 0.84646 0.34663 0.60689 0.0
H1633 H 0.84019 0.3552 0.6658 0.0
C1634 C 0.65532 0.84067 0.89207 0.0
C1635 C 0.64346 0.82762 0.89808 0.0
C1636 C 0.65916 0.84592 0.85849 0.0
C1637 C 0.64378 0.84561 0.7682 0.0
H1638 H 0.6912 0.85359 0.7466 0.0
C1639 C 0.668 0.85345 0.62823 0.0
C1640 C 0.68105 0.86522 0.62149 0.0
C1641 C 0.66286 0.84998 0.66207 0.0
C1642 C 0.67788 0.85168 0.7523 0.0
H1643 H 0.62616 0.81007 0.87306 0.0
H1644 H 0.63298 0.81925 0.81406 0.0
H1645 H 0.68313 0.84493 0.80489 0.0
H1646 H 0.69873 0.88274 0.64546 0.0
H1647 H 0.68961 0.87675 0.70483 0.0
H1648 H 0.63855 0.85228 0.71549 0.0
C1649 C 0.63918 0.82548 0.83565 0.0
C1650 C 0.67324 0.84667 0.78572 0.0
C1651 C 0.6353 0.82018 0.86945 0.0
C1652 C 0.68865 0.87363 0.64964 0.0
C1653 C 0.68349 0.87011 0.68368 0.0
C1654 C 0.64842 0.85065 0.73475 0.0
C1655 C 0.65132 0.83828 0.82982 0.0
C1656 C 0.65614 0.84353 0.79409 0.0
C1657 C 0.6706 0.85815 0.69027 0.0
C1658 C 0.66554 0.85368 0.72633 0.0
H1659 H 0.66187 0.8468 0.91333 0.0
H1660 H 0.66833 0.85602 0.85502 0.0
H1661 H 0.63048 0.84354 0.7739 0.0
H1662 H 0.66184 0.84662 0.60737 0.0
H1663 H 0.6531 0.84051 0.66614 0.0
C1664 C 0.84208 0.67188 0.6268 0.0
C1665 C 0.85242 0.68579 0.61831 0.0
C1666 C 0.83814 0.66833 0.66126 0.0
C1667 C 0.83828 0.68749 0.74941 0.0
H1668 H 0.83289 0.64059 0.77791 0.0
C1669 C 0.8351 0.6656 0.89203 0.0
C1670 C 0.82124 0.65522 0.90081 0.0
C1671 C 0.83851 0.66948 0.85747 0.0
C1672 C 0.83424 0.65373 0.77017 0.0
H1673 H 0.86695 0.70677 0.63917 0.0
H1674 H 0.86068 0.70016 0.69965 0.0
H1675 H 0.84047 0.64703 0.71811 0.0
H1676 H 0.8002 0.6406 0.88037 0.0
H1677 H 0.80651 0.64705 0.8195 0.0
H1678 H 0.83268 0.69401 0.80212 0.0
C1679 C 0.85516 0.69228 0.67963 0.0
C1680 C 0.83851 0.65748 0.73589 0.0
C1681 C 0.85887 0.69602 0.645 0.0
C1682 C 0.81093 0.64865 0.87431 0.0
C1683 C 0.81456 0.65228 0.8396 0.0
C1684 C 0.83431 0.68371 0.78383 0.0
C1685 C 0.84469 0.6784 0.68821 0.0
C1686 C 0.8405 0.67442 0.72497 0.0
C1687 C 0.82832 0.66282 0.83098 0.0
C1688 C 0.8322 0.66681 0.79443 0.0
H1689 H 0.83674 0.66388 0.60675 0.0
H1690 H 0.82972 0.6578 0.66663 0.0
H1691 H 0.83937 0.70069 0.74193 0.0
H1692 H 0.84322 0.67093 0.91191 0.0
H1693 H 0.84925 0.67753 0.85141 0.0
C1694 C 0.33291 0.84038 0.62771 0.0
C1695 C 0.31925 0.85093 0.61856 0.0
C1696 C 0.33583 0.83615 0.66228 0.0
C1697 C 0.33068 0.85159 0.74954 0.0
H1698 H 0.33671 0.80468 0.77734 0.0
C1699 C 0.33944 0.83367 0.89261 0.0
C1700 C 0.35034 0.82019 0.90094 0.0
C1701 C 0.33503 0.83692 0.85828 0.0
C1702 C 0.33533 0.81786 0.76999 0.0
H1703 H 0.29796 0.86539 0.63835 0.0
H1704 H 0.30342 0.85833 0.6993 0.0
H1705 H 0.32997 0.81137 0.71714 0.0
H1706 H 0.36524 0.79952 0.87994 0.0
H1707 H 0.35815 0.80562 0.81956 0.0
H1708 H 0.33673 0.85828 0.80167 0.0
C1709 C 0.3117 0.85323 0.67946 0.0
C1710 C 0.33134 0.82165 0.73557 0.0
C1711 C 0.30856 0.85722 0.6447 0.0
C1712 C 0.35675 0.80996 0.87422 0.0
C1713 C 0.35258 0.81341 0.83966 0.0
C1714 C 0.33496 0.84784 0.7838 0.0
C1715 C 0.32534 0.84262 0.68846 0.0
C1716 C 0.32895 0.83854 0.72511 0.0
C1717 C 0.34167 0.82698 0.83125 0.0
C1718 C 0.33729 0.83091 0.79456 0.0
H1719 H 0.34131 0.83525 0.60811 0.0
H1720 H 0.3465 0.82805 0.66862 0.0
H1721 H 0.32915 0.86473 0.74192 0.0
H1722 H 0.33408 0.84163 0.91272 0.0
H1723 H 0.32626 0.84718 0.85307 0.0
C1724 C 0.16883 0.3336 0.626 0.0
C1725 C 0.15806 0.31997 0.6178 0.0
C1726 C 0.17325 0.33695 0.66029 0.0
C1727 C 0.17324 0.31798 0.74874 0.0
H1728 H 0.17909 0.36492 0.77664 0.0
C1729 C 0.17536 0.34061 0.89099 0.0
C1730 C 0.18891 0.35131 0.90022 0.0
C1731 C 0.17252 0.33634 0.85641 0.0
C1732 C 0.17765 0.35176 0.76907 0.0
H1733 H 0.1434 0.29919 0.63903 0.0
H1734 H 0.15052 0.30545 0.69932 0.0
H1735 H 0.17157 0.35835 0.71691 0.0
H1736 H 0.21007 0.36598 0.88053 0.0
H1737 H 0.20476 0.35884 0.81954 0.0
H1738 H 0.17863 0.31159 0.80162 0.0
C1739 C 0.15598 0.31328 0.67915 0.0
C1740 C 0.1734 0.34794 0.73482 0.0
C1741 C 0.15179 0.30973 0.64464 0.0
C1742 C 0.19956 0.3577 0.87412 0.0
C1743 C 0.19651 0.35367 0.83934 0.0
C1744 C 0.1772 0.32185 0.78316 0.0
C1745 C 0.16676 0.32697 0.68744 0.0
C1746 C 0.17117 0.33099 0.72411 0.0
C1747 C 0.18299 0.3429 0.83026 0.0
C1748 C 0.17946 0.33876 0.79358 0.0
H1749 H 0.17407 0.34159 0.60581 0.0
H1750 H 0.18192 0.34732 0.6654 0.0
H1751 H 0.17195 0.30478 0.74145 0.0
H1752 H 0.16699 0.3354 0.91055 0.0
H1753 H 0.16195 0.32813 0.85002 0.0
C1754 C 0.66835 0.17465 0.89225 0.0
C1755 C 0.6575 0.18816 0.9007 0.0
C1756 C 0.67278 0.17148 0.85791 0.0
C1757 C 0.6727 0.19078 0.76985 0.0
H1758 H 0.67865 0.14395 0.7413 0.0
C1759 C 0.67512 0.16848 0.62735 0.0
C1760 C 0.68872 0.15783 0.6182 0.0
C1761 C 0.67223 0.17272 0.66193 0.0
C1762 C 0.67719 0.15708 0.74905 0.0
H1763 H 0.64274 0.20897 0.87989 0.0
H1764 H 0.64988 0.20302 0.81946 0.0
H1765 H 0.67103 0.15029 0.80105 0.0
H1766 H 0.70991 0.14323 0.63797 0.0
H1767 H 0.70449 0.1503 0.69893 0.0
H1768 H 0.67817 0.19737 0.7171 0.0
C1769 C 0.65538 0.19513 0.83949 0.0
C1770 C 0.67288 0.16076 0.78332 0.0
C1771 C 0.65118 0.1985 0.87407 0.0
C1772 C 0.69937 0.15148 0.64433 0.0
C1773 C 0.69625 0.15547 0.6791 0.0
C1774 C 0.67672 0.18705 0.73541 0.0
C1775 C 0.66623 0.18153 0.83097 0.0
C1776 C 0.67063 0.17767 0.79426 0.0
C1777 C 0.68267 0.16616 0.68811 0.0
C1778 C 0.67903 0.17017 0.72477 0.0
H1779 H 0.67364 0.1666 0.91228 0.0
H1780 H 0.68151 0.1612 0.85261 0.0
H1781 H 0.67138 0.20395 0.77734 0.0
H1782 H 0.66676 0.17366 0.60775 0.0
H1783 H 0.66161 0.18087 0.66828 0.0
C1784 C 0.85723 0.33406 0.38473 0.0
C1785 C 0.85199 0.31875 0.40002 0.0
C1786 C 0.85354 0.33746 0.35001 0.0
C1787 C 0.82256 0.33222 0.28495 0.0
H1788 H 0.85804 0.33733 0.2162 0.0
C1789 C 0.80712 0.34279 0.13984 0.0
C1790 C 0.81866 0.35209 0.11971 0.0
C1791 C 0.81099 0.33862 0.17419 0.0
C1792 C 0.84794 0.3363 0.23508 0.0
H1793 H 0.8388 0.295 0.39112 0.0
H1794 H 0.83185 0.30128 0.33043 0.0
H1795 H 0.86548 0.33015 0.27573 0.0
H1796 H 0.84289 0.36507 0.12001 0.0
H1797 H 0.84922 0.35877 0.1803 0.0
H1798 H 0.805 0.33917 0.24525 0.0
C1799 C 0.83904 0.31044 0.34536 0.0
C1800 C 0.85225 0.33199 0.26907 0.0
C1801 C 0.84309 0.30684 0.37989 0.0
C1802 C 0.83383 0.35772 0.13489 0.0
C1803 C 0.83752 0.35392 0.16942 0.0
C1804 C 0.81823 0.33691 0.25113 0.0
C1805 C 0.84422 0.32579 0.33026 0.0
C1806 C 0.8396 0.32988 0.29418 0.0
C1807 C 0.82634 0.34399 0.18942 0.0
C1808 C 0.83087 0.33903 0.22564 0.0
H1809 H 0.86412 0.34345 0.39966 0.0
H1810 H 0.85762 0.34938 0.33878 0.0
H1811 H 0.81262 0.3308 0.30414 0.0
H1812 H 0.79539 0.33815 0.12863 0.0
H1813 H 0.80213 0.33075 0.18836 0.0
C1814 C 0.65738 0.80601 0.14283 0.0
C1815 C 0.65599 0.81944 0.11906 0.0
C1816 C 0.66179 0.80919 0.17738 0.0
C1817 C 0.6618 0.82099 0.25282 0.0
H1818 H 0.69579 0.85537 0.27192 0.0
C1819 C 0.67161 0.84845 0.38931 0.0
C1820 C 0.68831 0.85134 0.40072 0.0
C1821 C 0.66836 0.84403 0.35495 0.0
C1822 C 0.68641 0.84562 0.26704 0.0
H1823 H 0.6577 0.8468 0.11318 0.0
H1824 H 0.66511 0.8523 0.1732 0.0
H1825 H 0.68894 0.84817 0.21209 0.0
H1826 H 0.71468 0.8521 0.38475 0.0
H1827 H 0.70898 0.84429 0.32455 0.0
H1828 H 0.6594 0.81832 0.30777 0.0
C1829 C 0.66316 0.83928 0.16511 0.0
C1830 C 0.68233 0.84162 0.23276 0.0
C1831 C 0.65878 0.83612 0.1307 0.0
C1832 C 0.70167 0.84998 0.37678 0.0
C1833 C 0.6984 0.84555 0.34228 0.0
C1834 C 0.66587 0.82499 0.2871 0.0
C1835 C 0.66489 0.82587 0.1888 0.0
C1836 C 0.66984 0.82941 0.22525 0.0
C1837 C 0.6817 0.84239 0.33107 0.0
C1838 C 0.67808 0.8375 0.29462 0.0
H1839 H 0.65534 0.79301 0.13467 0.0
H1840 H 0.6631 0.79857 0.19497 0.0
H1841 H 0.65206 0.81159 0.24794 0.0
H1842 H 0.66098 0.84948 0.40697 0.0
H1843 H 0.65532 0.84203 0.34703 0.0
C1844 C 0.16766 0.67484 0.39212 0.0
C1845 C 0.15693 0.68837 0.40126 0.0
C1846 C 0.17192 0.67196 0.35755 0.0
C1847 C 0.15624 0.6768 0.2704 0.0
H1848 H 0.20314 0.67113 0.24219 0.0
C1849 C 0.17389 0.66782 0.12725 0.0
C1850 C 0.18745 0.65701 0.11889 0.0
C1851 C 0.17069 0.67229 0.16156 0.0
C1852 C 0.18996 0.67241 0.24966 0.0
H1853 H 0.14218 0.70945 0.38145 0.0
H1854 H 0.14929 0.70405 0.3205 0.0
H1855 H 0.19652 0.67796 0.3024 0.0
H1856 H 0.2083 0.64236 0.13983 0.0
H1857 H 0.20229 0.64956 0.2002 0.0
H1858 H 0.14948 0.67056 0.21841 0.0
C1859 C 0.15451 0.69585 0.34035 0.0
C1860 C 0.18621 0.67645 0.28408 0.0
C1861 C 0.1505 0.69896 0.37511 0.0
C1862 C 0.1978 0.65076 0.14558 0.0
C1863 C 0.1944 0.655 0.18013 0.0
C1864 C 0.15995 0.67246 0.23615 0.0
C1865 C 0.16529 0.68234 0.33135 0.0
C1866 C 0.16932 0.67871 0.29469 0.0
C1867 C 0.18076 0.66581 0.18856 0.0
C1868 C 0.17687 0.67026 0.22525 0.0
H1869 H 0.1729 0.66652 0.41173 0.0
H1870 H 0.18014 0.66139 0.35122 0.0
H1871 H 0.1431 0.67822 0.27813 0.0
H1872 H 0.16583 0.67306 0.10717 0.0
H1873 H 0.16037 0.68099 0.16679 0.0
C1874 C 0.31289 0.14718 0.37394 0.0
C1875 C 0.32307 0.15377 0.40063 0.0
C1876 C 0.31663 0.15087 0.33929 0.0
C1877 C 0.33637 0.18258 0.28419 0.0
H1878 H 0.34254 0.14624 0.21773 0.0
C1879 C 0.36056 0.19567 0.14537 0.0
C1880 C 0.35401 0.18558 0.11854 0.0
C1881 C 0.35701 0.19171 0.17998 0.0
C1882 C 0.34058 0.15659 0.23572 0.0
H1883 H 0.34497 0.16953 0.4121 0.0
H1884 H 0.35119 0.17621 0.35173 0.0
H1885 H 0.33501 0.13949 0.27742 0.0
H1886 H 0.33834 0.16369 0.10675 0.0
H1887 H 0.3316 0.15724 0.16658 0.0
H1888 H 0.34137 0.19977 0.24261 0.0
C1889 C 0.34046 0.16811 0.3576 0.0
C1890 C 0.33634 0.15267 0.26994 0.0
C1891 C 0.33694 0.16418 0.39209 0.0
C1892 C 0.34376 0.17159 0.12689 0.0
C1893 C 0.33998 0.16782 0.16132 0.0
C1894 C 0.34031 0.18654 0.24983 0.0
C1895 C 0.33037 0.16147 0.33092 0.0
C1896 C 0.33428 0.16563 0.29446 0.0
C1897 C 0.34661 0.17776 0.1884 0.0
C1898 C 0.34253 0.17359 0.22513 0.0
H1899 H 0.30214 0.1391 0.3798 0.0
H1900 H 0.30865 0.14565 0.31906 0.0
H1901 H 0.33472 0.1928 0.30268 0.0
H1902 H 0.36858 0.20648 0.13965 0.0
H1903 H 0.36259 0.1995 0.20009 0.0
loop_
_geom_bond_atom_site_label_1
_geom_bond_atom_site_label_2
_geom_bond_distance
_geom_bond_site_symmetry_2
_ccdc_geom_bond_type
Co0 O2 2.141 1_554 S
Co0 O8 2.097 . S
Co0 O11 2.069 1_554 S
Co0 O24 2.096 1_554 S
Co0 N41 2.152 . S
Co0 N49 2.217 . S
Co1 O2 2.160 1_554 S
Co1 O7 2.058 . S
Co1 O17 2.057 . S
Co1 O32 2.037 . S
Co1 N36 2.145 . S
Co1 N57 2.257 1_554 S
O2 Co0 2.141 1_556 S
O2 Co1 2.160 1_556 S
C3 O4 1.278 . S
C3 O11 1.224 . S
O4 C3 1.278 . S
C5 O6 1.245 . S
C5 O17 1.232 . S
O6 C5 1.245 . S
O7 Co1 2.058 . S
O7 C33 1.269 . S
O8 Co0 2.097 . S
O8 C33 1.257 . S
H9 C34 0.930 . S
H10 C40 0.930 . S
O11 Co0 2.069 1_556 S
O11 C3 1.224 . S
H12 C44 0.929 . S
H13 C46 0.930 . S
H14 C47 0.930 . S
H15 C45 0.929 . S
H16 C48 0.928 . S
O17 Co1 2.057 . S
O17 C5 1.232 . S
H18 C37 0.929 . S
H19 C38 0.929 . S
H20 C50 0.931 . S
H21 C42 0.929 . S
H22 C51 0.930 . S
H23 C43 0.931 . S
O24 Co0 2.096 1_556 S
O24 C52 1.214 1_556 S
H25 C53 0.929 . S
H26 C54 0.929 1_554 S
H27 C55 0.930 . S
H28 C56 0.929 . S
H29 C58 0.930 . S
H30 C35 0.930 . S
H31 C39 0.930 . S
O32 Co1 2.037 . S
O32 C52 1.234 . S
C33 O7 1.269 . S
C33 O8 1.257 . S
C34 H9 0.930 . S
C34 C37 1.388 . S
C34 C39 1.418 . S
C35 H30 0.930 . S
C35 C38 1.404 . S
C35 C39 1.353 . S
N36 Co1 2.145 . S
N36 C37 1.397 . S
N36 C38 1.334 . S
C37 H18 0.929 . S
C37 C34 1.388 . S
C37 N36 1.397 . S
C38 H19 0.929 . S
C38 C35 1.404 . S
C38 N36 1.334 . S
C39 H31 0.930 . S
C39 C34 1.418 . S
C39 C35 1.353 . S
C40 H10 0.930 . S
C40 N41 1.330 1_556 S
C40 C42 1.446 . S
N41 Co0 2.152 . S
N41 C40 1.330 1_554 S
N41 C45 1.418 . S
C42 H21 0.929 . S
C42 C40 1.446 . S
C42 C43 1.332 1_556 S
C43 H23 0.931 . S
C43 C42 1.332 1_554 S
C43 C44 1.267 . S
C44 H12 0.929 . S
C44 C43 1.267 . S
C44 C45 1.251 . S
C45 H15 0.929 . S
C45 N41 1.418 . S
C45 C44 1.251 . S
C46 H13 0.930 . S
C46 C48 1.406 . S
C46 C51 1.261 1_556 S
C47 H14 0.930 . S
C47 N49 1.325 . S
C47 C50 1.357 . S
C48 H16 0.928 . S
C48 C46 1.406 . S
C48 N49 1.261 1_556 S
N49 Co0 2.217 . S
N49 C47 1.325 . S
N49 C48 1.261 1_554 S
C50 H20 0.931 . S
C50 C47 1.357 . S
C50 C51 1.312 . S
C51 H22 0.930 . S
C51 C46 1.261 1_554 S
C51 C50 1.312 . S
C52 O24 1.214 1_554 S
C52 O32 1.234 . S
C53 H25 0.929 . S
C53 C56 1.391 . S
C53 C58 1.391 . S
C54 H26 0.929 1_556 S
C54 C55 1.390 . S
C54 N57 1.391 . S
C55 H27 0.930 . S
C55 C54 1.390 . S
C55 C56 1.392 . S
C56 H28 0.929 . S
C56 C53 1.391 . S
C56 C55 1.392 . S
N57 Co1 2.257 1_556 S
N57 C54 1.391 . S
N57 C58 1.388 . S
C58 H29 0.930 . S
C58 C53 1.391 . S
C58 N57 1.388 . S
Co59 O61 2.141 1_554 S
Co59 O67 2.097 . S
Co59 O70 2.069 1_554 S
Co59 O83 2.096 1_554 S
Co59 N100 2.152 . S
Co59 N108 2.217 . S
Co60 O61 2.160 1_554 S
Co60 O66 2.058 . S
Co60 O76 2.057 . S
Co60 O91 2.037 . S
Co60 N95 2.145 . S
Co60 N116 2.257 1_554 S
O61 Co59 2.141 1_556 S
O61 Co60 2.160 1_556 S
C62 O63 1.278 . S
C62 O70 1.224 . S
O63 C62 1.278 . S
C64 O65 1.245 . S
C64 O76 1.232 . S
O65 C64 1.245 . S
O66 Co60 2.058 . S
O66 C92 1.269 . S
O67 Co59 2.097 . S
O67 C92 1.257 . S
H68 C93 0.930 . S
H69 C99 0.930 . S
O70 Co59 2.069 1_556 S
O70 C62 1.224 . S
H71 C103 0.929 . S
H72 C105 0.930 . S
H73 C106 0.930 . S
H74 C104 0.929 . S
H75 C107 0.928 . S
O76 Co60 2.057 . S
O76 C64 1.232 . S
H77 C96 0.929 . S
H78 C97 0.929 . S
H79 C109 0.931 . S
H80 C101 0.929 . S
H81 C110 0.930 . S
H82 C102 0.931 . S
O83 Co59 2.096 1_556 S
O83 C111 1.214 1_556 S
H84 C112 0.929 . S
H85 C113 0.929 1_554 S
H86 C114 0.930 . S
H87 C115 0.929 . S
H88 C117 0.930 . S
H89 C94 0.930 . S
H90 C98 0.930 . S
O91 Co60 2.037 . S
O91 C111 1.234 . S
C92 O66 1.269 . S
C92 O67 1.257 . S
C93 H68 0.930 . S
C93 C96 1.388 . S
C93 C98 1.418 . S
C94 H89 0.930 . S
C94 C97 1.404 . S
C94 C98 1.353 . S
N95 Co60 2.145 . S
N95 C96 1.397 . S
N95 C97 1.334 . S
C96 H77 0.929 . S
C96 C93 1.388 . S
C96 N95 1.397 . S
C97 H78 0.929 . S
C97 C94 1.404 . S
C97 N95 1.334 . S
C98 H90 0.930 . S
C98 C93 1.418 . S
C98 C94 1.353 . S
C99 H69 0.930 . S
C99 N100 1.330 1_556 S
C99 C101 1.446 . S
N100 Co59 2.152 . S
N100 C99 1.330 1_554 S
N100 C104 1.418 . S
C101 H80 0.929 . S
C101 C99 1.446 . S
C101 C102 1.332 1_556 S
C102 H82 0.931 . S
C102 C101 1.332 1_554 S
C102 C103 1.267 . S
C103 H71 0.929 . S
C103 C102 1.267 . S
C103 C104 1.251 . S
C104 H74 0.929 . S
C104 N100 1.418 . S
C104 C103 1.251 . S
C105 H72 0.930 . S
C105 C107 1.406 . S
C105 C110 1.261 1_556 S
C106 H73 0.930 . S
C106 N108 1.325 . S
C106 C109 1.357 . S
C107 H75 0.928 . S
C107 C105 1.406 . S
C107 N108 1.261 1_556 S
N108 Co59 2.217 . S
N108 C106 1.325 . S
N108 C107 1.261 1_554 S
C109 H79 0.931 . S
C109 C106 1.357 . S
C109 C110 1.312 . S
C110 H81 0.930 . S
C110 C105 1.261 1_554 S
C110 C109 1.312 . S
C111 O83 1.214 1_554 S
C111 O91 1.234 . S
C112 H84 0.929 . S
C112 C115 1.391 . S
C112 C117 1.391 . S
C113 H85 0.929 1_556 S
C113 C114 1.390 . S
C113 N116 1.391 . S
C114 H86 0.930 . S
C114 C113 1.390 . S
C114 C115 1.392 . S
C115 H87 0.929 . S
C115 C112 1.391 . S
C115 C114 1.392 . S
N116 Co60 2.257 1_556 S
N116 C113 1.391 . S
N116 C117 1.388 . S
C117 H88 0.930 . S
C117 C112 1.391 . S
C117 N116 1.388 . S
Co118 O120 2.141 1_554 S
Co118 O126 2.097 . S
Co118 O129 2.069 1_554 S
Co118 O142 2.096 1_554 S
Co118 N159 2.152 . S
Co118 N167 2.217 . S
Co119 O120 2.160 1_554 S
Co119 O125 2.058 . S
Co119 O135 2.057 . S
Co119 O150 2.037 . S
Co119 N154 2.145 . S
Co119 N175 2.257 1_554 S
O120 Co118 2.141 1_556 S
O120 Co119 2.160 1_556 S
C121 O122 1.278 . S
C121 O129 1.224 . S
O122 C121 1.278 . S
C123 O124 1.245 . S
C123 O135 1.232 . S
O124 C123 1.245 . S
O125 Co119 2.058 . S
O125 C151 1.269 . S
O126 Co118 2.097 . S
O126 C151 1.257 . S
H127 C152 0.930 . S
H128 C158 0.930 . S
O129 Co118 2.069 1_556 S
O129 C121 1.224 . S
H130 C162 0.929 . S
H131 C164 0.930 . S
H132 C165 0.930 . S
H133 C163 0.929 . S
H134 C166 0.928 . S
O135 Co119 2.057 . S
O135 C123 1.232 . S
H136 C155 0.929 . S
H137 C156 0.929 . S
H138 C168 0.931 . S
H139 C160 0.929 . S
H140 C169 0.930 . S
H141 C161 0.931 . S
O142 Co118 2.096 1_556 S
O142 C170 1.214 1_556 S
H143 C171 0.929 . S
H144 C172 0.929 1_554 S
H145 C173 0.930 . S
H146 C174 0.929 . S
H147 C176 0.930 . S
H148 C153 0.930 . S
H149 C157 0.930 . S
O150 Co119 2.037 . S
O150 C170 1.234 . S
C151 O125 1.269 . S
C151 O126 1.257 . S
C152 H127 0.930 . S
C152 C155 1.388 . S
C152 C157 1.418 . S
C153 H148 0.930 . S
C153 C156 1.404 . S
C153 C157 1.353 . S
N154 Co119 2.145 . S
N154 C155 1.397 . S
N154 C156 1.334 . S
C155 H136 0.929 . S
C155 C152 1.388 . S
C155 N154 1.397 . S
C156 H137 0.929 . S
C156 C153 1.404 . S
C156 N154 1.334 . S
C157 H149 0.930 . S
C157 C152 1.418 . S
C157 C153 1.353 . S
C158 H128 0.930 . S
C158 N159 1.330 1_556 S
C158 C160 1.446 . S
N159 Co118 2.152 . S
N159 C158 1.330 1_554 S
N159 C163 1.418 . S
C160 H139 0.929 . S
C160 C158 1.446 . S
C160 C161 1.332 1_556 S
C161 H141 0.931 . S
C161 C160 1.332 1_554 S
C161 C162 1.267 . S
C162 H130 0.929 . S
C162 C161 1.267 . S
C162 C163 1.251 . S
C163 H133 0.929 . S
C163 N159 1.418 . S
C163 C162 1.251 . S
C164 H131 0.930 . S
C164 C166 1.406 . S
C164 C169 1.261 1_556 S
C165 H132 0.930 . S
C165 N167 1.325 . S
C165 C168 1.357 . S
C166 H134 0.928 . S
C166 C164 1.406 . S
C166 N167 1.261 1_556 S
N167 Co118 2.217 . S
N167 C165 1.325 . S
N167 C166 1.261 1_554 S
C168 H138 0.931 . S
C168 C165 1.357 . S
C168 C169 1.312 . S
C169 H140 0.930 . S
C169 C164 1.261 1_554 S
C169 C168 1.312 . S
C170 O142 1.214 1_554 S
C170 O150 1.234 . S
C171 H143 0.929 . S
C171 C174 1.391 . S
C171 C176 1.391 . S
C172 H144 0.929 1_556 S
C172 C173 1.390 . S
C172 N175 1.391 . S
C173 H145 0.930 . S
C173 C172 1.390 . S
C173 C174 1.392 . S
C174 H146 0.929 . S
C174 C171 1.391 . S
C174 C173 1.392 . S
N175 Co119 2.257 1_556 S
N175 C172 1.391 . S
N175 C176 1.388 . S
C176 H147 0.930 . S
C176 C171 1.391 . S
C176 N175 1.388 . S
Co177 O179 2.141 1_554 S
Co177 O185 2.097 . S
Co177 O188 2.069 1_554 S
Co177 O201 2.096 1_554 S
Co177 N218 2.152 . S
Co177 N226 2.217 . S
Co178 O179 2.160 1_554 S
Co178 O184 2.058 . S
Co178 O194 2.057 . S
Co178 O209 2.037 . S
Co178 N213 2.145 . S
Co178 N234 2.257 1_554 S
O179 Co177 2.141 1_556 S
O179 Co178 2.160 1_556 S
C180 O181 1.278 . S
C180 O188 1.224 . S
O181 C180 1.278 . S
C182 O183 1.245 . S
C182 O194 1.232 . S
O183 C182 1.245 . S
O184 Co178 2.058 . S
O184 C210 1.269 . S
O185 Co177 2.097 . S
O185 C210 1.257 . S
H186 C211 0.930 . S
H187 C217 0.930 . S
O188 Co177 2.069 1_556 S
O188 C180 1.224 . S
H189 C221 0.929 . S
H190 C223 0.930 . S
H191 C224 0.930 . S
H192 C222 0.929 . S
H193 C225 0.928 . S
O194 Co178 2.057 . S
O194 C182 1.232 . S
H195 C214 0.929 . S
H196 C215 0.929 . S
H197 C227 0.931 . S
H198 C219 0.929 . S
H199 C228 0.930 . S
H200 C220 0.931 . S
O201 Co177 2.096 1_556 S
O201 C229 1.214 1_556 S
H202 C230 0.929 . S
H203 C231 0.929 1_554 S
H204 C232 0.930 . S
H205 C233 0.929 . S
H206 C235 0.930 . S
H207 C212 0.930 . S
H208 C216 0.930 . S
O209 Co178 2.037 . S
O209 C229 1.234 . S
C210 O184 1.269 . S
C210 O185 1.257 . S
C211 H186 0.930 . S
C211 C214 1.388 . S
C211 C216 1.418 . S
C212 H207 0.930 . S
C212 C215 1.404 . S
C212 C216 1.353 . S
N213 Co178 2.145 . S
N213 C214 1.397 . S
N213 C215 1.334 . S
C214 H195 0.929 . S
C214 C211 1.388 . S
C214 N213 1.397 . S
C215 H196 0.929 . S
C215 C212 1.404 . S
C215 N213 1.334 . S
C216 H208 0.930 . S
C216 C211 1.418 . S
C216 C212 1.353 . S
C217 H187 0.930 . S
C217 N218 1.330 1_556 S
C217 C219 1.446 . S
N218 Co177 2.152 . S
N218 C217 1.330 1_554 S
N218 C222 1.418 . S
C219 H198 0.929 . S
C219 C217 1.446 . S
C219 C220 1.332 1_556 S
C220 H200 0.931 . S
C220 C219 1.332 1_554 S
C220 C221 1.267 . S
C221 H189 0.929 . S
C221 C220 1.267 . S
C221 C222 1.251 . S
C222 H192 0.929 . S
C222 N218 1.418 . S
C222 C221 1.251 . S
C223 H190 0.930 . S
C223 C225 1.406 . S
C223 C228 1.261 1_556 S
C224 H191 0.930 . S
C224 N226 1.325 . S
C224 C227 1.357 . S
C225 H193 0.928 . S
C225 C223 1.406 . S
C225 N226 1.261 1_556 S
N226 Co177 2.217 . S
N226 C224 1.325 . S
N226 C225 1.261 1_554 S
C227 H197 0.931 . S
C227 C224 1.357 . S
C227 C228 1.312 . S
C228 H199 0.930 . S
C228 C223 1.261 1_554 S
C228 C227 1.312 . S
C229 O201 1.214 1_554 S
C229 O209 1.234 . S
C230 H202 0.929 . S
C230 C233 1.391 . S
C230 C235 1.391 . S
C231 H203 0.929 1_556 S
C231 C232 1.390 . S
C231 N234 1.391 . S
C232 H204 0.930 . S
C232 C231 1.390 . S
C232 C233 1.392 . S
C233 H205 0.929 . S
C233 C230 1.391 . S
C233 C232 1.392 . S
N234 Co178 2.257 1_556 S
N234 C231 1.391 . S
N234 C235 1.388 . S
C235 H206 0.930 . S
C235 C230 1.391 . S
C235 N234 1.388 . S
Co236 O238 2.143 . S
Co236 O244 2.074 1_554 S
Co236 O247 2.093 . S
Co236 O260 2.097 . S
Co236 N277 2.151 . S
Co236 N285 2.214 . S
Co237 O238 2.160 1_556 S
Co237 O243 2.058 . S
Co237 O253 2.057 . S
Co237 O268 2.037 . S
Co237 N272 2.145 . S
Co237 N293 2.257 1_556 S
O238 Co236 2.143 . S
O238 Co237 2.160 1_554 S
C239 O240 1.278 . S
C239 O247 1.224 . S
O240 C239 1.278 . S
C241 O242 1.245 . S
C241 O253 1.232 1_554 S
O242 C241 1.245 . S
O243 Co237 2.058 . S
O243 C269 1.269 . S
O244 Co236 2.074 1_556 S
O244 C269 1.257 . S
H245 C270 0.930 . S
H246 C276 0.930 . S
O247 Co236 2.093 . S
O247 C239 1.224 . S
H248 C280 0.929 . S
H249 C282 0.930 . S
H250 C283 0.930 . S
H251 C281 0.929 . S
H252 C284 0.928 . S
O253 Co237 2.057 . S
O253 C241 1.232 1_556 S
H254 C273 0.929 . S
H255 C274 0.929 . S
H256 C286 0.931 . S
H257 C278 0.929 . S
H258 C287 0.932 . S
H259 C279 0.931 . S
O260 Co236 2.097 . S
O260 C288 1.214 . S
H261 C289 0.929 . S
H262 C290 0.929 . S
H263 C291 0.930 . S
H264 C292 0.929 . S
H265 C294 0.930 . S
H266 C271 0.930 . S
H267 C275 0.930 . S
O268 Co237 2.037 . S
O268 C288 1.234 1_556 S
C269 O243 1.269 . S
C269 O244 1.257 . S
C270 H245 0.930 . S
C270 C273 1.388 . S
C270 C275 1.418 . S
C271 H266 0.930 . S
C271 C274 1.404 . S
C271 C275 1.353 . S
N272 Co237 2.145 . S
N272 C273 1.397 . S
N272 C274 1.334 . S
C273 H254 0.929 . S
C273 C270 1.388 . S
C273 N272 1.397 . S
C274 H255 0.929 . S
C274 C271 1.404 . S
C274 N272 1.334 . S
C275 H267 0.930 . S
C275 C270 1.418 . S
C275 C271 1.353 . S
C276 H246 0.930 . S
C276 N277 1.330 . S
C276 C278 1.446 . S
N277 Co236 2.151 . S
N277 C276 1.330 . S
N277 C281 1.418 1_554 S
C278 H257 0.929 . S
C278 C276 1.446 . S
C278 C279 1.332 . S
C279 H259 0.931 . S
C279 C278 1.332 . S
C279 C280 1.267 1_554 S
C280 H248 0.929 . S
C280 C279 1.267 1_556 S
C280 C281 1.251 . S
C281 H251 0.929 . S
C281 N277 1.418 1_556 S
C281 C280 1.251 . S
C282 H249 0.930 . S
C282 C284 1.406 . S
C282 C287 1.253 1_554 S
C283 H250 0.930 . S
C283 N285 1.325 1_556 S
C283 C286 1.357 . S
C284 H252 0.928 . S
C284 C282 1.406 . S
C284 N285 1.261 . S
N285 Co236 2.214 . S
N285 C283 1.325 1_554 S
N285 C284 1.261 . S
C286 H256 0.931 . S
C286 C283 1.357 . S
C286 C287 1.318 . S
C287 H258 0.932 . S
C287 C282 1.253 1_556 S
C287 C286 1.318 . S
C288 O260 1.214 . S
C288 O268 1.234 1_554 S
C289 H261 0.929 . S
C289 C292 1.391 . S
C289 C294 1.391 . S
C290 H262 0.929 . S
C290 C291 1.390 . S
C290 N293 1.391 . S
C291 H263 0.930 . S
C291 C290 1.390 . S
C291 C292 1.392 . S
C292 H264 0.929 . S
C292 C289 1.391 . S
C292 C291 1.392 . S
N293 Co237 2.257 1_554 S
N293 C290 1.391 . S
N293 C294 1.388 . S
C294 H265 0.930 . S
C294 C289 1.391 . S
C294 N293 1.388 . S
Co295 O297 2.143 . S
Co295 O303 2.074 1_554 S
Co295 O306 2.093 . S
Co295 O319 2.097 . S
Co295 N336 2.151 . S
Co295 N344 2.214 . S
Co296 O297 2.160 1_556 S
Co296 O302 2.058 . S
Co296 O312 2.057 . S
Co296 O327 2.037 . S
Co296 N331 2.145 . S
Co296 N352 2.257 1_556 S
O297 Co295 2.143 . S
O297 Co296 2.160 1_554 S
C298 O299 1.278 . S
C298 O306 1.224 . S
O299 C298 1.278 . S
C300 O301 1.245 . S
C300 O312 1.232 1_554 S
O301 C300 1.245 . S
O302 Co296 2.058 . S
O302 C328 1.269 . S
O303 Co295 2.074 1_556 S
O303 C328 1.257 . S
H304 C329 0.930 . S
H305 C335 0.930 . S
O306 Co295 2.093 . S
O306 C298 1.224 . S
H307 C339 0.929 . S
H308 C341 0.930 . S
H309 C342 0.930 . S
H310 C340 0.929 . S
H311 C343 0.928 . S
O312 Co296 2.057 . S
O312 C300 1.232 1_556 S
H313 C332 0.929 . S
H314 C333 0.929 . S
H315 C345 0.931 . S
H316 C337 0.929 . S
H317 C346 0.932 . S
H318 C338 0.931 . S
O319 Co295 2.097 . S
O319 C347 1.214 . S
H320 C348 0.929 . S
H321 C349 0.929 . S
H322 C350 0.930 . S
H323 C351 0.929 . S
H324 C353 0.930 . S
H325 C330 0.930 . S
H326 C334 0.930 . S
O327 Co296 2.037 . S
O327 C347 1.234 1_556 S
C328 O302 1.269 . S
C328 O303 1.257 . S
C329 H304 0.930 . S
C329 C332 1.388 . S
C329 C334 1.418 . S
C330 H325 0.930 . S
C330 C333 1.404 . S
C330 C334 1.353 . S
N331 Co296 2.145 . S
N331 C332 1.397 . S
N331 C333 1.334 . S
C332 H313 0.929 . S
C332 C329 1.388 . S
C332 N331 1.397 . S
C333 H314 0.929 . S
C333 C330 1.404 . S
C333 N331 1.334 . S
C334 H326 0.930 . S
C334 C329 1.418 . S
C334 C330 1.353 . S
C335 H305 0.930 . S
C335 N336 1.330 . S
C335 C337 1.446 . S
N336 Co295 2.151 . S
N336 C335 1.330 . S
N336 C340 1.418 1_554 S
C337 H316 0.929 . S
C337 C335 1.446 . S
C337 C338 1.332 . S
C338 H318 0.931 . S
C338 C337 1.332 . S
C338 C339 1.267 1_554 S
C339 H307 0.929 . S
C339 C338 1.267 1_556 S
C339 C340 1.251 . S
C340 H310 0.929 . S
C340 N336 1.418 1_556 S
C340 C339 1.251 . S
C341 H308 0.930 . S
C341 C343 1.406 . S
C341 C346 1.253 1_554 S
C342 H309 0.930 . S
C342 N344 1.325 1_556 S
C342 C345 1.357 . S
C343 H311 0.928 . S
C343 C341 1.406 . S
C343 N344 1.261 . S
N344 Co295 2.214 . S
N344 C342 1.325 1_554 S
N344 C343 1.261 . S
C345 H315 0.931 . S
C345 C342 1.357 . S
C345 C346 1.318 . S
C346 H317 0.932 . S
C346 C341 1.253 1_556 S
C346 C345 1.318 . S
C347 O319 1.214 . S
C347 O327 1.234 1_554 S
C348 H320 0.929 . S
C348 C351 1.391 . S
C348 C353 1.391 . S
C349 H321 0.929 . S
C349 C350 1.390 . S
C349 N352 1.391 . S
C350 H322 0.930 . S
C350 C349 1.390 . S
C350 C351 1.392 . S
C351 H323 0.929 . S
C351 C348 1.391 . S
C351 C350 1.392 . S
N352 Co296 2.257 1_554 S
N352 C349 1.391 . S
N352 C353 1.388 . S
C353 H324 0.930 . S
C353 C348 1.391 . S
C353 N352 1.388 . S
Co354 O356 2.143 . S
Co354 O362 2.074 1_554 S
Co354 O365 2.093 . S
Co354 O378 2.097 . S
Co354 N395 2.151 . S
Co354 N403 2.214 . S
Co355 O356 2.160 1_556 S
Co355 O361 2.058 . S
Co355 O371 2.057 . S
Co355 O386 2.037 . S
Co355 N390 2.145 . S
Co355 N411 2.257 1_556 S
O356 Co354 2.143 . S
O356 Co355 2.160 1_554 S
C357 O358 1.278 . S
C357 O365 1.224 . S
O358 C357 1.278 . S
C359 O360 1.245 . S
C359 O371 1.232 1_554 S
O360 C359 1.245 . S
O361 Co355 2.058 . S
O361 C387 1.269 . S
O362 Co354 2.074 1_556 S
O362 C387 1.257 . S
H363 C388 0.930 . S
H364 C394 0.930 . S
O365 Co354 2.093 . S
O365 C357 1.224 . S
H366 C398 0.929 . S
H367 C400 0.930 . S
H368 C401 0.930 . S
H369 C399 0.929 . S
H370 C402 0.928 . S
O371 Co355 2.057 . S
O371 C359 1.232 1_556 S
H372 C391 0.929 . S
H373 C392 0.929 . S
H374 C404 0.931 . S
H375 C396 0.929 . S
H376 C405 0.932 . S
H377 C397 0.931 . S
O378 Co354 2.097 . S
O378 C406 1.214 . S
H379 C407 0.929 . S
H380 C408 0.929 . S
H381 C409 0.930 . S
H382 C410 0.929 . S
H383 C412 0.930 . S
H384 C389 0.930 . S
H385 C393 0.930 . S
O386 Co355 2.037 . S
O386 C406 1.234 1_556 S
C387 O361 1.269 . S
C387 O362 1.257 . S
C388 H363 0.930 . S
C388 C391 1.388 . S
C388 C393 1.418 . S
C389 H384 0.930 . S
C389 C392 1.404 . S
C389 C393 1.353 . S
N390 Co355 2.145 . S
N390 C391 1.397 . S
N390 C392 1.334 . S
C391 H372 0.929 . S
C391 C388 1.388 . S
C391 N390 1.397 . S
C392 H373 0.929 . S
C392 C389 1.404 . S
C392 N390 1.334 . S
C393 H385 0.930 . S
C393 C388 1.418 . S
C393 C389 1.353 . S
C394 H364 0.930 . S
C394 N395 1.330 . S
C394 C396 1.446 . S
N395 Co354 2.151 . S
N395 C394 1.330 . S
N395 C399 1.418 1_554 S
C396 H375 0.929 . S
C396 C394 1.446 . S
C396 C397 1.332 . S
C397 H377 0.931 . S
C397 C396 1.332 . S
C397 C398 1.267 1_554 S
C398 H366 0.929 . S
C398 C397 1.267 1_556 S
C398 C399 1.251 . S
C399 H369 0.929 . S
C399 N395 1.418 1_556 S
C399 C398 1.251 . S
C400 H367 0.930 . S
C400 C402 1.406 . S
C400 C405 1.253 1_554 S
C401 H368 0.930 . S
C401 N403 1.325 1_556 S
C401 C404 1.357 . S
C402 H370 0.928 . S
C402 C400 1.406 . S
C402 N403 1.261 . S
N403 Co354 2.214 . S
N403 C401 1.325 1_554 S
N403 C402 1.261 . S
C404 H374 0.931 . S
C404 C401 1.357 . S
C404 C405 1.318 . S
C405 H376 0.932 . S
C405 C400 1.253 1_556 S
C405 C404 1.318 . S
C406 O378 1.214 . S
C406 O386 1.234 1_554 S
C407 H379 0.929 . S
C407 C410 1.391 . S
C407 C412 1.391 . S
C408 H380 0.929 . S
C408 C409 1.390 . S
C408 N411 1.391 . S
C409 H381 0.930 . S
C409 C408 1.390 . S
C409 C410 1.392 . S
C410 H382 0.929 . S
C410 C407 1.391 . S
C410 C409 1.392 . S
N411 Co355 2.257 1_554 S
N411 C408 1.391 . S
N411 C412 1.388 . S
C412 H383 0.930 . S
C412 C407 1.391 . S
C412 N411 1.388 . S
Co413 O415 2.143 . S
Co413 O421 2.074 1_554 S
Co413 O424 2.093 . S
Co413 O437 2.097 . S
Co413 N454 2.151 . S
Co413 N462 2.214 . S
Co414 O415 2.160 1_556 S
Co414 O420 2.058 . S
Co414 O430 2.057 . S
Co414 O445 2.037 . S
Co414 N449 2.145 . S
Co414 N470 2.257 1_556 S
O415 Co413 2.143 . S
O415 Co414 2.160 1_554 S
C416 O417 1.278 . S
C416 O424 1.224 . S
O417 C416 1.278 . S
C418 O419 1.245 . S
C418 O430 1.232 1_554 S
O419 C418 1.245 . S
O420 Co414 2.058 . S
O420 C446 1.269 . S
O421 Co413 2.074 1_556 S
O421 C446 1.257 . S
H422 C447 0.930 . S
H423 C453 0.930 . S
O424 Co413 2.093 . S
O424 C416 1.224 . S
H425 C457 0.929 . S
H426 C459 0.930 . S
H427 C460 0.930 . S
H428 C458 0.929 . S
H429 C461 0.928 . S
O430 Co414 2.057 . S
O430 C418 1.232 1_556 S
H431 C450 0.929 . S
H432 C451 0.929 . S
H433 C463 0.931 . S
H434 C455 0.929 . S
H435 C464 0.932 . S
H436 C456 0.931 . S
O437 Co413 2.097 . S
O437 C465 1.214 . S
H438 C466 0.929 . S
H439 C467 0.929 . S
H440 C468 0.930 . S
H441 C469 0.929 . S
H442 C471 0.930 . S
H443 C448 0.930 . S
H444 C452 0.930 . S
O445 Co414 2.037 . S
O445 C465 1.234 1_556 S
C446 O420 1.269 . S
C446 O421 1.257 . S
C447 H422 0.930 . S
C447 C450 1.388 . S
C447 C452 1.418 . S
C448 H443 0.930 . S
C448 C451 1.404 . S
C448 C452 1.353 . S
N449 Co414 2.145 . S
N449 C450 1.397 . S
N449 C451 1.334 . S
C450 H431 0.929 . S
C450 C447 1.388 . S
C450 N449 1.397 . S
C451 H432 0.929 . S
C451 C448 1.404 . S
C451 N449 1.334 . S
C452 H444 0.930 . S
C452 C447 1.418 . S
C452 C448 1.353 . S
C453 H423 0.930 . S
C453 N454 1.330 . S
C453 C455 1.446 . S
N454 Co413 2.151 . S
N454 C453 1.330 . S
N454 C458 1.418 1_554 S
C455 H434 0.929 . S
C455 C453 1.446 . S
C455 C456 1.332 . S
C456 H436 0.931 . S
C456 C455 1.332 . S
C456 C457 1.267 1_554 S
C457 H425 0.929 . S
C457 C456 1.267 1_556 S
C457 C458 1.251 . S
C458 H428 0.929 . S
C458 N454 1.418 1_556 S
C458 C457 1.251 . S
C459 H426 0.930 . S
C459 C461 1.406 . S
C459 C464 1.253 1_554 S
C460 H427 0.930 . S
C460 N462 1.325 1_556 S
C460 C463 1.357 . S
C461 H429 0.928 . S
C461 C459 1.406 . S
C461 N462 1.261 . S
N462 Co413 2.214 . S
N462 C460 1.325 1_554 S
N462 C461 1.261 . S
C463 H433 0.931 . S
C463 C460 1.357 . S
C463 C464 1.318 . S
C464 H435 0.932 . S
C464 C459 1.253 1_556 S
C464 C463 1.318 . S
C465 O437 1.214 . S
C465 O445 1.234 1_554 S
C466 H438 0.929 . S
C466 C469 1.391 . S
C466 C471 1.391 . S
C467 H439 0.929 . S
C467 C468 1.390 . S
C467 N470 1.391 . S
C468 H440 0.930 . S
C468 C467 1.390 . S
C468 C469 1.392 . S
C469 H441 0.929 . S
C469 C466 1.391 . S
C469 C468 1.392 . S
N470 Co414 2.257 1_554 S
N470 C467 1.391 . S
N470 C471 1.388 . S
C471 H442 0.930 . S
C471 C466 1.391 . S
C471 N470 1.388 . S
Co472 O474 2.143 . S
Co472 O480 2.074 . S
Co472 O483 2.093 . S
Co472 O496 2.097 . S
Co472 N513 2.151 . S
Co472 N521 2.214 . S
Co473 O474 2.160 . S
Co473 O479 2.058 . S
Co473 O489 2.057 . S
Co473 O504 2.037 . S
Co473 N508 2.145 . S
Co473 N529 2.257 . S
O474 Co472 2.143 . S
O474 Co473 2.160 . S
C475 O476 1.278 . S
C475 O483 1.224 . S
O476 C475 1.278 . S
C477 O478 1.245 . S
C477 O489 1.232 . S
O478 C477 1.245 . S
O479 Co473 2.058 . S
O479 C505 1.269 . S
O480 Co472 2.074 . S
O480 C505 1.257 . S
H481 C506 0.930 . S
H482 C512 0.930 . S
O483 Co472 2.093 . S
O483 C475 1.224 . S
H484 C516 0.929 . S
H485 C518 0.930 . S
H486 C519 0.930 . S
H487 C517 0.929 . S
H488 C520 0.928 . S
O489 Co473 2.057 . S
O489 C477 1.232 . S
H490 C509 0.929 . S
H491 C510 0.929 . S
H492 C522 0.931 . S
H493 C514 0.929 . S
H494 C523 0.930 . S
H495 C515 0.931 . S
O496 Co472 2.097 . S
O496 C524 1.214 . S
H497 C525 0.929 . S
H498 C526 0.929 . S
H499 C527 0.930 . S
H500 C528 0.929 . S
H501 C530 0.930 . S
H502 C507 0.930 . S
H503 C511 0.930 . S
O504 Co473 2.037 . S
O504 C524 1.234 . S
C505 O479 1.269 . S
C505 O480 1.257 . S
C506 H481 0.930 . S
C506 C509 1.388 . S
C506 C511 1.418 . S
C507 H502 0.930 . S
C507 C510 1.404 . S
C507 C511 1.353 . S
N508 Co473 2.145 . S
N508 C509 1.397 . S
N508 C510 1.334 . S
C509 H490 0.929 . S
C509 C506 1.388 . S
C509 N508 1.397 . S
C510 H491 0.929 . S
C510 C507 1.404 . S
C510 N508 1.334 . S
C511 H503 0.930 . S
C511 C506 1.418 . S
C511 C507 1.353 . S
C512 H482 0.930 . S
C512 N513 1.330 . S
C512 C514 1.446 . S
N513 Co472 2.151 . S
N513 C512 1.330 . S
N513 C517 1.418 . S
C514 H493 0.929 . S
C514 C512 1.446 . S
C514 C515 1.332 . S
C515 H495 0.931 . S
C515 C514 1.332 . S
C515 C516 1.267 . S
C516 H484 0.929 . S
C516 C515 1.267 . S
C516 C517 1.251 . S
C517 H487 0.929 . S
C517 N513 1.418 . S
C517 C516 1.251 . S
C518 H485 0.930 . S
C518 C520 1.406 . S
C518 C523 1.261 . S
C519 H486 0.930 . S
C519 N521 1.325 . S
C519 C522 1.357 . S
C520 H488 0.928 . S
C520 C518 1.406 . S
C520 N521 1.261 . S
N521 Co472 2.214 . S
N521 C519 1.325 . S
N521 C520 1.261 . S
C522 H492 0.931 . S
C522 C519 1.357 . S
C522 C523 1.312 . S
C523 H494 0.930 . S
C523 C518 1.261 . S
C523 C522 1.312 . S
C524 O496 1.214 . S
C524 O504 1.234 . S
C525 H497 0.929 . S
C525 C528 1.391 . S
C525 C530 1.391 . S
C526 H498 0.929 . S
C526 C527 1.390 . S
C526 N529 1.391 . S
C527 H499 0.930 . S
C527 C526 1.390 . S
C527 C528 1.392 . S
C528 H500 0.929 . S
C528 C525 1.391 . S
C528 C527 1.392 . S
N529 Co473 2.257 . S
N529 C526 1.391 . S
N529 C530 1.388 . S
C530 H501 0.930 . S
C530 C525 1.391 . S
C530 N529 1.388 . S
Co531 O533 2.143 . S
Co531 O539 2.074 . S
Co531 O542 2.093 . S
Co531 O555 2.097 . S
Co531 N572 2.151 . S
Co531 N580 2.214 . S
Co532 O533 2.160 . S
Co532 O538 2.058 . S
Co532 O548 2.057 . S
Co532 O563 2.037 . S
Co532 N567 2.145 . S
Co532 N588 2.257 . S
O533 Co531 2.143 . S
O533 Co532 2.160 . S
C534 O535 1.278 . S
C534 O542 1.224 . S
O535 C534 1.278 . S
C536 O537 1.245 . S
C536 O548 1.232 . S
O537 C536 1.245 . S
O538 Co532 2.058 . S
O538 C564 1.269 . S
O539 Co531 2.074 . S
O539 C564 1.257 . S
H540 C565 0.930 . S
H541 C571 0.930 . S
O542 Co531 2.093 . S
O542 C534 1.224 . S
H543 C575 0.929 . S
H544 C577 0.930 . S
H545 C578 0.930 . S
H546 C576 0.929 . S
H547 C579 0.928 . S
O548 Co532 2.057 . S
O548 C536 1.232 . S
H549 C568 0.929 . S
H550 C569 0.929 . S
H551 C581 0.931 . S
H552 C573 0.929 . S
H553 C582 0.930 . S
H554 C574 0.931 . S
O555 Co531 2.097 . S
O555 C583 1.214 . S
H556 C584 0.929 . S
H557 C585 0.929 . S
H558 C586 0.930 . S
H559 C587 0.929 . S
H560 C589 0.930 . S
H561 C566 0.930 . S
H562 C570 0.930 . S
O563 Co532 2.037 . S
O563 C583 1.234 . S
C564 O538 1.269 . S
C564 O539 1.257 . S
C565 H540 0.930 . S
C565 C568 1.388 . S
C565 C570 1.418 . S
C566 H561 0.930 . S
C566 C569 1.404 . S
C566 C570 1.353 . S
N567 Co532 2.145 . S
N567 C568 1.397 . S
N567 C569 1.334 . S
C568 H549 0.929 . S
C568 C565 1.388 . S
C568 N567 1.397 . S
C569 H550 0.929 . S
C569 C566 1.404 . S
C569 N567 1.334 . S
C570 H562 0.930 . S
C570 C565 1.418 . S
C570 C566 1.353 . S
C571 H541 0.930 . S
C571 N572 1.330 . S
C571 C573 1.446 . S
N572 Co531 2.151 . S
N572 C571 1.330 . S
N572 C576 1.418 . S
C573 H552 0.929 . S
C573 C571 1.446 . S
C573 C574 1.332 . S
C574 H554 0.931 . S
C574 C573 1.332 . S
C574 C575 1.267 . S
C575 H543 0.929 . S
C575 C574 1.267 . S
C575 C576 1.251 . S
C576 H546 0.929 . S
C576 N572 1.418 . S
C576 C575 1.251 . S
C577 H544 0.930 . S
C577 C579 1.406 . S
C577 C582 1.261 . S
C578 H545 0.930 . S
C578 N580 1.325 . S
C578 C581 1.357 . S
C579 H547 0.928 . S
C579 C577 1.406 . S
C579 N580 1.261 . S
N580 Co531 2.214 . S
N580 C578 1.325 . S
N580 C579 1.261 . S
C581 H551 0.931 . S
C581 C578 1.357 . S
C581 C582 1.312 . S
C582 H553 0.930 . S
C582 C577 1.261 . S
C582 C581 1.312 . S
C583 O555 1.214 . S
C583 O563 1.234 . S
C584 H556 0.929 . S
C584 C587 1.391 . S
C584 C589 1.391 . S
C585 H557 0.929 . S
C585 C586 1.390 . S
C585 N588 1.391 . S
C586 H558 0.930 . S
C586 C585 1.390 . S
C586 C587 1.392 . S
C587 H559 0.929 . S
C587 C584 1.391 . S
C587 C586 1.392 . S
N588 Co532 2.257 . S
N588 C585 1.391 . S
N588 C589 1.388 . S
C589 H560 0.930 . S
C589 C584 1.391 . S
C589 N588 1.388 . S
Co590 O592 2.143 . S
Co590 O598 2.074 . S
Co590 O601 2.093 . S
Co590 O614 2.097 . S
Co590 N631 2.151 . S
Co590 N639 2.214 . S
Co591 O592 2.160 . S
Co591 O597 2.058 . S
Co591 O607 2.057 . S
Co591 O622 2.037 . S
Co591 N626 2.145 . S
Co591 N647 2.257 . S
O592 Co590 2.143 . S
O592 Co591 2.160 . S
C593 O594 1.278 . S
C593 O601 1.224 . S
O594 C593 1.278 . S
C595 O596 1.245 . S
C595 O607 1.232 . S
O596 C595 1.245 . S
O597 Co591 2.058 . S
O597 C623 1.269 . S
O598 Co590 2.074 . S
O598 C623 1.257 . S
H599 C624 0.930 . S
H600 C630 0.930 . S
O601 Co590 2.093 . S
O601 C593 1.224 . S
H602 C634 0.929 . S
H603 C636 0.930 . S
H604 C637 0.930 . S
H605 C635 0.929 . S
H606 C638 0.928 . S
O607 Co591 2.057 . S
O607 C595 1.232 . S
H608 C627 0.929 . S
H609 C628 0.929 . S
H610 C640 0.931 . S
H611 C632 0.929 . S
H612 C641 0.930 . S
H613 C633 0.931 . S
O614 Co590 2.097 . S
O614 C642 1.214 . S
H615 C643 0.929 . S
H616 C644 0.929 . S
H617 C645 0.930 . S
H618 C646 0.929 . S
H619 C648 0.930 . S
H620 C625 0.930 . S
H621 C629 0.930 . S
O622 Co591 2.037 . S
O622 C642 1.234 . S
C623 O597 1.269 . S
C623 O598 1.257 . S
C624 H599 0.930 . S
C624 C627 1.388 . S
C624 C629 1.418 . S
C625 H620 0.930 . S
C625 C628 1.404 . S
C625 C629 1.353 . S
N626 Co591 2.145 . S
N626 C627 1.397 . S
N626 C628 1.334 . S
C627 H608 0.929 . S
C627 C624 1.388 . S
C627 N626 1.397 . S
C628 H609 0.929 . S
C628 C625 1.404 . S
C628 N626 1.334 . S
C629 H621 0.930 . S
C629 C624 1.418 . S
C629 C625 1.353 . S
C630 H600 0.930 . S
C630 N631 1.330 . S
C630 C632 1.446 . S
N631 Co590 2.151 . S
N631 C630 1.330 . S
N631 C635 1.418 . S
C632 H611 0.929 . S
C632 C630 1.446 . S
C632 C633 1.332 . S
C633 H613 0.931 . S
C633 C632 1.332 . S
C633 C634 1.267 . S
C634 H602 0.929 . S
C634 C633 1.267 . S
C634 C635 1.251 . S
C635 H605 0.929 . S
C635 N631 1.418 . S
C635 C634 1.251 . S
C636 H603 0.930 . S
C636 C638 1.406 . S
C636 C641 1.261 . S
C637 H604 0.930 . S
C637 N639 1.325 . S
C637 C640 1.357 . S
C638 H606 0.928 . S
C638 C636 1.406 . S
C638 N639 1.261 . S
N639 Co590 2.214 . S
N639 C637 1.325 . S
N639 C638 1.261 . S
C640 H610 0.931 . S
C640 C637 1.357 . S
C640 C641 1.312 . S
C641 H612 0.930 . S
C641 C636 1.261 . S
C641 C640 1.312 . S
C642 O614 1.214 . S
C642 O622 1.234 . S
C643 H615 0.929 . S
C643 C646 1.391 . S
C643 C648 1.391 . S
C644 H616 0.929 . S
C644 C645 1.390 . S
C644 N647 1.391 . S
C645 H617 0.930 . S
C645 C644 1.390 . S
C645 C646 1.392 . S
C646 H618 0.929 . S
C646 C643 1.391 . S
C646 C645 1.392 . S
N647 Co591 2.257 . S
N647 C644 1.391 . S
N647 C648 1.388 . S
C648 H619 0.930 . S
C648 C643 1.391 . S
C648 N647 1.388 . S
Co649 O651 2.143 . S
Co649 O657 2.074 . S
Co649 O660 2.093 . S
Co649 O673 2.097 . S
Co649 N690 2.151 . S
Co649 N698 2.214 . S
Co650 O651 2.160 . S
Co650 O656 2.058 . S
Co650 O666 2.057 . S
Co650 O681 2.037 . S
Co650 N685 2.145 . S
Co650 N706 2.257 . S
O651 Co649 2.143 . S
O651 Co650 2.160 . S
C652 O653 1.278 . S
C652 O660 1.224 . S
O653 C652 1.278 . S
C654 O655 1.245 . S
C654 O666 1.232 . S
O655 C654 1.245 . S
O656 Co650 2.058 . S
O656 C682 1.269 . S
O657 Co649 2.074 . S
O657 C682 1.257 . S
H658 C683 0.930 . S
H659 C689 0.930 . S
O660 Co649 2.093 . S
O660 C652 1.224 . S
H661 C693 0.929 . S
H662 C695 0.930 . S
H663 C696 0.930 . S
H664 C694 0.929 . S
H665 C697 0.928 . S
O666 Co650 2.057 . S
O666 C654 1.232 . S
H667 C686 0.929 . S
H668 C687 0.929 . S
H669 C699 0.931 . S
H670 C691 0.929 . S
H671 C700 0.930 . S
H672 C692 0.931 . S
O673 Co649 2.097 . S
O673 C701 1.214 . S
H674 C702 0.929 . S
H675 C703 0.929 . S
H676 C704 0.930 . S
H677 C705 0.929 . S
H678 C707 0.930 . S
H679 C684 0.930 . S
H680 C688 0.930 . S
O681 Co650 2.037 . S
O681 C701 1.234 . S
C682 O656 1.269 . S
C682 O657 1.257 . S
C683 H658 0.930 . S
C683 C686 1.388 . S
C683 C688 1.418 . S
C684 H679 0.930 . S
C684 C687 1.404 . S
C684 C688 1.353 . S
N685 Co650 2.145 . S
N685 C686 1.397 . S
N685 C687 1.334 . S
C686 H667 0.929 . S
C686 C683 1.388 . S
C686 N685 1.397 . S
C687 H668 0.929 . S
C687 C684 1.404 . S
C687 N685 1.334 . S
C688 H680 0.930 . S
C688 C683 1.418 . S
C688 C684 1.353 . S
C689 H659 0.930 . S
C689 N690 1.330 . S
C689 C691 1.446 . S
N690 Co649 2.151 . S
N690 C689 1.330 . S
N690 C694 1.418 . S
C691 H670 0.929 . S
C691 C689 1.446 . S
C691 C692 1.332 . S
C692 H672 0.931 . S
C692 C691 1.332 . S
C692 C693 1.267 . S
C693 H661 0.929 . S
C693 C692 1.267 . S
C693 C694 1.251 . S
C694 H664 0.929 . S
C694 N690 1.418 . S
C694 C693 1.251 . S
C695 H662 0.930 . S
C695 C697 1.406 . S
C695 C700 1.261 . S
C696 H663 0.930 . S
C696 N698 1.325 . S
C696 C699 1.357 . S
C697 H665 0.928 . S
C697 C695 1.406 . S
C697 N698 1.261 . S
N698 Co649 2.214 . S
N698 C696 1.325 . S
N698 C697 1.261 . S
C699 H669 0.931 . S
C699 C696 1.357 . S
C699 C700 1.312 . S
C700 H671 0.930 . S
C700 C695 1.261 . S
C700 C699 1.312 . S
C701 O673 1.214 . S
C701 O681 1.234 . S
C702 H674 0.929 . S
C702 C705 1.391 . S
C702 C707 1.391 . S
C703 H675 0.929 . S
C703 C704 1.390 . S
C703 N706 1.391 . S
C704 H676 0.930 . S
C704 C703 1.390 . S
C704 C705 1.392 . S
C705 H677 0.929 . S
C705 C702 1.391 . S
C705 C704 1.392 . S
N706 Co650 2.257 . S
N706 C703 1.391 . S
N706 C707 1.388 . S
C707 H678 0.930 . S
C707 C702 1.391 . S
C707 N706 1.388 . S
Co708 O710 2.143 . S
Co708 O716 2.074 . S
Co708 O719 2.093 . S
Co708 O732 2.097 . S
Co708 N749 2.151 . S
Co708 N757 2.214 . S
Co709 O710 2.160 . S
Co709 O715 2.058 . S
Co709 O725 2.057 . S
Co709 O740 2.037 . S
Co709 N744 2.145 . S
Co709 N765 2.257 . S
O710 Co708 2.143 . S
O710 Co709 2.160 . S
C711 O712 1.278 . S
C711 O719 1.224 . S
O712 C711 1.278 . S
C713 O714 1.245 . S
C713 O725 1.232 . S
O714 C713 1.245 . S
O715 Co709 2.058 . S
O715 C741 1.269 . S
O716 Co708 2.074 . S
O716 C741 1.257 . S
H717 C742 0.930 . S
H718 C748 0.930 . S
O719 Co708 2.093 . S
O719 C711 1.224 . S
H720 C752 0.929 . S
H721 C754 0.930 . S
H722 C755 0.930 . S
H723 C753 0.929 . S
H724 C756 0.928 . S
O725 Co709 2.057 . S
O725 C713 1.232 . S
H726 C745 0.929 . S
H727 C746 0.929 . S
H728 C758 0.931 . S
H729 C750 0.929 . S
H730 C759 0.930 . S
H731 C751 0.931 . S
O732 Co708 2.097 . S
O732 C760 1.214 . S
H733 C761 0.929 . S
H734 C762 0.929 . S
H735 C763 0.930 . S
H736 C764 0.929 . S
H737 C766 0.930 . S
H738 C743 0.930 . S
H739 C747 0.930 . S
O740 Co709 2.037 . S
O740 C760 1.234 . S
C741 O715 1.269 . S
C741 O716 1.257 . S
C742 H717 0.930 . S
C742 C745 1.388 . S
C742 C747 1.418 . S
C743 H738 0.930 . S
C743 C746 1.404 . S
C743 C747 1.353 . S
N744 Co709 2.145 . S
N744 C745 1.397 . S
N744 C746 1.334 . S
C745 H726 0.929 . S
C745 C742 1.388 . S
C745 N744 1.397 . S
C746 H727 0.929 . S
C746 C743 1.404 . S
C746 N744 1.334 . S
C747 H739 0.930 . S
C747 C742 1.418 . S
C747 C743 1.353 . S
C748 H718 0.930 . S
C748 N749 1.330 . S
C748 C750 1.446 . S
N749 Co708 2.151 . S
N749 C748 1.330 . S
N749 C753 1.418 . S
C750 H729 0.929 . S
C750 C748 1.446 . S
C750 C751 1.332 . S
C751 H731 0.931 . S
C751 C750 1.332 . S
C751 C752 1.267 . S
C752 H720 0.929 . S
C752 C751 1.267 . S
C752 C753 1.251 . S
C753 H723 0.929 . S
C753 N749 1.418 . S
C753 C752 1.251 . S
C754 H721 0.930 . S
C754 C756 1.406 . S
C754 C759 1.261 . S
C755 H722 0.930 . S
C755 N757 1.325 . S
C755 C758 1.357 . S
C756 H724 0.928 . S
C756 C754 1.406 . S
C756 N757 1.261 . S
N757 Co708 2.214 . S
N757 C755 1.325 . S
N757 C756 1.261 . S
C758 H728 0.931 . S
C758 C755 1.357 . S
C758 C759 1.312 . S
C759 H730 0.930 . S
C759 C754 1.261 . S
C759 C758 1.312 . S
C760 O732 1.214 . S
C760 O740 1.234 . S
C761 H733 0.929 . S
C761 C764 1.391 . S
C761 C766 1.391 . S
C762 H734 0.929 . S
C762 C763 1.390 . S
C762 N765 1.391 . S
C763 H735 0.930 . S
C763 C762 1.390 . S
C763 C764 1.392 . S
C764 H736 0.929 . S
C764 C761 1.391 . S
C764 C763 1.392 . S
N765 Co709 2.257 . S
N765 C762 1.391 . S
N765 C766 1.388 . S
C766 H737 0.930 . S
C766 C761 1.391 . S
C766 N765 1.388 . S
Co767 O769 2.143 . S
Co767 O775 2.074 . S
Co767 O778 2.093 . S
Co767 O791 2.097 . S
Co767 N808 2.151 . S
Co767 N816 2.214 . S
Co768 O769 2.160 . S
Co768 O774 2.058 . S
Co768 O784 2.057 . S
Co768 O799 2.037 . S
Co768 N803 2.145 . S
Co768 N824 2.257 . S
O769 Co767 2.143 . S
O769 Co768 2.160 . S
C770 O771 1.278 . S
C770 O778 1.224 . S
O771 C770 1.278 . S
C772 O773 1.245 . S
C772 O784 1.232 . S
O773 C772 1.245 . S
O774 Co768 2.058 . S
O774 C800 1.269 . S
O775 Co767 2.074 . S
O775 C800 1.257 . S
H776 C801 0.930 . S
H777 C807 0.930 . S
O778 Co767 2.093 . S
O778 C770 1.224 . S
H779 C811 0.929 . S
H780 C813 0.930 . S
H781 C814 0.930 . S
H782 C812 0.929 . S
H783 C815 0.928 . S
O784 Co768 2.057 . S
O784 C772 1.232 . S
H785 C804 0.929 . S
H786 C805 0.929 . S
H787 C817 0.931 . S
H788 C809 0.929 . S
H789 C818 0.930 . S
H790 C810 0.931 . S
O791 Co767 2.097 . S
O791 C819 1.214 . S
H792 C820 0.929 . S
H793 C821 0.929 . S
H794 C822 0.930 . S
H795 C823 0.929 . S
H796 C825 0.930 . S
H797 C802 0.930 . S
H798 C806 0.930 . S
O799 Co768 2.037 . S
O799 C819 1.234 . S
C800 O774 1.269 . S
C800 O775 1.257 . S
C801 H776 0.930 . S
C801 C804 1.388 . S
C801 C806 1.418 . S
C802 H797 0.930 . S
C802 C805 1.404 . S
C802 C806 1.353 . S
N803 Co768 2.145 . S
N803 C804 1.397 . S
N803 C805 1.334 . S
C804 H785 0.929 . S
C804 C801 1.388 . S
C804 N803 1.397 . S
C805 H786 0.929 . S
C805 C802 1.404 . S
C805 N803 1.334 . S
C806 H798 0.930 . S
C806 C801 1.418 . S
C806 C802 1.353 . S
C807 H777 0.930 . S
C807 N808 1.330 . S
C807 C809 1.446 . S
N808 Co767 2.151 . S
N808 C807 1.330 . S
N808 C812 1.418 . S
C809 H788 0.929 . S
C809 C807 1.446 . S
C809 C810 1.332 . S
C810 H790 0.931 . S
C810 C809 1.332 . S
C810 C811 1.267 . S
C811 H779 0.929 . S
C811 C810 1.267 . S
C811 C812 1.251 . S
C812 H782 0.929 . S
C812 N808 1.418 . S
C812 C811 1.251 . S
C813 H780 0.930 . S
C813 C815 1.406 . S
C813 C818 1.261 . S
C814 H781 0.930 . S
C814 N816 1.325 . S
C814 C817 1.357 . S
C815 H783 0.928 . S
C815 C813 1.406 . S
C815 N816 1.261 . S
N816 Co767 2.214 . S
N816 C814 1.325 . S
N816 C815 1.261 . S
C817 H787 0.931 . S
C817 C814 1.357 . S
C817 C818 1.312 . S
C818 H789 0.930 . S
C818 C813 1.261 . S
C818 C817 1.312 . S
C819 O791 1.214 . S
C819 O799 1.234 . S
C820 H792 0.929 . S
C820 C823 1.391 . S
C820 C825 1.391 . S
C821 H793 0.929 . S
C821 C822 1.390 . S
C821 N824 1.391 . S
C822 H794 0.930 . S
C822 C821 1.390 . S
C822 C823 1.392 . S
C823 H795 0.929 . S
C823 C820 1.391 . S
C823 C822 1.392 . S
N824 Co768 2.257 . S
N824 C821 1.391 . S
N824 C825 1.388 . S
C825 H796 0.930 . S
C825 C820 1.391 . S
C825 N824 1.388 . S
Co826 O828 2.143 . S
Co826 O834 2.074 . S
Co826 O837 2.093 . S
Co826 O850 2.097 . S
Co826 N867 2.151 . S
Co826 N875 2.214 . S
Co827 O828 2.160 . S
Co827 O833 2.058 . S
Co827 O843 2.057 . S
Co827 O858 2.037 . S
Co827 N862 2.145 . S
Co827 N883 2.257 . S
O828 Co826 2.143 . S
O828 Co827 2.160 . S
C829 O830 1.278 . S
C829 O837 1.224 . S
O830 C829 1.278 . S
C831 O832 1.245 . S
C831 O843 1.232 . S
O832 C831 1.245 . S
O833 Co827 2.058 . S
O833 C859 1.269 . S
O834 Co826 2.074 . S
O834 C859 1.257 . S
H835 C860 0.930 . S
H836 C866 0.930 . S
O837 Co826 2.093 . S
O837 C829 1.224 . S
H838 C870 0.929 . S
H839 C872 0.930 . S
H840 C873 0.930 . S
H841 C871 0.929 . S
H842 C874 0.928 . S
O843 Co827 2.057 . S
O843 C831 1.232 . S
H844 C863 0.929 . S
H845 C864 0.929 . S
H846 C876 0.931 . S
H847 C868 0.929 . S
H848 C877 0.930 . S
H849 C869 0.931 . S
O850 Co826 2.097 . S
O850 C878 1.214 . S
H851 C879 0.929 . S
H852 C880 0.929 . S
H853 C881 0.930 . S
H854 C882 0.929 . S
H855 C884 0.930 . S
H856 C861 0.930 . S
H857 C865 0.930 . S
O858 Co827 2.037 . S
O858 C878 1.234 . S
C859 O833 1.269 . S
C859 O834 1.257 . S
C860 H835 0.930 . S
C860 C863 1.388 . S
C860 C865 1.418 . S
C861 H856 0.930 . S
C861 C864 1.404 . S
C861 C865 1.353 . S
N862 Co827 2.145 . S
N862 C863 1.397 . S
N862 C864 1.334 . S
C863 H844 0.929 . S
C863 C860 1.388 . S
C863 N862 1.397 . S
C864 H845 0.929 . S
C864 C861 1.404 . S
C864 N862 1.334 . S
C865 H857 0.930 . S
C865 C860 1.418 . S
C865 C861 1.353 . S
C866 H836 0.930 . S
C866 N867 1.330 . S
C866 C868 1.446 . S
N867 Co826 2.151 . S
N867 C866 1.330 . S
N867 C871 1.418 . S
C868 H847 0.929 . S
C868 C866 1.446 . S
C868 C869 1.332 . S
C869 H849 0.931 . S
C869 C868 1.332 . S
C869 C870 1.267 . S
C870 H838 0.929 . S
C870 C869 1.267 . S
C870 C871 1.251 . S
C871 H841 0.929 . S
C871 N867 1.418 . S
C871 C870 1.251 . S
C872 H839 0.930 . S
C872 C874 1.406 . S
C872 C877 1.261 . S
C873 H840 0.930 . S
C873 N875 1.325 . S
C873 C876 1.357 . S
C874 H842 0.928 . S
C874 C872 1.406 . S
C874 N875 1.261 . S
N875 Co826 2.214 . S
N875 C873 1.325 . S
N875 C874 1.261 . S
C876 H846 0.931 . S
C876 C873 1.357 . S
C876 C877 1.312 . S
C877 H848 0.930 . S
C877 C872 1.261 . S
C877 C876 1.312 . S
C878 O850 1.214 . S
C878 O858 1.234 . S
C879 H851 0.929 . S
C879 C882 1.391 . S
C879 C884 1.391 . S
C880 H852 0.929 . S
C880 C881 1.390 . S
C880 N883 1.391 . S
C881 H853 0.930 . S
C881 C880 1.390 . S
C881 C882 1.392 . S
C882 H854 0.929 . S
C882 C879 1.391 . S
C882 C881 1.392 . S
N883 Co827 2.257 . S
N883 C880 1.391 . S
N883 C884 1.388 . S
C884 H855 0.930 . S
C884 C879 1.391 . S
C884 N883 1.388 . S
Co885 O887 2.143 . S
Co885 O893 2.074 . S
Co885 O896 2.093 . S
Co885 O909 2.097 . S
Co885 N926 2.151 . S
Co885 N934 2.214 . S
Co886 O887 2.160 . S
Co886 O892 2.058 . S
Co886 O902 2.057 . S
Co886 O917 2.037 . S
Co886 N921 2.145 . S
Co886 N942 2.257 . S
O887 Co885 2.143 . S
O887 Co886 2.160 . S
C888 O889 1.278 . S
C888 O896 1.224 . S
O889 C888 1.278 . S
C890 O891 1.245 . S
C890 O902 1.232 . S
O891 C890 1.245 . S
O892 Co886 2.058 . S
O892 C918 1.269 . S
O893 Co885 2.074 . S
O893 C918 1.257 . S
H894 C919 0.930 . S
H895 C925 0.930 . S
O896 Co885 2.093 . S
O896 C888 1.224 . S
H897 C929 0.929 . S
H898 C931 0.930 . S
H899 C932 0.930 . S
H900 C930 0.929 . S
H901 C933 0.928 . S
O902 Co886 2.057 . S
O902 C890 1.232 . S
H903 C922 0.929 . S
H904 C923 0.929 . S
H905 C935 0.931 . S
H906 C927 0.929 . S
H907 C936 0.930 . S
H908 C928 0.931 . S
O909 Co885 2.097 . S
O909 C937 1.214 . S
H910 C938 0.929 . S
H911 C939 0.929 . S
H912 C940 0.930 . S
H913 C941 0.929 . S
H914 C943 0.930 . S
H915 C920 0.930 . S
H916 C924 0.930 . S
O917 Co886 2.037 . S
O917 C937 1.234 . S
C918 O892 1.269 . S
C918 O893 1.257 . S
C919 H894 0.930 . S
C919 C922 1.388 . S
C919 C924 1.418 . S
C920 H915 0.930 . S
C920 C923 1.404 . S
C920 C924 1.353 . S
N921 Co886 2.145 . S
N921 C922 1.397 . S
N921 C923 1.334 . S
C922 H903 0.929 . S
C922 C919 1.388 . S
C922 N921 1.397 . S
C923 H904 0.929 . S
C923 C920 1.404 . S
C923 N921 1.334 . S
C924 H916 0.930 . S
C924 C919 1.418 . S
C924 C920 1.353 . S
C925 H895 0.930 . S
C925 N926 1.330 . S
C925 C927 1.446 . S
N926 Co885 2.151 . S
N926 C925 1.330 . S
N926 C930 1.418 . S
C927 H906 0.929 . S
C927 C925 1.446 . S
C927 C928 1.332 . S
C928 H908 0.931 . S
C928 C927 1.332 . S
C928 C929 1.267 . S
C929 H897 0.929 . S
C929 C928 1.267 . S
C929 C930 1.251 . S
C930 H900 0.929 . S
C930 N926 1.418 . S
C930 C929 1.251 . S
C931 H898 0.930 . S
C931 C933 1.406 . S
C931 C936 1.261 . S
C932 H899 0.930 . S
C932 N934 1.325 . S
C932 C935 1.357 . S
C933 H901 0.928 . S
C933 C931 1.406 . S
C933 N934 1.261 . S
N934 Co885 2.214 . S
N934 C932 1.325 . S
N934 C933 1.261 . S
C935 H905 0.931 . S
C935 C932 1.357 . S
C935 C936 1.312 . S
C936 H907 0.930 . S
C936 C931 1.261 . S
C936 C935 1.312 . S
C937 O909 1.214 . S
C937 O917 1.234 . S
C938 H910 0.929 . S
C938 C941 1.391 . S
C938 C943 1.391 . S
C939 H911 0.929 . S
C939 C940 1.390 . S
C939 N942 1.391 . S
C940 H912 0.930 . S
C940 C939 1.390 . S
C940 C941 1.392 . S
C941 H913 0.929 . S
C941 C938 1.391 . S
C941 C940 1.392 . S
N942 Co886 2.257 . S
N942 C939 1.391 . S
N942 C943 1.388 . S
C943 H914 0.930 . S
C943 C938 1.391 . S
C943 N942 1.388 . S
C944 C945 1.349 . S
C944 C946 1.327 . S
C944 H969 0.950 . S
C945 C944 1.349 . S
C945 C961 1.349 1_554 S
C946 C944 1.327 . S
C946 C965 1.429 . S
C946 H970 0.950 . S
C947 C964 1.574 . S
C947 C966 1.368 1_556 S
C947 H971 0.949 . S
H948 C952 0.949 . S
C949 C950 1.349 1_556 S
C949 C951 1.327 . S
C949 H972 0.950 . S
C950 C949 1.349 1_554 S
C950 C962 1.349 . S
C951 C949 1.327 . S
C951 C967 1.429 1_556 S
C951 H973 0.950 . S
C952 H948 0.949 . S
C952 C960 1.574 . S
C952 C968 1.368 . S
H953 C961 0.950 . S
H954 C959 0.950 . S
H955 C960 0.949 . S
H956 C962 0.950 . S
H957 C963 0.950 . S
H958 C964 0.949 . S
C959 H954 0.950 . S
C959 C961 1.327 . S
C959 C965 1.429 1_556 S
C960 C952 1.574 . S
C960 H955 0.949 . S
C960 C966 1.368 . S
C961 C945 1.349 1_556 S
C961 H953 0.950 . S
C961 C959 1.327 . S
C962 C950 1.349 . S
C962 H956 0.950 . S
C962 C963 1.327 . S
C963 H957 0.950 . S
C963 C962 1.327 . S
C963 C967 1.429 . S
C964 C947 1.574 . S
C964 H958 0.949 . S
C964 C968 1.368 1_556 S
C965 C946 1.429 . S
C965 C959 1.429 1_554 S
C965 C966 1.523 . S
C966 C947 1.368 1_554 S
C966 C960 1.368 . S
C966 C965 1.523 . S
C967 C951 1.429 1_554 S
C967 C963 1.429 . S
C967 C968 1.523 . S
C968 C952 1.368 . S
C968 C964 1.368 1_554 S
C968 C967 1.523 . S
H969 C944 0.950 . S
H970 C946 0.950 . S
H971 C947 0.949 . S
H972 C949 0.950 . S
H973 C951 0.950 . S
C974 C975 1.349 . S
C974 C976 1.327 . S
C974 H999 0.950 . S
C975 C974 1.349 . S
C975 C991 1.349 1_554 S
C976 C974 1.327 . S
C976 C995 1.429 . S
C976 H1000 0.950 . S
C977 C994 1.574 . S
C977 C996 1.368 1_556 S
C977 H1001 0.949 . S
H978 C982 0.949 . S
C979 C980 1.349 1_556 S
C979 C981 1.327 . S
C979 H1002 0.950 . S
C980 C979 1.349 1_554 S
C980 C992 1.349 . S
C981 C979 1.327 . S
C981 C997 1.429 1_556 S
C981 H1003 0.950 . S
C982 H978 0.949 . S
C982 C990 1.574 . S
C982 C998 1.368 . S
H983 C991 0.950 . S
H984 C989 0.950 . S
H985 C990 0.949 . S
H986 C992 0.950 . S
H987 C993 0.950 . S
H988 C994 0.949 . S
C989 H984 0.950 . S
C989 C991 1.327 . S
C989 C995 1.429 1_556 S
C990 C982 1.574 . S
C990 H985 0.949 . S
C990 C996 1.368 . S
C991 C975 1.349 1_556 S
C991 H983 0.950 . S
C991 C989 1.327 . S
C992 C980 1.349 . S
C992 H986 0.950 . S
C992 C993 1.327 . S
C993 H987 0.950 . S
C993 C992 1.327 . S
C993 C997 1.429 . S
C994 C977 1.574 . S
C994 H988 0.949 . S
C994 C998 1.368 1_556 S
C995 C976 1.429 . S
C995 C989 1.429 1_554 S
C995 C996 1.523 . S
C996 C977 1.368 1_554 S
C996 C990 1.368 . S
C996 C995 1.523 . S
C997 C981 1.429 1_554 S
C997 C993 1.429 . S
C997 C998 1.523 . S
C998 C982 1.368 . S
C998 C994 1.368 1_554 S
C998 C997 1.523 . S
H999 C974 0.950 . S
H1000 C976 0.950 . S
H1001 C977 0.949 . S
H1002 C979 0.950 . S
H1003 C981 0.950 . S
C1004 C1005 1.349 . S
C1004 C1006 1.327 . S
C1004 H1029 0.950 . S
C1005 C1004 1.349 . S
C1005 C1021 1.349 1_554 S
C1006 C1004 1.327 . S
C1006 C1025 1.429 . S
C1006 H1030 0.950 . S
C1007 C1024 1.574 . S
C1007 C1026 1.368 1_556 S
C1007 H1031 0.949 . S
H1008 C1012 0.949 . S
C1009 C1010 1.349 1_556 S
C1009 C1011 1.327 . S
C1009 H1032 0.950 . S
C1010 C1009 1.349 1_554 S
C1010 C1022 1.349 . S
C1011 C1009 1.327 . S
C1011 C1027 1.429 1_556 S
C1011 H1033 0.950 . S
C1012 H1008 0.949 . S
C1012 C1020 1.574 . S
C1012 C1028 1.368 . S
H1013 C1021 0.950 . S
H1014 C1019 0.950 . S
H1015 C1020 0.949 . S
H1016 C1022 0.950 . S
H1017 C1023 0.950 . S
H1018 C1024 0.949 . S
C1019 H1014 0.950 . S
C1019 C1021 1.327 . S
C1019 C1025 1.429 1_556 S
C1020 C1012 1.574 . S
C1020 H1015 0.949 . S
C1020 C1026 1.368 . S
C1021 C1005 1.349 1_556 S
C1021 H1013 0.950 . S
C1021 C1019 1.327 . S
C1022 C1010 1.349 . S
C1022 H1016 0.950 . S
C1022 C1023 1.327 . S
C1023 H1017 0.950 . S
C1023 C1022 1.327 . S
C1023 C1027 1.429 . S
C1024 C1007 1.574 . S
C1024 H1018 0.949 . S
C1024 C1028 1.368 1_556 S
C1025 C1006 1.429 . S
C1025 C1019 1.429 1_554 S
C1025 C1026 1.523 . S
C1026 C1007 1.368 1_554 S
C1026 C1020 1.368 . S
C1026 C1025 1.523 . S
C1027 C1011 1.429 1_554 S
C1027 C1023 1.429 . S
C1027 C1028 1.523 . S
C1028 C1012 1.368 . S
C1028 C1024 1.368 1_554 S
C1028 C1027 1.523 . S
H1029 C1004 0.950 . S
H1030 C1006 0.950 . S
H1031 C1007 0.949 . S
H1032 C1009 0.950 . S
H1033 C1011 0.950 . S
C1034 C1035 1.349 . S
C1034 C1036 1.327 . S
C1034 H1059 0.950 . S
C1035 C1034 1.349 . S
C1035 C1051 1.349 1_554 S
C1036 C1034 1.327 . S
C1036 C1055 1.429 . S
C1036 H1060 0.950 . S
C1037 C1054 1.574 . S
C1037 C1056 1.368 1_556 S
C1037 H1061 0.949 . S
H1038 C1042 0.949 . S
C1039 C1040 1.349 1_556 S
C1039 C1041 1.327 . S
C1039 H1062 0.950 . S
C1040 C1039 1.349 1_554 S
C1040 C1052 1.349 . S
C1041 C1039 1.327 . S
C1041 C1057 1.429 1_556 S
C1041 H1063 0.950 . S
C1042 H1038 0.949 . S
C1042 C1050 1.574 . S
C1042 C1058 1.368 . S
H1043 C1051 0.950 . S
H1044 C1049 0.950 . S
H1045 C1050 0.949 . S
H1046 C1052 0.950 . S
H1047 C1053 0.950 . S
H1048 C1054 0.949 . S
C1049 H1044 0.950 . S
C1049 C1051 1.327 . S
C1049 C1055 1.429 1_556 S
C1050 C1042 1.574 . S
C1050 H1045 0.949 . S
C1050 C1056 1.368 . S
C1051 C1035 1.349 1_556 S
C1051 H1043 0.950 . S
C1051 C1049 1.327 . S
C1052 C1040 1.349 . S
C1052 H1046 0.950 . S
C1052 C1053 1.327 . S
C1053 H1047 0.950 . S
C1053 C1052 1.327 . S
C1053 C1057 1.429 . S
C1054 C1037 1.574 . S
C1054 H1048 0.949 . S
C1054 C1058 1.368 1_556 S
C1055 C1036 1.429 . S
C1055 C1049 1.429 1_554 S
C1055 C1056 1.523 . S
C1056 C1037 1.368 1_554 S
C1056 C1050 1.368 . S
C1056 C1055 1.523 . S
C1057 C1041 1.429 1_554 S
C1057 C1053 1.429 . S
C1057 C1058 1.523 . S
C1058 C1042 1.368 . S
C1058 C1054 1.368 1_554 S
C1058 C1057 1.523 . S
H1059 C1034 0.950 . S
H1060 C1036 0.950 . S
H1061 C1037 0.949 . S
H1062 C1039 0.950 . S
H1063 C1041 0.950 . S
C1064 C1065 1.349 . S
C1064 C1066 1.327 . S
C1064 H1089 0.950 . S
C1065 C1064 1.349 . S
C1065 C1081 1.349 . S
C1066 C1064 1.327 . S
C1066 C1085 1.429 . S
C1066 H1090 0.950 . S
C1067 C1084 1.574 1_545 S
C1067 C1086 1.368 . S
C1067 H1091 0.949 . S
H1068 C1072 0.949 . S
C1069 C1070 1.349 . S
C1069 C1071 1.327 . S
C1069 H1092 0.950 . S
C1070 C1069 1.349 . S
C1070 C1082 1.349 . S
C1071 C1069 1.327 . S
C1071 C1087 1.429 . S
C1071 H1093 0.950 . S
C1072 H1068 0.949 . S
C1072 C1080 1.574 1_565 S
C1072 C1088 1.368 . S
H1073 C1081 0.950 . S
H1074 C1079 0.950 . S
H1075 C1080 0.949 . S
H1076 C1082 0.950 . S
H1077 C1083 0.950 . S
H1078 C1084 0.949 . S
C1079 H1074 0.950 . S
C1079 C1081 1.327 . S
C1079 C1085 1.429 . S
C1080 C1072 1.574 1_545 S
C1080 H1075 0.949 . S
C1080 C1086 1.368 . S
C1081 C1065 1.349 . S
C1081 H1073 0.950 . S
C1081 C1079 1.327 . S
C1082 C1070 1.349 . S
C1082 H1076 0.950 . S
C1082 C1083 1.327 . S
C1083 H1077 0.950 . S
C1083 C1082 1.327 . S
C1083 C1087 1.429 . S
C1084 C1067 1.574 1_565 S
C1084 H1078 0.949 . S
C1084 C1088 1.368 . S
C1085 C1066 1.429 . S
C1085 C1079 1.429 . S
C1085 C1086 1.523 . S
C1086 C1067 1.368 . S
C1086 C1080 1.368 . S
C1086 C1085 1.523 . S
C1087 C1071 1.429 . S
C1087 C1083 1.429 . S
C1087 C1088 1.523 . S
C1088 C1072 1.368 . S
C1088 C1084 1.368 . S
C1088 C1087 1.523 . S
H1089 C1064 0.950 . S
H1090 C1066 0.950 . S
H1091 C1067 0.949 . S
H1092 C1069 0.950 . S
H1093 C1071 0.950 . S
C1094 C1095 1.349 . S
C1094 C1096 1.327 . S
C1094 H1119 0.950 . S
C1095 C1094 1.349 . S
C1095 C1111 1.349 . S
C1096 C1094 1.327 . S
C1096 C1115 1.429 . S
C1096 H1120 0.950 . S
C1097 C1114 1.574 1_655 S
C1097 C1116 1.368 . S
C1097 H1121 0.949 . S
H1098 C1102 0.949 . S
C1099 C1100 1.349 . S
C1099 C1101 1.327 . S
C1099 H1122 0.950 . S
C1100 C1099 1.349 . S
C1100 C1112 1.349 . S
C1101 C1099 1.327 . S
C1101 C1117 1.429 . S
C1101 H1123 0.950 . S
C1102 H1098 0.949 . S
C1102 C1110 1.574 1_455 S
C1102 C1118 1.368 . S
H1103 C1111 0.950 . S
H1104 C1109 0.950 . S
H1105 C1110 0.949 . S
H1106 C1112 0.950 . S
H1107 C1113 0.950 . S
H1108 C1114 0.949 . S
C1109 H1104 0.950 . S
C1109 C1111 1.327 . S
C1109 C1115 1.429 . S
C1110 C1102 1.574 1_655 S
C1110 H1105 0.949 . S
C1110 C1116 1.368 . S
C1111 C1095 1.349 . S
C1111 H1103 0.950 . S
C1111 C1109 1.327 . S
C1112 C1100 1.349 . S
C1112 H1106 0.950 . S
C1112 C1113 1.327 . S
C1113 H1107 0.950 . S
C1113 C1112 1.327 . S
C1113 C1117 1.429 . S
C1114 C1097 1.574 1_455 S
C1114 H1108 0.949 . S
C1114 C1118 1.368 . S
C1115 C1096 1.429 . S
C1115 C1109 1.429 . S
C1115 C1116 1.523 . S
C1116 C1097 1.368 . S
C1116 C1110 1.368 . S
C1116 C1115 1.523 . S
C1117 C1101 1.429 . S
C1117 C1113 1.429 . S
C1117 C1118 1.523 . S
C1118 C1102 1.368 . S
C1118 C1114 1.368 . S
C1118 C1117 1.523 . S
H1119 C1094 0.950 . S
H1120 C1096 0.950 . S
H1121 C1097 0.949 . S
H1122 C1099 0.950 . S
H1123 C1101 0.950 . S
C1124 C1125 1.349 . S
C1124 C1126 1.327 . S
C1124 H1149 0.950 . S
C1125 C1124 1.349 . S
C1125 C1141 1.349 . S
C1126 C1124 1.327 . S
C1126 C1145 1.429 . S
C1126 H1150 0.950 . S
C1127 C1144 1.574 1_545 S
C1127 C1146 1.368 . S
C1127 H1151 0.949 . S
H1128 C1132 0.949 . S
C1129 C1130 1.349 . S
C1129 C1131 1.327 . S
C1129 H1152 0.950 . S
C1130 C1129 1.349 . S
C1130 C1142 1.349 . S
C1131 C1129 1.327 . S
C1131 C1147 1.429 . S
C1131 H1153 0.950 . S
C1132 H1128 0.949 . S
C1132 C1140 1.574 1_565 S
C1132 C1148 1.368 . S
H1133 C1141 0.950 . S
H1134 C1139 0.950 . S
H1135 C1140 0.949 . S
H1136 C1142 0.950 . S
H1137 C1143 0.950 . S
H1138 C1144 0.949 . S
C1139 H1134 0.950 . S
C1139 C1141 1.327 . S
C1139 C1145 1.429 . S
C1140 C1132 1.574 1_545 S
C1140 H1135 0.949 . S
C1140 C1146 1.368 . S
C1141 C1125 1.349 . S
C1141 H1133 0.950 . S
C1141 C1139 1.327 . S
C1142 C1130 1.349 . S
C1142 H1136 0.950 . S
C1142 C1143 1.327 . S
C1143 H1137 0.950 . S
C1143 C1142 1.327 . S
C1143 C1147 1.429 . S
C1144 C1127 1.574 1_565 S
C1144 H1138 0.949 . S
C1144 C1148 1.368 . S
C1145 C1126 1.429 . S
C1145 C1139 1.429 . S
C1145 C1146 1.523 . S
C1146 C1127 1.368 . S
C1146 C1140 1.368 . S
C1146 C1145 1.523 . S
C1147 C1131 1.429 . S
C1147 C1143 1.429 . S
C1147 C1148 1.523 . S
C1148 C1132 1.368 . S
C1148 C1144 1.368 . S
C1148 C1147 1.523 . S
H1149 C1124 0.950 . S
H1150 C1126 0.950 . S
H1151 C1127 0.949 . S
H1152 C1129 0.950 . S
H1153 C1131 0.950 . S
C1154 C1155 1.349 . S
C1154 C1156 1.327 . S
C1154 H1179 0.950 . S
C1155 C1154 1.349 . S
C1155 C1171 1.349 . S
C1156 C1154 1.327 . S
C1156 C1175 1.429 . S
C1156 H1180 0.950 . S
C1157 C1174 1.574 1_455 S
C1157 C1176 1.368 . S
C1157 H1181 0.949 . S
H1158 C1162 0.949 . S
C1159 C1160 1.349 . S
C1159 C1161 1.327 . S
C1159 H1182 0.950 . S
C1160 C1159 1.349 . S
C1160 C1172 1.349 . S
C1161 C1159 1.327 . S
C1161 C1177 1.429 . S
C1161 H1183 0.950 . S
C1162 H1158 0.949 . S
C1162 C1170 1.574 1_655 S
C1162 C1178 1.368 . S
H1163 C1171 0.950 . S
H1164 C1169 0.950 . S
H1165 C1170 0.949 . S
H1166 C1172 0.950 . S
H1167 C1173 0.950 . S
H1168 C1174 0.949 . S
C1169 H1164 0.950 . S
C1169 C1171 1.327 . S
C1169 C1175 1.429 . S
C1170 C1162 1.574 1_455 S
C1170 H1165 0.949 . S
C1170 C1176 1.368 . S
C1171 C1155 1.349 . S
C1171 H1163 0.950 . S
C1171 C1169 1.327 . S
C1172 C1160 1.349 . S
C1172 H1166 0.950 . S
C1172 C1173 1.327 . S
C1173 H1167 0.950 . S
C1173 C1172 1.327 . S
C1173 C1177 1.429 . S
C1174 C1157 1.574 1_655 S
C1174 H1168 0.949 . S
C1174 C1178 1.368 . S
C1175 C1156 1.429 . S
C1175 C1169 1.429 . S
C1175 C1176 1.523 . S
C1176 C1157 1.368 . S
C1176 C1170 1.368 . S
C1176 C1175 1.523 . S
C1177 C1161 1.429 . S
C1177 C1173 1.429 . S
C1177 C1178 1.523 . S
C1178 C1162 1.368 . S
C1178 C1174 1.368 . S
C1178 C1177 1.523 . S
H1179 C1154 0.950 . S
H1180 C1156 0.950 . S
H1181 C1157 0.949 . S
H1182 C1159 0.950 . S
H1183 C1161 0.950 . S
C1184 C1185 1.349 1_556 S
C1184 C1186 1.327 . S
C1184 H1209 0.950 . S
C1185 C1184 1.349 1_554 S
C1185 C1201 1.349 . S
C1186 C1184 1.327 . S
C1186 C1205 1.429 1_556 S
C1186 H1210 0.950 . S
C1187 C1204 1.574 . S
C1187 C1206 1.368 . S
C1187 H1211 0.949 . S
H1188 C1192 0.949 . S
C1189 C1190 1.349 . S
C1189 C1191 1.327 . S
C1189 H1212 0.950 . S
C1190 C1189 1.349 . S
C1190 C1202 1.349 1_554 S
C1191 C1189 1.327 . S
C1191 C1207 1.429 . S
C1191 H1213 0.950 . S
C1192 H1188 0.949 . S
C1192 C1200 1.574 . S
C1192 C1208 1.368 1_556 S
H1193 C1201 0.950 . S
H1194 C1199 0.950 . S
H1195 C1200 0.949 . S
H1196 C1202 0.950 . S
H1197 C1203 0.950 . S
H1198 C1204 0.949 . S
C1199 H1194 0.950 . S
C1199 C1201 1.327 . S
C1199 C1205 1.429 . S
C1200 C1192 1.574 . S
C1200 H1195 0.949 . S
C1200 C1206 1.368 1_556 S
C1201 C1185 1.349 . S
C1201 H1193 0.950 . S
C1201 C1199 1.327 . S
C1202 C1190 1.349 1_556 S
C1202 H1196 0.950 . S
C1202 C1203 1.327 . S
C1203 H1197 0.950 . S
C1203 C1202 1.327 . S
C1203 C1207 1.429 1_556 S
C1204 C1187 1.574 . S
C1204 H1198 0.949 . S
C1204 C1208 1.368 . S
C1205 C1186 1.429 1_554 S
C1205 C1199 1.429 . S
C1205 C1206 1.523 . S
C1206 C1187 1.368 . S
C1206 C1200 1.368 1_554 S
C1206 C1205 1.523 . S
C1207 C1191 1.429 . S
C1207 C1203 1.429 1_554 S
C1207 C1208 1.523 . S
C1208 C1192 1.368 1_554 S
C1208 C1204 1.368 . S
C1208 C1207 1.523 . S
H1209 C1184 0.950 . S
H1210 C1186 0.950 . S
H1211 C1187 0.949 . S
H1212 C1189 0.950 . S
H1213 C1191 0.950 . S
C1214 C1215 1.349 1_556 S
C1214 C1216 1.327 . S
C1214 H1239 0.950 . S
C1215 C1214 1.349 1_554 S
C1215 C1231 1.349 . S
C1216 C1214 1.327 . S
C1216 C1235 1.429 1_556 S
C1216 H1240 0.950 . S
C1217 C1234 1.574 . S
C1217 C1236 1.368 . S
C1217 H1241 0.949 . S
H1218 C1222 0.949 . S
C1219 C1220 1.349 . S
C1219 C1221 1.327 . S
C1219 H1242 0.950 . S
C1220 C1219 1.349 . S
C1220 C1232 1.349 1_554 S
C1221 C1219 1.327 . S
C1221 C1237 1.429 . S
C1221 H1243 0.950 . S
C1222 H1218 0.949 . S
C1222 C1230 1.574 . S
C1222 C1238 1.368 1_556 S
H1223 C1231 0.950 . S
H1224 C1229 0.950 . S
H1225 C1230 0.949 . S
H1226 C1232 0.950 . S
H1227 C1233 0.950 . S
H1228 C1234 0.949 . S
C1229 H1224 0.950 . S
C1229 C1231 1.327 . S
C1229 C1235 1.429 . S
C1230 C1222 1.574 . S
C1230 H1225 0.949 . S
C1230 C1236 1.368 1_556 S
C1231 C1215 1.349 . S
C1231 H1223 0.950 . S
C1231 C1229 1.327 . S
C1232 C1220 1.349 1_556 S
C1232 H1226 0.950 . S
C1232 C1233 1.327 . S
C1233 H1227 0.950 . S
C1233 C1232 1.327 . S
C1233 C1237 1.429 1_556 S
C1234 C1217 1.574 . S
C1234 H1228 0.949 . S
C1234 C1238 1.368 . S
C1235 C1216 1.429 1_554 S
C1235 C1229 1.429 . S
C1235 C1236 1.523 . S
C1236 C1217 1.368 . S
C1236 C1230 1.368 1_554 S
C1236 C1235 1.523 . S
C1237 C1221 1.429 . S
C1237 C1233 1.429 1_554 S
C1237 C1238 1.523 . S
C1238 C1222 1.368 1_554 S
C1238 C1234 1.368 . S
C1238 C1237 1.523 . S
H1239 C1214 0.950 . S
H1240 C1216 0.950 . S
H1241 C1217 0.949 . S
H1242 C1219 0.950 . S
H1243 C1221 0.950 . S
C1244 C1245 1.349 1_556 S
C1244 C1246 1.327 . S
C1244 H1269 0.950 . S
C1245 C1244 1.349 1_554 S
C1245 C1261 1.349 . S
C1246 C1244 1.327 . S
C1246 C1265 1.429 1_556 S
C1246 H1270 0.950 . S
C1247 C1264 1.574 . S
C1247 C1266 1.368 . S
C1247 H1271 0.949 . S
H1248 C1252 0.949 . S
C1249 C1250 1.349 . S
C1249 C1251 1.327 . S
C1249 H1272 0.950 . S
C1250 C1249 1.349 . S
C1250 C1262 1.349 1_554 S
C1251 C1249 1.327 . S
C1251 C1267 1.429 . S
C1251 H1273 0.950 . S
C1252 H1248 0.949 . S
C1252 C1260 1.574 . S
C1252 C1268 1.368 1_556 S
H1253 C1261 0.950 . S
H1254 C1259 0.950 . S
H1255 C1260 0.949 . S
H1256 C1262 0.950 . S
H1257 C1263 0.950 . S
H1258 C1264 0.949 . S
C1259 H1254 0.950 . S
C1259 C1261 1.327 . S
C1259 C1265 1.429 . S
C1260 C1252 1.574 . S
C1260 H1255 0.949 . S
C1260 C1266 1.368 1_556 S
C1261 C1245 1.349 . S
C1261 H1253 0.950 . S
C1261 C1259 1.327 . S
C1262 C1250 1.349 1_556 S
C1262 H1256 0.950 . S
C1262 C1263 1.327 . S
C1263 H1257 0.950 . S
C1263 C1262 1.327 . S
C1263 C1267 1.429 1_556 S
C1264 C1247 1.574 . S
C1264 H1258 0.949 . S
C1264 C1268 1.368 . S
C1265 C1246 1.429 1_554 S
C1265 C1259 1.429 . S
C1265 C1266 1.523 . S
C1266 C1247 1.368 . S
C1266 C1260 1.368 1_554 S
C1266 C1265 1.523 . S
C1267 C1251 1.429 . S
C1267 C1263 1.429 1_554 S
C1267 C1268 1.523 . S
C1268 C1252 1.368 1_554 S
C1268 C1264 1.368 . S
C1268 C1267 1.523 . S
H1269 C1244 0.950 . S
H1270 C1246 0.950 . S
H1271 C1247 0.949 . S
H1272 C1249 0.950 . S
H1273 C1251 0.950 . S
C1274 C1275 1.349 . S
C1274 C1276 1.327 . S
C1274 H1299 0.950 . S
C1275 C1274 1.349 . S
C1275 C1291 1.349 1_554 S
C1276 C1274 1.327 . S
C1276 C1295 1.429 . S
C1276 H1300 0.950 . S
C1277 C1294 1.574 . S
C1277 C1296 1.368 1_556 S
C1277 H1301 0.949 . S
H1278 C1282 0.949 . S
C1279 C1280 1.349 1_556 S
C1279 C1281 1.327 . S
C1279 H1302 0.950 . S
C1280 C1279 1.349 1_554 S
C1280 C1292 1.349 . S
C1281 C1279 1.327 . S
C1281 C1297 1.429 1_556 S
C1281 H1303 0.950 . S
C1282 H1278 0.949 . S
C1282 C1290 1.574 . S
C1282 C1298 1.368 . S
H1283 C1291 0.950 . S
H1284 C1289 0.950 . S
H1285 C1290 0.949 . S
H1286 C1292 0.950 . S
H1287 C1293 0.950 . S
H1288 C1294 0.949 . S
C1289 H1284 0.950 . S
C1289 C1291 1.327 . S
C1289 C1295 1.429 1_556 S
C1290 C1282 1.574 . S
C1290 H1285 0.949 . S
C1290 C1296 1.368 . S
C1291 C1275 1.349 1_556 S
C1291 H1283 0.950 . S
C1291 C1289 1.327 . S
C1292 C1280 1.349 . S
C1292 H1286 0.950 . S
C1292 C1293 1.327 . S
C1293 H1287 0.950 . S
C1293 C1292 1.327 . S
C1293 C1297 1.429 . S
C1294 C1277 1.574 . S
C1294 H1288 0.949 . S
C1294 C1298 1.368 1_556 S
C1295 C1276 1.429 . S
C1295 C1289 1.429 1_554 S
C1295 C1296 1.523 . S
C1296 C1277 1.368 1_554 S
C1296 C1290 1.368 . S
C1296 C1295 1.523 . S
C1297 C1281 1.429 1_554 S
C1297 C1293 1.429 . S
C1297 C1298 1.523 . S
C1298 C1282 1.368 . S
C1298 C1294 1.368 1_554 S
C1298 C1297 1.523 . S
H1299 C1274 0.950 . S
H1300 C1276 0.950 . S
H1301 C1277 0.949 . S
H1302 C1279 0.950 . S
H1303 C1281 0.950 . S
C1304 C1305 1.349 . S
C1304 C1306 1.327 . S
C1304 H1329 0.950 . S
C1305 C1304 1.349 . S
C1305 C1321 1.349 . S
C1306 C1304 1.327 . S
C1306 C1325 1.429 . S
C1306 H1330 0.950 . S
C1307 C1324 1.574 . S
C1307 C1326 1.368 . S
C1307 H1331 0.949 . S
H1308 C1312 0.949 . S
C1309 C1310 1.349 . S
C1309 C1311 1.327 . S
C1309 H1332 0.950 . S
C1310 C1309 1.349 . S
C1310 C1322 1.349 . S
C1311 C1309 1.327 . S
C1311 C1327 1.429 . S
C1311 H1333 0.950 . S
C1312 H1308 0.949 . S
C1312 C1320 1.574 . S
C1312 C1328 1.368 . S
H1313 C1321 0.950 . S
H1314 C1319 0.950 . S
H1315 C1320 0.949 . S
H1316 C1322 0.950 . S
H1317 C1323 0.950 . S
H1318 C1324 0.949 . S
C1319 H1314 0.950 . S
C1319 C1321 1.327 . S
C1319 C1325 1.429 . S
C1320 C1312 1.574 . S
C1320 H1315 0.949 . S
C1320 C1326 1.368 . S
C1321 C1305 1.349 . S
C1321 H1313 0.950 . S
C1321 C1319 1.327 . S
C1322 C1310 1.349 . S
C1322 H1316 0.950 . S
C1322 C1323 1.327 . S
C1323 H1317 0.950 . S
C1323 C1322 1.327 . S
C1323 C1327 1.429 . S
C1324 C1307 1.574 . S
C1324 H1318 0.949 . S
C1324 C1328 1.368 . S
C1325 C1306 1.429 . S
C1325 C1319 1.429 . S
C1325 C1326 1.523 . S
C1326 C1307 1.368 . S
C1326 C1320 1.368 . S
C1326 C1325 1.523 . S
C1327 C1311 1.429 . S
C1327 C1323 1.429 . S
C1327 C1328 1.523 . S
C1328 C1312 1.368 . S
C1328 C1324 1.368 . S
C1328 C1327 1.523 . S
H1329 C1304 0.950 . S
H1330 C1306 0.950 . S
H1331 C1307 0.949 . S
H1332 C1309 0.950 . S
H1333 C1311 0.950 . S
C1334 C1335 1.349 . S
C1334 C1336 1.327 . S
C1334 H1359 0.950 . S
C1335 C1334 1.349 . S
C1335 C1351 1.349 . S
C1336 C1334 1.327 . S
C1336 C1355 1.429 . S
C1336 H1360 0.950 . S
C1337 C1354 1.574 . S
C1337 C1356 1.368 . S
C1337 H1361 0.949 . S
H1338 C1342 0.949 . S
C1339 C1340 1.349 . S
C1339 C1341 1.327 . S
C1339 H1362 0.950 . S
C1340 C1339 1.349 . S
C1340 C1352 1.349 . S
C1341 C1339 1.327 . S
C1341 C1357 1.429 . S
C1341 H1363 0.950 . S
C1342 H1338 0.949 . S
C1342 C1350 1.574 . S
C1342 C1358 1.368 . S
H1343 C1351 0.950 . S
H1344 C1349 0.950 . S
H1345 C1350 0.949 . S
H1346 C1352 0.950 . S
H1347 C1353 0.950 . S
H1348 C1354 0.949 . S
C1349 H1344 0.950 . S
C1349 C1351 1.327 . S
C1349 C1355 1.429 . S
C1350 C1342 1.574 . S
C1350 H1345 0.949 . S
C1350 C1356 1.368 . S
C1351 C1335 1.349 . S
C1351 H1343 0.950 . S
C1351 C1349 1.327 . S
C1352 C1340 1.349 . S
C1352 H1346 0.950 . S
C1352 C1353 1.327 . S
C1353 H1347 0.950 . S
C1353 C1352 1.327 . S
C1353 C1357 1.429 . S
C1354 C1337 1.574 . S
C1354 H1348 0.949 . S
C1354 C1358 1.368 . S
C1355 C1336 1.429 . S
C1355 C1349 1.429 . S
C1355 C1356 1.523 . S
C1356 C1337 1.368 . S
C1356 C1350 1.368 . S
C1356 C1355 1.523 . S
C1357 C1341 1.429 . S
C1357 C1353 1.429 . S
C1357 C1358 1.523 . S
C1358 C1342 1.368 . S
C1358 C1354 1.368 . S
C1358 C1357 1.523 . S
H1359 C1334 0.950 . S
H1360 C1336 0.950 . S
H1361 C1337 0.949 . S
H1362 C1339 0.950 . S
H1363 C1341 0.950 . S
C1364 C1365 1.349 . S
C1364 C1366 1.327 . S
C1364 H1389 0.950 . S
C1365 C1364 1.349 . S
C1365 C1381 1.349 . S
C1366 C1364 1.327 . S
C1366 C1385 1.429 . S
C1366 H1390 0.950 . S
C1367 C1384 1.574 . S
C1367 C1386 1.368 . S
C1367 H1391 0.949 . S
H1368 C1372 0.949 . S
C1369 C1370 1.349 . S
C1369 C1371 1.327 . S
C1369 H1392 0.950 . S
C1370 C1369 1.349 . S
C1370 C1382 1.349 . S
C1371 C1369 1.327 . S
C1371 C1387 1.429 . S
C1371 H1393 0.950 . S
C1372 H1368 0.949 . S
C1372 C1380 1.574 . S
C1372 C1388 1.368 . S
H1373 C1381 0.950 . S
H1374 C1379 0.950 . S
H1375 C1380 0.949 . S
H1376 C1382 0.950 . S
H1377 C1383 0.950 . S
H1378 C1384 0.949 . S
C1379 H1374 0.950 . S
C1379 C1381 1.327 . S
C1379 C1385 1.429 . S
C1380 C1372 1.574 . S
C1380 H1375 0.949 . S
C1380 C1386 1.368 . S
C1381 C1365 1.349 . S
C1381 H1373 0.950 . S
C1381 C1379 1.327 . S
C1382 C1370 1.349 . S
C1382 H1376 0.950 . S
C1382 C1383 1.327 . S
C1383 H1377 0.950 . S
C1383 C1382 1.327 . S
C1383 C1387 1.429 . S
C1384 C1367 1.574 . S
C1384 H1378 0.949 . S
C1384 C1388 1.368 . S
C1385 C1366 1.429 . S
C1385 C1379 1.429 . S
C1385 C1386 1.523 . S
C1386 C1367 1.368 . S
C1386 C1380 1.368 . S
C1386 C1385 1.523 . S
C1387 C1371 1.429 . S
C1387 C1383 1.429 . S
C1387 C1388 1.523 . S
C1388 C1372 1.368 . S
C1388 C1384 1.368 . S
C1388 C1387 1.523 . S
H1389 C1364 0.950 . S
H1390 C1366 0.950 . S
H1391 C1367 0.949 . S
H1392 C1369 0.950 . S
H1393 C1371 0.950 . S
C1394 C1395 1.349 . S
C1394 C1396 1.327 . S
C1394 H1419 0.950 . S
C1395 C1394 1.349 . S
C1395 C1411 1.349 . S
C1396 C1394 1.327 . S
C1396 C1415 1.429 . S
C1396 H1420 0.950 . S
C1397 C1414 1.574 . S
C1397 C1416 1.368 . S
C1397 H1421 0.949 . S
H1398 C1402 0.949 . S
C1399 C1400 1.349 . S
C1399 C1401 1.327 . S
C1399 H1422 0.950 . S
C1400 C1399 1.349 . S
C1400 C1412 1.349 . S
C1401 C1399 1.327 . S
C1401 C1417 1.429 . S
C1401 H1423 0.950 . S
C1402 H1398 0.949 . S
C1402 C1410 1.574 . S
C1402 C1418 1.368 . S
H1403 C1411 0.950 . S
H1404 C1409 0.950 . S
H1405 C1410 0.949 . S
H1406 C1412 0.950 . S
H1407 C1413 0.950 . S
H1408 C1414 0.949 . S
C1409 H1404 0.950 . S
C1409 C1411 1.327 . S
C1409 C1415 1.429 . S
C1410 C1402 1.574 . S
C1410 H1405 0.949 . S
C1410 C1416 1.368 . S
C1411 C1395 1.349 . S
C1411 H1403 0.950 . S
C1411 C1409 1.327 . S
C1412 C1400 1.349 . S
C1412 H1406 0.950 . S
C1412 C1413 1.327 . S
C1413 H1407 0.950 . S
C1413 C1412 1.327 . S
C1413 C1417 1.429 . S
C1414 C1397 1.574 . S
C1414 H1408 0.949 . S
C1414 C1418 1.368 . S
C1415 C1396 1.429 . S
C1415 C1409 1.429 . S
C1415 C1416 1.523 . S
C1416 C1397 1.368 . S
C1416 C1410 1.368 . S
C1416 C1415 1.523 . S
C1417 C1401 1.429 . S
C1417 C1413 1.429 . S
C1417 C1418 1.523 . S
C1418 C1402 1.368 . S
C1418 C1414 1.368 . S
C1418 C1417 1.523 . S
H1419 C1394 0.950 . S
H1420 C1396 0.950 . S
H1421 C1397 0.949 . S
H1422 C1399 0.950 . S
H1423 C1401 0.950 . S
C1424 C1425 1.349 . S
C1424 C1426 1.327 . S
C1424 H1449 0.950 . S
C1425 C1424 1.349 . S
C1425 C1441 1.349 . S
C1426 C1424 1.327 . S
C1426 C1445 1.429 . S
C1426 H1450 0.950 . S
C1427 C1444 1.574 . S
C1427 C1446 1.368 . S
C1427 H1451 0.949 . S
H1428 C1432 0.949 . S
C1429 C1430 1.349 . S
C1429 C1431 1.327 . S
C1429 H1452 0.950 . S
C1430 C1429 1.349 . S
C1430 C1442 1.349 . S
C1431 C1429 1.327 . S
C1431 C1447 1.429 . S
C1431 H1453 0.950 . S
C1432 H1428 0.949 . S
C1432 C1440 1.574 . S
C1432 C1448 1.368 . S
H1433 C1441 0.950 . S
H1434 C1439 0.950 . S
H1435 C1440 0.949 . S
H1436 C1442 0.950 . S
H1437 C1443 0.950 . S
H1438 C1444 0.949 . S
C1439 H1434 0.950 . S
C1439 C1441 1.327 . S
C1439 C1445 1.429 . S
C1440 C1432 1.574 . S
C1440 H1435 0.949 . S
C1440 C1446 1.368 . S
C1441 C1425 1.349 . S
C1441 H1433 0.950 . S
C1441 C1439 1.327 . S
C1442 C1430 1.349 . S
C1442 H1436 0.950 . S
C1442 C1443 1.327 . S
C1443 H1437 0.950 . S
C1443 C1442 1.327 . S
C1443 C1447 1.429 . S
C1444 C1427 1.574 . S
C1444 H1438 0.949 . S
C1444 C1448 1.368 . S
C1445 C1426 1.429 . S
C1445 C1439 1.429 . S
C1445 C1446 1.523 . S
C1446 C1427 1.368 . S
C1446 C1440 1.368 . S
C1446 C1445 1.523 . S
C1447 C1431 1.429 . S
C1447 C1443 1.429 . S
C1447 C1448 1.523 . S
C1448 C1432 1.368 . S
C1448 C1444 1.368 . S
C1448 C1447 1.523 . S
H1449 C1424 0.950 . S
H1450 C1426 0.950 . S
H1451 C1427 0.949 . S
H1452 C1429 0.950 . S
H1453 C1431 0.950 . S
C1454 C1455 1.349 . S
C1454 C1456 1.327 . S
C1454 H1479 0.950 . S
C1455 C1454 1.349 . S
C1455 C1471 1.349 . S
C1456 C1454 1.327 . S
C1456 C1475 1.429 . S
C1456 H1480 0.950 . S
C1457 C1474 1.574 . S
C1457 C1476 1.368 . S
C1457 H1481 0.949 . S
H1458 C1462 0.949 . S
C1459 C1460 1.349 . S
C1459 C1461 1.327 . S
C1459 H1482 0.950 . S
C1460 C1459 1.349 . S
C1460 C1472 1.349 . S
C1461 C1459 1.327 . S
C1461 C1477 1.429 . S
C1461 H1483 0.950 . S
C1462 H1458 0.949 . S
C1462 C1470 1.574 . S
C1462 C1478 1.368 . S
H1463 C1471 0.950 . S
H1464 C1469 0.950 . S
H1465 C1470 0.949 . S
H1466 C1472 0.950 . S
H1467 C1473 0.950 . S
H1468 C1474 0.949 . S
C1469 H1464 0.950 . S
C1469 C1471 1.327 . S
C1469 C1475 1.429 . S
C1470 C1462 1.574 . S
C1470 H1465 0.949 . S
C1470 C1476 1.368 . S
C1471 C1455 1.349 . S
C1471 H1463 0.950 . S
C1471 C1469 1.327 . S
C1472 C1460 1.349 . S
C1472 H1466 0.950 . S
C1472 C1473 1.327 . S
C1473 H1467 0.950 . S
C1473 C1472 1.327 . S
C1473 C1477 1.429 . S
C1474 C1457 1.574 . S
C1474 H1468 0.949 . S
C1474 C1478 1.368 . S
C1475 C1456 1.429 . S
C1475 C1469 1.429 . S
C1475 C1476 1.523 . S
C1476 C1457 1.368 . S
C1476 C1470 1.368 . S
C1476 C1475 1.523 . S
C1477 C1461 1.429 . S
C1477 C1473 1.429 . S
C1477 C1478 1.523 . S
C1478 C1462 1.368 . S
C1478 C1474 1.368 . S
C1478 C1477 1.523 . S
H1479 C1454 0.950 . S
H1480 C1456 0.950 . S
H1481 C1457 0.949 . S
H1482 C1459 0.950 . S
H1483 C1461 0.950 . S
C1484 C1485 1.349 . S
C1484 C1486 1.327 . S
C1484 H1509 0.950 . S
C1485 C1484 1.349 . S
C1485 C1501 1.349 . S
C1486 C1484 1.327 . S
C1486 C1505 1.429 . S
C1486 H1510 0.950 . S
C1487 C1504 1.574 . S
C1487 C1506 1.368 . S
C1487 H1511 0.949 . S
H1488 C1492 0.949 . S
C1489 C1490 1.349 . S
C1489 C1491 1.327 . S
C1489 H1512 0.950 . S
C1490 C1489 1.349 . S
C1490 C1502 1.349 . S
C1491 C1489 1.327 . S
C1491 C1507 1.429 . S
C1491 H1513 0.950 . S
C1492 H1488 0.949 . S
C1492 C1500 1.574 . S
C1492 C1508 1.368 . S
H1493 C1501 0.950 . S
H1494 C1499 0.950 . S
H1495 C1500 0.949 . S
H1496 C1502 0.950 . S
H1497 C1503 0.950 . S
H1498 C1504 0.949 . S
C1499 H1494 0.950 . S
C1499 C1501 1.327 . S
C1499 C1505 1.429 . S
C1500 C1492 1.574 . S
C1500 H1495 0.949 . S
C1500 C1506 1.368 . S
C1501 C1485 1.349 . S
C1501 H1493 0.950 . S
C1501 C1499 1.327 . S
C1502 C1490 1.349 . S
C1502 H1496 0.950 . S
C1502 C1503 1.327 . S
C1503 H1497 0.950 . S
C1503 C1502 1.327 . S
C1503 C1507 1.429 . S
C1504 C1487 1.574 . S
C1504 H1498 0.949 . S
C1504 C1508 1.368 . S
C1505 C1486 1.429 . S
C1505 C1499 1.429 . S
C1505 C1506 1.523 . S
C1506 C1487 1.368 . S
C1506 C1500 1.368 . S
C1506 C1505 1.523 . S
C1507 C1491 1.429 . S
C1507 C1503 1.429 . S
C1507 C1508 1.523 . S
C1508 C1492 1.368 . S
C1508 C1504 1.368 . S
C1508 C1507 1.523 . S
H1509 C1484 0.950 . S
H1510 C1486 0.950 . S
H1511 C1487 0.949 . S
H1512 C1489 0.950 . S
H1513 C1491 0.950 . S
C1514 C1515 1.349 . S
C1514 C1516 1.327 . S
C1514 H1539 0.950 . S
C1515 C1514 1.349 . S
C1515 C1531 1.349 . S
C1516 C1514 1.327 . S
C1516 C1535 1.429 . S
C1516 H1540 0.950 . S
C1517 C1534 1.574 . S
C1517 C1536 1.368 . S
C1517 H1541 0.949 . S
H1518 C1522 0.949 . S
C1519 C1520 1.349 . S
C1519 C1521 1.327 . S
C1519 H1542 0.950 . S
C1520 C1519 1.349 . S
C1520 C1532 1.349 . S
C1521 C1519 1.327 . S
C1521 C1537 1.429 . S
C1521 H1543 0.950 . S
C1522 H1518 0.949 . S
C1522 C1530 1.574 . S
C1522 C1538 1.368 . S
H1523 C1531 0.950 . S
H1524 C1529 0.950 . S
H1525 C1530 0.949 . S
H1526 C1532 0.950 . S
H1527 C1533 0.950 . S
H1528 C1534 0.949 . S
C1529 H1524 0.950 . S
C1529 C1531 1.327 . S
C1529 C1535 1.429 . S
C1530 C1522 1.574 . S
C1530 H1525 0.949 . S
C1530 C1536 1.368 . S
C1531 C1515 1.349 . S
C1531 H1523 0.950 . S
C1531 C1529 1.327 . S
C1532 C1520 1.349 . S
C1532 H1526 0.950 . S
C1532 C1533 1.327 . S
C1533 H1527 0.950 . S
C1533 C1532 1.327 . S
C1533 C1537 1.429 . S
C1534 C1517 1.574 . S
C1534 H1528 0.949 . S
C1534 C1538 1.368 . S
C1535 C1516 1.429 . S
C1535 C1529 1.429 . S
C1535 C1536 1.523 . S
C1536 C1517 1.368 . S
C1536 C1530 1.368 . S
C1536 C1535 1.523 . S
C1537 C1521 1.429 . S
C1537 C1533 1.429 . S
C1537 C1538 1.523 . S
C1538 C1522 1.368 . S
C1538 C1534 1.368 . S
C1538 C1537 1.523 . S
H1539 C1514 0.950 . S
H1540 C1516 0.950 . S
H1541 C1517 0.949 . S
H1542 C1519 0.950 . S
H1543 C1521 0.950 . S
C1544 C1545 1.349 . S
C1544 C1546 1.327 . S
C1544 H1569 0.950 . S
C1545 C1544 1.349 . S
C1545 C1561 1.349 . S
C1546 C1544 1.327 . S
C1546 C1565 1.429 . S
C1546 H1570 0.950 . S
C1547 C1564 1.574 . S
C1547 C1566 1.368 . S
C1547 H1571 0.949 . S
H1548 C1552 0.949 . S
C1549 C1550 1.349 . S
C1549 C1551 1.327 . S
C1549 H1572 0.950 . S
C1550 C1549 1.349 . S
C1550 C1562 1.349 . S
C1551 C1549 1.327 . S
C1551 C1567 1.429 . S
C1551 H1573 0.950 . S
C1552 H1548 0.949 . S
C1552 C1560 1.574 . S
C1552 C1568 1.368 . S
H1553 C1561 0.950 . S
H1554 C1559 0.950 . S
H1555 C1560 0.949 . S
H1556 C1562 0.950 . S
H1557 C1563 0.950 . S
H1558 C1564 0.949 . S
C1559 H1554 0.950 . S
C1559 C1561 1.327 . S
C1559 C1565 1.429 . S
C1560 C1552 1.574 . S
C1560 H1555 0.949 . S
C1560 C1566 1.368 . S
C1561 C1545 1.349 . S
C1561 H1553 0.950 . S
C1561 C1559 1.327 . S
C1562 C1550 1.349 . S
C1562 H1556 0.950 . S
C1562 C1563 1.327 . S
C1563 H1557 0.950 . S
C1563 C1562 1.327 . S
C1563 C1567 1.429 . S
C1564 C1547 1.574 . S
C1564 H1558 0.949 . S
C1564 C1568 1.368 . S
C1565 C1546 1.429 . S
C1565 C1559 1.429 . S
C1565 C1566 1.523 . S
C1566 C1547 1.368 . S
C1566 C1560 1.368 . S
C1566 C1565 1.523 . S
C1567 C1551 1.429 . S
C1567 C1563 1.429 . S
C1567 C1568 1.523 . S
C1568 C1552 1.368 . S
C1568 C1564 1.368 . S
C1568 C1567 1.523 . S
H1569 C1544 0.950 . S
H1570 C1546 0.950 . S
H1571 C1547 0.949 . S
H1572 C1549 0.950 . S
H1573 C1551 0.950 . S
C1574 C1575 1.349 . S
C1574 C1576 1.327 . S
C1574 H1599 0.950 . S
C1575 C1574 1.349 . S
C1575 C1591 1.349 . S
C1576 C1574 1.327 . S
C1576 C1595 1.429 . S
C1576 H1600 0.950 . S
C1577 C1594 1.574 . S
C1577 C1596 1.368 . S
C1577 H1601 0.949 . S
H1578 C1582 0.949 . S
C1579 C1580 1.349 . S
C1579 C1581 1.327 . S
C1579 H1602 0.950 . S
C1580 C1579 1.349 . S
C1580 C1592 1.349 . S
C1581 C1579 1.327 . S
C1581 C1597 1.429 . S
C1581 H1603 0.950 . S
C1582 H1578 0.949 . S
C1582 C1590 1.574 . S
C1582 C1598 1.368 . S
H1583 C1591 0.950 . S
H1584 C1589 0.950 . S
H1585 C1590 0.949 . S
H1586 C1592 0.950 . S
H1587 C1593 0.950 . S
H1588 C1594 0.949 . S
C1589 H1584 0.950 . S
C1589 C1591 1.327 . S
C1589 C1595 1.429 . S
C1590 C1582 1.574 . S
C1590 H1585 0.949 . S
C1590 C1596 1.368 . S
C1591 C1575 1.349 . S
C1591 H1583 0.950 . S
C1591 C1589 1.327 . S
C1592 C1580 1.349 . S
C1592 H1586 0.950 . S
C1592 C1593 1.327 . S
C1593 H1587 0.950 . S
C1593 C1592 1.327 . S
C1593 C1597 1.429 . S
C1594 C1577 1.574 . S
C1594 H1588 0.949 . S
C1594 C1598 1.368 . S
C1595 C1576 1.429 . S
C1595 C1589 1.429 . S
C1595 C1596 1.523 . S
C1596 C1577 1.368 . S
C1596 C1590 1.368 . S
C1596 C1595 1.523 . S
C1597 C1581 1.429 . S
C1597 C1593 1.429 . S
C1597 C1598 1.523 . S
C1598 C1582 1.368 . S
C1598 C1594 1.368 . S
C1598 C1597 1.523 . S
H1599 C1574 0.950 . S
H1600 C1576 0.950 . S
H1601 C1577 0.949 . S
H1602 C1579 0.950 . S
H1603 C1581 0.950 . S
C1604 C1605 1.349 . S
C1604 C1606 1.327 . S
C1604 H1629 0.950 . S
C1605 C1604 1.349 . S
C1605 C1621 1.349 . S
C1606 C1604 1.327 . S
C1606 C1625 1.429 . S
C1606 H1630 0.950 . S
C1607 C1624 1.574 . S
C1607 C1626 1.368 . S
C1607 H1631 0.949 . S
H1608 C1612 0.949 . S
C1609 C1610 1.349 . S
C1609 C1611 1.327 . S
C1609 H1632 0.950 . S
C1610 C1609 1.349 . S
C1610 C1622 1.349 . S
C1611 C1609 1.327 . S
C1611 C1627 1.429 . S
C1611 H1633 0.950 . S
C1612 H1608 0.949 . S
C1612 C1620 1.574 . S
C1612 C1628 1.368 . S
H1613 C1621 0.950 . S
H1614 C1619 0.950 . S
H1615 C1620 0.949 . S
H1616 C1622 0.950 . S
H1617 C1623 0.950 . S
H1618 C1624 0.949 . S
C1619 H1614 0.950 . S
C1619 C1621 1.327 . S
C1619 C1625 1.429 . S
C1620 C1612 1.574 . S
C1620 H1615 0.949 . S
C1620 C1626 1.368 . S
C1621 C1605 1.349 . S
C1621 H1613 0.950 . S
C1621 C1619 1.327 . S
C1622 C1610 1.349 . S
C1622 H1616 0.950 . S
C1622 C1623 1.327 . S
C1623 H1617 0.950 . S
C1623 C1622 1.327 . S
C1623 C1627 1.429 . S
C1624 C1607 1.574 . S
C1624 H1618 0.949 . S
C1624 C1628 1.368 . S
C1625 C1606 1.429 . S
C1625 C1619 1.429 . S
C1625 C1626 1.523 . S
C1626 C1607 1.368 . S
C1626 C1620 1.368 . S
C1626 C1625 1.523 . S
C1627 C1611 1.429 . S
C1627 C1623 1.429 . S
C1627 C1628 1.523 . S
C1628 C1612 1.368 . S
C1628 C1624 1.368 . S
C1628 C1627 1.523 . S
H1629 C1604 0.950 . S
H1630 C1606 0.950 . S
H1631 C1607 0.949 . S
H1632 C1609 0.950 . S
H1633 C1611 0.950 . S
C1634 C1635 1.349 . S
C1634 C1636 1.327 . S
C1634 H1659 0.950 . S
C1635 C1634 1.349 . S
C1635 C1651 1.349 . S
C1636 C1634 1.327 . S
C1636 C1655 1.429 . S
C1636 H1660 0.950 . S
C1637 C1654 1.574 . S
C1637 C1656 1.368 . S
C1637 H1661 0.949 . S
H1638 C1642 0.949 . S
C1639 C1640 1.349 . S
C1639 C1641 1.327 . S
C1639 H1662 0.950 . S
C1640 C1639 1.349 . S
C1640 C1652 1.349 . S
C1641 C1639 1.327 . S
C1641 C1657 1.429 . S
C1641 H1663 0.950 . S
C1642 H1638 0.949 . S
C1642 C1650 1.574 . S
C1642 C1658 1.368 . S
H1643 C1651 0.950 . S
H1644 C1649 0.950 . S
H1645 C1650 0.949 . S
H1646 C1652 0.950 . S
H1647 C1653 0.950 . S
H1648 C1654 0.949 . S
C1649 H1644 0.950 . S
C1649 C1651 1.327 . S
C1649 C1655 1.429 . S
C1650 C1642 1.574 . S
C1650 H1645 0.949 . S
C1650 C1656 1.368 . S
C1651 C1635 1.349 . S
C1651 H1643 0.950 . S
C1651 C1649 1.327 . S
C1652 C1640 1.349 . S
C1652 H1646 0.950 . S
C1652 C1653 1.327 . S
C1653 H1647 0.950 . S
C1653 C1652 1.327 . S
C1653 C1657 1.429 . S
C1654 C1637 1.574 . S
C1654 H1648 0.949 . S
C1654 C1658 1.368 . S
C1655 C1636 1.429 . S
C1655 C1649 1.429 . S
C1655 C1656 1.523 . S
C1656 C1637 1.368 . S
C1656 C1650 1.368 . S
C1656 C1655 1.523 . S
C1657 C1641 1.429 . S
C1657 C1653 1.429 . S
C1657 C1658 1.523 . S
C1658 C1642 1.368 . S
C1658 C1654 1.368 . S
C1658 C1657 1.523 . S
H1659 C1634 0.950 . S
H1660 C1636 0.950 . S
H1661 C1637 0.949 . S
H1662 C1639 0.950 . S
H1663 C1641 0.950 . S
C1664 C1665 1.349 . S
C1664 C1666 1.327 . S
C1664 H1689 0.950 . S
C1665 C1664 1.349 . S
C1665 C1681 1.349 . S
C1666 C1664 1.327 . S
C1666 C1685 1.429 . S
C1666 H1690 0.950 . S
C1667 C1684 1.574 . S
C1667 C1686 1.368 . S
C1667 H1691 0.949 . S
H1668 C1672 0.949 . S
C1669 C1670 1.349 . S
C1669 C1671 1.327 . S
C1669 H1692 0.950 . S
C1670 C1669 1.349 . S
C1670 C1682 1.349 . S
C1671 C1669 1.327 . S
C1671 C1687 1.429 . S
C1671 H1693 0.950 . S
C1672 H1668 0.949 . S
C1672 C1680 1.574 . S
C1672 C1688 1.368 . S
H1673 C1681 0.950 . S
H1674 C1679 0.950 . S
H1675 C1680 0.949 . S
H1676 C1682 0.950 . S
H1677 C1683 0.950 . S
H1678 C1684 0.949 . S
C1679 H1674 0.950 . S
C1679 C1681 1.327 . S
C1679 C1685 1.429 . S
C1680 C1672 1.574 . S
C1680 H1675 0.949 . S
C1680 C1686 1.368 . S
C1681 C1665 1.349 . S
C1681 H1673 0.950 . S
C1681 C1679 1.327 . S
C1682 C1670 1.349 . S
C1682 H1676 0.950 . S
C1682 C1683 1.327 . S
C1683 H1677 0.950 . S
C1683 C1682 1.327 . S
C1683 C1687 1.429 . S
C1684 C1667 1.574 . S
C1684 H1678 0.949 . S
C1684 C1688 1.368 . S
C1685 C1666 1.429 . S
C1685 C1679 1.429 . S
C1685 C1686 1.523 . S
C1686 C1667 1.368 . S
C1686 C1680 1.368 . S
C1686 C1685 1.523 . S
C1687 C1671 1.429 . S
C1687 C1683 1.429 . S
C1687 C1688 1.523 . S
C1688 C1672 1.368 . S
C1688 C1684 1.368 . S
C1688 C1687 1.523 . S
H1689 C1664 0.950 . S
H1690 C1666 0.950 . S
H1691 C1667 0.949 . S
H1692 C1669 0.950 . S
H1693 C1671 0.950 . S
C1694 C1695 1.349 . S
C1694 C1696 1.327 . S
C1694 H1719 0.950 . S
C1695 C1694 1.349 . S
C1695 C1711 1.349 . S
C1696 C1694 1.327 . S
C1696 C1715 1.429 . S
C1696 H1720 0.950 . S
C1697 C1714 1.574 . S
C1697 C1716 1.368 . S
C1697 H1721 0.949 . S
H1698 C1702 0.949 . S
C1699 C1700 1.349 . S
C1699 C1701 1.327 . S
C1699 H1722 0.950 . S
C1700 C1699 1.349 . S
C1700 C1712 1.349 . S
C1701 C1699 1.327 . S
C1701 C1717 1.429 . S
C1701 H1723 0.950 . S
C1702 H1698 0.949 . S
C1702 C1710 1.574 . S
C1702 C1718 1.368 . S
H1703 C1711 0.950 . S
H1704 C1709 0.950 . S
H1705 C1710 0.949 . S
H1706 C1712 0.950 . S
H1707 C1713 0.950 . S
H1708 C1714 0.949 . S
C1709 H1704 0.950 . S
C1709 C1711 1.327 . S
C1709 C1715 1.429 . S
C1710 C1702 1.574 . S
C1710 H1705 0.949 . S
C1710 C1716 1.368 . S
C1711 C1695 1.349 . S
C1711 H1703 0.950 . S
C1711 C1709 1.327 . S
C1712 C1700 1.349 . S
C1712 H1706 0.950 . S
C1712 C1713 1.327 . S
C1713 H1707 0.950 . S
C1713 C1712 1.327 . S
C1713 C1717 1.429 . S
C1714 C1697 1.574 . S
C1714 H1708 0.949 . S
C1714 C1718 1.368 . S
C1715 C1696 1.429 . S
C1715 C1709 1.429 . S
C1715 C1716 1.523 . S
C1716 C1697 1.368 . S
C1716 C1710 1.368 . S
C1716 C1715 1.523 . S
C1717 C1701 1.429 . S
C1717 C1713 1.429 . S
C1717 C1718 1.523 . S
C1718 C1702 1.368 . S
C1718 C1714 1.368 . S
C1718 C1717 1.523 . S
H1719 C1694 0.950 . S
H1720 C1696 0.950 . S
H1721 C1697 0.949 . S
H1722 C1699 0.950 . S
H1723 C1701 0.950 . S
C1724 C1725 1.349 . S
C1724 C1726 1.327 . S
C1724 H1749 0.950 . S
C1725 C1724 1.349 . S
C1725 C1741 1.349 . S
C1726 C1724 1.327 . S
C1726 C1745 1.429 . S
C1726 H1750 0.950 . S
C1727 C1744 1.574 . S
C1727 C1746 1.368 . S
C1727 H1751 0.949 . S
H1728 C1732 0.949 . S
C1729 C1730 1.349 . S
C1729 C1731 1.327 . S
C1729 H1752 0.950 . S
C1730 C1729 1.349 . S
C1730 C1742 1.349 . S
C1731 C1729 1.327 . S
C1731 C1747 1.429 . S
C1731 H1753 0.950 . S
C1732 H1728 0.949 . S
C1732 C1740 1.574 . S
C1732 C1748 1.368 . S
H1733 C1741 0.950 . S
H1734 C1739 0.950 . S
H1735 C1740 0.949 . S
H1736 C1742 0.950 . S
H1737 C1743 0.950 . S
H1738 C1744 0.949 . S
C1739 H1734 0.950 . S
C1739 C1741 1.327 . S
C1739 C1745 1.429 . S
C1740 C1732 1.574 . S
C1740 H1735 0.949 . S
C1740 C1746 1.368 . S
C1741 C1725 1.349 . S
C1741 H1733 0.950 . S
C1741 C1739 1.327 . S
C1742 C1730 1.349 . S
C1742 H1736 0.950 . S
C1742 C1743 1.327 . S
C1743 H1737 0.950 . S
C1743 C1742 1.327 . S
C1743 C1747 1.429 . S
C1744 C1727 1.574 . S
C1744 H1738 0.949 . S
C1744 C1748 1.368 . S
C1745 C1726 1.429 . S
C1745 C1739 1.429 . S
C1745 C1746 1.523 . S
C1746 C1727 1.368 . S
C1746 C1740 1.368 . S
C1746 C1745 1.523 . S
C1747 C1731 1.429 . S
C1747 C1743 1.429 . S
C1747 C1748 1.523 . S
C1748 C1732 1.368 . S
C1748 C1744 1.368 . S
C1748 C1747 1.523 . S
H1749 C1724 0.950 . S
H1750 C1726 0.950 . S
H1751 C1727 0.949 . S
H1752 C1729 0.950 . S
H1753 C1731 0.950 . S
C1754 C1755 1.349 . S
C1754 C1756 1.327 . S
C1754 H1779 0.950 . S
C1755 C1754 1.349 . S
C1755 C1771 1.349 . S
C1756 C1754 1.327 . S
C1756 C1775 1.429 . S
C1756 H1780 0.950 . S
C1757 C1774 1.574 . S
C1757 C1776 1.368 . S
C1757 H1781 0.949 . S
H1758 C1762 0.949 . S
C1759 C1760 1.349 . S
C1759 C1761 1.327 . S
C1759 H1782 0.950 . S
C1760 C1759 1.349 . S
C1760 C1772 1.349 . S
C1761 C1759 1.327 . S
C1761 C1777 1.429 . S
C1761 H1783 0.950 . S
C1762 H1758 0.949 . S
C1762 C1770 1.574 . S
C1762 C1778 1.368 . S
H1763 C1771 0.950 . S
H1764 C1769 0.950 . S
H1765 C1770 0.949 . S
H1766 C1772 0.950 . S
H1767 C1773 0.950 . S
H1768 C1774 0.949 . S
C1769 H1764 0.950 . S
C1769 C1771 1.327 . S
C1769 C1775 1.429 . S
C1770 C1762 1.574 . S
C1770 H1765 0.949 . S
C1770 C1776 1.368 . S
C1771 C1755 1.349 . S
C1771 H1763 0.950 . S
C1771 C1769 1.327 . S
C1772 C1760 1.349 . S
C1772 H1766 0.950 . S
C1772 C1773 1.327 . S
C1773 H1767 0.950 . S
C1773 C1772 1.327 . S
C1773 C1777 1.429 . S
C1774 C1757 1.574 . S
C1774 H1768 0.949 . S
C1774 C1778 1.368 . S
C1775 C1756 1.429 . S
C1775 C1769 1.429 . S
C1775 C1776 1.523 . S
C1776 C1757 1.368 . S
C1776 C1770 1.368 . S
C1776 C1775 1.523 . S
C1777 C1761 1.429 . S
C1777 C1773 1.429 . S
C1777 C1778 1.523 . S
C1778 C1762 1.368 . S
C1778 C1774 1.368 . S
C1778 C1777 1.523 . S
H1779 C1754 0.950 . S
H1780 C1756 0.950 . S
H1781 C1757 0.949 . S
H1782 C1759 0.950 . S
H1783 C1761 0.950 . S
C1784 C1785 1.349 . S
C1784 C1786 1.327 . S
C1784 H1809 0.950 . S
C1785 C1784 1.349 . S
C1785 C1801 1.349 . S
C1786 C1784 1.327 . S
C1786 C1805 1.429 . S
C1786 H1810 0.950 . S
C1787 C1804 1.574 . S
C1787 C1806 1.368 . S
C1787 H1811 0.949 . S
H1788 C1792 0.949 . S
C1789 C1790 1.349 . S
C1789 C1791 1.327 . S
C1789 H1812 0.950 . S
C1790 C1789 1.349 . S
C1790 C1802 1.349 . S
C1791 C1789 1.327 . S
C1791 C1807 1.429 . S
C1791 H1813 0.950 . S
C1792 H1788 0.949 . S
C1792 C1800 1.574 . S
C1792 C1808 1.368 . S
H1793 C1801 0.950 . S
H1794 C1799 0.950 . S
H1795 C1800 0.949 . S
H1796 C1802 0.950 . S
H1797 C1803 0.950 . S
H1798 C1804 0.949 . S
C1799 H1794 0.950 . S
C1799 C1801 1.327 . S
C1799 C1805 1.429 . S
C1800 C1792 1.574 . S
C1800 H1795 0.949 . S
C1800 C1806 1.368 . S
C1801 C1785 1.349 . S
C1801 H1793 0.950 . S
C1801 C1799 1.327 . S
C1802 C1790 1.349 . S
C1802 H1796 0.950 . S
C1802 C1803 1.327 . S
C1803 H1797 0.950 . S
C1803 C1802 1.327 . S
C1803 C1807 1.429 . S
C1804 C1787 1.574 . S
C1804 H1798 0.949 . S
C1804 C1808 1.368 . S
C1805 C1786 1.429 . S
C1805 C1799 1.429 . S
C1805 C1806 1.523 . S
C1806 C1787 1.368 . S
C1806 C1800 1.368 . S
C1806 C1805 1.523 . S
C1807 C1791 1.429 . S
C1807 C1803 1.429 . S
C1807 C1808 1.523 . S
C1808 C1792 1.368 . S
C1808 C1804 1.368 . S
C1808 C1807 1.523 . S
H1809 C1784 0.950 . S
H1810 C1786 0.950 . S
H1811 C1787 0.949 . S
H1812 C1789 0.950 . S
H1813 C1791 0.950 . S
C1814 C1815 1.349 . S
C1814 C1816 1.327 . S
C1814 H1839 0.950 . S
C1815 C1814 1.349 . S
C1815 C1831 1.349 . S
C1816 C1814 1.327 . S
C1816 C1835 1.429 . S
C1816 H1840 0.950 . S
C1817 C1834 1.574 . S
C1817 C1836 1.368 . S
C1817 H1841 0.949 . S
H1818 C1822 0.949 . S
C1819 C1820 1.349 . S
C1819 C1821 1.327 . S
C1819 H1842 0.950 . S
C1820 C1819 1.349 . S
C1820 C1832 1.349 . S
C1821 C1819 1.327 . S
C1821 C1837 1.429 . S
C1821 H1843 0.950 . S
C1822 H1818 0.949 . S
C1822 C1830 1.574 . S
C1822 C1838 1.368 . S
H1823 C1831 0.950 . S
H1824 C1829 0.950 . S
H1825 C1830 0.949 . S
H1826 C1832 0.950 . S
H1827 C1833 0.950 . S
H1828 C1834 0.949 . S
C1829 H1824 0.950 . S
C1829 C1831 1.327 . S
C1829 C1835 1.429 . S
C1830 C1822 1.574 . S
C1830 H1825 0.949 . S
C1830 C1836 1.368 . S
C1831 C1815 1.349 . S
C1831 H1823 0.950 . S
C1831 C1829 1.327 . S
C1832 C1820 1.349 . S
C1832 H1826 0.950 . S
C1832 C1833 1.327 . S
C1833 H1827 0.950 . S
C1833 C1832 1.327 . S
C1833 C1837 1.429 . S
C1834 C1817 1.574 . S
C1834 H1828 0.949 . S
C1834 C1838 1.368 . S
C1835 C1816 1.429 . S
C1835 C1829 1.429 . S
C1835 C1836 1.523 . S
C1836 C1817 1.368 . S
C1836 C1830 1.368 . S
C1836 C1835 1.523 . S
C1837 C1821 1.429 . S
C1837 C1833 1.429 . S
C1837 C1838 1.523 . S
C1838 C1822 1.368 . S
C1838 C1834 1.368 . S
C1838 C1837 1.523 . S
H1839 C1814 0.950 . S
H1840 C1816 0.950 . S
H1841 C1817 0.949 . S
H1842 C1819 0.950 . S
H1843 C1821 0.950 . S
C1844 C1845 1.349 . S
C1844 C1846 1.327 . S
C1844 H1869 0.950 . S
C1845 C1844 1.349 . S
C1845 C1861 1.349 . S
C1846 C1844 1.327 . S
C1846 C1865 1.429 . S
C1846 H1870 0.950 . S
C1847 C1864 1.574 . S
C1847 C1866 1.368 . S
C1847 H1871 0.949 . S
H1848 C1852 0.949 . S
C1849 C1850 1.349 . S
C1849 C1851 1.327 . S
C1849 H1872 0.950 . S
C1850 C1849 1.349 . S
C1850 C1862 1.349 . S
C1851 C1849 1.327 . S
C1851 C1867 1.429 . S
C1851 H1873 0.950 . S
C1852 H1848 0.949 . S
C1852 C1860 1.574 . S
C1852 C1868 1.368 . S
H1853 C1861 0.950 . S
H1854 C1859 0.950 . S
H1855 C1860 0.949 . S
H1856 C1862 0.950 . S
H1857 C1863 0.950 . S
H1858 C1864 0.949 . S
C1859 H1854 0.950 . S
C1859 C1861 1.327 . S
C1859 C1865 1.429 . S
C1860 C1852 1.574 . S
C1860 H1855 0.949 . S
C1860 C1866 1.368 . S
C1861 C1845 1.349 . S
C1861 H1853 0.950 . S
C1861 C1859 1.327 . S
C1862 C1850 1.349 . S
C1862 H1856 0.950 . S
C1862 C1863 1.327 . S
C1863 H1857 0.950 . S
C1863 C1862 1.327 . S
C1863 C1867 1.429 . S
C1864 C1847 1.574 . S
C1864 H1858 0.949 . S
C1864 C1868 1.368 . S
C1865 C1846 1.429 . S
C1865 C1859 1.429 . S
C1865 C1866 1.523 . S
C1866 C1847 1.368 . S
C1866 C1860 1.368 . S
C1866 C1865 1.523 . S
C1867 C1851 1.429 . S
C1867 C1863 1.429 . S
C1867 C1868 1.523 . S
C1868 C1852 1.368 . S
C1868 C1864 1.368 . S
C1868 C1867 1.523 . S
H1869 C1844 0.950 . S
H1870 C1846 0.950 . S
H1871 C1847 0.949 . S
H1872 C1849 0.950 . S
H1873 C1851 0.950 . S
C1874 C1875 1.349 . S
C1874 C1876 1.327 . S
C1874 H1899 0.950 . S
C1875 C1874 1.349 . S
C1875 C1891 1.349 . S
C1876 C1874 1.327 . S
C1876 C1895 1.429 . S
C1876 H1900 0.950 . S
C1877 C1894 1.574 . S
C1877 C1896 1.368 . S
C1877 H1901 0.949 . S
H1878 C1882 0.949 . S
C1879 C1880 1.349 . S
C1879 C1881 1.327 . S
C1879 H1902 0.950 . S
C1880 C1879 1.349 . S
C1880 C1892 1.349 . S
C1881 C1879 1.327 . S
C1881 C1897 1.429 . S
C1881 H1903 0.950 . S
C1882 H1878 0.949 . S
C1882 C1890 1.574 . S
C1882 C1898 1.368 . S
H1883 C1891 0.950 . S
H1884 C1889 0.950 . S
H1885 C1890 0.949 . S
H1886 C1892 0.950 . S
H1887 C1893 0.950 . S
H1888 C1894 0.949 . S
C1889 H1884 0.950 . S
C1889 C1891 1.327 . S
C1889 C1895 1.429 . S
C1890 C1882 1.574 . S
C1890 H1885 0.949 . S
C1890 C1896 1.368 . S
C1891 C1875 1.349 . S
C1891 H1883 0.950 . S
C1891 C1889 1.327 . S
C1892 C1880 1.349 . S
C1892 H1886 0.950 . S
C1892 C1893 1.327 . S
C1893 H1887 0.950 . S
C1893 C1892 1.327 . S
C1893 C1897 1.429 . S
C1894 C1877 1.574 . S
C1894 H1888 0.949 . S
C1894 C1898 1.368 . S
C1895 C1876 1.429 . S
C1895 C1889 1.429 . S
C1895 C1896 1.523 . S
C1896 C1877 1.368 . S
C1896 C1890 1.368 . S
C1896 C1895 1.523 . S
C1897 C1881 1.429 . S
C1897 C1893 1.429 . S
C1897 C1898 1.523 . S
C1898 C1882 1.368 . S
C1898 C1894 1.368 . S
C1898 C1897 1.523 . S
H1899 C1874 0.950 . S
H1900 C1876 0.950 . S
H1901 C1877 0.949 . S
H1902 C1879 0.950 . S
H1903 C1881 0.950 . S
C945 C241 1.575 . S
C950 C5 1.575 . S
C975 C300 1.575 . S
C980 C64 1.575 . S
C1005 C359 1.575 . S
C1010 C123 1.575 . S
C1035 C418 1.575 . S
C1040 C182 1.575 . S
C1065 C713 1.575 . S
C1070 C477 1.575 . S
C1095 C772 1.575 . S
C1100 C536 1.575 . S
C1125 C595 1.575 . S
C1130 C831 1.575 . S
C1155 C890 1.575 . S
C1160 C654 1.575 . S
C1185 C52 1.619 . S
C1190 C347 1.619 . S
C1215 C406 1.619 . S
C1220 C111 1.619 . S
C1245 C170 1.619 . S
C1250 C465 1.619 . S
C1275 C288 1.619 . S
C1280 C229 1.619 . S
C1305 C819 1.619 . S
C1310 C524 1.619 . S
C1335 C878 1.619 . S
C1340 C583 1.619 . S
C1365 C642 1.619 . S
C1370 C937 1.619 . S
C1395 C701 1.619 . S
C1400 C760 1.619 . S
C1425 C918 1.815 . S
C1430 C33 1.815 . S
C1455 C741 1.815 . S
C1460 C92 1.815 . S
C1485 C800 1.815 . S
C1490 C151 1.815 . S
C1515 C859 1.815 . S
C1520 C210 1.815 . S
C1545 C564 1.815 . S
C1550 C269 1.815 . S
C1575 C623 1.815 . S
C1580 C328 1.815 . S
C1605 C387 1.815 . S
C1610 C682 1.815 . S
C1635 C446 1.815 . S
C1640 C505 1.815 . S
C1665 C770 1.041 . S
C1670 C121 1.041 . S
C1695 C829 1.041 . S
C1700 C180 1.041 . S
C1725 C888 1.041 . S
C1730 C3 1.041 . S
C1755 C62 1.041 . S
C1760 C711 1.041 . S
C1785 C652 1.041 . S
C1790 C357 1.041 . S
C1815 C416 1.041 . S
C1820 C475 1.041 . S
C1845 C534 1.041 . S
C1850 C239 1.041 . S
C1875 C593 1.041 . S
C1880 C298 1.041 . S
