# Generated by pormake.
# Topology umb, (4)-cn, num edge types: 1
# Building blocks:
#     Node 0, Type 0, BuildingBlock: NAWXER_clean_sbu_0, # of connection points: 4
#     Node 1, Type 0, BuildingBlock: NAWXER_clean_sbu_0, # of connection points: 4
#     Node 2, Type 0, BuildingBlock: NAWXER_clean_sbu_0, # of connection points: 4
#     Node 3, Type 0, BuildingBlock: NAWXER_clean_sbu_0, # of connection points: 4
#     Node 4, Type 0, BuildingBlock: NAWXER_clean_sbu_0, # of connection points: 4
#     Node 5, Type 0, BuildingBlock: NAWXER_clean_sbu_0, # of connection points: 4
#     Node 6, Type 0, BuildingBlock: NAWXER_clean_sbu_0, # of connection points: 4
#     Node 7, Type 0, BuildingBlock: NAWXER_clean_sbu_0, # of connection points: 4
#     Node 8, Type 0, BuildingBlock: NAWXER_clean_sbu_0, # of connection points: 4
#     Node 9, Type 0, BuildingBlock: NAWXER_clean_sbu_0, # of connection points: 4
#     Node 10, Type 0, BuildingBlock: NAWXER_clean_sbu_0, # of connection points: 4
#     Node 11, Type 0, BuildingBlock: NAWXER_clean_sbu_0, # of connection points: 4
#     Edge 12, Type (0, 0), BuildingBlock: XUDNAN_clean_linker_2, # of connection points: 2
#     Edge 13, Type (0, 0), BuildingBlock: XUDNAN_clean_linker_2, # of connection points: 2
#     Edge 14, Type (0, 0), BuildingBlock: XUDNAN_clean_linker_2, # of connection points: 2
#     Edge 15, Type (0, 0), BuildingBlock: XUDNAN_clean_linker_2, # of connection points: 2
#     Edge 16, Type (0, 0), BuildingBlock: XUDNAN_clean_linker_2, # of connection points: 2
#     Edge 17, Type (0, 0), BuildingBlock: XUDNAN_clean_linker_2, # of connection points: 2
#     Edge 18, Type (0, 0), BuildingBlock: XUDNAN_clean_linker_2, # of connection points: 2
#     Edge 19, Type (0, 0), BuildingBlock: XUDNAN_clean_linker_2, # of connection points: 2
#     Edge 20, Type (0, 0), BuildingBlock: XUDNAN_clean_linker_2, # of connection points: 2
#     Edge 21, Type (0, 0), BuildingBlock: XUDNAN_clean_linker_2, # of connection points: 2
#     Edge 22, Type (0, 0), BuildingBlock: XUDNAN_clean_linker_2, # of connection points: 2
#     Edge 23, Type (0, 0), BuildingBlock: XUDNAN_clean_linker_2, # of connection points: 2
#     Edge 24, Type (0, 0), BuildingBlock: XUDNAN_clean_linker_2, # of connection points: 2
#     Edge 25, Type (0, 0), BuildingBlock: XUDNAN_clean_linker_2, # of connection points: 2
#     Edge 26, Type (0, 0), BuildingBlock: XUDNAN_clean_linker_2, # of connection points: 2
#     Edge 27, Type (0, 0), BuildingBlock: XUDNAN_clean_linker_2, # of connection points: 2
#     Edge 28, Type (0, 0), BuildingBlock: XUDNAN_clean_linker_2, # of connection points: 2
#     Edge 29, Type (0, 0), BuildingBlock: XUDNAN_clean_linker_2, # of connection points: 2
#     Edge 30, Type (0, 0), BuildingBlock: XUDNAN_clean_linker_2, # of connection points: 2
#     Edge 31, Type (0, 0), BuildingBlock: XUDNAN_clean_linker_2, # of connection points: 2
#     Edge 32, Type (0, 0), BuildingBlock: XUDNAN_clean_linker_2, # of connection points: 2
#     Edge 33, Type (0, 0), BuildingBlock: XUDNAN_clean_linker_2, # of connection points: 2
#     Edge 34, Type (0, 0), BuildingBlock: XUDNAN_clean_linker_2, # of connection points: 2
#     Edge 35, Type (0, 0), BuildingBlock: XUDNAN_clean_linker_2, # of connection points: 2
# Relax obj value: 0.192
# Max RMSD: 0.212
# Mean RMSD: 0.211
data_MOF--net-umb--node1-NAWXER_clean_sbu_0--edge1-XUDNAN_clean_linker_2
_symmetry_space_group_name_H-M    P1
_symmetry_Int_Tables_number       1
_symmetry_cell_setting            triclinic
loop_
_symmetry_equiv_pos_as_xyz
'x, y, z'
_cell_length_a     46.97441
_cell_length_b     46.809411
_cell_length_c     37.281131
_cell_angle_alpha  90.438553
_cell_angle_beta   89.85256
_cell_angle_gamma 120.36247
loop_
_atom_site_label
_atom_site_type_symbol
_atom_site_fract_x
_atom_site_fract_y
_atom_site_fract_z
_atom_type_partial_charge
C0 C 0.58383 0.20691 0.35696 0.0
C1 C 0.52158 0.09315 0.32031 0.0
O2 O 0.59214 0.19016 0.3372 0.0
Zn3 Zn 0.55071 0.15098 0.33698 0.0
O4 O 0.55429 0.1938 0.36905 0.0
Zn5 Zn 0.50996 0.14549 0.36552 0.0
O6 O 0.50403 0.13411 0.41653 0.0
O7 O 0.54789 0.13595 0.39256 0.0
O8 O 0.50375 0.10008 0.3408 0.0
O9 O 0.54956 0.11617 0.31026 0.0
O10 O 0.52152 0.16567 0.30684 0.0
O11 O 0.47971 0.15642 0.34127 0.0
C12 C 0.52929 0.13098 0.4199 0.0
C13 C 0.49518 0.16689 0.31184 0.0
C14 C 0.35971 0.59257 0.68864 0.0
C15 C 0.43067 0.54915 0.65863 0.0
O16 O 0.38837 0.607 0.67496 0.0
Zn17 Zn 0.39444 0.57 0.67392 0.0
O18 O 0.34617 0.56201 0.69763 0.0
Zn19 Zn 0.35914 0.5235 0.6944 0.0
O20 O 0.36005 0.51369 0.74498 0.0
O21 O 0.40056 0.56305 0.72937 0.0
O22 O 0.40406 0.52668 0.67358 0.0
O23 O 0.43421 0.57739 0.65271 0.0
O24 O 0.35665 0.53872 0.6372 0.0
O25 O 0.32372 0.49108 0.66333 0.0
C26 C 0.3859 0.54078 0.75328 0.0
C27 C 0.33089 0.50983 0.63622 0.0
C28 C 0.82238 0.36937 0.09086 0.0
C29 C 0.7871 0.291 0.98806 0.0
O30 O 0.80918 0.33798 0.09269 0.0
Zn31 Zn 0.80946 0.33017 1.04078 0.0
O32 O 0.83033 0.38326 0.05995 0.0
Zn33 Zn 0.827 0.36863 1.00343 0.0
O34 O 0.80306 0.38825 0.98625 0.0
O35 O 0.77573 0.34676 1.02418 0.0
O36 O 0.80026 0.32122 0.97848 0.0
O37 O 0.78912 0.28463 1.02073 0.0
O38 O 0.86214 0.35532 1.0324 0.0
O39 O 0.87131 0.38861 0.98698 0.0
C40 C 0.777 0.36938 1.00372 0.0
C41 C 0.88231 0.37742 1.01061 0.0
C42 C 0.39981 0.81659 0.4257 0.0
C43 C 0.43362 0.77402 0.32305 0.0
O44 O 0.43075 0.82651 0.42464 0.0
Zn45 Zn 0.46544 0.82058 0.39234 0.0
O46 O 0.38073 0.79729 0.40125 0.0
Zn47 Zn 0.415 0.79567 0.37299 0.0
O48 O 0.42778 0.7688 0.40817 0.0
O49 O 0.48008 0.7981 0.42535 0.0
O50 O 0.40481 0.76919 0.32891 0.0
O51 O 0.45717 0.7926 0.34447 0.0
O52 O 0.49543 0.86509 0.37678 0.0
O53 O 0.44464 0.84585 0.35642 0.0
C54 C 0.45221 0.77151 0.42613 0.0
C55 C 0.47464 0.86936 0.35941 0.0
C56 C 0.68847 0.49894 0.65542 0.0
C57 C 0.61451 0.44908 0.76053 0.0
O58 O 0.69455 0.51115 0.68706 0.0
Zn59 Zn 0.65203 0.47801 0.70867 0.0
O60 O 0.66006 0.47402 0.64823 0.0
Zn61 Zn 0.61498 0.44113 0.6748 0.0
O62 O 0.58213 0.44804 0.65349 0.0
O63 O 0.61763 0.49077 0.68635 0.0
O64 O 0.60248 0.43522 0.73021 0.0
O65 O 0.64294 0.47512 0.76125 0.0
O66 O 0.65498 0.43394 0.69927 0.0
O67 O 0.61331 0.40071 0.66385 0.0
C68 C 0.59205 0.47681 0.66602 0.0
C69 C 0.63913 0.40691 0.68117 0.0
C70 C 0.14478 0.63938 0.10708 0.0
C71 C 0.14131 0.67317 0.98416 0.0
O72 O 0.13674 0.66022 0.09671 0.0
Zn73 Zn 0.13842 0.65331 1.04597 0.0
O74 O 0.15029 0.62248 0.08365 0.0
Zn75 Zn 0.1511 0.6195 1.02539 0.0
O76 O 0.19472 0.62977 1.0173 0.0
O77 O 0.19118 0.67144 1.04104 0.0
O78 O 0.1484 0.65024 0.98618 0.0
O79 O 0.13154 0.68138 1.0121 0.0
O80 O 0.09756 0.60294 1.04015 0.0
O81 O 0.11836 0.57554 1.01287 0.0
C82 C 0.2085 0.65938 1.02884 0.0
C83 C 0.09394 0.57601 1.02655 0.0
C84 C 0.78327 0.41726 0.40522 0.0
C85 C 0.89953 0.49349 0.41886 0.0
O86 O 0.80551 0.41222 0.4176 0.0
Zn87 Zn 0.84059 0.45564 0.41103 0.0
O88 O 0.79071 0.44604 0.39376 0.0
Zn89 Zn 0.83599 0.49402 0.38885 0.0
O90 O 0.83918 0.49969 0.33669 0.0
O91 O 0.84252 0.45651 0.35324 0.0
O92 O 0.88555 0.50841 0.40525 0.0
O93 O 0.88245 0.463 0.42605 0.0
O94 O 0.82641 0.48179 0.44875 0.0
O95 O 0.82557 0.52188 0.41896 0.0
C96 C 0.84148 0.47456 0.3282 0.0
C97 C 0.82136 0.50629 0.44812 0.0
C98 C 0.30354 0.76192 0.71811 0.0
C99 C 0.35008 0.87639 0.74969 0.0
O100 O 0.33037 0.78183 0.7337 0.0
Zn101 Zn 0.32422 0.81835 0.73481 0.0
O102 O 0.28329 0.7714 0.70884 0.0
Zn103 Zn 0.28356 0.81838 0.71252 0.0
O104 O 0.28199 0.82696 0.66174 0.0
O105 O 0.32888 0.83098 0.67892 0.0
O106 O 0.32239 0.86635 0.73354 0.0
O107 O 0.3593 0.85591 0.7567 0.0
O108 O 0.28327 0.80233 0.77042 0.0
O109 O 0.24504 0.80741 0.74193 0.0
C110 C 0.31085 0.83276 0.65433 0.0
C111 C 0.25461 0.79933 0.76989 0.0
C112 C 0.51641 0.36081 0.99865 0.0
C113 C 0.49462 0.30523 0.11553 0.0
O114 O 0.49615 0.3307 1.00609 0.0
Zn115 Zn 0.50263 0.33361 0.0577 0.0
O116 O 0.53131 0.3814 1.0244 0.0
Zn117 Zn 0.53307 0.37873 0.08284 0.0
O118 O 0.57896 0.39777 0.08922 0.0
O119 O 0.55497 0.34998 0.05973 0.0
O120 O 0.51285 0.33676 0.11871 0.0
O121 O 0.48338 0.29261 0.08488 0.0
O122 O 0.47747 0.35963 0.07564 0.0
O123 O 0.51695 0.40546 0.10032 0.0
C124 C 0.58105 0.37538 0.07213 0.0
C125 C 0.48693 0.38743 0.0917 0.0
C126 C 0.18395 0.58336 0.34936 0.0
C127 C 0.19037 0.52485 0.45467 0.0
O128 O 0.18113 0.55489 0.35013 0.0
Zn129 Zn 0.18478 0.55224 0.40204 0.0
O130 O 0.18893 0.59965 0.37872 0.0
Zn131 Zn 0.19385 0.59318 0.43458 0.0
O132 O 0.23747 0.62749 0.44619 0.0
O133 O 0.23647 0.58769 0.41303 0.0
O134 O 0.19392 0.55328 0.46179 0.0
O135 O 0.18211 0.51278 0.42317 0.0
O136 O 0.14116 0.55205 0.42163 0.0
O137 O 0.15876 0.59676 0.45548 0.0
C138 C 0.2527 0.6146 0.43127 0.0
C139 C 0.13507 0.57091 0.44146 0.0
C140 C 0.64173 0.15272 0.79118 0.0
C141 C 0.59182 0.12176 0.67011 0.0
O142 O 0.64492 0.13416 0.76843 0.0
Zn143 Zn 0.61397 0.13267 0.73187 0.0
O144 O 0.6203 0.16139 0.78539 0.0
Zn145 Zn 0.58494 0.15356 0.74452 0.0
O146 O 0.54224 0.12776 0.76502 0.0
O147 O 0.56496 0.09788 0.75141 0.0
O148 O 0.57961 0.13534 0.69003 0.0
O149 O 0.61264 0.11505 0.68364 0.0
O150 O 0.63489 0.1848 0.71842 0.0
O151 O 0.59692 0.1973 0.73448 0.0
C152 C 0.54014 0.09976 0.76292 0.0
C153 C 0.6248 0.20561 0.72081 0.0
C154 C 0.43021 0.5902 1.00968 0.0
C155 C 0.44097 0.63188 0.1322 0.0
O156 O 0.45627 0.61131 1.02596 0.0
Zn157 Zn 0.4367 0.60873 0.07213 0.0
O158 O 0.40282 0.57542 1.02688 0.0
Zn159 Zn 0.38609 0.57573 0.08083 0.0
O160 O 0.35373 0.58792 0.07323 0.0
O161 O 0.40452 0.62792 0.06052 0.0
O162 O 0.41157 0.60856 0.12507 0.0
O163 O 0.46386 0.63875 0.10966 0.0
O164 O 0.42472 0.5607 0.09052 0.0
O165 O 0.37074 0.53148 0.0975 0.0
C166 C 0.37354 0.61728 0.06294 0.0
C167 C 0.39865 0.53348 0.09881 0.0
H168 H 0.5128 0.14139 0.48811 0.0
H169 H 0.56757 0.10338 0.43126 0.0
H170 H 0.58676 0.0936 0.48897 0.0
H171 H 0.57407 0.18533 0.55459 0.0
H172 H 0.54531 0.17706 0.59059 0.0
H173 H 0.53345 0.17842 0.54503 0.0
H174 H 0.48276 0.1194 0.55147 0.0
H175 H 0.49445 0.11791 0.59711 0.0
H176 H 0.4887 0.08602 0.56559 0.0
H177 H 0.60241 0.09042 0.55314 0.0
H178 H 0.61409 0.09544 0.6183 0.0
H179 H 0.55025 0.13662 0.63346 0.0
C180 C 0.52832 0.13044 0.48785 0.0
C181 C 0.53842 0.12289 0.45506 0.0
C182 C 0.55941 0.10931 0.45595 0.0
C183 C 0.57041 0.10359 0.48866 0.0
C184 C 0.56046 0.11175 0.52048 0.0
C185 C 0.53993 0.12496 0.52036 0.0
C186 C 0.53454 0.13341 0.55825 0.0
C187 C 0.54763 0.17077 0.56234 0.0
C188 C 0.49793 0.11296 0.56871 0.0
C189 C 0.55529 0.12303 0.57956 0.0
C190 C 0.5699 0.11041 0.55733 0.0
C191 C 0.59091 0.10008 0.57083 0.0
C192 C 0.59741 0.103 0.60793 0.0
C193 C 0.58305 0.11627 0.63123 0.0
C194 C 0.56149 0.1261 0.6166 0.0
H195 H 0.35239 0.51655 0.81686 0.0
H196 H 0.44972 0.58145 0.77282 0.0
H197 H 0.47242 0.59766 0.83396 0.0
H198 H 0.35824 0.57098 0.8856 0.0
H199 H 0.33598 0.53946 0.91863 0.0
H200 H 0.32786 0.52961 0.87166 0.0
H201 H 0.34056 0.48213 0.87861 0.0
H202 H 0.3486 0.49175 0.92571 0.0
H203 H 0.37946 0.49094 0.8976 0.0
H204 H 0.48403 0.61005 0.89921 0.0
H205 H 0.48348 0.61863 0.96453 0.0
H206 H 0.37846 0.54701 0.96676 0.0
C207 C 0.37859 0.53356 0.8202 0.0
C208 C 0.39937 0.54756 0.79015 0.0
C209 C 0.43339 0.5704 0.7955 0.0
C210 C 0.44654 0.57968 0.83012 0.0
C211 C 0.42536 0.56604 0.8592 0.0
C212 C 0.39211 0.54347 0.8547 0.0
C213 C 0.37437 0.53461 0.89049 0.0
C214 C 0.34754 0.54425 0.89165 0.0
C215 C 0.3599 0.49766 0.89857 0.0
C216 C 0.40272 0.55614 0.91559 0.0
C217 C 0.43197 0.57376 0.89701 0.0
C218 C 0.46133 0.59618 0.91414 0.0
C219 C 0.46076 0.60092 0.95127 0.0
C220 C 0.43098 0.5835 0.97086 0.0
C221 C 0.40169 0.5606 0.95266 0.0
H222 H 0.82906 0.41434 0.30106 0.0
H223 H 0.85316 0.51289 0.26847 0.0
H224 H 0.85193 0.49675 0.20493 0.0
H225 H 0.87607 0.40079 0.23264 0.0
H226 H 0.8456 0.35772 0.2262 0.0
H227 H 0.84951 0.37725 0.26918 0.0
H228 H 0.78765 0.35955 0.26722 0.0
H229 H 0.78353 0.33998 0.22424 0.0
H230 H 0.77186 0.37102 0.22936 0.0
H231 H 0.84837 0.47014 0.14501 0.0
H232 H 0.84043 0.43464 0.0926 0.0
H233 H 0.8163 0.35197 0.16305 0.0
C234 C 0.83438 0.43266 0.28059 0.0
C235 C 0.84151 0.46509 0.2899 0.0
C236 C 0.84775 0.48801 0.26215 0.0
C237 C 0.84714 0.47905 0.22594 0.0
C238 C 0.83993 0.44692 0.21773 0.0
C239 C 0.83346 0.42398 0.24423 0.0
C240 C 0.82528 0.39074 0.228 0.0
C241 C 0.85063 0.38106 0.23971 0.0
C242 C 0.78998 0.36373 0.23779 0.0
C243 C 0.82826 0.39858 0.1882 0.0
C244 C 0.83695 0.43123 0.18301 0.0
C245 C 0.8415 0.44454 0.1488 0.0
C246 C 0.83697 0.42406 0.1191 0.0
C247 C 0.82769 0.39034 0.12343 0.0
C248 C 0.8233 0.37754 0.15866 0.0
H249 H 0.33841 0.78423 0.45826 0.0
H250 H 0.43395 0.87448 0.46192 0.0
H251 H 0.41765 0.89195 0.51683 0.0
H252 H 0.28989 0.82177 0.4971 0.0
H253 H 0.26351 0.78498 0.52237 0.0
H254 H 0.28032 0.78175 0.47999 0.0
H255 H 0.30398 0.74966 0.51106 0.0
H256 H 0.28929 0.75372 0.55419 0.0
H257 H 0.33258 0.7683 0.5479 0.0
H258 H 0.39558 0.89593 0.57528 0.0
H259 H 0.36773 0.88653 0.63392 0.0
H260 H 0.2851 0.79524 0.5935 0.0
C261 C 0.35539 0.80812 0.47007 0.0
C262 C 0.38739 0.82811 0.45574 0.0
C263 C 0.40934 0.85877 0.47246 0.0
C264 C 0.40025 0.86902 0.50357 0.0
C265 C 0.369 0.84846 0.5177 0.0
C266 C 0.34668 0.81876 0.50147 0.0
C267 C 0.31584 0.80014 0.52429 0.0
C268 C 0.2856 0.79698 0.50477 0.0
C269 C 0.31016 0.76596 0.53503 0.0
C270 C 0.32509 0.82327 0.55648 0.0
C271 C 0.35571 0.85121 0.55175 0.0
C272 C 0.37119 0.87466 0.57897 0.0
C273 C 0.35526 0.86917 0.61213 0.0
C274 C 0.32404 0.84073 0.61765 0.0
C275 C 0.30845 0.8178 0.58931 0.0
H276 H 0.57201 0.41574 0.9719 0.0
H277 H 0.4799 0.32933 0.93904 0.0
H278 H 0.4946 0.34426 0.8756 0.0
H279 H 0.57593 0.47115 0.90047 0.0
H280 H 0.61995 0.49022 0.89491 0.0
H281 H 0.60149 0.4742 0.938 0.0
H282 H 0.62839 0.43771 0.93906 0.0
H283 H 0.64686 0.45353 0.89596 0.0
H284 H 0.62111 0.40953 0.90234 0.0
H285 H 0.51933 0.36696 0.81619 0.0
H286 H 0.55282 0.39518 0.76352 0.0
H287 H 0.63086 0.46715 0.83281 0.0
C288 C 0.55469 0.40028 0.95135 0.0
C289 C 0.52452 0.37146 0.96058 0.0
C290 C 0.50297 0.35153 0.93278 0.0
C291 C 0.51113 0.35985 0.89662 0.0
C292 C 0.5411 0.3881 0.88844 0.0
C293 C 0.56265 0.40805 0.9149 0.0
C294 C 0.59398 0.43617 0.89843 0.0
C295 C 0.59807 0.46994 0.90856 0.0
C296 C 0.62438 0.4341 0.90962 0.0
C297 C 0.58667 0.42879 0.85858 0.0
C298 C 0.55588 0.40101 0.8537 0.0
C299 C 0.54343 0.38877 0.81969 0.0
C300 C 0.56284 0.40513 0.78981 0.0
C301 C 0.59471 0.43359 0.79366 0.0
C302 C 0.60666 0.44561 0.82876 0.0
H303 H 0.18131 0.56141 0.27949 0.0
H304 H 0.17578 0.6367 0.34291 0.0
H305 H 0.16503 0.65875 0.28821 0.0
H306 H 0.22275 0.61493 0.20265 0.0
H307 H 0.20088 0.58231 0.17016 0.0
H308 H 0.20881 0.57256 0.21434 0.0
H309 H 0.14623 0.53152 0.22273 0.0
H310 H 0.13814 0.54136 0.1787 0.0
H311 H 0.11749 0.54598 0.21721 0.0
H312 H 0.15246 0.67148 0.22739 0.0
H313 H 0.14251 0.67622 0.16332 0.0
H314 H 0.15768 0.59407 0.13842 0.0
C315 C 0.17802 0.58264 0.28181 0.0
C316 C 0.17937 0.59724 0.31562 0.0
C317 C 0.17501 0.62508 0.31742 0.0
C318 C 0.16878 0.6378 0.28647 0.0
C319 C 0.16727 0.62269 0.25369 0.0
C320 C 0.17214 0.59599 0.25099 0.0
C321 C 0.16948 0.58468 0.21225 0.0
C322 C 0.20244 0.58888 0.19909 0.0
C323 C 0.14114 0.54875 0.20746 0.0
C324 C 0.1618 0.60883 0.19387 0.0
C325 C 0.16061 0.6305 0.21831 0.0
C326 C 0.1535 0.65476 0.20792 0.0
C327 C 0.14776 0.65719 0.17146 0.0
C328 C 0.14929 0.63556 0.14576 0.0
C329 C 0.15634 0.61102 0.15733 0.0
H330 H 0.76498 0.35319 0.39455 0.0
H331 H 0.7259 0.4191 0.40703 0.0
H332 H 0.66911 0.37145 0.39886 0.0
H333 H 0.71161 0.30596 0.32421 0.0
H334 H 0.70806 0.26756 0.33842 0.0
H335 H 0.74482 0.30624 0.34864 0.0
H336 H 0.73739 0.29176 0.41635 0.0
H337 H 0.70065 0.25293 0.40633 0.0
H338 H 0.69903 0.28132 0.43806 0.0
H339 H 0.61673 0.31589 0.38907 0.0
H340 H 0.57378 0.25826 0.37359 0.0
H341 H 0.64943 0.23155 0.36335 0.0
C342 C 0.74443 0.35751 0.39616 0.0
C343 C 0.74947 0.38947 0.40186 0.0
C344 C 0.72222 0.39453 0.40282 0.0
C345 C 0.69004 0.36771 0.39835 0.0
C346 C 0.68593 0.33639 0.39247 0.0
C347 C 0.71249 0.33134 0.39103 0.0
C348 C 0.70206 0.29599 0.38177 0.0
C349 C 0.71755 0.29383 0.34615 0.0
C350 C 0.71026 0.27954 0.41247 0.0
C351 C 0.6654 0.28179 0.37814 0.0
C352 C 0.65636 0.3052 0.3849 0.0
C353 C 0.62353 0.29738 0.38358 0.0
C354 C 0.5994 0.26474 0.37486 0.0
C355 C 0.60857 0.24086 0.36699 0.0
C356 C 0.64189 0.24954 0.36878 0.0
H357 H 0.3408 0.74989 0.67355 0.0
H358 H 0.25584 0.70174 0.74328 0.0
H359 H 0.25658 0.64917 0.73773 0.0
H360 H 0.32039 0.67476 0.61557 0.0
H361 H 0.36347 0.6874 0.61268 0.0
H362 H 0.35123 0.71816 0.61576 0.0
H363 H 0.3893 0.74386 0.67115 0.0
H364 H 0.40115 0.71296 0.66871 0.0
H365 H 0.38361 0.71827 0.70952 0.0
H366 H 0.27326 0.60535 0.73248 0.0
H367 H 0.30212 0.57362 0.72561 0.0
H368 H 0.37648 0.65225 0.65999 0.0
C369 C 0.32152 0.72778 0.6863 0.0
C370 C 0.29792 0.72923 0.70824 0.0
C371 C 0.27355 0.7005 0.72564 0.0
C372 C 0.27394 0.67073 0.72272 0.0
C373 C 0.2986 0.67042 0.70196 0.0
C374 C 0.32154 0.69813 0.68347 0.0
C375 C 0.34767 0.69291 0.66622 0.0
C376 C 0.34553 0.69333 0.62512 0.0
C377 C 0.38246 0.7185 0.67975 0.0
C378 C 0.3371 0.65865 0.67954 0.0
C379 C 0.30844 0.64567 0.69951 0.0
C380 C 0.29535 0.61505 0.71632 0.0
C381 C 0.312 0.59731 0.71247 0.0
C382 C 0.34163 0.61059 0.69244 0.0
C383 C 0.35396 0.64146 0.67558 0.0
H384 H 0.59795 0.32852 0.05904 0.0
H385 H 0.63662 0.43459 0.06106 0.0
H386 H 0.68947 0.44397 1.03641 0.0
H387 H 0.67278 0.33342 0.08832 0.0
H388 H 0.66698 0.29893 0.06099 0.0
H389 H 0.63174 0.30088 0.07666 0.0
H390 H 0.61146 0.29548 1.01093 0.0
H391 H 0.64711 0.29429 0.99502 0.0
H392 H 0.63823 0.3249 0.97803 0.0
H393 H 0.73722 0.44178 1.01062 0.0
H394 H 0.78097 0.429 0.99628 0.0
H395 H 0.71224 0.32473 1.01474 0.0
C396 C 0.61765 0.35367 0.05438 0.0
C397 C 0.61346 0.38084 0.0618 0.0
C398 C 0.63966 0.41349 0.05578 0.0
C399 C 0.66951 0.41904 1.04137 0.0
C400 C 0.67268 0.39166 1.03363 0.0
C401 C 0.64779 0.35968 1.04069 0.0
C402 C 0.65848 0.33483 1.03264 0.0
C403 C 0.65745 0.31592 0.06668 0.0
C404 C 0.63757 0.31097 1.00235 0.0
C405 C 0.69344 0.35793 1.02045 0.0
C406 C 0.70084 0.3905 1.02028 0.0
C407 C 0.7318 0.41639 1.01058 0.0
C408 C 0.75636 0.40889 1.00224 0.0
C409 C 0.74973 0.37594 1.00451 0.0
C410 C 0.71773 0.35011 1.01278 0.0
H411 H 0.42322 0.75685 0.48979 0.0
H412 H 0.4615 0.7209 0.40706 0.0
H413 H 0.41349 0.66509 0.41308 0.0
H414 H 0.36236 0.66888 0.53675 0.0
H415 H 0.33285 0.6825 0.54131 0.0
H416 H 0.37629 0.71166 0.54708 0.0
H417 H 0.37096 0.74863 0.50001 0.0
H418 H 0.32868 0.71898 0.49124 0.0
H419 H 0.35797 0.73295 0.455 0.0
H420 H 0.35472 0.62388 0.4072 0.0
H421 H 0.29471 0.59828 0.39773 0.0
H422 H 0.29116 0.66249 0.4798 0.0
C423 C 0.42277 0.73631 0.47567 0.0
C424 C 0.44549 0.7429 0.4478 0.0
C425 C 0.44433 0.71616 0.42879 0.0
C426 C 0.41663 0.68435 0.43166 0.0
C427 C 0.39098 0.67989 0.4543 0.0
C428 C 0.39429 0.70499 0.47714 0.0
C429 C 0.36099 0.69773 0.49133 0.0
C430 C 0.35794 0.68969 0.5315 0.0
C431 C 0.35434 0.72627 0.48389 0.0
C432 C 0.33842 0.66721 0.46953 0.0
C433 C 0.35603 0.65638 0.44957 0.0
C434 C 0.34064 0.63143 0.4237 0.0
C435 C 0.3066 0.61734 0.4181 0.0
C436 C 0.2884 0.62875 0.43771 0.0
C437 C 0.3045 0.6534 0.46428 0.0
H438 H 0.61277 0.3488 0.64402 0.0
H439 H 0.69206 0.41155 0.71719 0.0
H440 H 0.70753 0.36866 0.72153 0.0
H441 H 0.58427 0.28024 0.68903 0.0
H442 H 0.57367 0.25195 0.65164 0.0
H443 H 0.57561 0.29075 0.64554 0.0
H444 H 0.61791 0.30501 0.5941 0.0
H445 H 0.61617 0.26599 0.6004 0.0
H446 H 0.65527 0.30413 0.6022 0.0
H447 H 0.70546 0.31553 0.73009 0.0
H448 H 0.68366 0.25646 0.74429 0.0
H449 H 0.60636 0.22821 0.66562 0.0
C450 C 0.63405 0.35392 0.66004 0.0
C451 C 0.65104 0.38327 0.68044 0.0
C452 C 0.67859 0.38909 0.70138 0.0
C453 C 0.68783 0.36503 0.70367 0.0
C454 C 0.66963 0.33562 0.68438 0.0
C455 C 0.64348 0.33016 0.66261 0.0
C456 C 0.62418 0.29467 0.64976 0.0
C457 C 0.58731 0.27848 0.65964 0.0
C458 C 0.62867 0.29233 0.60921 0.0
C459 C 0.64137 0.28026 0.67073 0.0
C460 C 0.6685 0.30446 0.68929 0.0
C461 C 0.68509 0.29646 0.71476 0.0
C462 C 0.67266 0.26298 0.72269 0.0
C463 C 0.64385 0.23845 0.70546 0.0
C464 C 0.629 0.24696 0.6782 0.0
H465 H 0.24039 0.66457 0.08926 0.0
H466 H 0.2545 0.68901 0.97681 0.0
H467 H 0.31075 0.69759 0.97991 0.0
H468 H 0.33512 0.71266 0.11817 0.0
H469 H 0.32636 0.67845 0.14699 0.0
H470 H 0.29612 0.69094 0.14121 0.0
H471 H 0.2534 0.63081 0.1228 0.0
H472 H 0.28351 0.61844 0.12714 0.0
H473 H 0.26209 0.61199 0.08511 0.0
H474 H 0.35537 0.6859 0.98924 0.0
H475 H 0.383 0.65415 1.00329 0.0
H476 H 0.33651 0.63031 0.10765 0.0
C477 C 0.25655 0.67417 0.06621 0.0
C478 C 0.24414 0.67725 1.03319 0.0
C479 C 0.26443 0.68769 1.00255 0.0
C480 C 0.29635 0.69256 1.00418 0.0
C481 C 0.3071 0.68631 1.0365 0.0
C482 C 0.28787 0.67773 0.06729 0.0
C483 C 0.3004 0.66372 0.09556 0.0
C484 C 0.31541 0.68791 0.12735 0.0
C485 C 0.27324 0.62921 0.10829 0.0
C486 C 0.32688 0.66192 0.07436 0.0
C487 C 0.3318 0.67687 1.04123 0.0
C488 C 0.35242 0.67497 1.01545 0.0
C489 C 0.36774 0.65671 1.02342 0.0
C490 C 0.36126 0.63979 0.05626 0.0
C491 C 0.3415 0.64318 0.08233 0.0
H492 H 0.47068 0.03618 0.34924 0.0
H493 H 0.55343 0.0721 0.27571 0.0
H494 H 0.54744 0.01683 0.27384 0.0
H495 H 0.49031 0.98875 0.40044 0.0
H496 H 0.449 0.95463 0.40717 0.0
H497 H 0.45568 -0.00469 0.39851 0.0
H498 H 0.41604 0.97286 0.344 0.0
H499 H 0.40864 0.93186 0.35291 0.0
H500 H 0.42279 0.94992 0.30928 0.0
H501 H 0.54022 0.96192 0.28947 0.0
H502 H 0.52544 0.90699 0.31403 0.0
H503 H 0.44491 0.90482 0.37326 0.0
C504 C 0.48671 0.0321 0.33169 0.0
C505 C 0.51258 0.05853 0.31276 0.0
C506 C 0.53344 0.05229 0.29056 0.0
C507 C 0.53029 0.02095 0.2893 0.0
C508 C 0.50573 -0.00411 0.3098 0.0
C509 C 0.48367 0.00077 0.32981 0.0
C510 C 0.46086 0.97016 0.35114 0.0
C511 C 0.46419 0.97769 0.3917 0.0
C512 C 0.42495 0.95532 0.33856 0.0
C513 C 0.47447 0.94797 0.34108 0.0
C514 C 0.50045 0.96332 0.3173 0.0
C515 C 0.51928 0.94917 0.30722 0.0
C516 C 0.51099 0.91825 0.32144 0.0
C517 C 0.48387 0.90188 0.34488 0.0
C518 C 0.46531 0.91677 0.35462 0.0
H519 H 0.43028 0.49018 0.65876 0.0
H520 H 0.49434 0.59601 0.644 0.0
H521 H 0.54246 0.58848 0.64009 0.0
H522 H 0.48276 0.47788 0.71376 0.0
H523 H 0.47317 0.43848 0.69475 0.0
H524 H 0.44314 0.4515 0.6931 0.0
H525 H 0.43937 0.44415 0.62398 0.0
H526 H 0.46925 0.43082 0.62543 0.0
H527 H 0.47642 0.46506 0.59743 0.0
H528 H 0.58422 0.57082 0.64652 0.0
H529 H 0.61634 0.54277 0.65591 0.0
H530 H 0.52535 0.44817 0.66156 0.0
C531 C 0.45434 0.51166 0.654 0.0
C532 C 0.45853 0.54366 0.65172 0.0
C533 C 0.49046 0.57119 0.64564 0.0
C534 C 0.518 0.56722 0.64345 0.0
C535 C 0.51316 0.53548 0.64669 0.0
C536 C 0.4821 0.50807 0.65113 0.0
C537 C 0.48388 0.47684 0.65492 0.0
C538 C 0.46992 0.46022 0.69129 0.0
C539 C 0.46618 0.4528 0.62356 0.0
C540 C 0.52085 0.49116 0.65304 0.0
C541 C 0.53731 0.52507 0.64845 0.0
C542 C 0.57165 0.54418 0.64923 0.0
C543 C 0.58966 0.52815 0.65474 0.0
C544 C 0.57322 0.4934 0.65877 0.0
C545 C 0.53844 0.47471 0.65756 0.0
H546 H 0.93307 0.41184 0.96394 0.0
H547 H 0.91061 0.38847 0.0765 0.0
H548 H 0.96502 0.43569 0.0929 0.0
H549 H 0.02601 0.44391 0.97323 0.0
H550 H 0.03511 0.47486 0.93964 0.0
H551 H -0.00249 0.4353 0.93684 0.0
H552 H 0.96434 0.46568 0.93436 0.0
H553 H 0.00151 0.50522 0.93856 0.0
H554 H 0.9685 0.49352 0.97034 0.0
H555 H 0.01429 0.49259 0.09724 0.0
H556 H 0.06289 0.54862 0.0889 0.0
H557 H 0.05626 0.5329 0.97383 0.0
C558 C 0.94038 0.41567 0.9919 0.0
C559 C 0.9178 0.39649 1.01893 0.0
C560 C 0.92778 0.40251 0.05533 0.0
C561 C 0.95852 0.42952 0.06494 0.0
C562 C 0.97927 0.44948 1.03774 0.0
C563 C 0.97128 0.44209 1.00187 0.0
C564 C -0.00293 0.46868 0.97799 0.0
C565 C 0.015 0.45486 0.95561 0.0
C566 C 0.98192 0.48417 0.95392 0.0
C567 C 0.01967 0.49307 1.00605 0.0
C568 C 0.00888 0.48163 1.04036 0.0
C569 C 0.02361 0.50138 0.07058 0.0
C570 C 0.05077 0.53324 0.06561 0.0
C571 C 0.06296 0.54466 1.0308 0.0
C572 C 0.04732 0.52438 1.0007 0.0
H573 H 0.07738 0.5124 0.42992 0.0
H574 H 0.11602 0.61537 0.45963 0.0
H575 H 0.05966 0.6067 0.45834 0.0
H576 H 0.01672 0.50502 0.36955 0.0
H577 H -0.01391 0.46361 0.38242 0.0
H578 H 0.02924 0.47737 0.38746 0.0
H579 H 0.02042 0.46266 0.455 0.0
H580 H 0.97713 0.44852 0.45011 0.0
H581 H 0.00137 0.47978 0.48313 0.0
H582 H -0.00019 0.5882 0.44748 0.0
H583 H 0.93971 0.55917 0.4352 0.0
H584 H 0.94 0.46769 0.41693 0.0
C585 C 0.07391 0.53298 0.43665 0.0
C586 C 0.10103 0.56454 0.44484 0.0
C587 C 0.09554 0.5909 0.45352 0.0
C588 C 0.06364 0.58628 0.4527 0.0
C589 C 0.03749 0.55502 0.44377 0.0
C590 C 0.04219 0.52866 0.4366 0.0
C591 C 0.00993 0.49761 0.42769 0.0
C592 C 0.01055 0.48519 0.38952 0.0
C593 C 0.00173 0.47055 0.45566 0.0
C594 C -0.01352 0.51079 0.43028 0.0
C595 C 0.00286 0.54403 0.43926 0.0
C596 C -0.0134 0.56203 0.44104 0.0
C597 C 0.9526 0.54546 0.43385 0.0
C598 C 0.93533 0.51122 0.42558 0.0
C599 C 0.95256 0.49378 0.42384 0.0
H600 H 0.52749 0.03594 0.76735 0.0
H601 H 0.48005 0.09496 0.77194 0.0
H602 H 0.42555 0.04395 0.7736 0.0
H603 H 0.47185 0.9753 0.70977 0.0
H604 H 0.47248 0.94118 0.73104 0.0
H605 H 0.50782 0.98219 0.73434 0.0
H606 H 0.50539 0.97862 0.80375 0.0
H607 H 0.47016 0.93737 0.80067 0.0
H608 H 0.46764 0.9687 0.82657 0.0
H609 H 0.37599 0.98636 0.76594 0.0
H610 H 0.33593 0.92668 0.75574 0.0
H611 H 0.41621 0.90619 0.75967 0.0
C612 C 0.5057 0.03816 0.76955 0.0
C613 C 0.50807 0.06942 0.76952 0.0
C614 C 0.4789 0.07126 0.77215 0.0
C615 C 0.44777 0.04242 0.77302 0.0
C616 C 0.44624 0.01194 0.77188 0.0
C617 C 0.47448 0.00966 0.7709 0.0
C618 C 0.46616 0.97403 0.7683 0.0
C619 C 0.48042 0.96783 0.73381 0.0
C620 C 0.47804 0.9641 0.80183 0.0
C621 C 0.42892 0.95672 0.76687 0.0
C622 C 0.41777 0.97889 0.76892 0.0
C623 C 0.38436 0.96867 0.76512 0.0
C624 C 0.36182 0.93483 0.75919 0.0
C625 C 0.37289 0.91181 0.75749 0.0
C626 C 0.40684 0.92306 0.76169 0.0
H627 H 0.45176 0.53251 0.12551 0.0
H628 H 0.35205 0.46841 0.08687 0.0
H629 H 0.36102 0.42064 0.08802 0.0
H630 H 0.48898 0.50128 0.07422 0.0
H631 H 0.51838 0.50445 0.1073 0.0
H632 H 0.50204 0.53178 0.10968 0.0
H633 H 0.48182 0.51269 0.17462 0.0
H634 H 0.49849 0.48547 0.17263 0.0
H635 H 0.45567 0.4692 0.18375 0.0
H636 H 0.38498 0.38257 0.08291 0.0
H637 H 0.42023 0.35738 0.07653 0.0
H638 H 0.50275 0.44678 0.1212 0.0
C639 C 0.43148 0.50821 0.11836 0.0
C640 C 0.40126 0.50402 0.10618 0.0
C641 C 0.37531 0.47198 0.0967 0.0
C642 C 0.38022 0.44476 0.09719 0.0
C643 C 0.41091 0.45 0.10802 0.0
C644 C 0.43583 0.48088 0.11919 0.0
C645 C 0.46737 0.48092 0.12682 0.0
C646 C 0.49584 0.50608 0.10308 0.0
C647 C 0.47635 0.48744 0.16684 0.0
C648 C 0.45692 0.44573 0.11646 0.0
C649 C 0.42424 0.42801 0.10598 0.0
C650 C 0.41036 0.39595 0.09192 0.0
C651 C 0.43055 0.38187 0.08827 0.0
C652 C 0.46418 0.4 0.09854 0.0
C653 C 0.47706 0.432 0.11348 0.0
H654 H 0.5101 0.1756 0.23998 0.0
H655 H 0.46009 0.19832 0.3236 0.0
H656 H 0.45201 0.23428 0.28156 0.0
H657 H 0.55302 0.25403 0.20149 0.0
H658 H 0.54816 0.23976 0.15565 0.0
H659 H 0.5479 0.21397 0.19135 0.0
H660 H 0.49085 0.1664 0.17028 0.0
H661 H 0.49106 0.19194 0.13423 0.0
H662 H 0.4571 0.17404 0.16538 0.0
H663 H 0.45655 0.27394 0.23269 0.0
H664 H 0.46645 0.30804 0.17839 0.0
H665 H 0.50858 0.25562 0.12474 0.0
C666 C 0.49683 0.18759 0.24923 0.0
C667 C 0.48565 0.18405 0.28513 0.0
C668 C 0.46855 0.20033 0.29619 0.0
C669 C 0.46403 0.22098 0.27252 0.0
C670 C 0.47609 0.22459 0.23758 0.0
C671 C 0.49146 0.20772 0.22572 0.0
C672 C 0.50246 0.21611 0.18698 0.0
C673 C 0.54011 0.23191 0.1837 0.0
C674 C 0.48428 0.18529 0.16279 0.0
C675 C 0.49169 0.24101 0.17915 0.0
C676 C 0.4768 0.24581 0.20881 0.0
C677 C 0.46741 0.26975 0.20906 0.0
C678 C 0.47319 0.28907 0.17821 0.0
C679 C 0.48756 0.28389 0.14729 0.0
C680 C 0.4967 0.2594 0.14775 0.0
H681 H 0.24766 0.56203 0.48823 0.0
H682 H 0.1688 0.46015 0.47657 0.0
H683 H 0.19753 0.44297 0.52021 0.0
H684 H 0.31389 0.54497 0.49246 0.0
H685 H 0.33713 0.57824 0.5239 0.0
H686 H 0.3099 0.58131 0.49232 0.0
H687 H 0.27931 0.5913 0.5443 0.0
H688 H 0.30645 0.58851 0.57615 0.0
H689 H 0.26244 0.56191 0.5804 0.0
H690 H 0.23464 0.43946 0.57059 0.0
H691 H 0.27646 0.44917 0.61725 0.0
H692 H 0.33132 0.55294 0.58822 0.0
C693 C 0.23619 0.53604 0.49495 0.0
C694 C 0.20571 0.51243 0.47982 0.0
C695 C 0.19202 0.47859 0.48835 0.0
C696 C 0.2082 0.46874 0.513 0.0
C697 C 0.2383 0.49301 0.52778 0.0
C698 C 0.25219 0.52591 0.51843 0.0
C699 C 0.28467 0.54765 0.53703 0.0
C700 C 0.31306 0.56397 0.50979 0.0
C701 C 0.28309 0.57385 0.56089 0.0
C702 C 0.28694 0.52205 0.55912 0.0
C703 C 0.26005 0.49065 0.55394 0.0
C704 C 0.25605 0.46385 0.57422 0.0
C705 C 0.2799 0.46954 0.60061 0.0
C706 C 0.30751 0.50167 0.606 0.0
C707 C 0.31106 0.52787 0.58434 0.0
H708 H 0.75101 0.29445 0.93323 0.0
H709 H 0.77681 0.2274 0.98349 0.0
H710 H 0.74308 0.1842 0.93806 0.0
H711 H 0.66663 0.23294 0.91539 0.0
H712 H 0.66507 0.25145 0.87377 0.0
H713 H 0.69244 0.27694 0.90907 0.0
H714 H 0.74194 0.29897 0.86529 0.0
H715 H 0.71473 0.2735 0.82987 0.0
H716 H 0.75003 0.27003 0.84174 0.0
H717 H 0.70787 0.14925 0.88365 0.0
H718 H 0.67055 0.12454 0.8311 0.0
H719 H 0.66446 0.2135 0.82159 0.0
C720 C 0.74983 0.27075 0.93455 0.0
C721 C 0.76698 0.26443 0.96156 0.0
C722 C 0.76405 0.23282 0.9629 0.0
C723 C 0.745 0.20822 0.93714 0.0
C724 C 0.72846 0.21538 0.91073 0.0
C725 C 0.73036 0.24582 0.90977 0.0
C726 C 0.70909 0.24711 0.88007 0.0
C727 C 0.68168 0.25241 0.89551 0.0
C728 C 0.73021 0.27399 0.85262 0.0
C729 C 0.69506 0.21277 0.86405 0.0
C730 C 0.70679 0.19486 0.88162 0.0
C731 C 0.69826 0.16299 0.87013 0.0
C732 C 0.67712 0.14914 0.84022 0.0
C733 C 0.66417 0.16685 0.82264 0.0
C734 C 0.67338 0.19904 0.83492 0.0
H735 H 0.39456 0.63408 0.17497 0.0
H736 H 0.50037 0.68008 0.15946 0.0
H737 H 0.5095 0.72145 0.20637 0.0
H738 H 0.39306 0.70807 0.18574 0.0
H739 H 0.36125 0.69237 0.21947 0.0
H740 H 0.36284 0.66451 0.18704 0.0
H741 H 0.36516 0.62852 0.23802 0.0
H742 H 0.36307 0.65595 0.2707 0.0
H743 H 0.39651 0.64755 0.27218 0.0
H744 H 0.5071 0.7592 0.25234 0.0
H745 H 0.4939 0.78952 0.29724 0.0
H746 H 0.3893 0.71995 0.28231 0.0
C747 C 0.41972 0.65237 0.18197 0.0
C748 C 0.44683 0.65365 0.16372 0.0
C749 C 0.47927 0.67846 0.17321 0.0
C750 C 0.48467 0.70212 0.19972 0.0
C751 C 0.45737 0.7007 0.21639 0.0
C752 C 0.42554 0.67632 0.20814 0.0
C753 C 0.40049 0.68108 0.22915 0.0
C754 C 0.3781 0.68687 0.20384 0.0
C755 C 0.38011 0.65152 0.25399 0.0
C756 C 0.42326 0.71211 0.25042 0.0
C757 C 0.45594 0.7229 0.2426 0.0
C758 C 0.48163 0.75092 0.25881 0.0
C759 C 0.47381 0.76801 0.28425 0.0
C760 C 0.44054 0.75718 0.29334 0.0
C761 C 0.41493 0.72904 0.27576 0.0
H762 H 0.70014 0.45816 0.61482 0.0
H763 H 0.73528 0.56219 0.63362 0.0
H764 H 0.77487 0.57655 0.58295 0.0
H765 H 0.78023 0.46801 0.5933 0.0
H766 H 0.76309 0.43511 0.56038 0.0
H767 H 0.73856 0.43401 0.59813 0.0
H768 H 0.69316 0.42887 0.5548 0.0
H769 H 0.71758 0.43015 0.5169 0.0
H770 H 0.70368 0.45959 0.52052 0.0
H771 H 0.80669 0.5779 0.52505 0.0
H772 H 0.83178 0.56688 0.47178 0.0
H773 H 0.77839 0.46219 0.49624 0.0
C774 C 0.71634 0.48403 0.60843 0.0
C775 C 0.71456 0.50913 0.62784 0.0
C776 C 0.73637 0.54266 0.61906 0.0
C777 C 0.75877 0.55093 0.59026 0.0
C778 C 0.75945 0.52538 0.57121 0.0
C779 C 0.73914 0.49262 0.58057 0.0
C780 C 0.74457 0.46955 0.55664 0.0
C781 C 0.75738 0.45056 0.57842 0.0
C782 C 0.71287 0.44564 0.536 0.0
C783 C 0.77081 0.49423 0.53174 0.0
C784 C 0.77891 0.52633 0.54009 0.0
C785 C 0.80093 0.55291 0.51884 0.0
C786 C 0.815 0.54646 0.4886 0.0
C787 C 0.80752 0.51379 0.48032 0.0
C788 C 0.78526 0.48754 0.50241 0.0
H789 H 0.18728 0.67983 0.93633 0.0
H790 H 0.11786 0.71302 0.95828 0.0
H791 H 0.13781 0.7486 0.90402 0.0
H792 H 0.25285 0.75791 0.91137 0.0
H793 H 0.26867 0.7414 0.8781 0.0
H794 H 0.24659 0.71684 0.9163 0.0
H795 H 0.20551 0.66971 0.87411 0.0
H796 H 0.22757 0.694 0.83572 0.0
H797 H 0.18397 0.67863 0.84007 0.0
H798 H 0.16653 0.78032 0.84538 0.0
H799 H 0.2031 0.80743 0.79299 0.0
H800 H 0.25541 0.75538 0.81577 0.0
C801 C 0.17564 0.694 0.92949 0.0
C802 C 0.15047 0.69312 0.95105 0.0
C803 C 0.13687 0.71303 0.94178 0.0
C804 C 0.14807 0.73326 0.91107 0.0
C805 C 0.17324 0.73363 0.89055 0.0
C806 C 0.18695 0.71464 0.89982 0.0
C807 C 0.21514 0.72068 0.87548 0.0
C808 C 0.24773 0.73507 0.89658 0.0
C809 C 0.20757 0.68886 0.85514 0.0
C810 C 0.21525 0.74596 0.85063 0.0
C811 C 0.19075 0.753 0.85918 0.0
C812 C 0.18591 0.77511 0.83877 0.0
C813 C 0.2067 0.79035 0.80909 0.0
C814 C 0.23232 0.78382 0.80073 0.0
C815 C 0.23644 0.76135 0.82188 0.0
loop_
_geom_bond_atom_site_label_1
_geom_bond_atom_site_label_2
_geom_bond_distance
_geom_bond_site_symmetry_2
_ccdc_geom_bond_type
C0 O2 1.247 . S
C0 O4 1.258 . S
C1 O8 1.247 . S
C1 O9 1.258 . S
O2 C0 1.247 . S
O2 Zn3 2.028 . S
Zn3 O2 2.028 . S
Zn3 O7 2.035 . S
Zn3 O9 2.035 . S
Zn3 O10 2.028 . S
O4 C0 1.258 . S
O4 Zn5 2.035 . S
Zn5 O4 2.035 . S
Zn5 O6 2.028 . S
Zn5 O8 2.028 . S
Zn5 O11 2.035 . S
O6 Zn5 2.028 . S
O6 C12 1.247 . S
O7 Zn3 2.035 . S
O7 C12 1.258 . S
O8 C1 1.247 . S
O8 Zn5 2.028 . S
O9 C1 1.258 . S
O9 Zn3 2.035 . S
O10 Zn3 2.028 . S
O10 C13 1.247 . S
O11 Zn5 2.035 . S
O11 C13 1.258 . S
C12 O6 1.247 . S
C12 O7 1.258 . S
C13 O10 1.247 . S
C13 O11 1.258 . S
C14 O16 1.247 . S
C14 O18 1.258 . S
C15 O22 1.247 . S
C15 O23 1.258 . S
O16 C14 1.247 . S
O16 Zn17 2.028 . S
Zn17 O16 2.028 . S
Zn17 O21 2.035 . S
Zn17 O23 2.035 . S
Zn17 O24 2.028 . S
O18 C14 1.258 . S
O18 Zn19 2.035 . S
Zn19 O18 2.035 . S
Zn19 O20 2.028 . S
Zn19 O22 2.028 . S
Zn19 O25 2.035 . S
O20 Zn19 2.028 . S
O20 C26 1.247 . S
O21 Zn17 2.035 . S
O21 C26 1.258 . S
O22 C15 1.247 . S
O22 Zn19 2.028 . S
O23 C15 1.258 . S
O23 Zn17 2.035 . S
O24 Zn17 2.028 . S
O24 C27 1.247 . S
O25 Zn19 2.035 . S
O25 C27 1.258 . S
C26 O20 1.247 . S
C26 O21 1.258 . S
C27 O24 1.247 . S
C27 O25 1.258 . S
C28 O30 1.247 . S
C28 O32 1.258 . S
C29 O36 1.247 . S
C29 O37 1.258 . S
O30 C28 1.247 . S
O30 Zn31 2.028 . S
Zn31 O30 2.028 . S
Zn31 O35 2.035 . S
Zn31 O37 2.035 1_554 S
Zn31 O38 2.028 . S
O32 C28 1.258 . S
O32 Zn33 2.035 1_554 S
Zn33 O32 2.035 1_556 S
Zn33 O34 2.028 . S
Zn33 O36 2.028 . S
Zn33 O39 2.035 . S
O34 Zn33 2.028 . S
O34 C40 1.247 1_556 S
O35 Zn31 2.035 . S
O35 C40 1.258 . S
O36 C29 1.247 . S
O36 Zn33 2.028 . S
O37 C29 1.258 . S
O37 Zn31 2.035 1_556 S
O38 Zn31 2.028 . S
O38 C41 1.247 1_554 S
O39 Zn33 2.035 . S
O39 C41 1.258 . S
C40 O34 1.247 1_554 S
C40 O35 1.258 . S
C41 O38 1.247 1_556 S
C41 O39 1.258 . S
C42 O44 1.247 . S
C42 O46 1.258 . S
C43 O50 1.247 . S
C43 O51 1.258 . S
O44 C42 1.247 . S
O44 Zn45 2.028 . S
Zn45 O44 2.028 . S
Zn45 O49 2.035 . S
Zn45 O51 2.035 . S
Zn45 O52 2.028 . S
O46 C42 1.258 . S
O46 Zn47 2.035 . S
Zn47 O46 2.035 . S
Zn47 O48 2.028 . S
Zn47 O50 2.028 . S
Zn47 O53 2.035 . S
O48 Zn47 2.028 . S
O48 C54 1.247 . S
O49 Zn45 2.035 . S
O49 C54 1.258 . S
O50 C43 1.247 . S
O50 Zn47 2.028 . S
O51 C43 1.258 . S
O51 Zn45 2.035 . S
O52 Zn45 2.028 . S
O52 C55 1.247 . S
O53 Zn47 2.035 . S
O53 C55 1.258 . S
C54 O48 1.247 . S
C54 O49 1.258 . S
C55 O52 1.247 . S
C55 O53 1.258 . S
C56 O58 1.247 . S
C56 O60 1.258 . S
C57 O64 1.247 . S
C57 O65 1.258 . S
O58 C56 1.247 . S
O58 Zn59 2.028 . S
Zn59 O58 2.028 . S
Zn59 O63 2.035 . S
Zn59 O65 2.035 . S
Zn59 O66 2.028 . S
O60 C56 1.258 . S
O60 Zn61 2.035 . S
Zn61 O60 2.035 . S
Zn61 O62 2.028 . S
Zn61 O64 2.028 . S
Zn61 O67 2.035 . S
O62 Zn61 2.028 . S
O62 C68 1.247 . S
O63 Zn59 2.035 . S
O63 C68 1.258 . S
O64 C57 1.247 . S
O64 Zn61 2.028 . S
O65 C57 1.258 . S
O65 Zn59 2.035 . S
O66 Zn59 2.028 . S
O66 C69 1.247 . S
O67 Zn61 2.035 . S
O67 C69 1.258 . S
C68 O62 1.247 . S
C68 O63 1.258 . S
C69 O66 1.247 . S
C69 O67 1.258 . S
C70 O72 1.247 . S
C70 O74 1.258 . S
C71 O78 1.247 . S
C71 O79 1.258 . S
O72 C70 1.247 . S
O72 Zn73 2.028 . S
Zn73 O72 2.028 . S
Zn73 O77 2.035 . S
Zn73 O79 2.035 1_554 S
Zn73 O80 2.028 . S
O74 C70 1.258 . S
O74 Zn75 2.035 1_554 S
Zn75 O74 2.035 1_556 S
Zn75 O76 2.028 . S
Zn75 O78 2.028 . S
Zn75 O81 2.035 . S
O76 Zn75 2.028 . S
O76 C82 1.247 1_556 S
O77 Zn73 2.035 . S
O77 C82 1.258 . S
O78 C71 1.247 . S
O78 Zn75 2.028 . S
O79 C71 1.258 . S
O79 Zn73 2.035 1_556 S
O80 Zn73 2.028 . S
O80 C83 1.247 1_554 S
O81 Zn75 2.035 . S
O81 C83 1.258 . S
C82 O76 1.247 1_554 S
C82 O77 1.258 . S
C83 O80 1.247 1_556 S
C83 O81 1.258 . S
C84 O86 1.247 . S
C84 O88 1.258 . S
C85 O92 1.247 . S
C85 O93 1.258 . S
O86 C84 1.247 . S
O86 Zn87 2.028 . S
Zn87 O86 2.028 . S
Zn87 O91 2.035 . S
Zn87 O93 2.035 . S
Zn87 O94 2.028 . S
O88 C84 1.258 . S
O88 Zn89 2.035 . S
Zn89 O88 2.035 . S
Zn89 O90 2.028 . S
Zn89 O92 2.028 . S
Zn89 O95 2.035 . S
O90 Zn89 2.028 . S
O90 C96 1.247 . S
O91 Zn87 2.035 . S
O91 C96 1.258 . S
O92 C85 1.247 . S
O92 Zn89 2.028 . S
O93 C85 1.258 . S
O93 Zn87 2.035 . S
O94 Zn87 2.028 . S
O94 C97 1.247 . S
O95 Zn89 2.035 . S
O95 C97 1.258 . S
C96 O90 1.247 . S
C96 O91 1.258 . S
C97 O94 1.247 . S
C97 O95 1.258 . S
C98 O100 1.247 . S
C98 O102 1.258 . S
C99 O106 1.247 . S
C99 O107 1.258 . S
O100 C98 1.247 . S
O100 Zn101 2.028 . S
Zn101 O100 2.028 . S
Zn101 O105 2.035 . S
Zn101 O107 2.035 . S
Zn101 O108 2.028 . S
O102 C98 1.258 . S
O102 Zn103 2.035 . S
Zn103 O102 2.035 . S
Zn103 O104 2.028 . S
Zn103 O106 2.028 . S
Zn103 O109 2.035 . S
O104 Zn103 2.028 . S
O104 C110 1.247 . S
O105 Zn101 2.035 . S
O105 C110 1.258 . S
O106 C99 1.247 . S
O106 Zn103 2.028 . S
O107 C99 1.258 . S
O107 Zn101 2.035 . S
O108 Zn101 2.028 . S
O108 C111 1.247 . S
O109 Zn103 2.035 . S
O109 C111 1.258 . S
C110 O104 1.247 . S
C110 O105 1.258 . S
C111 O108 1.247 . S
C111 O109 1.258 . S
C112 O114 1.247 . S
C112 O116 1.258 . S
C113 O120 1.247 . S
C113 O121 1.258 . S
O114 C112 1.247 . S
O114 Zn115 2.028 . S
Zn115 O114 2.028 . S
Zn115 O119 2.035 . S
Zn115 O121 2.035 1_556 S
Zn115 O122 2.028 . S
O116 C112 1.258 . S
O116 Zn117 2.035 1_556 S
Zn117 O116 2.035 1_554 S
Zn117 O118 2.028 . S
Zn117 O120 2.028 . S
Zn117 O123 2.035 . S
O118 Zn117 2.028 . S
O118 C124 1.247 1_554 S
O119 Zn115 2.035 . S
O119 C124 1.258 . S
O120 C113 1.247 . S
O120 Zn117 2.028 . S
O121 C113 1.258 . S
O121 Zn115 2.035 1_554 S
O122 Zn115 2.028 . S
O122 C125 1.247 1_556 S
O123 Zn117 2.035 . S
O123 C125 1.258 . S
C124 O118 1.247 1_556 S
C124 O119 1.258 . S
C125 O122 1.247 1_554 S
C125 O123 1.258 . S
C126 O128 1.247 . S
C126 O130 1.258 . S
C127 O134 1.247 . S
C127 O135 1.258 . S
O128 C126 1.247 . S
O128 Zn129 2.028 . S
Zn129 O128 2.028 . S
Zn129 O133 2.035 . S
Zn129 O135 2.035 . S
Zn129 O136 2.028 . S
O130 C126 1.258 . S
O130 Zn131 2.035 . S
Zn131 O130 2.035 . S
Zn131 O132 2.028 . S
Zn131 O134 2.028 . S
Zn131 O137 2.035 . S
O132 Zn131 2.028 . S
O132 C138 1.247 . S
O133 Zn129 2.035 . S
O133 C138 1.258 . S
O134 C127 1.247 . S
O134 Zn131 2.028 . S
O135 C127 1.258 . S
O135 Zn129 2.035 . S
O136 Zn129 2.028 . S
O136 C139 1.247 . S
O137 Zn131 2.035 . S
O137 C139 1.258 . S
C138 O132 1.247 . S
C138 O133 1.258 . S
C139 O136 1.247 . S
C139 O137 1.258 . S
C140 O142 1.247 . S
C140 O144 1.258 . S
C141 O148 1.247 . S
C141 O149 1.258 . S
O142 C140 1.247 . S
O142 Zn143 2.028 . S
Zn143 O142 2.028 . S
Zn143 O147 2.035 . S
Zn143 O149 2.035 . S
Zn143 O150 2.028 . S
O144 C140 1.258 . S
O144 Zn145 2.035 . S
Zn145 O144 2.035 . S
Zn145 O146 2.028 . S
Zn145 O148 2.028 . S
Zn145 O151 2.035 . S
O146 Zn145 2.028 . S
O146 C152 1.247 . S
O147 Zn143 2.035 . S
O147 C152 1.258 . S
O148 C141 1.247 . S
O148 Zn145 2.028 . S
O149 C141 1.258 . S
O149 Zn143 2.035 . S
O150 Zn143 2.028 . S
O150 C153 1.247 . S
O151 Zn145 2.035 . S
O151 C153 1.258 . S
C152 O146 1.247 . S
C152 O147 1.258 . S
C153 O150 1.247 . S
C153 O151 1.258 . S
C154 O156 1.247 . S
C154 O158 1.258 . S
C155 O162 1.247 . S
C155 O163 1.258 . S
O156 C154 1.247 . S
O156 Zn157 2.028 . S
Zn157 O156 2.028 . S
Zn157 O161 2.035 . S
Zn157 O163 2.035 1_556 S
Zn157 O164 2.028 . S
O158 C154 1.258 . S
O158 Zn159 2.035 1_556 S
Zn159 O158 2.035 1_554 S
Zn159 O160 2.028 . S
Zn159 O162 2.028 . S
Zn159 O165 2.035 . S
O160 Zn159 2.028 . S
O160 C166 1.247 1_554 S
O161 Zn157 2.035 . S
O161 C166 1.258 . S
O162 C155 1.247 . S
O162 Zn159 2.028 . S
O163 C155 1.258 . S
O163 Zn157 2.035 1_554 S
O164 Zn157 2.028 . S
O164 C167 1.247 1_556 S
O165 Zn159 2.035 . S
O165 C167 1.258 . S
C166 O160 1.247 1_556 S
C166 O161 1.258 . S
C167 O164 1.247 1_554 S
C167 O165 1.258 . S
H168 C180 0.930 . S
H169 C182 0.930 . S
H170 C183 0.930 . S
H171 C187 0.959 . S
H172 C187 0.959 . S
H173 C187 0.961 . S
H174 C188 0.960 . S
H175 C188 0.961 . S
H176 C188 0.959 . S
H177 C191 0.929 . S
H178 C192 0.931 . S
H179 C194 0.930 . S
C180 H168 0.930 . S
C180 C181 1.399 . S
C180 C185 1.399 . S
C181 C180 1.399 . S
C181 C182 1.376 . S
C182 H169 0.930 . S
C182 C181 1.376 . S
C182 C183 1.388 . S
C183 H170 0.930 . S
C183 C182 1.388 . S
C183 C184 1.390 . S
C184 C183 1.390 . S
C184 C185 1.394 . S
C184 C190 1.465 . S
C185 C180 1.399 . S
C185 C184 1.394 . S
C185 C186 1.516 . S
C186 C185 1.516 . S
C186 C187 1.502 . S
C186 C188 1.561 . S
C186 C189 1.526 . S
C187 H171 0.959 . S
C187 H172 0.959 . S
C187 H173 0.961 . S
C187 C186 1.502 . S
C188 H174 0.960 . S
C188 H175 0.961 . S
C188 H176 0.959 . S
C188 C186 1.561 . S
C189 C186 1.526 . S
C189 C190 1.396 . S
C189 C194 1.390 . S
C190 C184 1.465 . S
C190 C189 1.396 . S
C190 C191 1.399 . S
C191 H177 0.929 . S
C191 C190 1.399 . S
C191 C192 1.385 . S
C192 H178 0.931 . S
C192 C191 1.385 . S
C192 C193 1.389 . S
C193 C192 1.389 . S
C193 C194 1.387 . S
C194 H179 0.930 . S
C194 C189 1.390 . S
C194 C193 1.387 . S
H195 C207 0.930 . S
H196 C209 0.930 . S
H197 C210 0.930 . S
H198 C214 0.959 . S
H199 C214 0.959 . S
H200 C214 0.961 . S
H201 C215 0.960 . S
H202 C215 0.961 . S
H203 C215 0.959 . S
H204 C218 0.929 . S
H205 C219 0.931 . S
H206 C221 0.930 . S
C207 H195 0.930 . S
C207 C208 1.399 . S
C207 C212 1.399 . S
C208 C207 1.399 . S
C208 C209 1.376 . S
C209 H196 0.930 . S
C209 C208 1.376 . S
C209 C210 1.388 . S
C210 H197 0.930 . S
C210 C209 1.388 . S
C210 C211 1.390 . S
C211 C210 1.390 . S
C211 C212 1.394 . S
C211 C217 1.465 . S
C212 C207 1.399 . S
C212 C211 1.394 . S
C212 C213 1.516 . S
C213 C212 1.516 . S
C213 C214 1.502 . S
C213 C215 1.561 . S
C213 C216 1.526 . S
C214 H198 0.959 . S
C214 H199 0.959 . S
C214 H200 0.961 . S
C214 C213 1.502 . S
C215 H201 0.960 . S
C215 H202 0.961 . S
C215 H203 0.959 . S
C215 C213 1.561 . S
C216 C213 1.526 . S
C216 C217 1.396 . S
C216 C221 1.390 . S
C217 C211 1.465 . S
C217 C216 1.396 . S
C217 C218 1.399 . S
C218 H204 0.929 . S
C218 C217 1.399 . S
C218 C219 1.385 . S
C219 H205 0.931 . S
C219 C218 1.385 . S
C219 C220 1.389 . S
C220 C219 1.389 . S
C220 C221 1.387 . S
C221 H206 0.930 . S
C221 C216 1.390 . S
C221 C220 1.387 . S
H222 C234 0.930 . S
H223 C236 0.930 . S
H224 C237 0.930 . S
H225 C241 0.959 . S
H226 C241 0.959 . S
H227 C241 0.961 . S
H228 C242 0.960 . S
H229 C242 0.961 . S
H230 C242 0.959 . S
H231 C245 0.929 . S
H232 C246 0.931 . S
H233 C248 0.930 . S
C234 H222 0.930 . S
C234 C235 1.399 . S
C234 C239 1.399 . S
C235 C234 1.399 . S
C235 C236 1.376 . S
C236 H223 0.930 . S
C236 C235 1.376 . S
C236 C237 1.388 . S
C237 H224 0.930 . S
C237 C236 1.388 . S
C237 C238 1.390 . S
C238 C237 1.390 . S
C238 C239 1.394 . S
C238 C244 1.465 . S
C239 C234 1.399 . S
C239 C238 1.394 . S
C239 C240 1.516 . S
C240 C239 1.516 . S
C240 C241 1.502 . S
C240 C242 1.561 . S
C240 C243 1.526 . S
C241 H225 0.959 . S
C241 H226 0.959 . S
C241 H227 0.961 . S
C241 C240 1.502 . S
C242 H228 0.960 . S
C242 H229 0.961 . S
C242 H230 0.959 . S
C242 C240 1.561 . S
C243 C240 1.526 . S
C243 C244 1.396 . S
C243 C248 1.390 . S
C244 C238 1.465 . S
C244 C243 1.396 . S
C244 C245 1.399 . S
C245 H231 0.929 . S
C245 C244 1.399 . S
C245 C246 1.385 . S
C246 H232 0.931 . S
C246 C245 1.385 . S
C246 C247 1.389 . S
C247 C246 1.389 . S
C247 C248 1.387 . S
C248 H233 0.930 . S
C248 C243 1.390 . S
C248 C247 1.387 . S
H249 C261 0.930 . S
H250 C263 0.930 . S
H251 C264 0.930 . S
H252 C268 0.959 . S
H253 C268 0.959 . S
H254 C268 0.961 . S
H255 C269 0.960 . S
H256 C269 0.961 . S
H257 C269 0.959 . S
H258 C272 0.929 . S
H259 C273 0.931 . S
H260 C275 0.930 . S
C261 H249 0.930 . S
C261 C262 1.399 . S
C261 C266 1.399 . S
C262 C261 1.399 . S
C262 C263 1.376 . S
C263 H250 0.930 . S
C263 C262 1.376 . S
C263 C264 1.388 . S
C264 H251 0.930 . S
C264 C263 1.388 . S
C264 C265 1.390 . S
C265 C264 1.390 . S
C265 C266 1.394 . S
C265 C271 1.465 . S
C266 C261 1.399 . S
C266 C265 1.394 . S
C266 C267 1.516 . S
C267 C266 1.516 . S
C267 C268 1.502 . S
C267 C269 1.561 . S
C267 C270 1.526 . S
C268 H252 0.959 . S
C268 H253 0.959 . S
C268 H254 0.961 . S
C268 C267 1.502 . S
C269 H255 0.960 . S
C269 H256 0.961 . S
C269 H257 0.959 . S
C269 C267 1.561 . S
C270 C267 1.526 . S
C270 C271 1.396 . S
C270 C275 1.390 . S
C271 C265 1.465 . S
C271 C270 1.396 . S
C271 C272 1.399 . S
C272 H258 0.929 . S
C272 C271 1.399 . S
C272 C273 1.385 . S
C273 H259 0.931 . S
C273 C272 1.385 . S
C273 C274 1.389 . S
C274 C273 1.389 . S
C274 C275 1.387 . S
C275 H260 0.930 . S
C275 C270 1.390 . S
C275 C274 1.387 . S
H276 C288 0.930 . S
H277 C290 0.930 . S
H278 C291 0.930 . S
H279 C295 0.959 . S
H280 C295 0.959 . S
H281 C295 0.961 . S
H282 C296 0.960 . S
H283 C296 0.961 . S
H284 C296 0.959 . S
H285 C299 0.929 . S
H286 C300 0.931 . S
H287 C302 0.930 . S
C288 H276 0.930 . S
C288 C289 1.399 . S
C288 C293 1.399 . S
C289 C288 1.399 . S
C289 C290 1.376 . S
C290 H277 0.930 . S
C290 C289 1.376 . S
C290 C291 1.388 . S
C291 H278 0.930 . S
C291 C290 1.388 . S
C291 C292 1.390 . S
C292 C291 1.390 . S
C292 C293 1.394 . S
C292 C298 1.465 . S
C293 C288 1.399 . S
C293 C292 1.394 . S
C293 C294 1.516 . S
C294 C293 1.516 . S
C294 C295 1.502 . S
C294 C296 1.561 . S
C294 C297 1.526 . S
C295 H279 0.959 . S
C295 H280 0.959 . S
C295 H281 0.961 . S
C295 C294 1.502 . S
C296 H282 0.960 . S
C296 H283 0.961 . S
C296 H284 0.959 . S
C296 C294 1.561 . S
C297 C294 1.526 . S
C297 C298 1.396 . S
C297 C302 1.390 . S
C298 C292 1.465 . S
C298 C297 1.396 . S
C298 C299 1.399 . S
C299 H285 0.929 . S
C299 C298 1.399 . S
C299 C300 1.385 . S
C300 H286 0.931 . S
C300 C299 1.385 . S
C300 C301 1.389 . S
C301 C300 1.389 . S
C301 C302 1.387 . S
C302 H287 0.930 . S
C302 C297 1.390 . S
C302 C301 1.387 . S
H303 C315 0.930 . S
H304 C317 0.930 . S
H305 C318 0.930 . S
H306 C322 0.959 . S
H307 C322 0.959 . S
H308 C322 0.961 . S
H309 C323 0.960 . S
H310 C323 0.961 . S
H311 C323 0.959 . S
H312 C326 0.929 . S
H313 C327 0.931 . S
H314 C329 0.930 . S
C315 H303 0.930 . S
C315 C316 1.399 . S
C315 C320 1.399 . S
C316 C315 1.399 . S
C316 C317 1.376 . S
C317 H304 0.930 . S
C317 C316 1.376 . S
C317 C318 1.388 . S
C318 H305 0.930 . S
C318 C317 1.388 . S
C318 C319 1.390 . S
C319 C318 1.390 . S
C319 C320 1.394 . S
C319 C325 1.465 . S
C320 C315 1.399 . S
C320 C319 1.394 . S
C320 C321 1.516 . S
C321 C320 1.516 . S
C321 C322 1.502 . S
C321 C323 1.561 . S
C321 C324 1.526 . S
C322 H306 0.959 . S
C322 H307 0.959 . S
C322 H308 0.961 . S
C322 C321 1.502 . S
C323 H309 0.960 . S
C323 H310 0.961 . S
C323 H311 0.959 . S
C323 C321 1.561 . S
C324 C321 1.526 . S
C324 C325 1.396 . S
C324 C329 1.390 . S
C325 C319 1.465 . S
C325 C324 1.396 . S
C325 C326 1.399 . S
C326 H312 0.929 . S
C326 C325 1.399 . S
C326 C327 1.385 . S
C327 H313 0.931 . S
C327 C326 1.385 . S
C327 C328 1.389 . S
C328 C327 1.389 . S
C328 C329 1.387 . S
C329 H314 0.930 . S
C329 C324 1.390 . S
C329 C328 1.387 . S
H330 C342 0.930 . S
H331 C344 0.930 . S
H332 C345 0.930 . S
H333 C349 0.959 . S
H334 C349 0.959 . S
H335 C349 0.961 . S
H336 C350 0.960 . S
H337 C350 0.961 . S
H338 C350 0.959 . S
H339 C353 0.929 . S
H340 C354 0.931 . S
H341 C356 0.930 . S
C342 H330 0.930 . S
C342 C343 1.399 . S
C342 C347 1.399 . S
C343 C342 1.399 . S
C343 C344 1.376 . S
C344 H331 0.930 . S
C344 C343 1.376 . S
C344 C345 1.388 . S
C345 H332 0.930 . S
C345 C344 1.388 . S
C345 C346 1.390 . S
C346 C345 1.390 . S
C346 C347 1.394 . S
C346 C352 1.465 . S
C347 C342 1.399 . S
C347 C346 1.394 . S
C347 C348 1.516 . S
C348 C347 1.516 . S
C348 C349 1.502 . S
C348 C350 1.561 . S
C348 C351 1.526 . S
C349 H333 0.959 . S
C349 H334 0.959 . S
C349 H335 0.961 . S
C349 C348 1.502 . S
C350 H336 0.960 . S
C350 H337 0.961 . S
C350 H338 0.959 . S
C350 C348 1.561 . S
C351 C348 1.526 . S
C351 C352 1.396 . S
C351 C356 1.390 . S
C352 C346 1.465 . S
C352 C351 1.396 . S
C352 C353 1.399 . S
C353 H339 0.929 . S
C353 C352 1.399 . S
C353 C354 1.385 . S
C354 H340 0.931 . S
C354 C353 1.385 . S
C354 C355 1.389 . S
C355 C354 1.389 . S
C355 C356 1.387 . S
C356 H341 0.930 . S
C356 C351 1.390 . S
C356 C355 1.387 . S
H357 C369 0.930 . S
H358 C371 0.930 . S
H359 C372 0.930 . S
H360 C376 0.959 . S
H361 C376 0.959 . S
H362 C376 0.961 . S
H363 C377 0.960 . S
H364 C377 0.961 . S
H365 C377 0.959 . S
H366 C380 0.929 . S
H367 C381 0.931 . S
H368 C383 0.930 . S
C369 H357 0.930 . S
C369 C370 1.399 . S
C369 C374 1.399 . S
C370 C369 1.399 . S
C370 C371 1.376 . S
C371 H358 0.930 . S
C371 C370 1.376 . S
C371 C372 1.388 . S
C372 H359 0.930 . S
C372 C371 1.388 . S
C372 C373 1.390 . S
C373 C372 1.390 . S
C373 C374 1.394 . S
C373 C379 1.465 . S
C374 C369 1.399 . S
C374 C373 1.394 . S
C374 C375 1.516 . S
C375 C374 1.516 . S
C375 C376 1.502 . S
C375 C377 1.561 . S
C375 C378 1.526 . S
C376 H360 0.959 . S
C376 H361 0.959 . S
C376 H362 0.961 . S
C376 C375 1.502 . S
C377 H363 0.960 . S
C377 H364 0.961 . S
C377 H365 0.959 . S
C377 C375 1.561 . S
C378 C375 1.526 . S
C378 C379 1.396 . S
C378 C383 1.390 . S
C379 C373 1.465 . S
C379 C378 1.396 . S
C379 C380 1.399 . S
C380 H366 0.929 . S
C380 C379 1.399 . S
C380 C381 1.385 . S
C381 H367 0.931 . S
C381 C380 1.385 . S
C381 C382 1.389 . S
C382 C381 1.389 . S
C382 C383 1.387 . S
C383 H368 0.930 . S
C383 C378 1.390 . S
C383 C382 1.387 . S
H384 C396 0.930 . S
H385 C398 0.930 . S
H386 C399 0.930 . S
H387 C403 0.959 . S
H388 C403 0.959 . S
H389 C403 0.961 . S
H390 C404 0.960 . S
H391 C404 0.961 . S
H392 C404 0.959 1_556 S
H393 C407 0.929 . S
H394 C408 0.931 . S
H395 C410 0.930 . S
C396 H384 0.930 . S
C396 C397 1.399 1_554 S
C396 C401 1.399 . S
C397 C396 1.399 1_556 S
C397 C398 1.376 . S
C398 H385 0.930 . S
C398 C397 1.376 . S
C398 C399 1.388 . S
C399 H386 0.930 . S
C399 C398 1.388 . S
C399 C400 1.390 . S
C400 C399 1.390 . S
C400 C401 1.394 1_556 S
C400 C406 1.465 . S
C401 C396 1.399 . S
C401 C400 1.394 1_554 S
C401 C402 1.516 . S
C402 C401 1.516 . S
C402 C403 1.502 . S
C402 C404 1.561 . S
C402 C405 1.526 . S
C403 H387 0.959 . S
C403 H388 0.959 . S
C403 H389 0.961 . S
C403 C402 1.502 . S
C404 H390 0.960 . S
C404 H391 0.961 . S
C404 H392 0.959 1_554 S
C404 C402 1.561 . S
C405 C402 1.526 . S
C405 C406 1.396 1_554 S
C405 C410 1.390 . S
C406 C400 1.465 . S
C406 C405 1.396 1_556 S
C406 C407 1.399 . S
C407 H393 0.929 . S
C407 C406 1.399 . S
C407 C408 1.385 . S
C408 H394 0.931 . S
C408 C407 1.385 . S
C408 C409 1.402 . S
C409 C408 1.402 . S
C409 C410 1.378 1_556 S
C410 H395 0.930 . S
C410 C405 1.390 . S
C410 C409 1.378 1_554 S
H411 C423 0.930 . S
H412 C425 0.930 . S
H413 C426 0.930 . S
H414 C430 0.959 . S
H415 C430 0.959 . S
H416 C430 0.961 . S
H417 C431 0.960 . S
H418 C431 0.961 . S
H419 C431 0.959 . S
H420 C434 0.929 . S
H421 C435 0.931 . S
H422 C437 0.930 . S
C423 H411 0.930 . S
C423 C424 1.399 . S
C423 C428 1.399 . S
C424 C423 1.399 . S
C424 C425 1.376 . S
C425 H412 0.930 . S
C425 C424 1.376 . S
C425 C426 1.388 . S
C426 H413 0.930 . S
C426 C425 1.388 . S
C426 C427 1.390 . S
C427 C426 1.390 . S
C427 C428 1.394 . S
C427 C433 1.465 . S
C428 C423 1.399 . S
C428 C427 1.394 . S
C428 C429 1.516 . S
C429 C428 1.516 . S
C429 C430 1.502 . S
C429 C431 1.561 . S
C429 C432 1.526 . S
C430 H414 0.959 . S
C430 H415 0.959 . S
C430 H416 0.961 . S
C430 C429 1.502 . S
C431 H417 0.960 . S
C431 H418 0.961 . S
C431 H419 0.959 . S
C431 C429 1.561 . S
C432 C429 1.526 . S
C432 C433 1.396 . S
C432 C437 1.390 . S
C433 C427 1.465 . S
C433 C432 1.396 . S
C433 C434 1.399 . S
C434 H420 0.929 . S
C434 C433 1.399 . S
C434 C435 1.385 . S
C435 H421 0.931 . S
C435 C434 1.385 . S
C435 C436 1.389 . S
C436 C435 1.389 . S
C436 C437 1.387 . S
C437 H422 0.930 . S
C437 C432 1.390 . S
C437 C436 1.387 . S
H438 C450 0.930 . S
H439 C452 0.930 . S
H440 C453 0.930 . S
H441 C457 0.959 . S
H442 C457 0.959 . S
H443 C457 0.961 . S
H444 C458 0.960 . S
H445 C458 0.961 . S
H446 C458 0.959 . S
H447 C461 0.929 . S
H448 C462 0.931 . S
H449 C464 0.930 . S
C450 H438 0.930 . S
C450 C451 1.399 . S
C450 C455 1.399 . S
C451 C450 1.399 . S
C451 C452 1.376 . S
C452 H439 0.930 . S
C452 C451 1.376 . S
C452 C453 1.388 . S
C453 H440 0.930 . S
C453 C452 1.388 . S
C453 C454 1.390 . S
C454 C453 1.390 . S
C454 C455 1.394 . S
C454 C460 1.465 . S
C455 C450 1.399 . S
C455 C454 1.394 . S
C455 C456 1.516 . S
C456 C455 1.516 . S
C456 C457 1.502 . S
C456 C458 1.561 . S
C456 C459 1.526 . S
C457 H441 0.959 . S
C457 H442 0.959 . S
C457 H443 0.961 . S
C457 C456 1.502 . S
C458 H444 0.960 . S
C458 H445 0.961 . S
C458 H446 0.959 . S
C458 C456 1.561 . S
C459 C456 1.526 . S
C459 C460 1.396 . S
C459 C464 1.390 . S
C460 C454 1.465 . S
C460 C459 1.396 . S
C460 C461 1.399 . S
C461 H447 0.929 . S
C461 C460 1.399 . S
C461 C462 1.385 . S
C462 H448 0.931 . S
C462 C461 1.385 . S
C462 C463 1.389 . S
C463 C462 1.389 . S
C463 C464 1.387 . S
C464 H449 0.930 . S
C464 C459 1.390 . S
C464 C463 1.387 . S
H465 C477 0.930 . S
H466 C479 0.930 . S
H467 C480 0.930 . S
H468 C484 0.959 . S
H469 C484 0.959 . S
H470 C484 0.961 . S
H471 C485 0.960 . S
H472 C485 0.961 . S
H473 C485 0.959 . S
H474 C488 0.929 . S
H475 C489 0.931 . S
H476 C491 0.930 . S
C477 H465 0.930 . S
C477 C478 1.399 1_554 S
C477 C482 1.399 . S
C478 C477 1.399 1_556 S
C478 C479 1.376 . S
C479 H466 0.930 . S
C479 C478 1.376 . S
C479 C480 1.388 . S
C480 H467 0.930 . S
C480 C479 1.388 . S
C480 C481 1.390 . S
C481 C480 1.390 . S
C481 C482 1.394 1_556 S
C481 C487 1.465 . S
C482 C477 1.399 . S
C482 C481 1.394 1_554 S
C482 C483 1.516 . S
C483 C482 1.516 . S
C483 C484 1.502 . S
C483 C485 1.561 . S
C483 C486 1.526 . S
C484 H468 0.959 . S
C484 H469 0.959 . S
C484 H470 0.961 . S
C484 C483 1.502 . S
C485 H471 0.960 . S
C485 H472 0.961 . S
C485 H473 0.959 . S
C485 C483 1.561 . S
C486 C483 1.526 . S
C486 C487 1.396 1_554 S
C486 C491 1.390 . S
C487 C481 1.465 . S
C487 C486 1.396 1_556 S
C487 C488 1.399 . S
C488 H474 0.929 . S
C488 C487 1.399 . S
C488 C489 1.385 . S
C489 H475 0.931 . S
C489 C488 1.385 . S
C489 C490 1.389 . S
C490 C489 1.389 . S
C490 C491 1.387 1_556 S
C491 H476 0.930 . S
C491 C486 1.390 . S
C491 C490 1.387 1_554 S
H492 C504 0.930 . S
H493 C506 0.930 . S
H494 C507 0.930 . S
H495 C511 0.959 . S
H496 C511 0.959 . S
H497 C511 0.961 . S
H498 C512 0.960 1_545 S
H499 C512 0.961 . S
H500 C512 0.959 . S
H501 C515 0.929 . S
H502 C516 0.931 . S
H503 C518 0.930 . S
C504 H492 0.930 . S
C504 C505 1.399 . S
C504 C509 1.399 . S
C505 C504 1.399 . S
C505 C506 1.376 . S
C506 H493 0.930 . S
C506 C505 1.376 . S
C506 C507 1.388 . S
C507 H494 0.930 . S
C507 C506 1.388 . S
C507 C508 1.390 . S
C508 C507 1.390 . S
C508 C509 1.394 . S
C508 C514 1.465 1_545 S
C509 C504 1.399 . S
C509 C508 1.394 . S
C509 C510 1.516 . S
C510 C509 1.516 . S
C510 C511 1.502 . S
C510 C512 1.561 1_545 S
C510 C513 1.526 1_545 S
C511 H495 0.959 . S
C511 H496 0.959 . S
C511 H497 0.961 . S
C511 C510 1.502 . S
C512 H498 0.960 1_565 S
C512 H499 0.961 . S
C512 H500 0.959 . S
C512 C510 1.561 1_565 S
C513 C510 1.526 1_565 S
C513 C514 1.396 . S
C513 C518 1.390 . S
C514 C508 1.465 1_565 S
C514 C513 1.396 . S
C514 C515 1.399 . S
C515 H501 0.929 . S
C515 C514 1.399 . S
C515 C516 1.385 . S
C516 H502 0.931 . S
C516 C515 1.385 . S
C516 C517 1.389 . S
C517 C516 1.389 . S
C517 C518 1.387 . S
C518 H503 0.930 . S
C518 C513 1.390 . S
C518 C517 1.387 . S
H519 C531 0.930 . S
H520 C533 0.930 . S
H521 C534 0.930 . S
H522 C538 0.959 . S
H523 C538 0.959 . S
H524 C538 0.961 . S
H525 C539 0.960 . S
H526 C539 0.961 . S
H527 C539 0.959 . S
H528 C542 0.929 . S
H529 C543 0.931 . S
H530 C545 0.930 . S
C531 H519 0.930 . S
C531 C532 1.399 . S
C531 C536 1.399 . S
C532 C531 1.399 . S
C532 C533 1.376 . S
C533 H520 0.930 . S
C533 C532 1.376 . S
C533 C534 1.388 . S
C534 H521 0.930 . S
C534 C533 1.388 . S
C534 C535 1.390 . S
C535 C534 1.390 . S
C535 C536 1.394 . S
C535 C541 1.465 . S
C536 C531 1.399 . S
C536 C535 1.394 . S
C536 C537 1.516 . S
C537 C536 1.516 . S
C537 C538 1.502 . S
C537 C539 1.561 . S
C537 C540 1.526 . S
C538 H522 0.959 . S
C538 H523 0.959 . S
C538 H524 0.961 . S
C538 C537 1.502 . S
C539 H525 0.960 . S
C539 H526 0.961 . S
C539 H527 0.959 . S
C539 C537 1.561 . S
C540 C537 1.526 . S
C540 C541 1.396 . S
C540 C545 1.390 . S
C541 C535 1.465 . S
C541 C540 1.396 . S
C541 C542 1.399 . S
C542 H528 0.929 . S
C542 C541 1.399 . S
C542 C543 1.385 . S
C543 H529 0.931 . S
C543 C542 1.385 . S
C543 C544 1.389 . S
C544 C543 1.389 . S
C544 C545 1.387 . S
C545 H530 0.930 . S
C545 C540 1.390 . S
C545 C544 1.387 . S
H546 C558 0.930 . S
H547 C560 0.930 . S
H548 C561 0.930 . S
H549 C565 0.959 . S
H550 C565 0.959 . S
H551 C565 0.961 . S
H552 C566 0.960 . S
H553 C566 0.961 1_455 S
H554 C566 0.959 . S
H555 C569 0.929 . S
H556 C570 0.931 . S
H557 C572 0.930 . S
C558 H546 0.930 . S
C558 C559 1.390 1_556 S
C558 C563 1.399 . S
C559 C558 1.390 1_554 S
C559 C560 1.388 . S
C560 H547 0.930 . S
C560 C559 1.388 . S
C560 C561 1.388 . S
C561 H548 0.930 . S
C561 C560 1.388 . S
C561 C562 1.390 . S
C562 C561 1.390 . S
C562 C563 1.394 1_554 S
C562 C568 1.465 1_655 S
C563 C558 1.399 . S
C563 C562 1.394 1_556 S
C563 C564 1.516 1_655 S
C564 C563 1.516 1_455 S
C564 C565 1.502 . S
C564 C566 1.561 1_455 S
C564 C567 1.526 . S
C565 H549 0.959 . S
C565 H550 0.959 . S
C565 H551 0.961 . S
C565 C564 1.502 . S
C566 H552 0.960 . S
C566 H553 0.961 1_655 S
C566 H554 0.959 . S
C566 C564 1.561 1_655 S
C567 C564 1.526 . S
C567 C568 1.396 1_556 S
C567 C572 1.390 . S
C568 C562 1.465 1_455 S
C568 C567 1.396 1_554 S
C568 C569 1.399 . S
C569 H555 0.929 . S
C569 C568 1.399 . S
C569 C570 1.385 . S
C570 H556 0.931 . S
C570 C569 1.385 . S
C570 C571 1.389 . S
C571 C570 1.389 . S
C571 C572 1.387 1_554 S
C572 H557 0.930 . S
C572 C567 1.390 . S
C572 C571 1.387 1_556 S
H573 C585 0.930 . S
H574 C587 0.930 . S
H575 C588 0.930 . S
H576 C592 0.959 . S
H577 C592 0.959 . S
H578 C592 0.961 . S
H579 C593 0.960 1_455 S
H580 C593 0.961 . S
H581 C593 0.959 1_455 S
H582 C596 0.929 1_455 S
H583 C597 0.931 . S
H584 C599 0.930 . S
C585 H573 0.930 . S
C585 C586 1.399 . S
C585 C590 1.399 . S
C586 C585 1.399 . S
C586 C587 1.376 . S
C587 H574 0.930 . S
C587 C586 1.376 . S
C587 C588 1.388 . S
C588 H575 0.930 . S
C588 C587 1.388 . S
C588 C589 1.390 . S
C589 C588 1.390 . S
C589 C590 1.394 . S
C589 C595 1.465 1_455 S
C590 C585 1.399 . S
C590 C589 1.394 . S
C590 C591 1.516 1_455 S
C591 C590 1.516 1_655 S
C591 C592 1.502 . S
C591 C593 1.561 . S
C591 C594 1.526 . S
C592 H576 0.959 . S
C592 H577 0.959 . S
C592 H578 0.961 . S
C592 C591 1.502 . S
C593 H579 0.960 1_655 S
C593 H580 0.961 . S
C593 H581 0.959 1_655 S
C593 C591 1.561 . S
C594 C591 1.526 . S
C594 C595 1.396 . S
C594 C599 1.390 . S
C595 C589 1.465 1_655 S
C595 C594 1.396 . S
C595 C596 1.399 . S
C596 H582 0.929 1_655 S
C596 C595 1.399 . S
C596 C597 1.385 . S
C597 H583 0.931 . S
C597 C596 1.385 . S
C597 C598 1.389 . S
C598 C597 1.389 . S
C598 C599 1.387 . S
C599 H584 0.930 . S
C599 C594 1.390 . S
C599 C598 1.387 . S
H600 C612 0.930 . S
H601 C614 0.930 . S
H602 C615 0.930 . S
H603 C619 0.959 . S
H604 C619 0.959 . S
H605 C619 0.961 . S
H606 C620 0.960 . S
H607 C620 0.961 1_565 S
H608 C620 0.959 . S
H609 C623 0.929 . S
H610 C624 0.931 . S
H611 C626 0.930 . S
C612 H600 0.930 . S
C612 C613 1.399 . S
C612 C617 1.399 . S
C613 C612 1.399 . S
C613 C614 1.376 . S
C614 H601 0.930 . S
C614 C613 1.376 . S
C614 C615 1.388 . S
C615 H602 0.930 . S
C615 C614 1.388 . S
C615 C616 1.390 . S
C616 C615 1.390 . S
C616 C617 1.394 . S
C616 C622 1.465 1_545 S
C617 C612 1.399 . S
C617 C616 1.394 . S
C617 C618 1.516 1_545 S
C618 C617 1.516 1_565 S
C618 C619 1.502 . S
C618 C620 1.561 1_565 S
C618 C621 1.526 . S
C619 H603 0.959 . S
C619 H604 0.959 . S
C619 H605 0.961 . S
C619 C618 1.502 . S
C620 H606 0.960 . S
C620 H607 0.961 1_545 S
C620 H608 0.959 . S
C620 C618 1.561 1_545 S
C621 C618 1.526 . S
C621 C622 1.396 . S
C621 C626 1.390 . S
C622 C616 1.465 1_565 S
C622 C621 1.396 . S
C622 C623 1.399 . S
C623 H609 0.929 . S
C623 C622 1.399 . S
C623 C624 1.385 . S
C624 H610 0.931 . S
C624 C623 1.385 . S
C624 C625 1.389 . S
C625 C624 1.389 . S
C625 C626 1.387 . S
C626 H611 0.930 . S
C626 C621 1.390 . S
C626 C625 1.387 . S
H627 C639 0.930 . S
H628 C641 0.930 . S
H629 C642 0.930 . S
H630 C646 0.959 . S
H631 C646 0.959 . S
H632 C646 0.961 . S
H633 C647 0.960 . S
H634 C647 0.961 . S
H635 C647 0.959 . S
H636 C650 0.929 . S
H637 C651 0.931 . S
H638 C653 0.930 . S
C639 H627 0.930 . S
C639 C640 1.392 1_554 S
C639 C644 1.399 . S
C640 C639 1.392 1_556 S
C640 C641 1.385 . S
C641 H628 0.930 . S
C641 C640 1.385 . S
C641 C642 1.388 . S
C642 H629 0.930 . S
C642 C641 1.388 . S
C642 C643 1.390 . S
C643 C642 1.390 . S
C643 C644 1.394 1_556 S
C643 C649 1.465 . S
C644 C639 1.399 . S
C644 C643 1.394 1_554 S
C644 C645 1.516 . S
C645 C644 1.516 . S
C645 C646 1.502 . S
C645 C647 1.561 . S
C645 C648 1.526 . S
C646 H630 0.959 . S
C646 H631 0.959 . S
C646 H632 0.961 . S
C646 C645 1.502 . S
C647 H633 0.960 . S
C647 H634 0.961 . S
C647 H635 0.959 . S
C647 C645 1.561 . S
C648 C645 1.526 . S
C648 C649 1.396 1_554 S
C648 C653 1.390 . S
C649 C643 1.465 . S
C649 C648 1.396 1_556 S
C649 C650 1.399 . S
C650 H636 0.929 . S
C650 C649 1.399 . S
C650 C651 1.385 . S
C651 H637 0.931 . S
C651 C650 1.385 . S
C651 C652 1.420 . S
C652 C651 1.420 . S
C652 C653 1.362 1_556 S
C653 H638 0.930 . S
C653 C648 1.390 . S
C653 C652 1.362 1_554 S
H654 C666 0.930 . S
H655 C668 0.930 . S
H656 C669 0.930 . S
H657 C673 0.959 . S
H658 C673 0.959 . S
H659 C673 0.961 . S
H660 C674 0.960 . S
H661 C674 0.961 . S
H662 C674 0.959 . S
H663 C677 0.929 . S
H664 C678 0.931 . S
H665 C680 0.930 . S
C666 H654 0.930 . S
C666 C667 1.399 . S
C666 C671 1.399 . S
C667 C666 1.399 . S
C667 C668 1.376 . S
C668 H655 0.930 . S
C668 C667 1.376 . S
C668 C669 1.388 . S
C669 H656 0.930 . S
C669 C668 1.388 . S
C669 C670 1.390 . S
C670 C669 1.390 . S
C670 C671 1.394 . S
C670 C676 1.465 . S
C671 C666 1.399 . S
C671 C670 1.394 . S
C671 C672 1.516 . S
C672 C671 1.516 . S
C672 C673 1.502 . S
C672 C674 1.561 . S
C672 C675 1.526 . S
C673 H657 0.959 . S
C673 H658 0.959 . S
C673 H659 0.961 . S
C673 C672 1.502 . S
C674 H660 0.960 . S
C674 H661 0.961 . S
C674 H662 0.959 . S
C674 C672 1.561 . S
C675 C672 1.526 . S
C675 C676 1.396 . S
C675 C680 1.390 . S
C676 C670 1.465 . S
C676 C675 1.396 . S
C676 C677 1.399 . S
C677 H663 0.929 . S
C677 C676 1.399 . S
C677 C678 1.385 . S
C678 H664 0.931 . S
C678 C677 1.385 . S
C678 C679 1.389 . S
C679 C678 1.389 . S
C679 C680 1.387 . S
C680 H665 0.930 . S
C680 C675 1.390 . S
C680 C679 1.387 . S
H681 C693 0.930 . S
H682 C695 0.930 . S
H683 C696 0.930 . S
H684 C700 0.959 . S
H685 C700 0.959 . S
H686 C700 0.961 . S
H687 C701 0.960 . S
H688 C701 0.961 . S
H689 C701 0.959 . S
H690 C704 0.929 . S
H691 C705 0.931 . S
H692 C707 0.930 . S
C693 H681 0.930 . S
C693 C694 1.399 . S
C693 C698 1.399 . S
C694 C693 1.399 . S
C694 C695 1.376 . S
C695 H682 0.930 . S
C695 C694 1.376 . S
C695 C696 1.388 . S
C696 H683 0.930 . S
C696 C695 1.388 . S
C696 C697 1.390 . S
C697 C696 1.390 . S
C697 C698 1.394 . S
C697 C703 1.465 . S
C698 C693 1.399 . S
C698 C697 1.394 . S
C698 C699 1.516 . S
C699 C698 1.516 . S
C699 C700 1.502 . S
C699 C701 1.561 . S
C699 C702 1.526 . S
C700 H684 0.959 . S
C700 H685 0.959 . S
C700 H686 0.961 . S
C700 C699 1.502 . S
C701 H687 0.960 . S
C701 H688 0.961 . S
C701 H689 0.959 . S
C701 C699 1.561 . S
C702 C699 1.526 . S
C702 C703 1.396 . S
C702 C707 1.390 . S
C703 C697 1.465 . S
C703 C702 1.396 . S
C703 C704 1.399 . S
C704 H690 0.929 . S
C704 C703 1.399 . S
C704 C705 1.385 . S
C705 H691 0.931 . S
C705 C704 1.385 . S
C705 C706 1.389 . S
C706 C705 1.389 . S
C706 C707 1.387 . S
C707 H692 0.930 . S
C707 C702 1.390 . S
C707 C706 1.387 . S
H708 C720 0.930 . S
H709 C722 0.930 . S
H710 C723 0.930 . S
H711 C727 0.959 . S
H712 C727 0.959 . S
H713 C727 0.961 . S
H714 C728 0.960 . S
H715 C728 0.961 . S
H716 C728 0.959 . S
H717 C731 0.929 . S
H718 C732 0.931 . S
H719 C734 0.930 . S
C720 H708 0.930 . S
C720 C721 1.399 . S
C720 C725 1.399 . S
C721 C720 1.399 . S
C721 C722 1.376 . S
C722 H709 0.930 . S
C722 C721 1.376 . S
C722 C723 1.388 . S
C723 H710 0.930 . S
C723 C722 1.388 . S
C723 C724 1.390 . S
C724 C723 1.390 . S
C724 C725 1.394 . S
C724 C730 1.465 . S
C725 C720 1.399 . S
C725 C724 1.394 . S
C725 C726 1.516 . S
C726 C725 1.516 . S
C726 C727 1.502 . S
C726 C728 1.561 . S
C726 C729 1.526 . S
C727 H711 0.959 . S
C727 H712 0.959 . S
C727 H713 0.961 . S
C727 C726 1.502 . S
C728 H714 0.960 . S
C728 H715 0.961 . S
C728 H716 0.959 . S
C728 C726 1.561 . S
C729 C726 1.526 . S
C729 C730 1.396 . S
C729 C734 1.390 . S
C730 C724 1.465 . S
C730 C729 1.396 . S
C730 C731 1.399 . S
C731 H717 0.929 . S
C731 C730 1.399 . S
C731 C732 1.385 . S
C732 H718 0.931 . S
C732 C731 1.385 . S
C732 C733 1.389 . S
C733 C732 1.389 . S
C733 C734 1.387 . S
C734 H719 0.930 . S
C734 C729 1.390 . S
C734 C733 1.387 . S
H735 C747 0.930 . S
H736 C749 0.930 . S
H737 C750 0.930 . S
H738 C754 0.959 . S
H739 C754 0.959 . S
H740 C754 0.961 . S
H741 C755 0.960 . S
H742 C755 0.961 . S
H743 C755 0.959 . S
H744 C758 0.929 . S
H745 C759 0.931 . S
H746 C761 0.930 . S
C747 H735 0.930 . S
C747 C748 1.399 . S
C747 C752 1.399 . S
C748 C747 1.399 . S
C748 C749 1.376 . S
C749 H736 0.930 . S
C749 C748 1.376 . S
C749 C750 1.388 . S
C750 H737 0.930 . S
C750 C749 1.388 . S
C750 C751 1.390 . S
C751 C750 1.390 . S
C751 C752 1.394 . S
C751 C757 1.465 . S
C752 C747 1.399 . S
C752 C751 1.394 . S
C752 C753 1.516 . S
C753 C752 1.516 . S
C753 C754 1.502 . S
C753 C755 1.561 . S
C753 C756 1.526 . S
C754 H738 0.959 . S
C754 H739 0.959 . S
C754 H740 0.961 . S
C754 C753 1.502 . S
C755 H741 0.960 . S
C755 H742 0.961 . S
C755 H743 0.959 . S
C755 C753 1.561 . S
C756 C753 1.526 . S
C756 C757 1.396 . S
C756 C761 1.390 . S
C757 C751 1.465 . S
C757 C756 1.396 . S
C757 C758 1.399 . S
C758 H744 0.929 . S
C758 C757 1.399 . S
C758 C759 1.385 . S
C759 H745 0.931 . S
C759 C758 1.385 . S
C759 C760 1.389 . S
C760 C759 1.389 . S
C760 C761 1.387 . S
C761 H746 0.930 . S
C761 C756 1.390 . S
C761 C760 1.387 . S
H762 C774 0.930 . S
H763 C776 0.930 . S
H764 C777 0.930 . S
H765 C781 0.959 . S
H766 C781 0.959 . S
H767 C781 0.961 . S
H768 C782 0.960 . S
H769 C782 0.961 . S
H770 C782 0.959 . S
H771 C785 0.929 . S
H772 C786 0.931 . S
H773 C788 0.930 . S
C774 H762 0.930 . S
C774 C775 1.399 . S
C774 C779 1.399 . S
C775 C774 1.399 . S
C775 C776 1.376 . S
C776 H763 0.930 . S
C776 C775 1.376 . S
C776 C777 1.388 . S
C777 H764 0.930 . S
C777 C776 1.388 . S
C777 C778 1.390 . S
C778 C777 1.390 . S
C778 C779 1.394 . S
C778 C784 1.465 . S
C779 C774 1.399 . S
C779 C778 1.394 . S
C779 C780 1.516 . S
C780 C779 1.516 . S
C780 C781 1.502 . S
C780 C782 1.561 . S
C780 C783 1.526 . S
C781 H765 0.959 . S
C781 H766 0.959 . S
C781 H767 0.961 . S
C781 C780 1.502 . S
C782 H768 0.960 . S
C782 H769 0.961 . S
C782 H770 0.959 . S
C782 C780 1.561 . S
C783 C780 1.526 . S
C783 C784 1.396 . S
C783 C788 1.390 . S
C784 C778 1.465 . S
C784 C783 1.396 . S
C784 C785 1.399 . S
C785 H771 0.929 . S
C785 C784 1.399 . S
C785 C786 1.385 . S
C786 H772 0.931 . S
C786 C785 1.385 . S
C786 C787 1.389 . S
C787 C786 1.389 . S
C787 C788 1.387 . S
C788 H773 0.930 . S
C788 C783 1.390 . S
C788 C787 1.387 . S
H789 C801 0.930 . S
H790 C803 0.930 . S
H791 C804 0.930 . S
H792 C808 0.959 . S
H793 C808 0.959 . S
H794 C808 0.961 . S
H795 C809 0.960 . S
H796 C809 0.961 . S
H797 C809 0.959 . S
H798 C812 0.929 . S
H799 C813 0.931 . S
H800 C815 0.930 . S
C801 H789 0.930 . S
C801 C802 1.399 . S
C801 C806 1.399 . S
C802 C801 1.399 . S
C802 C803 1.376 . S
C803 H790 0.930 . S
C803 C802 1.376 . S
C803 C804 1.388 . S
C804 H791 0.930 . S
C804 C803 1.388 . S
C804 C805 1.390 . S
C805 C804 1.390 . S
C805 C806 1.394 . S
C805 C811 1.465 . S
C806 C801 1.399 . S
C806 C805 1.394 . S
C806 C807 1.516 . S
C807 C806 1.516 . S
C807 C808 1.502 . S
C807 C809 1.561 . S
C807 C810 1.526 . S
C808 H792 0.959 . S
C808 H793 0.959 . S
C808 H794 0.961 . S
C808 C807 1.502 . S
C809 H795 0.960 . S
C809 H796 0.961 . S
C809 H797 0.959 . S
C809 C807 1.561 . S
C810 C807 1.526 . S
C810 C811 1.396 . S
C810 C815 1.390 . S
C811 C805 1.465 . S
C811 C810 1.396 . S
C811 C812 1.399 . S
C812 H798 0.929 . S
C812 C811 1.399 . S
C812 C813 1.385 . S
C813 H799 0.931 . S
C813 C812 1.385 . S
C813 C814 1.389 . S
C814 C813 1.389 . S
C814 C815 1.387 . S
C815 H800 0.930 . S
C815 C810 1.390 . S
C815 C814 1.387 . S
C181 C12 1.457 . S
C193 C141 1.470 . S
C208 C26 1.505 . S
C220 C154 1.524 . S
C235 C96 1.513 . S
C247 C28 1.500 . S
C262 C42 1.497 . S
C274 C110 1.484 . S
C289 C112 1.487 . S
C301 C57 1.488 . S
C316 C126 1.485 . S
C328 C70 1.498 . S
C343 C84 1.134 . S
C355 C0 1.127 . S
C370 C98 1.068 . S
C382 C14 1.076 . S
C397 C124 1.074 . S
C409 C40 1.066 1_556 S
C424 C54 1.054 . S
C436 C138 1.056 . S
C451 C69 1.125 . S
C463 C153 1.118 . S
C478 C82 1.110 1_556 S
C490 C166 1.117 . S
C505 C1 2.300 . S
C517 C55 2.262 . S
C532 C15 2.254 . S
C544 C68 2.298 . S
C559 C41 2.254 1_554 S
C571 C83 2.293 1_554 S
C586 C139 2.251 . S
C598 C85 2.306 . S
C613 C152 2.255 . S
C625 C99 2.294 . S
C640 C167 2.254 1_556 S
C652 C125 2.292 1_556 S
C667 C13 1.904 . S
C679 C113 1.917 . S
C694 C127 1.932 . S
C706 C27 1.939 . S
C721 C29 1.926 . S
C733 C140 1.926 . S
C748 C155 1.924 . S
C760 C43 1.928 . S
C775 C56 1.930 . S
C787 C97 1.947 . S
C802 C71 1.927 . S
C814 C111 1.926 . S
