# Generated by pormake.
# Topology dia, (4)-cn, num edge types: 1
# Building blocks:
#     Node 0, Type 0, BuildingBlock: UXUYUI_clean_sbu_0, # of connection points: 4
#     Node 1, Type 0, BuildingBlock: UXUYUI_clean_sbu_0, # of connection points: 4
#     Node 2, Type 0, BuildingBlock: UXUYUI_clean_sbu_0, # of connection points: 4
#     Node 3, Type 0, BuildingBlock: UXUYUI_clean_sbu_0, # of connection points: 4
#     Node 4, Type 0, BuildingBlock: UXUYUI_clean_sbu_0, # of connection points: 4
#     Node 5, Type 0, BuildingBlock: UXUYUI_clean_sbu_0, # of connection points: 4
#     Node 6, Type 0, BuildingBlock: UXUYUI_clean_sbu_0, # of connection points: 4
#     Node 7, Type 0, BuildingBlock: UXUYUI_clean_sbu_0, # of connection points: 4
#     Edge 8, Type (0, 0), BuildingBlock: KIFKEQ_clean_linker_1, # of connection points: 2
#     Edge 9, Type (0, 0), BuildingBlock: KIFKEQ_clean_linker_1, # of connection points: 2
#     Edge 10, Type (0, 0), BuildingBlock: KIFKEQ_clean_linker_1, # of connection points: 2
#     Edge 11, Type (0, 0), BuildingBlock: KIFKEQ_clean_linker_1, # of connection points: 2
#     Edge 12, Type (0, 0), BuildingBlock: KIFKEQ_clean_linker_1, # of connection points: 2
#     Edge 13, Type (0, 0), BuildingBlock: KIFKEQ_clean_linker_1, # of connection points: 2
#     Edge 14, Type (0, 0), BuildingBlock: KIFKEQ_clean_linker_1, # of connection points: 2
#     Edge 15, Type (0, 0), BuildingBlock: KIFKEQ_clean_linker_1, # of connection points: 2
#     Edge 16, Type (0, 0), BuildingBlock: KIFKEQ_clean_linker_1, # of connection points: 2
#     Edge 17, Type (0, 0), BuildingBlock: KIFKEQ_clean_linker_1, # of connection points: 2
#     Edge 18, Type (0, 0), BuildingBlock: KIFKEQ_clean_linker_1, # of connection points: 2
#     Edge 19, Type (0, 0), BuildingBlock: KIFKEQ_clean_linker_1, # of connection points: 2
#     Edge 20, Type (0, 0), BuildingBlock: KIFKEQ_clean_linker_1, # of connection points: 2
#     Edge 21, Type (0, 0), BuildingBlock: KIFKEQ_clean_linker_1, # of connection points: 2
#     Edge 22, Type (0, 0), BuildingBlock: KIFKEQ_clean_linker_1, # of connection points: 2
#     Edge 23, Type (0, 0), BuildingBlock: KIFKEQ_clean_linker_1, # of connection points: 2
# Relax obj value: 0.000
# Max RMSD: 0.003
# Mean RMSD: 0.003
data_MOF--net-dia--node1-UXUYUI_clean_sbu_0--edge1-KIFKEQ_clean_linker_1
_symmetry_space_group_name_H-M    P1
_symmetry_Int_Tables_number       1
_symmetry_cell_setting            triclinic
loop_
_symmetry_equiv_pos_as_xyz
'x, y, z'
_cell_length_a     52.132956
_cell_length_b     52.09626
_cell_length_c     52.055388
_cell_angle_alpha  90.009921
_cell_angle_beta   89.999006
_cell_angle_gamma 89.994649
loop_
_atom_site_label
_atom_site_type_symbol
_atom_site_fract_x
_atom_site_fract_y
_atom_site_fract_z
_atom_type_partial_charge
Li0 Li 0.12017 0.15081 0.65152 0.0
Li1 Li 0.15272 0.11614 0.65188 0.0
Li2 Li 0.15275 0.15061 0.61739 0.0
Li3 Li 0.1201 0.11605 0.61723 0.0
C4 C 0.16494 0.17252 0.67197 0.0
N5 N 0.17844 0.21052 0.70641 0.0
C6 C 0.17457 0.16599 0.69616 0.0
C7 C 0.16247 0.19834 0.66516 0.0
C8 C 0.1812 0.1855 0.71334 0.0
C9 C 0.16931 0.21728 0.68289 0.0
C10 C 0.10553 0.09371 0.66971 0.0
C11 C 0.09715 0.04868 0.67627 0.0
N12 N 0.08687 0.05414 0.69965 0.0
C13 C 0.09467 0.09893 0.69369 0.0
C14 C 0.10661 0.06843 0.6608 0.0
C15 C 0.08542 0.07864 0.70859 0.0
C16 C 0.07713 0.18185 0.66237 0.0
N17 N 0.09891 0.17183 0.67266 0.0
C18 C 0.09021 0.1921 0.71295 0.0
C19 C 0.1054 0.17625 0.69758 0.0
C20 C 0.06776 0.20291 0.70275 0.0
C21 C 0.06111 0.19744 0.6772 0.0
H22 H 0.07219 0.1777 0.64263 0.0
H23 H 0.12227 0.16733 0.70562 0.0
C24 C 0.19762 0.08872 0.66452 0.0
N25 N 0.1739 0.09521 0.6732 0.0
C26 C 0.21378 0.07339 0.67947 0.0
C27 C 0.18085 0.07181 0.71208 0.0
C28 C 0.16549 0.08742 0.69665 0.0
C29 C 0.20542 0.06453 0.7036 0.0
H30 H 0.20403 0.09558 0.64599 0.0
H31 H 0.14689 0.09336 0.70348 0.0
C32 C 0.10818 0.17228 0.59666 0.0
N33 N 0.09505 0.20995 0.56173 0.0
C34 C 0.09897 0.16551 0.57237 0.0
C35 C 0.11041 0.19816 0.60332 0.0
C36 C 0.09252 0.18486 0.55494 0.0
C37 C 0.10376 0.21693 0.58536 0.0
C38 C 0.16718 0.09306 0.59991 0.0
C39 C 0.17852 0.09767 0.57602 0.0
C40 C 0.16547 0.06797 0.6092 0.0
C41 C 0.18764 0.07696 0.56162 0.0
C42 C 0.17483 0.04778 0.59423 0.0
N43 N 0.1856 0.05265 0.57093 0.0
C44 C 0.19548 0.18206 0.60624 0.0
C45 C 0.16785 0.17479 0.57089 0.0
C46 C 0.21147 0.19739 0.59113 0.0
N47 N 0.17402 0.17134 0.59601 0.0
C48 C 0.18304 0.1903 0.55518 0.0
C49 C 0.20527 0.2019 0.5652 0.0
H50 H 0.20029 0.17854 0.62614 0.0
H51 H 0.15115 0.16545 0.56297 0.0
C52 C 0.07501 0.08895 0.60463 0.0
N53 N 0.09888 0.09502 0.59605 0.0
C54 C 0.05883 0.07351 0.58979 0.0
C55 C 0.09209 0.07094 0.55755 0.0
C56 C 0.10745 0.08672 0.57282 0.0
C57 C 0.06745 0.06414 0.56602 0.0
H58 H 0.06855 0.09608 0.62305 0.0
H59 H 0.12611 0.09247 0.56598 0.0
O60 O 0.15832 0.15367 0.65496 0.0
O61 O 0.11468 0.11336 0.65493 0.0
O62 O 0.11461 0.15359 0.61392 0.0
O63 O 0.15812 0.11313 0.61419 0.0
H64 H 0.17672 0.14607 0.70165 0.0
H65 H 0.15544 0.20369 0.64638 0.0
H66 H 0.18855 0.18074 0.73219 0.0
H67 H 0.16742 0.23735 0.67791 0.0
H68 H 0.09791 0.02901 0.66964 0.0
H69 H 0.09356 0.11843 0.70078 0.0
H70 H 0.1145 0.06413 0.64209 0.0
H71 H 0.0771 0.08236 0.72726 0.0
H72 H 0.0957 0.19554 0.73272 0.0
H73 H 0.0439 0.20543 0.6687 0.0
H74 H 0.23272 0.06884 0.67228 0.0
H75 H 0.17336 0.06533 0.73036 0.0
H76 H 0.097 0.14554 0.56699 0.0
H77 H 0.11709 0.20368 0.62219 0.0
H78 H 0.08551 0.17993 0.53602 0.0
H79 H 0.10546 0.23704 0.59022 0.0
H80 H 0.18011 0.11703 0.56864 0.0
H81 H 0.15719 0.06413 0.62784 0.0
H82 H 0.19634 0.08022 0.54303 0.0
H83 H 0.1736 0.02824 0.60115 0.0
H84 H 0.22868 0.2053 0.59965 0.0
H85 H 0.1772 0.1933 0.53545 0.0
H86 H 0.03995 0.06866 0.59698 0.0
H87 H 0.09923 0.06446 0.53911 0.0
Li88 Li 0.86986 0.40043 0.86679 0.0
Li89 Li 0.90252 0.40039 0.90124 0.0
Li90 Li 0.90253 0.36587 0.86673 0.0
Li91 Li 0.87018 0.36619 0.9015 0.0
C92 C 0.91616 0.41843 0.84376 0.0
N93 N 0.93309 0.4486 0.80356 0.0
C94 C 0.92642 0.44275 0.84858 0.0
C95 C 0.91485 0.4093 0.81856 0.0
C96 C 0.93477 0.45776 0.82798 0.0
C97 C 0.92342 0.42489 0.79848 0.0
C98 C 0.85847 0.42112 0.92314 0.0
C99 C 0.85576 0.43288 0.96785 0.0
N100 N 0.84656 0.45633 0.96097 0.0
C101 C 0.84877 0.44524 0.9165 0.0
C102 C 0.86181 0.41478 0.949 0.0
C103 C 0.84294 0.46281 0.93592 0.0
C104 C 0.82574 0.41238 0.83758 0.0
N105 N 0.84871 0.42167 0.84575 0.0
C106 C 0.84139 0.46131 0.82378 0.0
C107 C 0.85653 0.44578 0.83953 0.0
C108 C 0.81773 0.45211 0.81478 0.0
C109 C 0.80984 0.42737 0.82202 0.0
H110 H 0.81977 0.3933 0.84315 0.0
H111 H 0.87439 0.45311 0.847 0.0
C112 C 0.94519 0.41158 0.93277 0.0
N113 N 0.92378 0.42181 0.92196 0.0
C114 C 0.9612 0.42671 0.94807 0.0
C115 C 0.93279 0.46263 0.9409 0.0
C116 C 0.91764 0.44693 0.92535 0.0
C117 C 0.95502 0.45264 0.95255 0.0
H118 H 0.94995 0.39167 0.92933 0.0
H119 H 0.90098 0.45485 0.91594 0.0
C120 C 0.85572 0.34774 0.84434 0.0
N121 N 0.83795 0.31733 0.80468 0.0
C122 C 0.84471 0.32385 0.8496 0.0
C123 C 0.85741 0.35631 0.81896 0.0
C124 C 0.83592 0.30871 0.82926 0.0
C125 C 0.84839 0.34062 0.79917 0.0
C126 C 0.91436 0.34506 0.92262 0.0
C127 C 0.92302 0.32074 0.91533 0.0
C128 C 0.91224 0.35119 0.94866 0.0
C129 C 0.929 0.30274 0.93431 0.0
C130 C 0.91839 0.33267 0.96705 0.0
N131 N 0.92655 0.30902 0.95956 0.0
C132 C 0.94749 0.35357 0.83931 0.0
C133 C 0.91544 0.32137 0.83751 0.0
C134 C 0.96374 0.33886 0.82383 0.0
N135 N 0.92377 0.34474 0.84563 0.0
C136 C 0.93085 0.30623 0.82167 0.0
C137 C 0.95532 0.31496 0.81463 0.0
H138 H 0.95378 0.37209 0.84629 0.0
H139 H 0.89693 0.31432 0.84348 0.0
C140 C 0.82833 0.3555 0.93433 0.0
N141 N 0.84913 0.34493 0.92264 0.0
C142 C 0.81255 0.34052 0.95 0.0
C143 C 0.83982 0.30403 0.94128 0.0
C144 C 0.85483 0.31961 0.92546 0.0
C145 C 0.81838 0.31448 0.95379 0.0
H146 H 0.82394 0.37557 0.93141 0.0
H147 H 0.87088 0.31142 0.91525 0.0
O148 O 0.90788 0.40353 0.86372 0.0
O149 O 0.86437 0.40374 0.90437 0.0
O150 O 0.86449 0.36273 0.86403 0.0
O151 O 0.90838 0.36288 0.9043 0.0
H152 H 0.92773 0.45001 0.86802 0.0
H153 H 0.90749 0.39033 0.81455 0.0
H154 H 0.9426 0.47668 0.8314 0.0
H155 H 0.92246 0.4181 0.77886 0.0
H156 H 0.85834 0.42827 0.98795 0.0
H157 H 0.84594 0.45037 0.89656 0.0
H158 H 0.86894 0.39607 0.95444 0.0
H159 H 0.83556 0.4816 0.93107 0.0
H160 H 0.84793 0.48047 0.81904 0.0
H161 H 0.79173 0.41958 0.81545 0.0
H162 H 0.9784 0.41818 0.95598 0.0
H163 H 0.92691 0.48233 0.94388 0.0
H164 H 0.84313 0.31701 0.86916 0.0
H165 H 0.86541 0.37494 0.81461 0.0
H166 H 0.8275 0.29012 0.83303 0.0
H167 H 0.84962 0.34698 0.77943 0.0
H168 H 0.92492 0.31576 0.89524 0.0
H169 H 0.90598 0.37007 0.9546 0.0
H170 H 0.93558 0.28379 0.92896 0.0
H171 H 0.91674 0.33711 0.98729 0.0
H172 H 0.9825 0.34622 0.81879 0.0
H173 H 0.9239 0.28769 0.81532 0.0
H174 H 0.79615 0.34926 0.95932 0.0
H175 H 0.84465 0.28391 0.94335 0.0
Li176 Li 0.62014 0.15097 0.15126 0.0
Li177 Li 0.65309 0.11617 0.15128 0.0
Li178 Li 0.65308 0.1509 0.11694 0.0
Li179 Li 0.62004 0.11612 0.11711 0.0
C180 C 0.66882 0.17368 0.16788 0.0
N181 N 0.69042 0.21391 0.19481 0.0
C182 C 0.68107 0.16915 0.19132 0.0
C183 C 0.66775 0.19858 0.15799 0.0
C184 C 0.69181 0.18977 0.20469 0.0
C185 C 0.67874 0.21868 0.17193 0.0
C186 C 0.605 0.09349 0.16853 0.0
C187 C 0.59611 0.04835 0.17345 0.0
N188 N 0.58462 0.05326 0.19639 0.0
C189 C 0.59294 0.09814 0.19205 0.0
C190 C 0.60648 0.06844 0.15904 0.0
C191 C 0.58282 0.07752 0.20589 0.0
C192 C 0.57414 0.17579 0.16499 0.0
N193 N 0.59885 0.17192 0.17241 0.0
C194 C 0.59269 0.19817 0.20957 0.0
C195 C 0.6082 0.18244 0.1944 0.0
C196 C 0.56717 0.20271 0.20229 0.0
C197 C 0.55783 0.19114 0.17978 0.0
H198 H 0.56714 0.16699 0.14752 0.0
H199 H 0.62765 0.17857 0.2003 0.0
C200 C 0.69879 0.09045 0.16447 0.0
N201 N 0.67443 0.09531 0.17245 0.0
C202 C 0.71506 0.0751 0.17929 0.0
C203 C 0.6809 0.07011 0.21028 0.0
C204 C 0.66543 0.08582 0.19505 0.0
C205 C 0.70605 0.06456 0.20242 0.0
H206 H 0.70554 0.09847 0.14653 0.0
H207 H 0.6463 0.09051 0.20139 0.0
C208 C 0.60423 0.17358 0.10042 0.0
N209 N 0.58229 0.21376 0.07369 0.0
C210 C 0.59153 0.16898 0.07723 0.0
C211 C 0.60559 0.19854 0.11015 0.0
C212 C 0.58062 0.18958 0.06396 0.0
C213 C 0.59442 0.21861 0.09632 0.0
C214 C 0.6682 0.09357 0.09967 0.0
C215 C 0.67995 0.0985 0.07605 0.0
C216 C 0.66715 0.06846 0.10904 0.0
C217 C 0.69017 0.07808 0.06198 0.0
C218 C 0.67761 0.04857 0.0944 0.0
N219 N 0.68878 0.05375 0.07136 0.0
C220 C 0.69925 0.1751 0.10269 0.0
C221 C 0.66489 0.1824 0.07385 0.0
C222 C 0.71559 0.19019 0.08768 0.0
N223 N 0.67439 0.17165 0.09564 0.0
C224 C 0.68043 0.19786 0.05845 0.0
C225 C 0.70623 0.20196 0.06522 0.0
H226 H 0.70639 0.16605 0.11997 0.0
H227 H 0.64525 0.17901 0.06831 0.0
C228 C 0.57444 0.09013 0.104 0.0
N229 N 0.59872 0.09523 0.09595 0.0
C230 C 0.55823 0.07474 0.08915 0.0
C231 C 0.59229 0.07024 0.05797 0.0
C232 C 0.6077 0.08597 0.07324 0.0
C233 C 0.56722 0.06441 0.0659 0.0
H234 H 0.56769 0.09798 0.12201 0.0
H235 H 0.62676 0.09086 0.06685 0.0
O236 O 0.6582 0.15368 0.15462 0.0
O237 O 0.61501 0.11347 0.15481 0.0
O238 O 0.61504 0.15361 0.11356 0.0
O239 O 0.65811 0.11336 0.11362 0.0
H240 H 0.68214 0.14992 0.19914 0.0
H241 H 0.65871 0.20234 0.13969 0.0
H242 H 0.70125 0.1866 0.22292 0.0
H243 H 0.67804 0.23808 0.16454 0.0
H244 H 0.59714 0.02886 0.16636 0.0
H245 H 0.59155 0.11748 0.19956 0.0
H246 H 0.61536 0.06458 0.14068 0.0
H247 H 0.57354 0.08081 0.22418 0.0
H248 H 0.60046 0.20638 0.22703 0.0
H249 H 0.53828 0.19425 0.17348 0.0
H250 H 0.73433 0.07121 0.17256 0.0
H251 H 0.67341 0.06271 0.22822 0.0
H252 H 0.59025 0.14972 0.06953 0.0
H253 H 0.61501 0.20236 0.12825 0.0
H254 H 0.57083 0.18634 0.04593 0.0
H255 H 0.59534 0.23804 0.1036 0.0
H256 H 0.68102 0.11788 0.06863 0.0
H257 H 0.65852 0.0644 0.12748 0.0
H258 H 0.69921 0.08157 0.04361 0.0
H259 H 0.6769 0.02903 0.10139 0.0
H260 H 0.73542 0.19231 0.0935 0.0
H261 H 0.67214 0.20672 0.04157 0.0
H262 H 0.53902 0.07064 0.09594 0.0
H263 H 0.59977 0.06301 0.03995 0.0
Li264 Li 0.90281 0.90102 0.4016 0.0
Li265 Li 0.8703 0.90106 0.36698 0.0
Li266 Li 0.87028 0.86667 0.40159 0.0
Li267 Li 0.90276 0.86657 0.36699 0.0
C268 C 0.85764 0.92084 0.42364 0.0
N269 N 0.84329 0.95436 0.46216 0.0
C270 C 0.84773 0.94499 0.41746 0.0
C271 C 0.85994 0.9136 0.44938 0.0
C272 C 0.84066 0.96171 0.43722 0.0
C273 C 0.85267 0.93086 0.46859 0.0
C274 C 0.91569 0.92061 0.34493 0.0
C275 C 0.92145 0.93025 0.3 0.0
N276 N 0.93058 0.95386 0.30638 0.0
C277 C 0.92537 0.94486 0.35108 0.0
C278 C 0.91391 0.91312 0.31922 0.0
C279 C 0.9327 0.96144 0.3313 0.0
C280 C 0.94627 0.91223 0.43193 0.0
N281 N 0.92404 0.92222 0.42261 0.0
C282 C 0.93231 0.96223 0.44356 0.0
C283 C 0.91709 0.94686 0.42772 0.0
C284 C 0.95521 0.95234 0.45367 0.0
C285 C 0.9623 0.92707 0.44751 0.0
H286 H 0.95157 0.89272 0.42724 0.0
H287 H 0.89986 0.95471 0.41935 0.0
C288 C 0.82709 0.9125 0.33626 0.0
N289 N 0.8492 0.92238 0.34594 0.0
C290 C 0.81121 0.9275 0.32069 0.0
C291 C 0.84104 0.96265 0.32549 0.0
C292 C 0.85615 0.94707 0.34121 0.0
C293 C 0.81817 0.95296 0.31492 0.0
H294 H 0.8217 0.89297 0.34077 0.0
H295 H 0.87337 0.95477 0.34974 0.0
C296 C 0.91522 0.84688 0.42375 0.0
N297 N 0.92917 0.81345 0.46248 0.0
C298 C 0.92456 0.82246 0.41773 0.0
C299 C 0.91332 0.85444 0.44943 0.0
C300 C 0.93142 0.8058 0.4376 0.0
C301 C 0.92038 0.83723 0.46875 0.0
C302 C 0.85749 0.84728 0.34463 0.0
C303 C 0.8475 0.82305 0.35037 0.0
C304 C 0.85972 0.85503 0.31904 0.0
C305 C 0.84032 0.80676 0.3303 0.0
C306 C 0.85231 0.83818 0.29952 0.0
N307 N 0.84288 0.81459 0.3055 0.0
C308 C 0.82748 0.85548 0.43301 0.0
C309 C 0.85575 0.82043 0.42665 0.0
C310 C 0.81166 0.84045 0.44861 0.0
N311 N 0.84918 0.84537 0.42262 0.0
C312 C 0.8407 0.80482 0.4424 0.0
C313 C 0.81835 0.81482 0.45363 0.0
H314 H 0.82243 0.87523 0.42913 0.0
H315 H 0.87255 0.81255 0.41745 0.0
C316 C 0.94611 0.85513 0.33654 0.0
N317 N 0.9239 0.84527 0.34598 0.0
C318 C 0.96206 0.84016 0.32101 0.0
C319 C 0.93206 0.80509 0.32534 0.0
C320 C 0.9169 0.82063 0.34106 0.0
C321 C 0.95505 0.81476 0.31501 0.0
H322 H 0.95153 0.87461 0.3412 0.0
H323 H 0.89958 0.81294 0.3494 0.0
O324 O 0.8647 0.90429 0.40453 0.0
O325 O 0.9084 0.90418 0.36405 0.0
O326 O 0.90839 0.8634 0.40453 0.0
O327 O 0.86466 0.86343 0.36405 0.0
H328 H 0.84567 0.95081 0.39762 0.0
H329 H 0.86713 0.89482 0.45447 0.0
H330 H 0.8331 0.98051 0.43274 0.0
H331 H 0.85442 0.92554 0.4886 0.0
H332 H 0.9201 0.92474 0.28001 0.0
H333 H 0.92703 0.95087 0.37091 0.0
H334 H 0.90694 0.89425 0.31416 0.0
H335 H 0.94008 0.98033 0.33576 0.0
H336 H 0.92645 0.98179 0.44751 0.0
H337 H 0.97984 0.91879 0.45495 0.0
H338 H 0.79352 0.91928 0.31357 0.0
H339 H 0.84742 0.98202 0.32151 0.0
H340 H 0.92631 0.81639 0.39792 0.0
H341 H 0.90662 0.87344 0.45438 0.0
H342 H 0.93852 0.78678 0.43324 0.0
H343 H 0.91893 0.84279 0.48872 0.0
H344 H 0.8455 0.81684 0.3701 0.0
H345 H 0.86694 0.87388 0.31431 0.0
H346 H 0.83271 0.78789 0.33444 0.0
H347 H 0.854 0.8439 0.27961 0.0
H348 H 0.79457 0.84886 0.45691 0.0
H349 H 0.84623 0.785 0.44541 0.0
H350 H 0.97984 0.84835 0.31408 0.0
H351 H 0.92562 0.78578 0.32118 0.0
Li352 Li 0.12022 0.65161 0.15135 0.0
Li353 Li 0.15273 0.61697 0.15107 0.0
Li354 Li 0.15292 0.65154 0.11671 0.0
Li355 Li 0.12031 0.61699 0.11695 0.0
C356 C 0.1675 0.67452 0.16852 0.0
N357 N 0.18639 0.71501 0.19708 0.0
C358 C 0.17898 0.67001 0.19236 0.0
C359 C 0.16589 0.69957 0.15907 0.0
C360 C 0.18834 0.69076 0.20656 0.0
C361 C 0.17548 0.7198 0.17383 0.0
C362 C 0.10869 0.59571 0.17232 0.0
C363 C 0.10516 0.55129 0.18478 0.0
N364 N 0.09681 0.55872 0.2084 0.0
C365 C 0.09985 0.60293 0.19661 0.0
C366 C 0.11116 0.56971 0.16623 0.0
C367 C 0.09403 0.58392 0.21463 0.0
C368 C 0.07496 0.67831 0.16409 0.0
N369 N 0.099 0.67265 0.17251 0.0
C370 C 0.09224 0.6971 0.21079 0.0
C371 C 0.10768 0.68137 0.19555 0.0
C372 C 0.06742 0.70345 0.20249 0.0
C373 C 0.05872 0.69369 0.1789 0.0
H374 H 0.06843 0.67087 0.14582 0.0
H375 H 0.12648 0.67596 0.20226 0.0
C376 C 0.1948 0.58453 0.16194 0.0
N377 N 0.17392 0.5961 0.17242 0.0
C378 C 0.21072 0.5691 0.17705 0.0
C379 C 0.18335 0.57781 0.21346 0.0
C380 C 0.16825 0.5934 0.19775 0.0
C381 C 0.20502 0.56536 0.20321 0.0
H382 H 0.19924 0.58745 0.14187 0.0
H383 H 0.15202 0.60341 0.20584 0.0
C384 C 0.10569 0.67431 0.09917 0.0
N385 N 0.08684 0.71428 0.06988 0.0
C386 C 0.09477 0.66943 0.07514 0.0
C387 C 0.10672 0.69945 0.10846 0.0
C388 C 0.08544 0.68992 0.06057 0.0
C389 C 0.09716 0.71941 0.09332 0.0
C390 C 0.16446 0.59545 0.09593 0.0
C391 C 0.17393 0.60239 0.0718 0.0
C392 C 0.16143 0.56952 0.10208 0.0
C393 C 0.17986 0.5832 0.05401 0.0
C394 C 0.16756 0.55091 0.08377 0.0
N395 N 0.17655 0.55807 0.06031 0.0
C396 C 0.19795 0.67877 0.10413 0.0
C397 C 0.16564 0.68061 0.07216 0.0
C398 C 0.21412 0.69417 0.08926 0.0
N399 N 0.17414 0.67252 0.09549 0.0
C400 C 0.18101 0.69631 0.05682 0.0
C401 C 0.20558 0.7033 0.06536 0.0
H402 H 0.20437 0.67179 0.12261 0.0
H403 H 0.14704 0.67471 0.0653 0.0
C404 C 0.07769 0.58537 0.10598 0.0
N405 N 0.09904 0.59618 0.09563 0.0
C406 C 0.06164 0.57002 0.09093 0.0
C407 C 0.08989 0.57715 0.05485 0.0
C408 C 0.10508 0.59274 0.07047 0.0
C409 C 0.06772 0.5655 0.06496 0.0
H410 H 0.073 0.58884 0.12591 0.0
H411 H 0.12169 0.60216 0.06245 0.0
O412 O 0.15822 0.65441 0.15445 0.0
O413 O 0.11454 0.61405 0.15449 0.0
O414 O 0.11492 0.65445 0.11364 0.0
O415 O 0.15849 0.61399 0.11353 0.0
H416 H 0.1805 0.6507 0.19987 0.0
H417 H 0.15751 0.70333 0.14046 0.0
H418 H 0.19715 0.68758 0.2251 0.0
H419 H 0.17432 0.73929 0.16677 0.0
H420 H 0.10708 0.53108 0.18038 0.0
H421 H 0.09769 0.62299 0.20155 0.0
H422 H 0.11759 0.56383 0.14739 0.0
H423 H 0.08732 0.58921 0.23357 0.0
H424 H 0.09946 0.70387 0.22909 0.0
H425 H 0.0397 0.69821 0.17184 0.0
H426 H 0.22751 0.56054 0.16831 0.0
H427 H 0.17788 0.57542 0.23337 0.0
H428 H 0.09369 0.65003 0.06777 0.0
H429 H 0.11462 0.70349 0.12723 0.0
H430 H 0.07708 0.68646 0.04187 0.0
H431 H 0.09788 0.73898 0.10024 0.0
H432 H 0.17651 0.6224 0.06681 0.0
H433 H 0.15447 0.56385 0.1208 0.0
H434 H 0.18707 0.58828 0.0352 0.0
H435 H 0.16522 0.53076 0.08822 0.0
H436 H 0.23293 0.69918 0.09651 0.0
H437 H 0.17393 0.70256 0.03829 0.0
H438 H 0.04448 0.56211 0.09955 0.0
H439 H 0.0957 0.57414 0.03513 0.0
Li440 Li 0.37071 0.40095 0.36694 0.0
Li441 Li 0.40319 0.40074 0.40161 0.0
Li442 Li 0.40318 0.36652 0.36682 0.0
Li443 Li 0.37063 0.36634 0.40136 0.0
C444 C 0.4161 0.42078 0.34513 0.0
N445 N 0.43085 0.45449 0.30695 0.0
C446 C 0.4261 0.44483 0.35155 0.0
C447 C 0.41391 0.41373 0.31933 0.0
C448 C 0.43336 0.46165 0.33195 0.0
C449 C 0.42138 0.43108 0.30029 0.0
C450 C 0.35766 0.42019 0.42371 0.0
C451 C 0.35164 0.42947 0.46868 0.0
N452 N 0.34248 0.45311 0.46243 0.0
C453 C 0.34795 0.44447 0.4177 0.0
C454 C 0.35932 0.41251 0.44936 0.0
C455 C 0.34047 0.46088 0.43757 0.0
C456 C 0.32705 0.41257 0.33707 0.0
N457 N 0.34948 0.42231 0.3461 0.0
C458 C 0.34126 0.46245 0.32542 0.0
C459 C 0.35657 0.44687 0.34094 0.0
C460 C 0.31798 0.45293 0.31559 0.0
C461 C 0.31091 0.4276 0.32181 0.0
H462 H 0.32159 0.39313 0.3419 0.0
H463 H 0.37406 0.4545 0.34897 0.0
C464 C 0.44655 0.41201 0.43215 0.0
N465 N 0.4243 0.4219 0.42278 0.0
C466 C 0.46247 0.42691 0.44777 0.0
C467 C 0.43235 0.46195 0.44374 0.0
C468 C 0.41722 0.4465 0.4279 0.0
C469 C 0.45529 0.45216 0.4539 0.0
H470 H 0.45197 0.39253 0.42743 0.0
H471 H 0.39997 0.45426 0.4195 0.0
C472 C 0.35815 0.34711 0.34439 0.0
N473 N 0.34403 0.31421 0.30526 0.0
C474 C 0.34869 0.32267 0.35012 0.0
C475 C 0.3601 0.35496 0.3188 0.0
C476 C 0.34175 0.30628 0.33005 0.0
C477 C 0.35295 0.33801 0.29928 0.0
C478 C 0.41592 0.34695 0.42376 0.0
C479 C 0.42591 0.32272 0.41803 0.0
C480 C 0.41371 0.35472 0.44936 0.0
C481 C 0.43312 0.30644 0.4381 0.0
C482 C 0.42114 0.33789 0.46888 0.0
N483 N 0.43058 0.31429 0.46289 0.0
C484 C 0.44598 0.35527 0.33542 0.0
C485 C 0.4176 0.32034 0.34165 0.0
C486 C 0.46177 0.34021 0.31981 0.0
N487 N 0.42425 0.34523 0.34575 0.0
C488 C 0.43263 0.30468 0.32592 0.0
C489 C 0.45511 0.31454 0.31468 0.0
H490 H 0.45117 0.37495 0.33946 0.0
H491 H 0.40068 0.31255 0.35069 0.0
C492 C 0.32704 0.35474 0.4314 0.0
N493 N 0.34939 0.34498 0.42216 0.0
C494 C 0.31098 0.33966 0.4467 0.0
C495 C 0.34118 0.30473 0.44261 0.0
C496 C 0.35644 0.32036 0.4271 0.0
C497 C 0.31803 0.31428 0.4527 0.0
H498 H 0.3216 0.37421 0.42672 0.0
H499 H 0.37387 0.31276 0.41891 0.0
O500 O 0.40883 0.40414 0.36409 0.0
O501 O 0.3651 0.40393 0.40448 0.0
O502 O 0.36508 0.36337 0.3638 0.0
O503 O 0.40872 0.36308 0.40435 0.0
H504 H 0.42807 0.4505 0.37145 0.0
H505 H 0.40665 0.39503 0.31406 0.0
H506 H 0.44098 0.48039 0.33662 0.0
H507 H 0.41972 0.42592 0.28024 0.0
H508 H 0.35289 0.42381 0.48863 0.0
H509 H 0.34638 0.45063 0.39791 0.0
H510 H 0.3663 0.39361 0.4543 0.0
H511 H 0.33307 0.47978 0.43322 0.0
H512 H 0.3478 0.48167 0.32106 0.0
H513 H 0.29293 0.41951 0.31529 0.0
H514 H 0.48003 0.41869 0.45525 0.0
H515 H 0.42641 0.48149 0.44763 0.0
H516 H 0.3469 0.31639 0.36985 0.0
H517 H 0.36691 0.37397 0.31408 0.0
H518 H 0.33454 0.28725 0.33418 0.0
H519 H 0.35444 0.34379 0.27938 0.0
H520 H 0.4279 0.3165 0.39829 0.0
H521 H 0.40649 0.37358 0.45409 0.0
H522 H 0.44072 0.28757 0.43396 0.0
H523 H 0.41946 0.34361 0.48878 0.0
H524 H 0.47918 0.34856 0.31215 0.0
H525 H 0.42649 0.28514 0.32244 0.0
H526 H 0.29308 0.34777 0.45343 0.0
H527 H 0.34767 0.28545 0.4468 0.0
Li528 Li 0.37058 0.90081 0.8666 0.0
Li529 Li 0.40313 0.90088 0.90126 0.0
Li530 Li 0.40316 0.86648 0.86665 0.0
Li531 Li 0.37056 0.86639 0.90124 0.0
C532 C 0.41602 0.9203 0.84442 0.0
N533 N 0.43099 0.9531 0.80554 0.0
C534 C 0.4262 0.94441 0.85034 0.0
C535 C 0.41374 0.91274 0.81877 0.0
C536 C 0.43358 0.96076 0.83039 0.0
C537 C 0.42134 0.92964 0.79938 0.0
C538 C 0.35711 0.91997 0.9234 0.0
C539 C 0.35018 0.92866 0.96836 0.0
N540 N 0.34084 0.95225 0.96222 0.0
C541 C 0.34721 0.94419 0.91749 0.0
C542 C 0.35842 0.91202 0.949 0.0
C543 C 0.33918 0.96028 0.93741 0.0
C544 C 0.32685 0.91217 0.83675 0.0
N545 N 0.34932 0.92201 0.84563 0.0
C546 C 0.34117 0.96189 0.82442 0.0
C547 C 0.35647 0.94651 0.84016 0.0
C548 C 0.318 0.95216 0.81477 0.0
C549 C 0.31074 0.92704 0.82128 0.0
H550 H 0.32141 0.89277 0.84172 0.0
H551 H 0.37392 0.95423 0.84817 0.0
C552 C 0.44686 0.91254 0.93106 0.0
N553 N 0.42425 0.92216 0.92229 0.0
C554 C 0.46278 0.92746 0.94666 0.0
C555 C 0.43198 0.96201 0.94374 0.0
C556 C 0.41684 0.94655 0.92793 0.0
C557 C 0.45526 0.95247 0.95335 0.0
H558 H 0.45253 0.89323 0.92594 0.0
H559 H 0.39928 0.95412 0.92 0.0
C560 C 0.35787 0.84677 0.84454 0.0
N561 N 0.34309 0.81354 0.80593 0.0
C562 C 0.34841 0.82242 0.85064 0.0
C563 C 0.3595 0.85436 0.81885 0.0
C564 C 0.34113 0.80586 0.83083 0.0
C565 C 0.35202 0.83724 0.7996 0.0
C566 C 0.41646 0.84777 0.92389 0.0
C567 C 0.42704 0.82369 0.91861 0.0
C568 C 0.41431 0.85608 0.94931 0.0
C569 C 0.43494 0.80811 0.93897 0.0
C570 C 0.42243 0.83994 0.96914 0.0
N571 N 0.43246 0.81648 0.9636 0.0
C572 C 0.44621 0.85511 0.83566 0.0
C573 C 0.41758 0.82031 0.84142 0.0
C574 C 0.46206 0.84007 0.8201 0.0
N575 N 0.42431 0.84514 0.84571 0.0
C576 C 0.43267 0.80467 0.82573 0.0
C577 C 0.45529 0.81447 0.81475 0.0
H578 H 0.45146 0.87475 0.83986 0.0
H579 H 0.40052 0.81256 0.85024 0.0
C580 C 0.32653 0.85458 0.93048 0.0
N581 N 0.34936 0.84511 0.92217 0.0
C582 C 0.31047 0.83961 0.94589 0.0
C583 C 0.34164 0.80537 0.94377 0.0
C584 C 0.35692 0.82087 0.92814 0.0
C585 C 0.318 0.81463 0.95293 0.0
H586 H 0.32073 0.87374 0.92501 0.0
H587 H 0.37476 0.81348 0.92071 0.0
O588 O 0.40868 0.9041 0.86372 0.0
O589 O 0.36503 0.90401 0.90413 0.0
O590 O 0.36506 0.86321 0.86369 0.0
O591 O 0.40863 0.86323 0.90417 0.0
H592 H 0.42822 0.95047 0.87012 0.0
H593 H 0.40632 0.89399 0.8139 0.0
H594 H 0.44136 0.97952 0.83466 0.0
H595 H 0.41962 0.92407 0.77943 0.0
H596 H 0.35115 0.92278 0.98827 0.0
H597 H 0.34591 0.95055 0.89774 0.0
H598 H 0.36554 0.89315 0.95385 0.0
H599 H 0.33162 0.97914 0.93314 0.0
H600 H 0.34718 0.98135 0.82021 0.0
H601 H 0.29299 0.91888 0.81419 0.0
H602 H 0.48061 0.91942 0.9537 0.0
H603 H 0.42575 0.98137 0.94807 0.0
H604 H 0.34687 0.81634 0.87046 0.0
H605 H 0.36631 0.8733 0.81384 0.0
H606 H 0.33391 0.7869 0.83525 0.0
H607 H 0.35324 0.84283 0.77962 0.0
H608 H 0.42898 0.81706 0.899 0.0
H609 H 0.40661 0.87484 0.95369 0.0
H610 H 0.44303 0.78936 0.93519 0.0
H611 H 0.42082 0.8461 0.98892 0.0
H612 H 0.47958 0.84836 0.81265 0.0
H613 H 0.42645 0.78518 0.82208 0.0
H614 H 0.2922 0.84746 0.9519 0.0
H615 H 0.34849 0.7864 0.94878 0.0
Li616 Li 0.62033 0.65109 0.65112 0.0
Li617 Li 0.65325 0.61628 0.65123 0.0
Li618 Li 0.65332 0.65095 0.61682 0.0
Li619 Li 0.62027 0.61622 0.617 0.0
C620 C 0.66909 0.6736 0.66795 0.0
N621 N 0.69093 0.71344 0.69525 0.0
C622 C 0.68116 0.66881 0.69144 0.0
C623 C 0.66833 0.69858 0.65821 0.0
C624 C 0.69202 0.68924 0.705 0.0
C625 C 0.67944 0.71848 0.67234 0.0
C626 C 0.60531 0.59365 0.66857 0.0
C627 C 0.59657 0.54851 0.67374 0.0
N628 N 0.58521 0.55349 0.69674 0.0
C629 C 0.59339 0.59838 0.69215 0.0
C630 C 0.60679 0.56857 0.65918 0.0
C631 C 0.58342 0.57779 0.70615 0.0
C632 C 0.57437 0.67604 0.66479 0.0
N633 N 0.59905 0.67207 0.67225 0.0
C634 C 0.59289 0.6982 0.7095 0.0
C635 C 0.60839 0.68249 0.69429 0.0
C636 C 0.56739 0.70283 0.70218 0.0
C637 C 0.55808 0.69138 0.6796 0.0
H638 H 0.56738 0.66732 0.64728 0.0
H639 H 0.62781 0.67853 0.70023 0.0
C640 C 0.69862 0.58991 0.6644 0.0
N641 N 0.67449 0.5955 0.67256 0.0
C642 C 0.71479 0.57466 0.67943 0.0
C643 C 0.68102 0.57133 0.71103 0.0
C644 C 0.66564 0.58686 0.69553 0.0
C645 C 0.70602 0.56498 0.70309 0.0
H646 H 0.70532 0.59738 0.64621 0.0
H647 H 0.64664 0.59201 0.70192 0.0
C648 C 0.60465 0.67385 0.60037 0.0
N649 N 0.58302 0.71437 0.57391 0.0
C650 C 0.59183 0.66949 0.57721 0.0
C651 C 0.60631 0.69875 0.61021 0.0
C652 C 0.58108 0.69026 0.56407 0.0
C653 C 0.59528 0.719 0.59652 0.0
C654 C 0.66825 0.59362 0.59948 0.0
C655 C 0.67986 0.59858 0.5758 0.0
C656 C 0.66712 0.56847 0.60874 0.0
C657 C 0.68987 0.57817 0.56157 0.0
C658 C 0.67737 0.54859 0.59395 0.0
N659 N 0.68842 0.5538 0.57085 0.0
C660 C 0.69935 0.67555 0.60276 0.0
C661 C 0.66521 0.682 0.57346 0.0
C662 C 0.71565 0.69068 0.58774 0.0
N663 N 0.67462 0.67167 0.5955 0.0
C664 C 0.68071 0.69747 0.55803 0.0
C665 C 0.70637 0.70202 0.56503 0.0
H666 H 0.70643 0.66682 0.62023 0.0
H667 H 0.64567 0.67826 0.56777 0.0
C668 C 0.57477 0.59001 0.60392 0.0
N669 N 0.59896 0.59538 0.59578 0.0
C670 C 0.55854 0.57476 0.58895 0.0
C671 C 0.59238 0.57096 0.55747 0.0
C672 C 0.60781 0.5865 0.5729 0.0
C673 C 0.56731 0.56485 0.56537 0.0
H674 H 0.56807 0.59767 0.62203 0.0
H675 H 0.62685 0.59149 0.56651 0.0
O676 O 0.65838 0.65379 0.65449 0.0
O677 O 0.61515 0.61361 0.65468 0.0
O678 O 0.61529 0.65371 0.61339 0.0
O679 O 0.65836 0.6134 0.61359 0.0
H680 H 0.68199 0.64952 0.69914 0.0
H681 H 0.65945 0.70253 0.63988 0.0
H682 H 0.70133 0.68585 0.72326 0.0
H683 H 0.67898 0.73792 0.66506 0.0
H684 H 0.5976 0.52899 0.66673 0.0
H685 H 0.59199 0.61774 0.69959 0.0
H686 H 0.61556 0.56466 0.64078 0.0
H687 H 0.57424 0.58113 0.72448 0.0
H688 H 0.60065 0.70632 0.72701 0.0
H689 H 0.53854 0.69456 0.67328 0.0
H690 H 0.73404 0.57079 0.67268 0.0
H691 H 0.67321 0.56417 0.72892 0.0
H692 H 0.59032 0.65028 0.56942 0.0
H693 H 0.61581 0.70238 0.6283 0.0
H694 H 0.57118 0.6872 0.54607 0.0
H695 H 0.59642 0.73838 0.60389 0.0
H696 H 0.68099 0.618 0.56845 0.0
H697 H 0.6586 0.56438 0.62722 0.0
H698 H 0.69881 0.58169 0.54315 0.0
H699 H 0.67661 0.52902 0.60085 0.0
H700 H 0.73538 0.69316 0.59374 0.0
H701 H 0.6725 0.70598 0.54093 0.0
H702 H 0.53924 0.57109 0.59567 0.0
H703 H 0.6002 0.56361 0.53966 0.0
H704 H 0.30974 0.26227 0.44908 0.0
H705 H 0.28828 0.32882 0.49384 0.0
H706 H 0.28375 0.23533 0.4767 0.0
H707 H 0.26052 0.30218 0.5201 0.0
H708 H 0.23256 0.24491 0.5791 0.0
H709 H 0.26028 0.27119 0.55246 0.0
H710 H 0.24174 0.22409 0.48664 0.0
H711 H 0.21585 0.19651 0.51371 0.0
C712 C 0.29949 0.27124 0.46479 0.0
C713 C 0.30133 0.29783 0.46919 0.0
C714 C 0.28415 0.25577 0.48043 0.0
C715 C 0.26984 0.26647 0.5007 0.0
C716 C 0.27149 0.29309 0.50496 0.0
C717 C 0.28714 0.30852 0.48955 0.0
C718 C 0.23472 0.23982 0.55905 0.0
C719 C 0.22189 0.21842 0.5487 0.0
C720 C 0.25034 0.25524 0.5436 0.0
C721 C 0.2533 0.24994 0.51726 0.0
C722 C 0.24032 0.22864 0.50688 0.0
C723 C 0.22502 0.21301 0.5224 0.0
H724 H 0.70923 0.56377 0.75578 0.0
H725 H 0.7409 0.52858 0.68752 0.0
H726 H 0.73582 0.536 0.78239 0.0
H727 H 0.76813 0.50151 0.71432 0.0
H728 H 0.83223 0.47997 0.77279 0.0
H729 H 0.80533 0.50726 0.74563 0.0
H730 H 0.73936 0.48817 0.79198 0.0
H731 H 0.76627 0.46095 0.81919 0.0
C732 C 0.72169 0.55004 0.74639 0.0
C733 C 0.72276 0.54844 0.7194 0.0
C734 C 0.737 0.5342 0.76169 0.0
C735 C 0.754 0.51659 0.75042 0.0
C736 C 0.75537 0.51511 0.72352 0.0
C737 C 0.73982 0.53073 0.70818 0.0
C738 C 0.812 0.48168 0.77719 0.0
C739 C 0.80133 0.46836 0.7981 0.0
C740 C 0.79659 0.49712 0.76155 0.0
C741 C 0.77027 0.49984 0.76672 0.0
C742 C 0.75962 0.48657 0.78767 0.0
C743 C 0.77496 0.47085 0.8031 0.0
H744 H 0.51743 0.07267 0.05185 0.0
H745 H 0.57957 0.01854 0.04389 0.0
H746 H 0.49048 0.0458 0.02459 0.0
H747 H 0.55248 0.99109 0.01743 0.0
H748 H 0.50682 0.9607 0.94949 0.0
H749 H 0.53365 0.98783 0.97657 0.0
H750 H 0.46744 1.00705 0.02281 0.0
H751 H 0.44059 0.98064 0.99502 0.0
C752 C 0.52519 0.05483 0.0445 0.0
C753 C 0.55059 0.04772 0.04992 0.0
C754 C 0.50973 0.03934 0.02894 0.0
C755 C 0.51923 0.01619 0.01871 0.0
C756 C 0.54461 0.00899 0.02447 0.0
C757 C 0.56015 0.02465 0.03975 0.0
C758 C 0.49809 0.97068 0.96552 0.0
C759 C 0.47164 0.96861 0.97014 0.0
C760 C 0.51346 0.98617 0.98114 0.0
C761 C 0.5028 0.9997 1.002 0.0
C762 C 0.47631 0.99737 1.00669 0.0
C763 C 0.4609 0.98215 0.99084 0.0
H764 H 0.96385 0.76281 0.31848 0.0
H765 H 0.98395 0.82958 0.27337 0.0
H766 H 0.9903 0.73615 0.29058 0.0
H767 H 1.01124 0.80291 0.24627 0.0
H768 H 0.07978 0.74901 0.22518 0.0
H769 H 0.05244 0.7761 0.25215 0.0
H770 H 0.99015 0.72227 0.24298 0.0
H771 H 0.01746 0.69522 0.21591 0.0
C772 C 0.9737 0.77185 0.30257 0.0
C773 C 0.9716 0.79846 0.29824 0.0
C774 C 0.98896 0.75653 0.28666 0.0
C775 C 1.0028 0.76748 0.2663 0.0
C776 C 1.00096 0.79402 0.26202 0.0
C777 C 0.98541 0.80931 0.27768 0.0
C778 C 0.06025 0.74299 0.22897 0.0
C779 C 0.05071 0.72003 0.21849 0.0
C780 C 0.04459 0.75855 0.24423 0.0
C781 C 0.01922 0.75125 0.24965 0.0
C782 C 1.0097 0.72826 0.23923 0.0
C783 C 0.02524 0.7129 0.22362 0.0
H784 H 0.33214 0.98001 0.77273 0.0
H785 H 0.26655 0.96062 0.81947 0.0
H786 H 0.30489 1.00703 0.74558 0.0
H787 H 0.23932 0.98776 0.79241 0.0
H788 H 0.20981 0.06417 0.75625 0.0
H789 H 0.23648 0.03636 0.78275 0.0
H790 H 0.26666 1.00014 0.71463 0.0
H791 H 0.23921 0.0271 0.68795 0.0
C792 C 0.31191 0.9816 0.77719 0.0
C793 C 0.30142 0.96826 0.79817 0.0
C794 C 0.29632 0.99689 0.76159 0.0
C795 C 0.27003 0.99948 0.76694 0.0
C796 C 0.25956 0.98621 0.78798 0.0
C797 C 0.27507 0.97058 0.80332 0.0
C798 C 0.22177 0.05003 0.74682 0.0
C799 C 0.22218 0.04792 0.71985 0.0
C800 C 0.23714 0.03419 0.76207 0.0
C801 C 0.2536 0.01612 0.75073 0.0
C802 C 0.25431 0.01411 0.72384 0.0
C803 C 0.23865 0.02968 0.70858 0.0
H804 H 0.9831 0.43868 0.99513 0.0
H805 H 0.9649 0.50433 0.94766 0.0
H806 H 1.01087 0.46532 0.02127 0.0
H807 H 0.99059 0.53142 0.9753 0.0
H808 H 0.05765 0.57026 0.01326 0.0
H809 H 0.03192 0.54254 0.9863 0.0
H810 H 0.01192 0.49674 0.05262 0.0
H811 H 0.03973 0.52296 0.07913 0.0
C812 C 0.98492 0.45878 0.99021 0.0
C813 C 0.97165 0.46917 0.96908 0.0
C814 C 1.00056 0.47425 1.00559 0.0
C815 C 1.00305 0.50069 1.00061 0.0
C816 C 0.9896 0.51112 0.97962 0.0
C817 C 0.97436 0.49556 0.96395 0.0
C818 C 0.04823 0.55399 0.0221 0.0
C819 C 0.05104 0.54893 0.04851 0.0
C820 C 0.03297 0.53828 1.00662 0.0
C821 C 0.01959 0.5173 0.01714 0.0
C822 C 0.02217 0.5124 0.04361 0.0
C823 C 0.03784 0.52783 0.05901 0.0
H824 H 0.46536 0.26298 0.31945 0.0
H825 H 0.48219 0.32878 0.27166 0.0
H826 H 0.49168 0.23616 0.29159 0.0
H827 H 0.50928 0.30197 0.24448 0.0
H828 H 0.57845 0.24976 0.22238 0.0
H829 H 0.55117 0.27689 0.2493 0.0
H830 H 0.49081 0.2203 0.24507 0.0
H831 H 0.51813 0.19313 0.21815 0.0
C832 C 0.47446 0.27175 0.30295 0.0
C833 C 0.47151 0.29814 0.29786 0.0
C834 C 0.48963 0.25635 0.28705 0.0
C835 C 0.50251 0.26699 0.2659 0.0
C836 C 0.49978 0.29332 0.26084 0.0
C837 C 0.48434 0.30869 0.27653 0.0
C838 C 0.55937 0.24312 0.22725 0.0
C839 C 0.55041 0.21934 0.21821 0.0
C840 C 0.54371 0.25871 0.24248 0.0
C841 C 0.5189 0.25068 0.24927 0.0
C842 C 0.50993 0.22688 0.24026 0.0
C843 C 0.52547 0.21144 0.22472 0.0
H844 H 0.83355 0.78368 0.49295 0.0
H845 H 0.76632 0.80915 0.45176 0.0
H846 H 0.80663 0.75636 0.5201 0.0
H847 H 0.73941 0.78183 0.4789 0.0
H848 H 0.70714 0.70583 0.51238 0.0
H849 H 0.73388 0.73355 0.48588 0.0
H850 H 0.77136 0.76255 0.55385 0.0
H851 H 0.744 0.73558 0.58061 0.0
C852 C 0.81302 0.78337 0.48969 0.0
C853 C 0.802 0.79851 0.47026 0.0
C854 C 0.79763 0.7679 0.50532 0.0
C855 C 0.77096 0.76697 0.50157 0.0
C856 C 0.75995 0.78205 0.48209 0.0
C857 C 0.77529 0.7978 0.46671 0.0
C858 C 0.72078 0.71835 0.52181 0.0
C859 C 0.72324 0.71846 0.54875 0.0
C860 C 0.73618 0.73416 0.50656 0.0
C861 C 0.75466 0.75021 0.51782 0.0
C862 C 0.75743 0.75016 0.54465 0.0
C863 C 0.7418 0.73459 0.55996 0.0
H864 H 0.21666 0.57142 0.25441 0.0
H865 H 0.23115 0.5215 0.18964 0.0
H866 H 0.24246 0.54381 0.2815 0.0
H867 H 0.25889 0.4952 0.21621 0.0
H868 H 0.28747 0.43822 0.27503 0.0
H869 H 0.25958 0.46482 0.24891 0.0
H870 H 0.2842 0.53195 0.29109 0.0
H871 H 0.31023 0.50507 0.31869 0.0
C872 C 0.22532 0.55458 0.24585 0.0
C873 C 0.22158 0.54877 0.21972 0.0
C874 C 0.24059 0.53892 0.26138 0.0
C875 C 0.25298 0.5172 0.25115 0.0
C876 C 0.24942 0.51149 0.22497 0.0
C877 C 0.23379 0.52692 0.20953 0.0
C878 C 0.28661 0.45858 0.27911 0.0
C879 C 0.3012 0.46935 0.29914 0.0
C880 C 0.27088 0.47398 0.26375 0.0
C881 C 0.26958 0.50068 0.2677 0.0
C882 C 0.2843 0.51146 0.28762 0.0
C883 C 0.29968 0.49601 0.30324 0.0
H884 H 0.83377 0.28193 0.99185 0.0
H885 H 0.76621 0.31034 0.95323 0.0
H886 H 0.80681 0.25469 0.01909 0.0
H887 H 0.73927 0.28303 0.98038 0.0
H888 H 0.7063 0.20658 0.01262 0.0
H889 H 0.7331 0.23429 0.98616 0.0
H890 H 0.77217 0.26147 0.05396 0.0
H891 H 0.74472 0.2346 0.08074 0.0
C892 C 0.81316 0.28227 0.98918 0.0
C893 C 0.80204 0.29821 0.97046 0.0
C894 C 0.79776 0.26685 1.00484 0.0
C895 C 0.77098 0.26676 1.00179 0.0
C896 C 0.75988 0.28262 0.98301 0.0
C897 C 0.77525 0.29835 0.96763 0.0
C898 C 0.7203 0.21871 0.02204 0.0
C899 C 0.72316 0.21835 0.04894 0.0
C900 C 0.73573 0.2345 1.0068 0.0
C901 C 0.75466 0.25002 0.01803 0.0
C902 C 0.75786 0.24948 0.0448 0.0
C903 C 0.74218 0.23397 0.06011 0.0
H904 H 0.80898 1.0048 0.3188 0.0
H905 H 0.78984 0.93832 0.27284 0.0
H906 H 0.78261 0.03153 0.29092 0.0
H907 H 0.76268 0.96506 0.24567 0.0
H908 H 0.69407 0.01838 0.22404 0.0
H909 H 0.72134 0.99126 0.251 0.0
H910 H 0.78295 0.04616 0.24383 0.0
H911 H 0.75568 0.0733 0.21684 0.0
C912 C 0.79936 0.99584 0.3027 0.0
C913 C 0.80169 0.9693 0.29813 0.0
C914 C 0.78415 0.0112 0.28679 0.0
C915 C 0.77062 1.00036 0.26616 0.0
C916 C 0.77271 0.97387 0.26163 0.0
C917 C 0.78819 0.95854 0.27731 0.0
C918 C 0.71343 0.02464 0.22828 0.0
C919 C 0.72277 0.04794 0.21839 0.0
C920 C 0.72907 0.00906 0.24353 0.0
C921 C 0.75423 0.01664 0.2495 0.0
C922 C 0.76357 0.03995 0.23965 0.0
C923 C 0.74805 0.05536 0.22408 0.0
H924 H 0.9407 0.98039 0.49541 0.0
H925 H 1.00674 0.96043 0.44965 0.0
H926 H 0.96767 1.00666 0.52321 0.0
H927 H 0.03369 0.9876 0.47659 0.0
H928 H 0.08012 0.01876 0.54325 0.0
H929 H 0.05298 0.99123 0.51691 0.0
H930 H 0.99047 0.04519 0.52545 0.0
H931 H 0.01744 0.07199 0.55273 0.0
C932 C 0.961 0.98188 0.49119 0.0
C933 C 0.97167 0.96838 0.47044 0.0
C934 C 0.97648 0.99705 0.50702 0.0
C935 C 1.00296 0.99941 0.50222 0.0
C936 C 0.01353 0.98592 0.48128 0.0
C937 C 0.99809 0.97043 0.46572 0.0
C938 C 0.06055 0.02466 0.53944 0.0
C939 C 0.05085 0.04746 0.55003 0.0
C940 C 0.04499 0.00897 0.52422 0.0
C941 C 0.01944 0.01592 0.51887 0.0
C942 C 1.00983 0.03887 0.52948 0.0
C943 C 0.0253 0.05434 0.54504 0.0
H944 H 0.94279 0.29244 0.7691 0.0
H945 H 1.00532 0.30172 0.82255 0.0
H946 H 0.97 0.26625 0.7415 0.0
H947 H 0.03235 0.27451 0.79574 0.0
H948 H 0.08237 0.24425 0.73127 0.0
H949 H 0.05538 0.27208 0.7575 0.0
H950 H 0.98918 0.22612 0.73753 0.0
H951 H 0.01616 0.19923 0.71033 0.0
C952 C 0.96234 0.28862 0.77502 0.0
C953 C 0.97199 0.29909 0.79791 0.0
C954 C 0.97795 0.27347 0.7593 0.0
C955 C 1.00348 0.26806 0.76632 0.0
C956 C 0.01302 0.27858 0.78936 0.0
C957 C 0.99751 0.29409 0.80484 0.0
C958 C 0.06202 0.2402 0.73254 0.0
C959 C 0.0513 0.21967 0.71878 0.0
C960 C 0.04653 0.25604 0.74769 0.0
C961 C 0.01998 0.25143 0.7498 0.0
C962 C 1.00938 0.23068 0.73605 0.0
C963 C 0.02483 0.21514 0.72055 0.0
H964 H 0.57878 0.74973 0.72258 0.0
H965 H 0.51827 0.69335 0.71783 0.0
H966 H 0.55151 0.7768 0.74957 0.0
H967 H 0.49096 0.72047 0.7448 0.0
H968 H 0.46524 0.76282 0.81923 0.0
H969 H 0.49159 0.73605 0.79135 0.0
H970 H 0.50985 0.8021 0.74482 0.0
H971 H 0.48275 0.82886 0.77202 0.0
C972 C 0.55966 0.74314 0.72736 0.0
C973 C 0.55064 0.71944 0.71814 0.0
C974 C 0.54401 0.75869 0.74263 0.0
C975 C 0.51914 0.75071 0.74929 0.0
C976 C 0.51012 0.727 0.7401 0.0
C977 C 0.52565 0.7116 0.72453 0.0
C978 C 0.47449 0.77166 0.80285 0.0
C979 C 0.47173 0.7981 0.79794 0.0
C980 C 0.48968 0.75628 0.78694 0.0
C981 C 0.50275 0.767 0.76594 0.0
C982 C 0.5002 0.79339 0.76106 0.0
C983 C 0.48475 0.80872 0.77676 0.0
H984 H 0.19258 0.74791 0.04116 0.0
H985 H 0.25604 0.69605 0.05327 0.0
H986 H 0.21981 0.77499 0.01412 0.0
H987 H 0.28327 0.72313 0.02619 0.0
H988 H 0.31082 0.76238 0.95069 0.0
H989 H 0.28426 0.73576 0.97849 0.0
H990 H 0.25987 0.80311 0.02008 0.0
H991 H 0.28722 0.82981 0.99307 0.0
C992 C 0.21233 0.7423 0.03798 0.0
C993 C 0.22221 0.71989 0.04928 0.0
C994 C 0.22794 0.75787 0.02268 0.0
C995 C 0.25362 0.75113 0.01806 0.0
C996 C 0.26349 0.72868 0.02931 0.0
C997 C 0.24799 0.71331 0.04493 0.0
C998 C 0.30017 0.77158 0.96599 0.0
C999 C 0.30133 0.79835 0.96959 0.0
C1000 C 0.28485 0.75627 0.98184 0.0
C1001 C 0.27003 0.76738 1.00142 0.0
C1002 C 0.27092 0.79409 1.00494 0.0
C1003 C 0.28651 0.80938 0.98934 0.0
H1004 H 0.44057 0.48118 0.49498 0.0
H1005 H 0.507 0.45964 0.45039 0.0
H1006 H 0.46757 0.50838 0.52219 0.0
H1007 H 0.53399 0.48688 0.47756 0.0
H1008 H 0.56444 0.56311 0.51267 0.0
H1009 H 0.5378 0.53529 0.48616 0.0
H1010 H 0.50455 0.50197 0.55432 0.0
H1011 H 0.53189 0.52899 0.58105 0.0
C1012 C 0.46093 0.48233 0.491 0.0
C1013 C 0.47171 0.46833 0.4706 0.0
C1014 C 0.47638 0.49772 0.50665 0.0
C1015 C 0.50284 0.49973 0.50194 0.0
C1016 C 0.51361 0.48579 0.4815 0.0
C1017 C 0.49823 0.47009 0.46609 0.0
C1018 C 0.55178 0.54961 0.52212 0.0
C1019 C 0.55049 0.54831 0.54911 0.0
C1020 C 0.53643 0.53376 0.50687 0.0
C1021 C 0.51915 0.51648 0.51819 0.0
C1022 C 0.51755 0.51531 0.5451 0.0
C1023 C 0.53315 0.53092 0.56039 0.0
loop_
_geom_bond_atom_site_label_1
_geom_bond_atom_site_label_2
_geom_bond_distance
_geom_bond_site_symmetry_2
_ccdc_geom_bond_type
Li0 N17 1.990 . S
Li0 O60 1.956 . S
Li0 O61 1.970 . S
Li0 O62 1.961 . S
Li1 N25 1.990 . S
Li1 O60 1.970 . S
Li1 O61 1.956 . S
Li1 O63 1.961 . S
Li2 N47 1.990 . S
Li2 O60 1.961 . S
Li2 O62 1.956 . S
Li2 O63 1.970 . S
Li3 N53 1.990 . S
Li3 O61 1.961 . S
Li3 O62 1.970 . S
Li3 O63 1.956 . S
C4 C6 1.348 . S
C4 C7 1.356 . S
C4 O60 1.325 . S
N5 C8 1.314 . S
N5 C9 1.279 . S
C6 C4 1.348 . S
C6 C8 1.353 . S
C6 H64 0.929 . S
C7 C4 1.356 . S
C7 C9 1.358 . S
C7 H65 0.930 . S
C8 N5 1.314 . S
C8 C6 1.353 . S
C8 H66 0.930 . S
C9 N5 1.279 . S
C9 C7 1.358 . S
C9 H67 0.930 . S
C10 C13 1.348 . S
C10 C14 1.356 . S
C10 O61 1.325 . S
C11 N12 1.279 . S
C11 C14 1.358 . S
C11 H68 0.930 . S
N12 C11 1.279 . S
N12 C15 1.314 . S
C13 C10 1.348 . S
C13 C15 1.353 . S
C13 H69 0.929 . S
C14 C10 1.356 . S
C14 C11 1.358 . S
C14 H70 0.930 . S
C15 N12 1.314 . S
C15 C13 1.353 . S
C15 H71 0.930 . S
C16 N17 1.314 . S
C16 C21 1.353 . S
C16 H22 0.930 . S
N17 Li0 1.990 . S
N17 C16 1.314 . S
N17 C19 1.279 . S
C18 C19 1.358 . S
C18 C20 1.356 . S
C18 H72 0.930 . S
C19 N17 1.279 . S
C19 C18 1.358 . S
C19 H23 0.930 . S
C20 C18 1.356 . S
C20 C21 1.348 . S
C21 C16 1.353 . S
C21 C20 1.348 . S
C21 H73 0.929 . S
H22 C16 0.930 . S
H23 C19 0.930 . S
C24 N25 1.314 . S
C24 C26 1.353 . S
C24 H30 0.930 . S
N25 Li1 1.990 . S
N25 C24 1.314 . S
N25 C28 1.279 . S
C26 C24 1.353 . S
C26 C29 1.348 . S
C26 H74 0.929 . S
C27 C28 1.358 . S
C27 C29 1.356 . S
C27 H75 0.930 . S
C28 N25 1.279 . S
C28 C27 1.358 . S
C28 H31 0.930 . S
C29 C26 1.348 . S
C29 C27 1.356 . S
H30 C24 0.930 . S
H31 C28 0.930 . S
C32 C34 1.348 . S
C32 C35 1.356 . S
C32 O62 1.325 . S
N33 C36 1.314 . S
N33 C37 1.279 . S
C34 C32 1.348 . S
C34 C36 1.353 . S
C34 H76 0.929 . S
C35 C32 1.356 . S
C35 C37 1.358 . S
C35 H77 0.930 . S
C36 N33 1.314 . S
C36 C34 1.353 . S
C36 H78 0.930 . S
C37 N33 1.279 . S
C37 C35 1.358 . S
C37 H79 0.930 . S
C38 C39 1.348 . S
C38 C40 1.356 . S
C38 O63 1.325 . S
C39 C38 1.348 . S
C39 C41 1.353 . S
C39 H80 0.929 . S
C40 C38 1.356 . S
C40 C42 1.358 . S
C40 H81 0.930 . S
C41 C39 1.353 . S
C41 N43 1.314 . S
C41 H82 0.930 . S
C42 C40 1.358 . S
C42 N43 1.279 . S
C42 H83 0.930 . S
N43 C41 1.314 . S
N43 C42 1.279 . S
C44 C46 1.353 . S
C44 N47 1.314 . S
C44 H50 0.930 . S
C45 N47 1.279 . S
C45 C48 1.358 . S
C45 H51 0.930 . S
C46 C44 1.353 . S
C46 C49 1.348 . S
C46 H84 0.929 . S
N47 Li2 1.990 . S
N47 C44 1.314 . S
N47 C45 1.279 . S
C48 C45 1.358 . S
C48 C49 1.356 . S
C48 H85 0.930 . S
C49 C46 1.348 . S
C49 C48 1.356 . S
H50 C44 0.930 . S
H51 C45 0.930 . S
C52 N53 1.314 . S
C52 C54 1.353 . S
C52 H58 0.930 . S
N53 Li3 1.990 . S
N53 C52 1.314 . S
N53 C56 1.279 . S
C54 C52 1.353 . S
C54 C57 1.348 . S
C54 H86 0.929 . S
C55 C56 1.358 . S
C55 C57 1.356 . S
C55 H87 0.930 . S
C56 N53 1.279 . S
C56 C55 1.358 . S
C56 H59 0.930 . S
C57 C54 1.348 . S
C57 C55 1.356 . S
H58 C52 0.930 . S
H59 C56 0.930 . S
O60 Li0 1.956 . S
O60 Li1 1.970 . S
O60 Li2 1.961 . S
O60 C4 1.325 . S
O61 Li0 1.970 . S
O61 Li1 1.956 . S
O61 Li3 1.961 . S
O61 C10 1.325 . S
O62 Li0 1.961 . S
O62 Li2 1.956 . S
O62 Li3 1.970 . S
O62 C32 1.325 . S
O63 Li1 1.961 . S
O63 Li2 1.970 . S
O63 Li3 1.956 . S
O63 C38 1.325 . S
H64 C6 0.929 . S
H65 C7 0.930 . S
H66 C8 0.930 . S
H67 C9 0.930 . S
H68 C11 0.930 . S
H69 C13 0.929 . S
H70 C14 0.930 . S
H71 C15 0.930 . S
H72 C18 0.930 . S
H73 C21 0.929 . S
H74 C26 0.929 . S
H75 C27 0.930 . S
H76 C34 0.929 . S
H77 C35 0.930 . S
H78 C36 0.930 . S
H79 C37 0.930 . S
H80 C39 0.929 . S
H81 C40 0.930 . S
H82 C41 0.930 . S
H83 C42 0.930 . S
H84 C46 0.929 . S
H85 C48 0.930 . S
H86 C54 0.929 . S
H87 C55 0.930 . S
Li88 N105 1.990 . S
Li88 O148 1.956 . S
Li88 O149 1.970 . S
Li88 O150 1.961 . S
Li89 N113 1.990 . S
Li89 O148 1.970 . S
Li89 O149 1.956 . S
Li89 O151 1.961 . S
Li90 N135 1.990 . S
Li90 O148 1.961 . S
Li90 O150 1.956 . S
Li90 O151 1.970 . S
Li91 N141 1.990 . S
Li91 O149 1.961 . S
Li91 O150 1.970 . S
Li91 O151 1.956 . S
C92 C94 1.348 . S
C92 C95 1.356 . S
C92 O148 1.325 . S
N93 C96 1.314 . S
N93 C97 1.279 . S
C94 C92 1.348 . S
C94 C96 1.353 . S
C94 H152 0.929 . S
C95 C92 1.356 . S
C95 C97 1.358 . S
C95 H153 0.930 . S
C96 N93 1.314 . S
C96 C94 1.353 . S
C96 H154 0.930 . S
C97 N93 1.279 . S
C97 C95 1.358 . S
C97 H155 0.930 . S
C98 C101 1.348 . S
C98 C102 1.356 . S
C98 O149 1.325 . S
C99 N100 1.279 . S
C99 C102 1.358 . S
C99 H156 0.930 . S
N100 C99 1.279 . S
N100 C103 1.314 . S
C101 C98 1.348 . S
C101 C103 1.353 . S
C101 H157 0.929 . S
C102 C98 1.356 . S
C102 C99 1.358 . S
C102 H158 0.930 . S
C103 N100 1.314 . S
C103 C101 1.353 . S
C103 H159 0.930 . S
C104 N105 1.314 . S
C104 C109 1.353 . S
C104 H110 0.930 . S
N105 Li88 1.990 . S
N105 C104 1.314 . S
N105 C107 1.279 . S
C106 C107 1.358 . S
C106 C108 1.356 . S
C106 H160 0.930 . S
C107 N105 1.279 . S
C107 C106 1.358 . S
C107 H111 0.930 . S
C108 C106 1.356 . S
C108 C109 1.348 . S
C109 C104 1.353 . S
C109 C108 1.348 . S
C109 H161 0.929 . S
H110 C104 0.930 . S
H111 C107 0.930 . S
C112 N113 1.314 . S
C112 C114 1.353 . S
C112 H118 0.930 . S
N113 Li89 1.990 . S
N113 C112 1.314 . S
N113 C116 1.279 . S
C114 C112 1.353 . S
C114 C117 1.348 . S
C114 H162 0.929 . S
C115 C116 1.358 . S
C115 C117 1.356 . S
C115 H163 0.930 . S
C116 N113 1.279 . S
C116 C115 1.358 . S
C116 H119 0.930 . S
C117 C114 1.348 . S
C117 C115 1.356 . S
H118 C112 0.930 . S
H119 C116 0.930 . S
C120 C122 1.348 . S
C120 C123 1.356 . S
C120 O150 1.325 . S
N121 C124 1.314 . S
N121 C125 1.279 . S
C122 C120 1.348 . S
C122 C124 1.353 . S
C122 H164 0.929 . S
C123 C120 1.356 . S
C123 C125 1.358 . S
C123 H165 0.930 . S
C124 N121 1.314 . S
C124 C122 1.353 . S
C124 H166 0.930 . S
C125 N121 1.279 . S
C125 C123 1.358 . S
C125 H167 0.930 . S
C126 C127 1.348 . S
C126 C128 1.356 . S
C126 O151 1.325 . S
C127 C126 1.348 . S
C127 C129 1.353 . S
C127 H168 0.929 . S
C128 C126 1.356 . S
C128 C130 1.358 . S
C128 H169 0.930 . S
C129 C127 1.353 . S
C129 N131 1.314 . S
C129 H170 0.930 . S
C130 C128 1.358 . S
C130 N131 1.279 . S
C130 H171 0.930 . S
N131 C129 1.314 . S
N131 C130 1.279 . S
C132 C134 1.353 . S
C132 N135 1.314 . S
C132 H138 0.930 . S
C133 N135 1.279 . S
C133 C136 1.358 . S
C133 H139 0.930 . S
C134 C132 1.353 . S
C134 C137 1.348 . S
C134 H172 0.929 . S
N135 Li90 1.990 . S
N135 C132 1.314 . S
N135 C133 1.279 . S
C136 C133 1.358 . S
C136 C137 1.356 . S
C136 H173 0.930 . S
C137 C134 1.348 . S
C137 C136 1.356 . S
H138 C132 0.930 . S
H139 C133 0.930 . S
C140 N141 1.314 . S
C140 C142 1.353 . S
C140 H146 0.930 . S
N141 Li91 1.990 . S
N141 C140 1.314 . S
N141 C144 1.279 . S
C142 C140 1.353 . S
C142 C145 1.348 . S
C142 H174 0.929 . S
C143 C144 1.358 . S
C143 C145 1.356 . S
C143 H175 0.930 . S
C144 N141 1.279 . S
C144 C143 1.358 . S
C144 H147 0.930 . S
C145 C142 1.348 . S
C145 C143 1.356 . S
H146 C140 0.930 . S
H147 C144 0.930 . S
O148 Li88 1.956 . S
O148 Li89 1.970 . S
O148 Li90 1.961 . S
O148 C92 1.325 . S
O149 Li88 1.970 . S
O149 Li89 1.956 . S
O149 Li91 1.961 . S
O149 C98 1.325 . S
O150 Li88 1.961 . S
O150 Li90 1.956 . S
O150 Li91 1.970 . S
O150 C120 1.325 . S
O151 Li89 1.961 . S
O151 Li90 1.970 . S
O151 Li91 1.956 . S
O151 C126 1.325 . S
H152 C94 0.929 . S
H153 C95 0.930 . S
H154 C96 0.930 . S
H155 C97 0.930 . S
H156 C99 0.930 . S
H157 C101 0.929 . S
H158 C102 0.930 . S
H159 C103 0.930 . S
H160 C106 0.930 . S
H161 C109 0.929 . S
H162 C114 0.929 . S
H163 C115 0.930 . S
H164 C122 0.929 . S
H165 C123 0.930 . S
H166 C124 0.930 . S
H167 C125 0.930 . S
H168 C127 0.929 . S
H169 C128 0.930 . S
H170 C129 0.930 . S
H171 C130 0.930 . S
H172 C134 0.929 . S
H173 C136 0.930 . S
H174 C142 0.929 . S
H175 C143 0.930 . S
Li176 N193 1.990 . S
Li176 O236 1.956 . S
Li176 O237 1.970 . S
Li176 O238 1.961 . S
Li177 N201 1.990 . S
Li177 O236 1.970 . S
Li177 O237 1.956 . S
Li177 O239 1.961 . S
Li178 N223 1.990 . S
Li178 O236 1.961 . S
Li178 O238 1.956 . S
Li178 O239 1.970 . S
Li179 N229 1.990 . S
Li179 O237 1.961 . S
Li179 O238 1.970 . S
Li179 O239 1.956 . S
C180 C182 1.348 . S
C180 C183 1.356 . S
C180 O236 1.325 . S
N181 C184 1.314 . S
N181 C185 1.279 . S
C182 C180 1.348 . S
C182 C184 1.353 . S
C182 H240 0.929 . S
C183 C180 1.356 . S
C183 C185 1.358 . S
C183 H241 0.930 . S
C184 N181 1.314 . S
C184 C182 1.353 . S
C184 H242 0.930 . S
C185 N181 1.279 . S
C185 C183 1.358 . S
C185 H243 0.930 . S
C186 C189 1.348 . S
C186 C190 1.356 . S
C186 O237 1.325 . S
C187 N188 1.279 . S
C187 C190 1.358 . S
C187 H244 0.930 . S
N188 C187 1.279 . S
N188 C191 1.314 . S
C189 C186 1.348 . S
C189 C191 1.353 . S
C189 H245 0.929 . S
C190 C186 1.356 . S
C190 C187 1.358 . S
C190 H246 0.930 . S
C191 N188 1.314 . S
C191 C189 1.353 . S
C191 H247 0.930 . S
C192 N193 1.314 . S
C192 C197 1.353 . S
C192 H198 0.930 . S
N193 Li176 1.990 . S
N193 C192 1.314 . S
N193 C195 1.279 . S
C194 C195 1.358 . S
C194 C196 1.356 . S
C194 H248 0.930 . S
C195 N193 1.279 . S
C195 C194 1.358 . S
C195 H199 0.930 . S
C196 C194 1.356 . S
C196 C197 1.348 . S
C197 C192 1.353 . S
C197 C196 1.348 . S
C197 H249 0.929 . S
H198 C192 0.930 . S
H199 C195 0.930 . S
C200 N201 1.314 . S
C200 C202 1.353 . S
C200 H206 0.930 . S
N201 Li177 1.990 . S
N201 C200 1.314 . S
N201 C204 1.279 . S
C202 C200 1.353 . S
C202 C205 1.348 . S
C202 H250 0.929 . S
C203 C204 1.358 . S
C203 C205 1.356 . S
C203 H251 0.930 . S
C204 N201 1.279 . S
C204 C203 1.358 . S
C204 H207 0.930 . S
C205 C202 1.348 . S
C205 C203 1.356 . S
H206 C200 0.930 . S
H207 C204 0.930 . S
C208 C210 1.348 . S
C208 C211 1.356 . S
C208 O238 1.325 . S
N209 C212 1.314 . S
N209 C213 1.279 . S
C210 C208 1.348 . S
C210 C212 1.353 . S
C210 H252 0.929 . S
C211 C208 1.356 . S
C211 C213 1.358 . S
C211 H253 0.930 . S
C212 N209 1.314 . S
C212 C210 1.353 . S
C212 H254 0.930 . S
C213 N209 1.279 . S
C213 C211 1.358 . S
C213 H255 0.930 . S
C214 C215 1.348 . S
C214 C216 1.356 . S
C214 O239 1.325 . S
C215 C214 1.348 . S
C215 C217 1.353 . S
C215 H256 0.929 . S
C216 C214 1.356 . S
C216 C218 1.358 . S
C216 H257 0.930 . S
C217 C215 1.353 . S
C217 N219 1.314 . S
C217 H258 0.930 . S
C218 C216 1.358 . S
C218 N219 1.279 . S
C218 H259 0.930 . S
N219 C217 1.314 . S
N219 C218 1.279 . S
C220 C222 1.353 . S
C220 N223 1.314 . S
C220 H226 0.930 . S
C221 N223 1.279 . S
C221 C224 1.358 . S
C221 H227 0.930 . S
C222 C220 1.353 . S
C222 C225 1.348 . S
C222 H260 0.929 . S
N223 Li178 1.990 . S
N223 C220 1.314 . S
N223 C221 1.279 . S
C224 C221 1.358 . S
C224 C225 1.356 . S
C224 H261 0.930 . S
C225 C222 1.348 . S
C225 C224 1.356 . S
H226 C220 0.930 . S
H227 C221 0.930 . S
C228 N229 1.314 . S
C228 C230 1.353 . S
C228 H234 0.930 . S
N229 Li179 1.990 . S
N229 C228 1.314 . S
N229 C232 1.279 . S
C230 C228 1.353 . S
C230 C233 1.348 . S
C230 H262 0.929 . S
C231 C232 1.358 . S
C231 C233 1.356 . S
C231 H263 0.930 . S
C232 N229 1.279 . S
C232 C231 1.358 . S
C232 H235 0.930 . S
C233 C230 1.348 . S
C233 C231 1.356 . S
H234 C228 0.930 . S
H235 C232 0.930 . S
O236 Li176 1.956 . S
O236 Li177 1.970 . S
O236 Li178 1.961 . S
O236 C180 1.325 . S
O237 Li176 1.970 . S
O237 Li177 1.956 . S
O237 Li179 1.961 . S
O237 C186 1.325 . S
O238 Li176 1.961 . S
O238 Li178 1.956 . S
O238 Li179 1.970 . S
O238 C208 1.325 . S
O239 Li177 1.961 . S
O239 Li178 1.970 . S
O239 Li179 1.956 . S
O239 C214 1.325 . S
H240 C182 0.929 . S
H241 C183 0.930 . S
H242 C184 0.930 . S
H243 C185 0.930 . S
H244 C187 0.930 . S
H245 C189 0.929 . S
H246 C190 0.930 . S
H247 C191 0.930 . S
H248 C194 0.930 . S
H249 C197 0.929 . S
H250 C202 0.929 . S
H251 C203 0.930 . S
H252 C210 0.929 . S
H253 C211 0.930 . S
H254 C212 0.930 . S
H255 C213 0.930 . S
H256 C215 0.929 . S
H257 C216 0.930 . S
H258 C217 0.930 . S
H259 C218 0.930 . S
H260 C222 0.929 . S
H261 C224 0.930 . S
H262 C230 0.929 . S
H263 C231 0.930 . S
Li264 N281 1.990 . S
Li264 O324 1.956 . S
Li264 O325 1.970 . S
Li264 O326 1.961 . S
Li265 N289 1.990 . S
Li265 O324 1.970 . S
Li265 O325 1.956 . S
Li265 O327 1.961 . S
Li266 N311 1.990 . S
Li266 O324 1.961 . S
Li266 O326 1.956 . S
Li266 O327 1.970 . S
Li267 N317 1.990 . S
Li267 O325 1.961 . S
Li267 O326 1.970 . S
Li267 O327 1.956 . S
C268 C270 1.348 . S
C268 C271 1.356 . S
C268 O324 1.325 . S
N269 C272 1.314 . S
N269 C273 1.279 . S
C270 C268 1.348 . S
C270 C272 1.353 . S
C270 H328 0.929 . S
C271 C268 1.356 . S
C271 C273 1.358 . S
C271 H329 0.930 . S
C272 N269 1.314 . S
C272 C270 1.353 . S
C272 H330 0.930 . S
C273 N269 1.279 . S
C273 C271 1.358 . S
C273 H331 0.930 . S
C274 C277 1.348 . S
C274 C278 1.356 . S
C274 O325 1.325 . S
C275 N276 1.279 . S
C275 C278 1.358 . S
C275 H332 0.930 . S
N276 C275 1.279 . S
N276 C279 1.314 . S
C277 C274 1.348 . S
C277 C279 1.353 . S
C277 H333 0.929 . S
C278 C274 1.356 . S
C278 C275 1.358 . S
C278 H334 0.930 . S
C279 N276 1.314 . S
C279 C277 1.353 . S
C279 H335 0.930 . S
C280 N281 1.314 . S
C280 C285 1.353 . S
C280 H286 0.930 . S
N281 Li264 1.990 . S
N281 C280 1.314 . S
N281 C283 1.279 . S
C282 C283 1.358 . S
C282 C284 1.356 . S
C282 H336 0.930 . S
C283 N281 1.279 . S
C283 C282 1.358 . S
C283 H287 0.930 . S
C284 C282 1.356 . S
C284 C285 1.348 . S
C285 C280 1.353 . S
C285 C284 1.348 . S
C285 H337 0.929 . S
H286 C280 0.930 . S
H287 C283 0.930 . S
C288 N289 1.314 . S
C288 C290 1.353 . S
C288 H294 0.930 . S
N289 Li265 1.990 . S
N289 C288 1.314 . S
N289 C292 1.279 . S
C290 C288 1.353 . S
C290 C293 1.348 . S
C290 H338 0.929 . S
C291 C292 1.358 . S
C291 C293 1.356 . S
C291 H339 0.930 . S
C292 N289 1.279 . S
C292 C291 1.358 . S
C292 H295 0.930 . S
C293 C290 1.348 . S
C293 C291 1.356 . S
H294 C288 0.930 . S
H295 C292 0.930 . S
C296 C298 1.348 . S
C296 C299 1.356 . S
C296 O326 1.325 . S
N297 C300 1.314 . S
N297 C301 1.279 . S
C298 C296 1.348 . S
C298 C300 1.353 . S
C298 H340 0.929 . S
C299 C296 1.356 . S
C299 C301 1.358 . S
C299 H341 0.930 . S
C300 N297 1.314 . S
C300 C298 1.353 . S
C300 H342 0.930 . S
C301 N297 1.279 . S
C301 C299 1.358 . S
C301 H343 0.930 . S
C302 C303 1.348 . S
C302 C304 1.356 . S
C302 O327 1.325 . S
C303 C302 1.348 . S
C303 C305 1.353 . S
C303 H344 0.929 . S
C304 C302 1.356 . S
C304 C306 1.358 . S
C304 H345 0.930 . S
C305 C303 1.353 . S
C305 N307 1.314 . S
C305 H346 0.930 . S
C306 C304 1.358 . S
C306 N307 1.279 . S
C306 H347 0.930 . S
N307 C305 1.314 . S
N307 C306 1.279 . S
C308 C310 1.353 . S
C308 N311 1.314 . S
C308 H314 0.930 . S
C309 N311 1.279 . S
C309 C312 1.358 . S
C309 H315 0.930 . S
C310 C308 1.353 . S
C310 C313 1.348 . S
C310 H348 0.929 . S
N311 Li266 1.990 . S
N311 C308 1.314 . S
N311 C309 1.279 . S
C312 C309 1.358 . S
C312 C313 1.356 . S
C312 H349 0.930 . S
C313 C310 1.348 . S
C313 C312 1.356 . S
H314 C308 0.930 . S
H315 C309 0.930 . S
C316 N317 1.314 . S
C316 C318 1.353 . S
C316 H322 0.930 . S
N317 Li267 1.990 . S
N317 C316 1.314 . S
N317 C320 1.279 . S
C318 C316 1.353 . S
C318 C321 1.348 . S
C318 H350 0.929 . S
C319 C320 1.358 . S
C319 C321 1.356 . S
C319 H351 0.930 . S
C320 N317 1.279 . S
C320 C319 1.358 . S
C320 H323 0.930 . S
C321 C318 1.348 . S
C321 C319 1.356 . S
H322 C316 0.930 . S
H323 C320 0.930 . S
O324 Li264 1.956 . S
O324 Li265 1.970 . S
O324 Li266 1.961 . S
O324 C268 1.325 . S
O325 Li264 1.970 . S
O325 Li265 1.956 . S
O325 Li267 1.961 . S
O325 C274 1.325 . S
O326 Li264 1.961 . S
O326 Li266 1.956 . S
O326 Li267 1.970 . S
O326 C296 1.325 . S
O327 Li265 1.961 . S
O327 Li266 1.970 . S
O327 Li267 1.956 . S
O327 C302 1.325 . S
H328 C270 0.929 . S
H329 C271 0.930 . S
H330 C272 0.930 . S
H331 C273 0.930 . S
H332 C275 0.930 . S
H333 C277 0.929 . S
H334 C278 0.930 . S
H335 C279 0.930 . S
H336 C282 0.930 . S
H337 C285 0.929 . S
H338 C290 0.929 . S
H339 C291 0.930 . S
H340 C298 0.929 . S
H341 C299 0.930 . S
H342 C300 0.930 . S
H343 C301 0.930 . S
H344 C303 0.929 . S
H345 C304 0.930 . S
H346 C305 0.930 . S
H347 C306 0.930 . S
H348 C310 0.929 . S
H349 C312 0.930 . S
H350 C318 0.929 . S
H351 C319 0.930 . S
Li352 N369 1.990 . S
Li352 O412 1.956 . S
Li352 O413 1.970 . S
Li352 O414 1.961 . S
Li353 N377 1.990 . S
Li353 O412 1.970 . S
Li353 O413 1.956 . S
Li353 O415 1.961 . S
Li354 N399 1.990 . S
Li354 O412 1.961 . S
Li354 O414 1.956 . S
Li354 O415 1.970 . S
Li355 N405 1.990 . S
Li355 O413 1.961 . S
Li355 O414 1.970 . S
Li355 O415 1.956 . S
C356 C358 1.348 . S
C356 C359 1.356 . S
C356 O412 1.325 . S
N357 C360 1.314 . S
N357 C361 1.279 . S
C358 C356 1.348 . S
C358 C360 1.353 . S
C358 H416 0.929 . S
C359 C356 1.356 . S
C359 C361 1.358 . S
C359 H417 0.930 . S
C360 N357 1.314 . S
C360 C358 1.353 . S
C360 H418 0.930 . S
C361 N357 1.279 . S
C361 C359 1.358 . S
C361 H419 0.930 . S
C362 C365 1.348 . S
C362 C366 1.356 . S
C362 O413 1.325 . S
C363 N364 1.279 . S
C363 C366 1.358 . S
C363 H420 0.930 . S
N364 C363 1.279 . S
N364 C367 1.314 . S
C365 C362 1.348 . S
C365 C367 1.353 . S
C365 H421 0.929 . S
C366 C362 1.356 . S
C366 C363 1.358 . S
C366 H422 0.930 . S
C367 N364 1.314 . S
C367 C365 1.353 . S
C367 H423 0.930 . S
C368 N369 1.314 . S
C368 C373 1.353 . S
C368 H374 0.930 . S
N369 Li352 1.990 . S
N369 C368 1.314 . S
N369 C371 1.279 . S
C370 C371 1.358 . S
C370 C372 1.356 . S
C370 H424 0.930 . S
C371 N369 1.279 . S
C371 C370 1.358 . S
C371 H375 0.930 . S
C372 C370 1.356 . S
C372 C373 1.348 . S
C373 C368 1.353 . S
C373 C372 1.348 . S
C373 H425 0.929 . S
H374 C368 0.930 . S
H375 C371 0.930 . S
C376 N377 1.314 . S
C376 C378 1.353 . S
C376 H382 0.930 . S
N377 Li353 1.990 . S
N377 C376 1.314 . S
N377 C380 1.279 . S
C378 C376 1.353 . S
C378 C381 1.348 . S
C378 H426 0.929 . S
C379 C380 1.358 . S
C379 C381 1.356 . S
C379 H427 0.930 . S
C380 N377 1.279 . S
C380 C379 1.358 . S
C380 H383 0.930 . S
C381 C378 1.348 . S
C381 C379 1.356 . S
H382 C376 0.930 . S
H383 C380 0.930 . S
C384 C386 1.348 . S
C384 C387 1.356 . S
C384 O414 1.325 . S
N385 C388 1.314 . S
N385 C389 1.279 . S
C386 C384 1.348 . S
C386 C388 1.353 . S
C386 H428 0.929 . S
C387 C384 1.356 . S
C387 C389 1.358 . S
C387 H429 0.930 . S
C388 N385 1.314 . S
C388 C386 1.353 . S
C388 H430 0.930 . S
C389 N385 1.279 . S
C389 C387 1.358 . S
C389 H431 0.930 . S
C390 C391 1.348 . S
C390 C392 1.356 . S
C390 O415 1.325 . S
C391 C390 1.348 . S
C391 C393 1.353 . S
C391 H432 0.929 . S
C392 C390 1.356 . S
C392 C394 1.358 . S
C392 H433 0.930 . S
C393 C391 1.353 . S
C393 N395 1.314 . S
C393 H434 0.930 . S
C394 C392 1.358 . S
C394 N395 1.279 . S
C394 H435 0.930 . S
N395 C393 1.314 . S
N395 C394 1.279 . S
C396 C398 1.353 . S
C396 N399 1.314 . S
C396 H402 0.930 . S
C397 N399 1.279 . S
C397 C400 1.358 . S
C397 H403 0.930 . S
C398 C396 1.353 . S
C398 C401 1.348 . S
C398 H436 0.929 . S
N399 Li354 1.990 . S
N399 C396 1.314 . S
N399 C397 1.279 . S
C400 C397 1.358 . S
C400 C401 1.356 . S
C400 H437 0.930 . S
C401 C398 1.348 . S
C401 C400 1.356 . S
H402 C396 0.930 . S
H403 C397 0.930 . S
C404 N405 1.314 . S
C404 C406 1.353 . S
C404 H410 0.930 . S
N405 Li355 1.990 . S
N405 C404 1.314 . S
N405 C408 1.279 . S
C406 C404 1.353 . S
C406 C409 1.348 . S
C406 H438 0.929 . S
C407 C408 1.358 . S
C407 C409 1.356 . S
C407 H439 0.930 . S
C408 N405 1.279 . S
C408 C407 1.358 . S
C408 H411 0.930 . S
C409 C406 1.348 . S
C409 C407 1.356 . S
H410 C404 0.930 . S
H411 C408 0.930 . S
O412 Li352 1.956 . S
O412 Li353 1.970 . S
O412 Li354 1.961 . S
O412 C356 1.325 . S
O413 Li352 1.970 . S
O413 Li353 1.956 . S
O413 Li355 1.961 . S
O413 C362 1.325 . S
O414 Li352 1.961 . S
O414 Li354 1.956 . S
O414 Li355 1.970 . S
O414 C384 1.325 . S
O415 Li353 1.961 . S
O415 Li354 1.970 . S
O415 Li355 1.956 . S
O415 C390 1.325 . S
H416 C358 0.929 . S
H417 C359 0.930 . S
H418 C360 0.930 . S
H419 C361 0.930 . S
H420 C363 0.930 . S
H421 C365 0.929 . S
H422 C366 0.930 . S
H423 C367 0.930 . S
H424 C370 0.930 . S
H425 C373 0.929 . S
H426 C378 0.929 . S
H427 C379 0.930 . S
H428 C386 0.929 . S
H429 C387 0.930 . S
H430 C388 0.930 . S
H431 C389 0.930 . S
H432 C391 0.929 . S
H433 C392 0.930 . S
H434 C393 0.930 . S
H435 C394 0.930 . S
H436 C398 0.929 . S
H437 C400 0.930 . S
H438 C406 0.929 . S
H439 C407 0.930 . S
Li440 N457 1.990 . S
Li440 O500 1.956 . S
Li440 O501 1.970 . S
Li440 O502 1.961 . S
Li441 N465 1.990 . S
Li441 O500 1.970 . S
Li441 O501 1.956 . S
Li441 O503 1.961 . S
Li442 N487 1.990 . S
Li442 O500 1.961 . S
Li442 O502 1.956 . S
Li442 O503 1.970 . S
Li443 N493 1.990 . S
Li443 O501 1.961 . S
Li443 O502 1.970 . S
Li443 O503 1.956 . S
C444 C446 1.348 . S
C444 C447 1.356 . S
C444 O500 1.325 . S
N445 C448 1.314 . S
N445 C449 1.279 . S
C446 C444 1.348 . S
C446 C448 1.353 . S
C446 H504 0.929 . S
C447 C444 1.356 . S
C447 C449 1.358 . S
C447 H505 0.930 . S
C448 N445 1.314 . S
C448 C446 1.353 . S
C448 H506 0.930 . S
C449 N445 1.279 . S
C449 C447 1.358 . S
C449 H507 0.930 . S
C450 C453 1.348 . S
C450 C454 1.356 . S
C450 O501 1.325 . S
C451 N452 1.279 . S
C451 C454 1.358 . S
C451 H508 0.930 . S
N452 C451 1.279 . S
N452 C455 1.314 . S
C453 C450 1.348 . S
C453 C455 1.353 . S
C453 H509 0.929 . S
C454 C450 1.356 . S
C454 C451 1.358 . S
C454 H510 0.930 . S
C455 N452 1.314 . S
C455 C453 1.353 . S
C455 H511 0.930 . S
C456 N457 1.314 . S
C456 C461 1.353 . S
C456 H462 0.930 . S
N457 Li440 1.990 . S
N457 C456 1.314 . S
N457 C459 1.279 . S
C458 C459 1.358 . S
C458 C460 1.356 . S
C458 H512 0.930 . S
C459 N457 1.279 . S
C459 C458 1.358 . S
C459 H463 0.930 . S
C460 C458 1.356 . S
C460 C461 1.348 . S
C461 C456 1.353 . S
C461 C460 1.348 . S
C461 H513 0.929 . S
H462 C456 0.930 . S
H463 C459 0.930 . S
C464 N465 1.314 . S
C464 C466 1.353 . S
C464 H470 0.930 . S
N465 Li441 1.990 . S
N465 C464 1.314 . S
N465 C468 1.279 . S
C466 C464 1.353 . S
C466 C469 1.348 . S
C466 H514 0.929 . S
C467 C468 1.358 . S
C467 C469 1.356 . S
C467 H515 0.930 . S
C468 N465 1.279 . S
C468 C467 1.358 . S
C468 H471 0.930 . S
C469 C466 1.348 . S
C469 C467 1.356 . S
H470 C464 0.930 . S
H471 C468 0.930 . S
C472 C474 1.348 . S
C472 C475 1.356 . S
C472 O502 1.325 . S
N473 C476 1.314 . S
N473 C477 1.279 . S
C474 C472 1.348 . S
C474 C476 1.353 . S
C474 H516 0.929 . S
C475 C472 1.356 . S
C475 C477 1.358 . S
C475 H517 0.930 . S
C476 N473 1.314 . S
C476 C474 1.353 . S
C476 H518 0.930 . S
C477 N473 1.279 . S
C477 C475 1.358 . S
C477 H519 0.930 . S
C478 C479 1.348 . S
C478 C480 1.356 . S
C478 O503 1.325 . S
C479 C478 1.348 . S
C479 C481 1.353 . S
C479 H520 0.929 . S
C480 C478 1.356 . S
C480 C482 1.358 . S
C480 H521 0.930 . S
C481 C479 1.353 . S
C481 N483 1.314 . S
C481 H522 0.930 . S
C482 C480 1.358 . S
C482 N483 1.279 . S
C482 H523 0.930 . S
N483 C481 1.314 . S
N483 C482 1.279 . S
C484 C486 1.353 . S
C484 N487 1.314 . S
C484 H490 0.930 . S
C485 N487 1.279 . S
C485 C488 1.358 . S
C485 H491 0.930 . S
C486 C484 1.353 . S
C486 C489 1.348 . S
C486 H524 0.929 . S
N487 Li442 1.990 . S
N487 C484 1.314 . S
N487 C485 1.279 . S
C488 C485 1.358 . S
C488 C489 1.356 . S
C488 H525 0.930 . S
C489 C486 1.348 . S
C489 C488 1.356 . S
H490 C484 0.930 . S
H491 C485 0.930 . S
C492 N493 1.314 . S
C492 C494 1.353 . S
C492 H498 0.930 . S
N493 Li443 1.990 . S
N493 C492 1.314 . S
N493 C496 1.279 . S
C494 C492 1.353 . S
C494 C497 1.348 . S
C494 H526 0.929 . S
C495 C496 1.358 . S
C495 C497 1.356 . S
C495 H527 0.930 . S
C496 N493 1.279 . S
C496 C495 1.358 . S
C496 H499 0.930 . S
C497 C494 1.348 . S
C497 C495 1.356 . S
H498 C492 0.930 . S
H499 C496 0.930 . S
O500 Li440 1.956 . S
O500 Li441 1.970 . S
O500 Li442 1.961 . S
O500 C444 1.325 . S
O501 Li440 1.970 . S
O501 Li441 1.956 . S
O501 Li443 1.961 . S
O501 C450 1.325 . S
O502 Li440 1.961 . S
O502 Li442 1.956 . S
O502 Li443 1.970 . S
O502 C472 1.325 . S
O503 Li441 1.961 . S
O503 Li442 1.970 . S
O503 Li443 1.956 . S
O503 C478 1.325 . S
H504 C446 0.929 . S
H505 C447 0.930 . S
H506 C448 0.930 . S
H507 C449 0.930 . S
H508 C451 0.930 . S
H509 C453 0.929 . S
H510 C454 0.930 . S
H511 C455 0.930 . S
H512 C458 0.930 . S
H513 C461 0.929 . S
H514 C466 0.929 . S
H515 C467 0.930 . S
H516 C474 0.929 . S
H517 C475 0.930 . S
H518 C476 0.930 . S
H519 C477 0.930 . S
H520 C479 0.929 . S
H521 C480 0.930 . S
H522 C481 0.930 . S
H523 C482 0.930 . S
H524 C486 0.929 . S
H525 C488 0.930 . S
H526 C494 0.929 . S
H527 C495 0.930 . S
Li528 N545 1.990 . S
Li528 O588 1.956 . S
Li528 O589 1.970 . S
Li528 O590 1.961 . S
Li529 N553 1.990 . S
Li529 O588 1.970 . S
Li529 O589 1.956 . S
Li529 O591 1.961 . S
Li530 N575 1.990 . S
Li530 O588 1.961 . S
Li530 O590 1.956 . S
Li530 O591 1.970 . S
Li531 N581 1.990 . S
Li531 O589 1.961 . S
Li531 O590 1.970 . S
Li531 O591 1.956 . S
C532 C534 1.348 . S
C532 C535 1.356 . S
C532 O588 1.325 . S
N533 C536 1.314 . S
N533 C537 1.279 . S
C534 C532 1.348 . S
C534 C536 1.353 . S
C534 H592 0.929 . S
C535 C532 1.356 . S
C535 C537 1.358 . S
C535 H593 0.930 . S
C536 N533 1.314 . S
C536 C534 1.353 . S
C536 H594 0.930 . S
C537 N533 1.279 . S
C537 C535 1.358 . S
C537 H595 0.930 . S
C538 C541 1.348 . S
C538 C542 1.356 . S
C538 O589 1.325 . S
C539 N540 1.279 . S
C539 C542 1.358 . S
C539 H596 0.930 . S
N540 C539 1.279 . S
N540 C543 1.314 . S
C541 C538 1.348 . S
C541 C543 1.353 . S
C541 H597 0.929 . S
C542 C538 1.356 . S
C542 C539 1.358 . S
C542 H598 0.930 . S
C543 N540 1.314 . S
C543 C541 1.353 . S
C543 H599 0.930 . S
C544 N545 1.314 . S
C544 C549 1.353 . S
C544 H550 0.930 . S
N545 Li528 1.990 . S
N545 C544 1.314 . S
N545 C547 1.279 . S
C546 C547 1.358 . S
C546 C548 1.356 . S
C546 H600 0.930 . S
C547 N545 1.279 . S
C547 C546 1.358 . S
C547 H551 0.930 . S
C548 C546 1.356 . S
C548 C549 1.348 . S
C549 C544 1.353 . S
C549 C548 1.348 . S
C549 H601 0.929 . S
H550 C544 0.930 . S
H551 C547 0.930 . S
C552 N553 1.314 . S
C552 C554 1.353 . S
C552 H558 0.930 . S
N553 Li529 1.990 . S
N553 C552 1.314 . S
N553 C556 1.279 . S
C554 C552 1.353 . S
C554 C557 1.348 . S
C554 H602 0.929 . S
C555 C556 1.358 . S
C555 C557 1.356 . S
C555 H603 0.930 . S
C556 N553 1.279 . S
C556 C555 1.358 . S
C556 H559 0.930 . S
C557 C554 1.348 . S
C557 C555 1.356 . S
H558 C552 0.930 . S
H559 C556 0.930 . S
C560 C562 1.348 . S
C560 C563 1.356 . S
C560 O590 1.325 . S
N561 C564 1.314 . S
N561 C565 1.279 . S
C562 C560 1.348 . S
C562 C564 1.353 . S
C562 H604 0.929 . S
C563 C560 1.356 . S
C563 C565 1.358 . S
C563 H605 0.930 . S
C564 N561 1.314 . S
C564 C562 1.353 . S
C564 H606 0.930 . S
C565 N561 1.279 . S
C565 C563 1.358 . S
C565 H607 0.930 . S
C566 C567 1.348 . S
C566 C568 1.356 . S
C566 O591 1.325 . S
C567 C566 1.348 . S
C567 C569 1.353 . S
C567 H608 0.929 . S
C568 C566 1.356 . S
C568 C570 1.358 . S
C568 H609 0.930 . S
C569 C567 1.353 . S
C569 N571 1.314 . S
C569 H610 0.930 . S
C570 C568 1.358 . S
C570 N571 1.279 . S
C570 H611 0.930 . S
N571 C569 1.314 . S
N571 C570 1.279 . S
C572 C574 1.353 . S
C572 N575 1.314 . S
C572 H578 0.930 . S
C573 N575 1.279 . S
C573 C576 1.358 . S
C573 H579 0.930 . S
C574 C572 1.353 . S
C574 C577 1.348 . S
C574 H612 0.929 . S
N575 Li530 1.990 . S
N575 C572 1.314 . S
N575 C573 1.279 . S
C576 C573 1.358 . S
C576 C577 1.356 . S
C576 H613 0.930 . S
C577 C574 1.348 . S
C577 C576 1.356 . S
H578 C572 0.930 . S
H579 C573 0.930 . S
C580 N581 1.314 . S
C580 C582 1.353 . S
C580 H586 0.930 . S
N581 Li531 1.990 . S
N581 C580 1.314 . S
N581 C584 1.279 . S
C582 C580 1.353 . S
C582 C585 1.348 . S
C582 H614 0.929 . S
C583 C584 1.358 . S
C583 C585 1.356 . S
C583 H615 0.930 . S
C584 N581 1.279 . S
C584 C583 1.358 . S
C584 H587 0.930 . S
C585 C582 1.348 . S
C585 C583 1.356 . S
H586 C580 0.930 . S
H587 C584 0.930 . S
O588 Li528 1.956 . S
O588 Li529 1.970 . S
O588 Li530 1.961 . S
O588 C532 1.325 . S
O589 Li528 1.970 . S
O589 Li529 1.956 . S
O589 Li531 1.961 . S
O589 C538 1.325 . S
O590 Li528 1.961 . S
O590 Li530 1.956 . S
O590 Li531 1.970 . S
O590 C560 1.325 . S
O591 Li529 1.961 . S
O591 Li530 1.970 . S
O591 Li531 1.956 . S
O591 C566 1.325 . S
H592 C534 0.929 . S
H593 C535 0.930 . S
H594 C536 0.930 . S
H595 C537 0.930 . S
H596 C539 0.930 . S
H597 C541 0.929 . S
H598 C542 0.930 . S
H599 C543 0.930 . S
H600 C546 0.930 . S
H601 C549 0.929 . S
H602 C554 0.929 . S
H603 C555 0.930 . S
H604 C562 0.929 . S
H605 C563 0.930 . S
H606 C564 0.930 . S
H607 C565 0.930 . S
H608 C567 0.929 . S
H609 C568 0.930 . S
H610 C569 0.930 . S
H611 C570 0.930 . S
H612 C574 0.929 . S
H613 C576 0.930 . S
H614 C582 0.929 . S
H615 C583 0.930 . S
Li616 N633 1.990 . S
Li616 O676 1.956 . S
Li616 O677 1.970 . S
Li616 O678 1.961 . S
Li617 N641 1.990 . S
Li617 O676 1.970 . S
Li617 O677 1.956 . S
Li617 O679 1.961 . S
Li618 N663 1.990 . S
Li618 O676 1.961 . S
Li618 O678 1.956 . S
Li618 O679 1.970 . S
Li619 N669 1.990 . S
Li619 O677 1.961 . S
Li619 O678 1.970 . S
Li619 O679 1.956 . S
C620 C622 1.348 . S
C620 C623 1.356 . S
C620 O676 1.325 . S
N621 C624 1.314 . S
N621 C625 1.279 . S
C622 C620 1.348 . S
C622 C624 1.353 . S
C622 H680 0.929 . S
C623 C620 1.356 . S
C623 C625 1.358 . S
C623 H681 0.930 . S
C624 N621 1.314 . S
C624 C622 1.353 . S
C624 H682 0.930 . S
C625 N621 1.279 . S
C625 C623 1.358 . S
C625 H683 0.930 . S
C626 C629 1.348 . S
C626 C630 1.356 . S
C626 O677 1.325 . S
C627 N628 1.279 . S
C627 C630 1.358 . S
C627 H684 0.930 . S
N628 C627 1.279 . S
N628 C631 1.314 . S
C629 C626 1.348 . S
C629 C631 1.353 . S
C629 H685 0.929 . S
C630 C626 1.356 . S
C630 C627 1.358 . S
C630 H686 0.930 . S
C631 N628 1.314 . S
C631 C629 1.353 . S
C631 H687 0.930 . S
C632 N633 1.314 . S
C632 C637 1.353 . S
C632 H638 0.930 . S
N633 Li616 1.990 . S
N633 C632 1.314 . S
N633 C635 1.279 . S
C634 C635 1.358 . S
C634 C636 1.356 . S
C634 H688 0.930 . S
C635 N633 1.279 . S
C635 C634 1.358 . S
C635 H639 0.930 . S
C636 C634 1.356 . S
C636 C637 1.348 . S
C637 C632 1.353 . S
C637 C636 1.348 . S
C637 H689 0.929 . S
H638 C632 0.930 . S
H639 C635 0.930 . S
C640 N641 1.314 . S
C640 C642 1.353 . S
C640 H646 0.930 . S
N641 Li617 1.990 . S
N641 C640 1.314 . S
N641 C644 1.279 . S
C642 C640 1.353 . S
C642 C645 1.348 . S
C642 H690 0.929 . S
C643 C644 1.358 . S
C643 C645 1.356 . S
C643 H691 0.930 . S
C644 N641 1.279 . S
C644 C643 1.358 . S
C644 H647 0.930 . S
C645 C642 1.348 . S
C645 C643 1.356 . S
H646 C640 0.930 . S
H647 C644 0.930 . S
C648 C650 1.348 . S
C648 C651 1.356 . S
C648 O678 1.325 . S
N649 C652 1.314 . S
N649 C653 1.279 . S
C650 C648 1.348 . S
C650 C652 1.353 . S
C650 H692 0.929 . S
C651 C648 1.356 . S
C651 C653 1.358 . S
C651 H693 0.930 . S
C652 N649 1.314 . S
C652 C650 1.353 . S
C652 H694 0.930 . S
C653 N649 1.279 . S
C653 C651 1.358 . S
C653 H695 0.930 . S
C654 C655 1.348 . S
C654 C656 1.356 . S
C654 O679 1.325 . S
C655 C654 1.348 . S
C655 C657 1.353 . S
C655 H696 0.929 . S
C656 C654 1.356 . S
C656 C658 1.358 . S
C656 H697 0.930 . S
C657 C655 1.353 . S
C657 N659 1.314 . S
C657 H698 0.930 . S
C658 C656 1.358 . S
C658 N659 1.279 . S
C658 H699 0.930 . S
N659 C657 1.314 . S
N659 C658 1.279 . S
C660 C662 1.353 . S
C660 N663 1.314 . S
C660 H666 0.930 . S
C661 N663 1.279 . S
C661 C664 1.358 . S
C661 H667 0.930 . S
C662 C660 1.353 . S
C662 C665 1.348 . S
C662 H700 0.929 . S
N663 Li618 1.990 . S
N663 C660 1.314 . S
N663 C661 1.279 . S
C664 C661 1.358 . S
C664 C665 1.356 . S
C664 H701 0.930 . S
C665 C662 1.348 . S
C665 C664 1.356 . S
H666 C660 0.930 . S
H667 C661 0.930 . S
C668 N669 1.314 . S
C668 C670 1.353 . S
C668 H674 0.930 . S
N669 Li619 1.990 . S
N669 C668 1.314 . S
N669 C672 1.279 . S
C670 C668 1.353 . S
C670 C673 1.348 . S
C670 H702 0.929 . S
C671 C672 1.358 . S
C671 C673 1.356 . S
C671 H703 0.930 . S
C672 N669 1.279 . S
C672 C671 1.358 . S
C672 H675 0.930 . S
C673 C670 1.348 . S
C673 C671 1.356 . S
H674 C668 0.930 . S
H675 C672 0.930 . S
O676 Li616 1.956 . S
O676 Li617 1.970 . S
O676 Li618 1.961 . S
O676 C620 1.325 . S
O677 Li616 1.970 . S
O677 Li617 1.956 . S
O677 Li619 1.961 . S
O677 C626 1.325 . S
O678 Li616 1.961 . S
O678 Li618 1.956 . S
O678 Li619 1.970 . S
O678 C648 1.325 . S
O679 Li617 1.961 . S
O679 Li618 1.970 . S
O679 Li619 1.956 . S
O679 C654 1.325 . S
H680 C622 0.929 . S
H681 C623 0.930 . S
H682 C624 0.930 . S
H683 C625 0.930 . S
H684 C627 0.930 . S
H685 C629 0.929 . S
H686 C630 0.930 . S
H687 C631 0.930 . S
H688 C634 0.930 . S
H689 C637 0.929 . S
H690 C642 0.929 . S
H691 C643 0.930 . S
H692 C650 0.929 . S
H693 C651 0.930 . S
H694 C652 0.930 . S
H695 C653 0.930 . S
H696 C655 0.929 . S
H697 C656 0.930 . S
H698 C657 0.930 . S
H699 C658 0.930 . S
H700 C662 0.929 . S
H701 C664 0.930 . S
H702 C670 0.929 . S
H703 C671 0.930 . S
H704 C712 0.950 . S
H705 C717 0.950 . S
H706 C714 0.950 . S
H707 C716 0.950 . S
H708 C718 0.950 . S
H709 C720 0.950 . S
H710 C722 0.950 . S
H711 C723 0.950 . S
C712 H704 0.950 . S
C712 C713 1.386 . S
C712 C714 1.391 . S
C713 C712 1.386 . S
C713 C717 1.393 . S
C714 H706 0.950 . S
C714 C712 1.391 . S
C714 C715 1.400 . S
C715 C714 1.400 . S
C715 C716 1.398 . S
C715 C721 1.491 . S
C716 H707 0.950 . S
C716 C715 1.398 . S
C716 C717 1.391 . S
C717 H705 0.950 . S
C717 C713 1.393 . S
C717 C716 1.391 . S
C718 H708 0.950 . S
C718 C719 1.386 . S
C718 C720 1.391 . S
C719 C718 1.386 . S
C719 C723 1.393 . S
C720 H709 0.950 . S
C720 C718 1.391 . S
C720 C721 1.400 . S
C721 C715 1.491 . S
C721 C720 1.400 . S
C721 C722 1.398 . S
C722 H710 0.950 . S
C722 C721 1.398 . S
C722 C723 1.391 . S
C723 H711 0.950 . S
C723 C719 1.393 . S
C723 C722 1.391 . S
H724 C732 0.950 . S
H725 C737 0.950 . S
H726 C734 0.950 . S
H727 C736 0.950 . S
H728 C738 0.950 . S
H729 C740 0.950 . S
H730 C742 0.950 . S
H731 C743 0.950 . S
C732 H724 0.950 . S
C732 C733 1.386 . S
C732 C734 1.391 . S
C733 C732 1.386 . S
C733 C737 1.393 . S
C734 H726 0.950 . S
C734 C732 1.391 . S
C734 C735 1.400 . S
C735 C734 1.400 . S
C735 C736 1.398 . S
C735 C741 1.491 . S
C736 H727 0.950 . S
C736 C735 1.398 . S
C736 C737 1.391 . S
C737 H725 0.950 . S
C737 C733 1.393 . S
C737 C736 1.391 . S
C738 H728 0.950 . S
C738 C739 1.386 . S
C738 C740 1.391 . S
C739 C738 1.386 . S
C739 C743 1.393 . S
C740 H729 0.950 . S
C740 C738 1.391 . S
C740 C741 1.400 . S
C741 C735 1.491 . S
C741 C740 1.400 . S
C741 C742 1.398 . S
C742 H730 0.950 . S
C742 C741 1.398 . S
C742 C743 1.391 . S
C743 H731 0.950 . S
C743 C739 1.393 . S
C743 C742 1.391 . S
H744 C752 0.950 . S
H745 C757 0.950 . S
H746 C754 0.950 . S
H747 C756 0.950 1_565 S
H748 C758 0.950 . S
H749 C760 0.950 . S
H750 C762 0.950 1_545 S
H751 C763 0.950 . S
C752 H744 0.950 . S
C752 C753 1.386 . S
C752 C754 1.391 . S
C753 C752 1.386 . S
C753 C757 1.393 . S
C754 H746 0.950 . S
C754 C752 1.391 . S
C754 C755 1.400 . S
C755 C754 1.400 . S
C755 C756 1.398 . S
C755 C761 1.491 1_544 S
C756 H747 0.950 1_545 S
C756 C755 1.398 . S
C756 C757 1.391 . S
C757 H745 0.950 . S
C757 C753 1.393 . S
C757 C756 1.391 . S
C758 H748 0.950 . S
C758 C759 1.386 . S
C758 C760 1.391 . S
C759 C758 1.386 . S
C759 C763 1.393 . S
C760 H749 0.950 . S
C760 C758 1.391 . S
C760 C761 1.400 . S
C761 C755 1.491 1_566 S
C761 C760 1.400 . S
C761 C762 1.398 . S
C762 H750 0.950 1_565 S
C762 C761 1.398 . S
C762 C763 1.391 . S
C763 H751 0.950 . S
C763 C759 1.393 . S
C763 C762 1.391 . S
H764 C772 0.950 . S
H765 C777 0.950 . S
H766 C774 0.950 . S
H767 C776 0.950 1_455 S
H768 C778 0.950 . S
H769 C780 0.950 . S
H770 C782 0.950 1_655 S
H771 C783 0.950 . S
C772 H764 0.950 . S
C772 C773 1.386 . S
C772 C774 1.391 . S
C773 C772 1.386 . S
C773 C777 1.393 . S
C774 H766 0.950 . S
C774 C772 1.391 . S
C774 C775 1.400 . S
C775 C774 1.400 . S
C775 C776 1.398 . S
C775 C781 1.491 1_655 S
C776 H767 0.950 1_655 S
C776 C775 1.398 . S
C776 C777 1.391 . S
C777 H765 0.950 . S
C777 C773 1.393 . S
C777 C776 1.391 . S
C778 H768 0.950 . S
C778 C779 1.386 . S
C778 C780 1.391 . S
C779 C778 1.386 . S
C779 C783 1.393 . S
C780 H769 0.950 . S
C780 C778 1.391 . S
C780 C781 1.400 . S
C781 C775 1.491 1_455 S
C781 C780 1.400 . S
C781 C782 1.398 . S
C782 H770 0.950 1_455 S
C782 C781 1.398 . S
C782 C783 1.391 . S
C783 H771 0.950 . S
C783 C779 1.393 . S
C783 C782 1.391 . S
H784 C792 0.950 . S
H785 C797 0.950 . S
H786 C794 0.950 . S
H787 C796 0.950 . S
H788 C798 0.950 . S
H789 C800 0.950 . S
H790 C802 0.950 . S
H791 C803 0.950 . S
C792 H784 0.950 . S
C792 C793 1.386 . S
C792 C794 1.391 . S
C793 C792 1.386 . S
C793 C797 1.393 . S
C794 H786 0.950 . S
C794 C792 1.391 . S
C794 C795 1.400 . S
C795 C794 1.400 . S
C795 C796 1.398 . S
C795 C801 1.491 1_565 S
C796 H787 0.950 . S
C796 C795 1.398 . S
C796 C797 1.391 . S
C797 H785 0.950 . S
C797 C793 1.393 . S
C797 C796 1.391 . S
C798 H788 0.950 . S
C798 C799 1.386 . S
C798 C800 1.391 . S
C799 C798 1.386 . S
C799 C803 1.393 . S
C800 H789 0.950 . S
C800 C798 1.391 . S
C800 C801 1.400 . S
C801 C795 1.491 1_545 S
C801 C800 1.400 . S
C801 C802 1.398 . S
C802 H790 0.950 . S
C802 C801 1.398 . S
C802 C803 1.391 . S
C803 H791 0.950 . S
C803 C799 1.393 . S
C803 C802 1.391 . S
H804 C812 0.950 . S
H805 C817 0.950 . S
H806 C814 0.950 . S
H807 C816 0.950 1_455 S
H808 C818 0.950 . S
H809 C820 0.950 . S
H810 C822 0.950 1_655 S
H811 C823 0.950 . S
C812 H804 0.950 . S
C812 C813 1.386 . S
C812 C814 1.391 1_556 S
C813 C812 1.386 . S
C813 C817 1.393 . S
C814 H806 0.950 . S
C814 C812 1.391 1_554 S
C814 C815 1.400 1_554 S
C815 C814 1.400 1_556 S
C815 C816 1.398 . S
C815 C821 1.491 1_656 S
C816 H807 0.950 1_655 S
C816 C815 1.398 . S
C816 C817 1.391 . S
C817 H805 0.950 . S
C817 C813 1.393 . S
C817 C816 1.391 . S
C818 H808 0.950 . S
C818 C819 1.386 . S
C818 C820 1.391 1_554 S
C819 C818 1.386 . S
C819 C823 1.393 . S
C820 H809 0.950 . S
C820 C818 1.391 1_556 S
C820 C821 1.400 1_556 S
C821 C815 1.491 1_454 S
C821 C820 1.400 1_554 S
C821 C822 1.398 . S
C822 H810 0.950 1_455 S
C822 C821 1.398 . S
C822 C823 1.391 . S
C823 H811 0.950 . S
C823 C819 1.393 . S
C823 C822 1.391 . S
H824 C832 0.950 . S
H825 C837 0.950 . S
H826 C834 0.950 . S
H827 C836 0.950 . S
H828 C838 0.950 . S
H829 C840 0.950 . S
H830 C842 0.950 . S
H831 C843 0.950 . S
C832 H824 0.950 . S
C832 C833 1.386 . S
C832 C834 1.391 . S
C833 C832 1.386 . S
C833 C837 1.393 . S
C834 H826 0.950 . S
C834 C832 1.391 . S
C834 C835 1.400 . S
C835 C834 1.400 . S
C835 C836 1.398 . S
C835 C841 1.491 . S
C836 H827 0.950 . S
C836 C835 1.398 . S
C836 C837 1.391 . S
C837 H825 0.950 . S
C837 C833 1.393 . S
C837 C836 1.391 . S
C838 H828 0.950 . S
C838 C839 1.386 . S
C838 C840 1.391 . S
C839 C838 1.386 . S
C839 C843 1.393 . S
C840 H829 0.950 . S
C840 C838 1.391 . S
C840 C841 1.400 . S
C841 C835 1.491 . S
C841 C840 1.400 . S
C841 C842 1.398 . S
C842 H830 0.950 . S
C842 C841 1.398 . S
C842 C843 1.391 . S
C843 H831 0.950 . S
C843 C839 1.393 . S
C843 C842 1.391 . S
H844 C852 0.950 . S
H845 C857 0.950 . S
H846 C854 0.950 . S
H847 C856 0.950 . S
H848 C858 0.950 . S
H849 C860 0.950 . S
H850 C862 0.950 . S
H851 C863 0.950 . S
C852 H844 0.950 . S
C852 C853 1.386 . S
C852 C854 1.391 . S
C853 C852 1.386 . S
C853 C857 1.393 . S
C854 H846 0.950 . S
C854 C852 1.391 . S
C854 C855 1.400 . S
C855 C854 1.400 . S
C855 C856 1.398 . S
C855 C861 1.491 . S
C856 H847 0.950 . S
C856 C855 1.398 . S
C856 C857 1.391 . S
C857 H845 0.950 . S
C857 C853 1.393 . S
C857 C856 1.391 . S
C858 H848 0.950 . S
C858 C859 1.386 . S
C858 C860 1.391 . S
C859 C858 1.386 . S
C859 C863 1.393 . S
C860 H849 0.950 . S
C860 C858 1.391 . S
C860 C861 1.400 . S
C861 C855 1.491 . S
C861 C860 1.400 . S
C861 C862 1.398 . S
C862 H850 0.950 . S
C862 C861 1.398 . S
C862 C863 1.391 . S
C863 H851 0.950 . S
C863 C859 1.393 . S
C863 C862 1.391 . S
H864 C872 0.950 . S
H865 C877 0.950 . S
H866 C874 0.950 . S
H867 C876 0.950 . S
H868 C878 0.950 . S
H869 C880 0.950 . S
H870 C882 0.950 . S
H871 C883 0.950 . S
C872 H864 0.950 . S
C872 C873 1.386 . S
C872 C874 1.391 . S
C873 C872 1.386 . S
C873 C877 1.393 . S
C874 H866 0.950 . S
C874 C872 1.391 . S
C874 C875 1.400 . S
C875 C874 1.400 . S
C875 C876 1.398 . S
C875 C881 1.491 . S
C876 H867 0.950 . S
C876 C875 1.398 . S
C876 C877 1.391 . S
C877 H865 0.950 . S
C877 C873 1.393 . S
C877 C876 1.391 . S
C878 H868 0.950 . S
C878 C879 1.386 . S
C878 C880 1.391 . S
C879 C878 1.386 . S
C879 C883 1.393 . S
C880 H869 0.950 . S
C880 C878 1.391 . S
C880 C881 1.400 . S
C881 C875 1.491 . S
C881 C880 1.400 . S
C881 C882 1.398 . S
C882 H870 0.950 . S
C882 C881 1.398 . S
C882 C883 1.391 . S
C883 H871 0.950 . S
C883 C879 1.393 . S
C883 C882 1.391 . S
H884 C892 0.950 . S
H885 C897 0.950 . S
H886 C894 0.949 1_554 S
H887 C896 0.950 . S
H888 C898 0.950 . S
H889 C900 0.969 . S
H890 C902 0.950 . S
H891 C903 0.950 . S
C892 H884 0.950 . S
C892 C893 1.386 . S
C892 C894 1.392 . S
C893 C892 1.386 . S
C893 C897 1.393 . S
C894 H886 0.949 1_556 S
C894 C892 1.392 . S
C894 C895 1.400 . S
C895 C894 1.400 . S
C895 C896 1.398 . S
C895 C901 1.491 1_556 S
C896 H887 0.950 . S
C896 C895 1.398 . S
C896 C897 1.391 . S
C897 H885 0.950 . S
C897 C893 1.393 . S
C897 C896 1.391 . S
C898 H888 0.950 . S
C898 C899 1.386 . S
C898 C900 1.379 1_554 S
C899 C898 1.386 . S
C899 C903 1.393 . S
C900 H889 0.969 . S
C900 C898 1.379 1_556 S
C900 C901 1.394 1_556 S
C901 C895 1.491 1_554 S
C901 C900 1.394 1_554 S
C901 C902 1.398 . S
C902 H890 0.950 . S
C902 C901 1.398 . S
C902 C903 1.391 . S
C903 H891 0.950 . S
C903 C899 1.393 . S
C903 C902 1.391 . S
H904 C912 0.950 . S
H905 C917 0.950 . S
H906 C914 0.950 . S
H907 C916 0.950 . S
H908 C918 0.950 . S
H909 C920 0.950 . S
H910 C922 0.950 . S
H911 C923 0.950 . S
C912 H904 0.950 . S
C912 C913 1.386 . S
C912 C914 1.391 1_565 S
C913 C912 1.386 . S
C913 C917 1.393 . S
C914 H906 0.950 . S
C914 C912 1.391 1_545 S
C914 C915 1.400 1_545 S
C915 C914 1.400 1_565 S
C915 C916 1.398 . S
C915 C921 1.491 1_565 S
C916 H907 0.950 . S
C916 C915 1.398 . S
C916 C917 1.391 . S
C917 H905 0.950 . S
C917 C913 1.393 . S
C917 C916 1.391 . S
C918 H908 0.950 . S
C918 C919 1.386 . S
C918 C920 1.391 1_545 S
C919 C918 1.386 . S
C919 C923 1.393 . S
C920 H909 0.950 . S
C920 C918 1.391 1_565 S
C920 C921 1.400 1_565 S
C921 C915 1.491 1_545 S
C921 C920 1.400 1_545 S
C921 C922 1.398 . S
C922 H910 0.950 . S
C922 C921 1.398 . S
C922 C923 1.391 . S
C923 H911 0.950 . S
C923 C919 1.393 . S
C923 C922 1.391 . S
H924 C932 0.950 . S
H925 C937 0.950 . S
H926 C934 0.950 1_545 S
H927 C936 0.950 . S
H928 C938 0.950 . S
H929 C940 0.950 1_565 S
H930 C942 0.950 . S
H931 C943 0.950 . S
C932 H924 0.950 . S
C932 C933 1.386 . S
C932 C934 1.391 . S
C933 C932 1.386 . S
C933 C937 1.393 . S
C934 H926 0.950 1_565 S
C934 C932 1.391 . S
C934 C935 1.400 . S
C935 C934 1.400 . S
C935 C936 1.398 1_655 S
C935 C941 1.491 1_665 S
C936 H927 0.950 . S
C936 C935 1.398 1_455 S
C936 C937 1.391 1_455 S
C937 H925 0.950 . S
C937 C933 1.393 . S
C937 C936 1.391 1_655 S
C938 H928 0.950 . S
C938 C939 1.386 . S
C938 C940 1.391 . S
C939 C938 1.386 . S
C939 C943 1.393 . S
C940 H929 0.950 1_545 S
C940 C938 1.391 . S
C940 C941 1.400 . S
C941 C935 1.491 1_445 S
C941 C940 1.400 . S
C941 C942 1.398 1_455 S
C942 H930 0.950 . S
C942 C941 1.398 1_655 S
C942 C943 1.391 1_655 S
C943 H931 0.950 . S
C943 C939 1.393 . S
C943 C942 1.391 1_455 S
H944 C952 0.950 . S
H945 C957 0.950 . S
H946 C954 0.950 . S
H947 C956 0.950 . S
H948 C958 0.950 . S
H949 C960 0.950 . S
H950 C962 0.950 . S
H951 C963 0.950 . S
C952 H944 0.950 . S
C952 C953 1.386 . S
C952 C954 1.391 . S
C953 C952 1.386 . S
C953 C957 1.393 . S
C954 H946 0.950 . S
C954 C952 1.391 . S
C954 C955 1.400 . S
C955 C954 1.400 . S
C955 C956 1.398 1_655 S
C955 C961 1.491 1_655 S
C956 H947 0.950 . S
C956 C955 1.398 1_455 S
C956 C957 1.391 1_455 S
C957 H945 0.950 . S
C957 C953 1.393 . S
C957 C956 1.391 1_655 S
C958 H948 0.950 . S
C958 C959 1.386 . S
C958 C960 1.391 . S
C959 C958 1.386 . S
C959 C963 1.393 . S
C960 H949 0.950 . S
C960 C958 1.391 . S
C960 C961 1.400 . S
C961 C955 1.491 1_455 S
C961 C960 1.400 . S
C961 C962 1.398 1_455 S
C962 H950 0.950 . S
C962 C961 1.398 1_655 S
C962 C963 1.391 1_655 S
C963 H951 0.950 . S
C963 C959 1.393 . S
C963 C962 1.391 1_455 S
H964 C972 0.950 . S
H965 C977 0.950 . S
H966 C974 0.950 . S
H967 C976 0.950 . S
H968 C978 0.950 . S
H969 C980 0.950 . S
H970 C982 0.950 . S
H971 C983 0.950 . S
C972 H964 0.950 . S
C972 C973 1.386 . S
C972 C974 1.391 . S
C973 C972 1.386 . S
C973 C977 1.393 . S
C974 H966 0.950 . S
C974 C972 1.391 . S
C974 C975 1.400 . S
C975 C974 1.400 . S
C975 C976 1.398 . S
C975 C981 1.491 . S
C976 H967 0.950 . S
C976 C975 1.398 . S
C976 C977 1.391 . S
C977 H965 0.950 . S
C977 C973 1.393 . S
C977 C976 1.391 . S
C978 H968 0.950 . S
C978 C979 1.386 . S
C978 C980 1.391 . S
C979 C978 1.386 . S
C979 C983 1.393 . S
C980 H969 0.950 . S
C980 C978 1.391 . S
C980 C981 1.400 . S
C981 C975 1.491 . S
C981 C980 1.400 . S
C981 C982 1.398 . S
C982 H970 0.950 . S
C982 C981 1.398 . S
C982 C983 1.391 . S
C983 H971 0.950 . S
C983 C979 1.393 . S
C983 C982 1.391 . S
H984 C992 0.950 . S
H985 C997 0.950 . S
H986 C994 0.950 . S
H987 C996 0.950 . S
H988 C998 0.950 . S
H989 C1000 0.950 . S
H990 C1002 0.950 . S
H991 C1003 0.950 . S
C992 H984 0.950 . S
C992 C993 1.386 . S
C992 C994 1.391 . S
C993 C992 1.386 . S
C993 C997 1.393 . S
C994 H986 0.950 . S
C994 C992 1.391 . S
C994 C995 1.400 . S
C995 C994 1.400 . S
C995 C996 1.398 . S
C995 C1001 1.491 1_554 S
C996 H987 0.950 . S
C996 C995 1.398 . S
C996 C997 1.391 . S
C997 H985 0.950 . S
C997 C993 1.393 . S
C997 C996 1.391 . S
C998 H988 0.950 . S
C998 C999 1.386 . S
C998 C1000 1.391 . S
C999 C998 1.386 . S
C999 C1003 1.393 . S
C1000 H989 0.950 . S
C1000 C998 1.391 . S
C1000 C1001 1.400 . S
C1001 C995 1.491 1_556 S
C1001 C1000 1.400 . S
C1001 C1002 1.398 . S
C1002 H990 0.950 . S
C1002 C1001 1.398 . S
C1002 C1003 1.391 . S
C1003 H991 0.950 . S
C1003 C999 1.393 . S
C1003 C1002 1.391 . S
H1004 C1012 0.950 . S
H1005 C1017 0.950 . S
H1006 C1014 0.950 . S
H1007 C1016 0.950 . S
H1008 C1018 0.950 . S
H1009 C1020 0.950 . S
H1010 C1022 0.950 . S
H1011 C1023 0.950 . S
C1012 H1004 0.950 . S
C1012 C1013 1.386 . S
C1012 C1014 1.391 . S
C1013 C1012 1.386 . S
C1013 C1017 1.393 . S
C1014 H1006 0.950 . S
C1014 C1012 1.391 . S
C1014 C1015 1.400 . S
C1015 C1014 1.400 . S
C1015 C1016 1.398 . S
C1015 C1021 1.491 . S
C1016 H1007 0.950 . S
C1016 C1015 1.398 . S
C1016 C1017 1.391 . S
C1017 H1005 0.950 . S
C1017 C1013 1.393 . S
C1017 C1016 1.391 . S
C1018 H1008 0.950 . S
C1018 C1019 1.386 . S
C1018 C1020 1.391 . S
C1019 C1018 1.386 . S
C1019 C1023 1.393 . S
C1020 H1009 0.950 . S
C1020 C1018 1.391 . S
C1020 C1021 1.400 . S
C1021 C1015 1.491 . S
C1021 C1020 1.400 . S
C1021 C1022 1.398 . S
C1022 H1010 0.950 . S
C1022 C1021 1.398 . S
C1022 C1023 1.391 . S
C1023 H1011 0.950 . S
C1023 C1019 1.393 . S
C1023 C1022 1.391 . S
C713 C497 1.498 . S
C719 C49 1.498 . S
C733 C645 1.498 . S
C739 C108 1.499 . S
C753 C233 1.499 . S
C759 C557 1.498 . S
C773 C321 1.498 . S
C779 C372 1.499 . S
C793 C548 1.499 . S
C799 C29 1.500 . S
C813 C117 1.499 . S
C819 C409 1.500 . S
C833 C489 1.498 . S
C839 C196 1.499 . S
C853 C313 1.499 . S
C859 C665 1.500 . S
C873 C381 1.498 . S
C879 C460 1.498 . S
C893 C145 1.499 . S
C899 C225 1.500 . S
C913 C293 1.498 . S
C919 C205 1.499 . S
C933 C284 1.498 . S
C939 C57 1.499 . S
C953 C137 1.499 . S
C959 C20 1.500 . S
C973 C636 1.499 . S
C979 C577 1.500 . S
C993 C401 1.499 . S
C999 C585 1.500 . S
C1013 C469 1.499 . S
C1019 C673 1.500 . S
