# Generated by pormake.
# Topology nbo, (4)-cn, num edge types: 1
# Building blocks:
#     Node 0, Type 0, BuildingBlock: KOZSID_clean_sbu_0, # of connection points: 4
#     Node 1, Type 0, BuildingBlock: KOZSID_clean_sbu_0, # of connection points: 4
#     Node 2, Type 0, BuildingBlock: KOZSID_clean_sbu_0, # of connection points: 4
#     Node 3, Type 0, BuildingBlock: KOZSID_clean_sbu_0, # of connection points: 4
#     Node 4, Type 0, BuildingBlock: KOZSID_clean_sbu_0, # of connection points: 4
#     Node 5, Type 0, BuildingBlock: KOZSID_clean_sbu_0, # of connection points: 4
#     Edge 6, Type (0, 0), BuildingBlock: XIVTED_clean_linker_0, # of connection points: 2
#     Edge 7, Type (0, 0), BuildingBlock: XIVTED_clean_linker_0, # of connection points: 2
#     Edge 8, Type (0, 0), BuildingBlock: XIVTED_clean_linker_0, # of connection points: 2
#     Edge 9, Type (0, 0), BuildingBlock: XIVTED_clean_linker_0, # of connection points: 2
#     Edge 10, Type (0, 0), BuildingBlock: XIVTED_clean_linker_0, # of connection points: 2
#     Edge 11, Type (0, 0), BuildingBlock: XIVTED_clean_linker_0, # of connection points: 2
#     Edge 12, Type (0, 0), BuildingBlock: XIVTED_clean_linker_0, # of connection points: 2
#     Edge 13, Type (0, 0), BuildingBlock: XIVTED_clean_linker_0, # of connection points: 2
#     Edge 14, Type (0, 0), BuildingBlock: XIVTED_clean_linker_0, # of connection points: 2
#     Edge 15, Type (0, 0), BuildingBlock: XIVTED_clean_linker_0, # of connection points: 2
#     Edge 16, Type (0, 0), BuildingBlock: XIVTED_clean_linker_0, # of connection points: 2
#     Edge 17, Type (0, 0), BuildingBlock: XIVTED_clean_linker_0, # of connection points: 2
# Relax obj value: 0.000
# Max RMSD: 0.000
# Mean RMSD: 0.000
data_MOF--net-nbo--node1-KOZSID_clean_sbu_0--edge1-XIVTED_clean_linker_0
_symmetry_space_group_name_H-M    P1
_symmetry_Int_Tables_number       1
_symmetry_cell_setting            triclinic
loop_
_symmetry_equiv_pos_as_xyz
'x, y, z'
_cell_length_a     33.567053
_cell_length_b     39.405708
_cell_length_c     36.604033
_cell_angle_alpha  106.66447
_cell_angle_beta   107.53687
_cell_angle_gamma 107.12483
loop_
_atom_site_label
_atom_site_type_symbol
_atom_site_fract_x
_atom_site_fract_y
_atom_site_fract_z
_atom_type_partial_charge
C0 C 0.89738 0.97702 0.46836 0.0
C1 C 0.85843 0.95567 0.43053 0.0
C2 C 0.87339 0.94955 0.3995 0.0
C3 C 0.92039 0.9672 0.42008 0.0
N4 N 0.93643 0.98388 0.46246 0.0
Co5 Co 0.00231 0.01221 0.50462 0.0
N6 N 0.02423 1.00555 0.45885 0.0
C7 C 0.99809 0.98887 0.41686 0.0
C8 C 0.02302 0.98956 0.39335 0.0
C9 C 0.0678 1.00717 0.42197 0.0
C10 C 0.06749 0.01581 0.46142 0.0
N11 N 0.06833 0.04013 0.54675 0.0
C12 C 0.10735 0.04523 0.54089 0.0
C13 C 0.14607 0.06373 0.57899 0.0
C14 C 0.13105 0.07071 0.60989 0.0
C15 C 0.08425 0.05582 0.58915 0.0
N16 N 0.98025 0.01924 0.55039 0.0
C17 C 0.00645 0.03737 0.59237 0.0
C18 C 0.98169 0.03912 0.61597 0.0
C19 C 0.93691 0.02149 0.58741 0.0
C20 C 0.93697 0.00972 0.54783 0.0
N21 N 0.00289 0.96198 0.50509 0.0
C22 C 0.00391 0.89064 0.50576 0.0
C23 C 0.02007 0.92324 0.54321 0.0
C24 C 0.01939 0.95826 0.54217 0.0
C25 C 0.98745 0.89457 0.46796 0.0
C26 C 0.98719 0.93009 0.46835 0.0
N27 N 0.00172 0.06247 0.50411 0.0
C28 C 0.01982 0.13064 0.54095 0.0
C29 C 0.00114 0.13369 0.50303 0.0
C30 C 0.98239 0.10045 0.46572 0.0
C31 C 0.98265 0.06541 0.46698 0.0
C32 C 0.02006 0.09514 0.54076 0.0
H33 H 0.96699 0.0411 0.43745 0.0
H34 H 0.03533 0.0949 0.57067 0.0
H35 H 0.03239 0.98191 0.57182 0.0
H36 H 0.97433 0.93106 0.43848 0.0
C37 C 0.95021 0.97082 0.40043 0.0
C38 C 0.89538 0.99158 0.50882 0.0
C39 C 0.10894 0.03128 0.50003 0.0
C40 C 0.0543 0.05378 0.60865 0.0
H41 H 0.82287 0.94624 0.42587 0.0
H42 H 0.85251 0.93484 0.36591 0.0
H43 H 0.01016 0.97779 0.35943 0.0
H44 H 0.09734 0.01212 0.41461 0.0
H45 H 0.18152 0.07064 0.58433 0.0
H46 H 0.1517 0.08385 0.6435 0.0
H47 H 0.9947 0.05249 0.64988 0.0
H48 H 0.9077 0.0185 0.59505 0.0
H49 H 0.03269 0.92176 0.57339 0.0
H50 H 0.97528 0.87052 0.43803 0.0
H51 H 0.03497 0.15573 0.57069 0.0
H52 H 0.96689 0.10127 0.43557 0.0
C53 C 0.54602 0.03664 0.09638 0.0
C54 C 0.58871 0.05184 0.12992 0.0
C55 C 0.62082 0.05905 0.11425 0.0
C56 C 0.59612 0.04746 0.07216 0.0
N57 N 0.55012 0.03385 0.05998 0.0
Co58 Co 0.50154 0.00933 0.00076 0.0
N59 N 0.54887 0.01796 0.97751 0.0
C60 C 0.59502 0.03652 0.99976 0.0
C61 C 0.61872 0.04048 0.97552 0.0
C62 C 0.58572 0.02406 0.93534 0.0
C63 C 0.54364 0.01075 0.93744 0.0
N64 N 0.45291 0.98281 0.94152 0.0
C65 C 0.45684 0.97724 0.90472 0.0
C66 C 0.41428 0.95648 0.87045 0.0
C67 C 0.38221 0.94933 0.88624 0.0
C68 C 0.40694 0.96579 0.92902 0.0
N69 N 0.45423 1.00258 0.02403 0.0
C70 C 0.40823 0.98836 0.00211 0.0
C71 C 0.38458 0.98856 0.02678 0.0
C72 C 0.41741 1.00342 0.06684 0.0
C73 C 0.45931 0.01102 0.06418 0.0
N74 N 0.50198 0.06079 0.00406 0.0
C75 C 0.50314 0.13327 0.00614 0.0
C76 C 0.46281 0.0991 0.98234 0.0
C77 C 0.46286 0.06358 0.98207 0.0
C78 C 0.54278 0.13068 0.02931 0.0
C79 C 0.54155 0.09444 0.0276 0.0
N80 N 0.50109 0.95795 0.9975 0.0
C81 C 0.46112 0.89208 0.98892 0.0
C82 C 0.50137 0.88618 0.99675 0.0
C83 C 0.54131 0.91664 0.00436 0.0
C84 C 0.54048 0.952 0.00477 0.0
C85 C 0.46164 0.92775 0.98912 0.0
H86 H 0.5723 0.97423 0.0115 0.0
H87 H 0.42971 0.93026 0.98261 0.0
H88 H 0.43077 0.03879 0.96365 0.0
H89 H 0.5732 0.09442 0.04531 0.0
C90 C 0.61504 0.04888 0.04326 0.0
C91 C 0.50252 0.02405 0.10025 0.0
C92 C 0.49969 0.99282 0.90079 0.0
C93 C 0.38801 0.97044 0.95824 0.0
H94 H 0.59615 0.05663 0.1623 0.0
H95 H 0.65774 0.07064 0.13136 0.0
H96 H 0.65558 0.05397 0.98587 0.0
H97 H 0.59197 0.02253 0.90771 0.0
H98 H 0.40714 0.94839 0.83753 0.0
H99 H 0.34521 0.93527 0.86871 0.0
H100 H 0.34773 0.97771 0.01669 0.0
H101 H 0.41109 1.00712 0.09473 0.0
H102 H 0.43108 0.09979 0.96431 0.0
H103 H 0.57494 0.1564 0.04801 0.0
H104 H 0.42913 0.86913 0.98225 0.0
H105 H 0.57345 0.91356 0.01092 0.0
C106 C 0.10459 0.54233 0.04057 0.0
C107 C 0.1428 0.57747 0.06627 0.0
C108 C 0.12677 0.60562 0.07373 0.0
C109 C 0.0799 0.58611 0.05258 0.0
N110 N 0.06499 0.54714 0.03229 0.0
Co111 Co -0.00044 0.50759 0.99971 0.0
N112 N 0.97634 0.54935 0.00645 0.0
C113 C 0.00192 0.5883 0.02439 0.0
C114 C 0.9764 0.6097 0.02192 0.0
C115 C 0.9318 0.58283 0.00152 0.0
C116 C 0.93274 0.54646 0.99328 0.0
N117 N 0.93393 0.46798 0.96903 0.0
C118 C 0.89438 0.47279 0.96298 0.0
C119 C 0.85639 0.43716 0.94404 0.0
C120 C 0.8724 0.40897 0.93756 0.0
C121 C 0.91906 0.42878 0.95331 0.0
N122 N 0.02302 0.46591 0.99093 0.0
C123 C 0.99751 0.42704 0.96933 0.0
C124 C 0.02296 0.40579 0.96576 0.0
C125 C 0.06751 0.43271 0.98576 0.0
C126 C 0.06662 0.46899 0.00082 0.0
N127 N 0.99844 0.5056 0.05307 0.0
C128 C 0.99732 0.50299 0.12912 0.0
C129 C 0.98892 0.4696 0.09573 0.0
C130 C 0.98928 0.47146 0.05828 0.0
C131 C 0.00597 0.53765 0.12348 0.0
C132 C 0.00667 0.53836 0.08575 0.0
N133 N 0.00072 0.50967 0.94649 0.0
C134 C 0.97766 0.47797 0.87166 0.0
C135 C 0.00166 0.51318 0.87089 0.0
C136 C 0.02558 0.54647 0.9087 0.0
C137 C 0.02477 0.54407 0.94579 0.0
C138 C 0.97759 0.47688 0.90948 0.0
H139 H 0.04394 0.5705 0.97351 0.0
H140 H 0.95847 0.44921 0.90797 0.0
H141 H 0.98215 0.44484 0.03409 0.0
H142 H 0.01387 0.56583 0.08385 0.0
C143 C 0.04955 0.60386 0.04681 0.0
C144 C 0.10784 0.50557 0.02308 0.0
C145 C 0.8915 0.51041 0.97578 0.0
C146 C 0.94972 0.41139 0.9535 0.0
H147 H 0.17861 0.58233 0.0775 0.0
H148 H 0.14695 0.63675 0.09116 0.0
H149 H 0.98872 0.64111 0.03457 0.0
H150 H 0.90192 0.58934 0.99462 0.0
H151 H 0.82075 0.43176 0.9362 0.0
H152 H 0.85245 0.37774 0.92357 0.0
H153 H 0.01058 0.37449 0.9501 0.0
H154 H 0.09711 0.42621 0.98838 0.0
H155 H 0.98264 0.44206 0.09844 0.0
H156 H 0.01178 0.56425 0.14788 0.0
H157 H 0.9583 0.45141 0.8431 0.0
H158 H 0.04536 0.57431 0.90987 0.0
C159 C 0.56188 0.50932 0.95454 0.0
C160 C 0.55863 0.49754 0.91377 0.0
C161 C 0.51298 0.48005 0.88753 0.0
C162 C 0.49105 0.48239 0.91362 0.0
N163 N 0.51993 0.50099 0.95501 0.0
Co164 Co 0.50257 0.51068 0.00367 0.0
N165 N 0.43537 0.48456 0.96495 0.0
C166 C 0.41628 0.46846 0.9224 0.0
C167 C 0.36925 0.45358 0.9045 0.0
C168 C 0.35753 0.46127 0.93757 0.0
C169 C 0.39834 0.48061 0.97383 0.0
N170 N 0.48508 0.51923 0.05231 0.0
C171 C 0.44318 0.51141 0.05283 0.0
C172 C 0.44639 0.52264 0.09358 0.0
C173 C 0.49194 0.53827 0.11973 0.0
C174 C 0.51385 0.5358 0.09363 0.0
N175 N 0.56985 0.538 0.04239 0.0
C176 C 0.58869 0.55532 0.08492 0.0
C177 C 0.63567 0.5705 0.10308 0.0
C178 C 0.64771 0.56223 0.0703 0.0
C179 C 0.60714 0.54262 0.03369 0.0
N180 N 0.5031 0.56128 0.00354 0.0
C181 C 0.50288 0.63283 0.00326 0.0
C182 C 0.51958 0.62892 0.04099 0.0
C183 C 0.51961 0.59328 0.04042 0.0
C184 C 0.48625 0.6003 0.96569 0.0
C185 C 0.48642 0.5651 0.96654 0.0
N186 N 0.50206 0.46002 0.00383 0.0
C187 C 0.52904 0.42299 0.04003 0.0
C188 C 0.50243 0.3882 0.00378 0.0
C189 C 0.47556 0.39024 0.96758 0.0
C190 C 0.47623 0.42606 0.96819 0.0
C191 C 0.52802 0.45806 0.03946 0.0
H192 H 0.45553 0.42542 0.93933 0.0
H193 H 0.54886 0.48322 0.06827 0.0
H194 H 0.53314 0.59233 0.07025 0.0
H195 H 0.47258 0.54134 0.9368 0.0
C196 C 0.44349 0.468 0.90019 0.0
C197 C 0.6055 0.52697 0.99161 0.0
C198 C 0.40009 0.49588 0.01583 0.0
C199 C 0.56135 0.55273 0.10701 0.0
H200 H 0.58641 0.50084 0.90398 0.0
H201 H 0.49759 0.46702 0.85349 0.0
H202 H 0.34627 0.4393 0.87136 0.0
H203 H 0.32291 0.45401 0.93529 0.0
H204 H 0.41892 0.52091 0.10357 0.0
H205 H 0.50738 0.55138 0.15377 0.0
H206 H 0.65838 0.58434 0.13627 0.0
H207 H 0.68251 0.56888 0.07347 0.0
H208 H 0.53323 0.65342 0.07093 0.0
H209 H 0.47238 0.60174 0.93563 0.0
H210 H 0.55124 0.42354 0.06884 0.0
H211 H 0.45358 0.36431 0.93872 0.0
C212 C 0.04441 0.53907 0.5962 0.0
C213 C 0.08724 0.55698 0.63001 0.0
C214 C 0.11905 0.56385 0.61391 0.0
C215 C 0.0939 0.54986 0.57143 0.0
N216 N 0.04791 0.53501 0.5594 0.0
Co217 Co 0.9986 0.50969 0.50049 0.0
N218 N 0.04537 0.51712 0.4765 0.0
C219 C 0.09167 0.53374 0.49807 0.0
C220 C 0.11483 0.53519 0.47308 0.0
C221 C 0.08139 0.51913 0.43317 0.0
C222 C 0.03959 0.50901 0.43619 0.0
N223 N 0.94926 0.48377 0.44151 0.0
C224 C 0.9526 0.47893 0.40448 0.0
C225 C 0.90954 0.46072 0.37084 0.0
C226 C 0.87796 0.4538 0.38712 0.0
C227 C 0.90328 0.46828 0.4296 0.0
N228 N 0.95184 0.50285 0.52458 0.0
C229 C 0.90558 0.48708 0.50313 0.0
C230 C 0.88245 0.48552 0.52813 0.0
C231 C 0.91586 0.50075 0.56795 0.0
C232 C 0.95761 0.51077 0.56485 0.0
N233 N 0.9993 0.56118 0.50368 0.0
C234 C 0.00013 0.63351 0.50498 0.0
C235 C 0.95879 0.60079 0.48904 0.0
C236 C 0.95917 0.56532 0.48863 0.0
C237 C 0.04107 0.62939 0.52083 0.0
C238 C 0.03987 0.59338 0.51999 0.0
N239 N 0.99791 0.45822 0.49737 0.0
C240 C 0.95676 0.39146 0.48559 0.0
C241 C 0.99753 0.38646 0.49728 0.0
C242 C 0.03839 0.41776 0.50835 0.0
C243 C 0.03785 0.45312 0.50844 0.0
C244 C 0.95766 0.42713 0.48545 0.0
H245 H 0.0703 0.476 0.51811 0.0
H246 H 0.92535 0.42888 0.47586 0.0
H247 H 0.92648 0.54162 0.47574 0.0
H248 H 0.07226 0.59225 0.53232 0.0
C249 C 0.11241 0.54849 0.54189 0.0
C250 C 0.00151 0.5253 0.60056 0.0
C251 C 0.99553 0.49305 0.40002 0.0
C252 C 0.88486 0.47098 0.45925 0.0
H253 H 0.09465 0.56367 0.66279 0.0
H254 H 0.15607 0.57662 0.63102 0.0
H255 H 0.15164 0.54705 0.4828 0.0
H256 H 0.08715 0.5158 0.40505 0.0
H257 H 0.9015 0.45406 0.338 0.0
H258 H 0.84091 0.44106 0.37017 0.0
H259 H 0.84563 0.47346 0.51839 0.0
H260 H 0.91006 0.50313 0.59592 0.0
H261 H 0.92604 0.60244 0.47709 0.0
H262 H 0.0741 0.65362 0.53313 0.0
H263 H 0.92414 0.36781 0.47619 0.0
H264 H 0.07092 0.41533 0.51791 0.0
C265 C 0.60091 0.03462 0.53474 0.0
C266 C 0.6402 0.06931 0.55818 0.0
C267 C 0.62579 0.09847 0.56588 0.0
C268 C 0.57876 0.07999 0.54701 0.0
N269 N 0.56218 0.0407 0.52816 0.0
Co270 Co 0.49604 1.00235 0.4973 0.0
N271 N 0.4749 0.04543 0.50664 0.0
C272 C 0.50149 0.08426 0.52614 0.0
C273 C 0.47706 0.10662 0.52679 0.0
C274 C 0.43213 0.08056 0.50718 0.0
C275 C 0.43183 0.04365 0.49606 0.0
N276 N 0.42979 0.96404 0.4665 0.0
C277 C 0.39104 0.97 0.46141 0.0
C278 C 0.35197 0.93499 0.44027 0.0
C279 C 0.36649 0.90602 0.4315 0.0
C280 C 0.41335 0.92473 0.44801 0.0
N281 N 0.51733 0.95928 0.48796 0.0
C282 C 0.49069 0.92049 0.46766 0.0
C283 C 0.51499 0.89813 0.46488 0.0
C284 C 0.55992 0.92414 0.48418 0.0
C285 C 0.5604 0.96106 0.49787 0.0
N286 N 0.49571 1.00031 0.5508 0.0
C287 C 0.4953 0.9974 0.62678 0.0
C288 C 0.4771 0.96328 0.59047 0.0
C289 C 0.47752 0.96539 0.55314 0.0
C290 C 0.51347 0.03302 0.62434 0.0
C291 C 0.51337 0.0338 0.58641 0.0
N292 N 0.4964 1.00441 0.44375 0.0
C293 C 0.47936 0.97189 0.37034 0.0
C294 C 0.49706 0.00757 0.36774 0.0
C295 C 0.51455 0.0416 0.4041 0.0
C296 C 0.51434 0.03935 0.44141 0.0
C297 C 0.47904 0.97101 0.40815 0.0
H298 H 0.52893 0.06637 0.4679 0.0
H299 H 0.46476 0.94291 0.40778 0.0
H300 H 0.46274 0.93835 0.52658 0.0
H301 H 0.5278 0.06185 0.58672 0.0
C302 C 0.54937 0.09882 0.54482 0.0
C303 C 0.60229 0.9969 0.518 0.0
C304 C 0.38997 0.00802 0.47786 0.0
C305 C 0.44286 0.90605 0.44956 0.0
H306 H 0.67563 0.07313 0.56802 0.0
H307 H 0.64704 0.12949 0.58252 0.0
H308 H 0.49034 0.1381 0.54058 0.0
H309 H 0.40287 0.0879 0.50244 0.0
H310 H 0.31661 0.93045 0.43282 0.0
H311 H 0.34547 0.87493 0.41625 0.0
H312 H 0.50158 0.86671 0.44962 0.0
H313 H 0.58887 0.91664 0.48688 0.0
H314 H 0.46196 0.93496 0.59059 0.0
H315 H 0.52838 0.06028 0.65174 0.0
H316 H 0.46618 0.94454 0.34352 0.0
H317 H 0.52801 0.07011 0.40396 0.0
H318 H 0.02523 0.1681 0.45317 0.0
H319 H 0.95293 0.34228 0.53034 0.0
H320 H 0.97713 0.1845 0.55095 0.0
H321 H 0.04226 0.34558 0.46664 0.0
H322 H 0.95389 0.2808 0.53212 0.0
H323 H 0.02433 0.22961 0.45166 0.0
C324 C 0.01434 0.18462 0.47422 0.0
C325 C 0.00123 0.1712 0.50223 0.0
C326 C 0.97333 0.29503 0.51782 0.0
C327 C -2e-05 0.24151 0.50058 0.0
C328 C 0.97255 0.32994 0.51654 0.0
C329 C 0.99754 0.34904 0.49829 0.0
C330 C 0.99876 0.27877 0.50018 0.0
C331 C 0.0228 0.33198 0.4813 0.0
C332 C 0.01408 0.2198 0.47351 0.0
C333 C 0.98786 0.19396 0.52912 0.0
N334 N 0.02256 0.29772 0.48244 0.0
N335 N 0.9873 0.22788 0.52745 0.0
H336 H 0.85211 0.03416 0.48285 0.0
H337 H 0.65669 0.96953 0.562 0.0
H338 H 0.84036 0.94981 0.53676 0.0
H339 H 0.64585 0.02169 0.47292 0.0
H340 H 0.72842 0.96748 0.55969 0.0
H341 H 0.78026 0.03542 0.48505 0.0
C342 C 0.83416 0.01593 0.49513 0.0
C343 C 0.85183 0.99205 0.5099 0.0
C344 C 0.71025 0.97923 0.54055 0.0
C345 C 0.77033 0.99337 0.51279 0.0
C346 C 0.66956 0.98041 0.54192 0.0
C347 C 0.64563 0.99546 0.51731 0.0
C348 C 0.72718 0.9938 0.51488 0.0
C349 C 0.66354 0.00973 0.49215 0.0
C350 C 0.79332 0.01658 0.49636 0.0
C351 C 0.82766 0.9688 0.52545 0.0
N352 N 0.7034 0.00864 0.49162 0.0
N353 N 0.78812 0.97019 0.52675 0.0
H354 H 0.94126 0.64586 0.44468 0.0
H355 H 0.06866 0.8787 0.56149 0.0
H356 H 0.05978 0.70787 0.56451 0.0
H357 H 0.93968 0.81621 0.45081 0.0
H358 H 0.06772 0.81658 0.56176 0.0
H359 H 0.9419 0.70802 0.44506 0.0
C360 C 0.96728 0.67247 0.47126 0.0
C361 C 0.00043 0.67139 0.50471 0.0
C362 C 0.03963 0.81647 0.53741 0.0
C363 C 0.00179 0.74302 0.50492 0.0
C364 C 0.03997 0.852 0.53735 0.0
C365 C 0.00414 0.85291 0.5061 0.0
C366 C 0.0033 0.7814 0.50591 0.0
C367 C 0.96842 0.81713 0.47521 0.0
C368 C 0.96777 0.70804 0.47129 0.0
C369 C 0.03386 0.70709 0.53776 0.0
N370 N 0.96893 0.78294 0.47591 0.0
N371 N 0.03366 0.74137 0.53701 0.0
H372 H 0.30692 0.98389 0.41243 0.0
H373 H 0.19314 0.0912 0.52876 0.0
H374 H 0.37772 0.04009 0.54772 0.0
H375 H 0.11979 0.96623 0.46312 0.0
H376 H 0.26271 0.08572 0.52359 0.0
H377 H 0.23723 0.98929 0.41741 0.0
C378 C 0.30758 0.99713 0.44307 0.0
C379 C 0.34749 0.01088 0.47979 0.0
C380 C 0.23122 0.05967 0.51041 0.0
C381 C 0.26967 0.0188 0.4854 0.0
C382 C 0.19189 0.0627 0.51351 0.0
C383 C 0.1513 0.02901 0.49712 0.0
C384 C 0.22904 0.02292 0.48932 0.0
C385 C 0.15074 0.99277 0.47645 0.0
C386 C 0.26819 1.00034 0.44582 0.0
C387 C 0.34731 0.02888 0.5188 0.0
N388 N 0.18907 0.99063 0.47276 0.0
N389 N 0.30898 0.03269 0.52064 0.0
H390 H 0.434 0.95725 0.28643 0.0
H391 H 0.53882 0.08455 0.17738 0.0
H392 H 0.56045 0.06207 0.35685 0.0
H393 H 0.46326 0.9598 0.11276 0.0
H394 H 0.53777 0.08054 0.2429 0.0
H395 H 0.43538 0.96093 0.22135 0.0
C396 C 0.46226 0.9809 0.28844 0.0
C397 C 0.49723 0.00937 0.3276 0.0
C398 C 0.52154 0.05407 0.21437 0.0
C399 C 0.49796 0.01424 0.2529 0.0
C400 C 0.52218 0.05636 0.17719 0.0
C401 C 0.50171 0.02238 0.14008 0.0
C402 C 0.49924 0.01765 0.21404 0.0
C403 C 0.47969 0.98657 0.14097 0.0
C404 C 0.46276 0.98304 0.25116 0.0
C405 C 0.5322 0.03982 0.32773 0.0
N406 N 0.47885 0.98511 0.17739 0.0
N407 N 0.53151 0.04156 0.29101 0.0
H408 H 0.05129 0.56002 0.20948 0.0
H409 H 0.96432 0.43091 0.32529 0.0
H410 H 0.94354 0.44313 0.14135 0.0
H411 H 0.02616 0.55644 0.38336 0.0
H412 H 0.96419 0.43296 0.25876 0.0
H413 H 0.05009 0.55763 0.27499 0.0
C414 C 0.02709 0.53393 0.20808 0.0
C415 C 0.99731 0.50178 0.16948 0.0
C416 C 0.97761 0.46004 0.28602 0.0
C417 C 0.99678 0.49863 0.24487 0.0
C418 C 0.97763 0.45884 0.3238 0.0
C419 C 0.99478 0.49356 0.35939 0.0
C420 C 0.99574 0.49622 0.28424 0.0
C421 C 0.01242 0.52909 0.35636 0.0
C422 C 0.02668 0.53256 0.24564 0.0
C423 C 0.96767 0.46845 0.17018 0.0
N424 N 0.01263 0.52955 0.31944 0.0
N425 N 0.96829 0.46771 0.20725 0.0
H426 H 0.51464 0.94724 0.66048 0.0
H427 H 0.47494 0.03931 0.86505 0.0
H428 H 0.47625 0.04402 0.6845 0.0
H429 H 0.5209 0.94723 0.84481 0.0
H430 H 0.47304 0.04027 0.79783 0.0
H431 H 0.51478 0.9453 0.72665 0.0
C432 C 0.50597 0.96795 0.67955 0.0
C433 C 0.49542 0.99584 0.66689 0.0
C434 C 0.48358 0.01984 0.808 0.0
C435 C 0.49589 0.994 0.74292 0.0
C436 C 0.4846 0.01932 0.84621 0.0
C437 C 0.49826 0.99328 0.8601 0.0
C438 C 0.4962 0.99399 0.78355 0.0
C439 C 0.51037 0.96779 0.83492 0.0
C440 C 0.50632 0.96697 0.71746 0.0
C441 C 0.48515 0.02232 0.69323 0.0
N442 N 0.5091 0.96878 0.79778 0.0
N443 N 0.48558 0.02071 0.72993 0.0
H444 H 0.01464 0.47145 0.62948 0.0
H445 H 0.99415 0.5698 0.84352 0.0
H446 H 0.99052 0.57523 0.66188 0.0
H447 H 0.00906 0.46151 0.80738 0.0
H448 H 0.99504 0.57333 0.77824 0.0
H449 H 0.01497 0.46816 0.69555 0.0
C450 C 0.00949 0.49352 0.65076 0.0
C451 C 0.00244 0.52357 0.64067 0.0
C452 C 0.9981 0.54877 0.78454 0.0
C453 C 0.00273 0.52022 0.71586 0.0
C454 C 0.99786 0.54685 0.82195 0.0
C455 C 0.00164 0.51535 0.83102 0.0
C456 C 0.0023 0.51904 0.75592 0.0
C457 C 0.00557 0.48612 0.80151 0.0
C458 C 0.0096 0.49168 0.6883 0.0
C459 C 0.99596 0.55163 0.66887 0.0
N460 N 0.00591 0.48873 0.76536 0.0
N461 N 0.99624 0.54928 0.70527 0.0
H462 H 0.15532 0.53594 0.98336 0.0
H463 H 0.34623 0.45528 0.04549 0.0
H464 H 0.16125 0.47663 0.06576 0.0
H465 H 0.36021 0.54254 0.99557 0.0
H466 H 0.27598 0.45923 0.04993 0.0
H467 H 0.22836 0.53549 0.98394 0.0
C468 C 0.17228 0.52291 0.00162 0.0
C469 C 0.1525 0.506 0.02424 0.0
C470 C 0.2946 0.47772 0.03831 0.0
C471 C 0.23547 0.50511 0.025 0.0
C472 C 0.33451 0.47546 0.03584 0.0
C473 C 0.35877 0.49886 0.02048 0.0
C474 C 0.27871 0.50312 0.02467 0.0
C475 C 0.34226 0.5242 0.00773 0.0
C476 C 0.21384 0.52267 0.00203 0.0
C477 C 0.17551 0.48957 0.04761 0.0
N478 N 0.30307 0.52555 0.00991 0.0
N479 N 0.21574 0.48924 0.04716 0.0
H480 H 0.49215 0.3248 0.93856 0.0
H481 H 0.54099 0.20334 0.07408 0.0
H482 H 0.51372 0.3644 0.06885 0.0
H483 H 0.46697 0.14957 0.93898 0.0
H484 H 0.54125 0.26558 0.07377 0.0
H485 H 0.49171 0.26294 0.93902 0.0
C486 C 0.49647 0.32062 0.96723 0.0
C487 C 0.50278 0.35027 0.0037 0.0
C488 C 0.52489 0.24012 0.04423 0.0
C489 C 0.50368 0.27944 0.00456 0.0
C490 C 0.52497 0.2047 0.04436 0.0
C491 C 0.50383 0.17125 0.00651 0.0
C492 C 0.5042 0.24226 0.0059 0.0
C493 C 0.48326 0.17457 0.9689 0.0
C494 C 0.49652 0.28525 0.96746 0.0
C495 C 0.50949 0.343 0.0401 0.0
N496 N 0.48418 0.20948 0.96952 0.0
N497 N 0.50995 0.30847 0.03963 0.0
H498 H 0.80846 0.4808 0.90798 0.0
H499 H 0.68616 0.58832 0.01413 0.0
H500 H 0.87649 0.54614 0.04257 0.0
H501 H 0.6189 0.46277 0.95625 0.0
H502 H 0.75643 0.5848 0.00881 0.0
H503 H 0.73682 0.48469 0.90923 0.0
C504 C 0.80816 0.49582 0.93768 0.0
C505 C 0.84792 0.51262 0.97534 0.0
C506 C 0.72602 0.55818 0.9971 0.0
C507 C 0.76777 0.51873 0.97656 0.0
C508 C 0.68628 0.56012 0.00023 0.0
C509 C 0.64734 0.52575 0.98641 0.0
C510 C 0.7259 0.52171 0.97852 0.0
C511 C 0.64855 0.48985 0.96759 0.0
C512 C 0.76765 0.49816 0.9383 0.0
C513 C 0.84634 0.53267 0.01296 0.0
N514 N 0.68729 0.48869 0.96397 0.0
N515 N 0.80691 0.53549 0.01263 0.0
H516 H 0.47776 0.68256 0.05126 0.0
H517 H 0.54278 0.84412 0.96185 0.0
H518 H 0.52771 0.66887 0.95467 0.0
H519 H 0.46114 0.84293 0.0331 0.0
H520 H 0.54367 0.78275 0.96379 0.0
H521 H 0.47755 0.74432 0.05 0.0
C522 C 0.4889 0.69265 0.02994 0.0
C523 C 0.50275 0.67049 0.00301 0.0
C524 C 0.52546 0.79587 0.97891 0.0
C525 C 0.50251 0.74112 0.00134 0.0
C526 C 0.52517 0.83101 0.97803 0.0
C527 C 0.50179 0.84868 0.9973 0.0
C528 C 0.50265 0.77839 0.99962 0.0
C529 C 0.47916 0.83013 0.01743 0.0
C530 C 0.48849 0.72777 0.02904 0.0
C531 C 0.51632 0.68479 0.97567 0.0
N532 N 0.48032 0.79612 0.01823 0.0
N533 N 0.51604 0.71923 0.97566 0.0
loop_
_geom_bond_atom_site_label_1
_geom_bond_atom_site_label_2
_geom_bond_distance
_geom_bond_site_symmetry_2
_ccdc_geom_bond_type
C0 C1 1.443 . S
C0 N4 1.376 . S
C0 C38 1.389 1_565 S
C1 C0 1.443 . S
C1 C2 1.340 . S
C1 H41 0.951 . S
C2 C1 1.340 . S
C2 C3 1.439 . S
C2 H42 0.950 . S
C3 C2 1.439 . S
C3 N4 1.374 . S
C3 C37 1.395 . S
N4 C0 1.376 . S
N4 C3 1.374 . S
N4 Co5 1.993 1_665 S
Co5 N4 1.993 1_445 S
Co5 N6 2.010 1_545 S
Co5 N11 2.023 . S
Co5 N16 1.979 1_455 S
Co5 N21 2.287 1_445 S
Co5 N27 2.278 . S
N6 Co5 2.010 1_565 S
N6 C7 1.377 . S
N6 C10 1.383 . S
C7 N6 1.377 . S
C7 C8 1.454 . S
C7 C37 1.383 1_455 S
C8 C7 1.454 . S
C8 C9 1.339 . S
C8 H43 0.949 . S
C9 C8 1.339 . S
C9 C10 1.439 . S
C9 H44 0.950 . S
C10 N6 1.383 . S
C10 C9 1.439 . S
C10 C39 1.392 1_565 S
N11 Co5 2.023 . S
N11 C12 1.376 . S
N11 C15 1.374 . S
C12 N11 1.376 . S
C12 C13 1.443 . S
C12 C39 1.389 . S
C13 C12 1.443 . S
C13 C14 1.340 . S
C13 H45 0.951 . S
C14 C13 1.340 . S
C14 C15 1.439 . S
C14 H46 0.950 . S
C15 N11 1.374 . S
C15 C14 1.439 . S
C15 C40 1.395 . S
N16 Co5 1.979 1_655 S
N16 C17 1.376 1_655 S
N16 C20 1.383 . S
C17 N16 1.376 1_455 S
C17 C18 1.446 1_455 S
C17 C40 1.391 . S
C18 C17 1.446 1_655 S
C18 C19 1.339 . S
C18 H47 0.949 . S
C19 C18 1.339 . S
C19 C20 1.439 . S
C19 H48 0.950 . S
C20 N16 1.383 . S
C20 C19 1.439 . S
C20 C38 1.392 . S
N21 Co5 2.287 1_665 S
N21 C24 1.332 1_655 S
N21 C26 1.332 . S
C22 C23 1.390 1_655 S
C22 C25 1.388 . S
C23 C22 1.390 1_455 S
C23 C24 1.383 . S
C23 H49 0.950 . S
C24 N21 1.332 1_455 S
C24 C23 1.383 . S
C24 H35 0.949 . S
C25 C22 1.388 . S
C25 C26 1.382 . S
C25 H50 0.950 . S
C26 N21 1.332 . S
C26 C25 1.382 . S
C26 H36 0.948 . S
N27 Co5 2.278 . S
N27 C31 1.332 . S
N27 C32 1.332 . S
C28 C29 1.388 . S
C28 C32 1.382 . S
C28 H51 0.950 . S
C29 C28 1.388 . S
C29 C30 1.386 1_455 S
C30 C29 1.386 1_655 S
C30 C31 1.382 1_655 S
C30 H52 0.950 . S
C31 N27 1.332 . S
C31 C30 1.382 1_455 S
C31 H33 0.952 1_455 S
C32 N27 1.332 . S
C32 C28 1.382 . S
C32 H34 0.948 . S
H33 C31 0.952 1_655 S
H34 C32 0.948 . S
H35 C24 0.949 . S
H36 C26 0.948 . S
C37 C3 1.395 . S
C37 C7 1.383 1_655 S
C38 C0 1.389 1_545 S
C38 C20 1.392 . S
C39 C10 1.392 1_545 S
C39 C12 1.389 . S
C40 C15 1.395 . S
C40 C17 1.391 . S
H41 C1 0.951 . S
H42 C2 0.950 . S
H43 C8 0.949 . S
H44 C9 0.950 . S
H45 C13 0.951 . S
H46 C14 0.950 . S
H47 C18 0.949 . S
H48 C19 0.950 . S
H49 C23 0.950 . S
H50 C25 0.950 . S
H51 C28 0.950 . S
H52 C30 0.950 . S
C53 C54 1.443 . S
C53 N57 1.376 . S
C53 C91 1.389 . S
C54 C53 1.443 . S
C54 C55 1.340 . S
C54 H94 0.951 . S
C55 C54 1.340 . S
C55 C56 1.439 . S
C55 H95 0.950 . S
C56 C55 1.439 . S
C56 N57 1.374 . S
C56 C90 1.395 . S
N57 C53 1.376 . S
N57 C56 1.374 . S
N57 Co58 2.028 . S
Co58 N57 2.028 . S
Co58 N59 1.975 1_554 S
Co58 N64 1.988 1_544 S
Co58 N69 2.015 1_545 S
Co58 N74 2.277 . S
Co58 N80 2.288 1_544 S
N59 Co58 1.975 1_556 S
N59 C60 1.376 1_556 S
N59 C63 1.383 . S
C60 N59 1.376 1_554 S
C60 C61 1.446 1_554 S
C60 C90 1.391 . S
C61 C60 1.446 1_556 S
C61 C62 1.339 . S
C61 H96 0.949 . S
C62 C61 1.339 . S
C62 C63 1.439 . S
C62 H97 0.950 . S
C63 N59 1.383 . S
C63 C62 1.439 . S
C63 C92 1.392 . S
N64 Co58 1.988 1_566 S
N64 C65 1.376 . S
N64 C68 1.374 . S
C65 N64 1.376 . S
C65 C66 1.443 . S
C65 C92 1.389 1_565 S
C66 C65 1.443 . S
C66 C67 1.340 . S
C66 H98 0.951 . S
C67 C66 1.340 . S
C67 C68 1.439 . S
C67 H99 0.950 . S
C68 N64 1.374 . S
C68 C67 1.439 . S
C68 C93 1.395 . S
N69 Co58 2.015 1_565 S
N69 C70 1.378 . S
N69 C73 1.383 . S
C70 N69 1.378 . S
C70 C71 1.460 . S
C70 C93 1.377 1_554 S
C71 C70 1.460 . S
C71 C72 1.339 . S
C71 H100 0.949 . S
C72 C71 1.339 . S
C72 C73 1.439 . S
C72 H101 0.950 . S
C73 N69 1.383 . S
C73 C72 1.439 . S
C73 C91 1.392 1_565 S
N74 Co58 2.277 . S
N74 C77 1.332 . S
N74 C79 1.332 . S
C75 C76 1.386 1_554 S
C75 C78 1.388 . S
C76 C75 1.386 1_556 S
C76 C77 1.382 1_556 S
C76 H102 0.950 . S
C77 N74 1.332 . S
C77 C76 1.382 1_554 S
C77 H88 0.952 1_554 S
C78 C75 1.388 . S
C78 C79 1.382 . S
C78 H103 0.950 . S
C79 N74 1.332 . S
C79 C78 1.382 . S
C79 H89 0.948 . S
N80 Co58 2.288 1_566 S
N80 C84 1.332 1_556 S
N80 C85 1.332 . S
C81 C82 1.388 . S
C81 C85 1.382 . S
C81 H104 0.950 . S
C82 C81 1.388 . S
C82 C83 1.387 1_556 S
C83 C82 1.387 1_554 S
C83 C84 1.386 . S
C83 H105 0.950 . S
C84 N80 1.332 1_554 S
C84 C83 1.386 . S
C84 H86 0.947 . S
C85 N80 1.332 . S
C85 C81 1.382 . S
C85 H87 0.948 . S
H86 C84 0.947 . S
H87 C85 0.948 . S
H88 C77 0.952 1_556 S
H89 C79 0.948 . S
C90 C56 1.395 . S
C90 C60 1.391 . S
C91 C53 1.389 . S
C91 C73 1.392 1_545 S
C92 C63 1.392 . S
C92 C65 1.389 1_545 S
C93 C68 1.395 . S
C93 C70 1.377 1_556 S
H94 C54 0.951 . S
H95 C55 0.950 . S
H96 C61 0.949 . S
H97 C62 0.950 . S
H98 C66 0.951 . S
H99 C67 0.950 . S
H100 C71 0.949 . S
H101 C72 0.950 . S
H102 C76 0.950 . S
H103 C78 0.950 . S
H104 C81 0.950 . S
H105 C83 0.950 . S
C106 C107 1.443 . S
C106 N110 1.376 . S
C106 C144 1.389 . S
C107 C106 1.443 . S
C107 C108 1.340 . S
C107 H147 0.951 . S
C108 C107 1.340 . S
C108 C109 1.439 . S
C108 H148 0.950 . S
C109 C108 1.439 . S
C109 N110 1.374 . S
C109 C143 1.395 . S
N110 C106 1.376 . S
N110 C109 1.374 . S
N110 Co111 2.017 . S
Co111 N110 2.017 . S
Co111 N112 1.982 1_455 S
Co111 N117 1.999 1_454 S
Co111 N122 2.007 1_554 S
Co111 N127 2.308 . S
Co111 N133 2.257 1_454 S
N112 Co111 1.982 1_655 S
N112 C113 1.376 1_655 S
N112 C116 1.383 . S
C113 N112 1.376 1_455 S
C113 C114 1.446 1_455 S
C113 C143 1.391 . S
C114 C113 1.446 1_655 S
C114 C115 1.339 . S
C114 H149 0.949 . S
C115 C114 1.339 . S
C115 C116 1.439 . S
C115 H150 0.950 . S
C116 N112 1.383 . S
C116 C115 1.439 . S
C116 C145 1.396 1_554 S
N117 Co111 1.999 1_656 S
N117 C118 1.376 . S
N117 C121 1.374 . S
C118 N117 1.376 . S
C118 C119 1.443 . S
C118 C145 1.390 . S
C119 C118 1.443 . S
C119 C120 1.340 . S
C119 H151 0.951 . S
C120 C119 1.340 . S
C120 C121 1.439 . S
C120 H152 0.950 . S
C121 N117 1.374 . S
C121 C120 1.439 . S
C121 C146 1.395 . S
N122 Co111 2.007 1_556 S
N122 C123 1.377 . S
N122 C126 1.383 . S
C123 N122 1.377 . S
C123 C124 1.454 . S
C123 C146 1.383 1_455 S
C124 C123 1.454 . S
C124 C125 1.339 . S
C124 H153 0.949 . S
C125 C124 1.339 . S
C125 C126 1.439 . S
C125 H154 0.950 . S
C126 N122 1.383 . S
C126 C125 1.439 . S
C126 C144 1.392 1_556 S
N127 Co111 2.308 . S
N127 C130 1.332 . S
N127 C132 1.332 . S
C128 C129 1.386 1_455 S
C128 C131 1.388 . S
C129 C128 1.386 1_655 S
C129 C130 1.382 1_655 S
C129 H155 0.950 . S
C130 N127 1.332 . S
C130 C129 1.382 1_455 S
C130 H141 0.952 1_455 S
C131 C128 1.388 . S
C131 C132 1.382 . S
C131 H156 0.950 . S
C132 N127 1.332 . S
C132 C131 1.382 . S
C132 H142 0.948 . S
N133 Co111 2.257 1_656 S
N133 C137 1.332 1_655 S
N133 C138 1.332 . S
C134 C135 1.388 . S
C134 C138 1.382 . S
C134 H157 0.950 . S
C135 C134 1.388 . S
C135 C136 1.390 1_655 S
C136 C135 1.390 1_455 S
C136 C137 1.384 . S
C136 H158 0.950 . S
C137 N133 1.332 1_455 S
C137 C136 1.384 . S
C137 H139 0.949 . S
C138 N133 1.332 . S
C138 C134 1.382 . S
C138 H140 0.948 . S
H139 C137 0.949 . S
H140 C138 0.948 . S
H141 C130 0.952 1_655 S
H142 C132 0.948 . S
C143 C109 1.395 . S
C143 C113 1.391 . S
C144 C106 1.389 . S
C144 C126 1.392 1_554 S
C145 C116 1.396 1_556 S
C145 C118 1.390 . S
C146 C121 1.395 . S
C146 C123 1.383 1_655 S
H147 C107 0.951 . S
H148 C108 0.950 . S
H149 C114 0.949 . S
H150 C115 0.950 . S
H151 C119 0.951 . S
H152 C120 0.950 . S
H153 C124 0.949 . S
H154 C125 0.950 . S
H155 C129 0.950 . S
H156 C131 0.950 . S
H157 C134 0.950 . S
H158 C136 0.950 . S
C159 C160 1.443 . S
C159 N163 1.376 . S
C159 C197 1.383 1_556 S
C160 C159 1.443 . S
C160 C161 1.340 . S
C160 H200 0.951 . S
C161 C160 1.340 . S
C161 C162 1.439 . S
C161 H201 0.950 . S
C162 C161 1.439 . S
C162 N163 1.374 . S
C162 C196 1.395 . S
N163 C159 1.376 . S
N163 C162 1.374 . S
N163 Co164 1.984 1_556 S
Co164 N163 1.984 1_554 S
Co164 N165 1.984 1_554 S
Co164 N170 2.032 . S
Co164 N175 2.005 . S
Co164 N180 2.272 1_554 S
Co164 N186 2.293 . S
N165 Co164 1.984 1_556 S
N165 C166 1.376 . S
N165 C169 1.383 . S
C166 N165 1.376 . S
C166 C167 1.446 . S
C166 C196 1.391 . S
C167 C166 1.446 . S
C167 C168 1.339 . S
C167 H202 0.949 . S
C168 C167 1.339 . S
C168 C169 1.439 . S
C168 H203 0.950 . S
C169 N165 1.383 . S
C169 C168 1.439 . S
C169 C198 1.392 1_556 S
N170 Co164 2.032 . S
N170 C171 1.376 . S
N170 C174 1.374 . S
C171 N170 1.376 . S
C171 C172 1.443 . S
C171 C198 1.389 . S
C172 C171 1.443 . S
C172 C173 1.340 . S
C172 H204 0.951 . S
C173 C172 1.340 . S
C173 C174 1.439 . S
C173 H205 0.950 . S
C174 N170 1.374 . S
C174 C173 1.439 . S
C174 C199 1.395 . S
N175 Co164 2.005 . S
N175 C176 1.376 . S
N175 C179 1.383 . S
C176 N175 1.376 . S
C176 C177 1.446 . S
C176 C199 1.391 . S
C177 C176 1.446 . S
C177 C178 1.339 . S
C177 H206 0.949 . S
C178 C177 1.339 . S
C178 C179 1.439 . S
C178 H207 0.950 . S
C179 N175 1.383 . S
C179 C178 1.439 . S
C179 C197 1.400 . S
N180 Co164 2.272 1_556 S
N180 C183 1.332 1_556 S
N180 C185 1.332 . S
C181 C182 1.396 . S
C181 C184 1.382 1_554 S
C182 C181 1.396 . S
C182 C183 1.382 . S
C182 H208 0.950 . S
C183 N180 1.332 1_554 S
C183 C182 1.382 . S
C183 H194 0.952 . S
C184 C181 1.382 1_556 S
C184 C185 1.382 . S
C184 H209 0.950 . S
C185 N180 1.332 . S
C185 C184 1.382 . S
C185 H195 0.948 . S
N186 Co164 2.293 . S
N186 C190 1.332 1_554 S
N186 C191 1.332 . S
C187 C188 1.388 . S
C187 C191 1.382 . S
C187 H210 0.950 . S
C188 C187 1.388 . S
C188 C189 1.386 1_554 S
C189 C188 1.386 1_556 S
C189 C190 1.382 . S
C189 H211 0.950 . S
C190 N186 1.332 1_556 S
C190 C189 1.382 . S
C190 H192 0.952 . S
C191 N186 1.332 . S
C191 C187 1.382 . S
C191 H193 0.948 . S
H192 C190 0.952 . S
H193 C191 0.948 . S
H194 C183 0.952 . S
H195 C185 0.948 . S
C196 C162 1.395 . S
C196 C166 1.391 . S
C197 C159 1.383 1_554 S
C197 C179 1.400 . S
C198 C169 1.392 1_554 S
C198 C171 1.389 . S
C199 C174 1.395 . S
C199 C176 1.391 . S
H200 C160 0.951 . S
H201 C161 0.950 . S
H202 C167 0.949 . S
H203 C168 0.950 . S
H204 C172 0.951 . S
H205 C173 0.950 . S
H206 C177 0.949 . S
H207 C178 0.950 . S
H208 C182 0.950 . S
H209 C184 0.950 . S
H210 C187 0.950 . S
H211 C189 0.950 . S
C212 C213 1.443 . S
C212 N216 1.376 . S
C212 C250 1.389 . S
C213 C212 1.443 . S
C213 C214 1.340 . S
C213 H253 0.951 . S
C214 C213 1.340 . S
C214 C215 1.439 . S
C214 H254 0.950 . S
C215 C214 1.439 . S
C215 N216 1.374 . S
C215 C249 1.395 . S
N216 C212 1.376 . S
N216 C215 1.374 . S
N216 Co217 2.017 . S
Co217 N216 2.017 . S
Co217 N218 2.013 . S
Co217 N223 1.999 1_455 S
Co217 N228 1.976 1_455 S
Co217 N233 2.276 . S
Co217 N239 2.289 1_455 S
N218 Co217 2.013 . S
N218 C219 1.376 . S
N218 C222 1.383 . S
C219 N218 1.376 . S
C219 C220 1.446 . S
C219 C249 1.391 . S
C220 C219 1.446 . S
C220 C221 1.339 . S
C220 H255 0.949 . S
C221 C220 1.339 . S
C221 C222 1.439 . S
C221 H256 0.950 . S
C222 N218 1.383 . S
C222 C221 1.439 . S
C222 C251 1.394 . S
N223 Co217 1.999 1_655 S
N223 C224 1.376 . S
N223 C227 1.374 . S
C224 N223 1.376 . S
C224 C225 1.443 . S
C224 C251 1.386 1_655 S
C225 C224 1.443 . S
C225 C226 1.340 . S
C225 H257 0.951 . S
C226 C225 1.340 . S
C226 C227 1.439 . S
C226 H258 0.950 . S
C227 N223 1.374 . S
C227 C226 1.439 . S
C227 C252 1.395 . S
N228 Co217 1.976 1_655 S
N228 C229 1.376 . S
N228 C232 1.383 . S
C229 N228 1.376 . S
C229 C230 1.446 . S
C229 C252 1.391 . S
C230 C229 1.446 . S
C230 C231 1.339 . S
C230 H259 0.949 . S
C231 C230 1.339 . S
C231 C232 1.439 . S
C231 H260 0.950 . S
C232 N228 1.383 . S
C232 C231 1.439 . S
C232 C250 1.392 1_655 S
N233 Co217 2.276 . S
N233 C236 1.332 1_455 S
N233 C238 1.332 . S
C234 C235 1.386 1_455 S
C234 C237 1.388 . S
C235 C234 1.386 1_655 S
C235 C236 1.382 . S
C235 H261 0.950 . S
C236 N233 1.332 1_655 S
C236 C235 1.382 . S
C236 H247 0.952 . S
C237 C234 1.388 . S
C237 C238 1.382 . S
C237 H262 0.950 . S
C238 N233 1.332 . S
C238 C237 1.382 . S
C238 H248 0.948 . S
N239 Co217 2.289 1_655 S
N239 C243 1.332 1_655 S
N239 C244 1.332 . S
C240 C241 1.382 1_655 S
C240 C244 1.382 . S
C240 H263 0.950 . S
C241 C240 1.382 1_455 S
C241 C242 1.390 . S
C242 C241 1.390 . S
C242 C243 1.382 . S
C242 H264 0.950 . S
C243 N239 1.332 1_455 S
C243 C242 1.382 . S
C243 H245 0.952 . S
C244 N239 1.332 . S
C244 C240 1.382 . S
C244 H246 0.948 . S
H245 C243 0.952 . S
H246 C244 0.948 . S
H247 C236 0.952 . S
H248 C238 0.948 . S
C249 C215 1.395 . S
C249 C219 1.391 . S
C250 C212 1.389 . S
C250 C232 1.392 1_455 S
C251 C222 1.394 . S
C251 C224 1.386 1_455 S
C252 C227 1.395 . S
C252 C229 1.391 . S
H253 C213 0.951 . S
H254 C214 0.950 . S
H255 C220 0.949 . S
H256 C221 0.950 . S
H257 C225 0.951 . S
H258 C226 0.950 . S
H259 C230 0.949 . S
H260 C231 0.950 . S
H261 C235 0.950 . S
H262 C237 0.950 . S
H263 C240 0.950 . S
H264 C242 0.950 . S
C265 C266 1.443 . S
C265 N269 1.376 . S
C265 C303 1.389 . S
C266 C265 1.443 . S
C266 C267 1.340 . S
C266 H306 0.951 . S
C267 C266 1.340 . S
C267 C268 1.439 . S
C267 H307 0.950 . S
C268 C267 1.439 . S
C268 N269 1.374 . S
C268 C302 1.395 . S
N269 C265 1.376 . S
N269 C268 1.374 . S
N269 Co270 2.008 . S
Co270 N269 2.008 . S
Co270 N271 1.995 . S
Co270 N276 2.008 1_545 S
Co270 N281 1.995 1_545 S
Co270 N286 2.282 . S
Co270 N292 2.282 1_545 S
N271 Co270 1.995 . S
N271 C272 1.376 . S
N271 C275 1.383 . S
C272 N271 1.376 . S
C272 C273 1.446 . S
C272 C302 1.391 . S
C273 C272 1.446 . S
C273 C274 1.339 . S
C273 H308 0.949 . S
C274 C273 1.339 . S
C274 C275 1.439 . S
C274 H309 0.950 . S
C275 N271 1.383 . S
C275 C274 1.439 . S
C275 C304 1.414 . S
N276 Co270 2.008 1_565 S
N276 C277 1.376 . S
N276 C280 1.374 . S
C277 N276 1.376 . S
C277 C278 1.443 . S
C277 C304 1.358 1_565 S
C278 C277 1.443 . S
C278 C279 1.340 . S
C278 H310 0.951 . S
C279 C278 1.340 . S
C279 C280 1.439 . S
C279 H311 0.950 . S
C280 N276 1.374 . S
C280 C279 1.439 . S
C280 C305 1.395 . S
N281 Co270 1.995 1_565 S
N281 C282 1.376 . S
N281 C285 1.383 . S
C282 N281 1.376 . S
C282 C283 1.446 . S
C282 C305 1.391 . S
C283 C282 1.446 . S
C283 C284 1.339 . S
C283 H312 0.949 . S
C284 C283 1.339 . S
C284 C285 1.439 . S
C284 H313 0.950 . S
C285 N281 1.383 . S
C285 C284 1.439 . S
C285 C303 1.392 1_565 S
N286 Co270 2.282 . S
N286 C289 1.332 1_545 S
N286 C291 1.332 . S
C287 C288 1.386 1_545 S
C287 C290 1.388 . S
C288 C287 1.386 1_565 S
C288 C289 1.382 . S
C288 H314 0.950 . S
C289 N286 1.332 1_565 S
C289 C288 1.382 . S
C289 H300 0.952 . S
C290 C287 1.388 . S
C290 C291 1.382 . S
C290 H315 0.950 . S
C291 N286 1.332 . S
C291 C290 1.382 . S
C291 H301 0.948 . S
N292 Co270 2.282 1_565 S
N292 C296 1.332 1_565 S
N292 C297 1.332 . S
C293 C294 1.388 1_565 S
C293 C297 1.382 . S
C293 H316 0.950 . S
C294 C293 1.388 1_545 S
C294 C295 1.386 . S
C295 C294 1.386 . S
C295 C296 1.382 . S
C295 H317 0.950 . S
C296 N292 1.332 1_545 S
C296 C295 1.382 . S
C296 H298 0.952 . S
C297 N292 1.332 . S
C297 C293 1.382 . S
C297 H299 0.948 . S
H298 C296 0.952 . S
H299 C297 0.948 . S
H300 C289 0.952 . S
H301 C291 0.948 . S
C302 C268 1.395 . S
C302 C272 1.391 . S
C303 C265 1.389 . S
C303 C285 1.392 1_545 S
C304 C275 1.414 . S
C304 C277 1.358 1_545 S
C305 C280 1.395 . S
C305 C282 1.391 . S
H306 C266 0.951 . S
H307 C267 0.950 . S
H308 C273 0.949 . S
H309 C274 0.950 . S
H310 C278 0.951 . S
H311 C279 0.950 . S
H312 C283 0.949 . S
H313 C284 0.950 . S
H314 C288 0.950 . S
H315 C290 0.950 . S
H316 C293 0.950 . S
H317 C295 0.950 . S
H318 C324 0.930 . S
H319 C328 0.930 . S
H320 C333 0.929 . S
H321 C331 0.929 . S
H322 C326 0.929 . S
H323 C332 0.929 . S
C324 H318 0.930 . S
C324 C325 1.376 . S
C324 C332 1.378 . S
C325 C324 1.376 . S
C325 C333 1.416 1_455 S
C326 H322 0.929 . S
C326 C328 1.378 . S
C326 C330 1.342 1_655 S
C327 C330 1.467 . S
C327 C332 1.350 . S
C327 N335 1.427 1_455 S
C328 H319 0.930 . S
C328 C326 1.378 . S
C328 C329 1.361 1_655 S
C329 C328 1.361 1_455 S
C329 C331 1.443 . S
C330 C326 1.342 1_455 S
C330 C327 1.467 . S
C330 N334 1.432 . S
C331 H321 0.929 . S
C331 C329 1.443 . S
C331 N334 1.384 . S
C332 H323 0.929 . S
C332 C324 1.378 . S
C332 C327 1.350 . S
C333 H320 0.929 . S
C333 C325 1.416 1_655 S
C333 N335 1.384 . S
N334 C330 1.432 . S
N334 C331 1.384 . S
N335 C327 1.427 1_655 S
N335 C333 1.384 . S
H336 C342 0.930 . S
H337 C346 0.930 . S
H338 C351 0.929 . S
H339 C349 0.929 . S
H340 C344 0.929 . S
H341 C350 0.929 . S
C342 H336 0.930 . S
C342 C343 1.367 . S
C342 C350 1.378 . S
C343 C342 1.367 . S
C343 C351 1.433 1_545 S
C344 H340 0.929 . S
C344 C346 1.378 . S
C344 C348 1.341 1_565 S
C345 C348 1.459 . S
C345 C350 1.350 . S
C345 N353 1.427 1_545 S
C346 H337 0.930 . S
C346 C344 1.378 . S
C346 C347 1.343 1_565 S
C347 C346 1.343 1_545 S
C347 C349 1.451 . S
C348 C344 1.341 1_545 S
C348 C345 1.459 . S
C348 N352 1.440 . S
C349 H339 0.929 . S
C349 C347 1.451 . S
C349 N352 1.384 . S
C350 H341 0.929 . S
C350 C342 1.378 . S
C350 C345 1.350 . S
C351 H338 0.929 . S
C351 C343 1.433 1_565 S
C351 N353 1.384 . S
N352 C348 1.440 . S
N352 C349 1.384 . S
N353 C345 1.427 1_565 S
N353 C351 1.384 . S
H354 C360 0.930 . S
H355 C364 0.930 . S
H356 C369 0.929 . S
H357 C367 0.929 . S
H358 C362 0.929 . S
H359 C368 0.929 . S
C360 H354 0.930 . S
C360 C361 1.368 1_655 S
C360 C368 1.378 . S
C361 C360 1.368 1_455 S
C361 C369 1.433 . S
C362 H358 0.929 . S
C362 C364 1.378 . S
C362 C366 1.350 . S
C363 C366 1.464 1_655 S
C363 C368 1.351 . S
C363 N371 1.424 1_655 S
C364 H355 0.930 . S
C364 C362 1.378 . S
C364 C365 1.367 . S
C365 C364 1.367 . S
C365 C367 1.433 1_455 S
C366 C362 1.350 . S
C366 C363 1.464 1_455 S
C366 N370 1.427 1_455 S
C367 H357 0.929 . S
C367 C365 1.433 1_655 S
C367 N370 1.384 . S
C368 H359 0.929 . S
C368 C360 1.378 . S
C368 C363 1.351 . S
C369 H356 0.929 . S
C369 C361 1.433 . S
C369 N371 1.384 . S
N370 C366 1.427 1_655 S
N370 C367 1.384 . S
N371 C363 1.424 1_455 S
N371 C369 1.384 . S
H372 C378 0.930 . S
H373 C382 0.930 . S
H374 C387 0.929 . S
H375 C385 0.929 . S
H376 C380 0.929 . S
H377 C386 0.929 . S
C378 H372 0.930 . S
C378 C379 1.358 1_565 S
C378 C386 1.378 . S
C379 C378 1.358 1_545 S
C379 C387 1.449 . S
C380 H376 0.929 . S
C380 C382 1.378 . S
C380 C384 1.350 . S
C381 C384 1.466 . S
C381 C386 1.344 1_545 S
C381 N389 1.431 . S
C382 H373 0.930 . S
C382 C380 1.378 . S
C382 C383 1.367 . S
C383 C382 1.367 . S
C383 C385 1.433 1_545 S
C384 C380 1.350 . S
C384 C381 1.466 . S
C384 N388 1.427 1_545 S
C385 H375 0.929 . S
C385 C383 1.433 1_565 S
C385 N388 1.384 . S
C386 H377 0.929 . S
C386 C378 1.378 . S
C386 C381 1.344 1_565 S
C387 H374 0.929 . S
C387 C379 1.449 . S
C387 N389 1.384 . S
N388 C384 1.427 1_565 S
N388 C385 1.384 . S
N389 C381 1.431 . S
N389 C387 1.384 . S
H390 C396 0.930 . S
H391 C400 0.930 . S
H392 C405 0.929 . S
H393 C403 0.929 . S
H394 C398 0.929 . S
H395 C404 0.929 . S
C396 H390 0.930 . S
C396 C397 1.358 1_565 S
C396 C404 1.378 . S
C397 C396 1.358 1_545 S
C397 C405 1.449 . S
C398 H394 0.929 . S
C398 C400 1.378 . S
C398 C402 1.350 . S
C399 C402 1.465 . S
C399 C404 1.344 1_545 S
C399 N407 1.431 . S
C400 H391 0.930 . S
C400 C398 1.378 . S
C400 C401 1.367 . S
C401 C400 1.367 . S
C401 C403 1.433 1_545 S
C402 C398 1.350 . S
C402 C399 1.465 . S
C402 N406 1.427 1_545 S
C403 H393 0.929 . S
C403 C401 1.433 1_565 S
C403 N406 1.384 . S
C404 H395 0.929 . S
C404 C396 1.378 . S
C404 C399 1.344 1_565 S
C405 H392 0.929 . S
C405 C397 1.449 . S
C405 N407 1.384 . S
N406 C402 1.427 1_565 S
N406 C403 1.384 . S
N407 C399 1.431 . S
N407 C405 1.384 . S
H408 C414 0.930 . S
H409 C418 0.930 . S
H410 C423 0.929 . S
H411 C421 0.929 . S
H412 C416 0.929 . S
H413 C422 0.929 . S
C414 H408 0.930 . S
C414 C415 1.367 . S
C414 C422 1.378 . S
C415 C414 1.367 . S
C415 C423 1.433 1_455 S
C416 H412 0.929 . S
C416 C418 1.378 . S
C416 C420 1.357 . S
C417 C420 1.459 1_455 S
C417 C422 1.350 . S
C417 N425 1.427 1_455 S
C418 H409 0.930 . S
C418 C416 1.378 . S
C418 C419 1.366 . S
C419 C418 1.366 . S
C419 C421 1.434 1_655 S
C420 C416 1.357 . S
C420 C417 1.459 1_655 S
C420 N424 1.424 1_655 S
C421 H411 0.929 . S
C421 C419 1.434 1_455 S
C421 N424 1.384 . S
C422 H413 0.929 . S
C422 C414 1.378 . S
C422 C417 1.350 . S
C423 H410 0.929 . S
C423 C415 1.433 1_655 S
C423 N425 1.384 . S
N424 C420 1.424 1_455 S
N424 C421 1.384 . S
N425 C417 1.427 1_655 S
N425 C423 1.384 . S
H426 C432 0.930 . S
H427 C436 0.930 . S
H428 C441 0.929 . S
H429 C439 0.929 . S
H430 C434 0.929 . S
H431 C440 0.929 . S
C432 H426 0.930 . S
C432 C433 1.342 1_565 S
C432 C440 1.378 . S
C433 C432 1.342 1_545 S
C433 C441 1.451 . S
C434 H430 0.929 . S
C434 C436 1.378 . S
C434 C438 1.350 . S
C435 C438 1.459 . S
C435 C440 1.341 1_545 S
C435 N443 1.441 . S
C436 H427 0.930 . S
C436 C434 1.378 . S
C436 C437 1.367 . S
C437 C436 1.367 . S
C437 C439 1.433 1_545 S
C438 C434 1.350 . S
C438 C435 1.459 . S
C438 N442 1.427 1_545 S
C439 H429 0.929 . S
C439 C437 1.433 1_565 S
C439 N442 1.384 . S
C440 H431 0.929 . S
C440 C432 1.378 . S
C440 C435 1.341 1_565 S
C441 H428 0.929 . S
C441 C433 1.451 . S
C441 N443 1.384 . S
N442 C438 1.427 1_565 S
N442 C439 1.384 . S
N443 C435 1.441 . S
N443 C441 1.384 . S
H444 C450 0.930 . S
H445 C454 0.930 . S
H446 C459 0.929 . S
H447 C457 0.929 . S
H448 C452 0.929 . S
H449 C458 0.929 . S
C450 H444 0.930 . S
C450 C451 1.367 . S
C450 C458 1.378 . S
C451 C450 1.367 . S
C451 C459 1.433 1_455 S
C452 H448 0.929 . S
C452 C454 1.378 . S
C452 C456 1.364 . S
C453 C456 1.457 1_455 S
C453 C458 1.350 . S
C453 N461 1.427 1_455 S
C454 H445 0.930 . S
C454 C452 1.378 . S
C454 C455 1.367 . S
C455 C454 1.367 . S
C455 C457 1.432 1_655 S
C456 C452 1.364 . S
C456 C453 1.457 1_655 S
C456 N460 1.417 1_655 S
C457 H447 0.929 . S
C457 C455 1.432 1_455 S
C457 N460 1.384 . S
C458 H449 0.929 . S
C458 C450 1.378 . S
C458 C453 1.350 . S
C459 H446 0.929 . S
C459 C451 1.433 1_655 S
C459 N461 1.384 . S
N460 C456 1.417 1_455 S
N460 C457 1.384 . S
N461 C453 1.427 1_655 S
N461 C459 1.384 . S
H462 C468 0.930 . S
H463 C472 0.930 . S
H464 C477 0.929 . S
H465 C475 0.929 . S
H466 C470 0.929 . S
H467 C476 0.929 . S
C468 H462 0.930 . S
C468 C469 1.360 1_556 S
C468 C476 1.378 . S
C469 C468 1.360 1_554 S
C469 C477 1.438 . S
C470 H466 0.929 . S
C470 C472 1.378 . S
C470 C474 1.350 . S
C471 C474 1.463 . S
C471 C476 1.351 1_554 S
C471 N479 1.425 . S
C472 H463 0.930 . S
C472 C470 1.378 . S
C472 C473 1.367 . S
C473 C472 1.367 . S
C473 C475 1.433 1_554 S
C474 C470 1.350 . S
C474 C471 1.463 . S
C474 N478 1.427 1_554 S
C475 H465 0.929 . S
C475 C473 1.433 1_556 S
C475 N478 1.384 . S
C476 H467 0.929 . S
C476 C468 1.378 . S
C476 C471 1.351 1_556 S
C477 H464 0.929 . S
C477 C469 1.438 . S
C477 N479 1.384 . S
N478 C474 1.427 1_556 S
N478 C475 1.384 . S
N479 C471 1.425 . S
N479 C477 1.384 . S
H480 C486 0.930 . S
H481 C490 0.930 . S
H482 C495 0.929 . S
H483 C493 0.929 . S
H484 C488 0.929 . S
H485 C494 0.929 . S
C486 H480 0.930 . S
C486 C487 1.369 1_556 S
C486 C494 1.378 . S
C487 C486 1.369 1_554 S
C487 C495 1.430 . S
C488 H484 0.929 . S
C488 C490 1.378 . S
C488 C492 1.350 . S
C489 C492 1.459 1_556 S
C489 C494 1.360 . S
C489 N497 1.420 1_556 S
C490 H481 0.930 . S
C490 C488 1.378 . S
C490 C491 1.367 . S
C491 C490 1.367 . S
C491 C493 1.433 1_554 S
C492 C488 1.350 . S
C492 C489 1.459 1_554 S
C492 N496 1.427 1_554 S
C493 H483 0.929 . S
C493 C491 1.433 1_556 S
C493 N496 1.384 . S
C494 H485 0.929 . S
C494 C486 1.378 . S
C494 C489 1.360 . S
C495 H482 0.929 . S
C495 C487 1.430 . S
C495 N497 1.384 . S
N496 C492 1.427 1_556 S
N496 C493 1.384 . S
N497 C489 1.420 1_554 S
N497 C495 1.384 . S
H498 C504 0.930 . S
H499 C508 0.930 . S
H500 C513 0.929 . S
H501 C511 0.929 . S
H502 C506 0.929 . S
H503 C512 0.929 . S
C504 H498 0.930 . S
C504 C505 1.370 1_556 S
C504 C512 1.378 . S
C505 C504 1.370 1_554 S
C505 C513 1.435 . S
C506 H502 0.929 . S
C506 C508 1.378 . S
C506 C510 1.350 . S
C507 C510 1.466 . S
C507 C512 1.349 1_554 S
C507 N515 1.425 . S
C508 H499 0.930 . S
C508 C506 1.378 . S
C508 C509 1.367 . S
C509 C508 1.367 . S
C509 C511 1.433 1_554 S
C510 C506 1.350 . S
C510 C507 1.466 . S
C510 N514 1.427 1_554 S
C511 H501 0.929 . S
C511 C509 1.433 1_556 S
C511 N514 1.384 . S
C512 H503 0.929 . S
C512 C504 1.378 . S
C512 C507 1.349 1_556 S
C513 H500 0.929 . S
C513 C505 1.435 . S
C513 N515 1.384 . S
N514 C510 1.427 1_556 S
N514 C511 1.384 . S
N515 C507 1.425 . S
N515 C513 1.384 . S
H516 C522 0.930 . S
H517 C526 0.930 . S
H518 C531 0.929 . S
H519 C529 0.929 . S
H520 C524 0.929 . S
H521 C530 0.929 . S
C522 H516 0.930 . S
C522 C523 1.367 . S
C522 C530 1.378 . S
C523 C522 1.367 . S
C523 C531 1.433 1_554 S
C524 H520 0.929 . S
C524 C526 1.378 . S
C524 C528 1.337 1_556 S
C525 C528 1.469 . S
C525 C530 1.350 . S
C525 N533 1.427 1_554 S
C526 H517 0.930 . S
C526 C524 1.378 . S
C526 C527 1.359 1_556 S
C527 C526 1.359 1_554 S
C527 C529 1.448 . S
C528 C524 1.337 1_554 S
C528 C525 1.469 . S
C528 N532 1.435 . S
C529 H519 0.929 . S
C529 C527 1.448 . S
C529 N532 1.384 . S
C530 H521 0.929 . S
C530 C522 1.378 . S
C530 C525 1.350 . S
C531 H518 0.929 . S
C531 C523 1.433 1_556 S
C531 N533 1.384 . S
N532 C528 1.435 . S
N532 C529 1.384 . S
N533 C525 1.427 1_556 S
N533 C531 1.384 . S
C325 C29 1.508 . S
C329 C241 1.497 . S
C343 C38 1.500 . S
C347 C303 1.507 . S
C361 C234 1.499 . S
C365 C22 1.496 1_455 S
C379 C304 1.501 . S
C383 C39 1.498 . S
C397 C294 1.493 . S
C401 C91 1.499 . S
C415 C128 1.499 . S
C419 C251 1.499 1_655 S
C433 C287 1.507 . S
C437 C92 1.500 . S
C451 C250 1.499 . S
C455 C135 1.496 . S
C469 C144 1.502 . S
C473 C198 1.498 . S
C487 C188 1.500 . S
C491 C75 1.499 . S
C505 C145 1.489 1_554 S
C509 C197 1.496 . S
C523 C181 1.496 . S
C527 C82 1.491 1_554 S
