# Generated by pormake.
# Topology snw, (6)-cn, num edge types: 1
# Building blocks:
#     Node 0, Type 0, BuildingBlock: IZENUY_clean_sbu_0, # of connection points: 6
#     Node 1, Type 0, BuildingBlock: IZENUY_clean_sbu_0, # of connection points: 6
#     Node 2, Type 0, BuildingBlock: IZENUY_clean_sbu_0, # of connection points: 6
#     Node 3, Type 0, BuildingBlock: IZENUY_clean_sbu_0, # of connection points: 6
#     Node 4, Type 0, BuildingBlock: IZENUY_clean_sbu_0, # of connection points: 6
#     Node 5, Type 0, BuildingBlock: IZENUY_clean_sbu_0, # of connection points: 6
#     Node 6, Type 0, BuildingBlock: IZENUY_clean_sbu_0, # of connection points: 6
#     Node 7, Type 0, BuildingBlock: IZENUY_clean_sbu_0, # of connection points: 6
#     Edge 8, Type (0, 0), BuildingBlock: KIFKEQ_clean_linker_1, # of connection points: 2
#     Edge 9, Type (0, 0), BuildingBlock: KIFKEQ_clean_linker_1, # of connection points: 2
#     Edge 10, Type (0, 0), BuildingBlock: KIFKEQ_clean_linker_1, # of connection points: 2
#     Edge 11, Type (0, 0), BuildingBlock: KIFKEQ_clean_linker_1, # of connection points: 2
#     Edge 12, Type (0, 0), BuildingBlock: KIFKEQ_clean_linker_1, # of connection points: 2
#     Edge 13, Type (0, 0), BuildingBlock: KIFKEQ_clean_linker_1, # of connection points: 2
#     Edge 14, Type (0, 0), BuildingBlock: KIFKEQ_clean_linker_1, # of connection points: 2
#     Edge 15, Type (0, 0), BuildingBlock: KIFKEQ_clean_linker_1, # of connection points: 2
#     Edge 16, Type (0, 0), BuildingBlock: KIFKEQ_clean_linker_1, # of connection points: 2
#     Edge 17, Type (0, 0), BuildingBlock: KIFKEQ_clean_linker_1, # of connection points: 2
#     Edge 18, Type (0, 0), BuildingBlock: KIFKEQ_clean_linker_1, # of connection points: 2
#     Edge 19, Type (0, 0), BuildingBlock: KIFKEQ_clean_linker_1, # of connection points: 2
#     Edge 20, Type (0, 0), BuildingBlock: KIFKEQ_clean_linker_1, # of connection points: 2
#     Edge 21, Type (0, 0), BuildingBlock: KIFKEQ_clean_linker_1, # of connection points: 2
#     Edge 22, Type (0, 0), BuildingBlock: KIFKEQ_clean_linker_1, # of connection points: 2
#     Edge 23, Type (0, 0), BuildingBlock: KIFKEQ_clean_linker_1, # of connection points: 2
#     Edge 24, Type (0, 0), BuildingBlock: KIFKEQ_clean_linker_1, # of connection points: 2
#     Edge 25, Type (0, 0), BuildingBlock: KIFKEQ_clean_linker_1, # of connection points: 2
#     Edge 26, Type (0, 0), BuildingBlock: KIFKEQ_clean_linker_1, # of connection points: 2
#     Edge 27, Type (0, 0), BuildingBlock: KIFKEQ_clean_linker_1, # of connection points: 2
#     Edge 28, Type (0, 0), BuildingBlock: KIFKEQ_clean_linker_1, # of connection points: 2
#     Edge 29, Type (0, 0), BuildingBlock: KIFKEQ_clean_linker_1, # of connection points: 2
#     Edge 30, Type (0, 0), BuildingBlock: KIFKEQ_clean_linker_1, # of connection points: 2
#     Edge 31, Type (0, 0), BuildingBlock: KIFKEQ_clean_linker_1, # of connection points: 2
# Relax obj value: 0.015
# Max RMSD: 0.047
# Mean RMSD: 0.047
data_MOF--net-snw--node1-IZENUY_clean_sbu_0--edge1-KIFKEQ_clean_linker_1
_symmetry_space_group_name_H-M    P1
_symmetry_Int_Tables_number       1
_symmetry_cell_setting            triclinic
loop_
_symmetry_equiv_pos_as_xyz
'x, y, z'
_cell_length_a     20.786249
_cell_length_b     20.78017
_cell_length_c     74.376751
_cell_angle_alpha  89.974152
_cell_angle_beta   90.050319
_cell_angle_gamma 90.001249
loop_
_atom_site_label
_atom_site_type_symbol
_atom_site_fract_x
_atom_site_fract_y
_atom_site_fract_z
_atom_type_partial_charge
Fe0 Fe 0.01123 0.25526 0.1336 0.0
Fe1 Fe 0.08676 0.25761 0.09818 0.0
O2 O 0.01214 0.25601 0.10974 0.0
Fe3 Fe 0.9387 0.25513 0.09763 0.0
O4 O 0.89478 0.3041 0.11424 0.0
O5 O 0.96781 0.33038 0.13446 0.0
O6 O 0.08537 0.30196 0.13619 0.0
C7 C 0.11274 0.3409 0.12561 0.0
C8 C 0.90898 0.17163 0.12473 0.0
O9 O 0.10938 0.33294 0.10883 0.0
C10 C 0.01977 0.17194 0.0774 0.0
O11 O 0.05464 0.1798 0.13426 0.0
O12 O 0.12974 0.20948 0.11517 0.0
O13 O 0.91415 0.17985 0.10802 0.0
O14 O 0.93666 0.20899 0.13565 0.0
C15 C 0.00776 0.34024 0.07714 0.0
O16 O 0.06951 0.18288 0.08663 0.0
O17 O 0.96981 0.20645 0.07895 0.0
C18 C 0.1093 0.17161 0.12728 0.0
O19 O 0.05723 0.30537 0.07911 0.0
O20 O 0.95767 0.32997 0.08625 0.0
C21 C 0.91445 0.34018 0.12688 0.0
Fe22 Fe 0.01482 0.83212 0.34802 0.0
Fe23 Fe 0.01393 0.7581 0.3837 0.0
O24 O 0.0141 0.7581 0.35988 0.0
Fe25 Fe 0.01359 0.68406 0.34805 0.0
O26 O 0.08886 0.70303 0.33686 0.0
O27 O 0.06276 0.80179 0.32912 0.0
O28 O 0.09 0.85656 0.35852 0.0
C29 C 0.09871 0.85985 0.37528 0.0
C30 C 0.93027 0.76328 0.32733 0.0
O31 O 0.06066 0.83213 0.38602 0.0
C32 C 0.9292 0.65643 0.37516 0.0
O33 O 0.96685 0.87566 0.3648 0.0
O34 O 0.93817 0.80163 0.38434 0.0
O35 O 0.96613 0.71437 0.32903 0.0
O36 O 0.93981 0.81313 0.33665 0.0
C37 C 0.09885 0.66066 0.37709 0.0
O38 O 0.96716 0.68407 0.38595 0.0
O39 O 0.93816 0.65969 0.3584 0.0
C40 C 0.92905 0.85548 0.37691 0.0
O41 O 0.0897 0.71456 0.38448 0.0
O42 O 0.06115 0.64048 0.36494 0.0
C43 C 0.0987 0.75289 0.32756 0.0
Fe44 Fe 0.58718 0.75737 0.59806 0.0
Fe45 Fe 0.43925 0.75778 0.59759 0.0
O46 O 0.51275 0.75776 0.60967 0.0
Fe47 Fe 0.51171 0.75812 0.63351 0.0
O48 O 0.5864 0.80391 0.63599 0.0
O49 O 0.61184 0.83248 0.60851 0.0
O50 O 0.55837 0.8056 0.57902 0.0
C51 C 0.50982 0.84186 0.57721 0.0
C52 C 0.60856 0.67243 0.62748 0.0
O53 O 0.45929 0.83247 0.58624 0.0
C54 C 0.40903 0.67483 0.62472 0.0
O55 O 0.56788 0.68251 0.58667 0.0
O56 O 0.46949 0.70951 0.5788 0.0
O57 O 0.55426 0.68211 0.63455 0.0
O58 O 0.62927 0.7089 0.61509 0.0
C59 C 0.41549 0.84351 0.62664 0.0
O60 O 0.41428 0.68263 0.60799 0.0
O61 O 0.43655 0.71261 0.63559 0.0
C62 C 0.51801 0.6731 0.57734 0.0
O63 O 0.39557 0.80649 0.61427 0.0
O64 O 0.46931 0.83413 0.63401 0.0
C65 C 0.61485 0.84153 0.62526 0.0
Fe66 Fe 0.51542 0.33141 0.84812 0.0
Fe67 Fe 0.51449 0.25704 0.88376 0.0
O68 O 0.51438 0.25737 0.85996 0.0
Fe69 Fe 0.51323 0.18365 0.84798 0.0
O70 O 0.5606 0.2137 0.82894 0.0
O71 O 0.59074 0.3108 0.83709 0.0
O72 O 0.56298 0.37455 0.86505 0.0
C73 C 0.59992 0.35432 0.87736 0.0
C74 C 0.43002 0.25447 0.82754 0.0
O75 O 0.59048 0.30027 0.88462 0.0
C76 C 0.42898 0.15995 0.87718 0.0
O77 O 0.44021 0.3569 0.85838 0.0
O78 O 0.46784 0.33115 0.886 0.0
O79 O 0.43784 0.20458 0.837 0.0
O80 O 0.46791 0.3019 0.82902 0.0
C81 C 0.59832 0.15486 0.87491 0.0
O82 O 0.43851 0.21378 0.88455 0.0
O83 O 0.46579 0.14006 0.86483 0.0
C84 C 0.43056 0.35945 0.87513 0.0
O85 O 0.56116 0.18287 0.88585 0.0
O86 O 0.58851 0.15784 0.85817 0.0
C87 C 0.59853 0.26114 0.82756 0.0
Fe88 Fe 0.089 0.75523 0.95711 0.0
Fe89 Fe 0.94073 0.75963 0.95714 0.0
O90 O 0.01475 0.75729 0.94531 0.0
Fe91 Fe 0.01463 0.75679 0.92147 0.0
O92 O 0.08806 0.70916 0.91921 0.0
O93 O 0.11169 0.67938 0.94672 0.0
O94 O 0.05817 0.70835 0.97613 0.0
C95 C 0.00825 0.67411 0.97802 0.0
C96 C 0.11313 0.84042 0.92807 0.0
O97 O 0.9584 0.68485 0.9688 0.0
C98 C 0.91389 0.8429 0.92967 0.0
O99 O 0.07201 0.8305 0.96846 0.0
O100 O 0.97172 0.80835 0.97581 0.0
O101 O 0.05908 0.83198 0.92069 0.0
O102 O 0.13304 0.80229 0.94018 0.0
C103 C 0.91635 0.67313 0.92839 0.0
O104 O 0.9173 0.83469 0.94643 0.0
O105 O 0.94116 0.80428 0.91902 0.0
C106 C 0.02196 0.84234 0.97745 0.0
O107 O 0.89664 0.71132 0.94049 0.0
O108 O 0.97018 0.68159 0.92091 0.0
C109 C 0.11497 0.67059 0.92996 0.0
Fe110 Fe 0.51334 0.6822 0.20738 0.0
Fe111 Fe 0.51448 0.83005 0.20704 0.0
O112 O 0.51297 0.75579 0.19536 0.0
Fe113 Fe 0.51086 0.75473 0.17152 0.0
O114 O 0.43458 0.71295 0.17149 0.0
O115 O 0.46395 0.63858 0.19081 0.0
O116 O 0.43911 0.70227 0.21885 0.0
C117 C 0.43034 0.75246 0.22807 0.0
C118 C 0.59458 0.65196 0.17995 0.0
O119 O 0.4666 0.8011 0.2262 0.0
C120 C 0.59814 0.85033 0.17733 0.0
O121 O 0.56219 0.71224 0.22618 0.0
O122 O 0.58961 0.81015 0.21814 0.0
O123 O 0.55585 0.67923 0.16926 0.0
O124 O 0.58801 0.65742 0.19673 0.0
C125 C 0.42923 0.85889 0.18013 0.0
O126 O 0.56304 0.87164 0.18994 0.0
O127 O 0.58679 0.79677 0.17002 0.0
C128 C 0.59873 0.76072 0.22764 0.0
O129 O 0.43917 0.85573 0.19683 0.0
O130 O 0.46564 0.82976 0.16925 0.0
C131 C 0.42571 0.65896 0.17878 0.0
Fe132 Fe 0.58839 0.2565 0.45703 0.0
Fe133 Fe 0.44067 0.25935 0.45712 0.0
O134 O 0.5144 0.25794 0.44518 0.0
Fe135 Fe 0.51414 0.25797 0.42137 0.0
O136 O 0.55683 0.18165 0.42054 0.0
O137 O 0.63119 0.20869 0.44013 0.0
O138 O 0.5674 0.18127 0.46809 0.0
C139 C 0.51766 0.17362 0.47759 0.0
C140 C 0.61709 0.3412 0.43 0.0
O141 O 0.47035 0.21167 0.47617 0.0
C142 C 0.41768 0.34412 0.42796 0.0
O143 O 0.55914 0.30415 0.47611 0.0
O144 O 0.46193 0.33456 0.46814 0.0
O145 O 0.58858 0.30407 0.41914 0.0
O146 O 0.61434 0.33162 0.44676 0.0
C147 C 0.4114 0.17471 0.43013 0.0
O148 O 0.39749 0.3072 0.44026 0.0
O149 O 0.47143 0.3343 0.42059 0.0
C150 C 0.51186 0.34219 0.47759 0.0
O151 O 0.41448 0.18426 0.44688 0.0
O152 O 0.43965 0.21187 0.41924 0.0
C153 C 0.61074 0.17181 0.42785 0.0
Fe154 Fe 0.01314 0.18374 0.70734 0.0
Fe155 Fe 0.01494 0.33189 0.70733 0.0
O156 O 0.01337 0.25785 0.69547 0.0
Fe157 Fe 0.01179 0.25765 0.67161 0.0
O158 O 0.93574 0.21531 0.67122 0.0
O159 O 0.96381 0.14084 0.69066 0.0
O160 O 0.93899 0.20402 0.71888 0.0
C161 C 0.93015 0.25437 0.72805 0.0
C162 C 0.09573 0.15478 0.67992 0.0
O163 O 0.96667 0.30277 0.72631 0.0
C164 C 0.09875 0.35347 0.67772 0.0
O165 O 0.06217 0.21282 0.72615 0.0
O166 O 0.08973 0.31127 0.71855 0.0
O167 O 0.05756 0.18285 0.66924 0.0
O168 O 0.08759 0.15841 0.6967 0.0
C169 C 0.92967 0.36128 0.68041 0.0
O170 O 0.06382 0.37411 0.69044 0.0
O171 O 0.0875 0.30014 0.6703 0.0
C172 C 0.09887 0.26107 0.72775 0.0
O173 O 0.93989 0.35816 0.69711 0.0
O174 O 0.96604 0.33237 0.66947 0.0
C175 C 0.9265 0.16124 0.67844 0.0
H176 H 0.90988 0.42298 0.06807 0.0
H177 H 0.10411 0.36983 0.05358 0.0
H178 H 0.90909 0.50322 0.04408 0.0
H179 H 0.10269 0.44881 0.02947 0.0
H180 H 0.10486 0.64299 1.00135 0.0
H181 H 0.10334 0.56383 1.02537 0.0
H182 H 0.90844 0.51219 1.01124 0.0
H183 H 0.90934 0.59276 0.9873 0.0
C184 C 0.95234 0.42825 0.05977 0.0
C185 C 1.0071 0.38993 0.0628 0.0
C186 C 0.9517 0.47396 0.04593 0.0
C187 C 1.00582 0.48249 0.03484 0.0
C188 C 0.0605 0.44419 0.03791 0.0
C189 C 0.06117 0.39861 0.05171 0.0
C190 C 0.06157 0.61482 1.0033 0.0
C191 C 1.00718 0.62438 0.99235 0.0
C192 C 0.06087 0.56909 1.01705 0.0
C193 C 1.00584 0.53149 1.02023 0.0
C194 C 0.95137 0.54089 1.00929 0.0
C195 C 0.95204 0.58678 0.99549 0.0
H196 H 0.68213 0.85838 0.23641 0.0
H197 H 0.62764 0.66497 0.25149 0.0
H198 H 0.76174 0.85976 0.26058 0.0
H199 H 0.70607 0.66697 0.27574 0.0
H200 H 0.89979 0.66573 0.30427 0.0
H201 H 0.82131 0.66634 0.28006 0.0
H202 H 0.76881 0.86156 0.29355 0.0
H203 H 0.84859 0.86154 0.3177 0.0
C204 C 0.68703 0.8162 0.24486 0.0
C205 C 0.64845 0.76153 0.24197 0.0
C206 C 0.73235 0.8172 0.2588 0.0
C207 C 0.74025 0.76351 0.27011 0.0
C208 C 0.70185 0.70885 0.26715 0.0
C209 C 0.65661 0.70784 0.25326 0.0
C210 C 0.87155 0.70888 0.30215 0.0
C211 C 0.88065 0.76364 0.31297 0.0
C212 C 0.82624 0.70907 0.28828 0.0
C213 C 0.78867 0.76395 0.28486 0.0
C214 C 0.79753 0.81875 0.29569 0.0
C215 C 0.84294 0.81857 0.30962 0.0
H216 H 0.41386 0.62134 0.56042 0.0
H217 H 0.62134 0.61171 0.56219 0.0
H218 H 0.41238 0.54161 0.53651 0.0
H219 H 0.62024 0.53386 0.5377 0.0
H220 H 0.59405 0.34891 0.50611 0.0
H221 H 0.59508 0.42698 0.53035 0.0
H222 H 0.43495 0.52661 0.50575 0.0
H223 H 0.43226 0.4464 0.48181 0.0
C224 C 0.45926 0.60242 0.55562 0.0
C225 C 0.51774 0.62289 0.56321 0.0
C226 C 0.45845 0.557 0.54178 0.0
C227 C 0.51617 0.53137 0.53501 0.0
C228 C 0.57472 0.55169 0.54271 0.0
C229 C 0.57545 0.59657 0.55673 0.0
C230 C 0.55906 0.38753 0.50583 0.0
C231 C 0.51296 0.39134 0.49201 0.0
C232 C 0.55992 0.43267 0.51972 0.0
C233 C 0.51523 0.48343 0.52008 0.0
C234 C 0.46945 0.48761 0.50613 0.0
C235 C 0.46809 0.44186 0.49232 0.0
H236 H 0.70281 0.34086 0.82354 0.0
H237 H 0.60517 0.17997 0.79886 0.0
H238 H 0.78338 0.33849 0.79968 0.0
H239 H 0.68354 0.17927 0.77472 0.0
H240 H 0.86824 0.15169 0.74332 0.0
H241 H 0.79034 0.15336 0.76773 0.0
H242 H 0.7998 0.36121 0.76893 0.0
H243 H 0.87974 0.35914 0.74506 0.0
C244 C 0.69831 0.30532 0.81296 0.0
C245 C 0.6477 0.26053 0.81314 0.0
C246 C 0.74426 0.30414 0.7992 0.0
C247 C 0.7402 0.25862 0.7852 0.0
C248 C 0.68921 0.21418 0.78541 0.0
C249 C 0.64388 0.21484 0.79924 0.0
C250 C 0.85352 0.19772 0.74877 0.0
C251 C 0.88031 0.25524 0.74227 0.0
C252 C 0.80857 0.19878 0.76275 0.0
C253 C 0.78857 0.25747 0.7704 0.0
C254 C 0.81486 0.31503 0.76367 0.0
C255 C 0.8604 0.31389 0.74986 0.0
H256 H 0.32579 0.17482 0.82336 0.0
H257 H 0.42358 0.336 0.79889 0.0
H258 H 0.24557 0.17724 0.79938 0.0
H259 H 0.34556 0.33673 0.77462 0.0
H260 H 0.16105 0.36388 0.74288 0.0
H261 H 0.23893 0.36238 0.76735 0.0
H262 H 0.22969 0.15453 0.76864 0.0
H263 H 0.14976 0.15643 0.74473 0.0
C264 C 0.33039 0.21045 0.8128 0.0
C265 C 0.38095 0.25528 0.81308 0.0
C266 C 0.28465 0.21165 0.79897 0.0
C267 C 0.28888 0.25722 0.78498 0.0
C268 C 0.33978 0.30176 0.78529 0.0
C269 C 0.3849 0.30108 0.7992 0.0
C270 C 0.17584 0.31789 0.74836 0.0
C271 C 0.14906 0.26031 0.74189 0.0
C272 C 0.22078 0.31692 0.76237 0.0
C273 C 0.24076 0.25828 0.77008 0.0
C274 C 0.21461 0.20067 0.76335 0.0
C275 C 0.16909 0.20172 0.74952 0.0
H276 H 0.40237 0.84927 0.2517 0.0
H277 H 0.34707 0.65545 0.2373 0.0
H278 H 0.32425 0.84838 0.27603 0.0
H279 H 0.26789 0.65518 0.26149 0.0
H280 H 0.12993 0.85032 0.30451 0.0
H281 H 0.20901 0.84936 0.28047 0.0
H282 H 0.26114 0.65433 0.29436 0.0
H283 H 0.1808 0.65469 0.31831 0.0
C284 C 0.37333 0.80655 0.25364 0.0
C285 C 0.38114 0.75241 0.24252 0.0
C286 C 0.32828 0.80617 0.26757 0.0
C287 C 0.28978 0.7517 0.27073 0.0
C288 C 0.29738 0.69759 0.25958 0.0
C289 C 0.34248 0.69796 0.24562 0.0
C290 C 0.15824 0.80715 0.3025 0.0
C291 C 0.1488 0.7525 0.31336 0.0
C292 C 0.20391 0.80677 0.28875 0.0
C293 C 0.24147 0.7518 0.28548 0.0
C294 C 0.23241 0.6972 0.29638 0.0
C295 C 0.18665 0.69756 0.31019 0.0
H296 H 0.43591 0.16685 0.50616 0.0
H297 H 0.59739 0.0694 0.48179 0.0
H298 H 0.43489 0.08852 0.53034 0.0
H299 H 0.59472 0.98888 0.50569 0.0
H300 H 0.6147 0.89286 0.5604 0.0
H301 H 0.61695 0.97284 0.53651 0.0
H302 H 0.40912 0.98156 0.53735 0.0
H303 H 0.40723 0.90358 0.56179 0.0
C304 C 0.47085 0.12819 0.50585 0.0
C305 C 0.5168 0.12442 0.49202 0.0
C306 C 0.47 0.08289 0.51971 0.0
C307 C 0.51453 0.03198 0.52002 0.0
C308 C 0.5603 0.02795 0.50609 0.0
C309 C 0.56165 0.07387 0.49231 0.0
C310 C 0.56948 0.91206 0.55552 0.0
C311 C 0.51077 0.89187 0.56301 0.0
C312 C 0.57074 0.95761 0.54169 0.0
C313 C 0.51324 0.98367 0.53486 0.0
C314 C 0.45449 0.96347 0.54242 0.0
C315 C 0.4533 0.91849 0.55641 0.0
H316 H 0.12238 0.13629 0.05689 0.0
H317 H 0.9214 0.0962 0.06591 0.0
H318 H 0.12376 0.05973 0.03214 0.0
H319 H 0.92326 0.01593 0.04213 0.0
H320 H 0.92367 0.91942 0.98814 0.0
H321 H 0.92442 1.00002 1.01183 0.0
H322 H 0.12376 0.95476 1.02312 0.0
H323 H 0.1236 0.87782 0.99845 0.0
C324 C 0.07875 0.11005 0.05375 0.0
C325 C 0.02173 0.12223 0.06324 0.0
C326 C 0.07948 0.06572 0.0396 0.0
C327 C 0.02354 0.03121 0.0349 0.0
C328 C 0.96695 0.0425 0.04486 0.0
C329 C 0.96587 0.0881 0.05866 0.0
C330 C 0.96769 0.92731 0.99564 0.0
C331 C 0.02358 0.89261 0.99146 0.0
C332 C 0.96809 0.97308 1.0094 0.0
C333 C 0.02398 0.98401 1.01971 0.0
C334 C 0.08002 0.94903 1.01539 0.0
C335 C 0.08 0.90451 1.00128 0.0
H336 H 0.39614 0.87519 0.14499 0.0
H337 H 0.347 0.93893 0.19859 0.0
H338 H 0.31628 0.9476 0.13244 0.0
H339 H 0.26715 0.01255 0.18585 0.0
H340 H 0.23006 0.14059 0.11578 0.0
H341 H 0.30463 0.06384 0.12902 0.0
H342 H 0.16326 0.01421 0.16923 0.0
H343 H 0.08852 0.09191 0.15614 0.0
C344 C 0.36837 0.90472 0.15413 0.0
C345 C 0.37848 0.90162 0.17282 0.0
C346 C 0.32271 0.94648 0.14689 0.0
C347 C 0.28584 0.98624 0.15813 0.0
C348 C 0.29463 0.98218 0.17685 0.0
C349 C 0.34057 0.94029 0.18414 0.0
C350 C 0.21463 0.11325 0.12741 0.0
C351 C 0.15328 0.12253 0.13489 0.0
C352 C 0.25734 0.069 0.13495 0.0
C353 C 0.23981 0.03291 0.15017 0.0
C354 C 0.17837 0.04181 0.15763 0.0
C355 C 0.13544 0.08601 0.15003 0.0
H356 H 0.1486 0.85572 0.40904 0.0
H357 H 0.16311 0.95871 0.35875 0.0
H358 H 0.2274 0.92759 0.42246 0.0
H359 H 0.24034 0.03246 0.37236 0.0
H360 H 0.41777 0.12161 0.39684 0.0
H361 H 0.34641 0.04213 0.38356 0.0
H362 H 0.23744 0.03461 0.43301 0.0
H363 H 0.31074 0.11261 0.44653 0.0
C364 C 0.16853 0.89397 0.40086 0.0
C365 C 0.14941 0.90177 0.38285 0.0
C366 C 0.21344 0.93548 0.4086 0.0
C367 C 0.23994 0.9863 0.39859 0.0
C368 C 0.22161 0.99338 0.38044 0.0
C369 C 0.17713 0.95129 0.37262 0.0
C370 C 0.3787 0.10276 0.40491 0.0
C371 C 0.3696 0.12365 0.42271 0.0
C372 C 0.3375 0.05744 0.39724 0.0
C373 C 0.28566 0.03229 0.40711 0.0
C374 C 0.2773 0.05231 0.42506 0.0
C375 C 0.31911 0.09722 0.43282 0.0
H376 H 0.1263 0.13812 0.64462 0.0
H377 H 0.18006 0.07606 0.69806 0.0
H378 H 0.20627 0.06646 0.6318 0.0
H379 H 0.25977 1.00315 0.68508 0.0
H380 H 0.43676 0.92417 0.65522 0.0
H381 H 0.36213 1.00187 0.66825 0.0
H382 H 0.21996 0.95094 0.62832 0.0
H383 H 0.29454 0.87424 0.61511 0.0
C384 C 0.15509 0.10909 0.65366 0.0
C385 C 0.1463 0.11246 0.67239 0.0
C386 C 0.2008 0.06777 0.64627 0.0
C387 C 0.23896 0.02871 0.6574 0.0
C388 C 0.23136 0.033 0.67615 0.0
C389 C 0.18546 0.07449 0.68359 0.0
C390 C 0.3897 0.9298 0.64915 0.0
C391 C 0.37164 0.89288 0.63411 0.0
C392 C 0.34683 0.97402 0.65671 0.0
C393 C 0.28514 0.98249 0.64934 0.0
C394 C 0.26744 0.94614 0.63419 0.0
C395 C 0.31015 0.90191 0.62666 0.0
H396 H 0.0825 0.94842 0.90865 0.0
H397 H 0.24339 0.84576 0.93179 0.0
H398 H 0.15689 0.02934 0.89656 0.0
H399 H 0.31705 0.92575 0.9195 0.0
H400 H 0.42351 0.02989 0.87331 0.0
H401 H 0.34493 0.95568 0.88596 0.0
H402 H 0.24309 0.11486 0.90994 0.0
H403 H 0.32278 0.18992 0.89747 0.0
C404 C 0.13358 0.94316 0.91116 0.0
C405 C 0.15711 0.89057 0.9211 0.0
C406 C 0.17594 0.98958 0.90434 0.0
C407 C 0.24253 0.98344 0.90707 0.0
C408 C 0.2659 0.93127 0.91713 0.0
C409 C 0.22366 0.88565 0.9242 0.0
C410 C 0.38432 0.04933 0.88121 0.0
C411 C 0.3795 0.11582 0.88445 0.0
C412 C 0.33954 1.00674 0.88851 0.0
C413 C 0.28826 0.02964 0.89895 0.0
C414 C 0.28223 0.09616 0.90187 0.0
C415 C 0.32789 0.13891 0.89483 0.0
H416 H 0.91722 0.89152 0.89574 0.0
H417 H 0.81626 0.90866 0.94626 0.0
H418 H 0.84547 0.97046 0.8823 0.0
H419 H 0.7426 0.98591 0.93263 0.0
H420 H 0.65296 0.16248 0.908 0.0
H421 H 0.73302 0.09154 0.92121 0.0
H422 H 0.7382 0.98083 0.87201 0.0
H423 H 0.6597 0.05376 0.85855 0.0
C424 C 0.87946 0.91207 0.90397 0.0
C425 C 0.87217 0.89365 0.92204 0.0
C426 C 0.83802 0.95705 0.89622 0.0
C427 C 0.78779 0.98429 0.90629 0.0
C428 C 0.78125 0.96664 0.9245 0.0
C429 C 0.82328 0.92213 0.93232 0.0
C430 C 0.67145 0.12314 0.89997 0.0
C431 C 0.64976 0.11341 0.88227 0.0
C432 C 0.7171 0.08218 0.90759 0.0
C433 C 0.74172 0.02995 0.89778 0.0
C434 C 0.72093 0.021 0.87991 0.0
C435 C 0.67573 0.0626 0.87219 0.0
H436 H 0.89449 0.04088 0.69012 0.0
H437 H 0.84641 0.18262 0.6497 0.0
H438 H 0.81743 0.96661 0.67692 0.0
H439 H 0.76834 0.10824 0.63666 0.0
H440 H 0.69427 0.92498 0.60707 0.0
H441 H 0.76702 1.00504 0.62002 0.0
H442 H 0.70169 0.95405 0.67327 0.0
H443 H 0.63016 0.87381 0.66049 0.0
C444 C 0.86715 0.05645 0.67851 0.0
C445 C 0.87681 0.11771 0.67096 0.0
C446 C 0.82271 0.01392 0.67098 0.0
C447 C 0.78677 0.03156 0.65574 0.0
C448 C 0.79585 0.09302 0.64828 0.0
C449 C 0.84027 0.13574 0.65584 0.0
C450 C 0.69534 0.93104 0.62153 0.0
C451 C 0.65689 0.89247 0.63274 0.0
C452 C 0.73673 0.97713 0.62894 0.0
C453 C 0.74044 0.98547 0.64768 0.0
C454 C 0.70082 0.94798 0.65881 0.0
C455 C 0.65959 0.90211 0.65144 0.0
H456 H 0.82186 0.82446 0.39663 0.0
H457 H 0.92226 0.98546 0.37281 0.0
H458 H 0.74077 0.89869 0.40873 0.0
H459 H 0.84221 0.05887 0.38511 0.0
H460 H 0.7407 0.16552 0.43165 0.0
H461 H 0.8142 0.08641 0.41899 0.0
H462 H 0.65418 0.98525 0.39517 0.0
H463 H 0.57975 0.06553 0.40765 0.0
C464 C 0.82657 0.8755 0.39397 0.0
C465 C 0.8786 0.89914 0.38384 0.0
C466 C 0.78006 0.91775 0.40079 0.0
C467 C 0.78563 0.9843 0.39788 0.0
C468 C 0.83716 0.00774 0.38762 0.0
C469 C 0.88282 0.96563 0.38055 0.0
C470 C 0.7209 0.12637 0.42379 0.0
C471 C 0.65437 0.12194 0.42058 0.0
C472 C 0.76309 0.08127 0.41649 0.0
C473 C 0.73974 0.03007 0.40609 0.0
C474 C 0.67318 0.02435 0.40321 0.0
C475 C 0.6308 0.07035 0.41026 0.0
H476 H 0.67433 0.93533 0.19506 0.0
H477 H 0.63333 0.86063 0.14217 0.0
H478 H 0.75304 0.00887 0.18229 0.0
H479 H 0.70836 0.93735 0.12905 0.0
H480 H 0.88304 0.0522 0.11115 0.0
H481 H 0.81264 0.97025 0.12409 0.0
H482 H 0.76041 0.10279 0.16656 0.0
H483 H 0.83408 0.18182 0.15431 0.0
C484 C 0.682 0.93515 0.18065 0.0
C485 C 0.64784 0.89258 0.16959 0.0
C486 C 0.72667 0.97774 0.17324 0.0
C487 C 0.73677 0.98019 0.15451 0.0
C488 C 0.70295 0.93658 0.14351 0.0
C489 C 0.65955 0.89274 0.15101 0.0
C490 C 0.85643 0.06328 0.12328 0.0
C491 C 0.86422 0.12291 0.13182 0.0
C492 C 0.81575 0.01657 0.13068 0.0
C493 C 0.7808 0.02927 0.14654 0.0
C494 C 0.78776 0.08998 0.15471 0.0
C495 C 0.82959 0.13577 0.14759 0.0
H496 H 0.84875 0.44263 0.6989 0.0
H497 H 0.89358 0.3746 0.64542 0.0
H498 H 0.76794 0.51534 0.6862 0.0
H499 H 0.81273 0.44599 0.63293 0.0
H500 H 0.72777 0.6383 0.61555 0.0
H501 H 0.80206 0.56165 0.62887 0.0
H502 H 0.66288 0.51741 0.67015 0.0
H503 H 0.58834 0.59527 0.65696 0.0
C504 C 0.84115 0.44283 0.68449 0.0
C505 C 0.87824 0.40335 0.67317 0.0
C506 C 0.79463 0.48419 0.67723 0.0
C507 C 0.78441 0.48681 0.65854 0.0
C508 C 0.8203 0.44603 0.64734 0.0
C509 C 0.86657 0.40489 0.65455 0.0
C510 C 0.71271 0.61218 0.62743 0.0
C511 C 0.65204 0.62307 0.63518 0.0
C512 C 0.75526 0.56794 0.63502 0.0
C513 C 0.73831 0.53336 0.65055 0.0
C514 C 0.67753 0.54381 0.65828 0.0
C515 C 0.63471 0.58807 0.65064 0.0
H516 H 0.78623 0.66726 0.93242 0.0
H517 H 0.94665 0.5653 0.90889 0.0
H518 H 0.71238 0.58737 0.92016 0.0
H519 H 0.87207 0.48447 0.89683 0.0
H520 H 0.7064 0.3238 0.89753 0.0
H521 H 0.78619 0.39853 0.91012 0.0
H522 H 0.68382 0.55839 0.88659 0.0
H523 H 0.60515 0.48452 0.87381 0.0
C524 C 0.80583 0.62752 0.92476 0.0
C525 C 0.87229 0.62281 0.92154 0.0
C526 C 0.76347 0.58196 0.9177 0.0
C527 C 0.78664 0.53004 0.90753 0.0
C528 C 0.85317 0.52404 0.9047 0.0
C529 C 0.89564 0.5704 0.9115 0.0
C530 C 0.70119 0.37488 0.89501 0.0
C531 C 0.64942 0.39827 0.88471 0.0
C532 C 0.7469 0.41745 0.90213 0.0
C533 C 0.74076 0.48406 0.89937 0.0
C534 C 0.6893 0.50726 0.88901 0.0
C535 C 0.64447 0.46486 0.88164 0.0
H536 H 0.58162 0.57603 0.15058 0.0
H537 H 0.7152 0.62671 0.19267 0.0
H538 H 0.65942 0.50156 0.13805 0.0
H539 H 0.79574 0.55566 0.17943 0.0
H540 H 0.90432 0.37663 0.16187 0.0
H541 H 0.82752 0.45131 0.17493 0.0
H542 H 0.75195 0.49141 0.12181 0.0
H543 H 0.82589 0.41279 0.1091 0.0
C544 C 0.62825 0.57173 0.15699 0.0
C545 C 0.64255 0.60698 0.17257 0.0
C546 C 0.67331 0.52942 0.14971 0.0
C547 C 0.73464 0.52259 0.15753 0.0
C548 C 0.74886 0.55844 0.17314 0.0
C549 C 0.70294 0.59954 0.18072 0.0
C550 C 0.87127 0.40166 0.15303 0.0
C551 C 0.8707 0.38883 0.1345 0.0
C552 C 0.82737 0.44495 0.16049 0.0
C553 C 0.78287 0.47772 0.14952 0.0
C554 C 0.78399 0.46605 0.13084 0.0
C555 C 0.82676 0.4214 0.12347 0.0
H556 H 0.87866 0.66091 0.4088 0.0
H557 H 0.86526 0.55726 0.3586 0.0
H558 H 0.79996 0.5889 0.42218 0.0
H559 H 0.7881 0.48336 0.37219 0.0
H560 H 0.61076 0.39374 0.39661 0.0
H561 H 0.6819 0.4733 0.38329 0.0
H562 H 0.79057 0.48189 0.43283 0.0
H563 H 0.71752 0.40381 0.44639 0.0
C564 C 0.85898 0.62249 0.40063 0.0
C565 C 0.87841 0.61452 0.38266 0.0
C566 C 0.81413 0.5809 0.40835 0.0
C567 C 0.788 0.52983 0.39836 0.0
C568 C 0.80657 0.52262 0.38025 0.0
C569 C 0.85099 0.5648 0.37245 0.0
C570 C 0.64971 0.41284 0.4047 0.0
C571 C 0.65879 0.39223 0.42253 0.0
C572 C 0.69079 0.4582 0.397 0.0
C573 C 0.74246 0.48371 0.40688 0.0
C574 C 0.75083 0.46393 0.42486 0.0
C575 C 0.70915 0.41897 0.43265 0.0
H576 H 0.44827 0.45046 0.40773 0.0
H577 H 0.28779 0.35045 0.43192 0.0
H578 H 0.3736 0.5308 0.39534 0.0
H579 H 0.21404 0.42963 0.41934 0.0
H580 H 0.1053 0.53062 0.37316 0.0
H581 H 0.18538 0.4572 0.38549 0.0
H582 H 0.2873 0.6174 0.40895 0.0
H583 H 0.20616 0.69166 0.39681 0.0
C584 C 0.39726 0.44566 0.4104 0.0
C585 C 0.3739 0.39403 0.42075 0.0
C586 C 0.35476 0.4917 0.4034 0.0
C587 C 0.28825 0.48599 0.40635 0.0
C588 C 0.2651 0.43476 0.41678 0.0
C589 C 0.30744 0.38962 0.42403 0.0
C590 C 0.14484 0.55046 0.38087 0.0
C591 C 0.1492 0.61697 0.3841 0.0
C592 C 0.19052 0.50833 0.38796 0.0
C593 C 0.24221 0.53177 0.39818 0.0
C594 C 0.24787 0.59833 0.40104 0.0
C595 C 0.20135 0.6406 0.3942 0.0
H596 H 0.13007 0.3702 0.16099 0.0
H597 H 0.19 0.42669 0.1076 0.0
H598 H 0.20193 0.44989 0.17393 0.0
H599 H 0.26299 0.5061 0.12069 0.0
H600 H 0.3428 0.68166 0.15082 0.0
H601 H 0.26419 0.60767 0.13793 0.0
H602 H 0.31794 0.46357 0.17704 0.0
H603 H 0.39569 0.53755 0.19011 0.0
C604 C 0.15861 0.39959 0.15198 0.0
C605 C 0.15465 0.39163 0.13324 0.0
C606 C 0.20003 0.44511 0.15944 0.0
C607 C 0.23852 0.4839 0.14835 0.0
C608 C 0.23355 0.47719 0.12958 0.0
C609 C 0.19201 0.43148 0.12209 0.0
C610 C 0.33761 0.63432 0.15674 0.0
C611 C 0.37569 0.61548 0.17149 0.0
C612 C 0.29285 0.59183 0.14927 0.0
C613 C 0.28497 0.52977 0.15644 0.0
C614 C 0.32234 0.51134 0.17134 0.0
C615 C 0.36715 0.55368 0.17878 0.0
H616 H 0.2134 0.60574 0.94656 0.0
H617 H 0.11032 0.62037 0.89627 0.0
H618 H 0.28707 0.52849 0.93297 0.0
H619 H 0.18212 0.54152 0.88287 0.0
H620 H 0.36782 0.45991 0.85881 0.0
H621 H 0.28922 0.53237 0.87235 0.0
H622 H 0.29725 0.42254 0.9217 0.0
H623 H 0.37736 0.35202 0.90839 0.0
C624 C 0.2059 0.59168 0.9327 0.0
C625 C 0.15645 0.6195 0.92246 0.0
C626 C 0.24795 0.5472 0.92489 0.0
C627 C 0.24088 0.52897 0.90674 0.0
C628 C 0.19 0.55543 0.89673 0.0
C629 C 0.14854 0.60035 0.90446 0.0
C630 C 0.35242 0.45116 0.8725 0.0
C631 C 0.37918 0.4007 0.88258 0.0
C632 C 0.30716 0.49248 0.88027 0.0
C633 C 0.28709 0.48363 0.8982 0.0
C634 C 0.31257 0.4318 0.90803 0.0
C635 C 0.35825 0.39109 0.90035 0.0
H636 H 0.17207 0.44158 0.6953 0.0
H637 H 0.13625 0.36177 0.64269 0.0
H638 H 0.25036 0.51545 0.68248 0.0
H639 H 0.21085 0.43864 0.6295 0.0
H640 H 0.38528 0.55409 0.61182 0.0
H641 H 0.3149 0.47248 0.62492 0.0
H642 H 0.25805 0.60805 0.66616 0.0
H643 H 0.33178 0.68686 0.65378 0.0
C644 C 0.18076 0.44032 0.68094 0.0
C645 C 0.14816 0.39618 0.66998 0.0
C646 C 0.2252 0.4831 0.6735 0.0
C647 C 0.2367 0.4841 0.65482 0.0
C648 C 0.20439 0.43902 0.64394 0.0
C649 C 0.16121 0.39507 0.65147 0.0
C650 C 0.35763 0.56593 0.62371 0.0
C651 C 0.36414 0.62636 0.63188 0.0
C652 C 0.31696 0.5194 0.6312 0.0
C653 C 0.28071 0.53305 0.64677 0.0
C654 C 0.28638 0.59454 0.65456 0.0
C655 C 0.32824 0.64019 0.64736 0.0
loop_
_geom_bond_atom_site_label_1
_geom_bond_atom_site_label_2
_geom_bond_distance
_geom_bond_site_symmetry_2
_ccdc_geom_bond_type
Fe0 O2 1.918 . S
Fe0 O5 1.997 1_455 S
Fe0 O6 2.002 . S
Fe0 O11 1.976 . S
Fe0 O14 1.996 1_455 S
Fe1 O2 1.918 . S
Fe1 O9 1.997 . S
Fe1 O12 1.996 . S
Fe1 O16 1.976 . S
Fe1 O19 2.002 . S
O2 Fe0 1.918 . S
O2 Fe1 1.918 . S
O2 Fe3 1.918 1_455 S
Fe3 O2 1.918 1_655 S
Fe3 O4 2.002 . S
Fe3 O13 1.976 . S
Fe3 O17 1.996 . S
Fe3 O20 1.997 . S
O4 Fe3 2.002 . S
O4 C21 1.295 . S
O5 Fe0 1.997 1_655 S
O5 C21 1.235 . S
O6 Fe0 2.002 . S
O6 C7 1.295 . S
C7 O6 1.295 . S
C7 O9 1.235 . S
C8 O13 1.287 . S
C8 O14 1.255 . S
O9 Fe1 1.997 . S
O9 C7 1.235 . S
C10 O16 1.287 . S
C10 O17 1.255 1_455 S
O11 Fe0 1.976 . S
O11 C18 1.287 . S
O12 Fe1 1.996 . S
O12 C18 1.255 . S
O13 Fe3 1.976 . S
O13 C8 1.287 . S
O14 Fe0 1.996 1_655 S
O14 C8 1.255 . S
C15 O19 1.295 . S
C15 O20 1.235 1_455 S
O16 Fe1 1.976 . S
O16 C10 1.287 . S
O17 Fe3 1.996 . S
O17 C10 1.255 1_655 S
C18 O11 1.287 . S
C18 O12 1.255 . S
O19 Fe1 2.002 . S
O19 C15 1.295 . S
O20 Fe3 1.997 . S
O20 C15 1.235 1_655 S
C21 O4 1.295 . S
C21 O5 1.235 . S
Fe22 O24 1.918 . S
Fe22 O27 1.997 . S
Fe22 O28 2.002 . S
Fe22 O33 1.976 1_455 S
Fe22 O36 1.996 1_455 S
Fe23 O24 1.918 . S
Fe23 O31 1.997 . S
Fe23 O34 1.996 1_455 S
Fe23 O38 1.976 1_455 S
Fe23 O41 2.002 . S
O24 Fe22 1.918 . S
O24 Fe23 1.918 . S
O24 Fe25 1.918 . S
Fe25 O24 1.918 . S
Fe25 O26 2.002 . S
Fe25 O35 1.976 1_455 S
Fe25 O39 1.996 1_455 S
Fe25 O42 1.997 . S
O26 Fe25 2.002 . S
O26 C43 1.295 . S
O27 Fe22 1.997 . S
O27 C43 1.235 . S
O28 Fe22 2.002 . S
O28 C29 1.295 . S
C29 O28 1.295 . S
C29 O31 1.235 . S
C30 O35 1.287 . S
C30 O36 1.255 . S
O31 Fe23 1.997 . S
O31 C29 1.235 . S
C32 O38 1.287 . S
C32 O39 1.255 . S
O33 Fe22 1.976 1_655 S
O33 C40 1.287 . S
O34 Fe23 1.996 1_655 S
O34 C40 1.255 . S
O35 Fe25 1.976 1_655 S
O35 C30 1.287 . S
O36 Fe22 1.996 1_655 S
O36 C30 1.255 . S
C37 O41 1.295 . S
C37 O42 1.235 . S
O38 Fe23 1.976 1_655 S
O38 C32 1.287 . S
O39 Fe25 1.996 1_655 S
O39 C32 1.255 . S
C40 O33 1.287 . S
C40 O34 1.255 . S
O41 Fe23 2.002 . S
O41 C37 1.295 . S
O42 Fe25 1.997 . S
O42 C37 1.235 . S
C43 O26 1.295 . S
C43 O27 1.235 . S
Fe44 O46 1.918 . S
Fe44 O49 1.997 . S
Fe44 O50 2.002 . S
Fe44 O55 1.976 . S
Fe44 O58 1.996 . S
Fe45 O46 1.918 . S
Fe45 O53 1.997 . S
Fe45 O56 1.996 . S
Fe45 O60 1.976 . S
Fe45 O63 2.002 . S
O46 Fe44 1.918 . S
O46 Fe45 1.918 . S
O46 Fe47 1.918 . S
Fe47 O46 1.918 . S
Fe47 O48 2.002 . S
Fe47 O57 1.976 . S
Fe47 O61 1.996 . S
Fe47 O64 1.997 . S
O48 Fe47 2.002 . S
O48 C65 1.295 . S
O49 Fe44 1.997 . S
O49 C65 1.235 . S
O50 Fe44 2.002 . S
O50 C51 1.295 . S
C51 O50 1.295 . S
C51 O53 1.235 . S
C52 O57 1.287 . S
C52 O58 1.255 . S
O53 Fe45 1.997 . S
O53 C51 1.235 . S
C54 O60 1.287 . S
C54 O61 1.255 . S
O55 Fe44 1.976 . S
O55 C62 1.287 . S
O56 Fe45 1.996 . S
O56 C62 1.255 . S
O57 Fe47 1.976 . S
O57 C52 1.287 . S
O58 Fe44 1.996 . S
O58 C52 1.255 . S
C59 O63 1.295 . S
C59 O64 1.235 . S
O60 Fe45 1.976 . S
O60 C54 1.287 . S
O61 Fe47 1.996 . S
O61 C54 1.255 . S
C62 O55 1.287 . S
C62 O56 1.255 . S
O63 Fe45 2.002 . S
O63 C59 1.295 . S
O64 Fe47 1.997 . S
O64 C59 1.235 . S
C65 O48 1.295 . S
C65 O49 1.235 . S
Fe66 O68 1.918 . S
Fe66 O71 1.997 . S
Fe66 O72 2.002 . S
Fe66 O77 1.976 . S
Fe66 O80 1.996 . S
Fe67 O68 1.918 . S
Fe67 O75 1.997 . S
Fe67 O78 1.996 . S
Fe67 O82 1.976 . S
Fe67 O85 2.002 . S
O68 Fe66 1.918 . S
O68 Fe67 1.918 . S
O68 Fe69 1.918 . S
Fe69 O68 1.918 . S
Fe69 O70 2.002 . S
Fe69 O79 1.976 . S
Fe69 O83 1.996 . S
Fe69 O86 1.997 . S
O70 Fe69 2.002 . S
O70 C87 1.295 . S
O71 Fe66 1.997 . S
O71 C87 1.235 . S
O72 Fe66 2.002 . S
O72 C73 1.295 . S
C73 O72 1.295 . S
C73 O75 1.235 . S
C74 O79 1.287 . S
C74 O80 1.255 . S
O75 Fe67 1.997 . S
O75 C73 1.235 . S
C76 O82 1.287 . S
C76 O83 1.255 . S
O77 Fe66 1.976 . S
O77 C84 1.287 . S
O78 Fe67 1.996 . S
O78 C84 1.255 . S
O79 Fe69 1.976 . S
O79 C74 1.287 . S
O80 Fe66 1.996 . S
O80 C74 1.255 . S
C81 O85 1.295 . S
C81 O86 1.235 . S
O82 Fe67 1.976 . S
O82 C76 1.287 . S
O83 Fe69 1.996 . S
O83 C76 1.255 . S
C84 O77 1.287 . S
C84 O78 1.255 . S
O85 Fe67 2.002 . S
O85 C81 1.295 . S
O86 Fe69 1.997 . S
O86 C81 1.235 . S
C87 O70 1.295 . S
C87 O71 1.235 . S
Fe88 O90 1.918 . S
Fe88 O93 1.997 . S
Fe88 O94 2.002 . S
Fe88 O99 1.976 . S
Fe88 O102 1.996 . S
Fe89 O90 1.918 1_655 S
Fe89 O97 1.997 . S
Fe89 O100 1.996 . S
Fe89 O104 1.976 . S
Fe89 O107 2.002 . S
O90 Fe88 1.918 . S
O90 Fe89 1.918 1_455 S
O90 Fe91 1.918 . S
Fe91 O90 1.918 . S
Fe91 O92 2.002 . S
Fe91 O101 1.976 . S
Fe91 O105 1.996 1_455 S
Fe91 O108 1.997 1_455 S
O92 Fe91 2.002 . S
O92 C109 1.295 . S
O93 Fe88 1.997 . S
O93 C109 1.235 . S
O94 Fe88 2.002 . S
O94 C95 1.295 . S
C95 O94 1.295 . S
C95 O97 1.235 1_455 S
C96 O101 1.287 . S
C96 O102 1.255 . S
O97 Fe89 1.997 . S
O97 C95 1.235 1_655 S
C98 O104 1.287 . S
C98 O105 1.255 . S
O99 Fe88 1.976 . S
O99 C106 1.287 . S
O100 Fe89 1.996 . S
O100 C106 1.255 1_655 S
O101 Fe91 1.976 . S
O101 C96 1.287 . S
O102 Fe88 1.996 . S
O102 C96 1.255 . S
C103 O107 1.295 . S
C103 O108 1.235 . S
O104 Fe89 1.976 . S
O104 C98 1.287 . S
O105 Fe91 1.996 1_655 S
O105 C98 1.255 . S
C106 O99 1.287 . S
C106 O100 1.255 1_455 S
O107 Fe89 2.002 . S
O107 C103 1.295 . S
O108 Fe91 1.997 1_655 S
O108 C103 1.235 . S
C109 O92 1.295 . S
C109 O93 1.235 . S
Fe110 O112 1.918 . S
Fe110 O115 1.997 . S
Fe110 O116 2.002 . S
Fe110 O121 1.976 . S
Fe110 O124 1.996 . S
Fe111 O112 1.918 . S
Fe111 O119 1.997 . S
Fe111 O122 1.996 . S
Fe111 O126 1.976 . S
Fe111 O129 2.002 . S
O112 Fe110 1.918 . S
O112 Fe111 1.918 . S
O112 Fe113 1.918 . S
Fe113 O112 1.918 . S
Fe113 O114 2.002 . S
Fe113 O123 1.976 . S
Fe113 O127 1.996 . S
Fe113 O130 1.997 . S
O114 Fe113 2.002 . S
O114 C131 1.295 . S
O115 Fe110 1.997 . S
O115 C131 1.235 . S
O116 Fe110 2.002 . S
O116 C117 1.295 . S
C117 O116 1.295 . S
C117 O119 1.235 . S
C118 O123 1.287 . S
C118 O124 1.255 . S
O119 Fe111 1.997 . S
O119 C117 1.235 . S
C120 O126 1.287 . S
C120 O127 1.255 . S
O121 Fe110 1.976 . S
O121 C128 1.287 . S
O122 Fe111 1.996 . S
O122 C128 1.255 . S
O123 Fe113 1.976 . S
O123 C118 1.287 . S
O124 Fe110 1.996 . S
O124 C118 1.255 . S
C125 O129 1.295 . S
C125 O130 1.235 . S
O126 Fe111 1.976 . S
O126 C120 1.287 . S
O127 Fe113 1.996 . S
O127 C120 1.255 . S
C128 O121 1.287 . S
C128 O122 1.255 . S
O129 Fe111 2.002 . S
O129 C125 1.295 . S
O130 Fe113 1.997 . S
O130 C125 1.235 . S
C131 O114 1.295 . S
C131 O115 1.235 . S
Fe132 O134 1.918 . S
Fe132 O137 1.997 . S
Fe132 O138 2.002 . S
Fe132 O143 1.976 . S
Fe132 O146 1.996 . S
Fe133 O134 1.918 . S
Fe133 O141 1.997 . S
Fe133 O144 1.996 . S
Fe133 O148 1.976 . S
Fe133 O151 2.002 . S
O134 Fe132 1.918 . S
O134 Fe133 1.918 . S
O134 Fe135 1.918 . S
Fe135 O134 1.918 . S
Fe135 O136 2.002 . S
Fe135 O145 1.976 . S
Fe135 O149 1.996 . S
Fe135 O152 1.997 . S
O136 Fe135 2.002 . S
O136 C153 1.295 . S
O137 Fe132 1.997 . S
O137 C153 1.235 . S
O138 Fe132 2.002 . S
O138 C139 1.295 . S
C139 O138 1.295 . S
C139 O141 1.235 . S
C140 O145 1.287 . S
C140 O146 1.255 . S
O141 Fe133 1.997 . S
O141 C139 1.235 . S
C142 O148 1.287 . S
C142 O149 1.255 . S
O143 Fe132 1.976 . S
O143 C150 1.287 . S
O144 Fe133 1.996 . S
O144 C150 1.255 . S
O145 Fe135 1.976 . S
O145 C140 1.287 . S
O146 Fe132 1.996 . S
O146 C140 1.255 . S
C147 O151 1.295 . S
C147 O152 1.235 . S
O148 Fe133 1.976 . S
O148 C142 1.287 . S
O149 Fe135 1.996 . S
O149 C142 1.255 . S
C150 O143 1.287 . S
C150 O144 1.255 . S
O151 Fe133 2.002 . S
O151 C147 1.295 . S
O152 Fe135 1.997 . S
O152 C147 1.235 . S
C153 O136 1.295 . S
C153 O137 1.235 . S
Fe154 O156 1.918 . S
Fe154 O159 1.997 1_455 S
Fe154 O160 2.002 1_455 S
Fe154 O165 1.976 . S
Fe154 O168 1.996 . S
Fe155 O156 1.918 . S
Fe155 O163 1.997 1_455 S
Fe155 O166 1.996 . S
Fe155 O170 1.976 . S
Fe155 O173 2.002 1_455 S
O156 Fe154 1.918 . S
O156 Fe155 1.918 . S
O156 Fe157 1.918 . S
Fe157 O156 1.918 . S
Fe157 O158 2.002 1_455 S
Fe157 O167 1.976 . S
Fe157 O171 1.996 . S
Fe157 O174 1.997 1_455 S
O158 Fe157 2.002 1_655 S
O158 C175 1.295 . S
O159 Fe154 1.997 1_655 S
O159 C175 1.235 . S
O160 Fe154 2.002 1_655 S
O160 C161 1.295 . S
C161 O160 1.295 . S
C161 O163 1.235 . S
C162 O167 1.287 . S
C162 O168 1.255 . S
O163 Fe155 1.997 1_655 S
O163 C161 1.235 . S
C164 O170 1.287 . S
C164 O171 1.255 . S
O165 Fe154 1.976 . S
O165 C172 1.287 . S
O166 Fe155 1.996 . S
O166 C172 1.255 . S
O167 Fe157 1.976 . S
O167 C162 1.287 . S
O168 Fe154 1.996 . S
O168 C162 1.255 . S
C169 O173 1.295 . S
C169 O174 1.235 . S
O170 Fe155 1.976 . S
O170 C164 1.287 . S
O171 Fe157 1.996 . S
O171 C164 1.255 . S
C172 O165 1.287 . S
C172 O166 1.255 . S
O173 Fe155 2.002 1_655 S
O173 C169 1.295 . S
O174 Fe157 1.997 1_655 S
O174 C169 1.235 . S
C175 O158 1.295 . S
C175 O159 1.235 . S
H176 C184 0.950 . S
H177 C189 0.950 . S
H178 C186 0.950 . S
H179 C188 0.950 . S
H180 C190 0.950 . S
H181 C192 0.950 . S
H182 C194 0.950 . S
H183 C195 0.950 . S
C184 H176 0.950 . S
C184 C185 1.386 1_655 S
C184 C186 1.391 . S
C185 C184 1.386 1_455 S
C185 C189 1.393 . S
C186 H178 0.950 . S
C186 C184 1.391 . S
C186 C187 1.400 1_655 S
C187 C186 1.400 1_455 S
C187 C188 1.398 . S
C187 C193 1.491 1_554 S
C188 H179 0.950 . S
C188 C187 1.398 . S
C188 C189 1.391 . S
C189 H177 0.950 . S
C189 C185 1.393 . S
C189 C188 1.391 . S
C190 H180 0.950 . S
C190 C191 1.386 . S
C190 C192 1.391 . S
C191 C190 1.386 . S
C191 C195 1.393 1_455 S
C192 H181 0.950 . S
C192 C190 1.391 . S
C192 C193 1.400 . S
C193 C187 1.491 1_556 S
C193 C192 1.400 . S
C193 C194 1.398 1_455 S
C194 H182 0.950 . S
C194 C193 1.398 1_655 S
C194 C195 1.391 . S
C195 H183 0.950 . S
C195 C191 1.393 1_655 S
C195 C194 1.391 . S
H196 C204 0.950 . S
H197 C209 0.950 . S
H198 C206 0.950 . S
H199 C208 0.950 . S
H200 C210 0.950 . S
H201 C212 0.950 . S
H202 C214 0.950 . S
H203 C215 0.950 . S
C204 H196 0.950 . S
C204 C205 1.386 . S
C204 C206 1.391 . S
C205 C204 1.386 . S
C205 C209 1.393 . S
C206 H198 0.950 . S
C206 C204 1.391 . S
C206 C207 1.400 . S
C207 C206 1.400 . S
C207 C208 1.398 . S
C207 C213 1.491 . S
C208 H199 0.950 . S
C208 C207 1.398 . S
C208 C209 1.391 . S
C209 H197 0.950 . S
C209 C205 1.393 . S
C209 C208 1.391 . S
C210 H200 0.950 . S
C210 C211 1.386 . S
C210 C212 1.391 . S
C211 C210 1.386 . S
C211 C215 1.393 . S
C212 H201 0.950 . S
C212 C210 1.391 . S
C212 C213 1.400 . S
C213 C207 1.491 . S
C213 C212 1.400 . S
C213 C214 1.398 . S
C214 H202 0.950 . S
C214 C213 1.398 . S
C214 C215 1.391 . S
C215 H203 0.950 . S
C215 C211 1.393 . S
C215 C214 1.391 . S
H216 C224 0.950 . S
H217 C229 0.950 . S
H218 C226 0.950 . S
H219 C228 0.950 . S
H220 C230 0.950 . S
H221 C232 0.950 . S
H222 C234 0.950 . S
H223 C235 0.950 . S
C224 H216 0.950 . S
C224 C225 1.386 . S
C224 C226 1.391 . S
C225 C224 1.386 . S
C225 C229 1.393 . S
C226 H218 0.950 . S
C226 C224 1.391 . S
C226 C227 1.400 . S
C227 C226 1.400 . S
C227 C228 1.398 . S
C227 C233 1.491 . S
C228 H219 0.950 . S
C228 C227 1.398 . S
C228 C229 1.391 . S
C229 H217 0.950 . S
C229 C225 1.393 . S
C229 C228 1.391 . S
C230 H220 0.950 . S
C230 C231 1.386 . S
C230 C232 1.391 . S
C231 C230 1.386 . S
C231 C235 1.393 . S
C232 H221 0.950 . S
C232 C230 1.391 . S
C232 C233 1.400 . S
C233 C227 1.491 . S
C233 C232 1.400 . S
C233 C234 1.398 . S
C234 H222 0.950 . S
C234 C233 1.398 . S
C234 C235 1.391 . S
C235 H223 0.950 . S
C235 C231 1.393 . S
C235 C234 1.391 . S
H236 C244 0.950 . S
H237 C249 0.950 . S
H238 C246 0.950 . S
H239 C248 0.950 . S
H240 C250 0.950 . S
H241 C252 0.950 . S
H242 C254 0.950 . S
H243 C255 0.950 . S
C244 H236 0.950 . S
C244 C245 1.386 . S
C244 C246 1.391 . S
C245 C244 1.386 . S
C245 C249 1.393 . S
C246 H238 0.950 . S
C246 C244 1.391 . S
C246 C247 1.400 . S
C247 C246 1.400 . S
C247 C248 1.398 . S
C247 C253 1.491 . S
C248 H239 0.950 . S
C248 C247 1.398 . S
C248 C249 1.391 . S
C249 H237 0.950 . S
C249 C245 1.393 . S
C249 C248 1.391 . S
C250 H240 0.950 . S
C250 C251 1.386 . S
C250 C252 1.391 . S
C251 C250 1.386 . S
C251 C255 1.393 . S
C252 H241 0.950 . S
C252 C250 1.391 . S
C252 C253 1.400 . S
C253 C247 1.491 . S
C253 C252 1.400 . S
C253 C254 1.398 . S
C254 H242 0.950 . S
C254 C253 1.398 . S
C254 C255 1.391 . S
C255 H243 0.950 . S
C255 C251 1.393 . S
C255 C254 1.391 . S
H256 C264 0.950 . S
H257 C269 0.950 . S
H258 C266 0.950 . S
H259 C268 0.950 . S
H260 C270 0.950 . S
H261 C272 0.950 . S
H262 C274 0.950 . S
H263 C275 0.950 . S
C264 H256 0.950 . S
C264 C265 1.386 . S
C264 C266 1.391 . S
C265 C264 1.386 . S
C265 C269 1.393 . S
C266 H258 0.950 . S
C266 C264 1.391 . S
C266 C267 1.400 . S
C267 C266 1.400 . S
C267 C268 1.398 . S
C267 C273 1.491 . S
C268 H259 0.950 . S
C268 C267 1.398 . S
C268 C269 1.391 . S
C269 H257 0.950 . S
C269 C265 1.393 . S
C269 C268 1.391 . S
C270 H260 0.950 . S
C270 C271 1.386 . S
C270 C272 1.391 . S
C271 C270 1.386 . S
C271 C275 1.393 . S
C272 H261 0.950 . S
C272 C270 1.391 . S
C272 C273 1.400 . S
C273 C267 1.491 . S
C273 C272 1.400 . S
C273 C274 1.398 . S
C274 H262 0.950 . S
C274 C273 1.398 . S
C274 C275 1.391 . S
C275 H263 0.950 . S
C275 C271 1.393 . S
C275 C274 1.391 . S
H276 C284 0.950 . S
H277 C289 0.950 . S
H278 C286 0.950 . S
H279 C288 0.950 . S
H280 C290 0.950 . S
H281 C292 0.950 . S
H282 C294 0.950 . S
H283 C295 0.950 . S
C284 H276 0.950 . S
C284 C285 1.386 . S
C284 C286 1.391 . S
C285 C284 1.386 . S
C285 C289 1.393 . S
C286 H278 0.950 . S
C286 C284 1.391 . S
C286 C287 1.400 . S
C287 C286 1.400 . S
C287 C288 1.398 . S
C287 C293 1.491 . S
C288 H279 0.950 . S
C288 C287 1.398 . S
C288 C289 1.391 . S
C289 H277 0.950 . S
C289 C285 1.393 . S
C289 C288 1.391 . S
C290 H280 0.950 . S
C290 C291 1.386 . S
C290 C292 1.391 . S
C291 C290 1.386 . S
C291 C295 1.393 . S
C292 H281 0.950 . S
C292 C290 1.391 . S
C292 C293 1.400 . S
C293 C287 1.491 . S
C293 C292 1.400 . S
C293 C294 1.398 . S
C294 H282 0.950 . S
C294 C293 1.398 . S
C294 C295 1.391 . S
C295 H283 0.950 . S
C295 C291 1.393 . S
C295 C294 1.391 . S
H296 C304 0.950 . S
H297 C309 0.950 . S
H298 C306 0.950 . S
H299 C308 0.950 1_565 S
H300 C310 0.950 . S
H301 C312 0.950 . S
H302 C314 0.950 1_545 S
H303 C315 0.950 . S
C304 H296 0.950 . S
C304 C305 1.386 . S
C304 C306 1.391 . S
C305 C304 1.386 . S
C305 C309 1.393 . S
C306 H298 0.950 . S
C306 C304 1.391 . S
C306 C307 1.400 . S
C307 C306 1.400 . S
C307 C308 1.398 . S
C307 C313 1.491 1_545 S
C308 H299 0.950 1_545 S
C308 C307 1.398 . S
C308 C309 1.391 . S
C309 H297 0.950 . S
C309 C305 1.393 . S
C309 C308 1.391 . S
C310 H300 0.950 . S
C310 C311 1.386 . S
C310 C312 1.391 . S
C311 C310 1.386 . S
C311 C315 1.393 . S
C312 H301 0.950 . S
C312 C310 1.391 . S
C312 C313 1.400 . S
C313 C307 1.491 1_565 S
C313 C312 1.400 . S
C313 C314 1.398 . S
C314 H302 0.950 1_565 S
C314 C313 1.398 . S
C314 C315 1.391 . S
C315 H303 0.950 . S
C315 C311 1.393 . S
C315 C314 1.391 . S
H316 C324 0.950 . S
H317 C329 0.950 . S
H318 C326 0.950 1_556 S
H319 C328 0.950 1_565 S
H320 C330 0.950 . S
H321 C332 0.950 1_554 S
H322 C334 0.950 1_545 S
H323 C335 0.950 . S
C324 H316 0.950 . S
C324 C325 1.386 . S
C324 C326 1.391 . S
C325 C324 1.386 . S
C325 C329 1.393 1_455 S
C326 H318 0.950 1_554 S
C326 C324 1.391 . S
C326 C327 1.400 . S
C327 C326 1.400 . S
C327 C328 1.398 1_455 S
C327 C333 1.491 1_544 S
C328 H319 0.950 1_545 S
C328 C327 1.398 1_655 S
C328 C329 1.391 . S
C329 H317 0.950 . S
C329 C325 1.393 1_655 S
C329 C328 1.391 . S
C330 H320 0.950 . S
C330 C331 1.386 1_655 S
C330 C332 1.391 . S
C331 C330 1.386 1_455 S
C331 C335 1.393 . S
C332 H321 0.950 1_556 S
C332 C330 1.391 . S
C332 C333 1.400 1_655 S
C333 C327 1.491 1_566 S
C333 C332 1.400 1_455 S
C333 C334 1.398 . S
C334 H322 0.950 1_565 S
C334 C333 1.398 . S
C334 C335 1.391 . S
C335 H323 0.950 . S
C335 C331 1.393 . S
C335 C334 1.391 . S
H336 C344 0.950 . S
H337 C349 0.950 . S
H338 C346 0.950 . S
H339 C348 0.950 . S
H340 C350 0.950 . S
H341 C352 0.950 . S
H342 C354 0.950 1_565 S
H343 C355 0.950 . S
C344 H336 0.950 . S
C344 C345 1.386 . S
C344 C346 1.391 . S
C345 C344 1.386 . S
C345 C349 1.393 . S
C346 H338 0.950 . S
C346 C344 1.391 . S
C346 C347 1.400 . S
C347 C346 1.400 . S
C347 C348 1.398 1_565 S
C347 C353 1.491 1_565 S
C348 H339 0.950 . S
C348 C347 1.398 1_545 S
C348 C349 1.391 1_545 S
C349 H337 0.950 . S
C349 C345 1.393 . S
C349 C348 1.391 1_565 S
C350 H340 0.950 . S
C350 C351 1.386 . S
C350 C352 1.391 . S
C351 C350 1.386 . S
C351 C355 1.393 . S
C352 H341 0.950 . S
C352 C350 1.391 . S
C352 C353 1.400 . S
C353 C347 1.491 1_545 S
C353 C352 1.400 . S
C353 C354 1.398 . S
C354 H342 0.950 1_545 S
C354 C353 1.398 . S
C354 C355 1.391 . S
C355 H343 0.950 . S
C355 C351 1.393 . S
C355 C354 1.391 . S
H356 C364 0.950 . S
H357 C369 0.950 . S
H358 C366 0.950 . S
H359 C368 0.950 . S
H360 C370 0.950 . S
H361 C372 0.950 . S
H362 C374 0.950 . S
H363 C375 0.950 . S
C364 H356 0.950 . S
C364 C365 1.386 . S
C364 C366 1.391 . S
C365 C364 1.386 . S
C365 C369 1.393 . S
C366 H358 0.950 . S
C366 C364 1.391 . S
C366 C367 1.400 . S
C367 C366 1.400 . S
C367 C368 1.398 . S
C367 C373 1.491 1_565 S
C368 H359 0.950 . S
C368 C367 1.398 . S
C368 C369 1.391 . S
C369 H357 0.950 . S
C369 C365 1.393 . S
C369 C368 1.391 . S
C370 H360 0.950 . S
C370 C371 1.386 . S
C370 C372 1.391 . S
C371 C370 1.386 . S
C371 C375 1.393 . S
C372 H361 0.950 . S
C372 C370 1.391 . S
C372 C373 1.400 . S
C373 C367 1.491 1_545 S
C373 C372 1.400 . S
C373 C374 1.398 . S
C374 H362 0.950 . S
C374 C373 1.398 . S
C374 C375 1.391 . S
C375 H363 0.950 . S
C375 C371 1.393 . S
C375 C374 1.391 . S
H376 C384 0.950 . S
H377 C389 0.950 . S
H378 C386 0.950 1_565 S
H379 C388 0.950 . S
H380 C390 0.950 . S
H381 C392 0.950 . S
H382 C394 0.950 . S
H383 C395 0.950 . S
C384 H376 0.950 . S
C384 C385 1.386 . S
C384 C386 1.391 . S
C385 C384 1.386 . S
C385 C389 1.393 . S
C386 H378 0.950 1_545 S
C386 C384 1.391 . S
C386 C387 1.400 . S
C387 C386 1.400 . S
C387 C388 1.398 . S
C387 C393 1.491 1_545 S
C388 H379 0.950 . S
C388 C387 1.398 . S
C388 C389 1.391 . S
C389 H377 0.950 . S
C389 C385 1.393 . S
C389 C388 1.391 . S
C390 H380 0.950 . S
C390 C391 1.386 . S
C390 C392 1.391 . S
C391 C390 1.386 . S
C391 C395 1.393 . S
C392 H381 0.950 . S
C392 C390 1.391 . S
C392 C393 1.400 . S
C393 C387 1.491 1_565 S
C393 C392 1.400 . S
C393 C394 1.398 . S
C394 H382 0.950 . S
C394 C393 1.398 . S
C394 C395 1.391 . S
C395 H383 0.950 . S
C395 C391 1.393 . S
C395 C394 1.391 . S
H396 C404 0.950 . S
H397 C409 0.950 . S
H398 C406 0.950 1_545 S
H399 C408 0.950 . S
H400 C410 0.950 . S
H401 C412 0.937 1_565 S
H402 C414 0.950 . S
H403 C415 0.950 . S
C404 H396 0.950 . S
C404 C405 1.386 . S
C404 C406 1.391 . S
C405 C404 1.386 . S
C405 C409 1.393 . S
C406 H398 0.950 1_565 S
C406 C404 1.391 . S
C406 C407 1.400 . S
C407 C406 1.400 . S
C407 C408 1.398 . S
C407 C413 1.491 1_565 S
C408 H399 0.950 . S
C408 C407 1.398 . S
C408 C409 1.391 . S
C409 H397 0.950 . S
C409 C405 1.393 . S
C409 C408 1.391 . S
C410 H400 0.950 . S
C410 C411 1.386 . S
C410 C412 1.401 . S
C411 C410 1.386 . S
C411 C415 1.393 . S
C412 H401 0.937 1_545 S
C412 C410 1.401 . S
C412 C413 1.403 . S
C413 C407 1.491 1_545 S
C413 C412 1.403 . S
C413 C414 1.398 . S
C414 H402 0.950 . S
C414 C413 1.398 . S
C414 C415 1.391 . S
C415 H403 0.950 . S
C415 C411 1.393 . S
C415 C414 1.391 . S
H416 C424 0.950 . S
H417 C429 0.950 . S
H418 C426 0.950 . S
H419 C428 0.948 1_545 S
H420 C430 0.950 . S
H421 C432 0.950 . S
H422 C434 0.950 1_565 S
H423 C435 0.950 . S
C424 H416 0.950 . S
C424 C425 1.386 . S
C424 C426 1.391 . S
C425 C424 1.386 . S
C425 C429 1.393 . S
C426 H418 0.950 . S
C426 C424 1.391 . S
C426 C427 1.400 . S
C427 C426 1.400 . S
C427 C428 1.398 . S
C427 C433 1.491 1_565 S
C428 H419 0.948 1_565 S
C428 C427 1.398 . S
C428 C429 1.391 . S
C429 H417 0.950 . S
C429 C425 1.393 . S
C429 C428 1.391 . S
C430 H420 0.950 . S
C430 C431 1.386 . S
C430 C432 1.391 . S
C431 C430 1.386 . S
C431 C435 1.393 . S
C432 H421 0.950 . S
C432 C430 1.391 . S
C432 C433 1.400 . S
C433 C427 1.491 1_545 S
C433 C432 1.400 . S
C433 C434 1.398 . S
C434 H422 0.950 1_545 S
C434 C433 1.398 . S
C434 C435 1.391 . S
C435 H423 0.950 . S
C435 C431 1.393 . S
C435 C434 1.391 . S
H436 C444 0.950 . S
H437 C449 0.950 . S
H438 C446 0.950 . S
H439 C448 0.950 . S
H440 C450 0.950 . S
H441 C452 0.950 . S
H442 C454 0.950 . S
H443 C455 0.950 . S
C444 H436 0.950 . S
C444 C445 1.386 . S
C444 C446 1.391 . S
C445 C444 1.386 . S
C445 C449 1.393 . S
C446 H438 0.950 . S
C446 C444 1.391 . S
C446 C447 1.400 . S
C447 C446 1.400 . S
C447 C448 1.398 . S
C447 C453 1.491 1_545 S
C448 H439 0.950 . S
C448 C447 1.398 . S
C448 C449 1.391 . S
C449 H437 0.950 . S
C449 C445 1.393 . S
C449 C448 1.391 . S
C450 H440 0.950 . S
C450 C451 1.386 . S
C450 C452 1.391 . S
C451 C450 1.386 . S
C451 C455 1.393 . S
C452 H441 0.950 . S
C452 C450 1.391 . S
C452 C453 1.400 . S
C453 C447 1.491 1_565 S
C453 C452 1.400 . S
C453 C454 1.398 . S
C454 H442 0.950 . S
C454 C453 1.398 . S
C454 C455 1.391 . S
C455 H443 0.950 . S
C455 C451 1.393 . S
C455 C454 1.391 . S
H456 C464 0.950 . S
H457 C469 0.950 . S
H458 C466 0.950 . S
H459 C468 0.950 . S
H460 C470 0.950 . S
H461 C472 0.950 . S
H462 C474 0.950 1_565 S
H463 C475 0.950 . S
C464 H456 0.950 . S
C464 C465 1.386 . S
C464 C466 1.391 . S
C465 C464 1.386 . S
C465 C469 1.393 . S
C466 H458 0.950 . S
C466 C464 1.391 . S
C466 C467 1.400 . S
C467 C466 1.400 . S
C467 C468 1.398 1_565 S
C467 C473 1.491 1_565 S
C468 H459 0.950 . S
C468 C467 1.398 1_545 S
C468 C469 1.391 1_545 S
C469 H457 0.950 . S
C469 C465 1.393 . S
C469 C468 1.391 1_565 S
C470 H460 0.950 . S
C470 C471 1.386 . S
C470 C472 1.391 . S
C471 C470 1.386 . S
C471 C475 1.393 . S
C472 H461 0.950 . S
C472 C470 1.391 . S
C472 C473 1.400 . S
C473 C467 1.491 1_545 S
C473 C472 1.400 . S
C473 C474 1.398 . S
C474 H462 0.950 1_545 S
C474 C473 1.398 . S
C474 C475 1.391 . S
C475 H463 0.950 . S
C475 C471 1.393 . S
C475 C474 1.391 . S
H476 C484 0.950 . S
H477 C489 0.950 . S
H478 C486 0.950 . S
H479 C488 0.950 . S
H480 C490 0.950 . S
H481 C492 0.950 1_565 S
H482 C494 0.950 . S
H483 C495 0.950 . S
C484 H476 0.950 . S
C484 C485 1.386 . S
C484 C486 1.391 1_565 S
C485 C484 1.386 . S
C485 C489 1.393 . S
C486 H478 0.950 . S
C486 C484 1.391 1_545 S
C486 C487 1.400 1_545 S
C487 C486 1.400 1_565 S
C487 C488 1.398 . S
C487 C493 1.491 1_565 S
C488 H479 0.950 . S
C488 C487 1.398 . S
C488 C489 1.391 . S
C489 H477 0.950 . S
C489 C485 1.393 . S
C489 C488 1.391 . S
C490 H480 0.950 . S
C490 C491 1.386 . S
C490 C492 1.391 . S
C491 C490 1.386 . S
C491 C495 1.393 . S
C492 H481 0.950 1_545 S
C492 C490 1.391 . S
C492 C493 1.400 . S
C493 C487 1.491 1_545 S
C493 C492 1.400 . S
C493 C494 1.398 . S
C494 H482 0.950 . S
C494 C493 1.398 . S
C494 C495 1.391 . S
C495 H483 0.950 . S
C495 C491 1.393 . S
C495 C494 1.391 . S
H496 C504 0.950 . S
H497 C509 0.950 . S
H498 C506 0.950 . S
H499 C508 0.950 . S
H500 C510 0.950 . S
H501 C512 0.950 . S
H502 C514 0.950 . S
H503 C515 0.950 . S
C504 H496 0.950 . S
C504 C505 1.386 . S
C504 C506 1.391 . S
C505 C504 1.386 . S
C505 C509 1.393 . S
C506 H498 0.950 . S
C506 C504 1.391 . S
C506 C507 1.400 . S
C507 C506 1.400 . S
C507 C508 1.398 . S
C507 C513 1.491 . S
C508 H499 0.950 . S
C508 C507 1.398 . S
C508 C509 1.391 . S
C509 H497 0.950 . S
C509 C505 1.393 . S
C509 C508 1.391 . S
C510 H500 0.950 . S
C510 C511 1.386 . S
C510 C512 1.391 . S
C511 C510 1.386 . S
C511 C515 1.393 . S
C512 H501 0.950 . S
C512 C510 1.391 . S
C512 C513 1.400 . S
C513 C507 1.491 . S
C513 C512 1.400 . S
C513 C514 1.398 . S
C514 H502 0.950 . S
C514 C513 1.398 . S
C514 C515 1.391 . S
C515 H503 0.950 . S
C515 C511 1.393 . S
C515 C514 1.391 . S
H516 C524 0.950 . S
H517 C529 0.950 . S
H518 C526 0.950 . S
H519 C528 0.950 . S
H520 C530 0.950 . S
H521 C532 0.950 . S
H522 C534 0.950 . S
H523 C535 0.950 . S
C524 H516 0.950 . S
C524 C525 1.386 . S
C524 C526 1.391 . S
C525 C524 1.386 . S
C525 C529 1.393 . S
C526 H518 0.950 . S
C526 C524 1.391 . S
C526 C527 1.400 . S
C527 C526 1.400 . S
C527 C528 1.398 . S
C527 C533 1.491 . S
C528 H519 0.950 . S
C528 C527 1.398 . S
C528 C529 1.391 . S
C529 H517 0.950 . S
C529 C525 1.393 . S
C529 C528 1.391 . S
C530 H520 0.950 . S
C530 C531 1.386 . S
C530 C532 1.391 . S
C531 C530 1.386 . S
C531 C535 1.393 . S
C532 H521 0.950 . S
C532 C530 1.391 . S
C532 C533 1.400 . S
C533 C527 1.491 . S
C533 C532 1.400 . S
C533 C534 1.398 . S
C534 H522 0.950 . S
C534 C533 1.398 . S
C534 C535 1.391 . S
C535 H523 0.950 . S
C535 C531 1.393 . S
C535 C534 1.391 . S
H536 C544 0.950 . S
H537 C549 0.950 . S
H538 C546 0.950 . S
H539 C548 0.950 . S
H540 C550 0.950 . S
H541 C552 0.950 . S
H542 C554 0.950 . S
H543 C555 0.950 . S
C544 H536 0.950 . S
C544 C545 1.386 . S
C544 C546 1.391 . S
C545 C544 1.386 . S
C545 C549 1.393 . S
C546 H538 0.950 . S
C546 C544 1.391 . S
C546 C547 1.400 . S
C547 C546 1.400 . S
C547 C548 1.398 . S
C547 C553 1.491 . S
C548 H539 0.950 . S
C548 C547 1.398 . S
C548 C549 1.391 . S
C549 H537 0.950 . S
C549 C545 1.393 . S
C549 C548 1.391 . S
C550 H540 0.950 . S
C550 C551 1.386 . S
C550 C552 1.391 . S
C551 C550 1.386 . S
C551 C555 1.393 . S
C552 H541 0.950 . S
C552 C550 1.391 . S
C552 C553 1.400 . S
C553 C547 1.491 . S
C553 C552 1.400 . S
C553 C554 1.398 . S
C554 H542 0.950 . S
C554 C553 1.398 . S
C554 C555 1.391 . S
C555 H543 0.950 . S
C555 C551 1.393 . S
C555 C554 1.391 . S
H556 C564 0.950 . S
H557 C569 0.950 . S
H558 C566 0.950 . S
H559 C568 0.950 . S
H560 C570 0.950 . S
H561 C572 0.950 . S
H562 C574 0.950 . S
H563 C575 0.950 . S
C564 H556 0.950 . S
C564 C565 1.386 . S
C564 C566 1.391 . S
C565 C564 1.386 . S
C565 C569 1.393 . S
C566 H558 0.950 . S
C566 C564 1.391 . S
C566 C567 1.400 . S
C567 C566 1.400 . S
C567 C568 1.398 . S
C567 C573 1.491 . S
C568 H559 0.950 . S
C568 C567 1.398 . S
C568 C569 1.391 . S
C569 H557 0.950 . S
C569 C565 1.393 . S
C569 C568 1.391 . S
C570 H560 0.950 . S
C570 C571 1.386 . S
C570 C572 1.391 . S
C571 C570 1.386 . S
C571 C575 1.393 . S
C572 H561 0.950 . S
C572 C570 1.391 . S
C572 C573 1.400 . S
C573 C567 1.491 . S
C573 C572 1.400 . S
C573 C574 1.398 . S
C574 H562 0.950 . S
C574 C573 1.398 . S
C574 C575 1.391 . S
C575 H563 0.950 . S
C575 C571 1.393 . S
C575 C574 1.391 . S
H576 C584 0.950 . S
H577 C589 0.950 . S
H578 C586 0.950 . S
H579 C588 0.950 . S
H580 C590 0.950 . S
H581 C592 0.950 . S
H582 C594 0.950 . S
H583 C595 0.950 . S
C584 H576 0.950 . S
C584 C585 1.386 . S
C584 C586 1.391 . S
C585 C584 1.386 . S
C585 C589 1.393 . S
C586 H578 0.950 . S
C586 C584 1.391 . S
C586 C587 1.400 . S
C587 C586 1.400 . S
C587 C588 1.398 . S
C587 C593 1.491 . S
C588 H579 0.950 . S
C588 C587 1.398 . S
C588 C589 1.391 . S
C589 H577 0.950 . S
C589 C585 1.393 . S
C589 C588 1.391 . S
C590 H580 0.950 . S
C590 C591 1.386 . S
C590 C592 1.391 . S
C591 C590 1.386 . S
C591 C595 1.393 . S
C592 H581 0.950 . S
C592 C590 1.391 . S
C592 C593 1.400 . S
C593 C587 1.491 . S
C593 C592 1.400 . S
C593 C594 1.398 . S
C594 H582 0.950 . S
C594 C593 1.398 . S
C594 C595 1.391 . S
C595 H583 0.950 . S
C595 C591 1.393 . S
C595 C594 1.391 . S
H596 C604 0.950 . S
H597 C609 0.950 . S
H598 C606 0.950 . S
H599 C608 0.950 . S
H600 C610 0.950 . S
H601 C612 0.950 . S
H602 C614 0.950 . S
H603 C615 0.950 . S
C604 H596 0.950 . S
C604 C605 1.386 . S
C604 C606 1.391 . S
C605 C604 1.386 . S
C605 C609 1.393 . S
C606 H598 0.950 . S
C606 C604 1.391 . S
C606 C607 1.400 . S
C607 C606 1.400 . S
C607 C608 1.398 . S
C607 C613 1.491 . S
C608 H599 0.950 . S
C608 C607 1.398 . S
C608 C609 1.391 . S
C609 H597 0.950 . S
C609 C605 1.393 . S
C609 C608 1.391 . S
C610 H600 0.950 . S
C610 C611 1.386 . S
C610 C612 1.391 . S
C611 C610 1.386 . S
C611 C615 1.393 . S
C612 H601 0.950 . S
C612 C610 1.391 . S
C612 C613 1.400 . S
C613 C607 1.491 . S
C613 C612 1.400 . S
C613 C614 1.398 . S
C614 H602 0.950 . S
C614 C613 1.398 . S
C614 C615 1.391 . S
C615 H603 0.950 . S
C615 C611 1.393 . S
C615 C614 1.391 . S
H616 C624 0.950 . S
H617 C629 0.950 . S
H618 C626 0.950 . S
H619 C628 0.950 . S
H620 C630 0.950 . S
H621 C632 0.950 . S
H622 C634 0.950 . S
H623 C635 0.950 . S
C624 H616 0.950 . S
C624 C625 1.386 . S
C624 C626 1.391 . S
C625 C624 1.386 . S
C625 C629 1.393 . S
C626 H618 0.950 . S
C626 C624 1.391 . S
C626 C627 1.400 . S
C627 C626 1.400 . S
C627 C628 1.398 . S
C627 C633 1.491 . S
C628 H619 0.950 . S
C628 C627 1.398 . S
C628 C629 1.391 . S
C629 H617 0.950 . S
C629 C625 1.393 . S
C629 C628 1.391 . S
C630 H620 0.950 . S
C630 C631 1.386 . S
C630 C632 1.391 . S
C631 C630 1.386 . S
C631 C635 1.393 . S
C632 H621 0.950 . S
C632 C630 1.391 . S
C632 C633 1.400 . S
C633 C627 1.491 . S
C633 C632 1.400 . S
C633 C634 1.398 . S
C634 H622 0.950 . S
C634 C633 1.398 . S
C634 C635 1.391 . S
C635 H623 0.950 . S
C635 C631 1.393 . S
C635 C634 1.391 . S
H636 C644 0.950 . S
H637 C649 0.950 . S
H638 C646 0.950 . S
H639 C648 0.950 . S
H640 C650 0.950 . S
H641 C652 0.950 . S
H642 C654 0.950 . S
H643 C655 0.950 . S
C644 H636 0.950 . S
C644 C645 1.386 . S
C644 C646 1.391 . S
C645 C644 1.386 . S
C645 C649 1.393 . S
C646 H638 0.950 . S
C646 C644 1.391 . S
C646 C647 1.400 . S
C647 C646 1.400 . S
C647 C648 1.398 . S
C647 C653 1.491 . S
C648 H639 0.950 . S
C648 C647 1.398 . S
C648 C649 1.391 . S
C649 H637 0.950 . S
C649 C645 1.393 . S
C649 C648 1.391 . S
C650 H640 0.950 . S
C650 C651 1.386 . S
C650 C652 1.391 . S
C651 C650 1.386 . S
C651 C655 1.393 . S
C652 H641 0.950 . S
C652 C650 1.391 . S
C652 C653 1.400 . S
C653 C647 1.491 . S
C653 C652 1.400 . S
C653 C654 1.398 . S
C654 H642 0.950 . S
C654 C653 1.398 . S
C654 C655 1.391 . S
C655 H643 0.950 . S
C655 C651 1.393 . S
C655 C654 1.391 . S
C185 C15 1.636 . S
C191 C95 1.637 . S
C205 C128 1.533 . S
C211 C30 1.534 . S
C225 C62 1.534 . S
C231 C150 1.533 . S
C245 C87 1.632 . S
C251 C161 1.633 . S
C265 C74 1.535 . S
C271 C172 1.534 . S
C285 C117 1.634 . S
C291 C43 1.633 . S
C305 C139 1.636 . S
C311 C51 1.635 . S
C325 C10 1.535 . S
C331 C106 1.533 . S
C345 C125 1.392 . S
C351 C18 1.398 . S
C365 C29 1.453 . S
C371 C147 1.444 . S
C385 C162 1.397 . S
C391 C59 1.383 . S
C405 C96 1.337 . S
C411 C76 1.337 . S
C425 C98 1.395 . S
C431 C81 1.393 . S
C445 C175 1.450 . S
C451 C65 1.442 . S
C465 C40 1.393 . S
C471 C153 1.384 . S
C485 C120 1.337 . S
C491 C8 1.336 . S
C505 C169 1.387 . S
C511 C52 1.398 . S
C525 C103 1.448 . S
C531 C73 1.446 . S
C545 C118 1.397 . S
C551 C21 1.385 . S
C565 C32 1.337 . S
C571 C140 1.335 . S
C585 C142 1.393 . S
C591 C37 1.386 . S
C605 C7 1.443 . S
C611 C131 1.451 . S
C625 C109 1.393 . S
C631 C84 1.395 . S
C645 C164 1.337 . S
C651 C54 1.336 . S
