# Generated by pormake.
# Topology swa, (7)-cn, num edge types: 1
# Building blocks:
#     Node 0, Type 0, BuildingBlock: NUHQUE_clean_sbu_2, # of connection points: 7
#     Node 1, Type 0, BuildingBlock: NUHQUE_clean_sbu_2, # of connection points: 7
#     Node 2, Type 0, BuildingBlock: NUHQUE_clean_sbu_2, # of connection points: 7
#     Node 3, Type 0, BuildingBlock: NUHQUE_clean_sbu_2, # of connection points: 7
#     Node 4, Type 0, BuildingBlock: NUHQUE_clean_sbu_2, # of connection points: 7
#     Node 5, Type 0, BuildingBlock: NUHQUE_clean_sbu_2, # of connection points: 7
#     Node 6, Type 0, BuildingBlock: NUHQUE_clean_sbu_2, # of connection points: 7
#     Node 7, Type 0, BuildingBlock: NUHQUE_clean_sbu_2, # of connection points: 7
#     Node 8, Type 0, BuildingBlock: NUHQUE_clean_sbu_2, # of connection points: 7
#     Node 9, Type 0, BuildingBlock: NUHQUE_clean_sbu_2, # of connection points: 7
#     Node 10, Type 0, BuildingBlock: NUHQUE_clean_sbu_2, # of connection points: 7
#     Node 11, Type 0, BuildingBlock: NUHQUE_clean_sbu_2, # of connection points: 7
#     Node 12, Type 0, BuildingBlock: NUHQUE_clean_sbu_2, # of connection points: 7
#     Node 13, Type 0, BuildingBlock: NUHQUE_clean_sbu_2, # of connection points: 7
#     Node 14, Type 0, BuildingBlock: NUHQUE_clean_sbu_2, # of connection points: 7
#     Node 15, Type 0, BuildingBlock: NUHQUE_clean_sbu_2, # of connection points: 7
#     Node 16, Type 0, BuildingBlock: NUHQUE_clean_sbu_2, # of connection points: 7
#     Node 17, Type 0, BuildingBlock: NUHQUE_clean_sbu_2, # of connection points: 7
#     Node 18, Type 0, BuildingBlock: NUHQUE_clean_sbu_2, # of connection points: 7
#     Node 19, Type 0, BuildingBlock: NUHQUE_clean_sbu_2, # of connection points: 7
#     Node 20, Type 0, BuildingBlock: NUHQUE_clean_sbu_2, # of connection points: 7
#     Node 21, Type 0, BuildingBlock: NUHQUE_clean_sbu_2, # of connection points: 7
#     Node 22, Type 0, BuildingBlock: NUHQUE_clean_sbu_2, # of connection points: 7
#     Node 23, Type 0, BuildingBlock: NUHQUE_clean_sbu_2, # of connection points: 7
#     Node 24, Type 0, BuildingBlock: NUHQUE_clean_sbu_2, # of connection points: 7
#     Node 25, Type 0, BuildingBlock: NUHQUE_clean_sbu_2, # of connection points: 7
#     Node 26, Type 0, BuildingBlock: NUHQUE_clean_sbu_2, # of connection points: 7
#     Node 27, Type 0, BuildingBlock: NUHQUE_clean_sbu_2, # of connection points: 7
#     Node 28, Type 0, BuildingBlock: NUHQUE_clean_sbu_2, # of connection points: 7
#     Node 29, Type 0, BuildingBlock: NUHQUE_clean_sbu_2, # of connection points: 7
#     Node 30, Type 0, BuildingBlock: NUHQUE_clean_sbu_2, # of connection points: 7
#     Node 31, Type 0, BuildingBlock: NUHQUE_clean_sbu_2, # of connection points: 7
#     Node 32, Type 0, BuildingBlock: NUHQUE_clean_sbu_2, # of connection points: 7
#     Node 33, Type 0, BuildingBlock: NUHQUE_clean_sbu_2, # of connection points: 7
#     Node 34, Type 0, BuildingBlock: NUHQUE_clean_sbu_2, # of connection points: 7
#     Node 35, Type 0, BuildingBlock: NUHQUE_clean_sbu_2, # of connection points: 7
#     Node 36, Type 0, BuildingBlock: NUHQUE_clean_sbu_2, # of connection points: 7
#     Node 37, Type 0, BuildingBlock: NUHQUE_clean_sbu_2, # of connection points: 7
#     Node 38, Type 0, BuildingBlock: NUHQUE_clean_sbu_2, # of connection points: 7
#     Node 39, Type 0, BuildingBlock: NUHQUE_clean_sbu_2, # of connection points: 7
#     Node 40, Type 0, BuildingBlock: NUHQUE_clean_sbu_2, # of connection points: 7
#     Node 41, Type 0, BuildingBlock: NUHQUE_clean_sbu_2, # of connection points: 7
#     Node 42, Type 0, BuildingBlock: NUHQUE_clean_sbu_2, # of connection points: 7
#     Node 43, Type 0, BuildingBlock: NUHQUE_clean_sbu_2, # of connection points: 7
#     Node 44, Type 0, BuildingBlock: NUHQUE_clean_sbu_2, # of connection points: 7
#     Node 45, Type 0, BuildingBlock: NUHQUE_clean_sbu_2, # of connection points: 7
#     Node 46, Type 0, BuildingBlock: NUHQUE_clean_sbu_2, # of connection points: 7
#     Node 47, Type 0, BuildingBlock: NUHQUE_clean_sbu_2, # of connection points: 7
#     Edge 48, Type (0, 0), BuildingBlock: KIFKEQ_clean_linker_1, # of connection points: 2
#     Edge 49, Type (0, 0), BuildingBlock: KIFKEQ_clean_linker_1, # of connection points: 2
#     Edge 50, Type (0, 0), BuildingBlock: KIFKEQ_clean_linker_1, # of connection points: 2
#     Edge 51, Type (0, 0), BuildingBlock: KIFKEQ_clean_linker_1, # of connection points: 2
#     Edge 52, Type (0, 0), BuildingBlock: KIFKEQ_clean_linker_1, # of connection points: 2
#     Edge 53, Type (0, 0), BuildingBlock: KIFKEQ_clean_linker_1, # of connection points: 2
#     Edge 54, Type (0, 0), BuildingBlock: KIFKEQ_clean_linker_1, # of connection points: 2
#     Edge 55, Type (0, 0), BuildingBlock: KIFKEQ_clean_linker_1, # of connection points: 2
#     Edge 56, Type (0, 0), BuildingBlock: KIFKEQ_clean_linker_1, # of connection points: 2
#     Edge 57, Type (0, 0), BuildingBlock: KIFKEQ_clean_linker_1, # of connection points: 2
#     Edge 58, Type (0, 0), BuildingBlock: KIFKEQ_clean_linker_1, # of connection points: 2
#     Edge 59, Type (0, 0), BuildingBlock: KIFKEQ_clean_linker_1, # of connection points: 2
#     Edge 60, Type (0, 0), BuildingBlock: KIFKEQ_clean_linker_1, # of connection points: 2
#     Edge 61, Type (0, 0), BuildingBlock: KIFKEQ_clean_linker_1, # of connection points: 2
#     Edge 62, Type (0, 0), BuildingBlock: KIFKEQ_clean_linker_1, # of connection points: 2
#     Edge 63, Type (0, 0), BuildingBlock: KIFKEQ_clean_linker_1, # of connection points: 2
#     Edge 64, Type (0, 0), BuildingBlock: KIFKEQ_clean_linker_1, # of connection points: 2
#     Edge 65, Type (0, 0), BuildingBlock: KIFKEQ_clean_linker_1, # of connection points: 2
#     Edge 66, Type (0, 0), BuildingBlock: KIFKEQ_clean_linker_1, # of connection points: 2
#     Edge 67, Type (0, 0), BuildingBlock: KIFKEQ_clean_linker_1, # of connection points: 2
#     Edge 68, Type (0, 0), BuildingBlock: KIFKEQ_clean_linker_1, # of connection points: 2
#     Edge 69, Type (0, 0), BuildingBlock: KIFKEQ_clean_linker_1, # of connection points: 2
#     Edge 70, Type (0, 0), BuildingBlock: KIFKEQ_clean_linker_1, # of connection points: 2
#     Edge 71, Type (0, 0), BuildingBlock: KIFKEQ_clean_linker_1, # of connection points: 2
#     Edge 72, Type (0, 0), BuildingBlock: KIFKEQ_clean_linker_1, # of connection points: 2
#     Edge 73, Type (0, 0), BuildingBlock: KIFKEQ_clean_linker_1, # of connection points: 2
#     Edge 74, Type (0, 0), BuildingBlock: KIFKEQ_clean_linker_1, # of connection points: 2
#     Edge 75, Type (0, 0), BuildingBlock: KIFKEQ_clean_linker_1, # of connection points: 2
#     Edge 76, Type (0, 0), BuildingBlock: KIFKEQ_clean_linker_1, # of connection points: 2
#     Edge 77, Type (0, 0), BuildingBlock: KIFKEQ_clean_linker_1, # of connection points: 2
#     Edge 78, Type (0, 0), BuildingBlock: KIFKEQ_clean_linker_1, # of connection points: 2
#     Edge 79, Type (0, 0), BuildingBlock: KIFKEQ_clean_linker_1, # of connection points: 2
#     Edge 80, Type (0, 0), BuildingBlock: KIFKEQ_clean_linker_1, # of connection points: 2
#     Edge 81, Type (0, 0), BuildingBlock: KIFKEQ_clean_linker_1, # of connection points: 2
#     Edge 82, Type (0, 0), BuildingBlock: KIFKEQ_clean_linker_1, # of connection points: 2
#     Edge 83, Type (0, 0), BuildingBlock: KIFKEQ_clean_linker_1, # of connection points: 2
#     Edge 84, Type (0, 0), BuildingBlock: KIFKEQ_clean_linker_1, # of connection points: 2
#     Edge 85, Type (0, 0), BuildingBlock: KIFKEQ_clean_linker_1, # of connection points: 2
#     Edge 86, Type (0, 0), BuildingBlock: KIFKEQ_clean_linker_1, # of connection points: 2
#     Edge 87, Type (0, 0), BuildingBlock: KIFKEQ_clean_linker_1, # of connection points: 2
#     Edge 88, Type (0, 0), BuildingBlock: KIFKEQ_clean_linker_1, # of connection points: 2
#     Edge 89, Type (0, 0), BuildingBlock: KIFKEQ_clean_linker_1, # of connection points: 2
#     Edge 90, Type (0, 0), BuildingBlock: KIFKEQ_clean_linker_1, # of connection points: 2
#     Edge 91, Type (0, 0), BuildingBlock: KIFKEQ_clean_linker_1, # of connection points: 2
#     Edge 92, Type (0, 0), BuildingBlock: KIFKEQ_clean_linker_1, # of connection points: 2
#     Edge 93, Type (0, 0), BuildingBlock: KIFKEQ_clean_linker_1, # of connection points: 2
#     Edge 94, Type (0, 0), BuildingBlock: KIFKEQ_clean_linker_1, # of connection points: 2
#     Edge 95, Type (0, 0), BuildingBlock: KIFKEQ_clean_linker_1, # of connection points: 2
#     Edge 96, Type (0, 0), BuildingBlock: KIFKEQ_clean_linker_1, # of connection points: 2
#     Edge 97, Type (0, 0), BuildingBlock: KIFKEQ_clean_linker_1, # of connection points: 2
#     Edge 98, Type (0, 0), BuildingBlock: KIFKEQ_clean_linker_1, # of connection points: 2
#     Edge 99, Type (0, 0), BuildingBlock: KIFKEQ_clean_linker_1, # of connection points: 2
#     Edge 100, Type (0, 0), BuildingBlock: KIFKEQ_clean_linker_1, # of connection points: 2
#     Edge 101, Type (0, 0), BuildingBlock: KIFKEQ_clean_linker_1, # of connection points: 2
#     Edge 102, Type (0, 0), BuildingBlock: KIFKEQ_clean_linker_1, # of connection points: 2
#     Edge 103, Type (0, 0), BuildingBlock: KIFKEQ_clean_linker_1, # of connection points: 2
#     Edge 104, Type (0, 0), BuildingBlock: KIFKEQ_clean_linker_1, # of connection points: 2
#     Edge 105, Type (0, 0), BuildingBlock: KIFKEQ_clean_linker_1, # of connection points: 2
#     Edge 106, Type (0, 0), BuildingBlock: KIFKEQ_clean_linker_1, # of connection points: 2
#     Edge 107, Type (0, 0), BuildingBlock: KIFKEQ_clean_linker_1, # of connection points: 2
#     Edge 108, Type (0, 0), BuildingBlock: KIFKEQ_clean_linker_1, # of connection points: 2
#     Edge 109, Type (0, 0), BuildingBlock: KIFKEQ_clean_linker_1, # of connection points: 2
#     Edge 110, Type (0, 0), BuildingBlock: KIFKEQ_clean_linker_1, # of connection points: 2
#     Edge 111, Type (0, 0), BuildingBlock: KIFKEQ_clean_linker_1, # of connection points: 2
#     Edge 112, Type (0, 0), BuildingBlock: KIFKEQ_clean_linker_1, # of connection points: 2
#     Edge 113, Type (0, 0), BuildingBlock: KIFKEQ_clean_linker_1, # of connection points: 2
#     Edge 114, Type (0, 0), BuildingBlock: KIFKEQ_clean_linker_1, # of connection points: 2
#     Edge 115, Type (0, 0), BuildingBlock: KIFKEQ_clean_linker_1, # of connection points: 2
#     Edge 116, Type (0, 0), BuildingBlock: KIFKEQ_clean_linker_1, # of connection points: 2
#     Edge 117, Type (0, 0), BuildingBlock: KIFKEQ_clean_linker_1, # of connection points: 2
#     Edge 118, Type (0, 0), BuildingBlock: KIFKEQ_clean_linker_1, # of connection points: 2
#     Edge 119, Type (0, 0), BuildingBlock: KIFKEQ_clean_linker_1, # of connection points: 2
#     Edge 120, Type (0, 0), BuildingBlock: KIFKEQ_clean_linker_1, # of connection points: 2
#     Edge 121, Type (0, 0), BuildingBlock: KIFKEQ_clean_linker_1, # of connection points: 2
#     Edge 122, Type (0, 0), BuildingBlock: KIFKEQ_clean_linker_1, # of connection points: 2
#     Edge 123, Type (0, 0), BuildingBlock: KIFKEQ_clean_linker_1, # of connection points: 2
#     Edge 124, Type (0, 0), BuildingBlock: KIFKEQ_clean_linker_1, # of connection points: 2
#     Edge 125, Type (0, 0), BuildingBlock: KIFKEQ_clean_linker_1, # of connection points: 2
#     Edge 126, Type (0, 0), BuildingBlock: KIFKEQ_clean_linker_1, # of connection points: 2
#     Edge 127, Type (0, 0), BuildingBlock: KIFKEQ_clean_linker_1, # of connection points: 2
#     Edge 128, Type (0, 0), BuildingBlock: KIFKEQ_clean_linker_1, # of connection points: 2
#     Edge 129, Type (0, 0), BuildingBlock: KIFKEQ_clean_linker_1, # of connection points: 2
#     Edge 130, Type (0, 0), BuildingBlock: KIFKEQ_clean_linker_1, # of connection points: 2
#     Edge 131, Type (0, 0), BuildingBlock: KIFKEQ_clean_linker_1, # of connection points: 2
#     Edge 132, Type (0, 0), BuildingBlock: KIFKEQ_clean_linker_1, # of connection points: 2
#     Edge 133, Type (0, 0), BuildingBlock: KIFKEQ_clean_linker_1, # of connection points: 2
#     Edge 134, Type (0, 0), BuildingBlock: KIFKEQ_clean_linker_1, # of connection points: 2
#     Edge 135, Type (0, 0), BuildingBlock: KIFKEQ_clean_linker_1, # of connection points: 2
#     Edge 136, Type (0, 0), BuildingBlock: KIFKEQ_clean_linker_1, # of connection points: 2
#     Edge 137, Type (0, 0), BuildingBlock: KIFKEQ_clean_linker_1, # of connection points: 2
#     Edge 138, Type (0, 0), BuildingBlock: KIFKEQ_clean_linker_1, # of connection points: 2
#     Edge 139, Type (0, 0), BuildingBlock: KIFKEQ_clean_linker_1, # of connection points: 2
#     Edge 140, Type (0, 0), BuildingBlock: KIFKEQ_clean_linker_1, # of connection points: 2
#     Edge 141, Type (0, 0), BuildingBlock: KIFKEQ_clean_linker_1, # of connection points: 2
#     Edge 142, Type (0, 0), BuildingBlock: KIFKEQ_clean_linker_1, # of connection points: 2
#     Edge 143, Type (0, 0), BuildingBlock: KIFKEQ_clean_linker_1, # of connection points: 2
#     Edge 144, Type (0, 0), BuildingBlock: KIFKEQ_clean_linker_1, # of connection points: 2
#     Edge 145, Type (0, 0), BuildingBlock: KIFKEQ_clean_linker_1, # of connection points: 2
#     Edge 146, Type (0, 0), BuildingBlock: KIFKEQ_clean_linker_1, # of connection points: 2
#     Edge 147, Type (0, 0), BuildingBlock: KIFKEQ_clean_linker_1, # of connection points: 2
#     Edge 148, Type (0, 0), BuildingBlock: KIFKEQ_clean_linker_1, # of connection points: 2
#     Edge 149, Type (0, 0), BuildingBlock: KIFKEQ_clean_linker_1, # of connection points: 2
#     Edge 150, Type (0, 0), BuildingBlock: KIFKEQ_clean_linker_1, # of connection points: 2
#     Edge 151, Type (0, 0), BuildingBlock: KIFKEQ_clean_linker_1, # of connection points: 2
#     Edge 152, Type (0, 0), BuildingBlock: KIFKEQ_clean_linker_1, # of connection points: 2
#     Edge 153, Type (0, 0), BuildingBlock: KIFKEQ_clean_linker_1, # of connection points: 2
#     Edge 154, Type (0, 0), BuildingBlock: KIFKEQ_clean_linker_1, # of connection points: 2
#     Edge 155, Type (0, 0), BuildingBlock: KIFKEQ_clean_linker_1, # of connection points: 2
#     Edge 156, Type (0, 0), BuildingBlock: KIFKEQ_clean_linker_1, # of connection points: 2
#     Edge 157, Type (0, 0), BuildingBlock: KIFKEQ_clean_linker_1, # of connection points: 2
#     Edge 158, Type (0, 0), BuildingBlock: KIFKEQ_clean_linker_1, # of connection points: 2
#     Edge 159, Type (0, 0), BuildingBlock: KIFKEQ_clean_linker_1, # of connection points: 2
#     Edge 160, Type (0, 0), BuildingBlock: KIFKEQ_clean_linker_1, # of connection points: 2
#     Edge 161, Type (0, 0), BuildingBlock: KIFKEQ_clean_linker_1, # of connection points: 2
#     Edge 162, Type (0, 0), BuildingBlock: KIFKEQ_clean_linker_1, # of connection points: 2
#     Edge 163, Type (0, 0), BuildingBlock: KIFKEQ_clean_linker_1, # of connection points: 2
#     Edge 164, Type (0, 0), BuildingBlock: KIFKEQ_clean_linker_1, # of connection points: 2
#     Edge 165, Type (0, 0), BuildingBlock: KIFKEQ_clean_linker_1, # of connection points: 2
#     Edge 166, Type (0, 0), BuildingBlock: KIFKEQ_clean_linker_1, # of connection points: 2
#     Edge 167, Type (0, 0), BuildingBlock: KIFKEQ_clean_linker_1, # of connection points: 2
#     Edge 168, Type (0, 0), BuildingBlock: KIFKEQ_clean_linker_1, # of connection points: 2
#     Edge 169, Type (0, 0), BuildingBlock: KIFKEQ_clean_linker_1, # of connection points: 2
#     Edge 170, Type (0, 0), BuildingBlock: KIFKEQ_clean_linker_1, # of connection points: 2
#     Edge 171, Type (0, 0), BuildingBlock: KIFKEQ_clean_linker_1, # of connection points: 2
#     Edge 172, Type (0, 0), BuildingBlock: KIFKEQ_clean_linker_1, # of connection points: 2
#     Edge 173, Type (0, 0), BuildingBlock: KIFKEQ_clean_linker_1, # of connection points: 2
#     Edge 174, Type (0, 0), BuildingBlock: KIFKEQ_clean_linker_1, # of connection points: 2
#     Edge 175, Type (0, 0), BuildingBlock: KIFKEQ_clean_linker_1, # of connection points: 2
#     Edge 176, Type (0, 0), BuildingBlock: KIFKEQ_clean_linker_1, # of connection points: 2
#     Edge 177, Type (0, 0), BuildingBlock: KIFKEQ_clean_linker_1, # of connection points: 2
#     Edge 178, Type (0, 0), BuildingBlock: KIFKEQ_clean_linker_1, # of connection points: 2
#     Edge 179, Type (0, 0), BuildingBlock: KIFKEQ_clean_linker_1, # of connection points: 2
#     Edge 180, Type (0, 0), BuildingBlock: KIFKEQ_clean_linker_1, # of connection points: 2
#     Edge 181, Type (0, 0), BuildingBlock: KIFKEQ_clean_linker_1, # of connection points: 2
#     Edge 182, Type (0, 0), BuildingBlock: KIFKEQ_clean_linker_1, # of connection points: 2
#     Edge 183, Type (0, 0), BuildingBlock: KIFKEQ_clean_linker_1, # of connection points: 2
#     Edge 184, Type (0, 0), BuildingBlock: KIFKEQ_clean_linker_1, # of connection points: 2
#     Edge 185, Type (0, 0), BuildingBlock: KIFKEQ_clean_linker_1, # of connection points: 2
#     Edge 186, Type (0, 0), BuildingBlock: KIFKEQ_clean_linker_1, # of connection points: 2
#     Edge 187, Type (0, 0), BuildingBlock: KIFKEQ_clean_linker_1, # of connection points: 2
#     Edge 188, Type (0, 0), BuildingBlock: KIFKEQ_clean_linker_1, # of connection points: 2
#     Edge 189, Type (0, 0), BuildingBlock: KIFKEQ_clean_linker_1, # of connection points: 2
#     Edge 190, Type (0, 0), BuildingBlock: KIFKEQ_clean_linker_1, # of connection points: 2
#     Edge 191, Type (0, 0), BuildingBlock: KIFKEQ_clean_linker_1, # of connection points: 2
#     Edge 192, Type (0, 0), BuildingBlock: KIFKEQ_clean_linker_1, # of connection points: 2
#     Edge 193, Type (0, 0), BuildingBlock: KIFKEQ_clean_linker_1, # of connection points: 2
#     Edge 194, Type (0, 0), BuildingBlock: KIFKEQ_clean_linker_1, # of connection points: 2
#     Edge 195, Type (0, 0), BuildingBlock: KIFKEQ_clean_linker_1, # of connection points: 2
#     Edge 196, Type (0, 0), BuildingBlock: KIFKEQ_clean_linker_1, # of connection points: 2
#     Edge 197, Type (0, 0), BuildingBlock: KIFKEQ_clean_linker_1, # of connection points: 2
#     Edge 198, Type (0, 0), BuildingBlock: KIFKEQ_clean_linker_1, # of connection points: 2
#     Edge 199, Type (0, 0), BuildingBlock: KIFKEQ_clean_linker_1, # of connection points: 2
#     Edge 200, Type (0, 0), BuildingBlock: KIFKEQ_clean_linker_1, # of connection points: 2
#     Edge 201, Type (0, 0), BuildingBlock: KIFKEQ_clean_linker_1, # of connection points: 2
#     Edge 202, Type (0, 0), BuildingBlock: KIFKEQ_clean_linker_1, # of connection points: 2
#     Edge 203, Type (0, 0), BuildingBlock: KIFKEQ_clean_linker_1, # of connection points: 2
#     Edge 204, Type (0, 0), BuildingBlock: KIFKEQ_clean_linker_1, # of connection points: 2
#     Edge 205, Type (0, 0), BuildingBlock: KIFKEQ_clean_linker_1, # of connection points: 2
#     Edge 206, Type (0, 0), BuildingBlock: KIFKEQ_clean_linker_1, # of connection points: 2
#     Edge 207, Type (0, 0), BuildingBlock: KIFKEQ_clean_linker_1, # of connection points: 2
#     Edge 208, Type (0, 0), BuildingBlock: KIFKEQ_clean_linker_1, # of connection points: 2
#     Edge 209, Type (0, 0), BuildingBlock: KIFKEQ_clean_linker_1, # of connection points: 2
#     Edge 210, Type (0, 0), BuildingBlock: KIFKEQ_clean_linker_1, # of connection points: 2
#     Edge 211, Type (0, 0), BuildingBlock: KIFKEQ_clean_linker_1, # of connection points: 2
#     Edge 212, Type (0, 0), BuildingBlock: KIFKEQ_clean_linker_1, # of connection points: 2
#     Edge 213, Type (0, 0), BuildingBlock: KIFKEQ_clean_linker_1, # of connection points: 2
#     Edge 214, Type (0, 0), BuildingBlock: KIFKEQ_clean_linker_1, # of connection points: 2
#     Edge 215, Type (0, 0), BuildingBlock: KIFKEQ_clean_linker_1, # of connection points: 2
# Relax obj value: 0.244
# Max RMSD: 0.240
# Mean RMSD: 0.240
data_MOF--net-swa--node1-NUHQUE_clean_sbu_2--edge1-KIFKEQ_clean_linker_1
_symmetry_space_group_name_H-M    P1
_symmetry_Int_Tables_number       1
_symmetry_cell_setting            triclinic
loop_
_symmetry_equiv_pos_as_xyz
'x, y, z'
_cell_length_a     71.23382
_cell_length_b     71.170101
_cell_length_c     71.1909
_cell_angle_alpha  89.985528
_cell_angle_beta   90.071496
_cell_angle_gamma 89.957628
loop_
_atom_site_label
_atom_site_type_symbol
_atom_site_fract_x
_atom_site_fract_y
_atom_site_fract_z
_atom_type_partial_charge
O0 O 0.11799 0.65366 0.13253 0.0
Tb1 Tb 0.09161 0.66055 0.11872 0.0
Eu2 Eu 0.08574 0.67271 0.16667 0.0
C3 C 0.13275 0.66409 0.12878 0.0
O4 O 0.13079 0.67881 0.11783 0.0
C5 C 0.09958 0.69982 0.13497 0.0
O6 O 0.06143 0.69303 0.16609 0.0
C7 C 0.09844 0.66835 0.20057 0.0
C8 C 0.05084 0.69417 0.151 0.0
O9 O 0.0544 0.68314 0.1367 0.0
C10 C 0.05959 0.64213 0.14394 0.0
C11 C 0.09392 0.65851 0.21828 0.0
C12 C 0.10866 0.65135 0.22937 0.0
C13 C 0.10489 0.64335 0.247 0.0
C14 C 0.08639 0.64282 0.25356 0.0
C15 C 0.07167 0.65073 0.24316 0.0
C16 C 0.07537 0.65804 0.22522 0.0
O17 O 0.08987 0.6907 0.12229 0.0
O18 O 0.10542 0.69117 0.15017 0.0
O19 O 0.10107 0.64321 0.09505 0.0
O20 O 0.08826 0.66949 0.0895 0.0
C21 C 0.09585 0.65477 0.08189 0.0
O22 O 0.06763 0.64744 0.1598 0.0
O23 O 0.06576 0.64702 0.1272 0.0
O24 O 0.08703 0.68201 0.19558 0.0
O25 O 0.1043 0.65808 0.18634 0.0
H26 H 0.12305 0.65251 0.22458 0.0
H27 H 0.0836 0.6373 0.26749 0.0
H28 H 0.06405 0.66433 0.2172 0.0
O29 O 0.87136 0.11772 0.14034 0.0
Tb30 Tb 0.86434 0.09174 0.12603 0.0
Eu31 Eu 0.84956 0.08611 0.17354 0.0
C32 C 0.86234 0.13292 0.13503 0.0
O33 O 0.84956 0.13165 0.12179 0.0
C34 C 0.82591 0.10321 0.14118 0.0
O35 O 0.82753 0.06389 0.16861 0.0
C36 C 0.8507 0.09551 0.20873 0.0
C37 C 0.82826 0.0529 0.1538 0.0
O38 O 0.84245 0.05439 0.14218 0.0
C39 C 0.88292 0.06114 0.15284 0.0
C40 C 0.85978 0.08905 0.22626 0.0
C41 C 0.86601 0.10239 0.23944 0.0
C42 C 0.87408 0.09658 0.25651 0.0
C43 C 0.8759 0.07732 0.26024 0.0
C44 C 0.86914 0.06386 0.24758 0.0
C45 C 0.86121 0.06975 0.23051 0.0
O46 O 0.8342 0.09165 0.12953 0.0
O47 O 0.83437 0.10817 0.15678 0.0
O48 O 0.87969 0.10379 0.10218 0.0
O49 O 0.85686 0.08548 0.09688 0.0
C50 C 0.86966 0.09587 0.08911 0.0
O51 O 0.87528 0.06825 0.16817 0.0
O52 O 0.87934 0.06715 0.13569 0.0
O53 O 0.83787 0.08434 0.20156 0.0
O54 O 0.86163 0.10324 0.19598 0.0
H55 H 0.86425 0.11726 0.23659 0.0
H56 H 0.88133 0.07278 0.27375 0.0
H57 H 0.85586 0.05933 0.22077 0.0
O58 O 0.38516 0.87285 0.13778 0.0
Tb59 Tb 0.41093 0.86435 0.12375 0.0
Eu60 Eu 0.42109 0.8516 0.17186 0.0
C61 C 0.37121 0.86074 0.13748 0.0
O62 O 0.37395 0.84426 0.12969 0.0
C63 C 0.40828 0.8251 0.14007 0.0
O64 O 0.4463 0.83229 0.17123 0.0
C65 C 0.40918 0.85584 0.20601 0.0
C66 C 0.45707 0.8317 0.15625 0.0
O67 O 0.45333 0.84283 0.14208 0.0
C68 C 0.44465 0.88241 0.14706 0.0
C69 C 0.4148 0.86569 0.22335 0.0
C70 C 0.40091 0.87244 0.23565 0.0
C71 C 0.40599 0.88068 0.25285 0.0
C72 C 0.42506 0.88219 0.25759 0.0
C73 C 0.43897 0.87484 0.24584 0.0
C74 C 0.43384 0.86681 0.2286 0.0
O75 O 0.41806 0.83523 0.12832 0.0
O76 O 0.40189 0.83275 0.15551 0.0
O77 O 0.41208 0.87948 0.09686 0.0
O78 O 0.40181 0.85153 0.09746 0.0
C79 C 0.4055 0.86576 0.08671 0.0
O80 O 0.43741 0.87758 0.16344 0.0
O81 O 0.43754 0.87726 0.13075 0.0
O82 O 0.42019 0.84201 0.20067 0.0
O83 O 0.40305 0.86622 0.19195 0.0
H84 H 0.38619 0.87074 0.23213 0.0
H85 H 0.42903 0.88762 0.27127 0.0
H86 H 0.44462 0.86086 0.21965 0.0
O87 O 0.63594 0.39097 0.12732 0.0
Tb88 Tb 0.64458 0.41923 0.1197 0.0
Eu89 Eu 0.66072 0.42386 0.16866 0.0
C90 C 0.63207 0.38456 0.14418 0.0
O91 O 0.63311 0.39561 0.15886 0.0
C92 C 0.68195 0.40529 0.136 0.0
O93 O 0.68356 0.4449 0.16221 0.0
C94 C 0.66135 0.41505 0.20406 0.0
C95 C 0.6824 0.45619 0.14763 0.0
O96 O 0.66761 0.45527 0.13669 0.0
C97 C 0.62733 0.44932 0.14876 0.0
C98 C 0.65232 0.42112 0.22171 0.0
C99 C 0.64578 0.40742 0.23435 0.0
C100 C 0.63709 0.41276 0.25121 0.0
C101 C 0.63505 0.4319 0.25537 0.0
C102 C 0.64211 0.44572 0.24329 0.0
C103 C 0.65066 0.44031 0.22637 0.0
O104 O 0.67453 0.41737 0.12428 0.0
O105 O 0.67278 0.40053 0.15119 0.0
O106 O 0.62885 0.41261 0.0941 0.0
O107 O 0.65459 0.42724 0.09171 0.0
C108 C 0.64075 0.4199 0.08236 0.0
O109 O 0.63488 0.44168 0.1639 0.0
O110 O 0.63039 0.44354 0.1314 0.0
O111 O 0.67326 0.42681 0.1963 0.0
O112 O 0.6505 0.40652 0.19179 0.0
H113 H 0.64759 0.39263 0.23116 0.0
H114 H 0.62903 0.43605 0.26874 0.0
H115 H 0.65612 0.451 0.21702 0.0
O116 O 0.11949 0.87418 0.37498 0.0
Tb117 Tb 0.09398 0.8644 0.38855 0.0
Eu118 Eu 0.08453 0.85421 0.34013 0.0
C119 C 0.1343 0.86315 0.37577 0.0
O120 O 0.13284 0.84675 0.38407 0.0
C121 C 0.09996 0.82695 0.36956 0.0
O122 O 0.06099 0.83295 0.3417 0.0
C123 C 0.09487 0.85924 0.30563 0.0
C124 C 0.05026 0.83187 0.35668 0.0
O125 O 0.05282 0.84386 0.37041 0.0
C126 C 0.06085 0.88426 0.36587 0.0
C127 C 0.08844 0.86922 0.28869 0.0
C128 C 0.10176 0.87587 0.27579 0.0
C129 C 0.09595 0.88389 0.25875 0.0
C130 C 0.07673 0.88515 0.25467 0.0
C131 C 0.06325 0.87804 0.26713 0.0
C132 C 0.06919 0.87043 0.28435 0.0
O133 O 0.08939 0.83503 0.38222 0.0
O134 O 0.10591 0.83683 0.35527 0.0
O135 O 0.09409 0.87962 0.41539 0.0
O136 O 0.10147 0.8508 0.41502 0.0
C137 C 0.09922 0.8654 0.42565 0.0
O138 O 0.06773 0.87958 0.3493 0.0
O139 O 0.06747 0.87787 0.38197 0.0
O140 O 0.08432 0.84516 0.31116 0.0
O141 O 0.10136 0.86953 0.31956 0.0
H142 H 0.11662 0.87421 0.2787 0.0
H143 H 0.07235 0.89025 0.24099 0.0
H144 H 0.05889 0.86483 0.29404 0.0
O145 O 0.63484 0.12022 0.37828 0.0
Tb146 Tb 0.65022 0.09721 0.39163 0.0
Eu147 Eu 0.66125 0.08376 0.34399 0.0
C148 C 0.64258 0.13102 0.36543 0.0
O149 O 0.65807 0.12542 0.35728 0.0
C150 C 0.69013 0.10604 0.3729 0.0
O151 O 0.67581 0.05574 0.34423 0.0
C152 C 0.65569 0.0955 0.31002 0.0
C153 C 0.68516 0.05083 0.3594 0.0
O154 O 0.6846 0.06187 0.37417 0.0
C155 C 0.63454 0.06172 0.37091 0.0
C156 C 0.64398 0.09173 0.29338 0.0
C157 C 0.63793 0.10686 0.28225 0.0
C158 C 0.6293 0.10362 0.26479 0.0
C159 C 0.62646 0.08508 0.25872 0.0
C160 C 0.63308 0.06989 0.26939 0.0
C161 C 0.64139 0.07325 0.28691 0.0
O162 O 0.67872 0.10689 0.38737 0.0
O163 O 0.68598 0.09879 0.35645 0.0
O164 O 0.6339 0.10501 0.41661 0.0
O165 O 0.66157 0.09461 0.42 0.0
C166 C 0.64692 0.1009 0.42878 0.0
O167 O 0.6345 0.07149 0.35531 0.0
O168 O 0.64345 0.06795 0.38581 0.0
O169 O 0.6679 0.08239 0.3145 0.0
O170 O 0.64761 0.10342 0.32466 0.0
H171 H 0.64097 0.12114 0.28662 0.0
H172 H 0.62102 0.08253 0.24471 0.0
H173 H 0.64687 0.0615 0.29493 0.0
O174 O 0.38676 0.63022 0.3751 0.0
Tb175 Tb 0.41043 0.64602 0.38643 0.0
Eu176 Eu 0.42054 0.6589 0.33814 0.0
C177 C 0.37609 0.63594 0.36114 0.0
O178 O 0.38163 0.65001 0.3507 0.0
C179 C 0.39778 0.68551 0.36868 0.0
O180 O 0.44764 0.67506 0.34002 0.0
C181 C 0.41063 0.6548 0.30332 0.0
C182 C 0.45194 0.68435 0.3554 0.0
O183 O 0.44071 0.68328 0.36996 0.0
C184 C 0.44391 0.6302 0.36294 0.0
C185 C 0.41538 0.64444 0.28602 0.0
C186 C 0.40073 0.63816 0.27435 0.0
C187 C 0.40466 0.63047 0.25663 0.0
C188 C 0.42334 0.62912 0.25066 0.0
C189 C 0.43803 0.6362 0.26169 0.0
C190 C 0.43408 0.64325 0.27967 0.0
O191 O 0.40144 0.67488 0.38335 0.0
O192 O 0.40181 0.68091 0.35123 0.0
O193 O 0.4036 0.62899 0.41119 0.0
O194 O 0.4156 0.65589 0.41509 0.0
C195 C 0.40919 0.64113 0.42362 0.0
O196 O 0.43398 0.63174 0.34747 0.0
O197 O 0.43882 0.63864 0.37848 0.0
O198 O 0.42284 0.66739 0.30909 0.0
O199 O 0.40269 0.64537 0.31709 0.0
H200 H 0.38626 0.64014 0.27862 0.0
H201 H 0.42632 0.62408 0.23659 0.0
H202 H 0.44536 0.64909 0.28806 0.0
O203 O 0.86291 0.38984 0.37627 0.0
Tb204 Tb 0.85568 0.41579 0.39064 0.0
Eu205 Eu 0.84274 0.4206 0.34253 0.0
C206 C 0.85399 0.3747 0.38194 0.0
O207 O 0.84136 0.37647 0.39526 0.0
C208 C 0.81734 0.40451 0.37446 0.0
O209 O 0.8212 0.44383 0.34238 0.0
C210 C 0.84882 0.40839 0.30876 0.0
C211 C 0.81827 0.45331 0.35795 0.0
O212 O 0.82869 0.44976 0.37273 0.0
C213 C 0.87218 0.44886 0.3651 0.0
C214 C 0.85693 0.4155 0.29108 0.0
C215 C 0.8646 0.4028 0.27798 0.0
C216 C 0.8706 0.40911 0.26018 0.0
C217 C 0.86892 0.42833 0.25594 0.0
C218 C 0.8614 0.44103 0.26887 0.0
C219 C 0.8555 0.43468 0.28648 0.0
O220 O 0.82557 0.41519 0.38698 0.0
O221 O 0.82642 0.39933 0.35931 0.0
O222 O 0.8715 0.40464 0.4147 0.0
O223 O 0.84707 0.42089 0.41967 0.0
C224 C 0.86053 0.41149 0.42761 0.0
O225 O 0.8655 0.44169 0.34934 0.0
O226 O 0.86919 0.44164 0.38189 0.0
O227 O 0.83305 0.41641 0.31404 0.0
O228 O 0.86049 0.40519 0.32278 0.0
H229 H 0.86541 0.38801 0.2815 0.0
H230 H 0.87245 0.43347 0.24205 0.0
H231 H 0.84925 0.44451 0.29628 0.0
O232 O 0.13033 0.12015 0.6355 0.0
Tb233 Tb 0.11923 0.09696 0.65219 0.0
Eu234 Eu 0.16822 0.0867 0.66467 0.0
C235 C 0.14474 0.13065 0.64034 0.0
O236 O 0.15559 0.12529 0.65417 0.0
C237 C 0.1382 0.1102 0.69088 0.0
O238 O 0.16636 0.06122 0.68337 0.0
C239 C 0.20303 0.09635 0.65977 0.0
C240 C 0.15 0.05518 0.6894 0.0
O241 O 0.13461 0.06363 0.68377 0.0
C242 C 0.14249 0.06243 0.63753 0.0
C243 C 0.21992 0.09134 0.64892 0.0
C244 C 0.23266 0.10555 0.64384 0.0
C245 C 0.24986 0.10094 0.63534 0.0
C246 C 0.25411 0.08204 0.63182 0.0
C247 C 0.24191 0.0677 0.63759 0.0
C248 C 0.22466 0.07241 0.6458 0.0
O249 O 0.12317 0.10624 0.68089 0.0
O250 O 0.15553 0.10644 0.68577 0.0
O251 O 0.09409 0.10414 0.63583 0.0
O252 O 0.09079 0.09225 0.66285 0.0
C253 C 0.08193 0.09881 0.64833 0.0
O254 O 0.15789 0.07256 0.63823 0.0
O255 O 0.12679 0.0683 0.64517 0.0
O256 O 0.19747 0.08405 0.67236 0.0
O257 O 0.18908 0.10441 0.65068 0.0
H258 H 0.2296 0.12007 0.64727 0.0
H259 H 0.26785 0.07838 0.62636 0.0
H260 H 0.21541 0.06131 0.65058 0.0
O261 O 0.39334 0.13744 0.63894 0.0
Tb262 Tb 0.41804 0.12278 0.6495 0.0
Eu263 Eu 0.42746 0.17026 0.66412 0.0
C264 C 0.37831 0.138 0.64967 0.0
O265 O 0.37925 0.131 0.66669 0.0
C266 C 0.41295 0.1377 0.6893 0.0
O267 O 0.4517 0.16881 0.68465 0.0
C268 C 0.41561 0.2045 0.66012 0.0
C269 C 0.46232 0.1537 0.68548 0.0
O270 O 0.45904 0.13982 0.67385 0.0
C271 C 0.45232 0.1465 0.63385 0.0
C272 C 0.42076 0.22167 0.64974 0.0
C273 C 0.40661 0.23419 0.64394 0.0
C274 C 0.4113 0.25124 0.63515 0.0
C275 C 0.43027 0.25557 0.63213 0.0
C276 C 0.44454 0.24355 0.63844 0.0
C277 C 0.43973 0.22648 0.64702 0.0
O278 O 0.42296 0.12603 0.67927 0.0
O279 O 0.40752 0.15374 0.68207 0.0
O280 O 0.42017 0.0965 0.63343 0.0
O281 O 0.40745 0.09617 0.66034 0.0
C282 C 0.41223 0.08593 0.64606 0.0
O283 O 0.44401 0.16253 0.63808 0.0
O284 O 0.4456 0.12998 0.63882 0.0
O285 O 0.42732 0.19921 0.6734 0.0
O286 O 0.40886 0.19038 0.65024 0.0
H287 H 0.39202 0.23092 0.64674 0.0
H288 H 0.43399 0.26914 0.62626 0.0
H289 H 0.45076 0.21726 0.65209 0.0
O290 O 0.37583 0.39007 0.63699 0.0
Tb291 Tb 0.3857 0.41271 0.65504 0.0
Eu292 Eu 0.33637 0.42442 0.66434 0.0
C293 C 0.36244 0.37828 0.64179 0.0
O294 O 0.35148 0.38241 0.65597 0.0
C295 C 0.36394 0.39911 0.69215 0.0
O296 O 0.3403 0.45102 0.68116 0.0
C297 C 0.30127 0.41612 0.6592 0.0
C298 C 0.35627 0.45377 0.69005 0.0
O299 O 0.3697 0.44126 0.68829 0.0
C300 C 0.36357 0.44645 0.63826 0.0
C301 C 0.28443 0.4197 0.64755 0.0
C302 C 0.2738 0.40432 0.64099 0.0
C303 C 0.25654 0.40728 0.6319 0.0
C304 C 0.24988 0.42566 0.62966 0.0
C305 C 0.25971 0.441 0.63702 0.0
C306 C 0.27732 0.43807 0.64537 0.0
O307 O 0.37953 0.40088 0.6824 0.0
O308 O 0.34737 0.40562 0.68719 0.0
O309 O 0.41186 0.40826 0.63947 0.0
O310 O 0.41334 0.41651 0.66801 0.0
C311 C 0.42316 0.41223 0.65326 0.0
O312 O 0.3486 0.43577 0.63752 0.0
O313 O 0.37796 0.4415 0.64864 0.0
O314 O 0.30709 0.42988 0.67009 0.0
O315 O 0.31502 0.40616 0.65186 0.0
H316 H 0.27858 0.39008 0.6436 0.0
H317 H 0.23614 0.42794 0.62345 0.0
H318 H 0.28475 0.44993 0.65136 0.0
O319 O 0.12166 0.38666 0.63617 0.0
Tb320 Tb 0.09387 0.39335 0.64691 0.0
Eu321 Eu 0.09023 0.34253 0.66159 0.0
C322 C 0.12841 0.36999 0.63201 0.0
O323 O 0.11798 0.35496 0.63386 0.0
C324 C 0.10869 0.37529 0.68333 0.0
O325 O 0.06798 0.3445 0.68411 0.0
C326 C 0.10239 0.3082 0.65868 0.0
C327 C 0.05895 0.36035 0.68708 0.0
O328 O 0.0625 0.37491 0.67637 0.0
C329 C 0.06198 0.36438 0.63185 0.0
C330 C 0.09685 0.28933 0.65221 0.0
C331 C 0.11074 0.27724 0.645 0.0
C332 C 0.1061 0.25886 0.63964 0.0
C333 C 0.08766 0.25254 0.64185 0.0
C334 C 0.07384 0.26411 0.64973 0.0
C335 C 0.07833 0.28273 0.65445 0.0
O336 O 0.09777 0.38847 0.67662 0.0
O337 O 0.11328 0.36095 0.6728 0.0
O338 O 0.09787 0.41913 0.63062 0.0
O339 O 0.08669 0.42115 0.65808 0.0
C340 C 0.09192 0.43069 0.64343 0.0
O341 O 0.07001 0.34875 0.6379 0.0
O342 O 0.06829 0.38155 0.63507 0.0
O343 O 0.09387 0.31477 0.67367 0.0
O344 O 0.10527 0.321 0.6457 0.0
H345 H 0.12516 0.28198 0.6439 0.0
H346 H 0.08425 0.23812 0.63823 0.0
H347 H 0.06772 0.29173 0.66062 0.0
O348 O 0.12986 0.38995 0.87443 0.0
Tb349 Tb 0.11964 0.41233 0.85614 0.0
Eu350 Eu 0.16851 0.41933 0.8431 0.0
C351 C 0.14392 0.37866 0.87041 0.0
O352 O 0.15498 0.38271 0.85633 0.0
C353 C 0.13725 0.39507 0.81854 0.0
O354 O 0.16741 0.44546 0.82522 0.0
C355 C 0.20305 0.40864 0.84792 0.0
C356 C 0.15229 0.44938 0.81532 0.0
O357 O 0.13771 0.43817 0.81646 0.0
C358 C 0.14421 0.44619 0.86881 0.0
C359 C 0.22093 0.41418 0.85681 0.0
C360 C 0.23293 0.40015 0.864 0.0
C361 C 0.25095 0.40486 0.87051 0.0
C362 C 0.25701 0.42352 0.8694 0.0
C363 C 0.24548 0.43747 0.86172 0.0
C364 C 0.22723 0.43292 0.85595 0.0
O365 O 0.12257 0.40022 0.82847 0.0
O366 O 0.15476 0.39894 0.82304 0.0
O367 O 0.09472 0.40907 0.87393 0.0
O368 O 0.0912 0.41724 0.84556 0.0
C369 C 0.08248 0.41342 0.86109 0.0
O370 O 0.15924 0.43548 0.86883 0.0
O371 O 0.12891 0.44101 0.86 0.0
O372 O 0.19735 0.41905 0.83377 0.0
O373 O 0.18931 0.403 0.85889 0.0
H374 H 0.22851 0.38558 0.86398 0.0
H375 H 0.27126 0.42705 0.87353 0.0
H376 H 0.21845 0.4437 0.84972 0.0
O377 O 0.12614 0.1373 0.87471 0.0
Tb378 Tb 0.10274 0.12128 0.86334 0.0
Eu379 Eu 0.08984 0.16919 0.85184 0.0
C380 C 0.14097 0.13979 0.864 0.0
O381 O 0.14049 0.13374 0.84661 0.0
C382 C 0.1069 0.13935 0.82422 0.0
O383 O 0.06398 0.16759 0.83345 0.0
C384 C 0.09988 0.20378 0.85727 0.0
C385 C 0.05596 0.15125 0.83026 0.0
O386 O 0.06301 0.13612 0.83801 0.0
C387 C 0.06719 0.14196 0.87975 0.0
C388 C 0.094 0.22067 0.8677 0.0
C389 C 0.10771 0.23334 0.87411 0.0
C390 C 0.10241 0.25043 0.88246 0.0
C391 C 0.08328 0.2546 0.88449 0.0
C392 C 0.06948 0.24242 0.87751 0.0
C393 C 0.07488 0.22531 0.86939 0.0
O394 O 0.09949 0.12522 0.83338 0.0
O395 O 0.11053 0.15531 0.83263 0.0
O396 O 0.1141 0.09498 0.85245 0.0
O397 O 0.10229 0.09516 0.87977 0.0
C398 C 0.11024 0.08476 0.86702 0.0
O399 O 0.07577 0.15827 0.87811 0.0
O400 O 0.07426 0.12634 0.87282 0.0
O401 O 0.08875 0.1984 0.84356 0.0
O402 O 0.10684 0.18972 0.86708 0.0
H403 H 0.12246 0.23026 0.87194 0.0
H404 H 0.07912 0.26824 0.88989 0.0
H405 H 0.06423 0.21605 0.86369 0.0
O406 O 0.38037 0.11744 0.86924 0.0
Tb407 Tb 0.396 0.09287 0.8602 0.0
Eu408 Eu 0.34862 0.08423 0.84753 0.0
C409 C 0.38236 0.13257 0.85884 0.0
O410 O 0.3928 0.13143 0.84369 0.0
C411 C 0.38015 0.09884 0.82115 0.0
O412 O 0.3494 0.06039 0.82653 0.0
C413 C 0.3147 0.0966 0.85221 0.0
C414 C 0.36437 0.04964 0.8253 0.0
O415 O 0.37848 0.05261 0.83673 0.0
C416 C 0.37301 0.05884 0.87697 0.0
C417 C 0.29732 0.09218 0.86252 0.0
C418 C 0.28517 0.10689 0.86757 0.0
C419 C 0.2677 0.10298 0.87577 0.0
C420 C 0.26241 0.08426 0.87875 0.0
C421 C 0.27408 0.06934 0.87323 0.0
C422 C 0.29175 0.07343 0.86547 0.0
O423 O 0.39223 0.08855 0.83042 0.0
O424 O 0.36472 0.10443 0.82943 0.0
O425 O 0.42298 0.10175 0.8488 0.0
O426 O 0.42173 0.09304 0.87725 0.0
C427 C 0.43272 0.09907 0.86396 0.0
O428 O 0.3568 0.06694 0.873 0.0
O429 O 0.38928 0.06544 0.87124 0.0
O430 O 0.3195 0.08473 0.83891 0.0
O431 O 0.32905 0.10293 0.86201 0.0
H432 H 0.28898 0.12132 0.8645 0.0
H433 H 0.24839 0.08136 0.88391 0.0
H434 H 0.30087 0.06205 0.86108 0.0
O435 O 0.38951 0.3749 0.87795 0.0
Tb436 Tb 0.41209 0.3861 0.86061 0.0
Eu437 Eu 0.42527 0.33802 0.85021 0.0
C438 C 0.37854 0.36097 0.87274 0.0
O439 O 0.38368 0.35019 0.85875 0.0
C440 C 0.3993 0.36519 0.82285 0.0
O441 O 0.45149 0.34174 0.83292 0.0
C442 C 0.41783 0.30284 0.85558 0.0
C443 C 0.45403 0.35743 0.8235 0.0
O444 O 0.44183 0.37112 0.82548 0.0
C445 C 0.44685 0.36525 0.87712 0.0
C446 C 0.4231 0.2865 0.86719 0.0
C447 C 0.40886 0.2748 0.8742 0.0
C448 C 0.41324 0.25728 0.8823 0.0
C449 C 0.43225 0.25218 0.88412 0.0
C450 C 0.44658 0.26376 0.87725 0.0
C451 C 0.44197 0.28096 0.86889 0.0
O452 O 0.40097 0.38067 0.8328 0.0
O453 O 0.40591 0.34864 0.82768 0.0
O454 O 0.40547 0.41159 0.87655 0.0
O455 O 0.41582 0.4142 0.84878 0.0
C456 C 0.41006 0.4234 0.86342 0.0
O457 O 0.43721 0.34958 0.87705 0.0
O458 O 0.44114 0.3798 0.86739 0.0
O459 O 0.43049 0.3089 0.8436 0.0
O460 O 0.4081 0.31638 0.86359 0.0
H461 H 0.39433 0.27891 0.87233 0.0
H462 H 0.436 0.23833 0.88925 0.0
H463 H 0.45305 0.28955 0.86298 0.0
O464 O 0.64077 0.14256 0.12604 0.0
Tb465 Tb 0.65346 0.12658 0.10337 0.0
Eu466 Eu 0.66867 0.17386 0.0934 0.0
C467 C 0.65036 0.14542 0.14156 0.0
O468 O 0.66794 0.13998 0.14235 0.0
C469 C 0.69353 0.14114 0.10912 0.0
O470 O 0.68866 0.1721 0.06879 0.0
C471 C 0.66546 0.20826 0.10511 0.0
C472 C 0.68989 0.15651 0.05894 0.0
O473 O 0.67904 0.14231 0.06328 0.0
C474 C 0.63831 0.14996 0.06882 0.0
C475 C 0.65636 0.2263 0.10032 0.0
C476 C 0.64933 0.23776 0.11484 0.0
C477 C 0.64212 0.25566 0.11074 0.0
C478 C 0.64236 0.26218 0.0922 0.0
C479 C 0.64996 0.25131 0.0777 0.0
C480 C 0.65646 0.23311 0.0817 0.0
O481 O 0.68348 0.12898 0.09968 0.0
O482 O 0.68642 0.15748 0.11375 0.0
O483 O 0.66177 0.10006 0.11642 0.0
O484 O 0.63724 0.1006 0.09958 0.0
C485 C 0.64814 0.08998 0.10972 0.0
O486 O 0.6425 0.16608 0.077 0.0
O487 O 0.64371 0.13355 0.07544 0.0
O488 O 0.67878 0.20249 0.09373 0.0
O489 O 0.65472 0.19456 0.11135 0.0
H490 H 0.64986 0.23296 0.12929 0.0
H491 H 0.63734 0.27627 0.08918 0.0
H492 H 0.6625 0.22473 0.07053 0.0
O493 O 0.63485 0.38872 0.3881 0.0
Tb494 Tb 0.64464 0.39417 0.41647 0.0
Eu495 Eu 0.66088 0.34498 0.41924 0.0
C496 C 0.63157 0.37233 0.38029 0.0
O497 O 0.63397 0.35674 0.38982 0.0
C498 C 0.68126 0.37846 0.40037 0.0
O499 O 0.68351 0.34882 0.4411 0.0
C500 C 0.65954 0.31013 0.40843 0.0
C501 C 0.68322 0.36357 0.45221 0.0
O502 O 0.66954 0.37581 0.45048 0.0
C503 C 0.62841 0.36452 0.44683 0.0
C504 C 0.65497 0.29136 0.41594 0.0
C505 C 0.6474 0.27757 0.40391 0.0
C506 C 0.64445 0.25912 0.41043 0.0
C507 C 0.64965 0.25464 0.42892 0.0
C508 C 0.65716 0.26819 0.441 0.0
C509 C 0.65945 0.28667 0.43464 0.0
O510 O 0.67443 0.3895 0.41336 0.0
O511 O 0.67236 0.36299 0.39594 0.0
O512 O 0.62973 0.42065 0.41174 0.0
O513 O 0.65544 0.42114 0.42668 0.0
C514 C 0.6419 0.43142 0.42003 0.0
O515 O 0.63775 0.34971 0.4406 0.0
O516 O 0.62961 0.38159 0.4397 0.0
O517 O 0.67466 0.31815 0.41535 0.0
O518 O 0.64553 0.32193 0.40587 0.0
H519 H 0.644 0.28117 0.38951 0.0
H520 H 0.64819 0.24034 0.43396 0.0
H521 H 0.66538 0.29713 0.44398 0.0
O522 O 0.132 0.63772 0.38517 0.0
Tb523 Tb 0.11986 0.65337 0.40857 0.0
Eu524 Eu 0.16753 0.66781 0.41846 0.0
C525 C 0.14537 0.64426 0.37424 0.0
O526 O 0.15448 0.65941 0.37926 0.0
C527 C 0.1359 0.69359 0.39615 0.0
O528 O 0.16692 0.68427 0.44544 0.0
C529 C 0.2018 0.6632 0.40709 0.0
C530 C 0.15163 0.69347 0.45022 0.0
O531 O 0.1367 0.6922 0.43946 0.0
C532 C 0.14337 0.63911 0.44293 0.0
C533 C 0.21881 0.65264 0.41236 0.0
C534 C 0.23101 0.6462 0.39825 0.0
C535 C 0.24796 0.63733 0.40307 0.0
C536 C 0.25272 0.63521 0.42206 0.0
C537 C 0.24098 0.64206 0.43632 0.0
C538 C 0.22381 0.65041 0.43137 0.0
O539 O 0.12179 0.68217 0.39938 0.0
O540 O 0.1535 0.68985 0.40043 0.0
O541 O 0.09527 0.63609 0.40166 0.0
O542 O 0.09117 0.66303 0.41356 0.0
C543 C 0.08276 0.64821 0.40715 0.0
O544 O 0.15906 0.64118 0.43348 0.0
O545 O 0.12756 0.64661 0.4372 0.0
O546 O 0.1966 0.67652 0.41877 0.0
O547 O 0.18765 0.6535 0.40019 0.0
H548 H 0.22757 0.6485 0.38359 0.0
H549 H 0.26636 0.62946 0.42566 0.0
H550 H 0.21463 0.65571 0.44229 0.0
O551 O 0.8764 0.12892 0.39704 0.0
Tb552 Tb 0.85883 0.12012 0.42048 0.0
Eu553 Eu 0.84958 0.16997 0.42927 0.0
C554 C 0.87171 0.14243 0.3853 0.0
O555 O 0.8581 0.15397 0.38982 0.0
C556 C 0.82156 0.14102 0.40599 0.0
O557 O 0.83309 0.16933 0.45623 0.0
C558 C 0.85567 0.20403 0.41791 0.0
C559 C 0.82307 0.15433 0.46024 0.0
O560 O 0.82365 0.13989 0.44878 0.0
C561 C 0.87474 0.14365 0.45399 0.0
C562 C 0.86657 0.22134 0.42122 0.0
C563 C 0.87239 0.23204 0.40565 0.0
C564 C 0.87968 0.25023 0.40812 0.0
C565 C 0.88141 0.25736 0.42643 0.0
C566 C 0.87491 0.24724 0.44199 0.0
C567 C 0.86812 0.22894 0.43941 0.0
O568 O 0.83135 0.12559 0.40869 0.0
O569 O 0.82656 0.15795 0.41137 0.0
O570 O 0.87389 0.09338 0.41754 0.0
O571 O 0.84505 0.09301 0.42473 0.0
C572 C 0.85962 0.08263 0.4213 0.0
O573 O 0.8756 0.15845 0.44303 0.0
O574 O 0.86492 0.12885 0.44909 0.0
O575 O 0.84316 0.19956 0.43071 0.0
O576 O 0.8643 0.18942 0.41052 0.0
H577 H 0.87015 0.22668 0.39157 0.0
H578 H 0.88616 0.27168 0.42851 0.0
H579 H 0.86259 0.22129 0.45135 0.0
O580 O 0.38827 0.8676 0.38772 0.0
Tb581 Tb 0.39564 0.85712 0.41537 0.0
Eu582 Eu 0.34646 0.84322 0.41926 0.0
C583 C 0.37179 0.87363 0.38204 0.0
O584 O 0.35722 0.87314 0.39326 0.0
C585 C 0.37814 0.82093 0.39999 0.0
O586 O 0.35186 0.82003 0.44031 0.0
C587 C 0.3112 0.84386 0.41001 0.0
C588 C 0.3668 0.82013 0.45118 0.0
O589 O 0.37883 0.83398 0.44975 0.0
C590 C 0.36733 0.87505 0.44555 0.0
C591 C 0.29357 0.85288 0.41608 0.0
C592 C 0.28072 0.85904 0.40238 0.0
C593 C 0.26365 0.86729 0.40772 0.0
C594 C 0.25953 0.86942 0.42683 0.0
C595 C 0.2718 0.86261 0.44063 0.0
C596 C 0.28892 0.85447 0.43525 0.0
O597 O 0.3904 0.82741 0.41205 0.0
O598 O 0.36345 0.83109 0.39559 0.0
O599 O 0.4213 0.8729 0.40964 0.0
O600 O 0.42344 0.84659 0.42341 0.0
C601 C 0.43287 0.86074 0.4168 0.0
O602 O 0.35189 0.86873 0.43743 0.0
O603 O 0.38447 0.87076 0.44009 0.0
O604 O 0.31852 0.8313 0.4214 0.0
O605 O 0.32377 0.85484 0.40218 0.0
H606 H 0.28378 0.85698 0.38761 0.0
H607 H 0.24595 0.87497 0.43095 0.0
H608 H 0.29834 0.84908 0.44594 0.0
O609 O 0.87215 0.37576 0.12108 0.0
Tb610 Tb 0.85687 0.38871 0.09773 0.0
Eu611 Eu 0.84252 0.34221 0.08738 0.0
C612 C 0.86426 0.36356 0.1325 0.0
O613 O 0.84829 0.35592 0.12767 0.0
C614 C 0.81624 0.37351 0.10952 0.0
O615 O 0.826 0.34366 0.06048 0.0
C616 C 0.84669 0.30812 0.09933 0.0
C617 C 0.81801 0.35968 0.05585 0.0
O618 O 0.82052 0.37437 0.0667 0.0
C619 C 0.87019 0.36603 0.06255 0.0
C620 C 0.85785 0.29118 0.09544 0.0
C621 C 0.86207 0.27885 0.11024 0.0
C622 C 0.87096 0.26167 0.1066 0.0
C623 C 0.87541 0.2568 0.08807 0.0
C624 C 0.87069 0.26867 0.07302 0.0
C625 C 0.8624 0.28616 0.0769 0.0
O626 O 0.82812 0.38749 0.10745 0.0
O627 O 0.81969 0.35611 0.10431 0.0
O628 O 0.87519 0.41271 0.104 0.0
O629 O 0.84792 0.41764 0.09311 0.0
C630 C 0.86328 0.42556 0.09881 0.0
O631 O 0.86913 0.35052 0.07243 0.0
O632 O 0.86247 0.38157 0.06865 0.0
O633 O 0.83449 0.31297 0.08631 0.0
O634 O 0.85552 0.32247 0.10696 0.0
H635 H 0.85777 0.28225 0.12445 0.0
H636 H 0.88097 0.24289 0.08529 0.0
H637 H 0.85867 0.29546 0.06542 0.0
O638 O 0.11266 0.87799 0.12008 0.0
Tb639 Tb 0.10392 0.86089 0.09645 0.0
Eu640 Eu 0.16287 0.85341 0.07191 0.0
C641 C 0.12833 0.87482 0.12933 0.0
O642 O 0.14012 0.86212 0.12305 0.0
C643 C 0.13523 0.82982 0.09623 0.0
O644 O 0.16246 0.83587 0.04559 0.0
C645 C 0.19554 0.86669 0.08099 0.0
C646 C 0.14614 0.82935 0.03992 0.0
O647 O 0.13094 0.83466 0.04887 0.0
C648 C 0.12571 0.87813 0.06547 0.0
C649 C 0.21556 0.86254 0.07802 0.0
C650 C 0.22817 0.86464 0.09311 0.0
C651 C 0.24716 0.86 0.09087 0.0
C652 C 0.25352 0.85356 0.07342 0.0
C653 C 0.24125 0.8518 0.05811 0.0
C654 C 0.22219 0.85623 0.0605 0.0
O655 O 0.12363 0.83992 0.08602 0.0
O656 O 0.15322 0.83093 0.09214 0.0
O657 O 0.0831 0.84309 0.11025 0.0
O658 O 0.07422 0.86219 0.08897 0.0
C659 C 0.06871 0.84952 0.10095 0.0
O660 O 0.13865 0.87284 0.07756 0.0
O661 O 0.10834 0.8778 0.07153 0.0
O662 O 0.18634 0.85455 0.0914 0.0
O663 O 0.18585 0.87274 0.06641 0.0
H664 H 0.22317 0.86959 0.10661 0.0
H665 H 0.26835 0.8506 0.07159 0.0
H666 H 0.21257 0.85473 0.04878 0.0
O667 O 0.37646 0.64013 0.11577 0.0
Tb668 Tb 0.39335 0.65347 0.0941 0.0
Eu669 Eu 0.34637 0.66807 0.08143 0.0
C670 C 0.37231 0.64964 0.13106 0.0
O671 O 0.37728 0.66734 0.13221 0.0
C672 C 0.3776 0.6933 0.10028 0.0
O673 O 0.34916 0.68664 0.05574 0.0
C674 C 0.31156 0.66478 0.09161 0.0
C675 C 0.36586 0.69036 0.04877 0.0
O676 O 0.38063 0.68238 0.05628 0.0
C677 C 0.37202 0.63917 0.05836 0.0
C678 C 0.29387 0.65532 0.08668 0.0
C679 C 0.28042 0.65225 0.10079 0.0
C680 C 0.26271 0.64491 0.09623 0.0
C681 C 0.25863 0.64048 0.0775 0.0
C682 C 0.27159 0.6443 0.0632 0.0
C683 C 0.28933 0.65147 0.06785 0.0
O684 O 0.39078 0.68363 0.09192 0.0
O685 O 0.36083 0.6862 0.10283 0.0
O686 O 0.41872 0.66301 0.10828 0.0
O687 O 0.41997 0.63794 0.09223 0.0
C688 C 0.4296 0.64957 0.10256 0.0
O689 O 0.356 0.64126 0.06738 0.0
O690 O 0.38799 0.64543 0.06523 0.0
O691 O 0.31756 0.67757 0.07974 0.0
O692 O 0.32509 0.6544 0.09877 0.0
H693 H 0.2834 0.65636 0.11516 0.0
H694 H 0.24458 0.63585 0.07382 0.0
H695 H 0.2992 0.65482 0.05676 0.0
O696 O 0.88945 0.37174 0.87216 0.0
Tb697 Tb 0.9128 0.36067 0.8885 0.0
Eu698 Eu 0.92407 0.34689 0.84116 0.0
C699 C 0.87447 0.3612 0.8698 0.0
O700 O 0.87448 0.34402 0.87646 0.0
C701 C 0.90893 0.32101 0.8728 0.0
O702 O 0.94848 0.32681 0.84412 0.0
C703 C 0.91441 0.34994 0.80614 0.0
C704 C 0.95869 0.32637 0.85951 0.0
O705 O 0.95516 0.33839 0.87299 0.0
C706 C 0.9467 0.3782 0.86587 0.0
C707 C 0.9198 0.3603 0.78898 0.0
C708 C 0.90569 0.36641 0.77657 0.0
C709 C 0.91046 0.37495 0.75946 0.0
C710 C 0.92943 0.37711 0.75474 0.0
C711 C 0.94377 0.37071 0.7667 0.0
C712 C 0.93882 0.36259 0.78402 0.0
O713 O 0.91853 0.33106 0.88484 0.0
O714 O 0.90385 0.32836 0.85669 0.0
O715 O 0.91402 0.37578 0.91544 0.0
O716 O 0.89982 0.34968 0.91402 0.0
C717 C 0.90469 0.36334 0.92506 0.0
O718 O 0.93879 0.37374 0.8497 0.0
O719 O 0.94012 0.37261 0.88226 0.0
O720 O 0.92655 0.3375 0.81238 0.0
O721 O 0.90609 0.35949 0.81963 0.0
H722 H 0.89105 0.36411 0.78 0.0
H723 H 0.93296 0.38262 0.74099 0.0
H724 H 0.94974 0.3576 0.79339 0.0
O725 O 0.14778 0.88739 0.87356 0.0
Tb726 Tb 0.15525 0.91072 0.89179 0.0
Eu727 Eu 0.1689 0.92224 0.8452 0.0
C728 C 0.15793 0.8721 0.87585 0.0
O729 O 0.17155 0.87249 0.8883 0.0
C730 C 0.19496 0.9047 0.87663 0.0
O731 O 0.18859 0.94712 0.84655 0.0
C732 C 0.16383 0.91158 0.81071 0.0
C733 C 0.19287 0.95475 0.86283 0.0
O734 O 0.1847 0.94851 0.87808 0.0
C735 C 0.14098 0.9468 0.87079 0.0
C736 C 0.15339 0.91693 0.79361 0.0
C737 C 0.14755 0.90278 0.78113 0.0
C738 C 0.13906 0.90747 0.76393 0.0
C739 C 0.1362 0.92644 0.75944 0.0
C740 C 0.14267 0.94068 0.77136 0.0
C741 C 0.15108 0.93592 0.78855 0.0
O742 O 0.18538 0.91292 0.89 0.0
O743 O 0.18723 0.90122 0.86024 0.0
O744 O 0.16443 0.90117 0.91946 0.0
O745 O 0.13557 0.90724 0.91528 0.0
C746 C 0.14807 0.90165 0.92743 0.0
O747 O 0.14308 0.93813 0.85459 0.0
O748 O 0.14713 0.93961 0.88667 0.0
O749 O 0.17732 0.92301 0.81601 0.0
O750 O 0.15409 0.90468 0.82482 0.0
H751 H 0.15035 0.88816 0.78441 0.0
H752 H 0.13061 0.93015 0.74574 0.0
H753 H 0.15648 0.94696 0.79755 0.0
O754 O 0.62746 0.12956 0.88514 0.0
Tb755 Tb 0.60398 0.14683 0.89452 0.0
Eu756 Eu 0.59384 0.15987 0.84551 0.0
C757 C 0.63782 0.13254 0.87016 0.0
O758 O 0.63224 0.14461 0.85745 0.0
C759 C 0.61199 0.18534 0.87607 0.0
O760 O 0.56965 0.18027 0.84847 0.0
C761 C 0.60281 0.15647 0.81036 0.0
C762 C 0.56033 0.18195 0.86431 0.0
O763 O 0.56489 0.17136 0.87865 0.0
C764 C 0.57007 0.13042 0.87077 0.0
C765 C 0.59719 0.1467 0.79299 0.0
C766 C 0.61122 0.14074 0.7805 0.0
C767 C 0.60643 0.13306 0.76298 0.0
C768 C 0.58744 0.13105 0.7582 0.0
C769 C 0.57328 0.13759 0.77022 0.0
C770 C 0.57819 0.14521 0.78773 0.0
O771 O 0.60183 0.17665 0.88866 0.0
O772 O 0.61583 0.17721 0.86008 0.0
O773 O 0.61652 0.15794 0.92017 0.0
O774 O 0.59612 0.1364 0.92246 0.0
C775 C 0.60722 0.1475 0.93182 0.0
O776 O 0.57898 0.13331 0.85479 0.0
O777 O 0.57636 0.13654 0.88706 0.0
O778 O 0.59125 0.16935 0.81674 0.0
O779 O 0.61061 0.1463 0.82368 0.0
H780 H 0.62588 0.14289 0.78402 0.0
H781 H 0.58372 0.1261 0.74427 0.0
H782 H 0.56728 0.1506 0.79687 0.0
O783 O 0.37437 0.61737 0.86745 0.0
Tb784 Tb 0.36185 0.59604 0.88533 0.0
Eu785 Eu 0.34818 0.58687 0.83903 0.0
C786 C 0.36496 0.63295 0.86429 0.0
O787 O 0.34781 0.63449 0.87081 0.0
C788 C 0.32153 0.60145 0.87127 0.0
O789 O 0.3287 0.56199 0.83709 0.0
C790 C 0.35492 0.60043 0.80595 0.0
C791 C 0.32407 0.55294 0.85249 0.0
O792 O 0.33182 0.5579 0.86845 0.0
C793 C 0.37568 0.56015 0.86389 0.0
C794 C 0.36516 0.59541 0.78871 0.0
C795 C 0.37074 0.60974 0.77639 0.0
C796 C 0.37847 0.6053 0.75882 0.0
C797 C 0.38068 0.5864 0.75371 0.0
C798 C 0.37456 0.57189 0.76558 0.0
C799 C 0.36718 0.5765 0.78329 0.0
O800 O 0.3318 0.59266 0.88372 0.0
O801 O 0.32848 0.60588 0.85481 0.0
O802 O 0.37808 0.59419 0.91153 0.0
O803 O 0.35372 0.61132 0.91056 0.0
C804 C 0.36725 0.60531 0.92119 0.0
O805 O 0.37264 0.56851 0.84764 0.0
O806 O 0.37021 0.56732 0.88001 0.0
O807 O 0.34029 0.5899 0.80987 0.0
O808 O 0.36493 0.60503 0.82083 0.0
H809 H 0.36823 0.62432 0.78006 0.0
H810 H 0.38547 0.58307 0.73964 0.0
H811 H 0.36221 0.56543 0.79249 0.0
O812 O 0.88989 0.13597 0.64216 0.0
Tb813 Tb 0.91101 0.15372 0.62897 0.0
Eu814 Eu 0.92369 0.1636 0.6773 0.0
C815 C 0.87855 0.14196 0.65546 0.0
O816 O 0.88222 0.15789 0.66392 0.0
C817 C 0.89993 0.19234 0.64923 0.0
O818 O 0.95089 0.17957 0.67642 0.0
C819 C 0.91337 0.15763 0.7117 0.0
C820 C 0.95506 0.18942 0.66136 0.0
O821 O 0.9438 0.18866 0.64676 0.0
C822 C 0.94599 0.13738 0.64971 0.0
C823 C 0.91705 0.14574 0.72833 0.0
C824 C 0.90175 0.13818 0.73823 0.0
C825 C 0.90458 0.12884 0.75537 0.0
C826 C 0.92287 0.12688 0.76238 0.0
C827 C 0.93815 0.13561 0.75351 0.0
C828 C 0.93523 0.14444 0.73608 0.0
O829 O 0.90001 0.18161 0.63419 0.0
O830 O 0.9071 0.18781 0.66564 0.0
O831 O 0.90201 0.1377 0.6042 0.0
O832 O 0.91496 0.16416 0.60028 0.0
C833 C 0.90743 0.14991 0.59176 0.0
O834 O 0.93635 0.1372 0.66539 0.0
O835 O 0.94013 0.14696 0.63509 0.0
O836 O 0.92664 0.1695 0.70689 0.0
O837 O 0.90469 0.14998 0.69725 0.0
H838 H 0.88757 0.14047 0.73316 0.0
H839 H 0.92491 0.12002 0.77583 0.0
H840 H 0.94683 0.15148 0.72924 0.0
O841 O 0.37509 0.89111 0.63247 0.0
Tb842 Tb 0.36241 0.91502 0.61825 0.0
Eu843 Eu 0.35036 0.92341 0.66585 0.0
C844 C 0.36507 0.87568 0.63415 0.0
O845 O 0.34761 0.87572 0.62826 0.0
C846 C 0.32363 0.909 0.63465 0.0
O847 O 0.32924 0.94714 0.66518 0.0
C848 C 0.35562 0.91109 0.69971 0.0
C849 C 0.3281 0.95807 0.65033 0.0
O850 O 0.3398 0.95546 0.6364 0.0
C851 C 0.37977 0.94884 0.64137 0.0
C852 C 0.3664 0.91597 0.71669 0.0
C853 C 0.37271 0.90156 0.72864 0.0
C854 C 0.38152 0.90592 0.74576 0.0
C855 C 0.38409 0.92481 0.75074 0.0
C856 C 0.37716 0.9393 0.73932 0.0
C857 C 0.36863 0.93483 0.72213 0.0
O858 O 0.33282 0.91963 0.62285 0.0
O859 O 0.33185 0.90336 0.65011 0.0
O860 O 0.37577 0.91957 0.59088 0.0
O861 O 0.35172 0.90213 0.5926 0.0
C862 C 0.36402 0.90936 0.58132 0.0
O863 O 0.37569 0.9408 0.65758 0.0
O864 O 0.37401 0.94228 0.62505 0.0
O865 O 0.3421 0.92279 0.69505 0.0
O866 O 0.36514 0.90468 0.6852 0.0
H867 H 0.37008 0.887 0.72501 0.0
H868 H 0.38985 0.9282 0.76444 0.0
H869 H 0.36304 0.94602 0.71343 0.0
O870 O 0.61837 0.3774 0.62293 0.0
Tb871 Tb 0.59059 0.36575 0.618 0.0
Eu872 Eu 0.58837 0.35072 0.66768 0.0
C873 C 0.62674 0.38033 0.63912 0.0
O874 O 0.61802 0.3768 0.65493 0.0
C875 C 0.60835 0.33002 0.63458 0.0
O876 O 0.5675 0.32723 0.6632 0.0
C877 C 0.59868 0.3523 0.70268 0.0
C878 C 0.55636 0.32716 0.64846 0.0
O879 O 0.55756 0.34089 0.63624 0.0
C880 C 0.56019 0.38176 0.64742 0.0
C881 C 0.59299 0.36086 0.72068 0.0
C882 C 0.60698 0.36677 0.73333 0.0
C883 C 0.60205 0.37451 0.75077 0.0
C884 C 0.58306 0.37622 0.75551 0.0
C885 C 0.56892 0.36982 0.74338 0.0
C886 C 0.57395 0.36228 0.72583 0.0
O887 O 0.59496 0.33624 0.62363 0.0
O888 O 0.61195 0.33845 0.65054 0.0
O889 O 0.5931 0.38058 0.59113 0.0
O890 O 0.58285 0.3527 0.59122 0.0
C891 C 0.58726 0.36685 0.58061 0.0
O892 O 0.56867 0.37518 0.66258 0.0
O893 O 0.56572 0.37855 0.63003 0.0
O894 O 0.58778 0.33906 0.69586 0.0
O895 O 0.60522 0.36375 0.68976 0.0
H896 H 0.62168 0.36505 0.72976 0.0
H897 H 0.57933 0.3813 0.76938 0.0
H898 H 0.5631 0.35727 0.7164 0.0
O899 O 0.12909 0.62366 0.62483 0.0
Tb900 Tb 0.14449 0.59888 0.61553 0.0
Eu901 Eu 0.15789 0.59048 0.66481 0.0
C902 C 0.13163 0.63246 0.64086 0.0
O903 O 0.1423 0.62492 0.65377 0.0
C904 C 0.18261 0.61391 0.63385 0.0
O905 O 0.17524 0.56425 0.66158 0.0
C906 C 0.15537 0.59851 0.70031 0.0
C907 C 0.18375 0.55997 0.64578 0.0
O908 O 0.18139 0.57073 0.63101 0.0
C909 C 0.12862 0.56652 0.64084 0.0
C910 C 0.14621 0.59324 0.71813 0.0
C911 C 0.13963 0.60768 0.72988 0.0
C912 C 0.13273 0.60355 0.74784 0.0
C913 C 0.13248 0.5849 0.75404 0.0
C914 C 0.13985 0.5704 0.74294 0.0
C915 C 0.14621 0.57453 0.7247 0.0
O916 O 0.17338 0.60723 0.61932 0.0
O917 O 0.17704 0.61202 0.65138 0.0
O918 O 0.12836 0.60397 0.58975 0.0
O919 O 0.15609 0.59355 0.58758 0.0
C920 C 0.14147 0.59893 0.57811 0.0
O921 O 0.13058 0.57694 0.65597 0.0
O922 O 0.13652 0.57104 0.62482 0.0
O923 O 0.1678 0.58679 0.69336 0.0
O924 O 0.14501 0.60677 0.68744 0.0
H925 H 0.14067 0.62221 0.72541 0.0
H926 H 0.12787 0.58186 0.76824 0.0
H927 H 0.15222 0.56343 0.71618 0.0
O928 O 0.88527 0.88904 0.37758 0.0
Tb929 Tb 0.88981 0.91781 0.36842 0.0
Eu930 Eu 0.83977 0.91926 0.35412 0.0
C931 C 0.86943 0.88131 0.38296 0.0
O932 O 0.8538 0.89107 0.38309 0.0
C933 C 0.87258 0.90242 0.33233 0.0
O934 O 0.84312 0.94014 0.33042 0.0
C935 C 0.80588 0.90602 0.35577 0.0
C936 C 0.85733 0.95193 0.33056 0.0
O937 O 0.86924 0.95132 0.34462 0.0
C938 C 0.8594 0.94709 0.38589 0.0
C939 C 0.78706 0.91021 0.36323 0.0
C940 C 0.77598 0.89529 0.36989 0.0
C941 C 0.75762 0.89862 0.37611 0.0
C942 C 0.7503 0.91685 0.37534 0.0
C943 C 0.76084 0.93173 0.36797 0.0
C944 C 0.77947 0.92848 0.36239 0.0
O945 O 0.88455 0.91485 0.33862 0.0
O946 O 0.85902 0.89686 0.34333 0.0
O947 O 0.91612 0.91356 0.38365 0.0
O948 O 0.91665 0.92862 0.358 0.0
C949 C 0.92686 0.92217 0.37171 0.0
O950 O 0.84429 0.93994 0.37778 0.0
O951 O 0.87672 0.94089 0.38347 0.0
O952 O 0.81198 0.91662 0.34194 0.0
O953 O 0.81896 0.90165 0.36806 0.0
H954 H 0.78144 0.88106 0.36984 0.0
H955 H 0.73587 0.91926 0.3796 0.0
H956 H 0.78768 0.93991 0.35659 0.0
O957 O 0.62155 0.87341 0.37622 0.0
Tb958 Tb 0.59939 0.8868 0.35987 0.0
Eu959 Eu 0.58794 0.83867 0.34555 0.0
C960 C 0.63204 0.8595 0.37009 0.0
O961 O 0.62739 0.85087 0.35454 0.0
C962 C 0.6102 0.86982 0.31953 0.0
O963 O 0.56158 0.8427 0.32851 0.0
C964 C 0.59657 0.80323 0.34717 0.0
C965 C 0.55541 0.8596 0.3243 0.0
O966 O 0.56419 0.87439 0.33094 0.0
C967 C 0.56696 0.86261 0.37714 0.0
C968 C 0.59263 0.78557 0.35743 0.0
C969 C 0.60771 0.77503 0.36479 0.0
C970 C 0.60449 0.75735 0.37292 0.0
C971 C 0.58623 0.7501 0.3733 0.0
C972 C 0.57122 0.75992 0.36524 0.0
C973 C 0.57435 0.77792 0.35782 0.0
O974 O 0.60705 0.88431 0.33055 0.0
O975 O 0.6065 0.85224 0.32389 0.0
O976 O 0.61128 0.91096 0.37491 0.0
O977 O 0.59123 0.91587 0.35358 0.0
C978 C 0.60209 0.92387 0.36584 0.0
O979 O 0.57642 0.84709 0.37386 0.0
O980 O 0.5718 0.87878 0.36972 0.0
O981 O 0.58301 0.81006 0.33665 0.0
O982 O 0.60642 0.81629 0.35581 0.0
H983 H 0.62195 0.7803 0.36371 0.0
H984 H 0.58388 0.73613 0.37894 0.0
H985 H 0.56276 0.7854 0.35137 0.0
O986 O 0.62443 0.62398 0.37262 0.0
Tb987 Tb 0.61744 0.5963 0.36184 0.0
Eu988 Eu 0.66746 0.59128 0.34927 0.0
C989 C 0.64102 0.63006 0.37788 0.0
O990 O 0.65573 0.61903 0.37706 0.0
C991 C 0.63651 0.61205 0.32661 0.0
O992 O 0.66347 0.57011 0.32597 0.0
C993 C 0.70251 0.60108 0.35155 0.0
C994 C 0.64848 0.55937 0.32522 0.0
O995 O 0.63552 0.56116 0.33818 0.0
C996 C 0.64502 0.56537 0.38055 0.0
C997 C 0.72027 0.5949 0.36012 0.0
C998 C 0.73337 0.6085 0.36584 0.0
C999 C 0.75067 0.60303 0.37349 0.0
C1000 C 0.75488 0.58387 0.37514 0.0
C1001 C 0.74215 0.57007 0.36909 0.0
C1002 C 0.72469 0.5757 0.36179 0.0
O1003 O 0.62348 0.60043 0.33235 0.0
O1004 O 0.65124 0.61539 0.33706 0.0
O1005 O 0.59127 0.6029 0.37642 0.0
O1006 O 0.58994 0.58778 0.35083 0.0
C1007 C 0.58006 0.59519 0.36427 0.0
O1008 O 0.66086 0.57236 0.37391 0.0
O1009 O 0.62812 0.57167 0.37631 0.0
O1010 O 0.69572 0.59057 0.33798 0.0
O1011 O 0.68958 0.60742 0.36306 0.0
H1012 H 0.73021 0.62331 0.3641 0.0
H1013 H 0.7687 0.57976 0.38007 0.0
H1014 H 0.7147 0.5652 0.35714 0.0
O1015 O 0.88962 0.6323 0.37526 0.0
Tb1016 Tb 0.91212 0.62162 0.35752 0.0
Eu1017 Eu 0.92133 0.67119 0.34581 0.0
C1018 C 0.87869 0.64649 0.37069 0.0
O1019 O 0.88351 0.6575 0.35678 0.0
C1020 C 0.89697 0.64116 0.31976 0.0
O1021 O 0.948 0.67066 0.32887 0.0
C1022 C 0.91126 0.70576 0.35173 0.0
C1023 C 0.95184 0.65628 0.31792 0.0
O1024 O 0.94038 0.64184 0.31771 0.0
C1025 C 0.94625 0.64505 0.37156 0.0
C1026 C 0.91727 0.72261 0.36219 0.0
C1027 C 0.90362 0.7348 0.36968 0.0
C1028 C 0.90901 0.75164 0.37846 0.0
C1029 C 0.92813 0.75614 0.37968 0.0
C1030 C 0.94181 0.74453 0.37163 0.0
C1031 C 0.93637 0.72764 0.36311 0.0
O1032 O 0.90054 0.62605 0.32979 0.0
O1033 O 0.90196 0.65838 0.32433 0.0
O1034 O 0.90794 0.59618 0.37445 0.0
O1035 O 0.91552 0.59336 0.34586 0.0
C1036 C 0.91146 0.58422 0.3611 0.0
O1037 O 0.93581 0.66025 0.37178 0.0
O1038 O 0.94094 0.62995 0.36245 0.0
O1039 O 0.92218 0.70049 0.33783 0.0
O1040 O 0.9045 0.6916 0.3615 0.0
H1041 H 0.88884 0.73146 0.3682 0.0
H1042 H 0.93229 0.76959 0.38554 0.0
H1043 H 0.94695 0.71878 0.35667 0.0
O1044 O 0.87163 0.61875 0.13742 0.0
Tb1045 Tb 0.88725 0.59634 0.15106 0.0
Eu1046 Eu 0.83853 0.58585 0.16046 0.0
C1047 C 0.86865 0.63421 0.14704 0.0
O1048 O 0.87456 0.63514 0.16447 0.0
C1049 C 0.8676 0.60304 0.18882 0.0
O1050 O 0.83808 0.56139 0.18068 0.0
C1051 C 0.80453 0.59663 0.15305 0.0
C1052 C 0.85368 0.55264 0.18528 0.0
O1053 O 0.86944 0.55766 0.17724 0.0
C1054 C 0.86626 0.5614 0.13419 0.0
C1055 C 0.788 0.59106 0.14192 0.0
C1056 C 0.77549 0.60502 0.13574 0.0
C1057 C 0.75846 0.60009 0.12708 0.0
C1058 C 0.75425 0.58102 0.12435 0.0
C1059 C 0.76633 0.5669 0.13094 0.0
C1060 C 0.78335 0.572 0.1395 0.0
O1061 O 0.8816 0.59419 0.18082 0.0
O1062 O 0.85219 0.60687 0.17949 0.0
O1063 O 0.91282 0.60926 0.16204 0.0
O1064 O 0.91438 0.5939 0.13661 0.0
C1065 C 0.92396 0.60356 0.14881 0.0
O1066 O 0.85004 0.57024 0.13537 0.0
O1067 O 0.88174 0.56783 0.14198 0.0
O1068 O 0.80894 0.58555 0.16714 0.0
O1069 O 0.81922 0.6031 0.14389 0.0
H1070 H 0.77861 0.61968 0.13844 0.0
H1071 H 0.74066 0.57713 0.11868 0.0
H1072 H 0.79256 0.56115 0.14498 0.0
O1073 O 0.88585 0.88307 0.14189 0.0
Tb1074 Tb 0.9089 0.88976 0.16086 0.0
Eu1075 Eu 0.91076 0.8406 0.17329 0.0
C1076 C 0.87492 0.86831 0.14363 0.0
O1077 O 0.87926 0.85525 0.15583 0.0
C1078 C 0.88751 0.87285 0.19688 0.0
O1079 O 0.93722 0.84388 0.19055 0.0
C1080 C 0.9018 0.80554 0.16968 0.0
C1081 C 0.94101 0.85997 0.19881 0.0
O1082 O 0.92948 0.87413 0.19649 0.0
C1083 C 0.93759 0.86105 0.14631 0.0
C1084 C 0.90802 0.78943 0.15833 0.0
C1085 C 0.89459 0.77706 0.15092 0.0
C1086 C 0.9002 0.76117 0.14066 0.0
C1087 C 0.9194 0.75792 0.1377 0.0
C1088 C 0.93296 0.76985 0.14554 0.0
C1089 C 0.92722 0.78576 0.15561 0.0
O1090 O 0.89482 0.88717 0.1877 0.0
O1091 O 0.88974 0.8551 0.19205 0.0
O1092 O 0.90939 0.91549 0.14406 0.0
O1093 O 0.91742 0.91678 0.17271 0.0
C1094 C 0.91512 0.9265 0.15745 0.0
O1095 O 0.92378 0.84898 0.14576 0.0
O1096 O 0.93582 0.8764 0.15624 0.0
O1097 O 0.91363 0.81171 0.18247 0.0
O1098 O 0.89314 0.81905 0.16053 0.0
H1099 H 0.8798 0.77946 0.15363 0.0
H1100 H 0.92385 0.74512 0.13071 0.0
H1101 H 0.93771 0.79492 0.16175 0.0
O1102 O 0.63488 0.8925 0.13482 0.0
Tb1103 Tb 0.61954 0.91518 0.14846 0.0
Eu1104 Eu 0.66756 0.92635 0.16041 0.0
C1105 C 0.63828 0.87709 0.14447 0.0
O1106 O 0.63317 0.87631 0.16214 0.0
C1107 C 0.63766 0.90839 0.18729 0.0
O1108 O 0.66575 0.95087 0.18054 0.0
C1109 C 0.70209 0.91627 0.15486 0.0
C1110 C 0.6496 0.95933 0.18346 0.0
O1111 O 0.63466 0.9536 0.17442 0.0
C1112 C 0.64117 0.95062 0.1331 0.0
C1113 C 0.71878 0.92178 0.14399 0.0
C1114 C 0.73109 0.90776 0.13755 0.0
C1115 C 0.74815 0.91263 0.12894 0.0
C1116 C 0.7526 0.93169 0.1266 0.0
C1117 C 0.74076 0.94582 0.1335 0.0
C1118 C 0.72369 0.94081 0.14192 0.0
O1119 O 0.62386 0.91691 0.17856 0.0
O1120 O 0.65359 0.90497 0.17877 0.0
O1121 O 0.59266 0.9188 0.13376 0.0
O1122 O 0.59362 0.90241 0.15859 0.0
C1123 C 0.58274 0.90896 0.14552 0.0
O1124 O 0.65711 0.94133 0.13443 0.0
O1125 O 0.62532 0.94386 0.13976 0.0
O1126 O 0.69686 0.92785 0.16825 0.0
O1127 O 0.68794 0.9089 0.14551 0.0
H1128 H 0.72778 0.89309 0.13996 0.0
H1129 H 0.76625 0.93552 0.12104 0.0
H1130 H 0.71467 0.9517 0.14759 0.0
O1131 O 0.6205 0.63215 0.13785 0.0
Tb1132 Tb 0.59832 0.62313 0.15683 0.0
Eu1133 Eu 0.58934 0.67248 0.16547 0.0
C1134 C 0.63198 0.64623 0.14115 0.0
O1135 O 0.62832 0.6579 0.1549 0.0
C1136 C 0.61423 0.64449 0.19317 0.0
O1137 O 0.56294 0.66934 0.18257 0.0
C1138 C 0.59735 0.70764 0.1602 0.0
C1139 C 0.55984 0.65392 0.19227 0.0
O1140 O 0.57203 0.64012 0.1914 0.0
C1141 C 0.56557 0.64603 0.13982 0.0
C1142 C 0.59294 0.72463 0.14907 0.0
C1143 C 0.60781 0.73473 0.14087 0.0
C1144 C 0.6045 0.75212 0.13217 0.0
C1145 C 0.5862 0.75925 0.1316 0.0
C1146 C 0.57146 0.75019 0.141 0.0
C1147 C 0.57475 0.7325 0.14913 0.0
O1148 O 0.61056 0.62879 0.18411 0.0
O1149 O 0.60926 0.66137 0.18743 0.0
O1150 O 0.60181 0.59692 0.1411 0.0
O1151 O 0.59321 0.59557 0.16953 0.0
C1152 C 0.59718 0.5857 0.15472 0.0
O1153 O 0.57653 0.66081 0.13898 0.0
O1154 O 0.56986 0.63193 0.15082 0.0
O1155 O 0.58456 0.70174 0.17212 0.0
O1156 O 0.60661 0.69394 0.15191 0.0
H1157 H 0.62208 0.72957 0.14212 0.0
H1158 H 0.5838 0.77296 0.12536 0.0
H1159 H 0.5635 0.72555 0.15665 0.0
O1160 O 0.38015 0.8686 0.88749 0.0
Tb1161 Tb 0.36837 0.8843 0.91089 0.0
Eu1162 Eu 0.35585 0.83755 0.91783 0.0
C1163 C 0.3702 0.86763 0.87195 0.0
O1164 O 0.35335 0.87509 0.87169 0.0
C1165 C 0.32875 0.86959 0.90496 0.0
O1166 O 0.33427 0.83268 0.9404 0.0
C1167 C 0.36551 0.80616 0.90221 0.0
C1168 C 0.32935 0.847 0.95096 0.0
O1169 O 0.33808 0.86307 0.94878 0.0
C1170 C 0.38113 0.86221 0.9475 0.0
C1171 C 0.37557 0.78881 0.90711 0.0
C1172 C 0.38046 0.77621 0.89279 0.0
C1173 C 0.38756 0.75837 0.89726 0.0
C1174 C 0.38973 0.75325 0.91615 0.0
C1175 C 0.38434 0.76547 0.93068 0.0
C1176 C 0.37768 0.78349 0.92602 0.0
O1177 O 0.33855 0.88143 0.91496 0.0
O1178 O 0.33648 0.85398 0.89904 0.0
O1179 O 0.35837 0.91041 0.89844 0.0
O1180 O 0.38402 0.91069 0.91365 0.0
C1181 C 0.37206 0.9209 0.9043 0.0
O1182 O 0.37719 0.84569 0.94002 0.0
O1183 O 0.37729 0.87833 0.93928 0.0
O1184 O 0.34956 0.80866 0.91113 0.0
O1185 O 0.37548 0.82165 0.9004 0.0
H1186 H 0.37784 0.77988 0.87824 0.0
H1187 H 0.39395 0.73898 0.91947 0.0
H1188 H 0.37323 0.79302 0.93703 0.0
O1189 O 0.36792 0.6358 0.61725 0.0
Tb1190 Tb 0.3548 0.61986 0.59476 0.0
Eu1191 Eu 0.34522 0.66792 0.58422 0.0
C1192 C 0.35849 0.63835 0.63291 0.0
O1193 O 0.34121 0.63209 0.63404 0.0
C1194 C 0.31675 0.63919 0.60173 0.0
O1195 O 0.32521 0.66778 0.55954 0.0
C1196 C 0.35283 0.70201 0.59454 0.0
C1197 C 0.32003 0.65174 0.55197 0.0
O1198 O 0.3276 0.6361 0.55803 0.0
C1199 C 0.37132 0.64039 0.55944 0.0
C1200 C 0.36436 0.71818 0.58879 0.0
C1201 C 0.37016 0.73112 0.60249 0.0
C1202 C 0.37943 0.74774 0.59729 0.0
C1203 C 0.38319 0.75109 0.57825 0.0
C1204 C 0.37692 0.73861 0.56434 0.0
C1205 C 0.36772 0.722 0.5697 0.0
O1206 O 0.32491 0.62506 0.5932 0.0
O1207 O 0.32615 0.65456 0.60557 0.0
O1208 O 0.3707 0.5934 0.59437 0.0
O1209 O 0.34341 0.59375 0.60615 0.0
C1210 C 0.35779 0.58325 0.60235 0.0
O1211 O 0.37021 0.6566 0.5683 0.0
O1212 O 0.36363 0.62493 0.56606 0.0
O1213 O 0.33883 0.69762 0.58333 0.0
O1214 O 0.36169 0.68728 0.60141 0.0
H1215 H 0.36669 0.7287 0.61712 0.0
H1216 H 0.38936 0.7644 0.5741 0.0
H1217 H 0.36251 0.7125 0.559 0.0
O1218 O 0.87817 0.37822 0.62144 0.0
Tb1219 Tb 0.88762 0.36002 0.59875 0.0
Eu1220 Eu 0.83802 0.35033 0.5887 0.0
C1221 C 0.86366 0.37456 0.63224 0.0
O1222 O 0.85154 0.36175 0.62701 0.0
C1223 C 0.8661 0.32355 0.61435 0.0
O1224 O 0.84147 0.33299 0.56253 0.0
C1225 C 0.80276 0.35563 0.59615 0.0
C1226 C 0.85704 0.32346 0.5598 0.0
O1227 O 0.87071 0.32486 0.57209 0.0
C1228 C 0.8648 0.37563 0.5647 0.0
C1229 C 0.78615 0.36641 0.59003 0.0
C1230 C 0.77335 0.37293 0.60359 0.0
C1231 C 0.75655 0.3817 0.59808 0.0
C1232 C 0.75272 0.38397 0.57887 0.0
C1233 C 0.76499 0.37692 0.56521 0.0
C1234 C 0.78183 0.36837 0.57082 0.0
O1235 O 0.88177 0.33272 0.61093 0.0
O1236 O 0.84924 0.32877 0.6089 0.0
O1237 O 0.91386 0.37566 0.60262 0.0
O1238 O 0.91521 0.34694 0.595 0.0
C1239 C 0.9251 0.36174 0.59891 0.0
O1240 O 0.84979 0.37647 0.57534 0.0
O1241 O 0.87947 0.36577 0.56992 0.0
O1242 O 0.80895 0.34274 0.58448 0.0
O1243 O 0.81626 0.36482 0.60484 0.0
H1244 H 0.77618 0.37063 0.61839 0.0
H1245 H 0.73933 0.3898 0.57452 0.0
H1246 H 0.79117 0.36265 0.56025 0.0
O1247 O 0.14131 0.87278 0.62091 0.0
Tb1248 Tb 0.15192 0.88837 0.59689 0.0
Eu1249 Eu 0.16482 0.84084 0.58708 0.0
C1250 C 0.15193 0.87165 0.636 0.0
O1251 O 0.16892 0.87873 0.63548 0.0
C1252 C 0.19134 0.87261 0.60122 0.0
O1253 O 0.18526 0.84044 0.56284 0.0
C1254 C 0.15917 0.80709 0.59961 0.0
C1255 C 0.18718 0.85532 0.55205 0.0
O1256 O 0.17652 0.87003 0.55509 0.0
C1257 C 0.13564 0.86606 0.56196 0.0
C1258 C 0.14912 0.78967 0.59456 0.0
C1259 C 0.14157 0.77837 0.60892 0.0
C1260 C 0.13358 0.76087 0.60461 0.0
C1261 C 0.13348 0.75461 0.58597 0.0
C1262 C 0.14171 0.76526 0.57164 0.0
C1263 C 0.14897 0.78309 0.57587 0.0
O1264 O 0.18148 0.88468 0.59149 0.0
O1265 O 0.18368 0.85681 0.60671 0.0
O1266 O 0.16304 0.91461 0.6082 0.0
O1267 O 0.13588 0.91473 0.59596 0.0
C1268 C 0.14866 0.92501 0.60405 0.0
O1269 O 0.13975 0.84959 0.56948 0.0
O1270 O 0.14107 0.88222 0.56917 0.0
O1271 O 0.17331 0.81173 0.58872 0.0
O1272 O 0.14908 0.82158 0.60513 0.0
H1273 H 0.14244 0.7829 0.62344 0.0
H1274 H 0.12804 0.74073 0.58277 0.0
H1275 H 0.15554 0.79128 0.56485 0.0
O1276 O 0.64259 0.14381 0.62182 0.0
Tb1277 Tb 0.627 0.15723 0.59923 0.0
Eu1278 Eu 0.67476 0.16868 0.59192 0.0
C1279 C 0.64506 0.1531 0.63759 0.0
O1280 O 0.63937 0.17061 0.6386 0.0
C1281 C 0.64331 0.1966 0.60577 0.0
O1282 O 0.67876 0.18875 0.56775 0.0
C1283 C 0.70686 0.15993 0.60677 0.0
C1284 C 0.66397 0.1943 0.55819 0.0
O1285 O 0.64753 0.18713 0.56231 0.0
C1286 C 0.6493 0.14285 0.56373 0.0
C1287 C 0.72424 0.14959 0.60234 0.0
C1288 C 0.73515 0.1423 0.61713 0.0
C1289 C 0.75283 0.13437 0.6135 0.0
C1290 C 0.75957 0.13396 0.59503 0.0
C1291 C 0.74932 0.14203 0.58027 0.0
C1292 C 0.73133 0.14927 0.58387 0.0
O1293 O 0.63056 0.18721 0.59643 0.0
O1294 O 0.65902 0.18846 0.61094 0.0
O1295 O 0.60071 0.16639 0.61205 0.0
O1296 O 0.60068 0.14162 0.59553 0.0
C1297 C 0.59033 0.15292 0.60547 0.0
O1298 O 0.66565 0.14554 0.57205 0.0
O1299 O 0.63327 0.14879 0.57074 0.0
O1300 O 0.70392 0.1753 0.59695 0.0
O1301 O 0.69151 0.15008 0.60982 0.0
H1302 H 0.73025 0.14348 0.6315 0.0
H1303 H 0.77356 0.12857 0.59234 0.0
H1304 H 0.72345 0.15581 0.57259 0.0
O1305 O 0.13766 0.6352 0.88933 0.0
Tb1306 Tb 0.1495 0.61955 0.91274 0.0
Eu1307 Eu 0.16229 0.66686 0.919 0.0
C1308 C 0.14732 0.63614 0.87364 0.0
O1309 O 0.16394 0.62823 0.87289 0.0
C1310 C 0.18872 0.63466 0.90633 0.0
O1311 O 0.1837 0.66747 0.94246 0.0
C1312 C 0.15714 0.69992 0.90453 0.0
C1313 C 0.18493 0.65313 0.95405 0.0
O1314 O 0.17313 0.63914 0.95222 0.0
C1315 C 0.13313 0.64372 0.94613 0.0
C1316 C 0.14695 0.71758 0.90813 0.0
C1317 C 0.14205 0.72921 0.8929 0.0
C1318 C 0.13449 0.7472 0.89605 0.0
C1319 C 0.13172 0.75321 0.91463 0.0
C1320 C 0.13679 0.74193 0.92996 0.0
C1321 C 0.14419 0.72397 0.92663 0.0
O1322 O 0.17927 0.62331 0.91722 0.0
O1323 O 0.18065 0.64988 0.8999 0.0
O1324 O 0.13476 0.59248 0.91495 0.0
O1325 O 0.16051 0.59389 0.90015 0.0
C1326 C 0.14714 0.58282 0.90557 0.0
O1327 O 0.13738 0.65953 0.93738 0.0
O1328 O 0.13843 0.627 0.9401 0.0
O1329 O 0.17074 0.6959 0.91637 0.0
O1330 O 0.14721 0.68516 0.89943 0.0
H1331 H 0.14487 0.72457 0.87868 0.0
H1332 H 0.12717 0.76751 0.91725 0.0
H1333 H 0.14849 0.7153 0.93841 0.0
O1334 O 0.87543 0.13523 0.89502 0.0
Tb1335 Tb 0.89277 0.1482 0.91661 0.0
Eu1336 Eu 0.8462 0.16234 0.927 0.0
C1337 C 0.87245 0.14454 0.87933 0.0
O1338 O 0.87916 0.16162 0.87769 0.0
C1339 C 0.87767 0.18803 0.90951 0.0
O1340 O 0.847 0.18257 0.9514 0.0
C1341 C 0.81195 0.15681 0.91596 0.0
C1342 C 0.86315 0.18681 0.9593 0.0
O1343 O 0.87841 0.17824 0.95366 0.0
C1344 C 0.8716 0.1349 0.95301 0.0
C1345 C 0.79481 0.14695 0.92205 0.0
C1346 C 0.78265 0.13938 0.90844 0.0
C1347 C 0.76557 0.13114 0.91382 0.0
C1348 C 0.76082 0.13044 0.93292 0.0
C1349 C 0.77244 0.13859 0.94655 0.0
C1350 C 0.78956 0.14662 0.9411 0.0
O1351 O 0.89059 0.17842 0.91839 0.0
O1352 O 0.8612 0.18058 0.906 0.0
O1353 O 0.91898 0.13202 0.91876 0.0
O1354 O 0.9184 0.15687 0.90236 0.0
C1355 C 0.92893 0.14322 0.90829 0.0
O1356 O 0.8553 0.13742 0.94458 0.0
O1357 O 0.88755 0.14065 0.94566 0.0
O1358 O 0.81716 0.17117 0.92632 0.0
O1359 O 0.82609 0.1464 0.91013 0.0
H1360 H 0.78618 0.14044 0.89366 0.0
H1361 H 0.74721 0.12498 0.93703 0.0
H1362 H 0.79846 0.15311 0.95163 0.0
O1363 O 0.63191 0.37669 0.89081 0.0
Tb1364 Tb 0.62047 0.36096 0.91451 0.0
Eu1365 Eu 0.66873 0.34919 0.92375 0.0
C1366 C 0.64466 0.37012 0.87918 0.0
O1367 O 0.65391 0.35485 0.88359 0.0
C1368 C 0.63796 0.32117 0.90298 0.0
O1369 O 0.66953 0.33297 0.95089 0.0
C1370 C 0.70236 0.35455 0.9109 0.0
C1371 C 0.65456 0.32367 0.95637 0.0
O1372 O 0.63916 0.3248 0.94628 0.0
C1373 C 0.64376 0.37734 0.94812 0.0
C1374 C 0.71974 0.36527 0.91429 0.0
C1375 C 0.73073 0.37075 0.89882 0.0
C1376 C 0.74859 0.37861 0.90161 0.0
C1377 C 0.75538 0.3809 0.91992 0.0
C1378 C 0.74509 0.3745 0.93542 0.0
C1379 C 0.72694 0.36737 0.93261 0.0
O1380 O 0.62331 0.33192 0.90619 0.0
O1381 O 0.65539 0.32601 0.90672 0.0
O1382 O 0.59554 0.37747 0.90695 0.0
O1383 O 0.59194 0.35113 0.92021 0.0
C1384 C 0.58325 0.3655 0.91313 0.0
O1385 O 0.65947 0.37566 0.93861 0.0
O1386 O 0.62828 0.36888 0.94283 0.0
O1387 O 0.6981 0.34171 0.92347 0.0
O1388 O 0.68766 0.36368 0.90434 0.0
H1389 H 0.72585 0.36798 0.88466 0.0
H1390 H 0.76956 0.38607 0.92202 0.0
H1391 H 0.71908 0.36205 0.94451 0.0
H1392 H 0.09081 0.72085 0.10429 0.0
H1393 H 0.11875 0.72407 0.15813 0.0
H1394 H 0.09815 0.75353 0.0984 0.0
H1395 H 0.12579 0.75723 0.15234 0.0
H1396 H 0.15505 0.80717 0.12004 0.0
H1397 H 0.14553 0.77643 0.13186 0.0
H1398 H 0.0902 0.78471 0.10832 0.0
H1399 H 0.10004 0.81479 0.09562 0.0
C1400 C 0.09843 0.72857 0.11496 0.0
C1401 C 0.10423 0.71981 0.13167 0.0
C1402 C 0.10247 0.74743 0.11166 0.0
C1403 C 0.11236 0.7581 0.125 0.0
C1404 C 0.1182 0.74938 0.14176 0.0
C1405 C 0.11415 0.7304 0.14507 0.0
C1406 C 0.14074 0.80256 0.11773 0.0
C1407 C 0.12828 0.81345 0.10693 0.0
C1408 C 0.13526 0.78498 0.12459 0.0
C1409 C 0.11719 0.77798 0.12078 0.0
C1410 C 0.10434 0.78953 0.11119 0.0
C1411 C 0.10987 0.80698 0.10421 0.0
H1412 H 0.71126 0.10764 0.10398 0.0
H1413 H 0.71954 0.1633 0.12688 0.0
H1414 H 0.74329 0.0994 0.11231 0.0
H1415 H 0.7519 0.15507 0.1349 0.0
H1416 H 0.80266 0.12472 0.16311 0.0
H1417 H 0.77051 0.1345 0.15591 0.0
H1418 H 0.77454 0.10764 0.10164 0.0
H1419 H 0.80628 0.09759 0.1089 0.0
C1420 C 0.71993 0.11816 0.11075 0.0
C1421 C 0.71289 0.13616 0.11468 0.0
C1422 C 0.73834 0.11345 0.11543 0.0
C1423 C 0.75018 0.12665 0.12409 0.0
C1424 C 0.74306 0.14458 0.12834 0.0
C1425 C 0.72457 0.1493 0.12367 0.0
C1426 C 0.79667 0.12098 0.14963 0.0
C1427 C 0.80693 0.11023 0.13666 0.0
C1428 C 0.77831 0.12665 0.14548 0.0
C1429 C 0.76994 0.12165 0.1283 0.0
C1430 C 0.78045 0.11136 0.11517 0.0
C1431 C 0.7987 0.10569 0.11931 0.0
H1432 H 0.41894 0.80605 0.10878 0.0
H1433 H 0.38704 0.80008 0.16009 0.0
H1434 H 0.41122 0.774 0.10016 0.0
H1435 H 0.37957 0.76765 0.15152 0.0
H1436 H 0.35374 0.71847 0.11685 0.0
H1437 H 0.36111 0.75025 0.12745 0.0
H1438 H 0.4189 0.74229 0.11087 0.0
H1439 H 0.41156 0.71081 0.09999 0.0
C1440 C 0.41035 0.79786 0.11828 0.0
C1441 C 0.40362 0.80556 0.13514 0.0
C1442 C 0.40602 0.77945 0.11338 0.0
C1443 C 0.39491 0.76831 0.12523 0.0
C1444 C 0.38807 0.776 0.14207 0.0
C1445 C 0.39242 0.79449 0.147 0.0
C1446 C 0.36802 0.7235 0.11553 0.0
C1447 C 0.38203 0.71221 0.10743 0.0
C1448 C 0.37225 0.74164 0.1217 0.0
C1449 C 0.39054 0.74875 0.11986 0.0
C1450 C 0.40461 0.73728 0.11217 0.0
C1451 C 0.40039 0.71921 0.10599 0.0
H1452 H 0.70176 0.37854 0.15545 0.0
H1453 H 0.70719 0.42044 0.11179 0.0
H1454 H 0.7351 0.37072 0.15197 0.0
H1455 H 0.74018 0.41262 0.10838 0.0
H1456 H 0.80186 0.40795 0.11863 0.0
H1457 H 0.7697 0.41535 0.12742 0.0
H1458 H 0.75572 0.35634 0.1265 0.0
H1459 H 0.78796 0.34877 0.11784 0.0
C1460 C 0.71004 0.38606 0.14515 0.0
C1461 C 0.70187 0.40007 0.13387 0.0
C1462 C 0.72906 0.38157 0.14316 0.0
C1463 C 0.7402 0.3912 0.13004 0.0
C1464 C 0.73199 0.40519 0.11882 0.0
C1465 C 0.71303 0.40953 0.12066 0.0
C1466 C 0.79206 0.39649 0.12055 0.0
C1467 C 0.79745 0.37778 0.11726 0.0
C1468 C 0.77362 0.40076 0.12552 0.0
C1469 C 0.76022 0.38643 0.1274 0.0
C1470 C 0.76581 0.36765 0.12519 0.0
C1471 C 0.78426 0.36335 0.12012 0.0
H1472 H 0.08461 0.80106 0.393 0.0
H1473 H 0.12773 0.80817 0.35093 0.0
H1474 H 0.09375 0.7683 0.39684 0.0
H1475 H 0.13686 0.77522 0.35479 0.0
H1476 H 0.15986 0.72305 0.38941 0.0
H1477 H 0.15127 0.7552 0.381 0.0
H1478 H 0.09306 0.73878 0.37728 0.0
H1479 H 0.10143 0.70678 0.38567 0.0
C1480 C 0.09603 0.79561 0.38457 0.0
C1481 C 0.10547 0.80714 0.37168 0.0
C1482 C 0.10116 0.77684 0.38666 0.0
C1483 C 0.11593 0.76926 0.37602 0.0
C1484 C 0.12545 0.78078 0.36318 0.0
C1485 C 0.12018 0.79956 0.36093 0.0
C1486 C 0.14527 0.72621 0.38651 0.0
C1487 C 0.13132 0.71236 0.38848 0.0
C1488 C 0.14038 0.7446 0.38165 0.0
C1489 C 0.12148 0.74945 0.37876 0.0
C1490 C 0.10769 0.73544 0.37976 0.0
C1491 C 0.11255 0.71709 0.38451 0.0
H1492 H 0.78963 0.15587 0.41965 0.0
H1493 H 0.81125 0.12114 0.37501 0.0
H1494 H 0.75777 0.14886 0.40995 0.0
H1495 H 0.77935 0.11534 0.36394 0.0
H1496 H 0.7221 0.0874 0.36544 0.0
H1497 H 0.75402 0.09766 0.37144 0.0
H1498 H 0.73289 0.15159 0.39029 0.0
H1499 H 0.70085 0.14032 0.38581 0.0
C1500 C 0.78745 0.14719 0.40733 0.0
C1501 C 0.80271 0.13894 0.39807 0.0
C1502 C 0.76916 0.14324 0.40162 0.0
C1503 C 0.76577 0.13136 0.38617 0.0
C1504 C 0.78127 0.12406 0.37625 0.0
C1505 C 0.79957 0.12751 0.38239 0.0
C1506 C 0.72443 0.10145 0.37084 0.0
C1507 C 0.70924 0.11308 0.37536 0.0
C1508 C 0.74274 0.10748 0.37409 0.0
C1509 C 0.74626 0.12554 0.38139 0.0
C1510 C 0.73086 0.13743 0.38515 0.0
C1511 C 0.71249 0.1311 0.38248 0.0
H1512 H 0.35762 0.80281 0.37279 0.0
H1513 H 0.40091 0.794 0.41452 0.0
H1514 H 0.35904 0.76934 0.36452 0.0
H1515 H 0.40219 0.76094 0.40634 0.0
H1516 H 0.38737 0.7005 0.40243 0.0
H1517 H 0.3801 0.73315 0.40923 0.0
H1518 H 0.38385 0.7466 0.35024 0.0
H1519 H 0.39113 0.7138 0.34322 0.0
C1520 C 0.36741 0.79377 0.38016 0.0
C1521 C 0.37915 0.80102 0.39429 0.0
C1522 C 0.36821 0.77469 0.37542 0.0
C1523 C 0.38055 0.76258 0.38497 0.0
C1524 C 0.39232 0.76991 0.39899 0.0
C1525 C 0.39169 0.7889 0.40354 0.0
C1526 C 0.38639 0.71028 0.39081 0.0
C1527 C 0.39019 0.70454 0.3723 0.0
C1528 C 0.38225 0.729 0.39475 0.0
C1529 C 0.38173 0.74239 0.38029 0.0
C1530 C 0.38417 0.73651 0.36163 0.0
C1531 C 0.38841 0.71773 0.35766 0.0
H1532 H 0.70064 0.41111 0.40252 0.0
H1533 H 0.70526 0.35393 0.38261 0.0
H1534 H 0.73338 0.41653 0.3948 0.0
H1535 H 0.73841 0.35934 0.37512 0.0
H1536 H 0.79434 0.38454 0.3507 0.0
H1537 H 0.76087 0.3778 0.35498 0.0
H1538 H 0.76249 0.40519 0.40909 0.0
H1539 H 0.79551 0.41212 0.4048 0.0
C1540 C 0.70864 0.3997 0.3964 0.0
C1541 C 0.70045 0.38202 0.39341 0.0
C1542 C 0.72744 0.40279 0.39206 0.0
C1543 C 0.73856 0.38825 0.38472 0.0
C1544 C 0.73017 0.37081 0.38078 0.0
C1545 C 0.71122 0.36771 0.38508 0.0
C1546 C 0.78753 0.38901 0.36354 0.0
C1547 C 0.79754 0.39901 0.37733 0.0
C1548 C 0.76841 0.38511 0.36599 0.0
C1549 C 0.75901 0.39123 0.38223 0.0
C1550 C 0.76922 0.40068 0.39622 0.0
C1551 C 0.78822 0.40454 0.3938 0.0
H1552 H 0.10827 0.1306 0.70364 0.0
H1553 H 0.16153 0.10704 0.72096 0.0
H1554 H 0.10191 0.13974 0.7362 0.0
H1555 H 0.15491 0.11589 0.7534 0.0
H1556 H 0.11651 0.10659 0.80716 0.0
H1557 H 0.12569 0.10209 0.7744 0.0
H1558 H 0.11883 0.16146 0.7641 0.0
H1559 H 0.11004 0.16614 0.7971 0.0
C1560 C 0.1187 0.12762 0.71433 0.0
C1561 C 0.13536 0.11806 0.7098 0.0
C1562 C 0.11509 0.13291 0.73286 0.0
C1563 C 0.12791 0.12838 0.74712 0.0
C1564 C 0.14484 0.11945 0.74254 0.0
C1565 C 0.14863 0.11449 0.72399 0.0
C1566 C 0.11702 0.11868 0.79792 0.0
C1567 C 0.1126 0.13671 0.80458 0.0
C1568 C 0.12236 0.11612 0.77928 0.0
C1569 C 0.12298 0.13147 0.76693 0.0
C1570 C 0.11844 0.14948 0.77348 0.0
C1571 C 0.1135 0.15212 0.79228 0.0
H1572 H 0.4188 0.10409 0.70654 0.0
H1573 H 0.39454 0.15907 0.71545 0.0
H1574 H 0.41023 0.09507 0.73827 0.0
H1575 H 0.38631 0.15011 0.74754 0.0
H1576 H 0.35808 0.11931 0.79722 0.0
H1577 H 0.36549 0.12901 0.76517 0.0
H1578 H 0.41993 0.10259 0.76995 0.0
H1579 H 0.41241 0.09254 0.80167 0.0
C1580 C 0.4117 0.1143 0.7153 0.0
C1581 C 0.40742 0.13233 0.70852 0.0
C1582 C 0.40688 0.10915 0.73354 0.0
C1583 C 0.39774 0.12193 0.74546 0.0
C1584 C 0.39322 0.13991 0.73862 0.0
C1585 C 0.39801 0.14507 0.72029 0.0
C1586 C 0.37162 0.11558 0.7914 0.0
C1587 C 0.38462 0.10507 0.80192 0.0
C1588 C 0.3759 0.12123 0.7731 0.0
C1589 C 0.39325 0.11648 0.76502 0.0
C1590 C 0.40631 0.10618 0.77567 0.0
C1591 C 0.40202 0.1005 0.79389 0.0
H1592 H 0.38002 0.36587 0.70218 0.0
H1593 H 0.35165 0.41458 0.72427 0.0
H1594 H 0.38491 0.35414 0.73402 0.0
H1595 H 0.35796 0.40413 0.75604 0.0
H1596 H 0.36586 0.38098 0.81305 0.0
H1597 H 0.35371 0.38547 0.78129 0.0
H1598 H 0.40385 0.35919 0.75891 0.0
H1599 H 0.41476 0.35327 0.79061 0.0
C1600 C 0.37486 0.374 0.71395 0.0
C1601 C 0.36548 0.39102 0.71098 0.0
C1602 C 0.37781 0.36746 0.73222 0.0
C1603 C 0.37212 0.37826 0.74784 0.0
C1604 C 0.36225 0.39511 0.74459 0.0
C1605 C 0.35874 0.40125 0.72634 0.0
C1606 C 0.37396 0.37591 0.80121 0.0
C1607 C 0.39114 0.3668 0.80406 0.0
C1608 C 0.36716 0.37861 0.78299 0.0
C1609 C 0.37783 0.37294 0.76729 0.0
C1610 C 0.3949 0.36343 0.77043 0.0
C1611 C 0.40132 0.36016 0.78862 0.0
H1612 H 0.10354 0.38358 0.80416 0.0
H1613 H 0.16274 0.38658 0.79093 0.0
H1614 H 0.09676 0.37519 0.77175 0.0
H1615 H 0.15578 0.3783 0.75843 0.0
H1616 H 0.135 0.354 0.7018 0.0
H1617 H 0.14205 0.35427 0.73555 0.0
H1618 H 0.09937 0.39658 0.74391 0.0
H1619 H 0.09235 0.39634 0.71056 0.0
C1620 C 0.11516 0.38213 0.79447 0.0
C1621 C 0.13366 0.38616 0.80009 0.0
C1622 C 0.11124 0.37736 0.77589 0.0
C1623 C 0.12571 0.37646 0.76255 0.0
C1624 C 0.14436 0.3789 0.76845 0.0
C1625 C 0.14831 0.38372 0.78707 0.0
C1626 C 0.12713 0.36329 0.71091 0.0
C1627 C 0.11323 0.37524 0.70354 0.0
C1628 C 0.13116 0.36344 0.73016 0.0
C1629 C 0.12112 0.37531 0.74232 0.0
C1630 C 0.10711 0.38705 0.73492 0.0
C1631 C 0.10325 0.38707 0.71576 0.0
H1632 H 0.88922 0.2957 0.8515 0.0
H1633 H 0.9169 0.3023 0.90518 0.0
H1634 H 0.88142 0.26325 0.85964 0.0
H1635 H 0.90885 0.27018 0.91335 0.0
H1636 H 0.91079 0.20677 0.9132 0.0
H1637 H 0.91797 0.23868 0.90351 0.0
H1638 H 0.86166 0.24502 0.88181 0.0
H1639 H 0.85447 0.2128 0.89124 0.0
C1640 C 0.89357 0.29027 0.86503 0.0
C1641 C 0.90376 0.30153 0.87765 0.0
C1642 C 0.88902 0.27174 0.86972 0.0
C1643 C 0.89463 0.26415 0.88708 0.0
C1644 C 0.90461 0.27552 0.89974 0.0
C1645 C 0.90914 0.29398 0.89508 0.0
C1646 C 0.89991 0.2149 0.90632 0.0
C1647 C 0.88202 0.20727 0.90308 0.0
C1648 C 0.90402 0.23324 0.90086 0.0
C1649 C 0.89033 0.2444 0.89205 0.0
C1650 C 0.87253 0.23669 0.88846 0.0
C1651 C 0.86839 0.21829 0.89395 0.0
H1652 H 0.21956 0.88755 0.85257 0.0
H1653 H 0.21406 0.90761 0.90965 0.0
H1654 H 0.252 0.87843 0.85904 0.0
H1655 H 0.24619 0.89819 0.91612 0.0
H1656 H 0.3096 0.90138 0.91398 0.0
H1657 H 0.27722 0.90909 0.90665 0.0
H1658 H 0.27091 0.85596 0.87796 0.0
H1659 H 0.30364 0.8483 0.88503 0.0
C1660 C 0.22521 0.88989 0.86651 0.0
C1661 C 0.2143 0.89841 0.88056 0.0
C1662 C 0.24374 0.88457 0.87023 0.0
C1663 C 0.25164 0.88772 0.88804 0.0
C1664 C 0.24057 0.89589 0.90216 0.0
C1665 C 0.22212 0.9012 0.89846 0.0
C1666 C 0.30137 0.89131 0.90609 0.0
C1667 C 0.30916 0.87419 0.90013 0.0
C1668 C 0.28277 0.8957 0.90198 0.0
C1669 C 0.27151 0.88306 0.89187 0.0
C1670 C 0.27933 0.86602 0.88568 0.0
C1671 C 0.29801 0.86161 0.8898 0.0
H1672 H 0.59873 0.20857 0.90332 0.0
H1673 H 0.63548 0.20738 0.85502 0.0
H1674 H 0.60524 0.24182 0.90751 0.0
H1675 H 0.64201 0.2409 0.85934 0.0
H1676 H 0.66387 0.29461 0.89247 0.0
H1677 H 0.65786 0.26182 0.88433 0.0
H1678 H 0.59824 0.27152 0.88919 0.0
H1679 H 0.60406 0.30416 0.89735 0.0
C1680 C 0.60824 0.21539 0.89361 0.0
C1681 C 0.61657 0.20536 0.87881 0.0
C1682 C 0.61185 0.23447 0.89594 0.0
C1683 C 0.62398 0.24391 0.88363 0.0
C1684 C 0.63261 0.23389 0.86901 0.0
C1685 C 0.62883 0.21476 0.86654 0.0
C1686 C 0.64946 0.28983 0.89158 0.0
C1687 C 0.63446 0.30199 0.89579 0.0
C1688 C 0.64605 0.27108 0.88684 0.0
C1689 C 0.62761 0.26416 0.88637 0.0
C1690 C 0.61261 0.27648 0.88974 0.0
C1691 C 0.61598 0.29521 0.89433 0.0
H1692 H 0.29514 0.61796 0.84866 0.0
H1693 H 0.30403 0.59697 0.90498 0.0
H1694 H 0.26284 0.62599 0.85679 0.0
H1695 H 0.27201 0.60535 0.91316 0.0
H1696 H 0.21281 0.6556 0.88507 0.0
H1697 H 0.24502 0.64786 0.87641 0.0
H1698 H 0.24036 0.59508 0.90606 0.0
H1699 H 0.20838 0.60296 0.91506 0.0
C1700 C 0.29025 0.61516 0.86279 0.0
C1701 C 0.30212 0.60678 0.87615 0.0
C1702 C 0.27178 0.61984 0.86746 0.0
C1703 C 0.26487 0.61623 0.88559 0.0
C1704 C 0.27682 0.60801 0.89898 0.0
C1705 C 0.29522 0.60331 0.89431 0.0
C1706 C 0.21867 0.64235 0.88973 0.0
C1707 C 0.20809 0.62992 0.90081 0.0
C1708 C 0.23707 0.63787 0.88468 0.0
C1709 C 0.24523 0.62089 0.89059 0.0
C1710 C 0.23456 0.60841 0.90153 0.0
C1711 C 0.2162 0.61289 0.90661 0.0
H1712 H 0.8511 0.2915 0.60125 0.0
H1713 H 0.88531 0.31374 0.64599 0.0
H1714 H 0.85753 0.25978 0.61178 0.0
H1715 H 0.89046 0.28202 0.65795 0.0
H1716 H 0.91795 0.22432 0.65793 0.0
H1717 H 0.90781 0.25626 0.65179 0.0
H1718 H 0.85446 0.23515 0.6314 0.0
H1719 H 0.86571 0.20307 0.63597 0.0
C1720 C 0.85952 0.2895 0.61379 0.0
C1721 C 0.86779 0.30488 0.62283 0.0
C1722 C 0.86313 0.27128 0.61998 0.0
C1723 C 0.87468 0.26807 0.63574 0.0
C1724 C 0.88199 0.28375 0.64544 0.0
C1725 C 0.8789 0.30196 0.63879 0.0
C1726 C 0.90402 0.22665 0.65223 0.0
C1727 C 0.8926 0.21144 0.64727 0.0
C1728 C 0.89805 0.24499 0.64887 0.0
C1729 C 0.88024 0.24855 0.641 0.0
C1730 C 0.86847 0.23312 0.63695 0.0
C1731 C 0.87476 0.21472 0.63971 0.0
H1732 H 0.20939 0.90573 0.59531 0.0
H1733 H 0.21696 0.85057 0.61966 0.0
H1734 H 0.24129 0.91397 0.60398 0.0
H1735 H 0.24924 0.85875 0.62799 0.0
H1736 H 0.29937 0.88887 0.65661 0.0
H1737 H 0.26724 0.87959 0.64895 0.0
H1738 H 0.27276 0.9056 0.59437 0.0
H1739 H 0.30453 0.91521 0.60213 0.0
C1740 C 0.2179 0.89531 0.60244 0.0
C1741 C 0.21069 0.87746 0.60673 0.0
C1742 C 0.23623 0.90001 0.60732 0.0
C1743 C 0.24782 0.88696 0.61652 0.0
C1744 C 0.24057 0.86915 0.62103 0.0
C1745 C 0.22214 0.86444 0.61618 0.0
C1746 C 0.2937 0.89258 0.64299 0.0
C1747 C 0.30441 0.90288 0.63003 0.0
C1748 C 0.27536 0.88717 0.63857 0.0
C1749 C 0.26746 0.89197 0.62111 0.0
C1750 C 0.27834 0.90199 0.60807 0.0
C1751 C 0.29658 0.90743 0.6125 0.0
H1752 H 0.61244 0.21727 0.59689 0.0
H1753 H 0.66589 0.22087 0.62553 0.0
H1754 H 0.60635 0.25001 0.604 0.0
H1755 H 0.65979 0.25403 0.63245 0.0
H1756 H 0.60841 0.31225 0.60095 0.0
H1757 H 0.61881 0.28048 0.59413 0.0
H1758 H 0.63788 0.27421 0.65141 0.0
H1759 H 0.62771 0.30637 0.65823 0.0
C1760 C 0.62293 0.22505 0.60468 0.0
C1761 C 0.63968 0.21646 0.61059 0.0
C1762 C 0.61949 0.24388 0.60864 0.0
C1763 C 0.6327 0.25464 0.61858 0.0
C1764 C 0.64935 0.24604 0.6248 0.0
C1765 C 0.65285 0.2271 0.62078 0.0
C1766 C 0.61498 0.30419 0.61207 0.0
C1767 C 0.61698 0.31169 0.63021 0.0
C1768 C 0.62088 0.28596 0.60817 0.0
C1769 C 0.62882 0.27475 0.62233 0.0
C1770 C 0.63181 0.28256 0.64022 0.0
C1771 C 0.62595 0.30093 0.64413 0.0
H1772 H 0.21048 0.62282 0.65914 0.0
H1773 H 0.19707 0.62381 0.59985 0.0
H1774 H 0.24293 0.6314 0.65179 0.0
H1775 H 0.22929 0.63225 0.59271 0.0
H1776 H 0.29121 0.61445 0.58807 0.0
H1777 H 0.25828 0.61154 0.59653 0.0
H1778 H 0.26413 0.65714 0.63609 0.0
H1779 H 0.29737 0.66018 0.62755 0.0
C1780 C 0.2143 0.62523 0.64462 0.0
C1781 C 0.20124 0.62229 0.63007 0.0
C1782 C 0.23286 0.63016 0.64044 0.0
C1783 C 0.23861 0.63214 0.62167 0.0
C1784 C 0.22527 0.63045 0.60728 0.0
C1785 C 0.2068 0.62564 0.61142 0.0
C1786 C 0.28554 0.62386 0.59861 0.0
C1787 C 0.29686 0.63753 0.60717 0.0
C1788 C 0.26665 0.62228 0.60333 0.0
C1789 C 0.25868 0.63423 0.61685 0.0
C1790 C 0.26999 0.64778 0.62563 0.0
C1791 C 0.28893 0.64954 0.62069 0.0
H1792 H 0.87776 0.84785 0.22451 0.0
H1793 H 0.87769 0.90715 0.2111 0.0
H1794 H 0.87094 0.8553 0.25718 0.0
H1795 H 0.87066 0.91446 0.24372 0.0
H1796 H 0.89313 0.91843 0.30439 0.0
H1797 H 0.89203 0.91149 0.27101 0.0
H1798 H 0.84932 0.86957 0.28087 0.0
H1799 H 0.8505 0.87644 0.31454 0.0
C1800 C 0.87575 0.86244 0.22837 0.0
C1801 C 0.87869 0.87692 0.21524 0.0
C1802 C 0.87181 0.86669 0.24711 0.0
C1803 C 0.87069 0.88548 0.25304 0.0
C1804 C 0.8719 0.89986 0.2396 0.0
C1805 C 0.87584 0.89564 0.22089 0.0
C1806 C 0.88349 0.90773 0.29949 0.0
C1807 C 0.87197 0.89792 0.31211 0.0
C1808 C 0.8827 0.90391 0.28032 0.0
C1809 C 0.87044 0.89012 0.27331 0.0
C1810 C 0.8589 0.88026 0.2859 0.0
C1811 C 0.85959 0.8842 0.30514 0.0
H1812 H 0.60418 0.84906 0.28802 0.0
H1813 H 0.63141 0.89957 0.30787 0.0
H1814 H 0.61209 0.85752 0.25571 0.0
H1815 H 0.63961 0.90776 0.27548 0.0
H1816 H 0.66439 0.90255 0.21404 0.0
H1817 H 0.65958 0.89198 0.24647 0.0
H1818 H 0.59996 0.88822 0.23629 0.0
H1819 H 0.60463 0.89917 0.20406 0.0
C1820 C 0.6122 0.86175 0.28552 0.0
C1821 C 0.61715 0.8737 0.30043 0.0
C1822 C 0.6166 0.86661 0.26706 0.0
C1823 C 0.62636 0.88328 0.26326 0.0
C1824 C 0.63212 0.89479 0.27818 0.0
C1825 C 0.62738 0.89014 0.29663 0.0
C1826 C 0.65028 0.8994 0.21875 0.0
C1827 C 0.63486 0.90168 0.20662 0.0
C1828 C 0.64756 0.89344 0.23724 0.0
C1829 C 0.62944 0.88925 0.24369 0.0
C1830 C 0.61407 0.89125 0.2315 0.0
C1831 C 0.61674 0.8976 0.21316 0.0
H1832 H 0.61032 0.66905 0.22218 0.0
H1833 H 0.63594 0.61602 0.20722 0.0
H1834 H 0.61814 0.66347 0.2551 0.0
H1835 H 0.64412 0.61079 0.24026 0.0
H1836 H 0.66562 0.6206 0.3033 0.0
H1837 H 0.66357 0.63083 0.27039 0.0
H1838 H 0.60313 0.63127 0.27425 0.0
H1839 H 0.60507 0.62049 0.30684 0.0
C1840 C 0.61815 0.6565 0.2258 0.0
C1841 C 0.62242 0.64289 0.21214 0.0
C1842 C 0.62253 0.65333 0.24463 0.0
C1843 C 0.63165 0.63674 0.25002 0.0
C1844 C 0.63716 0.62374 0.23629 0.0
C1845 C 0.63243 0.62671 0.21746 0.0
C1846 C 0.65192 0.6231 0.29714 0.0
C1847 C 0.63547 0.61979 0.30751 0.0
C1848 C 0.65079 0.62886 0.2784 0.0
C1849 C 0.63322 0.63187 0.27003 0.0
C1850 C 0.61682 0.62915 0.28057 0.0
C1851 C 0.61793 0.62294 0.29911 0.0
H1852 H 0.90103 0.66319 0.28882 0.0
H1853 H 0.87406 0.6125 0.3086 0.0
H1854 H 0.89167 0.65558 0.25671 0.0
H1855 H 0.86445 0.60516 0.2764 0.0
H1856 H 0.84024 0.60986 0.21461 0.0
H1857 H 0.84442 0.62124 0.2469 0.0
H1858 H 0.90427 0.62431 0.23807 0.0
H1859 H 0.90024 0.61255 0.20608 0.0
C1860 C 0.89266 0.65072 0.2864 0.0
C1861 C 0.88837 0.63834 0.30117 0.0
C1862 C 0.88741 0.64636 0.26804 0.0
C1863 C 0.87747 0.6298 0.26425 0.0
C1864 C 0.87206 0.61806 0.27911 0.0
C1865 C 0.87762 0.62222 0.29745 0.0
C1866 C 0.85426 0.61305 0.2196 0.0
C1867 C 0.86994 0.61029 0.20798 0.0
C1868 C 0.85661 0.61951 0.23798 0.0
C1869 C 0.87462 0.62372 0.24473 0.0
C1870 C 0.89024 0.6213 0.233 0.0
C1871 C 0.88794 0.61445 0.21482 0.0
H1872 H 0.08312 0.67697 0.05352 0.0
H1873 H 0.11533 0.62677 0.06445 0.0
H1874 H 0.0891 0.67365 0.01995 0.0
H1875 H 0.12192 0.6237 0.03093 0.0
H1876 H 0.1253 0.67544 0.96643 0.0
H1877 H 0.11457 0.67735 0.99872 0.0
H1878 H 0.10908 0.61692 1.00058 0.0
H1879 H 0.12038 0.61492 0.96836 0.0
C1880 C 0.09147 0.6652 0.0487 0.0
C1881 C 0.09882 0.65215 0.06155 0.0
C1882 C 0.095 0.66334 0.02948 0.0
C1883 C 0.10608 0.64845 0.02268 0.0
C1884 C 0.1131 0.63519 0.03559 0.0
C1885 C 0.10946 0.63699 0.05482 0.0
C1886 C 0.12155 0.66254 0.97358 0.0
C1887 C 0.12383 0.64501 0.96475 0.0
C1888 C 0.11531 0.66365 0.99215 0.0
C1889 C 0.11108 0.64728 1.00237 0.0
C1890 C 0.11256 0.62979 0.99327 0.0
C1891 C 0.11889 0.62867 0.97471 0.0
H1892 H 0.84899 0.08026 0.061 0.0
H1893 H 0.89386 0.11964 0.07133 0.0
H1894 H 0.85018 0.08753 0.0275 0.0
H1895 H 0.89484 0.12728 0.03789 0.0
H1896 H 0.90227 0.12655 0.97477 0.0
H1897 H 0.90266 0.1153 0.00709 0.0
H1898 H 0.84205 0.11333 0.00704 0.0
H1899 H 0.84163 0.1242 0.97463 0.0
C1900 C 0.85917 0.09041 0.05606 0.0
C1901 C 0.87133 0.0994 0.06874 0.0
C1902 C 0.85978 0.09467 0.03689 0.0
C1903 C 0.87254 0.10806 0.02997 0.0
C1904 C 0.88499 0.11673 0.04267 0.0
C1905 C 0.88439 0.11244 0.06185 0.0
C1906 C 0.88901 0.12352 0.98156 0.0
C1907 C 0.87191 0.12633 0.97204 0.0
C1908 C 0.88924 0.11719 1.00016 0.0
C1909 C 0.87239 0.11352 0.00975 0.0
C1910 C 0.85531 0.11581 1.00005 0.0
C1911 C 0.85507 0.12212 0.98144 0.0
H1912 H 0.38575 0.89315 0.96976 0.0
H1913 H 0.39274 0.83279 0.96969 0.0
H1914 H 0.39298 0.89402 1.003 0.0
H1915 H 0.40078 0.83378 1.00296 0.0
H1916 H 0.3882 0.83927 0.0656 0.0
H1917 H 0.38471 0.83841 0.03162 0.0
H1918 H 0.4154 0.89064 0.02724 0.0
H1919 H 0.41815 0.89179 0.06147 0.0
C1920 C 0.38924 0.88006 0.97672 0.0
C1921 C 0.38848 0.86285 0.96701 0.0
C1922 C 0.39349 0.8806 0.99586 0.0
C1923 C 0.39729 0.86396 0.0058 0.0
C1924 C 0.3975 0.84684 0.99587 0.0
C1925 C 0.39306 0.84628 0.97672 0.0
C1926 C 0.39415 0.85059 0.05735 0.0
C1927 C 0.40335 0.86566 0.06612 0.0
C1928 C 0.39235 0.85 0.03783 0.0
C1929 C 0.39989 0.86438 0.02658 0.0
C1930 C 0.40922 0.87943 0.03543 0.0
C1931 C 0.41084 0.8801 0.05503 0.0
H1932 H 0.6659 0.43266 0.05637 0.0
H1933 H 0.61455 0.40104 0.06205 0.0
H1934 H 0.66656 0.42552 0.02275 0.0
H1935 H 0.61543 0.39339 0.02877 0.0
H1936 H 0.61339 0.39154 0.96644 0.0
H1937 H 0.61223 0.40504 0.99778 0.0
H1938 H 0.67244 0.39912 1.00259 0.0
H1939 H 0.67363 0.38617 0.97085 0.0
C1940 C 0.65466 0.42434 0.05037 0.0
C1941 C 0.64015 0.41741 0.06177 0.0
C1942 C 0.65512 0.42011 0.03115 0.0
C1943 C 0.64109 0.40882 0.02298 0.0
C1944 C 0.62632 0.40238 0.03442 0.0
C1945 C 0.62583 0.40667 0.05356 0.0
C1946 C 0.62642 0.39334 0.97409 0.0
C1947 C 0.64359 0.38764 0.96621 0.0
C1948 C 0.62575 0.40098 0.99213 0.0
C1949 C 0.64219 0.40293 1.0029 0.0
C1950 C 0.6595 0.398 0.99468 0.0
C1951 C 0.66019 0.39051 0.97649 0.0
H1952 H 0.13168 0.89602 0.5383 0.0
H1953 H 0.1188 0.83687 0.54318 0.0
H1954 H 0.12093 0.89579 0.50601 0.0
H1955 H 0.10725 0.83682 0.51094 0.0
H1956 H 0.11437 0.8377 0.44696 0.0
H1957 H 0.12045 0.838 0.48059 0.0
H1958 H 0.09597 0.89351 0.48439 0.0
H1959 H 0.09068 0.8934 0.45045 0.0
C1960 C 0.12613 0.88303 0.53265 0.0
C1961 C 0.12627 0.86641 0.54335 0.0
C1962 C 0.11986 0.88293 0.51406 0.0
C1963 C 0.11336 0.86625 0.50572 0.0
C1964 C 0.11255 0.84984 0.51675 0.0
C1965 C 0.11903 0.84989 0.53531 0.0
C1966 C 0.11027 0.84994 0.45502 0.0
C1967 C 0.10219 0.86558 0.44614 0.0
C1968 C 0.11357 0.85006 0.47435 0.0
C1969 C 0.10867 0.86576 0.48531 0.0
C1970 C 0.10019 0.88128 0.47639 0.0
C1971 C 0.09708 0.88122 0.45697 0.0
H1972 H 0.61985 0.11969 0.44835 0.0
H1973 H 0.67239 0.09021 0.45509 0.0
H1974 H 0.62029 0.12802 0.48163 0.0
H1975 H 0.6726 0.09789 0.48846 0.0
H1976 H 0.67882 0.13635 0.53999 0.0
H1977 H 0.67757 0.12458 0.50792 0.0
H1978 H 0.61763 0.1167 0.51303 0.0
H1979 H 0.6188 0.12902 0.5449 0.0
C1980 C 0.63132 0.11473 0.45705 0.0
C1981 C 0.64612 0.1044 0.44918 0.0
C1982 C 0.63156 0.11941 0.47614 0.0
C1983 C 0.64655 0.11372 0.48777 0.0
C1984 C 0.66102 0.10283 0.4799 0.0
C1985 C 0.66084 0.09829 0.4608 0.0
C1986 C 0.6654 0.1319 0.53436 0.0
C1987 C 0.6489 0.13372 0.54501 0.0
C1988 C 0.66468 0.12507 0.51596 0.0
C1989 C 0.64746 0.11977 0.50779 0.0
C1990 C 0.63107 0.12099 0.51871 0.0
C1991 C 0.63177 0.12794 0.53705 0.0
H1992 H 0.42329 0.66412 0.45067 0.0
H1993 H 0.38953 0.61445 0.44271 0.0
H1994 H 0.41724 0.66297 0.48436 0.0
H1995 H 0.38272 0.61366 0.47627 0.0
H1996 H 0.38094 0.6701 0.53714 0.0
H1997 H 0.39218 0.66923 0.50498 0.0
H1998 H 0.39388 0.60854 0.50715 0.0
H1999 H 0.38189 0.60942 0.53918 0.0
C2000 C 0.41463 0.6529 0.45618 0.0
C2001 C 0.40682 0.63941 0.44413 0.0
C2002 C 0.41102 0.65231 0.47548 0.0
C2003 C 0.39933 0.63833 0.48311 0.0
C2004 C 0.39199 0.62449 0.47101 0.0
C2005 C 0.39578 0.62498 0.45174 0.0
C2006 C 0.38394 0.65656 0.53087 0.0
C2007 C 0.38041 0.63982 0.54073 0.0
C2008 C 0.39049 0.65605 0.51239 0.0
C2009 C 0.39389 0.6388 0.50333 0.0
C2010 C 0.39108 0.62208 0.5135 0.0
C2011 C 0.38433 0.62258 0.53194 0.0
H2012 H 0.83965 0.42712 0.45552 0.0
H2013 H 0.88477 0.38789 0.44564 0.0
H2014 H 0.84112 0.42044 0.48912 0.0
H2015 H 0.88588 0.38062 0.47912 0.0
H2016 H 0.89463 0.38208 0.54167 0.0
H2017 H 0.8942 0.39236 0.50909 0.0
H2018 H 0.83369 0.39649 0.51116 0.0
H2019 H 0.83422 0.38681 0.54403 0.0
C2020 C 0.8499 0.41706 0.46058 0.0
C2021 C 0.86213 0.40804 0.44802 0.0
C2022 C 0.85066 0.41312 0.47982 0.0
C2023 C 0.86358 0.39993 0.48693 0.0
C2024 C 0.87594 0.39107 0.47427 0.0
C2025 C 0.87527 0.39515 0.45505 0.0
C2026 C 0.88123 0.38537 0.53523 0.0
C2027 C 0.86445 0.38358 0.54545 0.0
C2028 C 0.88097 0.39113 0.51647 0.0
C2029 C 0.8639 0.39508 0.50734 0.0
C2030 C 0.84713 0.39379 0.51774 0.0
C2031 C 0.84741 0.38818 0.5366 0.0
H2032 H 0.96834 0.12727 0.67931 0.0
H2033 H 0.96638 0.12794 0.61869 0.0
H2034 H 1.00066 0.11624 0.67821 0.0
H2035 H 0.99843 0.11609 0.6175 0.0
H2036 H 0.06256 0.1193 0.62246 0.0
H2037 H 0.02917 0.12673 0.62248 0.0
H2038 H 0.02159 0.09165 0.67152 0.0
H2039 H 0.0552 0.08503 0.67189 0.0
C2040 C 0.97469 0.12467 0.66574 0.0
C2041 C 0.96483 0.12858 0.64909 0.0
C2042 C 0.99325 0.11826 0.66508 0.0
C2043 C 1.00232 0.11534 0.64775 0.0
C2044 C 0.99212 0.11856 0.63111 0.0
C2045 C 0.97366 0.12522 0.63178 0.0
C2046 C 0.05368 0.11307 0.63312 0.0
C2047 C 0.06143 0.10167 0.64721 0.0
C2048 C 0.03449 0.11722 0.6331 0.0
C2049 C 0.02256 0.10986 0.64706 0.0
C2050 C 0.03033 0.0979 0.66077 0.0
C2051 C 0.04957 0.09395 0.66091 0.0
H2052 H 0.39424 0.96786 0.67165 0.0
H2053 H 0.38595 0.9724 0.61164 0.0
H2054 H 0.40469 1.00043 0.67258 0.0
H2055 H 0.39575 1.00503 0.6127 0.0
H2056 H 0.42439 0.06179 0.61872 0.0
H2057 H 0.42011 0.02766 0.61763 0.0
H2058 H 0.38928 0.03009 0.66986 0.0
H2059 H 0.39409 0.06388 0.67114 0.0
C2060 C 0.39485 0.97569 0.65862 0.0
C2061 C 0.38907 0.9675 0.64161 0.0
C2062 C 0.40069 0.99444 0.65917 0.0
C2063 C 0.40077 1.00548 0.64276 0.0
C2064 C 0.396 0.99696 0.6256 0.0
C2065 C 0.39028 0.9782 0.62502 0.0
C2066 C 0.41676 0.05493 0.62995 0.0
C2067 C 0.40953 0.06542 0.64498 0.0
C2068 C 0.41426 0.03542 0.62933 0.0
C2069 C 0.40443 0.02606 0.64372 0.0
C2070 C 0.39727 0.0367 0.65875 0.0
C2071 C 0.39985 0.05612 0.65939 0.0
H2072 H 0.44484 0.40099 0.62391 0.0
H2073 H 0.44804 0.42065 0.68117 0.0
H2074 H 0.47881 0.39702 0.62335 0.0
H2075 H 0.4822 0.41718 0.68053 0.0
H2076 H 0.54083 0.40257 0.62147 0.0
H2077 H 0.50836 0.41301 0.62332 0.0
H2078 H 0.50504 0.39231 0.68028 0.0
H2079 H 0.53766 0.3823 0.67863 0.0
C2080 C 0.45288 0.4047 0.6363 0.0
C2081 C 0.44384 0.41105 0.6526 0.0
C2082 C 0.47238 0.40257 0.63595 0.0
C2083 C 0.48331 0.40683 0.65189 0.0
C2084 C 0.47422 0.41358 0.66808 0.0
C2085 C 0.45468 0.41565 0.66843 0.0
C2086 C 0.53331 0.40056 0.63453 0.0
C2087 C 0.54186 0.39141 0.64983 0.0
C2088 C 0.51461 0.40642 0.63554 0.0
C2089 C 0.50393 0.40319 0.65182 0.0
C2090 C 0.51283 0.39513 0.66754 0.0
C2091 C 0.5316 0.38936 0.66658 0.0
H2092 H 0.12308 0.54435 0.67184 0.0
H2093 H 0.11227 0.54724 0.61222 0.0
H2094 H 0.11148 0.51207 0.67234 0.0
H2095 H 0.10001 0.51537 0.61278 0.0
H2096 H 0.10719 0.4515 0.61538 0.0
H2097 H 0.11322 0.48512 0.61521 0.0
H2098 H 0.0861 0.49033 0.66928 0.0
H2099 H 0.08069 0.45638 0.66963 0.0
C2100 C 0.11777 0.53825 0.65894 0.0
C2101 C 0.11877 0.54825 0.64196 0.0
C2102 C 0.11107 0.51974 0.65921 0.0
C2103 C 0.10504 0.51094 0.64253 0.0
C2104 C 0.10499 0.52145 0.6258 0.0
C2105 C 0.1119 0.5398 0.6255 0.0
C2106 C 0.10231 0.45987 0.62712 0.0
C2107 C 0.0935 0.45135 0.64252 0.0
C2108 C 0.10567 0.47921 0.627 0.0
C2109 C 0.10015 0.49055 0.64224 0.0
C2110 C 0.09078 0.48203 0.65742 0.0
C2111 C 0.08753 0.46262 0.65757 0.0
H2112 H 0.0627 0.39832 0.89012 0.0
H2113 H 0.05599 0.42584 0.83652 0.0
H2114 H 0.02891 0.39312 0.8917 0.0
H2115 H 0.02208 0.42147 0.83838 0.0
H2116 H 0.96884 0.38506 0.83532 0.0
H2117 H 1.00088 0.39642 0.83509 0.0
H2118 H 0.99828 0.40554 0.89507 0.0
H2119 H 0.96629 0.3934 0.89541 0.0
C2120 C 0.05391 0.4036 0.87886 0.0
C2121 C 0.06192 0.41232 0.86313 0.0
C2122 C 0.0345 0.40075 0.8798 0.0
C2123 C 0.02268 0.40675 0.86509 0.0
C2124 C 0.03073 0.4163 0.84978 0.0
C2125 C 0.05015 0.41893 0.84875 0.0
C2126 C 0.97493 0.38978 0.84845 0.0
C2127 C 0.96498 0.38816 0.86541 0.0
C2128 C 0.99338 0.39641 0.8483 0.0
C2129 C 1.00233 0.4018 0.86509 0.0
C2130 C 0.992 0.40115 0.88192 0.0
C2131 C 0.97358 0.39433 0.8821 0.0
H2132 H 0.13836 0.97091 0.90061 0.0
H2133 H 0.12603 0.96657 0.84128 0.0
H2134 H 0.12967 1.00394 0.9 0.0
H2135 H 0.11682 0.99952 0.84083 0.0
H2136 H 0.12777 0.06278 0.84138 0.0
H2137 H 0.13303 0.02901 0.84269 0.0
H2138 H 0.10484 0.0267 0.89638 0.0
H2139 H 0.10004 0.06075 0.89522 0.0
C2140 C 0.13344 0.97688 0.8875 0.0
C2141 C 0.13305 0.96607 0.87095 0.0
C2142 C 0.12838 0.99585 0.88718 0.0
C2143 C 0.12274 1.00447 0.87033 0.0
C2144 C 0.12149 0.99343 0.85398 0.0
C2145 C 0.12662 0.97447 0.85427 0.0
C2146 C 0.12273 0.05505 0.85348 0.0
C2147 C 0.11356 0.06434 0.86823 0.0
C2148 C 0.12557 0.03566 0.85415 0.0
C2149 C 0.11922 0.02507 0.86957 0.0
C2150 C 0.11004 0.03444 0.88437 0.0
C2151 C 0.10726 0.05391 0.88371 0.0
H2152 H 0.45547 0.11485 0.83791 0.0
H2153 H 0.45601 0.08944 0.89296 0.0
H2154 H 0.48921 0.11978 0.83975 0.0
H2155 H 0.49005 0.09368 0.89462 0.0
H2156 H 0.54525 0.12711 0.89978 0.0
H2157 H 0.51256 0.1179 0.89821 0.0
H2158 H 0.51896 0.10477 0.83929 0.0
H2159 H 0.55167 0.11473 0.84068 0.0
C2160 C 0.46289 0.11018 0.85037 0.0
C2161 C 0.45317 0.10187 0.86535 0.0
C2162 C 0.48228 0.11282 0.85135 0.0
C2163 C 0.49245 0.10703 0.86728 0.0
C2164 C 0.48267 0.09851 0.88222 0.0
C2165 C 0.46319 0.09603 0.88128 0.0
C2166 C 0.53983 0.122 0.88651 0.0
C2167 C 0.55112 0.12182 0.87031 0.0
C2168 C 0.52101 0.11662 0.88565 0.0
C2169 C 0.51299 0.11075 0.86859 0.0
C2170 C 0.52455 0.10961 0.85259 0.0
C2171 C 0.54337 0.11515 0.85341 0.0
H2172 H 0.38948 0.54046 0.89394 0.0
H2173 H 0.38122 0.53687 0.83389 0.0
H2174 H 0.40052 0.50806 0.89437 0.0
H2175 H 0.3916 0.50437 0.83441 0.0
H2176 H 0.42211 0.44926 0.83805 0.0
H2177 H 0.41695 0.48315 0.83863 0.0
H2178 H 0.38723 0.47755 0.89127 0.0
H2179 H 0.39309 0.44378 0.89094 0.0
C2180 C 0.39013 0.53281 0.88081 0.0
C2181 C 0.38441 0.54126 0.86389 0.0
C2182 C 0.39634 0.51417 0.88107 0.0
C2183 C 0.3968 0.50349 0.86446 0.0
C2184 C 0.39169 0.51219 0.84745 0.0
C2185 C 0.38565 0.53086 0.84716 0.0
C2186 C 0.41465 0.45536 0.84982 0.0
C2187 C 0.40793 0.44396 0.86442 0.0
C2188 C 0.41159 0.47475 0.85011 0.0
C2189 C 0.40156 0.48312 0.86493 0.0
C2190 C 0.39524 0.47167 0.87977 0.0
C2191 C 0.39847 0.4523 0.87954 0.0
H2192 H 0.61163 0.97509 0.12979 0.0
H2193 H 0.67154 0.97091 0.12102 0.0
H2194 H 0.61295 0.00861 0.12301 0.0
H2195 H 0.67274 1.00437 0.11395 0.0
H2196 H 0.67145 0.06693 0.12919 0.0
H2197 H 0.66939 0.03293 0.13265 0.0
H2198 H 0.61896 0.03256 0.09886 0.0
H2199 H 0.62094 0.06678 0.09563 0.0
C2200 C 0.62503 0.98121 0.12607 0.0
C2201 C 0.6415 0.97026 0.12607 0.0
C2202 C 0.62577 1.00046 0.12214 0.0
C2203 C 0.64298 0.00922 0.11816 0.0
C2204 C 0.6593 0.99811 0.11731 0.0
C2205 C 0.65857 0.97887 0.1212 0.0
C2206 C 0.6599 0.05959 0.12254 0.0
C2207 C 0.64633 0.06947 0.11217 0.0
C2208 C 0.65881 0.04008 0.12438 0.0
C2209 C 0.64411 0.02998 0.11589 0.0
C2210 C 0.63041 0.03993 0.10565 0.0
C2211 C 0.63154 0.05949 0.10377 0.0
H2212 H 0.61439 0.45397 0.40627 0.0
H2213 H 0.66952 0.45546 0.43145 0.0
H2214 H 0.61585 0.48772 0.40083 0.0
H2215 H 0.67096 0.48945 0.42622 0.0
H2216 H 0.67477 0.54116 0.38488 0.0
H2217 H 0.67398 0.5097 0.39838 0.0
H2218 H 0.61651 0.51851 0.41555 0.0
H2219 H 0.61714 0.5498 0.40182 0.0
C2220 C 0.62667 0.46161 0.41098 0.0
C2221 C 0.64185 0.45213 0.41922 0.0
C2222 C 0.62749 0.48098 0.40796 0.0
C2223 C 0.64355 0.49131 0.41307 0.0
C2224 C 0.65847 0.48188 0.42197 0.0
C2225 C 0.6576 0.46247 0.42507 0.0
C2226 C 0.6621 0.53658 0.3919 0.0
C2227 C 0.64593 0.54794 0.39198 0.0
C2228 C 0.66166 0.51852 0.39969 0.0
C2229 C 0.64507 0.51147 0.40777 0.0
C2230 C 0.62937 0.52336 0.40906 0.0
C2231 C 0.62978 0.54135 0.40124 0.0
H2232 H 0.06373 0.6215 0.38744 0.0
H2233 H 0.05575 0.67127 0.42109 0.0
H2234 H 0.03017 0.62058 0.38076 0.0
H2235 H 0.02204 0.67001 0.41515 0.0
H2236 H 0.96789 0.67565 0.38014 0.0
H2237 H 1.00051 0.67572 0.39049 0.0
H2238 H 0.99991 0.615 0.39286 0.0
H2239 H 0.96759 0.61498 0.38177 0.0
C2240 C 0.0547 0.63203 0.39369 0.0
C2241 C 0.06229 0.64648 0.40471 0.0
C2242 C 0.03543 0.63149 0.38996 0.0
C2243 C 0.02331 0.64527 0.39736 0.0
C2244 C 0.03094 0.65937 0.40892 0.0
C2245 C 0.05024 0.66002 0.41247 0.0
C2246 C 0.97468 0.66234 0.3831 0.0
C2247 C 0.96522 0.64531 0.38002 0.0
C2248 C 0.99339 0.66236 0.38911 0.0
C2249 C 1.00297 0.64534 0.39239 0.0
C2250 C 0.99317 0.62836 0.39006 0.0
C2251 C 0.97457 0.62835 0.38383 0.0
H2252 H 0.88846 0.05945 0.41155 0.0
H2253 H 0.83021 0.05921 0.42816 0.0
H2254 H 0.88727 0.02555 0.40673 0.0
H2255 H 0.82905 0.02517 0.42377 0.0
H2256 H 0.82962 0.97153 0.38577 0.0
H2257 H 0.82934 1.00364 0.3975 0.0
H2258 H 0.88434 0.99532 0.42177 0.0
H2259 H 0.88482 0.96334 0.40972 0.0
C2260 C 0.87549 0.05207 0.41446 0.0
C2261 C 0.85942 0.06193 0.42013 0.0
C2262 C 0.87481 0.03261 0.41183 0.0
C2263 C 0.85804 0.02259 0.41486 0.0
C2264 C 0.84211 0.03246 0.4211 0.0
C2265 C 0.84281 0.05193 0.4237 0.0
C2266 C 0.84147 0.97636 0.394 0.0
C2267 C 0.85735 0.96488 0.39657 0.0
C2268 C 0.84131 0.99483 0.40075 0.0
C2269 C 0.85697 1.00219 0.4103 0.0
C2270 C 0.87224 0.99025 0.41407 0.0
C2271 C 0.87244 0.97184 0.40726 0.0
H2272 H 0.45336 0.8884 0.40059 0.0
H2273 H 0.45871 0.8352 0.42922 0.0
H2274 H 0.48692 0.8886 0.39454 0.0
H2275 H 0.49262 0.83557 0.42366 0.0
H2276 H 0.54501 0.83185 0.38417 0.0
H2277 H 0.51336 0.8317 0.39719 0.0
H2278 H 0.51746 0.89135 0.40782 0.0
H2279 H 0.54878 0.89158 0.39423 0.0
C2280 C 0.46182 0.87691 0.40591 0.0
C2281 C 0.45347 0.86175 0.41529 0.0
C2282 C 0.48111 0.87706 0.40256 0.0
C2283 C 0.49253 0.86208 0.40861 0.0
C2284 C 0.48421 0.84721 0.41861 0.0
C2285 C 0.46484 0.84705 0.42191 0.0
C2286 C 0.53927 0.84485 0.38961 0.0
C2287 C 0.54928 0.86177 0.38795 0.0
C2288 C 0.52113 0.84476 0.39714 0.0
C2289 C 0.51273 0.86158 0.40331 0.0
C2290 C 0.5233 0.87824 0.40278 0.0
C2291 C 0.54131 0.87835 0.39509 0.0
H2292 H 0.83651 0.53945 0.12416 0.0
H2293 H 0.89718 0.54094 0.12397 0.0
H2294 H 0.83725 0.50721 0.11318 0.0
H2295 H 0.89793 0.50876 0.11228 0.0
H2296 H 0.89041 0.44427 0.11836 0.0
H2297 H 0.89208 0.47804 0.12417 0.0
H2298 H 0.84385 0.48654 0.08817 0.0
H2299 H 0.84178 0.45276 0.08315 0.0
C2300 C 0.85003 0.53305 0.12136 0.0
C2301 C 0.86679 0.54275 0.12505 0.0
C2302 C 0.85046 0.51452 0.11496 0.0
C2303 C 0.86767 0.50531 0.11189 0.0
C2304 C 0.88444 0.51531 0.11481 0.0
C2305 C 0.884 0.5338 0.12139 0.0
C2306 C 0.88034 0.45344 0.11156 0.0
C2307 C 0.86586 0.44599 0.10049 0.0
C2308 C 0.88133 0.4728 0.11478 0.0
C2309 C 0.86798 0.48504 0.10679 0.0
C2310 C 0.8541 0.47752 0.09491 0.0
C2311 C 0.85298 0.45819 0.09192 0.0
H2312 H 0.03772 0.85881 0.08051 0.0
H2313 H 0.0552 0.8321 0.13213 0.0
H2314 H 1.00497 0.85752 0.09092 0.0
H2315 H 0.02251 0.83125 0.14268 0.0
H2316 H 0.97121 0.87029 0.16142 0.0
H2317 H 1.00239 0.86282 0.14947 0.0
H2318 H 0.9776 0.83275 0.10303 0.0
H2319 H 0.94608 0.83981 0.11537 0.0
C2320 C 0.0345 0.8523 0.09388 0.0
C2321 C 0.04893 0.84569 0.1056 0.0
C2322 C 0.01579 0.8515 0.09978 0.0
C2323 C 0.01133 0.84437 0.11761 0.0
C2324 C 0.02567 0.83682 0.12888 0.0
C2325 C 0.04432 0.83729 0.12283 0.0
C2326 C 0.97238 0.862 0.14871 0.0
C2327 C 0.95628 0.85578 0.13918 0.0
C2328 C 0.99021 0.85758 0.142 0.0
C2329 C 0.99232 0.84717 0.1254 0.0
C2330 C 0.97625 0.84076 0.11589 0.0
C2331 C 0.95832 0.84479 0.12291 0.0
H2332 H 0.54698 0.67601 0.12412 0.0
H2333 H 0.54158 0.61661 0.13553 0.0
H2334 H 0.51453 0.67672 0.11292 0.0
H2335 H 0.50922 0.61741 0.12465 0.0
H2336 H 0.45469 0.62273 0.09121 0.0
H2337 H 0.48856 0.62199 0.09735 0.0
H2338 H 0.48393 0.67383 0.12859 0.0
H2339 H 0.45033 0.67463 0.12228 0.0
C2340 C 0.53898 0.66307 0.12401 0.0
C2341 C 0.54681 0.64629 0.13086 0.0
C2342 C 0.52036 0.66351 0.11773 0.0
C2343 C 0.50926 0.64715 0.11805 0.0
C2344 C 0.51741 0.63022 0.12408 0.0
C2345 C 0.53594 0.62981 0.13044 0.0
C2346 C 0.46098 0.63393 0.09937 0.0
C2347 C 0.44993 0.64868 0.10635 0.0
C2348 C 0.48033 0.63352 0.10289 0.0
C2349 C 0.48894 0.64792 0.11337 0.0
C2350 C 0.47781 0.66271 0.1202 0.0
C2351 C 0.45852 0.66306 0.11675 0.0
H2352 H 0.8832 0.33565 0.04253 0.0
H2353 H 0.87448 0.39562 0.03855 0.0
H2354 H 0.89309 0.33503 0.0097 0.0
H2355 H 0.88385 0.3949 0.00577 0.0
H2356 H 0.91564 0.39001 0.95049 0.0
H2357 H 0.90954 0.3904 0.98432 0.0
H2358 H 0.87865 0.3384 0.9792 0.0
H2359 H 0.88515 0.33786 0.9456 0.0
C2360 C 0.88354 0.34872 0.03473 0.0
C2361 C 0.87798 0.36567 0.04321 0.0
C2362 C 0.88905 0.34834 0.01585 0.0
C2363 C 0.88916 0.36491 1.005 0.0
C2364 C 0.88416 0.38191 0.01369 0.0
C2365 C 0.87866 0.38229 0.03252 0.0
C2366 C 0.90757 0.37869 0.95665 0.0
C2367 C 0.90082 0.36395 0.94544 0.0
C2368 C 0.90402 0.37891 0.97601 0.0
C2369 C 0.89363 0.36439 0.98454 0.0
C2370 C 0.88696 0.34964 0.97322 0.0
C2371 C 0.89053 0.34942 0.95391 0.0
H2372 H 0.15837 0.88886 0.04851 0.0
H2373 H 0.10133 0.87237 0.03662 0.0
H2374 H 0.16389 0.8938 0.015 0.0
H2375 H 0.10683 0.87673 1.0032 0.0
H2376 H 0.11592 0.90709 0.94753 0.0
H2377 H 0.1109 0.90087 0.98087 0.0
H2378 H 0.16741 0.87906 0.98535 0.0
H2379 H 0.17256 0.88605 0.95222 0.0
C2380 C 0.14716 0.88595 0.03868 0.0
C2381 C 0.12949 0.88021 0.04516 0.0
C2382 C 0.15026 0.88877 0.01947 0.0
C2383 C 0.13576 0.88577 0.00631 0.0
C2384 C 0.11821 0.8796 0.01288 0.0
C2385 C 0.11508 0.877 0.03206 0.0
C2386 C 0.12721 0.90093 0.95568 0.0
C2387 C 0.14461 0.89709 0.94735 0.0
C2388 C 0.12433 0.89724 0.97477 0.0
C2389 C 0.13875 0.88943 0.98589 0.0
C2390 C 0.15609 0.88536 0.97737 0.0
C2391 C 0.159 0.88923 0.95834 0.0
H2392 H 0.62893 0.18068 0.04744 0.0
H2393 H 0.62681 0.11995 0.04778 0.0
H2394 H 0.61833 0.18078 0.01487 0.0
H2395 H 0.61669 0.1201 0.0152 0.0
H2396 H 0.58876 0.12655 0.95819 0.0
H2397 H 0.5925 0.12813 0.99238 0.0
H2398 H 0.6337 0.17218 0.9857 0.0
H2399 H 0.62968 0.1708 0.95179 0.0
C2400 C 0.62595 0.16736 0.04071 0.0
C2401 C 0.62895 0.1503 0.05021 0.0
C2402 C 0.62001 0.16742 0.02198 0.0
C2403 C 0.61692 0.15044 0.01235 0.0
C2404 C 0.61883 0.13344 0.0222 0.0
C2405 C 0.62475 0.13337 0.0409 0.0
C2406 C 0.59852 0.13661 0.96412 0.0
C2407 C 0.609 0.14849 0.95241 0.0
C2408 C 0.60069 0.13751 0.98365 0.0
C2409 C 0.61336 0.15033 0.99178 0.0
C2410 C 0.62358 0.16238 0.97996 0.0
C2411 C 0.62142 0.16147 0.96051 0.0
H2412 H 0.34439 0.62751 0.94192 0.0
H2413 H 0.39359 0.59229 0.94607 0.0
H2414 H 0.34586 0.63368 0.97552 0.0
H2415 H 0.39496 0.59824 0.97997 0.0
H2416 H 0.40197 0.63328 0.03502 0.0
H2417 H 0.40125 0.624 1.0021 0.0
H2418 H 0.34106 0.61738 1.00523 0.0
H2419 H 0.34168 0.627 0.03805 0.0
C2420 C 0.35553 0.62108 0.95006 0.0
C2421 C 0.36889 0.60945 0.94142 0.0
C2422 C 0.35628 0.62446 0.96935 0.0
C2423 C 0.37041 0.61629 0.98047 0.0
C2424 C 0.38395 0.60481 0.97177 0.0
C2425 C 0.38317 0.60138 0.9524 0.0
C2426 C 0.38859 0.62962 0.02878 0.0
C2427 C 0.37186 0.63103 0.03919 0.0
C2428 C 0.38821 0.62423 0.0099 0.0
C2429 C 0.37108 0.62015 1.00098 0.0
C2430 C 0.35445 0.62077 0.0116 0.0
C2431 C 0.35483 0.62614 0.03048 0.0
H2432 H 0.88665 0.12389 0.57297 0.0
H2433 H 0.9215 0.17268 0.56441 0.0
H2434 H 0.88029 0.12243 0.53937 0.0
H2435 H 0.91591 0.17084 0.53062 0.0
H2436 H 0.88356 0.1749 0.47468 0.0
H2437 H 0.89257 0.17612 0.5077 0.0
H2438 H 0.89288 0.11539 0.50979 0.0
H2439 H 0.88308 0.11428 0.47706 0.0
C2440 C 0.89316 0.13414 0.56382 0.0
C2441 C 0.90453 0.1484 0.57127 0.0
C2442 C 0.88964 0.13327 0.54451 0.0
C2443 C 0.8976 0.1465 0.53213 0.0
C2444 C 0.90927 0.16058 0.53966 0.0
C2445 C 0.91261 0.16157 0.55902 0.0
C2446 C 0.88578 0.16182 0.48215 0.0
C2447 C 0.88252 0.1445 0.47328 0.0
C2448 C 0.89101 0.1625 0.50111 0.0
C2449 C 0.89332 0.14584 0.51159 0.0
C2450 C 0.8908 0.12852 0.50239 0.0
C2451 C 0.88533 0.12787 0.48354 0.0
H2452 H 0.33526 0.88339 0.46537 0.0
H2453 H 0.39557 0.89035 0.46655 0.0
H2454 H 0.33346 0.89504 0.49751 0.0
H2455 H 0.39381 0.90116 0.4987 0.0
H2456 H 0.38554 0.92761 0.55539 0.0
H2457 H 0.3847 0.92381 0.52126 0.0
H2458 H 0.34138 0.88167 0.52716 0.0
H2459 H 0.34181 0.88606 0.56104 0.0
C2460 C 0.3481 0.88767 0.47232 0.0
C2461 C 0.36558 0.88562 0.46341 0.0
C2462 C 0.34708 0.89417 0.49083 0.0
C2463 C 0.36353 0.89868 0.50085 0.0
C2464 C 0.38084 0.89792 0.49146 0.0
C2465 C 0.38184 0.89156 0.47296 0.0
C2466 C 0.37583 0.9176 0.5493 0.0
C2467 C 0.36384 0.90702 0.56078 0.0
C2468 C 0.37533 0.91541 0.52977 0.0
C2469 C 0.36294 0.90246 0.5214 0.0
C2470 C 0.35083 0.89205 0.53302 0.0
C2471 C 0.35123 0.89437 0.55247 0.0
H2472 H 0.58097 0.33692 0.55749 0.0
H2473 H 0.59719 0.39533 0.55719 0.0
H2474 H 0.58714 0.33499 0.52372 0.0
H2475 H 0.60355 0.39343 0.52361 0.0
H2476 H 0.60301 0.3894 0.46138 0.0
H2477 H 0.58943 0.38926 0.49269 0.0
H2478 H 0.61544 0.33557 0.50384 0.0
H2479 H 0.62891 0.33554 0.47236 0.0
C2480 C 0.58558 0.34941 0.55013 0.0
C2481 C 0.58862 0.36628 0.55992 0.0
C2482 C 0.58924 0.34827 0.53084 0.0
C2483 C 0.59588 0.36403 0.52095 0.0
C2484 C 0.5982 0.38108 0.5307 0.0
C2485 C 0.59464 0.38218 0.54997 0.0
C2486 C 0.60562 0.37738 0.47035 0.0
C2487 C 0.6173 0.36259 0.46437 0.0
C2488 C 0.59788 0.37737 0.48837 0.0
C2489 C 0.6016 0.36258 0.50089 0.0
C2490 C 0.61222 0.34716 0.49452 0.0
C2491 C 0.61997 0.34716 0.47644 0.0
H2492 H 0.11361 0.62386 0.46139 0.0
H2493 H 0.17337 0.63286 0.46628 0.0
H2494 H 0.11287 0.61123 0.49312 0.0
H2495 H 0.17256 0.62088 0.49838 0.0
H2496 H 0.16783 0.58813 0.55259 0.0
H2497 H 0.16833 0.59485 0.51894 0.0
H2498 H 0.11483 0.62316 0.52397 0.0
H2499 H 0.11412 0.61577 0.55737 0.0
C2500 C 0.12663 0.62306 0.46924 0.0
C2501 C 0.14354 0.62946 0.46136 0.0
C2502 C 0.12618 0.61594 0.48751 0.0
C2503 C 0.14259 0.61525 0.49849 0.0
C2504 C 0.15966 0.62099 0.49032 0.0
C2505 C 0.16014 0.62793 0.47191 0.0
C2506 C 0.15607 0.59554 0.54638 0.0
C2507 C 0.14092 0.60142 0.55753 0.0
C2508 C 0.15642 0.59954 0.52714 0.0
C2509 C 0.14167 0.60964 0.51867 0.0
C2510 C 0.1263 0.61509 0.52986 0.0
C2511 C 0.12591 0.61095 0.54905 0.0
H2512 H 0.94913 0.90666 0.39847 0.0
H2513 H 0.95113 0.93654 0.34575 0.0
H2514 H 0.98289 0.90176 0.39715 0.0
H2515 H 0.98518 0.93208 0.34457 0.0
H2516 H 0.03691 0.89229 0.33679 0.0
H2517 H 0.00554 0.90559 0.33893 0.0
H2518 H 0.01365 0.91521 0.39832 0.0
H2519 H 0.04487 0.90141 0.39631 0.0
C2520 C 0.9569 0.91255 0.3868 0.0
C2521 C 0.94754 0.92186 0.37216 0.0
C2522 C 0.97629 0.90985 0.38607 0.0
C2523 C 0.98679 0.91646 0.3707 0.0
C2524 C 0.97749 0.92659 0.35648 0.0
C2525 C 0.95803 0.92926 0.3572 0.0
C2526 C 0.03219 0.89758 0.35025 0.0
C2527 C 0.04333 0.89551 0.36643 0.0
C2528 C 0.01417 0.9053 0.35146 0.0
C2529 C 0.00695 0.91125 0.36886 0.0
C2530 C 0.01862 0.91038 0.38478 0.0
C2531 C 0.03657 0.90255 0.3836 0.0
H2532 H 0.63059 0.03804 0.40091 0.0
H2533 H 0.62163 0.04123 0.34096 0.0
H2534 H 0.62092 1.00522 0.40062 0.0
H2535 H 0.61245 0.00828 0.34059 0.0
H2536 H 0.58347 0.95195 0.34758 0.0
H2537 H 0.58916 0.98574 0.34966 0.0
H2538 H 0.63311 0.97562 0.39037 0.0
H2539 H 0.62698 0.94195 0.38861 0.0
C2540 C 0.62646 0.03178 0.38767 0.0
C2541 C 0.62693 0.0423 0.37096 0.0
C2542 C 0.62105 0.01289 0.38749 0.0
C2543 C 0.61604 1.00398 0.37056 0.0
C2544 C 0.61599 0.01468 0.35392 0.0
C2545 C 0.62133 0.03361 0.35412 0.0
C2546 C 0.59421 0.95701 0.3571 0.0
C2547 C 0.60478 0.94436 0.36794 0.0
C2548 C 0.59758 0.97636 0.3582 0.0
C2549 C 0.61165 0.98348 0.37013 0.0
C2550 C 0.62198 0.97074 0.38123 0.0
C2551 C 0.61855 0.95141 0.38016 0.0
H2552 H 0.55884 0.61289 0.3904 0.0
H2553 H 0.55482 0.58138 0.33877 0.0
H2554 H 0.52518 0.61842 0.38976 0.0
H2555 H 0.5208 0.58641 0.33833 0.0
H2556 H 0.46638 0.62291 0.33253 0.0
H2557 H 0.49878 0.61167 0.33304 0.0
H2558 H 0.49525 0.60425 0.3932 0.0
H2559 H 0.46322 0.61607 0.39272 0.0
C2560 C 0.55066 0.60686 0.37907 0.0
C2561 C 0.55941 0.59673 0.36464 0.0
C2562 C 0.53131 0.60992 0.37874 0.0
C2563 C 0.52019 0.60282 0.364 0.0
C2564 C 0.52894 0.59225 0.34977 0.0
C2565 C 0.54839 0.58925 0.35009 0.0
C2566 C 0.47245 0.61857 0.3458 0.0
C2567 C 0.46233 0.62058 0.36261 0.0
C2568 C 0.49102 0.61208 0.3461 0.0
C2569 C 0.49976 0.60731 0.36321 0.0
C2570 C 0.48916 0.60825 0.37984 0.0
C2571 C 0.47074 0.61492 0.37955 0.0
H2572 H 0.89788 0.56389 0.39056 0.0
H2573 H 0.91993 0.55818 0.33442 0.0
H2574 H 0.89126 0.53027 0.39141 0.0
H2575 H 0.91395 0.52443 0.33541 0.0
H2576 H 0.87555 0.4722 0.33468 0.0
H2577 H 0.88754 0.50411 0.33415 0.0
H2578 H 0.90362 0.49914 0.39249 0.0
H2579 H 0.89108 0.46732 0.3932 0.0
C2580 C 0.90162 0.55535 0.37853 0.0
C2581 C 0.9093 0.56362 0.36239 0.0
C2582 C 0.89794 0.53604 0.37903 0.0
C2583 C 0.90198 0.52456 0.36343 0.0
C2584 C 0.91034 0.53284 0.34755 0.0
C2585 C 0.91389 0.55216 0.34702 0.0
C2586 C 0.88191 0.47775 0.34735 0.0
C2587 C 0.88218 0.46715 0.36403 0.0
C2588 C 0.88887 0.49611 0.34702 0.0
C2589 C 0.89643 0.50435 0.36333 0.0
C2590 C 0.89756 0.49342 0.37977 0.0
C2591 C 0.89048 0.47508 0.38013 0.0
H2592 H 0.03703 0.6314 0.11471 0.0
H2593 H 0.04039 0.63051 0.17535 0.0
H2594 H 1.00489 0.62032 0.11623 0.0
H2595 H 0.0083 0.61877 0.17682 0.0
H2596 H 0.94427 0.62533 0.17263 0.0
H2597 H 0.97782 0.63177 0.17181 0.0
H2598 H 0.98347 0.59566 0.12331 0.0
H2599 H 0.94965 0.58975 0.12386 0.0
C2600 C 0.0311 0.62844 0.12839 0.0
C2601 C 0.04134 0.63207 0.14492 0.0
C2602 C 0.0126 0.62198 0.12925 0.0
C2603 C 1.00385 0.61885 0.14665 0.0
C2604 C 0.01444 0.62143 0.16317 0.0
C2605 C 0.03294 0.628 0.16232 0.0
C2606 C 0.9527 0.61877 0.1618 0.0
C2607 C 0.94437 0.60714 0.14823 0.0
C2608 C 0.97199 0.62229 0.16144 0.0
C2609 C 0.98346 0.61417 0.14755 0.0
C2610 C 0.97508 0.60233 0.13409 0.0
C2611 C 0.95572 0.59889 0.1344 0.0
H2612 H 0.90602 0.94849 0.12761 0.0
H2613 H 0.92657 0.95089 0.18462 0.0
H2614 H 0.90338 0.98256 0.12702 0.0
H2615 H 0.92453 0.98517 0.18393 0.0
H2616 H 0.88636 0.03852 0.18372 0.0
H2617 H 0.89895 0.00687 0.18466 0.0
H2618 H 0.9181 0.01269 0.12737 0.0
H2619 H 0.90494 0.04425 0.1262 0.0
C2620 C 0.91039 0.95638 0.13986 0.0
C2621 C 0.9163 0.94711 0.15621 0.0
C2622 C 0.90903 0.97594 0.13951 0.0
C2623 C 0.91365 0.98665 0.15548 0.0
C2624 C 0.92058 0.97734 0.17149 0.0
C2625 C 0.92184 0.95774 0.17187 0.0
C2626 C 0.89363 0.03326 0.17144 0.0
C2627 C 0.89431 0.04383 0.15477 0.0
C2628 C 0.90095 0.01507 0.17201 0.0
C2629 C 0.90928 0.00708 0.15598 0.0
C2630 C 0.91137 0.01825 0.13982 0.0
C2631 C 0.90391 0.0364 0.1392 0.0
H2632 H 0.46589 0.89196 0.11648 0.0
H2633 H 0.46626 0.89301 0.17723 0.0
H2634 H 0.49893 0.90019 0.11615 0.0
H2635 H 0.49927 0.90184 0.17681 0.0
H2636 H 0.56159 0.88796 0.16915 0.0
H2637 H 0.52757 0.88489 0.16972 0.0
H2638 H 0.52328 0.92274 0.1224 0.0
H2639 H 0.55754 0.92536 0.12158 0.0
C2640 C 0.47285 0.89441 0.12979 0.0
C2641 C 0.46339 0.89154 0.1469 0.0
C2642 C 0.49187 0.8992 0.12957 0.0
C2643 C 0.50187 0.90135 0.14645 0.0
C2644 C 0.49209 0.89983 0.16354 0.0
C2645 C 0.47308 0.89495 0.16378 0.0
C2646 C 0.55337 0.89558 0.15884 0.0
C2647 C 0.56216 0.90682 0.14526 0.0
C2648 C 0.53385 0.89401 0.15929 0.0
C2649 C 0.52263 0.90373 0.14623 0.0
C2650 C 0.53149 0.91497 0.13259 0.0
C2651 C 0.55108 0.91648 0.1321 0.0
H2652 H 0.60797 0.56387 0.12533 0.0
H2653 H 0.58723 0.56094 0.18219 0.0
H2654 H 0.611 0.52979 0.12462 0.0
H2655 H 0.58973 0.52668 0.18139 0.0
H2656 H 0.62529 0.47154 0.18011 0.0
H2657 H 0.61456 0.50389 0.18166 0.0
H2658 H 0.5949 0.50025 0.12433 0.0
H2659 H 0.60612 0.46798 0.12257 0.0
C2660 C 0.60378 0.55587 0.13758 0.0
C2661 C 0.5975 0.565 0.15385 0.0
C2662 C 0.60535 0.53631 0.13714 0.0
C2663 C 0.60059 0.52544 0.15295 0.0
C2664 C 0.59373 0.53462 0.16905 0.0
C2665 C 0.59223 0.55422 0.1695 0.0
C2666 C 0.61828 0.47744 0.16795 0.0
C2667 C 0.61686 0.4672 0.15111 0.0
C2668 C 0.61207 0.49606 0.16886 0.0
C2669 C 0.60417 0.50482 0.153 0.0
C2670 C 0.60136 0.49408 0.13665 0.0
C2671 C 0.60767 0.47551 0.1357 0.0
H2672 H 0.34829 0.94246 0.88389 0.0
H2673 H 0.39703 0.94557 0.91984 0.0
H2674 H 0.34834 0.97648 0.88061 0.0
H2675 H 0.39683 0.97986 0.91705 0.0
H2676 H 0.40323 0.03672 0.8855 0.0
H2677 H 0.40298 1.00373 0.89402 0.0
H2678 H 0.34243 1.0051 0.89748 0.0
H2679 H 0.34259 0.03808 0.88831 0.0
C2680 C 0.35899 0.95048 0.89115 0.0
C2681 C 0.37272 0.94144 0.90203 0.0
C2682 C 0.35889 0.97 0.88947 0.0
C2683 C 0.37247 0.98095 0.89873 0.0
C2684 C 0.38625 0.97184 0.90963 0.0
C2685 C 0.38639 0.95224 0.91124 0.0
C2686 C 0.38983 0.03013 0.88836 0.0
C2687 C 0.3729 0.04004 0.88593 0.0
C2688 C 0.38972 0.01117 0.89335 0.0
C2689 C 0.37268 1.00167 0.89614 0.0
C2690 C 0.35579 0.0119 0.89499 0.0
C2691 C 0.35589 0.03087 0.88991 0.0
H2692 H 0.39202 0.47206 0.63758 0.0
H2693 H 0.33413 0.46448 0.62097 0.0
H2694 H 0.39066 0.50467 0.62756 0.0
H2695 H 0.33292 0.49715 0.61053 0.0
H2696 H 0.33125 0.56141 0.61878 0.0
H2697 H 0.33278 0.52785 0.62546 0.0
H2698 H 0.38809 0.52544 0.60069 0.0
H2699 H 0.38664 0.55922 0.59436 0.0
C2700 C 0.37905 0.47727 0.63154 0.0
C2701 C 0.36313 0.46566 0.6302 0.0
C2702 C 0.37832 0.49598 0.62569 0.0
C2703 C 0.36166 0.50358 0.61832 0.0
C2704 C 0.3459 0.49181 0.6164 0.0
C2705 C 0.34663 0.47304 0.62225 0.0
C2706 C 0.34373 0.55369 0.61475 0.0
C2707 C 0.35887 0.56289 0.60614 0.0
C2708 C 0.34454 0.53443 0.61842 0.0
C2709 C 0.36053 0.52391 0.61355 0.0
C2710 C 0.37564 0.53315 0.60479 0.0
C2711 C 0.37481 0.55246 0.60111 0.0
H2712 H 0.94697 0.39087 0.61055 0.0
H2713 H 0.94979 0.33364 0.59073 0.0
H2714 H 0.98084 0.3909 0.61543 0.0
H2715 H 0.98383 0.33376 0.59505 0.0
H2716 H 0.04329 0.3914 0.61175 0.0
H2717 H 0.01094 0.39054 0.60076 0.0
H2718 H 0.0059 0.3333 0.62037 0.0
H2719 H 0.03839 0.33396 0.63087 0.0
C2720 C 0.95491 0.37839 0.60697 0.0
C2721 C 0.94578 0.36224 0.60035 0.0
C2722 C 0.97437 0.37842 0.60963 0.0
C2723 C 0.98515 0.36231 0.60565 0.0
C2724 C 0.97598 0.34631 0.59852 0.0
C2725 C 0.95649 0.34627 0.59594 0.0
C2726 C 0.0354 0.37851 0.61344 0.0
C2727 C 0.04346 0.3628 0.62235 0.0
C2728 C 0.01676 0.37807 0.60726 0.0
C2729 C 0.00565 0.36196 0.60993 0.0
C2730 C 0.01403 0.34592 0.61792 0.0
C2731 C 0.03272 0.34631 0.62399 0.0
H2732 H 0.11367 0.03728 0.63498 0.0
H2733 H 0.17272 0.04367 0.62261 0.0
H2734 H 0.11517 1.00453 0.62561 0.0
H2735 H 0.17408 0.01087 0.6127 0.0
H2736 H 0.1745 0.94686 0.62156 0.0
H2737 H 0.17296 0.98052 0.62762 0.0
H2738 H 0.11901 0.98303 0.59986 0.0
H2739 H 0.12042 0.94914 0.59425 0.0
C2740 C 0.12693 0.03181 0.62997 0.0
C2741 C 0.14311 0.04314 0.62966 0.0
C2742 C 0.12776 0.01299 0.62448 0.0
C2743 C 0.14476 1.00499 0.61849 0.0
C2744 C 0.16081 0.01649 0.61754 0.0
C2745 C 0.16 0.03535 0.62307 0.0
C2746 C 0.16231 0.95463 0.61676 0.0
C2747 C 0.14753 0.94542 0.60752 0.0
C2748 C 0.1615 0.97395 0.62007 0.0
C2749 C 0.1459 0.98454 0.61416 0.0
C2750 C 0.13115 0.97528 0.60478 0.0
C2751 C 0.13195 0.9559 0.60151 0.0
H2752 H 0.56813 0.17596 0.62613 0.0
H2753 H 0.56632 0.12696 0.59047 0.0
H2754 H 0.53424 0.17437 0.63022 0.0
H2755 H 0.53217 0.12555 0.59417 0.0
H2756 H 0.47589 0.11702 0.62633 0.0
H2757 H 0.50891 0.11851 0.61789 0.0
H2758 H 0.50508 0.17894 0.6136 0.0
H2759 H 0.47213 0.17755 0.62252 0.0
C2760 C 0.56043 0.16488 0.6191 0.0
C2761 C 0.56983 0.15155 0.60804 0.0
C2762 C 0.54097 0.16407 0.62128 0.0
C2763 C 0.53042 0.14992 0.61239 0.0
C2764 C 0.53988 0.13654 0.60132 0.0
C2765 C 0.55941 0.13735 0.59917 0.0
C2766 C 0.48196 0.13063 0.62329 0.0
C2767 C 0.47132 0.14718 0.62531 0.0
C2768 C 0.50094 0.13147 0.61838 0.0
C2769 C 0.50975 0.14886 0.61533 0.0
C2770 C 0.49884 0.16533 0.61627 0.0
C2771 C 0.47987 0.16451 0.62122 0.0
H2772 H 0.11494 0.47041 0.8734 0.0
H2773 H 0.17468 0.46538 0.88284 0.0
H2774 H 0.11588 0.50282 0.88389 0.0
H2775 H 0.17552 0.49792 0.89383 0.0
H2776 H 0.1728 0.56236 0.88629 0.0
H2777 H 0.17239 0.52879 0.87967 0.0
H2778 H 0.12042 0.52342 0.91048 0.0
H2779 H 0.1207 0.55726 0.91676 0.0
C2780 C 0.12827 0.47613 0.87795 0.0
C2781 C 0.14478 0.46529 0.87714 0.0
C2782 C 0.12876 0.49474 0.88412 0.0
C2783 C 0.14577 0.50304 0.88965 0.0
C2784 C 0.16222 0.49203 0.88942 0.0
C2785 C 0.16172 0.47333 0.88326 0.0
C2786 C 0.1613 0.554 0.89167 0.0
C2787 C 0.14671 0.5624 0.90194 0.0
C2788 C 0.16116 0.53472 0.88804 0.0
C2789 C 0.14642 0.52336 0.89459 0.0
C2790 C 0.1319 0.53179 0.90506 0.0
C2791 C 0.13205 0.55113 0.9087 0.0
H2792 H 0.04597 0.17152 0.89235 0.0
H2793 H 0.04443 0.11131 0.88439 0.0
H2794 H 0.01283 0.17121 0.90071 0.0
H2795 H 0.01122 0.11112 0.89241 0.0
H2796 H 0.95366 0.11692 0.92168 0.0
H2797 H 0.9878 0.11632 0.91726 0.0
H2798 H 0.984 0.16622 0.88287 0.0
H2799 H 0.95016 0.16692 0.88751 0.0
C2800 C 0.03867 0.15818 0.89262 0.0
C2801 C 0.0479 0.14146 0.88758 0.0
C2802 C 0.01961 0.15803 0.89725 0.0
C2803 C 0.00932 0.14117 0.89697 0.0
C2804 C 0.01875 0.12433 0.89286 0.0
C2805 C 0.03781 0.12447 0.8882 0.0
C2806 C 0.96019 0.12767 0.91313 0.0
C2807 C 0.94932 0.14196 0.90494 0.0
C2808 C 0.9797 0.12734 0.91059 0.0
C2809 C 0.98864 0.14134 0.89988 0.0
C2810 C 0.97763 0.15546 0.89153 0.0
C2811 C 0.95821 0.15575 0.89403 0.0
H2812 H 0.46758 0.39617 0.88606 0.0
H2813 H 0.46889 0.33551 0.88759 0.0
H2814 H 0.49981 0.39718 0.89742 0.0
H2815 H 0.50137 0.33644 0.89819 0.0
H2816 H 0.55653 0.34284 0.92829 0.0
H2817 H 0.52278 0.34355 0.92247 0.0
H2818 H 0.53023 0.39144 0.88581 0.0
H2819 H 0.56382 0.39112 0.89237 0.0
C2820 C 0.47475 0.38304 0.88889 0.0
C2821 C 0.4657 0.36576 0.88586 0.0
C2822 C 0.4933 0.38361 0.89528 0.0
C2823 C 0.50336 0.3669 0.89855 0.0
C2824 C 0.49406 0.34962 0.89608 0.0
C2825 C 0.47541 0.34906 0.88991 0.0
C2826 C 0.55086 0.35365 0.91919 0.0
C2827 C 0.56273 0.36691 0.91075 0.0
C2828 C 0.53153 0.35398 0.91572 0.0
C2829 C 0.52369 0.36747 0.90355 0.0
C2830 C 0.53564 0.38102 0.89549 0.0
C2831 C 0.55494 0.38079 0.89914 0.0
H2832 H 0.14854 0.6311 0.11864 0.0
H2833 H 0.16004 0.68307 0.14739 0.0
H2834 H 0.1819 0.62449 0.11685 0.0
H2835 H 0.1935 0.67584 0.14741 0.0
H2836 H 0.24741 0.67569 0.11204 0.0
H2837 H 0.21664 0.67812 0.12613 0.0
H2838 H 0.21166 0.61744 0.12533 0.0
H2839 H 0.24206 0.61547 0.10963 0.0
C2840 C 0.15828 0.64065 0.12542 0.0
C2841 C 0.15186 0.65759 0.13309 0.0
C2842 C 0.17753 0.63688 0.12447 0.0
C2843 C 0.19077 0.64982 0.13159 0.0
C2844 C 0.18397 0.66583 0.14108 0.0
C2845 C 0.16476 0.66989 0.14141 0.0
C2846 C 0.23992 0.66288 0.11543 0.0
C2847 C 0.24702 0.64542 0.10978 0.0
C2848 C 0.22217 0.66419 0.12362 0.0
C2849 C 0.21118 0.64798 0.12672 0.0
C2850 C 0.21925 0.63033 0.12267 0.0
C2851 C 0.23683 0.62909 0.11396 0.0
H2852 H 0.84231 0.24486 0.12466 0.0
H2853 H 0.9026 0.24471 0.12003 0.0
H2854 H 0.8432 0.21428 0.13946 0.0
H2855 H 0.90392 0.2145 0.13627 0.0
H2856 H 0.89363 0.15116 0.12451 0.0
H2857 H 0.89833 0.18487 0.12543 0.0
H2858 H 0.84888 0.19071 0.16032 0.0
H2859 H 0.84358 0.15689 0.15787 0.0
C2860 C 0.85585 0.23863 0.12777 0.0
C2861 C 0.87236 0.24696 0.12113 0.0
C2862 C 0.85644 0.22101 0.13635 0.0
C2863 C 0.87365 0.21147 0.13874 0.0
C2864 C 0.89035 0.22102 0.13411 0.0
C2865 C 0.88968 0.23846 0.12507 0.0
C2866 C 0.8842 0.15966 0.13289 0.0
C2867 C 0.86828 0.15164 0.14109 0.0
C2868 C 0.88687 0.17909 0.13353 0.0
C2869 C 0.87375 0.19082 0.14264 0.0
C2870 C 0.85896 0.18231 0.15265 0.0
C2871 C 0.85602 0.16292 0.15153 0.0
H2872 H 0.25776 0.89205 0.10922 0.0
H2873 H 0.2681 0.83245 0.10631 0.0
H2874 H 0.28585 0.89595 0.12889 0.0
H2875 H 0.29601 0.83612 0.12548 0.0
H2876 H 0.34561 0.84108 0.15733 0.0
H2877 H 0.31165 0.84365 0.15392 0.0
H2878 H 0.31892 0.89416 0.12099 0.0
H2879 H 0.35283 0.892 0.12537 0.0
C2880 C 0.26571 0.87974 0.11335 0.0
C2881 C 0.2609 0.86196 0.10631 0.0
C2882 C 0.28186 0.88196 0.12445 0.0
C2883 C 0.29331 0.86639 0.12873 0.0
C2884 C 0.28748 0.84844 0.1228 0.0
C2885 C 0.27152 0.84628 0.11169 0.0
C2886 C 0.33983 0.85323 0.15019 0.0
C2887 C 0.35173 0.86627 0.1415 0.0
C2888 C 0.32039 0.85461 0.14804 0.0
C2889 C 0.31256 0.86875 0.13664 0.0
C2890 C 0.32441 0.88307 0.12986 0.0
C2891 C 0.34388 0.88189 0.13237 0.0
H2892 H 0.66444 0.27294 0.13634 0.0
H2893 H 0.60722 0.26956 0.11693 0.0
H2894 H 0.65776 0.30327 0.15095 0.0
H2895 H 0.60025 0.2996 0.13198 0.0
H2896 H 0.6424 0.36056 0.17266 0.0
H2897 H 0.64102 0.32603 0.17183 0.0
H2898 H 0.61186 0.32885 0.11863 0.0
H2899 H 0.61331 0.36285 0.11951 0.0
C2900 C 0.65017 0.27821 0.13615 0.0
C2901 C 0.63634 0.26904 0.1255 0.0
C2902 C 0.64631 0.29562 0.14448 0.0
C2903 C 0.62857 0.30405 0.14226 0.0
C2904 C 0.61415 0.29364 0.13363 0.0
C2905 C 0.61806 0.27636 0.12518 0.0
C2906 C 0.63522 0.3537 0.16113 0.0
C2907 C 0.62805 0.3643 0.14609 0.0
C2908 C 0.63452 0.33398 0.16059 0.0
C2909 C 0.62632 0.32465 0.14518 0.0
C2910 C 0.61802 0.33547 0.13087 0.0
C2911 C 0.61898 0.35501 0.13127 0.0
H2912 H 0.15205 0.89303 0.39095 0.0
H2913 H 0.15916 0.84771 0.35152 0.0
H2914 H 0.18578 0.89751 0.39216 0.0
H2915 H 0.19296 0.85311 0.35117 0.0
H2916 H 0.24649 0.84157 0.38586 0.0
H2917 H 0.21591 0.84456 0.37139 0.0
H2918 H 0.21586 0.90413 0.38392 0.0
H2919 H 0.24607 0.90046 0.39976 0.0
C2920 C 0.16087 0.88472 0.38174 0.0
C2921 C 0.15317 0.87001 0.37122 0.0
C2922 C 0.18033 0.88726 0.38236 0.0
C2923 C 0.19243 0.87533 0.37213 0.0
C2924 C 0.1843 0.8621 0.35983 0.0
C2925 C 0.1649 0.85918 0.35974 0.0
C2926 C 0.24017 0.85539 0.38493 0.0
C2927 C 0.2485 0.87075 0.39396 0.0
C2928 C 0.22254 0.85722 0.37655 0.0
C2929 C 0.21295 0.87458 0.37671 0.0
C2930 C 0.22238 0.8904 0.38402 0.0
C2931 C 0.23984 0.88842 0.39285 0.0
H2932 H 0.66368 0.15995 0.35209 0.0
H2933 H 0.60974 0.14774 0.37681 0.0
H2934 H 0.65919 0.19297 0.35813 0.0
H2935 H 0.60442 0.18123 0.38163 0.0
H2936 H 0.61924 0.23172 0.41934 0.0
H2937 H 0.61452 0.20228 0.40327 0.0
H2938 H 0.6474 0.22267 0.35641 0.0
H2939 H 0.65351 0.25168 0.37356 0.0
C2940 C 0.65048 0.1644 0.35819 0.0
C2941 C 0.63725 0.15114 0.36438 0.0
C2942 C 0.6478 0.18355 0.36157 0.0
C2943 C 0.6316 0.19003 0.37087 0.0
C2944 C 0.61742 0.17685 0.37511 0.0
C2945 C 0.62034 0.1576 0.37216 0.0
C2946 C 0.62536 0.22998 0.40553 0.0
C2947 C 0.63731 0.2438 0.39806 0.0
C2948 C 0.62241 0.21308 0.39607 0.0
C2949 C 0.63097 0.20963 0.37859 0.0
C2950 C 0.64111 0.22441 0.37012 0.0
C2951 C 0.64439 0.24125 0.37983 0.0
H2952 H 0.34876 0.64683 0.33622 0.0
H2953 H 0.35827 0.61149 0.38467 0.0
H2954 H 0.31496 0.64282 0.33992 0.0
H2955 H 0.32476 0.60808 0.3888 0.0
H2956 H 0.26393 0.66087 0.37771 0.0
H2957 H 0.29373 0.65604 0.36177 0.0
H2958 H 0.29443 0.59825 0.38059 0.0
H2959 H 0.26496 0.60355 0.39725 0.0
C2960 C 0.34367 0.63788 0.34741 0.0
C2961 C 0.35622 0.62979 0.36037 0.0
C2962 C 0.32427 0.63569 0.34962 0.0
C2963 C 0.31701 0.62545 0.36489 0.0
C2964 C 0.32968 0.61597 0.37678 0.0
C2965 C 0.34903 0.61804 0.37449 0.0
C2966 C 0.27014 0.64696 0.37782 0.0
C2967 C 0.2623 0.63263 0.3888 0.0
C2968 C 0.28727 0.64413 0.36866 0.0
C2969 C 0.29679 0.62683 0.37019 0.0
C2970 C 0.28779 0.6119 0.37952 0.0
C2971 C 0.27082 0.61483 0.3889 0.0
H2972 H 0.90748 0.27609 0.4019 0.0
H2973 H 0.8554 0.25544 0.37878 0.0
H2974 H 0.90272 0.3059 0.38606 0.0
H2975 H 0.8512 0.28484 0.36189 0.0
H2976 H 0.83155 0.34419 0.38204 0.0
H2977 H 0.84079 0.31177 0.37834 0.0
H2978 H 0.89674 0.32937 0.36268 0.0
H2979 H 0.8873 0.36227 0.36683 0.0
C2980 C 0.89548 0.27759 0.39265 0.0
C2981 C 0.88145 0.2637 0.39222 0.0
C2982 C 0.89278 0.29471 0.38342 0.0
C2983 C 0.87613 0.2981 0.37332 0.0
C2984 C 0.86384 0.28293 0.37015 0.0
C2985 C 0.86639 0.26591 0.37964 0.0
C2986 C 0.84571 0.34119 0.37736 0.0
C2987 C 0.85881 0.3557 0.37513 0.0
C2988 C 0.85101 0.32251 0.37498 0.0
C2989 C 0.86963 0.31781 0.37037 0.0
C2990 C 0.88235 0.33247 0.36647 0.0
C2991 C 0.87695 0.35131 0.36876 0.0
H2992 H 0.10976 0.24142 0.60588 0.0
H2993 H 0.13341 0.24408 0.66153 0.0
H2994 H 0.12572 0.21153 0.60042 0.0
H2995 H 0.14859 0.21385 0.65669 0.0
H2996 H 0.1712 0.1574 0.64865 0.0
H2997 H 0.16857 0.19116 0.64328 0.0
H2998 H 0.11743 0.18193 0.61181 0.0
H2999 H 0.12051 0.14844 0.61651 0.0
C3000 C 0.11897 0.23587 0.61667 0.0
C3001 C 0.12043 0.24495 0.6341 0.0
C3002 C 0.1279 0.21863 0.61369 0.0
C3003 C 0.13806 0.20992 0.62828 0.0
C3004 C 0.14102 0.22004 0.64504 0.0
C3005 C 0.13233 0.23744 0.64788 0.0
C3006 C 0.15971 0.16258 0.64011 0.0
C3007 C 0.14585 0.15024 0.63333 0.0
C3008 C 0.15812 0.18197 0.63714 0.0
C3009 C 0.14258 0.18944 0.62744 0.0
C3010 C 0.1297 0.17686 0.61923 0.0
C3011 C 0.13138 0.15752 0.62206 0.0
H3012 H 0.26993 0.11027 0.60395 0.0
H3013 H 0.26485 0.12206 0.66308 0.0
H3014 H 0.29991 0.12687 0.60315 0.0
H3015 H 0.29516 0.13734 0.66288 0.0
H3016 H 0.36318 0.12281 0.61825 0.0
H3017 H 0.3299 0.11986 0.6116 0.0
H3018 H 0.31765 0.15883 0.65668 0.0
H3019 H 0.35101 0.16022 0.6642 0.0
C3020 C 0.27509 0.11684 0.61668 0.0
C3021 C 0.26513 0.11494 0.63357 0.0
C3022 C 0.29242 0.12612 0.61634 0.0
C3023 C 0.30044 0.13318 0.63303 0.0
C3024 C 0.28962 0.13243 0.64961 0.0
C3025 C 0.27213 0.12358 0.64981 0.0
C3026 C 0.35336 0.13121 0.62628 0.0
C3027 C 0.35956 0.14164 0.64177 0.0
C3028 C 0.33414 0.12957 0.6225 0.0
C3029 C 0.32075 0.13869 0.63391 0.0
C3030 C 0.32733 0.15095 0.64802 0.0
C3031 C 0.34649 0.15206 0.65217 0.0
H3032 H 0.38729 0.36344 0.61665 0.0
H3033 H 0.3396 0.34865 0.65103 0.0
H3034 H 0.39384 0.33051 0.61144 0.0
H3035 H 0.34572 0.31544 0.64517 0.0
H3036 H 0.38575 0.26521 0.65981 0.0
H3037 H 0.36874 0.29472 0.65708 0.0
H3038 H 0.38774 0.30038 0.59968 0.0
H3039 H 0.40541 0.27113 0.60285 0.0
C3040 C 0.3778 0.35317 0.62261 0.0
C3041 C 0.36315 0.35873 0.63459 0.0
C3042 C 0.3815 0.33414 0.61951 0.0
C3043 C 0.37052 0.32016 0.62815 0.0
C3044 C 0.35476 0.32578 0.63867 0.0
C3045 C 0.35115 0.34486 0.6419 0.0
C3046 C 0.38576 0.27246 0.64642 0.0
C3047 C 0.39703 0.26601 0.63161 0.0
C3048 C 0.37597 0.28943 0.6448 0.0
C3049 C 0.3771 0.30022 0.62824 0.0
C3050 C 0.38693 0.29274 0.61281 0.0
C3051 C 0.39693 0.2759 0.61453 0.0
H3052 H 0.24064 0.39892 0.59818 0.0
H3053 H 0.24169 0.38199 0.65631 0.0
H3054 H 0.21056 0.38302 0.59399 0.0
H3055 H 0.21144 0.36637 0.65231 0.0
H3056 H 0.15382 0.34236 0.64108 0.0
H3057 H 0.18812 0.34404 0.63737 0.0
H3058 H 0.18196 0.39675 0.60788 0.0
H3059 H 0.14817 0.39512 0.61174 0.0
C3060 C 0.23484 0.39102 0.60981 0.0
C3061 C 0.24337 0.39178 0.62759 0.0
C3062 C 0.21754 0.38207 0.60748 0.0
C3063 C 0.20839 0.37385 0.62294 0.0
C3064 C 0.2181 0.37254 0.64012 0.0
C3065 C 0.23549 0.38144 0.64242 0.0
C3066 C 0.15987 0.35398 0.63335 0.0
C3067 C 0.14841 0.36867 0.62676 0.0
C3068 C 0.17946 0.35499 0.63132 0.0
C3069 C 0.18778 0.37049 0.62228 0.0
C3070 C 0.17607 0.38446 0.61463 0.0
C3071 C 0.15668 0.38362 0.61697 0.0
H3072 H 0.11936 0.36363 0.89568 0.0
H3073 H 0.16912 0.35027 0.8637 0.0
H3074 H 0.11508 0.3307 0.90287 0.0
H3075 H 0.16525 0.31713 0.87154 0.0
H3076 H 0.12848 0.26407 0.85822 0.0
H3077 H 0.14399 0.29438 0.8601 0.0
H3078 H 0.1229 0.30172 0.91656 0.0
H3079 H 0.10672 0.27156 0.91423 0.0
C3080 C 0.12977 0.35372 0.89067 0.0
C3081 C 0.14434 0.35957 0.87875 0.0
C3082 C 0.12739 0.33472 0.89493 0.0
C3083 C 0.13964 0.32107 0.88752 0.0
C3084 C 0.15528 0.32717 0.87711 0.0
C3085 C 0.15758 0.34621 0.87272 0.0
C3086 C 0.12774 0.27185 0.87128 0.0
C3087 C 0.11625 0.26558 0.886 0.0
C3088 C 0.13667 0.2893 0.87241 0.0
C3089 C 0.13441 0.30078 0.88836 0.0
C3090 C 0.12453 0.29351 0.90386 0.0
C3091 C 0.11541 0.27616 0.90262 0.0
H3092 H 0.15649 0.12519 0.89553 0.0
H3093 H 0.16727 0.1634 0.84987 0.0
H3094 H 0.18984 0.12317 0.90198 0.0
H3095 H 0.2007 0.16286 0.85718 0.0
H3096 H 0.25282 0.12503 0.8487 0.0
H3097 H 0.22298 0.14121 0.85002 0.0
H3098 H 0.21998 0.13052 0.90984 0.0
H3099 H 0.24944 0.11306 0.90792 0.0
C3100 C 0.16599 0.13398 0.88755 0.0
C3101 C 0.15943 0.14428 0.8721 0.0
C3102 C 0.18525 0.13288 0.89122 0.0
C3103 C 0.19829 0.1424 0.87973 0.0
C3104 C 0.19129 0.15469 0.86586 0.0
C3105 C 0.17208 0.15529 0.86183 0.0
C3106 C 0.24606 0.12674 0.86223 0.0
C3107 C 0.25329 0.11774 0.87817 0.0
C3108 C 0.22885 0.13611 0.86308 0.0
C3109 C 0.2186 0.13695 0.88002 0.0
C3110 C 0.22703 0.12969 0.89642 0.0
C3111 C 0.24406 0.11991 0.89543 0.0
H3112 H 0.37651 0.16301 0.83705 0.0
H3113 H 0.37412 0.14439 0.89469 0.0
H3114 H 0.37508 0.19528 0.84714 0.0
H3115 H 0.37198 0.17712 0.90509 0.0
H3116 H 0.41189 0.2299 0.90962 0.0
H3117 H 0.39548 0.20024 0.90693 0.0
H3118 H 0.36312 0.22239 0.86054 0.0
H3119 H 0.38087 0.25131 0.86196 0.0
C3120 C 0.37503 0.16586 0.85193 0.0
C3121 C 0.37592 0.15125 0.8651 0.0
C3122 C 0.37398 0.18448 0.85779 0.0
C3123 C 0.37376 0.189 0.87704 0.0
C3124 C 0.37256 0.17421 0.89017 0.0
C3125 C 0.37362 0.15544 0.88423 0.0
C3126 C 0.4011 0.22856 0.89898 0.0
C3127 C 0.39848 0.24272 0.88543 0.0
C3128 C 0.3914 0.21156 0.89762 0.0
C3129 C 0.37849 0.20855 0.88294 0.0
C3130 C 0.37355 0.22392 0.87151 0.0
C3131 C 0.38362 0.24072 0.87253 0.0
H3132 H 0.35069 0.33611 0.86314 0.0
H3133 H 0.36128 0.38581 0.89632 0.0
H3134 H 0.317 0.34055 0.86729 0.0
H3135 H 0.32788 0.39071 0.89979 0.0
H3136 H 0.26585 0.37771 0.84841 0.0
H3137 H 0.29559 0.36168 0.8536 0.0
H3138 H 0.29764 0.3839 0.91012 0.0
H3139 H 0.2683 0.40072 0.90432 0.0
C3140 C 0.34587 0.34776 0.87165 0.0
C3141 C 0.35871 0.36079 0.8791 0.0
C3142 C 0.32651 0.35041 0.8739 0.0
C3143 C 0.31956 0.36622 0.88354 0.0
C3144 C 0.33252 0.37827 0.89238 0.0
C3145 C 0.35183 0.37553 0.89028 0.0
C3146 C 0.27234 0.37853 0.86216 0.0
C3147 C 0.26489 0.39044 0.87595 0.0
C3148 C 0.28945 0.36934 0.8652 0.0
C3149 C 0.29935 0.37177 0.88219 0.0
C3150 C 0.29073 0.38211 0.89669 0.0
C3151 C 0.2738 0.39154 0.8935 0.0
H3152 H 0.61794 0.12984 0.15365 0.0
H3153 H 0.66154 0.16857 0.16978 0.0
H3154 H 0.60842 0.12681 0.18611 0.0
H3155 H 0.65101 0.16711 0.20231 0.0
H3156 H 0.65631 0.1276 0.25338 0.0
H3157 H 0.65672 0.14523 0.22448 0.0
H3158 H 0.59794 0.1323 0.21566 0.0
H3159 H 0.59821 0.11334 0.24426 0.0
C3160 C 0.62482 0.13851 0.16411 0.0
C3161 C 0.64063 0.14919 0.15936 0.0
C3162 C 0.61934 0.13685 0.18287 0.0
C3163 C 0.62932 0.14621 0.19721 0.0
C3164 C 0.64348 0.15899 0.1919 0.0
C3165 C 0.64938 0.1601 0.17321 0.0
C3166 C 0.64331 0.12907 0.24559 0.0
C3167 C 0.6273 0.11896 0.2509 0.0
C3168 C 0.64346 0.13932 0.22889 0.0
C3169 C 0.62745 0.13997 0.21721 0.0
C3170 C 0.61076 0.13163 0.22381 0.0
C3171 C 0.61078 0.12096 0.24034 0.0
H3172 H 0.60318 0.40834 0.26816 0.0
H3173 H 0.6597 0.3866 0.26759 0.0
H3174 H 0.59729 0.39229 0.29789 0.0
H3175 H 0.65413 0.37103 0.29764 0.0
H3176 H 0.61233 0.39883 0.36125 0.0
H3177 H 0.60987 0.40253 0.32754 0.0
H3178 H 0.63816 0.34939 0.31952 0.0
H3179 H 0.64074 0.34578 0.35376 0.0
C3180 C 0.61414 0.39963 0.27416 0.0
C3181 C 0.63194 0.39883 0.26576 0.0
C3182 C 0.61084 0.39054 0.29122 0.0
C3183 C 0.62538 0.38075 0.30038 0.0
C3184 C 0.64259 0.37837 0.29097 0.0
C3185 C 0.64582 0.38732 0.27375 0.0
C3186 C 0.61763 0.3877 0.35232 0.0
C3187 C 0.62686 0.3721 0.36009 0.0
C3188 C 0.61608 0.38973 0.33293 0.0
C3189 C 0.62385 0.37627 0.32075 0.0
C3190 C 0.63212 0.36005 0.32853 0.0
C3191 C 0.63349 0.35791 0.3481 0.0
H3192 H 0.11139 0.6094 0.26342 0.0
H3193 H 0.13114 0.66658 0.26168 0.0
H3194 H 0.12822 0.60435 0.2929 0.0
H3195 H 0.14717 0.66206 0.29149 0.0
H3196 H 0.17093 0.65459 0.34741 0.0
H3197 H 0.16831 0.64955 0.31363 0.0
H3198 H 0.11958 0.61456 0.32288 0.0
H3199 H 0.1227 0.61898 0.35641 0.0
C3200 C 0.11994 0.62066 0.26905 0.0
C3201 C 0.11997 0.63837 0.26039 0.0
C3202 C 0.12937 0.61789 0.28607 0.0
C3203 C 0.13864 0.63293 0.29496 0.0
C3204 C 0.1403 0.65007 0.28516 0.0
C3205 C 0.13112 0.65272 0.26799 0.0
C3206 C 0.16001 0.64537 0.34223 0.0
C3207 C 0.14679 0.6375 0.3546 0.0
C3208 C 0.15842 0.64257 0.32282 0.0
C3209 C 0.14349 0.63198 0.31536 0.0
C3210 C 0.13137 0.62271 0.32794 0.0
C3211 C 0.13307 0.62535 0.34731 0.0
H3212 H 0.86314 0.16627 0.35623 0.0
H3213 H 0.89474 0.11614 0.36948 0.0
H3214 H 0.86798 0.16048 0.32281 0.0
H3215 H 0.89895 0.10997 0.33632 0.0
H3216 H 0.85086 0.12296 0.27147 0.0
H3217 H 0.85461 0.13873 0.30156 0.0
H3218 H 0.91086 0.11632 0.30629 0.0
H3219 H 0.90664 0.09991 0.27647 0.0
C3220 C 0.87143 0.15421 0.35205 0.0
C3221 C 0.87829 0.14151 0.36556 0.0
C3222 C 0.87408 0.1508 0.33286 0.0
C3223 C 0.88355 0.13456 0.32674 0.0
C3224 C 0.8917 0.12272 0.34035 0.0
C3225 C 0.88918 0.1262 0.3595 0.0
C3226 C 0.86423 0.12193 0.27867 0.0
C3227 C 0.87839 0.1101 0.27176 0.0
C3228 C 0.86643 0.131 0.29597 0.0
C3229 C 0.88295 0.12856 0.30664 0.0
C3230 C 0.89778 0.11813 0.29876 0.0
C3231 C 0.89545 0.10887 0.28159 0.0
H3232 H 0.40153 0.91342 0.27214 0.0
H3233 H 0.37959 0.85718 0.26726 0.0
H3234 H 0.38642 0.91673 0.30274 0.0
H3235 H 0.36488 0.86021 0.29804 0.0
H3236 H 0.39751 0.89398 0.36347 0.0
H3237 H 0.39887 0.90034 0.33008 0.0
H3238 H 0.34442 0.87459 0.32272 0.0
H3239 H 0.34311 0.86824 0.3567 0.0
C3240 C 0.39287 0.90205 0.27733 0.0
C3241 C 0.3919 0.88498 0.26751 0.0
C3242 C 0.3843 0.90387 0.29487 0.0
C3243 C 0.37486 0.88856 0.30303 0.0
C3244 C 0.37201 0.87229 0.29217 0.0
C3245 C 0.38044 0.87053 0.27451 0.0
C3246 C 0.3856 0.89011 0.35481 0.0
C3247 C 0.37028 0.88052 0.36258 0.0
C3248 C 0.38628 0.89391 0.33565 0.0
C3249 C 0.37173 0.888 0.32368 0.0
C3250 C 0.35584 0.87929 0.3316 0.0
C3251 C 0.35503 0.87575 0.351 0.0
H3252 H 0.85749 0.37339 0.25274 0.0
H3253 H 0.89729 0.41463 0.23298 0.0
H3254 H 0.8616 0.35566 0.22397 0.0
H3255 H 0.89959 0.39842 0.20341 0.0
H3256 H 0.89845 0.37305 0.14776 0.0
H3257 H 0.90562 0.37733 0.18097 0.0
H3258 H 0.84976 0.35785 0.19501 0.0
H3259 H 0.84353 0.35211 0.16235 0.0
C3260 C 0.86733 0.3786 0.2424 0.0
C3261 C 0.8765 0.39589 0.24498 0.0
C3262 C 0.8694 0.36859 0.22559 0.0
C3263 C 0.88021 0.37591 0.21068 0.0
C3264 C 0.89095 0.39215 0.21419 0.0
C3265 C 0.88936 0.40177 0.2312 0.0
C3266 C 0.888 0.36918 0.15809 0.0
C3267 C 0.87034 0.36253 0.15239 0.0
C3268 C 0.89197 0.37185 0.1772 0.0
C3269 C 0.87813 0.36856 0.19101 0.0
C3270 C 0.86101 0.3605 0.18519 0.0
C3271 C 0.8573 0.35731 0.16621 0.0
H3272 H 0.15597 0.86728 0.15518 0.0
H3273 H 0.1055 0.89997 0.14688 0.0
H3274 H 0.15529 0.87476 0.18864 0.0
H3275 H 0.10438 0.90681 0.18009 0.0
H3276 H 0.12157 0.86014 0.24367 0.0
H3277 H 0.13573 0.86297 0.21278 0.0
H3278 H 0.11487 0.9199 0.20845 0.0
H3279 H 0.09993 0.91655 0.23912 0.0
C3280 C 0.14495 0.87638 0.16041 0.0
C3281 C 0.13054 0.88268 0.14845 0.0
C3282 C 0.1445 0.88058 0.17961 0.0
C3283 C 0.1296 0.8911 0.18722 0.0
C3284 C 0.11619 0.8988 0.17487 0.0
C3285 C 0.11671 0.8947 0.15573 0.0
C3286 C 0.12066 0.87349 0.2364 0.0
C3287 C 0.10948 0.88804 0.24358 0.0
C3288 C 0.12881 0.87517 0.21865 0.0
C3289 C 0.12607 0.89153 0.20784 0.0
C3290 C 0.11681 0.90691 0.21613 0.0
C3291 C 0.1084 0.9051 0.23376 0.0
H3292 H 0.39643 0.59879 0.23651 0.0
H3293 H 0.38049 0.65672 0.24389 0.0
H3294 H 0.37969 0.59791 0.20659 0.0
H3295 H 0.36505 0.65656 0.2137 0.0
H3296 H 0.34654 0.66048 0.15695 0.0
H3297 H 0.34536 0.65028 0.18961 0.0
H3298 H 0.38783 0.6084 0.17759 0.0
H3299 H 0.38751 0.61762 0.14486 0.0
C3300 C 0.3888 0.61115 0.23194 0.0
C3301 C 0.38977 0.62784 0.24239 0.0
C3302 C 0.37945 0.6108 0.21464 0.0
C3303 C 0.37145 0.62732 0.20718 0.0
C3304 C 0.37082 0.64343 0.21873 0.0
C3305 C 0.37975 0.64361 0.23619 0.0
C3306 C 0.35493 0.64853 0.16126 0.0
C3307 C 0.36721 0.6399 0.14854 0.0
C3308 C 0.35452 0.64283 0.18005 0.0
C3309 C 0.36704 0.62896 0.18666 0.0
C3310 C 0.37789 0.61908 0.17333 0.0
C3311 C 0.37779 0.62438 0.15442 0.0
H3312 H 0.8593 0.39388 0.88201 0.0
H3313 H 0.84864 0.34649 0.84592 0.0
H3314 H 0.82623 0.40175 0.88173 0.0
H3315 H 0.81559 0.35519 0.84401 0.0
H3316 H 0.76163 0.35067 0.87973 0.0
H3317 H 0.79168 0.35027 0.86412 0.0
H3318 H 0.79689 0.41029 0.8728 0.0
H3319 H 0.76718 0.41007 0.88984 0.0
C3320 C 0.84994 0.38573 0.87319 0.0
C3321 C 0.85637 0.36946 0.86421 0.0
C3322 C 0.83083 0.39025 0.87293 0.0
C3323 C 0.81783 0.37879 0.86329 0.0
C3324 C 0.82489 0.36392 0.85227 0.0
C3325 C 0.84389 0.35905 0.85309 0.0
C3326 C 0.76887 0.36389 0.8776 0.0
C3327 C 0.76223 0.38035 0.88609 0.0
C3328 C 0.78626 0.36375 0.86858 0.0
C3329 C 0.79728 0.38019 0.86757 0.0
C3330 C 0.78928 0.39718 0.8739 0.0
C3331 C 0.77208 0.39719 0.88338 0.0
H3332 H 0.12393 0.86045 0.86148 0.0
H3333 H 0.18114 0.84266 0.87056 0.0
H3334 H 0.11493 0.82786 0.85508 0.0
H3335 H 0.17234 0.81049 0.86507 0.0
H3336 H 0.15857 0.75395 0.86676 0.0
H3337 H 0.1617 0.78373 0.85033 0.0
H3338 H 0.11017 0.80312 0.8759 0.0
H3339 H 0.1063 0.77285 0.89085 0.0
C3340 C 0.13466 0.84966 0.86158 0.0
C3341 C 0.15312 0.85396 0.867 0.0
C3342 C 0.12951 0.83094 0.85807 0.0
C3343 C 0.14274 0.81629 0.86 0.0
C3344 C 0.16162 0.82113 0.86332 0.0
C3345 C 0.16671 0.8397 0.86674 0.0
C3346 C 0.14739 0.76418 0.86806 0.0
C3347 C 0.13257 0.76134 0.88074 0.0
C3348 C 0.14933 0.78145 0.85885 0.0
C3349 C 0.13677 0.79631 0.86258 0.0
C3350 C 0.12038 0.79228 0.87282 0.0
C3351 C 0.11821 0.77488 0.88163 0.0
H3352 H 0.74688 0.09786 0.9105 0.0
H3353 H 0.75099 0.15327 0.8864 0.0
H3354 H 0.71742 0.09269 0.8937 0.0
H3355 H 0.72121 0.14867 0.87034 0.0
H3356 H 0.65436 0.10913 0.89559 0.0
H3357 H 0.68759 0.10447 0.90047 0.0
H3358 H 0.69944 0.13507 0.84936 0.0
H3359 H 0.66588 0.14043 0.8449 0.0
C3360 C 0.74169 0.10872 0.90117 0.0
C3361 C 0.75108 0.12599 0.89981 0.0
C3362 C 0.72472 0.10587 0.89169 0.0
C3363 C 0.71659 0.12043 0.88101 0.0
C3364 C 0.72698 0.13705 0.87829 0.0
C3365 C 0.7441 0.13975 0.88753 0.0
C3366 C 0.66397 0.11453 0.88513 0.0
C3367 C 0.65744 0.12554 0.8701 0.0
C3368 C 0.68317 0.1117 0.88784 0.0
C3369 C 0.69638 0.11966 0.87549 0.0
C3370 C 0.68973 0.12912 0.85942 0.0
C3371 C 0.67045 0.13206 0.85677 0.0
H3372 H 0.41822 0.73715 0.88814 0.0
H3373 H 0.3598 0.74562 0.87486 0.0
H3374 H 0.41792 0.70744 0.87099 0.0
H3375 H 0.3588 0.7156 0.85912 0.0
H3376 H 0.35325 0.6595 0.83951 0.0
H3377 H 0.36385 0.69205 0.83856 0.0
H3378 H 0.40763 0.67833 0.87858 0.0
H3379 H 0.39799 0.64576 0.87791 0.0
C3380 C 0.40545 0.7328 0.8811 0.0
C3381 C 0.38902 0.74354 0.88282 0.0
C3382 C 0.40514 0.71565 0.87149 0.0
C3383 C 0.3882 0.70859 0.86404 0.0
C3384 C 0.37223 0.72033 0.86439 0.0
C3385 C 0.37271 0.73766 0.87353 0.0
C3386 C 0.36569 0.66343 0.84735 0.0
C3387 C 0.37475 0.65028 0.85888 0.0
C3388 C 0.37162 0.68215 0.84711 0.0
C3389 C 0.38615 0.68823 0.85912 0.0
C3390 C 0.39642 0.67448 0.86908 0.0
C3391 C 0.39088 0.65566 0.86877 0.0
H3392 H 0.85112 0.15049 0.68107 0.0
H3393 H 0.86269 0.11508 0.63319 0.0
H3394 H 0.81777 0.14327 0.67829 0.0
H3395 H 0.82958 0.10859 0.62983 0.0
H3396 H 0.7708 0.10111 0.61987 0.0
H3397 H 0.80001 0.0972 0.63744 0.0
H3398 H 0.79535 0.15453 0.65711 0.0
H3399 H 0.76582 0.15785 0.64041 0.0
C3400 C 0.84661 0.14084 0.6702 0.0
C3401 C 0.85952 0.13371 0.65709 0.0
C3402 C 0.82745 0.1368 0.66851 0.0
C3403 C 0.82077 0.12574 0.65354 0.0
C3404 C 0.834 0.1171 0.64163 0.0
C3405 C 0.85314 0.12094 0.64347 0.0
C3406 C 0.77567 0.11251 0.62871 0.0
C3407 C 0.76618 0.1298 0.62876 0.0
C3408 C 0.79253 0.1104 0.63858 0.0
C3409 C 0.80045 0.12572 0.64828 0.0
C3410 C 0.7898 0.14234 0.64993 0.0
C3411 C 0.77278 0.1443 0.64033 0.0
H3412 H 0.35296 0.76284 0.61993 0.0
H3413 H 0.41117 0.76829 0.6044 0.0
H3414 H 0.35401 0.79306 0.63529 0.0
H3415 H 0.41283 0.79833 0.62092 0.0
H3416 H 0.39582 0.86141 0.61705 0.0
H3417 H 0.40324 0.82826 0.61414 0.0
H3418 H 0.3618 0.81538 0.65669 0.0
H3419 H 0.35341 0.84856 0.65816 0.0
C3420 C 0.36626 0.77019 0.62057 0.0
C3421 C 0.38193 0.76332 0.61087 0.0
C3422 C 0.36695 0.78763 0.6295 0.0
C3423 C 0.38347 0.79855 0.62921 0.0
C3424 C 0.39969 0.7907 0.62102 0.0
C3425 C 0.39885 0.77339 0.61172 0.0
C3426 C 0.38882 0.8515 0.62623 0.0
C3427 C 0.37397 0.8574 0.6377 0.0
C3428 C 0.39305 0.83237 0.62462 0.0
C3429 C 0.38275 0.81883 0.63477 0.0
C3430 C 0.36954 0.8252 0.64805 0.0
C3431 C 0.3649 0.84425 0.64918 0.0
H3432 H 0.64448 0.3999 0.6119 0.0
H3433 H 0.65425 0.37267 0.66522 0.0
H3434 H 0.67795 0.40396 0.60768 0.0
H3435 H 0.68822 0.3769 0.66107 0.0
H3436 H 0.74137 0.3583 0.62429 0.0
H3437 H 0.71093 0.36203 0.63953 0.0
H3438 H 0.70687 0.41848 0.61756 0.0
H3439 H 0.73711 0.41448 0.60194 0.0
C3440 C 0.65383 0.39516 0.62296 0.0
C3441 C 0.64676 0.38583 0.63881 0.0
C3442 C 0.67308 0.39764 0.62062 0.0
C3443 C 0.68586 0.39074 0.63403 0.0
C3444 C 0.67875 0.38228 0.65044 0.0
C3445 C 0.65932 0.37997 0.65288 0.0
C3446 C 0.73429 0.37174 0.62333 0.0
C3447 C 0.74145 0.38602 0.61175 0.0
C3448 C 0.71682 0.3739 0.63208 0.0
C3449 C 0.70626 0.39042 0.62943 0.0
C3450 C 0.71445 0.40542 0.61952 0.0
C3451 C 0.7318 0.4032 0.61067 0.0
H3452 H 0.09931 0.7449 0.60994 0.0
H3453 H 0.15599 0.74532 0.63114 0.0
H3454 H 0.09358 0.71496 0.62568 0.0
H3455 H 0.15074 0.71508 0.6462 0.0
H3456 H 0.14113 0.65818 0.66802 0.0
H3457 H 0.13677 0.6922 0.66645 0.0
H3458 H 0.1048 0.68551 0.61523 0.0
H3459 H 0.10868 0.65181 0.61711 0.0
C3460 C 0.11029 0.7389 0.61862 0.0
C3461 C 0.1281 0.74729 0.61931 0.0
C3462 C 0.10713 0.72165 0.62744 0.0
C3463 C 0.12185 0.71229 0.63676 0.0
C3464 C 0.13902 0.72181 0.63922 0.0
C3465 C 0.14207 0.73921 0.63061 0.0
C3466 C 0.1327 0.66397 0.65674 0.0
C3467 C 0.12554 0.65231 0.64249 0.0
C3468 C 0.1303 0.6835 0.65579 0.0
C3469 C 0.12066 0.69171 0.64059 0.0
C3470 C 0.11216 0.67982 0.62727 0.0
C3471 C 0.11454 0.66038 0.62824 0.0
H3472 H 0.84213 0.85472 0.37653 0.0
H3473 H 0.89771 0.86232 0.39947 0.0
H3474 H 0.84575 0.82044 0.37948 0.0
H3475 H 0.90132 0.82859 0.40248 0.0
H3476 H 0.90606 0.76945 0.41216 0.0
H3477 H 0.89079 0.79965 0.41776 0.0
H3478 H 0.86657 0.79768 0.36215 0.0
H3479 H 0.88157 0.76726 0.35678 0.0
C3480 C 0.85486 0.84908 0.38267 0.0
C3481 C 0.86969 0.8611 0.38769 0.0
C3482 C 0.85699 0.82951 0.38426 0.0
C3483 C 0.87381 0.82177 0.39126 0.0
C3484 C 0.88807 0.834 0.39732 0.0
C3485 C 0.88607 0.85337 0.39545 0.0
C3486 C 0.89686 0.77515 0.40145 0.0
C3487 C 0.89514 0.76616 0.38398 0.0
C3488 C 0.8882 0.79248 0.40459 0.0
C3489 C 0.87783 0.80127 0.39024 0.0
C3490 C 0.87442 0.79129 0.37352 0.0
C3491 C 0.883 0.77384 0.37043 0.0
H3492 H 0.74415 0.87232 0.35237 0.0
H3493 H 0.74092 0.89139 0.4097 0.0
H3494 H 0.71466 0.85567 0.35605 0.0
H3495 H 0.71183 0.87378 0.41401 0.0
H3496 H 0.65851 0.83323 0.36036 0.0
H3497 H 0.69204 0.8347 0.36719 0.0
H3498 H 0.68224 0.88242 0.40351 0.0
H3499 H 0.64899 0.88034 0.3974 0.0
C3500 C 0.7376 0.87202 0.3661 0.0
C3501 C 0.74462 0.88318 0.38071 0.0
C3502 C 0.72062 0.86246 0.36829 0.0
C3503 C 0.71047 0.86375 0.38523 0.0
C3504 C 0.71891 0.87294 0.40059 0.0
C3505 C 0.7357 0.88282 0.39825 0.0
C3506 C 0.66351 0.84364 0.37028 0.0
C3507 C 0.65114 0.85698 0.37795 0.0
C3508 C 0.68276 0.84457 0.3741 0.0
C3509 C 0.69006 0.85899 0.38551 0.0
C3510 C 0.67734 0.87103 0.39471 0.0
C3511 C 0.65812 0.86995 0.39107 0.0
H3512 H 0.66942 0.65477 0.36955 0.0
H3513 H 0.61591 0.65038 0.3975 0.0
H3514 H 0.66811 0.68918 0.37267 0.0
H3515 H 0.61458 0.68425 0.40073 0.0
H3516 H 0.61127 0.74297 0.4076 0.0
H3517 H 0.62737 0.7133 0.4138 0.0
H3518 H 0.64683 0.71208 0.35638 0.0
H3519 H 0.63113 0.742 0.35045 0.0
C3520 C 0.65772 0.66113 0.3769 0.0
C3521 C 0.6427 0.65002 0.38321 0.0
C3522 C 0.65692 0.68077 0.37859 0.0
C3523 C 0.64126 0.68949 0.38696 0.0
C3524 C 0.627 0.6781 0.39448 0.0
C3525 C 0.62766 0.65864 0.3925 0.0
C3526 C 0.61985 0.73683 0.39664 0.0
C3527 C 0.61992 0.74464 0.37854 0.0
C3528 C 0.62892 0.71976 0.40011 0.0
C3529 C 0.63795 0.71009 0.38545 0.0
C3530 C 0.64003 0.71915 0.368 0.0
C3531 C 0.63107 0.73634 0.36458 0.0
H3532 H 0.76582 0.62886 0.34988 0.0
H3533 H 0.76953 0.60756 0.40646 0.0
H3534 H 0.7957 0.64493 0.3539 0.0
H3535 H 0.79907 0.62437 0.411 0.0
H3536 H 0.85055 0.67126 0.36167 0.0
H3537 H 0.81702 0.66678 0.3669 0.0
H3538 H 0.8291 0.61718 0.39987 0.0
H3539 H 0.86235 0.62209 0.3953 0.0
C3540 C 0.77269 0.62832 0.36347 0.0
C3541 C 0.76555 0.61687 0.3778 0.0
C3542 C 0.78983 0.63758 0.36584 0.0
C3543 C 0.80008 0.63569 0.3827 0.0
C3544 C 0.79186 0.62574 0.39767 0.0
C3545 C 0.77487 0.61626 0.39517 0.0
C3546 C 0.84604 0.65974 0.37052 0.0
C3547 C 0.85913 0.64681 0.37774 0.0
C3548 C 0.82678 0.65708 0.37339 0.0
C3549 C 0.82022 0.64138 0.38346 0.0
C3550 C 0.83347 0.62951 0.39213 0.0
C3551 C 0.85267 0.63225 0.38939 0.0
H3552 H 0.84116 0.65859 0.15689 0.0
H3553 H 0.88595 0.64994 0.11722 0.0
H3554 H 0.84052 0.69196 0.14914 0.0
H3555 H 0.88669 0.68333 0.11057 0.0
H3556 H 0.89522 0.74327 0.10697 0.0
H3557 H 0.87908 0.7134 0.102 0.0
H3558 H 0.86033 0.7146 0.15984 0.0
H3559 H 0.87539 0.74464 0.16415 0.0
C3560 C 0.85045 0.66383 0.14604 0.0
C3561 C 0.86366 0.65188 0.13768 0.0
C3562 C 0.85035 0.68299 0.14179 0.0
C3563 C 0.86409 0.69067 0.12981 0.0
C3564 C 0.87585 0.67819 0.11987 0.0
C3565 C 0.87549 0.65892 0.12367 0.0
C3566 C 0.88701 0.73734 0.11832 0.0
C3567 C 0.88666 0.74611 0.13598 0.0
C3568 C 0.87791 0.72014 0.11558 0.0
C3569 C 0.86873 0.71114 0.13062 0.0
C3570 C 0.867 0.72093 0.14775 0.0
C3571 C 0.87575 0.73826 0.15034 0.0
H3572 H 0.76067 0.88579 0.15308 0.0
H3573 H 0.76975 0.90819 0.09751 0.0
H3574 H 0.79064 0.86958 0.1516 0.0
H3575 H 0.79966 0.89149 0.09569 0.0
H3576 H 0.84611 0.8432 0.14844 0.0
H3577 H 0.81327 0.84781 0.13973 0.0
H3578 H 0.8282 0.89924 0.11111 0.0
H3579 H 0.86084 0.89435 0.11928 0.0
C3580 C 0.7687 0.88654 0.14019 0.0
C3581 C 0.76301 0.89844 0.12551 0.0
C3582 C 0.78595 0.87722 0.1393 0.0
C3583 C 0.79781 0.87953 0.12366 0.0
C3584 C 0.7911 0.88979 0.10814 0.0
C3585 C 0.77392 0.89925 0.10911 0.0
C3586 C 0.84243 0.85521 0.13983 0.0
C3587 C 0.85605 0.86862 0.13487 0.0
C3588 C 0.82357 0.85791 0.13493 0.0
C3589 C 0.81797 0.87406 0.12499 0.0
C3590 C 0.8319 0.88655 0.11865 0.0
C3591 C 0.8507 0.88383 0.12349 0.0
H3592 H 0.63069 0.76491 0.15632 0.0
H3593 H 0.61201 0.77003 0.09897 0.0
H3594 H 0.64648 0.79478 0.15407 0.0
H3595 H 0.62905 0.79962 0.09596 0.0
H3596 H 0.66469 0.85172 0.15506 0.0
H3597 H 0.66565 0.8187 0.14604 0.0
H3598 H 0.62131 0.82905 0.10563 0.0
H3599 H 0.62182 0.86213 0.11362 0.0
C3600 C 0.63093 0.77197 0.14283 0.0
C3601 C 0.61998 0.7653 0.1279 0.0
C3602 C 0.64004 0.78928 0.14146 0.0
C3603 C 0.63865 0.8002 0.12495 0.0
C3604 C 0.62986 0.7921 0.10915 0.0
C3605 C 0.62036 0.77495 0.11071 0.0
C3606 C 0.65583 0.84695 0.14364 0.0
C3607 C 0.64312 0.85933 0.13507 0.0
C3608 C 0.65611 0.82795 0.13863 0.0
C3609 C 0.64304 0.82079 0.12559 0.0
C3610 C 0.63169 0.83374 0.1157 0.0
C3611 C 0.6319 0.85285 0.12028 0.0
H3612 H 0.74572 0.62628 0.15175 0.0
H3613 H 0.73685 0.60509 0.09567 0.0
H3614 H 0.71603 0.64294 0.15025 0.0
H3615 H 0.70728 0.62239 0.09375 0.0
H3616 H 0.66133 0.67042 0.14741 0.0
H3617 H 0.69414 0.66528 0.13904 0.0
H3618 H 0.67818 0.61572 0.10776 0.0
H3619 H 0.6456 0.62127 0.11546 0.0
C3620 C 0.73777 0.62586 0.13877 0.0
C3621 C 0.74347 0.61422 0.12391 0.0
C3622 C 0.72068 0.63547 0.13786 0.0
C3623 C 0.70898 0.63377 0.12199 0.0
C3624 C 0.71567 0.62364 0.10638 0.0
C3625 C 0.73267 0.61384 0.10739 0.0
C3626 C 0.6648 0.65875 0.13828 0.0
C3627 C 0.65087 0.64602 0.13245 0.0
C3628 C 0.68364 0.65572 0.13359 0.0
C3629 C 0.68896 0.63985 0.12305 0.0
C3630 C 0.67476 0.62817 0.1158 0.0
C3631 C 0.65596 0.63127 0.12036 0.0
H3632 H 0.35578 0.88212 0.76019 0.0
H3633 H 0.414 0.8979 0.76469 0.0
H3634 H 0.35775 0.86576 0.78986 0.0
H3635 H 0.41665 0.88028 0.79401 0.0
H3636 H 0.40121 0.88378 0.85735 0.0
H3637 H 0.40808 0.88649 0.82414 0.0
H3638 H 0.3658 0.84447 0.81206 0.0
H3639 H 0.35795 0.84327 0.84536 0.0
C3640 C 0.36929 0.88126 0.76716 0.0
C3641 C 0.38468 0.89137 0.76028 0.0
C3642 C 0.37052 0.87177 0.78429 0.0
C3643 C 0.38732 0.87189 0.79482 0.0
C3644 C 0.4033 0.88033 0.78675 0.0
C3645 C 0.40191 0.89023 0.76981 0.0
C3646 C 0.39393 0.87462 0.84761 0.0
C3647 C 0.379 0.86344 0.85378 0.0
C3648 C 0.39784 0.87613 0.82842 0.0
C3649 C 0.3871 0.86614 0.81507 0.0
C3650 C 0.37386 0.85301 0.82171 0.0
C3651 C 0.36955 0.85201 0.84084 0.0
H3652 H 0.35155 0.62852 0.74566 0.0
H3653 H 0.40972 0.61369 0.73816 0.0
H3654 H 0.35135 0.64408 0.71554 0.0
H3655 H 0.41022 0.63059 0.70832 0.0
H3656 H 0.39076 0.62358 0.64641 0.0
H3657 H 0.39997 0.62285 0.67915 0.0
H3658 H 0.35729 0.66431 0.69189 0.0
H3659 H 0.3471 0.66346 0.6592 0.0
C3660 C 0.3646 0.62947 0.73791 0.0
C3661 C 0.38057 0.61977 0.74408 0.0
C3662 C 0.36458 0.6385 0.72051 0.0
C3663 C 0.38069 0.63832 0.70899 0.0
C3664 C 0.39734 0.6305 0.71636 0.0
C3665 C 0.39719 0.62103 0.73359 0.0
C3666 C 0.38382 0.633 0.65615 0.0
C3667 C 0.36811 0.64338 0.65046 0.0
C3668 C 0.38911 0.63266 0.67506 0.0
C3669 C 0.379 0.64307 0.68857 0.0
C3670 C 0.36491 0.65546 0.68218 0.0
C3671 C 0.35922 0.65525 0.66338 0.0
H3672 H 0.90507 0.40829 0.74145 0.0
H3673 H 0.88437 0.35146 0.74445 0.0
H3674 H 0.88766 0.41322 0.71228 0.0
H3675 H 0.8676 0.35594 0.71497 0.0
H3676 H 0.88875 0.39847 0.6486 0.0
H3677 H 0.89452 0.40233 0.68186 0.0
H3678 H 0.84504 0.36951 0.69438 0.0
H3679 H 0.83962 0.36508 0.66083 0.0
C3680 C 0.89636 0.39703 0.73607 0.0
C3681 C 0.89612 0.37947 0.74507 0.0
C3682 C 0.88653 0.39976 0.71929 0.0
C3683 C 0.87654 0.38486 0.71097 0.0
C3684 C 0.87499 0.36782 0.72093 0.0
C3685 C 0.88463 0.36519 0.73787 0.0
C3686 C 0.8788 0.39244 0.65839 0.0
C3687 C 0.86396 0.38112 0.65201 0.0
C3688 C 0.88204 0.39477 0.67759 0.0
C3689 C 0.87043 0.38596 0.69094 0.0
C3690 C 0.85452 0.37614 0.68452 0.0
C3691 C 0.85132 0.37373 0.66526 0.0
H3692 H 0.10717 0.89883 0.7443 0.0
H3693 H 0.16596 0.88533 0.74902 0.0
H3694 H 0.10559 0.88204 0.71443 0.0
H3695 H 0.16504 0.86991 0.71882 0.0
H3696 H 0.1659 0.84829 0.6627 0.0
H3697 H 0.15826 0.84895 0.69605 0.0
H3698 H 0.11393 0.88903 0.68451 0.0
H3699 H 0.12063 0.88678 0.65122 0.0
C3700 C 0.11964 0.89184 0.7391 0.0
C3701 C 0.13668 0.89334 0.74889 0.0
C3702 C 0.11886 0.88244 0.72183 0.0
C3703 C 0.13527 0.87492 0.7137 0.0
C3704 C 0.15196 0.87519 0.72442 0.0
C3705 C 0.15258 0.88414 0.74186 0.0
C3706 C 0.15398 0.85652 0.66735 0.0
C3707 C 0.14384 0.86749 0.65452 0.0
C3708 C 0.14976 0.85721 0.68652 0.0
C3709 C 0.1359 0.86961 0.69333 0.0
C3710 C 0.12465 0.87922 0.6801 0.0
C3711 C 0.12847 0.87799 0.66087 0.0
H3712 H 0.61346 0.102 0.74141 0.0
H3713 H 0.63066 0.15934 0.75039 0.0
H3714 H 0.63095 0.10126 0.71194 0.0
H3715 H 0.64687 0.15935 0.72065 0.0
H3716 H 0.66928 0.16306 0.6653 0.0
H3717 H 0.66787 0.15268 0.6979 0.0
H3718 H 0.6251 0.11223 0.68258 0.0
H3719 H 0.62804 0.12154 0.65 0.0
C3720 C 0.62138 0.11429 0.73722 0.0
C3721 C 0.62069 0.13074 0.74807 0.0
C3722 C 0.63122 0.11401 0.72021 0.0
C3723 C 0.64004 0.13039 0.71341 0.0
C3724 C 0.64057 0.14631 0.72521 0.0
C3725 C 0.63115 0.1464 0.74238 0.0
C3726 C 0.66027 0.15135 0.66893 0.0
C3727 C 0.64871 0.14313 0.65529 0.0
C3728 C 0.65917 0.14557 0.68766 0.0
C3729 C 0.6458 0.13209 0.69325 0.0
C3730 C 0.63563 0.1226 0.67911 0.0
C3731 C 0.63725 0.12795 0.66029 0.0
H3732 H 0.15962 0.66162 0.84814 0.0
H3733 H 0.11563 0.62157 0.85886 0.0
H3734 H 0.15057 0.66296 0.81513 0.0
H3735 H 0.10759 0.62126 0.82582 0.0
H3736 H 0.10042 0.61182 0.76678 0.0
H3737 H 0.09845 0.62894 0.79643 0.0
H3738 H 0.15731 0.6434 0.79129 0.0
H3739 H 0.15848 0.62773 0.76127 0.0
C3740 C 0.14767 0.65348 0.84342 0.0
C3741 C 0.13833 0.64145 0.85586 0.0
C3742 C 0.14263 0.65395 0.82444 0.0
C3743 C 0.12881 0.64164 0.81738 0.0
C3744 C 0.11826 0.63104 0.8304 0.0
C3745 C 0.12288 0.63112 0.84949 0.0
C3746 C 0.11259 0.6195 0.77172 0.0
C3747 C 0.12961 0.61847 0.76189 0.0
C3748 C 0.11162 0.62906 0.78887 0.0
C3749 C 0.12787 0.63711 0.79685 0.0
C3750 C 0.14436 0.63761 0.78588 0.0
C3751 C 0.14513 0.62853 0.76853 0.0
H3752 H 0.88662 0.11234 0.86507 0.0
H3753 H 0.84594 0.15585 0.85435 0.0
H3754 H 0.88616 0.10361 0.83222 0.0
H3755 H 0.84392 0.14613 0.82158 0.0
H3756 H 0.8954 0.09611 0.77347 0.0
H3757 H 0.87799 0.09409 0.8029 0.0
H3758 H 0.86328 0.15291 0.79751 0.0
H3759 H 0.87941 0.15424 0.76782 0.0
C3760 C 0.87675 0.11931 0.8558 0.0
C3761 C 0.86651 0.13488 0.86208 0.0
C3762 C 0.87639 0.1143 0.83681 0.0
C3763 C 0.86545 0.12457 0.8238 0.0
C3764 C 0.85316 0.1384 0.83086 0.0
C3765 C 0.85404 0.14382 0.84972 0.0
C3766 C 0.88758 0.10826 0.77825 0.0
C3767 C 0.88887 0.12537 0.76852 0.0
C3768 C 0.87785 0.10726 0.7953 0.0
C3769 C 0.86976 0.12351 0.80322 0.0
C3770 C 0.86919 0.13998 0.79218 0.0
C3771 C 0.87851 0.14082 0.77496 0.0
H3772 H 0.62747 0.35032 0.76568 0.0
H3773 H 0.60759 0.40739 0.76956 0.0
H3774 H 0.64332 0.35366 0.79577 0.0
H3775 H 0.6242 0.41125 0.79934 0.0
H3776 H 0.62099 0.39536 0.86258 0.0
H3777 H 0.61648 0.4002 0.82925 0.0
H3778 H 0.66507 0.36567 0.81758 0.0
H3779 H 0.66909 0.36019 0.85117 0.0
C3780 C 0.62726 0.36387 0.7726 0.0
C3781 C 0.61623 0.37855 0.76544 0.0
C3782 C 0.63636 0.36585 0.78991 0.0
C3783 C 0.63476 0.38264 0.80029 0.0
C3784 C 0.62533 0.39796 0.79203 0.0
C3785 C 0.61599 0.39586 0.77488 0.0
C3786 C 0.63103 0.38917 0.85298 0.0
C3787 C 0.64516 0.37705 0.85955 0.0
C3788 C 0.62851 0.39204 0.83373 0.0
C3789 C 0.64021 0.38306 0.82055 0.0
C3790 C 0.65548 0.37243 0.82726 0.0
C3791 C 0.65788 0.36939 0.84655 0.0
H3792 H 0.96324 0.62924 0.29311 0.0
H3793 H 0.97821 0.68397 0.31472 0.0
H3794 H 0.99122 0.62937 0.27338 0.0
H3795 H 0.00596 0.68422 0.29474 0.0
H3796 H 0.06511 0.66525 0.27767 0.0
H3797 H 0.03552 0.66742 0.2944 0.0
H3798 H 0.0065 0.64474 0.24614 0.0
H3799 H 0.03656 0.64215 0.2294 0.0
C3800 C 0.97244 0.64135 0.29358 0.0
C3801 C 0.96859 0.65652 0.30564 0.0
C3802 C 0.98838 0.64149 0.28212 0.0
C3803 C 1.00084 0.65678 0.2825 0.0
C3804 C 0.99676 0.67211 0.29429 0.0
C3805 C 0.98084 0.67198 0.30573 0.0
C3806 C 0.05242 0.6607 0.27061 0.0
C3807 C 0.05315 0.65327 0.25234 0.0
C3808 C 0.03541 0.66215 0.28013 0.0
C3809 C 0.01864 0.65624 0.27163 0.0
C3810 C 0.01924 0.64923 0.25312 0.0
C3811 C 0.03637 0.64787 0.2435 0.0
H3812 H 0.88255 0.98055 0.32973 0.0
H3813 H 0.83786 0.95536 0.29734 0.0
H3814 H 0.88608 1.00482 0.3062 0.0
H3815 H 0.84182 0.97952 0.27319 0.0
H3816 H 0.83828 0.04164 0.25097 0.0
H3817 H 0.83602 0.01228 0.26856 0.0
H3818 H 0.89633 0.01203 0.27566 0.0
H3819 H 0.8983 0.04182 0.25881 0.0
C3820 C 0.87362 0.98004 0.31742 0.0
C3821 C 0.85984 0.96607 0.31549 0.0
C3822 C 0.87578 0.99391 0.30375 0.0
C3823 C 0.86434 0.99413 0.28762 0.0
C3824 C 0.85076 0.97991 0.28549 0.0
C3825 C 0.84852 0.96603 0.2993 0.0
C3826 C 0.85106 0.03497 0.25585 0.0
C3827 C 0.86845 0.04398 0.25367 0.0
C3828 C 0.8498 0.01813 0.26596 0.0
C3829 C 0.86596 0.00992 0.27392 0.0
C3830 C 0.88352 0.0182 0.27023 0.0
C3831 C 0.88473 0.03514 0.26039 0.0
H3832 H 0.53071 0.8888 0.32296 0.0
H3833 H 0.54398 0.8359 0.29654 0.0
H3834 H 0.50392 0.89263 0.30209 0.0
H3835 H 0.51805 0.84021 0.27466 0.0
H3836 H 0.4574 0.84258 0.25366 0.0
H3837 H 0.48616 0.83897 0.27173 0.0
H3838 H 0.49287 0.89944 0.27261 0.0
H3839 H 0.46322 0.90279 0.25566 0.0
C3840 C 0.52799 0.8781 0.31248 0.0
C3841 C 0.53928 0.86198 0.31147 0.0
C3842 C 0.51273 0.88036 0.30031 0.0
C3843 C 0.50867 0.86678 0.28648 0.0
C3844 C 0.52034 0.85082 0.28531 0.0
C3845 C 0.5353 0.84834 0.29781 0.0
C3846 C 0.4653 0.85503 0.25744 0.0
C3847 C 0.45825 0.87294 0.25324 0.0
C3848 C 0.48185 0.85302 0.2678 0.0
C3849 C 0.49196 0.86891 0.27391 0.0
C3850 C 0.48532 0.88685 0.26868 0.0
C3851 C 0.4685 0.88883 0.25871 0.0
H3852 H 0.61204 0.46689 0.25371 0.0
H3853 H 0.67227 0.46859 0.24822 0.0
H3854 H 0.61261 0.49676 0.27052 0.0
H3855 H 0.67314 0.49798 0.26583 0.0
H3856 H 0.66938 0.55509 0.29317 0.0
H3857 H 0.66674 0.53029 0.2696 0.0
H3858 H 0.62104 0.50562 0.30099 0.0
H3859 H 0.6232 0.5307 0.32392 0.0
C3860 C 0.62537 0.47389 0.25585 0.0
C3861 C 0.64211 0.46551 0.24971 0.0
C3862 C 0.62577 0.49088 0.26568 0.0
C3863 C 0.64297 0.49966 0.26997 0.0
C3864 C 0.65961 0.49179 0.26274 0.0
C3865 C 0.65916 0.47493 0.25262 0.0
C3866 C 0.65867 0.54443 0.2949 0.0
C3867 C 0.64653 0.54484 0.31045 0.0
C3868 C 0.6572 0.53016 0.28142 0.0
C3869 C 0.64366 0.51587 0.28329 0.0
C3870 C 0.63137 0.51653 0.29875 0.0
C3871 C 0.63271 0.53088 0.31207 0.0
H3872 H 0.04192 0.90443 0.24911 0.0
H3873 H 0.04011 0.84757 0.27022 0.0
H3874 H 0.01165 0.89978 0.23384 0.0
H3875 H 0.00949 0.84309 0.25548 0.0
H3876 H 0.96982 0.835 0.2044 0.0
H3877 H 0.99813 0.83969 0.22324 0.0
H3878 H 0.9785 0.89494 0.23897 0.0
H3879 H 0.95051 0.89044 0.21992 0.0
C3880 C 0.03487 0.89105 0.25077 0.0
C3881 C 0.04344 0.87636 0.26081 0.0
C3882 C 0.01747 0.8884 0.24212 0.0
C3883 C 0.00822 0.87099 0.2433 0.0
C3884 C 0.01639 0.85657 0.25407 0.0
C3885 C 0.0338 0.85924 0.26276 0.0
C3886 C 0.97154 0.8481 0.21195 0.0
C3887 C 0.95797 0.86237 0.21058 0.0
C3888 C 0.98769 0.85075 0.22285 0.0
C3889 C 0.99058 0.8677 0.23261 0.0
C3890 C 0.97684 0.88182 0.23144 0.0
C3891 C 0.96075 0.8792 0.22054 0.0
H3892 H 0.60528 0.04871 0.25358 0.0
H3893 H 0.66487 0.0497 0.26426 0.0
H3894 H 0.60913 0.02042 0.23457 0.0
H3895 H 0.66907 0.02221 0.24444 0.0
H3896 H 0.67043 0.96572 0.21512 0.0
H3897 H 0.66552 0.99033 0.23855 0.0
H3898 H 0.62012 0.0129 0.20494 0.0
H3899 H 0.62441 0.98776 0.18235 0.0
C3900 C 0.61916 0.04269 0.25198 0.0
C3901 C 0.63475 0.05124 0.26042 0.0
C3902 C 0.62147 0.02664 0.24091 0.0
C3903 C 0.63949 0.01912 0.23762 0.0
C3904 C 0.65496 0.02735 0.24676 0.0
C3905 C 0.65258 0.04314 0.25814 0.0
C3906 C 0.65946 0.97602 0.21283 0.0
C3907 C 0.64778 0.97486 0.197 0.0
C3908 C 0.65662 0.99015 0.22622 0.0
C3909 C 0.64228 1.00361 0.22382 0.0
C3910 C 0.63092 1.00254 0.20767 0.0
C3911 C 0.63351 0.98824 0.19455 0.0
H3912 H 0.47296 0.62727 0.27573 0.0
H3913 H 0.44505 0.65237 0.22805 0.0
H3914 H 0.50345 0.6324 0.26039 0.0
H3915 H 0.47509 0.65716 0.21273 0.0
H3916 H 0.53195 0.67976 0.19752 0.0
H3917 H 0.50348 0.67625 0.21615 0.0
H3918 H 0.52068 0.62028 0.23214 0.0
H3919 H 0.54934 0.62385 0.21374 0.0
C3920 C 0.47337 0.63385 0.26202 0.0
C3921 C 0.45667 0.63917 0.25295 0.0
C3922 C 0.49074 0.63672 0.25321 0.0
C3923 C 0.49165 0.64522 0.23537 0.0
C3924 C 0.47491 0.65078 0.22655 0.0
C3925 C 0.45767 0.6478 0.23522 0.0
C3926 C 0.52972 0.66673 0.20506 0.0
C3927 C 0.54283 0.65203 0.20401 0.0
C3928 C 0.51339 0.66471 0.21571 0.0
C3929 C 0.5098 0.64795 0.22553 0.0
C3930 C 0.52314 0.63343 0.22488 0.0
C3931 C 0.53948 0.63544 0.21421 0.0
H3932 H 0.82499 0.54193 0.20863 0.0
H3933 H 0.88281 0.52983 0.19488 0.0
H3934 H 0.82579 0.51762 0.2329 0.0
H3935 H 0.88346 0.50535 0.21856 0.0
H3936 H 0.88626 0.46986 0.26904 0.0
H3937 H 0.88347 0.49928 0.25144 0.0
H3938 H 0.82698 0.484 0.23519 0.0
H3939 H 0.82974 0.45505 0.25342 0.0
C3940 C 0.83783 0.53405 0.21074 0.0
C3941 C 0.85382 0.53778 0.1998 0.0
C3942 C 0.8383 0.52012 0.22463 0.0
C3943 C 0.85474 0.5096 0.22782 0.0
C3944 C 0.87069 0.51344 0.21686 0.0
C3945 C 0.87026 0.52738 0.2031 0.0
C3946 C 0.87306 0.47325 0.26225 0.0
C3947 C 0.85814 0.46047 0.26265 0.0
C3948 C 0.87151 0.48991 0.25196 0.0
C3949 C 0.85511 0.49386 0.2416 0.0
C3950 C 0.83974 0.48153 0.24309 0.0
C3951 C 0.84127 0.46497 0.25353 0.0
H3952 H 0.32819 0.98791 0.62672 0.0
H3953 H 0.29508 0.96121 0.6699 0.0
H3954 H 0.3043 0.01183 0.62289 0.0
H3955 H 0.27051 0.98487 0.66554 0.0
H3956 H 0.24493 0.04525 0.6682 0.0
H3957 H 0.26395 0.01695 0.67111 0.0
H3958 H 0.27418 0.01797 0.61123 0.0
H3959 H 0.25591 0.04688 0.60867 0.0
C3960 C 0.31566 0.98706 0.63529 0.0
C3961 C 0.31352 0.97272 0.64865 0.0
C3962 C 0.3018 1.00068 0.63294 0.0
C3963 C 0.28525 1.00019 0.64369 0.0
C3964 C 0.2831 0.98578 0.65709 0.0
C3965 C 0.29716 0.97223 0.65962 0.0
C3966 C 0.25083 0.03907 0.65561 0.0
C3967 C 0.24907 0.04822 0.63822 0.0
C3968 C 0.26176 0.02284 0.65725 0.0
C3969 C 0.27097 0.01534 0.64147 0.0
C3970 C 0.26779 0.02366 0.62379 0.0
C3971 C 0.25713 0.04007 0.62222 0.0
H3972 H 0.46476 0.2566 0.60868 0.0
H3973 H 0.46801 0.24677 0.66836 0.0
H3974 H 0.49436 0.27381 0.60986 0.0
H3975 H 0.49707 0.26472 0.66989 0.0
H3976 H 0.55333 0.29357 0.66715 0.0
H3977 H 0.5291 0.2696 0.66318 0.0
H3978 H 0.50267 0.30377 0.6204 0.0
H3979 H 0.52717 0.32709 0.62382 0.0
C3980 C 0.47203 0.25789 0.62199 0.0
C3981 C 0.46415 0.25042 0.63842 0.0
C3982 C 0.48887 0.26792 0.62276 0.0
C3983 C 0.49797 0.27107 0.64005 0.0
C3984 C 0.49062 0.26252 0.65629 0.0
C3985 C 0.47393 0.25221 0.65545 0.0
C3986 C 0.5424 0.29582 0.6568 0.0
C3987 C 0.54213 0.31224 0.64584 0.0
C3988 C 0.52846 0.28212 0.65455 0.0
C3989 C 0.51386 0.28465 0.64143 0.0
C3990 C 0.51385 0.30102 0.63034 0.0
C3991 C 0.52785 0.31455 0.63243 0.0
H3992 H 0.1896 0.53362 0.67297 0.0
H3993 H 0.20621 0.54887 0.6166 0.0
H3994 H 0.20966 0.50596 0.67143 0.0
H3995 H 0.22621 0.52097 0.61505 0.0
H3996 H 0.27256 0.47617 0.62727 0.0
H3997 H 0.25535 0.50606 0.62982 0.0
H3998 H 0.20785 0.47646 0.65313 0.0
H3999 H 0.22494 0.44703 0.65084 0.0
C4000 C 0.19754 0.5311 0.66025 0.0
C4001 C 0.19617 0.54335 0.64484 0.0
C4002 C 0.20902 0.51523 0.65937 0.0
C4003 C 0.21944 0.51128 0.64309 0.0
C4004 C 0.21845 0.52376 0.62783 0.0
C4005 C 0.20687 0.53962 0.62867 0.0
C4006 C 0.25848 0.47619 0.63299 0.0
C4007 C 0.24998 0.45932 0.63864 0.0
C4008 C 0.24861 0.4932 0.63436 0.0
C4009 C 0.23028 0.49356 0.64171 0.0
C4010 C 0.22201 0.47668 0.6476 0.0
C4011 C 0.23173 0.45979 0.64609 0.0
H4012 H 0.03874 0.27722 0.64055 0.0
H4013 H 0.06746 0.23209 0.66914 0.0
H4014 H 0.00874 0.26083 0.64507 0.0
H4015 H 0.03791 0.2156 0.67327 0.0
H4016 H 0.98053 0.19535 0.6895 0.0
H4017 H 0.00787 0.21595 0.68895 0.0
H4018 H 0.99448 0.23219 0.632 0.0
H4019 H 0.96694 0.21193 0.63268 0.0
C4020 C 0.03856 0.26395 0.64801 0.0
C4021 C 0.05536 0.25579 0.65431 0.0
C4022 C 0.02148 0.2545 0.65046 0.0
C4023 C 0.02097 0.23684 0.65941 0.0
C4024 C 0.03774 0.22922 0.66647 0.0
C4025 C 0.0547 0.23858 0.66396 0.0
C4026 C 0.98339 0.20336 0.67689 0.0
C4027 C 0.97166 0.20187 0.66108 0.0
C4028 C 0.99906 0.21516 0.67656 0.0
C4029 C 1.00336 0.22571 0.66042 0.0
C4030 C 0.99142 0.22447 0.64475 0.0
C4031 C 0.97575 0.21269 0.64507 0.0
H4032 H 0.23469 0.47174 0.87543 0.0
H4033 H 0.27483 0.44472 0.83902 0.0
H4034 H 0.25132 0.50176 0.87141 0.0
H4035 H 0.29133 0.47446 0.83489 0.0
H4036 H 0.31046 0.53378 0.82201 0.0
H4037 H 0.28829 0.50748 0.82216 0.0
H4038 H 0.28376 0.5117 0.8825 0.0
H4039 H 0.30582 0.53782 0.8824 0.0
C4040 C 0.24685 0.47237 0.86632 0.0
C4041 C 0.25366 0.45605 0.85764 0.0
C4042 C 0.25638 0.48942 0.86407 0.0
C4043 C 0.27263 0.49039 0.85286 0.0
C4044 C 0.27876 0.4742 0.84344 0.0
C4045 C 0.26943 0.45718 0.8459 0.0
C4046 C 0.30459 0.52917 0.83526 0.0
C4047 C 0.31003 0.5377 0.8522 0.0
C4048 C 0.29193 0.51415 0.83535 0.0
C4049 C 0.28429 0.50761 0.85234 0.0
C4050 C 0.28924 0.5166 0.86918 0.0
C4051 C 0.30204 0.53141 0.86912 0.0
H4052 H 0.04864 0.24556 0.84576 0.0
H4053 H 0.04701 0.25584 0.90543 0.0
H4054 H 0.02018 0.26408 0.84162 0.0
H4055 H 0.01795 0.27365 0.90158 0.0
H4056 H 0.98702 0.32704 0.88504 0.0
H4057 H 0.01138 0.30376 0.89 0.0
H4058 H 0.98776 0.26954 0.84568 0.0
H4059 H 0.96373 0.29347 0.8402 0.0
C4060 C 0.04173 0.2512 0.85808 0.0
C4061 C 0.04999 0.24938 0.8759 0.0
C4062 C 0.0254 0.26185 0.85573 0.0
C4063 C 0.01691 0.27071 0.87122 0.0
C4064 C 0.02441 0.26751 0.88926 0.0
C4065 C 0.0409 0.25713 0.89154 0.0
C4066 C 0.98701 0.31455 0.87635 0.0
C4067 C 0.97352 0.31212 0.86217 0.0
C4068 C 1.00088 0.30104 0.87933 0.0
C4069 C 1.00147 0.28458 0.8684 0.0
C4070 C 0.98786 0.2821 0.85426 0.0
C4071 C 0.97408 0.29579 0.8511 0.0
H4072 H 0.21188 0.96556 0.89412 0.0
H4073 H 0.20623 0.97767 0.83495 0.0
H4074 H 0.23473 0.9907 0.89725 0.0
H4075 H 0.22854 1.00351 0.83818 0.0
H4076 H 0.2772 0.0425 0.8458 0.0
H4077 H 0.26007 0.01295 0.84356 0.0
H4078 H 0.23514 0.02355 0.89789 0.0
H4079 H 0.25311 0.05238 0.90057 0.0
C4080 C 0.21545 0.97371 0.88178 0.0
C4081 C 0.20712 0.96978 0.86432 0.0
C4082 C 0.22853 0.98818 0.88358 0.0
C4083 C 0.23342 0.99932 0.86802 0.0
C4084 C 0.22535 0.9951 0.85043 0.0
C4085 C 0.21243 0.98039 0.84858 0.0
C4086 C 0.26853 0.0382 0.85753 0.0
C4087 C 0.26643 0.04988 0.87332 0.0
C4088 C 0.25844 0.0214 0.8561 0.0
C4089 C 0.24594 0.01594 0.87039 0.0
C4090 C 0.24469 0.02714 0.88663 0.0
C4091 C 0.25488 0.04382 0.88811 0.0
H4092 H 0.55373 0.21344 0.84321 0.0
H4093 H 0.53215 0.18137 0.8899 0.0
H4094 H 0.52852 0.23637 0.84725 0.0
H4095 H 0.50653 0.20353 0.89339 0.0
H4096 H 0.46852 0.25091 0.90586 0.0
H4097 H 0.49792 0.23347 0.90318 0.0
H4098 H 0.49623 0.24048 0.84282 0.0
H4099 H 0.46748 0.25877 0.84582 0.0
C4100 C 0.54349 0.21123 0.85422 0.0
C4101 C 0.54489 0.19565 0.86624 0.0
C4102 C 0.52901 0.22433 0.85654 0.0
C4103 C 0.51546 0.22195 0.87074 0.0
C4104 C 0.51691 0.20621 0.88263 0.0
C4105 C 0.53152 0.19334 0.88052 0.0
C4106 C 0.47479 0.24907 0.89212 0.0
C4107 C 0.46586 0.25617 0.87606 0.0
C4108 C 0.49148 0.23889 0.8905 0.0
C4109 C 0.49934 0.23518 0.87272 0.0
C4110 C 0.49079 0.24315 0.85675 0.0
C4111 C 0.47429 0.25364 0.85844 0.0
H4112 H 0.66593 0.285 0.07018 0.0
H4113 H 0.64015 0.23727 0.0431 0.0
H4114 H 0.66813 0.30109 0.04013 0.0
H4115 H 0.64261 0.25336 0.01266 0.0
H4116 H 0.62696 0.30058 0.9696 0.0
H4117 H 0.62749 0.28131 0.99792 0.0
H4118 H 0.68398 0.29997 0.00965 0.0
H4119 H 0.6834 0.31945 0.98144 0.0
C4120 C 0.66084 0.27791 0.05771 0.0
C4121 C 0.65265 0.25999 0.05897 0.0
C4122 C 0.66227 0.28705 0.04047 0.0
C4123 C 0.65551 0.27853 0.02402 0.0
C4124 C 0.64778 0.26035 0.02515 0.0
C4125 C 0.64648 0.25109 0.04249 0.0
C4126 C 0.63952 0.30055 0.97819 0.0
C4127 C 0.65509 0.31169 0.97336 0.0
C4128 C 0.63988 0.28935 0.99432 0.0
C4129 C 0.65577 0.28911 0.00602 0.0
C4130 C 0.67146 0.3 1.00101 0.0
C4131 C 0.67113 0.31114 0.98483 0.0
H4132 H 0.63547 0.21386 0.54202 0.0
H4133 H 0.69573 0.20701 0.54052 0.0
H4134 H 0.63716 0.23577 0.5159 0.0
H4135 H 0.69742 0.22916 0.5142 0.0
H4136 H 0.68222 0.24111 0.45023 0.0
H4137 H 0.68654 0.22649 0.48092 0.0
H4138 H 0.64877 0.26716 0.50545 0.0
H4139 H 0.64442 0.28174 0.4745 0.0
C4140 C 0.64912 0.21717 0.5362 0.0
C4141 C 0.66546 0.20853 0.54316 0.0
C4142 C 0.65011 0.22993 0.52137 0.0
C4143 C 0.66743 0.23424 0.51304 0.0
C4144 C 0.68387 0.22604 0.52034 0.0
C4145 C 0.6829 0.21338 0.53537 0.0
C4146 C 0.67527 0.2472 0.46231 0.0
C4147 C 0.66288 0.2624 0.46009 0.0
C4148 C 0.6778 0.23891 0.47988 0.0
C4149 C 0.66785 0.24557 0.49555 0.0
C4150 C 0.65647 0.26164 0.49355 0.0
C4151 C 0.65407 0.27006 0.47594 0.0
H4152 H 0.25962 0.61429 0.4552 0.0
H4153 H 0.2387 0.6709 0.46169 0.0
H4154 H 0.27663 0.61714 0.48462 0.0
H4155 H 0.25488 0.67342 0.49179 0.0
H4156 H 0.3089 0.6797 0.52794 0.0
H4157 H 0.28665 0.67705 0.50192 0.0
H4158 H 0.27554 0.61939 0.51751 0.0
H4159 H 0.29829 0.62187 0.54284 0.0
C4160 C 0.25833 0.62722 0.46314 0.0
C4161 C 0.24798 0.64243 0.45598 0.0
C4162 C 0.26795 0.62881 0.48014 0.0
C4163 C 0.2673 0.6456 0.49055 0.0
C4164 C 0.25598 0.66042 0.48397 0.0
C4165 C 0.24645 0.65886 0.46685 0.0
C4166 C 0.30158 0.66654 0.52581 0.0
C4167 C 0.30554 0.65091 0.53717 0.0
C4168 C 0.28872 0.66502 0.511 0.0
C4169 C 0.27939 0.64792 0.50747 0.0
C4170 C 0.28277 0.63262 0.51949 0.0
C4171 C 0.29579 0.63406 0.53405 0.0
H4172 H 0.83172 0.3175 0.53161 0.0
H4173 H 0.887 0.30122 0.55076 0.0
H4174 H 0.83536 0.29744 0.50413 0.0
H4175 H 0.89074 0.2814 0.52306 0.0
H4176 H 0.8591 0.2815 0.44691 0.0
H4177 H 0.85454 0.29873 0.47592 0.0
H4178 H 0.87862 0.25259 0.50723 0.0
H4179 H 0.88372 0.23536 0.47775 0.0
C4180 C 0.84464 0.30966 0.52996 0.0
C4181 C 0.85912 0.31108 0.54328 0.0
C4182 C 0.84675 0.29819 0.5142 0.0
C4183 C 0.86338 0.28791 0.5114 0.0
C4184 C 0.8777 0.289 0.52493 0.0
C4185 C 0.8756 0.3005 0.5407 0.0
C4186 C 0.86364 0.27507 0.45994 0.0
C4187 C 0.8721 0.25722 0.46005 0.0
C4188 C 0.86077 0.28485 0.47661 0.0
C4189 C 0.86616 0.277 0.49387 0.0
C4190 C 0.87446 0.25904 0.49409 0.0
C4191 C 0.8773 0.24915 0.47729 0.0
H4192 H 0.21765 0.83222 0.54712 0.0
H4193 H 0.18912 0.88013 0.52315 0.0
H4194 H 0.24181 0.83452 0.52285 0.0
H4195 H 0.21259 0.882 0.49862 0.0
H4196 H 0.26166 0.8919 0.46293 0.0
H4197 H 0.24369 0.89023 0.49205 0.0
H4198 H 0.24698 0.82956 0.49037 0.0
H4199 H 0.26579 0.83149 0.4618 0.0
C4200 C 0.21647 0.84313 0.53658 0.0
C4201 C 0.20151 0.856 0.53705 0.0
C4202 C 0.2303 0.84446 0.52266 0.0
C4203 C 0.22934 0.85859 0.50882 0.0
C4204 C 0.21419 0.87128 0.50929 0.0
C4205 C 0.20056 0.87008 0.52328 0.0
C4206 C 0.25902 0.87829 0.46921 0.0
C4207 C 0.26509 0.86184 0.46025 0.0
C4208 C 0.2485 0.87726 0.48572 0.0
C4209 C 0.24343 0.85973 0.49337 0.0
C4210 C 0.25065 0.84331 0.48502 0.0
C4211 C 0.26146 0.84438 0.46865 0.0
H4212 H 0.89866 0.24762 0.05712 0.0
H4213 H 0.84465 0.2725 0.04495 0.0
H4214 H 0.89692 0.22972 0.02814 0.0
H4215 H 0.84345 0.25553 0.01533 0.0
H4216 H 0.83493 0.20107 0.98111 0.0
H4217 H 0.83782 0.22386 0.00654 0.0
H4218 H 0.89723 0.22897 0.99516 0.0
H4219 H 0.89441 0.20563 0.9704 0.0
C4220 C 0.88662 0.24961 0.04803 0.0
C4221 C 0.87171 0.2613 0.05351 0.0
C4222 C 0.88568 0.23946 0.03128 0.0
C4223 C 0.86989 0.24095 0.01947 0.0
C4224 C 0.85562 0.25372 0.02429 0.0
C4225 C 0.85647 0.26373 0.04115 0.0
C4226 C 0.84856 0.20715 0.98404 0.0
C4227 C 0.86447 0.20139 0.97398 0.0
C4228 C 0.85022 0.22034 0.9985 0.0
C4229 C 0.8678 0.22824 1.003 0.0
C4230 C 0.88356 0.22292 0.99238 0.0
C4231 C 0.88193 0.20956 0.97814 0.0
H4232 H 0.31186 0.87575 0.96883 0.0
H4233 H 0.31135 0.81526 0.9635 0.0
H4234 H 0.28685 0.87405 0.99185 0.0
H4235 H 0.286 0.81358 0.98671 0.0
H4236 H 0.2655 0.82333 0.0497 0.0
H4237 H 0.28414 0.82008 0.02116 0.0
H4238 H 0.25334 0.86591 0.9959 0.0
H4239 H 0.23499 0.86942 0.02466 0.0
C4240 C 0.30632 0.86206 0.9725 0.0
C4241 C 0.3137 0.84562 0.96448 0.0
C4242 C 0.29179 0.86111 0.98554 0.0
C4243 C 0.28434 0.84369 0.99099 0.0
C4244 C 0.2915 0.8272 0.98277 0.0
C4245 C 0.30599 0.82817 0.96952 0.0
C4246 C 0.26245 0.83242 0.03787 0.0
C4247 C 0.24903 0.84682 0.03947 0.0
C4248 C 0.27302 0.83048 0.02149 0.0
C4249 C 0.27039 0.84294 0.00642 0.0
C4250 C 0.25585 0.85629 0.00743 0.0
C4251 C 0.24523 0.85819 0.02381 0.0
H4252 H 0.25763 0.61458 0.04361 0.0
H4253 H 0.26949 0.67381 0.03928 0.0
H4254 H 0.23939 0.61607 0.0146 0.0
H4255 H 0.25043 0.67572 0.01089 0.0
H4256 H 0.21822 0.67248 0.95574 0.0
H4257 H 0.24319 0.66886 0.97914 0.0
H4258 H 0.20934 0.62791 0.00857 0.0
H4259 H 0.18507 0.63098 0.98495 0.0
C4260 C 0.25665 0.62781 0.03615 0.0
C4261 C 0.2649 0.64406 0.04357 0.0
C4262 C 0.246 0.62878 0.0197 0.0
C4263 C 0.24297 0.64613 0.01064 0.0
C4264 C 0.25247 0.6621 0.01737 0.0
C4265 C 0.26343 0.66104 0.03364 0.0
C4266 C 0.21622 0.66274 0.96726 0.0
C4267 C 0.19973 0.652 0.96853 0.0
C4268 C 0.2305 0.66063 0.98065 0.0
C4269 C 0.22845 0.64789 0.99566 0.0
C4270 C 0.21177 0.63741 0.99694 0.0
C4271 C 0.19769 0.63934 0.9835 0.0
H4272 H 0.03753 0.3323 0.70214 0.0
H4273 H 0.04825 0.39184 0.7058 0.0
H4274 H 0.01184 0.33554 0.72451 0.0
H4275 H 0.02339 0.39506 0.72898 0.0
H4276 H 0.96173 0.39823 0.74676 0.0
H4277 H 0.99106 0.39564 0.72983 0.0
H4278 H 1.00077 0.3411 0.75486 0.0
H4279 H 0.97054 0.34315 0.77069 0.0
C4280 C 0.0346 0.34603 0.70804 0.0
C4281 C 0.04466 0.36186 0.70203 0.0
C4282 C 0.01995 0.34791 0.72101 0.0
C4283 C 0.01529 0.36563 0.72854 0.0
C4284 C 0.02613 0.38127 0.72318 0.0
C4285 C 0.04048 0.37944 0.70993 0.0
C4286 C 0.97014 0.3857 0.74872 0.0
C4287 C 0.96355 0.37077 0.75984 0.0
C4288 C 0.98718 0.38428 0.73916 0.0
C4289 C 0.99835 0.36802 0.7407 0.0
C4290 C 0.99239 0.35365 0.75293 0.0
C4291 C 0.97517 0.35497 0.76231 0.0
H4292 H 0.11368 0.96453 0.76365 0.0
H4293 H 0.17389 0.95948 0.76118 0.0
H4294 H 0.11527 0.99395 0.74603 0.0
H4295 H 0.17567 0.98795 0.74241 0.0
H4296 H 0.17602 0.04493 0.71555 0.0
H4297 H 0.17379 0.01973 0.73858 0.0
H4298 H 0.11956 1.00422 0.71586 0.0
H4299 H 0.12138 0.0303 0.69388 0.0
C4300 C 0.12727 0.96996 0.75953 0.0
C4301 C 0.14368 0.96001 0.76391 0.0
C4302 C 0.12823 0.98663 0.74914 0.0
C4303 C 0.14559 0.99336 0.7424 0.0
C4304 C 0.16205 0.98358 0.7475 0.0
C4305 C 0.16109 0.9672 0.75826 0.0
C4306 C 0.16363 0.0361 0.71558 0.0
C4307 C 0.1489 0.0395 0.70292 0.0
C4308 C 0.16234 0.02156 0.72874 0.0
C4309 C 0.14649 0.00972 0.72922 0.0
C4310 C 0.13181 0.01319 0.71638 0.0
C4311 C 0.13291 0.02804 0.70357 0.0
H4312 H 0.55228 0.16926 0.76679 0.0
H4313 H 0.5513 0.10963 0.75614 0.0
H4314 H 0.524 0.17325 0.74785 0.0
H4315 H 0.52246 0.11331 0.73796 0.0
H4316 H 0.49142 0.12915 0.68474 0.0
H4317 H 0.516 0.12491 0.7079 0.0
H4318 H 0.49158 0.16889 0.74197 0.0
H4319 H 0.46726 0.17365 0.71812 0.0
C4320 C 0.54556 0.15692 0.76095 0.0
C4321 C 0.55393 0.13915 0.76283 0.0
C4322 C 0.52935 0.15918 0.75006 0.0
C4323 C 0.52109 0.14366 0.74101 0.0
C4324 C 0.52873 0.12567 0.74422 0.0
C4325 C 0.5451 0.12348 0.75482 0.0
C4326 C 0.49127 0.13793 0.69717 0.0
C4327 C 0.47742 0.15175 0.6996 0.0
C4328 C 0.50528 0.13536 0.71061 0.0
C4329 C 0.50569 0.14634 0.72704 0.0
C4330 C 0.49181 0.16024 0.72946 0.0
C4331 C 0.47786 0.16299 0.71581 0.0
H4332 H 0.33155 0.48233 0.69759 0.0
H4333 H 0.38749 0.46258 0.71045 0.0
H4334 H 0.33657 0.50951 0.71793 0.0
H4335 H 0.39235 0.4895 0.73095 0.0
H4336 H 0.40095 0.55253 0.74544 0.0
H4337 H 0.39653 0.5233 0.72812 0.0
H4338 H 0.34064 0.51818 0.75104 0.0
H4339 H 0.34488 0.54771 0.76792 0.0
C4340 C 0.34487 0.48374 0.7048 0.0
C4341 C 0.35913 0.47033 0.70233 0.0
C4342 C 0.3477 0.49923 0.71658 0.0
C4343 C 0.36485 0.50165 0.72612 0.0
C4344 C 0.37906 0.48817 0.72368 0.0
C4345 C 0.37623 0.4727 0.71194 0.0
C4346 C 0.38782 0.54502 0.74697 0.0
C4347 C 0.37327 0.55247 0.75801 0.0
C4348 C 0.3853 0.52823 0.73711 0.0
C4349 C 0.36814 0.51851 0.73803 0.0
C4350 C 0.35391 0.52549 0.7498 0.0
C4351 C 0.35646 0.54226 0.75971 0.0
H4352 H 0.97441 0.13559 0.73956 0.0
H4353 H 0.94285 0.1419 0.7911 0.0
H4354 H 1.00363 0.14053 0.75726 0.0
H4355 H 0.97188 0.14564 0.80851 0.0
H4356 H 0.02952 0.12401 0.83182 0.0
H4357 H 1.00172 0.12049 0.81206 0.0
H4358 H 0.01671 0.17064 0.78154 0.0
H4359 H 0.04455 0.17451 0.8017 0.0
C4360 C 0.97364 0.13794 0.75457 0.0
C4361 C 0.95621 0.13791 0.76389 0.0
C4362 C 0.99034 0.14075 0.76464 0.0
C4363 C 0.98986 0.14332 0.78418 0.0
C4364 C 0.97256 0.14346 0.79346 0.0
C4365 C 0.95595 0.14103 0.78344 0.0
C4366 C 0.02694 0.13429 0.82088 0.0
C4367 C 0.03913 0.14957 0.8183 0.0
C4368 C 0.01106 0.13225 0.80961 0.0
C4369 C 0.00726 0.14523 0.79528 0.0
C4370 C 0.01953 0.1604 0.79244 0.0
C4371 C 0.03528 0.16268 0.80403 0.0
H4372 H 0.38844 0.02015 0.82545 0.0
H4373 H 0.34393 0.04544 0.79286 0.0
H4374 H 0.39195 0.99574 0.80202 0.0
H4375 H 0.34795 0.02128 0.76874 0.0
H4376 H 0.34599 0.96081 0.74363 0.0
H4377 H 0.34287 0.98898 0.76282 0.0
H4378 H 0.40295 0.98933 0.77174 0.0
H4379 H 0.40576 0.96057 0.75328 0.0
C4380 C 0.37951 0.02059 0.81313 0.0
C4381 C 0.36589 0.0347 0.811 0.0
C4382 C 0.38166 0.00667 0.79954 0.0
C4383 C 0.37044 0.00662 0.78326 0.0
C4384 C 0.35676 0.02078 0.78113 0.0
C4385 C 0.35444 0.03463 0.79493 0.0
C4386 C 0.35855 0.96723 0.74932 0.0
C4387 C 0.37611 0.95854 0.74708 0.0
C4388 C 0.35679 0.98339 0.76034 0.0
C4389 C 0.3726 0.99129 0.76917 0.0
C4390 C 0.39037 0.98333 0.76564 0.0
C4391 C 0.39207 0.96701 0.75489 0.0
H4392 H 0.48205 0.33216 0.81598 0.0
H4393 H 0.46137 0.38707 0.80031 0.0
H4394 H 0.50779 0.33554 0.79365 0.0
H4395 H 0.48684 0.39027 0.77775 0.0
H4396 H 0.54941 0.39784 0.76071 0.0
H4397 H 0.52043 0.39478 0.77856 0.0
H4398 H 0.51522 0.33716 0.76016 0.0
H4399 H 0.54461 0.34015 0.74268 0.0
C4400 C 0.48294 0.34491 0.80772 0.0
C4401 C 0.46974 0.3594 0.81004 0.0
C4402 C 0.49758 0.34677 0.79477 0.0
C4403 C 0.49934 0.36316 0.78384 0.0
C4404 C 0.48601 0.37755 0.78606 0.0
C4405 C 0.4714 0.3757 0.799 0.0
C4406 C 0.54187 0.38464 0.7602 0.0
C4407 C 0.54932 0.36921 0.75041 0.0
C4408 C 0.52522 0.38288 0.77038 0.0
C4409 C 0.51563 0.36563 0.771 0.0
C4410 C 0.52246 0.35054 0.76023 0.0
C4411 C 0.53913 0.35232 0.74998 0.0
H4412 H 0.1794 0.47615 0.81053 0.0
H4413 H 0.12369 0.46054 0.7922 0.0
H4414 H 0.17785 0.50427 0.791 0.0
H4415 H 0.12205 0.48883 0.77292 0.0
H4416 H 0.1311 0.53535 0.72908 0.0
H4417 H 0.13538 0.50499 0.74501 0.0
H4418 H 0.16031 0.53354 0.79242 0.0
H4419 H 0.15642 0.56345 0.77648 0.0
C4420 C 0.16684 0.47869 0.80232 0.0
C4421 C 0.15162 0.46618 0.80305 0.0
C4422 C 0.16593 0.49483 0.79115 0.0
C4423 C 0.14979 0.49883 0.78045 0.0
C4424 C 0.13476 0.48606 0.78082 0.0
C4425 C 0.13565 0.46993 0.79202 0.0
C4426 C 0.13765 0.535 0.74282 0.0
C4427 C 0.14319 0.55174 0.75166 0.0
C4428 C 0.14 0.5177 0.75198 0.0
C4429 C 0.14816 0.51686 0.77001 0.0
C4430 C 0.15417 0.53362 0.7785 0.0
C4431 C 0.15173 0.5508 0.76944 0.0
H4432 H 0.7733 0.96703 0.3773 0.0
H4433 H 0.72726 0.9376 0.35101 0.0
H4434 H 0.75611 0.99674 0.37384 0.0
H4435 H 0.71001 0.96692 0.34797 0.0
H4436 H 0.70789 0.03854 0.38772 0.0
H4437 H 0.72774 0.01066 0.38814 0.0
H4438 H 0.70978 0.99706 0.33178 0.0
H4439 H 0.68964 0.02483 0.33145 0.0
C4440 C 0.75961 0.96697 0.37065 0.0
C4441 C 0.75149 0.95004 0.36465 0.0
C4442 C 0.74972 0.98389 0.3688 0.0
C4443 C 0.73165 0.98415 0.36072 0.0
C4444 C 0.72393 0.96726 0.3541 0.0
C4445 C 0.73373 0.95043 0.35603 0.0
C4446 C 0.70815 0.0296 0.37541 0.0
C4447 C 0.69708 0.03382 0.35959 0.0
C4448 C 0.71969 0.01374 0.37559 0.0
C4449 C 0.72038 1.00169 0.35998 0.0
C4450 C 0.70943 0.00599 0.34409 0.0
C4451 C 0.6979 0.0219 0.34389 0.0
H4452 H 0.46284 0.70796 0.38367 0.0
H4453 H 0.47924 0.68811 0.32871 0.0
H4454 H 0.4909 0.72757 0.385 0.0
H4455 H 0.50716 0.70788 0.32999 0.0
H4456 H 0.56569 0.72499 0.35117 0.0
H4457 H 0.53639 0.70775 0.34824 0.0
H4458 H 0.50604 0.75557 0.37003 0.0
H4459 H 0.53573 0.77285 0.37329 0.0
C4460 C 0.4724 0.70781 0.37185 0.0
C4461 C 0.46888 0.69635 0.35614 0.0
C4462 C 0.48838 0.71919 0.37255 0.0
C4463 C 0.50124 0.71927 0.35761 0.0
C4464 C 0.4976 0.70798 0.34181 0.0
C4465 C 0.48158 0.69668 0.34107 0.0
C4466 C 0.55277 0.73183 0.35539 0.0
C4467 C 0.55299 0.75018 0.36269 0.0
C4468 C 0.53596 0.72201 0.35352 0.0
C4469 C 0.5189 0.73028 0.3589 0.0
C4470 C 0.51902 0.74879 0.36592 0.0
C4471 C 0.53593 0.75871 0.36767 0.0
H4472 H 0.79871 0.46329 0.38896 0.0
H4473 H 0.80421 0.47542 0.32983 0.0
H4474 H 0.77588 0.4885 0.39213 0.0
H4475 H 0.78213 0.50149 0.33309 0.0
H4476 H 0.73688 0.54399 0.34121 0.0
H4477 H 0.75159 0.51313 0.33864 0.0
H4478 H 0.77711 0.52102 0.39324 0.0
H4479 H 0.76146 0.55107 0.39624 0.0
C4480 C 0.79503 0.47144 0.37663 0.0
C4481 C 0.80339 0.46764 0.35921 0.0
C4482 C 0.78199 0.48595 0.37845 0.0
C4483 C 0.77734 0.49732 0.36296 0.0
C4484 C 0.78517 0.49295 0.34531 0.0
C4485 C 0.79795 0.47812 0.34343 0.0
C4486 C 0.74514 0.53882 0.3529 0.0
C4487 C 0.74818 0.55008 0.36885 0.0
C4488 C 0.75383 0.52125 0.35131 0.0
C4489 C 0.76582 0.51462 0.36558 0.0
C4490 C 0.76789 0.52546 0.38199 0.0
C4491 C 0.75907 0.54287 0.38364 0.0
H4492 H 0.02219 0.83024 0.38238 0.0
H4493 H 0.04589 0.7999 0.33552 0.0
H4494 H 0.99859 0.80607 0.38622 0.0
H4495 H 0.0225 0.7751 0.33978 0.0
H4496 H 0.96173 0.74988 0.33955 0.0
H4497 H 0.9898 0.76916 0.33588 0.0
H4498 H 0.99352 0.77498 0.39624 0.0
H4499 H 0.96494 0.75642 0.39968 0.0
C4500 C 0.02246 0.81828 0.37298 0.0
C4501 C 0.03588 0.81702 0.35861 0.0
C4502 C 0.00902 0.80425 0.37531 0.0
C4503 C 0.00873 0.78843 0.36348 0.0
C4504 C 0.02221 0.78713 0.34908 0.0
C4505 C 0.03562 0.80133 0.34663 0.0
C4506 C 0.96891 0.75487 0.35202 0.0
C4507 C 0.96119 0.75179 0.36989 0.0
C4508 C 0.98499 0.76594 0.34994 0.0
C4509 C 0.99374 0.774 0.36574 0.0
C4510 C 0.98684 0.76949 0.38372 0.0
C4511 C 0.97062 0.75868 0.38575 0.0
H4512 H 0.6812 0.48514 0.12266 0.0
H4513 H 0.71728 0.45881 0.16378 0.0
H4514 H 0.70464 0.50924 0.11736 0.0
H4515 H 0.74123 0.48266 0.15796 0.0
H4516 H 0.76456 0.54384 0.16136 0.0
H4517 H 0.74653 0.51494 0.16424 0.0
H4518 H 0.73422 0.5168 0.10477 0.0
H4519 H 0.7517 0.54618 0.10218 0.0
C4520 C 0.69429 0.48434 0.13038 0.0
C4521 C 0.6973 0.47014 0.14375 0.0
C4522 C 0.70786 0.4981 0.1272 0.0
C4523 C 0.72494 0.49793 0.13716 0.0
C4524 C 0.72816 0.4834 0.1502 0.0
C4525 C 0.71446 0.46969 0.15351 0.0
C4526 C 0.75844 0.53776 0.14882 0.0
C4527 C 0.75942 0.54727 0.13156 0.0
C4528 C 0.74806 0.52116 0.15045 0.0
C4529 C 0.73859 0.51365 0.1348 0.0
C4530 C 0.74088 0.52243 0.11723 0.0
C4531 C 0.75105 0.53915 0.11566 0.0
H4532 H 0.0218 0.69354 0.12633 0.0
H4533 H 0.04435 0.72508 0.17299 0.0
H4534 H 0.99541 0.71494 0.12442 0.0
H4535 H 0.01821 0.74723 0.17059 0.0
H4536 H 0.95567 0.76522 0.17579 0.0
H4537 H 0.98579 0.74908 0.17672 0.0
H4538 H 0.98526 0.74505 0.11608 0.0
H4539 H 0.9546 0.76039 0.11541 0.0
C4540 C 0.02123 0.70524 0.13604 0.0
C4541 C 0.03508 0.70759 0.14988 0.0
C4542 C 0.00616 0.71768 0.13483 0.0
C4543 C 1.00468 0.73299 0.14724 0.0
C4544 C 0.01875 0.7355 0.16093 0.0
C4545 C 0.03374 0.72284 0.16231 0.0
C4546 C 0.96226 0.76126 0.16266 0.0
C4547 C 0.95284 0.76391 0.14553 0.0
C4548 C 0.97956 0.75202 0.16316 0.0
C4549 C 0.98788 0.74543 0.1465 0.0
C4550 C 0.97903 0.74943 0.12924 0.0
C4551 C 0.96158 0.75838 0.12878 0.0
H4552 H 0.82863 0.02441 0.12832 0.0
H4553 H 0.79364 0.05061 0.17035 0.0
H4554 H 0.80429 1.00137 0.12224 0.0
H4555 H 0.76882 0.02789 0.16377 0.0
H4556 H 0.74315 0.96759 0.16473 0.0
H4557 H 0.76224 0.99564 0.16877 0.0
H4558 H 0.77431 0.99583 0.10925 0.0
H4559 H 0.75574 0.96725 0.10548 0.0
C4560 C 0.81562 0.02538 0.13612 0.0
C4561 C 0.81312 0.03923 0.14992 0.0
C4562 C 0.80152 0.01227 0.13249 0.0
C4563 C 0.78446 0.01279 0.14241 0.0
C4564 C 0.78184 0.02692 0.156 0.0
C4565 C 0.79606 0.03995 0.15977 0.0
C4566 C 0.74943 0.97398 0.15244 0.0
C4567 C 0.74809 0.96523 0.13481 0.0
C4568 C 0.76042 0.99008 0.15473 0.0
C4569 C 0.77015 0.99784 0.1394 0.0
C4570 C 0.76745 0.98993 0.12147 0.0
C4571 C 0.75666 0.9737 0.11923 0.0
H4572 H 0.53481 0.73732 0.14025 0.0
H4573 H 0.56819 0.78691 0.15093 0.0
H4574 H 0.5061 0.75595 0.14527 0.0
H4575 H 0.53983 0.80529 0.15516 0.0
H4576 H 0.48668 0.83428 0.13256 0.0
H4577 H 0.51335 0.81305 0.12981 0.0
H4578 H 0.49058 0.77813 0.17377 0.0
H4579 H 0.4637 0.79966 0.17679 0.0
C4580 C 0.53604 0.75209 0.14368 0.0
C4581 C 0.55378 0.76073 0.14463 0.0
C4582 C 0.51966 0.7627 0.14657 0.0
C4583 C 0.52086 0.78205 0.15033 0.0
C4584 C 0.53856 0.79046 0.15195 0.0
C4585 C 0.55479 0.77992 0.14932 0.0
C4586 C 0.48728 0.82208 0.14165 0.0
C4587 C 0.47317 0.81868 0.15498 0.0
C4588 C 0.50255 0.80995 0.14006 0.0
C4589 C 0.50394 0.794 0.15157 0.0
C4590 C 0.4897 0.7903 0.16468 0.0
C4591 C 0.47448 0.80268 0.16651 0.0
H4592 H 0.33932 0.70341 0.02399 0.0
H4593 H 0.39819 0.7074 0.038 0.0
H4594 H 0.34441 0.72392 0.99692 0.0
H4595 H 0.40316 0.72837 0.01158 0.0
H4596 H 0.40952 0.74308 0.94922 0.0
H4597 H 0.40477 0.72641 0.97861 0.0
H4598 H 0.35171 0.75492 0.98618 0.0
H4599 H 0.35601 0.7708 0.95617 0.0
C4600 C 0.35328 0.70886 0.02142 0.0
C4601 C 0.36838 0.7036 0.03296 0.0
C4602 C 0.3562 0.72073 0.00599 0.0
C4603 C 0.37425 0.72775 1.00195 0.0
C4604 C 0.38917 0.72294 0.01396 0.0
C4605 C 0.38629 0.71094 0.02918 0.0
C4606 C 0.3969 0.74589 0.95722 0.0
C4607 C 0.38311 0.75818 0.95024 0.0
C4608 C 0.39422 0.73645 0.9742 0.0
C4609 C 0.37775 0.73917 0.98476 0.0
C4610 C 0.3644 0.75222 0.97826 0.0
C4611 C 0.36703 0.76159 0.96119 0.0
H4612 H 0.34734 0.74096 0.54035 0.0
H4613 H 0.40691 0.7511 0.54404 0.0
H4614 H 0.34606 0.75818 0.51085 0.0
H4615 H 0.40596 0.76763 0.51399 0.0
H4616 H 0.39162 0.82048 0.48024 0.0
H4617 H 0.39533 0.79738 0.50497 0.0
H4618 H 0.35301 0.76254 0.47881 0.0
H4619 H 0.34875 0.78626 0.45436 0.0
C4620 C 0.3603 0.74627 0.53443 0.0
C4621 C 0.37721 0.74481 0.54448 0.0
C4622 C 0.35959 0.75617 0.51748 0.0
C4623 C 0.37585 0.76465 0.51011 0.0
C4624 C 0.39305 0.76178 0.51948 0.0
C4625 C 0.39368 0.75214 0.53657 0.0
C4626 C 0.38319 0.80783 0.47966 0.0
C4627 C 0.36977 0.80528 0.46543 0.0
C4628 C 0.38545 0.79443 0.49379 0.0
C4629 C 0.37452 0.77796 0.49396 0.0
C4630 C 0.36148 0.77515 0.47933 0.0
C4631 C 0.35907 0.78871 0.46528 0.0
H4632 H 0.75323 0.40589 0.54309 0.0
H4633 H 0.76129 0.34584 0.54342 0.0
H4634 H 0.7364 0.40356 0.51329 0.0
H4635 H 0.74371 0.34322 0.51415 0.0
H4636 H 0.68325 0.38936 0.4804 0.0
H4637 H 0.70619 0.39329 0.50524 0.0
H4638 H 0.73966 0.34847 0.48158 0.0
H4639 H 0.71611 0.34404 0.45699 0.0
C4640 C 0.75166 0.39224 0.53655 0.0
C4641 C 0.75851 0.37606 0.54548 0.0
C4642 C 0.74184 0.39083 0.51961 0.0
C4643 C 0.7383 0.37315 0.51146 0.0
C4644 C 0.74625 0.35709 0.51986 0.0
C4645 C 0.75634 0.35856 0.53666 0.0
C4646 C 0.69554 0.38039 0.48041 0.0
C4647 C 0.6978 0.36632 0.46678 0.0
C4648 C 0.70886 0.38277 0.49459 0.0
C4649 C 0.72493 0.3713 0.49542 0.0
C4650 C 0.72738 0.35743 0.48153 0.0
C4651 C 0.71391 0.35492 0.46739 0.0
H4652 H 0.13355 0.77957 0.53667 0.0
H4653 H 0.15687 0.73108 0.56472 0.0
H4654 H 0.13717 0.76356 0.50629 0.0
H4655 H 0.16022 0.71511 0.53473 0.0
H4656 H 0.17902 0.69733 0.47689 0.0
H4657 H 0.17807 0.71655 0.50525 0.0
H4658 H 0.12246 0.73576 0.49045 0.0
H4659 H 0.12345 0.71672 0.46198 0.0
C4660 C 0.13954 0.76558 0.5363 0.0
C4661 C 0.14471 0.75646 0.55301 0.0
C4662 C 0.14151 0.75638 0.51899 0.0
C4663 C 0.14895 0.73805 0.51814 0.0
C4664 C 0.15461 0.72926 0.53486 0.0
C4665 C 0.15251 0.73834 0.55206 0.0
C4666 C 0.16662 0.70571 0.47963 0.0
C4667 C 0.15125 0.70538 0.46725 0.0
C4668 C 0.16606 0.7167 0.49589 0.0
C4669 C 0.15017 0.72765 0.50009 0.0
C4670 C 0.13498 0.72765 0.48749 0.0
C4671 C 0.13549 0.71658 0.47128 0.0
H4672 H 0.73564 0.13512 0.54477 0.0
H4673 H 0.78409 0.15632 0.57444 0.0
H4674 H 0.75221 0.13946 0.51484 0.0
H4675 H 0.80066 0.16023 0.54491 0.0
H4676 H 0.79877 0.12655 0.4705 0.0
H4677 H 0.77949 0.1249 0.4987 0.0
H4678 H 0.80046 0.17907 0.51622 0.0
H4679 H 0.82 0.18063 0.48811 0.0
C4680 C 0.74976 0.14074 0.54487 0.0
C4681 C 0.75868 0.14511 0.56192 0.0
C4682 C 0.75928 0.14313 0.5278 0.0
C4683 C 0.77777 0.15016 0.52753 0.0
C4684 C 0.7864 0.15496 0.54459 0.0
C4685 C 0.77698 0.15248 0.56154 0.0
C4686 C 0.79926 0.13814 0.48034 0.0
C4687 C 0.81105 0.15366 0.47715 0.0
C4688 C 0.78805 0.13726 0.49642 0.0
C4689 C 0.78845 0.15184 0.5097 0.0
C4690 C 0.8 0.16752 0.50634 0.0
C4691 C 0.81116 0.16843 0.49022 0.0
H4692 H 0.17352 0.8177 0.01545 0.0
H4693 H 0.11562 0.80834 0.03083 0.0
H4694 H 0.17071 0.79392 0.99084 0.0
H4695 H 0.11301 0.78422 0.00688 0.0
H4696 H 0.10879 0.76227 0.94627 0.0
H4697 H 0.11125 0.78225 0.97382 0.0
H4698 H 0.16709 0.76086 0.98443 0.0
H4699 H 0.16486 0.74144 0.95621 0.0
C4700 C 0.16025 0.81049 0.01365 0.0
C4701 C 0.14475 0.81504 0.02494 0.0
C4702 C 0.15868 0.79672 0.99969 0.0
C4703 C 0.14161 0.78712 0.99686 0.0
C4704 C 0.12626 0.79152 0.00843 0.0
C4705 C 0.12778 0.80536 0.0222 0.0
C4706 C 0.12147 0.76162 0.95467 0.0
C4707 C 0.13667 0.7504 0.94901 0.0
C4708 C 0.12288 0.77301 0.97054 0.0
C4709 C 0.13948 0.77336 0.98126 0.0
C4710 C 0.15425 0.7612 0.97628 0.0
C4711 C 0.15285 0.74983 0.9603 0.0
H4712 H 0.7676 0.17122 0.96573 0.0
H4713 H 0.75999 0.1113 0.97026 0.0
H4714 H 0.74908 0.17586 0.99416 0.0
H4715 H 0.74227 0.11568 0.99924 0.0
H4716 H 0.68944 0.13047 0.03115 0.0
H4717 H 0.7119 0.12613 0.00601 0.0
H4718 H 0.74442 0.17297 0.02696 0.0
H4719 H 0.72123 0.17779 0.05184 0.0
C4720 C 0.7625 0.15901 0.97324 0.0
C4721 C 0.76512 0.14092 0.96584 0.0
C4722 C 0.75186 0.16164 0.98954 0.0
C4723 C 0.74382 0.14617 0.99887 0.0
C4724 C 0.74773 0.12797 0.99215 0.0
C4725 C 0.75808 0.12539 0.97569 0.0
C4726 C 0.70138 0.13986 0.03042 0.0
C4727 C 0.70357 0.15447 0.04347 0.0
C4728 C 0.71443 0.13725 0.01608 0.0
C4729 C 0.73022 0.149 0.01454 0.0
C4730 C 0.73238 0.16372 0.0276 0.0
C4731 C 0.71912 0.16648 0.04187 0.0
H4732 H 0.73232 0.38402 0.97063 0.0
H4733 H 0.7794 0.35923 0.94155 0.0
H4734 H 0.74881 0.37963 1.00067 0.0
H4735 H 0.79583 0.35519 0.97118 0.0
H4736 H 0.81245 0.3333 0.02849 0.0
H4737 H 0.79332 0.33629 1.00017 0.0
H4738 H 0.77763 0.39258 0.01655 0.0
H4739 H 0.79659 0.38956 0.04494 0.0
C4740 C 0.74616 0.3777 0.97068 0.0
C4741 C 0.7547 0.37225 0.95377 0.0
C4742 C 0.75561 0.37525 0.98779 0.0
C4743 C 0.77359 0.36703 0.98824 0.0
C4744 C 0.78193 0.36137 0.97132 0.0
C4745 C 0.77261 0.36394 0.95432 0.0
C4746 C 0.80486 0.34627 0.02609 0.0
C4747 C 0.80614 0.36123 0.03887 0.0
C4748 C 0.79394 0.34801 0.00986 0.0
C4749 C 0.78401 0.3647 0.00614 0.0
C4750 C 0.78496 0.37949 0.01914 0.0
C4751 C 0.79597 0.3778 0.03531 0.0
loop_
_geom_bond_atom_site_label_1
_geom_bond_atom_site_label_2
_geom_bond_distance
_geom_bond_site_symmetry_2
_ccdc_geom_bond_type
O0 Tb1 2.292 . S
O0 C3 1.255 . S
Tb1 O0 2.292 . S
Tb1 O17 2.326 . S
Tb1 O19 2.500 . S
Tb1 O20 2.473 . S
Tb1 O23 2.324 . S
Eu2 O6 2.292 . S
Eu2 C7 2.852 . S
Eu2 O18 2.324 . S
Eu2 O22 2.326 . S
Eu2 O24 2.500 . S
Eu2 O25 2.473 . S
C3 O0 1.255 . S
C3 O4 1.247 . S
O4 C3 1.247 . S
C5 O17 1.242 . S
C5 O18 1.258 . S
O6 Eu2 2.292 . S
O6 C8 1.255 . S
C7 Eu2 2.852 . S
C7 C11 1.503 . S
C7 O24 1.273 . S
C7 O25 1.257 . S
C8 O6 1.255 . S
C8 O9 1.247 . S
O9 C8 1.247 . S
C10 O22 1.242 . S
C10 O23 1.258 . S
C11 C7 1.503 . S
C11 C12 1.379 . S
C11 C16 1.392 . S
C12 C11 1.379 . S
C12 C13 1.404 . S
C12 H26 0.929 . S
C13 C12 1.404 . S
C13 C14 1.389 . S
C14 C13 1.389 . S
C14 C15 1.399 . S
C14 H27 0.931 . S
C15 C14 1.399 . S
C15 C16 1.390 . S
C16 C11 1.392 . S
C16 C15 1.390 . S
C16 H28 0.929 . S
O17 Tb1 2.326 . S
O17 C5 1.242 . S
O18 Eu2 2.324 . S
O18 C5 1.258 . S
O19 Tb1 2.500 . S
O19 C21 1.273 . S
O20 Tb1 2.473 . S
O20 C21 1.257 . S
C21 O19 1.273 . S
C21 O20 1.257 . S
O22 Eu2 2.326 . S
O22 C10 1.242 . S
O23 Tb1 2.324 . S
O23 C10 1.258 . S
O24 Eu2 2.500 . S
O24 C7 1.273 . S
O25 Eu2 2.473 . S
O25 C7 1.257 . S
H26 C12 0.929 . S
H27 C14 0.931 . S
H28 C16 0.929 . S
O29 Tb30 2.292 . S
O29 C32 1.255 . S
Tb30 O29 2.292 . S
Tb30 O46 2.326 . S
Tb30 O48 2.500 . S
Tb30 O49 2.473 . S
Tb30 O52 2.324 . S
Eu31 O35 2.292 . S
Eu31 C36 2.852 . S
Eu31 O47 2.324 . S
Eu31 O51 2.326 . S
Eu31 O53 2.500 . S
Eu31 O54 2.473 . S
C32 O29 1.255 . S
C32 O33 1.247 . S
O33 C32 1.247 . S
C34 O46 1.242 . S
C34 O47 1.258 . S
O35 Eu31 2.292 . S
O35 C37 1.255 . S
C36 Eu31 2.852 . S
C36 C40 1.503 . S
C36 O53 1.273 . S
C36 O54 1.257 . S
C37 O35 1.255 . S
C37 O38 1.247 . S
O38 C37 1.247 . S
C39 O51 1.242 . S
C39 O52 1.258 . S
C40 C36 1.503 . S
C40 C41 1.379 . S
C40 C45 1.392 . S
C41 C40 1.379 . S
C41 C42 1.404 . S
C41 H55 0.929 . S
C42 C41 1.404 . S
C42 C43 1.389 . S
C43 C42 1.389 . S
C43 C44 1.399 . S
C43 H56 0.931 . S
C44 C43 1.399 . S
C44 C45 1.390 . S
C45 C40 1.392 . S
C45 C44 1.390 . S
C45 H57 0.929 . S
O46 Tb30 2.326 . S
O46 C34 1.242 . S
O47 Eu31 2.324 . S
O47 C34 1.258 . S
O48 Tb30 2.500 . S
O48 C50 1.273 . S
O49 Tb30 2.473 . S
O49 C50 1.257 . S
C50 O48 1.273 . S
C50 O49 1.257 . S
O51 Eu31 2.326 . S
O51 C39 1.242 . S
O52 Tb30 2.324 . S
O52 C39 1.258 . S
O53 Eu31 2.500 . S
O53 C36 1.273 . S
O54 Eu31 2.473 . S
O54 C36 1.257 . S
H55 C41 0.929 . S
H56 C43 0.931 . S
H57 C45 0.929 . S
O58 Tb59 2.292 . S
O58 C61 1.255 . S
Tb59 O58 2.292 . S
Tb59 O75 2.326 . S
Tb59 O77 2.500 . S
Tb59 O78 2.473 . S
Tb59 O81 2.324 . S
Eu60 O64 2.292 . S
Eu60 C65 2.852 . S
Eu60 O76 2.324 . S
Eu60 O80 2.326 . S
Eu60 O82 2.500 . S
Eu60 O83 2.473 . S
C61 O58 1.255 . S
C61 O62 1.247 . S
O62 C61 1.247 . S
C63 O75 1.242 . S
C63 O76 1.258 . S
O64 Eu60 2.292 . S
O64 C66 1.255 . S
C65 Eu60 2.852 . S
C65 C69 1.503 . S
C65 O82 1.273 . S
C65 O83 1.257 . S
C66 O64 1.255 . S
C66 O67 1.247 . S
O67 C66 1.247 . S
C68 O80 1.242 . S
C68 O81 1.258 . S
C69 C65 1.503 . S
C69 C70 1.379 . S
C69 C74 1.392 . S
C70 C69 1.379 . S
C70 C71 1.404 . S
C70 H84 0.929 . S
C71 C70 1.404 . S
C71 C72 1.389 . S
C72 C71 1.389 . S
C72 C73 1.399 . S
C72 H85 0.931 . S
C73 C72 1.399 . S
C73 C74 1.390 . S
C74 C69 1.392 . S
C74 C73 1.390 . S
C74 H86 0.929 . S
O75 Tb59 2.326 . S
O75 C63 1.242 . S
O76 Eu60 2.324 . S
O76 C63 1.258 . S
O77 Tb59 2.500 . S
O77 C79 1.273 . S
O78 Tb59 2.473 . S
O78 C79 1.257 . S
C79 O77 1.273 . S
C79 O78 1.257 . S
O80 Eu60 2.326 . S
O80 C68 1.242 . S
O81 Tb59 2.324 . S
O81 C68 1.258 . S
O82 Eu60 2.500 . S
O82 C65 1.273 . S
O83 Eu60 2.473 . S
O83 C65 1.257 . S
H84 C70 0.929 . S
H85 C72 0.931 . S
H86 C74 0.929 . S
O87 Tb88 2.292 . S
O87 C90 1.255 . S
Tb88 O87 2.292 . S
Tb88 O104 2.326 . S
Tb88 O106 2.500 . S
Tb88 O107 2.473 . S
Tb88 O110 2.324 . S
Eu89 O93 2.292 . S
Eu89 C94 2.852 . S
Eu89 O105 2.324 . S
Eu89 O109 2.326 . S
Eu89 O111 2.500 . S
Eu89 O112 2.473 . S
C90 O87 1.255 . S
C90 O91 1.247 . S
O91 C90 1.247 . S
C92 O104 1.242 . S
C92 O105 1.258 . S
O93 Eu89 2.292 . S
O93 C95 1.255 . S
C94 Eu89 2.852 . S
C94 C98 1.503 . S
C94 O111 1.273 . S
C94 O112 1.257 . S
C95 O93 1.255 . S
C95 O96 1.247 . S
O96 C95 1.247 . S
C97 O109 1.242 . S
C97 O110 1.258 . S
C98 C94 1.503 . S
C98 C99 1.379 . S
C98 C103 1.392 . S
C99 C98 1.379 . S
C99 C100 1.404 . S
C99 H113 0.929 . S
C100 C99 1.404 . S
C100 C101 1.389 . S
C101 C100 1.389 . S
C101 C102 1.399 . S
C101 H114 0.931 . S
C102 C101 1.399 . S
C102 C103 1.390 . S
C103 C98 1.392 . S
C103 C102 1.390 . S
C103 H115 0.929 . S
O104 Tb88 2.326 . S
O104 C92 1.242 . S
O105 Eu89 2.324 . S
O105 C92 1.258 . S
O106 Tb88 2.500 . S
O106 C108 1.273 . S
O107 Tb88 2.473 . S
O107 C108 1.257 . S
C108 O106 1.273 . S
C108 O107 1.257 . S
O109 Eu89 2.326 . S
O109 C97 1.242 . S
O110 Tb88 2.324 . S
O110 C97 1.258 . S
O111 Eu89 2.500 . S
O111 C94 1.273 . S
O112 Eu89 2.473 . S
O112 C94 1.257 . S
H113 C99 0.929 . S
H114 C101 0.931 . S
H115 C103 0.929 . S
O116 Tb117 2.292 . S
O116 C119 1.255 . S
Tb117 O116 2.292 . S
Tb117 O133 2.326 . S
Tb117 O135 2.500 . S
Tb117 O136 2.473 . S
Tb117 O139 2.324 . S
Eu118 O122 2.292 . S
Eu118 C123 2.852 . S
Eu118 O134 2.324 . S
Eu118 O138 2.326 . S
Eu118 O140 2.500 . S
Eu118 O141 2.473 . S
C119 O116 1.255 . S
C119 O120 1.247 . S
O120 C119 1.247 . S
C121 O133 1.242 . S
C121 O134 1.258 . S
O122 Eu118 2.292 . S
O122 C124 1.255 . S
C123 Eu118 2.852 . S
C123 C127 1.503 . S
C123 O140 1.273 . S
C123 O141 1.257 . S
C124 O122 1.255 . S
C124 O125 1.247 . S
O125 C124 1.247 . S
C126 O138 1.242 . S
C126 O139 1.258 . S
C127 C123 1.503 . S
C127 C128 1.379 . S
C127 C132 1.392 . S
C128 C127 1.379 . S
C128 C129 1.404 . S
C128 H142 0.929 . S
C129 C128 1.404 . S
C129 C130 1.389 . S
C130 C129 1.389 . S
C130 C131 1.399 . S
C130 H143 0.931 . S
C131 C130 1.399 . S
C131 C132 1.390 . S
C132 C127 1.392 . S
C132 C131 1.390 . S
C132 H144 0.929 . S
O133 Tb117 2.326 . S
O133 C121 1.242 . S
O134 Eu118 2.324 . S
O134 C121 1.258 . S
O135 Tb117 2.500 . S
O135 C137 1.273 . S
O136 Tb117 2.473 . S
O136 C137 1.257 . S
C137 O135 1.273 . S
C137 O136 1.257 . S
O138 Eu118 2.326 . S
O138 C126 1.242 . S
O139 Tb117 2.324 . S
O139 C126 1.258 . S
O140 Eu118 2.500 . S
O140 C123 1.273 . S
O141 Eu118 2.473 . S
O141 C123 1.257 . S
H142 C128 0.929 . S
H143 C130 0.931 . S
H144 C132 0.929 . S
O145 Tb146 2.292 . S
O145 C148 1.255 . S
Tb146 O145 2.292 . S
Tb146 O162 2.326 . S
Tb146 O164 2.500 . S
Tb146 O165 2.473 . S
Tb146 O168 2.324 . S
Eu147 O151 2.292 . S
Eu147 C152 2.852 . S
Eu147 O163 2.324 . S
Eu147 O167 2.326 . S
Eu147 O169 2.500 . S
Eu147 O170 2.473 . S
C148 O145 1.255 . S
C148 O149 1.247 . S
O149 C148 1.247 . S
C150 O162 1.242 . S
C150 O163 1.258 . S
O151 Eu147 2.292 . S
O151 C153 1.255 . S
C152 Eu147 2.852 . S
C152 C156 1.503 . S
C152 O169 1.273 . S
C152 O170 1.257 . S
C153 O151 1.255 . S
C153 O154 1.247 . S
O154 C153 1.247 . S
C155 O167 1.242 . S
C155 O168 1.258 . S
C156 C152 1.503 . S
C156 C157 1.379 . S
C156 C161 1.392 . S
C157 C156 1.379 . S
C157 C158 1.404 . S
C157 H171 0.929 . S
C158 C157 1.404 . S
C158 C159 1.389 . S
C159 C158 1.389 . S
C159 C160 1.399 . S
C159 H172 0.931 . S
C160 C159 1.399 . S
C160 C161 1.390 . S
C161 C156 1.392 . S
C161 C160 1.390 . S
C161 H173 0.929 . S
O162 Tb146 2.326 . S
O162 C150 1.242 . S
O163 Eu147 2.324 . S
O163 C150 1.258 . S
O164 Tb146 2.500 . S
O164 C166 1.273 . S
O165 Tb146 2.473 . S
O165 C166 1.257 . S
C166 O164 1.273 . S
C166 O165 1.257 . S
O167 Eu147 2.326 . S
O167 C155 1.242 . S
O168 Tb146 2.324 . S
O168 C155 1.258 . S
O169 Eu147 2.500 . S
O169 C152 1.273 . S
O170 Eu147 2.473 . S
O170 C152 1.257 . S
H171 C157 0.929 . S
H172 C159 0.931 . S
H173 C161 0.929 . S
O174 Tb175 2.292 . S
O174 C177 1.255 . S
Tb175 O174 2.292 . S
Tb175 O191 2.326 . S
Tb175 O193 2.500 . S
Tb175 O194 2.473 . S
Tb175 O197 2.324 . S
Eu176 O180 2.292 . S
Eu176 C181 2.852 . S
Eu176 O192 2.324 . S
Eu176 O196 2.326 . S
Eu176 O198 2.500 . S
Eu176 O199 2.473 . S
C177 O174 1.255 . S
C177 O178 1.247 . S
O178 C177 1.247 . S
C179 O191 1.242 . S
C179 O192 1.258 . S
O180 Eu176 2.292 . S
O180 C182 1.255 . S
C181 Eu176 2.852 . S
C181 C185 1.503 . S
C181 O198 1.273 . S
C181 O199 1.257 . S
C182 O180 1.255 . S
C182 O183 1.247 . S
O183 C182 1.247 . S
C184 O196 1.242 . S
C184 O197 1.258 . S
C185 C181 1.503 . S
C185 C186 1.379 . S
C185 C190 1.392 . S
C186 C185 1.379 . S
C186 C187 1.404 . S
C186 H200 0.929 . S
C187 C186 1.404 . S
C187 C188 1.389 . S
C188 C187 1.389 . S
C188 C189 1.399 . S
C188 H201 0.931 . S
C189 C188 1.399 . S
C189 C190 1.390 . S
C190 C185 1.392 . S
C190 C189 1.390 . S
C190 H202 0.929 . S
O191 Tb175 2.326 . S
O191 C179 1.242 . S
O192 Eu176 2.324 . S
O192 C179 1.258 . S
O193 Tb175 2.500 . S
O193 C195 1.273 . S
O194 Tb175 2.473 . S
O194 C195 1.257 . S
C195 O193 1.273 . S
C195 O194 1.257 . S
O196 Eu176 2.326 . S
O196 C184 1.242 . S
O197 Tb175 2.324 . S
O197 C184 1.258 . S
O198 Eu176 2.500 . S
O198 C181 1.273 . S
O199 Eu176 2.473 . S
O199 C181 1.257 . S
H200 C186 0.929 . S
H201 C188 0.931 . S
H202 C190 0.929 . S
O203 Tb204 2.292 . S
O203 C206 1.255 . S
Tb204 O203 2.292 . S
Tb204 O220 2.326 . S
Tb204 O222 2.500 . S
Tb204 O223 2.473 . S
Tb204 O226 2.324 . S
Eu205 O209 2.292 . S
Eu205 C210 2.852 . S
Eu205 O221 2.324 . S
Eu205 O225 2.326 . S
Eu205 O227 2.500 . S
Eu205 O228 2.473 . S
C206 O203 1.255 . S
C206 O207 1.247 . S
O207 C206 1.247 . S
C208 O220 1.242 . S
C208 O221 1.258 . S
O209 Eu205 2.292 . S
O209 C211 1.255 . S
C210 Eu205 2.852 . S
C210 C214 1.503 . S
C210 O227 1.273 . S
C210 O228 1.257 . S
C211 O209 1.255 . S
C211 O212 1.247 . S
O212 C211 1.247 . S
C213 O225 1.242 . S
C213 O226 1.258 . S
C214 C210 1.503 . S
C214 C215 1.379 . S
C214 C219 1.392 . S
C215 C214 1.379 . S
C215 C216 1.404 . S
C215 H229 0.929 . S
C216 C215 1.404 . S
C216 C217 1.389 . S
C217 C216 1.389 . S
C217 C218 1.399 . S
C217 H230 0.931 . S
C218 C217 1.399 . S
C218 C219 1.390 . S
C219 C214 1.392 . S
C219 C218 1.390 . S
C219 H231 0.929 . S
O220 Tb204 2.326 . S
O220 C208 1.242 . S
O221 Eu205 2.324 . S
O221 C208 1.258 . S
O222 Tb204 2.500 . S
O222 C224 1.273 . S
O223 Tb204 2.473 . S
O223 C224 1.257 . S
C224 O222 1.273 . S
C224 O223 1.257 . S
O225 Eu205 2.326 . S
O225 C213 1.242 . S
O226 Tb204 2.324 . S
O226 C213 1.258 . S
O227 Eu205 2.500 . S
O227 C210 1.273 . S
O228 Eu205 2.473 . S
O228 C210 1.257 . S
H229 C215 0.929 . S
H230 C217 0.931 . S
H231 C219 0.929 . S
O232 Tb233 2.292 . S
O232 C235 1.255 . S
Tb233 O232 2.292 . S
Tb233 O249 2.326 . S
Tb233 O251 2.500 . S
Tb233 O252 2.473 . S
Tb233 O255 2.324 . S
Eu234 O238 2.292 . S
Eu234 C239 2.852 . S
Eu234 O250 2.324 . S
Eu234 O254 2.326 . S
Eu234 O256 2.500 . S
Eu234 O257 2.473 . S
C235 O232 1.255 . S
C235 O236 1.247 . S
O236 C235 1.247 . S
C237 O249 1.242 . S
C237 O250 1.258 . S
O238 Eu234 2.292 . S
O238 C240 1.255 . S
C239 Eu234 2.852 . S
C239 C243 1.503 . S
C239 O256 1.273 . S
C239 O257 1.257 . S
C240 O238 1.255 . S
C240 O241 1.247 . S
O241 C240 1.247 . S
C242 O254 1.242 . S
C242 O255 1.258 . S
C243 C239 1.503 . S
C243 C244 1.379 . S
C243 C248 1.392 . S
C244 C243 1.379 . S
C244 C245 1.404 . S
C244 H258 0.929 . S
C245 C244 1.404 . S
C245 C246 1.389 . S
C246 C245 1.389 . S
C246 C247 1.399 . S
C246 H259 0.931 . S
C247 C246 1.399 . S
C247 C248 1.390 . S
C248 C243 1.392 . S
C248 C247 1.390 . S
C248 H260 0.929 . S
O249 Tb233 2.326 . S
O249 C237 1.242 . S
O250 Eu234 2.324 . S
O250 C237 1.258 . S
O251 Tb233 2.500 . S
O251 C253 1.273 . S
O252 Tb233 2.473 . S
O252 C253 1.257 . S
C253 O251 1.273 . S
C253 O252 1.257 . S
O254 Eu234 2.326 . S
O254 C242 1.242 . S
O255 Tb233 2.324 . S
O255 C242 1.258 . S
O256 Eu234 2.500 . S
O256 C239 1.273 . S
O257 Eu234 2.473 . S
O257 C239 1.257 . S
H258 C244 0.929 . S
H259 C246 0.931 . S
H260 C248 0.929 . S
O261 Tb262 2.292 . S
O261 C264 1.255 . S
Tb262 O261 2.292 . S
Tb262 O278 2.326 . S
Tb262 O280 2.500 . S
Tb262 O281 2.473 . S
Tb262 O284 2.324 . S
Eu263 O267 2.292 . S
Eu263 C268 2.852 . S
Eu263 O279 2.324 . S
Eu263 O283 2.326 . S
Eu263 O285 2.500 . S
Eu263 O286 2.473 . S
C264 O261 1.255 . S
C264 O265 1.247 . S
O265 C264 1.247 . S
C266 O278 1.242 . S
C266 O279 1.258 . S
O267 Eu263 2.292 . S
O267 C269 1.255 . S
C268 Eu263 2.852 . S
C268 C272 1.503 . S
C268 O285 1.273 . S
C268 O286 1.257 . S
C269 O267 1.255 . S
C269 O270 1.247 . S
O270 C269 1.247 . S
C271 O283 1.242 . S
C271 O284 1.258 . S
C272 C268 1.503 . S
C272 C273 1.379 . S
C272 C277 1.392 . S
C273 C272 1.379 . S
C273 C274 1.404 . S
C273 H287 0.929 . S
C274 C273 1.404 . S
C274 C275 1.389 . S
C275 C274 1.389 . S
C275 C276 1.399 . S
C275 H288 0.931 . S
C276 C275 1.399 . S
C276 C277 1.390 . S
C277 C272 1.392 . S
C277 C276 1.390 . S
C277 H289 0.929 . S
O278 Tb262 2.326 . S
O278 C266 1.242 . S
O279 Eu263 2.324 . S
O279 C266 1.258 . S
O280 Tb262 2.500 . S
O280 C282 1.273 . S
O281 Tb262 2.473 . S
O281 C282 1.257 . S
C282 O280 1.273 . S
C282 O281 1.257 . S
O283 Eu263 2.326 . S
O283 C271 1.242 . S
O284 Tb262 2.324 . S
O284 C271 1.258 . S
O285 Eu263 2.500 . S
O285 C268 1.273 . S
O286 Eu263 2.473 . S
O286 C268 1.257 . S
H287 C273 0.929 . S
H288 C275 0.931 . S
H289 C277 0.929 . S
O290 Tb291 2.292 . S
O290 C293 1.255 . S
Tb291 O290 2.292 . S
Tb291 O307 2.326 . S
Tb291 O309 2.500 . S
Tb291 O310 2.473 . S
Tb291 O313 2.324 . S
Eu292 O296 2.292 . S
Eu292 C297 2.852 . S
Eu292 O308 2.324 . S
Eu292 O312 2.326 . S
Eu292 O314 2.500 . S
Eu292 O315 2.473 . S
C293 O290 1.255 . S
C293 O294 1.247 . S
O294 C293 1.247 . S
C295 O307 1.242 . S
C295 O308 1.258 . S
O296 Eu292 2.292 . S
O296 C298 1.255 . S
C297 Eu292 2.852 . S
C297 C301 1.503 . S
C297 O314 1.273 . S
C297 O315 1.257 . S
C298 O296 1.255 . S
C298 O299 1.247 . S
O299 C298 1.247 . S
C300 O312 1.242 . S
C300 O313 1.258 . S
C301 C297 1.503 . S
C301 C302 1.379 . S
C301 C306 1.392 . S
C302 C301 1.379 . S
C302 C303 1.404 . S
C302 H316 0.929 . S
C303 C302 1.404 . S
C303 C304 1.389 . S
C304 C303 1.389 . S
C304 C305 1.399 . S
C304 H317 0.931 . S
C305 C304 1.399 . S
C305 C306 1.390 . S
C306 C301 1.392 . S
C306 C305 1.390 . S
C306 H318 0.929 . S
O307 Tb291 2.326 . S
O307 C295 1.242 . S
O308 Eu292 2.324 . S
O308 C295 1.258 . S
O309 Tb291 2.500 . S
O309 C311 1.273 . S
O310 Tb291 2.473 . S
O310 C311 1.257 . S
C311 O309 1.273 . S
C311 O310 1.257 . S
O312 Eu292 2.326 . S
O312 C300 1.242 . S
O313 Tb291 2.324 . S
O313 C300 1.258 . S
O314 Eu292 2.500 . S
O314 C297 1.273 . S
O315 Eu292 2.473 . S
O315 C297 1.257 . S
H316 C302 0.929 . S
H317 C304 0.931 . S
H318 C306 0.929 . S
O319 Tb320 2.292 . S
O319 C322 1.255 . S
Tb320 O319 2.292 . S
Tb320 O336 2.326 . S
Tb320 O338 2.500 . S
Tb320 O339 2.473 . S
Tb320 O342 2.324 . S
Eu321 O325 2.292 . S
Eu321 C326 2.852 . S
Eu321 O337 2.324 . S
Eu321 O341 2.326 . S
Eu321 O343 2.500 . S
Eu321 O344 2.473 . S
C322 O319 1.255 . S
C322 O323 1.247 . S
O323 C322 1.247 . S
C324 O336 1.242 . S
C324 O337 1.258 . S
O325 Eu321 2.292 . S
O325 C327 1.255 . S
C326 Eu321 2.852 . S
C326 C330 1.503 . S
C326 O343 1.273 . S
C326 O344 1.257 . S
C327 O325 1.255 . S
C327 O328 1.247 . S
O328 C327 1.247 . S
C329 O341 1.242 . S
C329 O342 1.258 . S
C330 C326 1.503 . S
C330 C331 1.379 . S
C330 C335 1.392 . S
C331 C330 1.379 . S
C331 C332 1.404 . S
C331 H345 0.929 . S
C332 C331 1.404 . S
C332 C333 1.389 . S
C333 C332 1.389 . S
C333 C334 1.399 . S
C333 H346 0.931 . S
C334 C333 1.399 . S
C334 C335 1.390 . S
C335 C330 1.392 . S
C335 C334 1.390 . S
C335 H347 0.929 . S
O336 Tb320 2.326 . S
O336 C324 1.242 . S
O337 Eu321 2.324 . S
O337 C324 1.258 . S
O338 Tb320 2.500 . S
O338 C340 1.273 . S
O339 Tb320 2.473 . S
O339 C340 1.257 . S
C340 O338 1.273 . S
C340 O339 1.257 . S
O341 Eu321 2.326 . S
O341 C329 1.242 . S
O342 Tb320 2.324 . S
O342 C329 1.258 . S
O343 Eu321 2.500 . S
O343 C326 1.273 . S
O344 Eu321 2.473 . S
O344 C326 1.257 . S
H345 C331 0.929 . S
H346 C333 0.931 . S
H347 C335 0.929 . S
O348 Tb349 2.292 . S
O348 C351 1.255 . S
Tb349 O348 2.292 . S
Tb349 O365 2.326 . S
Tb349 O367 2.500 . S
Tb349 O368 2.473 . S
Tb349 O371 2.324 . S
Eu350 O354 2.292 . S
Eu350 C355 2.852 . S
Eu350 O366 2.324 . S
Eu350 O370 2.326 . S
Eu350 O372 2.500 . S
Eu350 O373 2.473 . S
C351 O348 1.255 . S
C351 O352 1.247 . S
O352 C351 1.247 . S
C353 O365 1.242 . S
C353 O366 1.258 . S
O354 Eu350 2.292 . S
O354 C356 1.255 . S
C355 Eu350 2.852 . S
C355 C359 1.503 . S
C355 O372 1.273 . S
C355 O373 1.257 . S
C356 O354 1.255 . S
C356 O357 1.247 . S
O357 C356 1.247 . S
C358 O370 1.242 . S
C358 O371 1.258 . S
C359 C355 1.503 . S
C359 C360 1.379 . S
C359 C364 1.392 . S
C360 C359 1.379 . S
C360 C361 1.404 . S
C360 H374 0.929 . S
C361 C360 1.404 . S
C361 C362 1.389 . S
C362 C361 1.389 . S
C362 C363 1.399 . S
C362 H375 0.931 . S
C363 C362 1.399 . S
C363 C364 1.390 . S
C364 C359 1.392 . S
C364 C363 1.390 . S
C364 H376 0.929 . S
O365 Tb349 2.326 . S
O365 C353 1.242 . S
O366 Eu350 2.324 . S
O366 C353 1.258 . S
O367 Tb349 2.500 . S
O367 C369 1.273 . S
O368 Tb349 2.473 . S
O368 C369 1.257 . S
C369 O367 1.273 . S
C369 O368 1.257 . S
O370 Eu350 2.326 . S
O370 C358 1.242 . S
O371 Tb349 2.324 . S
O371 C358 1.258 . S
O372 Eu350 2.500 . S
O372 C355 1.273 . S
O373 Eu350 2.473 . S
O373 C355 1.257 . S
H374 C360 0.929 . S
H375 C362 0.931 . S
H376 C364 0.929 . S
O377 Tb378 2.292 . S
O377 C380 1.255 . S
Tb378 O377 2.292 . S
Tb378 O394 2.326 . S
Tb378 O396 2.500 . S
Tb378 O397 2.473 . S
Tb378 O400 2.324 . S
Eu379 O383 2.292 . S
Eu379 C384 2.852 . S
Eu379 O395 2.324 . S
Eu379 O399 2.326 . S
Eu379 O401 2.500 . S
Eu379 O402 2.473 . S
C380 O377 1.255 . S
C380 O381 1.247 . S
O381 C380 1.247 . S
C382 O394 1.242 . S
C382 O395 1.258 . S
O383 Eu379 2.292 . S
O383 C385 1.255 . S
C384 Eu379 2.852 . S
C384 C388 1.503 . S
C384 O401 1.273 . S
C384 O402 1.257 . S
C385 O383 1.255 . S
C385 O386 1.247 . S
O386 C385 1.247 . S
C387 O399 1.242 . S
C387 O400 1.258 . S
C388 C384 1.503 . S
C388 C389 1.379 . S
C388 C393 1.392 . S
C389 C388 1.379 . S
C389 C390 1.404 . S
C389 H403 0.929 . S
C390 C389 1.404 . S
C390 C391 1.389 . S
C391 C390 1.389 . S
C391 C392 1.399 . S
C391 H404 0.931 . S
C392 C391 1.399 . S
C392 C393 1.390 . S
C393 C388 1.392 . S
C393 C392 1.390 . S
C393 H405 0.929 . S
O394 Tb378 2.326 . S
O394 C382 1.242 . S
O395 Eu379 2.324 . S
O395 C382 1.258 . S
O396 Tb378 2.500 . S
O396 C398 1.273 . S
O397 Tb378 2.473 . S
O397 C398 1.257 . S
C398 O396 1.273 . S
C398 O397 1.257 . S
O399 Eu379 2.326 . S
O399 C387 1.242 . S
O400 Tb378 2.324 . S
O400 C387 1.258 . S
O401 Eu379 2.500 . S
O401 C384 1.273 . S
O402 Eu379 2.473 . S
O402 C384 1.257 . S
H403 C389 0.929 . S
H404 C391 0.931 . S
H405 C393 0.929 . S
O406 Tb407 2.292 . S
O406 C409 1.255 . S
Tb407 O406 2.292 . S
Tb407 O423 2.326 . S
Tb407 O425 2.500 . S
Tb407 O426 2.473 . S
Tb407 O429 2.324 . S
Eu408 O412 2.292 . S
Eu408 C413 2.852 . S
Eu408 O424 2.324 . S
Eu408 O428 2.326 . S
Eu408 O430 2.500 . S
Eu408 O431 2.473 . S
C409 O406 1.255 . S
C409 O410 1.247 . S
O410 C409 1.247 . S
C411 O423 1.242 . S
C411 O424 1.258 . S
O412 Eu408 2.292 . S
O412 C414 1.255 . S
C413 Eu408 2.852 . S
C413 C417 1.503 . S
C413 O430 1.273 . S
C413 O431 1.257 . S
C414 O412 1.255 . S
C414 O415 1.247 . S
O415 C414 1.247 . S
C416 O428 1.242 . S
C416 O429 1.258 . S
C417 C413 1.503 . S
C417 C418 1.379 . S
C417 C422 1.392 . S
C418 C417 1.379 . S
C418 C419 1.404 . S
C418 H432 0.929 . S
C419 C418 1.404 . S
C419 C420 1.389 . S
C420 C419 1.389 . S
C420 C421 1.399 . S
C420 H433 0.931 . S
C421 C420 1.399 . S
C421 C422 1.390 . S
C422 C417 1.392 . S
C422 C421 1.390 . S
C422 H434 0.929 . S
O423 Tb407 2.326 . S
O423 C411 1.242 . S
O424 Eu408 2.324 . S
O424 C411 1.258 . S
O425 Tb407 2.500 . S
O425 C427 1.273 . S
O426 Tb407 2.473 . S
O426 C427 1.257 . S
C427 O425 1.273 . S
C427 O426 1.257 . S
O428 Eu408 2.326 . S
O428 C416 1.242 . S
O429 Tb407 2.324 . S
O429 C416 1.258 . S
O430 Eu408 2.500 . S
O430 C413 1.273 . S
O431 Eu408 2.473 . S
O431 C413 1.257 . S
H432 C418 0.929 . S
H433 C420 0.931 . S
H434 C422 0.929 . S
O435 Tb436 2.292 . S
O435 C438 1.255 . S
Tb436 O435 2.292 . S
Tb436 O452 2.326 . S
Tb436 O454 2.500 . S
Tb436 O455 2.473 . S
Tb436 O458 2.324 . S
Eu437 O441 2.292 . S
Eu437 C442 2.852 . S
Eu437 O453 2.324 . S
Eu437 O457 2.326 . S
Eu437 O459 2.500 . S
Eu437 O460 2.473 . S
C438 O435 1.255 . S
C438 O439 1.247 . S
O439 C438 1.247 . S
C440 O452 1.242 . S
C440 O453 1.258 . S
O441 Eu437 2.292 . S
O441 C443 1.255 . S
C442 Eu437 2.852 . S
C442 C446 1.503 . S
C442 O459 1.273 . S
C442 O460 1.257 . S
C443 O441 1.255 . S
C443 O444 1.247 . S
O444 C443 1.247 . S
C445 O457 1.242 . S
C445 O458 1.258 . S
C446 C442 1.503 . S
C446 C447 1.379 . S
C446 C451 1.392 . S
C447 C446 1.379 . S
C447 C448 1.404 . S
C447 H461 0.929 . S
C448 C447 1.404 . S
C448 C449 1.389 . S
C449 C448 1.389 . S
C449 C450 1.399 . S
C449 H462 0.931 . S
C450 C449 1.399 . S
C450 C451 1.390 . S
C451 C446 1.392 . S
C451 C450 1.390 . S
C451 H463 0.929 . S
O452 Tb436 2.326 . S
O452 C440 1.242 . S
O453 Eu437 2.324 . S
O453 C440 1.258 . S
O454 Tb436 2.500 . S
O454 C456 1.273 . S
O455 Tb436 2.473 . S
O455 C456 1.257 . S
C456 O454 1.273 . S
C456 O455 1.257 . S
O457 Eu437 2.326 . S
O457 C445 1.242 . S
O458 Tb436 2.324 . S
O458 C445 1.258 . S
O459 Eu437 2.500 . S
O459 C442 1.273 . S
O460 Eu437 2.473 . S
O460 C442 1.257 . S
H461 C447 0.929 . S
H462 C449 0.931 . S
H463 C451 0.929 . S
O464 Tb465 2.292 . S
O464 C467 1.255 . S
Tb465 O464 2.292 . S
Tb465 O481 2.326 . S
Tb465 O483 2.500 . S
Tb465 O484 2.473 . S
Tb465 O487 2.324 . S
Eu466 O470 2.292 . S
Eu466 C471 2.852 . S
Eu466 O482 2.324 . S
Eu466 O486 2.326 . S
Eu466 O488 2.500 . S
Eu466 O489 2.473 . S
C467 O464 1.255 . S
C467 O468 1.247 . S
O468 C467 1.247 . S
C469 O481 1.242 . S
C469 O482 1.258 . S
O470 Eu466 2.292 . S
O470 C472 1.255 . S
C471 Eu466 2.852 . S
C471 C475 1.503 . S
C471 O488 1.273 . S
C471 O489 1.257 . S
C472 O470 1.255 . S
C472 O473 1.247 . S
O473 C472 1.247 . S
C474 O486 1.242 . S
C474 O487 1.258 . S
C475 C471 1.503 . S
C475 C476 1.379 . S
C475 C480 1.392 . S
C476 C475 1.379 . S
C476 C477 1.404 . S
C476 H490 0.929 . S
C477 C476 1.404 . S
C477 C478 1.389 . S
C478 C477 1.389 . S
C478 C479 1.399 . S
C478 H491 0.931 . S
C479 C478 1.399 . S
C479 C480 1.390 . S
C480 C475 1.392 . S
C480 C479 1.390 . S
C480 H492 0.929 . S
O481 Tb465 2.326 . S
O481 C469 1.242 . S
O482 Eu466 2.324 . S
O482 C469 1.258 . S
O483 Tb465 2.500 . S
O483 C485 1.273 . S
O484 Tb465 2.473 . S
O484 C485 1.257 . S
C485 O483 1.273 . S
C485 O484 1.257 . S
O486 Eu466 2.326 . S
O486 C474 1.242 . S
O487 Tb465 2.324 . S
O487 C474 1.258 . S
O488 Eu466 2.500 . S
O488 C471 1.273 . S
O489 Eu466 2.473 . S
O489 C471 1.257 . S
H490 C476 0.929 . S
H491 C478 0.931 . S
H492 C480 0.929 . S
O493 Tb494 2.292 . S
O493 C496 1.255 . S
Tb494 O493 2.292 . S
Tb494 O510 2.326 . S
Tb494 O512 2.500 . S
Tb494 O513 2.473 . S
Tb494 O516 2.324 . S
Eu495 O499 2.292 . S
Eu495 C500 2.852 . S
Eu495 O511 2.324 . S
Eu495 O515 2.326 . S
Eu495 O517 2.500 . S
Eu495 O518 2.473 . S
C496 O493 1.255 . S
C496 O497 1.247 . S
O497 C496 1.247 . S
C498 O510 1.242 . S
C498 O511 1.258 . S
O499 Eu495 2.292 . S
O499 C501 1.255 . S
C500 Eu495 2.852 . S
C500 C504 1.503 . S
C500 O517 1.273 . S
C500 O518 1.257 . S
C501 O499 1.255 . S
C501 O502 1.247 . S
O502 C501 1.247 . S
C503 O515 1.242 . S
C503 O516 1.258 . S
C504 C500 1.503 . S
C504 C505 1.379 . S
C504 C509 1.392 . S
C505 C504 1.379 . S
C505 C506 1.404 . S
C505 H519 0.929 . S
C506 C505 1.404 . S
C506 C507 1.389 . S
C507 C506 1.389 . S
C507 C508 1.399 . S
C507 H520 0.931 . S
C508 C507 1.399 . S
C508 C509 1.390 . S
C509 C504 1.392 . S
C509 C508 1.390 . S
C509 H521 0.929 . S
O510 Tb494 2.326 . S
O510 C498 1.242 . S
O511 Eu495 2.324 . S
O511 C498 1.258 . S
O512 Tb494 2.500 . S
O512 C514 1.273 . S
O513 Tb494 2.473 . S
O513 C514 1.257 . S
C514 O512 1.273 . S
C514 O513 1.257 . S
O515 Eu495 2.326 . S
O515 C503 1.242 . S
O516 Tb494 2.324 . S
O516 C503 1.258 . S
O517 Eu495 2.500 . S
O517 C500 1.273 . S
O518 Eu495 2.473 . S
O518 C500 1.257 . S
H519 C505 0.929 . S
H520 C507 0.931 . S
H521 C509 0.929 . S
O522 Tb523 2.292 . S
O522 C525 1.255 . S
Tb523 O522 2.292 . S
Tb523 O539 2.326 . S
Tb523 O541 2.500 . S
Tb523 O542 2.473 . S
Tb523 O545 2.324 . S
Eu524 O528 2.292 . S
Eu524 C529 2.852 . S
Eu524 O540 2.324 . S
Eu524 O544 2.326 . S
Eu524 O546 2.500 . S
Eu524 O547 2.473 . S
C525 O522 1.255 . S
C525 O526 1.247 . S
O526 C525 1.247 . S
C527 O539 1.242 . S
C527 O540 1.258 . S
O528 Eu524 2.292 . S
O528 C530 1.255 . S
C529 Eu524 2.852 . S
C529 C533 1.503 . S
C529 O546 1.273 . S
C529 O547 1.257 . S
C530 O528 1.255 . S
C530 O531 1.247 . S
O531 C530 1.247 . S
C532 O544 1.242 . S
C532 O545 1.258 . S
C533 C529 1.503 . S
C533 C534 1.379 . S
C533 C538 1.392 . S
C534 C533 1.379 . S
C534 C535 1.404 . S
C534 H548 0.929 . S
C535 C534 1.404 . S
C535 C536 1.389 . S
C536 C535 1.389 . S
C536 C537 1.399 . S
C536 H549 0.931 . S
C537 C536 1.399 . S
C537 C538 1.390 . S
C538 C533 1.392 . S
C538 C537 1.390 . S
C538 H550 0.929 . S
O539 Tb523 2.326 . S
O539 C527 1.242 . S
O540 Eu524 2.324 . S
O540 C527 1.258 . S
O541 Tb523 2.500 . S
O541 C543 1.273 . S
O542 Tb523 2.473 . S
O542 C543 1.257 . S
C543 O541 1.273 . S
C543 O542 1.257 . S
O544 Eu524 2.326 . S
O544 C532 1.242 . S
O545 Tb523 2.324 . S
O545 C532 1.258 . S
O546 Eu524 2.500 . S
O546 C529 1.273 . S
O547 Eu524 2.473 . S
O547 C529 1.257 . S
H548 C534 0.929 . S
H549 C536 0.931 . S
H550 C538 0.929 . S
O551 Tb552 2.292 . S
O551 C554 1.255 . S
Tb552 O551 2.292 . S
Tb552 O568 2.326 . S
Tb552 O570 2.500 . S
Tb552 O571 2.473 . S
Tb552 O574 2.324 . S
Eu553 O557 2.292 . S
Eu553 C558 2.852 . S
Eu553 O569 2.324 . S
Eu553 O573 2.326 . S
Eu553 O575 2.500 . S
Eu553 O576 2.473 . S
C554 O551 1.255 . S
C554 O555 1.247 . S
O555 C554 1.247 . S
C556 O568 1.242 . S
C556 O569 1.258 . S
O557 Eu553 2.292 . S
O557 C559 1.255 . S
C558 Eu553 2.852 . S
C558 C562 1.503 . S
C558 O575 1.273 . S
C558 O576 1.257 . S
C559 O557 1.255 . S
C559 O560 1.247 . S
O560 C559 1.247 . S
C561 O573 1.242 . S
C561 O574 1.258 . S
C562 C558 1.503 . S
C562 C563 1.379 . S
C562 C567 1.392 . S
C563 C562 1.379 . S
C563 C564 1.404 . S
C563 H577 0.929 . S
C564 C563 1.404 . S
C564 C565 1.389 . S
C565 C564 1.389 . S
C565 C566 1.399 . S
C565 H578 0.931 . S
C566 C565 1.399 . S
C566 C567 1.390 . S
C567 C562 1.392 . S
C567 C566 1.390 . S
C567 H579 0.929 . S
O568 Tb552 2.326 . S
O568 C556 1.242 . S
O569 Eu553 2.324 . S
O569 C556 1.258 . S
O570 Tb552 2.500 . S
O570 C572 1.273 . S
O571 Tb552 2.473 . S
O571 C572 1.257 . S
C572 O570 1.273 . S
C572 O571 1.257 . S
O573 Eu553 2.326 . S
O573 C561 1.242 . S
O574 Tb552 2.324 . S
O574 C561 1.258 . S
O575 Eu553 2.500 . S
O575 C558 1.273 . S
O576 Eu553 2.473 . S
O576 C558 1.257 . S
H577 C563 0.929 . S
H578 C565 0.931 . S
H579 C567 0.929 . S
O580 Tb581 2.292 . S
O580 C583 1.255 . S
Tb581 O580 2.292 . S
Tb581 O597 2.326 . S
Tb581 O599 2.500 . S
Tb581 O600 2.473 . S
Tb581 O603 2.324 . S
Eu582 O586 2.292 . S
Eu582 C587 2.852 . S
Eu582 O598 2.324 . S
Eu582 O602 2.326 . S
Eu582 O604 2.500 . S
Eu582 O605 2.473 . S
C583 O580 1.255 . S
C583 O584 1.247 . S
O584 C583 1.247 . S
C585 O597 1.242 . S
C585 O598 1.258 . S
O586 Eu582 2.292 . S
O586 C588 1.255 . S
C587 Eu582 2.852 . S
C587 C591 1.503 . S
C587 O604 1.273 . S
C587 O605 1.257 . S
C588 O586 1.255 . S
C588 O589 1.247 . S
O589 C588 1.247 . S
C590 O602 1.242 . S
C590 O603 1.258 . S
C591 C587 1.503 . S
C591 C592 1.379 . S
C591 C596 1.392 . S
C592 C591 1.379 . S
C592 C593 1.404 . S
C592 H606 0.929 . S
C593 C592 1.404 . S
C593 C594 1.389 . S
C594 C593 1.389 . S
C594 C595 1.399 . S
C594 H607 0.931 . S
C595 C594 1.399 . S
C595 C596 1.390 . S
C596 C591 1.392 . S
C596 C595 1.390 . S
C596 H608 0.929 . S
O597 Tb581 2.326 . S
O597 C585 1.242 . S
O598 Eu582 2.324 . S
O598 C585 1.258 . S
O599 Tb581 2.500 . S
O599 C601 1.273 . S
O600 Tb581 2.473 . S
O600 C601 1.257 . S
C601 O599 1.273 . S
C601 O600 1.257 . S
O602 Eu582 2.326 . S
O602 C590 1.242 . S
O603 Tb581 2.324 . S
O603 C590 1.258 . S
O604 Eu582 2.500 . S
O604 C587 1.273 . S
O605 Eu582 2.473 . S
O605 C587 1.257 . S
H606 C592 0.929 . S
H607 C594 0.931 . S
H608 C596 0.929 . S
O609 Tb610 2.292 . S
O609 C612 1.255 . S
Tb610 O609 2.292 . S
Tb610 O626 2.326 . S
Tb610 O628 2.500 . S
Tb610 O629 2.473 . S
Tb610 O632 2.324 . S
Eu611 O615 2.292 . S
Eu611 C616 2.852 . S
Eu611 O627 2.324 . S
Eu611 O631 2.326 . S
Eu611 O633 2.500 . S
Eu611 O634 2.473 . S
C612 O609 1.255 . S
C612 O613 1.247 . S
O613 C612 1.247 . S
C614 O626 1.242 . S
C614 O627 1.258 . S
O615 Eu611 2.292 . S
O615 C617 1.255 . S
C616 Eu611 2.852 . S
C616 C620 1.503 . S
C616 O633 1.273 . S
C616 O634 1.257 . S
C617 O615 1.255 . S
C617 O618 1.247 . S
O618 C617 1.247 . S
C619 O631 1.242 . S
C619 O632 1.258 . S
C620 C616 1.503 . S
C620 C621 1.379 . S
C620 C625 1.392 . S
C621 C620 1.379 . S
C621 C622 1.404 . S
C621 H635 0.929 . S
C622 C621 1.404 . S
C622 C623 1.389 . S
C623 C622 1.389 . S
C623 C624 1.399 . S
C623 H636 0.931 . S
C624 C623 1.399 . S
C624 C625 1.390 . S
C625 C620 1.392 . S
C625 C624 1.390 . S
C625 H637 0.929 . S
O626 Tb610 2.326 . S
O626 C614 1.242 . S
O627 Eu611 2.324 . S
O627 C614 1.258 . S
O628 Tb610 2.500 . S
O628 C630 1.273 . S
O629 Tb610 2.473 . S
O629 C630 1.257 . S
C630 O628 1.273 . S
C630 O629 1.257 . S
O631 Eu611 2.326 . S
O631 C619 1.242 . S
O632 Tb610 2.324 . S
O632 C619 1.258 . S
O633 Eu611 2.500 . S
O633 C616 1.273 . S
O634 Eu611 2.473 . S
O634 C616 1.257 . S
H635 C621 0.929 . S
H636 C623 0.931 . S
H637 C625 0.929 . S
O638 Tb639 2.292 . S
O638 C641 1.255 . S
Tb639 O638 2.292 . S
Tb639 O655 2.326 . S
Tb639 O657 2.500 . S
Tb639 O658 2.473 . S
Tb639 O661 2.324 . S
Eu640 O644 2.292 . S
Eu640 C645 2.852 . S
Eu640 O656 2.324 . S
Eu640 O660 2.326 . S
Eu640 O662 2.500 . S
Eu640 O663 2.473 . S
C641 O638 1.255 . S
C641 O642 1.247 . S
O642 C641 1.247 . S
C643 O655 1.242 . S
C643 O656 1.258 . S
O644 Eu640 2.292 . S
O644 C646 1.255 . S
C645 Eu640 2.852 . S
C645 C649 1.503 . S
C645 O662 1.273 . S
C645 O663 1.257 . S
C646 O644 1.255 . S
C646 O647 1.247 . S
O647 C646 1.247 . S
C648 O660 1.242 . S
C648 O661 1.258 . S
C649 C645 1.503 . S
C649 C650 1.379 . S
C649 C654 1.392 . S
C650 C649 1.379 . S
C650 C651 1.404 . S
C650 H664 0.929 . S
C651 C650 1.404 . S
C651 C652 1.389 . S
C652 C651 1.389 . S
C652 C653 1.399 . S
C652 H665 0.931 . S
C653 C652 1.399 . S
C653 C654 1.390 . S
C654 C649 1.392 . S
C654 C653 1.390 . S
C654 H666 0.929 . S
O655 Tb639 2.326 . S
O655 C643 1.242 . S
O656 Eu640 2.324 . S
O656 C643 1.258 . S
O657 Tb639 2.500 . S
O657 C659 1.273 . S
O658 Tb639 2.473 . S
O658 C659 1.257 . S
C659 O657 1.273 . S
C659 O658 1.257 . S
O660 Eu640 2.326 . S
O660 C648 1.242 . S
O661 Tb639 2.324 . S
O661 C648 1.258 . S
O662 Eu640 2.500 . S
O662 C645 1.273 . S
O663 Eu640 2.473 . S
O663 C645 1.257 . S
H664 C650 0.929 . S
H665 C652 0.931 . S
H666 C654 0.929 . S
O667 Tb668 2.292 . S
O667 C670 1.255 . S
Tb668 O667 2.292 . S
Tb668 O684 2.326 . S
Tb668 O686 2.500 . S
Tb668 O687 2.473 . S
Tb668 O690 2.324 . S
Eu669 O673 2.292 . S
Eu669 C674 2.852 . S
Eu669 O685 2.324 . S
Eu669 O689 2.326 . S
Eu669 O691 2.500 . S
Eu669 O692 2.473 . S
C670 O667 1.255 . S
C670 O671 1.247 . S
O671 C670 1.247 . S
C672 O684 1.242 . S
C672 O685 1.258 . S
O673 Eu669 2.292 . S
O673 C675 1.255 . S
C674 Eu669 2.852 . S
C674 C678 1.503 . S
C674 O691 1.273 . S
C674 O692 1.257 . S
C675 O673 1.255 . S
C675 O676 1.247 . S
O676 C675 1.247 . S
C677 O689 1.242 . S
C677 O690 1.258 . S
C678 C674 1.503 . S
C678 C679 1.379 . S
C678 C683 1.392 . S
C679 C678 1.379 . S
C679 C680 1.404 . S
C679 H693 0.929 . S
C680 C679 1.404 . S
C680 C681 1.389 . S
C681 C680 1.389 . S
C681 C682 1.399 . S
C681 H694 0.931 . S
C682 C681 1.399 . S
C682 C683 1.390 . S
C683 C678 1.392 . S
C683 C682 1.390 . S
C683 H695 0.929 . S
O684 Tb668 2.326 . S
O684 C672 1.242 . S
O685 Eu669 2.324 . S
O685 C672 1.258 . S
O686 Tb668 2.500 . S
O686 C688 1.273 . S
O687 Tb668 2.473 . S
O687 C688 1.257 . S
C688 O686 1.273 . S
C688 O687 1.257 . S
O689 Eu669 2.326 . S
O689 C677 1.242 . S
O690 Tb668 2.324 . S
O690 C677 1.258 . S
O691 Eu669 2.500 . S
O691 C674 1.273 . S
O692 Eu669 2.473 . S
O692 C674 1.257 . S
H693 C679 0.929 . S
H694 C681 0.931 . S
H695 C683 0.929 . S
O696 Tb697 2.292 . S
O696 C699 1.255 . S
Tb697 O696 2.292 . S
Tb697 O713 2.326 . S
Tb697 O715 2.500 . S
Tb697 O716 2.473 . S
Tb697 O719 2.324 . S
Eu698 O702 2.292 . S
Eu698 C703 2.852 . S
Eu698 O714 2.324 . S
Eu698 O718 2.326 . S
Eu698 O720 2.500 . S
Eu698 O721 2.473 . S
C699 O696 1.255 . S
C699 O700 1.247 . S
O700 C699 1.247 . S
C701 O713 1.242 . S
C701 O714 1.258 . S
O702 Eu698 2.292 . S
O702 C704 1.255 . S
C703 Eu698 2.852 . S
C703 C707 1.503 . S
C703 O720 1.273 . S
C703 O721 1.257 . S
C704 O702 1.255 . S
C704 O705 1.247 . S
O705 C704 1.247 . S
C706 O718 1.242 . S
C706 O719 1.258 . S
C707 C703 1.503 . S
C707 C708 1.379 . S
C707 C712 1.392 . S
C708 C707 1.379 . S
C708 C709 1.404 . S
C708 H722 0.929 . S
C709 C708 1.404 . S
C709 C710 1.389 . S
C710 C709 1.389 . S
C710 C711 1.399 . S
C710 H723 0.931 . S
C711 C710 1.399 . S
C711 C712 1.390 . S
C712 C707 1.392 . S
C712 C711 1.390 . S
C712 H724 0.929 . S
O713 Tb697 2.326 . S
O713 C701 1.242 . S
O714 Eu698 2.324 . S
O714 C701 1.258 . S
O715 Tb697 2.500 . S
O715 C717 1.273 . S
O716 Tb697 2.473 . S
O716 C717 1.257 . S
C717 O715 1.273 . S
C717 O716 1.257 . S
O718 Eu698 2.326 . S
O718 C706 1.242 . S
O719 Tb697 2.324 . S
O719 C706 1.258 . S
O720 Eu698 2.500 . S
O720 C703 1.273 . S
O721 Eu698 2.473 . S
O721 C703 1.257 . S
H722 C708 0.929 . S
H723 C710 0.931 . S
H724 C712 0.929 . S
O725 Tb726 2.292 . S
O725 C728 1.255 . S
Tb726 O725 2.292 . S
Tb726 O742 2.326 . S
Tb726 O744 2.500 . S
Tb726 O745 2.473 . S
Tb726 O748 2.324 . S
Eu727 O731 2.292 . S
Eu727 C732 2.852 . S
Eu727 O743 2.324 . S
Eu727 O747 2.326 . S
Eu727 O749 2.500 . S
Eu727 O750 2.473 . S
C728 O725 1.255 . S
C728 O729 1.247 . S
O729 C728 1.247 . S
C730 O742 1.242 . S
C730 O743 1.258 . S
O731 Eu727 2.292 . S
O731 C733 1.255 . S
C732 Eu727 2.852 . S
C732 C736 1.503 . S
C732 O749 1.273 . S
C732 O750 1.257 . S
C733 O731 1.255 . S
C733 O734 1.247 . S
O734 C733 1.247 . S
C735 O747 1.242 . S
C735 O748 1.258 . S
C736 C732 1.503 . S
C736 C737 1.379 . S
C736 C741 1.392 . S
C737 C736 1.379 . S
C737 C738 1.404 . S
C737 H751 0.929 . S
C738 C737 1.404 . S
C738 C739 1.389 . S
C739 C738 1.389 . S
C739 C740 1.399 . S
C739 H752 0.931 . S
C740 C739 1.399 . S
C740 C741 1.390 . S
C741 C736 1.392 . S
C741 C740 1.390 . S
C741 H753 0.929 . S
O742 Tb726 2.326 . S
O742 C730 1.242 . S
O743 Eu727 2.324 . S
O743 C730 1.258 . S
O744 Tb726 2.500 . S
O744 C746 1.273 . S
O745 Tb726 2.473 . S
O745 C746 1.257 . S
C746 O744 1.273 . S
C746 O745 1.257 . S
O747 Eu727 2.326 . S
O747 C735 1.242 . S
O748 Tb726 2.324 . S
O748 C735 1.258 . S
O749 Eu727 2.500 . S
O749 C732 1.273 . S
O750 Eu727 2.473 . S
O750 C732 1.257 . S
H751 C737 0.929 . S
H752 C739 0.931 . S
H753 C741 0.929 . S
O754 Tb755 2.292 . S
O754 C757 1.255 . S
Tb755 O754 2.292 . S
Tb755 O771 2.326 . S
Tb755 O773 2.500 . S
Tb755 O774 2.473 . S
Tb755 O777 2.324 . S
Eu756 O760 2.292 . S
Eu756 C761 2.852 . S
Eu756 O772 2.324 . S
Eu756 O776 2.326 . S
Eu756 O778 2.500 . S
Eu756 O779 2.473 . S
C757 O754 1.255 . S
C757 O758 1.247 . S
O758 C757 1.247 . S
C759 O771 1.242 . S
C759 O772 1.258 . S
O760 Eu756 2.292 . S
O760 C762 1.255 . S
C761 Eu756 2.852 . S
C761 C765 1.503 . S
C761 O778 1.273 . S
C761 O779 1.257 . S
C762 O760 1.255 . S
C762 O763 1.247 . S
O763 C762 1.247 . S
C764 O776 1.242 . S
C764 O777 1.258 . S
C765 C761 1.503 . S
C765 C766 1.379 . S
C765 C770 1.392 . S
C766 C765 1.379 . S
C766 C767 1.404 . S
C766 H780 0.929 . S
C767 C766 1.404 . S
C767 C768 1.389 . S
C768 C767 1.389 . S
C768 C769 1.399 . S
C768 H781 0.931 . S
C769 C768 1.399 . S
C769 C770 1.390 . S
C770 C765 1.392 . S
C770 C769 1.390 . S
C770 H782 0.929 . S
O771 Tb755 2.326 . S
O771 C759 1.242 . S
O772 Eu756 2.324 . S
O772 C759 1.258 . S
O773 Tb755 2.500 . S
O773 C775 1.273 . S
O774 Tb755 2.473 . S
O774 C775 1.257 . S
C775 O773 1.273 . S
C775 O774 1.257 . S
O776 Eu756 2.326 . S
O776 C764 1.242 . S
O777 Tb755 2.324 . S
O777 C764 1.258 . S
O778 Eu756 2.500 . S
O778 C761 1.273 . S
O779 Eu756 2.473 . S
O779 C761 1.257 . S
H780 C766 0.929 . S
H781 C768 0.931 . S
H782 C770 0.929 . S
O783 Tb784 2.292 . S
O783 C786 1.255 . S
Tb784 O783 2.292 . S
Tb784 O800 2.326 . S
Tb784 O802 2.500 . S
Tb784 O803 2.473 . S
Tb784 O806 2.324 . S
Eu785 O789 2.292 . S
Eu785 C790 2.852 . S
Eu785 O801 2.324 . S
Eu785 O805 2.326 . S
Eu785 O807 2.500 . S
Eu785 O808 2.473 . S
C786 O783 1.255 . S
C786 O787 1.247 . S
O787 C786 1.247 . S
C788 O800 1.242 . S
C788 O801 1.258 . S
O789 Eu785 2.292 . S
O789 C791 1.255 . S
C790 Eu785 2.852 . S
C790 C794 1.503 . S
C790 O807 1.273 . S
C790 O808 1.257 . S
C791 O789 1.255 . S
C791 O792 1.247 . S
O792 C791 1.247 . S
C793 O805 1.242 . S
C793 O806 1.258 . S
C794 C790 1.503 . S
C794 C795 1.379 . S
C794 C799 1.392 . S
C795 C794 1.379 . S
C795 C796 1.404 . S
C795 H809 0.929 . S
C796 C795 1.404 . S
C796 C797 1.389 . S
C797 C796 1.389 . S
C797 C798 1.399 . S
C797 H810 0.931 . S
C798 C797 1.399 . S
C798 C799 1.390 . S
C799 C794 1.392 . S
C799 C798 1.390 . S
C799 H811 0.929 . S
O800 Tb784 2.326 . S
O800 C788 1.242 . S
O801 Eu785 2.324 . S
O801 C788 1.258 . S
O802 Tb784 2.500 . S
O802 C804 1.273 . S
O803 Tb784 2.473 . S
O803 C804 1.257 . S
C804 O802 1.273 . S
C804 O803 1.257 . S
O805 Eu785 2.326 . S
O805 C793 1.242 . S
O806 Tb784 2.324 . S
O806 C793 1.258 . S
O807 Eu785 2.500 . S
O807 C790 1.273 . S
O808 Eu785 2.473 . S
O808 C790 1.257 . S
H809 C795 0.929 . S
H810 C797 0.931 . S
H811 C799 0.929 . S
O812 Tb813 2.292 . S
O812 C815 1.255 . S
Tb813 O812 2.292 . S
Tb813 O829 2.326 . S
Tb813 O831 2.500 . S
Tb813 O832 2.473 . S
Tb813 O835 2.324 . S
Eu814 O818 2.292 . S
Eu814 C819 2.852 . S
Eu814 O830 2.324 . S
Eu814 O834 2.326 . S
Eu814 O836 2.500 . S
Eu814 O837 2.473 . S
C815 O812 1.255 . S
C815 O816 1.247 . S
O816 C815 1.247 . S
C817 O829 1.242 . S
C817 O830 1.258 . S
O818 Eu814 2.292 . S
O818 C820 1.255 . S
C819 Eu814 2.852 . S
C819 C823 1.503 . S
C819 O836 1.273 . S
C819 O837 1.257 . S
C820 O818 1.255 . S
C820 O821 1.247 . S
O821 C820 1.247 . S
C822 O834 1.242 . S
C822 O835 1.258 . S
C823 C819 1.503 . S
C823 C824 1.379 . S
C823 C828 1.392 . S
C824 C823 1.379 . S
C824 C825 1.404 . S
C824 H838 0.929 . S
C825 C824 1.404 . S
C825 C826 1.389 . S
C826 C825 1.389 . S
C826 C827 1.399 . S
C826 H839 0.931 . S
C827 C826 1.399 . S
C827 C828 1.390 . S
C828 C823 1.392 . S
C828 C827 1.390 . S
C828 H840 0.929 . S
O829 Tb813 2.326 . S
O829 C817 1.242 . S
O830 Eu814 2.324 . S
O830 C817 1.258 . S
O831 Tb813 2.500 . S
O831 C833 1.273 . S
O832 Tb813 2.473 . S
O832 C833 1.257 . S
C833 O831 1.273 . S
C833 O832 1.257 . S
O834 Eu814 2.326 . S
O834 C822 1.242 . S
O835 Tb813 2.324 . S
O835 C822 1.258 . S
O836 Eu814 2.500 . S
O836 C819 1.273 . S
O837 Eu814 2.473 . S
O837 C819 1.257 . S
H838 C824 0.929 . S
H839 C826 0.931 . S
H840 C828 0.929 . S
O841 Tb842 2.292 . S
O841 C844 1.255 . S
Tb842 O841 2.292 . S
Tb842 O858 2.326 . S
Tb842 O860 2.500 . S
Tb842 O861 2.473 . S
Tb842 O864 2.324 . S
Eu843 O847 2.292 . S
Eu843 C848 2.852 . S
Eu843 O859 2.324 . S
Eu843 O863 2.326 . S
Eu843 O865 2.500 . S
Eu843 O866 2.473 . S
C844 O841 1.255 . S
C844 O845 1.247 . S
O845 C844 1.247 . S
C846 O858 1.242 . S
C846 O859 1.258 . S
O847 Eu843 2.292 . S
O847 C849 1.255 . S
C848 Eu843 2.852 . S
C848 C852 1.503 . S
C848 O865 1.273 . S
C848 O866 1.257 . S
C849 O847 1.255 . S
C849 O850 1.247 . S
O850 C849 1.247 . S
C851 O863 1.242 . S
C851 O864 1.258 . S
C852 C848 1.503 . S
C852 C853 1.379 . S
C852 C857 1.392 . S
C853 C852 1.379 . S
C853 C854 1.404 . S
C853 H867 0.929 . S
C854 C853 1.404 . S
C854 C855 1.389 . S
C855 C854 1.389 . S
C855 C856 1.399 . S
C855 H868 0.931 . S
C856 C855 1.399 . S
C856 C857 1.390 . S
C857 C852 1.392 . S
C857 C856 1.390 . S
C857 H869 0.929 . S
O858 Tb842 2.326 . S
O858 C846 1.242 . S
O859 Eu843 2.324 . S
O859 C846 1.258 . S
O860 Tb842 2.500 . S
O860 C862 1.273 . S
O861 Tb842 2.473 . S
O861 C862 1.257 . S
C862 O860 1.273 . S
C862 O861 1.257 . S
O863 Eu843 2.326 . S
O863 C851 1.242 . S
O864 Tb842 2.324 . S
O864 C851 1.258 . S
O865 Eu843 2.500 . S
O865 C848 1.273 . S
O866 Eu843 2.473 . S
O866 C848 1.257 . S
H867 C853 0.929 . S
H868 C855 0.931 . S
H869 C857 0.929 . S
O870 Tb871 2.292 . S
O870 C873 1.255 . S
Tb871 O870 2.292 . S
Tb871 O887 2.326 . S
Tb871 O889 2.500 . S
Tb871 O890 2.473 . S
Tb871 O893 2.324 . S
Eu872 O876 2.292 . S
Eu872 C877 2.852 . S
Eu872 O888 2.324 . S
Eu872 O892 2.326 . S
Eu872 O894 2.500 . S
Eu872 O895 2.473 . S
C873 O870 1.255 . S
C873 O874 1.247 . S
O874 C873 1.247 . S
C875 O887 1.242 . S
C875 O888 1.258 . S
O876 Eu872 2.292 . S
O876 C878 1.255 . S
C877 Eu872 2.852 . S
C877 C881 1.503 . S
C877 O894 1.273 . S
C877 O895 1.257 . S
C878 O876 1.255 . S
C878 O879 1.247 . S
O879 C878 1.247 . S
C880 O892 1.242 . S
C880 O893 1.258 . S
C881 C877 1.503 . S
C881 C882 1.379 . S
C881 C886 1.392 . S
C882 C881 1.379 . S
C882 C883 1.404 . S
C882 H896 0.929 . S
C883 C882 1.404 . S
C883 C884 1.389 . S
C884 C883 1.389 . S
C884 C885 1.399 . S
C884 H897 0.931 . S
C885 C884 1.399 . S
C885 C886 1.390 . S
C886 C881 1.392 . S
C886 C885 1.390 . S
C886 H898 0.929 . S
O887 Tb871 2.326 . S
O887 C875 1.242 . S
O888 Eu872 2.324 . S
O888 C875 1.258 . S
O889 Tb871 2.500 . S
O889 C891 1.273 . S
O890 Tb871 2.473 . S
O890 C891 1.257 . S
C891 O889 1.273 . S
C891 O890 1.257 . S
O892 Eu872 2.326 . S
O892 C880 1.242 . S
O893 Tb871 2.324 . S
O893 C880 1.258 . S
O894 Eu872 2.500 . S
O894 C877 1.273 . S
O895 Eu872 2.473 . S
O895 C877 1.257 . S
H896 C882 0.929 . S
H897 C884 0.931 . S
H898 C886 0.929 . S
O899 Tb900 2.292 . S
O899 C902 1.255 . S
Tb900 O899 2.292 . S
Tb900 O916 2.326 . S
Tb900 O918 2.500 . S
Tb900 O919 2.473 . S
Tb900 O922 2.324 . S
Eu901 O905 2.292 . S
Eu901 C906 2.852 . S
Eu901 O917 2.324 . S
Eu901 O921 2.326 . S
Eu901 O923 2.500 . S
Eu901 O924 2.473 . S
C902 O899 1.255 . S
C902 O903 1.247 . S
O903 C902 1.247 . S
C904 O916 1.242 . S
C904 O917 1.258 . S
O905 Eu901 2.292 . S
O905 C907 1.255 . S
C906 Eu901 2.852 . S
C906 C910 1.503 . S
C906 O923 1.273 . S
C906 O924 1.257 . S
C907 O905 1.255 . S
C907 O908 1.247 . S
O908 C907 1.247 . S
C909 O921 1.242 . S
C909 O922 1.258 . S
C910 C906 1.503 . S
C910 C911 1.379 . S
C910 C915 1.392 . S
C911 C910 1.379 . S
C911 C912 1.404 . S
C911 H925 0.929 . S
C912 C911 1.404 . S
C912 C913 1.389 . S
C913 C912 1.389 . S
C913 C914 1.399 . S
C913 H926 0.931 . S
C914 C913 1.399 . S
C914 C915 1.390 . S
C915 C910 1.392 . S
C915 C914 1.390 . S
C915 H927 0.929 . S
O916 Tb900 2.326 . S
O916 C904 1.242 . S
O917 Eu901 2.324 . S
O917 C904 1.258 . S
O918 Tb900 2.500 . S
O918 C920 1.273 . S
O919 Tb900 2.473 . S
O919 C920 1.257 . S
C920 O918 1.273 . S
C920 O919 1.257 . S
O921 Eu901 2.326 . S
O921 C909 1.242 . S
O922 Tb900 2.324 . S
O922 C909 1.258 . S
O923 Eu901 2.500 . S
O923 C906 1.273 . S
O924 Eu901 2.473 . S
O924 C906 1.257 . S
H925 C911 0.929 . S
H926 C913 0.931 . S
H927 C915 0.929 . S
O928 Tb929 2.292 . S
O928 C931 1.255 . S
Tb929 O928 2.292 . S
Tb929 O945 2.326 . S
Tb929 O947 2.500 . S
Tb929 O948 2.473 . S
Tb929 O951 2.324 . S
Eu930 O934 2.292 . S
Eu930 C935 2.852 . S
Eu930 O946 2.324 . S
Eu930 O950 2.326 . S
Eu930 O952 2.500 . S
Eu930 O953 2.473 . S
C931 O928 1.255 . S
C931 O932 1.247 . S
O932 C931 1.247 . S
C933 O945 1.242 . S
C933 O946 1.258 . S
O934 Eu930 2.292 . S
O934 C936 1.255 . S
C935 Eu930 2.852 . S
C935 C939 1.503 . S
C935 O952 1.273 . S
C935 O953 1.257 . S
C936 O934 1.255 . S
C936 O937 1.247 . S
O937 C936 1.247 . S
C938 O950 1.242 . S
C938 O951 1.258 . S
C939 C935 1.503 . S
C939 C940 1.379 . S
C939 C944 1.392 . S
C940 C939 1.379 . S
C940 C941 1.404 . S
C940 H954 0.929 . S
C941 C940 1.404 . S
C941 C942 1.389 . S
C942 C941 1.389 . S
C942 C943 1.399 . S
C942 H955 0.931 . S
C943 C942 1.399 . S
C943 C944 1.390 . S
C944 C939 1.392 . S
C944 C943 1.390 . S
C944 H956 0.929 . S
O945 Tb929 2.326 . S
O945 C933 1.242 . S
O946 Eu930 2.324 . S
O946 C933 1.258 . S
O947 Tb929 2.500 . S
O947 C949 1.273 . S
O948 Tb929 2.473 . S
O948 C949 1.257 . S
C949 O947 1.273 . S
C949 O948 1.257 . S
O950 Eu930 2.326 . S
O950 C938 1.242 . S
O951 Tb929 2.324 . S
O951 C938 1.258 . S
O952 Eu930 2.500 . S
O952 C935 1.273 . S
O953 Eu930 2.473 . S
O953 C935 1.257 . S
H954 C940 0.929 . S
H955 C942 0.931 . S
H956 C944 0.929 . S
O957 Tb958 2.292 . S
O957 C960 1.255 . S
Tb958 O957 2.292 . S
Tb958 O974 2.326 . S
Tb958 O976 2.500 . S
Tb958 O977 2.473 . S
Tb958 O980 2.324 . S
Eu959 O963 2.292 . S
Eu959 C964 2.852 . S
Eu959 O975 2.324 . S
Eu959 O979 2.326 . S
Eu959 O981 2.500 . S
Eu959 O982 2.473 . S
C960 O957 1.255 . S
C960 O961 1.247 . S
O961 C960 1.247 . S
C962 O974 1.242 . S
C962 O975 1.258 . S
O963 Eu959 2.292 . S
O963 C965 1.255 . S
C964 Eu959 2.852 . S
C964 C968 1.503 . S
C964 O981 1.273 . S
C964 O982 1.257 . S
C965 O963 1.255 . S
C965 O966 1.247 . S
O966 C965 1.247 . S
C967 O979 1.242 . S
C967 O980 1.258 . S
C968 C964 1.503 . S
C968 C969 1.379 . S
C968 C973 1.392 . S
C969 C968 1.379 . S
C969 C970 1.404 . S
C969 H983 0.929 . S
C970 C969 1.404 . S
C970 C971 1.389 . S
C971 C970 1.389 . S
C971 C972 1.399 . S
C971 H984 0.931 . S
C972 C971 1.399 . S
C972 C973 1.390 . S
C973 C968 1.392 . S
C973 C972 1.390 . S
C973 H985 0.929 . S
O974 Tb958 2.326 . S
O974 C962 1.242 . S
O975 Eu959 2.324 . S
O975 C962 1.258 . S
O976 Tb958 2.500 . S
O976 C978 1.273 . S
O977 Tb958 2.473 . S
O977 C978 1.257 . S
C978 O976 1.273 . S
C978 O977 1.257 . S
O979 Eu959 2.326 . S
O979 C967 1.242 . S
O980 Tb958 2.324 . S
O980 C967 1.258 . S
O981 Eu959 2.500 . S
O981 C964 1.273 . S
O982 Eu959 2.473 . S
O982 C964 1.257 . S
H983 C969 0.929 . S
H984 C971 0.931 . S
H985 C973 0.929 . S
O986 Tb987 2.292 . S
O986 C989 1.255 . S
Tb987 O986 2.292 . S
Tb987 O1003 2.326 . S
Tb987 O1005 2.500 . S
Tb987 O1006 2.473 . S
Tb987 O1009 2.324 . S
Eu988 O992 2.292 . S
Eu988 C993 2.852 . S
Eu988 O1004 2.324 . S
Eu988 O1008 2.326 . S
Eu988 O1010 2.500 . S
Eu988 O1011 2.473 . S
C989 O986 1.255 . S
C989 O990 1.247 . S
O990 C989 1.247 . S
C991 O1003 1.242 . S
C991 O1004 1.258 . S
O992 Eu988 2.292 . S
O992 C994 1.255 . S
C993 Eu988 2.852 . S
C993 C997 1.503 . S
C993 O1010 1.273 . S
C993 O1011 1.257 . S
C994 O992 1.255 . S
C994 O995 1.247 . S
O995 C994 1.247 . S
C996 O1008 1.242 . S
C996 O1009 1.258 . S
C997 C993 1.503 . S
C997 C998 1.379 . S
C997 C1002 1.392 . S
C998 C997 1.379 . S
C998 C999 1.404 . S
C998 H1012 0.929 . S
C999 C998 1.404 . S
C999 C1000 1.389 . S
C1000 C999 1.389 . S
C1000 C1001 1.399 . S
C1000 H1013 0.931 . S
C1001 C1000 1.399 . S
C1001 C1002 1.390 . S
C1002 C997 1.392 . S
C1002 C1001 1.390 . S
C1002 H1014 0.929 . S
O1003 Tb987 2.326 . S
O1003 C991 1.242 . S
O1004 Eu988 2.324 . S
O1004 C991 1.258 . S
O1005 Tb987 2.500 . S
O1005 C1007 1.273 . S
O1006 Tb987 2.473 . S
O1006 C1007 1.257 . S
C1007 O1005 1.273 . S
C1007 O1006 1.257 . S
O1008 Eu988 2.326 . S
O1008 C996 1.242 . S
O1009 Tb987 2.324 . S
O1009 C996 1.258 . S
O1010 Eu988 2.500 . S
O1010 C993 1.273 . S
O1011 Eu988 2.473 . S
O1011 C993 1.257 . S
H1012 C998 0.929 . S
H1013 C1000 0.931 . S
H1014 C1002 0.929 . S
O1015 Tb1016 2.292 . S
O1015 C1018 1.255 . S
Tb1016 O1015 2.292 . S
Tb1016 O1032 2.326 . S
Tb1016 O1034 2.500 . S
Tb1016 O1035 2.473 . S
Tb1016 O1038 2.324 . S
Eu1017 O1021 2.292 . S
Eu1017 C1022 2.852 . S
Eu1017 O1033 2.324 . S
Eu1017 O1037 2.326 . S
Eu1017 O1039 2.500 . S
Eu1017 O1040 2.473 . S
C1018 O1015 1.255 . S
C1018 O1019 1.247 . S
O1019 C1018 1.247 . S
C1020 O1032 1.242 . S
C1020 O1033 1.258 . S
O1021 Eu1017 2.292 . S
O1021 C1023 1.255 . S
C1022 Eu1017 2.852 . S
C1022 C1026 1.503 . S
C1022 O1039 1.273 . S
C1022 O1040 1.257 . S
C1023 O1021 1.255 . S
C1023 O1024 1.247 . S
O1024 C1023 1.247 . S
C1025 O1037 1.242 . S
C1025 O1038 1.258 . S
C1026 C1022 1.503 . S
C1026 C1027 1.379 . S
C1026 C1031 1.392 . S
C1027 C1026 1.379 . S
C1027 C1028 1.404 . S
C1027 H1041 0.929 . S
C1028 C1027 1.404 . S
C1028 C1029 1.389 . S
C1029 C1028 1.389 . S
C1029 C1030 1.399 . S
C1029 H1042 0.931 . S
C1030 C1029 1.399 . S
C1030 C1031 1.390 . S
C1031 C1026 1.392 . S
C1031 C1030 1.390 . S
C1031 H1043 0.929 . S
O1032 Tb1016 2.326 . S
O1032 C1020 1.242 . S
O1033 Eu1017 2.324 . S
O1033 C1020 1.258 . S
O1034 Tb1016 2.500 . S
O1034 C1036 1.273 . S
O1035 Tb1016 2.473 . S
O1035 C1036 1.257 . S
C1036 O1034 1.273 . S
C1036 O1035 1.257 . S
O1037 Eu1017 2.326 . S
O1037 C1025 1.242 . S
O1038 Tb1016 2.324 . S
O1038 C1025 1.258 . S
O1039 Eu1017 2.500 . S
O1039 C1022 1.273 . S
O1040 Eu1017 2.473 . S
O1040 C1022 1.257 . S
H1041 C1027 0.929 . S
H1042 C1029 0.931 . S
H1043 C1031 0.929 . S
O1044 Tb1045 2.292 . S
O1044 C1047 1.255 . S
Tb1045 O1044 2.292 . S
Tb1045 O1061 2.326 . S
Tb1045 O1063 2.500 . S
Tb1045 O1064 2.473 . S
Tb1045 O1067 2.324 . S
Eu1046 O1050 2.292 . S
Eu1046 C1051 2.852 . S
Eu1046 O1062 2.324 . S
Eu1046 O1066 2.326 . S
Eu1046 O1068 2.500 . S
Eu1046 O1069 2.473 . S
C1047 O1044 1.255 . S
C1047 O1048 1.247 . S
O1048 C1047 1.247 . S
C1049 O1061 1.242 . S
C1049 O1062 1.258 . S
O1050 Eu1046 2.292 . S
O1050 C1052 1.255 . S
C1051 Eu1046 2.852 . S
C1051 C1055 1.503 . S
C1051 O1068 1.273 . S
C1051 O1069 1.257 . S
C1052 O1050 1.255 . S
C1052 O1053 1.247 . S
O1053 C1052 1.247 . S
C1054 O1066 1.242 . S
C1054 O1067 1.258 . S
C1055 C1051 1.503 . S
C1055 C1056 1.379 . S
C1055 C1060 1.392 . S
C1056 C1055 1.379 . S
C1056 C1057 1.404 . S
C1056 H1070 0.929 . S
C1057 C1056 1.404 . S
C1057 C1058 1.389 . S
C1058 C1057 1.389 . S
C1058 C1059 1.399 . S
C1058 H1071 0.931 . S
C1059 C1058 1.399 . S
C1059 C1060 1.390 . S
C1060 C1055 1.392 . S
C1060 C1059 1.390 . S
C1060 H1072 0.929 . S
O1061 Tb1045 2.326 . S
O1061 C1049 1.242 . S
O1062 Eu1046 2.324 . S
O1062 C1049 1.258 . S
O1063 Tb1045 2.500 . S
O1063 C1065 1.273 . S
O1064 Tb1045 2.473 . S
O1064 C1065 1.257 . S
C1065 O1063 1.273 . S
C1065 O1064 1.257 . S
O1066 Eu1046 2.326 . S
O1066 C1054 1.242 . S
O1067 Tb1045 2.324 . S
O1067 C1054 1.258 . S
O1068 Eu1046 2.500 . S
O1068 C1051 1.273 . S
O1069 Eu1046 2.473 . S
O1069 C1051 1.257 . S
H1070 C1056 0.929 . S
H1071 C1058 0.931 . S
H1072 C1060 0.929 . S
O1073 Tb1074 2.292 . S
O1073 C1076 1.255 . S
Tb1074 O1073 2.292 . S
Tb1074 O1090 2.326 . S
Tb1074 O1092 2.500 . S
Tb1074 O1093 2.473 . S
Tb1074 O1096 2.324 . S
Eu1075 O1079 2.292 . S
Eu1075 C1080 2.852 . S
Eu1075 O1091 2.324 . S
Eu1075 O1095 2.326 . S
Eu1075 O1097 2.500 . S
Eu1075 O1098 2.473 . S
C1076 O1073 1.255 . S
C1076 O1077 1.247 . S
O1077 C1076 1.247 . S
C1078 O1090 1.242 . S
C1078 O1091 1.258 . S
O1079 Eu1075 2.292 . S
O1079 C1081 1.255 . S
C1080 Eu1075 2.852 . S
C1080 C1084 1.503 . S
C1080 O1097 1.273 . S
C1080 O1098 1.257 . S
C1081 O1079 1.255 . S
C1081 O1082 1.247 . S
O1082 C1081 1.247 . S
C1083 O1095 1.242 . S
C1083 O1096 1.258 . S
C1084 C1080 1.503 . S
C1084 C1085 1.379 . S
C1084 C1089 1.392 . S
C1085 C1084 1.379 . S
C1085 C1086 1.404 . S
C1085 H1099 0.929 . S
C1086 C1085 1.404 . S
C1086 C1087 1.389 . S
C1087 C1086 1.389 . S
C1087 C1088 1.399 . S
C1087 H1100 0.931 . S
C1088 C1087 1.399 . S
C1088 C1089 1.390 . S
C1089 C1084 1.392 . S
C1089 C1088 1.390 . S
C1089 H1101 0.929 . S
O1090 Tb1074 2.326 . S
O1090 C1078 1.242 . S
O1091 Eu1075 2.324 . S
O1091 C1078 1.258 . S
O1092 Tb1074 2.500 . S
O1092 C1094 1.273 . S
O1093 Tb1074 2.473 . S
O1093 C1094 1.257 . S
C1094 O1092 1.273 . S
C1094 O1093 1.257 . S
O1095 Eu1075 2.326 . S
O1095 C1083 1.242 . S
O1096 Tb1074 2.324 . S
O1096 C1083 1.258 . S
O1097 Eu1075 2.500 . S
O1097 C1080 1.273 . S
O1098 Eu1075 2.473 . S
O1098 C1080 1.257 . S
H1099 C1085 0.929 . S
H1100 C1087 0.931 . S
H1101 C1089 0.929 . S
O1102 Tb1103 2.292 . S
O1102 C1105 1.255 . S
Tb1103 O1102 2.292 . S
Tb1103 O1119 2.326 . S
Tb1103 O1121 2.500 . S
Tb1103 O1122 2.473 . S
Tb1103 O1125 2.324 . S
Eu1104 O1108 2.292 . S
Eu1104 C1109 2.852 . S
Eu1104 O1120 2.324 . S
Eu1104 O1124 2.326 . S
Eu1104 O1126 2.500 . S
Eu1104 O1127 2.473 . S
C1105 O1102 1.255 . S
C1105 O1106 1.247 . S
O1106 C1105 1.247 . S
C1107 O1119 1.242 . S
C1107 O1120 1.258 . S
O1108 Eu1104 2.292 . S
O1108 C1110 1.255 . S
C1109 Eu1104 2.852 . S
C1109 C1113 1.503 . S
C1109 O1126 1.273 . S
C1109 O1127 1.257 . S
C1110 O1108 1.255 . S
C1110 O1111 1.247 . S
O1111 C1110 1.247 . S
C1112 O1124 1.242 . S
C1112 O1125 1.258 . S
C1113 C1109 1.503 . S
C1113 C1114 1.379 . S
C1113 C1118 1.392 . S
C1114 C1113 1.379 . S
C1114 C1115 1.404 . S
C1114 H1128 0.929 . S
C1115 C1114 1.404 . S
C1115 C1116 1.389 . S
C1116 C1115 1.389 . S
C1116 C1117 1.399 . S
C1116 H1129 0.931 . S
C1117 C1116 1.399 . S
C1117 C1118 1.390 . S
C1118 C1113 1.392 . S
C1118 C1117 1.390 . S
C1118 H1130 0.929 . S
O1119 Tb1103 2.326 . S
O1119 C1107 1.242 . S
O1120 Eu1104 2.324 . S
O1120 C1107 1.258 . S
O1121 Tb1103 2.500 . S
O1121 C1123 1.273 . S
O1122 Tb1103 2.473 . S
O1122 C1123 1.257 . S
C1123 O1121 1.273 . S
C1123 O1122 1.257 . S
O1124 Eu1104 2.326 . S
O1124 C1112 1.242 . S
O1125 Tb1103 2.324 . S
O1125 C1112 1.258 . S
O1126 Eu1104 2.500 . S
O1126 C1109 1.273 . S
O1127 Eu1104 2.473 . S
O1127 C1109 1.257 . S
H1128 C1114 0.929 . S
H1129 C1116 0.931 . S
H1130 C1118 0.929 . S
O1131 Tb1132 2.292 . S
O1131 C1134 1.255 . S
Tb1132 O1131 2.292 . S
Tb1132 O1148 2.326 . S
Tb1132 O1150 2.500 . S
Tb1132 O1151 2.473 . S
Tb1132 O1154 2.324 . S
Eu1133 O1137 2.292 . S
Eu1133 C1138 2.852 . S
Eu1133 O1149 2.324 . S
Eu1133 O1153 2.326 . S
Eu1133 O1155 2.500 . S
Eu1133 O1156 2.473 . S
C1134 O1131 1.255 . S
C1134 O1135 1.247 . S
O1135 C1134 1.247 . S
C1136 O1148 1.242 . S
C1136 O1149 1.258 . S
O1137 Eu1133 2.292 . S
O1137 C1139 1.255 . S
C1138 Eu1133 2.852 . S
C1138 C1142 1.503 . S
C1138 O1155 1.273 . S
C1138 O1156 1.257 . S
C1139 O1137 1.255 . S
C1139 O1140 1.247 . S
O1140 C1139 1.247 . S
C1141 O1153 1.242 . S
C1141 O1154 1.258 . S
C1142 C1138 1.503 . S
C1142 C1143 1.379 . S
C1142 C1147 1.392 . S
C1143 C1142 1.379 . S
C1143 C1144 1.404 . S
C1143 H1157 0.929 . S
C1144 C1143 1.404 . S
C1144 C1145 1.389 . S
C1145 C1144 1.389 . S
C1145 C1146 1.399 . S
C1145 H1158 0.931 . S
C1146 C1145 1.399 . S
C1146 C1147 1.390 . S
C1147 C1142 1.392 . S
C1147 C1146 1.390 . S
C1147 H1159 0.929 . S
O1148 Tb1132 2.326 . S
O1148 C1136 1.242 . S
O1149 Eu1133 2.324 . S
O1149 C1136 1.258 . S
O1150 Tb1132 2.500 . S
O1150 C1152 1.273 . S
O1151 Tb1132 2.473 . S
O1151 C1152 1.257 . S
C1152 O1150 1.273 . S
C1152 O1151 1.257 . S
O1153 Eu1133 2.326 . S
O1153 C1141 1.242 . S
O1154 Tb1132 2.324 . S
O1154 C1141 1.258 . S
O1155 Eu1133 2.500 . S
O1155 C1138 1.273 . S
O1156 Eu1133 2.473 . S
O1156 C1138 1.257 . S
H1157 C1143 0.929 . S
H1158 C1145 0.931 . S
H1159 C1147 0.929 . S
O1160 Tb1161 2.292 . S
O1160 C1163 1.255 . S
Tb1161 O1160 2.292 . S
Tb1161 O1177 2.326 . S
Tb1161 O1179 2.500 . S
Tb1161 O1180 2.473 . S
Tb1161 O1183 2.324 . S
Eu1162 O1166 2.292 . S
Eu1162 C1167 2.852 . S
Eu1162 O1178 2.324 . S
Eu1162 O1182 2.326 . S
Eu1162 O1184 2.500 . S
Eu1162 O1185 2.473 . S
C1163 O1160 1.255 . S
C1163 O1164 1.247 . S
O1164 C1163 1.247 . S
C1165 O1177 1.242 . S
C1165 O1178 1.258 . S
O1166 Eu1162 2.292 . S
O1166 C1168 1.255 . S
C1167 Eu1162 2.852 . S
C1167 C1171 1.503 . S
C1167 O1184 1.273 . S
C1167 O1185 1.257 . S
C1168 O1166 1.255 . S
C1168 O1169 1.247 . S
O1169 C1168 1.247 . S
C1170 O1182 1.242 . S
C1170 O1183 1.258 . S
C1171 C1167 1.503 . S
C1171 C1172 1.379 . S
C1171 C1176 1.392 . S
C1172 C1171 1.379 . S
C1172 C1173 1.404 . S
C1172 H1186 0.929 . S
C1173 C1172 1.404 . S
C1173 C1174 1.389 . S
C1174 C1173 1.389 . S
C1174 C1175 1.399 . S
C1174 H1187 0.931 . S
C1175 C1174 1.399 . S
C1175 C1176 1.390 . S
C1176 C1171 1.392 . S
C1176 C1175 1.390 . S
C1176 H1188 0.929 . S
O1177 Tb1161 2.326 . S
O1177 C1165 1.242 . S
O1178 Eu1162 2.324 . S
O1178 C1165 1.258 . S
O1179 Tb1161 2.500 . S
O1179 C1181 1.273 . S
O1180 Tb1161 2.473 . S
O1180 C1181 1.257 . S
C1181 O1179 1.273 . S
C1181 O1180 1.257 . S
O1182 Eu1162 2.326 . S
O1182 C1170 1.242 . S
O1183 Tb1161 2.324 . S
O1183 C1170 1.258 . S
O1184 Eu1162 2.500 . S
O1184 C1167 1.273 . S
O1185 Eu1162 2.473 . S
O1185 C1167 1.257 . S
H1186 C1172 0.929 . S
H1187 C1174 0.931 . S
H1188 C1176 0.929 . S
O1189 Tb1190 2.292 . S
O1189 C1192 1.255 . S
Tb1190 O1189 2.292 . S
Tb1190 O1206 2.326 . S
Tb1190 O1208 2.500 . S
Tb1190 O1209 2.473 . S
Tb1190 O1212 2.324 . S
Eu1191 O1195 2.292 . S
Eu1191 C1196 2.852 . S
Eu1191 O1207 2.324 . S
Eu1191 O1211 2.326 . S
Eu1191 O1213 2.500 . S
Eu1191 O1214 2.473 . S
C1192 O1189 1.255 . S
C1192 O1193 1.247 . S
O1193 C1192 1.247 . S
C1194 O1206 1.242 . S
C1194 O1207 1.258 . S
O1195 Eu1191 2.292 . S
O1195 C1197 1.255 . S
C1196 Eu1191 2.852 . S
C1196 C1200 1.503 . S
C1196 O1213 1.273 . S
C1196 O1214 1.257 . S
C1197 O1195 1.255 . S
C1197 O1198 1.247 . S
O1198 C1197 1.247 . S
C1199 O1211 1.242 . S
C1199 O1212 1.258 . S
C1200 C1196 1.503 . S
C1200 C1201 1.379 . S
C1200 C1205 1.392 . S
C1201 C1200 1.379 . S
C1201 C1202 1.404 . S
C1201 H1215 0.929 . S
C1202 C1201 1.404 . S
C1202 C1203 1.389 . S
C1203 C1202 1.389 . S
C1203 C1204 1.399 . S
C1203 H1216 0.931 . S
C1204 C1203 1.399 . S
C1204 C1205 1.390 . S
C1205 C1200 1.392 . S
C1205 C1204 1.390 . S
C1205 H1217 0.929 . S
O1206 Tb1190 2.326 . S
O1206 C1194 1.242 . S
O1207 Eu1191 2.324 . S
O1207 C1194 1.258 . S
O1208 Tb1190 2.500 . S
O1208 C1210 1.273 . S
O1209 Tb1190 2.473 . S
O1209 C1210 1.257 . S
C1210 O1208 1.273 . S
C1210 O1209 1.257 . S
O1211 Eu1191 2.326 . S
O1211 C1199 1.242 . S
O1212 Tb1190 2.324 . S
O1212 C1199 1.258 . S
O1213 Eu1191 2.500 . S
O1213 C1196 1.273 . S
O1214 Eu1191 2.473 . S
O1214 C1196 1.257 . S
H1215 C1201 0.929 . S
H1216 C1203 0.931 . S
H1217 C1205 0.929 . S
O1218 Tb1219 2.292 . S
O1218 C1221 1.255 . S
Tb1219 O1218 2.292 . S
Tb1219 O1235 2.326 . S
Tb1219 O1237 2.500 . S
Tb1219 O1238 2.473 . S
Tb1219 O1241 2.324 . S
Eu1220 O1224 2.292 . S
Eu1220 C1225 2.852 . S
Eu1220 O1236 2.324 . S
Eu1220 O1240 2.326 . S
Eu1220 O1242 2.500 . S
Eu1220 O1243 2.473 . S
C1221 O1218 1.255 . S
C1221 O1222 1.247 . S
O1222 C1221 1.247 . S
C1223 O1235 1.242 . S
C1223 O1236 1.258 . S
O1224 Eu1220 2.292 . S
O1224 C1226 1.255 . S
C1225 Eu1220 2.852 . S
C1225 C1229 1.503 . S
C1225 O1242 1.273 . S
C1225 O1243 1.257 . S
C1226 O1224 1.255 . S
C1226 O1227 1.247 . S
O1227 C1226 1.247 . S
C1228 O1240 1.242 . S
C1228 O1241 1.258 . S
C1229 C1225 1.503 . S
C1229 C1230 1.379 . S
C1229 C1234 1.392 . S
C1230 C1229 1.379 . S
C1230 C1231 1.404 . S
C1230 H1244 0.929 . S
C1231 C1230 1.404 . S
C1231 C1232 1.389 . S
C1232 C1231 1.389 . S
C1232 C1233 1.399 . S
C1232 H1245 0.931 . S
C1233 C1232 1.399 . S
C1233 C1234 1.390 . S
C1234 C1229 1.392 . S
C1234 C1233 1.390 . S
C1234 H1246 0.929 . S
O1235 Tb1219 2.326 . S
O1235 C1223 1.242 . S
O1236 Eu1220 2.324 . S
O1236 C1223 1.258 . S
O1237 Tb1219 2.500 . S
O1237 C1239 1.273 . S
O1238 Tb1219 2.473 . S
O1238 C1239 1.257 . S
C1239 O1237 1.273 . S
C1239 O1238 1.257 . S
O1240 Eu1220 2.326 . S
O1240 C1228 1.242 . S
O1241 Tb1219 2.324 . S
O1241 C1228 1.258 . S
O1242 Eu1220 2.500 . S
O1242 C1225 1.273 . S
O1243 Eu1220 2.473 . S
O1243 C1225 1.257 . S
H1244 C1230 0.929 . S
H1245 C1232 0.931 . S
H1246 C1234 0.929 . S
O1247 Tb1248 2.292 . S
O1247 C1250 1.255 . S
Tb1248 O1247 2.292 . S
Tb1248 O1264 2.326 . S
Tb1248 O1266 2.500 . S
Tb1248 O1267 2.473 . S
Tb1248 O1270 2.324 . S
Eu1249 O1253 2.292 . S
Eu1249 C1254 2.852 . S
Eu1249 O1265 2.324 . S
Eu1249 O1269 2.326 . S
Eu1249 O1271 2.500 . S
Eu1249 O1272 2.473 . S
C1250 O1247 1.255 . S
C1250 O1251 1.247 . S
O1251 C1250 1.247 . S
C1252 O1264 1.242 . S
C1252 O1265 1.258 . S
O1253 Eu1249 2.292 . S
O1253 C1255 1.255 . S
C1254 Eu1249 2.852 . S
C1254 C1258 1.503 . S
C1254 O1271 1.273 . S
C1254 O1272 1.257 . S
C1255 O1253 1.255 . S
C1255 O1256 1.247 . S
O1256 C1255 1.247 . S
C1257 O1269 1.242 . S
C1257 O1270 1.258 . S
C1258 C1254 1.503 . S
C1258 C1259 1.379 . S
C1258 C1263 1.392 . S
C1259 C1258 1.379 . S
C1259 C1260 1.404 . S
C1259 H1273 0.929 . S
C1260 C1259 1.404 . S
C1260 C1261 1.389 . S
C1261 C1260 1.389 . S
C1261 C1262 1.399 . S
C1261 H1274 0.931 . S
C1262 C1261 1.399 . S
C1262 C1263 1.390 . S
C1263 C1258 1.392 . S
C1263 C1262 1.390 . S
C1263 H1275 0.929 . S
O1264 Tb1248 2.326 . S
O1264 C1252 1.242 . S
O1265 Eu1249 2.324 . S
O1265 C1252 1.258 . S
O1266 Tb1248 2.500 . S
O1266 C1268 1.273 . S
O1267 Tb1248 2.473 . S
O1267 C1268 1.257 . S
C1268 O1266 1.273 . S
C1268 O1267 1.257 . S
O1269 Eu1249 2.326 . S
O1269 C1257 1.242 . S
O1270 Tb1248 2.324 . S
O1270 C1257 1.258 . S
O1271 Eu1249 2.500 . S
O1271 C1254 1.273 . S
O1272 Eu1249 2.473 . S
O1272 C1254 1.257 . S
H1273 C1259 0.929 . S
H1274 C1261 0.931 . S
H1275 C1263 0.929 . S
O1276 Tb1277 2.292 . S
O1276 C1279 1.255 . S
Tb1277 O1276 2.292 . S
Tb1277 O1293 2.326 . S
Tb1277 O1295 2.500 . S
Tb1277 O1296 2.473 . S
Tb1277 O1299 2.324 . S
Eu1278 O1282 2.292 . S
Eu1278 C1283 2.852 . S
Eu1278 O1294 2.324 . S
Eu1278 O1298 2.326 . S
Eu1278 O1300 2.500 . S
Eu1278 O1301 2.473 . S
C1279 O1276 1.255 . S
C1279 O1280 1.247 . S
O1280 C1279 1.247 . S
C1281 O1293 1.242 . S
C1281 O1294 1.258 . S
O1282 Eu1278 2.292 . S
O1282 C1284 1.255 . S
C1283 Eu1278 2.852 . S
C1283 C1287 1.503 . S
C1283 O1300 1.273 . S
C1283 O1301 1.257 . S
C1284 O1282 1.255 . S
C1284 O1285 1.247 . S
O1285 C1284 1.247 . S
C1286 O1298 1.242 . S
C1286 O1299 1.258 . S
C1287 C1283 1.503 . S
C1287 C1288 1.379 . S
C1287 C1292 1.392 . S
C1288 C1287 1.379 . S
C1288 C1289 1.404 . S
C1288 H1302 0.929 . S
C1289 C1288 1.404 . S
C1289 C1290 1.389 . S
C1290 C1289 1.389 . S
C1290 C1291 1.399 . S
C1290 H1303 0.931 . S
C1291 C1290 1.399 . S
C1291 C1292 1.390 . S
C1292 C1287 1.392 . S
C1292 C1291 1.390 . S
C1292 H1304 0.929 . S
O1293 Tb1277 2.326 . S
O1293 C1281 1.242 . S
O1294 Eu1278 2.324 . S
O1294 C1281 1.258 . S
O1295 Tb1277 2.500 . S
O1295 C1297 1.273 . S
O1296 Tb1277 2.473 . S
O1296 C1297 1.257 . S
C1297 O1295 1.273 . S
C1297 O1296 1.257 . S
O1298 Eu1278 2.326 . S
O1298 C1286 1.242 . S
O1299 Tb1277 2.324 . S
O1299 C1286 1.258 . S
O1300 Eu1278 2.500 . S
O1300 C1283 1.273 . S
O1301 Eu1278 2.473 . S
O1301 C1283 1.257 . S
H1302 C1288 0.929 . S
H1303 C1290 0.931 . S
H1304 C1292 0.929 . S
O1305 Tb1306 2.292 . S
O1305 C1308 1.255 . S
Tb1306 O1305 2.292 . S
Tb1306 O1322 2.326 . S
Tb1306 O1324 2.500 . S
Tb1306 O1325 2.473 . S
Tb1306 O1328 2.324 . S
Eu1307 O1311 2.292 . S
Eu1307 C1312 2.852 . S
Eu1307 O1323 2.324 . S
Eu1307 O1327 2.326 . S
Eu1307 O1329 2.500 . S
Eu1307 O1330 2.473 . S
C1308 O1305 1.255 . S
C1308 O1309 1.247 . S
O1309 C1308 1.247 . S
C1310 O1322 1.242 . S
C1310 O1323 1.258 . S
O1311 Eu1307 2.292 . S
O1311 C1313 1.255 . S
C1312 Eu1307 2.852 . S
C1312 C1316 1.503 . S
C1312 O1329 1.273 . S
C1312 O1330 1.257 . S
C1313 O1311 1.255 . S
C1313 O1314 1.247 . S
O1314 C1313 1.247 . S
C1315 O1327 1.242 . S
C1315 O1328 1.258 . S
C1316 C1312 1.503 . S
C1316 C1317 1.379 . S
C1316 C1321 1.392 . S
C1317 C1316 1.379 . S
C1317 C1318 1.404 . S
C1317 H1331 0.929 . S
C1318 C1317 1.404 . S
C1318 C1319 1.389 . S
C1319 C1318 1.389 . S
C1319 C1320 1.399 . S
C1319 H1332 0.931 . S
C1320 C1319 1.399 . S
C1320 C1321 1.390 . S
C1321 C1316 1.392 . S
C1321 C1320 1.390 . S
C1321 H1333 0.929 . S
O1322 Tb1306 2.326 . S
O1322 C1310 1.242 . S
O1323 Eu1307 2.324 . S
O1323 C1310 1.258 . S
O1324 Tb1306 2.500 . S
O1324 C1326 1.273 . S
O1325 Tb1306 2.473 . S
O1325 C1326 1.257 . S
C1326 O1324 1.273 . S
C1326 O1325 1.257 . S
O1327 Eu1307 2.326 . S
O1327 C1315 1.242 . S
O1328 Tb1306 2.324 . S
O1328 C1315 1.258 . S
O1329 Eu1307 2.500 . S
O1329 C1312 1.273 . S
O1330 Eu1307 2.473 . S
O1330 C1312 1.257 . S
H1331 C1317 0.929 . S
H1332 C1319 0.931 . S
H1333 C1321 0.929 . S
O1334 Tb1335 2.292 . S
O1334 C1337 1.255 . S
Tb1335 O1334 2.292 . S
Tb1335 O1351 2.326 . S
Tb1335 O1353 2.500 . S
Tb1335 O1354 2.473 . S
Tb1335 O1357 2.324 . S
Eu1336 O1340 2.292 . S
Eu1336 C1341 2.852 . S
Eu1336 O1352 2.324 . S
Eu1336 O1356 2.326 . S
Eu1336 O1358 2.500 . S
Eu1336 O1359 2.473 . S
C1337 O1334 1.255 . S
C1337 O1338 1.247 . S
O1338 C1337 1.247 . S
C1339 O1351 1.242 . S
C1339 O1352 1.258 . S
O1340 Eu1336 2.292 . S
O1340 C1342 1.255 . S
C1341 Eu1336 2.852 . S
C1341 C1345 1.503 . S
C1341 O1358 1.273 . S
C1341 O1359 1.257 . S
C1342 O1340 1.255 . S
C1342 O1343 1.247 . S
O1343 C1342 1.247 . S
C1344 O1356 1.242 . S
C1344 O1357 1.258 . S
C1345 C1341 1.503 . S
C1345 C1346 1.379 . S
C1345 C1350 1.392 . S
C1346 C1345 1.379 . S
C1346 C1347 1.404 . S
C1346 H1360 0.929 . S
C1347 C1346 1.404 . S
C1347 C1348 1.389 . S
C1348 C1347 1.389 . S
C1348 C1349 1.399 . S
C1348 H1361 0.931 . S
C1349 C1348 1.399 . S
C1349 C1350 1.390 . S
C1350 C1345 1.392 . S
C1350 C1349 1.390 . S
C1350 H1362 0.929 . S
O1351 Tb1335 2.326 . S
O1351 C1339 1.242 . S
O1352 Eu1336 2.324 . S
O1352 C1339 1.258 . S
O1353 Tb1335 2.500 . S
O1353 C1355 1.273 . S
O1354 Tb1335 2.473 . S
O1354 C1355 1.257 . S
C1355 O1353 1.273 . S
C1355 O1354 1.257 . S
O1356 Eu1336 2.326 . S
O1356 C1344 1.242 . S
O1357 Tb1335 2.324 . S
O1357 C1344 1.258 . S
O1358 Eu1336 2.500 . S
O1358 C1341 1.273 . S
O1359 Eu1336 2.473 . S
O1359 C1341 1.257 . S
H1360 C1346 0.929 . S
H1361 C1348 0.931 . S
H1362 C1350 0.929 . S
O1363 Tb1364 2.292 . S
O1363 C1366 1.255 . S
Tb1364 O1363 2.292 . S
Tb1364 O1380 2.326 . S
Tb1364 O1382 2.500 . S
Tb1364 O1383 2.473 . S
Tb1364 O1386 2.324 . S
Eu1365 O1369 2.292 . S
Eu1365 C1370 2.852 . S
Eu1365 O1381 2.324 . S
Eu1365 O1385 2.326 . S
Eu1365 O1387 2.500 . S
Eu1365 O1388 2.473 . S
C1366 O1363 1.255 . S
C1366 O1367 1.247 . S
O1367 C1366 1.247 . S
C1368 O1380 1.242 . S
C1368 O1381 1.258 . S
O1369 Eu1365 2.292 . S
O1369 C1371 1.255 . S
C1370 Eu1365 2.852 . S
C1370 C1374 1.503 . S
C1370 O1387 1.273 . S
C1370 O1388 1.257 . S
C1371 O1369 1.255 . S
C1371 O1372 1.247 . S
O1372 C1371 1.247 . S
C1373 O1385 1.242 . S
C1373 O1386 1.258 . S
C1374 C1370 1.503 . S
C1374 C1375 1.379 . S
C1374 C1379 1.392 . S
C1375 C1374 1.379 . S
C1375 C1376 1.404 . S
C1375 H1389 0.929 . S
C1376 C1375 1.404 . S
C1376 C1377 1.389 . S
C1377 C1376 1.389 . S
C1377 C1378 1.399 . S
C1377 H1390 0.931 . S
C1378 C1377 1.399 . S
C1378 C1379 1.390 . S
C1379 C1374 1.392 . S
C1379 C1378 1.390 . S
C1379 H1391 0.929 . S
O1380 Tb1364 2.326 . S
O1380 C1368 1.242 . S
O1381 Eu1365 2.324 . S
O1381 C1368 1.258 . S
O1382 Tb1364 2.500 . S
O1382 C1384 1.273 . S
O1383 Tb1364 2.473 . S
O1383 C1384 1.257 . S
C1384 O1382 1.273 . S
C1384 O1383 1.257 . S
O1385 Eu1365 2.326 . S
O1385 C1373 1.242 . S
O1386 Tb1364 2.324 . S
O1386 C1373 1.258 . S
O1387 Eu1365 2.500 . S
O1387 C1370 1.273 . S
O1388 Eu1365 2.473 . S
O1388 C1370 1.257 . S
H1389 C1375 0.929 . S
H1390 C1377 0.931 . S
H1391 C1379 0.929 . S
H1392 C1400 0.950 . S
H1393 C1405 0.950 . S
H1394 C1402 0.950 . S
H1395 C1404 0.950 . S
H1396 C1406 0.950 . S
H1397 C1408 0.950 . S
H1398 C1410 0.950 . S
H1399 C1411 0.950 . S
C1400 H1392 0.950 . S
C1400 C1401 1.386 . S
C1400 C1402 1.391 . S
C1401 C1400 1.386 . S
C1401 C1405 1.393 . S
C1402 H1394 0.950 . S
C1402 C1400 1.391 . S
C1402 C1403 1.400 . S
C1403 C1402 1.400 . S
C1403 C1404 1.398 . S
C1403 C1409 1.491 . S
C1404 H1395 0.950 . S
C1404 C1403 1.398 . S
C1404 C1405 1.391 . S
C1405 H1393 0.950 . S
C1405 C1401 1.393 . S
C1405 C1404 1.391 . S
C1406 H1396 0.950 . S
C1406 C1407 1.386 . S
C1406 C1408 1.391 . S
C1407 C1406 1.386 . S
C1407 C1411 1.393 . S
C1408 H1397 0.950 . S
C1408 C1406 1.391 . S
C1408 C1409 1.400 . S
C1409 C1403 1.491 . S
C1409 C1408 1.400 . S
C1409 C1410 1.398 . S
C1410 H1398 0.950 . S
C1410 C1409 1.398 . S
C1410 C1411 1.391 . S
C1411 H1399 0.950 . S
C1411 C1407 1.393 . S
C1411 C1410 1.391 . S
H1412 C1420 0.950 . S
H1413 C1425 0.950 . S
H1414 C1422 0.950 . S
H1415 C1424 0.950 . S
H1416 C1426 0.950 . S
H1417 C1428 0.950 . S
H1418 C1430 0.950 . S
H1419 C1431 0.950 . S
C1420 H1412 0.950 . S
C1420 C1421 1.386 . S
C1420 C1422 1.391 . S
C1421 C1420 1.386 . S
C1421 C1425 1.393 . S
C1422 H1414 0.950 . S
C1422 C1420 1.391 . S
C1422 C1423 1.400 . S
C1423 C1422 1.400 . S
C1423 C1424 1.398 . S
C1423 C1429 1.491 . S
C1424 H1415 0.950 . S
C1424 C1423 1.398 . S
C1424 C1425 1.391 . S
C1425 H1413 0.950 . S
C1425 C1421 1.393 . S
C1425 C1424 1.391 . S
C1426 H1416 0.950 . S
C1426 C1427 1.386 . S
C1426 C1428 1.391 . S
C1427 C1426 1.386 . S
C1427 C1431 1.393 . S
C1428 H1417 0.950 . S
C1428 C1426 1.391 . S
C1428 C1429 1.400 . S
C1429 C1423 1.491 . S
C1429 C1428 1.400 . S
C1429 C1430 1.398 . S
C1430 H1418 0.950 . S
C1430 C1429 1.398 . S
C1430 C1431 1.391 . S
C1431 H1419 0.950 . S
C1431 C1427 1.393 . S
C1431 C1430 1.391 . S
H1432 C1440 0.950 . S
H1433 C1445 0.950 . S
H1434 C1442 0.950 . S
H1435 C1444 0.950 . S
H1436 C1446 0.950 . S
H1437 C1448 0.950 . S
H1438 C1450 0.950 . S
H1439 C1451 0.950 . S
C1440 H1432 0.950 . S
C1440 C1441 1.386 . S
C1440 C1442 1.391 . S
C1441 C1440 1.386 . S
C1441 C1445 1.393 . S
C1442 H1434 0.950 . S
C1442 C1440 1.391 . S
C1442 C1443 1.400 . S
C1443 C1442 1.400 . S
C1443 C1444 1.398 . S
C1443 C1449 1.491 . S
C1444 H1435 0.950 . S
C1444 C1443 1.398 . S
C1444 C1445 1.391 . S
C1445 H1433 0.950 . S
C1445 C1441 1.393 . S
C1445 C1444 1.391 . S
C1446 H1436 0.950 . S
C1446 C1447 1.386 . S
C1446 C1448 1.391 . S
C1447 C1446 1.386 . S
C1447 C1451 1.393 . S
C1448 H1437 0.950 . S
C1448 C1446 1.391 . S
C1448 C1449 1.400 . S
C1449 C1443 1.491 . S
C1449 C1448 1.400 . S
C1449 C1450 1.398 . S
C1450 H1438 0.950 . S
C1450 C1449 1.398 . S
C1450 C1451 1.391 . S
C1451 H1439 0.950 . S
C1451 C1447 1.393 . S
C1451 C1450 1.391 . S
H1452 C1460 0.950 . S
H1453 C1465 0.950 . S
H1454 C1462 0.950 . S
H1455 C1464 0.950 . S
H1456 C1466 0.950 . S
H1457 C1468 0.950 . S
H1458 C1470 0.950 . S
H1459 C1471 0.950 . S
C1460 H1452 0.950 . S
C1460 C1461 1.386 . S
C1460 C1462 1.391 . S
C1461 C1460 1.386 . S
C1461 C1465 1.393 . S
C1462 H1454 0.950 . S
C1462 C1460 1.391 . S
C1462 C1463 1.400 . S
C1463 C1462 1.400 . S
C1463 C1464 1.398 . S
C1463 C1469 1.491 . S
C1464 H1455 0.950 . S
C1464 C1463 1.398 . S
C1464 C1465 1.391 . S
C1465 H1453 0.950 . S
C1465 C1461 1.393 . S
C1465 C1464 1.391 . S
C1466 H1456 0.950 . S
C1466 C1467 1.386 . S
C1466 C1468 1.391 . S
C1467 C1466 1.386 . S
C1467 C1471 1.393 . S
C1468 H1457 0.950 . S
C1468 C1466 1.391 . S
C1468 C1469 1.400 . S
C1469 C1463 1.491 . S
C1469 C1468 1.400 . S
C1469 C1470 1.398 . S
C1470 H1458 0.950 . S
C1470 C1469 1.398 . S
C1470 C1471 1.391 . S
C1471 H1459 0.950 . S
C1471 C1467 1.393 . S
C1471 C1470 1.391 . S
H1472 C1480 0.950 . S
H1473 C1485 0.950 . S
H1474 C1482 0.950 . S
H1475 C1484 0.950 . S
H1476 C1486 0.950 . S
H1477 C1488 0.950 . S
H1478 C1490 0.950 . S
H1479 C1491 0.950 . S
C1480 H1472 0.950 . S
C1480 C1481 1.386 . S
C1480 C1482 1.391 . S
C1481 C1480 1.386 . S
C1481 C1485 1.393 . S
C1482 H1474 0.950 . S
C1482 C1480 1.391 . S
C1482 C1483 1.400 . S
C1483 C1482 1.400 . S
C1483 C1484 1.398 . S
C1483 C1489 1.491 . S
C1484 H1475 0.950 . S
C1484 C1483 1.398 . S
C1484 C1485 1.391 . S
C1485 H1473 0.950 . S
C1485 C1481 1.393 . S
C1485 C1484 1.391 . S
C1486 H1476 0.950 . S
C1486 C1487 1.386 . S
C1486 C1488 1.391 . S
C1487 C1486 1.386 . S
C1487 C1491 1.393 . S
C1488 H1477 0.950 . S
C1488 C1486 1.391 . S
C1488 C1489 1.400 . S
C1489 C1483 1.491 . S
C1489 C1488 1.400 . S
C1489 C1490 1.398 . S
C1490 H1478 0.950 . S
C1490 C1489 1.398 . S
C1490 C1491 1.391 . S
C1491 H1479 0.950 . S
C1491 C1487 1.393 . S
C1491 C1490 1.391 . S
H1492 C1500 0.950 . S
H1493 C1505 0.950 . S
H1494 C1502 0.950 . S
H1495 C1504 0.950 . S
H1496 C1506 0.950 . S
H1497 C1508 0.950 . S
H1498 C1510 0.950 . S
H1499 C1511 0.950 . S
C1500 H1492 0.950 . S
C1500 C1501 1.386 . S
C1500 C1502 1.391 . S
C1501 C1500 1.386 . S
C1501 C1505 1.393 . S
C1502 H1494 0.950 . S
C1502 C1500 1.391 . S
C1502 C1503 1.400 . S
C1503 C1502 1.400 . S
C1503 C1504 1.398 . S
C1503 C1509 1.491 . S
C1504 H1495 0.950 . S
C1504 C1503 1.398 . S
C1504 C1505 1.391 . S
C1505 H1493 0.950 . S
C1505 C1501 1.393 . S
C1505 C1504 1.391 . S
C1506 H1496 0.950 . S
C1506 C1507 1.386 . S
C1506 C1508 1.391 . S
C1507 C1506 1.386 . S
C1507 C1511 1.393 . S
C1508 H1497 0.950 . S
C1508 C1506 1.391 . S
C1508 C1509 1.400 . S
C1509 C1503 1.491 . S
C1509 C1508 1.400 . S
C1509 C1510 1.398 . S
C1510 H1498 0.950 . S
C1510 C1509 1.398 . S
C1510 C1511 1.391 . S
C1511 H1499 0.950 . S
C1511 C1507 1.393 . S
C1511 C1510 1.391 . S
H1512 C1520 0.950 . S
H1513 C1525 0.950 . S
H1514 C1522 0.950 . S
H1515 C1524 0.950 . S
H1516 C1526 0.950 . S
H1517 C1528 0.950 . S
H1518 C1530 0.950 . S
H1519 C1531 0.950 . S
C1520 H1512 0.950 . S
C1520 C1521 1.386 . S
C1520 C1522 1.391 . S
C1521 C1520 1.386 . S
C1521 C1525 1.393 . S
C1522 H1514 0.950 . S
C1522 C1520 1.391 . S
C1522 C1523 1.400 . S
C1523 C1522 1.400 . S
C1523 C1524 1.398 . S
C1523 C1529 1.491 . S
C1524 H1515 0.950 . S
C1524 C1523 1.398 . S
C1524 C1525 1.391 . S
C1525 H1513 0.950 . S
C1525 C1521 1.393 . S
C1525 C1524 1.391 . S
C1526 H1516 0.950 . S
C1526 C1527 1.386 . S
C1526 C1528 1.391 . S
C1527 C1526 1.386 . S
C1527 C1531 1.393 . S
C1528 H1517 0.950 . S
C1528 C1526 1.391 . S
C1528 C1529 1.400 . S
C1529 C1523 1.491 . S
C1529 C1528 1.400 . S
C1529 C1530 1.398 . S
C1530 H1518 0.950 . S
C1530 C1529 1.398 . S
C1530 C1531 1.391 . S
C1531 H1519 0.950 . S
C1531 C1527 1.393 . S
C1531 C1530 1.391 . S
H1532 C1540 0.950 . S
H1533 C1545 0.950 . S
H1534 C1542 0.950 . S
H1535 C1544 0.950 . S
H1536 C1546 0.950 . S
H1537 C1548 0.950 . S
H1538 C1550 0.950 . S
H1539 C1551 0.950 . S
C1540 H1532 0.950 . S
C1540 C1541 1.386 . S
C1540 C1542 1.391 . S
C1541 C1540 1.386 . S
C1541 C1545 1.393 . S
C1542 H1534 0.950 . S
C1542 C1540 1.391 . S
C1542 C1543 1.400 . S
C1543 C1542 1.400 . S
C1543 C1544 1.398 . S
C1543 C1549 1.491 . S
C1544 H1535 0.950 . S
C1544 C1543 1.398 . S
C1544 C1545 1.391 . S
C1545 H1533 0.950 . S
C1545 C1541 1.393 . S
C1545 C1544 1.391 . S
C1546 H1536 0.950 . S
C1546 C1547 1.386 . S
C1546 C1548 1.391 . S
C1547 C1546 1.386 . S
C1547 C1551 1.393 . S
C1548 H1537 0.950 . S
C1548 C1546 1.391 . S
C1548 C1549 1.400 . S
C1549 C1543 1.491 . S
C1549 C1548 1.400 . S
C1549 C1550 1.398 . S
C1550 H1538 0.950 . S
C1550 C1549 1.398 . S
C1550 C1551 1.391 . S
C1551 H1539 0.950 . S
C1551 C1547 1.393 . S
C1551 C1550 1.391 . S
H1552 C1560 0.950 . S
H1553 C1565 0.950 . S
H1554 C1562 0.950 . S
H1555 C1564 0.950 . S
H1556 C1566 0.950 . S
H1557 C1568 0.950 . S
H1558 C1570 0.950 . S
H1559 C1571 0.950 . S
C1560 H1552 0.950 . S
C1560 C1561 1.386 . S
C1560 C1562 1.391 . S
C1561 C1560 1.386 . S
C1561 C1565 1.393 . S
C1562 H1554 0.950 . S
C1562 C1560 1.391 . S
C1562 C1563 1.400 . S
C1563 C1562 1.400 . S
C1563 C1564 1.398 . S
C1563 C1569 1.491 . S
C1564 H1555 0.950 . S
C1564 C1563 1.398 . S
C1564 C1565 1.391 . S
C1565 H1553 0.950 . S
C1565 C1561 1.393 . S
C1565 C1564 1.391 . S
C1566 H1556 0.950 . S
C1566 C1567 1.386 . S
C1566 C1568 1.391 . S
C1567 C1566 1.386 . S
C1567 C1571 1.393 . S
C1568 H1557 0.950 . S
C1568 C1566 1.391 . S
C1568 C1569 1.400 . S
C1569 C1563 1.491 . S
C1569 C1568 1.400 . S
C1569 C1570 1.398 . S
C1570 H1558 0.950 . S
C1570 C1569 1.398 . S
C1570 C1571 1.391 . S
C1571 H1559 0.950 . S
C1571 C1567 1.393 . S
C1571 C1570 1.391 . S
H1572 C1580 0.950 . S
H1573 C1585 0.950 . S
H1574 C1582 0.950 . S
H1575 C1584 0.950 . S
H1576 C1586 0.950 . S
H1577 C1588 0.950 . S
H1578 C1590 0.950 . S
H1579 C1591 0.950 . S
C1580 H1572 0.950 . S
C1580 C1581 1.386 . S
C1580 C1582 1.391 . S
C1581 C1580 1.386 . S
C1581 C1585 1.393 . S
C1582 H1574 0.950 . S
C1582 C1580 1.391 . S
C1582 C1583 1.400 . S
C1583 C1582 1.400 . S
C1583 C1584 1.398 . S
C1583 C1589 1.491 . S
C1584 H1575 0.950 . S
C1584 C1583 1.398 . S
C1584 C1585 1.391 . S
C1585 H1573 0.950 . S
C1585 C1581 1.393 . S
C1585 C1584 1.391 . S
C1586 H1576 0.950 . S
C1586 C1587 1.386 . S
C1586 C1588 1.391 . S
C1587 C1586 1.386 . S
C1587 C1591 1.393 . S
C1588 H1577 0.950 . S
C1588 C1586 1.391 . S
C1588 C1589 1.400 . S
C1589 C1583 1.491 . S
C1589 C1588 1.400 . S
C1589 C1590 1.398 . S
C1590 H1578 0.950 . S
C1590 C1589 1.398 . S
C1590 C1591 1.391 . S
C1591 H1579 0.950 . S
C1591 C1587 1.393 . S
C1591 C1590 1.391 . S
H1592 C1600 0.950 . S
H1593 C1605 0.950 . S
H1594 C1602 0.950 . S
H1595 C1604 0.950 . S
H1596 C1606 0.950 . S
H1597 C1608 0.950 . S
H1598 C1610 0.950 . S
H1599 C1611 0.950 . S
C1600 H1592 0.950 . S
C1600 C1601 1.386 . S
C1600 C1602 1.391 . S
C1601 C1600 1.386 . S
C1601 C1605 1.393 . S
C1602 H1594 0.950 . S
C1602 C1600 1.391 . S
C1602 C1603 1.400 . S
C1603 C1602 1.400 . S
C1603 C1604 1.398 . S
C1603 C1609 1.491 . S
C1604 H1595 0.950 . S
C1604 C1603 1.398 . S
C1604 C1605 1.391 . S
C1605 H1593 0.950 . S
C1605 C1601 1.393 . S
C1605 C1604 1.391 . S
C1606 H1596 0.950 . S
C1606 C1607 1.386 . S
C1606 C1608 1.391 . S
C1607 C1606 1.386 . S
C1607 C1611 1.393 . S
C1608 H1597 0.950 . S
C1608 C1606 1.391 . S
C1608 C1609 1.400 . S
C1609 C1603 1.491 . S
C1609 C1608 1.400 . S
C1609 C1610 1.398 . S
C1610 H1598 0.950 . S
C1610 C1609 1.398 . S
C1610 C1611 1.391 . S
C1611 H1599 0.950 . S
C1611 C1607 1.393 . S
C1611 C1610 1.391 . S
H1612 C1620 0.950 . S
H1613 C1625 0.950 . S
H1614 C1622 0.950 . S
H1615 C1624 0.950 . S
H1616 C1626 0.950 . S
H1617 C1628 0.950 . S
H1618 C1630 0.950 . S
H1619 C1631 0.950 . S
C1620 H1612 0.950 . S
C1620 C1621 1.386 . S
C1620 C1622 1.391 . S
C1621 C1620 1.386 . S
C1621 C1625 1.393 . S
C1622 H1614 0.950 . S
C1622 C1620 1.391 . S
C1622 C1623 1.400 . S
C1623 C1622 1.400 . S
C1623 C1624 1.398 . S
C1623 C1629 1.491 . S
C1624 H1615 0.950 . S
C1624 C1623 1.398 . S
C1624 C1625 1.391 . S
C1625 H1613 0.950 . S
C1625 C1621 1.393 . S
C1625 C1624 1.391 . S
C1626 H1616 0.950 . S
C1626 C1627 1.386 . S
C1626 C1628 1.391 . S
C1627 C1626 1.386 . S
C1627 C1631 1.393 . S
C1628 H1617 0.950 . S
C1628 C1626 1.391 . S
C1628 C1629 1.400 . S
C1629 C1623 1.491 . S
C1629 C1628 1.400 . S
C1629 C1630 1.398 . S
C1630 H1618 0.950 . S
C1630 C1629 1.398 . S
C1630 C1631 1.391 . S
C1631 H1619 0.950 . S
C1631 C1627 1.393 . S
C1631 C1630 1.391 . S
H1632 C1640 0.950 . S
H1633 C1645 0.950 . S
H1634 C1642 0.950 . S
H1635 C1644 0.950 . S
H1636 C1646 0.950 . S
H1637 C1648 0.950 . S
H1638 C1650 0.950 . S
H1639 C1651 0.950 . S
C1640 H1632 0.950 . S
C1640 C1641 1.386 . S
C1640 C1642 1.391 . S
C1641 C1640 1.386 . S
C1641 C1645 1.393 . S
C1642 H1634 0.950 . S
C1642 C1640 1.391 . S
C1642 C1643 1.400 . S
C1643 C1642 1.400 . S
C1643 C1644 1.398 . S
C1643 C1649 1.491 . S
C1644 H1635 0.950 . S
C1644 C1643 1.398 . S
C1644 C1645 1.391 . S
C1645 H1633 0.950 . S
C1645 C1641 1.393 . S
C1645 C1644 1.391 . S
C1646 H1636 0.950 . S
C1646 C1647 1.386 . S
C1646 C1648 1.391 . S
C1647 C1646 1.386 . S
C1647 C1651 1.393 . S
C1648 H1637 0.950 . S
C1648 C1646 1.391 . S
C1648 C1649 1.400 . S
C1649 C1643 1.491 . S
C1649 C1648 1.400 . S
C1649 C1650 1.398 . S
C1650 H1638 0.950 . S
C1650 C1649 1.398 . S
C1650 C1651 1.391 . S
C1651 H1639 0.950 . S
C1651 C1647 1.393 . S
C1651 C1650 1.391 . S
H1652 C1660 0.950 . S
H1653 C1665 0.950 . S
H1654 C1662 0.950 . S
H1655 C1664 0.950 . S
H1656 C1666 0.950 . S
H1657 C1668 0.950 . S
H1658 C1670 0.950 . S
H1659 C1671 0.950 . S
C1660 H1652 0.950 . S
C1660 C1661 1.386 . S
C1660 C1662 1.391 . S
C1661 C1660 1.386 . S
C1661 C1665 1.393 . S
C1662 H1654 0.950 . S
C1662 C1660 1.391 . S
C1662 C1663 1.400 . S
C1663 C1662 1.400 . S
C1663 C1664 1.398 . S
C1663 C1669 1.491 . S
C1664 H1655 0.950 . S
C1664 C1663 1.398 . S
C1664 C1665 1.391 . S
C1665 H1653 0.950 . S
C1665 C1661 1.393 . S
C1665 C1664 1.391 . S
C1666 H1656 0.950 . S
C1666 C1667 1.386 . S
C1666 C1668 1.391 . S
C1667 C1666 1.386 . S
C1667 C1671 1.393 . S
C1668 H1657 0.950 . S
C1668 C1666 1.391 . S
C1668 C1669 1.400 . S
C1669 C1663 1.491 . S
C1669 C1668 1.400 . S
C1669 C1670 1.398 . S
C1670 H1658 0.950 . S
C1670 C1669 1.398 . S
C1670 C1671 1.391 . S
C1671 H1659 0.950 . S
C1671 C1667 1.393 . S
C1671 C1670 1.391 . S
H1672 C1680 0.950 . S
H1673 C1685 0.950 . S
H1674 C1682 0.950 . S
H1675 C1684 0.950 . S
H1676 C1686 0.950 . S
H1677 C1688 0.950 . S
H1678 C1690 0.950 . S
H1679 C1691 0.950 . S
C1680 H1672 0.950 . S
C1680 C1681 1.386 . S
C1680 C1682 1.391 . S
C1681 C1680 1.386 . S
C1681 C1685 1.393 . S
C1682 H1674 0.950 . S
C1682 C1680 1.391 . S
C1682 C1683 1.400 . S
C1683 C1682 1.400 . S
C1683 C1684 1.398 . S
C1683 C1689 1.491 . S
C1684 H1675 0.950 . S
C1684 C1683 1.398 . S
C1684 C1685 1.391 . S
C1685 H1673 0.950 . S
C1685 C1681 1.393 . S
C1685 C1684 1.391 . S
C1686 H1676 0.950 . S
C1686 C1687 1.386 . S
C1686 C1688 1.391 . S
C1687 C1686 1.386 . S
C1687 C1691 1.393 . S
C1688 H1677 0.950 . S
C1688 C1686 1.391 . S
C1688 C1689 1.400 . S
C1689 C1683 1.491 . S
C1689 C1688 1.400 . S
C1689 C1690 1.398 . S
C1690 H1678 0.950 . S
C1690 C1689 1.398 . S
C1690 C1691 1.391 . S
C1691 H1679 0.950 . S
C1691 C1687 1.393 . S
C1691 C1690 1.391 . S
H1692 C1700 0.950 . S
H1693 C1705 0.950 . S
H1694 C1702 0.950 . S
H1695 C1704 0.950 . S
H1696 C1706 0.950 . S
H1697 C1708 0.950 . S
H1698 C1710 0.950 . S
H1699 C1711 0.950 . S
C1700 H1692 0.950 . S
C1700 C1701 1.386 . S
C1700 C1702 1.391 . S
C1701 C1700 1.386 . S
C1701 C1705 1.393 . S
C1702 H1694 0.950 . S
C1702 C1700 1.391 . S
C1702 C1703 1.400 . S
C1703 C1702 1.400 . S
C1703 C1704 1.398 . S
C1703 C1709 1.491 . S
C1704 H1695 0.950 . S
C1704 C1703 1.398 . S
C1704 C1705 1.391 . S
C1705 H1693 0.950 . S
C1705 C1701 1.393 . S
C1705 C1704 1.391 . S
C1706 H1696 0.950 . S
C1706 C1707 1.386 . S
C1706 C1708 1.391 . S
C1707 C1706 1.386 . S
C1707 C1711 1.393 . S
C1708 H1697 0.950 . S
C1708 C1706 1.391 . S
C1708 C1709 1.400 . S
C1709 C1703 1.491 . S
C1709 C1708 1.400 . S
C1709 C1710 1.398 . S
C1710 H1698 0.950 . S
C1710 C1709 1.398 . S
C1710 C1711 1.391 . S
C1711 H1699 0.950 . S
C1711 C1707 1.393 . S
C1711 C1710 1.391 . S
H1712 C1720 0.950 . S
H1713 C1725 0.950 . S
H1714 C1722 0.950 . S
H1715 C1724 0.950 . S
H1716 C1726 0.950 . S
H1717 C1728 0.950 . S
H1718 C1730 0.950 . S
H1719 C1731 0.950 . S
C1720 H1712 0.950 . S
C1720 C1721 1.386 . S
C1720 C1722 1.391 . S
C1721 C1720 1.386 . S
C1721 C1725 1.393 . S
C1722 H1714 0.950 . S
C1722 C1720 1.391 . S
C1722 C1723 1.400 . S
C1723 C1722 1.400 . S
C1723 C1724 1.398 . S
C1723 C1729 1.491 . S
C1724 H1715 0.950 . S
C1724 C1723 1.398 . S
C1724 C1725 1.391 . S
C1725 H1713 0.950 . S
C1725 C1721 1.393 . S
C1725 C1724 1.391 . S
C1726 H1716 0.950 . S
C1726 C1727 1.386 . S
C1726 C1728 1.391 . S
C1727 C1726 1.386 . S
C1727 C1731 1.393 . S
C1728 H1717 0.950 . S
C1728 C1726 1.391 . S
C1728 C1729 1.400 . S
C1729 C1723 1.491 . S
C1729 C1728 1.400 . S
C1729 C1730 1.398 . S
C1730 H1718 0.950 . S
C1730 C1729 1.398 . S
C1730 C1731 1.391 . S
C1731 H1719 0.950 . S
C1731 C1727 1.393 . S
C1731 C1730 1.391 . S
H1732 C1740 0.950 . S
H1733 C1745 0.950 . S
H1734 C1742 0.950 . S
H1735 C1744 0.950 . S
H1736 C1746 0.950 . S
H1737 C1748 0.950 . S
H1738 C1750 0.950 . S
H1739 C1751 0.950 . S
C1740 H1732 0.950 . S
C1740 C1741 1.386 . S
C1740 C1742 1.391 . S
C1741 C1740 1.386 . S
C1741 C1745 1.393 . S
C1742 H1734 0.950 . S
C1742 C1740 1.391 . S
C1742 C1743 1.400 . S
C1743 C1742 1.400 . S
C1743 C1744 1.398 . S
C1743 C1749 1.491 . S
C1744 H1735 0.950 . S
C1744 C1743 1.398 . S
C1744 C1745 1.391 . S
C1745 H1733 0.950 . S
C1745 C1741 1.393 . S
C1745 C1744 1.391 . S
C1746 H1736 0.950 . S
C1746 C1747 1.386 . S
C1746 C1748 1.391 . S
C1747 C1746 1.386 . S
C1747 C1751 1.393 . S
C1748 H1737 0.950 . S
C1748 C1746 1.391 . S
C1748 C1749 1.400 . S
C1749 C1743 1.491 . S
C1749 C1748 1.400 . S
C1749 C1750 1.398 . S
C1750 H1738 0.950 . S
C1750 C1749 1.398 . S
C1750 C1751 1.391 . S
C1751 H1739 0.950 . S
C1751 C1747 1.393 . S
C1751 C1750 1.391 . S
H1752 C1760 0.950 . S
H1753 C1765 0.950 . S
H1754 C1762 0.950 . S
H1755 C1764 0.950 . S
H1756 C1766 0.950 . S
H1757 C1768 0.950 . S
H1758 C1770 0.950 . S
H1759 C1771 0.950 . S
C1760 H1752 0.950 . S
C1760 C1761 1.386 . S
C1760 C1762 1.391 . S
C1761 C1760 1.386 . S
C1761 C1765 1.393 . S
C1762 H1754 0.950 . S
C1762 C1760 1.391 . S
C1762 C1763 1.400 . S
C1763 C1762 1.400 . S
C1763 C1764 1.398 . S
C1763 C1769 1.491 . S
C1764 H1755 0.950 . S
C1764 C1763 1.398 . S
C1764 C1765 1.391 . S
C1765 H1753 0.950 . S
C1765 C1761 1.393 . S
C1765 C1764 1.391 . S
C1766 H1756 0.950 . S
C1766 C1767 1.386 . S
C1766 C1768 1.391 . S
C1767 C1766 1.386 . S
C1767 C1771 1.393 . S
C1768 H1757 0.950 . S
C1768 C1766 1.391 . S
C1768 C1769 1.400 . S
C1769 C1763 1.491 . S
C1769 C1768 1.400 . S
C1769 C1770 1.398 . S
C1770 H1758 0.950 . S
C1770 C1769 1.398 . S
C1770 C1771 1.391 . S
C1771 H1759 0.950 . S
C1771 C1767 1.393 . S
C1771 C1770 1.391 . S
H1772 C1780 0.950 . S
H1773 C1785 0.950 . S
H1774 C1782 0.950 . S
H1775 C1784 0.950 . S
H1776 C1786 0.950 . S
H1777 C1788 0.950 . S
H1778 C1790 0.950 . S
H1779 C1791 0.950 . S
C1780 H1772 0.950 . S
C1780 C1781 1.386 . S
C1780 C1782 1.391 . S
C1781 C1780 1.386 . S
C1781 C1785 1.393 . S
C1782 H1774 0.950 . S
C1782 C1780 1.391 . S
C1782 C1783 1.400 . S
C1783 C1782 1.400 . S
C1783 C1784 1.398 . S
C1783 C1789 1.491 . S
C1784 H1775 0.950 . S
C1784 C1783 1.398 . S
C1784 C1785 1.391 . S
C1785 H1773 0.950 . S
C1785 C1781 1.393 . S
C1785 C1784 1.391 . S
C1786 H1776 0.950 . S
C1786 C1787 1.386 . S
C1786 C1788 1.391 . S
C1787 C1786 1.386 . S
C1787 C1791 1.393 . S
C1788 H1777 0.950 . S
C1788 C1786 1.391 . S
C1788 C1789 1.400 . S
C1789 C1783 1.491 . S
C1789 C1788 1.400 . S
C1789 C1790 1.398 . S
C1790 H1778 0.950 . S
C1790 C1789 1.398 . S
C1790 C1791 1.391 . S
C1791 H1779 0.950 . S
C1791 C1787 1.393 . S
C1791 C1790 1.391 . S
H1792 C1800 0.950 . S
H1793 C1805 0.950 . S
H1794 C1802 0.950 . S
H1795 C1804 0.950 . S
H1796 C1806 0.950 . S
H1797 C1808 0.950 . S
H1798 C1810 0.950 . S
H1799 C1811 0.950 . S
C1800 H1792 0.950 . S
C1800 C1801 1.386 . S
C1800 C1802 1.391 . S
C1801 C1800 1.386 . S
C1801 C1805 1.393 . S
C1802 H1794 0.950 . S
C1802 C1800 1.391 . S
C1802 C1803 1.400 . S
C1803 C1802 1.400 . S
C1803 C1804 1.398 . S
C1803 C1809 1.491 . S
C1804 H1795 0.950 . S
C1804 C1803 1.398 . S
C1804 C1805 1.391 . S
C1805 H1793 0.950 . S
C1805 C1801 1.393 . S
C1805 C1804 1.391 . S
C1806 H1796 0.950 . S
C1806 C1807 1.386 . S
C1806 C1808 1.391 . S
C1807 C1806 1.386 . S
C1807 C1811 1.393 . S
C1808 H1797 0.950 . S
C1808 C1806 1.391 . S
C1808 C1809 1.400 . S
C1809 C1803 1.491 . S
C1809 C1808 1.400 . S
C1809 C1810 1.398 . S
C1810 H1798 0.950 . S
C1810 C1809 1.398 . S
C1810 C1811 1.391 . S
C1811 H1799 0.950 . S
C1811 C1807 1.393 . S
C1811 C1810 1.391 . S
H1812 C1820 0.950 . S
H1813 C1825 0.950 . S
H1814 C1822 0.950 . S
H1815 C1824 0.950 . S
H1816 C1826 0.950 . S
H1817 C1828 0.950 . S
H1818 C1830 0.950 . S
H1819 C1831 0.950 . S
C1820 H1812 0.950 . S
C1820 C1821 1.386 . S
C1820 C1822 1.391 . S
C1821 C1820 1.386 . S
C1821 C1825 1.393 . S
C1822 H1814 0.950 . S
C1822 C1820 1.391 . S
C1822 C1823 1.400 . S
C1823 C1822 1.400 . S
C1823 C1824 1.398 . S
C1823 C1829 1.491 . S
C1824 H1815 0.950 . S
C1824 C1823 1.398 . S
C1824 C1825 1.391 . S
C1825 H1813 0.950 . S
C1825 C1821 1.393 . S
C1825 C1824 1.391 . S
C1826 H1816 0.950 . S
C1826 C1827 1.386 . S
C1826 C1828 1.391 . S
C1827 C1826 1.386 . S
C1827 C1831 1.393 . S
C1828 H1817 0.950 . S
C1828 C1826 1.391 . S
C1828 C1829 1.400 . S
C1829 C1823 1.491 . S
C1829 C1828 1.400 . S
C1829 C1830 1.398 . S
C1830 H1818 0.950 . S
C1830 C1829 1.398 . S
C1830 C1831 1.391 . S
C1831 H1819 0.950 . S
C1831 C1827 1.393 . S
C1831 C1830 1.391 . S
H1832 C1840 0.950 . S
H1833 C1845 0.950 . S
H1834 C1842 0.950 . S
H1835 C1844 0.950 . S
H1836 C1846 0.950 . S
H1837 C1848 0.950 . S
H1838 C1850 0.950 . S
H1839 C1851 0.950 . S
C1840 H1832 0.950 . S
C1840 C1841 1.386 . S
C1840 C1842 1.391 . S
C1841 C1840 1.386 . S
C1841 C1845 1.393 . S
C1842 H1834 0.950 . S
C1842 C1840 1.391 . S
C1842 C1843 1.400 . S
C1843 C1842 1.400 . S
C1843 C1844 1.398 . S
C1843 C1849 1.491 . S
C1844 H1835 0.950 . S
C1844 C1843 1.398 . S
C1844 C1845 1.391 . S
C1845 H1833 0.950 . S
C1845 C1841 1.393 . S
C1845 C1844 1.391 . S
C1846 H1836 0.950 . S
C1846 C1847 1.386 . S
C1846 C1848 1.391 . S
C1847 C1846 1.386 . S
C1847 C1851 1.393 . S
C1848 H1837 0.950 . S
C1848 C1846 1.391 . S
C1848 C1849 1.400 . S
C1849 C1843 1.491 . S
C1849 C1848 1.400 . S
C1849 C1850 1.398 . S
C1850 H1838 0.950 . S
C1850 C1849 1.398 . S
C1850 C1851 1.391 . S
C1851 H1839 0.950 . S
C1851 C1847 1.393 . S
C1851 C1850 1.391 . S
H1852 C1860 0.950 . S
H1853 C1865 0.950 . S
H1854 C1862 0.950 . S
H1855 C1864 0.950 . S
H1856 C1866 0.950 . S
H1857 C1868 0.950 . S
H1858 C1870 0.950 . S
H1859 C1871 0.950 . S
C1860 H1852 0.950 . S
C1860 C1861 1.386 . S
C1860 C1862 1.391 . S
C1861 C1860 1.386 . S
C1861 C1865 1.393 . S
C1862 H1854 0.950 . S
C1862 C1860 1.391 . S
C1862 C1863 1.400 . S
C1863 C1862 1.400 . S
C1863 C1864 1.398 . S
C1863 C1869 1.491 . S
C1864 H1855 0.950 . S
C1864 C1863 1.398 . S
C1864 C1865 1.391 . S
C1865 H1853 0.950 . S
C1865 C1861 1.393 . S
C1865 C1864 1.391 . S
C1866 H1856 0.950 . S
C1866 C1867 1.386 . S
C1866 C1868 1.391 . S
C1867 C1866 1.386 . S
C1867 C1871 1.393 . S
C1868 H1857 0.950 . S
C1868 C1866 1.391 . S
C1868 C1869 1.400 . S
C1869 C1863 1.491 . S
C1869 C1868 1.400 . S
C1869 C1870 1.398 . S
C1870 H1858 0.950 . S
C1870 C1869 1.398 . S
C1870 C1871 1.391 . S
C1871 H1859 0.950 . S
C1871 C1867 1.393 . S
C1871 C1870 1.391 . S
H1872 C1880 0.950 . S
H1873 C1885 0.950 . S
H1874 C1882 0.950 . S
H1875 C1884 0.950 . S
H1876 C1886 0.950 . S
H1877 C1888 0.954 . S
H1878 C1890 0.950 . S
H1879 C1891 0.950 . S
C1880 H1872 0.950 . S
C1880 C1881 1.386 . S
C1880 C1882 1.391 . S
C1881 C1880 1.386 . S
C1881 C1885 1.393 . S
C1882 H1874 0.950 . S
C1882 C1880 1.391 . S
C1882 C1883 1.400 . S
C1883 C1882 1.400 . S
C1883 C1884 1.398 . S
C1883 C1889 1.491 . S
C1884 H1875 0.950 . S
C1884 C1883 1.398 . S
C1884 C1885 1.391 . S
C1885 H1873 0.950 . S
C1885 C1881 1.393 . S
C1885 C1884 1.391 . S
C1886 H1876 0.950 . S
C1886 C1887 1.386 . S
C1886 C1888 1.385 1_556 S
C1887 C1886 1.386 . S
C1887 C1891 1.393 . S
C1888 H1877 0.954 . S
C1888 C1886 1.385 1_554 S
C1888 C1889 1.402 . S
C1889 C1883 1.491 . S
C1889 C1888 1.402 . S
C1889 C1890 1.398 1_554 S
C1890 H1878 0.950 . S
C1890 C1889 1.398 1_556 S
C1890 C1891 1.391 . S
C1891 H1879 0.950 . S
C1891 C1887 1.393 . S
C1891 C1890 1.391 . S
H1892 C1900 0.950 . S
H1893 C1905 0.950 . S
H1894 C1902 0.950 . S
H1895 C1904 0.950 . S
H1896 C1906 0.950 . S
H1897 C1908 0.950 1_554 S
H1898 C1910 0.953 . S
H1899 C1911 0.950 . S
C1900 H1892 0.950 . S
C1900 C1901 1.386 . S
C1900 C1902 1.391 . S
C1901 C1900 1.386 . S
C1901 C1905 1.393 . S
C1902 H1894 0.950 . S
C1902 C1900 1.391 . S
C1902 C1903 1.400 . S
C1903 C1902 1.400 . S
C1903 C1904 1.398 . S
C1903 C1909 1.491 . S
C1904 H1895 0.950 . S
C1904 C1903 1.398 . S
C1904 C1905 1.391 . S
C1905 H1893 0.950 . S
C1905 C1901 1.393 . S
C1905 C1904 1.391 . S
C1906 H1896 0.950 . S
C1906 C1907 1.386 . S
C1906 C1908 1.391 . S
C1907 C1906 1.386 . S
C1907 C1911 1.393 . S
C1908 H1897 0.950 1_556 S
C1908 C1906 1.391 . S
C1908 C1909 1.400 1_556 S
C1909 C1903 1.491 . S
C1909 C1908 1.400 1_554 S
C1909 C1910 1.398 1_554 S
C1910 H1898 0.953 . S
C1910 C1909 1.398 1_556 S
C1910 C1911 1.391 . S
C1911 H1899 0.950 . S
C1911 C1907 1.393 . S
C1911 C1910 1.391 . S
H1912 C1920 0.950 . S
H1913 C1925 0.950 . S
H1914 C1922 0.950 . S
H1915 C1924 0.952 . S
H1916 C1926 0.950 . S
H1917 C1928 0.950 . S
H1918 C1930 0.950 . S
H1919 C1931 0.950 . S
C1920 H1912 0.950 . S
C1920 C1921 1.386 . S
C1920 C1922 1.391 . S
C1921 C1920 1.386 . S
C1921 C1925 1.393 . S
C1922 H1914 0.950 . S
C1922 C1920 1.391 . S
C1922 C1923 1.400 1_556 S
C1923 C1922 1.400 1_554 S
C1923 C1924 1.399 . S
C1923 C1929 1.491 . S
C1924 H1915 0.952 . S
C1924 C1923 1.399 . S
C1924 C1925 1.387 1_554 S
C1925 H1913 0.950 . S
C1925 C1921 1.393 . S
C1925 C1924 1.387 1_556 S
C1926 H1916 0.950 . S
C1926 C1927 1.386 . S
C1926 C1928 1.391 . S
C1927 C1926 1.386 . S
C1927 C1931 1.393 . S
C1928 H1917 0.950 . S
C1928 C1926 1.391 . S
C1928 C1929 1.400 . S
C1929 C1923 1.491 . S
C1929 C1928 1.400 . S
C1929 C1930 1.398 . S
C1930 H1918 0.950 . S
C1930 C1929 1.398 . S
C1930 C1931 1.391 . S
C1931 H1919 0.950 . S
C1931 C1927 1.393 . S
C1931 C1930 1.391 . S
H1932 C1940 0.950 . S
H1933 C1945 0.950 . S
H1934 C1942 0.950 . S
H1935 C1944 0.950 . S
H1936 C1946 0.950 . S
H1937 C1948 0.914 1_554 S
H1938 C1950 0.956 . S
H1939 C1951 0.950 . S
C1940 H1932 0.950 . S
C1940 C1941 1.386 . S
C1940 C1942 1.391 . S
C1941 C1940 1.386 . S
C1941 C1945 1.393 . S
C1942 H1934 0.950 . S
C1942 C1940 1.391 . S
C1942 C1943 1.400 . S
C1943 C1942 1.400 . S
C1943 C1944 1.398 . S
C1943 C1949 1.491 . S
C1944 H1935 0.950 . S
C1944 C1943 1.398 . S
C1944 C1945 1.391 . S
C1945 H1933 0.950 . S
C1945 C1941 1.393 . S
C1945 C1944 1.391 . S
C1946 H1936 0.950 . S
C1946 C1947 1.386 . S
C1946 C1948 1.453 . S
C1947 C1946 1.386 . S
C1947 C1951 1.393 . S
C1948 H1937 0.914 1_556 S
C1948 C1946 1.453 . S
C1948 C1949 1.376 1_556 S
C1949 C1943 1.491 . S
C1949 C1948 1.376 1_554 S
C1949 C1950 1.398 1_554 S
C1950 H1938 0.956 . S
C1950 C1949 1.398 1_556 S
C1950 C1951 1.391 . S
C1951 H1939 0.950 . S
C1951 C1947 1.393 . S
C1951 C1950 1.391 . S
H1952 C1960 0.950 . S
H1953 C1965 0.950 . S
H1954 C1962 0.950 . S
H1955 C1964 0.950 . S
H1956 C1966 0.950 . S
H1957 C1968 0.950 . S
H1958 C1970 0.950 . S
H1959 C1971 0.950 . S
C1960 H1952 0.950 . S
C1960 C1961 1.386 . S
C1960 C1962 1.391 . S
C1961 C1960 1.386 . S
C1961 C1965 1.393 . S
C1962 H1954 0.950 . S
C1962 C1960 1.391 . S
C1962 C1963 1.400 . S
C1963 C1962 1.400 . S
C1963 C1964 1.398 . S
C1963 C1969 1.491 . S
C1964 H1955 0.950 . S
C1964 C1963 1.398 . S
C1964 C1965 1.391 . S
C1965 H1953 0.950 . S
C1965 C1961 1.393 . S
C1965 C1964 1.391 . S
C1966 H1956 0.950 . S
C1966 C1967 1.386 . S
C1966 C1968 1.391 . S
C1967 C1966 1.386 . S
C1967 C1971 1.393 . S
C1968 H1957 0.950 . S
C1968 C1966 1.391 . S
C1968 C1969 1.400 . S
C1969 C1963 1.491 . S
C1969 C1968 1.400 . S
C1969 C1970 1.398 . S
C1970 H1958 0.950 . S
C1970 C1969 1.398 . S
C1970 C1971 1.391 . S
C1971 H1959 0.950 . S
C1971 C1967 1.393 . S
C1971 C1970 1.391 . S
H1972 C1980 0.950 . S
H1973 C1985 0.950 . S
H1974 C1982 0.950 . S
H1975 C1984 0.950 . S
H1976 C1986 0.950 . S
H1977 C1988 0.950 . S
H1978 C1990 0.950 . S
H1979 C1991 0.950 . S
C1980 H1972 0.950 . S
C1980 C1981 1.386 . S
C1980 C1982 1.391 . S
C1981 C1980 1.386 . S
C1981 C1985 1.393 . S
C1982 H1974 0.950 . S
C1982 C1980 1.391 . S
C1982 C1983 1.400 . S
C1983 C1982 1.400 . S
C1983 C1984 1.398 . S
C1983 C1989 1.491 . S
C1984 H1975 0.950 . S
C1984 C1983 1.398 . S
C1984 C1985 1.391 . S
C1985 H1973 0.950 . S
C1985 C1981 1.393 . S
C1985 C1984 1.391 . S
C1986 H1976 0.950 . S
C1986 C1987 1.386 . S
C1986 C1988 1.391 . S
C1987 C1986 1.386 . S
C1987 C1991 1.393 . S
C1988 H1977 0.950 . S
C1988 C1986 1.391 . S
C1988 C1989 1.400 . S
C1989 C1983 1.491 . S
C1989 C1988 1.400 . S
C1989 C1990 1.398 . S
C1990 H1978 0.950 . S
C1990 C1989 1.398 . S
C1990 C1991 1.391 . S
C1991 H1979 0.950 . S
C1991 C1987 1.393 . S
C1991 C1990 1.391 . S
H1992 C2000 0.950 . S
H1993 C2005 0.950 . S
H1994 C2002 0.950 . S
H1995 C2004 0.950 . S
H1996 C2006 0.950 . S
H1997 C2008 0.950 . S
H1998 C2010 0.950 . S
H1999 C2011 0.950 . S
C2000 H1992 0.950 . S
C2000 C2001 1.386 . S
C2000 C2002 1.391 . S
C2001 C2000 1.386 . S
C2001 C2005 1.393 . S
C2002 H1994 0.950 . S
C2002 C2000 1.391 . S
C2002 C2003 1.400 . S
C2003 C2002 1.400 . S
C2003 C2004 1.398 . S
C2003 C2009 1.491 . S
C2004 H1995 0.950 . S
C2004 C2003 1.398 . S
C2004 C2005 1.391 . S
C2005 H1993 0.950 . S
C2005 C2001 1.393 . S
C2005 C2004 1.391 . S
C2006 H1996 0.950 . S
C2006 C2007 1.386 . S
C2006 C2008 1.391 . S
C2007 C2006 1.386 . S
C2007 C2011 1.393 . S
C2008 H1997 0.950 . S
C2008 C2006 1.391 . S
C2008 C2009 1.400 . S
C2009 C2003 1.491 . S
C2009 C2008 1.400 . S
C2009 C2010 1.398 . S
C2010 H1998 0.950 . S
C2010 C2009 1.398 . S
C2010 C2011 1.391 . S
C2011 H1999 0.950 . S
C2011 C2007 1.393 . S
C2011 C2010 1.391 . S
H2012 C2020 0.950 . S
H2013 C2025 0.950 . S
H2014 C2022 0.950 . S
H2015 C2024 0.950 . S
H2016 C2026 0.950 . S
H2017 C2028 0.950 . S
H2018 C2030 0.950 . S
H2019 C2031 0.950 . S
C2020 H2012 0.950 . S
C2020 C2021 1.386 . S
C2020 C2022 1.391 . S
C2021 C2020 1.386 . S
C2021 C2025 1.393 . S
C2022 H2014 0.950 . S
C2022 C2020 1.391 . S
C2022 C2023 1.400 . S
C2023 C2022 1.400 . S
C2023 C2024 1.398 . S
C2023 C2029 1.491 . S
C2024 H2015 0.950 . S
C2024 C2023 1.398 . S
C2024 C2025 1.391 . S
C2025 H2013 0.950 . S
C2025 C2021 1.393 . S
C2025 C2024 1.391 . S
C2026 H2016 0.950 . S
C2026 C2027 1.386 . S
C2026 C2028 1.391 . S
C2027 C2026 1.386 . S
C2027 C2031 1.393 . S
C2028 H2017 0.950 . S
C2028 C2026 1.391 . S
C2028 C2029 1.400 . S
C2029 C2023 1.491 . S
C2029 C2028 1.400 . S
C2029 C2030 1.398 . S
C2030 H2018 0.950 . S
C2030 C2029 1.398 . S
C2030 C2031 1.391 . S
C2031 H2019 0.950 . S
C2031 C2027 1.393 . S
C2031 C2030 1.391 . S
H2032 C2040 0.950 . S
H2033 C2045 0.950 . S
H2034 C2042 0.960 . S
H2035 C2044 0.920 1_455 S
H2036 C2046 0.950 . S
H2037 C2048 0.950 . S
H2038 C2050 0.950 . S
H2039 C2051 0.950 . S
C2040 H2032 0.950 . S
C2040 C2041 1.386 . S
C2040 C2042 1.391 . S
C2041 C2040 1.386 . S
C2041 C2045 1.393 . S
C2042 H2034 0.960 . S
C2042 C2040 1.391 . S
C2042 C2043 1.400 1_655 S
C2043 C2042 1.400 1_455 S
C2043 C2044 1.378 1_455 S
C2043 C2049 1.491 . S
C2044 H2035 0.920 1_655 S
C2044 C2043 1.378 1_655 S
C2044 C2045 1.442 . S
C2045 H2033 0.950 . S
C2045 C2041 1.393 . S
C2045 C2044 1.442 . S
C2046 H2036 0.950 . S
C2046 C2047 1.386 . S
C2046 C2048 1.391 . S
C2047 C2046 1.386 . S
C2047 C2051 1.393 . S
C2048 H2037 0.950 . S
C2048 C2046 1.391 . S
C2048 C2049 1.400 . S
C2049 C2043 1.491 . S
C2049 C2048 1.400 . S
C2049 C2050 1.398 . S
C2050 H2038 0.950 . S
C2050 C2049 1.398 . S
C2050 C2051 1.391 . S
C2051 H2039 0.950 . S
C2051 C2047 1.393 . S
C2051 C2050 1.391 . S
H2052 C2060 0.950 . S
H2053 C2065 0.950 . S
H2054 C2062 0.944 1_545 S
H2055 C2064 0.950 . S
H2056 C2066 0.950 . S
H2057 C2068 0.950 . S
H2058 C2070 0.950 . S
H2059 C2071 0.950 . S
C2060 H2052 0.950 . S
C2060 C2061 1.386 . S
C2060 C2062 1.401 . S
C2061 C2060 1.386 . S
C2061 C2065 1.393 . S
C2062 H2054 0.944 1_565 S
C2062 C2060 1.401 . S
C2062 C2063 1.397 1_565 S
C2063 C2062 1.397 1_545 S
C2063 C2064 1.398 1_545 S
C2063 C2069 1.491 . S
C2064 H2055 0.950 . S
C2064 C2063 1.398 1_565 S
C2064 C2065 1.391 . S
C2065 H2053 0.950 . S
C2065 C2061 1.393 . S
C2065 C2064 1.391 . S
C2066 H2056 0.950 . S
C2066 C2067 1.386 . S
C2066 C2068 1.391 . S
C2067 C2066 1.386 . S
C2067 C2071 1.393 . S
C2068 H2057 0.950 . S
C2068 C2066 1.391 . S
C2068 C2069 1.400 . S
C2069 C2063 1.491 . S
C2069 C2068 1.400 . S
C2069 C2070 1.398 . S
C2070 H2058 0.950 . S
C2070 C2069 1.398 . S
C2070 C2071 1.391 . S
C2071 H2059 0.950 . S
C2071 C2067 1.393 . S
C2071 C2070 1.391 . S
H2072 C2080 0.950 . S
H2073 C2085 0.950 . S
H2074 C2082 0.950 . S
H2075 C2084 0.950 . S
H2076 C2086 0.950 . S
H2077 C2088 0.950 . S
H2078 C2090 0.950 . S
H2079 C2091 0.950 . S
C2080 H2072 0.950 . S
C2080 C2081 1.386 . S
C2080 C2082 1.391 . S
C2081 C2080 1.386 . S
C2081 C2085 1.393 . S
C2082 H2074 0.950 . S
C2082 C2080 1.391 . S
C2082 C2083 1.400 . S
C2083 C2082 1.400 . S
C2083 C2084 1.398 . S
C2083 C2089 1.491 . S
C2084 H2075 0.950 . S
C2084 C2083 1.398 . S
C2084 C2085 1.391 . S
C2085 H2073 0.950 . S
C2085 C2081 1.393 . S
C2085 C2084 1.391 . S
C2086 H2076 0.950 . S
C2086 C2087 1.386 . S
C2086 C2088 1.391 . S
C2087 C2086 1.386 . S
C2087 C2091 1.393 . S
C2088 H2077 0.950 . S
C2088 C2086 1.391 . S
C2088 C2089 1.400 . S
C2089 C2083 1.491 . S
C2089 C2088 1.400 . S
C2089 C2090 1.398 . S
C2090 H2078 0.950 . S
C2090 C2089 1.398 . S
C2090 C2091 1.391 . S
C2091 H2079 0.950 . S
C2091 C2087 1.393 . S
C2091 C2090 1.391 . S
H2092 C2100 0.950 . S
H2093 C2105 0.950 . S
H2094 C2102 0.950 . S
H2095 C2104 0.950 . S
H2096 C2106 0.950 . S
H2097 C2108 0.950 . S
H2098 C2110 0.950 . S
H2099 C2111 0.950 . S
C2100 H2092 0.950 . S
C2100 C2101 1.386 . S
C2100 C2102 1.391 . S
C2101 C2100 1.386 . S
C2101 C2105 1.393 . S
C2102 H2094 0.950 . S
C2102 C2100 1.391 . S
C2102 C2103 1.400 . S
C2103 C2102 1.400 . S
C2103 C2104 1.398 . S
C2103 C2109 1.491 . S
C2104 H2095 0.950 . S
C2104 C2103 1.398 . S
C2104 C2105 1.391 . S
C2105 H2093 0.950 . S
C2105 C2101 1.393 . S
C2105 C2104 1.391 . S
C2106 H2096 0.950 . S
C2106 C2107 1.386 . S
C2106 C2108 1.391 . S
C2107 C2106 1.386 . S
C2107 C2111 1.393 . S
C2108 H2097 0.950 . S
C2108 C2106 1.391 . S
C2108 C2109 1.400 . S
C2109 C2103 1.491 . S
C2109 C2108 1.400 . S
C2109 C2110 1.398 . S
C2110 H2098 0.950 . S
C2110 C2109 1.398 . S
C2110 C2111 1.391 . S
C2111 H2099 0.950 . S
C2111 C2107 1.393 . S
C2111 C2110 1.391 . S
H2112 C2120 0.950 . S
H2113 C2125 0.950 . S
H2114 C2122 0.950 . S
H2115 C2124 0.950 . S
H2116 C2126 0.950 . S
H2117 C2128 0.952 . S
H2118 C2130 0.929 1_455 S
H2119 C2131 0.950 . S
C2120 H2112 0.950 . S
C2120 C2121 1.386 . S
C2120 C2122 1.391 . S
C2121 C2120 1.386 . S
C2121 C2125 1.393 . S
C2122 H2114 0.950 . S
C2122 C2120 1.391 . S
C2122 C2123 1.400 . S
C2123 C2122 1.400 . S
C2123 C2124 1.398 . S
C2123 C2129 1.491 . S
C2124 H2115 0.950 . S
C2124 C2123 1.398 . S
C2124 C2125 1.391 . S
C2125 H2113 0.950 . S
C2125 C2121 1.393 . S
C2125 C2124 1.391 . S
C2126 H2116 0.950 . S
C2126 C2127 1.386 . S
C2126 C2128 1.391 . S
C2127 C2126 1.386 . S
C2127 C2131 1.393 . S
C2128 H2117 0.952 . S
C2128 C2126 1.391 . S
C2128 C2129 1.400 1_655 S
C2129 C2123 1.491 . S
C2129 C2128 1.400 1_455 S
C2129 C2130 1.385 1_455 S
C2130 H2118 0.929 1_655 S
C2130 C2129 1.385 1_655 S
C2130 C2131 1.426 . S
C2131 H2119 0.950 . S
C2131 C2127 1.393 . S
C2131 C2130 1.426 . S
H2132 C2140 0.950 . S
H2133 C2145 0.950 . S
H2134 C2142 0.950 . S
H2135 C2144 0.967 . S
H2136 C2146 0.950 . S
H2137 C2148 0.950 . S
H2138 C2150 0.950 . S
H2139 C2151 0.950 . S
C2140 H2132 0.950 . S
C2140 C2141 1.386 . S
C2140 C2142 1.391 . S
C2141 C2140 1.386 . S
C2141 C2145 1.393 . S
C2142 H2134 0.950 . S
C2142 C2140 1.391 . S
C2142 C2143 1.400 1_565 S
C2143 C2142 1.400 1_545 S
C2143 C2144 1.407 . S
C2143 C2149 1.491 . S
C2144 H2135 0.967 . S
C2144 C2143 1.407 . S
C2144 C2145 1.366 1_545 S
C2145 H2133 0.950 . S
C2145 C2141 1.393 . S
C2145 C2144 1.366 1_565 S
C2146 H2136 0.950 . S
C2146 C2147 1.386 . S
C2146 C2148 1.391 . S
C2147 C2146 1.386 . S
C2147 C2151 1.393 . S
C2148 H2137 0.950 . S
C2148 C2146 1.391 . S
C2148 C2149 1.400 . S
C2149 C2143 1.491 . S
C2149 C2148 1.400 . S
C2149 C2150 1.398 . S
C2150 H2138 0.950 . S
C2150 C2149 1.398 . S
C2150 C2151 1.391 . S
C2151 H2139 0.950 . S
C2151 C2147 1.393 . S
C2151 C2150 1.391 . S
H2152 C2160 0.950 . S
H2153 C2165 0.950 . S
H2154 C2162 0.950 . S
H2155 C2164 0.950 . S
H2156 C2166 0.950 . S
H2157 C2168 0.950 . S
H2158 C2170 0.950 . S
H2159 C2171 0.950 . S
C2160 H2152 0.950 . S
C2160 C2161 1.386 . S
C2160 C2162 1.391 . S
C2161 C2160 1.386 . S
C2161 C2165 1.393 . S
C2162 H2154 0.950 . S
C2162 C2160 1.391 . S
C2162 C2163 1.400 . S
C2163 C2162 1.400 . S
C2163 C2164 1.398 . S
C2163 C2169 1.491 . S
C2164 H2155 0.950 . S
C2164 C2163 1.398 . S
C2164 C2165 1.391 . S
C2165 H2153 0.950 . S
C2165 C2161 1.393 . S
C2165 C2164 1.391 . S
C2166 H2156 0.950 . S
C2166 C2167 1.386 . S
C2166 C2168 1.391 . S
C2167 C2166 1.386 . S
C2167 C2171 1.393 . S
C2168 H2157 0.950 . S
C2168 C2166 1.391 . S
C2168 C2169 1.400 . S
C2169 C2163 1.491 . S
C2169 C2168 1.400 . S
C2169 C2170 1.398 . S
C2170 H2158 0.950 . S
C2170 C2169 1.398 . S
C2170 C2171 1.391 . S
C2171 H2159 0.950 . S
C2171 C2167 1.393 . S
C2171 C2170 1.391 . S
H2172 C2180 0.950 . S
H2173 C2185 0.950 . S
H2174 C2182 0.950 . S
H2175 C2184 0.950 . S
H2176 C2186 0.950 . S
H2177 C2188 0.950 . S
H2178 C2190 0.950 . S
H2179 C2191 0.950 . S
C2180 H2172 0.950 . S
C2180 C2181 1.386 . S
C2180 C2182 1.391 . S
C2181 C2180 1.386 . S
C2181 C2185 1.393 . S
C2182 H2174 0.950 . S
C2182 C2180 1.391 . S
C2182 C2183 1.400 . S
C2183 C2182 1.400 . S
C2183 C2184 1.398 . S
C2183 C2189 1.491 . S
C2184 H2175 0.950 . S
C2184 C2183 1.398 . S
C2184 C2185 1.391 . S
C2185 H2173 0.950 . S
C2185 C2181 1.393 . S
C2185 C2184 1.391 . S
C2186 H2176 0.950 . S
C2186 C2187 1.386 . S
C2186 C2188 1.391 . S
C2187 C2186 1.386 . S
C2187 C2191 1.393 . S
C2188 H2177 0.950 . S
C2188 C2186 1.391 . S
C2188 C2189 1.400 . S
C2189 C2183 1.491 . S
C2189 C2188 1.400 . S
C2189 C2190 1.398 . S
C2190 H2178 0.950 . S
C2190 C2189 1.398 . S
C2190 C2191 1.391 . S
C2191 H2179 0.950 . S
C2191 C2187 1.393 . S
C2191 C2190 1.391 . S
H2192 C2200 0.950 . S
H2193 C2205 0.950 . S
H2194 C2202 0.950 . S
H2195 C2204 0.972 . S
H2196 C2206 0.950 . S
H2197 C2208 0.950 . S
H2198 C2210 0.950 . S
H2199 C2211 0.950 . S
C2200 H2192 0.950 . S
C2200 C2201 1.386 . S
C2200 C2202 1.391 . S
C2201 C2200 1.386 . S
C2201 C2205 1.393 . S
C2202 H2194 0.950 . S
C2202 C2200 1.391 . S
C2202 C2203 1.400 1_565 S
C2203 C2202 1.400 1_545 S
C2203 C2204 1.410 . S
C2203 C2209 1.491 . S
C2204 H2195 0.972 . S
C2204 C2203 1.410 . S
C2204 C2205 1.358 1_545 S
C2205 H2193 0.950 . S
C2205 C2201 1.393 . S
C2205 C2204 1.358 1_565 S
C2206 H2196 0.950 . S
C2206 C2207 1.386 . S
C2206 C2208 1.391 . S
C2207 C2206 1.386 . S
C2207 C2211 1.393 . S
C2208 H2197 0.950 . S
C2208 C2206 1.391 . S
C2208 C2209 1.400 . S
C2209 C2203 1.491 . S
C2209 C2208 1.400 . S
C2209 C2210 1.398 . S
C2210 H2198 0.950 . S
C2210 C2209 1.398 . S
C2210 C2211 1.391 . S
C2211 H2199 0.950 . S
C2211 C2207 1.393 . S
C2211 C2210 1.391 . S
H2212 C2220 0.950 . S
H2213 C2225 0.950 . S
H2214 C2222 0.950 . S
H2215 C2224 0.950 . S
H2216 C2226 0.950 . S
H2217 C2228 0.950 . S
H2218 C2230 0.950 . S
H2219 C2231 0.950 . S
C2220 H2212 0.950 . S
C2220 C2221 1.386 . S
C2220 C2222 1.391 . S
C2221 C2220 1.386 . S
C2221 C2225 1.393 . S
C2222 H2214 0.950 . S
C2222 C2220 1.391 . S
C2222 C2223 1.400 . S
C2223 C2222 1.400 . S
C2223 C2224 1.398 . S
C2223 C2229 1.491 . S
C2224 H2215 0.950 . S
C2224 C2223 1.398 . S
C2224 C2225 1.391 . S
C2225 H2213 0.950 . S
C2225 C2221 1.393 . S
C2225 C2224 1.391 . S
C2226 H2216 0.950 . S
C2226 C2227 1.386 . S
C2226 C2228 1.391 . S
C2227 C2226 1.386 . S
C2227 C2231 1.393 . S
C2228 H2217 0.950 . S
C2228 C2226 1.391 . S
C2228 C2229 1.400 . S
C2229 C2223 1.491 . S
C2229 C2228 1.400 . S
C2229 C2230 1.398 . S
C2230 H2218 0.950 . S
C2230 C2229 1.398 . S
C2230 C2231 1.391 . S
C2231 H2219 0.950 . S
C2231 C2227 1.393 . S
C2231 C2230 1.391 . S
H2232 C2240 0.950 . S
H2233 C2245 0.950 . S
H2234 C2242 0.950 . S
H2235 C2244 0.950 . S
H2236 C2246 0.950 . S
H2237 C2248 0.949 . S
H2238 C2250 0.927 1_455 S
H2239 C2251 0.950 . S
C2240 H2232 0.950 . S
C2240 C2241 1.386 . S
C2240 C2242 1.391 . S
C2241 C2240 1.386 . S
C2241 C2245 1.393 . S
C2242 H2234 0.950 . S
C2242 C2240 1.391 . S
C2242 C2243 1.400 . S
C2243 C2242 1.400 . S
C2243 C2244 1.398 . S
C2243 C2249 1.491 . S
C2244 H2235 0.950 . S
C2244 C2243 1.398 . S
C2244 C2245 1.391 . S
C2245 H2233 0.950 . S
C2245 C2241 1.393 . S
C2245 C2244 1.391 . S
C2246 H2236 0.950 . S
C2246 C2247 1.386 . S
C2246 C2248 1.391 . S
C2247 C2246 1.386 . S
C2247 C2251 1.393 . S
C2248 H2237 0.949 . S
C2248 C2246 1.391 . S
C2248 C2249 1.400 1_655 S
C2249 C2243 1.491 . S
C2249 C2248 1.400 1_455 S
C2249 C2250 1.383 1_455 S
C2250 H2238 0.927 1_655 S
C2250 C2249 1.383 1_655 S
C2250 C2251 1.429 . S
C2251 H2239 0.950 . S
C2251 C2247 1.393 . S
C2251 C2250 1.429 . S
H2252 C2260 0.950 . S
H2253 C2265 0.950 . S
H2254 C2262 0.950 . S
H2255 C2264 0.950 . S
H2256 C2266 0.950 . S
H2257 C2268 0.957 . S
H2258 C2270 0.933 1_545 S
H2259 C2271 0.950 . S
C2260 H2252 0.950 . S
C2260 C2261 1.386 . S
C2260 C2262 1.391 . S
C2261 C2260 1.386 . S
C2261 C2265 1.393 . S
C2262 H2254 0.950 . S
C2262 C2260 1.391 . S
C2262 C2263 1.400 . S
C2263 C2262 1.400 . S
C2263 C2264 1.398 . S
C2263 C2269 1.491 . S
C2264 H2255 0.950 . S
C2264 C2263 1.398 . S
C2264 C2265 1.391 . S
C2265 H2253 0.950 . S
C2265 C2261 1.393 . S
C2265 C2264 1.391 . S
C2266 H2256 0.950 . S
C2266 C2267 1.386 . S
C2266 C2268 1.391 . S
C2267 C2266 1.386 . S
C2267 C2271 1.393 . S
C2268 H2257 0.957 . S
C2268 C2266 1.391 . S
C2268 C2269 1.400 1_565 S
C2269 C2263 1.491 . S
C2269 C2268 1.400 1_545 S
C2269 C2270 1.387 1_545 S
C2270 H2258 0.933 1_565 S
C2270 C2269 1.387 1_565 S
C2270 C2271 1.419 . S
C2271 H2259 0.950 . S
C2271 C2267 1.393 . S
C2271 C2270 1.419 . S
H2272 C2280 0.950 . S
H2273 C2285 0.950 . S
H2274 C2282 0.950 . S
H2275 C2284 0.950 . S
H2276 C2286 0.950 . S
H2277 C2288 0.950 . S
H2278 C2290 0.950 . S
H2279 C2291 0.950 . S
C2280 H2272 0.950 . S
C2280 C2281 1.386 . S
C2280 C2282 1.391 . S
C2281 C2280 1.386 . S
C2281 C2285 1.393 . S
C2282 H2274 0.950 . S
C2282 C2280 1.391 . S
C2282 C2283 1.400 . S
C2283 C2282 1.400 . S
C2283 C2284 1.398 . S
C2283 C2289 1.491 . S
C2284 H2275 0.950 . S
C2284 C2283 1.398 . S
C2284 C2285 1.391 . S
C2285 H2273 0.950 . S
C2285 C2281 1.393 . S
C2285 C2284 1.391 . S
C2286 H2276 0.950 . S
C2286 C2287 1.386 . S
C2286 C2288 1.391 . S
C2287 C2286 1.386 . S
C2287 C2291 1.393 . S
C2288 H2277 0.950 . S
C2288 C2286 1.391 . S
C2288 C2289 1.400 . S
C2289 C2283 1.491 . S
C2289 C2288 1.400 . S
C2289 C2290 1.398 . S
C2290 H2278 0.950 . S
C2290 C2289 1.398 . S
C2290 C2291 1.391 . S
C2291 H2279 0.950 . S
C2291 C2287 1.393 . S
C2291 C2290 1.391 . S
H2292 C2300 0.950 . S
H2293 C2305 0.950 . S
H2294 C2302 0.950 . S
H2295 C2304 0.950 . S
H2296 C2306 0.950 . S
H2297 C2308 0.950 . S
H2298 C2310 0.950 . S
H2299 C2311 0.950 . S
C2300 H2292 0.950 . S
C2300 C2301 1.386 . S
C2300 C2302 1.391 . S
C2301 C2300 1.386 . S
C2301 C2305 1.393 . S
C2302 H2294 0.950 . S
C2302 C2300 1.391 . S
C2302 C2303 1.400 . S
C2303 C2302 1.400 . S
C2303 C2304 1.398 . S
C2303 C2309 1.491 . S
C2304 H2295 0.950 . S
C2304 C2303 1.398 . S
C2304 C2305 1.391 . S
C2305 H2293 0.950 . S
C2305 C2301 1.393 . S
C2305 C2304 1.391 . S
C2306 H2296 0.950 . S
C2306 C2307 1.386 . S
C2306 C2308 1.391 . S
C2307 C2306 1.386 . S
C2307 C2311 1.393 . S
C2308 H2297 0.950 . S
C2308 C2306 1.391 . S
C2308 C2309 1.400 . S
C2309 C2303 1.491 . S
C2309 C2308 1.400 . S
C2309 C2310 1.398 . S
C2310 H2298 0.950 . S
C2310 C2309 1.398 . S
C2310 C2311 1.391 . S
C2311 H2299 0.950 . S
C2311 C2307 1.393 . S
C2311 C2310 1.391 . S
H2312 C2320 0.950 . S
H2313 C2325 0.950 . S
H2314 C2322 0.950 . S
H2315 C2324 0.950 . S
H2316 C2326 0.950 . S
H2317 C2328 0.950 1_455 S
H2318 C2330 0.947 1_455 S
H2319 C2331 0.950 . S
C2320 H2312 0.950 . S
C2320 C2321 1.386 . S
C2320 C2322 1.391 . S
C2321 C2320 1.386 . S
C2321 C2325 1.393 . S
C2322 H2314 0.950 . S
C2322 C2320 1.391 . S
C2322 C2323 1.400 . S
C2323 C2322 1.400 . S
C2323 C2324 1.398 . S
C2323 C2329 1.491 . S
C2324 H2315 0.950 . S
C2324 C2323 1.398 . S
C2324 C2325 1.391 . S
C2325 H2313 0.950 . S
C2325 C2321 1.393 . S
C2325 C2324 1.391 . S
C2326 H2316 0.950 . S
C2326 C2327 1.386 . S
C2326 C2328 1.391 . S
C2327 C2326 1.386 . S
C2327 C2331 1.393 . S
C2328 H2317 0.950 1_655 S
C2328 C2326 1.391 . S
C2328 C2329 1.400 1_655 S
C2329 C2323 1.491 . S
C2329 C2328 1.400 1_455 S
C2329 C2330 1.398 1_455 S
C2330 H2318 0.947 1_655 S
C2330 C2329 1.398 1_655 S
C2330 C2331 1.391 . S
C2331 H2319 0.950 . S
C2331 C2327 1.393 . S
C2331 C2330 1.391 . S
H2332 C2340 0.950 . S
H2333 C2345 0.950 . S
H2334 C2342 0.950 . S
H2335 C2344 0.950 . S
H2336 C2346 0.950 . S
H2337 C2348 0.950 . S
H2338 C2350 0.950 . S
H2339 C2351 0.950 . S
C2340 H2332 0.950 . S
C2340 C2341 1.386 . S
C2340 C2342 1.391 . S
C2341 C2340 1.386 . S
C2341 C2345 1.393 . S
C2342 H2334 0.950 . S
C2342 C2340 1.391 . S
C2342 C2343 1.400 . S
C2343 C2342 1.400 . S
C2343 C2344 1.398 . S
C2343 C2349 1.491 . S
C2344 H2335 0.950 . S
C2344 C2343 1.398 . S
C2344 C2345 1.391 . S
C2345 H2333 0.950 . S
C2345 C2341 1.393 . S
C2345 C2344 1.391 . S
C2346 H2336 0.950 . S
C2346 C2347 1.386 . S
C2346 C2348 1.391 . S
C2347 C2346 1.386 . S
C2347 C2351 1.393 . S
C2348 H2337 0.950 . S
C2348 C2346 1.391 . S
C2348 C2349 1.400 . S
C2349 C2343 1.491 . S
C2349 C2348 1.400 . S
C2349 C2350 1.398 . S
C2350 H2338 0.950 . S
C2350 C2349 1.398 . S
C2350 C2351 1.391 . S
C2351 H2339 0.950 . S
C2351 C2347 1.393 . S
C2351 C2350 1.391 . S
H2352 C2360 0.950 . S
H2353 C2365 0.950 . S
H2354 C2362 0.933 1_556 S
H2355 C2364 0.958 . S
H2356 C2366 0.950 . S
H2357 C2368 0.950 . S
H2358 C2370 0.950 . S
H2359 C2371 0.950 . S
C2360 H2352 0.950 . S
C2360 C2361 1.386 . S
C2360 C2362 1.418 . S
C2361 C2360 1.386 . S
C2361 C2365 1.393 . S
C2362 H2354 0.933 1_554 S
C2362 C2360 1.418 . S
C2362 C2363 1.390 1_554 S
C2363 C2362 1.390 1_556 S
C2363 C2364 1.398 1_556 S
C2363 C2369 1.491 . S
C2364 H2355 0.958 . S
C2364 C2363 1.398 1_554 S
C2364 C2365 1.391 . S
C2365 H2353 0.950 . S
C2365 C2361 1.393 . S
C2365 C2364 1.391 . S
C2366 H2356 0.950 . S
C2366 C2367 1.386 . S
C2366 C2368 1.391 . S
C2367 C2366 1.386 . S
C2367 C2371 1.393 . S
C2368 H2357 0.950 . S
C2368 C2366 1.391 . S
C2368 C2369 1.400 . S
C2369 C2363 1.491 . S
C2369 C2368 1.400 . S
C2369 C2370 1.398 . S
C2370 H2358 0.950 . S
C2370 C2369 1.398 . S
C2370 C2371 1.391 . S
C2371 H2359 0.950 . S
C2371 C2367 1.393 . S
C2371 C2370 1.391 . S
H2372 C2380 0.950 . S
H2373 C2385 0.950 . S
H2374 C2382 0.948 . S
H2375 C2384 0.950 . S
H2376 C2386 0.950 . S
H2377 C2388 0.950 . S
H2378 C2390 0.950 . S
H2379 C2391 0.950 . S
C2380 H2372 0.950 . S
C2380 C2381 1.386 . S
C2380 C2382 1.394 1_554 S
C2381 C2380 1.386 . S
C2381 C2385 1.393 . S
C2382 H2374 0.948 . S
C2382 C2380 1.394 1_556 S
C2382 C2383 1.399 . S
C2383 C2382 1.399 . S
C2383 C2384 1.398 1_556 S
C2383 C2389 1.491 . S
C2384 H2375 0.950 . S
C2384 C2383 1.398 1_554 S
C2384 C2385 1.391 . S
C2385 H2373 0.950 . S
C2385 C2381 1.393 . S
C2385 C2384 1.391 . S
C2386 H2376 0.950 . S
C2386 C2387 1.386 . S
C2386 C2388 1.391 . S
C2387 C2386 1.386 . S
C2387 C2391 1.393 . S
C2388 H2377 0.950 . S
C2388 C2386 1.391 . S
C2388 C2389 1.400 . S
C2389 C2383 1.491 . S
C2389 C2388 1.400 . S
C2389 C2390 1.398 . S
C2390 H2378 0.950 . S
C2390 C2389 1.398 . S
C2390 C2391 1.391 . S
C2391 H2379 0.950 . S
C2391 C2387 1.393 . S
C2391 C2390 1.391 . S
H2392 C2400 0.950 . S
H2393 C2405 0.950 . S
H2394 C2402 0.966 . S
H2395 C2404 0.950 . S
H2396 C2406 0.950 . S
H2397 C2408 0.950 . S
H2398 C2410 0.950 . S
H2399 C2411 0.950 . S
C2400 H2392 0.950 . S
C2400 C2401 1.386 . S
C2400 C2402 1.368 1_554 S
C2401 C2400 1.386 . S
C2401 C2405 1.393 . S
C2402 H2394 0.966 . S
C2402 C2400 1.368 1_556 S
C2402 C2403 1.408 . S
C2403 C2402 1.408 . S
C2403 C2404 1.398 1_556 S
C2403 C2409 1.491 . S
C2404 H2395 0.950 . S
C2404 C2403 1.398 1_554 S
C2404 C2405 1.391 . S
C2405 H2393 0.950 . S
C2405 C2401 1.393 . S
C2405 C2404 1.391 . S
C2406 H2396 0.950 . S
C2406 C2407 1.386 . S
C2406 C2408 1.391 . S
C2407 C2406 1.386 . S
C2407 C2411 1.393 . S
C2408 H2397 0.950 . S
C2408 C2406 1.391 . S
C2408 C2409 1.400 . S
C2409 C2403 1.491 . S
C2409 C2408 1.400 . S
C2409 C2410 1.398 . S
C2410 H2398 0.950 . S
C2410 C2409 1.398 . S
C2410 C2411 1.391 . S
C2411 H2399 0.950 . S
C2411 C2407 1.393 . S
C2411 C2410 1.391 . S
H2412 C2420 0.950 . S
H2413 C2425 0.950 . S
H2414 C2422 0.950 . S
H2415 C2424 0.950 . S
H2416 C2426 0.950 . S
H2417 C2428 0.953 . S
H2418 C2430 0.930 1_556 S
H2419 C2431 0.950 . S
C2420 H2412 0.950 . S
C2420 C2421 1.386 . S
C2420 C2422 1.391 . S
C2421 C2420 1.386 . S
C2421 C2425 1.393 . S
C2422 H2414 0.950 . S
C2422 C2420 1.391 . S
C2422 C2423 1.400 . S
C2423 C2422 1.400 . S
C2423 C2424 1.398 . S
C2423 C2429 1.491 . S
C2424 H2415 0.950 . S
C2424 C2423 1.398 . S
C2424 C2425 1.391 . S
C2425 H2413 0.950 . S
C2425 C2421 1.393 . S
C2425 C2424 1.391 . S
C2426 H2416 0.950 . S
C2426 C2427 1.386 . S
C2426 C2428 1.391 . S
C2427 C2426 1.386 . S
C2427 C2431 1.393 . S
C2428 H2417 0.953 . S
C2428 C2426 1.391 . S
C2428 C2429 1.400 1_554 S
C2429 C2423 1.491 . S
C2429 C2428 1.400 1_556 S
C2429 C2430 1.386 1_556 S
C2430 H2418 0.930 1_554 S
C2430 C2429 1.386 1_554 S
C2430 C2431 1.424 . S
C2431 H2419 0.950 . S
C2431 C2427 1.393 . S
C2431 C2430 1.424 . S
H2432 C2440 0.950 . S
H2433 C2445 0.950 . S
H2434 C2442 0.950 . S
H2435 C2444 0.950 . S
H2436 C2446 0.950 . S
H2437 C2448 0.950 . S
H2438 C2450 0.950 . S
H2439 C2451 0.950 . S
C2440 H2432 0.950 . S
C2440 C2441 1.386 . S
C2440 C2442 1.391 . S
C2441 C2440 1.386 . S
C2441 C2445 1.393 . S
C2442 H2434 0.950 . S
C2442 C2440 1.391 . S
C2442 C2443 1.400 . S
C2443 C2442 1.400 . S
C2443 C2444 1.398 . S
C2443 C2449 1.491 . S
C2444 H2435 0.950 . S
C2444 C2443 1.398 . S
C2444 C2445 1.391 . S
C2445 H2433 0.950 . S
C2445 C2441 1.393 . S
C2445 C2444 1.391 . S
C2446 H2436 0.950 . S
C2446 C2447 1.386 . S
C2446 C2448 1.391 . S
C2447 C2446 1.386 . S
C2447 C2451 1.393 . S
C2448 H2437 0.950 . S
C2448 C2446 1.391 . S
C2448 C2449 1.400 . S
C2449 C2443 1.491 . S
C2449 C2448 1.400 . S
C2449 C2450 1.398 . S
C2450 H2438 0.950 . S
C2450 C2449 1.398 . S
C2450 C2451 1.391 . S
C2451 H2439 0.950 . S
C2451 C2447 1.393 . S
C2451 C2450 1.391 . S
H2452 C2460 0.950 . S
H2453 C2465 0.950 . S
H2454 C2462 0.950 . S
H2455 C2464 0.950 . S
H2456 C2466 0.950 . S
H2457 C2468 0.950 . S
H2458 C2470 0.950 . S
H2459 C2471 0.950 . S
C2460 H2452 0.950 . S
C2460 C2461 1.386 . S
C2460 C2462 1.391 . S
C2461 C2460 1.386 . S
C2461 C2465 1.393 . S
C2462 H2454 0.950 . S
C2462 C2460 1.391 . S
C2462 C2463 1.400 . S
C2463 C2462 1.400 . S
C2463 C2464 1.398 . S
C2463 C2469 1.491 . S
C2464 H2455 0.950 . S
C2464 C2463 1.398 . S
C2464 C2465 1.391 . S
C2465 H2453 0.950 . S
C2465 C2461 1.393 . S
C2465 C2464 1.391 . S
C2466 H2456 0.950 . S
C2466 C2467 1.386 . S
C2466 C2468 1.391 . S
C2467 C2466 1.386 . S
C2467 C2471 1.393 . S
C2468 H2457 0.950 . S
C2468 C2466 1.391 . S
C2468 C2469 1.400 . S
C2469 C2463 1.491 . S
C2469 C2468 1.400 . S
C2469 C2470 1.398 . S
C2470 H2458 0.950 . S
C2470 C2469 1.398 . S
C2470 C2471 1.391 . S
C2471 H2459 0.950 . S
C2471 C2467 1.393 . S
C2471 C2470 1.391 . S
H2472 C2480 0.950 . S
H2473 C2485 0.950 . S
H2474 C2482 0.950 . S
H2475 C2484 0.950 . S
H2476 C2486 0.950 . S
H2477 C2488 0.950 . S
H2478 C2490 0.950 . S
H2479 C2491 0.950 . S
C2480 H2472 0.950 . S
C2480 C2481 1.386 . S
C2480 C2482 1.391 . S
C2481 C2480 1.386 . S
C2481 C2485 1.393 . S
C2482 H2474 0.950 . S
C2482 C2480 1.391 . S
C2482 C2483 1.400 . S
C2483 C2482 1.400 . S
C2483 C2484 1.398 . S
C2483 C2489 1.491 . S
C2484 H2475 0.950 . S
C2484 C2483 1.398 . S
C2484 C2485 1.391 . S
C2485 H2473 0.950 . S
C2485 C2481 1.393 . S
C2485 C2484 1.391 . S
C2486 H2476 0.950 . S
C2486 C2487 1.386 . S
C2486 C2488 1.391 . S
C2487 C2486 1.386 . S
C2487 C2491 1.393 . S
C2488 H2477 0.950 . S
C2488 C2486 1.391 . S
C2488 C2489 1.400 . S
C2489 C2483 1.491 . S
C2489 C2488 1.400 . S
C2489 C2490 1.398 . S
C2490 H2478 0.950 . S
C2490 C2489 1.398 . S
C2490 C2491 1.391 . S
C2491 H2479 0.950 . S
C2491 C2487 1.393 . S
C2491 C2490 1.391 . S
H2492 C2500 0.950 . S
H2493 C2505 0.950 . S
H2494 C2502 0.950 . S
H2495 C2504 0.950 . S
H2496 C2506 0.950 . S
H2497 C2508 0.950 . S
H2498 C2510 0.950 . S
H2499 C2511 0.950 . S
C2500 H2492 0.950 . S
C2500 C2501 1.386 . S
C2500 C2502 1.391 . S
C2501 C2500 1.386 . S
C2501 C2505 1.393 . S
C2502 H2494 0.950 . S
C2502 C2500 1.391 . S
C2502 C2503 1.400 . S
C2503 C2502 1.400 . S
C2503 C2504 1.398 . S
C2503 C2509 1.491 . S
C2504 H2495 0.950 . S
C2504 C2503 1.398 . S
C2504 C2505 1.391 . S
C2505 H2493 0.950 . S
C2505 C2501 1.393 . S
C2505 C2504 1.391 . S
C2506 H2496 0.950 . S
C2506 C2507 1.386 . S
C2506 C2508 1.391 . S
C2507 C2506 1.386 . S
C2507 C2511 1.393 . S
C2508 H2497 0.950 . S
C2508 C2506 1.391 . S
C2508 C2509 1.400 . S
C2509 C2503 1.491 . S
C2509 C2508 1.400 . S
C2509 C2510 1.398 . S
C2510 H2498 0.950 . S
C2510 C2509 1.398 . S
C2510 C2511 1.391 . S
C2511 H2499 0.950 . S
C2511 C2507 1.393 . S
C2511 C2510 1.391 . S
H2512 C2520 0.950 . S
H2513 C2525 0.950 . S
H2514 C2522 0.950 . S
H2515 C2524 0.950 . S
H2516 C2526 0.950 . S
H2517 C2528 0.946 1_655 S
H2518 C2530 0.950 1_655 S
H2519 C2531 0.950 . S
C2520 H2512 0.950 . S
C2520 C2521 1.386 . S
C2520 C2522 1.391 . S
C2521 C2520 1.386 . S
C2521 C2525 1.393 . S
C2522 H2514 0.950 . S
C2522 C2520 1.391 . S
C2522 C2523 1.400 . S
C2523 C2522 1.400 . S
C2523 C2524 1.398 . S
C2523 C2529 1.491 . S
C2524 H2515 0.950 . S
C2524 C2523 1.398 . S
C2524 C2525 1.391 . S
C2525 H2513 0.950 . S
C2525 C2521 1.393 . S
C2525 C2524 1.391 . S
C2526 H2516 0.950 . S
C2526 C2527 1.386 . S
C2526 C2528 1.391 . S
C2527 C2526 1.386 . S
C2527 C2531 1.393 . S
C2528 H2517 0.946 1_455 S
C2528 C2526 1.391 . S
C2528 C2529 1.400 1_455 S
C2529 C2523 1.491 . S
C2529 C2528 1.400 1_655 S
C2529 C2530 1.398 1_655 S
C2530 H2518 0.950 1_455 S
C2530 C2529 1.398 1_455 S
C2530 C2531 1.391 . S
C2531 H2519 0.950 . S
C2531 C2527 1.393 . S
C2531 C2530 1.391 . S
H2532 C2540 0.950 . S
H2533 C2545 0.950 . S
H2534 C2542 0.950 1_565 S
H2535 C2544 0.950 1_565 S
H2536 C2546 0.950 . S
H2537 C2548 0.950 . S
H2538 C2550 0.950 . S
H2539 C2551 0.950 . S
C2540 H2532 0.950 . S
C2540 C2541 1.386 . S
C2540 C2542 1.391 . S
C2541 C2540 1.386 . S
C2541 C2545 1.393 . S
C2542 H2534 0.950 1_545 S
C2542 C2540 1.391 . S
C2542 C2543 1.400 1_545 S
C2543 C2542 1.400 1_565 S
C2543 C2544 1.398 1_565 S
C2543 C2549 1.491 . S
C2544 H2535 0.950 1_545 S
C2544 C2543 1.398 1_545 S
C2544 C2545 1.391 . S
C2545 H2533 0.950 . S
C2545 C2541 1.393 . S
C2545 C2544 1.391 . S
C2546 H2536 0.950 . S
C2546 C2547 1.386 . S
C2546 C2548 1.391 . S
C2547 C2546 1.386 . S
C2547 C2551 1.393 . S
C2548 H2537 0.950 . S
C2548 C2546 1.391 . S
C2548 C2549 1.400 . S
C2549 C2543 1.491 . S
C2549 C2548 1.400 . S
C2549 C2550 1.398 . S
C2550 H2538 0.950 . S
C2550 C2549 1.398 . S
C2550 C2551 1.391 . S
C2551 H2539 0.950 . S
C2551 C2547 1.393 . S
C2551 C2550 1.391 . S
H2552 C2560 0.950 . S
H2553 C2565 0.950 . S
H2554 C2562 0.950 . S
H2555 C2564 0.950 . S
H2556 C2566 0.950 . S
H2557 C2568 0.950 . S
H2558 C2570 0.950 . S
H2559 C2571 0.950 . S
C2560 H2552 0.950 . S
C2560 C2561 1.386 . S
C2560 C2562 1.391 . S
C2561 C2560 1.386 . S
C2561 C2565 1.393 . S
C2562 H2554 0.950 . S
C2562 C2560 1.391 . S
C2562 C2563 1.400 . S
C2563 C2562 1.400 . S
C2563 C2564 1.398 . S
C2563 C2569 1.491 . S
C2564 H2555 0.950 . S
C2564 C2563 1.398 . S
C2564 C2565 1.391 . S
C2565 H2553 0.950 . S
C2565 C2561 1.393 . S
C2565 C2564 1.391 . S
C2566 H2556 0.950 . S
C2566 C2567 1.386 . S
C2566 C2568 1.391 . S
C2567 C2566 1.386 . S
C2567 C2571 1.393 . S
C2568 H2557 0.950 . S
C2568 C2566 1.391 . S
C2568 C2569 1.400 . S
C2569 C2563 1.491 . S
C2569 C2568 1.400 . S
C2569 C2570 1.398 . S
C2570 H2558 0.950 . S
C2570 C2569 1.398 . S
C2570 C2571 1.391 . S
C2571 H2559 0.950 . S
C2571 C2567 1.393 . S
C2571 C2570 1.391 . S
H2572 C2580 0.950 . S
H2573 C2585 0.950 . S
H2574 C2582 0.950 . S
H2575 C2584 0.950 . S
H2576 C2586 0.950 . S
H2577 C2588 0.950 . S
H2578 C2590 0.950 . S
H2579 C2591 0.950 . S
C2580 H2572 0.950 . S
C2580 C2581 1.386 . S
C2580 C2582 1.391 . S
C2581 C2580 1.386 . S
C2581 C2585 1.393 . S
C2582 H2574 0.950 . S
C2582 C2580 1.391 . S
C2582 C2583 1.400 . S
C2583 C2582 1.400 . S
C2583 C2584 1.398 . S
C2583 C2589 1.491 . S
C2584 H2575 0.950 . S
C2584 C2583 1.398 . S
C2584 C2585 1.391 . S
C2585 H2573 0.950 . S
C2585 C2581 1.393 . S
C2585 C2584 1.391 . S
C2586 H2576 0.950 . S
C2586 C2587 1.386 . S
C2586 C2588 1.391 . S
C2587 C2586 1.386 . S
C2587 C2591 1.393 . S
C2588 H2577 0.950 . S
C2588 C2586 1.391 . S
C2588 C2589 1.400 . S
C2589 C2583 1.491 . S
C2589 C2588 1.400 . S
C2589 C2590 1.398 . S
C2590 H2578 0.950 . S
C2590 C2589 1.398 . S
C2590 C2591 1.391 . S
C2591 H2579 0.950 . S
C2591 C2587 1.393 . S
C2591 C2590 1.391 . S
H2592 C2600 0.950 . S
H2593 C2605 0.950 . S
H2594 C2602 0.950 . S
H2595 C2604 0.972 . S
H2596 C2606 0.950 . S
H2597 C2608 0.950 . S
H2598 C2610 0.950 . S
H2599 C2611 0.950 . S
C2600 H2592 0.950 . S
C2600 C2601 1.386 . S
C2600 C2602 1.391 . S
C2601 C2600 1.386 . S
C2601 C2605 1.393 . S
C2602 H2594 0.950 . S
C2602 C2600 1.391 . S
C2602 C2603 1.400 1_455 S
C2603 C2602 1.400 1_655 S
C2603 C2604 1.410 . S
C2603 C2609 1.491 . S
C2604 H2595 0.972 . S
C2604 C2603 1.410 . S
C2604 C2605 1.358 1_655 S
C2605 H2593 0.950 . S
C2605 C2601 1.393 . S
C2605 C2604 1.358 1_455 S
C2606 H2596 0.950 . S
C2606 C2607 1.386 . S
C2606 C2608 1.391 . S
C2607 C2606 1.386 . S
C2607 C2611 1.393 . S
C2608 H2597 0.950 . S
C2608 C2606 1.391 . S
C2608 C2609 1.400 . S
C2609 C2603 1.491 . S
C2609 C2608 1.400 . S
C2609 C2610 1.398 . S
C2610 H2598 0.950 . S
C2610 C2609 1.398 . S
C2610 C2611 1.391 . S
C2611 H2599 0.950 . S
C2611 C2607 1.393 . S
C2611 C2610 1.391 . S
H2612 C2620 0.950 . S
H2613 C2625 0.950 . S
H2614 C2622 0.950 . S
H2615 C2624 0.950 . S
H2616 C2626 0.950 . S
H2617 C2628 0.950 1_565 S
H2618 C2630 0.950 1_565 S
H2619 C2631 0.950 . S
C2620 H2612 0.950 . S
C2620 C2621 1.386 . S
C2620 C2622 1.391 . S
C2621 C2620 1.386 . S
C2621 C2625 1.393 . S
C2622 H2614 0.950 . S
C2622 C2620 1.391 . S
C2622 C2623 1.400 . S
C2623 C2622 1.400 . S
C2623 C2624 1.398 . S
C2623 C2629 1.491 . S
C2624 H2615 0.950 . S
C2624 C2623 1.398 . S
C2624 C2625 1.391 . S
C2625 H2613 0.950 . S
C2625 C2621 1.393 . S
C2625 C2624 1.391 . S
C2626 H2616 0.950 . S
C2626 C2627 1.386 . S
C2626 C2628 1.391 . S
C2627 C2626 1.386 . S
C2627 C2631 1.393 . S
C2628 H2617 0.950 1_545 S
C2628 C2626 1.391 . S
C2628 C2629 1.400 1_545 S
C2629 C2623 1.491 . S
C2629 C2628 1.400 1_565 S
C2629 C2630 1.398 1_565 S
C2630 H2618 0.950 1_545 S
C2630 C2629 1.398 1_545 S
C2630 C2631 1.391 . S
C2631 H2619 0.950 . S
C2631 C2627 1.393 . S
C2631 C2630 1.391 . S
H2632 C2640 0.950 . S
H2633 C2645 0.950 . S
H2634 C2642 0.950 . S
H2635 C2644 0.950 . S
H2636 C2646 0.950 . S
H2637 C2648 0.950 . S
H2638 C2650 0.950 . S
H2639 C2651 0.950 . S
C2640 H2632 0.950 . S
C2640 C2641 1.386 . S
C2640 C2642 1.391 . S
C2641 C2640 1.386 . S
C2641 C2645 1.393 . S
C2642 H2634 0.950 . S
C2642 C2640 1.391 . S
C2642 C2643 1.400 . S
C2643 C2642 1.400 . S
C2643 C2644 1.398 . S
C2643 C2649 1.491 . S
C2644 H2635 0.950 . S
C2644 C2643 1.398 . S
C2644 C2645 1.391 . S
C2645 H2633 0.950 . S
C2645 C2641 1.393 . S
C2645 C2644 1.391 . S
C2646 H2636 0.950 . S
C2646 C2647 1.386 . S
C2646 C2648 1.391 . S
C2647 C2646 1.386 . S
C2647 C2651 1.393 . S
C2648 H2637 0.950 . S
C2648 C2646 1.391 . S
C2648 C2649 1.400 . S
C2649 C2643 1.491 . S
C2649 C2648 1.400 . S
C2649 C2650 1.398 . S
C2650 H2638 0.950 . S
C2650 C2649 1.398 . S
C2650 C2651 1.391 . S
C2651 H2639 0.950 . S
C2651 C2647 1.393 . S
C2651 C2650 1.391 . S
H2652 C2660 0.950 . S
H2653 C2665 0.950 . S
H2654 C2662 0.950 . S
H2655 C2664 0.950 . S
H2656 C2666 0.950 . S
H2657 C2668 0.950 . S
H2658 C2670 0.950 . S
H2659 C2671 0.950 . S
C2660 H2652 0.950 . S
C2660 C2661 1.386 . S
C2660 C2662 1.391 . S
C2661 C2660 1.386 . S
C2661 C2665 1.393 . S
C2662 H2654 0.950 . S
C2662 C2660 1.391 . S
C2662 C2663 1.400 . S
C2663 C2662 1.400 . S
C2663 C2664 1.398 . S
C2663 C2669 1.491 . S
C2664 H2655 0.950 . S
C2664 C2663 1.398 . S
C2664 C2665 1.391 . S
C2665 H2653 0.950 . S
C2665 C2661 1.393 . S
C2665 C2664 1.391 . S
C2666 H2656 0.950 . S
C2666 C2667 1.386 . S
C2666 C2668 1.391 . S
C2667 C2666 1.386 . S
C2667 C2671 1.393 . S
C2668 H2657 0.950 . S
C2668 C2666 1.391 . S
C2668 C2669 1.400 . S
C2669 C2663 1.491 . S
C2669 C2668 1.400 . S
C2669 C2670 1.398 . S
C2670 H2658 0.950 . S
C2670 C2669 1.398 . S
C2670 C2671 1.391 . S
C2671 H2659 0.950 . S
C2671 C2667 1.393 . S
C2671 C2670 1.391 . S
H2672 C2680 0.950 . S
H2673 C2685 0.950 . S
H2674 C2682 0.950 . S
H2675 C2684 0.950 . S
H2676 C2686 0.950 . S
H2677 C2688 0.950 . S
H2678 C2690 0.966 . S
H2679 C2691 0.950 . S
C2680 H2672 0.950 . S
C2680 C2681 1.386 . S
C2680 C2682 1.391 . S
C2681 C2680 1.386 . S
C2681 C2685 1.393 . S
C2682 H2674 0.950 . S
C2682 C2680 1.391 . S
C2682 C2683 1.400 . S
C2683 C2682 1.400 . S
C2683 C2684 1.398 . S
C2683 C2689 1.491 . S
C2684 H2675 0.950 . S
C2684 C2683 1.398 . S
C2684 C2685 1.391 . S
C2685 H2673 0.950 . S
C2685 C2681 1.393 . S
C2685 C2684 1.391 . S
C2686 H2676 0.950 . S
C2686 C2687 1.386 . S
C2686 C2688 1.391 . S
C2687 C2686 1.386 . S
C2687 C2691 1.393 . S
C2688 H2677 0.950 . S
C2688 C2686 1.391 . S
C2688 C2689 1.400 1_545 S
C2689 C2683 1.491 . S
C2689 C2688 1.400 1_565 S
C2689 C2690 1.406 . S
C2690 H2678 0.966 . S
C2690 C2689 1.406 . S
C2690 C2691 1.368 1_565 S
C2691 H2679 0.950 . S
C2691 C2687 1.393 . S
C2691 C2690 1.368 1_545 S
H2692 C2700 0.950 . S
H2693 C2705 0.950 . S
H2694 C2702 0.950 . S
H2695 C2704 0.950 . S
H2696 C2706 0.950 . S
H2697 C2708 0.950 . S
H2698 C2710 0.950 . S
H2699 C2711 0.950 . S
C2700 H2692 0.950 . S
C2700 C2701 1.386 . S
C2700 C2702 1.391 . S
C2701 C2700 1.386 . S
C2701 C2705 1.393 . S
C2702 H2694 0.950 . S
C2702 C2700 1.391 . S
C2702 C2703 1.400 . S
C2703 C2702 1.400 . S
C2703 C2704 1.398 . S
C2703 C2709 1.491 . S
C2704 H2695 0.950 . S
C2704 C2703 1.398 . S
C2704 C2705 1.391 . S
C2705 H2693 0.950 . S
C2705 C2701 1.393 . S
C2705 C2704 1.391 . S
C2706 H2696 0.950 . S
C2706 C2707 1.386 . S
C2706 C2708 1.391 . S
C2707 C2706 1.386 . S
C2707 C2711 1.393 . S
C2708 H2697 0.950 . S
C2708 C2706 1.391 . S
C2708 C2709 1.400 . S
C2709 C2703 1.491 . S
C2709 C2708 1.400 . S
C2709 C2710 1.398 . S
C2710 H2698 0.950 . S
C2710 C2709 1.398 . S
C2710 C2711 1.391 . S
C2711 H2699 0.950 . S
C2711 C2707 1.393 . S
C2711 C2710 1.391 . S
H2712 C2720 0.950 . S
H2713 C2725 0.950 . S
H2714 C2722 0.950 . S
H2715 C2724 0.950 . S
H2716 C2726 0.950 . S
H2717 C2728 0.950 . S
H2718 C2730 0.959 . S
H2719 C2731 0.950 . S
C2720 H2712 0.950 . S
C2720 C2721 1.386 . S
C2720 C2722 1.391 . S
C2721 C2720 1.386 . S
C2721 C2725 1.393 . S
C2722 H2714 0.950 . S
C2722 C2720 1.391 . S
C2722 C2723 1.400 . S
C2723 C2722 1.400 . S
C2723 C2724 1.398 . S
C2723 C2729 1.491 . S
C2724 H2715 0.950 . S
C2724 C2723 1.398 . S
C2724 C2725 1.391 . S
C2725 H2713 0.950 . S
C2725 C2721 1.393 . S
C2725 C2724 1.391 . S
C2726 H2716 0.950 . S
C2726 C2727 1.386 . S
C2726 C2728 1.391 . S
C2727 C2726 1.386 . S
C2727 C2731 1.393 . S
C2728 H2717 0.950 . S
C2728 C2726 1.391 . S
C2728 C2729 1.400 1_455 S
C2729 C2723 1.491 . S
C2729 C2728 1.400 1_655 S
C2729 C2730 1.403 . S
C2730 H2718 0.959 . S
C2730 C2729 1.403 . S
C2730 C2731 1.377 1_655 S
C2731 H2719 0.950 . S
C2731 C2727 1.393 . S
C2731 C2730 1.377 1_455 S
H2732 C2740 0.950 . S
H2733 C2745 0.950 . S
H2734 C2742 0.950 . S
H2735 C2744 0.946 . S
H2736 C2746 0.950 . S
H2737 C2748 0.950 . S
H2738 C2750 0.950 . S
H2739 C2751 0.950 . S
C2740 H2732 0.950 . S
C2740 C2741 1.386 . S
C2740 C2742 1.391 . S
C2741 C2740 1.386 . S
C2741 C2745 1.393 . S
C2742 H2734 0.950 . S
C2742 C2740 1.391 . S
C2742 C2743 1.400 1_545 S
C2743 C2742 1.400 1_565 S
C2743 C2744 1.396 . S
C2743 C2749 1.491 . S
C2744 H2735 0.946 . S
C2744 C2743 1.396 . S
C2744 C2745 1.397 1_565 S
C2745 H2733 0.950 . S
C2745 C2741 1.393 . S
C2745 C2744 1.397 1_545 S
C2746 H2736 0.950 . S
C2746 C2747 1.386 . S
C2746 C2748 1.391 . S
C2747 C2746 1.386 . S
C2747 C2751 1.393 . S
C2748 H2737 0.950 . S
C2748 C2746 1.391 . S
C2748 C2749 1.400 . S
C2749 C2743 1.491 . S
C2749 C2748 1.400 . S
C2749 C2750 1.398 . S
C2750 H2738 0.950 . S
C2750 C2749 1.398 . S
C2750 C2751 1.391 . S
C2751 H2739 0.950 . S
C2751 C2747 1.393 . S
C2751 C2750 1.391 . S
H2752 C2760 0.950 . S
H2753 C2765 0.950 . S
H2754 C2762 0.950 . S
H2755 C2764 0.950 . S
H2756 C2766 0.950 . S
H2757 C2768 0.950 . S
H2758 C2770 0.950 . S
H2759 C2771 0.950 . S
C2760 H2752 0.950 . S
C2760 C2761 1.386 . S
C2760 C2762 1.391 . S
C2761 C2760 1.386 . S
C2761 C2765 1.393 . S
C2762 H2754 0.950 . S
C2762 C2760 1.391 . S
C2762 C2763 1.400 . S
C2763 C2762 1.400 . S
C2763 C2764 1.398 . S
C2763 C2769 1.491 . S
C2764 H2755 0.950 . S
C2764 C2763 1.398 . S
C2764 C2765 1.391 . S
C2765 H2753 0.950 . S
C2765 C2761 1.393 . S
C2765 C2764 1.391 . S
C2766 H2756 0.950 . S
C2766 C2767 1.386 . S
C2766 C2768 1.391 . S
C2767 C2766 1.386 . S
C2767 C2771 1.393 . S
C2768 H2757 0.950 . S
C2768 C2766 1.391 . S
C2768 C2769 1.400 . S
C2769 C2763 1.491 . S
C2769 C2768 1.400 . S
C2769 C2770 1.398 . S
C2770 H2758 0.950 . S
C2770 C2769 1.398 . S
C2770 C2771 1.391 . S
C2771 H2759 0.950 . S
C2771 C2767 1.393 . S
C2771 C2770 1.391 . S
H2772 C2780 0.950 . S
H2773 C2785 0.950 . S
H2774 C2782 0.950 . S
H2775 C2784 0.950 . S
H2776 C2786 0.950 . S
H2777 C2788 0.950 . S
H2778 C2790 0.950 . S
H2779 C2791 0.950 . S
C2780 H2772 0.950 . S
C2780 C2781 1.386 . S
C2780 C2782 1.391 . S
C2781 C2780 1.386 . S
C2781 C2785 1.393 . S
C2782 H2774 0.950 . S
C2782 C2780 1.391 . S
C2782 C2783 1.400 . S
C2783 C2782 1.400 . S
C2783 C2784 1.398 . S
C2783 C2789 1.491 . S
C2784 H2775 0.950 . S
C2784 C2783 1.398 . S
C2784 C2785 1.391 . S
C2785 H2773 0.950 . S
C2785 C2781 1.393 . S
C2785 C2784 1.391 . S
C2786 H2776 0.950 . S
C2786 C2787 1.386 . S
C2786 C2788 1.391 . S
C2787 C2786 1.386 . S
C2787 C2791 1.393 . S
C2788 H2777 0.950 . S
C2788 C2786 1.391 . S
C2788 C2789 1.400 . S
C2789 C2783 1.491 . S
C2789 C2788 1.400 . S
C2789 C2790 1.398 . S
C2790 H2778 0.950 . S
C2790 C2789 1.398 . S
C2790 C2791 1.391 . S
C2791 H2779 0.950 . S
C2791 C2787 1.393 . S
C2791 C2790 1.391 . S
H2792 C2800 0.950 . S
H2793 C2805 0.950 . S
H2794 C2802 0.921 1_655 S
H2795 C2804 0.948 1_655 S
H2796 C2806 0.950 . S
H2797 C2808 0.950 . S
H2798 C2810 0.950 . S
H2799 C2811 0.950 . S
C2800 H2792 0.950 . S
C2800 C2801 1.386 . S
C2800 C2802 1.440 . S
C2801 C2800 1.386 . S
C2801 C2805 1.393 . S
C2802 H2794 0.921 1_455 S
C2802 C2800 1.440 . S
C2802 C2803 1.381 1_455 S
C2803 C2802 1.381 1_655 S
C2803 C2804 1.398 1_655 S
C2803 C2809 1.491 . S
C2804 H2795 0.948 1_455 S
C2804 C2803 1.398 1_455 S
C2804 C2805 1.391 . S
C2805 H2793 0.950 . S
C2805 C2801 1.393 . S
C2805 C2804 1.391 . S
C2806 H2796 0.950 . S
C2806 C2807 1.386 . S
C2806 C2808 1.391 . S
C2807 C2806 1.386 . S
C2807 C2811 1.393 . S
C2808 H2797 0.950 . S
C2808 C2806 1.391 . S
C2808 C2809 1.400 . S
C2809 C2803 1.491 . S
C2809 C2808 1.400 . S
C2809 C2810 1.398 . S
C2810 H2798 0.950 . S
C2810 C2809 1.398 . S
C2810 C2811 1.391 . S
C2811 H2799 0.950 . S
C2811 C2807 1.393 . S
C2811 C2810 1.391 . S
H2812 C2820 0.950 . S
H2813 C2825 0.950 . S
H2814 C2822 0.950 . S
H2815 C2824 0.950 . S
H2816 C2826 0.950 . S
H2817 C2828 0.950 . S
H2818 C2830 0.950 . S
H2819 C2831 0.950 . S
C2820 H2812 0.950 . S
C2820 C2821 1.386 . S
C2820 C2822 1.391 . S
C2821 C2820 1.386 . S
C2821 C2825 1.393 . S
C2822 H2814 0.950 . S
C2822 C2820 1.391 . S
C2822 C2823 1.400 . S
C2823 C2822 1.400 . S
C2823 C2824 1.398 . S
C2823 C2829 1.491 . S
C2824 H2815 0.950 . S
C2824 C2823 1.398 . S
C2824 C2825 1.391 . S
C2825 H2813 0.950 . S
C2825 C2821 1.393 . S
C2825 C2824 1.391 . S
C2826 H2816 0.950 . S
C2826 C2827 1.386 . S
C2826 C2828 1.391 . S
C2827 C2826 1.386 . S
C2827 C2831 1.393 . S
C2828 H2817 0.950 . S
C2828 C2826 1.391 . S
C2828 C2829 1.400 . S
C2829 C2823 1.491 . S
C2829 C2828 1.400 . S
C2829 C2830 1.398 . S
C2830 H2818 0.950 . S
C2830 C2829 1.398 . S
C2830 C2831 1.391 . S
C2831 H2819 0.950 . S
C2831 C2827 1.393 . S
C2831 C2830 1.391 . S
H2832 C2840 0.950 . S
H2833 C2845 0.950 . S
H2834 C2842 0.950 . S
H2835 C2844 0.950 . S
H2836 C2846 0.950 . S
H2837 C2848 0.950 . S
H2838 C2850 0.950 . S
H2839 C2851 0.950 . S
C2840 H2832 0.950 . S
C2840 C2841 1.386 . S
C2840 C2842 1.391 . S
C2841 C2840 1.386 . S
C2841 C2845 1.393 . S
C2842 H2834 0.950 . S
C2842 C2840 1.391 . S
C2842 C2843 1.400 . S
C2843 C2842 1.400 . S
C2843 C2844 1.398 . S
C2843 C2849 1.491 . S
C2844 H2835 0.950 . S
C2844 C2843 1.398 . S
C2844 C2845 1.391 . S
C2845 H2833 0.950 . S
C2845 C2841 1.393 . S
C2845 C2844 1.391 . S
C2846 H2836 0.950 . S
C2846 C2847 1.386 . S
C2846 C2848 1.391 . S
C2847 C2846 1.386 . S
C2847 C2851 1.393 . S
C2848 H2837 0.950 . S
C2848 C2846 1.391 . S
C2848 C2849 1.400 . S
C2849 C2843 1.491 . S
C2849 C2848 1.400 . S
C2849 C2850 1.398 . S
C2850 H2838 0.950 . S
C2850 C2849 1.398 . S
C2850 C2851 1.391 . S
C2851 H2839 0.950 . S
C2851 C2847 1.393 . S
C2851 C2850 1.391 . S
H2852 C2860 0.950 . S
H2853 C2865 0.950 . S
H2854 C2862 0.950 . S
H2855 C2864 0.950 . S
H2856 C2866 0.950 . S
H2857 C2868 0.950 . S
H2858 C2870 0.950 . S
H2859 C2871 0.950 . S
C2860 H2852 0.950 . S
C2860 C2861 1.386 . S
C2860 C2862 1.391 . S
C2861 C2860 1.386 . S
C2861 C2865 1.393 . S
C2862 H2854 0.950 . S
C2862 C2860 1.391 . S
C2862 C2863 1.400 . S
C2863 C2862 1.400 . S
C2863 C2864 1.398 . S
C2863 C2869 1.491 . S
C2864 H2855 0.950 . S
C2864 C2863 1.398 . S
C2864 C2865 1.391 . S
C2865 H2853 0.950 . S
C2865 C2861 1.393 . S
C2865 C2864 1.391 . S
C2866 H2856 0.950 . S
C2866 C2867 1.386 . S
C2866 C2868 1.391 . S
C2867 C2866 1.386 . S
C2867 C2871 1.393 . S
C2868 H2857 0.950 . S
C2868 C2866 1.391 . S
C2868 C2869 1.400 . S
C2869 C2863 1.491 . S
C2869 C2868 1.400 . S
C2869 C2870 1.398 . S
C2870 H2858 0.950 . S
C2870 C2869 1.398 . S
C2870 C2871 1.391 . S
C2871 H2859 0.950 . S
C2871 C2867 1.393 . S
C2871 C2870 1.391 . S
H2872 C2880 0.950 . S
H2873 C2885 0.950 . S
H2874 C2882 0.950 . S
H2875 C2884 0.950 . S
H2876 C2886 0.950 . S
H2877 C2888 0.950 . S
H2878 C2890 0.950 . S
H2879 C2891 0.950 . S
C2880 H2872 0.950 . S
C2880 C2881 1.386 . S
C2880 C2882 1.391 . S
C2881 C2880 1.386 . S
C2881 C2885 1.393 . S
C2882 H2874 0.950 . S
C2882 C2880 1.391 . S
C2882 C2883 1.400 . S
C2883 C2882 1.400 . S
C2883 C2884 1.398 . S
C2883 C2889 1.491 . S
C2884 H2875 0.950 . S
C2884 C2883 1.398 . S
C2884 C2885 1.391 . S
C2885 H2873 0.950 . S
C2885 C2881 1.393 . S
C2885 C2884 1.391 . S
C2886 H2876 0.950 . S
C2886 C2887 1.386 . S
C2886 C2888 1.391 . S
C2887 C2886 1.386 . S
C2887 C2891 1.393 . S
C2888 H2877 0.950 . S
C2888 C2886 1.391 . S
C2888 C2889 1.400 . S
C2889 C2883 1.491 . S
C2889 C2888 1.400 . S
C2889 C2890 1.398 . S
C2890 H2878 0.950 . S
C2890 C2889 1.398 . S
C2890 C2891 1.391 . S
C2891 H2879 0.950 . S
C2891 C2887 1.393 . S
C2891 C2890 1.391 . S
H2892 C2900 0.950 . S
H2893 C2905 0.950 . S
H2894 C2902 0.950 . S
H2895 C2904 0.950 . S
H2896 C2906 0.950 . S
H2897 C2908 0.950 . S
H2898 C2910 0.950 . S
H2899 C2911 0.950 . S
C2900 H2892 0.950 . S
C2900 C2901 1.386 . S
C2900 C2902 1.391 . S
C2901 C2900 1.386 . S
C2901 C2905 1.393 . S
C2902 H2894 0.950 . S
C2902 C2900 1.391 . S
C2902 C2903 1.400 . S
C2903 C2902 1.400 . S
C2903 C2904 1.398 . S
C2903 C2909 1.491 . S
C2904 H2895 0.950 . S
C2904 C2903 1.398 . S
C2904 C2905 1.391 . S
C2905 H2893 0.950 . S
C2905 C2901 1.393 . S
C2905 C2904 1.391 . S
C2906 H2896 0.950 . S
C2906 C2907 1.386 . S
C2906 C2908 1.391 . S
C2907 C2906 1.386 . S
C2907 C2911 1.393 . S
C2908 H2897 0.950 . S
C2908 C2906 1.391 . S
C2908 C2909 1.400 . S
C2909 C2903 1.491 . S
C2909 C2908 1.400 . S
C2909 C2910 1.398 . S
C2910 H2898 0.950 . S
C2910 C2909 1.398 . S
C2910 C2911 1.391 . S
C2911 H2899 0.950 . S
C2911 C2907 1.393 . S
C2911 C2910 1.391 . S
H2912 C2920 0.950 . S
H2913 C2925 0.950 . S
H2914 C2922 0.950 . S
H2915 C2924 0.950 . S
H2916 C2926 0.950 . S
H2917 C2928 0.950 . S
H2918 C2930 0.950 . S
H2919 C2931 0.950 . S
C2920 H2912 0.950 . S
C2920 C2921 1.386 . S
C2920 C2922 1.391 . S
C2921 C2920 1.386 . S
C2921 C2925 1.393 . S
C2922 H2914 0.950 . S
C2922 C2920 1.391 . S
C2922 C2923 1.400 . S
C2923 C2922 1.400 . S
C2923 C2924 1.398 . S
C2923 C2929 1.491 . S
C2924 H2915 0.950 . S
C2924 C2923 1.398 . S
C2924 C2925 1.391 . S
C2925 H2913 0.950 . S
C2925 C2921 1.393 . S
C2925 C2924 1.391 . S
C2926 H2916 0.950 . S
C2926 C2927 1.386 . S
C2926 C2928 1.391 . S
C2927 C2926 1.386 . S
C2927 C2931 1.393 . S
C2928 H2917 0.950 . S
C2928 C2926 1.391 . S
C2928 C2929 1.400 . S
C2929 C2923 1.491 . S
C2929 C2928 1.400 . S
C2929 C2930 1.398 . S
C2930 H2918 0.950 . S
C2930 C2929 1.398 . S
C2930 C2931 1.391 . S
C2931 H2919 0.950 . S
C2931 C2927 1.393 . S
C2931 C2930 1.391 . S
H2932 C2940 0.950 . S
H2933 C2945 0.950 . S
H2934 C2942 0.950 . S
H2935 C2944 0.950 . S
H2936 C2946 0.950 . S
H2937 C2948 0.950 . S
H2938 C2950 0.950 . S
H2939 C2951 0.950 . S
C2940 H2932 0.950 . S
C2940 C2941 1.386 . S
C2940 C2942 1.391 . S
C2941 C2940 1.386 . S
C2941 C2945 1.393 . S
C2942 H2934 0.950 . S
C2942 C2940 1.391 . S
C2942 C2943 1.400 . S
C2943 C2942 1.400 . S
C2943 C2944 1.398 . S
C2943 C2949 1.491 . S
C2944 H2935 0.950 . S
C2944 C2943 1.398 . S
C2944 C2945 1.391 . S
C2945 H2933 0.950 . S
C2945 C2941 1.393 . S
C2945 C2944 1.391 . S
C2946 H2936 0.950 . S
C2946 C2947 1.386 . S
C2946 C2948 1.391 . S
C2947 C2946 1.386 . S
C2947 C2951 1.393 . S
C2948 H2937 0.950 . S
C2948 C2946 1.391 . S
C2948 C2949 1.400 . S
C2949 C2943 1.491 . S
C2949 C2948 1.400 . S
C2949 C2950 1.398 . S
C2950 H2938 0.950 . S
C2950 C2949 1.398 . S
C2950 C2951 1.391 . S
C2951 H2939 0.950 . S
C2951 C2947 1.393 . S
C2951 C2950 1.391 . S
H2952 C2960 0.950 . S
H2953 C2965 0.950 . S
H2954 C2962 0.950 . S
H2955 C2964 0.950 . S
H2956 C2966 0.950 . S
H2957 C2968 0.950 . S
H2958 C2970 0.950 . S
H2959 C2971 0.950 . S
C2960 H2952 0.950 . S
C2960 C2961 1.386 . S
C2960 C2962 1.391 . S
C2961 C2960 1.386 . S
C2961 C2965 1.393 . S
C2962 H2954 0.950 . S
C2962 C2960 1.391 . S
C2962 C2963 1.400 . S
C2963 C2962 1.400 . S
C2963 C2964 1.398 . S
C2963 C2969 1.491 . S
C2964 H2955 0.950 . S
C2964 C2963 1.398 . S
C2964 C2965 1.391 . S
C2965 H2953 0.950 . S
C2965 C2961 1.393 . S
C2965 C2964 1.391 . S
C2966 H2956 0.950 . S
C2966 C2967 1.386 . S
C2966 C2968 1.391 . S
C2967 C2966 1.386 . S
C2967 C2971 1.393 . S
C2968 H2957 0.950 . S
C2968 C2966 1.391 . S
C2968 C2969 1.400 . S
C2969 C2963 1.491 . S
C2969 C2968 1.400 . S
C2969 C2970 1.398 . S
C2970 H2958 0.950 . S
C2970 C2969 1.398 . S
C2970 C2971 1.391 . S
C2971 H2959 0.950 . S
C2971 C2967 1.393 . S
C2971 C2970 1.391 . S
H2972 C2980 0.950 . S
H2973 C2985 0.950 . S
H2974 C2982 0.950 . S
H2975 C2984 0.950 . S
H2976 C2986 0.950 . S
H2977 C2988 0.950 . S
H2978 C2990 0.950 . S
H2979 C2991 0.950 . S
C2980 H2972 0.950 . S
C2980 C2981 1.386 . S
C2980 C2982 1.391 . S
C2981 C2980 1.386 . S
C2981 C2985 1.393 . S
C2982 H2974 0.950 . S
C2982 C2980 1.391 . S
C2982 C2983 1.400 . S
C2983 C2982 1.400 . S
C2983 C2984 1.398 . S
C2983 C2989 1.491 . S
C2984 H2975 0.950 . S
C2984 C2983 1.398 . S
C2984 C2985 1.391 . S
C2985 H2973 0.950 . S
C2985 C2981 1.393 . S
C2985 C2984 1.391 . S
C2986 H2976 0.950 . S
C2986 C2987 1.386 . S
C2986 C2988 1.391 . S
C2987 C2986 1.386 . S
C2987 C2991 1.393 . S
C2988 H2977 0.950 . S
C2988 C2986 1.391 . S
C2988 C2989 1.400 . S
C2989 C2983 1.491 . S
C2989 C2988 1.400 . S
C2989 C2990 1.398 . S
C2990 H2978 0.950 . S
C2990 C2989 1.398 . S
C2990 C2991 1.391 . S
C2991 H2979 0.950 . S
C2991 C2987 1.393 . S
C2991 C2990 1.391 . S
H2992 C3000 0.950 . S
H2993 C3005 0.950 . S
H2994 C3002 0.950 . S
H2995 C3004 0.950 . S
H2996 C3006 0.950 . S
H2997 C3008 0.950 . S
H2998 C3010 0.950 . S
H2999 C3011 0.950 . S
C3000 H2992 0.950 . S
C3000 C3001 1.386 . S
C3000 C3002 1.391 . S
C3001 C3000 1.386 . S
C3001 C3005 1.393 . S
C3002 H2994 0.950 . S
C3002 C3000 1.391 . S
C3002 C3003 1.400 . S
C3003 C3002 1.400 . S
C3003 C3004 1.398 . S
C3003 C3009 1.491 . S
C3004 H2995 0.950 . S
C3004 C3003 1.398 . S
C3004 C3005 1.391 . S
C3005 H2993 0.950 . S
C3005 C3001 1.393 . S
C3005 C3004 1.391 . S
C3006 H2996 0.950 . S
C3006 C3007 1.386 . S
C3006 C3008 1.391 . S
C3007 C3006 1.386 . S
C3007 C3011 1.393 . S
C3008 H2997 0.950 . S
C3008 C3006 1.391 . S
C3008 C3009 1.400 . S
C3009 C3003 1.491 . S
C3009 C3008 1.400 . S
C3009 C3010 1.398 . S
C3010 H2998 0.950 . S
C3010 C3009 1.398 . S
C3010 C3011 1.391 . S
C3011 H2999 0.950 . S
C3011 C3007 1.393 . S
C3011 C3010 1.391 . S
H3012 C3020 0.950 . S
H3013 C3025 0.950 . S
H3014 C3022 0.950 . S
H3015 C3024 0.950 . S
H3016 C3026 0.950 . S
H3017 C3028 0.950 . S
H3018 C3030 0.950 . S
H3019 C3031 0.950 . S
C3020 H3012 0.950 . S
C3020 C3021 1.386 . S
C3020 C3022 1.391 . S
C3021 C3020 1.386 . S
C3021 C3025 1.393 . S
C3022 H3014 0.950 . S
C3022 C3020 1.391 . S
C3022 C3023 1.400 . S
C3023 C3022 1.400 . S
C3023 C3024 1.398 . S
C3023 C3029 1.491 . S
C3024 H3015 0.950 . S
C3024 C3023 1.398 . S
C3024 C3025 1.391 . S
C3025 H3013 0.950 . S
C3025 C3021 1.393 . S
C3025 C3024 1.391 . S
C3026 H3016 0.950 . S
C3026 C3027 1.386 . S
C3026 C3028 1.391 . S
C3027 C3026 1.386 . S
C3027 C3031 1.393 . S
C3028 H3017 0.950 . S
C3028 C3026 1.391 . S
C3028 C3029 1.400 . S
C3029 C3023 1.491 . S
C3029 C3028 1.400 . S
C3029 C3030 1.398 . S
C3030 H3018 0.950 . S
C3030 C3029 1.398 . S
C3030 C3031 1.391 . S
C3031 H3019 0.950 . S
C3031 C3027 1.393 . S
C3031 C3030 1.391 . S
H3032 C3040 0.950 . S
H3033 C3045 0.950 . S
H3034 C3042 0.950 . S
H3035 C3044 0.950 . S
H3036 C3046 0.950 . S
H3037 C3048 0.950 . S
H3038 C3050 0.950 . S
H3039 C3051 0.950 . S
C3040 H3032 0.950 . S
C3040 C3041 1.386 . S
C3040 C3042 1.391 . S
C3041 C3040 1.386 . S
C3041 C3045 1.393 . S
C3042 H3034 0.950 . S
C3042 C3040 1.391 . S
C3042 C3043 1.400 . S
C3043 C3042 1.400 . S
C3043 C3044 1.398 . S
C3043 C3049 1.491 . S
C3044 H3035 0.950 . S
C3044 C3043 1.398 . S
C3044 C3045 1.391 . S
C3045 H3033 0.950 . S
C3045 C3041 1.393 . S
C3045 C3044 1.391 . S
C3046 H3036 0.950 . S
C3046 C3047 1.386 . S
C3046 C3048 1.391 . S
C3047 C3046 1.386 . S
C3047 C3051 1.393 . S
C3048 H3037 0.950 . S
C3048 C3046 1.391 . S
C3048 C3049 1.400 . S
C3049 C3043 1.491 . S
C3049 C3048 1.400 . S
C3049 C3050 1.398 . S
C3050 H3038 0.950 . S
C3050 C3049 1.398 . S
C3050 C3051 1.391 . S
C3051 H3039 0.950 . S
C3051 C3047 1.393 . S
C3051 C3050 1.391 . S
H3052 C3060 0.950 . S
H3053 C3065 0.950 . S
H3054 C3062 0.950 . S
H3055 C3064 0.950 . S
H3056 C3066 0.950 . S
H3057 C3068 0.950 . S
H3058 C3070 0.950 . S
H3059 C3071 0.950 . S
C3060 H3052 0.950 . S
C3060 C3061 1.386 . S
C3060 C3062 1.391 . S
C3061 C3060 1.386 . S
C3061 C3065 1.393 . S
C3062 H3054 0.950 . S
C3062 C3060 1.391 . S
C3062 C3063 1.400 . S
C3063 C3062 1.400 . S
C3063 C3064 1.398 . S
C3063 C3069 1.491 . S
C3064 H3055 0.950 . S
C3064 C3063 1.398 . S
C3064 C3065 1.391 . S
C3065 H3053 0.950 . S
C3065 C3061 1.393 . S
C3065 C3064 1.391 . S
C3066 H3056 0.950 . S
C3066 C3067 1.386 . S
C3066 C3068 1.391 . S
C3067 C3066 1.386 . S
C3067 C3071 1.393 . S
C3068 H3057 0.950 . S
C3068 C3066 1.391 . S
C3068 C3069 1.400 . S
C3069 C3063 1.491 . S
C3069 C3068 1.400 . S
C3069 C3070 1.398 . S
C3070 H3058 0.950 . S
C3070 C3069 1.398 . S
C3070 C3071 1.391 . S
C3071 H3059 0.950 . S
C3071 C3067 1.393 . S
C3071 C3070 1.391 . S
H3072 C3080 0.950 . S
H3073 C3085 0.950 . S
H3074 C3082 0.950 . S
H3075 C3084 0.950 . S
H3076 C3086 0.950 . S
H3077 C3088 0.950 . S
H3078 C3090 0.950 . S
H3079 C3091 0.950 . S
C3080 H3072 0.950 . S
C3080 C3081 1.386 . S
C3080 C3082 1.391 . S
C3081 C3080 1.386 . S
C3081 C3085 1.393 . S
C3082 H3074 0.950 . S
C3082 C3080 1.391 . S
C3082 C3083 1.400 . S
C3083 C3082 1.400 . S
C3083 C3084 1.398 . S
C3083 C3089 1.491 . S
C3084 H3075 0.950 . S
C3084 C3083 1.398 . S
C3084 C3085 1.391 . S
C3085 H3073 0.950 . S
C3085 C3081 1.393 . S
C3085 C3084 1.391 . S
C3086 H3076 0.950 . S
C3086 C3087 1.386 . S
C3086 C3088 1.391 . S
C3087 C3086 1.386 . S
C3087 C3091 1.393 . S
C3088 H3077 0.950 . S
C3088 C3086 1.391 . S
C3088 C3089 1.400 . S
C3089 C3083 1.491 . S
C3089 C3088 1.400 . S
C3089 C3090 1.398 . S
C3090 H3078 0.950 . S
C3090 C3089 1.398 . S
C3090 C3091 1.391 . S
C3091 H3079 0.950 . S
C3091 C3087 1.393 . S
C3091 C3090 1.391 . S
H3092 C3100 0.950 . S
H3093 C3105 0.950 . S
H3094 C3102 0.950 . S
H3095 C3104 0.950 . S
H3096 C3106 0.950 . S
H3097 C3108 0.950 . S
H3098 C3110 0.950 . S
H3099 C3111 0.950 . S
C3100 H3092 0.950 . S
C3100 C3101 1.386 . S
C3100 C3102 1.391 . S
C3101 C3100 1.386 . S
C3101 C3105 1.393 . S
C3102 H3094 0.950 . S
C3102 C3100 1.391 . S
C3102 C3103 1.400 . S
C3103 C3102 1.400 . S
C3103 C3104 1.398 . S
C3103 C3109 1.491 . S
C3104 H3095 0.950 . S
C3104 C3103 1.398 . S
C3104 C3105 1.391 . S
C3105 H3093 0.950 . S
C3105 C3101 1.393 . S
C3105 C3104 1.391 . S
C3106 H3096 0.950 . S
C3106 C3107 1.386 . S
C3106 C3108 1.391 . S
C3107 C3106 1.386 . S
C3107 C3111 1.393 . S
C3108 H3097 0.950 . S
C3108 C3106 1.391 . S
C3108 C3109 1.400 . S
C3109 C3103 1.491 . S
C3109 C3108 1.400 . S
C3109 C3110 1.398 . S
C3110 H3098 0.950 . S
C3110 C3109 1.398 . S
C3110 C3111 1.391 . S
C3111 H3099 0.950 . S
C3111 C3107 1.393 . S
C3111 C3110 1.391 . S
H3112 C3120 0.950 . S
H3113 C3125 0.950 . S
H3114 C3122 0.950 . S
H3115 C3124 0.950 . S
H3116 C3126 0.950 . S
H3117 C3128 0.950 . S
H3118 C3130 0.950 . S
H3119 C3131 0.950 . S
C3120 H3112 0.950 . S
C3120 C3121 1.386 . S
C3120 C3122 1.391 . S
C3121 C3120 1.386 . S
C3121 C3125 1.393 . S
C3122 H3114 0.950 . S
C3122 C3120 1.391 . S
C3122 C3123 1.400 . S
C3123 C3122 1.400 . S
C3123 C3124 1.398 . S
C3123 C3129 1.491 . S
C3124 H3115 0.950 . S
C3124 C3123 1.398 . S
C3124 C3125 1.391 . S
C3125 H3113 0.950 . S
C3125 C3121 1.393 . S
C3125 C3124 1.391 . S
C3126 H3116 0.950 . S
C3126 C3127 1.386 . S
C3126 C3128 1.391 . S
C3127 C3126 1.386 . S
C3127 C3131 1.393 . S
C3128 H3117 0.950 . S
C3128 C3126 1.391 . S
C3128 C3129 1.400 . S
C3129 C3123 1.491 . S
C3129 C3128 1.400 . S
C3129 C3130 1.398 . S
C3130 H3118 0.950 . S
C3130 C3129 1.398 . S
C3130 C3131 1.391 . S
C3131 H3119 0.950 . S
C3131 C3127 1.393 . S
C3131 C3130 1.391 . S
H3132 C3140 0.950 . S
H3133 C3145 0.950 . S
H3134 C3142 0.950 . S
H3135 C3144 0.950 . S
H3136 C3146 0.950 . S
H3137 C3148 0.950 . S
H3138 C3150 0.950 . S
H3139 C3151 0.950 . S
C3140 H3132 0.950 . S
C3140 C3141 1.386 . S
C3140 C3142 1.391 . S
C3141 C3140 1.386 . S
C3141 C3145 1.393 . S
C3142 H3134 0.950 . S
C3142 C3140 1.391 . S
C3142 C3143 1.400 . S
C3143 C3142 1.400 . S
C3143 C3144 1.398 . S
C3143 C3149 1.491 . S
C3144 H3135 0.950 . S
C3144 C3143 1.398 . S
C3144 C3145 1.391 . S
C3145 H3133 0.950 . S
C3145 C3141 1.393 . S
C3145 C3144 1.391 . S
C3146 H3136 0.950 . S
C3146 C3147 1.386 . S
C3146 C3148 1.391 . S
C3147 C3146 1.386 . S
C3147 C3151 1.393 . S
C3148 H3137 0.950 . S
C3148 C3146 1.391 . S
C3148 C3149 1.400 . S
C3149 C3143 1.491 . S
C3149 C3148 1.400 . S
C3149 C3150 1.398 . S
C3150 H3138 0.950 . S
C3150 C3149 1.398 . S
C3150 C3151 1.391 . S
C3151 H3139 0.950 . S
C3151 C3147 1.393 . S
C3151 C3150 1.391 . S
H3152 C3160 0.950 . S
H3153 C3165 0.950 . S
H3154 C3162 0.950 . S
H3155 C3164 0.950 . S
H3156 C3166 0.950 . S
H3157 C3168 0.950 . S
H3158 C3170 0.950 . S
H3159 C3171 0.950 . S
C3160 H3152 0.950 . S
C3160 C3161 1.386 . S
C3160 C3162 1.391 . S
C3161 C3160 1.386 . S
C3161 C3165 1.393 . S
C3162 H3154 0.950 . S
C3162 C3160 1.391 . S
C3162 C3163 1.400 . S
C3163 C3162 1.400 . S
C3163 C3164 1.398 . S
C3163 C3169 1.491 . S
C3164 H3155 0.950 . S
C3164 C3163 1.398 . S
C3164 C3165 1.391 . S
C3165 H3153 0.950 . S
C3165 C3161 1.393 . S
C3165 C3164 1.391 . S
C3166 H3156 0.950 . S
C3166 C3167 1.386 . S
C3166 C3168 1.391 . S
C3167 C3166 1.386 . S
C3167 C3171 1.393 . S
C3168 H3157 0.950 . S
C3168 C3166 1.391 . S
C3168 C3169 1.400 . S
C3169 C3163 1.491 . S
C3169 C3168 1.400 . S
C3169 C3170 1.398 . S
C3170 H3158 0.950 . S
C3170 C3169 1.398 . S
C3170 C3171 1.391 . S
C3171 H3159 0.950 . S
C3171 C3167 1.393 . S
C3171 C3170 1.391 . S
H3172 C3180 0.950 . S
H3173 C3185 0.950 . S
H3174 C3182 0.950 . S
H3175 C3184 0.950 . S
H3176 C3186 0.950 . S
H3177 C3188 0.950 . S
H3178 C3190 0.950 . S
H3179 C3191 0.950 . S
C3180 H3172 0.950 . S
C3180 C3181 1.386 . S
C3180 C3182 1.391 . S
C3181 C3180 1.386 . S
C3181 C3185 1.393 . S
C3182 H3174 0.950 . S
C3182 C3180 1.391 . S
C3182 C3183 1.400 . S
C3183 C3182 1.400 . S
C3183 C3184 1.398 . S
C3183 C3189 1.491 . S
C3184 H3175 0.950 . S
C3184 C3183 1.398 . S
C3184 C3185 1.391 . S
C3185 H3173 0.950 . S
C3185 C3181 1.393 . S
C3185 C3184 1.391 . S
C3186 H3176 0.950 . S
C3186 C3187 1.386 . S
C3186 C3188 1.391 . S
C3187 C3186 1.386 . S
C3187 C3191 1.393 . S
C3188 H3177 0.950 . S
C3188 C3186 1.391 . S
C3188 C3189 1.400 . S
C3189 C3183 1.491 . S
C3189 C3188 1.400 . S
C3189 C3190 1.398 . S
C3190 H3178 0.950 . S
C3190 C3189 1.398 . S
C3190 C3191 1.391 . S
C3191 H3179 0.950 . S
C3191 C3187 1.393 . S
C3191 C3190 1.391 . S
H3192 C3200 0.950 . S
H3193 C3205 0.950 . S
H3194 C3202 0.950 . S
H3195 C3204 0.950 . S
H3196 C3206 0.950 . S
H3197 C3208 0.950 . S
H3198 C3210 0.950 . S
H3199 C3211 0.950 . S
C3200 H3192 0.950 . S
C3200 C3201 1.386 . S
C3200 C3202 1.391 . S
C3201 C3200 1.386 . S
C3201 C3205 1.393 . S
C3202 H3194 0.950 . S
C3202 C3200 1.391 . S
C3202 C3203 1.400 . S
C3203 C3202 1.400 . S
C3203 C3204 1.398 . S
C3203 C3209 1.491 . S
C3204 H3195 0.950 . S
C3204 C3203 1.398 . S
C3204 C3205 1.391 . S
C3205 H3193 0.950 . S
C3205 C3201 1.393 . S
C3205 C3204 1.391 . S
C3206 H3196 0.950 . S
C3206 C3207 1.386 . S
C3206 C3208 1.391 . S
C3207 C3206 1.386 . S
C3207 C3211 1.393 . S
C3208 H3197 0.950 . S
C3208 C3206 1.391 . S
C3208 C3209 1.400 . S
C3209 C3203 1.491 . S
C3209 C3208 1.400 . S
C3209 C3210 1.398 . S
C3210 H3198 0.950 . S
C3210 C3209 1.398 . S
C3210 C3211 1.391 . S
C3211 H3199 0.950 . S
C3211 C3207 1.393 . S
C3211 C3210 1.391 . S
H3212 C3220 0.950 . S
H3213 C3225 0.950 . S
H3214 C3222 0.950 . S
H3215 C3224 0.950 . S
H3216 C3226 0.950 . S
H3217 C3228 0.950 . S
H3218 C3230 0.950 . S
H3219 C3231 0.950 . S
C3220 H3212 0.950 . S
C3220 C3221 1.386 . S
C3220 C3222 1.391 . S
C3221 C3220 1.386 . S
C3221 C3225 1.393 . S
C3222 H3214 0.950 . S
C3222 C3220 1.391 . S
C3222 C3223 1.400 . S
C3223 C3222 1.400 . S
C3223 C3224 1.398 . S
C3223 C3229 1.491 . S
C3224 H3215 0.950 . S
C3224 C3223 1.398 . S
C3224 C3225 1.391 . S
C3225 H3213 0.950 . S
C3225 C3221 1.393 . S
C3225 C3224 1.391 . S
C3226 H3216 0.950 . S
C3226 C3227 1.386 . S
C3226 C3228 1.391 . S
C3227 C3226 1.386 . S
C3227 C3231 1.393 . S
C3228 H3217 0.950 . S
C3228 C3226 1.391 . S
C3228 C3229 1.400 . S
C3229 C3223 1.491 . S
C3229 C3228 1.400 . S
C3229 C3230 1.398 . S
C3230 H3218 0.950 . S
C3230 C3229 1.398 . S
C3230 C3231 1.391 . S
C3231 H3219 0.950 . S
C3231 C3227 1.393 . S
C3231 C3230 1.391 . S
H3232 C3240 0.950 . S
H3233 C3245 0.950 . S
H3234 C3242 0.950 . S
H3235 C3244 0.950 . S
H3236 C3246 0.950 . S
H3237 C3248 0.950 . S
H3238 C3250 0.950 . S
H3239 C3251 0.950 . S
C3240 H3232 0.950 . S
C3240 C3241 1.386 . S
C3240 C3242 1.391 . S
C3241 C3240 1.386 . S
C3241 C3245 1.393 . S
C3242 H3234 0.950 . S
C3242 C3240 1.391 . S
C3242 C3243 1.400 . S
C3243 C3242 1.400 . S
C3243 C3244 1.398 . S
C3243 C3249 1.491 . S
C3244 H3235 0.950 . S
C3244 C3243 1.398 . S
C3244 C3245 1.391 . S
C3245 H3233 0.950 . S
C3245 C3241 1.393 . S
C3245 C3244 1.391 . S
C3246 H3236 0.950 . S
C3246 C3247 1.386 . S
C3246 C3248 1.391 . S
C3247 C3246 1.386 . S
C3247 C3251 1.393 . S
C3248 H3237 0.950 . S
C3248 C3246 1.391 . S
C3248 C3249 1.400 . S
C3249 C3243 1.491 . S
C3249 C3248 1.400 . S
C3249 C3250 1.398 . S
C3250 H3238 0.950 . S
C3250 C3249 1.398 . S
C3250 C3251 1.391 . S
C3251 H3239 0.950 . S
C3251 C3247 1.393 . S
C3251 C3250 1.391 . S
H3252 C3260 0.950 . S
H3253 C3265 0.950 . S
H3254 C3262 0.950 . S
H3255 C3264 0.950 . S
H3256 C3266 0.950 . S
H3257 C3268 0.950 . S
H3258 C3270 0.950 . S
H3259 C3271 0.950 . S
C3260 H3252 0.950 . S
C3260 C3261 1.386 . S
C3260 C3262 1.391 . S
C3261 C3260 1.386 . S
C3261 C3265 1.393 . S
C3262 H3254 0.950 . S
C3262 C3260 1.391 . S
C3262 C3263 1.400 . S
C3263 C3262 1.400 . S
C3263 C3264 1.398 . S
C3263 C3269 1.491 . S
C3264 H3255 0.950 . S
C3264 C3263 1.398 . S
C3264 C3265 1.391 . S
C3265 H3253 0.950 . S
C3265 C3261 1.393 . S
C3265 C3264 1.391 . S
C3266 H3256 0.950 . S
C3266 C3267 1.386 . S
C3266 C3268 1.391 . S
C3267 C3266 1.386 . S
C3267 C3271 1.393 . S
C3268 H3257 0.950 . S
C3268 C3266 1.391 . S
C3268 C3269 1.400 . S
C3269 C3263 1.491 . S
C3269 C3268 1.400 . S
C3269 C3270 1.398 . S
C3270 H3258 0.950 . S
C3270 C3269 1.398 . S
C3270 C3271 1.391 . S
C3271 H3259 0.950 . S
C3271 C3267 1.393 . S
C3271 C3270 1.391 . S
H3272 C3280 0.950 . S
H3273 C3285 0.950 . S
H3274 C3282 0.950 . S
H3275 C3284 0.950 . S
H3276 C3286 0.950 . S
H3277 C3288 0.950 . S
H3278 C3290 0.950 . S
H3279 C3291 0.950 . S
C3280 H3272 0.950 . S
C3280 C3281 1.386 . S
C3280 C3282 1.391 . S
C3281 C3280 1.386 . S
C3281 C3285 1.393 . S
C3282 H3274 0.950 . S
C3282 C3280 1.391 . S
C3282 C3283 1.400 . S
C3283 C3282 1.400 . S
C3283 C3284 1.398 . S
C3283 C3289 1.491 . S
C3284 H3275 0.950 . S
C3284 C3283 1.398 . S
C3284 C3285 1.391 . S
C3285 H3273 0.950 . S
C3285 C3281 1.393 . S
C3285 C3284 1.391 . S
C3286 H3276 0.950 . S
C3286 C3287 1.386 . S
C3286 C3288 1.391 . S
C3287 C3286 1.386 . S
C3287 C3291 1.393 . S
C3288 H3277 0.950 . S
C3288 C3286 1.391 . S
C3288 C3289 1.400 . S
C3289 C3283 1.491 . S
C3289 C3288 1.400 . S
C3289 C3290 1.398 . S
C3290 H3278 0.950 . S
C3290 C3289 1.398 . S
C3290 C3291 1.391 . S
C3291 H3279 0.950 . S
C3291 C3287 1.393 . S
C3291 C3290 1.391 . S
H3292 C3300 0.950 . S
H3293 C3305 0.950 . S
H3294 C3302 0.950 . S
H3295 C3304 0.950 . S
H3296 C3306 0.950 . S
H3297 C3308 0.950 . S
H3298 C3310 0.950 . S
H3299 C3311 0.950 . S
C3300 H3292 0.950 . S
C3300 C3301 1.386 . S
C3300 C3302 1.391 . S
C3301 C3300 1.386 . S
C3301 C3305 1.393 . S
C3302 H3294 0.950 . S
C3302 C3300 1.391 . S
C3302 C3303 1.400 . S
C3303 C3302 1.400 . S
C3303 C3304 1.398 . S
C3303 C3309 1.491 . S
C3304 H3295 0.950 . S
C3304 C3303 1.398 . S
C3304 C3305 1.391 . S
C3305 H3293 0.950 . S
C3305 C3301 1.393 . S
C3305 C3304 1.391 . S
C3306 H3296 0.950 . S
C3306 C3307 1.386 . S
C3306 C3308 1.391 . S
C3307 C3306 1.386 . S
C3307 C3311 1.393 . S
C3308 H3297 0.950 . S
C3308 C3306 1.391 . S
C3308 C3309 1.400 . S
C3309 C3303 1.491 . S
C3309 C3308 1.400 . S
C3309 C3310 1.398 . S
C3310 H3298 0.950 . S
C3310 C3309 1.398 . S
C3310 C3311 1.391 . S
C3311 H3299 0.950 . S
C3311 C3307 1.393 . S
C3311 C3310 1.391 . S
H3312 C3320 0.950 . S
H3313 C3325 0.950 . S
H3314 C3322 0.950 . S
H3315 C3324 0.950 . S
H3316 C3326 0.950 . S
H3317 C3328 0.950 . S
H3318 C3330 0.950 . S
H3319 C3331 0.950 . S
C3320 H3312 0.950 . S
C3320 C3321 1.386 . S
C3320 C3322 1.391 . S
C3321 C3320 1.386 . S
C3321 C3325 1.393 . S
C3322 H3314 0.950 . S
C3322 C3320 1.391 . S
C3322 C3323 1.400 . S
C3323 C3322 1.400 . S
C3323 C3324 1.398 . S
C3323 C3329 1.491 . S
C3324 H3315 0.950 . S
C3324 C3323 1.398 . S
C3324 C3325 1.391 . S
C3325 H3313 0.950 . S
C3325 C3321 1.393 . S
C3325 C3324 1.391 . S
C3326 H3316 0.950 . S
C3326 C3327 1.386 . S
C3326 C3328 1.391 . S
C3327 C3326 1.386 . S
C3327 C3331 1.393 . S
C3328 H3317 0.950 . S
C3328 C3326 1.391 . S
C3328 C3329 1.400 . S
C3329 C3323 1.491 . S
C3329 C3328 1.400 . S
C3329 C3330 1.398 . S
C3330 H3318 0.950 . S
C3330 C3329 1.398 . S
C3330 C3331 1.391 . S
C3331 H3319 0.950 . S
C3331 C3327 1.393 . S
C3331 C3330 1.391 . S
H3332 C3340 0.950 . S
H3333 C3345 0.950 . S
H3334 C3342 0.950 . S
H3335 C3344 0.950 . S
H3336 C3346 0.950 . S
H3337 C3348 0.950 . S
H3338 C3350 0.950 . S
H3339 C3351 0.950 . S
C3340 H3332 0.950 . S
C3340 C3341 1.386 . S
C3340 C3342 1.391 . S
C3341 C3340 1.386 . S
C3341 C3345 1.393 . S
C3342 H3334 0.950 . S
C3342 C3340 1.391 . S
C3342 C3343 1.400 . S
C3343 C3342 1.400 . S
C3343 C3344 1.398 . S
C3343 C3349 1.491 . S
C3344 H3335 0.950 . S
C3344 C3343 1.398 . S
C3344 C3345 1.391 . S
C3345 H3333 0.950 . S
C3345 C3341 1.393 . S
C3345 C3344 1.391 . S
C3346 H3336 0.950 . S
C3346 C3347 1.386 . S
C3346 C3348 1.391 . S
C3347 C3346 1.386 . S
C3347 C3351 1.393 . S
C3348 H3337 0.950 . S
C3348 C3346 1.391 . S
C3348 C3349 1.400 . S
C3349 C3343 1.491 . S
C3349 C3348 1.400 . S
C3349 C3350 1.398 . S
C3350 H3338 0.950 . S
C3350 C3349 1.398 . S
C3350 C3351 1.391 . S
C3351 H3339 0.950 . S
C3351 C3347 1.393 . S
C3351 C3350 1.391 . S
H3352 C3360 0.950 . S
H3353 C3365 0.950 . S
H3354 C3362 0.950 . S
H3355 C3364 0.950 . S
H3356 C3366 0.950 . S
H3357 C3368 0.950 . S
H3358 C3370 0.950 . S
H3359 C3371 0.950 . S
C3360 H3352 0.950 . S
C3360 C3361 1.386 . S
C3360 C3362 1.391 . S
C3361 C3360 1.386 . S
C3361 C3365 1.393 . S
C3362 H3354 0.950 . S
C3362 C3360 1.391 . S
C3362 C3363 1.400 . S
C3363 C3362 1.400 . S
C3363 C3364 1.398 . S
C3363 C3369 1.491 . S
C3364 H3355 0.950 . S
C3364 C3363 1.398 . S
C3364 C3365 1.391 . S
C3365 H3353 0.950 . S
C3365 C3361 1.393 . S
C3365 C3364 1.391 . S
C3366 H3356 0.950 . S
C3366 C3367 1.386 . S
C3366 C3368 1.391 . S
C3367 C3366 1.386 . S
C3367 C3371 1.393 . S
C3368 H3357 0.950 . S
C3368 C3366 1.391 . S
C3368 C3369 1.400 . S
C3369 C3363 1.491 . S
C3369 C3368 1.400 . S
C3369 C3370 1.398 . S
C3370 H3358 0.950 . S
C3370 C3369 1.398 . S
C3370 C3371 1.391 . S
C3371 H3359 0.950 . S
C3371 C3367 1.393 . S
C3371 C3370 1.391 . S
H3372 C3380 0.950 . S
H3373 C3385 0.950 . S
H3374 C3382 0.950 . S
H3375 C3384 0.950 . S
H3376 C3386 0.950 . S
H3377 C3388 0.950 . S
H3378 C3390 0.950 . S
H3379 C3391 0.950 . S
C3380 H3372 0.950 . S
C3380 C3381 1.386 . S
C3380 C3382 1.391 . S
C3381 C3380 1.386 . S
C3381 C3385 1.393 . S
C3382 H3374 0.950 . S
C3382 C3380 1.391 . S
C3382 C3383 1.400 . S
C3383 C3382 1.400 . S
C3383 C3384 1.398 . S
C3383 C3389 1.491 . S
C3384 H3375 0.950 . S
C3384 C3383 1.398 . S
C3384 C3385 1.391 . S
C3385 H3373 0.950 . S
C3385 C3381 1.393 . S
C3385 C3384 1.391 . S
C3386 H3376 0.950 . S
C3386 C3387 1.386 . S
C3386 C3388 1.391 . S
C3387 C3386 1.386 . S
C3387 C3391 1.393 . S
C3388 H3377 0.950 . S
C3388 C3386 1.391 . S
C3388 C3389 1.400 . S
C3389 C3383 1.491 . S
C3389 C3388 1.400 . S
C3389 C3390 1.398 . S
C3390 H3378 0.950 . S
C3390 C3389 1.398 . S
C3390 C3391 1.391 . S
C3391 H3379 0.950 . S
C3391 C3387 1.393 . S
C3391 C3390 1.391 . S
H3392 C3400 0.950 . S
H3393 C3405 0.950 . S
H3394 C3402 0.950 . S
H3395 C3404 0.950 . S
H3396 C3406 0.950 . S
H3397 C3408 0.950 . S
H3398 C3410 0.950 . S
H3399 C3411 0.950 . S
C3400 H3392 0.950 . S
C3400 C3401 1.386 . S
C3400 C3402 1.391 . S
C3401 C3400 1.386 . S
C3401 C3405 1.393 . S
C3402 H3394 0.950 . S
C3402 C3400 1.391 . S
C3402 C3403 1.400 . S
C3403 C3402 1.400 . S
C3403 C3404 1.398 . S
C3403 C3409 1.491 . S
C3404 H3395 0.950 . S
C3404 C3403 1.398 . S
C3404 C3405 1.391 . S
C3405 H3393 0.950 . S
C3405 C3401 1.393 . S
C3405 C3404 1.391 . S
C3406 H3396 0.950 . S
C3406 C3407 1.386 . S
C3406 C3408 1.391 . S
C3407 C3406 1.386 . S
C3407 C3411 1.393 . S
C3408 H3397 0.950 . S
C3408 C3406 1.391 . S
C3408 C3409 1.400 . S
C3409 C3403 1.491 . S
C3409 C3408 1.400 . S
C3409 C3410 1.398 . S
C3410 H3398 0.950 . S
C3410 C3409 1.398 . S
C3410 C3411 1.391 . S
C3411 H3399 0.950 . S
C3411 C3407 1.393 . S
C3411 C3410 1.391 . S
H3412 C3420 0.950 . S
H3413 C3425 0.950 . S
H3414 C3422 0.950 . S
H3415 C3424 0.950 . S
H3416 C3426 0.950 . S
H3417 C3428 0.950 . S
H3418 C3430 0.950 . S
H3419 C3431 0.950 . S
C3420 H3412 0.950 . S
C3420 C3421 1.386 . S
C3420 C3422 1.391 . S
C3421 C3420 1.386 . S
C3421 C3425 1.393 . S
C3422 H3414 0.950 . S
C3422 C3420 1.391 . S
C3422 C3423 1.400 . S
C3423 C3422 1.400 . S
C3423 C3424 1.398 . S
C3423 C3429 1.491 . S
C3424 H3415 0.950 . S
C3424 C3423 1.398 . S
C3424 C3425 1.391 . S
C3425 H3413 0.950 . S
C3425 C3421 1.393 . S
C3425 C3424 1.391 . S
C3426 H3416 0.950 . S
C3426 C3427 1.386 . S
C3426 C3428 1.391 . S
C3427 C3426 1.386 . S
C3427 C3431 1.393 . S
C3428 H3417 0.950 . S
C3428 C3426 1.391 . S
C3428 C3429 1.400 . S
C3429 C3423 1.491 . S
C3429 C3428 1.400 . S
C3429 C3430 1.398 . S
C3430 H3418 0.950 . S
C3430 C3429 1.398 . S
C3430 C3431 1.391 . S
C3431 H3419 0.950 . S
C3431 C3427 1.393 . S
C3431 C3430 1.391 . S
H3432 C3440 0.950 . S
H3433 C3445 0.950 . S
H3434 C3442 0.950 . S
H3435 C3444 0.950 . S
H3436 C3446 0.950 . S
H3437 C3448 0.950 . S
H3438 C3450 0.950 . S
H3439 C3451 0.950 . S
C3440 H3432 0.950 . S
C3440 C3441 1.386 . S
C3440 C3442 1.391 . S
C3441 C3440 1.386 . S
C3441 C3445 1.393 . S
C3442 H3434 0.950 . S
C3442 C3440 1.391 . S
C3442 C3443 1.400 . S
C3443 C3442 1.400 . S
C3443 C3444 1.398 . S
C3443 C3449 1.491 . S
C3444 H3435 0.950 . S
C3444 C3443 1.398 . S
C3444 C3445 1.391 . S
C3445 H3433 0.950 . S
C3445 C3441 1.393 . S
C3445 C3444 1.391 . S
C3446 H3436 0.950 . S
C3446 C3447 1.386 . S
C3446 C3448 1.391 . S
C3447 C3446 1.386 . S
C3447 C3451 1.393 . S
C3448 H3437 0.950 . S
C3448 C3446 1.391 . S
C3448 C3449 1.400 . S
C3449 C3443 1.491 . S
C3449 C3448 1.400 . S
C3449 C3450 1.398 . S
C3450 H3438 0.950 . S
C3450 C3449 1.398 . S
C3450 C3451 1.391 . S
C3451 H3439 0.950 . S
C3451 C3447 1.393 . S
C3451 C3450 1.391 . S
H3452 C3460 0.950 . S
H3453 C3465 0.950 . S
H3454 C3462 0.950 . S
H3455 C3464 0.950 . S
H3456 C3466 0.950 . S
H3457 C3468 0.950 . S
H3458 C3470 0.950 . S
H3459 C3471 0.950 . S
C3460 H3452 0.950 . S
C3460 C3461 1.386 . S
C3460 C3462 1.391 . S
C3461 C3460 1.386 . S
C3461 C3465 1.393 . S
C3462 H3454 0.950 . S
C3462 C3460 1.391 . S
C3462 C3463 1.400 . S
C3463 C3462 1.400 . S
C3463 C3464 1.398 . S
C3463 C3469 1.491 . S
C3464 H3455 0.950 . S
C3464 C3463 1.398 . S
C3464 C3465 1.391 . S
C3465 H3453 0.950 . S
C3465 C3461 1.393 . S
C3465 C3464 1.391 . S
C3466 H3456 0.950 . S
C3466 C3467 1.386 . S
C3466 C3468 1.391 . S
C3467 C3466 1.386 . S
C3467 C3471 1.393 . S
C3468 H3457 0.950 . S
C3468 C3466 1.391 . S
C3468 C3469 1.400 . S
C3469 C3463 1.491 . S
C3469 C3468 1.400 . S
C3469 C3470 1.398 . S
C3470 H3458 0.950 . S
C3470 C3469 1.398 . S
C3470 C3471 1.391 . S
C3471 H3459 0.950 . S
C3471 C3467 1.393 . S
C3471 C3470 1.391 . S
H3472 C3480 0.950 . S
H3473 C3485 0.950 . S
H3474 C3482 0.950 . S
H3475 C3484 0.950 . S
H3476 C3486 0.950 . S
H3477 C3488 0.950 . S
H3478 C3490 0.950 . S
H3479 C3491 0.950 . S
C3480 H3472 0.950 . S
C3480 C3481 1.386 . S
C3480 C3482 1.391 . S
C3481 C3480 1.386 . S
C3481 C3485 1.393 . S
C3482 H3474 0.950 . S
C3482 C3480 1.391 . S
C3482 C3483 1.400 . S
C3483 C3482 1.400 . S
C3483 C3484 1.398 . S
C3483 C3489 1.491 . S
C3484 H3475 0.950 . S
C3484 C3483 1.398 . S
C3484 C3485 1.391 . S
C3485 H3473 0.950 . S
C3485 C3481 1.393 . S
C3485 C3484 1.391 . S
C3486 H3476 0.950 . S
C3486 C3487 1.386 . S
C3486 C3488 1.391 . S
C3487 C3486 1.386 . S
C3487 C3491 1.393 . S
C3488 H3477 0.950 . S
C3488 C3486 1.391 . S
C3488 C3489 1.400 . S
C3489 C3483 1.491 . S
C3489 C3488 1.400 . S
C3489 C3490 1.398 . S
C3490 H3478 0.950 . S
C3490 C3489 1.398 . S
C3490 C3491 1.391 . S
C3491 H3479 0.950 . S
C3491 C3487 1.393 . S
C3491 C3490 1.391 . S
H3492 C3500 0.950 . S
H3493 C3505 0.950 . S
H3494 C3502 0.950 . S
H3495 C3504 0.950 . S
H3496 C3506 0.950 . S
H3497 C3508 0.950 . S
H3498 C3510 0.950 . S
H3499 C3511 0.950 . S
C3500 H3492 0.950 . S
C3500 C3501 1.386 . S
C3500 C3502 1.391 . S
C3501 C3500 1.386 . S
C3501 C3505 1.393 . S
C3502 H3494 0.950 . S
C3502 C3500 1.391 . S
C3502 C3503 1.400 . S
C3503 C3502 1.400 . S
C3503 C3504 1.398 . S
C3503 C3509 1.491 . S
C3504 H3495 0.950 . S
C3504 C3503 1.398 . S
C3504 C3505 1.391 . S
C3505 H3493 0.950 . S
C3505 C3501 1.393 . S
C3505 C3504 1.391 . S
C3506 H3496 0.950 . S
C3506 C3507 1.386 . S
C3506 C3508 1.391 . S
C3507 C3506 1.386 . S
C3507 C3511 1.393 . S
C3508 H3497 0.950 . S
C3508 C3506 1.391 . S
C3508 C3509 1.400 . S
C3509 C3503 1.491 . S
C3509 C3508 1.400 . S
C3509 C3510 1.398 . S
C3510 H3498 0.950 . S
C3510 C3509 1.398 . S
C3510 C3511 1.391 . S
C3511 H3499 0.950 . S
C3511 C3507 1.393 . S
C3511 C3510 1.391 . S
H3512 C3520 0.950 . S
H3513 C3525 0.950 . S
H3514 C3522 0.950 . S
H3515 C3524 0.950 . S
H3516 C3526 0.950 . S
H3517 C3528 0.950 . S
H3518 C3530 0.950 . S
H3519 C3531 0.950 . S
C3520 H3512 0.950 . S
C3520 C3521 1.386 . S
C3520 C3522 1.391 . S
C3521 C3520 1.386 . S
C3521 C3525 1.393 . S
C3522 H3514 0.950 . S
C3522 C3520 1.391 . S
C3522 C3523 1.400 . S
C3523 C3522 1.400 . S
C3523 C3524 1.398 . S
C3523 C3529 1.491 . S
C3524 H3515 0.950 . S
C3524 C3523 1.398 . S
C3524 C3525 1.391 . S
C3525 H3513 0.950 . S
C3525 C3521 1.393 . S
C3525 C3524 1.391 . S
C3526 H3516 0.950 . S
C3526 C3527 1.386 . S
C3526 C3528 1.391 . S
C3527 C3526 1.386 . S
C3527 C3531 1.393 . S
C3528 H3517 0.950 . S
C3528 C3526 1.391 . S
C3528 C3529 1.400 . S
C3529 C3523 1.491 . S
C3529 C3528 1.400 . S
C3529 C3530 1.398 . S
C3530 H3518 0.950 . S
C3530 C3529 1.398 . S
C3530 C3531 1.391 . S
C3531 H3519 0.950 . S
C3531 C3527 1.393 . S
C3531 C3530 1.391 . S
H3532 C3540 0.950 . S
H3533 C3545 0.950 . S
H3534 C3542 0.950 . S
H3535 C3544 0.950 . S
H3536 C3546 0.950 . S
H3537 C3548 0.950 . S
H3538 C3550 0.950 . S
H3539 C3551 0.950 . S
C3540 H3532 0.950 . S
C3540 C3541 1.386 . S
C3540 C3542 1.391 . S
C3541 C3540 1.386 . S
C3541 C3545 1.393 . S
C3542 H3534 0.950 . S
C3542 C3540 1.391 . S
C3542 C3543 1.400 . S
C3543 C3542 1.400 . S
C3543 C3544 1.398 . S
C3543 C3549 1.491 . S
C3544 H3535 0.950 . S
C3544 C3543 1.398 . S
C3544 C3545 1.391 . S
C3545 H3533 0.950 . S
C3545 C3541 1.393 . S
C3545 C3544 1.391 . S
C3546 H3536 0.950 . S
C3546 C3547 1.386 . S
C3546 C3548 1.391 . S
C3547 C3546 1.386 . S
C3547 C3551 1.393 . S
C3548 H3537 0.950 . S
C3548 C3546 1.391 . S
C3548 C3549 1.400 . S
C3549 C3543 1.491 . S
C3549 C3548 1.400 . S
C3549 C3550 1.398 . S
C3550 H3538 0.950 . S
C3550 C3549 1.398 . S
C3550 C3551 1.391 . S
C3551 H3539 0.950 . S
C3551 C3547 1.393 . S
C3551 C3550 1.391 . S
H3552 C3560 0.950 . S
H3553 C3565 0.950 . S
H3554 C3562 0.950 . S
H3555 C3564 0.950 . S
H3556 C3566 0.950 . S
H3557 C3568 0.950 . S
H3558 C3570 0.950 . S
H3559 C3571 0.950 . S
C3560 H3552 0.950 . S
C3560 C3561 1.386 . S
C3560 C3562 1.391 . S
C3561 C3560 1.386 . S
C3561 C3565 1.393 . S
C3562 H3554 0.950 . S
C3562 C3560 1.391 . S
C3562 C3563 1.400 . S
C3563 C3562 1.400 . S
C3563 C3564 1.398 . S
C3563 C3569 1.491 . S
C3564 H3555 0.950 . S
C3564 C3563 1.398 . S
C3564 C3565 1.391 . S
C3565 H3553 0.950 . S
C3565 C3561 1.393 . S
C3565 C3564 1.391 . S
C3566 H3556 0.950 . S
C3566 C3567 1.386 . S
C3566 C3568 1.391 . S
C3567 C3566 1.386 . S
C3567 C3571 1.393 . S
C3568 H3557 0.950 . S
C3568 C3566 1.391 . S
C3568 C3569 1.400 . S
C3569 C3563 1.491 . S
C3569 C3568 1.400 . S
C3569 C3570 1.398 . S
C3570 H3558 0.950 . S
C3570 C3569 1.398 . S
C3570 C3571 1.391 . S
C3571 H3559 0.950 . S
C3571 C3567 1.393 . S
C3571 C3570 1.391 . S
H3572 C3580 0.950 . S
H3573 C3585 0.950 . S
H3574 C3582 0.950 . S
H3575 C3584 0.950 . S
H3576 C3586 0.950 . S
H3577 C3588 0.950 . S
H3578 C3590 0.950 . S
H3579 C3591 0.950 . S
C3580 H3572 0.950 . S
C3580 C3581 1.386 . S
C3580 C3582 1.391 . S
C3581 C3580 1.386 . S
C3581 C3585 1.393 . S
C3582 H3574 0.950 . S
C3582 C3580 1.391 . S
C3582 C3583 1.400 . S
C3583 C3582 1.400 . S
C3583 C3584 1.398 . S
C3583 C3589 1.491 . S
C3584 H3575 0.950 . S
C3584 C3583 1.398 . S
C3584 C3585 1.391 . S
C3585 H3573 0.950 . S
C3585 C3581 1.393 . S
C3585 C3584 1.391 . S
C3586 H3576 0.950 . S
C3586 C3587 1.386 . S
C3586 C3588 1.391 . S
C3587 C3586 1.386 . S
C3587 C3591 1.393 . S
C3588 H3577 0.950 . S
C3588 C3586 1.391 . S
C3588 C3589 1.400 . S
C3589 C3583 1.491 . S
C3589 C3588 1.400 . S
C3589 C3590 1.398 . S
C3590 H3578 0.950 . S
C3590 C3589 1.398 . S
C3590 C3591 1.391 . S
C3591 H3579 0.950 . S
C3591 C3587 1.393 . S
C3591 C3590 1.391 . S
H3592 C3600 0.950 . S
H3593 C3605 0.950 . S
H3594 C3602 0.950 . S
H3595 C3604 0.950 . S
H3596 C3606 0.950 . S
H3597 C3608 0.950 . S
H3598 C3610 0.950 . S
H3599 C3611 0.950 . S
C3600 H3592 0.950 . S
C3600 C3601 1.386 . S
C3600 C3602 1.391 . S
C3601 C3600 1.386 . S
C3601 C3605 1.393 . S
C3602 H3594 0.950 . S
C3602 C3600 1.391 . S
C3602 C3603 1.400 . S
C3603 C3602 1.400 . S
C3603 C3604 1.398 . S
C3603 C3609 1.491 . S
C3604 H3595 0.950 . S
C3604 C3603 1.398 . S
C3604 C3605 1.391 . S
C3605 H3593 0.950 . S
C3605 C3601 1.393 . S
C3605 C3604 1.391 . S
C3606 H3596 0.950 . S
C3606 C3607 1.386 . S
C3606 C3608 1.391 . S
C3607 C3606 1.386 . S
C3607 C3611 1.393 . S
C3608 H3597 0.950 . S
C3608 C3606 1.391 . S
C3608 C3609 1.400 . S
C3609 C3603 1.491 . S
C3609 C3608 1.400 . S
C3609 C3610 1.398 . S
C3610 H3598 0.950 . S
C3610 C3609 1.398 . S
C3610 C3611 1.391 . S
C3611 H3599 0.950 . S
C3611 C3607 1.393 . S
C3611 C3610 1.391 . S
H3612 C3620 0.950 . S
H3613 C3625 0.950 . S
H3614 C3622 0.950 . S
H3615 C3624 0.950 . S
H3616 C3626 0.950 . S
H3617 C3628 0.950 . S
H3618 C3630 0.950 . S
H3619 C3631 0.950 . S
C3620 H3612 0.950 . S
C3620 C3621 1.386 . S
C3620 C3622 1.391 . S
C3621 C3620 1.386 . S
C3621 C3625 1.393 . S
C3622 H3614 0.950 . S
C3622 C3620 1.391 . S
C3622 C3623 1.400 . S
C3623 C3622 1.400 . S
C3623 C3624 1.398 . S
C3623 C3629 1.491 . S
C3624 H3615 0.950 . S
C3624 C3623 1.398 . S
C3624 C3625 1.391 . S
C3625 H3613 0.950 . S
C3625 C3621 1.393 . S
C3625 C3624 1.391 . S
C3626 H3616 0.950 . S
C3626 C3627 1.386 . S
C3626 C3628 1.391 . S
C3627 C3626 1.386 . S
C3627 C3631 1.393 . S
C3628 H3617 0.950 . S
C3628 C3626 1.391 . S
C3628 C3629 1.400 . S
C3629 C3623 1.491 . S
C3629 C3628 1.400 . S
C3629 C3630 1.398 . S
C3630 H3618 0.950 . S
C3630 C3629 1.398 . S
C3630 C3631 1.391 . S
C3631 H3619 0.950 . S
C3631 C3627 1.393 . S
C3631 C3630 1.391 . S
H3632 C3640 0.950 . S
H3633 C3645 0.950 . S
H3634 C3642 0.950 . S
H3635 C3644 0.950 . S
H3636 C3646 0.950 . S
H3637 C3648 0.950 . S
H3638 C3650 0.950 . S
H3639 C3651 0.950 . S
C3640 H3632 0.950 . S
C3640 C3641 1.386 . S
C3640 C3642 1.391 . S
C3641 C3640 1.386 . S
C3641 C3645 1.393 . S
C3642 H3634 0.950 . S
C3642 C3640 1.391 . S
C3642 C3643 1.400 . S
C3643 C3642 1.400 . S
C3643 C3644 1.398 . S
C3643 C3649 1.491 . S
C3644 H3635 0.950 . S
C3644 C3643 1.398 . S
C3644 C3645 1.391 . S
C3645 H3633 0.950 . S
C3645 C3641 1.393 . S
C3645 C3644 1.391 . S
C3646 H3636 0.950 . S
C3646 C3647 1.386 . S
C3646 C3648 1.391 . S
C3647 C3646 1.386 . S
C3647 C3651 1.393 . S
C3648 H3637 0.950 . S
C3648 C3646 1.391 . S
C3648 C3649 1.400 . S
C3649 C3643 1.491 . S
C3649 C3648 1.400 . S
C3649 C3650 1.398 . S
C3650 H3638 0.950 . S
C3650 C3649 1.398 . S
C3650 C3651 1.391 . S
C3651 H3639 0.950 . S
C3651 C3647 1.393 . S
C3651 C3650 1.391 . S
H3652 C3660 0.950 . S
H3653 C3665 0.950 . S
H3654 C3662 0.950 . S
H3655 C3664 0.950 . S
H3656 C3666 0.950 . S
H3657 C3668 0.950 . S
H3658 C3670 0.950 . S
H3659 C3671 0.950 . S
C3660 H3652 0.950 . S
C3660 C3661 1.386 . S
C3660 C3662 1.391 . S
C3661 C3660 1.386 . S
C3661 C3665 1.393 . S
C3662 H3654 0.950 . S
C3662 C3660 1.391 . S
C3662 C3663 1.400 . S
C3663 C3662 1.400 . S
C3663 C3664 1.398 . S
C3663 C3669 1.491 . S
C3664 H3655 0.950 . S
C3664 C3663 1.398 . S
C3664 C3665 1.391 . S
C3665 H3653 0.950 . S
C3665 C3661 1.393 . S
C3665 C3664 1.391 . S
C3666 H3656 0.950 . S
C3666 C3667 1.386 . S
C3666 C3668 1.391 . S
C3667 C3666 1.386 . S
C3667 C3671 1.393 . S
C3668 H3657 0.950 . S
C3668 C3666 1.391 . S
C3668 C3669 1.400 . S
C3669 C3663 1.491 . S
C3669 C3668 1.400 . S
C3669 C3670 1.398 . S
C3670 H3658 0.950 . S
C3670 C3669 1.398 . S
C3670 C3671 1.391 . S
C3671 H3659 0.950 . S
C3671 C3667 1.393 . S
C3671 C3670 1.391 . S
H3672 C3680 0.950 . S
H3673 C3685 0.950 . S
H3674 C3682 0.950 . S
H3675 C3684 0.950 . S
H3676 C3686 0.950 . S
H3677 C3688 0.950 . S
H3678 C3690 0.950 . S
H3679 C3691 0.950 . S
C3680 H3672 0.950 . S
C3680 C3681 1.386 . S
C3680 C3682 1.391 . S
C3681 C3680 1.386 . S
C3681 C3685 1.393 . S
C3682 H3674 0.950 . S
C3682 C3680 1.391 . S
C3682 C3683 1.400 . S
C3683 C3682 1.400 . S
C3683 C3684 1.398 . S
C3683 C3689 1.491 . S
C3684 H3675 0.950 . S
C3684 C3683 1.398 . S
C3684 C3685 1.391 . S
C3685 H3673 0.950 . S
C3685 C3681 1.393 . S
C3685 C3684 1.391 . S
C3686 H3676 0.950 . S
C3686 C3687 1.386 . S
C3686 C3688 1.391 . S
C3687 C3686 1.386 . S
C3687 C3691 1.393 . S
C3688 H3677 0.950 . S
C3688 C3686 1.391 . S
C3688 C3689 1.400 . S
C3689 C3683 1.491 . S
C3689 C3688 1.400 . S
C3689 C3690 1.398 . S
C3690 H3678 0.950 . S
C3690 C3689 1.398 . S
C3690 C3691 1.391 . S
C3691 H3679 0.950 . S
C3691 C3687 1.393 . S
C3691 C3690 1.391 . S
H3692 C3700 0.950 . S
H3693 C3705 0.950 . S
H3694 C3702 0.950 . S
H3695 C3704 0.950 . S
H3696 C3706 0.950 . S
H3697 C3708 0.950 . S
H3698 C3710 0.950 . S
H3699 C3711 0.950 . S
C3700 H3692 0.950 . S
C3700 C3701 1.386 . S
C3700 C3702 1.391 . S
C3701 C3700 1.386 . S
C3701 C3705 1.393 . S
C3702 H3694 0.950 . S
C3702 C3700 1.391 . S
C3702 C3703 1.400 . S
C3703 C3702 1.400 . S
C3703 C3704 1.398 . S
C3703 C3709 1.491 . S
C3704 H3695 0.950 . S
C3704 C3703 1.398 . S
C3704 C3705 1.391 . S
C3705 H3693 0.950 . S
C3705 C3701 1.393 . S
C3705 C3704 1.391 . S
C3706 H3696 0.950 . S
C3706 C3707 1.386 . S
C3706 C3708 1.391 . S
C3707 C3706 1.386 . S
C3707 C3711 1.393 . S
C3708 H3697 0.950 . S
C3708 C3706 1.391 . S
C3708 C3709 1.400 . S
C3709 C3703 1.491 . S
C3709 C3708 1.400 . S
C3709 C3710 1.398 . S
C3710 H3698 0.950 . S
C3710 C3709 1.398 . S
C3710 C3711 1.391 . S
C3711 H3699 0.950 . S
C3711 C3707 1.393 . S
C3711 C3710 1.391 . S
H3712 C3720 0.950 . S
H3713 C3725 0.950 . S
H3714 C3722 0.950 . S
H3715 C3724 0.950 . S
H3716 C3726 0.950 . S
H3717 C3728 0.950 . S
H3718 C3730 0.950 . S
H3719 C3731 0.950 . S
C3720 H3712 0.950 . S
C3720 C3721 1.386 . S
C3720 C3722 1.391 . S
C3721 C3720 1.386 . S
C3721 C3725 1.393 . S
C3722 H3714 0.950 . S
C3722 C3720 1.391 . S
C3722 C3723 1.400 . S
C3723 C3722 1.400 . S
C3723 C3724 1.398 . S
C3723 C3729 1.491 . S
C3724 H3715 0.950 . S
C3724 C3723 1.398 . S
C3724 C3725 1.391 . S
C3725 H3713 0.950 . S
C3725 C3721 1.393 . S
C3725 C3724 1.391 . S
C3726 H3716 0.950 . S
C3726 C3727 1.386 . S
C3726 C3728 1.391 . S
C3727 C3726 1.386 . S
C3727 C3731 1.393 . S
C3728 H3717 0.950 . S
C3728 C3726 1.391 . S
C3728 C3729 1.400 . S
C3729 C3723 1.491 . S
C3729 C3728 1.400 . S
C3729 C3730 1.398 . S
C3730 H3718 0.950 . S
C3730 C3729 1.398 . S
C3730 C3731 1.391 . S
C3731 H3719 0.950 . S
C3731 C3727 1.393 . S
C3731 C3730 1.391 . S
H3732 C3740 0.950 . S
H3733 C3745 0.950 . S
H3734 C3742 0.950 . S
H3735 C3744 0.950 . S
H3736 C3746 0.950 . S
H3737 C3748 0.950 . S
H3738 C3750 0.950 . S
H3739 C3751 0.950 . S
C3740 H3732 0.950 . S
C3740 C3741 1.386 . S
C3740 C3742 1.391 . S
C3741 C3740 1.386 . S
C3741 C3745 1.393 . S
C3742 H3734 0.950 . S
C3742 C3740 1.391 . S
C3742 C3743 1.400 . S
C3743 C3742 1.400 . S
C3743 C3744 1.398 . S
C3743 C3749 1.491 . S
C3744 H3735 0.950 . S
C3744 C3743 1.398 . S
C3744 C3745 1.391 . S
C3745 H3733 0.950 . S
C3745 C3741 1.393 . S
C3745 C3744 1.391 . S
C3746 H3736 0.950 . S
C3746 C3747 1.386 . S
C3746 C3748 1.391 . S
C3747 C3746 1.386 . S
C3747 C3751 1.393 . S
C3748 H3737 0.950 . S
C3748 C3746 1.391 . S
C3748 C3749 1.400 . S
C3749 C3743 1.491 . S
C3749 C3748 1.400 . S
C3749 C3750 1.398 . S
C3750 H3738 0.950 . S
C3750 C3749 1.398 . S
C3750 C3751 1.391 . S
C3751 H3739 0.950 . S
C3751 C3747 1.393 . S
C3751 C3750 1.391 . S
H3752 C3760 0.950 . S
H3753 C3765 0.950 . S
H3754 C3762 0.950 . S
H3755 C3764 0.950 . S
H3756 C3766 0.950 . S
H3757 C3768 0.950 . S
H3758 C3770 0.950 . S
H3759 C3771 0.950 . S
C3760 H3752 0.950 . S
C3760 C3761 1.386 . S
C3760 C3762 1.391 . S
C3761 C3760 1.386 . S
C3761 C3765 1.393 . S
C3762 H3754 0.950 . S
C3762 C3760 1.391 . S
C3762 C3763 1.400 . S
C3763 C3762 1.400 . S
C3763 C3764 1.398 . S
C3763 C3769 1.491 . S
C3764 H3755 0.950 . S
C3764 C3763 1.398 . S
C3764 C3765 1.391 . S
C3765 H3753 0.950 . S
C3765 C3761 1.393 . S
C3765 C3764 1.391 . S
C3766 H3756 0.950 . S
C3766 C3767 1.386 . S
C3766 C3768 1.391 . S
C3767 C3766 1.386 . S
C3767 C3771 1.393 . S
C3768 H3757 0.950 . S
C3768 C3766 1.391 . S
C3768 C3769 1.400 . S
C3769 C3763 1.491 . S
C3769 C3768 1.400 . S
C3769 C3770 1.398 . S
C3770 H3758 0.950 . S
C3770 C3769 1.398 . S
C3770 C3771 1.391 . S
C3771 H3759 0.950 . S
C3771 C3767 1.393 . S
C3771 C3770 1.391 . S
H3772 C3780 0.950 . S
H3773 C3785 0.950 . S
H3774 C3782 0.950 . S
H3775 C3784 0.950 . S
H3776 C3786 0.950 . S
H3777 C3788 0.950 . S
H3778 C3790 0.950 . S
H3779 C3791 0.950 . S
C3780 H3772 0.950 . S
C3780 C3781 1.386 . S
C3780 C3782 1.391 . S
C3781 C3780 1.386 . S
C3781 C3785 1.393 . S
C3782 H3774 0.950 . S
C3782 C3780 1.391 . S
C3782 C3783 1.400 . S
C3783 C3782 1.400 . S
C3783 C3784 1.398 . S
C3783 C3789 1.491 . S
C3784 H3775 0.950 . S
C3784 C3783 1.398 . S
C3784 C3785 1.391 . S
C3785 H3773 0.950 . S
C3785 C3781 1.393 . S
C3785 C3784 1.391 . S
C3786 H3776 0.950 . S
C3786 C3787 1.386 . S
C3786 C3788 1.391 . S
C3787 C3786 1.386 . S
C3787 C3791 1.393 . S
C3788 H3777 0.950 . S
C3788 C3786 1.391 . S
C3788 C3789 1.400 . S
C3789 C3783 1.491 . S
C3789 C3788 1.400 . S
C3789 C3790 1.398 . S
C3790 H3778 0.950 . S
C3790 C3789 1.398 . S
C3790 C3791 1.391 . S
C3791 H3779 0.950 . S
C3791 C3787 1.393 . S
C3791 C3790 1.391 . S
H3792 C3800 0.950 . S
H3793 C3805 0.950 . S
H3794 C3802 0.950 . S
H3795 C3804 0.950 . S
H3796 C3806 0.950 . S
H3797 C3808 0.950 . S
H3798 C3810 0.950 . S
H3799 C3811 0.950 . S
C3800 H3792 0.950 . S
C3800 C3801 1.386 . S
C3800 C3802 1.391 . S
C3801 C3800 1.386 . S
C3801 C3805 1.393 1_655 S
C3802 H3794 0.950 . S
C3802 C3800 1.391 . S
C3802 C3803 1.400 1_655 S
C3803 C3802 1.400 1_455 S
C3803 C3804 1.398 . S
C3803 C3809 1.491 . S
C3804 H3795 0.950 . S
C3804 C3803 1.398 . S
C3804 C3805 1.391 . S
C3805 H3793 0.950 . S
C3805 C3801 1.393 1_455 S
C3805 C3804 1.391 . S
C3806 H3796 0.950 . S
C3806 C3807 1.386 . S
C3806 C3808 1.391 . S
C3807 C3806 1.386 . S
C3807 C3811 1.393 . S
C3808 H3797 0.950 . S
C3808 C3806 1.391 . S
C3808 C3809 1.400 . S
C3809 C3803 1.491 . S
C3809 C3808 1.400 . S
C3809 C3810 1.398 . S
C3810 H3798 0.950 . S
C3810 C3809 1.398 . S
C3810 C3811 1.391 . S
C3811 H3799 0.950 . S
C3811 C3807 1.393 . S
C3811 C3810 1.391 . S
H3812 C3820 0.950 . S
H3813 C3825 0.950 . S
H3814 C3822 0.949 1_565 S
H3815 C3824 0.950 . S
H3816 C3826 0.950 . S
H3817 C3828 0.950 . S
H3818 C3830 0.950 . S
H3819 C3831 0.950 . S
C3820 H3812 0.950 . S
C3820 C3821 1.386 . S
C3820 C3822 1.389 1_565 S
C3821 C3820 1.386 . S
C3821 C3825 1.393 1_565 S
C3822 H3814 0.949 1_545 S
C3822 C3820 1.389 1_545 S
C3822 C3823 1.403 . S
C3823 C3822 1.403 . S
C3823 C3824 1.398 . S
C3823 C3829 1.491 . S
C3824 H3815 0.950 . S
C3824 C3823 1.398 . S
C3824 C3825 1.391 . S
C3825 H3813 0.950 . S
C3825 C3821 1.393 1_545 S
C3825 C3824 1.391 . S
C3826 H3816 0.950 . S
C3826 C3827 1.386 . S
C3826 C3828 1.391 . S
C3827 C3826 1.386 . S
C3827 C3831 1.393 . S
C3828 H3817 0.950 . S
C3828 C3826 1.391 . S
C3828 C3829 1.400 . S
C3829 C3823 1.491 . S
C3829 C3828 1.400 . S
C3829 C3830 1.398 . S
C3830 H3818 0.950 . S
C3830 C3829 1.398 . S
C3830 C3831 1.391 . S
C3831 H3819 0.950 . S
C3831 C3827 1.393 . S
C3831 C3830 1.391 . S
H3832 C3840 0.950 . S
H3833 C3845 0.950 . S
H3834 C3842 0.950 . S
H3835 C3844 0.950 . S
H3836 C3846 0.950 . S
H3837 C3848 0.950 . S
H3838 C3850 0.950 . S
H3839 C3851 0.950 . S
C3840 H3832 0.950 . S
C3840 C3841 1.386 . S
C3840 C3842 1.391 . S
C3841 C3840 1.386 . S
C3841 C3845 1.393 . S
C3842 H3834 0.950 . S
C3842 C3840 1.391 . S
C3842 C3843 1.400 . S
C3843 C3842 1.400 . S
C3843 C3844 1.398 . S
C3843 C3849 1.491 . S
C3844 H3835 0.950 . S
C3844 C3843 1.398 . S
C3844 C3845 1.391 . S
C3845 H3833 0.950 . S
C3845 C3841 1.393 . S
C3845 C3844 1.391 . S
C3846 H3836 0.950 . S
C3846 C3847 1.386 . S
C3846 C3848 1.391 . S
C3847 C3846 1.386 . S
C3847 C3851 1.393 . S
C3848 H3837 0.950 . S
C3848 C3846 1.391 . S
C3848 C3849 1.400 . S
C3849 C3843 1.491 . S
C3849 C3848 1.400 . S
C3849 C3850 1.398 . S
C3850 H3838 0.950 . S
C3850 C3849 1.398 . S
C3850 C3851 1.391 . S
C3851 H3839 0.950 . S
C3851 C3847 1.393 . S
C3851 C3850 1.391 . S
H3852 C3860 0.950 . S
H3853 C3865 0.950 . S
H3854 C3862 0.950 . S
H3855 C3864 0.950 . S
H3856 C3866 0.950 . S
H3857 C3868 0.950 . S
H3858 C3870 0.950 . S
H3859 C3871 0.950 . S
C3860 H3852 0.950 . S
C3860 C3861 1.386 . S
C3860 C3862 1.391 . S
C3861 C3860 1.386 . S
C3861 C3865 1.393 . S
C3862 H3854 0.950 . S
C3862 C3860 1.391 . S
C3862 C3863 1.400 . S
C3863 C3862 1.400 . S
C3863 C3864 1.398 . S
C3863 C3869 1.491 . S
C3864 H3855 0.950 . S
C3864 C3863 1.398 . S
C3864 C3865 1.391 . S
C3865 H3853 0.950 . S
C3865 C3861 1.393 . S
C3865 C3864 1.391 . S
C3866 H3856 0.950 . S
C3866 C3867 1.386 . S
C3866 C3868 1.391 . S
C3867 C3866 1.386 . S
C3867 C3871 1.393 . S
C3868 H3857 0.950 . S
C3868 C3866 1.391 . S
C3868 C3869 1.400 . S
C3869 C3863 1.491 . S
C3869 C3868 1.400 . S
C3869 C3870 1.398 . S
C3870 H3858 0.950 . S
C3870 C3869 1.398 . S
C3870 C3871 1.391 . S
C3871 H3859 0.950 . S
C3871 C3867 1.393 . S
C3871 C3870 1.391 . S
H3872 C3880 0.950 . S
H3873 C3885 0.950 . S
H3874 C3882 0.950 . S
H3875 C3884 0.950 . S
H3876 C3886 0.950 . S
H3877 C3888 0.950 . S
H3878 C3890 0.950 . S
H3879 C3891 0.950 . S
C3880 H3872 0.950 . S
C3880 C3881 1.386 . S
C3880 C3882 1.391 . S
C3881 C3880 1.386 . S
C3881 C3885 1.393 . S
C3882 H3874 0.950 . S
C3882 C3880 1.391 . S
C3882 C3883 1.400 . S
C3883 C3882 1.400 . S
C3883 C3884 1.398 . S
C3883 C3889 1.491 . S
C3884 H3875 0.950 . S
C3884 C3883 1.398 . S
C3884 C3885 1.391 . S
C3885 H3873 0.950 . S
C3885 C3881 1.393 . S
C3885 C3884 1.391 . S
C3886 H3876 0.950 . S
C3886 C3887 1.386 1_455 S
C3886 C3888 1.391 . S
C3887 C3886 1.386 1_655 S
C3887 C3891 1.393 . S
C3888 H3877 0.950 . S
C3888 C3886 1.391 . S
C3888 C3889 1.400 . S
C3889 C3883 1.491 . S
C3889 C3888 1.400 . S
C3889 C3890 1.398 1_455 S
C3890 H3878 0.950 . S
C3890 C3889 1.398 1_655 S
C3890 C3891 1.391 . S
C3891 H3879 0.950 . S
C3891 C3887 1.393 . S
C3891 C3890 1.391 . S
H3892 C3900 0.950 . S
H3893 C3905 0.950 . S
H3894 C3902 0.950 . S
H3895 C3904 0.950 . S
H3896 C3906 0.950 . S
H3897 C3908 0.961 . S
H3898 C3910 0.950 . S
H3899 C3911 0.950 . S
C3900 H3892 0.950 . S
C3900 C3901 1.386 . S
C3900 C3902 1.391 . S
C3901 C3900 1.386 . S
C3901 C3905 1.393 . S
C3902 H3894 0.950 . S
C3902 C3900 1.391 . S
C3902 C3903 1.400 . S
C3903 C3902 1.400 . S
C3903 C3904 1.398 . S
C3903 C3909 1.491 . S
C3904 H3895 0.950 . S
C3904 C3903 1.398 . S
C3904 C3905 1.391 . S
C3905 H3893 0.950 . S
C3905 C3901 1.393 . S
C3905 C3904 1.391 . S
C3906 H3896 0.950 . S
C3906 C3907 1.386 . S
C3906 C3908 1.426 . S
C3907 C3906 1.386 . S
C3907 C3911 1.393 1_565 S
C3908 H3897 0.961 . S
C3908 C3906 1.426 . S
C3908 C3909 1.358 1_565 S
C3909 C3903 1.491 . S
C3909 C3908 1.358 1_545 S
C3909 C3910 1.398 . S
C3910 H3898 0.950 . S
C3910 C3909 1.398 . S
C3910 C3911 1.391 . S
C3911 H3899 0.950 . S
C3911 C3907 1.393 1_545 S
C3911 C3910 1.391 . S
H3912 C3920 0.950 . S
H3913 C3925 0.950 . S
H3914 C3922 0.950 . S
H3915 C3924 0.950 . S
H3916 C3926 0.950 . S
H3917 C3928 0.950 . S
H3918 C3930 0.950 . S
H3919 C3931 0.950 . S
C3920 H3912 0.950 . S
C3920 C3921 1.386 . S
C3920 C3922 1.391 . S
C3921 C3920 1.386 . S
C3921 C3925 1.393 . S
C3922 H3914 0.950 . S
C3922 C3920 1.391 . S
C3922 C3923 1.400 . S
C3923 C3922 1.400 . S
C3923 C3924 1.398 . S
C3923 C3929 1.491 . S
C3924 H3915 0.950 . S
C3924 C3923 1.398 . S
C3924 C3925 1.391 . S
C3925 H3913 0.950 . S
C3925 C3921 1.393 . S
C3925 C3924 1.391 . S
C3926 H3916 0.950 . S
C3926 C3927 1.386 . S
C3926 C3928 1.391 . S
C3927 C3926 1.386 . S
C3927 C3931 1.393 . S
C3928 H3917 0.950 . S
C3928 C3926 1.391 . S
C3928 C3929 1.400 . S
C3929 C3923 1.491 . S
C3929 C3928 1.400 . S
C3929 C3930 1.398 . S
C3930 H3918 0.950 . S
C3930 C3929 1.398 . S
C3930 C3931 1.391 . S
C3931 H3919 0.950 . S
C3931 C3927 1.393 . S
C3931 C3930 1.391 . S
H3932 C3940 0.950 . S
H3933 C3945 0.950 . S
H3934 C3942 0.950 . S
H3935 C3944 0.950 . S
H3936 C3946 0.950 . S
H3937 C3948 0.950 . S
H3938 C3950 0.950 . S
H3939 C3951 0.950 . S
C3940 H3932 0.950 . S
C3940 C3941 1.386 . S
C3940 C3942 1.391 . S
C3941 C3940 1.386 . S
C3941 C3945 1.393 . S
C3942 H3934 0.950 . S
C3942 C3940 1.391 . S
C3942 C3943 1.400 . S
C3943 C3942 1.400 . S
C3943 C3944 1.398 . S
C3943 C3949 1.491 . S
C3944 H3935 0.950 . S
C3944 C3943 1.398 . S
C3944 C3945 1.391 . S
C3945 H3933 0.950 . S
C3945 C3941 1.393 . S
C3945 C3944 1.391 . S
C3946 H3936 0.950 . S
C3946 C3947 1.386 . S
C3946 C3948 1.391 . S
C3947 C3946 1.386 . S
C3947 C3951 1.393 . S
C3948 H3937 0.950 . S
C3948 C3946 1.391 . S
C3948 C3949 1.400 . S
C3949 C3943 1.491 . S
C3949 C3948 1.400 . S
C3949 C3950 1.398 . S
C3950 H3938 0.950 . S
C3950 C3949 1.398 . S
C3950 C3951 1.391 . S
C3951 H3939 0.950 . S
C3951 C3947 1.393 . S
C3951 C3950 1.391 . S
H3952 C3960 0.950 . S
H3953 C3965 0.950 . S
H3954 C3962 0.950 . S
H3955 C3964 0.950 . S
H3956 C3966 0.950 . S
H3957 C3968 0.950 . S
H3958 C3970 0.950 . S
H3959 C3971 0.950 . S
C3960 H3952 0.950 . S
C3960 C3961 1.386 . S
C3960 C3962 1.391 1_565 S
C3961 C3960 1.386 . S
C3961 C3965 1.393 . S
C3962 H3954 0.950 . S
C3962 C3960 1.391 1_545 S
C3962 C3963 1.400 . S
C3963 C3962 1.400 . S
C3963 C3964 1.398 . S
C3963 C3969 1.491 . S
C3964 H3955 0.950 . S
C3964 C3963 1.398 . S
C3964 C3965 1.391 1_545 S
C3965 H3953 0.950 . S
C3965 C3961 1.393 . S
C3965 C3964 1.391 1_565 S
C3966 H3956 0.950 . S
C3966 C3967 1.386 . S
C3966 C3968 1.391 . S
C3967 C3966 1.386 . S
C3967 C3971 1.393 . S
C3968 H3957 0.950 . S
C3968 C3966 1.391 . S
C3968 C3969 1.400 . S
C3969 C3963 1.491 . S
C3969 C3968 1.400 . S
C3969 C3970 1.398 . S
C3970 H3958 0.950 . S
C3970 C3969 1.398 . S
C3970 C3971 1.391 . S
C3971 H3959 0.950 . S
C3971 C3967 1.393 . S
C3971 C3970 1.391 . S
H3972 C3980 0.950 . S
H3973 C3985 0.950 . S
H3974 C3982 0.950 . S
H3975 C3984 0.950 . S
H3976 C3986 0.950 . S
H3977 C3988 0.950 . S
H3978 C3990 0.950 . S
H3979 C3991 0.950 . S
C3980 H3972 0.950 . S
C3980 C3981 1.386 . S
C3980 C3982 1.391 . S
C3981 C3980 1.386 . S
C3981 C3985 1.393 . S
C3982 H3974 0.950 . S
C3982 C3980 1.391 . S
C3982 C3983 1.400 . S
C3983 C3982 1.400 . S
C3983 C3984 1.398 . S
C3983 C3989 1.491 . S
C3984 H3975 0.950 . S
C3984 C3983 1.398 . S
C3984 C3985 1.391 . S
C3985 H3973 0.950 . S
C3985 C3981 1.393 . S
C3985 C3984 1.391 . S
C3986 H3976 0.950 . S
C3986 C3987 1.386 . S
C3986 C3988 1.391 . S
C3987 C3986 1.386 . S
C3987 C3991 1.393 . S
C3988 H3977 0.950 . S
C3988 C3986 1.391 . S
C3988 C3989 1.400 . S
C3989 C3983 1.491 . S
C3989 C3988 1.400 . S
C3989 C3990 1.398 . S
C3990 H3978 0.950 . S
C3990 C3989 1.398 . S
C3990 C3991 1.391 . S
C3991 H3979 0.950 . S
C3991 C3987 1.393 . S
C3991 C3990 1.391 . S
H3992 C4000 0.950 . S
H3993 C4005 0.950 . S
H3994 C4002 0.950 . S
H3995 C4004 0.950 . S
H3996 C4006 0.950 . S
H3997 C4008 0.950 . S
H3998 C4010 0.950 . S
H3999 C4011 0.950 . S
C4000 H3992 0.950 . S
C4000 C4001 1.386 . S
C4000 C4002 1.391 . S
C4001 C4000 1.386 . S
C4001 C4005 1.393 . S
C4002 H3994 0.950 . S
C4002 C4000 1.391 . S
C4002 C4003 1.400 . S
C4003 C4002 1.400 . S
C4003 C4004 1.398 . S
C4003 C4009 1.491 . S
C4004 H3995 0.950 . S
C4004 C4003 1.398 . S
C4004 C4005 1.391 . S
C4005 H3993 0.950 . S
C4005 C4001 1.393 . S
C4005 C4004 1.391 . S
C4006 H3996 0.950 . S
C4006 C4007 1.386 . S
C4006 C4008 1.391 . S
C4007 C4006 1.386 . S
C4007 C4011 1.393 . S
C4008 H3997 0.950 . S
C4008 C4006 1.391 . S
C4008 C4009 1.400 . S
C4009 C4003 1.491 . S
C4009 C4008 1.400 . S
C4009 C4010 1.398 . S
C4010 H3998 0.950 . S
C4010 C4009 1.398 . S
C4010 C4011 1.391 . S
C4011 H3999 0.950 . S
C4011 C4007 1.393 . S
C4011 C4010 1.391 . S
H4012 C4020 0.950 . S
H4013 C4025 0.950 . S
H4014 C4022 0.950 . S
H4015 C4024 0.950 . S
H4016 C4026 0.950 . S
H4017 C4028 0.950 . S
H4018 C4030 0.950 . S
H4019 C4031 0.950 . S
C4020 H4012 0.950 . S
C4020 C4021 1.386 . S
C4020 C4022 1.391 . S
C4021 C4020 1.386 . S
C4021 C4025 1.393 . S
C4022 H4014 0.950 . S
C4022 C4020 1.391 . S
C4022 C4023 1.400 . S
C4023 C4022 1.400 . S
C4023 C4024 1.398 . S
C4023 C4029 1.491 . S
C4024 H4015 0.950 . S
C4024 C4023 1.398 . S
C4024 C4025 1.391 . S
C4025 H4013 0.950 . S
C4025 C4021 1.393 . S
C4025 C4024 1.391 . S
C4026 H4016 0.950 . S
C4026 C4027 1.386 1_455 S
C4026 C4028 1.391 . S
C4027 C4026 1.386 1_655 S
C4027 C4031 1.393 . S
C4028 H4017 0.950 . S
C4028 C4026 1.391 . S
C4028 C4029 1.400 . S
C4029 C4023 1.491 . S
C4029 C4028 1.400 . S
C4029 C4030 1.398 1_455 S
C4030 H4018 0.950 . S
C4030 C4029 1.398 1_655 S
C4030 C4031 1.391 . S
C4031 H4019 0.950 . S
C4031 C4027 1.393 . S
C4031 C4030 1.391 . S
H4032 C4040 0.950 . S
H4033 C4045 0.950 . S
H4034 C4042 0.950 . S
H4035 C4044 0.950 . S
H4036 C4046 0.950 . S
H4037 C4048 0.950 . S
H4038 C4050 0.950 . S
H4039 C4051 0.950 . S
C4040 H4032 0.950 . S
C4040 C4041 1.386 . S
C4040 C4042 1.391 . S
C4041 C4040 1.386 . S
C4041 C4045 1.393 . S
C4042 H4034 0.950 . S
C4042 C4040 1.391 . S
C4042 C4043 1.400 . S
C4043 C4042 1.400 . S
C4043 C4044 1.398 . S
C4043 C4049 1.491 . S
C4044 H4035 0.950 . S
C4044 C4043 1.398 . S
C4044 C4045 1.391 . S
C4045 H4033 0.950 . S
C4045 C4041 1.393 . S
C4045 C4044 1.391 . S
C4046 H4036 0.950 . S
C4046 C4047 1.386 . S
C4046 C4048 1.391 . S
C4047 C4046 1.386 . S
C4047 C4051 1.393 . S
C4048 H4037 0.950 . S
C4048 C4046 1.391 . S
C4048 C4049 1.400 . S
C4049 C4043 1.491 . S
C4049 C4048 1.400 . S
C4049 C4050 1.398 . S
C4050 H4038 0.950 . S
C4050 C4049 1.398 . S
C4050 C4051 1.391 . S
C4051 H4039 0.950 . S
C4051 C4047 1.393 . S
C4051 C4050 1.391 . S
H4052 C4060 0.950 . S
H4053 C4065 0.950 . S
H4054 C4062 0.950 . S
H4055 C4064 0.950 . S
H4056 C4066 0.950 . S
H4057 C4068 0.950 . S
H4058 C4070 0.950 . S
H4059 C4071 0.952 . S
C4060 H4052 0.950 . S
C4060 C4061 1.386 . S
C4060 C4062 1.391 . S
C4061 C4060 1.386 . S
C4061 C4065 1.393 . S
C4062 H4054 0.950 . S
C4062 C4060 1.391 . S
C4062 C4063 1.400 . S
C4063 C4062 1.400 . S
C4063 C4064 1.398 . S
C4063 C4069 1.491 . S
C4064 H4055 0.950 . S
C4064 C4063 1.398 . S
C4064 C4065 1.391 . S
C4065 H4053 0.950 . S
C4065 C4061 1.393 . S
C4065 C4064 1.391 . S
C4066 H4056 0.950 . S
C4066 C4067 1.386 . S
C4066 C4068 1.391 1_655 S
C4067 C4066 1.386 . S
C4067 C4071 1.393 1_655 S
C4068 H4057 0.950 . S
C4068 C4066 1.391 1_455 S
C4068 C4069 1.400 . S
C4069 C4063 1.491 . S
C4069 C4068 1.400 . S
C4069 C4070 1.398 . S
C4070 H4058 0.950 . S
C4070 C4069 1.398 . S
C4070 C4071 1.391 . S
C4071 H4059 0.952 . S
C4071 C4067 1.393 1_455 S
C4071 C4070 1.391 . S
H4072 C4080 0.950 . S
H4073 C4085 0.950 . S
H4074 C4082 0.950 . S
H4075 C4084 0.950 . S
H4076 C4086 0.950 . S
H4077 C4088 0.950 . S
H4078 C4090 0.950 . S
H4079 C4091 0.950 . S
C4080 H4072 0.950 . S
C4080 C4081 1.386 . S
C4080 C4082 1.391 . S
C4081 C4080 1.386 . S
C4081 C4085 1.393 1_565 S
C4082 H4074 0.950 . S
C4082 C4080 1.391 . S
C4082 C4083 1.400 1_565 S
C4083 C4082 1.400 1_545 S
C4083 C4084 1.398 . S
C4083 C4089 1.491 . S
C4084 H4075 0.950 . S
C4084 C4083 1.398 . S
C4084 C4085 1.391 . S
C4085 H4073 0.950 . S
C4085 C4081 1.393 1_545 S
C4085 C4084 1.391 . S
C4086 H4076 0.950 . S
C4086 C4087 1.386 . S
C4086 C4088 1.391 . S
C4087 C4086 1.386 . S
C4087 C4091 1.393 . S
C4088 H4077 0.950 . S
C4088 C4086 1.391 . S
C4088 C4089 1.400 . S
C4089 C4083 1.491 . S
C4089 C4088 1.400 . S
C4089 C4090 1.398 . S
C4090 H4078 0.950 . S
C4090 C4089 1.398 . S
C4090 C4091 1.391 . S
C4091 H4079 0.950 . S
C4091 C4087 1.393 . S
C4091 C4090 1.391 . S
H4092 C4100 0.950 . S
H4093 C4105 0.950 . S
H4094 C4102 0.950 . S
H4095 C4104 0.950 . S
H4096 C4106 0.950 . S
H4097 C4108 0.950 . S
H4098 C4110 0.950 . S
H4099 C4111 0.950 . S
C4100 H4092 0.950 . S
C4100 C4101 1.386 . S
C4100 C4102 1.391 . S
C4101 C4100 1.386 . S
C4101 C4105 1.393 . S
C4102 H4094 0.950 . S
C4102 C4100 1.391 . S
C4102 C4103 1.400 . S
C4103 C4102 1.400 . S
C4103 C4104 1.398 . S
C4103 C4109 1.491 . S
C4104 H4095 0.950 . S
C4104 C4103 1.398 . S
C4104 C4105 1.391 . S
C4105 H4093 0.950 . S
C4105 C4101 1.393 . S
C4105 C4104 1.391 . S
C4106 H4096 0.950 . S
C4106 C4107 1.386 . S
C4106 C4108 1.391 . S
C4107 C4106 1.386 . S
C4107 C4111 1.393 . S
C4108 H4097 0.950 . S
C4108 C4106 1.391 . S
C4108 C4109 1.400 . S
C4109 C4103 1.491 . S
C4109 C4108 1.400 . S
C4109 C4110 1.398 . S
C4110 H4098 0.950 . S
C4110 C4109 1.398 . S
C4110 C4111 1.391 . S
C4111 H4099 0.950 . S
C4111 C4107 1.393 . S
C4111 C4110 1.391 . S
H4112 C4120 0.950 . S
H4113 C4125 0.950 . S
H4114 C4122 0.950 . S
H4115 C4124 0.950 . S
H4116 C4126 0.950 . S
H4117 C4128 0.950 . S
H4118 C4130 0.950 . S
H4119 C4131 0.950 . S
C4120 H4112 0.950 . S
C4120 C4121 1.386 . S
C4120 C4122 1.391 . S
C4121 C4120 1.386 . S
C4121 C4125 1.393 . S
C4122 H4114 0.950 . S
C4122 C4120 1.391 . S
C4122 C4123 1.400 . S
C4123 C4122 1.400 . S
C4123 C4124 1.398 . S
C4123 C4129 1.491 . S
C4124 H4115 0.950 . S
C4124 C4123 1.398 . S
C4124 C4125 1.391 . S
C4125 H4113 0.950 . S
C4125 C4121 1.393 . S
C4125 C4124 1.391 . S
C4126 H4116 0.950 . S
C4126 C4127 1.386 . S
C4126 C4128 1.391 . S
C4127 C4126 1.386 . S
C4127 C4131 1.393 1_556 S
C4128 H4117 0.950 . S
C4128 C4126 1.391 . S
C4128 C4129 1.400 1_556 S
C4129 C4123 1.491 . S
C4129 C4128 1.400 1_554 S
C4129 C4130 1.398 . S
C4130 H4118 0.950 . S
C4130 C4129 1.398 . S
C4130 C4131 1.391 . S
C4131 H4119 0.950 . S
C4131 C4127 1.393 1_554 S
C4131 C4130 1.391 . S
H4132 C4140 0.950 . S
H4133 C4145 0.950 . S
H4134 C4142 0.950 . S
H4135 C4144 0.950 . S
H4136 C4146 0.950 . S
H4137 C4148 0.950 . S
H4138 C4150 0.950 . S
H4139 C4151 0.950 . S
C4140 H4132 0.950 . S
C4140 C4141 1.386 . S
C4140 C4142 1.391 . S
C4141 C4140 1.386 . S
C4141 C4145 1.393 . S
C4142 H4134 0.950 . S
C4142 C4140 1.391 . S
C4142 C4143 1.400 . S
C4143 C4142 1.400 . S
C4143 C4144 1.398 . S
C4143 C4149 1.491 . S
C4144 H4135 0.950 . S
C4144 C4143 1.398 . S
C4144 C4145 1.391 . S
C4145 H4133 0.950 . S
C4145 C4141 1.393 . S
C4145 C4144 1.391 . S
C4146 H4136 0.950 . S
C4146 C4147 1.386 . S
C4146 C4148 1.391 . S
C4147 C4146 1.386 . S
C4147 C4151 1.393 . S
C4148 H4137 0.950 . S
C4148 C4146 1.391 . S
C4148 C4149 1.400 . S
C4149 C4143 1.491 . S
C4149 C4148 1.400 . S
C4149 C4150 1.398 . S
C4150 H4138 0.950 . S
C4150 C4149 1.398 . S
C4150 C4151 1.391 . S
C4151 H4139 0.950 . S
C4151 C4147 1.393 . S
C4151 C4150 1.391 . S
H4152 C4160 0.950 . S
H4153 C4165 0.950 . S
H4154 C4162 0.950 . S
H4155 C4164 0.950 . S
H4156 C4166 0.950 . S
H4157 C4168 0.950 . S
H4158 C4170 0.950 . S
H4159 C4171 0.950 . S
C4160 H4152 0.950 . S
C4160 C4161 1.386 . S
C4160 C4162 1.391 . S
C4161 C4160 1.386 . S
C4161 C4165 1.393 . S
C4162 H4154 0.950 . S
C4162 C4160 1.391 . S
C4162 C4163 1.400 . S
C4163 C4162 1.400 . S
C4163 C4164 1.398 . S
C4163 C4169 1.491 . S
C4164 H4155 0.950 . S
C4164 C4163 1.398 . S
C4164 C4165 1.391 . S
C4165 H4153 0.950 . S
C4165 C4161 1.393 . S
C4165 C4164 1.391 . S
C4166 H4156 0.950 . S
C4166 C4167 1.386 . S
C4166 C4168 1.391 . S
C4167 C4166 1.386 . S
C4167 C4171 1.393 . S
C4168 H4157 0.950 . S
C4168 C4166 1.391 . S
C4168 C4169 1.400 . S
C4169 C4163 1.491 . S
C4169 C4168 1.400 . S
C4169 C4170 1.398 . S
C4170 H4158 0.950 . S
C4170 C4169 1.398 . S
C4170 C4171 1.391 . S
C4171 H4159 0.950 . S
C4171 C4167 1.393 . S
C4171 C4170 1.391 . S
H4172 C4180 0.950 . S
H4173 C4185 0.950 . S
H4174 C4182 0.950 . S
H4175 C4184 0.950 . S
H4176 C4186 0.950 . S
H4177 C4188 0.950 . S
H4178 C4190 0.950 . S
H4179 C4191 0.950 . S
C4180 H4172 0.950 . S
C4180 C4181 1.386 . S
C4180 C4182 1.391 . S
C4181 C4180 1.386 . S
C4181 C4185 1.393 . S
C4182 H4174 0.950 . S
C4182 C4180 1.391 . S
C4182 C4183 1.400 . S
C4183 C4182 1.400 . S
C4183 C4184 1.398 . S
C4183 C4189 1.491 . S
C4184 H4175 0.950 . S
C4184 C4183 1.398 . S
C4184 C4185 1.391 . S
C4185 H4173 0.950 . S
C4185 C4181 1.393 . S
C4185 C4184 1.391 . S
C4186 H4176 0.950 . S
C4186 C4187 1.386 . S
C4186 C4188 1.391 . S
C4187 C4186 1.386 . S
C4187 C4191 1.393 . S
C4188 H4177 0.950 . S
C4188 C4186 1.391 . S
C4188 C4189 1.400 . S
C4189 C4183 1.491 . S
C4189 C4188 1.400 . S
C4189 C4190 1.398 . S
C4190 H4178 0.950 . S
C4190 C4189 1.398 . S
C4190 C4191 1.391 . S
C4191 H4179 0.950 . S
C4191 C4187 1.393 . S
C4191 C4190 1.391 . S
H4192 C4200 0.950 . S
H4193 C4205 0.950 . S
H4194 C4202 0.950 . S
H4195 C4204 0.950 . S
H4196 C4206 0.950 . S
H4197 C4208 0.950 . S
H4198 C4210 0.950 . S
H4199 C4211 0.950 . S
C4200 H4192 0.950 . S
C4200 C4201 1.386 . S
C4200 C4202 1.391 . S
C4201 C4200 1.386 . S
C4201 C4205 1.393 . S
C4202 H4194 0.950 . S
C4202 C4200 1.391 . S
C4202 C4203 1.400 . S
C4203 C4202 1.400 . S
C4203 C4204 1.398 . S
C4203 C4209 1.491 . S
C4204 H4195 0.950 . S
C4204 C4203 1.398 . S
C4204 C4205 1.391 . S
C4205 H4193 0.950 . S
C4205 C4201 1.393 . S
C4205 C4204 1.391 . S
C4206 H4196 0.950 . S
C4206 C4207 1.386 . S
C4206 C4208 1.391 . S
C4207 C4206 1.386 . S
C4207 C4211 1.393 . S
C4208 H4197 0.950 . S
C4208 C4206 1.391 . S
C4208 C4209 1.400 . S
C4209 C4203 1.491 . S
C4209 C4208 1.400 . S
C4209 C4210 1.398 . S
C4210 H4198 0.950 . S
C4210 C4209 1.398 . S
C4210 C4211 1.391 . S
C4211 H4199 0.950 . S
C4211 C4207 1.393 . S
C4211 C4210 1.391 . S
H4212 C4220 0.950 . S
H4213 C4225 0.950 . S
H4214 C4222 0.950 . S
H4215 C4224 0.950 . S
H4216 C4226 0.950 . S
H4217 C4228 0.950 . S
H4218 C4230 0.950 . S
H4219 C4231 0.950 . S
C4220 H4212 0.950 . S
C4220 C4221 1.386 . S
C4220 C4222 1.391 . S
C4221 C4220 1.386 . S
C4221 C4225 1.393 . S
C4222 H4214 0.950 . S
C4222 C4220 1.391 . S
C4222 C4223 1.400 . S
C4223 C4222 1.400 . S
C4223 C4224 1.398 . S
C4223 C4229 1.491 . S
C4224 H4215 0.950 . S
C4224 C4223 1.398 . S
C4224 C4225 1.391 . S
C4225 H4213 0.950 . S
C4225 C4221 1.393 . S
C4225 C4224 1.391 . S
C4226 H4216 0.950 . S
C4226 C4227 1.386 1_554 S
C4226 C4228 1.391 . S
C4227 C4226 1.386 1_556 S
C4227 C4231 1.393 . S
C4228 H4217 0.950 . S
C4228 C4226 1.391 . S
C4228 C4229 1.400 . S
C4229 C4223 1.491 . S
C4229 C4228 1.400 . S
C4229 C4230 1.398 1_554 S
C4230 H4218 0.950 . S
C4230 C4229 1.398 1_556 S
C4230 C4231 1.391 . S
C4231 H4219 0.950 . S
C4231 C4227 1.393 . S
C4231 C4230 1.391 . S
H4232 C4240 0.950 . S
H4233 C4245 0.950 . S
H4234 C4242 0.950 . S
H4235 C4244 0.950 . S
H4236 C4246 0.950 . S
H4237 C4248 0.950 . S
H4238 C4250 0.950 . S
H4239 C4251 0.950 . S
C4240 H4232 0.950 . S
C4240 C4241 1.386 . S
C4240 C4242 1.391 1_556 S
C4241 C4240 1.386 . S
C4241 C4245 1.393 . S
C4242 H4234 0.950 . S
C4242 C4240 1.391 1_554 S
C4242 C4243 1.400 . S
C4243 C4242 1.400 . S
C4243 C4244 1.398 . S
C4243 C4249 1.491 . S
C4244 H4235 0.950 . S
C4244 C4243 1.398 . S
C4244 C4245 1.391 1_554 S
C4245 H4233 0.950 . S
C4245 C4241 1.393 . S
C4245 C4244 1.391 1_556 S
C4246 H4236 0.950 . S
C4246 C4247 1.386 . S
C4246 C4248 1.391 . S
C4247 C4246 1.386 . S
C4247 C4251 1.393 . S
C4248 H4237 0.950 . S
C4248 C4246 1.391 . S
C4248 C4249 1.400 . S
C4249 C4243 1.491 . S
C4249 C4248 1.400 . S
C4249 C4250 1.398 . S
C4250 H4238 0.950 . S
C4250 C4249 1.398 . S
C4250 C4251 1.391 . S
C4251 H4239 0.950 . S
C4251 C4247 1.393 . S
C4251 C4250 1.391 . S
H4252 C4260 0.950 . S
H4253 C4265 0.950 . S
H4254 C4262 0.950 . S
H4255 C4264 0.950 . S
H4256 C4266 0.950 . S
H4257 C4268 0.954 . S
H4258 C4270 0.950 . S
H4259 C4271 0.950 . S
C4260 H4252 0.950 . S
C4260 C4261 1.386 . S
C4260 C4262 1.391 . S
C4261 C4260 1.386 . S
C4261 C4265 1.393 . S
C4262 H4254 0.950 . S
C4262 C4260 1.391 . S
C4262 C4263 1.400 . S
C4263 C4262 1.400 . S
C4263 C4264 1.398 . S
C4263 C4269 1.491 . S
C4264 H4255 0.950 . S
C4264 C4263 1.398 . S
C4264 C4265 1.391 . S
C4265 H4253 0.950 . S
C4265 C4261 1.393 . S
C4265 C4264 1.391 . S
C4266 H4256 0.950 . S
C4266 C4267 1.386 . S
C4266 C4268 1.408 . S
C4267 C4266 1.386 . S
C4267 C4271 1.393 1_556 S
C4268 H4257 0.954 . S
C4268 C4266 1.408 . S
C4268 C4269 1.380 1_556 S
C4269 C4263 1.491 . S
C4269 C4268 1.380 1_554 S
C4269 C4270 1.398 . S
C4270 H4258 0.950 . S
C4270 C4269 1.398 . S
C4270 C4271 1.391 . S
C4271 H4259 0.950 . S
C4271 C4267 1.393 1_554 S
C4271 C4270 1.391 . S
H4272 C4280 0.950 . S
H4273 C4285 0.950 . S
H4274 C4282 0.950 . S
H4275 C4284 0.950 . S
H4276 C4286 0.950 . S
H4277 C4288 0.950 . S
H4278 C4290 0.950 . S
H4279 C4291 0.950 . S
C4280 H4272 0.950 . S
C4280 C4281 1.386 1_655 S
C4280 C4282 1.391 . S
C4281 C4280 1.386 1_455 S
C4281 C4285 1.393 . S
C4282 H4274 0.950 . S
C4282 C4280 1.391 . S
C4282 C4283 1.400 . S
C4283 C4282 1.400 . S
C4283 C4284 1.398 1_655 S
C4283 C4289 1.491 . S
C4284 H4275 0.950 . S
C4284 C4283 1.398 1_455 S
C4284 C4285 1.391 . S
C4285 H4273 0.950 . S
C4285 C4281 1.393 . S
C4285 C4284 1.391 . S
C4286 H4276 0.950 . S
C4286 C4287 1.386 . S
C4286 C4288 1.391 . S
C4287 C4286 1.386 . S
C4287 C4291 1.393 . S
C4288 H4277 0.950 . S
C4288 C4286 1.391 . S
C4288 C4289 1.400 . S
C4289 C4283 1.491 . S
C4289 C4288 1.400 . S
C4289 C4290 1.398 . S
C4290 H4278 0.950 . S
C4290 C4289 1.398 . S
C4290 C4291 1.391 . S
C4291 H4279 0.950 . S
C4291 C4287 1.393 . S
C4291 C4290 1.391 . S
H4292 C4300 0.950 . S
H4293 C4305 0.950 . S
H4294 C4302 0.950 . S
H4295 C4304 0.950 . S
H4296 C4306 0.950 . S
H4297 C4308 0.950 1_545 S
H4298 C4310 0.950 . S
H4299 C4311 0.950 . S
C4300 H4292 0.950 . S
C4300 C4301 1.386 . S
C4300 C4302 1.391 . S
C4301 C4300 1.386 . S
C4301 C4305 1.393 . S
C4302 H4294 0.950 . S
C4302 C4300 1.391 . S
C4302 C4303 1.400 . S
C4303 C4302 1.400 . S
C4303 C4304 1.398 . S
C4303 C4309 1.491 . S
C4304 H4295 0.950 . S
C4304 C4303 1.398 . S
C4304 C4305 1.391 . S
C4305 H4293 0.950 . S
C4305 C4301 1.393 . S
C4305 C4304 1.391 . S
C4306 H4296 0.950 . S
C4306 C4307 1.386 . S
C4306 C4308 1.390 1_545 S
C4307 C4306 1.386 . S
C4307 C4311 1.393 1_545 S
C4308 H4297 0.950 1_565 S
C4308 C4306 1.390 1_565 S
C4308 C4309 1.401 . S
C4309 C4303 1.491 . S
C4309 C4308 1.401 . S
C4309 C4310 1.398 . S
C4310 H4298 0.950 . S
C4310 C4309 1.398 . S
C4310 C4311 1.391 . S
C4311 H4299 0.950 . S
C4311 C4307 1.393 1_565 S
C4311 C4310 1.391 . S
H4312 C4320 0.950 . S
H4313 C4325 0.950 . S
H4314 C4322 0.950 . S
H4315 C4324 0.950 . S
H4316 C4326 0.950 . S
H4317 C4328 0.950 . S
H4318 C4330 0.950 . S
H4319 C4331 0.950 . S
C4320 H4312 0.950 . S
C4320 C4321 1.386 . S
C4320 C4322 1.391 . S
C4321 C4320 1.386 . S
C4321 C4325 1.393 . S
C4322 H4314 0.950 . S
C4322 C4320 1.391 . S
C4322 C4323 1.400 . S
C4323 C4322 1.400 . S
C4323 C4324 1.398 . S
C4323 C4329 1.491 . S
C4324 H4315 0.950 . S
C4324 C4323 1.398 . S
C4324 C4325 1.391 . S
C4325 H4313 0.950 . S
C4325 C4321 1.393 . S
C4325 C4324 1.391 . S
C4326 H4316 0.950 . S
C4326 C4327 1.386 . S
C4326 C4328 1.391 . S
C4327 C4326 1.386 . S
C4327 C4331 1.393 . S
C4328 H4317 0.950 . S
C4328 C4326 1.391 . S
C4328 C4329 1.400 . S
C4329 C4323 1.491 . S
C4329 C4328 1.400 . S
C4329 C4330 1.398 . S
C4330 H4318 0.950 . S
C4330 C4329 1.398 . S
C4330 C4331 1.391 . S
C4331 H4319 0.950 . S
C4331 C4327 1.393 . S
C4331 C4330 1.391 . S
H4332 C4340 0.950 . S
H4333 C4345 0.950 . S
H4334 C4342 0.950 . S
H4335 C4344 0.950 . S
H4336 C4346 0.950 . S
H4337 C4348 0.950 . S
H4338 C4350 0.950 . S
H4339 C4351 0.950 . S
C4340 H4332 0.950 . S
C4340 C4341 1.386 . S
C4340 C4342 1.391 . S
C4341 C4340 1.386 . S
C4341 C4345 1.393 . S
C4342 H4334 0.950 . S
C4342 C4340 1.391 . S
C4342 C4343 1.400 . S
C4343 C4342 1.400 . S
C4343 C4344 1.398 . S
C4343 C4349 1.491 . S
C4344 H4335 0.950 . S
C4344 C4343 1.398 . S
C4344 C4345 1.391 . S
C4345 H4333 0.950 . S
C4345 C4341 1.393 . S
C4345 C4344 1.391 . S
C4346 H4336 0.950 . S
C4346 C4347 1.386 . S
C4346 C4348 1.391 . S
C4347 C4346 1.386 . S
C4347 C4351 1.393 . S
C4348 H4337 0.950 . S
C4348 C4346 1.391 . S
C4348 C4349 1.400 . S
C4349 C4343 1.491 . S
C4349 C4348 1.400 . S
C4349 C4350 1.398 . S
C4350 H4338 0.950 . S
C4350 C4349 1.398 . S
C4350 C4351 1.391 . S
C4351 H4339 0.950 . S
C4351 C4347 1.393 . S
C4351 C4350 1.391 . S
H4352 C4360 0.950 . S
H4353 C4365 0.950 . S
H4354 C4362 0.950 . S
H4355 C4364 0.950 . S
H4356 C4366 0.950 . S
H4357 C4368 0.950 . S
H4358 C4370 0.950 . S
H4359 C4371 0.950 . S
C4360 H4352 0.950 . S
C4360 C4361 1.386 . S
C4360 C4362 1.391 . S
C4361 C4360 1.386 . S
C4361 C4365 1.393 . S
C4362 H4354 0.950 . S
C4362 C4360 1.391 . S
C4362 C4363 1.400 . S
C4363 C4362 1.400 . S
C4363 C4364 1.398 . S
C4363 C4369 1.491 . S
C4364 H4355 0.950 . S
C4364 C4363 1.398 . S
C4364 C4365 1.391 . S
C4365 H4353 0.950 . S
C4365 C4361 1.393 . S
C4365 C4364 1.391 . S
C4366 H4356 0.950 . S
C4366 C4367 1.386 1_655 S
C4366 C4368 1.391 . S
C4367 C4366 1.386 1_455 S
C4367 C4371 1.393 . S
C4368 H4357 0.950 . S
C4368 C4366 1.391 . S
C4368 C4369 1.400 . S
C4369 C4363 1.491 . S
C4369 C4368 1.400 . S
C4369 C4370 1.398 1_655 S
C4370 H4358 0.950 . S
C4370 C4369 1.398 1_455 S
C4370 C4371 1.391 . S
C4371 H4359 0.950 . S
C4371 C4367 1.393 . S
C4371 C4370 1.391 . S
H4372 C4380 0.955 . S
H4373 C4385 0.950 . S
H4374 C4382 0.950 . S
H4375 C4384 0.950 . S
H4376 C4386 0.950 . S
H4377 C4388 0.950 . S
H4378 C4390 0.950 . S
H4379 C4391 0.950 . S
C4380 H4372 0.955 . S
C4380 C4381 1.398 . S
C4380 C4382 1.374 1_545 S
C4381 C4380 1.398 . S
C4381 C4385 1.393 . S
C4382 H4374 0.950 . S
C4382 C4380 1.374 1_565 S
C4382 C4383 1.400 . S
C4383 C4382 1.400 . S
C4383 C4384 1.398 . S
C4383 C4389 1.491 . S
C4384 H4375 0.950 . S
C4384 C4383 1.398 . S
C4384 C4385 1.391 1_565 S
C4385 H4373 0.950 . S
C4385 C4381 1.393 . S
C4385 C4384 1.391 1_545 S
C4386 H4376 0.950 . S
C4386 C4387 1.386 . S
C4386 C4388 1.391 . S
C4387 C4386 1.386 . S
C4387 C4391 1.393 . S
C4388 H4377 0.950 . S
C4388 C4386 1.391 . S
C4388 C4389 1.400 . S
C4389 C4383 1.491 . S
C4389 C4388 1.400 . S
C4389 C4390 1.398 . S
C4390 H4378 0.950 . S
C4390 C4389 1.398 . S
C4390 C4391 1.391 . S
C4391 H4379 0.950 . S
C4391 C4387 1.393 . S
C4391 C4390 1.391 . S
H4392 C4400 0.950 . S
H4393 C4405 0.950 . S
H4394 C4402 0.950 . S
H4395 C4404 0.950 . S
H4396 C4406 0.950 . S
H4397 C4408 0.950 . S
H4398 C4410 0.950 . S
H4399 C4411 0.950 . S
C4400 H4392 0.950 . S
C4400 C4401 1.386 . S
C4400 C4402 1.391 . S
C4401 C4400 1.386 . S
C4401 C4405 1.393 . S
C4402 H4394 0.950 . S
C4402 C4400 1.391 . S
C4402 C4403 1.400 . S
C4403 C4402 1.400 . S
C4403 C4404 1.398 . S
C4403 C4409 1.491 . S
C4404 H4395 0.950 . S
C4404 C4403 1.398 . S
C4404 C4405 1.391 . S
C4405 H4393 0.950 . S
C4405 C4401 1.393 . S
C4405 C4404 1.391 . S
C4406 H4396 0.950 . S
C4406 C4407 1.386 . S
C4406 C4408 1.391 . S
C4407 C4406 1.386 . S
C4407 C4411 1.393 . S
C4408 H4397 0.950 . S
C4408 C4406 1.391 . S
C4408 C4409 1.400 . S
C4409 C4403 1.491 . S
C4409 C4408 1.400 . S
C4409 C4410 1.398 . S
C4410 H4398 0.950 . S
C4410 C4409 1.398 . S
C4410 C4411 1.391 . S
C4411 H4399 0.950 . S
C4411 C4407 1.393 . S
C4411 C4410 1.391 . S
H4412 C4420 0.950 . S
H4413 C4425 0.950 . S
H4414 C4422 0.950 . S
H4415 C4424 0.950 . S
H4416 C4426 0.950 . S
H4417 C4428 0.950 . S
H4418 C4430 0.950 . S
H4419 C4431 0.950 . S
C4420 H4412 0.950 . S
C4420 C4421 1.386 . S
C4420 C4422 1.391 . S
C4421 C4420 1.386 . S
C4421 C4425 1.393 . S
C4422 H4414 0.950 . S
C4422 C4420 1.391 . S
C4422 C4423 1.400 . S
C4423 C4422 1.400 . S
C4423 C4424 1.398 . S
C4423 C4429 1.491 . S
C4424 H4415 0.950 . S
C4424 C4423 1.398 . S
C4424 C4425 1.391 . S
C4425 H4413 0.950 . S
C4425 C4421 1.393 . S
C4425 C4424 1.391 . S
C4426 H4416 0.950 . S
C4426 C4427 1.386 . S
C4426 C4428 1.391 . S
C4427 C4426 1.386 . S
C4427 C4431 1.393 . S
C4428 H4417 0.950 . S
C4428 C4426 1.391 . S
C4428 C4429 1.400 . S
C4429 C4423 1.491 . S
C4429 C4428 1.400 . S
C4429 C4430 1.398 . S
C4430 H4418 0.950 . S
C4430 C4429 1.398 . S
C4430 C4431 1.391 . S
C4431 H4419 0.950 . S
C4431 C4427 1.393 . S
C4431 C4430 1.391 . S
H4432 C4440 0.950 . S
H4433 C4445 0.950 . S
H4434 C4442 0.950 . S
H4435 C4444 0.950 . S
H4436 C4446 0.950 . S
H4437 C4448 0.950 . S
H4438 C4450 0.950 . S
H4439 C4451 0.950 . S
C4440 H4432 0.950 . S
C4440 C4441 1.386 . S
C4440 C4442 1.391 . S
C4441 C4440 1.386 . S
C4441 C4445 1.393 . S
C4442 H4434 0.950 . S
C4442 C4440 1.391 . S
C4442 C4443 1.400 . S
C4443 C4442 1.400 . S
C4443 C4444 1.398 . S
C4443 C4449 1.491 . S
C4444 H4435 0.950 . S
C4444 C4443 1.398 . S
C4444 C4445 1.391 . S
C4445 H4433 0.950 . S
C4445 C4441 1.393 . S
C4445 C4444 1.391 . S
C4446 H4436 0.950 . S
C4446 C4447 1.386 1_565 S
C4446 C4448 1.391 . S
C4447 C4446 1.386 1_545 S
C4447 C4451 1.393 . S
C4448 H4437 0.950 . S
C4448 C4446 1.391 . S
C4448 C4449 1.400 . S
C4449 C4443 1.491 . S
C4449 C4448 1.400 . S
C4449 C4450 1.398 1_565 S
C4450 H4438 0.950 . S
C4450 C4449 1.398 1_545 S
C4450 C4451 1.391 . S
C4451 H4439 0.950 . S
C4451 C4447 1.393 . S
C4451 C4450 1.391 . S
H4452 C4460 0.950 . S
H4453 C4465 0.950 . S
H4454 C4462 0.950 . S
H4455 C4464 0.950 . S
H4456 C4466 0.950 . S
H4457 C4468 0.950 . S
H4458 C4470 0.950 . S
H4459 C4471 0.950 . S
C4460 H4452 0.950 . S
C4460 C4461 1.386 . S
C4460 C4462 1.391 . S
C4461 C4460 1.386 . S
C4461 C4465 1.393 . S
C4462 H4454 0.950 . S
C4462 C4460 1.391 . S
C4462 C4463 1.400 . S
C4463 C4462 1.400 . S
C4463 C4464 1.398 . S
C4463 C4469 1.491 . S
C4464 H4455 0.950 . S
C4464 C4463 1.398 . S
C4464 C4465 1.391 . S
C4465 H4453 0.950 . S
C4465 C4461 1.393 . S
C4465 C4464 1.391 . S
C4466 H4456 0.950 . S
C4466 C4467 1.386 . S
C4466 C4468 1.391 . S
C4467 C4466 1.386 . S
C4467 C4471 1.393 . S
C4468 H4457 0.950 . S
C4468 C4466 1.391 . S
C4468 C4469 1.400 . S
C4469 C4463 1.491 . S
C4469 C4468 1.400 . S
C4469 C4470 1.398 . S
C4470 H4458 0.950 . S
C4470 C4469 1.398 . S
C4470 C4471 1.391 . S
C4471 H4459 0.950 . S
C4471 C4467 1.393 . S
C4471 C4470 1.391 . S
H4472 C4480 0.950 . S
H4473 C4485 0.950 . S
H4474 C4482 0.950 . S
H4475 C4484 0.950 . S
H4476 C4486 0.950 . S
H4477 C4488 0.950 . S
H4478 C4490 0.950 . S
H4479 C4491 0.950 . S
C4480 H4472 0.950 . S
C4480 C4481 1.386 . S
C4480 C4482 1.391 . S
C4481 C4480 1.386 . S
C4481 C4485 1.393 . S
C4482 H4474 0.950 . S
C4482 C4480 1.391 . S
C4482 C4483 1.400 . S
C4483 C4482 1.400 . S
C4483 C4484 1.398 . S
C4483 C4489 1.491 . S
C4484 H4475 0.950 . S
C4484 C4483 1.398 . S
C4484 C4485 1.391 . S
C4485 H4473 0.950 . S
C4485 C4481 1.393 . S
C4485 C4484 1.391 . S
C4486 H4476 0.950 . S
C4486 C4487 1.386 . S
C4486 C4488 1.391 . S
C4487 C4486 1.386 . S
C4487 C4491 1.393 . S
C4488 H4477 0.950 . S
C4488 C4486 1.391 . S
C4488 C4489 1.400 . S
C4489 C4483 1.491 . S
C4489 C4488 1.400 . S
C4489 C4490 1.398 . S
C4490 H4478 0.950 . S
C4490 C4489 1.398 . S
C4490 C4491 1.391 . S
C4491 H4479 0.950 . S
C4491 C4487 1.393 . S
C4491 C4490 1.391 . S
H4492 C4500 0.950 . S
H4493 C4505 0.950 . S
H4494 C4502 0.944 1_455 S
H4495 C4504 0.950 . S
H4496 C4506 0.950 . S
H4497 C4508 0.950 . S
H4498 C4510 0.950 . S
H4499 C4511 0.950 . S
C4500 H4492 0.950 . S
C4500 C4501 1.386 . S
C4500 C4502 1.370 1_455 S
C4501 C4500 1.386 . S
C4501 C4505 1.393 1_455 S
C4502 H4494 0.944 1_655 S
C4502 C4500 1.370 1_655 S
C4502 C4503 1.426 . S
C4503 C4502 1.426 . S
C4503 C4504 1.398 . S
C4503 C4509 1.491 . S
C4504 H4495 0.950 . S
C4504 C4503 1.398 . S
C4504 C4505 1.391 . S
C4505 H4493 0.950 . S
C4505 C4501 1.393 1_655 S
C4505 C4504 1.391 . S
C4506 H4496 0.950 . S
C4506 C4507 1.386 . S
C4506 C4508 1.391 . S
C4507 C4506 1.386 . S
C4507 C4511 1.393 . S
C4508 H4497 0.950 . S
C4508 C4506 1.391 . S
C4508 C4509 1.400 . S
C4509 C4503 1.491 . S
C4509 C4508 1.400 . S
C4509 C4510 1.398 . S
C4510 H4498 0.950 . S
C4510 C4509 1.398 . S
C4510 C4511 1.391 . S
C4511 H4499 0.950 . S
C4511 C4507 1.393 . S
C4511 C4510 1.391 . S
H4512 C4520 0.950 . S
H4513 C4525 0.950 . S
H4514 C4522 0.950 . S
H4515 C4524 0.950 . S
H4516 C4526 0.950 . S
H4517 C4528 0.950 . S
H4518 C4530 0.950 . S
H4519 C4531 0.950 . S
C4520 H4512 0.950 . S
C4520 C4521 1.386 . S
C4520 C4522 1.391 . S
C4521 C4520 1.386 . S
C4521 C4525 1.393 . S
C4522 H4514 0.950 . S
C4522 C4520 1.391 . S
C4522 C4523 1.400 . S
C4523 C4522 1.400 . S
C4523 C4524 1.398 . S
C4523 C4529 1.491 . S
C4524 H4515 0.950 . S
C4524 C4523 1.398 . S
C4524 C4525 1.391 . S
C4525 H4513 0.950 . S
C4525 C4521 1.393 . S
C4525 C4524 1.391 . S
C4526 H4516 0.950 . S
C4526 C4527 1.386 . S
C4526 C4528 1.391 . S
C4527 C4526 1.386 . S
C4527 C4531 1.393 . S
C4528 H4517 0.950 . S
C4528 C4526 1.391 . S
C4528 C4529 1.400 . S
C4529 C4523 1.491 . S
C4529 C4528 1.400 . S
C4529 C4530 1.398 . S
C4530 H4518 0.950 . S
C4530 C4529 1.398 . S
C4530 C4531 1.391 . S
C4531 H4519 0.950 . S
C4531 C4527 1.393 . S
C4531 C4530 1.391 . S
H4532 C4540 0.950 . S
H4533 C4545 0.950 . S
H4534 C4542 0.950 . S
H4535 C4544 0.950 . S
H4536 C4546 0.950 . S
H4537 C4548 0.950 . S
H4538 C4550 0.950 . S
H4539 C4551 0.950 . S
C4540 H4532 0.950 . S
C4540 C4541 1.386 . S
C4540 C4542 1.391 1_455 S
C4541 C4540 1.386 . S
C4541 C4545 1.393 1_455 S
C4542 H4534 0.950 . S
C4542 C4540 1.391 1_655 S
C4542 C4543 1.400 . S
C4543 C4542 1.400 . S
C4543 C4544 1.398 . S
C4543 C4549 1.491 . S
C4544 H4535 0.950 . S
C4544 C4543 1.398 . S
C4544 C4545 1.391 . S
C4545 H4533 0.950 . S
C4545 C4541 1.393 1_655 S
C4545 C4544 1.391 . S
C4546 H4536 0.950 . S
C4546 C4547 1.386 . S
C4546 C4548 1.391 . S
C4547 C4546 1.386 . S
C4547 C4551 1.393 . S
C4548 H4537 0.950 . S
C4548 C4546 1.391 . S
C4548 C4549 1.400 . S
C4549 C4543 1.491 . S
C4549 C4548 1.400 . S
C4549 C4550 1.398 . S
C4550 H4538 0.950 . S
C4550 C4549 1.398 . S
C4550 C4551 1.391 . S
C4551 H4539 0.950 . S
C4551 C4547 1.393 . S
C4551 C4550 1.391 . S
H4552 C4560 0.950 . S
H4553 C4565 0.950 . S
H4554 C4562 0.950 . S
H4555 C4564 0.950 . S
H4556 C4566 0.950 . S
H4557 C4568 0.950 . S
H4558 C4570 0.950 . S
H4559 C4571 0.950 . S
C4560 H4552 0.950 . S
C4560 C4561 1.386 1_565 S
C4560 C4562 1.391 . S
C4561 C4560 1.386 1_545 S
C4561 C4565 1.393 . S
C4562 H4554 0.950 . S
C4562 C4560 1.391 . S
C4562 C4563 1.400 . S
C4563 C4562 1.400 . S
C4563 C4564 1.398 . S
C4563 C4569 1.491 . S
C4564 H4555 0.950 . S
C4564 C4563 1.398 . S
C4564 C4565 1.391 1_565 S
C4565 H4553 0.950 . S
C4565 C4561 1.393 . S
C4565 C4564 1.391 1_545 S
C4566 H4556 0.950 . S
C4566 C4567 1.386 . S
C4566 C4568 1.391 . S
C4567 C4566 1.386 . S
C4567 C4571 1.393 . S
C4568 H4557 0.950 . S
C4568 C4566 1.391 . S
C4568 C4569 1.400 . S
C4569 C4563 1.491 . S
C4569 C4568 1.400 . S
C4569 C4570 1.398 . S
C4570 H4558 0.950 . S
C4570 C4569 1.398 . S
C4570 C4571 1.391 . S
C4571 H4559 0.950 . S
C4571 C4567 1.393 . S
C4571 C4570 1.391 . S
H4572 C4580 0.950 . S
H4573 C4585 0.950 . S
H4574 C4582 0.950 . S
H4575 C4584 0.950 . S
H4576 C4586 0.950 . S
H4577 C4588 0.950 . S
H4578 C4590 0.950 . S
H4579 C4591 0.950 . S
C4580 H4572 0.950 . S
C4580 C4581 1.386 . S
C4580 C4582 1.391 . S
C4581 C4580 1.386 . S
C4581 C4585 1.393 . S
C4582 H4574 0.950 . S
C4582 C4580 1.391 . S
C4582 C4583 1.400 . S
C4583 C4582 1.400 . S
C4583 C4584 1.398 . S
C4583 C4589 1.491 . S
C4584 H4575 0.950 . S
C4584 C4583 1.398 . S
C4584 C4585 1.391 . S
C4585 H4573 0.950 . S
C4585 C4581 1.393 . S
C4585 C4584 1.391 . S
C4586 H4576 0.950 . S
C4586 C4587 1.386 . S
C4586 C4588 1.391 . S
C4587 C4586 1.386 . S
C4587 C4591 1.393 . S
C4588 H4577 0.950 . S
C4588 C4586 1.391 . S
C4588 C4589 1.400 . S
C4589 C4583 1.491 . S
C4589 C4588 1.400 . S
C4589 C4590 1.398 . S
C4590 H4578 0.950 . S
C4590 C4589 1.398 . S
C4590 C4591 1.391 . S
C4591 H4579 0.950 . S
C4591 C4587 1.393 . S
C4591 C4590 1.391 . S
H4592 C4600 0.950 . S
H4593 C4605 0.950 . S
H4594 C4602 0.950 . S
H4595 C4604 0.950 . S
H4596 C4606 0.950 . S
H4597 C4608 0.950 . S
H4598 C4610 0.950 . S
H4599 C4611 0.950 . S
C4600 H4592 0.950 . S
C4600 C4601 1.386 1_556 S
C4600 C4602 1.391 . S
C4601 C4600 1.386 1_554 S
C4601 C4605 1.393 . S
C4602 H4594 0.950 . S
C4602 C4600 1.391 . S
C4602 C4603 1.400 . S
C4603 C4602 1.400 . S
C4603 C4604 1.398 1_556 S
C4603 C4609 1.491 . S
C4604 H4595 0.950 . S
C4604 C4603 1.398 1_554 S
C4604 C4605 1.391 . S
C4605 H4593 0.950 . S
C4605 C4601 1.393 . S
C4605 C4604 1.391 . S
C4606 H4596 0.950 . S
C4606 C4607 1.386 . S
C4606 C4608 1.391 . S
C4607 C4606 1.386 . S
C4607 C4611 1.393 . S
C4608 H4597 0.950 . S
C4608 C4606 1.391 . S
C4608 C4609 1.400 . S
C4609 C4603 1.491 . S
C4609 C4608 1.400 . S
C4609 C4610 1.398 . S
C4610 H4598 0.950 . S
C4610 C4609 1.398 . S
C4610 C4611 1.391 . S
C4611 H4599 0.950 . S
C4611 C4607 1.393 . S
C4611 C4610 1.391 . S
H4612 C4620 0.950 . S
H4613 C4625 0.950 . S
H4614 C4622 0.950 . S
H4615 C4624 0.950 . S
H4616 C4626 0.950 . S
H4617 C4628 0.950 . S
H4618 C4630 0.950 . S
H4619 C4631 0.950 . S
C4620 H4612 0.950 . S
C4620 C4621 1.386 . S
C4620 C4622 1.391 . S
C4621 C4620 1.386 . S
C4621 C4625 1.393 . S
C4622 H4614 0.950 . S
C4622 C4620 1.391 . S
C4622 C4623 1.400 . S
C4623 C4622 1.400 . S
C4623 C4624 1.398 . S
C4623 C4629 1.491 . S
C4624 H4615 0.950 . S
C4624 C4623 1.398 . S
C4624 C4625 1.391 . S
C4625 H4613 0.950 . S
C4625 C4621 1.393 . S
C4625 C4624 1.391 . S
C4626 H4616 0.950 . S
C4626 C4627 1.386 . S
C4626 C4628 1.391 . S
C4627 C4626 1.386 . S
C4627 C4631 1.393 . S
C4628 H4617 0.950 . S
C4628 C4626 1.391 . S
C4628 C4629 1.400 . S
C4629 C4623 1.491 . S
C4629 C4628 1.400 . S
C4629 C4630 1.398 . S
C4630 H4618 0.950 . S
C4630 C4629 1.398 . S
C4630 C4631 1.391 . S
C4631 H4619 0.950 . S
C4631 C4627 1.393 . S
C4631 C4630 1.391 . S
H4632 C4640 0.950 . S
H4633 C4645 0.950 . S
H4634 C4642 0.950 . S
H4635 C4644 0.950 . S
H4636 C4646 0.950 . S
H4637 C4648 0.950 . S
H4638 C4650 0.950 . S
H4639 C4651 0.950 . S
C4640 H4632 0.950 . S
C4640 C4641 1.386 . S
C4640 C4642 1.391 . S
C4641 C4640 1.386 . S
C4641 C4645 1.393 . S
C4642 H4634 0.950 . S
C4642 C4640 1.391 . S
C4642 C4643 1.400 . S
C4643 C4642 1.400 . S
C4643 C4644 1.398 . S
C4643 C4649 1.491 . S
C4644 H4635 0.950 . S
C4644 C4643 1.398 . S
C4644 C4645 1.391 . S
C4645 H4633 0.950 . S
C4645 C4641 1.393 . S
C4645 C4644 1.391 . S
C4646 H4636 0.950 . S
C4646 C4647 1.386 . S
C4646 C4648 1.391 . S
C4647 C4646 1.386 . S
C4647 C4651 1.393 . S
C4648 H4637 0.950 . S
C4648 C4646 1.391 . S
C4648 C4649 1.400 . S
C4649 C4643 1.491 . S
C4649 C4648 1.400 . S
C4649 C4650 1.398 . S
C4650 H4638 0.950 . S
C4650 C4649 1.398 . S
C4650 C4651 1.391 . S
C4651 H4639 0.950 . S
C4651 C4647 1.393 . S
C4651 C4650 1.391 . S
H4652 C4660 0.950 . S
H4653 C4665 0.950 . S
H4654 C4662 0.950 . S
H4655 C4664 0.950 . S
H4656 C4666 0.950 . S
H4657 C4668 0.950 . S
H4658 C4670 0.950 . S
H4659 C4671 0.950 . S
C4660 H4652 0.950 . S
C4660 C4661 1.386 . S
C4660 C4662 1.391 . S
C4661 C4660 1.386 . S
C4661 C4665 1.393 . S
C4662 H4654 0.950 . S
C4662 C4660 1.391 . S
C4662 C4663 1.400 . S
C4663 C4662 1.400 . S
C4663 C4664 1.398 . S
C4663 C4669 1.491 . S
C4664 H4655 0.950 . S
C4664 C4663 1.398 . S
C4664 C4665 1.391 . S
C4665 H4653 0.950 . S
C4665 C4661 1.393 . S
C4665 C4664 1.391 . S
C4666 H4656 0.950 . S
C4666 C4667 1.386 . S
C4666 C4668 1.391 . S
C4667 C4666 1.386 . S
C4667 C4671 1.393 . S
C4668 H4657 0.950 . S
C4668 C4666 1.391 . S
C4668 C4669 1.400 . S
C4669 C4663 1.491 . S
C4669 C4668 1.400 . S
C4669 C4670 1.398 . S
C4670 H4658 0.950 . S
C4670 C4669 1.398 . S
C4670 C4671 1.391 . S
C4671 H4659 0.950 . S
C4671 C4667 1.393 . S
C4671 C4670 1.391 . S
H4672 C4680 0.950 . S
H4673 C4685 0.950 . S
H4674 C4682 0.950 . S
H4675 C4684 0.950 . S
H4676 C4686 0.950 . S
H4677 C4688 0.950 . S
H4678 C4690 0.950 . S
H4679 C4691 0.950 . S
C4680 H4672 0.950 . S
C4680 C4681 1.386 . S
C4680 C4682 1.391 . S
C4681 C4680 1.386 . S
C4681 C4685 1.393 . S
C4682 H4674 0.950 . S
C4682 C4680 1.391 . S
C4682 C4683 1.400 . S
C4683 C4682 1.400 . S
C4683 C4684 1.398 . S
C4683 C4689 1.491 . S
C4684 H4675 0.950 . S
C4684 C4683 1.398 . S
C4684 C4685 1.391 . S
C4685 H4673 0.950 . S
C4685 C4681 1.393 . S
C4685 C4684 1.391 . S
C4686 H4676 0.950 . S
C4686 C4687 1.386 . S
C4686 C4688 1.391 . S
C4687 C4686 1.386 . S
C4687 C4691 1.393 . S
C4688 H4677 0.950 . S
C4688 C4686 1.391 . S
C4688 C4689 1.400 . S
C4689 C4683 1.491 . S
C4689 C4688 1.400 . S
C4689 C4690 1.398 . S
C4690 H4678 0.950 . S
C4690 C4689 1.398 . S
C4690 C4691 1.391 . S
C4691 H4679 0.950 . S
C4691 C4687 1.393 . S
C4691 C4690 1.391 . S
H4692 C4700 0.950 . S
H4693 C4705 0.950 . S
H4694 C4702 0.961 . S
H4695 C4704 0.950 . S
H4696 C4706 0.950 . S
H4697 C4708 0.950 . S
H4698 C4710 0.950 . S
H4699 C4711 0.950 . S
C4700 H4692 0.950 . S
C4700 C4701 1.386 . S
C4700 C4702 1.427 . S
C4701 C4700 1.386 . S
C4701 C4705 1.393 1_554 S
C4702 H4694 0.961 . S
C4702 C4700 1.427 . S
C4702 C4703 1.357 1_554 S
C4703 C4702 1.357 1_556 S
C4703 C4704 1.398 . S
C4703 C4709 1.491 . S
C4704 H4695 0.950 . S
C4704 C4703 1.398 . S
C4704 C4705 1.391 . S
C4705 H4693 0.950 . S
C4705 C4701 1.393 1_556 S
C4705 C4704 1.391 . S
C4706 H4696 0.950 . S
C4706 C4707 1.386 . S
C4706 C4708 1.391 . S
C4707 C4706 1.386 . S
C4707 C4711 1.393 . S
C4708 H4697 0.950 . S
C4708 C4706 1.391 . S
C4708 C4709 1.400 . S
C4709 C4703 1.491 . S
C4709 C4708 1.400 . S
C4709 C4710 1.398 . S
C4710 H4698 0.950 . S
C4710 C4709 1.398 . S
C4710 C4711 1.391 . S
C4711 H4699 0.950 . S
C4711 C4707 1.393 . S
C4711 C4710 1.391 . S
H4712 C4720 0.950 . S
H4713 C4725 0.950 . S
H4714 C4722 0.950 . S
H4715 C4724 0.950 . S
H4716 C4726 0.950 . S
H4717 C4728 0.950 . S
H4718 C4730 0.954 . S
H4719 C4731 0.950 . S
C4720 H4712 0.950 . S
C4720 C4721 1.386 . S
C4720 C4722 1.391 . S
C4721 C4720 1.386 . S
C4721 C4725 1.393 . S
C4722 H4714 0.950 . S
C4722 C4720 1.391 . S
C4722 C4723 1.400 . S
C4723 C4722 1.400 . S
C4723 C4724 1.398 . S
C4723 C4729 1.491 . S
C4724 H4715 0.950 . S
C4724 C4723 1.398 . S
C4724 C4725 1.391 . S
C4725 H4713 0.950 . S
C4725 C4721 1.393 . S
C4725 C4724 1.391 . S
C4726 H4716 0.950 . S
C4726 C4727 1.386 1_556 S
C4726 C4728 1.391 . S
C4727 C4726 1.386 1_554 S
C4727 C4731 1.393 . S
C4728 H4717 0.950 . S
C4728 C4726 1.391 . S
C4728 C4729 1.400 . S
C4729 C4723 1.491 . S
C4729 C4728 1.400 . S
C4729 C4730 1.398 . S
C4730 H4718 0.954 . S
C4730 C4729 1.398 . S
C4730 C4731 1.391 1_556 S
C4731 H4719 0.950 . S
C4731 C4727 1.393 . S
C4731 C4730 1.391 1_554 S
H4732 C4740 0.950 . S
H4733 C4745 0.950 . S
H4734 C4742 0.950 . S
H4735 C4744 0.950 . S
H4736 C4746 0.950 . S
H4737 C4748 0.950 . S
H4738 C4750 0.950 . S
H4739 C4751 0.950 . S
C4740 H4732 0.950 . S
C4740 C4741 1.386 . S
C4740 C4742 1.391 . S
C4741 C4740 1.386 . S
C4741 C4745 1.393 . S
C4742 H4734 0.950 . S
C4742 C4740 1.391 . S
C4742 C4743 1.400 . S
C4743 C4742 1.400 . S
C4743 C4744 1.398 . S
C4743 C4749 1.491 . S
C4744 H4735 0.950 . S
C4744 C4743 1.398 . S
C4744 C4745 1.391 . S
C4745 H4733 0.950 . S
C4745 C4741 1.393 . S
C4745 C4744 1.391 . S
C4746 H4736 0.950 . S
C4746 C4747 1.386 1_556 S
C4746 C4748 1.391 . S
C4747 C4746 1.386 1_554 S
C4747 C4751 1.393 . S
C4748 H4737 0.950 . S
C4748 C4746 1.391 . S
C4748 C4749 1.400 . S
C4749 C4743 1.491 . S
C4749 C4748 1.400 . S
C4749 C4750 1.398 1_556 S
C4750 H4738 0.950 . S
C4750 C4749 1.398 1_554 S
C4750 C4751 1.391 . S
C4751 H4739 0.950 . S
C4751 C4747 1.393 . S
C4751 C4750 1.391 . S
C1401 C5 2.744 . S
C1407 C643 2.744 . S
C1421 C469 2.745 . S
C1427 C34 2.744 . S
C1441 C63 2.744 . S
C1447 C672 2.745 . S
C1461 C92 2.758 . S
C1467 C614 2.765 . S
C1481 C121 2.744 . S
C1487 C527 2.745 . S
C1501 C556 2.764 . S
C1507 C150 2.753 . S
C1521 C585 2.764 . S
C1527 C179 2.762 . S
C1541 C498 2.743 . S
C1547 C208 2.747 . S
C1561 C237 2.743 . S
C1567 C382 2.753 . S
C1581 C266 2.755 . S
C1587 C411 2.743 . S
C1601 C295 2.742 . S
C1607 C440 2.752 . S
C1621 C353 2.745 . S
C1627 C324 2.743 . S
C1641 C701 2.742 . S
C1647 C1339 2.751 . S
C1661 C730 2.743 . S
C1667 C1165 2.746 . S
C1681 C759 2.763 . S
C1687 C1368 2.764 . S
C1701 C788 2.753 . S
C1707 C1310 2.764 . S
C1721 C1223 2.759 . S
C1727 C817 2.765 . S
C1741 C1252 2.761 . S
C1747 C846 2.765 . S
C1761 C1281 2.761 . S
C1767 C875 2.748 . S
C1781 C904 2.743 . S
C1787 C1194 2.746 . S
C1801 C1078 2.758 . S
C1807 C933 2.765 . S
C1821 C962 2.747 . S
C1827 C1107 2.760 . S
C1841 C1136 2.747 . S
C1847 C991 2.760 . S
C1861 C1020 2.749 . S
C1867 C1049 2.762 . S
C1881 C21 1.792 . S
C1887 C1315 1.833 . S
C1901 C50 1.787 . S
C1907 C1344 1.837 . S
C1921 C1170 1.831 . S
C1927 C79 1.794 . S
C1941 C108 1.787 . S
C1947 C1373 1.836 . S
C1961 C1257 1.831 . S
C1967 C137 1.793 . S
C1981 C166 1.794 . S
C1987 C1286 1.831 . S
C2001 C195 1.793 . S
C2007 C1199 1.833 . S
C2021 C224 1.778 . S
C2027 C1228 1.841 . S
C2041 C822 1.835 . S
C2047 C253 1.790 . S
C2061 C851 1.843 . S
C2067 C282 1.774 . S
C2081 C311 1.774 . S
C2087 C880 1.841 . S
C2101 C909 1.834 . S
C2107 C340 1.790 . S
C2121 C369 1.781 . S
C2127 C706 1.837 . S
C2141 C735 1.830 . S
C2147 C398 1.795 . S
C2161 C427 1.773 . S
C2167 C764 1.843 . S
C2181 C793 1.838 . S
C2187 C456 1.780 . S
C2201 C1112 1.831 . S
C2207 C485 1.795 . S
C2221 C514 1.789 . S
C2227 C996 1.833 . S
C2241 C543 1.781 . S
C2247 C1025 1.837 . S
C2261 C572 1.781 . S
C2267 C938 1.837 . S
C2281 C601 1.779 . S
C2287 C967 1.838 . S
C2301 C1054 1.842 . S
C2307 C630 1.777 . S
C2321 C659 1.785 . S
C2327 C1083 1.837 . S
C2341 C1141 1.843 . S
C2347 C688 1.773 . S
C2361 C619 1.831 . S
C2367 C717 1.795 . S
C2381 C648 1.830 . S
C2387 C746 1.795 . S
C2401 C474 1.832 . S
C2407 C775 1.794 . S
C2421 C804 1.792 . S
C2427 C677 1.831 . S
C2441 C833 1.780 . S
C2447 C561 1.840 . S
C2461 C590 1.830 . S
C2467 C862 1.795 . S
C2481 C891 1.781 . S
C2487 C503 1.837 . S
C2501 C532 1.842 . S
C2507 C920 1.775 . S
C2521 C949 1.788 . S
C2527 C126 1.836 . S
C2541 C155 1.841 . S
C2547 C978 1.778 . S
C2561 C1007 1.788 . S
C2567 C184 1.836 . S
C2581 C1036 1.775 . S
C2587 C213 1.842 . S
C2601 C10 1.842 . S
C2607 C1065 1.774 . S
C2621 C1094 1.780 . S
C2627 C39 1.840 . S
C2641 C68 1.843 . S
C2647 C1123 1.773 . S
C2661 C1152 1.790 . S
C2667 C97 1.834 . S
C2681 C1181 1.795 . S
C2687 C416 1.830 . S
C2701 C300 1.843 . S
C2707 C1210 1.773 . S
C2721 C1239 1.794 . S
C2727 C329 1.832 . S
C2741 C242 1.843 . S
C2747 C1268 1.773 . S
C2761 C1297 1.795 . S
C2767 C271 1.831 . S
C2781 C358 1.843 . S
C2787 C1326 1.773 . S
C2801 C387 1.831 . S
C2807 C1355 1.794 . S
C2821 C445 1.838 . S
C2827 C1384 1.785 . S
C2841 C3 1.708 . S
C2847 C680 1.485 . S
C2861 C622 1.447 . S
C2867 C32 1.711 . S
C2881 C651 1.485 . S
C2887 C61 1.708 . S
C2901 C477 1.460 . S
C2907 C90 1.708 . S
C2921 C119 1.708 . S
C2927 C593 1.485 . S
C2941 C148 1.711 . S
C2947 C506 1.447 . S
C2961 C177 1.713 . S
C2967 C535 1.467 . S
C2981 C564 1.473 . S
C2987 C206 1.713 . S
C3001 C332 1.483 . S
C3007 C235 1.710 . S
C3021 C245 1.466 . S
C3027 C264 1.714 . S
C3041 C293 1.707 . S
C3047 C274 1.477 . S
C3061 C303 1.486 . S
C3067 C322 1.709 . S
C3081 C351 1.708 . S
C3087 C390 1.485 . S
C3101 C380 1.708 . S
C3107 C419 1.485 . S
C3121 C409 1.710 . S
C3127 C448 1.448 . S
C3141 C438 1.713 . S
C3147 C361 1.472 . S
C3161 C467 1.708 . S
C3167 C158 1.484 . S
C3181 C100 1.467 . S
C3187 C496 1.713 . S
C3201 C13 1.486 . S
C3207 C525 1.709 . S
C3221 C554 1.714 . S
C3227 C42 1.466 . S
C3241 C71 1.466 . S
C3247 C583 1.714 . S
C3261 C216 1.456 . S
C3267 C612 1.709 . S
C3281 C641 1.714 . S
C3287 C129 1.458 . S
C3301 C187 1.483 . S
C3307 C670 1.710 . S
C3321 C699 1.713 . S
C3327 C1376 1.441 . S
C3341 C728 1.709 . S
C3347 C1318 1.456 . S
C3361 C1347 1.455 . S
C3367 C757 1.709 . S
C3381 C1173 1.441 . S
C3387 C786 1.713 . S
C3401 C815 1.709 . S
C3407 C1289 1.486 . S
C3421 C1202 1.483 . S
C3427 C844 1.708 . S
C3441 C873 1.713 . S
C3447 C1231 1.441 . S
C3461 C1260 1.442 . S
C3467 C902 1.712 . S
C3481 C931 1.710 . S
C3487 C1028 1.483 . S
C3501 C941 1.454 . S
C3507 C960 1.714 . S
C3521 C989 1.710 . S
C3527 C970 1.483 . S
C3541 C999 1.467 . S
C3547 C1018 1.713 . S
C3561 C1047 1.708 . S
C3567 C1086 1.485 . S
C3581 C1115 1.462 . S
C3587 C1076 1.714 . S
C3601 C1144 1.462 . S
C3607 C1105 1.714 . S
C3621 C1057 1.472 . S
C3627 C1134 1.713 . S
C3641 C854 1.485 . S
C3647 C1163 1.710 . S
C3661 C796 1.484 . S
C3667 C1192 1.708 . S
C3681 C709 1.464 . S
C3687 C1221 1.708 . S
C3701 C738 1.449 . S
C3707 C1250 1.714 . S
C3721 C767 1.441 . S
C3727 C1279 1.713 . S
C3741 C1308 1.709 . S
C3747 C912 1.486 . S
C3761 C1337 1.714 . S
C3767 C825 1.466 . S
C3781 C883 1.485 . S
C3787 C1366 1.708 . S
C3801 C1023 0.873 . S
C3807 C15 0.928 . S
C3821 C936 0.867 . S
C3827 C44 0.925 . S
C3841 C965 0.848 . S
C3847 C73 0.916 . S
C3861 C102 0.916 . S
C3867 C994 0.849 . S
C3881 C131 0.924 . S
C3887 C1081 0.864 . S
C3901 C160 0.916 . S
C3907 C1110 0.850 . S
C3921 C189 0.918 . S
C3927 C1139 0.853 . S
C3941 C1052 0.905 . S
C3947 C218 0.941 . S
C3961 C849 0.852 . S
C3967 C247 0.918 . S
C3981 C276 0.917 . S
C3987 C878 0.850 . S
C4001 C907 0.883 . S
C4007 C305 0.931 . S
C4021 C334 0.927 . S
C4027 C820 0.871 . S
C4041 C363 0.926 . S
C4047 C791 0.868 . S
C4061 C392 0.943 . S
C4067 C704 0.908 . S
C4081 C733 0.887 . S
C4087 C421 0.934 . S
C4101 C762 0.914 . S
C4107 C450 0.946 . S
C4121 C479 0.936 . S
C4127 C1371 0.895 . S
C4141 C1284 0.854 . S
C4147 C508 0.919 . S
C4161 C537 0.916 . S
C4167 C1197 0.850 . S
C4181 C1226 0.898 . S
C4187 C566 0.939 . S
C4201 C1255 0.887 . S
C4207 C595 0.932 . S
C4221 C624 0.930 . S
C4227 C1342 0.878 . S
C4241 C1168 0.852 . S
C4247 C653 0.918 . S
C4261 C682 0.916 . S
C4267 C1313 0.849 . S
C4281 C327 0.880 . S
C4287 C711 0.931 . S
C4301 C740 0.946 . S
C4307 C240 0.914 . S
C4321 C769 0.928 . S
C4327 C269 0.873 . S
C4341 C298 0.878 . S
C4347 C798 0.930 . S
C4361 C827 0.920 . S
C4367 C385 0.858 . S
C4381 C414 0.913 . S
C4387 C856 0.945 . S
C4401 C443 0.877 . S
C4407 C885 0.930 . S
C4421 C356 0.867 . S
C4427 C914 0.925 . S
C4441 C943 0.917 . S
C4447 C153 0.852 . S
C4461 C182 0.886 . S
C4467 C972 0.932 . S
C4481 C211 0.913 . S
C4487 C1001 0.946 . S
C4501 C124 0.902 . S
C4507 C1030 0.940 . S
C4521 C95 0.895 . S
C4527 C1059 0.936 . S
C4541 C8 0.907 . S
C4547 C1088 0.942 . S
C4561 C37 0.914 . S
C4567 C1117 0.946 . S
C4581 C1146 0.917 . S
C4587 C66 0.852 . S
C4601 C675 0.885 . S
C4607 C1175 0.933 . S
C4621 C1204 0.918 . S
C4627 C588 0.852 . S
C4641 C1233 0.916 . S
C4647 C501 0.850 . S
C4661 C1262 0.925 . S
C4667 C530 0.872 . S
C4681 C1291 0.916 . S
C4687 C559 0.850 . S
C4701 C646 0.850 . S
C4707 C1320 0.916 . S
C4721 C1349 0.916 . S
C4727 C472 0.848 . S
C4741 C1378 0.932 . S
C4747 C617 0.885 . S
