# Generated by pormake.
# Topology uoy, (4)-cn, num edge types: 1
# Building blocks:
#     Node 0, Type 0, BuildingBlock: ICAMEG_clean_sbu_1, # of connection points: 4
#     Node 1, Type 0, BuildingBlock: ICAMEG_clean_sbu_1, # of connection points: 4
#     Node 2, Type 0, BuildingBlock: ICAMEG_clean_sbu_1, # of connection points: 4
#     Node 3, Type 0, BuildingBlock: ICAMEG_clean_sbu_1, # of connection points: 4
#     Node 4, Type 0, BuildingBlock: ICAMEG_clean_sbu_1, # of connection points: 4
#     Node 5, Type 0, BuildingBlock: ICAMEG_clean_sbu_1, # of connection points: 4
#     Node 6, Type 0, BuildingBlock: ICAMEG_clean_sbu_1, # of connection points: 4
#     Node 7, Type 0, BuildingBlock: ICAMEG_clean_sbu_1, # of connection points: 4
#     Node 8, Type 0, BuildingBlock: ICAMEG_clean_sbu_1, # of connection points: 4
#     Node 9, Type 0, BuildingBlock: ICAMEG_clean_sbu_1, # of connection points: 4
#     Node 10, Type 0, BuildingBlock: ICAMEG_clean_sbu_1, # of connection points: 4
#     Node 11, Type 0, BuildingBlock: ICAMEG_clean_sbu_1, # of connection points: 4
#     Node 12, Type 0, BuildingBlock: ICAMEG_clean_sbu_1, # of connection points: 4
#     Node 13, Type 0, BuildingBlock: ICAMEG_clean_sbu_1, # of connection points: 4
#     Node 14, Type 0, BuildingBlock: ICAMEG_clean_sbu_1, # of connection points: 4
#     Node 15, Type 0, BuildingBlock: ICAMEG_clean_sbu_1, # of connection points: 4
#     Edge 16, Type (0, 0), BuildingBlock: UVAHIK_clean_linker_0, # of connection points: 2
#     Edge 17, Type (0, 0), BuildingBlock: UVAHIK_clean_linker_0, # of connection points: 2
#     Edge 18, Type (0, 0), BuildingBlock: UVAHIK_clean_linker_0, # of connection points: 2
#     Edge 19, Type (0, 0), BuildingBlock: UVAHIK_clean_linker_0, # of connection points: 2
#     Edge 20, Type (0, 0), BuildingBlock: UVAHIK_clean_linker_0, # of connection points: 2
#     Edge 21, Type (0, 0), BuildingBlock: UVAHIK_clean_linker_0, # of connection points: 2
#     Edge 22, Type (0, 0), BuildingBlock: UVAHIK_clean_linker_0, # of connection points: 2
#     Edge 23, Type (0, 0), BuildingBlock: UVAHIK_clean_linker_0, # of connection points: 2
#     Edge 24, Type (0, 0), BuildingBlock: UVAHIK_clean_linker_0, # of connection points: 2
#     Edge 25, Type (0, 0), BuildingBlock: UVAHIK_clean_linker_0, # of connection points: 2
#     Edge 26, Type (0, 0), BuildingBlock: UVAHIK_clean_linker_0, # of connection points: 2
#     Edge 27, Type (0, 0), BuildingBlock: UVAHIK_clean_linker_0, # of connection points: 2
#     Edge 28, Type (0, 0), BuildingBlock: UVAHIK_clean_linker_0, # of connection points: 2
#     Edge 29, Type (0, 0), BuildingBlock: UVAHIK_clean_linker_0, # of connection points: 2
#     Edge 30, Type (0, 0), BuildingBlock: UVAHIK_clean_linker_0, # of connection points: 2
#     Edge 31, Type (0, 0), BuildingBlock: UVAHIK_clean_linker_0, # of connection points: 2
#     Edge 32, Type (0, 0), BuildingBlock: UVAHIK_clean_linker_0, # of connection points: 2
#     Edge 33, Type (0, 0), BuildingBlock: UVAHIK_clean_linker_0, # of connection points: 2
#     Edge 34, Type (0, 0), BuildingBlock: UVAHIK_clean_linker_0, # of connection points: 2
#     Edge 35, Type (0, 0), BuildingBlock: UVAHIK_clean_linker_0, # of connection points: 2
#     Edge 36, Type (0, 0), BuildingBlock: UVAHIK_clean_linker_0, # of connection points: 2
#     Edge 37, Type (0, 0), BuildingBlock: UVAHIK_clean_linker_0, # of connection points: 2
#     Edge 38, Type (0, 0), BuildingBlock: UVAHIK_clean_linker_0, # of connection points: 2
#     Edge 39, Type (0, 0), BuildingBlock: UVAHIK_clean_linker_0, # of connection points: 2
#     Edge 40, Type (0, 0), BuildingBlock: UVAHIK_clean_linker_0, # of connection points: 2
#     Edge 41, Type (0, 0), BuildingBlock: UVAHIK_clean_linker_0, # of connection points: 2
#     Edge 42, Type (0, 0), BuildingBlock: UVAHIK_clean_linker_0, # of connection points: 2
#     Edge 43, Type (0, 0), BuildingBlock: UVAHIK_clean_linker_0, # of connection points: 2
#     Edge 44, Type (0, 0), BuildingBlock: UVAHIK_clean_linker_0, # of connection points: 2
#     Edge 45, Type (0, 0), BuildingBlock: UVAHIK_clean_linker_0, # of connection points: 2
#     Edge 46, Type (0, 0), BuildingBlock: UVAHIK_clean_linker_0, # of connection points: 2
#     Edge 47, Type (0, 0), BuildingBlock: UVAHIK_clean_linker_0, # of connection points: 2
# Relax obj value: 0.022
# Max RMSD: 0.077
# Mean RMSD: 0.077
data_MOF--net-uoy--node1-ICAMEG_clean_sbu_1--edge1-UVAHIK_clean_linker_0
_symmetry_space_group_name_H-M    P1
_symmetry_Int_Tables_number       1
_symmetry_cell_setting            triclinic
loop_
_symmetry_equiv_pos_as_xyz
'x, y, z'
_cell_length_a     36.937916
_cell_length_b     36.936732
_cell_length_c     149.63193
_cell_angle_alpha  90.01897
_cell_angle_beta   89.992233
_cell_angle_gamma 90.005099
loop_
_atom_site_label
_atom_site_type_symbol
_atom_site_fract_x
_atom_site_fract_y
_atom_site_fract_z
_atom_type_partial_charge
Co0 Co 0.28049 0.15367 0.1874 0.0
Co1 Co 0.2615 0.06646 0.19306 0.0
O2 O 0.24924 0.11095 0.18656 0.0
C3 C 0.26995 0.14976 0.16763 0.0
O4 O 0.27895 0.11537 0.16777 0.0
C5 C 0.1827 0.07511 0.19704 0.0
O6 O 0.18827 0.10942 0.19888 0.0
O7 O 0.26193 0.09372 0.20456 0.0
O8 O 0.29368 0.14199 0.20006 0.0
H9 H 0.32981 0.99242 0.21562 0.0
H10 H 0.20459 0.16234 0.18145 0.0
O11 O 0.26818 0.16776 0.17486 0.0
H12 H 0.21583 0.23884 0.20833 0.0
H13 H 0.314 0.28426 0.18228 0.0
H14 H 0.35401 0.16714 0.19462 0.0
H15 H 0.2683 0.20455 0.20266 0.0
H16 H 0.27416 0.23076 0.18157 0.0
O17 O 0.20888 0.05502 0.19461 0.0
H18 H 0.31482 0.04761 0.20713 0.0
H19 H 0.23263 0.99095 0.19304 0.0
H20 H 0.39456 0.22004 0.19555 0.0
H21 H 0.15148 0.1965 0.18683 0.0
H22 H 0.37462 0.27913 0.18935 0.0
H23 H 0.15691 0.23501 0.20038 0.0
O24 O 0.32233 0.12457 0.183 0.0
H25 H 0.21116 0.03162 0.16308 0.0
H26 H 0.3119 0.0141 0.18426 0.0
H27 H 0.31285 0.98231 0.16977 0.0
H28 H 0.26217 0.99091 0.15907 0.0
H29 H 0.21148 0.06319 0.17761 0.0
H30 H 0.24655 0.93522 0.20143 0.0
H31 H 0.29555 0.93569 0.21279 0.0
O32 O 0.31465 0.07556 0.19163 0.0
C33 C 0.281 0.12175 0.20622 0.0
C34 C 0.30845 0.99185 0.21068 0.0
C35 C 0.26169 0.95976 0.20272 0.0
N36 N 0.27297 0.0225 0.19957 0.0
C37 C 0.29987 0.02301 0.20583 0.0
C38 C 0.25385 0.99144 0.19801 0.0
C39 C 0.28919 0.96004 0.20909 0.0
C40 C 0.20722 0.17928 0.18731 0.0
N41 N 0.23952 0.18151 0.19172 0.0
C42 C 0.17703 0.19846 0.19034 0.0
C43 C 0.18008 0.22002 0.19795 0.0
C44 C 0.21312 0.22215 0.20242 0.0
C45 C 0.24271 0.20257 0.19919 0.0
C46 C 0.32299 0.25866 0.18501 0.0
C47 C 0.34507 0.19278 0.19194 0.0
C48 C 0.3006 0.22824 0.1846 0.0
N49 N 0.31169 0.19586 0.18808 0.0
C50 C 0.36818 0.22263 0.19247 0.0
C51 C 0.35699 0.25577 0.18898 0.0
C52 C 0.33381 0.09524 0.18647 0.0
C53 C 0.23334 0.02757 0.1677 0.0
C54 C 0.28978 0.01808 0.17963 0.0
C55 C 0.29044 0.99994 0.17145 0.0
C56 C 0.26199 0.00477 0.16545 0.0
N57 N 0.26155 0.04037 0.1818 0.0
C58 C 0.2336 0.04527 0.17595 0.0
Co59 Co 0.85117 0.78623 0.43798 0.0
Co60 Co 0.93575 0.76002 0.44415 0.0
O61 O 0.89132 0.7516 0.43726 0.0
C62 C 0.85578 0.77554 0.41818 0.0
O63 O 0.89076 0.78184 0.41843 0.0
C64 C 0.92173 0.68129 0.44747 0.0
O65 O 0.88738 0.68829 0.44891 0.0
O66 O 0.90703 0.7612 0.45543 0.0
O67 O 0.86264 0.7978 0.45076 0.0
H68 H 0.01121 0.82077 0.46774 0.0
H69 H 0.83708 0.71147 0.43177 0.0
O70 O 0.83726 0.77553 0.42534 0.0
H71 H 0.75885 0.72784 0.45817 0.0
H72 H 0.72426 0.83045 0.43224 0.0
H73 H 0.84297 0.86022 0.4454 0.0
H74 H 0.79784 0.77758 0.45288 0.0
H75 H 0.77442 0.78647 0.43169 0.0
O76 O 0.94352 0.70667 0.44545 0.0
H77 H 0.95625 0.81034 0.45876 0.0
H78 H 0.00922 0.72629 0.44446 0.0
H79 H 0.79344 0.90486 0.44618 0.0
H80 H 0.79818 0.6611 0.43677 0.0
H81 H 0.73356 0.89009 0.43956 0.0
H82 H 0.75878 0.6691 0.45008 0.0
O83 O 0.88406 0.82583 0.43389 0.0
H84 H 0.97076 0.71034 0.41412 0.0
H85 H 0.99268 0.80743 0.43609 0.0
H86 H 0.02632 0.80752 0.42186 0.0
H87 H 0.0155 0.75867 0.41076 0.0
H88 H 0.93742 0.7115 0.42841 0.0
H89 H 0.06467 0.73561 0.45334 0.0
H90 H 0.06594 0.78325 0.46506 0.0
O91 O 0.93056 0.81374 0.443 0.0
C92 C 0.88059 0.78253 0.45699 0.0
C93 C 0.01101 0.79998 0.46264 0.0
C94 C 0.041 0.75215 0.45457 0.0
N95 N 0.97953 0.76783 0.45106 0.0
C96 C 0.97998 0.79398 0.45752 0.0
C97 C 0.00948 0.74692 0.44958 0.0
C98 C 0.0417 0.77889 0.46114 0.0
C99 C 0.81978 0.71524 0.43752 0.0
N100 N 0.81969 0.74745 0.44201 0.0
C101 C 0.79791 0.68659 0.44034 0.0
C102 C 0.77585 0.69108 0.44781 0.0
C103 C 0.7759 0.72401 0.45236 0.0
C104 C 0.79814 0.75205 0.44935 0.0
C105 C 0.75022 0.83721 0.43515 0.0
C106 C 0.81697 0.85353 0.44253 0.0
C107 C 0.77878 0.81246 0.43483 0.0
N108 N 0.81159 0.82072 0.43853 0.0
C109 C 0.78904 0.87895 0.44298 0.0
C110 C 0.75545 0.87066 0.43926 0.0
C111 C 0.91354 0.83481 0.43773 0.0
C112 C 0.97578 0.73171 0.41891 0.0
C113 C 0.98772 0.78613 0.43129 0.0
C114 C 0.00692 0.78629 0.42325 0.0
C115 C 1.00085 0.75886 0.41703 0.0
N116 N 0.96321 0.75937 0.43309 0.0
C117 C 0.95709 0.73243 0.42702 0.0
Co118 Co 0.22169 0.3464 0.68778 0.0
Co119 Co 0.24532 0.43215 0.69368 0.0
O120 O 0.25487 0.38768 0.6869 0.0
C121 C 0.23094 0.3511 0.66796 0.0
O122 O 0.22359 0.38588 0.66827 0.0
C123 C 0.3244 0.42063 0.69704 0.0
O124 O 0.31824 0.38632 0.69875 0.0
O125 O 0.24523 0.40405 0.70505 0.0
O126 O 0.21045 0.35785 0.70059 0.0
H127 H 0.18299 0.5071 0.71712 0.0
H128 H 0.29653 0.33477 0.68133 0.0
O129 O 0.2321 0.33257 0.67512 0.0
H130 H 0.28443 0.25684 0.70792 0.0
H131 H 0.18161 0.21788 0.68237 0.0
H132 H 0.14848 0.3358 0.69548 0.0
H133 H 0.23304 0.29387 0.70274 0.0
H134 H 0.22375 0.26955 0.68159 0.0
O135 O 0.29846 0.4415 0.69486 0.0
H136 H 0.19478 0.45198 0.7083 0.0
H137 H 0.27692 0.50658 0.6937 0.0
H138 H 0.10566 0.28474 0.69649 0.0
H139 H 0.34854 0.29786 0.68623 0.0
H140 H 0.12213 0.22526 0.6899 0.0
H141 H 0.34268 0.25862 0.69963 0.0
O142 O 0.18071 0.37774 0.68378 0.0
H143 H 0.29318 0.46711 0.66347 0.0
H144 H 0.19596 0.48711 0.68552 0.0
H145 H 0.19445 0.51993 0.67118 0.0
H146 H 0.24336 0.51008 0.66004 0.0
H147 H 0.29343 0.43455 0.67786 0.0
H148 H 0.26622 0.56221 0.70243 0.0
H149 H 0.21886 0.56275 0.71421 0.0
O150 O 0.19179 0.4253 0.69265 0.0
C151 C 0.22493 0.37693 0.70673 0.0
C152 C 0.20366 0.50723 0.712 0.0
C153 C 0.25041 0.53814 0.70376 0.0
N154 N 0.23643 0.47605 0.70047 0.0
C155 C 0.21042 0.4761 0.70697 0.0
C156 C 0.25642 0.50651 0.69886 0.0
C157 C 0.22382 0.53843 0.71036 0.0
C158 C 0.2937 0.31753 0.68713 0.0
N159 N 0.26176 0.31641 0.69172 0.0
C160 C 0.32327 0.29679 0.68989 0.0
C161 C 0.31998 0.27481 0.69741 0.0
C162 C 0.28732 0.27383 0.70207 0.0
C163 C 0.25834 0.29495 0.69912 0.0
C164 C 0.17412 0.24366 0.68527 0.0
C165 C 0.1559 0.30998 0.69262 0.0
C166 C 0.19783 0.27306 0.68482 0.0
N167 N 0.18864 0.30566 0.68851 0.0
C168 C 0.13152 0.28117 0.6932 0.0
C169 C 0.14076 0.24781 0.6895 0.0
C170 C 0.17102 0.40717 0.68754 0.0
C171 C 0.27177 0.47171 0.66828 0.0
C172 C 0.2173 0.48257 0.6807 0.0
C173 C 0.21633 0.50131 0.6726 0.0
C174 C 0.24378 0.49578 0.66636 0.0
N175 N 0.24487 0.45904 0.68254 0.0
C176 C 0.27185 0.45345 0.67645 0.0
Co177 Co 0.65794 0.7262 0.93769 0.0
Co178 Co 0.57108 0.74644 0.94342 0.0
O179 O 0.61564 0.75801 0.93686 0.0
C180 C 0.65426 0.73623 0.91788 0.0
O181 O 0.61993 0.72696 0.91798 0.0
C182 C 0.58101 0.82511 0.94732 0.0
O183 O 0.61528 0.81901 0.9491 0.0
O184 O 0.5985 0.74574 0.9549 0.0
O185 O 0.64625 0.71329 0.95037 0.0
H186 H 0.49642 0.67937 0.9661 0.0
H187 H 0.66755 0.80194 0.9317 0.0
O188 O 0.67206 0.73828 0.92514 0.0
H189 H 0.74429 0.78988 0.9585 0.0
H190 H 0.78797 0.69087 0.93245 0.0
H191 H 0.67053 0.6526 0.94496 0.0
H192 H 0.70921 0.73784 0.95289 0.0
H193 H 0.73501 0.73141 0.93177 0.0
O194 O 0.56042 0.79922 0.94495 0.0
H195 H 0.55168 0.69351 0.95754 0.0
H196 H 0.496 0.77639 0.94346 0.0
H197 H 0.72289 0.61136 0.94586 0.0
H198 H 0.70252 0.85462 0.93702 0.0
H199 H 0.78214 0.63042 0.93957 0.0
H200 H 0.74115 0.84879 0.95053 0.0
O201 O 0.62821 0.68469 0.93335 0.0
H202 H 0.53659 0.79693 0.91344 0.0
H203 H 0.51784 0.69672 0.93471 0.0
H204 H 0.48581 0.69609 0.92026 0.0
H205 H 0.49504 0.7465 0.90951 0.0
H206 H 0.56837 0.79631 0.92794 0.0
H207 H 0.44021 0.76333 0.95192 0.0
H208 H 0.44015 0.71442 0.96331 0.0
O209 O 0.57942 0.69317 0.94201 0.0
C210 C 0.62629 0.72633 0.95654 0.0
C211 C 0.49608 0.7007 0.96114 0.0
C212 C 0.46455 0.74785 0.95319 0.0
N213 N 0.52706 0.73564 0.94998 0.0
C214 C 0.52728 0.70879 0.95626 0.0
C215 C 0.49626 0.75519 0.94844 0.0
C216 C 0.46453 0.72039 0.95958 0.0
C217 C 0.68455 0.79913 0.93754 0.0
N218 N 0.68639 0.76684 0.94196 0.0
C219 C 0.70418 0.82908 0.94054 0.0
C220 C 0.72581 0.8258 0.94813 0.0
C221 C 0.72756 0.79277 0.95261 0.0
C222 C 0.70753 0.76342 0.94942 0.0
C223 C 0.7623 0.68226 0.93522 0.0
C224 C 0.69625 0.66116 0.94223 0.0
C225 C 0.73218 0.70506 0.93482 0.0
N226 N 0.69972 0.69445 0.93835 0.0
C227 C 0.72579 0.63766 0.94275 0.0
C228 C 0.75902 0.64836 0.93922 0.0
C229 C 0.59878 0.67364 0.93686 0.0
C230 C 0.53227 0.77487 0.91807 0.0
C231 C 0.52209 0.71872 0.93006 0.0
C232 C 0.50381 0.71824 0.9219 0.0
C233 C 0.50899 0.74654 0.91587 0.0
N234 N 0.54483 0.74664 0.93218 0.0
C235 C 0.55008 0.77444 0.92631 0.0
Co236 Co 0.28069 0.35017 0.06578 0.0
Co237 Co 0.26185 0.43737 0.06011 0.0
O238 O 0.24947 0.3929 0.06661 0.0
C239 C 0.27028 0.35357 0.08558 0.0
O240 O 0.28 0.38778 0.08554 0.0
C241 C 0.18305 0.42878 0.05614 0.0
O242 O 0.18859 0.39445 0.05433 0.0
O243 O 0.26227 0.41009 0.04861 0.0
O244 O 0.29409 0.36192 0.05313 0.0
H245 H 0.3304 0.51127 0.03755 0.0
H246 H 0.20469 0.3415 0.07165 0.0
O247 O 0.26812 0.33597 0.07829 0.0
H248 H 0.21632 0.26512 0.04476 0.0
H249 H 0.31404 0.21953 0.07087 0.0
H250 H 0.3543 0.3367 0.0586 0.0
H251 H 0.26871 0.29937 0.05048 0.0
H252 H 0.27424 0.27304 0.07157 0.0
O253 O 0.20926 0.44888 0.05856 0.0
H254 H 0.31528 0.45612 0.04605 0.0
H255 H 0.23309 0.51291 0.06012 0.0
H256 H 0.39483 0.28378 0.05769 0.0
H257 H 0.15165 0.30738 0.06621 0.0
H258 H 0.37477 0.22467 0.06385 0.0
H259 H 0.15728 0.26893 0.05266 0.0
O260 O 0.32249 0.37924 0.07021 0.0
H261 H 0.21153 0.4722 0.0901 0.0
H262 H 0.31227 0.48972 0.0689 0.0
H263 H 0.31323 0.5215 0.08339 0.0
H264 H 0.26255 0.5129 0.0941 0.0
H265 H 0.21183 0.44064 0.07556 0.0
H266 H 0.24714 0.56861 0.05172 0.0
H267 H 0.2962 0.56804 0.04037 0.0
O268 O 0.31498 0.42818 0.06156 0.0
C269 C 0.28137 0.38208 0.04696 0.0
C270 C 0.30901 0.51188 0.0425 0.0
C271 C 0.26225 0.54404 0.05044 0.0
N272 N 0.27343 0.4813 0.0536 0.0
C273 C 0.30036 0.48074 0.04734 0.0
C274 C 0.25434 0.51239 0.05515 0.0
C275 C 0.28979 0.54371 0.04407 0.0
C276 C 0.2074 0.32458 0.06579 0.0
N277 N 0.23977 0.32237 0.06141 0.0
C278 C 0.17726 0.30543 0.06272 0.0
C279 C 0.18042 0.2839 0.05511 0.0
C280 C 0.21353 0.28178 0.05067 0.0
C281 C 0.24308 0.30134 0.05393 0.0
C282 C 0.32309 0.24514 0.06816 0.0
C283 C 0.34531 0.31105 0.06127 0.0
C284 C 0.30071 0.27557 0.06856 0.0
N285 N 0.31188 0.30796 0.06511 0.0
C286 C 0.36841 0.28119 0.06075 0.0
C287 C 0.35715 0.24803 0.06422 0.0
C288 C 0.33405 0.40854 0.06674 0.0
C289 C 0.23371 0.47626 0.08548 0.0
C290 C 0.29015 0.48574 0.07353 0.0
C291 C 0.29082 0.50388 0.08172 0.0
C292 C 0.26237 0.49905 0.08772 0.0
N293 N 0.26191 0.46347 0.07137 0.0
C294 C 0.23396 0.45856 0.07723 0.0
Co295 Co 0.65693 0.77996 0.31603 0.0
Co296 Co 0.56969 0.76081 0.31043 0.0
O297 O 0.61419 0.74878 0.31695 0.0
C298 C 0.65351 0.7708 0.33586 0.0
O299 O 0.61938 0.78076 0.33578 0.0
C300 C 0.5783 0.68193 0.30656 0.0
O301 O 0.61254 0.68751 0.30465 0.0
O302 O 0.59691 0.76083 0.29892 0.0
O303 O 0.64521 0.7927 0.30334 0.0
H304 H 0.49557 0.82831 0.28773 0.0
H305 H 0.6655 0.70424 0.32212 0.0
O306 O 0.67109 0.76802 0.32858 0.0
H307 H 0.74201 0.71451 0.29523 0.0
H308 H 0.78754 0.81358 0.32107 0.0
H309 H 0.67045 0.85318 0.30863 0.0
H310 H 0.70779 0.76721 0.30079 0.0
H311 H 0.73401 0.77382 0.32187 0.0
O312 O 0.55825 0.70814 0.309 0.0
H313 H 0.55079 0.81362 0.29624 0.0
H314 H 0.49419 0.73195 0.31053 0.0
H315 H 0.72338 0.89364 0.3076 0.0
H316 H 0.69959 0.65091 0.31684 0.0
H317 H 0.78246 0.87391 0.31385 0.0
H318 H 0.73811 0.65585 0.30329 0.0
O319 O 0.62787 0.822 0.32033 0.0
H320 H 0.53511 0.71167 0.34054 0.0
H321 H 0.51734 0.81152 0.31912 0.0
H322 H 0.48566 0.81304 0.33361 0.0
H323 H 0.49439 0.76281 0.34444 0.0
H324 H 0.56656 0.71141 0.32599 0.0
H325 H 0.43843 0.74557 0.30212 0.0
H326 H 0.43885 0.79415 0.29064 0.0
O327 O 0.57881 0.81401 0.31174 0.0
C328 C 0.62496 0.77979 0.29721 0.0
C329 C 0.49502 0.80712 0.29272 0.0
C330 C 0.46296 0.76066 0.30079 0.0
N331 N 0.52571 0.77206 0.3039 0.0
C332 C 0.5262 0.79873 0.29758 0.0
C333 C 0.49466 0.753 0.30551 0.0
C334 C 0.46322 0.78793 0.29436 0.0
C335 C 0.68245 0.70665 0.31626 0.0
N336 N 0.68472 0.73881 0.31179 0.0
C337 C 0.70158 0.67635 0.31328 0.0
C338 C 0.72314 0.67912 0.30567 0.0
C339 C 0.72532 0.71202 0.30114 0.0
C340 C 0.70578 0.74174 0.30431 0.0
C341 C 0.76195 0.82248 0.31832 0.0
C342 C 0.69609 0.84433 0.31133 0.0
C343 C 0.73151 0.80013 0.31878 0.0
N344 N 0.69915 0.8111 0.31527 0.0
C345 C 0.72596 0.86739 0.31074 0.0
C346 C 0.75909 0.85632 0.31426 0.0
C347 C 0.59853 0.83336 0.31684 0.0
C348 C 0.531 0.73366 0.33587 0.0
C349 C 0.52137 0.7896 0.3238 0.0
C350 C 0.50329 0.79058 0.33199 0.0
C351 C 0.50819 0.76238 0.33806 0.0
N352 N 0.54366 0.76129 0.32169 0.0
C353 C 0.54864 0.73359 0.32761 0.0
Co354 Co 0.22139 0.15624 0.56528 0.0
Co355 Co 0.24273 0.06985 0.55939 0.0
O356 O 0.25376 0.11433 0.56603 0.0
C357 C 0.23158 0.15214 0.58508 0.0
O358 O 0.22268 0.11771 0.58492 0.0
C359 C 0.32146 0.08065 0.55565 0.0
O360 O 0.31527 0.11505 0.55404 0.0
O361 O 0.24187 0.09766 0.54797 0.0
O362 O 0.20858 0.14471 0.55257 0.0
H363 H 0.17667 0.99527 0.53651 0.0
H364 H 0.297 0.16678 0.57128 0.0
O365 O 0.23336 0.17017 0.57785 0.0
H366 H 0.2838 0.24399 0.5446 0.0
H367 H 0.18437 0.28563 0.57076 0.0
H368 H 0.14761 0.16807 0.55805 0.0
H369 H 0.23228 0.20801 0.55015 0.0
H370 H 0.2256 0.23319 0.57134 0.0
O371 O 0.29561 0.05975 0.55786 0.0
H372 H 0.19017 0.05039 0.54518 0.0
H373 H 0.27341 0.99507 0.55921 0.0
H374 H 0.10568 0.2199 0.55724 0.0
H375 H 0.34916 0.20265 0.56601 0.0
H376 H 0.12397 0.27922 0.56364 0.0
H377 H 0.34275 0.24153 0.55256 0.0
O378 O 0.18031 0.12584 0.56958 0.0
H379 H 0.29331 0.03493 0.58933 0.0
H380 H 0.19353 0.01575 0.56795 0.0
H381 H 0.19314 0.98322 0.58233 0.0
H382 H 0.24334 0.99266 0.59313 0.0
H383 H 0.29246 0.0672 0.57489 0.0
H384 H 0.261 0.93942 0.55063 0.0
H385 H 0.21223 0.93926 0.5392 0.0
O386 O 0.18935 0.07756 0.56079 0.0
C387 C 0.22203 0.12518 0.54637 0.0
C388 C 0.19794 0.99498 0.54148 0.0
C389 C 0.2453 0.96365 0.5494 0.0
N390 N 0.23245 0.02594 0.55273 0.0
C391 C 0.20567 0.0261 0.54643 0.0
C392 C 0.25228 0.99528 0.55422 0.0
C393 C 0.21792 0.96357 0.54299 0.0
C394 C 0.29394 0.18388 0.56547 0.0
N395 N 0.26162 0.18535 0.56104 0.0
C396 C 0.32359 0.20402 0.5625 0.0
C397 C 0.31999 0.22579 0.55494 0.0
C398 C 0.28694 0.22716 0.55047 0.0
C399 C 0.25789 0.20662 0.55362 0.0
C400 C 0.17609 0.25994 0.56795 0.0
C401 C 0.15584 0.19382 0.56081 0.0
C402 C 0.19928 0.2301 0.56828 0.0
N403 N 0.18909 0.19761 0.5647 0.0
C404 C 0.13195 0.22306 0.56035 0.0
C405 C 0.14222 0.25632 0.56395 0.0
C406 C 0.1696 0.09642 0.566 0.0
C407 C 0.27135 0.03051 0.58467 0.0
C408 C 0.21543 0.0201 0.57262 0.0
C409 C 0.21509 1.00153 0.58075 0.0
C410 C 0.24328 0.00683 0.5868 0.0
N411 N 0.2431 0.04324 0.57057 0.0
C412 C 0.27078 0.04861 0.57647 0.0
Co413 Co 0.84957 0.72486 0.81546 0.0
Co414 Co 0.93465 0.74949 0.80926 0.0
O415 O 0.89038 0.75869 0.81615 0.0
C416 C 0.85469 0.73503 0.83526 0.0
O417 O 0.88949 0.72785 0.83496 0.0
C418 C 0.92167 0.82829 0.80588 0.0
O419 O 0.88727 0.82159 0.80441 0.0
O420 O 0.90598 0.74852 0.79797 0.0
O421 O 0.86065 0.71313 0.80267 0.0
H422 H 0.00929 0.68719 0.78575 0.0
H423 H 0.83701 0.79982 0.82173 0.0
O424 O 0.83606 0.73574 0.82812 0.0
H425 H 0.75822 0.78523 0.79537 0.0
H426 H 0.72187 0.68315 0.82131 0.0
H427 H 0.83978 0.65109 0.80802 0.0
H428 H 0.79627 0.73468 0.8006 0.0
H429 H 0.77292 0.7261 0.82183 0.0
O430 O 0.94319 0.8027 0.80791 0.0
H431 H 0.95446 0.69859 0.79471 0.0
H432 H 0.00859 0.78218 0.80891 0.0
H433 H 0.78933 0.60746 0.80727 0.0
H434 H 0.79907 0.85099 0.81678 0.0
H435 H 0.72986 0.62339 0.81395 0.0
H436 H 0.75939 0.84388 0.80349 0.0
O437 O 0.88171 0.68457 0.81951 0.0
H438 H 0.97037 0.79906 0.83925 0.0
H439 H 0.99078 0.70131 0.81737 0.0
H440 H 0.02435 0.70088 0.8316 0.0
H441 H 0.0143 0.75007 0.84266 0.0
H442 H 0.93707 0.79824 0.82496 0.0
H443 H 0.06392 0.77189 0.80005 0.0
H444 H 0.06455 0.724 0.78839 0.0
O445 O 0.92861 0.69589 0.81045 0.0
C446 C 0.8791 0.72772 0.79643 0.0
C447 C 0.00938 0.70809 0.79082 0.0
C448 C 0.04002 0.75566 0.79884 0.0
N449 N 0.97832 0.74093 0.80236 0.0
C450 C 0.97842 0.71463 0.79593 0.0
C451 C 0.00856 0.76144 0.80382 0.0
C452 C 0.04036 0.72877 0.7923 0.0
C453 C 0.81958 0.79644 0.81599 0.0
N454 N 0.81881 0.76428 0.81148 0.0
C455 C 0.79826 0.82554 0.81319 0.0
C456 C 0.77604 0.82155 0.80573 0.0
C457 C 0.77539 0.78866 0.80117 0.0
C458 C 0.7971 0.76016 0.80415 0.0
C459 C 0.74765 0.67589 0.81837 0.0
C460 C 0.81395 0.65828 0.81092 0.0
C461 C 0.77671 0.70006 0.81868 0.0
N462 N 0.8093 0.69117 0.81494 0.0
C463 C 0.7855 0.63344 0.81048 0.0
C464 C 0.75215 0.64238 0.81424 0.0
C465 C 0.91108 0.67511 0.81569 0.0
C466 C 0.97506 0.77755 0.83448 0.0
C467 C 0.98616 0.72276 0.82215 0.0
C468 C 0.00532 0.72241 0.83019 0.0
C469 C 0.99967 0.75002 0.83639 0.0
N470 N 0.9621 0.74989 0.82032 0.0
C471 C 0.95639 0.77702 0.82636 0.0
Co472 Co 0.7827 0.65335 0.68772 0.0
Co473 Co 0.76108 0.56706 0.69362 0.0
O474 O 0.75018 0.61154 0.68697 0.0
C475 C 0.77228 0.64923 0.66794 0.0
O476 O 0.78076 0.6147 0.6681 0.0
C477 C 0.68239 0.57801 0.6974 0.0
O478 O 0.68868 0.61236 0.69904 0.0
O479 O 0.76197 0.59493 0.70503 0.0
O480 O 0.7955 0.64178 0.70042 0.0
H481 H 0.82687 0.49243 0.71652 0.0
H482 H 0.70711 0.66409 0.68174 0.0
O483 O 0.7708 0.66734 0.67516 0.0
H484 H 0.72063 0.74131 0.70843 0.0
H485 H 0.82018 0.78264 0.68229 0.0
H486 H 0.85657 0.66489 0.69494 0.0
H487 H 0.77203 0.70518 0.70286 0.0
H488 H 0.77875 0.73035 0.6817 0.0
O489 O 0.70817 0.55709 0.69514 0.0
H490 H 0.81354 0.54755 0.70784 0.0
H491 H 0.73022 0.49234 0.69379 0.0
H492 H 0.8987 0.71657 0.69575 0.0
H493 H 0.65507 0.70011 0.68702 0.0
H494 H 0.88059 0.77597 0.68939 0.0
H495 H 0.66164 0.73898 0.70047 0.0
O496 O 0.82368 0.6228 0.68342 0.0
H497 H 0.71047 0.53209 0.66368 0.0
H498 H 0.81017 0.51282 0.68507 0.0
H499 H 0.81052 0.48021 0.67069 0.0
H500 H 0.76036 0.48969 0.65989 0.0
H501 H 0.71137 0.56443 0.67811 0.0
H502 H 0.74246 0.43671 0.70238 0.0
H503 H 0.79119 0.43648 0.71382 0.0
O504 O 0.81448 0.57464 0.69223 0.0
C505 C 0.78191 0.6224 0.70663 0.0
C506 C 0.80562 0.49217 0.71155 0.0
C507 C 0.75821 0.46091 0.70362 0.0
N508 N 0.77123 0.52315 0.70029 0.0
C509 C 0.79798 0.52328 0.70659 0.0
C510 C 0.75133 0.49253 0.69879 0.0
C511 C 0.78557 0.4608 0.71003 0.0
C512 C 0.71024 0.68119 0.68755 0.0
N513 N 0.74258 0.68259 0.69197 0.0
C514 C 0.68066 0.70142 0.69053 0.0
C515 C 0.68435 0.72318 0.69809 0.0
C516 C 0.71742 0.72447 0.70256 0.0
C517 C 0.74641 0.70385 0.69939 0.0
C518 C 0.82838 0.7569 0.68509 0.0
C519 C 0.84842 0.69068 0.69219 0.0
C520 C 0.80507 0.72715 0.68475 0.0
N521 N 0.81516 0.6946 0.68831 0.0
C522 C 0.87243 0.71983 0.69265 0.0
C523 C 0.86226 0.75315 0.68908 0.0
C524 C 0.8343 0.5934 0.68702 0.0
C525 C 0.73242 0.52765 0.66834 0.0
C526 C 0.78829 0.51719 0.6804 0.0
C527 C 0.7886 0.49858 0.67227 0.0
C528 C 0.76044 0.5039 0.66621 0.0
N529 N 0.76067 0.54039 0.68244 0.0
C530 C 0.73301 0.54579 0.67653 0.0
Co531 Co 0.35147 0.28727 0.93789 0.0
Co532 Co 0.43663 0.26235 0.94389 0.0
O533 O 0.39216 0.25334 0.93708 0.0
C534 C 0.35587 0.27742 0.91807 0.0
O535 O 0.39071 0.2845 0.91831 0.0
C536 C 0.42408 0.18333 0.94719 0.0
O537 O 0.3897 0.18971 0.94878 0.0
O538 O 0.40826 0.2629 0.95523 0.0
O539 O 0.36305 0.29874 0.95067 0.0
H540 H 0.51188 0.32389 0.9674 0.0
H541 H 0.33848 0.21244 0.93159 0.0
O542 O 0.33747 0.27665 0.92525 0.0
H543 H 0.26065 0.22687 0.95813 0.0
H544 H 0.22372 0.32948 0.93237 0.0
H545 H 0.34217 0.36094 0.94543 0.0
H546 H 0.29867 0.27739 0.95286 0.0
H547 H 0.2746 0.28637 0.93169 0.0
O548 O 0.44529 0.20911 0.94512 0.0
H549 H 0.4568 0.31274 0.95852 0.0
H550 H 0.51065 0.22982 0.94401 0.0
H551 H 0.29191 0.40472 0.94633 0.0
H552 H 0.30056 0.1613 0.93658 0.0
H553 H 0.23216 0.3891 0.93977 0.0
H554 H 0.26136 0.16833 0.94996 0.0
O555 O 0.38358 0.32754 0.93381 0.0
H556 H 0.47148 0.21378 0.91374 0.0
H557 H 0.49252 0.31083 0.93577 0.0
H558 H 0.52567 0.31174 0.92148 0.0
H559 H 0.5153 0.26291 0.91035 0.0
H560 H 0.43861 0.21412 0.92809 0.0
H561 H 0.56623 0.23986 0.9528 0.0
H562 H 0.56712 0.28729 0.96457 0.0
O563 O 0.43055 0.31598 0.94282 0.0
C564 C 0.38154 0.2838 0.95686 0.0
C565 C 0.51185 0.30318 0.96228 0.0
C566 C 0.54234 0.25599 0.95409 0.0
N567 N 0.48051 0.27073 0.95073 0.0
C568 C 0.48075 0.29678 0.95722 0.0
C569 C 0.51074 0.25035 0.94916 0.0
C570 C 0.54283 0.28262 0.96069 0.0
C571 C 0.32126 0.21578 0.93737 0.0
N572 N 0.32073 0.24788 0.94191 0.0
C573 C 0.29995 0.1867 0.94019 0.0
C574 C 0.278 0.19065 0.9477 0.0
C575 C 0.27761 0.22348 0.95229 0.0
C576 C 0.2993 0.25195 0.94929 0.0
C577 C 0.24962 0.33661 0.93525 0.0
C578 C 0.31623 0.35388 0.94258 0.0
C579 C 0.27858 0.31235 0.93486 0.0
N580 N 0.31132 0.32108 0.93854 0.0
C581 C 0.28788 0.37881 0.9431 0.0
C582 C 0.25437 0.37004 0.93941 0.0
C583 C 0.41302 0.33688 0.93761 0.0
C584 C 0.47631 0.23515 0.91854 0.0
C585 C 0.48776 0.28953 0.93096 0.0
C586 C 0.50668 0.29016 0.92288 0.0
C587 C 0.50086 0.26274 0.91664 0.0
N588 N 0.46376 0.26234 0.93278 0.0
C589 C 0.45788 0.23541 0.92669 0.0
Co590 Co 0.71938 0.84799 0.18799 0.0
Co591 Co 0.74582 0.93269 0.19404 0.0
O592 O 0.75406 0.88807 0.18722 0.0
C593 C 0.72946 0.85243 0.16817 0.0
O594 O 0.72287 0.88736 0.16844 0.0
C595 C 0.8245 0.9185 0.19741 0.0
O596 O 0.81738 0.88421 0.19891 0.0
O597 O 0.74453 0.90428 0.20536 0.0
O598 O 0.708 0.85965 0.20077 0.0
H599 H 0.6854 0.00899 0.21752 0.0
H600 H 0.79402 0.83368 0.18172 0.0
O601 O 0.72989 0.83393 0.17534 0.0
H602 H 0.77791 0.7559 0.2082 0.0
H603 H 0.67488 0.72109 0.18232 0.0
H604 H 0.64551 0.83992 0.19548 0.0
H605 H 0.72816 0.7949 0.20292 0.0
H606 H 0.71891 0.7712 0.18171 0.0
O607 O 0.7992 0.9403 0.19534 0.0
H608 H 0.69562 0.95375 0.20862 0.0
H609 H 0.77981 0.00606 0.19423 0.0
H610 H 0.60082 0.79045 0.19632 0.0
H611 H 0.8444 0.79478 0.18671 0.0
H612 H 0.61539 0.73051 0.18971 0.0
H613 H 0.83652 0.7556 0.20006 0.0
O614 O 0.67974 0.88084 0.18391 0.0
H615 H 0.79565 0.96673 0.16396 0.0
H616 H 0.69862 0.98957 0.18589 0.0
H617 H 0.69867 0.02283 0.17161 0.0
H618 H 0.74749 0.01156 0.16054 0.0
H619 H 0.79436 0.93378 0.1783 0.0
H620 H 0.77072 0.06177 0.20303 0.0
H621 H 0.72312 0.06352 0.21475 0.0
O622 O 0.6921 0.92767 0.1929 0.0
C623 C 0.72318 0.87789 0.20697 0.0
C624 C 0.70618 0.00859 0.21242 0.0
C625 C 0.75409 0.03819 0.2043 0.0
N626 N 0.73819 0.97668 0.20089 0.0
C627 C 0.71206 0.97739 0.20735 0.0
C628 C 0.7592 0.00652 0.19936 0.0
C629 C 0.72737 0.03916 0.21087 0.0
C630 C 0.79031 0.81648 0.18749 0.0
N631 N 0.75817 0.8165 0.192 0.0
C632 C 0.81896 0.79461 0.1903 0.0
C633 C 0.81454 0.77267 0.1978 0.0
C634 C 0.78167 0.77285 0.20237 0.0
C635 C 0.75363 0.79509 0.19937 0.0
C636 C 0.66822 0.74708 0.18523 0.0
C637 C 0.65212 0.81389 0.19262 0.0
C638 C 0.693 0.7756 0.18488 0.0
N639 N 0.68485 0.80845 0.18858 0.0
C640 C 0.62667 0.78599 0.1931 0.0
C641 C 0.63485 0.75237 0.18938 0.0
C642 C 0.6709 0.91048 0.18769 0.0
C643 C 0.7743 0.97196 0.16875 0.0
C644 C 0.71991 0.98441 0.1811 0.0
C645 C 0.71983 0.0034 0.17303 0.0
C646 C 0.74724 0.99707 0.16682 0.0
N647 N 0.74658 0.95986 0.18294 0.0
C648 C 0.7735 0.95348 0.17689 0.0
Co649 Co 0.15723 0.22522 0.43734 0.0
Co650 Co 0.06991 0.24435 0.44293 0.0
O651 O 0.11447 0.25638 0.43643 0.0
C652 C 0.15326 0.23454 0.41754 0.0
O653 O 0.11896 0.22518 0.41774 0.0
C654 C 0.07862 0.32321 0.44683 0.0
O655 O 0.11288 0.31761 0.44872 0.0
O656 O 0.09703 0.24416 0.45445 0.0
O657 O 0.14555 0.21255 0.45004 0.0
H658 H 0.99552 0.17673 0.46556 0.0
H659 H 0.1658 0.30086 0.43119 0.0
O660 O 0.17127 0.23702 0.42476 0.0
H661 H 0.24223 0.29095 0.4581 0.0
H662 H 0.28784 0.19173 0.43226 0.0
H663 H 0.17086 0.15208 0.44477 0.0
H664 H 0.20803 0.23817 0.45257 0.0
H665 H 0.23426 0.23141 0.43146 0.0
O666 O 0.05854 0.29702 0.44439 0.0
H667 H 0.05082 0.19142 0.45708 0.0
H668 H 0.99445 0.27331 0.44282 0.0
H669 H 0.22384 0.11168 0.4458 0.0
H670 H 0.19986 0.35427 0.43644 0.0
H671 H 0.28286 0.13144 0.43951 0.0
H672 H 0.23834 0.34951 0.45 0.0
O673 O 0.12821 0.18311 0.43306 0.0
H674 H 0.03546 0.29397 0.41285 0.0
H675 H 0.0176 0.19377 0.43418 0.0
H676 H 0.98597 0.19249 0.41967 0.0
H677 H 0.99474 0.2429 0.4089 0.0
H678 H 0.06688 0.29398 0.4274 0.0
H679 H 0.93861 0.25969 0.4512 0.0
H680 H 0.93888 0.21099 0.46264 0.0
O681 O 0.07895 0.19116 0.44159 0.0
C682 C 0.12507 0.22522 0.45616 0.0
C683 C 0.99504 0.19796 0.46058 0.0
C684 C 0.96311 0.24455 0.45252 0.0
N685 N 0.02586 0.2331 0.44943 0.0
C686 C 0.02626 0.20636 0.45574 0.0
C687 C 0.99485 0.25222 0.44782 0.0
C688 C 0.96328 0.21722 0.45894 0.0
C689 C 0.18273 0.29853 0.43706 0.0
N690 N 0.185 0.26643 0.44155 0.0
C691 C 0.20185 0.32888 0.44001 0.0
C692 C 0.22339 0.3262 0.44763 0.0
C693 C 0.22556 0.29337 0.45218 0.0
C694 C 0.20604 0.2636 0.44904 0.0
C695 C 0.26227 0.18282 0.43503 0.0
C696 C 0.19648 0.16094 0.44205 0.0
C697 C 0.23181 0.20513 0.43457 0.0
N698 N 0.19948 0.19414 0.43809 0.0
C699 C 0.22637 0.13791 0.44264 0.0
C700 C 0.25947 0.149 0.4391 0.0
C701 C 0.09879 0.17178 0.43652 0.0
C702 C 0.03134 0.27191 0.4175 0.0
C703 C 0.02166 0.21577 0.42952 0.0
C704 C 0.0036 0.21492 0.42132 0.0
C705 C 0.00853 0.24322 0.41528 0.0
N706 N 0.04395 0.24403 0.43165 0.0
C707 C 0.04895 0.27184 0.42576 0.0
Co708 Co 0.78237 0.84936 0.56595 0.0
Co709 Co 0.75847 0.93498 0.5601 0.0
O710 O 0.749 0.89045 0.56686 0.0
C711 C 0.77323 0.853 0.58582 0.0
O712 O 0.78127 0.88764 0.58572 0.0
C713 C 0.67945 0.92336 0.55668 0.0
O714 O 0.68571 0.88913 0.55489 0.0
O715 O 0.75862 0.90691 0.54871 0.0
O716 O 0.79383 0.8611 0.55319 0.0
H717 H 0.82068 0.01018 0.53669 0.0
H718 H 0.70741 0.83733 0.57227 0.0
O719 O 0.77169 0.83513 0.57857 0.0
H720 H 0.72053 0.75979 0.54563 0.0
H721 H 0.823 0.7209 0.57122 0.0
H722 H 0.85582 0.83931 0.55834 0.0
H723 H 0.77163 0.79696 0.55093 0.0
H724 H 0.78055 0.77232 0.57202 0.0
O725 O 0.70531 0.94422 0.55892 0.0
H726 H 0.80899 0.95499 0.54549 0.0
H727 H 0.72672 0.00933 0.56011 0.0
H728 H 0.89893 0.78852 0.55732 0.0
H729 H 0.65568 0.80028 0.56724 0.0
H730 H 0.88262 0.72879 0.5638 0.0
H731 H 0.66205 0.76123 0.55382 0.0
O732 O 0.82312 0.88084 0.57005 0.0
H733 H 0.71065 0.96955 0.59035 0.0
H734 H 0.80766 0.99009 0.56828 0.0
H735 H 0.80912 0.02282 0.58264 0.0
H736 H 0.76032 0.0127 0.59378 0.0
H737 H 0.71043 0.93709 0.57593 0.0
H738 H 0.7373 0.06503 0.55141 0.0
H739 H 0.78468 0.06573 0.53963 0.0
O740 O 0.81202 0.92824 0.56113 0.0
C741 C 0.77909 0.87991 0.54704 0.0
C742 C 0.8 0.01023 0.54182 0.0
C743 C 0.75317 0.041 0.55007 0.0
N744 N 0.76727 0.97893 0.55333 0.0
C745 C 0.79329 0.97907 0.54684 0.0
C746 C 0.74722 0.00934 0.55495 0.0
C747 C 0.77977 0.04138 0.54346 0.0
C748 C 0.71046 0.82018 0.56646 0.0
N749 N 0.74252 0.81925 0.56192 0.0
C750 C 0.68105 0.79936 0.56363 0.0
C751 C 0.68462 0.77749 0.55609 0.0
C752 C 0.71742 0.7767 0.55149 0.0
C753 C 0.74623 0.7979 0.55451 0.0
C754 C 0.83042 0.7468 0.56838 0.0
C755 C 0.84846 0.81338 0.56115 0.0
C756 C 0.80654 0.77606 0.56884 0.0
N757 N 0.81565 0.80879 0.56521 0.0
C758 C 0.87302 0.78473 0.56057 0.0
C759 C 0.86386 0.75123 0.5642 0.0
C760 C 0.83279 0.91025 0.56628 0.0
C761 C 0.732 0.97427 0.58553 0.0
C762 C 0.78636 0.98544 0.5731 0.0
C763 C 0.78731 0.00412 0.58121 0.0
C764 C 0.75991 0.99844 0.58746 0.0
N765 N 0.75887 0.96181 0.57125 0.0
C766 C 0.73195 0.95606 0.57735 0.0
Co767 Co 0.15612 0.28595 0.81595 0.0
Co768 Co 0.0692 0.26522 0.81044 0.0
O769 O 0.11399 0.25396 0.81692 0.0
C770 C 0.1532 0.27629 0.83578 0.0
O771 O 0.11881 0.28535 0.83573 0.0
C772 C 0.07878 0.18634 0.80663 0.0
O773 O 0.11299 0.19219 0.80473 0.0
O774 O 0.0963 0.26544 0.79891 0.0
O775 O 0.14388 0.29852 0.80327 0.0
H776 H 0.99382 0.33124 0.78772 0.0
H777 H 0.16627 0.21038 0.822 0.0
O778 O 0.17077 0.27423 0.82848 0.0
H779 H 0.24196 0.22225 0.79501 0.0
H780 H 0.28617 0.32203 0.82083 0.0
H781 H 0.16809 0.35945 0.80855 0.0
H782 H 0.20685 0.27425 0.80064 0.0
H783 H 0.23343 0.28126 0.82169 0.0
O784 O 0.0585 0.21239 0.80906 0.0
H785 H 0.04936 0.31749 0.79621 0.0
H786 H 0.99411 0.2353 0.81063 0.0
H787 H 0.22021 0.40092 0.80747 0.0
H788 H 0.20126 0.15774 0.81666 0.0
H789 H 0.27978 0.3823 0.81364 0.0
H790 H 0.23937 0.16349 0.80306 0.0
O791 O 0.12637 0.32743 0.8203 0.0
H792 H 0.03569 0.21592 0.84061 0.0
H793 H 0.01618 0.31524 0.81913 0.0
H794 H 0.9846 0.31642 0.83364 0.0
H795 H 0.99421 0.26645 0.84449 0.0
H796 H 0.06702 0.21599 0.82604 0.0
H797 H 0.93805 0.24796 0.80225 0.0
H798 H 0.93764 0.29633 0.79072 0.0
O799 O 0.07752 0.31857 0.8117 0.0
C800 C 0.1239 0.28499 0.79717 0.0
C801 C 0.99364 0.31014 0.79274 0.0
C802 C 0.96235 0.26337 0.80089 0.0
N803 N 0.02497 0.27571 0.80394 0.0
C804 C 0.025 0.30227 0.79758 0.0
C805 C 0.99422 0.25625 0.80559 0.0
C806 C 0.96214 0.29052 0.79442 0.0
C807 C 0.18303 0.21314 0.81612 0.0
N808 N 0.18458 0.24536 0.81166 0.0
C809 C 0.20268 0.18323 0.81311 0.0
C810 C 0.22402 0.18645 0.80547 0.0
C811 C 0.22546 0.21941 0.80095 0.0
C812 C 0.20542 0.24873 0.80415 0.0
C813 C 0.26036 0.33045 0.81811 0.0
C814 C 0.19395 0.35107 0.81122 0.0
C815 C 0.23036 0.30752 0.81861 0.0
N816 N 0.19772 0.31789 0.81515 0.0
C817 C 0.22336 0.37471 0.8106 0.0
C818 C 0.25676 0.36425 0.81407 0.0
C819 C 0.09686 0.33829 0.8168 0.0
C820 C 0.0312 0.23779 0.83592 0.0
C821 C 0.02059 0.29344 0.82382 0.0
C822 C 1.00257 0.29422 0.83202 0.0
C823 C 0.00796 0.26617 0.8381 0.0
N824 N 0.0433 0.26546 0.82172 0.0
C825 C 0.04877 0.23791 0.82766 0.0
Co826 Co 0.71972 0.65576 0.06563 0.0
Co827 Co 0.74614 0.57101 0.05963 0.0
O828 O 0.75438 0.61569 0.06643 0.0
C829 C 0.72946 0.65191 0.08548 0.0
O830 O 0.72225 0.61709 0.08532 0.0
C831 C 0.82478 0.58514 0.05621 0.0
O832 O 0.8176 0.61936 0.05464 0.0
O833 O 0.74488 0.59931 0.04829 0.0
O834 O 0.7083 0.64392 0.05286 0.0
H835 H 0.68575 0.49446 0.0362 0.0
H836 H 0.7944 0.6701 0.07186 0.0
O837 O 0.73031 0.67002 0.07825 0.0
H838 H 0.77822 0.74757 0.04533 0.0
H839 H 0.67527 0.78273 0.0712 0.0
H840 H 0.64584 0.66374 0.05813 0.0
H841 H 0.72846 0.70867 0.05065 0.0
H842 H 0.71929 0.73263 0.07184 0.0
O843 O 0.79952 0.56339 0.05835 0.0
H844 H 0.69596 0.5498 0.04506 0.0
H845 H 0.78011 0.49764 0.05949 0.0
H846 H 0.60117 0.71321 0.05726 0.0
H847 H 0.84479 0.70891 0.06682 0.0
H848 H 0.61577 0.77323 0.06383 0.0
H849 H 0.83687 0.74793 0.05344 0.0
O850 O 0.68006 0.62296 0.06974 0.0
H851 H 0.79581 0.53735 0.08975 0.0
H852 H 0.69891 0.51421 0.06781 0.0
H853 H 0.69888 0.48112 0.08211 0.0
H854 H 0.74764 0.49254 0.09319 0.0
H855 H 0.7946 0.57012 0.07538 0.0
H856 H 0.77102 0.44183 0.05073 0.0
H857 H 0.72345 0.43996 0.039 0.0
O858 O 0.69242 0.57606 0.06076 0.0
C859 C 0.72354 0.62567 0.04667 0.0
C860 C 0.70652 0.49492 0.0413 0.0
C861 C 0.75441 0.4654 0.04944 0.0
N862 N 0.73851 0.52695 0.05281 0.0
C863 C 0.71239 0.52617 0.04635 0.0
C864 C 0.75951 0.49713 0.05437 0.0
C865 C 0.7277 0.46436 0.04287 0.0
C866 C 0.79068 0.68723 0.06608 0.0
N867 N 0.75851 0.68717 0.06157 0.0
C868 C 0.81933 0.70905 0.06324 0.0
C869 C 0.81489 0.7309 0.05572 0.0
C870 C 0.782 0.73069 0.05116 0.0
C871 C 0.75395 0.70851 0.05419 0.0
C872 C 0.66859 0.75671 0.06831 0.0
C873 C 0.65246 0.68981 0.06098 0.0
C874 C 0.69337 0.72819 0.06868 0.0
N875 N 0.68521 0.6953 0.065 0.0
C876 C 0.62702 0.71771 0.06048 0.0
C877 C 0.63522 0.75137 0.06417 0.0
C878 C 0.67121 0.5933 0.06596 0.0
C879 C 0.77448 0.53205 0.08496 0.0
C880 C 0.72017 0.51943 0.0726 0.0
C881 C 0.72005 0.50054 0.08069 0.0
C882 C 0.74742 0.50695 0.0869 0.0
N883 N 0.74685 0.54396 0.07075 0.0
C884 C 0.77373 0.55043 0.07681 0.0
Co885 Co 0.35083 0.21882 0.31521 0.0
Co886 Co 0.43546 0.24508 0.30909 0.0
O887 O 0.39091 0.25351 0.31593 0.0
C888 C 0.35487 0.22937 0.33504 0.0
O889 O 0.38977 0.22261 0.33488 0.0
C890 C 0.42138 0.32381 0.30575 0.0
O891 O 0.38701 0.3168 0.30433 0.0
O892 O 0.40693 0.24371 0.29778 0.0
O893 O 0.36252 0.20711 0.30245 0.0
H894 H 0.5114 0.18417 0.28562 0.0
H895 H 0.33649 0.29362 0.32136 0.0
O896 O 0.33667 0.22968 0.32782 0.0
H897 H 0.25873 0.27679 0.29489 0.0
H898 H 0.22389 0.17445 0.32088 0.0
H899 H 0.34284 0.14473 0.30783 0.0
H900 H 0.29774 0.22719 0.30025 0.0
H901 H 0.27398 0.21852 0.32144 0.0
O902 O 0.44319 0.29843 0.30775 0.0
H903 H 0.45628 0.19462 0.29454 0.0
H904 H 0.50889 0.27893 0.30883 0.0
H905 H 0.29339 0.09999 0.30704 0.0
H906 H 0.29756 0.34385 0.31628 0.0
H907 H 0.23339 0.11474 0.3136 0.0
H908 H 0.2584 0.33561 0.30294 0.0
O909 O 0.38371 0.1793 0.31935 0.0
H910 H 0.46982 0.29512 0.33913 0.0
H911 H 0.49235 0.19789 0.31723 0.0
H912 H 0.52573 0.19801 0.3315 0.0
H913 H 0.51461 0.24693 0.34256 0.0
H914 H 0.43675 0.29376 0.32481 0.0
H915 H 0.56449 0.2696 0.30001 0.0
H916 H 0.56604 0.22183 0.28832 0.0
O917 O 0.43033 0.19137 0.31027 0.0
C918 C 0.38057 0.22228 0.29621 0.0
C919 C 0.51109 0.20503 0.2907 0.0
C920 C 0.54087 0.253 0.29877 0.0
N921 N 0.47937 0.23727 0.30222 0.0
C922 C 0.47996 0.21103 0.29579 0.0
C923 C 0.50926 0.25824 0.30372 0.0
C924 C 0.54172 0.22619 0.29221 0.0
C925 C 0.31929 0.28975 0.31559 0.0
N926 N 0.31935 0.25749 0.31112 0.0
C927 C 0.29741 0.31832 0.31273 0.0
C928 C 0.27548 0.3137 0.30524 0.0
C929 C 0.27568 0.28072 0.30071 0.0
C930 C 0.29793 0.25276 0.30376 0.0
C931 C 0.24991 0.1677 0.31799 0.0
C932 C 0.31679 0.15141 0.31068 0.0
C933 C 0.27842 0.1925 0.31832 0.0
N934 N 0.3113 0.18426 0.31465 0.0
C935 C 0.2889 0.12594 0.31022 0.0
C936 C 0.25525 0.13422 0.31391 0.0
C937 C 0.41325 0.17033 0.31554 0.0
C938 C 0.47498 0.27372 0.33435 0.0
C939 C 0.48726 0.21922 0.32202 0.0
C940 C 0.50631 0.21918 0.33008 0.0
C941 C 0.50007 0.24665 0.33628 0.0
N942 N 0.46273 0.24591 0.32017 0.0
C943 C 0.45643 0.27289 0.32622 0.0
C944 C 0.25882 0.29602 0.09391 0.0
C945 C 0.26485 0.33366 0.09409 0.0
C946 C 0.25656 0.27616 0.10182 0.0
C947 C 0.23799 0.28222 0.12579 0.0
H948 H 0.29646 0.19518 0.12727 0.0
C949 C 0.2605 0.20713 0.15907 0.0
C950 C 0.26469 0.16926 0.15905 0.0
C951 C 0.25801 0.22641 0.15108 0.0
C952 C 0.27942 0.21899 0.12694 0.0
H953 H 0.27194 0.38004 0.1028 0.0
H954 H 0.26739 0.34514 0.1167 0.0
H955 H 0.2967 0.23098 0.1136 0.0
H956 H 0.26838 0.12187 0.15056 0.0
H957 H 0.26293 0.15548 0.13655 0.0
H958 H 0.22014 0.27006 0.13905 0.0
C959 C 0.26466 0.33117 0.11037 0.0
C960 C 0.27975 0.23964 0.11911 0.0
C961 C 0.26734 0.35112 0.10242 0.0
C962 C 0.26535 0.15102 0.15081 0.0
C963 C 0.2625 0.17037 0.14278 0.0
C964 C 0.2373 0.26133 0.13359 0.0
C965 C 0.25986 0.29338 0.11013 0.0
C966 C 0.25921 0.27158 0.11847 0.0
C967 C 0.2592 0.20841 0.14281 0.0
C968 C 0.25825 0.22956 0.1343 0.0
H969 H 0.25651 0.28156 0.08764 0.0
H970 H 0.2523 0.24718 0.10142 0.0
H971 H 0.22153 0.30645 0.12544 0.0
H972 H 0.25999 0.22222 0.16527 0.0
H973 H 0.25618 0.25563 0.15141 0.0
C974 C 0.85511 0.76919 0.40138 0.0
C975 C 0.83649 0.77046 0.40956 0.0
C976 C 0.83602 0.76591 0.39332 0.0
C977 C 0.74475 0.74204 0.38415 0.0
H978 H 0.77721 0.79737 0.36366 0.0
C979 C 0.65601 0.76959 0.35271 0.0
C980 C 0.67339 0.76588 0.3444 0.0
C981 C 0.67595 0.76747 0.36068 0.0
C982 C 0.76796 0.78152 0.36931 0.0
H983 H 0.78308 0.76895 0.41564 0.0
H984 H 0.75019 0.76436 0.40173 0.0
H985 H 0.81273 0.79823 0.37738 0.0
H986 H 0.72528 0.75589 0.338 0.0
H987 H 0.75966 0.75258 0.3518 0.0
H988 H 0.6994 0.72622 0.37609 0.0
C989 C 0.77948 0.765 0.40147 0.0
C990 C 0.78844 0.78184 0.37717 0.0
C991 C 0.79847 0.76796 0.40949 0.0
C992 C 0.71091 0.75916 0.34426 0.0
C993 C 0.73077 0.75741 0.35217 0.0
C994 C 0.72408 0.74205 0.37632 0.0
C995 C 0.79788 0.76405 0.39326 0.0
C996 C 0.77706 0.76223 0.38472 0.0
C997 C 0.71365 0.76196 0.36047 0.0
C998 C 0.73544 0.76183 0.36882 0.0
H999 H 0.88438 0.7709 0.4012 0.0
H1000 H 0.85118 0.76477 0.38713 0.0
H1001 H 0.73541 0.72603 0.38976 0.0
H1002 H 0.62719 0.77476 0.35307 0.0
H1003 H 0.66205 0.77118 0.36698 0.0
C1004 C 0.23415 0.15373 0.60193 0.0
C1005 C 0.23669 0.17166 0.59367 0.0
C1006 C 0.23657 0.17326 0.60996 0.0
C1007 C 0.22149 0.26454 0.619 0.0
H1008 H 0.27952 0.23207 0.63902 0.0
C1009 C 0.23576 0.35085 0.65114 0.0
C1010 C 0.23563 0.33204 0.6593 0.0
C1011 C 0.23853 0.33199 0.64303 0.0
C1012 C 0.26281 0.24137 0.63353 0.0
H1013 H 0.24488 0.22413 0.58741 0.0
H1014 H 0.24874 0.25778 0.60131 0.0
H1015 H 0.2786 0.19666 0.62525 0.0
H1016 H 0.2387 0.27855 0.66529 0.0
H1017 H 0.24244 0.24602 0.6513 0.0
H1018 H 0.20486 0.30867 0.62729 0.0
C1019 C 0.24458 0.22877 0.60161 0.0
C1020 C 0.26237 0.22104 0.62564 0.0
C1021 C 0.24252 0.20933 0.59363 0.0
C1022 C 0.23882 0.29407 0.65916 0.0
C1023 C 0.24127 0.2753 0.65109 0.0
C1024 C 0.22162 0.28467 0.62691 0.0
C1025 C 0.24122 0.21109 0.60986 0.0
C1026 C 0.2417 0.23241 0.61829 0.0
C1027 C 0.241 0.29389 0.6429 0.0
C1028 C 0.24219 0.27333 0.63431 0.0
H1029 H 0.2297 0.12477 0.60221 0.0
H1030 H 0.23378 0.15891 0.61623 0.0
H1031 H 0.20494 0.27378 0.61347 0.0
H1032 H 0.23351 0.38008 0.65101 0.0
H1033 H 0.23877 0.34731 0.63686 0.0
C1034 C 0.85437 0.74002 0.85209 0.0
C1035 C 0.83563 0.74002 0.84392 0.0
C1036 C 0.83546 0.74296 0.86019 0.0
C1037 C 0.74486 0.76781 0.86962 0.0
H1038 H 0.77648 0.70947 0.88967 0.0
C1039 C 0.6563 0.73884 0.90103 0.0
C1040 C 0.674 0.74137 0.90933 0.0
C1041 C 0.67605 0.74131 0.89304 0.0
C1042 C 0.76747 0.72615 0.88414 0.0
H1043 H 0.78222 0.74358 0.8379 0.0
H1044 H 0.74961 0.74758 0.85186 0.0
H1045 H 0.8117 0.70939 0.8759 0.0
H1046 H 0.7263 0.74956 0.91568 0.0
H1047 H 0.76033 0.75346 0.90184 0.0
H1048 H 0.70003 0.78369 0.87785 0.0
C1049 C 0.77888 0.74617 0.85209 0.0
C1050 C 0.78779 0.72628 0.87626 0.0
C1051 C 0.7977 0.74355 0.84404 0.0
C1052 C 0.71167 0.74722 0.90944 0.0
C1053 C 0.73133 0.7493 0.90149 0.0
C1054 C 0.72434 0.76735 0.87748 0.0
C1055 C 0.79738 0.74574 0.86029 0.0
C1056 C 0.77671 0.74701 0.86886 0.0
C1057 C 0.71387 0.74597 0.89321 0.0
C1058 C 0.73541 0.74649 0.88482 0.0
H1059 H 0.88358 0.73751 0.85224 0.0
H1060 H 0.85072 0.74306 0.86637 0.0
H1061 H 0.73577 0.78466 0.86414 0.0
H1062 H 0.62735 0.73437 0.9007 0.0
H1063 H 0.66188 0.73854 0.88674 0.0
C1064 C 0.76365 0.79528 0.59422 0.0
C1065 C 0.76847 0.83309 0.59436 0.0
C1066 C 0.7616 0.77552 0.60214 0.0
C1067 C 0.74132 0.7816 0.62603 0.0
H1068 H 0.80112 0.69556 0.62777 0.0
C1069 C 0.76257 0.70656 0.65938 0.0
C1070 C 0.76723 0.66874 0.65935 0.0
C1071 C 0.76037 0.72589 0.65139 0.0
C1072 C 0.78372 0.71908 0.62736 0.0
H1073 H 0.77374 0.87986 0.60303 0.0
H1074 H 0.76962 0.8451 0.61697 0.0
H1075 H 0.80183 0.73141 0.61411 0.0
H1076 H 0.77203 0.6215 0.65084 0.0
H1077 H 0.76715 0.65521 0.63683 0.0
H1078 H 0.72267 0.76909 0.6392 0.0
C1079 C 0.76764 0.83093 0.61065 0.0
C1080 C 0.78432 0.73978 0.61954 0.0
C1081 C 0.77009 0.8508 0.60267 0.0
C1082 C 0.76863 0.6506 0.65111 0.0
C1083 C 0.7661 0.67002 0.64307 0.0
C1084 C 0.74039 0.76068 0.63383 0.0
C1085 C 0.76394 0.793 0.61044 0.0
C1086 C 0.76326 0.77133 0.6188 0.0
C1087 C 0.76236 0.70801 0.64312 0.0
C1088 C 0.76179 0.72925 0.63463 0.0
H1089 H 0.76201 0.78062 0.58797 0.0
H1090 H 0.75818 0.74643 0.60177 0.0
H1091 H 0.72443 0.80552 0.6256 0.0
H1092 H 0.76143 0.72157 0.66558 0.0
H1093 H 0.75814 0.75509 0.65174 0.0
C1094 C 0.29861 0.26912 0.90939 0.0
C1095 C 0.33655 0.27257 0.90945 0.0
C1096 C 0.27956 0.26659 0.90137 0.0
C1097 C 0.28782 0.28658 0.87719 0.0
H1098 H 0.20006 0.22912 0.87573 0.0
C1099 C 0.21091 0.2657 0.84412 0.0
C1100 C 0.17321 0.27132 0.84429 0.0
C1101 C 0.23077 0.26369 0.85204 0.0
C1102 C 0.22436 0.24548 0.87606 0.0
H1103 H 0.38427 0.27506 0.90105 0.0
H1104 H 0.35101 0.26968 0.88697 0.0
H1105 H 0.23612 0.22815 0.88939 0.0
H1106 H 0.12674 0.27803 0.85299 0.0
H1107 H 0.16164 0.27402 0.8669 0.0
H1108 H 0.27618 0.30343 0.86381 0.0
C1109 C 0.33592 0.26976 0.89318 0.0
C1110 C 0.24507 0.24501 0.8839 0.0
C1111 C 0.35506 0.2726 0.90125 0.0
C1112 C 0.15571 0.27374 0.85262 0.0
C1113 C 0.17567 0.27135 0.86058 0.0
C1114 C 0.26731 0.28673 0.86934 0.0
C1115 C 0.29784 0.26705 0.89314 0.0
C1116 C 0.27694 0.26582 0.8846 0.0
C1117 C 0.2135 0.26688 0.86035 0.0
C1118 C 0.23525 0.26636 0.8687 0.0
H1119 H 0.2833 0.26908 0.91556 0.0
H1120 H 0.2503 0.26523 0.90165 0.0
H1121 H 0.31174 0.30348 0.87752 0.0
H1122 H 0.22539 0.26347 0.83786 0.0
H1123 H 0.25979 0.25968 0.85164 0.0
C1124 C 0.73903 0.70942 0.09399 0.0
C1125 C 0.73417 0.67161 0.09406 0.0
C1126 C 0.74104 0.72894 0.10196 0.0
C1127 C 0.76032 0.72163 0.12594 0.0
H1128 H 0.70197 0.80867 0.12769 0.0
C1129 C 0.7376 0.79524 0.15944 0.0
C1130 C 0.73415 0.83318 0.15953 0.0
C1131 C 0.73991 0.77627 0.1514 0.0
C1132 C 0.71895 0.78484 0.12728 0.0
H1133 H 0.72876 0.62461 0.10263 0.0
H1134 H 0.73268 0.65892 0.11663 0.0
H1135 H 0.70163 0.77349 0.11392 0.0
H1136 H 0.73146 0.88099 0.15117 0.0
H1137 H 0.73639 0.84789 0.13706 0.0
H1138 H 0.77806 0.7331 0.13925 0.0
C1139 C 0.73479 0.6733 0.11035 0.0
C1140 C 0.71859 0.76454 0.11939 0.0
C1141 C 0.73245 0.65367 0.10233 0.0
C1142 C 0.73392 0.85178 0.15135 0.0
C1143 C 0.7365 0.83273 0.14326 0.0
C1144 C 0.76097 0.74211 0.13381 0.0
C1145 C 0.73856 0.71123 0.11022 0.0
C1146 C 0.73913 0.73262 0.11865 0.0
C1147 C 0.73918 0.79465 0.14318 0.0
C1148 C 0.74007 0.77388 0.13462 0.0
H1149 H 0.74077 0.72424 0.08776 0.0
H1150 H 0.74454 0.75803 0.10164 0.0
H1151 H 0.77682 0.69744 0.12552 0.0
H1152 H 0.73782 0.77987 0.1656 0.0
H1153 H 0.7413 0.74701 0.15165 0.0
C1154 C 0.15448 0.23664 0.4007 0.0
C1155 C 0.17264 0.23923 0.40892 0.0
C1156 C 0.17376 0.23864 0.39264 0.0
C1157 C 0.26378 0.26486 0.3831 0.0
H1158 H 0.23512 0.20067 0.36387 0.0
C1159 C 0.3533 0.23418 0.35188 0.0
C1160 C 0.33519 0.23432 0.34361 0.0
C1161 C 0.33373 0.23694 0.35989 0.0
C1162 C 0.24331 0.21894 0.36916 0.0
H1163 H 0.22539 0.24669 0.41508 0.0
H1164 H 0.25875 0.24914 0.40118 0.0
H1165 H 0.19971 0.20219 0.37759 0.0
H1166 H 0.28226 0.23845 0.33734 0.0
H1167 H 0.2486 0.24288 0.35121 0.0
H1168 H 0.30799 0.28083 0.37467 0.0
C1169 C 0.2296 0.24632 0.40087 0.0
C1170 C 0.22287 0.22 0.37702 0.0
C1171 C 0.21036 0.24463 0.40889 0.0
C1172 C 0.29724 0.23796 0.34355 0.0
C1173 C 0.2778 0.24035 0.35152 0.0
C1174 C 0.28446 0.2635 0.37527 0.0
C1175 C 0.21168 0.24304 0.39263 0.0
C1176 C 0.23278 0.24297 0.38411 0.0
C1177 C 0.2957 0.23951 0.35978 0.0
C1178 C 0.27439 0.24059 0.3682 0.0
H1179 H 0.12544 0.23265 0.40048 0.0
H1180 H 0.15891 0.23663 0.38642 0.0
H1181 H 0.272 0.28333 0.38834 0.0
H1182 H 0.38247 0.23148 0.35216 0.0
H1183 H 0.34825 0.23613 0.36618 0.0
C1184 C 0.31516 0.15948 0.21725 0.0
C1185 C 0.29078 0.13095 0.21557 0.0
C1186 C 0.32503 0.16859 0.22595 0.0
C1187 C 0.29501 0.16322 0.24924 0.0
H1188 H 0.39573 0.18374 0.25459 0.0
C1189 C 0.34428 0.1862 0.28526 0.0
C1190 C 0.37104 0.21257 0.28687 0.0
C1191 C 0.33485 0.17641 0.27658 0.0
C1192 C 0.36743 0.17863 0.25319 0.0
H1193 H 0.25762 0.08969 0.22184 0.0
H1194 H 0.2748 0.10592 0.23715 0.0
H1195 H 0.37848 0.16514 0.23954 0.0
H1196 H 0.40885 0.2493 0.2805 0.0
H1197 H 0.39183 0.23261 0.26524 0.0
H1198 H 0.28376 0.1772 0.26283 0.0
C1199 C 0.28613 0.12119 0.23164 0.0
C1200 C 0.35757 0.16779 0.24457 0.0
C1201 C 0.2764 0.11182 0.22288 0.0
C1202 C 0.38817 0.2289 0.27951 0.0
C1203 C 0.37854 0.21915 0.27077 0.0
C1204 C 0.30483 0.17428 0.25785 0.0
C1205 C 0.31069 0.14961 0.23326 0.0
C1206 C 0.32125 0.15995 0.2425 0.0
C1207 C 0.35167 0.1928 0.2692 0.0
C1208 C 0.34119 0.18204 0.25995 0.0
H1209 H 0.32685 0.17497 0.21182 0.0
H1210 H 0.34358 0.19094 0.22697 0.0
H1211 H 0.26675 0.15795 0.24782 0.0
H1212 H 0.33057 0.17275 0.29073 0.0
H1213 H 0.31462 0.15551 0.27566 0.0
C1214 C 0.8878 0.77541 0.47368 0.0
C1215 C 0.87084 0.79198 0.46633 0.0
C1216 C 0.87794 0.78485 0.48243 0.0
C1217 C 0.83475 0.85807 0.49549 0.0
H1218 H 0.81852 0.78322 0.51318 0.0
C1219 C 0.77321 0.88914 0.53037 0.0
C1220 C 0.78825 0.87044 0.53766 0.0
C1221 C 0.78263 0.87967 0.52159 0.0
C1222 C 0.82332 0.80453 0.50835 0.0
H1223 H 0.83017 0.83164 0.46249 0.0
H1224 H 0.81329 0.84779 0.47761 0.0
H1225 H 0.83804 0.76647 0.49817 0.0
H1226 H 0.82536 0.82723 0.54137 0.0
H1227 H 0.84199 0.81148 0.52624 0.0
H1228 H 0.82039 0.89619 0.50567 0.0
C1229 C 0.83435 0.82777 0.47664 0.0
C1230 C 0.83456 0.79488 0.49975 0.0
C1231 C 0.84397 0.81824 0.46795 0.0
C1232 C 0.81292 0.8422 0.53595 0.0
C1233 C 0.82236 0.83289 0.52724 0.0
C1234 C 0.8237 0.86775 0.5041 0.0
C1235 C 0.85117 0.81126 0.48399 0.0
C1236 C 0.84035 0.82153 0.49322 0.0
C1237 C 0.80732 0.85136 0.51993 0.0
C1238 C 0.8179 0.84111 0.51066 0.0
H1239 H 0.90862 0.75515 0.47269 0.0
H1240 H 0.89156 0.77182 0.48797 0.0
H1241 H 0.83937 0.87928 0.49062 0.0
H1242 H 0.75415 0.911 0.53143 0.0
H1243 H 0.77028 0.89426 0.51611 0.0
C1244 C 0.23039 0.38686 0.72338 0.0
C1245 C 0.21559 0.36776 0.71612 0.0
C1246 C 0.22064 0.37794 0.73217 0.0
C1247 C 0.17883 0.30393 0.74562 0.0
H1248 H 0.16403 0.37996 0.76309 0.0
C1249 C 0.115 0.27784 0.78053 0.0
C1250 C 0.13291 0.29421 0.78777 0.0
C1251 C 0.12444 0.28677 0.77172 0.0
C1252 C 0.16826 0.3584 0.75829 0.0
H1253 H 0.17863 0.32435 0.71248 0.0
H1254 H 0.16133 0.30958 0.72762 0.0
H1255 H 0.18301 0.39569 0.74797 0.0
H1256 H 0.17467 0.33311 0.79137 0.0
H1257 H 0.19074 0.3485 0.77613 0.0
H1258 H 0.16367 0.26672 0.75595 0.0
C1259 C 0.18105 0.33088 0.7266 0.0
C1260 C 0.17933 0.3674 0.74963 0.0
C1261 C 0.19086 0.33962 0.71787 0.0
C1262 C 0.16019 0.31987 0.78599 0.0
C1263 C 0.16933 0.32895 0.77723 0.0
C1264 C 0.16752 0.29497 0.75426 0.0
C1265 C 0.19579 0.34981 0.73388 0.0
C1266 C 0.1848 0.34028 0.74318 0.0
C1267 C 0.15167 0.31252 0.76999 0.0
C1268 C 0.16222 0.32209 0.7607 0.0
H1269 H 0.2495 0.40866 0.72229 0.0
H1270 H 0.23284 0.39286 0.73762 0.0
H1271 H 0.18335 0.28224 0.74088 0.0
H1272 H 0.09387 0.25802 0.78166 0.0
H1273 H 0.11019 0.27382 0.76626 0.0
C1274 C 0.73089 0.61796 0.02999 0.0
C1275 C 0.71403 0.63497 0.0373 0.0
C1276 C 0.72141 0.6274 0.02122 0.0
C1277 C 0.64779 0.66911 0.00802 0.0
H1278 H 0.72267 0.68654 0.99041 0.0
C1279 C 0.61628 0.73079 0.9732 0.0
C1280 C 0.63557 0.71664 0.9659 0.0
C1281 C 0.62567 0.72108 0.98197 0.0
C1282 C 0.70134 0.68136 0.99521 0.0
H1283 H 0.67382 0.67525 0.04104 0.0
H1284 H 0.65756 0.69137 0.02588 0.0
H1285 H 0.73946 0.66731 0.00543 0.0
H1286 H 0.6797 0.68073 0.96214 0.0
H1287 H 0.69529 0.66351 0.97723 0.0
H1288 H 0.60961 0.68278 0.9978 0.0
C1289 C 0.67786 0.67061 0.0269 0.0
C1290 C 0.71103 0.67031 0.00382 0.0
C1291 C 0.68744 0.66144 0.03562 0.0
C1292 C 0.66427 0.69248 0.96757 0.0
C1293 C 0.67348 0.68271 0.97627 0.0
C1294 C 0.63807 0.67994 0.99939 0.0
C1295 C 0.69466 0.65376 0.01959 0.0
C1296 C 0.68437 0.66416 0.01033 0.0
C1297 C 0.65447 0.69694 0.9836 0.0
C1298 C 0.66472 0.68622 0.99287 0.0
H1299 H 0.75141 0.59745 0.03104 0.0
H1300 H 0.73468 0.61378 0.01571 0.0
H1301 H 0.62657 0.6642 0.01287 0.0
H1302 H 0.59406 0.74945 0.97217 0.0
H1303 H 0.61064 0.73284 0.98746 0.0
C1304 C 0.31538 0.34416 0.03595 0.0
C1305 C 0.29111 0.37278 0.03761 0.0
C1306 C 0.32512 0.33484 0.02725 0.0
C1307 C 0.32734 0.36976 0.00407 0.0
H1308 H 0.34055 0.2683 0.99817 0.0
C1309 C 0.34538 0.31952 0.96791 0.0
C1310 C 0.37219 0.29327 0.96623 0.0
C1311 C 0.33627 0.32921 0.97663 0.0
C1312 C 0.33739 0.29675 0.99974 0.0
H1313 H 0.25808 0.41405 0.03132 0.0
H1314 H 0.27461 0.39727 0.01604 0.0
H1315 H 0.32146 0.28534 0.01319 0.0
H1316 H 0.41034 0.25656 0.97248 0.0
H1317 H 0.39408 0.27343 0.98782 0.0
H1318 H 0.34274 0.381 0.99056 0.0
C1319 C 0.2865 0.38239 0.02153 0.0
C1320 C 0.32642 0.30658 0.00835 0.0
C1321 C 0.27684 0.39191 0.03029 0.0
C1322 C 0.38956 0.27681 0.97353 0.0
C1323 C 0.38017 0.28638 0.98231 0.0
C1324 C 0.33807 0.35989 0.99545 0.0
C1325 C 0.31073 0.35365 0.01991 0.0
C1326 C 0.32136 0.34323 0.01065 0.0
C1327 C 0.35351 0.31282 0.98393 0.0
C1328 C 0.34323 0.32328 0.99318 0.0
H1329 H 0.32723 0.32887 0.04139 0.0
H1330 H 0.3444 0.3131 0.0263 0.0
H1331 H 0.32434 0.39824 0.00563 0.0
H1332 H 0.33128 0.33283 0.96248 0.0
H1333 H 0.31527 0.34926 0.97765 0.0
C1334 C 0.66312 0.81299 0.2861 0.0
C1335 C 0.63425 0.7891 0.28783 0.0
C1336 C 0.6724 0.82235 0.27738 0.0
C1337 C 0.63711 0.82445 0.25424 0.0
H1338 H 0.73861 0.83641 0.24823 0.0
C1339 C 0.68697 0.84217 0.21801 0.0
C1340 C 0.71361 0.8686 0.21633 0.0
C1341 C 0.67726 0.83308 0.22673 0.0
C1342 C 0.71015 0.83358 0.24983 0.0
H1343 H 0.59249 0.75634 0.28164 0.0
H1344 H 0.60921 0.77224 0.26631 0.0
H1345 H 0.72161 0.81766 0.26327 0.0
H1346 H 0.75096 0.90612 0.2226 0.0
H1347 H 0.73404 0.88994 0.23793 0.0
H1348 H 0.62581 0.83988 0.24073 0.0
C1349 C 0.62431 0.78411 0.27177 0.0
C1350 C 0.70034 0.82281 0.25846 0.0
C1351 C 0.61484 0.77481 0.28056 0.0
C1352 C 0.7304 0.88564 0.22364 0.0
C1353 C 0.72081 0.87628 0.23242 0.0
C1354 C 0.64695 0.83498 0.2456 0.0
C1355 C 0.6533 0.80797 0.27008 0.0
C1356 C 0.66367 0.81825 0.26079 0.0
C1357 C 0.69401 0.84998 0.23404 0.0
C1358 C 0.68358 0.83972 0.2433 0.0
H1359 H 0.67863 0.82484 0.2915 0.0
H1360 H 0.69434 0.84137 0.27637 0.0
H1361 H 0.60862 0.82181 0.25582 0.0
H1362 H 0.67339 0.82834 0.21258 0.0
H1363 H 0.65691 0.81237 0.22775 0.0
C1364 C 0.11462 0.23006 0.4728 0.0
C1365 C 0.13394 0.21551 0.46554 0.0
C1366 C 0.12353 0.22028 0.48159 0.0
C1367 C 0.16851 0.14835 0.49465 0.0
H1368 H 0.17862 0.22211 0.51289 0.0
C1369 C 0.22805 0.11678 0.52968 0.0
C1370 C 0.21231 0.13459 0.53702 0.0
C1371 C 0.21852 0.12643 0.52093 0.0
C1372 C 0.17547 0.20105 0.50792 0.0
H1373 H 0.17783 0.1791 0.4619 0.0
H1374 H 0.19296 0.16222 0.47709 0.0
H1375 H 0.16018 0.23934 0.49784 0.0
H1376 H 0.17364 0.1762 0.54084 0.0
H1377 H 0.15665 0.19215 0.52575 0.0
H1378 H 0.18336 0.10995 0.50471 0.0
C1379 C 0.17084 0.18097 0.47602 0.0
C1380 C 0.16489 0.21099 0.49929 0.0
C1381 C 0.16222 0.19092 0.46729 0.0
C1382 C 0.18665 0.16198 0.53539 0.0
C1383 C 0.17701 0.1714 0.52668 0.0
C1384 C 0.17882 0.13834 0.50329 0.0
C1385 C 0.15165 0.19547 0.48327 0.0
C1386 C 0.16143 0.18478 0.49254 0.0
C1387 C 0.1929 0.15396 0.51932 0.0
C1388 C 0.18249 0.16456 0.51005 0.0
H1389 H 0.09268 0.249 0.4717 0.0
H1390 H 0.10812 0.23175 0.48706 0.0
H1391 H 0.1657 0.12746 0.48961 0.0
H1392 H 0.24792 0.09561 0.53069 0.0
H1393 H 0.23162 0.11264 0.51542 0.0
C1394 C 0.77566 0.61437 0.72332 0.0
C1395 C 0.79157 0.63195 0.71597 0.0
C1396 C 0.7851 0.62426 0.73207 0.0
C1397 C 0.85748 0.66897 0.74508 0.0
H1398 H 0.78248 0.68435 0.76278 0.0
C1399 C 0.88789 0.7327 0.77973 0.0
C1400 C 0.86946 0.71793 0.7871 0.0
C1401 C 0.87844 0.72257 0.771 0.0
C1402 C 0.80385 0.67977 0.75796 0.0
H1403 H 0.83015 0.67364 0.71211 0.0
H1404 H 0.84637 0.69051 0.72724 0.0
H1405 H 0.766 0.66399 0.74783 0.0
H1406 H 0.82673 0.6806 0.79099 0.0
H1407 H 0.81104 0.66271 0.77595 0.0
H1408 H 0.8954 0.68437 0.75521 0.0
C1409 C 0.82682 0.66899 0.72627 0.0
C1410 C 0.79435 0.66806 0.74939 0.0
C1411 C 0.81725 0.65938 0.71758 0.0
C1412 C 0.84148 0.69283 0.78552 0.0
C1413 C 0.83222 0.68267 0.77684 0.0
C1414 C 0.86703 0.68046 0.75367 0.0
C1415 C 0.81089 0.65164 0.73362 0.0
C1416 C 0.82104 0.66263 0.74284 0.0
C1417 C 0.85045 0.69739 0.76946 0.0
C1418 C 0.84033 0.68603 0.76023 0.0
H1419 H 0.75585 0.59313 0.72232 0.0
H1420 H 0.77253 0.61024 0.73761 0.0
H1421 H 0.87873 0.66465 0.74021 0.0
H1422 H 0.90955 0.75208 0.7807 0.0
H1423 H 0.89284 0.73475 0.76546 0.0
C1424 C 0.11505 0.0806 0.19885 0.0
C1425 C 0.14599 0.05895 0.19772 0.0
C1426 C 0.08055 0.06478 0.19923 0.0
C1427 C 0.03159 0.97976 0.19336 0.0
H1428 H 0.95767 0.01845 0.20907 0.0
C1429 C 0.89212 0.90974 0.1985 0.0
C1430 C 0.86193 0.93286 0.1981 0.0
C1431 C 0.92727 0.9241 0.19887 0.0
C1432 C 0.978 0.00743 0.20461 0.0
H1433 H 0.1649 0.00357 0.19633 0.0
H1434 H 0.10534 0.97621 0.1972 0.0
H1435 H 0.01768 0.04601 0.20886 0.0
H1436 H 0.84514 0.98922 0.19796 0.0
H1437 H 0.90596 0.01392 0.19863 0.0
H1438 H 0.99183 0.94106 0.18916 0.0
C1439 C 0.10738 0.00542 0.19756 0.0
C1440 C 0.01238 0.02334 0.20446 0.0
C1441 C 0.14168 0.02118 0.19711 0.0
C1442 C 0.86769 0.97053 0.19823 0.0
C1443 C 0.90262 0.98478 0.19868 0.0
C1444 C 0.99728 0.9637 0.19356 0.0
C1445 C 0.07626 0.02695 0.19855 0.0
C1446 C 0.03962 0.00986 0.19879 0.0
C1447 C 0.93287 0.96182 0.19896 0.0
C1448 C 0.97 0.97751 0.19914 0.0
H1449 H 0.11739 0.10977 0.1993 0.0
H1450 H 0.05721 0.0823 0.19989 0.0
H1451 H 0.0516 0.96896 0.18879 0.0
H1452 H 0.88863 0.88063 0.19841 0.0
H1453 H 0.95007 0.90569 0.19914 0.0
C1454 C 0.08409 0.39085 0.44868 0.0
C1455 C 0.06246 0.35992 0.44749 0.0
C1456 C 0.06829 0.42534 0.44907 0.0
C1457 C 0.98339 0.47443 0.44317 0.0
H1458 H 0.02169 0.54798 0.45904 0.0
C1459 C 0.91308 0.61363 0.44846 0.0
C1460 C 0.93615 0.64387 0.44814 0.0
C1461 C 0.92748 0.57849 0.44879 0.0
C1462 C 0.01078 0.52776 0.45454 0.0
H1463 H 0.00711 0.34105 0.44601 0.0
H1464 H 0.97976 0.4006 0.4469 0.0
H1465 H 0.04931 0.488 0.45877 0.0
H1466 H 0.99248 0.66079 0.44809 0.0
H1467 H 0.01727 0.59999 0.4487 0.0
H1468 H 0.94473 0.51426 0.43899 0.0
C1469 C 0.00896 0.39856 0.4473 0.0
C1470 C 0.02673 0.49339 0.45435 0.0
C1471 C 0.02471 0.36425 0.44684 0.0
C1472 C 0.97382 0.63819 0.44831 0.0
C1473 C 0.98813 0.60327 0.44872 0.0
C1474 C 0.96729 0.50871 0.44341 0.0
C1475 C 0.03047 0.42965 0.44835 0.0
C1476 C 0.01338 0.46629 0.44863 0.0
C1477 C 0.96521 0.57297 0.44892 0.0
C1478 C 0.98096 0.53586 0.44905 0.0
H1479 H 0.11325 0.38849 0.44917 0.0
H1480 H 0.0858 0.44868 0.44978 0.0
H1481 H 0.97269 0.45452 0.43856 0.0
H1482 H 0.88396 0.61706 0.44834 0.0
H1483 H 0.90912 0.55565 0.449 0.0
C1484 C 0.39216 0.41389 0.69841 0.0
C1485 C 0.36143 0.43608 0.69762 0.0
C1486 C 0.42692 0.42921 0.69872 0.0
C1487 C 0.47622 0.51446 0.69321 0.0
H1488 H 0.55101 0.47397 0.70837 0.0
C1489 C 0.61472 0.58526 0.6987 0.0
C1490 C 0.64531 0.56277 0.69807 0.0
C1491 C 0.57986 0.57024 0.699 0.0
C1492 C 0.53044 0.48547 0.70407 0.0
H1493 H 0.34321 0.49188 0.69677 0.0
H1494 H 0.40313 0.5183 0.69752 0.0
H1495 H 0.49101 0.44628 0.70813 0.0
H1496 H 0.66315 0.50679 0.69742 0.0
H1497 H 0.60273 0.48089 0.69798 0.0
H1498 H 0.51563 0.55381 0.68921 0.0
C1499 C 0.40075 0.48909 0.69766 0.0
C1500 C 0.49607 0.4695 0.7039 0.0
C1501 C 0.36622 0.47385 0.69728 0.0
C1502 C 0.64025 0.525 0.69789 0.0
C1503 C 0.60557 0.51006 0.69827 0.0
C1504 C 0.51048 0.53056 0.69343 0.0
C1505 C 0.43165 0.46705 0.6983 0.0
C1506 C 0.46848 0.48374 0.69846 0.0
C1507 C 0.57493 0.53244 0.69878 0.0
C1508 C 0.53804 0.5162 0.69884 0.0
H1509 H 0.38943 0.38472 0.69866 0.0
H1510 H 0.45009 0.41134 0.69913 0.0
H1511 H 0.45595 0.52583 0.6888 0.0
H1512 H 0.61767 0.61443 0.69885 0.0
H1513 H 0.55676 0.5882 0.69946 0.0
C1514 C 0.47699 0.14119 0.94773 0.0
C1515 C 0.43923 0.14617 0.9478 0.0
C1516 C 0.49199 0.10656 0.94806 0.0
C1517 C 0.47129 0.01085 0.95368 0.0
H1518 H 0.55726 0.99224 0.9395 0.0
C1519 C 0.52777 0.86702 0.94754 0.0
C1520 C 0.56552 0.8621 0.94797 0.0
C1521 C 0.51266 0.90164 0.94793 0.0
C1522 C 0.53353 0.99711 0.94359 0.0
H1523 H 0.38761 0.1184 0.94835 0.0
H1524 H 0.41385 0.05755 0.94875 0.0
H1525 H 0.52943 0.05198 0.93918 0.0
H1526 H 0.61696 0.88989 0.9492 0.0
H1527 H 0.59046 0.95065 0.94982 0.0
H1528 H 0.47516 0.95558 0.95794 0.0
C1529 C 0.43188 0.08065 0.94858 0.0
C1530 C 0.51751 0.03141 0.94341 0.0
C1531 C 0.41679 0.11552 0.94831 0.0
C1532 C 0.58781 0.89273 0.94886 0.0
C1533 C 0.57264 0.92752 0.94916 0.0
C1534 C 0.48719 0.97644 0.95381 0.0
C1535 C 0.46973 0.07574 0.94839 0.0
C1536 C 0.48623 0.03883 0.94848 0.0
C1537 C 0.53487 0.93234 0.94869 0.0
C1538 C 0.51853 0.96918 0.94877 0.0
H1539 H 0.4952 0.16414 0.94745 0.0
H1540 H 0.5212 0.10404 0.94813 0.0
H1541 H 0.44759 0.01564 0.95778 0.0
H1542 H 0.50972 0.84408 0.94687 0.0
H1543 H 0.48353 0.9044 0.94744 0.0
C1544 C 0.14207 0.48273 0.056 0.0
C1545 C 0.14634 0.44493 0.05548 0.0
C1546 C 0.10775 0.49847 0.05559 0.0
C1547 C 0.01246 0.48023 0.04898 0.0
H1548 H 0.99253 0.56314 0.06413 0.0
C1549 C 0.86801 0.53313 0.05548 0.0
C1550 C 0.86221 0.57079 0.0555 0.0
C1551 C 0.90294 0.5189 0.05498 0.0
C1552 C 0.99781 0.54032 0.05977 0.0
H1553 H 0.11768 0.39406 0.05409 0.0
H1554 H 0.05748 0.4215 0.05356 0.0
H1555 H 0.05234 0.53531 0.0644 0.0
H1556 H 0.88883 0.62304 0.05496 0.0
H1557 H 0.95027 0.59802 0.05416 0.0
H1558 H 0.95753 0.48487 0.04452 0.0
C1559 C 0.08085 0.43905 0.05412 0.0
C1560 C 0.03214 0.5243 0.05992 0.0
C1561 C 0.11536 0.42325 0.05447 0.0
C1562 C 0.89235 0.59393 0.05496 0.0
C1563 C 0.92751 0.57961 0.05454 0.0
C1564 C 0.97805 0.4961 0.04889 0.0
C1565 C 0.07659 0.47691 0.05472 0.0
C1566 C 0.03994 0.49397 0.05453 0.0
C1567 C 0.93315 0.54189 0.05455 0.0
C1568 C 0.97028 0.52624 0.05431 0.0
H1569 H 0.16532 0.50036 0.05669 0.0
H1570 H 0.10574 0.5277 0.05588 0.0
H1571 H 0.01757 0.45738 0.04462 0.0
H1572 H 0.8455 0.51442 0.05587 0.0
H1573 H 0.90632 0.48977 0.05512 0.0
C1574 C 0.52439 0.64086 0.30663 0.0
C1575 C 0.56213 0.64521 0.30591 0.0
C1576 C 0.50863 0.60655 0.30616 0.0
C1577 C 0.52623 0.51188 0.29896 0.0
H1578 H 0.44459 0.49064 0.31441 0.0
C1579 C 0.47345 0.36693 0.30487 0.0
C1580 C 0.43578 0.36124 0.30509 0.0
C1581 C 0.48775 0.40186 0.30448 0.0
C1582 C 0.46705 0.49629 0.30997 0.0
H1583 H 0.61287 0.61668 0.30412 0.0
H1584 H 0.5854 0.5565 0.30349 0.0
H1585 H 0.47256 0.55037 0.31489 0.0
H1586 H 0.38359 0.38804 0.305 0.0
H1587 H 0.40873 0.44947 0.30439 0.0
H1588 H 0.52107 0.45741 0.29419 0.0
C1589 C 0.56791 0.57981 0.30426 0.0
C1590 C 0.48315 0.53057 0.31023 0.0
C1591 C 0.58372 0.6143 0.30466 0.0
C1592 C 0.4127 0.39148 0.30484 0.0
C1593 C 0.4271 0.42663 0.30453 0.0
C1594 C 0.51027 0.47752 0.29874 0.0
C1595 C 0.53011 0.57548 0.30504 0.0
C1596 C 0.51302 0.53885 0.30474 0.0
C1597 C 0.46483 0.43217 0.30436 0.0
C1598 C 0.48057 0.46928 0.30427 0.0
H1599 H 0.50681 0.66404 0.30751 0.0
H1600 H 0.47944 0.6045 0.30661 0.0
H1601 H 0.5487 0.51738 0.29451 0.0
H1602 H 0.49211 0.34433 0.30503 0.0
H1603 H 0.51689 0.40515 0.30446 0.0
C1604 C 0.61175 0.91657 0.55512 0.0
C1605 C 0.6424 0.93877 0.55607 0.0
C1606 C 0.57698 0.93184 0.55476 0.0
C1607 C 0.52725 0.01677 0.56035 0.0
H1608 H 0.45341 0.97693 0.5448 0.0
C1609 C 0.38918 0.08787 0.55453 0.0
C1610 C 0.35854 0.06539 0.55502 0.0
C1611 C 0.42404 0.07283 0.55431 0.0
C1612 C 0.47371 0.98825 0.54921 0.0
H1613 H 0.66047 0.99455 0.55716 0.0
H1614 H 0.60056 0.0209 0.55632 0.0
H1615 H 0.51339 0.94925 0.54518 0.0
H1616 H 0.34059 0.00942 0.55546 0.0
H1617 H 0.40102 0.98347 0.55502 0.0
H1618 H 0.48759 0.05594 0.56431 0.0
C1619 C 0.60299 0.9917 0.5561 0.0
C1620 C 0.50807 0.97227 0.54947 0.0
C1621 C 0.63752 0.9765 0.55652 0.0
C1622 C 0.36354 0.02761 0.55511 0.0
C1623 C 0.39822 0.01265 0.5548 0.0
C1624 C 0.49301 0.03288 0.56004 0.0
C1625 C 0.57216 0.96965 0.55529 0.0
C1626 C 0.53533 0.98629 0.55505 0.0
C1627 C 0.42892 0.03502 0.55446 0.0
C1628 C 0.46579 0.01875 0.5545 0.0
H1629 H 0.61454 0.88741 0.55478 0.0
H1630 H 0.55386 0.91395 0.55422 0.0
H1631 H 0.54725 0.02795 0.56487 0.0
H1632 H 0.38628 0.11705 0.55446 0.0
H1633 H 0.44718 0.09078 0.55398 0.0
C1634 C 0.02513 0.145 0.80656 0.0
C1635 C 0.06288 0.14952 0.80598 0.0
C1636 C 0.00957 0.11061 0.80612 0.0
C1637 C 0.02793 0.01571 0.79924 0.0
H1638 H 0.9453 0.99506 0.81441 0.0
C1639 C 0.97411 0.87103 0.80516 0.0
C1640 C 0.93639 0.86559 0.80523 0.0
C1641 C 0.98866 0.90587 0.80478 0.0
C1642 C 0.96805 1.00054 0.81005 0.0
H1643 H 0.11387 0.12119 0.80444 0.0
H1644 H 0.08673 0.06083 0.80385 0.0
H1645 H 0.97328 0.05477 0.81487 0.0
H1646 H 0.88439 0.89273 0.8049 0.0
H1647 H 0.90996 0.95397 0.80431 0.0
H1648 H 0.02303 0.96107 0.79457 0.0
C1649 C 0.06908 0.08409 0.8045 0.0
C1650 C 0.98415 0.03481 0.8103 0.0
C1651 C 0.08471 0.11868 0.80488 0.0
C1652 C 0.91353 0.89598 0.80485 0.0
C1653 C 0.92818 0.93101 0.80456 0.0
C1654 C 0.01196 0.98134 0.79903 0.0
C1655 C 0.03127 0.07961 0.80515 0.0
C1656 C 0.01433 0.0429 0.8049 0.0
C1657 C 0.96594 0.93631 0.80453 0.0
C1658 C 0.98188 0.97333 0.80445 0.0
H1659 H 0.00738 0.16812 0.80733 0.0
H1660 H 0.98036 0.10844 0.80645 0.0
H1661 H 0.05068 0.02105 0.79487 0.0
H1662 H 0.9926 0.84831 0.80542 0.0
H1663 H 0.01782 0.90897 0.80487 0.0
C1664 C 0.61705 0.92524 0.17804 0.0
C1665 C 0.63453 0.92616 0.18637 0.0
C1666 C 0.58532 0.94546 0.17664 0.0
C1667 C 0.53697 0.02448 0.18642 0.0
H1668 H 0.45374 0.98989 0.17315 0.0
C1669 C 0.39214 0.07287 0.19241 0.0
C1670 C 0.37145 0.08374 0.18503 0.0
C1671 C 0.42622 0.05748 0.1912 0.0
C1672 C 0.47709 1.00008 0.17674 0.0
H1673 H 0.63142 0.94667 0.19992 0.0
H1674 H 0.57597 0.98042 0.19764 0.0
H1675 H 0.50892 0.95299 0.17375 0.0
H1676 H 0.36969 0.08713 0.1706 0.0
H1677 H 0.4296 0.05891 0.16843 0.0
H1678 H 0.50451 0.07051 0.18981 0.0
C1679 C 0.58717 0.96556 0.19204 0.0
C1680 C 0.50864 0.979 0.17709 0.0
C1681 C 0.6188 0.94587 0.19339 0.0
C1682 C 0.38555 0.07942 0.17638 0.0
C1683 C 0.41949 0.06307 0.17515 0.0
C1684 C 0.50544 0.0452 0.18616 0.0
C1685 C 0.57059 0.96663 0.18359 0.0
C1686 C 0.53856 0.99048 0.18218 0.0
C1687 C 0.43995 0.05182 0.18257 0.0
C1688 C 0.47494 0.0328 0.1815 0.0
H1689 H 0.62882 0.91042 0.17251 0.0
H1690 H 0.57317 0.94562 0.17006 0.0
H1691 H 0.55986 0.03475 0.19017 0.0
H1692 H 0.3816 0.07569 0.19914 0.0
H1693 H 0.44134 0.04876 0.19702 0.0
C1694 C 0.94827 0.8872 0.4435 0.0
C1695 C 0.92916 0.8712 0.43642 0.0
C1696 C 0.968 0.91883 0.44218 0.0
C1697 C 0.98268 0.99681 0.42712 0.0
H1698 H 0.07321 1.00135 0.44024 0.0
C1699 C 0.08345 0.11963 0.4265 0.0
C1700 C 0.08726 0.13411 0.43513 0.0
C1701 C 0.06707 0.08569 0.4253 0.0
C1702 C 0.04818 1.0003 0.43647 0.0
H1703 H 0.91452 0.87642 0.42247 0.0
H1704 H 0.94981 0.93204 0.42008 0.0
H1705 H 0.03733 0.94607 0.44058 0.0
H1706 H 0.07827 0.1246 0.44924 0.0
H1707 H 0.05126 0.06485 0.44717 0.0
H1708 H 0.99399 0.05151 0.42308 0.0
C1709 C 0.94914 0.92013 0.42669 0.0
C1710 C 0.02738 0.96882 0.43673 0.0
C1711 C 0.92886 0.88841 0.42805 0.0
C1712 C 0.07584 0.11378 0.44253 0.0
C1713 C 0.06041 0.07969 0.44134 0.0
C1714 C 0.00386 0.02831 0.42678 0.0
C1715 C 0.96974 0.93512 0.43371 0.0
C1716 C 0.99372 0.96709 0.43234 0.0
C1717 C 0.05527 0.0656 0.43273 0.0
C1718 C 0.03621 0.03061 0.43168 0.0
H1719 H 0.94859 0.87478 0.45006 0.0
H1720 H 0.98241 0.93024 0.44782 0.0
H1721 H 0.95694 0.99642 0.42366 0.0
H1722 H 0.09159 0.13522 0.42071 0.0
H1723 H 0.06331 0.07529 0.41859 0.0
C1724 C 0.11703 0.43821 0.6936 0.0
C1725 C 0.13411 0.42148 0.68632 0.0
C1726 C 0.08516 0.4577 0.69241 0.0
C1727 C 0.00887 0.47631 0.67707 0.0
H1728 H 0.00314 0.56354 0.69148 0.0
C1729 C 0.88709 0.57878 0.6771 0.0
C1730 C 0.87167 0.58073 0.68567 0.0
C1731 C 0.92083 0.56199 0.67587 0.0
C1732 C 0.00453 0.53944 0.68736 0.0
H1733 H 0.13066 0.41065 0.67213 0.0
H1734 H 0.0746 0.44552 0.66997 0.0
H1735 H 0.05816 0.52728 0.6917 0.0
H1736 H 0.87945 0.56802 0.69967 0.0
H1737 H 0.93875 0.54023 0.69758 0.0
H1738 H 0.95473 0.48894 0.6728 0.0
C1739 C 0.0858 0.44315 0.67663 0.0
C1740 C 0.03585 0.51842 0.68754 0.0
C1741 C 0.11774 0.42309 0.67786 0.0
C1742 C 0.8909 0.56695 0.693 0.0
C1743 C 0.92476 0.55109 0.69181 0.0
C1744 C 0.97751 0.49773 0.67681 0.0
C1745 C 0.06979 0.46159 0.68387 0.0
C1746 C 0.03797 0.48589 0.68267 0.0
C1747 C 0.93981 0.54793 0.68324 0.0
C1748 C 0.97477 0.52887 0.68217 0.0
H1749 H 0.12893 0.43707 0.70021 0.0
H1750 H 0.07297 0.47042 0.6982 0.0
H1751 H 0.0096 0.45147 0.67323 0.0
H1752 H 0.87244 0.58883 0.67134 0.0
H1753 H 0.932 0.55981 0.6692 0.0
C1754 C 0.44595 0.3901 0.94353 0.0
C1755 C 0.42801 0.37353 0.93634 0.0
C1756 C 0.4656 0.42182 0.94227 0.0
C1757 C 0.4823 0.49892 0.92706 0.0
H1758 H 0.57126 0.50388 0.94081 0.0
C1759 C 0.58392 0.62126 0.92684 0.0
C1760 C 0.58673 0.63612 0.93546 0.0
C1761 C 0.56737 0.58742 0.9256 0.0
C1762 C 0.54668 0.50271 0.93687 0.0
H1763 H 0.41527 0.37782 0.92227 0.0
H1764 H 0.45042 0.43363 0.91998 0.0
H1765 H 0.53516 0.44875 0.94108 0.0
H1766 H 0.5758 0.62729 0.94951 0.0
H1767 H 0.54848 0.56776 0.94739 0.0
H1768 H 0.49427 0.55337 0.92293 0.0
C1769 C 0.44889 0.4221 0.92662 0.0
C1770 C 0.52576 0.47132 0.93708 0.0
C1771 C 0.42868 0.39029 0.92792 0.0
C1772 C 0.57411 0.61623 0.94281 0.0
C1773 C 0.55851 0.58225 0.9416 0.0
C1774 C 0.50361 0.53033 0.92677 0.0
C1775 C 0.46844 0.4376 0.93375 0.0
C1776 C 0.49262 0.46945 0.93246 0.0
C1777 C 0.55442 0.56778 0.93299 0.0
C1778 C 0.53539 0.5328 0.9319 0.0
H1779 H 0.44552 0.37796 0.95012 0.0
H1780 H 0.47919 0.43362 0.94798 0.0
H1781 H 0.45698 0.4984 0.92342 0.0
H1782 H 0.59303 0.63646 0.92108 0.0
H1783 H 0.56445 0.57671 0.9189 0.0
C1784 C 0.61732 0.5783 0.07558 0.0
C1785 C 0.63478 0.57773 0.06724 0.0
C1786 C 0.58556 0.55808 0.07693 0.0
C1787 C 0.53715 0.47952 0.06695 0.0
H1788 H 0.45393 0.5135 0.08033 0.0
C1789 C 0.39239 0.43119 0.06086 0.0
C1790 C 0.37167 0.42005 0.06821 0.0
C1791 C 0.42645 0.44658 0.06211 0.0
C1792 C 0.47728 0.50347 0.07671 0.0
H1793 H 0.63157 0.55788 0.05363 0.0
H1794 H 0.57605 0.52413 0.05584 0.0
H1795 H 0.50911 0.55045 0.07981 0.0
H1796 H 0.36987 0.41616 0.08264 0.0
H1797 H 0.42976 0.44437 0.08487 0.0
H1798 H 0.5047 0.43363 0.06345 0.0
C1799 C 0.5873 0.53872 0.06147 0.0
C1800 C 0.50883 0.52459 0.0764 0.0
C1801 C 0.61897 0.5584 0.06017 0.0
C1802 C 0.38575 0.42409 0.07687 0.0
C1803 C 0.41967 0.44043 0.07815 0.0
C1804 C 0.50563 0.45878 0.06717 0.0
C1805 C 0.57077 0.53726 0.06993 0.0
C1806 C 0.53874 0.51334 0.07128 0.0
C1807 C 0.44015 0.45195 0.07076 0.0
C1808 C 0.47513 0.47096 0.07186 0.0
H1809 H 0.62916 0.59283 0.08115 0.0
H1810 H 0.57344 0.55763 0.08352 0.0
H1811 H 0.56004 0.46942 0.06317 0.0
H1812 H 0.38188 0.42858 0.05412 0.0
H1813 H 0.44159 0.45551 0.05631 0.0
C1814 C 0.42858 0.1168 0.32524 0.0
C1815 C 0.42886 0.13394 0.31687 0.0
C1816 C 0.44886 0.08509 0.32661 0.0
C1817 C 0.52706 0.03632 0.31658 0.0
H1818 H 0.49373 0.95372 0.33027 0.0
C1819 C 0.57557 0.89135 0.31083 0.0
C1820 C 0.58697 0.87104 0.31823 0.0
C1821 C 0.56014 0.92543 0.312 0.0
C1822 C 0.50358 0.9769 0.32656 0.0
H1823 H 0.44823 0.13025 0.30323 0.0
H1824 H 0.48205 0.0748 0.30548 0.0
H1825 H 0.45667 0.0088 0.32968 0.0
H1826 H 0.59127 0.86999 0.33265 0.0
H1827 H 0.56298 0.92991 0.33475 0.0
H1828 H 0.57288 0.00377 0.31307 0.0
C1829 C 0.46767 0.08625 0.31112 0.0
C1830 C 0.4824 0.00839 0.32621 0.0
C1831 C 0.44794 0.11788 0.30979 0.0
C1832 C 0.58314 0.88555 0.32685 0.0
C1833 C 0.56676 0.91949 0.32805 0.0
C1834 C 0.54786 0.00484 0.31684 0.0
C1835 C 0.46943 0.07004 0.3196 0.0
C1836 C 0.49342 0.03808 0.32098 0.0
C1837 C 0.55497 0.93956 0.32061 0.0
C1838 C 0.53592 0.97456 0.32165 0.0
H1839 H 0.41426 0.12884 0.33082 0.0
H1840 H 0.44955 0.07322 0.33323 0.0
H1841 H 0.53699 0.05903 0.31271 0.0
H1842 H 0.57802 0.88051 0.30412 0.0
H1843 H 0.551 0.94025 0.30617 0.0
C1844 C 0.88609 0.9267 0.5759 0.0
C1845 C 0.86973 0.92452 0.56745 0.0
C1846 C 0.91807 0.94679 0.57704 0.0
C1847 C 0.96809 0.02125 0.56583 0.0
H1848 H 0.04925 0.99273 0.58066 0.0
C1849 C 0.11301 0.06943 0.56014 0.0
C1850 C 0.13226 0.08373 0.56741 0.0
C1851 C 0.07918 0.0536 0.5614 0.0
C1852 C 0.02646 1.00125 0.57662 0.0
H1853 H 0.87497 0.9391 0.55349 0.0
H1854 H 0.931 0.9725 0.55537 0.0
H1855 H 0.99435 0.95526 0.58039 0.0
H1856 H 0.13154 0.09278 0.58171 0.0
H1857 H 0.07203 0.06383 0.58398 0.0
H1858 H 1.0008 0.06607 0.5617 0.0
C1859 C 0.91877 0.96021 0.5612 0.0
C1860 C 0.99509 0.97984 0.57645 0.0
C1861 C 0.88687 0.94069 0.5601 0.0
C1862 C 0.11688 0.08232 0.57599 0.0
C1863 C 0.08317 0.06557 0.57729 0.0
C1864 C 0.99942 0.04226 0.56592 0.0
C1865 C 0.93412 0.96469 0.56973 0.0
C1866 C 0.96596 0.98905 0.57083 0.0
C1867 C 0.06417 0.051 0.56999 0.0
C1868 C 0.0292 0.03202 0.57114 0.0
H1869 H 0.87312 0.9147 0.58168 0.0
H1870 H 0.92926 0.94962 0.58369 0.0
H1871 H 0.94577 0.02984 0.56164 0.0
H1872 H 0.12441 0.07007 0.55346 0.0
H1873 H 0.06517 0.04234 0.55567 0.0
C1874 C 0.92693 0.62195 0.82544 0.0
C1875 C 0.926 0.63846 0.81699 0.0
C1876 C 0.94711 0.59014 0.82675 0.0
C1877 C 0.02353 0.54049 0.81621 0.0
H1878 H 0.99257 0.45902 0.83064 0.0
C1879 C 0.07188 0.3954 0.81075 0.0
C1880 C 0.08475 0.37584 0.81813 0.0
C1881 C 0.05625 0.4294 0.81191 0.0
C1882 C 1.00177 0.4819 0.82672 0.0
H1883 H 0.94302 0.63361 0.80318 0.0
H1884 H 0.97664 0.57793 0.80534 0.0
H1885 H 0.95527 0.51397 0.8301 0.0
H1886 H 0.09147 0.3761 0.8325 0.0
H1887 H 0.06284 0.43589 0.83458 0.0
H1888 H 0.06891 0.50778 0.81245 0.0
C1889 C 0.96328 0.58993 0.81106 0.0
C1890 C 0.98045 0.5133 0.82639 0.0
C1891 C 0.94365 0.62166 0.80979 0.0
C1892 C 0.08216 0.39104 0.82671 0.0
C1893 C 0.06558 0.42491 0.8279 0.0
C1894 C 0.04447 0.50911 0.81645 0.0
C1895 C 0.96638 0.57439 0.8196 0.0
C1896 C 0.99057 0.54255 0.82091 0.0
C1897 C 0.05238 0.44422 0.82049 0.0
C1898 C 0.03336 0.47922 0.82152 0.0
H1899 H 0.91375 0.63461 0.8311 0.0
H1900 H 0.94886 0.57881 0.83341 0.0
H1901 H 0.0328 0.56289 0.81214 0.0
H1902 H 0.07341 0.38408 0.80408 0.0
H1903 H 0.04603 0.44363 0.8061 0.0
loop_
_geom_bond_atom_site_label_1
_geom_bond_atom_site_label_2
_geom_bond_distance
_geom_bond_site_symmetry_2
_ccdc_geom_bond_type
Co0 O2 2.143 . S
Co0 O8 2.074 . S
Co0 O11 2.093 . S
Co0 O24 2.097 . S
Co0 N41 2.151 . S
Co0 N49 2.214 . S
Co1 O2 2.160 . S
Co1 O7 2.058 . S
Co1 O17 2.057 . S
Co1 O32 2.037 . S
Co1 N36 2.145 . S
Co1 N57 2.257 . S
O2 Co0 2.143 . S
O2 Co1 2.160 . S
C3 O4 1.278 . S
C3 O11 1.224 . S
O4 C3 1.278 . S
C5 O6 1.245 . S
C5 O17 1.232 . S
O6 C5 1.245 . S
O7 Co1 2.058 . S
O7 C33 1.269 . S
O8 Co0 2.074 . S
O8 C33 1.257 . S
H9 C34 0.930 . S
H10 C40 0.930 . S
O11 Co0 2.093 . S
O11 C3 1.224 . S
H12 C44 0.929 . S
H13 C46 0.930 . S
H14 C47 0.930 . S
H15 C45 0.929 . S
H16 C48 0.928 . S
O17 Co1 2.057 . S
O17 C5 1.232 . S
H18 C37 0.929 . S
H19 C38 0.923 1_545 S
H20 C50 0.931 . S
H21 C42 0.929 . S
H22 C51 0.930 . S
H23 C43 0.931 . S
O24 Co0 2.097 . S
O24 C52 1.214 . S
H25 C53 0.929 . S
H26 C54 0.929 . S
H27 C55 0.930 . S
H28 C56 0.929 1_565 S
H29 C58 0.930 . S
H30 C35 0.930 . S
H31 C39 0.930 . S
O32 Co1 2.037 . S
O32 C52 1.234 . S
C33 O7 1.269 . S
C33 O8 1.257 . S
C34 H9 0.930 . S
C34 C37 1.388 1_565 S
C34 C39 1.418 . S
C35 H30 0.930 . S
C35 C38 1.428 . S
C35 C39 1.353 . S
N36 Co1 2.145 . S
N36 C37 1.397 . S
N36 C38 1.317 1_545 S
C37 H18 0.929 . S
C37 C34 1.388 1_545 S
C37 N36 1.397 . S
C38 H19 0.923 1_565 S
C38 C35 1.428 . S
C38 N36 1.317 1_565 S
C39 H31 0.930 . S
C39 C34 1.418 . S
C39 C35 1.353 . S
C40 H10 0.930 . S
C40 N41 1.330 . S
C40 C42 1.446 . S
N41 Co0 2.151 . S
N41 C40 1.330 . S
N41 C45 1.418 . S
C42 H21 0.929 . S
C42 C40 1.446 . S
C42 C43 1.332 . S
C43 H23 0.931 . S
C43 C42 1.332 . S
C43 C44 1.267 . S
C44 H12 0.929 . S
C44 C43 1.267 . S
C44 C45 1.251 . S
C45 H15 0.929 . S
C45 N41 1.418 . S
C45 C44 1.251 . S
C46 H13 0.930 . S
C46 C48 1.406 . S
C46 C51 1.261 . S
C47 H14 0.930 . S
C47 N49 1.325 . S
C47 C50 1.357 . S
C48 H16 0.928 . S
C48 C46 1.406 . S
C48 N49 1.261 . S
N49 Co0 2.214 . S
N49 C47 1.325 . S
N49 C48 1.261 . S
C50 H20 0.931 . S
C50 C47 1.357 . S
C50 C51 1.312 . S
C51 H22 0.930 . S
C51 C46 1.261 . S
C51 C50 1.312 . S
C52 O24 1.214 . S
C52 O32 1.234 . S
C53 H25 0.929 . S
C53 C56 1.391 . S
C53 C58 1.391 . S
C54 H26 0.929 . S
C54 C55 1.390 1_545 S
C54 N57 1.391 . S
C55 H27 0.930 . S
C55 C54 1.390 1_565 S
C55 C56 1.392 1_565 S
C56 H28 0.929 1_545 S
C56 C53 1.391 . S
C56 C55 1.392 1_545 S
N57 Co1 2.257 . S
N57 C54 1.391 . S
N57 C58 1.388 . S
C58 H29 0.930 . S
C58 C53 1.391 . S
C58 N57 1.388 . S
Co59 O61 2.143 . S
Co59 O67 2.074 . S
Co59 O70 2.093 . S
Co59 O83 2.097 . S
Co59 N100 2.151 . S
Co59 N108 2.214 . S
Co60 O61 2.160 . S
Co60 O66 2.058 . S
Co60 O76 2.057 . S
Co60 O91 2.037 . S
Co60 N95 2.145 . S
Co60 N116 2.257 . S
O61 Co59 2.143 . S
O61 Co60 2.160 . S
C62 O63 1.278 . S
C62 O70 1.224 . S
O63 C62 1.278 . S
C64 O65 1.245 . S
C64 O76 1.232 . S
O65 C64 1.245 . S
O66 Co60 2.058 . S
O66 C92 1.269 . S
O67 Co59 2.074 . S
O67 C92 1.257 . S
H68 C93 0.930 . S
H69 C99 0.930 . S
O70 Co59 2.093 . S
O70 C62 1.224 . S
H71 C103 0.929 . S
H72 C105 0.930 . S
H73 C106 0.930 . S
H74 C104 0.929 . S
H75 C107 0.928 . S
O76 Co60 2.057 . S
O76 C64 1.232 . S
H77 C96 0.929 . S
H78 C97 0.923 1_655 S
H79 C109 0.931 . S
H80 C101 0.929 . S
H81 C110 0.930 . S
H82 C102 0.931 . S
O83 Co59 2.097 . S
O83 C111 1.214 . S
H84 C112 0.929 . S
H85 C113 0.929 . S
H86 C114 0.930 . S
H87 C115 0.929 1_455 S
H88 C117 0.930 . S
H89 C94 0.930 . S
H90 C98 0.930 . S
O91 Co60 2.037 . S
O91 C111 1.234 . S
C92 O66 1.269 . S
C92 O67 1.257 . S
C93 H68 0.930 . S
C93 C96 1.388 1_455 S
C93 C98 1.418 . S
C94 H89 0.930 . S
C94 C97 1.428 . S
C94 C98 1.353 . S
N95 Co60 2.145 . S
N95 C96 1.397 . S
N95 C97 1.317 1_655 S
C96 H77 0.929 . S
C96 C93 1.388 1_655 S
C96 N95 1.397 . S
C97 H78 0.923 1_455 S
C97 C94 1.428 . S
C97 N95 1.317 1_455 S
C98 H90 0.930 . S
C98 C93 1.418 . S
C98 C94 1.353 . S
C99 H69 0.930 . S
C99 N100 1.330 . S
C99 C101 1.446 . S
N100 Co59 2.151 . S
N100 C99 1.330 . S
N100 C104 1.418 . S
C101 H80 0.929 . S
C101 C99 1.446 . S
C101 C102 1.332 . S
C102 H82 0.931 . S
C102 C101 1.332 . S
C102 C103 1.267 . S
C103 H71 0.929 . S
C103 C102 1.267 . S
C103 C104 1.251 . S
C104 H74 0.929 . S
C104 N100 1.418 . S
C104 C103 1.251 . S
C105 H72 0.930 . S
C105 C107 1.406 . S
C105 C110 1.261 . S
C106 H73 0.930 . S
C106 N108 1.325 . S
C106 C109 1.357 . S
C107 H75 0.928 . S
C107 C105 1.406 . S
C107 N108 1.261 . S
N108 Co59 2.214 . S
N108 C106 1.325 . S
N108 C107 1.261 . S
C109 H79 0.931 . S
C109 C106 1.357 . S
C109 C110 1.312 . S
C110 H81 0.930 . S
C110 C105 1.261 . S
C110 C109 1.312 . S
C111 O83 1.214 . S
C111 O91 1.234 . S
C112 H84 0.929 . S
C112 C115 1.391 . S
C112 C117 1.391 . S
C113 H85 0.929 . S
C113 C114 1.390 1_655 S
C113 N116 1.391 . S
C114 H86 0.930 . S
C114 C113 1.390 1_455 S
C114 C115 1.392 1_455 S
C115 H87 0.929 1_655 S
C115 C112 1.391 . S
C115 C114 1.392 1_655 S
N116 Co60 2.257 . S
N116 C113 1.391 . S
N116 C117 1.388 . S
C117 H88 0.930 . S
C117 C112 1.391 . S
C117 N116 1.388 . S
Co118 O120 2.143 . S
Co118 O126 2.074 . S
Co118 O129 2.093 . S
Co118 O142 2.097 . S
Co118 N159 2.151 . S
Co118 N167 2.214 . S
Co119 O120 2.160 . S
Co119 O125 2.058 . S
Co119 O135 2.057 . S
Co119 O150 2.037 . S
Co119 N154 2.145 . S
Co119 N175 2.257 . S
O120 Co118 2.143 . S
O120 Co119 2.160 . S
C121 O122 1.278 . S
C121 O129 1.224 . S
O122 C121 1.278 . S
C123 O124 1.245 . S
C123 O135 1.232 . S
O124 C123 1.245 . S
O125 Co119 2.058 . S
O125 C151 1.269 . S
O126 Co118 2.074 . S
O126 C151 1.257 . S
H127 C152 0.930 . S
H128 C158 0.930 . S
O129 Co118 2.093 . S
O129 C121 1.224 . S
H130 C162 0.929 . S
H131 C164 0.930 . S
H132 C165 0.930 . S
H133 C163 0.929 . S
H134 C166 0.928 . S
O135 Co119 2.057 . S
O135 C123 1.232 . S
H136 C155 0.929 . S
H137 C156 0.929 . S
H138 C168 0.931 . S
H139 C160 0.929 . S
H140 C169 0.930 . S
H141 C161 0.931 . S
O142 Co118 2.097 . S
O142 C170 1.214 . S
H143 C171 0.929 . S
H144 C172 0.929 . S
H145 C173 0.930 . S
H146 C174 0.929 . S
H147 C176 0.930 . S
H148 C153 0.930 . S
H149 C157 0.930 . S
O150 Co119 2.037 . S
O150 C170 1.234 . S
C151 O125 1.269 . S
C151 O126 1.257 . S
C152 H127 0.930 . S
C152 C155 1.388 . S
C152 C157 1.418 . S
C153 H148 0.930 . S
C153 C156 1.404 . S
C153 C157 1.353 . S
N154 Co119 2.145 . S
N154 C155 1.397 . S
N154 C156 1.334 . S
C155 H136 0.929 . S
C155 C152 1.388 . S
C155 N154 1.397 . S
C156 H137 0.929 . S
C156 C153 1.404 . S
C156 N154 1.334 . S
C157 H149 0.930 . S
C157 C152 1.418 . S
C157 C153 1.353 . S
C158 H128 0.930 . S
C158 N159 1.330 . S
C158 C160 1.446 . S
N159 Co118 2.151 . S
N159 C158 1.330 . S
N159 C163 1.418 . S
C160 H139 0.929 . S
C160 C158 1.446 . S
C160 C161 1.332 . S
C161 H141 0.931 . S
C161 C160 1.332 . S
C161 C162 1.267 . S
C162 H130 0.929 . S
C162 C161 1.267 . S
C162 C163 1.251 . S
C163 H133 0.929 . S
C163 N159 1.418 . S
C163 C162 1.251 . S
C164 H131 0.930 . S
C164 C166 1.406 . S
C164 C169 1.261 . S
C165 H132 0.930 . S
C165 N167 1.325 . S
C165 C168 1.357 . S
C166 H134 0.928 . S
C166 C164 1.406 . S
C166 N167 1.261 . S
N167 Co118 2.214 . S
N167 C165 1.325 . S
N167 C166 1.261 . S
C168 H138 0.931 . S
C168 C165 1.357 . S
C168 C169 1.312 . S
C169 H140 0.930 . S
C169 C164 1.261 . S
C169 C168 1.312 . S
C170 O142 1.214 . S
C170 O150 1.234 . S
C171 H143 0.929 . S
C171 C174 1.391 . S
C171 C176 1.391 . S
C172 H144 0.929 . S
C172 C173 1.390 . S
C172 N175 1.391 . S
C173 H145 0.930 . S
C173 C172 1.390 . S
C173 C174 1.392 . S
C174 H146 0.929 . S
C174 C171 1.391 . S
C174 C173 1.392 . S
N175 Co119 2.257 . S
N175 C172 1.391 . S
N175 C176 1.388 . S
C176 H147 0.930 . S
C176 C171 1.391 . S
C176 N175 1.388 . S
Co177 O179 2.143 . S
Co177 O185 2.074 . S
Co177 O188 2.093 . S
Co177 O201 2.097 . S
Co177 N218 2.151 . S
Co177 N226 2.214 . S
Co178 O179 2.160 . S
Co178 O184 2.058 . S
Co178 O194 2.057 . S
Co178 O209 2.037 . S
Co178 N213 2.145 . S
Co178 N234 2.257 . S
O179 Co177 2.143 . S
O179 Co178 2.160 . S
C180 O181 1.278 . S
C180 O188 1.224 . S
O181 C180 1.278 . S
C182 O183 1.245 . S
C182 O194 1.232 . S
O183 C182 1.245 . S
O184 Co178 2.058 . S
O184 C210 1.269 . S
O185 Co177 2.074 . S
O185 C210 1.257 . S
H186 C211 0.930 . S
H187 C217 0.930 . S
O188 Co177 2.093 . S
O188 C180 1.224 . S
H189 C221 0.929 . S
H190 C223 0.930 . S
H191 C224 0.930 . S
H192 C222 0.929 . S
H193 C225 0.928 . S
O194 Co178 2.057 . S
O194 C182 1.232 . S
H195 C214 0.929 . S
H196 C215 0.929 . S
H197 C227 0.931 . S
H198 C219 0.929 . S
H199 C228 0.930 . S
H200 C220 0.931 . S
O201 Co177 2.097 . S
O201 C229 1.214 . S
H202 C230 0.929 . S
H203 C231 0.929 . S
H204 C232 0.930 . S
H205 C233 0.929 . S
H206 C235 0.930 . S
H207 C212 0.930 . S
H208 C216 0.930 . S
O209 Co178 2.037 . S
O209 C229 1.234 . S
C210 O184 1.269 . S
C210 O185 1.257 . S
C211 H186 0.930 . S
C211 C214 1.388 . S
C211 C216 1.418 . S
C212 H207 0.930 . S
C212 C215 1.404 . S
C212 C216 1.353 . S
N213 Co178 2.145 . S
N213 C214 1.397 . S
N213 C215 1.334 . S
C214 H195 0.929 . S
C214 C211 1.388 . S
C214 N213 1.397 . S
C215 H196 0.929 . S
C215 C212 1.404 . S
C215 N213 1.334 . S
C216 H208 0.930 . S
C216 C211 1.418 . S
C216 C212 1.353 . S
C217 H187 0.930 . S
C217 N218 1.330 . S
C217 C219 1.446 . S
N218 Co177 2.151 . S
N218 C217 1.330 . S
N218 C222 1.418 . S
C219 H198 0.929 . S
C219 C217 1.446 . S
C219 C220 1.332 . S
C220 H200 0.931 . S
C220 C219 1.332 . S
C220 C221 1.267 . S
C221 H189 0.929 . S
C221 C220 1.267 . S
C221 C222 1.251 . S
C222 H192 0.929 . S
C222 N218 1.418 . S
C222 C221 1.251 . S
C223 H190 0.930 . S
C223 C225 1.406 . S
C223 C228 1.261 . S
C224 H191 0.930 . S
C224 N226 1.325 . S
C224 C227 1.357 . S
C225 H193 0.928 . S
C225 C223 1.406 . S
C225 N226 1.261 . S
N226 Co177 2.214 . S
N226 C224 1.325 . S
N226 C225 1.261 . S
C227 H197 0.931 . S
C227 C224 1.357 . S
C227 C228 1.312 . S
C228 H199 0.930 . S
C228 C223 1.261 . S
C228 C227 1.312 . S
C229 O201 1.214 . S
C229 O209 1.234 . S
C230 H202 0.929 . S
C230 C233 1.391 . S
C230 C235 1.391 . S
C231 H203 0.929 . S
C231 C232 1.390 . S
C231 N234 1.391 . S
C232 H204 0.930 . S
C232 C231 1.390 . S
C232 C233 1.392 . S
C233 H205 0.929 . S
C233 C230 1.391 . S
C233 C232 1.392 . S
N234 Co178 2.257 . S
N234 C231 1.391 . S
N234 C235 1.388 . S
C235 H206 0.930 . S
C235 C230 1.391 . S
C235 N234 1.388 . S
Co236 O238 2.143 . S
Co236 O244 2.074 . S
Co236 O247 2.093 . S
Co236 O260 2.097 . S
Co236 N277 2.151 . S
Co236 N285 2.214 . S
Co237 O238 2.160 . S
Co237 O243 2.058 . S
Co237 O253 2.057 . S
Co237 O268 2.037 . S
Co237 N272 2.145 . S
Co237 N293 2.257 . S
O238 Co236 2.143 . S
O238 Co237 2.160 . S
C239 O240 1.278 . S
C239 O247 1.224 . S
O240 C239 1.278 . S
C241 O242 1.245 . S
C241 O253 1.232 . S
O242 C241 1.245 . S
O243 Co237 2.058 . S
O243 C269 1.269 . S
O244 Co236 2.074 . S
O244 C269 1.257 . S
H245 C270 0.930 . S
H246 C276 0.930 . S
O247 Co236 2.093 . S
O247 C239 1.224 . S
H248 C280 0.929 . S
H249 C282 0.930 . S
H250 C283 0.930 . S
H251 C281 0.929 . S
H252 C284 0.928 . S
O253 Co237 2.057 . S
O253 C241 1.232 . S
H254 C273 0.929 . S
H255 C274 0.929 . S
H256 C286 0.931 . S
H257 C278 0.929 . S
H258 C287 0.930 . S
H259 C279 0.931 . S
O260 Co236 2.097 . S
O260 C288 1.214 . S
H261 C289 0.929 . S
H262 C290 0.929 . S
H263 C291 0.930 . S
H264 C292 0.929 . S
H265 C294 0.930 . S
H266 C271 0.930 . S
H267 C275 0.930 . S
O268 Co237 2.037 . S
O268 C288 1.234 . S
C269 O243 1.269 . S
C269 O244 1.257 . S
C270 H245 0.930 . S
C270 C273 1.388 . S
C270 C275 1.418 . S
C271 H266 0.930 . S
C271 C274 1.404 . S
C271 C275 1.353 . S
N272 Co237 2.145 . S
N272 C273 1.397 . S
N272 C274 1.334 . S
C273 H254 0.929 . S
C273 C270 1.388 . S
C273 N272 1.397 . S
C274 H255 0.929 . S
C274 C271 1.404 . S
C274 N272 1.334 . S
C275 H267 0.930 . S
C275 C270 1.418 . S
C275 C271 1.353 . S
C276 H246 0.930 . S
C276 N277 1.330 . S
C276 C278 1.446 . S
N277 Co236 2.151 . S
N277 C276 1.330 . S
N277 C281 1.418 . S
C278 H257 0.929 . S
C278 C276 1.446 . S
C278 C279 1.332 . S
C279 H259 0.931 . S
C279 C278 1.332 . S
C279 C280 1.267 . S
C280 H248 0.929 . S
C280 C279 1.267 . S
C280 C281 1.251 . S
C281 H251 0.929 . S
C281 N277 1.418 . S
C281 C280 1.251 . S
C282 H249 0.930 . S
C282 C284 1.406 . S
C282 C287 1.261 . S
C283 H250 0.930 . S
C283 N285 1.325 . S
C283 C286 1.357 . S
C284 H252 0.928 . S
C284 C282 1.406 . S
C284 N285 1.261 . S
N285 Co236 2.214 . S
N285 C283 1.325 . S
N285 C284 1.261 . S
C286 H256 0.931 . S
C286 C283 1.357 . S
C286 C287 1.312 . S
C287 H258 0.930 . S
C287 C282 1.261 . S
C287 C286 1.312 . S
C288 O260 1.214 . S
C288 O268 1.234 . S
C289 H261 0.929 . S
C289 C292 1.391 . S
C289 C294 1.391 . S
C290 H262 0.929 . S
C290 C291 1.390 . S
C290 N293 1.391 . S
C291 H263 0.930 . S
C291 C290 1.390 . S
C291 C292 1.392 . S
C292 H264 0.929 . S
C292 C289 1.391 . S
C292 C291 1.392 . S
N293 Co237 2.257 . S
N293 C290 1.391 . S
N293 C294 1.388 . S
C294 H265 0.930 . S
C294 C289 1.391 . S
C294 N293 1.388 . S
Co295 O297 2.143 . S
Co295 O303 2.074 . S
Co295 O306 2.093 . S
Co295 O319 2.097 . S
Co295 N336 2.151 . S
Co295 N344 2.214 . S
Co296 O297 2.160 . S
Co296 O302 2.058 . S
Co296 O312 2.057 . S
Co296 O327 2.037 . S
Co296 N331 2.145 . S
Co296 N352 2.257 . S
O297 Co295 2.143 . S
O297 Co296 2.160 . S
C298 O299 1.278 . S
C298 O306 1.224 . S
O299 C298 1.278 . S
C300 O301 1.245 . S
C300 O312 1.232 . S
O301 C300 1.245 . S
O302 Co296 2.058 . S
O302 C328 1.269 . S
O303 Co295 2.074 . S
O303 C328 1.257 . S
H304 C329 0.930 . S
H305 C335 0.930 . S
O306 Co295 2.093 . S
O306 C298 1.224 . S
H307 C339 0.929 . S
H308 C341 0.930 . S
H309 C342 0.930 . S
H310 C340 0.929 . S
H311 C343 0.928 . S
O312 Co296 2.057 . S
O312 C300 1.232 . S
H313 C332 0.929 . S
H314 C333 0.929 . S
H315 C345 0.931 . S
H316 C337 0.929 . S
H317 C346 0.930 . S
H318 C338 0.931 . S
O319 Co295 2.097 . S
O319 C347 1.214 . S
H320 C348 0.929 . S
H321 C349 0.929 . S
H322 C350 0.930 . S
H323 C351 0.929 . S
H324 C353 0.930 . S
H325 C330 0.930 . S
H326 C334 0.930 . S
O327 Co296 2.037 . S
O327 C347 1.234 . S
C328 O302 1.269 . S
C328 O303 1.257 . S
C329 H304 0.930 . S
C329 C332 1.388 . S
C329 C334 1.418 . S
C330 H325 0.930 . S
C330 C333 1.404 . S
C330 C334 1.353 . S
N331 Co296 2.145 . S
N331 C332 1.397 . S
N331 C333 1.334 . S
C332 H313 0.929 . S
C332 C329 1.388 . S
C332 N331 1.397 . S
C333 H314 0.929 . S
C333 C330 1.404 . S
C333 N331 1.334 . S
C334 H326 0.930 . S
C334 C329 1.418 . S
C334 C330 1.353 . S
C335 H305 0.930 . S
C335 N336 1.330 . S
C335 C337 1.446 . S
N336 Co295 2.151 . S
N336 C335 1.330 . S
N336 C340 1.418 . S
C337 H316 0.929 . S
C337 C335 1.446 . S
C337 C338 1.332 . S
C338 H318 0.931 . S
C338 C337 1.332 . S
C338 C339 1.267 . S
C339 H307 0.929 . S
C339 C338 1.267 . S
C339 C340 1.251 . S
C340 H310 0.929 . S
C340 N336 1.418 . S
C340 C339 1.251 . S
C341 H308 0.930 . S
C341 C343 1.406 . S
C341 C346 1.261 . S
C342 H309 0.930 . S
C342 N344 1.325 . S
C342 C345 1.357 . S
C343 H311 0.928 . S
C343 C341 1.406 . S
C343 N344 1.261 . S
N344 Co295 2.214 . S
N344 C342 1.325 . S
N344 C343 1.261 . S
C345 H315 0.931 . S
C345 C342 1.357 . S
C345 C346 1.312 . S
C346 H317 0.930 . S
C346 C341 1.261 . S
C346 C345 1.312 . S
C347 O319 1.214 . S
C347 O327 1.234 . S
C348 H320 0.929 . S
C348 C351 1.391 . S
C348 C353 1.391 . S
C349 H321 0.929 . S
C349 C350 1.390 . S
C349 N352 1.391 . S
C350 H322 0.930 . S
C350 C349 1.390 . S
C350 C351 1.392 . S
C351 H323 0.929 . S
C351 C348 1.391 . S
C351 C350 1.392 . S
N352 Co296 2.257 . S
N352 C349 1.391 . S
N352 C353 1.388 . S
C353 H324 0.930 . S
C353 C348 1.391 . S
C353 N352 1.388 . S
Co354 O356 2.143 . S
Co354 O362 2.074 . S
Co354 O365 2.093 . S
Co354 O378 2.097 . S
Co354 N395 2.151 . S
Co354 N403 2.214 . S
Co355 O356 2.160 . S
Co355 O361 2.058 . S
Co355 O371 2.057 . S
Co355 O386 2.037 . S
Co355 N390 2.145 . S
Co355 N411 2.257 . S
O356 Co354 2.143 . S
O356 Co355 2.160 . S
C357 O358 1.278 . S
C357 O365 1.224 . S
O358 C357 1.278 . S
C359 O360 1.245 . S
C359 O371 1.232 . S
O360 C359 1.245 . S
O361 Co355 2.058 . S
O361 C387 1.269 . S
O362 Co354 2.074 . S
O362 C387 1.257 . S
H363 C388 0.930 . S
H364 C394 0.930 . S
O365 Co354 2.093 . S
O365 C357 1.224 . S
H366 C398 0.929 . S
H367 C400 0.930 . S
H368 C401 0.930 . S
H369 C399 0.929 . S
H370 C402 0.928 . S
O371 Co355 2.057 . S
O371 C359 1.232 . S
H372 C391 0.929 . S
H373 C392 0.923 1_545 S
H374 C404 0.931 . S
H375 C396 0.929 . S
H376 C405 0.930 . S
H377 C397 0.931 . S
O378 Co354 2.097 . S
O378 C406 1.214 . S
H379 C407 0.929 . S
H380 C408 0.929 . S
H381 C409 0.930 . S
H382 C410 0.929 1_565 S
H383 C412 0.930 . S
H384 C389 0.930 . S
H385 C393 0.930 . S
O386 Co355 2.037 . S
O386 C406 1.234 . S
C387 O361 1.269 . S
C387 O362 1.257 . S
C388 H363 0.930 . S
C388 C391 1.388 1_565 S
C388 C393 1.418 . S
C389 H384 0.930 . S
C389 C392 1.428 . S
C389 C393 1.353 . S
N390 Co355 2.145 . S
N390 C391 1.397 . S
N390 C392 1.317 1_545 S
C391 H372 0.929 . S
C391 C388 1.388 1_545 S
C391 N390 1.397 . S
C392 H373 0.923 1_565 S
C392 C389 1.428 . S
C392 N390 1.317 1_565 S
C393 H385 0.930 . S
C393 C388 1.418 . S
C393 C389 1.353 . S
C394 H364 0.930 . S
C394 N395 1.330 . S
C394 C396 1.446 . S
N395 Co354 2.151 . S
N395 C394 1.330 . S
N395 C399 1.418 . S
C396 H375 0.929 . S
C396 C394 1.446 . S
C396 C397 1.332 . S
C397 H377 0.931 . S
C397 C396 1.332 . S
C397 C398 1.267 . S
C398 H366 0.929 . S
C398 C397 1.267 . S
C398 C399 1.251 . S
C399 H369 0.929 . S
C399 N395 1.418 . S
C399 C398 1.251 . S
C400 H367 0.930 . S
C400 C402 1.406 . S
C400 C405 1.261 . S
C401 H368 0.930 . S
C401 N403 1.325 . S
C401 C404 1.357 . S
C402 H370 0.928 . S
C402 C400 1.406 . S
C402 N403 1.261 . S
N403 Co354 2.214 . S
N403 C401 1.325 . S
N403 C402 1.261 . S
C404 H374 0.931 . S
C404 C401 1.357 . S
C404 C405 1.312 . S
C405 H376 0.930 . S
C405 C400 1.261 . S
C405 C404 1.312 . S
C406 O378 1.214 . S
C406 O386 1.234 . S
C407 H379 0.929 . S
C407 C410 1.391 . S
C407 C412 1.391 . S
C408 H380 0.929 . S
C408 C409 1.390 1_545 S
C408 N411 1.391 . S
C409 H381 0.930 . S
C409 C408 1.390 1_565 S
C409 C410 1.392 1_565 S
C410 H382 0.929 1_545 S
C410 C407 1.391 . S
C410 C409 1.392 1_545 S
N411 Co355 2.257 . S
N411 C408 1.391 . S
N411 C412 1.388 . S
C412 H383 0.930 . S
C412 C407 1.391 . S
C412 N411 1.388 . S
Co413 O415 2.143 . S
Co413 O421 2.074 . S
Co413 O424 2.093 . S
Co413 O437 2.097 . S
Co413 N454 2.151 . S
Co413 N462 2.214 . S
Co414 O415 2.160 . S
Co414 O420 2.058 . S
Co414 O430 2.057 . S
Co414 O445 2.037 . S
Co414 N449 2.145 . S
Co414 N470 2.257 . S
O415 Co413 2.143 . S
O415 Co414 2.160 . S
C416 O417 1.278 . S
C416 O424 1.224 . S
O417 C416 1.278 . S
C418 O419 1.245 . S
C418 O430 1.232 . S
O419 C418 1.245 . S
O420 Co414 2.058 . S
O420 C446 1.269 . S
O421 Co413 2.074 . S
O421 C446 1.257 . S
H422 C447 0.930 . S
H423 C453 0.930 . S
O424 Co413 2.093 . S
O424 C416 1.224 . S
H425 C457 0.929 . S
H426 C459 0.930 . S
H427 C460 0.930 . S
H428 C458 0.929 . S
H429 C461 0.928 . S
O430 Co414 2.057 . S
O430 C418 1.232 . S
H431 C450 0.929 . S
H432 C451 0.923 1_655 S
H433 C463 0.931 . S
H434 C455 0.929 . S
H435 C464 0.930 . S
H436 C456 0.931 . S
O437 Co413 2.097 . S
O437 C465 1.214 . S
H438 C466 0.929 . S
H439 C467 0.929 . S
H440 C468 0.930 . S
H441 C469 0.929 1_455 S
H442 C471 0.930 . S
H443 C448 0.930 . S
H444 C452 0.930 . S
O445 Co414 2.037 . S
O445 C465 1.234 . S
C446 O420 1.269 . S
C446 O421 1.257 . S
C447 H422 0.930 . S
C447 C450 1.388 1_455 S
C447 C452 1.418 . S
C448 H443 0.930 . S
C448 C451 1.428 . S
C448 C452 1.353 . S
N449 Co414 2.145 . S
N449 C450 1.397 . S
N449 C451 1.317 1_655 S
C450 H431 0.929 . S
C450 C447 1.388 1_655 S
C450 N449 1.397 . S
C451 H432 0.923 1_455 S
C451 C448 1.428 . S
C451 N449 1.317 1_455 S
C452 H444 0.930 . S
C452 C447 1.418 . S
C452 C448 1.353 . S
C453 H423 0.930 . S
C453 N454 1.330 . S
C453 C455 1.446 . S
N454 Co413 2.151 . S
N454 C453 1.330 . S
N454 C458 1.418 . S
C455 H434 0.929 . S
C455 C453 1.446 . S
C455 C456 1.332 . S
C456 H436 0.931 . S
C456 C455 1.332 . S
C456 C457 1.267 . S
C457 H425 0.929 . S
C457 C456 1.267 . S
C457 C458 1.251 . S
C458 H428 0.929 . S
C458 N454 1.418 . S
C458 C457 1.251 . S
C459 H426 0.930 . S
C459 C461 1.406 . S
C459 C464 1.261 . S
C460 H427 0.930 . S
C460 N462 1.325 . S
C460 C463 1.357 . S
C461 H429 0.928 . S
C461 C459 1.406 . S
C461 N462 1.261 . S
N462 Co413 2.214 . S
N462 C460 1.325 . S
N462 C461 1.261 . S
C463 H433 0.931 . S
C463 C460 1.357 . S
C463 C464 1.312 . S
C464 H435 0.930 . S
C464 C459 1.261 . S
C464 C463 1.312 . S
C465 O437 1.214 . S
C465 O445 1.234 . S
C466 H438 0.929 . S
C466 C469 1.391 . S
C466 C471 1.391 . S
C467 H439 0.929 . S
C467 C468 1.390 1_655 S
C467 N470 1.391 . S
C468 H440 0.930 . S
C468 C467 1.390 1_455 S
C468 C469 1.392 1_455 S
C469 H441 0.929 1_655 S
C469 C466 1.391 . S
C469 C468 1.392 1_655 S
N470 Co414 2.257 . S
N470 C467 1.391 . S
N470 C471 1.388 . S
C471 H442 0.930 . S
C471 C466 1.391 . S
C471 N470 1.388 . S
Co472 O474 2.143 . S
Co472 O480 2.074 . S
Co472 O483 2.093 . S
Co472 O496 2.097 . S
Co472 N513 2.151 . S
Co472 N521 2.214 . S
Co473 O474 2.160 . S
Co473 O479 2.058 . S
Co473 O489 2.057 . S
Co473 O504 2.037 . S
Co473 N508 2.145 . S
Co473 N529 2.257 . S
O474 Co472 2.143 . S
O474 Co473 2.160 . S
C475 O476 1.278 . S
C475 O483 1.224 . S
O476 C475 1.278 . S
C477 O478 1.245 . S
C477 O489 1.232 . S
O478 C477 1.245 . S
O479 Co473 2.058 . S
O479 C505 1.269 . S
O480 Co472 2.074 . S
O480 C505 1.257 . S
H481 C506 0.930 . S
H482 C512 0.930 . S
O483 Co472 2.093 . S
O483 C475 1.224 . S
H484 C516 0.929 . S
H485 C518 0.930 . S
H486 C519 0.930 . S
H487 C517 0.929 . S
H488 C520 0.928 . S
O489 Co473 2.057 . S
O489 C477 1.232 . S
H490 C509 0.929 . S
H491 C510 0.929 . S
H492 C522 0.931 . S
H493 C514 0.929 . S
H494 C523 0.930 . S
H495 C515 0.931 . S
O496 Co472 2.097 . S
O496 C524 1.214 . S
H497 C525 0.929 . S
H498 C526 0.929 . S
H499 C527 0.930 . S
H500 C528 0.929 . S
H501 C530 0.930 . S
H502 C507 0.930 . S
H503 C511 0.930 . S
O504 Co473 2.037 . S
O504 C524 1.234 . S
C505 O479 1.269 . S
C505 O480 1.257 . S
C506 H481 0.930 . S
C506 C509 1.388 . S
C506 C511 1.418 . S
C507 H502 0.930 . S
C507 C510 1.404 . S
C507 C511 1.353 . S
N508 Co473 2.145 . S
N508 C509 1.397 . S
N508 C510 1.334 . S
C509 H490 0.929 . S
C509 C506 1.388 . S
C509 N508 1.397 . S
C510 H491 0.929 . S
C510 C507 1.404 . S
C510 N508 1.334 . S
C511 H503 0.930 . S
C511 C506 1.418 . S
C511 C507 1.353 . S
C512 H482 0.930 . S
C512 N513 1.330 . S
C512 C514 1.446 . S
N513 Co472 2.151 . S
N513 C512 1.330 . S
N513 C517 1.418 . S
C514 H493 0.929 . S
C514 C512 1.446 . S
C514 C515 1.332 . S
C515 H495 0.931 . S
C515 C514 1.332 . S
C515 C516 1.267 . S
C516 H484 0.929 . S
C516 C515 1.267 . S
C516 C517 1.251 . S
C517 H487 0.929 . S
C517 N513 1.418 . S
C517 C516 1.251 . S
C518 H485 0.930 . S
C518 C520 1.406 . S
C518 C523 1.261 . S
C519 H486 0.930 . S
C519 N521 1.325 . S
C519 C522 1.357 . S
C520 H488 0.928 . S
C520 C518 1.406 . S
C520 N521 1.261 . S
N521 Co472 2.214 . S
N521 C519 1.325 . S
N521 C520 1.261 . S
C522 H492 0.931 . S
C522 C519 1.357 . S
C522 C523 1.312 . S
C523 H494 0.930 . S
C523 C518 1.261 . S
C523 C522 1.312 . S
C524 O496 1.214 . S
C524 O504 1.234 . S
C525 H497 0.929 . S
C525 C528 1.391 . S
C525 C530 1.391 . S
C526 H498 0.929 . S
C526 C527 1.390 . S
C526 N529 1.391 . S
C527 H499 0.930 . S
C527 C526 1.390 . S
C527 C528 1.392 . S
C528 H500 0.929 . S
C528 C525 1.391 . S
C528 C527 1.392 . S
N529 Co473 2.257 . S
N529 C526 1.391 . S
N529 C530 1.388 . S
C530 H501 0.930 . S
C530 C525 1.391 . S
C530 N529 1.388 . S
Co531 O533 2.143 . S
Co531 O539 2.074 . S
Co531 O542 2.093 . S
Co531 O555 2.097 . S
Co531 N572 2.151 . S
Co531 N580 2.214 . S
Co532 O533 2.160 . S
Co532 O538 2.058 . S
Co532 O548 2.057 . S
Co532 O563 2.037 . S
Co532 N567 2.145 . S
Co532 N588 2.257 . S
O533 Co531 2.143 . S
O533 Co532 2.160 . S
C534 O535 1.278 . S
C534 O542 1.224 . S
O535 C534 1.278 . S
C536 O537 1.245 . S
C536 O548 1.232 . S
O537 C536 1.245 . S
O538 Co532 2.058 . S
O538 C564 1.269 . S
O539 Co531 2.074 . S
O539 C564 1.257 . S
H540 C565 0.930 . S
H541 C571 0.930 . S
O542 Co531 2.093 . S
O542 C534 1.224 . S
H543 C575 0.929 . S
H544 C577 0.930 . S
H545 C578 0.930 . S
H546 C576 0.929 . S
H547 C579 0.928 . S
O548 Co532 2.057 . S
O548 C536 1.232 . S
H549 C568 0.929 . S
H550 C569 0.929 . S
H551 C581 0.931 . S
H552 C573 0.929 . S
H553 C582 0.930 . S
H554 C574 0.931 . S
O555 Co531 2.097 . S
O555 C583 1.214 . S
H556 C584 0.929 . S
H557 C585 0.929 . S
H558 C586 0.930 . S
H559 C587 0.929 . S
H560 C589 0.930 . S
H561 C566 0.930 . S
H562 C570 0.930 . S
O563 Co532 2.037 . S
O563 C583 1.234 . S
C564 O538 1.269 . S
C564 O539 1.257 . S
C565 H540 0.930 . S
C565 C568 1.388 . S
C565 C570 1.418 . S
C566 H561 0.930 . S
C566 C569 1.404 . S
C566 C570 1.353 . S
N567 Co532 2.145 . S
N567 C568 1.397 . S
N567 C569 1.334 . S
C568 H549 0.929 . S
C568 C565 1.388 . S
C568 N567 1.397 . S
C569 H550 0.929 . S
C569 C566 1.404 . S
C569 N567 1.334 . S
C570 H562 0.930 . S
C570 C565 1.418 . S
C570 C566 1.353 . S
C571 H541 0.930 . S
C571 N572 1.330 . S
C571 C573 1.446 . S
N572 Co531 2.151 . S
N572 C571 1.330 . S
N572 C576 1.418 . S
C573 H552 0.929 . S
C573 C571 1.446 . S
C573 C574 1.332 . S
C574 H554 0.931 . S
C574 C573 1.332 . S
C574 C575 1.267 . S
C575 H543 0.929 . S
C575 C574 1.267 . S
C575 C576 1.251 . S
C576 H546 0.929 . S
C576 N572 1.418 . S
C576 C575 1.251 . S
C577 H544 0.930 . S
C577 C579 1.406 . S
C577 C582 1.261 . S
C578 H545 0.930 . S
C578 N580 1.325 . S
C578 C581 1.357 . S
C579 H547 0.928 . S
C579 C577 1.406 . S
C579 N580 1.261 . S
N580 Co531 2.214 . S
N580 C578 1.325 . S
N580 C579 1.261 . S
C581 H551 0.931 . S
C581 C578 1.357 . S
C581 C582 1.312 . S
C582 H553 0.930 . S
C582 C577 1.261 . S
C582 C581 1.312 . S
C583 O555 1.214 . S
C583 O563 1.234 . S
C584 H556 0.929 . S
C584 C587 1.391 . S
C584 C589 1.391 . S
C585 H557 0.929 . S
C585 C586 1.390 . S
C585 N588 1.391 . S
C586 H558 0.930 . S
C586 C585 1.390 . S
C586 C587 1.392 . S
C587 H559 0.929 . S
C587 C584 1.391 . S
C587 C586 1.392 . S
N588 Co532 2.257 . S
N588 C585 1.391 . S
N588 C589 1.388 . S
C589 H560 0.930 . S
C589 C584 1.391 . S
C589 N588 1.388 . S
Co590 O592 2.143 . S
Co590 O598 2.074 . S
Co590 O601 2.093 . S
Co590 O614 2.097 . S
Co590 N631 2.151 . S
Co590 N639 2.214 . S
Co591 O592 2.160 . S
Co591 O597 2.058 . S
Co591 O607 2.057 . S
Co591 O622 2.037 . S
Co591 N626 2.145 . S
Co591 N647 2.257 . S
O592 Co590 2.143 . S
O592 Co591 2.160 . S
C593 O594 1.278 . S
C593 O601 1.224 . S
O594 C593 1.278 . S
C595 O596 1.245 . S
C595 O607 1.232 . S
O596 C595 1.245 . S
O597 Co591 2.058 . S
O597 C623 1.269 . S
O598 Co590 2.074 . S
O598 C623 1.257 . S
H599 C624 0.930 . S
H600 C630 0.930 . S
O601 Co590 2.093 . S
O601 C593 1.224 . S
H602 C634 0.929 . S
H603 C636 0.930 . S
H604 C637 0.930 . S
H605 C635 0.929 . S
H606 C638 0.928 . S
O607 Co591 2.057 . S
O607 C595 1.232 . S
H608 C627 0.929 . S
H609 C628 0.923 1_565 S
H610 C640 0.931 . S
H611 C632 0.929 . S
H612 C641 0.930 . S
H613 C633 0.931 . S
O614 Co590 2.097 . S
O614 C642 1.214 . S
H615 C643 0.929 . S
H616 C644 0.929 . S
H617 C645 0.930 . S
H618 C646 0.929 1_545 S
H619 C648 0.930 . S
H620 C625 0.930 . S
H621 C629 0.930 . S
O622 Co591 2.037 . S
O622 C642 1.234 . S
C623 O597 1.269 . S
C623 O598 1.257 . S
C624 H599 0.930 . S
C624 C627 1.388 1_545 S
C624 C629 1.418 . S
C625 H620 0.930 . S
C625 C628 1.428 . S
C625 C629 1.353 . S
N626 Co591 2.145 . S
N626 C627 1.397 . S
N626 C628 1.317 1_565 S
C627 H608 0.929 . S
C627 C624 1.388 1_565 S
C627 N626 1.397 . S
C628 H609 0.923 1_545 S
C628 C625 1.428 . S
C628 N626 1.317 1_545 S
C629 H621 0.930 . S
C629 C624 1.418 . S
C629 C625 1.353 . S
C630 H600 0.930 . S
C630 N631 1.330 . S
C630 C632 1.446 . S
N631 Co590 2.151 . S
N631 C630 1.330 . S
N631 C635 1.418 . S
C632 H611 0.929 . S
C632 C630 1.446 . S
C632 C633 1.332 . S
C633 H613 0.931 . S
C633 C632 1.332 . S
C633 C634 1.267 . S
C634 H602 0.929 . S
C634 C633 1.267 . S
C634 C635 1.251 . S
C635 H605 0.929 . S
C635 N631 1.418 . S
C635 C634 1.251 . S
C636 H603 0.930 . S
C636 C638 1.406 . S
C636 C641 1.261 . S
C637 H604 0.930 . S
C637 N639 1.325 . S
C637 C640 1.357 . S
C638 H606 0.928 . S
C638 C636 1.406 . S
C638 N639 1.261 . S
N639 Co590 2.214 . S
N639 C637 1.325 . S
N639 C638 1.261 . S
C640 H610 0.931 . S
C640 C637 1.357 . S
C640 C641 1.312 . S
C641 H612 0.930 . S
C641 C636 1.261 . S
C641 C640 1.312 . S
C642 O614 1.214 . S
C642 O622 1.234 . S
C643 H615 0.929 . S
C643 C646 1.391 . S
C643 C648 1.391 . S
C644 H616 0.929 . S
C644 C645 1.390 1_565 S
C644 N647 1.391 . S
C645 H617 0.930 . S
C645 C644 1.390 1_545 S
C645 C646 1.392 1_545 S
C646 H618 0.929 1_565 S
C646 C643 1.391 . S
C646 C645 1.392 1_565 S
N647 Co591 2.257 . S
N647 C644 1.391 . S
N647 C648 1.388 . S
C648 H619 0.930 . S
C648 C643 1.391 . S
C648 N647 1.388 . S
Co649 O651 2.143 . S
Co649 O657 2.074 . S
Co649 O660 2.093 . S
Co649 O673 2.097 . S
Co649 N690 2.151 . S
Co649 N698 2.214 . S
Co650 O651 2.160 . S
Co650 O656 2.058 . S
Co650 O666 2.057 . S
Co650 O681 2.037 . S
Co650 N685 2.145 . S
Co650 N706 2.257 . S
O651 Co649 2.143 . S
O651 Co650 2.160 . S
C652 O653 1.278 . S
C652 O660 1.224 . S
O653 C652 1.278 . S
C654 O655 1.245 . S
C654 O666 1.232 . S
O655 C654 1.245 . S
O656 Co650 2.058 . S
O656 C682 1.269 . S
O657 Co649 2.074 . S
O657 C682 1.257 . S
H658 C683 0.930 . S
H659 C689 0.930 . S
O660 Co649 2.093 . S
O660 C652 1.224 . S
H661 C693 0.929 . S
H662 C695 0.930 . S
H663 C696 0.930 . S
H664 C694 0.929 . S
H665 C697 0.928 . S
O666 Co650 2.057 . S
O666 C654 1.232 . S
H667 C686 0.929 . S
H668 C687 0.923 1_455 S
H669 C699 0.931 . S
H670 C691 0.929 . S
H671 C700 0.930 . S
H672 C692 0.931 . S
O673 Co649 2.097 . S
O673 C701 1.214 . S
H674 C702 0.929 . S
H675 C703 0.929 . S
H676 C704 0.930 . S
H677 C705 0.929 1_655 S
H678 C707 0.930 . S
H679 C684 0.930 . S
H680 C688 0.930 . S
O681 Co650 2.037 . S
O681 C701 1.234 . S
C682 O656 1.269 . S
C682 O657 1.257 . S
C683 H658 0.930 . S
C683 C686 1.388 1_655 S
C683 C688 1.418 . S
C684 H679 0.930 . S
C684 C687 1.428 . S
C684 C688 1.353 . S
N685 Co650 2.145 . S
N685 C686 1.397 . S
N685 C687 1.317 1_455 S
C686 H667 0.929 . S
C686 C683 1.388 1_455 S
C686 N685 1.397 . S
C687 H668 0.923 1_655 S
C687 C684 1.428 . S
C687 N685 1.317 1_655 S
C688 H680 0.930 . S
C688 C683 1.418 . S
C688 C684 1.353 . S
C689 H659 0.930 . S
C689 N690 1.330 . S
C689 C691 1.446 . S
N690 Co649 2.151 . S
N690 C689 1.330 . S
N690 C694 1.418 . S
C691 H670 0.929 . S
C691 C689 1.446 . S
C691 C692 1.332 . S
C692 H672 0.931 . S
C692 C691 1.332 . S
C692 C693 1.267 . S
C693 H661 0.929 . S
C693 C692 1.267 . S
C693 C694 1.251 . S
C694 H664 0.929 . S
C694 N690 1.418 . S
C694 C693 1.251 . S
C695 H662 0.930 . S
C695 C697 1.406 . S
C695 C700 1.261 . S
C696 H663 0.930 . S
C696 N698 1.325 . S
C696 C699 1.357 . S
C697 H665 0.928 . S
C697 C695 1.406 . S
C697 N698 1.261 . S
N698 Co649 2.214 . S
N698 C696 1.325 . S
N698 C697 1.261 . S
C699 H669 0.931 . S
C699 C696 1.357 . S
C699 C700 1.312 . S
C700 H671 0.930 . S
C700 C695 1.261 . S
C700 C699 1.312 . S
C701 O673 1.214 . S
C701 O681 1.234 . S
C702 H674 0.929 . S
C702 C705 1.391 . S
C702 C707 1.391 . S
C703 H675 0.929 . S
C703 C704 1.390 1_455 S
C703 N706 1.391 . S
C704 H676 0.930 . S
C704 C703 1.390 1_655 S
C704 C705 1.392 1_655 S
C705 H677 0.929 1_455 S
C705 C702 1.391 . S
C705 C704 1.392 1_455 S
N706 Co650 2.257 . S
N706 C703 1.391 . S
N706 C707 1.388 . S
C707 H678 0.930 . S
C707 C702 1.391 . S
C707 N706 1.388 . S
Co708 O710 2.143 . S
Co708 O716 2.074 . S
Co708 O719 2.093 . S
Co708 O732 2.097 . S
Co708 N749 2.151 . S
Co708 N757 2.214 . S
Co709 O710 2.160 . S
Co709 O715 2.058 . S
Co709 O725 2.057 . S
Co709 O740 2.037 . S
Co709 N744 2.145 . S
Co709 N765 2.257 . S
O710 Co708 2.143 . S
O710 Co709 2.160 . S
C711 O712 1.278 . S
C711 O719 1.224 . S
O712 C711 1.278 . S
C713 O714 1.245 . S
C713 O725 1.232 . S
O714 C713 1.245 . S
O715 Co709 2.058 . S
O715 C741 1.269 . S
O716 Co708 2.074 . S
O716 C741 1.257 . S
H717 C742 0.930 . S
H718 C748 0.930 . S
O719 Co708 2.093 . S
O719 C711 1.224 . S
H720 C752 0.929 . S
H721 C754 0.930 . S
H722 C755 0.930 . S
H723 C753 0.929 . S
H724 C756 0.928 . S
O725 Co709 2.057 . S
O725 C713 1.232 . S
H726 C745 0.929 . S
H727 C746 0.923 1_565 S
H728 C758 0.931 . S
H729 C750 0.929 . S
H730 C759 0.930 . S
H731 C751 0.931 . S
O732 Co708 2.097 . S
O732 C760 1.214 . S
H733 C761 0.929 . S
H734 C762 0.929 . S
H735 C763 0.930 . S
H736 C764 0.929 1_545 S
H737 C766 0.930 . S
H738 C743 0.930 . S
H739 C747 0.930 . S
O740 Co709 2.037 . S
O740 C760 1.234 . S
C741 O715 1.269 . S
C741 O716 1.257 . S
C742 H717 0.930 . S
C742 C745 1.388 1_545 S
C742 C747 1.418 . S
C743 H738 0.930 . S
C743 C746 1.428 . S
C743 C747 1.353 . S
N744 Co709 2.145 . S
N744 C745 1.397 . S
N744 C746 1.317 1_565 S
C745 H726 0.929 . S
C745 C742 1.388 1_565 S
C745 N744 1.397 . S
C746 H727 0.923 1_545 S
C746 C743 1.428 . S
C746 N744 1.317 1_545 S
C747 H739 0.930 . S
C747 C742 1.418 . S
C747 C743 1.353 . S
C748 H718 0.930 . S
C748 N749 1.330 . S
C748 C750 1.446 . S
N749 Co708 2.151 . S
N749 C748 1.330 . S
N749 C753 1.418 . S
C750 H729 0.929 . S
C750 C748 1.446 . S
C750 C751 1.332 . S
C751 H731 0.931 . S
C751 C750 1.332 . S
C751 C752 1.267 . S
C752 H720 0.929 . S
C752 C751 1.267 . S
C752 C753 1.251 . S
C753 H723 0.929 . S
C753 N749 1.418 . S
C753 C752 1.251 . S
C754 H721 0.930 . S
C754 C756 1.406 . S
C754 C759 1.261 . S
C755 H722 0.930 . S
C755 N757 1.325 . S
C755 C758 1.357 . S
C756 H724 0.928 . S
C756 C754 1.406 . S
C756 N757 1.261 . S
N757 Co708 2.214 . S
N757 C755 1.325 . S
N757 C756 1.261 . S
C758 H728 0.931 . S
C758 C755 1.357 . S
C758 C759 1.312 . S
C759 H730 0.930 . S
C759 C754 1.261 . S
C759 C758 1.312 . S
C760 O732 1.214 . S
C760 O740 1.234 . S
C761 H733 0.929 . S
C761 C764 1.391 . S
C761 C766 1.391 . S
C762 H734 0.929 . S
C762 C763 1.390 1_565 S
C762 N765 1.391 . S
C763 H735 0.930 . S
C763 C762 1.390 1_545 S
C763 C764 1.392 1_545 S
C764 H736 0.929 1_565 S
C764 C761 1.391 . S
C764 C763 1.392 1_565 S
N765 Co709 2.257 . S
N765 C762 1.391 . S
N765 C766 1.388 . S
C766 H737 0.930 . S
C766 C761 1.391 . S
C766 N765 1.388 . S
Co767 O769 2.143 . S
Co767 O775 2.074 . S
Co767 O778 2.093 . S
Co767 O791 2.097 . S
Co767 N808 2.151 . S
Co767 N816 2.214 . S
Co768 O769 2.160 . S
Co768 O774 2.058 . S
Co768 O784 2.057 . S
Co768 O799 2.037 . S
Co768 N803 2.145 . S
Co768 N824 2.257 . S
O769 Co767 2.143 . S
O769 Co768 2.160 . S
C770 O771 1.278 . S
C770 O778 1.224 . S
O771 C770 1.278 . S
C772 O773 1.245 . S
C772 O784 1.232 . S
O773 C772 1.245 . S
O774 Co768 2.058 . S
O774 C800 1.269 . S
O775 Co767 2.074 . S
O775 C800 1.257 . S
H776 C801 0.930 . S
H777 C807 0.930 . S
O778 Co767 2.093 . S
O778 C770 1.224 . S
H779 C811 0.929 . S
H780 C813 0.930 . S
H781 C814 0.930 . S
H782 C812 0.929 . S
H783 C815 0.928 . S
O784 Co768 2.057 . S
O784 C772 1.232 . S
H785 C804 0.929 . S
H786 C805 0.923 1_455 S
H787 C817 0.931 . S
H788 C809 0.929 . S
H789 C818 0.930 . S
H790 C810 0.931 . S
O791 Co767 2.097 . S
O791 C819 1.214 . S
H792 C820 0.929 . S
H793 C821 0.929 . S
H794 C822 0.930 . S
H795 C823 0.929 1_655 S
H796 C825 0.930 . S
H797 C802 0.930 . S
H798 C806 0.930 . S
O799 Co768 2.037 . S
O799 C819 1.234 . S
C800 O774 1.269 . S
C800 O775 1.257 . S
C801 H776 0.930 . S
C801 C804 1.388 1_655 S
C801 C806 1.418 . S
C802 H797 0.930 . S
C802 C805 1.428 . S
C802 C806 1.353 . S
N803 Co768 2.145 . S
N803 C804 1.397 . S
N803 C805 1.317 1_455 S
C804 H785 0.929 . S
C804 C801 1.388 1_455 S
C804 N803 1.397 . S
C805 H786 0.923 1_655 S
C805 C802 1.428 . S
C805 N803 1.317 1_655 S
C806 H798 0.930 . S
C806 C801 1.418 . S
C806 C802 1.353 . S
C807 H777 0.930 . S
C807 N808 1.330 . S
C807 C809 1.446 . S
N808 Co767 2.151 . S
N808 C807 1.330 . S
N808 C812 1.418 . S
C809 H788 0.929 . S
C809 C807 1.446 . S
C809 C810 1.332 . S
C810 H790 0.931 . S
C810 C809 1.332 . S
C810 C811 1.267 . S
C811 H779 0.929 . S
C811 C810 1.267 . S
C811 C812 1.251 . S
C812 H782 0.929 . S
C812 N808 1.418 . S
C812 C811 1.251 . S
C813 H780 0.930 . S
C813 C815 1.406 . S
C813 C818 1.261 . S
C814 H781 0.930 . S
C814 N816 1.325 . S
C814 C817 1.357 . S
C815 H783 0.928 . S
C815 C813 1.406 . S
C815 N816 1.261 . S
N816 Co767 2.214 . S
N816 C814 1.325 . S
N816 C815 1.261 . S
C817 H787 0.931 . S
C817 C814 1.357 . S
C817 C818 1.312 . S
C818 H789 0.930 . S
C818 C813 1.261 . S
C818 C817 1.312 . S
C819 O791 1.214 . S
C819 O799 1.234 . S
C820 H792 0.929 . S
C820 C823 1.391 . S
C820 C825 1.391 . S
C821 H793 0.929 . S
C821 C822 1.390 1_455 S
C821 N824 1.391 . S
C822 H794 0.930 . S
C822 C821 1.390 1_655 S
C822 C823 1.392 1_655 S
C823 H795 0.929 1_455 S
C823 C820 1.391 . S
C823 C822 1.392 1_455 S
N824 Co768 2.257 . S
N824 C821 1.391 . S
N824 C825 1.388 . S
C825 H796 0.930 . S
C825 C820 1.391 . S
C825 N824 1.388 . S
Co826 O828 2.143 . S
Co826 O834 2.074 . S
Co826 O837 2.093 . S
Co826 O850 2.097 . S
Co826 N867 2.151 . S
Co826 N875 2.214 . S
Co827 O828 2.160 . S
Co827 O833 2.058 . S
Co827 O843 2.057 . S
Co827 O858 2.037 . S
Co827 N862 2.145 . S
Co827 N883 2.257 . S
O828 Co826 2.143 . S
O828 Co827 2.160 . S
C829 O830 1.278 . S
C829 O837 1.224 . S
O830 C829 1.278 . S
C831 O832 1.245 . S
C831 O843 1.232 . S
O832 C831 1.245 . S
O833 Co827 2.058 . S
O833 C859 1.269 . S
O834 Co826 2.074 . S
O834 C859 1.257 . S
H835 C860 0.930 . S
H836 C866 0.930 . S
O837 Co826 2.093 . S
O837 C829 1.224 . S
H838 C870 0.929 . S
H839 C872 0.930 . S
H840 C873 0.930 . S
H841 C871 0.929 . S
H842 C874 0.928 . S
O843 Co827 2.057 . S
O843 C831 1.232 . S
H844 C863 0.929 . S
H845 C864 0.929 . S
H846 C876 0.931 . S
H847 C868 0.929 . S
H848 C877 0.930 . S
H849 C869 0.931 . S
O850 Co826 2.097 . S
O850 C878 1.214 . S
H851 C879 0.929 . S
H852 C880 0.929 . S
H853 C881 0.930 . S
H854 C882 0.929 . S
H855 C884 0.930 . S
H856 C861 0.930 . S
H857 C865 0.930 . S
O858 Co827 2.037 . S
O858 C878 1.234 . S
C859 O833 1.269 . S
C859 O834 1.257 . S
C860 H835 0.930 . S
C860 C863 1.388 . S
C860 C865 1.418 . S
C861 H856 0.930 . S
C861 C864 1.404 . S
C861 C865 1.353 . S
N862 Co827 2.145 . S
N862 C863 1.397 . S
N862 C864 1.334 . S
C863 H844 0.929 . S
C863 C860 1.388 . S
C863 N862 1.397 . S
C864 H845 0.929 . S
C864 C861 1.404 . S
C864 N862 1.334 . S
C865 H857 0.930 . S
C865 C860 1.418 . S
C865 C861 1.353 . S
C866 H836 0.930 . S
C866 N867 1.330 . S
C866 C868 1.446 . S
N867 Co826 2.151 . S
N867 C866 1.330 . S
N867 C871 1.418 . S
C868 H847 0.929 . S
C868 C866 1.446 . S
C868 C869 1.332 . S
C869 H849 0.931 . S
C869 C868 1.332 . S
C869 C870 1.267 . S
C870 H838 0.929 . S
C870 C869 1.267 . S
C870 C871 1.251 . S
C871 H841 0.929 . S
C871 N867 1.418 . S
C871 C870 1.251 . S
C872 H839 0.930 . S
C872 C874 1.406 . S
C872 C877 1.261 . S
C873 H840 0.930 . S
C873 N875 1.325 . S
C873 C876 1.357 . S
C874 H842 0.928 . S
C874 C872 1.406 . S
C874 N875 1.261 . S
N875 Co826 2.214 . S
N875 C873 1.325 . S
N875 C874 1.261 . S
C876 H846 0.931 . S
C876 C873 1.357 . S
C876 C877 1.312 . S
C877 H848 0.930 . S
C877 C872 1.261 . S
C877 C876 1.312 . S
C878 O850 1.214 . S
C878 O858 1.234 . S
C879 H851 0.929 . S
C879 C882 1.391 . S
C879 C884 1.391 . S
C880 H852 0.929 . S
C880 C881 1.390 . S
C880 N883 1.391 . S
C881 H853 0.930 . S
C881 C880 1.390 . S
C881 C882 1.392 . S
C882 H854 0.929 . S
C882 C879 1.391 . S
C882 C881 1.392 . S
N883 Co827 2.257 . S
N883 C880 1.391 . S
N883 C884 1.388 . S
C884 H855 0.930 . S
C884 C879 1.391 . S
C884 N883 1.388 . S
Co885 O887 2.143 . S
Co885 O893 2.074 . S
Co885 O896 2.093 . S
Co885 O909 2.097 . S
Co885 N926 2.151 . S
Co885 N934 2.214 . S
Co886 O887 2.160 . S
Co886 O892 2.058 . S
Co886 O902 2.057 . S
Co886 O917 2.037 . S
Co886 N921 2.145 . S
Co886 N942 2.257 . S
O887 Co885 2.143 . S
O887 Co886 2.160 . S
C888 O889 1.278 . S
C888 O896 1.224 . S
O889 C888 1.278 . S
C890 O891 1.245 . S
C890 O902 1.232 . S
O891 C890 1.245 . S
O892 Co886 2.058 . S
O892 C918 1.269 . S
O893 Co885 2.074 . S
O893 C918 1.257 . S
H894 C919 0.930 . S
H895 C925 0.930 . S
O896 Co885 2.093 . S
O896 C888 1.224 . S
H897 C929 0.929 . S
H898 C931 0.930 . S
H899 C932 0.930 . S
H900 C930 0.929 . S
H901 C933 0.928 . S
O902 Co886 2.057 . S
O902 C890 1.232 . S
H903 C922 0.929 . S
H904 C923 0.929 . S
H905 C935 0.931 . S
H906 C927 0.929 . S
H907 C936 0.930 . S
H908 C928 0.931 . S
O909 Co885 2.097 . S
O909 C937 1.214 . S
H910 C938 0.929 . S
H911 C939 0.929 . S
H912 C940 0.930 . S
H913 C941 0.929 . S
H914 C943 0.930 . S
H915 C920 0.930 . S
H916 C924 0.930 . S
O917 Co886 2.037 . S
O917 C937 1.234 . S
C918 O892 1.269 . S
C918 O893 1.257 . S
C919 H894 0.930 . S
C919 C922 1.388 . S
C919 C924 1.418 . S
C920 H915 0.930 . S
C920 C923 1.404 . S
C920 C924 1.353 . S
N921 Co886 2.145 . S
N921 C922 1.397 . S
N921 C923 1.334 . S
C922 H903 0.929 . S
C922 C919 1.388 . S
C922 N921 1.397 . S
C923 H904 0.929 . S
C923 C920 1.404 . S
C923 N921 1.334 . S
C924 H916 0.930 . S
C924 C919 1.418 . S
C924 C920 1.353 . S
C925 H895 0.930 . S
C925 N926 1.330 . S
C925 C927 1.446 . S
N926 Co885 2.151 . S
N926 C925 1.330 . S
N926 C930 1.418 . S
C927 H906 0.929 . S
C927 C925 1.446 . S
C927 C928 1.332 . S
C928 H908 0.931 . S
C928 C927 1.332 . S
C928 C929 1.267 . S
C929 H897 0.929 . S
C929 C928 1.267 . S
C929 C930 1.251 . S
C930 H900 0.929 . S
C930 N926 1.418 . S
C930 C929 1.251 . S
C931 H898 0.930 . S
C931 C933 1.406 . S
C931 C936 1.261 . S
C932 H899 0.930 . S
C932 N934 1.325 . S
C932 C935 1.357 . S
C933 H901 0.928 . S
C933 C931 1.406 . S
C933 N934 1.261 . S
N934 Co885 2.214 . S
N934 C932 1.325 . S
N934 C933 1.261 . S
C935 H905 0.931 . S
C935 C932 1.357 . S
C935 C936 1.312 . S
C936 H907 0.930 . S
C936 C931 1.261 . S
C936 C935 1.312 . S
C937 O909 1.214 . S
C937 O917 1.234 . S
C938 H910 0.929 . S
C938 C941 1.391 . S
C938 C943 1.391 . S
C939 H911 0.929 . S
C939 C940 1.390 . S
C939 N942 1.391 . S
C940 H912 0.930 . S
C940 C939 1.390 . S
C940 C941 1.392 . S
C941 H913 0.929 . S
C941 C938 1.391 . S
C941 C940 1.392 . S
N942 Co886 2.257 . S
N942 C939 1.391 . S
N942 C943 1.388 . S
C943 H914 0.930 . S
C943 C938 1.391 . S
C943 N942 1.388 . S
C944 C945 1.349 . S
C944 C946 1.327 . S
C944 H969 0.950 . S
C945 C944 1.349 . S
C945 C961 1.349 . S
C946 C944 1.327 . S
C946 C965 1.429 . S
C946 H970 0.950 . S
C947 C964 1.574 . S
C947 C966 1.368 . S
C947 H971 0.949 . S
H948 C952 0.949 . S
C949 C950 1.349 . S
C949 C951 1.327 . S
C949 H972 0.950 . S
C950 C949 1.349 . S
C950 C962 1.349 . S
C951 C949 1.327 . S
C951 C967 1.429 . S
C951 H973 0.950 . S
C952 H948 0.949 . S
C952 C960 1.574 . S
C952 C968 1.368 . S
H953 C961 0.950 . S
H954 C959 0.950 . S
H955 C960 0.949 . S
H956 C962 0.950 . S
H957 C963 0.950 . S
H958 C964 0.949 . S
C959 H954 0.950 . S
C959 C961 1.327 . S
C959 C965 1.429 . S
C960 C952 1.574 . S
C960 H955 0.949 . S
C960 C966 1.368 . S
C961 C945 1.349 . S
C961 H953 0.950 . S
C961 C959 1.327 . S
C962 C950 1.349 . S
C962 H956 0.950 . S
C962 C963 1.327 . S
C963 H957 0.950 . S
C963 C962 1.327 . S
C963 C967 1.429 . S
C964 C947 1.574 . S
C964 H958 0.949 . S
C964 C968 1.368 . S
C965 C946 1.429 . S
C965 C959 1.429 . S
C965 C966 1.523 . S
C966 C947 1.368 . S
C966 C960 1.368 . S
C966 C965 1.523 . S
C967 C951 1.429 . S
C967 C963 1.429 . S
C967 C968 1.523 . S
C968 C952 1.368 . S
C968 C964 1.368 . S
C968 C967 1.523 . S
H969 C944 0.950 . S
H970 C946 0.950 . S
H971 C947 0.949 . S
H972 C949 0.950 . S
H973 C951 0.950 . S
C974 C975 1.349 . S
C974 C976 1.327 . S
C974 H999 0.950 . S
C975 C974 1.349 . S
C975 C991 1.349 . S
C976 C974 1.327 . S
C976 C995 1.429 . S
C976 H1000 0.950 . S
C977 C994 1.574 . S
C977 C996 1.368 . S
C977 H1001 0.949 . S
H978 C982 0.949 . S
C979 C980 1.349 . S
C979 C981 1.327 . S
C979 H1002 0.950 . S
C980 C979 1.349 . S
C980 C992 1.349 . S
C981 C979 1.327 . S
C981 C997 1.429 . S
C981 H1003 0.950 . S
C982 H978 0.949 . S
C982 C990 1.574 . S
C982 C998 1.368 . S
H983 C991 0.950 . S
H984 C989 0.950 . S
H985 C990 0.949 . S
H986 C992 0.950 . S
H987 C993 0.950 . S
H988 C994 0.949 . S
C989 H984 0.950 . S
C989 C991 1.327 . S
C989 C995 1.429 . S
C990 C982 1.574 . S
C990 H985 0.949 . S
C990 C996 1.368 . S
C991 C975 1.349 . S
C991 H983 0.950 . S
C991 C989 1.327 . S
C992 C980 1.349 . S
C992 H986 0.950 . S
C992 C993 1.327 . S
C993 H987 0.950 . S
C993 C992 1.327 . S
C993 C997 1.429 . S
C994 C977 1.574 . S
C994 H988 0.949 . S
C994 C998 1.368 . S
C995 C976 1.429 . S
C995 C989 1.429 . S
C995 C996 1.523 . S
C996 C977 1.368 . S
C996 C990 1.368 . S
C996 C995 1.523 . S
C997 C981 1.429 . S
C997 C993 1.429 . S
C997 C998 1.523 . S
C998 C982 1.368 . S
C998 C994 1.368 . S
C998 C997 1.523 . S
H999 C974 0.950 . S
H1000 C976 0.950 . S
H1001 C977 0.949 . S
H1002 C979 0.950 . S
H1003 C981 0.950 . S
C1004 C1005 1.349 . S
C1004 C1006 1.327 . S
C1004 H1029 0.950 . S
C1005 C1004 1.349 . S
C1005 C1021 1.349 . S
C1006 C1004 1.327 . S
C1006 C1025 1.429 . S
C1006 H1030 0.950 . S
C1007 C1024 1.574 . S
C1007 C1026 1.368 . S
C1007 H1031 0.949 . S
H1008 C1012 0.949 . S
C1009 C1010 1.349 . S
C1009 C1011 1.327 . S
C1009 H1032 0.950 . S
C1010 C1009 1.349 . S
C1010 C1022 1.349 . S
C1011 C1009 1.327 . S
C1011 C1027 1.429 . S
C1011 H1033 0.950 . S
C1012 H1008 0.949 . S
C1012 C1020 1.574 . S
C1012 C1028 1.368 . S
H1013 C1021 0.950 . S
H1014 C1019 0.950 . S
H1015 C1020 0.949 . S
H1016 C1022 0.950 . S
H1017 C1023 0.950 . S
H1018 C1024 0.949 . S
C1019 H1014 0.950 . S
C1019 C1021 1.327 . S
C1019 C1025 1.429 . S
C1020 C1012 1.574 . S
C1020 H1015 0.949 . S
C1020 C1026 1.368 . S
C1021 C1005 1.349 . S
C1021 H1013 0.950 . S
C1021 C1019 1.327 . S
C1022 C1010 1.349 . S
C1022 H1016 0.950 . S
C1022 C1023 1.327 . S
C1023 H1017 0.950 . S
C1023 C1022 1.327 . S
C1023 C1027 1.429 . S
C1024 C1007 1.574 . S
C1024 H1018 0.949 . S
C1024 C1028 1.368 . S
C1025 C1006 1.429 . S
C1025 C1019 1.429 . S
C1025 C1026 1.523 . S
C1026 C1007 1.368 . S
C1026 C1020 1.368 . S
C1026 C1025 1.523 . S
C1027 C1011 1.429 . S
C1027 C1023 1.429 . S
C1027 C1028 1.523 . S
C1028 C1012 1.368 . S
C1028 C1024 1.368 . S
C1028 C1027 1.523 . S
H1029 C1004 0.950 . S
H1030 C1006 0.950 . S
H1031 C1007 0.949 . S
H1032 C1009 0.950 . S
H1033 C1011 0.950 . S
C1034 C1035 1.349 . S
C1034 C1036 1.327 . S
C1034 H1059 0.950 . S
C1035 C1034 1.349 . S
C1035 C1051 1.349 . S
C1036 C1034 1.327 . S
C1036 C1055 1.429 . S
C1036 H1060 0.950 . S
C1037 C1054 1.574 . S
C1037 C1056 1.368 . S
C1037 H1061 0.949 . S
H1038 C1042 0.949 . S
C1039 C1040 1.349 . S
C1039 C1041 1.327 . S
C1039 H1062 0.950 . S
C1040 C1039 1.349 . S
C1040 C1052 1.349 . S
C1041 C1039 1.327 . S
C1041 C1057 1.429 . S
C1041 H1063 0.950 . S
C1042 H1038 0.949 . S
C1042 C1050 1.574 . S
C1042 C1058 1.368 . S
H1043 C1051 0.950 . S
H1044 C1049 0.950 . S
H1045 C1050 0.949 . S
H1046 C1052 0.950 . S
H1047 C1053 0.950 . S
H1048 C1054 0.949 . S
C1049 H1044 0.950 . S
C1049 C1051 1.327 . S
C1049 C1055 1.429 . S
C1050 C1042 1.574 . S
C1050 H1045 0.949 . S
C1050 C1056 1.368 . S
C1051 C1035 1.349 . S
C1051 H1043 0.950 . S
C1051 C1049 1.327 . S
C1052 C1040 1.349 . S
C1052 H1046 0.950 . S
C1052 C1053 1.327 . S
C1053 H1047 0.950 . S
C1053 C1052 1.327 . S
C1053 C1057 1.429 . S
C1054 C1037 1.574 . S
C1054 H1048 0.949 . S
C1054 C1058 1.368 . S
C1055 C1036 1.429 . S
C1055 C1049 1.429 . S
C1055 C1056 1.523 . S
C1056 C1037 1.368 . S
C1056 C1050 1.368 . S
C1056 C1055 1.523 . S
C1057 C1041 1.429 . S
C1057 C1053 1.429 . S
C1057 C1058 1.523 . S
C1058 C1042 1.368 . S
C1058 C1054 1.368 . S
C1058 C1057 1.523 . S
H1059 C1034 0.950 . S
H1060 C1036 0.950 . S
H1061 C1037 0.949 . S
H1062 C1039 0.950 . S
H1063 C1041 0.950 . S
C1064 C1065 1.349 . S
C1064 C1066 1.327 . S
C1064 H1089 0.950 . S
C1065 C1064 1.349 . S
C1065 C1081 1.349 . S
C1066 C1064 1.327 . S
C1066 C1085 1.429 . S
C1066 H1090 0.950 . S
C1067 C1084 1.574 . S
C1067 C1086 1.368 . S
C1067 H1091 0.949 . S
H1068 C1072 0.949 . S
C1069 C1070 1.349 . S
C1069 C1071 1.327 . S
C1069 H1092 0.950 . S
C1070 C1069 1.349 . S
C1070 C1082 1.349 . S
C1071 C1069 1.327 . S
C1071 C1087 1.429 . S
C1071 H1093 0.950 . S
C1072 H1068 0.949 . S
C1072 C1080 1.574 . S
C1072 C1088 1.368 . S
H1073 C1081 0.950 . S
H1074 C1079 0.950 . S
H1075 C1080 0.949 . S
H1076 C1082 0.950 . S
H1077 C1083 0.950 . S
H1078 C1084 0.949 . S
C1079 H1074 0.950 . S
C1079 C1081 1.327 . S
C1079 C1085 1.429 . S
C1080 C1072 1.574 . S
C1080 H1075 0.949 . S
C1080 C1086 1.368 . S
C1081 C1065 1.349 . S
C1081 H1073 0.950 . S
C1081 C1079 1.327 . S
C1082 C1070 1.349 . S
C1082 H1076 0.950 . S
C1082 C1083 1.327 . S
C1083 H1077 0.950 . S
C1083 C1082 1.327 . S
C1083 C1087 1.429 . S
C1084 C1067 1.574 . S
C1084 H1078 0.949 . S
C1084 C1088 1.368 . S
C1085 C1066 1.429 . S
C1085 C1079 1.429 . S
C1085 C1086 1.523 . S
C1086 C1067 1.368 . S
C1086 C1080 1.368 . S
C1086 C1085 1.523 . S
C1087 C1071 1.429 . S
C1087 C1083 1.429 . S
C1087 C1088 1.523 . S
C1088 C1072 1.368 . S
C1088 C1084 1.368 . S
C1088 C1087 1.523 . S
H1089 C1064 0.950 . S
H1090 C1066 0.950 . S
H1091 C1067 0.949 . S
H1092 C1069 0.950 . S
H1093 C1071 0.950 . S
C1094 C1095 1.349 . S
C1094 C1096 1.327 . S
C1094 H1119 0.950 . S
C1095 C1094 1.349 . S
C1095 C1111 1.349 . S
C1096 C1094 1.327 . S
C1096 C1115 1.429 . S
C1096 H1120 0.950 . S
C1097 C1114 1.574 . S
C1097 C1116 1.368 . S
C1097 H1121 0.949 . S
H1098 C1102 0.949 . S
C1099 C1100 1.349 . S
C1099 C1101 1.327 . S
C1099 H1122 0.950 . S
C1100 C1099 1.349 . S
C1100 C1112 1.349 . S
C1101 C1099 1.327 . S
C1101 C1117 1.429 . S
C1101 H1123 0.950 . S
C1102 H1098 0.949 . S
C1102 C1110 1.574 . S
C1102 C1118 1.368 . S
H1103 C1111 0.950 . S
H1104 C1109 0.950 . S
H1105 C1110 0.949 . S
H1106 C1112 0.950 . S
H1107 C1113 0.950 . S
H1108 C1114 0.949 . S
C1109 H1104 0.950 . S
C1109 C1111 1.327 . S
C1109 C1115 1.429 . S
C1110 C1102 1.574 . S
C1110 H1105 0.949 . S
C1110 C1116 1.368 . S
C1111 C1095 1.349 . S
C1111 H1103 0.950 . S
C1111 C1109 1.327 . S
C1112 C1100 1.349 . S
C1112 H1106 0.950 . S
C1112 C1113 1.327 . S
C1113 H1107 0.950 . S
C1113 C1112 1.327 . S
C1113 C1117 1.429 . S
C1114 C1097 1.574 . S
C1114 H1108 0.949 . S
C1114 C1118 1.368 . S
C1115 C1096 1.429 . S
C1115 C1109 1.429 . S
C1115 C1116 1.523 . S
C1116 C1097 1.368 . S
C1116 C1110 1.368 . S
C1116 C1115 1.523 . S
C1117 C1101 1.429 . S
C1117 C1113 1.429 . S
C1117 C1118 1.523 . S
C1118 C1102 1.368 . S
C1118 C1114 1.368 . S
C1118 C1117 1.523 . S
H1119 C1094 0.950 . S
H1120 C1096 0.950 . S
H1121 C1097 0.949 . S
H1122 C1099 0.950 . S
H1123 C1101 0.950 . S
C1124 C1125 1.349 . S
C1124 C1126 1.327 . S
C1124 H1149 0.950 . S
C1125 C1124 1.349 . S
C1125 C1141 1.349 . S
C1126 C1124 1.327 . S
C1126 C1145 1.429 . S
C1126 H1150 0.950 . S
C1127 C1144 1.574 . S
C1127 C1146 1.368 . S
C1127 H1151 0.949 . S
H1128 C1132 0.949 . S
C1129 C1130 1.349 . S
C1129 C1131 1.327 . S
C1129 H1152 0.950 . S
C1130 C1129 1.349 . S
C1130 C1142 1.349 . S
C1131 C1129 1.327 . S
C1131 C1147 1.429 . S
C1131 H1153 0.950 . S
C1132 H1128 0.949 . S
C1132 C1140 1.574 . S
C1132 C1148 1.368 . S
H1133 C1141 0.950 . S
H1134 C1139 0.950 . S
H1135 C1140 0.949 . S
H1136 C1142 0.950 . S
H1137 C1143 0.950 . S
H1138 C1144 0.949 . S
C1139 H1134 0.950 . S
C1139 C1141 1.327 . S
C1139 C1145 1.429 . S
C1140 C1132 1.574 . S
C1140 H1135 0.949 . S
C1140 C1146 1.368 . S
C1141 C1125 1.349 . S
C1141 H1133 0.950 . S
C1141 C1139 1.327 . S
C1142 C1130 1.349 . S
C1142 H1136 0.950 . S
C1142 C1143 1.327 . S
C1143 H1137 0.950 . S
C1143 C1142 1.327 . S
C1143 C1147 1.429 . S
C1144 C1127 1.574 . S
C1144 H1138 0.949 . S
C1144 C1148 1.368 . S
C1145 C1126 1.429 . S
C1145 C1139 1.429 . S
C1145 C1146 1.523 . S
C1146 C1127 1.368 . S
C1146 C1140 1.368 . S
C1146 C1145 1.523 . S
C1147 C1131 1.429 . S
C1147 C1143 1.429 . S
C1147 C1148 1.523 . S
C1148 C1132 1.368 . S
C1148 C1144 1.368 . S
C1148 C1147 1.523 . S
H1149 C1124 0.950 . S
H1150 C1126 0.950 . S
H1151 C1127 0.949 . S
H1152 C1129 0.950 . S
H1153 C1131 0.950 . S
C1154 C1155 1.349 . S
C1154 C1156 1.327 . S
C1154 H1179 0.950 . S
C1155 C1154 1.349 . S
C1155 C1171 1.349 . S
C1156 C1154 1.327 . S
C1156 C1175 1.429 . S
C1156 H1180 0.950 . S
C1157 C1174 1.574 . S
C1157 C1176 1.368 . S
C1157 H1181 0.949 . S
H1158 C1162 0.949 . S
C1159 C1160 1.349 . S
C1159 C1161 1.327 . S
C1159 H1182 0.950 . S
C1160 C1159 1.349 . S
C1160 C1172 1.349 . S
C1161 C1159 1.327 . S
C1161 C1177 1.429 . S
C1161 H1183 0.950 . S
C1162 H1158 0.949 . S
C1162 C1170 1.574 . S
C1162 C1178 1.368 . S
H1163 C1171 0.950 . S
H1164 C1169 0.950 . S
H1165 C1170 0.949 . S
H1166 C1172 0.950 . S
H1167 C1173 0.950 . S
H1168 C1174 0.949 . S
C1169 H1164 0.950 . S
C1169 C1171 1.327 . S
C1169 C1175 1.429 . S
C1170 C1162 1.574 . S
C1170 H1165 0.949 . S
C1170 C1176 1.368 . S
C1171 C1155 1.349 . S
C1171 H1163 0.950 . S
C1171 C1169 1.327 . S
C1172 C1160 1.349 . S
C1172 H1166 0.950 . S
C1172 C1173 1.327 . S
C1173 H1167 0.950 . S
C1173 C1172 1.327 . S
C1173 C1177 1.429 . S
C1174 C1157 1.574 . S
C1174 H1168 0.949 . S
C1174 C1178 1.368 . S
C1175 C1156 1.429 . S
C1175 C1169 1.429 . S
C1175 C1176 1.523 . S
C1176 C1157 1.368 . S
C1176 C1170 1.368 . S
C1176 C1175 1.523 . S
C1177 C1161 1.429 . S
C1177 C1173 1.429 . S
C1177 C1178 1.523 . S
C1178 C1162 1.368 . S
C1178 C1174 1.368 . S
C1178 C1177 1.523 . S
H1179 C1154 0.950 . S
H1180 C1156 0.950 . S
H1181 C1157 0.949 . S
H1182 C1159 0.950 . S
H1183 C1161 0.950 . S
C1184 C1185 1.349 . S
C1184 C1186 1.327 . S
C1184 H1209 0.950 . S
C1185 C1184 1.349 . S
C1185 C1201 1.349 . S
C1186 C1184 1.327 . S
C1186 C1205 1.429 . S
C1186 H1210 0.950 . S
C1187 C1204 1.574 . S
C1187 C1206 1.368 . S
C1187 H1211 0.949 . S
H1188 C1192 0.949 . S
C1189 C1190 1.349 . S
C1189 C1191 1.327 . S
C1189 H1212 0.950 . S
C1190 C1189 1.349 . S
C1190 C1202 1.349 . S
C1191 C1189 1.327 . S
C1191 C1207 1.429 . S
C1191 H1213 0.950 . S
C1192 H1188 0.949 . S
C1192 C1200 1.574 . S
C1192 C1208 1.368 . S
H1193 C1201 0.950 . S
H1194 C1199 0.950 . S
H1195 C1200 0.949 . S
H1196 C1202 0.950 . S
H1197 C1203 0.950 . S
H1198 C1204 0.949 . S
C1199 H1194 0.950 . S
C1199 C1201 1.327 . S
C1199 C1205 1.429 . S
C1200 C1192 1.574 . S
C1200 H1195 0.949 . S
C1200 C1206 1.368 . S
C1201 C1185 1.349 . S
C1201 H1193 0.950 . S
C1201 C1199 1.327 . S
C1202 C1190 1.349 . S
C1202 H1196 0.950 . S
C1202 C1203 1.327 . S
C1203 H1197 0.950 . S
C1203 C1202 1.327 . S
C1203 C1207 1.429 . S
C1204 C1187 1.574 . S
C1204 H1198 0.949 . S
C1204 C1208 1.368 . S
C1205 C1186 1.429 . S
C1205 C1199 1.429 . S
C1205 C1206 1.523 . S
C1206 C1187 1.368 . S
C1206 C1200 1.368 . S
C1206 C1205 1.523 . S
C1207 C1191 1.429 . S
C1207 C1203 1.429 . S
C1207 C1208 1.523 . S
C1208 C1192 1.368 . S
C1208 C1204 1.368 . S
C1208 C1207 1.523 . S
H1209 C1184 0.950 . S
H1210 C1186 0.950 . S
H1211 C1187 0.949 . S
H1212 C1189 0.950 . S
H1213 C1191 0.950 . S
C1214 C1215 1.349 . S
C1214 C1216 1.327 . S
C1214 H1239 0.950 . S
C1215 C1214 1.349 . S
C1215 C1231 1.349 . S
C1216 C1214 1.327 . S
C1216 C1235 1.429 . S
C1216 H1240 0.950 . S
C1217 C1234 1.574 . S
C1217 C1236 1.368 . S
C1217 H1241 0.949 . S
H1218 C1222 0.949 . S
C1219 C1220 1.349 . S
C1219 C1221 1.327 . S
C1219 H1242 0.950 . S
C1220 C1219 1.349 . S
C1220 C1232 1.349 . S
C1221 C1219 1.327 . S
C1221 C1237 1.429 . S
C1221 H1243 0.950 . S
C1222 H1218 0.949 . S
C1222 C1230 1.574 . S
C1222 C1238 1.368 . S
H1223 C1231 0.950 . S
H1224 C1229 0.950 . S
H1225 C1230 0.949 . S
H1226 C1232 0.950 . S
H1227 C1233 0.950 . S
H1228 C1234 0.949 . S
C1229 H1224 0.950 . S
C1229 C1231 1.327 . S
C1229 C1235 1.429 . S
C1230 C1222 1.574 . S
C1230 H1225 0.949 . S
C1230 C1236 1.368 . S
C1231 C1215 1.349 . S
C1231 H1223 0.950 . S
C1231 C1229 1.327 . S
C1232 C1220 1.349 . S
C1232 H1226 0.950 . S
C1232 C1233 1.327 . S
C1233 H1227 0.950 . S
C1233 C1232 1.327 . S
C1233 C1237 1.429 . S
C1234 C1217 1.574 . S
C1234 H1228 0.949 . S
C1234 C1238 1.368 . S
C1235 C1216 1.429 . S
C1235 C1229 1.429 . S
C1235 C1236 1.523 . S
C1236 C1217 1.368 . S
C1236 C1230 1.368 . S
C1236 C1235 1.523 . S
C1237 C1221 1.429 . S
C1237 C1233 1.429 . S
C1237 C1238 1.523 . S
C1238 C1222 1.368 . S
C1238 C1234 1.368 . S
C1238 C1237 1.523 . S
H1239 C1214 0.950 . S
H1240 C1216 0.950 . S
H1241 C1217 0.949 . S
H1242 C1219 0.950 . S
H1243 C1221 0.950 . S
C1244 C1245 1.349 . S
C1244 C1246 1.327 . S
C1244 H1269 0.950 . S
C1245 C1244 1.349 . S
C1245 C1261 1.349 . S
C1246 C1244 1.327 . S
C1246 C1265 1.429 . S
C1246 H1270 0.950 . S
C1247 C1264 1.574 . S
C1247 C1266 1.368 . S
C1247 H1271 0.949 . S
H1248 C1252 0.949 . S
C1249 C1250 1.349 . S
C1249 C1251 1.327 . S
C1249 H1272 0.950 . S
C1250 C1249 1.349 . S
C1250 C1262 1.349 . S
C1251 C1249 1.327 . S
C1251 C1267 1.429 . S
C1251 H1273 0.950 . S
C1252 H1248 0.949 . S
C1252 C1260 1.574 . S
C1252 C1268 1.368 . S
H1253 C1261 0.950 . S
H1254 C1259 0.950 . S
H1255 C1260 0.949 . S
H1256 C1262 0.950 . S
H1257 C1263 0.950 . S
H1258 C1264 0.949 . S
C1259 H1254 0.950 . S
C1259 C1261 1.327 . S
C1259 C1265 1.429 . S
C1260 C1252 1.574 . S
C1260 H1255 0.949 . S
C1260 C1266 1.368 . S
C1261 C1245 1.349 . S
C1261 H1253 0.950 . S
C1261 C1259 1.327 . S
C1262 C1250 1.349 . S
C1262 H1256 0.950 . S
C1262 C1263 1.327 . S
C1263 H1257 0.950 . S
C1263 C1262 1.327 . S
C1263 C1267 1.429 . S
C1264 C1247 1.574 . S
C1264 H1258 0.949 . S
C1264 C1268 1.368 . S
C1265 C1246 1.429 . S
C1265 C1259 1.429 . S
C1265 C1266 1.523 . S
C1266 C1247 1.368 . S
C1266 C1260 1.368 . S
C1266 C1265 1.523 . S
C1267 C1251 1.429 . S
C1267 C1263 1.429 . S
C1267 C1268 1.523 . S
C1268 C1252 1.368 . S
C1268 C1264 1.368 . S
C1268 C1267 1.523 . S
H1269 C1244 0.950 . S
H1270 C1246 0.950 . S
H1271 C1247 0.949 . S
H1272 C1249 0.950 . S
H1273 C1251 0.950 . S
C1274 C1275 1.349 . S
C1274 C1276 1.327 . S
C1274 H1299 0.950 . S
C1275 C1274 1.349 . S
C1275 C1291 1.349 . S
C1276 C1274 1.327 . S
C1276 C1295 1.429 . S
C1276 H1300 0.950 . S
C1277 C1294 1.574 1_554 S
C1277 C1296 1.368 . S
C1277 H1301 0.949 . S
H1278 C1282 0.949 . S
C1279 C1280 1.349 . S
C1279 C1281 1.327 . S
C1279 H1302 0.950 . S
C1280 C1279 1.349 . S
C1280 C1292 1.349 . S
C1281 C1279 1.327 . S
C1281 C1297 1.429 . S
C1281 H1303 0.950 . S
C1282 H1278 0.949 . S
C1282 C1290 1.574 1_556 S
C1282 C1298 1.368 . S
H1283 C1291 0.950 . S
H1284 C1289 0.950 . S
H1285 C1290 0.949 . S
H1286 C1292 0.950 . S
H1287 C1293 0.950 . S
H1288 C1294 0.949 . S
C1289 H1284 0.950 . S
C1289 C1291 1.327 . S
C1289 C1295 1.429 . S
C1290 C1282 1.574 1_554 S
C1290 H1285 0.949 . S
C1290 C1296 1.368 . S
C1291 C1275 1.349 . S
C1291 H1283 0.950 . S
C1291 C1289 1.327 . S
C1292 C1280 1.349 . S
C1292 H1286 0.950 . S
C1292 C1293 1.327 . S
C1293 H1287 0.950 . S
C1293 C1292 1.327 . S
C1293 C1297 1.429 . S
C1294 C1277 1.574 1_556 S
C1294 H1288 0.949 . S
C1294 C1298 1.368 . S
C1295 C1276 1.429 . S
C1295 C1289 1.429 . S
C1295 C1296 1.523 . S
C1296 C1277 1.368 . S
C1296 C1290 1.368 . S
C1296 C1295 1.523 . S
C1297 C1281 1.429 . S
C1297 C1293 1.429 . S
C1297 C1298 1.523 . S
C1298 C1282 1.368 . S
C1298 C1294 1.368 . S
C1298 C1297 1.523 . S
H1299 C1274 0.950 . S
H1300 C1276 0.950 . S
H1301 C1277 0.949 . S
H1302 C1279 0.950 . S
H1303 C1281 0.950 . S
C1304 C1305 1.349 . S
C1304 C1306 1.327 . S
C1304 H1329 0.950 . S
C1305 C1304 1.349 . S
C1305 C1321 1.349 . S
C1306 C1304 1.327 . S
C1306 C1325 1.429 . S
C1306 H1330 0.950 . S
C1307 C1324 1.574 1_554 S
C1307 C1326 1.368 . S
C1307 H1331 0.949 . S
H1308 C1312 0.949 . S
C1309 C1310 1.349 . S
C1309 C1311 1.327 . S
C1309 H1332 0.950 . S
C1310 C1309 1.349 . S
C1310 C1322 1.349 . S
C1311 C1309 1.327 . S
C1311 C1327 1.429 . S
C1311 H1333 0.950 . S
C1312 H1308 0.949 . S
C1312 C1320 1.574 1_556 S
C1312 C1328 1.368 . S
H1313 C1321 0.950 . S
H1314 C1319 0.950 . S
H1315 C1320 0.949 . S
H1316 C1322 0.950 . S
H1317 C1323 0.950 . S
H1318 C1324 0.949 . S
C1319 H1314 0.950 . S
C1319 C1321 1.327 . S
C1319 C1325 1.429 . S
C1320 C1312 1.574 1_554 S
C1320 H1315 0.949 . S
C1320 C1326 1.368 . S
C1321 C1305 1.349 . S
C1321 H1313 0.950 . S
C1321 C1319 1.327 . S
C1322 C1310 1.349 . S
C1322 H1316 0.950 . S
C1322 C1323 1.327 . S
C1323 H1317 0.950 . S
C1323 C1322 1.327 . S
C1323 C1327 1.429 . S
C1324 C1307 1.574 1_556 S
C1324 H1318 0.949 . S
C1324 C1328 1.368 . S
C1325 C1306 1.429 . S
C1325 C1319 1.429 . S
C1325 C1326 1.523 . S
C1326 C1307 1.368 . S
C1326 C1320 1.368 . S
C1326 C1325 1.523 . S
C1327 C1311 1.429 . S
C1327 C1323 1.429 . S
C1327 C1328 1.523 . S
C1328 C1312 1.368 . S
C1328 C1324 1.368 . S
C1328 C1327 1.523 . S
H1329 C1304 0.950 . S
H1330 C1306 0.950 . S
H1331 C1307 0.949 . S
H1332 C1309 0.950 . S
H1333 C1311 0.950 . S
C1334 C1335 1.349 . S
C1334 C1336 1.327 . S
C1334 H1359 0.950 . S
C1335 C1334 1.349 . S
C1335 C1351 1.349 . S
C1336 C1334 1.327 . S
C1336 C1355 1.429 . S
C1336 H1360 0.950 . S
C1337 C1354 1.574 . S
C1337 C1356 1.368 . S
C1337 H1361 0.949 . S
H1338 C1342 0.949 . S
C1339 C1340 1.349 . S
C1339 C1341 1.327 . S
C1339 H1362 0.950 . S
C1340 C1339 1.349 . S
C1340 C1352 1.349 . S
C1341 C1339 1.327 . S
C1341 C1357 1.429 . S
C1341 H1363 0.950 . S
C1342 H1338 0.949 . S
C1342 C1350 1.574 . S
C1342 C1358 1.368 . S
H1343 C1351 0.950 . S
H1344 C1349 0.950 . S
H1345 C1350 0.949 . S
H1346 C1352 0.950 . S
H1347 C1353 0.950 . S
H1348 C1354 0.949 . S
C1349 H1344 0.950 . S
C1349 C1351 1.327 . S
C1349 C1355 1.429 . S
C1350 C1342 1.574 . S
C1350 H1345 0.949 . S
C1350 C1356 1.368 . S
C1351 C1335 1.349 . S
C1351 H1343 0.950 . S
C1351 C1349 1.327 . S
C1352 C1340 1.349 . S
C1352 H1346 0.950 . S
C1352 C1353 1.327 . S
C1353 H1347 0.950 . S
C1353 C1352 1.327 . S
C1353 C1357 1.429 . S
C1354 C1337 1.574 . S
C1354 H1348 0.949 . S
C1354 C1358 1.368 . S
C1355 C1336 1.429 . S
C1355 C1349 1.429 . S
C1355 C1356 1.523 . S
C1356 C1337 1.368 . S
C1356 C1350 1.368 . S
C1356 C1355 1.523 . S
C1357 C1341 1.429 . S
C1357 C1353 1.429 . S
C1357 C1358 1.523 . S
C1358 C1342 1.368 . S
C1358 C1354 1.368 . S
C1358 C1357 1.523 . S
H1359 C1334 0.950 . S
H1360 C1336 0.950 . S
H1361 C1337 0.949 . S
H1362 C1339 0.950 . S
H1363 C1341 0.950 . S
C1364 C1365 1.349 . S
C1364 C1366 1.327 . S
C1364 H1389 0.950 . S
C1365 C1364 1.349 . S
C1365 C1381 1.349 . S
C1366 C1364 1.327 . S
C1366 C1385 1.429 . S
C1366 H1390 0.950 . S
C1367 C1384 1.574 . S
C1367 C1386 1.368 . S
C1367 H1391 0.949 . S
H1368 C1372 0.949 . S
C1369 C1370 1.349 . S
C1369 C1371 1.327 . S
C1369 H1392 0.950 . S
C1370 C1369 1.349 . S
C1370 C1382 1.349 . S
C1371 C1369 1.327 . S
C1371 C1387 1.429 . S
C1371 H1393 0.950 . S
C1372 H1368 0.949 . S
C1372 C1380 1.574 . S
C1372 C1388 1.368 . S
H1373 C1381 0.950 . S
H1374 C1379 0.950 . S
H1375 C1380 0.949 . S
H1376 C1382 0.950 . S
H1377 C1383 0.950 . S
H1378 C1384 0.949 . S
C1379 H1374 0.950 . S
C1379 C1381 1.327 . S
C1379 C1385 1.429 . S
C1380 C1372 1.574 . S
C1380 H1375 0.949 . S
C1380 C1386 1.368 . S
C1381 C1365 1.349 . S
C1381 H1373 0.950 . S
C1381 C1379 1.327 . S
C1382 C1370 1.349 . S
C1382 H1376 0.950 . S
C1382 C1383 1.327 . S
C1383 H1377 0.950 . S
C1383 C1382 1.327 . S
C1383 C1387 1.429 . S
C1384 C1367 1.574 . S
C1384 H1378 0.949 . S
C1384 C1388 1.368 . S
C1385 C1366 1.429 . S
C1385 C1379 1.429 . S
C1385 C1386 1.523 . S
C1386 C1367 1.368 . S
C1386 C1380 1.368 . S
C1386 C1385 1.523 . S
C1387 C1371 1.429 . S
C1387 C1383 1.429 . S
C1387 C1388 1.523 . S
C1388 C1372 1.368 . S
C1388 C1384 1.368 . S
C1388 C1387 1.523 . S
H1389 C1364 0.950 . S
H1390 C1366 0.950 . S
H1391 C1367 0.949 . S
H1392 C1369 0.950 . S
H1393 C1371 0.950 . S
C1394 C1395 1.349 . S
C1394 C1396 1.327 . S
C1394 H1419 0.950 . S
C1395 C1394 1.349 . S
C1395 C1411 1.349 . S
C1396 C1394 1.327 . S
C1396 C1415 1.429 . S
C1396 H1420 0.950 . S
C1397 C1414 1.574 . S
C1397 C1416 1.368 . S
C1397 H1421 0.949 . S
H1398 C1402 0.949 . S
C1399 C1400 1.349 . S
C1399 C1401 1.327 . S
C1399 H1422 0.950 . S
C1400 C1399 1.349 . S
C1400 C1412 1.349 . S
C1401 C1399 1.327 . S
C1401 C1417 1.429 . S
C1401 H1423 0.950 . S
C1402 H1398 0.949 . S
C1402 C1410 1.574 . S
C1402 C1418 1.368 . S
H1403 C1411 0.950 . S
H1404 C1409 0.950 . S
H1405 C1410 0.949 . S
H1406 C1412 0.950 . S
H1407 C1413 0.950 . S
H1408 C1414 0.949 . S
C1409 H1404 0.950 . S
C1409 C1411 1.327 . S
C1409 C1415 1.429 . S
C1410 C1402 1.574 . S
C1410 H1405 0.949 . S
C1410 C1416 1.368 . S
C1411 C1395 1.349 . S
C1411 H1403 0.950 . S
C1411 C1409 1.327 . S
C1412 C1400 1.349 . S
C1412 H1406 0.950 . S
C1412 C1413 1.327 . S
C1413 H1407 0.950 . S
C1413 C1412 1.327 . S
C1413 C1417 1.429 . S
C1414 C1397 1.574 . S
C1414 H1408 0.949 . S
C1414 C1418 1.368 . S
C1415 C1396 1.429 . S
C1415 C1409 1.429 . S
C1415 C1416 1.523 . S
C1416 C1397 1.368 . S
C1416 C1410 1.368 . S
C1416 C1415 1.523 . S
C1417 C1401 1.429 . S
C1417 C1413 1.429 . S
C1417 C1418 1.523 . S
C1418 C1402 1.368 . S
C1418 C1414 1.368 . S
C1418 C1417 1.523 . S
H1419 C1394 0.950 . S
H1420 C1396 0.950 . S
H1421 C1397 0.949 . S
H1422 C1399 0.950 . S
H1423 C1401 0.950 . S
C1424 C1425 1.349 . S
C1424 C1426 1.327 . S
C1424 H1449 0.950 . S
C1425 C1424 1.349 . S
C1425 C1441 1.349 . S
C1426 C1424 1.327 . S
C1426 C1445 1.429 . S
C1426 H1450 0.950 . S
C1427 C1444 1.574 1_455 S
C1427 C1446 1.368 1_565 S
C1427 H1451 0.949 . S
H1428 C1432 0.949 . S
C1429 C1430 1.349 . S
C1429 C1431 1.327 . S
C1429 H1452 0.950 . S
C1430 C1429 1.349 . S
C1430 C1442 1.349 . S
C1431 C1429 1.327 . S
C1431 C1447 1.429 . S
C1431 H1453 0.950 . S
C1432 H1428 0.949 . S
C1432 C1440 1.574 1_655 S
C1432 C1448 1.368 1_545 S
H1433 C1441 0.950 . S
H1434 C1439 0.950 . S
H1435 C1440 0.949 . S
H1436 C1442 0.950 . S
H1437 C1443 0.950 . S
H1438 C1444 0.949 . S
C1439 H1434 0.950 . S
C1439 C1441 1.327 . S
C1439 C1445 1.429 . S
C1440 C1432 1.574 1_455 S
C1440 H1435 0.949 . S
C1440 C1446 1.368 . S
C1441 C1425 1.349 . S
C1441 H1433 0.950 . S
C1441 C1439 1.327 . S
C1442 C1430 1.349 . S
C1442 H1436 0.950 . S
C1442 C1443 1.327 . S
C1443 H1437 0.950 . S
C1443 C1442 1.327 . S
C1443 C1447 1.429 . S
C1444 C1427 1.574 1_655 S
C1444 H1438 0.949 . S
C1444 C1448 1.368 . S
C1445 C1426 1.429 . S
C1445 C1439 1.429 . S
C1445 C1446 1.523 . S
C1446 C1427 1.368 1_545 S
C1446 C1440 1.368 . S
C1446 C1445 1.523 . S
C1447 C1431 1.429 . S
C1447 C1443 1.429 . S
C1447 C1448 1.523 . S
C1448 C1432 1.368 1_565 S
C1448 C1444 1.368 . S
C1448 C1447 1.523 . S
H1449 C1424 0.950 . S
H1450 C1426 0.950 . S
H1451 C1427 0.949 . S
H1452 C1429 0.950 . S
H1453 C1431 0.950 . S
C1454 C1455 1.349 . S
C1454 C1456 1.327 . S
C1454 H1479 0.950 . S
C1455 C1454 1.349 . S
C1455 C1471 1.349 . S
C1456 C1454 1.327 . S
C1456 C1475 1.429 . S
C1456 H1480 0.950 . S
C1457 C1474 1.574 . S
C1457 C1476 1.368 1_655 S
C1457 H1481 0.949 . S
H1458 C1462 0.949 . S
C1459 C1460 1.349 . S
C1459 C1461 1.327 . S
C1459 H1482 0.950 . S
C1460 C1459 1.349 . S
C1460 C1472 1.349 . S
C1461 C1459 1.327 . S
C1461 C1477 1.429 . S
C1461 H1483 0.950 . S
C1462 H1458 0.949 . S
C1462 C1470 1.574 . S
C1462 C1478 1.368 1_455 S
H1463 C1471 0.950 . S
H1464 C1469 0.950 . S
H1465 C1470 0.949 . S
H1466 C1472 0.950 . S
H1467 C1473 0.950 . S
H1468 C1474 0.949 . S
C1469 H1464 0.950 . S
C1469 C1471 1.327 . S
C1469 C1475 1.429 . S
C1470 C1462 1.574 . S
C1470 H1465 0.949 . S
C1470 C1476 1.368 . S
C1471 C1455 1.349 . S
C1471 H1463 0.950 . S
C1471 C1469 1.327 . S
C1472 C1460 1.349 . S
C1472 H1466 0.950 . S
C1472 C1473 1.327 . S
C1473 H1467 0.950 . S
C1473 C1472 1.327 . S
C1473 C1477 1.429 . S
C1474 C1457 1.574 . S
C1474 H1468 0.949 . S
C1474 C1478 1.368 . S
C1475 C1456 1.429 . S
C1475 C1469 1.429 . S
C1475 C1476 1.523 . S
C1476 C1457 1.368 1_455 S
C1476 C1470 1.368 . S
C1476 C1475 1.523 . S
C1477 C1461 1.429 . S
C1477 C1473 1.429 . S
C1477 C1478 1.523 . S
C1478 C1462 1.368 1_655 S
C1478 C1474 1.368 . S
C1478 C1477 1.523 . S
H1479 C1454 0.950 . S
H1480 C1456 0.950 . S
H1481 C1457 0.949 . S
H1482 C1459 0.950 . S
H1483 C1461 0.950 . S
C1484 C1485 1.349 . S
C1484 C1486 1.327 . S
C1484 H1509 0.950 . S
C1485 C1484 1.349 . S
C1485 C1501 1.349 . S
C1486 C1484 1.327 . S
C1486 C1505 1.429 . S
C1486 H1510 0.950 . S
C1487 C1504 1.574 . S
C1487 C1506 1.368 . S
C1487 H1511 0.949 . S
H1488 C1492 0.949 . S
C1489 C1490 1.349 . S
C1489 C1491 1.327 . S
C1489 H1512 0.950 . S
C1490 C1489 1.349 . S
C1490 C1502 1.349 . S
C1491 C1489 1.327 . S
C1491 C1507 1.429 . S
C1491 H1513 0.950 . S
C1492 H1488 0.949 . S
C1492 C1500 1.574 . S
C1492 C1508 1.368 . S
H1493 C1501 0.950 . S
H1494 C1499 0.950 . S
H1495 C1500 0.949 . S
H1496 C1502 0.950 . S
H1497 C1503 0.950 . S
H1498 C1504 0.949 . S
C1499 H1494 0.950 . S
C1499 C1501 1.327 . S
C1499 C1505 1.429 . S
C1500 C1492 1.574 . S
C1500 H1495 0.949 . S
C1500 C1506 1.368 . S
C1501 C1485 1.349 . S
C1501 H1493 0.950 . S
C1501 C1499 1.327 . S
C1502 C1490 1.349 . S
C1502 H1496 0.950 . S
C1502 C1503 1.327 . S
C1503 H1497 0.950 . S
C1503 C1502 1.327 . S
C1503 C1507 1.429 . S
C1504 C1487 1.574 . S
C1504 H1498 0.949 . S
C1504 C1508 1.368 . S
C1505 C1486 1.429 . S
C1505 C1499 1.429 . S
C1505 C1506 1.523 . S
C1506 C1487 1.368 . S
C1506 C1500 1.368 . S
C1506 C1505 1.523 . S
C1507 C1491 1.429 . S
C1507 C1503 1.429 . S
C1507 C1508 1.523 . S
C1508 C1492 1.368 . S
C1508 C1504 1.368 . S
C1508 C1507 1.523 . S
H1509 C1484 0.950 . S
H1510 C1486 0.950 . S
H1511 C1487 0.949 . S
H1512 C1489 0.950 . S
H1513 C1491 0.950 . S
C1514 C1515 1.349 . S
C1514 C1516 1.327 . S
C1514 H1539 0.950 . S
C1515 C1514 1.349 . S
C1515 C1531 1.349 . S
C1516 C1514 1.327 . S
C1516 C1535 1.429 . S
C1516 H1540 0.950 . S
C1517 C1534 1.574 1_545 S
C1517 C1536 1.368 . S
C1517 H1541 0.949 . S
H1518 C1522 0.949 . S
C1519 C1520 1.349 . S
C1519 C1521 1.327 . S
C1519 H1542 0.950 . S
C1520 C1519 1.349 . S
C1520 C1532 1.349 . S
C1521 C1519 1.327 . S
C1521 C1537 1.429 . S
C1521 H1543 0.950 . S
C1522 H1518 0.949 . S
C1522 C1530 1.574 1_565 S
C1522 C1538 1.368 . S
H1523 C1531 0.950 . S
H1524 C1529 0.950 . S
H1525 C1530 0.949 . S
H1526 C1532 0.950 . S
H1527 C1533 0.950 . S
H1528 C1534 0.949 . S
C1529 H1524 0.950 . S
C1529 C1531 1.327 . S
C1529 C1535 1.429 . S
C1530 C1522 1.574 1_545 S
C1530 H1525 0.949 . S
C1530 C1536 1.368 . S
C1531 C1515 1.349 . S
C1531 H1523 0.950 . S
C1531 C1529 1.327 . S
C1532 C1520 1.349 . S
C1532 H1526 0.950 . S
C1532 C1533 1.327 . S
C1533 H1527 0.950 . S
C1533 C1532 1.327 . S
C1533 C1537 1.429 . S
C1534 C1517 1.574 1_565 S
C1534 H1528 0.949 . S
C1534 C1538 1.368 . S
C1535 C1516 1.429 . S
C1535 C1529 1.429 . S
C1535 C1536 1.523 . S
C1536 C1517 1.368 . S
C1536 C1530 1.368 . S
C1536 C1535 1.523 . S
C1537 C1521 1.429 . S
C1537 C1533 1.429 . S
C1537 C1538 1.523 . S
C1538 C1522 1.368 . S
C1538 C1534 1.368 . S
C1538 C1537 1.523 . S
H1539 C1514 0.950 . S
H1540 C1516 0.950 . S
H1541 C1517 0.949 . S
H1542 C1519 0.950 . S
H1543 C1521 0.950 . S
C1544 C1545 1.349 . S
C1544 C1546 1.327 . S
C1544 H1569 0.950 . S
C1545 C1544 1.349 . S
C1545 C1561 1.349 . S
C1546 C1544 1.327 . S
C1546 C1565 1.429 . S
C1546 H1570 0.950 . S
C1547 C1564 1.574 1_455 S
C1547 C1566 1.368 . S
C1547 H1571 0.949 . S
H1548 C1552 0.949 . S
C1549 C1550 1.349 . S
C1549 C1551 1.327 . S
C1549 H1572 0.950 . S
C1550 C1549 1.349 . S
C1550 C1562 1.349 . S
C1551 C1549 1.327 . S
C1551 C1567 1.429 . S
C1551 H1573 0.950 . S
C1552 H1548 0.949 . S
C1552 C1560 1.574 1_655 S
C1552 C1568 1.368 . S
H1553 C1561 0.950 . S
H1554 C1559 0.950 . S
H1555 C1560 0.949 . S
H1556 C1562 0.950 . S
H1557 C1563 0.950 . S
H1558 C1564 0.949 . S
C1559 H1554 0.950 . S
C1559 C1561 1.327 . S
C1559 C1565 1.429 . S
C1560 C1552 1.574 1_455 S
C1560 H1555 0.949 . S
C1560 C1566 1.368 . S
C1561 C1545 1.349 . S
C1561 H1553 0.950 . S
C1561 C1559 1.327 . S
C1562 C1550 1.349 . S
C1562 H1556 0.950 . S
C1562 C1563 1.327 . S
C1563 H1557 0.950 . S
C1563 C1562 1.327 . S
C1563 C1567 1.429 . S
C1564 C1547 1.574 1_655 S
C1564 H1558 0.949 . S
C1564 C1568 1.368 . S
C1565 C1546 1.429 . S
C1565 C1559 1.429 . S
C1565 C1566 1.523 . S
C1566 C1547 1.368 . S
C1566 C1560 1.368 . S
C1566 C1565 1.523 . S
C1567 C1551 1.429 . S
C1567 C1563 1.429 . S
C1567 C1568 1.523 . S
C1568 C1552 1.368 . S
C1568 C1564 1.368 . S
C1568 C1567 1.523 . S
H1569 C1544 0.950 . S
H1570 C1546 0.950 . S
H1571 C1547 0.949 . S
H1572 C1549 0.950 . S
H1573 C1551 0.950 . S
C1574 C1575 1.349 . S
C1574 C1576 1.327 . S
C1574 H1599 0.950 . S
C1575 C1574 1.349 . S
C1575 C1591 1.349 . S
C1576 C1574 1.327 . S
C1576 C1595 1.429 . S
C1576 H1600 0.950 . S
C1577 C1594 1.574 . S
C1577 C1596 1.368 . S
C1577 H1601 0.949 . S
H1578 C1582 0.949 . S
C1579 C1580 1.349 . S
C1579 C1581 1.327 . S
C1579 H1602 0.950 . S
C1580 C1579 1.349 . S
C1580 C1592 1.349 . S
C1581 C1579 1.327 . S
C1581 C1597 1.429 . S
C1581 H1603 0.950 . S
C1582 H1578 0.949 . S
C1582 C1590 1.574 . S
C1582 C1598 1.368 . S
H1583 C1591 0.950 . S
H1584 C1589 0.950 . S
H1585 C1590 0.949 . S
H1586 C1592 0.950 . S
H1587 C1593 0.950 . S
H1588 C1594 0.949 . S
C1589 H1584 0.950 . S
C1589 C1591 1.327 . S
C1589 C1595 1.429 . S
C1590 C1582 1.574 . S
C1590 H1585 0.949 . S
C1590 C1596 1.368 . S
C1591 C1575 1.349 . S
C1591 H1583 0.950 . S
C1591 C1589 1.327 . S
C1592 C1580 1.349 . S
C1592 H1586 0.950 . S
C1592 C1593 1.327 . S
C1593 H1587 0.950 . S
C1593 C1592 1.327 . S
C1593 C1597 1.429 . S
C1594 C1577 1.574 . S
C1594 H1588 0.949 . S
C1594 C1598 1.368 . S
C1595 C1576 1.429 . S
C1595 C1589 1.429 . S
C1595 C1596 1.523 . S
C1596 C1577 1.368 . S
C1596 C1590 1.368 . S
C1596 C1595 1.523 . S
C1597 C1581 1.429 . S
C1597 C1593 1.429 . S
C1597 C1598 1.523 . S
C1598 C1582 1.368 . S
C1598 C1594 1.368 . S
C1598 C1597 1.523 . S
H1599 C1574 0.950 . S
H1600 C1576 0.950 . S
H1601 C1577 0.949 . S
H1602 C1579 0.950 . S
H1603 C1581 0.950 . S
C1604 C1605 1.349 . S
C1604 C1606 1.327 . S
C1604 H1629 0.950 . S
C1605 C1604 1.349 . S
C1605 C1621 1.349 . S
C1606 C1604 1.327 . S
C1606 C1625 1.429 . S
C1606 H1630 0.950 . S
C1607 C1624 1.574 . S
C1607 C1626 1.368 1_545 S
C1607 H1631 0.949 . S
H1608 C1612 0.949 . S
C1609 C1610 1.349 . S
C1609 C1611 1.327 . S
C1609 H1632 0.950 . S
C1610 C1609 1.349 . S
C1610 C1622 1.349 . S
C1611 C1609 1.327 . S
C1611 C1627 1.429 . S
C1611 H1633 0.950 . S
C1612 H1608 0.949 . S
C1612 C1620 1.574 . S
C1612 C1628 1.368 1_565 S
H1613 C1621 0.950 . S
H1614 C1619 0.950 . S
H1615 C1620 0.949 . S
H1616 C1622 0.950 . S
H1617 C1623 0.950 . S
H1618 C1624 0.949 . S
C1619 H1614 0.950 . S
C1619 C1621 1.327 . S
C1619 C1625 1.429 . S
C1620 C1612 1.574 . S
C1620 H1615 0.949 . S
C1620 C1626 1.368 . S
C1621 C1605 1.349 . S
C1621 H1613 0.950 . S
C1621 C1619 1.327 . S
C1622 C1610 1.349 . S
C1622 H1616 0.950 . S
C1622 C1623 1.327 . S
C1623 H1617 0.950 . S
C1623 C1622 1.327 . S
C1623 C1627 1.429 . S
C1624 C1607 1.574 . S
C1624 H1618 0.949 . S
C1624 C1628 1.368 . S
C1625 C1606 1.429 . S
C1625 C1619 1.429 . S
C1625 C1626 1.523 . S
C1626 C1607 1.368 1_565 S
C1626 C1620 1.368 . S
C1626 C1625 1.523 . S
C1627 C1611 1.429 . S
C1627 C1623 1.429 . S
C1627 C1628 1.523 . S
C1628 C1612 1.368 1_545 S
C1628 C1624 1.368 . S
C1628 C1627 1.523 . S
H1629 C1604 0.950 . S
H1630 C1606 0.950 . S
H1631 C1607 0.949 . S
H1632 C1609 0.950 . S
H1633 C1611 0.950 . S
C1634 C1635 1.349 . S
C1634 C1636 1.327 . S
C1634 H1659 0.950 . S
C1635 C1634 1.349 . S
C1635 C1651 1.349 . S
C1636 C1634 1.327 . S
C1636 C1655 1.429 . S
C1636 H1660 0.950 . S
C1637 C1654 1.574 1_545 S
C1637 C1656 1.368 . S
C1637 H1661 0.949 . S
H1638 C1642 0.949 . S
C1639 C1640 1.349 . S
C1639 C1641 1.327 . S
C1639 H1662 0.950 . S
C1640 C1639 1.349 . S
C1640 C1652 1.349 . S
C1641 C1639 1.327 . S
C1641 C1657 1.429 . S
C1641 H1663 0.950 . S
C1642 H1638 0.949 . S
C1642 C1650 1.574 1_565 S
C1642 C1658 1.368 . S
H1643 C1651 0.950 . S
H1644 C1649 0.950 . S
H1645 C1650 0.949 . S
H1646 C1652 0.950 . S
H1647 C1653 0.950 . S
H1648 C1654 0.949 . S
C1649 H1644 0.950 . S
C1649 C1651 1.327 . S
C1649 C1655 1.429 . S
C1650 C1642 1.574 1_545 S
C1650 H1645 0.949 . S
C1650 C1656 1.368 1_655 S
C1651 C1635 1.349 . S
C1651 H1643 0.950 . S
C1651 C1649 1.327 . S
C1652 C1640 1.349 . S
C1652 H1646 0.950 . S
C1652 C1653 1.327 . S
C1653 H1647 0.950 . S
C1653 C1652 1.327 . S
C1653 C1657 1.429 . S
C1654 C1637 1.574 1_565 S
C1654 H1648 0.949 . S
C1654 C1658 1.368 1_455 S
C1655 C1636 1.429 . S
C1655 C1649 1.429 . S
C1655 C1656 1.523 . S
C1656 C1637 1.368 . S
C1656 C1650 1.368 1_455 S
C1656 C1655 1.523 . S
C1657 C1641 1.429 . S
C1657 C1653 1.429 . S
C1657 C1658 1.523 . S
C1658 C1642 1.368 . S
C1658 C1654 1.368 1_655 S
C1658 C1657 1.523 . S
H1659 C1634 0.950 . S
H1660 C1636 0.950 . S
H1661 C1637 0.949 . S
H1662 C1639 0.950 . S
H1663 C1641 0.950 . S
C1664 C1665 1.349 . S
C1664 C1666 1.327 . S
C1664 H1689 0.950 . S
C1665 C1664 1.349 . S
C1665 C1681 1.349 . S
C1666 C1664 1.327 . S
C1666 C1685 1.429 . S
C1666 H1690 0.950 . S
C1667 C1684 1.574 . S
C1667 C1686 1.368 1_545 S
C1667 H1691 0.949 . S
H1668 C1672 0.949 . S
C1669 C1670 1.349 . S
C1669 C1671 1.327 . S
C1669 H1692 0.950 . S
C1670 C1669 1.349 . S
C1670 C1682 1.349 . S
C1671 C1669 1.327 . S
C1671 C1687 1.429 . S
C1671 H1693 0.950 . S
C1672 H1668 0.949 . S
C1672 C1680 1.574 . S
C1672 C1688 1.368 1_565 S
H1673 C1681 0.950 . S
H1674 C1679 0.950 . S
H1675 C1680 0.949 . S
H1676 C1682 0.950 . S
H1677 C1683 0.950 . S
H1678 C1684 0.949 . S
C1679 H1674 0.950 . S
C1679 C1681 1.327 . S
C1679 C1685 1.429 . S
C1680 C1672 1.574 . S
C1680 H1675 0.949 . S
C1680 C1686 1.368 . S
C1681 C1665 1.349 . S
C1681 H1673 0.950 . S
C1681 C1679 1.327 . S
C1682 C1670 1.349 . S
C1682 H1676 0.950 . S
C1682 C1683 1.327 . S
C1683 H1677 0.950 . S
C1683 C1682 1.327 . S
C1683 C1687 1.429 . S
C1684 C1667 1.574 . S
C1684 H1678 0.949 . S
C1684 C1688 1.368 . S
C1685 C1666 1.429 . S
C1685 C1679 1.429 . S
C1685 C1686 1.523 . S
C1686 C1667 1.368 1_565 S
C1686 C1680 1.368 . S
C1686 C1685 1.523 . S
C1687 C1671 1.429 . S
C1687 C1683 1.429 . S
C1687 C1688 1.523 . S
C1688 C1672 1.368 1_545 S
C1688 C1684 1.368 . S
C1688 C1687 1.523 . S
H1689 C1664 0.950 . S
H1690 C1666 0.950 . S
H1691 C1667 0.949 . S
H1692 C1669 0.950 . S
H1693 C1671 0.950 . S
C1694 C1695 1.349 . S
C1694 C1696 1.327 . S
C1694 H1719 0.950 . S
C1695 C1694 1.349 . S
C1695 C1711 1.349 . S
C1696 C1694 1.327 . S
C1696 C1715 1.429 . S
C1696 H1720 0.950 . S
C1697 C1714 1.574 1_565 S
C1697 C1716 1.368 . S
C1697 H1721 0.949 . S
H1698 C1702 0.949 . S
C1699 C1700 1.349 . S
C1699 C1701 1.327 . S
C1699 H1722 0.950 . S
C1700 C1699 1.349 . S
C1700 C1712 1.349 . S
C1701 C1699 1.327 . S
C1701 C1717 1.429 . S
C1701 H1723 0.950 . S
C1702 H1698 0.949 . S
C1702 C1710 1.574 1_545 S
C1702 C1718 1.368 . S
H1703 C1711 0.950 . S
H1704 C1709 0.950 . S
H1705 C1710 0.949 . S
H1706 C1712 0.950 . S
H1707 C1713 0.950 . S
H1708 C1714 0.949 . S
C1709 H1704 0.950 . S
C1709 C1711 1.327 . S
C1709 C1715 1.429 . S
C1710 C1702 1.574 1_565 S
C1710 H1705 0.949 . S
C1710 C1716 1.368 1_455 S
C1711 C1695 1.349 . S
C1711 H1703 0.950 . S
C1711 C1709 1.327 . S
C1712 C1700 1.349 . S
C1712 H1706 0.950 . S
C1712 C1713 1.327 . S
C1713 H1707 0.950 . S
C1713 C1712 1.327 . S
C1713 C1717 1.429 . S
C1714 C1697 1.574 1_545 S
C1714 H1708 0.949 . S
C1714 C1718 1.368 1_655 S
C1715 C1696 1.429 . S
C1715 C1709 1.429 . S
C1715 C1716 1.523 . S
C1716 C1697 1.368 . S
C1716 C1710 1.368 1_655 S
C1716 C1715 1.523 . S
C1717 C1701 1.429 . S
C1717 C1713 1.429 . S
C1717 C1718 1.523 . S
C1718 C1702 1.368 . S
C1718 C1714 1.368 1_455 S
C1718 C1717 1.523 . S
H1719 C1694 0.950 . S
H1720 C1696 0.950 . S
H1721 C1697 0.949 . S
H1722 C1699 0.950 . S
H1723 C1701 0.950 . S
C1724 C1725 1.349 . S
C1724 C1726 1.327 . S
C1724 H1749 0.950 . S
C1725 C1724 1.349 . S
C1725 C1741 1.349 . S
C1726 C1724 1.327 . S
C1726 C1745 1.429 . S
C1726 H1750 0.950 . S
C1727 C1744 1.574 1_455 S
C1727 C1746 1.368 . S
C1727 H1751 0.949 . S
H1728 C1732 0.949 . S
C1729 C1730 1.349 . S
C1729 C1731 1.327 . S
C1729 H1752 0.950 . S
C1730 C1729 1.349 . S
C1730 C1742 1.349 . S
C1731 C1729 1.327 . S
C1731 C1747 1.429 . S
C1731 H1753 0.950 . S
C1732 H1728 0.949 . S
C1732 C1740 1.574 1_655 S
C1732 C1748 1.368 . S
H1733 C1741 0.950 . S
H1734 C1739 0.950 . S
H1735 C1740 0.949 . S
H1736 C1742 0.950 . S
H1737 C1743 0.950 . S
H1738 C1744 0.949 . S
C1739 H1734 0.950 . S
C1739 C1741 1.327 . S
C1739 C1745 1.429 . S
C1740 C1732 1.574 1_455 S
C1740 H1735 0.949 . S
C1740 C1746 1.368 . S
C1741 C1725 1.349 . S
C1741 H1733 0.950 . S
C1741 C1739 1.327 . S
C1742 C1730 1.349 . S
C1742 H1736 0.950 . S
C1742 C1743 1.327 . S
C1743 H1737 0.950 . S
C1743 C1742 1.327 . S
C1743 C1747 1.429 . S
C1744 C1727 1.574 1_655 S
C1744 H1738 0.949 . S
C1744 C1748 1.368 . S
C1745 C1726 1.429 . S
C1745 C1739 1.429 . S
C1745 C1746 1.523 . S
C1746 C1727 1.368 . S
C1746 C1740 1.368 . S
C1746 C1745 1.523 . S
C1747 C1731 1.429 . S
C1747 C1743 1.429 . S
C1747 C1748 1.523 . S
C1748 C1732 1.368 . S
C1748 C1744 1.368 . S
C1748 C1747 1.523 . S
H1749 C1724 0.950 . S
H1750 C1726 0.950 . S
H1751 C1727 0.949 . S
H1752 C1729 0.950 . S
H1753 C1731 0.950 . S
C1754 C1755 1.349 . S
C1754 C1756 1.327 . S
C1754 H1779 0.950 . S
C1755 C1754 1.349 . S
C1755 C1771 1.349 . S
C1756 C1754 1.327 . S
C1756 C1775 1.429 . S
C1756 H1780 0.950 . S
C1757 C1774 1.574 . S
C1757 C1776 1.368 . S
C1757 H1781 0.949 . S
H1758 C1762 0.949 . S
C1759 C1760 1.349 . S
C1759 C1761 1.327 . S
C1759 H1782 0.950 . S
C1760 C1759 1.349 . S
C1760 C1772 1.349 . S
C1761 C1759 1.327 . S
C1761 C1777 1.429 . S
C1761 H1783 0.950 . S
C1762 H1758 0.949 . S
C1762 C1770 1.574 . S
C1762 C1778 1.368 . S
H1763 C1771 0.950 . S
H1764 C1769 0.950 . S
H1765 C1770 0.949 . S
H1766 C1772 0.950 . S
H1767 C1773 0.950 . S
H1768 C1774 0.949 . S
C1769 H1764 0.950 . S
C1769 C1771 1.327 . S
C1769 C1775 1.429 . S
C1770 C1762 1.574 . S
C1770 H1765 0.949 . S
C1770 C1776 1.368 . S
C1771 C1755 1.349 . S
C1771 H1763 0.950 . S
C1771 C1769 1.327 . S
C1772 C1760 1.349 . S
C1772 H1766 0.950 . S
C1772 C1773 1.327 . S
C1773 H1767 0.950 . S
C1773 C1772 1.327 . S
C1773 C1777 1.429 . S
C1774 C1757 1.574 . S
C1774 H1768 0.949 . S
C1774 C1778 1.368 . S
C1775 C1756 1.429 . S
C1775 C1769 1.429 . S
C1775 C1776 1.523 . S
C1776 C1757 1.368 . S
C1776 C1770 1.368 . S
C1776 C1775 1.523 . S
C1777 C1761 1.429 . S
C1777 C1773 1.429 . S
C1777 C1778 1.523 . S
C1778 C1762 1.368 . S
C1778 C1774 1.368 . S
C1778 C1777 1.523 . S
H1779 C1754 0.950 . S
H1780 C1756 0.950 . S
H1781 C1757 0.949 . S
H1782 C1759 0.950 . S
H1783 C1761 0.950 . S
C1784 C1785 1.349 . S
C1784 C1786 1.327 . S
C1784 H1809 0.950 . S
C1785 C1784 1.349 . S
C1785 C1801 1.349 . S
C1786 C1784 1.327 . S
C1786 C1805 1.429 . S
C1786 H1810 0.950 . S
C1787 C1804 1.574 . S
C1787 C1806 1.368 . S
C1787 H1811 0.949 . S
H1788 C1792 0.949 . S
C1789 C1790 1.349 . S
C1789 C1791 1.327 . S
C1789 H1812 0.950 . S
C1790 C1789 1.349 . S
C1790 C1802 1.349 . S
C1791 C1789 1.327 . S
C1791 C1807 1.429 . S
C1791 H1813 0.950 . S
C1792 H1788 0.949 . S
C1792 C1800 1.574 . S
C1792 C1808 1.368 . S
H1793 C1801 0.950 . S
H1794 C1799 0.950 . S
H1795 C1800 0.949 . S
H1796 C1802 0.950 . S
H1797 C1803 0.950 . S
H1798 C1804 0.949 . S
C1799 H1794 0.950 . S
C1799 C1801 1.327 . S
C1799 C1805 1.429 . S
C1800 C1792 1.574 . S
C1800 H1795 0.949 . S
C1800 C1806 1.368 . S
C1801 C1785 1.349 . S
C1801 H1793 0.950 . S
C1801 C1799 1.327 . S
C1802 C1790 1.349 . S
C1802 H1796 0.950 . S
C1802 C1803 1.327 . S
C1803 H1797 0.950 . S
C1803 C1802 1.327 . S
C1803 C1807 1.429 . S
C1804 C1787 1.574 . S
C1804 H1798 0.949 . S
C1804 C1808 1.368 . S
C1805 C1786 1.429 . S
C1805 C1799 1.429 . S
C1805 C1806 1.523 . S
C1806 C1787 1.368 . S
C1806 C1800 1.368 . S
C1806 C1805 1.523 . S
C1807 C1791 1.429 . S
C1807 C1803 1.429 . S
C1807 C1808 1.523 . S
C1808 C1792 1.368 . S
C1808 C1804 1.368 . S
C1808 C1807 1.523 . S
H1809 C1784 0.950 . S
H1810 C1786 0.950 . S
H1811 C1787 0.949 . S
H1812 C1789 0.950 . S
H1813 C1791 0.950 . S
C1814 C1815 1.349 . S
C1814 C1816 1.327 . S
C1814 H1839 0.950 . S
C1815 C1814 1.349 . S
C1815 C1831 1.349 . S
C1816 C1814 1.327 . S
C1816 C1835 1.429 . S
C1816 H1840 0.950 . S
C1817 C1834 1.574 1_545 S
C1817 C1836 1.368 . S
C1817 H1841 0.949 . S
H1818 C1822 0.949 . S
C1819 C1820 1.349 . S
C1819 C1821 1.327 . S
C1819 H1842 0.950 . S
C1820 C1819 1.349 . S
C1820 C1832 1.349 . S
C1821 C1819 1.327 . S
C1821 C1837 1.429 . S
C1821 H1843 0.950 . S
C1822 H1818 0.949 . S
C1822 C1830 1.574 1_565 S
C1822 C1838 1.368 . S
H1823 C1831 0.950 . S
H1824 C1829 0.950 . S
H1825 C1830 0.949 . S
H1826 C1832 0.950 . S
H1827 C1833 0.950 . S
H1828 C1834 0.949 . S
C1829 H1824 0.950 . S
C1829 C1831 1.327 . S
C1829 C1835 1.429 . S
C1830 C1822 1.574 1_545 S
C1830 H1825 0.949 . S
C1830 C1836 1.368 . S
C1831 C1815 1.349 . S
C1831 H1823 0.950 . S
C1831 C1829 1.327 . S
C1832 C1820 1.349 . S
C1832 H1826 0.950 . S
C1832 C1833 1.327 . S
C1833 H1827 0.950 . S
C1833 C1832 1.327 . S
C1833 C1837 1.429 . S
C1834 C1817 1.574 1_565 S
C1834 H1828 0.949 . S
C1834 C1838 1.368 . S
C1835 C1816 1.429 . S
C1835 C1829 1.429 . S
C1835 C1836 1.523 . S
C1836 C1817 1.368 . S
C1836 C1830 1.368 . S
C1836 C1835 1.523 . S
C1837 C1821 1.429 . S
C1837 C1833 1.429 . S
C1837 C1838 1.523 . S
C1838 C1822 1.368 . S
C1838 C1834 1.368 . S
C1838 C1837 1.523 . S
H1839 C1814 0.950 . S
H1840 C1816 0.950 . S
H1841 C1817 0.949 . S
H1842 C1819 0.950 . S
H1843 C1821 0.950 . S
C1844 C1845 1.349 . S
C1844 C1846 1.327 . S
C1844 H1869 0.950 . S
C1845 C1844 1.349 . S
C1845 C1861 1.349 . S
C1846 C1844 1.327 . S
C1846 C1865 1.429 . S
C1846 H1870 0.950 . S
C1847 C1864 1.574 1_655 S
C1847 C1866 1.368 1_545 S
C1847 H1871 0.949 . S
H1848 C1852 0.949 . S
C1849 C1850 1.349 . S
C1849 C1851 1.327 . S
C1849 H1872 0.950 . S
C1850 C1849 1.349 . S
C1850 C1862 1.349 . S
C1851 C1849 1.327 . S
C1851 C1867 1.429 . S
C1851 H1873 0.950 . S
C1852 H1848 0.949 . S
C1852 C1860 1.574 1_455 S
C1852 C1868 1.368 1_565 S
H1853 C1861 0.950 . S
H1854 C1859 0.950 . S
H1855 C1860 0.949 . S
H1856 C1862 0.950 . S
H1857 C1863 0.950 . S
H1858 C1864 0.949 . S
C1859 H1854 0.950 . S
C1859 C1861 1.327 . S
C1859 C1865 1.429 . S
C1860 C1852 1.574 1_655 S
C1860 H1855 0.949 . S
C1860 C1866 1.368 . S
C1861 C1845 1.349 . S
C1861 H1853 0.950 . S
C1861 C1859 1.327 . S
C1862 C1850 1.349 . S
C1862 H1856 0.950 . S
C1862 C1863 1.327 . S
C1863 H1857 0.950 . S
C1863 C1862 1.327 . S
C1863 C1867 1.429 . S
C1864 C1847 1.574 1_455 S
C1864 H1858 0.949 . S
C1864 C1868 1.368 . S
C1865 C1846 1.429 . S
C1865 C1859 1.429 . S
C1865 C1866 1.523 . S
C1866 C1847 1.368 1_565 S
C1866 C1860 1.368 . S
C1866 C1865 1.523 . S
C1867 C1851 1.429 . S
C1867 C1863 1.429 . S
C1867 C1868 1.523 . S
C1868 C1852 1.368 1_545 S
C1868 C1864 1.368 . S
C1868 C1867 1.523 . S
H1869 C1844 0.950 . S
H1870 C1846 0.950 . S
H1871 C1847 0.949 . S
H1872 C1849 0.950 . S
H1873 C1851 0.950 . S
C1874 C1875 1.349 . S
C1874 C1876 1.327 . S
C1874 H1899 0.950 . S
C1875 C1874 1.349 . S
C1875 C1891 1.349 . S
C1876 C1874 1.327 . S
C1876 C1895 1.429 . S
C1876 H1900 0.950 . S
C1877 C1894 1.574 . S
C1877 C1896 1.368 1_455 S
C1877 H1901 0.949 . S
H1878 C1882 0.949 . S
C1879 C1880 1.349 . S
C1879 C1881 1.327 . S
C1879 H1902 0.950 . S
C1880 C1879 1.349 . S
C1880 C1892 1.349 . S
C1881 C1879 1.327 . S
C1881 C1897 1.429 . S
C1881 H1903 0.950 . S
C1882 H1878 0.949 . S
C1882 C1890 1.574 . S
C1882 C1898 1.368 1_655 S
H1883 C1891 0.950 . S
H1884 C1889 0.950 . S
H1885 C1890 0.949 . S
H1886 C1892 0.950 . S
H1887 C1893 0.950 . S
H1888 C1894 0.949 . S
C1889 H1884 0.950 . S
C1889 C1891 1.327 . S
C1889 C1895 1.429 . S
C1890 C1882 1.574 . S
C1890 H1885 0.949 . S
C1890 C1896 1.368 . S
C1891 C1875 1.349 . S
C1891 H1883 0.950 . S
C1891 C1889 1.327 . S
C1892 C1880 1.349 . S
C1892 H1886 0.950 . S
C1892 C1893 1.327 . S
C1893 H1887 0.950 . S
C1893 C1892 1.327 . S
C1893 C1897 1.429 . S
C1894 C1877 1.574 . S
C1894 H1888 0.949 . S
C1894 C1898 1.368 . S
C1895 C1876 1.429 . S
C1895 C1889 1.429 . S
C1895 C1896 1.523 . S
C1896 C1877 1.368 1_655 S
C1896 C1890 1.368 . S
C1896 C1895 1.523 . S
C1897 C1881 1.429 . S
C1897 C1893 1.429 . S
C1897 C1898 1.523 . S
C1898 C1882 1.368 1_455 S
C1898 C1894 1.368 . S
C1898 C1897 1.523 . S
H1899 C1874 0.950 . S
H1900 C1876 0.950 . S
H1901 C1877 0.949 . S
H1902 C1879 0.950 . S
H1903 C1881 0.950 . S
C945 C239 1.561 . S
C950 C3 1.561 . S
C975 C62 1.561 . S
C980 C298 1.561 . S
C1005 C357 1.561 . S
C1010 C121 1.561 . S
C1035 C416 1.561 . S
C1040 C180 1.561 . S
C1065 C711 1.561 . S
C1070 C475 1.561 . S
C1095 C534 1.561 . S
C1100 C770 1.561 . S
C1125 C829 1.561 . S
C1130 C593 1.561 . S
C1155 C652 1.561 . S
C1160 C888 1.561 . S
C1185 C33 1.582 . S
C1190 C918 1.582 . S
C1215 C92 1.582 . S
C1220 C741 1.582 . S
C1245 C151 1.582 . S
C1250 C800 1.582 . S
C1275 C859 1.582 . S
C1280 C210 1.582 . S
C1305 C269 1.582 . S
C1310 C564 1.582 . S
C1335 C328 1.582 . S
C1340 C623 1.582 . S
C1365 C682 1.582 . S
C1370 C387 1.582 . S
C1395 C505 1.582 . S
C1400 C446 1.582 . S
C1425 C5 1.676 . S
C1430 C595 1.676 . S
C1455 C654 1.676 . S
C1460 C64 1.676 . S
C1485 C123 1.677 . S
C1490 C477 1.677 . S
C1515 C536 1.676 . S
C1520 C182 1.676 . S
C1545 C241 1.676 . S
C1550 C831 1.676 . S
C1575 C300 1.677 . S
C1580 C890 1.677 . S
C1605 C713 1.676 . S
C1610 C359 1.676 . S
C1635 C772 1.676 . S
C1640 C418 1.676 . S
C1665 C642 1.436 . S
C1670 C52 1.436 . S
C1695 C111 1.437 . S
C1700 C701 1.437 . S
C1725 C170 1.436 . S
C1730 C524 1.436 . S
C1755 C583 1.436 . S
C1760 C229 1.436 . S
C1785 C878 1.436 . S
C1790 C288 1.436 . S
C1815 C937 1.436 . S
C1820 C347 1.436 . S
C1845 C760 1.437 . S
C1850 C406 1.437 . S
C1875 C465 1.436 . S
C1880 C819 1.436 . S
