# Generated by pormake.
# Topology smc, (6)-cn, num edge types: 1
# Building blocks:
#     Node 0, Type 0, BuildingBlock: PAMTOO_clean_sbu_0, # of connection points: 6
#     Node 1, Type 0, BuildingBlock: PAMTOO_clean_sbu_0, # of connection points: 6
#     Node 2, Type 0, BuildingBlock: PAMTOO_clean_sbu_0, # of connection points: 6
#     Node 3, Type 0, BuildingBlock: PAMTOO_clean_sbu_0, # of connection points: 6
#     Node 4, Type 0, BuildingBlock: PAMTOO_clean_sbu_0, # of connection points: 6
#     Node 5, Type 0, BuildingBlock: PAMTOO_clean_sbu_0, # of connection points: 6
#     Node 6, Type 0, BuildingBlock: PAMTOO_clean_sbu_0, # of connection points: 6
#     Node 7, Type 0, BuildingBlock: PAMTOO_clean_sbu_0, # of connection points: 6
#     Node 8, Type 0, BuildingBlock: PAMTOO_clean_sbu_0, # of connection points: 6
#     Edge 9, Type (0, 0), BuildingBlock: ZUJKAS_clean_linker_0, # of connection points: 2
#     Edge 10, Type (0, 0), BuildingBlock: ZUJKAS_clean_linker_0, # of connection points: 2
#     Edge 11, Type (0, 0), BuildingBlock: ZUJKAS_clean_linker_0, # of connection points: 2
#     Edge 12, Type (0, 0), BuildingBlock: ZUJKAS_clean_linker_0, # of connection points: 2
#     Edge 13, Type (0, 0), BuildingBlock: ZUJKAS_clean_linker_0, # of connection points: 2
#     Edge 14, Type (0, 0), BuildingBlock: ZUJKAS_clean_linker_0, # of connection points: 2
#     Edge 15, Type (0, 0), BuildingBlock: ZUJKAS_clean_linker_0, # of connection points: 2
#     Edge 16, Type (0, 0), BuildingBlock: ZUJKAS_clean_linker_0, # of connection points: 2
#     Edge 17, Type (0, 0), BuildingBlock: ZUJKAS_clean_linker_0, # of connection points: 2
#     Edge 18, Type (0, 0), BuildingBlock: ZUJKAS_clean_linker_0, # of connection points: 2
#     Edge 19, Type (0, 0), BuildingBlock: ZUJKAS_clean_linker_0, # of connection points: 2
#     Edge 20, Type (0, 0), BuildingBlock: ZUJKAS_clean_linker_0, # of connection points: 2
#     Edge 21, Type (0, 0), BuildingBlock: ZUJKAS_clean_linker_0, # of connection points: 2
#     Edge 22, Type (0, 0), BuildingBlock: ZUJKAS_clean_linker_0, # of connection points: 2
#     Edge 23, Type (0, 0), BuildingBlock: ZUJKAS_clean_linker_0, # of connection points: 2
#     Edge 24, Type (0, 0), BuildingBlock: ZUJKAS_clean_linker_0, # of connection points: 2
#     Edge 25, Type (0, 0), BuildingBlock: ZUJKAS_clean_linker_0, # of connection points: 2
#     Edge 26, Type (0, 0), BuildingBlock: ZUJKAS_clean_linker_0, # of connection points: 2
#     Edge 27, Type (0, 0), BuildingBlock: ZUJKAS_clean_linker_0, # of connection points: 2
#     Edge 28, Type (0, 0), BuildingBlock: ZUJKAS_clean_linker_0, # of connection points: 2
#     Edge 29, Type (0, 0), BuildingBlock: ZUJKAS_clean_linker_0, # of connection points: 2
#     Edge 30, Type (0, 0), BuildingBlock: ZUJKAS_clean_linker_0, # of connection points: 2
#     Edge 31, Type (0, 0), BuildingBlock: ZUJKAS_clean_linker_0, # of connection points: 2
#     Edge 32, Type (0, 0), BuildingBlock: ZUJKAS_clean_linker_0, # of connection points: 2
#     Edge 33, Type (0, 0), BuildingBlock: ZUJKAS_clean_linker_0, # of connection points: 2
#     Edge 34, Type (0, 0), BuildingBlock: ZUJKAS_clean_linker_0, # of connection points: 2
#     Edge 35, Type (0, 0), BuildingBlock: ZUJKAS_clean_linker_0, # of connection points: 2
# Relax obj value: 0.234
# Max RMSD: 0.319
# Mean RMSD: 0.291
data_MOF--net-smc--node1-PAMTOO_clean_sbu_0--edge1-ZUJKAS_clean_linker_0
_symmetry_space_group_name_H-M    P1
_symmetry_Int_Tables_number       1
_symmetry_cell_setting            triclinic
loop_
_symmetry_equiv_pos_as_xyz
'x, y, z'
_cell_length_a     51.836262
_cell_length_b     41.079018
_cell_length_c     52.339129
_cell_angle_alpha  90.778365
_cell_angle_beta   90.202696
_cell_angle_gamma 119.39612
loop_
_atom_site_label
_atom_site_type_symbol
_atom_site_fract_x
_atom_site_fract_y
_atom_site_fract_z
_atom_type_partial_charge
Dy0 Dy 0.06534 0.41429 0.99627 0.0
Dy1 Dy 0.04423 0.47443 1.01135 0.0
C2 C 0.08019 0.4528 0.0518 0.0
O3 O 1.01585 0.38215 1.0004 0.0
O4 O 1.01213 0.42146 0.0294 0.0
O5 O 0.05926 0.35884 1.00075 0.0
O6 O 0.09375 0.39803 0.97615 0.0
O7 O 1.01752 0.44294 0.97601 0.0
O8 O 0.04988 0.42576 0.9592 0.0
O9 O 0.08479 0.50574 0.98836 0.0
O10 O 0.10669 0.47114 0.99852 0.0
O11 O 1.02797 0.51164 1.00017 0.0
O12 O 1.03698 0.50725 0.03996 0.0
C13 C 1.00084 0.38883 0.01788 0.0
O14 O 0.07198 0.42196 0.03851 0.0
O15 O 0.07625 0.47992 0.0429 0.0
C16 C 0.10631 0.36386 1.00413 0.0
C17 C 0.15851 0.38196 0.03151 0.0
C18 C 0.13368 0.37886 0.04431 0.0
C19 C 0.10781 0.3699 0.03074 0.0
C20 C 0.12965 0.36233 0.99188 0.0
C21 C 0.15549 0.37092 1.00554 0.0
C22 C 0.08379 0.36713 0.98893 0.0
C23 C 1.02665 0.43041 0.95661 0.0
C24 C 0.10862 0.50268 0.99089 0.0
C25 C 0.99798 0.51879 0.03097 0.0
C26 C 0.945 0.5154 0.04706 0.0
C27 C 0.94489 0.48314 0.03751 0.0
C28 C 0.97127 0.4848 0.02961 0.0
C29 C 0.99815 0.55094 0.04033 0.0
C30 C 0.9719 0.5493 0.0483 0.0
C31 C 1.02604 0.52101 0.02367 0.0
H32 H 0.13501 0.38688 0.06427 0.0
H33 H 0.09 0.37091 0.0408 0.0
H34 H 0.12885 0.35744 0.97142 0.0
H35 H 0.17394 0.37182 0.9953 0.0
H36 H 0.92452 0.45662 0.03646 0.0
H37 H 0.97089 0.45962 0.02261 0.0
H38 H 1.01863 0.57733 0.04154 0.0
H39 H 0.97263 0.57475 0.05514 0.0
Dy40 Dy 0.61298 0.62386 0.01487 0.0
Dy41 Dy 0.54976 0.58802 0.99047 0.0
C42 C 0.60746 0.62189 0.95501 0.0
O43 O 0.59961 0.6708 0.01918 0.0
O44 O 0.56254 0.64871 0.98924 0.0
O45 O 0.6593 0.64163 1.0112 0.0
O46 O 0.64256 0.64986 0.04724 0.0
O47 O 0.54952 0.60575 0.03223 0.0
O48 O 0.58203 0.58841 0.04429 0.0
O49 O 0.55169 0.53545 0.99887 0.0
O50 O 0.60131 0.56176 1.00709 0.0
O51 O 0.50399 0.54544 0.99228 0.0
O52 O 0.51817 0.58774 0.96322 0.0
C53 C 0.57992 0.67545 1.00532 0.0
O54 O 0.62031 0.64363 0.97483 0.0
O55 O 0.58057 0.59303 0.95754 0.0
C56 C 0.68048 0.63389 0.04835 0.0
C57 C 0.71338 0.60063 0.06569 0.0
C58 C 0.68343 0.57836 0.05864 0.0
C59 C 0.66708 0.5949 0.05011 0.0
C60 C 0.70986 0.65628 0.05655 0.0
C61 C 0.72619 0.63978 0.06528 0.0
C62 C 0.66503 0.65085 0.03534 0.0
C63 C 0.5624 0.59763 0.05087 0.0
C64 C 0.57489 0.53128 1.00333 0.0
C65 C 0.47411 0.57178 0.98502 0.0
C66 C 0.43141 0.58121 1.01188 0.0
C67 C 0.46158 0.60419 0.01759 0.0
C68 C 0.48278 0.59957 1.00418 0.0
C69 C 0.44421 0.55038 0.97816 0.0
C70 C 0.42295 0.55522 0.99142 0.0
C71 C 0.49577 0.5617 0.97541 0.0
H72 H 0.67294 0.54816 0.05897 0.0
H73 H 0.64435 0.57721 0.04387 0.0
H74 H 0.72054 0.68641 0.05516 0.0
H75 H 0.7493 0.65763 0.07034 0.0
H76 H 0.46863 0.62445 0.03319 0.0
H77 H 0.50583 0.61618 1.00983 0.0
H78 H 0.43718 0.52859 0.9636 0.0
H79 H 0.39978 0.53681 0.98685 0.0
Dy80 Dy 0.47293 0.03618 1.01261 0.0
Dy81 Dy 0.53952 0.07971 0.03148 0.0
C82 C 0.4855 0.04997 0.07009 0.0
O83 O 0.48565 0.09945 1.00817 0.0
O84 O 0.53011 0.12775 0.03012 0.0
O85 O 0.42829 1.00002 0.02484 0.0
O86 O 0.43655 1.0146 0.98499 0.0
O87 O 0.53813 0.09728 0.9904 0.0
O88 O 0.49888 0.04217 0.97784 0.0
O89 O 0.53568 1.02547 0.01759 0.0
O90 O 0.48577 0.99001 0.0209 0.0
O91 O 0.58338 0.08723 0.02944 0.0
O92 O 0.57338 0.11764 0.05845 0.0
C93 C 0.50885 0.13049 0.01809 0.0
O94 O 0.47369 0.05886 0.05142 0.0
O95 O 0.50975 0.04833 0.06518 0.0
C96 C 0.39641 0.95434 0.99524 0.0
C97 C 0.35513 0.87694 0.98934 0.0
C98 C 0.34559 0.90369 0.99042 0.0
C99 C 0.36598 0.94185 0.99335 0.0
C100 C 0.40625 0.92803 0.99361 0.0
C101 C 0.38584 0.88976 0.99064 0.0
C102 C 0.41698 0.99402 1.00186 0.0
C103 C 0.52081 0.07478 0.97197 0.0
C104 C 0.51224 0.99225 0.01879 0.0
C105 C 0.62356 0.14427 0.04453 0.0
C106 C 0.6847 0.19469 0.04013 0.0
C107 C 0.66707 0.17802 0.01819 0.0
C108 C 0.63676 0.15309 0.02036 0.0
C109 C 0.64066 0.16275 0.06625 0.0
C110 C 0.67091 0.18786 0.06408 0.0
C111 C 0.59373 0.11208 0.04794 0.0
H112 H 0.32223 0.89511 0.98994 0.0
H113 H 0.35786 0.96158 0.99496 0.0
H114 H 0.42964 0.937 0.99527 0.0
H115 H 0.39416 0.87022 0.98955 0.0
H116 H 0.67692 0.18245 0.99945 0.0
H117 H 0.62406 0.13923 1.00325 0.0
H118 H 0.63094 0.15636 0.08507 0.0
H119 H 0.68371 0.20087 0.08131 0.0
Dy120 Dy 0.72859 0.77636 0.34028 0.0
Dy121 Dy 0.67449 0.80268 0.35483 0.0
C122 C 0.71442 0.79154 0.39913 0.0
O123 O 0.68376 0.7213 0.34422 0.0
O124 O 0.65247 0.74219 0.36144 0.0
O125 O 0.77541 0.80445 0.34915 0.0
O126 O 0.75713 0.75289 0.32645 0.0
O127 O 0.669 0.78063 0.31361 0.0
O128 O 0.70615 0.76674 0.30247 0.0
O129 O 0.71864 0.85315 0.35732 0.0
O130 O 0.73962 0.83348 0.32715 0.0
O131 O 0.65576 0.83594 0.34035 0.0
O132 O 0.63615 0.8016 0.3739 0.0
C133 C 0.65764 0.71549 0.3535 0.0
O134 O 0.72223 0.77381 0.38243 0.0
O135 O 0.69768 0.80664 0.39296 0.0
C136 C 0.81297 0.78709 0.33655 0.0
C137 C 0.87525 0.80512 0.33453 0.0
C138 C 0.86506 0.82225 0.35248 0.0
C139 C 0.83495 0.81369 0.35333 0.0
C140 C 0.82285 0.76939 0.3188 0.0
C141 C 0.8532 0.77832 0.31772 0.0
C142 C 0.78113 0.78104 0.33667 0.0
C143 C 0.68201 0.76858 0.29702 0.0
C144 C 0.74027 0.86004 0.34176 0.0
C145 C 0.61177 0.83705 0.35724 0.0
C146 C 0.56538 0.85698 0.35473 0.0
C147 C 0.58653 0.86647 0.33517 0.0
C148 C 0.60918 0.85678 0.33642 0.0
C149 C 0.59095 0.82777 0.37694 0.0
C150 C 0.56832 0.83762 0.37577 0.0
C151 C 0.63456 0.82399 0.35714 0.0
H152 H 0.88058 0.84333 0.36569 0.0
H153 H 0.82896 0.82853 0.36723 0.0
H154 H 0.80718 0.74906 0.30527 0.0
H155 H 0.8593 0.76385 0.30364 0.0
H156 H 0.58527 0.88064 0.31834 0.0
H157 H 0.62436 0.86412 0.32062 0.0
H158 H 0.59192 0.81247 0.39326 0.0
H159 H 0.55316 0.83005 0.39158 0.0
Dy160 Dy 0.26932 0.96318 0.32477 0.0
Dy161 Dy 0.2439 0.87687 0.33284 0.0
C162 C 0.25467 0.93007 0.38223 0.0
O163 O 0.31028 0.95437 0.32552 0.0
O164 O 0.28986 0.90046 0.34802 0.0
O165 O 0.30217 1.02004 0.3342 0.0
O166 O 0.26812 1.00889 0.30597 0.0
O167 O 0.27245 0.8934 0.29691 0.0
O168 O 0.26719 0.94238 0.28499 0.0
O169 O 0.2013 0.87854 0.32702 0.0
O170 O 0.21909 0.94155 0.32943 0.0
O171 O 0.21852 0.82338 0.31385 0.0
O172 O 0.23941 0.82723 0.35067 0.0
C173 C 0.31331 0.92871 0.33841 0.0
O174 O 0.26809 0.9584 0.36693 0.0
O175 O 0.24074 0.89527 0.3733 0.0
C176 C 0.27978 0.05747 0.33525 0.0
C177 C 0.25627 0.09786 0.36025 0.0
C178 C 0.25191 0.06397 0.37017 0.0
C179 C 0.2634 0.04385 0.35766 0.0
C180 C 0.28511 0.09182 0.32571 0.0
C181 C 0.27343 0.11195 0.33814 0.0
C182 C 0.2887 0.03391 0.32087 0.0
C183 C 0.27605 0.91836 0.27972 0.0
C184 C 0.1963 0.90698 0.32829 0.0
C185 C 0.24611 0.79264 0.31728 0.0
C186 C 0.28194 0.77162 0.28902 0.0
C187 C 0.25278 0.76037 0.28099 0.0
C188 C 0.23502 0.77055 0.29506 0.0
C189 C 0.27555 0.80476 0.32504 0.0
C190 C 0.29322 0.79405 0.31114 0.0
C191 C 0.22856 0.80769 0.32958 0.0
H192 H 0.2391 0.0526 0.38729 0.0
H193 H 0.25872 1.01707 0.36509 0.0
H194 H 0.29741 0.10244 0.30825 0.0
H195 H 0.27679 0.13773 0.32982 0.0
H196 H 0.24318 0.7423 0.26437 0.0
H197 H 0.21265 0.76151 0.28839 0.0
H198 H 0.28505 0.82267 0.34174 0.0
H199 H 0.31546 0.80263 0.31793 0.0
Dy200 Dy 0.11681 0.38108 0.34665 0.0
Dy201 Dy 0.18845 0.4353 0.36617 0.0
C202 C 0.13133 0.40718 0.40556 0.0
O203 O 0.13326 0.43851 0.3322 0.0
O204 O 0.16402 0.46715 0.36592 0.0
O205 O 0.07086 0.36754 0.34422 0.0
O206 O 0.0863 0.33494 0.3229 0.0
O207 O 0.18706 0.43897 0.32264 0.0
O208 O 0.14676 0.38162 0.31608 0.0
O209 O 0.17856 0.37696 0.35853 0.0
O210 O 0.12978 0.3463 0.36999 0.0
O211 O 0.22964 0.48864 0.36631 0.0
O212 O 0.22775 0.44167 0.38595 0.0
C213 C 0.15193 0.46939 0.34442 0.0
O214 O 0.11338 0.39935 0.38584 0.0
O215 O 0.15996 0.41739 0.4028 0.0
C216 C 1.03699 0.30361 0.33613 0.0
C217 C 0.98751 0.23285 0.34409 0.0
C218 C 1.01333 0.24534 0.35913 0.0
C219 C 0.03792 0.2805 0.35517 0.0
C220 C 1.01106 0.29184 0.32169 0.0
C221 C 0.9865 0.25678 0.32562 0.0
C222 C 0.06354 0.33841 0.32944 0.0
C223 C 0.16838 0.41232 0.30683 0.0
C224 C 0.15558 0.34773 0.36804 0.0
C225 C 0.27652 0.48955 0.37225 0.0
C226 C 0.33925 0.51818 0.36531 0.0
C227 C 0.31937 0.47945 0.36771 0.0
C228 C 0.28866 0.46543 0.37122 0.0
C229 C 0.29616 0.52803 0.3694 0.0
C230 C 0.32681 0.54206 0.36602 0.0
C231 C 0.2446 0.47625 0.37913 0.0
H232 H 1.01467 0.22774 0.37371 0.0
H233 H 0.0579 0.28924 0.36645 0.0
H234 H 1.01012 0.30928 0.30677 0.0
H235 H 0.96716 0.24786 0.31347 0.0
H236 H 0.32746 0.45968 0.36691 0.0
H237 H 0.2745 0.43566 0.37352 0.0
H238 H 0.2879 0.54764 0.37052 0.0
H239 H 0.34083 0.572 0.36477 0.0
Dy240 Dy 0.39245 0.06917 0.68151 0.0
Dy241 Dy 0.37088 0.12965 0.68839 0.0
C242 C 0.40144 0.11028 0.73412 0.0
O243 O 0.34251 0.03608 0.67974 0.0
O244 O 0.33526 0.07692 0.70454 0.0
O245 O 0.38925 1.01703 0.69312 0.0
O246 O 0.42221 0.05158 0.6657 0.0
O247 O 0.34814 0.09677 0.652 0.0
O248 O 0.3813 0.07708 0.64171 0.0
O249 O 0.4126 0.15857 0.66668 0.0
O250 O 0.43368 0.12674 0.68405 0.0
O251 O 0.35917 0.16954 0.67351 0.0
O252 O 0.35922 0.16149 0.71435 0.0
C253 C 0.3251 0.04385 0.69375 0.0
O254 O 0.38907 0.07725 0.7232 0.0
O255 O 0.40249 0.13839 0.72147 0.0
C256 C 0.43797 1.02836 0.69911 0.0
C257 C 0.49256 0.06067 0.72537 0.0
C258 C 0.46792 0.06038 0.73665 0.0
C259 C 0.44085 0.04424 0.72364 0.0
C260 C 0.46143 1.02459 0.6892 0.0
C261 C 0.48848 0.04027 0.7024 0.0
C262 C 0.41406 1.02465 0.68205 0.0
C263 C 0.3591 0.08235 0.63536 0.0
C264 C 0.43632 0.15693 0.67303 0.0
C265 C 0.32451 0.17755 0.69859 0.0
C266 C 0.2711 0.17886 0.70507 0.0
C267 C 0.27366 0.15685 0.6855 0.0
C268 C 0.30013 0.15599 0.68237 0.0
C269 C 0.32195 0.19948 0.71807 0.0
C270 C 0.29549 0.20007 0.72135 0.0
C271 C 0.35269 0.17741 0.696 0.0
H272 H 0.47014 0.07576 0.75425 0.0
H273 H 0.42304 0.04733 0.73181 0.0
H274 H 0.45966 1.01241 0.67034 0.0
H275 H 0.50689 0.03914 0.69357 0.0
H276 H 0.25512 0.14005 0.6728 0.0
H277 H 0.30152 0.13854 0.66735 0.0
H278 H 0.3405 0.21624 0.73078 0.0
H279 H 0.2943 0.21768 0.73636 0.0
Dy280 Dy 0.93292 0.29054 0.6855 0.0
Dy281 Dy 0.87166 0.25911 0.65706 0.0
C282 C 0.93194 0.28549 0.62358 0.0
O283 O 0.92062 0.33896 0.6875 0.0
O284 O 0.88672 0.32012 0.65504 0.0
O285 O 0.98062 0.32131 0.68635 0.0
O286 O 0.95668 0.30258 0.72161 0.0
O287 O 0.87066 0.27661 0.69884 0.0
O288 O 0.89807 0.25234 0.71123 0.0
O289 O 0.87393 0.20556 0.66163 0.0
O290 O 0.92038 0.22813 0.67907 0.0
O291 O 0.82533 0.21859 0.65981 0.0
O292 O 0.84042 0.2592 0.62961 0.0
C293 C 0.90296 0.3456 0.6722 0.0
O294 O 0.94704 0.29612 0.64506 0.0
O295 O 0.90262 0.26934 0.62327 0.0
C296 C 1.00185 0.30219 0.71794 0.0
C297 C 0.0422 0.2758 0.72519 0.0
C298 C 1.01318 0.25146 0.71643 0.0
C299 C 0.99319 0.26458 0.7128 0.0
C300 C 1.03032 0.32622 0.72759 0.0
C301 C 0.05035 0.31314 0.73125 0.0
C302 C 0.98247 0.31726 0.71078 0.0
C303 C 0.8805 0.26481 0.71775 0.0
C304 C 0.89499 0.19931 0.67047 0.0
C305 C 0.79727 0.24732 0.6515 0.0
C306 C 0.75755 0.26344 0.67773 0.0
C307 C 0.78819 0.28683 0.68085 0.0
C308 C 0.80789 0.2788 0.66784 0.0
C309 C 0.76682 0.22521 0.64713 0.0
C310 C 0.74705 0.23329 0.66008 0.0
C311 C 0.81774 0.23484 0.64242 0.0
H312 H 1.0063 0.22268 0.71131 0.0
H313 H 0.97133 0.24571 0.70513 0.0
H314 H 0.03735 0.35537 0.73156 0.0
H315 H 0.0724 0.33243 0.73838 0.0
H316 H 0.79687 0.3103 0.6942 0.0
H317 H 0.83137 0.29599 0.67165 0.0
H318 H 0.75828 0.20059 0.63483 0.0
H319 H 0.72353 0.21442 0.65756 0.0
Dy320 Dy 0.78999 0.70022 0.67713 0.0
Dy321 Dy 0.85752 0.74948 0.69529 0.0
C322 C 0.80462 0.70747 0.73598 0.0
O323 O 0.80089 0.76423 0.67818 0.0
O324 O 0.84882 0.79708 0.69376 0.0
O325 O 0.74387 0.67709 0.68767 0.0
O326 O 0.75503 0.66816 0.64955 0.0
O327 O 0.8522 0.76565 0.65429 0.0
O328 O 0.81456 0.70971 0.64138 0.0
O329 O 0.85024 0.69016 0.69546 0.0
O330 O 0.8054 0.65599 0.6755 0.0
O331 O 0.90077 0.75824 0.6863 0.0
O332 O 0.89522 0.78638 0.71969 0.0
C333 C 0.82483 0.79696 0.68551 0.0
O334 O 0.79134 0.68391 0.71713 0.0
O335 O 0.82997 0.73818 0.73174 0.0
C336 C 0.71266 0.61798 0.66789 0.0
C337 C 0.67164 0.54 0.67016 0.0
C338 C 0.66202 0.56603 0.66513 0.0
C339 C 0.68227 0.60447 0.66399 0.0
C340 C 0.72243 0.59231 0.67317 0.0
C341 C 0.70222 0.55385 0.67427 0.0
C342 C 0.73395 0.65861 0.66613 0.0
C343 C 0.8346 0.74344 0.63583 0.0
C344 C 0.83001 0.65829 0.68513 0.0
C345 C 0.9445 0.81127 0.70247 0.0
C346 C 1.00658 0.85647 0.69713 0.0
C347 C 0.98772 0.84431 0.6755 0.0
C348 C 0.95702 0.82192 0.67812 0.0
C349 C 0.96309 0.82505 0.72408 0.0
C350 C 0.99374 0.84743 0.72148 0.0
C351 C 0.91365 0.78091 0.70571 0.0
H352 H 0.63872 0.55679 0.66228 0.0
H353 H 0.67415 0.62369 0.66001 0.0
H354 H 0.74577 0.60198 0.67625 0.0
H355 H 0.7107 0.53492 0.67787 0.0
H356 H 0.99676 0.85128 0.65647 0.0
H357 H 0.94327 0.81162 0.66107 0.0
H358 H 0.95406 0.8168 0.74304 0.0
H359 H 1.00748 0.8559 0.73858 0.0
H360 H 0.38042 0.58119 0.99907 0.0
H361 H 0.33751 0.56225 0.02624 0.0
H362 H 0.38759 0.55846 0.09107 0.0
H363 H 0.43065 0.57712 0.06375 0.0
H364 H 0.34075 0.49152 0.07964 0.0
H365 H 0.30134 0.59337 0.08312 0.0
H366 H 0.31299 0.59144 0.05124 0.0
H367 H 0.33968 0.60705 0.07717 0.0
C368 C 0.38258 0.57766 0.0193 0.0
C369 C 0.40864 0.58019 0.02926 0.0
C370 C 0.35817 0.56731 0.03495 0.0
C371 C 0.35942 0.55927 0.06081 0.0
C372 C 0.38628 0.56498 0.07128 0.0
H373 H 0.17511 0.38225 0.08194 0.0
H374 H 0.22288 0.42638 0.10209 0.0
C375 C 0.41083 0.57563 0.05563 0.0
C376 C 0.33125 0.53657 0.07425 0.0
H377 H 0.2622 0.52675 0.07425 0.0
C378 C 0.32372 0.49959 0.0798 0.0
C379 C 0.30916 0.54718 0.07505 0.0
C380 C 0.31639 0.58712 0.07159 0.0
C381 C 0.294 0.47173 0.08153 0.0
C382 C 0.27173 0.48149 0.07777 0.0
C383 C 0.27945 0.51932 0.07667 0.0
C384 C 0.24282 0.45389 0.06683 0.0
C385 C 0.28652 0.43149 0.08371 0.0
C386 C 0.23872 0.4545 0.04043 0.0
C387 C 0.21182 0.42975 0.02896 0.0
C388 C 0.18829 0.40351 0.04361 0.0
C389 C 0.19275 0.40216 0.0701 0.0
C390 C 0.21991 0.42729 0.08167 0.0
H391 H 0.30612 0.42887 0.08927 0.0
H392 H 0.26894 0.41724 0.09808 0.0
H393 H 0.27789 0.41684 0.06504 0.0
H394 H 0.25633 0.47476 0.02869 0.0
H395 H 0.20915 0.43253 1.00872 0.0
H396 H 0.47262 0.91489 1.00923 0.0
H397 H 0.48358 0.86261 1.00776 0.0
H398 H 0.57481 0.93906 0.02645 0.0
H399 H 0.56426 0.99083 0.02752 0.0
H400 H 0.52557 0.85038 0.9767 0.0
H401 H 0.55566 0.85626 0.07883 0.0
H402 H 0.53518 0.87817 0.06708 0.0
H403 H 0.57454 0.90014 0.06277 0.0
C404 C 0.49503 0.92073 0.01318 0.0
C405 C 0.51733 0.95804 0.01857 0.0
C406 C 0.50142 0.89047 1.01226 0.0
C407 C 0.53023 0.89579 0.01731 0.0
C408 C 0.55229 0.93297 0.02284 0.0
H409 H 0.61363 0.74706 0.02984 0.0
H410 H 0.60254 0.79915 0.03223 0.0
C411 C 0.54609 0.96309 0.0233 0.0
C412 C 0.53765 0.86343 0.01629 0.0
H413 H 0.56567 0.81711 0.05191 0.0
C414 C 0.53408 0.84308 0.99333 0.0
C415 C 0.54954 0.85336 0.03749 0.0
C416 C 0.55381 0.87281 0.06304 0.0
C417 C 0.54228 0.81454 0.99085 0.0
C418 C 0.5535 0.80366 1.01225 0.0
C419 C 0.55715 0.82423 0.03523 0.0
C420 C 0.56089 0.77108 1.01121 0.0
C421 C 0.54001 0.79773 0.96458 0.0
C422 C 0.54151 0.73632 0.9993 0.0
C423 C 0.54818 0.70671 0.99752 0.0
C424 C 0.57434 0.70917 1.00815 0.0
C425 C 0.59341 0.74335 0.02105 0.0
C426 C 0.58688 0.77352 0.02248 0.0
H427 H 0.54231 0.81765 0.94943 0.0
H428 H 0.55726 0.78954 0.96165 0.0
H429 H 0.51785 0.77267 0.96207 0.0
H430 H 0.52061 0.73155 0.9914 0.0
H431 H 0.53217 0.68124 0.98781 0.0
H432 H 0.30242 0.84184 0.96237 0.0
H433 H 0.26491 0.77576 0.96217 0.0
H434 H 0.32031 0.75227 1.0115 0.0
H435 H 0.35742 0.81862 1.01276 0.0
H436 H 0.2663 0.71319 0.9464 0.0
H437 H 0.24355 0.70496 0.0504 0.0
H438 H 0.26504 0.74888 0.0346 0.0
H439 H 0.28154 0.72071 0.04273 0.0
C440 C 0.3066 0.8228 0.97344 0.0
C441 C 0.33301 0.83597 0.9878 0.0
C442 C 0.28514 0.78483 0.97314 0.0
C443 C 0.2894 0.75892 0.9872 0.0
C444 C 0.31608 0.77169 1.00094 0.0
H445 H 0.16362 0.51856 1.00942 0.0
H446 H 0.21001 0.57865 1.00752 0.0
C447 C 0.33755 0.80972 1.00133 0.0
C448 C 0.26583 0.71871 0.98734 0.0
H449 H 0.21822 0.64882 0.02631 0.0
C450 C 0.25591 0.69914 0.96391 0.0
C451 C 0.25222 0.70007 1.01017 0.0
C452 C 0.26089 0.71974 0.0359 0.0
C453 C 0.23269 0.66189 0.96265 0.0
C454 C 0.21862 0.64361 0.98539 0.0
C455 C 0.22907 0.66271 1.00889 0.0
C456 C 0.19139 0.60607 0.985 0.0
C457 C 0.22334 0.64242 0.93691 0.0
C458 C 0.16554 0.60135 0.97294 0.0
C459 C 0.13915 0.56729 0.97406 0.0
C460 C 0.13782 0.53689 0.98728 0.0
C461 C 0.16392 0.54122 0.99884 0.0
C462 C 0.1904 0.57563 0.99789 0.0
H463 H 0.24144 0.65541 0.9228 0.0
H464 H 0.21653 0.61231 0.93832 0.0
H465 H 0.20419 0.64468 0.92957 0.0
H466 H 0.16549 0.62447 0.96327 0.0
H467 H 0.11953 0.56511 0.96498 0.0
H468 H 0.55739 0.19767 0.03279 0.0
H469 H 0.56734 0.2617 0.0292 0.0
H470 H 0.48139 0.22223 0.99465 0.0
H471 H 0.47167 0.15728 0.99742 0.0
H472 H 0.5509 0.30458 0.04783 0.0
H473 H 0.5217 0.30248 0.94614 0.0
H474 H 0.49105 0.26875 0.96407 0.0
H475 H 0.52359 0.26393 0.96023 0.0
C476 C 0.54031 0.20202 0.02422 0.0
C477 C 0.51348 0.17074 0.01539 0.0
C478 C 0.54618 0.23956 0.02221 0.0
C479 C 0.52572 0.24882 1.01118 0.0
C480 C 0.49857 0.21758 1.00256 0.0
H481 H 0.52417 0.46473 0.99079 0.0
H482 H 0.51373 0.40004 0.99285 0.0
C483 C 0.4927 0.17965 1.00443 0.0
C484 C 0.53303 0.29056 1.00955 0.0
H485 H 0.53123 0.35665 0.97016 0.0
C486 C 0.54663 0.31557 0.0306 0.0
C487 C 0.52798 0.30686 0.98742 0.0
C488 C 0.51557 0.28428 0.9631 0.0
C489 C 0.55444 0.35431 0.0304 0.0
C490 C 0.54929 0.37051 1.00833 0.0
C491 C 0.53558 0.34556 0.98731 0.0
C492 C 0.55689 0.41229 1.00687 0.0
C493 C 0.56741 0.37726 0.0545 0.0
C494 C 0.58511 0.4431 0.01356 0.0
C495 C 0.59138 0.4812 1.01226 0.0
C496 C 0.56977 0.49066 1.00418 0.0
C497 C 0.54181 0.45979 0.99722 0.0
C498 C 0.53566 0.42199 0.99835 0.0
H499 H 0.56207 0.35937 0.07156 0.0
H500 H 0.59187 0.39329 0.0529 0.0
H501 H 0.55916 0.39734 0.05759 0.0
H502 H 0.6027 0.43788 0.01963 0.0
H503 H 0.61324 0.50327 0.0178 0.0
H504 H 0.72535 0.1924 0.07232 0.0
H505 H 0.77906 0.22451 0.06827 0.0
H506 H 0.77231 0.27538 0.99887 0.0
H507 H 0.71845 0.24454 1.00334 0.0
H508 H 0.81136 0.2176 0.02917 0.0
H509 H 0.83499 0.36446 0.03978 0.0
H510 H 0.79971 0.32515 0.04788 0.0
H511 H 0.80851 0.33798 0.01506 0.0
C512 C 0.73525 0.21112 0.05651 0.0
C513 C 0.71753 0.21617 0.03829 0.0
C514 C 0.76597 0.22912 0.05407 0.0
C515 C 0.7797 0.25257 0.03341 0.0
C516 C 0.7622 0.25785 0.0152 0.0
H517 H 0.96244 0.33183 0.98608 0.0
H518 H 0.90842 0.29603 0.98957 0.0
C519 C 0.7314 0.23994 0.01766 0.0
C520 C 0.81227 0.27058 0.03071 0.0
H521 H 0.87518 0.35533 0.02854 0.0
C522 C 0.82537 0.24772 0.02903 0.0
C523 C 0.83045 0.30986 0.03077 0.0
C524 C 0.8178 0.33587 0.0337 0.0
C525 C 0.8562 0.2631 0.02746 0.0
C526 C 0.87433 0.30237 0.02713 0.0
C527 C 0.8612 0.3252 0.0287 0.0
C528 C 0.90706 0.32069 0.02602 0.0
C529 C 0.86912 0.23723 0.02686 0.0
C530 C 0.9242 0.34617 0.0454 0.0
C531 C 0.95491 0.36676 0.04337 0.0
C532 C 0.96916 0.36226 0.0219 0.0
C533 C 0.95213 0.33551 1.00301 0.0
C534 C 0.92125 0.31506 1.00498 0.0
H535 H 0.85314 0.20895 0.03375 0.0
H536 H 0.87493 0.23423 1.00691 0.0
H537 H 0.8896 0.24865 0.03877 0.0
H538 H 0.9137 0.3509 0.06182 0.0
H539 H 0.96742 0.38713 0.05826 0.0
H540 H 0.93637 0.54803 0.08953 0.0
H541 H 0.89276 0.55373 0.09977 0.0
H542 H 0.84744 0.48667 0.03313 0.0
H543 H 0.89104 0.48094 0.0227 0.0
H544 H 0.87221 0.58784 0.06615 0.0
H545 H 0.78313 0.44468 0.08807 0.0
H546 H 0.82192 0.45792 0.08894 0.0
H547 H 0.80237 0.44799 0.0589 0.0
C548 C 0.91697 0.53412 0.07723 0.0
C549 C 0.91722 0.51437 0.05515 0.0
C550 C 0.89204 0.53719 0.0832 0.0
C551 C 0.86682 0.52039 0.06734 0.0
C552 C 0.86645 0.4992 0.04593 0.0
H553 H 0.71505 0.54483 0.03837 0.0
H554 H 0.75098 0.52296 0.04248 0.0
C555 C 0.89142 0.49605 0.03994 0.0
C556 C 0.84261 0.52912 0.0713 0.0
H557 H 0.76812 0.49019 0.0802 0.0
C558 C 0.84951 0.56658 0.0696 0.0
C559 C 0.81303 0.50123 0.07552 0.0
C560 C 0.80461 0.46071 0.0782 0.0
C561 C 0.82749 0.57686 0.07113 0.0
C562 C 0.7978 0.54898 0.07518 0.0
C563 C 0.79092 0.51152 0.0773 0.0
C564 C 0.7735 0.55812 0.07541 0.0
C565 C 0.83608 0.61729 0.06723 0.0
C566 C 0.77355 0.58406 0.09318 0.0
C567 C 0.75317 0.59684 0.09077 0.0
C568 C 0.73211 0.58337 0.07079 0.0
C569 C 0.73087 0.55552 0.05408 0.0
C570 C 0.75142 0.54304 0.05637 0.0
H571 H 0.85821 0.63321 0.05834 0.0
H572 H 0.81958 0.61962 0.05493 0.0
H573 H 0.83699 0.63069 0.08601 0.0
H574 H 0.79003 0.5954 0.10837 0.0
H575 H 0.75434 0.61792 0.10411 0.0
H576 H 0.90978 0.80771 0.29248 0.0
H577 H 0.9623 0.82592 0.29069 0.0
H578 H 0.97014 0.84464 0.37214 0.0
H579 H 0.91782 0.82739 0.37392 0.0
H580 H 1.01859 0.89562 0.35505 0.0
H581 H 1.00513 0.77153 0.30182 0.0
H582 H 0.99075 0.79595 0.28381 0.0
H583 H 0.97378 0.77459 0.31356 0.0
C584 C 0.92235 0.8152 0.3102 0.0
C585 C 0.90838 0.81551 0.33339 0.0
C586 C 0.95295 0.82561 0.30918 0.0
C587 C 0.97134 0.83621 0.33134 0.0
C588 C 0.95743 0.83678 0.35447 0.0
H589 H 0.14492 0.83904 0.33379 0.0
H590 H 0.09323 0.82431 0.33493 0.0
C591 C 0.92693 0.82677 0.35547 0.0
C592 C 1.00467 0.84726 0.33055 0.0
H593 H 0.05429 0.82196 0.30598 0.0
C594 C 1.0261 0.87918 0.34428 0.0
C595 C 1.01578 0.8263 0.31707 0.0
C596 C 0.99515 0.79 0.30348 0.0
C597 C 0.05704 0.89055 0.34473 0.0
C598 C 0.06829 0.87045 0.33038 0.0
C599 C 0.0468 0.83833 0.31687 0.0
C600 C 0.10151 0.88085 0.32991 0.0
C601 C 0.0771 0.92348 0.36162 0.0
C602 C 0.12514 0.91785 0.32651 0.0
C603 C 0.15547 0.92661 0.32624 0.0
C604 C 0.16381 0.89873 0.3288 0.0
C605 C 0.14018 0.86177 0.33173 0.0
C606 C 0.11004 0.85313 0.33231 0.0
H607 H 0.06462 0.92789 0.37724 0.0
H608 H 0.095 0.91974 0.37033 0.0
H609 H 0.08727 0.94914 0.35003 0.0
H610 H 0.12028 0.9403 0.32363 0.0
H611 H 0.17242 0.95537 0.32367 0.0
H612 H 0.11224 0.27725 0.38056 0.0
H613 H 0.11921 0.22458 0.39289 0.0
H614 H 0.21384 0.29483 0.38723 0.0
H615 H 0.20722 0.34716 0.37514 0.0
H616 H 0.14643 0.19588 0.36145 0.0
H617 H 0.20613 0.24059 0.45383 0.0
H618 H 0.18464 0.26074 0.44131 0.0
H619 H 0.22216 0.27739 0.43109 0.0
C620 C 0.13452 0.2815 0.3823 0.0
C621 C 0.15918 0.3162 0.37667 0.0
C622 C 0.13844 0.25152 0.38947 0.0
C623 C 0.16705 0.25613 0.3915 0.0
C624 C 0.19162 0.29098 0.38647 0.0
H625 H 0.27853 0.17288 0.36819 0.0
H626 H 0.25133 0.20452 0.38188 0.0
C627 C 0.18775 0.32073 0.37917 0.0
C628 C 0.17173 0.2239 0.3953 0.0
H629 H 0.2178 0.20047 0.42677 0.0
C630 C 0.16121 0.19596 0.37621 0.0
C631 C 0.1909 0.22417 0.41466 0.0
C632 C 0.20134 0.25217 0.43652 0.0
C633 C 0.17191 0.17066 0.37436 0.0
C634 C 0.19322 0.17317 0.39242 0.0
C635 C 0.20164 0.1989 0.41286 0.0
C636 C 0.21016 0.15347 0.38805 0.0
C637 C 0.16233 0.1437 0.35186 0.0
C638 C 0.19615 0.11438 0.38772 0.0
C639 C 0.2115 0.09625 0.37954 0.0
C640 C 0.24117 0.11702 0.37178 0.0
C641 C 0.25557 0.15619 0.3736 0.0
C642 C 0.24017 0.17425 0.38167 0.0
H643 H 0.14864 0.14883 0.33783 0.0
H644 H 0.18195 0.14577 0.34189 0.0
H645 H 0.14903 0.1147 0.35873 0.0
H646 H 0.17306 0.09795 0.39282 0.0
H647 H 0.19971 0.06602 0.37819 0.0
H648 H 0.92824 0.2102 0.34277 0.0
H649 H 0.88688 0.14612 0.34277 0.0
H650 H 0.94817 0.10427 0.35062 0.0
H651 H 0.98972 0.1682 0.35025 0.0
H652 H 0.87871 0.08825 0.30677 0.0
H653 H 0.88608 0.05118 0.40734 0.0
H654 H 0.90338 0.09896 0.39684 0.0
H655 H 0.91994 0.07049 0.38963 0.0
C656 C 0.93294 0.18738 0.34455 0.0
C657 C 0.96229 0.19431 0.34649 0.0
C658 C 0.90929 0.15084 0.34462 0.0
C659 C 0.91452 0.12059 0.34685 0.0
C660 C 0.9437 0.12733 0.34928 0.0
H661 H 0.78961 0.88597 0.31182 0.0
H662 H 0.83244 0.94915 0.31202 0.0
C663 C 0.96739 0.16389 0.34916 0.0
C664 C 0.88946 0.08194 0.34551 0.0
H665 H 0.85141 1.00281 0.38018 0.0
C666 C 0.87271 0.0695 0.32279 0.0
C667 C 0.88173 0.05776 0.3665 0.0
C668 C 0.89852 0.07021 0.39157 0.0
C669 C 0.84834 1.03334 0.32048 0.0
C670 C 0.84076 1.00907 0.34141 0.0
C671 C 0.85749 1.02152 0.36414 0.0
C672 C 0.81469 0.97117 0.34053 0.0
C673 C 0.83048 1.0216 0.29594 0.0
C674 C 0.79072 0.96276 0.35657 0.0
C675 C 0.76628 0.92686 0.35648 0.0
C676 C 0.76543 0.89858 0.34044 0.0
C677 C 0.78946 0.90717 0.32425 0.0
C678 C 0.81392 0.94323 0.32431 0.0
H679 H 0.8359 0.04576 0.28348 0.0
H680 H 0.83525 1.00165 0.28527 0.0
H681 H 0.80641 1.00721 0.30001 0.0
H682 H 0.79098 0.984 0.36924 0.0
H683 H 0.74824 0.92123 0.36929 0.0
H684 H 0.29198 0.76457 0.23804 0.0
H685 H 0.29027 0.70787 0.22077 0.0
H686 H 0.30217 0.67849 0.29704 0.0
H687 H 0.30611 0.73559 0.31373 0.0
H688 H 0.30421 0.63029 0.26496 0.0
H689 H 0.20602 0.64087 0.23239 0.0
H690 H 0.24108 0.66639 0.21708 0.0
H691 H 0.23499 0.68168 0.24791 0.0
C692 C 0.29609 0.74701 0.25077 0.0
C693 C 0.29734 0.75304 0.27738 0.0
C694 C 0.29477 0.71436 0.24094 0.0
C695 C 0.29303 0.6872 0.25792 0.0
C696 C 0.30199 0.69809 0.28349 0.0
H697 H 0.20384 0.53299 0.35652 0.0
H698 H 0.23796 0.5779 0.32625 0.0
C699 C 0.3042 0.73105 0.2932 0.0
C700 C 0.27248 0.64673 0.25306 0.0
H701 H 0.19783 0.59349 0.26006 0.0
C702 C 0.28086 0.62153 0.26283 0.0
C703 C 0.24179 0.63402 0.249 0.0
C704 C 0.23033 0.65696 0.23586 0.0
C705 C 0.25988 0.58811 0.27397 0.0
C706 C 0.23003 0.5799 0.27496 0.0
C707 C 0.22101 0.6009 0.26041 0.0
C708 C 0.20879 0.55335 0.29339 0.0
C709 C 0.27031 0.56349 0.28616 0.0
C710 C 0.17999 0.52715 0.28557 0.0
C711 C 0.16014 0.50192 0.30291 0.0
C712 C 0.1688 0.50254 0.3285 0.0
C713 C 0.19666 0.5312 0.33684 0.0
C714 C 0.21647 0.55637 0.31942 0.0
H715 H 0.28862 0.56378 0.27503 0.0
H716 H 0.27909 0.57449 0.30563 0.0
H717 H 0.25212 0.5342 0.28762 0.0
H718 H 0.17322 0.52535 0.26585 0.0
H719 H 0.13872 0.4805 0.29585 0.0
H720 H 0.38052 0.58157 0.33991 0.0
H721 H 0.43409 0.60766 0.33711 0.0
H722 H 0.42854 0.51687 0.38128 0.0
H723 H 0.375 0.49093 0.3848 0.0
H724 H 0.47746 0.63325 0.37437 0.0
H725 H 0.47856 0.51613 0.32161 0.0
H726 H 0.44555 0.52019 0.32449 0.0
H727 H 0.45755 0.50256 0.35053 0.0
C728 C 0.39044 0.56701 0.34929 0.0
C729 C 0.37261 0.53372 0.36264 0.0
C730 C 0.4214 0.58205 0.34748 0.0
C731 C 0.43589 0.56426 0.35862 0.0
C732 C 0.41827 0.53101 0.3719 0.0
H733 H 0.62649 0.67631 0.39454 0.0
H734 H 0.5726 0.63664 0.39543 0.0
C735 C 0.38729 0.51604 0.37386 0.0
C736 C 0.46932 0.58123 0.35707 0.0
H737 H 0.52503 0.56421 0.33747 0.0
C738 C 0.4877 0.61799 0.36628 0.0
C739 C 0.48329 0.56193 0.34628 0.0
C740 C 0.4653 0.52315 0.33493 0.0
C741 C 0.51902 0.63543 0.36546 0.0
C742 C 0.53299 0.61584 0.35527 0.0
C743 C 0.51469 0.57935 0.34558 0.0
C744 C 0.56644 0.63335 0.35442 0.0
C745 C 0.53702 0.67517 0.37524 0.0
C746 C 0.58176 0.64289 0.33108 0.0
C747 C 0.61299 0.6652 0.33056 0.0
C748 C 0.62989 0.67829 0.35336 0.0
C749 C 0.6146 0.66584 0.37658 0.0
C750 C 0.5835 0.64373 0.37711 0.0
H751 H 0.52338 0.68911 0.37719 0.0
H752 H 0.54641 0.67521 0.39433 0.0
H753 H 0.55572 0.69182 0.36228 0.0
H754 H 0.56942 0.63544 0.31322 0.0
H755 H 0.62356 0.67537 0.31234 0.0
H756 H 0.32475 0.882 0.36719 0.0
H757 H 0.3681 0.87382 0.36808 0.0
H758 H 0.41155 0.96306 0.31468 0.0
H759 H 0.36748 0.97134 0.31349 0.0
H760 H 0.39322 0.85344 0.32953 0.0
H761 H 0.477 0.99194 0.36862 0.0
H762 H 0.43777 0.97588 0.36977 0.0
H763 H 0.45747 0.99295 0.34046 0.0
C764 C 0.34348 0.90037 0.35568 0.0
C765 C 0.34218 0.92765 0.34034 0.0
C766 C 0.36851 0.89547 0.35621 0.0
C767 C 0.39371 0.91784 0.34168 0.0
C768 C 0.39287 0.94563 0.32654 0.0
H769 H 0.56469 0.91698 0.33082 0.0
H770 H 0.52411 0.93081 0.32657 0.0
C771 C 0.36751 0.95045 0.32586 0.0
C772 C 0.4199 0.91063 0.34207 0.0
H773 H 0.49385 0.94968 0.35769 0.0
C774 C 0.41521 0.87464 0.33569 0.0
C775 C 0.44895 0.93793 0.34993 0.0
C776 C 0.45575 0.9768 0.35781 0.0
C777 C 0.43821 0.86537 0.33675 0.0
C778 C 0.46715 0.89235 0.3453 0.0
C779 C 0.47196 0.92858 0.35129 0.0
C780 C 0.49246 0.88358 0.34814 0.0
C781 C 0.43122 0.82675 0.32794 0.0
C782 C 0.4892 0.85262 0.36207 0.0
C783 C 0.5125 0.84417 0.36426 0.0
C784 C 0.54035 0.8666 0.35289 0.0
C785 C 0.54376 0.89817 0.33948 0.0
C786 C 0.52038 0.90648 0.33721 0.0
H787 H 0.41215 0.81437 0.31433 0.0
H788 H 0.45051 0.82711 0.31853 0.0
H789 H 0.4251 0.80823 0.34469 0.0
H790 H 0.46853 0.83478 0.37148 0.0
H791 H 0.50831 0.81948 0.37463 0.0
H792 H 0.70459 0.25876 0.66559 0.0
H793 H 0.66481 0.2466 0.69505 0.0
H794 H 0.72298 0.26307 0.75903 0.0
H795 H 0.76277 0.2743 0.72945 0.0
H796 H 0.6775 0.1952 0.75835 0.0
H797 H 0.63195 0.28933 0.74613 0.0
H798 H 0.63934 0.27774 0.71493 0.0
H799 H 0.66958 0.30279 0.73737 0.0
C800 C 0.70918 0.26102 0.68594 0.0
C801 C 0.73658 0.26687 0.6952 0.0
C802 C 0.68654 0.25465 0.70286 0.0
C803 C 0.69093 0.25422 0.72936 0.0
C804 C 0.71918 0.26362 0.73871 0.0
H805 H 0.51324 0.08071 0.77516 0.0
H806 H 0.56157 0.13299 0.78886 0.0
C807 C 0.7419 0.27006 0.72175 0.0
C808 C 0.66461 0.23505 0.74578 0.0
H809 H 0.59408 0.22037 0.74654 0.0
C810 C 0.65957 0.20157 0.75702 0.0
C811 C 0.64133 0.24356 0.74471 0.0
C812 C 0.64606 0.28061 0.73536 0.0
C813 C 0.6308 0.17371 0.76285 0.0
C814 C 0.60691 0.17983 0.7573 0.0
C815 C 0.61253 0.21556 0.7503 0.0
C816 C 0.57777 0.14798 0.75041 0.0
C817 C 0.62568 0.13612 0.7714 0.0
C818 C 0.57147 0.13892 0.72443 0.0
C819 C 0.54434 0.10939 0.71658 0.0
C820 C 0.52279 0.08802 0.73459 0.0
C821 C 0.5294 0.09661 0.76082 0.0
C822 C 0.55683 0.12646 0.76869 0.0
H823 H 0.6465 0.13726 0.77803 0.0
H824 H 0.60942 0.12577 0.78714 0.0
H825 H 0.61632 0.11571 0.75523 0.0
H826 H 0.58754 0.15519 0.71008 0.0
H827 H 0.53989 0.10447 0.69626 0.0
H828 H 0.9291 0.41004 0.70537 0.0
H829 H 0.91741 0.46166 0.70861 0.0
H830 H 0.85269 0.41053 0.64821 0.0
H831 H 0.86416 0.35996 0.64478 0.0
H832 H 0.91951 0.51646 0.67467 0.0
H833 H 0.80219 0.42676 0.69966 0.0
H834 H 0.82853 0.41006 0.70048 0.0
H835 H 0.81201 0.41199 0.67064 0.0
C836 C 0.91247 0.40972 0.69265 0.0
C837 C 0.89791 0.37981 0.67472 0.0
C838 C 0.90561 0.4396 0.69454 0.0
C839 C 0.88345 0.4407 0.67902 0.0
C840 C 0.8693 0.41103 0.66106 0.0
H841 H 0.79971 0.58726 0.6602 0.0
H842 H 0.81267 0.53692 0.65871 0.0
C843 C 0.87628 0.3817 0.65897 0.0
C844 C 0.87518 0.47234 0.68098 0.0
H845 H 0.8162 0.489 0.68806 0.0
C846 C 0.89689 0.51018 0.67786 0.0
C847 C 0.84563 0.4655 0.68476 0.0
C848 C 0.82076 0.42646 0.68932 0.0
C849 C 0.8901 0.54013 0.67771 0.0
C850 C 0.86055 0.5334 0.68174 0.0
C851 C 0.83887 0.49546 0.68493 0.0
C852 C 0.85188 0.56486 0.68287 0.0
C853 C 0.91495 0.57871 0.67195 0.0
C854 C 0.86845 0.59828 0.69736 0.0
C855 C 0.86111 0.62745 0.69802 0.0
C856 C 0.83631 0.625 0.68468 0.0
C857 C 0.81901 0.59112 0.67079 0.0
C858 C 0.82657 0.56187 0.66995 0.0
H859 H 0.93251 0.57745 0.66058 0.0
H860 H 0.90687 0.59513 0.66121 0.0
H861 H 0.92529 0.59367 0.69017 0.0
H862 H 0.88728 0.602 0.7086 0.0
H863 H 0.87518 0.6523 0.70931 0.0
H864 H 0.62194 0.49891 0.64005 0.0
H865 H 0.58639 0.43214 0.64157 0.0
H866 H 0.637 0.41974 0.70238 0.0
H867 H 0.67207 0.48682 0.70172 0.0
H868 H 0.59384 0.37134 0.63343 0.0
H869 H 0.55486 0.36862 0.73245 0.0
H870 H 0.57674 0.41165 0.71575 0.0
H871 H 0.59414 0.38748 0.72979 0.0
C872 C 0.62537 0.48224 0.65407 0.0
C873 C 0.64996 0.49875 0.6709 0.0
C874 C 0.60506 0.44382 0.65476 0.0
C875 C 0.60859 0.42069 0.67235 0.0
C876 C 0.6333 0.43689 0.68896 0.0
H877 H 0.48846 0.17954 0.70028 0.0
H878 H 0.5332 0.24164 0.6999 0.0
C879 C 0.65363 0.47537 0.68831 0.0
C880 C 0.58661 0.37969 0.67288 0.0
H881 H 0.53583 0.31055 0.71064 0.0
C882 C 0.58126 0.35812 0.65038 0.0
C883 C 0.57021 0.36201 0.695 0.0
C884 C 0.574 0.38361 0.71958 0.0
C885 C 0.55992 0.31985 0.64927 0.0
C886 C 0.54292 0.30245 0.67114 0.0
C887 C 0.54885 0.32368 0.69388 0.0
C888 C 0.51714 0.26348 0.67013 0.0
C889 C 0.55582 0.29837 0.62459 0.0
C890 C 0.49325 0.25478 0.65348 0.0
C891 C 0.46786 0.21954 0.65366 0.0
C892 C 0.46545 0.1918 0.67056 0.0
C893 C 0.4897 0.2 0.68678 0.0
C894 C 0.51519 0.23562 0.68671 0.0
H895 H 0.5762 0.31143 0.61291 0.0
H896 H 0.54982 0.26891 0.62819 0.0
H897 H 0.53772 0.29839 0.61322 0.0
H898 H 0.49377 0.27576 0.64085 0.0
H899 H 0.44964 0.21441 0.64098 0.0
H900 H 0.79035 0.82419 0.65923 0.0
H901 H 0.80071 0.88973 0.65578 0.0
H902 H 0.87701 0.92639 0.70483 0.0
H903 H 0.86707 0.8625 0.70831 0.0
H904 H 0.80585 0.9474 0.68878 0.0
H905 H 0.91693 0.99811 0.64851 0.0
H906 H 0.89097 0.94895 0.65129 0.0
H907 H 0.91304 0.9756 0.67847 0.0
C908 C 0.80921 0.84602 0.66949 0.0
C909 C 0.82768 0.83652 0.68403 0.0
C910 C 0.81536 0.88414 0.66741 0.0
C911 C 0.84045 0.91475 0.67943 0.0
C912 C 0.85812 0.90482 0.69444 0.0
H913 H 0.92779 0.16717 0.69173 0.0
H914 H 0.9145 0.10072 0.69385 0.0
C915 C 0.85203 0.86726 0.69659 0.0
C916 C 0.84846 0.95656 0.67687 0.0
H917 H 0.90608 0.045 0.66354 0.0
C918 C 0.82775 0.96843 0.68297 0.0
C919 C 0.87711 0.9856 0.66961 0.0
C920 C 0.90072 0.97648 0.66135 0.0
C921 C 0.83479 1.00695 0.68276 0.0
C922 C 0.86348 0.03605 0.67547 0.0
C923 C 0.88411 1.02405 0.66926 0.0
C924 C 0.87231 0.07834 0.67393 0.0
C925 C 0.81132 1.01596 0.6916 0.0
C926 C 0.85412 0.09028 0.66154 0.0
C927 C 0.86177 0.12865 0.66038 0.0
C928 C 0.88838 0.158 0.67119 0.0
C929 C 0.90711 0.14636 0.68305 0.0
C930 C 0.89934 0.10769 0.68429 0.0
H931 H 0.79545 0.9943 0.70461 0.0
H932 H 0.82119 0.04344 0.70173 0.0
H933 H 0.79854 1.01669 0.67477 0.0
H934 H 0.83374 0.06981 0.65232 0.0
H935 H 0.84643 0.13527 0.65078 0.0
H936 H 0.04856 0.91465 0.7264 0.0
H937 H 0.10241 0.94352 0.72383 0.0
H938 H 0.09332 0.87249 0.6591 0.0
H939 H 0.03938 0.84251 0.66207 0.0
H940 H 0.13337 0.87491 0.69501 0.0
H941 H 0.15752 1.01848 0.67255 0.0
H942 H 0.13567 1.00069 0.70072 0.0
H943 H 0.12068 0.97875 0.67016 0.0
C944 C 0.05795 0.90514 0.71158 0.0
C945 C 0.03949 0.87629 0.69438 0.0
C946 C 0.08882 0.92197 0.70997 0.0
C947 C 0.102 0.91059 0.69103 0.0
C948 C 0.08369 0.88195 0.67377 0.0
H949 H 0.29027 0.98474 0.66138 0.0
H950 H 0.23589 0.94939 0.65974 0.0
C951 C 0.05281 0.86508 0.67535 0.0
C952 C 0.13482 0.92771 0.68985 0.0
H953 H 0.19862 1.01138 0.68546 0.0
C954 C 0.14766 0.9047 0.69267 0.0
C955 C 0.15348 0.96655 0.68666 0.0
C956 C 0.14117 0.99252 0.68209 0.0
C957 C 0.17861 0.9197 0.69342 0.0
C958 C 0.19722 0.95868 0.69096 0.0
C959 C 0.18436 0.98151 0.68751 0.0
C960 C 0.23007 0.97688 0.69305 0.0
C961 C 0.19116 0.89394 0.69773 0.0
C962 C 0.24491 1.0038 0.71237 0.0
C963 C 0.2758 1.02395 0.71331 0.0
C964 C 0.29272 1.01778 0.6949 0.0
C965 C 0.27792 0.98978 0.67607 0.0
C966 C 0.24682 0.9696 0.67509 0.0
H967 H 0.1741 0.86615 0.70454 0.0
H968 H 0.20002 0.8897 0.67948 0.0
H969 H 0.20965 0.90636 0.7119 0.0
H970 H 0.23251 1.00988 0.72645 0.0
H971 H 0.28643 0.04526 0.7281 0.0
H972 H 0.24213 0.17451 0.74941 0.0
H973 H 0.19928 0.18364 0.75526 0.0
H974 H 0.19552 0.19778 0.67405 0.0
H975 H 0.23813 0.18818 0.66807 0.0
H976 H 0.19751 0.24631 0.7446 0.0
H977 H 0.10933 0.1276 0.6894 0.0
H978 H 0.14369 0.1294 0.69836 0.0
H979 H 0.142 0.15435 0.67098 0.0
C980 C 0.23193 0.17916 0.73278 0.0
C981 C 0.24346 0.18071 0.70828 0.0
C982 C 0.20743 0.18425 0.73614 0.0
C983 C 0.19399 0.19097 0.71507 0.0
C984 C 0.20506 0.19171 0.69051 0.0
H985 H 0.09973 0.31326 0.70992 0.0
H986 H 0.13571 0.29125 0.70972 0.0
C987 C 0.22946 0.18634 0.68711 0.0
C988 C 0.17013 0.20043 0.71906 0.0
H989 H 0.10023 0.17808 0.69997 0.0
C990 C 0.17611 0.23111 0.73506 0.0
C991 C 0.14211 0.18033 0.70686 0.0
C992 C 0.13375 0.14585 0.69065 0.0
C993 C 0.15522 0.24302 0.73852 0.0
C994 C 0.12784 0.22419 0.72521 0.0
C995 C 0.12139 0.19269 0.70994 0.0
C996 C 0.1061 0.23767 0.72614 0.0
C997 C 0.16267 0.27568 0.75638 0.0
C998 C 0.07735 0.21458 0.73505 0.0
C999 C 0.05667 0.22713 0.73523 0.0
C1000 C 0.0644 0.26293 0.72636 0.0
C1001 C 0.09326 0.28591 0.71744 0.0
C1002 C 0.11385 0.27334 0.71725 0.0
H1003 H 0.18008 0.27969 0.77051 0.0
H1004 H 0.1712 0.30157 0.74511 0.0
H1005 H 0.1428 0.27185 0.76684 0.0
H1006 H 0.07093 0.18689 0.7419 0.0
H1007 H 1.03467 0.20884 0.74233 0.0
H1008 H 0.20493 0.47453 0.27803 0.0
H1009 H 0.19671 0.48689 0.23371 0.0
H1010 H 0.11914 0.37783 0.22833 0.0
H1011 H 0.12771 0.36505 0.27167 0.0
H1012 H 0.14644 0.3905 0.18558 0.0
H1013 H 0.13824 0.51699 0.2097 0.0
H1014 H 0.17274 0.51999 0.21884 0.0
H1015 H 0.13884 0.48634 0.23369 0.0
C1016 C 0.18641 0.45302 0.26724 0.0
C1017 C 0.16699 0.41888 0.27877 0.0
C1018 C 0.18142 0.4603 0.2419 0.0
C1019 C 0.15672 0.43372 0.22753 0.0
C1020 C 0.13823 0.3991 0.23874 0.0
H1021 H 0.06477 0.46741 0.09903 0.0
H1022 H 0.08521 0.46414 0.14078 0.0
C1023 C 0.14329 0.39178 0.26378 0.0
C1024 C 0.14948 0.44112 0.20098 0.0
H1025 H 0.13356 0.49947 0.1663 0.0
C1026 C 0.14376 0.41447 0.18142 0.0
C1027 C 0.14534 0.47196 0.19528 0.0
C1028 C 0.14883 0.50034 0.2155 0.0
C1029 C 0.13365 0.41728 0.15689 0.0
C1030 C 0.13017 0.4486 0.15101 0.0
C1031 C 0.13633 0.47556 0.17044 0.0
C1032 C 0.11897 0.45308 0.12534 0.0
C1033 C 0.12548 0.38545 0.13803 0.0
C1034 C 0.13149 0.44934 0.1024 0.0
C1035 C 0.11932 0.45036 0.07861 0.0
C1036 C 0.09502 0.4566 0.07697 0.0
C1037 C 0.08359 0.46276 0.09969 0.0
C1038 C 0.0953 0.46078 0.1236 0.0
H1039 H 0.12031 0.35915 0.14784 0.0
H1040 H 0.10599 0.38018 0.12613 0.0
H1041 H 0.14449 0.39241 0.12528 0.0
H1042 H 0.15049 0.44505 0.1028 0.0
H1043 H 0.12885 0.44609 0.06137 0.0
H1044 H 0.7041 0.74936 0.25513 0.0
H1045 H 0.67942 0.72226 0.2142 0.0
H1046 H 0.60221 0.72695 0.23924 0.0
H1047 H 0.6267 0.754 0.28036 0.0
H1048 H 0.58827 0.65773 0.21682 0.0
H1049 H 0.66316 0.77277 0.15407 0.0
H1050 H 0.68207 0.75643 0.17461 0.0
H1051 H 0.66272 0.77861 0.1883 0.0
C1052 C 0.68198 0.74506 0.25195 0.0
C1053 C 0.66763 0.75433 0.27124 0.0
C1054 C 0.66788 0.72963 0.22836 0.0
C1055 C 0.63897 0.72287 0.22328 0.0
C1056 C 0.62455 0.73201 0.24247 0.0
H1057 H 0.55766 0.65816 0.0685 0.0
H1058 H 0.57283 0.68857 0.11095 0.0
C1059 C 0.63872 0.74773 0.26603 0.0
C1060 C 0.62355 0.70511 0.19838 0.0
H1061 H 0.62964 0.71501 0.13338 0.0
C1062 C 0.59724 0.67047 0.19861 0.0
C1063 C 0.63482 0.72169 0.17444 0.0
C1064 C 0.66209 0.75959 0.17273 0.0
C1065 C 0.58267 0.65152 0.17576 0.0
C1066 C 0.59466 0.66734 0.15181 0.0
C1067 C 0.62037 0.70261 0.1516 0.0
C1068 C 0.582 0.64689 0.12688 0.0
C1069 C 0.55447 0.61459 0.17748 0.0
C1070 C 0.58147 0.61293 0.1216 0.0
C1071 C 0.57282 0.59559 0.09741 0.0
C1072 C 0.56423 0.61147 0.07774 0.0
C1073 C 0.56345 0.64463 0.08331 0.0
C1074 C 0.57249 0.6623 0.10753 0.0
H1075 H 0.54366 0.61156 0.19626 0.0
H1076 H 0.53855 0.61141 0.16209 0.0
H1077 H 0.55972 0.59157 0.1753 0.0
H1078 H 0.58913 0.60064 0.13584 0.0
H1079 H 0.57418 0.57045 0.09371 0.0
H1080 H 0.44276 0.065 0.08687 0.0
H1081 H 0.40962 0.03906 0.12289 0.0
H1082 H 0.45415 0.97833 0.14473 0.0
H1083 H 0.48808 1.00502 0.10848 0.0
H1084 H 0.36989 0.96795 0.13114 0.0
H1085 H 0.44809 1.01924 0.2137 0.0
H1086 H 0.45906 0.03748 0.18201 0.0
H1087 H 0.45577 0.99319 0.19002 0.0
C1088 C 0.44598 0.04658 0.09949 0.0
C1089 C 0.46841 0.03738 0.0946 0.0
C1090 C 0.42676 1.03154 0.12019 0.0
C1091 C 0.42908 1.00663 0.13695 0.0
C1092 C 0.45195 0.99795 0.13258 0.0
H1093 H 0.31408 0.89058 0.26933 0.0
H1094 H 0.35043 0.90857 0.2348 0.0
C1095 C 0.47146 1.01327 0.11174 0.0
C1096 C 0.40645 0.98882 0.15785 0.0
H1097 H 0.39764 0.97888 0.22284 0.0
C1098 C 0.37613 0.97041 0.15116 0.0
C1099 C 0.41411 0.9914 0.18418 0.0
C1100 C 0.44599 1.01164 0.19305 0.0
C1101 C 0.35364 0.95515 0.16969 0.0
C1102 C 0.36124 0.95867 0.19604 0.0
C1103 C 0.39153 0.97608 0.20277 0.0
C1104 C 0.33817 0.94617 0.21674 0.0
C1105 C 0.32177 0.93503 0.16071 0.0
C1106 C 0.31881 0.96098 0.21842 0.0
C1107 C 0.29795 0.95065 0.2381 0.0
C1108 C 0.29561 0.92508 0.2569 0.0
C1109 C 0.31472 0.90981 0.25506 0.0
C1110 C 0.3358 0.9204 0.23538 0.0
H1111 H 0.31965 0.92446 0.14073 0.0
H1112 H 0.30791 0.91112 0.17316 0.0
H1113 H 0.31293 0.95475 0.16127 0.0
H1114 H 0.32032 0.98143 0.2048 0.0
H1115 H 0.28404 0.96348 0.23889 0.0
H1116 H 0.50197 1.03297 0.92812 0.0
H1117 H 0.48862 0.05005 0.88756 0.0
H1118 H 0.52208 0.16278 0.91577 0.0
H1119 H 0.5358 0.14588 0.95662 0.0
H1120 H 0.45005 0.09948 0.89411 0.0
H1121 H 0.54856 0.14853 0.83189 0.0
H1122 H 0.53909 0.10891 0.85198 0.0
H1123 H 0.55181 0.15422 0.86626 0.0
C1124 C 0.50742 0.06175 0.92547 0.0
C1125 C 0.52026 0.08811 0.94564 0.0
C1126 C 0.49962 0.07143 0.90224 0.0
C1127 C 0.50429 0.10768 0.89853 0.0
C1128 C 0.51845 0.13469 0.91809 0.0
H1129 H 0.44638 0.17432 0.75741 0.0
H1130 H 0.47265 0.17851 0.79783 0.0
C1131 C 0.52656 0.12507 0.94138 0.0
C1132 C 0.49134 0.11557 0.87539 0.0
H1133 H 0.50366 0.13749 0.81204 0.0
C1134 C 0.46193 0.10835 0.87628 0.0
C1135 C 0.50677 0.12718 0.8521 0.0
C1136 C 0.53839 0.13538 0.85027 0.0
C1137 C 0.44731 0.11133 0.85441 0.0
C1138 C 0.46225 0.12131 0.83075 0.0
C1139 C 0.4921 0.12992 0.83007 0.0
C1140 C 0.44638 0.11976 0.80633 0.0
C1141 C 0.41571 0.1032 0.85677 0.0
C1142 C 0.42293 0.08551 0.79752 0.0
C1143 C 0.40797 0.08311 0.77464 0.0
C1144 C 0.41596 0.11489 0.75971 0.0
C1145 C 0.43932 0.14941 0.76857 0.0
C1146 C 0.45453 0.15175 0.79157 0.0
H1147 H 0.41036 0.10667 0.87682 0.0
H1148 H 0.41135 0.12178 0.8444 0.0
H1149 H 0.40057 0.07384 0.85066 0.0
H1150 H 0.41641 0.06029 0.80821 0.0
H1151 H 0.39027 0.05598 0.76846 0.0
H1152 H 0.04129 0.40822 0.91182 0.0
H1153 H 1.0117 0.38359 0.87275 0.0
H1154 H 0.94215 0.39828 0.90612 0.0
H1155 H 0.97167 0.42277 0.94563 0.0
H1156 H 0.92026 0.32914 0.88236 0.0
H1157 H 0.9955 0.43818 0.81635 0.0
H1158 H 1.01375 0.4179 0.83388 0.0
H1159 H 0.99947 0.44412 0.85064 0.0
C1160 C 1.01984 0.40667 0.91089 0.0
C1161 C 1.00912 0.41789 0.93204 0.0
C1162 C 1.00292 0.39267 0.88833 0.0
C1163 C 0.97472 0.38948 0.88607 0.0
C1164 C 0.96387 0.40062 0.90715 0.0
H1165 H 0.88422 0.33116 0.73462 0.0
H1166 H 0.90336 0.36222 0.7764 0.0
C1167 C 0.98089 0.41484 0.92976 0.0
C1168 C 0.95633 0.37317 0.86214 0.0
H1169 H 0.95798 0.38125 0.79696 0.0
C1170 C 0.92843 0.34084 0.86374 0.0
C1171 C 0.96649 0.38847 0.83767 0.0
C1172 C 0.9953 0.42429 0.83448 0.0
C1173 C 0.91123 0.32267 0.8417 0.0
C1174 C 0.92218 0.33679 0.81713 0.0
C1175 C 0.94948 0.37003 0.81562 0.0
C1176 C 0.90676 0.31635 0.79281 0.0
C1177 C 0.8814 0.2884 0.845 0.0
C1178 C 0.90158 0.27987 0.78802 0.0
C1179 C 0.89055 0.26209 0.76424 0.0
C1180 C 0.88429 0.28014 0.74443 0.0
C1181 C 0.88812 0.31602 0.74954 0.0
C1182 C 0.89945 0.33401 0.77339 0.0
H1183 H 0.8721 0.28839 0.8641 0.0
H1184 H 0.86538 0.28642 0.83009 0.0
H1185 H 0.88391 0.26313 0.84345 0.0
H1186 H 0.90752 0.26571 0.80223 0.0
H1187 H 0.88841 0.23478 0.76087 0.0
H1188 H 0.75794 0.6413 0.75079 0.0
H1189 H 0.72585 0.62845 0.78741 0.0
H1190 H 0.78085 0.74126 0.8154 0.0
H1191 H 0.81301 0.75477 0.77793 0.0
H1192 H 0.73113 0.6268 0.83722 0.0
H1193 H 0.70195 0.73692 0.81717 0.0
H1194 H 0.72231 0.72457 0.79486 0.0
H1195 H 0.7409 0.75463 0.82196 0.0
C1196 C 0.76357 0.66358 0.76473 0.0
C1197 C 0.78832 0.6993 0.76103 0.0
C1198 C 0.74496 0.65605 0.78587 0.0
C1199 C 0.7501 0.6839 0.80426 0.0
C1200 C 0.77557 0.71929 0.80132 0.0
H1201 H 0.65708 0.68679 0.94281 0.0
H1202 H 0.68982 0.70008 0.90652 0.0
C1203 C 0.79436 0.72693 0.77998 0.0
C1204 C 0.72853 0.67536 0.82605 0.0
H1205 H 0.68321 0.70333 0.8553 0.0
C1206 C 0.72066 0.6436 0.84104 0.0
C1207 C 0.71436 0.69679 0.83132 0.0
C1208 C 0.72002 0.72991 0.81536 0.0
C1209 C 0.69987 0.63326 0.86105 0.0
C1210 C 0.68578 0.65475 0.86634 0.0
C1211 C 0.69367 0.68654 0.85142 0.0
C1212 C 0.66414 0.64603 0.88804 0.0
C1213 C 0.69381 0.59987 0.87686 0.0
C1214 C 0.63782 0.61128 0.88996 0.0
C1215 C 0.61859 0.60348 0.91098 0.0
C1216 C 0.62518 0.6302 0.93073 0.0
C1217 C 0.65105 0.66522 0.92823 0.0
C1218 C 0.67001 0.67301 0.9073 0.0
H1219 H 0.71137 0.59202 0.87466 0.0
H1220 H 0.69208 0.60543 0.89743 0.0
H1221 H 0.67248 0.57563 0.87055 0.0
H1222 H 0.63215 0.59002 0.87523 0.0
H1223 H 0.59905 0.57622 0.9121 0.0
H1224 H 0.69285 0.79841 0.44699 0.0
H1225 H 0.71424 0.79889 0.48948 0.0
H1226 H 0.78587 0.7919 0.45317 0.0
H1227 H 0.76524 0.79172 0.41155 0.0
H1228 H 0.72561 0.74476 0.5114 0.0
H1229 H 0.83108 0.87687 0.50396 0.0
H1230 H 0.80001 0.86494 0.48278 0.0
H1231 H 0.82481 0.8468 0.47674 0.0
C1232 C 0.71334 0.79749 0.44814 0.0
C1233 C 0.72707 0.79485 0.42562 0.0
C1234 C 0.72556 0.79762 0.47247 0.0
C1235 C 0.7521 0.79598 0.47477 0.0
C1236 C 0.76584 0.79397 0.45225 0.0
H1237 H 0.81599 0.70479 0.59075 0.0
H1238 H 0.79664 0.72056 0.55312 0.0
C1239 C 0.75366 0.79348 0.42825 0.0
C1240 C 0.7651 0.79432 0.50026 0.0
H1241 H 0.83049 0.83288 0.5344 0.0
C1242 C 0.74841 0.7644 0.51656 0.0
C1243 C 0.79482 0.82003 0.5075 0.0
C1244 C 0.81362 0.85418 0.49195 0.0
C1245 C 0.7609 0.75848 0.53889 0.0
C1246 C 0.79125 0.78268 0.54514 0.0
C1247 C 0.80748 0.81377 0.52961 0.0
C1248 C 0.80652 0.77529 0.56713 0.0
C1249 C 0.74131 0.72611 0.55559 0.0
C1250 C 0.82069 0.8017 0.58713 0.0
C1251 C 0.8325 0.79294 0.6087 0.0
C1252 C 0.83053 0.7576 0.61071 0.0
C1253 C 0.81806 0.73231 0.58991 0.0
C1254 C 0.80649 0.7411 0.56845 0.0
H1255 H 0.71761 0.71803 0.55308 0.0
H1256 H 0.74374 0.70155 0.55017 0.0
H1257 H 0.74746 0.7329 0.57609 0.0
H1258 H 0.8214 0.82847 0.58664 0.0
H1259 H 0.84137 0.81288 0.62447 0.0
H1260 H 0.23944 0.88342 0.42451 0.0
H1261 H 0.2491 0.90285 0.46998 0.0
H1262 H 0.28786 1.01817 0.44835 0.0
H1263 H 0.27761 0.99944 0.40398 0.0
H1264 H 0.29941 0.94373 0.49582 0.0
H1265 H 0.23665 1.01913 0.50387 0.0
H1266 H 0.23229 0.98923 0.47674 0.0
H1267 H 0.26163 0.03724 0.47768 0.0
C1268 C 0.24943 0.91282 0.42954 0.0
C1269 C 0.25746 0.93962 0.41029 0.0
C1270 C 0.25511 0.92398 0.45558 0.0
C1271 C 0.2687 0.96213 0.46292 0.0
C1272 C 0.27649 0.98859 0.44363 0.0
H1273 H 0.38447 0.07484 0.59175 0.0
H1274 H 0.36034 0.04394 0.55154 0.0
C1275 C 0.27077 0.9776 0.41794 0.0
C1276 C 0.27679 0.97523 0.49025 0.0
H1277 H 0.27774 0.03884 0.53387 0.0
C1278 C 0.29422 0.96407 0.50425 0.0
C1279 C 0.26966 1.00124 0.50186 0.0
C1280 C 0.24874 1.01202 0.48932 0.0
C1281 C 0.30598 0.97957 0.52862 0.0
C1282 C 0.30114 1.0082 0.53915 0.0
C1283 C 0.28226 1.01772 0.5258 0.0
C1284 C 0.31602 1.02914 0.5635 0.0
C1285 C 0.3233 0.96472 0.54282 0.0
C1286 C 0.29973 0.03374 0.5834 0.0
C1287 C 0.31378 0.05263 0.60634 0.0
C1288 C 0.34445 0.0672 0.60998 0.0
C1289 C 0.36079 0.06371 0.58974 0.0
C1290 C 0.34688 0.04548 0.56676 0.0
H1291 H 0.31589 0.93524 0.53717 0.0
H1292 H 0.34707 0.98147 0.53796 0.0
H1293 H 0.32099 0.96617 0.56382 0.0
H1294 H 0.27598 1.0219 0.58146 0.0
H1295 H 0.30045 0.05447 0.62158 0.0
H1296 H 0.98525 0.2883 0.61853 0.0
H1297 H 1.01897 0.309 0.58246 0.0
H1298 H 0.95504 0.32274 0.53795 0.0
H1299 H 0.92073 0.30166 0.57438 0.0
H1300 H 1.01413 0.28245 0.53143 0.0
H1301 H 1.03071 0.42661 0.53428 0.0
H1302 H 1.01396 0.39459 0.5602 0.0
H1303 H 0.99289 0.38971 0.5317 0.0
C1304 C 0.97803 0.29531 0.60102 0.0
C1305 C 0.95002 0.29323 0.5996 0.0
C1306 C 0.99753 0.30724 0.58027 0.0
C1307 C 0.9901 0.3182 0.55735 0.0
C1308 C 0.96174 0.31508 0.55545 0.0
H1309 H 0.08432 0.41657 0.41697 0.0
H1310 H 0.05241 0.39555 0.45397 0.0
C1311 C 0.94189 0.30257 0.57625 0.0
C1312 C 1.01243 0.33345 0.53601 0.0
H1313 H 0.05511 0.41244 0.50174 0.0
C1314 C 1.02305 0.3109 0.52494 0.0
C1315 C 1.02453 0.37068 0.52746 0.0
C1316 C 1.01523 0.39706 0.53909 0.0
C1317 C 0.04445 0.32396 0.5053 0.0
C1318 C 0.0567 0.36133 0.49675 0.0
C1319 C 0.04619 0.38393 0.50806 0.0
C1320 C 0.07854 0.37672 0.47491 0.0
C1321 C 0.05284 0.29692 0.49329 0.0
C1322 C 0.10513 0.37491 0.4741 0.0
C1323 C 0.12382 0.38711 0.45247 0.0
C1324 C 0.11652 0.40174 0.43116 0.0
C1325 C 0.09086 0.40542 0.43281 0.0
C1326 C 0.07235 0.39325 0.45416 0.0
H1327 H 1.03601 0.26743 0.4969 0.0
H1328 H 0.05551 0.30075 0.47232 0.0
H1329 H 0.07418 0.30185 0.50166 0.0
H1330 H 0.11127 0.36346 0.48999 0.0
H1331 H 0.14312 0.38346 0.45198 0.0
loop_
_geom_bond_atom_site_label_1
_geom_bond_atom_site_label_2
_geom_bond_distance
_geom_bond_site_symmetry_2
_ccdc_geom_bond_type
Dy0 O3 2.307 1_456 S
Dy0 O5 2.394 1_556 S
Dy0 O6 2.380 . S
Dy0 O8 2.340 . S
Dy0 O10 2.298 . S
Dy0 O14 2.274 1_556 S
Dy0 C22 2.738 1_556 S
Dy1 O4 2.298 . S
Dy1 O7 2.275 1_554 S
Dy1 O9 2.307 1_655 S
Dy1 O11 2.395 1_554 S
Dy1 O12 2.379 . S
Dy1 O15 2.339 . S
Dy1 C31 2.738 . S
C2 O14 1.254 . S
C2 O15 1.257 1_455 S
O3 Dy0 2.307 1_654 S
O3 C13 1.266 . S
O4 Dy1 2.298 . S
O4 C13 1.236 . S
O5 Dy0 2.394 1_554 S
O5 C22 1.253 . S
O6 Dy0 2.380 . S
O6 C22 1.251 1_556 S
O7 Dy1 2.275 1_556 S
O7 C23 1.254 . S
O8 Dy0 2.340 . S
O8 C23 1.257 1_455 S
O9 Dy1 2.307 1_455 S
O9 C24 1.266 . S
O10 Dy0 2.298 . S
O10 C24 1.236 1_556 S
O11 Dy1 2.395 1_556 S
O11 C31 1.255 1_556 S
O12 Dy1 2.379 . S
O12 C31 1.249 . S
C13 O3 1.266 . S
C13 O4 1.236 . S
O14 Dy0 2.274 1_554 S
O14 C2 1.254 . S
O15 Dy1 2.339 . S
O15 C2 1.257 1_655 S
C16 C19 1.359 . S
C16 C20 1.312 1_554 S
C16 C22 1.516 . S
C17 C18 1.304 . S
C17 C21 1.323 1_554 S
C18 C17 1.304 . S
C18 C19 1.371 . S
C18 H32 0.930 . S
C19 C16 1.359 . S
C19 C18 1.371 . S
C19 H33 0.931 . S
C20 C16 1.312 1_556 S
C20 C21 1.433 . S
C20 H34 0.931 . S
C21 C17 1.323 1_556 S
C21 C20 1.433 . S
C21 H35 0.933 . S
C22 Dy0 2.738 1_554 S
C22 O5 1.253 . S
C22 O6 1.251 1_554 S
C22 C16 1.516 . S
C23 O7 1.254 . S
C23 O8 1.257 1_655 S
C24 O9 1.266 . S
C24 O10 1.236 1_554 S
C25 C28 1.344 1_554 S
C25 C29 1.328 . S
C25 C31 1.516 . S
C26 C27 1.304 1_554 S
C26 C30 1.323 . S
C27 C26 1.304 1_556 S
C27 C28 1.371 . S
C27 H36 0.930 . S
C28 C25 1.344 1_556 S
C28 C27 1.371 . S
C28 H37 0.931 . S
C29 C25 1.328 . S
C29 C30 1.433 . S
C29 H38 0.931 . S
C30 C26 1.323 . S
C30 C29 1.433 . S
C30 H39 0.933 . S
C31 Dy1 2.738 . S
C31 O11 1.255 1_554 S
C31 O12 1.249 . S
C31 C25 1.516 . S
H32 C18 0.930 . S
H33 C19 0.931 . S
H34 C20 0.931 . S
H35 C21 0.933 . S
H36 C27 0.930 . S
H37 C28 0.931 . S
H38 C29 0.931 . S
H39 C30 0.933 . S
Dy40 O43 2.307 . S
Dy40 O45 2.395 1_554 S
Dy40 O46 2.379 . S
Dy40 O48 2.339 . S
Dy40 O50 2.298 . S
Dy40 O54 2.275 1_554 S
Dy40 C62 2.738 . S
Dy41 O44 2.298 . S
Dy41 O47 2.275 1_556 S
Dy41 O49 2.307 . S
Dy41 O51 2.395 1_556 S
Dy41 O52 2.379 . S
Dy41 O55 2.339 . S
Dy41 C71 2.738 . S
C42 O54 1.254 . S
C42 O55 1.257 . S
O43 Dy40 2.307 . S
O43 C53 1.266 1_554 S
O44 Dy41 2.298 . S
O44 C53 1.236 . S
O45 Dy40 2.395 1_556 S
O45 C62 1.255 1_556 S
O46 Dy40 2.379 . S
O46 C62 1.249 . S
O47 Dy41 2.275 1_554 S
O47 C63 1.254 . S
O48 Dy40 2.339 . S
O48 C63 1.257 . S
O49 Dy41 2.307 . S
O49 C64 1.266 1_556 S
O50 Dy40 2.298 . S
O50 C64 1.236 . S
O51 Dy41 2.395 1_554 S
O51 C71 1.255 1_554 S
O52 Dy41 2.379 . S
O52 C71 1.249 . S
C53 O43 1.266 1_556 S
C53 O44 1.236 . S
O54 Dy40 2.275 1_556 S
O54 C42 1.254 . S
O55 Dy41 2.339 . S
O55 C42 1.257 . S
C56 C59 1.344 1_554 S
C56 C60 1.328 . S
C56 C62 1.516 . S
C57 C58 1.304 1_554 S
C57 C61 1.323 . S
C58 C57 1.304 1_556 S
C58 C59 1.371 . S
C58 H72 0.930 . S
C59 C56 1.344 1_556 S
C59 C58 1.371 . S
C59 H73 0.931 . S
C60 C56 1.328 . S
C60 C61 1.433 . S
C60 H74 0.931 . S
C61 C57 1.323 . S
C61 C60 1.433 . S
C61 H75 0.933 . S
C62 Dy40 2.738 . S
C62 O45 1.255 1_554 S
C62 O46 1.249 . S
C62 C56 1.516 . S
C63 O47 1.254 . S
C63 O48 1.257 . S
C64 O49 1.266 1_554 S
C64 O50 1.236 . S
C65 C68 1.344 1_556 S
C65 C69 1.328 . S
C65 C71 1.516 . S
C66 C67 1.304 1_556 S
C66 C70 1.323 . S
C67 C66 1.304 1_554 S
C67 C68 1.371 . S
C67 H76 0.930 . S
C68 C65 1.344 1_554 S
C68 C67 1.371 . S
C68 H77 0.931 . S
C69 C65 1.328 . S
C69 C70 1.433 . S
C69 H78 0.931 . S
C70 C66 1.323 . S
C70 C69 1.433 . S
C70 H79 0.933 . S
C71 Dy41 2.738 . S
C71 O51 1.255 1_556 S
C71 O52 1.249 . S
C71 C65 1.516 . S
H72 C58 0.930 . S
H73 C59 0.931 . S
H74 C60 0.931 . S
H75 C61 0.933 . S
H76 C67 0.930 . S
H77 C68 0.931 . S
H78 C69 0.931 . S
H79 C70 0.933 . S
Dy80 O83 2.306 1_566 S
Dy80 O85 2.378 1_556 S
Dy80 O86 2.393 . S
Dy80 O88 2.372 . S
Dy80 O90 2.302 . S
Dy80 O94 2.247 1_556 S
Dy80 C102 2.737 . S
Dy81 O84 2.298 . S
Dy81 O87 2.275 1_554 S
Dy81 O89 2.307 1_545 S
Dy81 O91 2.395 1_554 S
Dy81 O92 2.379 . S
Dy81 O95 2.339 . S
Dy81 C111 2.738 . S
C82 O94 1.254 . S
C82 O95 1.257 1_565 S
O83 Dy80 2.306 1_544 S
O83 C93 1.266 . S
O84 Dy81 2.298 . S
O84 C93 1.236 . S
O85 Dy80 2.378 1_554 S
O85 C102 1.242 1_554 S
O86 Dy80 2.393 . S
O86 C102 1.263 . S
O87 Dy81 2.275 1_556 S
O87 C103 1.254 . S
O88 Dy80 2.372 . S
O88 C103 1.257 1_565 S
O89 Dy81 2.307 1_565 S
O89 C104 1.266 . S
O90 Dy80 2.302 . S
O90 C104 1.236 1_556 S
O91 Dy81 2.395 1_556 S
O91 C111 1.255 1_556 S
O92 Dy81 2.379 . S
O92 C111 1.249 . S
C93 O83 1.266 . S
C93 O84 1.236 . S
O94 Dy80 2.247 1_554 S
O94 C82 1.254 . S
O95 Dy81 2.339 . S
O95 C82 1.257 1_545 S
C96 C99 1.345 . S
C96 C100 1.327 1_554 S
C96 C102 1.515 1_554 S
C97 C98 1.304 . S
C97 C101 1.323 1_554 S
C98 C97 1.304 . S
C98 C99 1.371 . S
C98 H112 0.930 . S
C99 C96 1.345 . S
C99 C98 1.371 . S
C99 H113 0.931 . S
C100 C96 1.327 1_556 S
C100 C101 1.433 . S
C100 H114 0.931 . S
C101 C97 1.323 1_556 S
C101 C100 1.433 . S
C101 H115 0.933 . S
C102 Dy80 2.737 . S
C102 O85 1.242 1_556 S
C102 O86 1.263 . S
C102 C96 1.515 1_556 S
C103 O87 1.254 . S
C103 O88 1.257 1_545 S
C104 O89 1.266 . S
C104 O90 1.236 1_554 S
C105 C108 1.344 1_554 S
C105 C109 1.328 . S
C105 C111 1.516 . S
C106 C107 1.304 1_554 S
C106 C110 1.323 . S
C107 C106 1.304 1_556 S
C107 C108 1.371 . S
C107 H116 0.930 . S
C108 C105 1.344 1_556 S
C108 C107 1.371 . S
C108 H117 0.931 . S
C109 C105 1.328 . S
C109 C110 1.433 . S
C109 H118 0.931 . S
C110 C106 1.323 . S
C110 C109 1.433 . S
C110 H119 0.933 . S
C111 Dy81 2.738 . S
C111 O91 1.255 1_554 S
C111 O92 1.249 . S
C111 C105 1.516 . S
H112 C98 0.930 . S
H113 C99 0.931 . S
H114 C100 0.931 . S
H115 C101 0.933 . S
H116 C107 0.930 . S
H117 C108 0.931 . S
H118 C109 0.931 . S
H119 C110 0.933 . S
Dy120 O123 2.307 . S
Dy120 O125 2.395 . S
Dy120 O126 2.379 . S
Dy120 O128 2.339 . S
Dy120 O130 2.298 . S
Dy120 O134 2.275 . S
Dy120 C142 2.738 . S
Dy121 O124 2.298 . S
Dy121 O127 2.275 . S
Dy121 O129 2.307 . S
Dy121 O131 2.395 . S
Dy121 O132 2.379 . S
Dy121 O135 2.339 . S
Dy121 C151 2.738 . S
C122 O134 1.254 . S
C122 O135 1.257 . S
O123 Dy120 2.307 . S
O123 C133 1.266 . S
O124 Dy121 2.298 . S
O124 C133 1.236 . S
O125 Dy120 2.395 . S
O125 C142 1.255 . S
O126 Dy120 2.379 . S
O126 C142 1.249 . S
O127 Dy121 2.275 . S
O127 C143 1.254 . S
O128 Dy120 2.339 . S
O128 C143 1.257 . S
O129 Dy121 2.307 . S
O129 C144 1.266 . S
O130 Dy120 2.298 . S
O130 C144 1.236 . S
O131 Dy121 2.395 . S
O131 C151 1.255 . S
O132 Dy121 2.379 . S
O132 C151 1.249 . S
C133 O123 1.266 . S
C133 O124 1.236 . S
O134 Dy120 2.275 . S
O134 C122 1.254 . S
O135 Dy121 2.339 . S
O135 C122 1.257 . S
C136 C139 1.344 . S
C136 C140 1.328 . S
C136 C142 1.516 . S
C137 C138 1.304 . S
C137 C141 1.323 . S
C138 C137 1.304 . S
C138 C139 1.371 . S
C138 H152 0.930 . S
C139 C136 1.344 . S
C139 C138 1.371 . S
C139 H153 0.931 . S
C140 C136 1.328 . S
C140 C141 1.433 . S
C140 H154 0.931 . S
C141 C137 1.323 . S
C141 C140 1.433 . S
C141 H155 0.933 . S
C142 Dy120 2.738 . S
C142 O125 1.255 . S
C142 O126 1.249 . S
C142 C136 1.516 . S
C143 O127 1.254 . S
C143 O128 1.257 . S
C144 O129 1.266 . S
C144 O130 1.236 . S
C145 C148 1.344 . S
C145 C149 1.328 . S
C145 C151 1.516 . S
C146 C147 1.304 . S
C146 C150 1.323 . S
C147 C146 1.304 . S
C147 C148 1.371 . S
C147 H156 0.930 . S
C148 C145 1.344 . S
C148 C147 1.371 . S
C148 H157 0.931 . S
C149 C145 1.328 . S
C149 C150 1.433 . S
C149 H158 0.931 . S
C150 C146 1.323 . S
C150 C149 1.433 . S
C150 H159 0.933 . S
C151 Dy121 2.738 . S
C151 O131 1.255 . S
C151 O132 1.249 . S
C151 C145 1.516 . S
H152 C138 0.930 . S
H153 C139 0.931 . S
H154 C140 0.931 . S
H155 C141 0.933 . S
H156 C147 0.930 . S
H157 C148 0.931 . S
H158 C149 0.931 . S
H159 C150 0.933 . S
Dy160 O163 2.307 . S
Dy160 O165 2.395 . S
Dy160 O166 2.379 . S
Dy160 O168 2.339 . S
Dy160 O170 2.298 . S
Dy160 O174 2.275 . S
Dy160 C182 2.738 . S
Dy161 O164 2.298 . S
Dy161 O167 2.275 . S
Dy161 O169 2.307 . S
Dy161 O171 2.395 . S
Dy161 O172 2.379 . S
Dy161 O175 2.339 . S
Dy161 C191 2.738 . S
C162 O174 1.254 . S
C162 O175 1.257 . S
O163 Dy160 2.307 . S
O163 C173 1.266 . S
O164 Dy161 2.298 . S
O164 C173 1.236 . S
O165 Dy160 2.395 . S
O165 C182 1.255 . S
O166 Dy160 2.379 . S
O166 C182 1.249 . S
O167 Dy161 2.275 . S
O167 C183 1.254 . S
O168 Dy160 2.339 . S
O168 C183 1.257 . S
O169 Dy161 2.307 . S
O169 C184 1.266 . S
O170 Dy160 2.298 . S
O170 C184 1.236 . S
O171 Dy161 2.395 . S
O171 C191 1.255 . S
O172 Dy161 2.379 . S
O172 C191 1.249 . S
C173 O163 1.266 . S
C173 O164 1.236 . S
O174 Dy160 2.275 . S
O174 C162 1.254 . S
O175 Dy161 2.339 . S
O175 C162 1.257 . S
C176 C179 1.344 . S
C176 C180 1.328 . S
C176 C182 1.516 1_545 S
C177 C178 1.304 . S
C177 C181 1.323 . S
C178 C177 1.304 . S
C178 C179 1.371 . S
C178 H192 0.930 . S
C179 C176 1.344 . S
C179 C178 1.371 . S
C179 H193 0.931 . S
C180 C176 1.328 . S
C180 C181 1.433 . S
C180 H194 0.931 . S
C181 C177 1.323 . S
C181 C180 1.433 . S
C181 H195 0.933 . S
C182 Dy160 2.738 . S
C182 O165 1.255 . S
C182 O166 1.249 . S
C182 C176 1.516 1_565 S
C183 O167 1.254 . S
C183 O168 1.257 . S
C184 O169 1.266 . S
C184 O170 1.236 . S
C185 C188 1.344 . S
C185 C189 1.328 . S
C185 C191 1.516 . S
C186 C187 1.304 . S
C186 C190 1.323 . S
C187 C186 1.304 . S
C187 C188 1.371 . S
C187 H196 0.930 . S
C188 C185 1.344 . S
C188 C187 1.371 . S
C188 H197 0.931 . S
C189 C185 1.328 . S
C189 C190 1.433 . S
C189 H198 0.931 . S
C190 C186 1.323 . S
C190 C189 1.433 . S
C190 H199 0.933 . S
C191 Dy161 2.738 . S
C191 O171 1.255 . S
C191 O172 1.249 . S
C191 C185 1.516 . S
H192 C178 0.930 . S
H193 C179 0.931 . S
H194 C180 0.931 . S
H195 C181 0.933 . S
H196 C187 0.930 . S
H197 C188 0.931 . S
H198 C189 0.931 . S
H199 C190 0.933 . S
Dy200 O203 2.307 . S
Dy200 O205 2.395 . S
Dy200 O206 2.379 . S
Dy200 O208 2.339 . S
Dy200 O210 2.298 . S
Dy200 O214 2.275 . S
Dy200 C222 2.738 . S
Dy201 O204 2.298 . S
Dy201 O207 2.275 . S
Dy201 O209 2.307 . S
Dy201 O211 2.395 . S
Dy201 O212 2.379 . S
Dy201 O215 2.339 . S
Dy201 C231 2.738 . S
C202 O214 1.254 . S
C202 O215 1.257 . S
O203 Dy200 2.307 . S
O203 C213 1.266 . S
O204 Dy201 2.298 . S
O204 C213 1.236 . S
O205 Dy200 2.395 . S
O205 C222 1.255 . S
O206 Dy200 2.379 . S
O206 C222 1.249 . S
O207 Dy201 2.275 . S
O207 C223 1.254 . S
O208 Dy200 2.339 . S
O208 C223 1.257 . S
O209 Dy201 2.307 . S
O209 C224 1.266 . S
O210 Dy200 2.298 . S
O210 C224 1.236 . S
O211 Dy201 2.395 . S
O211 C231 1.255 . S
O212 Dy201 2.379 . S
O212 C231 1.249 . S
C213 O203 1.266 . S
C213 O204 1.236 . S
O214 Dy200 2.275 . S
O214 C202 1.254 . S
O215 Dy201 2.339 . S
O215 C202 1.257 . S
C216 C219 1.344 . S
C216 C220 1.328 1_455 S
C216 C222 1.516 . S
C217 C218 1.304 . S
C217 C221 1.323 . S
C218 C217 1.304 . S
C218 C219 1.371 1_655 S
C218 H232 0.930 . S
C219 C216 1.344 . S
C219 C218 1.371 1_455 S
C219 H233 0.931 . S
C220 C216 1.328 1_655 S
C220 C221 1.433 . S
C220 H234 0.931 . S
C221 C217 1.323 . S
C221 C220 1.433 . S
C221 H235 0.933 . S
C222 Dy200 2.738 . S
C222 O205 1.255 . S
C222 O206 1.249 . S
C222 C216 1.516 . S
C223 O207 1.254 . S
C223 O208 1.257 . S
C224 O209 1.266 . S
C224 O210 1.236 . S
C225 C228 1.344 . S
C225 C229 1.328 . S
C225 C231 1.516 . S
C226 C227 1.304 . S
C226 C230 1.323 . S
C227 C226 1.304 . S
C227 C228 1.371 . S
C227 H236 0.930 . S
C228 C225 1.344 . S
C228 C227 1.371 . S
C228 H237 0.931 . S
C229 C225 1.328 . S
C229 C230 1.433 . S
C229 H238 0.931 . S
C230 C226 1.323 . S
C230 C229 1.433 . S
C230 H239 0.933 . S
C231 Dy201 2.738 . S
C231 O211 1.255 . S
C231 O212 1.249 . S
C231 C225 1.516 . S
H232 C218 0.930 . S
H233 C219 0.931 . S
H234 C220 0.931 . S
H235 C221 0.933 . S
H236 C227 0.930 . S
H237 C228 0.931 . S
H238 C229 0.931 . S
H239 C230 0.933 . S
Dy240 O243 2.307 . S
Dy240 O245 2.395 . S
Dy240 O246 2.379 . S
Dy240 O248 2.339 . S
Dy240 O250 2.298 . S
Dy240 O254 2.275 . S
Dy240 C262 2.738 . S
Dy241 O244 2.298 . S
Dy241 O247 2.275 . S
Dy241 O249 2.307 . S
Dy241 O251 2.395 . S
Dy241 O252 2.379 . S
Dy241 O255 2.339 . S
Dy241 C271 2.738 . S
C242 O254 1.254 . S
C242 O255 1.257 . S
O243 Dy240 2.307 . S
O243 C253 1.266 . S
O244 Dy241 2.298 . S
O244 C253 1.236 . S
O245 Dy240 2.395 . S
O245 C262 1.255 . S
O246 Dy240 2.379 . S
O246 C262 1.249 . S
O247 Dy241 2.275 . S
O247 C263 1.254 . S
O248 Dy240 2.339 . S
O248 C263 1.257 . S
O249 Dy241 2.307 . S
O249 C264 1.266 . S
O250 Dy240 2.298 . S
O250 C264 1.236 . S
O251 Dy241 2.395 . S
O251 C271 1.255 . S
O252 Dy241 2.379 . S
O252 C271 1.249 . S
C253 O243 1.266 . S
C253 O244 1.236 . S
O254 Dy240 2.275 . S
O254 C242 1.254 . S
O255 Dy241 2.339 . S
O255 C242 1.257 . S
C256 C259 1.344 . S
C256 C260 1.328 . S
C256 C262 1.516 . S
C257 C258 1.304 . S
C257 C261 1.323 . S
C258 C257 1.304 . S
C258 C259 1.371 . S
C258 H272 0.930 . S
C259 C256 1.344 . S
C259 C258 1.371 . S
C259 H273 0.931 . S
C260 C256 1.328 . S
C260 C261 1.433 . S
C260 H274 0.931 . S
C261 C257 1.323 . S
C261 C260 1.433 . S
C261 H275 0.933 . S
C262 Dy240 2.738 . S
C262 O245 1.255 . S
C262 O246 1.249 . S
C262 C256 1.516 . S
C263 O247 1.254 . S
C263 O248 1.257 . S
C264 O249 1.266 . S
C264 O250 1.236 . S
C265 C268 1.344 . S
C265 C269 1.328 . S
C265 C271 1.516 . S
C266 C267 1.304 . S
C266 C270 1.323 . S
C267 C266 1.304 . S
C267 C268 1.371 . S
C267 H276 0.930 . S
C268 C265 1.344 . S
C268 C267 1.371 . S
C268 H277 0.931 . S
C269 C265 1.328 . S
C269 C270 1.433 . S
C269 H278 0.931 . S
C270 C266 1.323 . S
C270 C269 1.433 . S
C270 H279 0.933 . S
C271 Dy241 2.738 . S
C271 O251 1.255 . S
C271 O252 1.249 . S
C271 C265 1.516 . S
H272 C258 0.930 . S
H273 C259 0.931 . S
H274 C260 0.931 . S
H275 C261 0.933 . S
H276 C267 0.930 . S
H277 C268 0.931 . S
H278 C269 0.931 . S
H279 C270 0.933 . S
Dy280 O283 2.307 . S
Dy280 O285 2.395 . S
Dy280 O286 2.379 . S
Dy280 O288 2.339 . S
Dy280 O290 2.298 . S
Dy280 O294 2.275 . S
Dy280 C302 2.738 . S
Dy281 O284 2.298 . S
Dy281 O287 2.275 . S
Dy281 O289 2.307 . S
Dy281 O291 2.395 . S
Dy281 O292 2.379 . S
Dy281 O295 2.339 . S
Dy281 C311 2.738 . S
C282 O294 1.254 . S
C282 O295 1.257 . S
O283 Dy280 2.307 . S
O283 C293 1.266 . S
O284 Dy281 2.298 . S
O284 C293 1.236 . S
O285 Dy280 2.395 . S
O285 C302 1.255 . S
O286 Dy280 2.379 . S
O286 C302 1.249 . S
O287 Dy281 2.275 . S
O287 C303 1.254 . S
O288 Dy280 2.339 . S
O288 C303 1.257 . S
O289 Dy281 2.307 . S
O289 C304 1.266 . S
O290 Dy280 2.298 . S
O290 C304 1.236 . S
O291 Dy281 2.395 . S
O291 C311 1.255 . S
O292 Dy281 2.379 . S
O292 C311 1.249 . S
C293 O283 1.266 . S
C293 O284 1.236 . S
O294 Dy280 2.275 . S
O294 C282 1.254 . S
O295 Dy281 2.339 . S
O295 C282 1.257 . S
C296 C299 1.344 1_655 S
C296 C300 1.328 1_655 S
C296 C302 1.516 . S
C297 C298 1.304 . S
C297 C301 1.323 . S
C298 C297 1.304 . S
C298 C299 1.371 . S
C298 H312 0.930 . S
C299 C296 1.344 1_455 S
C299 C298 1.371 . S
C299 H313 0.931 1_455 S
C300 C296 1.328 1_455 S
C300 C301 1.433 . S
C300 H314 0.931 . S
C301 C297 1.323 . S
C301 C300 1.433 . S
C301 H315 0.933 . S
C302 Dy280 2.738 . S
C302 O285 1.255 . S
C302 O286 1.249 . S
C302 C296 1.516 . S
C303 O287 1.254 . S
C303 O288 1.257 . S
C304 O289 1.266 . S
C304 O290 1.236 . S
C305 C308 1.344 . S
C305 C309 1.328 . S
C305 C311 1.516 . S
C306 C307 1.304 . S
C306 C310 1.323 . S
C307 C306 1.304 . S
C307 C308 1.371 . S
C307 H316 0.930 . S
C308 C305 1.344 . S
C308 C307 1.371 . S
C308 H317 0.931 . S
C309 C305 1.328 . S
C309 C310 1.433 . S
C309 H318 0.931 . S
C310 C306 1.323 . S
C310 C309 1.433 . S
C310 H319 0.933 . S
C311 Dy281 2.738 . S
C311 O291 1.255 . S
C311 O292 1.249 . S
C311 C305 1.516 . S
H312 C298 0.930 . S
H313 C299 0.931 1_655 S
H314 C300 0.931 . S
H315 C301 0.933 . S
H316 C307 0.930 . S
H317 C308 0.931 . S
H318 C309 0.931 . S
H319 C310 0.933 . S
Dy320 O323 2.307 . S
Dy320 O325 2.395 . S
Dy320 O326 2.379 . S
Dy320 O328 2.339 . S
Dy320 O330 2.298 . S
Dy320 O334 2.275 . S
Dy320 C342 2.738 . S
Dy321 O324 2.298 . S
Dy321 O327 2.275 . S
Dy321 O329 2.307 . S
Dy321 O331 2.395 . S
Dy321 O332 2.379 . S
Dy321 O335 2.339 . S
Dy321 C351 2.738 . S
C322 O334 1.254 . S
C322 O335 1.257 . S
O323 Dy320 2.307 . S
O323 C333 1.266 . S
O324 Dy321 2.298 . S
O324 C333 1.236 . S
O325 Dy320 2.395 . S
O325 C342 1.255 . S
O326 Dy320 2.379 . S
O326 C342 1.249 . S
O327 Dy321 2.275 . S
O327 C343 1.254 . S
O328 Dy320 2.339 . S
O328 C343 1.257 . S
O329 Dy321 2.307 . S
O329 C344 1.266 . S
O330 Dy320 2.298 . S
O330 C344 1.236 . S
O331 Dy321 2.395 . S
O331 C351 1.255 . S
O332 Dy321 2.379 . S
O332 C351 1.249 . S
C333 O323 1.266 . S
C333 O324 1.236 . S
O334 Dy320 2.275 . S
O334 C322 1.254 . S
O335 Dy321 2.339 . S
O335 C322 1.257 . S
C336 C339 1.344 . S
C336 C340 1.328 . S
C336 C342 1.516 . S
C337 C338 1.304 . S
C337 C341 1.323 . S
C338 C337 1.304 . S
C338 C339 1.371 . S
C338 H352 0.930 . S
C339 C336 1.344 . S
C339 C338 1.371 . S
C339 H353 0.931 . S
C340 C336 1.328 . S
C340 C341 1.433 . S
C340 H354 0.931 . S
C341 C337 1.323 . S
C341 C340 1.433 . S
C341 H355 0.933 . S
C342 Dy320 2.738 . S
C342 O325 1.255 . S
C342 O326 1.249 . S
C342 C336 1.516 . S
C343 O327 1.254 . S
C343 O328 1.257 . S
C344 O329 1.266 . S
C344 O330 1.236 . S
C345 C348 1.344 . S
C345 C349 1.328 . S
C345 C351 1.516 . S
C346 C347 1.304 . S
C346 C350 1.323 . S
C347 C346 1.304 . S
C347 C348 1.371 . S
C347 H356 0.930 . S
C348 C345 1.344 . S
C348 C347 1.371 . S
C348 H357 0.931 . S
C349 C345 1.328 . S
C349 C350 1.433 . S
C349 H358 0.931 . S
C350 C346 1.323 . S
C350 C349 1.433 . S
C350 H359 0.933 . S
C351 Dy321 2.738 . S
C351 O331 1.255 . S
C351 O332 1.249 . S
C351 C345 1.516 . S
H352 C338 0.930 . S
H353 C339 0.931 . S
H354 C340 0.931 . S
H355 C341 0.933 . S
H356 C347 0.930 . S
H357 C348 0.931 . S
H358 C349 0.931 . S
H359 C350 0.933 . S
H360 C368 0.929 . S
H361 C370 0.930 . S
H362 C372 0.930 . S
H363 C375 0.929 . S
H364 C378 0.930 . S
H365 C380 0.960 . S
H366 C380 0.960 . S
H367 C380 0.960 1_554 S
C368 H360 0.929 . S
C368 C369 1.377 . S
C368 C370 1.384 . S
C369 C368 1.377 . S
C369 C375 1.390 1_556 S
C370 H361 0.930 . S
C370 C368 1.384 . S
C370 C371 1.372 . S
C371 C370 1.372 . S
C371 C372 1.400 1_556 S
C371 C376 1.490 . S
C372 H362 0.930 . S
C372 C371 1.400 1_554 S
C372 C375 1.386 . S
H373 C389 0.930 . S
H374 C390 0.931 . S
C375 H363 0.929 . S
C375 C369 1.390 1_554 S
C375 C372 1.386 . S
C376 C371 1.490 . S
C376 C378 1.395 . S
C376 C379 1.403 . S
H377 C383 0.930 1_554 S
C378 H364 0.930 . S
C378 C376 1.395 . S
C378 C381 1.403 . S
C379 C376 1.403 . S
C379 C380 1.524 . S
C379 C383 1.400 . S
C380 H365 0.960 . S
C380 H366 0.960 . S
C380 H367 0.960 1_556 S
C380 C379 1.524 . S
C381 C378 1.403 . S
C381 C382 1.392 . S
C381 C385 1.495 . S
C382 C381 1.392 . S
C382 C383 1.385 . S
C382 C384 1.481 . S
C383 H377 0.930 1_556 S
C383 C379 1.400 . S
C383 C382 1.385 . S
C384 C382 1.481 . S
C384 C386 1.408 . S
C384 C390 1.354 1_556 S
C385 C381 1.495 . S
C385 H391 0.959 . S
C385 H392 0.961 1_556 S
C385 H393 0.960 . S
C386 C384 1.408 . S
C386 C387 1.394 . S
C386 H394 0.930 . S
C387 C386 1.394 . S
C387 C388 1.383 1_556 S
C387 H395 0.929 . S
C388 C387 1.383 1_554 S
C388 C389 1.377 . S
C389 H373 0.930 . S
C389 C388 1.377 . S
C389 C390 1.379 . S
C390 H374 0.931 . S
C390 C384 1.354 1_554 S
C390 C389 1.379 . S
H391 C385 0.959 . S
H392 C385 0.961 1_554 S
H393 C385 0.960 . S
H394 C386 0.930 . S
H395 C387 0.929 . S
H396 C404 0.929 . S
H397 C406 0.930 . S
H398 C408 0.930 . S
H399 C411 0.929 . S
H400 C414 0.930 . S
H401 C416 0.960 . S
H402 C416 0.960 . S
H403 C416 0.960 . S
C404 H396 0.929 . S
C404 C405 1.377 1_556 S
C404 C406 1.384 . S
C405 C404 1.377 1_554 S
C405 C411 1.390 . S
C406 H397 0.930 . S
C406 C404 1.384 . S
C406 C407 1.372 1_556 S
C407 C406 1.372 1_554 S
C407 C408 1.400 . S
C407 C412 1.490 1_554 S
C408 H398 0.930 . S
C408 C407 1.400 . S
C408 C411 1.386 . S
H409 C425 0.930 . S
H410 C426 0.931 . S
C411 H399 0.929 . S
C411 C405 1.390 . S
C411 C408 1.386 . S
C412 C407 1.490 1_556 S
C412 C414 1.396 . S
C412 C415 1.401 1_556 S
H413 C419 0.930 . S
C414 H400 0.930 . S
C414 C412 1.396 . S
C414 C417 1.403 . S
C415 C412 1.401 1_554 S
C415 C416 1.524 . S
C415 C419 1.400 . S
C416 H401 0.960 . S
C416 H402 0.960 . S
C416 H403 0.960 . S
C416 C415 1.524 . S
C417 C414 1.403 . S
C417 C418 1.392 . S
C417 C421 1.495 . S
C418 C417 1.392 . S
C418 C419 1.385 1_556 S
C418 C420 1.478 . S
C419 H413 0.930 . S
C419 C415 1.400 . S
C419 C418 1.385 1_554 S
C420 C418 1.478 . S
C420 C422 1.381 . S
C420 C426 1.383 1_556 S
C421 C417 1.495 . S
C421 H427 0.959 . S
C421 H428 0.961 . S
C421 H429 0.960 . S
C422 C420 1.381 . S
C422 C423 1.394 . S
C422 H430 0.930 . S
C423 C422 1.394 . S
C423 C424 1.383 . S
C423 H431 0.929 . S
C424 C423 1.383 . S
C424 C425 1.377 1_556 S
C425 H409 0.930 . S
C425 C424 1.377 1_554 S
C425 C426 1.379 . S
C426 H410 0.931 . S
C426 C420 1.383 1_554 S
C426 C425 1.379 . S
H427 C421 0.959 . S
H428 C421 0.961 . S
H429 C421 0.960 . S
H430 C422 0.930 . S
H431 C423 0.929 . S
H432 C440 0.929 . S
H433 C442 0.930 . S
H434 C444 0.930 . S
H435 C447 0.929 . S
H436 C450 0.931 . S
H437 C452 0.960 . S
H438 C452 0.960 . S
H439 C452 0.957 1_556 S
C440 H432 0.929 . S
C440 C441 1.377 . S
C440 C442 1.384 . S
C441 C440 1.377 . S
C441 C447 1.390 1_554 S
C442 H433 0.930 . S
C442 C440 1.384 . S
C442 C443 1.372 . S
C443 C442 1.372 . S
C443 C444 1.400 1_554 S
C443 C448 1.490 . S
C444 H434 0.930 . S
C444 C443 1.400 1_556 S
C444 C447 1.386 . S
H445 C461 0.930 . S
H446 C462 0.931 . S
C447 H435 0.929 . S
C447 C441 1.390 1_556 S
C447 C444 1.386 . S
C448 C443 1.490 . S
C448 C450 1.394 1_554 S
C448 C451 1.403 . S
H449 C455 0.930 . S
C450 H436 0.931 . S
C450 C448 1.394 1_556 S
C450 C453 1.404 . S
C451 C448 1.403 . S
C451 C452 1.524 . S
C451 C455 1.400 . S
C452 H437 0.960 . S
C452 H438 0.960 . S
C452 H439 0.957 1_554 S
C452 C451 1.524 . S
C453 C450 1.404 . S
C453 C454 1.389 1_556 S
C453 C457 1.499 . S
C454 C453 1.389 1_554 S
C454 C455 1.385 . S
C454 C456 1.478 . S
C455 H449 0.930 . S
C455 C451 1.400 . S
C455 C454 1.385 . S
C456 C454 1.478 . S
C456 C458 1.381 . S
C456 C462 1.383 1_554 S
C457 C453 1.499 . S
C457 H463 0.959 . S
C457 H464 0.961 . S
C457 H465 0.960 1_556 S
C458 C456 1.381 . S
C458 C459 1.394 . S
C458 H466 0.930 . S
C459 C458 1.394 . S
C459 C460 1.383 . S
C459 H467 0.929 . S
C460 C459 1.383 . S
C460 C461 1.377 1_554 S
C461 H445 0.930 . S
C461 C460 1.377 1_556 S
C461 C462 1.379 . S
C462 H446 0.931 . S
C462 C456 1.383 1_556 S
C462 C461 1.379 . S
H463 C457 0.959 . S
H464 C457 0.961 . S
H465 C457 0.960 1_554 S
H466 C458 0.930 . S
H467 C459 0.929 . S
H468 C476 0.929 . S
H469 C478 0.930 . S
H470 C480 0.930 . S
H471 C483 0.929 . S
H472 C486 0.930 . S
H473 C488 0.960 . S
H474 C488 0.960 . S
H475 C488 0.960 . S
C476 H468 0.929 . S
C476 C477 1.377 . S
C476 C478 1.384 . S
C477 C476 1.377 . S
C477 C483 1.390 1_554 S
C478 H469 0.930 . S
C478 C476 1.384 . S
C478 C479 1.372 . S
C479 C478 1.372 . S
C479 C480 1.400 1_554 S
C479 C484 1.490 . S
C480 H470 0.930 . S
C480 C479 1.400 1_556 S
C480 C483 1.386 . S
H481 C497 0.930 . S
H482 C498 0.931 . S
C483 H471 0.929 . S
C483 C477 1.390 1_556 S
C483 C480 1.386 . S
C484 C479 1.490 . S
C484 C486 1.395 . S
C484 C487 1.403 1_554 S
H485 C491 0.930 . S
C486 H472 0.930 . S
C486 C484 1.395 . S
C486 C489 1.403 . S
C487 C484 1.403 1_556 S
C487 C488 1.524 . S
C487 C491 1.400 . S
C488 H473 0.960 . S
C488 H474 0.960 . S
C488 H475 0.960 . S
C488 C487 1.524 . S
C489 C486 1.403 . S
C489 C490 1.392 . S
C489 C493 1.495 . S
C490 C489 1.392 . S
C490 C491 1.385 1_554 S
C490 C492 1.478 . S
C491 H485 0.930 . S
C491 C487 1.400 . S
C491 C490 1.385 1_556 S
C492 C490 1.478 . S
C492 C494 1.381 . S
C492 C498 1.383 1_554 S
C493 C489 1.495 . S
C493 H499 0.959 . S
C493 H500 0.961 . S
C493 H501 0.960 . S
C494 C492 1.381 . S
C494 C495 1.394 . S
C494 H502 0.930 . S
C495 C494 1.394 . S
C495 C496 1.383 . S
C495 H503 0.929 . S
C496 C495 1.383 . S
C496 C497 1.377 1_554 S
C497 H481 0.930 . S
C497 C496 1.377 1_556 S
C497 C498 1.379 . S
C498 H482 0.931 . S
C498 C492 1.383 1_556 S
C498 C497 1.379 . S
H499 C493 0.959 . S
H500 C493 0.961 . S
H501 C493 0.960 . S
H502 C494 0.930 . S
H503 C495 0.929 . S
H504 C512 0.929 . S
H505 C514 0.930 . S
H506 C516 0.930 . S
H507 C519 0.929 . S
H508 C522 0.930 . S
H509 C524 0.960 . S
H510 C524 0.960 . S
H511 C524 0.960 1_556 S
C512 H504 0.929 . S
C512 C513 1.377 . S
C512 C514 1.384 . S
C513 C512 1.377 . S
C513 C519 1.390 1_554 S
C514 H505 0.930 . S
C514 C512 1.384 . S
C514 C515 1.372 . S
C515 C514 1.372 . S
C515 C516 1.400 1_554 S
C515 C520 1.490 . S
C516 H506 0.930 . S
C516 C515 1.400 1_556 S
C516 C519 1.386 . S
H517 C533 0.930 . S
H518 C534 0.931 . S
C519 H507 0.929 . S
C519 C513 1.390 1_556 S
C519 C516 1.386 . S
C520 C515 1.490 . S
C520 C522 1.395 . S
C520 C523 1.403 . S
H521 C527 0.930 . S
C522 H508 0.930 . S
C522 C520 1.395 . S
C522 C525 1.403 . S
C523 C520 1.403 . S
C523 C524 1.524 . S
C523 C527 1.400 . S
C524 H509 0.960 . S
C524 H510 0.960 . S
C524 H511 0.960 1_554 S
C524 C523 1.524 . S
C525 C522 1.403 . S
C525 C526 1.392 . S
C525 C529 1.495 . S
C526 C525 1.392 . S
C526 C527 1.385 . S
C526 C528 1.478 . S
C527 H521 0.930 . S
C527 C523 1.400 . S
C527 C526 1.385 . S
C528 C526 1.478 . S
C528 C530 1.381 . S
C528 C534 1.383 1_554 S
C529 C525 1.495 . S
C529 H535 0.959 . S
C529 H536 0.961 . S
C529 H537 0.960 . S
C530 C528 1.381 . S
C530 C531 1.394 . S
C530 H538 0.930 . S
C531 C530 1.394 . S
C531 C532 1.383 . S
C531 H539 0.929 . S
C532 C531 1.383 . S
C532 C533 1.377 1_554 S
C533 H517 0.930 . S
C533 C532 1.377 1_556 S
C533 C534 1.379 . S
C534 H518 0.931 . S
C534 C528 1.383 1_556 S
C534 C533 1.379 . S
H535 C529 0.959 . S
H536 C529 0.961 . S
H537 C529 0.960 . S
H538 C530 0.930 . S
H539 C531 0.929 . S
H540 C548 0.929 . S
H541 C550 0.930 . S
H542 C552 0.945 . S
H543 C555 0.928 1_556 S
H544 C558 0.930 . S
H545 C560 0.960 . S
H546 C560 0.960 . S
H547 C560 0.960 . S
C548 H540 0.929 . S
C548 C549 1.377 . S
C548 C550 1.384 . S
C549 C548 1.377 . S
C549 C555 1.391 . S
C550 H541 0.930 . S
C550 C548 1.384 . S
C550 C551 1.372 . S
C551 C550 1.372 . S
C551 C552 1.386 1_554 S
C551 C556 1.490 . S
C552 H542 0.945 . S
C552 C551 1.386 1_556 S
C552 C555 1.385 1_556 S
H553 C569 0.930 . S
H554 C570 0.915 1_556 S
C555 H543 0.928 1_554 S
C555 C549 1.391 . S
C555 C552 1.385 1_554 S
C556 C551 1.490 . S
C556 C558 1.395 . S
C556 C559 1.403 1_554 S
H557 C563 0.930 . S
C558 H544 0.930 . S
C558 C556 1.395 . S
C558 C561 1.403 . S
C559 C556 1.403 1_556 S
C559 C560 1.524 . S
C559 C563 1.400 . S
C560 H545 0.960 . S
C560 H546 0.960 . S
C560 H547 0.960 . S
C560 C559 1.524 . S
C561 C558 1.403 . S
C561 C562 1.392 . S
C561 C565 1.495 . S
C562 C561 1.392 . S
C562 C563 1.385 1_554 S
C562 C564 1.478 . S
C563 H557 0.930 . S
C563 C559 1.400 . S
C563 C562 1.385 1_556 S
C564 C562 1.478 . S
C564 C566 1.381 . S
C564 C570 1.403 . S
C565 C561 1.495 . S
C565 H571 0.959 . S
C565 H572 0.961 . S
C565 H573 0.960 . S
C566 C564 1.381 . S
C566 C567 1.394 . S
C566 H574 0.930 . S
C567 C566 1.394 . S
C567 C568 1.383 . S
C567 H575 0.929 . S
C568 C567 1.383 . S
C568 C569 1.377 1_554 S
C569 H553 0.930 . S
C569 C568 1.377 1_556 S
C569 C570 1.376 1_556 S
C570 H554 0.915 1_554 S
C570 C564 1.403 . S
C570 C569 1.376 1_554 S
H571 C565 0.959 . S
H572 C565 0.961 . S
H573 C565 0.960 . S
H574 C566 0.930 . S
H575 C567 0.929 . S
H576 C584 0.929 . S
H577 C586 0.930 . S
H578 C588 0.930 . S
H579 C591 0.929 . S
H580 C594 0.930 . S
H581 C596 0.960 . S
H582 C596 0.960 . S
H583 C596 0.960 . S
C584 H576 0.929 . S
C584 C585 1.377 . S
C584 C586 1.384 . S
C585 C584 1.377 . S
C585 C591 1.390 . S
C586 H577 0.930 . S
C586 C584 1.384 . S
C586 C587 1.372 . S
C587 C586 1.372 . S
C587 C588 1.400 . S
C587 C592 1.490 . S
C588 H578 0.930 . S
C588 C587 1.400 . S
C588 C591 1.386 . S
H589 C605 0.930 . S
H590 C606 0.931 . S
C591 H579 0.929 . S
C591 C585 1.390 . S
C591 C588 1.386 . S
C592 C587 1.490 . S
C592 C594 1.395 . S
C592 C595 1.403 . S
H593 C599 0.930 . S
C594 H580 0.930 . S
C594 C592 1.395 . S
C594 C597 1.403 1_655 S
C595 C592 1.403 . S
C595 C596 1.524 . S
C595 C599 1.400 1_655 S
C596 H581 0.960 . S
C596 H582 0.960 . S
C596 H583 0.960 . S
C596 C595 1.524 . S
C597 C594 1.403 1_455 S
C597 C598 1.392 . S
C597 C601 1.495 . S
C598 C597 1.392 . S
C598 C599 1.385 . S
C598 C600 1.478 . S
C599 H593 0.930 . S
C599 C595 1.400 1_455 S
C599 C598 1.385 . S
C600 C598 1.478 . S
C600 C602 1.381 . S
C600 C606 1.383 . S
C601 C597 1.495 . S
C601 H607 0.959 . S
C601 H608 0.961 . S
C601 H609 0.960 . S
C602 C600 1.381 . S
C602 C603 1.394 . S
C602 H610 0.930 . S
C603 C602 1.394 . S
C603 C604 1.383 . S
C603 H611 0.929 . S
C604 C603 1.383 . S
C604 C605 1.377 . S
C605 H589 0.930 . S
C605 C604 1.377 . S
C605 C606 1.379 . S
C606 H590 0.931 . S
C606 C600 1.383 . S
C606 C605 1.379 . S
H607 C601 0.959 . S
H608 C601 0.961 . S
H609 C601 0.960 . S
H610 C602 0.930 . S
H611 C603 0.929 . S
H612 C620 0.929 . S
H613 C622 0.930 . S
H614 C624 0.930 . S
H615 C627 0.929 . S
H616 C630 0.930 . S
H617 C632 0.960 . S
H618 C632 0.960 . S
H619 C632 0.960 . S
C620 H612 0.929 . S
C620 C621 1.377 . S
C620 C622 1.384 . S
C621 C620 1.377 . S
C621 C627 1.390 . S
C622 H613 0.930 . S
C622 C620 1.384 . S
C622 C623 1.372 . S
C623 C622 1.372 . S
C623 C624 1.400 . S
C623 C628 1.490 . S
C624 H614 0.930 . S
C624 C623 1.400 . S
C624 C627 1.386 . S
H625 C641 0.930 . S
H626 C642 0.931 . S
C627 H615 0.929 . S
C627 C621 1.390 . S
C627 C624 1.386 . S
C628 C623 1.490 . S
C628 C630 1.395 . S
C628 C631 1.403 . S
H629 C635 0.930 . S
C630 H616 0.930 . S
C630 C628 1.395 . S
C630 C633 1.403 . S
C631 C628 1.403 . S
C631 C632 1.524 . S
C631 C635 1.400 . S
C632 H617 0.960 . S
C632 H618 0.960 . S
C632 H619 0.960 . S
C632 C631 1.524 . S
C633 C630 1.403 . S
C633 C634 1.392 . S
C633 C637 1.495 . S
C634 C633 1.392 . S
C634 C635 1.385 . S
C634 C636 1.478 . S
C635 H629 0.930 . S
C635 C631 1.400 . S
C635 C634 1.385 . S
C636 C634 1.478 . S
C636 C638 1.381 . S
C636 C642 1.383 . S
C637 C633 1.495 . S
C637 H643 0.959 . S
C637 H644 0.961 . S
C637 H645 0.960 . S
C638 C636 1.381 . S
C638 C639 1.394 . S
C638 H646 0.930 . S
C639 C638 1.394 . S
C639 C640 1.383 . S
C639 H647 0.929 . S
C640 C639 1.383 . S
C640 C641 1.377 . S
C641 H625 0.930 . S
C641 C640 1.377 . S
C641 C642 1.379 . S
C642 H626 0.931 . S
C642 C636 1.383 . S
C642 C641 1.379 . S
H643 C637 0.959 . S
H644 C637 0.961 . S
H645 C637 0.960 . S
H646 C638 0.930 . S
H647 C639 0.929 . S
H648 C656 0.929 . S
H649 C658 0.930 . S
H650 C660 0.930 . S
H651 C663 0.929 . S
H652 C666 0.930 . S
H653 C668 0.960 . S
H654 C668 0.960 . S
H655 C668 0.960 . S
C656 H648 0.929 . S
C656 C657 1.377 . S
C656 C658 1.384 . S
C657 C656 1.377 . S
C657 C663 1.390 . S
C658 H649 0.930 . S
C658 C656 1.384 . S
C658 C659 1.372 . S
C659 C658 1.372 . S
C659 C660 1.400 . S
C659 C664 1.490 . S
C660 H650 0.930 . S
C660 C659 1.400 . S
C660 C663 1.386 . S
H661 C677 0.930 . S
H662 C678 0.931 . S
C663 H651 0.929 . S
C663 C657 1.390 . S
C663 C660 1.386 . S
C664 C659 1.490 . S
C664 C666 1.395 . S
C664 C667 1.403 . S
H665 C671 0.930 . S
C666 H652 0.930 . S
C666 C664 1.395 . S
C666 C669 1.403 1_545 S
C667 C664 1.403 . S
C667 C668 1.524 . S
C667 C671 1.400 1_545 S
C668 H653 0.960 . S
C668 H654 0.960 . S
C668 H655 0.960 . S
C668 C667 1.524 . S
C669 C666 1.403 1_565 S
C669 C670 1.392 . S
C669 C673 1.495 . S
C670 C669 1.392 . S
C670 C671 1.385 . S
C670 C672 1.478 . S
C671 H665 0.930 . S
C671 C667 1.400 1_565 S
C671 C670 1.385 . S
C672 C670 1.478 . S
C672 C674 1.381 . S
C672 C678 1.383 . S
C673 C669 1.495 . S
C673 H679 0.959 . S
C673 H680 0.961 . S
C673 H681 0.960 . S
C674 C672 1.381 . S
C674 C675 1.394 . S
C674 H682 0.930 . S
C675 C674 1.394 . S
C675 C676 1.383 . S
C675 H683 0.929 . S
C676 C675 1.383 . S
C676 C677 1.377 . S
C677 H661 0.930 . S
C677 C676 1.377 . S
C677 C678 1.379 . S
C678 H662 0.931 . S
C678 C672 1.383 . S
C678 C677 1.379 . S
H679 C673 0.959 . S
H680 C673 0.961 . S
H681 C673 0.960 . S
H682 C674 0.930 . S
H683 C675 0.929 . S
H684 C692 0.929 . S
H685 C694 0.930 . S
H686 C696 0.930 . S
H687 C699 0.929 . S
H688 C702 0.930 . S
H689 C704 0.960 . S
H690 C704 0.960 . S
H691 C704 0.960 . S
C692 H684 0.929 . S
C692 C693 1.377 . S
C692 C694 1.384 . S
C693 C692 1.377 . S
C693 C699 1.390 . S
C694 H685 0.930 . S
C694 C692 1.384 . S
C694 C695 1.372 . S
C695 C694 1.372 . S
C695 C696 1.400 . S
C695 C700 1.490 . S
C696 H686 0.930 . S
C696 C695 1.400 . S
C696 C699 1.386 . S
H697 C713 0.930 . S
H698 C714 0.931 . S
C699 H687 0.929 . S
C699 C693 1.390 . S
C699 C696 1.386 . S
C700 C695 1.490 . S
C700 C702 1.395 . S
C700 C703 1.403 . S
H701 C707 0.930 . S
C702 H688 0.930 . S
C702 C700 1.395 . S
C702 C705 1.403 . S
C703 C700 1.403 . S
C703 C704 1.524 . S
C703 C707 1.400 . S
C704 H689 0.960 . S
C704 H690 0.960 . S
C704 H691 0.960 . S
C704 C703 1.524 . S
C705 C702 1.403 . S
C705 C706 1.392 . S
C705 C709 1.495 . S
C706 C705 1.392 . S
C706 C707 1.385 . S
C706 C708 1.478 . S
C707 H701 0.930 . S
C707 C703 1.400 . S
C707 C706 1.385 . S
C708 C706 1.478 . S
C708 C710 1.381 . S
C708 C714 1.383 . S
C709 C705 1.495 . S
C709 H715 0.959 . S
C709 H716 0.961 . S
C709 H717 0.960 . S
C710 C708 1.381 . S
C710 C711 1.394 . S
C710 H718 0.930 . S
C711 C710 1.394 . S
C711 C712 1.383 . S
C711 H719 0.929 . S
C712 C711 1.383 . S
C712 C713 1.377 . S
C713 H697 0.930 . S
C713 C712 1.377 . S
C713 C714 1.379 . S
C714 H698 0.931 . S
C714 C708 1.383 . S
C714 C713 1.379 . S
H715 C709 0.959 . S
H716 C709 0.961 . S
H717 C709 0.960 . S
H718 C710 0.930 . S
H719 C711 0.929 . S
H720 C728 0.929 . S
H721 C730 0.930 . S
H722 C732 0.930 . S
H723 C735 0.929 . S
H724 C738 0.930 . S
H725 C740 0.960 . S
H726 C740 0.960 . S
H727 C740 0.960 . S
C728 H720 0.929 . S
C728 C729 1.377 . S
C728 C730 1.384 . S
C729 C728 1.377 . S
C729 C735 1.390 . S
C730 H721 0.930 . S
C730 C728 1.384 . S
C730 C731 1.372 . S
C731 C730 1.372 . S
C731 C732 1.400 . S
C731 C736 1.490 . S
C732 H722 0.930 . S
C732 C731 1.400 . S
C732 C735 1.386 . S
H733 C749 0.930 . S
H734 C750 0.931 . S
C735 H723 0.929 . S
C735 C729 1.390 . S
C735 C732 1.386 . S
C736 C731 1.490 . S
C736 C738 1.395 . S
C736 C739 1.403 . S
H737 C743 0.930 . S
C738 H724 0.930 . S
C738 C736 1.395 . S
C738 C741 1.403 . S
C739 C736 1.403 . S
C739 C740 1.524 . S
C739 C743 1.400 . S
C740 H725 0.960 . S
C740 H726 0.960 . S
C740 H727 0.960 . S
C740 C739 1.524 . S
C741 C738 1.403 . S
C741 C742 1.392 . S
C741 C745 1.495 . S
C742 C741 1.392 . S
C742 C743 1.385 . S
C742 C744 1.478 . S
C743 H737 0.930 . S
C743 C739 1.400 . S
C743 C742 1.385 . S
C744 C742 1.478 . S
C744 C746 1.381 . S
C744 C750 1.383 . S
C745 C741 1.495 . S
C745 H751 0.959 . S
C745 H752 0.961 . S
C745 H753 0.960 . S
C746 C744 1.381 . S
C746 C747 1.394 . S
C746 H754 0.930 . S
C747 C746 1.394 . S
C747 C748 1.383 . S
C747 H755 0.929 . S
C748 C747 1.383 . S
C748 C749 1.377 . S
C749 H733 0.930 . S
C749 C748 1.377 . S
C749 C750 1.379 . S
C750 H734 0.931 . S
C750 C744 1.383 . S
C750 C749 1.379 . S
H751 C745 0.959 . S
H752 C745 0.961 . S
H753 C745 0.960 . S
H754 C746 0.930 . S
H755 C747 0.929 . S
H756 C764 0.929 . S
H757 C766 0.930 . S
H758 C768 0.930 . S
H759 C771 0.929 . S
H760 C774 0.930 . S
H761 C776 0.960 . S
H762 C776 0.960 . S
H763 C776 0.960 . S
C764 H756 0.929 . S
C764 C765 1.377 . S
C764 C766 1.384 . S
C765 C764 1.377 . S
C765 C771 1.390 . S
C766 H757 0.930 . S
C766 C764 1.384 . S
C766 C767 1.372 . S
C767 C766 1.372 . S
C767 C768 1.400 . S
C767 C772 1.490 . S
C768 H758 0.930 . S
C768 C767 1.400 . S
C768 C771 1.386 . S
H769 C785 0.930 . S
H770 C786 0.931 . S
C771 H759 0.929 . S
C771 C765 1.390 . S
C771 C768 1.386 . S
C772 C767 1.490 . S
C772 C774 1.395 . S
C772 C775 1.403 . S
H773 C779 0.930 . S
C774 H760 0.930 . S
C774 C772 1.395 . S
C774 C777 1.403 . S
C775 C772 1.403 . S
C775 C776 1.524 . S
C775 C779 1.400 . S
C776 H761 0.960 . S
C776 H762 0.960 . S
C776 H763 0.960 . S
C776 C775 1.524 . S
C777 C774 1.403 . S
C777 C778 1.392 . S
C777 C781 1.495 . S
C778 C777 1.392 . S
C778 C779 1.385 . S
C778 C780 1.478 . S
C779 H773 0.930 . S
C779 C775 1.400 . S
C779 C778 1.385 . S
C780 C778 1.478 . S
C780 C782 1.381 . S
C780 C786 1.383 . S
C781 C777 1.495 . S
C781 H787 0.959 . S
C781 H788 0.961 . S
C781 H789 0.960 . S
C782 C780 1.381 . S
C782 C783 1.394 . S
C782 H790 0.930 . S
C783 C782 1.394 . S
C783 C784 1.383 . S
C783 H791 0.929 . S
C784 C783 1.383 . S
C784 C785 1.377 . S
C785 H769 0.930 . S
C785 C784 1.377 . S
C785 C786 1.379 . S
C786 H770 0.931 . S
C786 C780 1.383 . S
C786 C785 1.379 . S
H787 C781 0.959 . S
H788 C781 0.961 . S
H789 C781 0.960 . S
H790 C782 0.930 . S
H791 C783 0.929 . S
H792 C800 0.929 . S
H793 C802 0.930 . S
H794 C804 0.930 . S
H795 C807 0.929 . S
H796 C810 0.930 . S
H797 C812 0.960 . S
H798 C812 0.960 . S
H799 C812 0.960 . S
C800 H792 0.929 . S
C800 C801 1.377 . S
C800 C802 1.384 . S
C801 C800 1.377 . S
C801 C807 1.390 . S
C802 H793 0.930 . S
C802 C800 1.384 . S
C802 C803 1.372 . S
C803 C802 1.372 . S
C803 C804 1.400 . S
C803 C808 1.490 . S
C804 H794 0.930 . S
C804 C803 1.400 . S
C804 C807 1.386 . S
H805 C821 0.930 . S
H806 C822 0.931 . S
C807 H795 0.929 . S
C807 C801 1.390 . S
C807 C804 1.386 . S
C808 C803 1.490 . S
C808 C810 1.395 . S
C808 C811 1.403 . S
H809 C815 0.930 . S
C810 H796 0.930 . S
C810 C808 1.395 . S
C810 C813 1.403 . S
C811 C808 1.403 . S
C811 C812 1.524 . S
C811 C815 1.400 . S
C812 H797 0.960 . S
C812 H798 0.960 . S
C812 H799 0.960 . S
C812 C811 1.524 . S
C813 C810 1.403 . S
C813 C814 1.392 . S
C813 C817 1.495 . S
C814 C813 1.392 . S
C814 C815 1.385 . S
C814 C816 1.478 . S
C815 H809 0.930 . S
C815 C811 1.400 . S
C815 C814 1.385 . S
C816 C814 1.478 . S
C816 C818 1.381 . S
C816 C822 1.383 . S
C817 C813 1.495 . S
C817 H823 0.959 . S
C817 H824 0.961 . S
C817 H825 0.960 . S
C818 C816 1.381 . S
C818 C819 1.394 . S
C818 H826 0.930 . S
C819 C818 1.394 . S
C819 C820 1.383 . S
C819 H827 0.929 . S
C820 C819 1.383 . S
C820 C821 1.377 . S
C821 H805 0.930 . S
C821 C820 1.377 . S
C821 C822 1.379 . S
C822 H806 0.931 . S
C822 C816 1.383 . S
C822 C821 1.379 . S
H823 C817 0.959 . S
H824 C817 0.961 . S
H825 C817 0.960 . S
H826 C818 0.930 . S
H827 C819 0.929 . S
H828 C836 0.929 . S
H829 C838 0.930 . S
H830 C840 0.930 . S
H831 C843 0.929 . S
H832 C846 0.930 . S
H833 C848 0.960 . S
H834 C848 0.960 . S
H835 C848 0.960 . S
C836 H828 0.929 . S
C836 C837 1.377 . S
C836 C838 1.384 . S
C837 C836 1.377 . S
C837 C843 1.390 . S
C838 H829 0.930 . S
C838 C836 1.384 . S
C838 C839 1.372 . S
C839 C838 1.372 . S
C839 C840 1.400 . S
C839 C844 1.490 . S
C840 H830 0.930 . S
C840 C839 1.400 . S
C840 C843 1.386 . S
H841 C857 0.930 . S
H842 C858 0.931 . S
C843 H831 0.929 . S
C843 C837 1.390 . S
C843 C840 1.386 . S
C844 C839 1.490 . S
C844 C846 1.395 . S
C844 C847 1.403 . S
H845 C851 0.930 . S
C846 H832 0.930 . S
C846 C844 1.395 . S
C846 C849 1.403 . S
C847 C844 1.403 . S
C847 C848 1.524 . S
C847 C851 1.400 . S
C848 H833 0.960 . S
C848 H834 0.960 . S
C848 H835 0.960 . S
C848 C847 1.524 . S
C849 C846 1.403 . S
C849 C850 1.392 . S
C849 C853 1.495 . S
C850 C849 1.392 . S
C850 C851 1.385 . S
C850 C852 1.478 . S
C851 H845 0.930 . S
C851 C847 1.400 . S
C851 C850 1.385 . S
C852 C850 1.478 . S
C852 C854 1.381 . S
C852 C858 1.383 . S
C853 C849 1.495 . S
C853 H859 0.959 . S
C853 H860 0.961 . S
C853 H861 0.960 . S
C854 C852 1.381 . S
C854 C855 1.394 . S
C854 H862 0.930 . S
C855 C854 1.394 . S
C855 C856 1.383 . S
C855 H863 0.929 . S
C856 C855 1.383 . S
C856 C857 1.377 . S
C857 H841 0.930 . S
C857 C856 1.377 . S
C857 C858 1.379 . S
C858 H842 0.931 . S
C858 C852 1.383 . S
C858 C857 1.379 . S
H859 C853 0.959 . S
H860 C853 0.961 . S
H861 C853 0.960 . S
H862 C854 0.930 . S
H863 C855 0.929 . S
H864 C872 0.929 . S
H865 C874 0.930 . S
H866 C876 0.930 . S
H867 C879 0.929 . S
H868 C882 0.930 . S
H869 C884 0.960 . S
H870 C884 0.960 . S
H871 C884 0.960 . S
C872 H864 0.929 . S
C872 C873 1.377 . S
C872 C874 1.384 . S
C873 C872 1.377 . S
C873 C879 1.390 . S
C874 H865 0.930 . S
C874 C872 1.384 . S
C874 C875 1.372 . S
C875 C874 1.372 . S
C875 C876 1.400 . S
C875 C880 1.490 . S
C876 H866 0.930 . S
C876 C875 1.400 . S
C876 C879 1.386 . S
H877 C893 0.930 . S
H878 C894 0.931 . S
C879 H867 0.929 . S
C879 C873 1.390 . S
C879 C876 1.386 . S
C880 C875 1.490 . S
C880 C882 1.395 . S
C880 C883 1.403 . S
H881 C887 0.930 . S
C882 H868 0.930 . S
C882 C880 1.395 . S
C882 C885 1.403 . S
C883 C880 1.403 . S
C883 C884 1.524 . S
C883 C887 1.400 . S
C884 H869 0.960 . S
C884 H870 0.960 . S
C884 H871 0.960 . S
C884 C883 1.524 . S
C885 C882 1.403 . S
C885 C886 1.392 . S
C885 C889 1.495 . S
C886 C885 1.392 . S
C886 C887 1.385 . S
C886 C888 1.478 . S
C887 H881 0.930 . S
C887 C883 1.400 . S
C887 C886 1.385 . S
C888 C886 1.478 . S
C888 C890 1.381 . S
C888 C894 1.383 . S
C889 C885 1.495 . S
C889 H895 0.959 . S
C889 H896 0.961 . S
C889 H897 0.960 . S
C890 C888 1.381 . S
C890 C891 1.394 . S
C890 H898 0.930 . S
C891 C890 1.394 . S
C891 C892 1.383 . S
C891 H899 0.929 . S
C892 C891 1.383 . S
C892 C893 1.377 . S
C893 H877 0.930 . S
C893 C892 1.377 . S
C893 C894 1.379 . S
C894 H878 0.931 . S
C894 C888 1.383 . S
C894 C893 1.379 . S
H895 C889 0.959 . S
H896 C889 0.961 . S
H897 C889 0.960 . S
H898 C890 0.930 . S
H899 C891 0.929 . S
H900 C908 0.929 . S
H901 C910 0.930 . S
H902 C912 0.930 . S
H903 C915 0.929 . S
H904 C918 0.930 . S
H905 C920 0.960 . S
H906 C920 0.960 . S
H907 C920 0.960 . S
C908 H900 0.929 . S
C908 C909 1.377 . S
C908 C910 1.384 . S
C909 C908 1.377 . S
C909 C915 1.390 . S
C910 H901 0.930 . S
C910 C908 1.384 . S
C910 C911 1.372 . S
C911 C910 1.372 . S
C911 C912 1.400 . S
C911 C916 1.490 . S
C912 H902 0.930 . S
C912 C911 1.400 . S
C912 C915 1.386 . S
H913 C929 0.930 . S
H914 C930 0.931 . S
C915 H903 0.929 . S
C915 C909 1.390 . S
C915 C912 1.386 . S
C916 C911 1.490 . S
C916 C918 1.395 . S
C916 C919 1.403 . S
H917 C923 0.930 . S
C918 H904 0.930 . S
C918 C916 1.395 . S
C918 C921 1.403 . S
C919 C916 1.403 . S
C919 C920 1.524 . S
C919 C923 1.400 . S
C920 H905 0.960 . S
C920 H906 0.960 . S
C920 H907 0.960 . S
C920 C919 1.524 . S
C921 C918 1.403 . S
C921 C922 1.392 . S
C921 C925 1.495 . S
C922 C921 1.392 . S
C922 C923 1.385 . S
C922 C924 1.478 1_565 S
C923 H917 0.930 . S
C923 C919 1.400 . S
C923 C922 1.385 . S
C924 C922 1.478 1_545 S
C924 C926 1.381 . S
C924 C930 1.383 . S
C925 C921 1.495 . S
C925 H931 0.959 . S
C925 H932 0.961 . S
C925 H933 0.960 . S
C926 C924 1.381 . S
C926 C927 1.394 . S
C926 H934 0.930 . S
C927 C926 1.394 . S
C927 C928 1.383 . S
C927 H935 0.929 . S
C928 C927 1.383 . S
C928 C929 1.377 . S
C929 H913 0.930 . S
C929 C928 1.377 . S
C929 C930 1.379 . S
C930 H914 0.931 . S
C930 C924 1.383 . S
C930 C929 1.379 . S
H931 C925 0.959 . S
H932 C925 0.961 . S
H933 C925 0.960 . S
H934 C926 0.930 . S
H935 C927 0.929 . S
H936 C944 0.929 . S
H937 C946 0.930 . S
H938 C948 0.930 . S
H939 C951 0.929 . S
H940 C954 0.930 . S
H941 C956 0.960 . S
H942 C956 0.960 . S
H943 C956 0.960 1_565 S
C944 H936 0.929 . S
C944 C945 1.377 . S
C944 C946 1.384 . S
C945 C944 1.377 . S
C945 C951 1.390 . S
C946 H937 0.930 . S
C946 C944 1.384 . S
C946 C947 1.372 . S
C947 C946 1.372 . S
C947 C948 1.400 . S
C947 C952 1.490 . S
C948 H938 0.930 . S
C948 C947 1.400 . S
C948 C951 1.386 . S
H949 C965 0.930 . S
H950 C966 0.931 . S
C951 H939 0.929 . S
C951 C945 1.390 . S
C951 C948 1.386 . S
C952 C947 1.490 . S
C952 C954 1.395 . S
C952 C955 1.403 . S
H953 C959 0.930 1_545 S
C954 H940 0.930 . S
C954 C952 1.395 . S
C954 C957 1.403 . S
C955 C952 1.403 . S
C955 C956 1.524 1_565 S
C955 C959 1.400 . S
C956 H941 0.960 . S
C956 H942 0.960 . S
C956 H943 0.960 1_545 S
C956 C955 1.524 1_545 S
C957 C954 1.403 . S
C957 C958 1.392 . S
C957 C961 1.495 . S
C958 C957 1.392 . S
C958 C959 1.385 . S
C958 C960 1.478 . S
C959 H953 0.930 1_565 S
C959 C955 1.400 . S
C959 C958 1.385 . S
C960 C958 1.478 . S
C960 C962 1.381 . S
C960 C966 1.383 1_565 S
C961 C957 1.495 . S
C961 H967 0.959 . S
C961 H968 0.961 . S
C961 H969 0.960 . S
C962 C960 1.381 . S
C962 C963 1.394 1_565 S
C962 H970 0.930 . S
C963 C962 1.394 1_545 S
C963 C964 1.383 . S
C963 H971 0.929 . S
C964 C963 1.383 . S
C964 C965 1.377 . S
C965 H949 0.930 . S
C965 C964 1.377 . S
C965 C966 1.379 . S
C966 H950 0.931 . S
C966 C960 1.383 1_545 S
C966 C965 1.379 . S
H967 C961 0.959 . S
H968 C961 0.961 . S
H969 C961 0.960 . S
H970 C962 0.930 . S
H971 C963 0.929 . S
H972 C980 0.929 . S
H973 C982 0.930 . S
H974 C984 0.930 . S
H975 C987 0.929 . S
H976 C990 0.930 . S
H977 C992 0.960 . S
H978 C992 0.960 . S
H979 C992 0.960 . S
C980 H972 0.929 . S
C980 C981 1.377 . S
C980 C982 1.384 . S
C981 C980 1.377 . S
C981 C987 1.390 . S
C982 H973 0.930 . S
C982 C980 1.384 . S
C982 C983 1.372 . S
C983 C982 1.372 . S
C983 C984 1.400 . S
C983 C988 1.490 . S
C984 H974 0.930 . S
C984 C983 1.400 . S
C984 C987 1.386 . S
H985 C1001 0.930 . S
H986 C1002 0.931 . S
C987 H975 0.929 . S
C987 C981 1.390 . S
C987 C984 1.386 . S
C988 C983 1.490 . S
C988 C990 1.395 . S
C988 C991 1.403 . S
H989 C995 0.930 . S
C990 H976 0.930 . S
C990 C988 1.395 . S
C990 C993 1.403 . S
C991 C988 1.403 . S
C991 C992 1.524 . S
C991 C995 1.400 . S
C992 H977 0.960 . S
C992 H978 0.960 . S
C992 H979 0.960 . S
C992 C991 1.524 . S
C993 C990 1.403 . S
C993 C994 1.392 . S
C993 C997 1.495 . S
C994 C993 1.392 . S
C994 C995 1.385 . S
C994 C996 1.478 . S
C995 H989 0.930 . S
C995 C991 1.400 . S
C995 C994 1.385 . S
C996 C994 1.478 . S
C996 C998 1.381 . S
C996 C1002 1.383 . S
C997 C993 1.495 . S
C997 H1003 0.959 . S
C997 H1004 0.961 . S
C997 H1005 0.960 . S
C998 C996 1.381 . S
C998 C999 1.394 . S
C998 H1006 0.930 . S
C999 C998 1.394 . S
C999 C1000 1.383 . S
C999 H1007 0.929 . S
C1000 C999 1.383 . S
C1000 C1001 1.377 . S
C1001 H985 0.930 . S
C1001 C1000 1.377 . S
C1001 C1002 1.379 . S
C1002 H986 0.931 . S
C1002 C996 1.383 . S
C1002 C1001 1.379 . S
H1003 C997 0.959 . S
H1004 C997 0.961 . S
H1005 C997 0.960 . S
H1006 C998 0.930 . S
H1007 C999 0.929 . S
H1008 C1016 0.929 . S
H1009 C1018 0.930 . S
H1010 C1020 0.930 . S
H1011 C1023 0.929 . S
H1012 C1026 0.930 . S
H1013 C1028 0.960 . S
H1014 C1028 0.960 . S
H1015 C1028 0.960 . S
C1016 H1008 0.929 . S
C1016 C1017 1.377 . S
C1016 C1018 1.384 . S
C1017 C1016 1.377 . S
C1017 C1023 1.390 . S
C1018 H1009 0.930 . S
C1018 C1016 1.384 . S
C1018 C1019 1.372 . S
C1019 C1018 1.372 . S
C1019 C1020 1.400 . S
C1019 C1024 1.490 . S
C1020 H1010 0.930 . S
C1020 C1019 1.400 . S
C1020 C1023 1.386 . S
H1021 C1037 0.930 1_655 S
H1022 C1038 0.931 . S
C1023 H1011 0.929 . S
C1023 C1017 1.390 . S
C1023 C1020 1.386 . S
C1024 C1019 1.490 . S
C1024 C1026 1.395 . S
C1024 C1027 1.403 . S
H1025 C1031 0.930 . S
C1026 H1012 0.930 . S
C1026 C1024 1.395 . S
C1026 C1029 1.403 . S
C1027 C1024 1.403 . S
C1027 C1028 1.524 . S
C1027 C1031 1.400 . S
C1028 H1013 0.960 . S
C1028 H1014 0.960 . S
C1028 H1015 0.960 . S
C1028 C1027 1.524 . S
C1029 C1026 1.403 . S
C1029 C1030 1.392 . S
C1029 C1033 1.495 . S
C1030 C1029 1.392 . S
C1030 C1031 1.385 . S
C1030 C1032 1.478 . S
C1031 H1025 0.930 . S
C1031 C1027 1.400 . S
C1031 C1030 1.385 . S
C1032 C1030 1.478 . S
C1032 C1034 1.381 . S
C1032 C1038 1.383 . S
C1033 C1029 1.495 . S
C1033 H1039 0.959 . S
C1033 H1040 0.961 . S
C1033 H1041 0.960 . S
C1034 C1032 1.381 . S
C1034 C1035 1.394 . S
C1034 H1042 0.930 . S
C1035 C1034 1.394 . S
C1035 C1036 1.383 . S
C1035 H1043 0.929 . S
C1036 C1035 1.383 . S
C1036 C1037 1.377 . S
C1037 H1021 0.930 1_455 S
C1037 C1036 1.377 . S
C1037 C1038 1.379 . S
C1038 H1022 0.931 . S
C1038 C1032 1.383 . S
C1038 C1037 1.379 . S
H1039 C1033 0.959 . S
H1040 C1033 0.961 . S
H1041 C1033 0.960 . S
H1042 C1034 0.930 . S
H1043 C1035 0.929 . S
H1044 C1052 0.929 . S
H1045 C1054 0.930 . S
H1046 C1056 0.930 . S
H1047 C1059 0.929 . S
H1048 C1062 0.930 . S
H1049 C1064 0.960 . S
H1050 C1064 0.960 . S
H1051 C1064 0.960 . S
C1052 H1044 0.929 . S
C1052 C1053 1.377 . S
C1052 C1054 1.384 . S
C1053 C1052 1.377 . S
C1053 C1059 1.390 . S
C1054 H1045 0.930 . S
C1054 C1052 1.384 . S
C1054 C1055 1.372 . S
C1055 C1054 1.372 . S
C1055 C1056 1.400 . S
C1055 C1060 1.490 . S
C1056 H1046 0.930 . S
C1056 C1055 1.400 . S
C1056 C1059 1.386 . S
H1057 C1073 0.930 . S
H1058 C1074 0.931 . S
C1059 H1047 0.929 . S
C1059 C1053 1.390 . S
C1059 C1056 1.386 . S
C1060 C1055 1.490 . S
C1060 C1062 1.395 . S
C1060 C1063 1.403 . S
H1061 C1067 0.930 . S
C1062 H1048 0.930 . S
C1062 C1060 1.395 . S
C1062 C1065 1.403 . S
C1063 C1060 1.403 . S
C1063 C1064 1.524 . S
C1063 C1067 1.400 . S
C1064 H1049 0.960 . S
C1064 H1050 0.960 . S
C1064 H1051 0.960 . S
C1064 C1063 1.524 . S
C1065 C1062 1.403 . S
C1065 C1066 1.392 . S
C1065 C1069 1.495 . S
C1066 C1065 1.392 . S
C1066 C1067 1.385 . S
C1066 C1068 1.478 . S
C1067 H1061 0.930 . S
C1067 C1063 1.400 . S
C1067 C1066 1.385 . S
C1068 C1066 1.478 . S
C1068 C1070 1.381 . S
C1068 C1074 1.383 . S
C1069 C1065 1.495 . S
C1069 H1075 0.959 . S
C1069 H1076 0.961 . S
C1069 H1077 0.960 . S
C1070 C1068 1.381 . S
C1070 C1071 1.394 . S
C1070 H1078 0.930 . S
C1071 C1070 1.394 . S
C1071 C1072 1.383 . S
C1071 H1079 0.929 . S
C1072 C1071 1.383 . S
C1072 C1073 1.377 . S
C1073 H1057 0.930 . S
C1073 C1072 1.377 . S
C1073 C1074 1.379 . S
C1074 H1058 0.931 . S
C1074 C1068 1.383 . S
C1074 C1073 1.379 . S
H1075 C1069 0.959 . S
H1076 C1069 0.961 . S
H1077 C1069 0.960 . S
H1078 C1070 0.930 . S
H1079 C1071 0.929 . S
H1080 C1088 0.929 1_545 S
H1081 C1090 0.930 . S
H1082 C1092 0.930 . S
H1083 C1095 0.929 . S
H1084 C1098 0.930 . S
H1085 C1100 0.960 . S
H1086 C1100 0.960 . S
H1087 C1100 0.960 . S
C1088 H1080 0.929 1_565 S
C1088 C1089 1.377 . S
C1088 C1090 1.384 . S
C1089 C1088 1.377 . S
C1089 C1095 1.390 . S
C1090 H1081 0.930 . S
C1090 C1088 1.384 . S
C1090 C1091 1.372 . S
C1091 C1090 1.372 . S
C1091 C1092 1.400 . S
C1091 C1096 1.490 . S
C1092 H1082 0.930 . S
C1092 C1091 1.400 . S
C1092 C1095 1.386 . S
H1093 C1109 0.930 . S
H1094 C1110 0.931 . S
C1095 H1083 0.929 . S
C1095 C1089 1.390 . S
C1095 C1092 1.386 . S
C1096 C1091 1.490 . S
C1096 C1098 1.395 . S
C1096 C1099 1.403 . S
H1097 C1103 0.930 . S
C1098 H1084 0.930 . S
C1098 C1096 1.395 . S
C1098 C1101 1.403 . S
C1099 C1096 1.403 . S
C1099 C1100 1.524 . S
C1099 C1103 1.400 . S
C1100 H1085 0.960 . S
C1100 H1086 0.960 . S
C1100 H1087 0.960 . S
C1100 C1099 1.524 . S
C1101 C1098 1.403 . S
C1101 C1102 1.392 . S
C1101 C1105 1.495 . S
C1102 C1101 1.392 . S
C1102 C1103 1.385 . S
C1102 C1104 1.478 . S
C1103 H1097 0.930 . S
C1103 C1099 1.400 . S
C1103 C1102 1.385 . S
C1104 C1102 1.478 . S
C1104 C1106 1.381 . S
C1104 C1110 1.383 . S
C1105 C1101 1.495 . S
C1105 H1111 0.959 . S
C1105 H1112 0.961 . S
C1105 H1113 0.960 . S
C1106 C1104 1.381 . S
C1106 C1107 1.394 . S
C1106 H1114 0.930 . S
C1107 C1106 1.394 . S
C1107 C1108 1.383 . S
C1107 H1115 0.929 . S
C1108 C1107 1.383 . S
C1108 C1109 1.377 . S
C1109 H1093 0.930 . S
C1109 C1108 1.377 . S
C1109 C1110 1.379 . S
C1110 H1094 0.931 . S
C1110 C1104 1.383 . S
C1110 C1109 1.379 . S
H1111 C1105 0.959 . S
H1112 C1105 0.961 . S
H1113 C1105 0.960 . S
H1114 C1106 0.930 . S
H1115 C1107 0.929 . S
H1116 C1124 0.929 1_565 S
H1117 C1126 0.930 1_565 S
H1118 C1128 0.930 . S
H1119 C1131 0.929 . S
H1120 C1134 0.930 . S
H1121 C1136 0.960 . S
H1122 C1136 0.960 . S
H1123 C1136 0.960 . S
C1124 H1116 0.929 1_545 S
C1124 C1125 1.377 . S
C1124 C1126 1.384 . S
C1125 C1124 1.377 . S
C1125 C1131 1.390 . S
C1126 H1117 0.930 1_545 S
C1126 C1124 1.384 . S
C1126 C1127 1.372 . S
C1127 C1126 1.372 . S
C1127 C1128 1.400 . S
C1127 C1132 1.490 . S
C1128 H1118 0.930 . S
C1128 C1127 1.400 . S
C1128 C1131 1.386 . S
H1129 C1145 0.930 . S
H1130 C1146 0.931 . S
C1131 H1119 0.929 . S
C1131 C1125 1.390 . S
C1131 C1128 1.386 . S
C1132 C1127 1.490 . S
C1132 C1134 1.395 . S
C1132 C1135 1.403 . S
H1133 C1139 0.930 . S
C1134 H1120 0.930 . S
C1134 C1132 1.395 . S
C1134 C1137 1.403 . S
C1135 C1132 1.403 . S
C1135 C1136 1.524 . S
C1135 C1139 1.400 . S
C1136 H1121 0.960 . S
C1136 H1122 0.960 . S
C1136 H1123 0.960 . S
C1136 C1135 1.524 . S
C1137 C1134 1.403 . S
C1137 C1138 1.392 . S
C1137 C1141 1.495 . S
C1138 C1137 1.392 . S
C1138 C1139 1.385 . S
C1138 C1140 1.478 . S
C1139 H1133 0.930 . S
C1139 C1135 1.400 . S
C1139 C1138 1.385 . S
C1140 C1138 1.478 . S
C1140 C1142 1.381 . S
C1140 C1146 1.383 . S
C1141 C1137 1.495 . S
C1141 H1147 0.959 . S
C1141 H1148 0.961 . S
C1141 H1149 0.960 . S
C1142 C1140 1.381 . S
C1142 C1143 1.394 . S
C1142 H1150 0.930 . S
C1143 C1142 1.394 . S
C1143 C1144 1.383 . S
C1143 H1151 0.929 . S
C1144 C1143 1.383 . S
C1144 C1145 1.377 . S
C1145 H1129 0.930 . S
C1145 C1144 1.377 . S
C1145 C1146 1.379 . S
C1146 H1130 0.931 . S
C1146 C1140 1.383 . S
C1146 C1145 1.379 . S
H1147 C1141 0.959 . S
H1148 C1141 0.961 . S
H1149 C1141 0.960 . S
H1150 C1142 0.930 . S
H1151 C1143 0.929 . S
H1152 C1160 0.929 1_455 S
H1153 C1162 0.930 . S
H1154 C1164 0.930 . S
H1155 C1167 0.929 . S
H1156 C1170 0.930 . S
H1157 C1172 0.960 . S
H1158 C1172 0.960 . S
H1159 C1172 0.960 . S
C1160 H1152 0.929 1_655 S
C1160 C1161 1.377 . S
C1160 C1162 1.384 . S
C1161 C1160 1.377 . S
C1161 C1167 1.390 . S
C1162 H1153 0.930 . S
C1162 C1160 1.384 . S
C1162 C1163 1.372 . S
C1163 C1162 1.372 . S
C1163 C1164 1.400 . S
C1163 C1168 1.490 . S
C1164 H1154 0.930 . S
C1164 C1163 1.400 . S
C1164 C1167 1.386 . S
H1165 C1181 0.930 . S
H1166 C1182 0.931 . S
C1167 H1155 0.929 . S
C1167 C1161 1.390 . S
C1167 C1164 1.386 . S
C1168 C1163 1.490 . S
C1168 C1170 1.395 . S
C1168 C1171 1.403 . S
H1169 C1175 0.930 . S
C1170 H1156 0.930 . S
C1170 C1168 1.395 . S
C1170 C1173 1.403 . S
C1171 C1168 1.403 . S
C1171 C1172 1.524 . S
C1171 C1175 1.400 . S
C1172 H1157 0.960 . S
C1172 H1158 0.960 . S
C1172 H1159 0.960 . S
C1172 C1171 1.524 . S
C1173 C1170 1.403 . S
C1173 C1174 1.392 . S
C1173 C1177 1.495 . S
C1174 C1173 1.392 . S
C1174 C1175 1.385 . S
C1174 C1176 1.478 . S
C1175 H1169 0.930 . S
C1175 C1171 1.400 . S
C1175 C1174 1.385 . S
C1176 C1174 1.478 . S
C1176 C1178 1.381 . S
C1176 C1182 1.383 . S
C1177 C1173 1.495 . S
C1177 H1183 0.959 . S
C1177 H1184 0.961 . S
C1177 H1185 0.960 . S
C1178 C1176 1.381 . S
C1178 C1179 1.394 . S
C1178 H1186 0.930 . S
C1179 C1178 1.394 . S
C1179 C1180 1.383 . S
C1179 H1187 0.929 . S
C1180 C1179 1.383 . S
C1180 C1181 1.377 . S
C1181 H1165 0.930 . S
C1181 C1180 1.377 . S
C1181 C1182 1.379 . S
C1182 H1166 0.931 . S
C1182 C1176 1.383 . S
C1182 C1181 1.379 . S
H1183 C1177 0.959 . S
H1184 C1177 0.961 . S
H1185 C1177 0.960 . S
H1186 C1178 0.930 . S
H1187 C1179 0.929 . S
H1188 C1196 0.929 . S
H1189 C1198 0.930 . S
H1190 C1200 0.930 . S
H1191 C1203 0.929 . S
H1192 C1206 0.930 . S
H1193 C1208 0.960 . S
H1194 C1208 0.960 . S
H1195 C1208 0.960 . S
C1196 H1188 0.929 . S
C1196 C1197 1.377 . S
C1196 C1198 1.384 . S
C1197 C1196 1.377 . S
C1197 C1203 1.390 . S
C1198 H1189 0.930 . S
C1198 C1196 1.384 . S
C1198 C1199 1.372 . S
C1199 C1198 1.372 . S
C1199 C1200 1.400 . S
C1199 C1204 1.490 . S
C1200 H1190 0.930 . S
C1200 C1199 1.400 . S
C1200 C1203 1.386 . S
H1201 C1217 0.930 . S
H1202 C1218 0.931 . S
C1203 H1191 0.929 . S
C1203 C1197 1.390 . S
C1203 C1200 1.386 . S
C1204 C1199 1.490 . S
C1204 C1206 1.395 . S
C1204 C1207 1.403 . S
H1205 C1211 0.930 . S
C1206 H1192 0.930 . S
C1206 C1204 1.395 . S
C1206 C1209 1.403 . S
C1207 C1204 1.403 . S
C1207 C1208 1.524 . S
C1207 C1211 1.400 . S
C1208 H1193 0.960 . S
C1208 H1194 0.960 . S
C1208 H1195 0.960 . S
C1208 C1207 1.524 . S
C1209 C1206 1.403 . S
C1209 C1210 1.392 . S
C1209 C1213 1.495 . S
C1210 C1209 1.392 . S
C1210 C1211 1.385 . S
C1210 C1212 1.478 . S
C1211 H1205 0.930 . S
C1211 C1207 1.400 . S
C1211 C1210 1.385 . S
C1212 C1210 1.478 . S
C1212 C1214 1.381 . S
C1212 C1218 1.383 . S
C1213 C1209 1.495 . S
C1213 H1219 0.959 . S
C1213 H1220 0.961 . S
C1213 H1221 0.960 . S
C1214 C1212 1.381 . S
C1214 C1215 1.394 . S
C1214 H1222 0.930 . S
C1215 C1214 1.394 . S
C1215 C1216 1.383 . S
C1215 H1223 0.929 . S
C1216 C1215 1.383 . S
C1216 C1217 1.377 . S
C1217 H1201 0.930 . S
C1217 C1216 1.377 . S
C1217 C1218 1.379 . S
C1218 H1202 0.931 . S
C1218 C1212 1.383 . S
C1218 C1217 1.379 . S
H1219 C1213 0.959 . S
H1220 C1213 0.961 . S
H1221 C1213 0.960 . S
H1222 C1214 0.930 . S
H1223 C1215 0.929 . S
H1224 C1232 0.929 . S
H1225 C1234 0.930 . S
H1226 C1236 0.930 . S
H1227 C1239 0.929 . S
H1228 C1242 0.930 . S
H1229 C1244 0.960 . S
H1230 C1244 0.960 . S
H1231 C1244 0.960 . S
C1232 H1224 0.929 . S
C1232 C1233 1.377 . S
C1232 C1234 1.384 . S
C1233 C1232 1.377 . S
C1233 C1239 1.390 . S
C1234 H1225 0.930 . S
C1234 C1232 1.384 . S
C1234 C1235 1.372 . S
C1235 C1234 1.372 . S
C1235 C1236 1.400 . S
C1235 C1240 1.490 . S
C1236 H1226 0.930 . S
C1236 C1235 1.400 . S
C1236 C1239 1.386 . S
H1237 C1253 0.930 . S
H1238 C1254 0.931 . S
C1239 H1227 0.929 . S
C1239 C1233 1.390 . S
C1239 C1236 1.386 . S
C1240 C1235 1.490 . S
C1240 C1242 1.395 . S
C1240 C1243 1.403 . S
H1241 C1247 0.930 . S
C1242 H1228 0.930 . S
C1242 C1240 1.395 . S
C1242 C1245 1.403 . S
C1243 C1240 1.403 . S
C1243 C1244 1.524 . S
C1243 C1247 1.400 . S
C1244 H1229 0.960 . S
C1244 H1230 0.960 . S
C1244 H1231 0.960 . S
C1244 C1243 1.524 . S
C1245 C1242 1.403 . S
C1245 C1246 1.392 . S
C1245 C1249 1.495 . S
C1246 C1245 1.392 . S
C1246 C1247 1.385 . S
C1246 C1248 1.478 . S
C1247 H1241 0.930 . S
C1247 C1243 1.400 . S
C1247 C1246 1.385 . S
C1248 C1246 1.478 . S
C1248 C1250 1.381 . S
C1248 C1254 1.383 . S
C1249 C1245 1.495 . S
C1249 H1255 0.959 . S
C1249 H1256 0.961 . S
C1249 H1257 0.960 . S
C1250 C1248 1.381 . S
C1250 C1251 1.394 . S
C1250 H1258 0.930 . S
C1251 C1250 1.394 . S
C1251 C1252 1.383 . S
C1251 H1259 0.929 . S
C1252 C1251 1.383 . S
C1252 C1253 1.377 . S
C1253 H1237 0.930 . S
C1253 C1252 1.377 . S
C1253 C1254 1.379 . S
C1254 H1238 0.931 . S
C1254 C1248 1.383 . S
C1254 C1253 1.379 . S
H1255 C1249 0.959 . S
H1256 C1249 0.961 . S
H1257 C1249 0.960 . S
H1258 C1250 0.930 . S
H1259 C1251 0.929 . S
H1260 C1268 0.929 . S
H1261 C1270 0.930 . S
H1262 C1272 0.930 . S
H1263 C1275 0.929 . S
H1264 C1278 0.930 . S
H1265 C1280 0.960 . S
H1266 C1280 0.960 . S
H1267 C1280 0.960 . S
C1268 H1260 0.929 . S
C1268 C1269 1.377 . S
C1268 C1270 1.384 . S
C1269 C1268 1.377 . S
C1269 C1275 1.390 . S
C1270 H1261 0.930 . S
C1270 C1268 1.384 . S
C1270 C1271 1.372 . S
C1271 C1270 1.372 . S
C1271 C1272 1.400 . S
C1271 C1276 1.490 . S
C1272 H1262 0.930 . S
C1272 C1271 1.400 . S
C1272 C1275 1.386 . S
H1273 C1289 0.930 . S
H1274 C1290 0.931 . S
C1275 H1263 0.929 . S
C1275 C1269 1.390 . S
C1275 C1272 1.386 . S
C1276 C1271 1.490 . S
C1276 C1278 1.395 . S
C1276 C1279 1.403 1_565 S
H1277 C1283 0.930 . S
C1278 H1264 0.930 . S
C1278 C1276 1.395 . S
C1278 C1281 1.403 . S
C1279 C1276 1.403 1_545 S
C1279 C1280 1.524 . S
C1279 C1283 1.400 . S
C1280 H1265 0.960 . S
C1280 H1266 0.960 . S
C1280 H1267 0.960 . S
C1280 C1279 1.524 . S
C1281 C1278 1.403 . S
C1281 C1282 1.392 1_565 S
C1281 C1285 1.495 . S
C1282 C1281 1.392 1_545 S
C1282 C1283 1.385 . S
C1282 C1284 1.478 . S
C1283 H1277 0.930 . S
C1283 C1279 1.400 . S
C1283 C1282 1.385 . S
C1284 C1282 1.478 . S
C1284 C1286 1.381 . S
C1284 C1290 1.383 . S
C1285 C1281 1.495 . S
C1285 H1291 0.959 . S
C1285 H1292 0.961 . S
C1285 H1293 0.960 . S
C1286 C1284 1.381 . S
C1286 C1287 1.394 . S
C1286 H1294 0.930 . S
C1287 C1286 1.394 . S
C1287 C1288 1.383 . S
C1287 H1295 0.929 . S
C1288 C1287 1.383 . S
C1288 C1289 1.377 . S
C1289 H1273 0.930 . S
C1289 C1288 1.377 . S
C1289 C1290 1.379 . S
C1290 H1274 0.931 . S
C1290 C1284 1.383 . S
C1290 C1289 1.379 . S
H1291 C1285 0.959 . S
H1292 C1285 0.961 . S
H1293 C1285 0.960 . S
H1294 C1286 0.930 . S
H1295 C1287 0.929 . S
H1296 C1304 0.929 . S
H1297 C1306 0.930 . S
H1298 C1308 0.930 . S
H1299 C1311 0.929 . S
H1300 C1314 0.927 . S
H1301 C1316 0.960 . S
H1302 C1316 0.960 . S
H1303 C1316 0.960 . S
C1304 H1296 0.929 . S
C1304 C1305 1.377 . S
C1304 C1306 1.384 . S
C1305 C1304 1.377 . S
C1305 C1311 1.390 . S
C1306 H1297 0.930 . S
C1306 C1304 1.384 . S
C1306 C1307 1.372 . S
C1307 C1306 1.372 . S
C1307 C1308 1.400 . S
C1307 C1312 1.490 . S
C1308 H1298 0.930 . S
C1308 C1307 1.400 . S
C1308 C1311 1.386 . S
H1309 C1325 0.930 . S
H1310 C1326 0.931 . S
C1311 H1299 0.929 . S
C1311 C1305 1.390 . S
C1311 C1308 1.386 . S
C1312 C1307 1.490 . S
C1312 C1314 1.410 . S
C1312 C1315 1.403 . S
H1313 C1319 0.930 . S
C1314 H1300 0.927 . S
C1314 C1312 1.410 . S
C1314 C1317 1.390 1_655 S
C1315 C1312 1.403 . S
C1315 C1316 1.524 . S
C1315 C1319 1.400 1_655 S
C1316 H1301 0.960 . S
C1316 H1302 0.960 . S
C1316 H1303 0.960 . S
C1316 C1315 1.524 . S
C1317 C1314 1.390 1_455 S
C1317 C1318 1.392 . S
C1317 C1321 1.495 . S
C1318 C1317 1.392 . S
C1318 C1319 1.385 . S
C1318 C1320 1.478 . S
C1319 H1313 0.930 . S
C1319 C1315 1.400 1_455 S
C1319 C1318 1.385 . S
C1320 C1318 1.478 . S
C1320 C1322 1.381 . S
C1320 C1326 1.383 . S
C1321 C1317 1.495 . S
C1321 H1327 0.959 . S
C1321 H1328 0.961 . S
C1321 H1329 0.960 . S
C1322 C1320 1.381 . S
C1322 C1323 1.394 . S
C1322 H1330 0.930 . S
C1323 C1322 1.394 . S
C1323 C1324 1.383 . S
C1323 H1331 0.929 . S
C1324 C1323 1.383 . S
C1324 C1325 1.377 . S
C1325 H1309 0.930 . S
C1325 C1324 1.377 . S
C1325 C1326 1.379 . S
C1326 H1310 0.931 . S
C1326 C1320 1.383 . S
C1326 C1325 1.379 . S
H1327 C1321 0.959 . S
H1328 C1321 0.961 . S
H1329 C1321 0.960 . S
H1330 C1322 0.930 . S
H1331 C1323 0.929 . S
C369 C66 0.356 . S
C388 C17 0.566 . S
C405 C104 3.235 . S
C424 C53 3.253 . S
C441 C97 0.899 . S
C460 C24 0.886 . S
C477 C93 2.924 . S
C496 C64 2.907 . S
C513 C106 1.796 . S
C532 C13 1.803 . S
C549 C26 0.626 . S
C568 C57 0.741 . S
C585 C137 2.707 . S
C604 C184 2.737 . S
C621 C224 0.630 . S
C640 C177 0.603 . S
C657 C217 0.774 . S
C676 C144 0.769 . S
C693 C186 0.262 . S
C712 C213 0.173 . S
C729 C226 1.896 . S
C748 C133 1.880 . S
C765 C173 2.224 . S
C784 C146 2.225 . S
C801 C306 0.368 . S
C820 C257 0.579 . S
C837 C293 3.296 . S
C856 C344 3.261 . S
C873 C337 0.915 . S
C892 C264 0.901 . S
C909 C333 2.861 . S
C928 C304 2.835 . S
C945 C346 1.808 1_455 S
C964 C253 1.815 . S
C981 C266 0.595 . S
C1000 C297 0.691 . S
C1017 C223 2.358 . S
C1036 C2 2.570 . S
C1053 C143 2.074 . S
C1072 C63 2.075 . S
C1089 C82 2.926 . S
C1108 C183 2.762 . S
C1125 C103 2.368 . S
C1144 C242 2.582 . S
C1161 C23 2.042 . S
C1180 C303 2.010 . S
C1197 C322 2.921 . S
C1216 C42 2.937 . S
C1233 C122 2.626 . S
C1252 C343 2.376 . S
C1269 C162 2.190 . S
C1288 C263 2.028 . S
C1305 C282 2.893 . S
C1324 C202 2.883 . S
