# Generated by pormake.
# Topology unc, (4)-cn, num edge types: 1
# Building blocks:
#     Node 0, Type 0, BuildingBlock: QUQFOY_clean_sbu_3, # of connection points: 4
#     Node 1, Type 0, BuildingBlock: QUQFOY_clean_sbu_3, # of connection points: 4
#     Node 2, Type 0, BuildingBlock: QUQFOY_clean_sbu_3, # of connection points: 4
#     Node 3, Type 0, BuildingBlock: QUQFOY_clean_sbu_3, # of connection points: 4
#     Edge 4, Type (0, 0), BuildingBlock: TEMPAE_clean_linker_10, # of connection points: 2
#     Edge 5, Type (0, 0), BuildingBlock: TEMPAE_clean_linker_10, # of connection points: 2
#     Edge 6, Type (0, 0), BuildingBlock: TEMPAE_clean_linker_10, # of connection points: 2
#     Edge 7, Type (0, 0), BuildingBlock: TEMPAE_clean_linker_10, # of connection points: 2
#     Edge 8, Type (0, 0), BuildingBlock: TEMPAE_clean_linker_10, # of connection points: 2
#     Edge 9, Type (0, 0), BuildingBlock: TEMPAE_clean_linker_10, # of connection points: 2
#     Edge 10, Type (0, 0), BuildingBlock: TEMPAE_clean_linker_10, # of connection points: 2
#     Edge 11, Type (0, 0), BuildingBlock: TEMPAE_clean_linker_10, # of connection points: 2
# Relax obj value: 0.006
# Max RMSD: 0.046
# Mean RMSD: 0.046
data_MOF--net-unc--node1-QUQFOY_clean_sbu_3--edge1-TEMPAE_clean_linker_10
_symmetry_space_group_name_H-M    P1
_symmetry_Int_Tables_number       1
_symmetry_cell_setting            triclinic
loop_
_symmetry_equiv_pos_as_xyz
'x, y, z'
_cell_length_a     31.485745
_cell_length_b     31.466327
_cell_length_c     23.521852
_cell_angle_alpha  89.9898
_cell_angle_beta   90.15526
_cell_angle_gamma 95.2793
loop_
_atom_site_label
_atom_site_type_symbol
_atom_site_fract_x
_atom_site_fract_y
_atom_site_fract_z
_atom_type_partial_charge
C0 C 0.0486 0.61755 0.86551 0.0
O1 O 0.08495 0.62637 0.88825 0.0
Cd2 Cd 0.09297 0.66316 0.97787 0.0
O3 O 0.01535 0.63177 0.88614 0.0
Cd4 Cd -0.00601 0.67939 0.96192 0.0
C5 C 0.01561 0.60296 0.05462 0.0
O6 O 0.05894 0.7273 0.96909 0.0
O7 O 0.01462 0.72923 0.03873 0.0
O8 O 0.95427 0.71854 0.8943 0.0
C9 C 0.04914 0.74422 0.01562 0.0
O10 O 0.05487 0.61558 0.04733 0.0
C11 C 0.91928 0.71436 0.92135 0.0
O12 O -0.01355 0.61884 0.02618 0.0
O13 O 0.91856 0.69249 0.96684 0.0
C14 C 0.38551 0.95237 0.37944 0.0
O15 O 0.38383 0.91809 0.35074 0.0
Cd16 Cd 0.34819 0.90945 0.26101 0.0
O17 O 0.36668 0.98415 0.36222 0.0
Cd18 Cd 0.32197 0.00435 0.28161 0.0
C19 C 0.40334 -0.00705 0.19102 0.0
O20 O 0.27938 0.93613 0.26932 0.0
O21 O 0.2732 0.98362 0.20422 0.0
O22 O 0.27762 0.04022 0.34719 0.0
C23 C 0.26106 0.94715 0.22423 0.0
O24 O 0.39622 0.9529 0.19883 0.0
C25 C 0.28183 0.07604 0.32196 0.0
O26 O 0.38169 0.01928 0.21657 0.0
O27 O 0.30576 0.07884 0.27848 0.0
C28 C 0.94835 0.38765 0.36311 0.0
O29 O 0.91407 0.38591 0.39163 0.0
Cd30 Cd 0.90551 0.35059 0.48147 0.0
O31 O 0.9802 0.36902 0.38056 0.0
Cd32 Cd 0.00052 0.32468 0.46142 0.0
C33 C -0.01126 0.40637 0.55163 0.0
O34 O 0.9325 0.28184 0.47379 0.0
O35 O 0.98006 0.27628 0.53908 0.0
O36 O 0.03651 0.28009 0.39625 0.0
C37 C 0.94362 0.26387 0.51906 0.0
O38 O 0.94873 0.39907 0.54366 0.0
C39 C 0.07233 0.2846 0.42153 0.0
O40 O 0.01517 0.38472 0.52629 0.0
O41 O 0.07507 0.30879 0.46487 0.0
C42 C 0.61435 0.0535 0.87821 0.0
O43 O 0.62339 0.0898 0.85552 0.0
Cd44 Cd 0.66054 0.0974 0.76625 0.0
O45 O 0.62855 0.02012 0.85783 0.0
Cd46 Cd 0.67642 -0.0017 0.78278 0.0
C47 C 0.6005 0.01982 0.68916 0.0
O48 O 0.72449 0.06315 0.77563 0.0
O49 O 0.72646 0.01839 0.70632 0.0
O50 O 0.71529 0.9587 0.8509 0.0
C51 C 0.74145 0.05305 0.72928 0.0
O52 O 0.61315 0.05911 0.69647 0.0
C53 C 0.71095 0.92355 0.82403 0.0
O54 O 0.61619 -0.00931 0.71785 0.0
O55 O 0.68913 0.92271 0.77842 0.0
C56 C 0.02821 0.56677 0.14635 0.0
C57 C 0.00383 0.5694 0.09684 0.0
C58 C 0.017 0.53562 0.18757 0.0
C59 C 0.98135 0.5056 0.17804 0.0
C60 C 0.95716 0.50754 0.12746 0.0
C61 C 0.9683 0.53994 0.08778 0.0
C62 C 0.04289 0.53528 0.24171 0.0
C63 C 0.91974 0.47529 0.11515 0.0
C64 C 0.98131 0.40611 0.26888 0.0
C65 C 0.95292 0.41494 0.31215 0.0
C66 C -0.01088 0.43431 0.22311 0.0
C67 C 0.96911 0.4728 0.22181 0.0
C68 C 0.9396 0.48131 0.26469 0.0
C69 C 0.93139 0.45191 0.30897 0.0
C70 C 0.01978 0.42357 0.17717 0.0
C71 C 0.91845 0.52249 0.26553 0.0
H72 H 0.05552 0.58977 0.15348 0.0
H73 H 0.94971 0.54177 0.04913 0.0
H74 H 0.02188 0.53829 0.27903 0.0
H75 H 0.05715 0.50449 0.24592 0.0
H76 H 0.06894 0.56159 0.24313 0.0
H77 H 0.90542 0.48015 0.0727 0.0
H78 H 0.93004 0.44252 0.11708 0.0
H79 H 0.89477 0.47735 0.14793 0.0
H80 H -0.00225 0.37736 0.27116 0.0
H81 H 0.90972 0.45897 0.3427 0.0
H82 H 0.04922 0.44574 0.17969 0.0
H83 H 0.00548 0.42764 0.13456 0.0
H84 H 0.02879 0.39037 0.18098 0.0
H85 H 0.94306 0.5498 0.27097 0.0
H86 H 0.89486 0.52333 0.30045 0.0
H87 H 0.90204 0.52716 0.22455 0.0
C88 C 0.44988 0.93552 0.43353 0.0
C89 C 0.41288 0.957 0.43041 0.0
C90 C 0.47928 0.94374 0.47791 0.0
C91 C 0.47075 0.9732 0.52095 0.0
C92 C 0.43226 -0.00684 0.51967 0.0
C93 C 0.40404 0.98533 0.47382 0.0
C94 C 0.52048 0.92264 0.47704 0.0
C95 C 0.4215 0.02376 0.56576 0.0
C96 C 0.53771 0.97234 0.65532 0.0
C97 C 0.56709 0.00796 0.64662 0.0
C98 C 0.50543 0.96115 0.61537 0.0
C99 C 0.50351 0.9854 0.5649 0.0
C100 C 0.53347 0.02112 0.55572 0.0
C101 C 0.56451 0.03237 0.59718 0.0
C102 C 0.47325 0.92363 0.62729 0.0
C103 C 0.53315 0.04709 0.50171 0.0
H104 H 0.45695 0.91389 0.39969 0.0
H105 H 0.37526 0.00172 0.47159 0.0
H106 H 0.54773 0.94731 0.47182 0.0
H107 H 0.52518 0.90617 0.51794 0.0
H108 H 0.52134 0.89909 0.44198 0.0
H109 H 0.38833 0.0328 0.56187 0.0
H110 H 0.42553 0.00938 0.60829 0.0
H111 H 0.44367 0.05322 0.56352 0.0
H112 H 0.53949 0.95372 0.6939 0.0
H113 H 0.58745 0.05975 0.59033 0.0
H114 H 0.47533 0.89874 0.59432 0.0
H115 H 0.44048 0.93389 0.62537 0.0
H116 H 0.47814 0.90919 0.66964 0.0
H117 H 0.5362 0.02611 0.46429 0.0
H118 H 0.55943 0.07317 0.50054 0.0
H119 H 0.50238 0.06134 0.49744 0.0
C120 C 0.0101 0.55603 0.81626 0.0
C121 C 0.04402 0.58804 0.81703 0.0
C122 C 0.00516 0.52682 0.77136 0.0
C123 C 0.03393 0.53084 0.7251 0.0
C124 C 0.06806 0.56348 0.72539 0.0
C125 C 0.07322 0.59129 0.77213 0.0
C126 C 0.96913 0.49165 0.77351 0.0
C127 C 0.09839 0.56961 0.67586 0.0
C128 C 0.03571 0.43278 0.6318 0.0
C129 C 0.00423 0.44008 0.59178 0.0
C130 C 0.04689 0.46278 0.67469 0.0
C131 C 0.02709 0.50142 0.67598 0.0
C132 C -0.00271 0.50997 0.63325 0.0
C133 C -0.01443 0.47876 0.59226 0.0
C134 C 0.07778 0.45195 0.72052 0.0
C135 C 0.97655 0.55137 0.6321 0.0
H136 H -0.01212 0.55332 0.85152 0.0
H137 H 0.09933 0.61629 0.77289 0.0
H138 H 0.94619 0.49583 0.73854 0.0
H139 H 0.98171 0.46016 0.76737 0.0
H140 H 0.95159 0.49115 0.81446 0.0
H141 H 0.12339 0.59638 0.68288 0.0
H142 H 0.11411 0.54003 0.66819 0.0
H143 H 0.08035 0.57614 0.6367 0.0
H144 H 0.04987 0.40264 0.6314 0.0
H145 H 0.96152 0.48444 0.56076 0.0
H146 H 0.06063 0.44771 0.76159 0.0
H147 H 0.10324 0.47839 0.72621 0.0
H148 H 0.09285 0.42221 0.71091 0.0
H149 H 0.95394 0.55217 0.66809 0.0
H150 H 0.95872 0.55542 0.59193 0.0
H151 H 0.00093 0.5789 0.63722 0.0
C152 C 0.47547 -0.01021 0.14995 0.0
C153 C 0.4369 0.00861 0.15093 0.0
C154 C 0.50656 0.00172 0.10905 0.0
C155 C 0.498 0.03192 0.06691 0.0
C156 C 0.45949 0.05189 0.06872 0.0
C157 C 0.4296 0.04046 0.11151 0.0
C158 C 0.54782 0.98075 0.10964 0.0
C159 C 0.44867 0.08324 0.02352 0.0
C160 C 0.58804 0.0781 0.97157 0.0
C161 C 0.58461 0.0491 0.9263 0.0
C162 C 0.56014 0.07294 0.01809 0.0
C163 C 0.52728 0.03901 0.01781 0.0
C164 C 0.52302 0.01054 0.97111 0.0
C165 C 0.5523 0.01547 0.92643 0.0
C166 C 0.5665 0.10294 0.06807 0.0
C167 C 0.48761 0.97476 0.96835 0.0
H168 H 0.48116 0.96545 0.181 0.0
H169 H 0.39956 0.05476 0.11229 0.0
H170 H 0.54841 0.95845 0.0732 0.0
H171 H 0.57542 0.00507 0.10493 0.0
H172 H 0.5519 0.96252 0.14944 0.0
H173 H 0.41912 0.09845 0.0336 0.0
H174 H 0.47522 0.10859 0.01811 0.0
H175 H 0.44412 0.06642 0.98217 0.0
H176 H 0.61326 0.104 0.97128 0.0
H177 H 0.54946 -0.00658 0.89089 0.0
H178 H 0.57327 0.08462 0.10687 0.0
H179 H 0.53697 0.11859 0.07626 0.0
H180 H 0.5932 0.12803 0.06127 0.0
H181 H 0.49173 0.95144 0.00283 0.0
H182 H 0.48685 0.95759 0.92705 0.0
H183 H 0.45628 -0.01246 0.97487 0.0
C184 C 0.22205 0.8751 0.21019 0.0
C185 C 0.22861 0.91821 0.19473 0.0
C186 C 0.19221 0.84711 0.18121 0.0
C187 C 0.16808 0.86281 0.13624 0.0
C188 C 0.17405 0.90646 0.1211 0.0
C189 C 0.20446 0.93361 0.15034 0.0
C190 C 0.18692 0.80063 0.19815 0.0
C191 C 0.14852 0.92443 0.07382 0.0
C192 C 0.12109 0.78399 0.02593 0.0
C193 C 0.079 0.77586 0.0451 0.0
C194 C 0.1504 0.81232 0.05517 0.0
C195 C 0.13712 0.83336 0.10432 0.0
C196 C 0.09445 0.82593 0.12324 0.0
C197 C 0.06593 0.79705 0.09354 0.0
C198 C 0.19576 0.81924 0.034 0.0
C199 C 0.07904 0.84825 0.17506 0.0
H200 H 0.24074 0.86304 0.24438 0.0
H201 H 0.20925 0.96699 0.13845 0.0
H202 H 0.15334 0.79128 0.21027 0.0
H203 H 0.19436 0.78044 0.16148 0.0
H204 H 0.20793 0.79359 0.23431 0.0
H205 H 0.15605 0.95939 0.06857 0.0
H206 H 0.15501 0.90854 0.03307 0.0
H207 H 0.1139 0.91793 0.08246 0.0
H208 H 0.1314 0.76757 -0.01139 0.0
H209 H 0.03336 0.791 0.10836 0.0
H210 H 0.21803 0.80994 0.06745 0.0
H211 H 0.20414 0.85356 0.02474 0.0
H212 H 0.2009 0.80056 -0.00505 0.0
H213 H 0.09726 0.83953 0.21309 0.0
H214 H 0.04453 0.83993 0.18315 0.0
H215 H 0.08477 0.88335 0.16977 0.0
C216 C 0.22783 0.10578 0.38424 0.0
C217 C 0.25763 0.11176 0.34014 0.0
C218 C 0.20117 0.13753 0.398 0.0
C219 C 0.20462 0.17632 0.36716 0.0
C220 C 0.23605 0.18341 0.32445 0.0
C221 C 0.26213 0.15092 0.31127 0.0
C222 C 0.16799 0.12875 0.44383 0.0
C223 C 0.24098 0.22459 0.29117 0.0
C224 C 0.10227 0.23048 0.35952 0.0
C225 C 0.10814 0.26049 0.40355 0.0
C226 C 0.13416 0.20397 0.34588 0.0
C227 C 0.17297 0.20776 0.37676 0.0
C228 C 0.17992 0.23936 0.41943 0.0
C229 C 0.1473 0.26529 0.4325 0.0
C230 C 0.12552 0.1706 0.30009 0.0
C231 C 0.22112 0.24464 0.45275 0.0
H232 H 0.22427 0.07566 0.40688 0.0
H233 H 0.28529 0.15584 0.27734 0.0
H234 H 0.17045 0.15489 0.47563 0.0
H235 H 0.13564 0.12752 0.42472 0.0
H236 H 0.17123 0.0981 0.46618 0.0
H237 H 0.26982 0.22694 0.26384 0.0
H238 H 0.21258 0.22678 0.26368 0.0
H239 H 0.24293 0.25238 0.3204 0.0
H240 H 0.07215 0.22669 0.33683 0.0
H241 H 0.15212 0.2886 0.46637 0.0
H242 H 0.12461 0.13829 0.31922 0.0
H243 H 0.15156 0.17319 0.26826 0.0
H244 H 0.09478 0.17352 0.27777 0.0
H245 H 0.22356 0.2163 0.48022 0.0
H246 H 0.2233 0.27354 0.48011 0.0
H247 H 0.24884 0.24674 0.42354 0.0
C248 C 0.79432 0.06933 0.65156 0.0
C249 C 0.77306 0.08275 0.69972 0.0
C250 C 0.82311 0.09769 0.62168 0.0
C251 C 0.83038 0.14056 0.64011 0.0
C252 C 0.80929 0.1542 0.68899 0.0
C253 C 0.78105 0.12503 0.71844 0.0
C254 C 0.84549 0.0819 0.57016 0.0
C255 C 0.81605 0.19978 0.70963 0.0
C256 C 0.93033 0.20786 0.59361 0.0
C257 C 0.91483 0.23155 0.54884 0.0
C258 C 0.90331 0.17763 0.62315 0.0
C259 C 0.85969 0.17136 0.60792 0.0
C260 C 0.84388 0.19502 0.56257 0.0
C261 C 0.87174 0.2247 0.5333 0.0
C262 C 0.92139 0.1526 0.67084 0.0
C263 C 0.79743 0.1894 0.54551 0.0
H264 H 0.78837 0.03661 0.6371 0.0
H265 H 0.76459 0.13562 0.75553 0.0
H266 H 0.83667 0.09973 0.53186 0.0
H267 H 0.88055 0.08785 0.57553 0.0
H268 H 0.83733 0.04727 0.5625 0.0
H269 H 0.79738 0.20519 0.74856 0.0
H270 H 0.85032 0.20838 0.7189 0.0
H271 H 0.80662 0.22173 0.67588 0.0
H272 H 0.96369 0.21288 0.60557 0.0
H273 H 0.85961 0.24303 0.49882 0.0
H274 H 0.91503 0.11787 0.66263 0.0
H275 H 0.90548 0.15941 0.71143 0.0
H276 H 0.95631 0.16032 0.67615 0.0
H277 H 0.78821 0.15566 0.53377 0.0
H278 H 0.79029 0.21007 0.50905 0.0
H279 H 0.77723 0.19709 0.582 0.0
C280 C 0.76313 0.8914 0.88706 0.0
C281 C 0.73337 0.88661 0.84256 0.0
C282 C 0.78902 0.85887 0.90041 0.0
C283 C 0.78468 0.82036 0.86893 0.0
C284 C 0.7529 0.81427 0.82628 0.0
C285 C 0.72776 0.84765 0.81329 0.0
C286 C 0.82267 0.86672 0.94606 0.0
C287 C 0.74678 0.77332 0.79261 0.0
C288 C 0.88708 0.76666 0.85858 0.0
C289 C 0.8824 0.73701 0.90313 0.0
C290 C 0.85464 0.79269 0.84542 0.0
C291 C 0.81633 0.78863 0.87714 0.0
C292 C 0.81034 0.75699 0.91989 0.0
C293 C 0.84363 0.7317 0.93269 0.0
C294 C 0.86237 0.82618 0.79965 0.0
C295 C 0.7696 0.75118 0.95383 0.0
H296 H 0.76756 0.92136 0.91002 0.0
H297 H 0.70457 0.84362 0.77912 0.0
H298 H 0.82022 0.84023 0.97733 0.0
H299 H 0.85482 0.8678 0.92659 0.0
H300 H 0.82002 0.89717 0.9691 0.0
H301 H 0.71707 0.77128 0.76679 0.0
H302 H 0.77422 0.77132 0.76355 0.0
H303 H 0.74573 0.7453 0.82139 0.0
H304 H 0.91688 0.77086 0.83541 0.0
H305 H 0.83969 0.7086 0.96691 0.0
H306 H 0.86358 0.85844 0.81902 0.0
H307 H 0.83578 0.82365 0.76847 0.0
H308 H 0.89271 0.82339 0.77653 0.0
H309 H 0.76786 0.77879 0.98278 0.0
H310 H 0.7676 0.72157 0.97979 0.0
H311 H 0.74145 0.75009 0.92522 0.0
loop_
_geom_bond_atom_site_label_1
_geom_bond_atom_site_label_2
_geom_bond_distance
_geom_bond_site_symmetry_2
_ccdc_geom_bond_type
C0 O1 1.306 . S
C0 O3 1.160 1_455 S
O1 C0 1.306 . S
O1 Cd2 2.228 1_556 S
Cd2 O1 2.228 1_554 S
Cd2 O6 2.273 . S
Cd2 O10 2.277 . S
O3 C0 1.160 1_655 S
O3 Cd4 2.203 1_556 S
Cd4 O3 2.203 1_554 S
Cd4 O6 2.411 1_655 S
Cd4 O7 2.333 1_655 S
Cd4 O8 2.352 1_554 S
Cd4 O12 2.277 . S
Cd4 O13 2.356 . S
C5 O10 1.209 . S
C5 O12 1.226 1_455 S
O6 Cd2 2.273 . S
O6 Cd4 2.411 1_455 S
O6 C9 1.320 . S
O7 Cd4 2.333 1_455 S
O7 C9 1.214 . S
O8 Cd4 2.352 1_556 S
O8 C11 1.258 . S
C9 O6 1.320 . S
C9 O7 1.214 . S
O10 Cd2 2.277 . S
O10 C5 1.209 . S
C11 O8 1.258 . S
C11 O13 1.282 1_556 S
O12 Cd4 2.277 . S
O12 C5 1.226 1_655 S
O13 Cd4 2.356 . S
O13 C11 1.282 1_554 S
C14 O15 1.306 1_545 S
C14 O17 1.160 . S
O15 C14 1.306 1_565 S
O15 Cd16 2.228 . S
Cd16 O15 2.228 . S
Cd16 O20 2.273 . S
Cd16 O24 2.277 . S
O17 C14 1.160 . S
O17 Cd18 2.203 . S
Cd18 O17 2.203 . S
Cd18 O20 2.411 1_545 S
Cd18 O21 2.333 1_545 S
Cd18 O22 2.352 . S
Cd18 O26 2.277 . S
Cd18 O27 2.356 . S
C19 O24 1.209 1_545 S
C19 O26 1.226 . S
O20 Cd16 2.273 . S
O20 Cd18 2.411 1_565 S
O20 C23 1.320 . S
O21 Cd18 2.333 1_565 S
O21 C23 1.214 . S
O22 Cd18 2.352 . S
O22 C25 1.258 . S
C23 O20 1.320 . S
C23 O21 1.214 . S
O24 Cd16 2.277 . S
O24 C19 1.209 1_565 S
C25 O22 1.258 . S
C25 O27 1.282 . S
O26 Cd18 2.277 . S
O26 C19 1.226 . S
O27 Cd18 2.356 . S
O27 C25 1.282 . S
C28 O29 1.306 1_455 S
C28 O31 1.160 . S
O29 C28 1.306 1_655 S
O29 Cd30 2.228 . S
Cd30 O29 2.228 . S
Cd30 O34 2.273 . S
Cd30 O38 2.277 . S
O31 C28 1.160 . S
O31 Cd32 2.203 . S
Cd32 O31 2.203 . S
Cd32 O34 2.411 1_455 S
Cd32 O35 2.333 1_455 S
Cd32 O36 2.352 . S
Cd32 O40 2.277 . S
Cd32 O41 2.356 . S
C33 O38 1.209 1_455 S
C33 O40 1.226 . S
O34 Cd30 2.273 . S
O34 Cd32 2.411 1_655 S
O34 C37 1.320 . S
O35 Cd32 2.333 1_655 S
O35 C37 1.214 . S
O36 Cd32 2.352 . S
O36 C39 1.258 . S
C37 O34 1.320 . S
C37 O35 1.214 . S
O38 Cd30 2.277 . S
O38 C33 1.209 1_655 S
C39 O36 1.258 . S
C39 O41 1.282 . S
O40 Cd32 2.277 . S
O40 C33 1.226 . S
O41 Cd32 2.356 . S
O41 C39 1.282 . S
C42 O43 1.306 . S
C42 O45 1.160 1_545 S
O43 C42 1.306 . S
O43 Cd44 2.228 . S
Cd44 O43 2.228 . S
Cd44 O48 2.273 . S
Cd44 O52 2.277 . S
O45 C42 1.160 1_565 S
O45 Cd46 2.203 . S
Cd46 O45 2.203 . S
Cd46 O48 2.411 1_565 S
Cd46 O49 2.333 1_565 S
Cd46 O50 2.352 . S
Cd46 O54 2.277 . S
Cd46 O55 2.356 . S
C47 O52 1.209 . S
C47 O54 1.226 1_545 S
O48 Cd44 2.273 . S
O48 Cd46 2.411 1_545 S
O48 C51 1.320 . S
O49 Cd46 2.333 1_545 S
O49 C51 1.214 . S
O50 Cd46 2.352 . S
O50 C53 1.258 . S
C51 O48 1.320 . S
C51 O49 1.214 . S
O52 Cd44 2.277 . S
O52 C47 1.209 . S
C53 O50 1.258 . S
C53 O55 1.282 . S
O54 Cd46 2.277 . S
O54 C47 1.226 1_565 S
O55 Cd46 2.356 . S
O55 C53 1.282 . S
C56 C57 1.391 . S
C56 C58 1.394 . S
C56 H72 0.931 . S
C57 C56 1.391 . S
C57 C61 1.376 1_455 S
C58 C56 1.394 . S
C58 C59 1.369 . S
C58 C62 1.531 . S
C59 C58 1.369 . S
C59 C60 1.410 1_455 S
C59 C67 1.503 . S
C60 C59 1.410 1_655 S
C60 C61 1.392 . S
C60 C63 1.511 . S
C61 C57 1.376 1_655 S
C61 C60 1.392 . S
C61 H73 0.929 . S
C62 C58 1.531 . S
C62 H74 0.960 . S
C62 H75 0.962 . S
C62 H76 0.960 . S
C63 C60 1.511 . S
C63 H77 0.961 . S
C63 H78 0.961 . S
C63 H79 0.961 . S
C64 C65 1.370 . S
C64 C66 1.363 . S
C64 H80 0.931 . S
C65 C64 1.370 . S
C65 C69 1.408 1_455 S
C66 C64 1.363 . S
C66 C67 1.370 . S
C66 C70 1.524 . S
C67 C59 1.503 . S
C67 C66 1.370 . S
C67 C68 1.403 1_455 S
C68 C67 1.403 1_655 S
C68 C69 1.404 . S
C68 C71 1.539 . S
C69 C65 1.408 1_655 S
C69 C68 1.404 . S
C69 H81 0.930 . S
C70 C66 1.524 . S
C70 H82 0.956 . S
C70 H83 0.961 . S
C70 H84 0.961 . S
C71 C68 1.539 . S
C71 H85 0.958 . S
C71 H86 0.961 . S
C71 H87 0.960 . S
H72 C56 0.931 . S
H73 C61 0.929 . S
H74 C62 0.960 . S
H75 C62 0.962 . S
H76 C62 0.960 . S
H77 C63 0.961 . S
H78 C63 0.961 . S
H79 C63 0.961 . S
H80 C64 0.931 . S
H81 C69 0.930 . S
H82 C70 0.956 . S
H83 C70 0.961 . S
H84 C70 0.961 . S
H85 C71 0.958 . S
H86 C71 0.961 . S
H87 C71 0.960 . S
C88 C89 1.391 . S
C88 C90 1.394 . S
C88 H104 0.931 . S
C89 C88 1.391 . S
C89 C93 1.376 . S
C90 C88 1.394 . S
C90 C91 1.369 . S
C90 C94 1.531 . S
C91 C90 1.369 . S
C91 C92 1.410 . S
C91 C99 1.503 . S
C92 C91 1.410 . S
C92 C93 1.392 . S
C92 C95 1.511 . S
C93 C89 1.376 . S
C93 C92 1.392 . S
C93 H105 0.929 . S
C94 C90 1.531 . S
C94 H106 0.960 . S
C94 H107 0.962 1_545 S
C94 H108 0.960 . S
C95 C92 1.511 . S
C95 H109 0.961 . S
C95 H110 0.961 . S
C95 H111 0.961 . S
C96 C97 1.370 1_565 S
C96 C98 1.363 . S
C96 H112 0.931 . S
C97 C96 1.370 1_545 S
C97 C101 1.408 . S
C98 C96 1.363 . S
C98 C99 1.370 1_565 S
C98 C102 1.524 . S
C99 C91 1.503 . S
C99 C98 1.370 1_545 S
C99 C100 1.403 . S
C100 C99 1.403 . S
C100 C101 1.404 . S
C100 C103 1.539 . S
C101 C97 1.408 . S
C101 C100 1.404 . S
C101 H113 0.930 . S
C102 C98 1.524 . S
C102 H114 0.956 . S
C102 H115 0.961 . S
C102 H116 0.961 . S
C103 C100 1.539 . S
C103 H117 0.958 . S
C103 H118 0.961 . S
C103 H119 0.960 . S
H104 C88 0.931 . S
H105 C93 0.929 . S
H106 C94 0.960 . S
H107 C94 0.962 1_565 S
H108 C94 0.960 . S
H109 C95 0.961 . S
H110 C95 0.961 . S
H111 C95 0.961 . S
H112 C96 0.931 . S
H113 C101 0.930 . S
H114 C102 0.956 . S
H115 C102 0.961 . S
H116 C102 0.961 . S
H117 C103 0.958 . S
H118 C103 0.961 . S
H119 C103 0.960 . S
C120 C121 1.391 1_655 S
C120 C122 1.394 . S
C120 H136 0.931 . S
C121 C120 1.391 1_455 S
C121 C125 1.376 . S
C122 C120 1.394 . S
C122 C123 1.369 1_655 S
C122 C126 1.531 . S
C123 C122 1.369 1_455 S
C123 C124 1.410 . S
C123 C131 1.503 . S
C124 C123 1.410 . S
C124 C125 1.392 . S
C124 C127 1.511 . S
C125 C121 1.376 . S
C125 C124 1.392 . S
C125 H137 0.929 . S
C126 C122 1.531 . S
C126 H138 0.960 . S
C126 H139 0.962 . S
C126 H140 0.960 . S
C127 C124 1.511 . S
C127 H141 0.961 . S
C127 H142 0.961 . S
C127 H143 0.961 . S
C128 C129 1.370 . S
C128 C130 1.363 . S
C128 H144 0.931 . S
C129 C128 1.370 . S
C129 C133 1.408 . S
C130 C128 1.363 . S
C130 C131 1.370 . S
C130 C134 1.524 . S
C131 C123 1.503 . S
C131 C130 1.370 . S
C131 C132 1.403 . S
C132 C131 1.403 . S
C132 C133 1.404 . S
C132 C135 1.539 1_455 S
C133 C129 1.408 . S
C133 C132 1.404 . S
C133 H145 0.928 1_455 S
C134 C130 1.524 . S
C134 H146 0.956 . S
C134 H147 0.961 . S
C134 H148 0.961 . S
C135 C132 1.539 1_655 S
C135 H149 0.958 . S
C135 H150 0.961 1_655 S
C135 H151 0.960 1_655 S
H136 C120 0.931 . S
H137 C125 0.929 . S
H138 C126 0.960 . S
H139 C126 0.962 . S
H140 C126 0.960 . S
H141 C127 0.961 . S
H142 C127 0.961 . S
H143 C127 0.961 . S
H144 C128 0.931 . S
H145 C133 0.928 1_655 S
H146 C134 0.956 . S
H147 C134 0.961 . S
H148 C134 0.961 . S
H149 C135 0.958 . S
H150 C135 0.961 1_455 S
H151 C135 0.960 1_455 S
C152 C153 1.391 1_565 S
C152 C154 1.394 . S
C152 H168 0.931 . S
C153 C152 1.391 1_545 S
C153 C157 1.376 . S
C154 C152 1.394 . S
C154 C155 1.369 1_565 S
C154 C158 1.531 . S
C155 C154 1.369 1_545 S
C155 C156 1.410 . S
C155 C163 1.503 1_554 S
C156 C155 1.410 . S
C156 C157 1.392 . S
C156 C159 1.511 1_554 S
C157 C153 1.376 . S
C157 C156 1.392 . S
C157 H169 0.929 . S
C158 C154 1.531 . S
C158 H170 0.960 . S
C158 H171 0.962 . S
C158 H172 0.960 . S
C159 C156 1.511 1_556 S
C159 H173 0.961 . S
C159 H174 0.961 . S
C159 H175 0.961 . S
C160 C161 1.370 . S
C160 C162 1.363 . S
C160 H176 0.931 . S
C161 C160 1.370 . S
C161 C165 1.408 1_545 S
C162 C160 1.363 . S
C162 C163 1.370 . S
C162 C166 1.524 1_556 S
C163 C155 1.503 1_556 S
C163 C162 1.370 . S
C163 C164 1.403 1_545 S
C164 C163 1.403 1_565 S
C164 C165 1.404 . S
C164 C167 1.539 . S
C165 C161 1.408 1_565 S
C165 C164 1.404 . S
C165 H177 0.930 . S
C166 C162 1.524 1_554 S
C166 H178 0.956 . S
C166 H179 0.961 . S
C166 H180 0.961 . S
C167 C164 1.539 . S
C167 H181 0.958 . S
C167 H182 0.961 . S
C167 H183 0.960 . S
H168 C152 0.931 . S
H169 C157 0.929 . S
H170 C158 0.960 . S
H171 C158 0.962 . S
H172 C158 0.960 . S
H173 C159 0.961 . S
H174 C159 0.961 . S
H175 C159 0.961 . S
H176 C160 0.931 . S
H177 C165 0.930 . S
H178 C166 0.956 . S
H179 C166 0.961 . S
H180 C166 0.961 . S
H181 C167 0.958 . S
H182 C167 0.961 . S
H183 C167 0.960 . S
C184 C185 1.391 . S
C184 C186 1.394 . S
C184 H200 0.931 . S
C185 C184 1.391 . S
C185 C189 1.376 . S
C186 C184 1.394 . S
C186 C187 1.369 . S
C186 C190 1.531 . S
C187 C186 1.369 . S
C187 C188 1.410 . S
C187 C195 1.503 . S
C188 C187 1.410 . S
C188 C189 1.392 . S
C188 C191 1.511 . S
C189 C185 1.376 . S
C189 C188 1.392 . S
C189 H201 0.929 . S
C190 C186 1.531 . S
C190 H202 0.960 . S
C190 H203 0.962 . S
C190 H204 0.960 . S
C191 C188 1.511 . S
C191 H205 0.961 . S
C191 H206 0.961 . S
C191 H207 0.961 . S
C192 C193 1.370 . S
C192 C194 1.363 . S
C192 H208 0.931 . S
C193 C192 1.370 . S
C193 C197 1.408 . S
C194 C192 1.363 . S
C194 C195 1.370 . S
C194 C198 1.524 . S
C195 C187 1.503 . S
C195 C194 1.370 . S
C195 C196 1.403 . S
C196 C195 1.403 . S
C196 C197 1.404 . S
C196 C199 1.539 . S
C197 C193 1.408 . S
C197 C196 1.404 . S
C197 H209 0.930 . S
C198 C194 1.524 . S
C198 H210 0.956 . S
C198 H211 0.961 . S
C198 H212 0.961 . S
C199 C196 1.539 . S
C199 H213 0.958 . S
C199 H214 0.961 . S
C199 H215 0.960 . S
H200 C184 0.931 . S
H201 C189 0.929 . S
H202 C190 0.960 . S
H203 C190 0.962 . S
H204 C190 0.960 . S
H205 C191 0.961 . S
H206 C191 0.961 . S
H207 C191 0.961 . S
H208 C192 0.931 . S
H209 C197 0.930 . S
H210 C198 0.956 . S
H211 C198 0.961 . S
H212 C198 0.961 . S
H213 C199 0.958 . S
H214 C199 0.961 . S
H215 C199 0.960 . S
C216 C217 1.391 . S
C216 C218 1.394 . S
C216 H232 0.931 . S
C217 C216 1.391 . S
C217 C221 1.376 . S
C218 C216 1.394 . S
C218 C219 1.369 . S
C218 C222 1.531 . S
C219 C218 1.369 . S
C219 C220 1.410 . S
C219 C227 1.503 . S
C220 C219 1.410 . S
C220 C221 1.392 . S
C220 C223 1.511 . S
C221 C217 1.376 . S
C221 C220 1.392 . S
C221 H233 0.929 . S
C222 C218 1.531 . S
C222 H234 0.960 . S
C222 H235 0.962 . S
C222 H236 0.960 . S
C223 C220 1.511 . S
C223 H237 0.961 . S
C223 H238 0.961 . S
C223 H239 0.961 . S
C224 C225 1.370 . S
C224 C226 1.363 . S
C224 H240 0.931 . S
C225 C224 1.370 . S
C225 C229 1.408 . S
C226 C224 1.363 . S
C226 C227 1.370 . S
C226 C230 1.524 . S
C227 C219 1.503 . S
C227 C226 1.370 . S
C227 C228 1.403 . S
C228 C227 1.403 . S
C228 C229 1.404 . S
C228 C231 1.539 . S
C229 C225 1.408 . S
C229 C228 1.404 . S
C229 H241 0.930 . S
C230 C226 1.524 . S
C230 H242 0.956 . S
C230 H243 0.961 . S
C230 H244 0.961 . S
C231 C228 1.539 . S
C231 H245 0.958 . S
C231 H246 0.961 . S
C231 H247 0.960 . S
H232 C216 0.931 . S
H233 C221 0.929 . S
H234 C222 0.960 . S
H235 C222 0.962 . S
H236 C222 0.960 . S
H237 C223 0.961 . S
H238 C223 0.961 . S
H239 C223 0.961 . S
H240 C224 0.931 . S
H241 C229 0.930 . S
H242 C230 0.956 . S
H243 C230 0.961 . S
H244 C230 0.961 . S
H245 C231 0.958 . S
H246 C231 0.961 . S
H247 C231 0.960 . S
C248 C249 1.391 . S
C248 C250 1.394 . S
C248 H264 0.931 . S
C249 C248 1.391 . S
C249 C253 1.376 . S
C250 C248 1.394 . S
C250 C251 1.369 . S
C250 C254 1.531 . S
C251 C250 1.369 . S
C251 C252 1.410 . S
C251 C259 1.503 . S
C252 C251 1.410 . S
C252 C253 1.392 . S
C252 C255 1.511 . S
C253 C249 1.376 . S
C253 C252 1.392 . S
C253 H265 0.929 . S
C254 C250 1.531 . S
C254 H266 0.960 . S
C254 H267 0.962 . S
C254 H268 0.960 . S
C255 C252 1.511 . S
C255 H269 0.961 . S
C255 H270 0.961 . S
C255 H271 0.961 . S
C256 C257 1.370 . S
C256 C258 1.363 . S
C256 H272 0.931 . S
C257 C256 1.370 . S
C257 C261 1.408 . S
C258 C256 1.363 . S
C258 C259 1.370 . S
C258 C262 1.524 . S
C259 C251 1.503 . S
C259 C258 1.370 . S
C259 C260 1.403 . S
C260 C259 1.403 . S
C260 C261 1.404 . S
C260 C263 1.539 . S
C261 C257 1.408 . S
C261 C260 1.404 . S
C261 H273 0.930 . S
C262 C258 1.524 . S
C262 H274 0.956 . S
C262 H275 0.961 . S
C262 H276 0.961 . S
C263 C260 1.539 . S
C263 H277 0.958 . S
C263 H278 0.961 . S
C263 H279 0.960 . S
H264 C248 0.931 . S
H265 C253 0.929 . S
H266 C254 0.960 . S
H267 C254 0.962 . S
H268 C254 0.960 . S
H269 C255 0.961 . S
H270 C255 0.961 . S
H271 C255 0.961 . S
H272 C256 0.931 . S
H273 C261 0.930 . S
H274 C262 0.956 . S
H275 C262 0.961 . S
H276 C262 0.961 . S
H277 C263 0.958 . S
H278 C263 0.961 . S
H279 C263 0.960 . S
C280 C281 1.391 . S
C280 C282 1.394 . S
C280 H296 0.931 . S
C281 C280 1.391 . S
C281 C285 1.376 . S
C282 C280 1.394 . S
C282 C283 1.369 . S
C282 C286 1.531 . S
C283 C282 1.369 . S
C283 C284 1.410 . S
C283 C291 1.503 . S
C284 C283 1.410 . S
C284 C285 1.392 . S
C284 C287 1.511 . S
C285 C281 1.376 . S
C285 C284 1.392 . S
C285 H297 0.929 . S
C286 C282 1.531 . S
C286 H298 0.960 . S
C286 H299 0.962 . S
C286 H300 0.960 . S
C287 C284 1.511 . S
C287 H301 0.961 . S
C287 H302 0.961 . S
C287 H303 0.961 . S
C288 C289 1.370 . S
C288 C290 1.363 . S
C288 H304 0.931 . S
C289 C288 1.370 . S
C289 C293 1.408 . S
C290 C288 1.363 . S
C290 C291 1.370 . S
C290 C294 1.524 . S
C291 C283 1.503 . S
C291 C290 1.370 . S
C291 C292 1.403 . S
C292 C291 1.403 . S
C292 C293 1.404 . S
C292 C295 1.539 1_556 S
C293 C289 1.408 . S
C293 C292 1.404 . S
C293 H305 0.930 1_556 S
C294 C290 1.524 . S
C294 H306 0.956 . S
C294 H307 0.961 . S
C294 H308 0.961 . S
C295 C292 1.539 1_554 S
C295 H309 0.957 1_554 S
C295 H310 0.961 . S
C295 H311 0.960 1_554 S
H296 C280 0.931 . S
H297 C285 0.929 . S
H298 C286 0.960 . S
H299 C286 0.962 . S
H300 C286 0.960 . S
H301 C287 0.961 . S
H302 C287 0.961 . S
H303 C287 0.961 . S
H304 C288 0.931 . S
H305 C293 0.930 1_554 S
H306 C294 0.956 . S
H307 C294 0.961 . S
H308 C294 0.961 . S
H309 C295 0.957 1_556 S
H310 C295 0.961 . S
H311 C295 0.960 1_556 S
C57 C5 1.409 . S
C65 C28 1.400 . S
C89 C14 1.408 . S
C97 C47 1.406 . S
C121 C0 1.411 . S
C129 C33 1.407 . S
C153 C19 1.401 . S
C161 C42 1.405 . S
C185 C23 1.484 . S
C193 C9 1.477 . S
C217 C25 1.481 . S
C225 C39 1.480 . S
C249 C51 1.472 . S
C257 C37 1.480 . S
C281 C53 1.480 . S
C289 C11 1.480 . S
