# Generated by pormake.
# Topology sma, (6)-cn, num edge types: 1
# Building blocks:
#     Node 0, Type 0, BuildingBlock: GEDQOX_clean_sbu_0, # of connection points: 6
#     Node 1, Type 0, BuildingBlock: GEDQOX_clean_sbu_0, # of connection points: 6
#     Node 2, Type 0, BuildingBlock: GEDQOX_clean_sbu_0, # of connection points: 6
#     Edge 3, Type (0, 0), BuildingBlock: FUNLAD_clean_linker_1, # of connection points: 2
#     Edge 4, Type (0, 0), BuildingBlock: FUNLAD_clean_linker_1, # of connection points: 2
#     Edge 5, Type (0, 0), BuildingBlock: FUNLAD_clean_linker_1, # of connection points: 2
#     Edge 6, Type (0, 0), BuildingBlock: FUNLAD_clean_linker_1, # of connection points: 2
#     Edge 7, Type (0, 0), BuildingBlock: FUNLAD_clean_linker_1, # of connection points: 2
#     Edge 8, Type (0, 0), BuildingBlock: FUNLAD_clean_linker_1, # of connection points: 2
#     Edge 9, Type (0, 0), BuildingBlock: FUNLAD_clean_linker_1, # of connection points: 2
#     Edge 10, Type (0, 0), BuildingBlock: FUNLAD_clean_linker_1, # of connection points: 2
#     Edge 11, Type (0, 0), BuildingBlock: FUNLAD_clean_linker_1, # of connection points: 2
# Relax obj value: 0.125
# Max RMSD: 0.258
# Mean RMSD: 0.204
data_MOF--net-sma--node1-GEDQOX_clean_sbu_0--edge1-FUNLAD_clean_linker_1
_symmetry_space_group_name_H-M    P1
_symmetry_Int_Tables_number       1
_symmetry_cell_setting            triclinic
loop_
_symmetry_equiv_pos_as_xyz
'x, y, z'
_cell_length_a     42.294
_cell_length_b     32.918447
_cell_length_c     14.181085
_cell_angle_alpha  96.068973
_cell_angle_beta   90.994854
_cell_angle_gamma 98.112193
loop_
_atom_site_label
_atom_site_type_symbol
_atom_site_fract_x
_atom_site_fract_y
_atom_site_fract_z
_atom_type_partial_charge
Nd0 Nd 0.06813 0.60296 0.05102 0.0
Nd1 Nd 0.04147 0.50945 0.07972 0.0
C2 C 0.10333 0.67223 0.01583 0.0
C3 C 0.13438 0.69485 0.05736 0.0
C4 C 0.16358 0.68738 0.01783 0.0
C5 C 0.19272 0.70757 0.0594 0.0
C6 C 0.19358 0.73587 0.14137 0.0
C7 C 0.1643 0.74328 0.18093 0.0
C8 C 0.13519 0.72326 0.13915 0.0
C9 C 0.06289 0.58323 0.23176 0.0
C10 C 0.11734 0.53214 0.04608 0.0
C11 C 1.01256 0.44617 0.1613 0.0
C12 C 0.98079 0.42232 0.17609 0.0
C13 C 0.96793 0.42429 0.26698 0.0
C14 C 0.93965 0.3989 0.2849 0.0
C15 C 0.9235 0.37071 0.21203 0.0
C16 C 0.9361 0.3695 0.12077 0.0
C17 C 0.96433 0.39491 0.1029 0.0
C18 C 0.05052 0.52473 0.89914 0.0
C19 C 0.99089 0.57631 0.03443 0.0
O20 O 0.1041 0.63686 0.96441 0.0
O21 O 0.07873 0.67127 0.0709 0.0
O22 O 0.05788 0.61891 0.20919 0.0
O23 O 0.07205 0.56161 0.16322 0.0
O24 O 0.11082 0.56763 0.02016 0.0
O25 O 0.09572 0.50613 0.08473 0.0
O26 O 1.01892 0.48374 0.2049 0.0
O27 O 1.02449 0.44245 0.07644 0.0
O28 O 0.0515 0.48806 0.92526 0.0
O29 O 0.04074 0.54884 0.96286 0.0
O30 O 0.99544 0.5413 0.06882 0.0
O31 O 1.01512 0.6034 0.01149 0.0
H32 H 0.16399 0.66568 0.95503 0.0
H33 H 0.21473 0.70101 0.02706 0.0
H34 H 0.16343 0.76399 0.24489 0.0
H35 H 0.11325 0.72976 0.17196 0.0
H36 H 0.98023 0.44477 0.32517 0.0
H37 H 0.93135 0.40083 0.35662 0.0
H38 H 0.92436 0.3482 0.06308 0.0
H39 H 0.97358 0.39232 0.03211 0.0
Nd40 Nd 0.52635 1.03802 0.5972 0.0
Nd41 Nd 0.60105 0.05972 0.57935 0.0
C42 C 0.46394 1.02662 0.62077 0.0
C43 C 0.43631 0.99767 0.5757 0.0
C44 C 0.43439 0.95458 0.57454 0.0
C45 C 0.40853 0.92802 0.52831 0.0
C46 C 0.38401 0.94398 0.48157 0.0
C47 C 0.38612 0.98708 0.48334 0.0
C48 C 0.41183 1.01351 0.52971 0.0
C49 C 0.54939 1.0245 0.42042 0.0
C50 C 0.56935 0.96212 0.60611 0.0
C51 C 0.66016 0.07194 0.51916 0.0
C52 C 0.68384 0.10711 0.49678 0.0
C53 C 0.69655 0.10688 0.40592 0.0
C54 C 0.71951 0.13925 0.38376 0.0
C55 C 0.73052 0.17264 0.45259 0.0
C56 C 0.71725 0.17305 0.54293 0.0
C57 C 0.69423 0.14077 0.56489 0.0
C58 C 0.57775 0.07527 0.75448 0.0
C59 C 0.56053 0.13665 0.59468 0.0
O60 O 0.48422 1.01193 0.6745 0.0
O61 O 0.47804 0.05318 0.56695 0.0
O62 O 0.52478 1.00184 0.44965 0.0
O63 O 0.55887 0.05466 0.48039 0.0
O64 O 0.5413 0.97454 0.62519 0.0
O65 O 0.59399 0.98798 0.58017 0.0
O66 O 0.63503 0.06182 0.46165 0.0
O67 O 0.65337 0.06952 0.60848 0.0
O68 O 0.60361 0.09678 0.72779 0.0
O69 O 0.56827 0.04462 0.69585 0.0
O70 O 0.58599 0.12244 0.55875 0.0
O71 O 0.5364 0.1113 0.62621 0.0
H72 H 0.45294 0.94129 0.60893 0.0
H73 H 0.408 0.89521 0.5302 0.0
H74 H 0.36776 1.00051 0.44837 0.0
H75 H 0.4127 0.04653 0.529 0.0
H76 H 0.68879 0.08145 0.35186 0.0
H77 H 0.72835 0.13762 0.31268 0.0
H78 H 0.72498 0.1983 0.59744 0.0
H79 H 0.68477 0.14214 0.63544 0.0
Nd80 Nd 0.51086 0.54344 0.7237 0.0
Nd81 Nd 0.58498 0.55695 0.73002 0.0
C82 C 0.44749 0.53544 0.70383 0.0
C83 C 0.41745 0.54414 0.7506 0.0
C84 C 0.39809 0.56965 0.71086 0.0
C85 C 0.36773 0.57367 0.74588 0.0
C86 C 0.35563 0.55188 0.82079 0.0
C87 C 0.37552 0.52746 0.863 0.0
C88 C 0.40595 0.52357 0.82818 0.0
C89 C 0.54029 0.5593 0.90023 0.0
C90 C 0.54874 0.63755 0.70048 0.0
C91 C 0.64536 0.5605 0.78657 0.0
C92 C 0.67936 0.56246 0.81876 0.0
C93 C 0.68694 0.55156 0.90872 0.0
C94 C 0.71881 0.5517 0.93787 0.0
C95 C 0.74414 0.56287 0.87836 0.0
C96 C 0.73653 0.57411 0.78824 0.0
C97 C 0.70456 0.5739 0.75903 0.0
C98 C 0.5584 0.54657 0.5537 0.0
C99 C 0.54491 0.46002 0.70576 0.0
O100 O 0.46655 0.56562 0.67226 0.0
O101 O 0.46301 0.50852 0.73857 0.0
O102 O 0.51467 0.53326 0.88015 0.0
O103 O 0.54853 0.57741 0.82984 0.0
O104 O 0.52216 0.61068 0.68467 0.0
O105 O 0.57592 0.62579 0.7295 0.0
O106 O 0.62136 0.55096 0.84139 0.0
O107 O 0.63707 0.56875 0.70199 0.0
O108 O 0.58653 0.56745 0.57404 0.0
O109 O 0.5475 0.52732 0.62055 0.0
O110 O 0.57212 0.48427 0.73467 0.0
O111 O 0.5195 0.47647 0.68241 0.0
H112 H 0.40606 0.58565 0.6507 0.0
H113 H 0.35325 0.59308 0.71235 0.0
H114 H 0.36778 0.51107 0.92262 0.0
H115 H 0.42014 0.50361 0.86092 0.0
H116 H 0.66819 0.54242 0.95652 0.0
H117 H 0.72366 0.54275 0.00746 0.0
H118 H 0.75491 0.58246 0.73899 0.0
H119 H 0.69959 0.58229 0.68902 0.0
H120 H 0.1569 0.49482 0.05949 0.0
C121 C 0.15023 0.52204 0.03165 0.0
H122 H 0.1651 0.57364 0.95817 0.0
H123 H 0.31254 0.59616 0.02146 0.0
H124 H 0.29888 0.65418 0.12453 0.0
H125 H 0.24271 0.6601 0.15947 0.0
H126 H 0.1998 0.60809 0.09136 0.0
C127 C 0.17172 0.54603 -0.0157 0.0
C128 C 0.20571 0.53919 0.9708 0.0
C129 C 0.23071 0.56998 0.01049 0.0
C130 C 0.26321 0.56674 -0.01038 0.0
C131 C 0.28748 0.59752 0.03263 0.0
C132 C 0.27998 0.6309 0.0926 0.0
C133 C 0.24836 0.63424 0.11227 0.0
C134 C 0.22394 0.60421 0.07226 0.0
H135 H 0.31103 0.58042 0.82751 0.0
C136 C 0.32235 0.5556 0.85208 0.0
H137 H 0.31443 0.50238 0.92518 0.0
H138 H 0.16399 0.47579 0.87749 0.0
H139 H 0.17763 0.41773 0.77498 0.0
H140 H 0.23384 0.41134 0.74154 0.0
H141 H 0.27678 0.46327 0.80987 0.0
C142 C 0.30494 0.52919 0.90461 0.0
C143 C 0.27086 0.53286 0.92797 0.0
C144 C 0.24589 0.50163 0.8898 0.0
C145 C 0.21335 0.50497 0.91035 0.0
C146 C 0.18906 0.47435 0.86688 0.0
C147 C 0.19654 0.4409 0.80721 0.0
C148 C 0.22819 0.43733 0.78833 0.0
C149 C 0.25264 0.46731 0.82844 0.0
H150 H 0.76095 0.23304 0.49019 0.0
C151 C 0.75588 0.20733 0.43471 0.0
H152 H 0.76996 0.18374 0.29901 0.0
H153 H 0.83529 0.35628 0.18693 0.0
H154 H 0.78652 0.34645 0.08985 0.0
H155 H 0.74351 0.28927 0.10885 0.0
H156 H 0.74891 0.2417 0.22571 0.0
C157 C 0.77396 0.20815 0.35723 0.0
C158 C 0.80007 0.243 0.34692 0.0
C159 C 0.79691 0.27014 0.27709 0.0
C160 C 0.82203 0.30276 0.26493 0.0
C161 C 0.8175 0.33027 0.19723 0.0
C162 C 0.78949 0.32518 0.14146 0.0
C163 C 0.76525 0.29301 0.15225 0.0
C164 C 0.76871 0.26584 0.2194 0.0
H165 H 0.88703 0.31604 0.17136 0.0
C166 C 0.89465 0.34054 0.22817 0.0
H167 H 0.88421 0.36458 0.36714 0.0
H168 H 0.81519 0.19497 0.48294 0.0
H169 H 0.86385 0.20481 0.58004 0.0
H170 H 0.90702 0.2617 0.56042 0.0
H171 H 0.90182 0.30899 0.44306 0.0
C172 C 0.87764 0.34115 0.30786 0.0
C173 C 0.85068 0.30773 0.32128 0.0
C174 C 0.85372 0.28078 0.39171 0.0
C175 C 0.82858 0.24822 0.40398 0.0
C176 C 0.83301 0.22086 0.47218 0.0
C177 C 0.86098 0.22597 0.5281 0.0
C178 C 0.88529 0.25798 0.51698 0.0
C179 C 0.88192 0.28501 0.44946 0.0
H180 H 0.59843 0.91067 0.59874 0.0
C181 C 0.57475 0.91814 0.61474 0.0
H182 H 0.52863 0.89407 0.65435 0.0
H183 H 0.5334 0.70481 0.52538 0.0
H184 H 0.5002 0.72203 0.39962 0.0
H185 H 0.49297 0.79424 0.38639 0.0
H186 H 0.51951 0.84983 0.49821 0.0
C187 C 0.55272 0.88752 0.64121 0.0
C188 C 0.55904 0.84319 0.64734 0.0
C189 C 0.54256 0.81019 0.58421 0.0
C190 C 0.54609 0.76791 0.59364 0.0
C191 C 0.53072 0.73685 0.52476 0.0
C192 C 0.51174 0.7464 0.45135 0.0
C193 C 0.50771 0.78706 0.4438 0.0
C194 C 0.52297 0.81866 0.50888 0.0
H195 H 0.52155 0.68954 0.68744 0.0
C196 C 0.54576 0.68211 0.68998 0.0
H197 H 0.59437 0.70609 0.68351 0.0
H198 H 0.59576 0.89677 0.77791 0.0
H199 H 0.62776 0.87998 0.90766 0.0
H200 H 0.63134 0.80752 0.93026 0.0
H201 H 0.60307 0.75146 0.82335 0.0
C202 C 0.57003 0.71299 0.68 0.0
C203 C 0.56525 0.75764 0.66912 0.0
C204 C 0.58177 0.79078 0.73217 0.0
C205 C 0.5791 0.83308 0.72048 0.0
C206 C 0.59631 0.86458 0.7846 0.0
C207 C 0.61493 0.8553 0.85913 0.0
C208 C 0.617 0.81451 0.87171 0.0
C209 C 0.60074 0.78258 0.8093 0.0
H210 H 0.78046 0.54723 -0.0217 0.0
C211 C 0.77767 0.56101 0.91279 0.0
H212 H 0.80332 0.58871 0.80323 0.0
H213 H 0.91648 0.60492 0.14378 0.0
H214 H 0.88571 0.65191 0.23199 0.0
H215 H 0.83302 0.66306 0.17092 0.0
H216 H 0.81055 0.62682 0.02179 0.0
C217 C 0.80458 0.57513 0.86928 0.0
C218 C 0.83721 0.57002 0.90572 0.0
C219 C 0.85059 0.59245 -0.00829 0.0
C220 C 0.88165 0.58719 0.02533 0.0
C221 C 0.8936 0.60867 0.11335 0.0
C222 C 0.8761 0.63562 0.16504 0.0
C223 C 0.84639 0.6418 0.13077 0.0
C224 C 0.83368 0.62061 0.04521 0.0
H225 H 0.95492 0.61364 -0.01105 0.0
C226 C 0.95794 0.58363 0.01028 0.0
H227 H 0.93534 0.52313 0.02268 0.0
H228 H 0.81928 0.52253 0.7383 0.0
H229 H 0.85066 0.47689 0.64789 0.0
H230 H 0.90472 0.46904 0.70396 0.0
H231 H 0.92806 0.50721 0.85018 0.0
C232 C 0.9323 0.55398 0.007 0.0
C233 C 0.89988 0.56047 0.97167 0.0
C234 C 0.88666 0.53848 0.88511 0.0
C235 C 0.85543 0.54325 0.85225 0.0
C236 C 0.84292 0.52047 0.7661 0.0
C237 C 0.86065 0.49409 0.7135 0.0
C238 C 0.89112 0.4897 0.74503 0.0
C239 C 0.90415 0.51164 0.82947 0.0
H240 H 0.33668 0.93335 0.40627 0.0
C241 C 0.35553 0.91757 0.43188 0.0
H242 H 0.36892 0.85832 0.44146 0.0
H243 H 0.22673 0.76596 0.41604 0.0
H244 H 0.24071 0.76356 0.58186 0.0
H245 H 0.29133 0.80172 0.65325 0.0
H246 H 0.3284 0.84236 0.55936 0.0
C247 C 0.35131 0.87596 0.41654 0.0
C248 C 0.32095 0.85224 0.37158 0.0
C249 C 0.29948 0.82848 0.42716 0.0
C250 C 0.27002 0.80687 0.38618 0.0
C251 C 0.24918 0.78339 0.44373 0.0
C252 C 0.25695 0.78164 0.53895 0.0
C253 C 0.28547 0.80308 0.57913 0.0
C254 C 0.30656 0.82626 0.52432 0.0
H255 H 0.2466 0.74461 0.1561 0.0
C256 C 0.22539 0.75641 0.18329 0.0
H257 H 0.20929 0.80232 0.27974 0.0
H258 H 0.35813 0.89041 0.24169 0.0
H259 H 0.3438 0.89396 0.07667 0.0
H260 H 0.29152 0.85998 0.00806 0.0
H261 H 0.25349 0.82171 0.10329 0.0
C262 C 0.22955 0.78935 0.25002 0.0
C263 C 0.26187 0.80898 0.28946 0.0
C264 C 0.28357 0.83227 0.23338 0.0
C265 C 0.31331 0.85329 0.27403 0.0
C266 C 0.33489 0.87498 0.21535 0.0
C267 C 0.32703 0.87711 0.12038 0.0
C268 C 0.29763 0.85787 0.08167 0.0
C269 C 0.27605 0.83578 0.13715 0.0
H270 H 0.51735 0.39775 0.67387 0.0
C271 C 0.54133 0.41347 0.69276 0.0
H272 H 0.58873 0.40413 0.7208 0.0
H273 H 0.56075 0.21925 0.81935 0.0
H274 H 0.57981 0.25609 0.97116 0.0
H275 H 0.5889 0.33218 -0.00599 0.0
H276 H 0.57898 0.3721 0.86529 0.0
C277 C 0.56466 0.38948 0.69964 0.0
C278 C 0.55804 0.34231 0.68485 0.0
C279 C 0.56373 0.31882 0.76059 0.0
C280 C 0.55817 0.27448 0.74763 0.0
C281 C 0.56429 0.25263 0.82517 0.0
C282 C 0.57529 0.2734 0.91277 0.0
C283 C 0.58043 0.31626 0.92559 0.0
C284 C 0.57472 0.33882 0.85087 0.0
H285 H 0.58178 0.19962 0.56892 0.0
C286 C 0.56144 0.18285 0.60086 0.0
H287 H 0.52119 0.1902 0.68343 0.0
H288 H 0.54741 0.37527 0.52007 0.0
H289 H 0.5275 0.33817 0.3694 0.0
H290 H 0.51595 0.26216 0.34947 0.0
H291 H 0.52448 0.22258 0.48028 0.0
C292 C 0.54095 0.20563 0.64669 0.0
C293 C 0.547 0.25272 0.65863 0.0
C294 C 0.54134 0.27605 0.58264 0.0
C295 C 0.54713 0.32047 0.59523 0.0
C296 C 0.54236 0.34202 0.51614 0.0
C297 C 0.53117 0.32104 0.42882 0.0
C298 C 0.52473 0.27821 0.41752 0.0
C299 C 0.52978 0.25585 0.49313 0.0
H300 H 0.05726 0.56905 0.796 0.0
C301 C 0.05671 0.53654 0.80537 0.0
H302 H 0.05629 0.47603 0.73654 0.0
H303 H 0.9942 0.57539 0.42419 0.0
H304 H 0.94606 0.53489 0.47489 0.0
H305 H 0.94901 0.48874 0.60007 0.0
H306 H 1.00005 0.48287 0.67552 0.0
C307 C 0.05853 0.50896 0.73067 0.0
C308 C 0.05833 0.52443 0.63757 0.0
C309 C 1.02847 0.5266 0.59337 0.0
C310 C 1.02683 0.55272 0.52103 0.0
C311 C 0.99669 0.55538 0.47892 0.0
C312 C 0.96894 0.53251 0.50766 0.0
C313 C 0.97058 0.50662 0.57838 0.0
C314 C 0.99994 0.50364 0.62123 0.0
H315 H 0.06319 0.53713 0.33002 0.0
C316 C 0.05967 0.56893 0.32437 0.0
H317 H 0.0517 0.62558 0.39982 0.0
H318 H 0.11924 0.52326 0.70334 0.0
H319 H 0.16762 0.56284 0.65117 0.0
H320 H 0.16483 0.6091 0.52594 0.0
H321 H 0.11371 0.61616 0.45261 0.0
C322 C 0.05462 0.59341 0.40173 0.0
C323 C 0.05518 0.57545 0.49192 0.0
C324 C 0.08513 0.57268 0.53502 0.0
C325 C 0.08674 0.54657 0.60737 0.0
C326 C 0.11687 0.54338 0.64874 0.0
C327 C 0.14473 0.5657 0.61913 0.0
C328 C 0.14316 0.59167 0.5485 0.0
C329 C 0.11375 0.59528 0.50669 0.0
H330 H 0.58009 1.03718 0.30216 0.0
C331 C 0.55574 1.02647 0.32103 0.0
H332 H 0.50678 1.01821 0.27809 0.0
H333 H 0.56988 0.15861 0.02045 0.0
H334 H 0.5493 0.20256 0.14706 0.0
H335 H 0.52371 0.17277 0.28432 0.0
H336 H 0.51812 0.09883 0.29514 0.0
C337 C 0.53155 1.025 0.25842 0.0
C338 C 0.53886 1.04089 0.1673 0.0
C339 C 0.54136 0.08392 0.16172 0.0
C340 C 0.55615 0.10105 0.08322 0.0
C341 C 0.55871 0.14414 0.07895 0.0
C342 C 0.54709 0.16963 0.15111 0.0
C343 C 0.5327 0.15286 0.22845 0.0
C344 C 0.52977 0.11049 0.23405 0.0
H345 H 0.53827 0.06729 0.84941 0.0
C346 C 0.56304 0.08135 0.84553 0.0
H347 H 0.60637 0.10246 0.92298 0.0
H348 H 0.53262 0.95679 0.15239 0.0
H349 H 0.55321 0.91237 0.02679 0.0
H350 H 0.58261 0.94242 0.89611 0.0
H351 H 0.59113 1.01609 0.88835 0.0
C352 C 0.58097 0.09137 0.92501 0.0
C353 C 0.56824 0.0749 0.01148 0.0
C354 C 0.56515 1.03163 0.01667 0.0
C355 C 0.54946 1.01453 0.09356 0.0
C356 C 0.54518 0.9712 0.09592 0.0
C357 C 0.55674 0.94546 0.02441 0.0
C358 C 0.57316 0.9623 0.95055 0.0
C359 C 0.57761 1.00479 0.9466 0.0
H360 H 0.56077 0.52943 0.40304 0.0
C361 C 0.54503 0.53903 0.45847 0.0
H362 H 0.50435 0.56829 0.49039 0.0
H363 H 0.58504 0.62648 0.13233 0.0
H364 H 0.59971 0.68662 0.24749 0.0
H365 H 0.57489 0.69127 0.40367 0.0
H366 H 0.53502 0.63525 0.44545 0.0
C367 C 0.5186 0.55439 0.43624 0.0
C368 C 0.51543 0.56276 0.33722 0.0
C369 C 0.53579 0.59714 0.31026 0.0
C370 C 0.54939 0.59476 0.21981 0.0
C371 C 0.5729 0.62738 0.19884 0.0
C372 C 0.58174 0.66191 0.26464 0.0
C373 C 0.56777 0.66454 0.35267 0.0
C374 C 0.54512 0.63244 0.3758 0.0
H375 H 0.53747 0.60667 0.01705 0.0
C376 C 0.54711 0.57822 -0.00351 0.0
H377 H 0.56297 0.52535 0.03827 0.0
H378 H 0.47098 0.49769 0.36403 0.0
H379 H 0.45235 0.43868 0.24711 0.0
H380 H 0.47321 0.43521 0.0853 0.0
H381 H 0.51267 0.48967 0.03965 0.0
C382 C 0.55466 0.55453 0.06128 0.0
C383 C 0.54038 0.55899 0.155 0.0
C384 C 0.51624 0.52729 0.1778 0.0
C385 C 0.50378 0.52936 0.26969 0.0
C386 C 0.4809 0.49691 0.29404 0.0
C387 C 0.47003 0.46326 0.22782 0.0
C388 C 0.48177 0.4613 0.13675 0.0
C389 C 0.50457 0.49284 0.11156 0.0
loop_
_geom_bond_atom_site_label_1
_geom_bond_atom_site_label_2
_geom_bond_distance
_geom_bond_site_symmetry_2
_ccdc_geom_bond_type
Nd0 C2 2.836 . S
Nd0 O20 2.500 . S
Nd0 O21 2.492 . S
Nd0 O22 2.487 . S
Nd0 O23 2.682 . S
Nd0 O24 2.410 . S
Nd0 O29 2.414 . S
Nd0 O31 2.424 1_455 S
Nd1 C11 2.836 1_455 S
Nd1 O23 2.414 . S
Nd1 O25 2.424 . S
Nd1 O26 2.500 1_455 S
Nd1 O27 2.492 1_455 S
Nd1 O28 2.487 1_554 S
Nd1 O29 2.682 . S
Nd1 O30 2.410 1_455 S
C2 Nd0 2.836 . S
C2 C3 1.498 . S
C2 O20 1.258 . S
C2 O21 1.239 . S
C3 C2 1.498 . S
C3 C4 1.366 . S
C3 C8 1.407 . S
C4 C3 1.366 . S
C4 C5 1.392 . S
C4 H32 0.930 . S
C5 C4 1.392 . S
C5 C6 1.398 . S
C5 H33 0.929 . S
C6 C5 1.398 . S
C6 C7 1.352 . S
C7 C6 1.352 . S
C7 C8 1.384 . S
C7 H34 0.930 . S
C8 C3 1.407 . S
C8 C7 1.384 . S
C8 H35 0.929 . S
C9 O22 1.241 . S
C9 O23 1.273 . S
C10 O24 1.251 . S
C10 O25 1.268 . S
C11 Nd1 2.836 1_655 S
C11 C12 1.498 . S
C11 O26 1.258 . S
C11 O27 1.239 . S
C12 C11 1.498 . S
C12 C13 1.366 . S
C12 C17 1.407 . S
C13 C12 1.366 . S
C13 C14 1.392 . S
C13 H36 0.930 . S
C14 C13 1.392 . S
C14 C15 1.398 . S
C14 H37 0.929 . S
C15 C14 1.398 . S
C15 C16 1.352 . S
C16 C15 1.352 . S
C16 C17 1.384 . S
C16 H38 0.930 1_554 S
C17 C12 1.407 . S
C17 C16 1.384 . S
C17 H39 0.929 1_554 S
C18 O28 1.241 . S
C18 O29 1.273 1_556 S
C19 O30 1.251 . S
C19 O31 1.268 . S
O20 Nd0 2.500 . S
O20 C2 1.258 . S
O21 Nd0 2.492 . S
O21 C2 1.239 . S
O22 Nd0 2.487 . S
O22 C9 1.241 . S
O23 Nd0 2.682 . S
O23 Nd1 2.414 . S
O23 C9 1.273 . S
O24 Nd0 2.410 . S
O24 C10 1.251 . S
O25 Nd1 2.424 . S
O25 C10 1.268 . S
O26 Nd1 2.500 1_655 S
O26 C11 1.258 . S
O27 Nd1 2.492 1_655 S
O27 C11 1.239 . S
O28 Nd1 2.487 1_556 S
O28 C18 1.241 . S
O29 Nd0 2.414 . S
O29 Nd1 2.682 . S
O29 C18 1.273 1_554 S
O30 Nd1 2.410 1_655 S
O30 C19 1.251 . S
O31 Nd0 2.424 1_655 S
O31 C19 1.268 . S
H32 C4 0.930 . S
H33 C5 0.929 . S
H34 C7 0.930 . S
H35 C8 0.929 . S
H36 C13 0.930 . S
H37 C14 0.929 . S
H38 C16 0.930 1_556 S
H39 C17 0.929 1_556 S
Nd40 C42 2.838 . S
Nd40 O60 2.502 . S
Nd40 O61 2.493 . S
Nd40 O62 2.487 . S
Nd40 O63 2.682 1_565 S
Nd40 O64 2.412 . S
Nd40 O69 2.414 1_565 S
Nd40 O71 2.421 1_565 S
Nd41 C51 2.836 . S
Nd41 O63 2.414 . S
Nd41 O65 2.424 1_545 S
Nd41 O66 2.500 . S
Nd41 O67 2.492 . S
Nd41 O68 2.487 . S
Nd41 O69 2.682 . S
Nd41 O70 2.410 . S
C42 Nd40 2.838 . S
C42 C43 1.498 . S
C42 O60 1.258 . S
C42 O61 1.239 . S
C43 C42 1.498 . S
C43 C44 1.366 . S
C43 C48 1.407 . S
C44 C43 1.366 . S
C44 C45 1.392 . S
C44 H72 0.930 . S
C45 C44 1.392 . S
C45 C46 1.398 . S
C45 H73 0.929 . S
C46 C45 1.398 . S
C46 C47 1.352 . S
C47 C46 1.352 . S
C47 C48 1.384 . S
C47 H74 0.930 . S
C48 C43 1.407 . S
C48 C47 1.384 . S
C48 H75 0.929 . S
C49 O62 1.241 1_545 S
C49 O63 1.273 . S
C50 O64 1.251 . S
C50 O65 1.268 . S
C51 Nd41 2.836 . S
C51 C52 1.498 . S
C51 O66 1.258 . S
C51 O67 1.239 . S
C52 C51 1.498 . S
C52 C53 1.366 . S
C52 C57 1.407 . S
C53 C52 1.366 . S
C53 C54 1.392 . S
C53 H76 0.930 . S
C54 C53 1.392 . S
C54 C55 1.398 . S
C54 H77 0.929 . S
C55 C54 1.398 . S
C55 C56 1.352 . S
C56 C55 1.352 . S
C56 C57 1.384 . S
C56 H78 0.930 . S
C57 C52 1.407 . S
C57 C56 1.384 . S
C57 H79 0.929 . S
C58 O68 1.241 . S
C58 O69 1.273 . S
C59 O70 1.251 . S
C59 O71 1.268 . S
O60 Nd40 2.502 . S
O60 C42 1.258 . S
O61 Nd40 2.493 . S
O61 C42 1.239 . S
O62 Nd40 2.487 . S
O62 C49 1.241 1_565 S
O63 Nd40 2.682 1_545 S
O63 Nd41 2.414 . S
O63 C49 1.273 . S
O64 Nd40 2.412 . S
O64 C50 1.251 . S
O65 Nd41 2.424 1_565 S
O65 C50 1.268 . S
O66 Nd41 2.500 . S
O66 C51 1.258 . S
O67 Nd41 2.492 . S
O67 C51 1.239 . S
O68 Nd41 2.487 . S
O68 C58 1.241 . S
O69 Nd40 2.414 1_545 S
O69 Nd41 2.682 . S
O69 C58 1.273 . S
O70 Nd41 2.410 . S
O70 C59 1.251 . S
O71 Nd40 2.421 1_545 S
O71 C59 1.268 . S
H72 C44 0.930 . S
H73 C45 0.929 . S
H74 C47 0.930 . S
H75 C48 0.929 . S
H76 C53 0.930 . S
H77 C54 0.929 . S
H78 C56 0.930 . S
H79 C57 0.929 . S
Nd80 C82 2.836 . S
Nd80 O100 2.500 . S
Nd80 O101 2.492 . S
Nd80 O102 2.487 1_556 S
Nd80 O103 2.682 . S
Nd80 O104 2.410 . S
Nd80 O109 2.414 . S
Nd80 O111 2.424 . S
Nd81 C91 2.836 . S
Nd81 O103 2.414 . S
Nd81 O105 2.424 . S
Nd81 O106 2.500 . S
Nd81 O107 2.492 . S
Nd81 O108 2.487 . S
Nd81 O109 2.682 . S
Nd81 O110 2.410 . S
C82 Nd80 2.836 . S
C82 C83 1.498 . S
C82 O100 1.258 . S
C82 O101 1.239 . S
C83 C82 1.498 . S
C83 C84 1.366 . S
C83 C88 1.407 . S
C84 C83 1.366 . S
C84 C85 1.392 . S
C84 H112 0.930 . S
C85 C84 1.392 . S
C85 C86 1.398 . S
C85 H113 0.929 . S
C86 C85 1.398 . S
C86 C87 1.352 . S
C87 C86 1.352 . S
C87 C88 1.384 . S
C87 H114 0.930 . S
C88 C83 1.407 . S
C88 C87 1.384 . S
C88 H115 0.929 . S
C89 O102 1.241 . S
C89 O103 1.273 1_554 S
C90 O104 1.251 . S
C90 O105 1.268 . S
C91 Nd81 2.836 . S
C91 C92 1.498 . S
C91 O106 1.258 . S
C91 O107 1.239 . S
C92 C91 1.498 . S
C92 C93 1.366 . S
C92 C97 1.407 . S
C93 C92 1.366 . S
C93 C94 1.392 . S
C93 H116 0.930 . S
C94 C93 1.392 . S
C94 C95 1.398 . S
C94 H117 0.929 . S
C95 C94 1.398 . S
C95 C96 1.352 . S
C96 C95 1.352 . S
C96 C97 1.384 . S
C96 H118 0.930 . S
C97 C92 1.407 . S
C97 C96 1.384 . S
C97 H119 0.929 . S
C98 O108 1.241 . S
C98 O109 1.273 . S
C99 O110 1.251 . S
C99 O111 1.268 . S
O100 Nd80 2.500 . S
O100 C82 1.258 . S
O101 Nd80 2.492 . S
O101 C82 1.239 . S
O102 Nd80 2.487 1_554 S
O102 C89 1.241 . S
O103 Nd80 2.682 . S
O103 Nd81 2.414 . S
O103 C89 1.273 1_556 S
O104 Nd80 2.410 . S
O104 C90 1.251 . S
O105 Nd81 2.424 . S
O105 C90 1.268 . S
O106 Nd81 2.500 . S
O106 C91 1.258 . S
O107 Nd81 2.492 . S
O107 C91 1.239 . S
O108 Nd81 2.487 . S
O108 C98 1.241 . S
O109 Nd80 2.414 . S
O109 Nd81 2.682 . S
O109 C98 1.273 . S
O110 Nd81 2.410 . S
O110 C99 1.251 . S
O111 Nd80 2.424 . S
O111 C99 1.268 . S
H112 C84 0.930 . S
H113 C85 0.929 . S
H114 C87 0.930 . S
H115 C88 0.929 . S
H116 C93 0.930 . S
H117 C94 0.929 . S
H118 C96 0.930 . S
H119 C97 0.929 . S
H120 C121 0.951 . S
C121 H120 0.951 . S
C121 C127 1.265 . S
H122 C127 0.950 1_556 S
H123 C131 0.949 1_556 S
H124 C132 0.950 . S
H125 C133 0.951 . S
H126 C134 0.951 . S
C127 C121 1.265 . S
C127 H122 0.950 1_554 S
C127 C128 1.478 1_554 S
C128 C127 1.478 1_556 S
C128 C129 1.397 1_556 S
C128 C145 1.394 . S
C129 C128 1.397 1_554 S
C129 C130 1.438 1_554 S
C129 C134 1.429 . S
C130 C129 1.438 1_556 S
C130 C131 1.428 1_556 S
C130 C143 1.394 . S
C131 H123 0.949 1_554 S
C131 C130 1.428 1_554 S
C131 C132 1.345 . S
C132 H124 0.950 . S
C132 C131 1.345 . S
C132 C133 1.424 . S
C133 H125 0.951 . S
C133 C132 1.424 . S
C133 C134 1.347 . S
C134 H126 0.951 . S
C134 C129 1.429 . S
C134 C133 1.347 . S
H135 C136 0.951 . S
C136 H135 0.951 . S
C136 C142 1.265 . S
H137 C142 0.950 . S
H138 C146 0.949 . S
H139 C147 0.950 . S
H140 C148 0.951 . S
H141 C149 0.951 . S
C142 C136 1.265 . S
C142 H137 0.950 . S
C142 C143 1.478 . S
C143 C130 1.394 . S
C143 C142 1.478 . S
C143 C144 1.397 . S
C144 C143 1.397 . S
C144 C145 1.438 . S
C144 C149 1.429 . S
C145 C128 1.394 . S
C145 C144 1.438 . S
C145 C146 1.428 . S
C146 H138 0.949 . S
C146 C145 1.428 . S
C146 C147 1.345 . S
C147 H139 0.950 . S
C147 C146 1.345 . S
C147 C148 1.424 . S
C148 H140 0.951 . S
C148 C147 1.424 . S
C148 C149 1.347 . S
C149 H141 0.951 . S
C149 C144 1.429 . S
C149 C148 1.347 . S
H150 C151 0.951 . S
C151 H150 0.951 . S
C151 C157 1.265 . S
H152 C157 0.950 . S
H153 C161 0.949 . S
H154 C162 0.950 . S
H155 C163 0.951 . S
H156 C164 0.951 . S
C157 C151 1.265 . S
C157 H152 0.950 . S
C157 C158 1.478 . S
C158 C157 1.478 . S
C158 C159 1.397 . S
C158 C175 1.394 . S
C159 C158 1.397 . S
C159 C160 1.438 . S
C159 C164 1.429 . S
C160 C159 1.438 . S
C160 C161 1.428 . S
C160 C173 1.394 . S
C161 H153 0.949 . S
C161 C160 1.428 . S
C161 C162 1.345 . S
C162 H154 0.950 . S
C162 C161 1.345 . S
C162 C163 1.424 . S
C163 H155 0.951 . S
C163 C162 1.424 . S
C163 C164 1.347 . S
C164 H156 0.951 . S
C164 C159 1.429 . S
C164 C163 1.347 . S
H165 C166 0.951 . S
C166 H165 0.951 . S
C166 C172 1.265 . S
H167 C172 0.950 . S
H168 C176 0.949 . S
H169 C177 0.950 . S
H170 C178 0.951 . S
H171 C179 0.951 . S
C172 C166 1.265 . S
C172 H167 0.950 . S
C172 C173 1.478 . S
C173 C160 1.394 . S
C173 C172 1.478 . S
C173 C174 1.397 . S
C174 C173 1.397 . S
C174 C175 1.438 . S
C174 C179 1.429 . S
C175 C158 1.394 . S
C175 C174 1.438 . S
C175 C176 1.428 . S
C176 H168 0.949 . S
C176 C175 1.428 . S
C176 C177 1.345 . S
C177 H169 0.950 . S
C177 C176 1.345 . S
C177 C178 1.424 . S
C178 H170 0.951 . S
C178 C177 1.424 . S
C178 C179 1.347 . S
C179 H171 0.951 . S
C179 C174 1.429 . S
C179 C178 1.347 . S
H180 C181 0.951 . S
C181 H180 0.951 . S
C181 C187 1.265 . S
H182 C187 0.950 . S
H183 C191 0.949 . S
H184 C192 0.950 . S
H185 C193 0.951 . S
H186 C194 0.951 . S
C187 C181 1.265 . S
C187 H182 0.950 . S
C187 C188 1.478 . S
C188 C187 1.478 . S
C188 C189 1.397 . S
C188 C205 1.394 . S
C189 C188 1.397 . S
C189 C190 1.438 . S
C189 C194 1.429 . S
C190 C189 1.438 . S
C190 C191 1.428 . S
C190 C203 1.394 . S
C191 H183 0.949 . S
C191 C190 1.428 . S
C191 C192 1.345 . S
C192 H184 0.950 . S
C192 C191 1.345 . S
C192 C193 1.424 . S
C193 H185 0.951 . S
C193 C192 1.424 . S
C193 C194 1.347 . S
C194 H186 0.951 . S
C194 C189 1.429 . S
C194 C193 1.347 . S
H195 C196 0.951 . S
C196 H195 0.951 . S
C196 C202 1.265 . S
H197 C202 0.950 . S
H198 C206 0.949 . S
H199 C207 0.950 . S
H200 C208 0.951 1_554 S
H201 C209 0.951 . S
C202 C196 1.265 . S
C202 H197 0.950 . S
C202 C203 1.478 . S
C203 C190 1.394 . S
C203 C202 1.478 . S
C203 C204 1.397 . S
C204 C203 1.397 . S
C204 C205 1.438 . S
C204 C209 1.429 . S
C205 C188 1.394 . S
C205 C204 1.438 . S
C205 C206 1.428 . S
C206 H198 0.949 . S
C206 C205 1.428 . S
C206 C207 1.345 . S
C207 H199 0.950 . S
C207 C206 1.345 . S
C207 C208 1.424 . S
C208 H200 0.951 1_556 S
C208 C207 1.424 . S
C208 C209 1.347 . S
C209 H201 0.951 . S
C209 C204 1.429 . S
C209 C208 1.347 . S
H210 C211 0.951 . S
C211 H210 0.951 . S
C211 C217 1.265 . S
H212 C217 0.950 . S
H213 C221 0.949 . S
H214 C222 0.950 . S
H215 C223 0.951 . S
H216 C224 0.951 . S
C217 C211 1.265 . S
C217 H212 0.950 . S
C217 C218 1.478 . S
C218 C217 1.478 . S
C218 C219 1.397 1_556 S
C218 C235 1.394 . S
C219 C218 1.397 1_554 S
C219 C220 1.438 . S
C219 C224 1.429 . S
C220 C219 1.438 . S
C220 C221 1.428 . S
C220 C233 1.394 . S
C221 H213 0.949 . S
C221 C220 1.428 . S
C221 C222 1.345 . S
C222 H214 0.950 . S
C222 C221 1.345 . S
C222 C223 1.424 . S
C223 H215 0.951 . S
C223 C222 1.424 . S
C223 C224 1.347 . S
C224 H216 0.951 . S
C224 C219 1.429 . S
C224 C223 1.347 . S
H225 C226 0.951 . S
C226 H225 0.951 . S
C226 C232 1.265 . S
H227 C232 0.950 . S
H228 C236 0.949 . S
H229 C237 0.950 . S
H230 C238 0.951 . S
H231 C239 0.951 . S
C232 C226 1.265 . S
C232 H227 0.950 . S
C232 C233 1.478 . S
C233 C220 1.394 . S
C233 C232 1.478 . S
C233 C234 1.397 1_554 S
C234 C233 1.397 1_556 S
C234 C235 1.438 . S
C234 C239 1.429 . S
C235 C218 1.394 . S
C235 C234 1.438 . S
C235 C236 1.428 . S
C236 H228 0.949 . S
C236 C235 1.428 . S
C236 C237 1.345 . S
C237 H229 0.950 . S
C237 C236 1.345 . S
C237 C238 1.424 . S
C238 H230 0.951 . S
C238 C237 1.424 . S
C238 C239 1.347 . S
C239 H231 0.951 . S
C239 C234 1.429 . S
C239 C238 1.347 . S
H240 C241 0.951 . S
C241 H240 0.951 . S
C241 C247 1.265 . S
H242 C247 0.950 . S
H243 C251 0.949 . S
H244 C252 0.950 . S
H245 C253 0.951 . S
H246 C254 0.951 . S
C247 C241 1.265 . S
C247 H242 0.950 . S
C247 C248 1.478 . S
C248 C247 1.478 . S
C248 C249 1.397 . S
C248 C265 1.394 . S
C249 C248 1.397 . S
C249 C250 1.438 . S
C249 C254 1.429 . S
C250 C249 1.438 . S
C250 C251 1.428 . S
C250 C263 1.394 . S
C251 H243 0.949 . S
C251 C250 1.428 . S
C251 C252 1.345 . S
C252 H244 0.950 . S
C252 C251 1.345 . S
C252 C253 1.424 . S
C253 H245 0.951 . S
C253 C252 1.424 . S
C253 C254 1.347 . S
C254 H246 0.951 . S
C254 C249 1.429 . S
C254 C253 1.347 . S
H255 C256 0.951 . S
C256 H255 0.951 . S
C256 C262 1.265 . S
H257 C262 0.950 . S
H258 C266 0.949 . S
H259 C267 0.950 . S
H260 C268 0.951 . S
H261 C269 0.951 . S
C262 C256 1.265 . S
C262 H257 0.950 . S
C262 C263 1.478 . S
C263 C250 1.394 . S
C263 C262 1.478 . S
C263 C264 1.397 . S
C264 C263 1.397 . S
C264 C265 1.438 . S
C264 C269 1.429 . S
C265 C248 1.394 . S
C265 C264 1.438 . S
C265 C266 1.428 . S
C266 H258 0.949 . S
C266 C265 1.428 . S
C266 C267 1.345 . S
C267 H259 0.950 . S
C267 C266 1.345 . S
C267 C268 1.424 . S
C268 H260 0.951 . S
C268 C267 1.424 . S
C268 C269 1.347 . S
C269 H261 0.951 . S
C269 C264 1.429 . S
C269 C268 1.347 . S
H270 C271 0.951 . S
C271 H270 0.951 . S
C271 C277 1.265 . S
H272 C277 0.950 . S
H273 C281 0.949 . S
H274 C282 0.950 . S
H275 C283 0.951 1_554 S
H276 C284 0.951 . S
C277 C271 1.265 . S
C277 H272 0.950 . S
C277 C278 1.478 . S
C278 C277 1.478 . S
C278 C279 1.397 . S
C278 C295 1.394 . S
C279 C278 1.397 . S
C279 C280 1.438 . S
C279 C284 1.429 . S
C280 C279 1.438 . S
C280 C281 1.428 . S
C280 C293 1.394 . S
C281 H273 0.949 . S
C281 C280 1.428 . S
C281 C282 1.345 . S
C282 H274 0.950 . S
C282 C281 1.345 . S
C282 C283 1.424 . S
C283 H275 0.951 1_556 S
C283 C282 1.424 . S
C283 C284 1.347 . S
C284 H276 0.951 . S
C284 C279 1.429 . S
C284 C283 1.347 . S
H285 C286 0.951 . S
C286 H285 0.951 . S
C286 C292 1.265 . S
H287 C292 0.950 . S
H288 C296 0.949 . S
H289 C297 0.950 . S
H290 C298 0.951 . S
H291 C299 0.951 . S
C292 C286 1.265 . S
C292 H287 0.950 . S
C292 C293 1.478 . S
C293 C280 1.394 . S
C293 C292 1.478 . S
C293 C294 1.397 . S
C294 C293 1.397 . S
C294 C295 1.438 . S
C294 C299 1.429 . S
C295 C278 1.394 . S
C295 C294 1.438 . S
C295 C296 1.428 . S
C296 H288 0.949 . S
C296 C295 1.428 . S
C296 C297 1.345 . S
C297 H289 0.950 . S
C297 C296 1.345 . S
C297 C298 1.424 . S
C298 H290 0.951 . S
C298 C297 1.424 . S
C298 C299 1.347 . S
C299 H291 0.951 . S
C299 C294 1.429 . S
C299 C298 1.347 . S
H300 C301 0.951 . S
C301 H300 0.951 . S
C301 C307 1.265 . S
H302 C307 0.950 . S
H303 C311 0.949 . S
H304 C312 0.950 . S
H305 C313 0.951 . S
H306 C314 0.951 . S
C307 C301 1.265 . S
C307 H302 0.950 . S
C307 C308 1.478 . S
C308 C307 1.478 . S
C308 C309 1.397 1_455 S
C308 C325 1.394 . S
C309 C308 1.397 1_655 S
C309 C310 1.438 . S
C309 C314 1.429 . S
C310 C309 1.438 . S
C310 C311 1.428 . S
C310 C323 1.394 1_655 S
C311 H303 0.949 . S
C311 C310 1.428 . S
C311 C312 1.345 . S
C312 H304 0.950 . S
C312 C311 1.345 . S
C312 C313 1.424 . S
C313 H305 0.951 . S
C313 C312 1.424 . S
C313 C314 1.347 . S
C314 H306 0.951 . S
C314 C309 1.429 . S
C314 C313 1.347 . S
H315 C316 0.951 . S
C316 H315 0.951 . S
C316 C322 1.265 . S
H317 C322 0.950 . S
H318 C326 0.949 . S
H319 C327 0.950 . S
H320 C328 0.951 . S
H321 C329 0.951 . S
C322 C316 1.265 . S
C322 H317 0.950 . S
C322 C323 1.478 . S
C323 C310 1.394 1_455 S
C323 C322 1.478 . S
C323 C324 1.397 . S
C324 C323 1.397 . S
C324 C325 1.438 . S
C324 C329 1.429 . S
C325 C308 1.394 . S
C325 C324 1.438 . S
C325 C326 1.428 . S
C326 H318 0.949 . S
C326 C325 1.428 . S
C326 C327 1.345 . S
C327 H319 0.950 . S
C327 C326 1.345 . S
C327 C328 1.424 . S
C328 H320 0.951 . S
C328 C327 1.424 . S
C328 C329 1.347 . S
C329 H321 0.951 . S
C329 C324 1.429 . S
C329 C328 1.347 . S
H330 C331 0.951 . S
C331 H330 0.951 . S
C331 C337 1.265 . S
H332 C337 0.950 . S
H333 C341 0.949 . S
H334 C342 0.950 . S
H335 C343 0.951 . S
H336 C344 0.951 . S
C337 C331 1.265 . S
C337 H332 0.950 . S
C337 C338 1.478 . S
C338 C337 1.478 . S
C338 C339 1.397 . S
C338 C355 1.394 1_545 S
C339 C338 1.397 . S
C339 C340 1.438 1_554 S
C339 C344 1.429 . S
C340 C339 1.438 1_556 S
C340 C341 1.428 . S
C340 C353 1.394 . S
C341 H333 0.949 . S
C341 C340 1.428 . S
C341 C342 1.345 . S
C342 H334 0.950 . S
C342 C341 1.345 . S
C342 C343 1.424 1_556 S
C343 H335 0.951 . S
C343 C342 1.424 1_554 S
C343 C344 1.347 . S
C344 H336 0.951 . S
C344 C339 1.429 . S
C344 C343 1.347 . S
H345 C346 0.951 . S
C346 H345 0.951 . S
C346 C352 1.265 . S
H347 C352 0.950 1_565 S
H348 C356 0.949 . S
H349 C357 0.950 . S
H350 C358 0.951 . S
H351 C359 0.951 . S
C352 C346 1.265 . S
C352 H347 0.950 1_545 S
C352 C353 1.478 . S
C353 C340 1.394 . S
C353 C352 1.478 . S
C353 C354 1.397 1_545 S
C354 C353 1.397 1_565 S
C354 C355 1.438 1_556 S
C354 C359 1.429 . S
C355 C338 1.394 1_565 S
C355 C354 1.438 1_554 S
C355 C356 1.428 . S
C356 H348 0.949 . S
C356 C355 1.428 . S
C356 C357 1.345 . S
C357 H349 0.950 . S
C357 C356 1.345 . S
C357 C358 1.424 1_554 S
C358 H350 0.951 . S
C358 C357 1.424 1_556 S
C358 C359 1.347 . S
C359 H351 0.951 . S
C359 C354 1.429 . S
C359 C358 1.347 . S
H360 C361 0.951 . S
C361 H360 0.951 . S
C361 C367 1.265 . S
H362 C367 0.950 . S
H363 C371 0.949 . S
H364 C372 0.950 . S
H365 C373 0.951 . S
H366 C374 0.951 . S
C367 C361 1.265 . S
C367 H362 0.950 . S
C367 C368 1.478 . S
C368 C367 1.478 . S
C368 C369 1.397 . S
C368 C385 1.394 . S
C369 C368 1.397 . S
C369 C370 1.438 . S
C369 C374 1.429 . S
C370 C369 1.438 . S
C370 C371 1.428 . S
C370 C383 1.394 . S
C371 H363 0.949 . S
C371 C370 1.428 . S
C371 C372 1.345 . S
C372 H364 0.950 . S
C372 C371 1.345 . S
C372 C373 1.424 . S
C373 H365 0.951 . S
C373 C372 1.424 . S
C373 C374 1.347 . S
C374 H366 0.951 . S
C374 C369 1.429 . S
C374 C373 1.347 . S
H375 C376 0.951 . S
C376 H375 0.951 . S
C376 C382 1.265 . S
H377 C382 0.950 . S
H378 C386 0.949 . S
H379 C387 0.950 . S
H380 C388 0.951 . S
H381 C389 0.951 . S
C382 C376 1.265 . S
C382 H377 0.950 . S
C382 C383 1.478 . S
C383 C370 1.394 . S
C383 C382 1.478 . S
C383 C384 1.397 . S
C384 C383 1.397 . S
C384 C385 1.438 . S
C384 C389 1.429 . S
C385 C368 1.394 . S
C385 C384 1.438 . S
C385 C386 1.428 . S
C386 H378 0.949 . S
C386 C385 1.428 . S
C386 C387 1.345 . S
C387 H379 0.950 . S
C387 C386 1.345 . S
C387 C388 1.424 . S
C388 H380 0.951 . S
C388 C387 1.424 . S
C388 C389 1.347 . S
C389 H381 0.951 . S
C389 C384 1.429 . S
C389 C388 1.347 . S
C121 C10 2.584 . S
C136 C86 2.466 . S
C151 C55 1.704 . S
C166 C15 1.705 . S
C181 C50 3.010 . S
C196 C90 2.982 . S
C211 C95 2.234 . S
C226 C19 2.197 . S
C241 C46 1.386 . S
C256 C6 1.411 . S
C271 C99 2.621 . S
C286 C59 2.677 . S
C301 C18 0.639 . S
C316 C9 0.639 . S
C331 C49 0.623 . S
C346 C58 0.623 . S
C361 C98 0.411 . S
C376 C89 0.411 . S
