# Generated by pormake.
# Topology sow, (4)-cn, num edge types: 1
# Building blocks:
#     Node 0, Type 0, BuildingBlock: KOZSID_clean_sbu_0, # of connection points: 4
#     Node 1, Type 0, BuildingBlock: KOZSID_clean_sbu_0, # of connection points: 4
#     Node 2, Type 0, BuildingBlock: KOZSID_clean_sbu_0, # of connection points: 4
#     Node 3, Type 0, BuildingBlock: KOZSID_clean_sbu_0, # of connection points: 4
#     Node 4, Type 0, BuildingBlock: KOZSID_clean_sbu_0, # of connection points: 4
#     Node 5, Type 0, BuildingBlock: KOZSID_clean_sbu_0, # of connection points: 4
#     Node 6, Type 0, BuildingBlock: KOZSID_clean_sbu_0, # of connection points: 4
#     Node 7, Type 0, BuildingBlock: KOZSID_clean_sbu_0, # of connection points: 4
#     Edge 8, Type (0, 0), BuildingBlock: OJICUG_clean_linker_0, # of connection points: 2
#     Edge 9, Type (0, 0), BuildingBlock: OJICUG_clean_linker_0, # of connection points: 2
#     Edge 10, Type (0, 0), BuildingBlock: OJICUG_clean_linker_0, # of connection points: 2
#     Edge 11, Type (0, 0), BuildingBlock: OJICUG_clean_linker_0, # of connection points: 2
#     Edge 12, Type (0, 0), BuildingBlock: OJICUG_clean_linker_0, # of connection points: 2
#     Edge 13, Type (0, 0), BuildingBlock: OJICUG_clean_linker_0, # of connection points: 2
#     Edge 14, Type (0, 0), BuildingBlock: OJICUG_clean_linker_0, # of connection points: 2
#     Edge 15, Type (0, 0), BuildingBlock: OJICUG_clean_linker_0, # of connection points: 2
#     Edge 16, Type (0, 0), BuildingBlock: OJICUG_clean_linker_0, # of connection points: 2
#     Edge 17, Type (0, 0), BuildingBlock: OJICUG_clean_linker_0, # of connection points: 2
#     Edge 18, Type (0, 0), BuildingBlock: OJICUG_clean_linker_0, # of connection points: 2
#     Edge 19, Type (0, 0), BuildingBlock: OJICUG_clean_linker_0, # of connection points: 2
#     Edge 20, Type (0, 0), BuildingBlock: OJICUG_clean_linker_0, # of connection points: 2
#     Edge 21, Type (0, 0), BuildingBlock: OJICUG_clean_linker_0, # of connection points: 2
#     Edge 22, Type (0, 0), BuildingBlock: OJICUG_clean_linker_0, # of connection points: 2
#     Edge 23, Type (0, 0), BuildingBlock: OJICUG_clean_linker_0, # of connection points: 2
# Relax obj value: 0.060
# Max RMSD: 0.293
# Mean RMSD: 0.223
data_MOF--net-sow--node1-KOZSID_clean_sbu_0--edge1-OJICUG_clean_linker_0
_symmetry_space_group_name_H-M    P1
_symmetry_Int_Tables_number       1
_symmetry_cell_setting            triclinic
loop_
_symmetry_equiv_pos_as_xyz
'x, y, z'
_cell_length_a     42.444743
_cell_length_b     12.440579
_cell_length_c     19.461988
_cell_angle_alpha  91.752255
_cell_angle_beta   90.545382
_cell_angle_gamma 89.46444
loop_
_atom_site_label
_atom_site_type_symbol
_atom_site_fract_x
_atom_site_fract_y
_atom_site_fract_z
_atom_type_partial_charge
C0 C 0.126 0.2318 0.2703 0.0
C1 C 0.12755 0.13043 0.29829 0.0
C2 C 0.1573 0.09172 0.28666 0.0
C3 C 0.17217 0.17068 0.25197 0.0
N4 N 0.15403 0.25819 0.24239 0.0
Co5 Co 0.16447 0.38293 0.18456 0.0
N6 N 0.20046 0.30543 0.14044 0.0
C7 C 0.21235 0.21005 0.15997 0.0
C8 C 0.2365 0.17244 0.12008 0.0
C9 C 0.24061 0.25013 0.07361 0.0
C10 C 0.21917 0.33216 0.08742 0.0
N11 N 0.17482 0.50903 0.12779 0.0
C12 C 0.19731 0.52212 0.07885 0.0
C13 C 0.19933 0.62981 0.06235 0.0
C14 C 0.17784 0.68538 0.10194 0.0
C15 C 0.16398 0.60983 0.14119 0.0
N16 N 0.12782 0.45717 0.22833 0.0
C17 C 0.12228 0.5635 0.23057 0.0
C18 C 0.09383 0.58986 0.26041 0.0
C19 C 0.08059 0.49354 0.277 0.0
C20 C 0.10171 0.41384 0.25611 0.0
N21 N 0.19339 0.44233 0.25697 0.0
C22 C 0.23629 0.52146 0.36026 0.0
C23 C 0.20495 0.49412 0.37528 0.0
C24 C 0.18404 0.45559 0.32362 0.0
C25 C 0.24386 0.519 0.29019 0.0
C26 C 0.22284 0.4771 0.24048 0.0
N27 N 0.13551 0.32568 0.1131 0.0
C28 C 0.08701 0.35299 0.0506 0.0
C29 C 0.08213 0.24165 0.0449 0.0
C30 C 0.10596 0.17334 0.06868 0.0
C31 C 0.13278 0.21702 0.10112 0.0
C32 C 0.11377 0.39318 0.08461 0.0
H33 H 0.15021 0.16212 0.12039 0.0
H34 H 0.1156 0.479 0.09228 0.0
H35 H 0.16062 0.4326 0.33824 0.0
H36 H 0.23097 0.47307 0.18864 0.0
C37 C 0.19888 0.15395 0.21259 0.0
C38 C 0.09722 0.29809 0.26591 0.0
C39 C 0.2204 0.43873 0.05525 0.0
C40 C 0.14042 0.63035 0.1903 0.0
H41 H 0.10893 0.08535 0.32098 0.0
H42 H 0.166 0.0115 0.29644 0.0
H43 H 0.24958 0.09778 0.12409 0.0
H44 H 0.25869 0.24903 0.03617 0.0
H45 H 0.21583 0.66652 0.0285 0.0
H46 H 0.17354 0.77132 0.1034 0.0
H47 H 0.08303 0.66883 0.26542 0.0
H48 H 0.05791 0.48283 0.30068 0.0
H49 H 0.19641 0.49838 0.42681 0.0
H50 H 0.26622 0.54655 0.27243 0.0
H51 H 0.06932 0.40918 0.03275 0.0
H52 H 0.10357 0.08684 0.06377 0.0
C53 C 0.46312 0.45311 0.7513 0.0
C54 C 0.4827 0.53558 0.7745 0.0
C55 C 0.46598 0.6299 0.76874 0.0
C56 C 0.43721 0.60131 0.74154 0.0
N57 N 0.43457 0.49462 0.73034 0.0
Co58 Co 0.39953 0.42254 0.6777 0.0
N59 N 0.38083 0.5608 0.6457 0.0
C60 C 0.38886 0.65918 0.66996 0.0
C61 C 0.37085 0.73993 0.64256 0.0
C62 C 0.34992 0.68911 0.59854 0.0
C63 C 0.35639 0.57985 0.60144 0.0
N64 N 0.36633 0.34572 0.62317 0.0
C65 C 0.34512 0.38209 0.57625 0.0
C66 C 0.32524 0.29965 0.5549 0.0
C67 C 0.33343 0.21052 0.59003 0.0
C68 C 0.35804 0.24243 0.6311 0.0
N69 N 0.41661 0.28528 0.71447 0.0
C70 C 0.40074 0.19259 0.71735 0.0
C71 C 0.41696 0.1133 0.75052 0.0
C72 C 0.44504 0.15863 0.7697 0.0
C73 C 0.44426 0.26335 0.74723 0.0
N74 N 0.37056 0.43678 0.75758 0.0
C75 C 0.32629 0.47769 0.86504 0.0
C76 C 0.31763 0.47726 0.79581 0.0
C77 C 0.33936 0.45646 0.7443 0.0
C78 C 0.35865 0.45923 0.87918 0.0
C79 C 0.38033 0.43851 0.82499 0.0
N80 N 0.42798 0.41595 0.59643 0.0
C81 C 0.48385 0.41154 0.57775 0.0
C82 C 0.48176 0.51051 0.5453 0.0
C83 C 0.45191 0.54532 0.52416 0.0
C84 C 0.42527 0.49362 0.54816 0.0
C85 C 0.45612 0.36212 0.59895 0.0
H86 H 0.40284 0.52356 0.53164 0.0
H87 H 0.45774 0.28504 0.62157 0.0
H88 H 0.33012 0.45811 0.69333 0.0
H89 H 0.40483 0.42424 0.83765 0.0
C90 C 0.41495 0.67218 0.7139 0.0
C91 C 0.4714 0.33578 0.75089 0.0
C92 C 0.33919 0.49641 0.56093 0.0
C93 C 0.37373 0.17743 0.67759 0.0
H94 H 0.50679 0.53088 0.79195 0.0
H95 H 0.47464 0.71045 0.77891 0.0
H96 H 0.373 0.82565 0.65247 0.0
H97 H 0.33207 0.72788 0.56761 0.0
H98 H 0.30516 0.30458 0.52211 0.0
H99 H 0.32204 0.13296 0.58764 0.0
H100 H 0.41012 0.0304 0.75597 0.0
H101 H 0.46458 0.11734 0.79351 0.0
H102 H 0.29371 0.48897 0.77989 0.0
H103 H 0.36721 0.45966 0.93142 0.0
H104 H 0.50653 0.3755 0.58935 0.0
H105 H 0.44893 0.61672 0.4942 0.0
C106 C 0.62511 0.18895 0.72438 0.0
C107 C 0.62386 0.28389 0.68902 0.0
C108 C 0.65341 0.32691 0.69369 0.0
C109 C 0.67088 0.25548 0.73118 0.0
N110 N 0.65466 0.16831 0.74826 0.0
Co111 Co 0.66976 0.05048 0.80799 0.0
N112 N 0.70507 0.13878 0.84632 0.0
C113 C 0.71456 0.23267 0.82078 0.0
C114 C 0.73989 0.27619 0.85451 0.0
C115 C 0.74728 0.20529 0.90408 0.0
C116 C 0.7255 0.1218 0.89937 0.0
N117 N 0.68494 0.93139 0.86512 0.0
C118 C 0.70914 0.92632 0.9119 0.0
C119 C 0.71446 0.81823 0.92684 0.0
C120 C 0.69358 0.75705 0.88948 0.0
C121 C 0.67649 0.82818 0.85248 0.0
N122 N 0.6327 0.96931 0.77112 0.0
C123 C 0.62892 0.86272 0.77303 0.0
C124 C 0.59916 0.83156 0.75289 0.0
C125 C 0.58318 0.92499 0.73795 0.0
C126 C 0.60418 0.00847 0.74962 0.0
N127 N 0.6983 0.98642 0.73396 0.0
C128 C 0.73878 0.87335 0.63604 0.0
C129 C 0.70603 0.88264 0.62685 0.0
C130 C 0.68639 0.93664 0.67567 0.0
C131 C 0.7503 0.91779 0.69864 0.0
C132 C 0.73017 0.9733 0.74576 0.0
N133 N 0.6419 0.10499 0.88228 0.0
C134 C 0.59622 0.06305 0.94866 0.0
C135 C 0.58724 0.17132 0.95234 0.0
C136 C 0.60853 0.24741 0.92892 0.0
C137 C 0.63577 0.21244 0.89339 0.0
C138 C 0.62387 0.03195 0.91501 0.0
H139 H 0.6503 0.27181 0.87024 0.0
H140 H 0.62866 0.94715 0.90945 0.0
H141 H 0.66161 0.94221 0.66367 0.0
H142 H 0.74102 1.00381 0.79227 0.0
C143 C 0.69829 0.28108 0.76734 0.0
C144 C 0.59744 0.12418 0.7388 0.0
C145 C 0.72785 0.02166 0.93896 0.0
C146 C 0.65084 0.80127 0.80925 0.0
H147 H 0.6033 0.32106 0.66609 0.0
H148 H 0.66034 0.40584 0.6778 0.0
H149 H 0.75198 0.34989 0.84356 0.0
H150 H 0.76765 0.2145 0.93684 0.0
H151 H 0.73123 0.78124 0.95996 0.0
H152 H 0.6912 0.67048 0.88957 0.0
H153 H 0.58943 0.75157 0.75417 0.0
H154 H 0.55876 0.93021 0.72231 0.0
H155 H 0.69557 0.8536 0.58007 0.0
H156 H 0.77507 0.91345 0.71098 0.0
H157 H 0.58075 1.00176 0.96729 0.0
H158 H 0.60266 0.33232 0.93186 0.0
C159 C 0.9703 0.97443 0.29253 0.0
C160 C 0.99254 0.9044 0.26401 0.0
C161 C 0.98201 0.80229 0.27404 0.0
C162 C 0.95393 0.81525 0.30787 0.0
N163 N 0.94571 0.91932 0.31883 0.0
Co164 Co 0.90887 0.97054 0.37452 0.0
N165 N 0.89011 0.82249 0.37883 0.0
C166 C 0.90515 0.72997 0.36172 0.0
C167 C 0.88791 0.64019 0.37543 0.0
C168 C 0.86016 0.67831 0.40321 0.0
C169 C 0.86201 0.78942 0.40483 0.0
N170 N 0.87189 0.02128 0.42953 0.0
C171 C 0.8428 0.97711 0.42391 0.0
C172 C 0.81975 0.05518 0.42604 0.0
C173 C 0.83408 0.14893 0.4459 0.0
C174 C 0.86566 0.12453 0.44883 0.0
N175 N 0.92659 0.11931 0.37044 0.0
C176 C 0.91645 0.20626 0.40721 0.0
C177 C 0.93294 0.29794 0.39532 0.0
C178 C 0.95548 0.26717 0.34913 0.0
C179 C 0.95146 0.15784 0.3354 0.0
N180 N 0.88408 0.99449 0.28971 0.0
C181 C 0.84018 0.00889 0.1802 0.0
C182 C 0.84528 0.09599 0.22636 0.0
C183 C 0.86745 0.08767 0.27989 0.0
C184 C 0.85957 0.91786 0.18731 0.0
C185 C 0.88126 0.91261 0.24167 0.0
N186 N 0.93481 0.94184 0.45801 0.0
C187 C 0.9901 0.92059 0.48514 0.0
C188 C 0.98487 0.81614 0.50654 0.0
C189 C 0.95358 0.78542 0.5167 0.0
C190 C 0.92879 0.85293 0.49548 0.0
C191 C 0.96468 0.98295 0.46241 0.0
H192 H 0.90499 0.82601 0.50214 0.0
H193 H 0.97035 0.05878 0.44143 0.0
H194 H 0.87018 0.15604 0.31424 0.0
H195 H 0.89507 0.84023 0.24569 0.0
C196 C 0.93468 0.73217 0.33011 0.0
C197 C 0.97501 0.09176 0.29876 0.0
C198 C 0.83652 0.86165 0.42986 0.0
C199 C 0.88839 0.20333 0.44296 0.0
H200 H 1.01457 0.92516 0.24042 0.0
H201 H 0.99376 0.7275 0.25953 0.0
H202 H 0.89452 0.55692 0.36567 0.0
H203 H 0.84067 0.63028 0.41976 0.0
H204 H 0.79538 0.04564 0.41119 0.0
H205 H 0.82316 0.2279 0.44924 0.0
H206 H 0.92863 0.37814 0.41653 0.0
H207 H 0.97351 0.31867 0.3295 0.0
H208 H 0.83192 0.16986 0.22285 0.0
H209 H 0.85807 0.8491 0.15249 0.0
H210 H 1.01383 0.9503 0.47969 0.0
H211 H 0.94834 0.70781 0.53736 0.0
C212 C 0.93585 0.22721 0.94798 0.0
C213 C 0.94232 0.32506 0.98096 0.0
C214 C 0.92304 0.39944 0.95149 0.0
C215 C 0.90581 0.34252 0.903 0.0
N216 N 0.91255 0.23661 0.90018 0.0
Co217 Co 0.89073 0.12377 0.84176 0.0
N218 N 0.86767 0.23557 0.78773 0.0
C219 C 0.869 0.34303 0.79915 0.0
C220 C 0.85064 0.40116 0.7552 0.0
C221 C 0.83599 0.32633 0.71393 0.0
C222 C 0.84598 0.22642 0.73592 0.0
N223 N 0.8681 0.01264 0.78456 0.0
C224 C 0.84747 0.02374 0.7309 0.0
C225 C 0.83974 0.92452 0.70336 0.0
C226 C 0.85435 0.84815 0.7417 0.0
C227 C 0.87095 0.9055 0.79075 0.0
N228 N 0.91442 0.01451 0.89613 0.0
C229 C 0.91085 0.90725 0.89051 0.0
C230 C 0.9329 0.85113 0.92735 0.0
C231 C 0.95201 0.92744 0.95746 0.0
C232 C 0.94037 0.02644 0.93775 0.0
N233 N 0.85557 0.12135 0.90904 0.0
C234 C 0.80589 0.05569 0.01241 0.0
C235 C 0.83586 0.11833 0.02512 0.0
C236 C 0.85981 0.13861 0.97748 0.0
C237 C 0.80543 0.04414 0.9355 0.0
C238 C 0.82674 0.08607 0.88932 0.0
N239 N 0.92636 0.11565 0.77434 0.0
C240 C 0.95043 0.9765 0.70185 0.0
C241 C 0.97897 0.98435 0.73898 0.0
C242 C 0.98212 0.07674 0.78227 0.0
C243 C 0.95589 0.14413 0.79579 0.0
C244 C 0.92494 0.04515 0.71872 0.0
H245 H 0.95913 0.21523 0.82706 0.0
H246 H 0.90368 0.03529 0.68896 0.0
H247 H 0.88175 0.1694 0.99745 0.0
H248 H 0.81985 0.08218 0.83656 0.0
C249 C 0.88604 0.38696 0.85423 0.0
C250 C 0.95491 0.13034 0.95734 0.0
C251 C 0.83263 0.12572 0.70895 0.0
C252 C 0.89054 0.86239 0.841 0.0
H253 H 0.96016 0.34133 0.01995 0.0
H254 H 0.92264 0.4854 0.962 0.0
H255 H 0.84755 0.48762 0.75459 0.0
H256 H 0.81911 0.34345 0.67362 0.0
H257 H 0.82522 0.91066 0.65965 0.0
H258 H 0.8533 0.7617 0.73408 0.0
H259 H 0.93601 0.76473 0.92854 0.0
H260 H 0.97269 0.91096 0.98823 0.0
H261 H 0.84345 0.15087 0.07471 0.0
H262 H 0.78785 1.00124 0.90517 0.0
H263 H 0.94719 0.91629 0.66119 0.0
H264 H 1.004 0.09568 0.80834 0.0
C265 C 0.6195 0.75997 0.53836 0.0
C266 C 0.62845 0.68309 0.58521 0.0
C267 C 0.6587 0.65329 0.56966 0.0
C268 C 0.66648 0.71307 0.51442 0.0
N269 N 0.64356 0.78218 0.49583 0.0
Co270 Co 0.64313 0.87502 0.41403 0.0
N271 N 0.68058 0.79883 0.37424 0.0
C272 C 0.69906 0.72624 0.40582 0.0
C273 C 0.72286 0.68573 0.3653 0.0
C274 C 0.71954 0.73677 0.30449 0.0
C275 C 0.69382 0.806 0.31157 0.0
N276 N 0.64227 0.96839 0.33297 0.0
C277 C 0.65965 0.96331 0.27478 0.0
C278 C 0.6531 0.05053 0.23394 0.0
C279 C 0.6315 0.1136 0.26861 0.0
C280 C 0.62602 0.06171 0.32849 0.0
N281 N 0.60553 0.94759 0.45416 0.0
C282 C 0.59367 0.04412 0.43796 0.0
C283 C 0.56612 0.06847 0.47213 0.0
C284 C 0.56023 0.98086 0.51137 0.0
C285 C 0.58458 0.9084 0.4988 0.0
N286 N 0.67133 0.98272 0.46158 0.0
C287 C 0.71811 0.10508 0.5334 0.0
C288 C 0.68791 0.09181 0.56117 0.0
C289 C 0.6652 0.02736 0.52544 0.0
C290 C 0.72082 0.07856 0.46301 0.0
C291 C 0.69752 0.01786 0.42865 0.0
N292 N 0.61521 0.77013 0.36601 0.0
C293 C 0.56673 0.73096 0.30439 0.0
C294 C 0.57078 0.61984 0.31356 0.0
C295 C 0.59872 0.58618 0.34573 0.0
C296 C 0.62054 0.66187 0.37087 0.0
C297 C 0.58901 0.80428 0.33113 0.0
H298 H 0.64129 0.63185 0.39598 0.0
H299 H 0.58428 0.88893 0.32607 0.0
H300 H 0.64365 0.00842 0.55137 0.0
H301 H 0.70202 0.99422 0.37647 0.0
C302 C 0.69195 0.69175 0.47135 0.0
C303 C 0.58742 0.80289 0.52967 0.0
C304 C 0.68578 0.88744 0.26149 0.0
C305 C 0.60459 0.09483 0.37962 0.0
H306 H 0.61463 0.64744 0.62451 0.0
H307 H 0.67238 0.58947 0.59241 0.0
H308 H 0.74048 0.62611 0.37835 0.0
H309 H 0.7349 0.7268 0.26062 0.0
H310 H 0.66384 0.06892 0.18551 0.0
H311 H 0.62127 0.18881 0.25236 0.0
H312 H 0.55092 0.13782 0.46555 0.0
H313 H 0.54008 0.96994 0.544 0.0
H314 H 0.68293 0.12066 0.61279 0.0
H315 H 0.74193 0.09717 0.43524 0.0
H316 H 0.54561 0.76231 0.28038 0.0
H317 H 0.60377 0.50161 0.35217 0.0
C318 C 0.44048 0.11141 0.03062 0.0
C319 C 0.45402 0.01346 0.01012 0.0
C320 C 0.43393 0.93499 0.02937 0.0
C321 C 0.40954 0.98851 0.06134 0.0
N322 N 0.41276 0.09614 0.06297 0.0
Co323 Co 0.38298 0.20215 0.10665 0.0
N324 N 0.36188 0.08835 0.16033 0.0
C325 C 0.36652 0.98154 0.15177 0.0
C326 C 0.34961 0.9216 0.19614 0.0
C327 C 0.33263 0.99471 0.2347 0.0
C328 C 0.33977 0.09555 0.21077 0.0
N329 N 0.35153 0.30622 0.14644 0.0
C330 C 0.32908 0.29361 0.19506 0.0
C331 C 0.31292 0.38917 0.20765 0.0
C332 C 0.326 0.465 0.16766 0.0
C333 C 0.34877 0.41086 0.13069 0.0
N334 N 0.40578 0.31588 0.05709 0.0
C335 C 0.3972 0.41985 0.05346 0.0
C336 C 0.41946 0.48195 0.02319 0.0
C337 C 0.44395 0.41318 0.00771 0.0
C338 C 0.43527 0.31304 0.02997 0.0
N339 N 0.35333 0.1771 0.02688 0.0
C340 C 0.30709 0.17966 0.91885 0.0
C341 C 0.33856 0.21003 0.90808 0.0
C342 C 0.36121 0.20627 0.96179 0.0
C343 C 0.30151 0.13065 0.98176 0.0
C344 C 0.32388 0.13557 0.03559 0.0
N345 N 0.41311 0.23294 0.18436 0.0
C346 C 0.43738 0.38148 0.24736 0.0
C347 C 0.4669 0.33242 0.24226 0.0
C348 C 0.4683 0.22531 0.2178 0.0
C349 C 0.44087 0.1761 0.19048 0.0
C350 C 0.41087 0.32967 0.22012 0.0
H351 H 0.44301 0.09489 0.17016 0.0
H352 H 0.3893 0.37398 0.22485 0.0
H353 H 0.38478 0.23164 0.95068 0.0
H354 H 0.31642 0.10825 0.08457 0.0
C355 C 0.3878 0.94062 0.1035 0.0
C356 C 0.4554 0.21661 0.02344 0.0
C357 C 0.32263 0.1942 0.23188 0.0
C358 C 0.37058 0.45836 0.08798 0.0
H359 H 0.47668 0.99845 0.98678 0.0
H360 H 0.43793 0.84895 0.0255 0.0
H361 H 0.34962 0.83498 0.20003 0.0
H362 H 0.31628 0.97512 0.27458 0.0
H363 H 0.2938 0.40222 0.24265 0.0
H364 H 0.31969 0.54938 0.16592 0.0
H365 H 0.41861 0.56789 0.0161 0.0
H366 H 0.46593 0.4345 0.98412 0.0
H367 H 0.34582 0.24084 0.85956 0.0
H368 H 0.27923 0.0932 0.99174 0.0
H369 H 0.43496 0.46222 0.26934 0.0
H370 H 0.4906 0.18242 0.21572 0.0
C371 C 0.12488 0.56671 0.5029 0.0
C372 C 0.13184 0.65801 0.46717 0.0
C373 C 0.16226 0.68434 0.48448 0.0
C374 C 0.17214 0.60713 0.52915 0.0
N375 N 0.15024 0.53189 0.53919 0.0
Co376 Co 0.15294 0.41199 0.60435 0.0
N377 N 0.191 0.47278 0.65132 0.0
C378 C 0.20753 0.55824 0.63101 0.0
C379 C 0.23101 0.58768 0.67634 0.0
C380 C 0.22974 0.51404 0.7269 0.0
C381 C 0.20629 0.4423 0.70933 0.0
N382 N 0.15543 0.29029 0.66913 0.0
C383 C 0.17614 0.26948 0.72127 0.0
C384 C 0.17183 0.16648 0.74521 0.0
C385 C 0.14824 0.1208 0.70652 0.0
C386 C 0.13951 0.19732 0.66084 0.0
N387 N 0.11461 0.35318 0.55723 0.0
C388 C 0.10395 0.25222 0.56069 0.0
C389 C 0.07533 0.23827 0.5286 0.0
C390 C 0.06724 0.33705 0.50419 0.0
C391 C 0.09164 0.40629 0.52239 0.0
N392 N 0.18091 0.32791 0.53962 0.0
C393 C 0.22489 0.23826 0.44369 0.0
C394 C 0.19371 0.26173 0.42448 0.0
C395 C 0.17239 0.30873 0.47228 0.0
C396 C 0.23227 0.24919 0.51378 0.0
C397 C 0.21001 0.29149 0.56055 0.0
N398 N 0.12511 0.49844 0.66729 0.0
C399 C 0.07218 0.53545 0.70841 0.0
C400 C 0.07807 0.64697 0.71431 0.0
C401 C 0.10924 0.67874 0.70346 0.0
C402 C 0.13203 0.60435 0.68076 0.0
C403 C 0.09603 0.46279 0.68581 0.0
H404 H 0.15452 0.63634 0.66883 0.0
H405 H 0.09018 0.3789 0.67889 0.0
H406 H 0.14967 0.33499 0.4535 0.0
H407 H 0.21734 0.298 0.61319 0.0
C408 C 0.19816 0.61563 0.57338 0.0
C409 C 0.09312 0.52162 0.50721 0.0
C410 C 0.2028 0.33844 0.74299 0.0
C411 C 0.11687 0.18355 0.60885 0.0
H412 H 0.1159 0.70421 0.4356 0.0
H413 H 0.17468 0.75601 0.47067 0.0
H414 H 0.24675 0.65535 0.67366 0.0
H415 H 0.24428 0.51144 0.77174 0.0
H416 H 0.1853 0.12535 0.78392 0.0
H417 H 0.13932 0.03987 0.7097 0.0
H418 H 0.06082 0.16709 0.52766 0.0
H419 H 0.04544 0.35393 0.47785 0.0
H420 H 0.18668 0.25338 0.37157 0.0
H421 H 0.2555 0.22773 0.53245 0.0
H422 H 0.04909 0.50412 0.71887 0.0
H423 H 0.11594 0.76233 0.70653 0.0
C424 C 0.27107 0.53468 0.90553 0.0
C425 C 0.30085 0.48753 0.9195 0.0
H426 H 0.22194 0.54669 0.93153 0.0
C427 C 0.30454 0.44042 0.98358 0.0
H428 H 0.26767 0.58261 0.86086 0.0
C429 C 0.27935 0.4359 0.02966 0.0
C430 C 0.24848 0.4664 0.01077 0.0
H431 H 0.3264 0.40172 0.99698 0.0
H432 H 0.28351 0.3996 0.07841 0.0
C433 C 0.24493 0.51883 0.94816 0.0
C434 C 0.25621 0.51188 0.48482 0.0
C435 C 0.26142 0.54097 0.41613 0.0
H436 H 0.27612 0.47569 0.58354 0.0
C437 C 0.29251 0.57302 0.40042 0.0
H438 H 0.2338 0.48224 0.50036 0.0
C439 C 0.31742 0.56426 0.4484 0.0
C440 C 0.31212 0.526 0.51429 0.0
H441 H 0.29848 0.60055 0.35022 0.0
H442 H 0.34115 0.58271 0.43283 0.0
C443 C 0.28097 0.50551 0.53303 0.0
C444 C 0.79003 0.13356 0.11535 0.0
C445 C 0.81463 0.01208 0.12623 0.0
H446 H 0.74462 0.20427 0.04726 0.0
C447 C 0.80765 0.89696 0.07144 0.0
H448 H 0.79348 0.20508 0.14733 0.0
C449 C 0.77765 0.89817 0.00758 0.0
C450 C 0.75252 0.01716 0.997 0.0
H451 H 0.822 0.82529 0.07471 0.0
H452 H 0.77728 0.83129 0.97118 0.0
C453 C 0.75939 0.13347 0.05172 0.0
C454 C 0.79107 0.78807 0.59237 0.0
C455 C 0.76087 0.83095 0.57854 0.0
H456 H 0.83925 0.76877 0.55825 0.0
C457 C 0.75389 0.84581 0.50834 0.0
H458 H 0.79672 0.76235 0.6437 0.0
C459 C 0.7778 0.84401 0.45781 0.0
C460 C 0.80963 0.82598 0.4758 0.0
H461 H 0.73065 0.87055 0.4933 0.0
H462 H 0.77171 0.86728 0.40615 0.0
C463 C 0.81543 0.78917 0.54265 0.0
C464 C 0.7608 0.99672 0.18835 0.0
C465 C 0.76148 0.97624 0.11133 0.0
H466 H 0.73981 0.99375 0.28817 0.0
C467 C 0.73269 0.90843 0.09903 0.0
H468 H 0.77856 0.03979 0.21808 0.0
C469 C 0.70891 0.8833 0.14482 0.0
C470 C 0.71057 0.91653 0.21231 0.0
H471 H 0.7259 0.87339 0.051 0.0
H472 H 0.6889 0.83624 0.12677 0.0
C473 C 0.73711 0.97064 0.23428 0.0
C474 C 0.77633 0.07988 0.5573 0.0
C475 C 0.74754 0.12588 0.57767 0.0
H476 H 0.82488 0.04406 0.57861 0.0
C477 C 0.74752 0.17889 0.64249 0.0
H478 H 0.77718 0.03514 0.51077 0.0
C479 C 0.77479 0.17952 0.68556 0.0
C480 C 0.80313 0.12807 0.66425 0.0
H481 H 0.72643 0.21892 0.65939 0.0
H482 H 0.77373 0.21926 0.73563 0.0
C483 C 0.80356 0.08178 0.59824 0.0
C484 C 0.24833 0.21152 0.89173 0.0
C485 C 0.28006 0.20858 0.86959 0.0
H486 H 0.20044 0.26086 0.87326 0.0
C487 C 0.28532 0.24279 0.80194 0.0
H488 H 0.24155 0.18007 0.94001 0.0
C489 C 0.26053 0.28379 0.761 0.0
C490 C 0.22955 0.29344 0.78622 0.0
H491 H 0.30858 0.23874 0.77987 0.0
H492 H 0.26572 0.30892 0.70955 0.0
C493 C 0.22397 0.25635 0.8522 0.0
C494 C 0.27108 0.13046 0.28549 0.0
C495 C 0.29835 0.195 0.28852 0.0
H496 H 0.2272 0.08906 0.33349 0.0
C497 C 0.30166 0.26694 0.34478 0.0
H498 H 0.26766 0.07337 0.24311 0.0
C499 C 0.27792 0.27855 0.3938 0.0
C500 C 0.25042 0.2169 0.39111 0.0
H501 H 0.32217 0.31795 0.34943 0.0
H502 H 0.28065 0.33969 0.43259 0.0
C503 C 0.2476 0.14047 0.33665 0.0
C504 C 0.05729 0.20063 0.33683 0.0
C505 C 0.06514 0.24995 0.27528 0.0
H506 H 1.02345 0.10902 0.39132 0.0
C507 C 0.04291 0.24721 0.22115 0.0
H508 H 0.07353 0.20335 0.37998 0.0
C509 C 1.01411 0.1929 0.22756 0.0
C510 C 1.00694 0.14 0.28826 0.0
H511 H 0.04798 0.28603 0.17357 0.0
H512 H 0.99728 0.19307 0.18538 0.0
C513 C 0.02874 0.14574 0.34309 0.0
C514 C 0.51052 0.19692 0.70059 0.0
C515 C 0.5046 0.28653 0.74574 0.0
H516 H 0.54328 0.07724 0.66197 0.0
C517 C 0.52993 0.32062 0.78802 0.0
H518 H 0.49213 0.16609 0.66685 0.0
C519 C 0.55976 0.26974 0.7838 0.0
C520 C 0.56503 0.1775 0.74127 0.0
H521 H 0.52672 0.38309 0.82699 0.0
H522 H 0.57869 0.30175 0.81528 0.0
C523 C 0.53999 0.14352 0.69852 0.0
C524 C 1.02065 0.71041 0.70563 0.0
C525 C 0.05213 0.73072 0.72559 0.0
H526 H 0.97358 0.76995 0.69478 0.0
C527 C 0.05896 0.83552 0.75123 0.0
H528 H 1.01391 0.63241 0.68458 0.0
C529 C 0.03586 0.91719 0.75398 0.0
C530 C 1.00444 0.89761 0.73314 0.0
H531 H 0.08235 0.85606 0.76938 0.0
H532 H 0.0432 0.99604 0.77209 0.0
C533 C 0.99732 0.79164 0.70982 0.0
C534 C 0.51553 0.37704 0.31313 0.0
C535 C 0.49552 0.39781 0.25721 0.0
H536 H 0.5542 0.43165 0.37611 0.0
C537 C 0.50125 0.48858 0.21805 0.0
H538 H 0.51138 0.30844 0.34468 0.0
C539 C 0.52603 0.55841 0.23502 0.0
C540 C 0.54563 0.54051 0.29242 0.0
H541 H 0.48618 0.50623 0.17448 0.0
H542 H 0.52963 0.62691 0.20313 0.0
C543 C 0.54016 0.44787 0.33082 0.0
C544 C 0.0344 0.1221 0.05286 0.0
C545 C 0.0516 0.19911 0.01745 0.0
H546 H 0.98999 0.04313 0.06408 0.0
C547 C 0.03787 0.2442 0.95921 0.0
H548 H 0.0442 0.08687 0.09865 0.0
C549 C 1.00734 0.21734 0.93863 0.0
C550 C 0.98934 0.1437 0.97507 0.0
H551 H 0.05043 0.3034 0.93062 0.0
H552 H 0.99749 0.25929 0.89573 0.0
C553 C 1.0034 0.09589 0.03252 0.0
C554 C 0.55272 0.67905 0.59617 0.0
C555 C 0.55933 0.73189 0.53528 0.0
H556 H 0.5239 0.56489 0.64608 0.0
C557 C 0.53955 0.7133 0.47793 0.0
H558 H 0.56576 0.69738 0.64286 0.0
C559 C 0.51501 0.63892 0.47992 0.0
C560 C 0.50949 0.58196 0.53984 0.0
H561 H 0.54311 0.75624 0.4314 0.0
H562 H 0.50035 0.62603 0.4346 0.0
C563 C 0.52848 0.60364 0.59813 0.0
C564 C 0.49832 0.17583 0.93861 0.0
C565 C 0.48914 0.22288 0.00168 0.0
H566 H 0.53628 0.11722 0.87604 0.0
C567 C 0.51264 0.26535 0.04609 0.0
H568 H 0.48074 0.14352 0.9035 0.0
C569 C 0.5448 0.25437 0.02916 0.0
C570 C 0.5538 0.19927 0.96813 0.0
H571 H 0.50619 0.30286 0.09496 0.0
H572 H 0.56256 0.28408 0.06508 0.0
C573 C 0.53013 0.16126 0.92295 0.0
C574 C 0.03743 0.57272 0.46771 0.0
C575 C 0.06468 0.59543 0.50716 0.0
H576 H 0.99056 0.62204 0.43912 0.0
C577 C 0.0654 0.69347 0.54542 0.0
H578 H 0.0368 0.50501 0.4318 0.0
C579 C 0.03942 0.764 0.54665 0.0
C580 C 1.01163 0.73781 0.5105 0.0
H581 H 0.08635 0.71667 0.57392 0.0
H582 H 0.04105 0.83915 0.57604 0.0
C583 C 1.01101 0.64155 0.47069 0.0
loop_
_geom_bond_atom_site_label_1
_geom_bond_atom_site_label_2
_geom_bond_distance
_geom_bond_site_symmetry_2
_ccdc_geom_bond_type
C0 C1 1.443 . S
C0 N4 1.376 . S
C0 C38 1.389 . S
C1 C0 1.443 . S
C1 C2 1.340 . S
C1 H41 0.951 . S
C2 C1 1.340 . S
C2 C3 1.439 . S
C2 H42 0.950 1_545 S
C3 C2 1.439 . S
C3 N4 1.374 . S
C3 C37 1.395 . S
N4 C0 1.376 . S
N4 C3 1.374 . S
N4 Co5 2.008 . S
Co5 N4 2.008 . S
Co5 N6 1.995 . S
Co5 N11 2.008 . S
Co5 N16 1.995 . S
Co5 N21 2.282 . S
Co5 N27 2.282 . S
N6 Co5 1.995 . S
N6 C7 1.376 . S
N6 C10 1.383 . S
C7 N6 1.376 . S
C7 C8 1.446 . S
C7 C37 1.391 . S
C8 C7 1.446 . S
C8 C9 1.339 . S
C8 H43 0.949 . S
C9 C8 1.339 . S
C9 C10 1.439 . S
C9 H44 0.950 . S
C10 N6 1.383 . S
C10 C9 1.439 . S
C10 C39 1.392 . S
N11 Co5 2.008 . S
N11 C12 1.376 . S
N11 C15 1.374 . S
C12 N11 1.376 . S
C12 C13 1.443 . S
C12 C39 1.389 . S
C13 C12 1.443 . S
C13 C14 1.340 . S
C13 H45 0.951 . S
C14 C13 1.340 . S
C14 C15 1.439 . S
C14 H46 0.950 . S
C15 N11 1.374 . S
C15 C14 1.439 . S
C15 C40 1.395 . S
N16 Co5 1.995 . S
N16 C17 1.376 . S
N16 C20 1.383 . S
C17 N16 1.376 . S
C17 C18 1.446 . S
C17 C40 1.391 . S
C18 C17 1.446 . S
C18 C19 1.339 . S
C18 H47 0.949 . S
C19 C18 1.339 . S
C19 C20 1.439 . S
C19 H48 0.950 . S
C20 N16 1.383 . S
C20 C19 1.439 . S
C20 C38 1.392 . S
N21 Co5 2.282 . S
N21 C24 1.332 . S
N21 C26 1.332 . S
C22 C23 1.386 . S
C22 C25 1.388 . S
C23 C22 1.386 . S
C23 C24 1.382 . S
C23 H49 0.950 . S
C24 N21 1.332 . S
C24 C23 1.382 . S
C24 H35 0.952 . S
C25 C22 1.388 . S
C25 C26 1.382 . S
C25 H50 0.950 . S
C26 N21 1.332 . S
C26 C25 1.382 . S
C26 H36 0.948 . S
N27 Co5 2.282 . S
N27 C31 1.332 . S
N27 C32 1.332 . S
C28 C29 1.388 . S
C28 C32 1.382 . S
C28 H51 0.950 . S
C29 C28 1.388 . S
C29 C30 1.386 . S
C30 C29 1.386 . S
C30 C31 1.382 . S
C30 H52 0.950 1_554 S
C31 N27 1.332 . S
C31 C30 1.382 . S
C31 H33 0.952 . S
C32 N27 1.332 . S
C32 C28 1.382 . S
C32 H34 0.948 . S
H33 C31 0.952 . S
H34 C32 0.948 . S
H35 C24 0.952 . S
H36 C26 0.948 . S
C37 C3 1.395 . S
C37 C7 1.391 . S
C38 C0 1.389 . S
C38 C20 1.392 . S
C39 C10 1.392 . S
C39 C12 1.389 . S
C40 C15 1.395 . S
C40 C17 1.391 . S
H41 C1 0.951 . S
H42 C2 0.950 1_565 S
H43 C8 0.949 . S
H44 C9 0.950 . S
H45 C13 0.951 . S
H46 C14 0.950 . S
H47 C18 0.949 . S
H48 C19 0.950 . S
H49 C23 0.950 . S
H50 C25 0.950 . S
H51 C28 0.950 . S
H52 C30 0.950 1_556 S
C53 C54 1.443 . S
C53 N57 1.376 . S
C53 C91 1.389 . S
C54 C53 1.443 . S
C54 C55 1.340 . S
C54 H94 0.951 . S
C55 C54 1.340 . S
C55 C56 1.439 . S
C55 H95 0.950 . S
C56 C55 1.439 . S
C56 N57 1.374 . S
C56 C90 1.395 . S
N57 C53 1.376 . S
N57 C56 1.374 . S
N57 Co58 2.008 . S
Co58 N57 2.008 . S
Co58 N59 1.995 . S
Co58 N64 2.008 . S
Co58 N69 1.995 . S
Co58 N74 2.282 . S
Co58 N80 2.282 . S
N59 Co58 1.995 . S
N59 C60 1.376 . S
N59 C63 1.383 . S
C60 N59 1.376 . S
C60 C61 1.446 . S
C60 C90 1.391 . S
C61 C60 1.446 . S
C61 C62 1.339 . S
C61 H96 0.949 . S
C62 C61 1.339 . S
C62 C63 1.439 . S
C62 H97 0.950 . S
C63 N59 1.383 . S
C63 C62 1.439 . S
C63 C92 1.392 . S
N64 Co58 2.008 . S
N64 C65 1.376 . S
N64 C68 1.374 . S
C65 N64 1.376 . S
C65 C66 1.443 . S
C65 C92 1.389 . S
C66 C65 1.443 . S
C66 C67 1.340 . S
C66 H98 0.951 . S
C67 C66 1.340 . S
C67 C68 1.439 . S
C67 H99 0.950 . S
C68 N64 1.374 . S
C68 C67 1.439 . S
C68 C93 1.395 . S
N69 Co58 1.995 . S
N69 C70 1.376 . S
N69 C73 1.383 . S
C70 N69 1.376 . S
C70 C71 1.446 . S
C70 C93 1.391 . S
C71 C70 1.446 . S
C71 C72 1.339 . S
C71 H100 0.949 . S
C72 C71 1.339 . S
C72 C73 1.439 . S
C72 H101 0.950 . S
C73 N69 1.383 . S
C73 C72 1.439 . S
C73 C91 1.392 . S
N74 Co58 2.282 . S
N74 C77 1.332 . S
N74 C79 1.332 . S
C75 C76 1.386 . S
C75 C78 1.388 . S
C76 C75 1.386 . S
C76 C77 1.382 . S
C76 H102 0.950 . S
C77 N74 1.332 . S
C77 C76 1.382 . S
C77 H88 0.952 . S
C78 C75 1.388 . S
C78 C79 1.382 . S
C78 H103 0.950 . S
C79 N74 1.332 . S
C79 C78 1.382 . S
C79 H89 0.948 . S
N80 Co58 2.282 . S
N80 C84 1.332 . S
N80 C85 1.332 . S
C81 C82 1.388 . S
C81 C85 1.382 . S
C81 H104 0.950 . S
C82 C81 1.388 . S
C82 C83 1.386 . S
C83 C82 1.386 . S
C83 C84 1.382 . S
C83 H105 0.950 . S
C84 N80 1.332 . S
C84 C83 1.382 . S
C84 H86 0.952 . S
C85 N80 1.332 . S
C85 C81 1.382 . S
C85 H87 0.948 . S
H86 C84 0.952 . S
H87 C85 0.948 . S
H88 C77 0.952 . S
H89 C79 0.948 . S
C90 C56 1.395 . S
C90 C60 1.391 . S
C91 C53 1.389 . S
C91 C73 1.392 . S
C92 C63 1.392 . S
C92 C65 1.389 . S
C93 C68 1.395 . S
C93 C70 1.391 . S
H94 C54 0.951 . S
H95 C55 0.950 . S
H96 C61 0.949 . S
H97 C62 0.950 . S
H98 C66 0.951 . S
H99 C67 0.950 . S
H100 C71 0.949 . S
H101 C72 0.950 . S
H102 C76 0.950 . S
H103 C78 0.950 . S
H104 C81 0.950 . S
H105 C83 0.950 . S
C106 C107 1.443 . S
C106 N110 1.376 . S
C106 C144 1.389 . S
C107 C106 1.443 . S
C107 C108 1.340 . S
C107 H147 0.951 . S
C108 C107 1.340 . S
C108 C109 1.439 . S
C108 H148 0.950 . S
C109 C108 1.439 . S
C109 N110 1.374 . S
C109 C143 1.395 . S
N110 C106 1.376 . S
N110 C109 1.374 . S
N110 Co111 2.008 . S
Co111 N110 2.008 . S
Co111 N112 1.995 . S
Co111 N117 2.008 1_545 S
Co111 N122 1.995 1_545 S
Co111 N127 2.282 . S
Co111 N133 2.282 . S
N112 Co111 1.995 . S
N112 C113 1.376 . S
N112 C116 1.383 . S
C113 N112 1.376 . S
C113 C114 1.446 . S
C113 C143 1.391 . S
C114 C113 1.446 . S
C114 C115 1.339 . S
C114 H149 0.949 . S
C115 C114 1.339 . S
C115 C116 1.439 . S
C115 H150 0.950 . S
C116 N112 1.383 . S
C116 C115 1.439 . S
C116 C145 1.392 1_545 S
N117 Co111 2.008 1_565 S
N117 C118 1.376 . S
N117 C121 1.374 . S
C118 N117 1.376 . S
C118 C119 1.443 . S
C118 C145 1.389 . S
C119 C118 1.443 . S
C119 C120 1.340 . S
C119 H151 0.951 . S
C120 C119 1.340 . S
C120 C121 1.439 . S
C120 H152 0.950 . S
C121 N117 1.374 . S
C121 C120 1.439 . S
C121 C146 1.395 . S
N122 Co111 1.995 1_565 S
N122 C123 1.376 . S
N122 C126 1.383 . S
C123 N122 1.376 . S
C123 C124 1.446 . S
C123 C146 1.391 . S
C124 C123 1.446 . S
C124 C125 1.339 . S
C124 H153 0.949 . S
C125 C124 1.339 . S
C125 C126 1.439 . S
C125 H154 0.950 . S
C126 N122 1.383 . S
C126 C125 1.439 . S
C126 C144 1.392 1_565 S
N127 Co111 2.282 . S
N127 C130 1.332 1_545 S
N127 C132 1.332 . S
C128 C129 1.386 . S
C128 C131 1.388 1_565 S
C129 C128 1.386 . S
C129 C130 1.382 . S
C129 H155 0.950 . S
C130 N127 1.332 1_565 S
C130 C129 1.382 . S
C130 H141 0.952 . S
C131 C128 1.388 1_545 S
C131 C132 1.382 . S
C131 H156 0.950 . S
C132 N127 1.332 . S
C132 C131 1.382 . S
C132 H142 0.948 . S
N133 Co111 2.282 . S
N133 C137 1.332 . S
N133 C138 1.332 1_545 S
C134 C135 1.388 1_565 S
C134 C138 1.382 . S
C134 H157 0.950 . S
C135 C134 1.388 1_545 S
C135 C136 1.386 . S
C136 C135 1.386 . S
C136 C137 1.382 . S
C136 H158 0.950 1_556 S
C137 N133 1.332 . S
C137 C136 1.382 . S
C137 H139 0.952 . S
C138 N133 1.332 1_565 S
C138 C134 1.382 . S
C138 H140 0.948 . S
H139 C137 0.952 . S
H140 C138 0.948 . S
H141 C130 0.952 . S
H142 C132 0.948 . S
C143 C109 1.395 . S
C143 C113 1.391 . S
C144 C106 1.389 . S
C144 C126 1.392 1_545 S
C145 C116 1.392 1_565 S
C145 C118 1.389 . S
C146 C121 1.395 . S
C146 C123 1.391 . S
H147 C107 0.951 . S
H148 C108 0.950 . S
H149 C114 0.949 . S
H150 C115 0.950 . S
H151 C119 0.951 . S
H152 C120 0.950 . S
H153 C124 0.949 . S
H154 C125 0.950 . S
H155 C129 0.950 . S
H156 C131 0.950 . S
H157 C134 0.950 . S
H158 C136 0.950 1_554 S
C159 C160 1.443 . S
C159 N163 1.376 . S
C159 C197 1.389 1_565 S
C160 C159 1.443 . S
C160 C161 1.340 . S
C160 H200 0.951 . S
C161 C160 1.340 . S
C161 C162 1.439 . S
C161 H201 0.950 . S
C162 C161 1.439 . S
C162 N163 1.374 . S
C162 C196 1.395 . S
N163 C159 1.376 . S
N163 C162 1.374 . S
N163 Co164 2.008 1_565 S
Co164 N163 2.008 1_545 S
Co164 N165 1.995 1_545 S
Co164 N170 2.008 . S
Co164 N175 1.995 . S
Co164 N180 2.282 . S
Co164 N186 2.282 1_545 S
N165 Co164 1.995 1_565 S
N165 C166 1.376 . S
N165 C169 1.383 . S
C166 N165 1.376 . S
C166 C167 1.446 . S
C166 C196 1.391 . S
C167 C166 1.446 . S
C167 C168 1.339 . S
C167 H202 0.949 . S
C168 C167 1.339 . S
C168 C169 1.439 . S
C168 H203 0.950 . S
C169 N165 1.383 . S
C169 C168 1.439 . S
C169 C198 1.392 . S
N170 Co164 2.008 . S
N170 C171 1.376 . S
N170 C174 1.374 . S
C171 N170 1.376 . S
C171 C172 1.443 . S
C171 C198 1.389 1_545 S
C172 C171 1.443 . S
C172 C173 1.340 . S
C172 H204 0.951 . S
C173 C172 1.340 . S
C173 C174 1.439 . S
C173 H205 0.950 . S
C174 N170 1.374 . S
C174 C173 1.439 . S
C174 C199 1.395 . S
N175 Co164 1.995 . S
N175 C176 1.376 . S
N175 C179 1.383 . S
C176 N175 1.376 . S
C176 C177 1.446 . S
C176 C199 1.391 . S
C177 C176 1.446 . S
C177 C178 1.339 . S
C177 H206 0.949 . S
C178 C177 1.339 . S
C178 C179 1.439 . S
C178 H207 0.950 . S
C179 N175 1.383 . S
C179 C178 1.439 . S
C179 C197 1.392 . S
N180 Co164 2.282 . S
N180 C183 1.332 . S
N180 C185 1.332 1_545 S
C181 C182 1.386 . S
C181 C184 1.388 . S
C182 C181 1.386 . S
C182 C183 1.382 . S
C182 H208 0.950 . S
C183 N180 1.332 . S
C183 C182 1.382 . S
C183 H194 0.952 . S
C184 C181 1.388 . S
C184 C185 1.382 1_545 S
C184 H209 0.950 1_545 S
C185 N180 1.332 1_565 S
C185 C184 1.382 1_565 S
C185 H195 0.948 . S
N186 Co164 2.282 1_565 S
N186 C190 1.332 . S
N186 C191 1.332 1_565 S
C187 C188 1.388 . S
C187 C191 1.382 1_565 S
C187 H210 0.950 1_565 S
C188 C187 1.388 . S
C188 C189 1.386 . S
C189 C188 1.386 . S
C189 C190 1.382 . S
C189 H211 0.950 . S
C190 N186 1.332 . S
C190 C189 1.382 . S
C190 H192 0.952 . S
C191 N186 1.332 1_545 S
C191 C187 1.382 1_545 S
C191 H193 0.948 . S
H192 C190 0.952 . S
H193 C191 0.948 . S
H194 C183 0.952 . S
H195 C185 0.948 . S
C196 C162 1.395 . S
C196 C166 1.391 . S
C197 C159 1.389 1_545 S
C197 C179 1.392 . S
C198 C169 1.392 . S
C198 C171 1.389 1_565 S
C199 C174 1.395 . S
C199 C176 1.391 . S
H200 C160 0.951 . S
H201 C161 0.950 . S
H202 C167 0.949 . S
H203 C168 0.950 . S
H204 C172 0.951 . S
H205 C173 0.950 . S
H206 C177 0.949 . S
H207 C178 0.950 . S
H208 C182 0.950 . S
H209 C184 0.950 1_565 S
H210 C187 0.950 1_545 S
H211 C189 0.950 . S
C212 C213 1.443 . S
C212 N216 1.376 . S
C212 C250 1.389 1_556 S
C213 C212 1.443 . S
C213 C214 1.340 . S
C213 H253 0.951 . S
C214 C213 1.340 . S
C214 C215 1.439 . S
C214 H254 0.950 . S
C215 C214 1.439 . S
C215 N216 1.374 . S
C215 C249 1.395 . S
N216 C212 1.376 . S
N216 C215 1.374 . S
N216 Co217 2.008 1_545 S
Co217 N216 2.008 1_565 S
Co217 N218 1.995 1_565 S
Co217 N223 2.008 . S
Co217 N228 1.995 . S
Co217 N233 2.282 1_565 S
Co217 N239 2.282 . S
N218 Co217 1.995 1_545 S
N218 C219 1.376 . S
N218 C222 1.383 . S
C219 N218 1.376 . S
C219 C220 1.446 . S
C219 C249 1.391 . S
C220 C219 1.446 . S
C220 C221 1.339 . S
C220 H255 0.949 . S
C221 C220 1.339 . S
C221 C222 1.439 . S
C221 H256 0.950 . S
C222 N218 1.383 . S
C222 C221 1.439 . S
C222 C251 1.392 1_545 S
N223 Co217 2.008 . S
N223 C224 1.376 . S
N223 C227 1.374 . S
C224 N223 1.376 . S
C224 C225 1.443 . S
C224 C251 1.389 . S
C225 C224 1.443 . S
C225 C226 1.340 . S
C225 H257 0.951 . S
C226 C225 1.340 . S
C226 C227 1.439 . S
C226 H258 0.950 . S
C227 N223 1.374 . S
C227 C226 1.439 . S
C227 C252 1.395 . S
N228 Co217 1.995 . S
N228 C229 1.376 1_556 S
N228 C232 1.383 1_556 S
C229 N228 1.376 1_554 S
C229 C230 1.446 . S
C229 C252 1.391 1_554 S
C230 C229 1.446 . S
C230 C231 1.339 . S
C230 H259 0.949 . S
C231 C230 1.339 . S
C231 C232 1.439 . S
C231 H260 0.950 . S
C232 N228 1.383 1_554 S
C232 C231 1.439 . S
C232 C250 1.392 1_565 S
N233 Co217 2.282 1_545 S
N233 C236 1.332 1_546 S
N233 C238 1.332 . S
C234 C235 1.386 . S
C234 C237 1.388 . S
C235 C234 1.386 . S
C235 C236 1.382 1_545 S
C235 H261 0.950 1_545 S
C236 N233 1.332 1_564 S
C236 C235 1.382 1_565 S
C236 H247 0.952 . S
C237 C234 1.388 . S
C237 C238 1.382 1_554 S
C237 H262 0.950 . S
C238 N233 1.332 . S
C238 C237 1.382 1_556 S
C238 H248 0.948 . S
N239 Co217 2.282 . S
N239 C243 1.327 1_565 S
N239 C244 1.332 . S
C240 C241 1.388 . S
C240 C244 1.382 . S
C240 H263 0.950 . S
C241 C240 1.388 . S
C241 C242 1.386 . S
C242 C241 1.386 . S
C242 C243 1.380 1_565 S
C242 H264 0.950 1_565 S
C243 N239 1.327 1_545 S
C243 C242 1.380 1_545 S
C243 H245 0.959 . S
C244 N239 1.332 . S
C244 C240 1.382 . S
C244 H246 0.948 . S
H245 C243 0.959 . S
H246 C244 0.948 . S
H247 C236 0.952 . S
H248 C238 0.948 . S
C249 C215 1.395 . S
C249 C219 1.391 . S
C250 C212 1.389 1_554 S
C250 C232 1.392 1_545 S
C251 C222 1.392 1_565 S
C251 C224 1.389 . S
C252 C227 1.395 . S
C252 C229 1.391 1_556 S
H253 C213 0.951 . S
H254 C214 0.950 . S
H255 C220 0.949 . S
H256 C221 0.950 . S
H257 C225 0.951 . S
H258 C226 0.950 . S
H259 C230 0.949 . S
H260 C231 0.950 . S
H261 C235 0.950 1_565 S
H262 C237 0.950 . S
H263 C240 0.950 . S
H264 C242 0.950 1_545 S
C265 C266 1.443 . S
C265 N269 1.376 . S
C265 C303 1.389 . S
C266 C265 1.443 . S
C266 C267 1.340 . S
C266 H306 0.951 . S
C267 C266 1.340 . S
C267 C268 1.439 . S
C267 H307 0.950 . S
C268 C267 1.439 . S
C268 N269 1.374 . S
C268 C302 1.395 . S
N269 C265 1.376 . S
N269 C268 1.374 . S
N269 Co270 2.008 . S
Co270 N269 2.008 . S
Co270 N271 1.995 . S
Co270 N276 2.008 1_565 S
Co270 N281 1.995 1_565 S
Co270 N286 2.282 1_565 S
Co270 N292 2.282 . S
N271 Co270 1.995 . S
N271 C272 1.376 . S
N271 C275 1.383 . S
C272 N271 1.376 . S
C272 C273 1.446 . S
C272 C302 1.391 . S
C273 C272 1.446 . S
C273 C274 1.339 . S
C273 H308 0.949 . S
C274 C273 1.339 . S
C274 C275 1.439 . S
C274 H309 0.950 . S
C275 N271 1.383 . S
C275 C274 1.439 . S
C275 C304 1.392 1_565 S
N276 Co270 2.008 1_545 S
N276 C277 1.376 . S
N276 C280 1.374 . S
C277 N276 1.376 . S
C277 C278 1.443 . S
C277 C304 1.389 . S
C278 C277 1.443 . S
C278 C279 1.340 . S
C278 H310 0.951 . S
C279 C278 1.340 . S
C279 C280 1.439 . S
C279 H311 0.950 . S
C280 N276 1.374 . S
C280 C279 1.439 . S
C280 C305 1.395 . S
N281 Co270 1.995 1_545 S
N281 C282 1.376 . S
N281 C285 1.383 1_545 S
C282 N281 1.376 . S
C282 C283 1.446 . S
C282 C305 1.391 . S
C283 C282 1.446 . S
C283 C284 1.339 . S
C283 H312 0.949 . S
C284 C283 1.339 . S
C284 C285 1.439 1_545 S
C284 H313 0.950 . S
C285 N281 1.383 1_565 S
C285 C284 1.439 1_565 S
C285 C303 1.392 . S
N286 Co270 2.282 1_545 S
N286 C289 1.332 . S
N286 C291 1.332 1_545 S
C287 C288 1.386 . S
C287 C290 1.388 1_545 S
C288 C287 1.386 . S
C288 C289 1.382 . S
C288 H314 0.950 . S
C289 N286 1.332 . S
C289 C288 1.382 . S
C289 H300 0.952 . S
C290 C287 1.388 1_565 S
C290 C291 1.382 . S
C290 H315 0.950 . S
C291 N286 1.332 1_565 S
C291 C290 1.382 . S
C291 H301 0.948 . S
N292 Co270 2.282 . S
N292 C296 1.332 . S
N292 C297 1.332 . S
C293 C294 1.388 . S
C293 C297 1.382 . S
C293 H316 0.950 . S
C294 C293 1.388 . S
C294 C295 1.386 . S
C295 C294 1.386 . S
C295 C296 1.382 . S
C295 H317 0.950 . S
C296 N292 1.332 . S
C296 C295 1.382 . S
C296 H298 0.952 . S
C297 N292 1.332 . S
C297 C293 1.382 . S
C297 H299 0.948 1_565 S
H298 C296 0.952 . S
H299 C297 0.948 1_545 S
H300 C289 0.952 . S
H301 C291 0.948 . S
C302 C268 1.395 . S
C302 C272 1.391 . S
C303 C265 1.389 . S
C303 C285 1.392 . S
C304 C275 1.392 1_545 S
C304 C277 1.389 . S
C305 C280 1.395 . S
C305 C282 1.391 . S
H306 C266 0.951 . S
H307 C267 0.950 . S
H308 C273 0.949 . S
H309 C274 0.950 . S
H310 C278 0.951 . S
H311 C279 0.950 . S
H312 C283 0.949 . S
H313 C284 0.950 . S
H314 C288 0.950 . S
H315 C290 0.950 . S
H316 C293 0.950 . S
H317 C295 0.950 . S
C318 C319 1.443 . S
C318 N322 1.376 . S
C318 C356 1.389 1_554 S
C319 C318 1.443 . S
C319 C320 1.340 . S
C319 H359 0.951 . S
C320 C319 1.340 . S
C320 C321 1.439 . S
C320 H360 0.950 1_545 S
C321 C320 1.439 . S
C321 N322 1.374 . S
C321 C355 1.395 . S
N322 C318 1.376 . S
N322 C321 1.374 . S
N322 Co323 2.008 . S
Co323 N322 2.008 . S
Co323 N324 1.995 . S
Co323 N329 2.008 . S
Co323 N334 1.995 . S
Co323 N339 2.282 . S
Co323 N345 2.282 . S
N324 Co323 1.995 . S
N324 C325 1.376 . S
N324 C328 1.383 . S
C325 N324 1.376 . S
C325 C326 1.446 . S
C325 C355 1.391 . S
C326 C325 1.446 . S
C326 C327 1.339 . S
C326 H361 0.949 . S
C327 C326 1.339 . S
C327 C328 1.439 . S
C327 H362 0.950 . S
C328 N324 1.383 . S
C328 C327 1.439 . S
C328 C357 1.392 . S
N329 Co323 2.008 . S
N329 C330 1.376 . S
N329 C333 1.374 . S
C330 N329 1.376 . S
C330 C331 1.443 . S
C330 C357 1.389 . S
C331 C330 1.443 . S
C331 C332 1.340 . S
C331 H363 0.951 . S
C332 C331 1.340 . S
C332 C333 1.439 . S
C332 H364 0.950 . S
C333 N329 1.374 . S
C333 C332 1.439 . S
C333 C358 1.395 . S
N334 Co323 1.995 . S
N334 C335 1.376 1_554 S
N334 C338 1.383 1_554 S
C335 N334 1.376 1_556 S
C335 C336 1.446 . S
C335 C358 1.391 1_556 S
C336 C335 1.446 . S
C336 C337 1.339 . S
C336 H365 0.949 . S
C337 C336 1.339 . S
C337 C338 1.439 . S
C337 H366 0.950 . S
C338 N334 1.383 1_556 S
C338 C337 1.439 . S
C338 C356 1.392 . S
N339 Co323 2.282 . S
N339 C342 1.332 1_554 S
N339 C344 1.332 . S
C340 C341 1.386 . S
C340 C343 1.388 . S
C341 C340 1.386 . S
C341 C342 1.382 . S
C341 H367 0.950 . S
C342 N339 1.332 1_556 S
C342 C341 1.382 . S
C342 H353 0.952 . S
C343 C340 1.388 . S
C343 C344 1.382 1_556 S
C343 H368 0.950 . S
C344 N339 1.332 . S
C344 C343 1.382 1_554 S
C344 H354 0.948 . S
N345 Co323 2.282 . S
N345 C349 1.332 . S
N345 C350 1.332 . S
C346 C347 1.388 . S
C346 C350 1.382 . S
C346 H369 0.950 . S
C347 C346 1.388 . S
C347 C348 1.386 . S
C348 C347 1.386 . S
C348 C349 1.382 . S
C348 H370 0.950 . S
C349 N345 1.332 . S
C349 C348 1.382 . S
C349 H351 0.952 . S
C350 N345 1.332 . S
C350 C346 1.382 . S
C350 H352 0.948 . S
H351 C349 0.952 . S
H352 C350 0.948 . S
H353 C342 0.952 . S
H354 C344 0.948 . S
C355 C321 1.395 . S
C355 C325 1.391 . S
C356 C318 1.389 1_556 S
C356 C338 1.392 . S
C357 C328 1.392 . S
C357 C330 1.389 . S
C358 C333 1.395 . S
C358 C335 1.391 1_554 S
H359 C319 0.951 . S
H360 C320 0.950 1_565 S
H361 C326 0.949 . S
H362 C327 0.950 . S
H363 C331 0.951 . S
H364 C332 0.950 . S
H365 C336 0.949 . S
H366 C337 0.950 . S
H367 C341 0.950 . S
H368 C343 0.950 . S
H369 C346 0.950 . S
H370 C348 0.950 . S
C371 C372 1.443 . S
C371 N375 1.376 . S
C371 C409 1.389 . S
C372 C371 1.443 . S
C372 C373 1.340 . S
C372 H412 0.951 . S
C373 C372 1.340 . S
C373 C374 1.439 . S
C373 H413 0.950 . S
C374 C373 1.439 . S
C374 N375 1.374 . S
C374 C408 1.395 . S
N375 C371 1.376 . S
N375 C374 1.374 . S
N375 Co376 2.008 . S
Co376 N375 2.008 . S
Co376 N377 1.995 . S
Co376 N382 2.008 . S
Co376 N387 1.995 . S
Co376 N392 2.282 . S
Co376 N398 2.282 . S
N377 Co376 1.995 . S
N377 C378 1.376 . S
N377 C381 1.383 . S
C378 N377 1.376 . S
C378 C379 1.446 . S
C378 C408 1.391 . S
C379 C378 1.446 . S
C379 C380 1.339 . S
C379 H414 0.949 . S
C380 C379 1.339 . S
C380 C381 1.439 . S
C380 H415 0.950 . S
C381 N377 1.383 . S
C381 C380 1.439 . S
C381 C410 1.392 . S
N382 Co376 2.008 . S
N382 C383 1.376 . S
N382 C386 1.374 . S
C383 N382 1.376 . S
C383 C384 1.443 . S
C383 C410 1.389 . S
C384 C383 1.443 . S
C384 C385 1.340 . S
C384 H416 0.951 . S
C385 C384 1.340 . S
C385 C386 1.439 . S
C385 H417 0.950 1_545 S
C386 N382 1.374 . S
C386 C385 1.439 . S
C386 C411 1.395 . S
N387 Co376 1.995 . S
N387 C388 1.376 . S
N387 C391 1.383 . S
C388 N387 1.376 . S
C388 C389 1.446 . S
C388 C411 1.391 . S
C389 C388 1.446 . S
C389 C390 1.339 . S
C389 H418 0.949 . S
C390 C389 1.339 . S
C390 C391 1.439 . S
C390 H419 0.950 . S
C391 N387 1.383 . S
C391 C390 1.439 . S
C391 C409 1.392 . S
N392 Co376 2.282 . S
N392 C395 1.332 . S
N392 C397 1.332 . S
C393 C394 1.386 . S
C393 C396 1.388 . S
C394 C393 1.386 . S
C394 C395 1.382 . S
C394 H420 0.950 . S
C395 N392 1.332 . S
C395 C394 1.382 . S
C395 H406 0.952 . S
C396 C393 1.388 . S
C396 C397 1.382 . S
C396 H421 0.950 . S
C397 N392 1.332 . S
C397 C396 1.382 . S
C397 H407 0.948 . S
N398 Co376 2.282 . S
N398 C402 1.332 . S
N398 C403 1.332 . S
C399 C400 1.388 . S
C399 C403 1.382 . S
C399 H422 0.950 . S
C400 C399 1.388 . S
C400 C401 1.386 . S
C401 C400 1.386 . S
C401 C402 1.382 . S
C401 H423 0.950 . S
C402 N398 1.332 . S
C402 C401 1.382 . S
C402 H404 0.952 . S
C403 N398 1.332 . S
C403 C399 1.382 . S
C403 H405 0.948 . S
H404 C402 0.952 . S
H405 C403 0.948 . S
H406 C395 0.952 . S
H407 C397 0.948 . S
C408 C374 1.395 . S
C408 C378 1.391 . S
C409 C371 1.389 . S
C409 C391 1.392 . S
C410 C381 1.392 . S
C410 C383 1.389 . S
C411 C386 1.395 . S
C411 C388 1.391 . S
H412 C372 0.951 . S
H413 C373 0.950 . S
H414 C379 0.949 . S
H415 C380 0.950 . S
H416 C384 0.951 . S
H417 C385 0.950 1_565 S
H418 C389 0.949 . S
H419 C390 0.950 . S
H420 C394 0.950 . S
H421 C396 0.950 . S
H422 C399 0.950 . S
H423 C401 0.950 . S
C424 C425 1.387 . S
C424 H428 0.950 . S
C424 C433 1.390 . S
C425 C424 1.387 . S
C425 C427 1.387 . S
H426 C433 0.950 . S
C427 C425 1.387 . S
C427 C429 1.390 . S
C427 H431 0.950 . S
H428 C424 0.950 . S
C429 C427 1.390 . S
C429 C430 1.387 . S
C429 H432 0.950 . S
C430 C429 1.387 . S
C430 C433 1.387 . S
H431 C427 0.950 . S
H432 C429 0.950 . S
C433 C424 1.390 . S
C433 H426 0.950 . S
C433 C430 1.387 . S
C434 C435 1.387 . S
C434 H438 0.950 . S
C434 C443 1.390 . S
C435 C434 1.387 . S
C435 C437 1.387 . S
H436 C443 0.950 . S
C437 C435 1.387 . S
C437 C439 1.390 . S
C437 H441 0.950 . S
H438 C434 0.950 . S
C439 C437 1.390 . S
C439 C440 1.387 . S
C439 H442 0.950 . S
C440 C439 1.387 . S
C440 C443 1.387 . S
H441 C437 0.950 . S
H442 C439 0.950 . S
C443 C434 1.390 . S
C443 H436 0.950 . S
C443 C440 1.387 . S
C444 C445 1.387 . S
C444 H448 0.950 . S
C444 C453 1.390 . S
C445 C444 1.387 . S
C445 C447 1.388 1_545 S
H446 C453 0.950 1_556 S
C447 C445 1.388 1_565 S
C447 C449 1.390 . S
C447 H451 0.949 . S
H448 C444 0.950 . S
C449 C447 1.390 . S
C449 C450 1.387 1_565 S
C449 H452 0.950 . S
C450 C449 1.387 1_545 S
C450 C453 1.387 . S
H451 C447 0.949 . S
H452 C449 0.950 . S
C453 C444 1.390 . S
C453 H446 0.950 1_554 S
C453 C450 1.387 . S
C454 C455 1.387 . S
C454 H458 0.950 . S
C454 C463 1.390 . S
C455 C454 1.387 . S
C455 C457 1.387 1_565 S
H456 C463 0.950 . S
C457 C455 1.387 1_545 S
C457 C459 1.390 . S
C457 H461 0.950 . S
H458 C454 0.950 . S
C459 C457 1.390 . S
C459 C460 1.387 1_545 S
C459 H462 0.950 . S
C460 C459 1.387 1_565 S
C460 C463 1.387 . S
H461 C457 0.950 . S
H462 C459 0.950 . S
C463 C454 1.390 . S
C463 H456 0.950 . S
C463 C460 1.387 . S
C464 C465 1.387 . S
C464 H468 0.950 . S
C464 C473 1.390 . S
C465 C464 1.387 . S
C465 C467 1.387 . S
H466 C473 0.950 . S
C467 C465 1.387 . S
C467 C469 1.390 1_545 S
C467 H471 0.950 1_545 S
H468 C464 0.950 . S
C469 C467 1.390 1_565 S
C469 C470 1.387 1_565 S
C469 H472 0.950 . S
C470 C469 1.387 1_545 S
C470 C473 1.387 . S
H471 C467 0.950 1_565 S
H472 C469 0.950 . S
C473 C464 1.390 . S
C473 H466 0.950 . S
C473 C470 1.387 . S
C474 C475 1.387 1_565 S
C474 H478 0.950 . S
C474 C483 1.390 . S
C475 C474 1.387 1_545 S
C475 C477 1.387 . S
H476 C483 0.950 . S
C477 C475 1.387 . S
C477 C479 1.390 . S
C477 H481 0.950 . S
H478 C474 0.950 . S
C479 C477 1.390 . S
C479 C480 1.387 1_545 S
C479 H482 0.950 . S
C480 C479 1.387 1_565 S
C480 C483 1.387 . S
H481 C477 0.950 . S
H482 C479 0.950 . S
C483 C474 1.390 . S
C483 H476 0.950 . S
C483 C480 1.387 . S
C484 C485 1.387 . S
C484 H488 0.950 . S
C484 C493 1.390 . S
C485 C484 1.387 . S
C485 C487 1.387 . S
H486 C493 0.950 . S
C487 C485 1.387 . S
C487 C489 1.390 . S
C487 H491 0.950 . S
H488 C484 0.950 . S
C489 C487 1.390 . S
C489 C490 1.387 . S
C489 H492 0.950 . S
C490 C489 1.387 . S
C490 C493 1.387 . S
H491 C487 0.950 . S
H492 C489 0.950 . S
C493 C484 1.390 . S
C493 H486 0.950 . S
C493 C490 1.387 . S
C494 C495 1.387 . S
C494 H498 0.950 . S
C494 C503 1.390 . S
C495 C494 1.387 . S
C495 C497 1.387 . S
H496 C503 0.950 . S
C497 C495 1.387 . S
C497 C499 1.390 . S
C497 H501 0.950 . S
H498 C494 0.950 . S
C499 C497 1.390 . S
C499 C500 1.387 . S
C499 H502 0.950 . S
C500 C499 1.387 . S
C500 C503 1.387 . S
H501 C497 0.950 . S
H502 C499 0.950 . S
C503 C494 1.390 . S
C503 H496 0.950 . S
C503 C500 1.387 . S
C504 C505 1.387 . S
C504 H508 0.950 . S
C504 C513 1.390 . S
C505 C504 1.387 . S
C505 C507 1.387 . S
H506 C513 0.950 1_655 S
C507 C505 1.387 . S
C507 C509 1.390 1_455 S
C507 H511 0.950 . S
H508 C504 0.950 . S
C509 C507 1.390 1_655 S
C509 C510 1.387 . S
C509 H512 0.950 . S
C510 C509 1.387 . S
C510 C513 1.387 1_655 S
H511 C507 0.950 . S
H512 C509 0.950 . S
C513 C504 1.390 . S
C513 H506 0.950 1_455 S
C513 C510 1.387 1_455 S
C514 C515 1.387 . S
C514 H518 0.950 . S
C514 C523 1.390 . S
C515 C514 1.387 . S
C515 C517 1.387 . S
H516 C523 0.950 . S
C517 C515 1.387 . S
C517 C519 1.390 . S
C517 H521 0.950 . S
H518 C514 0.950 . S
C519 C517 1.390 . S
C519 C520 1.387 . S
C519 H522 0.950 . S
C520 C519 1.387 . S
C520 C523 1.387 . S
H521 C517 0.950 . S
H522 C519 0.950 . S
C523 C514 1.390 . S
C523 H516 0.950 . S
C523 C520 1.387 . S
C524 C525 1.387 1_655 S
C524 H528 0.950 1_655 S
C524 C533 1.390 . S
C525 C524 1.387 1_455 S
C525 C527 1.387 . S
H526 C533 0.950 . S
C527 C525 1.387 . S
C527 C529 1.390 1_455 S
C527 H531 0.950 . S
H528 C524 0.950 1_455 S
C529 C527 1.390 1_655 S
C529 C530 1.387 . S
C529 H532 0.950 . S
C530 C529 1.387 . S
C530 C533 1.387 . S
H531 C527 0.950 . S
H532 C529 0.950 . S
C533 C524 1.390 . S
C533 H526 0.950 . S
C533 C530 1.387 . S
C534 C535 1.387 . S
C534 H538 0.950 . S
C534 C543 1.390 . S
C535 C534 1.387 . S
C535 C537 1.387 . S
H536 C543 0.950 . S
C537 C535 1.387 . S
C537 C539 1.390 . S
C537 H541 0.950 . S
H538 C534 0.950 . S
C539 C537 1.390 . S
C539 C540 1.387 . S
C539 H542 0.950 . S
C540 C539 1.387 . S
C540 C543 1.387 . S
H541 C537 0.950 . S
H542 C539 0.950 . S
C543 C534 1.390 . S
C543 H536 0.950 . S
C543 C540 1.387 . S
C544 C545 1.387 1_554 S
C544 H548 0.950 . S
C544 C553 1.390 1_455 S
C545 C544 1.387 1_556 S
C545 C547 1.387 1_455 S
H546 C553 0.950 . S
C547 C545 1.387 1_655 S
C547 C549 1.390 . S
C547 H551 0.950 1_655 S
H548 C544 0.950 . S
C549 C547 1.390 . S
C549 C550 1.387 1_556 S
C549 H552 0.950 . S
C550 C549 1.387 1_554 S
C550 C553 1.387 . S
H551 C547 0.950 1_455 S
H552 C549 0.950 . S
C553 C544 1.390 1_655 S
C553 H546 0.950 . S
C553 C550 1.387 . S
C554 C555 1.387 . S
C554 H558 0.950 . S
C554 C563 1.390 . S
C555 C554 1.387 . S
C555 C557 1.387 . S
H556 C563 0.950 . S
C557 C555 1.387 . S
C557 C559 1.390 . S
C557 H561 0.950 . S
H558 C554 0.950 . S
C559 C557 1.390 . S
C559 C560 1.387 . S
C559 H562 0.950 . S
C560 C559 1.387 . S
C560 C563 1.387 . S
H561 C557 0.950 . S
H562 C559 0.950 . S
C563 C554 1.390 . S
C563 H556 0.950 . S
C563 C560 1.387 . S
C564 C565 1.387 . S
C564 H568 0.950 . S
C564 C573 1.390 . S
C565 C564 1.387 . S
C565 C567 1.387 1_556 S
H566 C573 0.950 . S
C567 C565 1.387 1_554 S
C567 C569 1.390 . S
C567 H571 0.950 . S
H568 C564 0.950 . S
C569 C567 1.390 . S
C569 C570 1.387 . S
C569 H572 0.950 . S
C570 C569 1.387 . S
C570 C573 1.387 1_554 S
H571 C567 0.950 . S
H572 C569 0.950 . S
C573 C564 1.390 . S
C573 H566 0.950 . S
C573 C570 1.387 1_556 S
C574 C575 1.387 . S
C574 H578 0.950 . S
C574 C583 1.390 . S
C575 C574 1.387 . S
C575 C577 1.387 . S
H576 C583 0.951 1_655 S
C577 C575 1.387 . S
C577 C579 1.390 . S
C577 H581 0.950 . S
H578 C574 0.950 . S
C579 C577 1.390 . S
C579 C580 1.387 . S
C579 H582 0.950 . S
C580 C579 1.387 . S
C580 C583 1.387 . S
H581 C577 0.950 . S
H582 C579 0.950 . S
C583 C574 1.390 . S
C583 H576 0.951 1_455 S
C583 C580 1.387 . S
C425 C75 2.119 . S
C430 C39 2.162 1_556 S
C435 C22 1.961 . S
C440 C92 1.928 . S
C445 C181 2.182 . S
C450 C145 2.235 1_544 S
C455 C128 1.954 . S
C460 C198 1.921 . S
C465 C234 2.035 . S
C470 C304 2.075 . S
C475 C287 1.998 . S
C480 C251 2.034 . S
C485 C340 2.072 . S
C490 C410 2.117 . S
C495 C357 1.963 . S
C500 C393 1.930 . S
C505 C38 1.738 . S
C510 C197 1.762 . S
C515 C91 1.846 . S
C520 C144 1.822 . S
C525 C400 1.772 . S
C530 C241 1.747 . S
C535 C347 1.864 . S
C540 C294 1.891 . S
C545 C29 1.551 1_556 S
C550 C250 1.570 . S
C555 C303 1.733 . S
C560 C82 1.757 . S
C565 C356 1.461 . S
C570 C135 1.439 1_554 S
C575 C409 1.880 . S
C580 C188 1.899 1_455 S
