# Generated by pormake.
# Topology uoy, (4)-cn, num edge types: 1
# Building blocks:
#     Node 0, Type 0, BuildingBlock: CEKHIL_clean_sbu_0, # of connection points: 4
#     Node 1, Type 0, BuildingBlock: CEKHIL_clean_sbu_0, # of connection points: 4
#     Node 2, Type 0, BuildingBlock: CEKHIL_clean_sbu_0, # of connection points: 4
#     Node 3, Type 0, BuildingBlock: CEKHIL_clean_sbu_0, # of connection points: 4
#     Node 4, Type 0, BuildingBlock: CEKHIL_clean_sbu_0, # of connection points: 4
#     Node 5, Type 0, BuildingBlock: CEKHIL_clean_sbu_0, # of connection points: 4
#     Node 6, Type 0, BuildingBlock: CEKHIL_clean_sbu_0, # of connection points: 4
#     Node 7, Type 0, BuildingBlock: CEKHIL_clean_sbu_0, # of connection points: 4
#     Node 8, Type 0, BuildingBlock: CEKHIL_clean_sbu_0, # of connection points: 4
#     Node 9, Type 0, BuildingBlock: CEKHIL_clean_sbu_0, # of connection points: 4
#     Node 10, Type 0, BuildingBlock: CEKHIL_clean_sbu_0, # of connection points: 4
#     Node 11, Type 0, BuildingBlock: CEKHIL_clean_sbu_0, # of connection points: 4
#     Node 12, Type 0, BuildingBlock: CEKHIL_clean_sbu_0, # of connection points: 4
#     Node 13, Type 0, BuildingBlock: CEKHIL_clean_sbu_0, # of connection points: 4
#     Node 14, Type 0, BuildingBlock: CEKHIL_clean_sbu_0, # of connection points: 4
#     Node 15, Type 0, BuildingBlock: CEKHIL_clean_sbu_0, # of connection points: 4
#     Edge 16, Type (0, 0), BuildingBlock: KIFKEQ_clean_linker_1, # of connection points: 2
#     Edge 17, Type (0, 0), BuildingBlock: KIFKEQ_clean_linker_1, # of connection points: 2
#     Edge 18, Type (0, 0), BuildingBlock: KIFKEQ_clean_linker_1, # of connection points: 2
#     Edge 19, Type (0, 0), BuildingBlock: KIFKEQ_clean_linker_1, # of connection points: 2
#     Edge 20, Type (0, 0), BuildingBlock: KIFKEQ_clean_linker_1, # of connection points: 2
#     Edge 21, Type (0, 0), BuildingBlock: KIFKEQ_clean_linker_1, # of connection points: 2
#     Edge 22, Type (0, 0), BuildingBlock: KIFKEQ_clean_linker_1, # of connection points: 2
#     Edge 23, Type (0, 0), BuildingBlock: KIFKEQ_clean_linker_1, # of connection points: 2
#     Edge 24, Type (0, 0), BuildingBlock: KIFKEQ_clean_linker_1, # of connection points: 2
#     Edge 25, Type (0, 0), BuildingBlock: KIFKEQ_clean_linker_1, # of connection points: 2
#     Edge 26, Type (0, 0), BuildingBlock: KIFKEQ_clean_linker_1, # of connection points: 2
#     Edge 27, Type (0, 0), BuildingBlock: KIFKEQ_clean_linker_1, # of connection points: 2
#     Edge 28, Type (0, 0), BuildingBlock: KIFKEQ_clean_linker_1, # of connection points: 2
#     Edge 29, Type (0, 0), BuildingBlock: KIFKEQ_clean_linker_1, # of connection points: 2
#     Edge 30, Type (0, 0), BuildingBlock: KIFKEQ_clean_linker_1, # of connection points: 2
#     Edge 31, Type (0, 0), BuildingBlock: KIFKEQ_clean_linker_1, # of connection points: 2
#     Edge 32, Type (0, 0), BuildingBlock: KIFKEQ_clean_linker_1, # of connection points: 2
#     Edge 33, Type (0, 0), BuildingBlock: KIFKEQ_clean_linker_1, # of connection points: 2
#     Edge 34, Type (0, 0), BuildingBlock: KIFKEQ_clean_linker_1, # of connection points: 2
#     Edge 35, Type (0, 0), BuildingBlock: KIFKEQ_clean_linker_1, # of connection points: 2
#     Edge 36, Type (0, 0), BuildingBlock: KIFKEQ_clean_linker_1, # of connection points: 2
#     Edge 37, Type (0, 0), BuildingBlock: KIFKEQ_clean_linker_1, # of connection points: 2
#     Edge 38, Type (0, 0), BuildingBlock: KIFKEQ_clean_linker_1, # of connection points: 2
#     Edge 39, Type (0, 0), BuildingBlock: KIFKEQ_clean_linker_1, # of connection points: 2
#     Edge 40, Type (0, 0), BuildingBlock: KIFKEQ_clean_linker_1, # of connection points: 2
#     Edge 41, Type (0, 0), BuildingBlock: KIFKEQ_clean_linker_1, # of connection points: 2
#     Edge 42, Type (0, 0), BuildingBlock: KIFKEQ_clean_linker_1, # of connection points: 2
#     Edge 43, Type (0, 0), BuildingBlock: KIFKEQ_clean_linker_1, # of connection points: 2
#     Edge 44, Type (0, 0), BuildingBlock: KIFKEQ_clean_linker_1, # of connection points: 2
#     Edge 45, Type (0, 0), BuildingBlock: KIFKEQ_clean_linker_1, # of connection points: 2
#     Edge 46, Type (0, 0), BuildingBlock: KIFKEQ_clean_linker_1, # of connection points: 2
#     Edge 47, Type (0, 0), BuildingBlock: KIFKEQ_clean_linker_1, # of connection points: 2
# Relax obj value: 0.040
# Max RMSD: 0.061
# Mean RMSD: 0.061
data_MOF--net-uoy--node1-CEKHIL_clean_sbu_0--edge1-KIFKEQ_clean_linker_1
_symmetry_space_group_name_H-M    P1
_symmetry_Int_Tables_number       1
_symmetry_cell_setting            triclinic
loop_
_symmetry_equiv_pos_as_xyz
'x, y, z'
_cell_length_a     27.750332
_cell_length_b     27.742331
_cell_length_c     107.73498
_cell_angle_alpha  90.011178
_cell_angle_beta   89.987221
_cell_angle_gamma 89.989576
loop_
_atom_site_label
_atom_site_type_symbol
_atom_site_fract_x
_atom_site_fract_y
_atom_site_fract_z
_atom_type_partial_charge
Co0 Co 0.24456 0.11648 0.19044 0.0
O1 O 0.17539 0.12416 0.19121 0.0
O2 O 0.21256 0.06074 0.18326 0.0
C3 C 0.26024 0.13854 0.2102 0.0
O4 O 0.31517 0.09509 0.18853 0.0
Co5 Co 0.31219 0.20496 0.19414 0.0
O6 O 0.36344 0.15532 0.19497 0.0
C7 C 0.25699 0.19472 0.1709 0.0
C8 C 0.17219 0.08209 0.18602 0.0
C9 C 0.35719 0.112 0.19136 0.0
O10 O 0.2455 0.15117 0.17388 0.0
O11 O 0.27956 0.22314 0.17824 0.0
O12 O 0.24619 0.0949 0.20774 0.0
O13 O 0.25948 0.16805 0.20095 0.0
Co14 Co 0.89475 0.74449 0.44076 0.0
O15 O 0.88658 0.67557 0.44207 0.0
O16 O 0.94935 0.71097 0.43339 0.0
C17 C 0.87418 0.76203 0.46054 0.0
O18 O 0.91656 0.81477 0.43832 0.0
Co19 Co 0.80691 0.81293 0.44443 0.0
O20 O 0.85702 0.86378 0.44484 0.0
C21 C 0.81564 0.75642 0.42137 0.0
C22 C 0.92796 0.6711 0.4366 0.0
C23 C 0.90005 0.85708 0.44105 0.0
O24 O 0.859 0.74429 0.42436 0.0
O25 O 0.78775 0.77996 0.42865 0.0
O26 O 0.91758 0.74749 0.45796 0.0
O27 O 0.84412 0.76078 0.45142 0.0
Co28 Co 0.26872 0.39393 0.69056 0.0
O29 O 0.33744 0.38507 0.69214 0.0
O30 O 0.30294 0.44837 0.68343 0.0
C31 C 0.24937 0.37311 0.71018 0.0
O32 O 0.19913 0.41672 0.68787 0.0
Co33 Co 0.19909 0.30669 0.69361 0.0
O34 O 0.14794 0.3564 0.69264 0.0
C35 C 0.25789 0.31541 0.67099 0.0
C36 C 0.34244 0.42658 0.68675 0.0
C37 C 0.15616 0.39992 0.68949 0.0
O38 O 0.26962 0.35875 0.67408 0.0
O39 O 0.23398 0.28732 0.67813 0.0
O40 O 0.26477 0.41634 0.70776 0.0
O41 O 0.25101 0.34314 0.70103 0.0
Co42 Co 0.61713 0.76868 0.94031 0.0
O43 O 0.62489 0.83787 0.94105 0.0
O44 O 0.56136 0.80074 0.93317 0.0
C45 C 0.63935 0.75304 0.96007 0.0
O46 O 0.59564 0.6981 0.93844 0.0
Co47 Co 0.70556 0.70095 0.94395 0.0
O48 O 0.65589 0.64975 0.94483 0.0
C49 C 0.69499 0.75586 0.92068 0.0
C50 C 0.58277 0.8411 0.9359 0.0
C51 C 0.61254 0.65605 0.94126 0.0
O52 O 0.65156 0.76756 0.92372 0.0
O53 O 0.7235 0.73329 0.92799 0.0
O54 O 0.59573 0.76719 0.95763 0.0
O55 O 0.66878 0.75372 0.9508 0.0
Co56 Co 0.24452 0.39542 0.06402 0.0
O57 O 0.17557 0.38739 0.0627 0.0
O58 O 0.21104 0.45022 0.07133 0.0
C59 C 0.26197 0.37455 0.04426 0.0
O60 O 0.31487 0.41715 0.06644 0.0
Co61 Co 0.31288 0.30742 0.06035 0.0
O62 O 0.36376 0.35749 0.05992 0.0
C63 C 0.25612 0.31619 0.08338 0.0
C64 C 0.17113 0.42889 0.06812 0.0
C65 C 0.35714 0.40056 0.06369 0.0
O66 O 0.24425 0.3597 0.08044 0.0
O67 O 0.27953 0.28829 0.07608 0.0
O68 O 0.24756 0.41804 0.04679 0.0
O69 O 0.26069 0.34464 0.05341 0.0
Co70 Co 0.61765 0.74488 0.31415 0.0
O71 O 0.62572 0.67594 0.31283 0.0
O72 O 0.5627 0.71144 0.32137 0.0
C73 C 0.63896 0.76239 0.29443 0.0
O74 O 0.59592 0.81523 0.31656 0.0
Co75 Co 0.70578 0.81312 0.31068 0.0
O76 O 0.65578 0.86408 0.31016 0.0
C77 C 0.69623 0.75641 0.33368 0.0
C78 C 0.58411 0.67153 0.31819 0.0
C79 C 0.61261 0.85749 0.31386 0.0
O80 O 0.65287 0.74454 0.33063 0.0
O81 O 0.72441 0.77983 0.32646 0.0
O82 O 0.59544 0.74798 0.2969 0.0
O83 O 0.66869 0.76105 0.30362 0.0
Co84 Co 0.26743 0.119 0.56382 0.0
O85 O 0.33625 0.12714 0.56241 0.0
O86 O 0.30099 0.06436 0.57114 0.0
C87 C 0.24948 0.1395 0.54409 0.0
O88 O 0.19721 0.09737 0.56635 0.0
Co89 Co 0.19924 0.20713 0.56027 0.0
O90 O 0.14844 0.15696 0.55974 0.0
C91 C 0.25615 0.19809 0.58324 0.0
C92 C 0.34079 0.08577 0.56788 0.0
C93 C 0.15501 0.11393 0.56354 0.0
O94 O 0.26804 0.15472 0.58021 0.0
O95 O 0.23252 0.22613 0.57603 0.0
O96 O 0.26405 0.09609 0.54665 0.0
O97 O 0.25104 0.16966 0.55319 0.0
Co98 Co 0.8953 0.76776 0.81375 0.0
O99 O 0.88729 0.83672 0.81252 0.0
O100 O 0.94981 0.80103 0.82124 0.0
C101 C 0.87517 0.75077 0.79391 0.0
O102 O 0.91691 0.69735 0.81612 0.0
Co103 Co 0.80746 0.69956 0.80982 0.0
O104 O 0.85754 0.64866 0.80936 0.0
C105 C 0.81567 0.75546 0.83299 0.0
C106 C 0.92858 0.84101 0.81804 0.0
C107 C 0.90044 0.65516 0.81326 0.0
O108 O 0.8591 0.76768 0.83009 0.0
O109 O 0.78798 0.73208 0.82564 0.0
O110 O 0.91855 0.7651 0.79658 0.0
O111 O 0.8449 0.75185 0.80299 0.0
Co112 Co 0.74581 0.61465 0.69025 0.0
O113 O 0.67702 0.62283 0.69176 0.0
O114 O 0.71225 0.55925 0.68338 0.0
C115 C 0.76489 0.63706 0.70977 0.0
O116 O 0.81568 0.59282 0.68771 0.0
Co117 Co 0.81341 0.70367 0.69275 0.0
O118 O 0.86562 0.65485 0.69189 0.0
C119 C 0.75341 0.69245 0.67055 0.0
C120 C 0.67249 0.58088 0.68657 0.0
C121 C 0.85829 0.61075 0.68911 0.0
O122 O 0.74475 0.6484 0.6736 0.0
O123 O 0.77537 0.72218 0.67765 0.0
O124 O 0.74993 0.59352 0.70754 0.0
O125 O 0.76275 0.66642 0.7005 0.0
Co126 Co 0.39602 0.24515 0.94049 0.0
O127 O 0.38832 0.17596 0.94125 0.0
O128 O 0.45175 0.21311 0.93332 0.0
C129 C 0.37392 0.26088 0.96025 0.0
O130 O 0.41743 0.31574 0.93858 0.0
Co131 Co 0.3076 0.31288 0.94418 0.0
O132 O 0.35729 0.36406 0.94507 0.0
C133 C 0.31796 0.25777 0.92092 0.0
C134 C 0.43039 0.17274 0.93607 0.0
C135 C 0.40058 0.35777 0.94145 0.0
O136 O 0.36142 0.24611 0.92393 0.0
O137 O 0.28953 0.28043 0.92824 0.0
O138 O 0.41755 0.24677 0.95779 0.0
O139 O 0.34444 0.26013 0.951 0.0
Co140 Co 0.76826 0.89554 0.19058 0.0
O141 O 0.83742 0.88777 0.1913 0.0
O142 O 0.80028 0.95122 0.18338 0.0
C143 C 0.7527 0.87354 0.21035 0.0
O144 O 0.69767 0.91701 0.1887 0.0
Co145 Co 0.70055 0.80717 0.19431 0.0
O146 O 0.64939 0.85689 0.1952 0.0
C147 C 0.75541 0.8174 0.17101 0.0
C148 C 0.84064 0.92983 0.18612 0.0
C149 C 0.65566 0.90018 0.19157 0.0
O150 O 0.76714 0.86087 0.17401 0.0
O151 O 0.7328 0.78901 0.17835 0.0
O152 O 0.76679 0.91716 0.20788 0.0
O153 O 0.75335 0.84401 0.2011 0.0
Co154 Co 0.11666 0.26781 0.44024 0.0
O155 O 0.12447 0.33672 0.4416 0.0
O156 O 0.06188 0.30112 0.43289 0.0
C157 C 0.13718 0.25026 0.45999 0.0
O158 O 0.09534 0.19738 0.43777 0.0
Co159 Co 0.20499 0.19994 0.44391 0.0
O160 O 0.1551 0.14887 0.4444 0.0
C161 C 0.19607 0.2567 0.42091 0.0
C162 C 0.08306 0.34106 0.43615 0.0
C163 C 0.11207 0.15524 0.44058 0.0
O164 O 0.15255 0.26836 0.42386 0.0
O165 O 0.22408 0.23335 0.42819 0.0
O166 O 0.09371 0.26455 0.45741 0.0
O167 O 0.16732 0.25178 0.45089 0.0
Co168 Co 0.74449 0.89826 0.56417 0.0
O169 O 0.67566 0.89021 0.56281 0.0
O170 O 0.71109 0.9536 0.5712 0.0
C171 C 0.76259 0.87614 0.54455 0.0
O172 O 0.81474 0.91961 0.56658 0.0
Co173 Co 0.8115 0.80886 0.56124 0.0
O174 O 0.8632 0.85832 0.56088 0.0
C175 C 0.75305 0.82008 0.58377 0.0
C176 C 0.67122 0.93202 0.56807 0.0
C177 C 0.85691 0.90202 0.56421 0.0
O178 O 0.74395 0.8641 0.58077 0.0
O179 O 0.77489 0.7905 0.57659 0.0
O180 O 0.74801 0.91974 0.54688 0.0
O181 O 0.76071 0.84669 0.5538 0.0
Co182 Co 0.11729 0.24417 0.8141 0.0
O183 O 0.1253 0.17522 0.8128 0.0
O184 O 0.06272 0.21079 0.82153 0.0
C185 C 0.13751 0.26147 0.7943 0.0
O186 O 0.09571 0.31456 0.81652 0.0
Co187 Co 0.2053 0.31229 0.81026 0.0
O188 O 0.15529 0.36325 0.80987 0.0
C189 C 0.19692 0.25594 0.83334 0.0
C190 C 0.08397 0.17085 0.8183 0.0
C191 C 0.11231 0.35677 0.81372 0.0
O192 O 0.1534 0.24403 0.83045 0.0
O193 O 0.22473 0.27923 0.826 0.0
O194 O 0.09413 0.24707 0.79693 0.0
O195 O 0.16774 0.26019 0.80338 0.0
Co196 Co 0.76783 0.61812 0.06388 0.0
O197 O 0.83679 0.62618 0.06262 0.0
O198 O 0.80123 0.56326 0.07118 0.0
C199 C 0.75064 0.63921 0.04412 0.0
O200 O 0.69746 0.59637 0.06625 0.0
Co201 Co 0.69945 0.70609 0.06024 0.0
O202 O 0.64865 0.65596 0.05966 0.0
C203 C 0.7558 0.69706 0.08332 0.0
C204 C 0.84117 0.58463 0.06802 0.0
C205 C 0.65523 0.6129 0.06344 0.0
O206 O 0.76788 0.65366 0.08033 0.0
O207 O 0.7324 0.72501 0.07604 0.0
O208 O 0.765 0.59569 0.04664 0.0
O209 O 0.75178 0.66902 0.0533 0.0
Co210 Co 0.39521 0.26818 0.31389 0.0
O211 O 0.3872 0.33713 0.31257 0.0
O212 O 0.45009 0.3016 0.32116 0.0
C213 C 0.37409 0.25064 0.29416 0.0
O214 O 0.41687 0.19783 0.31632 0.0
Co215 Co 0.30712 0.19991 0.31036 0.0
O216 O 0.35717 0.149 0.30982 0.0
C217 C 0.31638 0.25674 0.33336 0.0
C218 C 0.42873 0.34152 0.31796 0.0
C219 C 0.40026 0.15558 0.31357 0.0
O220 O 0.35979 0.26859 0.33034 0.0
O221 O 0.28832 0.23328 0.32611 0.0
O222 O 0.41761 0.26502 0.29665 0.0
O223 O 0.34428 0.25201 0.30333 0.0
H224 H 0.27019 0.22494 0.09217 0.0
H225 H 0.21647 0.36489 0.10319 0.0
H226 H 0.26077 0.19602 0.11323 0.0
H227 H 0.20587 0.3352 0.12437 0.0
H228 H 0.27075 0.28581 0.16197 0.0
H229 H 0.26072 0.31443 0.14091 0.0
H230 H 0.2068 0.17469 0.12993 0.0
H231 H 0.21798 0.14532 0.15112 0.0
C232 C 0.25568 0.24947 0.09904 0.0
C233 C 0.24479 0.2976 0.09597 0.0
C234 C 0.24981 0.23259 0.11114 0.0
C235 C 0.23279 0.26329 0.12053 0.0
C236 C 0.21973 0.3108 0.11738 0.0
C237 C 0.22562 0.32777 0.10522 0.0
C238 C 0.25637 0.26107 0.15514 0.0
C239 C 0.24586 0.21291 0.15825 0.0
C240 C 0.25013 0.27778 0.14303 0.0
C241 C 0.23312 0.24688 0.13369 0.0
C242 C 0.22061 0.19927 0.13688 0.0
C243 C 0.22685 0.18247 0.14904 0.0
H244 H 0.86448 0.71585 0.40172 0.0
H245 H 0.72487 0.77149 0.41236 0.0
H246 H 0.83536 0.70498 0.38051 0.0
H247 H 0.69648 0.7617 0.39125 0.0
H248 H 0.64638 0.71771 0.35341 0.0
H249 H 0.67522 0.7069 0.37466 0.0
H250 H 0.81549 0.75963 0.36379 0.0
H251 H 0.78737 0.76933 0.34266 0.0
C252 C 0.82755 0.72538 0.39959 0.0
C253 C 0.7973 0.74513 0.40875 0.0
C254 C 0.8109 0.71932 0.38742 0.0
C255 C 0.76364 0.73276 0.38414 0.0
C256 C 0.73286 0.75043 0.39344 0.0
C257 C 0.74943 0.7565 0.40556 0.0
C258 C 0.68355 0.72634 0.35552 0.0
C259 C 0.71428 0.74499 0.34633 0.0
C260 C 0.70003 0.72034 0.36772 0.0
C261 C 0.74761 0.73271 0.37096 0.0
C262 C 0.77884 0.74921 0.36163 0.0
C263 C 0.76243 0.75524 0.34949 0.0
H264 H 0.24107 0.28861 0.59246 0.0
H265 H 0.2978 0.14892 0.60266 0.0
H266 H 0.25176 0.31649 0.6136 0.0
H267 H 0.30954 0.17751 0.62389 0.0
H268 H 0.2456 0.22427 0.66195 0.0
H269 H 0.25515 0.19664 0.64075 0.0
H270 H 0.3074 0.33734 0.63007 0.0
H271 H 0.29676 0.36565 0.65138 0.0
C272 C 0.25649 0.26394 0.59916 0.0
C273 C 0.26789 0.21619 0.59585 0.0
C274 C 0.26308 0.2802 0.6113 0.0
C275 C 0.2813 0.24922 0.62047 0.0
C276 C 0.29479 0.2021 0.61707 0.0
C277 C 0.28822 0.18577 0.60489 0.0
C278 C 0.2596 0.24937 0.65515 0.0
C279 C 0.2697 0.2975 0.65837 0.0
C280 C 0.26554 0.23327 0.64297 0.0
C281 C 0.28179 0.26481 0.63368 0.0
C282 C 0.29415 0.31232 0.63699 0.0
C283 C 0.28826 0.32849 0.64921 0.0
H284 H 0.86364 0.79656 0.85271 0.0
H285 H 0.72493 0.73921 0.84192 0.0
H286 H 0.83395 0.80716 0.87388 0.0
H287 H 0.696 0.74872 0.86299 0.0
H288 H 0.64475 0.79293 0.9008 0.0
H289 H 0.67369 0.80334 0.87953 0.0
H290 H 0.81444 0.75253 0.8906 0.0
H291 H 0.78621 0.74323 0.91174 0.0
C292 C 0.82679 0.78658 0.8548 0.0
C293 C 0.79697 0.76646 0.84561 0.0
C294 C 0.80982 0.79248 0.86695 0.0
C295 C 0.76266 0.77849 0.87017 0.0
C296 C 0.73229 0.76041 0.86084 0.0
C297 C 0.74918 0.75451 0.84874 0.0
C298 C 0.68202 0.7846 0.89872 0.0
C299 C 0.71289 0.76666 0.90798 0.0
C300 C 0.69857 0.79037 0.88652 0.0
C301 C 0.74635 0.7785 0.88333 0.0
C302 C 0.77763 0.76258 0.89272 0.0
C303 C 0.76116 0.75677 0.90486 0.0
H304 H 0.72053 0.73143 0.5905 0.0
H305 H 0.75952 0.87029 0.60542 0.0
H306 H 0.70909 0.70032 0.61142 0.0
H307 H 0.75203 0.83872 0.62637 0.0
H308 H 0.72007 0.7808 0.66381 0.0
H309 H 0.70856 0.81179 0.64288 0.0
H310 H 0.75246 0.67361 0.62796 0.0
H311 H 0.76002 0.64214 0.64892 0.0
C312 C 0.72659 0.75527 0.59831 0.0
C313 C 0.74102 0.80317 0.59638 0.0
C314 C 0.72056 0.73736 0.61034 0.0
C315 C 0.73033 0.76651 0.62075 0.0
C316 C 0.74328 0.81507 0.61871 0.0
C317 C 0.74792 0.83331 0.60667 0.0
C318 C 0.72629 0.75696 0.656 0.0
C319 C 0.74103 0.70917 0.65794 0.0
C320 C 0.72024 0.77481 0.64397 0.0
C321 C 0.7303 0.74571 0.63357 0.0
C322 C 0.7435 0.69722 0.63561 0.0
C323 C 0.74816 0.67903 0.64766 0.0
H324 H 0.22707 0.27192 0.91191 0.0
H325 H 0.36745 0.21849 0.90119 0.0
H326 H 0.19864 0.26176 0.89083 0.0
H327 H 0.33827 0.20723 0.87998 0.0
H328 H 0.28818 0.27017 0.84211 0.0
H329 H 0.31708 0.2611 0.8632 0.0
H330 H 0.17794 0.20637 0.87437 0.0
H331 H 0.1483 0.21657 0.85318 0.0
C332 C 0.25183 0.25738 0.9051 0.0
C333 C 0.29989 0.24668 0.90826 0.0
C334 C 0.23523 0.25107 0.89299 0.0
C335 C 0.26614 0.23382 0.88368 0.0
C336 C 0.31368 0.2212 0.88691 0.0
C337 C 0.33037 0.22749 0.89907 0.0
C338 C 0.26366 0.25577 0.849 0.0
C339 C 0.21556 0.24481 0.84595 0.0
C340 C 0.28052 0.25011 0.86111 0.0
C341 C 0.24982 0.23326 0.87052 0.0
C342 C 0.20234 0.22012 0.86737 0.0
C343 C 0.1854 0.22577 0.85521 0.0
H344 H 0.79532 0.64809 0.10309 0.0
H345 H 0.74142 0.78813 0.09222 0.0
H346 H 0.8058 0.67746 0.12431 0.0
H347 H 0.75076 0.81674 0.11332 0.0
H348 H 0.79423 0.86694 0.15123 0.0
H349 H 0.80503 0.83782 0.13 0.0
H350 H 0.75093 0.69807 0.1409 0.0
H351 H 0.74124 0.72646 0.16201 0.0
C352 C 0.7861 0.68516 0.10517 0.0
C353 C 0.76694 0.71546 0.09595 0.0
C354 C 0.79191 0.70195 0.11734 0.0
C355 C 0.77881 0.7494 0.12055 0.0
C356 C 0.76175 0.78021 0.11119 0.0
C357 C 0.75594 0.76351 0.09907 0.0
C358 C 0.78523 0.82985 0.14913 0.0
C359 C 0.76629 0.79933 0.15833 0.0
C360 C 0.79125 0.81319 0.13695 0.0
C361 C 0.77859 0.76565 0.13372 0.0
C362 C 0.76162 0.73468 0.14305 0.0
C363 C 0.75559 0.75125 0.15518 0.0
H364 H 0.28721 0.24288 0.412 0.0
H365 H 0.14707 0.29672 0.40123 0.0
H366 H 0.31578 0.25286 0.39091 0.0
H367 H 0.17637 0.30782 0.38003 0.0
H368 H 0.22534 0.24306 0.34231 0.0
H369 H 0.19695 0.25301 0.36342 0.0
H370 H 0.33657 0.30751 0.37426 0.0
H371 H 0.3657 0.29644 0.35304 0.0
C372 C 0.26257 0.25753 0.40518 0.0
C373 C 0.2145 0.26829 0.40831 0.0
C374 C 0.27924 0.26372 0.39307 0.0
C375 C 0.24836 0.28091 0.38374 0.0
C376 C 0.2009 0.29383 0.38697 0.0
C377 C 0.18416 0.28765 0.39913 0.0
C378 C 0.25007 0.2576 0.34913 0.0
C379 C 0.29814 0.26826 0.34597 0.0
C380 C 0.23351 0.26378 0.36125 0.0
C381 C 0.26448 0.28086 0.37057 0.0
C382 C 0.31196 0.29363 0.36732 0.0
C383 C 0.32861 0.28747 0.35515 0.0
H384 H 0.30526 0.22255 0.21632 0.0
H385 H 0.25811 0.08685 0.2318 0.0
H386 H 0.33558 0.24703 0.23661 0.0
H387 H 0.28837 0.1116 0.25216 0.0
H388 H 0.29043 0.20507 0.28812 0.0
H389 H 0.26543 0.17546 0.26782 0.0
H390 H 0.40017 0.22372 0.25209 0.0
H391 H 0.42546 0.2533 0.27249 0.0
C392 C 0.30151 0.19787 0.22405 0.0
C393 C 0.27918 0.15281 0.22248 0.0
C394 C 0.31917 0.2118 0.23565 0.0
C395 C 0.31438 0.18121 0.24595 0.0
C396 C 0.29225 0.13602 0.24438 0.0
C397 C 0.27507 0.12183 0.23274 0.0
C398 C 0.31488 0.20916 0.28036 0.0
C399 C 0.35989 0.23162 0.28189 0.0
C400 C 0.30064 0.19193 0.26875 0.0
C401 C 0.33085 0.19726 0.25838 0.0
C402 C 0.37603 0.21944 0.25991 0.0
C403 C 0.39055 0.2362 0.27158 0.0
H404 H 0.92619 0.75912 0.4821 0.0
H405 H 0.79084 0.80785 0.46678 0.0
H406 H 0.90176 0.78901 0.50255 0.0
H407 H 0.76669 0.83775 0.48712 0.0
H408 H 0.76074 0.92726 0.52289 0.0
H409 H 0.79055 0.90181 0.50255 0.0
H410 H 0.83783 0.76677 0.51832 0.0
H411 H 0.80797 0.79203 0.53861 0.0
C412 C 0.89139 0.77638 0.48309 0.0
C413 C 0.8604 0.78105 0.47285 0.0
C414 C 0.87735 0.79331 0.49478 0.0
C415 C 0.83235 0.81576 0.49641 0.0
C416 C 0.80178 0.82109 0.48612 0.0
C417 C 0.81554 0.80369 0.47448 0.0
C418 C 0.77767 0.89224 0.52201 0.0
C419 C 0.78185 0.86157 0.53233 0.0
C420 C 0.79457 0.87763 0.51037 0.0
C421 C 0.81648 0.8323 0.50886 0.0
C422 C 0.82152 0.80208 0.51923 0.0
C423 C 0.80415 0.81645 0.53083 0.0
H424 H 0.20261 0.29 0.71624 0.0
H425 H 0.25161 0.42503 0.73172 0.0
H426 H 0.17244 0.2657 0.73657 0.0
H427 H 0.22144 0.40053 0.75211 0.0
H428 H 0.221 0.3067 0.78795 0.0
H429 H 0.24489 0.33645 0.76758 0.0
H430 H 0.10903 0.28891 0.75235 0.0
H431 H 0.08487 0.25916 0.77283 0.0
C432 C 0.20672 0.3146 0.72398 0.0
C433 C 0.22965 0.35935 0.72241 0.0
C434 C 0.18916 0.30078 0.73559 0.0
C435 C 0.19463 0.33121 0.74592 0.0
C436 C 0.21708 0.37622 0.74433 0.0
C437 C 0.23419 0.39028 0.73266 0.0
C438 C 0.19607 0.30279 0.78028 0.0
C439 C 0.15108 0.28049 0.78198 0.0
C440 C 0.20967 0.32012 0.76863 0.0
C441 C 0.1788 0.31505 0.75839 0.0
C442 C 0.13365 0.293 0.76008 0.0
C443 C 0.11978 0.27614 0.7718 0.0
H444 H 0.75376 0.58783 0.02245 0.0
H445 H 0.70526 0.72292 0.03801 0.0
H446 H 0.72455 0.61314 1.00201 0.0
H447 H 0.67602 0.74793 0.01769 0.0
H448 H 0.58772 0.75527 0.98166 0.0
H449 H 0.61239 0.72503 1.00203 0.0
H450 H 0.74778 0.67762 0.98649 0.0
H451 H 0.72334 0.70793 0.96619 0.0
C452 C 0.73668 0.62276 0.02152 0.0
C453 C 0.7319 0.65342 0.03182 0.0
C454 C 0.72014 0.63729 0.00983 0.0
C455 C 0.69797 0.68249 0.00827 0.0
C456 C 0.69248 0.71271 0.01863 0.0
C457 C 0.7095 0.69845 0.03026 0.0
C458 C 0.62267 0.73828 0.9826 0.0
C459 C 0.65365 0.73412 0.97235 0.0
C460 C 0.63683 0.72111 0.99425 0.0
C461 C 0.68199 0.69893 0.99583 0.0
C462 C 0.71258 0.69408 0.98552 0.0
C463 C 0.69867 0.71173 0.97392 0.0
H464 H 0.30757 0.29095 0.03815 0.0
H465 H 0.25916 0.42609 0.02261 0.0
H466 H 0.33713 0.2661 0.01783 0.0
H467 H 0.28868 0.40094 1.00218 0.0
H468 H 0.28994 0.306 0.96637 0.0
H469 H 0.26549 0.33639 0.98666 0.0
H470 H 0.40091 0.28916 0.0022 0.0
H471 H 0.42562 0.25884 0.98184 0.0
C472 C 0.30343 0.31547 0.0304 0.0
C473 C 0.28094 0.36046 0.03197 0.0
C474 C 0.32063 0.30131 0.01878 0.0
C475 C 0.31524 0.33158 0.00844 0.0
C476 C 0.29302 0.37675 0.01 0.0
C477 C 0.27629 0.3912 0.02168 0.0
C478 C 0.31463 0.30226 0.97409 0.0
C479 C 0.35967 0.27989 0.97253 0.0
C480 C 0.30071 0.31997 0.98569 0.0
C481 C 0.3313 0.31518 0.996 0.0
C482 C 0.37648 0.29303 0.99442 0.0
C483 C 0.39065 0.27581 0.98278 0.0
H484 H 0.72271 0.80782 0.28836 0.0
H485 H 0.5877 0.75948 0.27276 0.0
H486 H 0.74781 0.83711 0.26803 0.0
H487 H 0.61307 0.78874 0.25233 0.0
H488 H 0.70769 0.78959 0.21654 0.0
H489 H 0.67753 0.76526 0.23685 0.0
H490 H 0.72503 0.90074 0.25233 0.0
H491 H 0.75513 0.92532 0.23193 0.0
C492 C 0.69829 0.80363 0.2806 0.0
C493 C 0.65326 0.78123 0.28214 0.0
C494 C 0.71258 0.82068 0.26897 0.0
C495 C 0.6824 0.81522 0.25861 0.0
C496 C 0.6372 0.79311 0.26016 0.0
C497 C 0.62263 0.77653 0.27184 0.0
C498 C 0.71154 0.8143 0.22425 0.0
C499 C 0.73389 0.85933 0.22265 0.0
C500 C 0.69398 0.80046 0.23587 0.0
C501 C 0.69889 0.83112 0.24616 0.0
C502 C 0.72107 0.87626 0.24456 0.0
C503 C 0.73815 0.89036 0.23289 0.0
H504 H 0.2211 0.20563 0.46628 0.0
H505 H 0.08454 0.25183 0.48145 0.0
H506 H 0.24527 0.17588 0.48664 0.0
H507 H 0.10907 0.22221 0.50192 0.0
H508 H 0.2509 0.08675 0.52266 0.0
H509 H 0.22081 0.11097 0.50223 0.0
H510 H 0.174 0.24706 0.51749 0.0
H511 H 0.20424 0.22318 0.53783 0.0
C512 C 0.19614 0.20923 0.47395 0.0
C513 C 0.15095 0.23118 0.47229 0.0
C514 C 0.20991 0.19192 0.48559 0.0
C515 C 0.17902 0.19671 0.49584 0.0
C516 C 0.13367 0.21835 0.49417 0.0
C517 C 0.11961 0.23515 0.48247 0.0
C518 C 0.23402 0.12173 0.52165 0.0
C519 C 0.23008 0.15313 0.53182 0.0
C520 C 0.21694 0.13561 0.50997 0.0
C521 C 0.19505 0.18085 0.5083 0.0
C522 C 0.19025 0.21179 0.51854 0.0
C523 C 0.20784 0.19819 0.53017 0.0
H524 H 0.81046 0.72117 0.71565 0.0
H525 H 0.76305 0.58612 0.73144 0.0
H526 H 0.84008 0.74662 0.73597 0.0
H527 H 0.79261 0.61171 0.75177 0.0
H528 H 0.79185 0.70542 0.78749 0.0
H529 H 0.76815 0.67587 0.76709 0.0
H530 H 0.90369 0.72449 0.7519 0.0
H531 H 0.92769 0.75403 0.77242 0.0
C532 C 0.80656 0.69685 0.72345 0.0
C533 C 0.78424 0.65174 0.72197 0.0
C534 C 0.82379 0.71131 0.73506 0.0
C535 C 0.81857 0.68118 0.74545 0.0
C536 C 0.79673 0.63584 0.74394 0.0
C537 C 0.77998 0.62114 0.7323 0.0
C538 C 0.81675 0.70964 0.77982 0.0
C539 C 0.86163 0.7321 0.78155 0.0
C540 C 0.80324 0.69245 0.76815 0.0
C541 C 0.83409 0.69781 0.75791 0.0
C542 C 0.87908 0.72017 0.75962 0.0
C543 C 0.89287 0.73688 0.77136 0.0
H544 H 0.14901 0.98693 0.18822 0.0
H545 H 0.088 0.1257 0.17958 0.0
H546 H 0.06932 0.95076 0.18745 0.0
H547 H 0.00861 0.08948 0.17759 0.0
H548 H 0.86384 0.02504 0.18818 0.0
H549 H 0.94354 0.06117 0.18737 0.0
H550 H 1.00426 0.92223 0.17771 0.0
H551 H 0.92487 0.88606 0.17975 0.0
C552 C 0.11849 0.00943 0.18582 0.0
C553 C 0.12464 0.05909 0.18401 0.0
C554 C 0.07245 0.98868 0.18527 0.0
C555 C 0.03134 0.0168 0.1825 0.0
C556 C 0.03839 0.06637 0.18014 0.0
C557 C 0.08419 0.08729 0.18112 0.0
C558 C 0.89437 1.00248 0.18582 0.0
C559 C 0.88822 0.95277 0.18408 0.0
C560 C 0.94041 0.02321 0.18525 0.0
C561 C 0.98153 0.99502 0.18252 0.0
C562 C 0.97448 0.9454 0.18023 0.0
C563 C 0.92867 0.9245 0.18123 0.0
H564 H 0.99249 0.36281 0.42739 0.0
H565 H 0.12316 0.42884 0.44094 0.0
H566 H 0.95491 0.44246 0.42587 0.0
H567 H 0.08563 0.50794 0.43962 0.0
H568 H 0.01788 0.64921 0.42746 0.0
H569 H 0.05515 0.56954 0.4257 0.0
H570 H 0.9252 0.50412 0.43994 0.0
H571 H 0.88792 0.58332 0.44151 0.0
C572 C 0.0133 0.39428 0.42996 0.0
C573 C 0.06078 0.38934 0.43433 0.0
C574 C 0.9917 0.43996 0.42916 0.0
C575 C 0.01713 0.48181 0.43265 0.0
C576 C 0.06505 0.47677 0.43669 0.0
C577 C 0.08651 0.43122 0.43754 0.0
C578 C 0.99716 0.61776 0.43009 0.0
C579 C 0.94998 0.62275 0.43467 0.0
C580 C 0.0186 0.57206 0.42915 0.0
C581 C 0.9933 0.53022 0.43272 0.0
C582 C 0.94565 0.53529 0.43697 0.0
C583 C 0.92434 0.58089 0.43795 0.0
H584 H 0.36489 0.5162 0.6776 0.0
H585 H 0.42981 0.38633 0.69203 0.0
H586 H 0.44464 0.55324 0.67602 0.0
H587 H 0.50915 0.42343 0.69064 0.0
H588 H 0.65069 0.49014 0.67801 0.0
H589 H 0.57107 0.45267 0.67652 0.0
H590 H 0.50573 0.58374 0.69014 0.0
H591 H 0.58486 0.6212 0.69144 0.0
C592 C 0.39616 0.49545 0.68036 0.0
C593 C 0.39089 0.44838 0.68499 0.0
C594 C 0.44188 0.51676 0.67953 0.0
C595 C 0.48346 0.49142 0.68324 0.0
C596 C 0.47814 0.44387 0.68755 0.0
C597 C 0.4325 0.42268 0.68843 0.0
C598 C 0.61926 0.51104 0.68057 0.0
C599 C 0.62422 0.55861 0.68488 0.0
C600 C 0.57362 0.4895 0.67979 0.0
C601 C 0.53184 0.5151 0.68324 0.0
C602 C 0.53689 0.56307 0.68725 0.0
C603 C 0.58242 0.58448 0.68808 0.0
H604 H 0.52554 0.14953 0.93819 0.0
H605 H 0.38672 0.08852 0.92966 0.0
H606 H 0.56172 0.06982 0.93736 0.0
H607 H 0.42294 0.00912 0.92761 0.0
H608 H 0.48762 0.86427 0.93808 0.0
H609 H 0.45142 0.94399 0.93733 0.0
H610 H 0.59014 1.00481 0.92756 0.0
H611 H 0.62638 0.92539 0.92952 0.0
C612 C 0.50303 0.11901 0.9358 0.0
C613 C 0.45335 0.12516 0.93404 0.0
C614 C 0.52379 0.07295 0.93522 0.0
C615 C 0.49565 0.03184 0.93246 0.0
C616 C 0.44606 0.0389 0.93015 0.0
C617 C 0.42514 0.08471 0.93116 0.0
C618 C 0.51011 0.89482 0.9357 0.0
C619 C 0.55978 0.88869 0.93391 0.0
C620 C 0.48935 0.94088 0.93517 0.0
C621 C 0.51746 0.98202 0.93243 0.0
C622 C 0.56703 0.975 0.93009 0.0
C623 C 0.58797 0.92918 0.93104 0.0
H624 H 0.08333 0.38892 0.06323 0.0
H625 H 0.1493 0.51928 0.07702 0.0
H626 H 1.00424 0.42646 0.06461 0.0
H627 H 0.0697 0.55684 0.07859 0.0
H628 H 0.92904 0.62464 0.06322 0.0
H629 H 0.00812 0.5871 0.06465 0.0
H630 H 0.94246 0.45663 0.07851 0.0
H631 H 0.86288 0.49419 0.07688 0.0
C632 C 0.08094 0.4255 0.06669 0.0
C633 C 0.12281 0.45114 0.06996 0.0
C634 C 0.03539 0.44696 0.06757 0.0
C635 C 0.03033 0.49481 0.07169 0.0
C636 C 0.07218 0.52014 0.07523 0.0
C637 C 0.11785 0.49853 0.0744 0.0
C638 C 0.93139 0.58804 0.06667 0.0
C639 C 0.88946 0.56237 0.06988 0.0
C640 C 0.97693 0.56658 0.06757 0.0
C641 C 0.98192 0.51871 0.07168 0.0
C642 C 0.94002 0.49335 0.07516 0.0
C643 C 0.89437 0.51496 0.0743 0.0
H644 H 0.49365 0.64971 0.327 0.0
H645 H 0.62421 0.58373 0.31333 0.0
H646 H 0.45615 0.57008 0.32856 0.0
H647 H 0.58672 0.50461 0.31469 0.0
H648 H 0.38875 0.42936 0.31309 0.0
H649 H 0.42618 0.50848 0.31456 0.0
H650 H 0.55642 0.4429 0.32859 0.0
H651 H 0.51898 0.36328 0.32692 0.0
C652 C 0.51445 0.61825 0.32441 0.0
C653 C 0.56188 0.62321 0.32 0.0
C654 C 0.49288 0.57257 0.32522 0.0
C655 C 0.51829 0.53072 0.32171 0.0
C656 C 0.56617 0.53577 0.31763 0.0
C657 C 0.5876 0.58133 0.31677 0.0
C658 C 0.42527 0.43173 0.31658 0.0
C659 C 0.45092 0.38983 0.31983 0.0
C660 C 0.44668 0.47729 0.31751 0.0
C661 C 0.49445 0.48231 0.32167 0.0
C662 C 0.51977 0.44043 0.3252 0.0
C663 C 0.49823 0.39476 0.32431 0.0
H664 H 0.64913 0.02254 0.57681 0.0
H665 H 0.58366 0.89148 0.5633 0.0
H666 H 0.56934 0.05967 0.57841 0.0
H667 H 0.50441 0.92859 0.56469 0.0
H668 H 0.36297 0.99581 0.57697 0.0
H669 H 0.44278 0.95878 0.57865 0.0
H670 H 0.50757 0.08905 0.56439 0.0
H671 H 0.4283 0.12607 0.56291 0.0
C672 C 0.61776 1.00156 0.57426 0.0
C673 C 0.62289 0.95411 0.56988 0.0
C674 C 0.572 0.02291 0.57511 0.0
C675 C 0.53027 0.99723 0.57165 0.0
C676 C 0.5355 0.94933 0.56759 0.0
C677 C 0.58113 0.92813 0.5667 0.0
C678 C 0.39433 0.01665 0.57431 0.0
C679 C 0.38916 0.06383 0.56976 0.0
C680 C 0.44009 0.99535 0.57521 0.0
C681 C 0.48179 0.02083 0.57162 0.0
C682 C 0.47652 0.06848 0.56739 0.0
C683 C 0.43088 0.08963 0.56645 0.0
H684 H 0.99371 0.1491 0.82726 0.0
H685 H 0.124 0.08302 0.81345 0.0
H686 H 0.9562 0.06948 0.82887 0.0
H687 H 0.08651 1.00392 0.81487 0.0
H688 H 0.01877 0.8626 0.82706 0.0
H689 H 0.05626 0.94218 0.8288 0.0
H690 H 0.92605 0.00801 0.81484 0.0
H691 H 0.88858 0.92893 0.8133 0.0
C692 C 0.01446 0.11762 0.82465 0.0
C693 C 0.0618 0.12255 0.82019 0.0
C694 C 0.99288 0.07195 0.8255 0.0
C695 C 0.01821 0.03009 0.82196 0.0
C696 C 0.06602 0.0351 0.81783 0.0
C697 C 0.08745 0.08065 0.81693 0.0
C698 C 0.99804 0.89413 0.82449 0.0
C699 C 0.95073 0.88928 0.82 0.0
C700 C 0.0196 0.93977 0.82541 0.0
C701 C 0.9943 0.98171 0.82192 0.0
C702 C 0.94652 0.97677 0.81776 0.0
C703 C 0.9251 0.93124 0.81679 0.0
H704 H 0.56262 0.87695 0.19745 0.0
H705 H 0.64943 0.99453 0.18357 0.0
H706 H 0.49143 0.92745 0.19653 0.0
H707 H 0.57737 0.04504 0.18238 0.0
H708 H 0.45051 0.13598 0.19671 0.0
H709 H 0.5217 0.08545 0.19592 0.0
H710 H 0.43524 0.96637 0.18285 0.0
H711 H 0.36319 0.01694 0.18391 0.0
C712 C 0.56662 0.91353 0.1941 0.0
C713 C 0.61215 0.93157 0.19062 0.0
C714 C 0.52545 0.94246 0.19348 0.0
C715 C 0.52836 0.99039 0.18935 0.0
C716 C 0.57377 0.00844 0.18574 0.0
C717 C 0.61515 0.97941 0.18638 0.0
C718 C 0.44639 0.09907 0.19362 0.0
C719 C 0.40072 0.08063 0.19042 0.0
C720 C 0.48756 0.07011 0.19307 0.0
C721 C 0.4845 0.02174 0.1893 0.0
C722 C 0.43896 1.00331 0.18594 0.0
C723 C 0.39759 0.03238 0.1865 0.0
H724 H 0.99487 0.86234 0.43332 0.0
H725 H 0.87647 0.95085 0.446 0.0
H726 H 0.04558 0.93422 0.43188 0.0
H727 H 0.92711 0.02181 0.44484 0.0
H728 H 0.01787 0.14902 0.43244 0.0
H729 H 0.96738 0.07694 0.43122 0.0
H730 H 0.08503 0.99085 0.44528 0.0
H731 H 0.1355 0.062 0.44621 0.0
C732 C 0.97959 0.89696 0.4358 0.0
C733 C 0.93149 0.90046 0.43981 0.0
C734 C 0.00874 0.93824 0.43502 0.0
C735 C 0.99053 0.98406 0.43824 0.0
C736 C 0.94229 0.98747 0.44209 0.0
C737 C 0.91326 0.94641 0.44285 0.0
C738 C 0.03303 0.11468 0.4352 0.0
C739 C 0.08084 0.11167 0.43945 0.0
C740 C 1.004 0.07329 0.43455 0.0
C741 C 0.02202 0.02784 0.43816 0.0
C742 C 0.07001 0.02488 0.44223 0.0
C743 C 0.09893 0.06605 0.44286 0.0
H744 H 0.15048 0.49752 0.6933 0.0
H745 H 0.0659 0.37446 0.68213 0.0
H746 H 0.0785 0.54791 0.69261 0.0
H747 H 0.99457 0.4249 0.68069 0.0
H748 H 0.86474 0.51334 0.69299 0.0
H749 H 0.93697 0.46344 0.69246 0.0
H750 H 0.02079 0.58708 0.68094 0.0
H751 H 0.94906 0.63712 0.68221 0.0
C752 C 0.11665 0.48149 0.69045 0.0
C753 C 0.11385 0.432 0.68785 0.0
C754 C 0.07521 0.5104 0.68999 0.0
C755 C 0.03009 0.4907 0.68668 0.0
C756 C 0.02803 0.44141 0.68362 0.0
C757 C 0.06916 0.41243 0.68433 0.0
C758 C 0.89859 0.52966 0.69027 0.0
C759 C 0.90116 0.5792 0.6877 0.0
C760 C 0.94019 0.50101 0.68989 0.0
C761 C 0.98531 0.52097 0.68669 0.0
C762 C 0.98728 0.57036 0.68375 0.0
C763 C 0.94593 0.59911 0.68437 0.0
H764 H 0.49484 0.36397 0.93339 0.0
H765 H 0.37744 0.4508 0.9474 0.0
H766 H 0.54537 0.43601 0.93222 0.0
H767 H 0.42798 0.52197 0.94649 0.0
H768 H 0.51745 0.65023 0.93388 0.0
H769 H 0.46683 0.57823 0.93281 0.0
H770 H 0.58588 0.49152 0.94579 0.0
H771 H 0.63648 0.56266 0.94658 0.0
C772 C 0.47977 0.39826 0.93623 0.0
C773 C 0.43197 0.40127 0.94051 0.0
C774 C 0.50881 0.43962 0.93561 0.0
C775 C 0.49082 0.48502 0.93926 0.0
C776 C 0.44293 0.48795 0.94341 0.0
C777 C 0.41398 0.44679 0.94402 0.0
C778 C 0.53287 0.61578 0.93644 0.0
C779 C 0.58114 0.61257 0.94034 0.0
C780 C 0.50378 0.57445 0.93589 0.0
C781 C 0.52219 0.52885 0.93921 0.0
C782 C 0.57056 0.5257 0.94296 0.0
C783 C 0.59955 0.56684 0.94351 0.0
H784 H 0.64927 0.51886 0.07178 0.0
H785 H 0.562 0.63572 0.05768 0.0
H786 H 0.57729 0.46828 0.07317 0.0
H787 H 0.49097 0.58517 0.05878 0.0
H788 H 0.3626 0.49576 0.07113 0.0
H789 H 0.43454 0.54648 0.07236 0.0
H790 H 0.52188 0.42718 0.05979 0.0
H791 H 0.45088 0.37655 0.05885 0.0
C792 C 0.61491 0.53382 0.06897 0.0
C793 C 0.61179 0.58147 0.06459 0.0
C794 C 0.57357 0.50474 0.06972 0.0
C795 C 0.52806 0.52254 0.06609 0.0
C796 C 0.52502 0.57033 0.06186 0.0
C797 C 0.56614 0.59929 0.06113 0.0
C798 C 0.39718 0.4803 0.0687 0.0
C799 C 0.40059 0.43198 0.06486 0.0
C800 C 0.4385 0.50945 0.06935 0.0
C801 C 0.48427 0.49104 0.06617 0.0
C802 C 0.4876 0.44255 0.06251 0.0
C803 C 0.4465 0.41353 0.06187 0.0
H804 H 0.37731 0.06226 0.30791 0.0
H805 H 0.49435 0.1497 0.32183 0.0
H806 H 0.42789 0.99121 0.30901 0.0
H807 H 0.54495 0.07772 0.32322 0.0
H808 H 0.63647 0.95117 0.30888 0.0
H809 H 0.58582 0.02219 0.30982 0.0
H810 H 0.46682 0.93496 0.32259 0.0
H811 H 0.51754 0.86302 0.32136 0.0
C812 C 0.41378 0.06643 0.31133 0.0
C813 C 0.43166 0.11212 0.31473 0.0
C814 C 0.44276 0.02531 0.31205 0.0
C815 C 0.4906 0.02841 0.31623 0.0
C816 C 0.50844 0.07396 0.31981 0.0
C817 C 0.47935 0.1153 0.31906 0.0
C818 C 0.59955 0.94683 0.31194 0.0
C819 C 0.58119 0.90095 0.31499 0.0
C820 C 0.57052 0.98793 0.31258 0.0
C821 C 0.52212 0.98462 0.3163 0.0
C822 C 0.50378 0.93889 0.31954 0.0
C823 C 0.53294 0.89757 0.31889 0.0
H824 H 0.95057 0.8773 0.55944 0.0
H825 H 0.86268 0.99742 0.57131 0.0
H826 H 0.02177 0.92784 0.56023 0.0
H827 H 0.93466 0.04795 0.5724 0.0
H828 H 0.06194 0.13641 0.55756 0.0
H829 H 0.99098 0.08579 0.55869 0.0
H830 H 0.07714 0.96961 0.57352 0.0
H831 H 0.14907 0.02024 0.5721 0.0
C832 C 0.94634 0.91444 0.56234 0.0
C833 C 0.9005 0.9332 0.56526 0.0
C834 C 0.9875 0.94341 0.56289 0.0
C835 C 0.98425 0.99208 0.56639 0.0
C836 C 0.93855 0.01077 0.56951 0.0
C837 C 0.89721 0.98172 0.56894 0.0
C838 C 0.06605 0.10014 0.56112 0.0
C839 C 0.11162 0.08251 0.5647 0.0
C840 C 0.02499 0.07113 0.56186 0.0
C841 C 0.02802 0.02353 0.56623 0.0
C842 C 0.07345 1.00592 0.56996 0.0
C843 C 0.11475 0.03503 0.5692 0.0
H844 H 0.9943 0.64916 0.82168 0.0
H845 H 0.87755 0.56187 0.80755 0.0
H846 H 0.04479 0.57711 0.82315 0.0
H847 H 0.92801 0.49076 0.80874 0.0
H848 H 0.0172 0.36242 0.82119 0.0
H849 H 0.96657 0.43444 0.8224 0.0
H850 H 0.0859 0.52156 0.80978 0.0
H851 H 0.13645 0.45046 0.80886 0.0
C852 C 0.97935 0.61477 0.81889 0.0
C853 C 0.93177 0.61167 0.81447 0.0
C854 C 0.00837 0.5734 0.81968 0.0
C855 C 0.99057 0.52787 0.81607 0.0
C856 C 0.94284 0.52484 0.8118 0.0
C857 C 0.91393 0.566 0.81103 0.0
C858 C 0.03269 0.39697 0.81875 0.0
C859 C 0.08099 0.40028 0.81489 0.0
C860 C 1.00359 0.43833 0.81939 0.0
C861 C 0.02204 0.48405 0.81618 0.0
C862 C 0.0705 0.4873 0.81251 0.0
C863 C 0.09948 0.44616 0.81189 0.0
loop_
_geom_bond_atom_site_label_1
_geom_bond_atom_site_label_2
_geom_bond_distance
_geom_bond_site_symmetry_2
_ccdc_geom_bond_type
Co0 O1 2.216 . S
Co0 O2 2.091 . S
Co0 O4 2.004 . S
Co0 O10 2.021 . S
Co0 O12 2.137 . S
Co0 O13 2.244 . S
O1 Co0 2.216 . S
O1 C8 1.247 . S
O2 Co0 2.091 . S
O2 C8 1.261 . S
C3 O12 1.247 . S
C3 O13 1.272 . S
O4 Co0 2.004 . S
O4 C9 1.259 . S
Co5 O6 2.061 . S
Co5 O11 2.052 . S
Co5 O13 2.135 . S
O6 Co5 2.061 . S
O6 C9 1.235 . S
C7 O10 1.238 . S
C7 O11 1.241 . S
C8 O1 1.247 . S
C8 O2 1.261 . S
C9 O4 1.259 . S
C9 O6 1.235 . S
O10 Co0 2.021 . S
O10 C7 1.238 . S
O11 Co5 2.052 . S
O11 C7 1.241 . S
O12 Co0 2.137 . S
O12 C3 1.247 . S
O13 Co0 2.244 . S
O13 C3 1.272 . S
O13 Co5 2.135 . S
Co14 O15 2.216 . S
Co14 O16 2.091 . S
Co14 O18 2.004 . S
Co14 O24 2.021 . S
Co14 O26 2.137 . S
Co14 O27 2.244 . S
O15 Co14 2.216 . S
O15 C22 1.247 . S
O16 Co14 2.091 . S
O16 C22 1.261 . S
C17 O26 1.247 . S
C17 O27 1.272 . S
O18 Co14 2.004 . S
O18 C23 1.259 . S
Co19 O20 2.061 . S
Co19 O25 2.052 . S
Co19 O27 2.135 . S
O20 Co19 2.061 . S
O20 C23 1.235 . S
C21 O24 1.238 . S
C21 O25 1.241 . S
C22 O15 1.247 . S
C22 O16 1.261 . S
C23 O18 1.259 . S
C23 O20 1.235 . S
O24 Co14 2.021 . S
O24 C21 1.238 . S
O25 Co19 2.052 . S
O25 C21 1.241 . S
O26 Co14 2.137 . S
O26 C17 1.247 . S
O27 Co14 2.244 . S
O27 C17 1.272 . S
O27 Co19 2.135 . S
Co28 O29 2.216 . S
Co28 O30 2.091 . S
Co28 O32 2.004 . S
Co28 O38 2.021 . S
Co28 O40 2.137 . S
Co28 O41 2.244 . S
O29 Co28 2.216 . S
O29 C36 1.247 . S
O30 Co28 2.091 . S
O30 C36 1.261 . S
C31 O40 1.247 . S
C31 O41 1.272 . S
O32 Co28 2.004 . S
O32 C37 1.259 . S
Co33 O34 2.061 . S
Co33 O39 2.052 . S
Co33 O41 2.135 . S
O34 Co33 2.061 . S
O34 C37 1.235 . S
C35 O38 1.238 . S
C35 O39 1.241 . S
C36 O29 1.247 . S
C36 O30 1.261 . S
C37 O32 1.259 . S
C37 O34 1.235 . S
O38 Co28 2.021 . S
O38 C35 1.238 . S
O39 Co33 2.052 . S
O39 C35 1.241 . S
O40 Co28 2.137 . S
O40 C31 1.247 . S
O41 Co28 2.244 . S
O41 C31 1.272 . S
O41 Co33 2.135 . S
Co42 O43 2.216 . S
Co42 O44 2.091 . S
Co42 O46 2.004 . S
Co42 O52 2.021 . S
Co42 O54 2.137 . S
Co42 O55 2.244 . S
O43 Co42 2.216 . S
O43 C50 1.247 . S
O44 Co42 2.091 . S
O44 C50 1.261 . S
C45 O54 1.247 . S
C45 O55 1.272 . S
O46 Co42 2.004 . S
O46 C51 1.259 . S
Co47 O48 2.061 . S
Co47 O53 2.052 . S
Co47 O55 2.135 . S
O48 Co47 2.061 . S
O48 C51 1.235 . S
C49 O52 1.238 . S
C49 O53 1.241 . S
C50 O43 1.247 . S
C50 O44 1.261 . S
C51 O46 1.259 . S
C51 O48 1.235 . S
O52 Co42 2.021 . S
O52 C49 1.238 . S
O53 Co47 2.052 . S
O53 C49 1.241 . S
O54 Co42 2.137 . S
O54 C45 1.247 . S
O55 Co42 2.244 . S
O55 C45 1.272 . S
O55 Co47 2.135 . S
Co56 O57 2.216 . S
Co56 O58 2.091 . S
Co56 O60 2.004 . S
Co56 O66 2.021 . S
Co56 O68 2.137 . S
Co56 O69 2.244 . S
O57 Co56 2.216 . S
O57 C64 1.247 . S
O58 Co56 2.091 . S
O58 C64 1.261 . S
C59 O68 1.247 . S
C59 O69 1.272 . S
O60 Co56 2.004 . S
O60 C65 1.259 . S
Co61 O62 2.061 . S
Co61 O67 2.052 . S
Co61 O69 2.135 . S
O62 Co61 2.061 . S
O62 C65 1.235 . S
C63 O66 1.238 . S
C63 O67 1.241 . S
C64 O57 1.247 . S
C64 O58 1.261 . S
C65 O60 1.259 . S
C65 O62 1.235 . S
O66 Co56 2.021 . S
O66 C63 1.238 . S
O67 Co61 2.052 . S
O67 C63 1.241 . S
O68 Co56 2.137 . S
O68 C59 1.247 . S
O69 Co56 2.244 . S
O69 C59 1.272 . S
O69 Co61 2.135 . S
Co70 O71 2.216 . S
Co70 O72 2.091 . S
Co70 O74 2.004 . S
Co70 O80 2.021 . S
Co70 O82 2.137 . S
Co70 O83 2.244 . S
O71 Co70 2.216 . S
O71 C78 1.247 . S
O72 Co70 2.091 . S
O72 C78 1.261 . S
C73 O82 1.247 . S
C73 O83 1.272 . S
O74 Co70 2.004 . S
O74 C79 1.259 . S
Co75 O76 2.061 . S
Co75 O81 2.052 . S
Co75 O83 2.135 . S
O76 Co75 2.061 . S
O76 C79 1.235 . S
C77 O80 1.238 . S
C77 O81 1.241 . S
C78 O71 1.247 . S
C78 O72 1.261 . S
C79 O74 1.259 . S
C79 O76 1.235 . S
O80 Co70 2.021 . S
O80 C77 1.238 . S
O81 Co75 2.052 . S
O81 C77 1.241 . S
O82 Co70 2.137 . S
O82 C73 1.247 . S
O83 Co70 2.244 . S
O83 C73 1.272 . S
O83 Co75 2.135 . S
Co84 O85 2.216 . S
Co84 O86 2.091 . S
Co84 O88 2.004 . S
Co84 O94 2.021 . S
Co84 O96 2.137 . S
Co84 O97 2.244 . S
O85 Co84 2.216 . S
O85 C92 1.247 . S
O86 Co84 2.091 . S
O86 C92 1.261 . S
C87 O96 1.247 . S
C87 O97 1.272 . S
O88 Co84 2.004 . S
O88 C93 1.259 . S
Co89 O90 2.061 . S
Co89 O95 2.052 . S
Co89 O97 2.135 . S
O90 Co89 2.061 . S
O90 C93 1.235 . S
C91 O94 1.238 . S
C91 O95 1.241 . S
C92 O85 1.247 . S
C92 O86 1.261 . S
C93 O88 1.259 . S
C93 O90 1.235 . S
O94 Co84 2.021 . S
O94 C91 1.238 . S
O95 Co89 2.052 . S
O95 C91 1.241 . S
O96 Co84 2.137 . S
O96 C87 1.247 . S
O97 Co84 2.244 . S
O97 C87 1.272 . S
O97 Co89 2.135 . S
Co98 O99 2.216 . S
Co98 O100 2.091 . S
Co98 O102 2.004 . S
Co98 O108 2.021 . S
Co98 O110 2.137 . S
Co98 O111 2.244 . S
O99 Co98 2.216 . S
O99 C106 1.247 . S
O100 Co98 2.091 . S
O100 C106 1.261 . S
C101 O110 1.247 . S
C101 O111 1.272 . S
O102 Co98 2.004 . S
O102 C107 1.259 . S
Co103 O104 2.061 . S
Co103 O109 2.052 . S
Co103 O111 2.135 . S
O104 Co103 2.061 . S
O104 C107 1.235 . S
C105 O108 1.238 . S
C105 O109 1.241 . S
C106 O99 1.247 . S
C106 O100 1.261 . S
C107 O102 1.259 . S
C107 O104 1.235 . S
O108 Co98 2.021 . S
O108 C105 1.238 . S
O109 Co103 2.052 . S
O109 C105 1.241 . S
O110 Co98 2.137 . S
O110 C101 1.247 . S
O111 Co98 2.244 . S
O111 C101 1.272 . S
O111 Co103 2.135 . S
Co112 O113 2.216 . S
Co112 O114 2.091 . S
Co112 O116 2.004 . S
Co112 O122 2.021 . S
Co112 O124 2.137 . S
Co112 O125 2.244 . S
O113 Co112 2.216 . S
O113 C120 1.247 . S
O114 Co112 2.091 . S
O114 C120 1.261 . S
C115 O124 1.247 . S
C115 O125 1.272 . S
O116 Co112 2.004 . S
O116 C121 1.259 . S
Co117 O118 2.061 . S
Co117 O123 2.052 . S
Co117 O125 2.135 . S
O118 Co117 2.061 . S
O118 C121 1.235 . S
C119 O122 1.238 . S
C119 O123 1.241 . S
C120 O113 1.247 . S
C120 O114 1.261 . S
C121 O116 1.259 . S
C121 O118 1.235 . S
O122 Co112 2.021 . S
O122 C119 1.238 . S
O123 Co117 2.052 . S
O123 C119 1.241 . S
O124 Co112 2.137 . S
O124 C115 1.247 . S
O125 Co112 2.244 . S
O125 C115 1.272 . S
O125 Co117 2.135 . S
Co126 O127 2.216 . S
Co126 O128 2.091 . S
Co126 O130 2.004 . S
Co126 O136 2.021 . S
Co126 O138 2.137 . S
Co126 O139 2.244 . S
O127 Co126 2.216 . S
O127 C134 1.247 . S
O128 Co126 2.091 . S
O128 C134 1.261 . S
C129 O138 1.247 . S
C129 O139 1.272 . S
O130 Co126 2.004 . S
O130 C135 1.259 . S
Co131 O132 2.061 . S
Co131 O137 2.052 . S
Co131 O139 2.135 . S
O132 Co131 2.061 . S
O132 C135 1.235 . S
C133 O136 1.238 . S
C133 O137 1.241 . S
C134 O127 1.247 . S
C134 O128 1.261 . S
C135 O130 1.259 . S
C135 O132 1.235 . S
O136 Co126 2.021 . S
O136 C133 1.238 . S
O137 Co131 2.052 . S
O137 C133 1.241 . S
O138 Co126 2.137 . S
O138 C129 1.247 . S
O139 Co126 2.244 . S
O139 C129 1.272 . S
O139 Co131 2.135 . S
Co140 O141 2.216 . S
Co140 O142 2.091 . S
Co140 O144 2.004 . S
Co140 O150 2.021 . S
Co140 O152 2.137 . S
Co140 O153 2.244 . S
O141 Co140 2.216 . S
O141 C148 1.247 . S
O142 Co140 2.091 . S
O142 C148 1.261 . S
C143 O152 1.247 . S
C143 O153 1.272 . S
O144 Co140 2.004 . S
O144 C149 1.259 . S
Co145 O146 2.061 . S
Co145 O151 2.052 . S
Co145 O153 2.135 . S
O146 Co145 2.061 . S
O146 C149 1.235 . S
C147 O150 1.238 . S
C147 O151 1.241 . S
C148 O141 1.247 . S
C148 O142 1.261 . S
C149 O144 1.259 . S
C149 O146 1.235 . S
O150 Co140 2.021 . S
O150 C147 1.238 . S
O151 Co145 2.052 . S
O151 C147 1.241 . S
O152 Co140 2.137 . S
O152 C143 1.247 . S
O153 Co140 2.244 . S
O153 C143 1.272 . S
O153 Co145 2.135 . S
Co154 O155 2.216 . S
Co154 O156 2.091 . S
Co154 O158 2.004 . S
Co154 O164 2.021 . S
Co154 O166 2.137 . S
Co154 O167 2.244 . S
O155 Co154 2.216 . S
O155 C162 1.247 . S
O156 Co154 2.091 . S
O156 C162 1.261 . S
C157 O166 1.247 . S
C157 O167 1.272 . S
O158 Co154 2.004 . S
O158 C163 1.259 . S
Co159 O160 2.061 . S
Co159 O165 2.052 . S
Co159 O167 2.135 . S
O160 Co159 2.061 . S
O160 C163 1.235 . S
C161 O164 1.238 . S
C161 O165 1.241 . S
C162 O155 1.247 . S
C162 O156 1.261 . S
C163 O158 1.259 . S
C163 O160 1.235 . S
O164 Co154 2.021 . S
O164 C161 1.238 . S
O165 Co159 2.052 . S
O165 C161 1.241 . S
O166 Co154 2.137 . S
O166 C157 1.247 . S
O167 Co154 2.244 . S
O167 C157 1.272 . S
O167 Co159 2.135 . S
Co168 O169 2.216 . S
Co168 O170 2.091 . S
Co168 O172 2.004 . S
Co168 O178 2.021 . S
Co168 O180 2.137 . S
Co168 O181 2.244 . S
O169 Co168 2.216 . S
O169 C176 1.247 . S
O170 Co168 2.091 . S
O170 C176 1.261 . S
C171 O180 1.247 . S
C171 O181 1.272 . S
O172 Co168 2.004 . S
O172 C177 1.259 . S
Co173 O174 2.061 . S
Co173 O179 2.052 . S
Co173 O181 2.135 . S
O174 Co173 2.061 . S
O174 C177 1.235 . S
C175 O178 1.238 . S
C175 O179 1.241 . S
C176 O169 1.247 . S
C176 O170 1.261 . S
C177 O172 1.259 . S
C177 O174 1.235 . S
O178 Co168 2.021 . S
O178 C175 1.238 . S
O179 Co173 2.052 . S
O179 C175 1.241 . S
O180 Co168 2.137 . S
O180 C171 1.247 . S
O181 Co168 2.244 . S
O181 C171 1.272 . S
O181 Co173 2.135 . S
Co182 O183 2.216 . S
Co182 O184 2.091 . S
Co182 O186 2.004 . S
Co182 O192 2.021 . S
Co182 O194 2.137 . S
Co182 O195 2.244 . S
O183 Co182 2.216 . S
O183 C190 1.247 . S
O184 Co182 2.091 . S
O184 C190 1.261 . S
C185 O194 1.247 . S
C185 O195 1.272 . S
O186 Co182 2.004 . S
O186 C191 1.259 . S
Co187 O188 2.061 . S
Co187 O193 2.052 . S
Co187 O195 2.135 . S
O188 Co187 2.061 . S
O188 C191 1.235 . S
C189 O192 1.238 . S
C189 O193 1.241 . S
C190 O183 1.247 . S
C190 O184 1.261 . S
C191 O186 1.259 . S
C191 O188 1.235 . S
O192 Co182 2.021 . S
O192 C189 1.238 . S
O193 Co187 2.052 . S
O193 C189 1.241 . S
O194 Co182 2.137 . S
O194 C185 1.247 . S
O195 Co182 2.244 . S
O195 C185 1.272 . S
O195 Co187 2.135 . S
Co196 O197 2.216 . S
Co196 O198 2.091 . S
Co196 O200 2.004 . S
Co196 O206 2.021 . S
Co196 O208 2.137 . S
Co196 O209 2.244 . S
O197 Co196 2.216 . S
O197 C204 1.247 . S
O198 Co196 2.091 . S
O198 C204 1.261 . S
C199 O208 1.247 . S
C199 O209 1.272 . S
O200 Co196 2.004 . S
O200 C205 1.259 . S
Co201 O202 2.061 . S
Co201 O207 2.052 . S
Co201 O209 2.135 . S
O202 Co201 2.061 . S
O202 C205 1.235 . S
C203 O206 1.238 . S
C203 O207 1.241 . S
C204 O197 1.247 . S
C204 O198 1.261 . S
C205 O200 1.259 . S
C205 O202 1.235 . S
O206 Co196 2.021 . S
O206 C203 1.238 . S
O207 Co201 2.052 . S
O207 C203 1.241 . S
O208 Co196 2.137 . S
O208 C199 1.247 . S
O209 Co196 2.244 . S
O209 C199 1.272 . S
O209 Co201 2.135 . S
Co210 O211 2.216 . S
Co210 O212 2.091 . S
Co210 O214 2.004 . S
Co210 O220 2.021 . S
Co210 O222 2.137 . S
Co210 O223 2.244 . S
O211 Co210 2.216 . S
O211 C218 1.247 . S
O212 Co210 2.091 . S
O212 C218 1.261 . S
C213 O222 1.247 . S
C213 O223 1.272 . S
O214 Co210 2.004 . S
O214 C219 1.259 . S
Co215 O216 2.061 . S
Co215 O221 2.052 . S
Co215 O223 2.135 . S
O216 Co215 2.061 . S
O216 C219 1.235 . S
C217 O220 1.238 . S
C217 O221 1.241 . S
C218 O211 1.247 . S
C218 O212 1.261 . S
C219 O214 1.259 . S
C219 O216 1.235 . S
O220 Co210 2.021 . S
O220 C217 1.238 . S
O221 Co215 2.052 . S
O221 C217 1.241 . S
O222 Co210 2.137 . S
O222 C213 1.247 . S
O223 Co210 2.244 . S
O223 C213 1.272 . S
O223 Co215 2.135 . S
H224 C232 0.950 . S
H225 C237 0.950 . S
H226 C234 0.950 . S
H227 C236 0.950 . S
H228 C238 0.950 . S
H229 C240 0.950 . S
H230 C242 0.950 . S
H231 C243 0.950 . S
C232 H224 0.950 . S
C232 C233 1.386 . S
C232 C234 1.391 . S
C233 C232 1.386 . S
C233 C237 1.393 . S
C234 H226 0.950 . S
C234 C232 1.391 . S
C234 C235 1.400 . S
C235 C234 1.400 . S
C235 C236 1.398 . S
C235 C241 1.491 . S
C236 H227 0.950 . S
C236 C235 1.398 . S
C236 C237 1.391 . S
C237 H225 0.950 . S
C237 C233 1.393 . S
C237 C236 1.391 . S
C238 H228 0.950 . S
C238 C239 1.386 . S
C238 C240 1.391 . S
C239 C238 1.386 . S
C239 C243 1.393 . S
C240 H229 0.950 . S
C240 C238 1.391 . S
C240 C241 1.400 . S
C241 C235 1.491 . S
C241 C240 1.400 . S
C241 C242 1.398 . S
C242 H230 0.950 . S
C242 C241 1.398 . S
C242 C243 1.391 . S
C243 H231 0.950 . S
C243 C239 1.393 . S
C243 C242 1.391 . S
H244 C252 0.950 . S
H245 C257 0.950 . S
H246 C254 0.950 . S
H247 C256 0.950 . S
H248 C258 0.950 . S
H249 C260 0.950 . S
H250 C262 0.950 . S
H251 C263 0.950 . S
C252 H244 0.950 . S
C252 C253 1.386 . S
C252 C254 1.391 . S
C253 C252 1.386 . S
C253 C257 1.393 . S
C254 H246 0.950 . S
C254 C252 1.391 . S
C254 C255 1.400 . S
C255 C254 1.400 . S
C255 C256 1.398 . S
C255 C261 1.491 . S
C256 H247 0.950 . S
C256 C255 1.398 . S
C256 C257 1.391 . S
C257 H245 0.950 . S
C257 C253 1.393 . S
C257 C256 1.391 . S
C258 H248 0.950 . S
C258 C259 1.386 . S
C258 C260 1.391 . S
C259 C258 1.386 . S
C259 C263 1.393 . S
C260 H249 0.950 . S
C260 C258 1.391 . S
C260 C261 1.400 . S
C261 C255 1.491 . S
C261 C260 1.400 . S
C261 C262 1.398 . S
C262 H250 0.950 . S
C262 C261 1.398 . S
C262 C263 1.391 . S
C263 H251 0.950 . S
C263 C259 1.393 . S
C263 C262 1.391 . S
H264 C272 0.950 . S
H265 C277 0.950 . S
H266 C274 0.950 . S
H267 C276 0.950 . S
H268 C278 0.950 . S
H269 C280 0.950 . S
H270 C282 0.950 . S
H271 C283 0.950 . S
C272 H264 0.950 . S
C272 C273 1.386 . S
C272 C274 1.391 . S
C273 C272 1.386 . S
C273 C277 1.393 . S
C274 H266 0.950 . S
C274 C272 1.391 . S
C274 C275 1.400 . S
C275 C274 1.400 . S
C275 C276 1.398 . S
C275 C281 1.491 . S
C276 H267 0.950 . S
C276 C275 1.398 . S
C276 C277 1.391 . S
C277 H265 0.950 . S
C277 C273 1.393 . S
C277 C276 1.391 . S
C278 H268 0.950 . S
C278 C279 1.386 . S
C278 C280 1.391 . S
C279 C278 1.386 . S
C279 C283 1.393 . S
C280 H269 0.950 . S
C280 C278 1.391 . S
C280 C281 1.400 . S
C281 C275 1.491 . S
C281 C280 1.400 . S
C281 C282 1.398 . S
C282 H270 0.950 . S
C282 C281 1.398 . S
C282 C283 1.391 . S
C283 H271 0.950 . S
C283 C279 1.393 . S
C283 C282 1.391 . S
H284 C292 0.950 . S
H285 C297 0.950 . S
H286 C294 0.950 . S
H287 C296 0.950 . S
H288 C298 0.950 . S
H289 C300 0.950 . S
H290 C302 0.950 . S
H291 C303 0.950 . S
C292 H284 0.950 . S
C292 C293 1.386 . S
C292 C294 1.391 . S
C293 C292 1.386 . S
C293 C297 1.393 . S
C294 H286 0.950 . S
C294 C292 1.391 . S
C294 C295 1.400 . S
C295 C294 1.400 . S
C295 C296 1.398 . S
C295 C301 1.491 . S
C296 H287 0.950 . S
C296 C295 1.398 . S
C296 C297 1.391 . S
C297 H285 0.950 . S
C297 C293 1.393 . S
C297 C296 1.391 . S
C298 H288 0.950 . S
C298 C299 1.386 . S
C298 C300 1.391 . S
C299 C298 1.386 . S
C299 C303 1.393 . S
C300 H289 0.950 . S
C300 C298 1.391 . S
C300 C301 1.400 . S
C301 C295 1.491 . S
C301 C300 1.400 . S
C301 C302 1.398 . S
C302 H290 0.950 . S
C302 C301 1.398 . S
C302 C303 1.391 . S
C303 H291 0.950 . S
C303 C299 1.393 . S
C303 C302 1.391 . S
H304 C312 0.950 . S
H305 C317 0.950 . S
H306 C314 0.950 . S
H307 C316 0.950 . S
H308 C318 0.950 . S
H309 C320 0.950 . S
H310 C322 0.950 . S
H311 C323 0.950 . S
C312 H304 0.950 . S
C312 C313 1.386 . S
C312 C314 1.391 . S
C313 C312 1.386 . S
C313 C317 1.393 . S
C314 H306 0.950 . S
C314 C312 1.391 . S
C314 C315 1.400 . S
C315 C314 1.400 . S
C315 C316 1.398 . S
C315 C321 1.491 . S
C316 H307 0.950 . S
C316 C315 1.398 . S
C316 C317 1.391 . S
C317 H305 0.950 . S
C317 C313 1.393 . S
C317 C316 1.391 . S
C318 H308 0.950 . S
C318 C319 1.386 . S
C318 C320 1.391 . S
C319 C318 1.386 . S
C319 C323 1.393 . S
C320 H309 0.950 . S
C320 C318 1.391 . S
C320 C321 1.400 . S
C321 C315 1.491 . S
C321 C320 1.400 . S
C321 C322 1.398 . S
C322 H310 0.950 . S
C322 C321 1.398 . S
C322 C323 1.391 . S
C323 H311 0.950 . S
C323 C319 1.393 . S
C323 C322 1.391 . S
H324 C332 0.950 . S
H325 C337 0.950 . S
H326 C334 0.950 . S
H327 C336 0.950 . S
H328 C338 0.950 . S
H329 C340 0.950 . S
H330 C342 0.950 . S
H331 C343 0.950 . S
C332 H324 0.950 . S
C332 C333 1.386 . S
C332 C334 1.391 . S
C333 C332 1.386 . S
C333 C337 1.393 . S
C334 H326 0.950 . S
C334 C332 1.391 . S
C334 C335 1.400 . S
C335 C334 1.400 . S
C335 C336 1.398 . S
C335 C341 1.491 . S
C336 H327 0.950 . S
C336 C335 1.398 . S
C336 C337 1.391 . S
C337 H325 0.950 . S
C337 C333 1.393 . S
C337 C336 1.391 . S
C338 H328 0.950 . S
C338 C339 1.386 . S
C338 C340 1.391 . S
C339 C338 1.386 . S
C339 C343 1.393 . S
C340 H329 0.950 . S
C340 C338 1.391 . S
C340 C341 1.400 . S
C341 C335 1.491 . S
C341 C340 1.400 . S
C341 C342 1.398 . S
C342 H330 0.950 . S
C342 C341 1.398 . S
C342 C343 1.391 . S
C343 H331 0.950 . S
C343 C339 1.393 . S
C343 C342 1.391 . S
H344 C352 0.950 . S
H345 C357 0.950 . S
H346 C354 0.950 . S
H347 C356 0.950 . S
H348 C358 0.950 . S
H349 C360 0.950 . S
H350 C362 0.950 . S
H351 C363 0.950 . S
C352 H344 0.950 . S
C352 C353 1.386 . S
C352 C354 1.391 . S
C353 C352 1.386 . S
C353 C357 1.393 . S
C354 H346 0.950 . S
C354 C352 1.391 . S
C354 C355 1.400 . S
C355 C354 1.400 . S
C355 C356 1.398 . S
C355 C361 1.491 . S
C356 H347 0.950 . S
C356 C355 1.398 . S
C356 C357 1.391 . S
C357 H345 0.950 . S
C357 C353 1.393 . S
C357 C356 1.391 . S
C358 H348 0.950 . S
C358 C359 1.386 . S
C358 C360 1.391 . S
C359 C358 1.386 . S
C359 C363 1.393 . S
C360 H349 0.950 . S
C360 C358 1.391 . S
C360 C361 1.400 . S
C361 C355 1.491 . S
C361 C360 1.400 . S
C361 C362 1.398 . S
C362 H350 0.950 . S
C362 C361 1.398 . S
C362 C363 1.391 . S
C363 H351 0.950 . S
C363 C359 1.393 . S
C363 C362 1.391 . S
H364 C372 0.950 . S
H365 C377 0.950 . S
H366 C374 0.950 . S
H367 C376 0.950 . S
H368 C378 0.950 . S
H369 C380 0.950 . S
H370 C382 0.950 . S
H371 C383 0.950 . S
C372 H364 0.950 . S
C372 C373 1.386 . S
C372 C374 1.391 . S
C373 C372 1.386 . S
C373 C377 1.393 . S
C374 H366 0.950 . S
C374 C372 1.391 . S
C374 C375 1.400 . S
C375 C374 1.400 . S
C375 C376 1.398 . S
C375 C381 1.491 . S
C376 H367 0.950 . S
C376 C375 1.398 . S
C376 C377 1.391 . S
C377 H365 0.950 . S
C377 C373 1.393 . S
C377 C376 1.391 . S
C378 H368 0.950 . S
C378 C379 1.386 . S
C378 C380 1.391 . S
C379 C378 1.386 . S
C379 C383 1.393 . S
C380 H369 0.950 . S
C380 C378 1.391 . S
C380 C381 1.400 . S
C381 C375 1.491 . S
C381 C380 1.400 . S
C381 C382 1.398 . S
C382 H370 0.950 . S
C382 C381 1.398 . S
C382 C383 1.391 . S
C383 H371 0.950 . S
C383 C379 1.393 . S
C383 C382 1.391 . S
H384 C392 0.950 . S
H385 C397 0.950 . S
H386 C394 0.950 . S
H387 C396 0.950 . S
H388 C398 0.950 . S
H389 C400 0.950 . S
H390 C402 0.950 . S
H391 C403 0.950 . S
C392 H384 0.950 . S
C392 C393 1.386 . S
C392 C394 1.391 . S
C393 C392 1.386 . S
C393 C397 1.393 . S
C394 H386 0.950 . S
C394 C392 1.391 . S
C394 C395 1.400 . S
C395 C394 1.400 . S
C395 C396 1.398 . S
C395 C401 1.491 . S
C396 H387 0.950 . S
C396 C395 1.398 . S
C396 C397 1.391 . S
C397 H385 0.950 . S
C397 C393 1.393 . S
C397 C396 1.391 . S
C398 H388 0.950 . S
C398 C399 1.386 . S
C398 C400 1.391 . S
C399 C398 1.386 . S
C399 C403 1.393 . S
C400 H389 0.950 . S
C400 C398 1.391 . S
C400 C401 1.400 . S
C401 C395 1.491 . S
C401 C400 1.400 . S
C401 C402 1.398 . S
C402 H390 0.950 . S
C402 C401 1.398 . S
C402 C403 1.391 . S
C403 H391 0.950 . S
C403 C399 1.393 . S
C403 C402 1.391 . S
H404 C412 0.950 . S
H405 C417 0.950 . S
H406 C414 0.950 . S
H407 C416 0.950 . S
H408 C418 0.950 . S
H409 C420 0.950 . S
H410 C422 0.950 . S
H411 C423 0.950 . S
C412 H404 0.950 . S
C412 C413 1.386 . S
C412 C414 1.391 . S
C413 C412 1.386 . S
C413 C417 1.393 . S
C414 H406 0.950 . S
C414 C412 1.391 . S
C414 C415 1.400 . S
C415 C414 1.400 . S
C415 C416 1.398 . S
C415 C421 1.491 . S
C416 H407 0.950 . S
C416 C415 1.398 . S
C416 C417 1.391 . S
C417 H405 0.950 . S
C417 C413 1.393 . S
C417 C416 1.391 . S
C418 H408 0.950 . S
C418 C419 1.386 . S
C418 C420 1.391 . S
C419 C418 1.386 . S
C419 C423 1.393 . S
C420 H409 0.950 . S
C420 C418 1.391 . S
C420 C421 1.400 . S
C421 C415 1.491 . S
C421 C420 1.400 . S
C421 C422 1.398 . S
C422 H410 0.950 . S
C422 C421 1.398 . S
C422 C423 1.391 . S
C423 H411 0.950 . S
C423 C419 1.393 . S
C423 C422 1.391 . S
H424 C432 0.950 . S
H425 C437 0.950 . S
H426 C434 0.950 . S
H427 C436 0.950 . S
H428 C438 0.950 . S
H429 C440 0.950 . S
H430 C442 0.950 . S
H431 C443 0.950 . S
C432 H424 0.950 . S
C432 C433 1.386 . S
C432 C434 1.391 . S
C433 C432 1.386 . S
C433 C437 1.393 . S
C434 H426 0.950 . S
C434 C432 1.391 . S
C434 C435 1.400 . S
C435 C434 1.400 . S
C435 C436 1.398 . S
C435 C441 1.491 . S
C436 H427 0.950 . S
C436 C435 1.398 . S
C436 C437 1.391 . S
C437 H425 0.950 . S
C437 C433 1.393 . S
C437 C436 1.391 . S
C438 H428 0.950 . S
C438 C439 1.386 . S
C438 C440 1.391 . S
C439 C438 1.386 . S
C439 C443 1.393 . S
C440 H429 0.950 . S
C440 C438 1.391 . S
C440 C441 1.400 . S
C441 C435 1.491 . S
C441 C440 1.400 . S
C441 C442 1.398 . S
C442 H430 0.950 . S
C442 C441 1.398 . S
C442 C443 1.391 . S
C443 H431 0.950 . S
C443 C439 1.393 . S
C443 C442 1.391 . S
H444 C452 0.950 . S
H445 C457 0.950 . S
H446 C454 0.950 . S
H447 C456 0.950 . S
H448 C458 0.950 . S
H449 C460 0.950 . S
H450 C462 0.950 . S
H451 C463 0.950 . S
C452 H444 0.950 . S
C452 C453 1.386 . S
C452 C454 1.391 . S
C453 C452 1.386 . S
C453 C457 1.393 . S
C454 H446 0.950 . S
C454 C452 1.391 . S
C454 C455 1.400 . S
C455 C454 1.400 . S
C455 C456 1.398 . S
C455 C461 1.491 1_554 S
C456 H447 0.950 . S
C456 C455 1.398 . S
C456 C457 1.391 . S
C457 H445 0.950 . S
C457 C453 1.393 . S
C457 C456 1.391 . S
C458 H448 0.950 . S
C458 C459 1.386 . S
C458 C460 1.391 . S
C459 C458 1.386 . S
C459 C463 1.393 . S
C460 H449 0.950 . S
C460 C458 1.391 . S
C460 C461 1.400 . S
C461 C455 1.491 1_556 S
C461 C460 1.400 . S
C461 C462 1.398 . S
C462 H450 0.950 . S
C462 C461 1.398 . S
C462 C463 1.391 . S
C463 H451 0.950 . S
C463 C459 1.393 . S
C463 C462 1.391 . S
H464 C472 0.950 . S
H465 C477 0.950 . S
H466 C474 0.950 . S
H467 C476 0.950 . S
H468 C478 0.950 . S
H469 C480 0.950 . S
H470 C482 0.950 . S
H471 C483 0.950 . S
C472 H464 0.950 . S
C472 C473 1.386 . S
C472 C474 1.391 . S
C473 C472 1.386 . S
C473 C477 1.393 . S
C474 H466 0.950 . S
C474 C472 1.391 . S
C474 C475 1.400 . S
C475 C474 1.400 . S
C475 C476 1.398 . S
C475 C481 1.491 1_554 S
C476 H467 0.950 . S
C476 C475 1.398 . S
C476 C477 1.391 . S
C477 H465 0.950 . S
C477 C473 1.393 . S
C477 C476 1.391 . S
C478 H468 0.950 . S
C478 C479 1.386 . S
C478 C480 1.391 . S
C479 C478 1.386 . S
C479 C483 1.393 . S
C480 H469 0.950 . S
C480 C478 1.391 . S
C480 C481 1.400 . S
C481 C475 1.491 1_556 S
C481 C480 1.400 . S
C481 C482 1.398 . S
C482 H470 0.950 . S
C482 C481 1.398 . S
C482 C483 1.391 . S
C483 H471 0.950 . S
C483 C479 1.393 . S
C483 C482 1.391 . S
H484 C492 0.950 . S
H485 C497 0.950 . S
H486 C494 0.950 . S
H487 C496 0.950 . S
H488 C498 0.950 . S
H489 C500 0.950 . S
H490 C502 0.950 . S
H491 C503 0.950 . S
C492 H484 0.950 . S
C492 C493 1.386 . S
C492 C494 1.391 . S
C493 C492 1.386 . S
C493 C497 1.393 . S
C494 H486 0.950 . S
C494 C492 1.391 . S
C494 C495 1.400 . S
C495 C494 1.400 . S
C495 C496 1.398 . S
C495 C501 1.491 . S
C496 H487 0.950 . S
C496 C495 1.398 . S
C496 C497 1.391 . S
C497 H485 0.950 . S
C497 C493 1.393 . S
C497 C496 1.391 . S
C498 H488 0.950 . S
C498 C499 1.386 . S
C498 C500 1.391 . S
C499 C498 1.386 . S
C499 C503 1.393 . S
C500 H489 0.950 . S
C500 C498 1.391 . S
C500 C501 1.400 . S
C501 C495 1.491 . S
C501 C500 1.400 . S
C501 C502 1.398 . S
C502 H490 0.950 . S
C502 C501 1.398 . S
C502 C503 1.391 . S
C503 H491 0.950 . S
C503 C499 1.393 . S
C503 C502 1.391 . S
H504 C512 0.950 . S
H505 C517 0.950 . S
H506 C514 0.950 . S
H507 C516 0.950 . S
H508 C518 0.950 . S
H509 C520 0.950 . S
H510 C522 0.950 . S
H511 C523 0.950 . S
C512 H504 0.950 . S
C512 C513 1.386 . S
C512 C514 1.391 . S
C513 C512 1.386 . S
C513 C517 1.393 . S
C514 H506 0.950 . S
C514 C512 1.391 . S
C514 C515 1.400 . S
C515 C514 1.400 . S
C515 C516 1.398 . S
C515 C521 1.491 . S
C516 H507 0.950 . S
C516 C515 1.398 . S
C516 C517 1.391 . S
C517 H505 0.950 . S
C517 C513 1.393 . S
C517 C516 1.391 . S
C518 H508 0.950 . S
C518 C519 1.386 . S
C518 C520 1.391 . S
C519 C518 1.386 . S
C519 C523 1.393 . S
C520 H509 0.950 . S
C520 C518 1.391 . S
C520 C521 1.400 . S
C521 C515 1.491 . S
C521 C520 1.400 . S
C521 C522 1.398 . S
C522 H510 0.950 . S
C522 C521 1.398 . S
C522 C523 1.391 . S
C523 H511 0.950 . S
C523 C519 1.393 . S
C523 C522 1.391 . S
H524 C532 0.950 . S
H525 C537 0.950 . S
H526 C534 0.950 . S
H527 C536 0.950 . S
H528 C538 0.950 . S
H529 C540 0.950 . S
H530 C542 0.950 . S
H531 C543 0.950 . S
C532 H524 0.950 . S
C532 C533 1.386 . S
C532 C534 1.391 . S
C533 C532 1.386 . S
C533 C537 1.393 . S
C534 H526 0.950 . S
C534 C532 1.391 . S
C534 C535 1.400 . S
C535 C534 1.400 . S
C535 C536 1.398 . S
C535 C541 1.491 . S
C536 H527 0.950 . S
C536 C535 1.398 . S
C536 C537 1.391 . S
C537 H525 0.950 . S
C537 C533 1.393 . S
C537 C536 1.391 . S
C538 H528 0.950 . S
C538 C539 1.386 . S
C538 C540 1.391 . S
C539 C538 1.386 . S
C539 C543 1.393 . S
C540 H529 0.950 . S
C540 C538 1.391 . S
C540 C541 1.400 . S
C541 C535 1.491 . S
C541 C540 1.400 . S
C541 C542 1.398 . S
C542 H530 0.950 . S
C542 C541 1.398 . S
C542 C543 1.391 . S
C543 H531 0.950 . S
C543 C539 1.393 . S
C543 C542 1.391 . S
H544 C552 0.950 . S
H545 C557 0.950 . S
H546 C554 0.950 1_565 S
H547 C556 0.950 . S
H548 C558 0.950 . S
H549 C560 0.950 1_545 S
H550 C562 0.950 . S
H551 C563 0.950 . S
C552 H544 0.950 . S
C552 C553 1.386 . S
C552 C554 1.391 . S
C553 C552 1.386 . S
C553 C557 1.393 . S
C554 H546 0.950 1_545 S
C554 C552 1.391 . S
C554 C555 1.400 . S
C555 C554 1.400 . S
C555 C556 1.398 . S
C555 C561 1.491 1_445 S
C556 H547 0.950 . S
C556 C555 1.398 . S
C556 C557 1.391 . S
C557 H545 0.950 . S
C557 C553 1.393 . S
C557 C556 1.391 . S
C558 H548 0.950 . S
C558 C559 1.386 . S
C558 C560 1.391 . S
C559 C558 1.386 . S
C559 C563 1.393 . S
C560 H549 0.950 1_565 S
C560 C558 1.391 . S
C560 C561 1.400 . S
C561 C555 1.491 1_665 S
C561 C560 1.400 . S
C561 C562 1.398 . S
C562 H550 0.950 . S
C562 C561 1.398 . S
C562 C563 1.391 . S
C563 H551 0.950 . S
C563 C559 1.393 . S
C563 C562 1.391 . S
H564 C572 0.950 . S
H565 C577 0.950 . S
H566 C574 0.950 . S
H567 C576 0.950 . S
H568 C578 0.950 . S
H569 C580 0.950 . S
H570 C582 0.950 . S
H571 C583 0.950 . S
C572 H564 0.950 . S
C572 C573 1.386 . S
C572 C574 1.391 1_455 S
C573 C572 1.386 . S
C573 C577 1.393 . S
C574 H566 0.950 . S
C574 C572 1.391 1_655 S
C574 C575 1.400 1_655 S
C575 C574 1.400 1_455 S
C575 C576 1.398 . S
C575 C581 1.491 1_455 S
C576 H567 0.950 . S
C576 C575 1.398 . S
C576 C577 1.391 . S
C577 H565 0.950 . S
C577 C573 1.393 . S
C577 C576 1.391 . S
C578 H568 0.950 . S
C578 C579 1.386 . S
C578 C580 1.391 1_655 S
C579 C578 1.386 . S
C579 C583 1.393 . S
C580 H569 0.950 . S
C580 C578 1.391 1_455 S
C580 C581 1.400 1_455 S
C581 C575 1.491 1_655 S
C581 C580 1.400 1_655 S
C581 C582 1.398 . S
C582 H570 0.950 . S
C582 C581 1.398 . S
C582 C583 1.391 . S
C583 H571 0.950 . S
C583 C579 1.393 . S
C583 C582 1.391 . S
H584 C592 0.950 . S
H585 C597 0.950 . S
H586 C594 0.950 . S
H587 C596 0.950 . S
H588 C598 0.950 . S
H589 C600 0.950 . S
H590 C602 0.950 . S
H591 C603 0.950 . S
C592 H584 0.950 . S
C592 C593 1.386 . S
C592 C594 1.391 . S
C593 C592 1.386 . S
C593 C597 1.393 . S
C594 H586 0.950 . S
C594 C592 1.391 . S
C594 C595 1.400 . S
C595 C594 1.400 . S
C595 C596 1.398 . S
C595 C601 1.491 . S
C596 H587 0.950 . S
C596 C595 1.398 . S
C596 C597 1.391 . S
C597 H585 0.950 . S
C597 C593 1.393 . S
C597 C596 1.391 . S
C598 H588 0.950 . S
C598 C599 1.386 . S
C598 C600 1.391 . S
C599 C598 1.386 . S
C599 C603 1.393 . S
C600 H589 0.950 . S
C600 C598 1.391 . S
C600 C601 1.400 . S
C601 C595 1.491 . S
C601 C600 1.400 . S
C601 C602 1.398 . S
C602 H590 0.950 . S
C602 C601 1.398 . S
C602 C603 1.391 . S
C603 H591 0.950 . S
C603 C599 1.393 . S
C603 C602 1.391 . S
H604 C612 0.950 . S
H605 C617 0.950 . S
H606 C614 0.950 . S
H607 C616 0.950 . S
H608 C618 0.950 . S
H609 C620 0.950 . S
H610 C622 0.950 . S
H611 C623 0.950 . S
C612 H604 0.950 . S
C612 C613 1.386 . S
C612 C614 1.391 . S
C613 C612 1.386 . S
C613 C617 1.393 . S
C614 H606 0.950 . S
C614 C612 1.391 . S
C614 C615 1.400 . S
C615 C614 1.400 . S
C615 C616 1.398 . S
C615 C621 1.491 1_545 S
C616 H607 0.950 . S
C616 C615 1.398 . S
C616 C617 1.391 . S
C617 H605 0.950 . S
C617 C613 1.393 . S
C617 C616 1.391 . S
C618 H608 0.950 . S
C618 C619 1.386 . S
C618 C620 1.391 . S
C619 C618 1.386 . S
C619 C623 1.393 . S
C620 H609 0.950 . S
C620 C618 1.391 . S
C620 C621 1.400 . S
C621 C615 1.491 1_565 S
C621 C620 1.400 . S
C621 C622 1.398 . S
C622 H610 0.950 . S
C622 C621 1.398 . S
C622 C623 1.391 . S
C623 H611 0.950 . S
C623 C619 1.393 . S
C623 C622 1.391 . S
H624 C632 0.950 . S
H625 C637 0.950 . S
H626 C634 0.950 1_655 S
H627 C636 0.950 . S
H628 C638 0.950 . S
H629 C640 0.950 1_455 S
H630 C642 0.950 . S
H631 C643 0.950 . S
C632 H624 0.950 . S
C632 C633 1.386 . S
C632 C634 1.391 . S
C633 C632 1.386 . S
C633 C637 1.393 . S
C634 H626 0.950 1_455 S
C634 C632 1.391 . S
C634 C635 1.400 . S
C635 C634 1.400 . S
C635 C636 1.398 . S
C635 C641 1.491 1_455 S
C636 H627 0.950 . S
C636 C635 1.398 . S
C636 C637 1.391 . S
C637 H625 0.950 . S
C637 C633 1.393 . S
C637 C636 1.391 . S
C638 H628 0.950 . S
C638 C639 1.386 . S
C638 C640 1.391 . S
C639 C638 1.386 . S
C639 C643 1.393 . S
C640 H629 0.950 1_655 S
C640 C638 1.391 . S
C640 C641 1.400 . S
C641 C635 1.491 1_655 S
C641 C640 1.400 . S
C641 C642 1.398 . S
C642 H630 0.950 . S
C642 C641 1.398 . S
C642 C643 1.391 . S
C643 H631 0.950 . S
C643 C639 1.393 . S
C643 C642 1.391 . S
H644 C652 0.950 . S
H645 C657 0.950 . S
H646 C654 0.950 . S
H647 C656 0.950 . S
H648 C658 0.950 . S
H649 C660 0.950 . S
H650 C662 0.950 . S
H651 C663 0.950 . S
C652 H644 0.950 . S
C652 C653 1.386 . S
C652 C654 1.391 . S
C653 C652 1.386 . S
C653 C657 1.393 . S
C654 H646 0.950 . S
C654 C652 1.391 . S
C654 C655 1.400 . S
C655 C654 1.400 . S
C655 C656 1.398 . S
C655 C661 1.491 . S
C656 H647 0.950 . S
C656 C655 1.398 . S
C656 C657 1.391 . S
C657 H645 0.950 . S
C657 C653 1.393 . S
C657 C656 1.391 . S
C658 H648 0.950 . S
C658 C659 1.386 . S
C658 C660 1.391 . S
C659 C658 1.386 . S
C659 C663 1.393 . S
C660 H649 0.950 . S
C660 C658 1.391 . S
C660 C661 1.400 . S
C661 C655 1.491 . S
C661 C660 1.400 . S
C661 C662 1.398 . S
C662 H650 0.950 . S
C662 C661 1.398 . S
C662 C663 1.391 . S
C663 H651 0.950 . S
C663 C659 1.393 . S
C663 C662 1.391 . S
H664 C672 0.950 . S
H665 C677 0.950 . S
H666 C674 0.950 . S
H667 C676 0.950 . S
H668 C678 0.950 . S
H669 C680 0.950 . S
H670 C682 0.950 . S
H671 C683 0.950 . S
C672 H664 0.950 . S
C672 C673 1.386 . S
C672 C674 1.391 1_565 S
C673 C672 1.386 . S
C673 C677 1.393 . S
C674 H666 0.950 . S
C674 C672 1.391 1_545 S
C674 C675 1.400 1_545 S
C675 C674 1.400 1_565 S
C675 C676 1.398 . S
C675 C681 1.491 1_565 S
C676 H667 0.950 . S
C676 C675 1.398 . S
C676 C677 1.391 . S
C677 H665 0.950 . S
C677 C673 1.393 . S
C677 C676 1.391 . S
C678 H668 0.950 . S
C678 C679 1.386 . S
C678 C680 1.391 1_545 S
C679 C678 1.386 . S
C679 C683 1.393 . S
C680 H669 0.950 . S
C680 C678 1.391 1_565 S
C680 C681 1.400 1_565 S
C681 C675 1.491 1_545 S
C681 C680 1.400 1_545 S
C681 C682 1.398 . S
C682 H670 0.950 . S
C682 C681 1.398 . S
C682 C683 1.391 . S
C683 H671 0.950 . S
C683 C679 1.393 . S
C683 C682 1.391 . S
H684 C692 0.950 . S
H685 C697 0.950 . S
H686 C694 0.950 . S
H687 C696 0.950 . S
H688 C698 0.950 . S
H689 C700 0.950 . S
H690 C702 0.950 . S
H691 C703 0.950 . S
C692 H684 0.950 . S
C692 C693 1.386 . S
C692 C694 1.391 1_455 S
C693 C692 1.386 . S
C693 C697 1.393 . S
C694 H686 0.950 . S
C694 C692 1.391 1_655 S
C694 C695 1.400 1_655 S
C695 C694 1.400 1_455 S
C695 C696 1.398 . S
C695 C701 1.491 1_445 S
C696 H687 0.950 . S
C696 C695 1.398 . S
C696 C697 1.391 . S
C697 H685 0.950 . S
C697 C693 1.393 . S
C697 C696 1.391 . S
C698 H688 0.950 . S
C698 C699 1.386 . S
C698 C700 1.391 1_655 S
C699 C698 1.386 . S
C699 C703 1.393 . S
C700 H689 0.950 . S
C700 C698 1.391 1_455 S
C700 C701 1.400 1_455 S
C701 C695 1.491 1_665 S
C701 C700 1.400 1_655 S
C701 C702 1.398 . S
C702 H690 0.950 . S
C702 C701 1.398 . S
C702 C703 1.391 . S
C703 H691 0.950 . S
C703 C699 1.393 . S
C703 C702 1.391 . S
H704 C712 0.950 . S
H705 C717 0.950 . S
H706 C714 0.950 . S
H707 C716 0.947 1_545 S
H708 C718 0.950 . S
H709 C720 0.950 . S
H710 C722 0.947 1_565 S
H711 C723 0.950 . S
C712 H704 0.950 . S
C712 C713 1.386 . S
C712 C714 1.391 . S
C713 C712 1.386 . S
C713 C717 1.393 . S
C714 H706 0.950 . S
C714 C712 1.391 . S
C714 C715 1.400 . S
C715 C714 1.400 . S
C715 C716 1.399 . S
C715 C721 1.491 1_565 S
C716 H707 0.947 1_565 S
C716 C715 1.399 . S
C716 C717 1.393 . S
C717 H705 0.950 . S
C717 C713 1.393 . S
C717 C716 1.393 . S
C718 H708 0.950 . S
C718 C719 1.386 . S
C718 C720 1.391 . S
C719 C718 1.386 . S
C719 C723 1.393 . S
C720 H709 0.950 . S
C720 C718 1.391 . S
C720 C721 1.400 . S
C721 C715 1.491 1_545 S
C721 C720 1.400 . S
C721 C722 1.399 . S
C722 H710 0.947 1_545 S
C722 C721 1.399 . S
C722 C723 1.393 . S
C723 H711 0.950 . S
C723 C719 1.393 . S
C723 C722 1.393 . S
H724 C732 0.950 . S
H725 C737 0.950 . S
H726 C734 0.950 1_455 S
H727 C736 0.950 . S
H728 C738 0.950 . S
H729 C740 0.950 1_655 S
H730 C742 0.950 . S
H731 C743 0.950 . S
C732 H724 0.950 . S
C732 C733 1.386 . S
C732 C734 1.391 . S
C733 C732 1.386 . S
C733 C737 1.393 . S
C734 H726 0.950 1_655 S
C734 C732 1.391 . S
C734 C735 1.400 . S
C735 C734 1.400 . S
C735 C736 1.398 . S
C735 C741 1.491 1_665 S
C736 H727 0.950 . S
C736 C735 1.398 . S
C736 C737 1.391 . S
C737 H725 0.950 . S
C737 C733 1.393 . S
C737 C736 1.391 . S
C738 H728 0.950 . S
C738 C739 1.386 . S
C738 C740 1.391 . S
C739 C738 1.386 . S
C739 C743 1.393 . S
C740 H729 0.950 1_455 S
C740 C738 1.391 . S
C740 C741 1.400 . S
C741 C735 1.491 1_445 S
C741 C740 1.400 . S
C741 C742 1.398 . S
C742 H730 0.950 . S
C742 C741 1.398 . S
C742 C743 1.391 . S
C743 H731 0.950 . S
C743 C739 1.393 . S
C743 C742 1.391 . S
H744 C752 0.950 . S
H745 C757 0.950 . S
H746 C754 0.950 . S
H747 C756 0.950 1_655 S
H748 C758 0.950 . S
H749 C760 0.950 . S
H750 C762 0.950 1_455 S
H751 C763 0.950 . S
C752 H744 0.950 . S
C752 C753 1.386 . S
C752 C754 1.391 . S
C753 C752 1.386 . S
C753 C757 1.393 . S
C754 H746 0.950 . S
C754 C752 1.391 . S
C754 C755 1.400 . S
C755 C754 1.400 . S
C755 C756 1.398 . S
C755 C761 1.491 1_455 S
C756 H747 0.950 1_455 S
C756 C755 1.398 . S
C756 C757 1.391 . S
C757 H745 0.950 . S
C757 C753 1.393 . S
C757 C756 1.391 . S
C758 H748 0.950 . S
C758 C759 1.386 . S
C758 C760 1.391 . S
C759 C758 1.386 . S
C759 C763 1.393 . S
C760 H749 0.950 . S
C760 C758 1.391 . S
C760 C761 1.400 . S
C761 C755 1.491 1_655 S
C761 C760 1.400 . S
C761 C762 1.398 . S
C762 H750 0.950 1_655 S
C762 C761 1.398 . S
C762 C763 1.391 . S
C763 H751 0.950 . S
C763 C759 1.393 . S
C763 C762 1.391 . S
H764 C772 0.950 . S
H765 C777 0.950 . S
H766 C774 0.950 . S
H767 C776 0.950 . S
H768 C778 0.950 . S
H769 C780 0.950 . S
H770 C782 0.950 . S
H771 C783 0.950 . S
C772 H764 0.950 . S
C772 C773 1.386 . S
C772 C774 1.391 . S
C773 C772 1.386 . S
C773 C777 1.393 . S
C774 H766 0.950 . S
C774 C772 1.391 . S
C774 C775 1.400 . S
C775 C774 1.400 . S
C775 C776 1.398 . S
C775 C781 1.491 . S
C776 H767 0.950 . S
C776 C775 1.398 . S
C776 C777 1.391 . S
C777 H765 0.950 . S
C777 C773 1.393 . S
C777 C776 1.391 . S
C778 H768 0.950 . S
C778 C779 1.386 . S
C778 C780 1.391 . S
C779 C778 1.386 . S
C779 C783 1.393 . S
C780 H769 0.950 . S
C780 C778 1.391 . S
C780 C781 1.400 . S
C781 C775 1.491 . S
C781 C780 1.400 . S
C781 C782 1.398 . S
C782 H770 0.950 . S
C782 C781 1.398 . S
C782 C783 1.391 . S
C783 H771 0.950 . S
C783 C779 1.393 . S
C783 C782 1.391 . S
H784 C792 0.950 . S
H785 C797 0.950 . S
H786 C794 0.950 . S
H787 C796 0.950 . S
H788 C798 0.950 . S
H789 C800 0.950 . S
H790 C802 0.950 . S
H791 C803 0.950 . S
C792 H784 0.950 . S
C792 C793 1.386 . S
C792 C794 1.391 . S
C793 C792 1.386 . S
C793 C797 1.393 . S
C794 H786 0.950 . S
C794 C792 1.391 . S
C794 C795 1.400 . S
C795 C794 1.400 . S
C795 C796 1.398 . S
C795 C801 1.491 . S
C796 H787 0.950 . S
C796 C795 1.398 . S
C796 C797 1.391 . S
C797 H785 0.950 . S
C797 C793 1.393 . S
C797 C796 1.391 . S
C798 H788 0.950 . S
C798 C799 1.386 . S
C798 C800 1.391 . S
C799 C798 1.386 . S
C799 C803 1.393 . S
C800 H789 0.950 . S
C800 C798 1.391 . S
C800 C801 1.400 . S
C801 C795 1.491 . S
C801 C800 1.400 . S
C801 C802 1.398 . S
C802 H790 0.950 . S
C802 C801 1.398 . S
C802 C803 1.391 . S
C803 H791 0.950 . S
C803 C799 1.393 . S
C803 C802 1.391 . S
H804 C812 0.950 . S
H805 C817 0.950 . S
H806 C814 0.950 . S
H807 C816 0.950 . S
H808 C818 0.950 . S
H809 C820 0.950 . S
H810 C822 0.950 . S
H811 C823 0.950 . S
C812 H804 0.950 . S
C812 C813 1.386 . S
C812 C814 1.391 . S
C813 C812 1.386 . S
C813 C817 1.393 . S
C814 H806 0.950 . S
C814 C812 1.391 . S
C814 C815 1.400 . S
C815 C814 1.400 . S
C815 C816 1.398 . S
C815 C821 1.491 1_545 S
C816 H807 0.950 . S
C816 C815 1.398 . S
C816 C817 1.391 . S
C817 H805 0.950 . S
C817 C813 1.393 . S
C817 C816 1.391 . S
C818 H808 0.950 . S
C818 C819 1.386 . S
C818 C820 1.391 . S
C819 C818 1.386 . S
C819 C823 1.393 . S
C820 H809 0.950 . S
C820 C818 1.391 . S
C820 C821 1.400 . S
C821 C815 1.491 1_565 S
C821 C820 1.400 . S
C821 C822 1.398 . S
C822 H810 0.950 . S
C822 C821 1.398 . S
C822 C823 1.391 . S
C823 H811 0.950 . S
C823 C819 1.393 . S
C823 C822 1.391 . S
H824 C832 0.950 . S
H825 C837 0.950 . S
H826 C834 0.950 . S
H827 C836 0.950 . S
H828 C838 0.950 . S
H829 C840 0.950 . S
H830 C842 0.950 . S
H831 C843 0.950 . S
C832 H824 0.950 . S
C832 C833 1.386 . S
C832 C834 1.391 . S
C833 C832 1.386 . S
C833 C837 1.393 . S
C834 H826 0.950 . S
C834 C832 1.391 . S
C834 C835 1.400 . S
C835 C834 1.400 . S
C835 C836 1.398 1_565 S
C835 C841 1.491 1_665 S
C836 H827 0.950 . S
C836 C835 1.398 1_545 S
C836 C837 1.391 1_545 S
C837 H825 0.950 . S
C837 C833 1.393 . S
C837 C836 1.391 1_565 S
C838 H828 0.950 . S
C838 C839 1.386 . S
C838 C840 1.391 . S
C839 C838 1.386 . S
C839 C843 1.393 . S
C840 H829 0.950 . S
C840 C838 1.391 . S
C840 C841 1.400 . S
C841 C835 1.491 1_445 S
C841 C840 1.400 . S
C841 C842 1.398 1_545 S
C842 H830 0.950 . S
C842 C841 1.398 1_565 S
C842 C843 1.391 1_565 S
C843 H831 0.950 . S
C843 C839 1.393 . S
C843 C842 1.391 1_545 S
H844 C852 0.950 . S
H845 C857 0.950 . S
H846 C854 0.950 . S
H847 C856 0.950 . S
H848 C858 0.950 . S
H849 C860 0.950 . S
H850 C862 0.950 . S
H851 C863 0.950 . S
C852 H844 0.950 . S
C852 C853 1.386 . S
C852 C854 1.391 1_655 S
C853 C852 1.386 . S
C853 C857 1.393 . S
C854 H846 0.950 . S
C854 C852 1.391 1_455 S
C854 C855 1.400 1_455 S
C855 C854 1.400 1_655 S
C855 C856 1.398 . S
C855 C861 1.491 1_655 S
C856 H847 0.950 . S
C856 C855 1.398 . S
C856 C857 1.391 . S
C857 H845 0.950 . S
C857 C853 1.393 . S
C857 C856 1.391 . S
C858 H848 0.950 . S
C858 C859 1.386 . S
C858 C860 1.391 1_455 S
C859 C858 1.386 . S
C859 C863 1.393 . S
C860 H849 0.950 . S
C860 C858 1.391 1_655 S
C860 C861 1.400 1_655 S
C861 C855 1.491 1_455 S
C861 C860 1.400 1_455 S
C861 C862 1.398 . S
C862 H850 0.950 . S
C862 C861 1.398 . S
C862 C863 1.391 . S
C863 H851 0.950 . S
C863 C859 1.393 . S
C863 C862 1.391 . S
C233 C63 1.343 . S
C239 C7 1.353 . S
C253 C21 1.343 . S
C259 C77 1.340 . S
C273 C91 1.347 . S
C279 C35 1.349 . S
C293 C105 1.343 . S
C299 C49 1.341 . S
C313 C175 1.337 . S
C319 C119 1.355 . S
C333 C133 1.338 . S
C339 C189 1.354 . S
C353 C203 1.344 . S
C359 C147 1.339 . S
C373 C161 1.341 . S
C379 C217 1.354 . S
C393 C3 1.417 . S
C399 C213 1.407 . S
C413 C17 1.408 . S
C419 C171 1.416 . S
C433 C31 1.415 . S
C439 C185 1.409 . S
C453 C199 1.411 . S
C459 C45 1.419 . S
C473 C59 1.419 . S
C479 C129 1.409 . S
C493 C73 1.420 . S
C499 C143 1.409 . S
C513 C157 1.413 . S
C519 C87 1.410 . S
C533 C115 1.417 . S
C539 C101 1.407 . S
C553 C8 1.625 . S
C559 C148 1.626 . S
C573 C162 1.618 . S
C579 C22 1.621 . S
C593 C36 1.624 . S
C599 C120 1.625 . S
C613 C134 1.625 . S
C619 C50 1.626 . S
C633 C64 1.622 . S
C639 C204 1.620 . S
C653 C78 1.617 . S
C659 C218 1.618 . S
C673 C176 1.624 . S
C679 C92 1.625 . S
C693 C190 1.619 . S
C699 C106 1.621 . S
C713 C149 1.381 . S
C719 C9 1.385 . S
C733 C23 1.385 . S
C739 C163 1.379 . S
C753 C37 1.381 . S
C759 C121 1.373 . S
C773 C135 1.374 . S
C779 C51 1.370 . S
C793 C205 1.374 . S
C799 C65 1.370 . S
C813 C219 1.381 . S
C819 C79 1.385 . S
C833 C177 1.371 . S
C839 C93 1.378 . S
C853 C107 1.377 . S
C859 C191 1.370 . S
