# Generated by pormake.
# Topology yfm, (5)-cn, num edge types: 1
# Building blocks:
#     Node 0, Type 0, BuildingBlock: BEQFEK_clean_sbu_0, # of connection points: 5
#     Node 1, Type 0, BuildingBlock: BEQFEK_clean_sbu_0, # of connection points: 5
#     Node 2, Type 0, BuildingBlock: BEQFEK_clean_sbu_0, # of connection points: 5
#     Node 3, Type 0, BuildingBlock: BEQFEK_clean_sbu_0, # of connection points: 5
#     Node 4, Type 0, BuildingBlock: BEQFEK_clean_sbu_0, # of connection points: 5
#     Node 5, Type 0, BuildingBlock: BEQFEK_clean_sbu_0, # of connection points: 5
#     Node 6, Type 0, BuildingBlock: BEQFEK_clean_sbu_0, # of connection points: 5
#     Node 7, Type 0, BuildingBlock: BEQFEK_clean_sbu_0, # of connection points: 5
#     Node 8, Type 0, BuildingBlock: BEQFEK_clean_sbu_0, # of connection points: 5
#     Node 9, Type 0, BuildingBlock: BEQFEK_clean_sbu_0, # of connection points: 5
#     Node 10, Type 0, BuildingBlock: BEQFEK_clean_sbu_0, # of connection points: 5
#     Node 11, Type 0, BuildingBlock: BEQFEK_clean_sbu_0, # of connection points: 5
#     Node 12, Type 0, BuildingBlock: BEQFEK_clean_sbu_0, # of connection points: 5
#     Node 13, Type 0, BuildingBlock: BEQFEK_clean_sbu_0, # of connection points: 5
#     Node 14, Type 0, BuildingBlock: BEQFEK_clean_sbu_0, # of connection points: 5
#     Node 15, Type 0, BuildingBlock: BEQFEK_clean_sbu_0, # of connection points: 5
#     Node 16, Type 0, BuildingBlock: BEQFEK_clean_sbu_0, # of connection points: 5
#     Node 17, Type 0, BuildingBlock: BEQFEK_clean_sbu_0, # of connection points: 5
#     Node 18, Type 0, BuildingBlock: BEQFEK_clean_sbu_0, # of connection points: 5
#     Node 19, Type 0, BuildingBlock: BEQFEK_clean_sbu_0, # of connection points: 5
#     Node 20, Type 0, BuildingBlock: BEQFEK_clean_sbu_0, # of connection points: 5
#     Node 21, Type 0, BuildingBlock: BEQFEK_clean_sbu_0, # of connection points: 5
#     Node 22, Type 0, BuildingBlock: BEQFEK_clean_sbu_0, # of connection points: 5
#     Node 23, Type 0, BuildingBlock: BEQFEK_clean_sbu_0, # of connection points: 5
#     Node 24, Type 0, BuildingBlock: BEQFEK_clean_sbu_0, # of connection points: 5
#     Node 25, Type 0, BuildingBlock: BEQFEK_clean_sbu_0, # of connection points: 5
#     Node 26, Type 0, BuildingBlock: BEQFEK_clean_sbu_0, # of connection points: 5
#     Node 27, Type 0, BuildingBlock: BEQFEK_clean_sbu_0, # of connection points: 5
#     Node 28, Type 0, BuildingBlock: BEQFEK_clean_sbu_0, # of connection points: 5
#     Node 29, Type 0, BuildingBlock: BEQFEK_clean_sbu_0, # of connection points: 5
#     Node 30, Type 0, BuildingBlock: BEQFEK_clean_sbu_0, # of connection points: 5
#     Node 31, Type 0, BuildingBlock: BEQFEK_clean_sbu_0, # of connection points: 5
#     Edge 32, Type (0, 0), BuildingBlock: XIVTED_clean_linker_0, # of connection points: 2
#     Edge 33, Type (0, 0), BuildingBlock: XIVTED_clean_linker_0, # of connection points: 2
#     Edge 34, Type (0, 0), BuildingBlock: XIVTED_clean_linker_0, # of connection points: 2
#     Edge 35, Type (0, 0), BuildingBlock: XIVTED_clean_linker_0, # of connection points: 2
#     Edge 36, Type (0, 0), BuildingBlock: XIVTED_clean_linker_0, # of connection points: 2
#     Edge 37, Type (0, 0), BuildingBlock: XIVTED_clean_linker_0, # of connection points: 2
#     Edge 38, Type (0, 0), BuildingBlock: XIVTED_clean_linker_0, # of connection points: 2
#     Edge 39, Type (0, 0), BuildingBlock: XIVTED_clean_linker_0, # of connection points: 2
#     Edge 40, Type (0, 0), BuildingBlock: XIVTED_clean_linker_0, # of connection points: 2
#     Edge 41, Type (0, 0), BuildingBlock: XIVTED_clean_linker_0, # of connection points: 2
#     Edge 42, Type (0, 0), BuildingBlock: XIVTED_clean_linker_0, # of connection points: 2
#     Edge 43, Type (0, 0), BuildingBlock: XIVTED_clean_linker_0, # of connection points: 2
#     Edge 44, Type (0, 0), BuildingBlock: XIVTED_clean_linker_0, # of connection points: 2
#     Edge 45, Type (0, 0), BuildingBlock: XIVTED_clean_linker_0, # of connection points: 2
#     Edge 46, Type (0, 0), BuildingBlock: XIVTED_clean_linker_0, # of connection points: 2
#     Edge 47, Type (0, 0), BuildingBlock: XIVTED_clean_linker_0, # of connection points: 2
#     Edge 48, Type (0, 0), BuildingBlock: XIVTED_clean_linker_0, # of connection points: 2
#     Edge 49, Type (0, 0), BuildingBlock: XIVTED_clean_linker_0, # of connection points: 2
#     Edge 50, Type (0, 0), BuildingBlock: XIVTED_clean_linker_0, # of connection points: 2
#     Edge 51, Type (0, 0), BuildingBlock: XIVTED_clean_linker_0, # of connection points: 2
#     Edge 52, Type (0, 0), BuildingBlock: XIVTED_clean_linker_0, # of connection points: 2
#     Edge 53, Type (0, 0), BuildingBlock: XIVTED_clean_linker_0, # of connection points: 2
#     Edge 54, Type (0, 0), BuildingBlock: XIVTED_clean_linker_0, # of connection points: 2
#     Edge 55, Type (0, 0), BuildingBlock: XIVTED_clean_linker_0, # of connection points: 2
#     Edge 56, Type (0, 0), BuildingBlock: XIVTED_clean_linker_0, # of connection points: 2
#     Edge 57, Type (0, 0), BuildingBlock: XIVTED_clean_linker_0, # of connection points: 2
#     Edge 58, Type (0, 0), BuildingBlock: XIVTED_clean_linker_0, # of connection points: 2
#     Edge 59, Type (0, 0), BuildingBlock: XIVTED_clean_linker_0, # of connection points: 2
#     Edge 60, Type (0, 0), BuildingBlock: XIVTED_clean_linker_0, # of connection points: 2
#     Edge 61, Type (0, 0), BuildingBlock: XIVTED_clean_linker_0, # of connection points: 2
#     Edge 62, Type (0, 0), BuildingBlock: XIVTED_clean_linker_0, # of connection points: 2
#     Edge 63, Type (0, 0), BuildingBlock: XIVTED_clean_linker_0, # of connection points: 2
#     Edge 64, Type (0, 0), BuildingBlock: XIVTED_clean_linker_0, # of connection points: 2
#     Edge 65, Type (0, 0), BuildingBlock: XIVTED_clean_linker_0, # of connection points: 2
#     Edge 66, Type (0, 0), BuildingBlock: XIVTED_clean_linker_0, # of connection points: 2
#     Edge 67, Type (0, 0), BuildingBlock: XIVTED_clean_linker_0, # of connection points: 2
#     Edge 68, Type (0, 0), BuildingBlock: XIVTED_clean_linker_0, # of connection points: 2
#     Edge 69, Type (0, 0), BuildingBlock: XIVTED_clean_linker_0, # of connection points: 2
#     Edge 70, Type (0, 0), BuildingBlock: XIVTED_clean_linker_0, # of connection points: 2
#     Edge 71, Type (0, 0), BuildingBlock: XIVTED_clean_linker_0, # of connection points: 2
#     Edge 72, Type (0, 0), BuildingBlock: XIVTED_clean_linker_0, # of connection points: 2
#     Edge 73, Type (0, 0), BuildingBlock: XIVTED_clean_linker_0, # of connection points: 2
#     Edge 74, Type (0, 0), BuildingBlock: XIVTED_clean_linker_0, # of connection points: 2
#     Edge 75, Type (0, 0), BuildingBlock: XIVTED_clean_linker_0, # of connection points: 2
#     Edge 76, Type (0, 0), BuildingBlock: XIVTED_clean_linker_0, # of connection points: 2
#     Edge 77, Type (0, 0), BuildingBlock: XIVTED_clean_linker_0, # of connection points: 2
#     Edge 78, Type (0, 0), BuildingBlock: XIVTED_clean_linker_0, # of connection points: 2
#     Edge 79, Type (0, 0), BuildingBlock: XIVTED_clean_linker_0, # of connection points: 2
#     Edge 80, Type (0, 0), BuildingBlock: XIVTED_clean_linker_0, # of connection points: 2
#     Edge 81, Type (0, 0), BuildingBlock: XIVTED_clean_linker_0, # of connection points: 2
#     Edge 82, Type (0, 0), BuildingBlock: XIVTED_clean_linker_0, # of connection points: 2
#     Edge 83, Type (0, 0), BuildingBlock: XIVTED_clean_linker_0, # of connection points: 2
#     Edge 84, Type (0, 0), BuildingBlock: XIVTED_clean_linker_0, # of connection points: 2
#     Edge 85, Type (0, 0), BuildingBlock: XIVTED_clean_linker_0, # of connection points: 2
#     Edge 86, Type (0, 0), BuildingBlock: XIVTED_clean_linker_0, # of connection points: 2
#     Edge 87, Type (0, 0), BuildingBlock: XIVTED_clean_linker_0, # of connection points: 2
#     Edge 88, Type (0, 0), BuildingBlock: XIVTED_clean_linker_0, # of connection points: 2
#     Edge 89, Type (0, 0), BuildingBlock: XIVTED_clean_linker_0, # of connection points: 2
#     Edge 90, Type (0, 0), BuildingBlock: XIVTED_clean_linker_0, # of connection points: 2
#     Edge 91, Type (0, 0), BuildingBlock: XIVTED_clean_linker_0, # of connection points: 2
#     Edge 92, Type (0, 0), BuildingBlock: XIVTED_clean_linker_0, # of connection points: 2
#     Edge 93, Type (0, 0), BuildingBlock: XIVTED_clean_linker_0, # of connection points: 2
#     Edge 94, Type (0, 0), BuildingBlock: XIVTED_clean_linker_0, # of connection points: 2
#     Edge 95, Type (0, 0), BuildingBlock: XIVTED_clean_linker_0, # of connection points: 2
#     Edge 96, Type (0, 0), BuildingBlock: XIVTED_clean_linker_0, # of connection points: 2
#     Edge 97, Type (0, 0), BuildingBlock: XIVTED_clean_linker_0, # of connection points: 2
#     Edge 98, Type (0, 0), BuildingBlock: XIVTED_clean_linker_0, # of connection points: 2
#     Edge 99, Type (0, 0), BuildingBlock: XIVTED_clean_linker_0, # of connection points: 2
#     Edge 100, Type (0, 0), BuildingBlock: XIVTED_clean_linker_0, # of connection points: 2
#     Edge 101, Type (0, 0), BuildingBlock: XIVTED_clean_linker_0, # of connection points: 2
#     Edge 102, Type (0, 0), BuildingBlock: XIVTED_clean_linker_0, # of connection points: 2
#     Edge 103, Type (0, 0), BuildingBlock: XIVTED_clean_linker_0, # of connection points: 2
#     Edge 104, Type (0, 0), BuildingBlock: XIVTED_clean_linker_0, # of connection points: 2
#     Edge 105, Type (0, 0), BuildingBlock: XIVTED_clean_linker_0, # of connection points: 2
#     Edge 106, Type (0, 0), BuildingBlock: XIVTED_clean_linker_0, # of connection points: 2
#     Edge 107, Type (0, 0), BuildingBlock: XIVTED_clean_linker_0, # of connection points: 2
#     Edge 108, Type (0, 0), BuildingBlock: XIVTED_clean_linker_0, # of connection points: 2
#     Edge 109, Type (0, 0), BuildingBlock: XIVTED_clean_linker_0, # of connection points: 2
#     Edge 110, Type (0, 0), BuildingBlock: XIVTED_clean_linker_0, # of connection points: 2
#     Edge 111, Type (0, 0), BuildingBlock: XIVTED_clean_linker_0, # of connection points: 2
# Relax obj value: 0.527
# Max RMSD: 0.230
# Mean RMSD: 0.230
data_MOF--net-yfm--node1-BEQFEK_clean_sbu_0--edge1-XIVTED_clean_linker_0
_symmetry_space_group_name_H-M    P1
_symmetry_Int_Tables_number       1
_symmetry_cell_setting            triclinic
loop_
_symmetry_equiv_pos_as_xyz
'x, y, z'
_cell_length_a     64.359935
_cell_length_b     64.345342
_cell_length_c     50.660484
_cell_angle_alpha  90.005912
_cell_angle_beta   89.993449
_cell_angle_gamma 89.992185
loop_
_atom_site_label
_atom_site_type_symbol
_atom_site_fract_x
_atom_site_fract_y
_atom_site_fract_z
_atom_type_partial_charge
Co0 Co 0.22843 0.13936 0.11682 0.0
Co1 Co 0.22896 0.11618 0.06186 0.0
C2 C 0.26618 0.11738 0.09787 0.0
O3 O 0.25679 0.12838 0.11488 0.0
O4 O 0.25715 0.11167 0.07675 0.0
C5 C 0.24387 0.16575 0.15713 0.0
O6 O 0.25975 0.16683 0.1409 0.0
C7 C 0.24784 0.10976 0.01054 0.0
C8 C 0.22644 0.08842 0.99004 0.0
C9 C 0.24556 0.09822 0.98744 0.0
N10 N 0.23119 0.10659 0.02604 0.0
N11 N 0.21832 0.09395 0.01359 0.0
C12 C 0.26516 0.12421 0.01783 0.0
H13 H 0.2595 0.13629 0.03172 0.0
H14 H 0.27174 0.13174 0.99998 0.0
H15 H 0.2776 0.11535 0.02795 0.0
C16 C 0.2159 0.17442 0.08329 0.0
N17 N 0.22138 0.15442 0.08632 0.0
N18 N 0.22141 0.14509 0.06316 0.0
C19 C 0.21609 0.15915 0.04452 0.0
C20 C 0.21236 0.17813 0.05672 0.0
C21 C 0.21533 0.18982 0.10543 0.0
H22 H 0.20546 0.18372 0.12162 0.0
H23 H 0.23127 0.19188 0.11329 0.0
H24 H 0.20939 0.20519 0.09906 0.0
O25 O 0.20937 0.11578 0.12114 0.0
O26 O 0.20925 0.09827 0.08321 0.0
H27 H 0.20676 0.13921 0.01276 0.0
H28 H 0.20523 0.16674 0.00536 0.0
C29 C 0.2143 0.15452 0.01568 0.0
H30 H 0.23007 0.15387 0.0069 0.0
H31 H 0.20433 0.08859 0.02148 0.0
O32 O 0.22764 0.15601 0.14986 0.0
C33 C 0.2032 0.10057 0.1071 0.0
Co34 Co 0.11592 0.97442 0.36669 0.0
Co35 Co 0.13758 0.97758 0.31089 0.0
C36 C 0.13522 0.01392 0.34767 0.0
O37 O 0.12576 0.00332 0.36503 0.0
O38 O 0.14052 0.00589 0.32577 0.0
C39 C 0.08965 0.98885 0.40759 0.0
O40 O 0.08833 0.00491 0.39168 0.0
C41 C 0.14293 0.9969 0.25953 0.0
C42 C 0.1647 0.97611 0.23872 0.0
C43 C 0.15438 0.99498 0.2363 0.0
N44 N 0.14665 0.98028 0.27492 0.0
N45 N 0.15954 0.96778 0.26227 0.0
C46 C 0.12808 0.01381 0.26706 0.0
H47 H 0.11634 0.00786 0.2812 0.0
H48 H 0.12016 0.02015 0.24933 0.0
H49 H 0.1367 0.02652 0.27697 0.0
C50 C 0.08056 0.96139 0.33386 0.0
N51 N 0.1005 0.96724 0.33642 0.0
N52 N 0.10921 0.9684 0.31292 0.0
C53 C 0.0948 0.96343 0.29455 0.0
C54 C 0.07623 0.95879 0.30724 0.0
C55 C 0.06564 0.96021 0.35649 0.0
H56 H 0.07243 0.95057 0.37246 0.0
H57 H 0.0631 0.97607 0.36442 0.0
H58 H 0.0504 0.95368 0.35065 0.0
O59 O 0.14037 0.95622 0.37007 0.0
O60 O 0.15702 0.95903 0.33164 0.0
H61 H 0.11417 0.95667 0.26118 0.0
H62 H 0.08656 0.95387 0.25509 0.0
C63 C 0.09858 0.96319 0.26543 0.0
H64 H 0.09799 0.97931 0.25777 0.0
H65 H 0.16533 0.95392 0.27003 0.0
O66 O 0.09963 0.97284 0.40004 0.0
C67 C 0.1557 0.95188 0.35515 0.0
Co68 Co 0.27565 0.86663 0.61821 0.0
Co69 Co 0.27132 0.88784 0.56194 0.0
C70 C 0.23567 0.88589 0.59942 0.0
O71 O 0.24691 0.87694 0.61657 0.0
O72 O 0.24295 0.89081 0.57692 0.0
C73 C 0.26072 0.84 0.65818 0.0
O74 O 0.24524 0.83845 0.6414 0.0
C75 C 0.25371 0.89789 0.50952 0.0
C76 C 0.28142 0.90622 0.48615 0.0
C77 C 0.26006 0.90387 0.48439 0.0
N78 N 0.27053 0.89638 0.52523 0.0
N79 N 0.28705 0.90146 0.5111 0.0
C80 C 0.23192 0.8959 0.51947 0.0
H81 H 0.22974 0.88037 0.52859 0.0
H82 H 0.22008 0.89842 0.50398 0.0
H83 H 0.22946 0.90789 0.53485 0.0
C84 C 0.28832 0.83108 0.58559 0.0
N85 N 0.28238 0.85101 0.58804 0.0
N86 N 0.28009 0.85931 0.56445 0.0
C87 C 0.28393 0.84451 0.54615 0.0
C88 C 0.28949 0.82624 0.55898 0.0
C89 C 0.29107 0.81658 0.60844 0.0
H90 H 0.27556 0.81238 0.61634 0.0
H91 H 0.29921 0.80211 0.60268 0.0
H92 H 0.29992 0.82446 0.62434 0.0
O93 O 0.2942 0.89066 0.62123 0.0
O94 O 0.29006 0.90723 0.58293 0.0
H95 H 0.28422 0.83289 0.50603 0.0
H96 H 0.26603 0.85376 0.51259 0.0
C97 C 0.28174 0.84759 0.51703 0.0
H98 H 0.29332 0.8592 0.51033 0.0
H99 H 0.30219 0.90161 0.51846 0.0
O100 O 0.27676 0.85034 0.65155 0.0
C101 C 0.29795 0.90598 0.60608 0.0
Co102 Co 0.38763 0.02157 0.8658 0.0
Co103 Co 0.3646 0.02282 0.81059 0.0
C104 C 0.36446 0.98495 0.84557 0.0
O105 O 0.37581 0.99367 0.86278 0.0
O106 O 0.3589 0.99452 0.82476 0.0
C107 C 0.4128 0.00469 0.90662 0.0
O108 O 0.41242 0.98834 0.89109 0.0
C109 C 0.35792 0.00724 0.75654 0.0
C110 C 0.33673 0.03066 0.73965 0.0
C111 C 0.34632 0.01184 0.73395 0.0
N112 N 0.35513 0.02251 0.77443 0.0
N113 N 0.34263 0.03658 0.76404 0.0
C114 C 0.3705 0.98813 0.76196 0.0
H115 H 0.37599 0.98776 0.78262 0.0
H116 H 0.38451 0.98811 0.74925 0.0
H117 H 0.36123 0.97399 0.75758 0.0
C118 C 0.42309 0.03373 0.83304 0.0
N119 N 0.40295 0.02869 0.83564 0.0
N120 N 0.39377 0.02939 0.81241 0.0
C121 C 0.40809 0.03486 0.79414 0.0
C122 C 0.42706 0.03784 0.80669 0.0
C123 C 0.43831 0.03355 0.85538 0.0
H124 H 0.4392 0.01762 0.86364 0.0
H125 H 0.45409 0.03837 0.8491 0.0
H126 H 0.43274 0.04404 0.87126 0.0
O127 O 0.36466 0.04124 0.87067 0.0
O128 O 0.34733 0.04267 0.83268 0.0
H129 H 0.38875 0.04597 0.76273 0.0
H130 H 0.41635 0.04645 0.75553 0.0
C131 C 0.4037 0.03766 0.76539 0.0
H132 H 0.40239 0.02219 0.75594 0.0
H133 H 0.33755 0.04986 0.77395 0.0
O134 O 0.40435 0.02148 0.89882 0.0
C135 C 0.3497 0.04815 0.85678 0.0
Co136 Co 0.22313 0.865 0.89034 0.0
Co137 Co 0.22805 0.88667 0.94619 0.0
C138 C 0.26284 0.88579 0.9076 0.0
O139 O 0.25149 0.87621 0.89113 0.0
O140 O 0.25599 0.89073 0.93033 0.0
C141 C 0.23835 0.83865 0.85034 0.0
O142 O 0.25394 0.83747 0.86702 0.0
C143 C 0.24585 0.89658 0.99856 0.0
C144 C 0.21833 0.90671 0.02119 0.0
C145 C 0.23956 0.9035 0.02336 0.0
N146 N 0.22907 0.89546 0.9827 0.0
N147 N 0.21268 0.90155 0.99641 0.0
C148 C 0.26756 0.89311 0.98893 0.0
H149 H 0.26867 0.87758 0.97948 0.0
H150 H 0.27937 0.89455 0.00466 0.0
H151 H 0.27111 0.90498 0.97377 0.0
C152 C 0.21228 0.82928 0.9236 0.0
N153 N 0.21752 0.84936 0.92078 0.0
N154 N 0.22013 0.85786 0.94421 0.0
C155 C 0.21718 0.84305 0.96276 0.0
C156 C 0.21191 0.82454 0.95028 0.0
C157 C 0.20953 0.81457 0.90096 0.0
H158 H 0.20033 0.82215 0.88516 0.0
H159 H 0.22502 0.8106 0.8928 0.0
H160 H 0.20175 0.79998 0.90704 0.0
O161 O 0.20389 0.8885 0.88768 0.0
O162 O 0.20839 0.90537 0.92569 0.0
H163 H 0.20886 0.85842 0.99858 0.0
H164 H 0.21724 0.83186 1.00307 0.0
C165 C 0.21994 0.84638 0.99175 0.0
H166 H 0.23591 0.85209 0.99563 0.0
H167 H 0.19762 0.90224 0.98881 0.0
O168 O 0.22209 0.84858 0.85711 0.0
C169 C 0.20008 0.90382 0.90281 0.0
Co170 Co 0.38339 0.97304 0.14016 0.0
Co171 Co 0.36168 0.97876 0.19587 0.0
C172 C 0.36359 0.01339 0.15696 0.0
O173 O 0.37279 0.00172 0.14046 0.0
O174 O 0.35857 0.00677 0.17976 0.0
C175 C 0.41006 0.98676 0.09936 0.0
O176 O 0.4112 0.00309 0.11486 0.0
C177 C 0.35098 0.99704 0.24781 0.0
C178 C 0.3427 0.96945 0.27147 0.0
C179 C 0.34483 0.99085 0.27296 0.0
N180 N 0.35278 0.98007 0.23238 0.0
N181 N 0.34772 0.96364 0.24668 0.0
C182 C 0.35306 0.01875 0.23757 0.0
H183 H 0.3688 0.02093 0.22905 0.0
H184 H 0.35006 0.03069 0.25281 0.0
H185 H 0.34151 0.02099 0.22162 0.0
C186 C 0.41885 0.96191 0.17371 0.0
N187 N 0.39882 0.9673 0.17076 0.0
N188 N 0.39032 0.97024 0.19413 0.0
C189 C 0.40509 0.96739 0.21275 0.0
C190 C 0.42356 0.9618 0.2004 0.0
C191 C 0.43358 0.95894 0.15114 0.0
H192 H 0.4261 0.94938 0.13561 0.0
H193 H 0.43737 0.97434 0.14256 0.0
H194 H 0.44826 0.95142 0.1574 0.0
O195 O 0.35956 0.95427 0.13758 0.0
O196 O 0.34258 0.95943 0.17535 0.0
H197 H 0.39027 0.95935 0.24902 0.0
H198 H 0.41648 0.96883 0.25293 0.0
C199 C 0.40183 0.97074 0.24166 0.0
H200 H 0.39551 0.98656 0.245 0.0
H201 H 0.34779 0.94842 0.23955 0.0
O202 O 0.39991 0.97092 0.10711 0.0
C203 C 0.34408 0.9509 0.1526 0.0
Co204 Co 0.27448 0.13385 0.39119 0.0
Co205 Co 0.26941 0.11216 0.44707 0.0
C206 C 0.23421 0.11462 0.40879 0.0
O207 O 0.24564 0.12378 0.39199 0.0
O208 O 0.24123 0.10944 0.43134 0.0
C209 C 0.2611 0.16041 0.34982 0.0
O210 O 0.24448 0.16154 0.36481 0.0
C211 C 0.25123 0.10146 0.49906 0.0
C212 C 0.27884 0.09348 0.52283 0.0
C213 C 0.25743 0.09548 0.52427 0.0
N214 N 0.2682 0.10332 0.48364 0.0
N215 N 0.28464 0.09842 0.498 0.0
C216 C 0.22952 0.10322 0.48878 0.0
H217 H 0.22709 0.11895 0.48034 0.0
H218 H 0.2176 0.09999 0.50397 0.0
H219 H 0.22749 0.09165 0.47279 0.0
C220 C 0.2868 0.16906 0.42448 0.0
N221 N 0.28089 0.14916 0.42168 0.0
N222 N 0.27835 0.14067 0.44513 0.0
C223 C 0.28203 0.15532 0.46368 0.0
C224 C 0.28774 0.17368 0.45116 0.0
C225 C 0.28963 0.18374 0.40184 0.0
H226 H 0.2994 0.17632 0.38645 0.0
H227 H 0.27423 0.18718 0.39304 0.0
H228 H 0.29686 0.19859 0.40803 0.0
O229 O 0.29279 0.10966 0.38832 0.0
O230 O 0.28832 0.0928 0.42632 0.0
H231 H 0.29117 0.14051 0.49952 0.0
H232 H 0.28171 0.16668 0.50392 0.0
C233 C 0.27953 0.15202 0.49272 0.0
H234 H 0.26384 0.14565 0.4968 0.0
H235 H 0.29986 0.09856 0.4909 0.0
O236 O 0.27681 0.15031 0.35808 0.0
C237 C 0.29638 0.09419 0.40329 0.0
Co238 Co 0.11447 0.02406 0.64135 0.0
Co239 Co 0.13565 0.02 0.69766 0.0
C240 C 0.13422 0.98432 0.66011 0.0
O241 O 0.1251 0.99542 0.64294 0.0
O242 O 0.13903 0.99168 0.68261 0.0
C243 C 0.08863 0.00918 0.60035 0.0
O244 O 0.08743 0.99316 0.61635 0.0
C245 C 0.14647 0.00257 0.74997 0.0
C246 C 0.15311 0.03058 0.77365 0.0
C247 C 0.1519 0.00911 0.77522 0.0
N248 N 0.14414 0.01937 0.73438 0.0
N249 N 0.14824 0.03607 0.74869 0.0
C250 C 0.14572 0.98074 0.73986 0.0
H251 H 0.15749 0.97912 0.72405 0.0
H252 H 0.13017 0.97759 0.73127 0.0
H253 H 0.14932 0.96904 0.7552 0.0
C254 C 0.07861 0.03587 0.67387 0.0
N255 N 0.0987 0.03051 0.67146 0.0
N256 N 0.10699 0.02831 0.69508 0.0
C257 C 0.09203 0.03162 0.71333 0.0
C258 C 0.07366 0.03675 0.70046 0.0
C259 C 0.06409 0.03814 0.65096 0.0
H260 H 0.07159 0.04754 0.63528 0.0
H261 H 0.06069 0.02253 0.64276 0.0
H262 H 0.04921 0.04551 0.65674 0.0
O263 O 0.13833 0.04282 0.63849 0.0
O264 O 0.15487 0.03898 0.67683 0.0
H265 H 0.10606 0.04123 0.74948 0.0
H266 H 0.0802 0.03088 0.75335 0.0
C267 C 0.09505 0.0292 0.74244 0.0
H268 H 0.10191 0.01373 0.74663 0.0
H269 H 0.1476 0.05124 0.74146 0.0
O270 O 0.09837 0.02534 0.60788 0.0
C271 C 0.15358 0.04679 0.65365 0.0
Co272 Co 0.77249 0.86468 0.89 0.0
Co273 Co 0.76885 0.88653 0.94586 0.0
C274 C 0.73318 0.88552 0.90816 0.0
O275 O 0.74403 0.87576 0.89127 0.0
O276 O 0.74067 0.89054 0.93053 0.0
C277 C 0.75782 0.83832 0.84925 0.0
O278 O 0.7415 0.83757 0.8648 0.0
C279 C 0.75152 0.89547 0.99863 0.0
C280 C 0.77867 0.90745 0.02049 0.0
C281 C 0.75771 0.90295 0.02321 0.0
N282 N 0.7681 0.8953 0.98238 0.0
N283 N 0.78428 0.90245 0.99563 0.0
C284 C 0.72994 0.89071 0.98947 0.0
H285 H 0.72509 0.9031 0.97562 0.0
H286 H 0.72984 0.87572 0.97862 0.0
H287 H 0.71844 0.89026 0.00565 0.0
C288 C 0.78409 0.82908 0.92306 0.0
N289 N 0.77868 0.84913 0.92033 0.0
N290 N 0.77675 0.85774 0.94381 0.0
C291 C 0.7804 0.84304 0.96231 0.0
C292 C 0.78535 0.82451 0.94971 0.0
C293 C 0.78645 0.8143 0.90043 0.0
H294 H 0.79606 0.82156 0.88477 0.0
H295 H 0.77089 0.81096 0.89204 0.0
H296 H 0.79363 0.79941 0.90659 0.0
O297 O 0.79161 0.88822 0.88683 0.0
O298 O 0.78829 0.90521 0.92494 0.0
H299 H 0.78948 0.85907 0.99738 0.0
H300 H 0.78244 0.83218 1.00267 0.0
C301 C 0.77868 0.8465 0.99141 0.0
H302 H 0.76265 0.85153 0.99626 0.0
H303 H 0.79915 0.90404 0.98765 0.0
O304 O 0.77389 0.84813 0.85691 0.0
C305 C 0.79599 0.90353 0.90173 0.0
Co306 Co 0.88349 0.02721 0.64028 0.0
Co307 Co 0.86189 0.02087 0.69597 0.0
C308 C 0.86484 0.98633 0.65713 0.0
O309 O 0.87358 0.99826 0.64055 0.0
O310 O 0.85977 0.99281 0.67997 0.0
C311 C 0.91079 0.01392 0.60002 0.0
O312 O 0.91237 0.99788 0.61594 0.0
C313 C 0.84957 0.00221 0.74719 0.0
C314 C 0.84451 0.02979 0.77229 0.0
C315 C 0.84453 0.00826 0.77279 0.0
N316 N 0.85287 0.01934 0.73246 0.0
N317 N 0.84964 0.03577 0.7476 0.0
C318 C 0.84928 0.98067 0.73609 0.0
H319 H 0.83872 0.98035 0.71882 0.0
H320 H 0.86512 0.97641 0.72936 0.0
H321 H 0.84357 0.96901 0.75044 0.0
C322 C 0.91861 0.03923 0.67394 0.0
N323 N 0.8987 0.03341 0.67095 0.0
N324 N 0.89031 0.0301 0.6943 0.0
C325 C 0.90508 0.03301 0.71291 0.0
C326 C 0.92338 0.03915 0.7006 0.0
C327 C 0.93326 0.04276 0.65142 0.0
H328 H 0.92539 0.0518 0.6357 0.0
H329 H 0.93792 0.02751 0.6431 0.0
H330 H 0.94748 0.0511 0.65772 0.0
O331 O 0.85918 0.04535 0.63753 0.0
O332 O 0.84231 0.03961 0.67525 0.0
H333 H 0.89165 0.04113 0.74998 0.0
H334 H 0.91701 0.02947 0.75263 0.0
C335 C 0.90206 0.02903 0.74174 0.0
H336 H 0.89454 0.01368 0.7446 0.0
H337 H 0.85117 0.0511 0.74117 0.0
O338 O 0.90009 0.02954 0.6073 0.0
C339 C 0.84357 0.04821 0.65252 0.0
Co340 Co 0.72257 0.13417 0.39011 0.0
Co341 Co 0.72748 0.11227 0.44578 0.0
C342 C 0.76254 0.11399 0.40736 0.0
O343 O 0.75116 0.12344 0.39078 0.0
O344 O 0.75561 0.10891 0.42999 0.0
C345 C 0.73679 0.16106 0.34986 0.0
O346 O 0.75284 0.1622 0.36581 0.0
C347 C 0.74539 0.10259 0.49813 0.0
C348 C 0.71814 0.09168 0.52069 0.0
C349 C 0.73928 0.09544 0.5229 0.0
N350 N 0.72861 0.10331 0.48225 0.0
N351 N 0.71238 0.09676 0.4959 0.0
C352 C 0.76702 0.10654 0.48852 0.0
H353 H 0.76775 0.12198 0.47881 0.0
H354 H 0.77883 0.10558 0.50431 0.0
H355 H 0.77088 0.09457 0.47361 0.0
C356 C 0.71073 0.16945 0.42358 0.0
N357 N 0.71652 0.14953 0.42066 0.0
N358 N 0.719 0.14093 0.44405 0.0
C359 C 0.71537 0.15552 0.46269 0.0
C360 C 0.70981 0.17398 0.45029 0.0
C361 C 0.70783 0.18422 0.40103 0.0
H362 H 0.72324 0.18807 0.39259 0.0
H363 H 0.70021 0.19886 0.40725 0.0
H364 H 0.6984 0.1767 0.38539 0.0
O365 O 0.70373 0.11041 0.38715 0.0
O366 O 0.70818 0.09332 0.425 0.0
H367 H 0.7144 0.16639 0.50313 0.0
H368 H 0.73369 0.14665 0.49602 0.0
C369 C 0.71766 0.15203 0.49172 0.0
H370 H 0.70675 0.13967 0.49805 0.0
H371 H 0.69735 0.0957 0.48829 0.0
O372 O 0.72087 0.15082 0.35713 0.0
C373 C 0.7 0.09494 0.40206 0.0
Co374 Co 0.61421 0.97258 0.13972 0.0
Co375 Co 0.63556 0.97849 0.19562 0.0
C376 C 0.63397 0.01297 0.15678 0.0
O377 O 0.62502 0.00116 0.14025 0.0
O378 O 0.63869 0.00653 0.17975 0.0
C379 C 0.58764 0.9873 0.09973 0.0
O380 O 0.58616 0.00284 0.11646 0.0
C381 C 0.64683 0.99663 0.24746 0.0
C382 C 0.65352 0.96885 0.27155 0.0
C383 C 0.6524 0.99033 0.27277 0.0
N384 N 0.64434 0.97966 0.23219 0.0
N385 N 0.64849 0.96311 0.24674 0.0
C386 C 0.64591 0.01837 0.23702 0.0
H387 H 0.63016 0.02148 0.22902 0.0
H388 H 0.64994 0.03018 0.25204 0.0
H389 H 0.65724 0.01982 0.22066 0.0
C390 C 0.57861 0.96131 0.17303 0.0
N391 N 0.59862 0.96685 0.17021 0.0
N392 N 0.60696 0.96994 0.19363 0.0
C393 C 0.59209 0.96711 0.21214 0.0
C394 C 0.57375 0.96132 0.19967 0.0
C395 C 0.56403 0.95796 0.1504 0.0
H396 H 0.57193 0.94896 0.13466 0.0
H397 H 0.55949 0.97326 0.14216 0.0
H398 H 0.54975 0.94966 0.15658 0.0
O399 O 0.63803 0.95376 0.13718 0.0
O400 O 0.65479 0.95933 0.17504 0.0
H401 H 0.60607 0.95881 0.24883 0.0
H402 H 0.58029 0.96951 0.25206 0.0
C403 C 0.59516 0.97064 0.24105 0.0
H404 H 0.60214 0.9862 0.24427 0.0
H405 H 0.64773 0.94787 0.23978 0.0
O406 O 0.59782 0.9712 0.10648 0.0
C407 C 0.6535 0.95067 0.15234 0.0
Co408 Co 0.77071 0.13752 0.11715 0.0
Co409 Co 0.77107 0.11441 0.06202 0.0
C410 C 0.73351 0.11475 0.09724 0.0
O411 O 0.7427 0.12582 0.11436 0.0
O412 O 0.74266 0.10917 0.07612 0.0
C413 C 0.754 0.16331 0.15733 0.0
O414 O 0.73792 0.16327 0.14136 0.0
C415 C 0.75488 0.1066 0.00884 0.0
C416 C 0.78071 0.09026 0.98903 0.0
C417 C 0.76056 0.09729 0.98507 0.0
N418 N 0.77095 0.10524 0.02578 0.0
N419 N 0.7864 0.09559 0.01374 0.0
C420 C 0.73394 0.11456 0.01686 0.0
H421 H 0.73574 0.12776 0.03078 0.0
H422 H 0.72431 0.11954 0.99999 0.0
H423 H 0.72549 0.10193 0.02715 0.0
C424 C 0.78296 0.1728 0.08405 0.0
N425 N 0.77777 0.15272 0.08691 0.0
N426 N 0.77783 0.14351 0.06368 0.0
C427 C 0.78282 0.15777 0.04514 0.0
C428 C 0.78636 0.17671 0.05751 0.0
C429 C 0.78338 0.18809 0.10633 0.0
H430 H 0.79351 0.18208 0.12233 0.0
H431 H 0.76747 0.18976 0.11443 0.0
H432 H 0.78896 0.2036 0.10003 0.0
O433 O 0.79026 0.11448 0.12193 0.0
O434 O 0.79085 0.09696 0.08402 0.0
H435 H 0.79429 0.13962 0.0129 0.0
H436 H 0.79066 0.16687 0.00525 0.0
C437 C 0.78425 0.15338 0.01622 0.0
H438 H 0.76854 0.14977 0.00851 0.0
H439 H 0.80067 0.09226 0.02256 0.0
O440 O 0.77068 0.15437 0.15004 0.0
C441 C 0.79675 0.09937 0.10795 0.0
Co442 Co 0.61559 0.02788 0.86811 0.0
Co443 Co 0.63715 0.02393 0.81233 0.0
C444 C 0.63473 0.98802 0.84946 0.0
O445 O 0.6255 0.99898 0.86665 0.0
O446 O 0.63992 0.99566 0.8273 0.0
C447 C 0.58882 0.01319 0.90807 0.0
O448 O 0.58723 0.99767 0.89135 0.0
C449 C 0.64303 0.00457 0.76103 0.0
C450 C 0.66439 0.02579 0.74025 0.0
C451 C 0.65447 0.00671 0.73783 0.0
N452 N 0.64637 0.02127 0.77641 0.0
N453 N 0.65901 0.03403 0.76378 0.0
C454 C 0.62851 0.98736 0.7685 0.0
H455 H 0.61655 0.9931 0.78249 0.0
H456 H 0.62085 0.98079 0.75073 0.0
H457 H 0.63736 0.97488 0.77856 0.0
C458 C 0.58034 0.04103 0.83508 0.0
N459 N 0.6002 0.03492 0.83773 0.0
N460 N 0.60884 0.0333 0.81423 0.0
C461 C 0.59445 0.03814 0.7958 0.0
C462 C 0.57598 0.04323 0.80843 0.0
C463 C 0.56549 0.04293 0.85771 0.0
H464 H 0.56191 0.02719 0.86535 0.0
H465 H 0.55072 0.05049 0.8519 0.0
H466 H 0.57283 0.05197 0.87386 0.0
O467 O 0.64004 0.0461 0.87149 0.0
O468 O 0.65665 0.04233 0.83315 0.0
H469 H 0.61363 0.04446 0.76213 0.0
H470 H 0.58598 0.04672 0.75603 0.0
C471 C 0.59815 0.03781 0.76666 0.0
H472 H 0.59782 0.02151 0.75957 0.0
H473 H 0.66448 0.04802 0.77154 0.0
O474 O 0.59916 0.02921 0.90136 0.0
C475 C 0.65544 0.04991 0.85645 0.0
Co476 Co 0.7289 0.86271 0.61595 0.0
Co477 Co 0.72882 0.88654 0.56148 0.0
C478 C 0.76661 0.88438 0.59651 0.0
O479 O 0.75739 0.87332 0.61361 0.0
O480 O 0.75729 0.89045 0.57577 0.0
C481 C 0.74426 0.83614 0.65632 0.0
O482 O 0.76067 0.83587 0.64091 0.0
C483 C 0.74699 0.89314 0.50981 0.0
C484 C 0.7256 0.915 0.49018 0.0
C485 C 0.7445 0.90488 0.48693 0.0
N486 N 0.73066 0.89649 0.52581 0.0
N487 N 0.7178 0.90944 0.51389 0.0
C488 C 0.76415 0.8783 0.51642 0.0
H489 H 0.75856 0.86628 0.53043 0.0
H490 H 0.7702 0.87072 0.4983 0.0
H491 H 0.77697 0.88687 0.52617 0.0
C492 C 0.71574 0.82818 0.58203 0.0
N493 N 0.72127 0.84813 0.58533 0.0
N494 N 0.72099 0.85774 0.56236 0.0
C495 C 0.71536 0.84392 0.54358 0.0
C496 C 0.7118 0.82482 0.5555 0.0
C497 C 0.71548 0.81248 0.60384 0.0
H498 H 0.73145 0.81068 0.61173 0.0
H499 H 0.70984 0.7971 0.5971 0.0
H500 H 0.70545 0.81818 0.62012 0.0
O501 O 0.71018 0.88646 0.62113 0.0
O502 O 0.70957 0.90439 0.58355 0.0
H503 H 0.70591 0.86429 0.5123 0.0
H504 H 0.70383 0.83684 0.50459 0.0
C505 C 0.71324 0.84882 0.51486 0.0
H506 H 0.72889 0.84926 0.50572 0.0
H507 H 0.70403 0.91496 0.52222 0.0
O508 O 0.72797 0.84555 0.64857 0.0
C509 C 0.70389 0.90187 0.60754 0.0
Co510 Co 0.8888 0.97844 0.36737 0.0
Co511 Co 0.86548 0.97887 0.31252 0.0
C512 C 0.86644 0.01605 0.34854 0.0
O513 O 0.87745 0.00666 0.36552 0.0
O514 O 0.86084 0.00708 0.32734 0.0
C515 C 0.91487 0.99432 0.40766 0.0
O516 O 0.9151 0.01049 0.39183 0.0
C517 C 0.85892 0.99757 0.26117 0.0
C518 C 0.83751 0.97611 0.24088 0.0
C519 C 0.8473 0.99523 0.23814 0.0
N520 N 0.8558 0.98095 0.27675 0.0
N521 N 0.84312 0.96805 0.26443 0.0
C522 C 0.87339 0.0149 0.26833 0.0
H523 H 0.8855 0.00929 0.28219 0.0
H524 H 0.88087 0.02145 0.25042 0.0
H525 H 0.86455 0.02736 0.27846 0.0
C526 C 0.92379 0.96608 0.33375 0.0
N527 N 0.9038 0.97156 0.3368 0.0
N528 N 0.89443 0.97149 0.31368 0.0
C529 C 0.90846 0.96609 0.29503 0.0
C530 C 0.92745 0.96244 0.30722 0.0
C531 C 0.9392 0.96534 0.35587 0.0
H532 H 0.93316 0.9552 0.37183 0.0
H533 H 0.94113 0.98119 0.3641 0.0
H534 H 0.95459 0.95956 0.34933 0.0
O535 O 0.86547 0.95909 0.37182 0.0
O536 O 0.84778 0.95909 0.33402 0.0
H537 H 0.8885 0.95644 0.26345 0.0
H538 H 0.91604 0.95503 0.25595 0.0
C539 C 0.90379 0.96409 0.26623 0.0
H540 H 0.90302 0.9798 0.2573 0.0
H541 H 0.83778 0.95408 0.27241 0.0
O542 O 0.90573 0.9778 0.40018 0.0
C543 C 0.85023 0.95292 0.35784 0.0
Co544 Co 0.7273 0.63738 0.61545 0.0
Co545 Co 0.72747 0.61421 0.5603 0.0
C546 C 0.76463 0.61443 0.59601 0.0
O547 O 0.75519 0.62541 0.613 0.0
O548 O 0.75582 0.609 0.5746 0.0
C549 C 0.74408 0.66283 0.65594 0.0
O550 O 0.76028 0.66255 0.64016 0.0
C551 C 0.74367 0.60599 0.50717 0.0
C552 C 0.71774 0.58964 0.4876 0.0
C553 C 0.73794 0.59649 0.48354 0.0
N554 N 0.7276 0.60488 0.52413 0.0
N555 N 0.71208 0.59524 0.51223 0.0
C556 C 0.76468 0.61384 0.51507 0.0
H557 H 0.77321 0.60108 0.52499 0.0
H558 H 0.76301 0.62689 0.52924 0.0
H559 H 0.77413 0.61902 0.49814 0.0
C560 C 0.71558 0.67267 0.58206 0.0
N561 N 0.72058 0.65255 0.58505 0.0
N562 N 0.72073 0.64331 0.56184 0.0
C563 C 0.71606 0.65759 0.54318 0.0
C564 C 0.7125 0.67657 0.55545 0.0
C565 C 0.71518 0.68799 0.60431 0.0
H566 H 0.73102 0.68934 0.61273 0.0
H567 H 0.71 0.70361 0.59788 0.0
H568 H 0.70474 0.68221 0.62011 0.0
O569 O 0.70764 0.61446 0.62007 0.0
O570 O 0.70766 0.5968 0.58225 0.0
H571 H 0.70495 0.63947 0.51072 0.0
H572 H 0.70883 0.66669 0.50311 0.0
C573 C 0.71501 0.65318 0.51424 0.0
H574 H 0.73081 0.64947 0.50688 0.0
H575 H 0.69779 0.59208 0.5211 0.0
O576 O 0.72728 0.65425 0.64837 0.0
C577 C 0.70144 0.59925 0.60604 0.0
Co578 Co 0.61233 0.47789 0.86612 0.0
Co579 Co 0.63608 0.47829 0.8116 0.0
C580 C 0.63429 0.51568 0.84732 0.0
O581 O 0.62321 0.50631 0.86426 0.0
O582 O 0.64026 0.50658 0.82638 0.0
C583 C 0.58578 0.49332 0.9063 0.0
O584 O 0.58545 0.50959 0.89063 0.0
C585 C 0.64244 0.49702 0.76029 0.0
C586 C 0.66412 0.47584 0.73997 0.0
C587 C 0.65399 0.49479 0.73721 0.0
N588 N 0.64589 0.4805 0.77592 0.0
N589 N 0.65874 0.46776 0.76359 0.0
C590 C 0.62768 0.51412 0.76743 0.0
H591 H 0.61574 0.50837 0.78144 0.0
H592 H 0.61999 0.52043 0.74954 0.0
H593 H 0.63634 0.5268 0.77738 0.0
C594 C 0.57766 0.46533 0.83206 0.0
N595 N 0.59764 0.47073 0.83542 0.0
N596 N 0.60722 0.47065 0.81243 0.0
C597 C 0.59335 0.46529 0.79357 0.0
C598 C 0.57425 0.46171 0.80547 0.0
C599 C 0.56199 0.46488 0.8539 0.0
H600 H 0.56779 0.45488 0.87014 0.0
H601 H 0.56003 0.48082 0.86182 0.0
H602 H 0.54666 0.4591 0.84717 0.0
O603 O 0.63589 0.45886 0.87088 0.0
O604 O 0.65381 0.45868 0.83326 0.0
H605 H 0.61365 0.45607 0.76211 0.0
H606 H 0.58619 0.45415 0.75443 0.0
C607 C 0.59822 0.46343 0.76481 0.0
H608 H 0.59868 0.47916 0.7559 0.0
H609 H 0.6643 0.45389 0.77158 0.0
O610 O 0.5952 0.47698 0.89876 0.0
C611 C 0.65124 0.45266 0.85711 0.0
Co612 Co 0.77542 0.3646 0.11655 0.0
Co613 Co 0.773 0.38677 0.06103 0.0
C614 C 0.73622 0.38414 0.09708 0.0
O615 O 0.74649 0.3742 0.11433 0.0
O616 O 0.74462 0.38994 0.07562 0.0
C617 C 0.76075 0.33751 0.15642 0.0
O618 O 0.74538 0.33549 0.13955 0.0
C619 C 0.75423 0.39294 0.00949 0.0
C620 C 0.77607 0.41379 0.98888 0.0
C621 C 0.75685 0.4042 0.98622 0.0
N622 N 0.77082 0.39608 0.02512 0.0
N623 N 0.78394 0.40842 0.01262 0.0
C624 C 0.73671 0.37875 0.01678 0.0
H625 H 0.74213 0.36671 0.03086 0.0
H626 H 0.73015 0.37115 0.99896 0.0
H627 H 0.72431 0.38786 0.02667 0.0
C628 C 0.78909 0.32957 0.08353 0.0
N629 N 0.78305 0.34945 0.08627 0.0
N630 N 0.78197 0.35832 0.06286 0.0
C631 C 0.78706 0.34405 0.04437 0.0
C632 C 0.79179 0.32544 0.0569 0.0
C633 C 0.79051 0.3145 0.10597 0.0
H634 H 0.79917 0.32168 0.12255 0.0
H635 H 0.7746 0.31082 0.11298 0.0
H636 H 0.79822 0.29981 0.10017 0.0
O637 O 0.79351 0.38907 0.12053 0.0
O638 O 0.79155 0.40587 0.08214 0.0
H639 H 0.79442 0.36331 0.01115 0.0
H640 H 0.79596 0.33565 0.00468 0.0
C641 C 0.78726 0.34799 0.01529 0.0
H642 H 0.77106 0.34822 0.00784 0.0
H643 H 0.79795 0.41365 0.02055 0.0
O644 O 0.77655 0.34822 0.14981 0.0
C645 C 0.79828 0.40439 0.10582 0.0
Co646 Co 0.88273 0.5251 0.36948 0.0
Co647 Co 0.86177 0.51994 0.31321 0.0
C648 C 0.86382 0.48472 0.35125 0.0
O649 O 0.87252 0.49621 0.36837 0.0
O650 O 0.85908 0.49172 0.32855 0.0
C651 C 0.90952 0.51091 0.4098 0.0
O652 O 0.9111 0.49514 0.39345 0.0
C653 C 0.85097 0.50203 0.26121 0.0
C654 C 0.84477 0.52983 0.23694 0.0
C655 C 0.8459 0.50834 0.23576 0.0
N656 N 0.85325 0.51897 0.27655 0.0
N657 N 0.84936 0.53554 0.26191 0.0
C658 C 0.85157 0.48029 0.27164 0.0
H659 H 0.84011 0.47899 0.28788 0.0
H660 H 0.86724 0.47695 0.27972 0.0
H661 H 0.84744 0.46853 0.25659 0.0
C662 C 0.91843 0.53723 0.33662 0.0
N663 N 0.89844 0.53153 0.3392 0.0
N664 N 0.8902 0.52881 0.31564 0.0
C665 C 0.90509 0.53204 0.29729 0.0
C666 C 0.92336 0.53771 0.31 0.0
C667 C 0.93295 0.5402 0.35939 0.0
H668 H 0.92508 0.54911 0.37523 0.0
H669 H 0.93731 0.52476 0.36739 0.0
H670 H 0.94734 0.54842 0.35345 0.0
O671 O 0.85855 0.54356 0.37214 0.0
O672 O 0.84224 0.53862 0.33383 0.0
H673 H 0.89126 0.54084 0.26071 0.0
H674 H 0.91706 0.53029 0.25738 0.0
C675 C 0.90217 0.52892 0.26828 0.0
H676 H 0.89527 0.51339 0.26463 0.0
H677 H 0.85005 0.55078 0.26889 0.0
O678 O 0.89902 0.52674 0.40281 0.0
C679 C 0.84325 0.54687 0.35678 0.0
Co680 Co 0.72584 0.36354 0.39068 0.0
Co681 Co 0.72801 0.38526 0.44654 0.0
C682 C 0.76479 0.38337 0.41023 0.0
O683 O 0.75469 0.37342 0.39283 0.0
O684 O 0.75628 0.38887 0.43176 0.0
C685 C 0.74033 0.33781 0.349 0.0
O686 O 0.75674 0.33671 0.36434 0.0
C687 C 0.74706 0.3908 0.49801 0.0
C688 C 0.72562 0.4118 0.51904 0.0
C689 C 0.74475 0.40197 0.52142 0.0
N690 N 0.73041 0.39423 0.48259 0.0
N691 N 0.71753 0.40665 0.49535 0.0
C692 C 0.76438 0.37648 0.49032 0.0
H693 H 0.75875 0.36468 0.47604 0.0
H694 H 0.77092 0.36859 0.50794 0.0
H695 H 0.77684 0.38554 0.4805 0.0
C696 C 0.71302 0.32797 0.42321 0.0
N697 N 0.71857 0.348 0.42077 0.0
N698 N 0.7194 0.3567 0.44431 0.0
C699 C 0.71454 0.34217 0.46257 0.0
C700 C 0.7103 0.32355 0.44976 0.0
C701 C 0.71216 0.31307 0.40053 0.0
H702 H 0.72803 0.31103 0.39243 0.0
H703 H 0.70609 0.29763 0.4064 0.0
H704 H 0.70224 0.31962 0.38468 0.0
O705 O 0.70749 0.38789 0.38723 0.0
O706 O 0.70919 0.4044 0.42584 0.0
H707 H 0.70512 0.33355 0.50197 0.0
H708 H 0.73017 0.34585 0.49945 0.0
C709 C 0.71406 0.34589 0.4917 0.0
H710 H 0.70701 0.36125 0.49593 0.0
H711 H 0.70353 0.41212 0.4876 0.0
O712 O 0.72428 0.34741 0.3572 0.0
C713 C 0.70251 0.40304 0.40212 0.0
Co714 Co 0.88743 0.47588 0.64223 0.0
Co715 Co 0.86369 0.47794 0.69699 0.0
C716 C 0.86471 0.51404 0.65971 0.0
O717 O 0.87574 0.50392 0.64343 0.0
O718 O 0.85887 0.50595 0.68141 0.0
C719 C 0.91372 0.49185 0.60233 0.0
O720 O 0.91399 0.50784 0.61845 0.0
C721 C 0.85415 0.49541 0.74933 0.0
C722 C 0.84047 0.46879 0.77063 0.0
C723 C 0.84577 0.48955 0.77358 0.0
N724 N 0.85404 0.47883 0.73309 0.0
N725 N 0.84588 0.46296 0.74599 0.0
C726 C 0.86024 0.51675 0.74041 0.0
H727 H 0.87527 0.51601 0.72969 0.0
H728 H 0.8613 0.5281 0.7567 0.0
H729 H 0.8483 0.5225 0.72646 0.0
C730 C 0.9223 0.46497 0.67668 0.0
N731 N 0.90222 0.46986 0.67313 0.0
N732 N 0.89281 0.47102 0.69619 0.0
C733 C 0.90699 0.46727 0.7153 0.0
C734 C 0.92604 0.46315 0.70351 0.0
C735 C 0.93781 0.46368 0.6547 0.0
H736 H 0.93159 0.45367 0.63872 0.0
H737 H 0.94027 0.47945 0.64645 0.0
H738 H 0.95299 0.45751 0.6614 0.0
O739 O 0.8644 0.45632 0.638 0.0
O740 O 0.84636 0.45768 0.67549 0.0
H741 H 0.88934 0.4573 0.74873 0.0
H742 H 0.91623 0.46314 0.75604 0.0
C743 C 0.90248 0.46786 0.74424 0.0
H744 H 0.89785 0.48385 0.74992 0.0
H745 H 0.84385 0.44817 0.73791 0.0
O746 O 0.90455 0.47527 0.60954 0.0
C747 C 0.84897 0.45073 0.65204 0.0
Co748 Co 0.77702 0.63391 0.88952 0.0
Co749 Co 0.77058 0.6126 0.94537 0.0
C750 C 0.73626 0.61481 0.90616 0.0
O751 O 0.7482 0.62365 0.88967 0.0
O752 O 0.74263 0.60993 0.92912 0.0
C753 C 0.7636 0.6606 0.84863 0.0
O754 O 0.74742 0.6621 0.86434 0.0
C755 C 0.75188 0.6013 0.99691 0.0
C756 C 0.77941 0.59468 0.0215 0.0
C757 C 0.75791 0.59577 0.02234 0.0
N758 N 0.76901 0.6038 0.98193 0.0
N759 N 0.7854 0.59968 0.99678 0.0
C760 C 0.73027 0.60212 0.98608 0.0
H761 H 0.7271 0.61793 0.97829 0.0
H762 H 0.71834 0.59783 1.00083 0.0
H763 H 0.72911 0.59093 0.96953 0.0
C764 C 0.78823 0.66947 0.92298 0.0
N765 N 0.78278 0.64944 0.9201 0.0
N766 N 0.77951 0.6411 0.94349 0.0
C767 C 0.78216 0.65598 0.96202 0.0
C768 C 0.788 0.67436 0.94963 0.0
C769 C 0.79141 0.68409 0.90034 0.0
H770 H 0.77607 0.68819 0.89184 0.0
H771 H 0.79926 0.69862 0.9065 0.0
H772 H 0.80077 0.67638 0.88478 0.0
O773 O 0.79546 0.60976 0.88721 0.0
O774 O 0.78959 0.59309 0.92504 0.0
H775 H 0.78992 0.64183 0.9988 0.0
H776 H 0.77954 0.66772 1.00197 0.0
C777 C 0.77831 0.65291 0.99087 0.0
H778 H 0.76264 0.64611 0.99383 0.0
H779 H 0.80072 0.60045 0.99009 0.0
O780 O 0.77933 0.65025 0.8563 0.0
C781 C 0.79833 0.59427 0.9024 0.0
Co782 Co 0.6152 0.52296 0.13951 0.0
Co783 Co 0.63689 0.51859 0.19546 0.0
C784 C 0.63521 0.48316 0.15739 0.0
O785 O 0.62586 0.49429 0.14045 0.0
O786 O 0.6402 0.49043 0.17988 0.0
C787 C 0.5885 0.50868 0.09904 0.0
O788 O 0.5874 0.49254 0.11488 0.0
C789 C 0.64797 0.50063 0.24738 0.0
C790 C 0.65461 0.52838 0.27155 0.0
C791 C 0.65338 0.5069 0.27275 0.0
N792 N 0.64566 0.5176 0.23207 0.0
N793 N 0.64979 0.53414 0.24667 0.0
C794 C 0.64716 0.47891 0.23692 0.0
H795 H 0.6588 0.47748 0.22092 0.0
H796 H 0.63154 0.47583 0.2285 0.0
H797 H 0.65092 0.46707 0.25201 0.0
C798 C 0.57969 0.53471 0.17269 0.0
N799 N 0.59971 0.5292 0.16994 0.0
N800 N 0.60821 0.52685 0.19341 0.0
C801 C 0.59343 0.53017 0.21192 0.0
C802 C 0.57499 0.53549 0.19935 0.0
C803 C 0.56497 0.53741 0.15007 0.0
H804 H 0.57248 0.54675 0.13434 0.0
H805 H 0.56114 0.52192 0.1418 0.0
H806 H 0.55032 0.54507 0.15622 0.0
O807 O 0.63901 0.54175 0.13654 0.0
O808 O 0.65586 0.53785 0.17465 0.0
H809 H 0.60765 0.53966 0.24799 0.0
H810 H 0.58188 0.52912 0.25204 0.0
C811 C 0.59667 0.5276 0.24096 0.0
H812 H 0.60365 0.51215 0.24494 0.0
H813 H 0.64913 0.54939 0.23971 0.0
O814 O 0.59868 0.52461 0.10643 0.0
C815 C 0.65435 0.54576 0.15154 0.0
Co816 Co 0.27293 0.36282 0.39057 0.0
Co817 Co 0.27052 0.38499 0.44613 0.0
C818 C 0.23399 0.38321 0.40959 0.0
O819 O 0.24429 0.37331 0.39233 0.0
O820 O 0.24222 0.38856 0.43137 0.0
C821 C 0.25803 0.33676 0.3496 0.0
O822 O 0.24176 0.33596 0.36523 0.0
C823 C 0.2519 0.39126 0.4979 0.0
C824 C 0.27401 0.4119 0.51835 0.0
C825 C 0.25475 0.40242 0.52122 0.0
N826 N 0.2684 0.39435 0.48208 0.0
N827 N 0.28167 0.40658 0.4945 0.0
C828 C 0.23427 0.37717 0.49075 0.0
H829 H 0.23946 0.36532 0.47625 0.0
H830 H 0.22801 0.36932 0.50856 0.0
H831 H 0.22171 0.38639 0.4814 0.0
C832 C 0.2853 0.32743 0.42365 0.0
N833 N 0.27985 0.34747 0.42093 0.0
N834 N 0.27894 0.35634 0.44436 0.0
C835 C 0.28363 0.34192 0.46283 0.0
C836 C 0.28787 0.3232 0.45027 0.0
C837 C 0.28628 0.31237 0.40115 0.0
H838 H 0.29616 0.31887 0.38522 0.0
H839 H 0.27042 0.31015 0.39308 0.0
H840 H 0.29246 0.29703 0.40721 0.0
O841 O 0.29167 0.38677 0.38685 0.0
O842 O 0.28952 0.40381 0.42505 0.0
H843 H 0.29121 0.36115 0.49603 0.0
H844 H 0.29274 0.33347 0.50241 0.0
C845 C 0.284 0.34584 0.49192 0.0
H846 H 0.26785 0.34606 0.49952 0.0
H847 H 0.29568 0.41172 0.48644 0.0
O848 O 0.27422 0.34632 0.35739 0.0
C849 C 0.29652 0.40209 0.40151 0.0
Co850 Co 0.38445 0.52436 0.14032 0.0
Co851 Co 0.36287 0.51941 0.19628 0.0
C852 C 0.36491 0.48424 0.15786 0.0
O853 O 0.37407 0.49556 0.14095 0.0
O854 O 0.35994 0.49133 0.18045 0.0
C855 C 0.41088 0.51077 0.09905 0.0
O856 O 0.41201 0.49426 0.11424 0.0
C857 C 0.35056 0.50111 0.24765 0.0
C858 C 0.34605 0.52875 0.27279 0.0
C859 C 0.34577 0.50722 0.27328 0.0
N860 N 0.35403 0.51818 0.23288 0.0
N861 N 0.35112 0.53466 0.24805 0.0
C862 C 0.34976 0.47959 0.23655 0.0
H863 H 0.33886 0.47948 0.21962 0.0
H864 H 0.36541 0.4751 0.22934 0.0
H865 H 0.34414 0.46798 0.25102 0.0
C866 C 0.42002 0.53581 0.17352 0.0
N867 N 0.39994 0.53049 0.17079 0.0
N868 N 0.39152 0.52789 0.19427 0.0
C869 C 0.4064 0.53083 0.21274 0.0
C870 C 0.42483 0.5362 0.20017 0.0
C871 C 0.43469 0.53839 0.15082 0.0
H872 H 0.42732 0.54805 0.1353 0.0
H873 H 0.43812 0.5229 0.14228 0.0
H874 H 0.44955 0.54565 0.15691 0.0
O875 O 0.36048 0.54296 0.13763 0.0
O876 O 0.34369 0.5386 0.17569 0.0
H877 H 0.39301 0.54016 0.24938 0.0
H878 H 0.41821 0.52827 0.25264 0.0
C879 C 0.40328 0.52771 0.24172 0.0
H880 H 0.39558 0.51255 0.24526 0.0
H881 H 0.35284 0.54996 0.24159 0.0
O882 O 0.40082 0.52656 0.10715 0.0
C883 C 0.34511 0.5467 0.15268 0.0
Co884 Co 0.22262 0.63404 0.89031 0.0
Co885 Co 0.22931 0.61289 0.94621 0.0
C886 C 0.26358 0.61534 0.90729 0.0
O887 O 0.25144 0.6239 0.89082 0.0
O888 O 0.25738 0.6105 0.93032 0.0
C889 C 0.23689 0.6611 0.85065 0.0
O890 O 0.25214 0.66301 0.86771 0.0
C891 C 0.24774 0.6018 0.99795 0.0
C892 C 0.22011 0.59476 0.02218 0.0
C893 C 0.24158 0.59613 0.02329 0.0
N894 N 0.23069 0.6041 0.98277 0.0
N895 N 0.21424 0.59975 0.9974 0.0
C896 C 0.26942 0.60298 0.9874 0.0
H897 H 0.27093 0.59178 0.9709 0.0
H898 H 0.27238 0.61882 0.9796 0.0
H899 H 0.28131 0.59892 1.00232 0.0
C900 C 0.21068 0.66942 0.92368 0.0
N901 N 0.21658 0.64952 0.92083 0.0
N902 N 0.22004 0.64128 0.94423 0.0
C903 C 0.21711 0.65612 0.96273 0.0
C904 C 0.21086 0.67434 0.95031 0.0
C905 C 0.20694 0.68392 0.90107 0.0
H906 H 0.19837 0.67575 0.88517 0.0
H907 H 0.22212 0.6891 0.89307 0.0
H908 H 0.19805 0.69786 0.90722 0.0
O909 O 0.20433 0.60978 0.88781 0.0
O910 O 0.21065 0.59321 0.92562 0.0
H911 H 0.20957 0.6421 0.99967 0.0
H912 H 0.21984 0.66807 1.00256 0.0
C913 C 0.2211 0.6532 0.99158 0.0
H914 H 0.23681 0.64649 0.99448 0.0
H915 H 0.19897 0.60033 0.99053 0.0
O916 O 0.22101 0.65043 0.85705 0.0
C917 C 0.2018 0.59424 0.90302 0.0
Co918 Co 0.11328 0.47771 0.64352 0.0
Co919 Co 0.13706 0.47802 0.69819 0.0
C920 C 0.13671 0.51501 0.66206 0.0
O921 O 0.12546 0.5056 0.64532 0.0
O922 O 0.14231 0.50623 0.68343 0.0
C923 C 0.08709 0.49391 0.6033 0.0
O924 O 0.08772 0.51047 0.61847 0.0
C925 C 0.14562 0.49449 0.7511 0.0
C926 C 0.16185 0.46857 0.77088 0.0
C927 C 0.15501 0.48879 0.7748 0.0
N928 N 0.14673 0.47835 0.73422 0.0
N929 N 0.15633 0.46286 0.74624 0.0
C930 C 0.13777 0.51548 0.7431 0.0
H931 H 0.12452 0.51377 0.72926 0.0
H932 H 0.13295 0.52514 0.76002 0.0
H933 H 0.15043 0.52381 0.73272 0.0
C934 C 0.07826 0.46665 0.67769 0.0
N935 N 0.0984 0.47137 0.67427 0.0
N936 N 0.10788 0.4716 0.69731 0.0
C937 C 0.09373 0.46732 0.71629 0.0
C938 C 0.0746 0.46393 0.70439 0.0
C939 C 0.06268 0.46589 0.65577 0.0
H940 H 0.06853 0.45567 0.63978 0.0
H941 H 0.06073 0.48173 0.6475 0.0
H942 H 0.04733 0.46019 0.66258 0.0
O943 O 0.13593 0.45776 0.63869 0.0
O944 O 0.15404 0.45782 0.67614 0.0
H945 H 0.11197 0.45643 0.74877 0.0
H946 H 0.08484 0.46069 0.75659 0.0
C947 C 0.09834 0.46659 0.74519 0.0
H948 H 0.10223 0.48245 0.75218 0.0
H949 H 0.15943 0.44851 0.73747 0.0
O950 O 0.09592 0.47731 0.61108 0.0
C951 C 0.15121 0.45145 0.65247 0.0
Co952 Co 0.27721 0.63572 0.6187 0.0
Co953 Co 0.27316 0.61456 0.56265 0.0
C954 C 0.23774 0.61543 0.60045 0.0
O955 O 0.24875 0.62471 0.61754 0.0
O956 O 0.24508 0.61083 0.57792 0.0
C957 C 0.26166 0.66181 0.65874 0.0
O958 O 0.2463 0.66315 0.64175 0.0
C959 C 0.25376 0.60856 0.51134 0.0
C960 C 0.27536 0.58771 0.49033 0.0
C961 C 0.25608 0.59726 0.48802 0.0
N962 N 0.27055 0.60546 0.52664 0.0
N963 N 0.28352 0.59312 0.51388 0.0
C964 C 0.2363 0.62269 0.51907 0.0
H965 H 0.24179 0.63451 0.53342 0.0
H966 H 0.22971 0.63056 0.50147 0.0
H967 H 0.22392 0.61349 0.52883 0.0
C968 C 0.28896 0.67162 0.58601 0.0
N969 N 0.28339 0.65158 0.58843 0.0
N970 N 0.28173 0.64313 0.56482 0.0
C971 C 0.28598 0.65784 0.54655 0.0
C972 C 0.29073 0.67631 0.5594 0.0
C973 C 0.2908 0.68627 0.60886 0.0
H974 H 0.27506 0.68963 0.61664 0.0
H975 H 0.29819 0.70117 0.60322 0.0
H976 H 0.29998 0.67887 0.62483 0.0
O977 O 0.29625 0.6119 0.62147 0.0
O978 O 0.29223 0.59541 0.58308 0.0
H979 H 0.29416 0.66683 0.50683 0.0
H980 H 0.26916 0.65461 0.51046 0.0
C981 C 0.2855 0.65442 0.51736 0.0
H982 H 0.29234 0.63908 0.51249 0.0
H983 H 0.29763 0.58789 0.52155 0.0
O984 O 0.278 0.65192 0.65217 0.0
C985 C 0.30016 0.59667 0.60619 0.0
Co986 Co 0.11218 0.52319 0.36964 0.0
Co987 Co 0.13531 0.51981 0.31446 0.0
C988 C 0.13321 0.48399 0.35231 0.0
O989 O 0.12298 0.4947 0.36885 0.0
O990 O 0.1389 0.49165 0.33028 0.0
C991 C 0.0856 0.50905 0.41058 0.0
O992 O 0.08503 0.4924 0.39559 0.0
C993 C 0.14791 0.50203 0.26293 0.0
C994 C 0.15363 0.52993 0.23868 0.0
C995 C 0.1533 0.50841 0.23759 0.0
N996 N 0.14472 0.51895 0.27808 0.0
N997 N 0.14834 0.53558 0.26344 0.0
C998 C 0.14789 0.48033 0.27351 0.0
H999 H 0.15904 0.47954 0.29013 0.0
H1000 H 0.13218 0.47646 0.2811 0.0
H1001 H 0.15277 0.46867 0.25869 0.0
C1002 C 0.07728 0.53457 0.33558 0.0
N1003 N 0.09732 0.52939 0.33884 0.0
N1004 N 0.10636 0.52752 0.31562 0.0
C1005 C 0.0919 0.53088 0.29672 0.0
C1006 C 0.07312 0.53572 0.30881 0.0
C1007 C 0.06209 0.53656 0.35784 0.0
H1008 H 0.06876 0.5466 0.37349 0.0
H1009 H 0.05927 0.52097 0.36643 0.0
H1010 H 0.04702 0.5431 0.35129 0.0
O1011 O 0.13571 0.54209 0.37328 0.0
O1012 O 0.15345 0.53968 0.33568 0.0
H1013 H 0.10637 0.54144 0.2613 0.0
H1014 H 0.08111 0.53 0.25626 0.0
C1015 C 0.09576 0.52886 0.26773 0.0
H1016 H 0.10338 0.51374 0.26358 0.0
H1017 H 0.14696 0.55081 0.27028 0.0
O1018 O 0.09527 0.52505 0.40239 0.0
C1019 C 0.15119 0.54704 0.35898 0.0
Co1020 Co 0.22518 0.36506 0.11651 0.0
Co1021 Co 0.22727 0.38802 0.06147 0.0
C1022 C 0.26416 0.3851 0.09751 0.0
O1023 O 0.25407 0.3748 0.11459 0.0
O1024 O 0.2556 0.39115 0.07626 0.0
C1025 C 0.23969 0.33816 0.15686 0.0
O1026 O 0.2559 0.3372 0.14115 0.0
C1027 C 0.24636 0.39428 0.01018 0.0
C1028 C 0.22513 0.4158 0.98967 0.0
C1029 C 0.24416 0.40581 0.98706 0.0
N1030 N 0.22974 0.39764 0.02569 0.0
N1031 N 0.21698 0.41039 0.01324 0.0
C1032 C 0.26353 0.37966 0.01746 0.0
H1033 H 0.25776 0.36763 0.03134 0.0
H1034 H 0.27004 0.37205 0.99961 0.0
H1035 H 0.27606 0.38841 0.02759 0.0
C1036 C 0.21179 0.3304 0.08286 0.0
N1037 N 0.21767 0.35027 0.08594 0.0
N1038 N 0.21848 0.35947 0.06272 0.0
C1039 C 0.21328 0.34542 0.044 0.0
C1040 C 0.20881 0.32661 0.0562 0.0
C1041 C 0.21067 0.31504 0.10502 0.0
H1042 H 0.20105 0.32151 0.12122 0.0
H1043 H 0.22654 0.31237 0.11283 0.0
H1044 H 0.20412 0.29992 0.09866 0.0
O1045 O 0.20695 0.38939 0.12093 0.0
O1046 O 0.20854 0.40681 0.08295 0.0
H1047 H 0.20565 0.36525 0.0114 0.0
H1048 H 0.20363 0.33769 0.00439 0.0
C1049 C 0.21266 0.34977 0.01502 0.0
H1050 H 0.22874 0.34988 0.00714 0.0
H1051 H 0.20304 0.41587 0.02111 0.0
O1052 O 0.22369 0.34817 0.14935 0.0
C1053 C 0.20195 0.40489 0.10665 0.0
Co1054 Co 0.38736 0.47945 0.8652 0.0
Co1055 Co 0.36399 0.47972 0.81024 0.0
C1056 C 0.36513 0.51714 0.84571 0.0
O1057 O 0.37611 0.50766 0.86268 0.0
O1058 O 0.35932 0.50819 0.82455 0.0
C1059 C 0.41314 0.4954 0.90602 0.0
O1060 O 0.41298 0.51192 0.89077 0.0
C1061 C 0.35569 0.49604 0.75716 0.0
C1062 C 0.33979 0.46994 0.73734 0.0
C1063 C 0.34646 0.49021 0.7334 0.0
N1064 N 0.35463 0.47993 0.77408 0.0
N1065 N 0.34524 0.46433 0.76203 0.0
C1066 C 0.3633 0.51711 0.76518 0.0
H1067 H 0.35076 0.52504 0.77629 0.0
H1068 H 0.37695 0.51552 0.7784 0.0
H1069 H 0.36743 0.52709 0.74827 0.0
C1070 C 0.42233 0.46705 0.8317 0.0
N1071 N 0.40229 0.47231 0.83479 0.0
N1072 N 0.39297 0.47252 0.81163 0.0
C1073 C 0.40713 0.46766 0.79291 0.0
C1074 C 0.4261 0.46388 0.80509 0.0
C1075 C 0.43773 0.46657 0.85385 0.0
H1076 H 0.43197 0.45612 0.86966 0.0
H1077 H 0.43917 0.48239 0.86231 0.0
H1078 H 0.45331 0.46133 0.8473 0.0
O1079 O 0.36404 0.46028 0.87003 0.0
O1080 O 0.34632 0.46017 0.83228 0.0
H1081 H 0.38895 0.45663 0.76047 0.0
H1082 H 0.41613 0.46057 0.75275 0.0
C1083 C 0.40265 0.46671 0.76398 0.0
H1084 H 0.3989 0.48253 0.75674 0.0
H1085 H 0.3422 0.44998 0.77082 0.0
O1086 O 0.4043 0.47887 0.89801 0.0
C1087 C 0.34874 0.45412 0.85615 0.0
H1088 H 0.15351 0.03779 0.23926 0.0
H1089 H 0.20066 0.05845 0.09672 0.0
H1090 H 0.16443 0.98765 0.18444 0.0
H1091 H 0.17733 0.10609 0.1488 0.0
H1092 H 0.18548 0.03194 0.126 0.0
H1093 H 0.16041 0.06255 0.20462 0.0
C1094 C 0.15665 0.03184 0.21976 0.0
C1095 C 0.15758 0.01042 0.21474 0.0
C1096 C 0.18339 0.04822 0.1307 0.0
C1097 C 0.16685 0.03917 0.1747 0.0
C1098 C 0.19191 0.06335 0.1139 0.0
C1099 C 0.19046 0.08451 0.12049 0.0
C1100 C 0.17343 0.05439 0.15417 0.0
C1101 C 0.1791 0.08997 0.1431 0.0
C1102 C 0.16096 0.04615 0.19988 0.0
C1103 C 0.16328 0.00401 0.18917 0.0
N1104 N 0.17127 0.07505 0.15919 0.0
N1105 N 0.16782 0.01831 0.17013 0.0
H1106 H 0.19751 0.95842 0.34877 0.0
H1107 H 0.22823 0.87995 0.46523 0.0
H1108 H 0.15343 0.9197 0.38982 0.0
H1109 H 0.26311 0.93558 0.44851 0.0
H1110 H 0.20447 0.88851 0.42907 0.0
H1111 H 0.22543 0.94407 0.37656 0.0
C1112 C 0.19382 0.94646 0.36306 0.0
C1113 C 0.17316 0.94023 0.36707 0.0
C1114 C 0.21737 0.89881 0.43325 0.0
C1115 C 0.20484 0.92389 0.3988 0.0
C1116 C 0.23079 0.89405 0.45403 0.0
C1117 C 0.24706 0.9076 0.46063 0.0
C1118 C 0.2205 0.91702 0.41851 0.0
C1119 C 0.25044 0.92498 0.44444 0.0
C1120 C 0.20969 0.93846 0.37907 0.0
C1121 C 0.16916 0.92495 0.38617 0.0
N1122 N 0.23712 0.92935 0.42428 0.0
N1123 N 0.18481 0.91736 0.40136 0.0
H1124 H 0.33236 0.90404 0.63709 0.0
H1125 H 0.31183 0.01267 0.70247 0.0
H1126 H 0.28933 0.94757 0.60259 0.0
H1127 H 0.37102 0.98165 0.70971 0.0
H1128 H 0.30295 0.98927 0.66617 0.0
H1129 H 0.34678 0.93204 0.66415 0.0
C1130 C 0.32631 0.91965 0.63477 0.0
C1131 C 0.30973 0.92355 0.61749 0.0
C1132 C 0.31792 0.98767 0.67573 0.0
C1133 C 0.3256 0.95552 0.64912 0.0
C1134 C 0.32303 0.001 0.69655 0.0
C1135 C 0.34192 0.99871 0.71024 0.0
C1136 C 0.3317 0.97174 0.66856 0.0
C1137 C 0.35582 0.98342 0.70117 0.0
C1138 C 0.33449 0.93561 0.65027 0.0
C1139 C 0.30228 0.94399 0.61545 0.0
N1140 N 0.35029 0.97034 0.68126 0.0
N1141 N 0.30998 0.95916 0.63151 0.0
H1142 H 0.30765 0.05191 0.84659 0.0
H1143 H 0.28833 0.09766 0.99035 0.0
H1144 H 0.35588 0.07313 0.89919 0.0
H1145 H 0.23786 0.08862 0.9355 0.0
H1146 H 0.31286 0.09035 0.95554 0.0
H1147 H 0.28154 0.06721 0.87639 0.0
C1148 C 0.31277 0.06023 0.86399 0.0
C1149 C 0.33397 0.06106 0.87055 0.0
C1150 C 0.29645 0.09029 0.95083 0.0
C1151 C 0.30431 0.0782 0.90483 0.0
C1152 C 0.28229 0.09483 0.97081 0.0
C1153 C 0.26085 0.09458 0.96582 0.0
C1154 C 0.28929 0.08487 0.92557 0.0
C1155 C 0.25426 0.08925 0.94021 0.0
C1156 C 0.29787 0.0688 0.8811 0.0
C1157 C 0.33972 0.07186 0.89349 0.0
N1158 N 0.2684 0.0845 0.92105 0.0
N1159 N 0.32502 0.07976 0.90984 0.0
H1160 H 0.1664 0.90118 0.87065 0.0
H1161 H 0.18305 0.01353 0.8116 0.0
H1162 H 0.20693 0.94569 0.90793 0.0
H1163 H 0.12939 0.97603 0.79369 0.0
H1164 H 0.19139 0.98998 0.84828 0.0
H1165 H 0.1516 0.92901 0.84381 0.0
C1166 C 0.17182 0.91695 0.87361 0.0
C1167 C 0.18787 0.92116 0.89155 0.0
C1168 C 0.17771 0.98699 0.83643 0.0
C1169 C 0.17151 0.95306 0.8602 0.0
C1170 C 0.17298 0.00039 0.81549 0.0
C1171 C 0.15599 0.99622 0.79895 0.0
C1172 C 0.16533 0.96931 0.84082 0.0
C1173 C 0.1432 0.97926 0.80519 0.0
C1174 C 0.16343 0.93284 0.85821 0.0
C1175 C 0.19444 0.94184 0.89447 0.0
N1176 N 0.14831 0.96625 0.82531 0.0
N1177 N 0.18653 0.95699 0.87855 0.0
H1178 H 0.23676 0.93652 0.05709 0.0
H1179 H 0.34625 0.9164 0.12178 0.0
H1180 H 0.27073 0.87962 0.04474 0.0
H1181 H 0.30242 0.95922 0.1561 0.0
H1182 H 0.3185 0.90202 0.09438 0.0
H1183 H 0.25986 0.94486 0.09415 0.0
C1184 C 0.24907 0.92577 0.06222 0.0
C1185 C 0.25243 0.9078 0.04709 0.0
C1186 C 0.31479 0.91425 0.10828 0.0
C1187 C 0.27883 0.91717 0.08946 0.0
C1188 C 0.33062 0.9224 0.124 0.0
C1189 C 0.32659 0.93896 0.14127 0.0
C1190 C 0.29486 0.92311 0.10926 0.0
C1191 C 0.30611 0.94631 0.14322 0.0
C1192 C 0.26221 0.9305 0.0834 0.0
C1193 C 0.26829 0.89418 0.05496 0.0
N1194 N 0.29107 0.93863 0.12697 0.0
N1195 N 0.28112 0.89931 0.07528 0.0
H1196 H 0.28893 0.05238 0.40829 0.0
H1197 H 0.36823 0.02319 0.29192 0.0
H1198 H 0.32978 0.09639 0.37059 0.0
H1199 H 0.31324 0.98738 0.30888 0.0
H1200 H 0.35963 0.04651 0.3285 0.0
H1201 H 0.30337 0.02475 0.38012 0.0
C1202 C 0.30139 0.05609 0.3947 0.0
C1203 C 0.30818 0.07668 0.3917 0.0
C1204 C 0.34945 0.03353 0.32426 0.0
C1205 C 0.32456 0.04534 0.35941 0.0
C1206 C 0.35422 0.02036 0.30321 0.0
C1207 C 0.3409 0.00392 0.29661 0.0
C1208 C 0.33142 0.03002 0.33923 0.0
C1209 C 0.32366 0.00019 0.31295 0.0
C1210 C 0.30943 0.04039 0.37844 0.0
C1211 C 0.32408 0.08072 0.37345 0.0
N1212 N 0.31926 0.01329 0.33334 0.0
N1213 N 0.33164 0.06525 0.35793 0.0
H1214 H 0.19541 0.03993 0.65947 0.0
H1215 H 0.22492 0.11882 0.54282 0.0
H1216 H 0.1513 0.07986 0.62039 0.0
H1217 H 0.26095 0.0641 0.56052 0.0
H1218 H 0.20141 0.11022 0.5792 0.0
H1219 H 0.22317 0.0545 0.63161 0.0
C1220 C 0.1917 0.05222 0.64564 0.0
C1221 C 0.17105 0.05871 0.64217 0.0
C1222 C 0.21448 0.10011 0.57517 0.0
C1223 C 0.20253 0.07524 0.61024 0.0
C1224 C 0.22777 0.10488 0.55425 0.0
C1225 C 0.24433 0.09161 0.5479 0.0
C1226 C 0.21799 0.08214 0.59027 0.0
C1227 C 0.24805 0.07447 0.56439 0.0
C1228 C 0.20747 0.06033 0.62956 0.0
C1229 C 0.16701 0.0744 0.62362 0.0
N1230 N 0.23484 0.07007 0.58466 0.0
N1231 N 0.18255 0.08204 0.6083 0.0
H1232 H 0.81491 0.01374 0.81099 0.0
H1233 H 0.82887 0.90002 0.86845 0.0
H1234 H 0.86515 0.97312 0.78858 0.0
H1235 H 0.79012 0.94561 0.90668 0.0
H1236 H 0.84364 0.92732 0.8408 0.0
H1237 H 0.8065 0.99013 0.84758 0.0
C1238 C 0.82419 0.99988 0.81382 0.0
C1239 C 0.84022 0.99494 0.7961 0.0
C1240 C 0.83221 0.93152 0.85555 0.0
C1241 C 0.83083 0.96797 0.83793 0.0
C1242 C 0.82384 0.91592 0.87143 0.0
C1243 C 0.80829 0.92058 0.88991 0.0
C1244 C 0.82463 0.95193 0.85762 0.0
C1245 C 0.80222 0.94141 0.89283 0.0
C1246 C 0.81943 0.98644 0.83472 0.0
C1247 C 0.85204 0.97703 0.801 0.0
N1248 N 0.81012 0.95629 0.87648 0.0
N1249 N 0.84694 0.96407 0.82118 0.0
H1250 H 0.76954 0.12037 0.5443 0.0
H1251 H 0.80209 0.03915 0.65693 0.0
H1252 H 0.73758 0.06233 0.55668 0.0
H1253 H 0.84469 0.08238 0.62095 0.0
H1254 H 0.77407 0.05311 0.62904 0.0
H1255 H 0.79304 0.11184 0.58076 0.0
C1256 C 0.76761 0.10572 0.55453 0.0
C1257 C 0.75226 0.09155 0.54663 0.0
C1258 C 0.78947 0.0598 0.6277 0.0
C1259 C 0.77842 0.08216 0.58921 0.0
C1260 C 0.80539 0.05202 0.6438 0.0
C1261 C 0.82572 0.05964 0.6412 0.0
C1262 C 0.79392 0.07551 0.60925 0.0
C1263 C 0.82923 0.07606 0.62351 0.0
C1264 C 0.78086 0.10099 0.57553 0.0
C1265 C 0.74956 0.07345 0.56173 0.0
N1266 N 0.81355 0.08337 0.60815 0.0
N1267 N 0.76267 0.06914 0.58214 0.0
H1268 H 0.66628 0.09775 0.37003 0.0
H1269 H 0.6833 0.98571 0.30941 0.0
H1270 H 0.70719 0.05304 0.40626 0.0
H1271 H 0.63029 0.0239 0.29077 0.0
H1272 H 0.69156 0.00906 0.34631 0.0
H1273 H 0.65175 0.07021 0.34249 0.0
C1274 C 0.67184 0.08198 0.37261 0.0
C1275 C 0.68792 0.07764 0.39047 0.0
C1276 C 0.67805 0.01227 0.33423 0.0
C1277 C 0.67186 0.04608 0.3583 0.0
C1278 C 0.67338 0.99898 0.31315 0.0
C1279 C 0.65659 0.00337 0.29637 0.0
C1280 C 0.66581 0.03005 0.33854 0.0
C1281 C 0.64396 0.0205 0.30243 0.0
C1282 C 0.66361 0.06626 0.3568 0.0
C1283 C 0.69467 0.05698 0.39289 0.0
N1284 N 0.649 0.03337 0.32273 0.0
N1285 N 0.68689 0.04201 0.37659 0.0
H1286 H 0.72845 0.87747 0.04591 0.0
H1287 H 0.69496 0.95943 0.15712 0.0
H1288 H 0.75877 0.93666 0.05602 0.0
H1289 H 0.6523 0.91642 0.12082 0.0
H1290 H 0.72305 0.9453 0.12947 0.0
H1291 H 0.70488 0.88611 0.08231 0.0
C1292 C 0.72999 0.89239 0.0556 0.0
C1293 C 0.74486 0.90684 0.04706 0.0
C1294 C 0.70761 0.93869 0.12802 0.0
C1295 C 0.71873 0.91632 0.08963 0.0
C1296 C 0.69167 0.94656 0.14399 0.0
C1297 C 0.6713 0.93906 0.14121 0.0
C1298 C 0.70318 0.923 0.10956 0.0
C1299 C 0.66778 0.92265 0.12351 0.0
C1300 C 0.71673 0.89718 0.07658 0.0
C1301 C 0.74715 0.9253 0.06157 0.0
N1302 N 0.68352 0.91523 0.1083 0.0
N1303 N 0.73408 0.92963 0.08199 0.0
H1304 H 0.79977 0.05722 0.09799 0.0
H1305 H 0.84685 0.03802 0.24089 0.0
H1306 H 0.82254 0.10544 0.14957 0.0
H1307 H 0.83737 0.98741 0.18633 0.0
H1308 H 0.83943 0.06247 0.20606 0.0
H1309 H 0.81521 0.03105 0.12759 0.0
C1310 C 0.80846 0.06232 0.11512 0.0
C1311 C 0.80968 0.08354 0.12148 0.0
C1312 C 0.83931 0.04604 0.20142 0.0
C1313 C 0.82697 0.05382 0.15553 0.0
C1314 C 0.84392 0.03193 0.22141 0.0
C1315 C 0.84358 0.01047 0.2165 0.0
C1316 C 0.83372 0.03883 0.17624 0.0
C1317 C 0.83808 0.00382 0.19097 0.0
C1318 C 0.81711 0.04739 0.13211 0.0
C1319 C 0.82096 0.08926 0.14405 0.0
N1320 N 0.83326 0.01792 0.17181 0.0
N1321 N 0.82892 0.07454 0.16031 0.0
H1322 H 0.69673 0.04067 0.85185 0.0
H1323 H 0.73431 0.12399 0.95848 0.0
H1324 H 0.65445 0.08368 0.8889 0.0
H1325 H 0.75858 0.06157 0.95614 0.0
H1326 H 0.71008 0.11498 0.9229 0.0
H1327 H 0.72498 0.05434 0.87961 0.0
C1328 C 0.69356 0.05343 0.86519 0.0
C1329 C 0.67327 0.0611 0.86812 0.0
C1330 C 0.72075 0.10331 0.93022 0.0
C1331 C 0.70534 0.07673 0.89969 0.0
C1332 C 0.73429 0.10829 0.95085 0.0
C1333 C 0.74758 0.09312 0.96139 0.0
C1334 C 0.72109 0.08325 0.91937 0.0
C1335 C 0.74819 0.07358 0.94905 0.0
C1336 C 0.70959 0.06105 0.88118 0.0
C1337 C 0.66989 0.07737 0.88608 0.0
N1338 N 0.735 0.06913 0.92882 0.0
N1339 N 0.68575 0.08463 0.90122 0.0
H1340 H 0.65479 0.96394 0.74098 0.0
H1341 H 0.7007 0.94401 0.59746 0.0
H1342 H 0.66408 0.01421 0.68587 0.0
H1343 H 0.67905 0.89601 0.65016 0.0
H1344 H 0.68557 0.97028 0.62716 0.0
H1345 H 0.66208 0.93927 0.70633 0.0
C1346 C 0.65766 0.96991 0.72142 0.0
C1347 C 0.658 0.99133 0.7163 0.0
C1348 C 0.68386 0.95397 0.63192 0.0
C1349 C 0.6677 0.96274 0.67625 0.0
C1350 C 0.69236 0.93897 0.61489 0.0
C1351 C 0.69134 0.91779 0.62149 0.0
C1352 C 0.67436 0.94763 0.65563 0.0
C1353 C 0.68048 0.91216 0.64443 0.0
C1354 C 0.66219 0.95567 0.70153 0.0
C1355 C 0.66338 0.99783 0.69067 0.0
N1356 N 0.67265 0.92694 0.66071 0.0
N1357 N 0.66812 0.98361 0.67161 0.0
H1358 H 0.73592 0.91485 0.43536 0.0
H1359 H 0.85633 0.92581 0.39805 0.0
H1360 H 0.78731 0.90451 0.48842 0.0
H1361 H 0.80789 0.95137 0.34899 0.0
H1362 H 0.83005 0.91081 0.42681 0.0
H1363 H 0.76093 0.9227 0.39999 0.0
C1364 C 0.7524 0.91385 0.43951 0.0
C1365 C 0.75941 0.90831 0.46486 0.0
C1366 C 0.82506 0.91949 0.40962 0.0
C1367 C 0.78803 0.91726 0.42452 0.0
C1368 C 0.8401 0.92796 0.39307 0.0
C1369 C 0.83431 0.94005 0.37123 0.0
C1370 C 0.80395 0.92324 0.4046 0.0
C1371 C 0.81302 0.94214 0.36563 0.0
C1372 C 0.76662 0.91831 0.41931 0.0
C1373 C 0.78095 0.90761 0.46914 0.0
N1374 N 0.79855 0.93408 0.38247 0.0
N1375 N 0.79438 0.91199 0.44926 0.0
H1376 H 0.65371 0.53757 0.73965 0.0
H1377 H 0.69941 0.55705 0.59634 0.0
H1378 H 0.66355 0.48688 0.68531 0.0
H1379 H 0.67512 0.605 0.64721 0.0
H1380 H 0.68464 0.53069 0.62617 0.0
H1381 H 0.66017 0.56199 0.70448 0.0
C1382 C 0.65652 0.53144 0.72016 0.0
C1383 C 0.65723 0.50998 0.7154 0.0
C1384 C 0.68223 0.54699 0.63046 0.0
C1385 C 0.66599 0.53831 0.67473 0.0
C1386 C 0.6905 0.56203 0.61334 0.0
C1387 C 0.68869 0.58325 0.61947 0.0
C1388 C 0.67217 0.55332 0.65379 0.0
C1389 C 0.67715 0.58883 0.64188 0.0
C1390 C 0.66057 0.54554 0.69996 0.0
C1391 C 0.66256 0.5033 0.68983 0.0
N1392 N 0.66959 0.57401 0.65831 0.0
N1393 N 0.66685 0.5174 0.67046 0.0
H1394 H 0.64495 0.42615 0.89791 0.0
H1395 H 0.7653 0.41313 0.93433 0.0
H1396 H 0.69357 0.45053 0.84816 0.0
H1397 H 0.71405 0.40505 0.98827 0.0
H1398 H 0.74025 0.42114 0.89907 0.0
H1399 H 0.67112 0.41107 0.92675 0.0
C1400 C 0.66119 0.42804 0.89281 0.0
C1401 C 0.66707 0.43983 0.87075 0.0
C1402 C 0.73458 0.4172 0.91857 0.0
C1403 C 0.6973 0.42289 0.90418 0.0
C1404 C 0.74883 0.41264 0.93871 0.0
C1405 C 0.74186 0.4077 0.96427 0.0
C1406 C 0.71319 0.41683 0.92407 0.0
C1407 C 0.72035 0.40767 0.96883 0.0
C1408 C 0.67616 0.41952 0.9094 0.0
C1409 C 0.68836 0.44156 0.86499 0.0
N1410 N 0.70689 0.41211 0.94901 0.0
N1411 N 0.70278 0.43344 0.88186 0.0
H1412 H 0.86877 0.47502 0.21894 0.0
H1413 H 0.79307 0.44636 0.09875 0.0
H1414 H 0.81585 0.51255 0.19781 0.0
H1415 H 0.82944 0.40146 0.14184 0.0
H1416 H 0.80755 0.47406 0.12677 0.0
H1417 H 0.86054 0.4513 0.18266 0.0
C1418 C 0.85532 0.47818 0.20673 0.0
C1419 C 0.8424 0.49522 0.21209 0.0
C1420 C 0.81262 0.45818 0.1297 0.0
C1421 C 0.83336 0.46862 0.1699 0.0
C1422 C 0.80455 0.44242 0.11357 0.0
C1423 C 0.81005 0.42161 0.11808 0.0
C1424 C 0.82652 0.45304 0.15008 0.0
C1425 C 0.82473 0.41731 0.13781 0.0
C1426 C 0.85075 0.46476 0.18589 0.0
C1427 C 0.82591 0.49929 0.1947 0.0
N1428 N 0.83238 0.43285 0.15312 0.0
N1429 N 0.82168 0.48593 0.17452 0.0
H1430 H 0.76433 0.62271 0.45643 0.0
H1431 H 0.80204 0.53722 0.35248 0.0
H1432 H 0.73978 0.56039 0.4554 0.0
H1433 H 0.84394 0.58161 0.38749 0.0
H1434 H 0.77367 0.55143 0.37963 0.0
H1435 H 0.7885 0.61313 0.42103 0.0
C1436 C 0.76428 0.60691 0.44913 0.0
C1437 C 0.75091 0.59195 0.45998 0.0
C1438 C 0.789 0.55832 0.38087 0.0
C1439 C 0.77737 0.58139 0.41818 0.0
C1440 C 0.8051 0.55039 0.36522 0.0
C1441 C 0.82531 0.5583 0.36778 0.0
C1442 C 0.79313 0.57452 0.39869 0.0
C1443 C 0.82856 0.5751 0.38497 0.0
C1444 C 0.77778 0.6016 0.42859 0.0
C1445 C 0.75022 0.57225 0.44806 0.0
N1446 N 0.81265 0.58264 0.39982 0.0
N1447 N 0.7634 0.56746 0.42793 0.0
H1448 H 0.63064 0.47367 0.29021 0.0
H1449 H 0.70766 0.44502 0.40907 0.0
H1450 H 0.68404 0.51097 0.30994 0.0
H1451 H 0.67108 0.40002 0.36649 0.0
H1452 H 0.69293 0.47267 0.38115 0.0
H1453 H 0.63934 0.44994 0.32631 0.0
C1454 C 0.6443 0.47678 0.30206 0.0
C1455 C 0.6572 0.49376 0.29634 0.0
C1456 C 0.68787 0.45678 0.37832 0.0
C1457 C 0.66677 0.46715 0.33837 0.0
C1458 C 0.69608 0.44106 0.3944 0.0
C1459 C 0.69057 0.42023 0.39002 0.0
C1460 C 0.67382 0.45159 0.35811 0.0
C1461 C 0.67578 0.41587 0.37045 0.0
C1462 C 0.64913 0.46335 0.3228 0.0
C1463 C 0.67397 0.49776 0.31332 0.0
N1464 N 0.66798 0.43138 0.35518 0.0
N1465 N 0.67845 0.4844 0.33342 0.0
H1466 H 0.80669 0.44924 0.66139 0.0
H1467 H 0.7876 0.4018 0.51911 0.0
H1468 H 0.85473 0.42343 0.61188 0.0
H1469 H 0.73678 0.41151 0.57329 0.0
H1470 H 0.81191 0.40857 0.5543 0.0
H1471 H 0.7804 0.43405 0.6318 0.0
C1472 C 0.8117 0.43992 0.64476 0.0
C1473 C 0.83294 0.4378 0.63892 0.0
C1474 C 0.79546 0.40886 0.55877 0.0
C1475 C 0.80309 0.42081 0.60485 0.0
C1476 C 0.78141 0.40463 0.53856 0.0
C1477 C 0.75994 0.40523 0.54325 0.0
C1478 C 0.78815 0.41437 0.58393 0.0
C1479 C 0.7532 0.4106 0.5688 0.0
C1480 C 0.7967 0.4314 0.62777 0.0
C1481 C 0.83855 0.42572 0.61697 0.0
N1482 N 0.76724 0.41509 0.58816 0.0
N1483 N 0.82378 0.41795 0.60064 0.0
H1484 H 0.8717 0.51786 0.79754 0.0
H1485 H 0.78881 0.55295 0.90672 0.0
H1486 H 0.81126 0.48961 0.80497 0.0
H1487 H 0.8329 0.59503 0.87143 0.0
H1488 H 0.8027 0.52475 0.87906 0.0
H1489 H 0.86296 0.54158 0.83376 0.0
C1490 C 0.85648 0.51684 0.80655 0.0
C1491 C 0.84173 0.50252 0.79729 0.0
C1492 C 0.8096 0.54007 0.87784 0.0
C1493 C 0.83215 0.52872 0.83976 0.0
C1494 C 0.80186 0.55608 0.89381 0.0
C1495 C 0.80975 0.57632 0.89132 0.0
C1496 C 0.82556 0.54431 0.85969 0.0
C1497 C 0.82639 0.57964 0.87391 0.0
C1498 C 0.85164 0.53016 0.82746 0.0
C1499 C 0.82287 0.5008 0.81106 0.0
N1500 N 0.83369 0.56384 0.8587 0.0
N1501 N 0.81851 0.51389 0.83146 0.0
H1502 H 0.69633 0.53973 0.15752 0.0
H1503 H 0.7241 0.61792 0.03941 0.0
H1504 H 0.65151 0.57854 0.11792 0.0
H1505 H 0.76224 0.5652 0.05956 0.0
H1506 H 0.70057 0.60907 0.07563 0.0
H1507 H 0.72384 0.55466 0.1296 0.0
C1508 C 0.69239 0.55184 0.14354 0.0
C1509 C 0.67163 0.5579 0.13996 0.0
C1510 C 0.7141 0.59944 0.07218 0.0
C1511 C 0.70284 0.57484 0.10793 0.0
C1512 C 0.72741 0.60435 0.05134 0.0
C1513 C 0.74462 0.59171 0.04575 0.0
C1514 C 0.71819 0.58195 0.08794 0.0
C1515 C 0.74886 0.57506 0.06285 0.0
C1516 C 0.70803 0.56017 0.12743 0.0
C1517 C 0.66731 0.57339 0.12124 0.0
N1518 N 0.7356 0.5705 0.08301 0.0
N1519 N 0.68273 0.58123 0.10587 0.0
H1520 H 0.3162 0.51276 0.31158 0.0
H1521 H 0.32833 0.39826 0.36665 0.0
H1522 H 0.36622 0.47198 0.28885 0.0
H1523 H 0.29158 0.44425 0.40725 0.0
H1524 H 0.34327 0.4256 0.3392 0.0
H1525 H 0.30752 0.48888 0.34782 0.0
C1526 C 0.32539 0.49882 0.31429 0.0
C1527 C 0.34142 0.4939 0.29657 0.0
C1528 C 0.33223 0.42985 0.3544 0.0
C1529 C 0.33171 0.46663 0.33794 0.0
C1530 C 0.32375 0.41423 0.37014 0.0
C1531 C 0.30874 0.41901 0.38926 0.0
C1532 C 0.32529 0.45043 0.35728 0.0
C1533 C 0.30326 0.43995 0.39287 0.0
C1534 C 0.32047 0.48523 0.33498 0.0
C1535 C 0.35312 0.47588 0.3013 0.0
N1536 N 0.31125 0.45487 0.37666 0.0
N1537 N 0.34785 0.46277 0.32124 0.0
H1538 H 0.30321 0.53998 0.1583 0.0
H1539 H 0.27487 0.61872 0.04099 0.0
H1540 H 0.3476 0.5799 0.1197 0.0
H1541 H 0.23748 0.56525 0.06013 0.0
H1542 H 0.2983 0.61 0.07738 0.0
H1543 H 0.27561 0.55476 0.13039 0.0
C1544 C 0.30702 0.5523 0.14456 0.0
C1545 C 0.3277 0.55872 0.14124 0.0
C1546 C 0.28495 0.60018 0.07368 0.0
C1547 C 0.29639 0.57548 0.10922 0.0
C1548 C 0.2717 0.60503 0.05274 0.0
C1549 C 0.25475 0.59215 0.04682 0.0
C1550 C 0.28104 0.58251 0.08918 0.0
C1551 C 0.25067 0.57531 0.06368 0.0
C1552 C 0.29133 0.56055 0.12845 0.0
C1553 C 0.33186 0.57447 0.12282 0.0
N1554 N 0.26386 0.57081 0.08393 0.0
N1555 N 0.3164 0.58222 0.10744 0.0
H1556 H 0.21262 0.55326 0.90667 0.0
H1557 H 0.12825 0.51481 0.80157 0.0
H1558 H 0.16674 0.59418 0.87289 0.0
H1559 H 0.1908 0.4909 0.80358 0.0
H1560 H 0.1371 0.53881 0.83745 0.0
H1561 H 0.19914 0.52479 0.87914 0.0
C1562 C 0.19927 0.55606 0.89414 0.0
C1563 C 0.19074 0.57606 0.89203 0.0
C1564 C 0.14885 0.52828 0.83 0.0
C1565 C 0.17537 0.54374 0.86061 0.0
C1566 C 0.14395 0.51487 0.80921 0.0
C1567 C 0.15918 0.50173 0.79851 0.0
C1568 C 0.16893 0.52803 0.8408 0.0
C1569 C 0.17874 0.50118 0.81079 0.0
C1570 C 0.19177 0.5399 0.87825 0.0
C1571 C 0.17373 0.57897 0.87508 0.0
N1572 N 0.18313 0.51428 0.83115 0.0
N1573 N 0.16664 0.56302 0.85996 0.0
H1574 H 0.14423 0.42421 0.61261 0.0
H1575 H 0.26396 0.41158 0.57281 0.0
H1576 H 0.19364 0.44931 0.66047 0.0
H1577 H 0.21184 0.40277 0.52044 0.0
H1578 H 0.23949 0.41957 0.6087 0.0
H1579 H 0.16993 0.40888 0.58327 0.0
C1580 C 0.16055 0.42618 0.61723 0.0
C1581 C 0.16678 0.43826 0.63889 0.0
C1582 C 0.23351 0.41548 0.58941 0.0
C1583 C 0.19647 0.42104 0.60485 0.0
C1584 C 0.24743 0.41093 0.5689 0.0
C1585 C 0.24006 0.40582 0.54357 0.0
C1586 C 0.21203 0.41491 0.58455 0.0
C1587 C 0.21847 0.40555 0.53965 0.0
C1588 C 0.17525 0.41751 0.60034 0.0
C1589 C 0.18817 0.4401 0.64399 0.0
N1590 N 0.20533 0.40999 0.55984 0.0
N1591 N 0.2023 0.43185 0.62683 0.0
H1592 H 0.31065 0.49172 0.70474 0.0
H1593 H 0.33439 0.59803 0.63776 0.0
H1594 H 0.37267 0.51693 0.70677 0.0
H1595 H 0.29123 0.55531 0.60188 0.0
H1596 H 0.34833 0.56949 0.66447 0.0
H1597 H 0.3023 0.51525 0.66815 0.0
C1598 C 0.32251 0.50222 0.69751 0.0
C1599 C 0.34206 0.50313 0.70974 0.0
C1600 C 0.33613 0.56626 0.65033 0.0
C1601 C 0.3326 0.53007 0.66801 0.0
C1602 C 0.32822 0.58251 0.63506 0.0
C1603 C 0.31175 0.57895 0.6175 0.0
C1604 C 0.32701 0.54649 0.6487 0.0
C1605 C 0.30411 0.55862 0.61498 0.0
C1606 C 0.31775 0.51559 0.6766 0.0
C1607 C 0.35697 0.5167 0.69917 0.0
N1608 N 0.31149 0.54321 0.63086 0.0
N1609 N 0.35182 0.52996 0.67929 0.0
H1610 H 0.21318 0.59739 0.49038 0.0
H1611 H 0.19358 0.54717 0.34992 0.0
H1612 H 0.26397 0.58689 0.43638 0.0
H1613 H 0.14597 0.57555 0.3978 0.0
H1614 H 0.22012 0.56256 0.37903 0.0
H1615 H 0.18887 0.59004 0.45541 0.0
C1616 C 0.21937 0.59427 0.471 0.0
C1617 C 0.24085 0.59363 0.4663 0.0
C1618 C 0.20386 0.56572 0.38278 0.0
C1619 C 0.2126 0.5838 0.42589 0.0
C1620 C 0.18873 0.55708 0.36606 0.0
C1621 C 0.16752 0.55989 0.37163 0.0
C1622 C 0.19762 0.57711 0.40515 0.0
C1623 C 0.16211 0.57272 0.39296 0.0
C1624 C 0.20532 0.5897 0.45092 0.0
C1625 C 0.24756 0.58785 0.44088 0.0
N1626 N 0.177 0.58058 0.40905 0.0
N1627 N 0.23351 0.58303 0.42165 0.0
H1628 H 0.18365 0.51384 0.2003 0.0
H1629 H 0.17028 0.40073 0.14165 0.0
H1630 H 0.13218 0.47401 0.22035 0.0
H1631 H 0.20723 0.44709 0.10206 0.0
H1632 H 0.15559 0.42776 0.16987 0.0
H1633 H 0.19229 0.49046 0.16351 0.0
C1634 C 0.17415 0.50021 0.1969 0.0
C1635 C 0.1577 0.49538 0.21404 0.0
C1636 C 0.16662 0.43216 0.15472 0.0
C1637 C 0.16738 0.46868 0.17205 0.0
C1638 C 0.17496 0.41672 0.13855 0.0
C1639 C 0.18994 0.4217 0.11947 0.0
C1640 C 0.17369 0.45272 0.15233 0.0
C1641 C 0.19556 0.44265 0.11639 0.0
C1642 C 0.17905 0.48691 0.1759 0.0
C1643 C 0.14561 0.47778 0.20841 0.0
N1644 N 0.18773 0.45737 0.13301 0.0
N1645 N 0.15087 0.46492 0.1882 0.0
H1646 H 0.28695 0.4057 0.98967 0.0
H1647 H 0.30652 0.45191 0.84646 0.0
H1648 H 0.23638 0.41553 0.93518 0.0
H1649 H 0.3545 0.42816 0.89768 0.0
H1650 H 0.28019 0.43701 0.87625 0.0
H1651 H 0.31143 0.41256 0.95467 0.0
C1652 C 0.28086 0.4086 0.97018 0.0
C1653 C 0.25941 0.4092 0.96534 0.0
C1654 C 0.2965 0.43477 0.88065 0.0
C1655 C 0.2878 0.41841 0.92487 0.0
C1656 C 0.31152 0.44312 0.86354 0.0
C1657 C 0.33273 0.44147 0.86975 0.0
C1658 C 0.30284 0.4248 0.90403 0.0
C1659 C 0.33833 0.43007 0.89228 0.0
C1660 C 0.295 0.41288 0.95008 0.0
C1661 C 0.25278 0.41463 0.93977 0.0
N1662 N 0.32353 0.42242 0.90866 0.0
N1663 N 0.26691 0.41913 0.92051 0.0
H1664 H 0.2928 0.16226 0.31375 0.0
H1665 H 0.27841 0.18211 0.18087 0.0
H1666 H 0.2273 0.17485 0.32272 0.0
H1667 H 0.21516 0.16379 0.19711 0.0
H1668 H 0.2842 0.18671 0.22811 0.0
H1669 H 0.2897 0.16906 0.26658 0.0
C1670 C 0.27786 0.16691 0.30589 0.0
C1671 C 0.26027 0.16783 0.3222 0.0
C1672 C 0.26908 0.18163 0.22138 0.0
C1673 C 0.25657 0.17589 0.26812 0.0
C1674 C 0.26566 0.17923 0.19434 0.0
C1675 C 0.24638 0.17212 0.18502 0.0
C1676 C 0.2531 0.17679 0.23925 0.0
C1677 C 0.23037 0.16897 0.20341 0.0
C1678 C 0.27611 0.17098 0.2789 0.0
C1679 C 0.24128 0.17389 0.3109 0.0
N1680 N 0.23415 0.17114 0.22967 0.0
N1681 N 0.23986 0.17732 0.28449 0.0
H1682 H 0.0875 0.95844 0.44548 0.0
H1683 H 0.08597 0.0395 0.56242 0.0
H1684 H 0.0768 0.02396 0.43319 0.0
H1685 H 0.07689 0.97373 0.57464 0.0
H1686 H 0.08073 0.0343 0.51506 0.0
H1687 H 0.08176 0.96347 0.49278 0.0
C1688 C 0.08364 0.97382 0.45267 0.0
C1689 C 0.08288 0.99084 0.43539 0.0
C1690 C 0.07955 0.02106 0.52816 0.0
C1691 C 0.07658 0.99677 0.4895 0.0
C1692 C 0.08256 0.02402 0.5552 0.0
C1693 C 0.08211 0.00699 0.57248 0.0
C1694 C 0.07641 0.00088 0.5183 0.0
C1695 C 0.07751 0.9873 0.56204 0.0
C1696 C 0.08034 0.97669 0.47967 0.0
C1697 C 0.07768 0.0104 0.44578 0.0
N1698 N 0.07519 0.98473 0.53559 0.0
N1699 N 0.07508 0.0129 0.47221 0.0
H1700 H 0.22503 0.82643 0.6818 0.0
H1701 H 0.27434 0.82617 0.82648 0.0
H1702 H 0.28989 0.83815 0.69764 0.0
H1703 H 0.20919 0.8364 0.8109 0.0
H1704 H 0.28016 0.82104 0.77927 0.0
H1705 H 0.21933 0.82059 0.7289 0.0
C1706 C 0.23817 0.82741 0.69509 0.0
C1707 C 0.25794 0.83306 0.6858 0.0
C1708 C 0.26455 0.82413 0.78625 0.0
C1709 C 0.25145 0.82639 0.73971 0.0
C1710 C 0.26117 0.82696 0.81321 0.0
C1711 C 0.24127 0.83201 0.82263 0.0
C1712 C 0.24789 0.82615 0.76859 0.0
C1713 C 0.22482 0.83277 0.80447 0.0
C1714 C 0.23485 0.82417 0.72199 0.0
C1715 C 0.27435 0.83405 0.70398 0.0
N1716 N 0.22852 0.83005 0.77828 0.0
N1717 N 0.27071 0.83091 0.73012 0.0
H1718 H 0.41781 0.03531 0.94374 0.0
H1719 H 0.4122 0.95574 0.06231 0.0
H1720 H 0.42255 0.96892 0.93302 0.0
H1721 H 0.42405 0.02121 0.07324 0.0
H1722 H 0.4187 0.9599 0.01506 0.0
H1723 H 0.4229 0.0305 0.99116 0.0
C1724 C 0.42024 0.01975 0.9513 0.0
C1725 C 0.41946 0.00248 0.93443 0.0
C1726 C 0.42021 0.97329 0.02786 0.0
C1727 C 0.425 0.99682 0.98871 0.0
C1728 C 0.41648 0.97092 0.05484 0.0
C1729 C 0.41731 0.9882 0.07171 0.0
C1730 C 0.4245 0.99314 0.01762 0.0
C1731 C 0.42307 0.00748 0.06096 0.0
C1732 C 0.42316 0.017 0.97838 0.0
C1733 C 0.42286 0.98269 0.9453 0.0
N1734 N 0.4261 0.00949 0.03455 0.0
N1735 N 0.42513 0.98037 0.9718 0.0
H1736 H 0.77931 0.824 0.68268 0.0
H1737 H 0.72312 0.82479 0.82326 0.0
H1738 H 0.71332 0.83267 0.69331 0.0
H1739 H 0.7888 0.83528 0.81225 0.0
H1740 H 0.71964 0.81825 0.77596 0.0
H1741 H 0.78296 0.81864 0.7302 0.0
C1742 C 0.76551 0.8244 0.69491 0.0
C1743 C 0.746 0.82913 0.68404 0.0
C1744 C 0.73485 0.82171 0.78398 0.0
C1745 C 0.75014 0.82304 0.73843 0.0
C1746 C 0.73689 0.82537 0.811 0.0
C1747 C 0.75625 0.83091 0.82168 0.0
C1748 C 0.75231 0.82345 0.76754 0.0
C1749 C 0.77354 0.83132 0.80481 0.0
C1750 C 0.76765 0.82143 0.72205 0.0
C1751 C 0.72869 0.82934 0.70088 0.0
N1752 N 0.77113 0.82784 0.77852 0.0
N1753 N 0.73119 0.82656 0.72729 0.0
H1754 H 0.919 0.96397 0.44532 0.0
H1755 H 0.91266 0.04454 0.56241 0.0
H1756 H 0.92521 0.03013 0.43356 0.0
H1757 H 0.92545 0.97939 0.5747 0.0
H1758 H 0.91953 0.03991 0.5153 0.0
H1759 H 0.92376 0.9692 0.49274 0.0
C1760 C 0.92171 0.97955 0.45265 0.0
C1761 C 0.92144 0.99666 0.43548 0.0
C1762 C 0.92117 0.0267 0.52838 0.0
C1763 C 0.92657 0.0028 0.48974 0.0
C1764 C 0.91722 0.02933 0.55527 0.0
C1765 C 0.91822 0.01228 0.57247 0.0
C1766 C 0.92582 0.0068 0.51856 0.0
C1767 C 0.92434 0.99296 0.56215 0.0
C1768 C 0.92444 0.98254 0.47973 0.0
C1769 C 0.92515 0.01649 0.44607 0.0
N1770 N 0.92756 0.99067 0.53581 0.0
N1771 N 0.9272 0.01906 0.47256 0.0
H1772 H 0.77153 0.17559 0.32488 0.0
H1773 H 0.71811 0.17441 0.18259 0.0
H1774 H 0.70643 0.16306 0.31192 0.0
H1775 H 0.78408 0.16753 0.19531 0.0
H1776 H 0.71338 0.1797 0.22997 0.0
H1777 H 0.77573 0.18206 0.27767 0.0
C1778 C 0.75802 0.17455 0.31221 0.0
C1779 C 0.73864 0.16846 0.32232 0.0
C1780 C 0.72892 0.17732 0.22232 0.0
C1781 C 0.7434 0.17584 0.26827 0.0
C1782 C 0.73167 0.17439 0.19525 0.0
C1783 C 0.75151 0.1702 0.18501 0.0
C1784 C 0.74614 0.17622 0.23924 0.0
C1785 C 0.76848 0.17045 0.2024 0.0
C1786 C 0.76047 0.17817 0.28523 0.0
C1787 C 0.7217 0.16746 0.30493 0.0
N1788 N 0.76538 0.17319 0.22871 0.0
N1789 N 0.72451 0.17092 0.2787 0.0
H1790 H 0.5869 0.04244 0.94745 0.0
H1791 H 0.58552 0.95809 0.06035 0.0
H1792 H 0.57573 0.97743 0.9319 0.0
H1793 H 0.57537 0.02329 0.07573 0.0
H1794 H 0.58035 0.96465 0.01323 0.0
H1795 H 0.58112 0.03599 0.99448 0.0
C1796 C 0.58292 0.02688 0.95386 0.0
C1797 C 0.58203 0.01042 0.93575 0.0
C1798 C 0.57892 0.97746 0.02698 0.0
C1799 C 0.57571 0.00286 0.98953 0.0
C1800 C 0.58189 0.97372 0.05387 0.0
C1801 C 0.58111 0.99019 0.07198 0.0
C1802 C 0.57551 0.99787 0.0181 0.0
C1803 C 0.57624 0.01012 0.06248 0.0
C1804 C 0.5796 0.0232 0.98071 0.0
C1805 C 0.5767 0.99058 0.94517 0.0
N1806 N 0.57397 0.01347 0.03616 0.0
N1807 N 0.57409 0.98729 0.97145 0.0
H1808 H 0.7138 0.66777 0.69354 0.0
H1809 H 0.79429 0.66194 0.81105 0.0
H1810 H 0.78007 0.67252 0.68184 0.0
H1811 H 0.72913 0.6749 0.82286 0.0
H1812 H 0.78976 0.66817 0.76378 0.0
H1813 H 0.71906 0.67283 0.7409 0.0
C1814 C 0.72942 0.6702 0.70087 0.0
C1815 C 0.74653 0.66945 0.68373 0.0
C1816 C 0.77652 0.66997 0.77677 0.0
C1817 C 0.75271 0.67495 0.73795 0.0
C1818 C 0.7791 0.6664 0.80377 0.0
C1819 C 0.76201 0.66764 0.8209 0.0
C1820 C 0.75665 0.67451 0.7668 0.0
C1821 C 0.74272 0.67361 0.81038 0.0
C1822 C 0.73243 0.6731 0.72792 0.0
C1823 C 0.76642 0.67283 0.69432 0.0
N1824 N 0.74049 0.67649 0.78397 0.0
N1825 N 0.76899 0.67508 0.72079 0.0
H1826 H 0.57387 0.52868 0.93216 0.0
H1827 H 0.57443 0.47392 0.07365 0.0
H1828 H 0.58236 0.46275 0.9438 0.0
H1829 H 0.58598 0.53932 0.06152 0.0
H1830 H 0.56782 0.47005 0.02641 0.0
H1831 H 0.56871 0.53283 0.97965 0.0
C1832 C 0.57426 0.515 0.94461 0.0
C1833 C 0.57887 0.49536 0.93403 0.0
C1834 C 0.57152 0.48529 0.03417 0.0
C1835 C 0.57301 0.50007 0.98838 0.0
C1836 C 0.57522 0.48756 0.06116 0.0
C1837 C 0.58108 0.50694 0.0715 0.0
C1838 C 0.57352 0.50255 0.01744 0.0
C1839 C 0.58177 0.52405 0.05434 0.0
C1840 C 0.57141 0.51742 0.97174 0.0
C1841 C 0.5791 0.47821 0.95115 0.0
N1842 N 0.57822 0.52142 0.0281 0.0
N1843 N 0.57643 0.481 0.97753 0.0
H1844 H 0.70926 0.336 0.31203 0.0
H1845 H 0.7265 0.31947 0.1788 0.0
H1846 H 0.77496 0.32516 0.32218 0.0
H1847 H 0.78859 0.34026 0.19732 0.0
H1848 H 0.72012 0.31379 0.22574 0.0
H1849 H 0.71333 0.33064 0.26465 0.0
C1850 C 0.72446 0.33203 0.30436 0.0
C1851 C 0.7418 0.33116 0.3211 0.0
C1852 C 0.73511 0.31965 0.21957 0.0
C1853 C 0.74662 0.32482 0.2668 0.0
C1854 C 0.73887 0.32268 0.19271 0.0
C1855 C 0.75799 0.33075 0.18413 0.0
C1856 C 0.75057 0.32479 0.238 0.0
C1857 C 0.77351 0.33431 0.20305 0.0
C1858 C 0.72677 0.3288 0.27726 0.0
C1859 C 0.76115 0.32603 0.31004 0.0
N1860 N 0.7694 0.33147 0.22912 0.0
N1861 N 0.7631 0.32342 0.28354 0.0
H1862 H 0.92473 0.52787 0.57735 0.0
H1863 H 0.9243 0.47597 0.4341 0.0
H1864 H 0.9171 0.46207 0.56376 0.0
H1865 H 0.91117 0.5408 0.44841 0.0
H1866 H 0.93102 0.47127 0.48118 0.0
H1867 H 0.92922 0.53303 0.52992 0.0
C1868 C 0.92439 0.51443 0.56448 0.0
C1869 C 0.92024 0.49452 0.57452 0.0
C1870 C 0.92694 0.48658 0.47394 0.0
C1871 C 0.92533 0.5004 0.52022 0.0
C1872 C 0.92317 0.48932 0.44704 0.0
C1873 C 0.91687 0.50877 0.43734 0.0
C1874 C 0.92457 0.50343 0.49124 0.0
C1875 C 0.91575 0.52549 0.45508 0.0
C1876 C 0.92686 0.51744 0.53738 0.0
C1877 C 0.92004 0.47772 0.55685 0.0
N1878 N 0.91939 0.5224 0.48123 0.0
N1879 N 0.92235 0.48106 0.53051 0.0
H1880 H 0.20891 0.33509 0.19411 0.0
H1881 H 0.28879 0.33376 0.3123 0.0
H1882 H 0.27469 0.32545 0.18283 0.0
H1883 H 0.22288 0.32486 0.32335 0.0
H1884 H 0.28414 0.32836 0.26489 0.0
H1885 H 0.21349 0.329 0.24139 0.0
C1886 C 0.22425 0.33138 0.20151 0.0
C1887 C 0.24147 0.33104 0.18453 0.0
C1888 C 0.27075 0.32725 0.27774 0.0
C1889 C 0.24689 0.32435 0.23865 0.0
C1890 C 0.2734 0.33035 0.30482 0.0
C1891 C 0.25617 0.33003 0.32178 0.0
C1892 C 0.25068 0.32413 0.26753 0.0
C1893 C 0.2366 0.32541 0.31101 0.0
C1894 C 0.22687 0.32788 0.22851 0.0
C1895 C 0.26098 0.32601 0.19519 0.0
N1896 N 0.23433 0.32299 0.28452 0.0
N1897 N 0.26322 0.32322 0.22162 0.0
H1898 H 0.41801 0.46426 0.94243 0.0
H1899 H 0.41312 0.54226 0.06266 0.0
H1900 H 0.42331 0.53073 0.9331 0.0
H1901 H 0.4247 0.47661 0.07218 0.0
H1902 H 0.41956 0.53869 0.01532 0.0
H1903 H 0.42327 0.46841 0.98992 0.0
C1904 C 0.42061 0.47969 0.95031 0.0
C1905 C 0.41994 0.49719 0.93381 0.0
C1906 C 0.42102 0.52512 0.02783 0.0
C1907 C 0.42566 0.50209 0.98818 0.0
C1908 C 0.41732 0.52716 0.05487 0.0
C1909 C 0.41809 0.50966 0.07136 0.0
C1910 C 0.42521 0.5054 0.01716 0.0
C1911 C 0.42376 0.4905 0.0602 0.0
C1912 C 0.42362 0.48206 0.97743 0.0
C1913 C 0.42355 0.5168 0.94508 0.0
N1914 N 0.42676 0.48881 0.03374 0.0
N1915 N 0.4259 0.51876 0.97162 0.0
H1916 H 0.22539 0.67427 0.68188 0.0
H1917 H 0.27272 0.67486 0.82761 0.0
H1918 H 0.29029 0.66381 0.69887 0.0
H1919 H 0.20822 0.66228 0.81053 0.0
H1920 H 0.279 0.68031 0.78055 0.0
H1921 H 0.21894 0.67937 0.72896 0.0
C1922 C 0.23838 0.67341 0.69543 0.0
C1923 C 0.25839 0.66834 0.68644 0.0
C1924 C 0.26343 0.67663 0.78718 0.0
C1925 C 0.25104 0.67419 0.74033 0.0
C1926 C 0.25977 0.67361 0.81405 0.0
C1927 C 0.23994 0.66784 0.823 0.0
C1928 C 0.2471 0.67409 0.76914 0.0
C1929 C 0.22379 0.66649 0.80447 0.0
C1930 C 0.23463 0.67624 0.72231 0.0
C1931 C 0.27459 0.66748 0.70496 0.0
N1932 N 0.22776 0.66944 0.77837 0.0
N1933 N 0.27053 0.67022 0.73107 0.0
H1934 H 0.08278 0.54064 0.44676 0.0
H1935 H 0.08131 0.46268 0.56722 0.0
H1936 H 0.07267 0.47469 0.43778 0.0
H1937 H 0.07616 0.52917 0.57654 0.0
H1938 H 0.07482 0.46671 0.51997 0.0
H1939 H 0.07704 0.53708 0.49423 0.0
C1940 C 0.07903 0.52547 0.45471 0.0
C1941 C 0.07852 0.50789 0.43832 0.0
C1942 C 0.07477 0.4804 0.53241 0.0
C1943 C 0.07221 0.50365 0.49268 0.0
C1944 C 0.07849 0.4781 0.5594 0.0
C1945 C 0.07959 0.49564 0.57579 0.0
C1946 C 0.07243 0.5004 0.52168 0.0
C1947 C 0.07564 0.51522 0.56462 0.0
C1948 C 0.07574 0.52344 0.48183 0.0
C1949 C 0.07341 0.48865 0.44968 0.0
N1950 N 0.07259 0.51711 0.53819 0.0
N1951 N 0.07081 0.48698 0.47621 0.0
H1952 H 0.36463 0.0293 0.10691 0.0
H1953 H 0.2877 0.12154 0.14419 0.0
H1954 H 0.34628 0.0448 0.18651 0.0
H1955 H 0.29164 0.09334 0.06695 0.0
H1956 H 0.31771 0.10113 0.15811 0.0
H1957 H 0.34668 0.06025 0.09106 0.0
C1958 C 0.35715 0.03937 0.12117 0.0
C1959 C 0.35644 0.03408 0.14808 0.0
C1960 C 0.31222 0.09973 0.13798 0.0
C1961 C 0.33593 0.06954 0.12993 0.0
C1962 C 0.29511 0.1114 0.12995 0.0
C1963 C 0.28681 0.10877 0.10451 0.0
C1964 C 0.32114 0.08543 0.12043 0.0
C1965 C 0.29727 0.0956 0.08688 0.0
C1966 C 0.34688 0.05703 0.11204 0.0
C1967 C 0.34676 0.04793 0.16557 0.0
N1968 N 0.31372 0.08417 0.0953 0.0
N1969 N 0.33661 0.06489 0.15615 0.0
H1970 H 0.15555 0.04191 0.31603 0.0
H1971 H 0.20297 0.09808 0.43929 0.0
H1972 H 0.13184 0.03397 0.39515 0.0
H1973 H 0.21792 0.1147 0.35895 0.0
H1974 H 0.17257 0.0793 0.42335 0.0
H1975 H 0.17383 0.07305 0.33048 0.0
C1976 C 0.15384 0.04692 0.33632 0.0
C1977 C 0.14256 0.035 0.35454 0.0
C1978 C 0.18229 0.08737 0.40924 0.0
C1979 C 0.16374 0.07047 0.37134 0.0
C1980 C 0.19974 0.09802 0.41836 0.0
C1981 C 0.21343 0.10738 0.4004 0.0
C1982 C 0.17869 0.08585 0.38194 0.0
C1983 C 0.20806 0.10733 0.37352 0.0
C1984 C 0.1643 0.06474 0.34458 0.0
C1985 C 0.1407 0.04244 0.38051 0.0
N1986 N 0.19137 0.09632 0.36505 0.0
N1987 N 0.15156 0.05945 0.38827 0.0
H1988 H 0.20496 0.90243 0.56804 0.0
H1989 H 0.15133 0.95391 0.69146 0.0
H1990 H 0.21827 0.88528 0.64866 0.0
H1991 H 0.13413 0.96703 0.6108 0.0
H1992 H 0.1704 0.92343 0.67637 0.0
H1993 H 0.17388 0.92052 0.58305 0.0
C1994 C 0.20126 0.90225 0.58884 0.0
C1995 C 0.21467 0.89295 0.60717 0.0
C1996 C 0.16217 0.93278 0.662 0.0
C1997 C 0.1791 0.91367 0.62458 0.0
C1998 C 0.15134 0.95028 0.67063 0.0
C1999 C 0.14174 0.9635 0.65232 0.0
C2000 C 0.16359 0.92863 0.63483 0.0
C2001 C 0.14171 0.95757 0.62562 0.0
C2002 C 0.18342 0.91252 0.59743 0.0
C2003 C 0.20866 0.89265 0.63384 0.0
N2004 N 0.15287 0.94083 0.61762 0.0
N2005 N 0.19155 0.90326 0.6418 0.0
H2006 H 0.34049 0.96025 0.81364 0.0
H2007 H 0.28172 0.87903 0.85992 0.0
H2008 H 0.36779 0.96286 0.89146 0.0
H2009 H 0.29076 0.9101 0.93462 0.0
H2010 H 0.3118 0.8974 0.84228 0.0
H2011 H 0.32032 0.93009 0.8273 0.0
C2012 C 0.34263 0.95417 0.83339 0.0
C2013 C 0.35555 0.96434 0.85156 0.0
C2014 C 0.30721 0.90015 0.86253 0.0
C2015 C 0.33267 0.92965 0.86733 0.0
C2016 C 0.29013 0.88954 0.87275 0.0
C2017 C 0.2833 0.89349 0.89864 0.0
C2018 C 0.31745 0.91485 0.8783 0.0
C2019 C 0.29516 0.90687 0.91445 0.0
C2020 C 0.33122 0.93678 0.84115 0.0
C2021 C 0.35781 0.95569 0.87687 0.0
N2022 N 0.31151 0.91729 0.9039 0.0
N2023 N 0.3461 0.93913 0.88418 0.0
H2024 H 0.63051 0.96839 0.89711 0.0
H2025 H 0.71519 0.88343 0.85927 0.0
H2026 H 0.65548 0.95968 0.81872 0.0
H2027 H 0.70406 0.90578 0.93839 0.0
H2028 H 0.68492 0.90287 0.84412 0.0
H2029 H 0.64885 0.9372 0.91155 0.0
C2030 C 0.6395 0.95971 0.88277 0.0
C2031 C 0.6419 0.96698 0.85679 0.0
C2032 C 0.68892 0.90319 0.86488 0.0
C2033 C 0.66285 0.9313 0.87328 0.0
C2034 C 0.70619 0.89208 0.87361 0.0
C2035 C 0.71256 0.89344 0.90009 0.0
C2036 C 0.67789 0.91565 0.88276 0.0
C2037 C 0.70005 0.90465 0.91774 0.0
C2038 C 0.64997 0.94192 0.89108 0.0
C2039 C 0.65349 0.95489 0.83904 0.0
N2040 N 0.68348 0.91559 0.90869 0.0
N2041 N 0.66381 0.9378 0.84772 0.0
H2042 H 0.8496 0.95415 0.68711 0.0
H2043 H 0.79225 0.90739 0.56463 0.0
H2044 H 0.8645 0.97099 0.60682 0.0
H2045 H 0.78854 0.88034 0.64252 0.0
H2046 H 0.82286 0.92684 0.57847 0.0
H2047 H 0.83157 0.92341 0.67075 0.0
C2048 C 0.84933 0.95126 0.66609 0.0
C2049 C 0.858 0.96553 0.6483 0.0
C2050 C 0.81561 0.91634 0.5924 0.0
C2051 C 0.8373 0.93044 0.62938 0.0
C2052 C 0.7981 0.90521 0.58448 0.0
C2053 C 0.7875 0.8926 0.60262 0.0
C2054 C 0.82234 0.9151 0.61874 0.0
C2055 C 0.79597 0.89019 0.62799 0.0
C2056 C 0.83911 0.93363 0.65672 0.0
C2057 C 0.85768 0.96065 0.62127 0.0
N2058 N 0.81263 0.90171 0.63548 0.0
N2059 N 0.84707 0.94375 0.61259 0.0
H2060 H 0.87035 0.03735 0.39505 0.0
H2061 H 0.77902 0.11537 0.35762 0.0
H2062 H 0.84247 0.04162 0.31767 0.0
H2063 H 0.7933 0.09577 0.4371 0.0
H2064 H 0.80987 0.09712 0.34196 0.0
H2065 H 0.84992 0.06734 0.40905 0.0
C2066 C 0.86026 0.04482 0.3808 0.0
C2067 C 0.85774 0.03663 0.35529 0.0
C2068 C 0.8064 0.09712 0.36288 0.0
C2069 C 0.83439 0.07094 0.37129 0.0
C2070 C 0.78881 0.10755 0.37191 0.0
C2071 C 0.78321 0.10662 0.3987 0.0
C2072 C 0.81855 0.08579 0.38078 0.0
C2073 C 0.7967 0.09649 0.41624 0.0
C2074 C 0.84859 0.06192 0.38888 0.0
C2075 C 0.84464 0.04717 0.33765 0.0
N2076 N 0.81361 0.08621 0.40692 0.0
N2077 N 0.83321 0.06362 0.3461 0.0
H2078 H 0.6333 0.02848 0.10655 0.0
H2079 H 0.71123 0.12009 0.14278 0.0
H2080 H 0.65141 0.04445 0.18609 0.0
H2081 H 0.70862 0.08968 0.06682 0.0
H2082 H 0.68074 0.10037 0.15662 0.0
H2083 H 0.65196 0.05888 0.09036 0.0
C2084 C 0.64087 0.03856 0.12072 0.0
C2085 C 0.64133 0.03353 0.14771 0.0
C2086 C 0.68664 0.09834 0.13676 0.0
C2087 C 0.66264 0.06834 0.12918 0.0
C2088 C 0.70404 0.10959 0.12878 0.0
C2089 C 0.71281 0.1062 0.10373 0.0
C2090 C 0.67789 0.08371 0.11955 0.0
C2091 C 0.70261 0.0926 0.0864 0.0
C2092 C 0.65155 0.05589 0.1114 0.0
C2093 C 0.65113 0.04739 0.16509 0.0
N2094 N 0.68584 0.08163 0.09477 0.0
N2095 N 0.66168 0.06403 0.15548 0.0
H2096 H 0.79086 0.59118 0.5651 0.0
H2097 H 0.87305 0.53525 0.61409 0.0
H2098 H 0.78498 0.61747 0.64321 0.0
H2099 H 0.83749 0.53947 0.68623 0.0
H2100 H 0.85413 0.56514 0.59682 0.0
H2101 H 0.82101 0.57158 0.57999 0.0
C2102 C 0.79621 0.59326 0.58517 0.0
C2103 C 0.78517 0.60577 0.60298 0.0
C2104 C 0.85057 0.55956 0.61647 0.0
C2105 C 0.81976 0.58342 0.62021 0.0
C2106 C 0.86146 0.54259 0.62648 0.0
C2107 C 0.85647 0.53446 0.65145 0.0
C2108 C 0.83458 0.56842 0.63153 0.0
C2109 C 0.84163 0.54495 0.66676 0.0
C2110 C 0.81357 0.58216 0.59365 0.0
C2111 C 0.79286 0.60783 0.62882 0.0
N2112 N 0.83102 0.56126 0.6564 0.0
N2113 N 0.80939 0.59637 0.63683 0.0
H2114 H 0.72085 0.61529 0.85585 0.0
H2115 H 0.62939 0.53759 0.89325 0.0
H2116 H 0.70443 0.59819 0.93559 0.0
H2117 H 0.65818 0.54121 0.81634 0.0
H2118 H 0.64903 0.5682 0.90687 0.0
H2119 H 0.6902 0.59693 0.83985 0.0
C2120 C 0.71063 0.60801 0.8701 0.0
C2121 C 0.71561 0.60771 0.89711 0.0
C2122 C 0.65073 0.5625 0.88687 0.0
C2123 C 0.68051 0.58671 0.8788 0.0
C2124 C 0.63951 0.54504 0.87902 0.0
C2125 C 0.64254 0.5365 0.85378 0.0
C2126 C 0.66499 0.57151 0.86935 0.0
C2127 C 0.65564 0.54702 0.83613 0.0
C2128 C 0.69315 0.5975 0.86089 0.0
C2129 C 0.70156 0.5983 0.91458 0.0
N2130 N 0.66664 0.56381 0.84439 0.0
N2131 N 0.6848 0.58788 0.90509 0.0
H2132 H 0.65164 0.45239 0.18861 0.0
H2133 H 0.71289 0.37433 0.14061 0.0
H2134 H 0.63607 0.46652 0.10773 0.0
H2135 H 0.71124 0.41053 0.06884 0.0
H2136 H 0.68169 0.39217 0.15573 0.0
H2137 H 0.67085 0.42215 0.17372 0.0
C2138 C 0.65192 0.44891 0.16775 0.0
C2139 C 0.64275 0.46238 0.1494 0.0
C2140 C 0.68814 0.39627 0.13671 0.0
C2141 C 0.66438 0.42732 0.13197 0.0
C2142 C 0.70586 0.38591 0.12791 0.0
C2143 C 0.7151 0.39144 0.10378 0.0
C2144 C 0.67979 0.41245 0.12141 0.0
C2145 C 0.70496 0.4061 0.08785 0.0
C2146 C 0.66271 0.43137 0.15918 0.0
C2147 C 0.6432 0.45677 0.1226 0.0
N2148 N 0.68805 0.41636 0.09717 0.0
N2149 N 0.65427 0.43994 0.11466 0.0
H2150 H 0.84858 0.45352 0.31977 0.0
H2151 H 0.7884 0.37431 0.36667 0.0
H2152 H 0.86286 0.46807 0.40093 0.0
H2153 H 0.78926 0.40992 0.43893 0.0
H2154 H 0.81931 0.39279 0.35192 0.0
H2155 H 0.83005 0.42279 0.33431 0.0
C2156 C 0.84817 0.45004 0.34063 0.0
C2157 C 0.85676 0.46376 0.35915 0.0
C2158 C 0.81275 0.39664 0.37096 0.0
C2159 C 0.83589 0.42812 0.37618 0.0
C2160 C 0.79519 0.3859 0.37955 0.0
C2161 C 0.7858 0.39106 0.40371 0.0
C2162 C 0.82076 0.41285 0.38649 0.0
C2163 C 0.79565 0.40577 0.41988 0.0
C2164 C 0.83776 0.43222 0.34901 0.0
C2165 C 0.85616 0.45814 0.38593 0.0
N2166 N 0.81239 0.41641 0.41076 0.0
N2167 N 0.84547 0.441 0.39367 0.0
H2168 H 0.2135 0.37922 0.3625 0.0
H2169 H 0.13185 0.46671 0.40158 0.0
H2170 H 0.20677 0.40498 0.44078 0.0
H2171 H 0.15175 0.45383 0.32184 0.0
H2172 H 0.15068 0.43603 0.4166 0.0
H2173 H 0.18261 0.39831 0.34864 0.0
C2174 C 0.20531 0.38854 0.37695 0.0
C2175 C 0.21306 0.39093 0.4027 0.0
C2176 C 0.15064 0.43976 0.39575 0.0
C2177 C 0.17773 0.41275 0.38688 0.0
C2178 C 0.13986 0.45726 0.38709 0.0
C2179 C 0.14079 0.46327 0.36045 0.0
C2180 C 0.16233 0.42815 0.37764 0.0
C2181 C 0.15115 0.45019 0.34263 0.0
C2182 C 0.18769 0.39945 0.36897 0.0
C2183 C 0.2016 0.40299 0.42062 0.0
N2184 N 0.1618 0.4334 0.35161 0.0
N2185 N 0.18467 0.41372 0.41225 0.0
H2186 H 0.2877 0.37519 0.14083 0.0
H2187 H 0.34894 0.45317 0.18897 0.0
H2188 H 0.28892 0.41173 0.06934 0.0
H2189 H 0.36395 0.46785 0.10806 0.0
H2190 H 0.32984 0.4229 0.17398 0.0
H2191 H 0.31892 0.39304 0.15585 0.0
C2192 C 0.29463 0.38685 0.12817 0.0
C2193 C 0.28527 0.39246 0.10416 0.0
C2194 C 0.33783 0.43225 0.15945 0.0
C2195 C 0.3206 0.41348 0.12167 0.0
C2196 C 0.34857 0.4498 0.16807 0.0
C2197 C 0.35754 0.46344 0.14975 0.0
C2198 C 0.33602 0.42835 0.13222 0.0
C2199 C 0.35698 0.45797 0.12292 0.0
C2200 C 0.31237 0.39721 0.13691 0.0
C2201 C 0.29529 0.40724 0.08827 0.0
N2202 N 0.34596 0.44112 0.11493 0.0
N2203 N 0.31222 0.41749 0.09753 0.0
H2204 H 0.37094 0.53903 0.89146 0.0
H2205 H 0.27911 0.61712 0.8571 0.0
H2206 H 0.34032 0.54261 0.81572 0.0
H2207 H 0.29538 0.59806 0.93618 0.0
H2208 H 0.30973 0.59908 0.84045 0.0
H2209 H 0.35148 0.56953 0.90589 0.0
C2210 C 0.36047 0.54645 0.87762 0.0
C2211 C 0.3569 0.53792 0.85248 0.0
C2212 C 0.30676 0.59917 0.86149 0.0
C2213 C 0.33472 0.57285 0.86896 0.0
C2214 C 0.2893 0.60948 0.87108 0.0
C2215 C 0.28428 0.60853 0.89806 0.0
C2216 C 0.31934 0.58793 0.87899 0.0
C2217 C 0.2983 0.5987 0.91519 0.0
C2218 C 0.34937 0.56385 0.88594 0.0
C2219 C 0.34335 0.54841 0.83537 0.0
N2220 N 0.31505 0.58849 0.90531 0.0
N2221 N 0.33252 0.56517 0.84406 0.0
H2222 H 0.20887 0.59533 0.5698 0.0
H2223 H 0.15984 0.54145 0.69282 0.0
H2224 H 0.21974 0.61703 0.64931 0.0
H2225 H 0.13367 0.53523 0.61472 0.0
H2226 H 0.17922 0.57178 0.67785 0.0
H2227 H 0.17864 0.57609 0.58557 0.0
C2228 C 0.20469 0.59639 0.59047 0.0
C2229 C 0.21714 0.60743 0.60835 0.0
C2230 C 0.16892 0.56403 0.66412 0.0
C2231 C 0.18279 0.5852 0.62658 0.0
C2232 C 0.15786 0.54666 0.67268 0.0
C2233 C 0.14541 0.53551 0.65491 0.0
C2234 C 0.16782 0.57003 0.6375 0.0
C2235 C 0.14333 0.54314 0.62905 0.0
C2236 C 0.1874 0.58541 0.59947 0.0
C2237 C 0.21082 0.60842 0.63487 0.0
N2238 N 0.15477 0.55967 0.62097 0.0
N2239 N 0.19434 0.59707 0.64328 0.0
H2240 H 0.23708 0.20091 0.02407 0.0
H2241 H 0.17396 0.30308 0.06017 0.0
H2242 H 0.17767 0.20157 0.06313 0.0
H2243 H 0.23527 0.30356 0.02619 0.0
H2244 H 0.17113 0.26597 0.05024 0.0
H2245 H 0.2329 0.23798 0.01375 0.0
C2246 C 0.22288 0.20879 0.02973 0.0
C2247 C 0.20777 0.19845 0.04465 0.0
C2248 C 0.18505 0.27421 0.04437 0.0
C2249 C 0.20298 0.24064 0.03345 0.0
C2250 C 0.18657 0.29539 0.04989 0.0
C2251 C 0.20491 0.30614 0.04413 0.0
C2252 C 0.20215 0.26371 0.03337 0.0
C2253 C 0.2209 0.29565 0.03094 0.0
C2254 C 0.22053 0.22992 0.02402 0.0
C2255 C 0.1897 0.20918 0.05173 0.0
N2256 N 0.21933 0.27486 0.02644 0.0
N2257 N 0.18793 0.22979 0.04642 0.0
H2258 H 0.94948 0.92675 0.31214 0.0
H2259 H 0.05421 0.98508 0.27574 0.0
H2260 H 0.95157 0.98748 0.27665 0.0
H2261 H 0.05118 0.92509 0.3132 0.0
H2262 H 0.01698 0.98271 0.26571 0.0
H2263 H 0.98644 0.92219 0.30235 0.0
C2264 C 0.9577 0.93885 0.30156 0.0
C2265 C 0.94772 0.95752 0.29525 0.0
C2266 C 0.02452 0.96984 0.27559 0.0
C2267 C 0.99 0.95282 0.28471 0.0
C2268 C 0.04576 0.97115 0.28115 0.0
C2269 C 0.05551 0.95536 0.29558 0.0
C2270 C 0.01308 0.95263 0.28468 0.0
C2271 C 0.04403 0.93766 0.30227 0.0
C2272 C 0.97879 0.93635 0.29611 0.0
C2273 C 0.95888 0.97287 0.28176 0.0
N2274 N 0.02333 0.93691 0.29716 0.0
N2275 N 0.97958 0.97036 0.27736 0.0
H2276 H 0.26303 0.69882 0.53059 0.0
H2277 H 0.32488 0.80333 0.56044 0.0
H2278 H 0.32468 0.70125 0.56343 0.0
H2279 H 0.26147 0.8017 0.53346 0.0
H2280 H 0.328 0.7661 0.55119 0.0
H2281 H 0.26505 0.73618 0.52107 0.0
C2282 C 0.2772 0.70718 0.53509 0.0
C2283 C 0.29363 0.69721 0.54804 0.0
C2284 C 0.3135 0.77391 0.54675 0.0
C2285 C 0.296 0.73975 0.5377 0.0
C2286 C 0.31179 0.79513 0.55191 0.0
C2287 C 0.29288 0.80536 0.54782 0.0
C2288 C 0.29605 0.76283 0.53775 0.0
C2289 C 0.2763 0.79422 0.53685 0.0
C2290 C 0.27832 0.72848 0.52984 0.0
C2291 C 0.31164 0.70857 0.55363 0.0
N2292 N 0.27815 0.77343 0.53259 0.0
N2293 N 0.31224 0.72932 0.54879 0.0
H2294 H 0.45044 0.01384 0.77385 0.0
H2295 H 0.55178 0.07768 0.81263 0.0
H2296 H 0.45017 0.0725 0.81471 0.0
H2297 H 0.55314 0.01632 0.7788 0.0
H2298 H 0.51466 0.08003 0.80251 0.0
H2299 H 0.48765 0.01839 0.76461 0.0
C2300 C 0.45815 0.02797 0.78011 0.0
C2301 C 0.44749 0.04277 0.79517 0.0
C2302 C 0.5231 0.06619 0.79677 0.0
C2303 C 0.48982 0.04796 0.78523 0.0
C2304 C 0.54427 0.06492 0.80245 0.0
C2305 C 0.55527 0.04671 0.79678 0.0
C2306 C 0.51287 0.04898 0.78563 0.0
C2307 C 0.54502 0.03058 0.78354 0.0
C2308 C 0.47936 0.03052 0.77504 0.0
C2309 C 0.45802 0.06074 0.80312 0.0
N2310 N 0.52426 0.03192 0.77883 0.0
N2311 N 0.47869 0.06271 0.79838 0.0
H2312 H 0.2414 0.80136 0.97514 0.0
H2313 H 0.17594 0.69798 0.95212 0.0
H2314 H 0.17749 0.80016 0.95009 0.0
H2315 H 0.24084 0.69842 0.97267 0.0
H2316 H 0.17413 0.73527 0.96147 0.0
H2317 H 0.23948 0.76397 0.98452 0.0
C2318 C 0.22681 0.79326 0.97235 0.0
C2319 C 0.20961 0.8036 0.96171 0.0
C2320 C 0.1887 0.7272 0.96448 0.0
C2321 C 0.20733 0.76102 0.97181 0.0
C2322 C 0.18967 0.70594 0.95926 0.0
C2323 C 0.20857 0.69535 0.96155 0.0
C2324 C 0.20686 0.73794 0.97169 0.0
C2325 C 0.22599 0.70619 0.97073 0.0
C2326 C 0.22573 0.77194 0.97752 0.0
C2327 C 0.19108 0.79256 0.95818 0.0
N2328 N 0.22482 0.72701 0.97509 0.0
N2329 N 0.1905 0.77178 0.96287 0.0
H2330 H 0.55016 0.92639 0.20131 0.0
H2331 H 0.44677 0.99165 0.22453 0.0
H2332 H 0.5497 0.99122 0.22234 0.0
H2333 H 0.44798 0.92739 0.20088 0.0
H2334 H 0.48418 0.98992 0.2337 0.0
H2335 H 0.51292 0.92448 0.21089 0.0
C2336 C 0.54221 0.94008 0.20861 0.0
C2337 C 0.55278 0.95899 0.21098 0.0
C2338 C 0.47621 0.97605 0.22706 0.0
C2339 C 0.51023 0.95718 0.22136 0.0
C2340 C 0.45488 0.97702 0.22203 0.0
C2341 C 0.44452 0.95966 0.21183 0.0
C2342 C 0.48715 0.9576 0.22166 0.0
C2343 C 0.45559 0.94111 0.20864 0.0
C2344 C 0.52097 0.93906 0.21396 0.0
C2345 C 0.54195 0.97636 0.22034 0.0
N2346 N 0.47638 0.94063 0.21317 0.0
N2347 N 0.52114 0.97514 0.2248 0.0
H2348 H 0.32311 0.19659 0.45016 0.0
H2349 H 0.26093 0.30087 0.48046 0.0
H2350 H 0.25962 0.19804 0.47685 0.0
H2351 H 0.32188 0.29849 0.44555 0.0
H2352 H 0.26337 0.26358 0.49036 0.0
H2353 H 0.32613 0.2338 0.45956 0.0
C2354 C 0.31 0.20474 0.45869 0.0
C2355 C 0.29108 0.19447 0.46263 0.0
C2356 C 0.27641 0.27129 0.48107 0.0
C2357 C 0.29413 0.23698 0.47284 0.0
C2358 C 0.27506 0.29254 0.47562 0.0
C2359 C 0.29117 0.3025 0.46201 0.0
C2360 C 0.29399 0.26006 0.47276 0.0
C2361 C 0.30912 0.29119 0.45594 0.0
C2362 C 0.31164 0.22595 0.46392 0.0
C2363 C 0.27446 0.20555 0.47358 0.0
N2364 N 0.30994 0.27048 0.46101 0.0
N2365 N 0.27624 0.22634 0.47791 0.0
H2366 H 0.0502 0.00774 0.72582 0.0
H2367 H 0.94721 0.07393 0.70252 0.0
H2368 H 0.04937 0.07124 0.69905 0.0
H2369 H 0.94727 0.00898 0.72292 0.0
H2370 H 0.98455 0.07545 0.71161 0.0
H2371 H 0.01284 0.01005 0.73518 0.0
C2372 C 0.04218 0.02233 0.72263 0.0
C2373 C 0.05264 0.0393 0.71157 0.0
C2374 C 0.97638 0.06094 0.71466 0.0
C2375 C 0.01009 0.04202 0.72167 0.0
C2376 C 0.95509 0.06014 0.70961 0.0
C2377 C 0.94437 0.04131 0.71192 0.0
C2378 C 0.98702 0.04268 0.72174 0.0
C2379 C 0.95512 0.02379 0.72099 0.0
C2380 C 0.02088 0.02363 0.72779 0.0
C2381 C 0.04169 0.05782 0.7075 0.0
N2382 N 0.97597 0.0248 0.72519 0.0
N2383 N 0.02094 0.05862 0.71223 0.0
H2384 H 0.82073 0.8016 0.94964 0.0
H2385 H 0.7578 0.69714 0.97376 0.0
H2386 H 0.75672 0.80008 0.97421 0.0
H2387 H 0.82198 0.69941 0.94996 0.0
H2388 H 0.75898 0.73452 0.98325 0.0
H2389 H 0.82356 0.76437 0.95893 0.0
C2390 C 0.80745 0.79343 0.9577 0.0
C2391 C 0.78847 0.80369 0.96115 0.0
C2392 C 0.77296 0.72679 0.9765 0.0
C2393 C 0.79129 0.76113 0.9711 0.0
C2394 C 0.77229 0.70548 0.97125 0.0
C2395 C 0.78979 0.69541 0.96094 0.0
C2396 C 0.79122 0.73803 0.97114 0.0
C2397 C 0.80816 0.70678 0.95777 0.0
C2398 C 0.80899 0.77219 0.96286 0.0
C2399 C 0.77161 0.79257 0.97139 0.0
N2400 N 0.80833 0.72756 0.96248 0.0
N2401 N 0.77329 0.77176 0.97561 0.0
H2402 H 0.67448 0.19697 0.44941 0.0
H2403 H 0.7369 0.30105 0.48024 0.0
H2404 H 0.73795 0.19817 0.47616 0.0
H2405 H 0.67634 0.29886 0.44428 0.0
H2406 H 0.73428 0.26376 0.49004 0.0
H2407 H 0.6716 0.2342 0.45878 0.0
C2408 C 0.68762 0.20507 0.45796 0.0
C2409 C 0.7065 0.19473 0.46189 0.0
C2410 C 0.72136 0.27151 0.48053 0.0
C2411 C 0.70359 0.23725 0.47208 0.0
C2412 C 0.72281 0.29277 0.47513 0.0
C2413 C 0.70688 0.30278 0.46127 0.0
C2414 C 0.70383 0.26033 0.47194 0.0
C2415 C 0.68898 0.29151 0.45486 0.0
C2416 C 0.68605 0.2263 0.46316 0.0
C2417 C 0.72315 0.20574 0.47288 0.0
N2418 N 0.68804 0.27081 0.45992 0.0
N2419 N 0.72144 0.22654 0.47719 0.0
H2420 H 0.76169 0.19993 0.02528 0.0
H2421 H 0.82631 0.30136 0.0608 0.0
H2422 H 0.82121 0.19983 0.06407 0.0
H2423 H 0.76478 0.30259 0.02751 0.0
H2424 H 0.82854 0.26416 0.05108 0.0
H2425 H 0.76625 0.23699 0.01511 0.0
C2426 C 0.77598 0.20765 0.03093 0.0
C2427 C 0.79104 0.1971 0.04568 0.0
C2428 C 0.8147 0.27259 0.04534 0.0
C2429 C 0.79626 0.23925 0.03465 0.0
C2430 C 0.81351 0.2938 0.05076 0.0
C2431 C 0.79528 0.30479 0.04513 0.0
C2432 C 0.79739 0.2623 0.03455 0.0
C2433 C 0.77906 0.29448 0.03218 0.0
C2434 C 0.77855 0.22877 0.0253 0.0
C2435 C 0.80923 0.20762 0.05277 0.0
N2436 N 0.78032 0.27367 0.02776 0.0
N2437 N 0.81121 0.22821 0.04753 0.0
H2438 H 0.67664 0.80196 0.56032 0.0
H2439 H 0.73768 0.69906 0.523 0.0
H2440 H 0.7372 0.80165 0.52427 0.0
H2441 H 0.67819 0.70051 0.56181 0.0
H2442 H 0.73401 0.73616 0.51264 0.0
H2443 H 0.67296 0.76497 0.55013 0.0
C2444 C 0.68888 0.79413 0.54951 0.0
C2445 C 0.70726 0.8046 0.5432 0.0
C2446 C 0.72151 0.72828 0.52286 0.0
C2447 C 0.7036 0.7623 0.53223 0.0
C2448 C 0.72358 0.70712 0.52861 0.0
C2449 C 0.70829 0.697 0.54347 0.0
C2450 C 0.70408 0.73923 0.53223 0.0
C2451 C 0.69035 0.70797 0.55047 0.0
C2452 C 0.68689 0.77302 0.54384 0.0
C2453 C 0.7228 0.79394 0.52941 0.0
N2454 N 0.68887 0.72859 0.54516 0.0
N2455 N 0.72081 0.7732 0.52482 0.0
H2456 H 0.55106 0.42671 0.80974 0.0
H2457 H 0.44883 0.48899 0.77282 0.0
H2458 H 0.55136 0.4876 0.77457 0.0
H2459 H 0.44966 0.42927 0.81112 0.0
H2460 H 0.4859 0.48501 0.7625 0.0
H2461 H 0.51408 0.42344 0.79936 0.0
C2462 C 0.54336 0.43912 0.79909 0.0
C2463 C 0.554 0.45747 0.79309 0.0
C2464 C 0.47788 0.47254 0.77259 0.0
C2465 C 0.51171 0.45426 0.7819 0.0
C2466 C 0.45675 0.47477 0.77831 0.0
C2467 C 0.44646 0.4595 0.79301 0.0
C2468 C 0.48866 0.45495 0.78184 0.0
C2469 C 0.45724 0.44141 0.79989 0.0
C2470 C 0.52226 0.43736 0.79332 0.0
C2471 C 0.54351 0.47322 0.77948 0.0
N2472 N 0.47785 0.43977 0.79461 0.0
N2473 N 0.52278 0.47145 0.77478 0.0
H2474 H 0.04982 0.50687 0.28297 0.0
H2475 H 0.94729 0.57245 0.30978 0.0
H2476 H 0.04935 0.57052 0.30918 0.0
H2477 H 0.94707 0.50822 0.28596 0.0
H2478 H 0.98446 0.57434 0.29973 0.0
H2479 H 0.01244 0.50929 0.27382 0.0
C2480 C 0.04189 0.52154 0.28598 0.0
C2481 C 0.05244 0.53851 0.2969 0.0
C2482 C 0.97627 0.55991 0.29617 0.0
C2483 C 0.00986 0.54132 0.28719 0.0
C2484 C 0.95508 0.5589 0.30181 0.0
C2485 C 0.94435 0.54015 0.29879 0.0
C2486 C 0.98679 0.54193 0.2878 0.0
C2487 C 0.95495 0.52295 0.28851 0.0
C2488 C 0.02058 0.5229 0.28097 0.0
C2489 C 0.04161 0.55712 0.30079 0.0
N2490 N 0.97572 0.52414 0.28377 0.0
N2491 N 0.02082 0.55795 0.29631 0.0
H2492 H 0.05193 0.42848 0.70293 0.0
H2493 H 0.94824 0.49083 0.73278 0.0
H2494 H 0.05088 0.49131 0.73208 0.0
H2495 H 0.95033 0.42875 0.70121 0.0
H2496 H 0.98539 0.48838 0.74338 0.0
H2497 H 0.01489 0.42523 0.71304 0.0
C2498 C 0.04392 0.44137 0.71223 0.0
C2499 C 0.05422 0.46018 0.71667 0.0
C2500 C 0.97765 0.47509 0.73472 0.0
C2501 C 0.01186 0.45694 0.72749 0.0
C2502 C 0.95646 0.47647 0.72886 0.0
C2503 C 0.94649 0.46002 0.71596 0.0
C2504 C 0.98879 0.45717 0.72742 0.0
C2505 C 0.95766 0.44177 0.71104 0.0
C2506 C 0.02279 0.4396 0.71784 0.0
C2507 C 0.04332 0.47655 0.72846 0.0
N2508 N 0.97831 0.44094 0.7164 0.0
N2509 N 0.02257 0.47471 0.73304 0.0
H2510 H 0.44793 0.50646 0.2247 0.0
H2511 H 0.55168 0.57061 0.19989 0.0
H2512 H 0.44949 0.57043 0.19989 0.0
H2513 H 0.55084 0.50629 0.22323 0.0
H2514 H 0.51445 0.57297 0.20941 0.0
H2515 H 0.48534 0.50808 0.23388 0.0
C2516 C 0.45612 0.52101 0.22193 0.0
C2517 C 0.44585 0.53832 0.21145 0.0
C2518 C 0.52242 0.55842 0.213 0.0
C2519 C 0.48849 0.54025 0.22126 0.0
C2520 C 0.54365 0.55715 0.2077 0.0
C2521 C 0.55411 0.53824 0.21074 0.0
C2522 C 0.51157 0.54053 0.22101 0.0
C2523 C 0.54318 0.52114 0.22071 0.0
C2524 C 0.47745 0.52192 0.22698 0.0
C2525 C 0.45702 0.55676 0.2079 0.0
N2526 N 0.52238 0.52259 0.22511 0.0
N2527 N 0.47782 0.55717 0.21243 0.0
loop_
_geom_bond_atom_site_label_1
_geom_bond_atom_site_label_2
_geom_bond_distance
_geom_bond_site_symmetry_2
_ccdc_geom_bond_type
Co0 O3 1.970 . S
Co0 N17 1.989 . S
Co0 O25 1.967 . S
Co0 O32 1.920 . S
Co1 O4 1.966 . S
Co1 N10 2.022 . S
Co1 N18 1.993 . S
Co1 O26 1.941 . S
C2 O3 1.258 . S
C2 O4 1.263 . S
O3 Co0 1.970 . S
O3 C2 1.258 . S
O4 Co1 1.966 . S
O4 C2 1.263 . S
C5 O6 1.235 . S
C5 O32 1.289 . S
O6 C5 1.235 . S
C7 C9 1.400 1_554 S
C7 N10 1.351 . S
C7 C12 1.501 . S
C8 C9 1.387 . S
C8 N11 1.341 1_556 S
C9 C7 1.400 1_556 S
C9 C8 1.387 . S
N10 Co1 2.022 . S
N10 C7 1.351 . S
N10 N11 1.365 . S
N11 C8 1.341 1_554 S
N11 N10 1.365 . S
N11 H31 0.862 . S
C12 C7 1.501 . S
C12 H13 0.961 . S
C12 H14 0.961 . S
C12 H15 0.960 . S
H13 C12 0.961 . S
H14 C12 0.961 . S
H15 C12 0.960 . S
C16 N17 1.342 . S
C16 C20 1.401 . S
C16 C21 1.499 . S
N17 Co0 1.989 . S
N17 C16 1.342 . S
N17 N18 1.388 . S
N18 Co1 1.993 . S
N18 N17 1.388 . S
N18 C19 1.346 . S
C19 N18 1.346 . S
C19 C20 1.396 . S
C19 C29 1.510 . S
C20 C16 1.401 . S
C20 C19 1.396 . S
C21 C16 1.499 . S
C21 H22 0.959 . S
C21 H23 0.960 . S
C21 H24 0.961 . S
H22 C21 0.959 . S
H23 C21 0.960 . S
H24 C21 0.961 . S
O25 Co0 1.967 . S
O25 C33 1.258 . S
O26 Co1 1.941 . S
O26 C33 1.266 . S
H27 C29 0.959 . S
H28 C29 0.961 . S
C29 C19 1.510 . S
C29 H27 0.959 . S
C29 H28 0.961 . S
C29 H30 0.960 . S
H30 C29 0.960 . S
H31 N11 0.862 . S
O32 Co0 1.920 . S
O32 C5 1.289 . S
C33 O25 1.258 . S
C33 O26 1.266 . S
Co34 O37 1.970 1_565 S
Co34 N51 1.989 . S
Co34 O59 1.967 . S
Co34 O66 1.920 . S
Co35 O38 1.966 . S
Co35 N44 2.022 . S
Co35 N52 1.993 . S
Co35 O60 1.941 . S
C36 O37 1.258 . S
C36 O38 1.263 1_545 S
O37 Co34 1.970 1_545 S
O37 C36 1.258 . S
O38 Co35 1.966 . S
O38 C36 1.263 1_565 S
C39 O40 1.235 1_565 S
C39 O66 1.289 . S
O40 C39 1.235 1_545 S
C41 C43 1.400 . S
C41 N44 1.351 . S
C41 C46 1.501 1_565 S
C42 C43 1.387 . S
C42 N45 1.341 . S
C43 C41 1.400 . S
C43 C42 1.387 . S
N44 Co35 2.022 . S
N44 C41 1.351 . S
N44 N45 1.365 . S
N45 C42 1.341 . S
N45 N44 1.365 . S
N45 H65 0.862 . S
C46 C41 1.501 1_545 S
C46 H47 0.961 . S
C46 H48 0.961 . S
C46 H49 0.960 . S
H47 C46 0.961 . S
H48 C46 0.961 . S
H49 C46 0.960 . S
C50 N51 1.342 . S
C50 C54 1.401 . S
C50 C55 1.499 . S
N51 Co34 1.989 . S
N51 C50 1.342 . S
N51 N52 1.388 . S
N52 Co35 1.993 . S
N52 N51 1.388 . S
N52 C53 1.346 . S
C53 N52 1.346 . S
C53 C54 1.396 . S
C53 C63 1.510 . S
C54 C50 1.401 . S
C54 C53 1.396 . S
C55 C50 1.499 . S
C55 H56 0.959 . S
C55 H57 0.960 . S
C55 H58 0.961 . S
H56 C55 0.959 . S
H57 C55 0.960 . S
H58 C55 0.961 . S
O59 Co34 1.967 . S
O59 C67 1.258 . S
O60 Co35 1.941 . S
O60 C67 1.266 . S
H61 C63 0.959 . S
H62 C63 0.961 . S
C63 C53 1.510 . S
C63 H61 0.959 . S
C63 H62 0.961 . S
C63 H64 0.960 . S
H64 C63 0.960 . S
H65 N45 0.862 . S
O66 Co34 1.920 . S
O66 C39 1.289 . S
C67 O59 1.258 . S
C67 O60 1.266 . S
Co68 O71 1.970 . S
Co68 N85 1.989 . S
Co68 O93 1.967 . S
Co68 O100 1.920 . S
Co69 O72 1.966 . S
Co69 N78 2.022 . S
Co69 N86 1.993 . S
Co69 O94 1.941 . S
C70 O71 1.258 . S
C70 O72 1.263 . S
O71 Co68 1.970 . S
O71 C70 1.258 . S
O72 Co69 1.966 . S
O72 C70 1.263 . S
C73 O74 1.235 . S
C73 O100 1.289 . S
O74 C73 1.235 . S
C75 C77 1.400 . S
C75 N78 1.351 . S
C75 C80 1.501 . S
C76 C77 1.387 . S
C76 N79 1.341 . S
C77 C75 1.400 . S
C77 C76 1.387 . S
N78 Co69 2.022 . S
N78 C75 1.351 . S
N78 N79 1.365 . S
N79 C76 1.341 . S
N79 N78 1.365 . S
N79 H99 0.862 . S
C80 C75 1.501 . S
C80 H81 0.961 . S
C80 H82 0.961 . S
C80 H83 0.960 . S
H81 C80 0.961 . S
H82 C80 0.961 . S
H83 C80 0.960 . S
C84 N85 1.342 . S
C84 C88 1.401 . S
C84 C89 1.499 . S
N85 Co68 1.989 . S
N85 C84 1.342 . S
N85 N86 1.388 . S
N86 Co69 1.993 . S
N86 N85 1.388 . S
N86 C87 1.346 . S
C87 N86 1.346 . S
C87 C88 1.396 . S
C87 C97 1.510 . S
C88 C84 1.401 . S
C88 C87 1.396 . S
C89 C84 1.499 . S
C89 H90 0.959 . S
C89 H91 0.960 . S
C89 H92 0.961 . S
H90 C89 0.959 . S
H91 C89 0.960 . S
H92 C89 0.961 . S
O93 Co68 1.967 . S
O93 C101 1.258 . S
O94 Co69 1.941 . S
O94 C101 1.266 . S
H95 C97 0.959 . S
H96 C97 0.961 . S
C97 C87 1.510 . S
C97 H95 0.959 . S
C97 H96 0.961 . S
C97 H98 0.960 . S
H98 C97 0.960 . S
H99 N79 0.862 . S
O100 Co68 1.920 . S
O100 C73 1.289 . S
C101 O93 1.258 . S
C101 O94 1.266 . S
Co102 O105 1.970 1_545 S
Co102 N119 1.989 . S
Co102 O127 1.967 . S
Co102 O134 1.920 . S
Co103 O106 1.966 . S
Co103 N112 2.022 . S
Co103 N120 1.993 . S
Co103 O128 1.941 . S
C104 O105 1.258 . S
C104 O106 1.263 1_565 S
O105 Co102 1.970 1_565 S
O105 C104 1.258 . S
O106 Co103 1.966 . S
O106 C104 1.263 1_545 S
C107 O108 1.235 1_545 S
C107 O134 1.289 . S
O108 C107 1.235 1_565 S
C109 C111 1.400 . S
C109 N112 1.351 . S
C109 C114 1.501 1_545 S
C110 C111 1.387 . S
C110 N113 1.341 . S
C111 C109 1.400 . S
C111 C110 1.387 . S
N112 Co103 2.022 . S
N112 C109 1.351 . S
N112 N113 1.365 . S
N113 C110 1.341 . S
N113 N112 1.365 . S
N113 H133 0.862 . S
C114 C109 1.501 1_565 S
C114 H115 0.961 . S
C114 H116 0.961 . S
C114 H117 0.960 . S
H115 C114 0.961 . S
H116 C114 0.961 . S
H117 C114 0.960 . S
C118 N119 1.342 . S
C118 C122 1.401 . S
C118 C123 1.499 . S
N119 Co102 1.989 . S
N119 C118 1.342 . S
N119 N120 1.388 . S
N120 Co103 1.993 . S
N120 N119 1.388 . S
N120 C121 1.346 . S
C121 N120 1.346 . S
C121 C122 1.396 . S
C121 C131 1.510 . S
C122 C118 1.401 . S
C122 C121 1.396 . S
C123 C118 1.499 . S
C123 H124 0.959 . S
C123 H125 0.960 . S
C123 H126 0.961 . S
H124 C123 0.959 . S
H125 C123 0.960 . S
H126 C123 0.961 . S
O127 Co102 1.967 . S
O127 C135 1.258 . S
O128 Co103 1.941 . S
O128 C135 1.266 . S
H129 C131 0.959 . S
H130 C131 0.961 . S
C131 C121 1.510 . S
C131 H129 0.959 . S
C131 H130 0.961 . S
C131 H132 0.960 . S
H132 C131 0.960 . S
H133 N113 0.862 . S
O134 Co102 1.920 . S
O134 C107 1.289 . S
C135 O127 1.258 . S
C135 O128 1.266 . S
Co136 O139 1.970 . S
Co136 N153 1.989 . S
Co136 O161 1.967 . S
Co136 O168 1.920 . S
Co137 O140 1.966 . S
Co137 N146 2.022 . S
Co137 N154 1.993 . S
Co137 O162 1.941 . S
C138 O139 1.258 . S
C138 O140 1.263 . S
O139 Co136 1.970 . S
O139 C138 1.258 . S
O140 Co137 1.966 . S
O140 C138 1.263 . S
C141 O142 1.235 . S
C141 O168 1.289 . S
O142 C141 1.235 . S
C143 C145 1.400 1_556 S
C143 N146 1.351 . S
C143 C148 1.501 . S
C144 C145 1.387 . S
C144 N147 1.341 1_554 S
C145 C143 1.400 1_554 S
C145 C144 1.387 . S
N146 Co137 2.022 . S
N146 C143 1.351 . S
N146 N147 1.365 . S
N147 C144 1.341 1_556 S
N147 N146 1.365 . S
N147 H167 0.862 . S
C148 C143 1.501 . S
C148 H149 0.961 . S
C148 H150 0.961 . S
C148 H151 0.960 . S
H149 C148 0.961 . S
H150 C148 0.961 . S
H151 C148 0.960 . S
C152 N153 1.342 . S
C152 C156 1.401 . S
C152 C157 1.499 . S
N153 Co136 1.989 . S
N153 C152 1.342 . S
N153 N154 1.388 . S
N154 Co137 1.993 . S
N154 N153 1.388 . S
N154 C155 1.346 . S
C155 N154 1.346 . S
C155 C156 1.396 . S
C155 C165 1.510 . S
C156 C152 1.401 . S
C156 C155 1.396 . S
C157 C152 1.499 . S
C157 H158 0.959 . S
C157 H159 0.960 . S
C157 H160 0.961 . S
H158 C157 0.959 . S
H159 C157 0.960 . S
H160 C157 0.961 . S
O161 Co136 1.967 . S
O161 C169 1.258 . S
O162 Co137 1.941 . S
O162 C169 1.266 . S
H163 C165 0.959 . S
H164 C165 0.961 . S
C165 C155 1.510 . S
C165 H163 0.959 . S
C165 H164 0.961 . S
C165 H166 0.960 . S
H166 C165 0.960 . S
H167 N147 0.862 . S
O168 Co136 1.920 . S
O168 C141 1.289 . S
C169 O161 1.258 . S
C169 O162 1.266 . S
Co170 O173 1.970 1_565 S
Co170 N187 1.989 . S
Co170 O195 1.967 . S
Co170 O202 1.920 . S
Co171 O174 1.966 . S
Co171 N180 2.022 . S
Co171 N188 1.993 . S
Co171 O196 1.941 . S
C172 O173 1.258 . S
C172 O174 1.263 1_545 S
O173 Co170 1.970 1_545 S
O173 C172 1.258 . S
O174 Co171 1.966 . S
O174 C172 1.263 1_565 S
C175 O176 1.235 1_565 S
C175 O202 1.289 . S
O176 C175 1.235 1_545 S
C177 C179 1.400 . S
C177 N180 1.351 . S
C177 C182 1.501 1_565 S
C178 C179 1.387 . S
C178 N181 1.341 . S
C179 C177 1.400 . S
C179 C178 1.387 . S
N180 Co171 2.022 . S
N180 C177 1.351 . S
N180 N181 1.365 . S
N181 C178 1.341 . S
N181 N180 1.365 . S
N181 H201 0.862 . S
C182 C177 1.501 1_545 S
C182 H183 0.961 . S
C182 H184 0.961 . S
C182 H185 0.960 . S
H183 C182 0.961 . S
H184 C182 0.961 . S
H185 C182 0.960 . S
C186 N187 1.342 . S
C186 C190 1.401 . S
C186 C191 1.499 . S
N187 Co170 1.989 . S
N187 C186 1.342 . S
N187 N188 1.388 . S
N188 Co171 1.993 . S
N188 N187 1.388 . S
N188 C189 1.346 . S
C189 N188 1.346 . S
C189 C190 1.396 . S
C189 C199 1.510 . S
C190 C186 1.401 . S
C190 C189 1.396 . S
C191 C186 1.499 . S
C191 H192 0.959 . S
C191 H193 0.960 . S
C191 H194 0.961 . S
H192 C191 0.959 . S
H193 C191 0.960 . S
H194 C191 0.961 . S
O195 Co170 1.967 . S
O195 C203 1.258 . S
O196 Co171 1.941 . S
O196 C203 1.266 . S
H197 C199 0.959 . S
H198 C199 0.961 . S
C199 C189 1.510 . S
C199 H197 0.959 . S
C199 H198 0.961 . S
C199 H200 0.960 . S
H200 C199 0.960 . S
H201 N181 0.862 . S
O202 Co170 1.920 . S
O202 C175 1.289 . S
C203 O195 1.258 . S
C203 O196 1.266 . S
Co204 O207 1.970 . S
Co204 N221 1.989 . S
Co204 O229 1.967 . S
Co204 O236 1.920 . S
Co205 O208 1.966 . S
Co205 N214 2.022 . S
Co205 N222 1.993 . S
Co205 O230 1.941 . S
C206 O207 1.258 . S
C206 O208 1.263 . S
O207 Co204 1.970 . S
O207 C206 1.258 . S
O208 Co205 1.966 . S
O208 C206 1.263 . S
C209 O210 1.235 . S
C209 O236 1.289 . S
O210 C209 1.235 . S
C211 C213 1.400 . S
C211 N214 1.351 . S
C211 C216 1.501 . S
C212 C213 1.387 . S
C212 N215 1.341 . S
C213 C211 1.400 . S
C213 C212 1.387 . S
N214 Co205 2.022 . S
N214 C211 1.351 . S
N214 N215 1.365 . S
N215 C212 1.341 . S
N215 N214 1.365 . S
N215 H235 0.862 . S
C216 C211 1.501 . S
C216 H217 0.961 . S
C216 H218 0.961 . S
C216 H219 0.960 . S
H217 C216 0.961 . S
H218 C216 0.961 . S
H219 C216 0.960 . S
C220 N221 1.342 . S
C220 C224 1.401 . S
C220 C225 1.499 . S
N221 Co204 1.989 . S
N221 C220 1.342 . S
N221 N222 1.388 . S
N222 Co205 1.993 . S
N222 N221 1.388 . S
N222 C223 1.346 . S
C223 N222 1.346 . S
C223 C224 1.396 . S
C223 C233 1.510 . S
C224 C220 1.401 . S
C224 C223 1.396 . S
C225 C220 1.499 . S
C225 H226 0.959 . S
C225 H227 0.960 . S
C225 H228 0.961 . S
H226 C225 0.959 . S
H227 C225 0.960 . S
H228 C225 0.961 . S
O229 Co204 1.967 . S
O229 C237 1.258 . S
O230 Co205 1.941 . S
O230 C237 1.266 . S
H231 C233 0.959 . S
H232 C233 0.961 . S
C233 C223 1.510 . S
C233 H231 0.959 . S
C233 H232 0.961 . S
C233 H234 0.960 . S
H234 C233 0.960 . S
H235 N215 0.862 . S
O236 Co204 1.920 . S
O236 C209 1.289 . S
C237 O229 1.258 . S
C237 O230 1.266 . S
Co238 O241 1.970 1_545 S
Co238 N255 1.989 . S
Co238 O263 1.967 . S
Co238 O270 1.920 . S
Co239 O242 1.966 . S
Co239 N248 2.022 . S
Co239 N256 1.993 . S
Co239 O264 1.941 . S
C240 O241 1.258 . S
C240 O242 1.263 1_565 S
O241 Co238 1.970 1_565 S
O241 C240 1.258 . S
O242 Co239 1.966 . S
O242 C240 1.263 1_545 S
C243 O244 1.235 1_545 S
C243 O270 1.289 . S
O244 C243 1.235 1_565 S
C245 C247 1.400 . S
C245 N248 1.351 . S
C245 C250 1.501 1_545 S
C246 C247 1.387 . S
C246 N249 1.341 . S
C247 C245 1.400 . S
C247 C246 1.387 . S
N248 Co239 2.022 . S
N248 C245 1.351 . S
N248 N249 1.365 . S
N249 C246 1.341 . S
N249 N248 1.365 . S
N249 H269 0.862 . S
C250 C245 1.501 1_565 S
C250 H251 0.961 . S
C250 H252 0.961 . S
C250 H253 0.960 . S
H251 C250 0.961 . S
H252 C250 0.961 . S
H253 C250 0.960 . S
C254 N255 1.342 . S
C254 C258 1.401 . S
C254 C259 1.499 . S
N255 Co238 1.989 . S
N255 C254 1.342 . S
N255 N256 1.388 . S
N256 Co239 1.993 . S
N256 N255 1.388 . S
N256 C257 1.346 . S
C257 N256 1.346 . S
C257 C258 1.396 . S
C257 C267 1.510 . S
C258 C254 1.401 . S
C258 C257 1.396 . S
C259 C254 1.499 . S
C259 H260 0.959 . S
C259 H261 0.960 . S
C259 H262 0.961 . S
H260 C259 0.959 . S
H261 C259 0.960 . S
H262 C259 0.961 . S
O263 Co238 1.967 . S
O263 C271 1.258 . S
O264 Co239 1.941 . S
O264 C271 1.266 . S
H265 C267 0.959 . S
H266 C267 0.961 . S
C267 C257 1.510 . S
C267 H265 0.959 . S
C267 H266 0.961 . S
C267 H268 0.960 . S
H268 C267 0.960 . S
H269 N249 0.862 . S
O270 Co238 1.920 . S
O270 C243 1.289 . S
C271 O263 1.258 . S
C271 O264 1.266 . S
Co272 O275 1.970 . S
Co272 N289 1.989 . S
Co272 O297 1.967 . S
Co272 O304 1.920 . S
Co273 O276 1.966 . S
Co273 N282 2.022 . S
Co273 N290 1.993 . S
Co273 O298 1.941 . S
C274 O275 1.258 . S
C274 O276 1.263 . S
O275 Co272 1.970 . S
O275 C274 1.258 . S
O276 Co273 1.966 . S
O276 C274 1.263 . S
C277 O278 1.235 . S
C277 O304 1.289 . S
O278 C277 1.235 . S
C279 C281 1.400 1_556 S
C279 N282 1.351 . S
C279 C284 1.501 . S
C280 C281 1.387 . S
C280 N283 1.341 1_554 S
C281 C279 1.400 1_554 S
C281 C280 1.387 . S
N282 Co273 2.022 . S
N282 C279 1.351 . S
N282 N283 1.365 . S
N283 C280 1.341 1_556 S
N283 N282 1.365 . S
N283 H303 0.862 . S
C284 C279 1.501 . S
C284 H285 0.961 . S
C284 H286 0.961 . S
C284 H287 0.960 . S
H285 C284 0.961 . S
H286 C284 0.961 . S
H287 C284 0.960 . S
C288 N289 1.342 . S
C288 C292 1.401 . S
C288 C293 1.499 . S
N289 Co272 1.989 . S
N289 C288 1.342 . S
N289 N290 1.388 . S
N290 Co273 1.993 . S
N290 N289 1.388 . S
N290 C291 1.346 . S
C291 N290 1.346 . S
C291 C292 1.396 . S
C291 C301 1.510 . S
C292 C288 1.401 . S
C292 C291 1.396 . S
C293 C288 1.499 . S
C293 H294 0.959 . S
C293 H295 0.960 . S
C293 H296 0.961 . S
H294 C293 0.959 . S
H295 C293 0.960 . S
H296 C293 0.961 . S
O297 Co272 1.967 . S
O297 C305 1.258 . S
O298 Co273 1.941 . S
O298 C305 1.266 . S
H299 C301 0.959 . S
H300 C301 0.961 . S
C301 C291 1.510 . S
C301 H299 0.959 . S
C301 H300 0.961 . S
C301 H302 0.960 . S
H302 C301 0.960 . S
H303 N283 0.862 . S
O304 Co272 1.920 . S
O304 C277 1.289 . S
C305 O297 1.258 . S
C305 O298 1.266 . S
Co306 O309 1.970 1_545 S
Co306 N323 1.989 . S
Co306 O331 1.967 . S
Co306 O338 1.920 . S
Co307 O310 1.966 . S
Co307 N316 2.022 . S
Co307 N324 1.993 . S
Co307 O332 1.941 . S
C308 O309 1.258 . S
C308 O310 1.263 1_565 S
O309 Co306 1.970 1_565 S
O309 C308 1.258 . S
O310 Co307 1.966 . S
O310 C308 1.263 1_545 S
C311 O312 1.235 1_545 S
C311 O338 1.289 . S
O312 C311 1.235 1_565 S
C313 C315 1.400 . S
C313 N316 1.351 . S
C313 C318 1.501 1_545 S
C314 C315 1.387 . S
C314 N317 1.341 . S
C315 C313 1.400 . S
C315 C314 1.387 . S
N316 Co307 2.022 . S
N316 C313 1.351 . S
N316 N317 1.365 . S
N317 C314 1.341 . S
N317 N316 1.365 . S
N317 H337 0.862 . S
C318 C313 1.501 1_565 S
C318 H319 0.961 . S
C318 H320 0.961 . S
C318 H321 0.960 . S
H319 C318 0.961 . S
H320 C318 0.961 . S
H321 C318 0.960 . S
C322 N323 1.342 . S
C322 C326 1.401 . S
C322 C327 1.499 . S
N323 Co306 1.989 . S
N323 C322 1.342 . S
N323 N324 1.388 . S
N324 Co307 1.993 . S
N324 N323 1.388 . S
N324 C325 1.346 . S
C325 N324 1.346 . S
C325 C326 1.396 . S
C325 C335 1.510 . S
C326 C322 1.401 . S
C326 C325 1.396 . S
C327 C322 1.499 . S
C327 H328 0.959 . S
C327 H329 0.960 . S
C327 H330 0.961 . S
H328 C327 0.959 . S
H329 C327 0.960 . S
H330 C327 0.961 . S
O331 Co306 1.967 . S
O331 C339 1.258 . S
O332 Co307 1.941 . S
O332 C339 1.266 . S
H333 C335 0.959 . S
H334 C335 0.961 . S
C335 C325 1.510 . S
C335 H333 0.959 . S
C335 H334 0.961 . S
C335 H336 0.960 . S
H336 C335 0.960 . S
H337 N317 0.862 . S
O338 Co306 1.920 . S
O338 C311 1.289 . S
C339 O331 1.258 . S
C339 O332 1.266 . S
Co340 O343 1.970 . S
Co340 N357 1.989 . S
Co340 O365 1.967 . S
Co340 O372 1.920 . S
Co341 O344 1.966 . S
Co341 N350 2.022 . S
Co341 N358 1.993 . S
Co341 O366 1.941 . S
C342 O343 1.258 . S
C342 O344 1.263 . S
O343 Co340 1.970 . S
O343 C342 1.258 . S
O344 Co341 1.966 . S
O344 C342 1.263 . S
C345 O346 1.235 . S
C345 O372 1.289 . S
O346 C345 1.235 . S
C347 C349 1.400 . S
C347 N350 1.351 . S
C347 C352 1.501 . S
C348 C349 1.387 . S
C348 N351 1.341 . S
C349 C347 1.400 . S
C349 C348 1.387 . S
N350 Co341 2.022 . S
N350 C347 1.351 . S
N350 N351 1.365 . S
N351 C348 1.341 . S
N351 N350 1.365 . S
N351 H371 0.862 . S
C352 C347 1.501 . S
C352 H353 0.961 . S
C352 H354 0.961 . S
C352 H355 0.960 . S
H353 C352 0.961 . S
H354 C352 0.961 . S
H355 C352 0.960 . S
C356 N357 1.342 . S
C356 C360 1.401 . S
C356 C361 1.499 . S
N357 Co340 1.989 . S
N357 C356 1.342 . S
N357 N358 1.388 . S
N358 Co341 1.993 . S
N358 N357 1.388 . S
N358 C359 1.346 . S
C359 N358 1.346 . S
C359 C360 1.396 . S
C359 C369 1.510 . S
C360 C356 1.401 . S
C360 C359 1.396 . S
C361 C356 1.499 . S
C361 H362 0.959 . S
C361 H363 0.960 . S
C361 H364 0.961 . S
H362 C361 0.959 . S
H363 C361 0.960 . S
H364 C361 0.961 . S
O365 Co340 1.967 . S
O365 C373 1.258 . S
O366 Co341 1.941 . S
O366 C373 1.266 . S
H367 C369 0.959 . S
H368 C369 0.961 . S
C369 C359 1.510 . S
C369 H367 0.959 . S
C369 H368 0.961 . S
C369 H370 0.960 . S
H370 C369 0.960 . S
H371 N351 0.862 . S
O372 Co340 1.920 . S
O372 C345 1.289 . S
C373 O365 1.258 . S
C373 O366 1.266 . S
Co374 O377 1.970 1_565 S
Co374 N391 1.989 . S
Co374 O399 1.967 . S
Co374 O406 1.920 . S
Co375 O378 1.966 . S
Co375 N384 2.022 . S
Co375 N392 1.993 . S
Co375 O400 1.941 . S
C376 O377 1.258 . S
C376 O378 1.263 1_545 S
O377 Co374 1.970 1_545 S
O377 C376 1.258 . S
O378 Co375 1.966 . S
O378 C376 1.263 1_565 S
C379 O380 1.235 1_565 S
C379 O406 1.289 . S
O380 C379 1.235 1_545 S
C381 C383 1.400 . S
C381 N384 1.351 . S
C381 C386 1.501 1_565 S
C382 C383 1.387 . S
C382 N385 1.341 . S
C383 C381 1.400 . S
C383 C382 1.387 . S
N384 Co375 2.022 . S
N384 C381 1.351 . S
N384 N385 1.365 . S
N385 C382 1.341 . S
N385 N384 1.365 . S
N385 H405 0.862 . S
C386 C381 1.501 1_545 S
C386 H387 0.961 . S
C386 H388 0.961 . S
C386 H389 0.960 . S
H387 C386 0.961 . S
H388 C386 0.961 . S
H389 C386 0.960 . S
C390 N391 1.342 . S
C390 C394 1.401 . S
C390 C395 1.499 . S
N391 Co374 1.989 . S
N391 C390 1.342 . S
N391 N392 1.388 . S
N392 Co375 1.993 . S
N392 N391 1.388 . S
N392 C393 1.346 . S
C393 N392 1.346 . S
C393 C394 1.396 . S
C393 C403 1.510 . S
C394 C390 1.401 . S
C394 C393 1.396 . S
C395 C390 1.499 . S
C395 H396 0.959 . S
C395 H397 0.960 . S
C395 H398 0.961 . S
H396 C395 0.959 . S
H397 C395 0.960 . S
H398 C395 0.961 . S
O399 Co374 1.967 . S
O399 C407 1.258 . S
O400 Co375 1.941 . S
O400 C407 1.266 . S
H401 C403 0.959 . S
H402 C403 0.961 . S
C403 C393 1.510 . S
C403 H401 0.959 . S
C403 H402 0.961 . S
C403 H404 0.960 . S
H404 C403 0.960 . S
H405 N385 0.862 . S
O406 Co374 1.920 . S
O406 C379 1.289 . S
C407 O399 1.258 . S
C407 O400 1.266 . S
Co408 O411 1.970 . S
Co408 N425 1.989 . S
Co408 O433 1.967 . S
Co408 O440 1.920 . S
Co409 O412 1.966 . S
Co409 N418 2.022 . S
Co409 N426 1.993 . S
Co409 O434 1.941 . S
C410 O411 1.258 . S
C410 O412 1.263 . S
O411 Co408 1.970 . S
O411 C410 1.258 . S
O412 Co409 1.966 . S
O412 C410 1.263 . S
C413 O414 1.235 . S
C413 O440 1.289 . S
O414 C413 1.235 . S
C415 C417 1.400 1_554 S
C415 N418 1.351 . S
C415 C420 1.501 . S
C416 C417 1.387 . S
C416 N419 1.341 1_556 S
C417 C415 1.400 1_556 S
C417 C416 1.387 . S
N418 Co409 2.022 . S
N418 C415 1.351 . S
N418 N419 1.365 . S
N419 C416 1.341 1_554 S
N419 N418 1.365 . S
N419 H439 0.862 . S
C420 C415 1.501 . S
C420 H421 0.961 . S
C420 H422 0.961 . S
C420 H423 0.960 . S
H421 C420 0.961 . S
H422 C420 0.961 . S
H423 C420 0.960 . S
C424 N425 1.342 . S
C424 C428 1.401 . S
C424 C429 1.499 . S
N425 Co408 1.989 . S
N425 C424 1.342 . S
N425 N426 1.388 . S
N426 Co409 1.993 . S
N426 N425 1.388 . S
N426 C427 1.346 . S
C427 N426 1.346 . S
C427 C428 1.396 . S
C427 C437 1.510 . S
C428 C424 1.401 . S
C428 C427 1.396 . S
C429 C424 1.499 . S
C429 H430 0.959 . S
C429 H431 0.960 . S
C429 H432 0.961 . S
H430 C429 0.959 . S
H431 C429 0.960 . S
H432 C429 0.961 . S
O433 Co408 1.967 . S
O433 C441 1.258 . S
O434 Co409 1.941 . S
O434 C441 1.266 . S
H435 C437 0.959 . S
H436 C437 0.961 . S
C437 C427 1.510 . S
C437 H435 0.959 . S
C437 H436 0.961 . S
C437 H438 0.960 . S
H438 C437 0.960 . S
H439 N419 0.862 . S
O440 Co408 1.920 . S
O440 C413 1.289 . S
C441 O433 1.258 . S
C441 O434 1.266 . S
Co442 O445 1.970 1_545 S
Co442 N459 1.989 . S
Co442 O467 1.967 . S
Co442 O474 1.920 . S
Co443 O446 1.966 . S
Co443 N452 2.022 . S
Co443 N460 1.993 . S
Co443 O468 1.941 . S
C444 O445 1.258 . S
C444 O446 1.263 1_565 S
O445 Co442 1.970 1_565 S
O445 C444 1.258 . S
O446 Co443 1.966 . S
O446 C444 1.263 1_545 S
C447 O448 1.235 1_545 S
C447 O474 1.289 . S
O448 C447 1.235 1_565 S
C449 C451 1.400 . S
C449 N452 1.351 . S
C449 C454 1.501 1_545 S
C450 C451 1.387 . S
C450 N453 1.341 . S
C451 C449 1.400 . S
C451 C450 1.387 . S
N452 Co443 2.022 . S
N452 C449 1.351 . S
N452 N453 1.365 . S
N453 C450 1.341 . S
N453 N452 1.365 . S
N453 H473 0.862 . S
C454 C449 1.501 1_565 S
C454 H455 0.961 . S
C454 H456 0.961 . S
C454 H457 0.960 . S
H455 C454 0.961 . S
H456 C454 0.961 . S
H457 C454 0.960 . S
C458 N459 1.342 . S
C458 C462 1.401 . S
C458 C463 1.499 . S
N459 Co442 1.989 . S
N459 C458 1.342 . S
N459 N460 1.388 . S
N460 Co443 1.993 . S
N460 N459 1.388 . S
N460 C461 1.346 . S
C461 N460 1.346 . S
C461 C462 1.396 . S
C461 C471 1.510 . S
C462 C458 1.401 . S
C462 C461 1.396 . S
C463 C458 1.499 . S
C463 H464 0.959 . S
C463 H465 0.960 . S
C463 H466 0.961 . S
H464 C463 0.959 . S
H465 C463 0.960 . S
H466 C463 0.961 . S
O467 Co442 1.967 . S
O467 C475 1.258 . S
O468 Co443 1.941 . S
O468 C475 1.266 . S
H469 C471 0.959 . S
H470 C471 0.961 . S
C471 C461 1.510 . S
C471 H469 0.959 . S
C471 H470 0.961 . S
C471 H472 0.960 . S
H472 C471 0.960 . S
H473 N453 0.862 . S
O474 Co442 1.920 . S
O474 C447 1.289 . S
C475 O467 1.258 . S
C475 O468 1.266 . S
Co476 O479 1.970 . S
Co476 N493 1.989 . S
Co476 O501 1.967 . S
Co476 O508 1.920 . S
Co477 O480 1.966 . S
Co477 N486 2.022 . S
Co477 N494 1.993 . S
Co477 O502 1.941 . S
C478 O479 1.258 . S
C478 O480 1.263 . S
O479 Co476 1.970 . S
O479 C478 1.258 . S
O480 Co477 1.966 . S
O480 C478 1.263 . S
C481 O482 1.235 . S
C481 O508 1.289 . S
O482 C481 1.235 . S
C483 C485 1.400 . S
C483 N486 1.351 . S
C483 C488 1.501 . S
C484 C485 1.387 . S
C484 N487 1.341 . S
C485 C483 1.400 . S
C485 C484 1.387 . S
N486 Co477 2.022 . S
N486 C483 1.351 . S
N486 N487 1.365 . S
N487 C484 1.341 . S
N487 N486 1.365 . S
N487 H507 0.862 . S
C488 C483 1.501 . S
C488 H489 0.961 . S
C488 H490 0.961 . S
C488 H491 0.960 . S
H489 C488 0.961 . S
H490 C488 0.961 . S
H491 C488 0.960 . S
C492 N493 1.342 . S
C492 C496 1.401 . S
C492 C497 1.499 . S
N493 Co476 1.989 . S
N493 C492 1.342 . S
N493 N494 1.388 . S
N494 Co477 1.993 . S
N494 N493 1.388 . S
N494 C495 1.346 . S
C495 N494 1.346 . S
C495 C496 1.396 . S
C495 C505 1.510 . S
C496 C492 1.401 . S
C496 C495 1.396 . S
C497 C492 1.499 . S
C497 H498 0.959 . S
C497 H499 0.960 . S
C497 H500 0.961 . S
H498 C497 0.959 . S
H499 C497 0.960 . S
H500 C497 0.961 . S
O501 Co476 1.967 . S
O501 C509 1.258 . S
O502 Co477 1.941 . S
O502 C509 1.266 . S
H503 C505 0.959 . S
H504 C505 0.961 . S
C505 C495 1.510 . S
C505 H503 0.959 . S
C505 H504 0.961 . S
C505 H506 0.960 . S
H506 C505 0.960 . S
H507 N487 0.862 . S
O508 Co476 1.920 . S
O508 C481 1.289 . S
C509 O501 1.258 . S
C509 O502 1.266 . S
Co510 O513 1.970 1_565 S
Co510 N527 1.989 . S
Co510 O535 1.967 . S
Co510 O542 1.920 . S
Co511 O514 1.966 . S
Co511 N520 2.022 . S
Co511 N528 1.993 . S
Co511 O536 1.941 . S
C512 O513 1.258 . S
C512 O514 1.263 1_545 S
O513 Co510 1.970 1_545 S
O513 C512 1.258 . S
O514 Co511 1.966 . S
O514 C512 1.263 1_565 S
C515 O516 1.235 1_565 S
C515 O542 1.289 . S
O516 C515 1.235 1_545 S
C517 C519 1.400 . S
C517 N520 1.351 . S
C517 C522 1.501 1_565 S
C518 C519 1.387 . S
C518 N521 1.341 . S
C519 C517 1.400 . S
C519 C518 1.387 . S
N520 Co511 2.022 . S
N520 C517 1.351 . S
N520 N521 1.365 . S
N521 C518 1.341 . S
N521 N520 1.365 . S
N521 H541 0.862 . S
C522 C517 1.501 1_545 S
C522 H523 0.961 . S
C522 H524 0.961 . S
C522 H525 0.960 . S
H523 C522 0.961 . S
H524 C522 0.961 . S
H525 C522 0.960 . S
C526 N527 1.342 . S
C526 C530 1.401 . S
C526 C531 1.499 . S
N527 Co510 1.989 . S
N527 C526 1.342 . S
N527 N528 1.388 . S
N528 Co511 1.993 . S
N528 N527 1.388 . S
N528 C529 1.346 . S
C529 N528 1.346 . S
C529 C530 1.396 . S
C529 C539 1.510 . S
C530 C526 1.401 . S
C530 C529 1.396 . S
C531 C526 1.499 . S
C531 H532 0.959 . S
C531 H533 0.960 . S
C531 H534 0.961 . S
H532 C531 0.959 . S
H533 C531 0.960 . S
H534 C531 0.961 . S
O535 Co510 1.967 . S
O535 C543 1.258 . S
O536 Co511 1.941 . S
O536 C543 1.266 . S
H537 C539 0.959 . S
H538 C539 0.961 . S
C539 C529 1.510 . S
C539 H537 0.959 . S
C539 H538 0.961 . S
C539 H540 0.960 . S
H540 C539 0.960 . S
H541 N521 0.862 . S
O542 Co510 1.920 . S
O542 C515 1.289 . S
C543 O535 1.258 . S
C543 O536 1.266 . S
Co544 O547 1.970 . S
Co544 N561 1.989 . S
Co544 O569 1.967 . S
Co544 O576 1.920 . S
Co545 O548 1.966 . S
Co545 N554 2.022 . S
Co545 N562 1.993 . S
Co545 O570 1.941 . S
C546 O547 1.258 . S
C546 O548 1.263 . S
O547 Co544 1.970 . S
O547 C546 1.258 . S
O548 Co545 1.966 . S
O548 C546 1.263 . S
C549 O550 1.235 . S
C549 O576 1.289 . S
O550 C549 1.235 . S
C551 C553 1.400 . S
C551 N554 1.351 . S
C551 C556 1.501 . S
C552 C553 1.387 . S
C552 N555 1.341 . S
C553 C551 1.400 . S
C553 C552 1.387 . S
N554 Co545 2.022 . S
N554 C551 1.351 . S
N554 N555 1.365 . S
N555 C552 1.341 . S
N555 N554 1.365 . S
N555 H575 0.862 . S
C556 C551 1.501 . S
C556 H557 0.961 . S
C556 H558 0.961 . S
C556 H559 0.960 . S
H557 C556 0.961 . S
H558 C556 0.961 . S
H559 C556 0.960 . S
C560 N561 1.342 . S
C560 C564 1.401 . S
C560 C565 1.499 . S
N561 Co544 1.989 . S
N561 C560 1.342 . S
N561 N562 1.388 . S
N562 Co545 1.993 . S
N562 N561 1.388 . S
N562 C563 1.346 . S
C563 N562 1.346 . S
C563 C564 1.396 . S
C563 C573 1.510 . S
C564 C560 1.401 . S
C564 C563 1.396 . S
C565 C560 1.499 . S
C565 H566 0.959 . S
C565 H567 0.960 . S
C565 H568 0.961 . S
H566 C565 0.959 . S
H567 C565 0.960 . S
H568 C565 0.961 . S
O569 Co544 1.967 . S
O569 C577 1.258 . S
O570 Co545 1.941 . S
O570 C577 1.266 . S
H571 C573 0.959 . S
H572 C573 0.961 . S
C573 C563 1.510 . S
C573 H571 0.959 . S
C573 H572 0.961 . S
C573 H574 0.960 . S
H574 C573 0.960 . S
H575 N555 0.862 . S
O576 Co544 1.920 . S
O576 C549 1.289 . S
C577 O569 1.258 . S
C577 O570 1.266 . S
Co578 O581 1.970 . S
Co578 N595 1.989 . S
Co578 O603 1.967 . S
Co578 O610 1.920 . S
Co579 O582 1.966 . S
Co579 N588 2.022 . S
Co579 N596 1.993 . S
Co579 O604 1.941 . S
C580 O581 1.258 . S
C580 O582 1.263 . S
O581 Co578 1.970 . S
O581 C580 1.258 . S
O582 Co579 1.966 . S
O582 C580 1.263 . S
C583 O584 1.235 . S
C583 O610 1.289 . S
O584 C583 1.235 . S
C585 C587 1.400 . S
C585 N588 1.351 . S
C585 C590 1.501 . S
C586 C587 1.387 . S
C586 N589 1.341 . S
C587 C585 1.400 . S
C587 C586 1.387 . S
N588 Co579 2.022 . S
N588 C585 1.351 . S
N588 N589 1.365 . S
N589 C586 1.341 . S
N589 N588 1.365 . S
N589 H609 0.862 . S
C590 C585 1.501 . S
C590 H591 0.961 . S
C590 H592 0.961 . S
C590 H593 0.960 . S
H591 C590 0.961 . S
H592 C590 0.961 . S
H593 C590 0.960 . S
C594 N595 1.342 . S
C594 C598 1.401 . S
C594 C599 1.499 . S
N595 Co578 1.989 . S
N595 C594 1.342 . S
N595 N596 1.388 . S
N596 Co579 1.993 . S
N596 N595 1.388 . S
N596 C597 1.346 . S
C597 N596 1.346 . S
C597 C598 1.396 . S
C597 C607 1.510 . S
C598 C594 1.401 . S
C598 C597 1.396 . S
C599 C594 1.499 . S
C599 H600 0.959 . S
C599 H601 0.960 . S
C599 H602 0.961 . S
H600 C599 0.959 . S
H601 C599 0.960 . S
H602 C599 0.961 . S
O603 Co578 1.967 . S
O603 C611 1.258 . S
O604 Co579 1.941 . S
O604 C611 1.266 . S
H605 C607 0.959 . S
H606 C607 0.961 . S
C607 C597 1.510 . S
C607 H605 0.959 . S
C607 H606 0.961 . S
C607 H608 0.960 . S
H608 C607 0.960 . S
H609 N589 0.862 . S
O610 Co578 1.920 . S
O610 C583 1.289 . S
C611 O603 1.258 . S
C611 O604 1.266 . S
Co612 O615 1.970 . S
Co612 N629 1.989 . S
Co612 O637 1.967 . S
Co612 O644 1.920 . S
Co613 O616 1.966 . S
Co613 N622 2.022 . S
Co613 N630 1.993 . S
Co613 O638 1.941 . S
C614 O615 1.258 . S
C614 O616 1.263 . S
O615 Co612 1.970 . S
O615 C614 1.258 . S
O616 Co613 1.966 . S
O616 C614 1.263 . S
C617 O618 1.235 . S
C617 O644 1.289 . S
O618 C617 1.235 . S
C619 C621 1.400 1_554 S
C619 N622 1.351 . S
C619 C624 1.501 . S
C620 C621 1.387 . S
C620 N623 1.341 1_556 S
C621 C619 1.400 1_556 S
C621 C620 1.387 . S
N622 Co613 2.022 . S
N622 C619 1.351 . S
N622 N623 1.365 . S
N623 C620 1.341 1_554 S
N623 N622 1.365 . S
N623 H643 0.862 . S
C624 C619 1.501 . S
C624 H625 0.961 . S
C624 H626 0.961 . S
C624 H627 0.960 . S
H625 C624 0.961 . S
H626 C624 0.961 . S
H627 C624 0.960 . S
C628 N629 1.342 . S
C628 C632 1.401 . S
C628 C633 1.499 . S
N629 Co612 1.989 . S
N629 C628 1.342 . S
N629 N630 1.388 . S
N630 Co613 1.993 . S
N630 N629 1.388 . S
N630 C631 1.346 . S
C631 N630 1.346 . S
C631 C632 1.396 . S
C631 C641 1.510 . S
C632 C628 1.401 . S
C632 C631 1.396 . S
C633 C628 1.499 . S
C633 H634 0.959 . S
C633 H635 0.960 . S
C633 H636 0.961 . S
H634 C633 0.959 . S
H635 C633 0.960 . S
H636 C633 0.961 . S
O637 Co612 1.967 . S
O637 C645 1.258 . S
O638 Co613 1.941 . S
O638 C645 1.266 . S
H639 C641 0.959 . S
H640 C641 0.961 . S
C641 C631 1.510 . S
C641 H639 0.959 . S
C641 H640 0.961 . S
C641 H642 0.960 . S
H642 C641 0.960 . S
H643 N623 0.862 . S
O644 Co612 1.920 . S
O644 C617 1.289 . S
C645 O637 1.258 . S
C645 O638 1.266 . S
Co646 O649 1.970 . S
Co646 N663 1.989 . S
Co646 O671 1.967 . S
Co646 O678 1.920 . S
Co647 O650 1.966 . S
Co647 N656 2.022 . S
Co647 N664 1.993 . S
Co647 O672 1.941 . S
C648 O649 1.258 . S
C648 O650 1.263 . S
O649 Co646 1.970 . S
O649 C648 1.258 . S
O650 Co647 1.966 . S
O650 C648 1.263 . S
C651 O652 1.235 . S
C651 O678 1.289 . S
O652 C651 1.235 . S
C653 C655 1.400 . S
C653 N656 1.351 . S
C653 C658 1.501 . S
C654 C655 1.387 . S
C654 N657 1.341 . S
C655 C653 1.400 . S
C655 C654 1.387 . S
N656 Co647 2.022 . S
N656 C653 1.351 . S
N656 N657 1.365 . S
N657 C654 1.341 . S
N657 N656 1.365 . S
N657 H677 0.862 . S
C658 C653 1.501 . S
C658 H659 0.961 . S
C658 H660 0.961 . S
C658 H661 0.960 . S
H659 C658 0.961 . S
H660 C658 0.961 . S
H661 C658 0.960 . S
C662 N663 1.342 . S
C662 C666 1.401 . S
C662 C667 1.499 . S
N663 Co646 1.989 . S
N663 C662 1.342 . S
N663 N664 1.388 . S
N664 Co647 1.993 . S
N664 N663 1.388 . S
N664 C665 1.346 . S
C665 N664 1.346 . S
C665 C666 1.396 . S
C665 C675 1.510 . S
C666 C662 1.401 . S
C666 C665 1.396 . S
C667 C662 1.499 . S
C667 H668 0.959 . S
C667 H669 0.960 . S
C667 H670 0.961 . S
H668 C667 0.959 . S
H669 C667 0.960 . S
H670 C667 0.961 . S
O671 Co646 1.967 . S
O671 C679 1.258 . S
O672 Co647 1.941 . S
O672 C679 1.266 . S
H673 C675 0.959 . S
H674 C675 0.961 . S
C675 C665 1.510 . S
C675 H673 0.959 . S
C675 H674 0.961 . S
C675 H676 0.960 . S
H676 C675 0.960 . S
H677 N657 0.862 . S
O678 Co646 1.920 . S
O678 C651 1.289 . S
C679 O671 1.258 . S
C679 O672 1.266 . S
Co680 O683 1.970 . S
Co680 N697 1.989 . S
Co680 O705 1.967 . S
Co680 O712 1.920 . S
Co681 O684 1.966 . S
Co681 N690 2.022 . S
Co681 N698 1.993 . S
Co681 O706 1.941 . S
C682 O683 1.258 . S
C682 O684 1.263 . S
O683 Co680 1.970 . S
O683 C682 1.258 . S
O684 Co681 1.966 . S
O684 C682 1.263 . S
C685 O686 1.235 . S
C685 O712 1.289 . S
O686 C685 1.235 . S
C687 C689 1.400 . S
C687 N690 1.351 . S
C687 C692 1.501 . S
C688 C689 1.387 . S
C688 N691 1.341 . S
C689 C687 1.400 . S
C689 C688 1.387 . S
N690 Co681 2.022 . S
N690 C687 1.351 . S
N690 N691 1.365 . S
N691 C688 1.341 . S
N691 N690 1.365 . S
N691 H711 0.862 . S
C692 C687 1.501 . S
C692 H693 0.961 . S
C692 H694 0.961 . S
C692 H695 0.960 . S
H693 C692 0.961 . S
H694 C692 0.961 . S
H695 C692 0.960 . S
C696 N697 1.342 . S
C696 C700 1.401 . S
C696 C701 1.499 . S
N697 Co680 1.989 . S
N697 C696 1.342 . S
N697 N698 1.388 . S
N698 Co681 1.993 . S
N698 N697 1.388 . S
N698 C699 1.346 . S
C699 N698 1.346 . S
C699 C700 1.396 . S
C699 C709 1.510 . S
C700 C696 1.401 . S
C700 C699 1.396 . S
C701 C696 1.499 . S
C701 H702 0.959 . S
C701 H703 0.960 . S
C701 H704 0.961 . S
H702 C701 0.959 . S
H703 C701 0.960 . S
H704 C701 0.961 . S
O705 Co680 1.967 . S
O705 C713 1.258 . S
O706 Co681 1.941 . S
O706 C713 1.266 . S
H707 C709 0.959 . S
H708 C709 0.961 . S
C709 C699 1.510 . S
C709 H707 0.959 . S
C709 H708 0.961 . S
C709 H710 0.960 . S
H710 C709 0.960 . S
H711 N691 0.862 . S
O712 Co680 1.920 . S
O712 C685 1.289 . S
C713 O705 1.258 . S
C713 O706 1.266 . S
Co714 O717 1.970 . S
Co714 N731 1.989 . S
Co714 O739 1.967 . S
Co714 O746 1.920 . S
Co715 O718 1.966 . S
Co715 N724 2.022 . S
Co715 N732 1.993 . S
Co715 O740 1.941 . S
C716 O717 1.258 . S
C716 O718 1.263 . S
O717 Co714 1.970 . S
O717 C716 1.258 . S
O718 Co715 1.966 . S
O718 C716 1.263 . S
C719 O720 1.235 . S
C719 O746 1.289 . S
O720 C719 1.235 . S
C721 C723 1.400 . S
C721 N724 1.351 . S
C721 C726 1.501 . S
C722 C723 1.387 . S
C722 N725 1.341 . S
C723 C721 1.400 . S
C723 C722 1.387 . S
N724 Co715 2.022 . S
N724 C721 1.351 . S
N724 N725 1.365 . S
N725 C722 1.341 . S
N725 N724 1.365 . S
N725 H745 0.862 . S
C726 C721 1.501 . S
C726 H727 0.961 . S
C726 H728 0.961 . S
C726 H729 0.960 . S
H727 C726 0.961 . S
H728 C726 0.961 . S
H729 C726 0.960 . S
C730 N731 1.342 . S
C730 C734 1.401 . S
C730 C735 1.499 . S
N731 Co714 1.989 . S
N731 C730 1.342 . S
N731 N732 1.388 . S
N732 Co715 1.993 . S
N732 N731 1.388 . S
N732 C733 1.346 . S
C733 N732 1.346 . S
C733 C734 1.396 . S
C733 C743 1.510 . S
C734 C730 1.401 . S
C734 C733 1.396 . S
C735 C730 1.499 . S
C735 H736 0.959 . S
C735 H737 0.960 . S
C735 H738 0.961 . S
H736 C735 0.959 . S
H737 C735 0.960 . S
H738 C735 0.961 . S
O739 Co714 1.967 . S
O739 C747 1.258 . S
O740 Co715 1.941 . S
O740 C747 1.266 . S
H741 C743 0.959 . S
H742 C743 0.961 . S
C743 C733 1.510 . S
C743 H741 0.959 . S
C743 H742 0.961 . S
C743 H744 0.960 . S
H744 C743 0.960 . S
H745 N725 0.862 . S
O746 Co714 1.920 . S
O746 C719 1.289 . S
C747 O739 1.258 . S
C747 O740 1.266 . S
Co748 O751 1.970 . S
Co748 N765 1.989 . S
Co748 O773 1.967 . S
Co748 O780 1.920 . S
Co749 O752 1.966 . S
Co749 N758 2.022 . S
Co749 N766 1.993 . S
Co749 O774 1.941 . S
C750 O751 1.258 . S
C750 O752 1.263 . S
O751 Co748 1.970 . S
O751 C750 1.258 . S
O752 Co749 1.966 . S
O752 C750 1.263 . S
C753 O754 1.235 . S
C753 O780 1.289 . S
O754 C753 1.235 . S
C755 C757 1.400 1_556 S
C755 N758 1.351 . S
C755 C760 1.501 . S
C756 C757 1.387 . S
C756 N759 1.341 1_554 S
C757 C755 1.400 1_554 S
C757 C756 1.387 . S
N758 Co749 2.022 . S
N758 C755 1.351 . S
N758 N759 1.365 . S
N759 C756 1.341 1_556 S
N759 N758 1.365 . S
N759 H779 0.862 . S
C760 C755 1.501 . S
C760 H761 0.961 . S
C760 H762 0.961 . S
C760 H763 0.960 . S
H761 C760 0.961 . S
H762 C760 0.961 . S
H763 C760 0.960 . S
C764 N765 1.342 . S
C764 C768 1.401 . S
C764 C769 1.499 . S
N765 Co748 1.989 . S
N765 C764 1.342 . S
N765 N766 1.388 . S
N766 Co749 1.993 . S
N766 N765 1.388 . S
N766 C767 1.346 . S
C767 N766 1.346 . S
C767 C768 1.396 . S
C767 C777 1.510 . S
C768 C764 1.401 . S
C768 C767 1.396 . S
C769 C764 1.499 . S
C769 H770 0.959 . S
C769 H771 0.960 . S
C769 H772 0.961 . S
H770 C769 0.959 . S
H771 C769 0.960 . S
H772 C769 0.961 . S
O773 Co748 1.967 . S
O773 C781 1.258 . S
O774 Co749 1.941 . S
O774 C781 1.266 . S
H775 C777 0.959 . S
H776 C777 0.961 . S
C777 C767 1.510 . S
C777 H775 0.959 . S
C777 H776 0.961 . S
C777 H778 0.960 . S
H778 C777 0.960 . S
H779 N759 0.862 . S
O780 Co748 1.920 . S
O780 C753 1.289 . S
C781 O773 1.258 . S
C781 O774 1.266 . S
Co782 O785 1.970 . S
Co782 N799 1.989 . S
Co782 O807 1.967 . S
Co782 O814 1.920 . S
Co783 O786 1.966 . S
Co783 N792 2.022 . S
Co783 N800 1.993 . S
Co783 O808 1.941 . S
C784 O785 1.258 . S
C784 O786 1.263 . S
O785 Co782 1.970 . S
O785 C784 1.258 . S
O786 Co783 1.966 . S
O786 C784 1.263 . S
C787 O788 1.235 . S
C787 O814 1.289 . S
O788 C787 1.235 . S
C789 C791 1.400 . S
C789 N792 1.351 . S
C789 C794 1.501 . S
C790 C791 1.387 . S
C790 N793 1.341 . S
C791 C789 1.400 . S
C791 C790 1.387 . S
N792 Co783 2.022 . S
N792 C789 1.351 . S
N792 N793 1.365 . S
N793 C790 1.341 . S
N793 N792 1.365 . S
N793 H813 0.862 . S
C794 C789 1.501 . S
C794 H795 0.961 . S
C794 H796 0.961 . S
C794 H797 0.960 . S
H795 C794 0.961 . S
H796 C794 0.961 . S
H797 C794 0.960 . S
C798 N799 1.342 . S
C798 C802 1.401 . S
C798 C803 1.499 . S
N799 Co782 1.989 . S
N799 C798 1.342 . S
N799 N800 1.388 . S
N800 Co783 1.993 . S
N800 N799 1.388 . S
N800 C801 1.346 . S
C801 N800 1.346 . S
C801 C802 1.396 . S
C801 C811 1.510 . S
C802 C798 1.401 . S
C802 C801 1.396 . S
C803 C798 1.499 . S
C803 H804 0.959 . S
C803 H805 0.960 . S
C803 H806 0.961 . S
H804 C803 0.959 . S
H805 C803 0.960 . S
H806 C803 0.961 . S
O807 Co782 1.967 . S
O807 C815 1.258 . S
O808 Co783 1.941 . S
O808 C815 1.266 . S
H809 C811 0.959 . S
H810 C811 0.961 . S
C811 C801 1.510 . S
C811 H809 0.959 . S
C811 H810 0.961 . S
C811 H812 0.960 . S
H812 C811 0.960 . S
H813 N793 0.862 . S
O814 Co782 1.920 . S
O814 C787 1.289 . S
C815 O807 1.258 . S
C815 O808 1.266 . S
Co816 O819 1.970 . S
Co816 N833 1.989 . S
Co816 O841 1.967 . S
Co816 O848 1.920 . S
Co817 O820 1.966 . S
Co817 N826 2.022 . S
Co817 N834 1.993 . S
Co817 O842 1.941 . S
C818 O819 1.258 . S
C818 O820 1.263 . S
O819 Co816 1.970 . S
O819 C818 1.258 . S
O820 Co817 1.966 . S
O820 C818 1.263 . S
C821 O822 1.235 . S
C821 O848 1.289 . S
O822 C821 1.235 . S
C823 C825 1.400 . S
C823 N826 1.351 . S
C823 C828 1.501 . S
C824 C825 1.387 . S
C824 N827 1.341 . S
C825 C823 1.400 . S
C825 C824 1.387 . S
N826 Co817 2.022 . S
N826 C823 1.351 . S
N826 N827 1.365 . S
N827 C824 1.341 . S
N827 N826 1.365 . S
N827 H847 0.862 . S
C828 C823 1.501 . S
C828 H829 0.961 . S
C828 H830 0.961 . S
C828 H831 0.960 . S
H829 C828 0.961 . S
H830 C828 0.961 . S
H831 C828 0.960 . S
C832 N833 1.342 . S
C832 C836 1.401 . S
C832 C837 1.499 . S
N833 Co816 1.989 . S
N833 C832 1.342 . S
N833 N834 1.388 . S
N834 Co817 1.993 . S
N834 N833 1.388 . S
N834 C835 1.346 . S
C835 N834 1.346 . S
C835 C836 1.396 . S
C835 C845 1.510 . S
C836 C832 1.401 . S
C836 C835 1.396 . S
C837 C832 1.499 . S
C837 H838 0.959 . S
C837 H839 0.960 . S
C837 H840 0.961 . S
H838 C837 0.959 . S
H839 C837 0.960 . S
H840 C837 0.961 . S
O841 Co816 1.967 . S
O841 C849 1.258 . S
O842 Co817 1.941 . S
O842 C849 1.266 . S
H843 C845 0.959 . S
H844 C845 0.961 . S
C845 C835 1.510 . S
C845 H843 0.959 . S
C845 H844 0.961 . S
C845 H846 0.960 . S
H846 C845 0.960 . S
H847 N827 0.862 . S
O848 Co816 1.920 . S
O848 C821 1.289 . S
C849 O841 1.258 . S
C849 O842 1.266 . S
Co850 O853 1.970 . S
Co850 N867 1.989 . S
Co850 O875 1.967 . S
Co850 O882 1.920 . S
Co851 O854 1.966 . S
Co851 N860 2.022 . S
Co851 N868 1.993 . S
Co851 O876 1.941 . S
C852 O853 1.258 . S
C852 O854 1.263 . S
O853 Co850 1.970 . S
O853 C852 1.258 . S
O854 Co851 1.966 . S
O854 C852 1.263 . S
C855 O856 1.235 . S
C855 O882 1.289 . S
O856 C855 1.235 . S
C857 C859 1.400 . S
C857 N860 1.351 . S
C857 C862 1.501 . S
C858 C859 1.387 . S
C858 N861 1.341 . S
C859 C857 1.400 . S
C859 C858 1.387 . S
N860 Co851 2.022 . S
N860 C857 1.351 . S
N860 N861 1.365 . S
N861 C858 1.341 . S
N861 N860 1.365 . S
N861 H881 0.862 . S
C862 C857 1.501 . S
C862 H863 0.961 . S
C862 H864 0.961 . S
C862 H865 0.960 . S
H863 C862 0.961 . S
H864 C862 0.961 . S
H865 C862 0.960 . S
C866 N867 1.342 . S
C866 C870 1.401 . S
C866 C871 1.499 . S
N867 Co850 1.989 . S
N867 C866 1.342 . S
N867 N868 1.388 . S
N868 Co851 1.993 . S
N868 N867 1.388 . S
N868 C869 1.346 . S
C869 N868 1.346 . S
C869 C870 1.396 . S
C869 C879 1.510 . S
C870 C866 1.401 . S
C870 C869 1.396 . S
C871 C866 1.499 . S
C871 H872 0.959 . S
C871 H873 0.960 . S
C871 H874 0.961 . S
H872 C871 0.959 . S
H873 C871 0.960 . S
H874 C871 0.961 . S
O875 Co850 1.967 . S
O875 C883 1.258 . S
O876 Co851 1.941 . S
O876 C883 1.266 . S
H877 C879 0.959 . S
H878 C879 0.961 . S
C879 C869 1.510 . S
C879 H877 0.959 . S
C879 H878 0.961 . S
C879 H880 0.960 . S
H880 C879 0.960 . S
H881 N861 0.862 . S
O882 Co850 1.920 . S
O882 C855 1.289 . S
C883 O875 1.258 . S
C883 O876 1.266 . S
Co884 O887 1.970 . S
Co884 N901 1.989 . S
Co884 O909 1.967 . S
Co884 O916 1.920 . S
Co885 O888 1.966 . S
Co885 N894 2.022 . S
Co885 N902 1.993 . S
Co885 O910 1.941 . S
C886 O887 1.258 . S
C886 O888 1.263 . S
O887 Co884 1.970 . S
O887 C886 1.258 . S
O888 Co885 1.966 . S
O888 C886 1.263 . S
C889 O890 1.235 . S
C889 O916 1.289 . S
O890 C889 1.235 . S
C891 C893 1.400 1_556 S
C891 N894 1.351 . S
C891 C896 1.501 . S
C892 C893 1.387 . S
C892 N895 1.341 1_554 S
C893 C891 1.400 1_554 S
C893 C892 1.387 . S
N894 Co885 2.022 . S
N894 C891 1.351 . S
N894 N895 1.365 . S
N895 C892 1.341 1_556 S
N895 N894 1.365 . S
N895 H915 0.862 . S
C896 C891 1.501 . S
C896 H897 0.961 . S
C896 H898 0.961 . S
C896 H899 0.960 . S
H897 C896 0.961 . S
H898 C896 0.961 . S
H899 C896 0.960 . S
C900 N901 1.342 . S
C900 C904 1.401 . S
C900 C905 1.499 . S
N901 Co884 1.989 . S
N901 C900 1.342 . S
N901 N902 1.388 . S
N902 Co885 1.993 . S
N902 N901 1.388 . S
N902 C903 1.346 . S
C903 N902 1.346 . S
C903 C904 1.396 . S
C903 C913 1.510 . S
C904 C900 1.401 . S
C904 C903 1.396 . S
C905 C900 1.499 . S
C905 H906 0.959 . S
C905 H907 0.960 . S
C905 H908 0.961 . S
H906 C905 0.959 . S
H907 C905 0.960 . S
H908 C905 0.961 . S
O909 Co884 1.967 . S
O909 C917 1.258 . S
O910 Co885 1.941 . S
O910 C917 1.266 . S
H911 C913 0.959 . S
H912 C913 0.961 . S
C913 C903 1.510 . S
C913 H911 0.959 . S
C913 H912 0.961 . S
C913 H914 0.960 . S
H914 C913 0.960 . S
H915 N895 0.862 . S
O916 Co884 1.920 . S
O916 C889 1.289 . S
C917 O909 1.258 . S
C917 O910 1.266 . S
Co918 O921 1.970 . S
Co918 N935 1.989 . S
Co918 O943 1.967 . S
Co918 O950 1.920 . S
Co919 O922 1.966 . S
Co919 N928 2.022 . S
Co919 N936 1.993 . S
Co919 O944 1.941 . S
C920 O921 1.258 . S
C920 O922 1.263 . S
O921 Co918 1.970 . S
O921 C920 1.258 . S
O922 Co919 1.966 . S
O922 C920 1.263 . S
C923 O924 1.235 . S
C923 O950 1.289 . S
O924 C923 1.235 . S
C925 C927 1.400 . S
C925 N928 1.351 . S
C925 C930 1.501 . S
C926 C927 1.387 . S
C926 N929 1.341 . S
C927 C925 1.400 . S
C927 C926 1.387 . S
N928 Co919 2.022 . S
N928 C925 1.351 . S
N928 N929 1.365 . S
N929 C926 1.341 . S
N929 N928 1.365 . S
N929 H949 0.862 . S
C930 C925 1.501 . S
C930 H931 0.961 . S
C930 H932 0.961 . S
C930 H933 0.960 . S
H931 C930 0.961 . S
H932 C930 0.961 . S
H933 C930 0.960 . S
C934 N935 1.342 . S
C934 C938 1.401 . S
C934 C939 1.499 . S
N935 Co918 1.989 . S
N935 C934 1.342 . S
N935 N936 1.388 . S
N936 Co919 1.993 . S
N936 N935 1.388 . S
N936 C937 1.346 . S
C937 N936 1.346 . S
C937 C938 1.396 . S
C937 C947 1.510 . S
C938 C934 1.401 . S
C938 C937 1.396 . S
C939 C934 1.499 . S
C939 H940 0.959 . S
C939 H941 0.960 . S
C939 H942 0.961 . S
H940 C939 0.959 . S
H941 C939 0.960 . S
H942 C939 0.961 . S
O943 Co918 1.967 . S
O943 C951 1.258 . S
O944 Co919 1.941 . S
O944 C951 1.266 . S
H945 C947 0.959 . S
H946 C947 0.961 . S
C947 C937 1.510 . S
C947 H945 0.959 . S
C947 H946 0.961 . S
C947 H948 0.960 . S
H948 C947 0.960 . S
H949 N929 0.862 . S
O950 Co918 1.920 . S
O950 C923 1.289 . S
C951 O943 1.258 . S
C951 O944 1.266 . S
Co952 O955 1.970 . S
Co952 N969 1.989 . S
Co952 O977 1.967 . S
Co952 O984 1.920 . S
Co953 O956 1.966 . S
Co953 N962 2.022 . S
Co953 N970 1.993 . S
Co953 O978 1.941 . S
C954 O955 1.258 . S
C954 O956 1.263 . S
O955 Co952 1.970 . S
O955 C954 1.258 . S
O956 Co953 1.966 . S
O956 C954 1.263 . S
C957 O958 1.235 . S
C957 O984 1.289 . S
O958 C957 1.235 . S
C959 C961 1.400 . S
C959 N962 1.351 . S
C959 C964 1.501 . S
C960 C961 1.387 . S
C960 N963 1.341 . S
C961 C959 1.400 . S
C961 C960 1.387 . S
N962 Co953 2.022 . S
N962 C959 1.351 . S
N962 N963 1.365 . S
N963 C960 1.341 . S
N963 N962 1.365 . S
N963 H983 0.862 . S
C964 C959 1.501 . S
C964 H965 0.961 . S
C964 H966 0.961 . S
C964 H967 0.960 . S
H965 C964 0.961 . S
H966 C964 0.961 . S
H967 C964 0.960 . S
C968 N969 1.342 . S
C968 C972 1.401 . S
C968 C973 1.499 . S
N969 Co952 1.989 . S
N969 C968 1.342 . S
N969 N970 1.388 . S
N970 Co953 1.993 . S
N970 N969 1.388 . S
N970 C971 1.346 . S
C971 N970 1.346 . S
C971 C972 1.396 . S
C971 C981 1.510 . S
C972 C968 1.401 . S
C972 C971 1.396 . S
C973 C968 1.499 . S
C973 H974 0.959 . S
C973 H975 0.960 . S
C973 H976 0.961 . S
H974 C973 0.959 . S
H975 C973 0.960 . S
H976 C973 0.961 . S
O977 Co952 1.967 . S
O977 C985 1.258 . S
O978 Co953 1.941 . S
O978 C985 1.266 . S
H979 C981 0.959 . S
H980 C981 0.961 . S
C981 C971 1.510 . S
C981 H979 0.959 . S
C981 H980 0.961 . S
C981 H982 0.960 . S
H982 C981 0.960 . S
H983 N963 0.862 . S
O984 Co952 1.920 . S
O984 C957 1.289 . S
C985 O977 1.258 . S
C985 O978 1.266 . S
Co986 O989 1.970 . S
Co986 N1003 1.989 . S
Co986 O1011 1.967 . S
Co986 O1018 1.920 . S
Co987 O990 1.966 . S
Co987 N996 2.022 . S
Co987 N1004 1.993 . S
Co987 O1012 1.941 . S
C988 O989 1.258 . S
C988 O990 1.263 . S
O989 Co986 1.970 . S
O989 C988 1.258 . S
O990 Co987 1.966 . S
O990 C988 1.263 . S
C991 O992 1.235 . S
C991 O1018 1.289 . S
O992 C991 1.235 . S
C993 C995 1.400 . S
C993 N996 1.351 . S
C993 C998 1.501 . S
C994 C995 1.387 . S
C994 N997 1.341 . S
C995 C993 1.400 . S
C995 C994 1.387 . S
N996 Co987 2.022 . S
N996 C993 1.351 . S
N996 N997 1.365 . S
N997 C994 1.341 . S
N997 N996 1.365 . S
N997 H1017 0.862 . S
C998 C993 1.501 . S
C998 H999 0.961 . S
C998 H1000 0.961 . S
C998 H1001 0.960 . S
H999 C998 0.961 . S
H1000 C998 0.961 . S
H1001 C998 0.960 . S
C1002 N1003 1.342 . S
C1002 C1006 1.401 . S
C1002 C1007 1.499 . S
N1003 Co986 1.989 . S
N1003 C1002 1.342 . S
N1003 N1004 1.388 . S
N1004 Co987 1.993 . S
N1004 N1003 1.388 . S
N1004 C1005 1.346 . S
C1005 N1004 1.346 . S
C1005 C1006 1.396 . S
C1005 C1015 1.510 . S
C1006 C1002 1.401 . S
C1006 C1005 1.396 . S
C1007 C1002 1.499 . S
C1007 H1008 0.959 . S
C1007 H1009 0.960 . S
C1007 H1010 0.961 . S
H1008 C1007 0.959 . S
H1009 C1007 0.960 . S
H1010 C1007 0.961 . S
O1011 Co986 1.967 . S
O1011 C1019 1.258 . S
O1012 Co987 1.941 . S
O1012 C1019 1.266 . S
H1013 C1015 0.959 . S
H1014 C1015 0.961 . S
C1015 C1005 1.510 . S
C1015 H1013 0.959 . S
C1015 H1014 0.961 . S
C1015 H1016 0.960 . S
H1016 C1015 0.960 . S
H1017 N997 0.862 . S
O1018 Co986 1.920 . S
O1018 C991 1.289 . S
C1019 O1011 1.258 . S
C1019 O1012 1.266 . S
Co1020 O1023 1.970 . S
Co1020 N1037 1.989 . S
Co1020 O1045 1.967 . S
Co1020 O1052 1.920 . S
Co1021 O1024 1.966 . S
Co1021 N1030 2.022 . S
Co1021 N1038 1.993 . S
Co1021 O1046 1.941 . S
C1022 O1023 1.258 . S
C1022 O1024 1.263 . S
O1023 Co1020 1.970 . S
O1023 C1022 1.258 . S
O1024 Co1021 1.966 . S
O1024 C1022 1.263 . S
C1025 O1026 1.235 . S
C1025 O1052 1.289 . S
O1026 C1025 1.235 . S
C1027 C1029 1.400 1_554 S
C1027 N1030 1.351 . S
C1027 C1032 1.501 . S
C1028 C1029 1.387 . S
C1028 N1031 1.341 1_556 S
C1029 C1027 1.400 1_556 S
C1029 C1028 1.387 . S
N1030 Co1021 2.022 . S
N1030 C1027 1.351 . S
N1030 N1031 1.365 . S
N1031 C1028 1.341 1_554 S
N1031 N1030 1.365 . S
N1031 H1051 0.862 . S
C1032 C1027 1.501 . S
C1032 H1033 0.961 . S
C1032 H1034 0.961 . S
C1032 H1035 0.960 . S
H1033 C1032 0.961 . S
H1034 C1032 0.961 . S
H1035 C1032 0.960 . S
C1036 N1037 1.342 . S
C1036 C1040 1.401 . S
C1036 C1041 1.499 . S
N1037 Co1020 1.989 . S
N1037 C1036 1.342 . S
N1037 N1038 1.388 . S
N1038 Co1021 1.993 . S
N1038 N1037 1.388 . S
N1038 C1039 1.346 . S
C1039 N1038 1.346 . S
C1039 C1040 1.396 . S
C1039 C1049 1.510 . S
C1040 C1036 1.401 . S
C1040 C1039 1.396 . S
C1041 C1036 1.499 . S
C1041 H1042 0.959 . S
C1041 H1043 0.960 . S
C1041 H1044 0.961 . S
H1042 C1041 0.959 . S
H1043 C1041 0.960 . S
H1044 C1041 0.961 . S
O1045 Co1020 1.967 . S
O1045 C1053 1.258 . S
O1046 Co1021 1.941 . S
O1046 C1053 1.266 . S
H1047 C1049 0.959 . S
H1048 C1049 0.961 . S
C1049 C1039 1.510 . S
C1049 H1047 0.959 . S
C1049 H1048 0.961 . S
C1049 H1050 0.960 . S
H1050 C1049 0.960 . S
H1051 N1031 0.862 . S
O1052 Co1020 1.920 . S
O1052 C1025 1.289 . S
C1053 O1045 1.258 . S
C1053 O1046 1.266 . S
Co1054 O1057 1.970 . S
Co1054 N1071 1.989 . S
Co1054 O1079 1.967 . S
Co1054 O1086 1.920 . S
Co1055 O1058 1.966 . S
Co1055 N1064 2.022 . S
Co1055 N1072 1.993 . S
Co1055 O1080 1.941 . S
C1056 O1057 1.258 . S
C1056 O1058 1.263 . S
O1057 Co1054 1.970 . S
O1057 C1056 1.258 . S
O1058 Co1055 1.966 . S
O1058 C1056 1.263 . S
C1059 O1060 1.235 . S
C1059 O1086 1.289 . S
O1060 C1059 1.235 . S
C1061 C1063 1.400 . S
C1061 N1064 1.351 . S
C1061 C1066 1.501 . S
C1062 C1063 1.387 . S
C1062 N1065 1.341 . S
C1063 C1061 1.400 . S
C1063 C1062 1.387 . S
N1064 Co1055 2.022 . S
N1064 C1061 1.351 . S
N1064 N1065 1.365 . S
N1065 C1062 1.341 . S
N1065 N1064 1.365 . S
N1065 H1085 0.862 . S
C1066 C1061 1.501 . S
C1066 H1067 0.961 . S
C1066 H1068 0.961 . S
C1066 H1069 0.960 . S
H1067 C1066 0.961 . S
H1068 C1066 0.961 . S
H1069 C1066 0.960 . S
C1070 N1071 1.342 . S
C1070 C1074 1.401 . S
C1070 C1075 1.499 . S
N1071 Co1054 1.989 . S
N1071 C1070 1.342 . S
N1071 N1072 1.388 . S
N1072 Co1055 1.993 . S
N1072 N1071 1.388 . S
N1072 C1073 1.346 . S
C1073 N1072 1.346 . S
C1073 C1074 1.396 . S
C1073 C1083 1.510 . S
C1074 C1070 1.401 . S
C1074 C1073 1.396 . S
C1075 C1070 1.499 . S
C1075 H1076 0.959 . S
C1075 H1077 0.960 . S
C1075 H1078 0.961 . S
H1076 C1075 0.959 . S
H1077 C1075 0.960 . S
H1078 C1075 0.961 . S
O1079 Co1054 1.967 . S
O1079 C1087 1.258 . S
O1080 Co1055 1.941 . S
O1080 C1087 1.266 . S
H1081 C1083 0.959 . S
H1082 C1083 0.961 . S
C1083 C1073 1.510 . S
C1083 H1081 0.959 . S
C1083 H1082 0.961 . S
C1083 H1084 0.960 . S
H1084 C1083 0.960 . S
H1085 N1065 0.862 . S
O1086 Co1054 1.920 . S
O1086 C1059 1.289 . S
C1087 O1079 1.258 . S
C1087 O1080 1.266 . S
H1088 C1094 0.930 . S
H1089 C1098 0.930 . S
H1090 C1103 0.929 . S
H1091 C1101 0.929 . S
H1092 C1096 0.929 . S
H1093 C1102 0.929 . S
C1094 H1088 0.930 . S
C1094 C1095 1.395 . S
C1094 C1102 1.378 . S
C1095 C1094 1.395 . S
C1095 C1103 1.432 1_545 S
C1096 H1092 0.929 . S
C1096 C1098 1.378 . S
C1096 C1100 1.350 . S
C1097 C1100 1.463 . S
C1097 C1102 1.350 . S
C1097 N1105 1.427 . S
C1098 H1089 0.930 . S
C1098 C1096 1.378 . S
C1098 C1099 1.367 . S
C1099 C1098 1.367 . S
C1099 C1101 1.433 . S
C1100 C1096 1.350 . S
C1100 C1097 1.463 . S
C1100 N1104 1.427 . S
C1101 H1091 0.929 . S
C1101 C1099 1.433 . S
C1101 N1104 1.384 . S
C1102 H1093 0.929 . S
C1102 C1094 1.378 . S
C1102 C1097 1.350 . S
C1103 H1090 0.929 . S
C1103 C1095 1.432 1_565 S
C1103 N1105 1.384 1_565 S
N1104 C1100 1.427 . S
N1104 C1101 1.384 . S
N1105 C1097 1.427 . S
N1105 C1103 1.384 1_545 S
H1106 C1112 0.930 . S
H1107 C1116 0.930 . S
H1108 C1121 0.929 . S
H1109 C1119 0.929 . S
H1110 C1114 0.929 . S
H1111 C1120 0.929 . S
C1112 H1106 0.930 . S
C1112 C1113 1.367 . S
C1112 C1120 1.378 . S
C1113 C1112 1.367 . S
C1113 C1121 1.433 . S
C1114 H1110 0.929 . S
C1114 C1116 1.378 . S
C1114 C1118 1.350 . S
C1115 C1118 1.463 . S
C1115 C1120 1.350 . S
C1115 N1123 1.427 . S
C1116 H1107 0.930 . S
C1116 C1114 1.378 . S
C1116 C1117 1.367 . S
C1117 C1116 1.367 . S
C1117 C1119 1.433 . S
C1118 C1114 1.350 . S
C1118 C1115 1.463 . S
C1118 N1122 1.427 . S
C1119 H1109 0.929 . S
C1119 C1117 1.433 . S
C1119 N1122 1.384 . S
C1120 H1111 0.929 . S
C1120 C1112 1.378 . S
C1120 C1115 1.350 . S
C1121 H1108 0.929 . S
C1121 C1113 1.433 . S
C1121 N1123 1.384 . S
N1122 C1118 1.427 . S
N1122 C1119 1.384 . S
N1123 C1115 1.427 . S
N1123 C1121 1.384 . S
H1124 C1130 0.930 . S
H1125 C1134 0.930 1_545 S
H1126 C1139 0.929 . S
H1127 C1137 0.929 . S
H1128 C1132 0.929 . S
H1129 C1138 0.929 . S
C1130 H1124 0.930 . S
C1130 C1131 1.367 . S
C1130 C1138 1.378 . S
C1131 C1130 1.367 . S
C1131 C1139 1.433 . S
C1132 H1128 0.929 . S
C1132 C1134 1.378 . S
C1132 C1136 1.350 . S
C1133 C1136 1.463 . S
C1133 C1138 1.350 . S
C1133 N1141 1.427 . S
C1134 H1125 0.930 1_565 S
C1134 C1132 1.378 . S
C1134 C1135 1.370 . S
C1135 C1134 1.370 . S
C1135 C1137 1.445 . S
C1136 C1132 1.350 . S
C1136 C1133 1.463 . S
C1136 N1140 1.427 . S
C1137 H1127 0.929 . S
C1137 C1135 1.445 . S
C1137 N1140 1.384 . S
C1138 H1129 0.929 . S
C1138 C1130 1.378 . S
C1138 C1133 1.350 . S
C1139 H1126 0.929 . S
C1139 C1131 1.433 . S
C1139 N1141 1.384 . S
N1140 C1136 1.427 . S
N1140 C1137 1.384 . S
N1141 C1133 1.427 . S
N1141 C1139 1.384 . S
H1142 C1148 0.930 . S
H1143 C1152 0.930 . S
H1144 C1157 0.929 . S
H1145 C1155 0.929 . S
H1146 C1150 0.929 . S
H1147 C1156 0.929 . S
C1148 H1142 0.930 . S
C1148 C1149 1.367 . S
C1148 C1156 1.378 . S
C1149 C1148 1.367 . S
C1149 C1157 1.433 . S
C1150 H1146 0.929 . S
C1150 C1152 1.378 . S
C1150 C1154 1.350 . S
C1151 C1154 1.463 . S
C1151 C1156 1.350 . S
C1151 N1159 1.427 . S
C1152 H1143 0.930 . S
C1152 C1150 1.378 . S
C1152 C1153 1.367 . S
C1153 C1152 1.367 . S
C1153 C1155 1.433 . S
C1154 C1150 1.350 . S
C1154 C1151 1.463 . S
C1154 N1158 1.427 . S
C1155 H1145 0.929 . S
C1155 C1153 1.433 . S
C1155 N1158 1.384 . S
C1156 H1147 0.929 . S
C1156 C1148 1.378 . S
C1156 C1151 1.350 . S
C1157 H1144 0.929 . S
C1157 C1149 1.433 . S
C1157 N1159 1.384 . S
N1158 C1154 1.427 . S
N1158 C1155 1.384 . S
N1159 C1151 1.427 . S
N1159 C1157 1.384 . S
H1160 C1166 0.930 . S
H1161 C1170 0.930 . S
H1162 C1175 0.929 . S
H1163 C1173 0.929 . S
H1164 C1168 0.929 . S
H1165 C1174 0.929 . S
C1166 H1160 0.930 . S
C1166 C1167 1.367 . S
C1166 C1174 1.378 . S
C1167 C1166 1.367 . S
C1167 C1175 1.433 . S
C1168 H1164 0.929 . S
C1168 C1170 1.378 1_565 S
C1168 C1172 1.350 . S
C1169 C1172 1.463 . S
C1169 C1174 1.350 . S
C1169 N1177 1.427 . S
C1170 H1161 0.930 . S
C1170 C1168 1.378 1_545 S
C1170 C1171 1.365 1_545 S
C1171 C1170 1.365 1_565 S
C1171 C1173 1.441 . S
C1172 C1168 1.350 . S
C1172 C1169 1.463 . S
C1172 N1176 1.427 . S
C1173 H1163 0.929 . S
C1173 C1171 1.441 . S
C1173 N1176 1.384 . S
C1174 H1165 0.929 . S
C1174 C1166 1.378 . S
C1174 C1169 1.350 . S
C1175 H1162 0.929 . S
C1175 C1167 1.433 . S
C1175 N1177 1.384 . S
N1176 C1172 1.427 . S
N1176 C1173 1.384 . S
N1177 C1169 1.427 . S
N1177 C1175 1.384 . S
H1178 C1184 0.930 . S
H1179 C1188 0.930 . S
H1180 C1193 0.929 . S
H1181 C1191 0.929 . S
H1182 C1186 0.929 . S
H1183 C1192 0.929 . S
C1184 H1178 0.930 . S
C1184 C1185 1.367 . S
C1184 C1192 1.378 . S
C1185 C1184 1.367 . S
C1185 C1193 1.433 . S
C1186 H1182 0.929 . S
C1186 C1188 1.378 . S
C1186 C1190 1.350 . S
C1187 C1190 1.463 . S
C1187 C1192 1.350 . S
C1187 N1195 1.427 . S
C1188 H1179 0.930 . S
C1188 C1186 1.378 . S
C1188 C1189 1.367 . S
C1189 C1188 1.367 . S
C1189 C1191 1.433 . S
C1190 C1186 1.350 . S
C1190 C1187 1.463 . S
C1190 N1194 1.427 . S
C1191 H1181 0.929 . S
C1191 C1189 1.433 . S
C1191 N1194 1.384 . S
C1192 H1183 0.929 . S
C1192 C1184 1.378 . S
C1192 C1187 1.350 . S
C1193 H1180 0.929 . S
C1193 C1185 1.433 . S
C1193 N1195 1.384 . S
N1194 C1190 1.427 . S
N1194 C1191 1.384 . S
N1195 C1187 1.427 . S
N1195 C1193 1.384 . S
H1196 C1202 0.930 . S
H1197 C1206 0.930 . S
H1198 C1211 0.929 . S
H1199 C1209 0.929 . S
H1200 C1204 0.929 . S
H1201 C1210 0.929 . S
C1202 H1196 0.930 . S
C1202 C1203 1.367 . S
C1202 C1210 1.378 . S
C1203 C1202 1.367 . S
C1203 C1211 1.433 . S
C1204 H1200 0.929 . S
C1204 C1206 1.378 . S
C1204 C1208 1.350 . S
C1205 C1208 1.463 . S
C1205 C1210 1.350 . S
C1205 N1213 1.427 . S
C1206 H1197 0.930 . S
C1206 C1204 1.378 . S
C1206 C1207 1.403 . S
C1207 C1206 1.403 . S
C1207 C1209 1.427 1_545 S
C1208 C1204 1.350 . S
C1208 C1205 1.463 . S
C1208 N1212 1.427 . S
C1209 H1199 0.929 . S
C1209 C1207 1.427 1_565 S
C1209 N1212 1.384 1_565 S
C1210 H1201 0.929 . S
C1210 C1202 1.378 . S
C1210 C1205 1.350 . S
C1211 H1198 0.929 . S
C1211 C1203 1.433 . S
C1211 N1213 1.384 . S
N1212 C1208 1.427 . S
N1212 C1209 1.384 1_545 S
N1213 C1205 1.427 . S
N1213 C1211 1.384 . S
H1214 C1220 0.930 . S
H1215 C1224 0.930 . S
H1216 C1229 0.929 . S
H1217 C1227 0.929 . S
H1218 C1222 0.929 . S
H1219 C1228 0.929 . S
C1220 H1214 0.930 . S
C1220 C1221 1.367 . S
C1220 C1228 1.378 . S
C1221 C1220 1.367 . S
C1221 C1229 1.433 . S
C1222 H1218 0.929 . S
C1222 C1224 1.378 . S
C1222 C1226 1.350 . S
C1223 C1226 1.463 . S
C1223 C1228 1.350 . S
C1223 N1231 1.427 . S
C1224 H1215 0.930 . S
C1224 C1222 1.378 . S
C1224 C1225 1.367 . S
C1225 C1224 1.367 . S
C1225 C1227 1.433 . S
C1226 C1222 1.350 . S
C1226 C1223 1.463 . S
C1226 N1230 1.427 . S
C1227 H1217 0.929 . S
C1227 C1225 1.433 . S
C1227 N1230 1.384 . S
C1228 H1219 0.929 . S
C1228 C1220 1.378 . S
C1228 C1223 1.350 . S
C1229 H1216 0.929 . S
C1229 C1221 1.433 . S
C1229 N1231 1.384 . S
N1230 C1226 1.427 . S
N1230 C1227 1.384 . S
N1231 C1223 1.427 . S
N1231 C1229 1.384 . S
H1232 C1238 0.930 . S
H1233 C1242 0.930 . S
H1234 C1247 0.929 . S
H1235 C1245 0.929 . S
H1236 C1240 0.929 . S
H1237 C1246 0.929 . S
C1238 H1232 0.930 . S
C1238 C1239 1.365 1_545 S
C1238 C1246 1.378 1_545 S
C1239 C1238 1.365 1_565 S
C1239 C1247 1.442 . S
C1240 H1236 0.929 . S
C1240 C1242 1.378 . S
C1240 C1244 1.350 . S
C1241 C1244 1.463 . S
C1241 C1246 1.350 . S
C1241 N1249 1.427 . S
C1242 H1233 0.930 . S
C1242 C1240 1.378 . S
C1242 C1243 1.367 . S
C1243 C1242 1.367 . S
C1243 C1245 1.433 . S
C1244 C1240 1.350 . S
C1244 C1241 1.463 . S
C1244 N1248 1.427 . S
C1245 H1235 0.929 . S
C1245 C1243 1.433 . S
C1245 N1248 1.384 . S
C1246 H1237 0.929 . S
C1246 C1238 1.378 1_565 S
C1246 C1241 1.350 . S
C1247 H1234 0.929 . S
C1247 C1239 1.442 . S
C1247 N1249 1.384 . S
N1248 C1244 1.427 . S
N1248 C1245 1.384 . S
N1249 C1241 1.427 . S
N1249 C1247 1.384 . S
H1250 C1256 0.930 . S
H1251 C1260 0.930 . S
H1252 C1265 0.929 . S
H1253 C1263 0.929 . S
H1254 C1258 0.929 . S
H1255 C1264 0.929 . S
C1256 H1250 0.930 . S
C1256 C1257 1.367 . S
C1256 C1264 1.378 . S
C1257 C1256 1.367 . S
C1257 C1265 1.433 . S
C1258 H1254 0.929 . S
C1258 C1260 1.378 . S
C1258 C1262 1.350 . S
C1259 C1262 1.463 . S
C1259 C1264 1.350 . S
C1259 N1267 1.427 . S
C1260 H1251 0.930 . S
C1260 C1258 1.378 . S
C1260 C1261 1.367 . S
C1261 C1260 1.367 . S
C1261 C1263 1.433 . S
C1262 C1258 1.350 . S
C1262 C1259 1.463 . S
C1262 N1266 1.427 . S
C1263 H1253 0.929 . S
C1263 C1261 1.433 . S
C1263 N1266 1.384 . S
C1264 H1255 0.929 . S
C1264 C1256 1.378 . S
C1264 C1259 1.350 . S
C1265 H1252 0.929 . S
C1265 C1257 1.433 . S
C1265 N1267 1.384 . S
N1266 C1262 1.427 . S
N1266 C1263 1.384 . S
N1267 C1259 1.427 . S
N1267 C1265 1.384 . S
H1268 C1274 0.930 . S
H1269 C1278 0.930 1_565 S
H1270 C1283 0.929 . S
H1271 C1281 0.929 . S
H1272 C1276 0.929 . S
H1273 C1282 0.929 . S
C1274 H1268 0.930 . S
C1274 C1275 1.367 . S
C1274 C1282 1.378 . S
C1275 C1274 1.367 . S
C1275 C1283 1.433 . S
C1276 H1272 0.929 . S
C1276 C1278 1.378 . S
C1276 C1280 1.350 . S
C1277 C1280 1.463 . S
C1277 C1282 1.350 . S
C1277 N1285 1.427 . S
C1278 H1269 0.930 1_545 S
C1278 C1276 1.378 . S
C1278 C1279 1.369 . S
C1279 C1278 1.369 . S
C1279 C1281 1.445 . S
C1280 C1276 1.350 . S
C1280 C1277 1.463 . S
C1280 N1284 1.427 . S
C1281 H1271 0.929 . S
C1281 C1279 1.445 . S
C1281 N1284 1.384 . S
C1282 H1273 0.929 . S
C1282 C1274 1.378 . S
C1282 C1277 1.350 . S
C1283 H1270 0.929 . S
C1283 C1275 1.433 . S
C1283 N1285 1.384 . S
N1284 C1280 1.427 . S
N1284 C1281 1.384 . S
N1285 C1277 1.427 . S
N1285 C1283 1.384 . S
H1286 C1292 0.930 . S
H1287 C1296 0.930 . S
H1288 C1301 0.929 . S
H1289 C1299 0.929 . S
H1290 C1294 0.929 . S
H1291 C1300 0.929 . S
C1292 H1286 0.930 . S
C1292 C1293 1.367 . S
C1292 C1300 1.378 . S
C1293 C1292 1.367 . S
C1293 C1301 1.433 . S
C1294 H1290 0.929 . S
C1294 C1296 1.378 . S
C1294 C1298 1.350 . S
C1295 C1298 1.463 . S
C1295 C1300 1.350 . S
C1295 N1303 1.427 . S
C1296 H1287 0.930 . S
C1296 C1294 1.378 . S
C1296 C1297 1.367 . S
C1297 C1296 1.367 . S
C1297 C1299 1.433 . S
C1298 C1294 1.350 . S
C1298 C1295 1.463 . S
C1298 N1302 1.427 . S
C1299 H1289 0.929 . S
C1299 C1297 1.433 . S
C1299 N1302 1.384 . S
C1300 H1291 0.929 . S
C1300 C1292 1.378 . S
C1300 C1295 1.350 . S
C1301 H1288 0.929 . S
C1301 C1293 1.433 . S
C1301 N1303 1.384 . S
N1302 C1298 1.427 . S
N1302 C1299 1.384 . S
N1303 C1295 1.427 . S
N1303 C1301 1.384 . S
H1304 C1310 0.930 . S
H1305 C1314 0.930 . S
H1306 C1319 0.929 . S
H1307 C1317 0.929 . S
H1308 C1312 0.929 . S
H1309 C1318 0.929 . S
C1310 H1304 0.930 . S
C1310 C1311 1.367 . S
C1310 C1318 1.378 . S
C1311 C1310 1.367 . S
C1311 C1319 1.433 . S
C1312 H1308 0.929 . S
C1312 C1314 1.378 . S
C1312 C1316 1.350 . S
C1313 C1316 1.463 . S
C1313 C1318 1.350 . S
C1313 N1321 1.427 . S
C1314 H1305 0.930 . S
C1314 C1312 1.378 . S
C1314 C1315 1.403 . S
C1315 C1314 1.403 . S
C1315 C1317 1.427 1_545 S
C1316 C1312 1.350 . S
C1316 C1313 1.463 . S
C1316 N1320 1.427 . S
C1317 H1307 0.929 . S
C1317 C1315 1.427 1_565 S
C1317 N1320 1.384 1_565 S
C1318 H1309 0.929 . S
C1318 C1310 1.378 . S
C1318 C1313 1.350 . S
C1319 H1306 0.929 . S
C1319 C1311 1.433 . S
C1319 N1321 1.384 . S
N1320 C1316 1.427 . S
N1320 C1317 1.384 1_545 S
N1321 C1313 1.427 . S
N1321 C1319 1.384 . S
H1322 C1328 0.930 . S
H1323 C1332 0.930 . S
H1324 C1337 0.929 . S
H1325 C1335 0.929 . S
H1326 C1330 0.929 . S
H1327 C1336 0.929 . S
C1328 H1322 0.930 . S
C1328 C1329 1.367 . S
C1328 C1336 1.378 . S
C1329 C1328 1.367 . S
C1329 C1337 1.433 . S
C1330 H1326 0.929 . S
C1330 C1332 1.378 . S
C1330 C1334 1.350 . S
C1331 C1334 1.463 . S
C1331 C1336 1.350 . S
C1331 N1339 1.427 . S
C1332 H1323 0.930 . S
C1332 C1330 1.378 . S
C1332 C1333 1.367 . S
C1333 C1332 1.367 . S
C1333 C1335 1.433 . S
C1334 C1330 1.350 . S
C1334 C1331 1.463 . S
C1334 N1338 1.427 . S
C1335 H1325 0.929 . S
C1335 C1333 1.433 . S
C1335 N1338 1.384 . S
C1336 H1327 0.929 . S
C1336 C1328 1.378 . S
C1336 C1331 1.350 . S
C1337 H1324 0.929 . S
C1337 C1329 1.433 . S
C1337 N1339 1.384 . S
N1338 C1334 1.427 . S
N1338 C1335 1.384 . S
N1339 C1331 1.427 . S
N1339 C1337 1.384 . S
H1340 C1346 0.930 . S
H1341 C1350 0.930 . S
H1342 C1355 0.929 1_545 S
H1343 C1353 0.929 . S
H1344 C1348 0.929 . S
H1345 C1354 0.929 . S
C1346 H1340 0.930 . S
C1346 C1347 1.386 . S
C1346 C1354 1.378 . S
C1347 C1346 1.386 . S
C1347 C1355 1.438 . S
C1348 H1344 0.929 . S
C1348 C1350 1.378 . S
C1348 C1352 1.350 . S
C1349 C1352 1.463 . S
C1349 C1354 1.350 . S
C1349 N1357 1.427 . S
C1350 H1341 0.930 . S
C1350 C1348 1.378 . S
C1350 C1351 1.367 . S
C1351 C1350 1.367 . S
C1351 C1353 1.433 . S
C1352 C1348 1.350 . S
C1352 C1349 1.463 . S
C1352 N1356 1.427 . S
C1353 H1343 0.929 . S
C1353 C1351 1.433 . S
C1353 N1356 1.384 . S
C1354 H1345 0.929 . S
C1354 C1346 1.378 . S
C1354 C1349 1.350 . S
C1355 H1342 0.929 1_565 S
C1355 C1347 1.438 . S
C1355 N1357 1.384 . S
N1356 C1352 1.427 . S
N1356 C1353 1.384 . S
N1357 C1349 1.427 . S
N1357 C1355 1.384 . S
H1358 C1364 0.930 . S
H1359 C1368 0.930 . S
H1360 C1373 0.929 . S
H1361 C1371 0.929 . S
H1362 C1366 0.929 . S
H1363 C1372 0.929 . S
C1364 H1358 0.930 . S
C1364 C1365 1.367 . S
C1364 C1372 1.378 . S
C1365 C1364 1.367 . S
C1365 C1373 1.433 . S
C1366 H1362 0.929 . S
C1366 C1368 1.378 . S
C1366 C1370 1.350 . S
C1367 C1370 1.463 . S
C1367 C1372 1.350 . S
C1367 N1375 1.427 . S
C1368 H1359 0.930 . S
C1368 C1366 1.378 . S
C1368 C1369 1.367 . S
C1369 C1368 1.367 . S
C1369 C1371 1.433 . S
C1370 C1366 1.350 . S
C1370 C1367 1.463 . S
C1370 N1374 1.427 . S
C1371 H1361 0.929 . S
C1371 C1369 1.433 . S
C1371 N1374 1.384 . S
C1372 H1363 0.929 . S
C1372 C1364 1.378 . S
C1372 C1367 1.350 . S
C1373 H1360 0.929 . S
C1373 C1365 1.433 . S
C1373 N1375 1.384 . S
N1374 C1370 1.427 . S
N1374 C1371 1.384 . S
N1375 C1367 1.427 . S
N1375 C1373 1.384 . S
H1376 C1382 0.930 . S
H1377 C1386 0.930 . S
H1378 C1391 0.929 . S
H1379 C1389 0.929 . S
H1380 C1384 0.929 . S
H1381 C1390 0.929 . S
C1382 H1376 0.930 . S
C1382 C1383 1.367 . S
C1382 C1390 1.378 . S
C1383 C1382 1.367 . S
C1383 C1391 1.433 . S
C1384 H1380 0.929 . S
C1384 C1386 1.378 . S
C1384 C1388 1.350 . S
C1385 C1388 1.463 . S
C1385 C1390 1.350 . S
C1385 N1393 1.427 . S
C1386 H1377 0.930 . S
C1386 C1384 1.378 . S
C1386 C1387 1.367 . S
C1387 C1386 1.367 . S
C1387 C1389 1.433 . S
C1388 C1384 1.350 . S
C1388 C1385 1.463 . S
C1388 N1392 1.427 . S
C1389 H1379 0.929 . S
C1389 C1387 1.433 . S
C1389 N1392 1.384 . S
C1390 H1381 0.929 . S
C1390 C1382 1.378 . S
C1390 C1385 1.350 . S
C1391 H1378 0.929 . S
C1391 C1383 1.433 . S
C1391 N1393 1.384 . S
N1392 C1388 1.427 . S
N1392 C1389 1.384 . S
N1393 C1385 1.427 . S
N1393 C1391 1.384 . S
H1394 C1400 0.930 . S
H1395 C1404 0.930 . S
H1396 C1409 0.929 . S
H1397 C1407 0.929 . S
H1398 C1402 0.929 . S
H1399 C1408 0.929 . S
C1400 H1394 0.930 . S
C1400 C1401 1.367 . S
C1400 C1408 1.378 . S
C1401 C1400 1.367 . S
C1401 C1409 1.433 . S
C1402 H1398 0.929 . S
C1402 C1404 1.378 . S
C1402 C1406 1.350 . S
C1403 C1406 1.463 . S
C1403 C1408 1.350 . S
C1403 N1411 1.427 . S
C1404 H1395 0.930 . S
C1404 C1402 1.378 . S
C1404 C1405 1.367 . S
C1405 C1404 1.367 . S
C1405 C1407 1.433 . S
C1406 C1402 1.350 . S
C1406 C1403 1.463 . S
C1406 N1410 1.427 . S
C1407 H1397 0.929 . S
C1407 C1405 1.433 . S
C1407 N1410 1.384 . S
C1408 H1399 0.929 . S
C1408 C1400 1.378 . S
C1408 C1403 1.350 . S
C1409 H1396 0.929 . S
C1409 C1401 1.433 . S
C1409 N1411 1.384 . S
N1410 C1406 1.427 . S
N1410 C1407 1.384 . S
N1411 C1403 1.427 . S
N1411 C1409 1.384 . S
H1412 C1418 0.930 . S
H1413 C1422 0.930 . S
H1414 C1427 0.929 . S
H1415 C1425 0.929 . S
H1416 C1420 0.929 . S
H1417 C1426 0.929 . S
C1418 H1412 0.930 . S
C1418 C1419 1.367 . S
C1418 C1426 1.378 . S
C1419 C1418 1.367 . S
C1419 C1427 1.433 . S
C1420 H1416 0.929 . S
C1420 C1422 1.378 . S
C1420 C1424 1.350 . S
C1421 C1424 1.463 . S
C1421 C1426 1.350 . S
C1421 N1429 1.427 . S
C1422 H1413 0.930 . S
C1422 C1420 1.378 . S
C1422 C1423 1.367 . S
C1423 C1422 1.367 . S
C1423 C1425 1.433 . S
C1424 C1420 1.350 . S
C1424 C1421 1.463 . S
C1424 N1428 1.427 . S
C1425 H1415 0.929 . S
C1425 C1423 1.433 . S
C1425 N1428 1.384 . S
C1426 H1417 0.929 . S
C1426 C1418 1.378 . S
C1426 C1421 1.350 . S
C1427 H1414 0.929 . S
C1427 C1419 1.433 . S
C1427 N1429 1.384 . S
N1428 C1424 1.427 . S
N1428 C1425 1.384 . S
N1429 C1421 1.427 . S
N1429 C1427 1.384 . S
H1430 C1436 0.930 . S
H1431 C1440 0.930 . S
H1432 C1445 0.929 . S
H1433 C1443 0.929 . S
H1434 C1438 0.929 . S
H1435 C1444 0.929 . S
C1436 H1430 0.930 . S
C1436 C1437 1.367 . S
C1436 C1444 1.378 . S
C1437 C1436 1.367 . S
C1437 C1445 1.433 . S
C1438 H1434 0.929 . S
C1438 C1440 1.378 . S
C1438 C1442 1.350 . S
C1439 C1442 1.463 . S
C1439 C1444 1.350 . S
C1439 N1447 1.427 . S
C1440 H1431 0.930 . S
C1440 C1438 1.378 . S
C1440 C1441 1.367 . S
C1441 C1440 1.367 . S
C1441 C1443 1.433 . S
C1442 C1438 1.350 . S
C1442 C1439 1.463 . S
C1442 N1446 1.427 . S
C1443 H1433 0.929 . S
C1443 C1441 1.433 . S
C1443 N1446 1.384 . S
C1444 H1435 0.929 . S
C1444 C1436 1.378 . S
C1444 C1439 1.350 . S
C1445 H1432 0.929 . S
C1445 C1437 1.433 . S
C1445 N1447 1.384 . S
N1446 C1442 1.427 . S
N1446 C1443 1.384 . S
N1447 C1439 1.427 . S
N1447 C1445 1.384 . S
H1448 C1454 0.930 . S
H1449 C1458 0.930 . S
H1450 C1463 0.929 . S
H1451 C1461 0.929 . S
H1452 C1456 0.929 . S
H1453 C1462 0.929 . S
C1454 H1448 0.930 . S
C1454 C1455 1.367 . S
C1454 C1462 1.378 . S
C1455 C1454 1.367 . S
C1455 C1463 1.433 . S
C1456 H1452 0.929 . S
C1456 C1458 1.378 . S
C1456 C1460 1.350 . S
C1457 C1460 1.463 . S
C1457 C1462 1.350 . S
C1457 N1465 1.427 . S
C1458 H1449 0.930 . S
C1458 C1456 1.378 . S
C1458 C1459 1.367 . S
C1459 C1458 1.367 . S
C1459 C1461 1.433 . S
C1460 C1456 1.350 . S
C1460 C1457 1.463 . S
C1460 N1464 1.427 . S
C1461 H1451 0.929 . S
C1461 C1459 1.433 . S
C1461 N1464 1.384 . S
C1462 H1453 0.929 . S
C1462 C1454 1.378 . S
C1462 C1457 1.350 . S
C1463 H1450 0.929 . S
C1463 C1455 1.433 . S
C1463 N1465 1.384 . S
N1464 C1460 1.427 . S
N1464 C1461 1.384 . S
N1465 C1457 1.427 . S
N1465 C1463 1.384 . S
H1466 C1472 0.930 . S
H1467 C1476 0.930 . S
H1468 C1481 0.929 . S
H1469 C1479 0.929 . S
H1470 C1474 0.929 . S
H1471 C1480 0.929 . S
C1472 H1466 0.930 . S
C1472 C1473 1.367 . S
C1472 C1480 1.378 . S
C1473 C1472 1.367 . S
C1473 C1481 1.433 . S
C1474 H1470 0.929 . S
C1474 C1476 1.378 . S
C1474 C1478 1.350 . S
C1475 C1478 1.463 . S
C1475 C1480 1.350 . S
C1475 N1483 1.427 . S
C1476 H1467 0.930 . S
C1476 C1474 1.378 . S
C1476 C1477 1.367 . S
C1477 C1476 1.367 . S
C1477 C1479 1.433 . S
C1478 C1474 1.350 . S
C1478 C1475 1.463 . S
C1478 N1482 1.427 . S
C1479 H1469 0.929 . S
C1479 C1477 1.433 . S
C1479 N1482 1.384 . S
C1480 H1471 0.929 . S
C1480 C1472 1.378 . S
C1480 C1475 1.350 . S
C1481 H1468 0.929 . S
C1481 C1473 1.433 . S
C1481 N1483 1.384 . S
N1482 C1478 1.427 . S
N1482 C1479 1.384 . S
N1483 C1475 1.427 . S
N1483 C1481 1.384 . S
H1484 C1490 0.930 . S
H1485 C1494 0.930 . S
H1486 C1499 0.929 . S
H1487 C1497 0.929 . S
H1488 C1492 0.929 . S
H1489 C1498 0.929 . S
C1490 H1484 0.930 . S
C1490 C1491 1.367 . S
C1490 C1498 1.378 . S
C1491 C1490 1.367 . S
C1491 C1499 1.433 . S
C1492 H1488 0.929 . S
C1492 C1494 1.378 . S
C1492 C1496 1.350 . S
C1493 C1496 1.463 . S
C1493 C1498 1.350 . S
C1493 N1501 1.427 . S
C1494 H1485 0.930 . S
C1494 C1492 1.378 . S
C1494 C1495 1.367 . S
C1495 C1494 1.367 . S
C1495 C1497 1.433 . S
C1496 C1492 1.350 . S
C1496 C1493 1.463 . S
C1496 N1500 1.427 . S
C1497 H1487 0.929 . S
C1497 C1495 1.433 . S
C1497 N1500 1.384 . S
C1498 H1489 0.929 . S
C1498 C1490 1.378 . S
C1498 C1493 1.350 . S
C1499 H1486 0.929 . S
C1499 C1491 1.433 . S
C1499 N1501 1.384 . S
N1500 C1496 1.427 . S
N1500 C1497 1.384 . S
N1501 C1493 1.427 . S
N1501 C1499 1.384 . S
H1502 C1508 0.930 . S
H1503 C1512 0.930 . S
H1504 C1517 0.929 . S
H1505 C1515 0.929 . S
H1506 C1510 0.929 . S
H1507 C1516 0.929 . S
C1508 H1502 0.930 . S
C1508 C1509 1.367 . S
C1508 C1516 1.378 . S
C1509 C1508 1.367 . S
C1509 C1517 1.433 . S
C1510 H1506 0.929 . S
C1510 C1512 1.378 . S
C1510 C1514 1.350 . S
C1511 C1514 1.463 . S
C1511 C1516 1.350 . S
C1511 N1519 1.427 . S
C1512 H1503 0.930 . S
C1512 C1510 1.378 . S
C1512 C1513 1.367 . S
C1513 C1512 1.367 . S
C1513 C1515 1.433 . S
C1514 C1510 1.350 . S
C1514 C1511 1.463 . S
C1514 N1518 1.427 . S
C1515 H1505 0.929 . S
C1515 C1513 1.433 . S
C1515 N1518 1.384 . S
C1516 H1507 0.929 . S
C1516 C1508 1.378 . S
C1516 C1511 1.350 . S
C1517 H1504 0.929 . S
C1517 C1509 1.433 . S
C1517 N1519 1.384 . S
N1518 C1514 1.427 . S
N1518 C1515 1.384 . S
N1519 C1511 1.427 . S
N1519 C1517 1.384 . S
H1520 C1526 0.930 . S
H1521 C1530 0.930 . S
H1522 C1535 0.929 . S
H1523 C1533 0.929 . S
H1524 C1528 0.929 . S
H1525 C1534 0.929 . S
C1526 H1520 0.930 . S
C1526 C1527 1.367 . S
C1526 C1534 1.378 . S
C1527 C1526 1.367 . S
C1527 C1535 1.433 . S
C1528 H1524 0.929 . S
C1528 C1530 1.378 . S
C1528 C1532 1.350 . S
C1529 C1532 1.463 . S
C1529 C1534 1.350 . S
C1529 N1537 1.427 . S
C1530 H1521 0.930 . S
C1530 C1528 1.378 . S
C1530 C1531 1.367 . S
C1531 C1530 1.367 . S
C1531 C1533 1.433 . S
C1532 C1528 1.350 . S
C1532 C1529 1.463 . S
C1532 N1536 1.427 . S
C1533 H1523 0.929 . S
C1533 C1531 1.433 . S
C1533 N1536 1.384 . S
C1534 H1525 0.929 . S
C1534 C1526 1.378 . S
C1534 C1529 1.350 . S
C1535 H1522 0.929 . S
C1535 C1527 1.433 . S
C1535 N1537 1.384 . S
N1536 C1532 1.427 . S
N1536 C1533 1.384 . S
N1537 C1529 1.427 . S
N1537 C1535 1.384 . S
H1538 C1544 0.930 . S
H1539 C1548 0.930 . S
H1540 C1553 0.929 . S
H1541 C1551 0.929 . S
H1542 C1546 0.929 . S
H1543 C1552 0.929 . S
C1544 H1538 0.930 . S
C1544 C1545 1.367 . S
C1544 C1552 1.378 . S
C1545 C1544 1.367 . S
C1545 C1553 1.433 . S
C1546 H1542 0.929 . S
C1546 C1548 1.378 . S
C1546 C1550 1.350 . S
C1547 C1550 1.463 . S
C1547 C1552 1.350 . S
C1547 N1555 1.427 . S
C1548 H1539 0.930 . S
C1548 C1546 1.378 . S
C1548 C1549 1.367 . S
C1549 C1548 1.367 . S
C1549 C1551 1.433 . S
C1550 C1546 1.350 . S
C1550 C1547 1.463 . S
C1550 N1554 1.427 . S
C1551 H1541 0.929 . S
C1551 C1549 1.433 . S
C1551 N1554 1.384 . S
C1552 H1543 0.929 . S
C1552 C1544 1.378 . S
C1552 C1547 1.350 . S
C1553 H1540 0.929 . S
C1553 C1545 1.433 . S
C1553 N1555 1.384 . S
N1554 C1550 1.427 . S
N1554 C1551 1.384 . S
N1555 C1547 1.427 . S
N1555 C1553 1.384 . S
H1556 C1562 0.930 . S
H1557 C1566 0.930 . S
H1558 C1571 0.929 . S
H1559 C1569 0.929 . S
H1560 C1564 0.929 . S
H1561 C1570 0.929 . S
C1562 H1556 0.930 . S
C1562 C1563 1.367 . S
C1562 C1570 1.378 . S
C1563 C1562 1.367 . S
C1563 C1571 1.433 . S
C1564 H1560 0.929 . S
C1564 C1566 1.378 . S
C1564 C1568 1.350 . S
C1565 C1568 1.463 . S
C1565 C1570 1.350 . S
C1565 N1573 1.427 . S
C1566 H1557 0.930 . S
C1566 C1564 1.378 . S
C1566 C1567 1.367 . S
C1567 C1566 1.367 . S
C1567 C1569 1.433 . S
C1568 C1564 1.350 . S
C1568 C1565 1.463 . S
C1568 N1572 1.427 . S
C1569 H1559 0.929 . S
C1569 C1567 1.433 . S
C1569 N1572 1.384 . S
C1570 H1561 0.929 . S
C1570 C1562 1.378 . S
C1570 C1565 1.350 . S
C1571 H1558 0.929 . S
C1571 C1563 1.433 . S
C1571 N1573 1.384 . S
N1572 C1568 1.427 . S
N1572 C1569 1.384 . S
N1573 C1565 1.427 . S
N1573 C1571 1.384 . S
H1574 C1580 0.930 . S
H1575 C1584 0.930 . S
H1576 C1589 0.929 . S
H1577 C1587 0.929 . S
H1578 C1582 0.929 . S
H1579 C1588 0.929 . S
C1580 H1574 0.930 . S
C1580 C1581 1.367 . S
C1580 C1588 1.378 . S
C1581 C1580 1.367 . S
C1581 C1589 1.433 . S
C1582 H1578 0.929 . S
C1582 C1584 1.378 . S
C1582 C1586 1.350 . S
C1583 C1586 1.463 . S
C1583 C1588 1.350 . S
C1583 N1591 1.427 . S
C1584 H1575 0.930 . S
C1584 C1582 1.378 . S
C1584 C1585 1.367 . S
C1585 C1584 1.367 . S
C1585 C1587 1.433 . S
C1586 C1582 1.350 . S
C1586 C1583 1.463 . S
C1586 N1590 1.427 . S
C1587 H1577 0.929 . S
C1587 C1585 1.433 . S
C1587 N1590 1.384 . S
C1588 H1579 0.929 . S
C1588 C1580 1.378 . S
C1588 C1583 1.350 . S
C1589 H1576 0.929 . S
C1589 C1581 1.433 . S
C1589 N1591 1.384 . S
N1590 C1586 1.427 . S
N1590 C1587 1.384 . S
N1591 C1583 1.427 . S
N1591 C1589 1.384 . S
H1592 C1598 0.930 . S
H1593 C1602 0.930 . S
H1594 C1607 0.929 . S
H1595 C1605 0.929 . S
H1596 C1600 0.929 . S
H1597 C1606 0.929 . S
C1598 H1592 0.930 . S
C1598 C1599 1.367 . S
C1598 C1606 1.378 . S
C1599 C1598 1.367 . S
C1599 C1607 1.433 . S
C1600 H1596 0.929 . S
C1600 C1602 1.378 . S
C1600 C1604 1.350 . S
C1601 C1604 1.463 . S
C1601 C1606 1.350 . S
C1601 N1609 1.427 . S
C1602 H1593 0.930 . S
C1602 C1600 1.378 . S
C1602 C1603 1.367 . S
C1603 C1602 1.367 . S
C1603 C1605 1.433 . S
C1604 C1600 1.350 . S
C1604 C1601 1.463 . S
C1604 N1608 1.427 . S
C1605 H1595 0.929 . S
C1605 C1603 1.433 . S
C1605 N1608 1.384 . S
C1606 H1597 0.929 . S
C1606 C1598 1.378 . S
C1606 C1601 1.350 . S
C1607 H1594 0.929 . S
C1607 C1599 1.433 . S
C1607 N1609 1.384 . S
N1608 C1604 1.427 . S
N1608 C1605 1.384 . S
N1609 C1601 1.427 . S
N1609 C1607 1.384 . S
H1610 C1616 0.930 . S
H1611 C1620 0.930 . S
H1612 C1625 0.929 . S
H1613 C1623 0.929 . S
H1614 C1618 0.929 . S
H1615 C1624 0.929 . S
C1616 H1610 0.930 . S
C1616 C1617 1.367 . S
C1616 C1624 1.378 . S
C1617 C1616 1.367 . S
C1617 C1625 1.433 . S
C1618 H1614 0.929 . S
C1618 C1620 1.378 . S
C1618 C1622 1.350 . S
C1619 C1622 1.463 . S
C1619 C1624 1.350 . S
C1619 N1627 1.427 . S
C1620 H1611 0.930 . S
C1620 C1618 1.378 . S
C1620 C1621 1.367 . S
C1621 C1620 1.367 . S
C1621 C1623 1.433 . S
C1622 C1618 1.350 . S
C1622 C1619 1.463 . S
C1622 N1626 1.427 . S
C1623 H1613 0.929 . S
C1623 C1621 1.433 . S
C1623 N1626 1.384 . S
C1624 H1615 0.929 . S
C1624 C1616 1.378 . S
C1624 C1619 1.350 . S
C1625 H1612 0.929 . S
C1625 C1617 1.433 . S
C1625 N1627 1.384 . S
N1626 C1622 1.427 . S
N1626 C1623 1.384 . S
N1627 C1619 1.427 . S
N1627 C1625 1.384 . S
H1628 C1634 0.930 . S
H1629 C1638 0.930 . S
H1630 C1643 0.929 . S
H1631 C1641 0.929 . S
H1632 C1636 0.929 . S
H1633 C1642 0.929 . S
C1634 H1628 0.930 . S
C1634 C1635 1.367 . S
C1634 C1642 1.378 . S
C1635 C1634 1.367 . S
C1635 C1643 1.433 . S
C1636 H1632 0.929 . S
C1636 C1638 1.378 . S
C1636 C1640 1.350 . S
C1637 C1640 1.463 . S
C1637 C1642 1.350 . S
C1637 N1645 1.427 . S
C1638 H1629 0.930 . S
C1638 C1636 1.378 . S
C1638 C1639 1.367 . S
C1639 C1638 1.367 . S
C1639 C1641 1.433 . S
C1640 C1636 1.350 . S
C1640 C1637 1.463 . S
C1640 N1644 1.427 . S
C1641 H1631 0.929 . S
C1641 C1639 1.433 . S
C1641 N1644 1.384 . S
C1642 H1633 0.929 . S
C1642 C1634 1.378 . S
C1642 C1637 1.350 . S
C1643 H1630 0.929 . S
C1643 C1635 1.433 . S
C1643 N1645 1.384 . S
N1644 C1640 1.427 . S
N1644 C1641 1.384 . S
N1645 C1637 1.427 . S
N1645 C1643 1.384 . S
H1646 C1652 0.930 . S
H1647 C1656 0.930 . S
H1648 C1661 0.929 . S
H1649 C1659 0.929 . S
H1650 C1654 0.929 . S
H1651 C1660 0.929 . S
C1652 H1646 0.930 . S
C1652 C1653 1.367 . S
C1652 C1660 1.378 . S
C1653 C1652 1.367 . S
C1653 C1661 1.433 . S
C1654 H1650 0.929 . S
C1654 C1656 1.378 . S
C1654 C1658 1.350 . S
C1655 C1658 1.463 . S
C1655 C1660 1.350 . S
C1655 N1663 1.427 . S
C1656 H1647 0.930 . S
C1656 C1654 1.378 . S
C1656 C1657 1.367 . S
C1657 C1656 1.367 . S
C1657 C1659 1.433 . S
C1658 C1654 1.350 . S
C1658 C1655 1.463 . S
C1658 N1662 1.427 . S
C1659 H1649 0.929 . S
C1659 C1657 1.433 . S
C1659 N1662 1.384 . S
C1660 H1651 0.929 . S
C1660 C1652 1.378 . S
C1660 C1655 1.350 . S
C1661 H1648 0.929 . S
C1661 C1653 1.433 . S
C1661 N1663 1.384 . S
N1662 C1658 1.427 . S
N1662 C1659 1.384 . S
N1663 C1655 1.427 . S
N1663 C1661 1.384 . S
H1664 C1670 0.930 . S
H1665 C1674 0.930 . S
H1666 C1679 0.929 . S
H1667 C1677 0.929 . S
H1668 C1672 0.929 . S
H1669 C1678 0.929 . S
C1670 H1664 0.930 . S
C1670 C1671 1.367 . S
C1670 C1678 1.378 . S
C1671 C1670 1.367 . S
C1671 C1679 1.433 . S
C1672 H1668 0.929 . S
C1672 C1674 1.378 . S
C1672 C1676 1.350 . S
C1673 C1676 1.463 . S
C1673 C1678 1.350 . S
C1673 N1681 1.427 . S
C1674 H1665 0.930 . S
C1674 C1672 1.378 . S
C1674 C1675 1.367 . S
C1675 C1674 1.367 . S
C1675 C1677 1.433 . S
C1676 C1672 1.350 . S
C1676 C1673 1.463 . S
C1676 N1680 1.427 . S
C1677 H1667 0.929 . S
C1677 C1675 1.433 . S
C1677 N1680 1.384 . S
C1678 H1669 0.929 . S
C1678 C1670 1.378 . S
C1678 C1673 1.350 . S
C1679 H1666 0.929 . S
C1679 C1671 1.433 . S
C1679 N1681 1.384 . S
N1680 C1676 1.427 . S
N1680 C1677 1.384 . S
N1681 C1673 1.427 . S
N1681 C1679 1.384 . S
H1682 C1688 0.930 . S
H1683 C1692 0.930 . S
H1684 C1697 0.929 . S
H1685 C1695 0.929 . S
H1686 C1690 0.929 . S
H1687 C1696 0.929 . S
C1688 H1682 0.930 . S
C1688 C1689 1.367 . S
C1688 C1696 1.378 . S
C1689 C1688 1.367 . S
C1689 C1697 1.433 1_565 S
C1690 H1686 0.929 . S
C1690 C1692 1.378 . S
C1690 C1694 1.350 . S
C1691 C1694 1.463 1_565 S
C1691 C1696 1.350 . S
C1691 N1699 1.427 1_565 S
C1692 H1683 0.930 . S
C1692 C1690 1.378 . S
C1692 C1693 1.367 . S
C1693 C1692 1.367 . S
C1693 C1695 1.433 1_545 S
C1694 C1690 1.350 . S
C1694 C1691 1.463 1_545 S
C1694 N1698 1.427 1_545 S
C1695 H1685 0.929 . S
C1695 C1693 1.433 1_565 S
C1695 N1698 1.384 . S
C1696 H1687 0.929 . S
C1696 C1688 1.378 . S
C1696 C1691 1.350 . S
C1697 H1684 0.929 . S
C1697 C1689 1.433 1_545 S
C1697 N1699 1.384 . S
N1698 C1694 1.427 1_565 S
N1698 C1695 1.384 . S
N1699 C1691 1.427 1_545 S
N1699 C1697 1.384 . S
H1700 C1706 0.930 . S
H1701 C1710 0.930 . S
H1702 C1715 0.929 . S
H1703 C1713 0.929 . S
H1704 C1708 0.929 . S
H1705 C1714 0.929 . S
C1706 H1700 0.930 . S
C1706 C1707 1.367 . S
C1706 C1714 1.378 . S
C1707 C1706 1.367 . S
C1707 C1715 1.433 . S
C1708 H1704 0.929 . S
C1708 C1710 1.378 . S
C1708 C1712 1.350 . S
C1709 C1712 1.463 . S
C1709 C1714 1.350 . S
C1709 N1717 1.427 . S
C1710 H1701 0.930 . S
C1710 C1708 1.378 . S
C1710 C1711 1.367 . S
C1711 C1710 1.367 . S
C1711 C1713 1.433 . S
C1712 C1708 1.350 . S
C1712 C1709 1.463 . S
C1712 N1716 1.427 . S
C1713 H1703 0.929 . S
C1713 C1711 1.433 . S
C1713 N1716 1.384 . S
C1714 H1705 0.929 . S
C1714 C1706 1.378 . S
C1714 C1709 1.350 . S
C1715 H1702 0.929 . S
C1715 C1707 1.433 . S
C1715 N1717 1.384 . S
N1716 C1712 1.427 . S
N1716 C1713 1.384 . S
N1717 C1709 1.427 . S
N1717 C1715 1.384 . S
H1718 C1724 0.930 . S
H1719 C1728 0.930 . S
H1720 C1733 0.929 . S
H1721 C1731 0.929 . S
H1722 C1726 0.929 . S
H1723 C1732 0.929 . S
C1724 H1718 0.930 . S
C1724 C1725 1.367 . S
C1724 C1732 1.378 . S
C1725 C1724 1.367 . S
C1725 C1733 1.433 1_545 S
C1726 H1722 0.929 . S
C1726 C1728 1.378 . S
C1726 C1730 1.350 . S
C1727 C1730 1.463 1_546 S
C1727 C1732 1.350 . S
C1727 N1735 1.427 1_545 S
C1728 H1719 0.930 . S
C1728 C1726 1.378 . S
C1728 C1729 1.367 . S
C1729 C1728 1.367 . S
C1729 C1731 1.433 1_565 S
C1730 C1726 1.350 . S
C1730 C1727 1.463 1_564 S
C1730 N1734 1.427 1_565 S
C1731 H1721 0.929 . S
C1731 C1729 1.433 1_545 S
C1731 N1734 1.384 . S
C1732 H1723 0.929 . S
C1732 C1724 1.378 . S
C1732 C1727 1.350 . S
C1733 H1720 0.929 . S
C1733 C1725 1.433 1_565 S
C1733 N1735 1.384 . S
N1734 C1730 1.427 1_545 S
N1734 C1731 1.384 . S
N1735 C1727 1.427 1_565 S
N1735 C1733 1.384 . S
H1736 C1742 0.930 . S
H1737 C1746 0.930 . S
H1738 C1751 0.929 . S
H1739 C1749 0.929 . S
H1740 C1744 0.929 . S
H1741 C1750 0.929 . S
C1742 H1736 0.930 . S
C1742 C1743 1.367 . S
C1742 C1750 1.378 . S
C1743 C1742 1.367 . S
C1743 C1751 1.433 . S
C1744 H1740 0.929 . S
C1744 C1746 1.378 . S
C1744 C1748 1.350 . S
C1745 C1748 1.463 . S
C1745 C1750 1.350 . S
C1745 N1753 1.427 . S
C1746 H1737 0.930 . S
C1746 C1744 1.378 . S
C1746 C1747 1.367 . S
C1747 C1746 1.367 . S
C1747 C1749 1.433 . S
C1748 C1744 1.350 . S
C1748 C1745 1.463 . S
C1748 N1752 1.427 . S
C1749 H1739 0.929 . S
C1749 C1747 1.433 . S
C1749 N1752 1.384 . S
C1750 H1741 0.929 . S
C1750 C1742 1.378 . S
C1750 C1745 1.350 . S
C1751 H1738 0.929 . S
C1751 C1743 1.433 . S
C1751 N1753 1.384 . S
N1752 C1748 1.427 . S
N1752 C1749 1.384 . S
N1753 C1745 1.427 . S
N1753 C1751 1.384 . S
H1754 C1760 0.930 . S
H1755 C1764 0.930 . S
H1756 C1769 0.929 . S
H1757 C1767 0.929 . S
H1758 C1762 0.929 . S
H1759 C1768 0.929 . S
C1760 H1754 0.930 . S
C1760 C1761 1.367 . S
C1760 C1768 1.378 . S
C1761 C1760 1.367 . S
C1761 C1769 1.433 1_565 S
C1762 H1758 0.929 . S
C1762 C1764 1.378 . S
C1762 C1766 1.350 . S
C1763 C1766 1.463 1_565 S
C1763 C1768 1.350 . S
C1763 N1771 1.427 1_565 S
C1764 H1755 0.930 . S
C1764 C1762 1.378 . S
C1764 C1765 1.367 . S
C1765 C1764 1.367 . S
C1765 C1767 1.433 1_545 S
C1766 C1762 1.350 . S
C1766 C1763 1.463 1_545 S
C1766 N1770 1.427 1_545 S
C1767 H1757 0.929 . S
C1767 C1765 1.433 1_565 S
C1767 N1770 1.384 . S
C1768 H1759 0.929 . S
C1768 C1760 1.378 . S
C1768 C1763 1.350 . S
C1769 H1756 0.929 . S
C1769 C1761 1.433 1_545 S
C1769 N1771 1.384 . S
N1770 C1766 1.427 1_565 S
N1770 C1767 1.384 . S
N1771 C1763 1.427 1_545 S
N1771 C1769 1.384 . S
H1772 C1778 0.930 . S
H1773 C1782 0.930 . S
H1774 C1787 0.929 . S
H1775 C1785 0.929 . S
H1776 C1780 0.929 . S
H1777 C1786 0.929 . S
C1778 H1772 0.930 . S
C1778 C1779 1.367 . S
C1778 C1786 1.378 . S
C1779 C1778 1.367 . S
C1779 C1787 1.433 . S
C1780 H1776 0.929 . S
C1780 C1782 1.378 . S
C1780 C1784 1.350 . S
C1781 C1784 1.463 . S
C1781 C1786 1.350 . S
C1781 N1789 1.427 . S
C1782 H1773 0.930 . S
C1782 C1780 1.378 . S
C1782 C1783 1.367 . S
C1783 C1782 1.367 . S
C1783 C1785 1.433 . S
C1784 C1780 1.350 . S
C1784 C1781 1.463 . S
C1784 N1788 1.427 . S
C1785 H1775 0.929 . S
C1785 C1783 1.433 . S
C1785 N1788 1.384 . S
C1786 H1777 0.929 . S
C1786 C1778 1.378 . S
C1786 C1781 1.350 . S
C1787 H1774 0.929 . S
C1787 C1779 1.433 . S
C1787 N1789 1.384 . S
N1788 C1784 1.427 . S
N1788 C1785 1.384 . S
N1789 C1781 1.427 . S
N1789 C1787 1.384 . S
H1790 C1796 0.930 . S
H1791 C1800 0.930 . S
H1792 C1805 0.929 1_565 S
H1793 C1803 0.929 1_545 S
H1794 C1798 0.929 . S
H1795 C1804 0.929 . S
C1796 H1790 0.930 . S
C1796 C1797 1.367 . S
C1796 C1804 1.378 . S
C1797 C1796 1.367 . S
C1797 C1805 1.433 . S
C1798 H1794 0.929 . S
C1798 C1800 1.378 . S
C1798 C1802 1.350 . S
C1799 C1802 1.463 1_546 S
C1799 C1804 1.350 . S
C1799 N1807 1.427 1_545 S
C1800 H1791 0.930 . S
C1800 C1798 1.378 . S
C1800 C1801 1.367 . S
C1801 C1800 1.367 . S
C1801 C1803 1.433 . S
C1802 C1798 1.350 . S
C1802 C1799 1.463 1_564 S
C1802 N1806 1.427 1_565 S
C1803 H1793 0.929 1_565 S
C1803 C1801 1.433 . S
C1803 N1806 1.384 1_565 S
C1804 H1795 0.929 . S
C1804 C1796 1.378 . S
C1804 C1799 1.350 . S
C1805 H1792 0.929 1_545 S
C1805 C1797 1.433 . S
C1805 N1807 1.384 1_545 S
N1806 C1802 1.427 1_545 S
N1806 C1803 1.384 1_545 S
N1807 C1799 1.427 1_565 S
N1807 C1805 1.384 1_565 S
H1808 C1814 0.930 . S
H1809 C1818 0.930 . S
H1810 C1823 0.929 . S
H1811 C1821 0.929 . S
H1812 C1816 0.929 . S
H1813 C1822 0.929 . S
C1814 H1808 0.930 . S
C1814 C1815 1.367 . S
C1814 C1822 1.378 . S
C1815 C1814 1.367 . S
C1815 C1823 1.433 . S
C1816 H1812 0.929 . S
C1816 C1818 1.378 . S
C1816 C1820 1.350 . S
C1817 C1820 1.463 . S
C1817 C1822 1.350 . S
C1817 N1825 1.427 . S
C1818 H1809 0.930 . S
C1818 C1816 1.378 . S
C1818 C1819 1.367 . S
C1819 C1818 1.367 . S
C1819 C1821 1.433 . S
C1820 C1816 1.350 . S
C1820 C1817 1.463 . S
C1820 N1824 1.427 . S
C1821 H1811 0.929 . S
C1821 C1819 1.433 . S
C1821 N1824 1.384 . S
C1822 H1813 0.929 . S
C1822 C1814 1.378 . S
C1822 C1817 1.350 . S
C1823 H1810 0.929 . S
C1823 C1815 1.433 . S
C1823 N1825 1.384 . S
N1824 C1820 1.427 . S
N1824 C1821 1.384 . S
N1825 C1817 1.427 . S
N1825 C1823 1.384 . S
H1826 C1832 0.930 . S
H1827 C1836 0.930 . S
H1828 C1841 0.929 . S
H1829 C1839 0.929 . S
H1830 C1834 0.929 . S
H1831 C1840 0.929 . S
C1832 H1826 0.930 . S
C1832 C1833 1.367 . S
C1832 C1840 1.378 . S
C1833 C1832 1.367 . S
C1833 C1841 1.433 . S
C1834 H1830 0.929 . S
C1834 C1836 1.378 . S
C1834 C1838 1.350 . S
C1835 C1838 1.463 1_556 S
C1835 C1840 1.350 . S
C1835 N1843 1.427 . S
C1836 H1827 0.930 . S
C1836 C1834 1.378 . S
C1836 C1837 1.367 . S
C1837 C1836 1.367 . S
C1837 C1839 1.433 . S
C1838 C1834 1.350 . S
C1838 C1835 1.463 1_554 S
C1838 N1842 1.427 . S
C1839 H1829 0.929 . S
C1839 C1837 1.433 . S
C1839 N1842 1.384 . S
C1840 H1831 0.929 . S
C1840 C1832 1.378 . S
C1840 C1835 1.350 . S
C1841 H1828 0.929 . S
C1841 C1833 1.433 . S
C1841 N1843 1.384 . S
N1842 C1838 1.427 . S
N1842 C1839 1.384 . S
N1843 C1835 1.427 . S
N1843 C1841 1.384 . S
H1844 C1850 0.930 . S
H1845 C1854 0.930 . S
H1846 C1859 0.929 . S
H1847 C1857 0.929 . S
H1848 C1852 0.929 . S
H1849 C1858 0.929 . S
C1850 H1844 0.930 . S
C1850 C1851 1.367 . S
C1850 C1858 1.378 . S
C1851 C1850 1.367 . S
C1851 C1859 1.433 . S
C1852 H1848 0.929 . S
C1852 C1854 1.378 . S
C1852 C1856 1.350 . S
C1853 C1856 1.463 . S
C1853 C1858 1.350 . S
C1853 N1861 1.427 . S
C1854 H1845 0.930 . S
C1854 C1852 1.378 . S
C1854 C1855 1.367 . S
C1855 C1854 1.367 . S
C1855 C1857 1.433 . S
C1856 C1852 1.350 . S
C1856 C1853 1.463 . S
C1856 N1860 1.427 . S
C1857 H1847 0.929 . S
C1857 C1855 1.433 . S
C1857 N1860 1.384 . S
C1858 H1849 0.929 . S
C1858 C1850 1.378 . S
C1858 C1853 1.350 . S
C1859 H1846 0.929 . S
C1859 C1851 1.433 . S
C1859 N1861 1.384 . S
N1860 C1856 1.427 . S
N1860 C1857 1.384 . S
N1861 C1853 1.427 . S
N1861 C1859 1.384 . S
H1862 C1868 0.930 . S
H1863 C1872 0.930 . S
H1864 C1877 0.929 . S
H1865 C1875 0.929 . S
H1866 C1870 0.929 . S
H1867 C1876 0.929 . S
C1868 H1862 0.930 . S
C1868 C1869 1.367 . S
C1868 C1876 1.378 . S
C1869 C1868 1.367 . S
C1869 C1877 1.433 . S
C1870 H1866 0.929 . S
C1870 C1872 1.378 . S
C1870 C1874 1.350 . S
C1871 C1874 1.463 . S
C1871 C1876 1.350 . S
C1871 N1879 1.427 . S
C1872 H1863 0.930 . S
C1872 C1870 1.378 . S
C1872 C1873 1.367 . S
C1873 C1872 1.367 . S
C1873 C1875 1.433 . S
C1874 C1870 1.350 . S
C1874 C1871 1.463 . S
C1874 N1878 1.427 . S
C1875 H1865 0.929 . S
C1875 C1873 1.433 . S
C1875 N1878 1.384 . S
C1876 H1867 0.929 . S
C1876 C1868 1.378 . S
C1876 C1871 1.350 . S
C1877 H1864 0.929 . S
C1877 C1869 1.433 . S
C1877 N1879 1.384 . S
N1878 C1874 1.427 . S
N1878 C1875 1.384 . S
N1879 C1871 1.427 . S
N1879 C1877 1.384 . S
H1880 C1886 0.930 . S
H1881 C1890 0.930 . S
H1882 C1895 0.929 . S
H1883 C1893 0.929 . S
H1884 C1888 0.929 . S
H1885 C1894 0.929 . S
C1886 H1880 0.930 . S
C1886 C1887 1.367 . S
C1886 C1894 1.378 . S
C1887 C1886 1.367 . S
C1887 C1895 1.433 . S
C1888 H1884 0.929 . S
C1888 C1890 1.378 . S
C1888 C1892 1.350 . S
C1889 C1892 1.463 . S
C1889 C1894 1.350 . S
C1889 N1897 1.427 . S
C1890 H1881 0.930 . S
C1890 C1888 1.378 . S
C1890 C1891 1.367 . S
C1891 C1890 1.367 . S
C1891 C1893 1.433 . S
C1892 C1888 1.350 . S
C1892 C1889 1.463 . S
C1892 N1896 1.427 . S
C1893 H1883 0.929 . S
C1893 C1891 1.433 . S
C1893 N1896 1.384 . S
C1894 H1885 0.929 . S
C1894 C1886 1.378 . S
C1894 C1889 1.350 . S
C1895 H1882 0.929 . S
C1895 C1887 1.433 . S
C1895 N1897 1.384 . S
N1896 C1892 1.427 . S
N1896 C1893 1.384 . S
N1897 C1889 1.427 . S
N1897 C1895 1.384 . S
H1898 C1904 0.930 . S
H1899 C1908 0.930 . S
H1900 C1913 0.929 . S
H1901 C1911 0.929 . S
H1902 C1906 0.929 . S
H1903 C1912 0.929 . S
C1904 H1898 0.930 . S
C1904 C1905 1.367 . S
C1904 C1912 1.378 . S
C1905 C1904 1.367 . S
C1905 C1913 1.433 . S
C1906 H1902 0.929 . S
C1906 C1908 1.378 . S
C1906 C1910 1.350 . S
C1907 C1910 1.463 1_556 S
C1907 C1912 1.350 . S
C1907 N1915 1.427 . S
C1908 H1899 0.930 . S
C1908 C1906 1.378 . S
C1908 C1909 1.367 . S
C1909 C1908 1.367 . S
C1909 C1911 1.433 . S
C1910 C1906 1.350 . S
C1910 C1907 1.463 1_554 S
C1910 N1914 1.427 . S
C1911 H1901 0.929 . S
C1911 C1909 1.433 . S
C1911 N1914 1.384 . S
C1912 H1903 0.929 . S
C1912 C1904 1.378 . S
C1912 C1907 1.350 . S
C1913 H1900 0.929 . S
C1913 C1905 1.433 . S
C1913 N1915 1.384 . S
N1914 C1910 1.427 . S
N1914 C1911 1.384 . S
N1915 C1907 1.427 . S
N1915 C1913 1.384 . S
H1916 C1922 0.930 . S
H1917 C1926 0.930 . S
H1918 C1931 0.929 . S
H1919 C1929 0.929 . S
H1920 C1924 0.929 . S
H1921 C1930 0.929 . S
C1922 H1916 0.930 . S
C1922 C1923 1.367 . S
C1922 C1930 1.378 . S
C1923 C1922 1.367 . S
C1923 C1931 1.433 . S
C1924 H1920 0.929 . S
C1924 C1926 1.378 . S
C1924 C1928 1.350 . S
C1925 C1928 1.463 . S
C1925 C1930 1.350 . S
C1925 N1933 1.427 . S
C1926 H1917 0.930 . S
C1926 C1924 1.378 . S
C1926 C1927 1.367 . S
C1927 C1926 1.367 . S
C1927 C1929 1.433 . S
C1928 C1924 1.350 . S
C1928 C1925 1.463 . S
C1928 N1932 1.427 . S
C1929 H1919 0.929 . S
C1929 C1927 1.433 . S
C1929 N1932 1.384 . S
C1930 H1921 0.929 . S
C1930 C1922 1.378 . S
C1930 C1925 1.350 . S
C1931 H1918 0.929 . S
C1931 C1923 1.433 . S
C1931 N1933 1.384 . S
N1932 C1928 1.427 . S
N1932 C1929 1.384 . S
N1933 C1925 1.427 . S
N1933 C1931 1.384 . S
H1934 C1940 0.930 . S
H1935 C1944 0.930 . S
H1936 C1949 0.929 . S
H1937 C1947 0.929 . S
H1938 C1942 0.929 . S
H1939 C1948 0.929 . S
C1940 H1934 0.930 . S
C1940 C1941 1.367 . S
C1940 C1948 1.378 . S
C1941 C1940 1.367 . S
C1941 C1949 1.433 . S
C1942 H1938 0.929 . S
C1942 C1944 1.378 . S
C1942 C1946 1.350 . S
C1943 C1946 1.463 . S
C1943 C1948 1.350 . S
C1943 N1951 1.427 . S
C1944 H1935 0.930 . S
C1944 C1942 1.378 . S
C1944 C1945 1.367 . S
C1945 C1944 1.367 . S
C1945 C1947 1.433 . S
C1946 C1942 1.350 . S
C1946 C1943 1.463 . S
C1946 N1950 1.427 . S
C1947 H1937 0.929 . S
C1947 C1945 1.433 . S
C1947 N1950 1.384 . S
C1948 H1939 0.929 . S
C1948 C1940 1.378 . S
C1948 C1943 1.350 . S
C1949 H1936 0.929 . S
C1949 C1941 1.433 . S
C1949 N1951 1.384 . S
N1950 C1946 1.427 . S
N1950 C1947 1.384 . S
N1951 C1943 1.427 . S
N1951 C1949 1.384 . S
H1952 C1958 0.930 . S
H1953 C1962 0.930 . S
H1954 C1967 0.929 . S
H1955 C1965 0.929 . S
H1956 C1960 0.929 . S
H1957 C1966 0.929 . S
C1958 H1952 0.930 . S
C1958 C1959 1.367 . S
C1958 C1966 1.378 . S
C1959 C1958 1.367 . S
C1959 C1967 1.433 . S
C1960 H1956 0.929 . S
C1960 C1962 1.378 . S
C1960 C1964 1.350 . S
C1961 C1964 1.463 . S
C1961 C1966 1.350 . S
C1961 N1969 1.427 . S
C1962 H1953 0.930 . S
C1962 C1960 1.378 . S
C1962 C1963 1.367 . S
C1963 C1962 1.367 . S
C1963 C1965 1.433 . S
C1964 C1960 1.350 . S
C1964 C1961 1.463 . S
C1964 N1968 1.427 . S
C1965 H1955 0.929 . S
C1965 C1963 1.433 . S
C1965 N1968 1.384 . S
C1966 H1957 0.929 . S
C1966 C1958 1.378 . S
C1966 C1961 1.350 . S
C1967 H1954 0.929 . S
C1967 C1959 1.433 . S
C1967 N1969 1.384 . S
N1968 C1964 1.427 . S
N1968 C1965 1.384 . S
N1969 C1961 1.427 . S
N1969 C1967 1.384 . S
H1970 C1976 0.930 . S
H1971 C1980 0.930 . S
H1972 C1985 0.924 . S
H1973 C1983 0.929 . S
H1974 C1978 0.929 . S
H1975 C1984 0.929 . S
C1976 H1970 0.930 . S
C1976 C1977 1.367 . S
C1976 C1984 1.378 . S
C1977 C1976 1.367 . S
C1977 C1985 1.433 . S
C1978 H1974 0.929 . S
C1978 C1980 1.378 . S
C1978 C1982 1.350 . S
C1979 C1982 1.463 . S
C1979 C1984 1.350 . S
C1979 N1987 1.427 . S
C1980 H1971 0.930 . S
C1980 C1978 1.378 . S
C1980 C1981 1.367 . S
C1981 C1980 1.367 . S
C1981 C1983 1.433 . S
C1982 C1978 1.350 . S
C1982 C1979 1.463 . S
C1982 N1986 1.427 . S
C1983 H1973 0.929 . S
C1983 C1981 1.433 . S
C1983 N1986 1.384 . S
C1984 H1975 0.929 . S
C1984 C1976 1.378 . S
C1984 C1979 1.350 . S
C1985 H1972 0.924 . S
C1985 C1977 1.433 . S
C1985 N1987 1.384 . S
N1986 C1982 1.427 . S
N1986 C1983 1.384 . S
N1987 C1979 1.427 . S
N1987 C1985 1.384 . S
H1988 C1994 0.930 . S
H1989 C1998 0.930 . S
H1990 C2003 0.929 . S
H1991 C2001 0.929 . S
H1992 C1996 0.929 . S
H1993 C2002 0.929 . S
C1994 H1988 0.930 . S
C1994 C1995 1.367 . S
C1994 C2002 1.378 . S
C1995 C1994 1.367 . S
C1995 C2003 1.433 . S
C1996 H1992 0.929 . S
C1996 C1998 1.378 . S
C1996 C2000 1.350 . S
C1997 C2000 1.463 . S
C1997 C2002 1.350 . S
C1997 N2005 1.427 . S
C1998 H1989 0.930 . S
C1998 C1996 1.378 . S
C1998 C1999 1.367 . S
C1999 C1998 1.367 . S
C1999 C2001 1.433 . S
C2000 C1996 1.350 . S
C2000 C1997 1.463 . S
C2000 N2004 1.427 . S
C2001 H1991 0.929 . S
C2001 C1999 1.433 . S
C2001 N2004 1.384 . S
C2002 H1993 0.929 . S
C2002 C1994 1.378 . S
C2002 C1997 1.350 . S
C2003 H1990 0.929 . S
C2003 C1995 1.433 . S
C2003 N2005 1.384 . S
N2004 C2000 1.427 . S
N2004 C2001 1.384 . S
N2005 C1997 1.427 . S
N2005 C2003 1.384 . S
H2006 C2012 0.930 1_545 S
H2007 C2016 0.930 . S
H2008 C2021 0.929 . S
H2009 C2019 0.929 . S
H2010 C2014 0.929 . S
H2011 C2020 0.929 . S
C2012 H2006 0.930 1_565 S
C2012 C2013 1.367 . S
C2012 C2020 1.378 . S
C2013 C2012 1.367 . S
C2013 C2021 1.433 . S
C2014 H2010 0.929 . S
C2014 C2016 1.378 . S
C2014 C2018 1.350 . S
C2015 C2018 1.463 . S
C2015 C2020 1.350 . S
C2015 N2023 1.427 . S
C2016 H2007 0.930 . S
C2016 C2014 1.378 . S
C2016 C2017 1.367 . S
C2017 C2016 1.367 . S
C2017 C2019 1.433 . S
C2018 C2014 1.350 . S
C2018 C2015 1.463 . S
C2018 N2022 1.427 . S
C2019 H2009 0.929 . S
C2019 C2017 1.433 . S
C2019 N2022 1.384 . S
C2020 H2011 0.929 . S
C2020 C2012 1.378 . S
C2020 C2015 1.350 . S
C2021 H2008 0.929 . S
C2021 C2013 1.433 . S
C2021 N2023 1.384 . S
N2022 C2018 1.427 . S
N2022 C2019 1.384 . S
N2023 C2015 1.427 . S
N2023 C2021 1.384 . S
H2024 C2030 0.930 . S
H2025 C2034 0.930 . S
H2026 C2039 0.929 . S
H2027 C2037 0.929 . S
H2028 C2032 0.929 . S
H2029 C2038 0.929 . S
C2030 H2024 0.930 . S
C2030 C2031 1.367 . S
C2030 C2038 1.378 . S
C2031 C2030 1.367 . S
C2031 C2039 1.433 . S
C2032 H2028 0.929 . S
C2032 C2034 1.378 . S
C2032 C2036 1.350 . S
C2033 C2036 1.463 . S
C2033 C2038 1.350 . S
C2033 N2041 1.427 . S
C2034 H2025 0.930 . S
C2034 C2032 1.378 . S
C2034 C2035 1.367 . S
C2035 C2034 1.367 . S
C2035 C2037 1.433 . S
C2036 C2032 1.350 . S
C2036 C2033 1.463 . S
C2036 N2040 1.427 . S
C2037 H2027 0.929 . S
C2037 C2035 1.433 . S
C2037 N2040 1.384 . S
C2038 H2029 0.929 . S
C2038 C2030 1.378 . S
C2038 C2033 1.350 . S
C2039 H2026 0.929 . S
C2039 C2031 1.433 . S
C2039 N2041 1.384 . S
N2040 C2036 1.427 . S
N2040 C2037 1.384 . S
N2041 C2033 1.427 . S
N2041 C2039 1.384 . S
H2042 C2048 0.930 . S
H2043 C2052 0.930 . S
H2044 C2057 0.929 . S
H2045 C2055 0.929 . S
H2046 C2050 0.929 . S
H2047 C2056 0.929 . S
C2048 H2042 0.930 . S
C2048 C2049 1.367 . S
C2048 C2056 1.378 . S
C2049 C2048 1.367 . S
C2049 C2057 1.433 . S
C2050 H2046 0.929 . S
C2050 C2052 1.378 . S
C2050 C2054 1.350 . S
C2051 C2054 1.463 . S
C2051 C2056 1.350 . S
C2051 N2059 1.427 . S
C2052 H2043 0.930 . S
C2052 C2050 1.378 . S
C2052 C2053 1.367 . S
C2053 C2052 1.367 . S
C2053 C2055 1.433 . S
C2054 C2050 1.350 . S
C2054 C2051 1.463 . S
C2054 N2058 1.427 . S
C2055 H2045 0.929 . S
C2055 C2053 1.433 . S
C2055 N2058 1.384 . S
C2056 H2047 0.929 . S
C2056 C2048 1.378 . S
C2056 C2051 1.350 . S
C2057 H2044 0.929 . S
C2057 C2049 1.433 . S
C2057 N2059 1.384 . S
N2058 C2054 1.427 . S
N2058 C2055 1.384 . S
N2059 C2051 1.427 . S
N2059 C2057 1.384 . S
H2060 C2066 0.930 1_565 S
H2061 C2070 0.930 . S
H2062 C2075 0.929 . S
H2063 C2073 0.929 . S
H2064 C2068 0.929 . S
H2065 C2074 0.929 . S
C2066 H2060 0.930 1_545 S
C2066 C2067 1.367 . S
C2066 C2074 1.378 . S
C2067 C2066 1.367 . S
C2067 C2075 1.433 . S
C2068 H2064 0.929 . S
C2068 C2070 1.378 . S
C2068 C2072 1.350 . S
C2069 C2072 1.463 . S
C2069 C2074 1.350 . S
C2069 N2077 1.427 . S
C2070 H2061 0.930 . S
C2070 C2068 1.378 . S
C2070 C2071 1.367 . S
C2071 C2070 1.367 . S
C2071 C2073 1.433 . S
C2072 C2068 1.350 . S
C2072 C2069 1.463 . S
C2072 N2076 1.427 . S
C2073 H2063 0.929 . S
C2073 C2071 1.433 . S
C2073 N2076 1.384 . S
C2074 H2065 0.929 . S
C2074 C2066 1.378 . S
C2074 C2069 1.350 . S
C2075 H2062 0.929 . S
C2075 C2067 1.433 . S
C2075 N2077 1.384 . S
N2076 C2072 1.427 . S
N2076 C2073 1.384 . S
N2077 C2069 1.427 . S
N2077 C2075 1.384 . S
H2078 C2084 0.930 . S
H2079 C2088 0.930 . S
H2080 C2093 0.929 . S
H2081 C2091 0.929 . S
H2082 C2086 0.929 . S
H2083 C2092 0.929 . S
C2084 H2078 0.930 . S
C2084 C2085 1.367 . S
C2084 C2092 1.378 . S
C2085 C2084 1.367 . S
C2085 C2093 1.433 . S
C2086 H2082 0.929 . S
C2086 C2088 1.378 . S
C2086 C2090 1.350 . S
C2087 C2090 1.463 . S
C2087 C2092 1.350 . S
C2087 N2095 1.427 . S
C2088 H2079 0.930 . S
C2088 C2086 1.378 . S
C2088 C2089 1.367 . S
C2089 C2088 1.367 . S
C2089 C2091 1.433 . S
C2090 C2086 1.350 . S
C2090 C2087 1.463 . S
C2090 N2094 1.427 . S
C2091 H2081 0.929 . S
C2091 C2089 1.433 . S
C2091 N2094 1.384 . S
C2092 H2083 0.929 . S
C2092 C2084 1.378 . S
C2092 C2087 1.350 . S
C2093 H2080 0.929 . S
C2093 C2085 1.433 . S
C2093 N2095 1.384 . S
N2094 C2090 1.427 . S
N2094 C2091 1.384 . S
N2095 C2087 1.427 . S
N2095 C2093 1.384 . S
H2096 C2102 0.930 . S
H2097 C2106 0.930 . S
H2098 C2111 0.929 . S
H2099 C2109 0.929 . S
H2100 C2104 0.929 . S
H2101 C2110 0.929 . S
C2102 H2096 0.930 . S
C2102 C2103 1.367 . S
C2102 C2110 1.378 . S
C2103 C2102 1.367 . S
C2103 C2111 1.433 . S
C2104 H2100 0.929 . S
C2104 C2106 1.378 . S
C2104 C2108 1.350 . S
C2105 C2108 1.463 . S
C2105 C2110 1.350 . S
C2105 N2113 1.427 . S
C2106 H2097 0.930 . S
C2106 C2104 1.378 . S
C2106 C2107 1.367 . S
C2107 C2106 1.367 . S
C2107 C2109 1.433 . S
C2108 C2104 1.350 . S
C2108 C2105 1.463 . S
C2108 N2112 1.427 . S
C2109 H2099 0.929 . S
C2109 C2107 1.433 . S
C2109 N2112 1.384 . S
C2110 H2101 0.929 . S
C2110 C2102 1.378 . S
C2110 C2105 1.350 . S
C2111 H2098 0.929 . S
C2111 C2103 1.433 . S
C2111 N2113 1.384 . S
N2112 C2108 1.427 . S
N2112 C2109 1.384 . S
N2113 C2105 1.427 . S
N2113 C2111 1.384 . S
H2114 C2120 0.930 . S
H2115 C2124 0.930 . S
H2116 C2129 0.929 . S
H2117 C2127 0.929 . S
H2118 C2122 0.929 . S
H2119 C2128 0.929 . S
C2120 H2114 0.930 . S
C2120 C2121 1.367 . S
C2120 C2128 1.378 . S
C2121 C2120 1.367 . S
C2121 C2129 1.433 . S
C2122 H2118 0.929 . S
C2122 C2124 1.378 . S
C2122 C2126 1.350 . S
C2123 C2126 1.463 . S
C2123 C2128 1.350 . S
C2123 N2131 1.427 . S
C2124 H2115 0.930 . S
C2124 C2122 1.378 . S
C2124 C2125 1.367 . S
C2125 C2124 1.367 . S
C2125 C2127 1.433 . S
C2126 C2122 1.350 . S
C2126 C2123 1.463 . S
C2126 N2130 1.427 . S
C2127 H2117 0.929 . S
C2127 C2125 1.433 . S
C2127 N2130 1.384 . S
C2128 H2119 0.929 . S
C2128 C2120 1.378 . S
C2128 C2123 1.350 . S
C2129 H2116 0.929 . S
C2129 C2121 1.433 . S
C2129 N2131 1.384 . S
N2130 C2126 1.427 . S
N2130 C2127 1.384 . S
N2131 C2123 1.427 . S
N2131 C2129 1.384 . S
H2132 C2138 0.930 . S
H2133 C2142 0.930 . S
H2134 C2147 0.929 . S
H2135 C2145 0.929 . S
H2136 C2140 0.929 . S
H2137 C2146 0.929 . S
C2138 H2132 0.930 . S
C2138 C2139 1.367 . S
C2138 C2146 1.378 . S
C2139 C2138 1.367 . S
C2139 C2147 1.433 . S
C2140 H2136 0.929 . S
C2140 C2142 1.378 . S
C2140 C2144 1.350 . S
C2141 C2144 1.463 . S
C2141 C2146 1.350 . S
C2141 N2149 1.427 . S
C2142 H2133 0.930 . S
C2142 C2140 1.378 . S
C2142 C2143 1.367 . S
C2143 C2142 1.367 . S
C2143 C2145 1.433 . S
C2144 C2140 1.350 . S
C2144 C2141 1.463 . S
C2144 N2148 1.427 . S
C2145 H2135 0.929 . S
C2145 C2143 1.433 . S
C2145 N2148 1.384 . S
C2146 H2137 0.929 . S
C2146 C2138 1.378 . S
C2146 C2141 1.350 . S
C2147 H2134 0.929 . S
C2147 C2139 1.433 . S
C2147 N2149 1.384 . S
N2148 C2144 1.427 . S
N2148 C2145 1.384 . S
N2149 C2141 1.427 . S
N2149 C2147 1.384 . S
H2150 C2156 0.930 . S
H2151 C2160 0.930 . S
H2152 C2165 0.929 . S
H2153 C2163 0.929 . S
H2154 C2158 0.929 . S
H2155 C2164 0.929 . S
C2156 H2150 0.930 . S
C2156 C2157 1.367 . S
C2156 C2164 1.378 . S
C2157 C2156 1.367 . S
C2157 C2165 1.433 . S
C2158 H2154 0.929 . S
C2158 C2160 1.378 . S
C2158 C2162 1.350 . S
C2159 C2162 1.463 . S
C2159 C2164 1.350 . S
C2159 N2167 1.427 . S
C2160 H2151 0.930 . S
C2160 C2158 1.378 . S
C2160 C2161 1.367 . S
C2161 C2160 1.367 . S
C2161 C2163 1.433 . S
C2162 C2158 1.350 . S
C2162 C2159 1.463 . S
C2162 N2166 1.427 . S
C2163 H2153 0.929 . S
C2163 C2161 1.433 . S
C2163 N2166 1.384 . S
C2164 H2155 0.929 . S
C2164 C2156 1.378 . S
C2164 C2159 1.350 . S
C2165 H2152 0.929 . S
C2165 C2157 1.433 . S
C2165 N2167 1.384 . S
N2166 C2162 1.427 . S
N2166 C2163 1.384 . S
N2167 C2159 1.427 . S
N2167 C2165 1.384 . S
H2168 C2174 0.930 . S
H2169 C2178 0.930 . S
H2170 C2183 0.929 . S
H2171 C2181 0.929 . S
H2172 C2176 0.929 . S
H2173 C2182 0.929 . S
C2174 H2168 0.930 . S
C2174 C2175 1.367 . S
C2174 C2182 1.378 . S
C2175 C2174 1.367 . S
C2175 C2183 1.433 . S
C2176 H2172 0.929 . S
C2176 C2178 1.378 . S
C2176 C2180 1.350 . S
C2177 C2180 1.463 . S
C2177 C2182 1.350 . S
C2177 N2185 1.427 . S
C2178 H2169 0.930 . S
C2178 C2176 1.378 . S
C2178 C2179 1.367 . S
C2179 C2178 1.367 . S
C2179 C2181 1.433 . S
C2180 C2176 1.350 . S
C2180 C2177 1.463 . S
C2180 N2184 1.427 . S
C2181 H2171 0.929 . S
C2181 C2179 1.433 . S
C2181 N2184 1.384 . S
C2182 H2173 0.929 . S
C2182 C2174 1.378 . S
C2182 C2177 1.350 . S
C2183 H2170 0.929 . S
C2183 C2175 1.433 . S
C2183 N2185 1.384 . S
N2184 C2180 1.427 . S
N2184 C2181 1.384 . S
N2185 C2177 1.427 . S
N2185 C2183 1.384 . S
H2186 C2192 0.930 . S
H2187 C2196 0.930 . S
H2188 C2201 0.929 . S
H2189 C2199 0.929 . S
H2190 C2194 0.929 . S
H2191 C2200 0.929 . S
C2192 H2186 0.930 . S
C2192 C2193 1.367 . S
C2192 C2200 1.378 . S
C2193 C2192 1.367 . S
C2193 C2201 1.433 . S
C2194 H2190 0.929 . S
C2194 C2196 1.378 . S
C2194 C2198 1.350 . S
C2195 C2198 1.463 . S
C2195 C2200 1.350 . S
C2195 N2203 1.427 . S
C2196 H2187 0.930 . S
C2196 C2194 1.378 . S
C2196 C2197 1.367 . S
C2197 C2196 1.367 . S
C2197 C2199 1.433 . S
C2198 C2194 1.350 . S
C2198 C2195 1.463 . S
C2198 N2202 1.427 . S
C2199 H2189 0.929 . S
C2199 C2197 1.433 . S
C2199 N2202 1.384 . S
C2200 H2191 0.929 . S
C2200 C2192 1.378 . S
C2200 C2195 1.350 . S
C2201 H2188 0.929 . S
C2201 C2193 1.433 . S
C2201 N2203 1.384 . S
N2202 C2198 1.427 . S
N2202 C2199 1.384 . S
N2203 C2195 1.427 . S
N2203 C2201 1.384 . S
H2204 C2210 0.930 . S
H2205 C2214 0.930 . S
H2206 C2219 0.929 . S
H2207 C2217 0.929 . S
H2208 C2212 0.929 . S
H2209 C2218 0.929 . S
C2210 H2204 0.930 . S
C2210 C2211 1.367 . S
C2210 C2218 1.378 . S
C2211 C2210 1.367 . S
C2211 C2219 1.433 . S
C2212 H2208 0.929 . S
C2212 C2214 1.378 . S
C2212 C2216 1.350 . S
C2213 C2216 1.463 . S
C2213 C2218 1.350 . S
C2213 N2221 1.427 . S
C2214 H2205 0.930 . S
C2214 C2212 1.378 . S
C2214 C2215 1.367 . S
C2215 C2214 1.367 . S
C2215 C2217 1.433 . S
C2216 C2212 1.350 . S
C2216 C2213 1.463 . S
C2216 N2220 1.427 . S
C2217 H2207 0.929 . S
C2217 C2215 1.433 . S
C2217 N2220 1.384 . S
C2218 H2209 0.929 . S
C2218 C2210 1.378 . S
C2218 C2213 1.350 . S
C2219 H2206 0.929 . S
C2219 C2211 1.433 . S
C2219 N2221 1.384 . S
N2220 C2216 1.427 . S
N2220 C2217 1.384 . S
N2221 C2213 1.427 . S
N2221 C2219 1.384 . S
H2222 C2228 0.930 . S
H2223 C2232 0.930 . S
H2224 C2237 0.929 . S
H2225 C2235 0.929 . S
H2226 C2230 0.929 . S
H2227 C2236 0.929 . S
C2228 H2222 0.930 . S
C2228 C2229 1.367 . S
C2228 C2236 1.378 . S
C2229 C2228 1.367 . S
C2229 C2237 1.433 . S
C2230 H2226 0.929 . S
C2230 C2232 1.378 . S
C2230 C2234 1.350 . S
C2231 C2234 1.463 . S
C2231 C2236 1.350 . S
C2231 N2239 1.427 . S
C2232 H2223 0.930 . S
C2232 C2230 1.378 . S
C2232 C2233 1.367 . S
C2233 C2232 1.367 . S
C2233 C2235 1.433 . S
C2234 C2230 1.350 . S
C2234 C2231 1.463 . S
C2234 N2238 1.427 . S
C2235 H2225 0.929 . S
C2235 C2233 1.433 . S
C2235 N2238 1.384 . S
C2236 H2227 0.929 . S
C2236 C2228 1.378 . S
C2236 C2231 1.350 . S
C2237 H2224 0.929 . S
C2237 C2229 1.433 . S
C2237 N2239 1.384 . S
N2238 C2234 1.427 . S
N2238 C2235 1.384 . S
N2239 C2231 1.427 . S
N2239 C2237 1.384 . S
H2240 C2246 0.930 . S
H2241 C2250 0.930 . S
H2242 C2255 0.929 . S
H2243 C2253 0.929 . S
H2244 C2248 0.929 . S
H2245 C2254 0.929 . S
C2246 H2240 0.930 . S
C2246 C2247 1.367 . S
C2246 C2254 1.378 . S
C2247 C2246 1.367 . S
C2247 C2255 1.433 . S
C2248 H2244 0.929 . S
C2248 C2250 1.378 . S
C2248 C2252 1.350 . S
C2249 C2252 1.463 . S
C2249 C2254 1.350 . S
C2249 N2257 1.427 . S
C2250 H2241 0.930 . S
C2250 C2248 1.378 . S
C2250 C2251 1.367 . S
C2251 C2250 1.367 . S
C2251 C2253 1.433 . S
C2252 C2248 1.350 . S
C2252 C2249 1.463 . S
C2252 N2256 1.427 . S
C2253 H2243 0.929 . S
C2253 C2251 1.433 . S
C2253 N2256 1.384 . S
C2254 H2245 0.929 . S
C2254 C2246 1.378 . S
C2254 C2249 1.350 . S
C2255 H2242 0.929 . S
C2255 C2247 1.433 . S
C2255 N2257 1.384 . S
N2256 C2252 1.427 . S
N2256 C2253 1.384 . S
N2257 C2249 1.427 . S
N2257 C2255 1.384 . S
H2258 C2264 0.930 . S
H2259 C2268 0.930 . S
H2260 C2273 0.929 . S
H2261 C2271 0.929 . S
H2262 C2266 0.929 . S
H2263 C2272 0.929 . S
C2264 H2258 0.930 . S
C2264 C2265 1.367 . S
C2264 C2272 1.378 . S
C2265 C2264 1.367 . S
C2265 C2273 1.433 . S
C2266 H2262 0.929 . S
C2266 C2268 1.378 . S
C2266 C2270 1.350 . S
C2267 C2270 1.463 1_655 S
C2267 C2272 1.350 . S
C2267 N2275 1.427 . S
C2268 H2259 0.930 . S
C2268 C2266 1.378 . S
C2268 C2269 1.367 . S
C2269 C2268 1.367 . S
C2269 C2271 1.433 . S
C2270 C2266 1.350 . S
C2270 C2267 1.463 1_455 S
C2270 N2274 1.427 . S
C2271 H2261 0.929 . S
C2271 C2269 1.433 . S
C2271 N2274 1.384 . S
C2272 H2263 0.929 . S
C2272 C2264 1.378 . S
C2272 C2267 1.350 . S
C2273 H2260 0.929 . S
C2273 C2265 1.433 . S
C2273 N2275 1.384 . S
N2274 C2270 1.427 . S
N2274 C2271 1.384 . S
N2275 C2267 1.427 . S
N2275 C2273 1.384 . S
H2276 C2282 0.930 . S
H2277 C2286 0.930 . S
H2278 C2291 0.929 . S
H2279 C2289 0.929 . S
H2280 C2284 0.929 . S
H2281 C2290 0.929 . S
C2282 H2276 0.930 . S
C2282 C2283 1.367 . S
C2282 C2290 1.378 . S
C2283 C2282 1.367 . S
C2283 C2291 1.433 . S
C2284 H2280 0.929 . S
C2284 C2286 1.378 . S
C2284 C2288 1.350 . S
C2285 C2288 1.463 . S
C2285 C2290 1.350 . S
C2285 N2293 1.427 . S
C2286 H2277 0.930 . S
C2286 C2284 1.378 . S
C2286 C2287 1.367 . S
C2287 C2286 1.367 . S
C2287 C2289 1.433 . S
C2288 C2284 1.350 . S
C2288 C2285 1.463 . S
C2288 N2292 1.427 . S
C2289 H2279 0.929 . S
C2289 C2287 1.433 . S
C2289 N2292 1.384 . S
C2290 H2281 0.929 . S
C2290 C2282 1.378 . S
C2290 C2285 1.350 . S
C2291 H2278 0.929 . S
C2291 C2283 1.433 . S
C2291 N2293 1.384 . S
N2292 C2288 1.427 . S
N2292 C2289 1.384 . S
N2293 C2285 1.427 . S
N2293 C2291 1.384 . S
H2294 C2300 0.930 . S
H2295 C2304 0.930 . S
H2296 C2309 0.929 . S
H2297 C2307 0.929 . S
H2298 C2302 0.929 . S
H2299 C2308 0.929 . S
C2300 H2294 0.930 . S
C2300 C2301 1.367 . S
C2300 C2308 1.378 . S
C2301 C2300 1.367 . S
C2301 C2309 1.433 . S
C2302 H2298 0.929 . S
C2302 C2304 1.378 . S
C2302 C2306 1.350 . S
C2303 C2306 1.463 . S
C2303 C2308 1.350 . S
C2303 N2311 1.427 . S
C2304 H2295 0.930 . S
C2304 C2302 1.378 . S
C2304 C2305 1.367 . S
C2305 C2304 1.367 . S
C2305 C2307 1.433 . S
C2306 C2302 1.350 . S
C2306 C2303 1.463 . S
C2306 N2310 1.427 . S
C2307 H2297 0.929 . S
C2307 C2305 1.433 . S
C2307 N2310 1.384 . S
C2308 H2299 0.929 . S
C2308 C2300 1.378 . S
C2308 C2303 1.350 . S
C2309 H2296 0.929 . S
C2309 C2301 1.433 . S
C2309 N2311 1.384 . S
N2310 C2306 1.427 . S
N2310 C2307 1.384 . S
N2311 C2303 1.427 . S
N2311 C2309 1.384 . S
H2312 C2318 0.930 . S
H2313 C2322 0.930 . S
H2314 C2327 0.929 . S
H2315 C2325 0.929 . S
H2316 C2320 0.929 . S
H2317 C2326 0.929 . S
C2318 H2312 0.930 . S
C2318 C2319 1.367 . S
C2318 C2326 1.378 . S
C2319 C2318 1.367 . S
C2319 C2327 1.433 . S
C2320 H2316 0.929 . S
C2320 C2322 1.378 . S
C2320 C2324 1.350 . S
C2321 C2324 1.463 . S
C2321 C2326 1.350 . S
C2321 N2329 1.427 . S
C2322 H2313 0.930 . S
C2322 C2320 1.378 . S
C2322 C2323 1.367 . S
C2323 C2322 1.367 . S
C2323 C2325 1.433 . S
C2324 C2320 1.350 . S
C2324 C2321 1.463 . S
C2324 N2328 1.427 . S
C2325 H2315 0.929 . S
C2325 C2323 1.433 . S
C2325 N2328 1.384 . S
C2326 H2317 0.929 . S
C2326 C2318 1.378 . S
C2326 C2321 1.350 . S
C2327 H2314 0.929 . S
C2327 C2319 1.433 . S
C2327 N2329 1.384 . S
N2328 C2324 1.427 . S
N2328 C2325 1.384 . S
N2329 C2321 1.427 . S
N2329 C2327 1.384 . S
H2330 C2336 0.930 . S
H2331 C2340 0.936 . S
H2332 C2345 0.931 1_545 S
H2333 C2343 0.929 . S
H2334 C2338 0.935 . S
H2335 C2344 0.929 . S
C2336 H2330 0.930 . S
C2336 C2337 1.367 . S
C2336 C2344 1.378 . S
C2337 C2336 1.367 . S
C2337 C2345 1.433 . S
C2338 H2334 0.935 . S
C2338 C2340 1.378 . S
C2338 C2342 1.350 . S
C2339 C2342 1.463 . S
C2339 C2344 1.350 . S
C2339 N2347 1.427 . S
C2340 H2331 0.936 . S
C2340 C2338 1.378 . S
C2340 C2341 1.367 . S
C2341 C2340 1.367 . S
C2341 C2343 1.433 . S
C2342 C2338 1.350 . S
C2342 C2339 1.463 . S
C2342 N2346 1.427 . S
C2343 H2333 0.929 . S
C2343 C2341 1.433 . S
C2343 N2346 1.384 . S
C2344 H2335 0.929 . S
C2344 C2336 1.378 . S
C2344 C2339 1.350 . S
C2345 H2332 0.931 1_565 S
C2345 C2337 1.433 . S
C2345 N2347 1.384 . S
N2346 C2342 1.427 . S
N2346 C2343 1.384 . S
N2347 C2339 1.427 . S
N2347 C2345 1.384 . S
H2348 C2354 0.930 . S
H2349 C2358 0.930 . S
H2350 C2363 0.929 . S
H2351 C2361 0.929 . S
H2352 C2356 0.929 . S
H2353 C2362 0.929 . S
C2354 H2348 0.930 . S
C2354 C2355 1.367 . S
C2354 C2362 1.378 . S
C2355 C2354 1.367 . S
C2355 C2363 1.433 . S
C2356 H2352 0.929 . S
C2356 C2358 1.378 . S
C2356 C2360 1.350 . S
C2357 C2360 1.463 . S
C2357 C2362 1.350 . S
C2357 N2365 1.427 . S
C2358 H2349 0.930 . S
C2358 C2356 1.378 . S
C2358 C2359 1.367 . S
C2359 C2358 1.367 . S
C2359 C2361 1.433 . S
C2360 C2356 1.350 . S
C2360 C2357 1.463 . S
C2360 N2364 1.427 . S
C2361 H2351 0.929 . S
C2361 C2359 1.433 . S
C2361 N2364 1.384 . S
C2362 H2353 0.929 . S
C2362 C2354 1.378 . S
C2362 C2357 1.350 . S
C2363 H2350 0.929 . S
C2363 C2355 1.433 . S
C2363 N2365 1.384 . S
N2364 C2360 1.427 . S
N2364 C2361 1.384 . S
N2365 C2357 1.427 . S
N2365 C2363 1.384 . S
H2366 C2372 0.933 1_565 S
H2367 C2376 0.930 . S
H2368 C2381 0.929 . S
H2369 C2379 0.916 1_565 S
H2370 C2374 0.929 . S
H2371 C2380 0.932 1_565 S
C2372 H2366 0.933 1_545 S
C2372 C2373 1.367 . S
C2372 C2380 1.378 . S
C2373 C2372 1.367 . S
C2373 C2381 1.433 . S
C2374 H2370 0.929 . S
C2374 C2376 1.378 . S
C2374 C2378 1.350 . S
C2375 C2378 1.463 1_455 S
C2375 C2380 1.350 . S
C2375 N2383 1.427 . S
C2376 H2367 0.930 . S
C2376 C2374 1.378 . S
C2376 C2377 1.367 . S
C2377 C2376 1.367 . S
C2377 C2379 1.433 . S
C2378 C2374 1.350 . S
C2378 C2375 1.463 1_655 S
C2378 N2382 1.427 . S
C2379 H2369 0.916 1_545 S
C2379 C2377 1.433 . S
C2379 N2382 1.384 . S
C2380 H2371 0.932 1_545 S
C2380 C2372 1.378 . S
C2380 C2375 1.350 . S
C2381 H2368 0.929 . S
C2381 C2373 1.433 . S
C2381 N2383 1.384 . S
N2382 C2378 1.427 . S
N2382 C2379 1.384 . S
N2383 C2375 1.427 . S
N2383 C2381 1.384 . S
H2384 C2390 0.930 . S
H2385 C2394 0.930 . S
H2386 C2399 0.929 . S
H2387 C2397 0.929 . S
H2388 C2392 0.929 . S
H2389 C2398 0.929 . S
C2390 H2384 0.930 . S
C2390 C2391 1.367 . S
C2390 C2398 1.378 . S
C2391 C2390 1.367 . S
C2391 C2399 1.433 . S
C2392 H2388 0.929 . S
C2392 C2394 1.378 . S
C2392 C2396 1.350 . S
C2393 C2396 1.463 . S
C2393 C2398 1.350 . S
C2393 N2401 1.427 . S
C2394 H2385 0.930 . S
C2394 C2392 1.378 . S
C2394 C2395 1.367 . S
C2395 C2394 1.367 . S
C2395 C2397 1.433 . S
C2396 C2392 1.350 . S
C2396 C2393 1.463 . S
C2396 N2400 1.427 . S
C2397 H2387 0.929 . S
C2397 C2395 1.433 . S
C2397 N2400 1.384 . S
C2398 H2389 0.929 . S
C2398 C2390 1.378 . S
C2398 C2393 1.350 . S
C2399 H2386 0.929 . S
C2399 C2391 1.433 . S
C2399 N2401 1.384 . S
N2400 C2396 1.427 . S
N2400 C2397 1.384 . S
N2401 C2393 1.427 . S
N2401 C2399 1.384 . S
H2402 C2408 0.930 . S
H2403 C2412 0.930 . S
H2404 C2417 0.929 . S
H2405 C2415 0.929 . S
H2406 C2410 0.929 . S
H2407 C2416 0.929 . S
C2408 H2402 0.930 . S
C2408 C2409 1.367 . S
C2408 C2416 1.378 . S
C2409 C2408 1.367 . S
C2409 C2417 1.433 . S
C2410 H2406 0.929 . S
C2410 C2412 1.378 . S
C2410 C2414 1.350 . S
C2411 C2414 1.463 . S
C2411 C2416 1.350 . S
C2411 N2419 1.427 . S
C2412 H2403 0.930 . S
C2412 C2410 1.378 . S
C2412 C2413 1.367 . S
C2413 C2412 1.367 . S
C2413 C2415 1.433 . S
C2414 C2410 1.350 . S
C2414 C2411 1.463 . S
C2414 N2418 1.427 . S
C2415 H2405 0.929 . S
C2415 C2413 1.433 . S
C2415 N2418 1.384 . S
C2416 H2407 0.929 . S
C2416 C2408 1.378 . S
C2416 C2411 1.350 . S
C2417 H2404 0.929 . S
C2417 C2409 1.433 . S
C2417 N2419 1.384 . S
N2418 C2414 1.427 . S
N2418 C2415 1.384 . S
N2419 C2411 1.427 . S
N2419 C2417 1.384 . S
H2420 C2426 0.930 . S
H2421 C2430 0.930 . S
H2422 C2435 0.929 . S
H2423 C2433 0.929 . S
H2424 C2428 0.929 . S
H2425 C2434 0.929 . S
C2426 H2420 0.930 . S
C2426 C2427 1.367 . S
C2426 C2434 1.378 . S
C2427 C2426 1.367 . S
C2427 C2435 1.433 . S
C2428 H2424 0.929 . S
C2428 C2430 1.378 . S
C2428 C2432 1.350 . S
C2429 C2432 1.463 . S
C2429 C2434 1.350 . S
C2429 N2437 1.427 . S
C2430 H2421 0.930 . S
C2430 C2428 1.378 . S
C2430 C2431 1.367 . S
C2431 C2430 1.367 . S
C2431 C2433 1.433 . S
C2432 C2428 1.350 . S
C2432 C2429 1.463 . S
C2432 N2436 1.427 . S
C2433 H2423 0.929 . S
C2433 C2431 1.433 . S
C2433 N2436 1.384 . S
C2434 H2425 0.929 . S
C2434 C2426 1.378 . S
C2434 C2429 1.350 . S
C2435 H2422 0.929 . S
C2435 C2427 1.433 . S
C2435 N2437 1.384 . S
N2436 C2432 1.427 . S
N2436 C2433 1.384 . S
N2437 C2429 1.427 . S
N2437 C2435 1.384 . S
H2438 C2444 0.930 . S
H2439 C2448 0.930 . S
H2440 C2453 0.929 . S
H2441 C2451 0.929 . S
H2442 C2446 0.929 . S
H2443 C2452 0.929 . S
C2444 H2438 0.930 . S
C2444 C2445 1.367 . S
C2444 C2452 1.378 . S
C2445 C2444 1.367 . S
C2445 C2453 1.433 . S
C2446 H2442 0.929 . S
C2446 C2448 1.378 . S
C2446 C2450 1.350 . S
C2447 C2450 1.463 . S
C2447 C2452 1.350 . S
C2447 N2455 1.427 . S
C2448 H2439 0.930 . S
C2448 C2446 1.378 . S
C2448 C2449 1.367 . S
C2449 C2448 1.367 . S
C2449 C2451 1.433 . S
C2450 C2446 1.350 . S
C2450 C2447 1.463 . S
C2450 N2454 1.427 . S
C2451 H2441 0.929 . S
C2451 C2449 1.433 . S
C2451 N2454 1.384 . S
C2452 H2443 0.929 . S
C2452 C2444 1.378 . S
C2452 C2447 1.350 . S
C2453 H2440 0.929 . S
C2453 C2445 1.433 . S
C2453 N2455 1.384 . S
N2454 C2450 1.427 . S
N2454 C2451 1.384 . S
N2455 C2447 1.427 . S
N2455 C2453 1.384 . S
H2456 C2462 0.930 . S
H2457 C2466 0.930 . S
H2458 C2471 0.929 . S
H2459 C2469 0.929 . S
H2460 C2464 0.929 . S
H2461 C2470 0.929 . S
C2462 H2456 0.930 . S
C2462 C2463 1.367 . S
C2462 C2470 1.378 . S
C2463 C2462 1.367 . S
C2463 C2471 1.433 . S
C2464 H2460 0.929 . S
C2464 C2466 1.378 . S
C2464 C2468 1.350 . S
C2465 C2468 1.463 . S
C2465 C2470 1.350 . S
C2465 N2473 1.427 . S
C2466 H2457 0.930 . S
C2466 C2464 1.378 . S
C2466 C2467 1.367 . S
C2467 C2466 1.367 . S
C2467 C2469 1.433 . S
C2468 C2464 1.350 . S
C2468 C2465 1.463 . S
C2468 N2472 1.427 . S
C2469 H2459 0.929 . S
C2469 C2467 1.433 . S
C2469 N2472 1.384 . S
C2470 H2461 0.929 . S
C2470 C2462 1.378 . S
C2470 C2465 1.350 . S
C2471 H2458 0.929 . S
C2471 C2463 1.433 . S
C2471 N2473 1.384 . S
N2472 C2468 1.427 . S
N2472 C2469 1.384 . S
N2473 C2465 1.427 . S
N2473 C2471 1.384 . S
H2474 C2480 0.930 . S
H2475 C2484 0.930 . S
H2476 C2489 0.929 . S
H2477 C2487 0.929 . S
H2478 C2482 0.929 . S
H2479 C2488 0.929 . S
C2480 H2474 0.930 . S
C2480 C2481 1.367 . S
C2480 C2488 1.378 . S
C2481 C2480 1.367 . S
C2481 C2489 1.433 . S
C2482 H2478 0.929 . S
C2482 C2484 1.378 . S
C2482 C2486 1.350 . S
C2483 C2486 1.463 1_455 S
C2483 C2488 1.350 . S
C2483 N2491 1.427 . S
C2484 H2475 0.930 . S
C2484 C2482 1.378 . S
C2484 C2485 1.367 . S
C2485 C2484 1.367 . S
C2485 C2487 1.433 . S
C2486 C2482 1.350 . S
C2486 C2483 1.463 1_655 S
C2486 N2490 1.427 . S
C2487 H2477 0.929 . S
C2487 C2485 1.433 . S
C2487 N2490 1.384 . S
C2488 H2479 0.929 . S
C2488 C2480 1.378 . S
C2488 C2483 1.350 . S
C2489 H2476 0.929 . S
C2489 C2481 1.433 . S
C2489 N2491 1.384 . S
N2490 C2486 1.427 . S
N2490 C2487 1.384 . S
N2491 C2483 1.427 . S
N2491 C2489 1.384 . S
H2492 C2498 0.930 . S
H2493 C2502 0.930 . S
H2494 C2507 0.929 . S
H2495 C2505 0.929 . S
H2496 C2500 0.929 . S
H2497 C2506 0.929 . S
C2498 H2492 0.930 . S
C2498 C2499 1.367 . S
C2498 C2506 1.378 . S
C2499 C2498 1.367 . S
C2499 C2507 1.433 . S
C2500 H2496 0.929 . S
C2500 C2502 1.378 . S
C2500 C2504 1.350 . S
C2501 C2504 1.463 1_455 S
C2501 C2506 1.350 . S
C2501 N2509 1.427 . S
C2502 H2493 0.930 . S
C2502 C2500 1.378 . S
C2502 C2503 1.367 . S
C2503 C2502 1.367 . S
C2503 C2505 1.433 . S
C2504 C2500 1.350 . S
C2504 C2501 1.463 1_655 S
C2504 N2508 1.427 . S
C2505 H2495 0.929 . S
C2505 C2503 1.433 . S
C2505 N2508 1.384 . S
C2506 H2497 0.929 . S
C2506 C2498 1.378 . S
C2506 C2501 1.350 . S
C2507 H2494 0.929 . S
C2507 C2499 1.433 . S
C2507 N2509 1.384 . S
N2508 C2504 1.427 . S
N2508 C2505 1.384 . S
N2509 C2501 1.427 . S
N2509 C2507 1.384 . S
H2510 C2516 0.930 . S
H2511 C2520 0.930 . S
H2512 C2525 0.929 . S
H2513 C2523 0.929 . S
H2514 C2518 0.929 . S
H2515 C2524 0.929 . S
C2516 H2510 0.930 . S
C2516 C2517 1.367 . S
C2516 C2524 1.378 . S
C2517 C2516 1.367 . S
C2517 C2525 1.433 . S
C2518 H2514 0.929 . S
C2518 C2520 1.378 . S
C2518 C2522 1.350 . S
C2519 C2522 1.463 . S
C2519 C2524 1.350 . S
C2519 N2527 1.427 . S
C2520 H2511 0.930 . S
C2520 C2518 1.378 . S
C2520 C2521 1.367 . S
C2521 C2520 1.367 . S
C2521 C2523 1.433 . S
C2522 C2518 1.350 . S
C2522 C2519 1.463 . S
C2522 N2526 1.427 . S
C2523 H2513 0.929 . S
C2523 C2521 1.433 . S
C2523 N2526 1.384 . S
C2524 H2515 0.929 . S
C2524 C2516 1.378 . S
C2524 C2519 1.350 . S
C2525 H2512 0.929 . S
C2525 C2517 1.433 . S
C2525 N2527 1.384 . S
N2526 C2522 1.427 . S
N2526 C2523 1.384 . S
N2527 C2519 1.427 . S
N2527 C2525 1.384 . S
C1095 C43 1.731 1_545 S
C1099 C33 1.694 . S
C1113 C67 1.681 . S
C1117 C77 1.764 . S
C1131 C101 1.696 . S
C1135 C111 1.744 1_565 S
C1149 C135 1.696 . S
C1153 C9 1.757 . S
C1167 C169 1.688 . S
C1171 C247 1.757 1_565 S
C1185 C145 1.758 . S
C1189 C203 1.696 . S
C1203 C237 1.683 . S
C1207 C179 1.733 1_545 S
C1221 C271 1.681 . S
C1225 C213 1.764 . S
C1239 C315 1.754 1_565 S
C1243 C305 1.692 . S
C1257 C349 1.764 . S
C1261 C339 1.681 . S
C1275 C373 1.696 . S
C1279 C383 1.745 1_545 S
C1293 C281 1.761 . S
C1297 C407 1.685 . S
C1311 C441 1.693 . S
C1315 C519 1.729 1_545 S
C1329 C475 1.681 . S
C1333 C417 1.764 . S
C1347 C451 1.734 1_565 S
C1351 C509 1.696 . S
C1365 C485 1.764 . S
C1369 C543 1.684 . S
C1383 C587 1.757 . S
C1387 C577 1.695 . S
C1401 C611 1.682 . S
C1405 C621 1.764 . S
C1419 C655 1.758 . S
C1423 C645 1.692 . S
C1437 C553 1.763 . S
C1441 C679 1.682 . S
C1455 C791 1.763 . S
C1459 C713 1.682 . S
C1473 C747 1.693 . S
C1477 C689 1.758 . S
C1491 C723 1.764 . S
C1495 C781 1.681 . S
C1509 C815 1.681 . S
C1513 C757 1.764 . S
C1527 C859 1.763 . S
C1531 C849 1.686 . S
C1545 C883 1.682 . S
C1549 C893 1.763 . S
C1563 C917 1.681 . S
C1567 C927 1.764 . S
C1581 C951 1.683 . S
C1585 C825 1.764 . S
C1599 C1063 1.762 . S
C1603 C985 1.690 . S
C1617 C961 1.757 . S
C1621 C1019 1.695 . S
C1635 C995 1.762 . S
C1639 C1053 1.690 . S
C1653 C1029 1.757 . S
C1657 C1087 1.694 . S
C1671 C209 0.906 . S
C1675 C5 0.915 . S
C1689 C39 0.912 . S
C1693 C243 0.919 . S
C1707 C73 0.914 . S
C1711 C141 0.905 . S
C1725 C107 0.914 . S
C1729 C175 0.919 . S
C1743 C481 0.909 . S
C1747 C277 0.902 . S
C1761 C515 0.919 . S
C1765 C311 0.914 . S
C1779 C345 0.904 . S
C1783 C413 0.914 . S
C1797 C447 0.917 . S
C1801 C379 0.908 . S
C1815 C549 0.919 . S
C1819 C753 0.912 . S
C1833 C583 0.905 . S
C1837 C787 0.903 . S
C1851 C685 0.906 . S
C1855 C617 0.915 . S
C1869 C719 0.909 . S
C1873 C651 0.902 . S
C1887 C1025 0.912 . S
C1891 C821 0.919 . S
C1905 C1059 0.919 . S
C1909 C855 0.911 . S
C1923 C957 0.911 . S
C1927 C889 0.903 . S
C1941 C991 0.918 . S
C1945 C923 0.910 . S
C1959 C172 0.766 . S
C1963 C2 0.766 . S
C1977 C36 0.784 . S
C1981 C206 0.784 . S
C1995 C70 0.783 . S
C1999 C240 0.783 . S
C2013 C104 0.774 . S
C2017 C138 0.774 . S
C2031 C444 0.766 . S
C2035 C274 0.766 . S
C2049 C308 0.784 . S
C2053 C478 0.784 . S
C2067 C512 0.767 . S
C2071 C342 0.767 . S
C2085 C376 0.766 . S
C2089 C410 0.766 . S
C2103 C546 0.777 . S
C2107 C716 0.777 . S
C2121 C750 0.767 . S
C2125 C580 0.767 . S
C2139 C784 0.778 . S
C2143 C614 0.778 . S
C2157 C648 0.777 . S
C2161 C682 0.777 . S
C2175 C818 0.766 . S
C2179 C988 0.766 . S
C2193 C1022 0.774 . S
C2197 C852 0.774 . S
C2211 C1056 0.770 . S
C2215 C886 0.770 . S
C2229 C954 0.783 . S
C2233 C920 0.784 . S
C2247 C20 1.535 . S
C2251 C1040 1.545 . S
C2265 C530 1.539 . S
C2269 C54 1.540 . S
C2283 C972 1.542 . S
C2287 C88 1.537 . S
C2301 C122 1.541 . S
C2305 C462 1.538 . S
C2319 C156 1.536 . S
C2323 C904 1.543 . S
C2337 C394 1.542 . S
C2341 C190 1.537 . S
C2355 C224 1.543 . S
C2359 C836 1.536 . S
C2373 C258 1.536 . S
C2377 C326 1.543 . S
C2391 C292 1.539 . S
C2395 C768 1.541 . S
C2409 C360 1.537 . S
C2413 C700 1.542 . S
C2427 C428 1.540 . S
C2431 C632 1.539 . S
C2445 C496 1.539 . S
C2449 C564 1.541 . S
C2463 C598 1.544 . S
C2467 C1074 1.535 . S
C2481 C1006 1.535 . S
C2485 C666 1.544 . S
C2499 C938 1.544 . S
C2503 C734 1.535 . S
C2517 C870 1.536 . S
C2521 C802 1.544 . S
