# Generated by pormake.
# Topology wld, (5)-cn, num edge types: 1
# Building blocks:
#     Node 0, Type 0, BuildingBlock: BEQFEK_clean_sbu_0, # of connection points: 5
#     Node 1, Type 0, BuildingBlock: BEQFEK_clean_sbu_0, # of connection points: 5
#     Node 2, Type 0, BuildingBlock: BEQFEK_clean_sbu_0, # of connection points: 5
#     Node 3, Type 0, BuildingBlock: BEQFEK_clean_sbu_0, # of connection points: 5
#     Node 4, Type 0, BuildingBlock: BEQFEK_clean_sbu_0, # of connection points: 5
#     Node 5, Type 0, BuildingBlock: BEQFEK_clean_sbu_0, # of connection points: 5
#     Node 6, Type 0, BuildingBlock: BEQFEK_clean_sbu_0, # of connection points: 5
#     Node 7, Type 0, BuildingBlock: BEQFEK_clean_sbu_0, # of connection points: 5
#     Node 8, Type 0, BuildingBlock: BEQFEK_clean_sbu_0, # of connection points: 5
#     Node 9, Type 0, BuildingBlock: BEQFEK_clean_sbu_0, # of connection points: 5
#     Node 10, Type 0, BuildingBlock: BEQFEK_clean_sbu_0, # of connection points: 5
#     Node 11, Type 0, BuildingBlock: BEQFEK_clean_sbu_0, # of connection points: 5
#     Edge 12, Type (0, 0), BuildingBlock: CIFDUS_clean_linker_0, # of connection points: 2
#     Edge 13, Type (0, 0), BuildingBlock: CIFDUS_clean_linker_0, # of connection points: 2
#     Edge 14, Type (0, 0), BuildingBlock: CIFDUS_clean_linker_0, # of connection points: 2
#     Edge 15, Type (0, 0), BuildingBlock: CIFDUS_clean_linker_0, # of connection points: 2
#     Edge 16, Type (0, 0), BuildingBlock: CIFDUS_clean_linker_0, # of connection points: 2
#     Edge 17, Type (0, 0), BuildingBlock: CIFDUS_clean_linker_0, # of connection points: 2
#     Edge 18, Type (0, 0), BuildingBlock: CIFDUS_clean_linker_0, # of connection points: 2
#     Edge 19, Type (0, 0), BuildingBlock: CIFDUS_clean_linker_0, # of connection points: 2
#     Edge 20, Type (0, 0), BuildingBlock: CIFDUS_clean_linker_0, # of connection points: 2
#     Edge 21, Type (0, 0), BuildingBlock: CIFDUS_clean_linker_0, # of connection points: 2
#     Edge 22, Type (0, 0), BuildingBlock: CIFDUS_clean_linker_0, # of connection points: 2
#     Edge 23, Type (0, 0), BuildingBlock: CIFDUS_clean_linker_0, # of connection points: 2
#     Edge 24, Type (0, 0), BuildingBlock: CIFDUS_clean_linker_0, # of connection points: 2
#     Edge 25, Type (0, 0), BuildingBlock: CIFDUS_clean_linker_0, # of connection points: 2
#     Edge 26, Type (0, 0), BuildingBlock: CIFDUS_clean_linker_0, # of connection points: 2
#     Edge 27, Type (0, 0), BuildingBlock: CIFDUS_clean_linker_0, # of connection points: 2
#     Edge 28, Type (0, 0), BuildingBlock: CIFDUS_clean_linker_0, # of connection points: 2
#     Edge 29, Type (0, 0), BuildingBlock: CIFDUS_clean_linker_0, # of connection points: 2
#     Edge 30, Type (0, 0), BuildingBlock: CIFDUS_clean_linker_0, # of connection points: 2
#     Edge 31, Type (0, 0), BuildingBlock: CIFDUS_clean_linker_0, # of connection points: 2
#     Edge 32, Type (0, 0), BuildingBlock: CIFDUS_clean_linker_0, # of connection points: 2
#     Edge 33, Type (0, 0), BuildingBlock: CIFDUS_clean_linker_0, # of connection points: 2
#     Edge 34, Type (0, 0), BuildingBlock: CIFDUS_clean_linker_0, # of connection points: 2
#     Edge 35, Type (0, 0), BuildingBlock: CIFDUS_clean_linker_0, # of connection points: 2
#     Edge 36, Type (0, 0), BuildingBlock: CIFDUS_clean_linker_0, # of connection points: 2
#     Edge 37, Type (0, 0), BuildingBlock: CIFDUS_clean_linker_0, # of connection points: 2
#     Edge 38, Type (0, 0), BuildingBlock: CIFDUS_clean_linker_0, # of connection points: 2
#     Edge 39, Type (0, 0), BuildingBlock: CIFDUS_clean_linker_0, # of connection points: 2
#     Edge 40, Type (0, 0), BuildingBlock: CIFDUS_clean_linker_0, # of connection points: 2
#     Edge 41, Type (0, 0), BuildingBlock: CIFDUS_clean_linker_0, # of connection points: 2
# Relax obj value: 0.312
# Max RMSD: 0.213
# Mean RMSD: 0.213
data_MOF--net-wld--node1-BEQFEK_clean_sbu_0--edge1-CIFDUS_clean_linker_0
_symmetry_space_group_name_H-M    P1
_symmetry_Int_Tables_number       1
_symmetry_cell_setting            triclinic
loop_
_symmetry_equiv_pos_as_xyz
'x, y, z'
_cell_length_a     35.653446
_cell_length_b     35.645906
_cell_length_c     37.143647
_cell_angle_alpha  90.094658
_cell_angle_beta   89.881885
_cell_angle_gamma 119.95969
loop_
_atom_site_label
_atom_site_type_symbol
_atom_site_fract_x
_atom_site_fract_y
_atom_site_fract_z
_atom_type_partial_charge
Co0 Co 0.37813 0.27103 0.10327 0.0
Co1 Co 0.39755 0.21756 0.16007 0.0
C2 C 0.45972 0.3134 0.14234 0.0
O3 O 0.43817 0.3166 0.11637 0.0
O4 O 0.44566 0.27812 0.1596 0.0
C5 C 0.36736 0.32945 0.05553 0.0
O6 O 0.40565 0.3592 0.06705 0.0
C7 C 0.46062 0.19138 0.17047 0.0
C8 C 0.43187 0.13736 0.20922 0.0
C9 C 0.46777 0.16088 0.18731 0.0
N10 N 0.42258 0.18641 0.18178 0.0
N11 N 0.40564 0.15436 0.20536 0.0
C12 C 0.48668 0.22108 0.1404 0.0
H13 H 0.466 0.22818 0.12274 0.0
H14 H 0.50232 0.20666 0.12397 0.0
H15 H 0.51232 0.25206 0.15196 0.0
C16 C 0.36476 0.19769 0.05663 0.0
N17 N 0.37537 0.21921 0.08821 0.0
N18 N 0.38001 0.19536 0.11281 0.0
C19 C 0.37145 0.15743 0.0979 0.0
C20 C 0.36182 0.15778 0.06185 0.0
C21 C 0.35477 0.21396 0.02299 0.0
H22 H 0.32282 0.2119 0.02606 0.0
H23 H 0.3794 0.24852 0.01887 0.0
H24 H 0.35374 0.19463 -0.00082 0.0
O25 O 0.34068 0.25879 0.14614 0.0
O26 O 0.34916 0.2179 0.18689 0.0
H27 H 0.35823 0.11809 0.14503 0.0
H28 H 0.35445 0.09013 0.10342 0.0
C29 C 0.3724 0.12143 0.11783 0.0
H30 H 0.40643 0.12907 0.12064 0.0
H31 H 0.37549 0.14289 0.21756 0.0
O32 O 0.35153 0.29072 0.06647 0.0
C33 C 0.33055 0.23857 0.17605 0.0
Co34 Co 0.72745 0.11341 0.10828 0.0
Co35 Co 0.7803 0.19295 0.15907 0.0
C36 C 0.68527 0.15859 0.13962 0.0
O37 O 0.68153 0.12846 0.11882 0.0
O38 O 0.72081 0.18353 0.15541 0.0
C39 C 0.67542 0.0277 0.08186 0.0
O40 O 0.65611 0.02236 0.11314 0.0
C41 C 0.8154 0.28496 0.16385 0.0
C42 C 0.84812 0.30327 0.21658 0.0
C43 C 0.83809 0.31983 0.18665 0.0
N44 N 0.81269 0.24955 0.17911 0.0
N45 N 0.83256 0.26064 0.21058 0.0
C46 C 0.79285 0.28439 0.12967 0.0
H47 H 0.77254 0.29949 0.1343 0.0
H48 H 0.77253 0.25096 0.11944 0.0
H49 H 0.81708 0.30361 0.10874 0.0
C50 C 0.80128 0.16818 0.0593 0.0
N51 N 0.77951 0.16117 0.09061 0.0
N52 N 0.80341 0.19249 0.11325 0.0
C53 C 0.84172 0.21953 0.09758 0.0
C54 C 0.84141 0.2054 0.06277 0.0
C55 C 0.78514 0.13814 0.02775 0.0
H56 H 0.78663 0.10853 0.03424 0.0
H57 H 0.7508 0.12823 0.02246 0.0
H58 H 0.80496 0.15344 0.00335 0.0
O59 O 0.73989 0.09151 0.15326 0.0
O60 O 0.77842 0.14677 0.19026 0.0
H61 H 0.87801 0.25127 0.14527 0.0
H62 H 0.91023 0.26349 0.10483 0.0
C63 C 0.87874 0.25726 0.11594 0.0
H64 H 0.87637 0.28672 0.11139 0.0
H65 H 0.83435 0.23897 0.22838 0.0
O66 O 0.70623 0.06502 0.0734 0.0
C67 C 0.75957 0.10636 0.18305 0.0
Co68 Co 0.89904 0.63415 0.10226 0.0
Co69 Co 0.82002 0.59763 0.15506 0.0
C70 C 0.86162 0.54556 0.12812 0.0
O71 O 0.88733 0.57373 0.10575 0.0
O72 O 0.83653 0.55266 0.14773 0.0
C73 C 0.95372 0.65585 0.03923 0.0
O74 O 0.92394 0.61836 0.02638 0.0
C75 C 0.72887 0.53627 0.15497 0.0
C76 C 0.70495 0.54397 0.20771 0.0
C77 C 0.69171 0.5216 0.17536 0.0
N78 N 0.76251 0.5667 0.17379 0.0
N79 N 0.74814 0.57114 0.20544 0.0
C80 C 0.73269 0.52036 0.11853 0.0
H81 H 0.76696 0.5317 0.11166 0.0
H82 H 0.71921 0.53267 0.09782 0.0
H83 H 0.71371 0.48444 0.11774 0.0
C84 C 0.83998 0.65386 0.05911 0.0
N85 N 0.84967 0.63739 0.08803 0.0
N86 N 0.81817 0.62466 0.11174 0.0
C87 C 0.78817 0.63371 0.09919 0.0
C88 C 0.80041 0.65148 0.06523 0.0
C89 C 0.86768 0.67086 0.02619 0.0
H90 H 0.90084 0.69609 0.03401 0.0
H91 H 0.86963 0.64404 0.01292 0.0
H92 H 0.85443 0.6846 0.00658 0.0
O93 O 0.91853 0.66168 0.15016 0.0
O94 O 0.86339 0.64094 0.18822 0.0
H95 H 0.75847 0.63319 0.14994 0.0
H96 H 0.74473 0.65707 0.11312 0.0
C97 C 0.7512 0.63073 0.12076 0.0
H98 H 0.72143 0.59957 0.11508 0.0
H99 H 0.76766 0.59276 0.22535 0.0
O100 O 0.94895 0.66817 0.07008 0.0
C101 C 0.90373 0.66355 0.18099 0.0
Co102 Co 0.27837 0.38815 0.39486 0.0
Co103 Co 0.22392 0.402 0.33623 0.0
C104 C 0.31975 0.46691 0.35222 0.0
O105 O 0.32325 0.44696 0.37927 0.0
O106 O 0.28427 0.45159 0.33502 0.0
C107 C 0.33687 0.38195 0.44622 0.0
O108 O 0.36714 0.41985 0.43443 0.0
C109 C 0.18788 0.45698 0.32636 0.0
C110 C 0.15217 0.43704 0.27505 0.0
C111 C 0.16272 0.4658 0.30358 0.0
N112 N 0.19131 0.4239 0.31272 0.0
N113 N 0.16984 0.41193 0.28197 0.0
C114 C 0.2109 0.48168 0.35957 0.0
H115 H 0.23552 0.47342 0.36841 0.0
H116 H 0.18722 0.47369 0.38173 0.0
H117 H 0.22653 0.51702 0.35448 0.0
C118 C 0.20434 0.37474 0.44054 0.0
N119 N 0.22615 0.38504 0.40908 0.0
N120 N 0.20135 0.38628 0.38357 0.0
C121 C 0.16227 0.37518 0.39765 0.0
C122 C 0.16309 0.36814 0.43427 0.0
C123 C 0.22133 0.36729 0.47494 0.0
H124 H 0.22069 0.33589 0.47323 0.0
H125 H 0.25548 0.39315 0.47879 0.0
H126 H 0.20152 0.36639 0.49836 0.0
O127 O 0.26677 0.34765 0.35417 0.0
O128 O 0.22508 0.35264 0.31216 0.0
H129 H 0.12688 0.36157 0.34789 0.0
H130 H 0.09336 0.34419 0.38762 0.0
C131 C 0.12433 0.36985 0.37621 0.0
H132 H 0.12344 0.40049 0.37693 0.0
H133 H 0.16766 0.38711 0.26558 0.0
O134 O 0.29877 0.36539 0.43373 0.0
C135 C 0.24638 0.33531 0.32441 0.0
Co136 Co 0.63149 0.88884 0.38414 0.0
Co137 Co 0.61 0.81376 0.32913 0.0
C138 C 0.54787 0.84695 0.34911 0.0
O139 O 0.57016 0.87274 0.37432 0.0
O140 O 0.56173 0.82562 0.3317 0.0
C141 C 0.67418 0.97469 0.41611 0.0
O142 O 0.67088 0.98789 0.38388 0.0
C143 C 0.55186 0.72258 0.32772 0.0
C144 C 0.56203 0.69925 0.27565 0.0
C145 C 0.53814 0.68577 0.30727 0.0
N146 N 0.58316 0.7565 0.30976 0.0
N147 N 0.58918 0.74247 0.27848 0.0
C148 C 0.5335 0.72558 0.36324 0.0
H149 H 0.5462 0.75967 0.37148 0.0
H150 H 0.54187 0.70882 0.38417 0.0
H151 H 0.49765 0.70886 0.36155 0.0
C152 C 0.64839 0.8309 0.43062 0.0
N153 N 0.63654 0.84085 0.39921 0.0
N154 N 0.63251 0.81245 0.37473 0.0
C155 C 0.6436 0.78473 0.38923 0.0
C156 C 0.65334 0.79507 0.42522 0.0
C157 C 0.65724 0.85678 0.46443 0.0
H158 H 0.68949 0.88638 0.46212 0.0
H159 H 0.63267 0.86693 0.46794 0.0
H160 H 0.65735 0.83818 0.48831 0.0
O161 O 0.66518 0.91317 0.33844 0.0
O162 O 0.65462 0.86098 0.29957 0.0
H163 H 0.64845 0.75575 0.33974 0.0
H164 H 0.67241 0.74515 0.3782 0.0
C165 C 0.64498 0.74901 0.36904 0.0
H166 H 0.61482 0.71799 0.37427 0.0
H167 H 0.61139 0.7623 0.25903 0.0
O168 O 0.65818 0.93437 0.42187 0.0
C169 C 0.67266 0.90104 0.30814 0.0
Co170 Co 0.10112 0.71958 0.39087 0.0
Co171 Co 0.18307 0.75967 0.34066 0.0
C172 C 0.137 0.66587 0.36376 0.0
O173 O 0.11126 0.66937 0.38554 0.0
O174 O 0.16429 0.69799 0.34539 0.0
C175 C 0.05166 0.69402 0.45691 0.0
O176 O 0.08654 0.69645 0.47106 0.0
C177 C 0.27133 0.77873 0.33261 0.0
C178 C 0.3 0.83259 0.29364 0.0
C179 C 0.31015 0.80862 0.31695 0.0
N180 N 0.23985 0.78551 0.32015 0.0
N181 N 0.25693 0.81708 0.29616 0.0
C182 C 0.26421 0.74564 0.36068 0.0
H183 H 0.24656 0.71298 0.34829 0.0
H184 H 0.24359 0.74663 0.38266 0.0
H185 H 0.29507 0.75032 0.37183 0.0
C186 C 0.15808 0.8005 0.43262 0.0
N187 N 0.15087 0.77177 0.40599 0.0
N188 N 0.1859 0.78681 0.38587 0.0
C189 C 0.217 0.82445 0.40004 0.0
C190 C 0.20031 0.83457 0.42988 0.0
C191 C 0.12384 0.79889 0.457 0.0
H192 H 0.09199 0.78286 0.44333 0.0
H193 H 0.12204 0.78062 0.48166 0.0
H194 H 0.13164 0.83196 0.46521 0.0
O195 O 0.08289 0.73064 0.34416 0.0
O196 O 0.14043 0.76341 0.30823 0.0
H197 H 0.26261 0.86056 0.35846 0.0
H198 H 0.28406 0.87711 0.40338 0.0
C199 C 0.2625 0.84921 0.38623 0.0
H200 H 0.27628 0.82762 0.38616 0.0
H201 H 0.23974 0.82963 0.28305 0.0
O202 O 0.05129 0.70239 0.42376 0.0
C203 C 0.1001 0.74838 0.31426 0.0
Co204 Co 0.62132 0.73447 0.89607 0.0
Co205 Co 0.60728 0.7886 0.83698 0.0
C206 C 0.54083 0.69402 0.8555 0.0
O207 O 0.56127 0.69073 0.88229 0.0
O208 O 0.55653 0.72887 0.83732 0.0
C209 C 0.63032 0.67457 0.94265 0.0
O210 O 0.59629 0.64402 0.92591 0.0
C211 C 0.5489 0.81899 0.82137 0.0
C212 C 0.58388 0.8748 0.78494 0.0
C213 C 0.54573 0.8517 0.80431 0.0
N214 N 0.58691 0.82216 0.8126 0.0
N215 N 0.6076 0.85524 0.79034 0.0
C216 C 0.51918 0.78914 0.84987 0.0
H217 H 0.53748 0.78144 0.86975 0.0
H218 H 0.50216 0.80368 0.86418 0.0
H219 H 0.49459 0.75853 0.83703 0.0
C220 C 0.63766 0.80994 0.94084 0.0
N221 N 0.62668 0.78783 0.90954 0.0
N222 N 0.62384 0.81195 0.8842 0.0
C223 C 0.63377 0.85067 0.89844 0.0
C224 C 0.64264 0.85059 0.93479 0.0
C225 C 0.64645 0.79348 0.97497 0.0
H226 H 0.6767 0.79212 0.97174 0.0
H227 H 0.61972 0.76006 0.98022 0.0
H228 H 0.65015 0.81462 -0.00178 0.0
O229 O 0.6597 0.74293 0.85464 0.0
O230 O 0.65493 0.78448 0.81238 0.0
H231 H 0.65123 0.89097 0.85161 0.0
H232 H 0.6508 0.91803 0.89263 0.0
C233 C 0.6345 0.88701 0.87768 0.0
H234 H 0.6008 0.8792 0.87239 0.0
H235 H 0.63869 0.86586 0.78042 0.0
O236 O 0.64395 0.71395 0.93489 0.0
C237 C 0.67136 0.76226 0.82441 0.0
Co238 Co 0.28884 0.89649 0.89263 0.0
Co239 Co 0.23389 0.82131 0.83809 0.0
C240 C 0.32974 0.85461 0.85384 0.0
O241 O 0.33403 0.88185 0.87805 0.0
O242 O 0.29376 0.8317 0.83797 0.0
C243 C 0.34137 0.9809 0.92015 0.0
O244 O 0.36006 0.98675 0.88852 0.0
C245 C 0.20344 0.73089 0.82785 0.0
C246 C 0.14998 0.70833 0.78873 0.0
C247 C 0.17157 0.69405 0.81095 0.0
N248 N 0.20087 0.76528 0.8164 0.0
N249 N 0.16927 0.75179 0.79253 0.0
C250 C 0.23083 0.73242 0.85905 0.0
H251 H 0.25892 0.73021 0.84899 0.0
H252 H 0.24296 0.76294 0.87443 0.0
H253 H 0.212 0.70459 0.87735 0.0
C254 C 0.21456 0.8409 0.94033 0.0
N255 N 0.2366 0.84856 0.90911 0.0
N256 N 0.21275 0.81819 0.88576 0.0
C257 C 0.17474 0.79005 0.90132 0.0
C258 C 0.17448 0.80355 0.93643 0.0
C259 C 0.22999 0.8715 0.97159 0.0
H260 H 0.23368 0.90294 0.96293 0.0
H261 H 0.26233 0.87749 0.98014 0.0
H262 H 0.20717 0.85907 0.99462 0.0
O263 O 0.27533 0.92103 0.85076 0.0
O264 O 0.23441 0.87027 0.81098 0.0
H265 H 0.13418 0.75882 0.85565 0.0
H266 H 0.10902 0.73438 0.89789 0.0
C267 C 0.13994 0.75036 0.88298 0.0
H268 H 0.15056 0.72616 0.8807 0.0
H269 H 0.15955 0.77181 0.78016 0.0
O270 O 0.31122 0.94331 0.92878 0.0
C271 C 0.25448 0.90984 0.82126 0.0
Co272 Co 0.10628 0.37953 0.88924 0.0
Co273 Co 0.18682 0.40749 0.83863 0.0
C274 C 0.15337 0.46808 0.86149 0.0
O275 O 0.12261 0.44156 0.88172 0.0
O276 O 0.17752 0.45697 0.84498 0.0
C277 C 0.02051 0.34701 0.91624 0.0
O278 O 0.0164 0.36464 0.88656 0.0
C279 C 0.27886 0.46428 0.83932 0.0
C280 C 0.30196 0.45611 0.78638 0.0
C281 C 0.31568 0.47857 0.81864 0.0
N282 N 0.24479 0.43403 0.82076 0.0
N283 N 0.25873 0.42917 0.78902 0.0
C284 C 0.27586 0.48168 0.87532 0.0
H285 H 0.2917 0.51751 0.87403 0.0
H286 H 0.24179 0.46796 0.88406 0.0
H287 H 0.29343 0.47365 0.89571 0.0
C288 C 0.16139 0.35931 0.93726 0.0
N289 N 0.15344 0.37346 0.90605 0.0
N290 N 0.1846 0.38117 0.88311 0.0
C291 C 0.2125 0.37094 0.89837 0.0
C292 C 0.19944 0.35774 0.93345 0.0
C293 C 0.13352 0.34845 0.97007 0.0
H294 H 0.10596 0.3149 0.96749 0.0
H295 H 0.12019 0.37061 0.97236 0.0
H296 H 0.152 0.35062 0.99475 0.0
O297 O 0.08542 0.34871 0.84229 0.0
O298 O 0.1413 0.36581 0.80569 0.0
H299 H 0.24184 0.36518 0.84944 0.0
H300 H 0.25237 0.34226 0.88889 0.0
C301 C 0.24848 0.36941 0.87875 0.0
H302 H 0.2794 0.3998 0.88349 0.0
H303 H 0.23874 0.40816 0.769 0.0
O304 O 0.05698 0.35056 0.9235 0.0
C305 C 0.10064 0.34509 0.81215 0.0
Co306 Co 0.71872 0.60984 0.60449 0.0
Co307 Co 0.77322 0.59214 0.66117 0.0
C308 C 0.67887 0.52655 0.64203 0.0
O309 O 0.67428 0.54925 0.61785 0.0
O310 O 0.7143 0.5408 0.6591 0.0
C311 C 0.66709 0.64134 0.57357 0.0
O312 O 0.64748 0.62995 0.60494 0.0
C313 C 0.80622 0.53456 0.67209 0.0
C314 C 0.85526 0.56379 0.71497 0.0
C315 C 0.83653 0.52928 0.69108 0.0
N316 N 0.80658 0.57033 0.68401 0.0
N317 N 0.83566 0.58755 0.71001 0.0
C318 C 0.78255 0.50987 0.63906 0.0
H319 H 0.76765 0.52622 0.62454 0.0
H320 H 0.80517 0.50626 0.6207 0.0
H321 H 0.75705 0.47685 0.64669 0.0
C322 C 0.79448 0.62823 0.55849 0.0
N323 N 0.77227 0.61557 0.58974 0.0
N324 N 0.79635 0.61117 0.61423 0.0
C325 C 0.83494 0.62138 0.59958 0.0
C326 C 0.83504 0.63234 0.56362 0.0
C327 C 0.7783 0.6397 0.52553 0.0
H328 H 0.77391 0.66772 0.53173 0.0
H329 H 0.74618 0.61212 0.51801 0.0
H330 H 0.80106 0.64838 0.50258 0.0
O331 O 0.7295 0.64788 0.64639 0.0
O332 O 0.76968 0.63937 0.68775 0.0
H333 H 0.87209 0.63053 0.64754 0.0
H334 H 0.9024 0.63808 0.607 0.0
C335 C 0.87023 0.61898 0.61956 0.0
H336 H 0.86305 0.585 0.62001 0.0
H337 H 0.84324 0.61624 0.7234 0.0
O338 O 0.69727 0.63326 0.56666 0.0
C339 C 0.74916 0.65799 0.6765 0.0
Co340 Co 0.37503 0.10598 0.59339 0.0
Co341 Co 0.40272 0.1753 0.65457 0.0
C342 C 0.46113 0.14202 0.62492 0.0
O343 O 0.43542 0.11922 0.5999 0.0
O344 O 0.451 0.16297 0.64694 0.0
C345 C 0.35921 0.05788 0.52568 0.0
O346 O 0.39806 0.08722 0.51489 0.0
C347 C 0.4649 0.26389 0.66958 0.0
C348 C 0.43515 0.284 0.71198 0.0
C349 C 0.47042 0.29948 0.68891 0.0
N350 N 0.42811 0.22892 0.68041 0.0
N351 N 0.41074 0.24088 0.70629 0.0
C352 C 0.49085 0.26412 0.63769 0.0
H353 H 0.47024 0.23796 0.61859 0.0
H354 H 0.5057 0.29573 0.62352 0.0
H355 H 0.51715 0.25847 0.64708 0.0
C356 C 0.35813 0.16925 0.5551 0.0
N357 N 0.37144 0.15601 0.58389 0.0
N358 N 0.38121 0.18411 0.61022 0.0
C359 C 0.37392 0.21592 0.59907 0.0
C360 C 0.35962 0.20782 0.56379 0.0
C361 C 0.34558 0.14601 0.51977 0.0
H362 H 0.37344 0.144 0.50885 0.0
H363 H 0.33611 0.1628 0.49977 0.0
H364 H 0.31834 0.11259 0.52388 0.0
O365 O 0.34213 0.07782 0.63736 0.0
O366 O 0.35618 0.12507 0.68151 0.0
H367 H 0.35711 0.265 0.61154 0.0
H368 H 0.41099 0.27801 0.62381 0.0
C369 C 0.37685 0.25151 0.62247 0.0
H370 H 0.36517 0.23906 0.64991 0.0
H371 H 0.38106 0.22026 0.71852 0.0
O372 O 0.34539 0.06131 0.55629 0.0
C373 C 0.33567 0.08642 0.66925 0.0
Co374 Co 0.89717 0.28098 0.60411 0.0
Co375 Co 0.81605 0.22435 0.65262 0.0
C376 C 0.85013 0.32024 0.63625 0.0
O377 O 0.88094 0.32589 0.6154 0.0
O378 O 0.82555 0.28369 0.65072 0.0
C379 C 0.98331 0.3361 0.57825 0.0
O380 O 0.98771 0.35659 0.60877 0.0
C381 C 0.72398 0.19069 0.65751 0.0
C382 C 0.70485 0.15493 0.7089 0.0
C383 C 0.68892 0.16736 0.68001 0.0
N384 N 0.75894 0.19156 0.67195 0.0
N385 N 0.74733 0.16991 0.70264 0.0
C386 C 0.72526 0.21565 0.62464 0.0
H387 H 0.75852 0.2344 0.61366 0.0
H388 H 0.70403 0.19321 0.60347 0.0
H389 H 0.71277 0.23777 0.63135 0.0
C390 C 0.84414 0.2106 0.55197 0.0
N391 N 0.85041 0.22935 0.58463 0.0
N392 N 0.81806 0.20391 0.60587 0.0
C393 C 0.79074 0.16754 0.58776 0.0
C394 C 0.80603 0.17076 0.55277 0.0
C395 C 0.87548 0.22966 0.52139 0.0
H396 H 0.90642 0.23153 0.52909 0.0
H397 H 0.88232 0.26316 0.51626 0.0
H398 H 0.86322 0.21002 0.49651 0.0
O399 O 0.91797 0.26785 0.64926 0.0
O400 O 0.86175 0.22588 0.68429 0.0
H401 H 0.75331 0.12916 0.63286 0.0
H402 H 0.74184 0.09957 0.59136 0.0
C403 C 0.75 0.13113 0.60338 0.0
H404 H 0.72265 0.13667 0.59775 0.0
H405 H 0.76858 0.16649 0.71978 0.0
O406 O 0.9467 0.30386 0.57026 0.0
C407 C 0.90249 0.24664 0.67833 0.0
H408 H 0.59926 0.09757 0.14432 0.0
H409 H 0.68862 0.23489 0.15215 0.0
H410 H 0.62962 0.24746 0.1688 0.0
H411 H 0.55308 0.21972 0.18228 0.0
H412 H 0.46288 0.08271 0.17653 0.0
H413 H 0.52172 0.06946 0.15905 0.0
C414 C 0.60556 0.13021 0.14926 0.0
C415 C 0.64816 0.16529 0.14669 0.0
C416 C 0.57148 0.13717 0.15981 0.0
C417 C 0.6561 0.20737 0.15387 0.0
C418 C 0.62242 0.2146 0.16352 0.0
C419 C 0.54629 0.18698 0.17698 0.0
C420 C 0.50372 0.1523 0.18015 0.0
C421 C 0.5801 0.17978 0.16682 0.0
C422 C 0.4955 0.10992 0.17427 0.0
C423 C 0.52905 0.10241 0.16399 0.0
H424 H 0.87047 0.37276 0.12846 0.0
H425 H 0.82058 0.36544 0.2356 0.0
H426 H 0.82342 0.43484 0.22675 0.0
H427 H 0.83667 0.4954 0.18763 0.0
H428 H 0.88842 0.50443 0.08084 0.0
H429 H 0.88762 0.43595 0.09017 0.0
C430 C 0.86 0.38633 0.14971 0.0
C431 C 0.84453 0.36382 0.18237 0.0
C432 C 0.8617 0.42616 0.14435 0.0
C433 C 0.83253 0.3823 0.21025 0.0
C434 C 0.83387 0.42175 0.20509 0.0
C435 C 0.84764 0.48235 0.16628 0.0
C436 C 0.862 0.50462 0.13337 0.0
C437 C 0.84775 0.44356 0.17207 0.0
C438 C 0.877 0.48776 0.10633 0.0
C439 C 0.87656 0.44867 0.11167 0.0
H440 H 0.63627 0.45119 0.21358 0.0
H441 H 0.648 0.51825 0.11418 0.0
H442 H 0.57653 0.46051 0.09515 0.0
H443 H 0.51149 0.38918 0.10606 0.0
H444 H 0.50217 0.32153 0.20502 0.0
H445 H 0.57137 0.38095 0.22482 0.0
C446 C 0.62288 0.45319 0.18792 0.0
C447 C 0.64733 0.48842 0.16512 0.0
C448 C 0.58216 0.41958 0.17696 0.0
C449 C 0.62996 0.49082 0.13184 0.0
C450 C 0.58904 0.45794 0.12104 0.0
C451 C 0.52455 0.38759 0.13199 0.0
C452 C 0.50157 0.3508 0.15386 0.0
C453 C 0.56501 0.42181 0.14319 0.0
C454 C 0.51913 0.34924 0.1874 0.0
C455 C 0.55877 0.3833 0.19891 0.0
H456 H 0.12948 0.48497 0.36201 0.0
H457 H 0.17446 0.5261 0.25361 0.0
H458 H 0.16917 0.59138 0.26261 0.0
H459 H 0.15722 0.63901 0.30271 0.0
H460 H 0.11061 0.5979 0.41086 0.0
H461 H 0.11146 0.53024 0.4008 0.0
C462 C 0.13804 0.50829 0.34042 0.0
C463 C 0.15313 0.5014 0.30741 0.0
C464 C 0.13506 0.54572 0.34591 0.0
C465 C 0.16284 0.53093 0.2792 0.0
C466 C 0.16013 0.56832 0.28446 0.0
C467 C 0.14718 0.61522 0.32412 0.0
C468 C 0.13455 0.62368 0.35772 0.0
C469 C 0.14724 0.57646 0.31794 0.0
C470 C 0.12068 0.59218 0.38488 0.0
C471 C 0.12123 0.5536 0.37911 0.0
H472 H 0.4607 0.63788 0.27484 0.0
H473 H 0.53831 0.63726 0.3632 0.0
H474 H 0.47776 0.56894 0.3852 0.0
H475 H 0.40151 0.51104 0.38065 0.0
H476 H 0.32313 0.51428 0.29348 0.0
H477 H 0.38477 0.57971 0.26996 0.0
C478 C 0.46437 0.62218 0.29849 0.0
C479 C 0.50372 0.64191 0.31721 0.0
C480 C 0.42905 0.58369 0.31153 0.0
C481 C 0.50817 0.62215 0.34831 0.0
C482 C 0.47355 0.58332 0.36097 0.0
C483 C 0.39789 0.52607 0.35655 0.0
C484 C 0.35756 0.5076 0.33903 0.0
C485 C 0.43357 0.56409 0.3431 0.0
C486 C 0.35362 0.52765 0.30773 0.0
C487 C 0.38895 0.56512 0.29408 0.0
H488 H 0.48828 0.85527 0.38997 0.0
H489 H 0.5134 0.82743 0.28236 0.0
H490 H 0.4432 0.81518 0.2624 0.0
H491 H 0.373 0.80946 0.27571 0.0
H492 H 0.34553 0.83307 0.38363 0.0
H493 H 0.41773 0.84992 0.40321 0.0
C494 C 0.47841 0.84687 0.36215 0.0
C495 C 0.50595 0.84217 0.33778 0.0
C496 C 0.43732 0.83881 0.35088 0.0
C497 C 0.49263 0.83091 0.3018 0.0
C498 C 0.45248 0.82394 0.29026 0.0
C499 C 0.38307 0.81843 0.30343 0.0
C500 C 0.35411 0.81959 0.32829 0.0
C501 C 0.42433 0.82728 0.31461 0.0
C502 C 0.36725 0.8314 0.36416 0.0
C503 C 0.40856 0.84114 0.37534 0.0
H504 H 0.41686 0.91341 0.85719 0.0
H505 H 0.32491 0.78293 0.82442 0.0
H506 H 0.38332 0.77177 0.80405 0.0
H507 H 0.46047 0.79799 0.79643 0.0
H508 H 0.55388 0.92864 0.82635 0.0
H509 H 0.49527 0.94144 0.84586 0.0
C510 C 0.40978 0.88252 0.84583 0.0
C511 C 0.36651 0.84877 0.84301 0.0
C512 C 0.44377 0.87661 0.83304 0.0
C513 C 0.3578 0.80923 0.82744 0.0
C514 C 0.39121 0.80285 0.81551 0.0
C515 C 0.46783 0.82942 0.8068 0.0
C516 C 0.5111 0.86231 0.81008 0.0
C517 C 0.43422 0.83621 0.81818 0.0
C518 C 0.52058 0.90302 0.82332 0.0
C519 C 0.48714 0.91011 0.83484 0.0
H520 H 0.09554 0.49725 0.85474 0.0
H521 H 0.23188 0.53895 0.8541 0.0
H522 H 0.2492 0.61168 0.83678 0.0
H523 H 0.22604 0.66268 0.81926 0.0
H524 H 0.09059 0.62359 0.81955 0.0
H525 H 0.07222 0.5502 0.83801 0.0
C526 C 0.12897 0.52257 0.85141 0.0
C527 C 0.16241 0.51287 0.85595 0.0
C528 C 0.13879 0.56444 0.84054 0.0
C529 C 0.2056 0.54568 0.85085 0.0
C530 C 0.21557 0.58722 0.84074 0.0
C531 C 0.19254 0.63833 0.82391 0.0
C532 C 0.15981 0.6487 0.81876 0.0
C533 C 0.18247 0.59681 0.83507 0.0
C534 C 0.11638 0.61629 0.82337 0.0
C535 C 0.10593 0.57449 0.83425 0.0
H536 H 0.49384 0.61477 0.88794 0.0
H537 H 0.49341 0.6892 0.79642 0.0
H538 H 0.42577 0.62818 0.77555 0.0
H539 H 0.36534 0.55386 0.78362 0.0
H540 H 0.36338 0.48027 0.87612 0.0
H541 H 0.43324 0.54026 0.89602 0.0
C542 C 0.47895 0.61766 0.86346 0.0
C543 C 0.49889 0.65667 0.8439 0.0
C544 C 0.4396 0.58238 0.85159 0.0
C545 C 0.47894 0.65972 0.8122 0.0
C546 C 0.4402 0.62473 0.80007 0.0
C547 C 0.38067 0.55094 0.80783 0.0
C548 C 0.35968 0.51296 0.82836 0.0
C549 C 0.4202 0.58593 0.81952 0.0
C550 C 0.37918 0.50948 0.86002 0.0
C551 C 0.41899 0.54374 0.8714 0.0
H552 H 0.782 0.4436 0.68755 0.0
H553 H 0.91705 0.5396 0.67935 0.0
H554 H 0.93383 0.48369 0.65958 0.0
H555 H 0.90879 0.40709 0.64253 0.0
H556 H 0.77275 0.31286 0.65111 0.0
H557 H 0.75736 0.36866 0.67143 0.0
C558 C 0.81509 0.45227 0.68124 0.0
C559 C 0.84818 0.4955 0.68437 0.0
C560 C 0.82412 0.42036 0.66929 0.0
C561 C 0.89111 0.50631 0.67725 0.0
C562 C 0.90057 0.47448 0.66557 0.0
C563 C 0.87581 0.39907 0.64842 0.0
C564 C 0.8419 0.35596 0.64503 0.0
C565 C 0.86716 0.4314 0.66093 0.0
C566 C 0.79938 0.34579 0.65341 0.0
C567 C 0.79053 0.37762 0.66522 0.0
H568 H 0.59107 0.49521 0.64345 0.0
H569 H 0.68805 0.45877 0.66134 0.0
H570 H 0.63262 0.38604 0.67804 0.0
H571 H 0.55656 0.33229 0.68782 0.0
H572 H 0.45852 0.36796 0.67466 0.0
H573 H 0.51395 0.44147 0.65675 0.0
C574 C 0.59983 0.47113 0.65072 0.0
C575 C 0.64366 0.48219 0.65051 0.0
C576 C 0.56758 0.4294 0.66172 0.0
C577 C 0.65466 0.451 0.66082 0.0
C578 C 0.62294 0.40938 0.6706 0.0
C579 C 0.5475 0.35636 0.68126 0.0
C580 C 0.50381 0.34503 0.6824 0.0
C581 C 0.57939 0.39825 0.67127 0.0
C582 C 0.4922 0.37632 0.6742 0.0
C583 C 0.5238 0.41813 0.66366 0.0
H584 H 0.63621 0.13764 0.62167 0.0
H585 H 0.64328 0.18324 0.73033 0.0
H586 H 0.57345 0.17993 0.72275 0.0
H587 H 0.51199 0.16666 0.68446 0.0
H588 H 0.50408 0.11957 0.57599 0.0
H589 H 0.57321 0.12174 0.58396 0.0
C590 C 0.6226 0.14726 0.6435 0.0
C591 C 0.64508 0.16151 0.67625 0.0
C592 C 0.58257 0.14531 0.63887 0.0
C593 C 0.62645 0.17226 0.70487 0.0
C594 C 0.58674 0.17062 0.70045 0.0
C595 C 0.52542 0.157 0.66248 0.0
C596 C 0.50305 0.14334 0.62954 0.0
C597 C 0.5648 0.15771 0.66742 0.0
C598 C 0.52065 0.13031 0.60157 0.0
C599 C 0.56016 0.13151 0.60612 0.0
H600 H 0.40819 0.15725 0.00443 0.0
H601 H 0.28916 0.07928 0.0622 0.0
H602 H 0.2727 0.01691 0.02392 0.0
H603 H 0.29353 0.9842 0.97557 0.0
H604 H 0.41212 0.0621 0.9167 0.0
H605 H 0.42776 0.12487 0.95401 0.0
C606 C 0.37843 0.12667 0.00809 0.0
C607 C 0.34978 0.12243 0.0358 0.0
C608 C 0.36951 0.09097 0.98623 0.0
C609 C 0.31145 0.08289 0.04082 0.0
C610 C 0.30223 0.04732 0.01914 0.0
C611 C 0.32294 0.01482 0.97101 0.0
C612 C 0.35183 0.01837 0.94364 0.0
C613 C 0.33133 0.05083 0.99212 0.0
C614 C 0.38946 0.05848 0.93774 0.0
C615 C 0.39836 0.09441 0.95897 0.0
H616 H 0.84488 0.25154 0.00405 0.0
H617 H 0.91729 0.20521 0.06328 0.0
H618 H 0.97957 0.2451 0.02315 0.0
H619 H 0.01409 0.29525 0.97258 0.0
H620 H 0.9416 0.34199 0.91333 0.0
H621 H 0.87886 0.30023 0.95211 0.0
C622 C 0.8742 0.24988 0.00768 0.0
C623 C 0.87682 0.22555 0.03621 0.0
C624 C 0.90993 0.27335 0.98481 0.0
C625 C 0.91484 0.22373 0.04123 0.0
C626 C 0.95038 0.24665 0.01845 0.0
C627 C 0.9846 0.29636 0.96816 0.0
C628 C 0.98269 0.32192 0.94015 0.0
C629 C 0.94849 0.27201 0.99042 0.0
C630 C 0.94405 0.32267 0.93468 0.0
C631 C 0.90808 0.29873 0.95683 0.0
H632 H 0.71866 0.59889 0.04353 0.0
H633 H 0.82505 0.72956 0.03403 0.0
H634 H 0.78083 0.74864 0.99611 0.0
H635 H 0.71209 0.72787 0.96602 0.0
H636 H 0.60597 0.59648 0.97427 0.0
H637 H 0.64978 0.5779 0.01293 0.0
C638 C 0.73201 0.63149 0.03301 0.0
C639 C 0.77492 0.6628 0.04103 0.0
C640 C 0.70643 0.64202 0.01141 0.0
C641 C 0.79221 0.70492 0.02752 0.0
C642 C 0.76688 0.71582 0.00615 0.0
C643 C 0.69837 0.6952 0.97644 0.0
C644 C 0.65575 0.6636 0.96743 0.0
C645 C 0.72395 0.68462 -0.002 0.0
C646 C 0.63867 0.62136 0.98085 0.0
C647 C 0.66371 0.61072 0.00288 0.0
H648 H 0.98976 0.28962 0.52305 0.0
H649 H 0.06218 0.41022 0.58063 0.0
H650 H 0.12504 0.43008 0.54207 0.0
H651 H 0.15906 0.41361 0.49097 0.0
H652 H 0.08695 0.29233 0.43479 0.0
H653 H 0.02433 0.27201 0.47394 0.0
C654 C 0.01921 0.32035 0.52711 0.0
C655 C 0.02114 0.34855 0.55451 0.0
C656 C 0.05533 0.33129 0.50517 0.0
C657 C 0.05978 0.38797 0.55967 0.0
C658 C 0.09577 0.39934 0.53766 0.0
C659 C 0.12967 0.38262 0.48771 0.0
C660 C 0.12711 0.35455 0.46007 0.0
C661 C 0.0939 0.37127 0.51031 0.0
C662 C 0.08916 0.31448 0.45579 0.0
C663 C 0.05348 0.30293 0.4781 0.0
H664 H 0.60511 0.74996 0.48233 0.0
H665 H 0.72449 0.78613 0.42669 0.0
H666 H 0.73852 0.74012 0.4669 0.0
H667 H 0.71603 0.68877 0.51703 0.0
H668 H 0.59736 0.65364 0.574 0.0
H669 H 0.58356 0.69985 0.53403 0.0
C670 C 0.63438 0.74802 0.47947 0.0
C671 C 0.66378 0.77105 0.45181 0.0
C672 C 0.64203 0.72141 0.50259 0.0
C673 C 0.70146 0.76833 0.44785 0.0
C674 C 0.70938 0.74203 0.47073 0.0
C675 C 0.68699 0.69096 0.52059 0.0
C676 C 0.6576 0.66753 0.54829 0.0
C677 C 0.67965 0.71809 0.49794 0.0
C678 C 0.62042 0.67122 0.5528 0.0
C679 C 0.61257 0.69773 0.53004 0.0
H680 H 0.29956 0.97782 0.54743 0.0
H681 H 0.35512 0.05561 0.45236 0.0
H682 H 0.30612 0.9943 0.41435 0.0
H683 H 0.24884 0.91823 0.40844 0.0
H684 H 0.20105 0.83803 0.50312 0.0
H685 H 0.24396 0.90121 0.54137 0.0
C686 C 0.30082 0.9813 0.51837 0.0
C687 C 0.33077 0.02096 0.50256 0.0
C688 C 0.27354 0.94572 0.49683 0.0
C689 C 0.33251 0.02516 0.46497 0.0
C690 C 0.30437 0.99028 0.44333 0.0
C691 C 0.24827 0.91456 0.43745 0.0
C692 C 0.22258 0.8735 0.45298 0.0
C693 C 0.27504 0.95035 0.45899 0.0
C694 C 0.22066 0.86936 0.49059 0.0
C695 C 0.24551 0.90533 0.5124 0.0
H696 H 0.719 0.02432 0.02298 0.0
H697 H 0.60475 0.94662 0.08701 0.0
H698 H 0.58534 0.88431 0.04798 0.0
H699 H 0.60028 0.85209 0.99479 0.0
H700 H 0.71504 0.92953 0.93176 0.0
H701 H 0.7351 0.99173 0.97135 0.0
C702 C 0.68976 0.99382 0.02835 0.0
C703 C 0.66322 0.99025 0.05774 0.0
C704 C 0.67904 0.95802 0.00606 0.0
C705 C 0.6257 0.95031 0.06451 0.0
C706 C 0.61459 0.91462 0.04224 0.0
C707 C 0.62984 0.88256 0.99011 0.0
C708 C 0.65614 0.88665 0.96052 0.0
C709 C 0.64099 0.91809 0.01293 0.0
C710 C 0.69431 0.92605 0.95439 0.0
C711 C 0.70569 0.9615 0.97692 0.0
H712 H 0.0384 0.69357 0.05648 0.0
H713 H 0.95106 0.68453 0.97251 0.0
H714 H 0.01237 0.7359 0.93561 0.0
H715 H 0.09072 0.78103 0.92653 0.0
H716 H 0.17841 0.77973 0.00548 0.0
H717 H 0.11748 0.73667 0.0461 0.0
C718 C 0.03308 0.70298 0.03006 0.0
C719 C 0.9907 0.68551 0.0169 0.0
C720 C 0.06849 0.73109 0.00854 0.0
C721 C 0.98366 0.69745 0.98275 0.0
C722 C 0.01858 0.72693 0.96186 0.0
C723 C 0.09636 0.77093 0.95254 0.0
C724 C 0.13872 0.78278 0.96285 0.0
C725 C 0.0611 0.74356 0.97435 0.0
C726 C 0.14597 0.77095 -0.00295 0.0
C727 C 0.11114 0.74594 0.02003 0.0
H728 H 0.28364 0.40629 0.95068 0.0
H729 H 0.16861 0.28581 0.97605 0.0
H730 H 0.21073 0.26607 0.01609 0.0
H731 H 0.28094 0.28225 0.04181 0.0
H732 H 0.3957 0.40351 0.01644 0.0
H733 H 0.35312 0.42355 0.97783 0.0
C734 C 0.26788 0.37571 0.96502 0.0
C735 C 0.2233 0.34732 0.9604 0.0
C736 C 0.29232 0.36462 0.98757 0.0
C737 C 0.2029 0.30818 0.97949 0.0
C738 C 0.22703 0.29682 0.00209 0.0
C739 C 0.29668 0.31301 0.02773 0.0
C740 C 0.34155 0.34122 0.03177 0.0
C741 C 0.27188 0.32458 0.00596 0.0
C742 C 0.36129 0.38118 0.01373 0.0
C743 C 0.33696 0.39269 0.9917 0.0
H744 H 0.96596 0.64361 0.4437 0.0
H745 H 0.05701 0.73181 0.52146 0.0
H746 H 0.99743 0.72565 0.55861 0.0
H747 H 0.91951 0.69421 0.56935 0.0
H748 H 0.82842 0.59575 0.49775 0.0
H749 H 0.88748 0.60841 0.45662 0.0
C750 C 0.97253 0.66127 0.46887 0.0
C751 C 0.01555 0.68805 0.48002 0.0
C752 C 0.9381 0.65623 0.49073 0.0
C753 C 0.02402 0.71071 0.51265 0.0
C754 C 0.99004 0.70743 0.53371 0.0
C755 C 0.91272 0.67499 0.54504 0.0
C756 C 0.86991 0.64356 0.53686 0.0
C757 C 0.94699 0.68008 0.52312 0.0
C758 C 0.86121 0.62025 0.50451 0.0
C759 C 0.89498 0.62711 0.48127 0.0
H760 H 0.4106 0.29259 0.54843 0.0
H761 H 0.28378 0.18312 0.52917 0.0
H762 H 0.26498 0.22814 0.49215 0.0
H763 H 0.28503 0.29803 0.46499 0.0
H764 H 0.41251 0.40776 0.48293 0.0
H765 H 0.4306 0.36333 0.52132 0.0
C766 C 0.37889 0.27881 0.53606 0.0
C767 C 0.34863 0.23475 0.54101 0.0
C768 C 0.36846 0.30488 0.51491 0.0
C769 C 0.30763 0.21691 0.5251 0.0
C770 C 0.29688 0.24265 0.5042 0.0
C771 C 0.31674 0.31243 0.47743 0.0
C772 C 0.34739 0.3562 0.47111 0.0
C773 C 0.32709 0.28661 0.49888 0.0
C774 C 0.38835 0.37416 0.48733 0.0
C775 C 0.39873 0.34876 0.50922 0.0
H776 H 0.78178 0.08555 0.55002 0.0
H777 H 0.78232 0.18783 0.48806 0.0
H778 H 0.74228 0.13652 0.43963 0.0
H779 H 0.70465 0.06181 0.41612 0.0
H780 H 0.69966 0.95888 0.48082 0.0
H781 H 0.74258 0.01082 0.52742 0.0
C782 C 0.77257 0.0964 0.5261 0.0
C783 C 0.78444 0.14016 0.52267 0.0
C784 C 0.74836 0.06649 0.49905 0.0
C785 C 0.77361 0.15422 0.49112 0.0
C786 C 0.75047 0.12486 0.46361 0.0
C787 C 0.71289 0.05072 0.44043 0.0
C788 C 0.69891 0.00643 0.44486 0.0
C789 C 0.73724 0.08078 0.46746 0.0
C790 C 0.70981 0.99268 0.47664 0.0
C791 C 0.73453 0.02241 0.50332 0.0
H792 H 0.22755 0.31492 0.25323 0.0
H793 H 0.27933 0.28482 0.34674 0.0
H794 H 0.30424 0.24545 0.30936 0.0
H795 H 0.32182 0.22984 0.24914 0.0
H796 H 0.27166 0.26161 0.15556 0.0
H797 H 0.23515 0.28899 0.19385 0.0
C798 C 0.24334 0.29888 0.26555 0.0
C799 C 0.25233 0.30373 0.30262 0.0
C800 C 0.25843 0.27683 0.24378 0.0
C801 C 0.27262 0.28239 0.31813 0.0
C802 C 0.287 0.25982 0.29677 0.0
C803 C 0.30191 0.24161 0.23718 0.0
C804 C 0.30021 0.2444 0.19957 0.0
C805 C 0.2817 0.25836 0.25937 0.0
C806 C 0.27415 0.25973 0.1845 0.0
C807 C 0.2533 0.27556 0.20637 0.0
H808 H 0.7362 0.02202 0.17286 0.0
H809 H 0.77526 0.11984 0.25546 0.0
H810 H 0.75715 0.06479 0.30183 0.0
H811 H 0.72132 0.98805 0.3188 0.0
H812 H 0.68045 0.89016 0.23603 0.0
H813 H 0.70901 0.94633 0.18984 0.0
C814 C 0.74138 0.03148 0.20099 0.0
C815 C 0.75638 0.07493 0.21068 0.0
C816 C 0.73034 0.99961 0.22749 0.0
C817 C 0.76356 0.08665 0.24722 0.0
C818 C 0.75299 0.05513 0.27378 0.0
C819 C 0.71925 0.97893 0.2907 0.0
C820 C 0.69803 0.93481 0.28093 0.0
C821 C 0.73499 0.01135 0.26422 0.0
C822 C 0.69634 0.92375 0.24438 0.0
C823 C 0.71244 0.95588 0.2179 0.0
H824 H 0.99086 0.71414 0.17398 0.0
H825 H 0.88782 0.66885 0.25257 0.0
H826 H 0.9412 0.69799 0.30095 0.0
H827 H 0.01581 0.72622 0.32087 0.0
H828 H 0.1185 0.76677 0.24246 0.0
H829 H 0.06631 0.75012 0.19389 0.0
C830 C 0.97993 0.71115 0.20164 0.0
C831 C 0.93528 0.68852 0.20965 0.0
C832 C 0.0107 0.72677 0.22931 0.0
C833 C 0.92189 0.68568 0.24562 0.0
C834 C 0.95241 0.70217 0.27332 0.0
C835 C 0.02703 0.73203 0.29319 0.0
C836 C 0.07094 0.7469 0.28529 0.0
C837 C 0.99675 0.72118 0.26548 0.0
C838 C 0.0849 0.75501 0.24931 0.0
C839 C 0.05502 0.74527 0.22152 0.0
H840 H 0.76412 0.67347 0.74884 0.0
H841 H 0.72297 0.714 0.65461 0.0
H842 H 0.70122 0.75596 0.69192 0.0
H843 H 0.68371 0.77232 0.75171 0.0
H844 H 0.72306 0.73051 0.84617 0.0
H845 H 0.75623 0.69901 0.80851 0.0
C846 C 0.7513 0.69225 0.73643 0.0
C847 C 0.74443 0.68977 0.69907 0.0
C848 C 0.73805 0.71596 0.75816 0.0
C849 C 0.72794 0.71458 0.68342 0.0
C850 C 0.71542 0.73869 0.70473 0.0
C851 C 0.70053 0.75735 0.76407 0.0
C852 C 0.70015 0.75317 0.80167 0.0
C853 C 0.71877 0.7383 0.74223 0.0
C854 C 0.72224 0.73367 0.81721 0.0
C855 C 0.74116 0.71545 0.7957 0.0
H856 H 0.24001 0.90759 0.74876 0.0
H857 H 0.27884 0.99227 0.84123 0.0
H858 H 0.3025 0.05486 0.80227 0.0
H859 H 0.32273 0.08668 0.74187 0.0
H860 H 0.28437 0.0021 0.6493 0.0
H861 H 0.24967 0.93898 0.68821 0.0
C862 C 0.25258 0.93958 0.76039 0.0
C863 C 0.25846 0.9452 0.79776 0.0
C864 C 0.26695 0.97584 0.73776 0.0
C865 C 0.27464 0.98698 0.81242 0.0
C866 C 0.28834 0.02297 0.79018 0.0
C867 C 0.30599 0.05451 0.73017 0.0
C868 C 0.30718 0.04935 0.69278 0.0
C869 C 0.28638 0.018 0.75275 0.0
C870 C 0.28481 0.00725 0.67809 0.0
C871 C 0.26488 0.97092 0.70032 0.0
H872 H 0.01399 0.28986 0.81872 0.0
H873 H 0.1173 0.34374 0.74026 0.0
H874 H 0.06443 0.31249 0.69167 0.0
H875 H 0.98903 0.2783 0.67153 0.0
H876 H 0.88561 0.22621 0.74988 0.0
H877 H 0.93856 0.24775 0.79846 0.0
C878 C 0.02508 0.29429 0.79102 0.0
C879 C 0.0696 0.31979 0.78318 0.0
C880 C 0.99448 0.27678 0.76318 0.0
C881 C 0.0833 0.32455 0.74713 0.0
C882 C 0.05305 0.30684 0.71929 0.0
C883 C 0.97793 0.27098 0.6992 0.0
C884 C 0.93337 0.25127 0.70704 0.0
C885 C 0.00855 0.28417 0.727 0.0
C886 C 0.91965 0.24149 0.74302 0.0
C887 C 0.94996 0.25407 0.77086 0.0
loop_
_geom_bond_atom_site_label_1
_geom_bond_atom_site_label_2
_geom_bond_distance
_geom_bond_site_symmetry_2
_ccdc_geom_bond_type
Co0 O3 1.970 . S
Co0 N17 1.989 . S
Co0 O25 1.967 . S
Co0 O32 1.920 . S
Co1 O4 1.966 . S
Co1 N10 2.022 . S
Co1 N18 1.993 . S
Co1 O26 1.941 . S
C2 O3 1.258 . S
C2 O4 1.263 . S
O3 Co0 1.970 . S
O3 C2 1.258 . S
O4 Co1 1.966 . S
O4 C2 1.263 . S
C5 O6 1.235 . S
C5 O32 1.289 . S
O6 C5 1.235 . S
C7 C9 1.400 . S
C7 N10 1.351 . S
C7 C12 1.501 . S
C8 C9 1.387 . S
C8 N11 1.341 . S
C9 C7 1.400 . S
C9 C8 1.387 . S
N10 Co1 2.022 . S
N10 C7 1.351 . S
N10 N11 1.365 . S
N11 C8 1.341 . S
N11 N10 1.365 . S
N11 H31 0.862 . S
C12 C7 1.501 . S
C12 H13 0.961 . S
C12 H14 0.961 . S
C12 H15 0.960 . S
H13 C12 0.961 . S
H14 C12 0.961 . S
H15 C12 0.960 . S
C16 N17 1.342 . S
C16 C20 1.401 . S
C16 C21 1.499 . S
N17 Co0 1.989 . S
N17 C16 1.342 . S
N17 N18 1.388 . S
N18 Co1 1.993 . S
N18 N17 1.388 . S
N18 C19 1.346 . S
C19 N18 1.346 . S
C19 C20 1.396 . S
C19 C29 1.510 . S
C20 C16 1.401 . S
C20 C19 1.396 . S
C21 C16 1.499 . S
C21 H22 0.959 . S
C21 H23 0.960 . S
C21 H24 0.961 . S
H22 C21 0.959 . S
H23 C21 0.960 . S
H24 C21 0.961 . S
O25 Co0 1.967 . S
O25 C33 1.258 . S
O26 Co1 1.941 . S
O26 C33 1.266 . S
H27 C29 0.959 . S
H28 C29 0.961 . S
C29 C19 1.510 . S
C29 H27 0.959 . S
C29 H28 0.961 . S
C29 H30 0.960 . S
H30 C29 0.960 . S
H31 N11 0.862 . S
O32 Co0 1.920 . S
O32 C5 1.289 . S
C33 O25 1.258 . S
C33 O26 1.266 . S
Co34 O37 1.970 . S
Co34 N51 1.989 . S
Co34 O59 1.967 . S
Co34 O66 1.920 . S
Co35 O38 1.966 . S
Co35 N44 2.022 . S
Co35 N52 1.993 . S
Co35 O60 1.941 . S
C36 O37 1.258 . S
C36 O38 1.263 . S
O37 Co34 1.970 . S
O37 C36 1.258 . S
O38 Co35 1.966 . S
O38 C36 1.263 . S
C39 O40 1.235 . S
C39 O66 1.289 . S
O40 C39 1.235 . S
C41 C43 1.400 . S
C41 N44 1.351 . S
C41 C46 1.501 . S
C42 C43 1.387 . S
C42 N45 1.341 . S
C43 C41 1.400 . S
C43 C42 1.387 . S
N44 Co35 2.022 . S
N44 C41 1.351 . S
N44 N45 1.365 . S
N45 C42 1.341 . S
N45 N44 1.365 . S
N45 H65 0.862 . S
C46 C41 1.501 . S
C46 H47 0.961 . S
C46 H48 0.961 . S
C46 H49 0.960 . S
H47 C46 0.961 . S
H48 C46 0.961 . S
H49 C46 0.960 . S
C50 N51 1.342 . S
C50 C54 1.401 . S
C50 C55 1.499 . S
N51 Co34 1.989 . S
N51 C50 1.342 . S
N51 N52 1.388 . S
N52 Co35 1.993 . S
N52 N51 1.388 . S
N52 C53 1.346 . S
C53 N52 1.346 . S
C53 C54 1.396 . S
C53 C63 1.510 . S
C54 C50 1.401 . S
C54 C53 1.396 . S
C55 C50 1.499 . S
C55 H56 0.959 . S
C55 H57 0.960 . S
C55 H58 0.961 . S
H56 C55 0.959 . S
H57 C55 0.960 . S
H58 C55 0.961 . S
O59 Co34 1.967 . S
O59 C67 1.258 . S
O60 Co35 1.941 . S
O60 C67 1.266 . S
H61 C63 0.959 . S
H62 C63 0.961 . S
C63 C53 1.510 . S
C63 H61 0.959 . S
C63 H62 0.961 . S
C63 H64 0.960 . S
H64 C63 0.960 . S
H65 N45 0.862 . S
O66 Co34 1.920 . S
O66 C39 1.289 . S
C67 O59 1.258 . S
C67 O60 1.266 . S
Co68 O71 1.970 . S
Co68 N85 1.989 . S
Co68 O93 1.967 . S
Co68 O100 1.920 . S
Co69 O72 1.966 . S
Co69 N78 2.022 . S
Co69 N86 1.993 . S
Co69 O94 1.941 . S
C70 O71 1.258 . S
C70 O72 1.263 . S
O71 Co68 1.970 . S
O71 C70 1.258 . S
O72 Co69 1.966 . S
O72 C70 1.263 . S
C73 O74 1.235 . S
C73 O100 1.289 . S
O74 C73 1.235 . S
C75 C77 1.400 . S
C75 N78 1.351 . S
C75 C80 1.501 . S
C76 C77 1.387 . S
C76 N79 1.341 . S
C77 C75 1.400 . S
C77 C76 1.387 . S
N78 Co69 2.022 . S
N78 C75 1.351 . S
N78 N79 1.365 . S
N79 C76 1.341 . S
N79 N78 1.365 . S
N79 H99 0.862 . S
C80 C75 1.501 . S
C80 H81 0.961 . S
C80 H82 0.961 . S
C80 H83 0.960 . S
H81 C80 0.961 . S
H82 C80 0.961 . S
H83 C80 0.960 . S
C84 N85 1.342 . S
C84 C88 1.401 . S
C84 C89 1.499 . S
N85 Co68 1.989 . S
N85 C84 1.342 . S
N85 N86 1.388 . S
N86 Co69 1.993 . S
N86 N85 1.388 . S
N86 C87 1.346 . S
C87 N86 1.346 . S
C87 C88 1.396 . S
C87 C97 1.510 . S
C88 C84 1.401 . S
C88 C87 1.396 . S
C89 C84 1.499 . S
C89 H90 0.959 . S
C89 H91 0.960 . S
C89 H92 0.961 . S
H90 C89 0.959 . S
H91 C89 0.960 . S
H92 C89 0.961 . S
O93 Co68 1.967 . S
O93 C101 1.258 . S
O94 Co69 1.941 . S
O94 C101 1.266 . S
H95 C97 0.959 . S
H96 C97 0.961 . S
C97 C87 1.510 . S
C97 H95 0.959 . S
C97 H96 0.961 . S
C97 H98 0.960 . S
H98 C97 0.960 . S
H99 N79 0.862 . S
O100 Co68 1.920 . S
O100 C73 1.289 . S
C101 O93 1.258 . S
C101 O94 1.266 . S
Co102 O105 1.970 . S
Co102 N119 1.989 . S
Co102 O127 1.967 . S
Co102 O134 1.920 . S
Co103 O106 1.966 . S
Co103 N112 2.022 . S
Co103 N120 1.993 . S
Co103 O128 1.941 . S
C104 O105 1.258 . S
C104 O106 1.263 . S
O105 Co102 1.970 . S
O105 C104 1.258 . S
O106 Co103 1.966 . S
O106 C104 1.263 . S
C107 O108 1.235 . S
C107 O134 1.289 . S
O108 C107 1.235 . S
C109 C111 1.400 . S
C109 N112 1.351 . S
C109 C114 1.501 . S
C110 C111 1.387 . S
C110 N113 1.341 . S
C111 C109 1.400 . S
C111 C110 1.387 . S
N112 Co103 2.022 . S
N112 C109 1.351 . S
N112 N113 1.365 . S
N113 C110 1.341 . S
N113 N112 1.365 . S
N113 H133 0.862 . S
C114 C109 1.501 . S
C114 H115 0.961 . S
C114 H116 0.961 . S
C114 H117 0.960 . S
H115 C114 0.961 . S
H116 C114 0.961 . S
H117 C114 0.960 . S
C118 N119 1.342 . S
C118 C122 1.401 . S
C118 C123 1.499 . S
N119 Co102 1.989 . S
N119 C118 1.342 . S
N119 N120 1.388 . S
N120 Co103 1.993 . S
N120 N119 1.388 . S
N120 C121 1.346 . S
C121 N120 1.346 . S
C121 C122 1.396 . S
C121 C131 1.510 . S
C122 C118 1.401 . S
C122 C121 1.396 . S
C123 C118 1.499 . S
C123 H124 0.959 . S
C123 H125 0.960 . S
C123 H126 0.961 . S
H124 C123 0.959 . S
H125 C123 0.960 . S
H126 C123 0.961 . S
O127 Co102 1.967 . S
O127 C135 1.258 . S
O128 Co103 1.941 . S
O128 C135 1.266 . S
H129 C131 0.959 . S
H130 C131 0.961 . S
C131 C121 1.510 . S
C131 H129 0.959 . S
C131 H130 0.961 . S
C131 H132 0.960 . S
H132 C131 0.960 . S
H133 N113 0.862 . S
O134 Co102 1.920 . S
O134 C107 1.289 . S
C135 O127 1.258 . S
C135 O128 1.266 . S
Co136 O139 1.970 . S
Co136 N153 1.989 . S
Co136 O161 1.967 . S
Co136 O168 1.920 . S
Co137 O140 1.966 . S
Co137 N146 2.022 . S
Co137 N154 1.993 . S
Co137 O162 1.941 . S
C138 O139 1.258 . S
C138 O140 1.263 . S
O139 Co136 1.970 . S
O139 C138 1.258 . S
O140 Co137 1.966 . S
O140 C138 1.263 . S
C141 O142 1.235 . S
C141 O168 1.289 . S
O142 C141 1.235 . S
C143 C145 1.400 . S
C143 N146 1.351 . S
C143 C148 1.501 . S
C144 C145 1.387 . S
C144 N147 1.341 . S
C145 C143 1.400 . S
C145 C144 1.387 . S
N146 Co137 2.022 . S
N146 C143 1.351 . S
N146 N147 1.365 . S
N147 C144 1.341 . S
N147 N146 1.365 . S
N147 H167 0.862 . S
C148 C143 1.501 . S
C148 H149 0.961 . S
C148 H150 0.961 . S
C148 H151 0.960 . S
H149 C148 0.961 . S
H150 C148 0.961 . S
H151 C148 0.960 . S
C152 N153 1.342 . S
C152 C156 1.401 . S
C152 C157 1.499 . S
N153 Co136 1.989 . S
N153 C152 1.342 . S
N153 N154 1.388 . S
N154 Co137 1.993 . S
N154 N153 1.388 . S
N154 C155 1.346 . S
C155 N154 1.346 . S
C155 C156 1.396 . S
C155 C165 1.510 . S
C156 C152 1.401 . S
C156 C155 1.396 . S
C157 C152 1.499 . S
C157 H158 0.959 . S
C157 H159 0.960 . S
C157 H160 0.961 . S
H158 C157 0.959 . S
H159 C157 0.960 . S
H160 C157 0.961 . S
O161 Co136 1.967 . S
O161 C169 1.258 . S
O162 Co137 1.941 . S
O162 C169 1.266 . S
H163 C165 0.959 . S
H164 C165 0.961 . S
C165 C155 1.510 . S
C165 H163 0.959 . S
C165 H164 0.961 . S
C165 H166 0.960 . S
H166 C165 0.960 . S
H167 N147 0.862 . S
O168 Co136 1.920 . S
O168 C141 1.289 . S
C169 O161 1.258 . S
C169 O162 1.266 . S
Co170 O173 1.970 . S
Co170 N187 1.989 . S
Co170 O195 1.967 . S
Co170 O202 1.920 . S
Co171 O174 1.966 . S
Co171 N180 2.022 . S
Co171 N188 1.993 . S
Co171 O196 1.941 . S
C172 O173 1.258 . S
C172 O174 1.263 . S
O173 Co170 1.970 . S
O173 C172 1.258 . S
O174 Co171 1.966 . S
O174 C172 1.263 . S
C175 O176 1.235 . S
C175 O202 1.289 . S
O176 C175 1.235 . S
C177 C179 1.400 . S
C177 N180 1.351 . S
C177 C182 1.501 . S
C178 C179 1.387 . S
C178 N181 1.341 . S
C179 C177 1.400 . S
C179 C178 1.387 . S
N180 Co171 2.022 . S
N180 C177 1.351 . S
N180 N181 1.365 . S
N181 C178 1.341 . S
N181 N180 1.365 . S
N181 H201 0.862 . S
C182 C177 1.501 . S
C182 H183 0.961 . S
C182 H184 0.961 . S
C182 H185 0.960 . S
H183 C182 0.961 . S
H184 C182 0.961 . S
H185 C182 0.960 . S
C186 N187 1.342 . S
C186 C190 1.401 . S
C186 C191 1.499 . S
N187 Co170 1.989 . S
N187 C186 1.342 . S
N187 N188 1.388 . S
N188 Co171 1.993 . S
N188 N187 1.388 . S
N188 C189 1.346 . S
C189 N188 1.346 . S
C189 C190 1.396 . S
C189 C199 1.510 . S
C190 C186 1.401 . S
C190 C189 1.396 . S
C191 C186 1.499 . S
C191 H192 0.959 . S
C191 H193 0.960 . S
C191 H194 0.961 . S
H192 C191 0.959 . S
H193 C191 0.960 . S
H194 C191 0.961 . S
O195 Co170 1.967 . S
O195 C203 1.258 . S
O196 Co171 1.941 . S
O196 C203 1.266 . S
H197 C199 0.959 . S
H198 C199 0.961 . S
C199 C189 1.510 . S
C199 H197 0.959 . S
C199 H198 0.961 . S
C199 H200 0.960 . S
H200 C199 0.960 . S
H201 N181 0.862 . S
O202 Co170 1.920 . S
O202 C175 1.289 . S
C203 O195 1.258 . S
C203 O196 1.266 . S
Co204 O207 1.970 . S
Co204 N221 1.989 . S
Co204 O229 1.967 . S
Co204 O236 1.920 . S
Co205 O208 1.966 . S
Co205 N214 2.022 . S
Co205 N222 1.993 . S
Co205 O230 1.941 . S
C206 O207 1.258 . S
C206 O208 1.263 . S
O207 Co204 1.970 . S
O207 C206 1.258 . S
O208 Co205 1.966 . S
O208 C206 1.263 . S
C209 O210 1.235 . S
C209 O236 1.289 . S
O210 C209 1.235 . S
C211 C213 1.400 . S
C211 N214 1.351 . S
C211 C216 1.501 . S
C212 C213 1.387 . S
C212 N215 1.341 . S
C213 C211 1.400 . S
C213 C212 1.387 . S
N214 Co205 2.022 . S
N214 C211 1.351 . S
N214 N215 1.365 . S
N215 C212 1.341 . S
N215 N214 1.365 . S
N215 H235 0.862 . S
C216 C211 1.501 . S
C216 H217 0.961 . S
C216 H218 0.961 . S
C216 H219 0.960 . S
H217 C216 0.961 . S
H218 C216 0.961 . S
H219 C216 0.960 . S
C220 N221 1.342 . S
C220 C224 1.401 . S
C220 C225 1.499 . S
N221 Co204 1.989 . S
N221 C220 1.342 . S
N221 N222 1.388 . S
N222 Co205 1.993 . S
N222 N221 1.388 . S
N222 C223 1.346 . S
C223 N222 1.346 . S
C223 C224 1.396 . S
C223 C233 1.510 . S
C224 C220 1.401 . S
C224 C223 1.396 . S
C225 C220 1.499 . S
C225 H226 0.959 . S
C225 H227 0.960 . S
C225 H228 0.961 . S
H226 C225 0.959 . S
H227 C225 0.960 . S
H228 C225 0.961 . S
O229 Co204 1.967 . S
O229 C237 1.258 . S
O230 Co205 1.941 . S
O230 C237 1.266 . S
H231 C233 0.959 . S
H232 C233 0.961 . S
C233 C223 1.510 . S
C233 H231 0.959 . S
C233 H232 0.961 . S
C233 H234 0.960 . S
H234 C233 0.960 . S
H235 N215 0.862 . S
O236 Co204 1.920 . S
O236 C209 1.289 . S
C237 O229 1.258 . S
C237 O230 1.266 . S
Co238 O241 1.970 . S
Co238 N255 1.989 . S
Co238 O263 1.967 . S
Co238 O270 1.920 . S
Co239 O242 1.966 . S
Co239 N248 2.022 . S
Co239 N256 1.993 . S
Co239 O264 1.941 . S
C240 O241 1.258 . S
C240 O242 1.263 . S
O241 Co238 1.970 . S
O241 C240 1.258 . S
O242 Co239 1.966 . S
O242 C240 1.263 . S
C243 O244 1.235 . S
C243 O270 1.289 . S
O244 C243 1.235 . S
C245 C247 1.400 . S
C245 N248 1.351 . S
C245 C250 1.501 . S
C246 C247 1.387 . S
C246 N249 1.341 . S
C247 C245 1.400 . S
C247 C246 1.387 . S
N248 Co239 2.022 . S
N248 C245 1.351 . S
N248 N249 1.365 . S
N249 C246 1.341 . S
N249 N248 1.365 . S
N249 H269 0.862 . S
C250 C245 1.501 . S
C250 H251 0.961 . S
C250 H252 0.961 . S
C250 H253 0.960 . S
H251 C250 0.961 . S
H252 C250 0.961 . S
H253 C250 0.960 . S
C254 N255 1.342 . S
C254 C258 1.401 . S
C254 C259 1.499 . S
N255 Co238 1.989 . S
N255 C254 1.342 . S
N255 N256 1.388 . S
N256 Co239 1.993 . S
N256 N255 1.388 . S
N256 C257 1.346 . S
C257 N256 1.346 . S
C257 C258 1.396 . S
C257 C267 1.510 . S
C258 C254 1.401 . S
C258 C257 1.396 . S
C259 C254 1.499 . S
C259 H260 0.959 . S
C259 H261 0.960 . S
C259 H262 0.961 . S
H260 C259 0.959 . S
H261 C259 0.960 . S
H262 C259 0.961 . S
O263 Co238 1.967 . S
O263 C271 1.258 . S
O264 Co239 1.941 . S
O264 C271 1.266 . S
H265 C267 0.959 . S
H266 C267 0.961 . S
C267 C257 1.510 . S
C267 H265 0.959 . S
C267 H266 0.961 . S
C267 H268 0.960 . S
H268 C267 0.960 . S
H269 N249 0.862 . S
O270 Co238 1.920 . S
O270 C243 1.289 . S
C271 O263 1.258 . S
C271 O264 1.266 . S
Co272 O275 1.970 . S
Co272 N289 1.989 . S
Co272 O297 1.967 . S
Co272 O304 1.920 . S
Co273 O276 1.966 . S
Co273 N282 2.022 . S
Co273 N290 1.993 . S
Co273 O298 1.941 . S
C274 O275 1.258 . S
C274 O276 1.263 . S
O275 Co272 1.970 . S
O275 C274 1.258 . S
O276 Co273 1.966 . S
O276 C274 1.263 . S
C277 O278 1.235 . S
C277 O304 1.289 . S
O278 C277 1.235 . S
C279 C281 1.400 . S
C279 N282 1.351 . S
C279 C284 1.501 . S
C280 C281 1.387 . S
C280 N283 1.341 . S
C281 C279 1.400 . S
C281 C280 1.387 . S
N282 Co273 2.022 . S
N282 C279 1.351 . S
N282 N283 1.365 . S
N283 C280 1.341 . S
N283 N282 1.365 . S
N283 H303 0.862 . S
C284 C279 1.501 . S
C284 H285 0.961 . S
C284 H286 0.961 . S
C284 H287 0.960 . S
H285 C284 0.961 . S
H286 C284 0.961 . S
H287 C284 0.960 . S
C288 N289 1.342 . S
C288 C292 1.401 . S
C288 C293 1.499 . S
N289 Co272 1.989 . S
N289 C288 1.342 . S
N289 N290 1.388 . S
N290 Co273 1.993 . S
N290 N289 1.388 . S
N290 C291 1.346 . S
C291 N290 1.346 . S
C291 C292 1.396 . S
C291 C301 1.510 . S
C292 C288 1.401 . S
C292 C291 1.396 . S
C293 C288 1.499 . S
C293 H294 0.959 . S
C293 H295 0.960 . S
C293 H296 0.961 . S
H294 C293 0.959 . S
H295 C293 0.960 . S
H296 C293 0.961 . S
O297 Co272 1.967 . S
O297 C305 1.258 . S
O298 Co273 1.941 . S
O298 C305 1.266 . S
H299 C301 0.959 . S
H300 C301 0.961 . S
C301 C291 1.510 . S
C301 H299 0.959 . S
C301 H300 0.961 . S
C301 H302 0.960 . S
H302 C301 0.960 . S
H303 N283 0.862 . S
O304 Co272 1.920 . S
O304 C277 1.289 . S
C305 O297 1.258 . S
C305 O298 1.266 . S
Co306 O309 1.970 . S
Co306 N323 1.989 . S
Co306 O331 1.967 . S
Co306 O338 1.920 . S
Co307 O310 1.966 . S
Co307 N316 2.022 . S
Co307 N324 1.993 . S
Co307 O332 1.941 . S
C308 O309 1.258 . S
C308 O310 1.263 . S
O309 Co306 1.970 . S
O309 C308 1.258 . S
O310 Co307 1.966 . S
O310 C308 1.263 . S
C311 O312 1.235 . S
C311 O338 1.289 . S
O312 C311 1.235 . S
C313 C315 1.400 . S
C313 N316 1.351 . S
C313 C318 1.501 . S
C314 C315 1.387 . S
C314 N317 1.341 . S
C315 C313 1.400 . S
C315 C314 1.387 . S
N316 Co307 2.022 . S
N316 C313 1.351 . S
N316 N317 1.365 . S
N317 C314 1.341 . S
N317 N316 1.365 . S
N317 H337 0.862 . S
C318 C313 1.501 . S
C318 H319 0.961 . S
C318 H320 0.961 . S
C318 H321 0.960 . S
H319 C318 0.961 . S
H320 C318 0.961 . S
H321 C318 0.960 . S
C322 N323 1.342 . S
C322 C326 1.401 . S
C322 C327 1.499 . S
N323 Co306 1.989 . S
N323 C322 1.342 . S
N323 N324 1.388 . S
N324 Co307 1.993 . S
N324 N323 1.388 . S
N324 C325 1.346 . S
C325 N324 1.346 . S
C325 C326 1.396 . S
C325 C335 1.510 . S
C326 C322 1.401 . S
C326 C325 1.396 . S
C327 C322 1.499 . S
C327 H328 0.959 . S
C327 H329 0.960 . S
C327 H330 0.961 . S
H328 C327 0.959 . S
H329 C327 0.960 . S
H330 C327 0.961 . S
O331 Co306 1.967 . S
O331 C339 1.258 . S
O332 Co307 1.941 . S
O332 C339 1.266 . S
H333 C335 0.959 . S
H334 C335 0.961 . S
C335 C325 1.510 . S
C335 H333 0.959 . S
C335 H334 0.961 . S
C335 H336 0.960 . S
H336 C335 0.960 . S
H337 N317 0.862 . S
O338 Co306 1.920 . S
O338 C311 1.289 . S
C339 O331 1.258 . S
C339 O332 1.266 . S
Co340 O343 1.970 . S
Co340 N357 1.989 . S
Co340 O365 1.967 . S
Co340 O372 1.920 . S
Co341 O344 1.966 . S
Co341 N350 2.022 . S
Co341 N358 1.993 . S
Co341 O366 1.941 . S
C342 O343 1.258 . S
C342 O344 1.263 . S
O343 Co340 1.970 . S
O343 C342 1.258 . S
O344 Co341 1.966 . S
O344 C342 1.263 . S
C345 O346 1.235 . S
C345 O372 1.289 . S
O346 C345 1.235 . S
C347 C349 1.400 . S
C347 N350 1.351 . S
C347 C352 1.501 . S
C348 C349 1.387 . S
C348 N351 1.341 . S
C349 C347 1.400 . S
C349 C348 1.387 . S
N350 Co341 2.022 . S
N350 C347 1.351 . S
N350 N351 1.365 . S
N351 C348 1.341 . S
N351 N350 1.365 . S
N351 H371 0.862 . S
C352 C347 1.501 . S
C352 H353 0.961 . S
C352 H354 0.961 . S
C352 H355 0.960 . S
H353 C352 0.961 . S
H354 C352 0.961 . S
H355 C352 0.960 . S
C356 N357 1.342 . S
C356 C360 1.401 . S
C356 C361 1.499 . S
N357 Co340 1.989 . S
N357 C356 1.342 . S
N357 N358 1.388 . S
N358 Co341 1.993 . S
N358 N357 1.388 . S
N358 C359 1.346 . S
C359 N358 1.346 . S
C359 C360 1.396 . S
C359 C369 1.510 . S
C360 C356 1.401 . S
C360 C359 1.396 . S
C361 C356 1.499 . S
C361 H362 0.959 . S
C361 H363 0.960 . S
C361 H364 0.961 . S
H362 C361 0.959 . S
H363 C361 0.960 . S
H364 C361 0.961 . S
O365 Co340 1.967 . S
O365 C373 1.258 . S
O366 Co341 1.941 . S
O366 C373 1.266 . S
H367 C369 0.959 . S
H368 C369 0.961 . S
C369 C359 1.510 . S
C369 H367 0.959 . S
C369 H368 0.961 . S
C369 H370 0.960 . S
H370 C369 0.960 . S
H371 N351 0.862 . S
O372 Co340 1.920 . S
O372 C345 1.289 . S
C373 O365 1.258 . S
C373 O366 1.266 . S
Co374 O377 1.970 . S
Co374 N391 1.989 . S
Co374 O399 1.967 . S
Co374 O406 1.920 . S
Co375 O378 1.966 . S
Co375 N384 2.022 . S
Co375 N392 1.993 . S
Co375 O400 1.941 . S
C376 O377 1.258 . S
C376 O378 1.263 . S
O377 Co374 1.970 . S
O377 C376 1.258 . S
O378 Co375 1.966 . S
O378 C376 1.263 . S
C379 O380 1.235 . S
C379 O406 1.289 . S
O380 C379 1.235 . S
C381 C383 1.400 . S
C381 N384 1.351 . S
C381 C386 1.501 . S
C382 C383 1.387 . S
C382 N385 1.341 . S
C383 C381 1.400 . S
C383 C382 1.387 . S
N384 Co375 2.022 . S
N384 C381 1.351 . S
N384 N385 1.365 . S
N385 C382 1.341 . S
N385 N384 1.365 . S
N385 H405 0.862 . S
C386 C381 1.501 . S
C386 H387 0.961 . S
C386 H388 0.961 . S
C386 H389 0.960 . S
H387 C386 0.961 . S
H388 C386 0.961 . S
H389 C386 0.960 . S
C390 N391 1.342 . S
C390 C394 1.401 . S
C390 C395 1.499 . S
N391 Co374 1.989 . S
N391 C390 1.342 . S
N391 N392 1.388 . S
N392 Co375 1.993 . S
N392 N391 1.388 . S
N392 C393 1.346 . S
C393 N392 1.346 . S
C393 C394 1.396 . S
C393 C403 1.510 . S
C394 C390 1.401 . S
C394 C393 1.396 . S
C395 C390 1.499 . S
C395 H396 0.959 . S
C395 H397 0.960 . S
C395 H398 0.961 . S
H396 C395 0.959 . S
H397 C395 0.960 . S
H398 C395 0.961 . S
O399 Co374 1.967 . S
O399 C407 1.258 . S
O400 Co375 1.941 . S
O400 C407 1.266 . S
H401 C403 0.959 . S
H402 C403 0.961 . S
C403 C393 1.510 . S
C403 H401 0.959 . S
C403 H402 0.961 . S
C403 H404 0.960 . S
H404 C403 0.960 . S
H405 N385 0.862 . S
O406 Co374 1.920 . S
O406 C379 1.289 . S
C407 O399 1.258 . S
C407 O400 1.266 . S
H408 C414 0.930 . S
H409 C417 0.930 . S
H410 C418 0.930 . S
H411 C419 0.930 . S
H412 C422 0.930 . S
H413 C423 0.930 . S
C414 H408 0.930 . S
C414 C415 1.355 . S
C414 C416 1.415 . S
C415 C414 1.355 . S
C415 C417 1.419 . S
C416 C414 1.415 . S
C416 C421 1.425 . S
C416 C423 1.409 . S
C417 H409 0.930 . S
C417 C415 1.419 . S
C417 C418 1.362 . S
C418 H410 0.930 . S
C418 C417 1.362 . S
C418 C421 1.409 . S
C419 H411 0.930 . S
C419 C420 1.355 . S
C419 C421 1.415 . S
C420 C419 1.355 . S
C420 C422 1.419 . S
C421 C416 1.425 . S
C421 C418 1.409 . S
C421 C419 1.415 . S
C422 H412 0.930 . S
C422 C420 1.419 . S
C422 C423 1.362 . S
C423 H413 0.930 . S
C423 C416 1.409 . S
C423 C422 1.362 . S
H424 C430 0.930 . S
H425 C433 0.930 . S
H426 C434 0.930 . S
H427 C435 0.930 . S
H428 C438 0.930 . S
H429 C439 0.930 . S
C430 H424 0.930 . S
C430 C431 1.355 . S
C430 C432 1.415 . S
C431 C430 1.355 . S
C431 C433 1.419 . S
C432 C430 1.415 . S
C432 C437 1.425 . S
C432 C439 1.409 . S
C433 H425 0.930 . S
C433 C431 1.419 . S
C433 C434 1.362 . S
C434 H426 0.930 . S
C434 C433 1.362 . S
C434 C437 1.409 . S
C435 H427 0.930 . S
C435 C436 1.355 . S
C435 C437 1.415 . S
C436 C435 1.355 . S
C436 C438 1.419 . S
C437 C432 1.425 . S
C437 C434 1.409 . S
C437 C435 1.415 . S
C438 H428 0.930 . S
C438 C436 1.419 . S
C438 C439 1.362 . S
C439 H429 0.930 . S
C439 C432 1.409 . S
C439 C438 1.362 . S
H440 C446 0.930 . S
H441 C449 0.930 . S
H442 C450 0.930 . S
H443 C451 0.930 . S
H444 C454 0.930 . S
H445 C455 0.930 . S
C446 H440 0.930 . S
C446 C447 1.355 . S
C446 C448 1.415 . S
C447 C446 1.355 . S
C447 C449 1.419 . S
C448 C446 1.415 . S
C448 C453 1.425 . S
C448 C455 1.409 . S
C449 H441 0.930 . S
C449 C447 1.419 . S
C449 C450 1.362 . S
C450 H442 0.930 . S
C450 C449 1.362 . S
C450 C453 1.409 . S
C451 H443 0.930 . S
C451 C452 1.355 . S
C451 C453 1.415 . S
C452 C451 1.355 . S
C452 C454 1.419 . S
C453 C448 1.425 . S
C453 C450 1.409 . S
C453 C451 1.415 . S
C454 H444 0.930 . S
C454 C452 1.419 . S
C454 C455 1.362 . S
C455 H445 0.930 . S
C455 C448 1.409 . S
C455 C454 1.362 . S
H456 C462 0.930 . S
H457 C465 0.930 . S
H458 C466 0.930 . S
H459 C467 0.930 . S
H460 C470 0.930 . S
H461 C471 0.930 . S
C462 H456 0.930 . S
C462 C463 1.355 . S
C462 C464 1.415 . S
C463 C462 1.355 . S
C463 C465 1.419 . S
C464 C462 1.415 . S
C464 C469 1.425 . S
C464 C471 1.409 . S
C465 H457 0.930 . S
C465 C463 1.419 . S
C465 C466 1.362 . S
C466 H458 0.930 . S
C466 C465 1.362 . S
C466 C469 1.409 . S
C467 H459 0.930 . S
C467 C468 1.355 . S
C467 C469 1.415 . S
C468 C467 1.355 . S
C468 C470 1.419 . S
C469 C464 1.425 . S
C469 C466 1.409 . S
C469 C467 1.415 . S
C470 H460 0.930 . S
C470 C468 1.419 . S
C470 C471 1.362 . S
C471 H461 0.930 . S
C471 C464 1.409 . S
C471 C470 1.362 . S
H472 C478 0.930 . S
H473 C481 0.930 . S
H474 C482 0.930 . S
H475 C483 0.930 . S
H476 C486 0.930 . S
H477 C487 0.930 . S
C478 H472 0.930 . S
C478 C479 1.355 . S
C478 C480 1.415 . S
C479 C478 1.355 . S
C479 C481 1.419 . S
C480 C478 1.415 . S
C480 C485 1.425 . S
C480 C487 1.409 . S
C481 H473 0.930 . S
C481 C479 1.419 . S
C481 C482 1.362 . S
C482 H474 0.930 . S
C482 C481 1.362 . S
C482 C485 1.409 . S
C483 H475 0.930 . S
C483 C484 1.355 . S
C483 C485 1.415 . S
C484 C483 1.355 . S
C484 C486 1.419 . S
C485 C480 1.425 . S
C485 C482 1.409 . S
C485 C483 1.415 . S
C486 H476 0.930 . S
C486 C484 1.419 . S
C486 C487 1.362 . S
C487 H477 0.930 . S
C487 C480 1.409 . S
C487 C486 1.362 . S
H488 C494 0.930 . S
H489 C497 0.930 . S
H490 C498 0.930 . S
H491 C499 0.930 . S
H492 C502 0.930 . S
H493 C503 0.930 . S
C494 H488 0.930 . S
C494 C495 1.355 . S
C494 C496 1.415 . S
C495 C494 1.355 . S
C495 C497 1.419 . S
C496 C494 1.415 . S
C496 C501 1.425 . S
C496 C503 1.409 . S
C497 H489 0.930 . S
C497 C495 1.419 . S
C497 C498 1.362 . S
C498 H490 0.930 . S
C498 C497 1.362 . S
C498 C501 1.409 . S
C499 H491 0.930 . S
C499 C500 1.355 . S
C499 C501 1.415 . S
C500 C499 1.355 . S
C500 C502 1.419 . S
C501 C496 1.425 . S
C501 C498 1.409 . S
C501 C499 1.415 . S
C502 H492 0.930 . S
C502 C500 1.419 . S
C502 C503 1.362 . S
C503 H493 0.930 . S
C503 C496 1.409 . S
C503 C502 1.362 . S
H504 C510 0.930 . S
H505 C513 0.930 . S
H506 C514 0.930 . S
H507 C515 0.930 . S
H508 C518 0.930 . S
H509 C519 0.930 . S
C510 H504 0.930 . S
C510 C511 1.355 . S
C510 C512 1.415 . S
C511 C510 1.355 . S
C511 C513 1.419 . S
C512 C510 1.415 . S
C512 C517 1.425 . S
C512 C519 1.409 . S
C513 H505 0.930 . S
C513 C511 1.419 . S
C513 C514 1.362 . S
C514 H506 0.930 . S
C514 C513 1.362 . S
C514 C517 1.409 . S
C515 H507 0.930 . S
C515 C516 1.355 . S
C515 C517 1.415 . S
C516 C515 1.355 . S
C516 C518 1.419 . S
C517 C512 1.425 . S
C517 C514 1.409 . S
C517 C515 1.415 . S
C518 H508 0.930 . S
C518 C516 1.419 . S
C518 C519 1.362 . S
C519 H509 0.930 . S
C519 C512 1.409 . S
C519 C518 1.362 . S
H520 C526 0.930 . S
H521 C529 0.930 . S
H522 C530 0.930 . S
H523 C531 0.930 . S
H524 C534 0.930 . S
H525 C535 0.930 . S
C526 H520 0.930 . S
C526 C527 1.355 . S
C526 C528 1.415 . S
C527 C526 1.355 . S
C527 C529 1.419 . S
C528 C526 1.415 . S
C528 C533 1.425 . S
C528 C535 1.409 . S
C529 H521 0.930 . S
C529 C527 1.419 . S
C529 C530 1.362 . S
C530 H522 0.930 . S
C530 C529 1.362 . S
C530 C533 1.409 . S
C531 H523 0.930 . S
C531 C532 1.355 . S
C531 C533 1.415 . S
C532 C531 1.355 . S
C532 C534 1.419 . S
C533 C528 1.425 . S
C533 C530 1.409 . S
C533 C531 1.415 . S
C534 H524 0.930 . S
C534 C532 1.419 . S
C534 C535 1.362 . S
C535 H525 0.930 . S
C535 C528 1.409 . S
C535 C534 1.362 . S
H536 C542 0.930 . S
H537 C545 0.930 . S
H538 C546 0.930 . S
H539 C547 0.930 . S
H540 C550 0.930 . S
H541 C551 0.930 . S
C542 H536 0.930 . S
C542 C543 1.355 . S
C542 C544 1.415 . S
C543 C542 1.355 . S
C543 C545 1.419 . S
C544 C542 1.415 . S
C544 C549 1.425 . S
C544 C551 1.409 . S
C545 H537 0.930 . S
C545 C543 1.419 . S
C545 C546 1.362 . S
C546 H538 0.930 . S
C546 C545 1.362 . S
C546 C549 1.409 . S
C547 H539 0.930 . S
C547 C548 1.355 . S
C547 C549 1.415 . S
C548 C547 1.355 . S
C548 C550 1.419 . S
C549 C544 1.425 . S
C549 C546 1.409 . S
C549 C547 1.415 . S
C550 H540 0.930 . S
C550 C548 1.419 . S
C550 C551 1.362 . S
C551 H541 0.930 . S
C551 C544 1.409 . S
C551 C550 1.362 . S
H552 C558 0.930 . S
H553 C561 0.930 . S
H554 C562 0.930 . S
H555 C563 0.930 . S
H556 C566 0.930 . S
H557 C567 0.930 . S
C558 H552 0.930 . S
C558 C559 1.355 . S
C558 C560 1.415 . S
C559 C558 1.355 . S
C559 C561 1.419 . S
C560 C558 1.415 . S
C560 C565 1.425 . S
C560 C567 1.409 . S
C561 H553 0.930 . S
C561 C559 1.419 . S
C561 C562 1.362 . S
C562 H554 0.930 . S
C562 C561 1.362 . S
C562 C565 1.409 . S
C563 H555 0.930 . S
C563 C564 1.355 . S
C563 C565 1.415 . S
C564 C563 1.355 . S
C564 C566 1.419 . S
C565 C560 1.425 . S
C565 C562 1.409 . S
C565 C563 1.415 . S
C566 H556 0.930 . S
C566 C564 1.419 . S
C566 C567 1.362 . S
C567 H557 0.930 . S
C567 C560 1.409 . S
C567 C566 1.362 . S
H568 C574 0.930 . S
H569 C577 0.930 . S
H570 C578 0.930 . S
H571 C579 0.930 . S
H572 C582 0.930 . S
H573 C583 0.930 . S
C574 H568 0.930 . S
C574 C575 1.355 . S
C574 C576 1.415 . S
C575 C574 1.355 . S
C575 C577 1.419 . S
C576 C574 1.415 . S
C576 C581 1.425 . S
C576 C583 1.409 . S
C577 H569 0.930 . S
C577 C575 1.419 . S
C577 C578 1.362 . S
C578 H570 0.930 . S
C578 C577 1.362 . S
C578 C581 1.409 . S
C579 H571 0.930 . S
C579 C580 1.355 . S
C579 C581 1.415 . S
C580 C579 1.355 . S
C580 C582 1.419 . S
C581 C576 1.425 . S
C581 C578 1.409 . S
C581 C579 1.415 . S
C582 H572 0.930 . S
C582 C580 1.419 . S
C582 C583 1.362 . S
C583 H573 0.930 . S
C583 C576 1.409 . S
C583 C582 1.362 . S
H584 C590 0.930 . S
H585 C593 0.930 . S
H586 C594 0.930 . S
H587 C595 0.930 . S
H588 C598 0.930 . S
H589 C599 0.930 . S
C590 H584 0.930 . S
C590 C591 1.355 . S
C590 C592 1.415 . S
C591 C590 1.355 . S
C591 C593 1.419 . S
C592 C590 1.415 . S
C592 C597 1.425 . S
C592 C599 1.409 . S
C593 H585 0.930 . S
C593 C591 1.419 . S
C593 C594 1.362 . S
C594 H586 0.930 . S
C594 C593 1.362 . S
C594 C597 1.409 . S
C595 H587 0.930 . S
C595 C596 1.355 . S
C595 C597 1.415 . S
C596 C595 1.355 . S
C596 C598 1.419 . S
C597 C592 1.425 . S
C597 C594 1.409 . S
C597 C595 1.415 . S
C598 H588 0.930 . S
C598 C596 1.419 . S
C598 C599 1.362 . S
C599 H589 0.930 . S
C599 C592 1.409 . S
C599 C598 1.362 . S
H600 C606 0.930 . S
H601 C609 0.930 . S
H602 C610 0.930 1_565 S
H603 C611 0.930 . S
H604 C614 0.930 . S
H605 C615 0.930 . S
C606 H600 0.930 . S
C606 C607 1.355 . S
C606 C608 1.415 . S
C607 C606 1.355 . S
C607 C609 1.419 . S
C608 C606 1.415 . S
C608 C613 1.425 . S
C608 C615 1.409 1_554 S
C609 H601 0.930 . S
C609 C607 1.419 . S
C609 C610 1.362 . S
C610 H602 0.930 1_545 S
C610 C609 1.362 . S
C610 C613 1.409 . S
C611 H603 0.930 . S
C611 C612 1.355 . S
C611 C613 1.415 1_566 S
C612 C611 1.355 . S
C612 C614 1.419 1_565 S
C613 C608 1.425 . S
C613 C610 1.409 . S
C613 C611 1.415 1_544 S
C614 H604 0.930 . S
C614 C612 1.419 1_545 S
C614 C615 1.362 . S
C615 H605 0.930 . S
C615 C608 1.409 1_556 S
C615 C614 1.362 . S
H616 C622 0.930 . S
H617 C625 0.930 . S
H618 C626 0.930 1_455 S
H619 C627 0.930 . S
H620 C630 0.930 . S
H621 C631 0.930 . S
C622 H616 0.930 . S
C622 C623 1.355 . S
C622 C624 1.415 . S
C623 C622 1.355 . S
C623 C625 1.419 . S
C624 C622 1.415 . S
C624 C629 1.425 . S
C624 C631 1.409 1_554 S
C625 H617 0.930 . S
C625 C623 1.419 . S
C625 C626 1.362 . S
C626 H618 0.930 1_655 S
C626 C625 1.362 . S
C626 C629 1.409 . S
C627 H619 0.930 . S
C627 C628 1.355 . S
C627 C629 1.415 1_456 S
C628 C627 1.355 . S
C628 C630 1.419 1_455 S
C629 C624 1.425 . S
C629 C626 1.409 . S
C629 C627 1.415 1_654 S
C630 H620 0.930 . S
C630 C628 1.419 1_655 S
C630 C631 1.362 . S
C631 H621 0.930 . S
C631 C624 1.409 1_556 S
C631 C630 1.362 . S
H632 C638 0.930 . S
H633 C641 0.930 . S
H634 C642 0.930 . S
H635 C643 0.930 . S
H636 C646 0.930 . S
H637 C647 0.930 . S
C638 H632 0.930 . S
C638 C639 1.355 . S
C638 C640 1.415 . S
C639 C638 1.355 . S
C639 C641 1.419 . S
C640 C638 1.415 . S
C640 C645 1.425 . S
C640 C647 1.409 . S
C641 H633 0.930 . S
C641 C639 1.419 . S
C641 C642 1.362 . S
C642 H634 0.930 . S
C642 C641 1.362 . S
C642 C645 1.409 . S
C643 H635 0.930 . S
C643 C644 1.355 . S
C643 C645 1.415 1_556 S
C644 C643 1.355 . S
C644 C646 1.419 . S
C645 C640 1.425 . S
C645 C642 1.409 . S
C645 C643 1.415 1_554 S
C646 H636 0.930 . S
C646 C644 1.419 . S
C646 C647 1.363 1_556 S
C647 H637 0.930 . S
C647 C640 1.409 . S
C647 C646 1.363 1_554 S
H648 C654 0.930 . S
H649 C657 0.930 . S
H650 C658 0.930 . S
H651 C659 0.930 . S
H652 C662 0.930 . S
H653 C663 0.930 1_655 S
C654 H648 0.930 . S
C654 C655 1.355 . S
C654 C656 1.415 1_655 S
C655 C654 1.355 . S
C655 C657 1.419 1_655 S
C656 C654 1.415 1_455 S
C656 C661 1.425 . S
C656 C663 1.409 . S
C657 H649 0.930 . S
C657 C655 1.419 1_455 S
C657 C658 1.362 . S
C658 H650 0.930 . S
C658 C657 1.362 . S
C658 C661 1.409 . S
C659 H651 0.930 . S
C659 C660 1.355 . S
C659 C661 1.415 . S
C660 C659 1.355 . S
C660 C662 1.419 . S
C661 C656 1.425 . S
C661 C658 1.409 . S
C661 C659 1.415 . S
C662 H652 0.930 . S
C662 C660 1.419 . S
C662 C663 1.362 . S
C663 H653 0.930 1_455 S
C663 C656 1.409 . S
C663 C662 1.362 . S
H664 C670 0.930 . S
H665 C673 0.930 . S
H666 C674 0.930 . S
H667 C675 0.930 . S
H668 C678 0.930 . S
H669 C679 0.930 . S
C670 H664 0.930 . S
C670 C671 1.355 . S
C670 C672 1.415 . S
C671 C670 1.355 . S
C671 C673 1.419 . S
C672 C670 1.415 . S
C672 C677 1.425 . S
C672 C679 1.409 . S
C673 H665 0.930 . S
C673 C671 1.419 . S
C673 C674 1.362 . S
C674 H666 0.930 . S
C674 C673 1.362 . S
C674 C677 1.409 . S
C675 H667 0.930 . S
C675 C676 1.355 . S
C675 C677 1.415 . S
C676 C675 1.355 . S
C676 C678 1.419 . S
C677 C672 1.425 . S
C677 C674 1.409 . S
C677 C675 1.415 . S
C678 H668 0.930 . S
C678 C676 1.419 . S
C678 C679 1.362 . S
C679 H669 0.930 . S
C679 C672 1.409 . S
C679 C678 1.362 . S
H680 C686 0.930 . S
H681 C689 0.930 . S
H682 C690 0.930 . S
H683 C691 0.930 . S
H684 C694 0.930 . S
H685 C695 0.930 . S
C686 H680 0.930 . S
C686 C687 1.355 1_565 S
C686 C688 1.415 . S
C687 C686 1.355 1_545 S
C687 C689 1.419 . S
C688 C686 1.415 . S
C688 C693 1.425 . S
C688 C695 1.409 . S
C689 H681 0.930 . S
C689 C687 1.419 . S
C689 C690 1.362 . S
C690 H682 0.930 . S
C690 C689 1.362 . S
C690 C693 1.409 1_545 S
C691 H683 0.930 . S
C691 C692 1.355 . S
C691 C693 1.415 . S
C692 C691 1.355 . S
C692 C694 1.419 . S
C693 C688 1.425 . S
C693 C690 1.409 1_565 S
C693 C691 1.415 . S
C694 H684 0.930 . S
C694 C692 1.419 . S
C694 C695 1.362 . S
C695 H685 0.930 . S
C695 C688 1.409 . S
C695 C694 1.362 . S
H696 C702 0.930 . S
H697 C705 0.922 1_545 S
H698 C706 0.930 . S
H699 C707 0.930 . S
H700 C710 0.930 . S
H701 C711 0.930 . S
C702 H696 0.930 . S
C702 C703 1.355 . S
C702 C704 1.415 1_544 S
C703 C702 1.355 . S
C703 C705 1.419 1_545 S
C704 C702 1.415 1_566 S
C704 C709 1.425 . S
C704 C711 1.409 . S
C705 H697 0.922 1_565 S
C705 C703 1.419 1_565 S
C705 C706 1.362 . S
C706 H698 0.930 . S
C706 C705 1.362 . S
C706 C709 1.409 1_554 S
C707 H699 0.930 . S
C707 C708 1.355 . S
C707 C709 1.415 . S
C708 C707 1.355 . S
C708 C710 1.419 . S
C709 C704 1.425 . S
C709 C706 1.409 1_556 S
C709 C707 1.415 . S
C710 H700 0.930 . S
C710 C708 1.419 . S
C710 C711 1.362 . S
C711 H701 0.930 . S
C711 C704 1.409 . S
C711 C710 1.362 . S
H712 C718 0.930 . S
H713 C721 0.930 . S
H714 C722 0.930 . S
H715 C723 0.930 . S
H716 C726 0.930 . S
H717 C727 0.929 1_554 S
C718 H712 0.930 . S
C718 C719 1.355 1_455 S
C718 C720 1.410 1_554 S
C719 C718 1.355 1_655 S
C719 C721 1.419 . S
C720 C718 1.410 1_556 S
C720 C725 1.428 . S
C720 C727 1.411 . S
C721 H713 0.930 . S
C721 C719 1.419 . S
C721 C722 1.362 1_554 S
C722 H714 0.930 . S
C722 C721 1.362 1_556 S
C722 C725 1.409 1_655 S
C723 H715 0.930 . S
C723 C724 1.355 . S
C723 C725 1.415 . S
C724 C723 1.355 . S
C724 C726 1.419 . S
C725 C720 1.428 . S
C725 C722 1.409 1_455 S
C725 C723 1.415 . S
C726 H716 0.930 . S
C726 C724 1.419 . S
C726 C727 1.362 . S
C727 H717 0.929 1_556 S
C727 C720 1.411 . S
C727 C726 1.362 . S
H728 C734 0.930 . S
H729 C737 0.930 . S
H730 C738 0.930 . S
H731 C739 0.930 . S
H732 C742 0.930 . S
H733 C743 0.930 . S
C734 H728 0.930 . S
C734 C735 1.355 . S
C734 C736 1.415 . S
C735 C734 1.355 . S
C735 C737 1.419 . S
C736 C734 1.415 . S
C736 C741 1.425 . S
C736 C743 1.409 1_556 S
C737 H729 0.930 . S
C737 C735 1.419 . S
C737 C738 1.362 . S
C738 H730 0.930 . S
C738 C737 1.362 . S
C738 C741 1.409 . S
C739 H731 0.930 . S
C739 C740 1.355 . S
C739 C741 1.415 1_554 S
C740 C739 1.355 . S
C740 C742 1.419 . S
C741 C736 1.425 . S
C741 C738 1.409 . S
C741 C739 1.415 1_556 S
C742 H732 0.930 . S
C742 C740 1.419 . S
C742 C743 1.362 . S
C743 H733 0.930 . S
C743 C736 1.409 1_554 S
C743 C742 1.362 . S
H744 C750 0.930 . S
H745 C753 0.930 . S
H746 C754 0.930 . S
H747 C755 0.930 . S
H748 C758 0.930 . S
H749 C759 0.930 . S
C750 H744 0.930 . S
C750 C751 1.355 1_655 S
C750 C752 1.415 . S
C751 C750 1.355 1_455 S
C751 C753 1.419 . S
C752 C750 1.415 . S
C752 C757 1.425 . S
C752 C759 1.409 . S
C753 H745 0.930 . S
C753 C751 1.419 . S
C753 C754 1.362 . S
C754 H746 0.930 . S
C754 C753 1.362 . S
C754 C757 1.409 1_455 S
C755 H747 0.930 . S
C755 C756 1.355 . S
C755 C757 1.415 . S
C756 C755 1.355 . S
C756 C758 1.419 . S
C757 C752 1.425 . S
C757 C754 1.409 1_655 S
C757 C755 1.415 . S
C758 H748 0.930 . S
C758 C756 1.419 . S
C758 C759 1.362 . S
C759 H749 0.930 . S
C759 C752 1.409 . S
C759 C758 1.362 . S
H760 C766 0.930 . S
H761 C769 0.930 . S
H762 C770 0.930 . S
H763 C771 0.930 . S
H764 C774 0.930 . S
H765 C775 0.930 . S
C766 H760 0.930 . S
C766 C767 1.355 . S
C766 C768 1.415 . S
C767 C766 1.355 . S
C767 C769 1.419 . S
C768 C766 1.415 . S
C768 C773 1.425 . S
C768 C775 1.409 . S
C769 H761 0.930 . S
C769 C767 1.419 . S
C769 C770 1.362 . S
C770 H762 0.930 . S
C770 C769 1.362 . S
C770 C773 1.409 . S
C771 H763 0.930 . S
C771 C772 1.355 . S
C771 C773 1.415 . S
C772 C771 1.355 . S
C772 C774 1.419 . S
C773 C768 1.425 . S
C773 C770 1.409 . S
C773 C771 1.415 . S
C774 H764 0.930 . S
C774 C772 1.419 . S
C774 C775 1.362 . S
C775 H765 0.930 . S
C775 C768 1.409 . S
C775 C774 1.362 . S
H776 C782 0.930 . S
H777 C785 0.930 . S
H778 C786 0.930 . S
H779 C787 0.930 . S
H780 C790 0.930 . S
H781 C791 0.930 . S
C782 H776 0.930 . S
C782 C783 1.355 . S
C782 C784 1.415 . S
C783 C782 1.355 . S
C783 C785 1.419 . S
C784 C782 1.415 . S
C784 C789 1.425 . S
C784 C791 1.409 1_545 S
C785 H777 0.930 . S
C785 C783 1.419 . S
C785 C786 1.362 . S
C786 H778 0.930 . S
C786 C785 1.362 . S
C786 C789 1.409 . S
C787 H779 0.930 . S
C787 C788 1.355 1_545 S
C787 C789 1.415 . S
C788 C787 1.355 1_565 S
C788 C790 1.419 . S
C789 C784 1.425 . S
C789 C786 1.409 . S
C789 C787 1.415 . S
C790 H780 0.930 . S
C790 C788 1.419 . S
C790 C791 1.362 . S
C791 H781 0.930 . S
C791 C784 1.409 1_565 S
C791 C790 1.362 . S
H792 C798 0.930 . S
H793 C801 0.930 . S
H794 C802 0.930 . S
H795 C803 0.930 . S
H796 C806 0.930 . S
H797 C807 0.930 . S
C798 H792 0.930 . S
C798 C799 1.355 . S
C798 C800 1.415 . S
C799 C798 1.355 . S
C799 C801 1.419 . S
C800 C798 1.415 . S
C800 C805 1.425 . S
C800 C807 1.409 . S
C801 H793 0.930 . S
C801 C799 1.419 . S
C801 C802 1.362 . S
C802 H794 0.930 . S
C802 C801 1.362 . S
C802 C805 1.409 . S
C803 H795 0.930 . S
C803 C804 1.355 . S
C803 C805 1.415 . S
C804 C803 1.355 . S
C804 C806 1.419 . S
C805 C800 1.425 . S
C805 C802 1.409 . S
C805 C803 1.415 . S
C806 H796 0.930 . S
C806 C804 1.419 . S
C806 C807 1.362 . S
C807 H797 0.930 . S
C807 C800 1.409 . S
C807 C806 1.362 . S
H808 C814 0.930 . S
H809 C817 0.930 . S
H810 C818 0.930 1_565 S
H811 C819 0.930 . S
H812 C822 0.930 . S
H813 C823 0.930 1_545 S
C814 H808 0.930 . S
C814 C815 1.355 . S
C814 C816 1.415 . S
C815 C814 1.355 . S
C815 C817 1.419 . S
C816 C814 1.415 . S
C816 C821 1.425 1_545 S
C816 C823 1.409 1_545 S
C817 H809 0.930 . S
C817 C815 1.419 . S
C817 C818 1.362 . S
C818 H810 0.930 1_545 S
C818 C817 1.362 . S
C818 C821 1.409 1_545 S
C819 H811 0.930 . S
C819 C820 1.355 . S
C819 C821 1.415 . S
C820 C819 1.355 . S
C820 C822 1.419 . S
C821 C816 1.425 1_565 S
C821 C818 1.409 1_565 S
C821 C819 1.415 . S
C822 H812 0.930 . S
C822 C820 1.419 . S
C822 C823 1.362 . S
C823 H813 0.930 1_565 S
C823 C816 1.409 1_565 S
C823 C822 1.362 . S
H824 C830 0.930 . S
H825 C833 0.930 . S
H826 C834 0.930 . S
H827 C835 0.930 . S
H828 C838 0.930 . S
H829 C839 0.930 . S
C830 H824 0.930 . S
C830 C831 1.355 . S
C830 C832 1.415 . S
C831 C830 1.355 . S
C831 C833 1.419 . S
C832 C830 1.415 . S
C832 C837 1.425 1_655 S
C832 C839 1.409 1_655 S
C833 H825 0.930 . S
C833 C831 1.419 . S
C833 C834 1.362 . S
C834 H826 0.930 . S
C834 C833 1.362 . S
C834 C837 1.409 1_655 S
C835 H827 0.930 . S
C835 C836 1.355 . S
C835 C837 1.415 . S
C836 C835 1.355 . S
C836 C838 1.419 . S
C837 C832 1.425 1_455 S
C837 C834 1.409 1_455 S
C837 C835 1.415 . S
C838 H828 0.930 . S
C838 C836 1.419 . S
C838 C839 1.362 . S
C839 H829 0.930 . S
C839 C832 1.409 1_455 S
C839 C838 1.362 . S
H840 C846 0.930 . S
H841 C849 0.930 . S
H842 C850 0.930 . S
H843 C851 0.930 . S
H844 C854 0.930 . S
H845 C855 0.930 . S
C846 H840 0.930 . S
C846 C847 1.355 . S
C846 C848 1.415 . S
C847 C846 1.355 . S
C847 C849 1.419 . S
C848 C846 1.415 . S
C848 C853 1.425 . S
C848 C855 1.409 . S
C849 H841 0.930 . S
C849 C847 1.419 . S
C849 C850 1.362 . S
C850 H842 0.930 . S
C850 C849 1.362 . S
C850 C853 1.409 . S
C851 H843 0.930 . S
C851 C852 1.355 . S
C851 C853 1.415 . S
C852 C851 1.355 . S
C852 C854 1.419 . S
C853 C848 1.425 . S
C853 C850 1.409 . S
C853 C851 1.415 . S
C854 H844 0.930 . S
C854 C852 1.419 . S
C854 C855 1.362 . S
C855 H845 0.930 . S
C855 C848 1.409 . S
C855 C854 1.362 . S
H856 C862 0.930 . S
H857 C865 0.930 . S
H858 C866 0.930 1_545 S
H859 C867 0.930 . S
H860 C870 0.930 . S
H861 C871 0.930 1_565 S
C862 H856 0.930 . S
C862 C863 1.355 . S
C862 C864 1.415 . S
C863 C862 1.355 . S
C863 C865 1.419 . S
C864 C862 1.415 . S
C864 C869 1.425 1_565 S
C864 C871 1.409 1_565 S
C865 H857 0.930 . S
C865 C863 1.419 . S
C865 C866 1.362 . S
C866 H858 0.930 1_565 S
C866 C865 1.362 . S
C866 C869 1.409 1_565 S
C867 H859 0.930 . S
C867 C868 1.355 . S
C867 C869 1.415 . S
C868 C867 1.355 . S
C868 C870 1.419 . S
C869 C864 1.425 1_545 S
C869 C866 1.409 1_545 S
C869 C867 1.415 . S
C870 H860 0.930 . S
C870 C868 1.419 . S
C870 C871 1.362 . S
C871 H861 0.930 1_545 S
C871 C864 1.409 1_545 S
C871 C870 1.362 . S
H872 C878 0.930 . S
H873 C881 0.930 . S
H874 C882 0.930 . S
H875 C883 0.930 . S
H876 C886 0.930 . S
H877 C887 0.930 . S
C878 H872 0.930 . S
C878 C879 1.355 . S
C878 C880 1.415 . S
C879 C878 1.355 . S
C879 C881 1.419 . S
C880 C878 1.415 . S
C880 C885 1.425 1_455 S
C880 C887 1.409 1_455 S
C881 H873 0.930 . S
C881 C879 1.419 . S
C881 C882 1.362 . S
C882 H874 0.930 . S
C882 C881 1.362 . S
C882 C885 1.409 1_455 S
C883 H875 0.930 . S
C883 C884 1.355 . S
C883 C885 1.415 . S
C884 C883 1.355 . S
C884 C886 1.419 . S
C885 C880 1.425 1_655 S
C885 C882 1.409 1_655 S
C885 C883 1.415 . S
C886 H876 0.930 . S
C886 C884 1.419 . S
C886 C887 1.362 . S
C887 H877 0.930 . S
C887 C880 1.409 1_655 S
C887 C886 1.362 . S
C415 C36 1.686 . S
C420 C9 1.701 . S
C431 C43 1.713 . S
C436 C70 1.703 . S
C447 C77 1.691 . S
C452 C2 1.690 . S
C463 C111 1.704 . S
C468 C172 1.707 . S
C479 C145 1.691 . S
C484 C104 1.679 . S
C495 C138 1.680 . S
C500 C179 1.689 . S
C511 C240 1.680 . S
C516 C213 1.689 . S
C527 C274 1.682 . S
C532 C247 1.689 . S
C543 C206 1.685 . S
C548 C281 1.689 . S
C559 C315 1.710 . S
C564 C376 1.697 . S
C575 C308 1.684 . S
C580 C349 1.699 . S
C591 C383 1.701 . S
C596 C342 1.704 . S
C607 C20 1.425 . S
C612 C243 1.427 . S
C623 C54 1.423 . S
C628 C277 1.396 . S
C639 C88 1.401 . S
C644 C209 1.370 . S
C655 C379 1.423 . S
C660 C122 1.417 . S
C671 C156 1.417 . S
C676 C311 1.387 . S
C687 C345 1.370 . S
C692 C190 1.401 . S
C703 C39 1.385 . S
C708 C224 1.415 . S
C719 C73 1.390 . S
C724 C258 1.384 . S
C735 C292 1.428 . S
C740 C5 1.402 . S
C751 C175 1.357 . S
C756 C326 1.369 . S
C767 C360 1.420 . S
C772 C107 1.391 . S
C783 C394 1.372 . S
C788 C141 1.371 . S
C799 C135 1.722 . S
C804 C33 1.721 . S
C815 C67 1.719 . S
C820 C169 1.727 . S
C831 C101 1.776 . S
C836 C203 1.750 . S
C847 C339 1.721 . S
C852 C237 1.738 . S
C863 C271 1.722 . S
C868 C373 1.742 . S
C879 C305 1.744 . S
C884 C407 1.723 . S
