# Generated by pormake.
# Topology unw, (4)-cn, num edge types: 1
# Building blocks:
#     Node 0, Type 0, BuildingBlock: KOZSID_clean_sbu_0, # of connection points: 4
#     Node 1, Type 0, BuildingBlock: KOZSID_clean_sbu_0, # of connection points: 4
#     Node 2, Type 0, BuildingBlock: KOZSID_clean_sbu_0, # of connection points: 4
#     Node 3, Type 0, BuildingBlock: KOZSID_clean_sbu_0, # of connection points: 4
#     Node 4, Type 0, BuildingBlock: KOZSID_clean_sbu_0, # of connection points: 4
#     Node 5, Type 0, BuildingBlock: KOZSID_clean_sbu_0, # of connection points: 4
#     Node 6, Type 0, BuildingBlock: KOZSID_clean_sbu_0, # of connection points: 4
#     Node 7, Type 0, BuildingBlock: KOZSID_clean_sbu_0, # of connection points: 4
#     Node 8, Type 0, BuildingBlock: KOZSID_clean_sbu_0, # of connection points: 4
#     Node 9, Type 0, BuildingBlock: KOZSID_clean_sbu_0, # of connection points: 4
#     Node 10, Type 0, BuildingBlock: KOZSID_clean_sbu_0, # of connection points: 4
#     Node 11, Type 0, BuildingBlock: KOZSID_clean_sbu_0, # of connection points: 4
#     Node 12, Type 0, BuildingBlock: KOZSID_clean_sbu_0, # of connection points: 4
#     Node 13, Type 0, BuildingBlock: KOZSID_clean_sbu_0, # of connection points: 4
#     Node 14, Type 0, BuildingBlock: KOZSID_clean_sbu_0, # of connection points: 4
#     Node 15, Type 0, BuildingBlock: KOZSID_clean_sbu_0, # of connection points: 4
#     Node 16, Type 0, BuildingBlock: KOZSID_clean_sbu_0, # of connection points: 4
#     Node 17, Type 0, BuildingBlock: KOZSID_clean_sbu_0, # of connection points: 4
#     Node 18, Type 0, BuildingBlock: KOZSID_clean_sbu_0, # of connection points: 4
#     Node 19, Type 0, BuildingBlock: KOZSID_clean_sbu_0, # of connection points: 4
#     Node 20, Type 0, BuildingBlock: KOZSID_clean_sbu_0, # of connection points: 4
#     Node 21, Type 0, BuildingBlock: KOZSID_clean_sbu_0, # of connection points: 4
#     Node 22, Type 0, BuildingBlock: KOZSID_clean_sbu_0, # of connection points: 4
#     Node 23, Type 0, BuildingBlock: KOZSID_clean_sbu_0, # of connection points: 4
#     Edge 24, Type (0, 0), BuildingBlock: MIFKUJ_clean_linker_0, # of connection points: 2
#     Edge 25, Type (0, 0), BuildingBlock: MIFKUJ_clean_linker_0, # of connection points: 2
#     Edge 26, Type (0, 0), BuildingBlock: MIFKUJ_clean_linker_0, # of connection points: 2
#     Edge 27, Type (0, 0), BuildingBlock: MIFKUJ_clean_linker_0, # of connection points: 2
#     Edge 28, Type (0, 0), BuildingBlock: MIFKUJ_clean_linker_0, # of connection points: 2
#     Edge 29, Type (0, 0), BuildingBlock: MIFKUJ_clean_linker_0, # of connection points: 2
#     Edge 30, Type (0, 0), BuildingBlock: MIFKUJ_clean_linker_0, # of connection points: 2
#     Edge 31, Type (0, 0), BuildingBlock: MIFKUJ_clean_linker_0, # of connection points: 2
#     Edge 32, Type (0, 0), BuildingBlock: MIFKUJ_clean_linker_0, # of connection points: 2
#     Edge 33, Type (0, 0), BuildingBlock: MIFKUJ_clean_linker_0, # of connection points: 2
#     Edge 34, Type (0, 0), BuildingBlock: MIFKUJ_clean_linker_0, # of connection points: 2
#     Edge 35, Type (0, 0), BuildingBlock: MIFKUJ_clean_linker_0, # of connection points: 2
#     Edge 36, Type (0, 0), BuildingBlock: MIFKUJ_clean_linker_0, # of connection points: 2
#     Edge 37, Type (0, 0), BuildingBlock: MIFKUJ_clean_linker_0, # of connection points: 2
#     Edge 38, Type (0, 0), BuildingBlock: MIFKUJ_clean_linker_0, # of connection points: 2
#     Edge 39, Type (0, 0), BuildingBlock: MIFKUJ_clean_linker_0, # of connection points: 2
#     Edge 40, Type (0, 0), BuildingBlock: MIFKUJ_clean_linker_0, # of connection points: 2
#     Edge 41, Type (0, 0), BuildingBlock: MIFKUJ_clean_linker_0, # of connection points: 2
#     Edge 42, Type (0, 0), BuildingBlock: MIFKUJ_clean_linker_0, # of connection points: 2
#     Edge 43, Type (0, 0), BuildingBlock: MIFKUJ_clean_linker_0, # of connection points: 2
#     Edge 44, Type (0, 0), BuildingBlock: MIFKUJ_clean_linker_0, # of connection points: 2
#     Edge 45, Type (0, 0), BuildingBlock: MIFKUJ_clean_linker_0, # of connection points: 2
#     Edge 46, Type (0, 0), BuildingBlock: MIFKUJ_clean_linker_0, # of connection points: 2
#     Edge 47, Type (0, 0), BuildingBlock: MIFKUJ_clean_linker_0, # of connection points: 2
#     Edge 48, Type (0, 0), BuildingBlock: MIFKUJ_clean_linker_0, # of connection points: 2
#     Edge 49, Type (0, 0), BuildingBlock: MIFKUJ_clean_linker_0, # of connection points: 2
#     Edge 50, Type (0, 0), BuildingBlock: MIFKUJ_clean_linker_0, # of connection points: 2
#     Edge 51, Type (0, 0), BuildingBlock: MIFKUJ_clean_linker_0, # of connection points: 2
#     Edge 52, Type (0, 0), BuildingBlock: MIFKUJ_clean_linker_0, # of connection points: 2
#     Edge 53, Type (0, 0), BuildingBlock: MIFKUJ_clean_linker_0, # of connection points: 2
#     Edge 54, Type (0, 0), BuildingBlock: MIFKUJ_clean_linker_0, # of connection points: 2
#     Edge 55, Type (0, 0), BuildingBlock: MIFKUJ_clean_linker_0, # of connection points: 2
#     Edge 56, Type (0, 0), BuildingBlock: MIFKUJ_clean_linker_0, # of connection points: 2
#     Edge 57, Type (0, 0), BuildingBlock: MIFKUJ_clean_linker_0, # of connection points: 2
#     Edge 58, Type (0, 0), BuildingBlock: MIFKUJ_clean_linker_0, # of connection points: 2
#     Edge 59, Type (0, 0), BuildingBlock: MIFKUJ_clean_linker_0, # of connection points: 2
#     Edge 60, Type (0, 0), BuildingBlock: MIFKUJ_clean_linker_0, # of connection points: 2
#     Edge 61, Type (0, 0), BuildingBlock: MIFKUJ_clean_linker_0, # of connection points: 2
#     Edge 62, Type (0, 0), BuildingBlock: MIFKUJ_clean_linker_0, # of connection points: 2
#     Edge 63, Type (0, 0), BuildingBlock: MIFKUJ_clean_linker_0, # of connection points: 2
#     Edge 64, Type (0, 0), BuildingBlock: MIFKUJ_clean_linker_0, # of connection points: 2
#     Edge 65, Type (0, 0), BuildingBlock: MIFKUJ_clean_linker_0, # of connection points: 2
#     Edge 66, Type (0, 0), BuildingBlock: MIFKUJ_clean_linker_0, # of connection points: 2
#     Edge 67, Type (0, 0), BuildingBlock: MIFKUJ_clean_linker_0, # of connection points: 2
#     Edge 68, Type (0, 0), BuildingBlock: MIFKUJ_clean_linker_0, # of connection points: 2
#     Edge 69, Type (0, 0), BuildingBlock: MIFKUJ_clean_linker_0, # of connection points: 2
#     Edge 70, Type (0, 0), BuildingBlock: MIFKUJ_clean_linker_0, # of connection points: 2
#     Edge 71, Type (0, 0), BuildingBlock: MIFKUJ_clean_linker_0, # of connection points: 2
# Relax obj value: 0.337
# Max RMSD: 0.287
# Mean RMSD: 0.269
data_MOF--net-unw--node1-KOZSID_clean_sbu_0--edge1-MIFKUJ_clean_linker_0
_symmetry_space_group_name_H-M    P1
_symmetry_Int_Tables_number       1
_symmetry_cell_setting            triclinic
loop_
_symmetry_equiv_pos_as_xyz
'x, y, z'
_cell_length_a     75.94683
_cell_length_b     66.158518
_cell_length_c     69.235384
_cell_angle_alpha  90.000218
_cell_angle_beta   90.38992
_cell_angle_gamma 89.986487
loop_
_atom_site_label
_atom_site_type_symbol
_atom_site_fract_x
_atom_site_fract_y
_atom_site_fract_z
_atom_type_partial_charge
C0 C 0.12831 0.4242 0.19844 0.0
C1 C 0.11851 0.42869 0.18203 0.0
C2 C 0.10812 0.41222 0.17843 0.0
C3 C 0.1122 0.39861 0.19274 0.0
N4 N 0.12425 0.40566 0.20554 0.0
Co5 Co 0.13572 0.39029 0.22722 0.0
N6 N 0.1247 0.36424 0.21859 0.0
C7 C 0.11306 0.36169 0.2039 0.0
C8 C 0.10867 0.34185 0.20072 0.0
C9 C 0.11825 0.3311 0.21398 0.0
C10 C 0.12792 0.34506 0.22459 0.0
N11 N 0.14729 0.37514 0.24885 0.0
C12 C 0.14809 0.35502 0.2522 0.0
C13 C 0.15761 0.35073 0.26891 0.0
C14 C 0.16333 0.36877 0.27612 0.0
C15 C 0.15696 0.38301 0.26352 0.0
N16 N 0.14709 0.41617 0.23552 0.0
C17 C 0.15694 0.41943 0.25155 0.0
C18 C 0.16384 0.43856 0.2526 0.0
C19 C 0.15851 0.44787 0.23595 0.0
C20 C 0.14867 0.43376 0.22571 0.0
N21 N 0.11496 0.39554 0.24428 0.0
C22 C 0.08642 0.3935 0.27042 0.0
C23 C 0.10304 0.40027 0.27643 0.0
C24 C 0.11692 0.40135 0.26321 0.0
C25 C 0.08407 0.38957 0.25075 0.0
C26 C 0.09824 0.39103 0.23809 0.0
N27 N 0.15606 0.38442 0.21052 0.0
C28 C 0.18693 0.37653 0.20706 0.0
C29 C 0.18373 0.36833 0.18873 0.0
C30 C 0.16682 0.36996 0.18092 0.0
C31 C 0.15331 0.37809 0.19192 0.0
C32 C 0.17292 0.38459 0.21766 0.0
H33 H 0.14058 0.37834 0.18537 0.0
H34 H 0.17578 0.39015 0.23189 0.0
H35 H 0.12915 0.40651 0.26886 0.0
H36 H 0.09528 0.38775 0.2235 0.0
C37 C 0.10765 0.37805 0.19241 0.0
C38 C 0.14231 0.43713 0.20607 0.0
C39 C 0.14051 0.33946 0.23971 0.0
C40 C 0.16121 0.40356 0.26403 0.0
H41 H 0.11936 0.44204 0.17308 0.0
H42 H 0.0996 0.40987 0.16603 0.0
H43 H 0.10001 0.33586 0.18964 0.0
H44 H 0.11841 0.31481 0.21538 0.0
H45 H 0.16049 0.33604 0.27501 0.0
H46 H 0.17166 0.37115 0.28866 0.0
H47 H 0.17253 0.44464 0.26361 0.0
H48 H 0.16206 0.46299 0.23143 0.0
H49 H 0.10547 0.40443 0.29133 0.0
H50 H 0.07152 0.38446 0.24506 0.0
H51 H 0.19992 0.37581 0.21356 0.0
H52 H 0.16387 0.36437 0.16654 0.0
C53 C 0.61971 0.11012 0.3095 0.0
C54 C 0.60668 0.10617 0.32288 0.0
C55 C 0.59563 0.12271 0.3227 0.0
C56 C 0.60256 0.13575 0.30924 0.0
N57 N 0.61718 0.1283 0.30106 0.0
Co58 Co 0.63212 0.14201 0.28185 0.0
N59 N 0.62282 0.16881 0.28913 0.0
C60 C 0.60757 0.17233 0.29835 0.0
C61 C 0.60455 0.1926 0.30114 0.0
C62 C 0.61872 0.2023 0.29304 0.0
C63 C 0.62963 0.18735 0.28574 0.0
N64 N 0.64724 0.15551 0.2627 0.0
C65 C 0.65227 0.17506 0.26181 0.0
C66 C 0.66301 0.1783 0.24593 0.0
C67 C 0.66452 0.16008 0.23658 0.0
C68 C 0.65468 0.14675 0.24721 0.0
N69 N 0.64117 0.1152 0.27444 0.0
C70 C 0.64893 0.11033 0.25769 0.0
C71 C 0.65411 0.09041 0.25716 0.0
C72 C 0.64928 0.08243 0.2747 0.0
C73 C 0.6414 0.09801 0.28489 0.0
N74 N 0.61335 0.13967 0.26245 0.0
C75 C 0.58428 0.13905 0.23725 0.0
C76 C 0.5957 0.15566 0.23789 0.0
C77 C 0.60993 0.15576 0.25063 0.0
C78 C 0.58834 0.12221 0.24882 0.0
C79 C 0.60302 0.12277 0.26122 0.0
N80 N 0.65071 0.1448 0.30123 0.0
C81 C 0.6815 0.14594 0.30941 0.0
C82 C 0.67759 0.15503 0.32716 0.0
C83 C 0.65991 0.15762 0.33215 0.0
C84 C 0.6467 0.15234 0.31905 0.0
C85 C 0.66785 0.14091 0.29664 0.0
H86 H 0.63324 0.15515 0.32304 0.0
H87 H 0.67118 0.1347 0.28274 0.0
H88 H 0.61788 0.16922 0.25123 0.0
H89 H 0.60572 0.10981 0.27024 0.0
C90 C 0.59829 0.15632 0.30701 0.0
C91 C 0.6339 0.09624 0.30422 0.0
C92 C 0.64568 0.1911 0.27457 0.0
C93 C 0.65456 0.12563 0.24512 0.0
H94 H 0.60539 0.09285 0.33184 0.0
H95 H 0.5845 0.12534 0.33205 0.0
H96 H 0.59372 0.1995 0.3088 0.0
H97 H 0.62074 0.21848 0.2925 0.0
H98 H 0.66893 0.19239 0.24141 0.0
H99 H 0.67236 0.15684 0.22396 0.0
H100 H 0.66146 0.08289 0.24592 0.0
H101 H 0.65149 0.06707 0.2795 0.0
H102 H 0.59354 0.16878 0.22883 0.0
H103 H 0.57994 0.10899 0.24884 0.0
H104 H 0.69501 0.14367 0.30497 0.0
H105 H 0.65631 0.16422 0.34589 0.0
C106 C 0.88778 0.5799 0.20889 0.0
C107 C 0.89844 0.57431 0.19364 0.0
C108 C 0.90982 0.59022 0.19064 0.0
C109 C 0.90546 0.60455 0.20423 0.0
N110 N 0.89214 0.59846 0.21548 0.0
Co111 Co 0.88052 0.61434 0.23582 0.0
N112 N 0.88906 0.64007 0.22485 0.0
C113 C 0.90257 0.64219 0.21254 0.0
C114 C 0.90484 0.66191 0.20685 0.0
C115 C 0.89203 0.67273 0.21629 0.0
C116 C 0.88271 0.65898 0.22741 0.0
N117 N 0.86883 0.62995 0.25627 0.0
C118 C 0.8643 0.64966 0.25644 0.0
C119 C 0.85664 0.65469 0.27398 0.0
C120 C 0.85649 0.63745 0.28501 0.0
C121 C 0.86406 0.62285 0.2737 0.0
N122 N 0.87211 0.58863 0.24679 0.0
C123 C 0.86698 0.58547 0.26508 0.0
C124 C 0.86128 0.566 0.26802 0.0
C125 C 0.86296 0.55648 0.25046 0.0
C126 C 0.86971 0.57073 0.2378 0.0
N127 N 0.90176 0.61292 0.25201 0.0
C128 C 0.93104 0.61201 0.27679 0.0
C129 C 0.92609 0.59473 0.26634 0.0
C130 C 0.91124 0.59545 0.25411 0.0
C131 C 0.92135 0.62974 0.27421 0.0
C132 C 0.90697 0.62994 0.26171 0.0
N133 N 0.85935 0.61647 0.21979 0.0
C134 C 0.8281 0.62192 0.21824 0.0
C135 C 0.82967 0.63023 0.19969 0.0
C136 C 0.84614 0.62953 0.19073 0.0
C137 C 0.86078 0.62251 0.20099 0.0
C138 C 0.84309 0.61495 0.22799 0.0
H139 H 0.87345 0.62342 0.19416 0.0
H140 H 0.84171 0.60962 0.24263 0.0
H141 H 0.90733 0.58191 0.24649 0.0
H142 H 0.89995 0.64398 0.26007 0.0
C143 C 0.91022 0.6251 0.20381 0.0
C144 C 0.87411 0.56721 0.2175 0.0
C145 C 0.86859 0.66418 0.24104 0.0
C146 C 0.86398 0.60197 0.27738 0.0
H147 H 0.89787 0.56037 0.18547 0.0
H148 H 0.91931 0.59165 0.17913 0.0
H149 H 0.91405 0.66763 0.19632 0.0
H150 H 0.88979 0.68881 0.21499 0.0
H151 H 0.85177 0.66928 0.27844 0.0
H152 H 0.85091 0.63565 0.29925 0.0
H153 H 0.85554 0.55979 0.281 0.0
H154 H 0.85939 0.541 0.2474 0.0
H155 H 0.9334 0.58076 0.26791 0.0
H156 H 0.92496 0.64351 0.28175 0.0
H157 H 0.81553 0.62165 0.22553 0.0
H158 H 0.84802 0.63571 0.17641 0.0
C159 C 0.3751 0.92498 0.2973 0.0
C160 C 0.38582 0.93075 0.3126 0.0
C161 C 0.39743 0.91505 0.31569 0.0
C162 C 0.39318 0.90062 0.30209 0.0
N163 N 0.37971 0.90649 0.29072 0.0
Co164 Co 0.36822 0.8903 0.27032 0.0
N165 N 0.37697 0.86473 0.28155 0.0
C166 C 0.39064 0.86289 0.2939 0.0
C167 C 0.39371 0.84313 0.29906 0.0
C168 C 0.38128 0.83197 0.28919 0.0
C169 C 0.37129 0.84559 0.2785 0.0
N170 N 0.35662 0.87439 0.24975 0.0
C171 C 0.35246 0.85455 0.24942 0.0
C172 C 0.34462 0.84943 0.23187 0.0
C173 C 0.34403 0.86675 0.22096 0.0
C174 C 0.35153 0.88144 0.23235 0.0
N175 N 0.35955 0.91594 0.25921 0.0
C176 C 0.35414 0.91891 0.24091 0.0
C177 C 0.3478 0.93813 0.23798 0.0
C178 C 0.34931 0.94768 0.25555 0.0
C179 C 0.35667 0.93375 0.26825 0.0
N180 N 0.38957 0.89175 0.25447 0.0
C181 C 0.42119 0.89135 0.23382 0.0
C182 C 0.41073 0.8741 0.23492 0.0
C183 C 0.39511 0.87458 0.24527 0.0
C184 C 0.41543 0.90909 0.2429 0.0
C185 C 0.39945 0.90901 0.2531 0.0
N186 N 0.34709 0.88811 0.28614 0.0
C187 C 0.31588 0.88239 0.28787 0.0
C188 C 0.31773 0.8758 0.30698 0.0
C189 C 0.3342 0.87704 0.31594 0.0
C190 C 0.34874 0.88314 0.30524 0.0
C191 C 0.33074 0.88889 0.27778 0.0
H192 H 0.36149 0.88255 0.31213 0.0
H193 H 0.32918 0.89331 0.26287 0.0
H194 H 0.38771 0.86075 0.24612 0.0
H195 H 0.39522 0.92271 0.26019 0.0
C196 C 0.39815 0.88013 0.30261 0.0
C197 C 0.36111 0.93745 0.28868 0.0
C198 C 0.35747 0.83994 0.2645 0.0
C199 C 0.35117 0.90231 0.2287 0.0
H200 H 0.38511 0.94467 0.32077 0.0
H201 H 0.407 0.91378 0.32728 0.0
H202 H 0.40338 0.83753 0.30929 0.0
H203 H 0.37982 0.81571 0.2897 0.0
H204 H 0.34004 0.83469 0.2273 0.0
H205 H 0.33828 0.86852 0.20672 0.0
H206 H 0.34163 0.94406 0.22503 0.0
H207 H 0.34507 0.96294 0.25852 0.0
H208 H 0.41483 0.86012 0.22815 0.0
H209 H 0.42329 0.92273 0.24234 0.0
H210 H 0.30325 0.88163 0.28056 0.0
H211 H 0.33605 0.87193 0.33069 0.0
C212 C 0.11709 0.57297 0.79641 0.0
C213 C 0.10765 0.56867 0.81297 0.0
C214 C 0.09696 0.58496 0.8162 0.0
C215 C 0.1006 0.59827 0.80155 0.0
N216 N 0.11257 0.59118 0.78887 0.0
Co217 Co 0.12387 0.60646 0.76724 0.0
N218 N 0.11207 0.63221 0.77498 0.0
C219 C 0.09915 0.63431 0.78817 0.0
C220 C 0.09389 0.65397 0.79062 0.0
C221 C 0.10413 0.66504 0.77836 0.0
C222 C 0.11505 0.65142 0.76901 0.0
N223 N 0.1361 0.62176 0.74634 0.0
C224 C 0.13699 0.64191 0.74322 0.0
C225 C 0.14731 0.64633 0.72726 0.0
C226 C 0.15352 0.62838 0.72042 0.0
C227 C 0.14664 0.61405 0.73248 0.0
N228 N 0.13527 0.58066 0.7592 0.0
C229 C 0.14451 0.5772 0.74294 0.0
C230 C 0.15117 0.55795 0.74187 0.0
C231 C 0.14619 0.54878 0.75866 0.0
C232 C 0.1368 0.56307 0.769 0.0
N233 N 0.10342 0.60091 0.74949 0.0
C234 C 0.07412 0.60506 0.72438 0.0
C235 C 0.09114 0.60323 0.71712 0.0
C236 C 0.10542 0.60084 0.72978 0.0
C237 C 0.07185 0.60227 0.74421 0.0
C238 C 0.08652 0.59991 0.75633 0.0
N239 N 0.14382 0.61262 0.78463 0.0
C240 C 0.17501 0.61741 0.78974 0.0
C241 C 0.17183 0.62755 0.80712 0.0
C242 C 0.1545 0.62879 0.81363 0.0
C243 C 0.1408 0.6212 0.80229 0.0
C244 C 0.16086 0.61001 0.77878 0.0
H245 H 0.12777 0.62303 0.80773 0.0
H246 H 0.16381 0.60287 0.76528 0.0
H247 H 0.11791 0.5997 0.72314 0.0
H248 H 0.0837 0.59789 0.77119 0.0
C249 C 0.09445 0.6182 0.80022 0.0
C250 C 0.13091 0.56 0.78874 0.0
C251 C 0.12852 0.65731 0.75512 0.0
C252 C 0.14976 0.59326 0.73123 0.0
H253 H 0.10878 0.55543 0.82207 0.0
H254 H 0.08826 0.58725 0.82832 0.0
H255 H 0.08442 0.65972 0.80087 0.0
H256 H 0.10391 0.68131 0.7769 0.0
H257 H 0.15021 0.66103 0.72124 0.0
H258 H 0.16216 0.62607 0.70824 0.0
H259 H 0.15974 0.55179 0.73091 0.0
H260 H 0.14977 0.53368 0.76324 0.0
H261 H 0.09365 0.6047 0.7018 0.0
H262 H 0.05882 0.60246 0.75048 0.0
H263 H 0.18825 0.61599 0.78416 0.0
H264 H 0.15145 0.63602 0.82724 0.0
C265 C 0.3872 0.10945 0.68265 0.0
C266 C 0.39837 0.10432 0.66768 0.0
C267 C 0.40812 0.12118 0.66375 0.0
C268 C 0.4024 0.13556 0.67655 0.0
N269 N 0.38983 0.12872 0.68863 0.0
Co270 Co 0.37722 0.14453 0.70891 0.0
N271 N 0.38757 0.17066 0.69955 0.0
C272 C 0.39904 0.17303 0.68485 0.0
C273 C 0.40269 0.19285 0.68072 0.0
C274 C 0.39277 0.20381 0.69335 0.0
C275 C 0.38374 0.18997 0.70464 0.0
N276 N 0.36499 0.16017 0.72956 0.0
C277 C 0.36425 0.18036 0.73265 0.0
C278 C 0.35517 0.18485 0.74948 0.0
C279 C 0.34957 0.1669 0.75693 0.0
C280 C 0.35569 0.15251 0.74444 0.0
N281 N 0.3661 0.1186 0.71756 0.0
C282 C 0.35528 0.11601 0.7328 0.0
C283 C 0.34806 0.0971 0.73387 0.0
C284 C 0.35427 0.08711 0.7181 0.0
C285 C 0.36518 0.10052 0.70838 0.0
N286 N 0.3976 0.14052 0.72704 0.0
C287 C 0.42548 0.14004 0.75443 0.0
C288 C 0.40912 0.13158 0.75872 0.0
C289 C 0.39556 0.13181 0.7449 0.0
C290 C 0.42789 0.14776 0.73587 0.0
C291 C 0.41402 0.14767 0.72255 0.0
N292 N 0.35716 0.1488 0.69111 0.0
C293 C 0.32601 0.15368 0.6857 0.0
C294 C 0.32906 0.15944 0.66657 0.0
C295 C 0.34627 0.15862 0.65967 0.0
C296 C 0.36001 0.15321 0.67206 0.0
C297 C 0.34019 0.14842 0.69768 0.0
H298 H 0.37293 0.1532 0.66609 0.0
H299 H 0.33728 0.14465 0.71235 0.0
H300 H 0.38355 0.12506 0.74924 0.0
H301 H 0.41698 0.15393 0.70887 0.0
C302 C 0.40586 0.15628 0.67502 0.0
C303 C 0.37353 0.09602 0.6899 0.0
C304 C 0.37144 0.19578 0.7198 0.0
C305 C 0.35122 0.13208 0.74504 0.0
H306 H 0.39887 0.09013 0.65992 0.0
H307 H 0.41738 0.12312 0.65208 0.0
H308 H 0.41127 0.19865 0.6696 0.0
H309 H 0.39211 0.22013 0.69399 0.0
H310 H 0.35255 0.19959 0.7556 0.0
H311 H 0.3415 0.16467 0.76958 0.0
H312 H 0.33876 0.09152 0.74439 0.0
H313 H 0.35061 0.07192 0.71404 0.0
H314 H 0.4067 0.12487 0.77272 0.0
H315 H 0.44027 0.15455 0.73172 0.0
H316 H 0.31287 0.1541 0.69168 0.0
H317 H 0.34919 0.16257 0.64485 0.0
C318 C 0.87159 0.42324 0.79562 0.0
C319 C 0.88363 0.42896 0.80973 0.0
C320 C 0.89541 0.4132 0.81159 0.0
C321 C 0.8899 0.39873 0.7986 0.0
N322 N 0.87547 0.4046 0.78878 0.0
Co323 Co 0.86185 0.38811 0.77019 0.0
N324 N 0.87157 0.36263 0.7806 0.0
C325 C 0.88635 0.36084 0.79131 0.0
C326 C 0.88927 0.34124 0.7971 0.0
C327 C 0.87554 0.33019 0.78943 0.0
C328 C 0.86502 0.34366 0.77919 0.0
N329 N 0.84806 0.37202 0.75154 0.0
C330 C 0.84364 0.35228 0.75225 0.0
C331 C 0.83438 0.34673 0.73569 0.0
C332 C 0.83299 0.36376 0.72441 0.0
C333 C 0.84152 0.3787 0.73458 0.0
N334 N 0.85225 0.41349 0.75974 0.0
C335 C 0.84532 0.4163 0.74203 0.0
C336 C 0.83932 0.43575 0.7394 0.0
C337 C 0.84272 0.44556 0.75656 0.0
C338 C 0.85056 0.43148 0.76868 0.0
N339 N 0.88138 0.38914 0.75175 0.0
C340 C 0.91065 0.38833 0.72723 0.0
C341 C 0.90626 0.40598 0.73738 0.0
C342 C 0.89138 0.40616 0.74937 0.0
C343 C 0.89997 0.37132 0.7294 0.0
C344 C 0.88562 0.37195 0.74179 0.0
N345 N 0.84261 0.3864 0.78868 0.0
C346 C 0.81171 0.38258 0.79521 0.0
C347 C 0.81565 0.37566 0.81389 0.0
C348 C 0.83318 0.37589 0.82015 0.0
C349 C 0.84641 0.38134 0.80738 0.0
C350 C 0.82544 0.38795 0.78279 0.0
H351 H 0.85981 0.38036 0.81242 0.0
H352 H 0.82226 0.39232 0.76816 0.0
H353 H 0.88815 0.41989 0.757 0.0
H354 H 0.87821 0.35823 0.74362 0.0
C355 C 0.89475 0.37817 0.79881 0.0
C356 C 0.85676 0.4355 0.78838 0.0
C357 C 0.8494 0.33823 0.76752 0.0
C358 C 0.84106 0.39952 0.73046 0.0
H359 H 0.88374 0.44275 0.81809 0.0
H360 H 0.90592 0.41191 0.82215 0.0
H361 H 0.89956 0.33578 0.80664 0.0
H362 H 0.8735 0.31414 0.79137 0.0
H363 H 0.82935 0.33191 0.732 0.0
H364 H 0.82606 0.3652 0.71076 0.0
H365 H 0.83235 0.44175 0.72698 0.0
H366 H 0.8396 0.46114 0.7599 0.0
H367 H 0.91424 0.41947 0.73606 0.0
H368 H 0.90304 0.3573 0.72207 0.0
H369 H 0.79827 0.38274 0.78987 0.0
H370 H 0.83674 0.37108 0.83462 0.0
C371 C 0.62878 0.92512 0.70526 0.0
C372 C 0.62037 0.93134 0.68844 0.0
C373 C 0.60954 0.91584 0.68292 0.0
C374 C 0.61192 0.90112 0.69666 0.0
N375 N 0.62326 0.90656 0.71089 0.0
Co376 Co 0.6321 0.88929 0.73266 0.0
N377 N 0.62058 0.86458 0.72159 0.0
C378 C 0.60979 0.86373 0.70599 0.0
C379 C 0.60502 0.84439 0.70106 0.0
C380 C 0.61348 0.8322 0.7141 0.0
C381 C 0.62287 0.84484 0.72637 0.0
N382 N 0.64114 0.87214 0.75435 0.0
C383 C 0.64078 0.85183 0.75647 0.0
C384 C 0.64843 0.8459 0.77386 0.0
C385 C 0.65435 0.86305 0.7827 0.0
C386 C 0.64988 0.87841 0.77034 0.0
N387 N 0.64396 0.91389 0.74346 0.0
C388 C 0.65262 0.91542 0.76053 0.0
C389 C 0.66094 0.93359 0.76309 0.0
C390 C 0.65783 0.94411 0.74647 0.0
C391 C 0.64758 0.93176 0.73469 0.0
N392 N 0.61025 0.89494 0.74797 0.0
C393 C 0.5796 0.89247 0.77089 0.0
C394 C 0.59604 0.89628 0.77925 0.0
C395 C 0.61096 0.89796 0.76758 0.0
C396 C 0.5785 0.89197 0.75078 0.0
C397 C 0.59381 0.89334 0.73973 0.0
N398 N 0.65344 0.88306 0.71765 0.0
C399 C 0.68422 0.87405 0.71662 0.0
C400 C 0.68256 0.86841 0.69723 0.0
C401 C 0.66639 0.8713 0.68799 0.0
C402 C 0.65208 0.87849 0.69841 0.0
C403 C 0.6696 0.88163 0.72646 0.0
H404 H 0.63985 0.87953 0.6908 0.0
H405 H 0.67142 0.8857 0.7413 0.0
H406 H 0.62291 0.90122 0.77492 0.0
H407 H 0.59189 0.89242 0.7246 0.0
C408 C 0.6062 0.88103 0.69494 0.0
C409 C 0.64272 0.93674 0.71475 0.0
C410 C 0.63438 0.83762 0.74191 0.0
C411 C 0.65507 0.89856 0.7724 0.0
H412 H 0.62245 0.94528 0.68059 0.0
H413 H 0.60178 0.9149 0.66978 0.0
H414 H 0.59704 0.83966 0.68887 0.0
H415 H 0.61315 0.81585 0.7142 0.0
H416 H 0.65006 0.8307 0.7793 0.0
H417 H 0.66163 0.86411 0.79616 0.0
H418 H 0.66931 0.93812 0.77505 0.0
H419 H 0.66326 0.95879 0.74321 0.0
H420 H 0.59744 0.89765 0.79478 0.0
H421 H 0.56598 0.88951 0.74356 0.0
H422 H 0.69665 0.87232 0.72422 0.0
H423 H 0.66452 0.86707 0.673 0.0
C424 C 0.25036 0.10388 0.38308 0.0
C425 C 0.26558 0.10718 0.39373 0.0
C426 C 0.26491 0.127 0.39985 0.0
C427 C 0.24933 0.13463 0.39261 0.0
N428 N 0.2403 0.12072 0.38248 0.0
Co429 Co 0.21822 0.1251 0.36791 0.0
N430 N 0.22244 0.15446 0.36633 0.0
C431 C 0.23307 0.16515 0.37815 0.0
C432 C 0.2329 0.18544 0.37394 0.0
C433 C 0.22137 0.18752 0.35867 0.0
C434 C 0.21517 0.16829 0.3543 0.0
N435 N 0.19613 0.12918 0.35319 0.0
C436 C 0.19132 0.14479 0.34168 0.0
C437 C 0.1751 0.1409 0.33302 0.0
C438 C 0.16945 0.1226 0.33998 0.0
C439 C 0.18255 0.11611 0.35224 0.0
N440 N 0.21419 0.0957 0.3697 0.0
C441 C 0.19871 0.08613 0.36762 0.0
C442 C 0.20053 0.06546 0.3684 0.0
C443 C 0.21826 0.06199 0.37099 0.0
C444 C 0.22626 0.08081 0.37173 0.0
N445 N 0.2054 0.12952 0.39213 0.0
C446 C 0.18919 0.13984 0.4272 0.0
C447 C 0.18516 0.15018 0.41011 0.0
C448 C 0.19336 0.14488 0.39291 0.0
C449 C 0.20127 0.12376 0.42625 0.0
C450 C 0.20909 0.1187 0.40852 0.0
N451 N 0.23096 0.12134 0.34378 0.0
C452 C 0.23215 0.10953 0.31093 0.0
C453 C 0.24812 0.11969 0.30828 0.0
C454 C 0.25554 0.13017 0.32387 0.0
C455 C 0.24672 0.13093 0.34138 0.0
C456 C 0.22388 0.11031 0.32893 0.0
H457 H 0.25247 0.13977 0.35285 0.0
H458 H 0.21156 0.10244 0.33069 0.0
H459 H 0.1903 0.1538 0.38033 0.0
H460 H 0.21842 0.10638 0.40812 0.0
C461 C 0.24501 0.15523 0.39062 0.0
C462 C 0.2452 0.08457 0.37427 0.0
C463 C 0.20127 0.16387 0.33996 0.0
C464 C 0.18418 0.09652 0.35988 0.0
H465 H 0.27609 0.09649 0.3965 0.0
H466 H 0.27514 0.13519 0.4075 0.0
H467 H 0.24063 0.19725 0.38072 0.0
H468 H 0.21778 0.2016 0.35173 0.0
H469 H 0.16803 0.15016 0.3227 0.0
H470 H 0.15762 0.11454 0.33579 0.0
H471 H 0.19043 0.0542 0.36586 0.0
H472 H 0.22448 0.04732 0.37171 0.0
H473 H 0.17619 0.16291 0.41009 0.0
H474 H 0.2047 0.11524 0.43909 0.0
H475 H 0.22606 0.10123 0.29917 0.0
H476 H 0.26776 0.13846 0.32231 0.0
C477 C 0.89361 0.25303 0.40632 0.0
C478 C 0.90235 0.23529 0.40184 0.0
C479 C 0.90698 0.23679 0.38266 0.0
C480 C 0.90081 0.25533 0.37658 0.0
N481 N 0.89276 0.26542 0.39085 0.0
Co482 Co 0.88035 0.29149 0.38869 0.0
N483 N 0.87741 0.28837 0.36052 0.0
C484 C 0.88701 0.27615 0.34913 0.0
C485 C 0.88188 0.27725 0.33009 0.0
C486 C 0.86839 0.29112 0.32958 0.0
C487 C 0.86607 0.29782 0.34841 0.0
N488 N 0.86777 0.31751 0.38686 0.0
C489 C 0.85708 0.32446 0.37266 0.0
C490 C 0.85117 0.34382 0.37692 0.0
C491 C 0.85857 0.34902 0.39441 0.0
C492 C 0.86858 0.33264 0.39983 0.0
N493 N 0.88359 0.29453 0.41681 0.0
C494 C 0.88302 0.3119 0.42684 0.0
C495 C 0.88467 0.30872 0.4464 0.0
C496 C 0.88624 0.28811 0.44862 0.0
C497 C 0.88554 0.27985 0.43021 0.0
N498 N 0.90277 0.30538 0.38411 0.0
C499 C 0.93528 0.32175 0.37284 0.0
C500 C 0.91943 0.3285 0.3646 0.0
C501 C 0.90349 0.32005 0.37024 0.0
C502 C 0.93433 0.30744 0.38782 0.0
C503 C 0.91794 0.29958 0.39335 0.0
N504 N 0.85806 0.27757 0.39281 0.0
C505 C 0.83002 0.27456 0.40857 0.0
C506 C 0.82654 0.25669 0.39838 0.0
C507 C 0.83902 0.24971 0.38519 0.0
C508 C 0.85461 0.26032 0.38263 0.0
C509 C 0.84594 0.28475 0.40564 0.0
H510 H 0.86393 0.25448 0.37241 0.0
H511 H 0.84848 0.29841 0.4137 0.0
H512 H 0.89178 0.32499 0.36277 0.0
H513 H 0.91757 0.28827 0.40459 0.0
C514 C 0.8982 0.26139 0.35729 0.0
C515 C 0.88663 0.25826 0.42537 0.0
C516 C 0.85387 0.31395 0.35427 0.0
C517 C 0.87641 0.32951 0.41806 0.0
H518 H 0.90481 0.22259 0.41133 0.0
H519 H 0.913 0.22515 0.37392 0.0
H520 H 0.8868 0.26842 0.31812 0.0
H521 H 0.86115 0.29574 0.31682 0.0
H522 H 0.84264 0.35329 0.3682 0.0
H523 H 0.85643 0.36282 0.40246 0.0
H524 H 0.88353 0.31983 0.4578 0.0
H525 H 0.88733 0.28026 0.46225 0.0
H526 H 0.91927 0.34003 0.3535 0.0
H527 H 0.94616 0.30176 0.39475 0.0
H528 H 0.82059 0.28049 0.41879 0.0
H529 H 0.83666 0.23622 0.37669 0.0
C530 C 0.79543 0.88358 0.41156 0.0
C531 C 0.81054 0.89485 0.41488 0.0
C532 C 0.81239 0.90739 0.39935 0.0
C533 C 0.79836 0.90305 0.38747 0.0
N534 N 0.78743 0.88885 0.39472 0.0
Co535 Co 0.76651 0.87637 0.38151 0.0
N536 N 0.77139 0.89132 0.35696 0.0
C537 C 0.78355 0.90598 0.3543 0.0
C538 C 0.78393 0.91325 0.33576 0.0
C539 C 0.7714 0.90244 0.32597 0.0
C540 C 0.76412 0.88909 0.33915 0.0
N541 N 0.746 0.86322 0.36814 0.0
C542 C 0.74144 0.86318 0.34918 0.0
C543 C 0.72716 0.85053 0.34565 0.0
C544 C 0.72252 0.84239 0.36297 0.0
C545 C 0.73426 0.85029 0.37601 0.0
N546 N 0.76155 0.86159 0.40614 0.0
C547 C 0.74745 0.8498 0.40996 0.0
C548 C 0.74817 0.84076 0.42774 0.0
C549 C 0.76379 0.84684 0.43564 0.0
C550 C 0.77172 0.8594 0.42217 0.0
N551 N 0.75099 0.89919 0.38977 0.0
C552 C 0.72689 0.93172 0.39001 0.0
C553 C 0.72134 0.91197 0.39379 0.0
C554 C 0.73354 0.89611 0.39384 0.0
C555 C 0.74499 0.93511 0.38855 0.0
C556 C 0.75669 0.91882 0.38885 0.0
N557 N 0.78161 0.85403 0.37268 0.0
C558 C 0.78473 0.81896 0.36385 0.0
C559 C 0.79941 0.82352 0.35253 0.0
C560 C 0.80585 0.84331 0.35287 0.0
C561 C 0.79691 0.85816 0.36313 0.0
C562 C 0.77613 0.83436 0.37388 0.0
H563 H 0.80211 0.87313 0.36238 0.0
H564 H 0.7647 0.83027 0.38191 0.0
H565 H 0.72836 0.88149 0.39652 0.0
H566 H 0.77019 0.9226 0.3875 0.0
C567 C 0.79587 0.91068 0.36877 0.0
C568 C 0.78946 0.86761 0.42449 0.0
C569 C 0.75059 0.87433 0.33404 0.0
C570 C 0.73539 0.84479 0.39544 0.0
H571 H 0.8195 0.89372 0.42707 0.0
H572 H 0.82307 0.91782 0.39666 0.0
H573 H 0.79275 0.92447 0.32986 0.0
H574 H 0.76822 0.9039 0.31077 0.0
H575 H 0.72094 0.84708 0.33195 0.0
H576 H 0.71221 0.83145 0.36562 0.0
H577 H 0.73898 0.82998 0.43374 0.0
H578 H 0.76901 0.8418 0.44938 0.0
H579 H 0.70755 0.9086 0.39609 0.0
H580 H 0.75018 0.95011 0.38605 0.0
H581 H 0.77961 0.80369 0.36457 0.0
H582 H 0.81719 0.84766 0.34445 0.0
C583 C 0.11814 0.74839 0.41818 0.0
C584 C 0.10663 0.76458 0.41694 0.0
C585 C 0.09967 0.7642 0.3985 0.0
C586 C 0.10732 0.74781 0.38959 0.0
N587 N 0.1185 0.73799 0.40141 0.0
Co588 Co 0.1335 0.71471 0.39472 0.0
N589 N 0.13195 0.72101 0.36691 0.0
C590 C 0.11961 0.73265 0.35837 0.0
C591 C 0.12224 0.73457 0.33885 0.0
C592 C 0.13702 0.7233 0.33497 0.0
C593 C 0.14254 0.71494 0.3524 0.0
N594 N 0.14852 0.69135 0.38833 0.0
C595 C 0.1577 0.68764 0.37207 0.0
C596 C 0.1662 0.66907 0.3733 0.0
C597 C 0.16208 0.66104 0.391 0.0
C598 C 0.15128 0.67503 0.39956 0.0
N599 N 0.13487 0.70849 0.42253 0.0
C600 C 0.13896 0.69055 0.43048 0.0
C601 C 0.13969 0.69147 0.45031 0.0
C602 C 0.13588 0.71121 0.45495 0.0
C603 C 0.13295 0.72122 0.43761 0.0
N604 N 0.11255 0.69759 0.39197 0.0
C605 C 0.08124 0.67672 0.38397 0.0
C606 C 0.0962 0.67373 0.37269 0.0
C607 C 0.11157 0.68438 0.3768 0.0
C608 C 0.08245 0.68976 0.39991 0.0
C609 C 0.09835 0.69981 0.40386 0.0
N610 N 0.15434 0.73188 0.39689 0.0
C611 C 0.18517 0.73611 0.40409 0.0
C612 C 0.18497 0.75515 0.39524 0.0
C613 C 0.16904 0.76263 0.38802 0.0
C614 C 0.15397 0.75072 0.38879 0.0
C615 C 0.1696 0.72483 0.40507 0.0
H616 H 0.14216 0.75652 0.38215 0.0
H617 H 0.17001 0.71013 0.41181 0.0
H618 H 0.12245 0.68247 0.36709 0.0
H619 H 0.09899 0.70992 0.41609 0.0
C620 C 0.10797 0.74432 0.36957 0.0
C621 C 0.1282 0.7426 0.43543 0.0
C622 C 0.15711 0.7004 0.3547 0.0
C623 C 0.14605 0.6751 0.41899 0.0
H624 H 0.10382 0.77558 0.42807 0.0
H625 H 0.09103 0.77535 0.39202 0.0
H626 H 0.11481 0.74377 0.32876 0.0
H627 H 0.14299 0.72152 0.32094 0.0
H628 H 0.17431 0.66193 0.36247 0.0
H629 H 0.16687 0.647 0.39711 0.0
H630 H 0.14369 0.67961 0.46018 0.0
H631 H 0.13564 0.71744 0.46937 0.0
H632 H 0.09577 0.664 0.36011 0.0
H633 H 0.07115 0.69237 0.40904 0.0
H634 H 0.1973 0.72988 0.40986 0.0
H635 H 0.16841 0.77717 0.38085 0.0
C636 C 0.20256 0.88271 0.59233 0.0
C637 C 0.187 0.89296 0.58852 0.0
C638 C 0.18387 0.90495 0.6042 0.0
C639 C 0.19766 0.90132 0.61663 0.0
N640 N 0.20962 0.8881 0.60962 0.0
Co641 Co 0.23071 0.87682 0.62353 0.0
N642 N 0.22413 0.89086 0.64809 0.0
C643 C 0.211 0.90443 0.6505 0.0
C644 C 0.20957 0.91125 0.66914 0.0
C645 C 0.22244 0.9013 0.67923 0.0
C646 C 0.23097 0.8889 0.66613 0.0
N647 N 0.25145 0.86489 0.63752 0.0
C648 C 0.25544 0.86495 0.65662 0.0
C649 C 0.27026 0.85327 0.66057 0.0
C650 C 0.27585 0.84569 0.64336 0.0
C651 C 0.26412 0.85294 0.62996 0.0
N652 N 0.23733 0.86294 0.5989 0.0
C653 C 0.25214 0.85222 0.5955 0.0
C654 C 0.25259 0.84366 0.57748 0.0
C655 C 0.237 0.84893 0.56898 0.0
C656 C 0.22791 0.8605 0.58236 0.0
N657 N 0.24522 0.90088 0.6163 0.0
C658 C 0.26731 0.93518 0.61661 0.0
C659 C 0.27416 0.91596 0.61309 0.0
C660 C 0.26293 0.89917 0.61279 0.0
C661 C 0.24907 0.93718 0.61773 0.0
C662 C 0.23836 0.92004 0.61721 0.0
N663 N 0.21653 0.85322 0.6313 0.0
C664 C 0.21472 0.81773 0.63913 0.0
C665 C 0.19888 0.82087 0.64888 0.0
C666 C 0.1915 0.84021 0.64854 0.0
C667 C 0.20044 0.85601 0.63967 0.0
C668 C 0.22319 0.83401 0.63027 0.0
H669 H 0.19444 0.87057 0.64042 0.0
H670 H 0.23538 0.83095 0.62319 0.0
H671 H 0.26904 0.88496 0.61042 0.0
H672 H 0.22466 0.92279 0.61824 0.0
C673 C 0.199 0.90861 0.63558 0.0
C674 C 0.20988 0.86753 0.57939 0.0
C675 C 0.24531 0.87532 0.67151 0.0
C676 C 0.26396 0.84775 0.61042 0.0
H677 H 0.17858 0.89151 0.57591 0.0
H678 H 0.17254 0.91453 0.60659 0.0
H679 H 0.1999 0.92163 0.67485 0.0
H680 H 0.22505 0.9027 0.69457 0.0
H681 H 0.27625 0.85012 0.67446 0.0
H682 H 0.28683 0.83556 0.641 0.0
H683 H 0.26257 0.83374 0.57165 0.0
H684 H 0.23257 0.84403 0.55486 0.0
H685 H 0.28822 0.91368 0.61163 0.0
H686 H 0.24307 0.95191 0.61958 0.0
H687 H 0.2207 0.80287 0.63861 0.0
H688 H 0.17926 0.84341 0.65587 0.0
C689 C 0.10985 0.25685 0.59778 0.0
C690 C 0.10159 0.23944 0.6041 0.0
C691 C 0.0975 0.24265 0.62325 0.0
C692 C 0.10348 0.26183 0.62749 0.0
N693 N 0.1109 0.27067 0.61211 0.0
Co694 Co 0.12304 0.297 0.61161 0.0
N695 N 0.12702 0.29642 0.63975 0.0
C696 C 0.11776 0.28542 0.65252 0.0
C697 C 0.1232 0.2887 0.67123 0.0
C698 C 0.13656 0.30268 0.67003 0.0
C699 C 0.1386 0.30711 0.65055 0.0
N700 N 0.13544 0.32322 0.61075 0.0
C701 C 0.1467 0.3314 0.62378 0.0
C702 C 0.15287 0.34994 0.61728 0.0
C703 C 0.14481 0.35351 0.59978 0.0
C704 C 0.13429 0.33696 0.59645 0.0
N705 N 0.11873 0.29749 0.58352 0.0
C706 C 0.1188 0.31384 0.57202 0.0
C707 C 0.11639 0.30884 0.55289 0.0
C708 C 0.11487 0.2881 0.5525 0.0
C709 C 0.11641 0.28164 0.57149 0.0
N710 N 0.10066 0.31109 0.61615 0.0
C711 C 0.06853 0.32746 0.62879 0.0
C712 C 0.08468 0.33555 0.6349 0.0
C713 C 0.10043 0.32709 0.62866 0.0
C714 C 0.06889 0.31185 0.61498 0.0
C715 C 0.0851 0.30404 0.6087 0.0
N716 N 0.14531 0.28292 0.60767 0.0
C717 C 0.17295 0.27877 0.59131 0.0
C718 C 0.17702 0.26206 0.60298 0.0
C719 C 0.16493 0.25616 0.61705 0.0
C720 C 0.14926 0.26673 0.61916 0.0
C721 C 0.15696 0.28897 0.59384 0.0
H722 H 0.14033 0.26177 0.63018 0.0
H723 H 0.154 0.30174 0.58469 0.0
H724 H 0.11243 0.33303 0.63475 0.0
H725 H 0.08503 0.2917 0.59848 0.0
C726 C 0.10652 0.26979 0.64609 0.0
C727 C 0.11593 0.26058 0.57805 0.0
C728 C 0.15057 0.32258 0.64286 0.0
C729 C 0.12579 0.33215 0.57893 0.0
H730 H 0.09905 0.22586 0.59582 0.0
H731 H 0.09195 0.23178 0.63317 0.0
H732 H 0.1185 0.2813 0.68415 0.0
H733 H 0.14386 0.309 0.68208 0.0
H734 H 0.16215 0.35991 0.62439 0.0
H735 H 0.14695 0.36625 0.59027 0.0
H736 H 0.11704 0.31884 0.54054 0.0
H737 H 0.11331 0.27885 0.53973 0.0
H738 H 0.08527 0.34808 0.64495 0.0
H739 H 0.05682 0.3051 0.60967 0.0
H740 H 0.18197 0.28382 0.58027 0.0
H741 H 0.16767 0.24362 0.62668 0.0
C742 C 0.74935 0.10755 0.62541 0.0
C743 C 0.7334 0.10954 0.61576 0.0
C744 C 0.73234 0.12943 0.60981 0.0
C745 C 0.74769 0.13843 0.61614 0.0
N746 N 0.75811 0.12529 0.6256 0.0
Co747 Co 0.78066 0.13148 0.63831 0.0
N748 N 0.77454 0.16022 0.64058 0.0
C749 C 0.76318 0.17022 0.62908 0.0
C750 C 0.76321 0.19064 0.63275 0.0
C751 C 0.77533 0.19339 0.64744 0.0
C752 C 0.78168 0.17435 0.65232 0.0
N753 N 0.80338 0.1375 0.65082 0.0
C754 C 0.80817 0.15408 0.66096 0.0
C755 C 0.82645 0.15491 0.66243 0.0
C756 C 0.83287 0.13734 0.65445 0.0
C757 C 0.81833 0.12722 0.64764 0.0
N758 N 0.78671 0.10275 0.63596 0.0
C759 C 0.80304 0.09497 0.63578 0.0
C760 C 0.80281 0.0742 0.63479 0.0
C761 C 0.78525 0.06886 0.63428 0.0
C762 C 0.77572 0.08674 0.63488 0.0
N763 N 0.79126 0.13714 0.61303 0.0
C764 C 0.8042 0.14868 0.57673 0.0
C765 C 0.80812 0.15991 0.59332 0.0
C766 C 0.80156 0.15398 0.61113 0.0
C767 C 0.79426 0.1309 0.57884 0.0
C768 C 0.78789 0.1254 0.59715 0.0
N769 N 0.77012 0.12648 0.66344 0.0
C770 C 0.77252 0.11529 0.69643 0.0
C771 C 0.75594 0.12351 0.70037 0.0
C772 C 0.74643 0.13269 0.68541 0.0
C773 C 0.75381 0.13421 0.66716 0.0
C774 C 0.77928 0.11665 0.6777 0.0
H775 H 0.74653 0.14225 0.65619 0.0
H776 H 0.79211 0.11033 0.67485 0.0
H777 H 0.80456 0.16347 0.62333 0.0
H778 H 0.77989 0.11197 0.59842 0.0
C779 C 0.75103 0.1594 0.61748 0.0
C780 C 0.75645 0.08871 0.63356 0.0
C781 C 0.79551 0.1699 0.66684 0.0
C782 C 0.81765 0.10733 0.6403 0.0
H783 H 0.72358 0.09791 0.61344 0.0
H784 H 0.72126 0.13666 0.60273 0.0
H785 H 0.7551 0.20211 0.62596 0.0
H786 H 0.7791 0.20773 0.65373 0.0
H787 H 0.83448 0.16722 0.66775 0.0
H788 H 0.8465 0.13264 0.65363 0.0
H789 H 0.814 0.06407 0.63535 0.0
H790 H 0.78017 0.05361 0.63361 0.0
H791 H 0.81612 0.17344 0.59257 0.0
H792 H 0.79097 0.12169 0.5664 0.0
H793 H 0.78022 0.10814 0.70774 0.0
H794 H 0.73369 0.1395 0.68803 0.0
C795 C 0.88568 0.75158 0.58388 0.0
C796 C 0.89639 0.76848 0.585 0.0
C797 C 0.90303 0.76896 0.60358 0.0
C798 C 0.89601 0.75233 0.61271 0.0
N799 N 0.88549 0.74158 0.60087 0.0
Co800 Co 0.87154 0.71757 0.6078 0.0
N801 N 0.87224 0.72468 0.63547 0.0
C802 C 0.88395 0.73711 0.64403 0.0
C803 C 0.8811 0.73893 0.66354 0.0
C804 C 0.86683 0.72678 0.66736 0.0
C805 C 0.86175 0.71819 0.6499 0.0
N806 N 0.85769 0.69337 0.6145 0.0
C807 C 0.84837 0.68953 0.63062 0.0
C808 C 0.84067 0.6705 0.62965 0.0
C809 C 0.84552 0.66226 0.61225 0.0
C810 C 0.85588 0.67664 0.60361 0.0
N811 N 0.8709 0.71061 0.58013 0.0
C812 C 0.86777 0.69226 0.57252 0.0
C813 C 0.86728 0.69267 0.55267 0.0
C814 C 0.87022 0.71251 0.54765 0.0
C815 C 0.87244 0.72309 0.56479 0.0
N816 N 0.89328 0.70197 0.61134 0.0
C817 C 0.92581 0.68471 0.62105 0.0
C818 C 0.91101 0.68144 0.63251 0.0
C819 C 0.89495 0.69005 0.62739 0.0
C820 C 0.92376 0.69565 0.60383 0.0
C821 C 0.90732 0.70422 0.59923 0.0
N822 N 0.8499 0.73326 0.6049 0.0
C823 C 0.8188 0.73487 0.59818 0.0
C824 C 0.81802 0.75405 0.60665 0.0
C825 C 0.83353 0.76304 0.61327 0.0
C826 C 0.84926 0.75234 0.61247 0.0
C827 C 0.83502 0.72485 0.59709 0.0
H828 H 0.86076 0.75921 0.61883 0.0
H829 H 0.8354 0.70998 0.59072 0.0
H830 H 0.88406 0.68777 0.63702 0.0
H831 H 0.90612 0.71335 0.58635 0.0
C832 C 0.89522 0.74923 0.63281 0.0
C833 C 0.87622 0.74478 0.56655 0.0
C834 C 0.84786 0.70289 0.64754 0.0
C835 C 0.86132 0.67663 0.58424 0.0
H836 H 0.89889 0.77938 0.57369 0.0
H837 H 0.91103 0.78076 0.60998 0.0
H838 H 0.8881 0.7485 0.67368 0.0
H839 H 0.86092 0.72442 0.68136 0.0
H840 H 0.83252 0.66329 0.6404 0.0
H841 H 0.84139 0.64787 0.60633 0.0
H842 H 0.864 0.68035 0.54301 0.0
H843 H 0.87038 0.71839 0.53309 0.0
H844 H 0.91196 0.67273 0.64574 0.0
H845 H 0.93491 0.69838 0.59451 0.0
H846 H 0.80696 0.72751 0.59295 0.0
H847 H 0.83331 0.77779 0.62008 0.0
C848 C 0.39004 0.24966 0.09688 0.0
C849 C 0.40055 0.26625 0.10088 0.0
C850 C 0.40655 0.26379 0.11957 0.0
C851 C 0.39935 0.24587 0.12585 0.0
N852 N 0.38935 0.23707 0.11217 0.0
Co853 Co 0.37533 0.21216 0.11485 0.0
N854 N 0.37513 0.21467 0.14325 0.0
C855 C 0.38647 0.22567 0.15399 0.0
C856 C 0.38278 0.2247 0.17336 0.0
C857 C 0.36838 0.21222 0.17479 0.0
C858 C 0.36413 0.20608 0.15614 0.0
N859 N 0.36119 0.1873 0.11732 0.0
C860 C 0.35131 0.18097 0.1323 0.0
C861 C 0.34369 0.16234 0.12824 0.0
C862 C 0.34912 0.15698 0.11005 0.0
C863 C 0.35976 0.17253 0.10404 0.0
N864 N 0.37582 0.20965 0.0865 0.0
C865 C 0.37306 0.19272 0.0762 0.0
C866 C 0.37334 0.19628 0.05664 0.0
C867 C 0.37639 0.21669 0.0547 0.0
C868 C 0.3779 0.22443 0.07327 0.0
N869 N 0.39697 0.19621 0.11692 0.0
C870 C 0.42942 0.17807 0.12514 0.0
C871 C 0.41418 0.17195 0.13473 0.0
C872 C 0.39816 0.18126 0.13051 0.0
C873 C 0.42789 0.19251 0.11041 0.0
C874 C 0.41147 0.20117 0.1063 0.0
N875 N 0.35383 0.2282 0.11313 0.0
C876 C 0.32466 0.23396 0.1005 0.0
C877 C 0.32326 0.25173 0.11144 0.0
C878 C 0.33749 0.25735 0.12322 0.0
C879 C 0.35255 0.24544 0.12386 0.0
C880 C 0.34011 0.22245 0.10148 0.0
H881 H 0.36318 0.25019 0.13318 0.0
H882 H 0.34096 0.20886 0.09292 0.0
H883 H 0.38693 0.17708 0.13905 0.0
H884 H 0.41065 0.2126 0.09519 0.0
C885 C 0.39797 0.23953 0.14516 0.0
C886 C 0.38129 0.24562 0.07839 0.0
C887 C 0.35035 0.1913 0.15104 0.0
C888 C 0.36605 0.1755 0.0852 0.0
H889 H 0.40335 0.27883 0.09138 0.0
H890 H 0.41425 0.27446 0.12794 0.0
H891 H 0.38922 0.23284 0.18498 0.0
H892 H 0.36179 0.20824 0.18805 0.0
H893 H 0.33529 0.15345 0.13752 0.0
H894 H 0.34527 0.14368 0.10195 0.0
H895 H 0.37042 0.18566 0.04517 0.0
H896 H 0.37703 0.22478 0.04118 0.0
H897 H 0.41482 0.16097 0.14633 0.0
H898 H 0.43938 0.19751 0.10255 0.0
H899 H 0.31394 0.22896 0.0913 0.0
H900 H 0.33688 0.27065 0.13232 0.0
C901 C 0.38233 0.75323 0.89327 0.0
C902 C 0.3935 0.73679 0.89142 0.0
C903 C 0.40013 0.73761 0.87293 0.0
C904 C 0.39261 0.75442 0.86453 0.0
N905 N 0.3818 0.76407 0.87673 0.0
Co906 Co 0.36684 0.78761 0.87063 0.0
N907 N 0.36767 0.78187 0.84271 0.0
C908 C 0.37991 0.77063 0.83373 0.0
C909 C 0.37688 0.76942 0.81415 0.0
C910 C 0.36191 0.78069 0.81078 0.0
C911 C 0.35663 0.78818 0.82855 0.0
N912 N 0.35186 0.81118 0.86484 0.0
C913 C 0.34208 0.81498 0.8489 0.0
C914 C 0.33353 0.83345 0.85053 0.0
C915 C 0.33828 0.84136 0.86819 0.0
C916 C 0.34945 0.82734 0.87633 0.0
N917 N 0.36611 0.79336 0.89848 0.0
C918 C 0.36244 0.81118 0.90683 0.0
C919 C 0.36224 0.8098 0.92667 0.0
C920 C 0.36594 0.78986 0.93082 0.0
C921 C 0.36816 0.78026 0.91322 0.0
N922 N 0.38789 0.80453 0.86801 0.0
C923 C 0.41973 0.82464 0.86049 0.0
C924 C 0.40497 0.82722 0.84844 0.0
C925 C 0.38926 0.81724 0.85252 0.0
C926 C 0.41782 0.81247 0.87699 0.0
C927 C 0.40182 0.80257 0.88049 0.0
N928 N 0.34599 0.77054 0.87284 0.0
C929 C 0.31649 0.7644 0.88395 0.0
C930 C 0.31633 0.74551 0.8747 0.0
C931 C 0.33138 0.73952 0.86463 0.0
C932 C 0.34596 0.75214 0.86392 0.0
C933 C 0.33149 0.77669 0.88287 0.0
H934 H 0.3572 0.74704 0.85588 0.0
H935 H 0.33138 0.79118 0.89004 0.0
H936 H 0.37841 0.81917 0.84258 0.0
H937 H 0.40088 0.79281 0.89294 0.0
C938 C 0.39166 0.75854 0.84457 0.0
C939 C 0.37247 0.75887 0.91065 0.0
C940 C 0.34182 0.80211 0.83163 0.0
C941 C 0.35517 0.82694 0.89571 0.0
H942 H 0.39631 0.72525 0.90205 0.0
H943 H 0.40843 0.72645 0.86606 0.0
H944 H 0.38416 0.76067 0.80369 0.0
H945 H 0.35563 0.78308 0.7969 0.0
H946 H 0.32486 0.8405 0.84005 0.0
H947 H 0.33355 0.85524 0.8746 0.0
H948 H 0.35868 0.82149 0.93686 0.0
H949 H 0.36663 0.78308 0.94503 0.0
H950 H 0.40567 0.83618 0.83539 0.0
H951 H 0.42867 0.81029 0.887 0.0
H952 H 0.30519 0.76963 0.89197 0.0
H953 H 0.3318 0.72535 0.85682 0.0
C954 C 0.24027 0.39106 0.88059 0.0
C955 C 0.22449 0.38481 0.88861 0.0
C956 C 0.2263 0.36449 0.89249 0.0
C957 C 0.24299 0.35944 0.88657 0.0
N958 N 0.25164 0.37541 0.87931 0.0
Co959 Co 0.27522 0.3751 0.86755 0.0
N960 N 0.27385 0.34577 0.86247 0.0
C961 C 0.26281 0.33267 0.87103 0.0
C962 C 0.26404 0.3136 0.86333 0.0
C963 C 0.27668 0.31489 0.84925 0.0
C964 C 0.28275 0.3347 0.84932 0.0
N965 N 0.29884 0.37506 0.85601 0.0
C966 C 0.30615 0.36135 0.84408 0.0
C967 C 0.32344 0.3666 0.83997 0.0
C968 C 0.32683 0.38435 0.84964 0.0
C969 C 0.31153 0.38889 0.85919 0.0
N970 N 0.27658 0.4043 0.8726 0.0
C971 C 0.29128 0.4155 0.87402 0.0
C972 C 0.28761 0.43565 0.87693 0.0
C973 C 0.2695 0.43698 0.87729 0.0
C974 C 0.26321 0.41753 0.87455 0.0
N975 N 0.28578 0.36941 0.89286 0.0
C976 C 0.2986 0.35747 0.92914 0.0
C977 C 0.30472 0.34836 0.91224 0.0
C978 C 0.29825 0.35457 0.89434 0.0
C979 C 0.28649 0.37341 0.92748 0.0
C980 C 0.28017 0.3791 0.90917 0.0
N981 N 0.26465 0.38028 0.84224 0.0
C982 C 0.26547 0.39561 0.81071 0.0
C983 C 0.25143 0.38339 0.80471 0.0
C984 C 0.24364 0.37038 0.81798 0.0
C985 C 0.25036 0.36912 0.83665 0.0
C986 C 0.27193 0.39381 0.82966 0.0
H987 H 0.24432 0.35853 0.84637 0.0
H988 H 0.2831 0.40287 0.83399 0.0
H989 H 0.30304 0.3469 0.88169 0.0
H990 H 0.27042 0.39094 0.90822 0.0
C991 C 0.24907 0.33976 0.88278 0.0
C992 C 0.24463 0.4117 0.87442 0.0
C993 C 0.29743 0.34266 0.83765 0.0
C994 C 0.30752 0.40737 0.86823 0.0
H995 H 0.21279 0.39371 0.89104 0.0
H996 H 0.21618 0.35437 0.89766 0.0
H997 H 0.25594 0.30061 0.86664 0.0
H998 H 0.28059 0.30264 0.8399 0.0
H999 H 0.33267 0.35842 0.83105 0.0
H1000 H 0.33878 0.39324 0.84913 0.0
H1001 H 0.29688 0.44806 0.87756 0.0
H1002 H 0.2618 0.45061 0.87912 0.0
H1003 H 0.31435 0.33628 0.91284 0.0
H1004 H 0.28149 0.38089 0.94022 0.0
H1005 H 0.27175 0.40588 0.8007 0.0
H1006 H 0.23269 0.36081 0.81376 0.0
C1007 C 0.61266 0.26077 0.90542 0.0
C1008 C 0.60258 0.2774 0.90035 0.0
C1009 C 0.59797 0.2748 0.88121 0.0
C1010 C 0.60549 0.25675 0.87574 0.0
N1011 N 0.61439 0.24801 0.89035 0.0
Co1012 Co 0.62861 0.22311 0.88909 0.0
N1013 N 0.63101 0.22545 0.86082 0.0
C1014 C 0.62042 0.23626 0.84903 0.0
C1015 C 0.62527 0.23476 0.83 0.0
C1016 C 0.63963 0.2221 0.82992 0.0
C1017 C 0.64274 0.2165 0.84898 0.0
N1018 N 0.64304 0.1983 0.88813 0.0
C1019 C 0.65401 0.19182 0.87414 0.0
C1020 C 0.66147 0.17335 0.87913 0.0
C1021 C 0.65474 0.16818 0.89683 0.0
C1022 C 0.64357 0.18369 0.90165 0.0
N1023 N 0.62587 0.22076 0.91728 0.0
C1024 C 0.62784 0.2039 0.92789 0.0
C1025 C 0.62601 0.20756 0.94732 0.0
C1026 C 0.6228 0.22796 0.94886 0.0
C1027 C 0.62277 0.23562 0.93019 0.0
N1028 N 0.60723 0.20706 0.88498 0.0
C1029 C 0.57557 0.18975 0.87208 0.0
C1030 C 0.59182 0.18289 0.86521 0.0
C1031 C 0.60737 0.19185 0.87162 0.0
C1032 C 0.57567 0.20412 0.88704 0.0
C1033 C 0.59168 0.21237 0.89347 0.0
N1034 N 0.64984 0.23928 0.89272 0.0
C1035 C 0.67779 0.24565 0.90815 0.0
C1036 C 0.67959 0.26359 0.89758 0.0
C1037 C 0.66639 0.26883 0.88433 0.0
C1038 C 0.65174 0.25651 0.88208 0.0
C1039 C 0.66268 0.23377 0.90564 0.0
H1040 H 0.64188 0.26102 0.87171 0.0
H1041 H 0.66136 0.22014 0.91407 0.0
H1042 H 0.61942 0.18719 0.86483 0.0
H1043 H 0.5914 0.22391 0.90449 0.0
C1044 C 0.6083 0.25022 0.85668 0.0
C1045 C 0.61997 0.25683 0.92468 0.0
C1046 C 0.65604 0.20169 0.85528 0.0
C1047 C 0.63572 0.18671 0.91974 0.0
H1048 H 0.59917 0.29009 0.90945 0.0
H1049 H 0.59099 0.28546 0.8721 0.0
H1050 H 0.61952 0.24254 0.81774 0.0
H1051 H 0.6469 0.2175 0.81728 0.0
H1052 H 0.67058 0.16441 0.87074 0.0
H1053 H 0.65803 0.155 0.90538 0.0
H1054 H 0.62806 0.19701 0.95907 0.0
H1055 H 0.62114 0.2361 0.96224 0.0
H1056 H 0.59257 0.17126 0.85424 0.0
H1057 H 0.56351 0.20981 0.893 0.0
H1058 H 0.68789 0.24091 0.91828 0.0
H1059 H 0.6675 0.28228 0.87548 0.0
C1060 C 0.75781 0.61228 0.88367 0.0
C1061 C 0.77368 0.61605 0.893 0.0
C1062 C 0.77307 0.63586 0.89913 0.0
C1063 C 0.75694 0.64311 0.89315 0.0
N1064 N 0.7475 0.62897 0.88379 0.0
Co1065 Co 0.72446 0.63299 0.87091 0.0
N1066 N 0.72792 0.66249 0.86914 0.0
C1067 C 0.73968 0.67335 0.87944 0.0
C1068 C 0.74014 0.69321 0.87374 0.0
C1069 C 0.72783 0.69485 0.85917 0.0
C1070 C 0.72018 0.67589 0.85697 0.0
N1071 N 0.70135 0.63652 0.85821 0.0
C1072 C 0.69516 0.65229 0.8478 0.0
C1073 C 0.67766 0.64911 0.8426 0.0
C1074 C 0.67297 0.6306 0.84993 0.0
C1075 C 0.68772 0.62356 0.85932 0.0
N1076 N 0.72108 0.60357 0.87259 0.0
C1077 C 0.70566 0.59364 0.87208 0.0
C1078 C 0.7079 0.573 0.87279 0.0
C1079 C 0.72583 0.56998 0.87371 0.0
C1080 C 0.73347 0.58899 0.87349 0.0
N1081 N 0.71323 0.63679 0.89616 0.0
C1082 C 0.69882 0.6457 0.93243 0.0
C1083 C 0.69352 0.6563 0.91595 0.0
C1084 C 0.70097 0.65182 0.89813 0.0
C1085 C 0.71131 0.6302 0.9304 0.0
C1086 C 0.71815 0.62576 0.91204 0.0
N1087 N 0.73571 0.62996 0.84573 0.0
C1088 C 0.73457 0.62062 0.81211 0.0
C1089 C 0.7505 0.63071 0.80891 0.0
C1090 C 0.75913 0.63973 0.82452 0.0
C1091 C 0.75146 0.6394 0.84267 0.0
C1092 C 0.72753 0.62009 0.83079 0.0
H1093 H 0.75805 0.64751 0.85407 0.0
H1094 H 0.71523 0.6123 0.83306 0.0
H1095 H 0.69706 0.661 0.886 0.0
H1096 H 0.7277 0.61375 0.91074 0.0
C1097 C 0.75243 0.66362 0.89104 0.0
C1098 C 0.7524 0.59301 0.87484 0.0
C1099 C 0.70505 0.67102 0.84415 0.0
C1100 C 0.69023 0.60386 0.86647 0.0
H1101 H 0.7847 0.60587 0.89479 0.0
H1102 H 0.78369 0.64435 0.90574 0.0
H1103 H 0.7491 0.70485 0.8787 0.0
H1104 H 0.72516 0.70844 0.85102 0.0
H1105 H 0.66909 0.65919 0.8346 0.0
H1106 H 0.66046 0.62296 0.84811 0.0
H1107 H 0.69782 0.5615 0.87156 0.0
H1108 H 0.73253 0.55554 0.87425 0.0
H1109 H 0.68408 0.66853 0.91693 0.0
H1110 H 0.71571 0.62163 0.94285 0.0
H1111 H 0.72757 0.61344 0.80028 0.0
H1112 H 0.77138 0.64786 0.82253 0.0
C1113 C 0.61992 0.75084 0.11093 0.0
C1114 C 0.60995 0.73369 0.1143 0.0
C1115 C 0.60389 0.73526 0.13299 0.0
C1116 C 0.61053 0.75323 0.13998 0.0
N1117 N 0.62022 0.76289 0.12671 0.0
Co1118 Co 0.63387 0.78793 0.13063 0.0
N1119 N 0.63444 0.78411 0.15886 0.0
C1120 C 0.62335 0.77247 0.16909 0.0
C1121 C 0.62731 0.77264 0.18849 0.0
C1122 C 0.64164 0.78525 0.19043 0.0
C1123 C 0.6456 0.79219 0.17203 0.0
N1124 N 0.64764 0.81291 0.13415 0.0
C1125 C 0.65781 0.81854 0.14928 0.0
C1126 C 0.66515 0.83745 0.14604 0.0
C1127 C 0.65924 0.8437 0.12819 0.0
C1128 C 0.64862 0.82835 0.12155 0.0
N1129 N 0.63312 0.79173 0.10248 0.0
C1130 C 0.63534 0.80916 0.09285 0.0
C1131 C 0.63499 0.80636 0.07313 0.0
C1132 C 0.63252 0.78591 0.07043 0.0
C1133 C 0.63151 0.77746 0.08869 0.0
N1134 N 0.61196 0.80346 0.13354 0.0
C1135 C 0.57962 0.82113 0.14355 0.0
C1136 C 0.59521 0.82647 0.15313 0.0
C1137 C 0.61109 0.81754 0.14797 0.0
C1138 C 0.58077 0.80778 0.12781 0.0
C1139 C 0.59711 0.79913 0.123 0.0
N1140 N 0.65567 0.77245 0.12853 0.0
C1141 C 0.68607 0.76976 0.11918 0.0
C1142 C 0.68812 0.75285 0.13115 0.0
C1143 C 0.67345 0.74525 0.14076 0.0
C1144 C 0.65737 0.75514 0.13914 0.0
C1145 C 0.66966 0.77944 0.11811 0.0
H1146 H 0.64648 0.74919 0.14721 0.0
H1147 H 0.66841 0.79296 0.10948 0.0
H1148 H 0.62254 0.82138 0.15645 0.0
H1149 H 0.59763 0.78829 0.11134 0.0
C1150 C 0.612 0.75875 0.15959 0.0
C1151 C 0.62885 0.75598 0.09282 0.0
C1152 C 0.65935 0.80711 0.1674 0.0
C1153 C 0.64211 0.82617 0.10257 0.0
H1154 H 0.60759 0.72122 0.10451 0.0
H1155 H 0.59663 0.72394 0.14092 0.0
H1156 H 0.62113 0.76389 0.19977 0.0
H1157 H 0.64839 0.78879 0.20381 0.0
H1158 H 0.67372 0.84591 0.15563 0.0
H1159 H 0.66284 0.85743 0.12068 0.0
H1160 H 0.63751 0.81753 0.06207 0.0
H1161 H 0.63189 0.77807 0.05672 0.0
H1162 H 0.5951 0.83711 0.16503 0.0
H1163 H 0.56907 0.80332 0.11988 0.0
H1164 H 0.69719 0.77594 0.11145 0.0
H1165 H 0.67451 0.73202 0.14992 0.0
C1166 C 0.24555 0.6141 0.11723 0.0
C1167 C 0.2302 0.61931 0.10748 0.0
C1168 C 0.23208 0.63923 0.102 0.0
C1169 C 0.24838 0.64509 0.10875 0.0
N1170 N 0.25672 0.62999 0.11803 0.0
Co1171 Co 0.27959 0.63181 0.13165 0.0
N1172 N 0.27755 0.66135 0.13417 0.0
C1173 C 0.2674 0.67346 0.12315 0.0
C1174 C 0.26904 0.69347 0.12823 0.0
C1175 C 0.28099 0.69378 0.14328 0.0
C1176 C 0.28592 0.67386 0.1466 0.0
N1177 N 0.30244 0.63339 0.14532 0.0
C1178 C 0.30856 0.64804 0.1572 0.0
C1179 C 0.32495 0.64274 0.16467 0.0
C1180 C 0.32923 0.62435 0.15673 0.0
C1181 C 0.31522 0.6193 0.14504 0.0
N1182 N 0.28155 0.60231 0.12897 0.0
C1183 C 0.2964 0.5913 0.12988 0.0
C1184 C 0.2931 0.5709 0.12825 0.0
C1185 C 0.2751 0.5692 0.12632 0.0
C1186 C 0.26847 0.5887 0.12691 0.0
N1187 N 0.2916 0.63564 0.10692 0.0
C1188 C 0.30632 0.64536 0.07108 0.0
C1189 C 0.31232 0.65464 0.08803 0.0
C1190 C 0.30474 0.64973 0.10569 0.0
C1191 C 0.29318 0.63055 0.07249 0.0
C1192 C 0.28619 0.62566 0.09061 0.0
N1193 N 0.2676 0.62851 0.15629 0.0
C1194 C 0.26677 0.61584 0.18886 0.0
C1195 C 0.25159 0.62723 0.19243 0.0
C1196 C 0.24437 0.6388 0.17746 0.0
C1197 C 0.25262 0.63936 0.15961 0.0
C1198 C 0.27445 0.61647 0.17054 0.0
H1199 H 0.24709 0.64905 0.14865 0.0
H1200 H 0.28615 0.60763 0.16802 0.0
H1201 H 0.30913 0.65793 0.11826 0.0
H1202 H 0.27604 0.61427 0.09138 0.0
C1203 C 0.25429 0.66514 0.11102 0.0
C1204 C 0.24982 0.59412 0.12529 0.0
C1205 C 0.29941 0.66734 0.16062 0.0
C1206 C 0.31199 0.6001 0.13699 0.0
H1207 H 0.21877 0.60996 0.10487 0.0
H1208 H 0.22221 0.64863 0.0951 0.0
H1209 H 0.26189 0.70622 0.12231 0.0
H1210 H 0.28557 0.70711 0.15086 0.0
H1211 H 0.33296 0.65108 0.17487 0.0
H1212 H 0.34074 0.61528 0.15995 0.0
H1213 H 0.30248 0.55865 0.12965 0.0
H1214 H 0.26766 0.5553 0.12501 0.0
H1215 H 0.32232 0.66631 0.08755 0.0
H1216 H 0.28827 0.62295 0.05968 0.0
H1217 H 0.27269 0.6067 0.20015 0.0
H1218 H 0.2328 0.64806 0.17976 0.0
C1219 C 0.76214 0.40558 0.11754 0.0
C1220 C 0.77689 0.40089 0.10678 0.0
C1221 C 0.7757 0.38057 0.10251 0.0
C1222 C 0.76032 0.37407 0.1109 0.0
N1223 N 0.75192 0.38914 0.12004 0.0
Co1224 Co 0.73006 0.38694 0.13496 0.0
N1225 N 0.73358 0.35771 0.13881 0.0
C1226 C 0.74372 0.34554 0.128 0.0
C1227 C 0.74352 0.32589 0.13448 0.0
C1228 C 0.73253 0.32587 0.15022 0.0
C1229 C 0.72666 0.34559 0.15249 0.0
N1230 N 0.70806 0.38481 0.14976 0.0
C1231 C 0.70322 0.37045 0.16252 0.0
C1232 C 0.68679 0.37483 0.17015 0.0
C1233 C 0.68124 0.39249 0.16157 0.0
C1234 C 0.69455 0.39795 0.14927 0.0
N1235 N 0.72668 0.41617 0.13107 0.0
C1236 C 0.71141 0.42633 0.13237 0.0
C1237 C 0.71367 0.44679 0.12999 0.0
C1238 C 0.73143 0.44948 0.12709 0.0
C1239 C 0.73904 0.43041 0.12777 0.0
N1240 N 0.71693 0.38121 0.11113 0.0
C1241 C 0.70109 0.36895 0.07639 0.0
C1242 C 0.6971 0.35932 0.09381 0.0
C1243 C 0.70507 0.36567 0.11093 0.0
C1244 C 0.71248 0.38564 0.07688 0.0
C1245 C 0.72029 0.39152 0.09442 0.0
N1246 N 0.74315 0.39219 0.15878 0.0
C1247 C 0.7443 0.4055 0.19111 0.0
C1248 C 0.75969 0.39445 0.19485 0.0
C1249 C 0.76712 0.3832 0.17988 0.0
C1250 C 0.75863 0.38219 0.16204 0.0
C1251 C 0.73634 0.40436 0.17285 0.0
H1252 H 0.76424 0.37259 0.15112 0.0
H1253 H 0.7243 0.41263 0.17034 0.0
H1254 H 0.70202 0.3575 0.12396 0.0
H1255 H 0.72948 0.40398 0.09439 0.0
C1256 C 0.75561 0.35384 0.11461 0.0
C1257 C 0.75779 0.42567 0.12503 0.0
C1258 C 0.71364 0.35224 0.16674 0.0
C1259 C 0.69655 0.41693 0.14039 0.0
H1260 H 0.78744 0.41101 0.10276 0.0
H1261 H 0.78546 0.37144 0.09526 0.0
H1262 H 0.75104 0.31326 0.12899 0.0
H1263 H 0.7292 0.31289 0.15898 0.0
H1264 H 0.67961 0.36629 0.18085 0.0
H1265 H 0.66935 0.40085 0.16472 0.0
H1266 H 0.70383 0.45851 0.13149 0.0
H1267 H 0.73783 0.46388 0.12509 0.0
H1268 H 0.68805 0.34666 0.09419 0.0
H1269 H 0.71588 0.39357 0.06373 0.0
H1270 H 0.73826 0.41451 0.20232 0.0
H1271 H 0.77892 0.3743 0.18223 0.0
H1272 H 0.24567 0.58106 0.16194 0.0
H1273 H 0.22554 0.55501 0.17379 0.0
H1274 H 0.20339 0.54885 0.1165 0.0
H1275 H 0.22411 0.57431 0.10453 0.0
H1276 H 0.19162 0.55056 0.17675 0.0
H1277 H 0.19204 0.49962 0.10863 0.0
H1278 H 0.21152 0.49185 0.08122 0.0
H1279 H 0.25666 0.50889 0.11517 0.0
H1280 H 0.23749 0.51643 0.14285 0.0
H1281 H 0.12901 0.47314 0.19288 0.0
H1282 H 0.14519 0.50029 0.1765 0.0
H1283 H 0.19215 0.46351 0.17722 0.0
H1284 H 0.17581 0.43625 0.19301 0.0
H1285 H 0.19076 0.48353 0.14461 0.0
H1286 H 0.18455 0.49984 0.21147 0.0
H1287 H 0.16848 0.50593 0.24174 0.0
H1288 H 0.14103 0.55563 0.21534 0.0
H1289 H 0.15673 0.5496 0.18478 0.0
C1290 C 0.23636 0.57424 0.15196 0.0
C1291 C 0.23622 0.57988 0.13242 0.0
C1292 C 0.22482 0.55941 0.15873 0.0
C1293 C 0.21297 0.5498 0.14605 0.0
C1294 C 0.2125 0.55586 0.12656 0.0
C1295 C 0.22416 0.57062 0.11976 0.0
C1296 C 0.20172 0.53291 0.15314 0.0
C1297 C 0.19134 0.53597 0.16961 0.0
C1298 C 0.20161 0.51364 0.14417 0.0
C1299 C 0.21329 0.50881 0.12772 0.0
C1300 C 0.20613 0.50163 0.11026 0.0
C1301 C 0.21712 0.49727 0.09468 0.0
C1302 C 0.23531 0.49994 0.09643 0.0
C1303 C 0.24257 0.50689 0.11381 0.0
C1304 C 0.23164 0.51121 0.12944 0.0
C1305 C 0.14266 0.47075 0.18904 0.0
C1306 C 0.15117 0.45261 0.19394 0.0
C1307 C 0.15195 0.4863 0.17988 0.0
C1308 C 0.16999 0.48408 0.1758 0.0
C1309 C 0.17827 0.46562 0.18013 0.0
C1310 C 0.16896 0.45007 0.18916 0.0
C1311 C 0.18053 0.50127 0.16809 0.0
C1312 C 0.19082 0.49824 0.15155 0.0
C1313 C 0.18103 0.52035 0.17739 0.0
C1314 C 0.17167 0.52413 0.19578 0.0
C1315 C 0.17499 0.51197 0.21208 0.0
C1316 C 0.16596 0.51542 0.22929 0.0
C1317 C 0.15371 0.53113 0.23045 0.0
C1318 C 0.1505 0.54345 0.21441 0.0
C1319 C 0.15946 0.54002 0.19713 0.0
H1320 H 0.14673 0.53379 0.24379 0.0
H1321 H 0.24379 0.49659 0.08435 0.0
H1322 H 0.56316 0.17184 0.23088 0.0
H1323 H 0.53736 0.17437 0.21028 0.0
H1324 H 0.54124 0.1109 0.19666 0.0
H1325 H 0.56811 0.10851 0.21642 0.0
H1326 H 0.53304 0.13091 0.16519 0.0
H1327 H 0.50946 0.12928 0.22819 0.0
H1328 H 0.50623 0.13806 0.26259 0.0
H1329 H 0.49333 0.19918 0.24715 0.0
H1330 H 0.49673 0.19085 0.21266 0.0
H1331 H 0.44028 0.1393 0.13248 0.0
H1332 H 0.46731 0.12885 0.1495 0.0
H1333 H 0.48424 0.19098 0.15206 0.0
H1334 H 0.45751 0.20146 0.13479 0.0
H1335 H 0.48015 0.16656 0.18951 0.0
H1336 H 0.50649 0.16633 0.1255 0.0
H1337 H 0.50842 0.15508 0.09163 0.0
H1338 H 0.51384 0.09351 0.11038 0.0
H1339 H 0.51168 0.10439 0.14438 0.0
C1340 C 0.55879 0.15841 0.22332 0.0
C1341 C 0.56793 0.13999 0.22522 0.0
C1342 C 0.54377 0.15982 0.21174 0.0
C1343 C 0.5371 0.14276 0.20215 0.0
C1344 C 0.54608 0.12427 0.204 0.0
C1345 C 0.56135 0.12288 0.21545 0.0
C1346 C 0.52091 0.14463 0.19004 0.0
C1347 C 0.52137 0.13837 0.17064 0.0
C1348 C 0.50559 0.15434 0.19707 0.0
C1349 C 0.50346 0.15945 0.21782 0.0
C1350 C 0.50605 0.14463 0.23213 0.0
C1351 C 0.50417 0.14952 0.25165 0.0
C1352 C 0.4996 0.16917 0.25705 0.0
C1353 C 0.49687 0.18396 0.24294 0.0
C1354 C 0.49875 0.17915 0.2234 0.0
C1355 C 0.44999 0.15063 0.13629 0.0
C1356 C 0.44686 0.17117 0.13227 0.0
C1357 C 0.46538 0.14466 0.14598 0.0
C1358 C 0.47769 0.15918 0.15201 0.0
C1359 C 0.47489 0.17958 0.14742 0.0
C1360 C 0.45969 0.18551 0.13745 0.0
C1361 C 0.49264 0.15349 0.16469 0.0
C1362 C 0.49181 0.15893 0.18421 0.0
C1363 C 0.50737 0.14265 0.15788 0.0
C1364 C 0.50868 0.13615 0.13746 0.0
C1365 C 0.50789 0.15037 0.12239 0.0
C1366 C 0.50908 0.14407 0.10317 0.0
C1367 C 0.51119 0.12358 0.09885 0.0
C1368 C 0.51217 0.10937 0.11375 0.0
C1369 C 0.51097 0.1156 0.13299 0.0
H1370 H 0.51211 0.11873 0.08396 0.0
H1371 H 0.49816 0.17293 0.27218 0.0
H1372 H 0.78263 0.4167 0.15197 0.0
H1373 H 0.80502 0.43906 0.16582 0.0
H1374 H 0.78703 0.48743 0.12875 0.0
H1375 H 0.76573 0.46446 0.11373 0.0
H1376 H 0.82051 0.48993 0.13184 0.0
H1377 H 0.77418 0.48095 0.17816 0.0
H1378 H 0.7544 0.4609 0.19877 0.0
H1379 H 0.79894 0.43722 0.22987 0.0
H1380 H 0.81903 0.45673 0.20913 0.0
H1381 H 0.85083 0.57351 0.18836 0.0
H1382 H 0.83317 0.54815 0.171 0.0
H1383 H 0.85864 0.50071 0.2036 0.0
H1384 H 0.87642 0.5261 0.22078 0.0
H1385 H 0.82251 0.49683 0.20317 0.0
H1386 H 0.86859 0.50736 0.15717 0.0
H1387 H 0.8879 0.52766 0.13627 0.0
H1388 H 0.84282 0.54966 0.10495 0.0
H1389 H 0.8232 0.52972 0.12586 0.0
C1390 C 0.78359 0.43206 0.1467 0.0
C1391 C 0.77195 0.43914 0.13238 0.0
C1392 C 0.79629 0.4449 0.15473 0.0
C1393 C 0.79734 0.46522 0.14888 0.0
C1394 C 0.7863 0.47196 0.13381 0.0
C1395 C 0.77386 0.45896 0.12549 0.0
C1396 C 0.80957 0.47958 0.15873 0.0
C1397 C 0.82077 0.49158 0.14743 0.0
C1398 C 0.81024 0.48151 0.17913 0.0
C1399 C 0.79813 0.47018 0.19196 0.0
C1400 C 0.77977 0.47139 0.18933 0.0
C1401 C 0.7685 0.46009 0.20102 0.0
C1402 C 0.77541 0.44777 0.2156 0.0
C1403 C 0.79361 0.44675 0.21855 0.0
C1404 C 0.80494 0.45791 0.20682 0.0
C1405 C 0.85275 0.55762 0.19158 0.0
C1406 C 0.86475 0.55165 0.20597 0.0
C1407 C 0.8427 0.54317 0.18171 0.0
C1408 C 0.84457 0.52252 0.18603 0.0
C1409 C 0.8569 0.51655 0.20013 0.0
C1410 C 0.86702 0.53101 0.20992 0.0
C1411 C 0.83328 0.50722 0.17625 0.0
C1412 C 0.82225 0.49509 0.18759 0.0
C1413 C 0.83263 0.50531 0.15591 0.0
C1414 C 0.84441 0.51718 0.1432 0.0
C1415 C 0.86278 0.51664 0.14592 0.0
C1416 C 0.87379 0.52807 0.13406 0.0
C1417 C 0.86659 0.53998 0.11932 0.0
C1418 C 0.84838 0.54044 0.11638 0.0
C1419 C 0.83731 0.52907 0.12823 0.0
H1420 H 0.87514 0.54881 0.11015 0.0
H1421 H 0.76667 0.43903 0.22462 0.0
H1422 H 0.56929 0.8233 0.18108 0.0
H1423 H 0.54206 0.83692 0.19408 0.0
H1424 H 0.52329 0.84929 0.13635 0.0
H1425 H 0.55098 0.83591 0.12312 0.0
H1426 H 0.51704 0.88129 0.16135 0.0
H1427 H 0.50645 0.81028 0.16071 0.0
H1428 H 0.51292 0.7743 0.1667 0.0
H1429 H 0.51495 0.78547 0.22777 0.0
H1430 H 0.50874 0.8216 0.22213 0.0
H1431 H 0.42804 0.89681 0.19558 0.0
H1432 H 0.45496 0.88699 0.17841 0.0
H1433 H 0.47937 0.87083 0.23271 0.0
H1434 H 0.45246 0.88064 0.24976 0.0
H1435 H 0.48146 0.84046 0.20677 0.0
H1436 H 0.49333 0.91175 0.20723 0.0
H1437 H 0.48703 0.94777 0.20121 0.0
H1438 H 0.48233 0.936 0.1404 0.0
H1439 H 0.48836 0.89982 0.1461 0.0
C1440 C 0.55945 0.82901 0.17108 0.0
C1441 C 0.56241 0.82863 0.15102 0.0
C1442 C 0.54379 0.83666 0.17856 0.0
C1443 C 0.53052 0.84403 0.16623 0.0
C1444 C 0.53333 0.84368 0.14616 0.0
C1445 C 0.54908 0.83589 0.13861 0.0
C1446 C 0.51386 0.85208 0.17458 0.0
C1447 C 0.50906 0.87226 0.171 0.0
C1448 C 0.50361 0.84045 0.18749 0.0
C1449 C 0.50726 0.8187 0.19097 0.0
C1450 C 0.5084 0.8051 0.17541 0.0
C1451 C 0.512 0.78467 0.17874 0.0
C1452 C 0.51438 0.77761 0.1976 0.0
C1453 C 0.51312 0.79097 0.21317 0.0
C1454 C 0.50954 0.81142 0.20991 0.0
C1455 C 0.4394 0.89178 0.20382 0.0
C1456 C 0.43839 0.88984 0.22398 0.0
C1457 C 0.45474 0.88608 0.19403 0.0
C1458 C 0.46926 0.87818 0.20425 0.0
C1459 C 0.46838 0.87688 0.22449 0.0
C1460 C 0.4531 0.88267 0.23426 0.0
C1461 C 0.4848 0.86981 0.19386 0.0
C1462 C 0.48936 0.84949 0.19703 0.0
C1463 C 0.49476 0.88131 0.18057 0.0
C1464 C 0.49109 0.90303 0.17712 0.0
C1465 C 0.49078 0.9168 0.19259 0.0
C1466 C 0.4873 0.93725 0.18924 0.0
C1467 C 0.48423 0.94416 0.17044 0.0
C1468 C 0.48468 0.93062 0.15496 0.0
C1469 C 0.48814 0.91014 0.15824 0.0
H1470 H 0.48154 0.96 0.16787 0.0
H1471 H 0.51716 0.76179 0.20015 0.0
H1472 H 0.21713 0.42893 0.89398 0.0
H1473 H 0.19511 0.45263 0.88119 0.0
H1474 H 0.2212 0.45205 0.82598 0.0
H1475 H 0.24259 0.42755 0.83851 0.0
H1476 H 0.19756 0.48938 0.86829 0.0
H1477 H 0.19195 0.46042 0.78941 0.0
H1478 H 0.19498 0.42853 0.77135 0.0
H1479 H 0.18229 0.39477 0.82235 0.0
H1480 H 0.17873 0.42649 0.84062 0.0
H1481 H 0.1639 0.56287 0.80332 0.0
H1482 H 0.18085 0.53672 0.82031 0.0
H1483 H 0.13593 0.49684 0.81784 0.0
H1484 H 0.11903 0.52306 0.80059 0.0
H1485 H 0.16547 0.47778 0.80663 0.0
H1486 H 0.14831 0.51825 0.86042 0.0
H1487 H 0.14452 0.54983 0.87884 0.0
H1488 H 0.2005 0.55895 0.87946 0.0
H1489 H 0.20461 0.52756 0.8608 0.0
C1490 C 0.21781 0.43347 0.87898 0.0
C1491 C 0.23115 0.42599 0.86702 0.0
C1492 C 0.2054 0.44721 0.87175 0.0
C1493 C 0.20625 0.45386 0.85249 0.0
C1494 C 0.21994 0.44678 0.84072 0.0
C1495 C 0.23221 0.4329 0.8479 0.0
C1496 C 0.19309 0.46856 0.84482 0.0
C1497 C 0.1905 0.48677 0.85485 0.0
C1498 C 0.18364 0.4651 0.8274 0.0
C1499 C 0.18523 0.44588 0.81644 0.0
C1500 C 0.18968 0.44621 0.79675 0.0
C1501 C 0.1915 0.42815 0.78647 0.0
C1502 C 0.18892 0.40962 0.79571 0.0
C1503 C 0.18435 0.40913 0.81522 0.0
C1504 C 0.18241 0.42716 0.82555 0.0
C1505 C 0.15761 0.54862 0.80676 0.0
C1506 C 0.14016 0.54495 0.80102 0.0
C1507 C 0.16726 0.53371 0.81643 0.0
C1508 C 0.15962 0.51487 0.82053 0.0
C1509 C 0.14207 0.51128 0.81491 0.0
C1510 C 0.13239 0.52625 0.80523 0.0
C1511 C 0.17026 0.49869 0.8299 0.0
C1512 C 0.17241 0.48025 0.82017 0.0
C1513 C 0.17916 0.50183 0.84768 0.0
C1514 C 0.17676 0.52061 0.85909 0.0
C1515 C 0.15981 0.52705 0.86438 0.0
C1516 C 0.1576 0.54491 0.87488 0.0
C1517 C 0.17226 0.55641 0.88029 0.0
C1518 C 0.18916 0.55003 0.87525 0.0
C1519 C 0.19144 0.53219 0.86474 0.0
H1520 H 0.17052 0.57024 0.88841 0.0
H1521 H 0.19042 0.39566 0.78774 0.0
H1522 H 0.54271 0.18329 0.88811 0.0
H1523 H 0.51539 0.17422 0.87116 0.0
H1524 H 0.54356 0.17179 0.8173 0.0
H1525 H 0.57035 0.18206 0.8337 0.0
H1526 H 0.5148 0.19106 0.81181 0.0
H1527 H 0.52998 0.12836 0.84373 0.0
H1528 H 0.53674 0.10657 0.87172 0.0
H1529 H 0.48625 0.12013 0.89608 0.0
H1530 H 0.47928 0.14221 0.86833 0.0
H1531 H 0.46101 0.13511 0.74941 0.0
H1532 H 0.48455 0.14248 0.77254 0.0
H1533 H 0.4461 0.15565 0.81628 0.0
H1534 H 0.42234 0.14887 0.79304 0.0
H1535 H 0.47707 0.13283 0.8296 0.0
H1536 H 0.46167 0.19373 0.79542 0.0
H1537 H 0.45532 0.21394 0.76627 0.0
H1538 H 0.5074 0.20225 0.74522 0.0
H1539 H 0.51395 0.18168 0.77411 0.0
C1540 C 0.54306 0.18093 0.87264 0.0
C1541 C 0.55889 0.18322 0.86238 0.0
C1542 C 0.52744 0.17552 0.86299 0.0
C1543 C 0.52741 0.17208 0.84294 0.0
C1544 C 0.54319 0.1743 0.83276 0.0
C1545 C 0.55865 0.17991 0.84229 0.0
C1546 C 0.51101 0.16678 0.83215 0.0
C1547 C 0.50668 0.17821 0.81568 0.0
C1548 C 0.50003 0.15038 0.83741 0.0
C1549 C 0.5042 0.13712 0.85408 0.0
C1550 C 0.52038 0.12682 0.85513 0.0
C1551 C 0.52424 0.1144 0.87094 0.0
C1552 C 0.51196 0.11202 0.8857 0.0
C1553 C 0.49577 0.12202 0.88466 0.0
C1554 C 0.49185 0.13448 0.86889 0.0
C1555 C 0.4575 0.13954 0.76394 0.0
C1556 C 0.43974 0.1417 0.76925 0.0
C1557 C 0.47099 0.1436 0.77718 0.0
C1558 C 0.46704 0.14981 0.79604 0.0
C1559 C 0.44939 0.15085 0.80179 0.0
C1560 C 0.43584 0.14691 0.78848 0.0
C1561 C 0.48139 0.15672 0.80908 0.0
C1562 C 0.4852 0.14573 0.82593 0.0
C1563 C 0.49206 0.17341 0.80412 0.0
C1564 C 0.48825 0.18603 0.78686 0.0
C1565 C 0.47172 0.19535 0.78451 0.0
C1566 C 0.46809 0.20688 0.76804 0.0
C1567 C 0.48094 0.20935 0.75388 0.0
C1568 C 0.49745 0.20032 0.75619 0.0
C1569 C 0.50114 0.18874 0.77262 0.0
H1570 H 0.4781 0.21828 0.74114 0.0
H1571 H 0.51496 0.10239 0.89792 0.0
H1572 H 0.77699 0.5706 0.89484 0.0
H1573 H 0.79704 0.54493 0.88182 0.0
H1574 H 0.77517 0.5545 0.82486 0.0
H1575 H 0.75568 0.58066 0.83778 0.0
H1576 H 0.79131 0.50989 0.86532 0.0
H1577 H 0.8052 0.54552 0.7905 0.0
H1578 H 0.80771 0.57935 0.77576 0.0
H1579 H 0.82229 0.6045 0.83075 0.0
H1580 H 0.82007 0.5708 0.84577 0.0
H1581 H 0.82278 0.43623 0.79972 0.0
H1582 H 0.80698 0.46355 0.81602 0.0
H1583 H 0.85492 0.49845 0.81885 0.0
H1584 H 0.87057 0.47134 0.80181 0.0
H1585 H 0.8287 0.52189 0.80796 0.0
H1586 H 0.83736 0.47475 0.85956 0.0
H1587 H 0.83638 0.44126 0.87516 0.0
H1588 H 0.78007 0.4403 0.86935 0.0
H1589 H 0.78072 0.47369 0.85348 0.0
C1590 C 0.77684 0.56756 0.87947 0.0
C1591 C 0.76518 0.57798 0.86719 0.0
C1592 C 0.78812 0.5527 0.87207 0.0
C1593 C 0.78789 0.54792 0.85226 0.0
C1594 C 0.77597 0.55817 0.84008 0.0
C1595 C 0.76478 0.57305 0.84747 0.0
C1596 C 0.79973 0.5319 0.84439 0.0
C1597 C 0.79952 0.51257 0.85282 0.0
C1598 C 0.81071 0.53534 0.82823 0.0
C1599 C 0.81235 0.55563 0.81927 0.0
C1600 C 0.80904 0.55825 0.79942 0.0
C1601 C 0.81039 0.5774 0.79102 0.0
C1602 C 0.81516 0.59405 0.80231 0.0
C1603 C 0.81858 0.59159 0.82203 0.0
C1604 C 0.81725 0.57247 0.83049 0.0
C1605 C 0.82996 0.44965 0.80408 0.0
C1606 C 0.84798 0.45147 0.80001 0.0
C1607 C 0.82095 0.46525 0.81343 0.0
C1608 C 0.82978 0.48301 0.81903 0.0
C1609 C 0.84782 0.48487 0.81486 0.0
C1610 C 0.85683 0.46926 0.80539 0.0
C1611 C 0.82002 0.4998 0.82868 0.0
C1612 C 0.82058 0.51925 0.82055 0.0
C1613 C 0.80958 0.49656 0.8453 0.0
C1614 C 0.8091 0.47667 0.85522 0.0
C1615 C 0.82477 0.46736 0.86153 0.0
C1616 C 0.82428 0.4484 0.87043 0.0
C1617 C 0.80818 0.43864 0.87321 0.0
C1618 C 0.79253 0.44788 0.86718 0.0
C1619 C 0.79295 0.46683 0.85826 0.0
H1620 H 0.80782 0.42395 0.88007 0.0
H1621 H 0.81622 0.60886 0.79578 0.0
H1622 H 0.54608 0.90757 0.76731 0.0
H1623 H 0.51992 0.89759 0.78564 0.0
H1624 H 0.55151 0.85639 0.81944 0.0
H1625 H 0.57772 0.86644 0.80133 0.0
H1626 H 0.52024 0.83913 0.803 0.0
H1627 H 0.5382 0.89677 0.84064 0.0
H1628 H 0.54673 0.93237 0.84559 0.0
H1629 H 0.4967 0.95185 0.8231 0.0
H1630 H 0.48797 0.91635 0.81775 0.0
H1631 H 0.45291 0.8087 0.86597 0.0
H1632 H 0.48085 0.82187 0.85428 0.0
H1633 H 0.45398 0.87334 0.8297 0.0
H1634 H 0.42618 0.86108 0.84258 0.0
H1635 H 0.4839 0.88547 0.84254 0.0
H1636 H 0.46604 0.82999 0.80252 0.0
H1637 H 0.45669 0.79511 0.7952 0.0
H1638 H 0.50519 0.77232 0.81885 0.0
H1639 H 0.51473 0.80708 0.82656 0.0
C1640 C 0.54745 0.89652 0.77878 0.0
C1641 C 0.56396 0.88784 0.78294 0.0
C1642 C 0.53253 0.89089 0.78927 0.0
C1643 C 0.53378 0.87628 0.80394 0.0
C1644 C 0.55026 0.86772 0.80822 0.0
C1645 C 0.56523 0.87358 0.79796 0.0
C1646 C 0.51778 0.8693 0.81424 0.0
C1647 C 0.51243 0.84915 0.81191 0.0
C1648 C 0.50731 0.88256 0.82534 0.0
C1649 C 0.5125 0.90391 0.82862 0.0
C1650 C 0.52908 0.90865 0.83659 0.0
C1651 C 0.53394 0.92881 0.8395 0.0
C1652 C 0.52228 0.94436 0.83461 0.0
C1653 C 0.50573 0.93978 0.82685 0.0
C1654 C 0.50081 0.91965 0.8239 0.0
C1655 C 0.45293 0.82308 0.85851 0.0
C1656 C 0.4371 0.83363 0.85506 0.0
C1657 C 0.46896 0.83047 0.85155 0.0
C1658 C 0.46955 0.84835 0.84059 0.0
C1659 C 0.45393 0.8594 0.83791 0.0
C1660 C 0.43795 0.8522 0.84512 0.0
C1661 C 0.48623 0.85519 0.83133 0.0
C1662 C 0.49172 0.87534 0.83376 0.0
C1663 C 0.49667 0.84202 0.81998 0.0
C1664 C 0.49101 0.82111 0.81531 0.0
C1665 C 0.47465 0.81753 0.80628 0.0
C1666 C 0.46933 0.79779 0.80205 0.0
C1667 C 0.48032 0.78151 0.80661 0.0
C1668 C 0.49668 0.78495 0.81536 0.0
C1669 C 0.50206 0.80466 0.81966 0.0
H1670 H 0.47618 0.76623 0.80332 0.0
H1671 H 0.52607 0.95996 0.83688 0.0
H1672 H 0.10007 0.24351 0.54647 0.0
H1673 H 0.11283 0.21891 0.52398 0.0
H1674 H 0.15995 0.21621 0.55909 0.0
H1675 H 0.14714 0.24091 0.58145 0.0
H1676 H 0.16784 0.22124 0.52146 0.0
H1677 H 0.1314 0.17659 0.55769 0.0
H1678 H 0.10395 0.16474 0.57275 0.0
H1679 H 0.07898 0.16147 0.517 0.0
H1680 H 0.10621 0.1736 0.50162 0.0
H1681 H 0.2055 0.14496 0.46246 0.0
H1682 H 0.19333 0.1611 0.49135 0.0
H1683 H 0.14312 0.16736 0.46248 0.0
H1684 H 0.15503 0.15081 0.43389 0.0
H1685 H 0.13825 0.15834 0.49963 0.0
H1686 H 0.17316 0.20616 0.46392 0.0
H1687 H 0.20014 0.21878 0.44841 0.0
H1688 H 0.22745 0.21681 0.50288 0.0
H1689 H 0.20062 0.20393 0.51867 0.0
C1690 C 0.11305 0.23742 0.54944 0.0
C1691 C 0.12267 0.24404 0.56561 0.0
C1692 C 0.12033 0.22334 0.53665 0.0
C1693 C 0.13735 0.21557 0.53985 0.0
C1694 C 0.14681 0.22194 0.55628 0.0
C1695 C 0.13948 0.23595 0.5691 0.0
C1696 C 0.14556 0.20161 0.52554 0.0
C1697 C 0.16153 0.20728 0.51698 0.0
C1698 C 0.13719 0.18358 0.51933 0.0
C1699 C 0.12082 0.17616 0.52851 0.0
C1700 C 0.12002 0.17349 0.54865 0.0
C1701 C 0.1045 0.1667 0.55724 0.0
C1702 C 0.08972 0.1624 0.54584 0.0
C1703 C 0.09044 0.16483 0.52582 0.0
C1704 C 0.10592 0.17164 0.51715 0.0
C1705 C 0.19176 0.14934 0.46244 0.0
C1706 C 0.1813 0.14677 0.44576 0.0
C1707 C 0.18485 0.15876 0.47891 0.0
C1708 C 0.16737 0.16583 0.47902 0.0
C1709 C 0.15666 0.16218 0.46278 0.0
C1710 C 0.16354 0.15282 0.44637 0.0
C1711 C 0.16043 0.17808 0.49542 0.0
C1712 C 0.14467 0.17215 0.50432 0.0
C1713 C 0.16893 0.19595 0.50188 0.0
C1714 C 0.18499 0.20383 0.49243 0.0
C1715 C 0.18496 0.20827 0.47256 0.0
C1716 C 0.20021 0.2155 0.46372 0.0
C1717 C 0.21552 0.21853 0.47465 0.0
C1718 C 0.21559 0.2144 0.49444 0.0
C1719 C 0.20038 0.20715 0.50334 0.0
H1720 H 0.22732 0.22412 0.46778 0.0
H1721 H 0.07772 0.15714 0.55252 0.0
H1722 H 0.80332 0.1874 0.56338 0.0
H1723 H 0.81617 0.20085 0.534 0.0
H1724 H 0.83131 0.14069 0.51673 0.0
H1725 H 0.81894 0.12711 0.5468 0.0
H1726 H 0.85782 0.1655 0.51142 0.0
H1727 H 0.79779 0.16664 0.493 0.0
H1728 H 0.76595 0.17313 0.49589 0.0
H1729 H 0.77577 0.23694 0.49939 0.0
H1730 H 0.8077 0.23083 0.49681 0.0
H1731 H 0.85888 0.23383 0.41722 0.0
H1732 H 0.8441 0.20992 0.43872 0.0
H1733 H 0.88193 0.22365 0.48367 0.0
H1734 H 0.89709 0.24683 0.46181 0.0
H1735 H 0.82727 0.216 0.47017 0.0
H1736 H 0.88716 0.18522 0.51456 0.0
H1737 H 0.91822 0.17612 0.5091 0.0
H1738 H 0.90723 0.16641 0.4489 0.0
H1739 H 0.87606 0.17515 0.45403 0.0
C1740 C 0.80936 0.17696 0.55336 0.0
C1741 C 0.81026 0.15617 0.55757 0.0
C1742 C 0.81654 0.18468 0.53639 0.0
C1743 C 0.82459 0.17182 0.52296 0.0
C1744 C 0.82514 0.15094 0.52684 0.0
C1745 C 0.81794 0.14316 0.54394 0.0
C1746 C 0.83321 0.18057 0.50555 0.0
C1747 C 0.8511 0.17643 0.50231 0.0
C1748 C 0.82439 0.19445 0.49326 0.0
C1749 C 0.80517 0.19825 0.49482 0.0
C1750 C 0.79318 0.18205 0.49452 0.0
C1751 C 0.77511 0.18566 0.49609 0.0
C1752 C 0.76884 0.20543 0.49785 0.0
C1753 C 0.78064 0.22163 0.49802 0.0
C1754 C 0.79873 0.2181 0.49648 0.0
C1755 C 0.8641 0.23154 0.43162 0.0
C1756 C 0.87882 0.24254 0.43804 0.0
C1757 C 0.85563 0.21792 0.44394 0.0
C1758 C 0.86185 0.21488 0.4629 0.0
C1759 C 0.87693 0.22548 0.46909 0.0
C1760 C 0.88544 0.23899 0.45671 0.0
C1761 C 0.85206 0.20156 0.47654 0.0
C1762 C 0.83396 0.20488 0.47909 0.0
C1763 C 0.86058 0.18655 0.48784 0.0
C1764 C 0.87928 0.181 0.48468 0.0
C1765 C 0.89134 0.18103 0.50018 0.0
C1766 C 0.90898 0.17596 0.49713 0.0
C1767 C 0.91471 0.17074 0.47866 0.0
C1768 C 0.9028 0.17052 0.46319 0.0
C1769 C 0.88514 0.17556 0.46616 0.0
H1770 H 0.92837 0.16683 0.47633 0.0
H1771 H 0.75485 0.2082 0.49906 0.0
H1772 H 0.81797 0.84389 0.41792 0.0
H1773 H 0.83594 0.82571 0.44188 0.0
H1774 H 0.8058 0.85278 0.48776 0.0
H1775 H 0.78833 0.87151 0.46376 0.0
H1776 H 0.83908 0.84935 0.49878 0.0
H1777 H 0.79625 0.80534 0.46989 0.0
H1778 H 0.78079 0.78869 0.44281 0.0
H1779 H 0.82895 0.75997 0.42573 0.0
H1780 H 0.84478 0.77676 0.45253 0.0
H1781 H 0.8515 0.7738 0.57148 0.0
H1782 H 0.83942 0.79709 0.54717 0.0
H1783 H 0.87452 0.7722 0.50457 0.0
H1784 H 0.88679 0.74915 0.52901 0.0
H1785 H 0.84012 0.77475 0.49139 0.0
H1786 H 0.8823 0.81803 0.52263 0.0
H1787 H 0.89653 0.83461 0.55054 0.0
H1788 H 0.84791 0.86417 0.56446 0.0
H1789 H 0.8333 0.84752 0.53679 0.0
C1790 C 0.81547 0.84618 0.43316 0.0
C1791 C 0.80167 0.85876 0.4391 0.0
C1792 C 0.82562 0.83572 0.44682 0.0
C1793 C 0.82195 0.83746 0.46665 0.0
C1794 C 0.80883 0.85105 0.47259 0.0
C1795 C 0.79881 0.86168 0.45891 0.0
C1796 C 0.83095 0.82422 0.48107 0.0
C1797 C 0.83918 0.83304 0.49723 0.0
C1798 C 0.83128 0.8029 0.479 0.0
C1799 C 0.82173 0.79246 0.4631 0.0
C1800 C 0.80357 0.79556 0.46029 0.0
C1801 C 0.79474 0.7861 0.44499 0.0
C1802 C 0.80389 0.77331 0.43253 0.0
C1803 C 0.82189 0.76991 0.43538 0.0
C1804 C 0.83079 0.77939 0.45063 0.0
C1805 C 0.8567 0.77349 0.55695 0.0
C1806 C 0.86982 0.75953 0.55196 0.0
C1807 C 0.84983 0.78677 0.54309 0.0
C1808 C 0.85606 0.78639 0.52402 0.0
C1809 C 0.86943 0.77266 0.51914 0.0
C1810 C 0.87637 0.75947 0.53305 0.0
C1811 C 0.84826 0.79989 0.50905 0.0
C1812 C 0.84016 0.79108 0.49283 0.0
C1813 C 0.84786 0.82117 0.51121 0.0
C1814 C 0.85667 0.83139 0.52772 0.0
C1815 C 0.8746 0.82796 0.53172 0.0
C1816 C 0.88275 0.83738 0.54749 0.0
C1817 C 0.87312 0.8504 0.55929 0.0
C1818 C 0.85534 0.85407 0.55532 0.0
C1819 C 0.84713 0.84465 0.53958 0.0
H1820 H 0.87945 0.85768 0.5715 0.0
H1821 H 0.79704 0.76601 0.42068 0.0
H1822 H 0.11845 0.74763 0.47313 0.0
H1823 H 0.13079 0.77152 0.49664 0.0
H1824 H 0.16358 0.79709 0.45217 0.0
H1825 H 0.15174 0.77253 0.42892 0.0
H1826 H 0.18245 0.79145 0.48322 0.0
H1827 H 0.12671 0.82209 0.47058 0.0
H1828 H 0.0944 0.82373 0.4672 0.0
H1829 H 0.08866 0.8082 0.52704 0.0
H1830 H 0.12094 0.80616 0.53072 0.0
H1831 H 0.21174 0.87384 0.5405 0.0
H1832 H 0.19579 0.85551 0.51494 0.0
H1833 H 0.16725 0.82223 0.55823 0.0
H1834 H 0.18328 0.84056 0.58375 0.0
H1835 H 0.14607 0.83353 0.52685 0.0
H1836 H 0.20241 0.80187 0.53841 0.0
H1837 H 0.23478 0.80137 0.54128 0.0
H1838 H 0.23928 0.82017 0.48216 0.0
H1839 H 0.20691 0.82115 0.47904 0.0
C1840 C 0.12836 0.7583 0.46848 0.0
C1841 C 0.13441 0.75808 0.44939 0.0
C1842 C 0.13526 0.77212 0.48183 0.0
C1843 C 0.14807 0.78627 0.4762 0.0
C1844 C 0.15376 0.78633 0.45692 0.0
C1845 C 0.14695 0.7724 0.44362 0.0
C1846 C 0.15604 0.80039 0.49058 0.0
C1847 C 0.17446 0.8009 0.4925 0.0
C1848 C 0.14568 0.8125 0.50301 0.0
C1849 C 0.12625 0.8138 0.50088 0.0
C1850 C 0.11856 0.81887 0.48299 0.0
C1851 C 0.10025 0.8199 0.48102 0.0
C1852 C 0.08948 0.81603 0.49688 0.0
C1853 C 0.09701 0.81117 0.51476 0.0
C1854 C 0.11532 0.8101 0.5168 0.0
C1855 C 0.20189 0.86278 0.54445 0.0
C1856 C 0.19879 0.85835 0.56396 0.0
C1857 C 0.19283 0.85231 0.52991 0.0
C1858 C 0.1805 0.8373 0.53469 0.0
C1859 C 0.17673 0.8337 0.55423 0.0
C1860 C 0.18586 0.84411 0.56876 0.0
C1861 C 0.17238 0.82449 0.51941 0.0
C1862 C 0.15398 0.82418 0.5174 0.0
C1863 C 0.18275 0.81268 0.50677 0.0
C1864 C 0.20223 0.8118 0.50856 0.0
C1865 C 0.2103 0.80605 0.52607 0.0
C1866 C 0.22865 0.80566 0.52773 0.0
C1867 C 0.23908 0.81078 0.51192 0.0
C1868 C 0.23118 0.81624 0.4944 0.0
C1869 C 0.21283 0.81671 0.49268 0.0
H1870 H 0.25329 0.81047 0.51325 0.0
H1871 H 0.07531 0.81683 0.49533 0.0
H1872 H 0.6635 0.93126 0.68333 0.0
H1873 H 0.6815 0.95649 0.6666 0.0
H1874 H 0.66259 0.00259 0.70544 0.0
H1875 H 0.64369 0.9776 0.72116 0.0
H1876 H 0.66559 0.01851 0.67226 0.0
H1877 H 0.7045 0.97615 0.71026 0.0
H1878 H 0.71765 0.94374 0.72046 0.0
H1879 H 0.73647 0.93368 0.66292 0.0
H1880 H 0.7232 0.96592 0.6523 0.0
H1881 H 0.73427 0.09053 0.66394 0.0
H1882 H 0.71423 0.06423 0.67568 0.0
H1883 H 0.73124 0.02449 0.63004 0.0
H1884 H 0.75127 0.05088 0.6183 0.0
H1885 H 0.72932 0.00456 0.6644 0.0
H1886 H 0.69185 0.04818 0.62719 0.0
H1887 H 0.67911 0.08095 0.61746 0.0
H1888 H 0.65803 0.08891 0.67435 0.0
H1889 H 0.6709 0.05632 0.68451 0.0
C1890 C 0.6631 0.94686 0.68808 0.0
C1891 C 0.65262 0.95245 0.70383 0.0
C1892 C 0.67351 0.96125 0.67867 0.0
C1893 C 0.67394 0.98143 0.68512 0.0
C1894 C 0.66274 0.98714 0.70027 0.0
C1895 C 0.65204 0.97284 0.70938 0.0
C1896 C 0.68623 0.99654 0.67646 0.0
C1897 C 0.67955 0.01547 0.67078 0.0
C1898 C 0.70446 0.99257 0.67397 0.0
C1899 C 0.71271 0.97336 0.68044 0.0
C1900 C 0.71137 0.96699 0.69976 0.0
C1901 C 0.71884 0.94864 0.70562 0.0
C1902 C 0.72785 0.93663 0.69233 0.0
C1903 C 0.72946 0.94298 0.67318 0.0
C1904 C 0.72198 0.9613 0.66724 0.0
C1905 C 0.73368 0.07615 0.65646 0.0
C1906 C 0.74443 0.07256 0.64041 0.0
C1907 C 0.72223 0.06116 0.66312 0.0
C1908 C 0.72113 0.04237 0.65369 0.0
C1909 C 0.73191 0.03879 0.63762 0.0
C1910 C 0.74338 0.05382 0.63096 0.0
C1911 C 0.70868 0.02653 0.66058 0.0
C1912 C 0.71534 0.0075 0.66587 0.0
C1913 C 0.69047 0.03043 0.66282 0.0
C1914 C 0.68245 0.04987 0.65665 0.0
C1915 C 0.68459 0.05697 0.63766 0.0
C1916 C 0.67734 0.07551 0.63206 0.0
C1917 C 0.66779 0.08702 0.64528 0.0
C1918 C 0.66544 0.07998 0.66412 0.0
C1919 C 0.67269 0.06147 0.6698 0.0
H1920 H 0.6622 0.10137 0.64093 0.0
H1921 H 0.73361 0.92243 0.69688 0.0
H1922 H 0.95048 0.66189 0.60194 0.0
H1923 H 0.97803 0.64797 0.61546 0.0
H1924 H 0.96773 0.678 0.66952 0.0
H1925 H 0.94043 0.69179 0.65617 0.0
H1926 H 0.00254 0.6811 0.65886 0.0
H1927 H 0.95739 0.62932 0.66398 0.0
H1928 H 0.93499 0.60601 0.65082 0.0
H1929 H 0.97418 0.57755 0.61561 0.0
H1930 H 0.99677 0.60091 0.62839 0.0
H1931 H 0.0478 0.63164 0.73287 0.0
H1932 H 0.02466 0.64433 0.71154 0.0
H1933 H 0.04365 0.60642 0.6655 0.0
H1934 H 0.06669 0.59313 0.68702 0.0
H1935 H 0.00752 0.60677 0.66696 0.0
H1936 H 0.05354 0.65522 0.66495 0.0
H1937 H 0.07621 0.67805 0.67821 0.0
H1938 H 0.0363 0.71286 0.7066 0.0
H1939 H 0.01337 0.68999 0.69379 0.0
C1940 C 0.95429 0.66568 0.6166 0.0
C1941 C 0.94329 0.67774 0.62808 0.0
C1942 C 0.96994 0.65767 0.62434 0.0
C1943 C 0.97486 0.66182 0.64357 0.0
C1944 C 0.96422 0.67458 0.65468 0.0
C1945 C 0.94858 0.68236 0.64707 0.0
C1946 C 0.99058 0.6523 0.65268 0.0
C1947 C 0.00362 0.66486 0.66067 0.0
C1948 C 0.99226 0.63107 0.65456 0.0
C1949 C 0.9787 0.61702 0.64694 0.0
C1950 C 0.96119 0.61821 0.65331 0.0
C1951 C 0.94847 0.60497 0.64594 0.0
C1952 C 0.95315 0.59035 0.63234 0.0
C1953 C 0.97057 0.58891 0.62612 0.0
C1954 C 0.98333 0.60214 0.63341 0.0
C1955 C 0.0469 0.62566 0.71834 0.0
C1956 C 0.05915 0.61134 0.71169 0.0
C1957 C 0.03377 0.63313 0.70607 0.0
C1958 C 0.03261 0.62659 0.68681 0.0
C1959 C 0.04439 0.61179 0.68026 0.0
C1960 C 0.0576 0.6043 0.69255 0.0
C1961 C 0.01923 0.63562 0.6736 0.0
C1962 C 0.00664 0.623 0.66486 0.0
C1963 C 0.01802 0.6568 0.67092 0.0
C1964 C 0.03173 0.67078 0.6785 0.0
C1965 C 0.0496 0.66765 0.67413 0.0
C1966 C 0.0625 0.68062 0.68155 0.0
C1967 C 0.05771 0.69689 0.69325 0.0
C1968 C 0.03999 0.70024 0.69753 0.0
C1969 C 0.02703 0.68729 0.69017 0.0
H1970 H 0.06773 0.70691 0.69898 0.0
H1971 H 0.94328 0.58011 0.62666 0.0
H1972 H 0.35641 0.09876 0.65545 0.0
H1973 H 0.3414 0.07156 0.63778 0.0
H1974 H 0.36 0.02842 0.68006 0.0
H1975 H 0.37597 0.05544 0.69686 0.0
H1976 H 0.35782 0.01022 0.64755 0.0
H1977 H 0.31887 0.05316 0.68333 0.0
H1978 H 0.30588 0.0859 0.69259 0.0
H1979 H 0.28653 0.09423 0.63471 0.0
H1980 H 0.29967 0.06165 0.62503 0.0
H1981 H 0.26426 0.96257 0.64564 0.0
H1982 H 0.28423 0.99005 0.65406 0.0
H1983 H 0.3168 0.97518 0.60522 0.0
H1984 H 0.29697 0.94714 0.59704 0.0
H1985 H 0.29391 0.02307 0.63862 0.0
H1986 H 0.35968 0.98626 0.61547 0.0
H1987 H 0.37261 0.95226 0.61167 0.0
H1988 H 0.33683 0.92866 0.6538 0.0
H1989 H 0.32386 0.96254 0.65803 0.0
C1990 C 0.3576 0.08336 0.66061 0.0
C1991 C 0.36687 0.07914 0.67774 0.0
C1992 C 0.34893 0.06786 0.65064 0.0
C1993 C 0.34904 0.04801 0.65794 0.0
C1994 C 0.35952 0.0436 0.67421 0.0
C1995 C 0.36853 0.05903 0.6839 0.0
C1996 C 0.33706 0.03227 0.64982 0.0
C1997 C 0.34387 0.01309 0.64544 0.0
C1998 C 0.31875 0.03577 0.64751 0.0
C1999 C 0.31039 0.05507 0.65341 0.0
C2000 C 0.31188 0.06201 0.67256 0.0
C2001 C 0.30451 0.08054 0.67788 0.0
C2002 C 0.29541 0.09215 0.66423 0.0
C2003 C 0.29361 0.08522 0.64525 0.0
C2004 C 0.30101 0.06672 0.63984 0.0
C2005 C 0.27556 0.96528 0.63654 0.0
C2006 C 0.27902 0.9527 0.62065 0.0
C2007 C 0.287 0.98102 0.64139 0.0
C2008 C 0.30215 0.98467 0.63041 0.0
C2009 C 0.30539 0.97248 0.61416 0.0
C2010 C 0.29404 0.95649 0.60945 0.0
C2011 C 0.31463 1.00092 0.63643 0.0
C2012 C 0.3079 0.02024 0.64043 0.0
C2013 C 0.33287 0.99727 0.63918 0.0
C2014 C 0.34066 0.97688 0.63686 0.0
C2015 C 0.35461 0.97381 0.62394 0.0
C2016 C 0.36194 0.95457 0.62172 0.0
C2017 C 0.3555 0.9383 0.63243 0.0
C2018 C 0.34176 0.94125 0.64545 0.0
C2019 C 0.3344 0.96047 0.64775 0.0
H2020 H 0.36118 0.92341 0.63068 0.0
H2021 H 0.28973 0.1065 0.66837 0.0
H2022 H 0.06329 0.33974 0.66615 0.0
H2023 H 0.03657 0.35226 0.68085 0.0
H2024 H 0.0082 0.34266 0.62746 0.0
H2025 H 0.03545 0.33137 0.61204 0.0
H2026 H 0.99759 0.37664 0.64287 0.0
H2027 H 0.0047 0.30981 0.66719 0.0
H2028 H 0.0201 0.28098 0.68228 0.0
H2029 H 0.02724 0.31519 0.73445 0.0
H2030 H 0.0121 0.34435 0.71958 0.0
H2031 H 0.91293 0.37551 0.6899 0.0
H2032 H 0.93971 0.36777 0.67174 0.0
H2033 H 0.97144 0.38874 0.71958 0.0
H2034 H 0.94461 0.3968 0.7377 0.0
H2035 H 0.97955 0.34886 0.70628 0.0
H2036 H 0.97125 0.41577 0.68057 0.0
H2037 H 0.95455 0.44316 0.66471 0.0
H2038 H 0.94772 0.40636 0.61413 0.0
H2039 H 0.96417 0.37862 0.6298 0.0
C2040 C 0.05152 0.3406 0.65728 0.0
C2041 C 0.05173 0.33465 0.63773 0.0
C2042 C 0.03608 0.34749 0.66589 0.0
C2043 C 0.02019 0.3481 0.65545 0.0
C2044 C 0.02025 0.34226 0.6359 0.0
C2045 C 0.03584 0.3356 0.62714 0.0
C2046 C 0.00364 0.35484 0.66508 0.0
C2047 C 0.99353 0.37032 0.65659 0.0
C2048 C 0.99835 0.34687 0.68316 0.0
C2049 C 0.0074 0.32933 0.6922 0.0
C2050 C 0.00967 0.31124 0.68184 0.0
C2051 C 0.01833 0.29483 0.69036 0.0
C2052 C 0.02468 0.29627 0.70929 0.0
C2053 C 0.02233 0.3141 0.71977 0.0
C2054 C 0.01369 0.33057 0.71131 0.0
C2055 C 0.92563 0.37886 0.69636 0.0
C2056 C 0.92672 0.38682 0.71517 0.0
C2057 C 0.94091 0.37445 0.68598 0.0
C2058 C 0.95758 0.37766 0.6943 0.0
C2059 C 0.9587 0.38617 0.71287 0.0
C2060 C 0.9434 0.39091 0.72315 0.0
C2061 C 0.97373 0.37075 0.68418 0.0
C2062 C 0.98368 0.35515 0.69257 0.0
C2063 C 0.97866 0.37836 0.66589 0.0
C2064 C 0.96879 0.39504 0.65644 0.0
C2065 C 0.96604 0.41344 0.66613 0.0
C2066 C 0.95665 0.42905 0.65716 0.0
C2067 C 0.95004 0.42648 0.63844 0.0
C2068 C 0.95284 0.40832 0.62864 0.0
C2069 C 0.96221 0.39265 0.63755 0.0
H2070 H 0.94277 0.43859 0.63152 0.0
H2071 H 0.03139 0.28355 0.71586 0.0
H2072 H 0.69508 0.92888 0.37127 0.0
H2073 H 0.67596 0.95631 0.36063 0.0
H2074 H 0.71079 0.99969 0.38738 0.0
H2075 H 0.7295 0.97222 0.39913 0.0
H2076 H 0.6777 0.01181 0.39092 0.0
H2077 H 0.71363 0.98768 0.33898 0.0
H2078 H 0.72593 0.96187 0.31718 0.0
H2079 H 0.67409 0.94851 0.29561 0.0
H2080 H 0.66144 0.97403 0.31752 0.0
H2081 H 0.65989 0.09757 0.33104 0.0
H2082 H 0.67251 0.06909 0.34918 0.0
H2083 H 0.63392 0.02913 0.32366 0.0
H2084 H 0.62139 0.05771 0.30546 0.0
H2085 H 0.66713 0.01455 0.32017 0.0
H2086 H 0.63179 0.04149 0.3712 0.0
H2087 H 0.62062 0.0681 0.39284 0.0
H2088 H 0.67275 0.0775 0.4155 0.0
H2089 H 0.68428 0.05114 0.39379 0.0
C2090 C 0.69847 0.94417 0.37543 0.0
C2091 C 0.71402 0.94826 0.38592 0.0
C2092 C 0.6876 0.95991 0.36908 0.0
C2093 C 0.69216 0.98012 0.37275 0.0
C2094 C 0.70708 0.98423 0.38418 0.0
C2095 C 0.71787 0.96848 0.39073 0.0
C2096 C 0.68206 0.99694 0.36369 0.0
C2097 C 0.67551 0.01249 0.37544 0.0
C2098 C 0.67896 0.99772 0.34349 0.0
C2099 C 0.68656 0.9826 0.33005 0.0
C2100 C 0.70484 0.97915 0.32967 0.0
C2101 C 0.71187 0.96458 0.3173 0.0
C2102 C 0.70079 0.9535 0.30508 0.0
C2103 C 0.68265 0.95706 0.30512 0.0
C2104 C 0.67554 0.97158 0.31752 0.0
C2105 C 0.65392 0.08275 0.32972 0.0
C2106 C 0.63964 0.07968 0.31713 0.0
C2107 C 0.6611 0.06652 0.34004 0.0
C2108 C 0.65408 0.04698 0.33788 0.0
C2109 C 0.6395 0.04407 0.32558 0.0
C2110 C 0.63229 0.06033 0.31532 0.0
C2111 C 0.66274 0.02941 0.34739 0.0
C2112 C 0.66913 0.01376 0.33568 0.0
C2113 C 0.66585 0.02869 0.36756 0.0
C2114 C 0.65892 0.04444 0.38075 0.0
C2115 C 0.6409 0.04933 0.3807 0.0
C2116 C 0.63449 0.06435 0.39299 0.0
C2117 C 0.64597 0.07451 0.40551 0.0
C2118 C 0.66387 0.06963 0.40579 0.0
C2119 C 0.67035 0.05463 0.39351 0.0
H2120 H 0.64099 0.08614 0.41501 0.0
H2121 H 0.70625 0.94217 0.29557 0.0
H2122 H 0.93078 0.62199 0.31477 0.0
H2123 H 0.95624 0.62902 0.3356 0.0
H2124 H 0.99107 0.61075 0.28985 0.0
H2125 H 0.96549 0.60351 0.26898 0.0
H2126 H 0.98608 0.60762 0.34919 0.0
H2127 H 0.02338 0.64812 0.28865 0.0
H2128 H 0.01738 0.66448 0.25725 0.0
H2129 H 0.96523 0.67984 0.27584 0.0
H2130 H 0.97104 0.66387 0.30743 0.0
H2131 H 0.07485 0.63719 0.37494 0.0
H2132 H 0.04831 0.62313 0.35968 0.0
H2133 H 0.02326 0.68153 0.36281 0.0
H2134 H 0.04972 0.69559 0.37828 0.0
H2135 H 0.02301 0.6642 0.32549 0.0
H2136 H 0.00844 0.64637 0.39063 0.0
H2137 H 0.01349 0.63101 0.42264 0.0
H2138 H 0.01859 0.5725 0.3964 0.0
H2139 H 0.01382 0.58757 0.36419 0.0
C2140 C 0.94388 0.61898 0.30937 0.0
C2141 C 0.94623 0.61224 0.29031 0.0
C2142 C 0.95839 0.62296 0.32127 0.0
C2143 C 0.97553 0.62058 0.31422 0.0
C2144 C 0.97793 0.61275 0.29553 0.0
C2145 C 0.96336 0.60852 0.28367 0.0
C2146 C 0.99068 0.62829 0.32573 0.0
C2147 C 0.99426 0.61987 0.34396 0.0
C2148 C 1.00112 0.64456 0.31908 0.0
C2149 C 0.99759 0.65459 0.3003 0.0
C2150 C 0.01067 0.65506 0.28605 0.0
C2151 C 0.0073 0.66427 0.26822 0.0
C2152 C 0.99091 0.67313 0.26453 0.0
C2153 C 0.97789 0.6729 0.27869 0.0
C2154 C 0.98121 0.66376 0.29655 0.0
C2155 C 0.06353 0.6469 0.37272 0.0
C2156 C 0.0643 0.66746 0.37784 0.0
C2157 C 0.0484 0.63887 0.36401 0.0
C2158 C 0.03384 0.6513 0.36006 0.0
C2159 C 0.03436 0.67168 0.36572 0.0
C2160 C 0.0494 0.67965 0.37471 0.0
C2161 C 0.01858 0.64338 0.34888 0.0
C2162 C 0.01497 0.6518 0.33068 0.0
C2163 C 0.00807 0.62723 0.35564 0.0
C2164 C 0.01096 0.61813 0.37498 0.0
C2165 C 0.0108 0.63026 0.39166 0.0
C2166 C 0.01358 0.6216 0.40985 0.0
C2167 C 0.01641 0.6008 0.41155 0.0
C2168 C 0.01642 0.58862 0.39506 0.0
C2169 C 0.01367 0.59721 0.37684 0.0
H2170 H 0.01854 0.59412 0.42564 0.0
H2171 H 0.98832 0.68022 0.25071 0.0
H2172 H 0.34109 0.93144 0.32054 0.0
H2173 H 0.32347 0.95635 0.33815 0.0
H2174 H 0.34205 0.00333 0.30012 0.0
H2175 H 0.36071 0.97866 0.2836 0.0
H2176 H 0.33886 0.01869 0.33373 0.0
H2177 H 0.30023 0.97757 0.29455 0.0
H2178 H 0.28798 0.94509 0.28324 0.0
H2179 H 0.26977 0.93205 0.34048 0.0
H2180 H 0.28212 0.96436 0.35218 0.0
H2181 H 0.26824 0.08892 0.34477 0.0
H2182 H 0.28938 0.06404 0.33247 0.0
H2183 H 0.27355 0.02201 0.37672 0.0
H2184 H 0.25251 0.047 0.38908 0.0
H2185 H 0.27532 0.00362 0.34155 0.0
H2186 H 0.31269 0.0465 0.37986 0.0
H2187 H 0.32528 0.07903 0.39047 0.0
H2188 H 0.34563 0.08923 0.33358 0.0
H2189 H 0.33292 0.05688 0.32255 0.0
C2190 C 0.34154 0.94715 0.31615 0.0
C2191 C 0.35173 0.95303 0.30028 0.0
C2192 C 0.33133 0.96137 0.32608 0.0
C2193 C 0.33083 0.98171 0.32007 0.0
C2194 C 0.34189 0.98774 0.3049 0.0
C2195 C 0.35237 0.97358 0.29526 0.0
C2196 C 0.31845 0.99657 0.32907 0.0
C2197 C 0.32494 0.01542 0.33522 0.0
C2198 C 0.30026 0.99234 0.33144 0.0
C2199 C 0.29222 0.9733 0.32427 0.0
C2200 C 0.29363 0.96776 0.30472 0.0
C2201 C 0.28669 0.94937 0.29825 0.0
C2202 C 0.27815 0.93649 0.31114 0.0
C2203 C 0.27641 0.94204 0.33051 0.0
C2204 C 0.28336 0.9604 0.33707 0.0
C2205 C 0.26942 0.07441 0.35192 0.0
C2206 C 0.25864 0.06974 0.3677 0.0
C2207 C 0.28149 0.0602 0.34491 0.0
C2208 C 0.28313 0.04108 0.35367 0.0
C2209 C 0.27248 0.03655 0.36963 0.0
C2210 C 0.26045 0.05081 0.37667 0.0
C2211 C 0.29574 0.02575 0.346 0.0
C2212 C 0.28926 0.00683 0.34009 0.0
C2213 C 0.31388 0.02999 0.34367 0.0
C2214 C 0.32173 0.04933 0.35034 0.0
C2215 C 0.31975 0.05574 0.36958 0.0
C2216 C 0.32692 0.07414 0.37567 0.0
C2217 C 0.33622 0.08621 0.3627 0.0
C2218 C 0.33841 0.07987 0.34361 0.0
C2219 C 0.33124 0.06149 0.33743 0.0
H2220 H 0.34176 0.10046 0.36744 0.0
H2221 H 0.27285 0.92223 0.30612 0.0
H2222 H 0.08908 0.37959 0.30785 0.0
H2223 H 0.06529 0.36992 0.32946 0.0
H2224 H 0.02711 0.387 0.28601 0.0
H2225 H 0.05069 0.39825 0.26501 0.0
H2226 H 0.01454 0.39646 0.31856 0.0
H2227 H 0.04216 0.33593 0.29434 0.0
H2228 H 0.06711 0.31288 0.28856 0.0
H2229 H 0.07555 0.30707 0.34969 0.0
H2230 H 0.05075 0.33029 0.35582 0.0
H2231 H 0.94338 0.3307 0.3353 0.0
H2232 H 0.97053 0.34477 0.32265 0.0
H2233 H 0.99408 0.34251 0.37939 0.0
H2234 H 0.96645 0.32924 0.3926 0.0
H2235 H 0.01548 0.32681 0.34519 0.0
H2236 H 0.98391 0.38528 0.36786 0.0
H2237 H 0.95766 0.40691 0.37117 0.0
H2238 H 0.95537 0.41474 0.30964 0.0
H2239 H 0.98146 0.39289 0.30594 0.0
C2240 C 0.07563 0.38181 0.30303 0.0
C2241 C 0.07193 0.3895 0.28446 0.0
C2242 C 0.06199 0.37593 0.31534 0.0
C2243 C 0.04433 0.37715 0.30923 0.0
C2244 C 0.04059 0.38568 0.29108 0.0
C2245 C 0.05417 0.39189 0.27892 0.0
C2246 C 0.02971 0.36904 0.32129 0.0
C2247 C 0.0148 0.3812 0.32429 0.0
C2248 C 0.03002 0.34922 0.32918 0.0
C2249 C 0.04474 0.33501 0.32553 0.0
C2250 C 0.04939 0.32981 0.30654 0.0
C2251 C 0.0635 0.31672 0.3032 0.0
C2252 C 0.07295 0.30857 0.31875 0.0
C2253 C 0.06825 0.31343 0.33767 0.0
C2254 C 0.05416 0.32654 0.34108 0.0
C2255 C 0.95415 0.33345 0.34529 0.0
C2256 C 0.95247 0.32917 0.36513 0.0
C2257 C 0.96976 0.34133 0.33792 0.0
C2258 C 0.98424 0.34484 0.35009 0.0
C2259 C 0.983 0.33991 0.36976 0.0
C2260 C 0.96721 0.33226 0.37726 0.0
C2261 C 1.00039 0.35414 0.34202 0.0
C2262 C 0.01548 0.34219 0.33973 0.0
C2263 C 1.00014 0.37398 0.33443 0.0
C2264 C 0.98457 0.38733 0.33663 0.0
C2265 C 0.97773 0.39149 0.35503 0.0
C2266 C 0.96289 0.40381 0.35697 0.0
C2267 C 0.95483 0.41217 0.34062 0.0
C2268 C 0.96162 0.40826 0.32229 0.0
C2269 C 0.97645 0.39592 0.32027 0.0
H2270 H 0.94334 0.4217 0.34216 0.0
H2271 H 0.08389 0.29847 0.31613 0.0
H2272 H 0.71708 0.65772 0.9646 0.0
H2273 H 0.70507 0.67315 0.99389 0.0
H2274 H 0.65233 0.66278 0.97244 0.0
H2275 H 0.6644 0.64827 0.94285 0.0
H2276 H 0.65385 0.69887 0.98443 0.0
H2277 H 0.67254 0.63603 0.01266 0.0
H2278 H 0.69339 0.60867 0.02071 0.0
H2279 H 0.72664 0.65096 0.05066 0.0
H2280 H 0.70611 0.67864 0.04256 0.0
H2281 H 0.61003 0.73041 0.06933 0.0
H2282 H 0.6217 0.70781 0.0443 0.0
H2283 H 0.67464 0.72531 0.05994 0.0
H2284 H 0.66295 0.74766 0.08507 0.0
H2285 H 0.67257 0.68464 0.05183 0.0
H2286 H 0.65436 0.74729 0.02258 0.0
H2287 H 0.63333 0.77461 0.01503 0.0
H2288 H 0.59894 0.73201 0.9871 0.0
H2289 H 0.61964 0.70435 0.99478 0.0
C2290 C 0.70293 0.65836 0.96639 0.0
C2291 C 0.69166 0.65172 0.95152 0.0
C2292 C 0.69604 0.66717 0.98316 0.0
C2293 C 0.6777 0.66907 0.9856 0.0
C2294 C 0.66648 0.66164 0.971 0.0
C2295 C 0.67338 0.65321 0.95412 0.0
C2296 C 0.67017 0.68001 0.0026 0.0
C2297 C 0.65775 0.6954 0.99916 0.0
C2298 C 0.67552 0.67607 0.02192 0.0
C2299 C 0.68786 0.65944 0.02685 0.0
C2300 C 0.68436 0.63952 0.02084 0.0
C2301 C 0.69612 0.62395 0.02544 0.0
C2302 C 0.71135 0.62808 0.03615 0.0
C2303 C 0.71485 0.64779 0.04234 0.0
C2304 C 0.70314 0.66342 0.03777 0.0
C2305 C 0.62415 0.729 0.06768 0.0
C2306 C 0.63563 0.74052 0.07921 0.0
C2307 C 0.63082 0.71625 0.0533 0.0
C2308 C 0.64907 0.71495 0.05011 0.0
C2309 C 0.66054 0.72598 0.06213 0.0
C2310 C 0.65387 0.73876 0.07643 0.0
C2311 C 0.65618 0.70315 0.03354 0.0
C2312 C 0.66859 0.68781 0.03706 0.0
C2313 C 0.65081 0.70705 0.01428 0.0
C2314 C 0.63847 0.72372 0.00942 0.0
C2315 C 0.64226 0.74372 0.01494 0.0
C2316 C 0.6304 0.75927 0.01063 0.0
C2317 C 0.61479 0.75504 1.00063 0.0
C2318 C 0.61103 0.73525 0.99487 0.0
C2319 C 0.62282 0.71963 0.9992 0.0
H2320 H 0.60563 0.7671 0.9973 0.0
H2321 H 0.72043 0.61601 0.03969 0.0
H2322 H 0.34061 0.64857 0.0601 0.0
H2323 H 0.35203 0.66438 0.0308 0.0
H2324 H 0.2989 0.67477 0.01063 0.0
H2325 H 0.28748 0.65816 0.03964 0.0
H2326 H 0.3185 0.66662 0.98097 0.0
H2327 H 0.32379 0.71207 0.03422 0.0
H2328 H 0.33255 0.72316 0.06691 0.0
H2329 H 0.387 0.71453 0.05274 0.0
H2330 H 0.37854 0.7031 0.02004 0.0
H2331 H 0.33865 0.74944 0.91851 0.0
H2332 H 0.32754 0.72714 0.94392 0.0
H2333 H 0.38091 0.71281 0.96077 0.0
H2334 H 0.39199 0.73558 0.93559 0.0
H2335 H 0.36121 0.72235 0.99147 0.0
H2336 H 0.35416 0.67818 0.9364 0.0
H2337 H 0.34361 0.66904 0.90378 0.0
H2338 H 0.29015 0.67846 0.92143 0.0
H2339 H 0.30038 0.68788 0.95411 0.0
C2340 C 0.3314 0.65393 0.04923 0.0
C2341 C 0.31317 0.65224 0.05215 0.0
C2342 C 0.33792 0.6631 0.03255 0.0
C2343 C 0.32635 0.67131 0.01867 0.0
C2344 C 0.30812 0.66868 0.02112 0.0
C2345 C 0.30159 0.65916 0.03768 0.0
C2346 C 0.33325 0.68349 0.00222 0.0
C2347 C 0.32772 0.67892 0.98331 0.0
C2348 C 0.34537 0.69953 0.00514 0.0
C2349 C 0.35052 0.70653 0.02475 0.0
C2350 C 0.33763 0.71241 0.03812 0.0
C2351 C 0.34254 0.71877 0.05664 0.0
C2352 C 0.36032 0.7195 0.06191 0.0
C2353 C 0.37323 0.71393 0.04865 0.0
C2354 C 0.36838 0.70751 0.03011 0.0
C2355 C 0.34796 0.74126 0.92749 0.0
C2356 C 0.36614 0.74382 0.92489 0.0
C2357 C 0.34162 0.72848 0.94195 0.0
C2358 C 0.35337 0.718 0.95411 0.0
C2359 C 0.37159 0.72056 0.95147 0.0
C2360 C 0.37792 0.73338 0.93698 0.0
C2361 C 0.34666 0.7053 0.97023 0.0
C2362 C 0.35213 0.70992 0.98913 0.0
C2363 C 0.33423 0.68962 0.9673 0.0
C2364 C 0.32805 0.68383 0.94768 0.0
C2365 C 0.34016 0.67841 0.9333 0.0
C2366 C 0.33424 0.67316 0.91481 0.0
C2367 C 0.31623 0.67314 0.91056 0.0
C2368 C 0.30409 0.67844 0.92476 0.0
C2369 C 0.30995 0.6837 0.94328 0.0
H2370 H 0.31168 0.66897 0.89626 0.0
H2371 H 0.36409 0.72443 0.07626 0.0
H2372 H 0.31096 0.37894 0.96041 0.0
H2373 H 0.32361 0.36515 0.99046 0.0
H2374 H 0.31239 0.30468 0.97059 0.0
H2375 H 0.29972 0.31831 0.94083 0.0
H2376 H 0.30572 0.30872 0.00921 0.0
H2377 H 0.35237 0.32484 0.96378 0.0
H2378 H 0.36934 0.34789 0.94299 0.0
H2379 H 0.3819 0.38492 0.99213 0.0
H2380 H 0.36479 0.36219 0.01316 0.0
H2381 H 0.39084 0.25669 0.04185 0.0
H2382 H 0.37582 0.281 0.02075 0.0
H2383 H 0.34172 0.29785 0.06773 0.0
H2384 H 0.35618 0.27271 0.08846 0.0
H2385 H 0.36971 0.32015 0.01933 0.0
H2386 H 0.30197 0.30742 0.05128 0.0
H2387 H 0.28602 0.28206 0.07074 0.0
H2388 H 0.31701 0.23464 0.04583 0.0
H2389 H 0.33309 0.25967 0.02622 0.0
C2390 C 0.31095 0.36274 0.96266 0.0
C2391 C 0.30456 0.34968 0.94821 0.0
C2392 C 0.31822 0.35488 0.97977 0.0
C2393 C 0.31906 0.33386 0.9827 0.0
C2394 C 0.31187 0.32092 0.96867 0.0
C2395 C 0.30478 0.32873 0.9516 0.0
C2396 C 0.32859 0.325 0.99951 0.0
C2397 C 0.31965 0.31146 0.0116 0.0
C2398 C 0.3468 0.3284 0.00259 0.0
C2399 C 0.35714 0.34198 0.98998 0.0
C2400 C 0.35864 0.33798 0.97011 0.0
C2401 C 0.3683 0.35097 0.9583 0.0
C2402 C 0.37665 0.3679 0.96623 0.0
C2403 C 0.3754 0.37183 0.986 0.0
C2404 C 0.36572 0.35891 0.99788 0.0
C2405 C 0.38006 0.26552 0.04756 0.0
C2406 C 0.37419 0.26239 0.06648 0.0
C2407 C 0.37164 0.2796 0.03562 0.0
C2408 C 0.35735 0.29096 0.04249 0.0
C2409 C 0.35241 0.28894 0.06193 0.0
C2410 C 0.36071 0.27467 0.07379 0.0
C2411 C 0.34691 0.30361 0.02882 0.0
C2412 C 0.35567 0.31784 0.01731 0.0
C2413 C 0.32859 0.30061 0.02608 0.0
C2414 C 0.31867 0.28539 0.03732 0.0
C2415 C 0.30524 0.29156 0.04986 0.0
C2416 C 0.29622 0.27728 0.06092 0.0
C2417 C 0.30042 0.25679 0.05941 0.0
C2418 C 0.31373 0.25052 0.04692 0.0
C2419 C 0.3228 0.26474 0.03584 0.0
H2420 H 0.29336 0.24578 0.06793 0.0
H2421 H 0.38413 0.37793 0.95706 0.0
H2422 H 0.68647 0.38985 0.04584 0.0
H2423 H 0.67325 0.37562 0.01631 0.0
H2424 H 0.68631 0.31554 0.03594 0.0
H2425 H 0.69967 0.3296 0.06511 0.0
H2426 H 0.69299 0.31969 0.99798 0.0
H2427 H 0.6453 0.33451 0.04197 0.0
H2428 H 0.62724 0.3568 0.06242 0.0
H2429 H 0.61447 0.39349 0.01311 0.0
H2430 H 0.63265 0.37153 0.99242 0.0
H2431 H 0.60854 0.26814 0.96052 0.0
H2432 H 0.62293 0.29179 0.98275 0.0
H2433 H 0.6596 0.30837 0.93807 0.0
H2434 H 0.64578 0.28376 0.91628 0.0
H2435 H 0.62921 0.32999 0.98555 0.0
H2436 H 0.69973 0.31887 0.95837 0.0
H2437 H 0.71775 0.29421 0.94048 0.0
H2438 H 0.68416 0.24603 0.95942 0.0
H2439 H 0.6661 0.27036 0.97766 0.0
C2440 C 0.68667 0.37364 0.04371 0.0
C2441 C 0.69392 0.36083 0.0579 0.0
C2442 C 0.67905 0.36552 0.0269 0.0
C2443 C 0.67866 0.34449 0.02398 0.0
C2444 C 0.68644 0.3318 0.03785 0.0
C2445 C 0.69392 0.33985 0.05462 0.0
C2446 C 0.66959 0.33535 0.00699 0.0
C2447 C 0.67909 0.32213 0.9951 0.0
C2448 C 0.65143 0.33839 0.0033 0.0
C2449 C 0.64049 0.35154 0.01571 0.0
C2450 C 0.63875 0.34743 0.03553 0.0
C2451 C 0.62848 0.35998 0.04716 0.0
C2452 C 0.61976 0.37659 0.03908 0.0
C2453 C 0.62126 0.38064 0.01935 0.0
C2454 C 0.63154 0.36815 0.00767 0.0
C2455 C 0.61978 0.27671 0.95557 0.0
C2456 C 0.62656 0.27357 0.93702 0.0
C2457 C 0.62785 0.29044 0.96816 0.0
C2458 C 0.64268 0.30154 0.96231 0.0
C2459 C 0.64851 0.29961 0.94316 0.0
C2460 C 0.64056 0.28565 0.93066 0.0
C2461 C 0.65253 0.31399 0.9767 0.0
C2462 C 0.6432 0.32787 0.9881 0.0
C2463 C 0.67081 0.31128 0.98016 0.0
C2464 C 0.6815 0.29647 0.96923 0.0
C2465 C 0.69623 0.303 0.95876 0.0
C2466 C 0.70647 0.28909 0.9486 0.0
C2467 C 0.70213 0.26857 0.94887 0.0
C2468 C 0.68751 0.26193 0.95926 0.0
C2469 C 0.67727 0.27578 0.9695 0.0
H2470 H 0.7101 0.25783 0.94102 0.0
H2471 H 0.61181 0.38628 0.04811 0.0
H2472 H 0.11931 0.31099 0.25583 0.0
H2473 H 0.12848 0.27828 0.26924 0.0
H2474 H 0.18103 0.28792 0.24774 0.0
H2475 H 0.17167 0.32037 0.2339 0.0
H2476 H 0.1718 0.24787 0.24612 0.0
H2477 H 0.17076 0.30189 0.294 0.0
H2478 H 0.15627 0.32955 0.3118 0.0
H2479 H 0.11664 0.28834 0.33165 0.0
H2480 H 0.13089 0.26046 0.31392 0.0
H2481 H 0.21859 0.18361 0.31122 0.0
H2482 H 0.20788 0.21195 0.29153 0.0
H2483 H 0.15796 0.20948 0.32098 0.0
H2484 H 0.16929 0.18256 0.34171 0.0
H2485 H 0.16538 0.24554 0.31735 0.0
H2486 H 0.16666 0.19069 0.27184 0.0
H2487 H 0.1801 0.16264 0.25369 0.0
H2488 H 0.21716 0.20374 0.22847 0.0
H2489 H 0.2041 0.23201 0.24667 0.0
C2490 C 0.13262 0.30572 0.25343 0.0
C2491 C 0.1448 0.31799 0.24383 0.0
C2492 C 0.13791 0.28718 0.26123 0.0
C2493 C 0.15554 0.28086 0.25984 0.0
C2494 C 0.16739 0.2925 0.24904 0.0
C2495 C 0.16206 0.31098 0.24112 0.0
C2496 C 0.16205 0.26332 0.27122 0.0
C2497 C 0.17051 0.24734 0.26171 0.0
C2498 C 0.16012 0.2625 0.29152 0.0
C2499 C 0.15181 0.27915 0.30254 0.0
C2500 C 0.15894 0.29876 0.30213 0.0
C2501 C 0.15077 0.31446 0.3122 0.0
C2502 C 0.13551 0.31071 0.32278 0.0
C2503 C 0.12845 0.29122 0.32342 0.0
C2504 C 0.13659 0.27546 0.31342 0.0
C2505 C 0.20532 0.18917 0.31335 0.0
C2506 C 0.19453 0.18053 0.3275 0.0
C2507 C 0.19912 0.20522 0.30199 0.0
C2508 C 0.18186 0.21258 0.30428 0.0
C2509 C 0.17124 0.20405 0.3187 0.0
C2510 C 0.17762 0.18847 0.3304 0.0
C2511 C 0.17497 0.22964 0.29231 0.0
C2512 C 0.16656 0.24575 0.30174 0.0
C2513 C 0.17676 0.23037 0.27192 0.0
C2514 C 0.1845 0.21343 0.26078 0.0
C2515 C 0.17774 0.19373 0.26251 0.0
C2516 C 0.18529 0.17779 0.25221 0.0
C2517 C 0.19951 0.18139 0.23998 0.0
C2518 C 0.20617 0.20097 0.23797 0.0
C2519 C 0.19869 0.21695 0.24827 0.0
H2520 H 0.20535 0.16903 0.23204 0.0
H2521 H 0.12918 0.3229 0.33051 0.0
H2522 H 0.82222 0.21628 0.40374 0.0
H2523 H 0.79509 0.19701 0.39877 0.0
H2524 H 0.76592 0.25255 0.39228 0.0
H2525 H 0.79312 0.27197 0.39712 0.0
H2526 H 0.74656 0.2188 0.41049 0.0
H2527 H 0.78105 0.2353 0.35393 0.0
H2528 H 0.80888 0.23683 0.33586 0.0
H2529 H 0.81366 0.17224 0.33912 0.0
H2530 H 0.786 0.17039 0.35757 0.0
H2531 H 0.67849 0.19176 0.34486 0.0
H2532 H 0.70261 0.20666 0.3634 0.0
H2533 H 0.73302 0.15209 0.35621 0.0
H2534 H 0.70889 0.13716 0.33733 0.0
H2535 H 0.75204 0.18352 0.34751 0.0
H2536 H 0.71546 0.1664 0.40081 0.0
H2537 H 0.68812 0.16489 0.41974 0.0
H2538 H 0.68706 0.22967 0.42326 0.0
H2539 H 0.71427 0.2316 0.4041 0.0
C2540 C 0.80993 0.22438 0.40175 0.0
C2541 C 0.80976 0.24557 0.40042 0.0
C2542 C 0.79446 0.21337 0.39902 0.0
C2543 C 0.77861 0.22339 0.39487 0.0
C2544 C 0.77806 0.24459 0.39549 0.0
C2545 C 0.79358 0.25565 0.39823 0.0
C2546 C 0.7636 0.21192 0.38669 0.0
C2547 C 0.74763 0.21116 0.39668 0.0
C2548 C 0.76521 0.2017 0.36885 0.0
C2549 C 0.78157 0.20273 0.35729 0.0
C2550 C 0.7881 0.22144 0.3509 0.0
C2551 C 0.80384 0.22237 0.34059 0.0
C2552 C 0.81306 0.20465 0.33639 0.0
C2553 C 0.80652 0.18596 0.34242 0.0
C2554 C 0.79081 0.18496 0.3528 0.0
C2555 C 0.69017 0.18276 0.34756 0.0
C2556 C 0.69178 0.16325 0.33971 0.0
C2557 C 0.70395 0.1913 0.35821 0.0
C2558 C 0.71956 0.18041 0.36145 0.0
C2559 C 0.72108 0.16076 0.35393 0.0
C2560 C 0.70733 0.15226 0.34312 0.0
C2561 C 0.73477 0.1902 0.37128 0.0
C2562 C 0.75087 0.19083 0.36147 0.0
C2563 C 0.7332 0.20023 0.38929 0.0
C2564 C 0.71685 0.19914 0.40088 0.0
C2565 C 0.70933 0.18034 0.40549 0.0
C2566 C 0.69386 0.1794 0.41629 0.0
C2567 C 0.68584 0.19717 0.42267 0.0
C2568 C 0.69329 0.21592 0.4183 0.0
C2569 C 0.70875 0.21694 0.40749 0.0
H2570 H 0.67386 0.19641 0.43102 0.0
H2571 H 0.82525 0.2054 0.32842 0.0
H2572 H 0.88857 0.69699 0.25052 0.0
H2573 H 0.87789 0.72895 0.26358 0.0
H2574 H 0.8243 0.70963 0.25368 0.0
H2575 H 0.83509 0.67828 0.2391 0.0
H2576 H 0.82568 0.74934 0.25179 0.0
H2577 H 0.84638 0.69933 0.29866 0.0
H2578 H 0.86853 0.67583 0.31227 0.0
H2579 H 0.9051 0.72486 0.31893 0.0
H2580 H 0.88318 0.74856 0.30528 0.0
H2581 H 0.78234 0.79486 0.3309 0.0
H2582 H 0.79512 0.77123 0.30785 0.0
H2583 H 0.84688 0.79498 0.32032 0.0
H2584 H 0.83433 0.81785 0.3442 0.0
H2585 H 0.84791 0.7558 0.31908 0.0
H2586 H 0.82311 0.80713 0.27823 0.0
H2587 H 0.7995 0.82942 0.26602 0.0
H2588 H 0.76924 0.77763 0.24869 0.0
H2589 H 0.79251 0.75501 0.26107 0.0
C2590 C 0.87456 0.70007 0.25013 0.0
C2591 C 0.86262 0.68533 0.24364 0.0
C2592 C 0.86844 0.71817 0.25794 0.0
C2593 C 0.85028 0.72139 0.26024 0.0
C2594 C 0.83836 0.70745 0.25219 0.0
C2595 C 0.84451 0.68957 0.24385 0.0
C2596 C 0.84379 0.73768 0.27312 0.0
C2597 C 0.83048 0.75075 0.26652 0.0
C2598 C 0.85019 0.73971 0.2923 0.0
C2599 C 0.86327 0.72559 0.30075 0.0
C2600 C 0.8592 0.70501 0.30293 0.0
C2601 C 0.87169 0.69169 0.31066 0.0
C2602 C 0.88824 0.69883 0.31635 0.0
C2603 C 0.8923 0.71934 0.31446 0.0
C2604 C 0.87984 0.73272 0.30677 0.0
C2605 C 0.79648 0.79482 0.32901 0.0
C2606 C 0.80731 0.80827 0.33943 0.0
C2607 C 0.80374 0.78155 0.31555 0.0
C2608 C 0.82191 0.78167 0.31201 0.0
C2609 C 0.83279 0.79478 0.32265 0.0
C2610 C 0.82558 0.80792 0.33624 0.0
C2611 C 0.82973 0.76751 0.29784 0.0
C2612 C 0.84327 0.75472 0.30426 0.0
C2613 C 0.82339 0.76573 0.27861 0.0
C2614 C 0.80952 0.77935 0.27074 0.0
C2615 C 0.81138 0.80048 0.27192 0.0
C2616 C 0.79805 0.81318 0.26495 0.0
C2617 C 0.78286 0.80495 0.25661 0.0
C2618 C 0.781 0.784 0.25514 0.0
C2619 C 0.79427 0.77123 0.26213 0.0
H2620 H 0.77254 0.81481 0.25128 0.0
H2621 H 0.8979 0.68849 0.32229 0.0
H2622 H 0.30695 0.83802 0.29895 0.0
H2623 H 0.28553 0.81764 0.3165 0.0
H2624 H 0.27499 0.86817 0.35422 0.0
H2625 H 0.2973 0.88824 0.33711 0.0
H2626 H 0.27643 0.8357 0.37488 0.0
H2627 H 0.2457 0.85272 0.31683 0.0
H2628 H 0.24106 0.85633 0.28171 0.0
H2629 H 0.24618 0.79213 0.27457 0.0
H2630 H 0.25108 0.78815 0.30963 0.0
H2631 H 0.19216 0.79443 0.40427 0.0
H2632 H 0.21664 0.81493 0.39213 0.0
H2633 H 0.23845 0.76227 0.36444 0.0
H2634 H 0.21416 0.74167 0.37682 0.0
H2635 H 0.23078 0.79643 0.33963 0.0
H2636 H 0.2608 0.78058 0.39921 0.0
H2637 H 0.2636 0.77841 0.43465 0.0
H2638 H 0.25714 0.8427 0.43915 0.0
H2639 H 0.25406 0.84523 0.40372 0.0
C2640 C 0.29985 0.84479 0.31084 0.0
C2641 C 0.30343 0.8647 0.31656 0.0
C2642 C 0.2876 0.83319 0.32086 0.0
C2643 C 0.27831 0.84145 0.33648 0.0
C2644 C 0.28191 0.86146 0.34218 0.0
C2645 C 0.29449 0.87297 0.33236 0.0
C2646 C 0.2651 0.829 0.34693 0.0
C2647 C 0.26629 0.82737 0.36716 0.0
C2648 C 0.25196 0.81786 0.33693 0.0
C2649 C 0.2489 0.82016 0.31585 0.0
C2650 C 0.24594 0.83938 0.30776 0.0
C2651 C 0.24325 0.84149 0.28787 0.0
C2652 C 0.24336 0.82447 0.27592 0.0
C2653 C 0.24611 0.8053 0.28385 0.0
C2654 C 0.24883 0.80311 0.30373 0.0
C2655 C 0.20247 0.78718 0.39605 0.0
C2656 C 0.20137 0.76651 0.3915 0.0
C2657 C 0.21641 0.79886 0.38914 0.0
C2658 C 0.22929 0.79009 0.37737 0.0
C2659 C 0.22864 0.76927 0.37355 0.0
C2660 C 0.21486 0.75751 0.38073 0.0
C2661 C 0.2423 0.80301 0.36739 0.0
C2662 C 0.24096 0.80479 0.34727 0.0
C2663 C 0.25502 0.81453 0.37753 0.0
C2664 C 0.25703 0.81307 0.39882 0.0
C2665 C 0.25982 0.79424 0.40776 0.0
C2666 C 0.2615 0.79295 0.42785 0.0
C2667 C 0.2605 0.8104 0.43915 0.0
C2668 C 0.25789 0.82919 0.43037 0.0
C2669 C 0.2562 0.83057 0.41029 0.0
H2670 H 0.26181 0.80936 0.45469 0.0
H2671 H 0.24128 0.82614 0.26052 0.0
H2672 H 0.10712 0.68619 0.73943 0.0
H2673 H 0.11647 0.71854 0.72568 0.0
H2674 H 0.16939 0.70779 0.74642 0.0
H2675 H 0.1597 0.67618 0.7613 0.0
H2676 H 0.16405 0.74661 0.74536 0.0
H2677 H 0.15504 0.69172 0.69974 0.0
H2678 H 0.13735 0.66479 0.68434 0.0
H2679 H 0.09898 0.70869 0.66623 0.0
H2680 H 0.11641 0.73583 0.68169 0.0
H2681 H 0.21501 0.79351 0.67273 0.0
H2682 H 0.20101 0.7685 0.69361 0.0
H2683 H 0.1499 0.7871 0.67261 0.0
H2684 H 0.16384 0.81164 0.6512 0.0
H2685 H 0.15219 0.74689 0.67477 0.0
H2686 H 0.16605 0.80291 0.71624 0.0
H2687 H 0.18576 0.82837 0.73083 0.0
H2688 H 0.21693 0.78128 0.75656 0.0
H2689 H 0.19771 0.75549 0.7417 0.0
C2690 C 0.12053 0.69126 0.74177 0.0
C2691 C 0.13274 0.67884 0.75136 0.0
C2692 C 0.12594 0.70956 0.73369 0.0
C2693 C 0.14378 0.71527 0.73444 0.0
C2694 C 0.1556 0.70368 0.74552 0.0
C2695 C 0.15009 0.68564 0.75401 0.0
C2696 C 0.1506 0.73168 0.72187 0.0
C2697 C 0.16152 0.74665 0.72992 0.0
C2698 C 0.14718 0.73188 0.70172 0.0
C2699 C 0.13692 0.71572 0.692 0.0
C2700 C 0.1428 0.69558 0.69251 0.0
C2701 C 0.13284 0.6803 0.68378 0.0
C2702 C 0.11704 0.68503 0.67435 0.0
C2703 C 0.11122 0.70506 0.67355 0.0
C2704 C 0.12114 0.72039 0.68227 0.0
C2705 C 0.20081 0.79202 0.6723 0.0
C2706 C 0.19052 0.80457 0.66033 0.0
C2707 C 0.19281 0.77792 0.68444 0.0
C2708 C 0.17439 0.77622 0.68494 0.0
C2709 C 0.16412 0.78829 0.67257 0.0
C2710 C 0.1721 0.80235 0.66042 0.0
C2711 C 0.16578 0.76173 0.69821 0.0
C2712 C 0.15455 0.74707 0.69025 0.0
C2713 C 0.16915 0.76171 0.71836 0.0
C2714 C 0.1805 0.77724 0.7277 0.0
C2715 C 0.17718 0.79796 0.72489 0.0
C2716 C 0.18829 0.81246 0.7332 0.0
C2717 C 0.20263 0.80645 0.74455 0.0
C2718 C 0.20584 0.78592 0.74772 0.0
C2719 C 0.19485 0.77135 0.73934 0.0
H2720 H 0.21125 0.81769 0.75092 0.0
H2721 H 0.10934 0.67317 0.66761 0.0
H2722 H 0.33028 0.19306 0.644 0.0
H2723 H 0.30601 0.2092 0.62656 0.0
H2724 H 0.271 0.16156 0.64446 0.0
H2725 H 0.29536 0.14515 0.66194 0.0
H2726 H 0.26663 0.17668 0.60372 0.0
H2727 H 0.2704 0.19991 0.67064 0.0
H2728 H 0.28707 0.21375 0.69834 0.0
H2729 H 0.30004 0.26641 0.6651 0.0
H2730 H 0.28368 0.25277 0.6372 0.0
H2731 H 0.18222 0.2213 0.60331 0.0
H2732 H 0.21008 0.2035 0.60746 0.0
H2733 H 0.23813 0.26002 0.60289 0.0
H2734 H 0.21009 0.27804 0.59954 0.0
H2735 H 0.24818 0.24133 0.63384 0.0
H2736 H 0.24259 0.2218 0.56848 0.0
H2737 H 0.22819 0.20897 0.53899 0.0
H2738 H 0.22056 0.15124 0.566 0.0
H2739 H 0.23481 0.16381 0.5958 0.0
C2740 C 0.31752 0.18573 0.64386 0.0
C2741 C 0.31469 0.16786 0.65439 0.0
C2742 C 0.30368 0.195 0.63392 0.0
C2743 C 0.28676 0.18657 0.63429 0.0
C2744 C 0.28402 0.16822 0.64397 0.0
C2745 C 0.29787 0.15899 0.65408 0.0
C2746 C 0.27164 0.19812 0.62646 0.0
C2747 C 0.26242 0.19071 0.61034 0.0
C2748 C 0.26665 0.21676 0.63474 0.0
C2749 C 0.27596 0.22525 0.65179 0.0
C2750 C 0.27688 0.21441 0.66924 0.0
C2751 C 0.28628 0.22222 0.68499 0.0
C2752 C 0.29467 0.24095 0.68351 0.0
C2753 C 0.29358 0.25193 0.6663 0.0
C2754 C 0.28423 0.24418 0.65051 0.0
C2755 C 0.19435 0.2299 0.60293 0.0
C2756 C 0.19398 0.25109 0.60139 0.0
C2757 C 0.2103 0.21968 0.60509 0.0
C2758 C 0.22625 0.23038 0.60546 0.0
C2759 C 0.22598 0.25144 0.60268 0.0
C2760 C 0.20997 0.26171 0.60061 0.0
C2761 C 0.24282 0.21989 0.61105 0.0
C2762 C 0.25236 0.22743 0.62693 0.0
C2763 C 0.24821 0.20154 0.60231 0.0
C2764 C 0.23965 0.19381 0.58444 0.0
C2765 C 0.23772 0.20641 0.5682 0.0
C2766 C 0.22961 0.19917 0.5514 0.0
C2767 C 0.2234 0.17931 0.55062 0.0
C2768 C 0.22536 0.16663 0.56663 0.0
C2769 C 0.2335 0.17379 0.58347 0.0
H2770 H 0.2171 0.17373 0.5376 0.0
H2771 H 0.302 0.24693 0.69569 0.0
H2772 H 0.77008 0.19346 0.68481 0.0
H2773 H 0.77458 0.21828 0.71018 0.0
H2774 H 0.82722 0.19591 0.71945 0.0
H2775 H 0.82225 0.17008 0.69567 0.0
H2776 H 0.81714 0.21049 0.75096 0.0
H2777 H 0.81645 0.23667 0.68583 0.0
H2778 H 0.80341 0.2427 0.65361 0.0
H2779 H 0.76042 0.27479 0.67944 0.0
H2780 H 0.77311 0.26871 0.71186 0.0
H2781 H 0.86638 0.30326 0.75787 0.0
H2782 H 0.85279 0.27061 0.75036 0.0
H2783 H 0.802 0.2944 0.766 0.0
H2784 H 0.81573 0.32689 0.77442 0.0
H2785 H 0.80676 0.27982 0.72606 0.0
H2786 H 0.81408 0.25863 0.79169 0.0
H2787 H 0.83051 0.25298 0.82203 0.0
H2788 H 0.86545 0.21227 0.79289 0.0
H2789 H 0.84941 0.21793 0.76228 0.0
C2790 C 0.78287 0.19409 0.69172 0.0
C2791 C 0.79689 0.1817 0.68554 0.0
C2792 C 0.78528 0.20816 0.70658 0.0
C2793 C 0.80175 0.21011 0.71571 0.0
C2794 C 0.81468 0.19556 0.71191 0.0
C2795 C 0.81205 0.18114 0.69744 0.0
C2796 C 0.80617 0.22819 0.72765 0.0
C2797 C 0.81486 0.22563 0.7455 0.0
C2798 C 0.8031 0.24806 0.72071 0.0
C2799 C 0.79561 0.25204 0.70125 0.0
C2800 C 0.80418 0.24495 0.68462 0.0
C2801 C 0.79686 0.24837 0.66634 0.0
C2802 C 0.78107 0.25906 0.66448 0.0
C2803 C 0.77262 0.26645 0.68091 0.0
C2804 C 0.77987 0.26303 0.69924 0.0
C2805 C 0.85249 0.30118 0.76069 0.0
C2806 C 0.84214 0.31738 0.76718 0.0
C2807 C 0.84471 0.2826 0.75623 0.0
C2808 C 0.82642 0.28009 0.75775 0.0
C2809 C 0.81616 0.296 0.76494 0.0
C2810 C 0.82399 0.31446 0.76978 0.0
C2811 C 0.81793 0.26205 0.74911 0.0
C2812 C 0.80862 0.26467 0.73175 0.0
C2813 C 0.82094 0.24233 0.75623 0.0
C2814 C 0.83059 0.23883 0.77463 0.0
C2815 C 0.82536 0.24861 0.7917 0.0
C2816 C 0.83459 0.24538 0.80896 0.0
C2817 C 0.84903 0.2323 0.80938 0.0
C2818 C 0.85426 0.2224 0.79254 0.0
C2819 C 0.84509 0.2256 0.77523 0.0
H2820 H 0.85616 0.22981 0.82276 0.0
H2821 H 0.7754 0.26167 0.65031 0.0
H2822 H 0.79425 0.74225 0.63309 0.0
H2823 H 0.76965 0.76199 0.64553 0.0
H2824 H 0.77934 0.80802 0.60262 0.0
H2825 H 0.80476 0.78867 0.59104 0.0
H2826 H 0.77538 0.82568 0.63424 0.0
H2827 H 0.74101 0.77547 0.60279 0.0
H2828 H 0.73137 0.74128 0.59333 0.0
H2829 H 0.7193 0.72759 0.6524 0.0
H2830 H 0.7291 0.76162 0.66227 0.0
H2831 H 0.69543 0.877 0.66141 0.0
H2832 H 0.71729 0.85762 0.64315 0.0
H2833 H 0.72357 0.81682 0.6913 0.0
H2834 H 0.70181 0.83619 0.70963 0.0
H2835 H 0.71766 0.79778 0.65413 0.0
H2836 H 0.75419 0.84948 0.68419 0.0
H2837 H 0.76159 0.88502 0.69131 0.0
H2838 H 0.76719 0.89702 0.63071 0.0
H2839 H 0.75952 0.86161 0.62321 0.0
C2840 C 0.79076 0.75633 0.62602 0.0
C2841 C 0.8011 0.76389 0.61097 0.0
C2842 C 0.77667 0.76762 0.63308 0.0
C2843 C 0.77237 0.78646 0.62487 0.0
C2844 C 0.78234 0.79357 0.60922 0.0
C2845 C 0.79672 0.78247 0.60247 0.0
C2846 C 0.75851 0.79939 0.63371 0.0
C2847 C 0.76264 0.8196 0.63819 0.0
C2848 C 0.74188 0.79157 0.63915 0.0
C2849 C 0.73592 0.77108 0.63328 0.0
C2850 C 0.73642 0.76513 0.61379 0.0
C2851 C 0.7309 0.74578 0.60835 0.0
C2852 C 0.72476 0.73226 0.62226 0.0
C2853 C 0.72407 0.73808 0.64164 0.0
C2854 C 0.72958 0.75741 0.64716 0.0
C2855 C 0.70163 0.86401 0.66812 0.0
C2856 C 0.69705 0.85813 0.68694 0.0
C2857 C 0.71406 0.85297 0.65771 0.0
C2858 C 0.72197 0.83579 0.66589 0.0
C2859 C 0.71756 0.83002 0.68475 0.0
C2860 C 0.7053 0.8412 0.69526 0.0
C2861 C 0.73476 0.82368 0.65475 0.0
C2862 C 0.73038 0.80373 0.6499 0.0
C2863 C 0.75096 0.83184 0.64857 0.0
C2864 C 0.75612 0.85295 0.65313 0.0
C2865 C 0.7569 0.85973 0.67238 0.0
C2866 C 0.76115 0.87984 0.67648 0.0
C2867 C 0.76481 0.89328 0.66147 0.0
C2868 C 0.76432 0.8866 0.64232 0.0
C2869 C 0.76004 0.86651 0.63814 0.0
H2870 H 0.76805 0.90886 0.66467 0.0
H2871 H 0.7205 0.71728 0.61802 0.0
H2872 H 0.28233 0.11172 0.29986 0.0
H2873 H 0.29789 0.12085 0.27031 0.0
H2874 H 0.24896 0.14042 0.24439 0.0
H2875 H 0.23326 0.131 0.27394 0.0
H2876 H 0.27211 0.12325 0.21738 0.0
H2877 H 0.27255 0.17427 0.26621 0.0
H2878 H 0.27661 0.1875 0.29922 0.0
H2879 H 0.33144 0.17175 0.29761 0.0
H2880 H 0.32762 0.15806 0.26469 0.0
H2881 H 0.31466 0.1937 0.15283 0.0
H2882 H 0.2953 0.17891 0.17748 0.0
H2883 H 0.34077 0.15466 0.20716 0.0
H2884 H 0.35998 0.16907 0.18241 0.0
H2885 H 0.31742 0.17543 0.23136 0.0
H2886 H 0.31616 0.12441 0.18154 0.0
H2887 H 0.31125 0.11201 0.14837 0.0
H2888 H 0.25689 0.12952 0.15133 0.0
H2889 H 0.26156 0.14239 0.18443 0.0
C2890 C 0.27485 0.11749 0.28766 0.0
C2891 C 0.25666 0.12087 0.28918 0.0
C2892 C 0.28373 0.12271 0.27082 0.0
C2893 C 0.27461 0.13169 0.25533 0.0
C2894 C 0.25622 0.13355 0.2562 0.0
C2895 C 0.24728 0.12815 0.27305 0.0
C2896 C 0.2846 0.14126 0.23946 0.0
C2897 C 0.28187 0.13482 0.22036 0.0
C2898 C 0.29732 0.15638 0.2434 0.0
C2899 C 0.29977 0.16497 0.26304 0.0
C2900 C 0.28545 0.1735 0.27294 0.0
C2901 C 0.28771 0.18109 0.29163 0.0
C2902 C 0.30427 0.18043 0.30052 0.0
C2903 C 0.31861 0.17223 0.29071 0.0
C2904 C 0.31642 0.16456 0.27202 0.0
C2905 C 0.32041 0.18526 0.16471 0.0
C2906 C 0.33873 0.18289 0.16614 0.0
C2907 C 0.30941 0.17677 0.17866 0.0
C2908 C 0.31664 0.16575 0.19414 0.0
C2909 C 0.33496 0.16324 0.19541 0.0
C2910 C 0.3459 0.17153 0.18139 0.0
C2911 C 0.30526 0.1571 0.20931 0.0
C2912 C 0.30765 0.16387 0.22833 0.0
C2913 C 0.29212 0.14251 0.2052 0.0
C2914 C 0.28926 0.13457 0.18539 0.0
C2915 C 0.3032 0.12579 0.17506 0.0
C2916 C 0.30045 0.11865 0.15628 0.0
C2917 C 0.28378 0.12002 0.14773 0.0
C2918 C 0.26981 0.1285 0.15796 0.0
C2919 C 0.27249 0.13571 0.17674 0.0
H2920 H 0.28168 0.11448 0.13319 0.0
H2921 H 0.30599 0.18631 0.315 0.0
H2922 H 0.86368 0.33728 0.32399 0.0
H2923 H 0.84459 0.35425 0.30039 0.0
H2924 H 0.79879 0.33022 0.32897 0.0
H2925 H 0.81806 0.31287 0.35244 0.0
H2926 H 0.79575 0.32663 0.29041 0.0
H2927 H 0.80973 0.37935 0.33423 0.0
H2928 H 0.82877 0.4009 0.35453 0.0
H2929 H 0.85513 0.42276 0.304 0.0
H2930 H 0.83647 0.40104 0.28339 0.0
H2931 H 0.74218 0.38561 0.228 0.0
H2932 H 0.75522 0.37585 0.25912 0.0
H2933 H 0.80699 0.38881 0.23706 0.0
H2934 H 0.79401 0.39859 0.20597 0.0
H2935 H 0.80298 0.39967 0.27608 0.0
H2936 H 0.79156 0.34279 0.23346 0.0
H2937 H 0.77269 0.32076 0.21339 0.0
H2938 H 0.7409 0.30697 0.26271 0.0
H2939 H 0.75942 0.32924 0.28303 0.0
C2940 C 0.84953 0.33554 0.32506 0.0
C2941 C 0.84223 0.32363 0.33972 0.0
C2942 C 0.83864 0.34536 0.31174 0.0
C2943 C 0.82024 0.34372 0.31305 0.0
C2944 C 0.81293 0.33172 0.32771 0.0
C2945 C 0.82388 0.32184 0.34105 0.0
C2946 C 0.80878 0.35424 0.29877 0.0
C2947 C 0.79704 0.3427 0.28758 0.0
C2948 C 0.81058 0.37517 0.29495 0.0
C2949 C 0.82175 0.38844 0.30726 0.0
C2950 C 0.81966 0.38864 0.32744 0.0
C2951 C 0.83039 0.4009 0.33901 0.0
C2952 C 0.84317 0.41317 0.33056 0.0
C2953 C 0.84523 0.41324 0.31052 0.0
C2954 C 0.83457 0.40096 0.29889 0.0
C2955 C 0.75629 0.38696 0.23001 0.0
C2956 C 0.76713 0.39272 0.21459 0.0
C2957 C 0.76372 0.38125 0.24773 0.0
C2958 C 0.78207 0.38134 0.25027 0.0
C2959 C 0.7928 0.38857 0.23536 0.0
C2960 C 0.7854 0.39406 0.21761 0.0
C2961 C 0.79032 0.37197 0.26754 0.0
C2962 C 0.80146 0.38371 0.27923 0.0
C2963 C 0.78789 0.35124 0.27191 0.0
C2964 C 0.77675 0.33786 0.25971 0.0
C2965 C 0.78045 0.33521 0.23999 0.0
C2966 C 0.76983 0.32266 0.22858 0.0
C2967 C 0.75561 0.31248 0.23678 0.0
C2968 C 0.75193 0.31487 0.25639 0.0
C2969 C 0.76247 0.32747 0.26786 0.0
H2970 H 0.74747 0.30268 0.22794 0.0
H2971 H 0.85145 0.42266 0.33954 0.0
H2972 H 0.69492 0.80266 0.16901 0.0
H2973 H 0.71532 0.81667 0.19334 0.0
H2974 H 0.67133 0.84295 0.22351 0.0
H2975 H 0.65112 0.82932 0.19903 0.0
H2976 H 0.69866 0.86939 0.22041 0.0
H2977 H 0.6909 0.79827 0.2386 0.0
H2978 H 0.6926 0.76179 0.23144 0.0
H2979 H 0.74796 0.76727 0.22052 0.0
H2980 H 0.74655 0.80388 0.22735 0.0
H2981 H 0.71989 0.88569 0.31701 0.0
H2982 H 0.70911 0.87645 0.28493 0.0
H2983 H 0.7589 0.84772 0.27263 0.0
H2984 H 0.76924 0.85604 0.30543 0.0
H2985 H 0.73468 0.82392 0.26174 0.0
H2986 H 0.74431 0.89317 0.24912 0.0
H2987 H 0.74364 0.92994 0.25484 0.0
H2988 H 0.68713 0.9292 0.25311 0.0
H2989 H 0.68743 0.89238 0.24758 0.0
C2990 C 0.68973 0.81132 0.18097 0.0
C2991 C 0.67154 0.81458 0.18257 0.0
C2992 C 0.70132 0.81933 0.19479 0.0
C2993 C 0.69482 0.8307 0.21035 0.0
C2994 C 0.67663 0.83421 0.21166 0.0
C2995 C 0.66509 0.82626 0.19786 0.0
C2996 C 0.70674 0.83868 0.22563 0.0
C2997 C 0.7065 0.85949 0.22953 0.0
C2998 C 0.71763 0.82588 0.23689 0.0
C2999 C 0.71859 0.80381 0.23334 0.0
C3000 C 0.70342 0.7917 0.23461 0.0
C3001 C 0.70434 0.77102 0.23059 0.0
C3002 C 0.72038 0.76225 0.22546 0.0
C3003 C 0.73555 0.77412 0.22443 0.0
C3004 C 0.73471 0.79483 0.22841 0.0
C3005 C 0.72856 0.87766 0.3073 0.0
C3006 C 0.74527 0.87142 0.31356 0.0
C3007 C 0.72249 0.87251 0.28889 0.0
C3008 C 0.73326 0.86162 0.27611 0.0
C3009 C 0.75033 0.85614 0.28216 0.0
C3010 C 0.75628 0.86098 0.30078 0.0
C3011 C 0.72601 0.85466 0.2572 0.0
C3012 C 0.72717 0.83402 0.25249 0.0
C3013 C 0.71619 0.86772 0.24498 0.0
C3014 C 0.7159 0.88996 0.24798 0.0
C3015 C 0.73173 0.90083 0.25001 0.0
C3016 C 0.73142 0.92169 0.25321 0.0
C3017 C 0.71535 0.9319 0.2543 0.0
C3018 C 0.69956 0.92127 0.25219 0.0
C3019 C 0.6998 0.90041 0.24898 0.0
H3020 H 0.71513 0.94805 0.25682 0.0
H3021 H 0.72106 0.74624 0.22231 0.0
H3022 H 0.2174 0.62115 0.20205 0.0
H3023 H 0.20315 0.63132 0.23209 0.0
H3024 H 0.25366 0.64761 0.25633 0.0
H3025 H 0.26803 0.63712 0.22627 0.0
H3026 H 0.23006 0.63222 0.28416 0.0
H3027 H 0.23168 0.68282 0.23484 0.0
H3028 H 0.22768 0.69582 0.20173 0.0
H3029 H 0.17212 0.6844 0.20496 0.0
H3030 H 0.17585 0.67095 0.23798 0.0
H3031 H 0.1926 0.70339 0.35078 0.0
H3032 H 0.21071 0.68952 0.32458 0.0
H3033 H 0.16369 0.66869 0.29546 0.0
H3034 H 0.1457 0.68215 0.32174 0.0
H3035 H 0.18775 0.68785 0.27087 0.0
H3036 H 0.18679 0.63665 0.32058 0.0
H3037 H 0.19137 0.62397 0.35372 0.0
H3038 H 0.2465 0.63774 0.35011 0.0
H3039 H 0.24218 0.65087 0.31705 0.0
C3040 C 0.22549 0.62635 0.214 0.0
C3041 C 0.24375 0.62856 0.21186 0.0
C3042 C 0.21736 0.63218 0.23111 0.0
C3043 C 0.22733 0.64061 0.24624 0.0
C3044 C 0.24575 0.64118 0.24479 0.0
C3045 C 0.25394 0.63517 0.22766 0.0
C3046 C 0.21829 0.65109 0.26227 0.0
C3047 C 0.22098 0.64455 0.28133 0.0
C3048 C 0.20644 0.66718 0.25851 0.0
C3049 C 0.20407 0.67572 0.23883 0.0
C3050 C 0.21863 0.68297 0.22845 0.0
C3051 C 0.21641 0.69041 0.2097 0.0
C3052 C 0.19966 0.6909 0.20124 0.0
C3053 C 0.18509 0.684 0.21153 0.0
C3054 C 0.18725 0.67646 0.23027 0.0
C3055 C 0.18622 0.69612 0.33858 0.0
C3056 C 0.16782 0.69422 0.3379 0.0
C3057 C 0.19652 0.68812 0.32375 0.0
C3058 C 0.1885 0.67808 0.30813 0.0
C3059 C 0.17009 0.67652 0.30732 0.0
C3060 C 0.15984 0.68431 0.32221 0.0
C3061 C 0.19921 0.66873 0.29275 0.0
C3062 C 0.19689 0.67559 0.27376 0.0
C3063 C 0.21148 0.6531 0.29665 0.0
C3064 C 0.21413 0.64495 0.31642 0.0
C3065 C 0.19987 0.63713 0.32691 0.0
C3066 C 0.20241 0.62984 0.34567 0.0
C3067 C 0.21921 0.6301 0.35404 0.0
C3068 C 0.23349 0.63759 0.34363 0.0
C3069 C 0.231 0.64495 0.32487 0.0
H3070 H 0.22115 0.62445 0.36856 0.0
H3071 H 0.19797 0.69667 0.18671 0.0
H3072 H 0.34899 0.82599 0.80087 0.0
H3073 H 0.32808 0.8388 0.77661 0.0
H3074 H 0.2865 0.80402 0.80272 0.0
H3075 H 0.30751 0.79127 0.82712 0.0
H3076 H 0.28653 0.80325 0.76106 0.0
H3077 H 0.28727 0.85074 0.8131 0.0
H3078 H 0.30127 0.87287 0.83738 0.0
H3079 H 0.32494 0.90789 0.79227 0.0
H3080 H 0.31132 0.88577 0.7677 0.0
H3081 H 0.22768 0.85342 0.69846 0.0
H3082 H 0.23897 0.84252 0.73013 0.0
H3083 H 0.28574 0.87843 0.72147 0.0
H3084 H 0.27402 0.88998 0.69036 0.0
H3085 H 0.27837 0.87767 0.75834 0.0
H3086 H 0.28242 0.82741 0.70722 0.0
H3087 H 0.26915 0.80589 0.68193 0.0
H3088 H 0.23749 0.77618 0.7245 0.0
H3089 H 0.2503 0.79787 0.75003 0.0
C3090 C 0.33545 0.82082 0.80112 0.0
C3091 C 0.32978 0.80752 0.81555 0.0
C3092 C 0.32352 0.82821 0.78741 0.0
C3093 C 0.30573 0.82247 0.78799 0.0
C3094 C 0.30017 0.80859 0.80203 0.0
C3095 C 0.31212 0.80131 0.81588 0.0
C3096 C 0.29293 0.83175 0.77438 0.0
C3097 C 0.28444 0.81947 0.76068 0.0
C3098 C 0.29036 0.85293 0.77382 0.0
C3099 C 0.29835 0.8665 0.78855 0.0
C3100 C 0.29555 0.86308 0.80835 0.0
C3101 C 0.30341 0.87564 0.82217 0.0
C3102 C 0.31401 0.89176 0.81637 0.0
C3103 C 0.31673 0.8954 0.79674 0.0
C3104 C 0.30892 0.88287 0.78285 0.0
C3105 C 0.24009 0.85943 0.70372 0.0
C3106 C 0.25017 0.87227 0.69208 0.0
C3107 C 0.2466 0.8531 0.72168 0.0
C3108 C 0.26345 0.85919 0.72794 0.0
C3109 C 0.27278 0.87341 0.71694 0.0
C3110 C 0.26613 0.87999 0.69918 0.0
C3111 C 0.27234 0.84926 0.74462 0.0
C3112 C 0.28014 0.86141 0.75892 0.0
C3113 C 0.27439 0.82796 0.74564 0.0
C3114 C 0.26721 0.81435 0.73049 0.0
C3115 C 0.2726 0.81631 0.71118 0.0
C3116 C 0.26512 0.80413 0.69681 0.0
C3117 C 0.25243 0.78973 0.70161 0.0
C3118 C 0.24726 0.78741 0.72082 0.0
C3119 C 0.25463 0.79964 0.73525 0.0
H3120 H 0.24662 0.78034 0.69047 0.0
H3121 H 0.3201 0.90145 0.8271 0.0
H3122 H 0.25756 0.35372 0.77902 0.0
H3123 H 0.24301 0.34867 0.74776 0.0
H3124 H 0.21638 0.40589 0.75405 0.0
H3125 H 0.23094 0.41084 0.7856 0.0
H3126 H 0.19372 0.37515 0.74692 0.0
H3127 H 0.24685 0.39942 0.71855 0.0
H3128 H 0.27892 0.40139 0.71358 0.0
H3129 H 0.27974 0.33927 0.69565 0.0
H3130 H 0.24769 0.33684 0.70072 0.0
H3131 H 0.14822 0.36007 0.65892 0.0
H3132 H 0.168 0.37529 0.68295 0.0
H3133 H 0.20038 0.32167 0.68205 0.0
H3134 H 0.18085 0.30676 0.65746 0.0
H3135 H 0.22058 0.35492 0.68471 0.0
H3136 H 0.16936 0.3289 0.7163 0.0
H3137 H 0.13756 0.32506 0.72216 0.0
H3138 H 0.1336 0.38825 0.7356 0.0
H3139 H 0.16535 0.39256 0.72946 0.0
C3140 C 0.24898 0.36545 0.7734 0.0
C3141 C 0.24542 0.38273 0.78446 0.0
C3142 C 0.2407 0.3626 0.75557 0.0
C3143 C 0.22868 0.37698 0.7485 0.0
C3144 C 0.22566 0.39468 0.75922 0.0
C3145 C 0.23403 0.39757 0.7771 0.0
C3146 C 0.21791 0.37229 0.73109 0.0
C3147 C 0.19956 0.37122 0.73316 0.0
C3148 C 0.22559 0.36649 0.71336 0.0
C3149 C 0.24486 0.36793 0.71013 0.0
C3150 C 0.25388 0.38614 0.71366 0.0
C3151 C 0.27205 0.38735 0.7108 0.0
C3152 C 0.28136 0.37046 0.70433 0.0
C3153 C 0.27251 0.35234 0.70065 0.0
C3154 C 0.25433 0.35106 0.70348 0.0
C3155 C 0.1598 0.3518 0.66357 0.0
C3156 C 0.16327 0.33244 0.65622 0.0
C3157 C 0.171 0.3604 0.67738 0.0
C3158 C 0.1856 0.34956 0.68444 0.0
C3159 C 0.18926 0.33035 0.67676 0.0
C3160 C 0.17811 0.32182 0.66281 0.0
C3161 C 0.19643 0.35768 0.70062 0.0
C3162 C 0.21474 0.35925 0.69836 0.0
C3163 C 0.18876 0.36369 0.71831 0.0
C3164 C 0.16969 0.3611 0.72218 0.0
C3165 C 0.16169 0.34202 0.72035 0.0
C3166 C 0.14367 0.33975 0.72373 0.0
C3167 C 0.13356 0.35641 0.72919 0.0
C3168 C 0.14145 0.37537 0.73133 0.0
C3169 C 0.15945 0.37773 0.72788 0.0
H3170 H 0.11961 0.35463 0.73182 0.0
H3171 H 0.29544 0.37143 0.70214 0.0
H3172 H 0.72465 0.10881 0.71281 0.0
H3173 H 0.70965 0.11797 0.74275 0.0
H3174 H 0.75574 0.15072 0.76173 0.0
H3175 H 0.77095 0.14108 0.73194 0.0
H3176 H 0.73721 0.13388 0.79261 0.0
H3177 H 0.7257 0.17508 0.73668 0.0
H3178 H 0.71746 0.1806 0.70257 0.0
H3179 H 0.66659 0.15456 0.71284 0.0
H3180 H 0.67466 0.14854 0.74695 0.0
H3181 H 0.69137 0.20661 0.8508 0.0
H3182 H 0.71038 0.19007 0.82685 0.0
H3183 H 0.66529 0.15806 0.804 0.0
H3184 H 0.6464 0.17474 0.82776 0.0
H3185 H 0.68438 0.17458 0.77569 0.0
H3186 H 0.69579 0.13463 0.83245 0.0
H3187 H 0.70454 0.12909 0.86639 0.0
H3188 H 0.75579 0.15347 0.85483 0.0
H3189 H 0.74724 0.15949 0.82087 0.0
C3190 C 0.73175 0.11735 0.72371 0.0
C3191 C 0.74885 0.12436 0.72014 0.0
C3192 C 0.72319 0.12262 0.74075 0.0
C3193 C 0.73146 0.1354 0.75424 0.0
C3194 C 0.74913 0.14089 0.75149 0.0
C3195 C 0.7578 0.13537 0.73451 0.0
C3196 C 0.72092 0.1453 0.76949 0.0
C3197 C 0.72574 0.14293 0.78896 0.0
C3198 C 0.70592 0.15704 0.76468 0.0
C3199 C 0.70084 0.16121 0.74432 0.0
C3200 C 0.71279 0.17045 0.73164 0.0
C3201 C 0.70815 0.17366 0.71231 0.0
C3202 C 0.69152 0.1679 0.70554 0.0
C3203 C 0.67947 0.15899 0.71811 0.0
C3204 C 0.68407 0.15568 0.73744 0.0
C3205 C 0.68564 0.19607 0.84057 0.0
C3206 C 0.66753 0.19205 0.84077 0.0
C3207 C 0.69645 0.18655 0.82703 0.0
C3208 C 0.68925 0.17274 0.81371 0.0
C3209 C 0.67111 0.16869 0.81409 0.0
C3210 C 0.66035 0.1782 0.82758 0.0
C3211 C 0.70042 0.16292 0.79893 0.0
C3212 C 0.69578 0.16547 0.77944 0.0
C3213 C 0.71559 0.15148 0.80379 0.0
C3214 C 0.72081 0.1477 0.82416 0.0
C3215 C 0.70888 0.13896 0.83718 0.0
C3216 C 0.71381 0.13571 0.85642 0.0
C3217 C 0.7307 0.14096 0.86278 0.0
C3218 C 0.7427 0.14943 0.84989 0.0
C3219 C 0.73782 0.15276 0.83064 0.0
H3220 H 0.73449 0.13843 0.87768 0.0
H3221 H 0.68796 0.17037 0.69056 0.0
H3222 H 0.85778 0.67879 0.67731 0.0
H3223 H 0.83905 0.6652 0.70299 0.0
H3224 H 0.79485 0.69882 0.68022 0.0
H3225 H 0.81367 0.71235 0.65443 0.0
H3226 H 0.79827 0.70084 0.7206 0.0
H3227 H 0.79724 0.6507 0.67078 0.0
H3228 H 0.8106 0.62752 0.64718 0.0
H3229 H 0.83625 0.59514 0.69317 0.0
H3230 H 0.82332 0.61839 0.71705 0.0
H3231 H 0.73527 0.65007 0.77842 0.0
H3232 H 0.75002 0.66126 0.74879 0.0
H3233 H 0.7972 0.62982 0.76644 0.0
H3234 H 0.78253 0.61878 0.79609 0.0
H3235 H 0.79044 0.62667 0.7269 0.0
H3236 H 0.79292 0.67663 0.77648 0.0
H3237 H 0.78316 0.70171 0.80039 0.0
H3238 H 0.75777 0.73602 0.75554 0.0
H3239 H 0.76663 0.71063 0.73145 0.0
C3240 C 0.84412 0.68345 0.67805 0.0
C3241 C 0.83708 0.6967 0.66421 0.0
C3242 C 0.83343 0.67559 0.69255 0.0
C3243 C 0.81553 0.68083 0.69335 0.0
C3244 C 0.80862 0.69457 0.6798 0.0
C3245 C 0.81931 0.70232 0.66519 0.0
C3246 C 0.80406 0.67181 0.70828 0.0
C3247 C 0.79618 0.68466 0.72177 0.0
C3248 C 0.80187 0.65065 0.71001 0.0
C3249 C 0.80941 0.63641 0.69571 0.0
C3250 C 0.80583 0.63873 0.67587 0.0
C3251 C 0.81331 0.62557 0.66243 0.0
C3252 C 0.82428 0.60988 0.66867 0.0
C3253 C 0.82775 0.60731 0.68836 0.0
C3254 C 0.82034 0.62047 0.70186 0.0
C3255 C 0.74861 0.64509 0.77564 0.0
C3256 C 0.75781 0.63351 0.78938 0.0
C3257 C 0.75706 0.65166 0.75887 0.0
C3258 C 0.77476 0.64663 0.75559 0.0
C3259 C 0.78355 0.63391 0.76871 0.0
C3260 C 0.77519 0.62757 0.78557 0.0
C3261 C 0.78453 0.65573 0.73928 0.0
C3262 C 0.79219 0.64288 0.72556 0.0
C3263 C 0.78663 0.67694 0.73742 0.0
C3264 C 0.78018 0.69146 0.75216 0.0
C3265 C 0.78488 0.68923 0.77174 0.0
C3266 C 0.77956 0.70356 0.78534 0.0
C3267 C 0.76985 0.72045 0.77949 0.0
C3268 C 0.76532 0.72295 0.76005 0.0
C3269 C 0.77034 0.70848 0.74645 0.0
H3270 H 0.76582 0.73159 0.79003 0.0
H3271 H 0.83007 0.59971 0.65825 0.0
H3272 H 0.18 0.33176 0.17141 0.0
H3273 H 0.20219 0.31229 0.15409 0.0
H3274 H 0.24055 0.359 0.16517 0.0
H3275 H 0.21824 0.37875 0.18254 0.0
H3276 H 0.23983 0.34364 0.12591 0.0
H3277 H 0.242 0.31922 0.19187 0.0
H3278 H 0.22884 0.30533 0.22151 0.0
H3279 H 0.21135 0.25299 0.19013 0.0
H3280 H 0.22414 0.26675 0.16021 0.0
H3281 H 0.32023 0.29285 0.11135 0.0
H3282 H 0.2943 0.31257 0.11956 0.0
H3283 H 0.26292 0.25816 0.11977 0.0
H3284 H 0.28919 0.23817 0.11269 0.0
H3285 H 0.25803 0.27672 0.15149 0.0
H3286 H 0.25503 0.29879 0.08616 0.0
H3287 H 0.26562 0.31203 0.05503 0.0
H3288 H 0.2824 0.3668 0.08284 0.0
H3289 H 0.27184 0.35392 0.11414 0.0
C3290 C 0.19312 0.338 0.17001 0.0
C3291 C 0.1974 0.35682 0.17824 0.0
C3292 C 0.20578 0.32681 0.16019 0.0
C3293 C 0.22298 0.33421 0.15841 0.0
C3294 C 0.2273 0.3531 0.16639 0.0
C3295 C 0.21463 0.36426 0.1764 0.0
C3296 C 0.23651 0.32185 0.14867 0.0
C3297 C 0.24401 0.3291 0.13156 0.0
C3298 C 0.24133 0.30254 0.15568 0.0
C3299 C 0.23387 0.29412 0.17375 0.0
C3300 C 0.23522 0.30483 0.19125 0.0
C3301 C 0.22785 0.29697 0.20811 0.0
C3302 C 0.21921 0.27832 0.20769 0.0
C3303 C 0.21801 0.26746 0.19043 0.0
C3304 C 0.22533 0.27527 0.17352 0.0
C3305 C 0.30776 0.2851 0.11294 0.0
C3306 C 0.30684 0.2639 0.11181 0.0
C3307 C 0.29284 0.29645 0.11736 0.0
C3308 C 0.27657 0.28691 0.12032 0.0
C3309 C 0.27534 0.26588 0.11766 0.0
C3310 C 0.29034 0.25447 0.11345 0.0
C3311 C 0.26161 0.29848 0.12862 0.0
C3312 C 0.25381 0.29113 0.14558 0.0
C3313 C 0.25629 0.31752 0.12126 0.0
C3314 C 0.26277 0.32532 0.10252 0.0
C3315 C 0.26106 0.31362 0.08565 0.0
C3316 C 0.26699 0.32109 0.06797 0.0
C3317 C 0.27474 0.34021 0.06697 0.0
C3318 C 0.27642 0.35198 0.08364 0.0
C3319 C 0.27039 0.34464 0.10134 0.0
H3320 H 0.27941 0.34591 0.05328 0.0
H3321 H 0.2135 0.27227 0.22076 0.0
H3322 H 0.28165 0.75688 0.87123 0.0
H3323 H 0.25633 0.73481 0.86511 0.0
H3324 H 0.28981 0.68246 0.87018 0.0
H3325 H 0.31502 0.70425 0.87716 0.0
H3326 H 0.27061 0.68698 0.8339 0.0
H3327 H 0.26185 0.68657 0.90235 0.0
H3328 H 0.2581 0.70208 0.93444 0.0
H3329 H 0.21101 0.73176 0.91471 0.0
H3330 H 0.21466 0.71668 0.88238 0.0
H3331 H 0.20516 0.61363 0.81504 0.0
H3332 H 0.2292 0.63193 0.83107 0.0
H3333 H 0.1951 0.6834 0.83898 0.0
H3334 H 0.17107 0.66518 0.82316 0.0
H3335 H 0.21509 0.67818 0.87031 0.0
H3336 H 0.22438 0.6818 0.80199 0.0
H3337 H 0.22801 0.66842 0.76901 0.0
H3338 H 0.2738 0.63529 0.78733 0.0
H3339 H 0.27029 0.64826 0.8205 0.0
C3340 C 0.28354 0.74067 0.87167 0.0
C3341 C 0.30044 0.73235 0.87438 0.0
C3342 C 0.26907 0.72809 0.86807 0.0
C3343 C 0.2713 0.70706 0.86703 0.0
C3344 C 0.2879 0.69868 0.87079 0.0
C3345 C 0.30229 0.71118 0.87466 0.0
C3346 C 0.25678 0.69397 0.8601 0.0
C3347 C 0.25858 0.68473 0.842 0.0
C3348 C 0.24095 0.69164 0.87045 0.0
C3349 C 0.23864 0.70066 0.88989 0.0
C3350 C 0.25079 0.69656 0.9048 0.0
C3351 C 0.24867 0.70524 0.92304 0.0
C3352 C 0.23435 0.71794 0.9266 0.0
C3353 C 0.22211 0.72194 0.91192 0.0
C3354 C 0.22419 0.71332 0.89364 0.0
C3355 C 0.2028 0.62882 0.82025 0.0
C3356 C 0.18624 0.63797 0.81779 0.0
C3357 C 0.21652 0.63925 0.82943 0.0
C3358 C 0.214 0.65913 0.83605 0.0
C3359 C 0.19733 0.66806 0.83409 0.0
C3360 C 0.18361 0.65761 0.82504 0.0
C3361 C 0.22892 0.67106 0.84408 0.0
C3362 C 0.22718 0.68022 0.86229 0.0
C3363 C 0.24477 0.67359 0.83371 0.0
C3364 C 0.24696 0.66581 0.81377 0.0
C3365 C 0.23514 0.67153 0.79902 0.0
C3366 C 0.23719 0.66404 0.78029 0.0
C3367 C 0.25109 0.65097 0.77609 0.0
C3368 C 0.26301 0.64539 0.79061 0.0
C3369 C 0.26101 0.65281 0.80938 0.0
H3370 H 0.25266 0.64519 0.76158 0.0
H3371 H 0.23271 0.72465 0.94073 0.0
H3372 H 0.31147 0.30459 0.84029 0.0
H3373 H 0.32615 0.28542 0.81514 0.0
H3374 H 0.32073 0.33613 0.77619 0.0
H3375 H 0.30378 0.35422 0.80072 0.0
H3376 H 0.31835 0.30714 0.75556 0.0
H3377 H 0.3614 0.32226 0.80116 0.0
H3378 H 0.37598 0.32629 0.83284 0.0
H3379 H 0.37548 0.26196 0.841 0.0
H3380 H 0.36063 0.25754 0.80951 0.0
H3381 H 0.39345 0.22569 0.73234 0.0
H3382 H 0.38487 0.25859 0.74547 0.0
H3383 H 0.33056 0.24584 0.73097 0.0
H3384 H 0.33941 0.21369 0.71678 0.0
H3385 H 0.36892 0.26416 0.7749 0.0
H3386 H 0.30397 0.28636 0.73076 0.0
H3387 H 0.29538 0.29237 0.69687 0.0
H3388 H 0.34978 0.29514 0.68068 0.0
H3389 H 0.35876 0.28975 0.71452 0.0
C3390 C 0.31272 0.31128 0.82609 0.0
C3391 C 0.30587 0.33054 0.82218 0.0
C3392 C 0.32166 0.30057 0.81185 0.0
C3393 C 0.32507 0.30942 0.79377 0.0
C3394 C 0.31831 0.32882 0.78991 0.0
C3395 C 0.30868 0.33919 0.80393 0.0
C3396 C 0.33546 0.29822 0.779 0.0
C3397 C 0.32945 0.2978 0.75975 0.0
C3398 C 0.35079 0.28711 0.78399 0.0
C3399 C 0.35981 0.28958 0.80297 0.0
C3400 C 0.3643 0.30897 0.80975 0.0
C3401 C 0.37262 0.31132 0.82768 0.0
C3402 C 0.37664 0.29439 0.83893 0.0
C3403 C 0.37237 0.27506 0.83226 0.0
C3404 C 0.36402 0.27262 0.81435 0.0
C3405 C 0.37982 0.23042 0.73124 0.0
C3406 C 0.36706 0.21732 0.72355 0.0
C3407 C 0.37486 0.24911 0.73893 0.0
C3408 C 0.35701 0.25481 0.73942 0.0
C3409 C 0.34445 0.24217 0.73054 0.0
C3410 C 0.34946 0.22369 0.72251 0.0
C3411 C 0.35112 0.27207 0.75167 0.0
C3412 C 0.358 0.2737 0.7705 0.0
C3413 C 0.33748 0.28539 0.74585 0.0
C3414 C 0.33205 0.2875 0.72526 0.0
C3415 C 0.31413 0.28829 0.72001 0.0
C3416 C 0.30919 0.29167 0.70079 0.0
C3417 C 0.32203 0.29417 0.68665 0.0
C3418 C 0.33985 0.29317 0.69165 0.0
C3419 C 0.34487 0.28993 0.71086 0.0
H3420 H 0.31819 0.29692 0.6718 0.0
H3421 H 0.38308 0.29624 0.85281 0.0
H3422 H 0.68067 0.30434 0.90235 0.0
H3423 H 0.7056 0.32641 0.8951 0.0
H3424 H 0.73908 0.27424 0.88858 0.0
H3425 H 0.71407 0.25203 0.89562 0.0
H3426 H 0.75629 0.31208 0.90386 0.0
H3427 H 0.72002 0.28638 0.85098 0.0
H3428 H 0.69113 0.27993 0.83571 0.0
H3429 H 0.68005 0.34358 0.83564 0.0
H3430 H 0.70875 0.35035 0.85132 0.0
H3431 H 0.8177 0.33999 0.83309 0.0
H3432 H 0.79543 0.32404 0.85313 0.0
H3433 H 0.76037 0.37431 0.84282 0.0
H3434 H 0.78269 0.39024 0.82229 0.0
H3435 H 0.74329 0.34031 0.83883 0.0
H3436 H 0.78145 0.36683 0.88738 0.0
H3437 H 0.80968 0.37357 0.90394 0.0
H3438 H 0.81713 0.30996 0.91321 0.0
H3439 H 0.78907 0.3028 0.89644 0.0
C3440 C 0.69348 0.29762 0.89992 0.0
C3441 C 0.69542 0.27651 0.89907 0.0
C3442 C 0.7077 0.31023 0.89591 0.0
C3443 C 0.72404 0.30189 0.89098 0.0
C3444 C 0.72653 0.28091 0.89234 0.0
C3445 C 0.71226 0.26825 0.89633 0.0
C3446 C 0.73719 0.31452 0.88094 0.0
C3447 C 0.75358 0.3182 0.88962 0.0
C3448 C 0.73339 0.32282 0.86254 0.0
C3449 C 0.71643 0.31884 0.85249 0.0
C3450 C 0.71137 0.29898 0.84781 0.0
C3451 C 0.69504 0.29527 0.83909 0.0
C3452 C 0.68374 0.31133 0.83475 0.0
C3453 C 0.6888 0.33115 0.83905 0.0
C3454 C 0.70509 0.33493 0.84785 0.0
C3455 C 0.80533 0.3478 0.8353 0.0
C3456 C 0.80198 0.36647 0.82631 0.0
C3457 C 0.79263 0.33868 0.84682 0.0
C3458 C 0.77635 0.34816 0.84987 0.0
C3459 C 0.77289 0.36678 0.84079 0.0
C3460 C 0.7856 0.37585 0.82905 0.0
C3461 C 0.76268 0.33795 0.86163 0.0
C3462 C 0.74609 0.33455 0.8532 0.0
C3463 C 0.76635 0.33004 0.88029 0.0
C3464 C 0.78319 0.33427 0.89052 0.0
C3465 C 0.78916 0.35426 0.89283 0.0
C3466 C 0.80513 0.35816 0.90227 0.0
C3467 C 0.81521 0.3422 0.90959 0.0
C3468 C 0.80932 0.32231 0.90752 0.0
C3469 C 0.79336 0.31832 0.89807 0.0
H3470 H 0.82757 0.34525 0.91689 0.0
H3471 H 0.67109 0.30843 0.82801 0.0
H3472 H 0.69624 0.66555 0.80633 0.0
H3473 H 0.68071 0.68901 0.78482 0.0
H3474 H 0.68158 0.73426 0.82983 0.0
H3475 H 0.69434 0.70977 0.85203 0.0
H3476 H 0.65366 0.73841 0.81387 0.0
H3477 H 0.71155 0.7269 0.78721 0.0
H3478 H 0.73467 0.70528 0.7735 0.0
H3479 H 0.7017 0.69224 0.72449 0.0
H3480 H 0.67773 0.71236 0.73872 0.0
H3481 H 0.66714 0.82183 0.73923 0.0
H3482 H 0.677 0.78919 0.75179 0.0
H3483 H 0.62293 0.77202 0.76156 0.0
H3484 H 0.61321 0.80534 0.75021 0.0
H3485 H 0.67495 0.75094 0.7474 0.0
H3486 H 0.6189 0.74743 0.80274 0.0
H3487 H 0.59782 0.77031 0.81872 0.0
H3488 H 0.63404 0.81971 0.81265 0.0
H3489 H 0.65538 0.79705 0.79685 0.0
C3490 C 0.69309 0.68057 0.81153 0.0
C3491 C 0.69729 0.68617 0.8306 0.0
C3492 C 0.68432 0.69404 0.79919 0.0
C3493 C 0.68045 0.71383 0.80531 0.0
C3494 C 0.68452 0.71926 0.82449 0.0
C3495 C 0.69234 0.70542 0.8371 0.0
C3496 C 0.67215 0.72902 0.79209 0.0
C3497 C 0.65841 0.74101 0.79934 0.0
C3498 C 0.67809 0.73259 0.77295 0.0
C3499 C 0.69274 0.72098 0.76417 0.0
C3500 C 0.70915 0.7193 0.77359 0.0
C3501 C 0.72241 0.70726 0.76573 0.0
C3502 C 0.71979 0.69765 0.74799 0.0
C3503 C 0.70374 0.69973 0.73822 0.0
C3504 C 0.69023 0.71126 0.74629 0.0
C3505 C 0.65738 0.81082 0.74357 0.0
C3506 C 0.63946 0.81602 0.74384 0.0
C3507 C 0.663 0.79215 0.75075 0.0
C3508 C 0.65076 0.77828 0.75813 0.0
C3509 C 0.63267 0.78267 0.75643 0.0
C3510 C 0.62708 0.80156 0.74968 0.0
C3511 C 0.65711 0.76061 0.76958 0.0
C3512 C 0.67028 0.7481 0.76192 0.0
C3513 C 0.65122 0.75702 0.78863 0.0
C3514 C 0.63859 0.77063 0.7984 0.0
C3515 C 0.62235 0.76317 0.80487 0.0
C3516 C 0.61037 0.77609 0.81389 0.0
C3517 C 0.61456 0.79647 0.81662 0.0
C3518 C 0.63078 0.80394 0.81045 0.0
C3519 C 0.64281 0.79108 0.80146 0.0
H3520 H 0.60525 0.80645 0.82357 0.0
H3521 H 0.73017 0.68859 0.7418 0.0
H3522 H 0.70453 0.74954 0.16569 0.0
H3523 H 0.73114 0.73033 0.17337 0.0
H3524 H 0.73721 0.71548 0.11308 0.0
H3525 H 0.71037 0.73489 0.10534 0.0
H3526 H 0.73877 0.68204 0.13661 0.0
H3527 H 0.76591 0.74656 0.13419 0.0
H3528 H 0.76995 0.78282 0.14102 0.0
H3529 H 0.77602 0.76992 0.20146 0.0
H3530 H 0.7715 0.73361 0.19511 0.0
H3531 H 0.81932 0.63068 0.16153 0.0
H3532 H 0.79721 0.65266 0.14644 0.0
H3533 H 0.78465 0.67763 0.20223 0.0
H3534 H 0.80704 0.65628 0.21727 0.0
H3535 H 0.78893 0.70696 0.17618 0.0
H3536 H 0.75743 0.64376 0.17928 0.0
H3537 H 0.7526 0.60747 0.1731 0.0
H3538 H 0.75449 0.61813 0.11197 0.0
H3539 H 0.75958 0.65447 0.1178 0.0
C3540 C 0.71174 0.74245 0.15405 0.0
C3541 C 0.7055 0.74362 0.13495 0.0
C3542 C 0.72696 0.73155 0.15842 0.0
C3543 C 0.73622 0.72155 0.14379 0.0
C3544 C 0.73028 0.72315 0.12457 0.0
C3545 C 0.71507 0.73429 0.12014 0.0
C3546 C 0.75126 0.70827 0.14903 0.0
C3547 C 0.74996 0.68755 0.14488 0.0
C3548 C 0.76564 0.71542 0.1602 0.0
C3549 C 0.76823 0.73732 0.16416 0.0
C3550 C 0.7679 0.75145 0.14897 0.0
C3551 C 0.77027 0.77203 0.15277 0.0
C3552 C 0.77315 0.77868 0.17168 0.0
C3553 C 0.77369 0.76475 0.18684 0.0
C3554 C 0.77122 0.74416 0.18314 0.0
C3555 C 0.81178 0.64079 0.17058 0.0
C3556 C 0.81488 0.64162 0.19063 0.0
C3557 C 0.79909 0.65327 0.16195 0.0
C3558 C 0.78923 0.66676 0.17321 0.0
C3559 C 0.7921 0.66736 0.19325 0.0
C3560 C 0.80476 0.65492 0.20187 0.0
C3561 C 0.77618 0.68067 0.16422 0.0
C3562 C 0.77788 0.70151 0.16766 0.0
C3563 C 0.76212 0.67362 0.15251 0.0
C3564 C 0.75911 0.65178 0.14898 0.0
C3565 C 0.75699 0.63833 0.16452 0.0
C3566 C 0.75417 0.61776 0.16108 0.0
C3567 C 0.75331 0.61048 0.14216 0.0
C3568 C 0.75521 0.62378 0.12663 0.0
C3569 C 0.75805 0.64436 0.12999 0.0
H3570 H 0.75111 0.59455 0.13952 0.0
H3571 H 0.77501 0.79461 0.17458 0.0
H3572 H 0.3268 0.82019 0.27183 0.0
H3573 H 0.31765 0.78732 0.2585 0.0
H3574 H 0.36925 0.77955 0.23391 0.0
H3575 H 0.3784 0.81221 0.2474 0.0
H3576 H 0.34076 0.77857 0.2071 0.0
H3577 H 0.35786 0.74891 0.26805 0.0
H3578 H 0.35744 0.7454 0.30349 0.0
H3579 H 0.30195 0.73308 0.30148 0.0
H3580 H 0.30199 0.73681 0.26603 0.0
H3581 H 0.33144 0.68591 0.16066 0.0
H3582 H 0.34205 0.7121 0.18275 0.0
H3583 H 0.2927 0.71011 0.21328 0.0
H3584 H 0.28247 0.68294 0.1917 0.0
H3585 H 0.31906 0.71592 0.23834 0.0
H3586 H 0.30061 0.74587 0.17906 0.0
H3587 H 0.29917 0.75021 0.14373 0.0
H3588 H 0.35438 0.76413 0.14267 0.0
H3589 H 0.35622 0.7595 0.17798 0.0
C3590 C 0.33632 0.81102 0.26421 0.0
C3591 C 0.35334 0.81839 0.26085 0.0
C3592 C 0.3311 0.79235 0.25655 0.0
C3593 C 0.3428 0.78104 0.24523 0.0
C3594 C 0.36008 0.78802 0.24267 0.0
C3595 C 0.36533 0.80653 0.25049 0.0
C3596 C 0.33649 0.76329 0.23412 0.0
C3597 C 0.33628 0.76473 0.21392 0.0
C3598 C 0.32993 0.74566 0.24308 0.0
C3599 C 0.3299 0.74335 0.26439 0.0
C3600 C 0.34554 0.74564 0.27517 0.0
C3601 C 0.34537 0.74357 0.29526 0.0
C3602 C 0.32967 0.73907 0.30474 0.0
C3603 C 0.3141 0.73659 0.29413 0.0
C3604 C 0.31419 0.73866 0.27403 0.0
C3605 C 0.32308 0.69068 0.17244 0.0
C3606 C 0.30631 0.68221 0.17481 0.0
C3607 C 0.32905 0.7058 0.18491 0.0
C3608 C 0.31809 0.71329 0.19954 0.0
C3609 C 0.30141 0.70455 0.20215 0.0
C3610 C 0.29555 0.68915 0.18982 0.0
C3611 C 0.32371 0.73102 0.21125 0.0
C3612 C 0.32362 0.7297 0.23152 0.0
C3613 C 0.32969 0.74902 0.20238 0.0
C3614 C 0.32859 0.75216 0.18116 0.0
C3615 C 0.31247 0.74974 0.17129 0.0
C3616 C 0.31158 0.75225 0.15126 0.0
C3617 C 0.32668 0.75741 0.14095 0.0
C3618 C 0.34269 0.76012 0.15067 0.0
C3619 C 0.34367 0.75756 0.1707 0.0
H3620 H 0.32597 0.75935 0.12545 0.0
H3621 H 0.32956 0.73747 0.3203 0.0
H3622 H 0.68538 0.32739 0.16505 0.0
H3623 H 0.67485 0.30429 0.19013 0.0
H3624 H 0.71806 0.32197 0.2272 0.0
H3625 H 0.7287 0.34514 0.20191 0.0
H3626 H 0.71246 0.27933 0.22449 0.0
H3627 H 0.68015 0.33909 0.23851 0.0
H3628 H 0.66189 0.36885 0.23076 0.0
H3629 H 0.62021 0.33009 0.21087 0.0
H3630 H 0.63834 0.30009 0.21816 0.0
H3631 H 0.6732 0.21161 0.2907 0.0
H3632 H 0.68554 0.24393 0.2796 0.0
H3633 H 0.64381 0.24866 0.23713 0.0
H3634 H 0.63121 0.21696 0.24882 0.0
H3635 H 0.65153 0.28468 0.24946 0.0
H3636 H 0.68549 0.22657 0.22784 0.0
H3637 H 0.7036 0.19602 0.23285 0.0
H3638 H 0.74174 0.23092 0.26452 0.0
H3639 H 0.72373 0.26163 0.25988 0.0
C3640 C 0.69257 0.3263 0.17859 0.0
C3641 C 0.70767 0.33802 0.18179 0.0
C3642 C 0.68656 0.31322 0.19288 0.0
C3643 C 0.6956 0.31161 0.21056 0.0
C3644 C 0.71095 0.32304 0.21363 0.0
C3645 C 0.71695 0.33622 0.19929 0.0
C3646 C 0.68902 0.29756 0.2255 0.0
C3647 C 0.6993 0.2807 0.23036 0.0
C3648 C 0.67178 0.29931 0.2329 0.0
C3649 C 0.66067 0.31732 0.22881 0.0
C3650 C 0.66713 0.3369 0.23238 0.0
C3651 C 0.6568 0.35382 0.22807 0.0
C3652 C 0.63991 0.35136 0.22032 0.0
C3653 C 0.6333 0.33197 0.21689 0.0
C3654 C 0.6436 0.315 0.22113 0.0
C3655 C 0.66647 0.21999 0.2794 0.0
C3656 C 0.6513 0.21208 0.27059 0.0
C3657 C 0.67356 0.23829 0.27295 0.0
C3658 C 0.6658 0.24856 0.25725 0.0
C3659 C 0.65004 0.24109 0.24925 0.0
C3660 C 0.64284 0.22302 0.25589 0.0
C3661 C 0.67469 0.26595 0.24784 0.0
C3662 C 0.66486 0.2835 0.24402 0.0
C3663 C 0.69227 0.2647 0.24115 0.0
C3664 C 0.70316 0.24631 0.24375 0.0
C3665 C 0.69769 0.22768 0.23598 0.0
C3666 C 0.70793 0.21035 0.23873 0.0
C3667 C 0.72377 0.21151 0.24906 0.0
C3668 C 0.72944 0.23003 0.25658 0.0
C3669 C 0.71922 0.2474 0.25389 0.0
H3670 H 0.73169 0.19808 0.25119 0.0
H3671 H 0.63193 0.36448 0.21698 0.0
loop_
_geom_bond_atom_site_label_1
_geom_bond_atom_site_label_2
_geom_bond_distance
_geom_bond_site_symmetry_2
_ccdc_geom_bond_type
C0 C1 1.443 . S
C0 N4 1.376 . S
C0 C38 1.389 . S
C1 C0 1.443 . S
C1 C2 1.340 . S
C1 H41 0.951 . S
C2 C1 1.340 . S
C2 C3 1.439 . S
C2 H42 0.950 . S
C3 C2 1.439 . S
C3 N4 1.374 . S
C3 C37 1.395 . S
N4 C0 1.376 . S
N4 C3 1.374 . S
N4 Co5 2.008 . S
Co5 N4 2.008 . S
Co5 N6 1.995 . S
Co5 N11 2.008 . S
Co5 N16 1.995 . S
Co5 N21 2.282 . S
Co5 N27 2.282 . S
N6 Co5 1.995 . S
N6 C7 1.376 . S
N6 C10 1.383 . S
C7 N6 1.376 . S
C7 C8 1.446 . S
C7 C37 1.391 . S
C8 C7 1.446 . S
C8 C9 1.339 . S
C8 H43 0.949 . S
C9 C8 1.339 . S
C9 C10 1.439 . S
C9 H44 0.950 . S
C10 N6 1.383 . S
C10 C9 1.439 . S
C10 C39 1.392 . S
N11 Co5 2.008 . S
N11 C12 1.376 . S
N11 C15 1.374 . S
C12 N11 1.376 . S
C12 C13 1.443 . S
C12 C39 1.389 . S
C13 C12 1.443 . S
C13 C14 1.340 . S
C13 H45 0.951 . S
C14 C13 1.340 . S
C14 C15 1.439 . S
C14 H46 0.950 . S
C15 N11 1.374 . S
C15 C14 1.439 . S
C15 C40 1.395 . S
N16 Co5 1.995 . S
N16 C17 1.376 . S
N16 C20 1.383 . S
C17 N16 1.376 . S
C17 C18 1.446 . S
C17 C40 1.391 . S
C18 C17 1.446 . S
C18 C19 1.339 . S
C18 H47 0.949 . S
C19 C18 1.339 . S
C19 C20 1.439 . S
C19 H48 0.950 . S
C20 N16 1.383 . S
C20 C19 1.439 . S
C20 C38 1.392 . S
N21 Co5 2.282 . S
N21 C24 1.332 . S
N21 C26 1.332 . S
C22 C23 1.386 . S
C22 C25 1.388 . S
C23 C22 1.386 . S
C23 C24 1.382 . S
C23 H49 0.950 . S
C24 N21 1.332 . S
C24 C23 1.382 . S
C24 H35 0.952 . S
C25 C22 1.388 . S
C25 C26 1.382 . S
C25 H50 0.950 . S
C26 N21 1.332 . S
C26 C25 1.382 . S
C26 H36 0.948 . S
N27 Co5 2.282 . S
N27 C31 1.332 . S
N27 C32 1.332 . S
C28 C29 1.388 . S
C28 C32 1.382 . S
C28 H51 0.950 . S
C29 C28 1.388 . S
C29 C30 1.386 . S
C30 C29 1.386 . S
C30 C31 1.382 . S
C30 H52 0.950 . S
C31 N27 1.332 . S
C31 C30 1.382 . S
C31 H33 0.952 . S
C32 N27 1.332 . S
C32 C28 1.382 . S
C32 H34 0.948 . S
H33 C31 0.952 . S
H34 C32 0.948 . S
H35 C24 0.952 . S
H36 C26 0.948 . S
C37 C3 1.395 . S
C37 C7 1.391 . S
C38 C0 1.389 . S
C38 C20 1.392 . S
C39 C10 1.392 . S
C39 C12 1.389 . S
C40 C15 1.395 . S
C40 C17 1.391 . S
H41 C1 0.951 . S
H42 C2 0.950 . S
H43 C8 0.949 . S
H44 C9 0.950 . S
H45 C13 0.951 . S
H46 C14 0.950 . S
H47 C18 0.949 . S
H48 C19 0.950 . S
H49 C23 0.950 . S
H50 C25 0.950 . S
H51 C28 0.950 . S
H52 C30 0.950 . S
C53 C54 1.443 . S
C53 N57 1.376 . S
C53 C91 1.389 . S
C54 C53 1.443 . S
C54 C55 1.340 . S
C54 H94 0.951 . S
C55 C54 1.340 . S
C55 C56 1.439 . S
C55 H95 0.950 . S
C56 C55 1.439 . S
C56 N57 1.374 . S
C56 C90 1.395 . S
N57 C53 1.376 . S
N57 C56 1.374 . S
N57 Co58 2.008 . S
Co58 N57 2.008 . S
Co58 N59 1.995 . S
Co58 N64 2.008 . S
Co58 N69 1.995 . S
Co58 N74 2.282 . S
Co58 N80 2.282 . S
N59 Co58 1.995 . S
N59 C60 1.376 . S
N59 C63 1.383 . S
C60 N59 1.376 . S
C60 C61 1.446 . S
C60 C90 1.391 . S
C61 C60 1.446 . S
C61 C62 1.339 . S
C61 H96 0.949 . S
C62 C61 1.339 . S
C62 C63 1.439 . S
C62 H97 0.950 . S
C63 N59 1.383 . S
C63 C62 1.439 . S
C63 C92 1.392 . S
N64 Co58 2.008 . S
N64 C65 1.376 . S
N64 C68 1.374 . S
C65 N64 1.376 . S
C65 C66 1.443 . S
C65 C92 1.389 . S
C66 C65 1.443 . S
C66 C67 1.340 . S
C66 H98 0.951 . S
C67 C66 1.340 . S
C67 C68 1.439 . S
C67 H99 0.950 . S
C68 N64 1.374 . S
C68 C67 1.439 . S
C68 C93 1.395 . S
N69 Co58 1.995 . S
N69 C70 1.376 . S
N69 C73 1.383 . S
C70 N69 1.376 . S
C70 C71 1.446 . S
C70 C93 1.391 . S
C71 C70 1.446 . S
C71 C72 1.339 . S
C71 H100 0.949 . S
C72 C71 1.339 . S
C72 C73 1.439 . S
C72 H101 0.950 . S
C73 N69 1.383 . S
C73 C72 1.439 . S
C73 C91 1.392 . S
N74 Co58 2.282 . S
N74 C77 1.332 . S
N74 C79 1.332 . S
C75 C76 1.386 . S
C75 C78 1.388 . S
C76 C75 1.386 . S
C76 C77 1.382 . S
C76 H102 0.950 . S
C77 N74 1.332 . S
C77 C76 1.382 . S
C77 H88 0.952 . S
C78 C75 1.388 . S
C78 C79 1.382 . S
C78 H103 0.950 . S
C79 N74 1.332 . S
C79 C78 1.382 . S
C79 H89 0.948 . S
N80 Co58 2.282 . S
N80 C84 1.332 . S
N80 C85 1.332 . S
C81 C82 1.388 . S
C81 C85 1.382 . S
C81 H104 0.950 . S
C82 C81 1.388 . S
C82 C83 1.386 . S
C83 C82 1.386 . S
C83 C84 1.382 . S
C83 H105 0.950 . S
C84 N80 1.332 . S
C84 C83 1.382 . S
C84 H86 0.952 . S
C85 N80 1.332 . S
C85 C81 1.382 . S
C85 H87 0.948 . S
H86 C84 0.952 . S
H87 C85 0.948 . S
H88 C77 0.952 . S
H89 C79 0.948 . S
C90 C56 1.395 . S
C90 C60 1.391 . S
C91 C53 1.389 . S
C91 C73 1.392 . S
C92 C63 1.392 . S
C92 C65 1.389 . S
C93 C68 1.395 . S
C93 C70 1.391 . S
H94 C54 0.951 . S
H95 C55 0.950 . S
H96 C61 0.949 . S
H97 C62 0.950 . S
H98 C66 0.951 . S
H99 C67 0.950 . S
H100 C71 0.949 . S
H101 C72 0.950 . S
H102 C76 0.950 . S
H103 C78 0.950 . S
H104 C81 0.950 . S
H105 C83 0.950 . S
C106 C107 1.443 . S
C106 N110 1.376 . S
C106 C144 1.389 . S
C107 C106 1.443 . S
C107 C108 1.340 . S
C107 H147 0.951 . S
C108 C107 1.340 . S
C108 C109 1.439 . S
C108 H148 0.950 . S
C109 C108 1.439 . S
C109 N110 1.374 . S
C109 C143 1.395 . S
N110 C106 1.376 . S
N110 C109 1.374 . S
N110 Co111 2.008 . S
Co111 N110 2.008 . S
Co111 N112 1.995 . S
Co111 N117 2.008 . S
Co111 N122 1.995 . S
Co111 N127 2.282 . S
Co111 N133 2.282 . S
N112 Co111 1.995 . S
N112 C113 1.376 . S
N112 C116 1.383 . S
C113 N112 1.376 . S
C113 C114 1.446 . S
C113 C143 1.391 . S
C114 C113 1.446 . S
C114 C115 1.339 . S
C114 H149 0.949 . S
C115 C114 1.339 . S
C115 C116 1.439 . S
C115 H150 0.950 . S
C116 N112 1.383 . S
C116 C115 1.439 . S
C116 C145 1.392 . S
N117 Co111 2.008 . S
N117 C118 1.376 . S
N117 C121 1.374 . S
C118 N117 1.376 . S
C118 C119 1.443 . S
C118 C145 1.389 . S
C119 C118 1.443 . S
C119 C120 1.340 . S
C119 H151 0.951 . S
C120 C119 1.340 . S
C120 C121 1.439 . S
C120 H152 0.950 . S
C121 N117 1.374 . S
C121 C120 1.439 . S
C121 C146 1.395 . S
N122 Co111 1.995 . S
N122 C123 1.376 . S
N122 C126 1.383 . S
C123 N122 1.376 . S
C123 C124 1.446 . S
C123 C146 1.391 . S
C124 C123 1.446 . S
C124 C125 1.339 . S
C124 H153 0.949 . S
C125 C124 1.339 . S
C125 C126 1.439 . S
C125 H154 0.950 . S
C126 N122 1.383 . S
C126 C125 1.439 . S
C126 C144 1.392 . S
N127 Co111 2.282 . S
N127 C130 1.332 . S
N127 C132 1.332 . S
C128 C129 1.386 . S
C128 C131 1.388 . S
C129 C128 1.386 . S
C129 C130 1.382 . S
C129 H155 0.950 . S
C130 N127 1.332 . S
C130 C129 1.382 . S
C130 H141 0.952 . S
C131 C128 1.388 . S
C131 C132 1.382 . S
C131 H156 0.950 . S
C132 N127 1.332 . S
C132 C131 1.382 . S
C132 H142 0.948 . S
N133 Co111 2.282 . S
N133 C137 1.332 . S
N133 C138 1.332 . S
C134 C135 1.388 . S
C134 C138 1.382 . S
C134 H157 0.950 . S
C135 C134 1.388 . S
C135 C136 1.386 . S
C136 C135 1.386 . S
C136 C137 1.382 . S
C136 H158 0.950 . S
C137 N133 1.332 . S
C137 C136 1.382 . S
C137 H139 0.952 . S
C138 N133 1.332 . S
C138 C134 1.382 . S
C138 H140 0.948 . S
H139 C137 0.952 . S
H140 C138 0.948 . S
H141 C130 0.952 . S
H142 C132 0.948 . S
C143 C109 1.395 . S
C143 C113 1.391 . S
C144 C106 1.389 . S
C144 C126 1.392 . S
C145 C116 1.392 . S
C145 C118 1.389 . S
C146 C121 1.395 . S
C146 C123 1.391 . S
H147 C107 0.951 . S
H148 C108 0.950 . S
H149 C114 0.949 . S
H150 C115 0.950 . S
H151 C119 0.951 . S
H152 C120 0.950 . S
H153 C124 0.949 . S
H154 C125 0.950 . S
H155 C129 0.950 . S
H156 C131 0.950 . S
H157 C134 0.950 . S
H158 C136 0.950 . S
C159 C160 1.443 . S
C159 N163 1.376 . S
C159 C197 1.389 . S
C160 C159 1.443 . S
C160 C161 1.340 . S
C160 H200 0.951 . S
C161 C160 1.340 . S
C161 C162 1.439 . S
C161 H201 0.950 . S
C162 C161 1.439 . S
C162 N163 1.374 . S
C162 C196 1.395 . S
N163 C159 1.376 . S
N163 C162 1.374 . S
N163 Co164 2.008 . S
Co164 N163 2.008 . S
Co164 N165 1.995 . S
Co164 N170 2.008 . S
Co164 N175 1.995 . S
Co164 N180 2.282 . S
Co164 N186 2.282 . S
N165 Co164 1.995 . S
N165 C166 1.376 . S
N165 C169 1.383 . S
C166 N165 1.376 . S
C166 C167 1.446 . S
C166 C196 1.391 . S
C167 C166 1.446 . S
C167 C168 1.339 . S
C167 H202 0.949 . S
C168 C167 1.339 . S
C168 C169 1.439 . S
C168 H203 0.950 . S
C169 N165 1.383 . S
C169 C168 1.439 . S
C169 C198 1.392 . S
N170 Co164 2.008 . S
N170 C171 1.376 . S
N170 C174 1.374 . S
C171 N170 1.376 . S
C171 C172 1.443 . S
C171 C198 1.389 . S
C172 C171 1.443 . S
C172 C173 1.340 . S
C172 H204 0.951 . S
C173 C172 1.340 . S
C173 C174 1.439 . S
C173 H205 0.950 . S
C174 N170 1.374 . S
C174 C173 1.439 . S
C174 C199 1.395 . S
N175 Co164 1.995 . S
N175 C176 1.376 . S
N175 C179 1.383 . S
C176 N175 1.376 . S
C176 C177 1.446 . S
C176 C199 1.391 . S
C177 C176 1.446 . S
C177 C178 1.339 . S
C177 H206 0.949 . S
C178 C177 1.339 . S
C178 C179 1.439 . S
C178 H207 0.950 . S
C179 N175 1.383 . S
C179 C178 1.439 . S
C179 C197 1.392 . S
N180 Co164 2.282 . S
N180 C183 1.332 . S
N180 C185 1.332 . S
C181 C182 1.386 . S
C181 C184 1.388 . S
C182 C181 1.386 . S
C182 C183 1.382 . S
C182 H208 0.950 . S
C183 N180 1.332 . S
C183 C182 1.382 . S
C183 H194 0.952 . S
C184 C181 1.388 . S
C184 C185 1.382 . S
C184 H209 0.950 . S
C185 N180 1.332 . S
C185 C184 1.382 . S
C185 H195 0.948 . S
N186 Co164 2.282 . S
N186 C190 1.332 . S
N186 C191 1.332 . S
C187 C188 1.388 . S
C187 C191 1.382 . S
C187 H210 0.950 . S
C188 C187 1.388 . S
C188 C189 1.386 . S
C189 C188 1.386 . S
C189 C190 1.382 . S
C189 H211 0.950 . S
C190 N186 1.332 . S
C190 C189 1.382 . S
C190 H192 0.952 . S
C191 N186 1.332 . S
C191 C187 1.382 . S
C191 H193 0.948 . S
H192 C190 0.952 . S
H193 C191 0.948 . S
H194 C183 0.952 . S
H195 C185 0.948 . S
C196 C162 1.395 . S
C196 C166 1.391 . S
C197 C159 1.389 . S
C197 C179 1.392 . S
C198 C169 1.392 . S
C198 C171 1.389 . S
C199 C174 1.395 . S
C199 C176 1.391 . S
H200 C160 0.951 . S
H201 C161 0.950 . S
H202 C167 0.949 . S
H203 C168 0.950 . S
H204 C172 0.951 . S
H205 C173 0.950 . S
H206 C177 0.949 . S
H207 C178 0.950 . S
H208 C182 0.950 . S
H209 C184 0.950 . S
H210 C187 0.950 . S
H211 C189 0.950 . S
C212 C213 1.443 . S
C212 N216 1.376 . S
C212 C250 1.389 . S
C213 C212 1.443 . S
C213 C214 1.340 . S
C213 H253 0.951 . S
C214 C213 1.340 . S
C214 C215 1.439 . S
C214 H254 0.950 . S
C215 C214 1.439 . S
C215 N216 1.374 . S
C215 C249 1.395 . S
N216 C212 1.376 . S
N216 C215 1.374 . S
N216 Co217 2.008 . S
Co217 N216 2.008 . S
Co217 N218 1.995 . S
Co217 N223 2.008 . S
Co217 N228 1.995 . S
Co217 N233 2.282 . S
Co217 N239 2.282 . S
N218 Co217 1.995 . S
N218 C219 1.376 . S
N218 C222 1.383 . S
C219 N218 1.376 . S
C219 C220 1.446 . S
C219 C249 1.391 . S
C220 C219 1.446 . S
C220 C221 1.339 . S
C220 H255 0.949 . S
C221 C220 1.339 . S
C221 C222 1.439 . S
C221 H256 0.950 . S
C222 N218 1.383 . S
C222 C221 1.439 . S
C222 C251 1.392 . S
N223 Co217 2.008 . S
N223 C224 1.376 . S
N223 C227 1.374 . S
C224 N223 1.376 . S
C224 C225 1.443 . S
C224 C251 1.389 . S
C225 C224 1.443 . S
C225 C226 1.340 . S
C225 H257 0.951 . S
C226 C225 1.340 . S
C226 C227 1.439 . S
C226 H258 0.950 . S
C227 N223 1.374 . S
C227 C226 1.439 . S
C227 C252 1.395 . S
N228 Co217 1.995 . S
N228 C229 1.376 . S
N228 C232 1.383 . S
C229 N228 1.376 . S
C229 C230 1.446 . S
C229 C252 1.391 . S
C230 C229 1.446 . S
C230 C231 1.339 . S
C230 H259 0.949 . S
C231 C230 1.339 . S
C231 C232 1.439 . S
C231 H260 0.950 . S
C232 N228 1.383 . S
C232 C231 1.439 . S
C232 C250 1.392 . S
N233 Co217 2.282 . S
N233 C236 1.332 . S
N233 C238 1.332 . S
C234 C235 1.386 . S
C234 C237 1.388 . S
C235 C234 1.386 . S
C235 C236 1.382 . S
C235 H261 0.950 . S
C236 N233 1.332 . S
C236 C235 1.382 . S
C236 H247 0.952 . S
C237 C234 1.388 . S
C237 C238 1.382 . S
C237 H262 0.950 . S
C238 N233 1.332 . S
C238 C237 1.382 . S
C238 H248 0.948 . S
N239 Co217 2.282 . S
N239 C243 1.332 . S
N239 C244 1.332 . S
C240 C241 1.388 . S
C240 C244 1.382 . S
C240 H263 0.950 . S
C241 C240 1.388 . S
C241 C242 1.386 . S
C242 C241 1.386 . S
C242 C243 1.382 . S
C242 H264 0.950 . S
C243 N239 1.332 . S
C243 C242 1.382 . S
C243 H245 0.952 . S
C244 N239 1.332 . S
C244 C240 1.382 . S
C244 H246 0.948 . S
H245 C243 0.952 . S
H246 C244 0.948 . S
H247 C236 0.952 . S
H248 C238 0.948 . S
C249 C215 1.395 . S
C249 C219 1.391 . S
C250 C212 1.389 . S
C250 C232 1.392 . S
C251 C222 1.392 . S
C251 C224 1.389 . S
C252 C227 1.395 . S
C252 C229 1.391 . S
H253 C213 0.951 . S
H254 C214 0.950 . S
H255 C220 0.949 . S
H256 C221 0.950 . S
H257 C225 0.951 . S
H258 C226 0.950 . S
H259 C230 0.949 . S
H260 C231 0.950 . S
H261 C235 0.950 . S
H262 C237 0.950 . S
H263 C240 0.950 . S
H264 C242 0.950 . S
C265 C266 1.443 . S
C265 N269 1.376 . S
C265 C303 1.389 . S
C266 C265 1.443 . S
C266 C267 1.340 . S
C266 H306 0.951 . S
C267 C266 1.340 . S
C267 C268 1.439 . S
C267 H307 0.950 . S
C268 C267 1.439 . S
C268 N269 1.374 . S
C268 C302 1.395 . S
N269 C265 1.376 . S
N269 C268 1.374 . S
N269 Co270 2.008 . S
Co270 N269 2.008 . S
Co270 N271 1.995 . S
Co270 N276 2.008 . S
Co270 N281 1.995 . S
Co270 N286 2.282 . S
Co270 N292 2.282 . S
N271 Co270 1.995 . S
N271 C272 1.376 . S
N271 C275 1.383 . S
C272 N271 1.376 . S
C272 C273 1.446 . S
C272 C302 1.391 . S
C273 C272 1.446 . S
C273 C274 1.339 . S
C273 H308 0.949 . S
C274 C273 1.339 . S
C274 C275 1.439 . S
C274 H309 0.950 . S
C275 N271 1.383 . S
C275 C274 1.439 . S
C275 C304 1.392 . S
N276 Co270 2.008 . S
N276 C277 1.376 . S
N276 C280 1.374 . S
C277 N276 1.376 . S
C277 C278 1.443 . S
C277 C304 1.389 . S
C278 C277 1.443 . S
C278 C279 1.340 . S
C278 H310 0.951 . S
C279 C278 1.340 . S
C279 C280 1.439 . S
C279 H311 0.950 . S
C280 N276 1.374 . S
C280 C279 1.439 . S
C280 C305 1.395 . S
N281 Co270 1.995 . S
N281 C282 1.376 . S
N281 C285 1.383 . S
C282 N281 1.376 . S
C282 C283 1.446 . S
C282 C305 1.391 . S
C283 C282 1.446 . S
C283 C284 1.339 . S
C283 H312 0.949 . S
C284 C283 1.339 . S
C284 C285 1.439 . S
C284 H313 0.950 . S
C285 N281 1.383 . S
C285 C284 1.439 . S
C285 C303 1.392 . S
N286 Co270 2.282 . S
N286 C289 1.332 . S
N286 C291 1.332 . S
C287 C288 1.386 . S
C287 C290 1.388 . S
C288 C287 1.386 . S
C288 C289 1.382 . S
C288 H314 0.950 . S
C289 N286 1.332 . S
C289 C288 1.382 . S
C289 H300 0.952 . S
C290 C287 1.388 . S
C290 C291 1.382 . S
C290 H315 0.950 . S
C291 N286 1.332 . S
C291 C290 1.382 . S
C291 H301 0.948 . S
N292 Co270 2.282 . S
N292 C296 1.332 . S
N292 C297 1.332 . S
C293 C294 1.388 . S
C293 C297 1.382 . S
C293 H316 0.950 . S
C294 C293 1.388 . S
C294 C295 1.386 . S
C295 C294 1.386 . S
C295 C296 1.382 . S
C295 H317 0.950 . S
C296 N292 1.332 . S
C296 C295 1.382 . S
C296 H298 0.952 . S
C297 N292 1.332 . S
C297 C293 1.382 . S
C297 H299 0.948 . S
H298 C296 0.952 . S
H299 C297 0.948 . S
H300 C289 0.952 . S
H301 C291 0.948 . S
C302 C268 1.395 . S
C302 C272 1.391 . S
C303 C265 1.389 . S
C303 C285 1.392 . S
C304 C275 1.392 . S
C304 C277 1.389 . S
C305 C280 1.395 . S
C305 C282 1.391 . S
H306 C266 0.951 . S
H307 C267 0.950 . S
H308 C273 0.949 . S
H309 C274 0.950 . S
H310 C278 0.951 . S
H311 C279 0.950 . S
H312 C283 0.949 . S
H313 C284 0.950 . S
H314 C288 0.950 . S
H315 C290 0.950 . S
H316 C293 0.950 . S
H317 C295 0.950 . S
C318 C319 1.443 . S
C318 N322 1.376 . S
C318 C356 1.389 . S
C319 C318 1.443 . S
C319 C320 1.340 . S
C319 H359 0.951 . S
C320 C319 1.340 . S
C320 C321 1.439 . S
C320 H360 0.950 . S
C321 C320 1.439 . S
C321 N322 1.374 . S
C321 C355 1.395 . S
N322 C318 1.376 . S
N322 C321 1.374 . S
N322 Co323 2.008 . S
Co323 N322 2.008 . S
Co323 N324 1.995 . S
Co323 N329 2.008 . S
Co323 N334 1.995 . S
Co323 N339 2.282 . S
Co323 N345 2.282 . S
N324 Co323 1.995 . S
N324 C325 1.376 . S
N324 C328 1.383 . S
C325 N324 1.376 . S
C325 C326 1.446 . S
C325 C355 1.391 . S
C326 C325 1.446 . S
C326 C327 1.339 . S
C326 H361 0.949 . S
C327 C326 1.339 . S
C327 C328 1.439 . S
C327 H362 0.950 . S
C328 N324 1.383 . S
C328 C327 1.439 . S
C328 C357 1.392 . S
N329 Co323 2.008 . S
N329 C330 1.376 . S
N329 C333 1.374 . S
C330 N329 1.376 . S
C330 C331 1.443 . S
C330 C357 1.389 . S
C331 C330 1.443 . S
C331 C332 1.340 . S
C331 H363 0.951 . S
C332 C331 1.340 . S
C332 C333 1.439 . S
C332 H364 0.950 . S
C333 N329 1.374 . S
C333 C332 1.439 . S
C333 C358 1.395 . S
N334 Co323 1.995 . S
N334 C335 1.376 . S
N334 C338 1.383 . S
C335 N334 1.376 . S
C335 C336 1.446 . S
C335 C358 1.391 . S
C336 C335 1.446 . S
C336 C337 1.339 . S
C336 H365 0.949 . S
C337 C336 1.339 . S
C337 C338 1.439 . S
C337 H366 0.950 . S
C338 N334 1.383 . S
C338 C337 1.439 . S
C338 C356 1.392 . S
N339 Co323 2.282 . S
N339 C342 1.332 . S
N339 C344 1.332 . S
C340 C341 1.386 . S
C340 C343 1.388 . S
C341 C340 1.386 . S
C341 C342 1.382 . S
C341 H367 0.950 . S
C342 N339 1.332 . S
C342 C341 1.382 . S
C342 H353 0.952 . S
C343 C340 1.388 . S
C343 C344 1.382 . S
C343 H368 0.950 . S
C344 N339 1.332 . S
C344 C343 1.382 . S
C344 H354 0.948 . S
N345 Co323 2.282 . S
N345 C349 1.332 . S
N345 C350 1.332 . S
C346 C347 1.388 . S
C346 C350 1.382 . S
C346 H369 0.950 . S
C347 C346 1.388 . S
C347 C348 1.386 . S
C348 C347 1.386 . S
C348 C349 1.382 . S
C348 H370 0.950 . S
C349 N345 1.332 . S
C349 C348 1.382 . S
C349 H351 0.952 . S
C350 N345 1.332 . S
C350 C346 1.382 . S
C350 H352 0.948 . S
H351 C349 0.952 . S
H352 C350 0.948 . S
H353 C342 0.952 . S
H354 C344 0.948 . S
C355 C321 1.395 . S
C355 C325 1.391 . S
C356 C318 1.389 . S
C356 C338 1.392 . S
C357 C328 1.392 . S
C357 C330 1.389 . S
C358 C333 1.395 . S
C358 C335 1.391 . S
H359 C319 0.951 . S
H360 C320 0.950 . S
H361 C326 0.949 . S
H362 C327 0.950 . S
H363 C331 0.951 . S
H364 C332 0.950 . S
H365 C336 0.949 . S
H366 C337 0.950 . S
H367 C341 0.950 . S
H368 C343 0.950 . S
H369 C346 0.950 . S
H370 C348 0.950 . S
C371 C372 1.443 . S
C371 N375 1.376 . S
C371 C409 1.389 . S
C372 C371 1.443 . S
C372 C373 1.340 . S
C372 H412 0.951 . S
C373 C372 1.340 . S
C373 C374 1.439 . S
C373 H413 0.950 . S
C374 C373 1.439 . S
C374 N375 1.374 . S
C374 C408 1.395 . S
N375 C371 1.376 . S
N375 C374 1.374 . S
N375 Co376 2.008 . S
Co376 N375 2.008 . S
Co376 N377 1.995 . S
Co376 N382 2.008 . S
Co376 N387 1.995 . S
Co376 N392 2.282 . S
Co376 N398 2.282 . S
N377 Co376 1.995 . S
N377 C378 1.376 . S
N377 C381 1.383 . S
C378 N377 1.376 . S
C378 C379 1.446 . S
C378 C408 1.391 . S
C379 C378 1.446 . S
C379 C380 1.339 . S
C379 H414 0.949 . S
C380 C379 1.339 . S
C380 C381 1.439 . S
C380 H415 0.950 . S
C381 N377 1.383 . S
C381 C380 1.439 . S
C381 C410 1.392 . S
N382 Co376 2.008 . S
N382 C383 1.376 . S
N382 C386 1.374 . S
C383 N382 1.376 . S
C383 C384 1.443 . S
C383 C410 1.389 . S
C384 C383 1.443 . S
C384 C385 1.340 . S
C384 H416 0.951 . S
C385 C384 1.340 . S
C385 C386 1.439 . S
C385 H417 0.950 . S
C386 N382 1.374 . S
C386 C385 1.439 . S
C386 C411 1.395 . S
N387 Co376 1.995 . S
N387 C388 1.376 . S
N387 C391 1.383 . S
C388 N387 1.376 . S
C388 C389 1.446 . S
C388 C411 1.391 . S
C389 C388 1.446 . S
C389 C390 1.339 . S
C389 H418 0.949 . S
C390 C389 1.339 . S
C390 C391 1.439 . S
C390 H419 0.950 . S
C391 N387 1.383 . S
C391 C390 1.439 . S
C391 C409 1.392 . S
N392 Co376 2.282 . S
N392 C395 1.332 . S
N392 C397 1.332 . S
C393 C394 1.386 . S
C393 C396 1.388 . S
C394 C393 1.386 . S
C394 C395 1.382 . S
C394 H420 0.950 . S
C395 N392 1.332 . S
C395 C394 1.382 . S
C395 H406 0.952 . S
C396 C393 1.388 . S
C396 C397 1.382 . S
C396 H421 0.950 . S
C397 N392 1.332 . S
C397 C396 1.382 . S
C397 H407 0.948 . S
N398 Co376 2.282 . S
N398 C402 1.332 . S
N398 C403 1.332 . S
C399 C400 1.388 . S
C399 C403 1.382 . S
C399 H422 0.950 . S
C400 C399 1.388 . S
C400 C401 1.386 . S
C401 C400 1.386 . S
C401 C402 1.382 . S
C401 H423 0.950 . S
C402 N398 1.332 . S
C402 C401 1.382 . S
C402 H404 0.952 . S
C403 N398 1.332 . S
C403 C399 1.382 . S
C403 H405 0.948 . S
H404 C402 0.952 . S
H405 C403 0.948 . S
H406 C395 0.952 . S
H407 C397 0.948 . S
C408 C374 1.395 . S
C408 C378 1.391 . S
C409 C371 1.389 . S
C409 C391 1.392 . S
C410 C381 1.392 . S
C410 C383 1.389 . S
C411 C386 1.395 . S
C411 C388 1.391 . S
H412 C372 0.951 . S
H413 C373 0.950 . S
H414 C379 0.949 . S
H415 C380 0.950 . S
H416 C384 0.951 . S
H417 C385 0.950 . S
H418 C389 0.949 . S
H419 C390 0.950 . S
H420 C394 0.950 . S
H421 C396 0.950 . S
H422 C399 0.950 . S
H423 C401 0.950 . S
C424 C425 1.443 . S
C424 N428 1.376 . S
C424 C462 1.389 . S
C425 C424 1.443 . S
C425 C426 1.340 . S
C425 H465 0.951 . S
C426 C425 1.340 . S
C426 C427 1.439 . S
C426 H466 0.950 . S
C427 C426 1.439 . S
C427 N428 1.374 . S
C427 C461 1.395 . S
N428 C424 1.376 . S
N428 C427 1.374 . S
N428 Co429 2.008 . S
Co429 N428 2.008 . S
Co429 N430 1.995 . S
Co429 N435 2.008 . S
Co429 N440 1.995 . S
Co429 N445 2.282 . S
Co429 N451 2.282 . S
N430 Co429 1.995 . S
N430 C431 1.376 . S
N430 C434 1.383 . S
C431 N430 1.376 . S
C431 C432 1.446 . S
C431 C461 1.391 . S
C432 C431 1.446 . S
C432 C433 1.339 . S
C432 H467 0.949 . S
C433 C432 1.339 . S
C433 C434 1.439 . S
C433 H468 0.950 . S
C434 N430 1.383 . S
C434 C433 1.439 . S
C434 C463 1.392 . S
N435 Co429 2.008 . S
N435 C436 1.376 . S
N435 C439 1.374 . S
C436 N435 1.376 . S
C436 C437 1.443 . S
C436 C463 1.389 . S
C437 C436 1.443 . S
C437 C438 1.340 . S
C437 H469 0.951 . S
C438 C437 1.340 . S
C438 C439 1.439 . S
C438 H470 0.950 . S
C439 N435 1.374 . S
C439 C438 1.439 . S
C439 C464 1.395 . S
N440 Co429 1.995 . S
N440 C441 1.376 . S
N440 C444 1.383 . S
C441 N440 1.376 . S
C441 C442 1.446 . S
C441 C464 1.391 . S
C442 C441 1.446 . S
C442 C443 1.339 . S
C442 H471 0.949 . S
C443 C442 1.339 . S
C443 C444 1.439 . S
C443 H472 0.950 . S
C444 N440 1.383 . S
C444 C443 1.439 . S
C444 C462 1.392 . S
N445 Co429 2.282 . S
N445 C448 1.332 . S
N445 C450 1.332 . S
C446 C447 1.386 . S
C446 C449 1.388 . S
C447 C446 1.386 . S
C447 C448 1.382 . S
C447 H473 0.950 . S
C448 N445 1.332 . S
C448 C447 1.382 . S
C448 H459 0.952 . S
C449 C446 1.388 . S
C449 C450 1.382 . S
C449 H474 0.950 . S
C450 N445 1.332 . S
C450 C449 1.382 . S
C450 H460 0.948 . S
N451 Co429 2.282 . S
N451 C455 1.332 . S
N451 C456 1.332 . S
C452 C453 1.388 . S
C452 C456 1.382 . S
C452 H475 0.950 . S
C453 C452 1.388 . S
C453 C454 1.386 . S
C454 C453 1.386 . S
C454 C455 1.382 . S
C454 H476 0.950 . S
C455 N451 1.332 . S
C455 C454 1.382 . S
C455 H457 0.952 . S
C456 N451 1.332 . S
C456 C452 1.382 . S
C456 H458 0.948 . S
H457 C455 0.952 . S
H458 C456 0.948 . S
H459 C448 0.952 . S
H460 C450 0.948 . S
C461 C427 1.395 . S
C461 C431 1.391 . S
C462 C424 1.389 . S
C462 C444 1.392 . S
C463 C434 1.392 . S
C463 C436 1.389 . S
C464 C439 1.395 . S
C464 C441 1.391 . S
H465 C425 0.951 . S
H466 C426 0.950 . S
H467 C432 0.949 . S
H468 C433 0.950 . S
H469 C437 0.951 . S
H470 C438 0.950 . S
H471 C442 0.949 . S
H472 C443 0.950 . S
H473 C447 0.950 . S
H474 C449 0.950 . S
H475 C452 0.950 . S
H476 C454 0.950 . S
C477 C478 1.443 . S
C477 N481 1.376 . S
C477 C515 1.389 . S
C478 C477 1.443 . S
C478 C479 1.340 . S
C478 H518 0.951 . S
C479 C478 1.340 . S
C479 C480 1.439 . S
C479 H519 0.950 . S
C480 C479 1.439 . S
C480 N481 1.374 . S
C480 C514 1.395 . S
N481 C477 1.376 . S
N481 C480 1.374 . S
N481 Co482 2.008 . S
Co482 N481 2.008 . S
Co482 N483 1.995 . S
Co482 N488 2.008 . S
Co482 N493 1.995 . S
Co482 N498 2.282 . S
Co482 N504 2.282 . S
N483 Co482 1.995 . S
N483 C484 1.376 . S
N483 C487 1.383 . S
C484 N483 1.376 . S
C484 C485 1.446 . S
C484 C514 1.391 . S
C485 C484 1.446 . S
C485 C486 1.339 . S
C485 H520 0.949 . S
C486 C485 1.339 . S
C486 C487 1.439 . S
C486 H521 0.950 . S
C487 N483 1.383 . S
C487 C486 1.439 . S
C487 C516 1.392 . S
N488 Co482 2.008 . S
N488 C489 1.376 . S
N488 C492 1.374 . S
C489 N488 1.376 . S
C489 C490 1.443 . S
C489 C516 1.389 . S
C490 C489 1.443 . S
C490 C491 1.340 . S
C490 H522 0.951 . S
C491 C490 1.340 . S
C491 C492 1.439 . S
C491 H523 0.950 . S
C492 N488 1.374 . S
C492 C491 1.439 . S
C492 C517 1.395 . S
N493 Co482 1.995 . S
N493 C494 1.376 . S
N493 C497 1.383 . S
C494 N493 1.376 . S
C494 C495 1.446 . S
C494 C517 1.391 . S
C495 C494 1.446 . S
C495 C496 1.339 . S
C495 H524 0.949 . S
C496 C495 1.339 . S
C496 C497 1.439 . S
C496 H525 0.950 . S
C497 N493 1.383 . S
C497 C496 1.439 . S
C497 C515 1.392 . S
N498 Co482 2.282 . S
N498 C501 1.332 . S
N498 C503 1.332 . S
C499 C500 1.386 . S
C499 C502 1.388 . S
C500 C499 1.386 . S
C500 C501 1.382 . S
C500 H526 0.950 . S
C501 N498 1.332 . S
C501 C500 1.382 . S
C501 H512 0.952 . S
C502 C499 1.388 . S
C502 C503 1.382 . S
C502 H527 0.950 . S
C503 N498 1.332 . S
C503 C502 1.382 . S
C503 H513 0.948 . S
N504 Co482 2.282 . S
N504 C508 1.332 . S
N504 C509 1.332 . S
C505 C506 1.388 . S
C505 C509 1.382 . S
C505 H528 0.950 . S
C506 C505 1.388 . S
C506 C507 1.386 . S
C507 C506 1.386 . S
C507 C508 1.382 . S
C507 H529 0.950 . S
C508 N504 1.332 . S
C508 C507 1.382 . S
C508 H510 0.952 . S
C509 N504 1.332 . S
C509 C505 1.382 . S
C509 H511 0.948 . S
H510 C508 0.952 . S
H511 C509 0.948 . S
H512 C501 0.952 . S
H513 C503 0.948 . S
C514 C480 1.395 . S
C514 C484 1.391 . S
C515 C477 1.389 . S
C515 C497 1.392 . S
C516 C487 1.392 . S
C516 C489 1.389 . S
C517 C492 1.395 . S
C517 C494 1.391 . S
H518 C478 0.951 . S
H519 C479 0.950 . S
H520 C485 0.949 . S
H521 C486 0.950 . S
H522 C490 0.951 . S
H523 C491 0.950 . S
H524 C495 0.949 . S
H525 C496 0.950 . S
H526 C500 0.950 . S
H527 C502 0.950 . S
H528 C505 0.950 . S
H529 C507 0.950 . S
C530 C531 1.443 . S
C530 N534 1.376 . S
C530 C568 1.389 . S
C531 C530 1.443 . S
C531 C532 1.340 . S
C531 H571 0.951 . S
C532 C531 1.340 . S
C532 C533 1.439 . S
C532 H572 0.950 . S
C533 C532 1.439 . S
C533 N534 1.374 . S
C533 C567 1.395 . S
N534 C530 1.376 . S
N534 C533 1.374 . S
N534 Co535 2.008 . S
Co535 N534 2.008 . S
Co535 N536 1.995 . S
Co535 N541 2.008 . S
Co535 N546 1.995 . S
Co535 N551 2.282 . S
Co535 N557 2.282 . S
N536 Co535 1.995 . S
N536 C537 1.376 . S
N536 C540 1.383 . S
C537 N536 1.376 . S
C537 C538 1.446 . S
C537 C567 1.391 . S
C538 C537 1.446 . S
C538 C539 1.339 . S
C538 H573 0.949 . S
C539 C538 1.339 . S
C539 C540 1.439 . S
C539 H574 0.950 . S
C540 N536 1.383 . S
C540 C539 1.439 . S
C540 C569 1.392 . S
N541 Co535 2.008 . S
N541 C542 1.376 . S
N541 C545 1.374 . S
C542 N541 1.376 . S
C542 C543 1.443 . S
C542 C569 1.389 . S
C543 C542 1.443 . S
C543 C544 1.340 . S
C543 H575 0.951 . S
C544 C543 1.340 . S
C544 C545 1.439 . S
C544 H576 0.950 . S
C545 N541 1.374 . S
C545 C544 1.439 . S
C545 C570 1.395 . S
N546 Co535 1.995 . S
N546 C547 1.376 . S
N546 C550 1.383 . S
C547 N546 1.376 . S
C547 C548 1.446 . S
C547 C570 1.391 . S
C548 C547 1.446 . S
C548 C549 1.339 . S
C548 H577 0.949 . S
C549 C548 1.339 . S
C549 C550 1.439 . S
C549 H578 0.950 . S
C550 N546 1.383 . S
C550 C549 1.439 . S
C550 C568 1.392 . S
N551 Co535 2.282 . S
N551 C554 1.332 . S
N551 C556 1.332 . S
C552 C553 1.386 . S
C552 C555 1.388 . S
C553 C552 1.386 . S
C553 C554 1.382 . S
C553 H579 0.950 . S
C554 N551 1.332 . S
C554 C553 1.382 . S
C554 H565 0.952 . S
C555 C552 1.388 . S
C555 C556 1.382 . S
C555 H580 0.950 . S
C556 N551 1.332 . S
C556 C555 1.382 . S
C556 H566 0.948 . S
N557 Co535 2.282 . S
N557 C561 1.332 . S
N557 C562 1.332 . S
C558 C559 1.388 . S
C558 C562 1.382 . S
C558 H581 0.950 . S
C559 C558 1.388 . S
C559 C560 1.386 . S
C560 C559 1.386 . S
C560 C561 1.382 . S
C560 H582 0.950 . S
C561 N557 1.332 . S
C561 C560 1.382 . S
C561 H563 0.952 . S
C562 N557 1.332 . S
C562 C558 1.382 . S
C562 H564 0.948 . S
H563 C561 0.952 . S
H564 C562 0.948 . S
H565 C554 0.952 . S
H566 C556 0.948 . S
C567 C533 1.395 . S
C567 C537 1.391 . S
C568 C530 1.389 . S
C568 C550 1.392 . S
C569 C540 1.392 . S
C569 C542 1.389 . S
C570 C545 1.395 . S
C570 C547 1.391 . S
H571 C531 0.951 . S
H572 C532 0.950 . S
H573 C538 0.949 . S
H574 C539 0.950 . S
H575 C543 0.951 . S
H576 C544 0.950 . S
H577 C548 0.949 . S
H578 C549 0.950 . S
H579 C553 0.950 . S
H580 C555 0.950 . S
H581 C558 0.950 . S
H582 C560 0.950 . S
C583 C584 1.443 . S
C583 N587 1.376 . S
C583 C621 1.389 . S
C584 C583 1.443 . S
C584 C585 1.340 . S
C584 H624 0.951 . S
C585 C584 1.340 . S
C585 C586 1.439 . S
C585 H625 0.950 . S
C586 C585 1.439 . S
C586 N587 1.374 . S
C586 C620 1.395 . S
N587 C583 1.376 . S
N587 C586 1.374 . S
N587 Co588 2.008 . S
Co588 N587 2.008 . S
Co588 N589 1.995 . S
Co588 N594 2.008 . S
Co588 N599 1.995 . S
Co588 N604 2.282 . S
Co588 N610 2.282 . S
N589 Co588 1.995 . S
N589 C590 1.376 . S
N589 C593 1.383 . S
C590 N589 1.376 . S
C590 C591 1.446 . S
C590 C620 1.391 . S
C591 C590 1.446 . S
C591 C592 1.339 . S
C591 H626 0.949 . S
C592 C591 1.339 . S
C592 C593 1.439 . S
C592 H627 0.950 . S
C593 N589 1.383 . S
C593 C592 1.439 . S
C593 C622 1.392 . S
N594 Co588 2.008 . S
N594 C595 1.376 . S
N594 C598 1.374 . S
C595 N594 1.376 . S
C595 C596 1.443 . S
C595 C622 1.389 . S
C596 C595 1.443 . S
C596 C597 1.340 . S
C596 H628 0.951 . S
C597 C596 1.340 . S
C597 C598 1.439 . S
C597 H629 0.950 . S
C598 N594 1.374 . S
C598 C597 1.439 . S
C598 C623 1.395 . S
N599 Co588 1.995 . S
N599 C600 1.376 . S
N599 C603 1.383 . S
C600 N599 1.376 . S
C600 C601 1.446 . S
C600 C623 1.391 . S
C601 C600 1.446 . S
C601 C602 1.339 . S
C601 H630 0.949 . S
C602 C601 1.339 . S
C602 C603 1.439 . S
C602 H631 0.950 . S
C603 N599 1.383 . S
C603 C602 1.439 . S
C603 C621 1.392 . S
N604 Co588 2.282 . S
N604 C607 1.332 . S
N604 C609 1.332 . S
C605 C606 1.386 . S
C605 C608 1.388 . S
C606 C605 1.386 . S
C606 C607 1.382 . S
C606 H632 0.950 . S
C607 N604 1.332 . S
C607 C606 1.382 . S
C607 H618 0.952 . S
C608 C605 1.388 . S
C608 C609 1.382 . S
C608 H633 0.950 . S
C609 N604 1.332 . S
C609 C608 1.382 . S
C609 H619 0.948 . S
N610 Co588 2.282 . S
N610 C614 1.332 . S
N610 C615 1.332 . S
C611 C612 1.388 . S
C611 C615 1.382 . S
C611 H634 0.950 . S
C612 C611 1.388 . S
C612 C613 1.386 . S
C613 C612 1.386 . S
C613 C614 1.382 . S
C613 H635 0.950 . S
C614 N610 1.332 . S
C614 C613 1.382 . S
C614 H616 0.952 . S
C615 N610 1.332 . S
C615 C611 1.382 . S
C615 H617 0.948 . S
H616 C614 0.952 . S
H617 C615 0.948 . S
H618 C607 0.952 . S
H619 C609 0.948 . S
C620 C586 1.395 . S
C620 C590 1.391 . S
C621 C583 1.389 . S
C621 C603 1.392 . S
C622 C593 1.392 . S
C622 C595 1.389 . S
C623 C598 1.395 . S
C623 C600 1.391 . S
H624 C584 0.951 . S
H625 C585 0.950 . S
H626 C591 0.949 . S
H627 C592 0.950 . S
H628 C596 0.951 . S
H629 C597 0.950 . S
H630 C601 0.949 . S
H631 C602 0.950 . S
H632 C606 0.950 . S
H633 C608 0.950 . S
H634 C611 0.950 . S
H635 C613 0.950 . S
C636 C637 1.443 . S
C636 N640 1.376 . S
C636 C674 1.389 . S
C637 C636 1.443 . S
C637 C638 1.340 . S
C637 H677 0.951 . S
C638 C637 1.340 . S
C638 C639 1.439 . S
C638 H678 0.950 . S
C639 C638 1.439 . S
C639 N640 1.374 . S
C639 C673 1.395 . S
N640 C636 1.376 . S
N640 C639 1.374 . S
N640 Co641 2.008 . S
Co641 N640 2.008 . S
Co641 N642 1.995 . S
Co641 N647 2.008 . S
Co641 N652 1.995 . S
Co641 N657 2.282 . S
Co641 N663 2.282 . S
N642 Co641 1.995 . S
N642 C643 1.376 . S
N642 C646 1.383 . S
C643 N642 1.376 . S
C643 C644 1.446 . S
C643 C673 1.391 . S
C644 C643 1.446 . S
C644 C645 1.339 . S
C644 H679 0.949 . S
C645 C644 1.339 . S
C645 C646 1.439 . S
C645 H680 0.950 . S
C646 N642 1.383 . S
C646 C645 1.439 . S
C646 C675 1.392 . S
N647 Co641 2.008 . S
N647 C648 1.376 . S
N647 C651 1.374 . S
C648 N647 1.376 . S
C648 C649 1.443 . S
C648 C675 1.389 . S
C649 C648 1.443 . S
C649 C650 1.340 . S
C649 H681 0.951 . S
C650 C649 1.340 . S
C650 C651 1.439 . S
C650 H682 0.950 . S
C651 N647 1.374 . S
C651 C650 1.439 . S
C651 C676 1.395 . S
N652 Co641 1.995 . S
N652 C653 1.376 . S
N652 C656 1.383 . S
C653 N652 1.376 . S
C653 C654 1.446 . S
C653 C676 1.391 . S
C654 C653 1.446 . S
C654 C655 1.339 . S
C654 H683 0.949 . S
C655 C654 1.339 . S
C655 C656 1.439 . S
C655 H684 0.950 . S
C656 N652 1.383 . S
C656 C655 1.439 . S
C656 C674 1.392 . S
N657 Co641 2.282 . S
N657 C660 1.332 . S
N657 C662 1.332 . S
C658 C659 1.386 . S
C658 C661 1.388 . S
C659 C658 1.386 . S
C659 C660 1.382 . S
C659 H685 0.950 . S
C660 N657 1.332 . S
C660 C659 1.382 . S
C660 H671 0.952 . S
C661 C658 1.388 . S
C661 C662 1.382 . S
C661 H686 0.950 . S
C662 N657 1.332 . S
C662 C661 1.382 . S
C662 H672 0.948 . S
N663 Co641 2.282 . S
N663 C667 1.332 . S
N663 C668 1.332 . S
C664 C665 1.388 . S
C664 C668 1.382 . S
C664 H687 0.950 . S
C665 C664 1.388 . S
C665 C666 1.386 . S
C666 C665 1.386 . S
C666 C667 1.382 . S
C666 H688 0.950 . S
C667 N663 1.332 . S
C667 C666 1.382 . S
C667 H669 0.952 . S
C668 N663 1.332 . S
C668 C664 1.382 . S
C668 H670 0.948 . S
H669 C667 0.952 . S
H670 C668 0.948 . S
H671 C660 0.952 . S
H672 C662 0.948 . S
C673 C639 1.395 . S
C673 C643 1.391 . S
C674 C636 1.389 . S
C674 C656 1.392 . S
C675 C646 1.392 . S
C675 C648 1.389 . S
C676 C651 1.395 . S
C676 C653 1.391 . S
H677 C637 0.951 . S
H678 C638 0.950 . S
H679 C644 0.949 . S
H680 C645 0.950 . S
H681 C649 0.951 . S
H682 C650 0.950 . S
H683 C654 0.949 . S
H684 C655 0.950 . S
H685 C659 0.950 . S
H686 C661 0.950 . S
H687 C664 0.950 . S
H688 C666 0.950 . S
C689 C690 1.443 . S
C689 N693 1.376 . S
C689 C727 1.389 . S
C690 C689 1.443 . S
C690 C691 1.340 . S
C690 H730 0.951 . S
C691 C690 1.340 . S
C691 C692 1.439 . S
C691 H731 0.950 . S
C692 C691 1.439 . S
C692 N693 1.374 . S
C692 C726 1.395 . S
N693 C689 1.376 . S
N693 C692 1.374 . S
N693 Co694 2.008 . S
Co694 N693 2.008 . S
Co694 N695 1.995 . S
Co694 N700 2.008 . S
Co694 N705 1.995 . S
Co694 N710 2.282 . S
Co694 N716 2.282 . S
N695 Co694 1.995 . S
N695 C696 1.376 . S
N695 C699 1.383 . S
C696 N695 1.376 . S
C696 C697 1.446 . S
C696 C726 1.391 . S
C697 C696 1.446 . S
C697 C698 1.339 . S
C697 H732 0.949 . S
C698 C697 1.339 . S
C698 C699 1.439 . S
C698 H733 0.950 . S
C699 N695 1.383 . S
C699 C698 1.439 . S
C699 C728 1.392 . S
N700 Co694 2.008 . S
N700 C701 1.376 . S
N700 C704 1.374 . S
C701 N700 1.376 . S
C701 C702 1.443 . S
C701 C728 1.389 . S
C702 C701 1.443 . S
C702 C703 1.340 . S
C702 H734 0.951 . S
C703 C702 1.340 . S
C703 C704 1.439 . S
C703 H735 0.950 . S
C704 N700 1.374 . S
C704 C703 1.439 . S
C704 C729 1.395 . S
N705 Co694 1.995 . S
N705 C706 1.376 . S
N705 C709 1.383 . S
C706 N705 1.376 . S
C706 C707 1.446 . S
C706 C729 1.391 . S
C707 C706 1.446 . S
C707 C708 1.339 . S
C707 H736 0.949 . S
C708 C707 1.339 . S
C708 C709 1.439 . S
C708 H737 0.950 . S
C709 N705 1.383 . S
C709 C708 1.439 . S
C709 C727 1.392 . S
N710 Co694 2.282 . S
N710 C713 1.332 . S
N710 C715 1.332 . S
C711 C712 1.386 . S
C711 C714 1.388 . S
C712 C711 1.386 . S
C712 C713 1.382 . S
C712 H738 0.950 . S
C713 N710 1.332 . S
C713 C712 1.382 . S
C713 H724 0.952 . S
C714 C711 1.388 . S
C714 C715 1.382 . S
C714 H739 0.950 . S
C715 N710 1.332 . S
C715 C714 1.382 . S
C715 H725 0.948 . S
N716 Co694 2.282 . S
N716 C720 1.332 . S
N716 C721 1.332 . S
C717 C718 1.388 . S
C717 C721 1.382 . S
C717 H740 0.950 . S
C718 C717 1.388 . S
C718 C719 1.386 . S
C719 C718 1.386 . S
C719 C720 1.382 . S
C719 H741 0.950 . S
C720 N716 1.332 . S
C720 C719 1.382 . S
C720 H722 0.952 . S
C721 N716 1.332 . S
C721 C717 1.382 . S
C721 H723 0.948 . S
H722 C720 0.952 . S
H723 C721 0.948 . S
H724 C713 0.952 . S
H725 C715 0.948 . S
C726 C692 1.395 . S
C726 C696 1.391 . S
C727 C689 1.389 . S
C727 C709 1.392 . S
C728 C699 1.392 . S
C728 C701 1.389 . S
C729 C704 1.395 . S
C729 C706 1.391 . S
H730 C690 0.951 . S
H731 C691 0.950 . S
H732 C697 0.949 . S
H733 C698 0.950 . S
H734 C702 0.951 . S
H735 C703 0.950 . S
H736 C707 0.949 . S
H737 C708 0.950 . S
H738 C712 0.950 . S
H739 C714 0.950 . S
H740 C717 0.950 . S
H741 C719 0.950 . S
C742 C743 1.443 . S
C742 N746 1.376 . S
C742 C780 1.389 . S
C743 C742 1.443 . S
C743 C744 1.340 . S
C743 H783 0.951 . S
C744 C743 1.340 . S
C744 C745 1.439 . S
C744 H784 0.950 . S
C745 C744 1.439 . S
C745 N746 1.374 . S
C745 C779 1.395 . S
N746 C742 1.376 . S
N746 C745 1.374 . S
N746 Co747 2.008 . S
Co747 N746 2.008 . S
Co747 N748 1.995 . S
Co747 N753 2.008 . S
Co747 N758 1.995 . S
Co747 N763 2.282 . S
Co747 N769 2.282 . S
N748 Co747 1.995 . S
N748 C749 1.376 . S
N748 C752 1.383 . S
C749 N748 1.376 . S
C749 C750 1.446 . S
C749 C779 1.391 . S
C750 C749 1.446 . S
C750 C751 1.339 . S
C750 H785 0.949 . S
C751 C750 1.339 . S
C751 C752 1.439 . S
C751 H786 0.950 . S
C752 N748 1.383 . S
C752 C751 1.439 . S
C752 C781 1.392 . S
N753 Co747 2.008 . S
N753 C754 1.376 . S
N753 C757 1.374 . S
C754 N753 1.376 . S
C754 C755 1.443 . S
C754 C781 1.389 . S
C755 C754 1.443 . S
C755 C756 1.340 . S
C755 H787 0.951 . S
C756 C755 1.340 . S
C756 C757 1.439 . S
C756 H788 0.950 . S
C757 N753 1.374 . S
C757 C756 1.439 . S
C757 C782 1.395 . S
N758 Co747 1.995 . S
N758 C759 1.376 . S
N758 C762 1.383 . S
C759 N758 1.376 . S
C759 C760 1.446 . S
C759 C782 1.391 . S
C760 C759 1.446 . S
C760 C761 1.339 . S
C760 H789 0.949 . S
C761 C760 1.339 . S
C761 C762 1.439 . S
C761 H790 0.950 . S
C762 N758 1.383 . S
C762 C761 1.439 . S
C762 C780 1.392 . S
N763 Co747 2.282 . S
N763 C766 1.332 . S
N763 C768 1.332 . S
C764 C765 1.386 . S
C764 C767 1.388 . S
C765 C764 1.386 . S
C765 C766 1.382 . S
C765 H791 0.950 . S
C766 N763 1.332 . S
C766 C765 1.382 . S
C766 H777 0.952 . S
C767 C764 1.388 . S
C767 C768 1.382 . S
C767 H792 0.950 . S
C768 N763 1.332 . S
C768 C767 1.382 . S
C768 H778 0.948 . S
N769 Co747 2.282 . S
N769 C773 1.332 . S
N769 C774 1.332 . S
C770 C771 1.388 . S
C770 C774 1.382 . S
C770 H793 0.950 . S
C771 C770 1.388 . S
C771 C772 1.386 . S
C772 C771 1.386 . S
C772 C773 1.382 . S
C772 H794 0.950 . S
C773 N769 1.332 . S
C773 C772 1.382 . S
C773 H775 0.952 . S
C774 N769 1.332 . S
C774 C770 1.382 . S
C774 H776 0.948 . S
H775 C773 0.952 . S
H776 C774 0.948 . S
H777 C766 0.952 . S
H778 C768 0.948 . S
C779 C745 1.395 . S
C779 C749 1.391 . S
C780 C742 1.389 . S
C780 C762 1.392 . S
C781 C752 1.392 . S
C781 C754 1.389 . S
C782 C757 1.395 . S
C782 C759 1.391 . S
H783 C743 0.951 . S
H784 C744 0.950 . S
H785 C750 0.949 . S
H786 C751 0.950 . S
H787 C755 0.951 . S
H788 C756 0.950 . S
H789 C760 0.949 . S
H790 C761 0.950 . S
H791 C765 0.950 . S
H792 C767 0.950 . S
H793 C770 0.950 . S
H794 C772 0.950 . S
C795 C796 1.443 . S
C795 N799 1.376 . S
C795 C833 1.389 . S
C796 C795 1.443 . S
C796 C797 1.340 . S
C796 H836 0.951 . S
C797 C796 1.340 . S
C797 C798 1.439 . S
C797 H837 0.950 . S
C798 C797 1.439 . S
C798 N799 1.374 . S
C798 C832 1.395 . S
N799 C795 1.376 . S
N799 C798 1.374 . S
N799 Co800 2.008 . S
Co800 N799 2.008 . S
Co800 N801 1.995 . S
Co800 N806 2.008 . S
Co800 N811 1.995 . S
Co800 N816 2.282 . S
Co800 N822 2.282 . S
N801 Co800 1.995 . S
N801 C802 1.376 . S
N801 C805 1.383 . S
C802 N801 1.376 . S
C802 C803 1.446 . S
C802 C832 1.391 . S
C803 C802 1.446 . S
C803 C804 1.339 . S
C803 H838 0.949 . S
C804 C803 1.339 . S
C804 C805 1.439 . S
C804 H839 0.950 . S
C805 N801 1.383 . S
C805 C804 1.439 . S
C805 C834 1.392 . S
N806 Co800 2.008 . S
N806 C807 1.376 . S
N806 C810 1.374 . S
C807 N806 1.376 . S
C807 C808 1.443 . S
C807 C834 1.389 . S
C808 C807 1.443 . S
C808 C809 1.340 . S
C808 H840 0.951 . S
C809 C808 1.340 . S
C809 C810 1.439 . S
C809 H841 0.950 . S
C810 N806 1.374 . S
C810 C809 1.439 . S
C810 C835 1.395 . S
N811 Co800 1.995 . S
N811 C812 1.376 . S
N811 C815 1.383 . S
C812 N811 1.376 . S
C812 C813 1.446 . S
C812 C835 1.391 . S
C813 C812 1.446 . S
C813 C814 1.339 . S
C813 H842 0.949 . S
C814 C813 1.339 . S
C814 C815 1.439 . S
C814 H843 0.950 . S
C815 N811 1.383 . S
C815 C814 1.439 . S
C815 C833 1.392 . S
N816 Co800 2.282 . S
N816 C819 1.332 . S
N816 C821 1.332 . S
C817 C818 1.386 . S
C817 C820 1.388 . S
C818 C817 1.386 . S
C818 C819 1.382 . S
C818 H844 0.950 . S
C819 N816 1.332 . S
C819 C818 1.382 . S
C819 H830 0.952 . S
C820 C817 1.388 . S
C820 C821 1.382 . S
C820 H845 0.950 . S
C821 N816 1.332 . S
C821 C820 1.382 . S
C821 H831 0.948 . S
N822 Co800 2.282 . S
N822 C826 1.332 . S
N822 C827 1.332 . S
C823 C824 1.388 . S
C823 C827 1.382 . S
C823 H846 0.950 . S
C824 C823 1.388 . S
C824 C825 1.386 . S
C825 C824 1.386 . S
C825 C826 1.382 . S
C825 H847 0.950 . S
C826 N822 1.332 . S
C826 C825 1.382 . S
C826 H828 0.952 . S
C827 N822 1.332 . S
C827 C823 1.382 . S
C827 H829 0.948 . S
H828 C826 0.952 . S
H829 C827 0.948 . S
H830 C819 0.952 . S
H831 C821 0.948 . S
C832 C798 1.395 . S
C832 C802 1.391 . S
C833 C795 1.389 . S
C833 C815 1.392 . S
C834 C805 1.392 . S
C834 C807 1.389 . S
C835 C810 1.395 . S
C835 C812 1.391 . S
H836 C796 0.951 . S
H837 C797 0.950 . S
H838 C803 0.949 . S
H839 C804 0.950 . S
H840 C808 0.951 . S
H841 C809 0.950 . S
H842 C813 0.949 . S
H843 C814 0.950 . S
H844 C818 0.950 . S
H845 C820 0.950 . S
H846 C823 0.950 . S
H847 C825 0.950 . S
C848 C849 1.443 . S
C848 N852 1.376 . S
C848 C886 1.389 . S
C849 C848 1.443 . S
C849 C850 1.340 . S
C849 H889 0.951 . S
C850 C849 1.340 . S
C850 C851 1.439 . S
C850 H890 0.950 . S
C851 C850 1.439 . S
C851 N852 1.374 . S
C851 C885 1.395 . S
N852 C848 1.376 . S
N852 C851 1.374 . S
N852 Co853 2.008 . S
Co853 N852 2.008 . S
Co853 N854 1.995 . S
Co853 N859 2.008 . S
Co853 N864 1.995 . S
Co853 N869 2.282 . S
Co853 N875 2.282 . S
N854 Co853 1.995 . S
N854 C855 1.376 . S
N854 C858 1.383 . S
C855 N854 1.376 . S
C855 C856 1.446 . S
C855 C885 1.391 . S
C856 C855 1.446 . S
C856 C857 1.339 . S
C856 H891 0.949 . S
C857 C856 1.339 . S
C857 C858 1.439 . S
C857 H892 0.950 . S
C858 N854 1.383 . S
C858 C857 1.439 . S
C858 C887 1.392 . S
N859 Co853 2.008 . S
N859 C860 1.376 . S
N859 C863 1.374 . S
C860 N859 1.376 . S
C860 C861 1.443 . S
C860 C887 1.389 . S
C861 C860 1.443 . S
C861 C862 1.340 . S
C861 H893 0.951 . S
C862 C861 1.340 . S
C862 C863 1.439 . S
C862 H894 0.950 . S
C863 N859 1.374 . S
C863 C862 1.439 . S
C863 C888 1.395 . S
N864 Co853 1.995 . S
N864 C865 1.376 . S
N864 C868 1.383 . S
C865 N864 1.376 . S
C865 C866 1.446 . S
C865 C888 1.391 . S
C866 C865 1.446 . S
C866 C867 1.339 . S
C866 H895 0.949 . S
C867 C866 1.339 . S
C867 C868 1.439 . S
C867 H896 0.950 . S
C868 N864 1.383 . S
C868 C867 1.439 . S
C868 C886 1.392 . S
N869 Co853 2.282 . S
N869 C872 1.332 . S
N869 C874 1.332 . S
C870 C871 1.386 . S
C870 C873 1.388 . S
C871 C870 1.386 . S
C871 C872 1.382 . S
C871 H897 0.950 . S
C872 N869 1.332 . S
C872 C871 1.382 . S
C872 H883 0.952 . S
C873 C870 1.388 . S
C873 C874 1.382 . S
C873 H898 0.950 . S
C874 N869 1.332 . S
C874 C873 1.382 . S
C874 H884 0.948 . S
N875 Co853 2.282 . S
N875 C879 1.332 . S
N875 C880 1.332 . S
C876 C877 1.388 . S
C876 C880 1.382 . S
C876 H899 0.950 . S
C877 C876 1.388 . S
C877 C878 1.386 . S
C878 C877 1.386 . S
C878 C879 1.382 . S
C878 H900 0.950 . S
C879 N875 1.332 . S
C879 C878 1.382 . S
C879 H881 0.952 . S
C880 N875 1.332 . S
C880 C876 1.382 . S
C880 H882 0.948 . S
H881 C879 0.952 . S
H882 C880 0.948 . S
H883 C872 0.952 . S
H884 C874 0.948 . S
C885 C851 1.395 . S
C885 C855 1.391 . S
C886 C848 1.389 . S
C886 C868 1.392 . S
C887 C858 1.392 . S
C887 C860 1.389 . S
C888 C863 1.395 . S
C888 C865 1.391 . S
H889 C849 0.951 . S
H890 C850 0.950 . S
H891 C856 0.949 . S
H892 C857 0.950 . S
H893 C861 0.951 . S
H894 C862 0.950 . S
H895 C866 0.949 . S
H896 C867 0.950 . S
H897 C871 0.950 . S
H898 C873 0.950 . S
H899 C876 0.950 . S
H900 C878 0.950 . S
C901 C902 1.443 . S
C901 N905 1.376 . S
C901 C939 1.389 . S
C902 C901 1.443 . S
C902 C903 1.340 . S
C902 H942 0.951 . S
C903 C902 1.340 . S
C903 C904 1.439 . S
C903 H943 0.950 . S
C904 C903 1.439 . S
C904 N905 1.374 . S
C904 C938 1.395 . S
N905 C901 1.376 . S
N905 C904 1.374 . S
N905 Co906 2.008 . S
Co906 N905 2.008 . S
Co906 N907 1.995 . S
Co906 N912 2.008 . S
Co906 N917 1.995 . S
Co906 N922 2.282 . S
Co906 N928 2.282 . S
N907 Co906 1.995 . S
N907 C908 1.376 . S
N907 C911 1.383 . S
C908 N907 1.376 . S
C908 C909 1.446 . S
C908 C938 1.391 . S
C909 C908 1.446 . S
C909 C910 1.339 . S
C909 H944 0.949 . S
C910 C909 1.339 . S
C910 C911 1.439 . S
C910 H945 0.950 . S
C911 N907 1.383 . S
C911 C910 1.439 . S
C911 C940 1.392 . S
N912 Co906 2.008 . S
N912 C913 1.376 . S
N912 C916 1.374 . S
C913 N912 1.376 . S
C913 C914 1.443 . S
C913 C940 1.389 . S
C914 C913 1.443 . S
C914 C915 1.340 . S
C914 H946 0.951 . S
C915 C914 1.340 . S
C915 C916 1.439 . S
C915 H947 0.950 . S
C916 N912 1.374 . S
C916 C915 1.439 . S
C916 C941 1.395 . S
N917 Co906 1.995 . S
N917 C918 1.376 . S
N917 C921 1.383 . S
C918 N917 1.376 . S
C918 C919 1.446 . S
C918 C941 1.391 . S
C919 C918 1.446 . S
C919 C920 1.339 . S
C919 H948 0.949 . S
C920 C919 1.339 . S
C920 C921 1.439 . S
C920 H949 0.950 . S
C921 N917 1.383 . S
C921 C920 1.439 . S
C921 C939 1.392 . S
N922 Co906 2.282 . S
N922 C925 1.332 . S
N922 C927 1.332 . S
C923 C924 1.386 . S
C923 C926 1.388 . S
C924 C923 1.386 . S
C924 C925 1.382 . S
C924 H950 0.950 . S
C925 N922 1.332 . S
C925 C924 1.382 . S
C925 H936 0.952 . S
C926 C923 1.388 . S
C926 C927 1.382 . S
C926 H951 0.950 . S
C927 N922 1.332 . S
C927 C926 1.382 . S
C927 H937 0.948 . S
N928 Co906 2.282 . S
N928 C932 1.332 . S
N928 C933 1.332 . S
C929 C930 1.388 . S
C929 C933 1.382 . S
C929 H952 0.950 . S
C930 C929 1.388 . S
C930 C931 1.386 . S
C931 C930 1.386 . S
C931 C932 1.382 . S
C931 H953 0.950 . S
C932 N928 1.332 . S
C932 C931 1.382 . S
C932 H934 0.952 . S
C933 N928 1.332 . S
C933 C929 1.382 . S
C933 H935 0.948 . S
H934 C932 0.952 . S
H935 C933 0.948 . S
H936 C925 0.952 . S
H937 C927 0.948 . S
C938 C904 1.395 . S
C938 C908 1.391 . S
C939 C901 1.389 . S
C939 C921 1.392 . S
C940 C911 1.392 . S
C940 C913 1.389 . S
C941 C916 1.395 . S
C941 C918 1.391 . S
H942 C902 0.951 . S
H943 C903 0.950 . S
H944 C909 0.949 . S
H945 C910 0.950 . S
H946 C914 0.951 . S
H947 C915 0.950 . S
H948 C919 0.949 . S
H949 C920 0.950 . S
H950 C924 0.950 . S
H951 C926 0.950 . S
H952 C929 0.950 . S
H953 C931 0.950 . S
C954 C955 1.443 . S
C954 N958 1.376 . S
C954 C992 1.389 . S
C955 C954 1.443 . S
C955 C956 1.340 . S
C955 H995 0.951 . S
C956 C955 1.340 . S
C956 C957 1.439 . S
C956 H996 0.950 . S
C957 C956 1.439 . S
C957 N958 1.374 . S
C957 C991 1.395 . S
N958 C954 1.376 . S
N958 C957 1.374 . S
N958 Co959 2.008 . S
Co959 N958 2.008 . S
Co959 N960 1.995 . S
Co959 N965 2.008 . S
Co959 N970 1.995 . S
Co959 N975 2.282 . S
Co959 N981 2.282 . S
N960 Co959 1.995 . S
N960 C961 1.376 . S
N960 C964 1.383 . S
C961 N960 1.376 . S
C961 C962 1.446 . S
C961 C991 1.391 . S
C962 C961 1.446 . S
C962 C963 1.339 . S
C962 H997 0.949 . S
C963 C962 1.339 . S
C963 C964 1.439 . S
C963 H998 0.950 . S
C964 N960 1.383 . S
C964 C963 1.439 . S
C964 C993 1.392 . S
N965 Co959 2.008 . S
N965 C966 1.376 . S
N965 C969 1.374 . S
C966 N965 1.376 . S
C966 C967 1.443 . S
C966 C993 1.389 . S
C967 C966 1.443 . S
C967 C968 1.340 . S
C967 H999 0.951 . S
C968 C967 1.340 . S
C968 C969 1.439 . S
C968 H1000 0.950 . S
C969 N965 1.374 . S
C969 C968 1.439 . S
C969 C994 1.395 . S
N970 Co959 1.995 . S
N970 C971 1.376 . S
N970 C974 1.383 . S
C971 N970 1.376 . S
C971 C972 1.446 . S
C971 C994 1.391 . S
C972 C971 1.446 . S
C972 C973 1.339 . S
C972 H1001 0.949 . S
C973 C972 1.339 . S
C973 C974 1.439 . S
C973 H1002 0.950 . S
C974 N970 1.383 . S
C974 C973 1.439 . S
C974 C992 1.392 . S
N975 Co959 2.282 . S
N975 C978 1.332 . S
N975 C980 1.332 . S
C976 C977 1.386 . S
C976 C979 1.388 . S
C977 C976 1.386 . S
C977 C978 1.382 . S
C977 H1003 0.950 . S
C978 N975 1.332 . S
C978 C977 1.382 . S
C978 H989 0.952 . S
C979 C976 1.388 . S
C979 C980 1.382 . S
C979 H1004 0.950 . S
C980 N975 1.332 . S
C980 C979 1.382 . S
C980 H990 0.948 . S
N981 Co959 2.282 . S
N981 C985 1.332 . S
N981 C986 1.332 . S
C982 C983 1.388 . S
C982 C986 1.382 . S
C982 H1005 0.950 . S
C983 C982 1.388 . S
C983 C984 1.386 . S
C984 C983 1.386 . S
C984 C985 1.382 . S
C984 H1006 0.950 . S
C985 N981 1.332 . S
C985 C984 1.382 . S
C985 H987 0.952 . S
C986 N981 1.332 . S
C986 C982 1.382 . S
C986 H988 0.948 . S
H987 C985 0.952 . S
H988 C986 0.948 . S
H989 C978 0.952 . S
H990 C980 0.948 . S
C991 C957 1.395 . S
C991 C961 1.391 . S
C992 C954 1.389 . S
C992 C974 1.392 . S
C993 C964 1.392 . S
C993 C966 1.389 . S
C994 C969 1.395 . S
C994 C971 1.391 . S
H995 C955 0.951 . S
H996 C956 0.950 . S
H997 C962 0.949 . S
H998 C963 0.950 . S
H999 C967 0.951 . S
H1000 C968 0.950 . S
H1001 C972 0.949 . S
H1002 C973 0.950 . S
H1003 C977 0.950 . S
H1004 C979 0.950 . S
H1005 C982 0.950 . S
H1006 C984 0.950 . S
C1007 C1008 1.443 . S
C1007 N1011 1.376 . S
C1007 C1045 1.389 . S
C1008 C1007 1.443 . S
C1008 C1009 1.340 . S
C1008 H1048 0.951 . S
C1009 C1008 1.340 . S
C1009 C1010 1.439 . S
C1009 H1049 0.950 . S
C1010 C1009 1.439 . S
C1010 N1011 1.374 . S
C1010 C1044 1.395 . S
N1011 C1007 1.376 . S
N1011 C1010 1.374 . S
N1011 Co1012 2.008 . S
Co1012 N1011 2.008 . S
Co1012 N1013 1.995 . S
Co1012 N1018 2.008 . S
Co1012 N1023 1.995 . S
Co1012 N1028 2.282 . S
Co1012 N1034 2.282 . S
N1013 Co1012 1.995 . S
N1013 C1014 1.376 . S
N1013 C1017 1.383 . S
C1014 N1013 1.376 . S
C1014 C1015 1.446 . S
C1014 C1044 1.391 . S
C1015 C1014 1.446 . S
C1015 C1016 1.339 . S
C1015 H1050 0.949 . S
C1016 C1015 1.339 . S
C1016 C1017 1.439 . S
C1016 H1051 0.950 . S
C1017 N1013 1.383 . S
C1017 C1016 1.439 . S
C1017 C1046 1.392 . S
N1018 Co1012 2.008 . S
N1018 C1019 1.376 . S
N1018 C1022 1.374 . S
C1019 N1018 1.376 . S
C1019 C1020 1.443 . S
C1019 C1046 1.389 . S
C1020 C1019 1.443 . S
C1020 C1021 1.340 . S
C1020 H1052 0.951 . S
C1021 C1020 1.340 . S
C1021 C1022 1.439 . S
C1021 H1053 0.950 . S
C1022 N1018 1.374 . S
C1022 C1021 1.439 . S
C1022 C1047 1.395 . S
N1023 Co1012 1.995 . S
N1023 C1024 1.376 . S
N1023 C1027 1.383 . S
C1024 N1023 1.376 . S
C1024 C1025 1.446 . S
C1024 C1047 1.391 . S
C1025 C1024 1.446 . S
C1025 C1026 1.339 . S
C1025 H1054 0.949 . S
C1026 C1025 1.339 . S
C1026 C1027 1.439 . S
C1026 H1055 0.950 . S
C1027 N1023 1.383 . S
C1027 C1026 1.439 . S
C1027 C1045 1.392 . S
N1028 Co1012 2.282 . S
N1028 C1031 1.332 . S
N1028 C1033 1.332 . S
C1029 C1030 1.386 . S
C1029 C1032 1.388 . S
C1030 C1029 1.386 . S
C1030 C1031 1.382 . S
C1030 H1056 0.950 . S
C1031 N1028 1.332 . S
C1031 C1030 1.382 . S
C1031 H1042 0.952 . S
C1032 C1029 1.388 . S
C1032 C1033 1.382 . S
C1032 H1057 0.950 . S
C1033 N1028 1.332 . S
C1033 C1032 1.382 . S
C1033 H1043 0.948 . S
N1034 Co1012 2.282 . S
N1034 C1038 1.332 . S
N1034 C1039 1.332 . S
C1035 C1036 1.388 . S
C1035 C1039 1.382 . S
C1035 H1058 0.950 . S
C1036 C1035 1.388 . S
C1036 C1037 1.386 . S
C1037 C1036 1.386 . S
C1037 C1038 1.382 . S
C1037 H1059 0.950 . S
C1038 N1034 1.332 . S
C1038 C1037 1.382 . S
C1038 H1040 0.952 . S
C1039 N1034 1.332 . S
C1039 C1035 1.382 . S
C1039 H1041 0.948 . S
H1040 C1038 0.952 . S
H1041 C1039 0.948 . S
H1042 C1031 0.952 . S
H1043 C1033 0.948 . S
C1044 C1010 1.395 . S
C1044 C1014 1.391 . S
C1045 C1007 1.389 . S
C1045 C1027 1.392 . S
C1046 C1017 1.392 . S
C1046 C1019 1.389 . S
C1047 C1022 1.395 . S
C1047 C1024 1.391 . S
H1048 C1008 0.951 . S
H1049 C1009 0.950 . S
H1050 C1015 0.949 . S
H1051 C1016 0.950 . S
H1052 C1020 0.951 . S
H1053 C1021 0.950 . S
H1054 C1025 0.949 . S
H1055 C1026 0.950 . S
H1056 C1030 0.950 . S
H1057 C1032 0.950 . S
H1058 C1035 0.950 . S
H1059 C1037 0.950 . S
C1060 C1061 1.443 . S
C1060 N1064 1.376 . S
C1060 C1098 1.389 . S
C1061 C1060 1.443 . S
C1061 C1062 1.340 . S
C1061 H1101 0.951 . S
C1062 C1061 1.340 . S
C1062 C1063 1.439 . S
C1062 H1102 0.950 . S
C1063 C1062 1.439 . S
C1063 N1064 1.374 . S
C1063 C1097 1.395 . S
N1064 C1060 1.376 . S
N1064 C1063 1.374 . S
N1064 Co1065 2.008 . S
Co1065 N1064 2.008 . S
Co1065 N1066 1.995 . S
Co1065 N1071 2.008 . S
Co1065 N1076 1.995 . S
Co1065 N1081 2.282 . S
Co1065 N1087 2.282 . S
N1066 Co1065 1.995 . S
N1066 C1067 1.376 . S
N1066 C1070 1.383 . S
C1067 N1066 1.376 . S
C1067 C1068 1.446 . S
C1067 C1097 1.391 . S
C1068 C1067 1.446 . S
C1068 C1069 1.339 . S
C1068 H1103 0.949 . S
C1069 C1068 1.339 . S
C1069 C1070 1.439 . S
C1069 H1104 0.950 . S
C1070 N1066 1.383 . S
C1070 C1069 1.439 . S
C1070 C1099 1.392 . S
N1071 Co1065 2.008 . S
N1071 C1072 1.376 . S
N1071 C1075 1.374 . S
C1072 N1071 1.376 . S
C1072 C1073 1.443 . S
C1072 C1099 1.389 . S
C1073 C1072 1.443 . S
C1073 C1074 1.340 . S
C1073 H1105 0.951 . S
C1074 C1073 1.340 . S
C1074 C1075 1.439 . S
C1074 H1106 0.950 . S
C1075 N1071 1.374 . S
C1075 C1074 1.439 . S
C1075 C1100 1.395 . S
N1076 Co1065 1.995 . S
N1076 C1077 1.376 . S
N1076 C1080 1.383 . S
C1077 N1076 1.376 . S
C1077 C1078 1.446 . S
C1077 C1100 1.391 . S
C1078 C1077 1.446 . S
C1078 C1079 1.339 . S
C1078 H1107 0.949 . S
C1079 C1078 1.339 . S
C1079 C1080 1.439 . S
C1079 H1108 0.950 . S
C1080 N1076 1.383 . S
C1080 C1079 1.439 . S
C1080 C1098 1.392 . S
N1081 Co1065 2.282 . S
N1081 C1084 1.332 . S
N1081 C1086 1.332 . S
C1082 C1083 1.386 . S
C1082 C1085 1.388 . S
C1083 C1082 1.386 . S
C1083 C1084 1.382 . S
C1083 H1109 0.950 . S
C1084 N1081 1.332 . S
C1084 C1083 1.382 . S
C1084 H1095 0.952 . S
C1085 C1082 1.388 . S
C1085 C1086 1.382 . S
C1085 H1110 0.950 . S
C1086 N1081 1.332 . S
C1086 C1085 1.382 . S
C1086 H1096 0.948 . S
N1087 Co1065 2.282 . S
N1087 C1091 1.332 . S
N1087 C1092 1.332 . S
C1088 C1089 1.388 . S
C1088 C1092 1.382 . S
C1088 H1111 0.950 . S
C1089 C1088 1.388 . S
C1089 C1090 1.386 . S
C1090 C1089 1.386 . S
C1090 C1091 1.382 . S
C1090 H1112 0.950 . S
C1091 N1087 1.332 . S
C1091 C1090 1.382 . S
C1091 H1093 0.952 . S
C1092 N1087 1.332 . S
C1092 C1088 1.382 . S
C1092 H1094 0.948 . S
H1093 C1091 0.952 . S
H1094 C1092 0.948 . S
H1095 C1084 0.952 . S
H1096 C1086 0.948 . S
C1097 C1063 1.395 . S
C1097 C1067 1.391 . S
C1098 C1060 1.389 . S
C1098 C1080 1.392 . S
C1099 C1070 1.392 . S
C1099 C1072 1.389 . S
C1100 C1075 1.395 . S
C1100 C1077 1.391 . S
H1101 C1061 0.951 . S
H1102 C1062 0.950 . S
H1103 C1068 0.949 . S
H1104 C1069 0.950 . S
H1105 C1073 0.951 . S
H1106 C1074 0.950 . S
H1107 C1078 0.949 . S
H1108 C1079 0.950 . S
H1109 C1083 0.950 . S
H1110 C1085 0.950 . S
H1111 C1088 0.950 . S
H1112 C1090 0.950 . S
C1113 C1114 1.443 . S
C1113 N1117 1.376 . S
C1113 C1151 1.389 . S
C1114 C1113 1.443 . S
C1114 C1115 1.340 . S
C1114 H1154 0.951 . S
C1115 C1114 1.340 . S
C1115 C1116 1.439 . S
C1115 H1155 0.950 . S
C1116 C1115 1.439 . S
C1116 N1117 1.374 . S
C1116 C1150 1.395 . S
N1117 C1113 1.376 . S
N1117 C1116 1.374 . S
N1117 Co1118 2.008 . S
Co1118 N1117 2.008 . S
Co1118 N1119 1.995 . S
Co1118 N1124 2.008 . S
Co1118 N1129 1.995 . S
Co1118 N1134 2.282 . S
Co1118 N1140 2.282 . S
N1119 Co1118 1.995 . S
N1119 C1120 1.376 . S
N1119 C1123 1.383 . S
C1120 N1119 1.376 . S
C1120 C1121 1.446 . S
C1120 C1150 1.391 . S
C1121 C1120 1.446 . S
C1121 C1122 1.339 . S
C1121 H1156 0.949 . S
C1122 C1121 1.339 . S
C1122 C1123 1.439 . S
C1122 H1157 0.950 . S
C1123 N1119 1.383 . S
C1123 C1122 1.439 . S
C1123 C1152 1.392 . S
N1124 Co1118 2.008 . S
N1124 C1125 1.376 . S
N1124 C1128 1.374 . S
C1125 N1124 1.376 . S
C1125 C1126 1.443 . S
C1125 C1152 1.389 . S
C1126 C1125 1.443 . S
C1126 C1127 1.340 . S
C1126 H1158 0.951 . S
C1127 C1126 1.340 . S
C1127 C1128 1.439 . S
C1127 H1159 0.950 . S
C1128 N1124 1.374 . S
C1128 C1127 1.439 . S
C1128 C1153 1.395 . S
N1129 Co1118 1.995 . S
N1129 C1130 1.376 . S
N1129 C1133 1.383 . S
C1130 N1129 1.376 . S
C1130 C1131 1.446 . S
C1130 C1153 1.391 . S
C1131 C1130 1.446 . S
C1131 C1132 1.339 . S
C1131 H1160 0.949 . S
C1132 C1131 1.339 . S
C1132 C1133 1.439 . S
C1132 H1161 0.950 . S
C1133 N1129 1.383 . S
C1133 C1132 1.439 . S
C1133 C1151 1.392 . S
N1134 Co1118 2.282 . S
N1134 C1137 1.332 . S
N1134 C1139 1.332 . S
C1135 C1136 1.386 . S
C1135 C1138 1.388 . S
C1136 C1135 1.386 . S
C1136 C1137 1.382 . S
C1136 H1162 0.950 . S
C1137 N1134 1.332 . S
C1137 C1136 1.382 . S
C1137 H1148 0.952 . S
C1138 C1135 1.388 . S
C1138 C1139 1.382 . S
C1138 H1163 0.950 . S
C1139 N1134 1.332 . S
C1139 C1138 1.382 . S
C1139 H1149 0.948 . S
N1140 Co1118 2.282 . S
N1140 C1144 1.332 . S
N1140 C1145 1.332 . S
C1141 C1142 1.388 . S
C1141 C1145 1.382 . S
C1141 H1164 0.950 . S
C1142 C1141 1.388 . S
C1142 C1143 1.386 . S
C1143 C1142 1.386 . S
C1143 C1144 1.382 . S
C1143 H1165 0.950 . S
C1144 N1140 1.332 . S
C1144 C1143 1.382 . S
C1144 H1146 0.952 . S
C1145 N1140 1.332 . S
C1145 C1141 1.382 . S
C1145 H1147 0.948 . S
H1146 C1144 0.952 . S
H1147 C1145 0.948 . S
H1148 C1137 0.952 . S
H1149 C1139 0.948 . S
C1150 C1116 1.395 . S
C1150 C1120 1.391 . S
C1151 C1113 1.389 . S
C1151 C1133 1.392 . S
C1152 C1123 1.392 . S
C1152 C1125 1.389 . S
C1153 C1128 1.395 . S
C1153 C1130 1.391 . S
H1154 C1114 0.951 . S
H1155 C1115 0.950 . S
H1156 C1121 0.949 . S
H1157 C1122 0.950 . S
H1158 C1126 0.951 . S
H1159 C1127 0.950 . S
H1160 C1131 0.949 . S
H1161 C1132 0.950 . S
H1162 C1136 0.950 . S
H1163 C1138 0.950 . S
H1164 C1141 0.950 . S
H1165 C1143 0.950 . S
C1166 C1167 1.443 . S
C1166 N1170 1.376 . S
C1166 C1204 1.389 . S
C1167 C1166 1.443 . S
C1167 C1168 1.340 . S
C1167 H1207 0.951 . S
C1168 C1167 1.340 . S
C1168 C1169 1.439 . S
C1168 H1208 0.950 . S
C1169 C1168 1.439 . S
C1169 N1170 1.374 . S
C1169 C1203 1.395 . S
N1170 C1166 1.376 . S
N1170 C1169 1.374 . S
N1170 Co1171 2.008 . S
Co1171 N1170 2.008 . S
Co1171 N1172 1.995 . S
Co1171 N1177 2.008 . S
Co1171 N1182 1.995 . S
Co1171 N1187 2.282 . S
Co1171 N1193 2.282 . S
N1172 Co1171 1.995 . S
N1172 C1173 1.376 . S
N1172 C1176 1.383 . S
C1173 N1172 1.376 . S
C1173 C1174 1.446 . S
C1173 C1203 1.391 . S
C1174 C1173 1.446 . S
C1174 C1175 1.339 . S
C1174 H1209 0.949 . S
C1175 C1174 1.339 . S
C1175 C1176 1.439 . S
C1175 H1210 0.950 . S
C1176 N1172 1.383 . S
C1176 C1175 1.439 . S
C1176 C1205 1.392 . S
N1177 Co1171 2.008 . S
N1177 C1178 1.376 . S
N1177 C1181 1.374 . S
C1178 N1177 1.376 . S
C1178 C1179 1.443 . S
C1178 C1205 1.389 . S
C1179 C1178 1.443 . S
C1179 C1180 1.340 . S
C1179 H1211 0.951 . S
C1180 C1179 1.340 . S
C1180 C1181 1.439 . S
C1180 H1212 0.950 . S
C1181 N1177 1.374 . S
C1181 C1180 1.439 . S
C1181 C1206 1.395 . S
N1182 Co1171 1.995 . S
N1182 C1183 1.376 . S
N1182 C1186 1.383 . S
C1183 N1182 1.376 . S
C1183 C1184 1.446 . S
C1183 C1206 1.391 . S
C1184 C1183 1.446 . S
C1184 C1185 1.339 . S
C1184 H1213 0.949 . S
C1185 C1184 1.339 . S
C1185 C1186 1.439 . S
C1185 H1214 0.950 . S
C1186 N1182 1.383 . S
C1186 C1185 1.439 . S
C1186 C1204 1.392 . S
N1187 Co1171 2.282 . S
N1187 C1190 1.332 . S
N1187 C1192 1.332 . S
C1188 C1189 1.386 . S
C1188 C1191 1.388 . S
C1189 C1188 1.386 . S
C1189 C1190 1.382 . S
C1189 H1215 0.950 . S
C1190 N1187 1.332 . S
C1190 C1189 1.382 . S
C1190 H1201 0.952 . S
C1191 C1188 1.388 . S
C1191 C1192 1.382 . S
C1191 H1216 0.950 . S
C1192 N1187 1.332 . S
C1192 C1191 1.382 . S
C1192 H1202 0.948 . S
N1193 Co1171 2.282 . S
N1193 C1197 1.332 . S
N1193 C1198 1.332 . S
C1194 C1195 1.388 . S
C1194 C1198 1.382 . S
C1194 H1217 0.950 . S
C1195 C1194 1.388 . S
C1195 C1196 1.386 . S
C1196 C1195 1.386 . S
C1196 C1197 1.382 . S
C1196 H1218 0.950 . S
C1197 N1193 1.332 . S
C1197 C1196 1.382 . S
C1197 H1199 0.952 . S
C1198 N1193 1.332 . S
C1198 C1194 1.382 . S
C1198 H1200 0.948 . S
H1199 C1197 0.952 . S
H1200 C1198 0.948 . S
H1201 C1190 0.952 . S
H1202 C1192 0.948 . S
C1203 C1169 1.395 . S
C1203 C1173 1.391 . S
C1204 C1166 1.389 . S
C1204 C1186 1.392 . S
C1205 C1176 1.392 . S
C1205 C1178 1.389 . S
C1206 C1181 1.395 . S
C1206 C1183 1.391 . S
H1207 C1167 0.951 . S
H1208 C1168 0.950 . S
H1209 C1174 0.949 . S
H1210 C1175 0.950 . S
H1211 C1179 0.951 . S
H1212 C1180 0.950 . S
H1213 C1184 0.949 . S
H1214 C1185 0.950 . S
H1215 C1189 0.950 . S
H1216 C1191 0.950 . S
H1217 C1194 0.950 . S
H1218 C1196 0.950 . S
C1219 C1220 1.443 . S
C1219 N1223 1.376 . S
C1219 C1257 1.389 . S
C1220 C1219 1.443 . S
C1220 C1221 1.340 . S
C1220 H1260 0.951 . S
C1221 C1220 1.340 . S
C1221 C1222 1.439 . S
C1221 H1261 0.950 . S
C1222 C1221 1.439 . S
C1222 N1223 1.374 . S
C1222 C1256 1.395 . S
N1223 C1219 1.376 . S
N1223 C1222 1.374 . S
N1223 Co1224 2.008 . S
Co1224 N1223 2.008 . S
Co1224 N1225 1.995 . S
Co1224 N1230 2.008 . S
Co1224 N1235 1.995 . S
Co1224 N1240 2.282 . S
Co1224 N1246 2.282 . S
N1225 Co1224 1.995 . S
N1225 C1226 1.376 . S
N1225 C1229 1.383 . S
C1226 N1225 1.376 . S
C1226 C1227 1.446 . S
C1226 C1256 1.391 . S
C1227 C1226 1.446 . S
C1227 C1228 1.339 . S
C1227 H1262 0.949 . S
C1228 C1227 1.339 . S
C1228 C1229 1.439 . S
C1228 H1263 0.950 . S
C1229 N1225 1.383 . S
C1229 C1228 1.439 . S
C1229 C1258 1.392 . S
N1230 Co1224 2.008 . S
N1230 C1231 1.376 . S
N1230 C1234 1.374 . S
C1231 N1230 1.376 . S
C1231 C1232 1.443 . S
C1231 C1258 1.389 . S
C1232 C1231 1.443 . S
C1232 C1233 1.340 . S
C1232 H1264 0.951 . S
C1233 C1232 1.340 . S
C1233 C1234 1.439 . S
C1233 H1265 0.950 . S
C1234 N1230 1.374 . S
C1234 C1233 1.439 . S
C1234 C1259 1.395 . S
N1235 Co1224 1.995 . S
N1235 C1236 1.376 . S
N1235 C1239 1.383 . S
C1236 N1235 1.376 . S
C1236 C1237 1.446 . S
C1236 C1259 1.391 . S
C1237 C1236 1.446 . S
C1237 C1238 1.339 . S
C1237 H1266 0.949 . S
C1238 C1237 1.339 . S
C1238 C1239 1.439 . S
C1238 H1267 0.950 . S
C1239 N1235 1.383 . S
C1239 C1238 1.439 . S
C1239 C1257 1.392 . S
N1240 Co1224 2.282 . S
N1240 C1243 1.332 . S
N1240 C1245 1.332 . S
C1241 C1242 1.386 . S
C1241 C1244 1.388 . S
C1242 C1241 1.386 . S
C1242 C1243 1.382 . S
C1242 H1268 0.950 . S
C1243 N1240 1.332 . S
C1243 C1242 1.382 . S
C1243 H1254 0.952 . S
C1244 C1241 1.388 . S
C1244 C1245 1.382 . S
C1244 H1269 0.950 . S
C1245 N1240 1.332 . S
C1245 C1244 1.382 . S
C1245 H1255 0.948 . S
N1246 Co1224 2.282 . S
N1246 C1250 1.332 . S
N1246 C1251 1.332 . S
C1247 C1248 1.388 . S
C1247 C1251 1.382 . S
C1247 H1270 0.950 . S
C1248 C1247 1.388 . S
C1248 C1249 1.386 . S
C1249 C1248 1.386 . S
C1249 C1250 1.382 . S
C1249 H1271 0.950 . S
C1250 N1246 1.332 . S
C1250 C1249 1.382 . S
C1250 H1252 0.952 . S
C1251 N1246 1.332 . S
C1251 C1247 1.382 . S
C1251 H1253 0.948 . S
H1252 C1250 0.952 . S
H1253 C1251 0.948 . S
H1254 C1243 0.952 . S
H1255 C1245 0.948 . S
C1256 C1222 1.395 . S
C1256 C1226 1.391 . S
C1257 C1219 1.389 . S
C1257 C1239 1.392 . S
C1258 C1229 1.392 . S
C1258 C1231 1.389 . S
C1259 C1234 1.395 . S
C1259 C1236 1.391 . S
H1260 C1220 0.951 . S
H1261 C1221 0.950 . S
H1262 C1227 0.949 . S
H1263 C1228 0.950 . S
H1264 C1232 0.951 . S
H1265 C1233 0.950 . S
H1266 C1237 0.949 . S
H1267 C1238 0.950 . S
H1268 C1242 0.950 . S
H1269 C1244 0.950 . S
H1270 C1247 0.950 . S
H1271 C1249 0.950 . S
H1272 C1290 0.951 . S
H1273 C1292 0.951 . S
H1274 C1294 0.950 . S
H1275 C1295 0.950 . S
H1276 C1297 0.950 . S
H1277 C1300 0.950 . S
H1278 C1301 0.950 . S
H1279 C1303 0.950 . S
H1280 C1304 0.950 . S
H1281 C1305 0.951 . S
H1282 C1307 0.951 . S
H1283 C1309 0.950 . S
H1284 C1310 0.950 . S
H1285 C1312 0.950 . S
H1286 C1315 0.950 . S
H1287 C1316 0.950 . S
H1288 C1318 0.950 . S
H1289 C1319 0.950 . S
C1290 H1272 0.951 . S
C1290 C1291 1.366 . S
C1290 C1292 1.388 . S
C1291 C1290 1.366 . S
C1291 C1295 1.385 . S
C1292 H1273 0.951 . S
C1292 C1290 1.388 . S
C1292 C1293 1.366 . S
C1293 C1292 1.366 . S
C1293 C1294 1.414 . S
C1293 C1296 1.499 . S
C1294 H1274 0.950 . S
C1294 C1293 1.414 . S
C1294 C1295 1.374 . S
C1295 H1275 0.950 . S
C1295 C1291 1.385 . S
C1295 C1294 1.374 . S
C1296 C1293 1.499 . S
C1296 C1297 1.373 . S
C1296 C1298 1.389 . S
C1297 H1276 0.950 . S
C1297 C1296 1.373 . S
C1297 C1313 1.377 . S
C1298 C1296 1.389 . S
C1298 C1299 1.524 . S
C1298 C1312 1.377 . S
C1299 C1298 1.524 . S
C1299 C1300 1.397 . S
C1299 C1304 1.363 . S
C1300 H1277 0.950 . S
C1300 C1299 1.397 . S
C1300 C1301 1.334 . S
C1301 H1278 0.950 . S
C1301 C1300 1.334 . S
C1301 C1302 1.287 . S
C1302 C1301 1.287 . S
C1302 C1303 1.524 . S
C1302 H1321 0.913 . S
C1303 H1279 0.950 . S
C1303 C1302 1.524 . S
C1303 C1304 1.415 . S
C1304 H1280 0.950 . S
C1304 C1299 1.363 . S
C1304 C1303 1.415 . S
C1305 H1281 0.951 . S
C1305 C1306 1.366 . S
C1305 C1307 1.388 . S
C1306 C1305 1.366 . S
C1306 C1310 1.385 . S
C1307 H1282 0.951 . S
C1307 C1305 1.388 . S
C1307 C1308 1.366 . S
C1308 C1307 1.366 . S
C1308 C1309 1.414 . S
C1308 C1311 1.499 . S
C1309 H1283 0.950 . S
C1309 C1308 1.414 . S
C1309 C1310 1.374 . S
C1310 H1284 0.950 . S
C1310 C1306 1.385 . S
C1310 C1309 1.374 . S
C1311 C1308 1.499 . S
C1311 C1312 1.373 . S
C1311 C1313 1.389 . S
C1312 H1285 0.950 . S
C1312 C1298 1.377 . S
C1312 C1311 1.373 . S
C1313 C1297 1.377 . S
C1313 C1311 1.389 . S
C1313 C1314 1.524 . S
C1314 C1313 1.524 . S
C1314 C1315 1.397 . S
C1314 C1319 1.363 . S
C1315 H1286 0.950 . S
C1315 C1314 1.397 . S
C1315 C1316 1.334 . S
C1316 H1287 0.950 . S
C1316 C1315 1.334 . S
C1316 C1317 1.287 . S
C1317 C1316 1.287 . S
C1317 C1318 1.524 . S
C1317 H1320 0.999 . S
C1318 H1288 0.950 . S
C1318 C1317 1.524 . S
C1318 C1319 1.415 . S
C1319 H1289 0.950 . S
C1319 C1314 1.363 . S
C1319 C1318 1.415 . S
H1320 C1317 0.999 . S
H1321 C1302 0.913 . S
H1322 C1340 0.951 . S
H1323 C1342 0.951 . S
H1324 C1344 0.950 . S
H1325 C1345 0.950 . S
H1326 C1347 0.950 . S
H1327 C1350 0.950 . S
H1328 C1351 0.950 . S
H1329 C1353 0.950 . S
H1330 C1354 0.950 . S
H1331 C1355 0.951 . S
H1332 C1357 0.951 . S
H1333 C1359 0.950 . S
H1334 C1360 0.950 . S
H1335 C1362 0.950 . S
H1336 C1365 0.950 . S
H1337 C1366 0.950 . S
H1338 C1368 0.950 . S
H1339 C1369 0.950 . S
C1340 H1322 0.951 . S
C1340 C1341 1.366 . S
C1340 C1342 1.388 . S
C1341 C1340 1.366 . S
C1341 C1345 1.385 . S
C1342 H1323 0.951 . S
C1342 C1340 1.388 . S
C1342 C1343 1.366 . S
C1343 C1342 1.366 . S
C1343 C1344 1.414 . S
C1343 C1346 1.499 . S
C1344 H1324 0.950 . S
C1344 C1343 1.414 . S
C1344 C1345 1.374 . S
C1345 H1325 0.950 . S
C1345 C1341 1.385 . S
C1345 C1344 1.374 . S
C1346 C1343 1.499 . S
C1346 C1347 1.373 . S
C1346 C1348 1.389 . S
C1347 H1326 0.950 . S
C1347 C1346 1.373 . S
C1347 C1363 1.377 . S
C1348 C1346 1.389 . S
C1348 C1349 1.524 . S
C1348 C1362 1.377 . S
C1349 C1348 1.524 . S
C1349 C1350 1.397 . S
C1349 C1354 1.363 . S
C1350 H1327 0.950 . S
C1350 C1349 1.397 . S
C1350 C1351 1.334 . S
C1351 H1328 0.950 . S
C1351 C1350 1.334 . S
C1351 C1352 1.287 . S
C1352 C1351 1.287 . S
C1352 C1353 1.524 . S
C1352 H1371 0.913 . S
C1353 H1329 0.950 . S
C1353 C1352 1.524 . S
C1353 C1354 1.415 . S
C1354 H1330 0.950 . S
C1354 C1349 1.363 . S
C1354 C1353 1.415 . S
C1355 H1331 0.951 . S
C1355 C1356 1.366 . S
C1355 C1357 1.388 . S
C1356 C1355 1.366 . S
C1356 C1360 1.385 . S
C1357 H1332 0.951 . S
C1357 C1355 1.388 . S
C1357 C1358 1.366 . S
C1358 C1357 1.366 . S
C1358 C1359 1.414 . S
C1358 C1361 1.499 . S
C1359 H1333 0.950 . S
C1359 C1358 1.414 . S
C1359 C1360 1.374 . S
C1360 H1334 0.950 . S
C1360 C1356 1.385 . S
C1360 C1359 1.374 . S
C1361 C1358 1.499 . S
C1361 C1362 1.373 . S
C1361 C1363 1.389 . S
C1362 H1335 0.950 . S
C1362 C1348 1.377 . S
C1362 C1361 1.373 . S
C1363 C1347 1.377 . S
C1363 C1361 1.389 . S
C1363 C1364 1.524 . S
C1364 C1363 1.524 . S
C1364 C1365 1.397 . S
C1364 C1369 1.363 . S
C1365 H1336 0.950 . S
C1365 C1364 1.397 . S
C1365 C1366 1.334 . S
C1366 H1337 0.950 . S
C1366 C1365 1.334 . S
C1366 C1367 1.287 . S
C1367 C1366 1.287 . S
C1367 C1368 1.524 . S
C1367 H1370 0.999 . S
C1368 H1338 0.950 . S
C1368 C1367 1.524 . S
C1368 C1369 1.415 . S
C1369 H1339 0.950 . S
C1369 C1364 1.363 . S
C1369 C1368 1.415 . S
H1370 C1367 0.999 . S
H1371 C1352 0.913 . S
H1372 C1390 0.951 . S
H1373 C1392 0.951 . S
H1374 C1394 0.950 . S
H1375 C1395 0.950 . S
H1376 C1397 0.950 . S
H1377 C1400 0.950 . S
H1378 C1401 0.950 . S
H1379 C1403 0.950 . S
H1380 C1404 0.950 . S
H1381 C1405 0.951 . S
H1382 C1407 0.951 . S
H1383 C1409 0.950 . S
H1384 C1410 0.950 . S
H1385 C1412 0.950 . S
H1386 C1415 0.950 . S
H1387 C1416 0.950 . S
H1388 C1418 0.950 . S
H1389 C1419 0.950 . S
C1390 H1372 0.951 . S
C1390 C1391 1.366 . S
C1390 C1392 1.388 . S
C1391 C1390 1.366 . S
C1391 C1395 1.385 . S
C1392 H1373 0.951 . S
C1392 C1390 1.388 . S
C1392 C1393 1.366 . S
C1393 C1392 1.366 . S
C1393 C1394 1.414 . S
C1393 C1396 1.499 . S
C1394 H1374 0.950 . S
C1394 C1393 1.414 . S
C1394 C1395 1.374 . S
C1395 H1375 0.950 . S
C1395 C1391 1.385 . S
C1395 C1394 1.374 . S
C1396 C1393 1.499 . S
C1396 C1397 1.373 . S
C1396 C1398 1.389 . S
C1397 H1376 0.950 . S
C1397 C1396 1.373 . S
C1397 C1413 1.377 . S
C1398 C1396 1.389 . S
C1398 C1399 1.524 . S
C1398 C1412 1.377 . S
C1399 C1398 1.524 . S
C1399 C1400 1.397 . S
C1399 C1404 1.363 . S
C1400 H1377 0.950 . S
C1400 C1399 1.397 . S
C1400 C1401 1.334 . S
C1401 H1378 0.950 . S
C1401 C1400 1.334 . S
C1401 C1402 1.287 . S
C1402 C1401 1.287 . S
C1402 C1403 1.524 . S
C1402 H1421 0.913 . S
C1403 H1379 0.950 . S
C1403 C1402 1.524 . S
C1403 C1404 1.415 . S
C1404 H1380 0.950 . S
C1404 C1399 1.363 . S
C1404 C1403 1.415 . S
C1405 H1381 0.951 . S
C1405 C1406 1.366 . S
C1405 C1407 1.388 . S
C1406 C1405 1.366 . S
C1406 C1410 1.385 . S
C1407 H1382 0.951 . S
C1407 C1405 1.388 . S
C1407 C1408 1.366 . S
C1408 C1407 1.366 . S
C1408 C1409 1.414 . S
C1408 C1411 1.499 . S
C1409 H1383 0.950 . S
C1409 C1408 1.414 . S
C1409 C1410 1.374 . S
C1410 H1384 0.950 . S
C1410 C1406 1.385 . S
C1410 C1409 1.374 . S
C1411 C1408 1.499 . S
C1411 C1412 1.373 . S
C1411 C1413 1.389 . S
C1412 H1385 0.950 . S
C1412 C1398 1.377 . S
C1412 C1411 1.373 . S
C1413 C1397 1.377 . S
C1413 C1411 1.389 . S
C1413 C1414 1.524 . S
C1414 C1413 1.524 . S
C1414 C1415 1.397 . S
C1414 C1419 1.363 . S
C1415 H1386 0.950 . S
C1415 C1414 1.397 . S
C1415 C1416 1.334 . S
C1416 H1387 0.950 . S
C1416 C1415 1.334 . S
C1416 C1417 1.287 . S
C1417 C1416 1.287 . S
C1417 C1418 1.524 . S
C1417 H1420 0.999 . S
C1418 H1388 0.950 . S
C1418 C1417 1.524 . S
C1418 C1419 1.415 . S
C1419 H1389 0.950 . S
C1419 C1414 1.363 . S
C1419 C1418 1.415 . S
H1420 C1417 0.999 . S
H1421 C1402 0.913 . S
H1422 C1440 0.951 . S
H1423 C1442 0.951 . S
H1424 C1444 0.950 . S
H1425 C1445 0.950 . S
H1426 C1447 0.950 . S
H1427 C1450 0.950 . S
H1428 C1451 0.950 . S
H1429 C1453 0.950 . S
H1430 C1454 0.950 . S
H1431 C1455 0.951 . S
H1432 C1457 0.951 . S
H1433 C1459 0.950 . S
H1434 C1460 0.950 . S
H1435 C1462 0.950 . S
H1436 C1465 0.950 . S
H1437 C1466 0.950 . S
H1438 C1468 0.950 . S
H1439 C1469 0.950 . S
C1440 H1422 0.951 . S
C1440 C1441 1.366 . S
C1440 C1442 1.388 . S
C1441 C1440 1.366 . S
C1441 C1445 1.385 . S
C1442 H1423 0.951 . S
C1442 C1440 1.388 . S
C1442 C1443 1.366 . S
C1443 C1442 1.366 . S
C1443 C1444 1.414 . S
C1443 C1446 1.499 . S
C1444 H1424 0.950 . S
C1444 C1443 1.414 . S
C1444 C1445 1.374 . S
C1445 H1425 0.950 . S
C1445 C1441 1.385 . S
C1445 C1444 1.374 . S
C1446 C1443 1.499 . S
C1446 C1447 1.373 . S
C1446 C1448 1.389 . S
C1447 H1426 0.950 . S
C1447 C1446 1.373 . S
C1447 C1463 1.377 . S
C1448 C1446 1.389 . S
C1448 C1449 1.524 . S
C1448 C1462 1.377 . S
C1449 C1448 1.524 . S
C1449 C1450 1.397 . S
C1449 C1454 1.363 . S
C1450 H1427 0.950 . S
C1450 C1449 1.397 . S
C1450 C1451 1.334 . S
C1451 H1428 0.950 . S
C1451 C1450 1.334 . S
C1451 C1452 1.287 . S
C1452 C1451 1.287 . S
C1452 C1453 1.524 . S
C1452 H1471 0.913 . S
C1453 H1429 0.950 . S
C1453 C1452 1.524 . S
C1453 C1454 1.415 . S
C1454 H1430 0.950 . S
C1454 C1449 1.363 . S
C1454 C1453 1.415 . S
C1455 H1431 0.951 . S
C1455 C1456 1.366 . S
C1455 C1457 1.388 . S
C1456 C1455 1.366 . S
C1456 C1460 1.385 . S
C1457 H1432 0.951 . S
C1457 C1455 1.388 . S
C1457 C1458 1.366 . S
C1458 C1457 1.366 . S
C1458 C1459 1.414 . S
C1458 C1461 1.499 . S
C1459 H1433 0.950 . S
C1459 C1458 1.414 . S
C1459 C1460 1.374 . S
C1460 H1434 0.950 . S
C1460 C1456 1.385 . S
C1460 C1459 1.374 . S
C1461 C1458 1.499 . S
C1461 C1462 1.373 . S
C1461 C1463 1.389 . S
C1462 H1435 0.950 . S
C1462 C1448 1.377 . S
C1462 C1461 1.373 . S
C1463 C1447 1.377 . S
C1463 C1461 1.389 . S
C1463 C1464 1.524 . S
C1464 C1463 1.524 . S
C1464 C1465 1.397 . S
C1464 C1469 1.363 . S
C1465 H1436 0.950 . S
C1465 C1464 1.397 . S
C1465 C1466 1.334 . S
C1466 H1437 0.950 . S
C1466 C1465 1.334 . S
C1466 C1467 1.287 . S
C1467 C1466 1.287 . S
C1467 C1468 1.524 . S
C1467 H1470 0.999 . S
C1468 H1438 0.950 . S
C1468 C1467 1.524 . S
C1468 C1469 1.415 . S
C1469 H1439 0.950 . S
C1469 C1464 1.363 . S
C1469 C1468 1.415 . S
H1470 C1467 0.999 . S
H1471 C1452 0.913 . S
H1472 C1490 0.951 . S
H1473 C1492 0.951 . S
H1474 C1494 0.950 . S
H1475 C1495 0.950 . S
H1476 C1497 0.950 . S
H1477 C1500 0.950 . S
H1478 C1501 0.950 . S
H1479 C1503 0.950 . S
H1480 C1504 0.950 . S
H1481 C1505 0.951 . S
H1482 C1507 0.951 . S
H1483 C1509 0.950 . S
H1484 C1510 0.950 . S
H1485 C1512 0.950 . S
H1486 C1515 0.950 . S
H1487 C1516 0.950 . S
H1488 C1518 0.950 . S
H1489 C1519 0.950 . S
C1490 H1472 0.951 . S
C1490 C1491 1.366 . S
C1490 C1492 1.388 . S
C1491 C1490 1.366 . S
C1491 C1495 1.385 . S
C1492 H1473 0.951 . S
C1492 C1490 1.388 . S
C1492 C1493 1.366 . S
C1493 C1492 1.366 . S
C1493 C1494 1.414 . S
C1493 C1496 1.499 . S
C1494 H1474 0.950 . S
C1494 C1493 1.414 . S
C1494 C1495 1.374 . S
C1495 H1475 0.950 . S
C1495 C1491 1.385 . S
C1495 C1494 1.374 . S
C1496 C1493 1.499 . S
C1496 C1497 1.373 . S
C1496 C1498 1.389 . S
C1497 H1476 0.950 . S
C1497 C1496 1.373 . S
C1497 C1513 1.377 . S
C1498 C1496 1.389 . S
C1498 C1499 1.524 . S
C1498 C1512 1.377 . S
C1499 C1498 1.524 . S
C1499 C1500 1.397 . S
C1499 C1504 1.363 . S
C1500 H1477 0.950 . S
C1500 C1499 1.397 . S
C1500 C1501 1.334 . S
C1501 H1478 0.950 . S
C1501 C1500 1.334 . S
C1501 C1502 1.287 . S
C1502 C1501 1.287 . S
C1502 C1503 1.524 . S
C1502 H1521 0.913 . S
C1503 H1479 0.950 . S
C1503 C1502 1.524 . S
C1503 C1504 1.415 . S
C1504 H1480 0.950 . S
C1504 C1499 1.363 . S
C1504 C1503 1.415 . S
C1505 H1481 0.951 . S
C1505 C1506 1.366 . S
C1505 C1507 1.388 . S
C1506 C1505 1.366 . S
C1506 C1510 1.385 . S
C1507 H1482 0.951 . S
C1507 C1505 1.388 . S
C1507 C1508 1.366 . S
C1508 C1507 1.366 . S
C1508 C1509 1.414 . S
C1508 C1511 1.499 . S
C1509 H1483 0.950 . S
C1509 C1508 1.414 . S
C1509 C1510 1.374 . S
C1510 H1484 0.950 . S
C1510 C1506 1.385 . S
C1510 C1509 1.374 . S
C1511 C1508 1.499 . S
C1511 C1512 1.373 . S
C1511 C1513 1.389 . S
C1512 H1485 0.950 . S
C1512 C1498 1.377 . S
C1512 C1511 1.373 . S
C1513 C1497 1.377 . S
C1513 C1511 1.389 . S
C1513 C1514 1.524 . S
C1514 C1513 1.524 . S
C1514 C1515 1.397 . S
C1514 C1519 1.363 . S
C1515 H1486 0.950 . S
C1515 C1514 1.397 . S
C1515 C1516 1.334 . S
C1516 H1487 0.950 . S
C1516 C1515 1.334 . S
C1516 C1517 1.287 . S
C1517 C1516 1.287 . S
C1517 C1518 1.524 . S
C1517 H1520 0.999 . S
C1518 H1488 0.950 . S
C1518 C1517 1.524 . S
C1518 C1519 1.415 . S
C1519 H1489 0.950 . S
C1519 C1514 1.363 . S
C1519 C1518 1.415 . S
H1520 C1517 0.999 . S
H1521 C1502 0.913 . S
H1522 C1540 0.951 . S
H1523 C1542 0.951 . S
H1524 C1544 0.950 . S
H1525 C1545 0.950 . S
H1526 C1547 0.950 . S
H1527 C1550 0.950 . S
H1528 C1551 0.950 . S
H1529 C1553 0.950 . S
H1530 C1554 0.950 . S
H1531 C1555 0.951 . S
H1532 C1557 0.951 . S
H1533 C1559 0.950 . S
H1534 C1560 0.950 . S
H1535 C1562 0.950 . S
H1536 C1565 0.950 . S
H1537 C1566 0.950 . S
H1538 C1568 0.950 . S
H1539 C1569 0.950 . S
C1540 H1522 0.951 . S
C1540 C1541 1.366 . S
C1540 C1542 1.388 . S
C1541 C1540 1.366 . S
C1541 C1545 1.385 . S
C1542 H1523 0.951 . S
C1542 C1540 1.388 . S
C1542 C1543 1.366 . S
C1543 C1542 1.366 . S
C1543 C1544 1.414 . S
C1543 C1546 1.499 . S
C1544 H1524 0.950 . S
C1544 C1543 1.414 . S
C1544 C1545 1.374 . S
C1545 H1525 0.950 . S
C1545 C1541 1.385 . S
C1545 C1544 1.374 . S
C1546 C1543 1.499 . S
C1546 C1547 1.373 . S
C1546 C1548 1.389 . S
C1547 H1526 0.950 . S
C1547 C1546 1.373 . S
C1547 C1563 1.377 . S
C1548 C1546 1.389 . S
C1548 C1549 1.524 . S
C1548 C1562 1.377 . S
C1549 C1548 1.524 . S
C1549 C1550 1.397 . S
C1549 C1554 1.363 . S
C1550 H1527 0.950 . S
C1550 C1549 1.397 . S
C1550 C1551 1.334 . S
C1551 H1528 0.950 . S
C1551 C1550 1.334 . S
C1551 C1552 1.287 . S
C1552 C1551 1.287 . S
C1552 C1553 1.524 . S
C1552 H1571 0.913 . S
C1553 H1529 0.950 . S
C1553 C1552 1.524 . S
C1553 C1554 1.415 . S
C1554 H1530 0.950 . S
C1554 C1549 1.363 . S
C1554 C1553 1.415 . S
C1555 H1531 0.951 . S
C1555 C1556 1.366 . S
C1555 C1557 1.388 . S
C1556 C1555 1.366 . S
C1556 C1560 1.385 . S
C1557 H1532 0.951 . S
C1557 C1555 1.388 . S
C1557 C1558 1.366 . S
C1558 C1557 1.366 . S
C1558 C1559 1.414 . S
C1558 C1561 1.499 . S
C1559 H1533 0.950 . S
C1559 C1558 1.414 . S
C1559 C1560 1.374 . S
C1560 H1534 0.950 . S
C1560 C1556 1.385 . S
C1560 C1559 1.374 . S
C1561 C1558 1.499 . S
C1561 C1562 1.373 . S
C1561 C1563 1.389 . S
C1562 H1535 0.950 . S
C1562 C1548 1.377 . S
C1562 C1561 1.373 . S
C1563 C1547 1.377 . S
C1563 C1561 1.389 . S
C1563 C1564 1.524 . S
C1564 C1563 1.524 . S
C1564 C1565 1.397 . S
C1564 C1569 1.363 . S
C1565 H1536 0.950 . S
C1565 C1564 1.397 . S
C1565 C1566 1.334 . S
C1566 H1537 0.950 . S
C1566 C1565 1.334 . S
C1566 C1567 1.287 . S
C1567 C1566 1.287 . S
C1567 C1568 1.524 . S
C1567 H1570 0.999 . S
C1568 H1538 0.950 . S
C1568 C1567 1.524 . S
C1568 C1569 1.415 . S
C1569 H1539 0.950 . S
C1569 C1564 1.363 . S
C1569 C1568 1.415 . S
H1570 C1567 0.999 . S
H1571 C1552 0.913 . S
H1572 C1590 0.951 . S
H1573 C1592 0.951 . S
H1574 C1594 0.950 . S
H1575 C1595 0.950 . S
H1576 C1597 0.950 . S
H1577 C1600 0.950 . S
H1578 C1601 0.950 . S
H1579 C1603 0.950 . S
H1580 C1604 0.950 . S
H1581 C1605 0.951 . S
H1582 C1607 0.951 . S
H1583 C1609 0.950 . S
H1584 C1610 0.950 . S
H1585 C1612 0.950 . S
H1586 C1615 0.950 . S
H1587 C1616 0.950 . S
H1588 C1618 0.950 . S
H1589 C1619 0.950 . S
C1590 H1572 0.951 . S
C1590 C1591 1.366 . S
C1590 C1592 1.388 . S
C1591 C1590 1.366 . S
C1591 C1595 1.385 . S
C1592 H1573 0.951 . S
C1592 C1590 1.388 . S
C1592 C1593 1.366 . S
C1593 C1592 1.366 . S
C1593 C1594 1.414 . S
C1593 C1596 1.499 . S
C1594 H1574 0.950 . S
C1594 C1593 1.414 . S
C1594 C1595 1.374 . S
C1595 H1575 0.950 . S
C1595 C1591 1.385 . S
C1595 C1594 1.374 . S
C1596 C1593 1.499 . S
C1596 C1597 1.373 . S
C1596 C1598 1.389 . S
C1597 H1576 0.950 . S
C1597 C1596 1.373 . S
C1597 C1613 1.377 . S
C1598 C1596 1.389 . S
C1598 C1599 1.524 . S
C1598 C1612 1.377 . S
C1599 C1598 1.524 . S
C1599 C1600 1.397 . S
C1599 C1604 1.363 . S
C1600 H1577 0.950 . S
C1600 C1599 1.397 . S
C1600 C1601 1.334 . S
C1601 H1578 0.950 . S
C1601 C1600 1.334 . S
C1601 C1602 1.287 . S
C1602 C1601 1.287 . S
C1602 C1603 1.524 . S
C1602 H1621 0.913 . S
C1603 H1579 0.950 . S
C1603 C1602 1.524 . S
C1603 C1604 1.415 . S
C1604 H1580 0.950 . S
C1604 C1599 1.363 . S
C1604 C1603 1.415 . S
C1605 H1581 0.951 . S
C1605 C1606 1.366 . S
C1605 C1607 1.388 . S
C1606 C1605 1.366 . S
C1606 C1610 1.385 . S
C1607 H1582 0.951 . S
C1607 C1605 1.388 . S
C1607 C1608 1.366 . S
C1608 C1607 1.366 . S
C1608 C1609 1.414 . S
C1608 C1611 1.499 . S
C1609 H1583 0.950 . S
C1609 C1608 1.414 . S
C1609 C1610 1.374 . S
C1610 H1584 0.950 . S
C1610 C1606 1.385 . S
C1610 C1609 1.374 . S
C1611 C1608 1.499 . S
C1611 C1612 1.373 . S
C1611 C1613 1.389 . S
C1612 H1585 0.950 . S
C1612 C1598 1.377 . S
C1612 C1611 1.373 . S
C1613 C1597 1.377 . S
C1613 C1611 1.389 . S
C1613 C1614 1.524 . S
C1614 C1613 1.524 . S
C1614 C1615 1.397 . S
C1614 C1619 1.363 . S
C1615 H1586 0.950 . S
C1615 C1614 1.397 . S
C1615 C1616 1.334 . S
C1616 H1587 0.950 . S
C1616 C1615 1.334 . S
C1616 C1617 1.287 . S
C1617 C1616 1.287 . S
C1617 C1618 1.524 . S
C1617 H1620 0.999 . S
C1618 H1588 0.950 . S
C1618 C1617 1.524 . S
C1618 C1619 1.415 . S
C1619 H1589 0.950 . S
C1619 C1614 1.363 . S
C1619 C1618 1.415 . S
H1620 C1617 0.999 . S
H1621 C1602 0.913 . S
H1622 C1640 0.951 . S
H1623 C1642 0.951 . S
H1624 C1644 0.950 . S
H1625 C1645 0.950 . S
H1626 C1647 0.950 . S
H1627 C1650 0.950 . S
H1628 C1651 0.950 . S
H1629 C1653 0.950 . S
H1630 C1654 0.950 . S
H1631 C1655 0.951 . S
H1632 C1657 0.951 . S
H1633 C1659 0.950 . S
H1634 C1660 0.950 . S
H1635 C1662 0.950 . S
H1636 C1665 0.950 . S
H1637 C1666 0.950 . S
H1638 C1668 0.950 . S
H1639 C1669 0.950 . S
C1640 H1622 0.951 . S
C1640 C1641 1.366 . S
C1640 C1642 1.388 . S
C1641 C1640 1.366 . S
C1641 C1645 1.385 . S
C1642 H1623 0.951 . S
C1642 C1640 1.388 . S
C1642 C1643 1.366 . S
C1643 C1642 1.366 . S
C1643 C1644 1.414 . S
C1643 C1646 1.499 . S
C1644 H1624 0.950 . S
C1644 C1643 1.414 . S
C1644 C1645 1.374 . S
C1645 H1625 0.950 . S
C1645 C1641 1.385 . S
C1645 C1644 1.374 . S
C1646 C1643 1.499 . S
C1646 C1647 1.373 . S
C1646 C1648 1.389 . S
C1647 H1626 0.950 . S
C1647 C1646 1.373 . S
C1647 C1663 1.377 . S
C1648 C1646 1.389 . S
C1648 C1649 1.524 . S
C1648 C1662 1.377 . S
C1649 C1648 1.524 . S
C1649 C1650 1.397 . S
C1649 C1654 1.363 . S
C1650 H1627 0.950 . S
C1650 C1649 1.397 . S
C1650 C1651 1.334 . S
C1651 H1628 0.950 . S
C1651 C1650 1.334 . S
C1651 C1652 1.287 . S
C1652 C1651 1.287 . S
C1652 C1653 1.524 . S
C1652 H1671 0.913 . S
C1653 H1629 0.950 . S
C1653 C1652 1.524 . S
C1653 C1654 1.415 . S
C1654 H1630 0.950 . S
C1654 C1649 1.363 . S
C1654 C1653 1.415 . S
C1655 H1631 0.951 . S
C1655 C1656 1.366 . S
C1655 C1657 1.388 . S
C1656 C1655 1.366 . S
C1656 C1660 1.385 . S
C1657 H1632 0.951 . S
C1657 C1655 1.388 . S
C1657 C1658 1.366 . S
C1658 C1657 1.366 . S
C1658 C1659 1.414 . S
C1658 C1661 1.499 . S
C1659 H1633 0.950 . S
C1659 C1658 1.414 . S
C1659 C1660 1.374 . S
C1660 H1634 0.950 . S
C1660 C1656 1.385 . S
C1660 C1659 1.374 . S
C1661 C1658 1.499 . S
C1661 C1662 1.373 . S
C1661 C1663 1.389 . S
C1662 H1635 0.950 . S
C1662 C1648 1.377 . S
C1662 C1661 1.373 . S
C1663 C1647 1.377 . S
C1663 C1661 1.389 . S
C1663 C1664 1.524 . S
C1664 C1663 1.524 . S
C1664 C1665 1.397 . S
C1664 C1669 1.363 . S
C1665 H1636 0.950 . S
C1665 C1664 1.397 . S
C1665 C1666 1.334 . S
C1666 H1637 0.950 . S
C1666 C1665 1.334 . S
C1666 C1667 1.287 . S
C1667 C1666 1.287 . S
C1667 C1668 1.524 . S
C1667 H1670 0.999 . S
C1668 H1638 0.950 . S
C1668 C1667 1.524 . S
C1668 C1669 1.415 . S
C1669 H1639 0.950 . S
C1669 C1664 1.363 . S
C1669 C1668 1.415 . S
H1670 C1667 0.999 . S
H1671 C1652 0.913 . S
H1672 C1690 0.951 . S
H1673 C1692 0.951 . S
H1674 C1694 0.950 . S
H1675 C1695 0.950 . S
H1676 C1697 0.950 . S
H1677 C1700 0.950 . S
H1678 C1701 0.950 . S
H1679 C1703 0.950 . S
H1680 C1704 0.950 . S
H1681 C1705 0.951 . S
H1682 C1707 0.951 . S
H1683 C1709 0.950 . S
H1684 C1710 0.950 . S
H1685 C1712 0.950 . S
H1686 C1715 0.950 . S
H1687 C1716 0.950 . S
H1688 C1718 0.950 . S
H1689 C1719 0.950 . S
C1690 H1672 0.951 . S
C1690 C1691 1.366 . S
C1690 C1692 1.388 . S
C1691 C1690 1.366 . S
C1691 C1695 1.385 . S
C1692 H1673 0.951 . S
C1692 C1690 1.388 . S
C1692 C1693 1.366 . S
C1693 C1692 1.366 . S
C1693 C1694 1.414 . S
C1693 C1696 1.499 . S
C1694 H1674 0.950 . S
C1694 C1693 1.414 . S
C1694 C1695 1.374 . S
C1695 H1675 0.950 . S
C1695 C1691 1.385 . S
C1695 C1694 1.374 . S
C1696 C1693 1.499 . S
C1696 C1697 1.373 . S
C1696 C1698 1.389 . S
C1697 H1676 0.950 . S
C1697 C1696 1.373 . S
C1697 C1713 1.377 . S
C1698 C1696 1.389 . S
C1698 C1699 1.524 . S
C1698 C1712 1.377 . S
C1699 C1698 1.524 . S
C1699 C1700 1.397 . S
C1699 C1704 1.363 . S
C1700 H1677 0.950 . S
C1700 C1699 1.397 . S
C1700 C1701 1.334 . S
C1701 H1678 0.950 . S
C1701 C1700 1.334 . S
C1701 C1702 1.287 . S
C1702 C1701 1.287 . S
C1702 C1703 1.524 . S
C1702 H1721 0.913 . S
C1703 H1679 0.950 . S
C1703 C1702 1.524 . S
C1703 C1704 1.415 . S
C1704 H1680 0.950 . S
C1704 C1699 1.363 . S
C1704 C1703 1.415 . S
C1705 H1681 0.951 . S
C1705 C1706 1.366 . S
C1705 C1707 1.388 . S
C1706 C1705 1.366 . S
C1706 C1710 1.385 . S
C1707 H1682 0.951 . S
C1707 C1705 1.388 . S
C1707 C1708 1.366 . S
C1708 C1707 1.366 . S
C1708 C1709 1.414 . S
C1708 C1711 1.499 . S
C1709 H1683 0.950 . S
C1709 C1708 1.414 . S
C1709 C1710 1.374 . S
C1710 H1684 0.950 . S
C1710 C1706 1.385 . S
C1710 C1709 1.374 . S
C1711 C1708 1.499 . S
C1711 C1712 1.373 . S
C1711 C1713 1.389 . S
C1712 H1685 0.950 . S
C1712 C1698 1.377 . S
C1712 C1711 1.373 . S
C1713 C1697 1.377 . S
C1713 C1711 1.389 . S
C1713 C1714 1.524 . S
C1714 C1713 1.524 . S
C1714 C1715 1.397 . S
C1714 C1719 1.363 . S
C1715 H1686 0.950 . S
C1715 C1714 1.397 . S
C1715 C1716 1.334 . S
C1716 H1687 0.950 . S
C1716 C1715 1.334 . S
C1716 C1717 1.287 . S
C1717 C1716 1.287 . S
C1717 C1718 1.524 . S
C1717 H1720 0.999 . S
C1718 H1688 0.950 . S
C1718 C1717 1.524 . S
C1718 C1719 1.415 . S
C1719 H1689 0.950 . S
C1719 C1714 1.363 . S
C1719 C1718 1.415 . S
H1720 C1717 0.999 . S
H1721 C1702 0.913 . S
H1722 C1740 0.951 . S
H1723 C1742 0.951 . S
H1724 C1744 0.950 . S
H1725 C1745 0.950 . S
H1726 C1747 0.950 . S
H1727 C1750 0.950 . S
H1728 C1751 0.950 . S
H1729 C1753 0.950 . S
H1730 C1754 0.950 . S
H1731 C1755 0.951 . S
H1732 C1757 0.951 . S
H1733 C1759 0.950 . S
H1734 C1760 0.950 . S
H1735 C1762 0.950 . S
H1736 C1765 0.950 . S
H1737 C1766 0.950 . S
H1738 C1768 0.950 . S
H1739 C1769 0.950 . S
C1740 H1722 0.951 . S
C1740 C1741 1.366 . S
C1740 C1742 1.388 . S
C1741 C1740 1.366 . S
C1741 C1745 1.385 . S
C1742 H1723 0.951 . S
C1742 C1740 1.388 . S
C1742 C1743 1.366 . S
C1743 C1742 1.366 . S
C1743 C1744 1.414 . S
C1743 C1746 1.499 . S
C1744 H1724 0.950 . S
C1744 C1743 1.414 . S
C1744 C1745 1.374 . S
C1745 H1725 0.950 . S
C1745 C1741 1.385 . S
C1745 C1744 1.374 . S
C1746 C1743 1.499 . S
C1746 C1747 1.373 . S
C1746 C1748 1.389 . S
C1747 H1726 0.950 . S
C1747 C1746 1.373 . S
C1747 C1763 1.377 . S
C1748 C1746 1.389 . S
C1748 C1749 1.524 . S
C1748 C1762 1.377 . S
C1749 C1748 1.524 . S
C1749 C1750 1.397 . S
C1749 C1754 1.363 . S
C1750 H1727 0.950 . S
C1750 C1749 1.397 . S
C1750 C1751 1.334 . S
C1751 H1728 0.950 . S
C1751 C1750 1.334 . S
C1751 C1752 1.287 . S
C1752 C1751 1.287 . S
C1752 C1753 1.524 . S
C1752 H1771 0.913 . S
C1753 H1729 0.950 . S
C1753 C1752 1.524 . S
C1753 C1754 1.415 . S
C1754 H1730 0.950 . S
C1754 C1749 1.363 . S
C1754 C1753 1.415 . S
C1755 H1731 0.951 . S
C1755 C1756 1.366 . S
C1755 C1757 1.388 . S
C1756 C1755 1.366 . S
C1756 C1760 1.385 . S
C1757 H1732 0.951 . S
C1757 C1755 1.388 . S
C1757 C1758 1.366 . S
C1758 C1757 1.366 . S
C1758 C1759 1.414 . S
C1758 C1761 1.499 . S
C1759 H1733 0.950 . S
C1759 C1758 1.414 . S
C1759 C1760 1.374 . S
C1760 H1734 0.950 . S
C1760 C1756 1.385 . S
C1760 C1759 1.374 . S
C1761 C1758 1.499 . S
C1761 C1762 1.373 . S
C1761 C1763 1.389 . S
C1762 H1735 0.950 . S
C1762 C1748 1.377 . S
C1762 C1761 1.373 . S
C1763 C1747 1.377 . S
C1763 C1761 1.389 . S
C1763 C1764 1.524 . S
C1764 C1763 1.524 . S
C1764 C1765 1.397 . S
C1764 C1769 1.363 . S
C1765 H1736 0.950 . S
C1765 C1764 1.397 . S
C1765 C1766 1.334 . S
C1766 H1737 0.950 . S
C1766 C1765 1.334 . S
C1766 C1767 1.287 . S
C1767 C1766 1.287 . S
C1767 C1768 1.524 . S
C1767 H1770 0.999 . S
C1768 H1738 0.950 . S
C1768 C1767 1.524 . S
C1768 C1769 1.415 . S
C1769 H1739 0.950 . S
C1769 C1764 1.363 . S
C1769 C1768 1.415 . S
H1770 C1767 0.999 . S
H1771 C1752 0.913 . S
H1772 C1790 0.951 . S
H1773 C1792 0.951 . S
H1774 C1794 0.950 . S
H1775 C1795 0.950 . S
H1776 C1797 0.950 . S
H1777 C1800 0.950 . S
H1778 C1801 0.950 . S
H1779 C1803 0.950 . S
H1780 C1804 0.950 . S
H1781 C1805 0.951 . S
H1782 C1807 0.951 . S
H1783 C1809 0.950 . S
H1784 C1810 0.950 . S
H1785 C1812 0.950 . S
H1786 C1815 0.950 . S
H1787 C1816 0.950 . S
H1788 C1818 0.950 . S
H1789 C1819 0.950 . S
C1790 H1772 0.951 . S
C1790 C1791 1.366 . S
C1790 C1792 1.388 . S
C1791 C1790 1.366 . S
C1791 C1795 1.385 . S
C1792 H1773 0.951 . S
C1792 C1790 1.388 . S
C1792 C1793 1.366 . S
C1793 C1792 1.366 . S
C1793 C1794 1.414 . S
C1793 C1796 1.499 . S
C1794 H1774 0.950 . S
C1794 C1793 1.414 . S
C1794 C1795 1.374 . S
C1795 H1775 0.950 . S
C1795 C1791 1.385 . S
C1795 C1794 1.374 . S
C1796 C1793 1.499 . S
C1796 C1797 1.373 . S
C1796 C1798 1.389 . S
C1797 H1776 0.950 . S
C1797 C1796 1.373 . S
C1797 C1813 1.377 . S
C1798 C1796 1.389 . S
C1798 C1799 1.524 . S
C1798 C1812 1.377 . S
C1799 C1798 1.524 . S
C1799 C1800 1.397 . S
C1799 C1804 1.363 . S
C1800 H1777 0.950 . S
C1800 C1799 1.397 . S
C1800 C1801 1.334 . S
C1801 H1778 0.950 . S
C1801 C1800 1.334 . S
C1801 C1802 1.287 . S
C1802 C1801 1.287 . S
C1802 C1803 1.524 . S
C1802 H1821 0.913 . S
C1803 H1779 0.950 . S
C1803 C1802 1.524 . S
C1803 C1804 1.415 . S
C1804 H1780 0.950 . S
C1804 C1799 1.363 . S
C1804 C1803 1.415 . S
C1805 H1781 0.951 . S
C1805 C1806 1.366 . S
C1805 C1807 1.388 . S
C1806 C1805 1.366 . S
C1806 C1810 1.385 . S
C1807 H1782 0.951 . S
C1807 C1805 1.388 . S
C1807 C1808 1.366 . S
C1808 C1807 1.366 . S
C1808 C1809 1.414 . S
C1808 C1811 1.499 . S
C1809 H1783 0.950 . S
C1809 C1808 1.414 . S
C1809 C1810 1.374 . S
C1810 H1784 0.950 . S
C1810 C1806 1.385 . S
C1810 C1809 1.374 . S
C1811 C1808 1.499 . S
C1811 C1812 1.373 . S
C1811 C1813 1.389 . S
C1812 H1785 0.950 . S
C1812 C1798 1.377 . S
C1812 C1811 1.373 . S
C1813 C1797 1.377 . S
C1813 C1811 1.389 . S
C1813 C1814 1.524 . S
C1814 C1813 1.524 . S
C1814 C1815 1.397 . S
C1814 C1819 1.363 . S
C1815 H1786 0.950 . S
C1815 C1814 1.397 . S
C1815 C1816 1.334 . S
C1816 H1787 0.950 . S
C1816 C1815 1.334 . S
C1816 C1817 1.287 . S
C1817 C1816 1.287 . S
C1817 C1818 1.524 . S
C1817 H1820 0.999 . S
C1818 H1788 0.950 . S
C1818 C1817 1.524 . S
C1818 C1819 1.415 . S
C1819 H1789 0.950 . S
C1819 C1814 1.363 . S
C1819 C1818 1.415 . S
H1820 C1817 0.999 . S
H1821 C1802 0.913 . S
H1822 C1840 0.951 . S
H1823 C1842 0.951 . S
H1824 C1844 0.950 . S
H1825 C1845 0.950 . S
H1826 C1847 0.950 . S
H1827 C1850 0.950 . S
H1828 C1851 0.950 . S
H1829 C1853 0.950 . S
H1830 C1854 0.950 . S
H1831 C1855 0.951 . S
H1832 C1857 0.951 . S
H1833 C1859 0.950 . S
H1834 C1860 0.950 . S
H1835 C1862 0.950 . S
H1836 C1865 0.950 . S
H1837 C1866 0.950 . S
H1838 C1868 0.950 . S
H1839 C1869 0.950 . S
C1840 H1822 0.951 . S
C1840 C1841 1.366 . S
C1840 C1842 1.388 . S
C1841 C1840 1.366 . S
C1841 C1845 1.385 . S
C1842 H1823 0.951 . S
C1842 C1840 1.388 . S
C1842 C1843 1.366 . S
C1843 C1842 1.366 . S
C1843 C1844 1.414 . S
C1843 C1846 1.499 . S
C1844 H1824 0.950 . S
C1844 C1843 1.414 . S
C1844 C1845 1.374 . S
C1845 H1825 0.950 . S
C1845 C1841 1.385 . S
C1845 C1844 1.374 . S
C1846 C1843 1.499 . S
C1846 C1847 1.373 . S
C1846 C1848 1.389 . S
C1847 H1826 0.950 . S
C1847 C1846 1.373 . S
C1847 C1863 1.377 . S
C1848 C1846 1.389 . S
C1848 C1849 1.524 . S
C1848 C1862 1.377 . S
C1849 C1848 1.524 . S
C1849 C1850 1.397 . S
C1849 C1854 1.363 . S
C1850 H1827 0.950 . S
C1850 C1849 1.397 . S
C1850 C1851 1.334 . S
C1851 H1828 0.950 . S
C1851 C1850 1.334 . S
C1851 C1852 1.287 . S
C1852 C1851 1.287 . S
C1852 C1853 1.524 . S
C1852 H1871 0.913 . S
C1853 H1829 0.950 . S
C1853 C1852 1.524 . S
C1853 C1854 1.415 . S
C1854 H1830 0.950 . S
C1854 C1849 1.363 . S
C1854 C1853 1.415 . S
C1855 H1831 0.951 . S
C1855 C1856 1.366 . S
C1855 C1857 1.388 . S
C1856 C1855 1.366 . S
C1856 C1860 1.385 . S
C1857 H1832 0.951 . S
C1857 C1855 1.388 . S
C1857 C1858 1.366 . S
C1858 C1857 1.366 . S
C1858 C1859 1.414 . S
C1858 C1861 1.499 . S
C1859 H1833 0.950 . S
C1859 C1858 1.414 . S
C1859 C1860 1.374 . S
C1860 H1834 0.950 . S
C1860 C1856 1.385 . S
C1860 C1859 1.374 . S
C1861 C1858 1.499 . S
C1861 C1862 1.373 . S
C1861 C1863 1.389 . S
C1862 H1835 0.950 . S
C1862 C1848 1.377 . S
C1862 C1861 1.373 . S
C1863 C1847 1.377 . S
C1863 C1861 1.389 . S
C1863 C1864 1.524 . S
C1864 C1863 1.524 . S
C1864 C1865 1.397 . S
C1864 C1869 1.363 . S
C1865 H1836 0.950 . S
C1865 C1864 1.397 . S
C1865 C1866 1.334 . S
C1866 H1837 0.950 . S
C1866 C1865 1.334 . S
C1866 C1867 1.287 . S
C1867 C1866 1.287 . S
C1867 C1868 1.524 . S
C1867 H1870 0.999 . S
C1868 H1838 0.950 . S
C1868 C1867 1.524 . S
C1868 C1869 1.415 . S
C1869 H1839 0.950 . S
C1869 C1864 1.363 . S
C1869 C1868 1.415 . S
H1870 C1867 0.999 . S
H1871 C1852 0.913 . S
H1872 C1890 0.951 . S
H1873 C1892 0.951 . S
H1874 C1894 0.950 . S
H1875 C1895 0.950 . S
H1876 C1897 0.950 . S
H1877 C1900 0.950 . S
H1878 C1901 0.950 . S
H1879 C1903 0.950 . S
H1880 C1904 0.950 . S
H1881 C1905 0.951 . S
H1882 C1907 0.951 . S
H1883 C1909 0.950 1_565 S
H1884 C1910 0.950 . S
H1885 C1912 0.950 . S
H1886 C1915 0.950 . S
H1887 C1916 0.950 . S
H1888 C1918 0.950 . S
H1889 C1919 0.950 . S
C1890 H1872 0.951 . S
C1890 C1891 1.366 . S
C1890 C1892 1.388 . S
C1891 C1890 1.366 . S
C1891 C1895 1.385 . S
C1892 H1873 0.951 . S
C1892 C1890 1.388 . S
C1892 C1893 1.366 . S
C1893 C1892 1.366 . S
C1893 C1894 1.414 . S
C1893 C1896 1.499 . S
C1894 H1874 0.950 . S
C1894 C1893 1.414 . S
C1894 C1895 1.374 . S
C1895 H1875 0.950 . S
C1895 C1891 1.385 . S
C1895 C1894 1.374 . S
C1896 C1893 1.499 . S
C1896 C1897 1.373 . S
C1896 C1898 1.389 . S
C1897 H1876 0.950 . S
C1897 C1896 1.373 . S
C1897 C1913 1.377 1_565 S
C1898 C1896 1.389 . S
C1898 C1899 1.524 . S
C1898 C1912 1.377 . S
C1899 C1898 1.524 . S
C1899 C1900 1.397 . S
C1899 C1904 1.363 . S
C1900 H1877 0.950 . S
C1900 C1899 1.397 . S
C1900 C1901 1.334 . S
C1901 H1878 0.950 . S
C1901 C1900 1.334 . S
C1901 C1902 1.287 . S
C1902 C1901 1.287 . S
C1902 C1903 1.524 . S
C1902 H1921 0.913 . S
C1903 H1879 0.950 . S
C1903 C1902 1.524 . S
C1903 C1904 1.415 . S
C1904 H1880 0.950 . S
C1904 C1899 1.363 . S
C1904 C1903 1.415 . S
C1905 H1881 0.951 . S
C1905 C1906 1.366 . S
C1905 C1907 1.388 . S
C1906 C1905 1.366 . S
C1906 C1910 1.385 . S
C1907 H1882 0.951 . S
C1907 C1905 1.388 . S
C1907 C1908 1.366 . S
C1908 C1907 1.366 . S
C1908 C1909 1.414 . S
C1908 C1911 1.539 . S
C1909 H1883 0.950 1_545 S
C1909 C1908 1.414 . S
C1909 C1910 1.374 . S
C1910 H1884 0.950 . S
C1910 C1906 1.385 . S
C1910 C1909 1.374 . S
C1911 C1908 1.539 . S
C1911 C1912 1.324 1_545 S
C1911 C1913 1.400 . S
C1912 H1885 0.950 . S
C1912 C1898 1.377 . S
C1912 C1911 1.324 1_565 S
C1913 C1897 1.377 1_545 S
C1913 C1911 1.400 . S
C1913 C1914 1.524 . S
C1914 C1913 1.524 . S
C1914 C1915 1.397 . S
C1914 C1919 1.363 . S
C1915 H1886 0.950 . S
C1915 C1914 1.397 . S
C1915 C1916 1.334 . S
C1916 H1887 0.950 . S
C1916 C1915 1.334 . S
C1916 C1917 1.287 . S
C1917 C1916 1.287 . S
C1917 C1918 1.524 . S
C1917 H1920 0.999 . S
C1918 H1888 0.950 . S
C1918 C1917 1.524 . S
C1918 C1919 1.415 . S
C1919 H1889 0.950 . S
C1919 C1914 1.363 . S
C1919 C1918 1.415 . S
H1920 C1917 0.999 . S
H1921 C1902 0.913 . S
H1922 C1940 0.951 . S
H1923 C1942 0.951 . S
H1924 C1944 0.950 . S
H1925 C1945 0.950 . S
H1926 C1947 0.950 . S
H1927 C1950 0.950 . S
H1928 C1951 0.950 . S
H1929 C1953 0.950 . S
H1930 C1954 0.950 . S
H1931 C1955 0.951 . S
H1932 C1957 0.951 1_655 S
H1933 C1959 0.950 . S
H1934 C1960 0.950 . S
H1935 C1962 0.950 . S
H1936 C1965 0.950 . S
H1937 C1966 0.950 . S
H1938 C1968 0.950 . S
H1939 C1969 0.950 . S
C1940 H1922 0.951 . S
C1940 C1941 1.366 . S
C1940 C1942 1.388 . S
C1941 C1940 1.366 . S
C1941 C1945 1.385 . S
C1942 H1923 0.951 . S
C1942 C1940 1.388 . S
C1942 C1943 1.366 . S
C1943 C1942 1.366 . S
C1943 C1944 1.414 . S
C1943 C1946 1.499 . S
C1944 H1924 0.950 . S
C1944 C1943 1.414 . S
C1944 C1945 1.374 . S
C1945 H1925 0.950 . S
C1945 C1941 1.385 . S
C1945 C1944 1.374 . S
C1946 C1943 1.499 . S
C1946 C1947 1.373 . S
C1946 C1948 1.389 . S
C1947 H1926 0.950 . S
C1947 C1946 1.373 . S
C1947 C1963 1.377 . S
C1948 C1946 1.389 . S
C1948 C1949 1.524 . S
C1948 C1962 1.377 . S
C1949 C1948 1.524 . S
C1949 C1950 1.397 . S
C1949 C1954 1.363 . S
C1950 H1927 0.950 . S
C1950 C1949 1.397 . S
C1950 C1951 1.334 . S
C1951 H1928 0.950 . S
C1951 C1950 1.334 . S
C1951 C1952 1.287 . S
C1952 C1951 1.287 . S
C1952 C1953 1.524 . S
C1952 H1971 0.913 . S
C1953 H1929 0.950 . S
C1953 C1952 1.524 . S
C1953 C1954 1.415 . S
C1954 H1930 0.950 . S
C1954 C1949 1.363 . S
C1954 C1953 1.415 . S
C1955 H1931 0.951 . S
C1955 C1956 1.366 . S
C1955 C1957 1.388 . S
C1956 C1955 1.366 . S
C1956 C1960 1.385 . S
C1957 H1932 0.951 1_455 S
C1957 C1955 1.388 . S
C1957 C1958 1.366 . S
C1958 C1957 1.366 . S
C1958 C1959 1.414 . S
C1958 C1961 1.499 1_455 S
C1959 H1933 0.950 . S
C1959 C1958 1.414 . S
C1959 C1960 1.374 . S
C1960 H1934 0.950 . S
C1960 C1956 1.385 . S
C1960 C1959 1.374 . S
C1961 C1958 1.499 1_655 S
C1961 C1962 1.373 . S
C1961 C1963 1.389 . S
C1962 H1935 0.950 . S
C1962 C1948 1.377 . S
C1962 C1961 1.373 . S
C1963 C1947 1.377 . S
C1963 C1961 1.389 . S
C1963 C1964 1.524 . S
C1964 C1963 1.524 . S
C1964 C1965 1.397 1_655 S
C1964 C1969 1.363 . S
C1965 H1936 0.950 . S
C1965 C1964 1.397 1_455 S
C1965 C1966 1.334 . S
C1966 H1937 0.950 . S
C1966 C1965 1.334 . S
C1966 C1967 1.287 . S
C1967 C1966 1.287 . S
C1967 C1968 1.524 1_455 S
C1967 H1970 0.999 . S
C1968 H1938 0.950 . S
C1968 C1967 1.524 1_655 S
C1968 C1969 1.415 . S
C1969 H1939 0.950 . S
C1969 C1964 1.363 . S
C1969 C1968 1.415 . S
H1970 C1967 0.999 . S
H1971 C1952 0.913 . S
H1972 C1990 0.951 . S
H1973 C1992 0.951 . S
H1974 C1994 0.950 . S
H1975 C1995 0.950 . S
H1976 C1997 0.950 . S
H1977 C2000 0.950 . S
H1978 C2001 0.950 . S
H1979 C2003 0.950 . S
H1980 C2004 0.950 . S
H1981 C2005 0.951 . S
H1982 C2007 0.951 . S
H1983 C2009 0.950 . S
H1984 C2010 0.950 . S
H1985 C2012 0.950 . S
H1986 C2015 0.950 . S
H1987 C2016 0.950 . S
H1988 C2018 0.950 . S
H1989 C2019 0.950 1_545 S
C1990 H1972 0.951 . S
C1990 C1991 1.366 . S
C1990 C1992 1.388 . S
C1991 C1990 1.366 . S
C1991 C1995 1.385 . S
C1992 H1973 0.951 . S
C1992 C1990 1.388 . S
C1992 C1993 1.366 . S
C1993 C1992 1.366 . S
C1993 C1994 1.414 . S
C1993 C1996 1.499 . S
C1994 H1974 0.950 . S
C1994 C1993 1.414 . S
C1994 C1995 1.374 . S
C1995 H1975 0.950 . S
C1995 C1991 1.385 . S
C1995 C1994 1.374 . S
C1996 C1993 1.499 . S
C1996 C1997 1.373 . S
C1996 C1998 1.389 . S
C1997 H1976 0.950 . S
C1997 C1996 1.373 . S
C1997 C2013 1.377 . S
C1998 C1996 1.389 . S
C1998 C1999 1.524 . S
C1998 C2012 1.377 . S
C1999 C1998 1.524 . S
C1999 C2000 1.397 . S
C1999 C2004 1.363 . S
C2000 H1977 0.950 . S
C2000 C1999 1.397 . S
C2000 C2001 1.334 . S
C2001 H1978 0.950 . S
C2001 C2000 1.334 . S
C2001 C2002 1.287 . S
C2002 C2001 1.287 . S
C2002 C2003 1.524 . S
C2002 H2021 0.913 . S
C2003 H1979 0.950 . S
C2003 C2002 1.524 . S
C2003 C2004 1.415 . S
C2004 H1980 0.950 . S
C2004 C1999 1.363 . S
C2004 C2003 1.415 . S
C2005 H1981 0.951 . S
C2005 C2006 1.366 . S
C2005 C2007 1.388 . S
C2006 C2005 1.366 . S
C2006 C2010 1.385 . S
C2007 H1982 0.951 . S
C2007 C2005 1.388 . S
C2007 C2008 1.366 1_565 S
C2008 C2007 1.366 1_545 S
C2008 C2009 1.414 . S
C2008 C2011 1.499 . S
C2009 H1983 0.950 . S
C2009 C2008 1.414 . S
C2009 C2010 1.374 1_545 S
C2010 H1984 0.950 . S
C2010 C2006 1.385 . S
C2010 C2009 1.374 1_565 S
C2011 C2008 1.499 . S
C2011 C2012 1.373 . S
C2011 C2013 1.389 . S
C2012 H1985 0.950 . S
C2012 C1998 1.377 . S
C2012 C2011 1.373 . S
C2013 C1997 1.377 . S
C2013 C2011 1.389 . S
C2013 C2014 1.524 1_545 S
C2014 C2013 1.524 1_565 S
C2014 C2015 1.397 . S
C2014 C2019 1.363 . S
C2015 H1986 0.950 . S
C2015 C2014 1.397 . S
C2015 C2016 1.334 . S
C2016 H1987 0.950 . S
C2016 C2015 1.334 . S
C2016 C2017 1.287 . S
C2017 C2016 1.287 . S
C2017 C2018 1.524 . S
C2017 H2020 0.999 . S
C2018 H1988 0.950 . S
C2018 C2017 1.524 . S
C2018 C2019 1.415 . S
C2019 H1989 0.950 1_565 S
C2019 C2014 1.363 . S
C2019 C2018 1.415 . S
H2020 C2017 0.999 . S
H2021 C2002 0.913 . S
H2022 C2040 0.951 . S
H2023 C2042 0.951 . S
H2024 C2044 0.950 . S
H2025 C2045 0.950 . S
H2026 C2047 0.950 . S
H2027 C2050 0.950 . S
H2028 C2051 0.950 . S
H2029 C2053 0.950 . S
H2030 C2054 0.950 . S
H2031 C2055 0.951 . S
H2032 C2057 0.951 . S
H2033 C2059 0.950 1_455 S
H2034 C2060 0.950 . S
H2035 C2062 0.950 . S
H2036 C2065 0.950 . S
H2037 C2066 0.950 . S
H2038 C2068 0.950 . S
H2039 C2069 0.950 . S
C2040 H2022 0.951 . S
C2040 C2041 1.366 . S
C2040 C2042 1.388 . S
C2041 C2040 1.366 . S
C2041 C2045 1.385 . S
C2042 H2023 0.951 . S
C2042 C2040 1.388 . S
C2042 C2043 1.366 . S
C2043 C2042 1.366 . S
C2043 C2044 1.414 . S
C2043 C2046 1.499 . S
C2044 H2024 0.950 . S
C2044 C2043 1.414 . S
C2044 C2045 1.374 . S
C2045 H2025 0.950 . S
C2045 C2041 1.385 . S
C2045 C2044 1.374 . S
C2046 C2043 1.499 . S
C2046 C2047 1.373 . S
C2046 C2048 1.389 . S
C2047 H2026 0.950 . S
C2047 C2046 1.373 . S
C2047 C2063 1.345 1_455 S
C2048 C2046 1.389 . S
C2048 C2049 1.524 . S
C2048 C2062 1.377 . S
C2049 C2048 1.524 . S
C2049 C2050 1.397 . S
C2049 C2054 1.363 . S
C2050 H2027 0.950 . S
C2050 C2049 1.397 . S
C2050 C2051 1.334 . S
C2051 H2028 0.950 . S
C2051 C2050 1.334 . S
C2051 C2052 1.287 . S
C2052 C2051 1.287 . S
C2052 C2053 1.524 . S
C2052 H2071 0.913 . S
C2053 H2029 0.950 . S
C2053 C2052 1.524 . S
C2053 C2054 1.415 . S
C2054 H2030 0.950 . S
C2054 C2049 1.363 . S
C2054 C2053 1.415 . S
C2055 H2031 0.951 . S
C2055 C2056 1.366 . S
C2055 C2057 1.388 . S
C2056 C2055 1.366 . S
C2056 C2060 1.385 . S
C2057 H2032 0.951 . S
C2057 C2055 1.388 . S
C2057 C2058 1.366 . S
C2058 C2057 1.366 . S
C2058 C2059 1.414 . S
C2058 C2061 1.515 . S
C2059 H2033 0.950 1_655 S
C2059 C2058 1.414 . S
C2059 C2060 1.374 . S
C2060 H2034 0.950 . S
C2060 C2056 1.385 . S
C2060 C2059 1.374 . S
C2061 C2058 1.515 . S
C2061 C2062 1.358 1_655 S
C2061 C2063 1.389 . S
C2062 H2035 0.950 . S
C2062 C2048 1.377 . S
C2062 C2061 1.358 1_455 S
C2063 C2047 1.345 1_655 S
C2063 C2061 1.389 . S
C2063 C2064 1.555 . S
C2064 C2063 1.555 . S
C2064 C2065 1.397 . S
C2064 C2069 1.363 . S
C2065 H2036 0.950 . S
C2065 C2064 1.397 . S
C2065 C2066 1.334 . S
C2066 H2037 0.950 . S
C2066 C2065 1.334 . S
C2066 C2067 1.287 . S
C2067 C2066 1.287 . S
C2067 C2068 1.524 . S
C2067 H2070 0.999 . S
C2068 H2038 0.950 . S
C2068 C2067 1.524 . S
C2068 C2069 1.415 . S
C2069 H2039 0.950 . S
C2069 C2064 1.363 . S
C2069 C2068 1.415 . S
H2070 C2067 0.999 . S
H2071 C2052 0.913 . S
H2072 C2090 0.951 . S
H2073 C2092 0.951 . S
H2074 C2094 0.950 . S
H2075 C2095 0.950 1_545 S
H2076 C2097 0.950 . S
H2077 C2100 0.950 . S
H2078 C2101 0.950 . S
H2079 C2103 0.950 . S
H2080 C2104 0.950 . S
H2081 C2105 0.951 . S
H2082 C2107 0.951 . S
H2083 C2109 0.950 . S
H2084 C2110 0.950 . S
H2085 C2112 0.950 . S
H2086 C2115 0.950 . S
H2087 C2116 0.950 . S
H2088 C2118 0.950 . S
H2089 C2119 0.950 . S
C2090 H2072 0.951 . S
C2090 C2091 1.366 . S
C2090 C2092 1.388 . S
C2091 C2090 1.366 . S
C2091 C2095 1.385 . S
C2092 H2073 0.951 . S
C2092 C2090 1.388 . S
C2092 C2093 1.366 1_565 S
C2093 C2092 1.366 1_545 S
C2093 C2094 1.414 . S
C2093 C2096 1.499 . S
C2094 H2074 0.950 . S
C2094 C2093 1.414 . S
C2094 C2095 1.374 1_545 S
C2095 H2075 0.950 1_565 S
C2095 C2091 1.385 . S
C2095 C2094 1.374 1_565 S
C2096 C2093 1.499 . S
C2096 C2097 1.373 . S
C2096 C2098 1.389 . S
C2097 H2076 0.950 . S
C2097 C2096 1.373 . S
C2097 C2113 1.377 . S
C2098 C2096 1.389 . S
C2098 C2099 1.524 . S
C2098 C2112 1.377 . S
C2099 C2098 1.524 . S
C2099 C2100 1.397 . S
C2099 C2104 1.363 1_545 S
C2100 H2077 0.950 . S
C2100 C2099 1.397 . S
C2100 C2101 1.334 1_545 S
C2101 H2078 0.950 . S
C2101 C2100 1.334 1_565 S
C2101 C2102 1.287 . S
C2102 C2101 1.287 . S
C2102 C2103 1.524 . S
C2102 H2121 0.913 . S
C2103 H2079 0.950 . S
C2103 C2102 1.524 . S
C2103 C2104 1.415 . S
C2104 H2080 0.950 . S
C2104 C2099 1.363 1_565 S
C2104 C2103 1.415 . S
C2105 H2081 0.951 . S
C2105 C2106 1.366 . S
C2105 C2107 1.388 . S
C2106 C2105 1.366 . S
C2106 C2110 1.385 . S
C2107 H2082 0.951 . S
C2107 C2105 1.388 . S
C2107 C2108 1.366 . S
C2108 C2107 1.366 . S
C2108 C2109 1.414 . S
C2108 C2111 1.499 . S
C2109 H2083 0.950 . S
C2109 C2108 1.414 . S
C2109 C2110 1.374 . S
C2110 H2084 0.950 . S
C2110 C2106 1.385 . S
C2110 C2109 1.374 . S
C2111 C2108 1.499 . S
C2111 C2112 1.373 . S
C2111 C2113 1.389 . S
C2112 H2085 0.950 . S
C2112 C2098 1.377 . S
C2112 C2111 1.373 . S
C2113 C2097 1.377 . S
C2113 C2111 1.389 . S
C2113 C2114 1.524 . S
C2114 C2113 1.524 . S
C2114 C2115 1.397 . S
C2114 C2119 1.363 . S
C2115 H2086 0.950 . S
C2115 C2114 1.397 . S
C2115 C2116 1.334 . S
C2116 H2087 0.950 . S
C2116 C2115 1.334 . S
C2116 C2117 1.287 . S
C2117 C2116 1.287 . S
C2117 C2118 1.524 . S
C2117 H2120 0.999 . S
C2118 H2088 0.950 . S
C2118 C2117 1.524 . S
C2118 C2119 1.415 . S
C2119 H2089 0.950 . S
C2119 C2114 1.363 . S
C2119 C2118 1.415 . S
H2120 C2117 0.999 . S
H2121 C2102 0.913 . S
H2122 C2140 0.951 . S
H2123 C2142 0.951 . S
H2124 C2144 0.950 . S
H2125 C2145 0.950 . S
H2126 C2147 0.950 1_655 S
H2127 C2150 0.950 . S
H2128 C2151 0.950 . S
H2129 C2153 0.950 . S
H2130 C2154 0.950 . S
H2131 C2155 0.951 . S
H2132 C2157 0.951 . S
H2133 C2159 0.950 . S
H2134 C2160 0.950 . S
H2135 C2162 0.950 . S
H2136 C2165 0.950 . S
H2137 C2166 0.952 . S
H2138 C2168 0.950 . S
H2139 C2169 0.950 . S
C2140 H2122 0.951 . S
C2140 C2141 1.366 . S
C2140 C2142 1.388 . S
C2141 C2140 1.366 . S
C2141 C2145 1.385 . S
C2142 H2123 0.951 . S
C2142 C2140 1.388 . S
C2142 C2143 1.366 . S
C2143 C2142 1.366 . S
C2143 C2144 1.414 . S
C2143 C2146 1.499 1_655 S
C2144 H2124 0.950 . S
C2144 C2143 1.414 . S
C2144 C2145 1.374 . S
C2145 H2125 0.950 . S
C2145 C2141 1.385 . S
C2145 C2144 1.374 . S
C2146 C2143 1.499 1_455 S
C2146 C2147 1.373 . S
C2146 C2148 1.389 . S
C2147 H2126 0.950 1_455 S
C2147 C2146 1.373 . S
C2147 C2163 1.377 . S
C2148 C2146 1.389 . S
C2148 C2149 1.524 . S
C2148 C2162 1.377 . S
C2149 C2148 1.524 . S
C2149 C2150 1.397 . S
C2149 C2154 1.363 . S
C2150 H2127 0.950 . S
C2150 C2149 1.397 . S
C2150 C2151 1.334 . S
C2151 H2128 0.950 . S
C2151 C2150 1.334 . S
C2151 C2152 1.287 . S
C2152 C2151 1.287 . S
C2152 C2153 1.524 . S
C2152 H2171 0.913 . S
C2153 H2129 0.950 . S
C2153 C2152 1.524 . S
C2153 C2154 1.415 . S
C2154 H2130 0.950 . S
C2154 C2149 1.363 . S
C2154 C2153 1.415 . S
C2155 H2131 0.951 . S
C2155 C2156 1.366 . S
C2155 C2157 1.388 . S
C2156 C2155 1.366 . S
C2156 C2160 1.385 . S
C2157 H2132 0.951 . S
C2157 C2155 1.388 . S
C2157 C2158 1.366 . S
C2158 C2157 1.366 . S
C2158 C2159 1.414 . S
C2158 C2161 1.499 . S
C2159 H2133 0.950 . S
C2159 C2158 1.414 . S
C2159 C2160 1.374 . S
C2160 H2134 0.950 . S
C2160 C2156 1.385 . S
C2160 C2159 1.374 . S
C2161 C2158 1.499 . S
C2161 C2162 1.373 . S
C2161 C2163 1.389 . S
C2162 H2135 0.950 . S
C2162 C2148 1.377 . S
C2162 C2161 1.373 . S
C2163 C2147 1.377 . S
C2163 C2161 1.389 . S
C2163 C2164 1.524 . S
C2164 C2163 1.524 . S
C2164 C2165 1.397 . S
C2164 C2169 1.363 1_455 S
C2165 H2136 0.950 . S
C2165 C2164 1.397 . S
C2165 C2166 1.338 . S
C2166 H2137 0.952 . S
C2166 C2165 1.338 . S
C2166 C2167 1.281 1_455 S
C2167 C2166 1.281 1_655 S
C2167 C2168 1.524 . S
C2167 H2170 0.999 . S
C2168 H2138 0.950 . S
C2168 C2167 1.524 . S
C2168 C2169 1.415 . S
C2169 H2139 0.950 . S
C2169 C2164 1.363 1_655 S
C2169 C2168 1.415 . S
H2170 C2167 0.999 . S
H2171 C2152 0.913 . S
H2172 C2190 0.951 . S
H2173 C2192 0.951 . S
H2174 C2194 0.950 . S
H2175 C2195 0.950 . S
H2176 C2197 0.950 . S
H2177 C2200 0.950 . S
H2178 C2201 0.950 . S
H2179 C2203 0.950 . S
H2180 C2204 0.950 . S
H2181 C2205 0.951 . S
H2182 C2207 0.951 . S
H2183 C2209 0.950 1_565 S
H2184 C2210 0.950 . S
H2185 C2212 0.950 . S
H2186 C2215 0.950 . S
H2187 C2216 0.950 . S
H2188 C2218 0.950 . S
H2189 C2219 0.950 . S
C2190 H2172 0.951 . S
C2190 C2191 1.366 . S
C2190 C2192 1.388 . S
C2191 C2190 1.366 . S
C2191 C2195 1.385 . S
C2192 H2173 0.951 . S
C2192 C2190 1.388 . S
C2192 C2193 1.366 . S
C2193 C2192 1.366 . S
C2193 C2194 1.414 . S
C2193 C2196 1.499 . S
C2194 H2174 0.950 . S
C2194 C2193 1.414 . S
C2194 C2195 1.374 . S
C2195 H2175 0.950 . S
C2195 C2191 1.385 . S
C2195 C2194 1.374 . S
C2196 C2193 1.499 . S
C2196 C2197 1.373 . S
C2196 C2198 1.389 . S
C2197 H2176 0.950 . S
C2197 C2196 1.373 . S
C2197 C2213 1.377 1_565 S
C2198 C2196 1.389 . S
C2198 C2199 1.524 . S
C2198 C2212 1.377 . S
C2199 C2198 1.524 . S
C2199 C2200 1.397 . S
C2199 C2204 1.363 . S
C2200 H2177 0.950 . S
C2200 C2199 1.397 . S
C2200 C2201 1.334 . S
C2201 H2178 0.950 . S
C2201 C2200 1.334 . S
C2201 C2202 1.287 . S
C2202 C2201 1.287 . S
C2202 C2203 1.524 . S
C2202 H2221 0.913 . S
C2203 H2179 0.950 . S
C2203 C2202 1.524 . S
C2203 C2204 1.415 . S
C2204 H2180 0.950 . S
C2204 C2199 1.363 . S
C2204 C2203 1.415 . S
C2205 H2181 0.951 . S
C2205 C2206 1.366 . S
C2205 C2207 1.388 . S
C2206 C2205 1.366 . S
C2206 C2210 1.385 . S
C2207 H2182 0.951 . S
C2207 C2205 1.388 . S
C2207 C2208 1.366 . S
C2208 C2207 1.366 . S
C2208 C2209 1.414 . S
C2208 C2211 1.539 . S
C2209 H2183 0.950 1_545 S
C2209 C2208 1.414 . S
C2209 C2210 1.374 . S
C2210 H2184 0.950 . S
C2210 C2206 1.385 . S
C2210 C2209 1.374 . S
C2211 C2208 1.539 . S
C2211 C2212 1.325 1_545 S
C2211 C2213 1.400 . S
C2212 H2185 0.950 . S
C2212 C2198 1.377 . S
C2212 C2211 1.325 1_565 S
C2213 C2197 1.377 1_545 S
C2213 C2211 1.400 . S
C2213 C2214 1.524 . S
C2214 C2213 1.524 . S
C2214 C2215 1.397 . S
C2214 C2219 1.363 . S
C2215 H2186 0.950 . S
C2215 C2214 1.397 . S
C2215 C2216 1.334 . S
C2216 H2187 0.950 . S
C2216 C2215 1.334 . S
C2216 C2217 1.287 . S
C2217 C2216 1.287 . S
C2217 C2218 1.524 . S
C2217 H2220 0.999 . S
C2218 H2188 0.950 . S
C2218 C2217 1.524 . S
C2218 C2219 1.415 . S
C2219 H2189 0.950 . S
C2219 C2214 1.363 . S
C2219 C2218 1.415 . S
H2220 C2217 0.999 . S
H2221 C2202 0.913 . S
H2222 C2240 0.951 . S
H2223 C2242 0.951 . S
H2224 C2244 0.950 1_655 S
H2225 C2245 0.950 . S
H2226 C2247 0.950 . S
H2227 C2250 0.950 . S
H2228 C2251 0.950 . S
H2229 C2253 0.950 . S
H2230 C2254 0.950 . S
H2231 C2255 0.951 . S
H2232 C2257 0.951 . S
H2233 C2259 0.950 . S
H2234 C2260 0.950 . S
H2235 C2262 0.950 . S
H2236 C2265 0.950 . S
H2237 C2266 0.950 . S
H2238 C2268 0.950 . S
H2239 C2269 0.950 . S
C2240 H2222 0.951 . S
C2240 C2241 1.366 . S
C2240 C2242 1.388 . S
C2241 C2240 1.366 . S
C2241 C2245 1.385 . S
C2242 H2223 0.951 . S
C2242 C2240 1.388 . S
C2242 C2243 1.366 . S
C2243 C2242 1.366 . S
C2243 C2244 1.414 . S
C2243 C2246 1.523 . S
C2244 H2224 0.950 1_455 S
C2244 C2243 1.414 . S
C2244 C2245 1.374 . S
C2245 H2225 0.950 . S
C2245 C2241 1.385 . S
C2245 C2244 1.374 . S
C2246 C2243 1.523 . S
C2246 C2247 1.346 1_455 S
C2246 C2248 1.393 . S
C2247 H2226 0.950 . S
C2247 C2246 1.346 1_655 S
C2247 C2263 1.377 . S
C2248 C2246 1.393 . S
C2248 C2249 1.524 . S
C2248 C2262 1.377 1_455 S
C2249 C2248 1.524 . S
C2249 C2250 1.397 . S
C2249 C2254 1.363 . S
C2250 H2227 0.950 . S
C2250 C2249 1.397 . S
C2250 C2251 1.334 . S
C2251 H2228 0.950 . S
C2251 C2250 1.334 . S
C2251 C2252 1.287 . S
C2252 C2251 1.287 . S
C2252 C2253 1.524 . S
C2252 H2271 0.913 . S
C2253 H2229 0.950 . S
C2253 C2252 1.524 . S
C2253 C2254 1.415 . S
C2254 H2230 0.950 . S
C2254 C2249 1.363 . S
C2254 C2253 1.415 . S
C2255 H2231 0.951 . S
C2255 C2256 1.366 . S
C2255 C2257 1.388 . S
C2256 C2255 1.366 . S
C2256 C2260 1.385 . S
C2257 H2232 0.951 . S
C2257 C2255 1.388 . S
C2257 C2258 1.366 . S
C2258 C2257 1.366 . S
C2258 C2259 1.414 . S
C2258 C2261 1.499 . S
C2259 H2233 0.950 . S
C2259 C2258 1.414 . S
C2259 C2260 1.374 . S
C2260 H2234 0.950 . S
C2260 C2256 1.385 . S
C2260 C2259 1.374 . S
C2261 C2258 1.499 . S
C2261 C2262 1.373 . S
C2261 C2263 1.389 . S
C2262 H2235 0.950 . S
C2262 C2248 1.377 1_655 S
C2262 C2261 1.373 . S
C2263 C2247 1.377 . S
C2263 C2261 1.389 . S
C2263 C2264 1.524 . S
C2264 C2263 1.524 . S
C2264 C2265 1.397 . S
C2264 C2269 1.363 . S
C2265 H2236 0.950 . S
C2265 C2264 1.397 . S
C2265 C2266 1.334 . S
C2266 H2237 0.950 . S
C2266 C2265 1.334 . S
C2266 C2267 1.287 . S
C2267 C2266 1.287 . S
C2267 C2268 1.524 . S
C2267 H2270 0.999 . S
C2268 H2238 0.950 . S
C2268 C2267 1.524 . S
C2268 C2269 1.415 . S
C2269 H2239 0.950 . S
C2269 C2264 1.363 . S
C2269 C2268 1.415 . S
H2270 C2267 0.999 . S
H2271 C2252 0.913 . S
H2272 C2290 0.951 . S
H2273 C2292 0.951 . S
H2274 C2294 0.950 . S
H2275 C2295 0.950 . S
H2276 C2297 0.950 . S
H2277 C2300 0.950 . S
H2278 C2301 0.950 . S
H2279 C2303 0.950 . S
H2280 C2304 0.950 . S
H2281 C2305 0.951 . S
H2282 C2307 0.951 . S
H2283 C2309 0.972 . S
H2284 C2310 0.950 . S
H2285 C2312 0.950 . S
H2286 C2315 0.950 1_556 S
H2287 C2316 0.950 . S
H2288 C2318 0.950 . S
H2289 C2319 0.950 . S
C2290 H2272 0.951 . S
C2290 C2291 1.366 . S
C2290 C2292 1.388 . S
C2291 C2290 1.366 . S
C2291 C2295 1.385 . S
C2292 H2273 0.951 . S
C2292 C2290 1.388 . S
C2292 C2293 1.366 . S
C2293 C2292 1.366 . S
C2293 C2294 1.414 . S
C2293 C2296 1.499 . S
C2294 H2274 0.950 . S
C2294 C2293 1.414 . S
C2294 C2295 1.374 . S
C2295 H2275 0.950 . S
C2295 C2291 1.385 . S
C2295 C2294 1.374 . S
C2296 C2293 1.499 . S
C2296 C2297 1.373 . S
C2296 C2298 1.389 . S
C2297 H2276 0.950 . S
C2297 C2296 1.373 . S
C2297 C2313 1.377 . S
C2298 C2296 1.389 . S
C2298 C2299 1.524 . S
C2298 C2312 1.377 . S
C2299 C2298 1.524 . S
C2299 C2300 1.397 . S
C2299 C2304 1.363 . S
C2300 H2277 0.950 . S
C2300 C2299 1.397 . S
C2300 C2301 1.334 . S
C2301 H2278 0.950 . S
C2301 C2300 1.334 . S
C2301 C2302 1.287 . S
C2302 C2301 1.287 . S
C2302 C2303 1.524 . S
C2302 H2321 0.913 . S
C2303 H2279 0.950 . S
C2303 C2302 1.524 . S
C2303 C2304 1.415 . S
C2304 H2280 0.950 . S
C2304 C2299 1.363 . S
C2304 C2303 1.415 . S
C2305 H2281 0.951 . S
C2305 C2306 1.366 . S
C2305 C2307 1.388 . S
C2306 C2305 1.366 . S
C2306 C2310 1.385 . S
C2307 H2282 0.951 . S
C2307 C2305 1.388 . S
C2307 C2308 1.366 . S
C2308 C2307 1.366 . S
C2308 C2309 1.414 . S
C2308 C2311 1.525 . S
C2309 H2283 0.972 . S
C2309 C2308 1.414 . S
C2309 C2310 1.374 . S
C2310 H2284 0.950 . S
C2310 C2306 1.385 . S
C2310 C2309 1.374 . S
C2311 C2308 1.525 . S
C2311 C2312 1.357 1_554 S
C2311 C2313 1.382 1_554 S
C2312 H2285 0.950 . S
C2312 C2298 1.377 . S
C2312 C2311 1.357 1_556 S
C2313 C2297 1.377 . S
C2313 C2311 1.382 1_556 S
C2313 C2314 1.524 1_556 S
C2314 C2313 1.524 1_554 S
C2314 C2315 1.397 . S
C2314 C2319 1.363 . S
C2315 H2286 0.950 1_554 S
C2315 C2314 1.397 . S
C2315 C2316 1.334 . S
C2316 H2287 0.950 . S
C2316 C2315 1.334 . S
C2316 C2317 1.287 . S
C2317 C2316 1.287 . S
C2317 C2318 1.524 . S
C2317 H2320 0.999 . S
C2318 H2288 0.950 . S
C2318 C2317 1.524 . S
C2318 C2319 1.415 . S
C2319 H2289 0.950 . S
C2319 C2314 1.363 . S
C2319 C2318 1.415 . S
H2320 C2317 0.999 . S
H2321 C2302 0.913 . S
H2322 C2340 0.951 . S
H2323 C2342 0.951 . S
H2324 C2344 0.950 . S
H2325 C2345 0.950 . S
H2326 C2347 0.950 . S
H2327 C2350 0.950 . S
H2328 C2351 0.950 . S
H2329 C2353 0.950 . S
H2330 C2354 0.950 . S
H2331 C2355 0.951 . S
H2332 C2357 0.951 . S
H2333 C2359 0.950 . S
H2334 C2360 0.950 . S
H2335 C2362 0.950 . S
H2336 C2365 0.950 . S
H2337 C2366 0.950 . S
H2338 C2368 0.950 . S
H2339 C2369 0.950 1_554 S
C2340 H2322 0.951 . S
C2340 C2341 1.366 . S
C2340 C2342 1.388 . S
C2341 C2340 1.366 . S
C2341 C2345 1.385 . S
C2342 H2323 0.951 . S
C2342 C2340 1.388 . S
C2342 C2343 1.366 . S
C2343 C2342 1.366 . S
C2343 C2344 1.414 . S
C2343 C2346 1.499 . S
C2344 H2324 0.950 . S
C2344 C2343 1.414 . S
C2344 C2345 1.374 . S
C2345 H2325 0.950 . S
C2345 C2341 1.385 . S
C2345 C2344 1.374 . S
C2346 C2343 1.499 . S
C2346 C2347 1.373 . S
C2346 C2348 1.389 . S
C2347 H2326 0.950 . S
C2347 C2346 1.373 . S
C2347 C2363 1.377 1_554 S
C2348 C2346 1.389 . S
C2348 C2349 1.524 . S
C2348 C2362 1.377 . S
C2349 C2348 1.524 . S
C2349 C2350 1.397 . S
C2349 C2354 1.363 . S
C2350 H2327 0.950 . S
C2350 C2349 1.397 . S
C2350 C2351 1.334 . S
C2351 H2328 0.950 . S
C2351 C2350 1.334 . S
C2351 C2352 1.287 . S
C2352 C2351 1.287 . S
C2352 C2353 1.524 . S
C2352 H2371 0.913 . S
C2353 H2329 0.950 . S
C2353 C2352 1.524 . S
C2353 C2354 1.415 . S
C2354 H2330 0.950 . S
C2354 C2349 1.363 . S
C2354 C2353 1.415 . S
C2355 H2331 0.951 . S
C2355 C2356 1.366 . S
C2355 C2357 1.388 . S
C2356 C2355 1.366 . S
C2356 C2360 1.385 . S
C2357 H2332 0.951 . S
C2357 C2355 1.388 . S
C2357 C2358 1.366 . S
C2358 C2357 1.366 . S
C2358 C2359 1.414 . S
C2358 C2361 1.499 . S
C2359 H2333 0.950 . S
C2359 C2358 1.414 . S
C2359 C2360 1.374 . S
C2360 H2334 0.950 . S
C2360 C2356 1.385 . S
C2360 C2359 1.374 . S
C2361 C2358 1.499 . S
C2361 C2362 1.373 1_556 S
C2361 C2363 1.389 . S
C2362 H2335 0.950 . S
C2362 C2348 1.377 . S
C2362 C2361 1.373 1_554 S
C2363 C2347 1.377 1_556 S
C2363 C2361 1.389 . S
C2363 C2364 1.524 . S
C2364 C2363 1.524 . S
C2364 C2365 1.397 . S
C2364 C2369 1.363 . S
C2365 H2336 0.950 . S
C2365 C2364 1.397 . S
C2365 C2366 1.334 . S
C2366 H2337 0.950 . S
C2366 C2365 1.334 . S
C2366 C2367 1.287 . S
C2367 C2366 1.287 . S
C2367 C2368 1.524 . S
C2367 H2370 0.999 . S
C2368 H2338 0.950 . S
C2368 C2367 1.524 . S
C2368 C2369 1.415 . S
C2369 H2339 0.950 1_556 S
C2369 C2364 1.363 . S
C2369 C2368 1.415 . S
H2370 C2367 0.999 . S
H2371 C2352 0.913 . S
H2372 C2390 0.951 . S
H2373 C2392 0.951 . S
H2374 C2394 0.950 . S
H2375 C2395 0.950 . S
H2376 C2397 0.950 . S
H2377 C2400 0.950 . S
H2378 C2401 0.950 . S
H2379 C2403 0.950 . S
H2380 C2404 0.950 . S
H2381 C2405 0.951 . S
H2382 C2407 0.951 1_556 S
H2383 C2409 0.950 . S
H2384 C2410 0.950 . S
H2385 C2412 0.953 . S
H2386 C2415 0.950 . S
H2387 C2416 0.950 . S
H2388 C2418 0.950 . S
H2389 C2419 0.950 . S
C2390 H2372 0.951 . S
C2390 C2391 1.366 . S
C2390 C2392 1.388 . S
C2391 C2390 1.366 . S
C2391 C2395 1.385 . S
C2392 H2373 0.951 . S
C2392 C2390 1.388 . S
C2392 C2393 1.366 . S
C2393 C2392 1.366 . S
C2393 C2394 1.414 . S
C2393 C2396 1.499 . S
C2394 H2374 0.950 . S
C2394 C2393 1.414 . S
C2394 C2395 1.374 . S
C2395 H2375 0.950 . S
C2395 C2391 1.385 . S
C2395 C2394 1.374 . S
C2396 C2393 1.499 . S
C2396 C2397 1.373 . S
C2396 C2398 1.389 . S
C2397 H2376 0.950 . S
C2397 C2396 1.373 . S
C2397 C2413 1.377 . S
C2398 C2396 1.389 . S
C2398 C2399 1.524 . S
C2398 C2412 1.375 1_556 S
C2399 C2398 1.524 . S
C2399 C2400 1.397 . S
C2399 C2404 1.363 1_556 S
C2400 H2377 0.950 . S
C2400 C2399 1.397 . S
C2400 C2401 1.334 . S
C2401 H2378 0.950 . S
C2401 C2400 1.334 . S
C2401 C2402 1.287 1_556 S
C2402 C2401 1.287 1_554 S
C2402 C2403 1.524 . S
C2402 H2421 0.913 . S
C2403 H2379 0.950 . S
C2403 C2402 1.524 . S
C2403 C2404 1.415 . S
C2404 H2380 0.950 . S
C2404 C2399 1.363 1_554 S
C2404 C2403 1.415 . S
C2405 H2381 0.951 . S
C2405 C2406 1.366 . S
C2405 C2407 1.388 . S
C2406 C2405 1.366 . S
C2406 C2410 1.385 . S
C2407 H2382 0.951 1_554 S
C2407 C2405 1.388 . S
C2407 C2408 1.366 . S
C2408 C2407 1.366 . S
C2408 C2409 1.414 . S
C2408 C2411 1.499 1_554 S
C2409 H2383 0.950 . S
C2409 C2408 1.414 . S
C2409 C2410 1.374 . S
C2410 H2384 0.950 . S
C2410 C2406 1.385 . S
C2410 C2409 1.374 . S
C2411 C2408 1.499 1_556 S
C2411 C2412 1.373 1_556 S
C2411 C2413 1.389 . S
C2412 H2385 0.953 . S
C2412 C2398 1.375 1_554 S
C2412 C2411 1.373 1_554 S
C2413 C2397 1.377 . S
C2413 C2411 1.389 . S
C2413 C2414 1.524 . S
C2414 C2413 1.524 . S
C2414 C2415 1.397 . S
C2414 C2419 1.363 . S
C2415 H2386 0.950 . S
C2415 C2414 1.397 . S
C2415 C2416 1.334 . S
C2416 H2387 0.950 . S
C2416 C2415 1.334 . S
C2416 C2417 1.287 . S
C2417 C2416 1.287 . S
C2417 C2418 1.524 . S
C2417 H2420 0.999 . S
C2418 H2388 0.950 . S
C2418 C2417 1.524 . S
C2418 C2419 1.415 . S
C2419 H2389 0.950 . S
C2419 C2414 1.363 . S
C2419 C2418 1.415 . S
H2420 C2417 0.999 . S
H2421 C2402 0.913 . S
H2422 C2440 0.951 . S
H2423 C2442 0.951 . S
H2424 C2444 0.950 . S
H2425 C2445 0.950 . S
H2426 C2447 0.950 . S
H2427 C2450 0.950 . S
H2428 C2451 0.950 . S
H2429 C2453 0.950 . S
H2430 C2454 0.988 . S
H2431 C2455 0.951 . S
H2432 C2457 0.951 1_554 S
H2433 C2459 0.950 . S
H2434 C2460 0.950 . S
H2435 C2462 0.950 1_556 S
H2436 C2465 0.950 1_556 S
H2437 C2466 0.950 1_556 S
H2438 C2468 0.950 . S
H2439 C2469 0.950 . S
C2440 H2422 0.951 . S
C2440 C2441 1.366 . S
C2440 C2442 1.388 . S
C2441 C2440 1.366 . S
C2441 C2445 1.385 . S
C2442 H2423 0.951 . S
C2442 C2440 1.388 . S
C2442 C2443 1.366 . S
C2443 C2442 1.366 . S
C2443 C2444 1.414 . S
C2443 C2446 1.499 . S
C2444 H2424 0.950 . S
C2444 C2443 1.414 . S
C2444 C2445 1.374 . S
C2445 H2425 0.950 . S
C2445 C2441 1.385 . S
C2445 C2444 1.374 . S
C2446 C2443 1.499 . S
C2446 C2447 1.373 . S
C2446 C2448 1.389 . S
C2447 H2426 0.950 . S
C2447 C2446 1.373 . S
C2447 C2463 1.377 . S
C2448 C2446 1.389 . S
C2448 C2449 1.524 . S
C2448 C2462 1.377 . S
C2449 C2448 1.524 . S
C2449 C2450 1.397 . S
C2449 C2454 1.323 1_554 S
C2450 H2427 0.950 . S
C2450 C2449 1.397 . S
C2450 C2451 1.334 . S
C2451 H2428 0.950 . S
C2451 C2450 1.334 . S
C2451 C2452 1.287 . S
C2452 C2451 1.287 . S
C2452 C2453 1.524 1_554 S
C2452 H2471 0.913 . S
C2453 H2429 0.950 . S
C2453 C2452 1.524 1_556 S
C2453 C2454 1.419 . S
C2454 H2430 0.988 . S
C2454 C2449 1.323 1_556 S
C2454 C2453 1.419 . S
C2455 H2431 0.951 . S
C2455 C2456 1.366 . S
C2455 C2457 1.388 . S
C2456 C2455 1.366 . S
C2456 C2460 1.385 . S
C2457 H2432 0.951 1_556 S
C2457 C2455 1.388 . S
C2457 C2458 1.366 . S
C2458 C2457 1.366 . S
C2458 C2459 1.414 . S
C2458 C2461 1.499 1_556 S
C2459 H2433 0.950 . S
C2459 C2458 1.414 . S
C2459 C2460 1.374 . S
C2460 H2434 0.950 . S
C2460 C2456 1.385 . S
C2460 C2459 1.374 . S
C2461 C2458 1.499 1_554 S
C2461 C2462 1.373 . S
C2461 C2463 1.389 . S
C2462 H2435 0.950 1_554 S
C2462 C2448 1.377 . S
C2462 C2461 1.373 . S
C2463 C2447 1.377 . S
C2463 C2461 1.389 . S
C2463 C2464 1.524 . S
C2464 C2463 1.524 . S
C2464 C2465 1.397 . S
C2464 C2469 1.363 . S
C2465 H2436 0.950 1_554 S
C2465 C2464 1.397 . S
C2465 C2466 1.334 . S
C2466 H2437 0.950 1_554 S
C2466 C2465 1.334 . S
C2466 C2467 1.287 . S
C2467 C2466 1.287 . S
C2467 C2468 1.524 . S
C2467 H2470 0.999 . S
C2468 H2438 0.950 . S
C2468 C2467 1.524 . S
C2468 C2469 1.415 . S
C2469 H2439 0.950 . S
C2469 C2464 1.363 . S
C2469 C2468 1.415 . S
H2470 C2467 0.999 . S
H2471 C2452 0.913 . S
H2472 C2490 0.951 . S
H2473 C2492 0.951 . S
H2474 C2494 0.950 . S
H2475 C2495 0.950 . S
H2476 C2497 0.950 . S
H2477 C2500 0.950 . S
H2478 C2501 0.950 . S
H2479 C2503 0.950 . S
H2480 C2504 0.950 . S
H2481 C2505 0.951 . S
H2482 C2507 0.951 . S
H2483 C2509 0.950 . S
H2484 C2510 0.950 . S
H2485 C2512 0.950 . S
H2486 C2515 0.950 . S
H2487 C2516 0.950 . S
H2488 C2518 0.950 . S
H2489 C2519 0.950 . S
C2490 H2472 0.951 . S
C2490 C2491 1.366 . S
C2490 C2492 1.388 . S
C2491 C2490 1.366 . S
C2491 C2495 1.385 . S
C2492 H2473 0.951 . S
C2492 C2490 1.388 . S
C2492 C2493 1.366 . S
C2493 C2492 1.366 . S
C2493 C2494 1.414 . S
C2493 C2496 1.499 . S
C2494 H2474 0.950 . S
C2494 C2493 1.414 . S
C2494 C2495 1.374 . S
C2495 H2475 0.950 . S
C2495 C2491 1.385 . S
C2495 C2494 1.374 . S
C2496 C2493 1.499 . S
C2496 C2497 1.373 . S
C2496 C2498 1.389 . S
C2497 H2476 0.950 . S
C2497 C2496 1.373 . S
C2497 C2513 1.377 . S
C2498 C2496 1.389 . S
C2498 C2499 1.524 . S
C2498 C2512 1.377 . S
C2499 C2498 1.524 . S
C2499 C2500 1.397 . S
C2499 C2504 1.363 . S
C2500 H2477 0.950 . S
C2500 C2499 1.397 . S
C2500 C2501 1.334 . S
C2501 H2478 0.950 . S
C2501 C2500 1.334 . S
C2501 C2502 1.287 . S
C2502 C2501 1.287 . S
C2502 C2503 1.524 . S
C2502 H2521 0.913 . S
C2503 H2479 0.950 . S
C2503 C2502 1.524 . S
C2503 C2504 1.415 . S
C2504 H2480 0.950 . S
C2504 C2499 1.363 . S
C2504 C2503 1.415 . S
C2505 H2481 0.951 . S
C2505 C2506 1.366 . S
C2505 C2507 1.388 . S
C2506 C2505 1.366 . S
C2506 C2510 1.385 . S
C2507 H2482 0.951 . S
C2507 C2505 1.388 . S
C2507 C2508 1.366 . S
C2508 C2507 1.366 . S
C2508 C2509 1.414 . S
C2508 C2511 1.499 . S
C2509 H2483 0.950 . S
C2509 C2508 1.414 . S
C2509 C2510 1.374 . S
C2510 H2484 0.950 . S
C2510 C2506 1.385 . S
C2510 C2509 1.374 . S
C2511 C2508 1.499 . S
C2511 C2512 1.373 . S
C2511 C2513 1.389 . S
C2512 H2485 0.950 . S
C2512 C2498 1.377 . S
C2512 C2511 1.373 . S
C2513 C2497 1.377 . S
C2513 C2511 1.389 . S
C2513 C2514 1.524 . S
C2514 C2513 1.524 . S
C2514 C2515 1.397 . S
C2514 C2519 1.363 . S
C2515 H2486 0.950 . S
C2515 C2514 1.397 . S
C2515 C2516 1.334 . S
C2516 H2487 0.950 . S
C2516 C2515 1.334 . S
C2516 C2517 1.287 . S
C2517 C2516 1.287 . S
C2517 C2518 1.524 . S
C2517 H2520 0.999 . S
C2518 H2488 0.950 . S
C2518 C2517 1.524 . S
C2518 C2519 1.415 . S
C2519 H2489 0.950 . S
C2519 C2514 1.363 . S
C2519 C2518 1.415 . S
H2520 C2517 0.999 . S
H2521 C2502 0.913 . S
H2522 C2540 0.951 . S
H2523 C2542 0.951 . S
H2524 C2544 0.950 . S
H2525 C2545 0.950 . S
H2526 C2547 0.950 . S
H2527 C2550 0.950 . S
H2528 C2551 0.950 . S
H2529 C2553 0.950 . S
H2530 C2554 0.950 . S
H2531 C2555 0.951 . S
H2532 C2557 0.951 . S
H2533 C2559 0.950 . S
H2534 C2560 0.950 . S
H2535 C2562 0.950 . S
H2536 C2565 0.950 . S
H2537 C2566 0.950 . S
H2538 C2568 0.950 . S
H2539 C2569 0.950 . S
C2540 H2522 0.951 . S
C2540 C2541 1.366 . S
C2540 C2542 1.388 . S
C2541 C2540 1.366 . S
C2541 C2545 1.385 . S
C2542 H2523 0.951 . S
C2542 C2540 1.388 . S
C2542 C2543 1.366 . S
C2543 C2542 1.366 . S
C2543 C2544 1.414 . S
C2543 C2546 1.499 . S
C2544 H2524 0.950 . S
C2544 C2543 1.414 . S
C2544 C2545 1.374 . S
C2545 H2525 0.950 . S
C2545 C2541 1.385 . S
C2545 C2544 1.374 . S
C2546 C2543 1.499 . S
C2546 C2547 1.373 . S
C2546 C2548 1.389 . S
C2547 H2526 0.950 . S
C2547 C2546 1.373 . S
C2547 C2563 1.377 . S
C2548 C2546 1.389 . S
C2548 C2549 1.524 . S
C2548 C2562 1.377 . S
C2549 C2548 1.524 . S
C2549 C2550 1.397 . S
C2549 C2554 1.363 . S
C2550 H2527 0.950 . S
C2550 C2549 1.397 . S
C2550 C2551 1.334 . S
C2551 H2528 0.950 . S
C2551 C2550 1.334 . S
C2551 C2552 1.287 . S
C2552 C2551 1.287 . S
C2552 C2553 1.524 . S
C2552 H2571 0.913 . S
C2553 H2529 0.950 . S
C2553 C2552 1.524 . S
C2553 C2554 1.415 . S
C2554 H2530 0.950 . S
C2554 C2549 1.363 . S
C2554 C2553 1.415 . S
C2555 H2531 0.951 . S
C2555 C2556 1.366 . S
C2555 C2557 1.388 . S
C2556 C2555 1.366 . S
C2556 C2560 1.385 . S
C2557 H2532 0.951 . S
C2557 C2555 1.388 . S
C2557 C2558 1.366 . S
C2558 C2557 1.366 . S
C2558 C2559 1.414 . S
C2558 C2561 1.499 . S
C2559 H2533 0.950 . S
C2559 C2558 1.414 . S
C2559 C2560 1.374 . S
C2560 H2534 0.950 . S
C2560 C2556 1.385 . S
C2560 C2559 1.374 . S
C2561 C2558 1.499 . S
C2561 C2562 1.373 . S
C2561 C2563 1.389 . S
C2562 H2535 0.950 . S
C2562 C2548 1.377 . S
C2562 C2561 1.373 . S
C2563 C2547 1.377 . S
C2563 C2561 1.389 . S
C2563 C2564 1.524 . S
C2564 C2563 1.524 . S
C2564 C2565 1.397 . S
C2564 C2569 1.363 . S
C2565 H2536 0.950 . S
C2565 C2564 1.397 . S
C2565 C2566 1.334 . S
C2566 H2537 0.950 . S
C2566 C2565 1.334 . S
C2566 C2567 1.287 . S
C2567 C2566 1.287 . S
C2567 C2568 1.524 . S
C2567 H2570 0.999 . S
C2568 H2538 0.950 . S
C2568 C2567 1.524 . S
C2568 C2569 1.415 . S
C2569 H2539 0.950 . S
C2569 C2564 1.363 . S
C2569 C2568 1.415 . S
H2570 C2567 0.999 . S
H2571 C2552 0.913 . S
H2572 C2590 0.951 . S
H2573 C2592 0.951 . S
H2574 C2594 0.950 . S
H2575 C2595 0.950 . S
H2576 C2597 0.950 . S
H2577 C2600 0.950 . S
H2578 C2601 0.950 . S
H2579 C2603 0.950 . S
H2580 C2604 0.950 . S
H2581 C2605 0.951 . S
H2582 C2607 0.951 . S
H2583 C2609 0.950 . S
H2584 C2610 0.950 . S
H2585 C2612 0.950 . S
H2586 C2615 0.950 . S
H2587 C2616 0.950 . S
H2588 C2618 0.950 . S
H2589 C2619 0.950 . S
C2590 H2572 0.951 . S
C2590 C2591 1.366 . S
C2590 C2592 1.388 . S
C2591 C2590 1.366 . S
C2591 C2595 1.385 . S
C2592 H2573 0.951 . S
C2592 C2590 1.388 . S
C2592 C2593 1.366 . S
C2593 C2592 1.366 . S
C2593 C2594 1.414 . S
C2593 C2596 1.499 . S
C2594 H2574 0.950 . S
C2594 C2593 1.414 . S
C2594 C2595 1.374 . S
C2595 H2575 0.950 . S
C2595 C2591 1.385 . S
C2595 C2594 1.374 . S
C2596 C2593 1.499 . S
C2596 C2597 1.373 . S
C2596 C2598 1.389 . S
C2597 H2576 0.950 . S
C2597 C2596 1.373 . S
C2597 C2613 1.377 . S
C2598 C2596 1.389 . S
C2598 C2599 1.524 . S
C2598 C2612 1.377 . S
C2599 C2598 1.524 . S
C2599 C2600 1.397 . S
C2599 C2604 1.363 . S
C2600 H2577 0.950 . S
C2600 C2599 1.397 . S
C2600 C2601 1.334 . S
C2601 H2578 0.950 . S
C2601 C2600 1.334 . S
C2601 C2602 1.287 . S
C2602 C2601 1.287 . S
C2602 C2603 1.524 . S
C2602 H2621 0.913 . S
C2603 H2579 0.950 . S
C2603 C2602 1.524 . S
C2603 C2604 1.415 . S
C2604 H2580 0.950 . S
C2604 C2599 1.363 . S
C2604 C2603 1.415 . S
C2605 H2581 0.951 . S
C2605 C2606 1.366 . S
C2605 C2607 1.388 . S
C2606 C2605 1.366 . S
C2606 C2610 1.385 . S
C2607 H2582 0.951 . S
C2607 C2605 1.388 . S
C2607 C2608 1.366 . S
C2608 C2607 1.366 . S
C2608 C2609 1.414 . S
C2608 C2611 1.499 . S
C2609 H2583 0.950 . S
C2609 C2608 1.414 . S
C2609 C2610 1.374 . S
C2610 H2584 0.950 . S
C2610 C2606 1.385 . S
C2610 C2609 1.374 . S
C2611 C2608 1.499 . S
C2611 C2612 1.373 . S
C2611 C2613 1.389 . S
C2612 H2585 0.950 . S
C2612 C2598 1.377 . S
C2612 C2611 1.373 . S
C2613 C2597 1.377 . S
C2613 C2611 1.389 . S
C2613 C2614 1.524 . S
C2614 C2613 1.524 . S
C2614 C2615 1.397 . S
C2614 C2619 1.363 . S
C2615 H2586 0.950 . S
C2615 C2614 1.397 . S
C2615 C2616 1.334 . S
C2616 H2587 0.950 . S
C2616 C2615 1.334 . S
C2616 C2617 1.287 . S
C2617 C2616 1.287 . S
C2617 C2618 1.524 . S
C2617 H2620 0.999 . S
C2618 H2588 0.950 . S
C2618 C2617 1.524 . S
C2618 C2619 1.415 . S
C2619 H2589 0.950 . S
C2619 C2614 1.363 . S
C2619 C2618 1.415 . S
H2620 C2617 0.999 . S
H2621 C2602 0.913 . S
H2622 C2640 0.951 . S
H2623 C2642 0.951 . S
H2624 C2644 0.950 . S
H2625 C2645 0.950 . S
H2626 C2647 0.950 . S
H2627 C2650 0.950 . S
H2628 C2651 0.950 . S
H2629 C2653 0.950 . S
H2630 C2654 0.950 . S
H2631 C2655 0.951 . S
H2632 C2657 0.951 . S
H2633 C2659 0.950 . S
H2634 C2660 0.950 . S
H2635 C2662 0.950 . S
H2636 C2665 0.950 . S
H2637 C2666 0.950 . S
H2638 C2668 0.950 . S
H2639 C2669 0.950 . S
C2640 H2622 0.951 . S
C2640 C2641 1.366 . S
C2640 C2642 1.388 . S
C2641 C2640 1.366 . S
C2641 C2645 1.385 . S
C2642 H2623 0.951 . S
C2642 C2640 1.388 . S
C2642 C2643 1.366 . S
C2643 C2642 1.366 . S
C2643 C2644 1.414 . S
C2643 C2646 1.499 . S
C2644 H2624 0.950 . S
C2644 C2643 1.414 . S
C2644 C2645 1.374 . S
C2645 H2625 0.950 . S
C2645 C2641 1.385 . S
C2645 C2644 1.374 . S
C2646 C2643 1.499 . S
C2646 C2647 1.373 . S
C2646 C2648 1.389 . S
C2647 H2626 0.950 . S
C2647 C2646 1.373 . S
C2647 C2663 1.377 . S
C2648 C2646 1.389 . S
C2648 C2649 1.524 . S
C2648 C2662 1.377 . S
C2649 C2648 1.524 . S
C2649 C2650 1.397 . S
C2649 C2654 1.363 . S
C2650 H2627 0.950 . S
C2650 C2649 1.397 . S
C2650 C2651 1.334 . S
C2651 H2628 0.950 . S
C2651 C2650 1.334 . S
C2651 C2652 1.287 . S
C2652 C2651 1.287 . S
C2652 C2653 1.524 . S
C2652 H2671 0.913 . S
C2653 H2629 0.950 . S
C2653 C2652 1.524 . S
C2653 C2654 1.415 . S
C2654 H2630 0.950 . S
C2654 C2649 1.363 . S
C2654 C2653 1.415 . S
C2655 H2631 0.951 . S
C2655 C2656 1.366 . S
C2655 C2657 1.388 . S
C2656 C2655 1.366 . S
C2656 C2660 1.385 . S
C2657 H2632 0.951 . S
C2657 C2655 1.388 . S
C2657 C2658 1.366 . S
C2658 C2657 1.366 . S
C2658 C2659 1.414 . S
C2658 C2661 1.499 . S
C2659 H2633 0.950 . S
C2659 C2658 1.414 . S
C2659 C2660 1.374 . S
C2660 H2634 0.950 . S
C2660 C2656 1.385 . S
C2660 C2659 1.374 . S
C2661 C2658 1.499 . S
C2661 C2662 1.373 . S
C2661 C2663 1.389 . S
C2662 H2635 0.950 . S
C2662 C2648 1.377 . S
C2662 C2661 1.373 . S
C2663 C2647 1.377 . S
C2663 C2661 1.389 . S
C2663 C2664 1.524 . S
C2664 C2663 1.524 . S
C2664 C2665 1.397 . S
C2664 C2669 1.363 . S
C2665 H2636 0.950 . S
C2665 C2664 1.397 . S
C2665 C2666 1.334 . S
C2666 H2637 0.950 . S
C2666 C2665 1.334 . S
C2666 C2667 1.287 . S
C2667 C2666 1.287 . S
C2667 C2668 1.524 . S
C2667 H2670 0.999 . S
C2668 H2638 0.950 . S
C2668 C2667 1.524 . S
C2668 C2669 1.415 . S
C2669 H2639 0.950 . S
C2669 C2664 1.363 . S
C2669 C2668 1.415 . S
H2670 C2667 0.999 . S
H2671 C2652 0.913 . S
H2672 C2690 0.951 . S
H2673 C2692 0.951 . S
H2674 C2694 0.950 . S
H2675 C2695 0.950 . S
H2676 C2697 0.950 . S
H2677 C2700 0.950 . S
H2678 C2701 0.950 . S
H2679 C2703 0.950 . S
H2680 C2704 0.950 . S
H2681 C2705 0.951 . S
H2682 C2707 0.951 . S
H2683 C2709 0.950 . S
H2684 C2710 0.950 . S
H2685 C2712 0.950 . S
H2686 C2715 0.950 . S
H2687 C2716 0.950 . S
H2688 C2718 0.950 . S
H2689 C2719 0.950 . S
C2690 H2672 0.951 . S
C2690 C2691 1.366 . S
C2690 C2692 1.388 . S
C2691 C2690 1.366 . S
C2691 C2695 1.385 . S
C2692 H2673 0.951 . S
C2692 C2690 1.388 . S
C2692 C2693 1.366 . S
C2693 C2692 1.366 . S
C2693 C2694 1.414 . S
C2693 C2696 1.499 . S
C2694 H2674 0.950 . S
C2694 C2693 1.414 . S
C2694 C2695 1.374 . S
C2695 H2675 0.950 . S
C2695 C2691 1.385 . S
C2695 C2694 1.374 . S
C2696 C2693 1.499 . S
C2696 C2697 1.373 . S
C2696 C2698 1.389 . S
C2697 H2676 0.950 . S
C2697 C2696 1.373 . S
C2697 C2713 1.377 . S
C2698 C2696 1.389 . S
C2698 C2699 1.524 . S
C2698 C2712 1.377 . S
C2699 C2698 1.524 . S
C2699 C2700 1.397 . S
C2699 C2704 1.363 . S
C2700 H2677 0.950 . S
C2700 C2699 1.397 . S
C2700 C2701 1.334 . S
C2701 H2678 0.950 . S
C2701 C2700 1.334 . S
C2701 C2702 1.287 . S
C2702 C2701 1.287 . S
C2702 C2703 1.524 . S
C2702 H2721 0.913 . S
C2703 H2679 0.950 . S
C2703 C2702 1.524 . S
C2703 C2704 1.415 . S
C2704 H2680 0.950 . S
C2704 C2699 1.363 . S
C2704 C2703 1.415 . S
C2705 H2681 0.951 . S
C2705 C2706 1.366 . S
C2705 C2707 1.388 . S
C2706 C2705 1.366 . S
C2706 C2710 1.385 . S
C2707 H2682 0.951 . S
C2707 C2705 1.388 . S
C2707 C2708 1.366 . S
C2708 C2707 1.366 . S
C2708 C2709 1.414 . S
C2708 C2711 1.499 . S
C2709 H2683 0.950 . S
C2709 C2708 1.414 . S
C2709 C2710 1.374 . S
C2710 H2684 0.950 . S
C2710 C2706 1.385 . S
C2710 C2709 1.374 . S
C2711 C2708 1.499 . S
C2711 C2712 1.373 . S
C2711 C2713 1.389 . S
C2712 H2685 0.950 . S
C2712 C2698 1.377 . S
C2712 C2711 1.373 . S
C2713 C2697 1.377 . S
C2713 C2711 1.389 . S
C2713 C2714 1.524 . S
C2714 C2713 1.524 . S
C2714 C2715 1.397 . S
C2714 C2719 1.363 . S
C2715 H2686 0.950 . S
C2715 C2714 1.397 . S
C2715 C2716 1.334 . S
C2716 H2687 0.950 . S
C2716 C2715 1.334 . S
C2716 C2717 1.287 . S
C2717 C2716 1.287 . S
C2717 C2718 1.524 . S
C2717 H2720 0.999 . S
C2718 H2688 0.950 . S
C2718 C2717 1.524 . S
C2718 C2719 1.415 . S
C2719 H2689 0.950 . S
C2719 C2714 1.363 . S
C2719 C2718 1.415 . S
H2720 C2717 0.999 . S
H2721 C2702 0.913 . S
H2722 C2740 0.951 . S
H2723 C2742 0.951 . S
H2724 C2744 0.950 . S
H2725 C2745 0.950 . S
H2726 C2747 0.950 . S
H2727 C2750 0.950 . S
H2728 C2751 0.950 . S
H2729 C2753 0.950 . S
H2730 C2754 0.950 . S
H2731 C2755 0.951 . S
H2732 C2757 0.951 . S
H2733 C2759 0.950 . S
H2734 C2760 0.950 . S
H2735 C2762 0.950 . S
H2736 C2765 0.950 . S
H2737 C2766 0.950 . S
H2738 C2768 0.950 . S
H2739 C2769 0.950 . S
C2740 H2722 0.951 . S
C2740 C2741 1.366 . S
C2740 C2742 1.388 . S
C2741 C2740 1.366 . S
C2741 C2745 1.385 . S
C2742 H2723 0.951 . S
C2742 C2740 1.388 . S
C2742 C2743 1.366 . S
C2743 C2742 1.366 . S
C2743 C2744 1.414 . S
C2743 C2746 1.499 . S
C2744 H2724 0.950 . S
C2744 C2743 1.414 . S
C2744 C2745 1.374 . S
C2745 H2725 0.950 . S
C2745 C2741 1.385 . S
C2745 C2744 1.374 . S
C2746 C2743 1.499 . S
C2746 C2747 1.373 . S
C2746 C2748 1.389 . S
C2747 H2726 0.950 . S
C2747 C2746 1.373 . S
C2747 C2763 1.377 . S
C2748 C2746 1.389 . S
C2748 C2749 1.524 . S
C2748 C2762 1.377 . S
C2749 C2748 1.524 . S
C2749 C2750 1.397 . S
C2749 C2754 1.363 . S
C2750 H2727 0.950 . S
C2750 C2749 1.397 . S
C2750 C2751 1.334 . S
C2751 H2728 0.950 . S
C2751 C2750 1.334 . S
C2751 C2752 1.287 . S
C2752 C2751 1.287 . S
C2752 C2753 1.524 . S
C2752 H2771 0.913 . S
C2753 H2729 0.950 . S
C2753 C2752 1.524 . S
C2753 C2754 1.415 . S
C2754 H2730 0.950 . S
C2754 C2749 1.363 . S
C2754 C2753 1.415 . S
C2755 H2731 0.951 . S
C2755 C2756 1.366 . S
C2755 C2757 1.388 . S
C2756 C2755 1.366 . S
C2756 C2760 1.385 . S
C2757 H2732 0.951 . S
C2757 C2755 1.388 . S
C2757 C2758 1.366 . S
C2758 C2757 1.366 . S
C2758 C2759 1.414 . S
C2758 C2761 1.499 . S
C2759 H2733 0.950 . S
C2759 C2758 1.414 . S
C2759 C2760 1.374 . S
C2760 H2734 0.950 . S
C2760 C2756 1.385 . S
C2760 C2759 1.374 . S
C2761 C2758 1.499 . S
C2761 C2762 1.373 . S
C2761 C2763 1.389 . S
C2762 H2735 0.950 . S
C2762 C2748 1.377 . S
C2762 C2761 1.373 . S
C2763 C2747 1.377 . S
C2763 C2761 1.389 . S
C2763 C2764 1.524 . S
C2764 C2763 1.524 . S
C2764 C2765 1.397 . S
C2764 C2769 1.363 . S
C2765 H2736 0.950 . S
C2765 C2764 1.397 . S
C2765 C2766 1.334 . S
C2766 H2737 0.950 . S
C2766 C2765 1.334 . S
C2766 C2767 1.287 . S
C2767 C2766 1.287 . S
C2767 C2768 1.524 . S
C2767 H2770 0.999 . S
C2768 H2738 0.950 . S
C2768 C2767 1.524 . S
C2768 C2769 1.415 . S
C2769 H2739 0.950 . S
C2769 C2764 1.363 . S
C2769 C2768 1.415 . S
H2770 C2767 0.999 . S
H2771 C2752 0.913 . S
H2772 C2790 0.951 . S
H2773 C2792 0.951 . S
H2774 C2794 0.950 . S
H2775 C2795 0.950 . S
H2776 C2797 0.950 . S
H2777 C2800 0.950 . S
H2778 C2801 0.950 . S
H2779 C2803 0.950 . S
H2780 C2804 0.950 . S
H2781 C2805 0.951 . S
H2782 C2807 0.951 . S
H2783 C2809 0.950 . S
H2784 C2810 0.950 . S
H2785 C2812 0.950 . S
H2786 C2815 0.950 . S
H2787 C2816 0.950 . S
H2788 C2818 0.950 . S
H2789 C2819 0.950 . S
C2790 H2772 0.951 . S
C2790 C2791 1.366 . S
C2790 C2792 1.388 . S
C2791 C2790 1.366 . S
C2791 C2795 1.385 . S
C2792 H2773 0.951 . S
C2792 C2790 1.388 . S
C2792 C2793 1.366 . S
C2793 C2792 1.366 . S
C2793 C2794 1.414 . S
C2793 C2796 1.499 . S
C2794 H2774 0.950 . S
C2794 C2793 1.414 . S
C2794 C2795 1.374 . S
C2795 H2775 0.950 . S
C2795 C2791 1.385 . S
C2795 C2794 1.374 . S
C2796 C2793 1.499 . S
C2796 C2797 1.373 . S
C2796 C2798 1.389 . S
C2797 H2776 0.950 . S
C2797 C2796 1.373 . S
C2797 C2813 1.377 . S
C2798 C2796 1.389 . S
C2798 C2799 1.524 . S
C2798 C2812 1.377 . S
C2799 C2798 1.524 . S
C2799 C2800 1.397 . S
C2799 C2804 1.363 . S
C2800 H2777 0.950 . S
C2800 C2799 1.397 . S
C2800 C2801 1.334 . S
C2801 H2778 0.950 . S
C2801 C2800 1.334 . S
C2801 C2802 1.287 . S
C2802 C2801 1.287 . S
C2802 C2803 1.524 . S
C2802 H2821 0.913 . S
C2803 H2779 0.950 . S
C2803 C2802 1.524 . S
C2803 C2804 1.415 . S
C2804 H2780 0.950 . S
C2804 C2799 1.363 . S
C2804 C2803 1.415 . S
C2805 H2781 0.951 . S
C2805 C2806 1.366 . S
C2805 C2807 1.388 . S
C2806 C2805 1.366 . S
C2806 C2810 1.385 . S
C2807 H2782 0.951 . S
C2807 C2805 1.388 . S
C2807 C2808 1.366 . S
C2808 C2807 1.366 . S
C2808 C2809 1.414 . S
C2808 C2811 1.499 . S
C2809 H2783 0.950 . S
C2809 C2808 1.414 . S
C2809 C2810 1.374 . S
C2810 H2784 0.950 . S
C2810 C2806 1.385 . S
C2810 C2809 1.374 . S
C2811 C2808 1.499 . S
C2811 C2812 1.373 . S
C2811 C2813 1.389 . S
C2812 H2785 0.950 . S
C2812 C2798 1.377 . S
C2812 C2811 1.373 . S
C2813 C2797 1.377 . S
C2813 C2811 1.389 . S
C2813 C2814 1.524 . S
C2814 C2813 1.524 . S
C2814 C2815 1.397 . S
C2814 C2819 1.363 . S
C2815 H2786 0.950 . S
C2815 C2814 1.397 . S
C2815 C2816 1.334 . S
C2816 H2787 0.950 . S
C2816 C2815 1.334 . S
C2816 C2817 1.287 . S
C2817 C2816 1.287 . S
C2817 C2818 1.524 . S
C2817 H2820 0.999 . S
C2818 H2788 0.950 . S
C2818 C2817 1.524 . S
C2818 C2819 1.415 . S
C2819 H2789 0.950 . S
C2819 C2814 1.363 . S
C2819 C2818 1.415 . S
H2820 C2817 0.999 . S
H2821 C2802 0.913 . S
H2822 C2840 0.951 . S
H2823 C2842 0.951 . S
H2824 C2844 0.950 . S
H2825 C2845 0.950 . S
H2826 C2847 0.950 . S
H2827 C2850 0.950 . S
H2828 C2851 0.950 . S
H2829 C2853 0.950 . S
H2830 C2854 0.950 . S
H2831 C2855 0.951 . S
H2832 C2857 0.951 . S
H2833 C2859 0.950 . S
H2834 C2860 0.950 . S
H2835 C2862 0.950 . S
H2836 C2865 0.950 . S
H2837 C2866 0.950 . S
H2838 C2868 0.950 . S
H2839 C2869 0.950 . S
C2840 H2822 0.951 . S
C2840 C2841 1.366 . S
C2840 C2842 1.388 . S
C2841 C2840 1.366 . S
C2841 C2845 1.385 . S
C2842 H2823 0.951 . S
C2842 C2840 1.388 . S
C2842 C2843 1.366 . S
C2843 C2842 1.366 . S
C2843 C2844 1.414 . S
C2843 C2846 1.499 . S
C2844 H2824 0.950 . S
C2844 C2843 1.414 . S
C2844 C2845 1.374 . S
C2845 H2825 0.950 . S
C2845 C2841 1.385 . S
C2845 C2844 1.374 . S
C2846 C2843 1.499 . S
C2846 C2847 1.373 . S
C2846 C2848 1.389 . S
C2847 H2826 0.950 . S
C2847 C2846 1.373 . S
C2847 C2863 1.377 . S
C2848 C2846 1.389 . S
C2848 C2849 1.524 . S
C2848 C2862 1.377 . S
C2849 C2848 1.524 . S
C2849 C2850 1.397 . S
C2849 C2854 1.363 . S
C2850 H2827 0.950 . S
C2850 C2849 1.397 . S
C2850 C2851 1.334 . S
C2851 H2828 0.950 . S
C2851 C2850 1.334 . S
C2851 C2852 1.287 . S
C2852 C2851 1.287 . S
C2852 C2853 1.524 . S
C2852 H2871 0.913 . S
C2853 H2829 0.950 . S
C2853 C2852 1.524 . S
C2853 C2854 1.415 . S
C2854 H2830 0.950 . S
C2854 C2849 1.363 . S
C2854 C2853 1.415 . S
C2855 H2831 0.951 . S
C2855 C2856 1.366 . S
C2855 C2857 1.388 . S
C2856 C2855 1.366 . S
C2856 C2860 1.385 . S
C2857 H2832 0.951 . S
C2857 C2855 1.388 . S
C2857 C2858 1.366 . S
C2858 C2857 1.366 . S
C2858 C2859 1.414 . S
C2858 C2861 1.499 . S
C2859 H2833 0.950 . S
C2859 C2858 1.414 . S
C2859 C2860 1.374 . S
C2860 H2834 0.950 . S
C2860 C2856 1.385 . S
C2860 C2859 1.374 . S
C2861 C2858 1.499 . S
C2861 C2862 1.373 . S
C2861 C2863 1.389 . S
C2862 H2835 0.950 . S
C2862 C2848 1.377 . S
C2862 C2861 1.373 . S
C2863 C2847 1.377 . S
C2863 C2861 1.389 . S
C2863 C2864 1.524 . S
C2864 C2863 1.524 . S
C2864 C2865 1.397 . S
C2864 C2869 1.363 . S
C2865 H2836 0.950 . S
C2865 C2864 1.397 . S
C2865 C2866 1.334 . S
C2866 H2837 0.950 . S
C2866 C2865 1.334 . S
C2866 C2867 1.287 . S
C2867 C2866 1.287 . S
C2867 C2868 1.524 . S
C2867 H2870 0.999 . S
C2868 H2838 0.950 . S
C2868 C2867 1.524 . S
C2868 C2869 1.415 . S
C2869 H2839 0.950 . S
C2869 C2864 1.363 . S
C2869 C2868 1.415 . S
H2870 C2867 0.999 . S
H2871 C2852 0.913 . S
H2872 C2890 0.951 . S
H2873 C2892 0.951 . S
H2874 C2894 0.950 . S
H2875 C2895 0.950 . S
H2876 C2897 0.950 . S
H2877 C2900 0.950 . S
H2878 C2901 0.950 . S
H2879 C2903 0.950 . S
H2880 C2904 0.950 . S
H2881 C2905 0.951 . S
H2882 C2907 0.951 . S
H2883 C2909 0.950 . S
H2884 C2910 0.950 . S
H2885 C2912 0.950 . S
H2886 C2915 0.950 . S
H2887 C2916 0.950 . S
H2888 C2918 0.950 . S
H2889 C2919 0.950 . S
C2890 H2872 0.951 . S
C2890 C2891 1.366 . S
C2890 C2892 1.388 . S
C2891 C2890 1.366 . S
C2891 C2895 1.385 . S
C2892 H2873 0.951 . S
C2892 C2890 1.388 . S
C2892 C2893 1.366 . S
C2893 C2892 1.366 . S
C2893 C2894 1.414 . S
C2893 C2896 1.499 . S
C2894 H2874 0.950 . S
C2894 C2893 1.414 . S
C2894 C2895 1.374 . S
C2895 H2875 0.950 . S
C2895 C2891 1.385 . S
C2895 C2894 1.374 . S
C2896 C2893 1.499 . S
C2896 C2897 1.373 . S
C2896 C2898 1.389 . S
C2897 H2876 0.950 . S
C2897 C2896 1.373 . S
C2897 C2913 1.377 . S
C2898 C2896 1.389 . S
C2898 C2899 1.524 . S
C2898 C2912 1.377 . S
C2899 C2898 1.524 . S
C2899 C2900 1.397 . S
C2899 C2904 1.363 . S
C2900 H2877 0.950 . S
C2900 C2899 1.397 . S
C2900 C2901 1.334 . S
C2901 H2878 0.950 . S
C2901 C2900 1.334 . S
C2901 C2902 1.287 . S
C2902 C2901 1.287 . S
C2902 C2903 1.524 . S
C2902 H2921 0.913 . S
C2903 H2879 0.950 . S
C2903 C2902 1.524 . S
C2903 C2904 1.415 . S
C2904 H2880 0.950 . S
C2904 C2899 1.363 . S
C2904 C2903 1.415 . S
C2905 H2881 0.951 . S
C2905 C2906 1.366 . S
C2905 C2907 1.388 . S
C2906 C2905 1.366 . S
C2906 C2910 1.385 . S
C2907 H2882 0.951 . S
C2907 C2905 1.388 . S
C2907 C2908 1.366 . S
C2908 C2907 1.366 . S
C2908 C2909 1.414 . S
C2908 C2911 1.499 . S
C2909 H2883 0.950 . S
C2909 C2908 1.414 . S
C2909 C2910 1.374 . S
C2910 H2884 0.950 . S
C2910 C2906 1.385 . S
C2910 C2909 1.374 . S
C2911 C2908 1.499 . S
C2911 C2912 1.373 . S
C2911 C2913 1.389 . S
C2912 H2885 0.950 . S
C2912 C2898 1.377 . S
C2912 C2911 1.373 . S
C2913 C2897 1.377 . S
C2913 C2911 1.389 . S
C2913 C2914 1.524 . S
C2914 C2913 1.524 . S
C2914 C2915 1.397 . S
C2914 C2919 1.363 . S
C2915 H2886 0.950 . S
C2915 C2914 1.397 . S
C2915 C2916 1.334 . S
C2916 H2887 0.950 . S
C2916 C2915 1.334 . S
C2916 C2917 1.287 . S
C2917 C2916 1.287 . S
C2917 C2918 1.524 . S
C2917 H2920 0.999 . S
C2918 H2888 0.950 . S
C2918 C2917 1.524 . S
C2918 C2919 1.415 . S
C2919 H2889 0.950 . S
C2919 C2914 1.363 . S
C2919 C2918 1.415 . S
H2920 C2917 0.999 . S
H2921 C2902 0.913 . S
H2922 C2940 0.951 . S
H2923 C2942 0.951 . S
H2924 C2944 0.950 . S
H2925 C2945 0.950 . S
H2926 C2947 0.950 . S
H2927 C2950 0.950 . S
H2928 C2951 0.950 . S
H2929 C2953 0.950 . S
H2930 C2954 0.950 . S
H2931 C2955 0.951 . S
H2932 C2957 0.951 . S
H2933 C2959 0.950 . S
H2934 C2960 0.950 . S
H2935 C2962 0.950 . S
H2936 C2965 0.950 . S
H2937 C2966 0.950 . S
H2938 C2968 0.950 . S
H2939 C2969 0.950 . S
C2940 H2922 0.951 . S
C2940 C2941 1.366 . S
C2940 C2942 1.388 . S
C2941 C2940 1.366 . S
C2941 C2945 1.385 . S
C2942 H2923 0.951 . S
C2942 C2940 1.388 . S
C2942 C2943 1.366 . S
C2943 C2942 1.366 . S
C2943 C2944 1.414 . S
C2943 C2946 1.499 . S
C2944 H2924 0.950 . S
C2944 C2943 1.414 . S
C2944 C2945 1.374 . S
C2945 H2925 0.950 . S
C2945 C2941 1.385 . S
C2945 C2944 1.374 . S
C2946 C2943 1.499 . S
C2946 C2947 1.373 . S
C2946 C2948 1.389 . S
C2947 H2926 0.950 . S
C2947 C2946 1.373 . S
C2947 C2963 1.377 . S
C2948 C2946 1.389 . S
C2948 C2949 1.524 . S
C2948 C2962 1.377 . S
C2949 C2948 1.524 . S
C2949 C2950 1.397 . S
C2949 C2954 1.363 . S
C2950 H2927 0.950 . S
C2950 C2949 1.397 . S
C2950 C2951 1.334 . S
C2951 H2928 0.950 . S
C2951 C2950 1.334 . S
C2951 C2952 1.287 . S
C2952 C2951 1.287 . S
C2952 C2953 1.524 . S
C2952 H2971 0.913 . S
C2953 H2929 0.950 . S
C2953 C2952 1.524 . S
C2953 C2954 1.415 . S
C2954 H2930 0.950 . S
C2954 C2949 1.363 . S
C2954 C2953 1.415 . S
C2955 H2931 0.951 . S
C2955 C2956 1.366 . S
C2955 C2957 1.388 . S
C2956 C2955 1.366 . S
C2956 C2960 1.385 . S
C2957 H2932 0.951 . S
C2957 C2955 1.388 . S
C2957 C2958 1.366 . S
C2958 C2957 1.366 . S
C2958 C2959 1.414 . S
C2958 C2961 1.499 . S
C2959 H2933 0.950 . S
C2959 C2958 1.414 . S
C2959 C2960 1.374 . S
C2960 H2934 0.950 . S
C2960 C2956 1.385 . S
C2960 C2959 1.374 . S
C2961 C2958 1.499 . S
C2961 C2962 1.373 . S
C2961 C2963 1.389 . S
C2962 H2935 0.950 . S
C2962 C2948 1.377 . S
C2962 C2961 1.373 . S
C2963 C2947 1.377 . S
C2963 C2961 1.389 . S
C2963 C2964 1.524 . S
C2964 C2963 1.524 . S
C2964 C2965 1.397 . S
C2964 C2969 1.363 . S
C2965 H2936 0.950 . S
C2965 C2964 1.397 . S
C2965 C2966 1.334 . S
C2966 H2937 0.950 . S
C2966 C2965 1.334 . S
C2966 C2967 1.287 . S
C2967 C2966 1.287 . S
C2967 C2968 1.524 . S
C2967 H2970 0.999 . S
C2968 H2938 0.950 . S
C2968 C2967 1.524 . S
C2968 C2969 1.415 . S
C2969 H2939 0.950 . S
C2969 C2964 1.363 . S
C2969 C2968 1.415 . S
H2970 C2967 0.999 . S
H2971 C2952 0.913 . S
H2972 C2990 0.951 . S
H2973 C2992 0.951 . S
H2974 C2994 0.950 . S
H2975 C2995 0.950 . S
H2976 C2997 0.950 . S
H2977 C3000 0.950 . S
H2978 C3001 0.950 . S
H2979 C3003 0.950 . S
H2980 C3004 0.950 . S
H2981 C3005 0.951 . S
H2982 C3007 0.951 . S
H2983 C3009 0.950 . S
H2984 C3010 0.950 . S
H2985 C3012 0.950 . S
H2986 C3015 0.950 . S
H2987 C3016 0.950 . S
H2988 C3018 0.950 . S
H2989 C3019 0.950 . S
C2990 H2972 0.951 . S
C2990 C2991 1.366 . S
C2990 C2992 1.388 . S
C2991 C2990 1.366 . S
C2991 C2995 1.385 . S
C2992 H2973 0.951 . S
C2992 C2990 1.388 . S
C2992 C2993 1.366 . S
C2993 C2992 1.366 . S
C2993 C2994 1.414 . S
C2993 C2996 1.499 . S
C2994 H2974 0.950 . S
C2994 C2993 1.414 . S
C2994 C2995 1.374 . S
C2995 H2975 0.950 . S
C2995 C2991 1.385 . S
C2995 C2994 1.374 . S
C2996 C2993 1.499 . S
C2996 C2997 1.373 . S
C2996 C2998 1.389 . S
C2997 H2976 0.950 . S
C2997 C2996 1.373 . S
C2997 C3013 1.377 . S
C2998 C2996 1.389 . S
C2998 C2999 1.524 . S
C2998 C3012 1.377 . S
C2999 C2998 1.524 . S
C2999 C3000 1.397 . S
C2999 C3004 1.363 . S
C3000 H2977 0.950 . S
C3000 C2999 1.397 . S
C3000 C3001 1.334 . S
C3001 H2978 0.950 . S
C3001 C3000 1.334 . S
C3001 C3002 1.287 . S
C3002 C3001 1.287 . S
C3002 C3003 1.524 . S
C3002 H3021 0.913 . S
C3003 H2979 0.950 . S
C3003 C3002 1.524 . S
C3003 C3004 1.415 . S
C3004 H2980 0.950 . S
C3004 C2999 1.363 . S
C3004 C3003 1.415 . S
C3005 H2981 0.951 . S
C3005 C3006 1.366 . S
C3005 C3007 1.388 . S
C3006 C3005 1.366 . S
C3006 C3010 1.385 . S
C3007 H2982 0.951 . S
C3007 C3005 1.388 . S
C3007 C3008 1.366 . S
C3008 C3007 1.366 . S
C3008 C3009 1.414 . S
C3008 C3011 1.499 . S
C3009 H2983 0.950 . S
C3009 C3008 1.414 . S
C3009 C3010 1.374 . S
C3010 H2984 0.950 . S
C3010 C3006 1.385 . S
C3010 C3009 1.374 . S
C3011 C3008 1.499 . S
C3011 C3012 1.373 . S
C3011 C3013 1.389 . S
C3012 H2985 0.950 . S
C3012 C2998 1.377 . S
C3012 C3011 1.373 . S
C3013 C2997 1.377 . S
C3013 C3011 1.389 . S
C3013 C3014 1.524 . S
C3014 C3013 1.524 . S
C3014 C3015 1.397 . S
C3014 C3019 1.363 . S
C3015 H2986 0.950 . S
C3015 C3014 1.397 . S
C3015 C3016 1.334 . S
C3016 H2987 0.950 . S
C3016 C3015 1.334 . S
C3016 C3017 1.287 . S
C3017 C3016 1.287 . S
C3017 C3018 1.524 . S
C3017 H3020 0.999 . S
C3018 H2988 0.950 . S
C3018 C3017 1.524 . S
C3018 C3019 1.415 . S
C3019 H2989 0.950 . S
C3019 C3014 1.363 . S
C3019 C3018 1.415 . S
H3020 C3017 0.999 . S
H3021 C3002 0.913 . S
H3022 C3040 0.951 . S
H3023 C3042 0.951 . S
H3024 C3044 0.950 . S
H3025 C3045 0.950 . S
H3026 C3047 0.950 . S
H3027 C3050 0.950 . S
H3028 C3051 0.950 . S
H3029 C3053 0.950 . S
H3030 C3054 0.950 . S
H3031 C3055 0.951 . S
H3032 C3057 0.951 . S
H3033 C3059 0.950 . S
H3034 C3060 0.950 . S
H3035 C3062 0.950 . S
H3036 C3065 0.950 . S
H3037 C3066 0.950 . S
H3038 C3068 0.950 . S
H3039 C3069 0.950 . S
C3040 H3022 0.951 . S
C3040 C3041 1.366 . S
C3040 C3042 1.388 . S
C3041 C3040 1.366 . S
C3041 C3045 1.385 . S
C3042 H3023 0.951 . S
C3042 C3040 1.388 . S
C3042 C3043 1.366 . S
C3043 C3042 1.366 . S
C3043 C3044 1.414 . S
C3043 C3046 1.499 . S
C3044 H3024 0.950 . S
C3044 C3043 1.414 . S
C3044 C3045 1.374 . S
C3045 H3025 0.950 . S
C3045 C3041 1.385 . S
C3045 C3044 1.374 . S
C3046 C3043 1.499 . S
C3046 C3047 1.373 . S
C3046 C3048 1.389 . S
C3047 H3026 0.950 . S
C3047 C3046 1.373 . S
C3047 C3063 1.377 . S
C3048 C3046 1.389 . S
C3048 C3049 1.524 . S
C3048 C3062 1.377 . S
C3049 C3048 1.524 . S
C3049 C3050 1.397 . S
C3049 C3054 1.363 . S
C3050 H3027 0.950 . S
C3050 C3049 1.397 . S
C3050 C3051 1.334 . S
C3051 H3028 0.950 . S
C3051 C3050 1.334 . S
C3051 C3052 1.287 . S
C3052 C3051 1.287 . S
C3052 C3053 1.524 . S
C3052 H3071 0.913 . S
C3053 H3029 0.950 . S
C3053 C3052 1.524 . S
C3053 C3054 1.415 . S
C3054 H3030 0.950 . S
C3054 C3049 1.363 . S
C3054 C3053 1.415 . S
C3055 H3031 0.951 . S
C3055 C3056 1.366 . S
C3055 C3057 1.388 . S
C3056 C3055 1.366 . S
C3056 C3060 1.385 . S
C3057 H3032 0.951 . S
C3057 C3055 1.388 . S
C3057 C3058 1.366 . S
C3058 C3057 1.366 . S
C3058 C3059 1.414 . S
C3058 C3061 1.499 . S
C3059 H3033 0.950 . S
C3059 C3058 1.414 . S
C3059 C3060 1.374 . S
C3060 H3034 0.950 . S
C3060 C3056 1.385 . S
C3060 C3059 1.374 . S
C3061 C3058 1.499 . S
C3061 C3062 1.373 . S
C3061 C3063 1.389 . S
C3062 H3035 0.950 . S
C3062 C3048 1.377 . S
C3062 C3061 1.373 . S
C3063 C3047 1.377 . S
C3063 C3061 1.389 . S
C3063 C3064 1.524 . S
C3064 C3063 1.524 . S
C3064 C3065 1.397 . S
C3064 C3069 1.363 . S
C3065 H3036 0.950 . S
C3065 C3064 1.397 . S
C3065 C3066 1.334 . S
C3066 H3037 0.950 . S
C3066 C3065 1.334 . S
C3066 C3067 1.287 . S
C3067 C3066 1.287 . S
C3067 C3068 1.524 . S
C3067 H3070 0.999 . S
C3068 H3038 0.950 . S
C3068 C3067 1.524 . S
C3068 C3069 1.415 . S
C3069 H3039 0.950 . S
C3069 C3064 1.363 . S
C3069 C3068 1.415 . S
H3070 C3067 0.999 . S
H3071 C3052 0.913 . S
H3072 C3090 0.951 . S
H3073 C3092 0.951 . S
H3074 C3094 0.950 . S
H3075 C3095 0.950 . S
H3076 C3097 0.950 . S
H3077 C3100 0.950 . S
H3078 C3101 0.950 . S
H3079 C3103 0.950 . S
H3080 C3104 0.950 . S
H3081 C3105 0.951 . S
H3082 C3107 0.951 . S
H3083 C3109 0.950 . S
H3084 C3110 0.950 . S
H3085 C3112 0.950 . S
H3086 C3115 0.950 . S
H3087 C3116 0.950 . S
H3088 C3118 0.950 . S
H3089 C3119 0.950 . S
C3090 H3072 0.951 . S
C3090 C3091 1.366 . S
C3090 C3092 1.388 . S
C3091 C3090 1.366 . S
C3091 C3095 1.385 . S
C3092 H3073 0.951 . S
C3092 C3090 1.388 . S
C3092 C3093 1.366 . S
C3093 C3092 1.366 . S
C3093 C3094 1.414 . S
C3093 C3096 1.499 . S
C3094 H3074 0.950 . S
C3094 C3093 1.414 . S
C3094 C3095 1.374 . S
C3095 H3075 0.950 . S
C3095 C3091 1.385 . S
C3095 C3094 1.374 . S
C3096 C3093 1.499 . S
C3096 C3097 1.373 . S
C3096 C3098 1.389 . S
C3097 H3076 0.950 . S
C3097 C3096 1.373 . S
C3097 C3113 1.377 . S
C3098 C3096 1.389 . S
C3098 C3099 1.524 . S
C3098 C3112 1.377 . S
C3099 C3098 1.524 . S
C3099 C3100 1.397 . S
C3099 C3104 1.363 . S
C3100 H3077 0.950 . S
C3100 C3099 1.397 . S
C3100 C3101 1.334 . S
C3101 H3078 0.950 . S
C3101 C3100 1.334 . S
C3101 C3102 1.287 . S
C3102 C3101 1.287 . S
C3102 C3103 1.524 . S
C3102 H3121 0.913 . S
C3103 H3079 0.950 . S
C3103 C3102 1.524 . S
C3103 C3104 1.415 . S
C3104 H3080 0.950 . S
C3104 C3099 1.363 . S
C3104 C3103 1.415 . S
C3105 H3081 0.951 . S
C3105 C3106 1.366 . S
C3105 C3107 1.388 . S
C3106 C3105 1.366 . S
C3106 C3110 1.385 . S
C3107 H3082 0.951 . S
C3107 C3105 1.388 . S
C3107 C3108 1.366 . S
C3108 C3107 1.366 . S
C3108 C3109 1.414 . S
C3108 C3111 1.499 . S
C3109 H3083 0.950 . S
C3109 C3108 1.414 . S
C3109 C3110 1.374 . S
C3110 H3084 0.950 . S
C3110 C3106 1.385 . S
C3110 C3109 1.374 . S
C3111 C3108 1.499 . S
C3111 C3112 1.373 . S
C3111 C3113 1.389 . S
C3112 H3085 0.950 . S
C3112 C3098 1.377 . S
C3112 C3111 1.373 . S
C3113 C3097 1.377 . S
C3113 C3111 1.389 . S
C3113 C3114 1.524 . S
C3114 C3113 1.524 . S
C3114 C3115 1.397 . S
C3114 C3119 1.363 . S
C3115 H3086 0.950 . S
C3115 C3114 1.397 . S
C3115 C3116 1.334 . S
C3116 H3087 0.950 . S
C3116 C3115 1.334 . S
C3116 C3117 1.287 . S
C3117 C3116 1.287 . S
C3117 C3118 1.524 . S
C3117 H3120 0.999 . S
C3118 H3088 0.950 . S
C3118 C3117 1.524 . S
C3118 C3119 1.415 . S
C3119 H3089 0.950 . S
C3119 C3114 1.363 . S
C3119 C3118 1.415 . S
H3120 C3117 0.999 . S
H3121 C3102 0.913 . S
H3122 C3140 0.951 . S
H3123 C3142 0.951 . S
H3124 C3144 0.950 . S
H3125 C3145 0.950 . S
H3126 C3147 0.950 . S
H3127 C3150 0.950 . S
H3128 C3151 0.950 . S
H3129 C3153 0.950 . S
H3130 C3154 0.950 . S
H3131 C3155 0.951 . S
H3132 C3157 0.951 . S
H3133 C3159 0.950 . S
H3134 C3160 0.950 . S
H3135 C3162 0.950 . S
H3136 C3165 0.950 . S
H3137 C3166 0.950 . S
H3138 C3168 0.950 . S
H3139 C3169 0.950 . S
C3140 H3122 0.951 . S
C3140 C3141 1.366 . S
C3140 C3142 1.388 . S
C3141 C3140 1.366 . S
C3141 C3145 1.385 . S
C3142 H3123 0.951 . S
C3142 C3140 1.388 . S
C3142 C3143 1.366 . S
C3143 C3142 1.366 . S
C3143 C3144 1.414 . S
C3143 C3146 1.499 . S
C3144 H3124 0.950 . S
C3144 C3143 1.414 . S
C3144 C3145 1.374 . S
C3145 H3125 0.950 . S
C3145 C3141 1.385 . S
C3145 C3144 1.374 . S
C3146 C3143 1.499 . S
C3146 C3147 1.373 . S
C3146 C3148 1.389 . S
C3147 H3126 0.950 . S
C3147 C3146 1.373 . S
C3147 C3163 1.377 . S
C3148 C3146 1.389 . S
C3148 C3149 1.524 . S
C3148 C3162 1.377 . S
C3149 C3148 1.524 . S
C3149 C3150 1.397 . S
C3149 C3154 1.363 . S
C3150 H3127 0.950 . S
C3150 C3149 1.397 . S
C3150 C3151 1.334 . S
C3151 H3128 0.950 . S
C3151 C3150 1.334 . S
C3151 C3152 1.287 . S
C3152 C3151 1.287 . S
C3152 C3153 1.524 . S
C3152 H3171 0.913 . S
C3153 H3129 0.950 . S
C3153 C3152 1.524 . S
C3153 C3154 1.415 . S
C3154 H3130 0.950 . S
C3154 C3149 1.363 . S
C3154 C3153 1.415 . S
C3155 H3131 0.951 . S
C3155 C3156 1.366 . S
C3155 C3157 1.388 . S
C3156 C3155 1.366 . S
C3156 C3160 1.385 . S
C3157 H3132 0.951 . S
C3157 C3155 1.388 . S
C3157 C3158 1.366 . S
C3158 C3157 1.366 . S
C3158 C3159 1.414 . S
C3158 C3161 1.499 . S
C3159 H3133 0.950 . S
C3159 C3158 1.414 . S
C3159 C3160 1.374 . S
C3160 H3134 0.950 . S
C3160 C3156 1.385 . S
C3160 C3159 1.374 . S
C3161 C3158 1.499 . S
C3161 C3162 1.373 . S
C3161 C3163 1.389 . S
C3162 H3135 0.950 . S
C3162 C3148 1.377 . S
C3162 C3161 1.373 . S
C3163 C3147 1.377 . S
C3163 C3161 1.389 . S
C3163 C3164 1.524 . S
C3164 C3163 1.524 . S
C3164 C3165 1.397 . S
C3164 C3169 1.363 . S
C3165 H3136 0.950 . S
C3165 C3164 1.397 . S
C3165 C3166 1.334 . S
C3166 H3137 0.950 . S
C3166 C3165 1.334 . S
C3166 C3167 1.287 . S
C3167 C3166 1.287 . S
C3167 C3168 1.524 . S
C3167 H3170 0.999 . S
C3168 H3138 0.950 . S
C3168 C3167 1.524 . S
C3168 C3169 1.415 . S
C3169 H3139 0.950 . S
C3169 C3164 1.363 . S
C3169 C3168 1.415 . S
H3170 C3167 0.999 . S
H3171 C3152 0.913 . S
H3172 C3190 0.951 . S
H3173 C3192 0.951 . S
H3174 C3194 0.950 . S
H3175 C3195 0.950 . S
H3176 C3197 0.950 . S
H3177 C3200 0.950 . S
H3178 C3201 0.950 . S
H3179 C3203 0.950 . S
H3180 C3204 0.950 . S
H3181 C3205 0.951 . S
H3182 C3207 0.951 . S
H3183 C3209 0.950 . S
H3184 C3210 0.950 . S
H3185 C3212 0.950 . S
H3186 C3215 0.950 . S
H3187 C3216 0.950 . S
H3188 C3218 0.950 . S
H3189 C3219 0.950 . S
C3190 H3172 0.951 . S
C3190 C3191 1.366 . S
C3190 C3192 1.388 . S
C3191 C3190 1.366 . S
C3191 C3195 1.385 . S
C3192 H3173 0.951 . S
C3192 C3190 1.388 . S
C3192 C3193 1.366 . S
C3193 C3192 1.366 . S
C3193 C3194 1.414 . S
C3193 C3196 1.499 . S
C3194 H3174 0.950 . S
C3194 C3193 1.414 . S
C3194 C3195 1.374 . S
C3195 H3175 0.950 . S
C3195 C3191 1.385 . S
C3195 C3194 1.374 . S
C3196 C3193 1.499 . S
C3196 C3197 1.373 . S
C3196 C3198 1.389 . S
C3197 H3176 0.950 . S
C3197 C3196 1.373 . S
C3197 C3213 1.377 . S
C3198 C3196 1.389 . S
C3198 C3199 1.524 . S
C3198 C3212 1.377 . S
C3199 C3198 1.524 . S
C3199 C3200 1.397 . S
C3199 C3204 1.363 . S
C3200 H3177 0.950 . S
C3200 C3199 1.397 . S
C3200 C3201 1.334 . S
C3201 H3178 0.950 . S
C3201 C3200 1.334 . S
C3201 C3202 1.287 . S
C3202 C3201 1.287 . S
C3202 C3203 1.524 . S
C3202 H3221 0.913 . S
C3203 H3179 0.950 . S
C3203 C3202 1.524 . S
C3203 C3204 1.415 . S
C3204 H3180 0.950 . S
C3204 C3199 1.363 . S
C3204 C3203 1.415 . S
C3205 H3181 0.951 . S
C3205 C3206 1.366 . S
C3205 C3207 1.388 . S
C3206 C3205 1.366 . S
C3206 C3210 1.385 . S
C3207 H3182 0.951 . S
C3207 C3205 1.388 . S
C3207 C3208 1.366 . S
C3208 C3207 1.366 . S
C3208 C3209 1.414 . S
C3208 C3211 1.499 . S
C3209 H3183 0.950 . S
C3209 C3208 1.414 . S
C3209 C3210 1.374 . S
C3210 H3184 0.950 . S
C3210 C3206 1.385 . S
C3210 C3209 1.374 . S
C3211 C3208 1.499 . S
C3211 C3212 1.373 . S
C3211 C3213 1.389 . S
C3212 H3185 0.950 . S
C3212 C3198 1.377 . S
C3212 C3211 1.373 . S
C3213 C3197 1.377 . S
C3213 C3211 1.389 . S
C3213 C3214 1.524 . S
C3214 C3213 1.524 . S
C3214 C3215 1.397 . S
C3214 C3219 1.363 . S
C3215 H3186 0.950 . S
C3215 C3214 1.397 . S
C3215 C3216 1.334 . S
C3216 H3187 0.950 . S
C3216 C3215 1.334 . S
C3216 C3217 1.287 . S
C3217 C3216 1.287 . S
C3217 C3218 1.524 . S
C3217 H3220 0.999 . S
C3218 H3188 0.950 . S
C3218 C3217 1.524 . S
C3218 C3219 1.415 . S
C3219 H3189 0.950 . S
C3219 C3214 1.363 . S
C3219 C3218 1.415 . S
H3220 C3217 0.999 . S
H3221 C3202 0.913 . S
H3222 C3240 0.951 . S
H3223 C3242 0.951 . S
H3224 C3244 0.950 . S
H3225 C3245 0.950 . S
H3226 C3247 0.950 . S
H3227 C3250 0.950 . S
H3228 C3251 0.950 . S
H3229 C3253 0.950 . S
H3230 C3254 0.950 . S
H3231 C3255 0.951 . S
H3232 C3257 0.951 . S
H3233 C3259 0.950 . S
H3234 C3260 0.950 . S
H3235 C3262 0.950 . S
H3236 C3265 0.950 . S
H3237 C3266 0.950 . S
H3238 C3268 0.950 . S
H3239 C3269 0.950 . S
C3240 H3222 0.951 . S
C3240 C3241 1.366 . S
C3240 C3242 1.388 . S
C3241 C3240 1.366 . S
C3241 C3245 1.385 . S
C3242 H3223 0.951 . S
C3242 C3240 1.388 . S
C3242 C3243 1.366 . S
C3243 C3242 1.366 . S
C3243 C3244 1.414 . S
C3243 C3246 1.499 . S
C3244 H3224 0.950 . S
C3244 C3243 1.414 . S
C3244 C3245 1.374 . S
C3245 H3225 0.950 . S
C3245 C3241 1.385 . S
C3245 C3244 1.374 . S
C3246 C3243 1.499 . S
C3246 C3247 1.373 . S
C3246 C3248 1.389 . S
C3247 H3226 0.950 . S
C3247 C3246 1.373 . S
C3247 C3263 1.377 . S
C3248 C3246 1.389 . S
C3248 C3249 1.524 . S
C3248 C3262 1.377 . S
C3249 C3248 1.524 . S
C3249 C3250 1.397 . S
C3249 C3254 1.363 . S
C3250 H3227 0.950 . S
C3250 C3249 1.397 . S
C3250 C3251 1.334 . S
C3251 H3228 0.950 . S
C3251 C3250 1.334 . S
C3251 C3252 1.287 . S
C3252 C3251 1.287 . S
C3252 C3253 1.524 . S
C3252 H3271 0.913 . S
C3253 H3229 0.950 . S
C3253 C3252 1.524 . S
C3253 C3254 1.415 . S
C3254 H3230 0.950 . S
C3254 C3249 1.363 . S
C3254 C3253 1.415 . S
C3255 H3231 0.951 . S
C3255 C3256 1.366 . S
C3255 C3257 1.388 . S
C3256 C3255 1.366 . S
C3256 C3260 1.385 . S
C3257 H3232 0.951 . S
C3257 C3255 1.388 . S
C3257 C3258 1.366 . S
C3258 C3257 1.366 . S
C3258 C3259 1.414 . S
C3258 C3261 1.499 . S
C3259 H3233 0.950 . S
C3259 C3258 1.414 . S
C3259 C3260 1.374 . S
C3260 H3234 0.950 . S
C3260 C3256 1.385 . S
C3260 C3259 1.374 . S
C3261 C3258 1.499 . S
C3261 C3262 1.373 . S
C3261 C3263 1.389 . S
C3262 H3235 0.950 . S
C3262 C3248 1.377 . S
C3262 C3261 1.373 . S
C3263 C3247 1.377 . S
C3263 C3261 1.389 . S
C3263 C3264 1.524 . S
C3264 C3263 1.524 . S
C3264 C3265 1.397 . S
C3264 C3269 1.363 . S
C3265 H3236 0.950 . S
C3265 C3264 1.397 . S
C3265 C3266 1.334 . S
C3266 H3237 0.950 . S
C3266 C3265 1.334 . S
C3266 C3267 1.287 . S
C3267 C3266 1.287 . S
C3267 C3268 1.524 . S
C3267 H3270 0.999 . S
C3268 H3238 0.950 . S
C3268 C3267 1.524 . S
C3268 C3269 1.415 . S
C3269 H3239 0.950 . S
C3269 C3264 1.363 . S
C3269 C3268 1.415 . S
H3270 C3267 0.999 . S
H3271 C3252 0.913 . S
H3272 C3290 0.951 . S
H3273 C3292 0.951 . S
H3274 C3294 0.950 . S
H3275 C3295 0.950 . S
H3276 C3297 0.950 . S
H3277 C3300 0.950 . S
H3278 C3301 0.950 . S
H3279 C3303 0.950 . S
H3280 C3304 0.950 . S
H3281 C3305 0.951 . S
H3282 C3307 0.951 . S
H3283 C3309 0.950 . S
H3284 C3310 0.950 . S
H3285 C3312 0.950 . S
H3286 C3315 0.950 . S
H3287 C3316 0.950 . S
H3288 C3318 0.950 . S
H3289 C3319 0.950 . S
C3290 H3272 0.951 . S
C3290 C3291 1.366 . S
C3290 C3292 1.388 . S
C3291 C3290 1.366 . S
C3291 C3295 1.385 . S
C3292 H3273 0.951 . S
C3292 C3290 1.388 . S
C3292 C3293 1.366 . S
C3293 C3292 1.366 . S
C3293 C3294 1.414 . S
C3293 C3296 1.499 . S
C3294 H3274 0.950 . S
C3294 C3293 1.414 . S
C3294 C3295 1.374 . S
C3295 H3275 0.950 . S
C3295 C3291 1.385 . S
C3295 C3294 1.374 . S
C3296 C3293 1.499 . S
C3296 C3297 1.373 . S
C3296 C3298 1.389 . S
C3297 H3276 0.950 . S
C3297 C3296 1.373 . S
C3297 C3313 1.377 . S
C3298 C3296 1.389 . S
C3298 C3299 1.524 . S
C3298 C3312 1.377 . S
C3299 C3298 1.524 . S
C3299 C3300 1.397 . S
C3299 C3304 1.363 . S
C3300 H3277 0.950 . S
C3300 C3299 1.397 . S
C3300 C3301 1.334 . S
C3301 H3278 0.950 . S
C3301 C3300 1.334 . S
C3301 C3302 1.287 . S
C3302 C3301 1.287 . S
C3302 C3303 1.524 . S
C3302 H3321 0.913 . S
C3303 H3279 0.950 . S
C3303 C3302 1.524 . S
C3303 C3304 1.415 . S
C3304 H3280 0.950 . S
C3304 C3299 1.363 . S
C3304 C3303 1.415 . S
C3305 H3281 0.951 . S
C3305 C3306 1.366 . S
C3305 C3307 1.388 . S
C3306 C3305 1.366 . S
C3306 C3310 1.385 . S
C3307 H3282 0.951 . S
C3307 C3305 1.388 . S
C3307 C3308 1.366 . S
C3308 C3307 1.366 . S
C3308 C3309 1.414 . S
C3308 C3311 1.499 . S
C3309 H3283 0.950 . S
C3309 C3308 1.414 . S
C3309 C3310 1.374 . S
C3310 H3284 0.950 . S
C3310 C3306 1.385 . S
C3310 C3309 1.374 . S
C3311 C3308 1.499 . S
C3311 C3312 1.373 . S
C3311 C3313 1.389 . S
C3312 H3285 0.950 . S
C3312 C3298 1.377 . S
C3312 C3311 1.373 . S
C3313 C3297 1.377 . S
C3313 C3311 1.389 . S
C3313 C3314 1.524 . S
C3314 C3313 1.524 . S
C3314 C3315 1.397 . S
C3314 C3319 1.363 . S
C3315 H3286 0.950 . S
C3315 C3314 1.397 . S
C3315 C3316 1.334 . S
C3316 H3287 0.950 . S
C3316 C3315 1.334 . S
C3316 C3317 1.287 . S
C3317 C3316 1.287 . S
C3317 C3318 1.524 . S
C3317 H3320 0.999 . S
C3318 H3288 0.950 . S
C3318 C3317 1.524 . S
C3318 C3319 1.415 . S
C3319 H3289 0.950 . S
C3319 C3314 1.363 . S
C3319 C3318 1.415 . S
H3320 C3317 0.999 . S
H3321 C3302 0.913 . S
H3322 C3340 0.951 . S
H3323 C3342 0.951 . S
H3324 C3344 0.950 . S
H3325 C3345 0.950 . S
H3326 C3347 0.950 . S
H3327 C3350 0.950 . S
H3328 C3351 0.950 . S
H3329 C3353 0.950 . S
H3330 C3354 0.950 . S
H3331 C3355 0.951 . S
H3332 C3357 0.951 . S
H3333 C3359 0.950 . S
H3334 C3360 0.950 . S
H3335 C3362 0.950 . S
H3336 C3365 0.950 . S
H3337 C3366 0.950 . S
H3338 C3368 0.950 . S
H3339 C3369 0.950 . S
C3340 H3322 0.951 . S
C3340 C3341 1.366 . S
C3340 C3342 1.388 . S
C3341 C3340 1.366 . S
C3341 C3345 1.385 . S
C3342 H3323 0.951 . S
C3342 C3340 1.388 . S
C3342 C3343 1.366 . S
C3343 C3342 1.366 . S
C3343 C3344 1.414 . S
C3343 C3346 1.499 . S
C3344 H3324 0.950 . S
C3344 C3343 1.414 . S
C3344 C3345 1.374 . S
C3345 H3325 0.950 . S
C3345 C3341 1.385 . S
C3345 C3344 1.374 . S
C3346 C3343 1.499 . S
C3346 C3347 1.373 . S
C3346 C3348 1.389 . S
C3347 H3326 0.950 . S
C3347 C3346 1.373 . S
C3347 C3363 1.377 . S
C3348 C3346 1.389 . S
C3348 C3349 1.524 . S
C3348 C3362 1.377 . S
C3349 C3348 1.524 . S
C3349 C3350 1.397 . S
C3349 C3354 1.363 . S
C3350 H3327 0.950 . S
C3350 C3349 1.397 . S
C3350 C3351 1.334 . S
C3351 H3328 0.950 . S
C3351 C3350 1.334 . S
C3351 C3352 1.287 . S
C3352 C3351 1.287 . S
C3352 C3353 1.524 . S
C3352 H3371 0.913 . S
C3353 H3329 0.950 . S
C3353 C3352 1.524 . S
C3353 C3354 1.415 . S
C3354 H3330 0.950 . S
C3354 C3349 1.363 . S
C3354 C3353 1.415 . S
C3355 H3331 0.951 . S
C3355 C3356 1.366 . S
C3355 C3357 1.388 . S
C3356 C3355 1.366 . S
C3356 C3360 1.385 . S
C3357 H3332 0.951 . S
C3357 C3355 1.388 . S
C3357 C3358 1.366 . S
C3358 C3357 1.366 . S
C3358 C3359 1.414 . S
C3358 C3361 1.499 . S
C3359 H3333 0.950 . S
C3359 C3358 1.414 . S
C3359 C3360 1.374 . S
C3360 H3334 0.950 . S
C3360 C3356 1.385 . S
C3360 C3359 1.374 . S
C3361 C3358 1.499 . S
C3361 C3362 1.373 . S
C3361 C3363 1.389 . S
C3362 H3335 0.950 . S
C3362 C3348 1.377 . S
C3362 C3361 1.373 . S
C3363 C3347 1.377 . S
C3363 C3361 1.389 . S
C3363 C3364 1.524 . S
C3364 C3363 1.524 . S
C3364 C3365 1.397 . S
C3364 C3369 1.363 . S
C3365 H3336 0.950 . S
C3365 C3364 1.397 . S
C3365 C3366 1.334 . S
C3366 H3337 0.950 . S
C3366 C3365 1.334 . S
C3366 C3367 1.287 . S
C3367 C3366 1.287 . S
C3367 C3368 1.524 . S
C3367 H3370 0.999 . S
C3368 H3338 0.950 . S
C3368 C3367 1.524 . S
C3368 C3369 1.415 . S
C3369 H3339 0.950 . S
C3369 C3364 1.363 . S
C3369 C3368 1.415 . S
H3370 C3367 0.999 . S
H3371 C3352 0.913 . S
H3372 C3390 0.951 . S
H3373 C3392 0.951 . S
H3374 C3394 0.950 . S
H3375 C3395 0.950 . S
H3376 C3397 0.950 . S
H3377 C3400 0.950 . S
H3378 C3401 0.950 . S
H3379 C3403 0.950 . S
H3380 C3404 0.950 . S
H3381 C3405 0.951 . S
H3382 C3407 0.951 . S
H3383 C3409 0.950 . S
H3384 C3410 0.950 . S
H3385 C3412 0.950 . S
H3386 C3415 0.950 . S
H3387 C3416 0.950 . S
H3388 C3418 0.950 . S
H3389 C3419 0.950 . S
C3390 H3372 0.951 . S
C3390 C3391 1.366 . S
C3390 C3392 1.388 . S
C3391 C3390 1.366 . S
C3391 C3395 1.385 . S
C3392 H3373 0.951 . S
C3392 C3390 1.388 . S
C3392 C3393 1.366 . S
C3393 C3392 1.366 . S
C3393 C3394 1.414 . S
C3393 C3396 1.499 . S
C3394 H3374 0.950 . S
C3394 C3393 1.414 . S
C3394 C3395 1.374 . S
C3395 H3375 0.950 . S
C3395 C3391 1.385 . S
C3395 C3394 1.374 . S
C3396 C3393 1.499 . S
C3396 C3397 1.373 . S
C3396 C3398 1.389 . S
C3397 H3376 0.950 . S
C3397 C3396 1.373 . S
C3397 C3413 1.377 . S
C3398 C3396 1.389 . S
C3398 C3399 1.524 . S
C3398 C3412 1.377 . S
C3399 C3398 1.524 . S
C3399 C3400 1.397 . S
C3399 C3404 1.363 . S
C3400 H3377 0.950 . S
C3400 C3399 1.397 . S
C3400 C3401 1.334 . S
C3401 H3378 0.950 . S
C3401 C3400 1.334 . S
C3401 C3402 1.287 . S
C3402 C3401 1.287 . S
C3402 C3403 1.524 . S
C3402 H3421 0.913 . S
C3403 H3379 0.950 . S
C3403 C3402 1.524 . S
C3403 C3404 1.415 . S
C3404 H3380 0.950 . S
C3404 C3399 1.363 . S
C3404 C3403 1.415 . S
C3405 H3381 0.951 . S
C3405 C3406 1.366 . S
C3405 C3407 1.388 . S
C3406 C3405 1.366 . S
C3406 C3410 1.385 . S
C3407 H3382 0.951 . S
C3407 C3405 1.388 . S
C3407 C3408 1.366 . S
C3408 C3407 1.366 . S
C3408 C3409 1.414 . S
C3408 C3411 1.499 . S
C3409 H3383 0.950 . S
C3409 C3408 1.414 . S
C3409 C3410 1.374 . S
C3410 H3384 0.950 . S
C3410 C3406 1.385 . S
C3410 C3409 1.374 . S
C3411 C3408 1.499 . S
C3411 C3412 1.373 . S
C3411 C3413 1.389 . S
C3412 H3385 0.950 . S
C3412 C3398 1.377 . S
C3412 C3411 1.373 . S
C3413 C3397 1.377 . S
C3413 C3411 1.389 . S
C3413 C3414 1.524 . S
C3414 C3413 1.524 . S
C3414 C3415 1.397 . S
C3414 C3419 1.363 . S
C3415 H3386 0.950 . S
C3415 C3414 1.397 . S
C3415 C3416 1.334 . S
C3416 H3387 0.950 . S
C3416 C3415 1.334 . S
C3416 C3417 1.287 . S
C3417 C3416 1.287 . S
C3417 C3418 1.524 . S
C3417 H3420 0.999 . S
C3418 H3388 0.950 . S
C3418 C3417 1.524 . S
C3418 C3419 1.415 . S
C3419 H3389 0.950 . S
C3419 C3414 1.363 . S
C3419 C3418 1.415 . S
H3420 C3417 0.999 . S
H3421 C3402 0.913 . S
H3422 C3440 0.951 . S
H3423 C3442 0.951 . S
H3424 C3444 0.950 . S
H3425 C3445 0.950 . S
H3426 C3447 0.950 . S
H3427 C3450 0.950 . S
H3428 C3451 0.950 . S
H3429 C3453 0.950 . S
H3430 C3454 0.950 . S
H3431 C3455 0.951 . S
H3432 C3457 0.951 . S
H3433 C3459 0.950 . S
H3434 C3460 0.950 . S
H3435 C3462 0.950 . S
H3436 C3465 0.950 . S
H3437 C3466 0.950 . S
H3438 C3468 0.950 . S
H3439 C3469 0.950 . S
C3440 H3422 0.951 . S
C3440 C3441 1.366 . S
C3440 C3442 1.388 . S
C3441 C3440 1.366 . S
C3441 C3445 1.385 . S
C3442 H3423 0.951 . S
C3442 C3440 1.388 . S
C3442 C3443 1.366 . S
C3443 C3442 1.366 . S
C3443 C3444 1.414 . S
C3443 C3446 1.499 . S
C3444 H3424 0.950 . S
C3444 C3443 1.414 . S
C3444 C3445 1.374 . S
C3445 H3425 0.950 . S
C3445 C3441 1.385 . S
C3445 C3444 1.374 . S
C3446 C3443 1.499 . S
C3446 C3447 1.373 . S
C3446 C3448 1.389 . S
C3447 H3426 0.950 . S
C3447 C3446 1.373 . S
C3447 C3463 1.377 . S
C3448 C3446 1.389 . S
C3448 C3449 1.524 . S
C3448 C3462 1.377 . S
C3449 C3448 1.524 . S
C3449 C3450 1.397 . S
C3449 C3454 1.363 . S
C3450 H3427 0.950 . S
C3450 C3449 1.397 . S
C3450 C3451 1.334 . S
C3451 H3428 0.950 . S
C3451 C3450 1.334 . S
C3451 C3452 1.287 . S
C3452 C3451 1.287 . S
C3452 C3453 1.524 . S
C3452 H3471 0.913 . S
C3453 H3429 0.950 . S
C3453 C3452 1.524 . S
C3453 C3454 1.415 . S
C3454 H3430 0.950 . S
C3454 C3449 1.363 . S
C3454 C3453 1.415 . S
C3455 H3431 0.951 . S
C3455 C3456 1.366 . S
C3455 C3457 1.388 . S
C3456 C3455 1.366 . S
C3456 C3460 1.385 . S
C3457 H3432 0.951 . S
C3457 C3455 1.388 . S
C3457 C3458 1.366 . S
C3458 C3457 1.366 . S
C3458 C3459 1.414 . S
C3458 C3461 1.499 . S
C3459 H3433 0.950 . S
C3459 C3458 1.414 . S
C3459 C3460 1.374 . S
C3460 H3434 0.950 . S
C3460 C3456 1.385 . S
C3460 C3459 1.374 . S
C3461 C3458 1.499 . S
C3461 C3462 1.373 . S
C3461 C3463 1.389 . S
C3462 H3435 0.950 . S
C3462 C3448 1.377 . S
C3462 C3461 1.373 . S
C3463 C3447 1.377 . S
C3463 C3461 1.389 . S
C3463 C3464 1.524 . S
C3464 C3463 1.524 . S
C3464 C3465 1.397 . S
C3464 C3469 1.363 . S
C3465 H3436 0.950 . S
C3465 C3464 1.397 . S
C3465 C3466 1.334 . S
C3466 H3437 0.950 . S
C3466 C3465 1.334 . S
C3466 C3467 1.287 . S
C3467 C3466 1.287 . S
C3467 C3468 1.524 . S
C3467 H3470 0.999 . S
C3468 H3438 0.950 . S
C3468 C3467 1.524 . S
C3468 C3469 1.415 . S
C3469 H3439 0.950 . S
C3469 C3464 1.363 . S
C3469 C3468 1.415 . S
H3470 C3467 0.999 . S
H3471 C3452 0.913 . S
H3472 C3490 0.951 . S
H3473 C3492 0.951 . S
H3474 C3494 0.950 . S
H3475 C3495 0.950 . S
H3476 C3497 0.950 . S
H3477 C3500 0.950 . S
H3478 C3501 0.950 . S
H3479 C3503 0.950 . S
H3480 C3504 0.950 . S
H3481 C3505 0.951 . S
H3482 C3507 0.951 . S
H3483 C3509 0.950 . S
H3484 C3510 0.950 . S
H3485 C3512 0.950 . S
H3486 C3515 0.950 . S
H3487 C3516 0.950 . S
H3488 C3518 0.950 . S
H3489 C3519 0.950 . S
C3490 H3472 0.951 . S
C3490 C3491 1.366 . S
C3490 C3492 1.388 . S
C3491 C3490 1.366 . S
C3491 C3495 1.385 . S
C3492 H3473 0.951 . S
C3492 C3490 1.388 . S
C3492 C3493 1.366 . S
C3493 C3492 1.366 . S
C3493 C3494 1.414 . S
C3493 C3496 1.499 . S
C3494 H3474 0.950 . S
C3494 C3493 1.414 . S
C3494 C3495 1.374 . S
C3495 H3475 0.950 . S
C3495 C3491 1.385 . S
C3495 C3494 1.374 . S
C3496 C3493 1.499 . S
C3496 C3497 1.373 . S
C3496 C3498 1.389 . S
C3497 H3476 0.950 . S
C3497 C3496 1.373 . S
C3497 C3513 1.377 . S
C3498 C3496 1.389 . S
C3498 C3499 1.524 . S
C3498 C3512 1.377 . S
C3499 C3498 1.524 . S
C3499 C3500 1.397 . S
C3499 C3504 1.363 . S
C3500 H3477 0.950 . S
C3500 C3499 1.397 . S
C3500 C3501 1.334 . S
C3501 H3478 0.950 . S
C3501 C3500 1.334 . S
C3501 C3502 1.287 . S
C3502 C3501 1.287 . S
C3502 C3503 1.524 . S
C3502 H3521 0.913 . S
C3503 H3479 0.950 . S
C3503 C3502 1.524 . S
C3503 C3504 1.415 . S
C3504 H3480 0.950 . S
C3504 C3499 1.363 . S
C3504 C3503 1.415 . S
C3505 H3481 0.951 . S
C3505 C3506 1.366 . S
C3505 C3507 1.388 . S
C3506 C3505 1.366 . S
C3506 C3510 1.385 . S
C3507 H3482 0.951 . S
C3507 C3505 1.388 . S
C3507 C3508 1.366 . S
C3508 C3507 1.366 . S
C3508 C3509 1.414 . S
C3508 C3511 1.499 . S
C3509 H3483 0.950 . S
C3509 C3508 1.414 . S
C3509 C3510 1.374 . S
C3510 H3484 0.950 . S
C3510 C3506 1.385 . S
C3510 C3509 1.374 . S
C3511 C3508 1.499 . S
C3511 C3512 1.373 . S
C3511 C3513 1.389 . S
C3512 H3485 0.950 . S
C3512 C3498 1.377 . S
C3512 C3511 1.373 . S
C3513 C3497 1.377 . S
C3513 C3511 1.389 . S
C3513 C3514 1.524 . S
C3514 C3513 1.524 . S
C3514 C3515 1.397 . S
C3514 C3519 1.363 . S
C3515 H3486 0.950 . S
C3515 C3514 1.397 . S
C3515 C3516 1.334 . S
C3516 H3487 0.950 . S
C3516 C3515 1.334 . S
C3516 C3517 1.287 . S
C3517 C3516 1.287 . S
C3517 C3518 1.524 . S
C3517 H3520 0.999 . S
C3518 H3488 0.950 . S
C3518 C3517 1.524 . S
C3518 C3519 1.415 . S
C3519 H3489 0.950 . S
C3519 C3514 1.363 . S
C3519 C3518 1.415 . S
H3520 C3517 0.999 . S
H3521 C3502 0.913 . S
H3522 C3540 0.951 . S
H3523 C3542 0.951 . S
H3524 C3544 0.950 . S
H3525 C3545 0.950 . S
H3526 C3547 0.950 . S
H3527 C3550 0.950 . S
H3528 C3551 0.950 . S
H3529 C3553 0.950 . S
H3530 C3554 0.950 . S
H3531 C3555 0.951 . S
H3532 C3557 0.951 . S
H3533 C3559 0.950 . S
H3534 C3560 0.950 . S
H3535 C3562 0.950 . S
H3536 C3565 0.950 . S
H3537 C3566 0.950 . S
H3538 C3568 0.950 . S
H3539 C3569 0.950 . S
C3540 H3522 0.951 . S
C3540 C3541 1.366 . S
C3540 C3542 1.388 . S
C3541 C3540 1.366 . S
C3541 C3545 1.385 . S
C3542 H3523 0.951 . S
C3542 C3540 1.388 . S
C3542 C3543 1.366 . S
C3543 C3542 1.366 . S
C3543 C3544 1.414 . S
C3543 C3546 1.499 . S
C3544 H3524 0.950 . S
C3544 C3543 1.414 . S
C3544 C3545 1.374 . S
C3545 H3525 0.950 . S
C3545 C3541 1.385 . S
C3545 C3544 1.374 . S
C3546 C3543 1.499 . S
C3546 C3547 1.373 . S
C3546 C3548 1.389 . S
C3547 H3526 0.950 . S
C3547 C3546 1.373 . S
C3547 C3563 1.377 . S
C3548 C3546 1.389 . S
C3548 C3549 1.524 . S
C3548 C3562 1.377 . S
C3549 C3548 1.524 . S
C3549 C3550 1.397 . S
C3549 C3554 1.363 . S
C3550 H3527 0.950 . S
C3550 C3549 1.397 . S
C3550 C3551 1.334 . S
C3551 H3528 0.950 . S
C3551 C3550 1.334 . S
C3551 C3552 1.287 . S
C3552 C3551 1.287 . S
C3552 C3553 1.524 . S
C3552 H3571 0.913 . S
C3553 H3529 0.950 . S
C3553 C3552 1.524 . S
C3553 C3554 1.415 . S
C3554 H3530 0.950 . S
C3554 C3549 1.363 . S
C3554 C3553 1.415 . S
C3555 H3531 0.951 . S
C3555 C3556 1.366 . S
C3555 C3557 1.388 . S
C3556 C3555 1.366 . S
C3556 C3560 1.385 . S
C3557 H3532 0.951 . S
C3557 C3555 1.388 . S
C3557 C3558 1.366 . S
C3558 C3557 1.366 . S
C3558 C3559 1.414 . S
C3558 C3561 1.499 . S
C3559 H3533 0.950 . S
C3559 C3558 1.414 . S
C3559 C3560 1.374 . S
C3560 H3534 0.950 . S
C3560 C3556 1.385 . S
C3560 C3559 1.374 . S
C3561 C3558 1.499 . S
C3561 C3562 1.373 . S
C3561 C3563 1.389 . S
C3562 H3535 0.950 . S
C3562 C3548 1.377 . S
C3562 C3561 1.373 . S
C3563 C3547 1.377 . S
C3563 C3561 1.389 . S
C3563 C3564 1.524 . S
C3564 C3563 1.524 . S
C3564 C3565 1.397 . S
C3564 C3569 1.363 . S
C3565 H3536 0.950 . S
C3565 C3564 1.397 . S
C3565 C3566 1.334 . S
C3566 H3537 0.950 . S
C3566 C3565 1.334 . S
C3566 C3567 1.287 . S
C3567 C3566 1.287 . S
C3567 C3568 1.524 . S
C3567 H3570 0.999 . S
C3568 H3538 0.950 . S
C3568 C3567 1.524 . S
C3568 C3569 1.415 . S
C3569 H3539 0.950 . S
C3569 C3564 1.363 . S
C3569 C3568 1.415 . S
H3570 C3567 0.999 . S
H3571 C3552 0.913 . S
H3572 C3590 0.951 . S
H3573 C3592 0.951 . S
H3574 C3594 0.950 . S
H3575 C3595 0.950 . S
H3576 C3597 0.950 . S
H3577 C3600 0.950 . S
H3578 C3601 0.950 . S
H3579 C3603 0.950 . S
H3580 C3604 0.950 . S
H3581 C3605 0.951 . S
H3582 C3607 0.951 . S
H3583 C3609 0.950 . S
H3584 C3610 0.950 . S
H3585 C3612 0.950 . S
H3586 C3615 0.950 . S
H3587 C3616 0.950 . S
H3588 C3618 0.950 . S
H3589 C3619 0.950 . S
C3590 H3572 0.951 . S
C3590 C3591 1.366 . S
C3590 C3592 1.388 . S
C3591 C3590 1.366 . S
C3591 C3595 1.385 . S
C3592 H3573 0.951 . S
C3592 C3590 1.388 . S
C3592 C3593 1.366 . S
C3593 C3592 1.366 . S
C3593 C3594 1.414 . S
C3593 C3596 1.499 . S
C3594 H3574 0.950 . S
C3594 C3593 1.414 . S
C3594 C3595 1.374 . S
C3595 H3575 0.950 . S
C3595 C3591 1.385 . S
C3595 C3594 1.374 . S
C3596 C3593 1.499 . S
C3596 C3597 1.373 . S
C3596 C3598 1.389 . S
C3597 H3576 0.950 . S
C3597 C3596 1.373 . S
C3597 C3613 1.377 . S
C3598 C3596 1.389 . S
C3598 C3599 1.524 . S
C3598 C3612 1.377 . S
C3599 C3598 1.524 . S
C3599 C3600 1.397 . S
C3599 C3604 1.363 . S
C3600 H3577 0.950 . S
C3600 C3599 1.397 . S
C3600 C3601 1.334 . S
C3601 H3578 0.950 . S
C3601 C3600 1.334 . S
C3601 C3602 1.287 . S
C3602 C3601 1.287 . S
C3602 C3603 1.524 . S
C3602 H3621 0.913 . S
C3603 H3579 0.950 . S
C3603 C3602 1.524 . S
C3603 C3604 1.415 . S
C3604 H3580 0.950 . S
C3604 C3599 1.363 . S
C3604 C3603 1.415 . S
C3605 H3581 0.951 . S
C3605 C3606 1.366 . S
C3605 C3607 1.388 . S
C3606 C3605 1.366 . S
C3606 C3610 1.385 . S
C3607 H3582 0.951 . S
C3607 C3605 1.388 . S
C3607 C3608 1.366 . S
C3608 C3607 1.366 . S
C3608 C3609 1.414 . S
C3608 C3611 1.499 . S
C3609 H3583 0.950 . S
C3609 C3608 1.414 . S
C3609 C3610 1.374 . S
C3610 H3584 0.950 . S
C3610 C3606 1.385 . S
C3610 C3609 1.374 . S
C3611 C3608 1.499 . S
C3611 C3612 1.373 . S
C3611 C3613 1.389 . S
C3612 H3585 0.950 . S
C3612 C3598 1.377 . S
C3612 C3611 1.373 . S
C3613 C3597 1.377 . S
C3613 C3611 1.389 . S
C3613 C3614 1.524 . S
C3614 C3613 1.524 . S
C3614 C3615 1.397 . S
C3614 C3619 1.363 . S
C3615 H3586 0.950 . S
C3615 C3614 1.397 . S
C3615 C3616 1.334 . S
C3616 H3587 0.950 . S
C3616 C3615 1.334 . S
C3616 C3617 1.287 . S
C3617 C3616 1.287 . S
C3617 C3618 1.524 . S
C3617 H3620 0.999 . S
C3618 H3588 0.950 . S
C3618 C3617 1.524 . S
C3618 C3619 1.415 . S
C3619 H3589 0.950 . S
C3619 C3614 1.363 . S
C3619 C3618 1.415 . S
H3620 C3617 0.999 . S
H3621 C3602 0.913 . S
H3622 C3640 0.951 . S
H3623 C3642 0.951 . S
H3624 C3644 0.950 . S
H3625 C3645 0.950 . S
H3626 C3647 0.950 . S
H3627 C3650 0.950 . S
H3628 C3651 0.950 . S
H3629 C3653 0.950 . S
H3630 C3654 0.950 . S
H3631 C3655 0.951 . S
H3632 C3657 0.951 . S
H3633 C3659 0.950 . S
H3634 C3660 0.950 . S
H3635 C3662 0.950 . S
H3636 C3665 0.950 . S
H3637 C3666 0.950 . S
H3638 C3668 0.950 . S
H3639 C3669 0.950 . S
C3640 H3622 0.951 . S
C3640 C3641 1.366 . S
C3640 C3642 1.388 . S
C3641 C3640 1.366 . S
C3641 C3645 1.385 . S
C3642 H3623 0.951 . S
C3642 C3640 1.388 . S
C3642 C3643 1.366 . S
C3643 C3642 1.366 . S
C3643 C3644 1.414 . S
C3643 C3646 1.499 . S
C3644 H3624 0.950 . S
C3644 C3643 1.414 . S
C3644 C3645 1.374 . S
C3645 H3625 0.950 . S
C3645 C3641 1.385 . S
C3645 C3644 1.374 . S
C3646 C3643 1.499 . S
C3646 C3647 1.373 . S
C3646 C3648 1.389 . S
C3647 H3626 0.950 . S
C3647 C3646 1.373 . S
C3647 C3663 1.377 . S
C3648 C3646 1.389 . S
C3648 C3649 1.524 . S
C3648 C3662 1.377 . S
C3649 C3648 1.524 . S
C3649 C3650 1.397 . S
C3649 C3654 1.363 . S
C3650 H3627 0.950 . S
C3650 C3649 1.397 . S
C3650 C3651 1.334 . S
C3651 H3628 0.950 . S
C3651 C3650 1.334 . S
C3651 C3652 1.287 . S
C3652 C3651 1.287 . S
C3652 C3653 1.524 . S
C3652 H3671 0.913 . S
C3653 H3629 0.950 . S
C3653 C3652 1.524 . S
C3653 C3654 1.415 . S
C3654 H3630 0.950 . S
C3654 C3649 1.363 . S
C3654 C3653 1.415 . S
C3655 H3631 0.951 . S
C3655 C3656 1.366 . S
C3655 C3657 1.388 . S
C3656 C3655 1.366 . S
C3656 C3660 1.385 . S
C3657 H3632 0.951 . S
C3657 C3655 1.388 . S
C3657 C3658 1.366 . S
C3658 C3657 1.366 . S
C3658 C3659 1.414 . S
C3658 C3661 1.499 . S
C3659 H3633 0.950 . S
C3659 C3658 1.414 . S
C3659 C3660 1.374 . S
C3660 H3634 0.950 . S
C3660 C3656 1.385 . S
C3660 C3659 1.374 . S
C3661 C3658 1.499 . S
C3661 C3662 1.373 . S
C3661 C3663 1.389 . S
C3662 H3635 0.950 . S
C3662 C3648 1.377 . S
C3662 C3661 1.373 . S
C3663 C3647 1.377 . S
C3663 C3661 1.389 . S
C3663 C3664 1.524 . S
C3664 C3663 1.524 . S
C3664 C3665 1.397 . S
C3664 C3669 1.363 . S
C3665 H3636 0.950 . S
C3665 C3664 1.397 . S
C3665 C3666 1.334 . S
C3666 H3637 0.950 . S
C3666 C3665 1.334 . S
C3666 C3667 1.287 . S
C3667 C3666 1.287 . S
C3667 C3668 1.524 . S
C3667 H3670 0.999 . S
C3668 H3638 0.950 . S
C3668 C3667 1.524 . S
C3668 C3669 1.415 . S
C3669 H3639 0.950 . S
C3669 C3664 1.363 . S
C3669 C3668 1.415 . S
H3670 C3667 0.999 . S
H3671 C3652 0.913 . S
C1291 C1204 2.475 . S
C1306 C38 2.404 . S
C1341 C75 2.360 . S
C1356 C870 2.272 . S
C1391 C1257 2.228 . S
C1406 C144 2.150 . S
C1441 C1135 2.281 . S
C1456 C181 2.348 . S
C1491 C992 2.228 . S
C1506 C250 2.151 . S
C1541 C1029 2.272 . S
C1556 C287 2.360 . S
C1591 C1098 2.476 . S
C1606 C356 2.404 . S
C1641 C393 2.348 . S
C1656 C923 2.281 . S
C1691 C727 2.269 . S
C1706 C446 2.211 . S
C1741 C764 2.211 . S
C1756 C515 2.269 . S
C1791 C568 2.270 . S
C1806 C833 2.309 . S
C1841 C621 2.309 . S
C1856 C674 2.270 . S
C1891 C409 2.331 . S
C1906 C780 2.404 . S
C1941 C817 2.361 . S
C1956 C234 2.429 . S
C1991 C303 2.154 . S
C2006 C658 2.212 . S
C2041 C711 2.336 . S
C2056 C340 2.411 . S
C2091 C552 2.212 . S
C2106 C91 2.153 . S
C2141 C128 2.429 . S
C2156 C605 2.361 . S
C2191 C197 2.331 . S
C2206 C462 2.404 . S
C2241 C22 2.411 . S
C2256 C499 2.336 . S
C2291 C1082 2.288 . S
C2306 C1151 2.347 . S
C2341 C1188 2.288 . S
C2356 C939 2.347 . S
C2391 C976 2.182 . S
C2406 C886 2.246 . S
C2441 C1241 2.183 . S
C2456 C1045 2.246 . S
C2491 C39 1.741 . S
C2506 C463 1.790 . S
C2541 C506 1.138 . S
C2556 C82 1.155 . S
C2591 C145 1.354 . S
C2606 C559 1.382 . S
C2641 C188 1.253 . S
C2656 C612 1.229 . S
C2691 C251 1.355 . S
C2706 C665 1.381 . S
C2741 C294 1.156 . S
C2756 C718 1.137 . S
C2791 C781 1.789 . S
C2806 C357 1.741 . S
C2841 C824 1.229 . S
C2856 C400 1.253 . S
C2891 C453 1.482 . S
C2906 C887 1.480 . S
C2941 C516 1.477 . S
C2956 C1248 1.479 . S
C2991 C1152 1.805 . S
C3006 C569 1.812 . S
C3041 C1195 1.490 . S
C3056 C622 1.494 . S
C3091 C940 1.805 . S
C3106 C675 1.813 . S
C3141 C983 1.478 . S
C3156 C728 1.476 . S
C3191 C771 1.482 . S
C3206 C1046 1.481 . S
C3241 C834 1.493 . S
C3256 C1089 1.490 . S
C3291 C29 1.239 . S
C3306 C877 1.217 . S
C3341 C930 1.238 . S
C3356 C241 1.236 . S
C3391 C993 1.790 . S
C3406 C304 1.739 . S
C3441 C1036 1.218 . S
C3456 C347 1.238 . S
C3491 C1099 1.834 . S
C3506 C410 1.790 . S
C3541 C1142 1.237 . S
C3556 C135 1.236 . S
C3591 C198 1.790 . S
C3606 C1205 1.833 . S
C3641 C1258 1.790 . S
C3656 C92 1.740 . S
