# Generated by pormake.
# Topology und, (4)-cn, num edge types: 1
# Building blocks:
#     Node 0, Type 0, BuildingBlock: KUFVIS_clean_sbu_0, # of connection points: 4
#     Node 1, Type 0, BuildingBlock: KUFVIS_clean_sbu_0, # of connection points: 4
#     Node 2, Type 0, BuildingBlock: KUFVIS_clean_sbu_0, # of connection points: 4
#     Node 3, Type 0, BuildingBlock: KUFVIS_clean_sbu_0, # of connection points: 4
#     Node 4, Type 0, BuildingBlock: KUFVIS_clean_sbu_0, # of connection points: 4
#     Node 5, Type 0, BuildingBlock: KUFVIS_clean_sbu_0, # of connection points: 4
#     Node 6, Type 0, BuildingBlock: KUFVIS_clean_sbu_0, # of connection points: 4
#     Node 7, Type 0, BuildingBlock: KUFVIS_clean_sbu_0, # of connection points: 4
#     Node 8, Type 0, BuildingBlock: KUFVIS_clean_sbu_0, # of connection points: 4
#     Node 9, Type 0, BuildingBlock: KUFVIS_clean_sbu_0, # of connection points: 4
#     Node 10, Type 0, BuildingBlock: KUFVIS_clean_sbu_0, # of connection points: 4
#     Node 11, Type 0, BuildingBlock: KUFVIS_clean_sbu_0, # of connection points: 4
#     Node 12, Type 0, BuildingBlock: KUFVIS_clean_sbu_0, # of connection points: 4
#     Node 13, Type 0, BuildingBlock: KUFVIS_clean_sbu_0, # of connection points: 4
#     Node 14, Type 0, BuildingBlock: KUFVIS_clean_sbu_0, # of connection points: 4
#     Node 15, Type 0, BuildingBlock: KUFVIS_clean_sbu_0, # of connection points: 4
#     Edge 16, Type (0, 0), BuildingBlock: UVAHIK_clean_linker_0, # of connection points: 2
#     Edge 17, Type (0, 0), BuildingBlock: UVAHIK_clean_linker_0, # of connection points: 2
#     Edge 18, Type (0, 0), BuildingBlock: UVAHIK_clean_linker_0, # of connection points: 2
#     Edge 19, Type (0, 0), BuildingBlock: UVAHIK_clean_linker_0, # of connection points: 2
#     Edge 20, Type (0, 0), BuildingBlock: UVAHIK_clean_linker_0, # of connection points: 2
#     Edge 21, Type (0, 0), BuildingBlock: UVAHIK_clean_linker_0, # of connection points: 2
#     Edge 22, Type (0, 0), BuildingBlock: UVAHIK_clean_linker_0, # of connection points: 2
#     Edge 23, Type (0, 0), BuildingBlock: UVAHIK_clean_linker_0, # of connection points: 2
#     Edge 24, Type (0, 0), BuildingBlock: UVAHIK_clean_linker_0, # of connection points: 2
#     Edge 25, Type (0, 0), BuildingBlock: UVAHIK_clean_linker_0, # of connection points: 2
#     Edge 26, Type (0, 0), BuildingBlock: UVAHIK_clean_linker_0, # of connection points: 2
#     Edge 27, Type (0, 0), BuildingBlock: UVAHIK_clean_linker_0, # of connection points: 2
#     Edge 28, Type (0, 0), BuildingBlock: UVAHIK_clean_linker_0, # of connection points: 2
#     Edge 29, Type (0, 0), BuildingBlock: UVAHIK_clean_linker_0, # of connection points: 2
#     Edge 30, Type (0, 0), BuildingBlock: UVAHIK_clean_linker_0, # of connection points: 2
#     Edge 31, Type (0, 0), BuildingBlock: UVAHIK_clean_linker_0, # of connection points: 2
#     Edge 32, Type (0, 0), BuildingBlock: UVAHIK_clean_linker_0, # of connection points: 2
#     Edge 33, Type (0, 0), BuildingBlock: UVAHIK_clean_linker_0, # of connection points: 2
#     Edge 34, Type (0, 0), BuildingBlock: UVAHIK_clean_linker_0, # of connection points: 2
#     Edge 35, Type (0, 0), BuildingBlock: UVAHIK_clean_linker_0, # of connection points: 2
#     Edge 36, Type (0, 0), BuildingBlock: UVAHIK_clean_linker_0, # of connection points: 2
#     Edge 37, Type (0, 0), BuildingBlock: UVAHIK_clean_linker_0, # of connection points: 2
#     Edge 38, Type (0, 0), BuildingBlock: UVAHIK_clean_linker_0, # of connection points: 2
#     Edge 39, Type (0, 0), BuildingBlock: UVAHIK_clean_linker_0, # of connection points: 2
#     Edge 40, Type (0, 0), BuildingBlock: UVAHIK_clean_linker_0, # of connection points: 2
#     Edge 41, Type (0, 0), BuildingBlock: UVAHIK_clean_linker_0, # of connection points: 2
#     Edge 42, Type (0, 0), BuildingBlock: UVAHIK_clean_linker_0, # of connection points: 2
#     Edge 43, Type (0, 0), BuildingBlock: UVAHIK_clean_linker_0, # of connection points: 2
#     Edge 44, Type (0, 0), BuildingBlock: UVAHIK_clean_linker_0, # of connection points: 2
#     Edge 45, Type (0, 0), BuildingBlock: UVAHIK_clean_linker_0, # of connection points: 2
#     Edge 46, Type (0, 0), BuildingBlock: UVAHIK_clean_linker_0, # of connection points: 2
#     Edge 47, Type (0, 0), BuildingBlock: UVAHIK_clean_linker_0, # of connection points: 2
# Relax obj value: 0.020
# Max RMSD: 0.088
# Mean RMSD: 0.080
data_MOF--net-und--node1-KUFVIS_clean_sbu_0--edge1-UVAHIK_clean_linker_0
_symmetry_space_group_name_H-M    P1
_symmetry_Int_Tables_number       1
_symmetry_cell_setting            triclinic
loop_
_symmetry_equiv_pos_as_xyz
'x, y, z'
_cell_length_a     77.231371
_cell_length_b     77.202616
_cell_length_c     28.640302
_cell_angle_alpha  92.236838
_cell_angle_beta   92.191282
_cell_angle_gamma 90.033271
loop_
_atom_site_label
_atom_site_type_symbol
_atom_site_fract_x
_atom_site_fract_y
_atom_site_fract_z
_atom_type_partial_charge
Mn0 Mn 0.25124 0.33502 0.01239 0.0
Mn1 Mn 0.23043 0.34878 0.91507 0.0
C2 C 0.25228 0.31874 0.9434 0.0
C3 C 0.24996 0.31928 0.08018 0.0
C4 C 0.26502 0.3635 0.95225 0.0
O5 O 0.23504 0.35353 0.03794 0.0
O6 O 0.22059 0.36031 0.97138 0.0
C7 C 0.19592 0.33359 0.92927 0.0
N8 N 0.20995 0.33523 0.90241 0.0
C9 C 0.19727 0.31619 0.84194 0.0
C10 C 0.18262 0.31438 0.86882 0.0
C11 C 0.18197 0.32308 0.91273 0.0
C12 C 0.21075 0.32685 0.86021 0.0
H13 H 0.19538 0.34022 0.96309 0.0
C14 C 0.2232 0.36175 0.01584 0.0
O15 O 0.26175 0.33114 0.07634 0.0
O16 O 0.23887 0.31705 0.04547 0.0
N17 N 0.23848 0.33855 0.85793 0.0
C18 C 0.25384 0.34106 0.83727 0.0
C19 C 0.25675 0.33289 0.7936 0.0
C20 C 0.24379 0.3224 0.77142 0.0
C21 C 0.22799 0.32021 0.79305 0.0
C22 C 0.22581 0.32872 0.8365 0.0
H23 H 0.26384 0.34914 0.85408 0.0
O24 O 0.2638 0.31655 0.97675 0.0
O25 O 0.24035 0.33017 0.95174 0.0
O26 O 0.26711 0.35372 0.9871 0.0
O27 O 0.25158 0.36295 0.92476 0.0
C28 C 0.21443 0.30973 0.7735 0.0
C29 C 0.19911 0.30765 0.79802 0.0
H30 H 0.17186 0.30625 0.85625 0.0
H31 H 0.17075 0.32168 0.93378 0.0
H32 H 0.26897 0.33466 0.77711 0.0
H33 H 0.24613 0.31602 0.7379 0.0
H34 H 0.21574 0.30302 0.73989 0.0
H35 H 0.18889 0.29934 0.78294 0.0
Mn36 Mn 0.91963 0.00275 0.252 0.0
Mn37 Mn 0.90509 0.02313 0.349 0.0
C38 C 0.9354 0.00135 0.3216 0.0
C39 C 0.93563 0.00461 0.1849 0.0
C40 C 0.8903 0.98902 0.30845 0.0
O41 O 0.90102 0.01894 0.22663 0.0
O42 O 0.89475 0.03401 0.29278 0.0
C43 C 0.92153 0.05743 0.34012 0.0
N44 N 0.91907 0.04306 0.36518 0.0
C45 C 0.93762 0.05436 0.42861 0.0
C46 C 0.94027 0.06933 0.40362 0.0
C47 C 0.93222 0.07085 0.35913 0.0
C48 C 0.9268 0.04143 0.40793 0.0
H49 H 0.9154 0.05862 0.30586 0.0
C50 C 0.89326 0.03123 0.24839 0.0
O51 O 0.92386 0.99267 0.18786 0.0
O52 O 0.93764 0.01552 0.22012 0.0
N53 N 0.91425 0.01398 0.40598 0.0
C54 C 0.91104 0.99836 0.42452 0.0
C55 C 0.91852 0.99459 0.46842 0.0
C56 C 0.92908 0.00695 0.49296 0.0
C57 C 0.93202 0.02301 0.47344 0.0
C58 C 0.92416 0.02608 0.42967 0.0
H59 H 0.90291 0.98882 0.40589 0.0
O60 O 0.93801 0.99014 0.28774 0.0
O61 O 0.92394 0.01325 0.31321 0.0
O62 O 0.90101 0.98655 0.27587 0.0
O63 O 0.89028 0.00256 0.33563 0.0
C64 C 0.94265 0.036 0.49537 0.0
C65 C 0.94551 0.05163 0.4729 0.0
H66 H 0.94855 0.07969 0.41808 0.0
H67 H 0.93427 0.08233 0.33953 0.0
H68 H 0.91618 0.98216 0.48325 0.0
H69 H 0.93493 0.00394 0.52664 0.0
H70 H 0.9489 0.03399 0.52923 0.0
H71 H 0.95393 0.0614 0.4898 0.0
Mn72 Mn 0.25238 0.67642 0.50763 0.0
Mn73 Mn 0.23567 0.66394 0.60821 0.0
C74 C 0.25513 0.69404 0.5742 0.0
C75 C 0.24866 0.69081 0.43794 0.0
C76 C 0.26924 0.64962 0.57062 0.0
O77 O 0.23595 0.65699 0.48567 0.0
O78 O 0.22451 0.65074 0.55426 0.0
C79 C 0.20007 0.67731 0.59306 0.0
N80 N 0.21503 0.67679 0.61971 0.0
C81 C 0.20345 0.6963 0.67817 0.0
C82 C 0.18787 0.69697 0.65149 0.0
C83 C 0.1862 0.68747 0.60869 0.0
C84 C 0.21681 0.68596 0.6608 0.0
H85 H 0.19874 0.67005 0.56011 0.0
C86 C 0.22555 0.64855 0.50987 0.0
O87 O 0.26076 0.67924 0.44308 0.0
O88 O 0.23849 0.6934 0.47238 0.0
N89 N 0.24515 0.67572 0.66346 0.0
C90 C 0.26128 0.67431 0.68392 0.0
C91 C 0.26514 0.68309 0.72692 0.0
C92 C 0.25236 0.69317 0.74852 0.0
C93 C 0.23586 0.69446 0.72678 0.0
C94 C 0.23271 0.68523 0.68424 0.0
H95 H 0.27116 0.66661 0.66748 0.0
O96 O 0.26554 0.69589 0.54031 0.0
O97 O 0.2434 0.68204 0.56799 0.0
O98 O 0.26955 0.65863 0.53414 0.0
O99 O 0.25708 0.65052 0.59969 0.0
C100 C 0.2225 0.70471 0.74536 0.0
C101 C 0.20633 0.7057 0.72097 0.0
H102 H 0.17716 0.70482 0.66336 0.0
H103 H 0.17425 0.68798 0.5878 0.0
H104 H 0.27793 0.6821 0.74336 0.0
H105 H 0.25538 0.69991 0.78168 0.0
H106 H 0.2246 0.71209 0.77804 0.0
H107 H 0.19623 0.71381 0.73527 0.0
Mn108 Mn 0.57838 0.00152 0.76026 0.0
Mn109 Mn 0.59115 0.01751 0.65906 0.0
C110 C 0.56117 0.99799 0.69315 0.0
C111 C 0.56357 0.0055 0.82924 0.0
C112 C 0.60588 0.98461 0.69959 0.0
O113 O 0.59738 0.01852 0.78185 0.0
O114 O 0.60376 0.02948 0.71271 0.0
C115 C 0.577 0.05298 0.67079 0.0
N116 N 0.57798 0.03777 0.64535 0.0
C117 C 0.55867 0.04835 0.58501 0.0
C118 C 0.55754 0.06418 0.61043 0.0
C119 C 0.5667 0.06648 0.65356 0.0
C120 C 0.56914 0.03538 0.60394 0.0
H121 H 0.58401 0.05479 0.70398 0.0
C122 C 0.6057 0.02891 0.75726 0.0
O123 O 0.5754 0.99361 0.82516 0.0
O124 O 0.56095 0.01537 0.79414 0.0
N125 N 0.57987 0.00722 0.60409 0.0
C126 C 0.58164 0.99089 0.58511 0.0
C127 C 0.57316 0.98639 0.54211 0.0
C128 C 0.56301 0.99873 0.51898 0.0
C129 C 0.56136 0.01545 0.5392 0.0
C130 C 0.57028 0.01925 0.58186 0.0
H131 H 0.58941 0.98134 0.60271 0.0
O132 O 0.55929 0.98778 0.72751 0.0
O133 O 0.57298 0.0099 0.69919 0.0
O134 O 0.59661 0.98444 0.73559 0.0
O135 O 0.60496 0.9965 0.66975 0.0
C136 C 0.55101 0.02842 0.51903 0.0
C137 C 0.54961 0.04484 0.54202 0.0
H138 H 0.54957 0.0746 0.59734 0.0
H139 H 0.56582 0.07863 0.67349 0.0
H140 H 0.57443 0.97343 0.52683 0.0
H141 H 0.55648 0.99521 0.48584 0.0
H142 H 0.54387 0.02583 0.48621 0.0
H143 H 0.54141 0.05461 0.52653 0.0
Mn144 Mn 0.74537 0.67571 0.00237 0.0
Mn145 Mn 0.7659 0.66234 0.10057 0.0
C146 C 0.74476 0.6926 0.07041 0.0
C147 C 0.74693 0.69087 0.93364 0.0
C148 C 0.73087 0.64828 0.06488 0.0
O149 O 0.76112 0.65663 0.97772 0.0
O150 O 0.77518 0.6499 0.04488 0.0
C151 C 0.80081 0.6762 0.08422 0.0
N152 N 0.78684 0.6753 0.11165 0.0
C153 C 0.80039 0.69443 0.17055 0.0
C154 C 0.81497 0.69547 0.14307 0.0
C155 C 0.81515 0.68635 0.09966 0.0
C156 C 0.78648 0.6841 0.15334 0.0
H157 H 0.80099 0.66924 0.0508 0.0
C158 C 0.77261 0.64818 0.00046 0.0
O159 O 0.73488 0.67933 0.93822 0.0
O160 O 0.7581 0.69308 0.96814 0.0
N161 N 0.75842 0.67341 0.15726 0.0
C162 C 0.74309 0.67159 0.17867 0.0
C163 C 0.74065 0.68022 0.22199 0.0
C164 C 0.75404 0.69045 0.24311 0.0
C165 C 0.76979 0.69191 0.22077 0.0
C166 C 0.77149 0.68298 0.17769 0.0
H167 H 0.73277 0.66371 0.16269 0.0
O168 O 0.73326 0.69474 0.037 0.0
O169 O 0.75644 0.68083 0.06271 0.0
O170 O 0.72909 0.6576 0.02897 0.0
O171 O 0.74429 0.64884 0.09245 0.0
C172 C 0.78378 0.70205 0.23927 0.0
C173 C 0.79903 0.70339 0.21407 0.0
H174 H 0.82605 0.70331 0.15481 0.0
H175 H 0.82633 0.68715 0.07816 0.0
H176 H 0.72847 0.67901 0.23904 0.0
H177 H 0.75207 0.69718 0.27637 0.0
H178 H 0.78286 0.70905 0.2726 0.0
H179 H 0.8096 0.71143 0.22835 0.0
Mn180 Mn 0.0795 0.00845 0.76596 0.0
Mn181 Mn 0.0938 0.98816 0.66858 0.0
C182 C 0.06362 0.01002 0.69657 0.0
C183 C 0.06362 0.00652 0.83326 0.0
C184 C 0.10884 0.02212 0.70955 0.0
O185 O 0.09812 0.99217 0.79084 0.0
O186 O 0.10408 0.97705 0.72451 0.0
C187 C 0.0771 0.95396 0.67678 0.0
N188 N 0.07966 0.96839 0.65203 0.0
C189 C 0.06104 0.95738 0.58838 0.0
C190 C 0.05829 0.94235 0.61305 0.0
C191 C 0.06632 0.94066 0.65749 0.0
C192 C 0.07195 0.97018 0.60933 0.0
H193 H 0.08322 0.95263 0.711 0.0
C194 C 0.1057 0.97981 0.76889 0.0
O195 O 0.07542 0.01843 0.83029 0.0
O196 O 0.06152 0.99568 0.79792 0.0
N197 N 0.08468 0.99755 0.61187 0.0
C198 C 0.08797 0.01322 0.59371 0.0
C199 C 0.08051 0.01718 0.54994 0.0
C200 C 0.06988 0.00495 0.52513 0.0
C201 C 0.06684 0.98884 0.54427 0.0
C202 C 0.07469 0.98559 0.58794 0.0
H203 H 0.09616 0.02267 0.61253 0.0
O204 O 0.06109 0.02119 0.73061 0.0
O205 O 0.07506 0.99808 0.70468 0.0
O206 O 0.09812 0.02464 0.74207 0.0
O207 O 0.1088 0.00859 0.68231 0.0
C208 C 0.05613 0.97598 0.52206 0.0
C209 C 0.05318 0.96029 0.54417 0.0
H210 H 0.04993 0.93209 0.59837 0.0
H211 H 0.06419 0.92913 0.67684 0.0
H212 H 0.08292 0.02965 0.53539 0.0
H213 H 0.06404 0.0081 0.49154 0.0
H214 H 0.04989 0.97813 0.48827 0.0
H215 H 0.04469 0.95062 0.52707 0.0
Mn216 Mn 0.74413 0.33493 0.51643 0.0
Mn217 Mn 0.76203 0.34678 0.41683 0.0
C218 C 0.74246 0.3168 0.45058 0.0
C219 C 0.74711 0.32101 0.58716 0.0
C220 C 0.72783 0.36104 0.45021 0.0
O221 O 0.76011 0.35467 0.53895 0.0
O222 O 0.77216 0.36063 0.47094 0.0
C223 C 0.79771 0.33432 0.4365 0.0
N224 N 0.78308 0.33425 0.4084 0.0
C225 C 0.79597 0.31479 0.35206 0.0
C226 C 0.81121 0.31471 0.38027 0.0
C227 C 0.81206 0.32447 0.42276 0.0
C228 C 0.78207 0.32479 0.36768 0.0
H229 H 0.79841 0.34184 0.46912 0.0
C230 C 0.77059 0.36316 0.51505 0.0
O231 O 0.73495 0.3324 0.58037 0.0
O232 O 0.75773 0.31834 0.55378 0.0
N233 N 0.75355 0.33439 0.36144 0.0
C234 C 0.73768 0.33534 0.3392 0.0
C235 C 0.73457 0.32603 0.29659 0.0
C236 C 0.74785 0.31603 0.27702 0.0
C237 C 0.76414 0.31545 0.30024 0.0
C238 C 0.76648 0.32499 0.34259 0.0
H239 H 0.72744 0.34304 0.354 0.0
O240 O 0.73158 0.31511 0.48346 0.0
O241 O 0.754 0.32895 0.45731 0.0
O242 O 0.72712 0.35243 0.48737 0.0
O243 O 0.74032 0.35986 0.42228 0.0
C244 C 0.7781 0.30566 0.28322 0.0
C245 C 0.79397 0.30523 0.30926 0.0
H246 H 0.82232 0.30715 0.36978 0.0
H247 H 0.82376 0.32443 0.44479 0.0
H248 H 0.72196 0.32655 0.27888 0.0
H249 H 0.74537 0.3088 0.24427 0.0
H250 H 0.7767 0.29822 0.25044 0.0
H251 H 0.80451 0.29743 0.29617 0.0
Mn252 Mn 0.42011 0.01026 0.24715 0.0
Mn253 Mn 0.40806 0.993 0.34738 0.0
C254 C 0.43745 0.0137 0.31419 0.0
C255 C 0.43481 0.00688 0.17781 0.0
C256 C 0.39214 0.02572 0.30826 0.0
O257 O 0.40128 0.99309 0.22511 0.0
O258 O 0.39631 0.98053 0.2932 0.0
C259 C 0.42409 0.95835 0.33559 0.0
N260 N 0.42218 0.9734 0.36127 0.0
C261 C 0.44159 0.96356 0.42238 0.0
C262 C 0.44363 0.94788 0.3968 0.0
C263 C 0.43489 0.9453 0.35314 0.0
C264 C 0.43063 0.97608 0.40314 0.0
H265 H 0.41746 0.95636 0.30193 0.0
C266 C 0.39395 0.98173 0.24892 0.0
O267 O 0.42284 0.0186 0.18251 0.0
O268 O 0.43765 0.99688 0.2125 0.0
N269 N 0.41867 0.00373 0.40271 0.0
C270 C 0.41619 0.01998 0.42155 0.0
C271 C 0.42435 0.02482 0.46476 0.0
C272 C 0.43489 0.01288 0.48825 0.0
C273 C 0.43726 0.99624 0.4682 0.0
C274 C 0.42867 0.9921 0.42527 0.0
H275 H 0.40811 0.02922 0.4037 0.0
O276 O 0.43909 0.02413 0.28024 0.0
O277 O 0.42586 0.0016 0.30769 0.0
O278 O 0.4017 0.02681 0.27305 0.0
O279 O 0.39321 0.01335 0.33666 0.0
C280 C 0.44805 0.98369 0.48874 0.0
C281 C 0.45026 0.96739 0.46576 0.0
H282 H 0.45201 0.93781 0.41011 0.0
H283 H 0.4365 0.93329 0.33303 0.0
H284 H 0.42252 0.03772 0.47991 0.0
H285 H 0.4412 0.01668 0.52151 0.0
H286 H 0.45493 0.98655 0.52181 0.0
H287 H 0.45882 0.95796 0.48151 0.0
Mn288 Mn 0.75401 0.83557 0.51631 0.0
Mn289 Mn 0.73546 0.85192 0.4191 0.0
C290 C 0.75626 0.82087 0.44526 0.0
C291 C 0.75108 0.81856 0.58118 0.0
C292 C 0.76908 0.86566 0.46506 0.0
O293 O 0.73752 0.85389 0.54202 0.0
O294 O 0.72393 0.86165 0.47503 0.0
C295 C 0.70069 0.83598 0.42243 0.0
N296 N 0.71551 0.83851 0.39933 0.0
C297 C 0.70484 0.82105 0.33295 0.0
C298 C 0.68941 0.81834 0.3559 0.0
C299 C 0.68735 0.8258 0.40088 0.0
C300 C 0.71766 0.83135 0.35612 0.0
H301 H 0.69908 0.84166 0.45704 0.0
C302 C 0.72585 0.8623 0.51972 0.0
O303 O 0.76312 0.83034 0.58064 0.0
O304 O 0.74065 0.81708 0.54478 0.0
N305 N 0.74533 0.84338 0.36239 0.0
C306 C 0.76132 0.84655 0.34602 0.0
C307 C 0.76564 0.8396 0.30195 0.0
C308 C 0.75346 0.8296 0.27503 0.0
C309 C 0.73702 0.82669 0.29238 0.0
C310 C 0.73341 0.83401 0.33643 0.0
H311 H 0.77073 0.85424 0.3665 0.0
O312 O 0.76698 0.81763 0.47976 0.0
O313 O 0.7444 0.83235 0.45375 0.0
O314 O 0.77077 0.85446 0.49664 0.0
O315 O 0.75608 0.86623 0.43619 0.0
C316 C 0.72417 0.81659 0.268 0.0
C317 C 0.70811 0.81372 0.28833 0.0
H318 H 0.67912 0.81044 0.33948 0.0
H319 H 0.67551 0.8237 0.41891 0.0
H320 H 0.77836 0.84191 0.28881 0.0
H321 H 0.75689 0.82415 0.24122 0.0
H322 H 0.7266 0.81075 0.23387 0.0
H323 H 0.69844 0.8057 0.26954 0.0
Mn324 Mn 0.41863 0.50155 0.75242 0.0
Mn325 Mn 0.40573 0.52156 0.85187 0.0
C326 C 0.43525 0.49955 0.82044 0.0
C327 C 0.434 0.50358 0.6842 0.0
C328 C 0.39021 0.48759 0.81236 0.0
O329 O 0.40018 0.51824 0.72915 0.0
O330 O 0.39423 0.53236 0.79694 0.0
C331 C 0.42169 0.55593 0.84036 0.0
N332 N 0.4198 0.5416 0.86597 0.0
C333 C 0.43952 0.55303 0.9266 0.0
C334 C 0.4416 0.56797 0.90101 0.0
C335 C 0.43267 0.5694 0.85767 0.0
C336 C 0.42836 0.54006 0.90766 0.0
H337 H 0.41491 0.55704 0.80693 0.0
C338 C 0.39243 0.53012 0.75242 0.0
O339 O 0.4221 0.49178 0.68741 0.0
O340 O 0.4365 0.51421 0.71981 0.0
N341 N 0.41597 0.51258 0.90784 0.0
C342 C 0.41312 0.49704 0.92723 0.0
C343 C 0.42136 0.49341 0.9703 0.0
C344 C 0.43233 0.50583 0.99315 0.0
C345 C 0.43491 0.5218 0.97279 0.0
C346 C 0.42623 0.52476 0.93002 0.0
H347 H 0.40469 0.48745 0.9099 0.0
O348 O 0.43715 0.48838 0.78608 0.0
O349 O 0.42391 0.51169 0.81362 0.0
O350 O 0.39989 0.48559 0.77722 0.0
O351 O 0.39106 0.50082 0.84064 0.0
C352 C 0.44599 0.53479 0.99287 0.0
C353 C 0.44833 0.55038 0.96974 0.0
H354 H 0.45011 0.57835 0.91413 0.0
H355 H 0.43427 0.58084 0.8376 0.0
H356 H 0.41929 0.48105 0.9858 0.0
H357 H 0.43876 0.50293 0.02619 0.0
H358 H 0.45297 0.53282 0.02577 0.0
H359 H 0.45706 0.56017 0.98522 0.0
Mn360 Mn 0.75183 0.17577 0.0039 0.0
Mn361 Mn 0.7342 0.15966 0.09902 0.0
C362 C 0.75546 0.19016 0.07567 0.0
C363 C 0.74883 0.19308 0.93916 0.0
C364 C 0.76639 0.14478 0.0548 0.0
O365 O 0.73436 0.15802 0.97635 0.0
O366 O 0.72146 0.15056 0.04202 0.0
C367 C 0.69989 0.17666 0.09377 0.0
N368 N 0.71504 0.17354 0.11785 0.0
C369 C 0.70581 0.1903 0.18495 0.0
C370 C 0.69007 0.19364 0.16097 0.0
C371 C 0.68713 0.18684 0.11512 0.0
C372 C 0.71806 0.18011 0.16183 0.0
H373 H 0.69758 0.17141 0.05857 0.0
C374 C 0.7228 0.14985 0.99754 0.0
O375 O 0.76035 0.18082 0.94079 0.0
O376 O 0.73885 0.19486 0.97434 0.0
N377 N 0.74534 0.16757 0.15677 0.0
C378 C 0.76154 0.16387 0.17412 0.0
C379 C 0.76676 0.17017 0.21913 0.0
C380 C 0.75522 0.18003 0.24601 0.0
C381 C 0.73855 0.1835 0.2276 0.0
C382 C 0.73408 0.17689 0.18254 0.0
H383 H 0.77042 0.15621 0.15373 0.0
O384 O 0.76591 0.19318 0.04255 0.0
O385 O 0.74317 0.17903 0.06549 0.0
O386 O 0.76812 0.15617 0.02412 0.0
O387 O 0.75395 0.14474 0.08293 0.0
C388 C 0.72627 0.19342 0.25199 0.0
C389 C 0.70992 0.19685 0.23064 0.0
H390 H 0.6802 0.2015 0.1773 0.0
H391 H 0.67504 0.18942 0.09632 0.0
H392 H 0.77964 0.16742 0.2331 0.0
H393 H 0.75932 0.18493 0.28063 0.0
H394 H 0.72935 0.19869 0.28693 0.0
H395 H 0.70069 0.20473 0.24947 0.0
Mn396 Mn 0.07871 0.50221 0.26672 0.0
Mn397 Mn 0.09305 0.51993 0.16941 0.0
C398 C 0.06239 0.49997 0.19774 0.0
C399 C 0.06307 0.50515 0.33466 0.0
C400 C 0.10661 0.48593 0.20595 0.0
O401 O 0.09771 0.51849 0.29247 0.0
O402 O 0.10535 0.53042 0.22571 0.0
C403 C 0.07967 0.55549 0.18587 0.0
N404 N 0.08055 0.5408 0.15814 0.0
C405 C 0.06249 0.55331 0.09802 0.0
C406 C 0.06147 0.56861 0.12582 0.0
C407 C 0.07005 0.56967 0.17 0.0
C408 C 0.07223 0.53958 0.11576 0.0
H409 H 0.08627 0.55636 0.21982 0.0
C410 C 0.10669 0.52904 0.27013 0.0
O411 O 0.07476 0.49315 0.33 0.0
O412 O 0.06101 0.51565 0.30075 0.0
N413 N 0.08224 0.51116 0.11203 0.0
C414 C 0.08389 0.49523 0.09043 0.0
C415 C 0.07579 0.49191 0.04625 0.0
C416 C 0.06625 0.50503 0.02451 0.0
C417 C 0.0649 0.52138 0.04716 0.0
C418 C 0.07326 0.52394 0.09113 0.0
H419 H 0.09119 0.4851 0.10696 0.0
O420 O 0.05991 0.48926 0.2306 0.0
O421 O 0.07417 0.51178 0.2064 0.0
O422 O 0.09704 0.48532 0.24133 0.0
O423 O 0.10617 0.49836 0.17771 0.0
C424 C 0.05544 0.53517 0.02805 0.0
C425 C 0.05412 0.55108 0.0536 0.0
H426 H 0.05406 0.57958 0.1137 0.0
H427 H 0.06926 0.58141 0.19173 0.0
H428 H 0.07688 0.47925 0.02903 0.0
H429 H 0.05993 0.50239 0.99055 0.0
H430 H 0.04891 0.53359 0.994 0.0
H431 H 0.04656 0.56149 0.03886 0.0
Mn432 Mn 0.24497 0.17499 0.49877 0.0
Mn433 Mn 0.26379 0.15917 0.5963 0.0
C434 C 0.24273 0.18997 0.5694 0.0
C435 C 0.24766 0.19173 0.43333 0.0
C436 C 0.23018 0.14506 0.55122 0.0
O437 O 0.26151 0.15668 0.47343 0.0
O438 O 0.27524 0.1492 0.54049 0.0
C439 C 0.29845 0.17525 0.59183 0.0
N440 N 0.2837 0.17276 0.61528 0.0
C441 C 0.29439 0.19067 0.68079 0.0
C442 C 0.30975 0.19334 0.65747 0.0
C443 C 0.31176 0.18563 0.61275 0.0
C444 C 0.2816 0.18016 0.65825 0.0
H445 H 0.30003 0.16939 0.5574 0.0
C446 C 0.27322 0.14835 0.49582 0.0
O447 O 0.23571 0.17989 0.43436 0.0
O448 O 0.25815 0.19343 0.46957 0.0
N449 N 0.25401 0.16793 0.6529 0.0
C450 C 0.23809 0.16475 0.66967 0.0
C451 C 0.23381 0.17192 0.71355 0.0
C452 C 0.24597 0.18215 0.73987 0.0
C453 C 0.26235 0.18507 0.72212 0.0
C454 C 0.26592 0.17751 0.6783 0.0
H455 H 0.22868 0.15689 0.64964 0.0
O456 O 0.23194 0.19299 0.53489 0.0
O457 O 0.25466 0.17854 0.56114 0.0
O458 O 0.22838 0.15609 0.51924 0.0
O459 O 0.24322 0.1447 0.58001 0.0
C460 C 0.27517 0.1954 0.74587 0.0
C461 C 0.29116 0.19824 0.72516 0.0
H462 H 0.32001 0.2014 0.6734 0.0
H463 H 0.32355 0.18771 0.59444 0.0
H464 H 0.22114 0.16961 0.727 0.0
H465 H 0.24257 0.18777 0.77352 0.0
H466 H 0.27277 0.20142 0.7798 0.0
H467 H 0.3008 0.20643 0.74346 0.0
Mn468 Mn 0.57812 0.50975 0.26694 0.0
Mn469 Mn 0.59189 0.48993 0.16815 0.0
C470 C 0.56176 0.51133 0.1984 0.0
C471 C 0.56249 0.50754 0.33465 0.0
C472 C 0.60651 0.52426 0.20773 0.0
O473 O 0.59682 0.49349 0.29097 0.0
O474 O 0.60354 0.47953 0.22351 0.0
C475 C 0.57667 0.45524 0.17977 0.0
N476 N 0.57833 0.46955 0.15398 0.0
C477 C 0.55901 0.4576 0.0931 0.0
C478 C 0.55719 0.44267 0.11885 0.0
C479 C 0.56603 0.44151 0.16242 0.0
C480 C 0.56984 0.47083 0.11209 0.0
H481 H 0.58338 0.45433 0.21337 0.0
C482 C 0.60508 0.48188 0.26804 0.0
O483 O 0.57419 0.51954 0.33166 0.0
O484 O 0.56035 0.49678 0.29916 0.0
N485 N 0.58163 0.49857 0.11179 0.0
C486 C 0.58423 0.51412 0.09221 0.0
C487 C 0.57605 0.5175 0.04888 0.0
C488 C 0.56541 0.50482 0.02598 0.0
C489 C 0.56309 0.48884 0.04654 0.0
C490 C 0.57171 0.48614 0.08956 0.0
H491 H 0.59242 0.52392 0.10958 0.0
O492 O 0.55948 0.52249 0.23258 0.0
O493 O 0.57332 0.49943 0.20571 0.0
O494 O 0.59664 0.52608 0.24254 0.0
O495 O 0.60604 0.511 0.17951 0.0
C496 C 0.55234 0.47558 0.0264 0.0
C497 C 0.55027 0.45999 0.04972 0.0
H498 H 0.54893 0.43209 0.1057 0.0
H499 H 0.56461 0.43007 0.18261 0.0
H500 H 0.57791 0.52987 0.03324 0.0
H501 H 0.55901 0.50753 0.99276 0.0
H502 H 0.54542 0.47734 0.99332 0.0
H503 H 0.54179 0.44999 0.03419 0.0
Mn504 Mn 0.24521 0.83509 0.02111 0.0
Mn505 Mn 0.26344 0.84811 0.92338 0.0
C506 C 0.24144 0.81886 0.9523 0.0
C507 C 0.2481 0.81943 0.08888 0.0
C508 C 0.23154 0.86496 0.96479 0.0
O509 O 0.26283 0.85324 0.04518 0.0
O510 O 0.27672 0.85795 0.97883 0.0
C511 C 0.29705 0.82984 0.93092 0.0
N512 N 0.28201 0.83307 0.90646 0.0
C513 C 0.29021 0.81405 0.84252 0.0
C514 C 0.30586 0.81063 0.86685 0.0
C515 C 0.30926 0.81852 0.9113 0.0
C516 C 0.27857 0.8255 0.86376 0.0
H517 H 0.29967 0.83583 0.96517 0.0
C518 C 0.27498 0.86007 0.02301 0.0
O519 O 0.23667 0.83172 0.08527 0.0
O520 O 0.25806 0.81676 0.05399 0.0
N521 N 0.25182 0.83926 0.86717 0.0
C522 C 0.23566 0.84305 0.84969 0.0
C523 C 0.22998 0.8357 0.80614 0.0
C524 C 0.24098 0.82465 0.7809 0.0
C525 C 0.25759 0.82104 0.79944 0.0
C526 C 0.26259 0.82882 0.84286 0.0
H527 H 0.22716 0.85156 0.86886 0.0
O528 O 0.23092 0.81692 0.98593 0.0
O529 O 0.25385 0.83002 0.96037 0.0
O530 O 0.22928 0.85426 0.9969 0.0
O531 O 0.24423 0.86413 0.93738 0.0
C532 C 0.26926 0.80976 0.77696 0.0
C533 C 0.28554 0.80624 0.79852 0.0
H534 H 0.31527 0.80183 0.85197 0.0
H535 H 0.32126 0.81586 0.93043 0.0
H536 H 0.21712 0.83853 0.7921 0.0
H537 H 0.2365 0.81891 0.74749 0.0
H538 H 0.26572 0.8035 0.74344 0.0
H539 H 0.29427 0.79732 0.78126 0.0
Mn540 Mn 0.91906 0.50859 0.75264 0.0
Mn541 Mn 0.90549 0.49064 0.85051 0.0
C542 C 0.93594 0.51059 0.82069 0.0
C543 C 0.93414 0.50576 0.68374 0.0
C544 C 0.89172 0.52477 0.81542 0.0
O545 O 0.89981 0.49245 0.7277 0.0
O546 O 0.89266 0.48041 0.79474 0.0
C547 C 0.91856 0.45507 0.83225 0.0
N548 N 0.91798 0.46966 0.86043 0.0
C549 C 0.93644 0.45684 0.91915 0.0
C550 C 0.93716 0.44163 0.89088 0.0
C551 C 0.92824 0.44077 0.84716 0.0
C552 C 0.92665 0.47069 0.90235 0.0
H553 H 0.91169 0.45436 0.79867 0.0
C554 C 0.89094 0.48192 0.75042 0.0
O555 O 0.92253 0.51779 0.68926 0.0
O556 O 0.93642 0.49516 0.71734 0.0
N557 N 0.91682 0.49916 0.90745 0.0
C558 C 0.91539 0.51501 0.9296 0.0
C559 C 0.92385 0.51813 0.97341 0.0
C560 C 0.93349 0.50487 0.99423 0.0
C561 C 0.93459 0.4886 0.97104 0.0
C562 C 0.92589 0.48625 0.92747 0.0
H563 H 0.908 0.52524 0.91379 0.0
O564 O 0.93816 0.52139 0.78789 0.0
O565 O 0.92406 0.49884 0.81252 0.0
O566 O 0.90097 0.52545 0.77942 0.0
O567 O 0.8924 0.51231 0.84352 0.0
C568 C 0.94411 0.47468 0.98924 0.0
C569 C 0.94515 0.45885 0.96317 0.0
H570 H 0.9446 0.43057 0.90227 0.0
H571 H 0.92878 0.42911 0.82507 0.0
H572 H 0.92295 0.53073 0.99106 0.0
H573 H 0.94008 0.50736 0.02791 0.0
H574 H 0.95089 0.47609 0.023 0.0
H575 H 0.95276 0.44834 0.9772 0.0
C576 C 0.26327 0.30741 0.15391 0.0
C577 C 0.24955 0.30781 0.12031 0.0
C578 C 0.26341 0.29507 0.1886 0.0
C579 C 0.24525 0.25202 0.21102 0.0
H580 H 0.2593 0.26289 0.34016 0.0
C581 C 0.23582 0.20419 0.35891 0.0
C582 C 0.24887 0.20364 0.39433 0.0
C583 C 0.2364 0.21665 0.32472 0.0
C584 C 0.25555 0.25958 0.30409 0.0
H585 H 0.22487 0.29613 0.09804 0.0
H586 H 0.22504 0.27493 0.15846 0.0
H587 H 0.25941 0.28563 0.28335 0.0
H588 H 0.27308 0.21528 0.42068 0.0
H589 H 0.27423 0.23668 0.36081 0.0
H590 H 0.24141 0.22598 0.23159 0.0
C591 C 0.23587 0.28383 0.15759 0.0
C592 C 0.2556 0.27263 0.27158 0.0
C593 C 0.23573 0.29609 0.12312 0.0
C594 C 0.26275 0.21543 0.39404 0.0
C595 C 0.26335 0.22781 0.35991 0.0
C596 C 0.24523 0.23896 0.24347 0.0
C597 C 0.24985 0.28292 0.19018 0.0
C598 C 0.25034 0.26903 0.22473 0.0
C599 C 0.25006 0.22876 0.32523 0.0
C600 C 0.25031 0.24259 0.29046 0.0
H601 H 0.27412 0.31624 0.15255 0.0
H602 H 0.2744 0.29467 0.21319 0.0
H603 H 0.24142 0.24873 0.17498 0.0
H604 H 0.22493 0.19533 0.35834 0.0
H605 H 0.22587 0.21711 0.29872 0.0
C606 C 0.95088 0.98798 0.38862 0.0
C607 C 0.94767 0.00247 0.36175 0.0
C608 C 0.96333 0.98884 0.42529 0.0
C609 C 0.98874 0.02005 0.50158 0.0
H610 H 0.01835 0.98033 0.52195 0.0
C611 C 0.04805 0.02349 0.62981 0.0
C612 C 0.05128 0.00897 0.65658 0.0
C613 C 0.03556 0.02268 0.59325 0.0
C614 C 0.01012 0.99149 0.51696 0.0
H615 H 0.95558 0.02868 0.34884 0.0
H616 H 0.97754 0.03023 0.41254 0.0
H617 H 0.99622 0.97893 0.45921 0.0
H618 H 0.04333 0.98277 0.66944 0.0
H619 H 0.0213 0.9813 0.60594 0.0
H620 H 0.00265 0.03262 0.55932 0.0
C621 C 0.97003 0.01843 0.40683 0.0
C622 C 0.99737 0.99067 0.4811 0.0
C623 C 0.95749 0.01759 0.37048 0.0
C624 C 0.04141 0.99388 0.64788 0.0
C625 C 0.02883 0.99308 0.61164 0.0
C626 C 0.00148 0.02088 0.53744 0.0
C627 C 0.97306 0.00408 0.43475 0.0
C628 C 0.98652 0.00493 0.47305 0.0
C629 C 0.0258 0.00745 0.58379 0.0
C630 C 0.01234 0.00662 0.54549 0.0
H631 H 0.94361 0.97609 0.3816 0.0
H632 H 0.96525 0.97761 0.44638 0.0
H633 H 0.98049 0.03121 0.49659 0.0
H634 H 0.05535 0.03536 0.63682 0.0
H635 H 0.03363 0.03392 0.57221 0.0
C636 C 0.26889 0.71247 0.63836 0.0
C637 C 0.25415 0.70759 0.61102 0.0
C638 C 0.26763 0.72516 0.67416 0.0
C639 C 0.24039 0.76107 0.71772 0.0
H640 H 0.26056 0.74953 0.83859 0.0
C641 C 0.2274 0.80215 0.88501 0.0
C642 C 0.24201 0.80578 0.9142 0.0
C643 C 0.22842 0.78981 0.8482 0.0
C644 C 0.255 0.75304 0.80499 0.0
H645 H 0.22713 0.71311 0.59531 0.0
H646 H 0.2248 0.7352 0.65816 0.0
H647 H 0.26447 0.72999 0.7712 0.0
H648 H 0.26844 0.79851 0.93172 0.0
H649 H 0.27045 0.77728 0.86709 0.0
H650 H 0.23126 0.78435 0.75134 0.0
C651 C 0.23724 0.72913 0.65273 0.0
C652 C 0.25723 0.74183 0.76641 0.0
C653 C 0.23849 0.71637 0.61729 0.0
C654 C 0.25722 0.79621 0.90844 0.0
C655 C 0.25825 0.7839 0.87189 0.0
C656 C 0.2383 0.77239 0.75626 0.0
C657 C 0.2517 0.73337 0.68217 0.0
C658 C 0.24991 0.7457 0.72245 0.0
C659 C 0.24396 0.78077 0.84086 0.0
C660 C 0.24557 0.76848 0.80031 0.0
H661 H 0.28119 0.7061 0.63297 0.0
H662 H 0.27906 0.72843 0.69582 0.0
H663 H 0.23477 0.76446 0.68407 0.0
H664 H 0.21542 0.80916 0.88994 0.0
H665 H 0.21708 0.78741 0.82542 0.0
C666 C 0.45799 0.99216 0.13297 0.0
C667 C 0.44603 0.00579 0.13711 0.0
C668 C 0.47027 0.99207 0.09851 0.0
C669 C 0.49366 0.02179 0.02604 0.0
H670 H 0.50791 0.97937 0.96148 0.0
C671 C 0.5403 0.02053 0.87315 0.0
C672 C 0.55225 0.00686 0.8697 0.0
C673 C 0.52791 0.02079 0.90738 0.0
C674 C 0.50425 0.99128 0.97973 0.0
H675 H 0.43711 0.0297 0.10715 0.0
H676 H 0.45854 0.02946 0.0463 0.0
H677 H 0.48394 0.9787 0.01436 0.0
H678 H 0.56107 0.9831 0.90068 0.0
H679 H 0.53945 0.98363 0.96101 0.0
H680 H 0.51397 0.03436 0.99133 0.0
C681 C 0.45853 0.01895 0.07027 0.0
C682 C 0.49045 0.99092 0.00986 0.0
C683 C 0.44615 0.01901 0.10479 0.0
C684 C 0.55203 0.99381 0.90248 0.0
C685 C 0.53955 0.99403 0.93671 0.0
C686 C 0.50745 0.02215 0.99586 0.0
C687 C 0.47093 0.00562 0.06732 0.0
C688 C 0.48502 0.00616 0.03345 0.0
C689 C 0.52714 0.00736 0.93893 0.0
C690 C 0.51292 0.0069 0.9724 0.0
H691 H 0.45824 0.98177 0.15733 0.0
H692 H 0.4797 0.98169 0.09756 0.0
H693 H 0.49001 0.0337 0.04432 0.0
H694 H 0.54013 0.0308 0.84843 0.0
H695 H 0.51848 0.03117 0.90785 0.0
C696 C 0.23577 0.80755 0.16096 0.0
C697 C 0.24901 0.80782 0.12873 0.0
C698 C 0.23573 0.79493 0.19481 0.0
C699 C 0.25297 0.75118 0.21658 0.0
H700 H 0.23898 0.76109 0.34333 0.0
C701 C 0.26064 0.7023 0.36493 0.0
C702 C 0.24738 0.70193 0.39711 0.0
C703 C 0.26041 0.71469 0.33045 0.0
C704 C 0.24272 0.75806 0.30787 0.0
H705 H 0.27304 0.79569 0.10816 0.0
H706 H 0.27313 0.77403 0.1675 0.0
H707 H 0.23982 0.78445 0.2886 0.0
H708 H 0.22301 0.71358 0.41677 0.0
H709 H 0.22251 0.73489 0.35644 0.0
H710 H 0.25593 0.72479 0.23595 0.0
C711 C 0.26255 0.78322 0.16604 0.0
C712 C 0.24321 0.77147 0.27654 0.0
C713 C 0.26256 0.79574 0.13225 0.0
C714 C 0.23351 0.71361 0.39275 0.0
C715 C 0.23328 0.72593 0.3584 0.0
C716 C 0.2525 0.73778 0.24794 0.0
C717 C 0.24895 0.7824 0.19706 0.0
C718 C 0.24837 0.76819 0.23055 0.0
C719 C 0.24692 0.7269 0.32757 0.0
C720 C 0.24735 0.74106 0.29393 0.0
H721 H 0.22513 0.81665 0.15896 0.0
H722 H 0.22502 0.79462 0.21807 0.0
H723 H 0.25671 0.74814 0.18114 0.0
H724 H 0.27152 0.69351 0.36754 0.0
H725 H 0.27116 0.71514 0.30731 0.0
C726 C 0.45999 0.99738 0.35695 0.0
C727 C 0.45098 0.01292 0.35105 0.0
C728 C 0.47244 0.99608 0.39302 0.0
C729 C 0.48437 0.01608 0.50808 0.0
H730 H 0.52561 0.98793 0.49574 0.0
C731 C 0.53897 0.01455 0.64976 0.0
C732 C 0.54762 0.99885 0.65634 0.0
C733 C 0.52643 0.01586 0.61389 0.0
C734 C 0.51405 0.99567 0.49986 0.0
H735 H 0.44888 0.0398 0.37418 0.0
H736 H 0.47084 0.03765 0.43786 0.0
H737 H 0.50668 0.99234 0.42742 0.0
H738 H 0.54904 0.97177 0.63458 0.0
H739 H 0.527 0.97398 0.57106 0.0
H740 H 0.49182 0.01948 0.58051 0.0
C741 C 0.4679 0.02629 0.4156 0.0
C742 C 0.50322 0.99823 0.4607 0.0
C743 C 0.45544 0.02758 0.37925 0.0
C744 C 0.54276 0.9841 0.62898 0.0
C745 C 0.53025 0.98541 0.59276 0.0
C746 C 0.49523 0.01356 0.54721 0.0
C747 C 0.47625 0.0104 0.42344 0.0
C748 C 0.48824 0.00843 0.46441 0.0
C749 C 0.52223 0.00141 0.58432 0.0
C750 C 0.5102 0.00336 0.54346 0.0
H751 H 0.45705 0.98609 0.33435 0.0
H752 H 0.47854 0.98363 0.39819 0.0
H753 H 0.47277 0.02376 0.51227 0.0
H754 H 0.54222 0.02593 0.67171 0.0
H755 H 0.52056 0.02838 0.60818 0.0
C756 C 0.25887 0.21151 0.62029 0.0
C757 C 0.24366 0.202 0.61014 0.0
C758 C 0.25963 0.22381 0.65725 0.0
C759 C 0.23178 0.25128 0.73106 0.0
H760 H 0.27353 0.25597 0.81014 0.0
C761 C 0.23568 0.29634 0.89638 0.0
C762 C 0.25093 0.30604 0.90418 0.0
C763 C 0.23462 0.28343 0.86093 0.0
C764 C 0.26185 0.25494 0.78805 0.0
H765 H 0.21702 0.19829 0.62816 0.0
H766 H 0.21837 0.21951 0.69406 0.0
H767 H 0.27194 0.23367 0.74771 0.0
H768 H 0.27732 0.30946 0.88369 0.0
H769 H 0.27543 0.28714 0.82058 0.0
H770 H 0.22169 0.27254 0.7715 0.0
C771 C 0.22975 0.21752 0.67358 0.0
C772 C 0.26091 0.24213 0.75234 0.0
C773 C 0.22898 0.20531 0.63627 0.0
C774 C 0.26533 0.3023 0.87738 0.0
C775 C 0.26427 0.28946 0.84167 0.0
C776 C 0.2327 0.26407 0.76685 0.0
C777 C 0.2451 0.22692 0.68445 0.0
C778 C 0.24589 0.24019 0.7233 0.0
C779 C 0.24889 0.27988 0.83308 0.0
C780 C 0.24779 0.26613 0.79553 0.0
H781 H 0.27013 0.20954 0.59927 0.0
H782 H 0.27152 0.23109 0.66396 0.0
H783 H 0.22012 0.25033 0.70885 0.0
H784 H 0.22465 0.29864 0.91804 0.0
H785 H 0.22271 0.27606 0.85584 0.0
C786 C 0.04064 0.9917 0.8757 0.0
C787 C 0.05212 0.00574 0.87325 0.0
C788 C 0.02842 0.99148 0.91028 0.0
C789 C 0.00415 0.02078 0.98783 0.0
H790 H 0.99234 0.97837 0.04772 0.0
C791 C 0.95871 0.01938 0.14267 0.0
C792 C 0.94722 0.00534 0.14506 0.0
C793 C 0.97098 0.01958 0.10822 0.0
C794 C 0.99531 0.99026 0.0308 0.0
H795 H 0.06014 0.03036 0.90609 0.0
H796 H 0.03876 0.02994 0.96711 0.0
H797 H 0.01587 0.97831 0.9933 0.0
H798 H 0.93924 0.98071 0.11226 0.0
H799 H 0.9607 0.98109 0.05145 0.0
H800 H 0.98358 0.03273 0.0253 0.0
C801 C 0.03914 0.01918 0.94176 0.0
C802 C 0.00885 0.99025 -0.00022 0.0
C803 C 0.05147 0.01936 0.90712 0.0
C804 C 0.94792 0.99171 0.11128 0.0
C805 C 0.96029 0.99187 0.07675 0.0
C806 C 0.9906 0.02079 0.01885 0.0
C807 C 0.02732 0.00533 0.94331 0.0
C808 C 0.01343 0.00551 0.97789 0.0
C809 C 0.97211 0.00572 0.07525 0.0
C810 C 0.98603 0.00553 0.04073 0.0
H811 H 0.04079 0.98098 0.85015 0.0
H812 H 0.01942 0.98071 0.9101 0.0
H813 H 0.00711 0.03267 0.9709 0.0
H814 H 0.95852 0.03012 0.16817 0.0
H815 H 0.97998 0.03035 0.10844 0.0
C816 C 0.76166 0.71338 0.88941 0.0
C817 C 0.7475 0.70212 0.89304 0.0
C818 C 0.76168 0.72558 0.85481 0.0
C819 C 0.74166 0.73742 0.74177 0.0
H820 H 0.75709 0.78367 0.78192 0.0
C821 C 0.73563 0.79498 0.61996 0.0
C822 C 0.7497 0.80653 0.61985 0.0
C823 C 0.73482 0.78252 0.65386 0.0
C824 C 0.75293 0.7708 0.76997 0.0
H825 H 0.72253 0.69438 0.86199 0.0
H826 H 0.72254 0.71585 0.80106 0.0
H827 H 0.75678 0.76084 0.83822 0.0
H828 H 0.77381 0.81431 0.65583 0.0
H829 H 0.77253 0.79239 0.71494 0.0
H830 H 0.73796 0.74734 0.67339 0.0
C831 C 0.73365 0.71514 0.82515 0.0
C832 C 0.75273 0.7577 0.80226 0.0
C833 C 0.73363 0.70286 0.85999 0.0
C834 C 0.76276 0.80565 0.65514 0.0
C835 C 0.76199 0.7931 0.68905 0.0
C836 C 0.74191 0.75052 0.70939 0.0
C837 C 0.74753 0.72688 0.8229 0.0
C838 C 0.74721 0.74083 0.7885 0.0
C839 C 0.74811 0.78124 0.68843 0.0
C840 C 0.74761 0.76736 0.72306 0.0
H841 H 0.77265 0.71305 0.91402 0.0
H842 H 0.77274 0.73415 0.85338 0.0
H843 H 0.73751 0.72452 0.72998 0.0
H844 H 0.72528 0.79538 0.59342 0.0
H845 H 0.72377 0.77385 0.65286 0.0
C846 C 0.75977 0.29414 0.41072 0.0
C847 C 0.74404 0.303 0.41462 0.0
C848 C 0.76139 0.28076 0.37709 0.0
C849 C 0.73543 0.25113 0.29652 0.0
H850 H 0.77799 0.24844 0.22903 0.0
C851 C 0.73965 0.21143 0.12433 0.0
C852 C 0.75487 0.2021 0.11644 0.0
C853 C 0.73882 0.22308 0.16249 0.0
C854 C 0.7661 0.24884 0.24792 0.0
H855 H 0.71738 0.30444 0.38937 0.0
H856 H 0.72028 0.28157 0.3288 0.0
H857 H 0.77558 0.2694 0.29382 0.0
H858 H 0.78148 0.19813 0.13966 0.0
H859 H 0.77998 0.21821 0.20786 0.0
H860 H 0.72589 0.23072 0.25029 0.0
C861 C 0.73137 0.28468 0.35189 0.0
C862 C 0.76468 0.26094 0.28504 0.0
C863 C 0.7297 0.29788 0.38611 0.0
C864 C 0.76954 0.20505 0.14591 0.0
C865 C 0.76867 0.21659 0.18457 0.0
C866 C 0.73684 0.23908 0.25939 0.0
C867 C 0.74728 0.27603 0.34677 0.0
C868 C 0.74922 0.26242 0.3093 0.0
C869 C 0.75324 0.22565 0.19343 0.0
C870 C 0.75212 0.2379 0.23435 0.0
H871 H 0.77081 0.29759 0.43369 0.0
H872 H 0.7737 0.27413 0.37495 0.0
H873 H 0.72349 0.25158 0.31516 0.0
H874 H 0.72838 0.2097 0.10089 0.0
H875 H 0.7269 0.23017 0.16748 0.0
C876 C 0.76052 0.20567 0.86723 0.0
C877 C 0.74774 0.20537 0.90078 0.0
C878 C 0.76021 0.2184 0.83371 0.0
C879 C 0.74249 0.26214 0.81197 0.0
H880 H 0.7557 0.25145 0.6849 0.0
C881 C 0.73464 0.31001 0.66031 0.0
C882 C 0.7481 0.31018 0.62867 0.0
C883 C 0.7347 0.29789 0.69553 0.0
C884 C 0.75215 0.25469 0.72041 0.0
H885 H 0.72429 0.21779 0.92452 0.0
H886 H 0.72353 0.23966 0.86559 0.0
H887 H 0.75519 0.22846 0.74065 0.0
H888 H 0.77263 0.29844 0.61077 0.0
H889 H 0.77279 0.27758 0.67214 0.0
H890 H 0.73933 0.28839 0.79136 0.0
C891 C 0.73403 0.23037 0.86573 0.0
C892 C 0.75186 0.2415 0.75238 0.0
C893 C 0.73439 0.21772 0.8993 0.0
C894 C 0.76197 0.29857 0.6343 0.0
C895 C 0.76202 0.28651 0.66928 0.0
C896 C 0.7427 0.27533 0.77987 0.0
C897 C 0.74707 0.23104 0.83292 0.0
C898 C 0.7471 0.24505 0.79863 0.0
C899 C 0.7482 0.28573 0.69958 0.0
C900 C 0.74765 0.27177 0.73381 0.0
H901 H 0.77103 0.19639 0.86764 0.0
H902 H 0.77055 0.21862 0.80926 0.0
H903 H 0.73901 0.2654 0.8475 0.0
H904 H 0.72376 0.31876 0.65677 0.0
H905 H 0.72385 0.29759 0.71834 0.0
C906 C 0.73202 0.70975 0.13563 0.0
C907 C 0.74636 0.70554 0.10901 0.0
C908 C 0.73335 0.72271 0.17092 0.0
C909 C 0.7655 0.74758 0.24521 0.0
H910 H 0.72669 0.77842 0.26538 0.0
C911 C 0.76992 0.80571 0.37795 0.0
C912 C 0.75527 0.80901 0.40417 0.0
C913 C 0.76904 0.79371 0.34013 0.0
C914 C 0.7376 0.76985 0.26043 0.0
H915 H 0.7728 0.71228 0.09492 0.0
H916 H 0.77519 0.73513 0.15635 0.0
H917 H 0.72474 0.75635 0.20247 0.0
H918 H 0.72872 0.80166 0.41469 0.0
H919 H 0.72713 0.78048 0.34917 0.0
H920 H 0.77831 0.76098 0.30342 0.0
C921 C 0.76313 0.72801 0.15147 0.0
C922 C 0.73646 0.75716 0.22445 0.0
C923 C 0.7618 0.71495 0.11646 0.0
C924 C 0.73996 0.79969 0.39363 0.0
C925 C 0.73909 0.78761 0.35618 0.0
C926 C 0.76663 0.76026 0.28127 0.0
C927 C 0.74893 0.73198 0.17925 0.0
C928 C 0.75034 0.74578 0.21668 0.0
C929 C 0.75359 0.78453 0.32885 0.0
C930 C 0.75266 0.77148 0.28945 0.0
H931 H 0.71989 0.70281 0.12957 0.0
H932 H 0.72224 0.72535 0.19198 0.0
H933 H 0.77638 0.73897 0.24032 0.0
H934 H 0.78195 0.81257 0.38634 0.0
H935 H 0.7804 0.79172 0.31959 0.0
C936 C 0.53943 0.4949 0.15094 0.0
C937 C 0.54905 0.51017 0.15931 0.0
C938 C 0.52692 0.49378 0.11457 0.0
C939 C 0.51471 0.51322 0.0033 0.0
H940 H 0.47049 0.49081 0.01947 0.0
C941 C 0.45805 0.51559 0.86714 0.0
C942 C 0.44818 0.50047 0.85905 0.0
C943 C 0.47069 0.51654 0.9032 0.0
C944 C 0.48286 0.49692 0.0143 0.0
H945 H 0.55243 0.53668 0.13967 0.0
H946 H 0.53055 0.53477 0.07535 0.0
H947 H 0.49153 0.49336 0.0851 0.0
H948 H 0.44448 0.47402 0.87876 0.0
H949 H 0.46662 0.47561 0.9425 0.0
H950 H 0.50605 0.51678 0.9325 0.0
C951 C 0.53299 0.52351 0.09598 0.0
C952 C 0.49488 0.4984 0.05184 0.0
C953 C 0.54542 0.52464 0.13266 0.0
C954 C 0.4517 0.48595 0.88557 0.0
C955 C 0.46427 0.4869 0.92192 0.0
C956 C 0.5027 0.51173 0.96574 0.0
C957 C 0.52373 0.508 0.08635 0.0
C958 C 0.51092 0.50658 0.04671 0.0
C959 C 0.47377 0.50228 0.93136 0.0
C960 C 0.48665 0.50358 0.97089 0.0
H961 H 0.54169 0.4838 0.17236 0.0
H962 H 0.52003 0.48166 0.10789 0.0
H963 H 0.52707 0.51935 0.99817 0.0
H964 H 0.45587 0.52673 0.8458 0.0
H965 H 0.47775 0.52857 0.90972 0.0
C966 C 0.05095 0.49276 0.40639 0.0
C967 C 0.05143 0.50611 0.37452 0.0
C968 C 0.03841 0.49284 0.44046 0.0
C969 C 0.00686 0.52111 0.50138 0.0
H970 H 0.98285 0.47788 0.5191 0.0
C971 C 0.94584 0.5183 0.61163 0.0
C972 C 0.9455 0.50486 0.64327 0.0
C973 C 0.95819 0.51827 0.57703 0.0
C974 C 0.98951 0.49004 0.51484 0.0
H975 H 0.0396 0.53035 0.35453 0.0
H976 H 0.01783 0.53047 0.41362 0.0
H977 H 0.00661 0.47847 0.46553 0.0
H978 H 0.95736 0.48052 0.66228 0.0
H979 H 0.97879 0.48051 0.60239 0.0
H980 H 0.98978 0.53267 0.55077 0.0
C981 C 0.02713 0.51997 0.41261 0.0
C982 C 0.00318 0.49035 0.48428 0.0
C983 C 0.03958 0.51985 0.37856 0.0
C984 C 0.95727 0.49109 0.63845 0.0
C985 C 0.96953 0.49103 0.60392 0.0
C986 C 0.99319 0.52079 0.53197 0.0
C987 C 0.02618 0.50632 0.44345 0.0
C988 C 0.01203 0.50589 0.47721 0.0
C989 C 0.97036 0.50476 0.57331 0.0
C990 C 0.98437 0.50525 0.53913 0.0
H991 H 0.0599 0.48199 0.40414 0.0
H992 H 0.03817 0.48226 0.46417 0.0
H993 H 0.01353 0.53326 0.49712 0.0
H994 H 0.93694 0.5291 0.61448 0.0
H995 H 0.95833 0.52892 0.55353 0.0
C996 C 0.04073 0.51635 0.15155 0.0
C997 C 0.04973 0.50088 0.15868 0.0
C998 C 0.02832 0.51731 0.11514 0.0
C999 C 0.00075 0.48997 0.03318 0.0
H1000 H 0.99823 0.53191 0.96308 0.0
C1001 C 0.95791 0.49407 0.86547 0.0
C1002 C 0.94888 0.50957 0.85904 0.0
C1003 C 0.97058 0.49302 0.90122 0.0
C1004 C 0.99861 0.52017 0.98259 0.0
H1005 H 0.05235 0.474 0.13615 0.0
H1006 H 0.03111 0.47572 0.07092 0.0
H1007 H 0.01904 0.53004 0.02826 0.0
H1008 H 0.94648 0.53642 0.88206 0.0
H1009 H 0.96816 0.53455 0.94615 0.0
H1010 H 0.98032 0.48011 0.98751 0.0
C1011 C 0.03346 0.48712 0.09347 0.0
C1012 C 0.01063 0.51906 0.01993 0.0
C1013 C 0.04569 0.48613 0.13042 0.0
C1014 C 0.95315 0.52427 0.88727 0.0
C1015 C 0.96565 0.52319 0.92354 0.0
C1016 C 0.98874 0.49108 0.99583 0.0
C1017 C 0.02469 0.50276 0.08526 0.0
C1018 C 0.01186 0.50394 0.04565 0.0
C1019 C 0.97444 0.50751 0.9311 0.0
C1020 C 0.98746 0.50622 0.97023 0.0
H1021 H 0.04328 0.5277 0.17425 0.0
H1022 H 0.02152 0.52942 0.11062 0.0
H1023 H 0.00111 0.47824 0.05273 0.0
H1024 H 0.95517 0.48276 0.84276 0.0
H1025 H 0.97738 0.48088 0.90525 0.0
C1026 C 0.45623 0.51889 0.64038 0.0
C1027 C 0.44524 0.5045 0.64369 0.0
C1028 C 0.46842 0.51926 0.60578 0.0
C1029 C 0.49385 0.4902 0.53069 0.0
H1030 H 0.50462 0.53251 0.46894 0.0
C1031 C 0.54007 0.49211 0.37759 0.0
C1032 C 0.55103 0.50654 0.37471 0.0
C1033 C 0.52771 0.49169 0.41177 0.0
C1034 C 0.50195 0.52066 0.4864 0.0
H1035 H 0.43803 0.47943 0.61225 0.0
H1036 H 0.45938 0.4801 0.55114 0.0
H1037 H 0.48075 0.53216 0.52222 0.0
H1038 H 0.55804 0.53162 0.40647 0.0
H1039 H 0.53641 0.53085 0.46684 0.0
H1040 H 0.51506 0.47869 0.49489 0.0
C1041 C 0.45863 0.49103 0.57584 0.0
C1042 C 0.4882 0.52043 0.51675 0.0
C1043 C 0.4463 0.4907 0.61051 0.0
C1044 C 0.54978 0.52033 0.40787 0.0
C1045 C 0.5373 0.51993 0.44211 0.0
C1046 C 0.5076 0.49042 0.50033 0.0
C1047 C 0.47 0.50522 0.57358 0.0
C1048 C 0.48401 0.50521 0.53933 0.0
C1049 C 0.52595 0.5057 0.44396 0.0
C1050 C 0.51182 0.50566 0.47783 0.0
H1051 H 0.45573 0.52977 0.66537 0.0
H1052 H 0.47706 0.53031 0.60542 0.0
H1053 H 0.49118 0.47835 0.54818 0.0
H1054 H 0.5407 0.48126 0.35259 0.0
H1055 H 0.51909 0.48061 0.41182 0.0
C1056 C 0.12276 0.45881 0.22809 0.0
C1057 C 0.1184 0.4713 0.19508 0.0
C1058 C 0.13373 0.44495 0.21633 0.0
C1059 C 0.14613 0.41817 0.11725 0.0
H1060 H 0.19212 0.41323 0.17434 0.0
C1061 C 0.19956 0.38381 0.01875 0.0
C1062 C 0.21139 0.37317 0.04263 0.0
C1063 C 0.1878 0.39401 0.04317 0.0
C1064 C 0.1792 0.41419 0.15863 0.0
H1065 H 0.12233 0.47899 0.12398 0.0
H1066 H 0.14084 0.45474 0.10358 0.0
H1067 H 0.17172 0.43401 0.20869 0.0
H1068 H 0.22024 0.36513 0.1113 0.0
H1069 H 0.19947 0.38295 0.15407 0.0
H1070 H 0.15343 0.39869 0.06686 0.0
C1071 C 0.13588 0.45573 0.13848 0.0
C1072 C 0.16756 0.42606 0.17832 0.0
C1073 C 0.12529 0.46964 0.15035 0.0
C1074 C 0.21133 0.37321 0.09179 0.0
C1075 C 0.19946 0.38343 0.11633 0.0
C1076 C 0.15762 0.40624 0.09793 0.0
C1077 C 0.14014 0.44324 0.17116 0.0
C1078 C 0.15117 0.42851 0.15677 0.0
C1079 C 0.18742 0.3938 0.09217 0.0
C1080 C 0.17452 0.40457 0.11728 0.0
H1081 H 0.11774 0.45976 0.2629 0.0
H1082 H 0.13693 0.43543 0.24206 0.0
H1083 H 0.13348 0.41978 0.10032 0.0
H1084 H 0.1993 0.38428 0.98098 0.0
H1085 H 0.17904 0.40219 0.02348 0.0
C1086 C 0.77898 0.89518 0.44656 0.0
C1087 C 0.78313 0.87821 0.45888 0.0
C1088 C 0.7919 0.90656 0.43409 0.0
C1089 C 0.83254 0.90764 0.3773 0.0
H1090 H 0.83632 0.9545 0.43034 0.0
C1091 C 0.88272 0.95769 0.31644 0.0
C1092 C 0.87785 0.97522 0.31834 0.0
C1093 C 0.87191 0.94506 0.33394 0.0
C1094 C 0.83529 0.94156 0.41451 0.0
H1095 H 0.80401 0.85981 0.46818 0.0
H1096 H 0.82675 0.87973 0.445 0.0
H1097 H 0.81655 0.93411 0.46328 0.0
H1098 H 0.8575 0.99318 0.33704 0.0
H1099 H 0.83832 0.97123 0.36497 0.0
H1100 H 0.85064 0.91524 0.32706 0.0
C1101 C 0.81347 0.88421 0.44581 0.0
C1102 C 0.82408 0.92984 0.43384 0.0
C1103 C 0.80054 0.87292 0.45945 0.0
C1104 C 0.86163 0.97976 0.33552 0.0
C1105 C 0.85074 0.96717 0.35212 0.0
C1106 C 0.84358 0.91947 0.35737 0.0
C1107 C 0.80921 0.90108 0.43259 0.0
C1108 C 0.82245 0.91284 0.41511 0.0
C1109 C 0.85594 0.94971 0.35306 0.0
C1110 C 0.84489 0.93669 0.37526 0.0
H1111 H 0.76563 0.89953 0.4456 0.0
H1112 H 0.78827 0.91945 0.42378 0.0
H1113 H 0.83137 0.89462 0.36197 0.0
H1114 H 0.89526 0.95388 0.30386 0.0
H1115 H 0.87644 0.93179 0.33422 0.0
C1116 C 0.28615 0.6318 0.62702 0.0
C1117 C 0.28388 0.63785 0.5815 0.0
C1118 C 0.29997 0.62105 0.63856 0.0
C1119 C 0.32818 0.58795 0.59629 0.0
H1120 H 0.35661 0.60111 0.70659 0.0
C1121 C 0.38067 0.54271 0.67781 0.0
C1122 C 0.38113 0.5424 0.72696 0.0
C1123 C 0.37053 0.55495 0.65445 0.0
C1124 C 0.34875 0.59719 0.67586 0.0
H1125 H 0.29423 0.63694 0.51207 0.0
H1126 H 0.31837 0.61749 0.53237 0.0
H1127 H 0.33576 0.62166 0.67489 0.0
H1128 H 0.3709 0.55448 0.78987 0.0
H1129 H 0.35311 0.57537 0.74938 0.0
H1130 H 0.3405 0.5631 0.59877 0.0
C1131 C 0.30942 0.62145 0.55896 0.0
C1132 C 0.33694 0.609 0.65755 0.0
C1133 C 0.29568 0.63258 0.54749 0.0
C1134 C 0.37102 0.55439 0.75205 0.0
C1135 C 0.3609 0.56651 0.72879 0.0
C1136 C 0.33993 0.57599 0.61495 0.0
C1137 C 0.31174 0.61579 0.60479 0.0
C1138 C 0.32622 0.60433 0.61845 0.0
C1139 C 0.36067 0.56711 0.67978 0.0
C1140 C 0.34994 0.58032 0.65586 0.0
H1141 H 0.27732 0.63548 0.65416 0.0
H1142 H 0.30138 0.61667 0.674 0.0
H1143 H 0.31995 0.58406 0.56622 0.0
H1144 H 0.38834 0.5337 0.65737 0.0
H1145 H 0.37068 0.5551 0.61667 0.0
C1146 C 0.69812 0.12888 0.99333 0.0
C1147 C 0.71047 0.13841 0.9701 0.0
C1148 C 0.68708 0.11728 0.96857 0.0
C1149 C 0.66756 0.10626 0.85321 0.0
H1150 H 0.66202 0.06085 0.90427 0.0
C1151 C 0.62888 0.05145 0.75464 0.0
C1152 C 0.61816 0.04119 0.78105 0.0
C1153 C 0.64048 0.06326 0.77668 0.0
C1154 C 0.66326 0.07353 0.88985 0.0
H1155 H 0.7205 0.14355 0.9022 0.0
H1156 H 0.701 0.12317 0.85876 0.0
H1157 H 0.68162 0.08186 0.94386 0.0
H1158 H 0.61122 0.03537 0.85148 0.0
H1159 H 0.63131 0.05621 0.88994 0.0
H1160 H 0.64898 0.09803 0.79958 0.0
C1161 C 0.7 0.12478 0.8963 0.0
C1162 C 0.67452 0.08553 0.91242 0.0
C1163 C 0.71118 0.13638 0.92119 0.0
C1164 C 0.61935 0.04299 0.83008 0.0
C1165 C 0.63092 0.05488 0.85213 0.0
C1166 C 0.6562 0.09427 0.83071 0.0
C1167 C 0.68804 0.11495 0.91995 0.0
C1168 C 0.67668 0.10205 0.89453 0.0
C1169 C 0.6416 0.06515 0.82564 0.0
C1170 C 0.65386 0.07781 0.84898 0.0
H1171 H 0.69705 0.13017 0.0309 0.0
H1172 H 0.67776 0.1101 0.98756 0.0
H1173 H 0.66887 0.11897 0.83897 0.0
H1174 H 0.62839 0.05037 0.71679 0.0
H1175 H 0.64871 0.07078 0.7553 0.0
C1176 C 0.13031 0.55126 0.27227 0.0
C1177 C 0.11936 0.54044 0.29644 0.0
C1178 C 0.14221 0.56216 0.29655 0.0
C1179 C 0.15075 0.58449 0.41004 0.0
H1180 H 0.1973 0.58906 0.36564 0.0
C1181 C 0.20317 0.62516 0.51183 0.0
C1182 C 0.21389 0.63556 0.48577 0.0
C1183 C 0.19201 0.61301 0.48946 0.0
C1184 C 0.1843 0.58806 0.37817 0.0
H1185 H 0.11241 0.53264 0.3653 0.0
H1186 H 0.13329 0.55177 0.40776 0.0
H1187 H 0.17715 0.56856 0.32583 0.0
H1188 H 0.22122 0.64128 0.41558 0.0
H1189 H 0.20152 0.62021 0.37652 0.0
H1190 H 0.15778 0.60414 0.46197 0.0
C1191 C 0.13253 0.55179 0.36992 0.0
C1192 C 0.17279 0.5763 0.35546 0.0
C1193 C 0.12063 0.54079 0.34558 0.0
C1194 C 0.21321 0.63345 0.43676 0.0
C1195 C 0.20198 0.62131 0.41436 0.0
C1196 C 0.16224 0.59629 0.43267 0.0
C1197 C 0.14343 0.56257 0.34558 0.0
C1198 C 0.15587 0.57447 0.37101 0.0
C1199 C 0.19123 0.61099 0.4405 0.0
C1200 C 0.17912 0.59826 0.41684 0.0
H1201 H 0.1297 0.55139 0.23444 0.0
H1202 H 0.15027 0.57049 0.27689 0.0
H1203 H 0.13771 0.58352 0.42238 0.0
H1204 H 0.20339 0.62634 0.54965 0.0
H1205 H 0.18409 0.60508 0.51062 0.0
C1206 C 0.62289 0.95842 0.72484 0.0
C1207 C 0.61793 0.97007 0.69014 0.0
C1208 C 0.63412 0.94463 0.71456 0.0
C1209 C 0.64678 0.91643 0.61812 0.0
H1210 H 0.69288 0.91335 0.67582 0.0
C1211 C 0.70137 0.88341 0.52207 0.0
C1212 C 0.71348 0.87316 0.54629 0.0
C1213 C 0.68923 0.89323 0.54609 0.0
C1214 C 0.67993 0.91378 0.66004 0.0
H1215 H 0.62106 0.97634 0.61756 0.0
H1216 H 0.64007 0.95221 0.59976 0.0
H1217 H 0.67197 0.9341 0.70803 0.0
H1218 H 0.72239 0.86544 0.61521 0.0
H1219 H 0.70094 0.88269 0.65736 0.0
H1220 H 0.6546 0.89651 0.56962 0.0
C1221 C 0.63536 0.95379 0.63483 0.0
C1222 C 0.66801 0.92564 0.67847 0.0
C1223 C 0.62449 0.96765 0.6452 0.0
C1224 C 0.71326 0.87319 0.59544 0.0
C1225 C 0.70101 0.88308 0.61961 0.0
C1226 C 0.65857 0.90453 0.60005 0.0
C1227 C 0.64022 0.94213 0.66923 0.0
C1228 C 0.65158 0.92745 0.65653 0.0
C1229 C 0.68874 0.89305 0.59505 0.0
C1230 C 0.6755 0.90355 0.61958 0.0
H1231 H 0.61814 0.95999 0.75985 0.0
H1232 H 0.63779 0.93577 0.7416 0.0
H1233 H 0.6341 0.9175 0.60096 0.0
H1234 H 0.70119 0.88388 0.48431 0.0
H1235 H 0.68027 0.90111 0.52613 0.0
C1236 C 0.36694 0.47616 0.86131 0.0
C1237 C 0.37792 0.47363 0.82351 0.0
C1238 C 0.35625 0.46287 0.87494 0.0
C1239 C 0.33487 0.42234 0.83389 0.0
H1240 H 0.32914 0.41691 0.9666 0.0
C1241 C 0.27661 0.38652 0.90268 0.0
C1242 C 0.2791 0.37557 0.94054 0.0
C1243 C 0.28997 0.39706 0.88876 0.0
C1244 C 0.33073 0.41809 0.92945 0.0
H1245 H 0.38591 0.45502 0.76988 0.0
H1246 H 0.36702 0.4317 0.79371 0.0
H1247 H 0.35035 0.43756 0.9408 0.0
H1248 H 0.29774 0.36742 0.99385 0.0
H1249 H 0.32118 0.38604 0.96951 0.0
H1250 H 0.31521 0.4029 0.82255 0.0
C1251 C 0.36678 0.4441 0.81268 0.0
C1252 C 0.34276 0.43006 0.91462 0.0
C1253 C 0.3776 0.45747 0.79901 0.0
C1254 C 0.29531 0.37572 0.9647 0.0
C1255 C 0.30875 0.38638 0.95074 0.0
C1256 C 0.32282 0.41039 0.84873 0.0
C1257 C 0.35615 0.44662 0.85123 0.0
C1258 C 0.3447 0.4326 0.86668 0.0
C1259 C 0.30626 0.39703 0.91222 0.0
C1260 C 0.32034 0.40839 0.89668 0.0
H1261 H 0.36668 0.48842 0.88101 0.0
H1262 H 0.34793 0.46541 0.90404 0.0
H1263 H 0.336 0.42399 0.79676 0.0
H1264 H 0.26432 0.38689 0.88321 0.0
H1265 H 0.28747 0.40538 0.85968 0.0
C1266 C 0.79709 0.13417 0.05041 0.0
C1267 C 0.77969 0.13119 0.06038 0.0
C1268 C 0.8099 0.12221 0.06321 0.0
C1269 C 0.81702 0.08977 0.15188 0.0
H1270 H 0.85817 0.07743 0.08472 0.0
C1271 C 0.87763 0.03956 0.1737 0.0
C1272 C 0.88175 0.04292 0.22151 0.0
C1273 C 0.86597 0.05024 0.14959 0.0
C1274 C 0.84667 0.0807 0.10367 0.0
H1275 H 0.76183 0.11271 0.08749 0.0
H1276 H 0.78399 0.09182 0.1087 0.0
H1277 H 0.83577 0.09545 0.04768 0.0
H1278 H 0.87748 0.06069 0.28068 0.0
H1279 H 0.85739 0.07915 0.23875 0.0
H1280 H 0.82767 0.07509 0.20763 0.0
C1281 C 0.78789 0.10357 0.09247 0.0
C1282 C 0.83394 0.0911 0.08265 0.0
C1283 C 0.77518 0.11552 0.08017 0.0
C1284 C 0.87444 0.0575 0.24411 0.0
C1285 C 0.86286 0.06811 0.2201 0.0
C1286 C 0.82968 0.0795 0.17279 0.0
C1287 C 0.80545 0.10706 0.08584 0.0
C1288 C 0.81897 0.09572 0.10663 0.0
C1289 C 0.85824 0.06443 0.17286 0.0
C1290 C 0.84471 0.07495 0.14917 0.0
H1291 H 0.80092 0.14615 0.03519 0.0
H1292 H 0.82334 0.12527 0.05772 0.0
H1293 H 0.80579 0.09331 0.17167 0.0
H1294 H 0.88308 0.02849 0.15514 0.0
H1295 H 0.8626 0.04706 0.1132 0.0
C1296 C 0.79517 0.62502 -0.00079 0.0
C1297 C 0.78419 0.63626 0.97452 0.0
C1298 C 0.80704 0.61462 0.97584 0.0
C1299 C 0.81782 0.59531 0.86097 0.0
H1300 H 0.86255 0.5895 0.9247 0.0
C1301 C 0.87487 0.55151 0.79371 0.0
C1302 C 0.87985 0.53928 0.82684 0.0
C1303 C 0.86358 0.56508 0.80571 0.0
C1304 C 0.85016 0.59112 0.90634 0.0
H1305 H 0.77684 0.64502 0.90545 0.0
H1306 H 0.79782 0.62682 0.86451 0.0
H1307 H 0.84185 0.61007 0.95685 0.0
H1308 H 0.87677 0.53176 0.89846 0.0
H1309 H 0.85766 0.55546 0.91921 0.0
H1310 H 0.8263 0.57602 0.81073 0.0
C1311 C 0.79709 0.62606 0.90206 0.0
C1312 C 0.83825 0.60278 0.92488 0.0
C1313 C 0.78509 0.63649 0.92554 0.0
C1314 C 0.87333 0.54092 0.87199 0.0
C1315 C 0.8624 0.55455 0.88406 0.0
C1316 C 0.82987 0.58368 0.84213 0.0
C1317 C 0.80839 0.61523 0.92714 0.0
C1318 C 0.82171 0.60457 0.90339 0.0
C1319 C 0.85745 0.56677 0.85121 0.0
C1320 C 0.84591 0.58112 0.86558 0.0
H1321 H 0.79473 0.62432 0.03685 0.0
H1322 H 0.81521 0.60606 0.99611 0.0
H1323 H 0.80518 0.59639 0.84361 0.0
H1324 H 0.87958 0.55054 0.75857 0.0
H1325 H 0.85987 0.57438 0.77981 0.0
C1326 C 0.22048 0.11562 0.57111 0.0
C1327 C 0.21622 0.13246 0.55791 0.0
C1328 C 0.20761 0.10423 0.58389 0.0
C1329 C 0.16684 0.10318 0.63994 0.0
H1330 H 0.16341 0.05607 0.5885 0.0
C1331 C 0.11652 0.05337 0.7011 0.0
C1332 C 0.12137 0.03584 0.69976 0.0
C1333 C 0.12741 0.06592 0.68358 0.0
C1334 C 0.16435 0.06908 0.6039 0.0
H1335 H 0.1952 0.15062 0.54733 0.0
H1336 H 0.17257 0.13068 0.57106 0.0
H1337 H 0.18321 0.07636 0.55528 0.0
H1338 H 0.14176 0.01779 0.68208 0.0
H1339 H 0.16111 0.03961 0.65419 0.0
H1340 H 0.14861 0.09576 0.69005 0.0
C1341 C 0.18589 0.12631 0.57071 0.0
C1342 C 0.17557 0.08074 0.58441 0.0
C1343 C 0.19876 0.13761 0.55677 0.0
C1344 C 0.13765 0.03121 0.68316 0.0
C1345 C 0.14864 0.04373 0.66657 0.0
C1346 C 0.15579 0.09141 0.66006 0.0
C1347 C 0.19026 0.10958 0.5848 0.0
C1348 C 0.17706 0.09783 0.60253 0.0
C1349 C 0.14346 0.06119 0.66503 0.0
C1350 C 0.15459 0.0741 0.64274 0.0
H1351 H 0.23386 0.11138 0.57249 0.0
H1352 H 0.21133 0.09143 0.59486 0.0
H1353 H 0.16791 0.11627 0.65481 0.0
H1354 H 0.10393 0.05724 0.71321 0.0
H1355 H 0.1229 0.07919 0.68282 0.0
C1356 C 0.7127 0.37989 0.393 0.0
C1357 C 0.71372 0.37329 0.43808 0.0
C1358 C 0.70042 0.39232 0.38139 0.0
C1359 C 0.65904 0.41201 0.41289 0.0
H1360 H 0.67531 0.44835 0.33546 0.0
C1361 C 0.61626 0.46875 0.34242 0.0
C1362 C 0.61717 0.47046 0.29381 0.0
C1363 C 0.6277 0.45773 0.36612 0.0
C1364 C 0.67059 0.43831 0.35714 0.0
H1365 H 0.70213 0.37423 0.50594 0.0
H1366 H 0.68054 0.3963 0.48547 0.0
H1367 H 0.69582 0.42746 0.36675 0.0
H1368 H 0.63083 0.46198 0.23214 0.0
H1369 H 0.65081 0.44309 0.27349 0.0
H1370 H 0.63367 0.42298 0.40253 0.0
C1371 C 0.68935 0.39168 0.45923 0.0
C1372 C 0.6823 0.42631 0.37495 0.0
C1373 C 0.7017 0.37907 0.47093 0.0
C1374 C 0.62975 0.46099 0.26954 0.0
C1375 C 0.64127 0.45022 0.29324 0.0
C1376 C 0.64727 0.42418 0.39524 0.0
C1377 C 0.68885 0.39866 0.41454 0.0
C1378 C 0.67659 0.41267 0.40169 0.0
C1379 C 0.6404 0.4485 0.34171 0.0
C1380 C 0.6529 0.43709 0.36602 0.0
H1381 H 0.72152 0.37559 0.36645 0.0
H1382 H 0.70006 0.39703 0.34623 0.0
H1383 H 0.65426 0.40165 0.43338 0.0
H1384 H 0.60665 0.47579 0.36208 0.0
H1385 H 0.6268 0.45661 0.40353 0.0
C1386 C 0.37374 0.97269 0.18176 0.0
C1387 C 0.38219 0.96899 0.22452 0.0
C1388 C 0.36218 0.9607 0.15993 0.0
C1389 C 0.35218 0.91478 0.14933 0.0
H1390 H 0.30516 0.92874 0.11637 0.0
C1391 C 0.30424 0.87371 0.03168 0.0
C1392 C 0.28766 0.87138 0.04908 0.0
C1393 C 0.31599 0.88517 0.05449 0.0
C1394 C 0.31824 0.9247 0.1256 0.0
H1395 H 0.3855 0.94972 0.2774 0.0
H1396 H 0.36568 0.92871 0.2386 0.0
H1397 H 0.3257 0.95014 0.15169 0.0
H1398 H 0.27041 0.87909 0.10412 0.0
H1399 H 0.29097 0.89952 0.14358 0.0
H1400 H 0.34482 0.88941 0.12262 0.0
C1401 C 0.36787 0.94092 0.22234 0.0
C1402 C 0.32998 0.93693 0.14532 0.0
C1403 C 0.37913 0.95299 0.24456 0.0
C1404 C 0.28313 0.88058 0.0901 0.0
C1405 C 0.2948 0.89231 0.11245 0.0
C1406 C 0.34054 0.90264 0.12887 0.0
C1407 C 0.35922 0.94473 0.18008 0.0
C1408 C 0.347 0.93202 0.15753 0.0
C1409 C 0.31128 0.89473 0.09464 0.0
C1410 C 0.32347 0.90749 0.11709 0.0
H1411 H 0.37581 0.98494 0.16563 0.0
H1412 H 0.35567 0.96384 0.12718 0.0
H1413 H 0.36527 0.91075 0.15842 0.0
H1414 H 0.30812 0.86674 0.00022 0.0
H1415 H 0.32862 0.8869 0.04007 0.0
C1416 C 0.78302 0.37823 0.5881 0.0
C1417 C 0.78174 0.37659 0.53905 0.0
C1418 C 0.79409 0.39059 0.61024 0.0
C1419 C 0.83281 0.41667 0.58896 0.0
H1420 H 0.81976 0.44262 0.70076 0.0
C1421 C 0.87561 0.47118 0.67586 0.0
C1422 C 0.87788 0.47078 0.72476 0.0
C1423 C 0.86328 0.46051 0.65212 0.0
C1424 C 0.8236 0.43539 0.66969 0.0
H1425 H 0.7907 0.38704 0.47483 0.0
H1426 H 0.80969 0.40865 0.51341 0.0
H1427 H 0.79913 0.42238 0.6617 0.0
H1428 H 0.86886 0.45886 0.78696 0.0
H1429 H 0.84754 0.44031 0.74551 0.0
H1430 H 0.85729 0.42963 0.59707 0.0
C1431 C 0.80246 0.40016 0.53478 0.0
C1432 C 0.81181 0.42378 0.64742 0.0
C1433 C 0.79149 0.3878 0.51269 0.0
C1434 C 0.86748 0.45956 0.74931 0.0
C1435 C 0.85515 0.44899 0.72563 0.0
C1436 C 0.84456 0.42831 0.61114 0.0
C1437 C 0.80403 0.40158 0.58376 0.0
C1438 C 0.81633 0.41422 0.60697 0.0
C1439 C 0.85293 0.44932 0.67683 0.0
C1440 C 0.84012 0.43768 0.65192 0.0
H1441 H 0.77572 0.36979 0.60944 0.0
H1442 H 0.79517 0.39125 0.64809 0.0
H1443 H 0.83678 0.4093 0.55826 0.0
H1444 H 0.88338 0.47968 0.65586 0.0
H1445 H 0.86174 0.46112 0.61447 0.0
C1446 C 0.28601 0.13761 0.42029 0.0
C1447 C 0.28543 0.13729 0.46932 0.0
C1448 C 0.29807 0.12747 0.39615 0.0
C1449 C 0.33946 0.10406 0.41646 0.0
H1450 H 0.32608 0.07699 0.30388 0.0
C1451 C 0.3725 0.04107 0.36327 0.0
C1452 C 0.37971 0.03983 0.31889 0.0
C1453 C 0.36157 0.05472 0.37516 0.0
C1454 C 0.33003 0.08473 0.33483 0.0
H1455 H 0.29684 0.12567 0.53113 0.0
H1456 H 0.31739 0.10793 0.48933 0.0
H1457 H 0.3056 0.09786 0.33754 0.0
H1458 H 0.38051 0.05175 0.25161 0.0
H1459 H 0.36079 0.0756 0.27246 0.0
H1460 H 0.36347 0.09025 0.41525 0.0
C1461 C 0.30891 0.11632 0.46946 0.0
C1462 C 0.31836 0.09667 0.35409 0.0
C1463 C 0.29698 0.12643 0.49346 0.0
C1464 C 0.37525 0.05238 0.28614 0.0
C1465 C 0.36397 0.06597 0.29792 0.0
C1466 C 0.35098 0.09206 0.39758 0.0
C1467 C 0.30976 0.11684 0.42061 0.0
C1468 C 0.32278 0.10605 0.39601 0.0
C1469 C 0.35731 0.06734 0.34284 0.0
C1470 C 0.34619 0.08197 0.3574 0.0
H1471 H 0.27732 0.14585 0.40059 0.0
H1472 H 0.29842 0.12818 0.35852 0.0
H1473 H 0.34346 0.11142 0.44802 0.0
H1474 H 0.37554 0.03166 0.38944 0.0
H1475 H 0.35642 0.05545 0.40987 0.0
C1476 C 0.63063 0.53558 0.16167 0.0
C1477 C 0.61859 0.53842 0.19685 0.0
C1478 C 0.64106 0.54901 0.14764 0.0
C1479 C 0.65944 0.59146 0.18436 0.0
H1480 H 0.66815 0.5937 0.05214 0.0
C1481 C 0.71825 0.62712 0.1183 0.0
C1482 C 0.7165 0.63672 0.07755 0.0
C1483 C 0.70472 0.61684 0.13241 0.0
C1484 C 0.66569 0.59343 0.08908 0.0
H1485 H 0.60846 0.55772 0.24559 0.0
H1486 H 0.62688 0.58132 0.22104 0.0
H1487 H 0.64725 0.57283 0.0783 0.0
H1488 H 0.69895 0.64281 0.01957 0.0
H1489 H 0.67522 0.62461 0.04424 0.0
H1490 H 0.67796 0.61201 0.19514 0.0
C1491 C 0.62815 0.56856 0.20444 0.0
C1492 C 0.65385 0.58133 0.10417 0.0
C1493 C 0.61762 0.55504 0.21856 0.0
C1494 C 0.7008 0.63557 0.051 0.0
C1495 C 0.6872 0.62514 0.06513 0.0
C1496 C 0.6713 0.60355 0.16927 0.0
C1497 C 0.63981 0.56573 0.16828 0.0
C1498 C 0.6509 0.57991 0.15209 0.0
C1499 C 0.68899 0.61577 0.10625 0.0
C1500 C 0.67487 0.6044 0.12155 0.0
H1501 H 0.63193 0.52295 0.14432 0.0
H1502 H 0.6502 0.54624 0.12059 0.0
H1503 H 0.65749 0.59071 0.22148 0.0
H1504 H 0.7301 0.62758 0.13981 0.0
H1505 H 0.7067 0.60952 0.16366 0.0
C1506 C 0.22322 0.8934 0.93243 0.0
C1507 C 0.21858 0.87872 0.95665 0.0
C1508 C 0.21075 0.90543 0.91903 0.0
C1509 C 0.18102 0.9193 0.86178 0.0
H1510 H 0.14202 0.93502 0.93345 0.0
C1511 C 0.12351 0.95287 0.77336 0.0
C1512 C 0.11715 0.96801 0.79551 0.0
C1513 C 0.13506 0.94212 0.79699 0.0
C1514 C 0.15292 0.93081 0.91319 0.0
H1515 H 0.19735 0.86565 0.98812 0.0
H1516 H 0.17535 0.88662 0.96373 0.0
H1517 H 0.16437 0.91684 0.9699 0.0
H1518 H 0.1175 0.98334 0.8607 0.0
H1519 H 0.13797 0.96457 0.9019 0.0
H1520 H 0.16986 0.93329 0.80537 0.0
C1521 C 0.18873 0.88887 0.95561 0.0
C1522 C 0.16561 0.9203 0.9339 0.0
C1523 C 0.20131 0.87683 0.96945 0.0
C1524 C 0.1222 0.97182 0.84253 0.0
C1525 C 0.13385 0.96103 0.86623 0.0
C1526 C 0.1684 0.92972 0.8412 0.0
C1527 C 0.19327 0.90301 0.92902 0.0
C1528 C 0.17981 0.91445 0.90833 0.0
C1529 C 0.14064 0.94624 0.84334 0.0
C1530 C 0.15414 0.9355 0.86646 0.0
H1531 H 0.23648 0.8954 0.92275 0.0
H1532 H 0.21474 0.91643 0.89966 0.0
H1533 H 0.19162 0.91481 0.8408 0.0
H1534 H 0.11971 0.94934 0.73744 0.0
H1535 H 0.13976 0.93061 0.77871 0.0
loop_
_geom_bond_atom_site_label_1
_geom_bond_atom_site_label_2
_geom_bond_distance
_geom_bond_site_symmetry_2
_ccdc_geom_bond_type
Mn0 O5 2.095 . S
Mn0 O15 2.162 . S
Mn0 O16 2.297 . S
Mn0 O24 2.385 1_554 S
Mn0 O25 2.209 1_554 S
Mn0 O26 2.094 . S
Mn1 O6 2.121 . S
Mn1 N8 2.257 . S
Mn1 N17 2.282 . S
Mn1 O25 2.215 . S
Mn1 O27 2.117 . S
C2 O24 1.234 . S
C2 O25 1.283 . S
C3 O15 1.281 . S
C3 O16 1.236 . S
C4 O26 1.240 1_556 S
C4 O27 1.264 . S
O5 Mn0 2.095 . S
O5 C14 1.250 . S
O6 Mn1 2.121 . S
O6 C14 1.258 1_556 S
C7 N8 1.326 . S
C7 C11 1.460 . S
C7 H13 0.929 . S
N8 Mn1 2.257 . S
N8 C7 1.326 . S
N8 C12 1.362 . S
C9 C10 1.258 . S
C9 C12 1.431 . S
C9 C29 1.449 . S
C10 C9 1.258 . S
C10 C11 1.477 . S
C10 H30 0.931 . S
C11 C7 1.460 . S
C11 C10 1.477 . S
C11 H31 0.930 . S
C12 N8 1.362 . S
C12 C9 1.431 . S
C12 C22 1.476 . S
H13 C7 0.929 . S
C14 O5 1.250 . S
C14 O6 1.258 1_554 S
O15 Mn0 2.162 . S
O15 C3 1.281 . S
O16 Mn0 2.297 . S
O16 C3 1.236 . S
N17 Mn1 2.282 . S
N17 C18 1.328 . S
N17 C22 1.318 . S
C18 N17 1.328 . S
C18 C19 1.457 . S
C18 H23 0.929 . S
C19 C18 1.457 . S
C19 C20 1.291 . S
C19 H32 0.931 . S
C20 C19 1.291 . S
C20 C21 1.373 . S
C20 H33 0.929 . S
C21 C20 1.373 . S
C21 C22 1.396 . S
C21 C28 1.403 . S
C22 C12 1.476 . S
C22 N17 1.318 . S
C22 C21 1.396 . S
H23 C18 0.929 . S
O24 Mn0 2.385 1_556 S
O24 C2 1.234 . S
O25 Mn0 2.209 1_556 S
O25 Mn1 2.215 . S
O25 C2 1.283 . S
O26 Mn0 2.094 . S
O26 C4 1.240 1_554 S
O27 Mn1 2.117 . S
O27 C4 1.264 . S
C28 C21 1.403 . S
C28 C29 1.399 . S
C28 H34 0.929 . S
C29 C9 1.449 . S
C29 C28 1.399 . S
C29 H35 0.930 . S
H30 C10 0.931 . S
H31 C11 0.930 . S
H32 C19 0.931 . S
H33 C20 0.929 . S
H34 C28 0.929 . S
H35 C29 0.930 . S
Mn36 O41 2.109 . S
Mn36 O51 2.153 1_545 S
Mn36 O52 2.310 . S
Mn36 O60 2.379 1_545 S
Mn36 O61 2.221 . S
Mn36 O62 2.075 1_545 S
Mn37 O42 2.121 . S
Mn37 N44 2.257 . S
Mn37 N53 2.282 . S
Mn37 O61 2.215 . S
Mn37 O63 2.117 1_545 S
C38 O60 1.234 1_545 S
C38 O61 1.283 . S
C39 O51 1.281 1_545 S
C39 O52 1.236 . S
C40 O62 1.240 . S
C40 O63 1.264 . S
O41 Mn36 2.109 . S
O41 C50 1.250 . S
O42 Mn37 2.121 . S
O42 C50 1.258 . S
C43 N44 1.326 . S
C43 C47 1.460 . S
C43 H49 0.929 . S
N44 Mn37 2.257 . S
N44 C43 1.326 . S
N44 C48 1.362 . S
C45 C46 1.258 . S
C45 C48 1.431 . S
C45 C65 1.449 . S
C46 C45 1.258 . S
C46 C47 1.477 . S
C46 H66 0.931 . S
C47 C43 1.460 . S
C47 C46 1.477 . S
C47 H67 0.930 . S
C48 N44 1.362 . S
C48 C45 1.431 . S
C48 C58 1.476 . S
H49 C43 0.929 . S
C50 O41 1.250 . S
C50 O42 1.258 . S
O51 Mn36 2.153 1_565 S
O51 C39 1.281 1_565 S
O52 Mn36 2.310 . S
O52 C39 1.236 . S
N53 Mn37 2.282 . S
N53 C54 1.328 1_545 S
N53 C58 1.318 . S
C54 N53 1.328 1_565 S
C54 C55 1.457 . S
C54 H59 0.929 . S
C55 C54 1.457 . S
C55 C56 1.326 . S
C55 H68 0.931 . S
C56 C55 1.326 . S
C56 C57 1.323 1_565 S
C56 H69 0.947 . S
C57 C56 1.323 1_545 S
C57 C58 1.396 . S
C57 C64 1.403 . S
C58 C48 1.476 . S
C58 N53 1.318 . S
C58 C57 1.396 . S
H59 C54 0.929 . S
O60 Mn36 2.379 1_565 S
O60 C38 1.234 1_565 S
O61 Mn36 2.221 . S
O61 Mn37 2.215 . S
O61 C38 1.283 . S
O62 Mn36 2.075 1_565 S
O62 C40 1.240 . S
O63 Mn37 2.117 1_565 S
O63 C40 1.264 . S
C64 C57 1.403 . S
C64 C65 1.399 . S
C64 H70 0.929 . S
C65 C45 1.449 . S
C65 C64 1.399 . S
C65 H71 0.930 . S
H66 C46 0.931 . S
H67 C47 0.930 . S
H68 C55 0.931 . S
H69 C56 0.947 . S
H70 C64 0.929 . S
H71 C65 0.930 . S
Mn72 O77 2.095 . S
Mn72 O87 2.162 . S
Mn72 O88 2.297 . S
Mn72 O96 2.385 . S
Mn72 O97 2.209 . S
Mn72 O98 2.094 . S
Mn73 O78 2.121 . S
Mn73 N80 2.257 . S
Mn73 N89 2.282 . S
Mn73 O97 2.215 . S
Mn73 O99 2.117 . S
C74 O96 1.234 . S
C74 O97 1.283 . S
C75 O87 1.281 . S
C75 O88 1.236 . S
C76 O98 1.240 . S
C76 O99 1.264 . S
O77 Mn72 2.095 . S
O77 C86 1.250 . S
O78 Mn73 2.121 . S
O78 C86 1.258 . S
C79 N80 1.326 . S
C79 C83 1.460 . S
C79 H85 0.929 . S
N80 Mn73 2.257 . S
N80 C79 1.326 . S
N80 C84 1.362 . S
C81 C82 1.258 . S
C81 C84 1.431 . S
C81 C101 1.449 . S
C82 C81 1.258 . S
C82 C83 1.477 . S
C82 H102 0.931 . S
C83 C79 1.460 . S
C83 C82 1.477 . S
C83 H103 0.930 . S
C84 N80 1.362 . S
C84 C81 1.431 . S
C84 C94 1.476 . S
H85 C79 0.929 . S
C86 O77 1.250 . S
C86 O78 1.258 . S
O87 Mn72 2.162 . S
O87 C75 1.281 . S
O88 Mn72 2.297 . S
O88 C75 1.236 . S
N89 Mn73 2.282 . S
N89 C90 1.328 . S
N89 C94 1.318 . S
C90 N89 1.328 . S
C90 C91 1.457 . S
C90 H95 0.929 . S
C91 C90 1.457 . S
C91 C92 1.291 . S
C91 H104 0.931 . S
C92 C91 1.291 . S
C92 C93 1.373 . S
C92 H105 0.929 . S
C93 C92 1.373 . S
C93 C94 1.396 . S
C93 C100 1.403 . S
C94 C84 1.476 . S
C94 N89 1.318 . S
C94 C93 1.396 . S
H95 C90 0.929 . S
O96 Mn72 2.385 . S
O96 C74 1.234 . S
O97 Mn72 2.209 . S
O97 Mn73 2.215 . S
O97 C74 1.283 . S
O98 Mn72 2.094 . S
O98 C76 1.240 . S
O99 Mn73 2.117 . S
O99 C76 1.264 . S
C100 C93 1.403 . S
C100 C101 1.399 . S
C100 H106 0.929 . S
C101 C81 1.449 . S
C101 C100 1.399 . S
C101 H107 0.930 . S
H102 C82 0.931 . S
H103 C83 0.930 . S
H104 C91 0.931 . S
H105 C92 0.929 . S
H106 C100 0.929 . S
H107 C101 0.930 . S
Mn108 O113 2.115 . S
Mn108 O123 2.148 1_545 S
Mn108 O124 2.314 . S
Mn108 O132 2.378 1_545 S
Mn108 O133 2.228 . S
Mn108 O134 2.068 1_545 S
Mn109 O114 2.121 . S
Mn109 N116 2.257 . S
Mn109 N125 2.282 . S
Mn109 O133 2.215 . S
Mn109 O135 2.117 1_545 S
C110 O132 1.234 1_545 S
C110 O133 1.283 . S
C111 O123 1.281 1_545 S
C111 O124 1.236 . S
C112 O134 1.240 . S
C112 O135 1.264 . S
O113 Mn108 2.115 . S
O113 C122 1.250 . S
O114 Mn109 2.121 . S
O114 C122 1.258 . S
C115 N116 1.326 . S
C115 C119 1.460 . S
C115 H121 0.929 . S
N116 Mn109 2.257 . S
N116 C115 1.326 . S
N116 C120 1.362 . S
C117 C118 1.258 . S
C117 C120 1.431 . S
C117 C137 1.449 . S
C118 C117 1.258 . S
C118 C119 1.477 . S
C118 H138 0.931 . S
C119 C115 1.460 . S
C119 C118 1.477 . S
C119 H139 0.930 . S
C120 N116 1.362 . S
C120 C117 1.431 . S
C120 C130 1.476 . S
H121 C115 0.929 . S
C122 O113 1.250 . S
C122 O114 1.258 . S
O123 Mn108 2.148 1_565 S
O123 C111 1.281 1_565 S
O124 Mn108 2.314 . S
O124 C111 1.236 . S
N125 Mn109 2.282 . S
N125 C126 1.328 1_545 S
N125 C130 1.318 . S
C126 N125 1.328 1_565 S
C126 C127 1.457 . S
C126 H131 0.929 . S
C127 C126 1.457 . S
C127 C128 1.291 . S
C127 H140 0.931 . S
C128 C127 1.291 . S
C128 C129 1.373 1_565 S
C128 H141 0.929 . S
C129 C128 1.373 1_545 S
C129 C130 1.396 . S
C129 C136 1.403 . S
C130 C120 1.476 . S
C130 N125 1.318 . S
C130 C129 1.396 . S
H131 C126 0.929 . S
O132 Mn108 2.378 1_565 S
O132 C110 1.234 1_565 S
O133 Mn108 2.228 . S
O133 Mn109 2.215 . S
O133 C110 1.283 . S
O134 Mn108 2.068 1_565 S
O134 C112 1.240 . S
O135 Mn109 2.117 1_565 S
O135 C112 1.264 . S
C136 C129 1.403 . S
C136 C137 1.399 . S
C136 H142 0.929 . S
C137 C117 1.449 . S
C137 C136 1.399 . S
C137 H143 0.930 . S
H138 C118 0.931 . S
H139 C119 0.930 . S
H140 C127 0.931 . S
H141 C128 0.929 . S
H142 C136 0.929 . S
H143 C137 0.930 . S
Mn144 O149 2.095 1_554 S
Mn144 O159 2.162 1_554 S
Mn144 O160 2.297 1_554 S
Mn144 O168 2.385 . S
Mn144 O169 2.209 . S
Mn144 O170 2.094 . S
Mn145 O150 2.121 . S
Mn145 N152 2.257 . S
Mn145 N161 2.282 . S
Mn145 O169 2.215 . S
Mn145 O171 2.117 . S
C146 O168 1.234 . S
C146 O169 1.283 . S
C147 O159 1.281 . S
C147 O160 1.236 . S
C148 O170 1.240 . S
C148 O171 1.264 . S
O149 Mn144 2.095 1_556 S
O149 C158 1.250 . S
O150 Mn145 2.121 . S
O150 C158 1.258 1_554 S
C151 N152 1.326 . S
C151 C155 1.460 . S
C151 H157 0.929 . S
N152 Mn145 2.257 . S
N152 C151 1.326 . S
N152 C156 1.362 . S
C153 C154 1.258 . S
C153 C156 1.431 . S
C153 C173 1.449 . S
C154 C153 1.258 . S
C154 C155 1.477 . S
C154 H174 0.931 . S
C155 C151 1.460 . S
C155 C154 1.477 . S
C155 H175 0.930 . S
C156 N152 1.362 . S
C156 C153 1.431 . S
C156 C166 1.476 . S
H157 C151 0.929 . S
C158 O149 1.250 . S
C158 O150 1.258 1_556 S
O159 Mn144 2.162 1_556 S
O159 C147 1.281 . S
O160 Mn144 2.297 1_556 S
O160 C147 1.236 . S
N161 Mn145 2.282 . S
N161 C162 1.328 . S
N161 C166 1.318 . S
C162 N161 1.328 . S
C162 C163 1.457 . S
C162 H167 0.929 . S
C163 C162 1.457 . S
C163 C164 1.291 . S
C163 H176 0.931 . S
C164 C163 1.291 . S
C164 C165 1.373 . S
C164 H177 0.929 . S
C165 C164 1.373 . S
C165 C166 1.396 . S
C165 C172 1.403 . S
C166 C156 1.476 . S
C166 N161 1.318 . S
C166 C165 1.396 . S
H167 C162 0.929 . S
O168 Mn144 2.385 . S
O168 C146 1.234 . S
O169 Mn144 2.209 . S
O169 Mn145 2.215 . S
O169 C146 1.283 . S
O170 Mn144 2.094 . S
O170 C148 1.240 . S
O171 Mn145 2.117 . S
O171 C148 1.264 . S
C172 C165 1.403 . S
C172 C173 1.399 . S
C172 H178 0.929 . S
C173 C153 1.449 . S
C173 C172 1.399 . S
C173 H179 0.930 . S
H174 C154 0.931 . S
H175 C155 0.930 . S
H176 C163 0.931 . S
H177 C164 0.929 . S
H178 C172 0.929 . S
H179 C173 0.930 . S
Mn180 O185 2.095 1_545 S
Mn180 O195 2.162 . S
Mn180 O196 2.297 1_545 S
Mn180 O204 2.385 . S
Mn180 O205 2.209 1_545 S
Mn180 O206 2.094 . S
Mn181 O186 2.121 . S
Mn181 N188 2.257 . S
Mn181 N197 2.282 1_565 S
Mn181 O205 2.215 . S
Mn181 O207 2.117 1_565 S
C182 O204 1.234 . S
C182 O205 1.283 1_545 S
C183 O195 1.281 . S
C183 O196 1.236 1_545 S
C184 O206 1.240 . S
C184 O207 1.264 . S
O185 Mn180 2.095 1_565 S
O185 C194 1.250 . S
O186 Mn181 2.121 . S
O186 C194 1.258 . S
C187 N188 1.326 . S
C187 C191 1.460 . S
C187 H193 0.929 . S
N188 Mn181 2.257 . S
N188 C187 1.326 . S
N188 C192 1.362 . S
C189 C190 1.258 . S
C189 C192 1.431 . S
C189 C209 1.449 . S
C190 C189 1.258 . S
C190 C191 1.477 . S
C190 H210 0.931 . S
C191 C187 1.460 . S
C191 C190 1.477 . S
C191 H211 0.930 . S
C192 N188 1.362 . S
C192 C189 1.431 . S
C192 C202 1.476 . S
H193 C187 0.929 . S
C194 O185 1.250 . S
C194 O186 1.258 . S
O195 Mn180 2.162 . S
O195 C183 1.281 . S
O196 Mn180 2.297 1_565 S
O196 C183 1.236 1_565 S
N197 Mn181 2.282 1_545 S
N197 C198 1.328 . S
N197 C202 1.318 1_545 S
C198 N197 1.328 . S
C198 C199 1.457 . S
C198 H203 0.929 . S
C199 C198 1.457 . S
C199 C200 1.291 . S
C199 H212 0.931 . S
C200 C199 1.291 . S
C200 C201 1.373 1_545 S
C200 H213 0.929 . S
C201 C200 1.373 1_565 S
C201 C202 1.396 . S
C201 C208 1.403 . S
C202 C192 1.476 . S
C202 N197 1.318 1_565 S
C202 C201 1.396 . S
H203 C198 0.929 . S
O204 Mn180 2.385 . S
O204 C182 1.234 . S
O205 Mn180 2.209 1_565 S
O205 Mn181 2.215 . S
O205 C182 1.283 1_565 S
O206 Mn180 2.094 . S
O206 C184 1.240 . S
O207 Mn181 2.117 1_545 S
O207 C184 1.264 . S
C208 C201 1.403 . S
C208 C209 1.399 . S
C208 H214 0.929 . S
C209 C189 1.449 . S
C209 C208 1.399 . S
C209 H215 0.930 . S
H210 C190 0.931 . S
H211 C191 0.930 . S
H212 C199 0.931 . S
H213 C200 0.929 . S
H214 C208 0.929 . S
H215 C209 0.930 . S
Mn216 O221 2.095 . S
Mn216 O231 2.162 . S
Mn216 O232 2.297 . S
Mn216 O240 2.385 . S
Mn216 O241 2.209 . S
Mn216 O242 2.094 . S
Mn217 O222 2.121 . S
Mn217 N224 2.257 . S
Mn217 N233 2.282 . S
Mn217 O241 2.215 . S
Mn217 O243 2.117 . S
C218 O240 1.234 . S
C218 O241 1.283 . S
C219 O231 1.281 . S
C219 O232 1.236 . S
C220 O242 1.240 . S
C220 O243 1.264 . S
O221 Mn216 2.095 . S
O221 C230 1.250 . S
O222 Mn217 2.121 . S
O222 C230 1.258 . S
C223 N224 1.326 . S
C223 C227 1.460 . S
C223 H229 0.929 . S
N224 Mn217 2.257 . S
N224 C223 1.326 . S
N224 C228 1.362 . S
C225 C226 1.258 . S
C225 C228 1.431 . S
C225 C245 1.449 . S
C226 C225 1.258 . S
C226 C227 1.477 . S
C226 H246 0.931 . S
C227 C223 1.460 . S
C227 C226 1.477 . S
C227 H247 0.930 . S
C228 N224 1.362 . S
C228 C225 1.431 . S
C228 C238 1.476 . S
H229 C223 0.929 . S
C230 O221 1.250 . S
C230 O222 1.258 . S
O231 Mn216 2.162 . S
O231 C219 1.281 . S
O232 Mn216 2.297 . S
O232 C219 1.236 . S
N233 Mn217 2.282 . S
N233 C234 1.328 . S
N233 C238 1.318 . S
C234 N233 1.328 . S
C234 C235 1.457 . S
C234 H239 0.929 . S
C235 C234 1.457 . S
C235 C236 1.291 . S
C235 H248 0.931 . S
C236 C235 1.291 . S
C236 C237 1.373 . S
C236 H249 0.929 . S
C237 C236 1.373 . S
C237 C238 1.396 . S
C237 C244 1.403 . S
C238 C228 1.476 . S
C238 N233 1.318 . S
C238 C237 1.396 . S
H239 C234 0.929 . S
O240 Mn216 2.385 . S
O240 C218 1.234 . S
O241 Mn216 2.209 . S
O241 Mn217 2.215 . S
O241 C218 1.283 . S
O242 Mn216 2.094 . S
O242 C220 1.240 . S
O243 Mn217 2.117 . S
O243 C220 1.264 . S
C244 C237 1.403 . S
C244 C245 1.399 . S
C244 H250 0.929 . S
C245 C225 1.449 . S
C245 C244 1.399 . S
C245 H251 0.930 . S
H246 C226 0.931 . S
H247 C227 0.930 . S
H248 C235 0.931 . S
H249 C236 0.929 . S
H250 C244 0.929 . S
H251 C245 0.930 . S
Mn252 O257 2.095 1_545 S
Mn252 O267 2.162 . S
Mn252 O268 2.297 1_545 S
Mn252 O276 2.385 . S
Mn252 O277 2.209 1_545 S
Mn252 O278 2.094 . S
Mn253 O258 2.121 . S
Mn253 N260 2.257 . S
Mn253 N269 2.282 1_565 S
Mn253 O277 2.215 . S
Mn253 O279 2.117 1_565 S
C254 O276 1.234 . S
C254 O277 1.283 1_545 S
C255 O267 1.281 . S
C255 O268 1.236 1_545 S
C256 O278 1.240 . S
C256 O279 1.264 . S
O257 Mn252 2.095 1_565 S
O257 C266 1.250 . S
O258 Mn253 2.121 . S
O258 C266 1.258 . S
C259 N260 1.326 . S
C259 C263 1.460 . S
C259 H265 0.929 . S
N260 Mn253 2.257 . S
N260 C259 1.326 . S
N260 C264 1.362 . S
C261 C262 1.258 . S
C261 C264 1.431 . S
C261 C281 1.449 . S
C262 C261 1.258 . S
C262 C263 1.477 . S
C262 H282 0.931 . S
C263 C259 1.460 . S
C263 C262 1.477 . S
C263 H283 0.930 . S
C264 N260 1.362 . S
C264 C261 1.431 . S
C264 C274 1.476 . S
H265 C259 0.929 . S
C266 O257 1.250 . S
C266 O258 1.258 . S
O267 Mn252 2.162 . S
O267 C255 1.281 . S
O268 Mn252 2.297 1_565 S
O268 C255 1.236 1_565 S
N269 Mn253 2.282 1_545 S
N269 C270 1.328 . S
N269 C274 1.318 1_545 S
C270 N269 1.328 . S
C270 C271 1.457 . S
C270 H275 0.929 . S
C271 C270 1.457 . S
C271 C272 1.291 . S
C271 H284 0.931 . S
C272 C271 1.291 . S
C272 C273 1.373 1_545 S
C272 H285 0.929 . S
C273 C272 1.373 1_565 S
C273 C274 1.396 . S
C273 C280 1.403 . S
C274 C264 1.476 . S
C274 N269 1.318 1_565 S
C274 C273 1.396 . S
H275 C270 0.929 . S
O276 Mn252 2.385 . S
O276 C254 1.234 . S
O277 Mn252 2.209 1_565 S
O277 Mn253 2.215 . S
O277 C254 1.283 1_565 S
O278 Mn252 2.094 . S
O278 C256 1.240 . S
O279 Mn253 2.117 1_545 S
O279 C256 1.264 . S
C280 C273 1.403 . S
C280 C281 1.399 . S
C280 H286 0.929 . S
C281 C261 1.449 . S
C281 C280 1.399 . S
C281 H287 0.930 . S
H282 C262 0.931 . S
H283 C263 0.930 . S
H284 C271 0.931 . S
H285 C272 0.929 . S
H286 C280 0.929 . S
H287 C281 0.930 . S
Mn288 O293 2.095 . S
Mn288 O303 2.162 . S
Mn288 O304 2.297 . S
Mn288 O312 2.385 . S
Mn288 O313 2.209 . S
Mn288 O314 2.094 . S
Mn289 O294 2.121 . S
Mn289 N296 2.257 . S
Mn289 N305 2.282 . S
Mn289 O313 2.215 . S
Mn289 O315 2.117 . S
C290 O312 1.234 . S
C290 O313 1.283 . S
C291 O303 1.281 . S
C291 O304 1.236 . S
C292 O314 1.240 . S
C292 O315 1.264 . S
O293 Mn288 2.095 . S
O293 C302 1.250 . S
O294 Mn289 2.121 . S
O294 C302 1.258 . S
C295 N296 1.326 . S
C295 C299 1.460 . S
C295 H301 0.929 . S
N296 Mn289 2.257 . S
N296 C295 1.326 . S
N296 C300 1.362 . S
C297 C298 1.258 . S
C297 C300 1.431 . S
C297 C317 1.449 . S
C298 C297 1.258 . S
C298 C299 1.477 . S
C298 H318 0.931 . S
C299 C295 1.460 . S
C299 C298 1.477 . S
C299 H319 0.930 . S
C300 N296 1.362 . S
C300 C297 1.431 . S
C300 C310 1.476 . S
H301 C295 0.929 . S
C302 O293 1.250 . S
C302 O294 1.258 . S
O303 Mn288 2.162 . S
O303 C291 1.281 . S
O304 Mn288 2.297 . S
O304 C291 1.236 . S
N305 Mn289 2.282 . S
N305 C306 1.328 . S
N305 C310 1.318 . S
C306 N305 1.328 . S
C306 C307 1.457 . S
C306 H311 0.929 . S
C307 C306 1.457 . S
C307 C308 1.291 . S
C307 H320 0.931 . S
C308 C307 1.291 . S
C308 C309 1.373 . S
C308 H321 0.929 . S
C309 C308 1.373 . S
C309 C310 1.396 . S
C309 C316 1.403 . S
C310 C300 1.476 . S
C310 N305 1.318 . S
C310 C309 1.396 . S
H311 C306 0.929 . S
O312 Mn288 2.385 . S
O312 C290 1.234 . S
O313 Mn288 2.209 . S
O313 Mn289 2.215 . S
O313 C290 1.283 . S
O314 Mn288 2.094 . S
O314 C292 1.240 . S
O315 Mn289 2.117 . S
O315 C292 1.264 . S
C316 C309 1.403 . S
C316 C317 1.399 . S
C316 H322 0.929 . S
C317 C297 1.449 . S
C317 C316 1.399 . S
C317 H323 0.930 . S
H318 C298 0.931 . S
H319 C299 0.930 . S
H320 C307 0.931 . S
H321 C308 0.929 . S
H322 C316 0.929 . S
H323 C317 0.930 . S
Mn324 O329 2.095 . S
Mn324 O339 2.162 . S
Mn324 O340 2.297 . S
Mn324 O348 2.385 . S
Mn324 O349 2.209 . S
Mn324 O350 2.094 . S
Mn325 O330 2.121 . S
Mn325 N332 2.257 . S
Mn325 N341 2.282 . S
Mn325 O349 2.215 . S
Mn325 O351 2.117 . S
C326 O348 1.234 . S
C326 O349 1.283 . S
C327 O339 1.281 . S
C327 O340 1.236 . S
C328 O350 1.240 . S
C328 O351 1.264 . S
O329 Mn324 2.095 . S
O329 C338 1.250 . S
O330 Mn325 2.121 . S
O330 C338 1.258 . S
C331 N332 1.326 . S
C331 C335 1.460 . S
C331 H337 0.929 . S
N332 Mn325 2.257 . S
N332 C331 1.326 . S
N332 C336 1.362 . S
C333 C334 1.258 . S
C333 C336 1.431 . S
C333 C353 1.449 1_556 S
C334 C333 1.258 . S
C334 C335 1.477 . S
C334 H354 0.931 . S
C335 C331 1.460 . S
C335 C334 1.477 . S
C335 H355 0.930 . S
C336 N332 1.362 . S
C336 C333 1.431 . S
C336 C346 1.476 . S
H337 C331 0.929 . S
C338 O329 1.250 . S
C338 O330 1.258 . S
O339 Mn324 2.162 . S
O339 C327 1.281 . S
O340 Mn324 2.297 . S
O340 C327 1.236 . S
N341 Mn325 2.282 . S
N341 C342 1.328 . S
N341 C346 1.318 . S
C342 N341 1.328 . S
C342 C343 1.457 . S
C342 H347 0.929 . S
C343 C342 1.457 . S
C343 C344 1.291 1_556 S
C343 H356 0.931 . S
C344 C343 1.291 1_554 S
C344 C345 1.373 1_554 S
C344 H357 0.929 . S
C345 C344 1.373 1_556 S
C345 C346 1.396 . S
C345 C352 1.403 1_556 S
C346 C336 1.476 . S
C346 N341 1.318 . S
C346 C345 1.396 . S
H347 C342 0.929 . S
O348 Mn324 2.385 . S
O348 C326 1.234 . S
O349 Mn324 2.209 . S
O349 Mn325 2.215 . S
O349 C326 1.283 . S
O350 Mn324 2.094 . S
O350 C328 1.240 . S
O351 Mn325 2.117 . S
O351 C328 1.264 . S
C352 C345 1.403 1_554 S
C352 C353 1.399 . S
C352 H358 0.929 . S
C353 C333 1.449 1_554 S
C353 C352 1.399 . S
C353 H359 0.930 . S
H354 C334 0.931 . S
H355 C335 0.930 . S
H356 C343 0.931 . S
H357 C344 0.929 . S
H358 C352 0.929 . S
H359 C353 0.930 . S
Mn360 O365 2.095 1_554 S
Mn360 O375 2.162 1_554 S
Mn360 O376 2.297 1_554 S
Mn360 O384 2.385 . S
Mn360 O385 2.209 . S
Mn360 O386 2.094 . S
Mn361 O366 2.121 . S
Mn361 N368 2.257 . S
Mn361 N377 2.282 . S
Mn361 O385 2.215 . S
Mn361 O387 2.117 . S
C362 O384 1.234 . S
C362 O385 1.283 . S
C363 O375 1.281 . S
C363 O376 1.236 . S
C364 O386 1.240 . S
C364 O387 1.264 . S
O365 Mn360 2.095 1_556 S
O365 C374 1.250 . S
O366 Mn361 2.121 . S
O366 C374 1.258 1_554 S
C367 N368 1.326 . S
C367 C371 1.460 . S
C367 H373 0.929 . S
N368 Mn361 2.257 . S
N368 C367 1.326 . S
N368 C372 1.362 . S
C369 C370 1.258 . S
C369 C372 1.431 . S
C369 C389 1.449 . S
C370 C369 1.258 . S
C370 C371 1.477 . S
C370 H390 0.931 . S
C371 C367 1.460 . S
C371 C370 1.477 . S
C371 H391 0.930 . S
C372 N368 1.362 . S
C372 C369 1.431 . S
C372 C382 1.476 . S
H373 C367 0.929 . S
C374 O365 1.250 . S
C374 O366 1.258 1_556 S
O375 Mn360 2.162 1_556 S
O375 C363 1.281 . S
O376 Mn360 2.297 1_556 S
O376 C363 1.236 . S
N377 Mn361 2.282 . S
N377 C378 1.328 . S
N377 C382 1.318 . S
C378 N377 1.328 . S
C378 C379 1.457 . S
C378 H383 0.929 . S
C379 C378 1.457 . S
C379 C380 1.291 . S
C379 H392 0.931 . S
C380 C379 1.291 . S
C380 C381 1.373 . S
C380 H393 0.929 . S
C381 C380 1.373 . S
C381 C382 1.396 . S
C381 C388 1.403 . S
C382 C372 1.476 . S
C382 N377 1.318 . S
C382 C381 1.396 . S
H383 C378 0.929 . S
O384 Mn360 2.385 . S
O384 C362 1.234 . S
O385 Mn360 2.209 . S
O385 Mn361 2.215 . S
O385 C362 1.283 . S
O386 Mn360 2.094 . S
O386 C364 1.240 . S
O387 Mn361 2.117 . S
O387 C364 1.264 . S
C388 C381 1.403 . S
C388 C389 1.399 . S
C388 H394 0.929 . S
C389 C369 1.449 . S
C389 C388 1.399 . S
C389 H395 0.930 . S
H390 C370 0.931 . S
H391 C371 0.930 . S
H392 C379 0.931 . S
H393 C380 0.929 . S
H394 C388 0.929 . S
H395 C389 0.930 . S
Mn396 O401 2.095 . S
Mn396 O411 2.162 . S
Mn396 O412 2.297 . S
Mn396 O420 2.385 . S
Mn396 O421 2.209 . S
Mn396 O422 2.094 . S
Mn397 O402 2.121 . S
Mn397 N404 2.257 . S
Mn397 N413 2.282 . S
Mn397 O421 2.215 . S
Mn397 O423 2.117 . S
C398 O420 1.234 . S
C398 O421 1.283 . S
C399 O411 1.281 . S
C399 O412 1.236 . S
C400 O422 1.240 . S
C400 O423 1.264 . S
O401 Mn396 2.095 . S
O401 C410 1.250 . S
O402 Mn397 2.121 . S
O402 C410 1.258 . S
C403 N404 1.326 . S
C403 C407 1.460 . S
C403 H409 0.929 . S
N404 Mn397 2.257 . S
N404 C403 1.326 . S
N404 C408 1.362 . S
C405 C406 1.258 . S
C405 C408 1.431 . S
C405 C425 1.449 . S
C406 C405 1.258 . S
C406 C407 1.477 . S
C406 H426 0.931 . S
C407 C403 1.460 . S
C407 C406 1.477 . S
C407 H427 0.930 . S
C408 N404 1.362 . S
C408 C405 1.431 . S
C408 C418 1.476 . S
H409 C403 0.929 . S
C410 O401 1.250 . S
C410 O402 1.258 . S
O411 Mn396 2.162 . S
O411 C399 1.281 . S
O412 Mn396 2.297 . S
O412 C399 1.236 . S
N413 Mn397 2.282 . S
N413 C414 1.328 . S
N413 C418 1.318 . S
C414 N413 1.328 . S
C414 C415 1.457 . S
C414 H419 0.929 . S
C415 C414 1.457 . S
C415 C416 1.291 . S
C415 H428 0.931 . S
C416 C415 1.291 . S
C416 C417 1.373 . S
C416 H429 0.929 1_554 S
C417 C416 1.373 . S
C417 C418 1.396 . S
C417 C424 1.403 1_554 S
C418 C408 1.476 . S
C418 N413 1.318 . S
C418 C417 1.396 . S
H419 C414 0.929 . S
O420 Mn396 2.385 . S
O420 C398 1.234 . S
O421 Mn396 2.209 . S
O421 Mn397 2.215 . S
O421 C398 1.283 . S
O422 Mn396 2.094 . S
O422 C400 1.240 . S
O423 Mn397 2.117 . S
O423 C400 1.264 . S
C424 C417 1.403 1_556 S
C424 C425 1.399 1_556 S
C424 H430 0.929 . S
C425 C405 1.449 . S
C425 C424 1.399 1_554 S
C425 H431 0.930 1_554 S
H426 C406 0.931 . S
H427 C407 0.930 . S
H428 C415 0.931 . S
H429 C416 0.929 1_556 S
H430 C424 0.929 . S
H431 C425 0.930 1_556 S
Mn432 O437 2.095 . S
Mn432 O447 2.162 . S
Mn432 O448 2.297 . S
Mn432 O456 2.385 . S
Mn432 O457 2.209 . S
Mn432 O458 2.094 . S
Mn433 O438 2.121 . S
Mn433 N440 2.257 . S
Mn433 N449 2.282 . S
Mn433 O457 2.215 . S
Mn433 O459 2.117 . S
C434 O456 1.234 . S
C434 O457 1.283 . S
C435 O447 1.281 . S
C435 O448 1.236 . S
C436 O458 1.240 . S
C436 O459 1.264 . S
O437 Mn432 2.095 . S
O437 C446 1.250 . S
O438 Mn433 2.121 . S
O438 C446 1.258 . S
C439 N440 1.326 . S
C439 C443 1.460 . S
C439 H445 0.929 . S
N440 Mn433 2.257 . S
N440 C439 1.326 . S
N440 C444 1.362 . S
C441 C442 1.258 . S
C441 C444 1.431 . S
C441 C461 1.449 . S
C442 C441 1.258 . S
C442 C443 1.477 . S
C442 H462 0.931 . S
C443 C439 1.460 . S
C443 C442 1.477 . S
C443 H463 0.930 . S
C444 N440 1.362 . S
C444 C441 1.431 . S
C444 C454 1.476 . S
H445 C439 0.929 . S
C446 O437 1.250 . S
C446 O438 1.258 . S
O447 Mn432 2.162 . S
O447 C435 1.281 . S
O448 Mn432 2.297 . S
O448 C435 1.236 . S
N449 Mn433 2.282 . S
N449 C450 1.328 . S
N449 C454 1.318 . S
C450 N449 1.328 . S
C450 C451 1.457 . S
C450 H455 0.929 . S
C451 C450 1.457 . S
C451 C452 1.291 . S
C451 H464 0.931 . S
C452 C451 1.291 . S
C452 C453 1.373 . S
C452 H465 0.929 . S
C453 C452 1.373 . S
C453 C454 1.396 . S
C453 C460 1.403 . S
C454 C444 1.476 . S
C454 N449 1.318 . S
C454 C453 1.396 . S
H455 C450 0.929 . S
O456 Mn432 2.385 . S
O456 C434 1.234 . S
O457 Mn432 2.209 . S
O457 Mn433 2.215 . S
O457 C434 1.283 . S
O458 Mn432 2.094 . S
O458 C436 1.240 . S
O459 Mn433 2.117 . S
O459 C436 1.264 . S
C460 C453 1.403 . S
C460 C461 1.399 . S
C460 H466 0.929 . S
C461 C441 1.449 . S
C461 C460 1.399 . S
C461 H467 0.930 . S
H462 C442 0.931 . S
H463 C443 0.930 . S
H464 C451 0.931 . S
H465 C452 0.929 . S
H466 C460 0.929 . S
H467 C461 0.930 . S
Mn468 O473 2.095 . S
Mn468 O483 2.162 . S
Mn468 O484 2.297 . S
Mn468 O492 2.385 . S
Mn468 O493 2.209 . S
Mn468 O494 2.094 . S
Mn469 O474 2.121 . S
Mn469 N476 2.257 . S
Mn469 N485 2.282 . S
Mn469 O493 2.215 . S
Mn469 O495 2.117 . S
C470 O492 1.234 . S
C470 O493 1.283 . S
C471 O483 1.281 . S
C471 O484 1.236 . S
C472 O494 1.240 . S
C472 O495 1.264 . S
O473 Mn468 2.095 . S
O473 C482 1.250 . S
O474 Mn469 2.121 . S
O474 C482 1.258 . S
C475 N476 1.326 . S
C475 C479 1.460 . S
C475 H481 0.929 . S
N476 Mn469 2.257 . S
N476 C475 1.326 . S
N476 C480 1.362 . S
C477 C478 1.258 . S
C477 C480 1.431 . S
C477 C497 1.449 . S
C478 C477 1.258 . S
C478 C479 1.477 . S
C478 H498 0.931 . S
C479 C475 1.460 . S
C479 C478 1.477 . S
C479 H499 0.930 . S
C480 N476 1.362 . S
C480 C477 1.431 . S
C480 C490 1.476 . S
H481 C475 0.929 . S
C482 O473 1.250 . S
C482 O474 1.258 . S
O483 Mn468 2.162 . S
O483 C471 1.281 . S
O484 Mn468 2.297 . S
O484 C471 1.236 . S
N485 Mn469 2.282 . S
N485 C486 1.328 . S
N485 C490 1.318 . S
C486 N485 1.328 . S
C486 C487 1.457 . S
C486 H491 0.929 . S
C487 C486 1.457 . S
C487 C488 1.291 . S
C487 H500 0.931 . S
C488 C487 1.291 . S
C488 C489 1.373 . S
C488 H501 0.929 1_554 S
C489 C488 1.373 . S
C489 C490 1.396 . S
C489 C496 1.403 1_554 S
C490 C480 1.476 . S
C490 N485 1.318 . S
C490 C489 1.396 . S
H491 C486 0.929 . S
O492 Mn468 2.385 . S
O492 C470 1.234 . S
O493 Mn468 2.209 . S
O493 Mn469 2.215 . S
O493 C470 1.283 . S
O494 Mn468 2.094 . S
O494 C472 1.240 . S
O495 Mn469 2.117 . S
O495 C472 1.264 . S
C496 C489 1.403 1_556 S
C496 C497 1.399 1_556 S
C496 H502 0.929 . S
C497 C477 1.449 . S
C497 C496 1.399 1_554 S
C497 H503 0.930 1_554 S
H498 C478 0.931 . S
H499 C479 0.930 . S
H500 C487 0.931 . S
H501 C488 0.929 1_556 S
H502 C496 0.929 . S
H503 C497 0.930 1_556 S
Mn504 O509 2.095 . S
Mn504 O519 2.162 . S
Mn504 O520 2.297 . S
Mn504 O528 2.385 1_554 S
Mn504 O529 2.209 1_554 S
Mn504 O530 2.100 . S
Mn505 O510 2.121 . S
Mn505 N512 2.257 . S
Mn505 N521 2.282 . S
Mn505 O529 2.215 . S
Mn505 O531 2.117 . S
C506 O528 1.234 . S
C506 O529 1.283 . S
C507 O519 1.281 . S
C507 O520 1.236 . S
C508 O530 1.221 1_556 S
C508 O531 1.264 . S
O509 Mn504 2.095 . S
O509 C518 1.250 . S
O510 Mn505 2.121 . S
O510 C518 1.258 1_556 S
C511 N512 1.326 . S
C511 C515 1.460 . S
C511 H517 0.929 . S
N512 Mn505 2.257 . S
N512 C511 1.326 . S
N512 C516 1.362 . S
C513 C514 1.258 . S
C513 C516 1.431 . S
C513 C533 1.449 . S
C514 C513 1.258 . S
C514 C515 1.477 . S
C514 H534 0.931 . S
C515 C511 1.460 . S
C515 C514 1.477 . S
C515 H535 0.930 . S
C516 N512 1.362 . S
C516 C513 1.431 . S
C516 C526 1.476 . S
H517 C511 0.929 . S
C518 O509 1.250 . S
C518 O510 1.258 1_554 S
O519 Mn504 2.162 . S
O519 C507 1.281 . S
O520 Mn504 2.297 . S
O520 C507 1.236 . S
N521 Mn505 2.282 . S
N521 C522 1.328 . S
N521 C526 1.318 . S
C522 N521 1.328 . S
C522 C523 1.457 . S
C522 H527 0.929 . S
C523 C522 1.457 . S
C523 C524 1.291 . S
C523 H536 0.931 . S
C524 C523 1.291 . S
C524 C525 1.373 . S
C524 H537 0.929 . S
C525 C524 1.373 . S
C525 C526 1.396 . S
C525 C532 1.403 . S
C526 C516 1.476 . S
C526 N521 1.318 . S
C526 C525 1.396 . S
H527 C522 0.929 . S
O528 Mn504 2.385 1_556 S
O528 C506 1.234 . S
O529 Mn504 2.209 1_556 S
O529 Mn505 2.215 . S
O529 C506 1.283 . S
O530 Mn504 2.100 . S
O530 C508 1.221 1_554 S
O531 Mn505 2.117 . S
O531 C508 1.264 . S
C532 C525 1.403 . S
C532 C533 1.399 . S
C532 H538 0.929 . S
C533 C513 1.449 . S
C533 C532 1.399 . S
C533 H539 0.930 . S
H534 C514 0.931 . S
H535 C515 0.930 . S
H536 C523 0.931 . S
H537 C524 0.929 . S
H538 C532 0.929 . S
H539 C533 0.930 . S
Mn540 O545 2.095 . S
Mn540 O555 2.162 . S
Mn540 O556 2.297 . S
Mn540 O564 2.385 . S
Mn540 O565 2.209 . S
Mn540 O566 2.094 . S
Mn541 O546 2.121 . S
Mn541 N548 2.257 . S
Mn541 N557 2.282 . S
Mn541 O565 2.215 . S
Mn541 O567 2.117 . S
C542 O564 1.234 . S
C542 O565 1.283 . S
C543 O555 1.281 . S
C543 O556 1.236 . S
C544 O566 1.240 . S
C544 O567 1.264 . S
O545 Mn540 2.095 . S
O545 C554 1.250 . S
O546 Mn541 2.121 . S
O546 C554 1.258 . S
C547 N548 1.326 . S
C547 C551 1.460 . S
C547 H553 0.929 . S
N548 Mn541 2.257 . S
N548 C547 1.326 . S
N548 C552 1.362 . S
C549 C550 1.258 . S
C549 C552 1.431 . S
C549 C569 1.449 1_556 S
C550 C549 1.258 . S
C550 C551 1.477 . S
C550 H570 0.931 . S
C551 C547 1.460 . S
C551 C550 1.477 . S
C551 H571 0.930 . S
C552 N548 1.362 . S
C552 C549 1.431 . S
C552 C562 1.476 . S
H553 C547 0.929 . S
C554 O545 1.250 . S
C554 O546 1.258 . S
O555 Mn540 2.162 . S
O555 C543 1.281 . S
O556 Mn540 2.297 . S
O556 C543 1.236 . S
N557 Mn541 2.282 . S
N557 C558 1.328 . S
N557 C562 1.318 . S
C558 N557 1.328 . S
C558 C559 1.457 . S
C558 H563 0.929 . S
C559 C558 1.457 . S
C559 C560 1.291 1_556 S
C559 H572 0.931 . S
C560 C559 1.291 1_554 S
C560 C561 1.373 1_554 S
C560 H573 0.929 . S
C561 C560 1.373 1_556 S
C561 C562 1.396 . S
C561 C568 1.403 1_556 S
C562 C552 1.476 . S
C562 N557 1.318 . S
C562 C561 1.396 . S
H563 C558 0.929 . S
O564 Mn540 2.385 . S
O564 C542 1.234 . S
O565 Mn540 2.209 . S
O565 Mn541 2.215 . S
O565 C542 1.283 . S
O566 Mn540 2.094 . S
O566 C544 1.240 . S
O567 Mn541 2.117 . S
O567 C544 1.264 . S
C568 C561 1.403 1_554 S
C568 C569 1.399 . S
C568 H574 0.929 . S
C569 C549 1.449 1_554 S
C569 C568 1.399 . S
C569 H575 0.930 . S
H570 C550 0.931 . S
H571 C551 0.930 . S
H572 C559 0.931 . S
H573 C560 0.929 . S
H574 C568 0.929 . S
H575 C569 0.930 . S
C576 C577 1.349 . S
C576 C578 1.327 . S
C576 H601 0.950 . S
C577 C576 1.349 . S
C577 C593 1.349 . S
C578 C576 1.327 . S
C578 C597 1.429 . S
C578 H602 0.950 . S
C579 C596 1.574 . S
C579 C598 1.368 . S
C579 H603 0.949 . S
H580 C584 0.949 . S
C581 C582 1.349 . S
C581 C583 1.327 . S
C581 H604 0.950 . S
C582 C581 1.349 . S
C582 C594 1.349 . S
C583 C581 1.327 . S
C583 C599 1.429 . S
C583 H605 0.950 . S
C584 H580 0.949 . S
C584 C592 1.574 . S
C584 C600 1.368 . S
H585 C593 0.950 . S
H586 C591 0.950 . S
H587 C592 0.949 . S
H588 C594 0.950 . S
H589 C595 0.950 . S
H590 C596 0.949 . S
C591 H586 0.950 . S
C591 C593 1.327 . S
C591 C597 1.429 . S
C592 C584 1.574 . S
C592 H587 0.949 . S
C592 C598 1.368 . S
C593 C577 1.349 . S
C593 H585 0.950 . S
C593 C591 1.327 . S
C594 C582 1.349 . S
C594 H588 0.950 . S
C594 C595 1.327 . S
C595 H589 0.950 . S
C595 C594 1.327 . S
C595 C599 1.429 . S
C596 C579 1.574 . S
C596 H590 0.949 . S
C596 C600 1.368 . S
C597 C578 1.429 . S
C597 C591 1.429 . S
C597 C598 1.523 . S
C598 C579 1.368 . S
C598 C592 1.368 . S
C598 C597 1.523 . S
C599 C583 1.429 . S
C599 C595 1.429 . S
C599 C600 1.523 . S
C600 C584 1.368 . S
C600 C596 1.368 . S
C600 C599 1.523 . S
H601 C576 0.950 . S
H602 C578 0.950 . S
H603 C579 0.949 . S
H604 C581 0.950 . S
H605 C583 0.950 . S
C606 C607 1.349 1_565 S
C606 C608 1.327 . S
C606 H631 0.950 . S
C607 C606 1.349 1_545 S
C607 C623 1.349 . S
C608 C606 1.327 . S
C608 C627 1.429 1_565 S
C608 H632 0.950 . S
C609 C626 1.558 1_655 S
C609 C628 1.368 . S
C609 H633 0.949 . S
H610 C614 0.949 . S
C611 C612 1.349 . S
C611 C613 1.327 . S
C611 H634 0.950 . S
C612 C611 1.349 . S
C612 C624 1.349 1_545 S
C613 C611 1.327 . S
C613 C629 1.429 . S
C613 H635 0.950 . S
C614 H610 0.949 . S
C614 C622 1.558 1_455 S
C614 C630 1.368 1_565 S
H615 C623 0.950 . S
H616 C621 0.950 . S
H617 C622 0.950 . S
H618 C624 0.950 . S
H619 C625 0.950 . S
H620 C626 0.950 . S
C621 H616 0.950 . S
C621 C623 1.327 . S
C621 C627 1.429 . S
C622 C614 1.558 1_655 S
C622 H617 0.950 . S
C622 C628 1.384 1_565 S
C623 C607 1.349 . S
C623 H615 0.950 . S
C623 C621 1.327 . S
C624 C612 1.349 1_565 S
C624 H618 0.950 . S
C624 C625 1.327 . S
C625 H619 0.950 . S
C625 C624 1.327 . S
C625 C629 1.429 1_565 S
C626 C609 1.558 1_455 S
C626 H620 0.950 . S
C626 C630 1.384 . S
C627 C608 1.429 1_545 S
C627 C621 1.429 . S
C627 C628 1.523 . S
C628 C609 1.368 . S
C628 C622 1.384 1_545 S
C628 C627 1.523 . S
C629 C613 1.429 . S
C629 C625 1.429 1_545 S
C629 C630 1.523 . S
C630 C614 1.368 1_545 S
C630 C626 1.384 . S
C630 C629 1.523 . S
H631 C606 0.950 . S
H632 C608 0.950 . S
H633 C609 0.949 . S
H634 C611 0.950 . S
H635 C613 0.950 . S
C636 C637 1.349 . S
C636 C638 1.327 . S
C636 H661 0.950 . S
C637 C636 1.349 . S
C637 C653 1.349 . S
C638 C636 1.327 . S
C638 C657 1.429 . S
C638 H662 0.950 . S
C639 C656 1.574 . S
C639 C658 1.368 . S
C639 H663 0.949 . S
H640 C644 0.949 . S
C641 C642 1.349 . S
C641 C643 1.327 . S
C641 H664 0.950 . S
C642 C641 1.349 . S
C642 C654 1.349 . S
C643 C641 1.327 . S
C643 C659 1.429 . S
C643 H665 0.950 . S
C644 H640 0.949 . S
C644 C652 1.574 . S
C644 C660 1.368 . S
H645 C653 0.950 . S
H646 C651 0.950 . S
H647 C652 0.949 . S
H648 C654 0.950 . S
H649 C655 0.950 . S
H650 C656 0.949 . S
C651 H646 0.950 . S
C651 C653 1.327 . S
C651 C657 1.429 . S
C652 C644 1.574 . S
C652 H647 0.949 . S
C652 C658 1.368 . S
C653 C637 1.349 . S
C653 H645 0.950 . S
C653 C651 1.327 . S
C654 C642 1.349 . S
C654 H648 0.950 . S
C654 C655 1.327 . S
C655 H649 0.950 . S
C655 C654 1.327 . S
C655 C659 1.429 . S
C656 C639 1.574 . S
C656 H650 0.949 . S
C656 C660 1.368 . S
C657 C638 1.429 . S
C657 C651 1.429 . S
C657 C658 1.523 . S
C658 C639 1.368 . S
C658 C652 1.368 . S
C658 C657 1.523 . S
C659 C643 1.429 . S
C659 C655 1.429 . S
C659 C660 1.523 . S
C660 C644 1.368 . S
C660 C656 1.368 . S
C660 C659 1.523 . S
H661 C636 0.950 . S
H662 C638 0.950 . S
H663 C639 0.949 . S
H664 C641 0.950 . S
H665 C643 0.950 . S
C666 C667 1.349 1_565 S
C666 C668 1.327 . S
C666 H691 0.950 . S
C667 C666 1.349 1_545 S
C667 C683 1.349 . S
C668 C666 1.327 . S
C668 C687 1.429 1_565 S
C668 H692 0.950 . S
C669 C686 1.574 . S
C669 C688 1.368 . S
C669 H693 0.949 . S
H670 C674 0.949 . S
C671 C672 1.349 . S
C671 C673 1.327 . S
C671 H694 0.950 . S
C672 C671 1.349 . S
C672 C684 1.349 1_545 S
C673 C671 1.327 . S
C673 C689 1.429 . S
C673 H695 0.950 . S
C674 H670 0.949 . S
C674 C682 1.574 1_556 S
C674 C690 1.368 1_565 S
H675 C683 0.950 . S
H676 C681 0.950 . S
H677 C682 0.949 . S
H678 C684 0.950 . S
H679 C685 0.950 . S
H680 C686 0.949 . S
C681 H676 0.950 . S
C681 C683 1.327 . S
C681 C687 1.429 . S
C682 C674 1.574 1_554 S
C682 H677 0.949 . S
C682 C688 1.368 1_565 S
C683 C667 1.349 . S
C683 H675 0.950 . S
C683 C681 1.327 . S
C684 C672 1.349 1_565 S
C684 H678 0.950 . S
C684 C685 1.327 . S
C685 H679 0.950 . S
C685 C684 1.327 . S
C685 C689 1.429 1_565 S
C686 C669 1.574 . S
C686 H680 0.949 . S
C686 C690 1.368 1_554 S
C687 C668 1.429 1_545 S
C687 C681 1.429 . S
C687 C688 1.523 . S
C688 C669 1.368 . S
C688 C682 1.368 1_545 S
C688 C687 1.523 . S
C689 C673 1.429 . S
C689 C685 1.429 1_545 S
C689 C690 1.523 . S
C690 C674 1.368 1_545 S
C690 C686 1.368 1_556 S
C690 C689 1.523 . S
H691 C666 0.950 . S
H692 C668 0.950 . S
H693 C669 0.949 . S
H694 C671 0.950 . S
H695 C673 0.950 . S
C696 C697 1.349 . S
C696 C698 1.327 . S
C696 H721 0.950 . S
C697 C696 1.349 . S
C697 C713 1.349 . S
C698 C696 1.327 . S
C698 C717 1.429 . S
C698 H722 0.950 . S
C699 C716 1.574 . S
C699 C718 1.368 . S
C699 H723 0.949 . S
H700 C704 0.949 . S
C701 C702 1.349 . S
C701 C703 1.327 . S
C701 H724 0.950 . S
C702 C701 1.349 . S
C702 C714 1.349 . S
C703 C701 1.327 . S
C703 C719 1.429 . S
C703 H725 0.950 . S
C704 H700 0.949 . S
C704 C712 1.574 . S
C704 C720 1.368 . S
H705 C713 0.950 . S
H706 C711 0.950 . S
H707 C712 0.949 . S
H708 C714 0.950 . S
H709 C715 0.950 . S
H710 C716 0.949 . S
C711 H706 0.950 . S
C711 C713 1.327 . S
C711 C717 1.429 . S
C712 C704 1.574 . S
C712 H707 0.949 . S
C712 C718 1.368 . S
C713 C697 1.349 . S
C713 H705 0.950 . S
C713 C711 1.327 . S
C714 C702 1.349 . S
C714 H708 0.950 . S
C714 C715 1.327 . S
C715 H709 0.950 . S
C715 C714 1.327 . S
C715 C719 1.429 . S
C716 C699 1.574 . S
C716 H710 0.949 . S
C716 C720 1.368 . S
C717 C698 1.429 . S
C717 C711 1.429 . S
C717 C718 1.523 . S
C718 C699 1.368 . S
C718 C712 1.368 . S
C718 C717 1.523 . S
C719 C703 1.429 . S
C719 C715 1.429 . S
C719 C720 1.523 . S
C720 C704 1.368 . S
C720 C716 1.368 . S
C720 C719 1.523 . S
H721 C696 0.950 . S
H722 C698 0.950 . S
H723 C699 0.949 . S
H724 C701 0.950 . S
H725 C703 0.950 . S
C726 C727 1.349 1_565 S
C726 C728 1.327 . S
C726 H751 0.950 . S
C727 C726 1.349 1_545 S
C727 C743 1.349 . S
C728 C726 1.327 . S
C728 C747 1.429 1_565 S
C728 H752 0.950 . S
C729 C746 1.574 . S
C729 C748 1.368 . S
C729 H753 0.949 . S
H730 C734 0.949 . S
C731 C732 1.349 . S
C731 C733 1.327 . S
C731 H754 0.950 . S
C732 C731 1.349 . S
C732 C744 1.349 1_545 S
C733 C731 1.327 . S
C733 C749 1.429 . S
C733 H755 0.950 . S
C734 H730 0.949 . S
C734 C742 1.574 . S
C734 C750 1.368 1_565 S
H735 C743 0.950 . S
H736 C741 0.950 . S
H737 C742 0.949 . S
H738 C744 0.950 . S
H739 C745 0.950 . S
H740 C746 0.949 . S
C741 H736 0.950 . S
C741 C743 1.327 . S
C741 C747 1.429 . S
C742 C734 1.574 . S
C742 H737 0.949 . S
C742 C748 1.368 1_565 S
C743 C727 1.349 . S
C743 H735 0.950 . S
C743 C741 1.327 . S
C744 C732 1.349 1_565 S
C744 H738 0.950 . S
C744 C745 1.327 . S
C745 H739 0.950 . S
C745 C744 1.327 . S
C745 C749 1.429 1_565 S
C746 C729 1.574 . S
C746 H740 0.949 . S
C746 C750 1.368 . S
C747 C728 1.429 1_545 S
C747 C741 1.429 . S
C747 C748 1.523 . S
C748 C729 1.368 . S
C748 C742 1.368 1_545 S
C748 C747 1.523 . S
C749 C733 1.429 . S
C749 C745 1.429 1_545 S
C749 C750 1.523 . S
C750 C734 1.368 1_545 S
C750 C746 1.368 . S
C750 C749 1.523 . S
H751 C726 0.950 . S
H752 C728 0.950 . S
H753 C729 0.949 . S
H754 C731 0.950 . S
H755 C733 0.950 . S
C756 C757 1.349 . S
C756 C758 1.327 . S
C756 H781 0.950 . S
C757 C756 1.349 . S
C757 C773 1.349 . S
C758 C756 1.327 . S
C758 C777 1.429 . S
C758 H782 0.950 . S
C759 C776 1.574 . S
C759 C778 1.368 . S
C759 H783 0.949 . S
H760 C764 0.949 . S
C761 C762 1.349 . S
C761 C763 1.327 . S
C761 H784 0.950 . S
C762 C761 1.349 . S
C762 C774 1.349 . S
C763 C761 1.327 . S
C763 C779 1.429 . S
C763 H785 0.950 . S
C764 H760 0.949 . S
C764 C772 1.574 . S
C764 C780 1.368 . S
H765 C773 0.950 . S
H766 C771 0.950 . S
H767 C772 0.949 . S
H768 C774 0.950 . S
H769 C775 0.950 . S
H770 C776 0.949 . S
C771 H766 0.950 . S
C771 C773 1.327 . S
C771 C777 1.429 . S
C772 C764 1.574 . S
C772 H767 0.949 . S
C772 C778 1.368 . S
C773 C757 1.349 . S
C773 H765 0.950 . S
C773 C771 1.327 . S
C774 C762 1.349 . S
C774 H768 0.950 . S
C774 C775 1.327 . S
C775 H769 0.950 . S
C775 C774 1.327 . S
C775 C779 1.429 . S
C776 C759 1.574 . S
C776 H770 0.949 . S
C776 C780 1.368 . S
C777 C758 1.429 . S
C777 C771 1.429 . S
C777 C778 1.523 . S
C778 C759 1.368 . S
C778 C772 1.368 . S
C778 C777 1.523 . S
C779 C763 1.429 . S
C779 C775 1.429 . S
C779 C780 1.523 . S
C780 C764 1.368 . S
C780 C776 1.368 . S
C780 C779 1.523 . S
H781 C756 0.950 . S
H782 C758 0.950 . S
H783 C759 0.949 . S
H784 C761 0.950 . S
H785 C763 0.950 . S
C786 C787 1.349 1_565 S
C786 C788 1.327 . S
C786 H811 0.950 . S
C787 C786 1.349 1_545 S
C787 C803 1.349 . S
C788 C786 1.327 . S
C788 C807 1.429 1_565 S
C788 H812 0.950 . S
C789 C806 1.574 1_556 S
C789 C808 1.368 1_655 S
C789 H813 0.949 . S
H790 C794 0.949 . S
C791 C792 1.349 . S
C791 C793 1.327 . S
C791 H814 0.950 . S
C792 C791 1.349 . S
C792 C804 1.349 1_545 S
C793 C791 1.327 . S
C793 C809 1.429 . S
C793 H815 0.950 . S
C794 H790 0.949 . S
C794 C802 1.574 . S
C794 C810 1.368 1_465 S
H795 C803 0.950 . S
H796 C801 0.950 . S
H797 C802 0.949 . S
H798 C804 0.950 . S
H799 C805 0.950 . S
H800 C806 0.949 . S
C801 H796 0.950 . S
C801 C803 1.327 . S
C801 C807 1.429 . S
C802 C794 1.574 . S
C802 H797 0.949 . S
C802 C808 1.368 1_564 S
C803 C787 1.349 . S
C803 H795 0.950 . S
C803 C801 1.327 . S
C804 C792 1.349 1_565 S
C804 H798 0.950 . S
C804 C805 1.327 . S
C805 H799 0.950 . S
C805 C804 1.327 . S
C805 C809 1.429 1_565 S
C806 C789 1.574 1_554 S
C806 H800 0.949 . S
C806 C810 1.368 . S
C807 C788 1.429 1_545 S
C807 C801 1.429 . S
C807 C808 1.523 . S
C808 C789 1.368 1_455 S
C808 C802 1.368 1_546 S
C808 C807 1.523 . S
C809 C793 1.429 . S
C809 C805 1.429 1_545 S
C809 C810 1.523 . S
C810 C794 1.368 1_645 S
C810 C806 1.368 . S
C810 C809 1.523 . S
H811 C786 0.950 . S
H812 C788 0.950 . S
H813 C789 0.949 . S
H814 C791 0.950 . S
H815 C793 0.950 . S
C816 C817 1.349 . S
C816 C818 1.327 . S
C816 H841 0.950 . S
C817 C816 1.349 . S
C817 C833 1.349 . S
C818 C816 1.327 . S
C818 C837 1.429 . S
C818 H842 0.950 . S
C819 C836 1.574 . S
C819 C838 1.368 . S
C819 H843 0.949 . S
H820 C824 0.949 . S
C821 C822 1.349 . S
C821 C823 1.327 . S
C821 H844 0.950 . S
C822 C821 1.349 . S
C822 C834 1.349 . S
C823 C821 1.327 . S
C823 C839 1.429 . S
C823 H845 0.950 . S
C824 H820 0.949 . S
C824 C832 1.574 . S
C824 C840 1.368 . S
H825 C833 0.950 . S
H826 C831 0.950 . S
H827 C832 0.949 . S
H828 C834 0.950 . S
H829 C835 0.950 . S
H830 C836 0.949 . S
C831 H826 0.950 . S
C831 C833 1.327 . S
C831 C837 1.429 . S
C832 C824 1.574 . S
C832 H827 0.949 . S
C832 C838 1.368 . S
C833 C817 1.349 . S
C833 H825 0.950 . S
C833 C831 1.327 . S
C834 C822 1.349 . S
C834 H828 0.950 . S
C834 C835 1.327 . S
C835 H829 0.950 . S
C835 C834 1.327 . S
C835 C839 1.429 . S
C836 C819 1.574 . S
C836 H830 0.949 . S
C836 C840 1.368 . S
C837 C818 1.429 . S
C837 C831 1.429 . S
C837 C838 1.523 . S
C838 C819 1.368 . S
C838 C832 1.368 . S
C838 C837 1.523 . S
C839 C823 1.429 . S
C839 C835 1.429 . S
C839 C840 1.523 . S
C840 C824 1.368 . S
C840 C836 1.368 . S
C840 C839 1.523 . S
H841 C816 0.950 . S
H842 C818 0.950 . S
H843 C819 0.949 . S
H844 C821 0.950 . S
H845 C823 0.950 . S
C846 C847 1.349 . S
C846 C848 1.327 . S
C846 H871 0.950 . S
C847 C846 1.349 . S
C847 C863 1.349 . S
C848 C846 1.327 . S
C848 C867 1.429 . S
C848 H872 0.950 . S
C849 C866 1.574 . S
C849 C868 1.368 . S
C849 H873 0.949 . S
H850 C854 0.949 . S
C851 C852 1.349 . S
C851 C853 1.327 . S
C851 H874 0.950 . S
C852 C851 1.349 . S
C852 C864 1.349 . S
C853 C851 1.327 . S
C853 C869 1.429 . S
C853 H875 0.950 . S
C854 H850 0.949 . S
C854 C862 1.574 . S
C854 C870 1.368 . S
H855 C863 0.950 . S
H856 C861 0.950 . S
H857 C862 0.949 . S
H858 C864 0.950 . S
H859 C865 0.950 . S
H860 C866 0.949 . S
C861 H856 0.950 . S
C861 C863 1.327 . S
C861 C867 1.429 . S
C862 C854 1.574 . S
C862 H857 0.949 . S
C862 C868 1.368 . S
C863 C847 1.349 . S
C863 H855 0.950 . S
C863 C861 1.327 . S
C864 C852 1.349 . S
C864 H858 0.950 . S
C864 C865 1.327 . S
C865 H859 0.950 . S
C865 C864 1.327 . S
C865 C869 1.429 . S
C866 C849 1.574 . S
C866 H860 0.949 . S
C866 C870 1.368 . S
C867 C848 1.429 . S
C867 C861 1.429 . S
C867 C868 1.523 . S
C868 C849 1.368 . S
C868 C862 1.368 . S
C868 C867 1.523 . S
C869 C853 1.429 . S
C869 C865 1.429 . S
C869 C870 1.523 . S
C870 C854 1.368 . S
C870 C866 1.368 . S
C870 C869 1.523 . S
H871 C846 0.950 . S
H872 C848 0.950 . S
H873 C849 0.949 . S
H874 C851 0.950 . S
H875 C853 0.950 . S
C876 C877 1.349 . S
C876 C878 1.327 . S
C876 H901 0.950 . S
C877 C876 1.349 . S
C877 C893 1.349 . S
C878 C876 1.327 . S
C878 C897 1.429 . S
C878 H902 0.950 . S
C879 C896 1.574 . S
C879 C898 1.368 . S
C879 H903 0.949 . S
H880 C884 0.949 . S
C881 C882 1.349 . S
C881 C883 1.327 . S
C881 H904 0.950 . S
C882 C881 1.349 . S
C882 C894 1.349 . S
C883 C881 1.327 . S
C883 C899 1.429 . S
C883 H905 0.950 . S
C884 H880 0.949 . S
C884 C892 1.574 . S
C884 C900 1.368 . S
H885 C893 0.950 . S
H886 C891 0.950 . S
H887 C892 0.949 . S
H888 C894 0.950 . S
H889 C895 0.950 . S
H890 C896 0.949 . S
C891 H886 0.950 . S
C891 C893 1.327 . S
C891 C897 1.429 . S
C892 C884 1.574 . S
C892 H887 0.949 . S
C892 C898 1.368 . S
C893 C877 1.349 . S
C893 H885 0.950 . S
C893 C891 1.327 . S
C894 C882 1.349 . S
C894 H888 0.950 . S
C894 C895 1.327 . S
C895 H889 0.950 . S
C895 C894 1.327 . S
C895 C899 1.429 . S
C896 C879 1.574 . S
C896 H890 0.949 . S
C896 C900 1.368 . S
C897 C878 1.429 . S
C897 C891 1.429 . S
C897 C898 1.523 . S
C898 C879 1.368 . S
C898 C892 1.368 . S
C898 C897 1.523 . S
C899 C883 1.429 . S
C899 C895 1.429 . S
C899 C900 1.523 . S
C900 C884 1.368 . S
C900 C896 1.368 . S
C900 C899 1.523 . S
H901 C876 0.950 . S
H902 C878 0.950 . S
H903 C879 0.949 . S
H904 C881 0.950 . S
H905 C883 0.950 . S
C906 C907 1.349 . S
C906 C908 1.327 . S
C906 H931 0.950 . S
C907 C906 1.349 . S
C907 C923 1.349 . S
C908 C906 1.327 . S
C908 C927 1.429 . S
C908 H932 0.950 . S
C909 C926 1.574 . S
C909 C928 1.368 . S
C909 H933 0.949 . S
H910 C914 0.949 . S
C911 C912 1.349 . S
C911 C913 1.327 . S
C911 H934 0.950 . S
C912 C911 1.349 . S
C912 C924 1.349 . S
C913 C911 1.327 . S
C913 C929 1.429 . S
C913 H935 0.950 . S
C914 H910 0.949 . S
C914 C922 1.574 . S
C914 C930 1.368 . S
H915 C923 0.950 . S
H916 C921 0.950 . S
H917 C922 0.949 . S
H918 C924 0.950 . S
H919 C925 0.950 . S
H920 C926 0.949 . S
C921 H916 0.950 . S
C921 C923 1.327 . S
C921 C927 1.429 . S
C922 C914 1.574 . S
C922 H917 0.949 . S
C922 C928 1.368 . S
C923 C907 1.349 . S
C923 H915 0.950 . S
C923 C921 1.327 . S
C924 C912 1.349 . S
C924 H918 0.950 . S
C924 C925 1.327 . S
C925 H919 0.950 . S
C925 C924 1.327 . S
C925 C929 1.429 . S
C926 C909 1.574 . S
C926 H920 0.949 . S
C926 C930 1.368 . S
C927 C908 1.429 . S
C927 C921 1.429 . S
C927 C928 1.523 . S
C928 C909 1.368 . S
C928 C922 1.368 . S
C928 C927 1.523 . S
C929 C913 1.429 . S
C929 C925 1.429 . S
C929 C930 1.523 . S
C930 C914 1.368 . S
C930 C926 1.368 . S
C930 C929 1.523 . S
H931 C906 0.950 . S
H932 C908 0.950 . S
H933 C909 0.949 . S
H934 C911 0.950 . S
H935 C913 0.950 . S
C936 C937 1.349 . S
C936 C938 1.327 . S
C936 H961 0.950 . S
C937 C936 1.349 . S
C937 C953 1.349 . S
C938 C936 1.327 . S
C938 C957 1.429 . S
C938 H962 0.950 . S
C939 C956 1.574 1_554 S
C939 C958 1.368 . S
C939 H963 0.949 . S
H940 C944 0.949 1_556 S
C941 C942 1.349 . S
C941 C943 1.327 . S
C941 H964 0.950 . S
C942 C941 1.349 . S
C942 C954 1.349 . S
C943 C941 1.327 . S
C943 C959 1.429 . S
C943 H965 0.950 . S
C944 H940 0.949 1_554 S
C944 C952 1.574 . S
C944 C960 1.368 1_554 S
H945 C953 0.950 . S
H946 C951 0.950 . S
H947 C952 0.949 . S
H948 C954 0.950 . S
H949 C955 0.950 . S
H950 C956 0.949 . S
C951 H946 0.950 . S
C951 C953 1.327 . S
C951 C957 1.429 . S
C952 C944 1.574 . S
C952 H947 0.949 . S
C952 C958 1.368 . S
C953 C937 1.349 . S
C953 H945 0.950 . S
C953 C951 1.327 . S
C954 C942 1.349 . S
C954 H948 0.950 . S
C954 C955 1.327 . S
C955 H949 0.950 . S
C955 C954 1.327 . S
C955 C959 1.429 . S
C956 C939 1.574 1_556 S
C956 H950 0.949 . S
C956 C960 1.368 . S
C957 C938 1.429 . S
C957 C951 1.429 . S
C957 C958 1.523 . S
C958 C939 1.368 . S
C958 C952 1.368 . S
C958 C957 1.523 . S
C959 C943 1.429 . S
C959 C955 1.429 . S
C959 C960 1.523 . S
C960 C944 1.368 1_556 S
C960 C956 1.368 . S
C960 C959 1.523 . S
H961 C936 0.950 . S
H962 C938 0.950 . S
H963 C939 0.949 . S
H964 C941 0.950 . S
H965 C943 0.950 . S
C966 C967 1.349 . S
C966 C968 1.327 . S
C966 H991 0.950 . S
C967 C966 1.349 . S
C967 C983 1.349 . S
C968 C966 1.327 . S
C968 C987 1.429 . S
C968 H992 0.950 . S
C969 C986 1.593 . S
C969 C988 1.350 1_655 S
C969 H993 0.949 . S
H970 C974 0.949 . S
C971 C972 1.349 . S
C971 C973 1.327 . S
C971 H994 0.950 . S
C972 C971 1.349 . S
C972 C984 1.349 . S
C973 C971 1.327 . S
C973 C989 1.429 . S
C973 H995 0.950 . S
C974 H970 0.949 . S
C974 C982 1.593 . S
C974 C990 1.350 1_455 S
H975 C983 0.950 . S
H976 C981 0.950 . S
H977 C982 0.949 . S
H978 C984 0.950 . S
H979 C985 0.950 . S
H980 C986 0.949 . S
C981 H976 0.950 . S
C981 C983 1.327 . S
C981 C987 1.429 . S
C982 C974 1.593 . S
C982 H977 0.949 . S
C982 C988 1.368 . S
C983 C967 1.349 . S
C983 H975 0.950 . S
C983 C981 1.327 . S
C984 C972 1.349 . S
C984 H978 0.950 . S
C984 C985 1.327 . S
C985 H979 0.950 . S
C985 C984 1.327 . S
C985 C989 1.429 . S
C986 C969 1.593 . S
C986 H980 0.949 . S
C986 C990 1.368 . S
C987 C968 1.429 . S
C987 C981 1.429 . S
C987 C988 1.523 . S
C988 C969 1.350 1_455 S
C988 C982 1.368 . S
C988 C987 1.523 . S
C989 C973 1.429 . S
C989 C985 1.429 . S
C989 C990 1.523 . S
C990 C974 1.350 1_655 S
C990 C986 1.368 . S
C990 C989 1.523 . S
H991 C966 0.950 . S
H992 C968 0.950 . S
H993 C969 0.949 . S
H994 C971 0.950 . S
H995 C973 0.950 . S
C996 C997 1.349 . S
C996 C998 1.327 . S
C996 H1021 0.950 . S
C997 C996 1.349 . S
C997 C1013 1.349 . S
C998 C996 1.327 . S
C998 C1017 1.429 . S
C998 H1022 0.950 . S
C999 C1016 1.529 1_455 S
C999 C1018 1.411 . S
C999 H1023 0.954 . S
H1000 C1004 0.954 . S
C1001 C1002 1.349 . S
C1001 C1003 1.327 . S
C1001 H1024 0.950 . S
C1002 C1001 1.349 . S
C1002 C1014 1.349 . S
C1003 C1001 1.327 . S
C1003 C1019 1.429 . S
C1003 H1025 0.950 . S
C1004 H1000 0.954 . S
C1004 C1012 1.529 1_656 S
C1004 C1020 1.411 . S
H1005 C1013 0.950 . S
H1006 C1011 0.950 . S
H1007 C1012 0.949 . S
H1008 C1014 0.950 . S
H1009 C1015 0.950 . S
H1010 C1016 0.949 . S
C1011 H1006 0.950 . S
C1011 C1013 1.327 . S
C1011 C1017 1.429 . S
C1012 C1004 1.529 1_454 S
C1012 H1007 0.949 . S
C1012 C1018 1.368 . S
C1013 C997 1.349 . S
C1013 H1005 0.950 . S
C1013 C1011 1.327 . S
C1014 C1002 1.349 . S
C1014 H1008 0.950 . S
C1014 C1015 1.327 . S
C1015 H1009 0.950 . S
C1015 C1014 1.327 . S
C1015 C1019 1.429 . S
C1016 C999 1.529 1_655 S
C1016 H1010 0.949 . S
C1016 C1020 1.368 1_554 S
C1017 C998 1.429 . S
C1017 C1011 1.429 . S
C1017 C1018 1.523 . S
C1018 C999 1.411 . S
C1018 C1012 1.368 . S
C1018 C1017 1.523 . S
C1019 C1003 1.429 . S
C1019 C1015 1.429 . S
C1019 C1020 1.523 . S
C1020 C1004 1.411 . S
C1020 C1016 1.368 1_556 S
C1020 C1019 1.523 . S
H1021 C996 0.950 . S
H1022 C998 0.950 . S
H1023 C999 0.954 . S
H1024 C1001 0.950 . S
H1025 C1003 0.950 . S
C1026 C1027 1.349 . S
C1026 C1028 1.327 . S
C1026 H1051 0.950 . S
C1027 C1026 1.349 . S
C1027 C1043 1.349 . S
C1028 C1026 1.327 . S
C1028 C1047 1.429 . S
C1028 H1052 0.950 . S
C1029 C1046 1.574 . S
C1029 C1048 1.368 . S
C1029 H1053 0.949 . S
H1030 C1034 0.949 . S
C1031 C1032 1.349 . S
C1031 C1033 1.327 . S
C1031 H1054 0.950 . S
C1032 C1031 1.349 . S
C1032 C1044 1.349 . S
C1033 C1031 1.327 . S
C1033 C1049 1.429 . S
C1033 H1055 0.950 . S
C1034 H1030 0.949 . S
C1034 C1042 1.574 . S
C1034 C1050 1.368 . S
H1035 C1043 0.950 . S
H1036 C1041 0.950 . S
H1037 C1042 0.949 . S
H1038 C1044 0.950 . S
H1039 C1045 0.950 . S
H1040 C1046 0.949 . S
C1041 H1036 0.950 . S
C1041 C1043 1.327 . S
C1041 C1047 1.429 . S
C1042 C1034 1.574 . S
C1042 H1037 0.949 . S
C1042 C1048 1.368 . S
C1043 C1027 1.349 . S
C1043 H1035 0.950 . S
C1043 C1041 1.327 . S
C1044 C1032 1.349 . S
C1044 H1038 0.950 . S
C1044 C1045 1.327 . S
C1045 H1039 0.950 . S
C1045 C1044 1.327 . S
C1045 C1049 1.429 . S
C1046 C1029 1.574 . S
C1046 H1040 0.949 . S
C1046 C1050 1.368 . S
C1047 C1028 1.429 . S
C1047 C1041 1.429 . S
C1047 C1048 1.523 . S
C1048 C1029 1.368 . S
C1048 C1042 1.368 . S
C1048 C1047 1.523 . S
C1049 C1033 1.429 . S
C1049 C1045 1.429 . S
C1049 C1050 1.523 . S
C1050 C1034 1.368 . S
C1050 C1046 1.368 . S
C1050 C1049 1.523 . S
H1051 C1026 0.950 . S
H1052 C1028 0.950 . S
H1053 C1029 0.949 . S
H1054 C1031 0.950 . S
H1055 C1033 0.950 . S
C1056 C1057 1.349 . S
C1056 C1058 1.327 . S
C1056 H1081 0.950 . S
C1057 C1056 1.349 . S
C1057 C1073 1.349 . S
C1058 C1056 1.327 . S
C1058 C1077 1.429 . S
C1058 H1082 0.950 . S
C1059 C1076 1.574 . S
C1059 C1078 1.368 . S
C1059 H1083 0.949 . S
H1060 C1064 0.949 . S
C1061 C1062 1.349 . S
C1061 C1063 1.327 . S
C1061 H1084 0.950 . S
C1062 C1061 1.349 . S
C1062 C1074 1.349 . S
C1063 C1061 1.327 . S
C1063 C1079 1.429 . S
C1063 H1085 0.950 . S
C1064 H1060 0.949 . S
C1064 C1072 1.574 . S
C1064 C1080 1.368 . S
H1065 C1073 0.950 . S
H1066 C1071 0.950 . S
H1067 C1072 0.949 . S
H1068 C1074 0.950 . S
H1069 C1075 0.950 . S
H1070 C1076 0.949 . S
C1071 H1066 0.950 . S
C1071 C1073 1.327 . S
C1071 C1077 1.429 . S
C1072 C1064 1.574 . S
C1072 H1067 0.949 . S
C1072 C1078 1.368 . S
C1073 C1057 1.349 . S
C1073 H1065 0.950 . S
C1073 C1071 1.327 . S
C1074 C1062 1.349 . S
C1074 H1068 0.950 . S
C1074 C1075 1.327 . S
C1075 H1069 0.950 . S
C1075 C1074 1.327 . S
C1075 C1079 1.429 . S
C1076 C1059 1.574 . S
C1076 H1070 0.949 . S
C1076 C1080 1.368 . S
C1077 C1058 1.429 . S
C1077 C1071 1.429 . S
C1077 C1078 1.523 . S
C1078 C1059 1.368 . S
C1078 C1072 1.368 . S
C1078 C1077 1.523 . S
C1079 C1063 1.429 . S
C1079 C1075 1.429 . S
C1079 C1080 1.523 . S
C1080 C1064 1.368 . S
C1080 C1076 1.368 . S
C1080 C1079 1.523 . S
H1081 C1056 0.950 . S
H1082 C1058 0.950 . S
H1083 C1059 0.949 . S
H1084 C1061 0.950 . S
H1085 C1063 0.950 . S
C1086 C1087 1.349 . S
C1086 C1088 1.327 . S
C1086 H1111 0.950 . S
C1087 C1086 1.349 . S
C1087 C1103 1.349 . S
C1088 C1086 1.327 . S
C1088 C1107 1.429 . S
C1088 H1112 0.950 . S
C1089 C1106 1.574 . S
C1089 C1108 1.368 . S
C1089 H1113 0.949 . S
H1090 C1094 0.949 . S
C1091 C1092 1.349 . S
C1091 C1093 1.327 . S
C1091 H1114 0.950 . S
C1092 C1091 1.349 . S
C1092 C1104 1.349 . S
C1093 C1091 1.327 . S
C1093 C1109 1.429 . S
C1093 H1115 0.950 . S
C1094 H1090 0.949 . S
C1094 C1102 1.574 . S
C1094 C1110 1.368 . S
H1095 C1103 0.950 . S
H1096 C1101 0.950 . S
H1097 C1102 0.949 . S
H1098 C1104 0.950 . S
H1099 C1105 0.950 . S
H1100 C1106 0.949 . S
C1101 H1096 0.950 . S
C1101 C1103 1.327 . S
C1101 C1107 1.429 . S
C1102 C1094 1.574 . S
C1102 H1097 0.949 . S
C1102 C1108 1.368 . S
C1103 C1087 1.349 . S
C1103 H1095 0.950 . S
C1103 C1101 1.327 . S
C1104 C1092 1.349 . S
C1104 H1098 0.950 . S
C1104 C1105 1.327 . S
C1105 H1099 0.950 . S
C1105 C1104 1.327 . S
C1105 C1109 1.429 . S
C1106 C1089 1.574 . S
C1106 H1100 0.949 . S
C1106 C1110 1.368 . S
C1107 C1088 1.429 . S
C1107 C1101 1.429 . S
C1107 C1108 1.523 . S
C1108 C1089 1.368 . S
C1108 C1102 1.368 . S
C1108 C1107 1.523 . S
C1109 C1093 1.429 . S
C1109 C1105 1.429 . S
C1109 C1110 1.523 . S
C1110 C1094 1.368 . S
C1110 C1106 1.368 . S
C1110 C1109 1.523 . S
H1111 C1086 0.950 . S
H1112 C1088 0.950 . S
H1113 C1089 0.949 . S
H1114 C1091 0.950 . S
H1115 C1093 0.950 . S
C1116 C1117 1.349 . S
C1116 C1118 1.327 . S
C1116 H1141 0.950 . S
C1117 C1116 1.349 . S
C1117 C1133 1.349 . S
C1118 C1116 1.327 . S
C1118 C1137 1.429 . S
C1118 H1142 0.950 . S
C1119 C1136 1.574 . S
C1119 C1138 1.368 . S
C1119 H1143 0.949 . S
H1120 C1124 0.949 . S
C1121 C1122 1.349 . S
C1121 C1123 1.327 . S
C1121 H1144 0.950 . S
C1122 C1121 1.349 . S
C1122 C1134 1.349 . S
C1123 C1121 1.327 . S
C1123 C1139 1.429 . S
C1123 H1145 0.950 . S
C1124 H1120 0.949 . S
C1124 C1132 1.574 . S
C1124 C1140 1.368 . S
H1125 C1133 0.950 . S
H1126 C1131 0.950 . S
H1127 C1132 0.949 . S
H1128 C1134 0.950 . S
H1129 C1135 0.950 . S
H1130 C1136 0.949 . S
C1131 H1126 0.950 . S
C1131 C1133 1.327 . S
C1131 C1137 1.429 . S
C1132 C1124 1.574 . S
C1132 H1127 0.949 . S
C1132 C1138 1.368 . S
C1133 C1117 1.349 . S
C1133 H1125 0.950 . S
C1133 C1131 1.327 . S
C1134 C1122 1.349 . S
C1134 H1128 0.950 . S
C1134 C1135 1.327 . S
C1135 H1129 0.950 . S
C1135 C1134 1.327 . S
C1135 C1139 1.429 . S
C1136 C1119 1.574 . S
C1136 H1130 0.949 . S
C1136 C1140 1.368 . S
C1137 C1118 1.429 . S
C1137 C1131 1.429 . S
C1137 C1138 1.523 . S
C1138 C1119 1.368 . S
C1138 C1132 1.368 . S
C1138 C1137 1.523 . S
C1139 C1123 1.429 . S
C1139 C1135 1.429 . S
C1139 C1140 1.523 . S
C1140 C1124 1.368 . S
C1140 C1136 1.368 . S
C1140 C1139 1.523 . S
H1141 C1116 0.950 . S
H1142 C1118 0.950 . S
H1143 C1119 0.949 . S
H1144 C1121 0.950 . S
H1145 C1123 0.950 . S
C1146 C1147 1.349 . S
C1146 C1148 1.327 . S
C1146 H1171 0.950 1_556 S
C1147 C1146 1.349 . S
C1147 C1163 1.349 . S
C1148 C1146 1.327 . S
C1148 C1167 1.429 . S
C1148 H1172 0.950 . S
C1149 C1166 1.574 . S
C1149 C1168 1.368 . S
C1149 H1173 0.949 . S
H1150 C1154 0.949 . S
C1151 C1152 1.349 . S
C1151 C1153 1.327 . S
C1151 H1174 0.950 . S
C1152 C1151 1.349 . S
C1152 C1164 1.349 . S
C1153 C1151 1.327 . S
C1153 C1169 1.429 . S
C1153 H1175 0.950 . S
C1154 H1150 0.949 . S
C1154 C1162 1.574 . S
C1154 C1170 1.368 . S
H1155 C1163 0.950 . S
H1156 C1161 0.950 . S
H1157 C1162 0.949 . S
H1158 C1164 0.950 . S
H1159 C1165 0.950 . S
H1160 C1166 0.949 . S
C1161 H1156 0.950 . S
C1161 C1163 1.327 . S
C1161 C1167 1.429 . S
C1162 C1154 1.574 . S
C1162 H1157 0.949 . S
C1162 C1168 1.368 . S
C1163 C1147 1.349 . S
C1163 H1155 0.950 . S
C1163 C1161 1.327 . S
C1164 C1152 1.349 . S
C1164 H1158 0.950 . S
C1164 C1165 1.327 . S
C1165 H1159 0.950 . S
C1165 C1164 1.327 . S
C1165 C1169 1.429 . S
C1166 C1149 1.574 . S
C1166 H1160 0.949 . S
C1166 C1170 1.368 . S
C1167 C1148 1.429 . S
C1167 C1161 1.429 . S
C1167 C1168 1.523 . S
C1168 C1149 1.368 . S
C1168 C1162 1.368 . S
C1168 C1167 1.523 . S
C1169 C1153 1.429 . S
C1169 C1165 1.429 . S
C1169 C1170 1.523 . S
C1170 C1154 1.368 . S
C1170 C1166 1.368 . S
C1170 C1169 1.523 . S
H1171 C1146 0.950 1_554 S
H1172 C1148 0.950 . S
H1173 C1149 0.949 . S
H1174 C1151 0.950 . S
H1175 C1153 0.950 . S
C1176 C1177 1.349 . S
C1176 C1178 1.327 . S
C1176 H1201 0.950 . S
C1177 C1176 1.349 . S
C1177 C1193 1.349 . S
C1178 C1176 1.327 . S
C1178 C1197 1.429 . S
C1178 H1202 0.950 . S
C1179 C1196 1.574 . S
C1179 C1198 1.368 . S
C1179 H1203 0.949 . S
H1180 C1184 0.949 . S
C1181 C1182 1.349 . S
C1181 C1183 1.327 . S
C1181 H1204 0.950 . S
C1182 C1181 1.349 . S
C1182 C1194 1.349 . S
C1183 C1181 1.327 . S
C1183 C1199 1.429 . S
C1183 H1205 0.950 . S
C1184 H1180 0.949 . S
C1184 C1192 1.574 . S
C1184 C1200 1.368 . S
H1185 C1193 0.950 . S
H1186 C1191 0.950 . S
H1187 C1192 0.949 . S
H1188 C1194 0.950 . S
H1189 C1195 0.950 . S
H1190 C1196 0.949 . S
C1191 H1186 0.950 . S
C1191 C1193 1.327 . S
C1191 C1197 1.429 . S
C1192 C1184 1.574 . S
C1192 H1187 0.949 . S
C1192 C1198 1.368 . S
C1193 C1177 1.349 . S
C1193 H1185 0.950 . S
C1193 C1191 1.327 . S
C1194 C1182 1.349 . S
C1194 H1188 0.950 . S
C1194 C1195 1.327 . S
C1195 H1189 0.950 . S
C1195 C1194 1.327 . S
C1195 C1199 1.429 . S
C1196 C1179 1.574 . S
C1196 H1190 0.949 . S
C1196 C1200 1.368 . S
C1197 C1178 1.429 . S
C1197 C1191 1.429 . S
C1197 C1198 1.523 . S
C1198 C1179 1.368 . S
C1198 C1192 1.368 . S
C1198 C1197 1.523 . S
C1199 C1183 1.429 . S
C1199 C1195 1.429 . S
C1199 C1200 1.523 . S
C1200 C1184 1.368 . S
C1200 C1196 1.368 . S
C1200 C1199 1.523 . S
H1201 C1176 0.950 . S
H1202 C1178 0.950 . S
H1203 C1179 0.949 . S
H1204 C1181 0.950 . S
H1205 C1183 0.950 . S
C1206 C1207 1.349 . S
C1206 C1208 1.327 . S
C1206 H1231 0.950 . S
C1207 C1206 1.349 . S
C1207 C1223 1.349 . S
C1208 C1206 1.327 . S
C1208 C1227 1.429 . S
C1208 H1232 0.950 . S
C1209 C1226 1.574 . S
C1209 C1228 1.368 . S
C1209 H1233 0.949 . S
H1210 C1214 0.949 . S
C1211 C1212 1.349 . S
C1211 C1213 1.327 . S
C1211 H1234 0.950 . S
C1212 C1211 1.349 . S
C1212 C1224 1.349 . S
C1213 C1211 1.327 . S
C1213 C1229 1.429 . S
C1213 H1235 0.950 . S
C1214 H1210 0.949 . S
C1214 C1222 1.574 . S
C1214 C1230 1.368 . S
H1215 C1223 0.950 . S
H1216 C1221 0.950 . S
H1217 C1222 0.949 . S
H1218 C1224 0.950 . S
H1219 C1225 0.950 . S
H1220 C1226 0.949 . S
C1221 H1216 0.950 . S
C1221 C1223 1.327 . S
C1221 C1227 1.429 . S
C1222 C1214 1.574 . S
C1222 H1217 0.949 . S
C1222 C1228 1.368 . S
C1223 C1207 1.349 . S
C1223 H1215 0.950 . S
C1223 C1221 1.327 . S
C1224 C1212 1.349 . S
C1224 H1218 0.950 . S
C1224 C1225 1.327 . S
C1225 H1219 0.950 . S
C1225 C1224 1.327 . S
C1225 C1229 1.429 . S
C1226 C1209 1.574 . S
C1226 H1220 0.949 . S
C1226 C1230 1.368 . S
C1227 C1208 1.429 . S
C1227 C1221 1.429 . S
C1227 C1228 1.523 . S
C1228 C1209 1.368 . S
C1228 C1222 1.368 . S
C1228 C1227 1.523 . S
C1229 C1213 1.429 . S
C1229 C1225 1.429 . S
C1229 C1230 1.523 . S
C1230 C1214 1.368 . S
C1230 C1226 1.368 . S
C1230 C1229 1.523 . S
H1231 C1206 0.950 . S
H1232 C1208 0.950 . S
H1233 C1209 0.949 . S
H1234 C1211 0.950 . S
H1235 C1213 0.950 . S
C1236 C1237 1.349 . S
C1236 C1238 1.327 . S
C1236 H1261 0.950 . S
C1237 C1236 1.349 . S
C1237 C1253 1.349 . S
C1238 C1236 1.327 . S
C1238 C1257 1.429 . S
C1238 H1262 0.950 . S
C1239 C1256 1.574 . S
C1239 C1258 1.368 . S
C1239 H1263 0.949 . S
H1240 C1244 0.949 . S
C1241 C1242 1.349 . S
C1241 C1243 1.327 . S
C1241 H1264 0.950 . S
C1242 C1241 1.349 . S
C1242 C1254 1.349 . S
C1243 C1241 1.327 . S
C1243 C1259 1.429 . S
C1243 H1265 0.950 . S
C1244 H1240 0.949 . S
C1244 C1252 1.574 . S
C1244 C1260 1.368 . S
H1245 C1253 0.950 . S
H1246 C1251 0.950 . S
H1247 C1252 0.949 . S
H1248 C1254 0.950 1_554 S
H1249 C1255 0.950 . S
H1250 C1256 0.949 . S
C1251 H1246 0.950 . S
C1251 C1253 1.327 . S
C1251 C1257 1.429 . S
C1252 C1244 1.574 . S
C1252 H1247 0.949 . S
C1252 C1258 1.368 . S
C1253 C1237 1.349 . S
C1253 H1245 0.950 . S
C1253 C1251 1.327 . S
C1254 C1242 1.349 . S
C1254 H1248 0.950 1_556 S
C1254 C1255 1.327 . S
C1255 H1249 0.950 . S
C1255 C1254 1.327 . S
C1255 C1259 1.429 . S
C1256 C1239 1.574 . S
C1256 H1250 0.949 . S
C1256 C1260 1.368 . S
C1257 C1238 1.429 . S
C1257 C1251 1.429 . S
C1257 C1258 1.523 . S
C1258 C1239 1.368 . S
C1258 C1252 1.368 . S
C1258 C1257 1.523 . S
C1259 C1243 1.429 . S
C1259 C1255 1.429 . S
C1259 C1260 1.523 . S
C1260 C1244 1.368 . S
C1260 C1256 1.368 . S
C1260 C1259 1.523 . S
H1261 C1236 0.950 . S
H1262 C1238 0.950 . S
H1263 C1239 0.949 . S
H1264 C1241 0.950 . S
H1265 C1243 0.950 . S
C1266 C1267 1.349 . S
C1266 C1268 1.327 . S
C1266 H1291 0.950 . S
C1267 C1266 1.349 . S
C1267 C1283 1.349 . S
C1268 C1266 1.327 . S
C1268 C1287 1.429 . S
C1268 H1292 0.950 . S
C1269 C1286 1.574 . S
C1269 C1288 1.368 . S
C1269 H1293 0.949 . S
H1270 C1274 0.949 . S
C1271 C1272 1.349 . S
C1271 C1273 1.327 . S
C1271 H1294 0.950 . S
C1272 C1271 1.349 . S
C1272 C1284 1.349 . S
C1273 C1271 1.327 . S
C1273 C1289 1.429 . S
C1273 H1295 0.950 . S
C1274 H1270 0.949 . S
C1274 C1282 1.574 . S
C1274 C1290 1.368 . S
H1275 C1283 0.950 . S
H1276 C1281 0.950 . S
H1277 C1282 0.949 . S
H1278 C1284 0.950 . S
H1279 C1285 0.950 . S
H1280 C1286 0.949 . S
C1281 H1276 0.950 . S
C1281 C1283 1.327 . S
C1281 C1287 1.429 . S
C1282 C1274 1.574 . S
C1282 H1277 0.949 . S
C1282 C1288 1.368 . S
C1283 C1267 1.349 . S
C1283 H1275 0.950 . S
C1283 C1281 1.327 . S
C1284 C1272 1.349 . S
C1284 H1278 0.950 . S
C1284 C1285 1.327 . S
C1285 H1279 0.950 . S
C1285 C1284 1.327 . S
C1285 C1289 1.429 . S
C1286 C1269 1.574 . S
C1286 H1280 0.949 . S
C1286 C1290 1.368 . S
C1287 C1268 1.429 . S
C1287 C1281 1.429 . S
C1287 C1288 1.523 . S
C1288 C1269 1.368 . S
C1288 C1282 1.368 . S
C1288 C1287 1.523 . S
C1289 C1273 1.429 . S
C1289 C1285 1.429 . S
C1289 C1290 1.523 . S
C1290 C1274 1.368 . S
C1290 C1286 1.368 . S
C1290 C1289 1.523 . S
H1291 C1266 0.950 . S
H1292 C1268 0.950 . S
H1293 C1269 0.949 . S
H1294 C1271 0.950 . S
H1295 C1273 0.950 . S
C1296 C1297 1.349 . S
C1296 C1298 1.327 . S
C1296 H1321 0.950 1_556 S
C1297 C1296 1.349 . S
C1297 C1313 1.349 . S
C1298 C1296 1.327 . S
C1298 C1317 1.429 . S
C1298 H1322 0.950 . S
C1299 C1316 1.574 . S
C1299 C1318 1.368 . S
C1299 H1323 0.949 . S
H1300 C1304 0.949 . S
C1301 C1302 1.349 . S
C1301 C1303 1.327 . S
C1301 H1324 0.950 . S
C1302 C1301 1.349 . S
C1302 C1314 1.349 . S
C1303 C1301 1.327 . S
C1303 C1319 1.429 . S
C1303 H1325 0.950 . S
C1304 H1300 0.949 . S
C1304 C1312 1.574 . S
C1304 C1320 1.368 . S
H1305 C1313 0.950 . S
H1306 C1311 0.950 . S
H1307 C1312 0.949 . S
H1308 C1314 0.950 . S
H1309 C1315 0.950 . S
H1310 C1316 0.949 . S
C1311 H1306 0.950 . S
C1311 C1313 1.327 . S
C1311 C1317 1.429 . S
C1312 C1304 1.574 . S
C1312 H1307 0.949 . S
C1312 C1318 1.368 . S
C1313 C1297 1.349 . S
C1313 H1305 0.950 . S
C1313 C1311 1.327 . S
C1314 C1302 1.349 . S
C1314 H1308 0.950 . S
C1314 C1315 1.327 . S
C1315 H1309 0.950 . S
C1315 C1314 1.327 . S
C1315 C1319 1.429 . S
C1316 C1299 1.574 . S
C1316 H1310 0.949 . S
C1316 C1320 1.368 . S
C1317 C1298 1.429 . S
C1317 C1311 1.429 . S
C1317 C1318 1.523 . S
C1318 C1299 1.368 . S
C1318 C1312 1.368 . S
C1318 C1317 1.523 . S
C1319 C1303 1.429 . S
C1319 C1315 1.429 . S
C1319 C1320 1.523 . S
C1320 C1304 1.368 . S
C1320 C1316 1.368 . S
C1320 C1319 1.523 . S
H1321 C1296 0.950 1_554 S
H1322 C1298 0.950 . S
H1323 C1299 0.949 . S
H1324 C1301 0.950 . S
H1325 C1303 0.950 . S
C1326 C1327 1.349 . S
C1326 C1328 1.327 . S
C1326 H1351 0.950 . S
C1327 C1326 1.349 . S
C1327 C1343 1.349 . S
C1328 C1326 1.327 . S
C1328 C1347 1.429 . S
C1328 H1352 0.950 . S
C1329 C1346 1.574 . S
C1329 C1348 1.368 . S
C1329 H1353 0.949 . S
H1330 C1334 0.949 . S
C1331 C1332 1.349 . S
C1331 C1333 1.327 . S
C1331 H1354 0.950 . S
C1332 C1331 1.349 . S
C1332 C1344 1.349 . S
C1333 C1331 1.327 . S
C1333 C1349 1.429 . S
C1333 H1355 0.950 . S
C1334 H1330 0.949 . S
C1334 C1342 1.574 . S
C1334 C1350 1.368 . S
H1335 C1343 0.950 . S
H1336 C1341 0.950 . S
H1337 C1342 0.949 . S
H1338 C1344 0.950 . S
H1339 C1345 0.950 . S
H1340 C1346 0.949 . S
C1341 H1336 0.950 . S
C1341 C1343 1.327 . S
C1341 C1347 1.429 . S
C1342 C1334 1.574 . S
C1342 H1337 0.949 . S
C1342 C1348 1.368 . S
C1343 C1327 1.349 . S
C1343 H1335 0.950 . S
C1343 C1341 1.327 . S
C1344 C1332 1.349 . S
C1344 H1338 0.950 . S
C1344 C1345 1.327 . S
C1345 H1339 0.950 . S
C1345 C1344 1.327 . S
C1345 C1349 1.429 . S
C1346 C1329 1.574 . S
C1346 H1340 0.949 . S
C1346 C1350 1.368 . S
C1347 C1328 1.429 . S
C1347 C1341 1.429 . S
C1347 C1348 1.523 . S
C1348 C1329 1.368 . S
C1348 C1342 1.368 . S
C1348 C1347 1.523 . S
C1349 C1333 1.429 . S
C1349 C1345 1.429 . S
C1349 C1350 1.523 . S
C1350 C1334 1.368 . S
C1350 C1346 1.368 . S
C1350 C1349 1.523 . S
H1351 C1326 0.950 . S
H1352 C1328 0.950 . S
H1353 C1329 0.949 . S
H1354 C1331 0.950 . S
H1355 C1333 0.950 . S
C1356 C1357 1.349 . S
C1356 C1358 1.327 . S
C1356 H1381 0.950 . S
C1357 C1356 1.349 . S
C1357 C1373 1.349 . S
C1358 C1356 1.327 . S
C1358 C1377 1.429 . S
C1358 H1382 0.950 . S
C1359 C1376 1.574 . S
C1359 C1378 1.368 . S
C1359 H1383 0.949 . S
H1360 C1364 0.949 . S
C1361 C1362 1.349 . S
C1361 C1363 1.327 . S
C1361 H1384 0.950 . S
C1362 C1361 1.349 . S
C1362 C1374 1.349 . S
C1363 C1361 1.327 . S
C1363 C1379 1.429 . S
C1363 H1385 0.950 . S
C1364 H1360 0.949 . S
C1364 C1372 1.574 . S
C1364 C1380 1.368 . S
H1365 C1373 0.950 . S
H1366 C1371 0.950 . S
H1367 C1372 0.949 . S
H1368 C1374 0.950 . S
H1369 C1375 0.950 . S
H1370 C1376 0.949 . S
C1371 H1366 0.950 . S
C1371 C1373 1.327 . S
C1371 C1377 1.429 . S
C1372 C1364 1.574 . S
C1372 H1367 0.949 . S
C1372 C1378 1.368 . S
C1373 C1357 1.349 . S
C1373 H1365 0.950 . S
C1373 C1371 1.327 . S
C1374 C1362 1.349 . S
C1374 H1368 0.950 . S
C1374 C1375 1.327 . S
C1375 H1369 0.950 . S
C1375 C1374 1.327 . S
C1375 C1379 1.429 . S
C1376 C1359 1.574 . S
C1376 H1370 0.949 . S
C1376 C1380 1.368 . S
C1377 C1358 1.429 . S
C1377 C1371 1.429 . S
C1377 C1378 1.523 . S
C1378 C1359 1.368 . S
C1378 C1372 1.368 . S
C1378 C1377 1.523 . S
C1379 C1363 1.429 . S
C1379 C1375 1.429 . S
C1379 C1380 1.523 . S
C1380 C1364 1.368 . S
C1380 C1376 1.368 . S
C1380 C1379 1.523 . S
H1381 C1356 0.950 . S
H1382 C1358 0.950 . S
H1383 C1359 0.949 . S
H1384 C1361 0.950 . S
H1385 C1363 0.950 . S
C1386 C1387 1.349 . S
C1386 C1388 1.327 . S
C1386 H1411 0.950 . S
C1387 C1386 1.349 . S
C1387 C1403 1.349 . S
C1388 C1386 1.327 . S
C1388 C1407 1.429 . S
C1388 H1412 0.950 . S
C1389 C1406 1.574 . S
C1389 C1408 1.368 . S
C1389 H1413 0.949 . S
H1390 C1394 0.949 . S
C1391 C1392 1.349 . S
C1391 C1393 1.327 . S
C1391 H1414 0.950 . S
C1392 C1391 1.349 . S
C1392 C1404 1.349 . S
C1393 C1391 1.327 . S
C1393 C1409 1.429 . S
C1393 H1415 0.950 . S
C1394 H1390 0.949 . S
C1394 C1402 1.574 . S
C1394 C1410 1.368 . S
H1395 C1403 0.950 . S
H1396 C1401 0.950 . S
H1397 C1402 0.949 . S
H1398 C1404 0.950 . S
H1399 C1405 0.950 . S
H1400 C1406 0.949 . S
C1401 H1396 0.950 . S
C1401 C1403 1.327 . S
C1401 C1407 1.429 . S
C1402 C1394 1.574 . S
C1402 H1397 0.949 . S
C1402 C1408 1.368 . S
C1403 C1387 1.349 . S
C1403 H1395 0.950 . S
C1403 C1401 1.327 . S
C1404 C1392 1.349 . S
C1404 H1398 0.950 . S
C1404 C1405 1.327 . S
C1405 H1399 0.950 . S
C1405 C1404 1.327 . S
C1405 C1409 1.429 . S
C1406 C1389 1.574 . S
C1406 H1400 0.949 . S
C1406 C1410 1.368 . S
C1407 C1388 1.429 . S
C1407 C1401 1.429 . S
C1407 C1408 1.523 . S
C1408 C1389 1.368 . S
C1408 C1402 1.368 . S
C1408 C1407 1.523 . S
C1409 C1393 1.429 . S
C1409 C1405 1.429 . S
C1409 C1410 1.523 . S
C1410 C1394 1.368 . S
C1410 C1406 1.368 . S
C1410 C1409 1.523 . S
H1411 C1386 0.950 . S
H1412 C1388 0.950 . S
H1413 C1389 0.949 . S
H1414 C1391 0.950 . S
H1415 C1393 0.950 . S
C1416 C1417 1.349 . S
C1416 C1418 1.327 . S
C1416 H1441 0.950 . S
C1417 C1416 1.349 . S
C1417 C1433 1.349 . S
C1418 C1416 1.327 . S
C1418 C1437 1.429 . S
C1418 H1442 0.950 . S
C1419 C1436 1.574 . S
C1419 C1438 1.368 . S
C1419 H1443 0.949 . S
H1420 C1424 0.949 . S
C1421 C1422 1.349 . S
C1421 C1423 1.327 . S
C1421 H1444 0.950 . S
C1422 C1421 1.349 . S
C1422 C1434 1.349 . S
C1423 C1421 1.327 . S
C1423 C1439 1.429 . S
C1423 H1445 0.950 . S
C1424 H1420 0.949 . S
C1424 C1432 1.574 . S
C1424 C1440 1.368 . S
H1425 C1433 0.950 . S
H1426 C1431 0.950 . S
H1427 C1432 0.949 . S
H1428 C1434 0.950 . S
H1429 C1435 0.950 . S
H1430 C1436 0.949 . S
C1431 H1426 0.950 . S
C1431 C1433 1.327 . S
C1431 C1437 1.429 . S
C1432 C1424 1.574 . S
C1432 H1427 0.949 . S
C1432 C1438 1.368 . S
C1433 C1417 1.349 . S
C1433 H1425 0.950 . S
C1433 C1431 1.327 . S
C1434 C1422 1.349 . S
C1434 H1428 0.950 . S
C1434 C1435 1.327 . S
C1435 H1429 0.950 . S
C1435 C1434 1.327 . S
C1435 C1439 1.429 . S
C1436 C1419 1.574 . S
C1436 H1430 0.949 . S
C1436 C1440 1.368 . S
C1437 C1418 1.429 . S
C1437 C1431 1.429 . S
C1437 C1438 1.523 . S
C1438 C1419 1.368 . S
C1438 C1432 1.368 . S
C1438 C1437 1.523 . S
C1439 C1423 1.429 . S
C1439 C1435 1.429 . S
C1439 C1440 1.523 . S
C1440 C1424 1.368 . S
C1440 C1436 1.368 . S
C1440 C1439 1.523 . S
H1441 C1416 0.950 . S
H1442 C1418 0.950 . S
H1443 C1419 0.949 . S
H1444 C1421 0.950 . S
H1445 C1423 0.950 . S
C1446 C1447 1.349 . S
C1446 C1448 1.327 . S
C1446 H1471 0.950 . S
C1447 C1446 1.349 . S
C1447 C1463 1.349 . S
C1448 C1446 1.327 . S
C1448 C1467 1.429 . S
C1448 H1472 0.950 . S
C1449 C1466 1.574 . S
C1449 C1468 1.368 . S
C1449 H1473 0.949 . S
H1450 C1454 0.949 . S
C1451 C1452 1.349 . S
C1451 C1453 1.327 . S
C1451 H1474 0.950 . S
C1452 C1451 1.349 . S
C1452 C1464 1.349 . S
C1453 C1451 1.327 . S
C1453 C1469 1.429 . S
C1453 H1475 0.950 . S
C1454 H1450 0.949 . S
C1454 C1462 1.574 . S
C1454 C1470 1.368 . S
H1455 C1463 0.950 . S
H1456 C1461 0.950 . S
H1457 C1462 0.949 . S
H1458 C1464 0.950 . S
H1459 C1465 0.950 . S
H1460 C1466 0.949 . S
C1461 H1456 0.950 . S
C1461 C1463 1.327 . S
C1461 C1467 1.429 . S
C1462 C1454 1.574 . S
C1462 H1457 0.949 . S
C1462 C1468 1.368 . S
C1463 C1447 1.349 . S
C1463 H1455 0.950 . S
C1463 C1461 1.327 . S
C1464 C1452 1.349 . S
C1464 H1458 0.950 . S
C1464 C1465 1.327 . S
C1465 H1459 0.950 . S
C1465 C1464 1.327 . S
C1465 C1469 1.429 . S
C1466 C1449 1.574 . S
C1466 H1460 0.949 . S
C1466 C1470 1.368 . S
C1467 C1448 1.429 . S
C1467 C1461 1.429 . S
C1467 C1468 1.523 . S
C1468 C1449 1.368 . S
C1468 C1462 1.368 . S
C1468 C1467 1.523 . S
C1469 C1453 1.429 . S
C1469 C1465 1.429 . S
C1469 C1470 1.523 . S
C1470 C1454 1.368 . S
C1470 C1466 1.368 . S
C1470 C1469 1.523 . S
H1471 C1446 0.950 . S
H1472 C1448 0.950 . S
H1473 C1449 0.949 . S
H1474 C1451 0.950 . S
H1475 C1453 0.950 . S
C1476 C1477 1.349 . S
C1476 C1478 1.327 . S
C1476 H1501 0.950 . S
C1477 C1476 1.349 . S
C1477 C1493 1.349 . S
C1478 C1476 1.327 . S
C1478 C1497 1.429 . S
C1478 H1502 0.950 . S
C1479 C1496 1.574 . S
C1479 C1498 1.368 . S
C1479 H1503 0.949 . S
H1480 C1484 0.949 . S
C1481 C1482 1.349 . S
C1481 C1483 1.327 . S
C1481 H1504 0.950 . S
C1482 C1481 1.349 . S
C1482 C1494 1.349 . S
C1483 C1481 1.327 . S
C1483 C1499 1.429 . S
C1483 H1505 0.950 . S
C1484 H1480 0.949 . S
C1484 C1492 1.574 . S
C1484 C1500 1.368 . S
H1485 C1493 0.950 . S
H1486 C1491 0.950 . S
H1487 C1492 0.949 . S
H1488 C1494 0.950 . S
H1489 C1495 0.950 . S
H1490 C1496 0.949 . S
C1491 H1486 0.950 . S
C1491 C1493 1.327 . S
C1491 C1497 1.429 . S
C1492 C1484 1.574 . S
C1492 H1487 0.949 . S
C1492 C1498 1.368 . S
C1493 C1477 1.349 . S
C1493 H1485 0.950 . S
C1493 C1491 1.327 . S
C1494 C1482 1.349 . S
C1494 H1488 0.950 . S
C1494 C1495 1.327 . S
C1495 H1489 0.950 . S
C1495 C1494 1.327 . S
C1495 C1499 1.429 . S
C1496 C1479 1.574 . S
C1496 H1490 0.949 . S
C1496 C1500 1.368 . S
C1497 C1478 1.429 . S
C1497 C1491 1.429 . S
C1497 C1498 1.523 . S
C1498 C1479 1.368 . S
C1498 C1492 1.368 . S
C1498 C1497 1.523 . S
C1499 C1483 1.429 . S
C1499 C1495 1.429 . S
C1499 C1500 1.523 . S
C1500 C1484 1.368 . S
C1500 C1496 1.368 . S
C1500 C1499 1.523 . S
H1501 C1476 0.950 . S
H1502 C1478 0.950 . S
H1503 C1479 0.949 . S
H1504 C1481 0.950 . S
H1505 C1483 0.950 . S
C1506 C1507 1.349 . S
C1506 C1508 1.327 . S
C1506 H1531 0.950 . S
C1507 C1506 1.349 . S
C1507 C1523 1.349 . S
C1508 C1506 1.327 . S
C1508 C1527 1.429 . S
C1508 H1532 0.950 . S
C1509 C1526 1.574 . S
C1509 C1528 1.368 . S
C1509 H1533 0.949 . S
H1510 C1514 0.949 . S
C1511 C1512 1.349 . S
C1511 C1513 1.327 . S
C1511 H1534 0.950 . S
C1512 C1511 1.349 . S
C1512 C1524 1.349 . S
C1513 C1511 1.327 . S
C1513 C1529 1.429 . S
C1513 H1535 0.950 . S
C1514 H1510 0.949 . S
C1514 C1522 1.574 . S
C1514 C1530 1.368 . S
H1515 C1523 0.950 . S
H1516 C1521 0.950 . S
H1517 C1522 0.949 . S
H1518 C1524 0.950 . S
H1519 C1525 0.950 . S
H1520 C1526 0.949 . S
C1521 H1516 0.950 . S
C1521 C1523 1.327 . S
C1521 C1527 1.429 . S
C1522 C1514 1.574 . S
C1522 H1517 0.949 . S
C1522 C1528 1.368 . S
C1523 C1507 1.349 . S
C1523 H1515 0.950 . S
C1523 C1521 1.327 . S
C1524 C1512 1.349 . S
C1524 H1518 0.950 . S
C1524 C1525 1.327 . S
C1525 H1519 0.950 . S
C1525 C1524 1.327 . S
C1525 C1529 1.429 . S
C1526 C1509 1.574 . S
C1526 H1520 0.949 . S
C1526 C1530 1.368 . S
C1527 C1508 1.429 . S
C1527 C1521 1.429 . S
C1527 C1528 1.523 . S
C1528 C1509 1.368 . S
C1528 C1522 1.368 . S
C1528 C1527 1.523 . S
C1529 C1513 1.429 . S
C1529 C1525 1.429 . S
C1529 C1530 1.523 . S
C1530 C1514 1.368 . S
C1530 C1526 1.368 . S
C1530 C1529 1.523 . S
H1531 C1506 0.950 . S
H1532 C1508 0.950 . S
H1533 C1509 0.949 . S
H1534 C1511 0.950 . S
H1535 C1513 0.950 . S
C577 C3 1.314 . S
C582 C435 1.314 . S
C607 C38 1.259 . S
C612 C182 1.259 . S
C637 C74 1.263 . S
C642 C506 1.263 . S
C667 C255 1.322 . S
C672 C111 1.322 . S
C697 C507 1.322 . S
C702 C75 1.322 . S
C727 C254 1.263 . S
C732 C110 1.263 . S
C757 C434 1.259 . S
C762 C2 1.259 . S
C787 C183 1.314 . S
C792 C39 1.314 . S
C817 C147 1.314 . S
C822 C291 1.314 . S
C847 C218 1.263 . S
C852 C362 1.263 . S
C877 C363 1.322 . S
C882 C219 1.322 . S
C907 C146 1.259 . S
C912 C290 1.259 . S
C937 C470 1.258 . S
C942 C326 1.258 . S
C967 C399 1.322 . S
C972 C543 1.322 . S
C997 C398 1.263 . S
C1002 C542 1.263 . S
C1027 C327 1.314 . S
C1032 C471 1.314 . S
C1057 C400 1.462 . S
C1062 C14 1.440 . S
C1087 C292 1.456 . S
C1092 C40 1.456 . S
C1117 C76 1.462 . S
C1122 C338 1.440 . S
C1147 C374 1.438 . S
C1152 C122 1.438 . S
C1177 C410 1.438 . S
C1182 C86 1.438 . S
C1207 C112 1.462 . S
C1212 C302 1.440 . S
C1237 C328 1.456 . S
C1242 C4 1.456 . S
C1267 C364 1.462 . S
C1272 C50 1.440 . S
C1297 C158 1.440 . S
C1302 C544 1.462 . S
C1327 C436 1.456 . S
C1332 C184 1.456 . S
C1357 C220 1.462 . S
C1362 C482 1.440 . S
C1387 C266 1.438 . S
C1392 C518 1.438 . S
C1417 C230 1.438 . S
C1422 C554 1.438 . S
C1447 C446 1.440 . S
C1452 C256 1.462 . S
C1477 C472 1.456 . S
C1482 C148 1.456 . S
C1507 C508 1.462 . S
C1512 C194 1.440 . S
