# Generated by pormake.
# Topology crs, (6)-cn, num edge types: 1
# Building blocks:
#     Node 0, Type 0, BuildingBlock: MIFKUJ_clean_sbu_0, # of connection points: 6
#     Node 1, Type 0, BuildingBlock: MIFKUJ_clean_sbu_0, # of connection points: 6
#     Node 2, Type 0, BuildingBlock: MIFKUJ_clean_sbu_0, # of connection points: 6
#     Node 3, Type 0, BuildingBlock: MIFKUJ_clean_sbu_0, # of connection points: 6
#     Node 4, Type 0, BuildingBlock: MIFKUJ_clean_sbu_0, # of connection points: 6
#     Node 5, Type 0, BuildingBlock: MIFKUJ_clean_sbu_0, # of connection points: 6
#     Node 6, Type 0, BuildingBlock: MIFKUJ_clean_sbu_0, # of connection points: 6
#     Node 7, Type 0, BuildingBlock: MIFKUJ_clean_sbu_0, # of connection points: 6
#     Node 8, Type 0, BuildingBlock: MIFKUJ_clean_sbu_0, # of connection points: 6
#     Node 9, Type 0, BuildingBlock: MIFKUJ_clean_sbu_0, # of connection points: 6
#     Node 10, Type 0, BuildingBlock: MIFKUJ_clean_sbu_0, # of connection points: 6
#     Node 11, Type 0, BuildingBlock: MIFKUJ_clean_sbu_0, # of connection points: 6
#     Node 12, Type 0, BuildingBlock: MIFKUJ_clean_sbu_0, # of connection points: 6
#     Node 13, Type 0, BuildingBlock: MIFKUJ_clean_sbu_0, # of connection points: 6
#     Node 14, Type 0, BuildingBlock: MIFKUJ_clean_sbu_0, # of connection points: 6
#     Node 15, Type 0, BuildingBlock: MIFKUJ_clean_sbu_0, # of connection points: 6
#     Edge 16, Type (0, 0), BuildingBlock: XIVTED_clean_linker_0, # of connection points: 2
#     Edge 17, Type (0, 0), BuildingBlock: XIVTED_clean_linker_0, # of connection points: 2
#     Edge 18, Type (0, 0), BuildingBlock: XIVTED_clean_linker_0, # of connection points: 2
#     Edge 19, Type (0, 0), BuildingBlock: XIVTED_clean_linker_0, # of connection points: 2
#     Edge 20, Type (0, 0), BuildingBlock: XIVTED_clean_linker_0, # of connection points: 2
#     Edge 21, Type (0, 0), BuildingBlock: XIVTED_clean_linker_0, # of connection points: 2
#     Edge 22, Type (0, 0), BuildingBlock: XIVTED_clean_linker_0, # of connection points: 2
#     Edge 23, Type (0, 0), BuildingBlock: XIVTED_clean_linker_0, # of connection points: 2
#     Edge 24, Type (0, 0), BuildingBlock: XIVTED_clean_linker_0, # of connection points: 2
#     Edge 25, Type (0, 0), BuildingBlock: XIVTED_clean_linker_0, # of connection points: 2
#     Edge 26, Type (0, 0), BuildingBlock: XIVTED_clean_linker_0, # of connection points: 2
#     Edge 27, Type (0, 0), BuildingBlock: XIVTED_clean_linker_0, # of connection points: 2
#     Edge 28, Type (0, 0), BuildingBlock: XIVTED_clean_linker_0, # of connection points: 2
#     Edge 29, Type (0, 0), BuildingBlock: XIVTED_clean_linker_0, # of connection points: 2
#     Edge 30, Type (0, 0), BuildingBlock: XIVTED_clean_linker_0, # of connection points: 2
#     Edge 31, Type (0, 0), BuildingBlock: XIVTED_clean_linker_0, # of connection points: 2
#     Edge 32, Type (0, 0), BuildingBlock: XIVTED_clean_linker_0, # of connection points: 2
#     Edge 33, Type (0, 0), BuildingBlock: XIVTED_clean_linker_0, # of connection points: 2
#     Edge 34, Type (0, 0), BuildingBlock: XIVTED_clean_linker_0, # of connection points: 2
#     Edge 35, Type (0, 0), BuildingBlock: XIVTED_clean_linker_0, # of connection points: 2
#     Edge 36, Type (0, 0), BuildingBlock: XIVTED_clean_linker_0, # of connection points: 2
#     Edge 37, Type (0, 0), BuildingBlock: XIVTED_clean_linker_0, # of connection points: 2
#     Edge 38, Type (0, 0), BuildingBlock: XIVTED_clean_linker_0, # of connection points: 2
#     Edge 39, Type (0, 0), BuildingBlock: XIVTED_clean_linker_0, # of connection points: 2
#     Edge 40, Type (0, 0), BuildingBlock: XIVTED_clean_linker_0, # of connection points: 2
#     Edge 41, Type (0, 0), BuildingBlock: XIVTED_clean_linker_0, # of connection points: 2
#     Edge 42, Type (0, 0), BuildingBlock: XIVTED_clean_linker_0, # of connection points: 2
#     Edge 43, Type (0, 0), BuildingBlock: XIVTED_clean_linker_0, # of connection points: 2
#     Edge 44, Type (0, 0), BuildingBlock: XIVTED_clean_linker_0, # of connection points: 2
#     Edge 45, Type (0, 0), BuildingBlock: XIVTED_clean_linker_0, # of connection points: 2
#     Edge 46, Type (0, 0), BuildingBlock: XIVTED_clean_linker_0, # of connection points: 2
#     Edge 47, Type (0, 0), BuildingBlock: XIVTED_clean_linker_0, # of connection points: 2
#     Edge 48, Type (0, 0), BuildingBlock: XIVTED_clean_linker_0, # of connection points: 2
#     Edge 49, Type (0, 0), BuildingBlock: XIVTED_clean_linker_0, # of connection points: 2
#     Edge 50, Type (0, 0), BuildingBlock: XIVTED_clean_linker_0, # of connection points: 2
#     Edge 51, Type (0, 0), BuildingBlock: XIVTED_clean_linker_0, # of connection points: 2
#     Edge 52, Type (0, 0), BuildingBlock: XIVTED_clean_linker_0, # of connection points: 2
#     Edge 53, Type (0, 0), BuildingBlock: XIVTED_clean_linker_0, # of connection points: 2
#     Edge 54, Type (0, 0), BuildingBlock: XIVTED_clean_linker_0, # of connection points: 2
#     Edge 55, Type (0, 0), BuildingBlock: XIVTED_clean_linker_0, # of connection points: 2
#     Edge 56, Type (0, 0), BuildingBlock: XIVTED_clean_linker_0, # of connection points: 2
#     Edge 57, Type (0, 0), BuildingBlock: XIVTED_clean_linker_0, # of connection points: 2
#     Edge 58, Type (0, 0), BuildingBlock: XIVTED_clean_linker_0, # of connection points: 2
#     Edge 59, Type (0, 0), BuildingBlock: XIVTED_clean_linker_0, # of connection points: 2
#     Edge 60, Type (0, 0), BuildingBlock: XIVTED_clean_linker_0, # of connection points: 2
#     Edge 61, Type (0, 0), BuildingBlock: XIVTED_clean_linker_0, # of connection points: 2
#     Edge 62, Type (0, 0), BuildingBlock: XIVTED_clean_linker_0, # of connection points: 2
#     Edge 63, Type (0, 0), BuildingBlock: XIVTED_clean_linker_0, # of connection points: 2
# Relax obj value: 0.320
# Max RMSD: 0.288
# Mean RMSD: 0.246
data_MOF--net-crs--node1-MIFKUJ_clean_sbu_0--edge1-XIVTED_clean_linker_0
_symmetry_space_group_name_H-M    P1
_symmetry_Int_Tables_number       1
_symmetry_cell_setting            triclinic
loop_
_symmetry_equiv_pos_as_xyz
'x, y, z'
_cell_length_a     44.490813
_cell_length_b     43.635259
_cell_length_c     44.605809
_cell_angle_alpha  90.364803
_cell_angle_beta   90.461905
_cell_angle_gamma 79.55659
loop_
_atom_site_label
_atom_site_type_symbol
_atom_site_fract_x
_atom_site_fract_y
_atom_site_fract_z
_atom_type_partial_charge
Zn0 Zn 0.03681 0.99955 0.99247 0.0
Zn1 Zn 0.94678 0.01026 0.99822 0.0
C2 C 0.03688 0.06347 0.01204 0.0
O3 O 0.03404 0.06937 0.98322 0.0
C4 C 0.94073 0.94797 0.97824 0.0
O5 O 0.94593 0.94131 0.00669 0.0
O6 O 0.07599 0.96824 0.98964 0.0
O7 O 0.00303 0.97873 0.00834 0.0
O8 O 0.96447 0.99247 0.03812 0.0
C9 C 0.10213 0.97596 0.99081 0.0
O10 O 0.12678 0.95427 0.99141 0.0
O11 O 0.0397 0.03545 0.02092 0.0
C12 C 0.88327 0.0385 0.00643 0.0
O13 O 0.85974 0.06147 0.00737 0.0
O14 O 0.90997 0.04434 0.00325 0.0
O15 O -0.01825 0.02853 0.98192 0.0
O16 O 0.0198 0.01554 0.9516 0.0
O17 O 0.93924 0.97593 0.96961 0.0
C18 C -0.00708 0.98208 0.03492 0.0
C19 C -0.00867 0.02533 0.9552 0.0
Zn20 Zn 0.95358 0.25365 0.2545 0.0
Zn21 Zn 0.00192 0.27174 0.21536 0.0
C22 C 0.97585 0.27765 0.3075 0.0
O23 O 0.97625 0.24844 0.31474 0.0
C24 C -0.00296 0.24192 0.1583 0.0
O25 O -0.00106 0.26987 0.14861 0.0
O26 O 0.92155 0.24004 0.27981 0.0
O27 O 0.93307 0.27288 0.21727 0.0
O28 O 0.9649 0.30557 0.21812 0.0
C29 C 0.89969 0.26193 0.28647 0.0
O30 O 0.89812 0.28902 0.27327 0.0
O31 O 0.96768 0.28649 0.28105 0.0
C32 C 0.0621 0.28448 0.20041 0.0
O33 O 0.07213 0.26566 0.22261 0.0
O34 O 0.0336 0.29131 0.19525 0.0
O35 O 0.02023 0.25007 0.25272 0.0
O36 O -0.01216 0.21771 0.24992 0.0
O37 O -0.00456 0.23757 0.18637 0.0
C38 C 0.93836 0.30004 0.21276 0.0
C39 C 0.01416 0.22304 0.25677 0.0
Zn40 Zn 0.77198 0.26692 0.53593 0.0
Zn41 Zn 0.73312 0.23242 0.49992 0.0
C42 C 0.81282 0.27246 0.49122 0.0
O43 O 0.80646 0.30068 0.50272 0.0
C44 C 0.68191 0.27264 0.52941 0.0
O45 O 0.67053 0.27853 0.50235 0.0
O46 O 0.7926 0.29349 0.56329 0.0
O47 O 0.73965 0.29687 0.51291 0.0
O48 O 0.74473 0.26584 0.47362 0.0
C49 C 0.77888 0.31997 0.5724 0.0
O50 O 0.74956 0.32857 0.56665 0.0
O51 O 0.80238 0.25065 0.50396 0.0
C52 C 0.71583 0.18241 0.46462 0.0
O53 O 0.74493 0.16999 0.46707 0.0
O54 O 0.70621 0.20909 0.47606 0.0
O55 O 0.76472 0.20027 0.52088 0.0
O56 O 0.76182 0.23123 0.56012 0.0
O57 O 0.70701 0.25388 0.53281 0.0
C58 C 0.73911 0.29327 0.48456 0.0
C59 C 0.7655 0.20382 0.54921 0.0
Zn60 Zn 0.76757 0.01607 0.78226 0.0
Zn61 Zn 0.71794 0.00333 0.74083 0.0
C62 C 0.74541 0.99291 0.83539 0.0
O63 O 0.74445 0.02229 0.84268 0.0
C64 C 0.73852 0.03097 0.68797 0.0
O65 O 0.73561 0.00382 0.67654 0.0
O66 O 0.80343 0.02793 0.80416 0.0
O67 O 0.78459 0.99585 0.7437 0.0
O68 O 0.75033 0.96573 0.74427 0.0
C69 C 0.82749 0.00719 0.80578 0.0
O70 O 0.82787 0.98022 0.7924 0.0
O71 O 0.75413 0.98381 0.8092 0.0
C72 C 0.65712 0.00171 0.71732 0.0
O73 O 0.64799 0.02418 0.73672 0.0
O74 O 0.6852 0.98944 0.71622 0.0
O75 O 0.69954 0.02303 0.7786 0.0
O76 O 0.73357 0.05364 0.77999 0.0
O77 O 0.73288 0.0362 0.71565 0.0
C78 C 0.77676 0.97003 0.73729 0.0
C79 C 0.70645 0.04938 0.78454 0.0
Zn80 Zn 0.46842 0.76715 0.28927 0.0
Zn81 Zn 0.51487 0.77893 0.24645 0.0
C82 C 0.49223 0.79958 0.33764 0.0
O83 O 0.49157 0.77281 0.35071 0.0
C84 C 0.49405 0.75168 0.19308 0.0
O85 O 0.49156 0.78057 0.18382 0.0
O86 O 0.43598 0.75805 0.3164 0.0
O87 O 0.4476 0.78093 0.25092 0.0
O88 O 0.47837 0.8145 0.24788 0.0
C89 C 0.41825 0.78129 0.32759 0.0
O90 O 0.42088 0.80957 0.31947 0.0
O91 O 0.4849 0.80261 0.31003 0.0
C92 C 0.57512 0.78131 0.22521 0.0
O93 O 0.58216 0.75543 0.24063 0.0
O94 O 0.54761 0.79567 0.22472 0.0
O95 O 0.53476 0.75776 0.28402 0.0
O96 O 0.4996 0.7288 0.28736 0.0
O97 O 0.50349 0.74504 0.21965 0.0
C98 C 0.45228 0.80743 0.24298 0.0
C99 C 0.52699 0.73219 0.29129 0.0
Zn100 Zn 0.2183 0.74516 0.51174 0.0
Zn101 Zn 0.24332 0.80806 0.52893 0.0
C102 C 0.25673 0.70182 0.54847 0.0
O103 O 0.26579 0.69118 0.52179 0.0
C104 C 0.20372 0.84923 0.4867 0.0
O105 O 0.18558 0.85705 0.50965 0.0
O106 O 0.20128 0.70953 0.49457 0.0
O107 O 0.18362 0.77944 0.52158 0.0
O108 O 0.20973 0.80013 0.55585 0.0
C109 C 0.17963 0.71037 0.47573 0.0
O110 O 0.16585 0.73728 0.465 0.0
O111 O 0.23774 0.7273 0.5503 0.0
C112 C 0.2536 0.86531 0.55857 0.0
O113 O 0.2239 0.8745 0.55622 0.0
O114 O 0.26567 0.83825 0.5495 0.0
O115 O 0.27619 0.7719 0.51823 0.0
O116 O 0.24901 0.75448 0.48288 0.0
O117 O 0.22755 0.8285 0.48997 0.0
C118 C 0.18505 0.79206 0.54714 0.0
C119 C 0.27427 0.76056 0.49217 0.0
Zn120 Zn 0.25091 0.52406 0.7897 0.0
Zn121 Zn 0.21489 0.50573 0.7385 0.0
C122 C 0.22242 0.49368 0.83584 0.0
O123 O 0.2162 0.52222 0.84659 0.0
C124 C 0.24746 0.53612 0.69597 0.0
O125 O 0.25476 0.50738 0.6859 0.0
O126 O 0.27707 0.54178 0.81952 0.0
O127 O 0.27889 0.50482 0.7566 0.0
O128 O 0.24868 0.47113 0.74886 0.0
C129 C 0.30141 0.55133 0.81254 0.0
O130 O 0.30964 0.55092 0.7843 0.0
O131 O 0.23671 0.48876 0.81123 0.0
C132 C 0.17413 0.46914 0.71072 0.0
O133 O 0.17039 0.45986 0.73818 0.0
O134 O 0.19144 0.48873 0.70611 0.0
O135 O 0.18577 0.52234 0.77095 0.0
O136 O 0.21413 0.55727 0.7815 0.0
O137 O 0.23099 0.54138 0.71925 0.0
C138 C 0.27526 0.47768 0.74883 0.0
C139 C 0.18816 0.54903 0.78106 0.0
Zn140 Zn 0.02128 0.50876 0.4976 0.0
Zn141 Zn 0.97353 0.47312 0.5194 0.0
C142 C -0.00271 0.56586 0.52724 0.0
O143 O -0.00368 0.57548 0.49933 0.0
C144 C -0.01096 0.41651 0.48421 0.0
O145 O -0.01373 0.40334 0.5102 0.0
O146 O 0.05167 0.53014 0.47727 0.0
O147 O 0.04337 0.46787 0.51415 0.0
O148 O 0.00811 0.47065 0.54859 0.0
C149 C 0.07827 0.5289 0.4882 0.0
O150 O 0.08649 0.51143 0.51178 0.0
O151 O 0.00654 0.5371 0.53258 0.0
C152 C 0.91637 0.46751 0.5499 0.0
O153 O 0.90784 0.49758 0.54554 0.0
O154 O 0.94224 0.4537 0.54059 0.0
O155 O 0.95318 0.51497 0.50415 0.0
O156 O -0.01304 0.50966 0.46812 0.0
O157 O -0.01404 0.446 0.48298 0.0
C158 C 0.0357 0.46225 0.54063 0.0
C159 C 0.96001 0.5198 0.47721 0.0
Zn160 Zn 0.20337 0.2191 0.97844 0.0
Zn161 Zn 0.25022 0.25601 0.99222 0.0
C162 C 0.23688 0.16385 0.00566 0.0
O163 O 0.2331 0.15228 0.97891 0.0
C164 C 0.21926 0.31388 0.97 0.0
O165 O 0.2219 0.32079 0.9985 0.0
O166 O 0.17095 0.19358 0.96906 0.0
O167 O 0.1831 0.25862 0.99935 0.0
O168 O 0.2239 0.25502 0.02799 0.0
C169 C 0.15681 0.18637 0.99192 0.0
O170 O 0.16141 0.19925 0.01787 0.0
O171 O 0.22806 0.19284 0.01016 0.0
C172 C 0.3001 0.28476 0.98306 0.0
O173 O 0.29491 0.27499 0.95591 0.0
O174 O 0.28448 0.27732 0.00465 0.0
O175 O 0.26891 0.21611 0.97201 0.0
O176 O 0.22949 0.22118 0.94168 0.0
O177 O 0.228 0.28584 0.96148 0.0
C178 C 0.19525 0.26321 0.02451 0.0
C179 C 0.25813 0.21321 0.94595 0.0
Zn180 Zn 0.24604 0.01848 0.26821 0.0
Zn181 Zn 0.20391 0.99607 0.22367 0.0
C182 C 0.2185 0.99477 0.31931 0.0
O183 O 0.21276 0.02451 0.32648 0.0
C184 C 0.22999 0.01709 0.17227 0.0
O185 O 0.23194 0.98732 0.16607 0.0
O186 O 0.27336 0.03915 0.29421 0.0
O187 O 0.2703 0.99613 0.23462 0.0
O188 O 0.24005 0.96155 0.23103 0.0
C189 C 0.30101 0.041 0.28917 0.0
O190 O 0.31427 0.0285 0.26468 0.0
O191 O 0.23207 0.98642 0.29482 0.0
C192 C 0.14861 0.00194 0.19284 0.0
O193 O 0.14756 0.02986 0.20444 0.0
O194 O 0.17184 0.98094 0.19821 0.0
O195 O 0.18096 0.01798 0.25882 0.0
O196 O 0.2112 0.05223 0.25815 0.0
O197 O 0.21873 0.02746 0.19723 0.0
C198 C 0.26651 0.96855 0.22876 0.0
C199 C 0.18508 0.04571 0.26295 0.0
Zn200 Zn 0.46849 0.25194 0.77848 0.0
Zn201 Zn 0.51056 0.27285 0.73343 0.0
C202 C 0.49255 0.27709 0.83177 0.0
O203 O 0.49825 0.24749 0.83919 0.0
C204 C 0.48668 0.2475 0.68056 0.0
O205 O 0.48686 0.27597 0.67121 0.0
O206 O 0.43823 0.23245 0.80162 0.0
O207 O 0.4456 0.27448 0.74347 0.0
O208 O 0.47708 0.30754 0.74429 0.0
C209 C 0.41211 0.22936 0.79156 0.0
O210 O 0.40415 0.23825 0.76411 0.0
O211 O 0.48045 0.28473 0.80635 0.0
C212 C 0.5632 0.29846 0.71237 0.0
O213 O 0.57481 0.29332 0.73943 0.0
O214 O 0.53729 0.2917 0.70621 0.0
O215 O 0.53653 0.25161 0.76662 0.0
O216 O 0.50539 0.2183 0.77178 0.0
O217 O 0.49484 0.24046 0.70745 0.0
C218 C 0.45041 0.30202 0.74003 0.0
C219 C 0.53206 0.22476 0.77394 0.0
Zn220 Zn 0.94396 0.74024 0.77501 0.0
Zn221 Zn -0.00542 0.75643 0.74253 0.0
C222 C 0.95198 0.77116 0.831 0.0
O223 O 0.95049 0.74333 0.8413 0.0
C224 C 0.9798 0.72898 0.68767 0.0
O225 O 0.97928 0.75785 0.67915 0.0
O226 O 0.90952 0.72506 0.79485 0.0
O227 O 0.928 0.75965 0.73591 0.0
O228 O 0.95989 0.79212 0.74142 0.0
C229 C 0.88791 0.74679 0.80243 0.0
O230 O 0.88747 0.77492 0.79188 0.0
O231 O 0.95168 0.7753 0.80278 0.0
C232 C 0.05021 0.74959 0.71252 0.0
O233 O 0.04928 0.72033 0.71849 0.0
O234 O 0.02934 0.77081 0.72256 0.0
O235 O 0.00986 0.73906 0.78225 0.0
O236 O 0.97995 0.70493 0.77622 0.0
O237 O -0.01507 0.72209 0.71512 0.0
C238 C 0.93458 0.78643 0.73174 0.0
C239 C 0.00487 0.71165 0.78592 0.0
Zn240 Zn 0.75007 0.51255 0.30228 0.0
Zn241 Zn 0.70635 0.50212 0.25308 0.0
C242 C 0.72998 0.47971 0.35189 0.0
O243 O 0.72961 0.50682 0.36502 0.0
C244 C 0.73584 0.5302 0.20654 0.0
O245 O 0.73836 0.50175 0.19578 0.0
O246 O 0.77988 0.52697 0.32996 0.0
O247 O 0.77319 0.49536 0.26571 0.0
O248 O 0.73969 0.46489 0.25845 0.0
C249 C 0.80129 0.54065 0.32183 0.0
O250 O 0.80505 0.54571 0.29322 0.0
O251 O 0.7364 0.47686 0.32416 0.0
C252 C 0.65198 0.48115 0.22907 0.0
O253 O 0.64273 0.48148 0.25698 0.0
O254 O 0.67748 0.48883 0.2232 0.0
O255 O 0.68172 0.52072 0.28854 0.0
O256 O 0.71642 0.54926 0.29805 0.0
O257 O 0.72331 0.53641 0.23194 0.0
C258 C 0.76674 0.46998 0.25585 0.0
C259 C 0.68875 0.54584 0.29845 0.0
Zn260 Zn 0.73304 0.75124 0.03132 0.0
Zn261 Zn 0.77971 0.79627 0.03695 0.0
C262 C 0.76018 0.69624 0.06151 0.0
O263 O 0.76103 0.68636 0.03358 0.0
C264 C 0.74404 0.84637 0.00483 0.0
O265 O 0.74583 0.85979 0.03108 0.0
O266 O 0.6981 0.73069 0.01932 0.0
O267 O 0.71519 0.79453 0.04503 0.0
O268 O 0.75436 0.79674 0.07433 0.0
C269 C 0.68044 0.72654 0.04054 0.0
O270 O 0.68449 0.73854 0.06704 0.0
O271 O 0.75123 0.72514 0.06668 0.0
C272 C 0.82344 0.83057 0.01878 0.0
O273 O 0.81813 0.81598 0.99399 0.0
O274 O 0.81065 0.82433 0.04285 0.0
O275 O 0.80211 0.7549 0.02226 0.0
O276 O 0.7619 0.74631 0.99686 0.0
O277 O 0.75451 0.81737 1.00225 0.0
C278 C 0.72563 0.8016 0.07016 0.0
C279 C 0.79068 0.74369 0.99939 0.0
Zn280 Zn 0.45414 0.01786 0.51478 0.0
Zn281 Zn 0.50262 0.04596 0.48791 0.0
C282 C 0.41248 0.06244 0.47502 0.0
O283 O 0.40101 0.07833 0.49866 0.0
C284 C 0.54491 0.00134 0.52726 0.0
O285 O 0.55556 0.98473 0.50374 0.0
O286 O 0.42451 0.99584 0.53557 0.0
O287 O 0.4863 0.98333 0.49845 0.0
O288 O 0.49172 0.01269 0.45987 0.0
C289 C 0.39957 0.00876 0.54756 0.0
O290 O 0.39175 0.03926 0.54741 0.0
O291 O 0.43323 0.03853 0.47817 0.0
C292 C 0.55648 0.05446 0.45428 0.0
O293 O 0.56282 0.02388 0.4533 0.0
O294 O 0.53211 0.06798 0.46688 0.0
O295 O 0.47121 0.08059 0.50618 0.0
O296 O 0.46561 0.04961 0.54341 0.0
O297 O 0.52455 0.02555 0.52405 0.0
C298 C 0.49184 0.98577 0.47072 0.0
C299 C 0.46639 0.07682 0.53391 0.0
Zn300 Zn 0.50472 0.53279 0.01129 0.0
Zn301 Zn 0.45892 0.49217 0.0211 0.0
C302 C 0.47614 0.58892 0.03905 0.0
O303 O 0.47762 0.59809 0.01118 0.0
C304 C 0.49085 0.43815 0.99168 0.0
O305 O 0.48871 0.42729 0.01885 0.0
O306 O 0.539 0.55512 1.00148 0.0
O307 O 0.52437 0.49129 0.02856 0.0
O308 O 0.4852 0.49109 0.05785 0.0
C309 C 0.55487 0.55908 0.02453 0.0
O310 O 0.54957 0.54558 0.04971 0.0
O311 O 0.48399 0.56006 0.04488 0.0
C312 C 0.41094 0.46326 0.00553 0.0
O313 O 0.41571 0.47794 0.98087 0.0
O314 O 0.42602 0.46756 0.02901 0.0
O315 O 0.43821 0.53384 0.00575 0.0
O316 O 0.47648 0.53475 0.97543 0.0
O317 O 0.48184 0.46712 0.98711 0.0
C318 C 0.51384 0.48498 0.05371 0.0
C319 C 0.44799 0.54111 0.98061 0.0
H320 H 0.03482 0.12529 1.00069 0.0
H321 H 0.00081 0.17975 0.17098 0.0
H322 H 0.03186 0.061 0.07329 0.0
H323 H 0.00354 0.243 0.09742 0.0
H324 H 0.01224 0.13586 0.1359 0.0
H325 H 0.02486 0.16851 0.03634 0.0
C326 C 0.03219 0.12023 0.02416 0.0
C327 C 0.03386 0.08947 0.03394 0.0
C328 C 0.01023 0.15935 0.12744 0.0
C329 C 0.0222 0.13899 0.07498 0.0
C330 C 0.00353 0.18445 0.14743 0.0
C331 C 0.00114 0.21516 0.13715 0.0
C332 C 0.01461 0.16498 0.09694 0.0
C333 C 0.0051 0.21977 0.10641 0.0
C334 C 0.02643 0.14496 0.04453 0.0
C335 C 0.03059 0.08435 0.06472 0.0
N336 N 0.01169 0.195 0.08746 0.0
N337 N 0.02472 0.10887 0.08411 0.0
H338 H 0.83508 0.21762 0.4616 0.0
H339 H 0.85378 0.30593 0.30854 0.0
H340 H 0.81808 0.31762 0.4511 0.0
H341 H 0.90348 0.21308 0.32576 0.0
H342 H 0.83038 0.30634 0.35773 0.0
H343 H 0.85229 0.21211 0.40923 0.0
C344 C 0.83517 0.23834 0.44838 0.0
C345 C 0.82552 0.26811 0.46078 0.0
C346 C 0.8462 0.28575 0.35063 0.0
C347 C 0.84415 0.26196 0.40112 0.0
C348 C 0.85942 0.2854 0.32246 0.0
C349 C 0.881 0.25962 0.31324 0.0
C350 C 0.85451 0.26013 0.3697 0.0
C351 C 0.88716 0.23356 0.33214 0.0
C352 C 0.84483 0.23518 0.41858 0.0
C353 C 0.82575 0.29421 0.44265 0.0
N354 N 0.87419 0.23458 0.35971 0.0
N355 N 0.83476 0.2905 0.41374 0.0
H356 H 0.74546 0.09032 0.70355 0.0
H357 H 0.76729 0.14226 0.53416 0.0
H358 H 0.74964 0.02792 0.6276 0.0
H359 H 0.76552 0.20376 0.61058 0.0
H360 H 0.76404 0.09924 0.56822 0.0
H361 H 0.75575 0.13136 0.67012 0.0
C362 C 0.74871 0.08517 0.67988 0.0
C363 C 0.74651 0.05562 0.66838 0.0
C364 C 0.76459 0.12211 0.57755 0.0
C365 C 0.75821 0.10262 0.62988 0.0
C366 C 0.76654 0.14668 0.55809 0.0
C367 C 0.76655 0.17677 0.56946 0.0
C368 C 0.76256 0.12761 0.60863 0.0
C369 C 0.76546 0.18104 0.60073 0.0
C370 C 0.75458 0.10864 0.66077 0.0
C371 C 0.751 0.05034 0.63749 0.0
N372 N 0.76333 0.15683 0.61915 0.0
N373 N 0.75647 0.07362 0.61933 0.0
H374 H 0.9343 0.05942 0.95194 0.0
H375 H 0.88394 0.97004 0.80983 0.0
H376 H -0.00184 0.99221 0.90221 0.0
H377 H 0.83086 0.05545 0.84444 0.0
H378 H 0.92574 0.97652 0.84387 0.0
H379 H 0.8956 0.05702 0.9134 0.0
C380 C 0.94015 0.0442 0.93279 0.0
C381 C 0.96928 0.02576 0.93035 0.0
C382 C 0.90507 0.994 0.84376 0.0
C383 C 0.92521 0.02295 0.88603 0.0
C384 C 0.88115 0.99029 0.82441 0.0
C385 C 0.8538 0.01218 0.82441 0.0
C386 C 0.90145 0.01959 0.86344 0.0
C387 C 0.85151 0.03799 0.84371 0.0
C388 C 0.91814 0.04298 0.9107 0.0
C389 C 0.97593 0.00684 0.90486 0.0
N390 N 0.87492 0.04082 0.86264 0.0
N391 N 0.9539 0.00566 0.88376 0.0
H392 H 0.05103 0.94994 0.03892 0.0
H393 H 0.09189 0.03731 0.18632 0.0
H394 H -0.01627 0.01369 0.08847 0.0
H395 H 0.14925 0.95396 0.1526 0.0
H396 H 0.05262 0.03035 0.14967 0.0
H397 H 0.08818 0.95255 0.07909 0.0
C398 C 0.04411 0.96448 0.05831 0.0
C399 C 0.01443 0.98188 0.06026 0.0
C400 C 0.07366 0.01341 0.15047 0.0
C401 C 0.05664 0.9848 0.1064 0.0
C402 C 0.09614 0.0174 0.17132 0.0
C403 C 0.12393 0.99622 0.17241 0.0
C404 C 0.07913 0.98829 0.13027 0.0
C405 C 0.12813 0.97079 0.15254 0.0
C406 C 0.06523 0.96577 0.08131 0.0
C407 C 0.0064 0.99988 0.0861 0.0
N408 N 0.10607 0.9677 0.13204 0.0
N409 N 0.02751 1.00112 0.10808 0.0
H410 H -0.0086 0.43651 0.42612 0.0
H411 H 0.96923 0.34148 0.30378 0.0
H412 H -0.00638 0.35337 0.47861 0.0
H413 H -0.00308 0.26471 0.36443 0.0
H414 H 0.97553 0.37767 0.34426 0.0
H415 H -0.00782 0.40536 0.38049 0.0
C416 C -0.00792 0.41165 0.42804 0.0
C417 C -0.00786 0.39761 0.4563 0.0
C418 C -0.01908 0.35296 0.34873 0.0
C419 C -0.00784 0.36167 0.40393 0.0
C420 C 0.97714 0.33223 0.3255 0.0
C421 C -0.01756 0.30001 0.33071 0.0
C422 C -0.00979 0.34132 0.37737 0.0
C423 C -0.00759 0.28936 0.35936 0.0
C424 C -0.0078 0.39382 0.40185 0.0
C425 C -0.00668 0.36529 0.45737 0.0
N426 N -0.00426 0.30992 0.38156 0.0
N427 N -0.00685 0.34852 0.43163 0.0
H428 H 0.62341 0.30568 0.53293 0.0
H429 H 0.62506 0.29712 0.71123 0.0
H430 H 0.70368 0.27225 0.58669 0.0
H431 H 0.54325 0.3193 0.65702 0.0
H432 H 0.65567 0.30104 0.66657 0.0
H433 H 0.59545 0.32325 0.57874 0.0
C434 C 0.63523 0.30237 0.55431 0.0
C435 C 0.66563 0.28682 0.55611 0.0
C436 C 0.63099 0.30557 0.66458 0.0
C437 C 0.63394 0.3068 0.60844 0.0
C438 C 0.61353 0.30346 0.69008 0.0
C439 C 0.58166 0.30714 0.68762 0.0
C440 C 0.61637 0.31136 0.63658 0.0
C441 C 0.56785 0.31558 0.65975 0.0
C442 C 0.6193 0.31241 0.58044 0.0
C443 C 0.68001 0.28349 0.58435 0.0
N444 N 0.58531 0.31693 0.63521 0.0
N445 N 0.66392 0.29304 0.60944 0.0
H446 H 0.72086 0.00634 0.89079 0.0
H447 H 0.75225 0.82928 0.94558 0.0
H448 H 0.75487 0.92881 0.83235 0.0
H449 H 0.71907 0.90828 1.00259 0.0
H450 H 0.74739 0.86419 0.90233 0.0
H451 H 0.7144 0.96984 0.93027 0.0
C452 C 0.72679 0.98159 0.88616 0.0
C453 C 0.73872 0.97065 0.85827 0.0
C454 C 0.74079 0.8738 0.92425 0.0
C455 C 0.73152 0.92851 0.90366 0.0
C456 C 0.74338 0.85386 0.94895 0.0
C457 C 0.73627 0.86591 0.97783 0.0
C458 C 0.73101 0.906 0.92848 0.0
C459 C 0.72505 0.89796 0.98081 0.0
C460 C 0.72306 0.96071 0.90877 0.0
C461 C 0.74572 0.93828 0.85355 0.0
N462 N 0.72304 0.91688 0.95653 0.0
N463 N 0.74231 0.91834 0.87613 0.0
H464 H 0.1335 0.28542 0.02563 0.0
H465 H 0.12474 0.27136 0.20141 0.0
H466 H 0.21368 0.26784 0.08258 0.0
H467 H 0.04795 0.31388 0.14687 0.0
H468 H 0.15846 0.27405 0.15893 0.0
H469 H 0.10206 0.2995 0.07003 0.0
C470 C 0.14451 0.28484 0.04741 0.0
C471 C 0.17618 0.27504 0.05045 0.0
C472 C 0.13429 0.28329 0.15644 0.0
C473 C 0.14043 0.2909 0.10129 0.0
C474 C 0.11504 0.28179 0.18071 0.0
C475 C 0.08343 0.29186 0.17752 0.0
C476 C 0.12172 0.29454 0.12876 0.0
C477 C 0.07215 0.30542 0.15024 0.0
C478 C 0.12659 0.29299 0.07275 0.0
C479 C 0.1893 0.27496 0.0792 0.0
N480 N 0.09121 0.30582 0.12673 0.0
N481 N 0.17132 0.28233 0.10355 0.0
H482 H 0.73594 0.41858 0.33366 0.0
H483 H 0.72471 0.35483 0.50062 0.0
H484 H 0.71743 0.47775 0.41174 0.0
H485 H 0.74336 0.29472 0.4232 0.0
H486 H 0.71934 0.40009 0.46783 0.0
H487 H 0.73567 0.37302 0.36536 0.0
C488 C 0.73151 0.42205 0.3574 0.0
C489 C 0.72684 0.45209 0.37005 0.0
C490 C 0.72445 0.37702 0.45795 0.0
C491 C 0.72672 0.39996 0.40652 0.0
C492 C 0.72752 0.35111 0.47669 0.0
C493 C 0.73445 0.32087 0.46467 0.0
C494 C 0.72844 0.37278 0.42688 0.0
C495 C 0.73788 0.31758 0.43346 0.0
C496 C 0.73146 0.39599 0.37551 0.0
C497 C 0.72126 0.45509 0.40098 0.0
N498 N 0.73495 0.3432 0.41567 0.0
N499 N 0.72152 0.42939 0.41812 0.0
H500 H 0.59531 0.95807 0.54313 0.0
H501 H 0.59664 0.02693 0.70886 0.0
H502 H 0.52313 0.02708 0.58037 0.0
H503 H 0.67 0.95908 0.67193 0.0
H504 H 0.56529 0.01997 0.66506 0.0
H505 H 0.61898 0.95104 0.59294 0.0
C506 C 0.58425 0.97144 0.56182 0.0
C507 C 0.55758 0.99362 0.5575 0.0
C508 C 0.58811 0.00629 0.66672 0.0
C509 C 0.58445 0.98581 0.61436 0.0
C510 C 0.60601 0.01024 0.69177 0.0
C511 C 0.63617 0.99404 0.69377 0.0
C512 C 0.60059 0.98616 0.64346 0.0
C513 C 0.647 0.97245 0.67109 0.0
C514 C 0.59775 0.96744 0.59024 0.0
C515 C 0.54404 0.01012 0.58254 0.0
N516 N 0.62937 0.96948 0.64666 0.0
N517 N 0.55781 0.00613 0.6098 0.0
H518 H 0.93708 0.88738 0.98989 0.0
H519 H 0.95146 0.83276 0.81782 0.0
H520 H 0.94033 0.95086 0.91667 0.0
H521 H 0.94812 0.77058 0.89212 0.0
H522 H 0.94619 0.8766 0.85315 0.0
H523 H 0.93877 0.84483 0.95388 0.0
C524 C 0.9381 0.8924 0.96621 0.0
C525 C 0.93896 0.92269 0.95633 0.0
C526 C 0.94667 0.85334 0.8617 0.0
C527 C 0.94113 0.87388 0.91482 0.0
C528 C 0.94982 0.82827 0.84155 0.0
C529 C 0.95046 0.79786 0.85201 0.0
C530 C 0.94411 0.84799 0.89254 0.0
C531 C 0.94796 0.79353 0.88299 0.0
C532 C 0.93908 0.86805 0.94561 0.0
C533 C 0.93983 0.92784 0.92531 0.0
N534 N 0.94491 0.81827 0.9021 0.0
N535 N 0.94113 0.90363 0.90567 0.0
H536 H 0.11995 0.00779 0.03819 0.0
H537 H 0.14199 0.15403 0.94254 0.0
H538 H 0.09098 0.01813 0.94587 0.0
H539 H 0.13622 0.15665 0.03914 0.0
H540 H 0.12353 0.10444 0.94255 0.0
H541 H 0.12715 0.06226 0.0388 0.0
C542 C 0.11506 0.02172 0.01812 0.0
C543 C 0.10496 0.00885 0.99195 0.0
C544 C 0.12589 0.11615 0.96368 0.0
C545 C 0.11354 0.07056 0.99216 0.0
C546 C 0.13641 0.14445 0.96369 0.0
C547 C 0.14096 0.15937 0.99088 0.0
C548 C 0.12042 0.10249 0.99107 0.0
C549 C 0.13325 0.14591 0.01763 0.0
C550 C 0.119 0.05272 0.01845 0.0
C551 C 0.09881 0.02752 0.96644 0.0
N552 N 0.12382 0.11801 0.01708 0.0
N553 N 0.10357 0.05743 0.96703 0.0
H554 H 0.69613 0.60417 0.31577 0.0
H555 H 0.51794 0.67356 0.30431 0.0
H556 H 0.62669 0.54856 0.29878 0.0
H557 H 0.58846 0.72965 0.30069 0.0
H558 H 0.55692 0.62773 0.31394 0.0
H559 H 0.6562 0.65002 0.32185 0.0
C560 C 0.67246 0.6015 0.31366 0.0
C561 C 0.66472 0.57257 0.30623 0.0
C562 C 0.56383 0.65011 0.31132 0.0
C563 C 0.61901 0.625 0.31317 0.0
C564 C 0.54161 0.67634 0.30585 0.0
C565 C 0.55004 0.7054 0.3011 0.0
C566 C 0.59471 0.65295 0.31209 0.0
C567 C 0.581 0.70762 0.30375 0.0
C568 C 0.64971 0.62772 0.31711 0.0
C569 C 0.63369 0.57047 0.30413 0.0
N570 N 0.6023 0.68162 0.30877 0.0
N571 N 0.61195 0.59645 0.30728 0.0
H572 H 0.23824 0.92885 0.56509 0.0
H573 H 0.41282 0.94722 0.56187 0.0
H574 H 0.31466 0.85241 0.57104 0.0
H575 H 0.33805 0.02545 0.5581 0.0
H576 H 0.37677 0.91321 0.57334 0.0
H577 H 0.27368 0.96543 0.57063 0.0
C578 C 0.26238 0.91975 0.56811 0.0
C579 C 0.27359 0.88755 0.56709 0.0
C580 C 0.36818 0.93786 0.57035 0.0
C581 C 0.31417 0.92917 0.57322 0.0
C582 C 0.38879 0.9573 0.56375 0.0
C583 C 0.37834 0.98911 0.55859 0.0
C584 C 0.33677 0.95019 0.57138 0.0
C585 C 0.34702 1.00099 0.56173 0.0
C586 C 0.2826 0.94064 0.57119 0.0
C587 C 0.30505 0.87705 0.57121 0.0
N588 N 0.32723 0.98141 0.56747 0.0
N589 N 0.32423 0.8978 0.57374 0.0
H590 H 0.06104 0.71838 0.80726 0.0
H591 H 0.12938 0.53876 0.78284 0.0
H592 H 0.0063 0.6487 0.78643 0.0
H593 H 0.18414 0.6092 0.80053 0.0
H594 H 0.08345 0.57703 0.79318 0.0
H595 H 0.10532 0.67713 0.81451 0.0
C596 C 0.05823 0.69436 0.80463 0.0
C597 C 0.03011 0.68696 0.79561 0.0
C598 C 0.10553 0.58404 0.79511 0.0
C599 C 0.08075 0.63969 0.80359 0.0
C600 C 0.13177 0.56222 0.78914 0.0
C601 C 0.16058 0.571 0.79025 0.0
C602 C 0.10812 0.61487 0.80208 0.0
C603 C 0.16234 0.60156 0.79896 0.0
C604 C 0.08354 0.67081 0.80875 0.0
C605 C 0.02767 0.65546 0.79296 0.0
N606 N 0.13642 0.62252 0.80419 0.0
N607 N 0.05282 0.63296 0.79648 0.0
H608 H 0.8383 0.30935 0.59144 0.0
H609 H 0.85482 0.4848 0.56038 0.0
H610 H 0.76153 0.38346 0.57524 0.0
H611 H 0.93028 0.4079 0.57034 0.0
H612 H 0.81992 0.45083 0.57673 0.0
H613 H 0.87146 0.34792 0.59585 0.0
C614 C 0.82831 0.33381 0.58939 0.0
C615 C 0.79725 0.34317 0.58233 0.0
C616 C 0.84418 0.44157 0.57575 0.0
C617 C 0.83517 0.38743 0.58673 0.0
C618 C 0.86409 0.46093 0.56642 0.0
C619 C 0.8954 0.44896 0.56343 0.0
C620 C 0.85575 0.41012 0.58216 0.0
C621 C 0.90623 0.41796 0.57177 0.0
C622 C 0.84727 0.35585 0.59181 0.0
C623 C 0.78544 0.3752 0.58034 0.0
N624 N 0.88641 0.39955 0.58043 0.0
N625 N 0.80455 0.39619 0.58191 0.0
H626 H 0.26903 0.90573 0.2211 0.0
H627 H 0.45095 0.86934 0.23147 0.0
H628 H 0.32549 0.97649 0.22149 0.0
H629 H 0.39439 0.79868 0.23015 0.0
H630 H 0.40575 0.90858 0.22017 0.0
H631 H 0.31506 0.86587 0.21674 0.0
C632 C 0.29106 0.91291 0.21993 0.0
C633 C 0.29347 0.94443 0.22223 0.0
C634 C 0.40331 0.88443 0.22202 0.0
C635 C 0.34618 0.89902 0.21742 0.0
C636 C 0.42911 0.86203 0.22844 0.0
C637 C 0.42632 0.83081 0.23227 0.0
C638 C 0.37457 0.87548 0.21954 0.0
C639 C 0.39752 0.82258 0.22785 0.0
C640 C 0.31734 0.89015 0.21746 0.0
C641 C 0.32258 0.95242 0.2203 0.0
N642 N 0.37271 0.84484 0.22207 0.0
N643 N 0.34782 0.92984 0.21838 0.0
H644 H 0.33591 0.4822 0.74867 0.0
H645 H 0.39022 0.29895 0.73025 0.0
H646 H 0.2745 0.41772 0.73199 0.0
H647 H 0.45242 0.36406 0.73748 0.0
H648 H 0.34765 0.34273 0.72651 0.0
H649 H 0.37921 0.43985 0.74043 0.0
C650 C 0.33154 0.45922 0.74304 0.0
C651 C 0.30163 0.45334 0.74141 0.0
C652 C 0.37064 0.34744 0.72862 0.0
C653 C 0.35087 0.4049 0.73208 0.0
C654 C 0.39494 0.32244 0.73079 0.0
C655 C 0.42482 0.32791 0.7346 0.0
C656 C 0.37631 0.37804 0.73051 0.0
C657 C 0.42968 0.3588 0.73487 0.0
C658 C 0.35623 0.43506 0.7383 0.0
C659 C 0.29722 0.42321 0.73382 0.0
N660 N 0.40561 0.38274 0.7332 0.0
N661 N 0.3216 0.40004 0.72972 0.0
H662 H 0.14321 0.75348 0.54604 0.0
H663 H 0.06767 0.80571 0.70305 0.0
H664 H 0.17339 0.82549 0.59907 0.0
H665 H 0.07981 0.71118 0.66973 0.0
H666 H 0.09862 0.81896 0.66135 0.0
H667 H 0.10988 0.74433 0.587 0.0
C668 C 0.14237 0.7678 0.56605 0.0
C669 C 0.16118 0.79017 0.56931 0.0
C670 C 0.09457 0.79533 0.66341 0.0
C671 C 0.12336 0.77965 0.6161 0.0
C672 C 0.07707 0.78774 0.68712 0.0
C673 C 0.07137 0.75729 0.68982 0.0
C674 C 0.10569 0.77246 0.64203 0.0
C675 C 0.08391 0.73486 0.6686 0.0
C676 C 0.12362 0.76232 0.58949 0.0
C677 C 0.15934 0.80789 0.59583 0.0
N678 N 0.10024 0.74298 0.64537 0.0
N679 N 0.14076 0.80221 0.61834 0.0
H680 H 0.23657 0.93127 0.31701 0.0
H681 H 0.16401 0.904 0.47624 0.0
H682 H 0.18393 0.00472 0.37008 0.0
H683 H 0.23428 0.83698 0.43366 0.0
H684 H 0.16302 0.9379 0.43265 0.0
H685 H 0.22808 0.89351 0.35495 0.0
C686 C 0.22296 0.93943 0.33648 0.0
C687 C 0.21122 0.97127 0.34055 0.0
C688 C 0.17842 0.91562 0.43274 0.0
C689 C 0.20137 0.92817 0.38396 0.0
C690 C 0.17889 0.89617 0.45756 0.0
C691 C 0.19951 0.86775 0.45878 0.0
C692 C 0.19856 0.90652 0.40889 0.0
C693 C 0.21823 0.85884 0.43384 0.0
C694 C 0.21819 0.91787 0.35815 0.0
C695 C 0.19369 0.98047 0.36617 0.0
N696 N 0.21746 0.87825 0.41002 0.0
N697 N 0.18942 0.95905 0.38697 0.0
H698 H 0.96486 0.73711 0.62848 0.0
H699 H 0.00189 0.55531 0.58796 0.0
H700 H -0.01068 0.6654 0.69508 0.0
H701 H 0.97645 0.62852 0.52299 0.0
H702 H -0.00631 0.59448 0.62809 0.0
H703 H 0.96517 0.69697 0.59025 0.0
C704 C 0.97009 0.71289 0.63513 0.0
C705 C 0.97726 0.70463 0.66502 0.0
C706 C -0.0103 0.60191 0.60506 0.0
C707 C 0.97788 0.65835 0.62115 0.0
C708 C -0.00566 0.57956 0.58214 0.0
C709 C -0.00993 0.58866 0.55203 0.0
C710 C -0.01925 0.63356 0.5978 0.0
C711 C 0.98023 0.6204 0.54583 0.0
C712 C 0.97028 0.68993 0.61323 0.0
C713 C -0.01629 0.67282 0.67229 0.0
N714 N 0.97609 0.64166 0.56847 0.0
N715 N -0.0159 0.65082 0.65045 0.0
H716 H 0.31901 0.79586 0.49334 0.0
H717 H 0.39594 0.72862 0.34046 0.0
H718 H 0.28567 0.72453 0.44211 0.0
H719 H 0.39412 0.82327 0.37028 0.0
H720 H 0.36325 0.72092 0.38271 0.0
H721 H 0.35584 0.79958 0.45363 0.0
C722 C 0.31985 0.7806 0.474 0.0
C723 C 0.29928 0.75996 0.4708 0.0
C724 C 0.37003 0.74334 0.37988 0.0
C725 C 0.34101 0.76417 0.42561 0.0
C726 C 0.38859 0.74776 0.35587 0.0
C727 C 0.39747 0.77668 0.35187 0.0
C728 C 0.36093 0.76782 0.40023 0.0
C729 C 0.38747 0.80071 0.37243 0.0
C730 C 0.34061 0.78294 0.4513 0.0
C731 C 0.30107 0.74089 0.44522 0.0
N732 N 0.36983 0.79569 0.39591 0.0
N733 N 0.32161 0.74346 0.4235 0.0
H734 H 0.25392 0.00197 0.11681 0.0
H735 H 0.23714 0.17923 0.06531 0.0
H736 H 0.22539 0.08062 0.17567 0.0
H737 H 0.25466 0.10045 0.00483 0.0
H738 H 0.24197 0.14336 0.10761 0.0
H739 H 0.26305 0.03763 0.07745 0.0
C740 C 0.24981 0.02674 0.12157 0.0
C741 C 0.23848 0.03836 0.14947 0.0
C742 C 0.24514 0.13394 0.08511 0.0
C743 C 0.24886 0.07936 0.10439 0.0
C744 C 0.24254 0.1544 0.06092 0.0
C745 C 0.24513 0.14281 0.03143 0.0
C746 C 0.25039 0.10167 0.07977 0.0
C747 C 0.25219 0.11043 0.02715 0.0
C748 C 0.25504 0.0471 0.09905 0.0
C749 C 0.23386 0.07067 0.1544 0.0
N750 N 0.25426 0.09099 0.05104 0.0
N751 N 0.23881 0.09008 0.13197 0.0
H752 H 0.8476 0.75603 0.98804 0.0
H753 H 0.86575 0.69553 0.82116 0.0
H754 H 0.77682 0.71156 0.94991 0.0
H755 H 0.87459 0.78897 0.84709 0.0
H756 H 0.84466 0.68831 0.87115 0.0
H757 H 0.87216 0.75321 0.93901 0.0
C758 C 0.83759 0.74503 0.96959 0.0
C759 C 0.80968 0.73481 0.97276 0.0
C760 C 0.85113 0.71034 0.86557 0.0
C761 C 0.83793 0.73103 0.91719 0.0
C762 C 0.86285 0.71455 0.83722 0.0
C763 C 0.87131 0.74304 0.83002 0.0
C764 C 0.84919 0.73439 0.88684 0.0
C765 C 0.86771 0.76689 0.85159 0.0
C766 C 0.85155 0.74357 0.94169 0.0
C767 C 0.79803 0.72027 0.94817 0.0
N768 N 0.85727 0.76188 0.87922 0.0
N769 N 0.81211 0.71903 0.92117 0.0
H770 H 0.28589 0.53258 0.6481 0.0
H771 H 0.23329 0.7114 0.60528 0.0
H772 H 0.22777 0.59898 0.70416 0.0
H773 H 0.2942 0.64489 0.55173 0.0
H774 H 0.23671 0.67274 0.6452 0.0
H775 H 0.29461 0.57514 0.61607 0.0
C776 C 0.27517 0.55616 0.65385 0.0
C777 C 0.25574 0.56215 0.67863 0.0
C778 C 0.24969 0.66676 0.62489 0.0
C779 C 0.26546 0.61113 0.64184 0.0
C780 C 0.24785 0.68889 0.60211 0.0
C781 C 0.26314 0.68124 0.5749 0.0
C782 C 0.26685 0.63675 0.62039 0.0
C783 C 0.28171 0.65172 0.57215 0.0
C784 C 0.28019 0.58051 0.63554 0.0
C785 C 0.24274 0.59325 0.68514 0.0
N786 N 0.28272 0.63046 0.59441 0.0
N787 N 0.24753 0.61654 0.66663 0.0
H788 H 0.27892 0.07663 0.33736 0.0
H789 H 0.43819 0.04346 0.4213 0.0
H790 H 0.36323 0.03508 0.29443 0.0
H791 H 0.35665 0.09716 0.4602 0.0
H792 H 0.41289 0.04711 0.37249 0.0
H793 H 0.30813 0.09119 0.37991 0.0
C794 C 0.30364 0.0709 0.33673 0.0
C795 C 0.31868 0.05407 0.31259 0.0
C796 C 0.40064 0.05855 0.39155 0.0
C797 C 0.35225 0.07046 0.36137 0.0
C798 C 0.41505 0.05642 0.41947 0.0
C799 C 0.39924 0.06952 0.44492 0.0
C800 C 0.37001 0.07347 0.38913 0.0
C801 C 0.36954 0.08646 0.44119 0.0
C802 C 0.32032 0.07931 0.36102 0.0
C803 C 0.35072 0.04772 0.31273 0.0
N804 N 0.35565 0.08745 0.41387 0.0
N805 N 0.36644 0.05546 0.33703 0.0
H806 H 0.84309 0.85646 0.96871 0.0
H807 H 0.89642 0.99923 0.05349 0.0
H808 H 0.83892 0.86676 0.06504 0.0
H809 H 0.85961 0.00513 0.96367 0.0
H810 H 0.88652 0.94566 0.05699 0.0
H811 H 0.86168 0.90564 0.96549 0.0
C812 C 0.84647 0.86881 0.98925 0.0
C813 C 0.83906 0.85766 0.01721 0.0
C814 C 0.88074 0.95868 0.03651 0.0
C815 C 0.86023 0.91397 0.01353 0.0
C816 C 0.8864 0.98904 0.03452 0.0
C817 C 0.87858 0.00625 0.00834 0.0
C818 C 0.86784 0.94548 0.01187 0.0
C819 C 0.86571 0.9924 0.98425 0.0
C820 C 0.85689 0.89697 0.98732 0.0
C821 C 0.84408 0.87465 0.04303 0.0
N822 N 0.86085 0.96266 0.98652 0.0
N823 N 0.85423 0.9021 0.04056 0.0
H824 H 0.72593 0.12046 0.44903 0.0
H825 H 0.54773 0.11726 0.44561 0.0
H826 H 0.65501 0.20222 0.45344 0.0
H827 H 0.6173 0.03434 0.44239 0.0
H828 H 0.587 0.14888 0.43893 0.0
H829 H 0.68707 0.08898 0.4373 0.0
C830 C 0.70227 0.13189 0.44704 0.0
C831 C 0.69362 0.16393 0.45275 0.0
C832 C 0.59371 0.12375 0.43929 0.0
C833 C 0.64912 0.12807 0.43951 0.0
C834 C 0.57127 0.10567 0.44311 0.0
C835 C 0.57934 0.07315 0.44509 0.0
C836 C 0.62455 0.10927 0.43782 0.0
C837 C 0.61012 0.05938 0.44126 0.0
C838 C 0.68009 0.11388 0.4404 0.0
C839 C 0.66267 0.17751 0.44969 0.0
N840 N 0.63171 0.07755 0.43831 0.0
N841 N 0.64153 0.15946 0.44364 0.0
H842 H 0.76139 0.41213 0.2349 0.0
H843 H 0.94058 0.36206 0.20889 0.0
H844 H 0.82631 0.47409 0.24523 0.0
H845 H 0.87741 0.29768 0.20727 0.0
H846 H 0.89748 0.40525 0.21201 0.0
H847 H 0.80218 0.37197 0.21559 0.0
C848 C 0.78418 0.41737 0.23292 0.0
C849 C 0.7906 0.44631 0.24215 0.0
C850 C 0.89302 0.3817 0.21059 0.0
C851 C 0.83727 0.40053 0.21998 0.0
C852 C 0.91763 0.35701 0.2087 0.0
C853 C 0.9126 0.32618 0.20851 0.0
C854 C 0.86322 0.3755 0.21239 0.0
C855 C 0.88236 0.32107 0.20787 0.0
C856 C 0.80743 0.39444 0.22183 0.0
C857 C 0.82043 0.45194 0.23877 0.0
N858 N 0.85879 0.34549 0.21032 0.0
N859 N 0.84274 0.42914 0.2282 0.0
H860 H 0.13757 0.53025 0.50358 0.0
H861 H 0.12794 0.70313 0.44428 0.0
H862 H 0.06266 0.57791 0.44965 0.0
H863 H 0.20565 0.65125 0.49165 0.0
H864 H 0.10663 0.65534 0.43969 0.0
H865 H 0.16598 0.57173 0.49305 0.0
C866 C 0.12727 0.54924 0.48918 0.0
C867 C 0.09754 0.55089 0.47788 0.0
C868 C 0.12855 0.65437 0.45073 0.0
C869 C 0.12973 0.59872 0.46604 0.0
C870 C 0.14071 0.68164 0.45333 0.0
C871 C 0.16831 0.6813 0.46885 0.0
C872 C 0.14409 0.6267 0.46384 0.0
C873 C 0.18402 0.65275 0.47994 0.0
C874 C 0.14349 0.57296 0.48316 0.0
C875 C 0.08544 0.57586 0.45907 0.0
N876 N 0.17151 0.62673 0.47754 0.0
N877 N 0.10139 0.59908 0.45413 0.0
H878 H 0.6477 0.04722 0.80021 0.0
H879 H 0.59239 0.22987 0.7781 0.0
H880 H 0.70913 0.11164 0.7854 0.0
H881 H 0.53133 0.16446 0.78989 0.0
H882 H 0.63572 0.18817 0.78819 0.0
H883 H 0.6054 0.0911 0.80443 0.0
C884 C 0.65235 0.07064 0.79819 0.0
C885 C 0.68188 0.07578 0.79191 0.0
C886 C 0.61283 0.18301 0.78884 0.0
C887 C 0.63351 0.12612 0.79652 0.0
C888 C 0.58806 0.2068 0.78306 0.0
C889 C 0.55821 0.20052 0.78272 0.0
C890 C 0.60772 0.15272 0.79425 0.0
C891 C 0.55397 0.17027 0.78956 0.0
C892 C 0.62817 0.0957 0.80059 0.0
C893 C 0.68666 0.10661 0.78996 0.0
N894 N 0.57849 0.14742 0.79477 0.0
N895 N 0.66261 0.13064 0.79185 0.0
H896 H 0.76721 0.52321 0.15388 0.0
H897 H 0.7447 0.70601 0.12088 0.0
H898 H 0.72612 0.59351 0.21705 0.0
H899 H 0.78317 0.63396 0.05827 0.0
H900 H 0.74349 0.66596 0.15894 0.0
H901 H 0.77872 0.56405 0.12126 0.0
C902 C 0.76076 0.54726 0.16102 0.0
C903 C 0.74537 0.55491 0.18814 0.0
C904 C 0.75255 0.65898 0.13699 0.0
C905 C 0.7584 0.60206 0.15063 0.0
C906 C 0.75341 0.68185 0.11529 0.0
C907 C 0.76385 0.67331 0.08624 0.0
C908 C 0.76222 0.62739 0.12958 0.0
C909 C 0.7747 0.64164 0.08026 0.0
C910 C 0.76737 0.57064 0.14234 0.0
C911 C 0.73787 0.58653 0.19626 0.0
N912 N 0.77337 0.61988 0.10161 0.0
N913 N 0.7442 0.60897 0.17745 0.0
H914 H 0.89876 0.53789 0.48751 0.0
H915 H 0.85845 0.55412 0.31307 0.0
H916 H 0.96644 0.53203 0.41782 0.0
H917 H 0.79378 0.54383 0.38229 0.0
H918 H 0.89667 0.55854 0.35193 0.0
H919 H 0.8587 0.55273 0.44994 0.0
C920 C 0.90523 0.54009 0.46437 0.0
C921 C 0.93593 0.53307 0.45566 0.0
C922 C 0.87397 0.55574 0.35856 0.0
C923 C 0.89024 0.54989 0.4126 0.0
C924 C 0.85216 0.5533 0.33642 0.0
C925 C 0.82316 0.54799 0.34452 0.0
C926 C 0.86655 0.55299 0.38887 0.0
C927 C 0.8161 0.5473 0.37507 0.0
C928 C 0.88235 0.54854 0.44293 0.0
C929 C 0.94301 0.53671 0.42543 0.0
N930 N 0.83775 0.54943 0.39613 0.0
N931 N 0.92028 0.54449 0.40489 0.0
H932 H 0.12422 0.44044 0.71249 0.0
H933 H 0.09819 0.45322 0.53522 0.0
H934 H 0.18571 0.47342 0.65115 0.0
H935 H 0.02682 0.44676 0.59865 0.0
H936 H 0.13545 0.44595 0.57634 0.0
H937 H 0.09335 0.4286 0.66966 0.0
C938 C 0.13144 0.44479 0.69002 0.0
C939 C 0.1572 0.45845 0.68534 0.0
C940 C 0.11166 0.44572 0.58113 0.0
C941 C 0.12227 0.44483 0.63646 0.0
C942 C 0.09039 0.44986 0.55769 0.0
C943 C 0.05922 0.45159 0.56367 0.0
C944 C 0.10167 0.44301 0.61063 0.0
C945 C 0.05054 0.44631 0.59312 0.0
C946 C 0.11384 0.43806 0.66563 0.0
C947 C 0.16568 0.46342 0.65577 0.0
N948 N 0.0716 0.44268 0.61559 0.0
N949 N 0.14811 0.45684 0.63245 0.0
H950 H 0.56716 0.83126 0.18729 0.0
H951 H 0.66504 0.82617 0.06762 0.0
H952 H 0.63585 0.75594 0.22026 0.0
H953 H 0.7377 0.79127 0.12993 0.0
H954 H 0.62827 0.82851 0.10804 0.0
H955 H 0.60433 0.84501 0.15223 0.0
C956 C 0.59009 0.81766 0.18722 0.0
C957 C 0.59824 0.79197 0.20628 0.0
C958 C 0.6523 0.82132 0.11322 0.0
C959 C 0.64064 0.80717 0.16576 0.0
C960 C 0.6733 0.81973 0.09004 0.0
C961 C 0.70439 0.80845 0.09547 0.0
C962 C 0.66247 0.81123 0.142 0.0
C963 C 0.71391 0.80025 0.12486 0.0
C964 C 0.61122 0.82538 0.16702 0.0
C965 C 0.62844 0.77558 0.2056 0.0
N966 N 0.6929 0.80121 0.14697 0.0
N967 N 0.64851 0.78331 0.18545 0.0
H968 H 0.59209 0.47352 0.23124 0.0
H969 H 0.57628 0.4711 0.05277 0.0
H970 H 0.66693 0.47285 0.17005 0.0
H971 H 0.49949 0.47798 0.1126 0.0
H972 H 0.61075 0.46323 0.09588 0.0
H973 H 0.55881 0.46712 0.18852 0.0
C974 C 0.6016 0.4717 0.20889 0.0
C975 C 0.6322 0.47415 0.20416 0.0
C976 C 0.58638 0.46614 0.09959 0.0
C977 C 0.59437 0.46686 0.1553 0.0
C978 C 0.56666 0.47057 0.07495 0.0
C979 C 0.53493 0.47565 0.07911 0.0
C980 C 0.5743 0.46694 0.12865 0.0
C981 C 0.5238 0.47445 0.10837 0.0
C982 C 0.5826 0.46808 0.18452 0.0
C983 C 0.64337 0.47149 0.17473 0.0
N984 N 0.54346 0.47059 0.13208 0.0
N985 N 0.62441 0.46823 0.15144 0.0
H986 H 0.39654 0.42701 0.05155 0.0
H987 H 0.3292 0.31225 0.94006 0.0
H988 H 0.38462 0.44188 0.95623 0.0
H989 H 0.31477 0.31174 0.03568 0.0
H990 H 0.35584 0.35593 0.94648 0.0
H991 H 0.37102 0.38184 0.04705 0.0
C992 C 0.38831 0.42098 0.02977 0.0
C993 C 0.39272 0.43821 0.00422 0.0
C994 C 0.34694 0.34621 0.96609 0.0
C995 C 0.36419 0.38646 0.99889 0.0
C996 C 0.33192 0.32109 0.96248 0.0
C997 C 0.31958 0.30844 0.98736 0.0
C998 C 0.34984 0.3587 0.99481 0.0
C999 C 0.32385 0.32089 0.01587 0.0
C1000 C 0.37387 0.39518 0.02722 0.0
C1001 C 0.38171 0.42933 0.97654 0.0
N1002 N 0.33858 0.34546 0.01884 0.0
N1003 N 0.36817 0.40395 0.9746 0.0
H1004 H 0.07278 0.22603 0.2738 0.0
H1005 H 0.12467 0.04156 0.26845 0.0
H1006 H 0.01049 0.16152 0.26214 0.0
H1007 H 0.18696 0.10662 0.27511 0.0
H1008 H 0.0819 0.08475 0.27522 0.0
H1009 H 0.11406 0.18217 0.28351 0.0
C1010 C 0.06773 0.20266 0.27353 0.0
C1011 C 0.03833 0.19733 0.26651 0.0
C1012 C 0.10496 0.0895 0.27553 0.0
C1013 C 0.08539 0.14711 0.27754 0.0
C1014 C 0.12937 0.06487 0.27167 0.0
C1015 C 0.15933 0.07065 0.27062 0.0
C1016 C 0.11065 0.12003 0.27831 0.0
C1017 C 0.16416 0.10121 0.27525 0.0
C1018 C 0.09129 0.17763 0.27913 0.0
C1019 C 0.03295 0.16664 0.26702 0.0
N1020 N 0.14002 0.12483 0.27855 0.0
N1021 N 0.05638 0.14262 0.27203 0.0
H1022 H 0.22537 0.31031 0.90881 0.0
H1023 H 0.19488 0.49568 0.89064 0.0
H1024 H 0.19653 0.37534 0.98078 0.0
H1025 H 0.23359 0.43151 0.82115 0.0
H1026 H 0.18762 0.45156 0.92137 0.0
H1027 H 0.22044 0.35403 0.87392 0.0
C1028 C 0.21749 0.33372 0.91719 0.0
C1029 C 0.21164 0.33921 0.94783 0.0
C1030 C 0.19748 0.44711 0.8993 0.0
C1031 C 0.20624 0.38932 0.90809 0.0
C1032 C 0.20163 0.47233 0.88171 0.0
C1033 C 0.21521 0.4673 0.85341 0.0
C1034 C 0.20701 0.41659 0.88857 0.0
C1035 C 0.22328 0.43649 0.84296 0.0
C1036 C 0.21484 0.35868 0.89729 0.0
C1037 C 0.20156 0.37003 0.95741 0.0
N1038 N 0.21929 0.41229 0.86064 0.0
N1039 N 0.19944 0.39391 0.93768 0.0
H1040 H 0.24583 0.22124 0.88572 0.0
H1041 H 0.42277 0.20365 0.84717 0.0
H1042 H 0.31929 0.19054 0.94852 0.0
H1043 H 0.35077 0.23143 0.78211 0.0
H1044 H 0.38497 0.19212 0.88255 0.0
H1045 H 0.28344 0.21828 0.84551 0.0
C1046 C 0.26979 0.21333 0.89096 0.0
C1047 C 0.27949 0.20654 0.92058 0.0
C1048 C 0.3774 0.20044 0.86045 0.0
C1049 C 0.32256 0.2034 0.87485 0.0
C1050 C 0.39901 0.20707 0.84022 0.0
C1051 C 0.38987 0.2189 0.81177 0.0
C1052 C 0.34631 0.20598 0.85234 0.0
C1053 C 0.3588 0.22254 0.80389 0.0
C1054 C 0.29126 0.21177 0.86802 0.0
C1055 C 0.31081 0.19641 0.92608 0.0
N1056 N 0.33806 0.21648 0.82423 0.0
N1057 N 0.33121 0.19549 0.90352 0.0
H1058 H 0.38596 0.55765 0.98481 0.0
H1059 H 0.36051 0.56065 0.80747 0.0
H1060 H 0.45964 0.54918 0.92113 0.0
H1061 H 0.28917 0.55931 0.87224 0.0
H1062 H 0.39596 0.56621 0.84854 0.0
H1063 H 0.34931 0.56825 0.94365 0.0
C1064 C 0.39446 0.55839 0.96218 0.0
C1065 C 0.42592 0.55204 0.95636 0.0
C1066 C 0.37245 0.56507 0.8537 0.0
C1067 C 0.384 0.56393 0.90904 0.0
C1068 C 0.35218 0.56198 0.83027 0.0
C1069 C 0.32196 0.55904 0.83648 0.0
C1070 C 0.36235 0.56529 0.88347 0.0
C1071 C 0.31238 0.56105 0.86643 0.0
C1072 C 0.37349 0.56441 0.93866 0.0
C1073 C 0.43557 0.55365 0.92661 0.0
N1074 N 0.33258 0.56376 0.8888 0.0
N1075 N 0.41466 0.55905 0.90399 0.0
H1076 H 0.64768 0.70431 0.08411 0.0
H1077 H 0.57189 0.59201 0.9771 0.0
H1078 H 0.66534 0.69791 0.98899 0.0
H1079 H 0.58309 0.57996 0.07283 0.0
H1080 H 0.6013 0.63445 0.97985 0.0
H1081 H 0.61736 0.66335 0.07913 0.0
C1082 C 0.64492 0.69453 0.06209 0.0
C1083 C 0.6592 0.70442 0.03694 0.0
C1084 C 0.5974 0.6223 1.00014 0.0
C1085 C 0.62467 0.6573 0.03115 0.0
C1086 C 0.58074 0.59808 0.9986 0.0
C1087 C 0.57503 0.58244 0.02477 0.0
C1088 C 0.60796 0.6311 0.02809 0.0
C1089 C 0.58693 0.5913 0.05205 0.0
C1090 C 0.62778 0.67096 0.05931 0.0
C1091 C 0.6548 0.69085 0.00898 0.0
N1092 N 0.60261 0.61517 0.05301 0.0
N1093 N 0.63793 0.66787 0.00682 0.0
H1094 H 0.8744 0.7859 0.71863 0.0
H1095 H 0.83623 0.97017 0.72221 0.0
H1096 H 0.94227 0.8452 0.71782 0.0
H1097 H 0.76815 0.91112 0.72381 0.0
H1098 H 0.87467 0.92499 0.70884 0.0
H1099 H 0.83492 0.83133 0.70844 0.0
C1100 C 0.88106 0.80837 0.71577 0.0
C1101 C 0.91149 0.81199 0.71989 0.0
C1102 C 0.85123 0.92199 0.71168 0.0
C1103 C 0.86656 0.86396 0.70855 0.0
C1104 C 0.8293 0.94777 0.71938 0.0
C1105 C 0.79916 0.94419 0.7249 0.0
C1106 C 0.84296 0.89245 0.70978 0.0
C1107 C 0.7913 0.91478 0.72039 0.0
C1108 C 0.85852 0.83431 0.70999 0.0
C1109 C 0.91894 0.84152 0.71554 0.0
N1110 N 0.8132 0.8899 0.71358 0.0
N1111 N 0.89653 0.86649 0.71062 0.0
H1112 H 0.47447 0.25389 0.62044 0.0
H1113 H 0.46218 0.07471 0.59498 0.0
H1114 H 0.48309 0.18634 0.69172 0.0
H1115 H 0.46805 0.13849 0.52257 0.0
H1116 H 0.46406 0.11675 0.63088 0.0
H1117 H 0.46642 0.21342 0.58476 0.0
C1118 C 0.47446 0.23059 0.62868 0.0
C1119 C 0.47962 0.22352 0.65919 0.0
C1120 C 0.46478 0.12162 0.60715 0.0
C1121 C 0.47042 0.17695 0.61826 0.0
C1122 C 0.46361 0.09763 0.58656 0.0
C1123 C 0.46507 0.10298 0.55561 0.0
C1124 C 0.46733 0.15136 0.59684 0.0
C1125 C 0.46693 0.13322 0.54617 0.0
C1126 C 0.46993 0.20746 0.60822 0.0
C1127 C 0.47932 0.19287 0.66844 0.0
N1128 N 0.4681 0.15623 0.5667 0.0
N1129 N 0.47489 0.17073 0.64806 0.0
H1130 H 0.51755 0.26847 0.888 0.0
H1131 H 0.48312 0.44985 0.93132 0.0
H1132 H 0.47974 0.34083 0.82569 0.0
H1133 H 0.51434 0.37589 0.99416 0.0
H1134 H 0.48804 0.4112 0.89072 0.0
H1135 H 0.5225 0.30831 0.9254 0.0
C1136 C 0.51046 0.29276 0.88207 0.0
C1137 C 0.49794 0.30125 0.8537 0.0
C1138 C 0.49414 0.4035 0.91335 0.0
C1139 C 0.50348 0.34717 0.89663 0.0
C1140 C 0.49151 0.42558 0.93653 0.0
C1141 C 0.49814 0.41608 0.96625 0.0
C1142 C 0.50352 0.37172 0.91994 0.0
C1143 C 0.50876 0.38429 0.97165 0.0
C1144 C 0.51329 0.31554 0.9035 0.0
C1145 C 0.48935 0.33316 0.84732 0.0
N1146 N 0.5109 0.36328 0.94879 0.0
N1147 N 0.49208 0.35494 0.86868 0.0
H1148 H 0.49102 0.85997 0.31941 0.0
H1149 H 0.49824 0.92457 0.48722 0.0
H1150 H 0.50432 0.80136 0.39775 0.0
H1151 H 0.49503 0.98316 0.40924 0.0
H1152 H 0.50209 0.87907 0.45441 0.0
H1153 H 0.49429 0.90518 0.35135 0.0
C1154 C 0.49495 0.85653 0.34325 0.0
C1155 C 0.49727 0.82678 0.3559 0.0
C1156 C 0.50074 0.90183 0.44442 0.0
C1157 C 0.50074 0.8785 0.39263 0.0
C1158 C 0.4985 0.92788 0.46319 0.0
C1159 C 0.49618 0.95781 0.45101 0.0
C1160 C 0.50043 0.90563 0.41314 0.0
C1161 C 0.49676 0.96056 0.41964 0.0
C1162 C 0.49675 0.88238 0.36149 0.0
C1163 C 0.5023 0.8238 0.38696 0.0
N1164 N 0.49861 0.93485 0.4018 0.0
N1165 N 0.50364 0.8493 0.40422 0.0
H1166 H 0.45596 0.65158 0.03414 0.0
H1167 H 0.50035 0.68869 0.20311 0.0
H1168 H 0.48677 0.58002 0.0995 0.0
H1169 H 0.4716 0.75879 0.13583 0.0
H1170 H 0.49096 0.64861 0.16729 0.0
H1171 H 0.45627 0.69107 0.07298 0.0
C1172 C 0.4624 0.64413 0.05678 0.0
C1173 C 0.47153 0.61242 0.06349 0.0
C1174 C 0.48653 0.67279 0.16046 0.0
C1175 C 0.47236 0.65769 0.10817 0.0
C1176 C 0.4919 0.69569 0.18089 0.0
C1177 C 0.48698 0.72717 0.17241 0.0
C1178 C 0.47615 0.68141 0.13134 0.0
C1179 C 0.47593 0.73484 0.14334 0.0
C1180 C 0.46268 0.66674 0.07897 0.0
C1181 C 0.47954 0.6042 0.09329 0.0
N1182 N 0.47104 0.71215 0.12387 0.0
N1183 N 0.48008 0.62671 0.11447 0.0
loop_
_geom_bond_atom_site_label_1
_geom_bond_atom_site_label_2
_geom_bond_distance
_geom_bond_site_symmetry_2
_ccdc_geom_bond_type
Zn0 O6 1.969 1_554 S
Zn0 O7 1.965 . S
Zn0 O11 2.024 1_455 S
Zn0 O16 1.969 1_454 S
Zn1 O8 1.969 1_656 S
Zn1 O14 1.969 1_556 S
Zn1 O15 1.965 1_565 S
Zn1 O17 2.024 1_655 S
C2 O3 1.229 . S
C2 O11 1.058 . S
O3 C2 1.229 . S
C4 O5 1.229 . S
C4 O17 1.058 . S
O5 C4 1.229 . S
O6 Zn0 1.969 1_556 S
O6 C9 1.267 . S
O7 Zn0 1.965 . S
O7 C18 1.260 1_545 S
O8 Zn1 1.969 1_454 S
O8 C18 1.258 . S
C9 O6 1.267 . S
C9 O10 1.228 1_556 S
O10 C9 1.228 1_554 S
O11 Zn0 2.024 1_655 S
O11 C2 1.058 . S
C12 O13 1.228 1_554 S
C12 O14 1.267 . S
O13 C12 1.228 1_556 S
O14 Zn1 1.969 1_554 S
O14 C12 1.267 . S
O15 Zn1 1.965 1_545 S
O15 C19 1.260 . S
O16 Zn0 1.969 1_656 S
O16 C19 1.258 . S
O17 Zn1 2.024 1_455 S
O17 C4 1.058 . S
C18 O7 1.260 1_565 S
C18 O8 1.258 . S
C19 O15 1.260 . S
C19 O16 1.258 . S
Zn20 O26 1.969 1_455 S
Zn20 O27 1.965 1_455 S
Zn20 O31 2.024 . S
Zn20 O36 1.969 . S
Zn21 O28 1.969 1_455 S
Zn21 O34 1.969 . S
Zn21 O35 1.965 . S
Zn21 O37 2.024 . S
C22 O23 1.229 . S
C22 O31 1.058 . S
O23 C22 1.229 . S
C24 O25 1.229 . S
C24 O37 1.058 . S
O25 C24 1.229 . S
O26 Zn20 1.969 1_655 S
O26 C29 1.267 . S
O27 Zn20 1.965 1_655 S
O27 C38 1.260 . S
O28 Zn21 1.969 1_655 S
O28 C38 1.258 . S
C29 O26 1.267 . S
C29 O30 1.228 . S
O30 C29 1.228 . S
O31 Zn20 2.024 . S
O31 C22 1.058 . S
C32 O33 1.228 . S
C32 O34 1.267 . S
O33 C32 1.228 . S
O34 Zn21 1.969 . S
O34 C32 1.267 . S
O35 Zn21 1.965 . S
O35 C39 1.260 . S
O36 Zn20 1.969 . S
O36 C39 1.258 . S
O37 Zn21 2.024 . S
O37 C24 1.058 . S
C38 O27 1.260 . S
C38 O28 1.258 . S
C39 O35 1.260 . S
C39 O36 1.258 . S
Zn40 O46 1.969 . S
Zn40 O47 1.965 . S
Zn40 O51 2.024 . S
Zn40 O56 1.969 . S
Zn41 O48 1.969 . S
Zn41 O54 1.969 . S
Zn41 O55 1.965 . S
Zn41 O57 2.024 . S
C42 O43 1.229 . S
C42 O51 1.058 . S
O43 C42 1.229 . S
C44 O45 1.229 . S
C44 O57 1.058 . S
O45 C44 1.229 . S
O46 Zn40 1.969 . S
O46 C49 1.267 . S
O47 Zn40 1.965 . S
O47 C58 1.260 . S
O48 Zn41 1.969 . S
O48 C58 1.258 . S
C49 O46 1.267 . S
C49 O50 1.228 . S
O50 C49 1.228 . S
O51 Zn40 2.024 . S
O51 C42 1.058 . S
C52 O53 1.228 . S
C52 O54 1.267 . S
O53 C52 1.228 . S
O54 Zn41 1.969 . S
O54 C52 1.267 . S
O55 Zn41 1.965 . S
O55 C59 1.260 . S
O56 Zn40 1.969 . S
O56 C59 1.258 . S
O57 Zn41 2.024 . S
O57 C44 1.058 . S
C58 O47 1.260 . S
C58 O48 1.258 . S
C59 O55 1.260 . S
C59 O56 1.258 . S
Zn60 O66 1.969 . S
Zn60 O67 1.965 . S
Zn60 O71 2.024 1_545 S
Zn60 O76 1.969 . S
Zn61 O68 1.969 . S
Zn61 O74 1.969 . S
Zn61 O75 1.965 . S
Zn61 O77 2.024 . S
C62 O63 1.229 1_565 S
C62 O71 1.058 . S
O63 C62 1.229 1_545 S
C64 O65 1.229 . S
C64 O77 1.058 . S
O65 C64 1.229 . S
O66 Zn60 1.969 . S
O66 C69 1.267 . S
O67 Zn60 1.965 . S
O67 C78 1.260 . S
O68 Zn61 1.969 . S
O68 C78 1.258 . S
C69 O66 1.267 . S
C69 O70 1.228 . S
O70 C69 1.228 . S
O71 Zn60 2.024 1_565 S
O71 C62 1.058 . S
C72 O73 1.228 . S
C72 O74 1.267 . S
O73 C72 1.228 . S
O74 Zn61 1.969 . S
O74 C72 1.267 . S
O75 Zn61 1.965 . S
O75 C79 1.260 . S
O76 Zn60 1.969 . S
O76 C79 1.258 . S
O77 Zn61 2.024 . S
O77 C64 1.058 . S
C78 O67 1.260 . S
C78 O68 1.258 . S
C79 O75 1.260 . S
C79 O76 1.258 . S
Zn80 O86 1.969 . S
Zn80 O87 1.965 . S
Zn80 O91 2.024 . S
Zn80 O96 1.969 . S
Zn81 O88 1.969 . S
Zn81 O94 1.969 . S
Zn81 O95 1.965 . S
Zn81 O97 2.024 . S
C82 O83 1.229 . S
C82 O91 1.058 . S
O83 C82 1.229 . S
C84 O85 1.229 . S
C84 O97 1.058 . S
O85 C84 1.229 . S
O86 Zn80 1.969 . S
O86 C89 1.267 . S
O87 Zn80 1.965 . S
O87 C98 1.260 . S
O88 Zn81 1.969 . S
O88 C98 1.258 . S
C89 O86 1.267 . S
C89 O90 1.228 . S
O90 C89 1.228 . S
O91 Zn80 2.024 . S
O91 C82 1.058 . S
C92 O93 1.228 . S
C92 O94 1.267 . S
O93 C92 1.228 . S
O94 Zn81 1.969 . S
O94 C92 1.267 . S
O95 Zn81 1.965 . S
O95 C99 1.260 . S
O96 Zn80 1.969 . S
O96 C99 1.258 . S
O97 Zn81 2.024 . S
O97 C84 1.058 . S
C98 O87 1.260 . S
C98 O88 1.258 . S
C99 O95 1.260 . S
C99 O96 1.258 . S
Zn100 O106 1.969 . S
Zn100 O107 1.965 . S
Zn100 O111 2.024 . S
Zn100 O116 1.969 . S
Zn101 O108 1.969 . S
Zn101 O114 1.969 . S
Zn101 O115 1.965 . S
Zn101 O117 2.024 . S
C102 O103 1.229 . S
C102 O111 1.058 . S
O103 C102 1.229 . S
C104 O105 1.229 . S
C104 O117 1.058 . S
O105 C104 1.229 . S
O106 Zn100 1.969 . S
O106 C109 1.267 . S
O107 Zn100 1.965 . S
O107 C118 1.260 . S
O108 Zn101 1.969 . S
O108 C118 1.258 . S
C109 O106 1.267 . S
C109 O110 1.228 . S
O110 C109 1.228 . S
O111 Zn100 2.024 . S
O111 C102 1.058 . S
C112 O113 1.228 . S
C112 O114 1.267 . S
O113 C112 1.228 . S
O114 Zn101 1.969 . S
O114 C112 1.267 . S
O115 Zn101 1.965 . S
O115 C119 1.260 . S
O116 Zn100 1.969 . S
O116 C119 1.258 . S
O117 Zn101 2.024 . S
O117 C104 1.058 . S
C118 O107 1.260 . S
C118 O108 1.258 . S
C119 O115 1.260 . S
C119 O116 1.258 . S
Zn120 O126 1.969 . S
Zn120 O127 1.965 . S
Zn120 O131 2.024 . S
Zn120 O136 1.969 . S
Zn121 O128 1.969 . S
Zn121 O134 1.969 . S
Zn121 O135 1.965 . S
Zn121 O137 2.024 . S
C122 O123 1.229 . S
C122 O131 1.058 . S
O123 C122 1.229 . S
C124 O125 1.229 . S
C124 O137 1.058 . S
O125 C124 1.229 . S
O126 Zn120 1.969 . S
O126 C129 1.267 . S
O127 Zn120 1.965 . S
O127 C138 1.260 . S
O128 Zn121 1.969 . S
O128 C138 1.258 . S
C129 O126 1.267 . S
C129 O130 1.228 . S
O130 C129 1.228 . S
O131 Zn120 2.024 . S
O131 C122 1.058 . S
C132 O133 1.228 . S
C132 O134 1.267 . S
O133 C132 1.228 . S
O134 Zn121 1.969 . S
O134 C132 1.267 . S
O135 Zn121 1.965 . S
O135 C139 1.260 . S
O136 Zn120 1.969 . S
O136 C139 1.258 . S
O137 Zn121 2.024 . S
O137 C124 1.058 . S
C138 O127 1.260 . S
C138 O128 1.258 . S
C139 O135 1.260 . S
C139 O136 1.258 . S
Zn140 O146 1.969 . S
Zn140 O147 1.965 . S
Zn140 O151 2.024 . S
Zn140 O156 1.969 1_455 S
Zn141 O148 1.969 . S
Zn141 O154 1.969 1_455 S
Zn141 O155 1.965 1_455 S
Zn141 O157 2.024 . S
C142 O143 1.229 . S
C142 O151 1.058 1_655 S
O143 C142 1.229 . S
C144 O145 1.229 . S
C144 O157 1.058 . S
O145 C144 1.229 . S
O146 Zn140 1.969 . S
O146 C149 1.267 . S
O147 Zn140 1.965 . S
O147 C158 1.260 . S
O148 Zn141 1.969 . S
O148 C158 1.258 . S
C149 O146 1.267 . S
C149 O150 1.228 . S
O150 C149 1.228 . S
O151 Zn140 2.024 . S
O151 C142 1.058 1_455 S
C152 O153 1.228 . S
C152 O154 1.267 . S
O153 C152 1.228 . S
O154 Zn141 1.969 1_655 S
O154 C152 1.267 . S
O155 Zn141 1.965 1_655 S
O155 C159 1.260 . S
O156 Zn140 1.969 1_655 S
O156 C159 1.258 . S
O157 Zn141 2.024 . S
O157 C144 1.058 . S
C158 O147 1.260 . S
C158 O148 1.258 . S
C159 O155 1.260 . S
C159 O156 1.258 . S
Zn160 O166 1.969 1_554 S
Zn160 O167 1.965 . S
Zn160 O171 2.024 . S
Zn160 O176 1.969 1_554 S
Zn161 O168 1.969 1_556 S
Zn161 O174 1.969 1_556 S
Zn161 O175 1.965 . S
Zn161 O177 2.024 . S
C162 O163 1.229 . S
C162 O171 1.058 . S
O163 C162 1.229 . S
C164 O165 1.229 . S
C164 O177 1.058 . S
O165 C164 1.229 . S
O166 Zn160 1.969 1_556 S
O166 C169 1.267 . S
O167 Zn160 1.965 . S
O167 C178 1.260 . S
O168 Zn161 1.969 1_554 S
O168 C178 1.258 . S
C169 O166 1.267 . S
C169 O170 1.228 1_556 S
O170 C169 1.228 1_554 S
O171 Zn160 2.024 . S
O171 C162 1.058 . S
C172 O173 1.228 1_554 S
C172 O174 1.267 . S
O173 C172 1.228 1_556 S
O174 Zn161 1.969 1_554 S
O174 C172 1.267 . S
O175 Zn161 1.965 . S
O175 C179 1.260 . S
O176 Zn160 1.969 1_556 S
O176 C179 1.258 . S
O177 Zn161 2.024 . S
O177 C164 1.058 . S
C178 O167 1.260 . S
C178 O168 1.258 . S
C179 O175 1.260 . S
C179 O176 1.258 . S
Zn180 O186 1.969 1_565 S
Zn180 O187 1.965 . S
Zn180 O191 2.024 . S
Zn180 O196 1.969 1_565 S
Zn181 O188 1.969 1_545 S
Zn181 O194 1.969 1_545 S
Zn181 O195 1.965 . S
Zn181 O197 2.024 . S
C182 O183 1.229 . S
C182 O191 1.058 . S
O183 C182 1.229 . S
C184 O185 1.229 . S
C184 O197 1.058 . S
O185 C184 1.229 . S
O186 Zn180 1.969 1_545 S
O186 C189 1.284 . S
O187 Zn180 1.965 . S
O187 C198 1.260 . S
O188 Zn181 1.969 1_565 S
O188 C198 1.258 . S
C189 O186 1.284 . S
C189 O190 1.193 1_545 S
O190 C189 1.193 1_565 S
O191 Zn180 2.024 . S
O191 C182 1.058 . S
C192 O193 1.218 1_565 S
C192 O194 1.272 . S
O193 C192 1.218 1_545 S
O194 Zn181 1.969 1_565 S
O194 C192 1.272 . S
O195 Zn181 1.965 . S
O195 C199 1.260 . S
O196 Zn180 1.969 1_545 S
O196 C199 1.258 . S
O197 Zn181 2.024 . S
O197 C184 1.058 . S
C198 O187 1.260 . S
C198 O188 1.258 . S
C199 O195 1.260 . S
C199 O196 1.258 . S
Zn200 O206 1.969 . S
Zn200 O207 1.965 . S
Zn200 O211 2.024 . S
Zn200 O216 1.969 . S
Zn201 O208 1.969 . S
Zn201 O214 1.969 . S
Zn201 O215 1.965 . S
Zn201 O217 2.024 . S
C202 O203 1.229 . S
C202 O211 1.058 . S
O203 C202 1.229 . S
C204 O205 1.229 . S
C204 O217 1.058 . S
O205 C204 1.229 . S
O206 Zn200 1.969 . S
O206 C209 1.267 . S
O207 Zn200 1.965 . S
O207 C218 1.260 . S
O208 Zn201 1.969 . S
O208 C218 1.258 . S
C209 O206 1.267 . S
C209 O210 1.228 . S
O210 C209 1.228 . S
O211 Zn200 2.024 . S
O211 C202 1.058 . S
C212 O213 1.228 . S
C212 O214 1.267 . S
O213 C212 1.228 . S
O214 Zn201 1.969 . S
O214 C212 1.267 . S
O215 Zn201 1.965 . S
O215 C219 1.260 . S
O216 Zn200 1.969 . S
O216 C219 1.258 . S
O217 Zn201 2.024 . S
O217 C204 1.058 . S
C218 O207 1.260 . S
C218 O208 1.258 . S
C219 O215 1.260 . S
C219 O216 1.258 . S
Zn220 O226 1.969 . S
Zn220 O227 1.965 . S
Zn220 O231 2.024 1_655 S
Zn220 O236 1.969 1_655 S
Zn221 O228 1.969 1_455 S
Zn221 O234 1.969 . S
Zn221 O235 1.965 . S
Zn221 O237 2.024 1_455 S
C222 O223 1.229 . S
C222 O231 1.058 . S
O223 C222 1.229 . S
C224 O225 1.229 . S
C224 O237 1.058 . S
O225 C224 1.229 . S
O226 Zn220 1.969 . S
O226 C229 1.267 . S
O227 Zn220 1.965 . S
O227 C238 1.260 . S
O228 Zn221 1.969 1_655 S
O228 C238 1.258 . S
C229 O226 1.267 . S
C229 O230 1.228 . S
O230 C229 1.228 . S
O231 Zn220 2.024 1_455 S
O231 C222 1.058 . S
C232 O233 1.228 . S
C232 O234 1.267 . S
O233 C232 1.228 . S
O234 Zn221 1.969 . S
O234 C232 1.267 . S
O235 Zn221 1.965 . S
O235 C239 1.260 . S
O236 Zn220 1.969 1_455 S
O236 C239 1.258 . S
O237 Zn221 2.024 1_655 S
O237 C224 1.058 . S
C238 O227 1.260 . S
C238 O228 1.258 . S
C239 O235 1.260 . S
C239 O236 1.258 . S
Zn240 O246 1.969 . S
Zn240 O247 1.965 . S
Zn240 O251 2.024 . S
Zn240 O256 1.969 . S
Zn241 O248 1.969 . S
Zn241 O254 1.969 . S
Zn241 O255 1.965 . S
Zn241 O257 2.024 . S
C242 O243 1.229 . S
C242 O251 1.058 . S
O243 C242 1.229 . S
C244 O245 1.229 . S
C244 O257 1.058 . S
O245 C244 1.229 . S
O246 Zn240 1.969 . S
O246 C249 1.267 . S
O247 Zn240 1.965 . S
O247 C258 1.260 . S
O248 Zn241 1.969 . S
O248 C258 1.258 . S
C249 O246 1.267 . S
C249 O250 1.228 . S
O250 C249 1.228 . S
O251 Zn240 2.024 . S
O251 C242 1.058 . S
C252 O253 1.228 . S
C252 O254 1.267 . S
O253 C252 1.228 . S
O254 Zn241 1.969 . S
O254 C252 1.267 . S
O255 Zn241 1.965 . S
O255 C259 1.260 . S
O256 Zn240 1.969 . S
O256 C259 1.258 . S
O257 Zn241 2.024 . S
O257 C244 1.058 . S
C258 O247 1.260 . S
C258 O248 1.258 . S
C259 O255 1.260 . S
C259 O256 1.258 . S
Zn260 O266 1.969 1_554 S
Zn260 O267 1.965 . S
Zn260 O271 2.024 . S
Zn260 O276 1.969 1_554 S
Zn261 O268 1.969 . S
Zn261 O274 1.969 . S
Zn261 O275 1.965 1_554 S
Zn261 O277 2.024 1_554 S
C262 O263 1.229 . S
C262 O271 1.058 . S
O263 C262 1.229 . S
C264 O265 1.229 . S
C264 O277 1.058 . S
O265 C264 1.229 . S
O266 Zn260 1.969 1_556 S
O266 C269 1.267 1_556 S
O267 Zn260 1.965 . S
O267 C278 1.260 . S
O268 Zn261 1.969 . S
O268 C278 1.258 . S
C269 O266 1.267 1_554 S
C269 O270 1.228 . S
O270 C269 1.228 . S
O271 Zn260 2.024 . S
O271 C262 1.058 . S
C272 O273 1.228 1_554 S
C272 O274 1.267 . S
O273 C272 1.228 1_556 S
O274 Zn261 1.969 . S
O274 C272 1.267 . S
O275 Zn261 1.965 1_556 S
O275 C279 1.260 . S
O276 Zn260 1.969 1_556 S
O276 C279 1.258 . S
O277 Zn261 2.024 1_556 S
O277 C264 1.058 . S
C278 O267 1.260 . S
C278 O268 1.258 . S
C279 O275 1.260 . S
C279 O276 1.258 . S
Zn280 O286 1.969 1_545 S
Zn280 O287 1.965 1_545 S
Zn280 O291 2.024 . S
Zn280 O296 1.969 . S
Zn281 O288 1.983 . S
Zn281 O294 1.969 . S
Zn281 O295 1.965 . S
Zn281 O297 2.024 . S
C282 O283 1.229 . S
C282 O291 1.058 . S
O283 C282 1.229 . S
C284 O285 1.229 . S
C284 O297 1.058 . S
O285 C284 1.229 . S
O286 Zn280 1.969 1_565 S
O286 C289 1.267 . S
O287 Zn280 1.965 1_565 S
O287 C298 1.260 . S
O288 Zn281 1.983 . S
O288 C298 1.247 1_545 S
C289 O286 1.267 . S
C289 O290 1.228 . S
O290 C289 1.228 . S
O291 Zn280 2.024 . S
O291 C282 1.058 . S
C292 O293 1.228 . S
C292 O294 1.267 . S
O293 C292 1.228 . S
O294 Zn281 1.969 . S
O294 C292 1.267 . S
O295 Zn281 1.965 . S
O295 C299 1.260 . S
O296 Zn280 1.969 . S
O296 C299 1.258 . S
O297 Zn281 2.024 . S
O297 C284 1.058 . S
C298 O287 1.260 . S
C298 O288 1.247 1_565 S
C299 O295 1.260 . S
C299 O296 1.258 . S
Zn300 O306 1.969 1_554 S
Zn300 O307 1.965 . S
Zn300 O311 2.024 . S
Zn300 O316 1.969 1_554 S
Zn301 O308 1.969 . S
Zn301 O314 1.969 . S
Zn301 O315 1.965 1_554 S
Zn301 O317 2.024 1_554 S
C302 O303 1.229 . S
C302 O311 1.058 . S
O303 C302 1.229 . S
C304 O305 1.229 . S
C304 O317 1.058 . S
O305 C304 1.229 . S
O306 Zn300 1.969 1_556 S
O306 C309 1.267 1_556 S
O307 Zn300 1.965 . S
O307 C318 1.260 . S
O308 Zn301 1.969 . S
O308 C318 1.258 . S
C309 O306 1.267 1_554 S
C309 O310 1.228 . S
O310 C309 1.228 . S
O311 Zn300 2.024 . S
O311 C302 1.058 . S
C312 O313 1.228 1_554 S
C312 O314 1.267 . S
O313 C312 1.228 1_556 S
O314 Zn301 1.969 . S
O314 C312 1.267 . S
O315 Zn301 1.965 1_556 S
O315 C319 1.260 . S
O316 Zn300 1.969 1_556 S
O316 C319 1.258 . S
O317 Zn301 2.024 1_556 S
O317 C304 1.058 . S
C318 O307 1.260 . S
C318 O308 1.258 . S
C319 O315 1.260 . S
C319 O316 1.258 . S
H320 C326 0.930 . S
H321 C330 0.930 . S
H322 C335 0.929 . S
H323 C333 0.929 . S
H324 C328 0.929 . S
H325 C334 0.929 . S
C326 H320 0.930 . S
C326 C327 1.367 . S
C326 C334 1.378 . S
C327 C326 1.367 . S
C327 C335 1.433 1_655 S
C328 H324 0.929 . S
C328 C330 1.378 . S
C328 C332 1.350 1_455 S
C329 C332 1.463 . S
C329 C334 1.350 . S
C329 N337 1.427 1_655 S
C330 H321 0.930 . S
C330 C328 1.378 . S
C330 C331 1.367 . S
C331 C330 1.367 . S
C331 C333 1.433 1_455 S
C332 C328 1.350 1_655 S
C332 C329 1.463 . S
C332 N336 1.427 . S
C333 H323 0.929 . S
C333 C331 1.433 1_655 S
C333 N336 1.384 . S
C334 H325 0.929 . S
C334 C326 1.378 . S
C334 C329 1.350 . S
C335 H322 0.929 . S
C335 C327 1.433 1_455 S
C335 N337 1.384 . S
N336 C332 1.427 . S
N336 C333 1.384 . S
N337 C329 1.427 1_455 S
N337 C335 1.384 . S
H338 C344 0.930 . S
H339 C348 0.930 . S
H340 C353 0.929 . S
H341 C351 0.929 . S
H342 C346 0.929 . S
H343 C352 0.929 . S
C344 H338 0.930 . S
C344 C345 1.367 . S
C344 C352 1.378 . S
C345 C344 1.367 . S
C345 C353 1.433 . S
C346 H342 0.929 . S
C346 C348 1.378 . S
C346 C350 1.350 . S
C347 C350 1.463 . S
C347 C352 1.350 . S
C347 N355 1.427 . S
C348 H339 0.930 . S
C348 C346 1.378 . S
C348 C349 1.367 . S
C349 C348 1.367 . S
C349 C351 1.433 . S
C350 C346 1.350 . S
C350 C347 1.463 . S
C350 N354 1.427 . S
C351 H341 0.929 . S
C351 C349 1.433 . S
C351 N354 1.384 . S
C352 H343 0.929 . S
C352 C344 1.378 . S
C352 C347 1.350 . S
C353 H340 0.929 . S
C353 C345 1.433 . S
C353 N355 1.384 . S
N354 C350 1.427 . S
N354 C351 1.384 . S
N355 C347 1.427 . S
N355 C353 1.384 . S
H356 C362 0.930 . S
H357 C366 0.930 . S
H358 C371 0.929 . S
H359 C369 0.929 . S
H360 C364 0.929 . S
H361 C370 0.929 . S
C362 H356 0.930 . S
C362 C363 1.367 . S
C362 C370 1.378 . S
C363 C362 1.367 . S
C363 C371 1.433 . S
C364 H360 0.929 . S
C364 C366 1.378 . S
C364 C368 1.350 . S
C365 C368 1.463 . S
C365 C370 1.350 . S
C365 N373 1.427 . S
C366 H357 0.930 . S
C366 C364 1.378 . S
C366 C367 1.367 . S
C367 C366 1.367 . S
C367 C369 1.433 . S
C368 C364 1.350 . S
C368 C365 1.463 . S
C368 N372 1.427 . S
C369 H359 0.929 . S
C369 C367 1.433 . S
C369 N372 1.384 . S
C370 H361 0.929 . S
C370 C362 1.378 . S
C370 C365 1.350 . S
C371 H358 0.929 . S
C371 C363 1.433 . S
C371 N373 1.384 . S
N372 C368 1.427 . S
N372 C369 1.384 . S
N373 C365 1.427 . S
N373 C371 1.384 . S
H374 C380 0.930 . S
H375 C384 0.930 . S
H376 C389 0.929 . S
H377 C387 0.929 . S
H378 C382 0.929 . S
H379 C388 0.929 . S
C380 H374 0.930 . S
C380 C381 1.367 . S
C380 C388 1.378 . S
C381 C380 1.367 . S
C381 C389 1.433 . S
C382 H378 0.929 . S
C382 C384 1.378 . S
C382 C386 1.350 . S
C383 C386 1.463 . S
C383 C388 1.350 . S
C383 N391 1.427 . S
C384 H375 0.930 . S
C384 C382 1.378 . S
C384 C385 1.367 . S
C385 C384 1.367 . S
C385 C387 1.433 . S
C386 C382 1.350 . S
C386 C383 1.463 . S
C386 N390 1.427 . S
C387 H377 0.929 . S
C387 C385 1.433 . S
C387 N390 1.384 . S
C388 H379 0.929 . S
C388 C380 1.378 . S
C388 C383 1.350 . S
C389 H376 0.929 . S
C389 C381 1.433 . S
C389 N391 1.384 . S
N390 C386 1.427 . S
N390 C387 1.384 . S
N391 C383 1.427 . S
N391 C389 1.384 . S
H392 C398 0.930 . S
H393 C402 0.930 . S
H394 C407 0.929 . S
H395 C405 0.929 . S
H396 C400 0.929 . S
H397 C406 0.929 . S
C398 H392 0.930 . S
C398 C399 1.367 . S
C398 C406 1.378 . S
C399 C398 1.367 . S
C399 C407 1.433 1_565 S
C400 H396 0.929 . S
C400 C402 1.378 . S
C400 C404 1.350 1_545 S
C401 C404 1.463 . S
C401 C406 1.350 . S
C401 N409 1.427 1_565 S
C402 H393 0.930 . S
C402 C400 1.378 . S
C402 C403 1.367 1_545 S
C403 C402 1.367 1_565 S
C403 C405 1.433 . S
C404 C400 1.350 1_565 S
C404 C401 1.463 . S
C404 N408 1.427 . S
C405 H395 0.929 . S
C405 C403 1.433 . S
C405 N408 1.384 . S
C406 H397 0.929 . S
C406 C398 1.378 . S
C406 C401 1.350 . S
C407 H394 0.929 . S
C407 C399 1.433 1_545 S
C407 N409 1.384 . S
N408 C404 1.427 . S
N408 C405 1.384 . S
N409 C401 1.427 1_545 S
N409 C407 1.384 . S
H410 C416 0.930 . S
H411 C420 0.930 . S
H412 C425 0.929 . S
H413 C423 0.929 . S
H414 C418 0.929 . S
H415 C424 0.929 . S
C416 H410 0.930 . S
C416 C417 1.367 . S
C416 C424 1.378 . S
C417 C416 1.367 . S
C417 C425 1.433 . S
C418 H414 0.929 . S
C418 C420 1.378 . S
C418 C422 1.350 . S
C419 C422 1.463 . S
C419 C424 1.350 . S
C419 N427 1.427 . S
C420 H411 0.930 . S
C420 C418 1.378 . S
C420 C421 1.367 . S
C421 C420 1.367 . S
C421 C423 1.433 . S
C422 C418 1.350 . S
C422 C419 1.463 . S
C422 N426 1.427 . S
C423 H413 0.929 . S
C423 C421 1.433 . S
C423 N426 1.384 . S
C424 H415 0.929 . S
C424 C416 1.378 . S
C424 C419 1.350 . S
C425 H412 0.929 . S
C425 C417 1.433 . S
C425 N427 1.384 . S
N426 C422 1.427 . S
N426 C423 1.384 . S
N427 C419 1.427 . S
N427 C425 1.384 . S
H428 C434 0.930 . S
H429 C438 0.930 . S
H430 C443 0.929 . S
H431 C441 0.929 . S
H432 C436 0.929 . S
H433 C442 0.929 . S
C434 H428 0.930 . S
C434 C435 1.367 . S
C434 C442 1.378 . S
C435 C434 1.367 . S
C435 C443 1.433 . S
C436 H432 0.929 . S
C436 C438 1.378 . S
C436 C440 1.350 . S
C437 C440 1.463 . S
C437 C442 1.350 . S
C437 N445 1.427 . S
C438 H429 0.930 . S
C438 C436 1.378 . S
C438 C439 1.367 . S
C439 C438 1.367 . S
C439 C441 1.433 . S
C440 C436 1.350 . S
C440 C437 1.463 . S
C440 N444 1.427 . S
C441 H431 0.929 . S
C441 C439 1.433 . S
C441 N444 1.384 . S
C442 H433 0.929 . S
C442 C434 1.378 . S
C442 C437 1.350 . S
C443 H430 0.929 . S
C443 C435 1.433 . S
C443 N445 1.384 . S
N444 C440 1.427 . S
N444 C441 1.384 . S
N445 C437 1.427 . S
N445 C443 1.384 . S
H446 C452 0.930 . S
H447 C456 0.930 . S
H448 C461 0.929 . S
H449 C459 0.929 . S
H450 C454 0.929 . S
H451 C460 0.929 . S
C452 H446 0.930 . S
C452 C453 1.367 . S
C452 C460 1.378 . S
C453 C452 1.367 . S
C453 C461 1.433 . S
C454 H450 0.929 . S
C454 C456 1.378 . S
C454 C458 1.350 . S
C455 C458 1.463 . S
C455 C460 1.350 . S
C455 N463 1.427 . S
C456 H447 0.930 . S
C456 C454 1.378 . S
C456 C457 1.367 . S
C457 C456 1.367 . S
C457 C459 1.433 . S
C458 C454 1.350 . S
C458 C455 1.463 . S
C458 N462 1.427 . S
C459 H449 0.929 . S
C459 C457 1.433 . S
C459 N462 1.384 . S
C460 H451 0.929 . S
C460 C452 1.378 . S
C460 C455 1.350 . S
C461 H448 0.929 . S
C461 C453 1.433 . S
C461 N463 1.384 . S
N462 C458 1.427 . S
N462 C459 1.384 . S
N463 C455 1.427 . S
N463 C461 1.384 . S
H464 C470 0.930 . S
H465 C474 0.930 . S
H466 C479 0.929 . S
H467 C477 0.929 . S
H468 C472 0.929 . S
H469 C478 0.929 . S
C470 H464 0.930 . S
C470 C471 1.367 . S
C470 C478 1.378 . S
C471 C470 1.367 . S
C471 C479 1.433 . S
C472 H468 0.929 . S
C472 C474 1.378 . S
C472 C476 1.350 . S
C473 C476 1.463 . S
C473 C478 1.350 . S
C473 N481 1.427 . S
C474 H465 0.930 . S
C474 C472 1.378 . S
C474 C475 1.367 . S
C475 C474 1.367 . S
C475 C477 1.433 . S
C476 C472 1.350 . S
C476 C473 1.463 . S
C476 N480 1.427 . S
C477 H467 0.929 . S
C477 C475 1.433 . S
C477 N480 1.384 . S
C478 H469 0.929 . S
C478 C470 1.378 . S
C478 C473 1.350 . S
C479 H466 0.929 . S
C479 C471 1.433 . S
C479 N481 1.384 . S
N480 C476 1.427 . S
N480 C477 1.384 . S
N481 C473 1.427 . S
N481 C479 1.384 . S
H482 C488 0.930 . S
H483 C492 0.930 . S
H484 C497 0.929 . S
H485 C495 0.929 . S
H486 C490 0.929 . S
H487 C496 0.929 . S
C488 H482 0.930 . S
C488 C489 1.367 . S
C488 C496 1.378 . S
C489 C488 1.367 . S
C489 C497 1.433 . S
C490 H486 0.929 . S
C490 C492 1.378 . S
C490 C494 1.350 . S
C491 C494 1.463 . S
C491 C496 1.350 . S
C491 N499 1.427 . S
C492 H483 0.930 . S
C492 C490 1.378 . S
C492 C493 1.367 . S
C493 C492 1.367 . S
C493 C495 1.433 . S
C494 C490 1.350 . S
C494 C491 1.463 . S
C494 N498 1.427 . S
C495 H485 0.929 . S
C495 C493 1.433 . S
C495 N498 1.384 . S
C496 H487 0.929 . S
C496 C488 1.378 . S
C496 C491 1.350 . S
C497 H484 0.929 . S
C497 C489 1.433 . S
C497 N499 1.384 . S
N498 C494 1.427 . S
N498 C495 1.384 . S
N499 C491 1.427 . S
N499 C497 1.384 . S
H500 C506 0.930 . S
H501 C510 0.930 . S
H502 C515 0.929 . S
H503 C513 0.929 . S
H504 C508 0.929 . S
H505 C514 0.929 . S
C506 H500 0.930 . S
C506 C507 1.367 . S
C506 C514 1.378 . S
C507 C506 1.367 . S
C507 C515 1.433 1_565 S
C508 H504 0.929 . S
C508 C510 1.378 . S
C508 C512 1.350 . S
C509 C512 1.463 . S
C509 C514 1.350 1_545 S
C509 N517 1.427 . S
C510 H501 0.930 . S
C510 C508 1.378 . S
C510 C511 1.367 . S
C511 C510 1.367 . S
C511 C513 1.433 1_545 S
C512 C508 1.350 . S
C512 C509 1.463 . S
C512 N516 1.427 1_545 S
C513 H503 0.929 . S
C513 C511 1.433 1_565 S
C513 N516 1.384 . S
C514 H505 0.929 . S
C514 C506 1.378 . S
C514 C509 1.350 1_565 S
C515 H502 0.929 . S
C515 C507 1.433 1_545 S
C515 N517 1.384 . S
N516 C512 1.427 1_565 S
N516 C513 1.384 . S
N517 C509 1.427 . S
N517 C515 1.384 . S
H518 C524 0.930 . S
H519 C528 0.930 . S
H520 C533 0.929 . S
H521 C531 0.929 . S
H522 C526 0.929 . S
H523 C532 0.929 . S
C524 H518 0.930 . S
C524 C525 1.367 . S
C524 C532 1.378 . S
C525 C524 1.367 . S
C525 C533 1.433 . S
C526 H522 0.929 . S
C526 C528 1.378 . S
C526 C530 1.350 . S
C527 C530 1.463 . S
C527 C532 1.350 . S
C527 N535 1.427 . S
C528 H519 0.930 . S
C528 C526 1.378 . S
C528 C529 1.367 . S
C529 C528 1.367 . S
C529 C531 1.433 . S
C530 C526 1.350 . S
C530 C527 1.463 . S
C530 N534 1.427 . S
C531 H521 0.929 . S
C531 C529 1.433 . S
C531 N534 1.384 . S
C532 H523 0.929 . S
C532 C524 1.378 . S
C532 C527 1.350 . S
C533 H520 0.929 . S
C533 C525 1.433 . S
C533 N535 1.384 . S
N534 C530 1.427 . S
N534 C531 1.384 . S
N535 C527 1.427 . S
N535 C533 1.384 . S
H536 C542 0.930 . S
H537 C546 0.930 . S
H538 C551 0.929 . S
H539 C549 0.929 . S
H540 C544 0.929 . S
H541 C550 0.929 . S
C542 H536 0.930 . S
C542 C543 1.367 1_554 S
C542 C550 1.378 . S
C543 C542 1.367 1_556 S
C543 C551 1.433 . S
C544 H540 0.929 . S
C544 C546 1.378 . S
C544 C548 1.350 . S
C545 C548 1.463 . S
C545 C550 1.350 1_556 S
C545 N553 1.427 . S
C546 H537 0.930 . S
C546 C544 1.378 . S
C546 C547 1.367 . S
C547 C546 1.367 . S
C547 C549 1.433 1_556 S
C548 C544 1.350 . S
C548 C545 1.463 . S
C548 N552 1.427 1_556 S
C549 H539 0.929 . S
C549 C547 1.433 1_554 S
C549 N552 1.384 . S
C550 H541 0.929 . S
C550 C542 1.378 . S
C550 C545 1.350 1_554 S
C551 H538 0.929 . S
C551 C543 1.433 . S
C551 N553 1.384 . S
N552 C548 1.427 1_554 S
N552 C549 1.384 . S
N553 C545 1.427 . S
N553 C551 1.384 . S
H554 C560 0.930 . S
H555 C564 0.930 . S
H556 C569 0.929 . S
H557 C567 0.929 . S
H558 C562 0.929 . S
H559 C568 0.929 . S
C560 H554 0.930 . S
C560 C561 1.367 . S
C560 C568 1.378 . S
C561 C560 1.367 . S
C561 C569 1.433 . S
C562 H558 0.929 . S
C562 C564 1.378 . S
C562 C566 1.350 . S
C563 C566 1.463 . S
C563 C568 1.350 . S
C563 N571 1.427 . S
C564 H555 0.930 . S
C564 C562 1.378 . S
C564 C565 1.367 . S
C565 C564 1.367 . S
C565 C567 1.433 . S
C566 C562 1.350 . S
C566 C563 1.463 . S
C566 N570 1.427 . S
C567 H557 0.929 . S
C567 C565 1.433 . S
C567 N570 1.384 . S
C568 H559 0.929 . S
C568 C560 1.378 . S
C568 C563 1.350 . S
C569 H556 0.929 . S
C569 C561 1.433 . S
C569 N571 1.384 . S
N570 C566 1.427 . S
N570 C567 1.384 . S
N571 C563 1.427 . S
N571 C569 1.384 . S
H572 C578 0.930 . S
H573 C582 0.930 . S
H574 C587 0.929 . S
H575 C585 0.929 . S
H576 C580 0.929 . S
H577 C586 0.929 . S
C578 H572 0.930 . S
C578 C579 1.367 . S
C578 C586 1.378 . S
C579 C578 1.367 . S
C579 C587 1.433 . S
C580 H576 0.929 . S
C580 C582 1.378 . S
C580 C584 1.350 . S
C581 C584 1.463 . S
C581 C586 1.350 . S
C581 N589 1.427 . S
C582 H573 0.930 . S
C582 C580 1.378 . S
C582 C583 1.367 . S
C583 C582 1.367 . S
C583 C585 1.433 . S
C584 C580 1.350 . S
C584 C581 1.463 . S
C584 N588 1.427 . S
C585 H575 0.929 . S
C585 C583 1.433 . S
C585 N588 1.384 . S
C586 H577 0.929 . S
C586 C578 1.378 . S
C586 C581 1.350 . S
C587 H574 0.929 . S
C587 C579 1.433 . S
C587 N589 1.384 . S
N588 C584 1.427 . S
N588 C585 1.384 . S
N589 C581 1.427 . S
N589 C587 1.384 . S
H590 C596 0.930 . S
H591 C600 0.930 . S
H592 C605 0.929 . S
H593 C603 0.929 . S
H594 C598 0.929 . S
H595 C604 0.929 . S
C596 H590 0.930 . S
C596 C597 1.367 . S
C596 C604 1.378 . S
C597 C596 1.367 . S
C597 C605 1.433 . S
C598 H594 0.929 . S
C598 C600 1.378 . S
C598 C602 1.350 . S
C599 C602 1.463 . S
C599 C604 1.350 . S
C599 N607 1.427 . S
C600 H591 0.930 . S
C600 C598 1.378 . S
C600 C601 1.367 . S
C601 C600 1.367 . S
C601 C603 1.433 . S
C602 C598 1.350 . S
C602 C599 1.463 . S
C602 N606 1.427 . S
C603 H593 0.929 . S
C603 C601 1.433 . S
C603 N606 1.384 . S
C604 H595 0.929 . S
C604 C596 1.378 . S
C604 C599 1.350 . S
C605 H592 0.929 . S
C605 C597 1.433 . S
C605 N607 1.384 . S
N606 C602 1.427 . S
N606 C603 1.384 . S
N607 C599 1.427 . S
N607 C605 1.384 . S
H608 C614 0.930 . S
H609 C618 0.930 . S
H610 C623 0.929 . S
H611 C621 0.929 . S
H612 C616 0.929 . S
H613 C622 0.929 . S
C614 H608 0.930 . S
C614 C615 1.367 . S
C614 C622 1.378 . S
C615 C614 1.367 . S
C615 C623 1.433 . S
C616 H612 0.929 . S
C616 C618 1.378 . S
C616 C620 1.350 . S
C617 C620 1.463 . S
C617 C622 1.350 . S
C617 N625 1.427 . S
C618 H609 0.930 . S
C618 C616 1.378 . S
C618 C619 1.367 . S
C619 C618 1.367 . S
C619 C621 1.433 . S
C620 C616 1.350 . S
C620 C617 1.463 . S
C620 N624 1.427 . S
C621 H611 0.929 . S
C621 C619 1.433 . S
C621 N624 1.384 . S
C622 H613 0.929 . S
C622 C614 1.378 . S
C622 C617 1.350 . S
C623 H610 0.929 . S
C623 C615 1.433 . S
C623 N625 1.384 . S
N624 C620 1.427 . S
N624 C621 1.384 . S
N625 C617 1.427 . S
N625 C623 1.384 . S
H626 C632 0.930 . S
H627 C636 0.930 . S
H628 C641 0.929 . S
H629 C639 0.929 . S
H630 C634 0.929 . S
H631 C640 0.929 . S
C632 H626 0.930 . S
C632 C633 1.367 . S
C632 C640 1.378 . S
C633 C632 1.367 . S
C633 C641 1.433 . S
C634 H630 0.929 . S
C634 C636 1.378 . S
C634 C638 1.350 . S
C635 C638 1.463 . S
C635 C640 1.350 . S
C635 N643 1.427 . S
C636 H627 0.930 . S
C636 C634 1.378 . S
C636 C637 1.367 . S
C637 C636 1.367 . S
C637 C639 1.433 . S
C638 C634 1.350 . S
C638 C635 1.463 . S
C638 N642 1.427 . S
C639 H629 0.929 . S
C639 C637 1.433 . S
C639 N642 1.384 . S
C640 H631 0.929 . S
C640 C632 1.378 . S
C640 C635 1.350 . S
C641 H628 0.929 . S
C641 C633 1.433 . S
C641 N643 1.384 . S
N642 C638 1.427 . S
N642 C639 1.384 . S
N643 C635 1.427 . S
N643 C641 1.384 . S
H644 C650 0.930 . S
H645 C654 0.930 . S
H646 C659 0.929 . S
H647 C657 0.929 . S
H648 C652 0.929 . S
H649 C658 0.929 . S
C650 H644 0.930 . S
C650 C651 1.367 . S
C650 C658 1.378 . S
C651 C650 1.367 . S
C651 C659 1.433 . S
C652 H648 0.929 . S
C652 C654 1.378 . S
C652 C656 1.350 . S
C653 C656 1.463 . S
C653 C658 1.350 . S
C653 N661 1.427 . S
C654 H645 0.930 . S
C654 C652 1.378 . S
C654 C655 1.367 . S
C655 C654 1.367 . S
C655 C657 1.433 . S
C656 C652 1.350 . S
C656 C653 1.463 . S
C656 N660 1.427 . S
C657 H647 0.929 . S
C657 C655 1.433 . S
C657 N660 1.384 . S
C658 H649 0.929 . S
C658 C650 1.378 . S
C658 C653 1.350 . S
C659 H646 0.929 . S
C659 C651 1.433 . S
C659 N661 1.384 . S
N660 C656 1.427 . S
N660 C657 1.384 . S
N661 C653 1.427 . S
N661 C659 1.384 . S
H662 C668 0.930 . S
H663 C672 0.930 . S
H664 C677 0.929 . S
H665 C675 0.929 . S
H666 C670 0.929 . S
H667 C676 0.929 . S
C668 H662 0.930 . S
C668 C669 1.367 . S
C668 C676 1.378 . S
C669 C668 1.367 . S
C669 C677 1.433 . S
C670 H666 0.929 . S
C670 C672 1.378 . S
C670 C674 1.350 . S
C671 C674 1.463 . S
C671 C676 1.350 . S
C671 N679 1.427 . S
C672 H663 0.930 . S
C672 C670 1.378 . S
C672 C673 1.367 . S
C673 C672 1.367 . S
C673 C675 1.433 . S
C674 C670 1.350 . S
C674 C671 1.463 . S
C674 N678 1.427 . S
C675 H665 0.929 . S
C675 C673 1.433 . S
C675 N678 1.384 . S
C676 H667 0.929 . S
C676 C668 1.378 . S
C676 C671 1.350 . S
C677 H664 0.929 . S
C677 C669 1.433 . S
C677 N679 1.384 . S
N678 C674 1.427 . S
N678 C675 1.384 . S
N679 C671 1.427 . S
N679 C677 1.384 . S
H680 C686 0.930 . S
H681 C690 0.930 . S
H682 C695 0.929 . S
H683 C693 0.929 . S
H684 C688 0.929 . S
H685 C694 0.929 . S
C686 H680 0.930 . S
C686 C687 1.367 . S
C686 C694 1.378 . S
C687 C686 1.367 . S
C687 C695 1.433 . S
C688 H684 0.929 . S
C688 C690 1.378 . S
C688 C692 1.350 . S
C689 C692 1.463 . S
C689 C694 1.350 . S
C689 N697 1.427 . S
C690 H681 0.930 . S
C690 C688 1.378 . S
C690 C691 1.367 . S
C691 C690 1.367 . S
C691 C693 1.433 . S
C692 C688 1.350 . S
C692 C689 1.463 . S
C692 N696 1.427 . S
C693 H683 0.929 . S
C693 C691 1.433 . S
C693 N696 1.384 . S
C694 H685 0.929 . S
C694 C686 1.378 . S
C694 C689 1.350 . S
C695 H682 0.929 . S
C695 C687 1.433 . S
C695 N697 1.384 . S
N696 C692 1.427 . S
N696 C693 1.384 . S
N697 C689 1.427 . S
N697 C695 1.384 . S
H698 C704 0.930 . S
H699 C708 0.930 . S
H700 C713 0.929 . S
H701 C711 0.929 . S
H702 C706 0.929 . S
H703 C712 0.929 . S
C704 H698 0.930 . S
C704 C705 1.367 1_455 S
C704 C712 1.378 . S
C705 C704 1.367 1_655 S
C705 C713 1.433 . S
C706 H702 0.929 . S
C706 C708 1.378 . S
C706 C710 1.350 . S
C707 C710 1.463 . S
C707 C712 1.350 1_655 S
C707 N715 1.427 . S
C708 H699 0.930 . S
C708 C706 1.378 . S
C708 C709 1.367 . S
C709 C708 1.367 . S
C709 C711 1.433 1_655 S
C710 C706 1.350 . S
C710 C707 1.463 . S
C710 N714 1.427 1_655 S
C711 H701 0.929 . S
C711 C709 1.433 1_455 S
C711 N714 1.384 . S
C712 H703 0.929 . S
C712 C704 1.378 . S
C712 C707 1.350 1_455 S
C713 H700 0.929 . S
C713 C705 1.433 . S
C713 N715 1.384 . S
N714 C710 1.427 1_455 S
N714 C711 1.384 . S
N715 C707 1.427 . S
N715 C713 1.384 . S
H716 C722 0.930 . S
H717 C726 0.930 . S
H718 C731 0.929 . S
H719 C729 0.929 . S
H720 C724 0.929 . S
H721 C730 0.929 . S
C722 H716 0.930 . S
C722 C723 1.367 . S
C722 C730 1.378 . S
C723 C722 1.367 . S
C723 C731 1.433 . S
C724 H720 0.929 . S
C724 C726 1.378 . S
C724 C728 1.350 . S
C725 C728 1.463 . S
C725 C730 1.350 . S
C725 N733 1.427 . S
C726 H717 0.930 . S
C726 C724 1.378 . S
C726 C727 1.367 . S
C727 C726 1.367 . S
C727 C729 1.433 . S
C728 C724 1.350 . S
C728 C725 1.463 . S
C728 N732 1.427 . S
C729 H719 0.929 . S
C729 C727 1.433 . S
C729 N732 1.384 . S
C730 H721 0.929 . S
C730 C722 1.378 . S
C730 C725 1.350 . S
C731 H718 0.929 . S
C731 C723 1.433 . S
C731 N733 1.384 . S
N732 C728 1.427 . S
N732 C729 1.384 . S
N733 C725 1.427 . S
N733 C731 1.384 . S
H734 C740 0.930 . S
H735 C744 0.930 . S
H736 C749 0.929 . S
H737 C747 0.929 . S
H738 C742 0.929 . S
H739 C748 0.929 . S
C740 H734 0.930 . S
C740 C741 1.367 . S
C740 C748 1.378 . S
C741 C740 1.367 . S
C741 C749 1.433 . S
C742 H738 0.929 . S
C742 C744 1.378 . S
C742 C746 1.350 . S
C743 C746 1.463 . S
C743 C748 1.350 . S
C743 N751 1.427 . S
C744 H735 0.930 . S
C744 C742 1.378 . S
C744 C745 1.367 . S
C745 C744 1.367 . S
C745 C747 1.433 . S
C746 C742 1.350 . S
C746 C743 1.463 . S
C746 N750 1.427 . S
C747 H737 0.929 . S
C747 C745 1.433 . S
C747 N750 1.384 . S
C748 H739 0.929 . S
C748 C740 1.378 . S
C748 C743 1.350 . S
C749 H736 0.929 . S
C749 C741 1.433 . S
C749 N751 1.384 . S
N750 C746 1.427 . S
N750 C747 1.384 . S
N751 C743 1.427 . S
N751 C749 1.384 . S
H752 C758 0.930 . S
H753 C762 0.930 . S
H754 C767 0.929 . S
H755 C765 0.929 . S
H756 C760 0.929 . S
H757 C766 0.929 . S
C758 H752 0.930 . S
C758 C759 1.367 . S
C758 C766 1.378 . S
C759 C758 1.367 . S
C759 C767 1.433 . S
C760 H756 0.929 . S
C760 C762 1.378 . S
C760 C764 1.350 . S
C761 C764 1.463 . S
C761 C766 1.350 . S
C761 N769 1.427 . S
C762 H753 0.930 . S
C762 C760 1.378 . S
C762 C763 1.367 . S
C763 C762 1.367 . S
C763 C765 1.433 . S
C764 C760 1.350 . S
C764 C761 1.463 . S
C764 N768 1.427 . S
C765 H755 0.929 . S
C765 C763 1.433 . S
C765 N768 1.384 . S
C766 H757 0.929 . S
C766 C758 1.378 . S
C766 C761 1.350 . S
C767 H754 0.929 . S
C767 C759 1.433 . S
C767 N769 1.384 . S
N768 C764 1.427 . S
N768 C765 1.384 . S
N769 C761 1.427 . S
N769 C767 1.384 . S
H770 C776 0.930 . S
H771 C780 0.930 . S
H772 C785 0.929 . S
H773 C783 0.929 . S
H774 C778 0.929 . S
H775 C784 0.929 . S
C776 H770 0.930 . S
C776 C777 1.367 . S
C776 C784 1.378 . S
C777 C776 1.367 . S
C777 C785 1.433 . S
C778 H774 0.929 . S
C778 C780 1.378 . S
C778 C782 1.350 . S
C779 C782 1.463 . S
C779 C784 1.350 . S
C779 N787 1.427 . S
C780 H771 0.930 . S
C780 C778 1.378 . S
C780 C781 1.367 . S
C781 C780 1.367 . S
C781 C783 1.433 . S
C782 C778 1.350 . S
C782 C779 1.463 . S
C782 N786 1.427 . S
C783 H773 0.929 . S
C783 C781 1.433 . S
C783 N786 1.384 . S
C784 H775 0.929 . S
C784 C776 1.378 . S
C784 C779 1.350 . S
C785 H772 0.929 . S
C785 C777 1.433 . S
C785 N787 1.384 . S
N786 C782 1.427 . S
N786 C783 1.384 . S
N787 C779 1.427 . S
N787 C785 1.384 . S
H788 C794 0.930 . S
H789 C798 0.930 . S
H790 C803 0.929 . S
H791 C801 0.929 . S
H792 C796 0.929 . S
H793 C802 0.929 . S
C794 H788 0.930 . S
C794 C795 1.367 . S
C794 C802 1.378 . S
C795 C794 1.367 . S
C795 C803 1.433 . S
C796 H792 0.929 . S
C796 C798 1.378 . S
C796 C800 1.350 . S
C797 C800 1.463 . S
C797 C802 1.350 . S
C797 N805 1.427 . S
C798 H789 0.930 . S
C798 C796 1.378 . S
C798 C799 1.367 . S
C799 C798 1.367 . S
C799 C801 1.433 . S
C800 C796 1.350 . S
C800 C797 1.463 . S
C800 N804 1.427 . S
C801 H791 0.929 . S
C801 C799 1.433 . S
C801 N804 1.384 . S
C802 H793 0.929 . S
C802 C794 1.378 . S
C802 C797 1.350 . S
C803 H790 0.929 . S
C803 C795 1.433 . S
C803 N805 1.384 . S
N804 C800 1.427 . S
N804 C801 1.384 . S
N805 C797 1.427 . S
N805 C803 1.384 . S
H806 C812 0.930 . S
H807 C816 0.930 . S
H808 C821 0.929 . S
H809 C819 0.929 . S
H810 C814 0.929 . S
H811 C820 0.929 . S
C812 H806 0.930 . S
C812 C813 1.367 1_556 S
C812 C820 1.378 . S
C813 C812 1.367 1_554 S
C813 C821 1.433 . S
C814 H810 0.929 . S
C814 C816 1.378 . S
C814 C818 1.350 . S
C815 C818 1.463 . S
C815 C820 1.350 1_554 S
C815 N823 1.427 . S
C816 H807 0.930 . S
C816 C814 1.378 . S
C816 C817 1.367 . S
C817 C816 1.367 . S
C817 C819 1.433 1_554 S
C818 C814 1.350 . S
C818 C815 1.463 . S
C818 N822 1.427 1_554 S
C819 H809 0.929 . S
C819 C817 1.433 1_556 S
C819 N822 1.384 . S
C820 H811 0.929 . S
C820 C812 1.378 . S
C820 C815 1.350 1_556 S
C821 H808 0.929 . S
C821 C813 1.433 . S
C821 N823 1.384 . S
N822 C818 1.427 1_556 S
N822 C819 1.384 . S
N823 C815 1.427 . S
N823 C821 1.384 . S
H824 C830 0.930 . S
H825 C834 0.930 . S
H826 C839 0.929 . S
H827 C837 0.929 . S
H828 C832 0.929 . S
H829 C838 0.929 . S
C830 H824 0.930 . S
C830 C831 1.367 . S
C830 C838 1.378 . S
C831 C830 1.367 . S
C831 C839 1.433 . S
C832 H828 0.929 . S
C832 C834 1.378 . S
C832 C836 1.350 . S
C833 C836 1.463 . S
C833 C838 1.350 . S
C833 N841 1.427 . S
C834 H825 0.930 . S
C834 C832 1.378 . S
C834 C835 1.367 . S
C835 C834 1.367 . S
C835 C837 1.433 . S
C836 C832 1.350 . S
C836 C833 1.463 . S
C836 N840 1.427 . S
C837 H827 0.929 . S
C837 C835 1.433 . S
C837 N840 1.384 . S
C838 H829 0.929 . S
C838 C830 1.378 . S
C838 C833 1.350 . S
C839 H826 0.929 . S
C839 C831 1.433 . S
C839 N841 1.384 . S
N840 C836 1.427 . S
N840 C837 1.384 . S
N841 C833 1.427 . S
N841 C839 1.384 . S
H842 C848 0.930 . S
H843 C852 0.930 . S
H844 C857 0.929 . S
H845 C855 0.929 . S
H846 C850 0.929 . S
H847 C856 0.929 . S
C848 H842 0.930 . S
C848 C849 1.367 . S
C848 C856 1.378 . S
C849 C848 1.367 . S
C849 C857 1.433 . S
C850 H846 0.929 . S
C850 C852 1.378 . S
C850 C854 1.350 . S
C851 C854 1.463 . S
C851 C856 1.350 . S
C851 N859 1.427 . S
C852 H843 0.930 . S
C852 C850 1.378 . S
C852 C853 1.367 . S
C853 C852 1.367 . S
C853 C855 1.433 . S
C854 C850 1.350 . S
C854 C851 1.463 . S
C854 N858 1.427 . S
C855 H845 0.929 . S
C855 C853 1.433 . S
C855 N858 1.384 . S
C856 H847 0.929 . S
C856 C848 1.378 . S
C856 C851 1.350 . S
C857 H844 0.929 . S
C857 C849 1.433 . S
C857 N859 1.384 . S
N858 C854 1.427 . S
N858 C855 1.384 . S
N859 C851 1.427 . S
N859 C857 1.384 . S
H860 C866 0.930 . S
H861 C870 0.930 . S
H862 C875 0.929 . S
H863 C873 0.929 . S
H864 C868 0.929 . S
H865 C874 0.929 . S
C866 H860 0.930 . S
C866 C867 1.367 . S
C866 C874 1.378 . S
C867 C866 1.367 . S
C867 C875 1.433 . S
C868 H864 0.929 . S
C868 C870 1.378 . S
C868 C872 1.350 . S
C869 C872 1.463 . S
C869 C874 1.350 . S
C869 N877 1.427 . S
C870 H861 0.930 . S
C870 C868 1.378 . S
C870 C871 1.367 . S
C871 C870 1.367 . S
C871 C873 1.433 . S
C872 C868 1.350 . S
C872 C869 1.463 . S
C872 N876 1.427 . S
C873 H863 0.929 . S
C873 C871 1.433 . S
C873 N876 1.384 . S
C874 H865 0.929 . S
C874 C866 1.378 . S
C874 C869 1.350 . S
C875 H862 0.929 . S
C875 C867 1.433 . S
C875 N877 1.384 . S
N876 C872 1.427 . S
N876 C873 1.384 . S
N877 C869 1.427 . S
N877 C875 1.384 . S
H878 C884 0.930 . S
H879 C888 0.930 . S
H880 C893 0.929 . S
H881 C891 0.929 . S
H882 C886 0.929 . S
H883 C892 0.929 . S
C884 H878 0.930 . S
C884 C885 1.367 . S
C884 C892 1.378 . S
C885 C884 1.367 . S
C885 C893 1.433 . S
C886 H882 0.929 . S
C886 C888 1.378 . S
C886 C890 1.350 . S
C887 C890 1.463 . S
C887 C892 1.350 . S
C887 N895 1.427 . S
C888 H879 0.930 . S
C888 C886 1.378 . S
C888 C889 1.367 . S
C889 C888 1.367 . S
C889 C891 1.433 . S
C890 C886 1.350 . S
C890 C887 1.463 . S
C890 N894 1.427 . S
C891 H881 0.929 . S
C891 C889 1.433 . S
C891 N894 1.384 . S
C892 H883 0.929 . S
C892 C884 1.378 . S
C892 C887 1.350 . S
C893 H880 0.929 . S
C893 C885 1.433 . S
C893 N895 1.384 . S
N894 C890 1.427 . S
N894 C891 1.384 . S
N895 C887 1.427 . S
N895 C893 1.384 . S
H896 C902 0.930 . S
H897 C906 0.930 . S
H898 C911 0.929 . S
H899 C909 0.929 . S
H900 C904 0.929 . S
H901 C910 0.929 . S
C902 H896 0.930 . S
C902 C903 1.367 . S
C902 C910 1.378 . S
C903 C902 1.367 . S
C903 C911 1.433 . S
C904 H900 0.929 . S
C904 C906 1.378 . S
C904 C908 1.350 . S
C905 C908 1.463 . S
C905 C910 1.350 . S
C905 N913 1.427 . S
C906 H897 0.930 . S
C906 C904 1.378 . S
C906 C907 1.367 . S
C907 C906 1.367 . S
C907 C909 1.433 . S
C908 C904 1.350 . S
C908 C905 1.463 . S
C908 N912 1.427 . S
C909 H899 0.929 . S
C909 C907 1.433 . S
C909 N912 1.384 . S
C910 H901 0.929 . S
C910 C902 1.378 . S
C910 C905 1.350 . S
C911 H898 0.929 . S
C911 C903 1.433 . S
C911 N913 1.384 . S
N912 C908 1.427 . S
N912 C909 1.384 . S
N913 C905 1.427 . S
N913 C911 1.384 . S
H914 C920 0.930 . S
H915 C924 0.930 . S
H916 C929 0.929 . S
H917 C927 0.929 . S
H918 C922 0.929 . S
H919 C928 0.929 . S
C920 H914 0.930 . S
C920 C921 1.367 . S
C920 C928 1.378 . S
C921 C920 1.367 . S
C921 C929 1.433 . S
C922 H918 0.929 . S
C922 C924 1.378 . S
C922 C926 1.350 . S
C923 C926 1.463 . S
C923 C928 1.350 . S
C923 N931 1.427 . S
C924 H915 0.930 . S
C924 C922 1.378 . S
C924 C925 1.367 . S
C925 C924 1.367 . S
C925 C927 1.433 . S
C926 C922 1.350 . S
C926 C923 1.463 . S
C926 N930 1.427 . S
C927 H917 0.929 . S
C927 C925 1.433 . S
C927 N930 1.384 . S
C928 H919 0.929 . S
C928 C920 1.378 . S
C928 C923 1.350 . S
C929 H916 0.929 . S
C929 C921 1.433 . S
C929 N931 1.384 . S
N930 C926 1.427 . S
N930 C927 1.384 . S
N931 C923 1.427 . S
N931 C929 1.384 . S
H932 C938 0.930 . S
H933 C942 0.930 . S
H934 C947 0.929 . S
H935 C945 0.929 . S
H936 C940 0.929 . S
H937 C946 0.929 . S
C938 H932 0.930 . S
C938 C939 1.367 . S
C938 C946 1.378 . S
C939 C938 1.367 . S
C939 C947 1.433 . S
C940 H936 0.929 . S
C940 C942 1.378 . S
C940 C944 1.350 . S
C941 C944 1.463 . S
C941 C946 1.350 . S
C941 N949 1.427 . S
C942 H933 0.930 . S
C942 C940 1.378 . S
C942 C943 1.367 . S
C943 C942 1.367 . S
C943 C945 1.433 . S
C944 C940 1.350 . S
C944 C941 1.463 . S
C944 N948 1.427 . S
C945 H935 0.929 . S
C945 C943 1.433 . S
C945 N948 1.384 . S
C946 H937 0.929 . S
C946 C938 1.378 . S
C946 C941 1.350 . S
C947 H934 0.929 . S
C947 C939 1.433 . S
C947 N949 1.384 . S
N948 C944 1.427 . S
N948 C945 1.384 . S
N949 C941 1.427 . S
N949 C947 1.384 . S
H950 C956 0.930 . S
H951 C960 0.930 . S
H952 C965 0.929 . S
H953 C963 0.929 . S
H954 C958 0.929 . S
H955 C964 0.929 . S
C956 H950 0.930 . S
C956 C957 1.367 . S
C956 C964 1.378 . S
C957 C956 1.367 . S
C957 C965 1.433 . S
C958 H954 0.929 . S
C958 C960 1.378 . S
C958 C962 1.350 . S
C959 C962 1.463 . S
C959 C964 1.350 . S
C959 N967 1.427 . S
C960 H951 0.930 . S
C960 C958 1.378 . S
C960 C961 1.367 . S
C961 C960 1.367 . S
C961 C963 1.433 . S
C962 C958 1.350 . S
C962 C959 1.463 . S
C962 N966 1.427 . S
C963 H953 0.929 . S
C963 C961 1.433 . S
C963 N966 1.384 . S
C964 H955 0.929 . S
C964 C956 1.378 . S
C964 C959 1.350 . S
C965 H952 0.929 . S
C965 C957 1.433 . S
C965 N967 1.384 . S
N966 C962 1.427 . S
N966 C963 1.384 . S
N967 C959 1.427 . S
N967 C965 1.384 . S
H968 C974 0.930 . S
H969 C978 0.930 . S
H970 C983 0.929 . S
H971 C981 0.929 . S
H972 C976 0.929 . S
H973 C982 0.929 . S
C974 H968 0.930 . S
C974 C975 1.367 . S
C974 C982 1.378 . S
C975 C974 1.367 . S
C975 C983 1.433 . S
C976 H972 0.929 . S
C976 C978 1.378 . S
C976 C980 1.350 . S
C977 C980 1.463 . S
C977 C982 1.350 . S
C977 N985 1.427 . S
C978 H969 0.930 . S
C978 C976 1.378 . S
C978 C979 1.367 . S
C979 C978 1.367 . S
C979 C981 1.433 . S
C980 C976 1.350 . S
C980 C977 1.463 . S
C980 N984 1.427 . S
C981 H971 0.929 . S
C981 C979 1.433 . S
C981 N984 1.384 . S
C982 H973 0.929 . S
C982 C974 1.378 . S
C982 C977 1.350 . S
C983 H970 0.929 . S
C983 C975 1.433 . S
C983 N985 1.384 . S
N984 C980 1.427 . S
N984 C981 1.384 . S
N985 C977 1.427 . S
N985 C983 1.384 . S
H986 C992 0.930 . S
H987 C996 0.930 . S
H988 C1001 0.929 . S
H989 C999 0.929 . S
H990 C994 0.929 . S
H991 C1000 0.929 . S
C992 H986 0.930 . S
C992 C993 1.367 . S
C992 C1000 1.378 . S
C993 C992 1.367 . S
C993 C1001 1.433 1_554 S
C994 H990 0.929 . S
C994 C996 1.378 . S
C994 C998 1.350 1_556 S
C995 C998 1.463 . S
C995 C1000 1.350 . S
C995 N1003 1.427 1_554 S
C996 H987 0.930 . S
C996 C994 1.378 . S
C996 C997 1.367 1_556 S
C997 C996 1.367 1_554 S
C997 C999 1.433 . S
C998 C994 1.350 1_554 S
C998 C995 1.463 . S
C998 N1002 1.427 . S
C999 H989 0.929 . S
C999 C997 1.433 . S
C999 N1002 1.384 . S
C1000 H991 0.929 . S
C1000 C992 1.378 . S
C1000 C995 1.350 . S
C1001 H988 0.929 . S
C1001 C993 1.433 1_556 S
C1001 N1003 1.384 . S
N1002 C998 1.427 . S
N1002 C999 1.384 . S
N1003 C995 1.427 1_556 S
N1003 C1001 1.384 . S
H1004 C1010 0.930 . S
H1005 C1014 0.930 . S
H1006 C1019 0.929 . S
H1007 C1017 0.929 . S
H1008 C1012 0.929 . S
H1009 C1018 0.929 . S
C1010 H1004 0.930 . S
C1010 C1011 1.367 . S
C1010 C1018 1.378 . S
C1011 C1010 1.367 . S
C1011 C1019 1.433 . S
C1012 H1008 0.929 . S
C1012 C1014 1.378 . S
C1012 C1016 1.350 . S
C1013 C1016 1.463 . S
C1013 C1018 1.350 . S
C1013 N1021 1.427 . S
C1014 H1005 0.930 . S
C1014 C1012 1.378 . S
C1014 C1015 1.367 . S
C1015 C1014 1.367 . S
C1015 C1017 1.433 . S
C1016 C1012 1.350 . S
C1016 C1013 1.463 . S
C1016 N1020 1.427 . S
C1017 H1007 0.929 . S
C1017 C1015 1.433 . S
C1017 N1020 1.384 . S
C1018 H1009 0.929 . S
C1018 C1010 1.378 . S
C1018 C1013 1.350 . S
C1019 H1006 0.929 . S
C1019 C1011 1.433 . S
C1019 N1021 1.384 . S
N1020 C1016 1.427 . S
N1020 C1017 1.384 . S
N1021 C1013 1.427 . S
N1021 C1019 1.384 . S
H1022 C1028 0.930 . S
H1023 C1032 0.930 . S
H1024 C1037 0.929 . S
H1025 C1035 0.929 . S
H1026 C1030 0.929 . S
H1027 C1036 0.929 . S
C1028 H1022 0.930 . S
C1028 C1029 1.367 . S
C1028 C1036 1.378 . S
C1029 C1028 1.367 . S
C1029 C1037 1.433 . S
C1030 H1026 0.929 . S
C1030 C1032 1.378 . S
C1030 C1034 1.350 . S
C1031 C1034 1.463 . S
C1031 C1036 1.350 . S
C1031 N1039 1.427 . S
C1032 H1023 0.930 . S
C1032 C1030 1.378 . S
C1032 C1033 1.367 . S
C1033 C1032 1.367 . S
C1033 C1035 1.433 . S
C1034 C1030 1.350 . S
C1034 C1031 1.463 . S
C1034 N1038 1.427 . S
C1035 H1025 0.929 . S
C1035 C1033 1.433 . S
C1035 N1038 1.384 . S
C1036 H1027 0.929 . S
C1036 C1028 1.378 . S
C1036 C1031 1.350 . S
C1037 H1024 0.929 . S
C1037 C1029 1.433 . S
C1037 N1039 1.384 . S
N1038 C1034 1.427 . S
N1038 C1035 1.384 . S
N1039 C1031 1.427 . S
N1039 C1037 1.384 . S
H1040 C1046 0.930 . S
H1041 C1050 0.930 . S
H1042 C1055 0.929 . S
H1043 C1053 0.929 . S
H1044 C1048 0.929 . S
H1045 C1054 0.929 . S
C1046 H1040 0.930 . S
C1046 C1047 1.367 . S
C1046 C1054 1.378 . S
C1047 C1046 1.367 . S
C1047 C1055 1.433 . S
C1048 H1044 0.929 . S
C1048 C1050 1.378 . S
C1048 C1052 1.350 . S
C1049 C1052 1.463 . S
C1049 C1054 1.350 . S
C1049 N1057 1.427 . S
C1050 H1041 0.930 . S
C1050 C1048 1.378 . S
C1050 C1051 1.367 . S
C1051 C1050 1.367 . S
C1051 C1053 1.433 . S
C1052 C1048 1.350 . S
C1052 C1049 1.463 . S
C1052 N1056 1.427 . S
C1053 H1043 0.929 . S
C1053 C1051 1.433 . S
C1053 N1056 1.384 . S
C1054 H1045 0.929 . S
C1054 C1046 1.378 . S
C1054 C1049 1.350 . S
C1055 H1042 0.929 . S
C1055 C1047 1.433 . S
C1055 N1057 1.384 . S
N1056 C1052 1.427 . S
N1056 C1053 1.384 . S
N1057 C1049 1.427 . S
N1057 C1055 1.384 . S
H1058 C1064 0.930 . S
H1059 C1068 0.930 . S
H1060 C1073 0.929 . S
H1061 C1071 0.929 . S
H1062 C1066 0.929 . S
H1063 C1072 0.929 . S
C1064 H1058 0.930 . S
C1064 C1065 1.367 . S
C1064 C1072 1.378 . S
C1065 C1064 1.367 . S
C1065 C1073 1.433 . S
C1066 H1062 0.929 . S
C1066 C1068 1.378 . S
C1066 C1070 1.350 . S
C1067 C1070 1.463 . S
C1067 C1072 1.350 . S
C1067 N1075 1.427 . S
C1068 H1059 0.930 . S
C1068 C1066 1.378 . S
C1068 C1069 1.367 . S
C1069 C1068 1.367 . S
C1069 C1071 1.433 . S
C1070 C1066 1.350 . S
C1070 C1067 1.463 . S
C1070 N1074 1.427 . S
C1071 H1061 0.929 . S
C1071 C1069 1.433 . S
C1071 N1074 1.384 . S
C1072 H1063 0.929 . S
C1072 C1064 1.378 . S
C1072 C1067 1.350 . S
C1073 H1060 0.929 . S
C1073 C1065 1.433 . S
C1073 N1075 1.384 . S
N1074 C1070 1.427 . S
N1074 C1071 1.384 . S
N1075 C1067 1.427 . S
N1075 C1073 1.384 . S
H1076 C1082 0.930 . S
H1077 C1086 0.930 . S
H1078 C1091 0.929 . S
H1079 C1089 0.929 . S
H1080 C1084 0.929 . S
H1081 C1090 0.929 . S
C1082 H1076 0.930 . S
C1082 C1083 1.367 1_554 S
C1082 C1090 1.378 . S
C1083 C1082 1.367 1_556 S
C1083 C1091 1.433 . S
C1084 H1080 0.929 . S
C1084 C1086 1.378 . S
C1084 C1088 1.350 . S
C1085 C1088 1.463 . S
C1085 C1090 1.350 1_556 S
C1085 N1093 1.427 . S
C1086 H1077 0.930 . S
C1086 C1084 1.378 . S
C1086 C1087 1.367 . S
C1087 C1086 1.367 . S
C1087 C1089 1.433 1_556 S
C1088 C1084 1.350 . S
C1088 C1085 1.463 . S
C1088 N1092 1.427 1_556 S
C1089 H1079 0.929 . S
C1089 C1087 1.433 1_554 S
C1089 N1092 1.384 . S
C1090 H1081 0.929 . S
C1090 C1082 1.378 . S
C1090 C1085 1.350 1_554 S
C1091 H1078 0.929 . S
C1091 C1083 1.433 . S
C1091 N1093 1.384 . S
N1092 C1088 1.427 1_554 S
N1092 C1089 1.384 . S
N1093 C1085 1.427 . S
N1093 C1091 1.384 . S
H1094 C1100 0.930 . S
H1095 C1104 0.930 . S
H1096 C1109 0.929 . S
H1097 C1107 0.929 . S
H1098 C1102 0.929 . S
H1099 C1108 0.929 . S
C1100 H1094 0.930 . S
C1100 C1101 1.367 . S
C1100 C1108 1.378 . S
C1101 C1100 1.367 . S
C1101 C1109 1.433 . S
C1102 H1098 0.929 . S
C1102 C1104 1.378 . S
C1102 C1106 1.350 . S
C1103 C1106 1.463 . S
C1103 C1108 1.350 . S
C1103 N1111 1.427 . S
C1104 H1095 0.930 . S
C1104 C1102 1.378 . S
C1104 C1105 1.367 . S
C1105 C1104 1.367 . S
C1105 C1107 1.433 . S
C1106 C1102 1.350 . S
C1106 C1103 1.463 . S
C1106 N1110 1.427 . S
C1107 H1097 0.929 . S
C1107 C1105 1.433 . S
C1107 N1110 1.384 . S
C1108 H1099 0.929 . S
C1108 C1100 1.378 . S
C1108 C1103 1.350 . S
C1109 H1096 0.929 . S
C1109 C1101 1.433 . S
C1109 N1111 1.384 . S
N1110 C1106 1.427 . S
N1110 C1107 1.384 . S
N1111 C1103 1.427 . S
N1111 C1109 1.384 . S
H1112 C1118 0.930 . S
H1113 C1122 0.930 . S
H1114 C1127 0.929 . S
H1115 C1125 0.929 . S
H1116 C1120 0.929 . S
H1117 C1126 0.929 . S
C1118 H1112 0.930 . S
C1118 C1119 1.367 . S
C1118 C1126 1.378 . S
C1119 C1118 1.367 . S
C1119 C1127 1.433 . S
C1120 H1116 0.929 . S
C1120 C1122 1.378 . S
C1120 C1124 1.350 . S
C1121 C1124 1.463 . S
C1121 C1126 1.350 . S
C1121 N1129 1.427 . S
C1122 H1113 0.930 . S
C1122 C1120 1.378 . S
C1122 C1123 1.367 . S
C1123 C1122 1.367 . S
C1123 C1125 1.433 . S
C1124 C1120 1.350 . S
C1124 C1121 1.463 . S
C1124 N1128 1.427 . S
C1125 H1115 0.929 . S
C1125 C1123 1.433 . S
C1125 N1128 1.384 . S
C1126 H1117 0.929 . S
C1126 C1118 1.378 . S
C1126 C1121 1.350 . S
C1127 H1114 0.929 . S
C1127 C1119 1.433 . S
C1127 N1129 1.384 . S
N1128 C1124 1.427 . S
N1128 C1125 1.384 . S
N1129 C1121 1.427 . S
N1129 C1127 1.384 . S
H1130 C1136 0.930 . S
H1131 C1140 0.930 . S
H1132 C1145 0.929 . S
H1133 C1143 0.929 . S
H1134 C1138 0.929 . S
H1135 C1144 0.929 . S
C1136 H1130 0.930 . S
C1136 C1137 1.367 . S
C1136 C1144 1.378 . S
C1137 C1136 1.367 . S
C1137 C1145 1.433 . S
C1138 H1134 0.929 . S
C1138 C1140 1.378 . S
C1138 C1142 1.350 . S
C1139 C1142 1.463 . S
C1139 C1144 1.350 . S
C1139 N1147 1.427 . S
C1140 H1131 0.930 . S
C1140 C1138 1.378 . S
C1140 C1141 1.367 . S
C1141 C1140 1.367 . S
C1141 C1143 1.433 . S
C1142 C1138 1.350 . S
C1142 C1139 1.463 . S
C1142 N1146 1.427 . S
C1143 H1133 0.929 . S
C1143 C1141 1.433 . S
C1143 N1146 1.384 . S
C1144 H1135 0.929 . S
C1144 C1136 1.378 . S
C1144 C1139 1.350 . S
C1145 H1132 0.929 . S
C1145 C1137 1.433 . S
C1145 N1147 1.384 . S
N1146 C1142 1.427 . S
N1146 C1143 1.384 . S
N1147 C1139 1.427 . S
N1147 C1145 1.384 . S
H1148 C1154 0.930 . S
H1149 C1158 0.930 . S
H1150 C1163 0.929 . S
H1151 C1161 0.929 . S
H1152 C1156 0.929 . S
H1153 C1162 0.929 . S
C1154 H1148 0.930 . S
C1154 C1155 1.367 . S
C1154 C1162 1.378 . S
C1155 C1154 1.367 . S
C1155 C1163 1.433 . S
C1156 H1152 0.929 . S
C1156 C1158 1.378 . S
C1156 C1160 1.350 . S
C1157 C1160 1.463 . S
C1157 C1162 1.350 . S
C1157 N1165 1.427 . S
C1158 H1149 0.930 . S
C1158 C1156 1.378 . S
C1158 C1159 1.367 . S
C1159 C1158 1.367 . S
C1159 C1161 1.433 . S
C1160 C1156 1.350 . S
C1160 C1157 1.463 . S
C1160 N1164 1.427 . S
C1161 H1151 0.929 . S
C1161 C1159 1.433 . S
C1161 N1164 1.384 . S
C1162 H1153 0.929 . S
C1162 C1154 1.378 . S
C1162 C1157 1.350 . S
C1163 H1150 0.929 . S
C1163 C1155 1.433 . S
C1163 N1165 1.384 . S
N1164 C1160 1.427 . S
N1164 C1161 1.384 . S
N1165 C1157 1.427 . S
N1165 C1163 1.384 . S
H1166 C1172 0.930 . S
H1167 C1176 0.930 . S
H1168 C1181 0.929 . S
H1169 C1179 0.929 . S
H1170 C1174 0.929 . S
H1171 C1180 0.929 . S
C1172 H1166 0.930 . S
C1172 C1173 1.367 . S
C1172 C1180 1.378 . S
C1173 C1172 1.367 . S
C1173 C1181 1.433 . S
C1174 H1170 0.929 . S
C1174 C1176 1.378 . S
C1174 C1178 1.350 . S
C1175 C1178 1.463 . S
C1175 C1180 1.350 . S
C1175 N1183 1.427 . S
C1176 H1167 0.930 . S
C1176 C1174 1.378 . S
C1176 C1177 1.367 . S
C1177 C1176 1.367 . S
C1177 C1179 1.433 . S
C1178 C1174 1.350 . S
C1178 C1175 1.463 . S
C1178 N1182 1.427 . S
C1179 H1169 0.929 . S
C1179 C1177 1.433 . S
C1179 N1182 1.384 . S
C1180 H1171 0.929 . S
C1180 C1172 1.378 . S
C1180 C1175 1.350 . S
C1181 H1168 0.929 . S
C1181 C1173 1.433 . S
C1181 N1183 1.384 . S
N1182 C1178 1.427 . S
N1182 C1179 1.384 . S
N1183 C1175 1.427 . S
N1183 C1181 1.384 . S
C327 C2 0.793 . S
C331 C24 0.776 . S
C345 C42 0.787 . S
C349 C29 0.766 . S
C363 C64 1.034 . S
C367 C59 1.078 . S
C381 C19 0.795 . S
C385 C69 0.795 . S
C399 C18 0.762 . S
C403 C192 0.761 . S
C417 C144 0.681 . S
C421 C22 0.641 . S
C435 C44 0.882 . S
C439 C212 0.911 . S
C453 C62 1.139 . S
C457 C264 1.076 . S
C471 C178 0.766 . S
C475 C32 0.749 . S
C489 C242 1.264 . S
C493 C58 1.320 . S
C507 C284 0.881 1_565 S
C511 C72 0.911 . S
C525 C4 0.744 . S
C529 C222 0.762 . S
C543 C9 0.544 . S
C547 C169 0.582 . S
C561 C259 1.857 . S
C565 C99 1.857 . S
C579 C112 0.604 . S
C583 C289 0.642 . S
C597 C239 1.565 . S
C601 C139 1.563 . S
C615 C49 0.625 . S
C619 C152 0.615 . S
C633 C198 1.615 . S
C637 C98 1.615 . S
C651 C138 1.673 . S
C655 C218 1.672 . S
C669 C118 1.170 . S
C673 C232 1.171 . S
C687 C182 0.674 . S
C691 C104 0.654 . S
C705 C224 0.775 . S
C709 C142 0.805 . S
C723 C119 1.398 . S
C727 C89 1.394 . S
C741 C184 0.797 . S
C745 C162 0.755 . S
C759 C279 1.170 . S
C763 C229 1.164 . S
C777 C124 0.775 . S
C781 C102 0.806 . S
C795 C189 0.791 . S
C799 C282 0.772 . S
C813 C272 0.574 . S
C817 C12 0.601 . S
C831 C52 0.618 . S
C835 C292 0.632 . S
C849 C258 1.614 . S
C853 C38 1.614 . S
C867 C149 0.584 . S
C871 C109 0.605 . S
C885 C79 1.660 . S
C889 C219 1.660 . S
C903 C244 1.089 . S
C907 C262 1.073 . S
C921 C159 1.403 . S
C925 C249 1.388 . S
C939 C132 1.170 . S
C943 C158 1.174 . S
C957 C92 1.181 . S
C961 C278 1.200 . S
C975 C252 1.176 . S
C979 C318 1.202 . S
C993 C312 0.612 . S
C997 C172 0.571 . S
C1011 C39 1.495 . S
C1015 C199 1.494 . S
C1029 C164 0.754 . S
C1033 C122 0.749 . S
C1047 C179 0.797 . S
C1051 C209 0.796 . S
C1065 C319 1.176 . S
C1069 C129 1.150 . S
C1083 C269 0.616 1_556 S
C1087 C309 0.642 1_556 S
C1101 C238 1.673 . S
C1105 C78 1.674 1_565 S
C1119 C204 1.007 . S
C1123 C299 1.081 . S
C1137 C202 1.136 . S
C1141 C304 1.086 . S
C1155 C82 1.255 . S
C1159 C298 1.322 . S
C1173 C302 1.051 . S
C1177 C84 1.108 . S
