# Generated by pormake.
# Topology bsn, (6)-cn, num edge types: 1
# Building blocks:
#     Node 0, Type 0, BuildingBlock: BETDEL_clean_sbu_0, # of connection points: 6
#     Node 1, Type 0, BuildingBlock: BETDEL_clean_sbu_0, # of connection points: 6
#     Node 2, Type 0, BuildingBlock: BETDEL_clean_sbu_0, # of connection points: 6
#     Node 3, Type 0, BuildingBlock: BETDEL_clean_sbu_0, # of connection points: 6
#     Edge 4, Type (0, 0), BuildingBlock: KIFKEQ_clean_linker_1, # of connection points: 2
#     Edge 5, Type (0, 0), BuildingBlock: KIFKEQ_clean_linker_1, # of connection points: 2
#     Edge 6, Type (0, 0), BuildingBlock: KIFKEQ_clean_linker_1, # of connection points: 2
#     Edge 7, Type (0, 0), BuildingBlock: KIFKEQ_clean_linker_1, # of connection points: 2
#     Edge 8, Type (0, 0), BuildingBlock: KIFKEQ_clean_linker_1, # of connection points: 2
#     Edge 9, Type (0, 0), BuildingBlock: KIFKEQ_clean_linker_1, # of connection points: 2
#     Edge 10, Type (0, 0), BuildingBlock: KIFKEQ_clean_linker_1, # of connection points: 2
#     Edge 11, Type (0, 0), BuildingBlock: KIFKEQ_clean_linker_1, # of connection points: 2
#     Edge 12, Type (0, 0), BuildingBlock: KIFKEQ_clean_linker_1, # of connection points: 2
#     Edge 13, Type (0, 0), BuildingBlock: KIFKEQ_clean_linker_1, # of connection points: 2
#     Edge 14, Type (0, 0), BuildingBlock: KIFKEQ_clean_linker_1, # of connection points: 2
#     Edge 15, Type (0, 0), BuildingBlock: KIFKEQ_clean_linker_1, # of connection points: 2
# Relax obj value: 0.363
# Max RMSD: 0.268
# Mean RMSD: 0.267
data_MOF--net-bsn--node1-BETDEL_clean_sbu_0--edge1-KIFKEQ_clean_linker_1
_symmetry_space_group_name_H-M    P1
_symmetry_Int_Tables_number       1
_symmetry_cell_setting            triclinic
loop_
_symmetry_equiv_pos_as_xyz
'x, y, z'
_cell_length_a     33.074703
_cell_length_b     33.129309
_cell_length_c     14.662749
_cell_angle_alpha  94.031381
_cell_angle_beta   91.258416
_cell_angle_gamma 89.760914
loop_
_atom_site_label
_atom_site_type_symbol
_atom_site_fract_x
_atom_site_fract_y
_atom_site_fract_z
_atom_type_partial_charge
Dy0 Dy 0.0639 0.26109 0.33797 0.0
C1 C 0.89136 0.2578 0.36759 0.0
C2 C 0.14097 0.26682 0.27594 0.0
Dy3 Dy 0.97327 0.26541 0.35605 0.0
O4 O 0.12898 0.2808 0.35576 0.0
O5 O 0.11099 0.24943 0.23044 0.0
O6 O 0.07265 0.23503 0.47365 0.0
O7 O 0.02416 0.27517 0.45287 0.0
C8 C 0.04015 0.2518 0.50778 0.0
C9 C 0.99989 0.2762 0.18754 0.0
O10 O 0.98746 0.32832 0.40741 0.0
O11 O 0.05097 0.32856 0.34372 0.0
O12 O 0.91533 0.23162 0.32691 0.0
O13 O 0.91242 0.28763 0.40598 0.0
O14 O 0.96901 0.29464 0.22333 0.0
O15 O 1.01356 0.25123 0.24122 0.0
O16 O 0.04939 0.19477 0.3258 0.0
O17 O 0.98655 0.20218 0.39225 0.0
C18 C 0.02004 0.34781 0.38409 0.0
C19 C 0.01733 0.17935 0.36347 0.0
Dy20 Dy 0.01987 0.81288 0.59371 0.0
C21 C 0.03017 0.64149 0.60778 0.0
C22 C 0.01728 0.88917 0.53351 0.0
Dy23 Dy 1.0166 0.72265 0.60467 0.0
O24 O 0.99399 0.87601 0.59502 0.0
O25 O 0.04197 0.86074 0.50506 0.0
O26 O 0.04076 0.82457 0.73876 0.0
O27 O 1.00343 0.7742 0.70186 0.0
C28 C 0.02473 0.79172 0.76529 0.0
C29 C 1.00785 0.74756 0.43522 0.0
O30 O 0.9518 0.73492 0.62936 0.0
O31 O 0.95295 0.79872 0.57299 0.0
O32 O 0.0517 0.66661 0.56577 0.0
O33 O 1.00133 0.66094 0.65151 0.0
O34 O 0.98917 0.71694 0.46412 0.0
O35 O 0.03209 0.76211 0.49629 0.0
O36 O 0.08631 0.79967 0.61014 0.0
O37 O 0.07768 0.73659 0.66506 0.0
C38 C 0.93292 0.76728 0.60144 0.0
C39 C 0.10081 0.76769 0.64976 0.0
Dy40 Dy 0.56405 0.76078 0.83657 0.0
C41 C 0.39132 0.75789 0.8654 0.0
C42 C 0.6411 0.7663 0.77426 0.0
Dy43 Dy 0.47328 0.76501 0.85324 0.0
O44 O 0.62909 0.78086 0.85366 0.0
O45 O 0.61117 0.74849 0.72948 0.0
O46 O 0.57241 0.73425 0.97185 0.0
O47 O 0.52388 0.77423 0.95087 0.0
C48 C 0.53965 0.75067 0.00559 0.0
C49 C 0.50036 0.77661 0.68557 0.0
O50 O 0.48757 0.82773 0.90625 0.0
O51 O 0.55128 0.82827 0.84364 0.0
O52 O 0.41503 0.73174 0.8238 0.0
O53 O 0.41265 0.78744 0.90416 0.0
O54 O 0.46929 0.79478 0.72122 0.0
O55 O 0.51393 0.75145 0.73891 0.0
O56 O 0.54999 0.69443 0.82438 0.0
O57 O 0.486 0.7011 0.88535 0.0
C58 C 0.52024 0.84735 0.88394 0.0
C59 C 0.51726 0.67853 0.85825 0.0
Dy60 Dy 0.52065 0.31324 0.09516 0.0
C61 C 0.52986 0.14149 0.10521 0.0
C62 C 0.518 0.38995 0.03719 0.0
Dy63 Dy 0.51662 0.22281 0.10405 0.0
O64 O 0.50487 0.37952 0.11494 0.0
O65 O 0.53239 0.35848 -0.00891 0.0
O66 O 0.54385 0.32281 0.23887 0.0
O67 O 0.50421 0.27405 0.20233 0.0
C68 C 0.52652 0.29057 0.26528 0.0
C69 C 0.50803 0.24863 0.93572 0.0
O70 O 0.45187 0.23533 0.12934 0.0
O71 O 0.45325 0.30049 0.07993 0.0
O72 O 0.55078 0.16658 0.06174 0.0
O73 O 0.50179 0.16103 0.15136 0.0
O74 O 0.48861 0.21838 0.96424 0.0
O75 O 0.53255 0.26259 -0.00308 0.0
O76 O 0.58711 0.29937 0.10644 0.0
O77 O 0.57833 0.23634 0.16178 0.0
C78 C 0.43315 0.26849 0.10533 0.0
C79 C 0.60165 0.26719 0.14532 0.0
H80 H 0.95885 0.40027 0.42764 0.0
H81 H 0.08894 0.39284 0.41199 0.0
H82 H 0.96404 0.46989 0.49089 0.0
H83 H 0.09441 0.46213 0.47906 0.0
H84 H 0.08429 0.60073 0.50055 0.0
H85 H 0.08322 0.52971 0.44791 0.0
H86 H 0.98277 0.51061 0.62377 0.0
H87 H 0.98281 0.58271 0.67318 0.0
C88 C 0.98862 0.41358 0.43777 0.0
C89 C 0.02348 0.39117 0.4143 0.0
C90 C 0.99164 0.45338 0.47525 0.0
C91 C 0.02967 0.47166 0.49137 0.0
C92 C 0.06458 0.44928 0.46682 0.0
C93 C 0.06149 0.40956 0.42813 0.0
C94 C 0.06232 0.58125 0.52902 0.0
C95 C 0.03342 0.59724 0.59047 0.0
C96 C 0.06181 0.54037 0.49905 0.0
C97 C 0.03262 0.51431 0.5306 0.0
C98 C 1.00509 0.52997 0.59629 0.0
C99 C 1.00536 0.57113 0.62559 0.0
H100 H 0.70338 0.81198 0.84931 0.0
H101 H 0.67206 0.72722 0.62186 0.0
H102 H 0.77272 0.81493 0.7948 0.0
H103 H 0.74145 0.72981 0.56794 0.0
H104 H 0.88079 0.70407 0.60162 0.0
H105 H 0.80887 0.70636 0.63466 0.0
H106 H 0.81255 0.83692 0.65659 0.0
H107 H 0.88483 0.83471 0.62246 0.0
C108 C 0.71133 0.79414 0.7875 0.0
C109 C 0.68254 0.76918 0.74005 0.0
C110 C 0.75086 0.79606 0.75596 0.0
C111 C 0.76242 0.77261 0.67713 0.0
C112 C 0.7334 0.74805 0.62911 0.0
C113 C 0.69375 0.7466 0.6599 0.0
C114 C 0.86617 0.7333 0.61215 0.0
C115 C 0.88846 0.76922 0.60965 0.0
C116 C 0.82495 0.73458 0.6307 0.0
C117 C 0.8052 0.7718 0.64858 0.0
C118 C 0.82716 0.80782 0.64363 0.0
C119 C 0.86838 0.80654 0.62343 0.0
H120 H 0.54725 0.41573 0.8788 0.0
H121 H 0.48759 0.45767 0.12684 0.0
H122 H 0.54661 0.48471 0.82886 0.0
H123 H 0.48733 0.52655 0.07782 0.0
H124 H 0.45503 0.63589 0.92349 0.0
H125 H 0.45487 0.56574 0.96165 0.0
H126 H 0.5776 0.55159 0.8697 0.0
H127 H 0.57773 0.62205 0.83013 0.0
C128 C 0.53403 0.43974 0.92258 0.0
C129 C 0.51738 0.43144 0.00656 0.0
C130 C 0.53386 0.47923 0.89426 0.0
C131 C 0.51682 0.51111 0.94921 0.0
C132 C 0.50016 0.50261 0.03323 0.0
C133 C 0.50048 0.46321 0.06161 0.0
C134 C 0.48199 0.61789 0.91071 0.0
C135 C 0.51652 0.6348 0.87417 0.0
C136 C 0.48193 0.57765 0.93319 0.0
C137 C 0.51636 0.55317 0.91971 0.0
C138 C 0.55051 0.5696 0.88048 0.0
C139 C 0.55061 0.61003 0.85805 0.0
H140 H 0.83796 0.31955 0.40746 0.0
H141 H 0.84576 0.19707 0.28744 0.0
H142 H 0.76694 0.32284 0.35685 0.0
H143 H 0.77555 0.20045 0.23575 0.0
H144 H 0.6397 0.20558 0.22588 0.0
H145 H 0.70753 0.20408 0.2908 0.0
H146 H 0.72846 0.32495 0.20972 0.0
H147 H 0.65943 0.32701 0.14595 0.0
C148 C 0.82426 0.29314 0.37176 0.0
C149 C 0.8472 0.25799 0.35166 0.0
C150 C 0.78384 0.29519 0.34174 0.0
C151 C 0.76568 0.26202 0.29167 0.0
C152 C 0.78842 0.22642 0.27486 0.0
C153 C 0.82868 0.22445 0.3045 0.0
C154 C 0.65859 0.23196 0.22141 0.0
C155 C 0.64406 0.26639 0.18 0.0
C156 C 0.69765 0.23098 0.25865 0.0
C157 C 0.72348 0.26431 0.25532 0.0
C158 C 0.7091 0.29892 0.21425 0.0
C159 C 0.66974 0.29994 0.17682 0.0
H160 H 0.3807 0.20539 0.10194 0.0
H161 H 0.38538 0.33596 0.13124 0.0
H162 H 0.30875 0.20758 0.13454 0.0
H163 H 0.31306 0.33806 0.16476 0.0
H164 H 0.20325 0.31161 0.35359 0.0
H165 H 0.27271 0.31482 0.3002 0.0
H166 H 0.24161 0.23193 0.06911 0.0
H167 H 0.17206 0.22905 0.12203 0.0
C168 C 0.36623 0.2346 0.11434 0.0
C169 C 0.38872 0.27051 0.11432 0.0
C170 C 0.32498 0.23583 0.13258 0.0
C171 C 0.30537 0.27297 0.15252 0.0
C172 C 0.32754 0.30901 0.15018 0.0
C173 C 0.3688 0.30781 0.13037 0.0
C174 C 0.21125 0.29432 0.29109 0.0
C175 C 0.18246 0.26989 0.24218 0.0
C176 C 0.25086 0.29639 0.2602 0.0
C177 C 0.26251 0.27363 0.18051 0.0
C178 C 0.23349 0.24962 0.13099 0.0
C179 C 0.19375 0.248 0.16119 0.0
H180 H 0.33841 0.81985 0.90705 0.0
H181 H 0.34506 0.69739 0.78645 0.0
H182 H 0.26706 0.82341 0.85902 0.0
H183 H 0.27448 0.70101 0.73753 0.0
H184 H 0.1387 0.70661 0.73266 0.0
H185 H 0.20678 0.7051 0.79629 0.0
H186 H 0.22778 0.82545 0.7122 0.0
H187 H 0.15856 0.8275 0.64948 0.0
C188 C 0.3244 0.79351 0.87178 0.0
C189 C 0.3471 0.75828 0.85074 0.0
C190 C 0.28378 0.79571 0.84328 0.0
C191 C 0.26519 0.7626 0.79392 0.0
C192 C 0.28771 0.72693 0.77615 0.0
C193 C 0.32818 0.72482 0.80418 0.0
C194 C 0.15763 0.73289 0.72735 0.0
C195 C 0.14312 0.76714 0.68519 0.0
C196 C 0.19683 0.73191 0.76385 0.0
C197 C 0.22277 0.76505 0.75909 0.0
C198 C 0.20833 0.79956 0.71773 0.0
C199 C 0.16886 0.80058 0.68097 0.0
H200 H 0.58895 0.89285 0.91029 0.0
H201 H 0.45896 0.89935 0.93028 0.0
H202 H 0.59428 0.96223 -0.02318 0.0
H203 H 0.46401 0.96904 -0.0069 0.0
H204 H 0.48331 0.08266 0.17318 0.0
H205 H 0.48339 1.01042 0.12482 0.0
H206 H 0.58216 0.02957 0.94436 0.0
H207 H 0.58311 0.10072 -0.00423 0.0
C208 C 0.56148 0.90935 0.92737 0.0
C209 C 0.52355 0.89068 0.91475 0.0
C210 C 0.56449 0.94914 0.96572 0.0
C211 C 0.52958 0.97132 -0.0088 0.0
C212 C 0.49163 0.95272 -0.02337 0.0
C213 C 0.48868 0.91286 0.93942 0.0
C214 C 0.50552 0.07107 0.12474 0.0
C215 C 0.53307 0.09722 0.08801 0.0
C216 C 0.50532 0.02982 0.09608 0.0
C217 C 0.53243 1.01411 0.02954 0.0
C218 C 0.5611 0.04025 -0.00377 0.0
C219 C 0.56153 0.08122 0.02547 0.0
H220 H 0.95636 0.94421 0.55083 0.0
H221 H 0.07637 0.92695 0.44545 0.0
H222 H 0.95513 1.01286 0.50168 0.0
H223 H 0.07669 0.9966 0.40158 0.0
H224 H 0.05485 0.11546 0.27024 0.0
H225 H 0.05331 0.04429 0.30431 0.0
H226 H 0.9804 0.0762 0.54026 0.0
H227 H 0.98003 0.14617 0.50255 0.0
C228 C 0.98264 0.95538 0.51778 0.0
C229 C 1.0165 0.93049 0.50226 0.0
C230 C 0.98218 0.9949 0.49016 0.0
C231 C 1.01605 1.01087 0.44844 0.0
C232 C 0.04979 0.98549 0.43215 0.0
C233 C 0.04982 0.94561 0.45797 0.0
C234 C 0.03833 0.10696 0.3289 0.0
C235 C 0.01719 0.13621 0.38305 0.0
C236 C 0.03761 0.06621 0.349 0.0
C237 C 1.01647 0.05405 0.42494 0.0
C238 C 0.996 0.0838 0.47967 0.0
C239 C 0.99599 0.12417 0.45842 0.0
H240 H 0.06068 0.23654 0.0948 0.0
H241 H 0.9538 0.30915 0.0569 0.0
H242 H 0.07057 0.23125 0.9303 0.0
H243 H 0.96132 0.30114 0.89265 0.0
H244 H 0.05734 0.19528 0.62809 0.0
H245 H 0.04694 0.20062 0.79277 0.0
H246 H 0.99741 0.32094 0.77218 0.0
H247 H 1.00524 0.31399 0.60758 0.0
C248 C 0.0394 0.25141 0.0512 0.0
C249 C 1.00688 0.2737 0.08857 0.0
C250 C 0.04458 0.24786 0.95665 0.0
C251 C 1.01669 0.26567 0.89744 0.0
C252 C 0.984 0.28775 0.93557 0.0
C253 C 0.97947 0.29214 0.02999 0.0
C254 C 0.04383 0.22257 0.65932 0.0
C255 C 0.03194 0.25414 0.60584 0.0
C256 C 0.03824 0.22591 0.7537 0.0
C257 C 0.02154 0.26136 0.79654 0.0
C258 C 1.00957 0.29284 0.742 0.0
C259 C 1.01421 0.28902 0.64753 0.0
H260 H 0.08025 0.812 0.8983 0.0
H261 H 0.96541 0.7523 0.84864 0.0
H262 H 0.07677 0.80078 0.06037 0.0
H263 H 0.96018 0.74335 0.01137 0.0
H264 H 0.97844 0.69924 0.29287 0.0
H265 H 0.98414 0.70806 0.13102 0.0
H266 H 0.04519 0.82222 0.19498 0.0
H267 H 0.04198 0.81147 0.35748 0.0
C268 C 0.05414 0.79666 0.92264 0.0
C269 C 0.02313 0.78293 0.86172 0.0
C270 C 0.05186 0.79058 0.01558 0.0
C271 C 0.01802 0.77144 0.04972 0.0
C272 C 0.98708 0.75754 -0.01218 0.0
C273 C 0.98988 0.76278 0.89454 0.0
C274 C 0.99308 0.72624 0.27226 0.0
C275 C 1.00973 0.75478 0.33759 0.0
C276 C 0.99609 0.73149 0.17923 0.0
C277 C 1.01501 0.76595 0.14921 0.0
C278 C 0.03109 0.79489 0.21513 0.0
C279 C 0.02887 0.7891 0.30841 0.0
H280 H 0.55804 0.6949 0.12701 0.0
H281 H 0.5037 0.81251 0.10446 0.0
H282 H 0.54788 0.70071 0.29175 0.0
H283 H 0.49614 0.81999 0.26903 0.0
H284 H 0.45357 0.80864 0.55479 0.0
H285 H 0.46082 0.80021 0.39052 0.0
H286 H 0.57129 0.73223 0.42836 0.0
H287 H 0.56167 0.73785 0.59289 0.0
C288 C 0.54405 0.72204 0.15777 0.0
C289 C 0.53147 0.75316 0.10368 0.0
C290 C 0.53862 0.72567 0.25219 0.0
C291 C 0.52141 0.76098 0.29446 0.0
C292 C 0.50872 0.79199 0.23933 0.0
C293 C 0.51321 0.78786 0.14484 0.0
C294 C 0.47946 0.79197 0.52792 0.0
C295 C 0.50728 0.77413 0.58657 0.0
C296 C 0.48383 0.78734 0.43347 0.0
C297 C 0.51677 0.76563 0.39539 0.0
C298 C 0.5451 0.7485 0.45468 0.0
C299 C 0.54007 0.75227 0.54925 0.0
H300 H 0.58474 0.30458 0.39559 0.0
H301 H 0.4639 0.25777 0.35089 0.0
H302 H 0.58092 0.29376 0.55787 0.0
H303 H 0.45842 0.2497 0.51378 0.0
H304 H 0.47195 0.20468 0.79459 0.0
H305 H 0.47813 0.21253 0.63266 0.0
H306 H 0.55326 0.3181 0.69402 0.0
H307 H 0.54983 0.30764 0.85645 0.0
C308 C 0.55728 0.29215 0.42113 0.0
C309 C 0.52467 0.28183 0.36158 0.0
C310 C 0.55481 0.28637 0.51417 0.0
C311 C 0.51922 0.27114 0.54979 0.0
C312 C 0.48665 0.26072 0.48917 0.0
C313 C 0.4896 0.26547 0.39577 0.0
C314 C 0.4898 0.22959 0.77342 0.0
C315 C 0.51016 0.25581 0.83809 0.0
C316 C 0.49308 0.23434 0.68028 0.0
C317 C 0.51601 0.26612 0.64945 0.0
C318 C 0.53588 0.29282 0.7147 0.0
C319 C 0.53342 0.28734 0.80807 0.0
loop_
_geom_bond_atom_site_label_1
_geom_bond_atom_site_label_2
_geom_bond_distance
_geom_bond_site_symmetry_2
_ccdc_geom_bond_type
Dy0 O4 2.398 . S
Dy0 O5 2.491 . S
Dy0 O6 2.403 . S
Dy0 O7 2.664 1_455 S
Dy0 O11 2.326 . S
Dy0 O15 2.310 . S
Dy0 O16 2.351 . S
C1 O12 1.185 . S
C1 O13 1.355 . S
C2 O4 1.185 . S
C2 O5 1.355 . S
Dy3 O7 2.310 . S
Dy3 O10 2.351 . S
Dy3 O12 2.398 . S
Dy3 O13 2.491 . S
Dy3 O14 2.403 . S
Dy3 O15 2.664 1_655 S
Dy3 O17 2.326 . S
O4 Dy0 2.398 . S
O4 C2 1.185 . S
O5 Dy0 2.491 . S
O5 C2 1.355 . S
O6 Dy0 2.403 . S
O6 C8 1.254 . S
O7 Dy0 2.664 1_655 S
O7 Dy3 2.310 . S
O7 C8 1.268 1_655 S
C8 O6 1.254 . S
C8 O7 1.268 1_455 S
C9 O14 1.254 . S
C9 O15 1.268 1_655 S
O10 Dy3 2.351 . S
O10 C18 1.249 1_655 S
O11 Dy0 2.326 . S
O11 C18 1.267 . S
O12 C1 1.185 . S
O12 Dy3 2.398 . S
O13 C1 1.355 . S
O13 Dy3 2.491 . S
O14 Dy3 2.403 . S
O14 C9 1.254 . S
O15 Dy0 2.310 . S
O15 Dy3 2.664 1_455 S
O15 C9 1.268 1_455 S
O16 Dy0 2.351 . S
O16 C19 1.249 1_455 S
O17 Dy3 2.326 . S
O17 C19 1.267 . S
C18 O10 1.249 1_455 S
C18 O11 1.267 . S
C19 O16 1.249 1_655 S
C19 O17 1.267 . S
Dy20 O24 2.398 1_455 S
Dy20 O25 2.491 1_455 S
Dy20 O26 2.403 . S
Dy20 O27 2.664 . S
Dy20 O31 2.326 1_455 S
Dy20 O35 2.310 1_455 S
Dy20 O36 2.351 . S
C21 O32 1.185 . S
C21 O33 1.355 . S
C22 O24 1.185 . S
C22 O25 1.355 . S
Dy23 O27 2.310 1_655 S
Dy23 O30 2.351 . S
Dy23 O32 2.398 1_655 S
Dy23 O33 2.491 1_655 S
Dy23 O34 2.403 . S
Dy23 O35 2.664 . S
Dy23 O37 2.326 1_655 S
O24 Dy20 2.398 1_655 S
O24 C22 1.185 . S
O25 Dy20 2.491 1_655 S
O25 C22 1.355 . S
O26 Dy20 2.403 . S
O26 C28 1.254 . S
O27 Dy20 2.664 . S
O27 Dy23 2.310 1_455 S
O27 C28 1.268 . S
C28 O26 1.254 . S
C28 O27 1.268 . S
C29 O34 1.254 . S
C29 O35 1.268 . S
O30 Dy23 2.351 . S
O30 C38 1.249 . S
O31 Dy20 2.326 1_655 S
O31 C38 1.267 . S
O32 C21 1.185 . S
O32 Dy23 2.398 1_455 S
O33 C21 1.355 . S
O33 Dy23 2.491 1_455 S
O34 Dy23 2.403 . S
O34 C29 1.254 . S
O35 Dy20 2.310 1_655 S
O35 Dy23 2.664 . S
O35 C29 1.268 . S
O36 Dy20 2.351 . S
O36 C39 1.249 . S
O37 Dy23 2.326 1_455 S
O37 C39 1.267 . S
C38 O30 1.249 . S
C38 O31 1.267 . S
C39 O36 1.249 . S
C39 O37 1.267 . S
Dy40 O44 2.398 . S
Dy40 O45 2.491 . S
Dy40 O46 2.403 1_556 S
Dy40 O47 2.664 . S
Dy40 O51 2.326 . S
Dy40 O55 2.310 . S
Dy40 O56 2.351 . S
C41 O52 1.185 . S
C41 O53 1.355 . S
C42 O44 1.185 . S
C42 O45 1.355 . S
Dy43 O47 2.310 . S
Dy43 O50 2.351 . S
Dy43 O52 2.398 . S
Dy43 O53 2.491 . S
Dy43 O54 2.403 . S
Dy43 O55 2.664 . S
Dy43 O57 2.326 . S
O44 Dy40 2.398 . S
O44 C42 1.185 . S
O45 Dy40 2.491 . S
O45 C42 1.355 . S
O46 Dy40 2.403 1_554 S
O46 C48 1.254 . S
O47 Dy40 2.664 . S
O47 Dy43 2.310 . S
O47 C48 1.268 1_556 S
C48 O46 1.254 . S
C48 O47 1.268 1_554 S
C49 O54 1.254 . S
C49 O55 1.268 . S
O50 Dy43 2.351 . S
O50 C58 1.249 . S
O51 Dy40 2.326 . S
O51 C58 1.267 . S
O52 C41 1.185 . S
O52 Dy43 2.398 . S
O53 C41 1.355 . S
O53 Dy43 2.491 . S
O54 Dy43 2.403 . S
O54 C49 1.254 . S
O55 Dy40 2.310 . S
O55 Dy43 2.664 . S
O55 C49 1.268 . S
O56 Dy40 2.351 . S
O56 C59 1.249 . S
O57 Dy43 2.326 . S
O57 C59 1.267 . S
C58 O50 1.249 . S
C58 O51 1.267 . S
C59 O56 1.249 . S
C59 O57 1.267 . S
Dy60 O64 2.398 . S
Dy60 O65 2.491 . S
Dy60 O66 2.403 . S
Dy60 O67 2.664 . S
Dy60 O71 2.326 . S
Dy60 O75 2.310 . S
Dy60 O76 2.351 . S
C61 O72 1.185 . S
C61 O73 1.355 . S
C62 O64 1.185 . S
C62 O65 1.355 . S
Dy63 O67 2.310 . S
Dy63 O70 2.351 . S
Dy63 O72 2.398 . S
Dy63 O73 2.491 . S
Dy63 O74 2.403 1_554 S
Dy63 O75 2.664 . S
Dy63 O77 2.326 . S
O64 Dy60 2.398 . S
O64 C62 1.185 . S
O65 Dy60 2.491 . S
O65 C62 1.355 . S
O66 Dy60 2.403 . S
O66 C68 1.254 . S
O67 Dy60 2.664 . S
O67 Dy63 2.310 . S
O67 C68 1.268 . S
C68 O66 1.254 . S
C68 O67 1.268 . S
C69 O74 1.254 . S
C69 O75 1.268 1_556 S
O70 Dy63 2.351 . S
O70 C78 1.249 . S
O71 Dy60 2.326 . S
O71 C78 1.267 . S
O72 C61 1.185 . S
O72 Dy63 2.398 . S
O73 C61 1.355 . S
O73 Dy63 2.491 . S
O74 Dy63 2.403 1_556 S
O74 C69 1.254 . S
O75 Dy60 2.310 . S
O75 Dy63 2.664 . S
O75 C69 1.268 1_554 S
O76 Dy60 2.351 . S
O76 C79 1.249 . S
O77 Dy63 2.326 . S
O77 C79 1.267 . S
C78 O70 1.249 . S
C78 O71 1.267 . S
C79 O76 1.249 . S
C79 O77 1.267 . S
H80 C88 0.950 . S
H81 C93 0.950 . S
H82 C90 0.950 . S
H83 C92 0.950 . S
H84 C94 0.950 . S
H85 C96 0.950 . S
H86 C98 0.950 1_655 S
H87 C99 0.950 1_655 S
C88 H80 0.950 . S
C88 C89 1.386 1_655 S
C88 C90 1.391 . S
C89 C88 1.386 1_455 S
C89 C93 1.393 . S
C90 H82 0.950 . S
C90 C88 1.391 . S
C90 C91 1.400 1_655 S
C91 C90 1.400 1_455 S
C91 C92 1.398 . S
C91 C97 1.491 . S
C92 H83 0.950 . S
C92 C91 1.398 . S
C92 C93 1.391 . S
C93 H81 0.950 . S
C93 C89 1.393 . S
C93 C92 1.391 . S
C94 H84 0.950 . S
C94 C95 1.386 . S
C94 C96 1.391 . S
C95 C94 1.386 . S
C95 C99 1.393 . S
C96 H85 0.950 . S
C96 C94 1.391 . S
C96 C97 1.400 . S
C97 C91 1.491 . S
C97 C96 1.400 . S
C97 C98 1.398 . S
C98 H86 0.950 1_455 S
C98 C97 1.398 . S
C98 C99 1.391 . S
C99 H87 0.950 1_455 S
C99 C95 1.393 . S
C99 C98 1.391 . S
H100 C108 0.950 . S
H101 C113 0.950 . S
H102 C110 0.950 . S
H103 C112 0.950 . S
H104 C114 0.950 . S
H105 C116 0.950 . S
H106 C118 0.950 . S
H107 C119 0.950 . S
C108 H100 0.950 . S
C108 C109 1.386 . S
C108 C110 1.391 . S
C109 C108 1.386 . S
C109 C113 1.393 . S
C110 H102 0.950 . S
C110 C108 1.391 . S
C110 C111 1.400 . S
C111 C110 1.400 . S
C111 C112 1.398 . S
C111 C117 1.491 . S
C112 H103 0.950 . S
C112 C111 1.398 . S
C112 C113 1.391 . S
C113 H101 0.950 . S
C113 C109 1.393 . S
C113 C112 1.391 . S
C114 H104 0.950 . S
C114 C115 1.386 . S
C114 C116 1.391 . S
C115 C114 1.386 . S
C115 C119 1.393 . S
C116 H105 0.950 . S
C116 C114 1.391 . S
C116 C117 1.400 . S
C117 C111 1.491 . S
C117 C116 1.400 . S
C117 C118 1.398 . S
C118 H106 0.950 . S
C118 C117 1.398 . S
C118 C119 1.391 . S
C119 H107 0.950 . S
C119 C115 1.393 . S
C119 C118 1.391 . S
H120 C128 0.950 1_556 S
H121 C133 0.950 . S
H122 C130 0.950 . S
H123 C132 0.950 . S
H124 C134 0.950 1_554 S
H125 C136 0.950 . S
H126 C138 0.950 . S
H127 C139 0.950 . S
C128 H120 0.950 1_554 S
C128 C129 1.386 . S
C128 C130 1.391 1_554 S
C129 C128 1.386 . S
C129 C133 1.393 . S
C130 H122 0.950 . S
C130 C128 1.391 1_556 S
C130 C131 1.400 1_556 S
C131 C130 1.400 1_554 S
C131 C132 1.398 . S
C131 C137 1.491 1_554 S
C132 H123 0.950 . S
C132 C131 1.398 . S
C132 C133 1.391 . S
C133 H121 0.950 . S
C133 C129 1.393 . S
C133 C132 1.391 . S
C134 H124 0.950 1_556 S
C134 C135 1.386 . S
C134 C136 1.391 1_556 S
C135 C134 1.386 . S
C135 C139 1.393 . S
C136 H125 0.950 . S
C136 C134 1.391 1_554 S
C136 C137 1.400 1_554 S
C137 C131 1.491 1_556 S
C137 C136 1.400 1_556 S
C137 C138 1.398 . S
C138 H126 0.950 . S
C138 C137 1.398 . S
C138 C139 1.391 . S
C139 H127 0.950 . S
C139 C135 1.393 . S
C139 C138 1.391 . S
H140 C148 0.950 . S
H141 C153 0.950 . S
H142 C150 0.950 . S
H143 C152 0.950 . S
H144 C154 0.950 . S
H145 C156 0.950 . S
H146 C158 0.950 . S
H147 C159 0.950 . S
C148 H140 0.950 . S
C148 C149 1.386 . S
C148 C150 1.391 . S
C149 C148 1.386 . S
C149 C153 1.393 . S
C150 H142 0.950 . S
C150 C148 1.391 . S
C150 C151 1.400 . S
C151 C150 1.400 . S
C151 C152 1.398 . S
C151 C157 1.491 . S
C152 H143 0.950 . S
C152 C151 1.398 . S
C152 C153 1.391 . S
C153 H141 0.950 . S
C153 C149 1.393 . S
C153 C152 1.391 . S
C154 H144 0.950 . S
C154 C155 1.386 . S
C154 C156 1.391 . S
C155 C154 1.386 . S
C155 C159 1.393 . S
C156 H145 0.950 . S
C156 C154 1.391 . S
C156 C157 1.400 . S
C157 C151 1.491 . S
C157 C156 1.400 . S
C157 C158 1.398 . S
C158 H146 0.950 . S
C158 C157 1.398 . S
C158 C159 1.391 . S
C159 H147 0.950 . S
C159 C155 1.393 . S
C159 C158 1.391 . S
H160 C168 0.950 . S
H161 C173 0.950 . S
H162 C170 0.950 . S
H163 C172 0.950 . S
H164 C174 0.950 . S
H165 C176 0.950 . S
H166 C178 0.950 . S
H167 C179 0.950 . S
C168 H160 0.950 . S
C168 C169 1.386 . S
C168 C170 1.391 . S
C169 C168 1.386 . S
C169 C173 1.393 . S
C170 H162 0.950 . S
C170 C168 1.391 . S
C170 C171 1.400 . S
C171 C170 1.400 . S
C171 C172 1.398 . S
C171 C177 1.491 . S
C172 H163 0.950 . S
C172 C171 1.398 . S
C172 C173 1.391 . S
C173 H161 0.950 . S
C173 C169 1.393 . S
C173 C172 1.391 . S
C174 H164 0.950 . S
C174 C175 1.386 . S
C174 C176 1.391 . S
C175 C174 1.386 . S
C175 C179 1.393 . S
C176 H165 0.950 . S
C176 C174 1.391 . S
C176 C177 1.400 . S
C177 C171 1.491 . S
C177 C176 1.400 . S
C177 C178 1.398 . S
C178 H166 0.950 . S
C178 C177 1.398 . S
C178 C179 1.391 . S
C179 H167 0.950 . S
C179 C175 1.393 . S
C179 C178 1.391 . S
H180 C188 0.950 . S
H181 C193 0.950 . S
H182 C190 0.950 . S
H183 C192 0.950 . S
H184 C194 0.950 . S
H185 C196 0.950 . S
H186 C198 0.950 . S
H187 C199 0.950 . S
C188 H180 0.950 . S
C188 C189 1.386 . S
C188 C190 1.391 . S
C189 C188 1.386 . S
C189 C193 1.393 . S
C190 H182 0.950 . S
C190 C188 1.391 . S
C190 C191 1.400 . S
C191 C190 1.400 . S
C191 C192 1.398 . S
C191 C197 1.491 . S
C192 H183 0.950 . S
C192 C191 1.398 . S
C192 C193 1.391 . S
C193 H181 0.950 . S
C193 C189 1.393 . S
C193 C192 1.391 . S
C194 H184 0.950 . S
C194 C195 1.386 . S
C194 C196 1.391 . S
C195 C194 1.386 . S
C195 C199 1.393 . S
C196 H185 0.950 . S
C196 C194 1.391 . S
C196 C197 1.400 . S
C197 C191 1.491 . S
C197 C196 1.400 . S
C197 C198 1.398 . S
C198 H186 0.950 . S
C198 C197 1.398 . S
C198 C199 1.391 . S
C199 H187 0.950 . S
C199 C195 1.393 . S
C199 C198 1.391 . S
H200 C208 0.950 . S
H201 C213 0.950 1_554 S
H202 C210 0.950 . S
H203 C212 0.950 . S
H204 C214 0.950 . S
H205 C216 0.950 1_565 S
H206 C218 0.950 . S
H207 C219 0.950 1_556 S
C208 H200 0.950 . S
C208 C209 1.386 . S
C208 C210 1.391 . S
C209 C208 1.386 . S
C209 C213 1.393 . S
C210 H202 0.950 . S
C210 C208 1.391 . S
C210 C211 1.400 . S
C211 C210 1.400 . S
C211 C212 1.398 1_556 S
C211 C217 1.491 1_556 S
C212 H203 0.950 . S
C212 C211 1.398 1_554 S
C212 C213 1.391 1_554 S
C213 H201 0.950 1_556 S
C213 C209 1.393 . S
C213 C212 1.391 1_556 S
C214 H204 0.950 . S
C214 C215 1.386 . S
C214 C216 1.391 . S
C215 C214 1.386 . S
C215 C219 1.393 . S
C216 H205 0.950 1_545 S
C216 C214 1.391 . S
C216 C217 1.400 1_545 S
C217 C211 1.491 1_554 S
C217 C216 1.400 1_565 S
C217 C218 1.398 1_564 S
C218 H206 0.950 . S
C218 C217 1.398 1_546 S
C218 C219 1.391 1_556 S
C219 H207 0.950 1_554 S
C219 C215 1.393 . S
C219 C218 1.391 1_554 S
H220 C228 0.950 . S
H221 C233 0.935 1_455 S
H222 C230 0.950 1_545 S
H223 C232 0.950 . S
H224 C234 0.950 . S
H225 C236 0.950 . S
H226 C238 0.950 . S
H227 C239 0.950 . S
C228 H220 0.950 . S
C228 C229 1.386 . S
C228 C230 1.391 . S
C229 C228 1.386 . S
C229 C233 1.409 . S
C230 H222 0.950 1_565 S
C230 C228 1.391 . S
C230 C231 1.400 1_565 S
C231 C230 1.400 1_545 S
C231 C232 1.398 1_645 S
C231 C237 1.491 . S
C232 H223 0.950 . S
C232 C231 1.398 1_465 S
C232 C233 1.390 1_455 S
C233 H221 0.935 1_655 S
C233 C229 1.409 . S
C233 C232 1.390 1_655 S
C234 H224 0.950 . S
C234 C235 1.386 1_455 S
C234 C236 1.391 . S
C235 C234 1.386 1_655 S
C235 C239 1.393 . S
C236 H225 0.950 . S
C236 C234 1.391 . S
C236 C237 1.400 1_455 S
C237 C231 1.491 . S
C237 C236 1.400 1_655 S
C237 C238 1.398 . S
C238 H226 0.950 . S
C238 C237 1.398 . S
C238 C239 1.391 . S
C239 H227 0.950 . S
C239 C235 1.393 . S
C239 C238 1.391 . S
H240 C248 0.950 . S
H241 C253 0.950 . S
H242 C250 0.950 . S
H243 C252 0.950 . S
H244 C254 0.950 . S
H245 C256 0.950 . S
H246 C258 0.950 . S
H247 C259 0.950 . S
C248 H240 0.950 . S
C248 C249 1.386 . S
C248 C250 1.391 1_554 S
C249 C248 1.386 . S
C249 C253 1.393 1_455 S
C250 H242 0.950 . S
C250 C248 1.391 1_556 S
C250 C251 1.400 . S
C251 C250 1.400 . S
C251 C252 1.398 1_455 S
C251 C257 1.491 . S
C252 H243 0.950 . S
C252 C251 1.398 1_655 S
C252 C253 1.391 1_556 S
C253 H241 0.950 . S
C253 C249 1.393 1_655 S
C253 C252 1.391 1_554 S
C254 H244 0.950 . S
C254 C255 1.386 . S
C254 C256 1.391 . S
C255 C254 1.386 . S
C255 C259 1.393 1_655 S
C256 H245 0.950 . S
C256 C254 1.391 . S
C256 C257 1.400 1_655 S
C257 C251 1.491 . S
C257 C256 1.400 1_455 S
C257 C258 1.398 . S
C258 H246 0.950 . S
C258 C257 1.398 . S
C258 C259 1.391 . S
C259 H247 0.950 . S
C259 C255 1.393 1_455 S
C259 C258 1.391 . S
H260 C268 0.950 . S
H261 C273 0.950 . S
H262 C270 0.950 . S
H263 C272 0.950 . S
H264 C274 0.950 . S
H265 C276 0.950 . S
H266 C278 0.950 . S
H267 C279 0.950 . S
C268 H260 0.950 . S
C268 C269 1.386 . S
C268 C270 1.391 1_556 S
C269 C268 1.386 . S
C269 C273 1.393 1_455 S
C270 H262 0.950 . S
C270 C268 1.391 1_554 S
C270 C271 1.400 . S
C271 C270 1.400 . S
C271 C272 1.398 1_455 S
C271 C277 1.491 . S
C272 H263 0.950 . S
C272 C271 1.398 1_655 S
C272 C273 1.391 1_554 S
C273 H261 0.950 . S
C273 C269 1.393 1_655 S
C273 C272 1.391 1_556 S
C274 H264 0.950 . S
C274 C275 1.400 . S
C274 C276 1.391 . S
C275 C274 1.400 . S
C275 C279 1.378 1_655 S
C276 H265 0.950 . S
C276 C274 1.391 . S
C276 C277 1.400 1_655 S
C277 C271 1.491 . S
C277 C276 1.400 1_455 S
C277 C278 1.398 . S
C278 H266 0.950 . S
C278 C277 1.398 . S
C278 C279 1.391 . S
C279 H267 0.950 . S
C279 C275 1.378 1_455 S
C279 C278 1.391 . S
H280 C288 0.950 . S
H281 C293 0.950 . S
H282 C290 0.950 . S
H283 C292 0.950 . S
H284 C294 0.950 . S
H285 C296 0.950 . S
H286 C298 0.950 . S
H287 C299 0.950 . S
C288 H280 0.950 . S
C288 C289 1.386 . S
C288 C290 1.391 . S
C289 C288 1.386 . S
C289 C293 1.393 . S
C290 H282 0.950 . S
C290 C288 1.391 . S
C290 C291 1.400 . S
C291 C290 1.400 . S
C291 C292 1.398 . S
C291 C297 1.491 . S
C292 H283 0.950 . S
C292 C291 1.398 . S
C292 C293 1.391 . S
C293 H281 0.950 . S
C293 C289 1.393 . S
C293 C292 1.391 . S
C294 H284 0.950 . S
C294 C295 1.386 . S
C294 C296 1.391 . S
C295 C294 1.386 . S
C295 C299 1.393 . S
C296 H285 0.950 . S
C296 C294 1.391 . S
C296 C297 1.400 . S
C297 C291 1.491 . S
C297 C296 1.400 . S
C297 C298 1.398 . S
C298 H286 0.950 . S
C298 C297 1.398 . S
C298 C299 1.391 . S
C299 H287 0.950 . S
C299 C295 1.393 . S
C299 C298 1.391 . S
H300 C308 0.950 . S
H301 C313 0.950 . S
H302 C310 0.950 . S
H303 C312 0.950 . S
H304 C314 0.950 . S
H305 C316 0.950 . S
H306 C318 0.950 . S
H307 C319 0.950 . S
C308 H300 0.950 . S
C308 C309 1.386 . S
C308 C310 1.391 . S
C309 C308 1.386 . S
C309 C313 1.393 . S
C310 H302 0.950 . S
C310 C308 1.391 . S
C310 C311 1.400 . S
C311 C310 1.400 . S
C311 C312 1.398 . S
C311 C317 1.491 . S
C312 H303 0.950 . S
C312 C311 1.398 . S
C312 C313 1.391 . S
C313 H301 0.950 . S
C313 C309 1.393 . S
C313 C312 1.391 . S
C314 H304 0.950 . S
C314 C315 1.386 . S
C314 C316 1.391 . S
C315 C314 1.386 . S
C315 C319 1.393 . S
C316 H305 0.950 . S
C316 C314 1.391 . S
C316 C317 1.400 . S
C317 C311 1.491 . S
C317 C316 1.400 . S
C317 C318 1.398 . S
C318 H306 0.950 . S
C318 C317 1.398 . S
C318 C319 1.391 . S
C319 H307 0.950 . S
C319 C315 1.393 . S
C319 C318 1.391 . S
C89 C18 1.751 . S
C95 C21 1.722 . S
C109 C42 1.817 . S
C115 C38 1.821 . S
C129 C62 1.894 . S
C135 C59 1.955 . S
C149 C1 1.772 . S
C155 C79 1.912 . S
C169 C78 1.806 . S
C175 C2 1.838 . S
C189 C41 1.772 . S
C195 C39 1.913 . S
C209 C58 1.765 . S
C215 C61 1.743 . S
C229 C22 1.885 . S
C235 C19 1.966 . S
C249 C9 0.905 1_455 S
C255 C8 0.905 1_655 S
C269 C28 0.875 . S
C275 C29 0.877 . S
C289 C48 0.871 . S
C295 C49 0.871 . S
C309 C68 0.877 . S
C315 C69 0.877 . S
