# Generated by pormake.
# Topology cds-f, (5)-cn, num edge types: 1
# Building blocks:
#     Node 0, Type 0, BuildingBlock: XOMCOT_clean_sbu_1, # of connection points: 5
#     Node 1, Type 0, BuildingBlock: XOMCOT_clean_sbu_1, # of connection points: 5
#     Node 2, Type 0, BuildingBlock: XOMCOT_clean_sbu_1, # of connection points: 5
#     Node 3, Type 0, BuildingBlock: XOMCOT_clean_sbu_1, # of connection points: 5
#     Node 4, Type 0, BuildingBlock: XOMCOT_clean_sbu_1, # of connection points: 5
#     Node 5, Type 0, BuildingBlock: XOMCOT_clean_sbu_1, # of connection points: 5
#     Node 6, Type 0, BuildingBlock: XOMCOT_clean_sbu_1, # of connection points: 5
#     Node 7, Type 0, BuildingBlock: XOMCOT_clean_sbu_1, # of connection points: 5
#     Node 8, Type 0, BuildingBlock: XOMCOT_clean_sbu_1, # of connection points: 5
#     Node 9, Type 0, BuildingBlock: XOMCOT_clean_sbu_1, # of connection points: 5
#     Node 10, Type 0, BuildingBlock: XOMCOT_clean_sbu_1, # of connection points: 5
#     Node 11, Type 0, BuildingBlock: XOMCOT_clean_sbu_1, # of connection points: 5
#     Node 12, Type 0, BuildingBlock: XOMCOT_clean_sbu_1, # of connection points: 5
#     Node 13, Type 0, BuildingBlock: XOMCOT_clean_sbu_1, # of connection points: 5
#     Node 14, Type 0, BuildingBlock: XOMCOT_clean_sbu_1, # of connection points: 5
#     Node 15, Type 0, BuildingBlock: XOMCOT_clean_sbu_1, # of connection points: 5
#     Edge 16, Type (0, 0), BuildingBlock: XIVTED_clean_linker_0, # of connection points: 2
#     Edge 17, Type (0, 0), BuildingBlock: XIVTED_clean_linker_0, # of connection points: 2
#     Edge 18, Type (0, 0), BuildingBlock: XIVTED_clean_linker_0, # of connection points: 2
#     Edge 19, Type (0, 0), BuildingBlock: XIVTED_clean_linker_0, # of connection points: 2
#     Edge 20, Type (0, 0), BuildingBlock: XIVTED_clean_linker_0, # of connection points: 2
#     Edge 21, Type (0, 0), BuildingBlock: XIVTED_clean_linker_0, # of connection points: 2
#     Edge 22, Type (0, 0), BuildingBlock: XIVTED_clean_linker_0, # of connection points: 2
#     Edge 23, Type (0, 0), BuildingBlock: XIVTED_clean_linker_0, # of connection points: 2
#     Edge 24, Type (0, 0), BuildingBlock: XIVTED_clean_linker_0, # of connection points: 2
#     Edge 25, Type (0, 0), BuildingBlock: XIVTED_clean_linker_0, # of connection points: 2
#     Edge 26, Type (0, 0), BuildingBlock: XIVTED_clean_linker_0, # of connection points: 2
#     Edge 27, Type (0, 0), BuildingBlock: XIVTED_clean_linker_0, # of connection points: 2
#     Edge 28, Type (0, 0), BuildingBlock: XIVTED_clean_linker_0, # of connection points: 2
#     Edge 29, Type (0, 0), BuildingBlock: XIVTED_clean_linker_0, # of connection points: 2
#     Edge 30, Type (0, 0), BuildingBlock: XIVTED_clean_linker_0, # of connection points: 2
#     Edge 31, Type (0, 0), BuildingBlock: XIVTED_clean_linker_0, # of connection points: 2
#     Edge 32, Type (0, 0), BuildingBlock: XIVTED_clean_linker_0, # of connection points: 2
#     Edge 33, Type (0, 0), BuildingBlock: XIVTED_clean_linker_0, # of connection points: 2
#     Edge 34, Type (0, 0), BuildingBlock: XIVTED_clean_linker_0, # of connection points: 2
#     Edge 35, Type (0, 0), BuildingBlock: XIVTED_clean_linker_0, # of connection points: 2
#     Edge 36, Type (0, 0), BuildingBlock: XIVTED_clean_linker_0, # of connection points: 2
#     Edge 37, Type (0, 0), BuildingBlock: XIVTED_clean_linker_0, # of connection points: 2
#     Edge 38, Type (0, 0), BuildingBlock: XIVTED_clean_linker_0, # of connection points: 2
#     Edge 39, Type (0, 0), BuildingBlock: XIVTED_clean_linker_0, # of connection points: 2
#     Edge 40, Type (0, 0), BuildingBlock: XIVTED_clean_linker_0, # of connection points: 2
#     Edge 41, Type (0, 0), BuildingBlock: XIVTED_clean_linker_0, # of connection points: 2
#     Edge 42, Type (0, 0), BuildingBlock: XIVTED_clean_linker_0, # of connection points: 2
#     Edge 43, Type (0, 0), BuildingBlock: XIVTED_clean_linker_0, # of connection points: 2
#     Edge 44, Type (0, 0), BuildingBlock: XIVTED_clean_linker_0, # of connection points: 2
#     Edge 45, Type (0, 0), BuildingBlock: XIVTED_clean_linker_0, # of connection points: 2
#     Edge 46, Type (0, 0), BuildingBlock: XIVTED_clean_linker_0, # of connection points: 2
#     Edge 47, Type (0, 0), BuildingBlock: XIVTED_clean_linker_0, # of connection points: 2
#     Edge 48, Type (0, 0), BuildingBlock: XIVTED_clean_linker_0, # of connection points: 2
#     Edge 49, Type (0, 0), BuildingBlock: XIVTED_clean_linker_0, # of connection points: 2
#     Edge 50, Type (0, 0), BuildingBlock: XIVTED_clean_linker_0, # of connection points: 2
#     Edge 51, Type (0, 0), BuildingBlock: XIVTED_clean_linker_0, # of connection points: 2
#     Edge 52, Type (0, 0), BuildingBlock: XIVTED_clean_linker_0, # of connection points: 2
#     Edge 53, Type (0, 0), BuildingBlock: XIVTED_clean_linker_0, # of connection points: 2
#     Edge 54, Type (0, 0), BuildingBlock: XIVTED_clean_linker_0, # of connection points: 2
#     Edge 55, Type (0, 0), BuildingBlock: XIVTED_clean_linker_0, # of connection points: 2
# Relax obj value: 0.236
# Max RMSD: 0.186
# Mean RMSD: 0.177
data_MOF--net-cds-f--node1-XOMCOT_clean_sbu_1--edge1-XIVTED_clean_linker_0
_symmetry_space_group_name_H-M    P1
_symmetry_Int_Tables_number       1
_symmetry_cell_setting            triclinic
loop_
_symmetry_equiv_pos_as_xyz
'x, y, z'
_cell_length_a     35.862792
_cell_length_b     35.900188
_cell_length_c     56.497808
_cell_angle_alpha  92.32506
_cell_angle_beta   90.113924
_cell_angle_gamma 91.922132
loop_
_atom_site_label
_atom_site_type_symbol
_atom_site_fract_x
_atom_site_fract_y
_atom_site_fract_z
_atom_type_partial_charge
C0 C 0.30479 0.29692 0.16773 0.0
C1 C 0.34288 0.30068 0.16841 0.0
N2 N 0.3575 0.26923 0.15904 0.0
N3 N 0.29464 0.26352 0.15761 0.0
C4 C 0.32737 0.24706 0.15254 0.0
H5 H 0.28556 0.31736 0.17439 0.0
Co6 Co 0.24409 0.24821 0.15456 0.0
C7 C 0.23382 0.21194 0.10797 0.0
O8 O 0.20253 0.22985 0.10729 0.0
N9 N 0.19219 0.23233 0.15268 0.0
C10 C 0.14314 0.19232 0.15224 0.0
C11 C 0.18135 0.19592 0.15295 0.0
C12 C 0.15937 0.25026 0.1519 0.0
N13 N 0.12914 0.22657 0.15154 0.0
O14 O 0.25173 0.21008 0.17651 0.0
H15 H 0.20021 0.17309 0.15355 0.0
H16 H 0.15711 0.27998 0.15119 0.0
O17 O 0.25514 0.21595 0.12626 0.0
C18 C 0.24218 0.22738 0.19562 0.0
O19 O 0.23339 0.26254 0.19473 0.0
N20 N 0.23696 0.28883 0.13593 0.0
C21 C 0.23752 0.3605 0.11964 0.0
C22 C 0.25711 0.33282 0.10735 0.0
C23 C 0.25658 0.29681 0.1159 0.0
C24 C 0.21904 0.31607 0.1483 0.0
C25 C 0.21782 0.3517 0.14007 0.0
H26 H 0.27444 0.27652 0.10761 0.0
H27 H 0.20784 0.31081 0.16562 0.0
H28 H 0.32893 0.21915 0.14473 0.0
H29 H 0.35834 0.3251 0.17534 0.0
H30 H 0.12706 0.16633 0.15261 0.0
H31 H 0.27408 0.33942 0.09214 0.0
H32 H 0.20419 0.37301 0.15072 0.0
C33 C 0.72899 0.31503 0.67588 0.0
C34 C 0.72826 0.35325 0.67822 0.0
N35 N 0.74956 0.36802 0.6611 0.0
N36 N 0.75082 0.3052 0.65746 0.0
C37 C 0.76321 0.33818 0.64883 0.0
H38 H 0.71347 0.29558 0.68651 0.0
Co39 Co 0.75451 0.2552 0.64637 0.0
C40 C 0.81968 0.25485 0.61512 0.0
O41 O 0.83378 0.22831 0.62737 0.0
N42 N 0.7573 0.2044 0.6348 0.0
C43 C 0.75355 0.15642 0.60848 0.0
C44 C 0.75436 0.19448 0.6115 0.0
C45 C 0.75854 0.17121 0.64559 0.0
N46 N 0.75615 0.14169 0.62987 0.0
O47 O 0.79263 0.2485 0.66943 0.0
H48 H 0.75186 0.21381 0.59744 0.0
H49 H 0.75948 0.16833 0.66453 0.0
O50 O 0.78981 0.26994 0.62222 0.0
C51 C 0.77604 0.23563 0.68747 0.0
O52 O 0.73998 0.22807 0.68612 0.0
N53 N 0.71481 0.26164 0.62613 0.0
C54 C 0.64837 0.27077 0.60216 0.0
C55 C 0.68091 0.2906 0.59573 0.0
C56 C 0.71409 0.28561 0.608 0.0
C57 C 0.68356 0.24208 0.63251 0.0
C58 C 0.65008 0.24591 0.6206 0.0
H59 H 0.73869 0.30186 0.60342 0.0
H60 H 0.68458 0.22399 0.64733 0.0
H61 H 0.78042 0.34033 0.6332 0.0
H62 H 0.71278 0.36892 0.69144 0.0
H63 H 0.75051 0.14065 0.5918 0.0
H64 H 0.68051 0.31028 0.58171 0.0
H65 H 0.6254 0.23082 0.62654 0.0
C66 C 0.81838 0.72215 0.10842 0.0
C67 C 0.85604 0.71727 0.10642 0.0
N68 N 0.87418 0.74312 0.12054 0.0
N69 N 0.81222 0.75074 0.12394 0.0
C70 C 0.84681 0.76328 0.13092 0.0
H71 H 0.79681 0.70642 0.09861 0.0
Co72 Co 0.76435 0.76865 0.13006 0.0
C73 C 0.76161 0.78809 0.18129 0.0
O74 O 0.72645 0.77664 0.18078 0.0
N75 N 0.7152 0.78762 0.13519 0.0
C76 C 0.67146 0.82942 0.14235 0.0
C77 C 0.70918 0.82364 0.14141 0.0
C78 C 0.68015 0.77231 0.13216 0.0
N79 N 0.65299 0.79707 0.13646 0.0
O80 O 0.77904 0.81363 0.11528 0.0
H81 H 0.73101 0.84458 0.1451 0.0
H82 H 0.67414 0.74386 0.12635 0.0
O83 O 0.78078 0.78737 0.16211 0.0
C84 C 0.76852 0.80677 0.09391 0.0
O85 O 0.75024 0.77522 0.08861 0.0
N86 N 0.75043 0.72236 0.1413 0.0
C87 C 0.73945 0.64615 0.14551 0.0
C88 C 0.76117 0.66695 0.16227 0.0
C89 C 0.76664 0.70528 0.15973 0.0
C90 C 0.7303 0.702 0.12463 0.0
C91 C 0.72347 0.66414 0.12674 0.0
H92 H 0.78624 0.72025 0.17139 0.0
H93 H 0.72158 0.71483 0.10865 0.0
H94 H 0.85177 0.78698 0.14309 0.0
H95 H 0.86901 0.69699 0.09469 0.0
H96 H 0.65882 0.85559 0.14713 0.0
H97 H 0.77509 0.65346 0.17647 0.0
H98 H 0.70815 0.6486 0.11281 0.0
C99 C 0.3165 0.74247 0.66878 0.0
C100 C 0.31752 0.70478 0.6717 0.0
N101 N 0.29402 0.68721 0.65597 0.0
N102 N 0.29222 0.74935 0.65139 0.0
C103 C 0.27868 0.71496 0.64394 0.0
H104 H 0.3337 0.76349 0.67818 0.0
Co105 Co 0.28827 0.79796 0.64008 0.0
C106 C 0.22308 0.79511 0.60814 0.0
O107 O 0.20947 0.82395 0.61984 0.0
N108 N 0.2855 0.84739 0.62855 0.0
C109 C 0.28937 0.89292 0.60287 0.0
C110 C 0.28848 0.85507 0.60538 0.0
C111 C 0.28435 0.88165 0.63976 0.0
N112 N 0.28683 0.90973 0.62448 0.0
O113 O 0.25131 0.80842 0.66375 0.0
H114 H 0.29093 0.83434 0.59109 0.0
H115 H 0.28339 0.88634 0.65875 0.0
O116 O 0.25208 0.7801 0.61607 0.0
C117 C 0.2704 0.82266 0.6812 0.0
O118 O 0.30651 0.82815 0.67832 0.0
N119 N 0.327 0.78834 0.61941 0.0
C120 C 0.39261 0.77346 0.59554 0.0
C121 C 0.35977 0.75266 0.58996 0.0
C122 C 0.32701 0.7606 0.60216 0.0
C123 C 0.35854 0.80903 0.62485 0.0
C124 C 0.3916 0.80237 0.61293 0.0
H125 H 0.30228 0.7434 0.59845 0.0
H126 H 0.35817 0.83011 0.63908 0.0
H127 H 0.25954 0.71021 0.62921 0.0
H128 H 0.33485 0.69133 0.68429 0.0
H129 H 0.2923 0.90708 0.58639 0.0
H130 H 0.35972 0.72985 0.57681 0.0
H131 H 0.4166 0.81839 0.6182 0.0
C132 C 0.31515 0.75874 0.85673 0.0
C133 C 0.35308 0.7597 0.85354 0.0
N134 N 0.36921 0.78057 0.87136 0.0
N135 N 0.30663 0.77906 0.87642 0.0
C136 C 0.34027 0.79198 0.88508 0.0
H137 H 0.2951 0.74279 0.84581 0.0
Co138 Co 0.25715 0.78027 0.88804 0.0
C139 C 0.25828 0.83781 0.9268 0.0
O140 O 0.23029 0.85398 0.9168 0.0
N141 N 0.2069 0.78035 0.89977 0.0
C142 C 0.15924 0.77282 0.92462 0.0
C143 C 0.19733 0.77253 0.92221 0.0
C144 C 0.1736 0.78498 0.88888 0.0
N145 N 0.14415 0.78062 0.90363 0.0
O146 O 0.24826 0.82184 0.86875 0.0
H147 H 0.2169 0.76637 0.93599 0.0
H148 H 0.17065 0.79134 0.87049 0.0
O149 O 0.27346 0.81047 0.91588 0.0
C150 C 0.23546 0.80519 0.84982 0.0
O151 O 0.22962 0.76884 0.84972 0.0
N152 N 0.2654 0.73733 0.90352 0.0
C153 C 0.28723 0.6659 0.9109 0.0
C154 C 0.30486 0.69612 0.92333 0.0
C155 C 0.29352 0.73215 0.91924 0.0
C156 C 0.24614 0.70797 0.8929 0.0
C157 C 0.25645 0.67186 0.89648 0.0
H158 H 0.30938 0.75565 0.92702 0.0
H159 H 0.22453 0.71278 0.88013 0.0
H160 H 0.34353 0.80859 0.9014 0.0
H161 H 0.36766 0.74464 0.83962 0.0
H162 H 0.14385 0.76664 0.94052 0.0
H163 H 0.3288 0.69215 0.93456 0.0
H164 H 0.24198 0.64893 0.88689 0.0
C165 C 0.3174 0.22019 0.42249 0.0
C166 C 0.32126 0.18236 0.42365 0.0
N167 N 0.29072 0.16475 0.41401 0.0
N168 N 0.28469 0.22693 0.41195 0.0
C169 C 0.26898 0.19256 0.40701 0.0
H170 H 0.33704 0.24151 0.42928 0.0
Co171 Co 0.26587 0.27493 0.4082 0.0
C172 C 0.23176 0.27215 0.36059 0.0
O173 O 0.23903 0.30804 0.35904 0.0
N174 N 0.24634 0.3241 0.40522 0.0
C175 C 0.20446 0.36879 0.40438 0.0
C176 C 0.20956 0.33112 0.40596 0.0
C177 C 0.26286 0.35861 0.40319 0.0
N178 N 0.23808 0.3863 0.40269 0.0
O179 O 0.22503 0.26187 0.42809 0.0
H180 H 0.18751 0.31008 0.4075 0.0
H181 H 0.29244 0.36387 0.40176 0.0
O182 O 0.23979 0.25585 0.37955 0.0
C183 C 0.23812 0.26702 0.44899 0.0
O184 O 0.27259 0.28006 0.45174 0.0
N185 N 0.30838 0.28738 0.39119 0.0
C186 C 0.38282 0.29407 0.37842 0.0
C187 C 0.35748 0.27331 0.36385 0.0
C188 C 0.32016 0.27 0.3707 0.0
C189 C 0.33268 0.30834 0.40507 0.0
C190 C 0.36958 0.31342 0.39853 0.0
H191 H 0.30216 0.25047 0.36083 0.0
H192 H 0.32376 0.31932 0.42218 0.0
H193 H 0.24163 0.18814 0.39906 0.0
H194 H 0.34496 0.16898 0.43105 0.0
H195 H 0.17788 0.38217 0.40494 0.0
H196 H 0.36696 0.25699 0.34861 0.0
H197 H 0.38832 0.32966 0.4103 0.0
C198 C 0.83025 0.29972 0.93507 0.0
C199 C 0.86835 0.30194 0.93751 0.0
N200 N 0.88342 0.2793 0.92076 0.0
N201 N 0.82101 0.27596 0.91678 0.0
C202 C 0.854 0.26389 0.90834 0.0
H203 H 0.81038 0.31431 0.94607 0.0
Co204 Co 0.77148 0.2635 0.90857 0.0
C205 C 0.76995 0.25212 0.85717 0.0
O206 O 0.73971 0.27178 0.85776 0.0
N207 N 0.72046 0.24979 0.90107 0.0
C208 C 0.67232 0.21207 0.88998 0.0
C209 C 0.71045 0.2155 0.89202 0.0
C210 C 0.68732 0.26651 0.90464 0.0
N211 N 0.65757 0.24419 0.89795 0.0
O212 O 0.77722 0.2164 0.92216 0.0
H213 H 0.72982 0.1939 0.88749 0.0
H214 H 0.68455 0.29431 0.91214 0.0
O215 O 0.78678 0.24534 0.87653 0.0
C216 C 0.76607 0.22333 0.94326 0.0
O217 O 0.75216 0.25601 0.94854 0.0
N218 N 0.76687 0.3118 0.89866 0.0
C219 C 0.77298 0.38887 0.89739 0.0
C220 C 0.79255 0.36663 0.88111 0.0
C221 C 0.7899 0.328 0.88247 0.0
C222 C 0.74807 0.33329 0.91468 0.0
C223 C 0.7499 0.37185 0.91399 0.0
H224 H 0.80899 0.31161 0.87204 0.0
H225 H 0.73424 0.32065 0.92945 0.0
H226 H 0.85634 0.24356 0.89379 0.0
H227 H 0.88375 0.31918 0.95057 0.0
H228 H 0.65673 0.18722 0.88382 0.0
H229 H 0.81187 0.37895 0.8687 0.0
H230 H 0.73493 0.3882 0.92716 0.0
C231 C 0.72644 0.79913 0.41027 0.0
C232 C 0.72337 0.83707 0.41306 0.0
N233 N 0.75429 0.8538 0.4043 0.0
N234 N 0.75897 0.79148 0.3995 0.0
C235 C 0.77542 0.82541 0.39609 0.0
H236 H 0.70661 0.7784 0.41643 0.0
Co237 Co 0.77748 0.74317 0.39522 0.0
C238 C 0.80817 0.73872 0.34658 0.0
O239 O 0.79907 0.70296 0.34572 0.0
N240 N 0.79678 0.69382 0.39214 0.0
C241 C 0.83894 0.64935 0.39078 0.0
C242 C 0.8336 0.68716 0.39088 0.0
C243 C 0.78048 0.65907 0.39297 0.0
N244 N 0.80543 0.63153 0.39218 0.0
O245 O 0.81899 0.75852 0.41496 0.0
H246 H 0.85545 0.7086 0.39032 0.0
H247 H 0.75093 0.65348 0.39418 0.0
O248 O 0.80268 0.75829 0.36571 0.0
C249 C 0.80662 0.7531 0.43574 0.0
O250 O 0.77289 0.7383 0.43807 0.0
N251 N 0.73413 0.72878 0.37861 0.0
C252 C 0.65905 0.72209 0.36658 0.0
C253 C 0.6842 0.74102 0.352 0.0
C254 C 0.72177 0.74448 0.35851 0.0
C255 C 0.70997 0.7096 0.39252 0.0
C256 C 0.6727 0.70459 0.38635 0.0
H257 H 0.73951 0.76315 0.34881 0.0
H258 H 0.71901 0.70089 0.40964 0.0
H259 H 0.80306 0.82909 0.38871 0.0
H260 H 0.70013 0.85115 0.42116 0.0
H261 H 0.86565 0.63622 0.39043 0.0
H262 H 0.67445 0.7561 0.33709 0.0
H263 H 0.65409 0.69006 0.39822 0.0
C264 C 0.81418 0.75078 0.85809 0.0
C265 C 0.85225 0.7486 0.8558 0.0
N266 N 0.86884 0.77123 0.87262 0.0
N267 N 0.80643 0.77481 0.8762 0.0
C268 C 0.84031 0.7868 0.88476 0.0
H269 H 0.79334 0.73524 0.84753 0.0
Co270 Co 0.75764 0.78392 0.88664 0.0
C271 C 0.76984 0.83999 0.92547 0.0
O272 O 0.74712 0.86237 0.91518 0.0
N273 N 0.70783 0.79207 0.89753 0.0
C274 C 0.66007 0.79047 0.92268 0.0
C275 C 0.69788 0.7878 0.92033 0.0
C276 C 0.6748 0.79676 0.88625 0.0
N277 N 0.64521 0.79608 0.90128 0.0
O278 O 0.75926 0.82834 0.86937 0.0
H279 H 0.7168 0.78124 0.93438 0.0
H280 H 0.67221 0.79959 0.86736 0.0
O281 O 0.77728 0.80885 0.91525 0.0
C282 C 0.74734 0.81835 0.84872 0.0
O283 O 0.73165 0.78492 0.84563 0.0
N284 N 0.75652 0.73874 0.90066 0.0
C285 C 0.76494 0.66356 0.90608 0.0
C286 C 0.78667 0.68965 0.91966 0.0
C287 C 0.78211 0.72759 0.91658 0.0
C288 C 0.73325 0.71376 0.88883 0.0
C289 C 0.73675 0.67588 0.89146 0.0
H290 H 0.80133 0.74756 0.92525 0.0
H291 H 0.71397 0.72323 0.87581 0.0
H292 H 0.84404 0.80631 0.89974 0.0
H293 H 0.86652 0.73076 0.84313 0.0
H294 H 0.64458 0.78659 0.93886 0.0
H295 H 0.80883 0.68086 0.93101 0.0
H296 H 0.71919 0.65636 0.88096 0.0
C297 C 0.30886 0.71945 0.41812 0.0
C298 C 0.3108 0.6816 0.42041 0.0
N299 N 0.28381 0.66423 0.40697 0.0
N300 N 0.28079 0.72655 0.40329 0.0
C301 C 0.26572 0.69231 0.39692 0.0
H302 H 0.3271 0.74063 0.42657 0.0
Co303 Co 0.27005 0.7757 0.3949 0.0
C304 C 0.22303 0.74359 0.34921 0.0
O305 O 0.19294 0.72272 0.35275 0.0
N306 N 0.25896 0.82579 0.38694 0.0
C307 C 0.24172 0.8741 0.36642 0.0
C308 C 0.24446 0.83624 0.36626 0.0
C309 C 0.26442 0.85872 0.39958 0.0
N310 N 0.25408 0.88861 0.3874 0.0
O311 O 0.22782 0.77393 0.41553 0.0
H312 H 0.23613 0.81808 0.35158 0.0
H313 H 0.2761 0.8608 0.41727 0.0
O314 O 0.24167 0.75632 0.36728 0.0
C315 C 0.24061 0.78482 0.43586 0.0
O316 O 0.27573 0.79621 0.4376 0.0
N317 N 0.3136 0.77758 0.37717 0.0
C318 C 0.38762 0.77356 0.36361 0.0
C319 C 0.36154 0.74591 0.35569 0.0
C320 C 0.32448 0.74831 0.36287 0.0
C321 C 0.33835 0.80564 0.38382 0.0
C322 C 0.37529 0.80467 0.37672 0.0
H323 H 0.30508 0.72548 0.35823 0.0
H324 H 0.33045 0.82737 0.39637 0.0
H325 H 0.24252 0.68801 0.38476 0.0
H326 H 0.33058 0.66805 0.43139 0.0
H327 H 0.23203 0.88976 0.35178 0.0
H328 H 0.3702 0.72118 0.34584 0.0
H329 H 0.39472 0.82655 0.38317 0.0
C330 C 0.33207 0.28829 0.94256 0.0
C331 C 0.37028 0.28899 0.94414 0.0
N332 N 0.38413 0.27469 0.92368 0.0
N333 N 0.32133 0.27325 0.92131 0.0
C334 C 0.35373 0.26508 0.91015 0.0
H335 H 0.31329 0.29928 0.95583 0.0
Co336 Co 0.27138 0.27275 0.91109 0.0
C337 C 0.2691 0.22817 0.8665 0.0
O338 O 0.24256 0.20652 0.87506 0.0
N339 N 0.22079 0.27354 0.90062 0.0
C340 C 0.17307 0.28591 0.87722 0.0
C341 C 0.21106 0.2875 0.87969 0.0
C342 C 0.18764 0.26421 0.91077 0.0
N343 N 0.15817 0.27125 0.89673 0.0
O344 O 0.26417 0.22445 0.92345 0.0
H345 H 0.23049 0.29873 0.867 0.0
H346 H 0.18495 0.25261 0.92807 0.0
O347 O 0.28507 0.25328 0.87998 0.0
C348 C 0.25446 0.23139 0.94484 0.0
O349 O 0.24747 0.26593 0.9515 0.0
N350 N 0.27886 0.32095 0.90205 0.0
C351 C 0.29686 0.39624 0.90083 0.0
C352 C 0.31411 0.37088 0.88521 0.0
C353 C 0.3048 0.33295 0.8862 0.0
C354 C 0.26067 0.34538 0.91653 0.0
C355 C 0.26898 0.38329 0.91605 0.0
H356 H 0.3201 0.31328 0.87542 0.0
H357 H 0.24088 0.33508 0.92933 0.0
H358 H 0.3551 0.25407 0.89207 0.0
H359 H 0.38655 0.29969 0.95922 0.0
H360 H 0.15754 0.2959 0.86245 0.0
H361 H 0.33591 0.37999 0.87331 0.0
H362 H 0.25451 0.40216 0.92803 0.0
C363 C 0.74276 0.30502 0.4296 0.0
C364 C 0.74148 0.34326 0.43083 0.0
N365 N 0.76523 0.35725 0.41471 0.0
N366 N 0.76727 0.29438 0.41284 0.0
C367 C 0.78089 0.3269 0.4042 0.0
H368 H 0.72605 0.28599 0.43988 0.0
Co369 Co 0.77379 0.24352 0.40415 0.0
C370 C 0.8241 0.26736 0.36007 0.0
O371 O 0.85629 0.28324 0.36644 0.0
N372 N 0.78034 0.1919 0.39541 0.0
C373 C 0.78467 0.14121 0.37158 0.0
C374 C 0.78157 0.17899 0.37266 0.0
C375 C 0.78202 0.16038 0.408 0.0
N376 N 0.78504 0.12921 0.39375 0.0
O377 O 0.81733 0.24463 0.42351 0.0
H378 H 0.77879 0.1955 0.35751 0.0
H379 H 0.78061 0.16006 0.4271 0.0
O380 O 0.80144 0.25644 0.37596 0.0
C381 C 0.80516 0.23611 0.44387 0.0
O382 O 0.76977 0.22625 0.44603 0.0
N383 N 0.72896 0.24269 0.38759 0.0
C384 C 0.65493 0.24771 0.37457 0.0
C385 C 0.68159 0.27352 0.36657 0.0
C386 C 0.71863 0.27081 0.37363 0.0
C387 C 0.70345 0.21646 0.39455 0.0
C388 C 0.66636 0.21802 0.38784 0.0
H389 H 0.73867 0.29229 0.3688 0.0
H390 H 0.71125 0.19569 0.40679 0.0
H391 H 0.80059 0.32828 0.3898 0.0
H392 H 0.72407 0.35941 0.4427 0.0
H393 H 0.78509 0.12364 0.35555 0.0
H394 H 0.67346 0.29721 0.35671 0.0
H395 H 0.64624 0.19791 0.39456 0.0
C396 C 0.8048 0.30609 0.16889 0.0
C397 C 0.84304 0.30999 0.16905 0.0
N398 N 0.8572 0.28048 0.15702 0.0
N399 N 0.7945 0.27444 0.15666 0.0
C400 C 0.82698 0.25926 0.14974 0.0
H401 H 0.7857 0.32457 0.17784 0.0
Co402 Co 0.74538 0.25552 0.15429 0.0
C403 C 0.73596 0.22199 0.10674 0.0
O404 O 0.70294 0.23674 0.10661 0.0
N405 N 0.69478 0.23546 0.1528 0.0
C406 C 0.64809 0.19263 0.15103 0.0
C407 C 0.6862 0.19846 0.15174 0.0
C408 C 0.66086 0.25139 0.15296 0.0
N409 N 0.63208 0.22601 0.15182 0.0
O410 O 0.75936 0.2164 0.17364 0.0
H411 H 0.70653 0.17687 0.15131 0.0
H412 H 0.65674 0.28096 0.15343 0.0
O413 O 0.75736 0.22728 0.12483 0.0
C414 C 0.74849 0.22688 0.19422 0.0
O415 O 0.72723 0.25592 0.19635 0.0
N416 N 0.73326 0.29723 0.13808 0.0
C417 C 0.72843 0.371 0.12626 0.0
C418 C 0.74745 0.34596 0.1114 0.0
C419 C 0.74974 0.30887 0.11773 0.0
C420 C 0.71572 0.32177 0.15284 0.0
C421 C 0.71184 0.35842 0.14693 0.0
H422 H 0.76742 0.29071 0.10741 0.0
H423 H 0.70679 0.31336 0.17015 0.0
H424 H 0.82834 0.23277 0.14003 0.0
H425 H 0.85907 0.33219 0.17824 0.0
H426 H 0.63337 0.1658 0.15036 0.0
H427 H 0.76192 0.35541 0.09582 0.0
H428 H 0.69863 0.3775 0.15942 0.0
C429 C 0.7067 0.81083 0.65041 0.0
C430 C 0.70127 0.84837 0.64965 0.0
N431 N 0.73338 0.86535 0.64301 0.0
N432 N 0.74191 0.8036 0.64383 0.0
C433 C 0.75783 0.8376 0.63974 0.0
H434 H 0.68634 0.79013 0.65598 0.0
Co435 Co 0.76085 0.75555 0.64457 0.0
C436 C 0.80668 0.74369 0.60197 0.0
O437 O 0.79438 0.70881 0.60162 0.0
N438 N 0.78002 0.7063 0.64677 0.0
C439 C 0.82153 0.66217 0.65152 0.0
C440 C 0.8164 0.6999 0.65071 0.0
C441 C 0.76359 0.67148 0.64569 0.0
N442 N 0.78826 0.64416 0.64834 0.0
O443 O 0.79546 0.77441 0.6681 0.0
H444 H 0.83814 0.72144 0.65259 0.0
H445 H 0.7343 0.66572 0.6426 0.0
O446 O 0.79601 0.76665 0.61843 0.0
C447 C 0.78431 0.76566 0.68858 0.0
O448 O 0.75556 0.74227 0.6902 0.0
N449 N 0.7236 0.73877 0.62302 0.0
C450 C 0.65596 0.72911 0.59886 0.0
C451 C 0.68668 0.74669 0.58822 0.0
C452 C 0.71997 0.75207 0.60081 0.0
C453 C 0.6941 0.72116 0.63344 0.0
C454 C 0.66024 0.71541 0.62155 0.0
H455 H 0.74123 0.7699 0.59338 0.0
H456 H 0.69594 0.71422 0.65185 0.0
H457 H 0.78668 0.84193 0.63464 0.0
H458 H 0.67582 0.86233 0.65426 0.0
H459 H 0.84777 0.64911 0.65455 0.0
H460 H 0.68429 0.75845 0.57095 0.0
H461 H 0.63681 0.70316 0.63088 0.0
C462 C 0.32346 0.71621 0.11235 0.0
C463 C 0.36145 0.71528 0.11012 0.0
N464 N 0.37674 0.74689 0.12011 0.0
N465 N 0.31407 0.74787 0.12422 0.0
C466 C 0.34722 0.76693 0.12766 0.0
H467 H 0.30381 0.69461 0.10593 0.0
Co468 Co 0.26325 0.75746 0.13168 0.0
C469 C 0.30035 0.77871 0.18055 0.0
O470 O 0.33394 0.7676 0.17543 0.0
N471 N 0.21211 0.76614 0.13872 0.0
C472 C 0.15941 0.76321 0.15958 0.0
C473 C 0.19718 0.75901 0.16009 0.0
C474 C 0.18204 0.77341 0.12513 0.0
N475 N 0.14982 0.77226 0.13766 0.0
O476 O 0.26908 0.80501 0.11763 0.0
H477 H 0.21225 0.74792 0.17462 0.0
H478 H 0.18339 0.77754 0.10629 0.0
O479 O 0.27487 0.77683 0.16455 0.0
C480 C 0.26309 0.79575 0.09578 0.0
O481 O 0.2536 0.76087 0.09007 0.0
N482 N 0.25654 0.70931 0.14192 0.0
C483 C 0.24922 0.6327 0.14464 0.0
C484 C 0.27417 0.65311 0.15969 0.0
C485 C 0.27732 0.6918 0.15813 0.0
C486 C 0.23172 0.6897 0.12759 0.0
C487 C 0.22719 0.65148 0.1289 0.0
H488 H 0.29827 0.70689 0.16862 0.0
H489 H 0.21687 0.70358 0.11402 0.0
H490 H 0.34976 0.79438 0.13626 0.0
H491 H 0.37664 0.69276 0.1018 0.0
H492 H 0.14002 0.75739 0.17373 0.0
H493 H 0.29199 0.63918 0.17179 0.0
H494 H 0.20843 0.63651 0.11652 0.0
C495 C 0.34007 0.24159 0.65729 0.0
C496 C 0.34506 0.20385 0.65539 0.0
N497 N 0.31239 0.18675 0.64895 0.0
N498 N 0.30454 0.24871 0.65171 0.0
C499 C 0.28806 0.21458 0.64699 0.0
H500 H 0.36109 0.26262 0.66253 0.0
Co501 Co 0.28642 0.29728 0.65269 0.0
C502 C 0.23446 0.30142 0.61273 0.0
O503 O 0.24617 0.33624 0.61104 0.0
N504 N 0.26791 0.34718 0.65482 0.0
C505 C 0.22686 0.39201 0.66086 0.0
C506 C 0.23243 0.35433 0.66114 0.0
C507 C 0.28342 0.38165 0.65115 0.0
N508 N 0.25895 0.40933 0.65453 0.0
O509 O 0.25624 0.28406 0.67911 0.0
H510 H 0.21147 0.33326 0.66529 0.0
H511 H 0.31173 0.38677 0.64551 0.0
O512 O 0.24738 0.28178 0.62917 0.0
C513 C 0.27653 0.29522 0.69674 0.0
O514 O 0.30796 0.31362 0.69248 0.0
N515 N 0.32014 0.30935 0.62877 0.0
C516 C 0.38533 0.31332 0.60216 0.0
C517 C 0.35364 0.29356 0.59322 0.0
C518 C 0.32142 0.29142 0.60698 0.0
C519 C 0.35064 0.32891 0.63752 0.0
C520 C 0.38319 0.332 0.62434 0.0
H521 H 0.29918 0.27246 0.60095 0.0
H522 H 0.3507 0.33979 0.65565 0.0
H523 H 0.25904 0.21023 0.642 0.0
H524 H 0.37073 0.18992 0.65878 0.0
H525 H 0.20113 0.40558 0.66523 0.0
H526 H 0.35456 0.27787 0.57645 0.0
H527 H 0.40745 0.34614 0.63242 0.0
H528 H 0.88812 0.21325 0.14624 0.0
H529 H 0.09808 0.29351 0.16313 0.0
H530 H 0.91672 0.3296 0.1614 0.0
H531 H 0.06995 0.1806 0.13842 0.0
H532 H 0.03188 0.30718 0.16289 0.0
H533 H 0.95451 0.20064 0.14354 0.0
C534 C 0.90814 0.23625 0.14885 0.0
C535 C 0.89638 0.27258 0.15424 0.0
C536 C 0.04025 0.27942 0.15748 0.0
C537 C 0.97291 0.25811 0.15146 0.0
C538 C 0.07823 0.27158 0.1575 0.0
C539 C 0.09006 0.23566 0.15091 0.0
C540 C 1.01367 0.25118 0.15093 0.0
C541 C 0.06249 0.20847 0.14407 0.0
C542 C 0.9462 0.22896 0.14741 0.0
C543 C 0.9241 0.30103 0.15765 0.0
N544 N 0.02575 0.21675 0.14436 0.0
N545 N 0.9609 0.29317 0.15631 0.0
H546 H 0.7978 0.10178 0.65971 0.0
H547 H 0.68429 0.91135 0.62475 0.0
H548 H 0.70688 0.09202 0.60972 0.0
H549 H 0.7941 0.91004 0.65566 0.0
H550 H 0.6899 0.97898 0.62335 0.0
H551 H 0.79451 0.03319 0.66319 0.0
C552 C 0.77695 0.08522 0.64973 0.0
C553 C 0.75269 0.10241 0.6343 0.0
C554 C 0.71298 0.96411 0.63036 0.0
C555 C 0.74872 0.02458 0.63812 0.0
C556 C 0.70973 0.92543 0.63117 0.0
C557 C 0.73875 0.90502 0.6403 0.0
C558 C 0.74543 0.98309 0.63896 0.0
C559 C 0.77124 0.92475 0.64826 0.0
C560 C 0.77529 0.0462 0.65153 0.0
C561 C 0.72632 0.07982 0.6216 0.0
N562 N 0.77365 0.96281 0.64758 0.0
N563 N 0.72502 0.04231 0.62383 0.0
H564 H 0.92651 0.69121 0.11206 0.0
H565 H 0.10147 0.82652 0.14667 0.0
H566 H 0.91449 0.80673 0.13395 0.0
H567 H 0.11122 0.71781 0.11301 0.0
H568 H 0.03331 0.82104 0.14171 0.0
H569 H 0.99396 0.70072 0.11292 0.0
C570 C 0.93794 0.71873 0.11691 0.0
C571 C 0.91438 0.74831 0.12265 0.0
C572 C 0.0503 0.79864 0.13495 0.0
C573 C 0.99251 0.75933 0.12393 0.0
C574 C 0.08913 0.80201 0.13753 0.0
C575 C 0.11181 0.77304 0.12961 0.0
C576 C 0.03394 0.76556 0.12487 0.0
C577 C 0.09464 0.74116 0.11869 0.0
C578 C 0.97668 0.72411 0.11744 0.0
C579 C 0.93131 0.78303 0.12946 0.0
N580 N 0.05675 0.73811 0.11684 0.0
N581 N 0.96927 0.78757 0.12989 0.0
H582 H 0.24875 0.95091 0.65755 0.0
H583 H 0.35985 0.13995 0.62743 0.0
H584 H 0.33217 0.95931 0.6031 0.0
H585 H 0.2521 0.14276 0.66087 0.0
H586 H 0.35311 0.07228 0.62267 0.0
H587 H 0.25259 0.01959 0.66367 0.0
C588 C 0.26799 0.96718 0.64704 0.0
C589 C 0.28998 0.94948 0.62965 0.0
C590 C 0.33075 0.08753 0.63098 0.0
C591 C 0.29467 0.02751 0.63657 0.0
C592 C 0.33466 0.12621 0.63373 0.0
C593 C 0.30653 0.14703 0.64456 0.0
C594 C 0.29861 0.069 0.63936 0.0
C595 C 0.27429 0.12772 0.65225 0.0
C596 C 0.26995 1.00626 0.65038 0.0
C597 C 0.31436 0.9718 0.61644 0.0
N598 N 0.27129 0.08967 0.6497 0.0
N599 N 0.31613 1.00941 0.62023 0.0
H600 H 0.90389 0.7924 0.91425 0.0
H601 H 0.10969 0.7688 0.86065 0.0
H602 H 0.92531 0.76069 0.84118 0.0
H603 H 0.08785 0.79626 0.93427 0.0
H604 H 0.04255 0.76901 0.85267 0.0
H605 H 0.97126 0.79724 0.92145 0.0
C606 C 0.92264 0.78675 0.89965 0.0
C607 C 0.90861 0.77592 0.87707 0.0
C608 C 0.05248 0.77506 0.87057 0.0
C609 C 0.98616 0.78111 0.88527 0.0
C610 C 0.09093 0.77517 0.87512 0.0
C611 C 0.1047 0.78229 0.89824 0.0
C612 C 0.02743 0.78227 0.88922 0.0
C613 C 0.0787 0.78997 0.91626 0.0
C614 C 0.96121 0.7893 0.90382 0.0
C615 C 0.93459 0.76854 0.85896 0.0
N616 N 0.0415 0.78968 0.91139 0.0
N617 N 0.97192 0.77121 0.86346 0.0
H618 H 0.21161 0.9428 0.37046 0.0
H619 H 0.32173 0.11119 0.44004 0.0
H620 H 0.30108 0.92546 0.41956 0.0
H621 H 0.24265 0.12587 0.38376 0.0
H622 H 0.31148 0.0438 0.4353 0.0
H623 H 0.21937 1.00965 0.37789 0.0
C624 C 0.23304 0.95295 0.38282 0.0
C625 C 0.2562 0.9281 0.39404 0.0
C626 C 0.29634 0.06175 0.42401 0.0
C627 C 0.26479 1.00564 0.40302 0.0
C628 C 0.3023 0.10043 0.42658 0.0
C629 C 0.28335 0.12471 0.4121 0.0
C630 C 0.27104 0.04684 0.40689 0.0
C631 C 0.25783 0.10861 0.39543 0.0
C632 C 0.23731 0.99137 0.38714 0.0
C633 C 0.28261 0.94335 0.41046 0.0
N634 N 0.25256 0.07084 0.39326 0.0
N635 N 0.28632 0.98113 0.41435 0.0
H636 H 0.91878 0.2584 0.87991 0.0
H637 H 0.12282 0.27578 0.93938 0.0
H638 H 0.93833 0.28612 0.95401 0.0
H639 H 0.10319 0.2561 0.86454 0.0
H640 H 0.05509 0.27385 0.94582 0.0
H641 H 0.98606 0.25185 0.87452 0.0
C642 C 0.93711 0.2628 0.89508 0.0
C643 C 0.92276 0.27319 0.9174 0.0
C644 C 0.06565 0.26975 0.928 0.0
C645 C 0.99997 0.26594 0.91137 0.0
C646 C 0.10432 0.27058 0.92437 0.0
C647 C 0.11872 0.26645 0.90137 0.0
C648 C 0.04122 0.26451 0.9085 0.0
C649 C 0.09335 0.2601 0.88251 0.0
C650 C 0.97559 0.25926 0.89198 0.0
C651 C 0.94805 0.27881 0.93638 0.0
N652 N 0.05597 0.25948 0.88647 0.0
N653 N 0.9853 0.27523 0.93292 0.0
H654 H 0.74802 0.09376 0.42905 0.0
H655 H 0.80169 0.89165 0.37539 0.0
H656 H 0.8239 0.07583 0.37099 0.0
H657 H 0.72674 0.90747 0.43434 0.0
H658 H 0.81326 0.9592 0.37542 0.0
H659 H 0.74324 0.02577 0.43363 0.0
C660 C 0.76418 0.0756 0.4176 0.0
C661 C 0.78618 0.09042 0.39951 0.0
C662 C 0.79435 0.94788 0.38841 0.0
C663 C 0.78049 1.01282 0.4043 0.0
C664 C 0.78786 0.90918 0.38845 0.0
C665 C 0.76289 0.89358 0.40471 0.0
C666 C 0.77583 0.97136 0.40479 0.0
C667 C 0.7456 0.91803 0.42111 0.0
C668 C 0.76122 0.0368 0.42003 0.0
C669 C 0.80622 0.06555 0.38495 0.0
N670 N 0.75226 0.95555 0.42066 0.0
N671 N 0.8027 0.02816 0.38754 0.0
H672 H 0.30213 0.40197 0.11903 0.0
H673 H 0.18847 0.58567 0.1439 0.0
H674 H 0.18303 0.40832 0.11076 0.0
H675 H 0.30865 0.58756 0.14003 0.0
H676 H 0.18698 0.51951 0.1326 0.0
H677 H 0.30674 0.47 0.12475 0.0
C678 C 0.27721 0.41795 0.11744 0.0
C679 C 0.24215 0.39996 0.11441 0.0
C680 C 0.21375 0.53425 0.13429 0.0
C681 C 0.24689 0.4768 0.12187 0.0
C682 C 0.21457 0.57184 0.14099 0.0
C683 C 0.24869 0.59181 0.14285 0.0
C684 C 0.24733 0.5165 0.12947 0.0
C685 C 0.28181 0.57284 0.13901 0.0
C686 C 0.27973 0.45658 0.12109 0.0
C687 C 0.21051 0.42147 0.11301 0.0
N688 N 0.28033 0.53606 0.13235 0.0
N689 N 0.21355 0.45882 0.11713 0.0
H690 H 0.41488 0.24975 0.58315 0.0
H691 H 0.61991 0.3385 0.59348 0.0
H692 H 0.44021 0.36712 0.59649 0.0
H693 H 0.5935 0.22034 0.58753 0.0
H694 H 0.55516 0.35081 0.58387 0.0
H695 H 0.48023 0.24041 0.57373 0.0
C696 C 0.43396 0.2738 0.58336 0.0
C697 C 0.4222 0.30924 0.59087 0.0
C698 C 0.56369 0.32218 0.5842 0.0
C699 C 0.49724 0.29852 0.58077 0.0
C700 C 0.6007 0.31515 0.58951 0.0
C701 C 0.61184 0.27835 0.59161 0.0
C702 C 0.53774 0.29219 0.58107 0.0
C703 C 0.58577 0.24913 0.58652 0.0
C704 C 0.47139 0.26837 0.57821 0.0
C705 C 0.44831 0.33924 0.59116 0.0
N706 N 0.54977 0.25668 0.58182 0.0
N707 N 0.48477 0.3331 0.5866 0.0
H708 H 0.79075 0.41529 0.12186 0.0
H709 H 0.67705 0.60157 0.14141 0.0
H710 H 0.67074 0.41774 0.12506 0.0
H711 H 0.7968 0.59855 0.1475 0.0
H712 H 0.67441 0.53429 0.13326 0.0
H713 H 0.79402 0.48342 0.12699 0.0
C714 C 0.76511 0.43039 0.12288 0.0
C715 C 0.73041 0.41129 0.12292 0.0
C716 C 0.70127 0.5482 0.1366 0.0
C717 C 0.73386 0.48841 0.12956 0.0
C718 C 0.70269 0.58645 0.14143 0.0
C719 C 0.73712 0.60526 0.14525 0.0
C720 C 0.73457 0.52877 0.13541 0.0
C721 C 0.76968 0.58475 0.14496 0.0
C722 C 0.76697 0.46908 0.12621 0.0
C723 C 0.69796 0.43174 0.12487 0.0
N724 N 0.76766 0.54746 0.13992 0.0
N725 N 0.70048 0.46927 0.12831 0.0
H726 H 0.62578 0.78741 0.57681 0.0
H727 H 0.42016 0.70366 0.5911 0.0
H728 H 0.59988 0.67515 0.5978 0.0
H729 H 0.4477 0.81899 0.57827 0.0
H730 H 0.4849 0.68831 0.5831 0.0
H731 H 0.56055 0.79435 0.56674 0.0
C732 C 0.60659 0.76378 0.57867 0.0
C733 C 0.61826 0.73069 0.58836 0.0
C734 C 0.47661 0.71684 0.58154 0.0
C735 C 0.54322 0.73896 0.5775 0.0
C736 C 0.43962 0.72555 0.58591 0.0
C737 C 0.42884 0.76271 0.5856 0.0
C738 C 0.50282 0.74554 0.57692 0.0
C739 C 0.45517 0.79009 0.57905 0.0
C740 C 0.5692 0.76792 0.57312 0.0
C741 C 0.5919 0.70134 0.59076 0.0
N742 N 0.49112 0.78104 0.57529 0.0
N743 N 0.55544 0.70636 0.58571 0.0
H744 H 0.31102 0.44206 0.86419 0.0
H745 H 0.30243 0.62345 0.94862 0.0
H746 H 0.30961 0.44035 0.94053 0.0
H747 H 0.30686 0.62424 0.87238 0.0
H748 H 0.3178 0.55733 0.94654 0.0
H749 H 0.32232 0.50954 0.86712 0.0
C750 C 0.31367 0.45587 0.88154 0.0
C751 C 0.30846 0.43596 0.90213 0.0
C752 C 0.31603 0.57216 0.93029 0.0
C753 C 0.32088 0.51281 0.90569 0.0
C754 C 0.30738 0.60975 0.93153 0.0
C755 C 0.3026 0.62859 0.91063 0.0
C756 C 0.31975 0.55374 0.90798 0.0
C757 C 0.30947 0.61009 0.88884 0.0
C758 C 0.32001 0.49435 0.88325 0.0
C759 C 0.3123 0.45502 0.92422 0.0
N760 N 0.31718 0.57346 0.88805 0.0
N761 N 0.31772 0.49254 0.92543 0.0
H762 H 0.60846 0.25211 0.41157 0.0
H763 H 0.42568 0.29493 0.33776 0.0
H764 H 0.61193 0.26313 0.33584 0.0
H765 H 0.43158 0.28085 0.41323 0.0
H766 H 0.49331 0.28491 0.33528 0.0
H767 H 0.54292 0.26513 0.41139 0.0
C768 C 0.59507 0.25686 0.39479 0.0
C769 C 0.61513 0.25568 0.37362 0.0
C770 C 0.47961 0.28446 0.35233 0.0
C771 C 0.53983 0.27119 0.37317 0.0
C772 C 0.44122 0.29009 0.35374 0.0
C773 C 0.4233 0.28964 0.3758 0.0
C774 C 0.49959 0.27808 0.37312 0.0
C775 C 0.44436 0.28276 0.39596 0.0
C776 C 0.55763 0.26457 0.39467 0.0
C777 C 0.59694 0.26338 0.35246 0.0
N778 N 0.48123 0.27735 0.39409 0.0
N779 N 0.55992 0.27061 0.3527 0.0
H780 H 0.77459 0.62016 0.86642 0.0
H781 H 0.7858 0.43344 0.93686 0.0
H782 H 0.77675 0.61769 0.9427 0.0
H783 H 0.7752 0.43637 0.86084 0.0
H784 H 0.79151 0.50132 0.93917 0.0
H785 H 0.7842 0.55333 0.86393 0.0
C786 C 0.77709 0.60536 0.88266 0.0
C787 C 0.77397 0.62398 0.90483 0.0
C788 C 0.78816 0.48714 0.92197 0.0
C789 C 0.78525 0.54783 0.90212 0.0
C790 C 0.7846 0.44849 0.92065 0.0
C791 C 0.77915 0.42955 0.89865 0.0
C792 C 0.78622 0.50688 0.90114 0.0
C793 C 0.77908 0.45008 0.87813 0.0
C794 C 0.78279 0.56734 0.88123 0.0
C795 C 0.77861 0.60405 0.92532 0.0
N796 N 0.78216 0.48782 0.8799 0.0
N797 N 0.78358 0.56675 0.92349 0.0
H798 H 0.43724 0.78267 0.39948 0.0
H799 H 0.61539 0.71826 0.32616 0.0
H800 H 0.42894 0.74746 0.32561 0.0
H801 H 0.61114 0.73927 0.40191 0.0
H802 H 0.54838 0.7309 0.32391 0.0
H803 H 0.50278 0.76967 0.39899 0.0
C804 C 0.44947 0.77273 0.38297 0.0
C805 C 0.42787 0.76686 0.3624 0.0
C806 C 0.56226 0.73226 0.34097 0.0
C807 C 0.50317 0.7507 0.36186 0.0
C808 C 0.60031 0.72512 0.34226 0.0
C809 C 0.61858 0.72699 0.36429 0.0
C810 C 0.54293 0.74171 0.36185 0.0
C811 C 0.59805 0.73636 0.38462 0.0
C812 C 0.48691 0.76485 0.38276 0.0
C813 C 0.44489 0.75258 0.34177 0.0
N814 N 0.56147 0.74336 0.38286 0.0
N815 N 0.48182 0.74502 0.34197 0.0
H816 H 0.30255 0.21683 0.08666 0.0
H817 H 0.2002 0.18803 0.9639 0.0
H818 H 0.19127 0.16932 0.07755 0.0
H819 H 0.31662 0.21998 0.97015 0.0
H820 H 0.2011 0.16737 1.00455 0.0
H821 H 0.31355 0.20551 0.0441 0.0
C822 C 0.28106 0.20254 0.07589 0.0
C823 C 0.24593 0.19405 0.08549 0.0
C824 C 0.22691 0.17765 0.99688 0.0
C825 C 0.25779 0.1819 0.03692 0.0
C826 C 0.22642 0.18886 0.9735 0.0
C827 C 0.25851 0.20492 0.96363 0.0
C828 C 0.25947 0.18374 1.01067 0.0
C829 C 0.29148 0.20697 0.9771 0.0
C830 C 0.28714 0.19642 0.05154 0.0
C831 C 0.21872 0.17634 0.07073 0.0
N832 N 0.29096 0.19734 1.00015 0.0
N833 N 0.22497 0.17144 0.04716 0.0
H834 H 0.84061 0.18696 0.4704 0.0
H835 H 0.80244 0.3107 0.58567 0.0
H836 H 0.8121 0.30224 0.46816 0.0
H837 H 0.86091 0.20771 0.58713 0.0
H838 H 0.81046 0.3105 0.5427 0.0
H839 H 0.85437 0.196 0.51279 0.0
C840 C 0.83899 0.21461 0.47869 0.0
C841 C 0.82634 0.24418 0.46579 0.0
C842 C 0.82223 0.28834 0.55246 0.0
C843 C 0.83976 0.25435 0.51443 0.0
C844 C 0.81762 0.28843 0.57703 0.0
C845 C 0.83092 0.25913 0.59008 0.0
C846 C 0.83983 0.25846 0.54075 0.0
C847 C 0.85035 0.23099 0.57788 0.0
C848 C 0.84632 0.21971 0.50293 0.0
C849 C 0.82288 0.27908 0.47747 0.0
N850 N 0.85369 0.23105 0.55389 0.0
N851 N 0.82892 0.28309 0.50124 0.0
H852 H 0.82218 0.80486 0.95103 0.0
H853 H 0.73009 0.86067 0.07352 0.0
H854 H 0.73805 0.88772 0.9581 0.0
H855 H 0.83071 0.79899 0.0678 0.0
H856 H 0.73719 0.8777 0.03218 0.0
H857 H 0.82995 0.80743 0.99403 0.0
C858 C 0.80578 0.82408 0.96159 0.0
C859 C 0.77931 0.84602 0.95091 0.0
C860 C 0.75851 0.86155 0.04014 0.0
C861 C 0.78782 0.84886 1.00029 0.0
C862 C 0.75472 0.85238 0.06385 0.0
C863 C 0.78042 0.82935 0.07412 0.0
C864 C 0.78767 0.84664 0.02652 0.0
C865 C 0.81092 0.8177 0.06059 0.0
C866 C 0.81028 0.82559 0.98618 0.0
C867 C 0.75889 0.87042 0.96552 0.0
N868 N 0.81336 0.8259 0.03735 0.0
N869 N 0.76317 0.87077 0.98947 0.0
H870 H 0.23677 0.72233 0.46098 0.0
H871 H 0.18274 0.83853 0.57929 0.0
H872 H 0.20389 0.83656 0.4623 0.0
H873 H 0.24114 0.73536 0.57883 0.0
H874 H 0.17623 0.83172 0.53624 0.0
H875 H 0.22377 0.7202 0.50356 0.0
C876 C 0.22508 0.74639 0.47007 0.0
C877 C 0.22029 0.77934 0.45809 0.0
C878 C 0.18997 0.81028 0.5456 0.0
C879 C 0.20685 0.77774 0.50689 0.0
C880 C 0.19348 0.81398 0.57026 0.0
C881 C 0.2127 0.78756 0.58282 0.0
C882 C 0.20556 0.77981 0.53329 0.0
C883 C 0.22636 0.75658 0.56995 0.0
C884 C 0.21828 0.7454 0.49443 0.0
C885 C 0.20686 0.81035 0.47083 0.0
N886 N 0.22278 0.75371 0.54592 0.0
N887 N 0.20085 0.8089 0.49457 0.0
H888 H 0.21557 0.8755 0.95948 0.0
H889 H 0.32643 0.80125 0.07038 0.0
H890 H 0.31575 0.81254 0.95353 0.0
H891 H 0.21444 0.84033 0.07449 0.0
H892 H 0.32995 0.81971 0.02912 0.0
H893 H 0.22149 0.87615 1.00263 0.0
C894 C 0.23927 0.86247 0.96718 0.0
C895 C 0.26515 0.84384 0.95272 0.0
C896 C 0.30501 0.82541 0.03923 0.0
C897 C 0.27193 0.84434 1.00235 0.0
C898 C 0.30329 0.81556 0.06292 0.0
C899 C 0.27053 0.82041 0.07605 0.0
C900 C 0.27355 0.83994 0.02849 0.0
C901 C 0.24061 0.83728 0.0652 0.0
C902 C 0.24248 0.86267 0.99188 0.0
C903 C 0.29502 0.8271 0.96388 0.0
N904 N 0.24268 0.84612 0.04199 0.0
N905 N 0.29744 0.82754 0.98797 0.0
H906 H 0.18101 0.30455 0.46912 0.0
H907 H 0.24153 0.23046 0.59344 0.0
H908 H 0.25141 0.21132 0.47801 0.0
H909 H 0.18616 0.33347 0.58348 0.0
H910 H 0.22733 0.21136 0.55217 0.0
H911 H 0.16454 0.3033 0.5112 0.0
C912 C 0.19149 0.28268 0.47974 0.0
C913 C 0.21719 0.25776 0.47027 0.0
C914 C 0.21731 0.23766 0.55923 0.0
C915 C 0.19987 0.25693 0.51837 0.0
C916 C 0.22512 0.2484 0.58287 0.0
C917 C 0.21548 0.28385 0.59172 0.0
C918 C 0.19959 0.26249 0.54455 0.0
C919 C 0.19448 0.30609 0.5772 0.0
C920 C 0.18255 0.28223 0.50381 0.0
C921 C 0.23113 0.23072 0.4848 0.0
N922 N 0.18782 0.29537 0.55423 0.0
N923 N 0.22279 0.23136 0.50825 0.0
H924 H 0.80626 0.22583 0.08751 0.0
H925 H 0.71857 0.17216 0.96141 0.0
H926 H 0.69492 0.18037 0.07481 0.0
H927 H 0.82694 0.22563 0.97138 0.0
H928 H 0.71789 0.1571 1.00318 0.0
H929 H 0.82195 0.20986 0.04605 0.0
C930 C 0.78557 0.21137 0.0762 0.0
C931 C 0.74918 0.20464 0.08438 0.0
C932 C 0.74252 0.17092 0.99614 0.0
C933 C 0.76662 0.18664 0.0372 0.0
C934 C 0.74313 0.17884 0.97217 0.0
C935 C 0.77313 0.19944 0.96299 0.0
C936 C 0.77173 0.18464 1.01109 0.0
C937 C 0.80366 0.20895 0.97783 0.0
C938 C 0.7944 0.20248 0.05253 0.0
C939 C 0.72319 0.18633 0.06904 0.0
N940 N 0.80186 0.20226 1.00133 0.0
N941 N 0.73226 0.17839 0.04615 0.0
H942 H 0.79682 0.81583 0.46256 0.0
H943 H 0.85512 0.70599 0.57428 0.0
H944 H 0.85753 0.7144 0.45925 0.0
H945 H 0.79689 0.80909 0.57919 0.0
H946 H 0.8696 0.7172 0.53302 0.0
H947 H 0.80982 0.82262 0.50514 0.0
C948 C 0.81453 0.79601 0.47068 0.0
C949 C 0.82686 0.76494 0.45745 0.0
C950 C 0.85441 0.73793 0.54316 0.0
C951 C 0.84032 0.7714 0.50623 0.0
C952 C 0.84634 0.73163 0.56681 0.0
C953 C 0.82461 0.75653 0.58011 0.0
C954 C 0.84003 0.76907 0.53249 0.0
C955 C 0.81381 0.78922 0.56956 0.0
C956 C 0.82151 0.79958 0.49503 0.0
C957 C 0.84835 0.73919 0.46881 0.0
N958 N 0.82091 0.79415 0.54617 0.0
N959 N 0.85389 0.74265 0.49264 0.0
H960 H 0.59761 0.28699 0.1704 0.0
H961 H 0.39099 0.21302 0.13334 0.0
H962 H 0.57563 0.18106 0.13333 0.0
H963 H 0.4157 0.3078 0.18107 0.0
H964 H 0.45808 0.20225 0.13068 0.0
H965 H 0.5307 0.29733 0.17124 0.0
C966 C 0.57882 0.26597 0.16227 0.0
C967 C 0.59251 0.23298 0.15187 0.0
C968 C 0.4486 0.22545 0.14166 0.0
C969 C 0.51531 0.24453 0.15297 0.0
C970 C 0.41017 0.23157 0.14327 0.0
C971 C 0.39701 0.26164 0.1573 0.0
C972 C 0.47419 0.24963 0.15405 0.0
C973 C 0.42379 0.28471 0.16962 0.0
C974 C 0.54046 0.27177 0.16291 0.0
C975 C 0.56645 0.20664 0.14187 0.0
N976 N 0.46077 0.27828 0.16762 0.0
N977 N 0.5292 0.21296 0.14266 0.0
H978 H 0.8087 0.40334 0.64005 0.0
H979 H 0.72345 0.60689 0.65949 0.0
H980 H 0.70146 0.42323 0.67166 0.0
H981 H 0.83636 0.58934 0.6365 0.0
H982 H 0.71296 0.53924 0.6605 0.0
H983 H 0.81741 0.47077 0.63499 0.0
C984 C 0.7869 0.42175 0.64579 0.0
C985 C 0.75452 0.4074 0.65661 0.0
C986 C 0.74004 0.55018 0.65519 0.0
C987 C 0.76429 0.48479 0.6509 0.0
C988 C 0.74598 0.58892 0.65448 0.0
C989 C 0.78098 0.60412 0.64808 0.0
C990 C 0.76917 0.52619 0.64931 0.0
C991 C 0.80914 0.57911 0.64196 0.0
C992 C 0.79195 0.4603 0.64302 0.0
C993 C 0.72726 0.43284 0.66373 0.0
N994 N 0.80266 0.54155 0.64275 0.0
N995 N 0.73278 0.47007 0.6608 0.0
H996 H 0.59935 0.84904 0.1328 0.0
H997 H 0.43114 0.69661 0.12378 0.0
H998 H 0.61353 0.73033 0.13582 0.0
H999 H 0.41357 0.81495 0.1252 0.0
H1000 H 0.49785 0.70914 0.12799 0.0
H1001 H 0.53199 0.83773 0.13 0.0
C1002 C 0.58856 0.82058 0.13302 0.0
C1003 C 0.61278 0.79067 0.13462 0.0
C1004 C 0.47957 0.73248 0.12736 0.0
C1005 C 0.53486 0.77755 0.13108 0.0
C1006 C 0.44125 0.72535 0.12476 0.0
C1007 C 0.41638 0.75476 0.12367 0.0
C1008 C 0.49373 0.76941 0.12894 0.0
C1009 C 0.43151 0.79139 0.12587 0.0
C1010 C 0.54986 0.81418 0.1313 0.0
C1011 C 0.5965 0.75442 0.13438 0.0
N1012 N 0.46918 0.79767 0.12825 0.0
N1013 N 0.55878 0.74897 0.13264 0.0
H1014 H 0.32466 0.4495 0.65938 0.0
H1015 H 0.232 0.64735 0.63999 0.0
H1016 H 0.20781 0.46067 0.64402 0.0
H1017 H 0.34513 0.63484 0.66361 0.0
H1018 H 0.22371 0.57892 0.63738 0.0
H1019 H 0.33384 0.51713 0.65714 0.0
C1020 C 0.30097 0.46604 0.65534 0.0
C1021 C 0.26532 0.44914 0.6521 0.0
C1022 C 0.25036 0.59124 0.64309 0.0
C1023 C 0.2756 0.52707 0.6496 0.0
C1024 C 0.25514 0.63032 0.64445 0.0
C1025 C 0.28911 0.64707 0.65239 0.0
C1026 C 0.27989 0.5687 0.64949 0.0
C1027 C 0.31814 0.62341 0.65794 0.0
C1028 C 0.30617 0.5048 0.65419 0.0
C1029 C 0.23565 0.47236 0.64709 0.0
N1030 N 0.31284 0.58569 0.65646 0.0
N1031 N 0.24143 0.50998 0.64605 0.0
H1032 H 0.59035 0.81676 0.93174 0.0
H1033 H 0.42431 0.77583 0.83833 0.0
H1034 H 0.60864 0.77956 0.85924 0.0
H1035 H 0.40634 0.79893 0.91292 0.0
H1036 H 0.49141 0.78119 0.84502 0.0
H1037 H 0.52341 0.81461 0.92441 0.0
C1038 C 0.58042 0.80803 0.91423 0.0
C1039 C 0.60559 0.79789 0.89618 0.0
C1040 C 0.47286 0.78517 0.85994 0.0
C1041 C 0.52804 0.79593 0.88754 0.0
C1042 C 0.4343 0.78193 0.85618 0.0
C1043 C 0.40913 0.78651 0.87512 0.0
C1044 C 0.48688 0.79334 0.88282 0.0
C1045 C 0.42432 0.79533 0.89771 0.0
C1046 C 0.54197 0.80698 0.91005 0.0
C1047 C 0.5906 0.78778 0.87371 0.0
N1048 N 0.46208 0.79832 0.90092 0.0
N1049 N 0.55289 0.78692 0.87008 0.0
H1050 H 0.30339 0.42524 0.41325 0.0
H1051 H 0.21933 0.62646 0.39275 0.0
H1052 H 0.19051 0.4398 0.38952 0.0
H1053 H 0.33275 0.60933 0.41434 0.0
H1054 H 0.20837 0.5585 0.39009 0.0
H1055 H 0.31476 0.49254 0.41246 0.0
C1056 C 0.28098 0.44233 0.40768 0.0
C1057 C 0.24577 0.42627 0.40153 0.0
C1058 C 0.23565 0.5697 0.39541 0.0
C1059 C 0.25867 0.5043 0.40089 0.0
C1060 C 0.24199 0.60861 0.39683 0.0
C1061 C 0.27693 0.6241 0.4041 0.0
C1062 C 0.26444 0.5459 0.40123 0.0
C1063 C 0.3051 0.59915 0.4092 0.0
C1064 C 0.28749 0.48104 0.40737 0.0
C1065 C 0.21791 0.45057 0.39478 0.0
N1066 N 0.2982 0.5616 0.40775 0.0
N1067 N 0.22491 0.48816 0.39471 0.0
H1068 H 0.416 0.22743 0.89103 0.0
H1069 H 0.62469 0.29641 0.92693 0.0
H1070 H 0.44236 0.31686 0.9423 0.0
H1071 H 0.59955 0.20931 0.8738 0.0
H1072 H 0.55796 0.30602 0.93144 0.0
H1073 H 0.48287 0.22202 0.88306 0.0
C1074 C 0.43569 0.24606 0.90052 0.0
C1075 C 0.42328 0.27226 0.91764 0.0
C1076 C 0.56706 0.28484 0.91874 0.0
C1077 C 0.50009 0.26609 0.9087 0.0
C1078 C 0.60535 0.27945 0.91604 0.0
C1079 C 0.61817 0.25173 0.90006 0.0
C1080 C 0.54114 0.26237 0.9054 0.0
C1081 C 0.59127 0.23051 0.88667 0.0
C1082 C 0.47395 0.24286 0.89603 0.0
C1083 C 0.45037 0.29559 0.92939 0.0
N1084 N 0.5542 0.23615 0.88971 0.0
N1085 N 0.48729 0.29184 0.92478 0.0
H1086 H 0.82528 0.39084 0.39334 0.0
H1087 H 0.74336 0.59596 0.40978 0.0
H1088 H 0.71764 0.41376 0.4236 0.0
H1089 H 0.85071 0.57495 0.37845 0.0
H1090 H 0.73286 0.52901 0.41353 0.0
H1091 H 0.83447 0.45752 0.38626 0.0
C1092 C 0.8035 0.40969 0.39842 0.0
C1093 C 0.77082 0.39633 0.40942 0.0
C1094 C 0.75872 0.53901 0.40578 0.0
C1095 C 0.78129 0.47306 0.40144 0.0
C1096 C 0.76469 0.57746 0.40348 0.0
C1097 C 0.79814 0.59163 0.39382 0.0
C1098 C 0.78631 0.51417 0.39841 0.0
C1099 C 0.82475 0.56571 0.38633 0.0
C1100 C 0.80885 0.44787 0.39446 0.0
C1101 C 0.74369 0.42247 0.41561 0.0
N1102 N 0.81832 0.52842 0.38883 0.0
N1103 N 0.74959 0.45933 0.41162 0.0
H1104 H 0.2575 0.20323 0.34703 0.0
H1105 H 0.29362 0.1981 0.22482 0.0
H1106 H 0.18975 0.2917 0.32346 0.0
H1107 H 0.17709 0.22117 0.21823 0.0
H1108 H 0.2857 0.19545 0.26798 0.0
H1109 H 0.25758 0.17615 0.30631 0.0
C1110 C 0.24182 0.21638 0.33345 0.0
C1111 C 0.22402 0.2501 0.33844 0.0
C1112 C 0.2615 0.19924 0.25695 0.0
C1113 C 0.22353 0.21903 0.29235 0.0
C1114 C 0.26599 0.20041 0.23235 0.0
C1115 C 0.23584 0.20942 0.21813 0.0
C1116 C 0.22685 0.20792 0.26705 0.0
C1117 C 0.20086 0.21376 0.22872 0.0
C1118 C 0.24216 0.20105 0.31027 0.0
C1119 C 0.20405 0.26589 0.32027 0.0
N1120 N 0.19754 0.21409 0.25261 0.0
N1121 N 0.2044 0.25025 0.29801 0.0
H1122 H 0.79759 0.30551 0.82928 0.0
H1123 H 0.7736 0.17581 0.71484 0.0
H1124 H 0.77996 0.18651 0.83193 0.0
H1125 H 0.81599 0.28931 0.71322 0.0
H1126 H 0.7852 0.1765 0.75748 0.0
H1127 H 0.81353 0.29842 0.78743 0.0
C1128 C 0.79829 0.2777 0.82114 0.0
C1129 C 0.788 0.24644 0.83403 0.0
C1130 C 0.79306 0.20095 0.7478 0.0
C1131 C 0.80471 0.23815 0.78584 0.0
C1132 C 0.7867 0.20044 0.72342 0.0
C1133 C 0.79427 0.2324 0.71058 0.0
C1134 C 0.80612 0.23408 0.75953 0.0
C1135 C 0.81043 0.2639 0.72249 0.0
C1136 C 0.80719 0.27366 0.79719 0.0
C1137 C 0.78833 0.21116 0.82259 0.0
N1138 N 0.8151 0.26423 0.74644 0.0
N1139 N 0.79591 0.20799 0.79898 0.0
H1140 H 0.82951 0.76387 0.19575 0.0
H1141 H 0.78695 0.80781 0.33322 0.0
H1142 H 0.73314 0.82221 0.22066 0.0
H1143 H 0.84223 0.70941 0.30741 0.0
H1144 H 0.78313 0.82841 0.29236 0.0
H1145 H 0.85003 0.75907 0.23708 0.0
C1146 C 0.81337 0.77678 0.20984 0.0
C1147 C 0.77957 0.79345 0.20484 0.0
C1148 C 0.79689 0.80277 0.29578 0.0
C1149 C 0.80287 0.78821 0.25194 0.0
C1150 C 0.79936 0.79114 0.3191 0.0
C1151 C 0.81467 0.75665 0.32369 0.0
C1152 C 0.81065 0.78022 0.27705 0.0
C1153 C 0.83002 0.73607 0.30462 0.0
C1154 C 0.8249 0.77374 0.2334 0.0
C1155 C 0.75938 0.80914 0.22381 0.0
N1156 N 0.82743 0.74801 0.28215 0.0
N1157 N 0.77121 0.80602 0.24651 0.0
H1158 H 0.17918 0.79063 0.81888 0.0
H1159 H 0.29716 0.87466 0.71327 0.0
H1160 H 0.28011 0.85801 0.82879 0.0
H1161 H 0.20932 0.79045 0.70327 0.0
H1162 H 0.28129 0.88104 0.75509 0.0
H1163 H 0.17987 0.8033 0.77676 0.0
C1164 C 0.20082 0.80923 0.81226 0.0
C1165 C 0.22961 0.82341 0.82729 0.0
C1166 C 0.26502 0.8616 0.74375 0.0
C1167 C 0.23111 0.83722 0.77895 0.0
C1168 C 0.27397 0.85796 0.71982 0.0
C1169 C 0.25471 0.8317 0.70482 0.0
C1170 C 0.23663 0.8387 0.75292 0.0
C1171 C 0.22478 0.81108 0.71421 0.0
C1172 C 0.20137 0.81613 0.78817 0.0
C1173 C 0.25715 0.84699 0.81785 0.0
N1174 N 0.21698 0.81463 0.7378 0.0
N1175 N 0.25757 0.85268 0.79414 0.0
H1176 H 0.70802 0.84913 0.81406 0.0
H1177 H 0.76811 0.83759 0.69856 0.0
H1178 H 0.81905 0.82033 0.83382 0.0
H1179 H 0.82081 0.7433 0.72738 0.0
H1180 H 0.76649 0.86739 0.73851 0.0
H1181 H 0.72748 0.8494 0.77258 0.0
C1182 C 0.73705 0.84493 0.80976 0.0
C1183 C 0.76214 0.83536 0.82735 0.0
C1184 C 0.7795 0.84075 0.73591 0.0
C1185 C 0.78413 0.83354 0.77995 0.0
C1186 C 0.7809 0.82401 0.71317 0.0
C1187 C 0.79505 0.78826 0.70984 0.0
C1188 C 0.79262 0.82155 0.75526 0.0
C1189 C 0.81014 0.77112 0.72933 0.0
C1190 C 0.74811 0.84474 0.78607 0.0
C1191 C 0.79906 0.82842 0.82078 0.0
N1192 N 0.80835 0.78786 0.75131 0.0
N1193 N 0.80864 0.82631 0.79748 0.0
H1194 H 0.34519 0.77336 0.21956 0.0
H1195 H 0.18323 0.72863 0.30815 0.0
H1196 H 0.23145 0.7941 0.20038 0.0
H1197 H 0.28582 0.7826 0.33325 0.0
H1198 H 0.20106 0.7432 0.26759 0.0
H1199 H 0.32571 0.76857 0.26078 0.0
C1200 C 0.31611 0.77705 0.22389 0.0
C1201 C 0.28972 0.78281 0.20606 0.0
C1202 C 0.21974 0.7515 0.28209 0.0
C1203 C 0.26719 0.77626 0.25337 0.0
C1204 C 0.20975 0.74302 0.30528 0.0
C1205 C 0.23368 0.75302 0.32444 0.0
C1206 C 0.25433 0.76937 0.27785 0.0
C1207 C 0.26732 0.77233 0.31933 0.0
C1208 C 0.30505 0.77417 0.24748 0.0
C1209 C 0.25253 0.78778 0.21312 0.0
N1210 N 0.27688 0.77935 0.2966 0.0
N1211 N 0.2422 0.78357 0.2361 0.0
H1212 H 0.2324 0.23706 0.71345 0.0
H1213 H 0.32137 0.2689 0.84273 0.0
H1214 H 0.3039 0.33085 0.7362 0.0
H1215 H 0.22351 0.19715 0.83104 0.0
H1216 H 0.31957 0.28505 0.80143 0.0
H1217 H 0.2304 0.21707 0.75479 0.0
C1218 C 0.24702 0.25375 0.72715 0.0
C1219 C 0.26856 0.28549 0.72141 0.0
C1220 C 0.29853 0.26559 0.80781 0.0
C1221 C 0.26722 0.26247 0.76815 0.0
C1222 C 0.29969 0.25618 0.83143 0.0
C1223 C 0.27235 0.23192 0.84053 0.0
C1224 C 0.27 0.25046 0.7929 0.0
C1225 C 0.24522 0.21595 0.8248 0.0
C1226 C 0.24616 0.2422 0.75062 0.0
C1227 C 0.2873 0.30595 0.73974 0.0
N1228 N 0.24458 0.22565 0.80172 0.0
N1229 N 0.28646 0.29394 0.76213 0.0
H1230 H 0.7568 0.24684 0.33986 0.0
H1231 H 0.82178 0.23422 0.20646 0.0
H1232 H 0.87224 0.26551 0.32173 0.0
H1233 H 0.71385 0.19796 0.23166 0.0
H1234 H 0.84427 0.24032 0.24764 0.0
H1235 H 0.74291 0.22697 0.29991 0.0
C1236 C 0.77935 0.2473 0.32754 0.0
C1237 C 0.81572 0.25795 0.33465 0.0
C1238 C 0.81609 0.22976 0.24409 0.0
C1239 C 0.80001 0.23449 0.28763 0.0
C1240 C 0.80348 0.22561 0.22062 0.0
C1241 C 0.76612 0.21497 0.21584 0.0
C1242 C 0.79089 0.22348 0.26263 0.0
C1243 C 0.74299 0.20564 0.2347 0.0
C1244 C 0.77144 0.23528 0.30444 0.0
C1245 C 0.84369 0.25743 0.31721 0.0
N1246 N 0.75559 0.21058 0.25725 0.0
N1247 N 0.83525 0.24594 0.29441 0.0
loop_
_geom_bond_atom_site_label_1
_geom_bond_atom_site_label_2
_geom_bond_distance
_geom_bond_site_symmetry_2
_ccdc_geom_bond_type
C0 C1 1.351 . S
C0 N3 1.368 . S
C0 H5 0.931 . S
C1 C0 1.351 . S
C1 N2 1.373 . S
C1 H29 0.930 . S
N2 C1 1.373 . S
N2 C4 1.340 . S
N3 C0 1.368 . S
N3 C4 1.321 . S
N3 Co6 2.135 . S
C4 N2 1.340 . S
C4 N3 1.321 . S
C4 H28 0.930 . S
H5 C0 0.931 . S
Co6 N3 2.135 . S
Co6 N9 2.121 . S
Co6 O14 2.055 . S
Co6 O17 2.039 . S
Co6 N20 2.140 . S
C7 O8 1.227 . S
C7 O17 1.265 . S
O8 C7 1.227 . S
N9 Co6 2.121 . S
N9 C11 1.375 . S
N9 C12 1.313 . S
C10 C11 1.338 . S
C10 N13 1.377 . S
C10 H30 0.930 . S
C11 N9 1.375 . S
C11 C10 1.338 . S
C11 H15 0.931 . S
C12 N9 1.313 . S
C12 N13 1.344 . S
C12 H16 0.930 . S
N13 C10 1.377 . S
N13 C12 1.344 . S
O14 Co6 2.055 . S
O14 C18 1.253 . S
H15 C11 0.931 . S
H16 C12 0.930 . S
O17 Co6 2.039 . S
O17 C7 1.265 . S
C18 O14 1.253 . S
C18 O19 1.227 . S
O19 C18 1.227 . S
N20 Co6 2.140 . S
N20 C23 1.346 . S
N20 C24 1.345 . S
C21 C22 1.387 . S
C21 C25 1.391 . S
C22 C21 1.387 . S
C22 C23 1.369 . S
C22 H31 0.929 . S
C23 N20 1.346 . S
C23 C22 1.369 . S
C23 H26 0.928 . S
C24 N20 1.345 . S
C24 C25 1.371 . S
C24 H27 0.931 . S
C25 C21 1.391 . S
C25 C24 1.371 . S
C25 H32 0.930 . S
H26 C23 0.928 . S
H27 C24 0.931 . S
H28 C4 0.930 . S
H29 C1 0.930 . S
H30 C10 0.930 . S
H31 C22 0.929 . S
H32 C25 0.930 . S
C33 C34 1.351 . S
C33 N36 1.368 . S
C33 H38 0.931 . S
C34 C33 1.351 . S
C34 N35 1.373 . S
C34 H62 0.930 . S
N35 C34 1.373 . S
N35 C37 1.340 . S
N36 C33 1.368 . S
N36 C37 1.321 . S
N36 Co39 2.135 . S
C37 N35 1.340 . S
C37 N36 1.321 . S
C37 H61 0.930 . S
H38 C33 0.931 . S
Co39 N36 2.135 . S
Co39 N42 2.121 . S
Co39 O47 2.055 . S
Co39 O50 2.039 . S
Co39 N53 2.140 . S
C40 O41 1.227 . S
C40 O50 1.265 . S
O41 C40 1.227 . S
N42 Co39 2.121 . S
N42 C44 1.375 . S
N42 C45 1.313 . S
C43 C44 1.338 . S
C43 N46 1.377 . S
C43 H63 0.930 . S
C44 N42 1.375 . S
C44 C43 1.338 . S
C44 H48 0.931 . S
C45 N42 1.313 . S
C45 N46 1.344 . S
C45 H49 0.930 . S
N46 C43 1.377 . S
N46 C45 1.344 . S
O47 Co39 2.055 . S
O47 C51 1.253 . S
H48 C44 0.931 . S
H49 C45 0.930 . S
O50 Co39 2.039 . S
O50 C40 1.265 . S
C51 O47 1.253 . S
C51 O52 1.227 . S
O52 C51 1.227 . S
N53 Co39 2.140 . S
N53 C56 1.346 . S
N53 C57 1.345 . S
C54 C55 1.387 . S
C54 C58 1.391 . S
C55 C54 1.387 . S
C55 C56 1.369 . S
C55 H64 0.929 . S
C56 N53 1.346 . S
C56 C55 1.369 . S
C56 H59 0.928 . S
C57 N53 1.345 . S
C57 C58 1.371 . S
C57 H60 0.931 . S
C58 C54 1.391 . S
C58 C57 1.371 . S
C58 H65 0.930 . S
H59 C56 0.928 . S
H60 C57 0.931 . S
H61 C37 0.930 . S
H62 C34 0.930 . S
H63 C43 0.930 . S
H64 C55 0.929 . S
H65 C58 0.930 . S
C66 C67 1.351 . S
C66 N69 1.368 . S
C66 H71 0.931 . S
C67 C66 1.351 . S
C67 N68 1.373 . S
C67 H95 0.930 . S
N68 C67 1.373 . S
N68 C70 1.340 . S
N69 C66 1.368 . S
N69 C70 1.321 . S
N69 Co72 2.135 . S
C70 N68 1.340 . S
C70 N69 1.321 . S
C70 H94 0.930 . S
H71 C66 0.931 . S
Co72 N69 2.135 . S
Co72 N75 2.121 . S
Co72 O80 2.055 . S
Co72 O83 2.039 . S
Co72 N86 2.140 . S
C73 O74 1.227 . S
C73 O83 1.265 . S
O74 C73 1.227 . S
N75 Co72 2.121 . S
N75 C77 1.375 . S
N75 C78 1.313 . S
C76 C77 1.338 . S
C76 N79 1.377 . S
C76 H96 0.930 . S
C77 N75 1.375 . S
C77 C76 1.338 . S
C77 H81 0.931 . S
C78 N75 1.313 . S
C78 N79 1.344 . S
C78 H82 0.930 . S
N79 C76 1.377 . S
N79 C78 1.344 . S
O80 Co72 2.055 . S
O80 C84 1.253 . S
H81 C77 0.931 . S
H82 C78 0.930 . S
O83 Co72 2.039 . S
O83 C73 1.265 . S
C84 O80 1.253 . S
C84 O85 1.227 . S
O85 C84 1.227 . S
N86 Co72 2.140 . S
N86 C89 1.346 . S
N86 C90 1.345 . S
C87 C88 1.387 . S
C87 C91 1.391 . S
C88 C87 1.387 . S
C88 C89 1.369 . S
C88 H97 0.929 . S
C89 N86 1.346 . S
C89 C88 1.369 . S
C89 H92 0.928 . S
C90 N86 1.345 . S
C90 C91 1.371 . S
C90 H93 0.931 . S
C91 C87 1.391 . S
C91 C90 1.371 . S
C91 H98 0.930 . S
H92 C89 0.928 . S
H93 C90 0.931 . S
H94 C70 0.930 . S
H95 C67 0.930 . S
H96 C76 0.930 . S
H97 C88 0.929 . S
H98 C91 0.930 . S
C99 C100 1.351 . S
C99 N102 1.368 . S
C99 H104 0.931 . S
C100 C99 1.351 . S
C100 N101 1.373 . S
C100 H128 0.930 . S
N101 C100 1.373 . S
N101 C103 1.340 . S
N102 C99 1.368 . S
N102 C103 1.321 . S
N102 Co105 2.135 . S
C103 N101 1.340 . S
C103 N102 1.321 . S
C103 H127 0.930 . S
H104 C99 0.931 . S
Co105 N102 2.135 . S
Co105 N108 2.121 . S
Co105 O113 2.055 . S
Co105 O116 2.039 . S
Co105 N119 2.140 . S
C106 O107 1.227 . S
C106 O116 1.265 . S
O107 C106 1.227 . S
N108 Co105 2.121 . S
N108 C110 1.375 . S
N108 C111 1.313 . S
C109 C110 1.338 . S
C109 N112 1.377 . S
C109 H129 0.930 . S
C110 N108 1.375 . S
C110 C109 1.338 . S
C110 H114 0.931 . S
C111 N108 1.313 . S
C111 N112 1.344 . S
C111 H115 0.930 . S
N112 C109 1.377 . S
N112 C111 1.344 . S
O113 Co105 2.055 . S
O113 C117 1.253 . S
H114 C110 0.931 . S
H115 C111 0.930 . S
O116 Co105 2.039 . S
O116 C106 1.265 . S
C117 O113 1.253 . S
C117 O118 1.227 . S
O118 C117 1.227 . S
N119 Co105 2.140 . S
N119 C122 1.346 . S
N119 C123 1.345 . S
C120 C121 1.387 . S
C120 C124 1.391 . S
C121 C120 1.387 . S
C121 C122 1.369 . S
C121 H130 0.929 . S
C122 N119 1.346 . S
C122 C121 1.369 . S
C122 H125 0.928 . S
C123 N119 1.345 . S
C123 C124 1.371 . S
C123 H126 0.931 . S
C124 C120 1.391 . S
C124 C123 1.371 . S
C124 H131 0.930 . S
H125 C122 0.928 . S
H126 C123 0.931 . S
H127 C103 0.930 . S
H128 C100 0.930 . S
H129 C109 0.930 . S
H130 C121 0.929 . S
H131 C124 0.930 . S
C132 C133 1.351 . S
C132 N135 1.368 . S
C132 H137 0.931 . S
C133 C132 1.351 . S
C133 N134 1.373 . S
C133 H161 0.930 . S
N134 C133 1.373 . S
N134 C136 1.340 . S
N135 C132 1.368 . S
N135 C136 1.321 . S
N135 Co138 2.135 . S
C136 N134 1.340 . S
C136 N135 1.321 . S
C136 H160 0.930 . S
H137 C132 0.931 . S
Co138 N135 2.135 . S
Co138 N141 2.121 . S
Co138 O146 2.055 . S
Co138 O149 2.039 . S
Co138 N152 2.140 . S
C139 O140 1.227 . S
C139 O149 1.265 . S
O140 C139 1.227 . S
N141 Co138 2.121 . S
N141 C143 1.375 . S
N141 C144 1.313 . S
C142 C143 1.338 . S
C142 N145 1.377 . S
C142 H162 0.930 . S
C143 N141 1.375 . S
C143 C142 1.338 . S
C143 H147 0.931 . S
C144 N141 1.313 . S
C144 N145 1.344 . S
C144 H148 0.930 . S
N145 C142 1.377 . S
N145 C144 1.344 . S
O146 Co138 2.055 . S
O146 C150 1.253 . S
H147 C143 0.931 . S
H148 C144 0.930 . S
O149 Co138 2.039 . S
O149 C139 1.265 . S
C150 O146 1.253 . S
C150 O151 1.227 . S
O151 C150 1.227 . S
N152 Co138 2.140 . S
N152 C155 1.346 . S
N152 C156 1.345 . S
C153 C154 1.387 . S
C153 C157 1.391 . S
C154 C153 1.387 . S
C154 C155 1.369 . S
C154 H163 0.929 . S
C155 N152 1.346 . S
C155 C154 1.369 . S
C155 H158 0.928 . S
C156 N152 1.345 . S
C156 C157 1.371 . S
C156 H159 0.931 . S
C157 C153 1.391 . S
C157 C156 1.371 . S
C157 H164 0.930 . S
H158 C155 0.928 . S
H159 C156 0.931 . S
H160 C136 0.930 . S
H161 C133 0.930 . S
H162 C142 0.930 . S
H163 C154 0.929 . S
H164 C157 0.930 . S
C165 C166 1.351 . S
C165 N168 1.368 . S
C165 H170 0.931 . S
C166 C165 1.351 . S
C166 N167 1.373 . S
C166 H194 0.930 . S
N167 C166 1.373 . S
N167 C169 1.340 . S
N168 C165 1.368 . S
N168 C169 1.321 . S
N168 Co171 2.135 . S
C169 N167 1.340 . S
C169 N168 1.321 . S
C169 H193 0.930 . S
H170 C165 0.931 . S
Co171 N168 2.135 . S
Co171 N174 2.121 . S
Co171 O179 2.055 . S
Co171 O182 2.039 . S
Co171 N185 2.140 . S
C172 O173 1.227 . S
C172 O182 1.265 . S
O173 C172 1.227 . S
N174 Co171 2.121 . S
N174 C176 1.375 . S
N174 C177 1.313 . S
C175 C176 1.338 . S
C175 N178 1.377 . S
C175 H195 0.930 . S
C176 N174 1.375 . S
C176 C175 1.338 . S
C176 H180 0.931 . S
C177 N174 1.313 . S
C177 N178 1.344 . S
C177 H181 0.930 . S
N178 C175 1.377 . S
N178 C177 1.344 . S
O179 Co171 2.055 . S
O179 C183 1.253 . S
H180 C176 0.931 . S
H181 C177 0.930 . S
O182 Co171 2.039 . S
O182 C172 1.265 . S
C183 O179 1.253 . S
C183 O184 1.227 . S
O184 C183 1.227 . S
N185 Co171 2.140 . S
N185 C188 1.346 . S
N185 C189 1.345 . S
C186 C187 1.387 . S
C186 C190 1.391 . S
C187 C186 1.387 . S
C187 C188 1.369 . S
C187 H196 0.929 . S
C188 N185 1.346 . S
C188 C187 1.369 . S
C188 H191 0.928 . S
C189 N185 1.345 . S
C189 C190 1.371 . S
C189 H192 0.931 . S
C190 C186 1.391 . S
C190 C189 1.371 . S
C190 H197 0.930 . S
H191 C188 0.928 . S
H192 C189 0.931 . S
H193 C169 0.930 . S
H194 C166 0.930 . S
H195 C175 0.930 . S
H196 C187 0.929 . S
H197 C190 0.930 . S
C198 C199 1.351 . S
C198 N201 1.368 . S
C198 H203 0.931 . S
C199 C198 1.351 . S
C199 N200 1.373 . S
C199 H227 0.930 . S
N200 C199 1.373 . S
N200 C202 1.340 . S
N201 C198 1.368 . S
N201 C202 1.321 . S
N201 Co204 2.135 . S
C202 N200 1.340 . S
C202 N201 1.321 . S
C202 H226 0.930 . S
H203 C198 0.931 . S
Co204 N201 2.135 . S
Co204 N207 2.121 . S
Co204 O212 2.055 . S
Co204 O215 2.039 . S
Co204 N218 2.140 . S
C205 O206 1.227 . S
C205 O215 1.265 . S
O206 C205 1.227 . S
N207 Co204 2.121 . S
N207 C209 1.375 . S
N207 C210 1.313 . S
C208 C209 1.338 . S
C208 N211 1.377 . S
C208 H228 0.930 . S
C209 N207 1.375 . S
C209 C208 1.338 . S
C209 H213 0.931 . S
C210 N207 1.313 . S
C210 N211 1.344 . S
C210 H214 0.930 . S
N211 C208 1.377 . S
N211 C210 1.344 . S
O212 Co204 2.055 . S
O212 C216 1.253 . S
H213 C209 0.931 . S
H214 C210 0.930 . S
O215 Co204 2.039 . S
O215 C205 1.265 . S
C216 O212 1.253 . S
C216 O217 1.227 . S
O217 C216 1.227 . S
N218 Co204 2.140 . S
N218 C221 1.346 . S
N218 C222 1.345 . S
C219 C220 1.387 . S
C219 C223 1.391 . S
C220 C219 1.387 . S
C220 C221 1.369 . S
C220 H229 0.929 . S
C221 N218 1.346 . S
C221 C220 1.369 . S
C221 H224 0.928 . S
C222 N218 1.345 . S
C222 C223 1.371 . S
C222 H225 0.931 . S
C223 C219 1.391 . S
C223 C222 1.371 . S
C223 H230 0.930 . S
H224 C221 0.928 . S
H225 C222 0.931 . S
H226 C202 0.930 . S
H227 C199 0.930 . S
H228 C208 0.930 . S
H229 C220 0.929 . S
H230 C223 0.930 . S
C231 C232 1.351 . S
C231 N234 1.368 . S
C231 H236 0.931 . S
C232 C231 1.351 . S
C232 N233 1.373 . S
C232 H260 0.930 . S
N233 C232 1.373 . S
N233 C235 1.340 . S
N234 C231 1.368 . S
N234 C235 1.321 . S
N234 Co237 2.135 . S
C235 N233 1.340 . S
C235 N234 1.321 . S
C235 H259 0.930 . S
H236 C231 0.931 . S
Co237 N234 2.135 . S
Co237 N240 2.121 . S
Co237 O245 2.055 . S
Co237 O248 2.039 . S
Co237 N251 2.140 . S
C238 O239 1.227 . S
C238 O248 1.265 . S
O239 C238 1.227 . S
N240 Co237 2.121 . S
N240 C242 1.375 . S
N240 C243 1.313 . S
C241 C242 1.338 . S
C241 N244 1.377 . S
C241 H261 0.930 . S
C242 N240 1.375 . S
C242 C241 1.338 . S
C242 H246 0.931 . S
C243 N240 1.313 . S
C243 N244 1.344 . S
C243 H247 0.930 . S
N244 C241 1.377 . S
N244 C243 1.344 . S
O245 Co237 2.055 . S
O245 C249 1.253 . S
H246 C242 0.931 . S
H247 C243 0.930 . S
O248 Co237 2.039 . S
O248 C238 1.265 . S
C249 O245 1.253 . S
C249 O250 1.227 . S
O250 C249 1.227 . S
N251 Co237 2.140 . S
N251 C254 1.346 . S
N251 C255 1.345 . S
C252 C253 1.387 . S
C252 C256 1.391 . S
C253 C252 1.387 . S
C253 C254 1.369 . S
C253 H262 0.929 . S
C254 N251 1.346 . S
C254 C253 1.369 . S
C254 H257 0.928 . S
C255 N251 1.345 . S
C255 C256 1.371 . S
C255 H258 0.931 . S
C256 C252 1.391 . S
C256 C255 1.371 . S
C256 H263 0.930 . S
H257 C254 0.928 . S
H258 C255 0.931 . S
H259 C235 0.930 . S
H260 C232 0.930 . S
H261 C241 0.930 . S
H262 C253 0.929 . S
H263 C256 0.930 . S
C264 C265 1.351 . S
C264 N267 1.368 . S
C264 H269 0.931 . S
C265 C264 1.351 . S
C265 N266 1.373 . S
C265 H293 0.930 . S
N266 C265 1.373 . S
N266 C268 1.340 . S
N267 C264 1.368 . S
N267 C268 1.321 . S
N267 Co270 2.135 . S
C268 N266 1.340 . S
C268 N267 1.321 . S
C268 H292 0.930 . S
H269 C264 0.931 . S
Co270 N267 2.135 . S
Co270 N273 2.121 . S
Co270 O278 2.055 . S
Co270 O281 2.039 . S
Co270 N284 2.140 . S
C271 O272 1.227 . S
C271 O281 1.265 . S
O272 C271 1.227 . S
N273 Co270 2.121 . S
N273 C275 1.375 . S
N273 C276 1.313 . S
C274 C275 1.338 . S
C274 N277 1.377 . S
C274 H294 0.930 . S
C275 N273 1.375 . S
C275 C274 1.338 . S
C275 H279 0.931 . S
C276 N273 1.313 . S
C276 N277 1.344 . S
C276 H280 0.930 . S
N277 C274 1.377 . S
N277 C276 1.344 . S
O278 Co270 2.055 . S
O278 C282 1.253 . S
H279 C275 0.931 . S
H280 C276 0.930 . S
O281 Co270 2.039 . S
O281 C271 1.265 . S
C282 O278 1.253 . S
C282 O283 1.227 . S
O283 C282 1.227 . S
N284 Co270 2.140 . S
N284 C287 1.346 . S
N284 C288 1.345 . S
C285 C286 1.387 . S
C285 C289 1.391 . S
C286 C285 1.387 . S
C286 C287 1.369 . S
C286 H295 0.929 . S
C287 N284 1.346 . S
C287 C286 1.369 . S
C287 H290 0.928 . S
C288 N284 1.345 . S
C288 C289 1.371 . S
C288 H291 0.931 . S
C289 C285 1.391 . S
C289 C288 1.371 . S
C289 H296 0.930 . S
H290 C287 0.928 . S
H291 C288 0.931 . S
H292 C268 0.930 . S
H293 C265 0.930 . S
H294 C274 0.930 . S
H295 C286 0.929 . S
H296 C289 0.930 . S
C297 C298 1.351 . S
C297 N300 1.368 . S
C297 H302 0.931 . S
C298 C297 1.351 . S
C298 N299 1.373 . S
C298 H326 0.930 . S
N299 C298 1.373 . S
N299 C301 1.340 . S
N300 C297 1.368 . S
N300 C301 1.321 . S
N300 Co303 2.135 . S
C301 N299 1.340 . S
C301 N300 1.321 . S
C301 H325 0.930 . S
H302 C297 0.931 . S
Co303 N300 2.135 . S
Co303 N306 2.121 . S
Co303 O311 2.055 . S
Co303 O314 2.039 . S
Co303 N317 2.140 . S
C304 O305 1.227 . S
C304 O314 1.265 . S
O305 C304 1.227 . S
N306 Co303 2.121 . S
N306 C308 1.375 . S
N306 C309 1.313 . S
C307 C308 1.338 . S
C307 N310 1.377 . S
C307 H327 0.930 . S
C308 N306 1.375 . S
C308 C307 1.338 . S
C308 H312 0.931 . S
C309 N306 1.313 . S
C309 N310 1.344 . S
C309 H313 0.930 . S
N310 C307 1.377 . S
N310 C309 1.344 . S
O311 Co303 2.055 . S
O311 C315 1.253 . S
H312 C308 0.931 . S
H313 C309 0.930 . S
O314 Co303 2.039 . S
O314 C304 1.265 . S
C315 O311 1.253 . S
C315 O316 1.227 . S
O316 C315 1.227 . S
N317 Co303 2.140 . S
N317 C320 1.346 . S
N317 C321 1.345 . S
C318 C319 1.387 . S
C318 C322 1.391 . S
C319 C318 1.387 . S
C319 C320 1.369 . S
C319 H328 0.929 . S
C320 N317 1.346 . S
C320 C319 1.369 . S
C320 H323 0.928 . S
C321 N317 1.345 . S
C321 C322 1.371 . S
C321 H324 0.931 . S
C322 C318 1.391 . S
C322 C321 1.371 . S
C322 H329 0.930 . S
H323 C320 0.928 . S
H324 C321 0.931 . S
H325 C301 0.930 . S
H326 C298 0.930 . S
H327 C307 0.930 . S
H328 C319 0.929 . S
H329 C322 0.930 . S
C330 C331 1.351 . S
C330 N333 1.368 . S
C330 H335 0.931 . S
C331 C330 1.351 . S
C331 N332 1.373 . S
C331 H359 0.930 . S
N332 C331 1.373 . S
N332 C334 1.340 . S
N333 C330 1.368 . S
N333 C334 1.321 . S
N333 Co336 2.135 . S
C334 N332 1.340 . S
C334 N333 1.321 . S
C334 H358 0.930 . S
H335 C330 0.931 . S
Co336 N333 2.135 . S
Co336 N339 2.121 . S
Co336 O344 2.055 . S
Co336 O347 2.039 . S
Co336 N350 2.140 . S
C337 O338 1.227 . S
C337 O347 1.265 . S
O338 C337 1.227 . S
N339 Co336 2.121 . S
N339 C341 1.375 . S
N339 C342 1.313 . S
C340 C341 1.338 . S
C340 N343 1.377 . S
C340 H360 0.930 . S
C341 N339 1.375 . S
C341 C340 1.338 . S
C341 H345 0.931 . S
C342 N339 1.313 . S
C342 N343 1.344 . S
C342 H346 0.930 . S
N343 C340 1.377 . S
N343 C342 1.344 . S
O344 Co336 2.055 . S
O344 C348 1.253 . S
H345 C341 0.931 . S
H346 C342 0.930 . S
O347 Co336 2.039 . S
O347 C337 1.265 . S
C348 O344 1.253 . S
C348 O349 1.227 . S
O349 C348 1.227 . S
N350 Co336 2.140 . S
N350 C353 1.346 . S
N350 C354 1.345 . S
C351 C352 1.387 . S
C351 C355 1.391 . S
C352 C351 1.387 . S
C352 C353 1.369 . S
C352 H361 0.929 . S
C353 N350 1.346 . S
C353 C352 1.369 . S
C353 H356 0.928 . S
C354 N350 1.345 . S
C354 C355 1.371 . S
C354 H357 0.931 . S
C355 C351 1.391 . S
C355 C354 1.371 . S
C355 H362 0.930 . S
H356 C353 0.928 . S
H357 C354 0.931 . S
H358 C334 0.930 . S
H359 C331 0.930 . S
H360 C340 0.930 . S
H361 C352 0.929 . S
H362 C355 0.930 . S
C363 C364 1.351 . S
C363 N366 1.368 . S
C363 H368 0.931 . S
C364 C363 1.351 . S
C364 N365 1.373 . S
C364 H392 0.930 . S
N365 C364 1.373 . S
N365 C367 1.340 . S
N366 C363 1.368 . S
N366 C367 1.321 . S
N366 Co369 2.135 . S
C367 N365 1.340 . S
C367 N366 1.321 . S
C367 H391 0.930 . S
H368 C363 0.931 . S
Co369 N366 2.135 . S
Co369 N372 2.121 . S
Co369 O377 2.055 . S
Co369 O380 2.039 . S
Co369 N383 2.140 . S
C370 O371 1.227 . S
C370 O380 1.265 . S
O371 C370 1.227 . S
N372 Co369 2.121 . S
N372 C374 1.375 . S
N372 C375 1.313 . S
C373 C374 1.338 . S
C373 N376 1.377 . S
C373 H393 0.930 . S
C374 N372 1.375 . S
C374 C373 1.338 . S
C374 H378 0.931 . S
C375 N372 1.313 . S
C375 N376 1.344 . S
C375 H379 0.930 . S
N376 C373 1.377 . S
N376 C375 1.344 . S
O377 Co369 2.055 . S
O377 C381 1.253 . S
H378 C374 0.931 . S
H379 C375 0.930 . S
O380 Co369 2.039 . S
O380 C370 1.265 . S
C381 O377 1.253 . S
C381 O382 1.227 . S
O382 C381 1.227 . S
N383 Co369 2.140 . S
N383 C386 1.346 . S
N383 C387 1.345 . S
C384 C385 1.387 . S
C384 C388 1.391 . S
C385 C384 1.387 . S
C385 C386 1.369 . S
C385 H394 0.929 . S
C386 N383 1.346 . S
C386 C385 1.369 . S
C386 H389 0.928 . S
C387 N383 1.345 . S
C387 C388 1.371 . S
C387 H390 0.931 . S
C388 C384 1.391 . S
C388 C387 1.371 . S
C388 H395 0.930 . S
H389 C386 0.928 . S
H390 C387 0.931 . S
H391 C367 0.930 . S
H392 C364 0.930 . S
H393 C373 0.930 . S
H394 C385 0.929 . S
H395 C388 0.930 . S
C396 C397 1.351 . S
C396 N399 1.368 . S
C396 H401 0.931 . S
C397 C396 1.351 . S
C397 N398 1.373 . S
C397 H425 0.930 . S
N398 C397 1.373 . S
N398 C400 1.340 . S
N399 C396 1.368 . S
N399 C400 1.321 . S
N399 Co402 2.135 . S
C400 N398 1.340 . S
C400 N399 1.321 . S
C400 H424 0.930 . S
H401 C396 0.931 . S
Co402 N399 2.135 . S
Co402 N405 2.121 . S
Co402 O410 2.055 . S
Co402 O413 2.039 . S
Co402 N416 2.140 . S
C403 O404 1.227 . S
C403 O413 1.265 . S
O404 C403 1.227 . S
N405 Co402 2.121 . S
N405 C407 1.375 . S
N405 C408 1.313 . S
C406 C407 1.338 . S
C406 N409 1.377 . S
C406 H426 0.930 . S
C407 N405 1.375 . S
C407 C406 1.338 . S
C407 H411 0.931 . S
C408 N405 1.313 . S
C408 N409 1.344 . S
C408 H412 0.930 . S
N409 C406 1.377 . S
N409 C408 1.344 . S
O410 Co402 2.055 . S
O410 C414 1.253 . S
H411 C407 0.931 . S
H412 C408 0.930 . S
O413 Co402 2.039 . S
O413 C403 1.265 . S
C414 O410 1.253 . S
C414 O415 1.227 . S
O415 C414 1.227 . S
N416 Co402 2.140 . S
N416 C419 1.346 . S
N416 C420 1.345 . S
C417 C418 1.387 . S
C417 C421 1.391 . S
C418 C417 1.387 . S
C418 C419 1.369 . S
C418 H427 0.929 . S
C419 N416 1.346 . S
C419 C418 1.369 . S
C419 H422 0.928 . S
C420 N416 1.345 . S
C420 C421 1.371 . S
C420 H423 0.931 . S
C421 C417 1.391 . S
C421 C420 1.371 . S
C421 H428 0.930 . S
H422 C419 0.928 . S
H423 C420 0.931 . S
H424 C400 0.930 . S
H425 C397 0.930 . S
H426 C406 0.930 . S
H427 C418 0.929 . S
H428 C421 0.930 . S
C429 C430 1.351 . S
C429 N432 1.368 . S
C429 H434 0.931 . S
C430 C429 1.351 . S
C430 N431 1.373 . S
C430 H458 0.930 . S
N431 C430 1.373 . S
N431 C433 1.340 . S
N432 C429 1.368 . S
N432 C433 1.321 . S
N432 Co435 2.135 . S
C433 N431 1.340 . S
C433 N432 1.321 . S
C433 H457 0.930 . S
H434 C429 0.931 . S
Co435 N432 2.135 . S
Co435 N438 2.121 . S
Co435 O443 2.055 . S
Co435 O446 2.039 . S
Co435 N449 2.140 . S
C436 O437 1.227 . S
C436 O446 1.265 . S
O437 C436 1.227 . S
N438 Co435 2.121 . S
N438 C440 1.375 . S
N438 C441 1.313 . S
C439 C440 1.338 . S
C439 N442 1.377 . S
C439 H459 0.930 . S
C440 N438 1.375 . S
C440 C439 1.338 . S
C440 H444 0.931 . S
C441 N438 1.313 . S
C441 N442 1.344 . S
C441 H445 0.930 . S
N442 C439 1.377 . S
N442 C441 1.344 . S
O443 Co435 2.055 . S
O443 C447 1.253 . S
H444 C440 0.931 . S
H445 C441 0.930 . S
O446 Co435 2.039 . S
O446 C436 1.265 . S
C447 O443 1.253 . S
C447 O448 1.227 . S
O448 C447 1.227 . S
N449 Co435 2.140 . S
N449 C452 1.346 . S
N449 C453 1.345 . S
C450 C451 1.387 . S
C450 C454 1.391 . S
C451 C450 1.387 . S
C451 C452 1.369 . S
C451 H460 0.929 . S
C452 N449 1.346 . S
C452 C451 1.369 . S
C452 H455 0.928 . S
C453 N449 1.345 . S
C453 C454 1.371 . S
C453 H456 0.931 . S
C454 C450 1.391 . S
C454 C453 1.371 . S
C454 H461 0.930 . S
H455 C452 0.928 . S
H456 C453 0.931 . S
H457 C433 0.930 . S
H458 C430 0.930 . S
H459 C439 0.930 . S
H460 C451 0.929 . S
H461 C454 0.930 . S
C462 C463 1.351 . S
C462 N465 1.368 . S
C462 H467 0.931 . S
C463 C462 1.351 . S
C463 N464 1.373 . S
C463 H491 0.930 . S
N464 C463 1.373 . S
N464 C466 1.340 . S
N465 C462 1.368 . S
N465 C466 1.321 . S
N465 Co468 2.135 . S
C466 N464 1.340 . S
C466 N465 1.321 . S
C466 H490 0.930 . S
H467 C462 0.931 . S
Co468 N465 2.135 . S
Co468 N471 2.121 . S
Co468 O476 2.055 . S
Co468 O479 2.039 . S
Co468 N482 2.140 . S
C469 O470 1.227 . S
C469 O479 1.265 . S
O470 C469 1.227 . S
N471 Co468 2.121 . S
N471 C473 1.375 . S
N471 C474 1.313 . S
C472 C473 1.338 . S
C472 N475 1.377 . S
C472 H492 0.930 . S
C473 N471 1.375 . S
C473 C472 1.338 . S
C473 H477 0.931 . S
C474 N471 1.313 . S
C474 N475 1.344 . S
C474 H478 0.930 . S
N475 C472 1.377 . S
N475 C474 1.344 . S
O476 Co468 2.055 . S
O476 C480 1.253 . S
H477 C473 0.931 . S
H478 C474 0.930 . S
O479 Co468 2.039 . S
O479 C469 1.265 . S
C480 O476 1.253 . S
C480 O481 1.227 . S
O481 C480 1.227 . S
N482 Co468 2.140 . S
N482 C485 1.346 . S
N482 C486 1.345 . S
C483 C484 1.387 . S
C483 C487 1.391 . S
C484 C483 1.387 . S
C484 C485 1.369 . S
C484 H493 0.929 . S
C485 N482 1.346 . S
C485 C484 1.369 . S
C485 H488 0.928 . S
C486 N482 1.345 . S
C486 C487 1.371 . S
C486 H489 0.931 . S
C487 C483 1.391 . S
C487 C486 1.371 . S
C487 H494 0.930 . S
H488 C485 0.928 . S
H489 C486 0.931 . S
H490 C466 0.930 . S
H491 C463 0.930 . S
H492 C472 0.930 . S
H493 C484 0.929 . S
H494 C487 0.930 . S
C495 C496 1.351 . S
C495 N498 1.368 . S
C495 H500 0.931 . S
C496 C495 1.351 . S
C496 N497 1.373 . S
C496 H524 0.930 . S
N497 C496 1.373 . S
N497 C499 1.340 . S
N498 C495 1.368 . S
N498 C499 1.321 . S
N498 Co501 2.135 . S
C499 N497 1.340 . S
C499 N498 1.321 . S
C499 H523 0.930 . S
H500 C495 0.931 . S
Co501 N498 2.135 . S
Co501 N504 2.121 . S
Co501 O509 2.055 . S
Co501 O512 2.039 . S
Co501 N515 2.140 . S
C502 O503 1.227 . S
C502 O512 1.265 . S
O503 C502 1.227 . S
N504 Co501 2.121 . S
N504 C506 1.375 . S
N504 C507 1.313 . S
C505 C506 1.338 . S
C505 N508 1.377 . S
C505 H525 0.930 . S
C506 N504 1.375 . S
C506 C505 1.338 . S
C506 H510 0.931 . S
C507 N504 1.313 . S
C507 N508 1.344 . S
C507 H511 0.930 . S
N508 C505 1.377 . S
N508 C507 1.344 . S
O509 Co501 2.055 . S
O509 C513 1.253 . S
H510 C506 0.931 . S
H511 C507 0.930 . S
O512 Co501 2.039 . S
O512 C502 1.265 . S
C513 O509 1.253 . S
C513 O514 1.227 . S
O514 C513 1.227 . S
N515 Co501 2.140 . S
N515 C518 1.346 . S
N515 C519 1.345 . S
C516 C517 1.387 . S
C516 C520 1.391 . S
C517 C516 1.387 . S
C517 C518 1.369 . S
C517 H526 0.929 . S
C518 N515 1.346 . S
C518 C517 1.369 . S
C518 H521 0.928 . S
C519 N515 1.345 . S
C519 C520 1.371 . S
C519 H522 0.931 . S
C520 C516 1.391 . S
C520 C519 1.371 . S
C520 H527 0.930 . S
H521 C518 0.928 . S
H522 C519 0.931 . S
H523 C499 0.930 . S
H524 C496 0.930 . S
H525 C505 0.930 . S
H526 C517 0.929 . S
H527 C520 0.930 . S
H528 C534 0.930 . S
H529 C538 0.930 . S
H530 C543 0.929 . S
H531 C541 0.929 . S
H532 C536 0.929 . S
H533 C542 0.929 . S
C534 H528 0.930 . S
C534 C535 1.367 . S
C534 C542 1.378 . S
C535 C534 1.367 . S
C535 C543 1.433 . S
C536 H532 0.929 . S
C536 C538 1.378 . S
C536 C540 1.350 . S
C537 C540 1.463 1_655 S
C537 C542 1.350 . S
C537 N545 1.427 . S
C538 H529 0.930 . S
C538 C536 1.378 . S
C538 C539 1.367 . S
C539 C538 1.367 . S
C539 C541 1.433 . S
C540 C536 1.350 . S
C540 C537 1.463 1_455 S
C540 N544 1.427 . S
C541 H531 0.929 . S
C541 C539 1.433 . S
C541 N544 1.384 . S
C542 H533 0.929 . S
C542 C534 1.378 . S
C542 C537 1.350 . S
C543 H530 0.929 . S
C543 C535 1.433 . S
C543 N545 1.384 . S
N544 C540 1.427 . S
N544 C541 1.384 . S
N545 C537 1.427 . S
N545 C543 1.384 . S
H546 C552 0.930 . S
H547 C556 0.930 . S
H548 C561 0.929 . S
H549 C559 0.929 . S
H550 C554 0.929 . S
H551 C560 0.929 . S
C552 H546 0.930 . S
C552 C553 1.367 . S
C552 C560 1.378 . S
C553 C552 1.367 . S
C553 C561 1.433 . S
C554 H550 0.929 . S
C554 C556 1.378 . S
C554 C558 1.350 . S
C555 C558 1.463 1_545 S
C555 C560 1.350 . S
C555 N563 1.427 . S
C556 H547 0.930 . S
C556 C554 1.378 . S
C556 C557 1.367 . S
C557 C556 1.367 . S
C557 C559 1.433 . S
C558 C554 1.350 . S
C558 C555 1.463 1_565 S
C558 N562 1.427 . S
C559 H549 0.929 . S
C559 C557 1.433 . S
C559 N562 1.384 . S
C560 H551 0.929 . S
C560 C552 1.378 . S
C560 C555 1.350 . S
C561 H548 0.929 . S
C561 C553 1.433 . S
C561 N563 1.384 . S
N562 C558 1.427 . S
N562 C559 1.384 . S
N563 C555 1.427 . S
N563 C561 1.384 . S
H564 C570 0.930 . S
H565 C574 0.930 . S
H566 C579 0.929 . S
H567 C577 0.929 . S
H568 C572 0.929 . S
H569 C578 0.929 . S
C570 H564 0.930 . S
C570 C571 1.367 . S
C570 C578 1.378 . S
C571 C570 1.367 . S
C571 C579 1.433 . S
C572 H568 0.929 . S
C572 C574 1.378 . S
C572 C576 1.350 . S
C573 C576 1.463 1_655 S
C573 C578 1.350 . S
C573 N581 1.427 . S
C574 H565 0.930 . S
C574 C572 1.378 . S
C574 C575 1.367 . S
C575 C574 1.367 . S
C575 C577 1.433 . S
C576 C572 1.350 . S
C576 C573 1.463 1_455 S
C576 N580 1.427 . S
C577 H567 0.929 . S
C577 C575 1.433 . S
C577 N580 1.384 . S
C578 H569 0.929 . S
C578 C570 1.378 . S
C578 C573 1.350 . S
C579 H566 0.929 . S
C579 C571 1.433 . S
C579 N581 1.384 . S
N580 C576 1.427 . S
N580 C577 1.384 . S
N581 C573 1.427 . S
N581 C579 1.384 . S
H582 C588 0.930 . S
H583 C592 0.930 . S
H584 C597 0.929 . S
H585 C595 0.929 . S
H586 C590 0.929 . S
H587 C596 0.929 . S
C588 H582 0.930 . S
C588 C589 1.367 . S
C588 C596 1.378 . S
C589 C588 1.367 . S
C589 C597 1.433 . S
C590 H586 0.929 . S
C590 C592 1.378 . S
C590 C594 1.350 . S
C591 C594 1.463 1_565 S
C591 C596 1.350 . S
C591 N599 1.427 . S
C592 H583 0.930 . S
C592 C590 1.378 . S
C592 C593 1.367 . S
C593 C592 1.367 . S
C593 C595 1.433 . S
C594 C590 1.350 . S
C594 C591 1.463 1_545 S
C594 N598 1.427 . S
C595 H585 0.929 . S
C595 C593 1.433 . S
C595 N598 1.384 . S
C596 H587 0.929 . S
C596 C588 1.378 . S
C596 C591 1.350 . S
C597 H584 0.929 . S
C597 C589 1.433 . S
C597 N599 1.384 . S
N598 C594 1.427 . S
N598 C595 1.384 . S
N599 C591 1.427 . S
N599 C597 1.384 . S
H600 C606 0.930 . S
H601 C610 0.930 . S
H602 C615 0.929 . S
H603 C613 0.929 . S
H604 C608 0.929 . S
H605 C614 0.929 . S
C606 H600 0.930 . S
C606 C607 1.367 . S
C606 C614 1.378 . S
C607 C606 1.367 . S
C607 C615 1.433 . S
C608 H604 0.929 . S
C608 C610 1.378 . S
C608 C612 1.350 . S
C609 C612 1.463 1_655 S
C609 C614 1.350 . S
C609 N617 1.427 . S
C610 H601 0.930 . S
C610 C608 1.378 . S
C610 C611 1.367 . S
C611 C610 1.367 . S
C611 C613 1.433 . S
C612 C608 1.350 . S
C612 C609 1.463 1_455 S
C612 N616 1.427 . S
C613 H603 0.929 . S
C613 C611 1.433 . S
C613 N616 1.384 . S
C614 H605 0.929 . S
C614 C606 1.378 . S
C614 C609 1.350 . S
C615 H602 0.929 . S
C615 C607 1.433 . S
C615 N617 1.384 . S
N616 C612 1.427 . S
N616 C613 1.384 . S
N617 C609 1.427 . S
N617 C615 1.384 . S
H618 C624 0.930 . S
H619 C628 0.930 . S
H620 C633 0.929 . S
H621 C631 0.929 . S
H622 C626 0.929 . S
H623 C632 0.929 . S
C624 H618 0.930 . S
C624 C625 1.367 . S
C624 C632 1.378 . S
C625 C624 1.367 . S
C625 C633 1.433 . S
C626 H622 0.929 . S
C626 C628 1.378 . S
C626 C630 1.350 . S
C627 C630 1.463 1_565 S
C627 C632 1.350 . S
C627 N635 1.427 . S
C628 H619 0.930 . S
C628 C626 1.378 . S
C628 C629 1.367 . S
C629 C628 1.367 . S
C629 C631 1.433 . S
C630 C626 1.350 . S
C630 C627 1.463 1_545 S
C630 N634 1.427 . S
C631 H621 0.929 . S
C631 C629 1.433 . S
C631 N634 1.384 . S
C632 H623 0.929 . S
C632 C624 1.378 . S
C632 C627 1.350 . S
C633 H620 0.929 . S
C633 C625 1.433 . S
C633 N635 1.384 . S
N634 C630 1.427 . S
N634 C631 1.384 . S
N635 C627 1.427 . S
N635 C633 1.384 . S
H636 C642 0.930 . S
H637 C646 0.930 . S
H638 C651 0.929 . S
H639 C649 0.929 . S
H640 C644 0.929 . S
H641 C650 0.929 . S
C642 H636 0.930 . S
C642 C643 1.367 . S
C642 C650 1.378 . S
C643 C642 1.367 . S
C643 C651 1.433 . S
C644 H640 0.929 . S
C644 C646 1.378 . S
C644 C648 1.350 . S
C645 C648 1.463 1_655 S
C645 C650 1.350 . S
C645 N653 1.427 . S
C646 H637 0.930 . S
C646 C644 1.378 . S
C646 C647 1.367 . S
C647 C646 1.367 . S
C647 C649 1.433 . S
C648 C644 1.350 . S
C648 C645 1.463 1_455 S
C648 N652 1.427 . S
C649 H639 0.929 . S
C649 C647 1.433 . S
C649 N652 1.384 . S
C650 H641 0.929 . S
C650 C642 1.378 . S
C650 C645 1.350 . S
C651 H638 0.929 . S
C651 C643 1.433 . S
C651 N653 1.384 . S
N652 C648 1.427 . S
N652 C649 1.384 . S
N653 C645 1.427 . S
N653 C651 1.384 . S
H654 C660 0.930 . S
H655 C664 0.930 . S
H656 C669 0.929 . S
H657 C667 0.929 . S
H658 C662 0.929 . S
H659 C668 0.929 . S
C660 H654 0.930 . S
C660 C661 1.367 . S
C660 C668 1.378 . S
C661 C660 1.367 . S
C661 C669 1.433 . S
C662 H658 0.929 . S
C662 C664 1.378 . S
C662 C666 1.350 . S
C663 C666 1.463 1_545 S
C663 C668 1.350 . S
C663 N671 1.427 . S
C664 H655 0.930 . S
C664 C662 1.378 . S
C664 C665 1.367 . S
C665 C664 1.367 . S
C665 C667 1.433 . S
C666 C662 1.350 . S
C666 C663 1.463 1_565 S
C666 N670 1.427 . S
C667 H657 0.929 . S
C667 C665 1.433 . S
C667 N670 1.384 . S
C668 H659 0.929 . S
C668 C660 1.378 . S
C668 C663 1.350 . S
C669 H656 0.929 . S
C669 C661 1.433 . S
C669 N671 1.384 . S
N670 C666 1.427 . S
N670 C667 1.384 . S
N671 C663 1.427 . S
N671 C669 1.384 . S
H672 C678 0.930 . S
H673 C682 0.930 . S
H674 C687 0.929 . S
H675 C685 0.929 . S
H676 C680 0.929 . S
H677 C686 0.929 . S
C678 H672 0.930 . S
C678 C679 1.367 . S
C678 C686 1.378 . S
C679 C678 1.367 . S
C679 C687 1.433 . S
C680 H676 0.929 . S
C680 C682 1.378 . S
C680 C684 1.350 . S
C681 C684 1.463 . S
C681 C686 1.350 . S
C681 N689 1.427 . S
C682 H673 0.930 . S
C682 C680 1.378 . S
C682 C683 1.367 . S
C683 C682 1.367 . S
C683 C685 1.433 . S
C684 C680 1.350 . S
C684 C681 1.463 . S
C684 N688 1.427 . S
C685 H675 0.929 . S
C685 C683 1.433 . S
C685 N688 1.384 . S
C686 H677 0.929 . S
C686 C678 1.378 . S
C686 C681 1.350 . S
C687 H674 0.929 . S
C687 C679 1.433 . S
C687 N689 1.384 . S
N688 C684 1.427 . S
N688 C685 1.384 . S
N689 C681 1.427 . S
N689 C687 1.384 . S
H690 C696 0.930 . S
H691 C700 0.930 . S
H692 C705 0.929 . S
H693 C703 0.929 . S
H694 C698 0.929 . S
H695 C704 0.929 . S
C696 H690 0.930 . S
C696 C697 1.367 . S
C696 C704 1.378 . S
C697 C696 1.367 . S
C697 C705 1.433 . S
C698 H694 0.929 . S
C698 C700 1.378 . S
C698 C702 1.350 . S
C699 C702 1.463 . S
C699 C704 1.350 . S
C699 N707 1.427 . S
C700 H691 0.930 . S
C700 C698 1.378 . S
C700 C701 1.367 . S
C701 C700 1.367 . S
C701 C703 1.433 . S
C702 C698 1.350 . S
C702 C699 1.463 . S
C702 N706 1.427 . S
C703 H693 0.929 . S
C703 C701 1.433 . S
C703 N706 1.384 . S
C704 H695 0.929 . S
C704 C696 1.378 . S
C704 C699 1.350 . S
C705 H692 0.929 . S
C705 C697 1.433 . S
C705 N707 1.384 . S
N706 C702 1.427 . S
N706 C703 1.384 . S
N707 C699 1.427 . S
N707 C705 1.384 . S
H708 C714 0.930 . S
H709 C718 0.930 . S
H710 C723 0.929 . S
H711 C721 0.929 . S
H712 C716 0.929 . S
H713 C722 0.929 . S
C714 H708 0.930 . S
C714 C715 1.367 . S
C714 C722 1.378 . S
C715 C714 1.367 . S
C715 C723 1.433 . S
C716 H712 0.929 . S
C716 C718 1.378 . S
C716 C720 1.350 . S
C717 C720 1.463 . S
C717 C722 1.350 . S
C717 N725 1.427 . S
C718 H709 0.930 . S
C718 C716 1.378 . S
C718 C719 1.367 . S
C719 C718 1.367 . S
C719 C721 1.433 . S
C720 C716 1.350 . S
C720 C717 1.463 . S
C720 N724 1.427 . S
C721 H711 0.929 . S
C721 C719 1.433 . S
C721 N724 1.384 . S
C722 H713 0.929 . S
C722 C714 1.378 . S
C722 C717 1.350 . S
C723 H710 0.929 . S
C723 C715 1.433 . S
C723 N725 1.384 . S
N724 C720 1.427 . S
N724 C721 1.384 . S
N725 C717 1.427 . S
N725 C723 1.384 . S
H726 C732 0.930 . S
H727 C736 0.930 . S
H728 C741 0.929 . S
H729 C739 0.929 . S
H730 C734 0.929 . S
H731 C740 0.929 . S
C732 H726 0.930 . S
C732 C733 1.367 . S
C732 C740 1.378 . S
C733 C732 1.367 . S
C733 C741 1.433 . S
C734 H730 0.929 . S
C734 C736 1.378 . S
C734 C738 1.350 . S
C735 C738 1.463 . S
C735 C740 1.350 . S
C735 N743 1.427 . S
C736 H727 0.930 . S
C736 C734 1.378 . S
C736 C737 1.367 . S
C737 C736 1.367 . S
C737 C739 1.433 . S
C738 C734 1.350 . S
C738 C735 1.463 . S
C738 N742 1.427 . S
C739 H729 0.929 . S
C739 C737 1.433 . S
C739 N742 1.384 . S
C740 H731 0.929 . S
C740 C732 1.378 . S
C740 C735 1.350 . S
C741 H728 0.929 . S
C741 C733 1.433 . S
C741 N743 1.384 . S
N742 C738 1.427 . S
N742 C739 1.384 . S
N743 C735 1.427 . S
N743 C741 1.384 . S
H744 C750 0.930 . S
H745 C754 0.930 . S
H746 C759 0.929 . S
H747 C757 0.929 . S
H748 C752 0.929 . S
H749 C758 0.929 . S
C750 H744 0.930 . S
C750 C751 1.367 . S
C750 C758 1.378 . S
C751 C750 1.367 . S
C751 C759 1.433 . S
C752 H748 0.929 . S
C752 C754 1.378 . S
C752 C756 1.350 . S
C753 C756 1.463 . S
C753 C758 1.350 . S
C753 N761 1.427 . S
C754 H745 0.930 . S
C754 C752 1.378 . S
C754 C755 1.367 . S
C755 C754 1.367 . S
C755 C757 1.433 . S
C756 C752 1.350 . S
C756 C753 1.463 . S
C756 N760 1.427 . S
C757 H747 0.929 . S
C757 C755 1.433 . S
C757 N760 1.384 . S
C758 H749 0.929 . S
C758 C750 1.378 . S
C758 C753 1.350 . S
C759 H746 0.929 . S
C759 C751 1.433 . S
C759 N761 1.384 . S
N760 C756 1.427 . S
N760 C757 1.384 . S
N761 C753 1.427 . S
N761 C759 1.384 . S
H762 C768 0.930 . S
H763 C772 0.930 . S
H764 C777 0.929 . S
H765 C775 0.929 . S
H766 C770 0.929 . S
H767 C776 0.929 . S
C768 H762 0.930 . S
C768 C769 1.367 . S
C768 C776 1.378 . S
C769 C768 1.367 . S
C769 C777 1.433 . S
C770 H766 0.929 . S
C770 C772 1.378 . S
C770 C774 1.350 . S
C771 C774 1.463 . S
C771 C776 1.350 . S
C771 N779 1.427 . S
C772 H763 0.930 . S
C772 C770 1.378 . S
C772 C773 1.367 . S
C773 C772 1.367 . S
C773 C775 1.433 . S
C774 C770 1.350 . S
C774 C771 1.463 . S
C774 N778 1.427 . S
C775 H765 0.929 . S
C775 C773 1.433 . S
C775 N778 1.384 . S
C776 H767 0.929 . S
C776 C768 1.378 . S
C776 C771 1.350 . S
C777 H764 0.929 . S
C777 C769 1.433 . S
C777 N779 1.384 . S
N778 C774 1.427 . S
N778 C775 1.384 . S
N779 C771 1.427 . S
N779 C777 1.384 . S
H780 C786 0.930 . S
H781 C790 0.930 . S
H782 C795 0.929 . S
H783 C793 0.929 . S
H784 C788 0.929 . S
H785 C794 0.929 . S
C786 H780 0.930 . S
C786 C787 1.367 . S
C786 C794 1.378 . S
C787 C786 1.367 . S
C787 C795 1.433 . S
C788 H784 0.929 . S
C788 C790 1.378 . S
C788 C792 1.350 . S
C789 C792 1.463 . S
C789 C794 1.350 . S
C789 N797 1.427 . S
C790 H781 0.930 . S
C790 C788 1.378 . S
C790 C791 1.367 . S
C791 C790 1.367 . S
C791 C793 1.433 . S
C792 C788 1.350 . S
C792 C789 1.463 . S
C792 N796 1.427 . S
C793 H783 0.929 . S
C793 C791 1.433 . S
C793 N796 1.384 . S
C794 H785 0.929 . S
C794 C786 1.378 . S
C794 C789 1.350 . S
C795 H782 0.929 . S
C795 C787 1.433 . S
C795 N797 1.384 . S
N796 C792 1.427 . S
N796 C793 1.384 . S
N797 C789 1.427 . S
N797 C795 1.384 . S
H798 C804 0.930 . S
H799 C808 0.930 . S
H800 C813 0.929 . S
H801 C811 0.929 . S
H802 C806 0.929 . S
H803 C812 0.929 . S
C804 H798 0.930 . S
C804 C805 1.367 . S
C804 C812 1.378 . S
C805 C804 1.367 . S
C805 C813 1.433 . S
C806 H802 0.929 . S
C806 C808 1.378 . S
C806 C810 1.350 . S
C807 C810 1.463 . S
C807 C812 1.350 . S
C807 N815 1.427 . S
C808 H799 0.930 . S
C808 C806 1.378 . S
C808 C809 1.367 . S
C809 C808 1.367 . S
C809 C811 1.433 . S
C810 C806 1.350 . S
C810 C807 1.463 . S
C810 N814 1.427 . S
C811 H801 0.929 . S
C811 C809 1.433 . S
C811 N814 1.384 . S
C812 H803 0.929 . S
C812 C804 1.378 . S
C812 C807 1.350 . S
C813 H800 0.929 . S
C813 C805 1.433 . S
C813 N815 1.384 . S
N814 C810 1.427 . S
N814 C811 1.384 . S
N815 C807 1.427 . S
N815 C813 1.384 . S
H816 C822 0.930 . S
H817 C826 0.930 . S
H818 C831 0.929 . S
H819 C829 0.929 . S
H820 C824 0.929 . S
H821 C830 0.929 . S
C822 H816 0.930 . S
C822 C823 1.367 . S
C822 C830 1.378 . S
C823 C822 1.367 . S
C823 C831 1.433 . S
C824 H820 0.929 . S
C824 C826 1.378 . S
C824 C828 1.350 . S
C825 C828 1.463 1_554 S
C825 C830 1.350 . S
C825 N833 1.427 . S
C826 H817 0.930 . S
C826 C824 1.378 . S
C826 C827 1.367 . S
C827 C826 1.367 . S
C827 C829 1.433 . S
C828 C824 1.350 . S
C828 C825 1.463 1_556 S
C828 N832 1.427 . S
C829 H819 0.929 . S
C829 C827 1.433 . S
C829 N832 1.384 . S
C830 H821 0.929 . S
C830 C822 1.378 . S
C830 C825 1.350 . S
C831 H818 0.929 . S
C831 C823 1.433 . S
C831 N833 1.384 . S
N832 C828 1.427 . S
N832 C829 1.384 . S
N833 C825 1.427 . S
N833 C831 1.384 . S
H834 C840 0.930 . S
H835 C844 0.930 . S
H836 C849 0.929 . S
H837 C847 0.929 . S
H838 C842 0.929 . S
H839 C848 0.929 . S
C840 H834 0.930 . S
C840 C841 1.367 . S
C840 C848 1.378 . S
C841 C840 1.367 . S
C841 C849 1.433 . S
C842 H838 0.929 . S
C842 C844 1.378 . S
C842 C846 1.350 . S
C843 C846 1.463 . S
C843 C848 1.350 . S
C843 N851 1.427 . S
C844 H835 0.930 . S
C844 C842 1.378 . S
C844 C845 1.367 . S
C845 C844 1.367 . S
C845 C847 1.433 . S
C846 C842 1.350 . S
C846 C843 1.463 . S
C846 N850 1.427 . S
C847 H837 0.929 . S
C847 C845 1.433 . S
C847 N850 1.384 . S
C848 H839 0.929 . S
C848 C840 1.378 . S
C848 C843 1.350 . S
C849 H836 0.929 . S
C849 C841 1.433 . S
C849 N851 1.384 . S
N850 C846 1.427 . S
N850 C847 1.384 . S
N851 C843 1.427 . S
N851 C849 1.384 . S
H852 C858 0.930 . S
H853 C862 0.930 . S
H854 C867 0.929 . S
H855 C865 0.929 . S
H856 C860 0.929 . S
H857 C866 0.929 . S
C858 H852 0.930 . S
C858 C859 1.367 . S
C858 C866 1.378 . S
C859 C858 1.367 . S
C859 C867 1.433 . S
C860 H856 0.929 . S
C860 C862 1.378 . S
C860 C864 1.350 . S
C861 C864 1.463 1_556 S
C861 C866 1.350 . S
C861 N869 1.427 . S
C862 H853 0.930 . S
C862 C860 1.378 . S
C862 C863 1.367 . S
C863 C862 1.367 . S
C863 C865 1.433 . S
C864 C860 1.350 . S
C864 C861 1.463 1_554 S
C864 N868 1.427 . S
C865 H855 0.929 . S
C865 C863 1.433 . S
C865 N868 1.384 . S
C866 H857 0.929 . S
C866 C858 1.378 . S
C866 C861 1.350 . S
C867 H854 0.929 . S
C867 C859 1.433 . S
C867 N869 1.384 . S
N868 C864 1.427 . S
N868 C865 1.384 . S
N869 C861 1.427 . S
N869 C867 1.384 . S
H870 C876 0.930 . S
H871 C880 0.930 . S
H872 C885 0.929 . S
H873 C883 0.929 . S
H874 C878 0.929 . S
H875 C884 0.929 . S
C876 H870 0.930 . S
C876 C877 1.367 . S
C876 C884 1.378 . S
C877 C876 1.367 . S
C877 C885 1.433 . S
C878 H874 0.929 . S
C878 C880 1.378 . S
C878 C882 1.350 . S
C879 C882 1.463 . S
C879 C884 1.350 . S
C879 N887 1.427 . S
C880 H871 0.930 . S
C880 C878 1.378 . S
C880 C881 1.367 . S
C881 C880 1.367 . S
C881 C883 1.433 . S
C882 C878 1.350 . S
C882 C879 1.463 . S
C882 N886 1.427 . S
C883 H873 0.929 . S
C883 C881 1.433 . S
C883 N886 1.384 . S
C884 H875 0.929 . S
C884 C876 1.378 . S
C884 C879 1.350 . S
C885 H872 0.929 . S
C885 C877 1.433 . S
C885 N887 1.384 . S
N886 C882 1.427 . S
N886 C883 1.384 . S
N887 C879 1.427 . S
N887 C885 1.384 . S
H888 C894 0.930 . S
H889 C898 0.930 . S
H890 C903 0.929 . S
H891 C901 0.929 . S
H892 C896 0.929 . S
H893 C902 0.929 . S
C894 H888 0.930 . S
C894 C895 1.367 . S
C894 C902 1.378 . S
C895 C894 1.367 . S
C895 C903 1.433 . S
C896 H892 0.929 . S
C896 C898 1.378 . S
C896 C900 1.350 . S
C897 C900 1.463 1_556 S
C897 C902 1.350 . S
C897 N905 1.427 . S
C898 H889 0.930 . S
C898 C896 1.378 . S
C898 C899 1.367 . S
C899 C898 1.367 . S
C899 C901 1.433 . S
C900 C896 1.350 . S
C900 C897 1.463 1_554 S
C900 N904 1.427 . S
C901 H891 0.929 . S
C901 C899 1.433 . S
C901 N904 1.384 . S
C902 H893 0.929 . S
C902 C894 1.378 . S
C902 C897 1.350 . S
C903 H890 0.929 . S
C903 C895 1.433 . S
C903 N905 1.384 . S
N904 C900 1.427 . S
N904 C901 1.384 . S
N905 C897 1.427 . S
N905 C903 1.384 . S
H906 C912 0.930 . S
H907 C916 0.930 . S
H908 C921 0.929 . S
H909 C919 0.929 . S
H910 C914 0.929 . S
H911 C920 0.929 . S
C912 H906 0.930 . S
C912 C913 1.367 . S
C912 C920 1.378 . S
C913 C912 1.367 . S
C913 C921 1.433 . S
C914 H910 0.929 . S
C914 C916 1.378 . S
C914 C918 1.350 . S
C915 C918 1.463 . S
C915 C920 1.350 . S
C915 N923 1.427 . S
C916 H907 0.930 . S
C916 C914 1.378 . S
C916 C917 1.367 . S
C917 C916 1.367 . S
C917 C919 1.433 . S
C918 C914 1.350 . S
C918 C915 1.463 . S
C918 N922 1.427 . S
C919 H909 0.929 . S
C919 C917 1.433 . S
C919 N922 1.384 . S
C920 H911 0.929 . S
C920 C912 1.378 . S
C920 C915 1.350 . S
C921 H908 0.929 . S
C921 C913 1.433 . S
C921 N923 1.384 . S
N922 C918 1.427 . S
N922 C919 1.384 . S
N923 C915 1.427 . S
N923 C921 1.384 . S
H924 C930 0.930 . S
H925 C934 0.930 . S
H926 C939 0.929 . S
H927 C937 0.929 . S
H928 C932 0.929 . S
H929 C938 0.929 . S
C930 H924 0.930 . S
C930 C931 1.367 . S
C930 C938 1.378 . S
C931 C930 1.367 . S
C931 C939 1.433 . S
C932 H928 0.929 . S
C932 C934 1.378 . S
C932 C936 1.350 . S
C933 C936 1.463 1_554 S
C933 C938 1.350 . S
C933 N941 1.427 . S
C934 H925 0.930 . S
C934 C932 1.378 . S
C934 C935 1.367 . S
C935 C934 1.367 . S
C935 C937 1.433 . S
C936 C932 1.350 . S
C936 C933 1.463 1_556 S
C936 N940 1.427 . S
C937 H927 0.929 . S
C937 C935 1.433 . S
C937 N940 1.384 . S
C938 H929 0.929 . S
C938 C930 1.378 . S
C938 C933 1.350 . S
C939 H926 0.929 . S
C939 C931 1.433 . S
C939 N941 1.384 . S
N940 C936 1.427 . S
N940 C937 1.384 . S
N941 C933 1.427 . S
N941 C939 1.384 . S
H942 C948 0.930 . S
H943 C952 0.930 . S
H944 C957 0.929 . S
H945 C955 0.929 . S
H946 C950 0.929 . S
H947 C956 0.929 . S
C948 H942 0.930 . S
C948 C949 1.367 . S
C948 C956 1.378 . S
C949 C948 1.367 . S
C949 C957 1.433 . S
C950 H946 0.929 . S
C950 C952 1.378 . S
C950 C954 1.350 . S
C951 C954 1.463 . S
C951 C956 1.350 . S
C951 N959 1.427 . S
C952 H943 0.930 . S
C952 C950 1.378 . S
C952 C953 1.367 . S
C953 C952 1.367 . S
C953 C955 1.433 . S
C954 C950 1.350 . S
C954 C951 1.463 . S
C954 N958 1.427 . S
C955 H945 0.929 . S
C955 C953 1.433 . S
C955 N958 1.384 . S
C956 H947 0.929 . S
C956 C948 1.378 . S
C956 C951 1.350 . S
C957 H944 0.929 . S
C957 C949 1.433 . S
C957 N959 1.384 . S
N958 C954 1.427 . S
N958 C955 1.384 . S
N959 C951 1.427 . S
N959 C957 1.384 . S
H960 C966 0.930 . S
H961 C970 0.930 . S
H962 C975 0.929 . S
H963 C973 0.929 . S
H964 C968 0.929 . S
H965 C974 0.929 . S
C966 H960 0.930 . S
C966 C967 1.367 . S
C966 C974 1.378 . S
C967 C966 1.367 . S
C967 C975 1.433 . S
C968 H964 0.929 . S
C968 C970 1.378 . S
C968 C972 1.350 . S
C969 C972 1.463 . S
C969 C974 1.350 . S
C969 N977 1.427 . S
C970 H961 0.930 . S
C970 C968 1.378 . S
C970 C971 1.367 . S
C971 C970 1.367 . S
C971 C973 1.433 . S
C972 C968 1.350 . S
C972 C969 1.463 . S
C972 N976 1.427 . S
C973 H963 0.929 . S
C973 C971 1.433 . S
C973 N976 1.384 . S
C974 H965 0.929 . S
C974 C966 1.378 . S
C974 C969 1.350 . S
C975 H962 0.929 . S
C975 C967 1.433 . S
C975 N977 1.384 . S
N976 C972 1.427 . S
N976 C973 1.384 . S
N977 C969 1.427 . S
N977 C975 1.384 . S
H978 C984 0.930 . S
H979 C988 0.930 . S
H980 C993 0.929 . S
H981 C991 0.929 . S
H982 C986 0.929 . S
H983 C992 0.929 . S
C984 H978 0.930 . S
C984 C985 1.367 . S
C984 C992 1.378 . S
C985 C984 1.367 . S
C985 C993 1.433 . S
C986 H982 0.929 . S
C986 C988 1.378 . S
C986 C990 1.350 . S
C987 C990 1.463 . S
C987 C992 1.350 . S
C987 N995 1.427 . S
C988 H979 0.930 . S
C988 C986 1.378 . S
C988 C989 1.367 . S
C989 C988 1.367 . S
C989 C991 1.433 . S
C990 C986 1.350 . S
C990 C987 1.463 . S
C990 N994 1.427 . S
C991 H981 0.929 . S
C991 C989 1.433 . S
C991 N994 1.384 . S
C992 H983 0.929 . S
C992 C984 1.378 . S
C992 C987 1.350 . S
C993 H980 0.929 . S
C993 C985 1.433 . S
C993 N995 1.384 . S
N994 C990 1.427 . S
N994 C991 1.384 . S
N995 C987 1.427 . S
N995 C993 1.384 . S
H996 C1002 0.930 . S
H997 C1006 0.930 . S
H998 C1011 0.929 . S
H999 C1009 0.929 . S
H1000 C1004 0.929 . S
H1001 C1010 0.929 . S
C1002 H996 0.930 . S
C1002 C1003 1.367 . S
C1002 C1010 1.378 . S
C1003 C1002 1.367 . S
C1003 C1011 1.433 . S
C1004 H1000 0.929 . S
C1004 C1006 1.378 . S
C1004 C1008 1.350 . S
C1005 C1008 1.463 . S
C1005 C1010 1.350 . S
C1005 N1013 1.427 . S
C1006 H997 0.930 . S
C1006 C1004 1.378 . S
C1006 C1007 1.367 . S
C1007 C1006 1.367 . S
C1007 C1009 1.433 . S
C1008 C1004 1.350 . S
C1008 C1005 1.463 . S
C1008 N1012 1.427 . S
C1009 H999 0.929 . S
C1009 C1007 1.433 . S
C1009 N1012 1.384 . S
C1010 H1001 0.929 . S
C1010 C1002 1.378 . S
C1010 C1005 1.350 . S
C1011 H998 0.929 . S
C1011 C1003 1.433 . S
C1011 N1013 1.384 . S
N1012 C1008 1.427 . S
N1012 C1009 1.384 . S
N1013 C1005 1.427 . S
N1013 C1011 1.384 . S
H1014 C1020 0.930 . S
H1015 C1024 0.930 . S
H1016 C1029 0.929 . S
H1017 C1027 0.929 . S
H1018 C1022 0.929 . S
H1019 C1028 0.929 . S
C1020 H1014 0.930 . S
C1020 C1021 1.367 . S
C1020 C1028 1.378 . S
C1021 C1020 1.367 . S
C1021 C1029 1.433 . S
C1022 H1018 0.929 . S
C1022 C1024 1.378 . S
C1022 C1026 1.350 . S
C1023 C1026 1.463 . S
C1023 C1028 1.350 . S
C1023 N1031 1.427 . S
C1024 H1015 0.930 . S
C1024 C1022 1.378 . S
C1024 C1025 1.367 . S
C1025 C1024 1.367 . S
C1025 C1027 1.433 . S
C1026 C1022 1.350 . S
C1026 C1023 1.463 . S
C1026 N1030 1.427 . S
C1027 H1017 0.929 . S
C1027 C1025 1.433 . S
C1027 N1030 1.384 . S
C1028 H1019 0.929 . S
C1028 C1020 1.378 . S
C1028 C1023 1.350 . S
C1029 H1016 0.929 . S
C1029 C1021 1.433 . S
C1029 N1031 1.384 . S
N1030 C1026 1.427 . S
N1030 C1027 1.384 . S
N1031 C1023 1.427 . S
N1031 C1029 1.384 . S
H1032 C1038 0.930 . S
H1033 C1042 0.930 . S
H1034 C1047 0.929 . S
H1035 C1045 0.929 . S
H1036 C1040 0.929 . S
H1037 C1046 0.929 . S
C1038 H1032 0.930 . S
C1038 C1039 1.367 . S
C1038 C1046 1.378 . S
C1039 C1038 1.367 . S
C1039 C1047 1.433 . S
C1040 H1036 0.929 . S
C1040 C1042 1.378 . S
C1040 C1044 1.350 . S
C1041 C1044 1.463 . S
C1041 C1046 1.350 . S
C1041 N1049 1.427 . S
C1042 H1033 0.930 . S
C1042 C1040 1.378 . S
C1042 C1043 1.367 . S
C1043 C1042 1.367 . S
C1043 C1045 1.433 . S
C1044 C1040 1.350 . S
C1044 C1041 1.463 . S
C1044 N1048 1.427 . S
C1045 H1035 0.929 . S
C1045 C1043 1.433 . S
C1045 N1048 1.384 . S
C1046 H1037 0.929 . S
C1046 C1038 1.378 . S
C1046 C1041 1.350 . S
C1047 H1034 0.929 . S
C1047 C1039 1.433 . S
C1047 N1049 1.384 . S
N1048 C1044 1.427 . S
N1048 C1045 1.384 . S
N1049 C1041 1.427 . S
N1049 C1047 1.384 . S
H1050 C1056 0.930 . S
H1051 C1060 0.930 . S
H1052 C1065 0.929 . S
H1053 C1063 0.929 . S
H1054 C1058 0.929 . S
H1055 C1064 0.929 . S
C1056 H1050 0.930 . S
C1056 C1057 1.367 . S
C1056 C1064 1.378 . S
C1057 C1056 1.367 . S
C1057 C1065 1.433 . S
C1058 H1054 0.929 . S
C1058 C1060 1.378 . S
C1058 C1062 1.350 . S
C1059 C1062 1.463 . S
C1059 C1064 1.350 . S
C1059 N1067 1.427 . S
C1060 H1051 0.930 . S
C1060 C1058 1.378 . S
C1060 C1061 1.367 . S
C1061 C1060 1.367 . S
C1061 C1063 1.433 . S
C1062 C1058 1.350 . S
C1062 C1059 1.463 . S
C1062 N1066 1.427 . S
C1063 H1053 0.929 . S
C1063 C1061 1.433 . S
C1063 N1066 1.384 . S
C1064 H1055 0.929 . S
C1064 C1056 1.378 . S
C1064 C1059 1.350 . S
C1065 H1052 0.929 . S
C1065 C1057 1.433 . S
C1065 N1067 1.384 . S
N1066 C1062 1.427 . S
N1066 C1063 1.384 . S
N1067 C1059 1.427 . S
N1067 C1065 1.384 . S
H1068 C1074 0.930 . S
H1069 C1078 0.930 . S
H1070 C1083 0.929 . S
H1071 C1081 0.929 . S
H1072 C1076 0.929 . S
H1073 C1082 0.929 . S
C1074 H1068 0.930 . S
C1074 C1075 1.367 . S
C1074 C1082 1.378 . S
C1075 C1074 1.367 . S
C1075 C1083 1.433 . S
C1076 H1072 0.929 . S
C1076 C1078 1.378 . S
C1076 C1080 1.350 . S
C1077 C1080 1.463 . S
C1077 C1082 1.350 . S
C1077 N1085 1.427 . S
C1078 H1069 0.930 . S
C1078 C1076 1.378 . S
C1078 C1079 1.367 . S
C1079 C1078 1.367 . S
C1079 C1081 1.433 . S
C1080 C1076 1.350 . S
C1080 C1077 1.463 . S
C1080 N1084 1.427 . S
C1081 H1071 0.929 . S
C1081 C1079 1.433 . S
C1081 N1084 1.384 . S
C1082 H1073 0.929 . S
C1082 C1074 1.378 . S
C1082 C1077 1.350 . S
C1083 H1070 0.929 . S
C1083 C1075 1.433 . S
C1083 N1085 1.384 . S
N1084 C1080 1.427 . S
N1084 C1081 1.384 . S
N1085 C1077 1.427 . S
N1085 C1083 1.384 . S
H1086 C1092 0.930 . S
H1087 C1096 0.930 . S
H1088 C1101 0.929 . S
H1089 C1099 0.929 . S
H1090 C1094 0.929 . S
H1091 C1100 0.929 . S
C1092 H1086 0.930 . S
C1092 C1093 1.367 . S
C1092 C1100 1.378 . S
C1093 C1092 1.367 . S
C1093 C1101 1.433 . S
C1094 H1090 0.929 . S
C1094 C1096 1.378 . S
C1094 C1098 1.350 . S
C1095 C1098 1.463 . S
C1095 C1100 1.350 . S
C1095 N1103 1.427 . S
C1096 H1087 0.930 . S
C1096 C1094 1.378 . S
C1096 C1097 1.367 . S
C1097 C1096 1.367 . S
C1097 C1099 1.433 . S
C1098 C1094 1.350 . S
C1098 C1095 1.463 . S
C1098 N1102 1.427 . S
C1099 H1089 0.929 . S
C1099 C1097 1.433 . S
C1099 N1102 1.384 . S
C1100 H1091 0.929 . S
C1100 C1092 1.378 . S
C1100 C1095 1.350 . S
C1101 H1088 0.929 . S
C1101 C1093 1.433 . S
C1101 N1103 1.384 . S
N1102 C1098 1.427 . S
N1102 C1099 1.384 . S
N1103 C1095 1.427 . S
N1103 C1101 1.384 . S
H1104 C1110 0.930 . S
H1105 C1114 0.930 . S
H1106 C1119 0.929 . S
H1107 C1117 0.929 . S
H1108 C1112 0.929 . S
H1109 C1118 0.929 . S
C1110 H1104 0.930 . S
C1110 C1111 1.367 . S
C1110 C1118 1.378 . S
C1111 C1110 1.367 . S
C1111 C1119 1.433 . S
C1112 H1108 0.929 . S
C1112 C1114 1.378 . S
C1112 C1116 1.350 . S
C1113 C1116 1.463 . S
C1113 C1118 1.350 . S
C1113 N1121 1.427 . S
C1114 H1105 0.930 . S
C1114 C1112 1.378 . S
C1114 C1115 1.367 . S
C1115 C1114 1.367 . S
C1115 C1117 1.433 . S
C1116 C1112 1.350 . S
C1116 C1113 1.463 . S
C1116 N1120 1.427 . S
C1117 H1107 0.929 . S
C1117 C1115 1.433 . S
C1117 N1120 1.384 . S
C1118 H1109 0.929 . S
C1118 C1110 1.378 . S
C1118 C1113 1.350 . S
C1119 H1106 0.929 . S
C1119 C1111 1.433 . S
C1119 N1121 1.384 . S
N1120 C1116 1.427 . S
N1120 C1117 1.384 . S
N1121 C1113 1.427 . S
N1121 C1119 1.384 . S
H1122 C1128 0.930 . S
H1123 C1132 0.930 . S
H1124 C1137 0.929 . S
H1125 C1135 0.929 . S
H1126 C1130 0.929 . S
H1127 C1136 0.929 . S
C1128 H1122 0.930 . S
C1128 C1129 1.367 . S
C1128 C1136 1.378 . S
C1129 C1128 1.367 . S
C1129 C1137 1.433 . S
C1130 H1126 0.929 . S
C1130 C1132 1.378 . S
C1130 C1134 1.350 . S
C1131 C1134 1.463 . S
C1131 C1136 1.350 . S
C1131 N1139 1.427 . S
C1132 H1123 0.930 . S
C1132 C1130 1.378 . S
C1132 C1133 1.367 . S
C1133 C1132 1.367 . S
C1133 C1135 1.433 . S
C1134 C1130 1.350 . S
C1134 C1131 1.463 . S
C1134 N1138 1.427 . S
C1135 H1125 0.929 . S
C1135 C1133 1.433 . S
C1135 N1138 1.384 . S
C1136 H1127 0.929 . S
C1136 C1128 1.378 . S
C1136 C1131 1.350 . S
C1137 H1124 0.929 . S
C1137 C1129 1.433 . S
C1137 N1139 1.384 . S
N1138 C1134 1.427 . S
N1138 C1135 1.384 . S
N1139 C1131 1.427 . S
N1139 C1137 1.384 . S
H1140 C1146 0.930 . S
H1141 C1150 0.930 . S
H1142 C1155 0.929 . S
H1143 C1153 0.929 . S
H1144 C1148 0.929 . S
H1145 C1154 0.929 . S
C1146 H1140 0.930 . S
C1146 C1147 1.367 . S
C1146 C1154 1.378 . S
C1147 C1146 1.367 . S
C1147 C1155 1.433 . S
C1148 H1144 0.929 . S
C1148 C1150 1.378 . S
C1148 C1152 1.350 . S
C1149 C1152 1.463 . S
C1149 C1154 1.350 . S
C1149 N1157 1.427 . S
C1150 H1141 0.930 . S
C1150 C1148 1.378 . S
C1150 C1151 1.367 . S
C1151 C1150 1.367 . S
C1151 C1153 1.433 . S
C1152 C1148 1.350 . S
C1152 C1149 1.463 . S
C1152 N1156 1.427 . S
C1153 H1143 0.929 . S
C1153 C1151 1.433 . S
C1153 N1156 1.384 . S
C1154 H1145 0.929 . S
C1154 C1146 1.378 . S
C1154 C1149 1.350 . S
C1155 H1142 0.929 . S
C1155 C1147 1.433 . S
C1155 N1157 1.384 . S
N1156 C1152 1.427 . S
N1156 C1153 1.384 . S
N1157 C1149 1.427 . S
N1157 C1155 1.384 . S
H1158 C1164 0.930 . S
H1159 C1168 0.930 . S
H1160 C1173 0.929 . S
H1161 C1171 0.929 . S
H1162 C1166 0.929 . S
H1163 C1172 0.929 . S
C1164 H1158 0.930 . S
C1164 C1165 1.367 . S
C1164 C1172 1.378 . S
C1165 C1164 1.367 . S
C1165 C1173 1.433 . S
C1166 H1162 0.929 . S
C1166 C1168 1.378 . S
C1166 C1170 1.350 . S
C1167 C1170 1.463 . S
C1167 C1172 1.350 . S
C1167 N1175 1.427 . S
C1168 H1159 0.930 . S
C1168 C1166 1.378 . S
C1168 C1169 1.367 . S
C1169 C1168 1.367 . S
C1169 C1171 1.433 . S
C1170 C1166 1.350 . S
C1170 C1167 1.463 . S
C1170 N1174 1.427 . S
C1171 H1161 0.929 . S
C1171 C1169 1.433 . S
C1171 N1174 1.384 . S
C1172 H1163 0.929 . S
C1172 C1164 1.378 . S
C1172 C1167 1.350 . S
C1173 H1160 0.929 . S
C1173 C1165 1.433 . S
C1173 N1175 1.384 . S
N1174 C1170 1.427 . S
N1174 C1171 1.384 . S
N1175 C1167 1.427 . S
N1175 C1173 1.384 . S
H1176 C1182 0.930 . S
H1177 C1186 0.930 . S
H1178 C1191 0.929 . S
H1179 C1189 0.929 . S
H1180 C1184 0.929 . S
H1181 C1190 0.929 . S
C1182 H1176 0.930 . S
C1182 C1183 1.367 . S
C1182 C1190 1.378 . S
C1183 C1182 1.367 . S
C1183 C1191 1.433 . S
C1184 H1180 0.929 . S
C1184 C1186 1.378 . S
C1184 C1188 1.350 . S
C1185 C1188 1.463 . S
C1185 C1190 1.350 . S
C1185 N1193 1.427 . S
C1186 H1177 0.930 . S
C1186 C1184 1.378 . S
C1186 C1187 1.367 . S
C1187 C1186 1.367 . S
C1187 C1189 1.433 . S
C1188 C1184 1.350 . S
C1188 C1185 1.463 . S
C1188 N1192 1.427 . S
C1189 H1179 0.929 . S
C1189 C1187 1.433 . S
C1189 N1192 1.384 . S
C1190 H1181 0.929 . S
C1190 C1182 1.378 . S
C1190 C1185 1.350 . S
C1191 H1178 0.929 . S
C1191 C1183 1.433 . S
C1191 N1193 1.384 . S
N1192 C1188 1.427 . S
N1192 C1189 1.384 . S
N1193 C1185 1.427 . S
N1193 C1191 1.384 . S
H1194 C1200 0.930 . S
H1195 C1204 0.930 . S
H1196 C1209 0.929 . S
H1197 C1207 0.929 . S
H1198 C1202 0.929 . S
H1199 C1208 0.929 . S
C1200 H1194 0.930 . S
C1200 C1201 1.367 . S
C1200 C1208 1.378 . S
C1201 C1200 1.367 . S
C1201 C1209 1.433 . S
C1202 H1198 0.929 . S
C1202 C1204 1.378 . S
C1202 C1206 1.350 . S
C1203 C1206 1.463 . S
C1203 C1208 1.350 . S
C1203 N1211 1.427 . S
C1204 H1195 0.930 . S
C1204 C1202 1.378 . S
C1204 C1205 1.367 . S
C1205 C1204 1.367 . S
C1205 C1207 1.433 . S
C1206 C1202 1.350 . S
C1206 C1203 1.463 . S
C1206 N1210 1.427 . S
C1207 H1197 0.929 . S
C1207 C1205 1.433 . S
C1207 N1210 1.384 . S
C1208 H1199 0.929 . S
C1208 C1200 1.378 . S
C1208 C1203 1.350 . S
C1209 H1196 0.929 . S
C1209 C1201 1.433 . S
C1209 N1211 1.384 . S
N1210 C1206 1.427 . S
N1210 C1207 1.384 . S
N1211 C1203 1.427 . S
N1211 C1209 1.384 . S
H1212 C1218 0.930 . S
H1213 C1222 0.930 . S
H1214 C1227 0.929 . S
H1215 C1225 0.929 . S
H1216 C1220 0.929 . S
H1217 C1226 0.929 . S
C1218 H1212 0.930 . S
C1218 C1219 1.367 . S
C1218 C1226 1.378 . S
C1219 C1218 1.367 . S
C1219 C1227 1.433 . S
C1220 H1216 0.929 . S
C1220 C1222 1.378 . S
C1220 C1224 1.350 . S
C1221 C1224 1.463 . S
C1221 C1226 1.350 . S
C1221 N1229 1.427 . S
C1222 H1213 0.930 . S
C1222 C1220 1.378 . S
C1222 C1223 1.367 . S
C1223 C1222 1.367 . S
C1223 C1225 1.433 . S
C1224 C1220 1.350 . S
C1224 C1221 1.463 . S
C1224 N1228 1.427 . S
C1225 H1215 0.929 . S
C1225 C1223 1.433 . S
C1225 N1228 1.384 . S
C1226 H1217 0.929 . S
C1226 C1218 1.378 . S
C1226 C1221 1.350 . S
C1227 H1214 0.929 . S
C1227 C1219 1.433 . S
C1227 N1229 1.384 . S
N1228 C1224 1.427 . S
N1228 C1225 1.384 . S
N1229 C1221 1.427 . S
N1229 C1227 1.384 . S
H1230 C1236 0.930 . S
H1231 C1240 0.930 . S
H1232 C1245 0.929 . S
H1233 C1243 0.929 . S
H1234 C1238 0.929 . S
H1235 C1244 0.929 . S
C1236 H1230 0.930 . S
C1236 C1237 1.367 . S
C1236 C1244 1.378 . S
C1237 C1236 1.367 . S
C1237 C1245 1.433 . S
C1238 H1234 0.929 . S
C1238 C1240 1.378 . S
C1238 C1242 1.350 . S
C1239 C1242 1.463 . S
C1239 C1244 1.350 . S
C1239 N1247 1.427 . S
C1240 H1231 0.930 . S
C1240 C1238 1.378 . S
C1240 C1241 1.367 . S
C1241 C1240 1.367 . S
C1241 C1243 1.433 . S
C1242 C1238 1.350 . S
C1242 C1239 1.463 . S
C1242 N1246 1.427 . S
C1243 H1233 0.929 . S
C1243 C1241 1.433 . S
C1243 N1246 1.384 . S
C1244 H1235 0.929 . S
C1244 C1236 1.378 . S
C1244 C1239 1.350 . S
C1245 H1232 0.929 . S
C1245 C1237 1.433 . S
C1245 N1247 1.384 . S
N1246 C1242 1.427 . S
N1246 C1243 1.384 . S
N1247 C1239 1.427 . S
N1247 C1245 1.384 . S
C535 N398 1.440 . S
C539 N13 1.437 . S
C553 N46 1.416 . S
C557 N431 1.418 . S
C571 N68 1.436 . S
C575 N475 1.445 . S
C589 N112 1.421 . S
C593 N497 1.423 . S
C607 N266 1.419 . S
C611 N145 1.417 . S
C625 N310 1.433 . S
C629 N167 1.425 . S
C643 N200 1.411 . S
C647 N343 1.418 . S
C661 N376 1.441 . S
C665 N233 1.433 . S
C679 C21 1.136 . S
C683 C483 1.135 . S
C697 C516 1.174 . S
C701 C54 1.174 . S
C715 C417 1.145 . S
C719 C87 1.143 . S
C733 C450 1.169 . S
C737 C120 1.169 . S
C751 C351 1.128 . S
C755 C153 1.128 . S
C769 C384 1.101 . S
C773 C186 1.102 . S
C787 C285 1.138 . S
C791 C219 1.136 . S
C805 C318 1.107 . S
C809 C252 1.107 . S
C823 C7 1.245 . S
C827 C348 1.316 . S
C841 C381 1.278 . S
C845 C40 1.248 . S
C859 C271 1.279 . S
C863 C84 1.279 . S
C877 C315 1.323 . S
C881 C106 1.300 . S
C895 C139 1.268 . S
C899 C480 1.309 . S
C913 C183 1.290 . S
C917 C502 1.319 . S
C931 C403 1.277 . S
C935 C216 1.280 . S
C949 C249 1.232 . S
C953 C436 1.276 . S
C967 N409 1.737 . S
C971 N2 1.730 . S
C985 N35 1.757 . S
C989 N442 1.764 . S
C1003 N79 1.737 . S
C1007 N464 1.737 . S
C1021 N508 1.761 . S
C1025 N101 1.754 . S
C1039 N277 1.784 . S
C1043 N134 1.777 . S
C1057 N178 1.768 . S
C1061 N299 1.766 . S
C1075 N332 1.796 . S
C1079 N211 1.798 . S
C1093 N365 1.771 . S
C1097 N244 1.773 . S
C1111 C172 1.384 . S
C1115 C18 1.387 . S
C1129 C205 1.435 . S
C1133 C51 1.453 . S
C1147 C73 1.371 . S
C1151 C238 1.379 . S
C1165 C150 1.459 . S
C1169 C117 1.451 . S
C1183 C282 1.299 . S
C1187 C447 1.313 . S
C1201 C469 1.298 . S
C1205 C304 1.297 . S
C1219 C513 1.333 . S
C1223 C337 1.338 . S
C1237 C370 1.250 . S
C1241 C414 1.242 . S
