# Generated by pormake.
# Topology uox, (4)-cn, num edge types: 1
# Building blocks:
#     Node 0, Type 0, BuildingBlock: UXUYUI_clean_sbu_0, # of connection points: 4
#     Node 1, Type 0, BuildingBlock: UXUYUI_clean_sbu_0, # of connection points: 4
#     Node 2, Type 0, BuildingBlock: UXUYUI_clean_sbu_0, # of connection points: 4
#     Node 3, Type 0, BuildingBlock: UXUYUI_clean_sbu_0, # of connection points: 4
#     Node 4, Type 0, BuildingBlock: UXUYUI_clean_sbu_0, # of connection points: 4
#     Node 5, Type 0, BuildingBlock: UXUYUI_clean_sbu_0, # of connection points: 4
#     Node 6, Type 0, BuildingBlock: UXUYUI_clean_sbu_0, # of connection points: 4
#     Node 7, Type 0, BuildingBlock: UXUYUI_clean_sbu_0, # of connection points: 4
#     Node 8, Type 0, BuildingBlock: UXUYUI_clean_sbu_0, # of connection points: 4
#     Node 9, Type 0, BuildingBlock: UXUYUI_clean_sbu_0, # of connection points: 4
#     Node 10, Type 0, BuildingBlock: UXUYUI_clean_sbu_0, # of connection points: 4
#     Node 11, Type 0, BuildingBlock: UXUYUI_clean_sbu_0, # of connection points: 4
#     Node 12, Type 0, BuildingBlock: UXUYUI_clean_sbu_0, # of connection points: 4
#     Node 13, Type 0, BuildingBlock: UXUYUI_clean_sbu_0, # of connection points: 4
#     Node 14, Type 0, BuildingBlock: UXUYUI_clean_sbu_0, # of connection points: 4
#     Node 15, Type 0, BuildingBlock: UXUYUI_clean_sbu_0, # of connection points: 4
#     Node 16, Type 0, BuildingBlock: UXUYUI_clean_sbu_0, # of connection points: 4
#     Node 17, Type 0, BuildingBlock: UXUYUI_clean_sbu_0, # of connection points: 4
#     Node 18, Type 0, BuildingBlock: UXUYUI_clean_sbu_0, # of connection points: 4
#     Node 19, Type 0, BuildingBlock: UXUYUI_clean_sbu_0, # of connection points: 4
#     Node 20, Type 0, BuildingBlock: UXUYUI_clean_sbu_0, # of connection points: 4
#     Node 21, Type 0, BuildingBlock: UXUYUI_clean_sbu_0, # of connection points: 4
#     Node 22, Type 0, BuildingBlock: UXUYUI_clean_sbu_0, # of connection points: 4
#     Node 23, Type 0, BuildingBlock: UXUYUI_clean_sbu_0, # of connection points: 4
#     Node 24, Type 0, BuildingBlock: UXUYUI_clean_sbu_0, # of connection points: 4
#     Node 25, Type 0, BuildingBlock: UXUYUI_clean_sbu_0, # of connection points: 4
#     Node 26, Type 0, BuildingBlock: UXUYUI_clean_sbu_0, # of connection points: 4
#     Node 27, Type 0, BuildingBlock: UXUYUI_clean_sbu_0, # of connection points: 4
#     Node 28, Type 0, BuildingBlock: UXUYUI_clean_sbu_0, # of connection points: 4
#     Node 29, Type 0, BuildingBlock: UXUYUI_clean_sbu_0, # of connection points: 4
#     Node 30, Type 0, BuildingBlock: UXUYUI_clean_sbu_0, # of connection points: 4
#     Node 31, Type 0, BuildingBlock: UXUYUI_clean_sbu_0, # of connection points: 4
#     Edge 32, Type (0, 0), BuildingBlock: UVAHIK_clean_linker_0, # of connection points: 2
#     Edge 33, Type (0, 0), BuildingBlock: UVAHIK_clean_linker_0, # of connection points: 2
#     Edge 34, Type (0, 0), BuildingBlock: UVAHIK_clean_linker_0, # of connection points: 2
#     Edge 35, Type (0, 0), BuildingBlock: UVAHIK_clean_linker_0, # of connection points: 2
#     Edge 36, Type (0, 0), BuildingBlock: UVAHIK_clean_linker_0, # of connection points: 2
#     Edge 37, Type (0, 0), BuildingBlock: UVAHIK_clean_linker_0, # of connection points: 2
#     Edge 38, Type (0, 0), BuildingBlock: UVAHIK_clean_linker_0, # of connection points: 2
#     Edge 39, Type (0, 0), BuildingBlock: UVAHIK_clean_linker_0, # of connection points: 2
#     Edge 40, Type (0, 0), BuildingBlock: UVAHIK_clean_linker_0, # of connection points: 2
#     Edge 41, Type (0, 0), BuildingBlock: UVAHIK_clean_linker_0, # of connection points: 2
#     Edge 42, Type (0, 0), BuildingBlock: UVAHIK_clean_linker_0, # of connection points: 2
#     Edge 43, Type (0, 0), BuildingBlock: UVAHIK_clean_linker_0, # of connection points: 2
#     Edge 44, Type (0, 0), BuildingBlock: UVAHIK_clean_linker_0, # of connection points: 2
#     Edge 45, Type (0, 0), BuildingBlock: UVAHIK_clean_linker_0, # of connection points: 2
#     Edge 46, Type (0, 0), BuildingBlock: UVAHIK_clean_linker_0, # of connection points: 2
#     Edge 47, Type (0, 0), BuildingBlock: UVAHIK_clean_linker_0, # of connection points: 2
#     Edge 48, Type (0, 0), BuildingBlock: UVAHIK_clean_linker_0, # of connection points: 2
#     Edge 49, Type (0, 0), BuildingBlock: UVAHIK_clean_linker_0, # of connection points: 2
#     Edge 50, Type (0, 0), BuildingBlock: UVAHIK_clean_linker_0, # of connection points: 2
#     Edge 51, Type (0, 0), BuildingBlock: UVAHIK_clean_linker_0, # of connection points: 2
#     Edge 52, Type (0, 0), BuildingBlock: UVAHIK_clean_linker_0, # of connection points: 2
#     Edge 53, Type (0, 0), BuildingBlock: UVAHIK_clean_linker_0, # of connection points: 2
#     Edge 54, Type (0, 0), BuildingBlock: UVAHIK_clean_linker_0, # of connection points: 2
#     Edge 55, Type (0, 0), BuildingBlock: UVAHIK_clean_linker_0, # of connection points: 2
#     Edge 56, Type (0, 0), BuildingBlock: UVAHIK_clean_linker_0, # of connection points: 2
#     Edge 57, Type (0, 0), BuildingBlock: UVAHIK_clean_linker_0, # of connection points: 2
#     Edge 58, Type (0, 0), BuildingBlock: UVAHIK_clean_linker_0, # of connection points: 2
#     Edge 59, Type (0, 0), BuildingBlock: UVAHIK_clean_linker_0, # of connection points: 2
#     Edge 60, Type (0, 0), BuildingBlock: UVAHIK_clean_linker_0, # of connection points: 2
#     Edge 61, Type (0, 0), BuildingBlock: UVAHIK_clean_linker_0, # of connection points: 2
#     Edge 62, Type (0, 0), BuildingBlock: UVAHIK_clean_linker_0, # of connection points: 2
#     Edge 63, Type (0, 0), BuildingBlock: UVAHIK_clean_linker_0, # of connection points: 2
#     Edge 64, Type (0, 0), BuildingBlock: UVAHIK_clean_linker_0, # of connection points: 2
#     Edge 65, Type (0, 0), BuildingBlock: UVAHIK_clean_linker_0, # of connection points: 2
#     Edge 66, Type (0, 0), BuildingBlock: UVAHIK_clean_linker_0, # of connection points: 2
#     Edge 67, Type (0, 0), BuildingBlock: UVAHIK_clean_linker_0, # of connection points: 2
#     Edge 68, Type (0, 0), BuildingBlock: UVAHIK_clean_linker_0, # of connection points: 2
#     Edge 69, Type (0, 0), BuildingBlock: UVAHIK_clean_linker_0, # of connection points: 2
#     Edge 70, Type (0, 0), BuildingBlock: UVAHIK_clean_linker_0, # of connection points: 2
#     Edge 71, Type (0, 0), BuildingBlock: UVAHIK_clean_linker_0, # of connection points: 2
#     Edge 72, Type (0, 0), BuildingBlock: UVAHIK_clean_linker_0, # of connection points: 2
#     Edge 73, Type (0, 0), BuildingBlock: UVAHIK_clean_linker_0, # of connection points: 2
#     Edge 74, Type (0, 0), BuildingBlock: UVAHIK_clean_linker_0, # of connection points: 2
#     Edge 75, Type (0, 0), BuildingBlock: UVAHIK_clean_linker_0, # of connection points: 2
#     Edge 76, Type (0, 0), BuildingBlock: UVAHIK_clean_linker_0, # of connection points: 2
#     Edge 77, Type (0, 0), BuildingBlock: UVAHIK_clean_linker_0, # of connection points: 2
#     Edge 78, Type (0, 0), BuildingBlock: UVAHIK_clean_linker_0, # of connection points: 2
#     Edge 79, Type (0, 0), BuildingBlock: UVAHIK_clean_linker_0, # of connection points: 2
#     Edge 80, Type (0, 0), BuildingBlock: UVAHIK_clean_linker_0, # of connection points: 2
#     Edge 81, Type (0, 0), BuildingBlock: UVAHIK_clean_linker_0, # of connection points: 2
#     Edge 82, Type (0, 0), BuildingBlock: UVAHIK_clean_linker_0, # of connection points: 2
#     Edge 83, Type (0, 0), BuildingBlock: UVAHIK_clean_linker_0, # of connection points: 2
#     Edge 84, Type (0, 0), BuildingBlock: UVAHIK_clean_linker_0, # of connection points: 2
#     Edge 85, Type (0, 0), BuildingBlock: UVAHIK_clean_linker_0, # of connection points: 2
#     Edge 86, Type (0, 0), BuildingBlock: UVAHIK_clean_linker_0, # of connection points: 2
#     Edge 87, Type (0, 0), BuildingBlock: UVAHIK_clean_linker_0, # of connection points: 2
#     Edge 88, Type (0, 0), BuildingBlock: UVAHIK_clean_linker_0, # of connection points: 2
#     Edge 89, Type (0, 0), BuildingBlock: UVAHIK_clean_linker_0, # of connection points: 2
#     Edge 90, Type (0, 0), BuildingBlock: UVAHIK_clean_linker_0, # of connection points: 2
#     Edge 91, Type (0, 0), BuildingBlock: UVAHIK_clean_linker_0, # of connection points: 2
#     Edge 92, Type (0, 0), BuildingBlock: UVAHIK_clean_linker_0, # of connection points: 2
#     Edge 93, Type (0, 0), BuildingBlock: UVAHIK_clean_linker_0, # of connection points: 2
#     Edge 94, Type (0, 0), BuildingBlock: UVAHIK_clean_linker_0, # of connection points: 2
#     Edge 95, Type (0, 0), BuildingBlock: UVAHIK_clean_linker_0, # of connection points: 2
# Relax obj value: 0.188
# Max RMSD: 0.179
# Mean RMSD: 0.179
data_MOF--net-uox--node1-UXUYUI_clean_sbu_0--edge1-UVAHIK_clean_linker_0
_symmetry_space_group_name_H-M    P1
_symmetry_Int_Tables_number       1
_symmetry_cell_setting            triclinic
loop_
_symmetry_equiv_pos_as_xyz
'x, y, z'
_cell_length_a     78.427169
_cell_length_b     78.394708
_cell_length_c     139.27536
_cell_angle_alpha  90.010833
_cell_angle_beta   89.981267
_cell_angle_gamma 90.01326
loop_
_atom_site_label
_atom_site_type_symbol
_atom_site_fract_x
_atom_site_fract_y
_atom_site_fract_z
_atom_type_partial_charge
Li0 Li 0.44218 0.0402 0.15033 0.0
Li1 Li 0.42533 0.03716 0.16503 0.0
Li2 Li 0.41923 0.02012 0.15077 0.0
Li3 Li 0.41296 0.05065 0.15125 0.0
C4 C 0.44319 0.00317 0.15982 0.0
N5 N 0.44772 0.96839 0.16178 0.0
C6 C 0.43934 0.99514 0.16851 0.0
C7 C 0.44946 0.99353 0.15214 0.0
C8 C 0.4417 0.97754 0.16935 0.0
C9 C 0.45162 0.97596 0.15327 0.0
C10 C 0.43931 0.06747 0.16621 0.0
C11 C 0.43521 0.08321 0.18091 0.0
N12 N 0.45241 0.08453 0.18192 0.0
C13 C 0.45695 0.06902 0.16738 0.0
C14 C 0.42834 0.07466 0.17301 0.0
C15 C 0.46332 0.0777 0.17537 0.0
C16 C 0.46696 0.05983 0.14076 0.0
N17 N 0.4642 0.04469 0.14525 0.0
C18 C 0.49289 0.03596 0.14223 0.0
C19 C 0.47678 0.03287 0.14614 0.0
C20 C 0.49599 0.05132 0.13736 0.0
C21 C 0.4828 0.06337 0.13666 0.0
H22 H 0.4568 0.06912 0.14034 0.0
H23 H 0.47431 0.02105 0.14987 0.0
C24 C 0.41073 0.03208 0.18307 0.0
N25 N 0.42568 0.03582 0.17862 0.0
C26 C 0.41035 0.02907 0.19292 0.0
C27 C 0.44075 0.03418 0.1935 0.0
C28 C 0.44057 0.03692 0.18359 0.0
C29 C 0.42553 0.02989 0.19823 0.0
H30 H 0.39916 0.03088 0.17893 0.0
H31 H 0.45235 0.03943 0.17981 0.0
C32 C 0.43144 0.04112 0.13237 0.0
N33 N 0.44862 0.04962 0.11572 0.0
C34 C 0.42922 0.05722 0.12824 0.0
C35 C 0.44229 0.02931 0.128 0.0
C36 C 0.43803 0.06128 0.11982 0.0
C37 C 0.45091 0.03387 0.1196 0.0
C38 C 0.38622 0.03608 0.15883 0.0
C39 C 0.37561 0.02746 0.15238 0.0
C40 C 0.37953 0.04913 0.16454 0.0
C41 C 0.35845 0.03212 0.15173 0.0
C42 C 0.36232 0.05344 0.16365 0.0
N43 N 0.35223 0.04492 0.15732 0.0
C44 C 0.40435 0.98844 0.15388 0.0
C45 C 0.41075 0.99374 0.13751 0.0
C46 C 0.39728 0.97267 0.15158 0.0
N47 N 0.41088 -0.00143 0.14687 0.0
C48 C 0.40364 0.97809 0.13486 0.0
C49 C 0.39661 0.9674 0.14195 0.0
H50 H 0.40446 0.99276 0.16125 0.0
H51 H 0.4158 0.00219 0.13208 0.0
C52 C 0.39739 0.08314 0.15139 0.0
N53 N 0.3974 0.06762 0.14706 0.0
C54 C 0.3857 0.09558 0.14858 0.0
C55 C 0.37439 0.07588 0.13684 0.0
C56 C 0.3863 0.0638 0.13988 0.0
C57 C 0.37399 0.09202 0.14122 0.0
H58 H 0.40648 0.08587 0.157 0.0
H59 H 0.38665 0.05133 0.13657 0.0
O60 O 0.44066 0.02033 0.15879 0.0
O61 O 0.43283 0.05894 0.15846 0.0
O62 O 0.42313 0.037 0.14068 0.0
O63 O 0.40314 0.03197 0.15942 0.0
H64 H 0.43443 0.00236 0.17452 0.0
H65 H 0.4524 -0.00048 0.14534 0.0
H66 H 0.4387 0.97114 0.17603 0.0
H67 H 0.45633 0.96833 0.14736 0.0
H68 H 0.42688 0.08873 0.18627 0.0
H69 H 0.46563 0.06351 0.16221 0.0
H70 H 0.41466 0.07343 0.17227 0.0
H71 H 0.47693 0.07896 0.17639 0.0
H72 H 0.50274 0.02635 0.14291 0.0
H73 H 0.48478 0.0755 0.13311 0.0
H74 H 0.39836 0.02585 0.19633 0.0
H75 H 0.45274 0.03469 0.19735 0.0
H76 H 0.42094 0.06656 0.13155 0.0
H77 H 0.44422 0.01683 0.13112 0.0
H78 H 0.4365 0.07371 0.11657 0.0
H79 H 0.45945 0.0249 0.11618 0.0
H80 H 0.38059 0.01741 0.14786 0.0
H81 H 0.3876 0.05602 0.1695 0.0
H82 H 0.35011 0.02562 0.14675 0.0
H83 H 0.357 0.0636 0.16797 0.0
H84 H 0.39222 0.96478 0.15729 0.0
H85 H 0.40314 0.97468 0.12733 0.0
H86 H 0.38604 0.10796 0.15203 0.0
H87 H 0.36552 0.07257 0.13118 0.0
Li88 Li 0.20631 0.1904 0.39959 0.0
Li89 Li 0.2127 0.17377 0.41427 0.0
Li90 Li 0.22747 0.16905 0.39943 0.0
Li91 Li 0.19723 0.16038 0.40063 0.0
C92 C 0.24441 0.19371 0.4072 0.0
N93 N 0.27916 0.19951 0.40658 0.0
C94 C 0.25481 0.18839 0.41477 0.0
C95 C 0.25167 0.20215 0.39935 0.0
C96 C 0.27235 0.1914 0.41432 0.0
C97 C 0.26926 0.20491 0.39916 0.0
C98 C 0.17794 0.18741 0.4141 0.0
C99 C 0.15178 0.18637 0.42319 0.0
N100 N 0.15322 0.20334 0.42504 0.0
C101 C 0.17911 0.20487 0.41604 0.0
C102 C 0.16411 0.17809 0.41765 0.0
C103 C 0.16651 0.21268 0.42161 0.0
C104 C 0.18338 0.21218 0.39038 0.0
N105 N 0.1988 0.21175 0.39479 0.0
C106 C 0.2032 0.24135 0.39161 0.0
C107 C 0.20865 0.22594 0.39559 0.0
C108 C 0.18753 0.24209 0.38671 0.0
C109 C 0.17756 0.22721 0.38617 0.0
H110 H 0.17576 0.2007 0.38996 0.0
H111 H 0.22072 0.22528 0.39931 0.0
C112 C 0.22616 0.16215 0.43176 0.0
N113 N 0.21549 0.17398 0.42791 0.0
C114 C 0.22951 0.16206 0.44159 0.0
C115 C 0.21102 0.18651 0.44336 0.0
C116 C 0.208 0.18609 0.43349 0.0
C117 C 0.22197 0.17441 0.44753 0.0
H118 H 0.23248 0.15303 0.42716 0.0
H119 H 0.19995 0.19565 0.43028 0.0
C120 C 0.20445 0.17949 0.38144 0.0
N121 N 0.19425 0.19555 0.36473 0.0
C122 C 0.18949 0.17441 0.37679 0.0
C123 C 0.21437 0.19254 0.37749 0.0
C124 C 0.18452 0.18272 0.36838 0.0
C125 C 0.20894 0.20057 0.36907 0.0
C126 C 0.21218 0.13781 0.41344 0.0
C127 C 0.22167 0.12273 0.41336 0.0
C128 C 0.19745 0.13887 0.41905 0.0
C129 C 0.21624 0.10892 0.41891 0.0
C130 C 0.19244 0.12479 0.42451 0.0
N131 N 0.20186 0.11022 0.42432 0.0
C132 C 0.25903 0.15298 0.40061 0.0
C133 C 0.25365 0.16539 0.38539 0.0
C134 C 0.27468 0.14672 0.39744 0.0
N135 N 0.24888 0.162 0.39457 0.0
C136 C 0.26923 0.15938 0.3819 0.0
C137 C 0.27989 0.14974 0.38793 0.0
H138 H 0.2548 0.15043 0.40787 0.0
H139 H 0.24529 0.17254 0.38073 0.0
C140 C 0.16412 0.1519 0.39542 0.0
N141 N 0.17975 0.14501 0.39703 0.0
C142 C 0.15081 0.14174 0.39207 0.0
C143 C 0.16972 0.11737 0.3925 0.0
C144 C 0.18279 0.1281 0.39568 0.0
C145 C 0.1536 0.12428 0.39051 0.0
H146 H 0.16216 0.16543 0.39648 0.0
H147 H 0.19541 0.123 0.3969 0.0
O148 O 0.22727 0.19048 0.4074 0.0
O149 O 0.18998 0.17955 0.40854 0.0
O150 O 0.20937 0.17167 0.38979 0.0
O151 O 0.21733 0.15138 0.40798 0.0
H152 H 0.24943 0.18187 0.4209 0.0
H153 H 0.24384 0.20638 0.39343 0.0
H154 H 0.28056 0.18725 0.4201 0.0
H155 H 0.27506 0.21131 0.3931 0.0
H156 H 0.14103 0.1793 0.42601 0.0
H157 H 0.18977 0.21228 0.41342 0.0
H158 H 0.16287 0.16461 0.41613 0.0
H159 H 0.16731 0.22616 0.42321 0.0
H160 H 0.21116 0.25254 0.3924 0.0
H161 H 0.16553 0.22701 0.38237 0.0
H162 H 0.23833 0.15274 0.44447 0.0
H163 H 0.20492 0.19624 0.44769 0.0
H164 H 0.1818 0.16416 0.37963 0.0
H165 H 0.22596 0.19666 0.38097 0.0
H166 H 0.17292 0.17897 0.36474 0.0
H167 H 0.2164 0.21083 0.36601 0.0
H168 H 0.2331 0.12172 0.40903 0.0
H169 H 0.19002 0.15046 0.41923 0.0
H170 H 0.22346 0.09716 0.41891 0.0
H171 H 0.18107 0.12544 0.42889 0.0
H172 H 0.28232 0.13911 0.40229 0.0
H173 H 0.27281 0.16212 0.37455 0.0
H174 H 0.13849 0.14746 0.39067 0.0
H175 H 0.17231 0.10396 0.3913 0.0
Li176 Li 0.05289 0.95636 0.6502 0.0
Li177 Li 0.07012 0.96262 0.6646 0.0
Li178 Li 0.07452 0.97695 0.6496 0.0
Li179 Li 0.08252 0.94674 0.65095 0.0
C180 C 0.05035 0.99465 0.65759 0.0
N181 N 0.04458 0.02941 0.6569 0.0
C182 C 0.05378 0.00483 0.6656 0.0
C183 C 0.04371 0.00213 0.64928 0.0
C184 C 0.05084 0.02238 0.6651 0.0
C185 C 0.04097 0.01973 0.64905 0.0
C186 C 0.05386 0.92964 0.66504 0.0
C187 C 0.05061 0.90427 0.67466 0.0
N188 N 0.03422 0.90878 0.6766 0.0
C189 C 0.03699 0.93406 0.66714 0.0
C190 C 0.06073 0.91463 0.66883 0.0
C191 C 0.02726 0.92332 0.67299 0.0
C192 C 0.02917 0.93366 0.6421 0.0
N193 N 0.03109 0.94973 0.6456 0.0
C194 C 0.00221 0.95651 0.64175 0.0
C195 C 0.01798 0.96106 0.64561 0.0
C196 C -1e-05 0.94015 0.63784 0.0
C197 C 0.01368 0.92861 0.6381 0.0
H198 H 0.03979 0.92486 0.64231 0.0
H199 H 0.01981 0.97368 0.64856 0.0
C200 C 0.08215 0.97847 0.68112 0.0
N201 N 0.07135 0.96593 0.67819 0.0
C202 C 0.08363 0.98254 0.69082 0.0
C203 C 0.06296 0.9606 0.69442 0.0
C204 C 0.06191 0.95693 0.68463 0.0
C205 C 0.07383 0.97366 0.69762 0.0
H206 H 0.08942 0.98556 0.67586 0.0
H207 H 0.05335 0.9471 0.68224 0.0
C208 C 0.06272 0.95279 0.63217 0.0
N209 N 0.04528 0.94065 0.61633 0.0
C210 C 0.06629 0.93656 0.62853 0.0
C211 C 0.05045 0.96294 0.62765 0.0
C212 C 0.05731 0.93063 0.62053 0.0
C213 C 0.04171 0.95654 0.61969 0.0
C214 C 0.10554 0.96118 0.66354 0.0
C215 C 0.12066 0.97059 0.66384 0.0
C216 C 0.10416 0.94613 0.66886 0.0
C217 C 0.1342 0.96477 0.66947 0.0
C218 C 0.11799 0.94074 0.67441 0.0
N219 N 0.13259 0.95009 0.67459 0.0
C220 C 0.08947 0.00925 0.65045 0.0
C221 C 0.0799 0.00138 0.63492 0.0
C222 C 0.09572 0.02468 0.64695 0.0
N223 N 0.08184 -0.00201 0.64442 0.0
C224 C 0.08599 0.01666 0.6311 0.0
C225 C 0.09422 0.02845 0.63713 0.0
H226 H 0.09092 0.00607 0.65797 0.0
H227 H 0.07388 0.99212 0.63028 0.0
C228 C 0.09216 0.913 0.64754 0.0
N229 N 0.09801 0.9293 0.64754 0.0
C230 C 0.10294 0.89963 0.64498 0.0
C231 C 0.12565 0.92005 0.64256 0.0
C232 C 0.11437 0.93307 0.64512 0.0
C233 C 0.11996 0.90305 0.64245 0.0
H234 H 0.079 0.91045 0.64936 0.0
H235 H 0.11864 0.94619 0.64517 0.0
O236 O 0.05349 0.97747 0.65788 0.0
O237 O 0.06356 0.93973 0.65918 0.0
O238 O 0.07117 0.95868 0.64011 0.0
O239 O 0.09223 0.96675 0.65801 0.0
H240 H 0.05867 -0.00073 0.67213 0.0
H241 H 0.04097 0.99448 0.64302 0.0
H242 H 0.05353 0.03042 0.67123 0.0
H243 H 0.03602 0.0257 0.64263 0.0
H244 H 0.05578 0.89263 0.67765 0.0
H245 H 0.03155 0.94578 0.66445 0.0
H246 H 0.07378 0.91104 0.6673 0.0
H247 H 0.01421 0.9266 0.6747 0.0
H248 H 0.99197 0.96577 0.64167 0.0
H249 H 0.01238 0.91578 0.6353 0.0
H250 H 0.09232 0.99257 0.69298 0.0
H251 H 0.055 0.95357 0.6994 0.0
H252 H 0.07583 0.92858 0.63185 0.0
H253 H 0.0475 0.97551 0.63035 0.0
H254 H 0.05988 0.91806 0.61768 0.0
H255 H 0.03205 0.96419 0.6162 0.0
H256 H 0.1219 0.98228 0.65975 0.0
H257 H 0.09258 0.93868 0.66873 0.0
H258 H 0.14598 0.97193 0.66977 0.0
H259 H 0.1171 0.92911 0.67856 0.0
H260 H 0.10223 0.03327 0.65182 0.0
H261 H 0.08448 0.01912 0.62349 0.0
H262 H 0.09786 0.88678 0.6448 0.0
H263 H 0.13869 0.92326 0.64075 0.0
Li264 Li 0.28201 0.81753 0.91406 0.0
Li265 Li 0.28694 0.80045 0.89939 0.0
Li266 Li 0.2974 0.83003 0.90028 0.0
Li267 Li 0.2667 0.82286 0.89926 0.0
C268 C 0.31544 0.80326 0.91439 0.0
N269 N 0.33841 0.78857 0.92695 0.0
C270 C 0.31497 0.7857 0.91613 0.0
C271 C 0.32775 0.8133 0.91895 0.0
C272 C 0.32665 0.77852 0.92253 0.0
C273 C 0.3392 0.80565 0.92531 0.0
C274 C 0.24895 0.7993 0.90751 0.0
C275 C 0.22299 0.79011 0.8998 0.0
N276 N 0.21391 0.79559 0.90752 0.0
C277 C 0.23937 0.80475 0.9154 0.0
C278 C 0.24071 0.79182 0.89966 0.0
C279 C 0.22166 0.80279 0.91526 0.0
C280 C 0.27028 0.83059 0.93159 0.0
N281 N 0.27961 0.8177 0.92771 0.0
C282 C 0.28315 0.80497 0.94318 0.0
C283 C 0.2859 0.80492 0.93327 0.0
C284 C 0.27364 0.8182 0.94738 0.0
C285 C 0.26721 0.83116 0.94144 0.0
H286 H 0.26479 0.84024 0.92699 0.0
H287 H 0.29274 0.79448 0.93003 0.0
C288 C 0.30858 0.77726 0.89029 0.0
N289 N 0.29301 0.77872 0.89449 0.0
C290 C 0.31323 0.76214 0.88573 0.0
C291 C 0.28615 0.74992 0.89043 0.0
C292 C 0.28192 0.7654 0.8948 0.0
C293 C 0.30186 0.74831 0.88568 0.0
H294 H 0.3172 0.78803 0.89028 0.0
H295 H 0.26972 0.76687 0.8983 0.0
C296 C 0.28283 0.85466 0.91199 0.0
N297 N 0.29292 0.88497 0.92034 0.0
C298 C 0.27414 0.86976 0.90989 0.0
C299 C 0.29662 0.85494 0.91833 0.0
C300 C 0.27945 0.88497 0.91419 0.0
C301 C 0.30153 0.8704 0.92248 0.0
C302 C 0.28938 0.81107 0.88129 0.0
C303 C 0.30501 0.81495 0.87699 0.0
C304 C 0.2788 0.79875 0.87714 0.0
C305 C 0.30993 0.80623 0.86869 0.0
C306 C 0.28419 0.79028 0.86885 0.0
N307 N 0.29952 0.79416 0.86484 0.0
C308 C 0.33111 0.83814 0.89596 0.0
C309 C 0.31198 0.8613 0.89392 0.0
C310 C 0.3446 0.84792 0.89247 0.0
N311 N 0.31519 0.84489 0.89651 0.0
C312 C 0.32519 0.87165 0.89054 0.0
C313 C 0.34165 0.86484 0.88963 0.0
H314 H 0.3332 0.82498 0.89796 0.0
H315 H 0.29913 0.86622 0.89426 0.0
C316 C 0.23588 0.84031 0.90071 0.0
N317 N 0.24553 0.8309 0.89459 0.0
C318 C 0.22032 0.84701 0.89769 0.0
C319 C 0.22483 0.83399 0.88215 0.0
C320 C 0.24036 0.82759 0.88547 0.0
C321 C 0.21466 0.844 0.88826 0.0
H322 H 0.2404 0.84275 0.90792 0.0
H323 H 0.24832 0.8201 0.88076 0.0
O324 O 0.30426 0.8105 0.90806 0.0
O325 O 0.26624 0.80155 0.90739 0.0
O326 O 0.27793 0.83972 0.90773 0.0
O327 O 0.28449 0.81925 0.88954 0.0
H328 H 0.30553 0.77772 0.91268 0.0
H329 H 0.32853 0.82686 0.91755 0.0
H330 H 0.32635 0.76497 0.92399 0.0
H331 H 0.34874 0.81328 0.92891 0.0
H332 H 0.21644 0.78448 0.89374 0.0
H333 H 0.24551 0.81055 0.92153 0.0
H334 H 0.2479 0.78763 0.89347 0.0
H335 H 0.21409 0.80703 0.9213 0.0
H336 H 0.28834 0.79472 0.94749 0.0
H337 H 0.25943 0.84136 0.94432 0.0
H338 H 0.32557 0.76127 0.88227 0.0
H339 H 0.27709 0.7395 0.89055 0.0
H340 H 0.26346 0.86973 0.90497 0.0
H341 H 0.3034 0.84335 0.92004 0.0
H342 H 0.27287 0.89677 0.91262 0.0
H343 H 0.31219 0.87082 0.92741 0.0
H344 H 0.31329 0.82454 0.88003 0.0
H345 H 0.26671 0.7955 0.88038 0.0
H346 H 0.32204 0.80904 0.86532 0.0
H347 H 0.27622 0.78058 0.86563 0.0
H348 H 0.35717 0.84228 0.8919 0.0
H349 H 0.32245 0.88461 0.88832 0.0
H350 H 0.21308 0.85489 0.9026 0.0
H351 H 0.2209 0.83121 0.87486 0.0
Li352 Li 0.42099 0.97467 0.34464 0.0
Li353 Li 0.41322 0.94569 0.34243 0.0
Li354 Li 0.44419 0.95475 0.34409 0.0
Li355 Li 0.4269 0.96195 0.32953 0.0
C356 C 0.42232 0.96342 0.36212 0.0
N357 N 0.4159 0.98037 0.37912 0.0
C358 C 0.40569 0.96445 0.36567 0.0
C359 C 0.43571 0.97086 0.36723 0.0
C360 C 0.4027 0.97313 0.37427 0.0
C361 C 0.4322 0.97941 0.37581 0.0
C362 C 0.3921 0.96007 0.32896 0.0
C363 C 0.38147 0.93899 0.31783 0.0
N364 N 0.3679 0.94921 0.31587 0.0
C365 C 0.37808 0.97039 0.32678 0.0
C366 C 0.39385 0.94427 0.3244 0.0
C367 C 0.36597 0.96466 0.32017 0.0
C368 C 0.42187 0.00683 0.35525 0.0
N369 N 0.41233 0.99511 0.35044 0.0
C370 C 0.38728 0.01199 0.35261 0.0
C371 C 0.39526 0.99724 0.34933 0.0
C372 C 0.39695 0.02478 0.35709 0.0
C373 C 0.41443 0.02191 0.35859 0.0
H374 H 0.43523 0.00459 0.35649 0.0
H375 H 0.38778 0.98745 0.34588 0.0
C376 C 0.40333 0.91195 0.34592 0.0
N377 N 0.39757 0.92826 0.34558 0.0
C378 C 0.39231 0.89874 0.34844 0.0
C379 C 0.36969 0.91945 0.35036 0.0
C380 C 0.38113 0.93225 0.34769 0.0
C381 C 0.37528 0.90245 0.35077 0.0
H382 H 0.41657 0.90925 0.34437 0.0
H383 H 0.37698 0.9454 0.34741 0.0
C384 C 0.44974 0.99213 0.33897 0.0
N385 N 0.46462 0.0235 0.34249 0.0
C386 C 0.44529 0.00631 0.33344 0.0
C387 C 0.46182 0.99393 0.34629 0.0
C388 C 0.45291 0.02206 0.33534 0.0
C389 C 0.46921 0.00988 0.34795 0.0
C390 C 0.44276 0.92896 0.32849 0.0
C391 C 0.45886 0.93447 0.32553 0.0
C392 C 0.43639 0.91339 0.32516 0.0
C393 C 0.46843 0.9242 0.31934 0.0
C394 C 0.44632 0.90351 0.31896 0.0
N395 N 0.46202 0.90906 0.31622 0.0
C396 C 0.46538 0.93737 0.35686 0.0
C397 C 0.48054 0.9536 0.3453 0.0
C398 C 0.4806 0.9324 0.36122 0.0
N399 N 0.46563 0.94787 0.3491 0.0
C400 C 0.49606 0.94895 0.34944 0.0
C401 C 0.49622 0.93829 0.35755 0.0
H402 H 0.45331 0.93308 0.35974 0.0
H403 H 0.48038 0.96204 0.33916 0.0
C404 C 0.42038 0.98202 0.31387 0.0
N405 N 0.42681 0.96643 0.31609 0.0
C406 C 0.4199 0.98755 0.30437 0.0
C407 C 0.43174 0.96043 0.2995 0.0
C408 C 0.43211 0.95547 0.30913 0.0
C409 C 0.42581 0.97677 0.29706 0.0
H410 H 0.41552 0.99014 0.31951 0.0
H411 H 0.4366 0.94291 0.31096 0.0
O412 O 0.42545 0.9553 0.35362 0.0
O413 O 0.40414 0.96569 0.33535 0.0
O414 O 0.44271 0.97649 0.33706 0.0
O415 O 0.43319 0.93877 0.33457 0.0
H416 H 0.39519 0.95877 0.36177 0.0
H417 H 0.44866 0.97017 0.36457 0.0
H418 H 0.38988 0.97413 0.37708 0.0
H419 H 0.44242 0.98532 0.37983 0.0
H420 H 0.38267 0.92678 0.31427 0.0
H421 H 0.3766 0.98277 0.33012 0.0
H422 H 0.40462 0.93613 0.32588 0.0
H423 H 0.35507 0.97252 0.31844 0.0
H424 H 0.37365 0.01336 0.35161 0.0
H425 H 0.42236 0.03134 0.3621 0.0
H426 H 0.39718 0.88584 0.34885 0.0
H427 H 0.35664 0.92279 0.35209 0.0
H428 H 0.43607 0.00523 0.32772 0.0
H429 H 0.46523 0.98326 0.35079 0.0
H430 H 0.44954 0.03314 0.33111 0.0
H431 H 0.4785 0.01144 0.35362 0.0
H432 H 0.46374 0.9467 0.32779 0.0
H433 H 0.42385 0.90902 0.32727 0.0
H434 H 0.4809 0.92833 0.31697 0.0
H435 H 0.44154 0.89144 0.31632 0.0
H436 H 0.48011 0.92432 0.36752 0.0
H437 H 0.50781 0.95361 0.3463 0.0
H438 H 0.41482 7e-05 0.30275 0.0
H439 H 0.43631 0.95171 0.29404 0.0
Li440 Li 0.26965 0.17029 0.59527 0.0
Li441 Li 0.30001 0.16506 0.59304 0.0
Li442 Li 0.28788 0.19476 0.59473 0.0
Li443 Li 0.28335 0.17839 0.57998 0.0
C444 C 0.28196 0.16993 0.61263 0.0
N445 N 0.26809 0.1575 0.62946 0.0
C446 C 0.28635 0.15366 0.6159 0.0
C447 C 0.27062 0.17993 0.61793 0.0
C448 C 0.27918 0.1476 0.62443 0.0
C449 C 0.26371 0.1734 0.62642 0.0
C450 C 0.28525 0.14193 0.5798 0.0
C451 C 0.30284 0.13039 0.56718 0.0
N452 N 0.2942 0.11539 0.56776 0.0
C453 C 0.27646 0.12644 0.58025 0.0
C454 C 0.29849 0.14396 0.57319 0.0
C455 C 0.28121 0.11316 0.57412 0.0
C456 C 0.23527 0.16981 0.60169 0.0
N457 N 0.24978 0.16052 0.60062 0.0
C458 C 0.23579 0.13538 0.60619 0.0
C459 C 0.25037 0.14368 0.60288 0.0
C460 C 0.22051 0.14455 0.60717 0.0
C461 C 0.2204 0.16204 0.60504 0.0
H462 H 0.23512 0.18312 0.59972 0.0
H463 H 0.26212 0.13666 0.60196 0.0
C464 C 0.33177 0.15944 0.60101 0.0
N465 N 0.31865 0.15116 0.59667 0.0
C466 C 0.34531 0.15024 0.60491 0.0
C467 C 0.3318 0.12417 0.59957 0.0
C468 C 0.31842 0.13388 0.59586 0.0
C469 C 0.34531 0.13236 0.60431 0.0
H470 H 0.33147 0.17319 0.60163 0.0
H471 H 0.30763 0.12755 0.59263 0.0
C472 C 0.25873 0.2068 0.58706 0.0
N473 N 0.24387 0.2387 0.58604 0.0
C474 C 0.25776 0.21534 0.57827 0.0
C475 C 0.25204 0.21443 0.59532 0.0
C476 C 0.25021 0.23147 0.57791 0.0
C477 C 0.24462 0.23058 0.59466 0.0
C478 C 0.31837 0.1914 0.5799 0.0
C479 C 0.3194 0.20849 0.5771 0.0
C480 C 0.3311 0.17998 0.57705 0.0
C481 C 0.33295 0.21379 0.57131 0.0
C482 C 0.34444 0.18578 0.57126 0.0
N483 N 0.34507 0.20242 0.56852 0.0
C484 C 0.29799 0.21695 0.60936 0.0
C485 C 0.29038 0.23122 0.595 0.0
C486 C 0.30153 0.23245 0.61386 0.0
N487 N 0.29245 0.21661 0.60013 0.0
C488 C 0.29354 0.24703 0.59925 0.0
C489 C 0.29926 0.24781 0.60881 0.0
H490 H 0.2998 0.20513 0.61323 0.0
H491 H 0.28617 0.23066 0.58763 0.0
C492 C 0.26636 0.16915 0.56345 0.0
N493 N 0.27957 0.17897 0.5665 0.0
C494 C 0.26209 0.16852 0.55375 0.0
C495 C 0.28493 0.18839 0.55046 0.0
C496 C 0.28883 0.18855 0.56025 0.0
C497 C 0.27141 0.17824 0.54711 0.0
H498 H 0.25908 0.16184 0.56861 0.0
H499 H 0.29914 0.19639 0.56282 0.0
O500 O 0.28863 0.17598 0.60422 0.0
O501 O 0.2807 0.15506 0.58575 0.0
O502 O 0.26604 0.19099 0.58755 0.0
O503 O 0.30533 0.18602 0.58569 0.0
H504 H 0.29509 0.14575 0.61186 0.0
H505 H 0.26712 0.19255 0.61549 0.0
H506 H 0.28241 0.13501 0.62703 0.0
H507 H 0.25485 0.18096 0.63058 0.0
H508 H 0.31306 0.1318 0.56202 0.0
H509 H 0.26609 0.12469 0.58527 0.0
H510 H 0.30519 0.15594 0.57264 0.0
H511 H 0.27455 0.10108 0.5744 0.0
H512 H 0.23641 0.1219 0.60786 0.0
H513 H 0.20881 0.16949 0.60562 0.0
H514 H 0.35558 0.15701 0.60845 0.0
H515 H 0.33128 0.11039 0.59908 0.0
H516 H 0.26283 0.20961 0.57181 0.0
H517 H 0.2528 0.20806 0.6022 0.0
H518 H 0.24942 0.23825 0.57116 0.0
H519 H 0.23951 0.23669 0.601 0.0
H520 H 0.30973 0.21751 0.57927 0.0
H521 H 0.33077 0.1668 0.57933 0.0
H522 H 0.33382 0.22695 0.56902 0.0
H523 H 0.35433 0.17706 0.56897 0.0
H524 H 0.30629 0.23235 0.62115 0.0
H525 H 0.29142 0.25849 0.59509 0.0
H526 H 0.2514 0.16074 0.5515 0.0
H527 H 0.29249 0.19601 0.54557 0.0
Li528 Li 0.0822 0.04909 0.84367 0.0
Li529 Li 0.07518 0.01986 0.84512 0.0
Li530 Li 0.06894 0.03327 0.83038 0.0
Li531 Li 0.05141 0.0388 0.84526 0.0
C532 C 0.10371 0.03675 0.82987 0.0
N533 N 0.12727 0.05017 0.81715 0.0
C534 C 0.11871 0.02783 0.82777 0.0
C535 C 0.1007 0.05246 0.82543 0.0
C536 C 0.13046 0.03483 0.82134 0.0
C537 C 0.11276 0.05904 0.81904 0.0
C538 C 0.07402 0.03006 0.86299 0.0
C539 C 0.06501 0.0141 0.87688 0.0
N540 N 0.08152 0.01301 0.8798 0.0
C541 C 0.09089 0.0289 0.86615 0.0
C542 C 0.06095 0.02269 0.8684 0.0
C543 C 0.09442 0.02017 0.87466 0.0
C544 C 0.09068 0.08273 0.84851 0.0
N545 N 0.09724 0.06689 0.84715 0.0
C546 C 0.12527 0.07678 0.85091 0.0
C547 C 0.11413 0.06364 0.84836 0.0
C548 C 0.1189 0.09336 0.85228 0.0
C549 C 0.10133 0.09623 0.85107 0.0
H550 H 0.07714 0.08484 0.84764 0.0
H551 H 0.11894 0.05085 0.84732 0.0
C552 C 0.07412 0.98813 0.85586 0.0
N553 N 0.08373 -0.00092 0.85054 0.0
C554 C 0.08106 0.97277 0.85912 0.0
C555 C 0.1079 0.98074 0.85187 0.0
C556 C 0.1004 0.99581 0.8487 0.0
C557 C 0.09812 0.96881 0.857 0.0
H558 H 0.06105 0.99121 0.85753 0.0
H559 H 0.10793 0.00494 0.84477 0.0
C560 C 0.05227 0.06659 0.83056 0.0
N561 N 0.03287 0.08872 0.81965 0.0
C562 C 0.03554 0.06233 0.82808 0.0
C563 C 0.05912 0.08214 0.82751 0.0
C564 C 0.02594 0.07368 0.82256 0.0
C565 C 0.04912 0.09314 0.82199 0.0
C566 C 0.04918 0.00103 0.83828 0.0
C567 C 0.05776 0.9888 0.8328 0.0
C568 C 0.03599 0.99594 0.8444 0.0
C569 C 0.0531 0.97165 0.8336 0.0
C570 C 0.03167 0.97868 0.84497 0.0
N571 N 0.04026 0.96699 0.83961 0.0
C572 C 0.07912 0.01689 0.81384 0.0
C573 C 0.0597 0.03919 0.81039 0.0
C574 C 0.08008 0.01251 0.80417 0.0
N575 N 0.06892 0.02989 0.81679 0.0
C576 C 0.06029 0.03526 0.80061 0.0
C577 C 0.07046 0.02164 0.79741 0.0
H578 H 0.08655 0.00985 0.81904 0.0
H579 H 0.05179 0.04955 0.81281 0.0
C580 C 0.02986 0.05488 0.85834 0.0
N581 N 0.02988 0.04439 0.85058 0.0
C582 C 0.01456 0.05903 0.86288 0.0
C583 C -0.00043 0.04168 0.85127 0.0
C584 C 0.01518 0.03783 0.84696 0.0
C585 C -0.00086 0.05234 0.85938 0.0
H586 H 0.04177 0.05991 0.86103 0.0
H587 H 0.01558 0.02951 0.84077 0.0
O588 O 0.09202 0.02988 0.8361 0.0
O589 O 0.07033 0.03831 0.8546 0.0
O590 O 0.0618 0.05579 0.8361 0.0
O591 O 0.05346 0.0179 0.83754 0.0
H592 H 0.12125 0.01557 0.83102 0.0
H593 H 0.08921 0.05953 0.82686 0.0
H594 H 0.1421 0.02805 0.81966 0.0
H595 H 0.11056 0.07119 0.81558 0.0
H596 H 0.05504 0.00824 0.88112 0.0
H597 H 0.10113 0.03454 0.86202 0.0
H598 H 0.04784 0.02343 0.86601 0.0
H599 H 0.10743 0.01907 0.87718 0.0
H600 H 0.13872 0.07402 0.8517 0.0
H601 H 0.09581 0.10872 0.85224 0.0
H602 H 0.07306 0.96399 0.86309 0.0
H603 H 0.12125 0.97851 0.85035 0.0
H604 H 0.03017 0.05022 0.83021 0.0
H605 H 0.07203 0.08569 0.82938 0.0
H606 H 0.013 0.0705 0.82055 0.0
H607 H 0.05427 0.1052 0.81957 0.0
H608 H 0.06803 0.99245 0.82807 0.0
H609 H 0.02935 0.00514 0.8488 0.0
H610 H 0.05972 0.96205 0.82944 0.0
H611 H 0.02156 0.97456 0.84972 0.0
H612 H 0.08835 0.00214 0.802 0.0
H613 H 0.05261 0.04258 0.79563 0.0
H614 H 0.01479 0.06753 0.86901 0.0
H615 H 0.988 0.03614 0.84838 0.0
Li616 Li 0.19601 0.83172 0.09337 0.0
Li617 Li 0.22639 0.82579 0.09525 0.0
Li618 Li 0.21216 0.81938 0.07979 0.0
Li619 Li 0.20766 0.80169 0.09409 0.0
C620 C 0.21123 0.85631 0.08114 0.0
N621 N 0.20291 0.88525 0.07084 0.0
C622 C 0.21968 0.87168 0.08294 0.0
C623 C 0.19866 0.85563 0.07405 0.0
C624 C 0.21525 0.88618 0.07768 0.0
C625 C 0.19461 0.8704 0.06893 0.0
C626 C 0.21402 0.82444 0.11277 0.0
C627 C 0.23258 0.81931 0.12626 0.0
N628 N 0.22789 0.83457 0.13008 0.0
C629 C 0.20929 0.84002 0.11685 0.0
C630 C 0.22566 0.81392 0.11753 0.0
C631 C 0.21648 0.84493 0.12561 0.0
C632 C 0.1638 0.83682 0.10092 0.0
N633 N 0.17743 0.84546 0.09737 0.0
C634 C 0.16421 0.87218 0.10098 0.0
C635 C 0.17792 0.8628 0.09734 0.0
C636 C 0.15007 0.86357 0.10483 0.0
C637 C 0.14991 0.84566 0.10471 0.0
H638 H 0.16387 0.82302 0.10093 0.0
H639 H 0.18906 0.86939 0.09471 0.0
C640 C 0.26123 0.82521 0.10077 0.0
N641 N 0.24657 0.83445 0.10089 0.0
C642 C 0.27607 0.83182 0.10487 0.0
C643 C 0.26038 0.8573 0.1091 0.0
C644 C 0.24591 0.85025 0.10487 0.0
C645 C 0.27573 0.84807 0.10912 0.0
H646 H 0.26144 0.81277 0.09745 0.0
H647 H 0.23411 0.85738 0.10472 0.0
C648 C 0.17677 0.80765 0.07958 0.0
N649 N 0.14919 0.79962 0.06808 0.0
C650 C 0.17404 0.79081 0.07665 0.0
C651 C 0.16528 0.82035 0.07679 0.0
C652 C 0.16008 0.78703 0.0708 0.0
C653 C 0.15147 0.81605 0.07094 0.0
C654 C 0.23645 0.78991 0.08591 0.0
C655 C 0.23694 0.78202 0.07692 0.0
C656 C 0.24334 0.78158 0.09389 0.0
C657 C 0.24418 0.7658 0.07607 0.0
C658 C 0.25044 0.76536 0.09275 0.0
N659 N 0.2507 0.75787 0.08394 0.0
C660 C 0.22847 0.82961 0.06313 0.0
C661 C 0.20629 0.80978 0.06013 0.0
C662 C 0.23259 0.83014 0.05339 0.0
N663 N 0.21553 0.81956 0.06629 0.0
C664 C 0.20999 0.80989 0.05032 0.0
C665 C 0.22335 0.82012 0.04685 0.0
H666 H 0.23577 0.83705 0.06821 0.0
H667 H 0.19627 0.80167 0.06281 0.0
C668 C 0.19736 0.77811 0.10799 0.0
N669 N 0.20272 0.77941 0.09874 0.0
C670 C 0.1931 0.76224 0.11184 0.0
C671 C 0.20019 0.74928 0.09661 0.0
C672 C 0.20408 0.76543 0.09302 0.0
C673 C 0.19447 0.74751 0.10613 0.0
H674 H 0.19612 0.78946 0.11234 0.0
H675 H 0.2081 0.7668 0.08564 0.0
O676 O 0.21543 0.84203 0.08626 0.0
O677 O 0.20736 0.81955 0.10413 0.0
O678 O 0.19024 0.81153 0.08543 0.0
O679 O 0.22941 0.80577 0.08687 0.0
H680 H 0.22952 0.8724 0.08837 0.0
H681 H 0.19224 0.84379 0.07244 0.0
H682 H 0.22164 0.89818 0.07902 0.0
H683 H 0.1849 0.87004 0.06341 0.0
H684 H 0.24168 0.81135 0.13 0.0
H685 H 0.2003 0.84831 0.11326 0.0
H686 H 0.22938 0.80179 0.11448 0.0
H687 H 0.21302 0.85701 0.12883 0.0
H688 H 0.16489 0.88598 0.10106 0.0
H689 H 0.13918 0.83857 0.10754 0.0
H690 H 0.28764 0.82429 0.10477 0.0
H691 H 0.25965 0.87 0.11214 0.0
H692 H 0.1827 0.7808 0.07879 0.0
H693 H 0.16689 0.83338 0.07918 0.0
H694 H 0.15791 0.77407 0.06842 0.0
H695 H 0.14252 0.82577 0.0687 0.0
H696 H 0.23174 0.78831 0.07066 0.0
H697 H 0.24305 0.78749 0.10091 0.0
H698 H 0.24459 0.75951 0.06916 0.0
H699 H 0.25571 0.75872 0.09888 0.0
H700 H 0.24317 0.83799 0.05106 0.0
H701 H 0.20248 0.80204 0.04552 0.0
H702 H 0.1884 0.76163 0.11914 0.0
H703 H 0.20164 0.73832 0.09195 0.0
Li704 Li 0.56528 0.96321 0.83013 0.0
Li705 Li 0.57296 0.97278 0.84563 0.0
Li706 Li 0.57394 0.94288 0.84283 0.0
Li707 Li 0.5461 0.9587 0.84418 0.0
C708 C 0.59935 0.95323 0.83034 0.0
N709 N 0.62242 0.93823 0.81794 0.0
C710 C 0.61581 0.95987 0.82943 0.0
C711 C 0.59464 0.93893 0.82496 0.0
C712 C 0.62728 0.95212 0.82311 0.0
C713 C 0.60648 0.93154 0.81873 0.0
C714 C 0.55467 0.99653 0.8346 0.0
C715 C 0.54315 0.0246 0.83178 0.0
N716 N 0.55834 0.02953 0.82797 0.0
C717 C 0.57017 0.00187 0.83067 0.0
C718 C 0.54104 0.00796 0.83517 0.0
C719 C 0.57177 0.01861 0.82734 0.0
C720 C 0.5499 0.96618 0.81201 0.0
N721 N 0.56497 0.96783 0.81674 0.0
C722 C 0.57902 0.97641 0.80231 0.0
C723 C 0.57933 0.97309 0.81214 0.0
C724 C 0.56368 0.97467 0.79724 0.0
C725 C 0.54893 0.96963 0.80219 0.0
H726 H 0.53863 0.96218 0.8159 0.0
H727 H 0.59103 0.97492 0.81608 0.0
C728 C 0.60204 0.98808 0.85271 0.0
N729 N 0.585 0.9906 0.85181 0.0
C730 C 0.61249 0.00121 0.85595 0.0
C731 C 0.58755 0.01909 0.8577 0.0
C732 C 0.57753 0.00554 0.85444 0.0
C733 C 0.60533 0.01712 0.85823 0.0
H734 H 0.60756 0.97598 0.85065 0.0
H735 H 0.5639 0.00712 0.85371 0.0
C736 C 0.54501 0.92827 0.83106 0.0
N737 N 0.52704 0.90015 0.82467 0.0
C738 C 0.53415 0.9195 0.83731 0.0
C739 C 0.54665 0.9228 0.82155 0.0
C740 C 0.52519 0.9053 0.83394 0.0
C741 C 0.53749 0.90853 0.81847 0.0
C742 C 0.56925 0.96082 0.86266 0.0
C743 C 0.58453 0.95509 0.86667 0.0
C744 C 0.55994 0.97363 0.86726 0.0
C745 C 0.59032 0.96236 0.87523 0.0
C746 C 0.56615 0.98058 0.87581 0.0
N747 N 0.58109 0.97485 0.87958 0.0
C748 C 0.60246 0.92292 0.84766 0.0
C749 C 0.57705 0.90699 0.84563 0.0
C750 C 0.61148 0.90817 0.85006 0.0
N751 N 0.58555 0.92208 0.84554 0.0
C752 C 0.58554 0.89193 0.84799 0.0
C753 C 0.60296 0.89242 0.85033 0.0
H754 H 0.60888 0.93513 0.84766 0.0
H755 H 0.56362 0.90661 0.84402 0.0
C756 C 0.51086 0.95664 0.84094 0.0
N757 N 0.52306 0.95653 0.84787 0.0
C758 C 0.49393 0.95309 0.8433 0.0
C759 C 0.5024 0.95016 0.85992 0.0
C760 C 0.51919 0.95354 0.85722 0.0
C761 C 0.4896 0.94958 0.85288 0.0
H762 H 0.51443 0.95889 0.83354 0.0
H763 H 0.52921 0.95317 0.86254 0.0
O764 O 0.58804 0.96078 0.83651 0.0
O765 O 0.55289 0.98038 0.83817 0.0
O766 O 0.55369 0.94239 0.83415 0.0
O767 O 0.56359 0.95413 0.85417 0.0
H768 H 0.61966 0.97095 0.83353 0.0
H769 H 0.58204 0.93354 0.82561 0.0
H770 H 0.64005 0.95715 0.82232 0.0
H771 H 0.603 0.92047 0.81453 0.0
H772 H 0.53272 0.0336 0.83221 0.0
H773 H 0.58094 0.99327 0.83032 0.0
H774 H 0.529 0.00403 0.83827 0.0
H775 H 0.58371 0.02294 0.82431 0.0
H776 H 0.59056 0.98059 0.79875 0.0
H777 H 0.53688 0.9682 0.79848 0.0
H778 H 0.6261 -0.00097 0.85647 0.0
H779 H 0.58154 0.03116 0.85939 0.0
H780 H 0.53281 0.92348 0.8447 0.0
H781 H 0.55492 0.92948 0.8166 0.0
H782 H 0.51679 0.89836 0.83871 0.0
H783 H 0.53867 0.90413 0.81114 0.0
H784 H 0.5919 0.94521 0.86319 0.0
H785 H 0.54819 0.97837 0.86418 0.0
H786 H 0.60216 0.9581 0.8784 0.0
H787 H 0.55914 0.99058 0.87942 0.0
H788 H 0.62483 0.90917 0.85194 0.0
H789 H 0.57851 0.88004 0.84802 0.0
H790 H 0.48439 0.95275 0.83768 0.0
H791 H 0.49961 0.94721 0.86736 0.0
Li792 Li 0.80236 0.82766 0.59345 0.0
Li793 Li 0.78819 0.79932 0.59472 0.0
Li794 Li 0.7828 0.81764 0.58079 0.0
Li795 Li 0.7726 0.82495 0.59623 0.0
C796 C 0.81925 0.79831 0.58401 0.0
N797 N 0.84876 0.77929 0.58255 0.0
C798 C 0.82737 0.79237 0.59229 0.0
C799 C 0.82607 0.79455 0.57499 0.0
C800 C 0.84229 0.78275 0.5914 0.0
C801 C 0.84104 0.78495 0.5744 0.0
C802 C 0.78436 0.82108 0.61336 0.0
C803 C 0.76386 0.81568 0.6259 0.0
N804 N 0.76917 0.83 0.63054 0.0
C805 C 0.78968 0.83569 0.61827 0.0
C806 C 0.7714 0.81094 0.61721 0.0
C807 C 0.78182 0.84 0.62693 0.0
C808 C 0.81825 0.8573 0.59953 0.0
N809 N 0.82178 0.8415 0.59604 0.0
C810 C 0.85168 0.84713 0.59677 0.0
C811 C 0.8381 0.83637 0.59447 0.0
C812 C 0.84844 0.8634 0.60061 0.0
C813 C 0.83142 0.86852 0.60185 0.0
H814 H 0.80513 0.86116 0.60055 0.0
H815 H 0.84066 0.82395 0.59151 0.0
C816 C 0.79209 0.76428 0.59144 0.0
N817 N 0.79142 0.77638 0.59842 0.0
C818 C 0.79601 0.74742 0.59379 0.0
C819 C 0.79781 0.75574 0.61048 0.0
C820 C 0.79409 0.77247 0.60781 0.0
C821 C 0.79906 0.74305 0.60341 0.0
H822 H 0.79005 0.76787 0.58403 0.0
H823 H 0.79386 0.78242 0.61317 0.0
C824 C 0.79086 0.85211 0.58091 0.0
N825 N 0.80505 0.87583 0.56859 0.0
C826 C 0.78414 0.86859 0.58038 0.0
C827 C 0.80483 0.8477 0.57518 0.0
C828 C 0.79149 0.8804 0.57411 0.0
C829 C 0.81181 0.85987 0.569 0.0
C830 C 0.75028 0.80633 0.58461 0.0
C831 C 0.74466 0.82227 0.58139 0.0
C832 C 0.73966 0.79212 0.58365 0.0
C833 C 0.72849 0.82372 0.57729 0.0
C834 C 0.72357 0.79409 0.57949 0.0
N835 N 0.71836 0.80972 0.57643 0.0
C836 C 0.78062 0.80209 0.56271 0.0
C837 C 0.77123 0.83082 0.56294 0.0
C838 C 0.77627 0.8006 0.55302 0.0
N839 N 0.77802 0.81702 0.56744 0.0
C840 C 0.76691 0.82997 0.55325 0.0
C841 C 0.76924 0.81466 0.54816 0.0
H842 H 0.78576 0.79124 0.56654 0.0
H843 H 0.76886 0.84243 0.56688 0.0
C844 C 0.75644 0.85326 0.60365 0.0
N845 N 0.75432 0.83622 0.60245 0.0
C846 C 0.74284 0.86334 0.60663 0.0
C847 C 0.72536 0.83796 0.60764 0.0
C848 C 0.73937 0.82833 0.60465 0.0
C849 C 0.72689 0.85577 0.60833 0.0
H850 H 0.76855 0.8591 0.60192 0.0
H851 H 0.7381 0.81471 0.60365 0.0
O852 O 0.80449 0.80751 0.58468 0.0
O853 O 0.79171 0.81679 0.60478 0.0
O854 O 0.78377 0.84053 0.58708 0.0
O855 O 0.76605 0.8045 0.58869 0.0
H856 H 0.82228 0.79525 0.59933 0.0
H857 H 0.81989 0.79905 0.56852 0.0
H858 H 0.84873 0.77808 0.59774 0.0
H859 H 0.84651 0.78198 0.56747 0.0
H860 H 0.75373 0.80802 0.62894 0.0
H861 H 0.79976 0.84362 0.61542 0.0
H862 H 0.76702 0.79967 0.61346 0.0
H863 H 0.78577 0.8513 0.6308 0.0
H864 H 0.86459 0.84255 0.59576 0.0
H865 H 0.82827 0.88105 0.6046 0.0
H866 H 0.79688 0.73796 0.58814 0.0
H867 H 0.8004 0.75291 0.61796 0.0
H868 H 0.77334 0.87221 0.58477 0.0
H869 H 0.81026 0.83505 0.57546 0.0
H870 H 0.7864 0.89319 0.57362 0.0
H871 H 0.82261 0.85663 0.56452 0.0
H872 H 0.75262 0.83345 0.58211 0.0
H873 H 0.74383 0.7797 0.5861 0.0
H874 H 0.72398 0.83598 0.57479 0.0
H875 H 0.71521 0.7832 0.57871 0.0
H876 H 0.77804 0.78845 0.54946 0.0
H877 H 0.76177 0.84124 0.54981 0.0
H878 H 0.74462 0.87699 0.60728 0.0
H879 H 0.71326 0.83167 0.60888 0.0
Li880 Li 0.91512 0.05203 0.34322 0.0
Li881 Li 0.94421 0.04041 0.34489 0.0
Li882 Li 0.92642 0.03294 0.33118 0.0
Li883 Li 0.91981 0.02265 0.34668 0.0
C884 C 0.94226 0.07167 0.33553 0.0
N885 N 0.95644 0.10375 0.33746 0.0
C886 C 0.9434 0.0793 0.34459 0.0
C887 C 0.94838 0.08032 0.32747 0.0
C888 C 0.9506 0.09553 0.34541 0.0
C889 C 0.95548 0.09654 0.32859 0.0
C890 C 0.92577 0.03518 0.36368 0.0
C891 C 0.93728 0.01555 0.37533 0.0
N892 N 0.92433 0.01952 0.38143 0.0
C893 C 0.91264 0.03914 0.37009 0.0
C894 C 0.93824 0.02334 0.36633 0.0
C895 C 0.91211 0.03106 0.37902 0.0
C896 C 0.88708 0.06746 0.35173 0.0
N897 N 0.89997 0.07058 0.34546 0.0
C898 C 0.89001 0.09904 0.34298 0.0
C899 C 0.90137 0.08584 0.34089 0.0
C900 C 0.877 0.09641 0.34977 0.0
C901 C 0.87545 0.08027 0.35405 0.0
H902 H 0.88584 0.05495 0.35492 0.0
H903 H 0.91129 0.08786 0.33563 0.0
C904 C 0.97978 0.04257 0.34266 0.0
N905 N 0.96675 0.04511 0.34893 0.0
C906 C 0.99656 0.0459 0.34544 0.0
C907 C 0.98614 0.0542 0.36111 0.0
C908 C 0.96957 0.05098 0.35798 0.0
C909 C -0.00013 0.05166 0.35481 0.0
H910 H 0.97708 0.03798 0.33549 0.0
H911 H 0.95894 0.05321 0.36276 0.0
C912 C 0.89138 0.03819 0.33118 0.0
N913 N 0.86656 0.05014 0.31881 0.0
C914 C 0.87515 0.03083 0.33116 0.0
C915 C 0.89498 0.05166 0.32491 0.0
C916 C 0.86278 0.03704 0.32485 0.0
C917 C 0.88226 0.05752 0.31872 0.0
C918 C 0.94041 0.00157 0.33537 0.0
C919 C 0.925 0.99419 0.3325 0.0
C920 C 0.95561 0.9925 0.33424 0.0
C921 C 0.92506 0.97781 0.32856 0.0
C922 C 0.95514 0.97614 0.33026 0.0
N923 N 0.94 0.96919 0.32753 0.0
C924 C 0.94155 0.03165 0.31294 0.0
C925 C 0.91423 0.01879 0.31367 0.0
C926 C 0.94315 0.02719 0.30327 0.0
N927 N 0.92726 0.02741 0.3179 0.0
C928 C 0.91519 0.01426 0.30401 0.0
C929 C 0.92985 0.01834 0.29867 0.0
H930 H 0.9518 0.0383 0.31655 0.0
H931 H 0.90312 0.01526 0.3178 0.0
C932 C 0.89348 0.00515 0.35554 0.0
N933 N 0.91037 0.00404 0.35353 0.0
C934 C 0.88508 0.99154 0.35989 0.0
C935 C 0.91177 0.97606 0.36025 0.0
C936 C 0.91969 0.99005 0.35595 0.0
C937 C 0.89418 0.97663 0.36213 0.0
H938 H 0.88647 0.01649 0.35356 0.0
H939 H 0.93318 0.98963 0.35437 0.0
O940 O 0.93538 0.05574 0.33451 0.0
O941 O 0.92636 0.0427 0.35482 0.0
O942 O 0.90351 0.03225 0.33739 0.0
O943 O 0.94077 0.01761 0.33925 0.0
H944 H 0.9387 0.07284 0.35091 0.0
H945 H 0.94761 0.07455 0.32042 0.0
H946 H 0.95154 0.10161 0.35236 0.0
H947 H 0.96025 0.1034 0.3224 0.0
H948 H 0.94678 0.00628 0.37744 0.0
H949 H 0.90297 0.04837 0.36822 0.0
H950 H 0.94841 0.02001 0.36142 0.0
H951 H 0.902 0.03397 0.38404 0.0
H952 H 0.89168 0.11128 0.33951 0.0
H953 H 0.86537 0.07758 0.35914 0.0
H954 H 0.00686 0.0438 0.34039 0.0
H955 H 0.98819 0.05892 0.36833 0.0
H956 H 0.87216 0.02041 0.33598 0.0
H957 H 0.90743 0.05755 0.3248 0.0
H958 H 0.85017 0.03145 0.32476 0.0
H959 H 0.88487 0.06792 0.31383 0.0
H960 H 0.91309 0.00097 0.33334 0.0
H961 H 0.96764 -0.00195 0.33642 0.0
H962 H 0.91323 0.97194 0.32633 0.0
H963 H 0.96681 0.96896 0.32935 0.0
H964 H 0.95481 0.03036 0.29951 0.0
H965 H 0.9045 0.00768 0.30077 0.0
H966 H 0.87147 0.99242 0.36111 0.0
H967 H 0.91923 0.96484 0.36196 0.0
Li968 Li 0.69067 0.16451 0.09256 0.0
Li969 Li 0.70181 0.19409 0.09453 0.0
Li970 Li 0.70913 0.17709 0.08019 0.0
Li971 Li 0.72016 0.16987 0.09545 0.0
C972 C 0.6707 0.19211 0.08351 0.0
N973 N 0.6387 0.2065 0.08194 0.0
C974 C 0.6618 0.19702 0.09176 0.0
C975 C 0.66338 0.19455 0.07448 0.0
C976 C 0.64563 0.20429 0.09081 0.0
C977 C 0.64716 0.20182 0.07383 0.0
C978 C 0.70832 0.17261 0.11268 0.0
C979 C 0.72829 0.18111 0.12495 0.0
N980 N 0.72507 0.16638 0.12978 0.0
C981 C 0.70513 0.1576 0.11779 0.0
C982 C 0.71994 0.18451 0.1163 0.0
C983 C 0.71375 0.15467 0.12641 0.0
C984 C 0.67722 0.13386 0.09913 0.0
N985 N 0.67255 0.14886 0.095 0.0
C986 C 0.64327 0.14049 0.09523 0.0
C987 C 0.65599 0.15219 0.09283 0.0
C988 C 0.64764 0.12511 0.0998 0.0
C989 C 0.66494 0.12176 0.10161 0.0
H990 H 0.69055 0.13138 0.10056 0.0
H991 H 0.65253 0.16393 0.08933 0.0
C992 C 0.69724 0.22984 0.09312 0.0
N993 N 0.6966 0.21621 0.09914 0.0
C994 C 0.69333 0.24616 0.09653 0.0
C995 C 0.68838 0.23402 0.11224 0.0
C996 C 0.69216 0.21797 0.10851 0.0
C997 C 0.68885 0.24843 0.10623 0.0
H998 H 0.70068 0.22799 0.08567 0.0
H999 H 0.69151 0.20689 0.1131 0.0
C1000 C 0.70438 0.14191 0.07973 0.0
N1001 N 0.69225 0.11752 0.06713 0.0
C1002 C 0.7124 0.12603 0.07907 0.0
C1003 C 0.69015 0.14537 0.074 0.0
C1004 C 0.70609 0.11388 0.07265 0.0
C1005 C 0.68423 0.13287 0.06767 0.0
C1006 C 0.74024 0.19214 0.08439 0.0
C1007 C 0.748 0.1774 0.0808 0.0
C1008 C 0.74881 0.20773 0.08387 0.0
C1009 C 0.76425 0.17853 0.07675 0.0
C1010 C 0.76506 0.20834 0.07978 0.0
N1011 N 0.77238 0.19384 0.07633 0.0
C1012 C 0.70992 0.19345 0.06216 0.0
C1013 C 0.72215 0.16582 0.06229 0.0
C1014 C 0.71417 0.1955 0.05248 0.0
N1015 N 0.71398 0.1788 0.06684 0.0
C1016 C 0.72638 0.1672 0.05261 0.0
C1017 C 0.72259 0.18226 0.04757 0.0
H1018 H 0.70365 0.20367 0.06601 0.0
H1019 H 0.72565 0.15445 0.06619 0.0
C1020 C 0.73868 0.14321 0.10322 0.0
N1021 N 0.73944 0.16029 0.10169 0.0
C1022 C 0.75246 0.13471 0.10731 0.0
C1023 C 0.76752 0.16159 0.1083 0.0
C1024 C 0.75335 0.16962 0.10423 0.0
C1025 C 0.7672 0.14388 0.10981 0.0
H1026 H 0.72741 0.13618 0.10114 0.0
H1027 H 0.75351 0.18324 0.10301 0.0
O1028 O 0.68658 0.18505 0.08423 0.0
O1029 O 0.70033 0.17554 0.10411 0.0
O1030 O 0.71042 0.1538 0.08607 0.0
O1031 O 0.72435 0.19143 0.08842 0.0
H1032 H 0.66724 0.19505 0.09881 0.0
H1033 H 0.67014 0.19079 0.06803 0.0
H1034 H 0.63856 0.20812 0.09712 0.0
H1035 H 0.6413 0.20373 0.06688 0.0
H1036 H 0.7374 0.19015 0.1278 0.0
H1037 H 0.69614 0.14829 0.11512 0.0
H1038 H 0.72271 0.1961 0.11238 0.0
H1039 H 0.71146 0.14307 0.13041 0.0
H1040 H 0.6301 0.14371 0.09374 0.0
H1041 H 0.66895 0.10994 0.10493 0.0
H1042 H 0.6936 0.2568 0.09158 0.0
H1043 H 0.68529 0.23508 0.11979 0.0
H1044 H 0.7234 0.12314 0.08347 0.0
H1045 H 0.68373 0.15753 0.0744 0.0
H1046 H 0.71218 0.10155 0.07205 0.0
H1047 H 0.67325 0.13538 0.06319 0.0
H1048 H 0.7416 0.1652 0.08119 0.0
H1049 H 0.74296 0.21925 0.08663 0.0
H1050 H 0.77042 0.16723 0.07396 0.0
H1051 H 0.77186 0.22032 0.07934 0.0
H1052 H 0.71122 0.20745 0.04897 0.0
H1053 H 0.73257 0.15651 0.04914 0.0
H1054 H 0.75177 0.12101 0.10823 0.0
H1055 H 0.77859 0.16912 0.1102 0.0
Li1056 Li 0.54987 0.03903 0.65096 0.0
Li1057 Li 0.579 0.05081 0.65182 0.0
Li1058 Li 0.57398 0.02136 0.64856 0.0
Li1059 Li 0.5687 0.0317 0.6642 0.0
C1060 C 0.56636 0.03388 0.63172 0.0
N1061 N 0.56576 0.01813 0.61397 0.0
C1062 C 0.57888 0.03762 0.6249 0.0
C1063 C 0.55347 0.02221 0.6295 0.0
C1064 C 0.57837 0.0295 0.61597 0.0
C1065 C 0.5534 0.01437 0.62049 0.0
C1066 C 0.55206 0.07013 0.66034 0.0
C1067 C 0.53737 0.09374 0.66772 0.0
N1068 N 0.53638 0.10158 0.65903 0.0
C1069 C 0.55087 0.07839 0.65147 0.0
C1070 C 0.54523 0.07782 0.66853 0.0
C1071 C 0.5429 0.0943 0.65096 0.0
C1072 C 0.5143 0.04057 0.65372 0.0
N1073 N 0.52715 0.04395 0.64746 0.0
C1074 C 0.50755 0.05523 0.63601 0.0
C1075 C 0.52414 0.0512 0.63877 0.0
C1076 C 0.49398 0.05196 0.64233 0.0
C1077 C 0.49748 0.04458 0.6513 0.0
H1078 H 0.51715 0.03489 0.66062 0.0
H1079 H 0.53466 0.05402 0.63401 0.0
C1080 C 0.60622 0.06662 0.64263 0.0
N1081 N 0.59387 0.06945 0.64928 0.0
C1082 C 0.61779 0.07948 0.64029 0.0
C1083 C 0.60419 0.09771 0.652 0.0
C1084 C 0.5929 0.08447 0.65413 0.0
C1085 C 0.61673 0.09537 0.64491 0.0
H1086 H 0.60715 0.05428 0.6392 0.0
H1087 H 0.58342 0.08623 0.65966 0.0
C1088 C 0.55472 0.00024 0.66046 0.0
N1089 N 0.55649 0.96794 0.66834 0.0
C1090 C 0.57049 0.99332 0.66307 0.0
C1091 C 0.53986 0.99074 0.66188 0.0
C1092 C 0.57111 0.97697 0.66703 0.0
C1093 C 0.54102 0.97443 0.66587 0.0
C1094 C 0.6038 0.037 0.66319 0.0
C1095 C 0.62003 0.02972 0.66267 0.0
C1096 C 0.6008 0.05047 0.66955 0.0
C1097 C 0.63301 0.036 0.66856 0.0
C1098 C 0.61412 0.0564 0.67532 0.0
N1099 N 0.62981 0.0491 0.67471 0.0
C1100 C 0.59911 0.00469 0.63832 0.0
C1101 C 0.57353 0.98863 0.63937 0.0
C1102 C 0.60704 0.99157 0.63328 0.0
N1103 N 0.58276 0.0029 0.64134 0.0
C1104 C 0.58105 0.97505 0.63447 0.0
C1105 C 0.59806 0.97643 0.63144 0.0
H1106 H 0.60604 0.01627 0.63995 0.0
H1107 H 0.56042 0.9877 0.64172 0.0
C1108 C 0.55429 0.03011 0.68248 0.0
N1109 N 0.56874 0.02649 0.6775 0.0
C1110 C 0.55314 0.02612 0.69223 0.0
C1111 C 0.58187 0.01498 0.69154 0.0
C1112 C 0.58235 0.01888 0.68178 0.0
C1113 C 0.56711 0.01856 0.69685 0.0
H1114 H 0.54361 0.03597 0.67884 0.0
H1115 H 0.59351 0.01564 0.67762 0.0
O1116 O 0.56682 0.04138 0.64059 0.0
O1117 O 0.55952 0.05441 0.66102 0.0
O1118 O 0.55367 0.01625 0.65658 0.0
O1119 O 0.59109 0.03103 0.65736 0.0
H1120 H 0.58888 0.04668 0.62646 0.0
H1121 H 0.54377 0.01904 0.63473 0.0
H1122 H 0.58801 0.03223 0.61063 0.0
H1123 H 0.54356 0.00523 0.6187 0.0
H1124 H 0.53204 0.09986 0.674 0.0
H1125 H 0.55607 0.07262 0.64505 0.0
H1126 H 0.54599 0.07152 0.67543 0.0
H1127 H 0.5419 0.10085 0.64415 0.0
H1128 H 0.50541 0.06122 0.62911 0.0
H1129 H 0.48732 0.04187 0.65635 0.0
H1130 H 0.62752 0.07697 0.63495 0.0
H1131 H 0.60288 0.10975 0.65574 0.0
H1132 H 0.58215 0.00042 0.66201 0.0
H1133 H 0.52755 0.99593 0.65992 0.0
H1134 H 0.58323 0.97146 0.66906 0.0
H1135 H 0.52961 0.96693 0.66701 0.0
H1136 H 0.62256 0.01932 0.65776 0.0
H1137 H 0.58835 0.0563 0.67007 0.0
H1138 H 0.64564 0.03047 0.66824 0.0
H1139 H 0.61197 0.0668 0.68028 0.0
H1140 H 0.62025 0.99302 0.63116 0.0
H1141 H 0.57374 0.96358 0.63311 0.0
H1142 H 0.54155 0.02905 0.69613 0.0
H1143 H 0.59278 0.00891 0.69487 0.0
Li1144 Li 0.72403 0.82593 0.39987 0.0
Li1145 Li 0.71196 0.81879 0.41544 0.0
Li1146 Li 0.70449 0.8028 0.40107 0.0
Li1147 Li 0.69487 0.83222 0.40269 0.0
C1148 C 0.7428 0.80333 0.41146 0.0
N1149 N 0.77455 0.80141 0.41999 0.0
C1150 C 0.75044 0.81799 0.41525 0.0
C1151 C 0.75129 0.7877 0.41205 0.0
C1152 C 0.7665 0.81675 0.41952 0.0
C1153 C 0.76734 0.787 0.41638 0.0
C1154 C 0.70812 0.85641 0.41332 0.0
C1155 C 0.68797 0.87053 0.42372 0.0
N1156 N 0.69353 0.88589 0.42044 0.0
C1157 C 0.71366 0.87234 0.41007 0.0
C1158 C 0.69519 0.85548 0.42021 0.0
C1159 C 0.70612 0.8871 0.41376 0.0
C1160 C 0.74192 0.85068 0.38997 0.0
N1161 N 0.74349 0.83453 0.39336 0.0
C1162 C 0.77223 0.83295 0.38774 0.0
C1163 C 0.75808 0.82541 0.3921 0.0
C1164 C 0.77116 0.84988 0.38451 0.0
C1165 C 0.75565 0.85865 0.3855 0.0
H1166 H 0.72998 0.8574 0.39082 0.0
H1167 H 0.75882 0.81236 0.39455 0.0
C1168 C 0.71396 0.80184 0.43321 0.0
N1169 N 0.71627 0.81711 0.42877 0.0
C1170 C 0.71757 0.80011 0.44299 0.0
C1171 C 0.72574 0.82986 0.44339 0.0
C1172 C 0.72226 0.83094 0.4336 0.0
C1173 C 0.7234 0.81431 0.44818 0.0
H1174 H 0.70943 0.79101 0.42913 0.0
H1175 H 0.72453 0.84276 0.42984 0.0
C1176 C 0.7124 0.82048 0.38258 0.0
N1177 N 0.72942 0.81989 0.36522 0.0
C1178 C 0.70948 0.83325 0.37579 0.0
C1179 C 0.72389 0.80734 0.38053 0.0
C1180 C 0.71824 0.83274 0.36705 0.0
C1181 C 0.73239 0.80729 0.37171 0.0
C1182 C 0.67417 0.80355 0.41055 0.0
C1183 C 0.66448 0.80385 0.40213 0.0
C1184 C 0.66869 0.79384 0.41837 0.0
C1185 C 0.64937 0.79445 0.40169 0.0
C1186 C 0.65347 0.78465 0.41766 0.0
N1187 N 0.64422 0.78514 0.4094 0.0
C1188 C 0.69908 0.76716 0.40239 0.0
C1189 C 0.69156 0.77975 0.38751 0.0
C1190 C 0.69358 0.75118 0.39917 0.0
N1191 N 0.69793 0.78099 0.39655 0.0
C1192 C 0.68614 0.76405 0.38396 0.0
C1193 C 0.68694 0.74948 0.38983 0.0
H1194 H 0.70402 0.76861 0.4096 0.0
H1195 H 0.69053 0.791 0.38307 0.0
C1196 C 0.68001 0.86046 0.39359 0.0
N1197 N 0.6771 0.84808 0.40022 0.0
C1198 C 0.66714 0.87196 0.39119 0.0
C1199 C 0.64879 0.85827 0.40282 0.0
C1200 C 0.66203 0.84704 0.405 0.0
C1201 C 0.65115 0.87075 0.3957 0.0
H1202 H 0.69234 0.86132 0.39016 0.0
H1203 H 0.66021 0.83738 0.41044 0.0
O1204 O 0.72704 0.8041 0.40727 0.0
O1205 O 0.71501 0.84176 0.40963 0.0
O1206 O 0.70427 0.82093 0.39128 0.0
O1207 O 0.689 0.81265 0.41112 0.0
H1208 H 0.74413 0.83022 0.41486 0.0
H1209 H 0.74552 0.77624 0.40918 0.0
H1210 H 0.77258 0.828 0.42245 0.0
H1211 H 0.77407 0.77498 0.41686 0.0
H1212 H 0.6779 0.86999 0.42902 0.0
H1213 H 0.72371 0.87333 0.40478 0.0
H1214 H 0.69064 0.84325 0.42275 0.0
H1215 H 0.71027 0.89951 0.4113 0.0
H1216 H 0.7839 0.82569 0.38696 0.0
H1217 H 0.75431 0.87176 0.38316 0.0
H1218 H 0.71566 0.78791 0.44648 0.0
H1219 H 0.73051 0.84099 0.44714 0.0
H1220 H 0.70058 0.84345 0.37722 0.0
H1221 H 0.72639 0.79742 0.38575 0.0
H1222 H 0.71614 0.84258 0.36173 0.0
H1223 H 0.7414 0.79726 0.37005 0.0
H1224 H 0.66863 0.81123 0.39599 0.0
H1225 H 0.67607 0.79348 0.42493 0.0
H1226 H 0.64175 0.79455 0.39522 0.0
H1227 H 0.64902 0.77713 0.42367 0.0
H1228 H 0.6942 0.74039 0.40401 0.0
H1229 H 0.68139 0.76338 0.37667 0.0
H1230 H 0.66962 0.88162 0.38581 0.0
H1231 H 0.63666 0.85681 0.40645 0.0
Li1232 Li 0.9187 0.97518 0.14997 0.0
Li1233 Li 0.92512 0.96267 0.16576 0.0
Li1234 Li 0.94296 0.95585 0.15116 0.0
Li1235 Li 0.9132 0.94609 0.1524 0.0
C1236 C 0.94503 0.99332 0.16079 0.0
N1237 N 0.95553 0.02511 0.16692 0.0
C1238 C 0.93444 0.00311 0.16668 0.0
C1239 C 0.96095 -0.00037 0.15803 0.0
C1240 C 0.94 0.01917 0.16971 0.0
C1241 C 0.96602 0.01576 0.16119 0.0
C1242 C 0.8878 0.95777 0.16222 0.0
C1243 C 0.8732 0.93581 0.17115 0.0
N1244 N 0.85814 0.94098 0.16728 0.0
C1245 C 0.87217 0.96295 0.15839 0.0
C1246 C 0.88832 0.94416 0.1687 0.0
C1247 C 0.85732 0.95427 0.16102 0.0
C1248 C 0.89452 0.99302 0.13964 0.0
N1249 N 0.91013 0.99501 0.1437 0.0
C1250 C 0.9109 0.02432 0.13897 0.0
C1251 C 0.91858 0.01015 0.14325 0.0
C1252 C 0.89452 0.02275 0.135 0.0
C1253 C 0.88644 0.00676 0.13523 0.0
H1254 H 0.88832 0.98072 0.13989 0.0
H1255 H 0.93121 0.01134 0.14623 0.0
C1256 C 0.94246 0.96643 0.18319 0.0
N1257 N 0.92671 0.96647 0.17913 0.0
C1258 C 0.94435 0.96978 0.19298 0.0
C1259 C 0.91373 0.97283 0.19421 0.0
C1260 C 0.91247 0.96972 0.18438 0.0
C1261 C 0.92983 0.97297 0.1986 0.0
H1262 H 0.95356 0.96395 0.17878 0.0
H1263 H 0.90015 0.97011 0.18093 0.0
C1264 C 0.92591 0.9648 0.13273 0.0
N1265 N 0.92725 0.98351 0.11594 0.0
C1266 C 0.91372 0.96222 0.12556 0.0
C1267 C 0.93887 0.9768 0.13133 0.0
C1268 C 0.91459 0.97184 0.11713 0.0
C1269 C 0.9393 0.98615 0.1228 0.0
C1270 C 0.93882 0.92424 0.16193 0.0
C1271 C 0.94343 0.91487 0.1538 0.0
C1272 C 0.9404 0.91696 0.17104 0.0
C1273 C 0.94959 0.89827 0.15494 0.0
C1274 C 0.94656 0.90031 0.17188 0.0
N1275 N 0.951 0.89139 0.16388 0.0
C1276 C 0.97822 0.95155 0.15377 0.0
C1277 C 0.96821 0.94514 0.13811 0.0
C1278 C 0.99484 0.94712 0.15116 0.0
N1279 N 0.96537 0.95042 0.14726 0.0
C1280 C 0.98463 0.94074 0.13516 0.0
C1281 C -0.00183 0.94161 0.14174 0.0
H1282 H 0.97551 0.95575 0.16101 0.0
H1283 H 0.95769 0.94411 0.13314 0.0
C1284 C 0.88613 0.93164 0.14222 0.0
N1285 N 0.89794 0.92801 0.14905 0.0
C1286 C 0.8749 0.91906 0.13901 0.0
C1287 C 0.88774 0.89935 0.15022 0.0
C1288 C 0.89869 0.91235 0.15322 0.0
C1289 C 0.87581 0.90256 0.14291 0.0
H1290 H 0.88547 0.94436 0.13925 0.0
H1291 H 0.9078 0.90984 0.15885 0.0
O1292 O 0.93992 0.97759 0.15772 0.0
O1293 O 0.90257 0.96579 0.15956 0.0
O1294 O 0.92504 0.95588 0.14116 0.0
O1295 O 0.93269 0.94046 0.16103 0.0
H1296 H 0.92205 -0.0016 0.16884 0.0
H1297 H 0.96926 0.99216 0.15345 0.0
H1298 H 0.93196 0.02693 0.17426 0.0
H1299 H 0.97829 0.02085 0.15909 0.0
H1300 H 0.87344 0.92517 0.17609 0.0
H1301 H 0.87147 0.97354 0.15344 0.0
H1302 H 0.90034 0.93991 0.17169 0.0
H1303 H 0.84514 0.9581 0.15808 0.0
H1304 H 0.91765 0.03637 0.1388 0.0
H1305 H 0.87376 0.005 0.13232 0.0
H1306 H 0.95696 0.96977 0.19614 0.0
H1307 H 0.90229 0.9755 0.19831 0.0
H1308 H 0.90366 0.95293 0.12649 0.0
H1309 H 0.94834 0.97904 0.13684 0.0
H1310 H 0.9052 0.97002 0.11154 0.0
H1311 H 0.94918 0.99557 0.12165 0.0
H1312 H 0.94217 0.92033 0.1467 0.0
H1313 H 0.93683 0.92409 0.17739 0.0
H1314 H 0.95321 0.89084 0.14872 0.0
H1315 H 0.94781 0.89448 0.17888 0.0
H1316 H 0.00496 0.94801 0.15642 0.0
H1317 H 0.98662 0.93627 0.12789 0.0
H1318 H 0.86566 0.92222 0.13352 0.0
H1319 H 0.88896 0.88682 0.1534 0.0
Li1320 Li 0.77512 0.17073 0.90057 0.0
Li1321 Li 0.7858 0.17945 0.91565 0.0
Li1322 Li 0.79238 0.19572 0.90123 0.0
Li1323 Li 0.8048 0.1672 0.90378 0.0
C1324 C 0.7539 0.19221 0.91126 0.0
N1325 N 0.72174 0.19197 0.91937 0.0
C1326 C 0.74706 0.17704 0.91489 0.0
C1327 C 0.74439 0.20724 0.91178 0.0
C1328 C 0.73078 0.17719 0.91895 0.0
C1329 C 0.72815 0.20687 0.9159 0.0
C1330 C 0.792 0.14441 0.91672 0.0
C1331 C 0.81194 0.1367 0.92916 0.0
N1332 N 0.80488 0.12087 0.92957 0.0
C1333 C 0.78497 0.12806 0.91724 0.0
C1334 C 0.80562 0.14878 0.92271 0.0
C1335 C 0.79165 0.11634 0.92379 0.0
C1336 C 0.75937 0.1426 0.89288 0.0
N1337 N 0.75676 0.15948 0.89443 0.0
C1338 C 0.72822 0.15745 0.88857 0.0
C1339 C 0.74174 0.16715 0.89215 0.0
C1340 C 0.73032 0.13979 0.8873 0.0
C1341 C 0.7463 0.13248 0.88926 0.0
H1342 H 0.77155 0.13696 0.89465 0.0
H1343 H 0.74011 0.18068 0.89335 0.0
C1344 C 0.78403 0.19631 0.93354 0.0
N1345 N 0.78056 0.18139 0.92895 0.0
C1346 C 0.77984 0.1983 0.94324 0.0
C1347 C 0.76878 0.1695 0.94328 0.0
C1348 C 0.77285 0.16819 0.93358 0.0
C1349 C 0.77227 0.18469 0.9482 0.0
H1350 H 0.78996 0.20667 0.92964 0.0
H1351 H 0.76967 0.15667 0.92973 0.0
C1352 C 0.7868 0.17489 0.88325 0.0
N1353 N 0.77054 0.17084 0.8658 0.0
C1354 C 0.79142 0.16154 0.87713 0.0
C1355 C 0.774 0.18627 0.88046 0.0
C1356 C 0.78302 0.15969 0.86835 0.0
C1357 C 0.76591 0.18399 0.87162 0.0
C1358 C 0.82414 0.19535 0.91024 0.0
C1359 C 0.83125 0.19572 0.90104 0.0
C1360 C 0.83321 0.20218 0.91797 0.0
C1361 C 0.84738 0.20291 0.89973 0.0
C1362 C 0.84931 0.20924 0.91637 0.0
N1363 N 0.85601 0.20946 0.90736 0.0
C1364 C 0.79503 0.23164 0.90194 0.0
C1365 C 0.80173 0.21917 0.88691 0.0
C1366 C 0.79859 0.24791 0.89835 0.0
N1367 N 0.79667 0.21774 0.8962 0.0
C1368 C 0.80518 0.23514 0.88299 0.0
C1369 C 0.80378 0.24982 0.88874 0.0
H1370 H 0.79114 0.23005 0.90935 0.0
H1371 H 0.80321 0.20788 0.88254 0.0
C1372 C 0.81987 0.1385 0.89601 0.0
N1373 N 0.82342 0.1521 0.90172 0.0
C1374 C 0.83255 0.12667 0.89378 0.0
C1375 C 0.85212 0.14257 0.90377 0.0
C1376 C 0.83904 0.15411 0.9058 0.0
C1377 C 0.84901 0.12878 0.89756 0.0
H1378 H 0.80713 0.13685 0.89321 0.0
H1379 H 0.84142 0.16465 0.9106 0.0
O1380 O 0.76981 0.19248 0.90724 0.0
O1381 O 0.78562 0.15591 0.91026 0.0
O1382 O 0.79465 0.1768 0.89196 0.0
O1383 O 0.80834 0.18844 0.91175 0.0
H1384 H 0.75417 0.16525 0.91452 0.0
H1385 H 0.74952 0.21909 0.90901 0.0
H1386 H 0.72533 0.16554 0.92177 0.0
H1387 H 0.72064 0.21841 0.91633 0.0
H1388 H 0.82246 0.13991 0.93385 0.0
H1389 H 0.77445 0.12447 0.91263 0.0
H1390 H 0.81126 0.16135 0.92241 0.0
H1391 H 0.78632 0.10364 0.92428 0.0
H1392 H 0.71612 0.16359 0.88715 0.0
H1393 H 0.74862 0.119 0.88816 0.0
H1394 H 0.78265 0.21021 0.94685 0.0
H1395 H 0.7627 0.15886 0.94687 0.0
H1396 H 0.80142 0.15274 0.87911 0.0
H1397 H 0.77021 0.19663 0.88514 0.0
H1398 H 0.78645 0.14939 0.86355 0.0
H1399 H 0.75591 0.19263 0.8694 0.0
H1400 H 0.82448 0.19042 0.89497 0.0
H1401 H 0.82785 0.202 0.92513 0.0
H1402 H 0.85306 0.20325 0.89265 0.0
H1403 H 0.85649 0.21456 0.92229 0.0
H1404 H 0.79759 0.25879 0.90311 0.0
H1405 H 0.80887 0.23593 0.87551 0.0
H1406 H 0.82949 0.116 0.88915 0.0
H1407 H 0.86463 0.14467 0.90684 0.0
Li1408 Li 0.92614 0.53312 0.66493 0.0
Li1409 Li 0.94347 0.53758 0.6504 0.0
Li1410 Li 0.91406 0.54832 0.6512 0.0
Li1411 Li 0.9206 0.51768 0.64995 0.0
C1412 C 0.93916 0.56561 0.66619 0.0
N1413 N 0.95027 0.58678 0.68076 0.0
C1414 C 0.95658 0.56719 0.66811 0.0
C1415 C 0.92741 0.57495 0.67159 0.0
C1416 C 0.96194 0.57793 0.67553 0.0
C1417 C 0.93327 0.58553 0.67895 0.0
C1418 C 0.94353 0.49954 0.65872 0.0
C1419 C 0.95167 0.47285 0.65143 0.0
N1420 N 0.94642 0.46444 0.65944 0.0
C1421 C 0.93828 0.49065 0.6669 0.0
C1422 C 0.95037 0.4906 0.65094 0.0
C1423 C 0.93984 0.4729 0.66712 0.0
C1424 C 0.91205 0.52407 0.68269 0.0
N1425 N 0.92609 0.53098 0.67851 0.0
C1426 C 0.94038 0.53221 0.69364 0.0
C1427 C 0.94018 0.53493 0.68373 0.0
C1428 C 0.92607 0.525 0.69817 0.0
C1429 C 0.91174 0.52098 0.69255 0.0
H1430 H 0.90126 0.52042 0.67834 0.0
H1431 H 0.95141 0.53981 0.68019 0.0
C1432 C 0.9682 0.55895 0.64227 0.0
N1433 N 0.96557 0.54303 0.64582 0.0
C1434 C 0.98391 0.56328 0.63827 0.0
C1435 C 0.99413 0.53494 0.64201 0.0
C1436 C 0.97816 0.53112 0.64588 0.0
C1437 C 0.99708 0.55114 0.63804 0.0
H1438 H 0.95797 0.5682 0.64243 0.0
H1439 H 0.97575 0.51862 0.64884 0.0
C1440 C 0.88748 0.53268 0.66042 0.0
N1441 N 0.85367 0.54042 0.66386 0.0
C1442 C 0.8746 0.52383 0.6556 0.0
C1443 C 0.88318 0.54538 0.66703 0.0
C1444 C 0.85757 0.52795 0.65743 0.0
C1445 C 0.86601 0.54913 0.66865 0.0
C1446 C 0.9336 0.54081 0.63243 0.0
C1447 C 0.93082 0.55707 0.62862 0.0
C1448 C 0.94552 0.52999 0.62812 0.0
C1449 C 0.94018 0.56232 0.62062 0.0
C1450 C 0.95466 0.53573 0.62013 0.0
N1451 N 0.95183 0.55164 0.61658 0.0
C1452 C 0.9055 0.58247 0.64813 0.0
C1453 C 0.88404 0.56302 0.6432 0.0
C1454 C 0.89606 0.59617 0.64462 0.0
N1455 N 0.89942 0.56629 0.64732 0.0
C1456 C 0.87399 0.5764 0.63977 0.0
C1457 C 0.88015 0.59316 0.64034 0.0
H1458 H 0.91794 0.58466 0.65124 0.0
H1459 H 0.87977 0.55002 0.64233 0.0
C1460 C 0.90372 0.4864 0.65123 0.0
N1461 N 0.91241 0.49669 0.6451 0.0
C1462 C 0.89699 0.47097 0.64801 0.0
C1463 C 0.90849 0.47692 0.63225 0.0
C1464 C 0.91496 0.49228 0.63578 0.0
C1465 C 0.89922 0.4661 0.63838 0.0
H1466 H 0.90183 0.49033 0.6586 0.0
H1467 H 0.92186 0.50076 0.63106 0.0
O1468 O 0.93368 0.55523 0.65893 0.0
O1469 O 0.94172 0.51688 0.65828 0.0
O1470 O 0.90422 0.52883 0.65871 0.0
O1471 O 0.92482 0.53558 0.6404 0.0
H1472 H 0.96586 0.56008 0.66398 0.0
H1473 H 0.91391 0.57408 0.67009 0.0
H1474 H 0.97537 0.5792 0.67714 0.0
H1475 H 0.92431 0.59279 0.68322 0.0
H1476 H 0.9568 0.46576 0.64542 0.0
H1477 H 0.93295 0.49734 0.67299 0.0
H1478 H 0.95434 0.49727 0.64451 0.0
H1479 H 0.93576 0.46584 0.67339 0.0
H1480 H 0.95169 0.53557 0.69767 0.0
H1481 H 0.9006 0.51499 0.69566 0.0
H1482 H 0.98576 0.57601 0.63544 0.0
H1483 H 0.00394 0.52521 0.64194 0.0
H1484 H 0.87772 0.51397 0.65045 0.0
H1485 H 0.893 0.55223 0.67087 0.0
H1486 H 0.84746 0.52125 0.65373 0.0
H1487 H 0.8625 0.55896 0.67374 0.0
H1488 H 0.92162 0.5656 0.63184 0.0
H1489 H 0.94795 0.51743 0.63101 0.0
H1490 H 0.93822 0.5749 0.61762 0.0
H1491 H 0.96405 0.52757 0.61679 0.0
H1492 H 0.90119 0.60897 0.64513 0.0
H1493 H 0.86187 0.57365 0.63638 0.0
H1494 H 0.88967 0.46321 0.65295 0.0
H1495 H 0.91066 0.47361 0.6248 0.0
Li1496 Li 0.70349 0.69061 0.90086 0.0
Li1497 Li 0.71087 0.67361 0.91495 0.0
Li1498 Li 0.72541 0.66956 0.89968 0.0
Li1499 Li 0.69588 0.66051 0.90189 0.0
C1500 C 0.74211 0.69414 0.90801 0.0
N1501 N 0.77678 0.70042 0.90786 0.0
C1502 C 0.75211 0.68969 0.91592 0.0
C1503 C 0.74972 0.70185 0.90003 0.0
C1504 C 0.76962 0.69298 0.91571 0.0
C1505 C 0.76728 0.70488 0.90009 0.0
C1506 C 0.68003 0.68445 0.91829 0.0
C1507 C 0.66743 0.67798 0.93366 0.0
N1508 N 0.66563 0.69495 0.9354 0.0
C1509 C 0.67806 0.70184 0.92023 0.0
C1510 C 0.67465 0.67241 0.92504 0.0
C1511 C 0.67074 0.70688 0.92892 0.0
C1512 C 0.67871 0.71288 0.89399 0.0
N1513 N 0.69546 0.71201 0.8964 0.0
C1514 C 0.6998 0.74092 0.89156 0.0
C1515 C 0.706 0.72565 0.89537 0.0
C1516 C 0.68257 0.74212 0.88885 0.0
C1517 C 0.67198 0.72784 0.89014 0.0
H1518 H 0.67064 0.70181 0.89491 0.0
H1519 H 0.71923 0.72464 0.89745 0.0
C1520 C 0.71678 0.65927 0.93324 0.0
N1521 N 0.71415 0.67412 0.92845 0.0
C1522 C 0.71991 0.65941 0.9431 0.0
C1523 C 0.71766 0.69018 0.94289 0.0
C1524 C 0.71454 0.68942 0.93303 0.0
C1525 C 0.72049 0.67503 0.94804 0.0
H1526 H 0.71678 0.64732 0.92939 0.0
H1527 H 0.71263 0.70105 0.92899 0.0
C1528 C 0.6997 0.68076 0.88302 0.0
N1529 N 0.6859 0.69838 0.8677 0.0
C1530 C 0.68303 0.67739 0.88003 0.0
C1531 C 0.70938 0.69304 0.87819 0.0
C1532 C 0.67628 0.68643 0.87227 0.0
C1533 C 0.70216 0.70184 0.87048 0.0
C1534 C 0.71388 0.63486 0.90792 0.0
C1535 C 0.72233 0.62537 0.90088 0.0
C1536 C 0.70214 0.62681 0.91397 0.0
C1537 C 0.71888 0.60796 0.90001 0.0
C1538 C 0.69902 0.60938 0.91285 0.0
N1539 N 0.70739 0.60039 0.90595 0.0
C1540 C 0.75828 0.65617 0.90017 0.0
C1541 C 0.74983 0.66544 0.88468 0.0
C1542 C 0.77385 0.65044 0.89659 0.0
N1543 N 0.74665 0.66339 0.8942 0.0
C1544 C 0.76528 0.65991 0.88079 0.0
C1545 C 0.77745 0.6521 0.88675 0.0
H1546 H 0.75525 0.65451 0.90769 0.0
H1547 H 0.74027 0.67106 0.88009 0.0
C1548 C 0.66425 0.64323 0.90297 0.0
N1549 N 0.67937 0.64401 0.89824 0.0
C1550 C 0.65177 0.63162 0.90011 0.0
C1551 C 0.67068 0.62181 0.88755 0.0
C1552 C 0.68281 0.63361 0.89067 0.0
C1553 C 0.65485 0.62081 0.89225 0.0
H1554 H 0.66175 0.65185 0.90885 0.0
H1555 H 0.6949 0.63465 0.88699 0.0
O1556 O 0.725 0.6907 0.90799 0.0
O1557 O 0.68742 0.67925 0.90988 0.0
O1558 O 0.7064 0.67233 0.89075 0.0
O1559 O 0.71682 0.65201 0.90877 0.0
H1560 H 0.74648 0.6836 0.92213 0.0
H1561 H 0.74222 0.70517 0.8938 0.0
H1562 H 0.77753 0.68954 0.92177 0.0
H1563 H 0.77336 0.71072 0.89394 0.0
H1564 H 0.66331 0.6688 0.93898 0.0
H1565 H 0.68227 0.71134 0.91512 0.0
H1566 H 0.67628 0.65891 0.92371 0.0
H1567 H 0.66917 0.72029 0.93053 0.0
H1568 H 0.70834 0.75169 0.89081 0.0
H1569 H 0.6587 0.72809 0.88803 0.0
H1570 H 0.72234 0.64747 0.94676 0.0
H1571 H 0.71789 0.70247 0.94643 0.0
H1572 H 0.67528 0.66806 0.88373 0.0
H1573 H 0.72222 0.69599 0.88049 0.0
H1574 H 0.66337 0.68401 0.8699 0.0
H1575 H 0.70945 0.71148 0.86673 0.0
H1576 H 0.73132 0.6314 0.89607 0.0
H1577 H 0.6953 0.634 0.91937 0.0
H1578 H 0.72529 0.60047 0.89457 0.0
H1579 H 0.68988 0.60301 0.91744 0.0
H1580 H 0.78267 0.6442 0.90143 0.0
H1581 H 0.76758 0.66153 0.87317 0.0
H1582 H 0.63963 0.6315 0.90382 0.0
H1583 H 0.67362 0.61365 0.8815 0.0
Li1584 Li 0.56926 0.46291 0.16445 0.0
Li1585 Li 0.55287 0.45561 0.1499 0.0
Li1586 Li 0.58271 0.44702 0.15111 0.0
Li1587 Li 0.57371 0.47692 0.14937 0.0
C1588 C 0.55344 0.42978 0.16487 0.0
N1589 N 0.53266 0.4094 0.17605 0.0
C1590 C 0.53673 0.43485 0.1669 0.0
C1591 C 0.55959 0.41439 0.16855 0.0
C1592 C 0.52641 0.42434 0.17255 0.0
C1593 C 0.5489 0.40427 0.1742 0.0
C1594 C 0.54845 0.49394 0.15685 0.0
C1595 C 0.53821 0.51822 0.1479 0.0
N1596 N 0.54108 0.52836 0.15566 0.0
C1597 C 0.5511 0.50457 0.16476 0.0
C1598 C 0.54176 0.50078 0.14838 0.0
C1599 C 0.54737 0.52194 0.16401 0.0
C1600 C 0.57984 0.47994 0.18088 0.0
N1601 N 0.57004 0.46655 0.17803 0.0
C1602 C 0.56256 0.46053 0.19433 0.0
C1603 C 0.56158 0.45678 0.18454 0.0
C1604 C 0.5724 0.47443 0.19745 0.0
C1605 C 0.58122 0.48413 0.19058 0.0
H1606 H 0.58646 0.48753 0.17557 0.0
H1607 H 0.55395 0.44615 0.18223 0.0
C1608 C 0.53092 0.43147 0.14184 0.0
N1609 N 0.53162 0.4478 0.14508 0.0
C1610 C 0.51599 0.42519 0.13774 0.0
C1611 C 0.50256 0.45247 0.14068 0.0
C1612 C 0.51783 0.45827 0.14468 0.0
C1613 C 0.50154 0.43574 0.13709 0.0
H1614 H 0.54209 0.42344 0.14232 0.0
H1615 H 0.5187 0.47112 0.14744 0.0
C1616 C 0.60466 0.46253 0.16388 0.0
N1617 N 0.63137 0.45258 0.17552 0.0
C1618 C 0.61934 0.47256 0.16449 0.0
C1619 C 0.60354 0.44744 0.1692 0.0
C1620 C 0.63272 0.46731 0.17042 0.0
C1621 C 0.61718 0.44264 0.17504 0.0
C1622 C 0.56356 0.45203 0.13197 0.0
C1623 C 0.56799 0.436 0.12836 0.0
C1624 C 0.55106 0.46166 0.1273 0.0
C1625 C 0.55961 0.42972 0.12024 0.0
C1626 C 0.54294 0.45492 0.11922 0.0
N1627 N 0.54733 0.43922 0.11589 0.0
C1628 C 0.59269 0.41349 0.14789 0.0
C1629 C 0.61519 0.43339 0.14597 0.0
C1630 C 0.60349 0.40004 0.1455 0.0
N1631 N 0.59865 0.42974 0.14804 0.0
C1632 C 0.62653 0.42028 0.14359 0.0
C1633 C 0.62069 0.40332 0.14331 0.0
H1634 H 0.57939 0.41104 0.14941 0.0
H1635 H 0.61956 0.44648 0.14613 0.0
C1636 C 0.58716 0.50993 0.15004 0.0
N1637 N 0.58044 0.49803 0.14404 0.0
C1638 C 0.5931 0.52539 0.14639 0.0
C1639 C 0.58493 0.51609 0.13048 0.0
C1640 C 0.5791 0.50082 0.13444 0.0
C1641 C 0.59226 0.52851 0.13647 0.0
H1642 H 0.58817 0.50723 0.15763 0.0
H1643 H 0.57382 0.49107 0.12984 0.0
O1644 O 0.56371 0.43965 0.1592 0.0
O1645 O 0.55234 0.47694 0.15739 0.0
O1646 O 0.59149 0.46758 0.15809 0.0
O1647 O 0.57143 0.45827 0.14002 0.0
H1648 H 0.53185 0.44687 0.16427 0.0
H1649 H 0.57253 0.41032 0.16709 0.0
H1650 H 0.51347 0.4281 0.17419 0.0
H1651 H 0.5535 0.39233 0.1771 0.0
H1652 H 0.5332 0.5237 0.14136 0.0
H1653 H 0.55598 0.4995 0.17142 0.0
H1654 H 0.53955 0.49277 0.14219 0.0
H1655 H 0.54946 0.53032 0.17007 0.0
H1656 H 0.55541 0.45281 0.19936 0.0
H1657 H 0.58916 0.4948 0.19267 0.0
H1658 H 0.5159 0.4123 0.13495 0.0
H1659 H 0.49167 0.46094 0.14048 0.0
H1660 H 0.62038 0.48428 0.16042 0.0
H1661 H 0.59228 0.43952 0.16884 0.0
H1662 H 0.64417 0.47495 0.17096 0.0
H1663 H 0.61649 0.431 0.17919 0.0
H1664 H 0.57776 0.42844 0.13178 0.0
H1665 H 0.54748 0.4741 0.12995 0.0
H1666 H 0.56285 0.41729 0.11741 0.0
H1667 H 0.53311 0.46217 0.1156 0.0
H1668 H 0.5983 0.38726 0.14516 0.0
H1669 H 0.63969 0.42338 0.14204 0.0
H1670 H 0.59891 0.5345 0.15124 0.0
H1671 H 0.58396 0.51804 0.1228 0.0
Li1672 Li 0.78162 0.32002 0.41468 0.0
Li1673 Li 0.78922 0.30219 0.40023 0.0
Li1674 Li 0.79841 0.33341 0.4018 0.0
Li1675 Li 0.76923 0.3255 0.3994 0.0
C1676 C 0.81639 0.30683 0.41608 0.0
N1677 N 0.84012 0.29342 0.42867 0.0
C1678 C 0.81614 0.28946 0.41834 0.0
C1679 C 0.82898 0.3173 0.42008 0.0
C1680 C 0.82818 0.28294 0.42476 0.0
C1681 C 0.84078 0.31031 0.42647 0.0
C1682 C 0.75103 0.29883 0.40797 0.0
C1683 C 0.72864 0.27875 0.40435 0.0
N1684 N 0.71773 0.28789 0.40994 0.0
C1685 C 0.73962 0.30802 0.41369 0.0
C1686 C 0.74553 0.28407 0.40327 0.0
C1687 C 0.72283 0.30228 0.41459 0.0
C1688 C 0.76692 0.33143 0.43197 0.0
N1689 N 0.77709 0.31911 0.42816 0.0
C1690 C 0.77939 0.30547 0.44346 0.0
C1691 C 0.78312 0.30612 0.43366 0.0
C1692 C 0.7692 0.31823 0.44761 0.0
C1693 C 0.7629 0.3313 0.44172 0.0
H1694 H 0.76167 0.34125 0.42741 0.0
H1695 H 0.79061 0.29612 0.43045 0.0
C1696 C 0.80616 0.2808 0.38754 0.0
N1697 N 0.79578 0.28074 0.39534 0.0
C1698 C 0.8111 0.26548 0.38329 0.0
C1699 C 0.79462 0.2503 0.39523 0.0
C1700 C 0.79 0.26595 0.39926 0.0
C1701 C 0.80529 0.24995 0.38712 0.0
H1702 H 0.81045 0.29281 0.38457 0.0
H1703 H 0.78182 0.26633 0.40551 0.0
C1704 C 0.78293 0.35608 0.41425 0.0
N1705 N 0.79282 0.38307 0.42576 0.0
C1706 C 0.77433 0.37168 0.41373 0.0
C1707 C 0.79647 0.35421 0.42067 0.0
C1708 C 0.77955 0.38518 0.41959 0.0
C1709 C 0.8013 0.36798 0.42642 0.0
C1710 C 0.78102 0.32325 0.38202 0.0
C1711 C 0.78191 0.33908 0.37744 0.0
C1712 C 0.77181 0.30994 0.37782 0.0
C1713 C 0.77344 0.34136 0.36871 0.0
C1714 C 0.76351 0.31274 0.36909 0.0
N1715 N 0.76449 0.32826 0.36475 0.0
C1716 C 0.832 0.34092 0.39757 0.0
C1717 C 0.81411 0.36529 0.39723 0.0
C1718 C 0.84604 0.35073 0.39494 0.0
N1719 N 0.81648 0.34831 0.39868 0.0
C1720 C 0.82786 0.37564 0.39459 0.0
C1721 C 0.84411 0.36835 0.3934 0.0
H1722 H 0.83339 0.32732 0.39861 0.0
H1723 H 0.80153 0.37076 0.39801 0.0
C1724 C 0.73583 0.3236 0.39033 0.0
N1725 N 0.74905 0.33356 0.39326 0.0
C1726 C 0.72081 0.33109 0.38695 0.0
C1727 C 0.73389 0.35879 0.38894 0.0
C1728 C 0.74854 0.35079 0.39231 0.0
C1729 C 0.71957 0.34895 0.3865 0.0
H1730 H 0.73675 0.3099 0.39078 0.0
H1731 H 0.7595 0.35833 0.39432 0.0
O1732 O 0.8048 0.3134 0.40973 0.0
O1733 O 0.76757 0.30408 0.40708 0.0
O1734 O 0.7781 0.34283 0.40845 0.0
O1735 O 0.78893 0.32085 0.39064 0.0
H1736 H 0.80659 0.28115 0.41528 0.0
H1737 H 0.82974 0.33068 0.41823 0.0
H1738 H 0.828 0.26956 0.42664 0.0
H1739 H 0.85051 0.31829 0.42965 0.0
H1740 H 0.72419 0.26739 0.40073 0.0
H1741 H 0.74365 0.31953 0.41732 0.0
H1742 H 0.75415 0.2769 0.39875 0.0
H1743 H 0.71384 0.30928 0.41897 0.0
H1744 H 0.7845 0.29513 0.44774 0.0
H1745 H 0.75463 0.34115 0.44456 0.0
H1746 H 0.81915 0.26582 0.37697 0.0
H1747 H 0.79005 0.23861 0.39848 0.0
H1748 H 0.76372 0.37338 0.40887 0.0
H1749 H 0.80302 0.34218 0.42129 0.0
H1750 H 0.77303 0.39732 0.41924 0.0
H1751 H 0.81176 0.36667 0.43143 0.0
H1752 H 0.78896 0.3495 0.38064 0.0
H1753 H 0.77093 0.29764 0.38132 0.0
H1754 H 0.77396 0.35356 0.36509 0.0
H1755 H 0.75625 0.30259 0.36577 0.0
H1756 H 0.85819 0.34445 0.39387 0.0
H1757 H 0.8258 0.38916 0.3935 0.0
H1758 H 0.71012 0.32303 0.38506 0.0
H1759 H 0.73368 0.37257 0.38839 0.0
Li1760 Li 0.91982 0.47713 0.84557 0.0
Li1761 Li 0.91236 0.44789 0.84414 0.0
Li1762 Li 0.94344 0.4578 0.84533 0.0
Li1763 Li 0.92542 0.46351 0.83065 0.0
C1764 C 0.92202 0.46727 0.86329 0.0
N1765 N 0.91608 0.48551 0.87991 0.0
C1766 C 0.90572 0.46755 0.86734 0.0
C1767 C 0.93533 0.47616 0.8677 0.0
C1768 C 0.90297 0.47688 0.87575 0.0
C1769 C 0.93206 0.48533 0.8761 0.0
C1770 C 0.89022 0.46129 0.8307 0.0
C1771 C 0.8798 0.44039 0.81942 0.0
N1772 N 0.86503 0.44935 0.81854 0.0
C1773 C 0.87498 0.47035 0.82963 0.0
C1774 C 0.89267 0.44624 0.82551 0.0
C1775 C 0.86239 0.46408 0.82347 0.0
C1776 C 0.92096 0.51048 0.8549 0.0
N1777 N 0.91123 0.4978 0.85109 0.0
C1778 C 0.88588 0.5139 0.85386 0.0
C1779 C 0.89397 0.49906 0.85082 0.0
C1780 C 0.89564 0.52767 0.85723 0.0
C1781 C 0.9134 0.52569 0.85796 0.0
H1782 H 0.93457 0.50894 0.8555 0.0
H1783 H 0.88647 0.48851 0.8482 0.0
C1784 C 0.9039 0.41453 0.84934 0.0
N1785 N 0.89723 0.43024 0.84773 0.0
C1786 C 0.89331 0.401 0.85191 0.0
C1787 C 0.86918 0.42018 0.85132 0.0
C1788 C 0.88028 0.43336 0.84877 0.0
C1789 C 0.87567 0.4037 0.85288 0.0
H1790 H 0.91749 0.41253 0.84864 0.0
H1791 H 0.87537 0.44608 0.84759 0.0
C1792 C 0.94632 0.49536 0.83782 0.0
N1793 N 0.95716 0.52891 0.83782 0.0
C1794 C 0.93802 0.50746 0.83213 0.0
C1795 C 0.96018 0.50032 0.84349 0.0
C1796 C 0.94367 0.52436 0.83224 0.0
C1797 C 0.96546 0.51734 0.84339 0.0
C1798 C 0.94001 0.42874 0.83082 0.0
C1799 C 0.9572 0.43024 0.82828 0.0
C1800 C 0.9308 0.41438 0.82788 0.0
C1801 C 0.96482 0.41745 0.82277 0.0
C1802 C 0.93887 0.40188 0.82237 0.0
N1803 N 0.95558 0.40366 0.81995 0.0
C1804 C 0.96611 0.44215 0.85805 0.0
C1805 C 0.97962 0.45794 0.84568 0.0
C1806 C 0.98189 0.43763 0.86191 0.0
N1807 N 0.9653 0.4521 0.85008 0.0
C1808 C 0.99568 0.45372 0.84929 0.0
C1809 C 0.99696 0.44342 0.85751 0.0
H1810 H 0.95447 0.43768 0.86138 0.0
H1811 H 0.97856 0.46584 0.83934 0.0
C1812 C 0.9151 0.47932 0.81381 0.0
N1813 N 0.92548 0.4667 0.81707 0.0
C1814 C 0.91453 0.48329 0.80407 0.0
C1815 C 0.93514 0.461 0.80112 0.0
C1816 C 0.93536 0.45751 0.81095 0.0
C1817 C 0.92471 0.47414 0.79757 0.0
H1818 H 0.90738 0.48648 0.81883 0.0
H1819 H 0.94353 0.44758 0.81364 0.0
O1820 O 0.92489 0.45851 0.85497 0.0
O1821 O 0.90267 0.46733 0.83671 0.0
O1822 O 0.94118 0.47869 0.83769 0.0
O1823 O 0.93239 0.44101 0.83635 0.0
H1824 H 0.8953 0.46075 0.86397 0.0
H1825 H 0.94799 0.47611 0.8646 0.0
H1826 H 0.89041 0.47729 0.87895 0.0
H1827 H 0.9422 0.49235 0.87958 0.0
H1828 H 0.88156 0.42874 0.81537 0.0
H1829 H 0.87288 0.48214 0.83348 0.0
H1830 H 0.90441 0.43922 0.82612 0.0
H1831 H 0.85053 0.47095 0.8226 0.0
H1832 H 0.8721 0.5146 0.85351 0.0
H1833 H 0.92141 0.5359 0.86061 0.0
H1834 H 0.89891 0.3886 0.85325 0.0
H1835 H 0.85567 0.42282 0.85196 0.0
H1836 H 0.92726 0.50388 0.82773 0.0
H1837 H 0.96663 0.4912 0.84803 0.0
H1838 H 0.93732 0.53387 0.82789 0.0
H1839 H 0.97611 0.52136 0.84777 0.0
H1840 H 0.96448 0.44131 0.83038 0.0
H1841 H 0.91754 0.41283 0.82985 0.0
H1842 H 0.97808 0.41853 0.82071 0.0
H1843 H 0.93187 0.39074 0.82003 0.0
H1844 H 0.98228 0.42944 0.86816 0.0
H1845 H 0.00695 0.45857 0.84572 0.0
H1846 H 0.90649 0.4937 0.8017 0.0
H1847 H 0.94305 0.45347 0.79635 0.0
Li1848 Li 0.79806 0.66431 0.09399 0.0
Li1849 Li 0.76808 0.6709 0.09597 0.0
Li1850 Li 0.78163 0.67611 0.08048 0.0
Li1851 Li 0.7876 0.69448 0.09426 0.0
C1852 C 0.78387 0.64088 0.08131 0.0
N1853 N 0.79462 0.61476 0.06944 0.0
C1854 C 0.77393 0.62621 0.08025 0.0
C1855 C 0.79929 0.64228 0.07632 0.0
C1856 C 0.77958 0.61314 0.07422 0.0
C1857 C 0.80449 0.62894 0.07035 0.0
C1858 C 0.78222 0.67233 0.11359 0.0
C1859 C 0.77023 0.67908 0.12907 0.0
N1860 N 0.77206 0.6625 0.13176 0.0
C1861 C 0.78413 0.6554 0.11653 0.0
C1862 C 0.77534 0.68431 0.11993 0.0
C1863 C 0.77885 0.65066 0.12573 0.0
C1864 C 0.83123 0.65847 0.09981 0.0
N1865 N 0.81649 0.65022 0.09771 0.0
C1866 C 0.82922 0.62326 0.10125 0.0
C1867 C 0.81515 0.63297 0.09843 0.0
C1868 C 0.84471 0.63143 0.10341 0.0
C1869 C 0.84556 0.6493 0.10269 0.0
H1870 H 0.8318 0.67223 0.09929 0.0
H1871 H 0.80317 0.62676 0.09684 0.0
C1872 C 0.73309 0.67096 0.10234 0.0
N1873 N 0.7479 0.662 0.10164 0.0
C1874 C 0.71825 0.66301 0.1056 0.0
C1875 C 0.73418 0.63681 0.10741 0.0
C1876 C 0.7487 0.64528 0.10415 0.0
C1877 C 0.71864 0.64564 0.10801 0.0
H1878 H 0.73252 0.68404 0.10004 0.0
H1879 H 0.76054 0.63837 0.10334 0.0
C1880 C 0.81353 0.69338 0.07922 0.0
N1881 N 0.83216 0.71292 0.06649 0.0
C1882 C 0.80592 0.70724 0.0746 0.0
C1883 C 0.83056 0.68936 0.07732 0.0
C1884 C 0.81558 0.717 0.06821 0.0
C1885 C 0.83977 0.69941 0.07087 0.0
C1886 C 0.75487 0.7045 0.08879 0.0
C1887 C 0.74685 0.712 0.08089 0.0
C1888 C 0.75209 0.7111 0.09798 0.0
C1889 C 0.73597 0.72587 0.08234 0.0
C1890 C 0.74115 0.72501 0.09913 0.0
N1891 N 0.73337 0.73204 0.09136 0.0
C1892 C 0.76104 0.67415 0.06446 0.0
C1893 C 0.79038 0.67536 0.0604 0.0
C1894 C 0.75652 0.67343 0.05479 0.0
N1895 N 0.7777 0.67523 0.06706 0.0
C1896 C 0.78643 0.67482 0.05063 0.0
C1897 C 0.7693 0.67387 0.04773 0.0
H1898 H 0.75126 0.67389 0.06994 0.0
H1899 H 0.80356 0.6758 0.06265 0.0
C1900 C 0.80294 0.71801 0.10656 0.0
N1901 N 0.7934 0.71685 0.09844 0.0
C1902 C 0.80753 0.73395 0.11021 0.0
C1903 C 0.79242 0.74723 0.09706 0.0
C1904 C 0.78819 0.73103 0.09364 0.0
C1905 C 0.80222 0.74885 0.10546 0.0
H1906 H 0.807 0.70652 0.11019 0.0
H1907 H 0.78062 0.72982 0.0872 0.0
O1908 O 0.77842 0.65376 0.08718 0.0
O1909 O 0.78735 0.6772 0.10461 0.0
O1910 O 0.80427 0.68341 0.08535 0.0
O1911 O 0.76568 0.69101 0.08747 0.0
H1912 H 0.76196 0.62495 0.08407 0.0
H1913 H 0.80719 0.6535 0.07705 0.0
H1914 H 0.77202 0.60171 0.07335 0.0
H1915 H 0.81639 0.62985 0.06646 0.0
H1916 H 0.76486 0.68822 0.13405 0.0
H1917 H 0.78949 0.64598 0.11173 0.0
H1918 H 0.77408 0.69754 0.11784 0.0
H1919 H 0.78016 0.63757 0.12808 0.0
H1920 H 0.82801 0.60952 0.10166 0.0
H1921 H 0.85709 0.65619 0.10449 0.0
H1922 H 0.70645 0.67017 0.10581 0.0
H1923 H 0.73504 0.62343 0.10927 0.0
H1924 H 0.79262 0.7102 0.07581 0.0
H1925 H 0.83655 0.67852 0.08075 0.0
H1926 H 0.80986 0.72775 0.06456 0.0
H1927 H 0.85296 0.69644 0.06932 0.0
H1928 H 0.749 0.70715 0.07372 0.0
H1929 H 0.75828 0.70549 0.10414 0.0
H1930 H 0.72961 0.73176 0.0763 0.0
H1931 H 0.73886 0.73021 0.10621 0.0
H1932 H 0.74316 0.67282 0.05286 0.0
H1933 H 0.79665 0.67494 0.0454 0.0
H1934 H 0.81536 0.73455 0.1166 0.0
H1935 H 0.78788 0.75834 0.09322 0.0
Li1936 Li 0.58088 0.54827 0.34402 0.0
Li1937 Li 0.57362 0.51784 0.34562 0.0
Li1938 Li 0.56845 0.5318 0.3306 0.0
Li1939 Li 0.55145 0.53795 0.34515 0.0
C1940 C 0.60384 0.53416 0.33126 0.0
N1941 N 0.63012 0.54565 0.31974 0.0
C1942 C 0.61909 0.525 0.33072 0.0
C1943 C 0.60194 0.54916 0.32594 0.0
C1944 C 0.63224 0.53102 0.32486 0.0
C1945 C 0.61538 0.55475 0.32016 0.0
C1946 C 0.56226 0.5417 0.36323 0.0
C1947 C 0.54194 0.53749 0.37604 0.0
N1948 N 0.546 0.55308 0.37965 0.0
C1949 C 0.56637 0.5576 0.36715 0.0
C1950 C 0.55009 0.53147 0.36779 0.0
C1951 C 0.55797 0.56315 0.37543 0.0
C1952 C 0.58831 0.58222 0.34761 0.0
N1953 N 0.5956 0.56654 0.34719 0.0
C1954 C 0.62268 0.57811 0.35161 0.0
C1955 C 0.61243 0.5642 0.3491 0.0
C1956 C 0.61544 0.59449 0.35221 0.0
C1957 C 0.59799 0.5964 0.35015 0.0
H1958 H 0.57482 0.58362 0.34619 0.0
H1959 H 0.61787 0.55154 0.34873 0.0
C1960 C 0.58915 0.48591 0.34465 0.0
N1961 N 0.58135 0.49692 0.35077 0.0
C1962 C 0.59547 0.47041 0.34803 0.0
C1963 C 0.58553 0.47788 0.36393 0.0
C1964 C 0.57938 0.49324 0.36023 0.0
C1965 C 0.59384 0.4663 0.3578 0.0
H1966 H 0.5906 0.48929 0.33717 0.0
H1967 H 0.57319 0.50228 0.36493 0.0
C1968 C 0.55127 0.56433 0.33019 0.0
N1969 N 0.53064 0.58442 0.31877 0.0
C1970 C 0.53458 0.55922 0.32816 0.0
C1971 C 0.55748 0.57963 0.32641 0.0
C1972 C 0.52434 0.56958 0.32238 0.0
C1973 C 0.54686 0.5896 0.32064 0.0
C1974 C 0.54922 0.4996 0.33815 0.0
C1975 C 0.553 0.48893 0.3304 0.0
C1976 C 0.54228 0.49261 0.34652 0.0
C1977 C 0.55008 0.47141 0.33121 0.0
C1978 C 0.53957 0.47503 0.34707 0.0
N1979 N 0.54351 0.46487 0.33947 0.0
C1980 C 0.58009 0.51559 0.31416 0.0
C1981 C 0.56009 0.53728 0.31054 0.0
C1982 C 0.58155 0.51136 0.30447 0.0
N1983 N 0.5694 0.52826 0.31702 0.0
C1984 C 0.56113 0.53347 0.30076 0.0
C1985 C 0.57188 0.52025 0.29763 0.0
H1986 H 0.58733 0.50856 0.31945 0.0
H1987 H 0.55168 0.54729 0.31288 0.0
C1988 C 0.52806 0.55975 0.35422 0.0
N1989 N 0.52968 0.54423 0.34996 0.0
C1990 C 0.51274 0.56434 0.3586 0.0
C1991 C 0.50067 0.53742 0.35351 0.0
C1992 C 0.51634 0.5332 0.34939 0.0
C1993 C 0.49889 0.55303 0.35833 0.0
H1994 H 0.53881 0.56838 0.3544 0.0
H1995 H 0.51792 0.52107 0.34581 0.0
O1996 O 0.59089 0.52834 0.33697 0.0
O1997 O 0.57017 0.53618 0.35503 0.0
O1998 O 0.56147 0.55458 0.33596 0.0
O1999 O 0.55233 0.51675 0.33756 0.0
H2000 H 0.62073 0.51335 0.33479 0.0
H2001 H 0.59023 0.5564 0.32624 0.0
H2002 H 0.64411 0.52407 0.32437 0.0
H2003 H 0.61408 0.56634 0.316 0.0
H2004 H 0.53236 0.52977 0.37955 0.0
H2005 H 0.57592 0.5656 0.36385 0.0
H2006 H 0.54677 0.51912 0.36491 0.0
H2007 H 0.56097 0.57547 0.3785 0.0
H2008 H 0.63608 0.57605 0.35306 0.0
H2009 H 0.59172 0.60866 0.35074 0.0
H2010 H 0.60204 0.462 0.34309 0.0
H2011 H 0.58392 0.47515 0.37149 0.0
H2012 H 0.52966 0.54727 0.33086 0.0
H2013 H 0.57039 0.58374 0.32789 0.0
H2014 H 0.51141 0.56578 0.32072 0.0
H2015 H 0.5515 0.60146 0.31765 0.0
H2016 H 0.55814 0.49409 0.32382 0.0
H2017 H 0.53919 0.50065 0.35257 0.0
H2018 H 0.55304 0.46301 0.32528 0.0
H2019 H 0.53436 0.46945 0.35354 0.0
H2020 H 0.59017 0.50124 0.30237 0.0
H2021 H 0.55331 0.54054 0.29574 0.0
H2022 H 0.51171 0.5766 0.36214 0.0
H2023 H 0.4902 0.52842 0.35315 0.0
Li2024 Li 0.72409 0.32482 0.59538 0.0
Li2025 Li 0.69489 0.332 0.59373 0.0
Li2026 Li 0.70501 0.3011 0.59564 0.0
Li2027 Li 0.71076 0.31816 0.58058 0.0
C2028 C 0.71382 0.32425 0.61315 0.0
N2029 N 0.73119 0.33227 0.62978 0.0
C2030 C 0.71435 0.34111 0.61639 0.0
C2031 C 0.72198 0.31144 0.61839 0.0
C2032 C 0.72324 0.34491 0.62481 0.0
C2033 C 0.73073 0.31576 0.62678 0.0
C2034 C 0.70802 0.35321 0.5798 0.0
C2035 C 0.6867 0.36238 0.56842 0.0
N2036 N 0.69564 0.377 0.5669 0.0
C2037 C 0.71703 0.36829 0.57808 0.0
C2038 C 0.69277 0.3502 0.57489 0.0
C2039 C 0.71055 0.38017 0.57155 0.0
C2040 C 0.75643 0.32395 0.6056 0.0
N2041 N 0.74474 0.33358 0.60084 0.0
C2042 C 0.76192 0.35847 0.60279 0.0
C2043 C 0.74704 0.3506 0.59962 0.0
C2044 C 0.77466 0.34872 0.60727 0.0
C2045 C 0.77164 0.33126 0.60882 0.0
H2046 H 0.75406 0.31058 0.60686 0.0
H2047 H 0.73726 0.35811 0.5962 0.0
C2048 C 0.66157 0.34004 0.59905 0.0
N2049 N 0.67698 0.34705 0.59701 0.0
C2050 C 0.64783 0.35043 0.6015 0.0
C2051 C 0.66616 0.37508 0.59988 0.0
C2052 C 0.67958 0.36418 0.59747 0.0
C2053 C 0.64999 0.36823 0.6019 0.0
H2054 H 0.66001 0.32634 0.59879 0.0
H2055 H 0.69207 0.36938 0.59597 0.0
C2056 C 0.74275 0.29836 0.58841 0.0
N2057 N 0.77665 0.28883 0.58911 0.0
C2058 C 0.75484 0.30693 0.58283 0.0
C2059 C 0.7479 0.28489 0.59432 0.0
C2060 C 0.77192 0.30194 0.5833 0.0
C2061 C 0.76509 0.28027 0.59457 0.0
C2062 C 0.67616 0.30301 0.58108 0.0
C2063 C 0.67824 0.28577 0.57881 0.0
C2064 C 0.6614 0.31154 0.57813 0.0
C2065 C 0.6656 0.27738 0.57355 0.0
C2066 C 0.64906 0.30271 0.57287 0.0
N2067 N 0.6514 0.28595 0.57071 0.0
C2068 C 0.6896 0.27926 0.60897 0.0
C2069 C 0.70548 0.26503 0.5969 0.0
C2070 C 0.6855 0.26374 0.6133 0.0
N2071 N 0.69944 0.2796 0.60094 0.0
C2072 C 0.70166 0.24922 0.60097 0.0
C2073 C 0.69157 0.24844 0.60929 0.0
H2074 H 0.68499 0.29109 0.61201 0.0
H2075 H 0.71331 0.26571 0.59051 0.0
C2076 C 0.72653 0.32767 0.56359 0.0
N2077 N 0.71401 0.31732 0.567 0.0
C2078 C 0.73035 0.328 0.55382 0.0
C2079 C 0.70825 0.30705 0.55117 0.0
C2080 C 0.70486 0.30712 0.56102 0.0
C2081 C 0.72119 0.31756 0.54746 0.0
H2082 H 0.73365 0.33565 0.56849 0.0
H2083 H 0.695 0.29899 0.56383 0.0
O2084 O 0.70546 0.32032 0.60484 0.0
O2085 O 0.71433 0.3414 0.58614 0.0
O2086 O 0.72594 0.30292 0.58797 0.0
O2087 O 0.68827 0.31138 0.58637 0.0
H2088 H 0.7081 0.35115 0.61238 0.0
H2089 H 0.72173 0.29833 0.61594 0.0
H2090 H 0.72386 0.35792 0.62738 0.0
H2091 H 0.7372 0.30601 0.63089 0.0
H2092 H 0.67491 0.36018 0.56459 0.0
H2093 H 0.72897 0.37081 0.58169 0.0
H2094 H 0.68574 0.33858 0.57601 0.0
H2095 H 0.7174 0.39189 0.57017 0.0
H2096 H 0.76341 0.37208 0.60174 0.0
H2097 H 0.78104 0.32328 0.61231 0.0
H2098 H 0.6357 0.34456 0.60321 0.0
H2099 H 0.66837 0.38871 0.60007 0.0
H2100 H 0.75111 0.3174 0.57825 0.0
H2101 H 0.73878 0.27824 0.59877 0.0
H2102 H 0.78142 0.30851 0.57905 0.0
H2103 H 0.76926 0.26993 0.59915 0.0
H2104 H 0.68963 0.27902 0.58092 0.0
H2105 H 0.65944 0.32484 0.57988 0.0
H2106 H 0.66711 0.26406 0.5717 0.0
H2107 H 0.63761 0.30917 0.57053 0.0
H2108 H 0.67748 0.26371 0.61963 0.0
H2109 H 0.70673 0.23776 0.5977 0.0
H2110 H 0.7406 0.33612 0.55132 0.0
H2111 H 0.70075 0.29893 0.54651 0.0
Li2112 Li 0.0684 0.46149 0.32974 0.0
Li2113 Li 0.07757 0.47125 0.34548 0.0
Li2114 Li 0.08114 0.44199 0.34174 0.0
Li2115 Li 0.05287 0.45401 0.34415 0.0
C2116 C 0.10558 0.45405 0.33085 0.0
N2117 N 0.13299 0.43754 0.32253 0.0
C2118 C 0.12221 0.45805 0.33367 0.0
C2119 C 0.10291 0.44172 0.32375 0.0
C2120 C 0.1359 0.44954 0.32939 0.0
C2121 C 0.11693 0.4335 0.31965 0.0
C2122 C 0.05613 0.49313 0.33502 0.0
C2123 C 0.04187 0.51961 0.3314 0.0
N2124 N 0.05662 0.52584 0.32763 0.0
C2125 C 0.07114 0.49978 0.33109 0.0
C2126 C 0.04137 0.5031 0.33516 0.0
C2127 C 0.07112 0.51635 0.3274 0.0
C2128 C 0.05051 0.46751 0.31259 0.0
N2129 N 0.06628 0.46744 0.31662 0.0
C2130 C 0.07877 0.47747 0.30205 0.0
C2131 C 0.08027 0.47245 0.31161 0.0
C2132 C 0.06265 0.47767 0.29764 0.0
C2133 C 0.04838 0.4726 0.30305 0.0
H2134 H 0.03956 0.46387 0.31684 0.0
H2135 H 0.0926 0.47276 0.31505 0.0
C2136 C 0.10486 0.48651 0.35465 0.0
N2137 N 0.08837 0.48937 0.3522 0.0
C2138 C 0.11462 0.49952 0.35865 0.0
C2139 C 0.08986 0.51789 0.35818 0.0
C2140 C 0.08056 0.50446 0.35418 0.0
C2141 C 0.10726 0.51562 0.36017 0.0
H2142 H 0.11048 0.47414 0.35334 0.0
H2143 H 0.06726 0.50625 0.35243 0.0
C2144 C 0.04906 0.42572 0.33367 0.0
N2145 N 0.02513 0.39989 0.33418 0.0
C2146 C 0.04838 0.41462 0.34152 0.0
C2147 C 0.03761 0.42368 0.32608 0.0
C2148 C 0.03616 0.40166 0.34165 0.0
C2149 C 0.02561 0.41053 0.32647 0.0
C2150 C 0.07252 0.45875 0.36246 0.0
C2151 C 0.08582 0.4544 0.36867 0.0
C2152 C 0.06058 0.47102 0.36526 0.0
C2153 C 0.08701 0.4625 0.37758 0.0
C2154 C 0.06221 0.47883 0.37423 0.0
N2155 N 0.07529 0.47445 0.38015 0.0
C2156 C 0.10881 0.42373 0.34948 0.0
C2157 C 0.09183 0.40803 0.33851 0.0
C2158 C 0.11892 0.40942 0.35126 0.0
N2159 N 0.09534 0.42264 0.34337 0.0
C2160 C 0.10152 0.3934 0.34011 0.0
C2161 C 0.11505 0.39392 0.34671 0.0
H2162 H 0.11153 0.43566 0.35305 0.0
H2163 H 0.08138 0.40766 0.33346 0.0
C2164 C 0.01691 0.4512 0.34311 0.0
N2165 N 0.03075 0.44894 0.34884 0.0
C2166 C 0.00074 0.44626 0.3463 0.0
C2167 C 0.01342 0.4373 0.3613 0.0
C2168 C 0.02931 0.44216 0.35778 0.0
C2169 C -0.00114 0.43907 0.35549 0.0
H2170 H 0.01853 0.45643 0.33598 0.0
H2171 H 0.04056 0.44024 0.36212 0.0
O2172 O 0.09194 0.46188 0.33513 0.0
O2173 O 0.0557 0.47693 0.33868 0.0
O2174 O 0.06086 0.43856 0.33346 0.0
O2175 O 0.07129 0.45122 0.35362 0.0
H2176 H 0.12458 0.46765 0.33908 0.0
H2177 H 0.09012 0.43839 0.32151 0.0
H2178 H 0.14883 0.45249 0.33152 0.0
H2179 H 0.11503 0.42387 0.31419 0.0
H2180 H 0.03054 0.52748 0.33148 0.0
H2181 H 0.08272 0.49232 0.33092 0.0
H2182 H 0.02964 0.49811 0.33816 0.0
H2183 H 0.08265 0.52166 0.32436 0.0
H2184 H 0.09017 0.48107 0.29816 0.0
H2185 H 0.03567 0.47287 0.30003 0.0
H2186 H 0.12789 0.49714 0.36033 0.0
H2187 H 0.08371 0.5301 0.3593 0.0
H2188 H 0.0571 0.41612 0.34749 0.0
H2189 H 0.03802 0.43213 0.31994 0.0
H2190 H 0.03543 0.39302 0.34769 0.0
H2191 H 0.01667 0.40877 0.32063 0.0
H2192 H 0.09513 0.44489 0.36664 0.0
H2193 H 0.05029 0.47463 0.3605 0.0
H2194 H 0.09726 0.4593 0.38245 0.0
H2195 H 0.05313 0.48842 0.37647 0.0
H2196 H 0.12924 0.41033 0.3564 0.0
H2197 H 0.09835 0.38175 0.33633 0.0
H2198 H 0.98996 0.44764 0.34152 0.0
H2199 H 0.01261 0.43212 0.36849 0.0
Li2200 Li 0.30167 0.32644 0.09186 0.0
Li2201 Li 0.288 0.29748 0.09342 0.0
Li2202 Li 0.28114 0.31664 0.07974 0.0
Li2203 Li 0.27206 0.32304 0.09549 0.0
C2204 C 0.31691 0.29916 0.0788 0.0
N2205 N 0.34488 0.28444 0.07003 0.0
C2206 C 0.32724 0.2878 0.08389 0.0
C2207 C 0.32073 0.30294 0.06923 0.0
C2208 C 0.34135 0.28052 0.07934 0.0
C2209 C 0.33495 0.2954 0.06493 0.0
C2210 C 0.28595 0.31847 0.11225 0.0
C2211 C 0.2687 0.31069 0.1259 0.0
N2212 N 0.27287 0.32569 0.13021 0.0
C2213 C 0.29015 0.33377 0.11684 0.0
C2214 C 0.2752 0.30679 0.11682 0.0
C2215 C 0.28337 0.33719 0.12591 0.0
C2216 C 0.32025 0.35555 0.09731 0.0
N2217 N 0.32184 0.33919 0.0942 0.0
C2218 C 0.35216 0.34098 0.0951 0.0
C2219 C 0.33737 0.33186 0.093 0.0
C2220 C 0.35095 0.35779 0.09854 0.0
C2221 C 0.33472 0.36516 0.09952 0.0
H2222 H 0.3077 0.36104 0.09824 0.0
H2223 H 0.33833 0.31885 0.09056 0.0
C2224 C 0.28517 0.26136 0.09283 0.0
N2225 N 0.29166 0.27497 0.09765 0.0
C2226 C 0.28767 0.24485 0.09636 0.0
C2227 C 0.30344 0.25685 0.10968 0.0
C2228 C 0.30071 0.27304 0.10589 0.0
C2229 C 0.29682 0.24249 0.10494 0.0
H2230 H 0.27796 0.26336 0.08631 0.0
H2231 H 0.30579 0.28413 0.10951 0.0
C2232 C 0.28817 0.35181 0.08032 0.0
N2233 N 0.3001 0.37705 0.06821 0.0
C2234 C 0.27993 0.36759 0.07991 0.0
C2235 C 0.30253 0.34889 0.0746 0.0
C2236 C 0.28614 0.38018 0.07373 0.0
C2237 C 0.30835 0.3618 0.06852 0.0
C2238 C 0.2493 0.30436 0.08414 0.0
C2239 C 0.24324 0.3203 0.08119 0.0
C2240 C 0.23888 0.28999 0.08322 0.0
C2241 C 0.22682 0.32158 0.07738 0.0
C2242 C 0.22253 0.29181 0.07937 0.0
N2243 N 0.21689 0.30743 0.07656 0.0
C2244 C 0.27703 0.30084 0.06196 0.0
C2245 C 0.26987 0.33023 0.0618 0.0
C2246 C 0.27296 0.29937 0.05224 0.0
N2247 N 0.27559 0.31613 0.06649 0.0
C2248 C 0.26593 0.32941 0.05205 0.0
C2249 C 0.2675 0.31383 0.04718 0.0
H2250 H 0.28137 0.2898 0.06592 0.0
H2251 H 0.26818 0.34209 0.06561 0.0
C2252 C 0.25557 0.34946 0.10501 0.0
N2253 N 0.25416 0.33268 0.10276 0.0
C2254 C 0.24264 0.35758 0.1101 0.0
C2255 C 0.22699 0.33097 0.11044 0.0
C2256 C 0.2404 0.32328 0.10548 0.0
C2257 C 0.22804 0.34835 0.11275 0.0
H2258 H 0.26673 0.35654 0.10277 0.0
H2259 H 0.23976 0.30987 0.10369 0.0
O2260 O 0.30294 0.30629 0.08312 0.0
O2261 O 0.2921 0.31506 0.10328 0.0
O2262 O 0.28219 0.33944 0.08637 0.0
O2263 O 0.26534 0.30269 0.08788 0.0
H2264 H 0.32452 0.28477 0.09131 0.0
H2265 H 0.31282 0.3116 0.06514 0.0
H2266 H 0.34951 0.27177 0.0832 0.0
H2267 H 0.33807 0.29823 0.05754 0.0
H2268 H 0.26028 0.30182 0.1295 0.0
H2269 H 0.29842 0.34295 0.11338 0.0
H2270 H 0.27174 0.29495 0.11333 0.0
H2271 H 0.28643 0.34902 0.12953 0.0
H2272 H 0.36443 0.33487 0.09411 0.0
H2273 H 0.3332 0.37801 0.10225 0.0
H2274 H 0.28232 0.2341 0.09252 0.0
H2275 H 0.31084 0.25557 0.11621 0.0
H2276 H 0.26881 0.37006 0.08431 0.0
H2277 H 0.30916 0.33685 0.0749 0.0
H2278 H 0.27986 0.39244 0.07332 0.0
H2279 H 0.31945 0.3597 0.06406 0.0
H2280 H 0.25107 0.33158 0.08185 0.0
H2281 H 0.2434 0.27757 0.08546 0.0
H2282 H 0.22196 0.33384 0.07509 0.0
H2283 H 0.21433 0.28079 0.07862 0.0
H2284 H 0.2743 0.28715 0.04868 0.0
H2285 H 0.26146 0.34075 0.04839 0.0
H2286 H 0.24378 0.37106 0.11168 0.0
H2287 H 0.21592 0.32349 0.11242 0.0
Li2288 Li 0.41686 0.5533 0.84198 0.0
Li2289 Li 0.44607 0.54105 0.84372 0.0
Li2290 Li 0.4279 0.53322 0.82995 0.0
Li2291 Li 0.42137 0.52395 0.84567 0.0
C2292 C 0.44463 0.57102 0.83134 0.0
N2293 N 0.46008 0.60192 0.82746 0.0
C2294 C 0.4508 0.5811 0.83885 0.0
C2295 C 0.4463 0.57663 0.82186 0.0
C2296 C 0.4586 0.59668 0.83674 0.0
C2297 C 0.45414 0.5923 0.82005 0.0
C2298 C 0.42601 0.53756 0.86249 0.0
C2299 C 0.43547 0.51932 0.87537 0.0
N2300 N 0.4211 0.5232 0.88039 0.0
C2301 C 0.4114 0.54146 0.8678 0.0
C2302 C 0.4382 0.52647 0.86631 0.0
C2303 C 0.40913 0.53403 0.87683 0.0
C2304 C 0.3871 0.5686 0.84847 0.0
N2305 N 0.4021 0.57222 0.84403 0.0
C2306 C 0.39456 0.60167 0.84292 0.0
C2307 C 0.40588 0.58832 0.8411 0.0
C2308 C 0.37911 0.59839 0.8477 0.0
C2309 C 0.37536 0.58153 0.85039 0.0
H2310 H 0.38426 0.55559 0.85051 0.0
H2311 H 0.41764 0.59091 0.83738 0.0
C2312 C 0.48212 0.54004 0.84269 0.0
N2313 N 0.46854 0.54539 0.84795 0.0
C2314 C 0.49869 0.54264 0.84608 0.0
C2315 C 0.48686 0.55621 0.86019 0.0
C2316 C 0.47058 0.55341 0.85651 0.0
C2317 C 0.50119 0.55071 0.85498 0.0
H2318 H 0.48005 0.5336 0.83591 0.0
H2319 H 0.45953 0.55758 0.86052 0.0
C2320 C 0.39287 0.53917 0.83009 0.0
N2321 N 0.36804 0.55101 0.8177 0.0
C2322 C 0.37671 0.53167 0.83002 0.0
C2323 C 0.39639 0.55274 0.82388 0.0
C2324 C 0.36433 0.53782 0.82369 0.0
C2325 C 0.38367 0.55853 0.81767 0.0
C2326 C 0.44132 0.50194 0.83455 0.0
C2327 C 0.42573 0.495 0.83164 0.0
C2328 C 0.45623 0.49233 0.83359 0.0
C2329 C 0.42532 0.47853 0.82783 0.0
C2330 C 0.45528 0.47589 0.82975 0.0
N2331 N 0.43998 0.46939 0.82697 0.0
C2332 C 0.44354 0.53037 0.81195 0.0
C2333 C 0.41521 0.51989 0.81234 0.0
C2334 C 0.44512 0.52581 0.8023 0.0
N2335 N 0.42873 0.52741 0.81673 0.0
C2336 C 0.41612 0.51538 0.80268 0.0
C2337 C 0.43127 0.51822 0.79751 0.0
H2338 H 0.45419 0.53609 0.8157 0.0
H2339 H 0.40372 0.51722 0.81634 0.0
C2340 C 0.39516 0.50744 0.85522 0.0
N2341 N 0.41188 0.50581 0.85288 0.0
C2342 C 0.38688 0.4945 0.86023 0.0
C2343 C 0.41322 0.47841 0.86033 0.0
C2344 C 0.42108 0.49183 0.85545 0.0
C2345 C 0.39589 0.47968 0.86272 0.0
H2346 H 0.38824 0.51877 0.8531 0.0
H2347 H 0.43445 0.49102 0.85362 0.0
O2348 O 0.437 0.5557 0.83319 0.0
O2349 O 0.42828 0.54435 0.85354 0.0
O2350 O 0.40498 0.53333 0.83635 0.0
O2351 O 0.44215 0.51809 0.83826 0.0
H2352 H 0.44935 0.57705 0.84623 0.0
H2353 H 0.44152 0.56898 0.81598 0.0
H2354 H 0.4634 0.60465 0.84248 0.0
H2355 H 0.45549 0.59683 0.81275 0.0
H2356 H 0.44473 0.51062 0.87839 0.0
H2357 H 0.40187 0.55004 0.86496 0.0
H2358 H 0.44952 0.52321 0.86226 0.0
H2359 H 0.39784 0.53685 0.88099 0.0
H2360 H 0.39808 0.61448 0.84078 0.0
H2361 H 0.36348 0.57834 0.85392 0.0
H2362 H 0.5094 0.53813 0.84188 0.0
H2363 H 0.48822 0.56276 0.86699 0.0
H2364 H 0.37377 0.5212 0.83481 0.0
H2365 H 0.40878 0.55877 0.82383 0.0
H2366 H 0.35177 0.53212 0.82355 0.0
H2367 H 0.38623 0.569 0.81282 0.0
H2368 H 0.41404 0.5022 0.83233 0.0
H2369 H 0.4684 0.49754 0.8358 0.0
H2370 H 0.41334 0.473 0.82556 0.0
H2371 H 0.46672 0.46831 0.82897 0.0
H2372 H 0.45717 0.52795 0.7987 0.0
H2373 H 0.405 0.50981 0.79931 0.0
H2374 H 0.37344 0.49583 0.86186 0.0
H2375 H 0.42054 0.46717 0.86219 0.0
Li2376 Li 0.20421 0.69457 0.59472 0.0
Li2377 Li 0.19253 0.66485 0.59338 0.0
Li2378 Li 0.22224 0.67029 0.59562 0.0
Li2379 Li 0.21042 0.67679 0.58045 0.0
C2380 C 0.21032 0.672 0.61306 0.0
N2381 N 0.22591 0.66276 0.63007 0.0
C2382 C 0.20602 0.65665 0.61754 0.0
C2383 C 0.22243 0.68274 0.61727 0.0
C2384 C 0.21408 0.65218 0.62613 0.0
C2385 C 0.2302 0.67782 0.62586 0.0
C2386 C 0.17284 0.69197 0.58278 0.0
C2387 C 0.15062 0.69798 0.57131 0.0
N2388 N 0.14168 0.70627 0.57826 0.0
C2389 C 0.16346 0.70058 0.58981 0.0
C2390 C 0.16642 0.69069 0.57345 0.0
C2391 C 0.14772 0.70771 0.58738 0.0
C2392 C 0.19865 0.73012 0.59291 0.0
N2393 N 0.19937 0.71681 0.59914 0.0
C2394 C 0.19253 0.73502 0.61231 0.0
C2395 C 0.19635 0.71893 0.60866 0.0
C2396 C 0.1915 0.74907 0.60607 0.0
C2397 C 0.19466 0.74647 0.59623 0.0
H2398 H 0.20098 0.72797 0.58534 0.0
H2399 H 0.19678 0.70808 0.61344 0.0
C2400 C 0.17814 0.63355 0.5987 0.0
N2401 N 0.1741 0.64986 0.59627 0.0
C2402 C 0.16534 0.6219 0.60104 0.0
C2403 C 0.14443 0.64399 0.59828 0.0
C2404 C 0.15763 0.65521 0.59599 0.0
C2405 C 0.14821 0.6271 0.60089 0.0
H2406 H 0.19136 0.62964 0.59889 0.0
H2407 H 0.15469 0.66819 0.5941 0.0
C2408 C 0.24185 0.6912 0.58361 0.0
N2409 N 0.27309 0.69107 0.57443 0.0
C2410 C 0.24886 0.67587 0.58032 0.0
C2411 C 0.25073 0.70645 0.58222 0.0
C2412 C 0.26467 0.67608 0.5757 0.0
C2413 C 0.26651 0.70613 0.57757 0.0
C2414 C 0.20572 0.6415 0.5806 0.0
C2415 C 0.21413 0.62586 0.57982 0.0
C2416 C 0.19093 0.64442 0.57524 0.0
C2417 C 0.20764 0.61338 0.57367 0.0
C2418 C 0.18484 0.63162 0.56917 0.0
N2419 N 0.19325 0.6165 0.56851 0.0
C2420 C 0.24056 0.64438 0.60423 0.0
C2421 C 0.25578 0.67055 0.60386 0.0
C2422 C 0.25406 0.63639 0.60888 0.0
N2423 N 0.24166 0.66112 0.60183 0.0
C2424 C 0.26976 0.66296 0.60836 0.0
C2425 C 0.2689 0.64568 0.61093 0.0
H2426 H 0.22912 0.63728 0.60253 0.0
H2427 H 0.25618 0.68393 0.60199 0.0
C2428 C 0.2097 0.69257 0.56236 0.0
N2429 N 0.21408 0.67796 0.567 0.0
C2430 C 0.21272 0.69423 0.55252 0.0
C2431 C 0.22462 0.66577 0.55246 0.0
C2432 C 0.22161 0.66476 0.5623 0.0
C2433 C 0.22018 0.68065 0.54747 0.0
H2434 H 0.20397 0.70295 0.56633 0.0
H2435 H 0.22555 0.65353 0.56618 0.0
O2436 O 0.20286 0.67641 0.60453 0.0
O2437 O 0.18839 0.68509 0.58495 0.0
O2438 O 0.22634 0.69142 0.58811 0.0
O2439 O 0.21198 0.65375 0.58665 0.0
H2440 H 0.19665 0.64822 0.6144 0.0
H2441 H 0.22602 0.69461 0.61384 0.0
H2442 H 0.21094 0.64029 0.62965 0.0
H2443 H 0.23971 0.68593 0.62915 0.0
H2444 H 0.14547 0.69706 0.56412 0.0
H2445 H 0.16816 0.70155 0.59709 0.0
H2446 H 0.17354 0.6841 0.56792 0.0
H2447 H 0.14028 0.71436 0.59275 0.0
H2448 H 0.19048 0.73639 0.61996 0.0
H2449 H 0.19376 0.75684 0.59113 0.0
H2450 H 0.16883 0.60896 0.60293 0.0
H2451 H 0.13143 0.64864 0.59822 0.0
H2452 H 0.24223 0.66392 0.58133 0.0
H2453 H 0.24546 0.71842 0.58471 0.0
H2454 H 0.27024 0.66431 0.57312 0.0
H2455 H 0.27352 0.71784 0.57645 0.0
H2456 H 0.22558 0.6234 0.58394 0.0
H2457 H 0.1842 0.6564 0.57577 0.0
H2458 H 0.21404 0.60121 0.57299 0.0
H2459 H 0.17341 0.63371 0.56498 0.0
H2460 H 0.25305 0.62298 0.61067 0.0
H2461 H 0.28103 0.67048 0.60988 0.0
H2462 H 0.20917 0.70591 0.54888 0.0
H2463 H 0.23071 0.65518 0.54883 0.0
Li2464 Li 0.08162 0.55152 0.15273 0.0
Li2465 Li 0.05276 0.5399 0.15051 0.0
Li2466 Li 0.06897 0.53347 0.16493 0.0
Li2467 Li 0.07712 0.52188 0.14997 0.0
C2468 C 0.05405 0.57191 0.15912 0.0
N2469 N 0.0402 0.60383 0.15603 0.0
C2470 C 0.0543 0.57908 0.14993 0.0
C2471 C 0.04674 0.58094 0.16673 0.0
C2472 C 0.04724 0.59524 0.14852 0.0
C2473 C 0.03982 0.59707 0.16502 0.0
C2474 C 0.07213 0.53264 0.1325 0.0
C2475 C 0.06068 0.51166 0.12159 0.0
N2476 N 0.07346 0.51516 0.11529 0.0
C2477 C 0.08509 0.53609 0.1259 0.0
C2478 C 0.05977 0.52037 0.13033 0.0
C2479 C 0.08556 0.5271 0.11724 0.0
C2480 C 0.10945 0.56625 0.14381 0.0
N2481 N 0.09691 0.56978 0.15024 0.0
C2482 C 0.10676 0.59849 0.1518 0.0
C2483 C 0.09568 0.58537 0.15448 0.0
C2484 C 0.1192 0.59545 0.14475 0.0
C2485 C 0.12072 0.57898 0.14089 0.0
H2486 H 0.11053 0.55353 0.14088 0.0
H2487 H 0.08597 0.58772 0.15982 0.0
C2488 C 0.01703 0.54379 0.15143 0.0
N2489 N 0.03088 0.54511 0.14562 0.0
C2490 C 0.001 0.54894 0.14815 0.0
C2491 C 0.01383 0.55628 0.13291 0.0
C2492 C 0.02957 0.55113 0.13651 0.0
C2493 C -0.00071 0.55548 0.1388 0.0
H2494 H 0.01854 0.53915 0.1587 0.0
H2495 H 0.04084 0.55231 0.13209 0.0
C2496 C 0.10407 0.53873 0.16587 0.0
N2497 N 0.12781 0.55145 0.17867 0.0
C2498 C 0.12015 0.53116 0.16662 0.0
C2499 C 0.10008 0.5528 0.17162 0.0
C2500 C 0.13197 0.53777 0.17314 0.0
C2501 C 0.11225 0.55903 0.17805 0.0
C2502 C 0.05539 0.50171 0.16104 0.0
C2503 C 0.07047 0.49484 0.16474 0.0
C2504 C 0.04027 0.49235 0.16162 0.0
C2505 C 0.07016 0.47868 0.16896 0.0
C2506 C 0.04048 0.47623 0.1659 0.0
N2507 N 0.05529 0.46979 0.16945 0.0
C2508 C 0.05214 0.53374 0.18273 0.0
C2509 C 0.07969 0.52129 0.18317 0.0
C2510 C 0.04987 0.53049 0.19251 0.0
N2511 N 0.0669 0.52918 0.1783 0.0
C2512 C 0.07809 0.51808 0.19297 0.0
C2513 C 0.06303 0.52269 0.19773 0.0
H2514 H 0.04213 0.53983 0.17864 0.0
H2515 H 0.09111 0.51733 0.17946 0.0
C2516 C 0.1048 0.50468 0.14293 0.0
N2517 N 0.08773 0.50289 0.14412 0.0
C2518 C 0.11463 0.49084 0.14004 0.0
C2519 C 0.08895 0.47378 0.13912 0.0
C2520 C 0.07958 0.48804 0.14202 0.0
C2521 C 0.10678 0.475 0.13842 0.0
H2522 H 0.11084 0.51674 0.14456 0.0
H2523 H 0.06593 0.48705 0.14297 0.0
O2524 O 0.06072 0.55604 0.16072 0.0
O2525 O 0.07155 0.54109 0.1411 0.0
O2526 O 0.09245 0.53234 0.15949 0.0
O2527 O 0.05529 0.51746 0.15681 0.0
H2528 H 0.05994 0.57231 0.14397 0.0
H2529 H 0.04642 0.57552 0.17388 0.0
H2530 H 0.04735 0.60096 0.14145 0.0
H2531 H 0.03413 0.60422 0.17084 0.0
H2532 H 0.05126 0.50207 0.11984 0.0
H2533 H 0.09465 0.54565 0.12739 0.0
H2534 H 0.0497 0.51748 0.13538 0.0
H2535 H 0.09554 0.52962 0.11207 0.0
H2536 H 0.10519 0.61102 0.15496 0.0
H2537 H 0.13039 0.57603 0.13559 0.0
H2538 H 0.9902 0.54831 0.15298 0.0
H2539 H 0.0131 0.56101 0.12562 0.0
H2540 H 0.12343 0.52026 0.16222 0.0
H2541 H 0.08772 0.55884 0.17118 0.0
H2542 H 0.14445 0.53202 0.1738 0.0
H2543 H 0.10933 0.5699 0.18255 0.0
H2544 H 0.08233 0.50181 0.16431 0.0
H2545 H 0.02849 0.49749 0.15878 0.0
H2546 H 0.08174 0.4732 0.17183 0.0
H2547 H 0.02886 0.46884 0.1664 0.0
H2548 H 0.03809 0.53421 0.19599 0.0
H2549 H 0.08839 0.51179 0.19675 0.0
H2550 H 0.1283 0.49239 0.13936 0.0
H2551 H 0.08245 0.46178 0.13792 0.0
Li2552 Li 0.223 0.32598 0.89884 0.0
Li2553 Li 0.21305 0.3168 0.91397 0.0
Li2554 Li 0.20708 0.30023 0.89947 0.0
Li2555 Li 0.19327 0.32822 0.90213 0.0
C2556 C 0.24539 0.30552 0.90947 0.0
N2557 N 0.27756 0.3073 0.91751 0.0
C2558 C 0.25153 0.32099 0.91308 0.0
C2559 C 0.25562 0.29096 0.90996 0.0
C2560 C 0.26782 0.32163 0.91711 0.0
C2561 C 0.27184 0.29211 0.91405 0.0
C2562 C 0.20509 0.35134 0.9152 0.0
C2563 C 0.1848 0.35771 0.92771 0.0
N2564 N 0.19128 0.37376 0.92839 0.0
C2565 C 0.21153 0.3679 0.91601 0.0
C2566 C 0.19159 0.34619 0.92109 0.0
C2567 C 0.20439 0.37904 0.92273 0.0
C2568 C 0.23874 0.35499 0.89195 0.0
N2569 N 0.24111 0.33792 0.89283 0.0
C2570 C 0.2699 0.34034 0.88743 0.0
C2571 C 0.2561 0.33037 0.89038 0.0
C2572 C 0.26812 0.35815 0.88701 0.0
C2573 C 0.25213 0.36541 0.889 0.0
H2574 H 0.22659 0.36056 0.89386 0.0
H2575 H 0.25757 0.31672 0.89109 0.0
C2576 C 0.21492 0.30019 0.93189 0.0
N2577 N 0.21829 0.31505 0.92725 0.0
C2578 C 0.21914 0.29834 0.94158 0.0
C2579 C 0.23006 0.32718 0.94149 0.0
C2580 C 0.22584 0.32838 0.93181 0.0
C2581 C 0.22684 0.31198 0.94652 0.0
H2582 H 0.20912 0.28972 0.92802 0.0
H2583 H 0.22872 0.33996 0.92795 0.0
C2584 C 0.21126 0.32244 0.8816 0.0
N2585 N 0.22701 0.32941 0.86429 0.0
C2586 C 0.20589 0.33626 0.87604 0.0
C2587 C 0.22452 0.31206 0.87831 0.0
C2588 C 0.21404 0.33961 0.86732 0.0
C2589 C 0.23235 0.31582 0.86955 0.0
C2590 C 0.17593 0.29841 0.90933 0.0
C2591 C 0.16796 0.29653 0.90041 0.0
C2592 C 0.16845 0.29139 0.91753 0.0
C2593 C 0.15254 0.28766 0.89987 0.0
C2594 C 0.15301 0.28264 0.91668 0.0
N2595 N 0.14544 0.28097 0.90795 0.0
C2596 C 0.2041 0.26431 0.90043 0.0
C2597 C 0.19921 0.27643 0.88509 0.0
C2598 C 0.20029 0.24804 0.89692 0.0
N2599 N 0.20341 0.27806 0.8945 0.0
C2600 C 0.19554 0.26045 0.88126 0.0
C2601 C 0.1958 0.24597 0.88721 0.0
H2602 H 0.20724 0.26607 0.90793 0.0
H2603 H 0.1984 0.28759 0.88058 0.0
C2604 C 0.17628 0.3565 0.89499 0.0
N2605 N 0.17367 0.34213 0.90024 0.0
C2606 C 0.16264 0.36714 0.89266 0.0
C2607 C 0.14402 0.34856 0.90171 0.0
C2608 C 0.15804 0.33831 0.90388 0.0
C2609 C 0.14617 0.36299 0.89584 0.0
H2610 H 0.18898 0.35956 0.89251 0.0
H2611 H 0.15636 0.32728 0.90841 0.0
O2612 O 0.22949 0.30449 0.90546 0.0
O2613 O 0.21201 0.34039 0.90861 0.0
O2614 O 0.20362 0.31907 0.89023 0.0
O2615 O 0.19113 0.30685 0.91006 0.0
H2616 H 0.24387 0.33243 0.91273 0.0
H2617 H 0.25105 0.27888 0.9072 0.0
H2618 H 0.27273 0.33353 0.91991 0.0
H2619 H 0.2799 0.28093 0.91446 0.0
H2620 H 0.17437 0.35389 0.93232 0.0
H2621 H 0.22197 0.37209 0.9115 0.0
H2622 H 0.18642 0.33345 0.92059 0.0
H2623 H 0.20926 0.39189 0.92344 0.0
H2624 H 0.28202 0.33426 0.88596 0.0
H2625 H 0.25012 0.37905 0.88855 0.0
H2626 H 0.21664 0.28629 0.94511 0.0
H2627 H 0.2357 0.33815 0.94499 0.0
H2628 H 0.1955 0.34428 0.87838 0.0
H2629 H 0.22888 0.30134 0.88255 0.0
H2630 H 0.21005 0.35029 0.86295 0.0
H2631 H 0.24272 0.30797 0.86696 0.0
H2632 H 0.17357 0.30193 0.894 0.0
H2633 H 0.17452 0.29271 0.92447 0.0
H2634 H 0.1462 0.28612 0.89303 0.0
H2635 H 0.14704 0.27716 0.92297 0.0
H2636 H 0.2004 0.23732 0.90182 0.0
H2637 H 0.19242 0.2595 0.87371 0.0
H2638 H 0.1649 0.37814 0.88813 0.0
H2639 H 0.1316 0.34515 0.90452 0.0
Li2640 Li 0.42642 0.46064 0.66481 0.0
Li2641 Li 0.41802 0.47163 0.64976 0.0
Li2642 Li 0.4138 0.44203 0.65291 0.0
Li2643 Li 0.44252 0.4538 0.65039 0.0
C2644 C 0.39134 0.45515 0.66592 0.0
N2645 N 0.36773 0.44264 0.67885 0.0
C2646 C 0.37515 0.46251 0.66654 0.0
C2647 C 0.39551 0.4414 0.67186 0.0
C2648 C 0.36339 0.45601 0.67313 0.0
C2649 C 0.3834 0.43527 0.67836 0.0
C2650 C 0.4398 0.4923 0.66054 0.0
C2651 C 0.45481 0.51782 0.66523 0.0
N2652 N 0.44 0.52444 0.66868 0.0
C2653 C 0.42473 0.49935 0.66414 0.0
C2654 C 0.45497 0.50159 0.66109 0.0
C2655 C 0.42509 0.51562 0.66822 0.0
C2656 C 0.44308 0.46124 0.68274 0.0
N2657 N 0.42843 0.46554 0.67813 0.0
C2658 C 0.41673 0.47713 0.69255 0.0
C2659 C 0.41547 0.47358 0.68279 0.0
C2660 C 0.43164 0.47274 0.69751 0.0
C2661 C 0.44504 0.46488 0.69251 0.0
H2662 H 0.45325 0.45504 0.67882 0.0
H2663 H 0.40415 0.47736 0.67893 0.0
C2664 C 0.39025 0.48894 0.64271 0.0
N2665 N 0.40738 0.49045 0.64373 0.0
C2666 C 0.38063 0.50279 0.63963 0.0
C2667 C 0.4066 0.51926 0.63818 0.0
C2668 C 0.41576 0.50502 0.64129 0.0
C2669 C 0.38875 0.51835 0.63761 0.0
H2670 H 0.38402 0.4771 0.64461 0.0
H2671 H 0.42945 0.50579 0.64212 0.0
C2672 C 0.44159 0.42208 0.65935 0.0
N2673 N 0.4554 0.39007 0.65647 0.0
C2674 C 0.44132 0.4147 0.65021 0.0
C2675 C 0.4489 0.4132 0.66701 0.0
C2676 C 0.44837 0.3985 0.6489 0.0
C2677 C 0.4558 0.39702 0.66541 0.0
C2678 C 0.42248 0.46017 0.6324 0.0
C2679 C 0.40916 0.45638 0.62609 0.0
C2680 C 0.43464 0.47238 0.62983 0.0
C2681 C 0.40815 0.465 0.61733 0.0
C2682 C 0.43319 0.48072 0.62101 0.0
N2683 N 0.42008 0.4769 0.61499 0.0
C2684 C 0.3854 0.42704 0.64475 0.0
C2685 C 0.39985 0.40826 0.65531 0.0
C2686 C 0.37356 0.41441 0.64248 0.0
N2687 N 0.39846 0.42363 0.65085 0.0
C2688 C 0.38822 0.39525 0.65328 0.0
C2689 C 0.37505 0.39819 0.64665 0.0
H2690 H 0.38421 0.43962 0.64166 0.0
H2691 H 0.40998 0.40603 0.66041 0.0
C2692 C 0.47844 0.45117 0.65091 0.0
N2693 N 0.46438 0.44896 0.64535 0.0
C2694 C 0.49459 0.44718 0.64729 0.0
C2695 C 0.48139 0.43898 0.6323 0.0
C2696 C 0.46554 0.44292 0.63623 0.0
C2697 C 0.49622 0.44095 0.63786 0.0
H2698 H 0.47707 0.45584 0.65818 0.0
H2699 H 0.45413 0.44106 0.63202 0.0
O2700 O 0.40289 0.4614 0.65944 0.0
O2701 O 0.43986 0.47641 0.65646 0.0
O2702 O 0.43489 0.43796 0.66085 0.0
O2703 O 0.42358 0.45209 0.64109 0.0
H2704 H 0.37172 0.47315 0.66198 0.0
H2705 H 0.40796 0.43553 0.67151 0.0
H2706 H 0.35082 0.4616 0.67369 0.0
H2707 H 0.38646 0.42466 0.68301 0.0
H2708 H 0.46646 0.52516 0.6657 0.0
H2709 H 0.41284 0.49242 0.66374 0.0
H2710 H 0.46675 0.4963 0.65833 0.0
H2711 H 0.4135 0.52123 0.67102 0.0
H2712 H 0.40627 0.48344 0.69618 0.0
H2713 H 0.45673 0.46137 0.69615 0.0
H2714 H 0.36691 0.50148 0.63908 0.0
H2715 H 0.41331 0.53104 0.63668 0.0
H2716 H 0.43567 0.42133 0.6442 0.0
H2717 H 0.44922 0.41878 0.67413 0.0
H2718 H 0.44823 0.39262 0.64188 0.0
H2719 H 0.46148 0.39 0.67128 0.0
H2720 H 0.39974 0.44685 0.62789 0.0
H2721 H 0.44498 0.47555 0.63467 0.0
H2722 H 0.39789 0.46221 0.61238 0.0
H2723 H 0.44246 0.49027 0.61896 0.0
H2724 H 0.36335 0.4173 0.6375 0.0
H2725 H 0.38979 0.38291 0.65667 0.0
H2726 H 0.50561 0.44866 0.6519 0.0
H2727 H 0.48197 0.43449 0.62496 0.0
Li2728 Li 0.27354 0.67148 0.3999 0.0
Li2729 Li 0.28514 0.67812 0.41586 0.0
Li2730 Li 0.29279 0.69557 0.4012 0.0
Li2731 Li 0.30317 0.66574 0.40345 0.0
C2732 C 0.25314 0.69503 0.40734 0.0
N2733 N 0.21809 0.6984 0.40652 0.0
C2734 C 0.24297 0.68889 0.41483 0.0
C2735 C 0.24548 0.70303 0.39948 0.0
C2736 C 0.22528 0.69069 0.41427 0.0
C2737 C 0.22774 0.70456 0.39918 0.0
C2738 C 0.28623 0.63856 0.40978 0.0
C2739 C 0.30116 0.61443 0.41648 0.0
N2740 N 0.29404 0.60416 0.40971 0.0
C2741 C 0.27904 0.62775 0.40289 0.0
C2742 C 0.29734 0.63183 0.41665 0.0
C2743 C 0.28314 0.61041 0.40298 0.0
C2744 C 0.24957 0.66398 0.38457 0.0
N2745 N 0.25328 0.66287 0.39409 0.0
C2746 C 0.22785 0.64692 0.39699 0.0
C2747 C 0.24265 0.65476 0.4003 0.0
C2748 C 0.22398 0.64735 0.38716 0.0
C2749 C 0.23489 0.65626 0.38093 0.0
H2750 H 0.25808 0.67046 0.37973 0.0
H2751 H 0.24599 0.65394 0.40782 0.0
C2752 C 0.27915 0.69485 0.43339 0.0
N2753 N 0.2803 0.67935 0.42909 0.0
C2754 C 0.27434 0.69605 0.44302 0.0
C2755 C 0.27242 0.66527 0.4436 0.0
C2756 C 0.27709 0.6647 0.43396 0.0
C2757 C 0.27076 0.68111 0.44825 0.0
H2758 H 0.2816 0.70629 0.42927 0.0
H2759 H 0.2779 0.65257 0.43031 0.0
C2760 C 0.29139 0.67971 0.38222 0.0
N2761 N 0.28732 0.68622 0.36285 0.0
C2762 C 0.29802 0.66843 0.3754 0.0
C2763 C 0.28281 0.69438 0.37918 0.0
C2764 C 0.29578 0.67192 0.36565 0.0
C2765 C 0.28086 0.69743 0.36936 0.0
C2766 C 0.32078 0.68808 0.41786 0.0
C2767 C 0.33263 0.70123 0.41668 0.0
C2768 C 0.32236 0.67689 0.42562 0.0
C2769 C 0.34598 0.70287 0.42326 0.0
C2770 C 0.33586 0.67897 0.43205 0.0
N2771 N 0.34731 0.6918 0.43074 0.0
C2772 C 0.28745 0.73064 0.39817 0.0
C2773 C 0.31369 0.71983 0.39226 0.0
C2774 C 0.29131 0.74688 0.3947 0.0
N2775 N 0.29858 0.71757 0.39685 0.0
C2776 C 0.31815 0.73589 0.38876 0.0
C2777 C 0.30684 0.74963 0.38993 0.0
H2778 H 0.27553 0.7284 0.40187 0.0
H2779 H 0.32221 0.70911 0.39129 0.0
C2780 C 0.31857 0.63779 0.3944 0.0
N2781 N 0.32163 0.65054 0.40079 0.0
C2782 C 0.33133 0.62612 0.39207 0.0
C2783 C 0.35042 0.64119 0.40272 0.0
C2784 C 0.3372 0.65245 0.40492 0.0
C2785 C 0.34759 0.62778 0.3962 0.0
H2786 H 0.30616 0.6367 0.39108 0.0
H2787 H 0.33955 0.66283 0.40981 0.0
O2788 O 0.27046 0.69303 0.40766 0.0
O2789 O 0.28249 0.65563 0.40977 0.0
O2790 O 0.29378 0.67662 0.3918 0.0
O2791 O 0.30774 0.68624 0.41143 0.0
H2792 H 0.24864 0.68259 0.42095 0.0
H2793 H 0.25312 0.70791 0.39363 0.0
H2794 H 0.21726 0.68589 0.41999 0.0
H2795 H 0.22165 0.71063 0.39311 0.0
H2796 H 0.30981 0.60909 0.42173 0.0
H2797 H 0.2706 0.63269 0.39743 0.0
H2798 H 0.30309 0.63995 0.42202 0.0
H2799 H 0.27774 0.60193 0.39766 0.0
H2800 H 0.21995 0.63994 0.40201 0.0
H2801 H 0.23229 0.65696 0.37331 0.0
H2802 H 0.273 0.70854 0.44625 0.0
H2803 H 0.27008 0.65341 0.44736 0.0
H2804 H 0.30485 0.65712 0.37761 0.0
H2805 H 0.27757 0.70323 0.38432 0.0
H2806 H 0.30081 0.66327 0.3603 0.0
H2807 H 0.27419 0.7087 0.36692 0.0
H2808 H 0.33157 0.71001 0.41072 0.0
H2809 H 0.3133 0.66668 0.42664 0.0
H2810 H 0.35529 0.71294 0.42241 0.0
H2811 H 0.33725 0.67038 0.43807 0.0
H2812 H 0.28235 0.7572 0.39582 0.0
H2813 H 0.33017 0.73749 0.38503 0.0
H2814 H 0.32847 0.61593 0.38707 0.0
H2815 H 0.36283 0.64327 0.40591 0.0
C2816 C 0.43191 -0.00101 0.28464 0.0
C2817 C 0.42583 0.98264 0.28696 0.0
C2818 C 0.4319 0.00463 0.27513 0.0
C2819 C 0.41086 -0.00202 0.25203 0.0
H2820 H 0.45143 0.01872 0.24118 0.0
C2821 C 0.41715 0.01039 0.21157 0.0
C2822 C 0.42554 0.02524 0.20852 0.0
C2823 C 0.41715 0.00576 0.22123 0.0
C2824 C 0.4399 0.01321 0.24413 0.0
H2825 H 0.41486 0.95941 0.28121 0.0
H2826 H 0.41477 0.96931 0.26455 0.0
H2827 H 0.45143 0.00958 0.25793 0.0
H2828 H 0.44047 0.04698 0.21314 0.0
H2829 H 0.44017 0.03914 0.23014 0.0
H2830 H 0.39918 0.0018 0.23835 0.0
C2831 C 0.41953 0.97774 0.2701 0.0
C2832 C 0.43994 0.00792 0.25371 0.0
C2833 C 0.41972 0.97203 0.2796 0.0
C2834 C 0.43399 0.0354 0.21532 0.0
C2835 C 0.43386 0.03087 0.22503 0.0
C2836 C 0.41075 0.00342 0.24249 0.0
C2837 C 0.42564 0.99408 0.26778 0.0
C2838 C 0.42548 0.00011 0.25771 0.0
C2839 C 0.42542 0.01598 0.2281 0.0
C2840 C 0.42533 0.01094 0.23839 0.0
H2841 H 0.43682 0.00738 0.29017 0.0
H2842 H 0.43658 0.01732 0.27354 0.0
H2843 H 0.39945 0.99224 0.25499 0.0
H2844 H 0.4108 0.00216 0.20644 0.0
H2845 H 0.41088 0.99401 0.22329 0.0
C2846 C 0.26263 0.16247 0.53225 0.0
C2847 C 0.26683 0.17793 0.53678 0.0
C2848 C 0.25774 0.16221 0.52262 0.0
C2849 C 0.25944 0.18745 0.50022 0.0
H2850 H 0.22193 0.15818 0.49259 0.0
C2851 C 0.22939 0.19068 0.46246 0.0
C2852 C 0.22604 0.17502 0.45792 0.0
C2853 C 0.23401 0.19119 0.47215 0.0
C2854 C 0.23252 0.1663 0.49459 0.0
H2855 H 0.26916 0.20525 0.53476 0.0
H2856 H 0.26052 0.20483 0.51793 0.0
H2857 H 0.231 0.15876 0.50933 0.0
H2858 H 0.2245 0.14766 0.46004 0.0
H2859 H 0.23274 0.14854 0.47693 0.0
H2860 H 0.26092 0.19501 0.48548 0.0
C2861 C 0.26127 0.19287 0.52179 0.0
C2862 C 0.23774 0.16662 0.50418 0.0
C2863 C 0.26621 0.19312 0.53143 0.0
C2864 C 0.22715 0.15991 0.46332 0.0
C2865 C 0.23171 0.16043 0.47301 0.0
C2866 C 0.25419 0.18716 0.49064 0.0
C2867 C 0.25688 0.17742 0.51729 0.0
C2868 C 0.25129 0.17716 0.5071 0.0
C2869 C 0.23532 0.17606 0.47751 0.0
C2870 C 0.2407 0.17656 0.48772 0.0
H2871 H 0.26325 0.15053 0.53615 0.0
H2872 H 0.25476 0.15006 0.51932 0.0
H2873 H 0.27008 0.19552 0.50221 0.0
H2874 H 0.22881 0.20253 0.45848 0.0
H2875 H 0.23654 0.20345 0.47544 0.0
C2876 C 0.07065 -0.00055 0.78447 0.0
C2877 C 0.07092 0.01674 0.78713 0.0
C2878 C 0.07127 0.99473 0.77482 0.0
C2879 C 0.08401 0.01045 0.75095 0.0
H2880 H 0.05483 0.97399 0.74175 0.0
C2881 C 0.07511 0.99563 0.71069 0.0
C2882 C 0.0745 0.97838 0.70793 0.0
C2883 C 0.07522 0.00015 0.72038 0.0
C2884 C 0.06321 0.98405 0.74423 0.0
H2885 H 0.0721 0.04266 0.78174 0.0
H2886 H 0.07294 0.03442 0.76483 0.0
H2887 H 0.05368 0.98236 0.75859 0.0
H2888 H 0.07391 0.95236 0.71321 0.0
H2889 H 0.07404 0.96028 0.73016 0.0
H2890 H 0.09349 0.01218 0.73657 0.0
C2891 C 0.07241 0.02451 0.77024 0.0
C2892 C 0.06254 0.98886 0.75388 0.0
C2893 C 0.07174 0.02924 0.77991 0.0
C2894 C 0.07414 0.96576 0.7151 0.0
C2895 C 0.07422 0.97029 0.7248 0.0
C2896 C 0.08467 0.00565 0.7413 0.0
C2897 C 0.07219 0.0072 0.76759 0.0
C2898 C 0.07291 0.00213 0.75734 0.0
C2899 C 0.07468 0.98754 0.72754 0.0
C2900 C 0.07426 0.99242 0.73783 0.0
H2901 H 0.06981 0.98952 0.78986 0.0
H2902 H 0.07124 0.98129 0.77302 0.0
H2903 H 0.09235 0.02054 0.75343 0.0
H2904 H 0.07511 0.00567 0.70535 0.0
H2905 H 0.07532 0.01356 0.72227 0.0
C2906 C 0.26993 0.83354 0.96306 0.0
C2907 C 0.26979 0.81822 0.95782 0.0
C2908 C 0.26534 0.83372 0.97275 0.0
C2909 C 0.26029 0.80614 0.99403 0.0
H2910 H 0.23001 0.84204 0.00277 0.0
C2911 C 0.22846 0.80459 0.03136 0.0
C2912 C 0.22801 0.81999 0.03652 0.0
C2913 C 0.23352 0.80438 0.02174 0.0
C2914 C 0.23862 0.83204 0.00047 0.0
H2915 H 0.26483 0.79103 0.95868 0.0
H2916 H 0.25692 0.79134 0.9756 0.0
H2917 H 0.23952 0.84167 0.98611 0.0
H2918 H 0.23213 0.8473 0.03557 0.0
H2919 H 0.24121 0.84689 0.01883 0.0
H2920 H 0.25939 0.79651 0.00839 0.0
C2921 C 0.26075 0.80319 0.97224 0.0
C2922 C 0.24408 0.83184 0.99093 0.0
C2923 C 0.26531 0.80301 0.96254 0.0
C2924 C 0.23251 0.8352 0.03182 0.0
C2925 C 0.23754 0.83499 0.0222 0.0
C2926 C 0.25485 0.80635 0.00358 0.0
C2927 C 0.26054 0.81857 0.97742 0.0
C2928 C 0.25496 0.81888 0.9876 0.0
C2929 C 0.23821 0.81956 0.01707 0.0
C2930 C 0.24393 0.8193 0.00691 0.0
H2931 H 0.27359 0.84543 0.95967 0.0
H2932 H 0.26559 0.84573 0.9766 0.0
H2933 H 0.26885 0.79611 0.9917 0.0
H2934 H 0.22524 0.79263 0.0348 0.0
H2935 H 0.2337 0.79231 0.01795 0.0
C2936 C 0.57519 0.97098 0.78065 0.0
C2937 C 0.56315 0.97835 0.78684 0.0
C2938 C 0.57513 0.9749 0.77088 0.0
C2939 C 0.54845 0.99446 0.75169 0.0
H2940 H 0.59195 -0.00229 0.7386 0.0
C2941 C 0.55275 0.00436 0.71072 0.0
C2942 C 0.56626 0.01421 0.70715 0.0
C2943 C 0.55221 -0.00017 0.72042 0.0
C2944 C 0.57968 0.99709 0.74215 0.0
H2945 H 0.54168 0.99561 0.78776 0.0
H2946 H 0.54189 0.003 0.77075 0.0
H2947 H 0.59123 0.99056 0.75553 0.0
H2948 H 0.58957 0.02746 0.71084 0.0
H2949 H 0.58833 0.02024 0.72786 0.0
H2950 H 0.53697 0.00187 0.73843 0.0
C2951 C 0.55108 0.99378 0.77334 0.0
C2952 C 0.57925 0.99267 0.75186 0.0
C2953 C 0.55098 0.98963 0.78309 0.0
C2954 C 0.5791 0.0197 0.71344 0.0
C2955 C 0.57842 0.01545 0.72317 0.0
C2956 C 0.5489 -0.00086 0.74202 0.0
C2957 C 0.56321 0.98652 0.7671 0.0
C2958 C 0.56363 0.99123 0.75675 0.0
C2959 C 0.56504 0.00534 0.72678 0.0
C2960 C 0.56453 0.00047 0.73711 0.0
H2961 H 0.5846 0.96209 0.78338 0.0
H2962 H 0.58442 0.96874 0.76629 0.0
H2963 H 0.53616 0.99327 0.75517 0.0
H2964 H 0.5428 -0.00017 0.70596 0.0
H2965 H 0.54188 0.99177 0.72287 0.0
C2966 C 0.72032 0.82493 0.46497 0.0
C2967 C 0.72719 0.81301 0.45854 0.0
C2968 C 0.72444 0.82426 0.4747 0.0
C2969 C 0.74372 0.79628 0.4934 0.0
H2970 H 0.74882 0.83927 0.5069 0.0
C2971 C 0.77372 0.80369 0.53135 0.0
C2972 C 0.7641 0.81339 0.53791 0.0
C2973 C 0.76902 0.80287 0.52168 0.0
C2974 C 0.74734 0.82718 0.50321 0.0
H2975 H 0.74369 0.79102 0.45714 0.0
H2976 H 0.75145 0.79014 0.47412 0.0
H2977 H 0.74121 0.83933 0.48996 0.0
H2978 H 0.74158 0.82933 0.53942 0.0
H2979 H 0.73384 0.82836 0.5225 0.0
H2980 H 0.75046 0.78427 0.50671 0.0
C2981 C 0.74249 0.79975 0.47173 0.0
C2982 C 0.74288 0.82717 0.49352 0.0
C2983 C 0.73813 0.80026 0.46201 0.0
C2984 C 0.74956 0.82208 0.53456 0.0
C2985 C 0.74504 0.82146 0.52489 0.0
C2986 C 0.74846 0.79632 0.50307 0.0
C2987 C 0.7358 0.81182 0.4782 0.0
C2988 C 0.74085 0.81173 0.4885 0.0
C2989 C 0.75475 0.81192 0.51836 0.0
C2990 C 0.75016 0.81177 0.50807 0.0
H2991 H 0.71169 0.83476 0.46246 0.0
H2992 H 0.71868 0.83351 0.47948 0.0
H2993 H 0.74205 0.78414 0.48982 0.0
H2994 H 0.7851 0.79701 0.53363 0.0
H2995 H 0.77678 0.79552 0.51675 0.0
C2996 C 0.92434 -0.00228 0.2852 0.0
C2997 C 0.93124 0.01327 0.2884 0.0
C2998 C 0.92521 0.99312 0.27553 0.0
C2999 C 0.93213 0.01159 0.25129 0.0
H3000 H 0.93718 0.96409 0.24402 0.0
C3001 C 0.9428 0.98944 0.21213 0.0
C3002 C 0.93143 0.9768 0.20895 0.0
C3003 C 0.94368 0.99366 0.22186 0.0
C3004 C 0.93572 0.97739 0.24597 0.0
H3005 H 0.94463 0.03612 0.28386 0.0
H3006 H 0.94688 0.02775 0.2671 0.0
H3007 H 0.93749 0.97196 0.26097 0.0
H3008 H 0.91242 0.95836 0.21339 0.0
H3009 H 0.91422 0.96553 0.23048 0.0
H3010 H 0.93072 0.01695 0.23622 0.0
C3011 C 0.94038 0.01927 0.27203 0.0
C3012 C 0.9358 0.98192 0.25567 0.0
C3013 C 0.93932 0.02397 0.28169 0.0
C3014 C 0.92123 0.9682 0.21568 0.0
C3015 C 0.92233 0.97222 0.22543 0.0
C3016 C 0.93231 0.00707 0.24159 0.0
C3017 C 0.93322 0.00385 0.26881 0.0
C3018 C 0.93384 -0.00093 0.25846 0.0
C3019 C 0.93343 0.98512 0.22859 0.0
C3020 C 0.93396 0.98992 0.23885 0.0
H3021 H 0.91827 0.98899 0.29017 0.0
H3022 H 0.91935 0.98125 0.27332 0.0
H3023 H 0.93027 0.02487 0.25314 0.0
H3024 H 0.9507 0.99631 0.20706 0.0
H3025 H 0.95239 0.0036 0.22414 0.0
C3026 C 0.75704 0.19911 0.96173 0.0
C3027 C 0.76791 0.18614 0.95847 0.0
C3028 C 0.75186 0.19956 0.97134 0.0
C3029 C 0.74927 0.17158 0.99293 0.0
H3030 H 0.74128 0.21424 0.00631 0.0
C3031 C 0.74282 0.17657 0.03394 0.0
C3032 C 0.72767 0.18412 0.03731 0.0
C3033 C 0.74727 0.17752 0.02426 0.0
C3034 C 0.74338 0.20226 0.00261 0.0
H3035 H 0.7825 0.16393 0.96263 0.0
H3036 H 0.77424 0.1651 0.97946 0.0
H3037 H 0.75058 0.21469 0.98955 0.0
H3038 H 0.70553 0.19896 0.03305 0.0
H3039 H 0.71379 0.20117 0.01616 0.0
H3040 H 0.74271 0.15925 0.00615 0.0
C3041 C 0.76907 0.17457 0.97461 0.0
C3042 C 0.74862 0.20248 0.99301 0.0
C3043 C 0.77397 0.17395 0.96499 0.0
C3044 C 0.71738 0.19315 0.03077 0.0
C3045 C 0.72203 0.19437 0.02109 0.0
C3046 C 0.74435 0.1714 0.00255 0.0
C3047 C 0.75769 0.18717 0.97789 0.0
C3048 C 0.75175 0.18712 0.98806 0.0
C3049 C 0.73688 0.18634 0.01776 0.0
C3050 C 0.74145 0.18672 0.00748 0.0
H3051 H 0.75211 0.20856 0.95678 0.0
H3052 H 0.74293 0.20933 0.97355 0.0
H3053 H 0.75105 0.15948 0.98932 0.0
H3054 H 0.75135 0.16993 0.03878 0.0
H3055 H 0.75891 0.17143 0.02186 0.0
C3056 C 0.94115 0.51445 0.71293 0.0
C3057 C 0.92631 0.52091 0.70859 0.0
C3058 C 0.94114 0.50975 0.7226 0.0
C3059 C 0.91695 0.51482 0.74532 0.0
H3060 H 0.94121 0.47368 0.75258 0.0
C3061 C 0.90958 0.4835 0.78257 0.0
C3062 C 0.92476 0.47865 0.78721 0.0
C3063 C 0.90977 0.48855 0.77296 0.0
C3064 C 0.93449 0.48526 0.75067 0.0
H3065 H 0.89993 0.52793 0.71114 0.0
H3066 H 0.89974 0.51919 0.7279 0.0
H3067 H 0.94162 0.48309 0.7359 0.0
H3068 H 0.95202 0.47527 0.78533 0.0
H3069 H 0.95226 0.4838 0.76849 0.0
H3070 H 0.90963 0.51678 0.76009 0.0
C3071 C 0.91148 0.51798 0.72386 0.0
C3072 C 0.93477 0.49071 0.74112 0.0
C3073 C 0.91153 0.5228 0.71421 0.0
C3074 C 0.94006 0.47866 0.78194 0.0
C3075 C 0.94022 0.4836 0.77231 0.0
C3076 C 0.91658 0.50929 0.75485 0.0
C3077 C 0.92625 0.51127 0.72816 0.0
C3078 C 0.92603 0.50557 0.73833 0.0
C3079 C 0.9251 0.48873 0.76775 0.0
C3080 C 0.92536 0.49448 0.75762 0.0
H3081 H 0.95272 0.51263 0.70881 0.0
H3082 H 0.95281 0.50488 0.72571 0.0
H3083 H 0.91031 0.52646 0.74345 0.0
H3084 H 0.89752 0.48335 0.78636 0.0
H3085 H 0.89788 0.49219 0.76957 0.0
C3086 C 0.77241 0.68486 0.03093 0.0
C3087 C 0.76468 0.67353 0.03742 0.0
C3088 C 0.76756 0.685 0.02128 0.0
C3089 C 0.73231 0.67211 0.00516 0.0
H3090 H 0.76618 0.67867 0.98522 0.0
C3091 C 0.71768 0.66341 0.96476 0.0
C3092 C 0.72468 0.67549 0.95842 0.0
C3093 C 0.72225 0.6634 0.97446 0.0
C3094 C 0.75655 0.67701 0.99071 0.0
H3095 H 0.74621 0.65312 0.03886 0.0
H3096 H 0.73793 0.65315 0.02198 0.0
H3097 H 0.77507 0.67781 0.00197 0.0
H3098 H 0.74191 0.69704 0.9573 0.0
H3099 H 0.74971 0.69714 0.97425 0.0
H3100 H 0.71383 0.67115 0.99386 0.0
C3101 C 0.74743 0.66222 0.02438 0.0
C3102 C 0.76164 0.67652 0.00032 0.0
C3103 C 0.7522 0.66216 0.03404 0.0
C3104 C 0.73617 0.68768 0.96202 0.0
C3105 C 0.74079 0.68761 0.9717 0.0
C3106 C 0.72724 0.67252 0.99555 0.0
C3107 C 0.75496 0.67373 0.01789 0.0
C3108 C 0.74957 0.67409 0.00766 0.0
C3109 C 0.73397 0.6754 0.97801 0.0
C3110 C 0.7393 0.67501 0.98823 0.0
H3111 H 0.78191 0.69391 0.03337 0.0
H3112 H 0.77344 0.69421 0.01652 0.0
H3113 H 0.72264 0.67051 0.01065 0.0
H3114 H 0.70868 0.65396 0.96222 0.0
H3115 H 0.71686 0.65376 0.97913 0.0
C3116 C 0.57325 0.49825 0.28457 0.0
C3117 C 0.57271 0.5155 0.28732 0.0
C3118 C 0.57376 0.49371 0.27489 0.0
C3119 C 0.58406 0.51056 0.25081 0.0
H3120 H 0.55626 0.47273 0.24203 0.0
C3121 C 0.5728 0.49618 0.21067 0.0
C3122 C 0.57321 0.47899 0.20779 0.0
C3123 C 0.57326 0.5005 0.2204 0.0
C3124 C 0.56424 0.48319 0.24439 0.0
H3125 H 0.57253 0.54152 0.28203 0.0
H3126 H 0.57309 0.53359 0.2651 0.0
H3127 H 0.55602 0.4806 0.25896 0.0
H3128 H 0.57479 0.45289 0.21288 0.0
H3129 H 0.5755 0.46045 0.22987 0.0
H3130 H 0.59217 0.51321 0.23621 0.0
C3131 C 0.57329 0.52357 0.27045 0.0
C3132 C 0.56411 0.48771 0.25409 0.0
C3133 C 0.57277 0.52811 0.28015 0.0
C3134 C 0.57418 0.46623 0.21486 0.0
C3135 C 0.57461 0.47056 0.22459 0.0
C3136 C 0.58416 0.50607 0.2411 0.0
C3137 C 0.57374 0.50631 0.26771 0.0
C3138 C 0.574 0.50145 0.25741 0.0
C3139 C 0.57411 0.48774 0.22746 0.0
C3140 C 0.57423 0.49235 0.23779 0.0
H3141 H 0.57301 0.48821 0.28991 0.0
H3142 H 0.57428 0.48031 0.27302 0.0
H3143 H 0.59202 0.52105 0.25316 0.0
H3144 H 0.57176 0.50631 0.20542 0.0
H3145 H 0.5726 0.51384 0.22239 0.0
C3146 C 0.72946 0.33276 0.5323 0.0
C3147 C 0.72538 0.31748 0.53706 0.0
C3148 C 0.73413 0.33263 0.52263 0.0
C3149 C 0.7315 0.30701 0.50051 0.0
H3150 H 0.77005 0.3346 0.49254 0.0
C3151 C 0.76049 0.30235 0.46248 0.0
C3152 C 0.76485 0.31779 0.45798 0.0
C3153 C 0.7559 0.30206 0.47218 0.0
C3154 C 0.75916 0.32696 0.49463 0.0
H3155 H 0.72295 0.29008 0.53536 0.0
H3156 H 0.73099 0.28988 0.51844 0.0
H3157 H 0.7612 0.33468 0.50932 0.0
H3158 H 0.76818 0.34498 0.46018 0.0
H3159 H 0.75989 0.34453 0.47704 0.0
H3160 H 0.7294 0.29936 0.4858 0.0
C3161 C 0.73042 0.30198 0.52219 0.0
C3162 C 0.75408 0.32701 0.50424 0.0
C3163 C 0.72579 0.3021 0.53188 0.0
C3164 C 0.76471 0.3329 0.46341 0.0
C3165 C 0.76014 0.33261 0.4731 0.0
C3166 C 0.73656 0.30698 0.49089 0.0
C3167 C 0.73477 0.31723 0.51749 0.0
C3168 C 0.74018 0.31708 0.50728 0.0
C3169 C 0.75561 0.3172 0.47758 0.0
C3170 C 0.75042 0.31699 0.48784 0.0
H3171 H 0.72897 0.34486 0.53605 0.0
H3172 H 0.73712 0.34463 0.51916 0.0
H3173 H 0.72061 0.29939 0.50261 0.0
H3174 H 0.76032 0.29051 0.45847 0.0
H3175 H 0.75265 0.28996 0.47545 0.0
C3176 C 0.04908 0.4752 0.28133 0.0
C3177 C 0.06081 0.48323 0.28748 0.0
C3178 C 0.04771 0.48018 0.27172 0.0
C3179 C 0.05957 0.51514 0.25485 0.0
H3180 H 0.05282 0.48017 0.23552 0.0
C3181 C 0.07392 0.52441 0.21454 0.0
C3182 C 0.06115 0.51924 0.2081 0.0
C3183 C 0.07248 0.52072 0.22431 0.0
C3184 C 0.05453 0.49007 0.24086 0.0
H3185 H 0.07995 0.50319 0.28837 0.0
H3186 H 0.07817 0.51125 0.27159 0.0
H3187 H 0.05307 0.47229 0.25246 0.0
H3188 H 0.03694 0.50617 0.20673 0.0
H3189 H 0.03458 0.49937 0.22388 0.0
H3190 H 0.06176 0.53275 0.24314 0.0
C3191 C 0.06975 0.50133 0.2742 0.0
C3192 C 0.05461 0.4856 0.25057 0.0
C3193 C 0.07098 0.49649 0.28381 0.0
C3194 C 0.04688 0.51037 0.21159 0.0
C3195 C 0.04558 0.50641 0.22135 0.0
C3196 C 0.05975 0.51954 0.24514 0.0
C3197 C 0.05814 0.49321 0.26801 0.0
C3198 C 0.05725 0.49807 0.25769 0.0
C3199 C 0.05838 0.51155 0.22778 0.0
C3200 C 0.05733 0.50703 0.23806 0.0
H3201 H 0.04115 0.46484 0.28387 0.0
H3202 H 0.03844 0.47379 0.26722 0.0
H3203 H 0.06127 0.52515 0.26012 0.0
H3204 H 0.08501 0.53132 0.21201 0.0
H3205 H 0.08256 0.5247 0.22913 0.0
C3206 C 0.25223 0.30027 0.03339 0.0
C3207 C 0.26347 0.31277 0.03684 0.0
C3208 C 0.24811 0.29961 0.02363 0.0
C3209 C 0.24963 0.32594 0.00141 0.0
H3210 H 0.24203 0.28246 0.9888 0.0
C3211 C 0.24621 0.31861 0.96038 0.0
C3212 C 0.23146 0.31052 0.95684 0.0
C3213 C 0.25003 0.31824 0.97016 0.0
C3214 C 0.24404 0.29467 0.99227 0.0
H3215 H 0.2796 0.33405 0.03289 0.0
H3216 H 0.27301 0.33255 0.01583 0.0
H3217 H 0.24917 0.28312 0.00587 0.0
H3218 H 0.20944 0.29531 0.96086 0.0
H3219 H 0.21655 0.29419 0.97793 0.0
H3220 H 0.24504 0.33737 0.98769 0.0
C3221 C 0.26685 0.3236 0.02063 0.0
C3222 C 0.24804 0.29509 0.00205 0.0
C3223 C 0.27073 0.32442 0.03039 0.0
C3224 C 0.22099 0.30151 0.9633 0.0
C3225 C 0.22499 0.30092 0.97307 0.0
C3226 C 0.24592 0.32548 0.99162 0.0
C3227 C 0.25536 0.31129 0.01713 0.0
C3228 C 0.25092 0.31074 0.00674 0.0
C3229 C 0.23939 0.30952 0.97659 0.0
C3230 C 0.24312 0.30985 0.98697 0.0
H3231 H 0.24636 0.29125 0.03827 0.0
H3232 H 0.239 0.29014 0.02124 0.0
H3233 H 0.25133 0.33825 0.0048 0.0
H3234 H 0.25483 0.32528 0.95561 0.0
H3235 H 0.26135 0.32475 0.9727 0.0
C3236 C 0.42403 0.49857 0.78384 0.0
C3237 C 0.43256 0.51318 0.78723 0.0
C3238 C 0.42463 0.49418 0.77414 0.0
C3239 C 0.44969 0.49724 0.75248 0.0
H3240 H 0.40671 0.492 0.73905 0.0
C3241 C 0.44635 0.48652 0.7114 0.0
C3242 C 0.43302 0.47641 0.70786 0.0
C3243 C 0.44686 0.49098 0.72112 0.0
C3244 C 0.41885 0.49309 0.7427 0.0
H3245 H 0.44862 0.53448 0.78299 0.0
H3246 H 0.45019 0.5263 0.76608 0.0
H3247 H 0.40675 0.49952 0.75601 0.0
H3248 H 0.41019 0.46241 0.71159 0.0
H3249 H 0.41145 0.4694 0.72862 0.0
H3250 H 0.46187 0.49022 0.73932 0.0
C3251 C 0.44295 0.51842 0.771 0.0
C3252 C 0.41882 0.49752 0.7524 0.0
C3253 C 0.4421 0.52301 0.78069 0.0
C3254 C 0.4205 0.47038 0.71419 0.0
C3255 C 0.42117 0.47453 0.72391 0.0
C3256 C 0.44973 0.49247 0.7428 0.0
C3257 C 0.43405 0.50409 0.76765 0.0
C3258 C 0.43423 0.49961 0.75736 0.0
C3259 C 0.43419 0.48514 0.7275 0.0
C3260 C 0.43429 0.4903 0.73779 0.0
H3261 H 0.41692 0.49042 0.78867 0.0
H3262 H 0.41783 0.48295 0.77171 0.0
H3263 H 0.46173 0.49869 0.75621 0.0
H3264 H 0.45606 0.49142 0.7066 0.0
H3265 H 0.45695 0.49935 0.72356 0.0
C3266 C 0.21897 0.66875 0.53086 0.0
C3267 C 0.22374 0.68199 0.53708 0.0
C3268 C 0.22325 0.66943 0.52115 0.0
C3269 C 0.23857 0.69865 0.50194 0.0
H3270 H 0.25223 0.65618 0.48989 0.0
C3271 C 0.2717 0.6942 0.46475 0.0
C3272 C 0.26494 0.68199 0.45839 0.0
C3273 C 0.26626 0.69483 0.4743 0.0
C3274 C 0.24833 0.66811 0.49315 0.0
H3275 H 0.23653 0.70641 0.53808 0.0
H3276 H 0.24448 0.70744 0.52114 0.0
H3277 H 0.24345 0.65619 0.50665 0.0
H3278 H 0.24671 0.66125 0.45707 0.0
H3279 H 0.23765 0.66209 0.47378 0.0
H3280 H 0.24398 0.71054 0.48841 0.0
C3281 C 0.23707 0.6967 0.52368 0.0
C3282 C 0.2432 0.66813 0.50274 0.0
C3283 C 0.23258 0.69611 0.53339 0.0
C3284 C 0.25251 0.67055 0.4618 0.0
C3285 C 0.24724 0.67107 0.47136 0.0
C3286 C 0.24392 0.69864 0.49237 0.0
C3287 C 0.23262 0.68326 0.51746 0.0
C3288 C 0.23814 0.68338 0.50725 0.0
C3289 C 0.25409 0.68316 0.4777 0.0
C3290 C 0.24874 0.68335 0.48788 0.0
H3291 H 0.21195 0.65783 0.53353 0.0
H3292 H 0.21923 0.65906 0.51654 0.0
H3293 H 0.23455 0.71058 0.50513 0.0
H3294 H 0.28144 0.70306 0.4624 0.0
H3295 H 0.27184 0.70419 0.47908 0.0
C3296 C 0.3939 0.94089 0.13184 0.0
C3297 C 0.38773 0.95135 0.13927 0.0
C3298 C 0.38486 0.92635 0.12902 0.0
C3299 C 0.35067 0.89672 0.13675 0.0
H3300 H 0.34118 0.8927 0.10952 0.0
C3301 C 0.29053 0.86464 0.12201 0.0
C3302 C 0.29135 0.85565 0.1133 0.0
C3303 C 0.30486 0.87306 0.12557 0.0
C3304 C 0.34397 0.89338 0.11713 0.0
H3305 H 0.3672 0.95464 0.14958 0.0
H3306 H 0.35163 0.92932 0.14474 0.0
H3307 H 0.36204 0.91351 0.11508 0.0
H3308 H 0.30799 0.84794 0.10165 0.0
H3309 H 0.33315 0.86258 0.10792 0.0
H3310 H 0.33216 0.877 0.13883 0.0
C3311 C 0.36358 0.93217 0.14118 0.0
C3312 C 0.35593 0.90531 0.12031 0.0
C3313 C 0.37254 0.94672 0.14396 0.0
C3314 C 0.307 0.85471 0.1084 0.0
C3315 C 0.32135 0.8632 0.11195 0.0
C3316 C 0.33873 0.88478 0.13357 0.0
C3317 C 0.36953 0.92193 0.13362 0.0
C3318 C 0.35901 0.90746 0.13017 0.0
C3319 C 0.32035 0.8727 0.12049 0.0
C3320 C 0.33488 0.88334 0.12375 0.0
H3321 H 0.40568 0.94398 0.12817 0.0
H3322 H 0.3898 0.91861 0.1232 0.0
H3323 H 0.35302 0.8979 0.14439 0.0
H3324 H 0.27869 0.86541 0.12601 0.0
H3325 H 0.3036 0.88042 0.13212 0.0
C3326 C 0.29594 0.13422 0.37505 0.0
C3327 C 0.29575 0.14181 0.3842 0.0
C3328 C 0.31013 0.12501 0.37195 0.0
C3329 C 0.34461 0.09939 0.38178 0.0
H3330 H 0.36022 0.09828 0.35538 0.0
C3331 C 0.39296 0.04898 0.36877 0.0
C3332 C 0.38874 0.04102 0.36004 0.0
C3333 C 0.3845 0.06382 0.37167 0.0
C3334 C 0.35597 0.0984 0.36278 0.0
H3335 H 0.31075 0.1466 0.397 0.0
H3336 H 0.33551 0.13029 0.39161 0.0
H3337 H 0.34009 0.12024 0.36045 0.0
H3338 H 0.37292 0.04291 0.3473 0.0
H3339 H 0.35782 0.06829 0.35248 0.0
H3340 H 0.35981 0.07713 0.38404 0.0
C3341 C 0.32456 0.13134 0.3869 0.0
C3342 C 0.34449 0.11101 0.36568 0.0
C3343 C 0.31038 0.14063 0.38999 0.0
C3344 C 0.37627 0.04852 0.35416 0.0
C3345 C 0.36779 0.06327 0.35706 0.0
C3346 C 0.356 0.08672 0.37887 0.0
C3347 C 0.32443 0.12312 0.37794 0.0
C3348 C 0.33838 0.11138 0.37516 0.0
C3349 C 0.37166 0.07101 0.36589 0.0
C3350 C 0.36148 0.08582 0.36927 0.0
H3351 H 0.28481 0.13468 0.37046 0.0
H3352 H 0.30955 0.11863 0.36506 0.0
H3353 H 0.33998 0.09922 0.38911 0.0
H3354 H 0.40246 0.0435 0.37349 0.0
H3355 H 0.3879 0.06957 0.37847 0.0
C3356 C 0.11187 0.04283 0.62457 0.0
C3357 C 0.10239 0.04392 0.6331 0.0
C3358 C 0.12118 0.05681 0.62128 0.0
C3359 C 0.14263 0.09484 0.63049 0.0
H3360 H 0.15089 0.10307 0.60343 0.0
C3361 C 0.19351 0.14267 0.6168 0.0
C3362 C 0.20459 0.13567 0.60991 0.0
C3363 C 0.17856 0.13407 0.61937 0.0
C3364 C 0.14866 0.10094 0.61101 0.0
H3365 H 0.09443 0.06081 0.64459 0.0
H3366 H 0.11073 0.08534 0.63881 0.0
H3367 H 0.12816 0.08362 0.60827 0.0
H3368 H 0.20855 0.11453 0.60012 0.0
H3369 H 0.18257 0.09951 0.60464 0.0
H3370 H 0.16345 0.11185 0.63321 0.0
C3371 C 0.11115 0.07356 0.63476 0.0
C3372 C 0.13568 0.08981 0.61379 0.0
C3373 C 0.10183 0.05953 0.63806 0.0
C3374 C 0.20034 0.12011 0.60554 0.0
C3375 C 0.18536 0.11163 0.60803 0.0
C3376 C 0.15556 0.10606 0.62772 0.0
C3377 C 0.12121 0.07222 0.62644 0.0
C3378 C 0.13289 0.0862 0.62355 0.0
C3379 C 0.17436 0.11847 0.61499 0.0
C3380 C 0.15904 0.10878 0.61795 0.0
H3381 H 0.11277 0.03092 0.62066 0.0
H3382 H 0.12903 0.05523 0.61494 0.0
H3383 H 0.14094 0.09222 0.63807 0.0
H3384 H 0.19654 0.15463 0.6203 0.0
H3385 H 0.17028 0.13961 0.62475 0.0
C3386 C 0.11735 0.94387 0.85401 0.0
C3387 C 0.10584 0.9524 0.86008 0.0
C3388 C 0.12564 0.92912 0.85708 0.0
C3389 C 0.13897 0.90766 0.87929 0.0
H3390 H 0.15294 0.87221 0.86151 0.0
C3391 C 0.18447 0.85383 0.89075 0.0
C3392 C 0.19876 0.85211 0.88471 0.0
C3393 C 0.17024 0.86313 0.88775 0.0
C3394 C 0.14907 0.88199 0.86656 0.0
H3395 H 0.0935 0.95169 0.87401 0.0
H3396 H 0.10763 0.92559 0.87929 0.0
H3397 H 0.13265 0.89393 0.85631 0.0
H3398 H 0.209 0.85835 0.87066 0.0
H3399 H 0.18411 0.87433 0.86541 0.0
H3400 H 0.15564 0.89588 0.88947 0.0
C3401 C 0.11049 0.93055 0.87221 0.0
C3402 C 0.13751 0.89446 0.86358 0.0
C3403 C 0.10226 0.94541 0.86915 0.0
C3404 C 0.19815 0.85921 0.87545 0.0
C3405 C 0.18388 0.86839 0.87243 0.0
C3406 C 0.15041 0.8951 0.88228 0.0
C3407 C 0.12251 0.9224 0.86627 0.0
C3408 C 0.13271 0.90773 0.86983 0.0
C3409 C 0.16995 0.87077 0.87863 0.0
C3410 C 0.15593 0.88243 0.87587 0.0
H3411 H 0.12016 0.94871 0.8469 0.0
H3412 H 0.13495 0.92335 0.85235 0.0
H3413 H 0.13575 0.91779 0.88425 0.0
H3414 H 0.1844 0.84824 0.89786 0.0
H3415 H 0.15958 0.8646 0.89263 0.0
C3416 C 0.70424 0.13403 0.87727 0.0
C3417 C 0.71585 0.12879 0.88438 0.0
C3418 C 0.69103 0.12319 0.87438 0.0
C3419 C 0.681 0.07793 0.87296 0.0
H3420 H 0.63382 0.09192 0.87012 0.0
C3421 C 0.63172 0.03424 0.85551 0.0
C3422 C 0.61655 0.03168 0.86068 0.0
C3423 C 0.64286 0.04733 0.85801 0.0
C3424 C 0.64696 0.08789 0.87091 0.0
H3425 H 0.72207 0.10854 0.89442 0.0
H3426 H 0.69931 0.08961 0.88923 0.0
H3427 H 0.65525 0.11269 0.8755 0.0
H3428 H 0.60081 0.04126 0.87229 0.0
H3429 H 0.62041 0.06434 0.87667 0.0
H3430 H 0.67289 0.0532 0.86845 0.0
C3431 C 0.70058 0.10195 0.8858 0.0
C3432 C 0.65918 0.09976 0.87391 0.0
C3433 C 0.71365 0.11276 0.88873 0.0
C3434 C 0.61241 0.04296 0.86817 0.0
C3435 C 0.62358 0.05615 0.87067 0.0
C3436 C 0.66888 0.06617 0.86989 0.0
C3437 C 0.68929 0.10694 0.87852 0.0
C3438 C 0.67628 0.0948 0.87503 0.0
C3439 C 0.63905 0.05823 0.86571 0.0
C3440 C 0.65174 0.071 0.86886 0.0
H3441 H 0.70564 0.14628 0.87377 0.0
H3442 H 0.68251 0.12727 0.8687 0.0
H3443 H 0.69413 0.07383 0.87368 0.0
H3444 H 0.63505 0.02606 0.84952 0.0
H3445 H 0.65456 0.04886 0.85396 0.0
C3446 C 0.6175 0.9644 0.61897 0.0
C3447 C 0.60698 0.96184 0.62699 0.0
C3448 C 0.62825 0.95142 0.61579 0.0
C3449 C 0.63924 0.90559 0.61832 0.0
H3450 H 0.68511 0.9225 0.6141 0.0
C3451 C 0.69958 0.86247 0.61703 0.0
C3452 C 0.71175 0.86663 0.61 0.0
C3453 C 0.68549 0.87308 0.61855 0.0
C3454 C 0.67234 0.91756 0.61513 0.0
H3455 H 0.59859 0.94347 0.63762 0.0
H3456 H 0.61761 0.9208 0.63214 0.0
H3457 H 0.66218 0.94253 0.61713 0.0
H3458 H 0.71824 0.88455 0.59871 0.0
H3459 H 0.6938 0.90298 0.60137 0.0
H3460 H 0.64968 0.8805 0.61647 0.0
C3461 C 0.61741 0.93274 0.62824 0.0
C3462 C 0.65917 0.92906 0.61683 0.0
C3463 C 0.60654 0.94571 0.63138 0.0
C3464 C 0.70933 0.88127 0.60436 0.0
C3465 C 0.6953 0.8918 0.60586 0.0
C3466 C 0.6525 0.89402 0.61662 0.0
C3467 C 0.62882 0.9357 0.62064 0.0
C3468 C 0.64246 0.92323 0.61841 0.0
C3469 C 0.68336 0.88797 0.61305 0.0
C3470 C 0.66917 0.89994 0.61498 0.0
H3471 H 0.61784 0.97665 0.61538 0.0
H3472 H 0.63661 0.95393 0.60976 0.0
H3473 H 0.62648 0.90074 0.6195 0.0
H3474 H 0.70115 0.85124 0.62147 0.0
H3475 H 0.67653 0.86989 0.62419 0.0
C3476 C 0.78483 0.86998 0.37287 0.0
C3477 C 0.78634 0.8589 0.38075 0.0
C3478 C 0.79833 0.88063 0.37033 0.0
C3479 C 0.84417 0.88979 0.37408 0.0
H3480 H 0.82943 0.93661 0.37062 0.0
C3481 C 0.87204 0.9632 0.37262 0.0
C3482 C 0.88499 0.96143 0.36573 0.0
C3483 C 0.86161 0.94939 0.37494 0.0
C3484 C 0.83377 0.92363 0.37165 0.0
H3485 H 0.80347 0.84951 0.39176 0.0
H3486 H 0.82708 0.8682 0.38732 0.0
H3487 H 0.80829 0.91431 0.3728 0.0
H3488 H 0.89779 0.94361 0.35624 0.0
H3489 H 0.87952 0.91945 0.3603 0.0
H3490 H 0.86976 0.89933 0.37306 0.0
C3491 C 0.81551 0.86856 0.38308 0.0
C3492 C 0.82165 0.9108 0.37275 0.0
C3493 C 0.80199 0.85786 0.38562 0.0
C3494 C 0.88798 0.94532 0.36163 0.0
C3495 C 0.87752 0.93148 0.36395 0.0
C3496 C 0.85636 0.90268 0.37293 0.0
C3497 C 0.81359 0.88046 0.37562 0.0
C3498 C 0.82669 0.89375 0.37398 0.0
C3499 C 0.8639 0.93355 0.37039 0.0
C3500 C 0.85125 0.91974 0.37178 0.0
H3501 H 0.77301 0.8708 0.36888 0.0
H3502 H 0.79664 0.88943 0.3644 0.0
H3503 H 0.84841 0.87674 0.375 0.0
H3504 H 0.86966 0.9754 0.37602 0.0
H3505 H 0.85144 0.95124 0.38009 0.0
C3506 C 0.78035 0.12136 0.12015 0.0
C3507 C 0.78234 0.13469 0.11351 0.0
C3508 C 0.79417 0.1111 0.12263 0.0
C3509 C 0.82087 0.08401 0.11966 0.0
H3510 H 0.86672 0.09962 0.1253 0.0
C3511 C 0.87547 0.03632 0.12278 0.0
C3512 C 0.88535 0.03778 0.13114 0.0
C3513 C 0.86482 0.04964 0.11992 0.0
C3514 C 0.85396 0.09512 0.12373 0.0
H3515 H 0.80058 0.14831 0.10466 0.0
H3516 H 0.82483 0.13034 0.10905 0.0
H3517 H 0.84394 0.12052 0.12258 0.0
H3518 H 0.89255 0.05468 0.14279 0.0
H3519 H 0.87387 0.07795 0.13781 0.0
H3520 H 0.83063 0.05871 0.12091 0.0
C3521 C 0.81255 0.1279 0.11234 0.0
C3522 C 0.84098 0.10705 0.12213 0.0
C3523 C 0.79868 0.13819 0.10984 0.0
C3524 C 0.88516 0.05323 0.13627 0.0
C3525 C 0.87447 0.06656 0.13342 0.0
C3526 C 0.8338 0.07215 0.12118 0.0
C3527 C 0.81029 0.11394 0.11853 0.0
C3528 C 0.82427 0.10157 0.12018 0.0
C3529 C 0.86379 0.06467 0.12539 0.0
C3530 C 0.85047 0.07754 0.12327 0.0
H3531 H 0.76798 0.11859 0.12325 0.0
H3532 H 0.79215 0.10065 0.12759 0.0
H3533 H 0.80817 0.07941 0.11801 0.0
H3534 H 0.87562 0.02469 0.11858 0.0
H3535 H 0.85699 0.04796 0.11359 0.0
C3536 C 0.79886 0.35262 0.61893 0.0
C3537 C 0.79095 0.35684 0.61019 0.0
C3538 C 0.81368 0.36109 0.62185 0.0
C3539 C 0.84811 0.38999 0.61306 0.0
H3540 H 0.84868 0.40569 0.63946 0.0
C3541 C 0.8831 0.45036 0.62561 0.0
C3542 C 0.89103 0.45035 0.63466 0.0
C3543 C 0.87392 0.43616 0.62248 0.0
C3544 C 0.84891 0.40115 0.63211 0.0
H3545 H 0.79292 0.37264 0.59745 0.0
H3546 H 0.81822 0.3878 0.60267 0.0
H3547 H 0.82682 0.38567 0.6343 0.0
H3548 H 0.89636 0.43501 0.64727 0.0
H3549 H 0.88002 0.41029 0.64185 0.0
H3550 H 0.86975 0.4062 0.61081 0.0
C3551 C 0.8132 0.37781 0.60724 0.0
C3552 C 0.83638 0.38964 0.62915 0.0
C3553 C 0.79849 0.3693 0.60431 0.0
C3554 C 0.89012 0.43555 0.64035 0.0
C3555 C 0.88083 0.42138 0.63724 0.0
C3556 C 0.86055 0.40161 0.61601 0.0
C3557 C 0.82087 0.37397 0.6161 0.0
C3558 C 0.83557 0.38426 0.61953 0.0
C3559 C 0.87239 0.42167 0.62835 0.0
C3560 C 0.86082 0.4076 0.62551 0.0
H3561 H 0.79335 0.34312 0.62365 0.0
H3562 H 0.81938 0.3577 0.62867 0.0
H3563 H 0.84807 0.38582 0.60565 0.0
H3564 H 0.88332 0.46161 0.6211 0.0
H3565 H 0.86734 0.43685 0.61565 0.0
C3566 C 0.89232 0.55351 0.86782 0.0
C3567 C 0.88721 0.54403 0.85975 0.0
C3568 C 0.88371 0.5685 0.87033 0.0
C3569 C 0.85272 0.60053 0.86101 0.0
H3570 H 0.84018 0.60515 0.88781 0.0
C3571 C 0.79266 0.63542 0.874 0.0
C3572 C 0.79324 0.64452 0.8827 0.0
C3573 C 0.80691 0.62646 0.87076 0.0
C3574 C 0.84384 0.60427 0.88033 0.0
H3575 H 0.86961 0.5433 0.84774 0.0
H3576 H 0.8543 0.56893 0.85228 0.0
H3577 H 0.86027 0.58307 0.88305 0.0
H3578 H 0.80964 0.65229 0.89446 0.0
H3579 H 0.8345 0.6364 0.88884 0.0
H3580 H 0.83559 0.62125 0.85828 0.0
C3581 C 0.86506 0.56501 0.85662 0.0
C3582 C 0.85538 0.59161 0.87759 0.0
C3583 C 0.87367 0.55012 0.8541 0.0
C3584 C 0.80867 0.64513 0.88783 0.0
C3585 C 0.82292 0.63608 0.88461 0.0
C3586 C 0.84109 0.61311 0.86375 0.0
C3587 C 0.86985 0.5743 0.86482 0.0
C3588 C 0.8596 0.58929 0.86787 0.0
C3589 C 0.82205 0.62635 0.87616 0.0
C3590 C 0.83621 0.61483 0.8734 0.0
H3591 H 0.90267 0.54914 0.87234 0.0
H3592 H 0.88782 0.57545 0.87664 0.0
H3593 H 0.85598 0.59932 0.85349 0.0
H3594 H 0.78093 0.63448 0.86994 0.0
H3595 H 0.80578 0.61889 0.86429 0.0
C3596 C 0.69931 0.6205 0.10641 0.0
C3597 C 0.70275 0.63648 0.11053 0.0
C3598 C 0.6843 0.61183 0.10861 0.0
C3599 C 0.65243 0.60704 0.12734 0.0
H3600 H 0.62781 0.58253 0.10751 0.0
C3601 C 0.59886 0.55986 0.13692 0.0
C3602 C 0.60033 0.54395 0.13234 0.0
C3603 C 0.60812 0.57391 0.1336 0.0
C3604 C 0.63454 0.5893 0.11313 0.0
H3605 H 0.69317 0.65597 0.12017 0.0
H3606 H 0.66683 0.64065 0.12411 0.0
H3607 H 0.65063 0.60213 0.10303 0.0
H3608 H 0.61229 0.5304 0.12055 0.0
H3609 H 0.62848 0.55473 0.11482 0.0
H3610 H 0.63695 0.59365 0.13747 0.0
C3611 C 0.6758 0.63491 0.11915 0.0
C3612 C 0.64758 0.60052 0.11056 0.0
C3613 C 0.6908 0.64368 0.11688 0.0
C3614 C 0.61068 0.54254 0.12415 0.0
C3615 C 0.61995 0.55653 0.12085 0.0
C3616 C 0.63945 0.59574 0.12991 0.0
C3617 C 0.67242 0.61891 0.11502 0.0
C3618 C 0.65698 0.6091 0.11765 0.0
C3619 C 0.61906 0.57229 0.12565 0.0
C3620 C 0.63072 0.58635 0.12285 0.0
H3621 H 0.70816 0.61474 0.10139 0.0
H3622 H 0.68214 0.59941 0.10543 0.0
H3623 H 0.65955 0.61342 0.13295 0.0
H3624 H 0.59078 0.56136 0.14318 0.0
H3625 H 0.60699 0.58594 0.13737 0.0
C3626 C 0.69793 0.37182 0.38915 0.0
C3627 C 0.70331 0.35744 0.38395 0.0
C3628 C 0.68293 0.38027 0.38671 0.0
C3629 C 0.65478 0.38818 0.36634 0.0
H3630 H 0.62625 0.40884 0.38591 0.0
C3631 C 0.60131 0.43524 0.35643 0.0
C3632 C 0.60182 0.45058 0.36166 0.0
C3633 C 0.61048 0.421 0.35956 0.0
C3634 C 0.63407 0.40313 0.38036 0.0
H3635 H 0.69695 0.34041 0.37222 0.0
H3636 H 0.6705 0.3552 0.36796 0.0
H3637 H 0.64853 0.38877 0.39058 0.0
H3638 H 0.6119 0.46282 0.37442 0.0
H3639 H 0.62785 0.43807 0.37985 0.0
H3640 H 0.64075 0.40299 0.35616 0.0
C3641 C 0.67805 0.35996 0.3739 0.0
C3642 C 0.64682 0.39165 0.38303 0.0
C3643 C 0.69311 0.35144 0.37637 0.0
C3644 C 0.61106 0.45114 0.37029 0.0
C3645 C 0.6202 0.43693 0.37342 0.0
C3646 C 0.64201 0.39966 0.36367 0.0
C3647 C 0.67287 0.37453 0.37902 0.0
C3648 C 0.65766 0.38447 0.37608 0.0
C3649 C 0.62031 0.42182 0.36798 0.0
C3650 C 0.63187 0.40764 0.37068 0.0
H3651 H 0.70535 0.3766 0.39513 0.0
H3652 H 0.67946 0.39161 0.39071 0.0
H3653 H 0.663 0.38298 0.36082 0.0
H3654 H 0.59407 0.43433 0.34983 0.0
H3655 H 0.61014 0.40945 0.35529 0.0
C3656 C 0.11252 0.54184 0.37016 0.0
C3657 C 0.11804 0.53018 0.36315 0.0
C3658 C 0.12291 0.55558 0.37281 0.0
C3659 C 0.16793 0.56937 0.37211 0.0
H3660 H 0.14964 0.61477 0.37619 0.0
C3661 C 0.2121 0.62672 0.37525 0.0
C3662 C 0.20964 0.63706 0.38337 0.0
C3663 C 0.19966 0.61501 0.37249 0.0
C3664 C 0.15486 0.60212 0.37512 0.0
H3665 H 0.13835 0.52411 0.35316 0.0
H3666 H 0.15631 0.54801 0.35768 0.0
H3667 H 0.1303 0.59119 0.37229 0.0
H3668 H 0.19173 0.64412 0.39455 0.0
H3669 H 0.16993 0.62349 0.38972 0.0
H3670 H 0.19244 0.58022 0.37482 0.0
C3671 C 0.14424 0.54636 0.36134 0.0
C3672 C 0.14382 0.58863 0.37293 0.0
C3673 C 0.13395 0.53265 0.35875 0.0
C3674 C 0.19404 0.63615 0.38833 0.0
C3675 C 0.18153 0.62446 0.38554 0.0
C3676 C 0.17891 0.5828 0.37422 0.0
C3677 C 0.13893 0.5579 0.36846 0.0
C3678 C 0.1503 0.57215 0.3713 0.0
C3679 C 0.18449 0.61342 0.37778 0.0
C3680 C 0.17253 0.59934 0.37563 0.0
H3681 H 0.10032 0.54019 0.37368 0.0
H3682 H 0.11853 0.56419 0.37837 0.0
H3683 H 0.17329 0.55675 0.37114 0.0
H3684 H 0.22402 0.62701 0.37132 0.0
H3685 H 0.20214 0.60679 0.36639 0.0
C3686 C 0.19723 0.35622 0.11347 0.0
C3687 C 0.21368 0.35724 0.1174 0.0
C3688 C 0.18426 0.36685 0.11685 0.0
C3689 C 0.18023 0.4087 0.12831 0.0
H3690 H 0.13206 0.39774 0.12975 0.0
C3691 C 0.13213 0.45714 0.14225 0.0
C3692 C 0.1174 0.45971 0.13671 0.0
C3693 C 0.1427 0.44323 0.14052 0.0
C3694 C 0.14547 0.40095 0.12931 0.0
H3695 H 0.22921 0.36895 0.12843 0.0
H3696 H 0.20647 0.38721 0.13453 0.0
H3697 H 0.15274 0.37517 0.12616 0.0
H3698 H 0.1018 0.44938 0.12525 0.0
H3699 H 0.12051 0.4249 0.12216 0.0
H3700 H 0.17308 0.43439 0.13137 0.0
C3701 C 0.20369 0.37863 0.12865 0.0
C3702 C 0.15729 0.38807 0.12728 0.0
C3703 C 0.21667 0.36815 0.1252 0.0
C3704 C 0.1131 0.4477 0.12962 0.0
C3705 C 0.12375 0.4337 0.12788 0.0
C3706 C 0.16848 0.42148 0.13037 0.0
C3707 C 0.18753 0.37858 0.12426 0.0
C3708 C 0.17481 0.39183 0.12679 0.0
C3709 C 0.13881 0.43155 0.13322 0.0
C3710 C 0.15101 0.41775 0.13092 0.0
H3711 H 0.19467 0.34793 0.10741 0.0
H3712 H 0.17199 0.36657 0.11329 0.0
H3713 H 0.19356 0.41216 0.1277 0.0
H3714 H 0.13551 0.46593 0.14794 0.0
H3715 H 0.15404 0.44169 0.14488 0.0
C3716 C 0.38756 0.44894 0.86316 0.0
C3717 C 0.38676 0.4653 0.86723 0.0
C3718 C 0.37666 0.43605 0.86637 0.0
C3719 C 0.3346 0.43233 0.87762 0.0
H3720 H 0.34483 0.38396 0.87861 0.0
C3721 C 0.28538 0.38402 0.89079 0.0
C3722 C 0.28304 0.36928 0.88521 0.0
C3723 C 0.2992 0.39476 0.88915 0.0
C3724 C 0.34181 0.39743 0.87829 0.0
H3725 H 0.37516 0.48071 0.87836 0.0
H3726 H 0.35643 0.45811 0.88417 0.0
H3727 H 0.36773 0.40443 0.87536 0.0
H3728 H 0.29362 0.35399 0.87368 0.0
H3729 H 0.31793 0.37293 0.87078 0.0
H3730 H 0.30875 0.42545 0.88046 0.0
C3731 C 0.36505 0.45534 0.87829 0.0
C3732 C 0.35489 0.40913 0.87645 0.0
C3733 C 0.3758 0.46825 0.87501 0.0
C3734 C 0.29512 0.36526 0.8781 0.0
C3735 C 0.30903 0.37605 0.87646 0.0
C3736 C 0.32161 0.42069 0.87948 0.0
C3737 C 0.36488 0.43931 0.87376 0.0
C3738 C 0.3514 0.42672 0.87612 0.0
C3739 C 0.31106 0.39101 0.8819 0.0
C3740 C 0.32506 0.40314 0.87985 0.0
H3741 H 0.39587 0.44641 0.8571 0.0
H3742 H 0.37679 0.42387 0.8627 0.0
H3743 H 0.33135 0.44573 0.87715 0.0
H3744 H 0.27655 0.38722 0.8965 0.0
H3745 H 0.30063 0.40603 0.89359 0.0
C3746 C 0.38282 0.54508 0.62819 0.0
C3747 C 0.37841 0.53372 0.63559 0.0
C3748 C 0.37245 0.55917 0.62618 0.0
C3749 C 0.32805 0.57266 0.62879 0.0
H3750 H 0.34471 0.6182 0.62326 0.0
C3751 C 0.28098 0.62681 0.62358 0.0
C3752 C 0.28353 0.63697 0.61542 0.0
C3753 C 0.29401 0.61631 0.62694 0.0
C3754 C 0.33991 0.60552 0.62474 0.0
H3755 H 0.36041 0.52877 0.64709 0.0
H3756 H 0.34238 0.55319 0.64358 0.0
H3757 H 0.365 0.5954 0.6271 0.0
H3758 H 0.30184 0.64504 0.60471 0.0
H3759 H 0.32463 0.62635 0.61046 0.0
H3760 H 0.3031 0.58244 0.6263 0.0
C3761 C 0.35357 0.55104 0.63918 0.0
C3762 C 0.3515 0.5925 0.62692 0.0
C3763 C 0.36386 0.53704 0.64116 0.0
C3764 C 0.29964 0.63732 0.61103 0.0
C3765 C 0.31266 0.62665 0.61434 0.0
C3766 C 0.31654 0.58558 0.62661 0.0
C3767 C 0.35756 0.56208 0.63156 0.0
C3768 C 0.34563 0.57598 0.62903 0.0
C3769 C 0.30975 0.6156 0.62212 0.0
C3770 C 0.32229 0.60218 0.62463 0.0
H3771 H 0.39399 0.54281 0.62379 0.0
H3772 H 0.37576 0.56744 0.62024 0.0
H3773 H 0.32317 0.55997 0.63016 0.0
H3774 H 0.26872 0.62656 0.62716 0.0
H3775 H 0.29153 0.60827 0.63311 0.0
C3776 C 0.35361 0.11592 0.14463 0.0
C3777 C 0.36183 0.10529 0.13795 0.0
C3778 C 0.3432 0.12927 0.14152 0.0
C3779 C 0.32049 0.14672 0.12029 0.0
H3780 H 0.32899 0.19018 0.13269 0.0
C3781 C 0.30504 0.21179 0.10291 0.0
C3782 C 0.29984 0.22521 0.10891 0.0
C3783 C 0.3096 0.19601 0.10681 0.0
C3784 C 0.32619 0.17811 0.12925 0.0
H3785 H 0.36522 0.10006 0.12278 0.0
H3786 H 0.34713 0.1234 0.11735 0.0
H3787 H 0.34233 0.16454 0.13895 0.0
H3788 H 0.29417 0.23232 0.12361 0.0
H3789 H 0.30203 0.20478 0.13043 0.0
H3790 H 0.30466 0.16049 0.11043 0.0
C3791 C 0.34853 0.12128 0.12499 0.0
C3792 C 0.33385 0.16339 0.13285 0.0
C3793 C 0.35893 0.10792 0.1281 0.0
C3794 C 0.29848 0.2223 0.11883 0.0
C3795 C 0.30297 0.20654 0.12273 0.0
C3796 C 0.3128 0.16149 0.11669 0.0
C3797 C 0.3408 0.1323 0.13166 0.0
C3798 C 0.3313 0.14757 0.12833 0.0
C3799 C 0.30897 0.19335 0.1168 0.0
C3800 C 0.31578 0.17738 0.12105 0.0
H3801 H 0.35535 0.11401 0.15227 0.0
H3802 H 0.33719 0.13736 0.14684 0.0
H3803 H 0.31809 0.13468 0.11673 0.0
H3804 H 0.30633 0.2137 0.09524 0.0
H3805 H 0.31433 0.18617 0.10205 0.0
C3806 C 0.13124 0.11881 0.37816 0.0
C3807 C 0.13984 0.11356 0.38649 0.0
C3808 C 0.11782 0.10913 0.37449 0.0
C3809 C 0.084 0.08093 0.38188 0.0
H3810 H 0.07994 0.07065 0.35474 0.0
C3811 C 0.02349 0.04915 0.36679 0.0
C3812 C 0.01747 0.05539 0.35797 0.0
C3813 C 0.03975 0.05351 0.37006 0.0
C3814 C 0.08078 0.07356 0.36233 0.0
H3815 H 0.1414 0.09405 0.39746 0.0
H3816 H 0.11748 0.07723 0.39113 0.0
H3817 H 0.10612 0.08349 0.36087 0.0
H3818 H 0.0237 0.07091 0.34561 0.0
H3819 H 0.05183 0.07906 0.35142 0.0
H3820 H 0.05843 0.07196 0.38334 0.0
C3821 C 0.12129 0.08876 0.38743 0.0
C3822 C 0.09582 0.0808 0.36583 0.0
C3823 C 0.13495 0.09832 0.39102 0.0
C3824 C 0.02812 0.0658 0.35239 0.0
C3825 C 0.04429 0.07038 0.35572 0.0
C3826 C 0.06886 0.07393 0.37837 0.0
C3827 C 0.11258 0.09414 0.37915 0.0
C3828 C 0.09746 0.08478 0.37561 0.0
C3829 C 0.05026 0.06445 0.36465 0.0
C3830 C 0.06694 0.07041 0.36851 0.0
H3831 H 0.13488 0.13046 0.37451 0.0
H3832 H 0.11121 0.11363 0.36814 0.0
H3833 H 0.08489 0.08406 0.38944 0.0
H3834 H 0.01557 0.04091 0.37117 0.0
H3835 H 0.04402 0.0484 0.37687 0.0
C3836 C 0.14284 0.89097 0.63177 0.0
C3837 C 0.13144 0.88893 0.63949 0.0
C3838 C 0.15261 0.87722 0.62852 0.0
C3839 C 0.16639 0.83317 0.63501 0.0
H3840 H 0.16825 0.82673 0.60741 0.0
C3841 C 0.17491 0.76774 0.61734 0.0
C3842 C 0.18685 0.7662 0.60985 0.0
C3843 C 0.17076 0.78369 0.62109 0.0
C3844 C 0.16806 0.8285 0.61513 0.0
H3845 H 0.1221 0.87105 0.65015 0.0
H3846 H 0.13856 0.84701 0.64428 0.0
H3847 H 0.15659 0.85314 0.61395 0.0
H3848 H 0.20373 0.78041 0.60042 0.0
H3849 H 0.19597 0.80842 0.60682 0.0
H3850 H 0.17708 0.80811 0.63614 0.0
C3851 C 0.14018 0.85925 0.64079 0.0
C3852 C 0.16144 0.84364 0.61889 0.0
C3853 C 0.13052 0.873 0.64408 0.0
C3854 C 0.19434 0.78111 0.6061 0.0
C3855 C 0.18999 0.79714 0.60979 0.0
C3856 C 0.17281 0.81797 0.63125 0.0
C3857 C 0.15117 0.86111 0.63288 0.0
C3858 C 0.16017 0.846 0.62888 0.0
C3859 C 0.17826 0.79852 0.61737 0.0
C3860 C 0.17336 0.81536 0.62128 0.0
H3861 H 0.14381 0.90304 0.62803 0.0
H3862 H 0.16112 0.87917 0.62249 0.0
H3863 H 0.16599 0.83471 0.64273 0.0
H3864 H 0.16854 0.75662 0.62024 0.0
H3865 H 0.16141 0.78445 0.6268 0.0
C3866 C 0.464 0.95015 0.86369 0.0
C3867 C 0.47222 0.94381 0.85546 0.0
C3868 C 0.4485 0.94317 0.86672 0.0
C3869 C 0.42628 0.90282 0.86649 0.0
H3870 H 0.38619 0.92829 0.8742 0.0
C3871 C 0.3652 0.86812 0.87776 0.0
C3872 C 0.35557 0.87498 0.88531 0.0
C3873 C 0.37853 0.87742 0.8737 0.0
C3874 C 0.39736 0.921 0.8722 0.0
H3875 H 0.47048 0.92556 0.8438 0.0
H3876 H 0.44348 0.91327 0.84915 0.0
H3877 H 0.41095 0.94343 0.86774 0.0
H3878 H 0.35213 0.89693 0.89454 0.0
H3879 H 0.37592 0.91305 0.88771 0.0
H3880 H 0.41326 0.8805 0.87124 0.0
C3881 C 0.449 0.92367 0.85322 0.0
C3882 C 0.41147 0.92968 0.86845 0.0
C3883 C 0.46436 0.93079 0.85012 0.0
C3884 C 0.35937 0.89142 0.88869 0.0
C3885 C 0.37293 0.90066 0.88473 0.0
C3886 C 0.41235 0.89419 0.87035 0.0
C3887 C 0.44112 0.92957 0.86164 0.0
C3888 C 0.42599 0.92062 0.8655 0.0
C3889 C 0.38276 0.89371 0.87722 0.0
C3890 C 0.39763 0.90312 0.8732 0.0
H3891 H 0.46977 0.96024 0.86789 0.0
H3892 H 0.44268 0.94788 0.87326 0.0
H3893 H 0.43748 0.89558 0.86444 0.0
H3894 H 0.3623 0.85558 0.87492 0.0
H3895 H 0.38548 0.87182 0.86777 0.0
C3896 C 0.29921 0.77628 0.38096 0.0
C3897 C 0.31124 0.76674 0.38617 0.0
C3898 C 0.30355 0.79224 0.37721 0.0
C3899 C 0.33377 0.82765 0.38008 0.0
H3900 H 0.32493 0.83676 0.35316 0.0
C3901 C 0.36344 0.87291 0.3493 0.0
C3902 C 0.36378 0.88868 0.35408 0.0
C3903 C 0.35401 0.85931 0.353 0.0
C3904 C 0.32738 0.83441 0.3607 0.0
H3905 H 0.33704 0.76652 0.39173 0.0
H3906 H 0.34461 0.7944 0.3852 0.0
H3907 H 0.31451 0.8103 0.36042 0.0
H3908 H 0.35405 0.9028 0.36629 0.0
H3909 H 0.33758 0.87897 0.3728 0.0
H3910 H 0.34704 0.85148 0.38033 0.0
C3911 C 0.33185 0.78956 0.38402 0.0
C3912 C 0.32133 0.81936 0.36486 0.0
C3913 C 0.32758 0.77355 0.38768 0.0
C3914 C 0.35395 0.89081 0.36243 0.0
C3915 C 0.34464 0.87715 0.36619 0.0
C3916 C 0.33967 0.84276 0.37595 0.0
C3917 C 0.31991 0.79902 0.37871 0.0
C3918 C 0.3248 0.81568 0.37454 0.0
C3919 C 0.34486 0.86118 0.36161 0.0
C3920 C 0.33682 0.84614 0.36618 0.0
H3921 H 0.28656 0.77126 0.37964 0.0
H3922 H 0.2941 0.7993 0.37317 0.0
H3923 H 0.33647 0.82519 0.38758 0.0
H3924 H 0.37078 0.87099 0.34279 0.0
H3925 H 0.35451 0.84712 0.34935 0.0
C3926 C 0.36706 0.10892 0.60405 0.0
C3927 C 0.35901 0.12234 0.60895 0.0
C3928 C 0.38024 0.09977 0.60842 0.0
C3929 C 0.41188 0.10357 0.62802 0.0
H3930 H 0.41853 0.05528 0.62327 0.0
C3931 C 0.46617 0.06617 0.64604 0.0
C3932 C 0.47642 0.05691 0.63962 0.0
C3933 C 0.45036 0.0725 0.6431 0.0
C3934 C 0.4168 0.06877 0.62465 0.0
H3935 H 0.35786 0.13626 0.62238 0.0
H3936 H 0.38057 0.12012 0.63009 0.0
H3937 H 0.39361 0.06971 0.61657 0.0
H3938 H 0.47781 0.04612 0.62531 0.0
H3939 H 0.45017 0.05716 0.62017 0.0
H3940 H 0.43507 0.10263 0.63607 0.0
C3941 C 0.37711 0.11694 0.62278 0.0
C3942 C 0.40259 0.07706 0.62078 0.0
C3943 C 0.36409 0.12618 0.61837 0.0
C3944 C 0.47022 0.05338 0.63037 0.0
C3945 C 0.45435 0.05956 0.62746 0.0
C3946 C 0.42596 0.09526 0.63195 0.0
C3947 C 0.38551 0.10375 0.61782 0.0
C3948 C 0.40007 0.09462 0.62233 0.0
C3949 C 0.44445 0.06951 0.63372 0.0
C3950 C 0.42868 0.07783 0.63022 0.0
H3951 H 0.36343 0.10577 0.59676 0.0
H3952 H 0.38657 0.08987 0.60434 0.0
H3953 H 0.41055 0.11715 0.62922 0.0
H3954 H 0.47068 0.06914 0.6532 0.0
H3955 H 0.4429 0.08002 0.64809 0.0
C3956 C 0.14344 0.1051 0.86185 0.0
C3957 C 0.1304 0.10758 0.85506 0.0
C3958 C 0.15361 0.11877 0.86483 0.0
C3959 C 0.16567 0.16327 0.85846 0.0
H3960 H 0.1734 0.16811 0.88583 0.0
C3961 C 0.1777 0.22774 0.87648 0.0
C3962 C 0.19082 0.229 0.88333 0.0
C3963 C 0.17301 0.21196 0.87272 0.0
C3964 C 0.17158 0.16679 0.87816 0.0
H3965 H 0.11833 0.12622 0.84578 0.0
H3966 H 0.13564 0.15007 0.85116 0.0
H3967 H 0.16044 0.14202 0.87963 0.0
H3968 H 0.20924 0.21447 0.8916 0.0
H3969 H 0.20058 0.18671 0.88519 0.0
H3970 H 0.17613 0.18838 0.85706 0.0
C3971 C 0.13819 0.13756 0.85412 0.0
C3972 C 0.16419 0.15184 0.87459 0.0
C3973 C 0.12808 0.12392 0.85113 0.0
C3974 C 0.19897 0.21397 0.88642 0.0
C3975 C 0.1941 0.19809 0.88272 0.0
C3976 C 0.17291 0.17824 0.86203 0.0
C3977 C 0.15097 0.1352 0.86108 0.0
C3978 C 0.16077 0.15009 0.86472 0.0
C3979 C 0.18114 0.19698 0.87579 0.0
C3980 C 0.17555 0.1803 0.87193 0.0
H3981 H 0.14549 0.09269 0.86507 0.0
H3982 H 0.16345 0.11648 0.87013 0.0
H3983 H 0.16359 0.16217 0.85079 0.0
H3984 H 0.17081 0.23894 0.87411 0.0
H3985 H 0.16272 0.21142 0.86754 0.0
C3986 C 0.12905 0.86802 0.1181 0.0
C3987 C 0.13574 0.87313 0.1092 0.0
C3988 C 0.11529 0.87669 0.12217 0.0
C3989 C 0.09028 0.9169 0.12073 0.0
H3990 H 0.05561 0.88947 0.13322 0.0
C3991 C 0.02232 0.94097 0.12994 0.0
C3992 C 0.0155 0.93606 0.13885 0.0
C3993 C 0.03807 0.93461 0.12689 0.0
C3994 C 0.06529 0.89733 0.12987 0.0
H3995 H 0.13342 0.89141 0.09761 0.0
H3996 H 0.10907 0.90636 0.1046 0.0
H3997 H 0.08085 0.87573 0.12667 0.0
H3998 H 0.01995 0.92098 0.15165 0.0
H3999 H 0.04746 0.90986 0.14631 0.0
H4000 H 0.07429 0.93845 0.12373 0.0
C4001 C 0.11466 0.89586 0.10854 0.0
C4002 C 0.07979 0.88947 0.12612 0.0
C4003 C 0.12856 0.88727 0.10451 0.0
C4004 C 0.02494 0.92506 0.14477 0.0
C4005 C 0.0406 0.91859 0.14169 0.0
C4006 C 0.07566 0.92475 0.12442 0.0
C4007 C 0.10777 0.89058 0.11739 0.0
C4008 C 0.09248 0.89913 0.1215 0.0
C4009 C 0.0472 0.9231 0.13265 0.0
C4010 C 0.06303 0.91503 0.12902 0.0
H4011 H 0.13455 0.85736 0.12196 0.0
H4012 H 0.11058 0.8725 0.12908 0.0
H4013 H 0.0999 0.92477 0.11733 0.0
H4014 H 0.01538 0.94956 0.12527 0.0
H4015 H 0.0428 0.93824 0.11987 0.0
C4016 C 0.68507 0.76749 0.87787 0.0
C4017 C 0.67562 0.75805 0.88462 0.0
C4018 C 0.67809 0.78203 0.87359 0.0
C4019 C 0.6367 0.80164 0.86802 0.0
H4020 H 0.66224 0.84378 0.8656 0.0
C4021 C 0.60387 0.8652 0.8597 0.0
C4022 C 0.61195 0.87672 0.85346 0.0
C4023 C 0.61228 0.85055 0.86282 0.0
C4024 C 0.65503 0.83203 0.86609 0.0
H4025 H 0.65171 0.75692 0.89243 0.0
H4026 H 0.63952 0.78213 0.8849 0.0
H4027 H 0.67598 0.81856 0.87243 0.0
H4028 H 0.63518 0.8818 0.84551 0.0
H4029 H 0.64993 0.85607 0.85095 0.0
H4030 H 0.61575 0.815 0.86173 0.0
C4031 C 0.65221 0.77812 0.88281 0.0
C4032 C 0.66289 0.81761 0.87002 0.0
C4033 C 0.65919 0.76367 0.88712 0.0
C4034 C 0.62868 0.87324 0.85039 0.0
C4035 C 0.63712 0.85852 0.85351 0.0
C4036 C 0.62888 0.81599 0.86407 0.0
C4037 C 0.6615 0.78736 0.87593 0.0
C4038 C 0.65369 0.80237 0.87118 0.0
C4039 C 0.62899 0.84701 0.85975 0.0
C4040 C 0.63784 0.83144 0.86322 0.0
H4041 H 0.6977 0.76339 0.87572 0.0
H4042 H 0.6855 0.78885 0.86826 0.0
H4043 H 0.6294 0.78995 0.86863 0.0
H4044 H 0.59112 0.86768 0.86236 0.0
H4045 H 0.60578 0.84215 0.86779 0.0
C4046 C 0.98313 0.92622 0.62474 0.0
C4047 C 0.98351 0.93511 0.6335 0.0
C4048 C 0.96764 0.921 0.62078 0.0
C4049 C 0.92425 0.90967 0.62778 0.0
H4050 H 0.91487 0.91257 0.60049 0.0
C4051 C 0.86143 0.88433 0.61212 0.0
C4052 C 0.86271 0.87465 0.60365 0.0
C4053 C 0.87523 0.89399 0.61537 0.0
C4054 C 0.91735 0.91156 0.60812 0.0
H4055 H 0.96798 0.94568 0.64492 0.0
H4056 H 0.94086 0.93654 0.63799 0.0
H4057 H 0.94092 0.92525 0.60694 0.0
H4058 H 0.87929 0.8682 0.59172 0.0
H4059 H 0.90356 0.88454 0.59756 0.0
H4060 H 0.90106 0.89556 0.62898 0.0
C4061 C 0.95257 0.93359 0.63421 0.0
C4062 C 0.93224 0.91885 0.61181 0.0
C4063 C 0.96806 0.93892 0.63814 0.0
C4064 C 0.87796 0.87527 0.59836 0.0
C4065 C 0.89181 0.88485 0.60164 0.0
C4066 C 0.90943 0.90231 0.6241 0.0
C4067 C 0.95221 0.92446 0.62553 0.0
C4068 C 0.93591 0.91782 0.62166 0.0
C4069 C 0.89069 0.8941 0.61026 0.0
C4070 C 0.90588 0.90301 0.61421 0.0
H4071 H 0.99484 0.92329 0.62095 0.0
H4072 H 0.96777 0.91386 0.61412 0.0
H4073 H 0.92685 0.90846 0.63539 0.0
H4074 H 0.84994 0.88406 0.61643 0.0
H4075 H 0.87384 0.90118 0.62196 0.0
C4076 C 0.79851 0.22027 0.38147 0.0
C4077 C 0.81039 0.23354 0.38265 0.0
C4078 C 0.80333 0.20494 0.37711 0.0
C4079 C 0.8365 0.18633 0.36138 0.0
H4080 H 0.82264 0.14337 0.37275 0.0
C4081 C 0.85938 0.12227 0.34586 0.0
C4082 C 0.86565 0.11065 0.35268 0.0
C4083 C 0.8499 0.13647 0.34876 0.0
C4084 C 0.8266 0.15527 0.36949 0.0
H4085 H 0.83672 0.24098 0.38038 0.0
H4086 H 0.84513 0.21429 0.37283 0.0
H4087 H 0.81185 0.1701 0.37937 0.0
H4088 H 0.86657 0.10461 0.36787 0.0
H4089 H 0.85018 0.12935 0.37292 0.0
H4090 H 0.85183 0.17161 0.35177 0.0
C4091 C 0.832 0.21584 0.37508 0.0
C4092 C 0.82029 0.17057 0.37322 0.0
C4093 C 0.82719 0.23112 0.37943 0.0
C4094 C 0.86174 0.1132 0.36242 0.0
C4095 C 0.85231 0.12739 0.36532 0.0
C4096 C 0.84281 0.17105 0.35765 0.0
C4097 C 0.82012 0.20258 0.37384 0.0
C4098 C 0.82547 0.18628 0.36933 0.0
C4099 C 0.84654 0.13935 0.35855 0.0
C4100 C 0.83821 0.15536 0.36179 0.0
H4101 H 0.78541 0.22183 0.38377 0.0
H4102 H 0.79385 0.19502 0.37618 0.0
H4103 H 0.84051 0.19822 0.35812 0.0
H4104 H 0.86194 0.12049 0.33828 0.0
H4105 H 0.8454 0.14531 0.34335 0.0
C4106 C 0.61942 0.11044 0.09748 0.0
C4107 C 0.63415 0.11307 0.10304 0.0
C4108 C 0.60603 0.10046 0.10096 0.0
C4109 C 0.58772 0.08606 0.12391 0.0
H4110 H 0.55822 0.05933 0.10739 0.0
C4111 C 0.5279 0.05183 0.1384 0.0
C4112 C 0.51294 0.05494 0.13313 0.0
C4113 C 0.54382 0.05619 0.13461 0.0
C4114 C 0.56635 0.06676 0.11208 0.0
H4115 H 0.64656 0.10667 0.11649 0.0
H4116 H 0.62344 0.08884 0.12242 0.0
H4117 H 0.58449 0.07148 0.1009 0.0
H4118 H 0.50294 0.06436 0.11963 0.0
H4119 H 0.53073 0.07204 0.11303 0.0
H4120 H 0.56948 0.08151 0.13505 0.0
C4121 C 0.62211 0.09479 0.11544 0.0
C4122 C 0.58137 0.07375 0.10837 0.0
C4123 C 0.63547 0.10485 0.11198 0.0
C4124 C 0.51425 0.062 0.12389 0.0
C4125 C 0.53017 0.06622 0.12007 0.0
C4126 C 0.57278 0.07897 0.12763 0.0
C4127 C 0.60706 0.09278 0.11007 0.0
C4128 C 0.59207 0.08377 0.1142 0.0
C4129 C 0.5451 0.06359 0.12544 0.0
C4130 C 0.56178 0.06953 0.12171 0.0
H4131 H 0.6181 0.11634 0.09049 0.0
H4132 H 0.59459 0.09931 0.09665 0.0
H4133 H 0.59548 0.09392 0.12858 0.0
H4134 H 0.52726 0.04648 0.14556 0.0
H4135 H 0.55513 0.05393 0.13889 0.0
C4136 C 0.68267 0.21782 0.60791 0.0
C4137 C 0.68719 0.23177 0.61371 0.0
C4138 C 0.67796 0.2023 0.61205 0.0
C4139 C 0.66033 0.18455 0.63431 0.0
H4140 H 0.67252 0.1413 0.62265 0.0
C4141 C 0.63493 0.12072 0.6491 0.0
C4142 C 0.62823 0.10958 0.64214 0.0
C4143 C 0.64477 0.13477 0.64637 0.0
C4144 C 0.66898 0.15329 0.62597 0.0
H4145 H 0.6909 0.2402 0.62839 0.0
H4146 H 0.68262 0.21308 0.63563 0.0
H4147 H 0.68494 0.16768 0.61649 0.0
H4148 H 0.62688 0.10435 0.62686 0.0
H4149 H 0.64401 0.12879 0.62211 0.0
H4150 H 0.64406 0.17024 0.64364 0.0
C4151 C 0.6825 0.21423 0.62788 0.0
C4152 C 0.67608 0.16838 0.62244 0.0
C4153 C 0.6872 0.22977 0.62374 0.0
C4154 C 0.63203 0.11253 0.63242 0.0
C4155 C 0.64188 0.12654 0.62969 0.0
C4156 C 0.65324 0.16946 0.63784 0.0
C4157 C 0.67768 0.20037 0.62209 0.0
C4158 C 0.67156 0.18421 0.62645 0.0
C4159 C 0.64815 0.13797 0.63662 0.0
C4160 C 0.65721 0.1537 0.63358 0.0
H4161 H 0.6823 0.21901 0.60017 0.0
H4162 H 0.67404 0.19196 0.60739 0.0
H4163 H 0.65644 0.19654 0.63749 0.0
H4164 H 0.63248 0.11863 0.65666 0.0
H4165 H 0.64964 0.14321 0.65188 0.0
C4166 C 0.5151 0.91675 0.36556 0.0
C4167 C 0.51254 0.93345 0.3622 0.0
C4168 C 0.53044 0.91219 0.36995 0.0
C4169 C 0.57557 0.92445 0.37152 0.0
H4170 H 0.57539 0.89376 0.39335 0.0
C4171 C 0.63391 0.88478 0.38279 0.0
C4172 C 0.63672 0.88169 0.39261 0.0
C4173 C 0.61945 0.89363 0.37976 0.0
C4174 C 0.57568 0.90254 0.38735 0.0
H4175 H 0.52399 0.95856 0.36099 0.0
H4176 H 0.55083 0.95055 0.36862 0.0
H4177 H 0.54847 0.90427 0.38694 0.0
H4178 H 0.62701 0.88629 0.40696 0.0
H4179 H 0.60169 0.90176 0.40164 0.0
H4180 H 0.6028 0.92264 0.3719 0.0
C4181 C 0.54102 0.94094 0.36775 0.0
C4182 C 0.56024 0.90838 0.3836 0.0
C4183 C 0.52566 0.94551 0.36336 0.0
C4184 C 0.62506 0.88821 0.39934 0.0
C4185 C 0.61057 0.89708 0.39629 0.0
C4186 C 0.59102 0.91858 0.37526 0.0
C4187 C 0.54357 0.92422 0.37109 0.0
C4188 C 0.56 0.91915 0.37554 0.0
C4189 C 0.60746 0.8996 0.38646 0.0
C4190 C 0.59123 0.90732 0.38311 0.0
H4191 H 0.50536 0.90709 0.36464 0.0
H4192 H 0.53213 0.89912 0.37228 0.0
H4193 H 0.57581 0.93268 0.36527 0.0
H4194 H 0.6425 0.87972 0.37741 0.0
H4195 H 0.61731 0.89514 0.37212 0.0
C4196 C 0.81194 0.77902 0.1028 0.0
C4197 C 0.80716 0.76594 0.10916 0.0
C4198 C 0.81728 0.79485 0.10628 0.0
C4199 C 0.81754 0.82242 0.12795 0.0
H4200 H 0.85751 0.84208 0.11587 0.0
C4201 C 0.85814 0.87606 0.14516 0.0
C4202 C 0.86503 0.88855 0.13904 0.0
C4203 C 0.84921 0.86214 0.14139 0.0
C4204 C 0.84618 0.83693 0.11924 0.0
H4205 H 0.80367 0.75952 0.12419 0.0
H4206 H 0.81345 0.78698 0.13027 0.0
H4207 H 0.84541 0.81589 0.1095 0.0
H4208 H 0.86753 0.89641 0.12417 0.0
H4209 H 0.85168 0.87238 0.11764 0.0
H4210 H 0.81858 0.84339 0.13781 0.0
C4211 C 0.8129 0.78505 0.12257 0.0
C4212 C 0.83923 0.82189 0.11558 0.0
C4213 C 0.80751 0.76922 0.11909 0.0
C4214 C 0.86229 0.88711 0.1291 0.0
C4215 C 0.85337 0.87322 0.12534 0.0
C4216 C 0.82453 0.83748 0.13163 0.0
C4217 C 0.81804 0.79798 0.11621 0.0
C4218 C 0.82488 0.81439 0.11992 0.0
C4219 C 0.847 0.86041 0.13142 0.0
C4220 C 0.83899 0.84485 0.12734 0.0
H4221 H 0.81196 0.77691 0.09511 0.0
H4222 H 0.82094 0.80461 0.10118 0.0
H4223 H 0.80635 0.81708 0.13138 0.0
H4224 H 0.85982 0.87692 0.15286 0.0
H4225 H 0.84454 0.85245 0.14627 0.0
C4226 C 0.96819 0.06038 0.85863 0.0
C4227 C 0.98274 0.05662 0.86413 0.0
C4228 C 0.95298 0.06519 0.86309 0.0
C4229 C 0.93729 0.08485 0.88527 0.0
H4230 H 0.89303 0.07101 0.8756 0.0
C4231 C 0.87515 0.11155 0.90143 0.0
C4232 C 0.86301 0.11709 0.8947 0.0
C4233 C 0.88895 0.10149 0.89854 0.0
C4234 C 0.9053 0.07504 0.87836 0.0
H4235 H 0.99249 0.05422 0.87864 0.0
H4236 H 0.96594 0.06272 0.88642 0.0
H4237 H 0.91884 0.05826 0.86891 0.0
H4238 H 0.85571 0.11623 0.87969 0.0
H4239 H 0.87976 0.09884 0.87465 0.0
H4240 H 0.92387 0.10198 0.89451 0.0
C4241 C 0.9664 0.06218 0.87866 0.0
C4242 C 0.92007 0.06774 0.87453 0.0
C4243 C 0.9816 0.05736 0.87419 0.0
C4244 C 0.86471 0.11197 0.88508 0.0
C4245 C 0.87849 0.10197 0.88219 0.0
C4246 C 0.92254 0.09218 0.88908 0.0
C4247 C 0.95198 0.06635 0.87315 0.0
C4248 C 0.93623 0.0728 0.87782 0.0
C4249 C 0.89092 0.09681 0.88885 0.0
C4250 C 0.90639 0.0876 0.88554 0.0
H4251 H 0.9687 0.06012 0.85086 0.0
H4252 H 0.94217 0.06856 0.85864 0.0
H4253 H 0.94956 0.08919 0.88788 0.0
H4254 H 0.87404 0.11505 0.90893 0.0
H4255 H 0.89817 0.09751 0.90388 0.0
C4256 C 0.79784 0.7172 0.61399 0.0
C4257 C 0.80484 0.7257 0.60602 0.0
C4258 C 0.80458 0.7016 0.61702 0.0
C4259 C 0.84476 0.67935 0.61774 0.0
H4260 H 0.81862 0.63868 0.62361 0.0
C4261 C 0.87839 0.6177 0.62906 0.0
C4262 C 0.87056 0.60738 0.63599 0.0
C4263 C 0.86955 0.6313 0.62496 0.0
C4264 C 0.82608 0.65 0.62214 0.0
H4265 H 0.82405 0.72442 0.59485 0.0
H4266 H 0.83597 0.69726 0.60024 0.0
H4267 H 0.80418 0.66385 0.61716 0.0
H4268 H 0.84743 0.60294 0.64409 0.0
H4269 H 0.83211 0.62725 0.63726 0.0
H4270 H 0.86651 0.66609 0.62305 0.0
C4271 C 0.82522 0.70263 0.60408 0.0
C4272 C 0.81781 0.66434 0.61839 0.0
C4273 C 0.81833 0.71808 0.60097 0.0
C4274 C 0.85368 0.61076 0.63872 0.0
C4275 C 0.84491 0.6246 0.63475 0.0
C4276 C 0.85297 0.66519 0.62163 0.0
C4277 C 0.81859 0.69441 0.61222 0.0
C4278 C 0.82712 0.67908 0.6161 0.0
C4279 C 0.85278 0.63512 0.62785 0.0
C4280 C 0.8438 0.65025 0.62381 0.0
H4281 H 0.78737 0.7228 0.61797 0.0
H4282 H 0.79931 0.69552 0.62334 0.0
H4283 H 0.85216 0.6907 0.6162 0.0
H4284 H 0.89133 0.61513 0.62675 0.0
H4285 H 0.87591 0.63876 0.61949 0.0
C4286 C 0.63073 0.60037 0.89512 0.0
C4287 C 0.64125 0.60928 0.88867 0.0
C4288 C 0.61696 0.59076 0.89177 0.0
C4289 C 0.59785 0.57172 0.86983 0.0
H4290 H 0.55528 0.57933 0.88332 0.0
C4291 C 0.5317 0.55965 0.8529 0.0
C4292 C 0.51856 0.5536 0.85886 0.0
C4293 C 0.54766 0.56368 0.85675 0.0
C4294 C 0.56709 0.57679 0.87956 0.0
H4295 H 0.6458 0.61475 0.87362 0.0
H4296 H 0.62177 0.59806 0.86777 0.0
H4297 H 0.58156 0.5911 0.88975 0.0
H4298 H 0.51216 0.54605 0.8734 0.0
H4299 H 0.54001 0.55303 0.8801 0.0
H4300 H 0.58321 0.55774 0.8595 0.0
C4301 C 0.62429 0.59828 0.87542 0.0
C4302 C 0.58219 0.58354 0.88325 0.0
C4303 C 0.63807 0.60786 0.87877 0.0
C4304 C 0.52193 0.55102 0.86866 0.0
C4305 C 0.53787 0.55501 0.8725 0.0
C4306 C 0.58272 0.56495 0.86612 0.0
C4307 C 0.61339 0.58988 0.88189 0.0
C4308 C 0.59771 0.5813 0.87837 0.0
C4309 C 0.55082 0.5617 0.86663 0.0
C4310 C 0.56714 0.56762 0.87088 0.0
H4311 H 0.63304 0.60097 0.90278 0.0
H4312 H 0.60897 0.5842 0.89692 0.0
H4313 H 0.60965 0.56957 0.86597 0.0
H4314 H 0.52945 0.5619 0.84533 0.0
H4315 H 0.5573 0.56899 0.85205 0.0
C4316 C 0.644 0.39108 0.13297 0.0
C4317 C 0.63216 0.38909 0.14048 0.0
C4318 C 0.65359 0.37717 0.12973 0.0
C4319 C 0.66548 0.3323 0.13585 0.0
H4320 H 0.66869 0.32705 0.10822 0.0
C4321 C 0.67193 0.2674 0.11722 0.0
C4322 C 0.68457 0.26561 0.11011 0.0
C4323 C 0.66821 0.28335 0.12112 0.0
C4324 C 0.6681 0.32847 0.11595 0.0
H4325 H 0.62192 0.37115 0.15084 0.0
H4326 H 0.63799 0.34688 0.14497 0.0
H4327 H 0.65777 0.35363 0.11494 0.0
H4328 H 0.70311 0.27943 0.10152 0.0
H4329 H 0.69604 0.30747 0.10812 0.0
H4330 H 0.67495 0.30672 0.13678 0.0
C4331 C 0.64013 0.35917 0.14164 0.0
C4332 C 0.66192 0.34372 0.11982 0.0
C4333 C 0.63067 0.37307 0.14492 0.0
C4334 C 0.69315 0.28031 0.10688 0.0
C4335 C 0.68922 0.29636 0.11069 0.0
C4336 C 0.67142 0.317 0.13197 0.0
C4337 C 0.6515 0.36095 0.13389 0.0
C4338 C 0.66016 0.34568 0.12982 0.0
C4339 C 0.67682 0.29796 0.11791 0.0
C4340 C 0.67244 0.31482 0.12199 0.0
H4341 H 0.64543 0.40322 0.12935 0.0
H4342 H 0.66241 0.37908 0.12385 0.0
H4343 H 0.66471 0.33349 0.14359 0.0
H4344 H 0.66473 0.25649 0.11972 0.0
H4345 H 0.65836 0.28432 0.12654 0.0
C4346 C 0.87528 0.37529 0.39385 0.0
C4347 C 0.85892 0.37871 0.3902 0.0
C4348 C 0.88957 0.38337 0.39001 0.0
C4349 C 0.90567 0.41974 0.37673 0.0
H4350 H 0.93988 0.38787 0.36763 0.0
C4351 C 0.96687 0.44172 0.35674 0.0
C4352 C 0.982 0.43291 0.35895 0.0
C4353 C 0.95112 0.43583 0.36011 0.0
C4354 C 0.9306 0.39699 0.37024 0.0
H4355 H 0.8447 0.39412 0.38002 0.0
H4356 H 0.86982 0.4086 0.37348 0.0
H4357 H 0.91388 0.37715 0.37498 0.0
H4358 H 0.99226 0.41073 0.36628 0.0
H4359 H 0.96516 0.40104 0.37252 0.0
H4360 H 0.92267 0.43964 0.37232 0.0
C4361 C 0.87144 0.3995 0.37926 0.0
C4362 C 0.91568 0.39082 0.3744 0.0
C4363 C 0.8571 0.39124 0.38303 0.0
C4364 C 0.98096 0.41806 0.36457 0.0
C4365 C 0.96531 0.4123 0.36802 0.0
C4366 C 0.92079 0.42597 0.37269 0.0
C4367 C 0.88781 0.39523 0.38254 0.0
C4368 C 0.90319 0.40211 0.37779 0.0
C4369 C 0.95016 0.42104 0.36581 0.0
C4370 C 0.93355 0.41464 0.36952 0.0
H4371 H 0.8771 0.36605 0.39954 0.0
H4372 H 0.90207 0.3801 0.39276 0.0
H4373 H 0.89616 0.42866 0.3793 0.0
H4374 H 0.9672 0.45329 0.3525 0.0
H4375 H 0.9397 0.44279 0.35819 0.0
C4376 C 0.86692 0.37304 0.85176 0.0
C4377 C 0.86424 0.38939 0.8556 0.0
C4378 C 0.857 0.35927 0.85476 0.0
C4379 C 0.83114 0.34489 0.87525 0.0
H4380 H 0.82097 0.30729 0.85808 0.0
C4381 C 0.79894 0.28157 0.88749 0.0
C4382 C 0.80807 0.2669 0.88473 0.0
C4383 C 0.80308 0.29754 0.88365 0.0
C4384 C 0.82368 0.31774 0.86294 0.0
H4385 H 0.84863 0.40419 0.8654 0.0
H4386 H 0.83101 0.38016 0.87048 0.0
H4387 H 0.83243 0.33381 0.85157 0.0
H4388 H 0.82904 0.25774 0.87593 0.0
H4389 H 0.83582 0.2854 0.86906 0.0
H4390 H 0.82249 0.32861 0.88663 0.0
C4391 C 0.841 0.37796 0.86526 0.0
C4392 C 0.8303 0.33289 0.85923 0.0
C4393 C 0.85098 0.39177 0.86227 0.0
C4394 C 0.82142 0.26862 0.87805 0.0
C4395 C 0.82537 0.28449 0.87412 0.0
C4396 C 0.82434 0.32976 0.87895 0.0
C4397 C 0.84406 0.3615 0.86163 0.0
C4398 C 0.83462 0.34645 0.86538 0.0
C4399 C 0.81626 0.29909 0.87688 0.0
C4400 C 0.82104 0.31589 0.87286 0.0
H4401 H 0.87684 0.37082 0.84649 0.0
H4402 H 0.85989 0.34675 0.85189 0.0
H4403 H 0.83445 0.355 0.88021 0.0
H4404 H 0.78845 0.28072 0.89252 0.0
H4405 H 0.79586 0.30864 0.88587 0.0
C4406 C 0.98219 0.57706 0.12969 0.0
C4407 C 0.98269 0.56217 0.13531 0.0
C4408 C 0.96671 0.58354 0.12641 0.0
C4409 C 0.92163 0.57212 0.12199 0.0
H4410 H 0.91622 0.62129 0.12133 0.0
C4411 C 0.85828 0.60767 0.11288 0.0
C4412 C 0.8599 0.62156 0.10654 0.0
C4413 C 0.87277 0.59928 0.11636 0.0
C4414 C 0.91759 0.60754 0.12141 0.0
H4415 H 0.96721 0.54239 0.14184 0.0
H4416 H 0.94003 0.55404 0.13632 0.0
H4417 H 0.94222 0.60903 0.12787 0.0
H4418 H 0.87798 0.63682 0.09845 0.0
H4419 H 0.90317 0.62243 0.10466 0.0
H4420 H 0.89674 0.5708 0.11562 0.0
C4421 C 0.95171 0.56053 0.13434 0.0
C4422 C 0.9325 0.6005 0.12514 0.0
C4423 C 0.96726 0.55396 0.13759 0.0
C4424 C 0.87628 0.62646 0.10351 0.0
C4425 C 0.89071 0.6182 0.10703 0.0
C4426 C 0.90659 0.5792 0.11833 0.0
C4427 C 0.95127 0.57544 0.12873 0.0
C4428 C 0.93485 0.58272 0.12532 0.0
C4429 C 0.88912 0.60473 0.11361 0.0
C4430 C 0.90458 0.59699 0.11787 0.0
H4431 H 0.99377 0.58389 0.12791 0.0
H4432 H 0.9669 0.5949 0.12198 0.0
H4433 H 0.92308 0.55839 0.12196 0.0
H4434 H 0.84586 0.60364 0.11542 0.0
H4435 H 0.87121 0.58896 0.12145 0.0
C4436 C 0.6225 0.62567 0.35131 0.0
C4437 C 0.62567 0.6095 0.3553 0.0
C4438 C 0.63051 0.64015 0.35498 0.0
C4439 C 0.66659 0.65647 0.36855 0.0
H4440 H 0.63504 0.69191 0.37641 0.0
C4441 C 0.68871 0.71742 0.38868 0.0
C4442 C 0.68051 0.73279 0.38625 0.0
C4443 C 0.68264 0.70183 0.38517 0.0
C4444 C 0.64409 0.6823 0.37414 0.0
H4445 H 0.64053 0.59583 0.36597 0.0
H4446 H 0.65492 0.62122 0.37219 0.0
H4447 H 0.62417 0.66585 0.36919 0.0
H4448 H 0.65926 0.74366 0.37836 0.0
H4449 H 0.6493 0.7168 0.3719 0.0
H4450 H 0.68659 0.67313 0.37321 0.0
C4451 C 0.64607 0.62257 0.36627 0.0
C4452 C 0.63782 0.66734 0.37004 0.0
C4453 C 0.63786 0.60805 0.36268 0.0
C4454 C 0.6661 0.73216 0.38026 0.0
C4455 C 0.66019 0.71665 0.37668 0.0
C4456 C 0.67292 0.67161 0.37253 0.0
C4457 C 0.64208 0.63877 0.36262 0.0
C4458 C 0.649 0.65436 0.36714 0.0
C4459 C 0.66831 0.70126 0.37911 0.0
C4460 C 0.66173 0.68478 0.37529 0.0
H4461 H 0.61356 0.62722 0.34545 0.0
H4462 H 0.62746 0.6525 0.35195 0.0
H4463 H 0.67545 0.64661 0.36635 0.0
H4464 H 0.69994 0.71743 0.3932 0.0
H4465 H 0.68912 0.69022 0.38728 0.0
C4466 C 0.63774 0.39341 0.61073 0.0
C4467 C 0.63545 0.37943 0.60453 0.0
C4468 C 0.62378 0.40322 0.61367 0.0
C4469 C 0.57811 0.41185 0.60817 0.0
H4470 H 0.57519 0.42268 0.6353 0.0
C4471 C 0.51468 0.42211 0.62767 0.0
C4472 C 0.51315 0.43622 0.63385 0.0
C4473 C 0.5304 0.41779 0.62368 0.0
C4474 C 0.57595 0.41997 0.62768 0.0
H4475 H 0.61681 0.3653 0.59621 0.0
H4476 H 0.59251 0.38195 0.60155 0.0
H4477 H 0.60149 0.41063 0.62881 0.0
H4478 H 0.52714 0.45679 0.64071 0.0
H4479 H 0.55482 0.44879 0.63396 0.0
H4480 H 0.55226 0.42045 0.60716 0.0
C4481 C 0.60507 0.38554 0.60407 0.0
C4482 C 0.59102 0.41312 0.62395 0.0
C4483 C 0.61899 0.37581 0.60111 0.0
C4484 C 0.52787 0.44573 0.63607 0.0
C4485 C 0.54369 0.44124 0.63217 0.0
C4486 C 0.56302 0.41852 0.61192 0.0
C4487 C 0.60724 0.39924 0.61048 0.0
C4488 C 0.59212 0.40858 0.61419 0.0
C4489 C 0.54504 0.42731 0.62588 0.0
C4490 C 0.56167 0.42227 0.62174 0.0
H4491 H 0.65025 0.39649 0.61353 0.0
H4492 H 0.62593 0.4138 0.61852 0.0
H4493 H 0.57865 0.40889 0.60058 0.0
H4494 H 0.50376 0.41421 0.62598 0.0
H4495 H 0.53117 0.40677 0.61901 0.0
C4496 C 0.11511 0.36314 0.35124 0.0
C4497 C 0.12429 0.3781 0.3493 0.0
C4498 C 0.12349 0.34842 0.35427 0.0
C4499 C 0.16359 0.33405 0.36563 0.0
H4500 H 0.14576 0.28946 0.35891 0.0
C4501 C 0.19335 0.26935 0.37769 0.0
C4502 C 0.18165 0.25816 0.38209 0.0
C4503 C 0.18768 0.28416 0.37309 0.0
C4504 C 0.15086 0.30184 0.36083 0.0
H4505 H 0.14952 0.38932 0.34873 0.0
H4506 H 0.16433 0.36341 0.35383 0.0
H4507 H 0.13388 0.31484 0.35135 0.0
H4508 H 0.15484 0.25424 0.38534 0.0
H4509 H 0.14501 0.2797 0.37702 0.0
H4510 H 0.18071 0.32081 0.37505 0.0
C4511 C 0.15057 0.36316 0.35321 0.0
C4512 C 0.14402 0.31639 0.35655 0.0
C4513 C 0.14212 0.37797 0.35026 0.0
C4514 C 0.16419 0.26227 0.38184 0.0
C4515 C 0.15854 0.2769 0.37712 0.0
C4516 C 0.1706 0.31943 0.36981 0.0
C4517 C 0.14133 0.34824 0.35535 0.0
C4518 C 0.14999 0.33272 0.35907 0.0
C4519 C 0.17022 0.28791 0.37267 0.0
C4520 C 0.16401 0.30326 0.3676 0.0
H4521 H 0.10132 0.36295 0.35073 0.0
H4522 H 0.11589 0.33734 0.35606 0.0
H4523 H 0.16839 0.34639 0.36783 0.0
H4524 H 0.20685 0.2665 0.3776 0.0
H4525 H 0.1969 0.29246 0.36967 0.0
C4526 C 0.37938 0.35868 0.10663 0.0
C4527 C 0.36651 0.36718 0.10151 0.0
C4528 C 0.394 0.36734 0.10955 0.0
C4529 C 0.4108 0.41009 0.1148 0.0
H4530 H 0.45416 0.38636 0.11379 0.0
C4531 C 0.4756 0.4398 0.12669 0.0
C4532 C 0.48559 0.42926 0.13264 0.0
C4533 C 0.46096 0.43338 0.12223 0.0
C4534 C 0.44213 0.39312 0.11414 0.0
H4535 H 0.3589 0.39148 0.09542 0.0
H4536 H 0.3846 0.40669 0.10055 0.0
H4537 H 0.42891 0.37312 0.10685 0.0
H4538 H 0.4876 0.40395 0.13884 0.0
H4539 H 0.46232 0.39274 0.13092 0.0
H4540 H 0.42417 0.43008 0.12216 0.0
C4541 C 0.38325 0.39331 0.10235 0.0
C4542 C 0.42767 0.38554 0.11019 0.0
C4543 C 0.36856 0.38462 0.09942 0.0
C4544 C 0.48045 0.4123 0.13414 0.0
C4545 C 0.46595 0.40588 0.12962 0.0
C4546 C 0.42534 0.41774 0.11872 0.0
C4547 C 0.39616 0.38473 0.10742 0.0
C4548 C 0.41176 0.39374 0.11068 0.0
C4549 C 0.45615 0.41629 0.12356 0.0
C4550 C 0.44104 0.40912 0.11863 0.0
H4551 H 0.37803 0.34536 0.10855 0.0
H4552 H 0.4035 0.36044 0.11364 0.0
H4553 H 0.3987 0.41669 0.11534 0.0
H4554 H 0.4793 0.45287 0.1253 0.0
H4555 H 0.45365 0.44165 0.11756 0.0
C4556 C 0.31311 0.73306 0.87126 0.0
C4557 C 0.30641 0.73238 0.8806 0.0
C4558 C 0.31826 0.71816 0.8666 0.0
C4559 C 0.31597 0.67072 0.86778 0.0
H4560 H 0.35869 0.67369 0.85384 0.0
C4561 C 0.35905 0.61294 0.85912 0.0
C4562 C 0.36734 0.61259 0.85017 0.0
C4563 C 0.34919 0.62699 0.86181 0.0
C4564 C 0.3466 0.67269 0.85757 0.0
H4565 H 0.29948 0.71564 0.89234 0.0
H4566 H 0.30892 0.6896 0.88433 0.0
H4567 H 0.34609 0.69939 0.86053 0.0
H4568 H 0.37088 0.62631 0.83678 0.0
H4569 H 0.3539 0.65097 0.84156 0.0
H4570 H 0.31697 0.6438 0.86509 0.0
C4571 C 0.30986 0.70157 0.8805 0.0
C4572 C 0.33934 0.68744 0.8614 0.0
C4573 C 0.30453 0.71648 0.88511 0.0
C4574 C 0.36499 0.62633 0.84381 0.0
C4575 C 0.35521 0.64042 0.84652 0.0
C4576 C 0.32333 0.65592 0.864 0.0
C4577 C 0.31701 0.70226 0.87123 0.0
C4578 C 0.32402 0.68663 0.86664 0.0
C4579 C 0.34748 0.64103 0.85562 0.0
C4580 C 0.33881 0.65675 0.85895 0.0
H4581 H 0.3144 0.74514 0.86756 0.0
H4582 H 0.32334 0.71913 0.85939 0.0
H4583 H 0.30402 0.66967 0.87163 0.0
H4584 H 0.36074 0.60269 0.86424 0.0
H4585 H 0.34354 0.62719 0.8689 0.0
C4586 C 0.01447 0.56445 0.62495 0.0
C4587 C 0.01377 0.55542 0.63365 0.0
C4588 C 0.03014 0.56908 0.62098 0.0
C4589 C 0.07418 0.57817 0.6279 0.0
H4590 H 0.08228 0.57728 0.60043 0.0
C4591 C 0.13641 0.60439 0.61173 0.0
C4592 C 0.13436 0.61524 0.60378 0.0
C4593 C 0.12288 0.59428 0.61494 0.0
C4594 C 0.08018 0.57767 0.60811 0.0
H4595 H 0.02892 0.5439 0.64494 0.0
H4596 H 0.05637 0.55192 0.63795 0.0
H4597 H 0.05623 0.5647 0.60693 0.0
H4598 H 0.11678 0.62329 0.59265 0.0
H4599 H 0.09307 0.60601 0.59837 0.0
H4600 H 0.09782 0.59157 0.62909 0.0
C4601 C 0.04477 0.55549 0.63424 0.0
C4602 C 0.06528 0.57046 0.61183 0.0
C4603 C 0.02908 0.55079 0.6382 0.0
C4604 C 0.11869 0.61527 0.59889 0.0
C4605 C 0.10517 0.60518 0.6021 0.0
C4606 C 0.08905 0.58541 0.62419 0.0
C4607 C 0.04546 0.56481 0.62563 0.0
C4608 C 0.06199 0.57091 0.62175 0.0
C4609 C 0.10701 0.59481 0.61026 0.0
C4610 C 0.09208 0.58552 0.61424 0.0
H4611 H 0.00288 0.568 0.62122 0.0
H4612 H 0.03024 0.57641 0.61438 0.0
H4613 H 0.07192 0.57891 0.63556 0.0
H4614 H 0.14829 0.60413 0.61569 0.0
H4615 H 0.12478 0.58626 0.62118 0.0
C4616 C 0.13176 0.61155 0.13099 0.0
C4617 C 0.12974 0.60961 0.14095 0.0
C4618 C 0.14047 0.62557 0.12727 0.0
C4619 C 0.17123 0.65934 0.13269 0.0
H4620 H 0.14685 0.68442 0.11302 0.0
C4621 C 0.19208 0.72632 0.11965 0.0
C4622 C 0.18928 0.73057 0.10996 0.0
C4623 C 0.18613 0.71088 0.12339 0.0
C4624 C 0.15402 0.67744 0.11837 0.0
H4625 H 0.13585 0.62045 0.15485 0.0
H4626 H 0.15124 0.64507 0.1483 0.0
H4627 H 0.13448 0.65854 0.11963 0.0
H4628 H 0.17833 0.72156 0.09657 0.0
H4629 H 0.16876 0.69442 0.10294 0.0
H4630 H 0.19091 0.67812 0.13135 0.0
C4631 C 0.14601 0.63569 0.1434 0.0
C4632 C 0.14687 0.66264 0.12219 0.0
C4633 C 0.13711 0.62171 0.14714 0.0
C4634 C 0.18089 0.71872 0.10404 0.0
C4635 C 0.17514 0.70322 0.10774 0.0
C4636 C 0.17852 0.67408 0.12879 0.0
C4637 C 0.14747 0.63789 0.13342 0.0
C4638 C 0.15538 0.65346 0.12938 0.0
C4639 C 0.17738 0.69923 0.11751 0.0
C4640 C 0.16998 0.68332 0.12158 0.0
H4641 H 0.12609 0.60251 0.12604 0.0
H4642 H 0.14154 0.62691 0.11955 0.0
H4643 H 0.17808 0.6524 0.1382 0.0
H4644 H 0.19876 0.73499 0.1244 0.0
H4645 H 0.188 0.70832 0.13095 0.0
C4646 C 0.13198 0.39095 0.89198 0.0
C4647 C 0.13123 0.37305 0.89259 0.0
C4648 C 0.11824 0.4002 0.88825 0.0
C4649 C 0.08136 0.39492 0.87224 0.0
H4650 H 0.06448 0.43637 0.8841 0.0
C4651 C 0.02705 0.43343 0.85509 0.0
C4652 C 0.01386 0.43832 0.86135 0.0
C4653 C 0.04254 0.42745 0.85872 0.0
C4654 C 0.06907 0.42481 0.88072 0.0
H4655 H 0.11541 0.35087 0.88986 0.0
H4656 H 0.09142 0.36699 0.88352 0.0
H4657 H 0.08898 0.42159 0.89111 0.0
H4658 H 0.00691 0.44158 0.87631 0.0
H4659 H 0.03381 0.43079 0.88264 0.0
H4660 H 0.06126 0.39777 0.86202 0.0
C4661 C 0.10267 0.37387 0.88583 0.0
C4662 C 0.08316 0.41643 0.88468 0.0
C4663 C 0.11634 0.36465 0.88958 0.0
C4664 C 0.01673 0.43766 0.87131 0.0
C4665 C 0.03222 0.43169 0.87493 0.0
C4666 C 0.06735 0.40329 0.86827 0.0
C4667 C 0.10355 0.3917 0.885 0.0
C4668 C 0.08926 0.40125 0.88056 0.0
C4669 C 0.04518 0.42623 0.86868 0.0
C4670 C 0.0609 0.41821 0.87253 0.0
H4671 H 0.14323 0.39779 0.89433 0.0
H4672 H 0.11929 0.41394 0.88769 0.0
H4673 H 0.08594 0.38338 0.86882 0.0
H4674 H 0.02522 0.43369 0.84739 0.0
H4675 H 0.05236 0.42353 0.85371 0.0
C4676 C 0.31076 0.2777 0.60804 0.0
C4677 C 0.30327 0.26447 0.61341 0.0
C4678 C 0.31517 0.2931 0.61241 0.0
C4679 C 0.32846 0.31056 0.63528 0.0
H4680 H 0.31976 0.35421 0.62315 0.0
C4681 C 0.35649 0.37299 0.65057 0.0
C4682 C 0.36343 0.38421 0.64374 0.0
C4683 C 0.34625 0.35932 0.64767 0.0
C4684 C 0.32239 0.34212 0.6266 0.0
H4685 H 0.29407 0.2574 0.62757 0.0
H4686 H 0.30234 0.28415 0.63525 0.0
H4687 H 0.30717 0.32836 0.61644 0.0
H4688 H 0.36508 0.38994 0.62854 0.0
H4689 H 0.34761 0.36603 0.62347 0.0
H4690 H 0.34434 0.32408 0.64515 0.0
C4691 C 0.30474 0.2825 0.62764 0.0
C4692 C 0.31512 0.32735 0.62278 0.0
C4693 C 0.30011 0.26715 0.62324 0.0
C4694 C 0.3597 0.38166 0.63399 0.0
C4695 C 0.34961 0.36796 0.63108 0.0
C4696 C 0.33589 0.32531 0.63904 0.0
C4697 C 0.31239 0.29556 0.62227 0.0
C4698 C 0.31838 0.3114 0.62696 0.0
C4699 C 0.34287 0.35652 0.63787 0.0
C4700 C 0.33326 0.34122 0.63462 0.0
H4701 H 0.31369 0.27603 0.6005 0.0
H4702 H 0.3213 0.30288 0.60813 0.0
H4703 H 0.33128 0.29838 0.63859 0.0
H4704 H 0.35899 0.37479 0.65815 0.0
H4705 H 0.34107 0.3509 0.6531 0.0
C4706 C 0.48283 0.56289 0.37276 0.0
C4707 C 0.48274 0.55748 0.36316 0.0
C4708 C 0.46768 0.56768 0.37728 0.0
C4709 C 0.42027 0.56669 0.37462 0.0
H4710 H 0.42275 0.60613 0.39137 0.0
C4711 C 0.36338 0.61054 0.38384 0.0
C4712 C 0.36175 0.61617 0.3934 0.0
C4713 C 0.37738 0.60075 0.38103 0.0
C4714 C 0.42188 0.59495 0.38682 0.0
H4715 H 0.46688 0.55261 0.35075 0.0
H4716 H 0.44044 0.56162 0.35847 0.0
H4717 H 0.4488 0.59426 0.38471 0.0
H4718 H 0.37317 0.61503 0.40758 0.0
H4719 H 0.39791 0.59838 0.40255 0.0
H4720 H 0.39314 0.56809 0.37642 0.0
C4721 C 0.45208 0.56172 0.36265 0.0
C4722 C 0.43683 0.58807 0.38302 0.0
C4723 C 0.46722 0.55666 0.35819 0.0
C4724 C 0.3742 0.61126 0.40012 0.0
C4725 C 0.38831 0.60164 0.39727 0.0
C4726 C 0.40528 0.57374 0.37833 0.0
C4727 C 0.45213 0.56745 0.37223 0.0
C4728 C 0.43623 0.57396 0.37678 0.0
C4729 C 0.39015 0.59653 0.38767 0.0
C4730 C 0.40596 0.58803 0.38439 0.0
H4731 H 0.49465 0.56337 0.37679 0.0
H4732 H 0.46819 0.57163 0.38472 0.0
H4733 H 0.41931 0.55562 0.37 0.0
H4734 H 0.35421 0.61426 0.37842 0.0
H4735 H 0.37861 0.59714 0.37355 0.0
loop_
_geom_bond_atom_site_label_1
_geom_bond_atom_site_label_2
_geom_bond_distance
_geom_bond_site_symmetry_2
_ccdc_geom_bond_type
Li0 N17 1.990 . S
Li0 O60 1.956 . S
Li0 O61 1.970 . S
Li0 O62 1.961 . S
Li1 N25 1.990 . S
Li1 O60 1.970 . S
Li1 O61 1.956 . S
Li1 O63 1.961 . S
Li2 N47 1.981 1_545 S
Li2 O60 1.961 . S
Li2 O62 1.956 . S
Li2 O63 1.970 . S
Li3 N53 1.990 . S
Li3 O61 1.961 . S
Li3 O62 1.970 . S
Li3 O63 1.956 . S
C4 C6 1.348 1_545 S
C4 C7 1.356 1_545 S
C4 O60 1.325 . S
N5 C8 1.314 . S
N5 C9 1.279 . S
C6 C4 1.348 1_565 S
C6 C8 1.353 . S
C6 H64 0.929 1_565 S
C7 C4 1.356 1_565 S
C7 C9 1.358 . S
C7 H65 0.930 . S
C8 N5 1.314 . S
C8 C6 1.353 . S
C8 H66 0.930 . S
C9 N5 1.279 . S
C9 C7 1.358 . S
C9 H67 0.930 . S
C10 C13 1.348 . S
C10 C14 1.356 . S
C10 O61 1.325 . S
C11 N12 1.279 . S
C11 C14 1.358 . S
C11 H68 0.930 . S
N12 C11 1.279 . S
N12 C15 1.314 . S
C13 C10 1.348 . S
C13 C15 1.353 . S
C13 H69 0.929 . S
C14 C10 1.356 . S
C14 C11 1.358 . S
C14 H70 0.930 . S
C15 N12 1.314 . S
C15 C13 1.353 . S
C15 H71 0.930 . S
C16 N17 1.314 . S
C16 C21 1.353 . S
C16 H22 0.930 . S
N17 Li0 1.990 . S
N17 C16 1.314 . S
N17 C19 1.279 . S
C18 C19 1.358 . S
C18 C20 1.356 . S
C18 H72 0.930 . S
C19 N17 1.279 . S
C19 C18 1.358 . S
C19 H23 0.930 . S
C20 C18 1.356 . S
C20 C21 1.348 . S
C21 C16 1.353 . S
C21 C20 1.348 . S
C21 H73 0.929 . S
H22 C16 0.930 . S
H23 C19 0.930 . S
C24 N25 1.314 . S
C24 C26 1.353 . S
C24 H30 0.930 . S
N25 Li1 1.990 . S
N25 C24 1.314 . S
N25 C28 1.279 . S
C26 C24 1.353 . S
C26 C29 1.348 . S
C26 H74 0.929 . S
C27 C28 1.358 . S
C27 C29 1.356 . S
C27 H75 0.930 . S
C28 N25 1.279 . S
C28 C27 1.358 . S
C28 H31 0.930 . S
C29 C26 1.348 . S
C29 C27 1.356 . S
H30 C24 0.930 . S
H31 C28 0.930 . S
C32 C34 1.348 . S
C32 C35 1.356 . S
C32 O62 1.325 . S
N33 C36 1.314 . S
N33 C37 1.279 . S
C34 C32 1.348 . S
C34 C36 1.353 . S
C34 H76 0.929 . S
C35 C32 1.356 . S
C35 C37 1.358 . S
C35 H77 0.930 . S
C36 N33 1.314 . S
C36 C34 1.353 . S
C36 H78 0.930 . S
C37 N33 1.279 . S
C37 C35 1.358 . S
C37 H79 0.930 . S
C38 C39 1.348 . S
C38 C40 1.356 . S
C38 O63 1.325 . S
C39 C38 1.348 . S
C39 C41 1.353 . S
C39 H80 0.929 . S
C40 C38 1.356 . S
C40 C42 1.358 . S
C40 H81 0.930 . S
C41 C39 1.353 . S
C41 N43 1.314 . S
C41 H82 0.930 . S
C42 C40 1.358 . S
C42 N43 1.279 . S
C42 H83 0.930 . S
N43 C41 1.314 . S
N43 C42 1.279 . S
C44 C46 1.353 . S
C44 N47 1.325 . S
C44 H50 0.930 . S
C45 N47 1.279 . S
C45 C48 1.358 . S
C45 H51 0.931 1_565 S
C46 C44 1.353 . S
C46 C49 1.348 . S
C46 H84 0.929 . S
N47 Li2 1.981 1_565 S
N47 C44 1.325 . S
N47 C45 1.279 . S
C48 C45 1.358 . S
C48 C49 1.356 . S
C48 H85 0.930 . S
C49 C46 1.348 . S
C49 C48 1.356 . S
H50 C44 0.930 . S
H51 C45 0.931 1_545 S
C52 N53 1.314 . S
C52 C54 1.353 . S
C52 H58 0.930 . S
N53 Li3 1.990 . S
N53 C52 1.314 . S
N53 C56 1.279 . S
C54 C52 1.353 . S
C54 C57 1.348 . S
C54 H86 0.929 . S
C55 C56 1.358 . S
C55 C57 1.356 . S
C55 H87 0.930 . S
C56 N53 1.279 . S
C56 C55 1.358 . S
C56 H59 0.930 . S
C57 C54 1.348 . S
C57 C55 1.356 . S
H58 C52 0.930 . S
H59 C56 0.930 . S
O60 Li0 1.956 . S
O60 Li1 1.970 . S
O60 Li2 1.961 . S
O60 C4 1.325 . S
O61 Li0 1.970 . S
O61 Li1 1.956 . S
O61 Li3 1.961 . S
O61 C10 1.325 . S
O62 Li0 1.961 . S
O62 Li2 1.956 . S
O62 Li3 1.970 . S
O62 C32 1.325 . S
O63 Li1 1.961 . S
O63 Li2 1.970 . S
O63 Li3 1.956 . S
O63 C38 1.325 . S
H64 C6 0.929 1_545 S
H65 C7 0.930 . S
H66 C8 0.930 . S
H67 C9 0.930 . S
H68 C11 0.930 . S
H69 C13 0.929 . S
H70 C14 0.930 . S
H71 C15 0.930 . S
H72 C18 0.930 . S
H73 C21 0.929 . S
H74 C26 0.929 . S
H75 C27 0.930 . S
H76 C34 0.929 . S
H77 C35 0.930 . S
H78 C36 0.930 . S
H79 C37 0.930 . S
H80 C39 0.929 . S
H81 C40 0.930 . S
H82 C41 0.930 . S
H83 C42 0.930 . S
H84 C46 0.929 . S
H85 C48 0.930 . S
H86 C54 0.929 . S
H87 C55 0.930 . S
Li88 N105 1.990 . S
Li88 O148 1.956 . S
Li88 O149 1.970 . S
Li88 O150 1.961 . S
Li89 N113 1.990 . S
Li89 O148 1.970 . S
Li89 O149 1.956 . S
Li89 O151 1.961 . S
Li90 N135 1.990 . S
Li90 O148 1.961 . S
Li90 O150 1.956 . S
Li90 O151 1.970 . S
Li91 N141 1.990 . S
Li91 O149 1.961 . S
Li91 O150 1.970 . S
Li91 O151 1.956 . S
C92 C94 1.348 . S
C92 C95 1.356 . S
C92 O148 1.325 . S
N93 C96 1.314 . S
N93 C97 1.279 . S
C94 C92 1.348 . S
C94 C96 1.353 . S
C94 H152 0.929 . S
C95 C92 1.356 . S
C95 C97 1.358 . S
C95 H153 0.930 . S
C96 N93 1.314 . S
C96 C94 1.353 . S
C96 H154 0.930 . S
C97 N93 1.279 . S
C97 C95 1.358 . S
C97 H155 0.930 . S
C98 C101 1.348 . S
C98 C102 1.356 . S
C98 O149 1.325 . S
C99 N100 1.279 . S
C99 C102 1.358 . S
C99 H156 0.930 . S
N100 C99 1.279 . S
N100 C103 1.314 . S
C101 C98 1.348 . S
C101 C103 1.353 . S
C101 H157 0.929 . S
C102 C98 1.356 . S
C102 C99 1.358 . S
C102 H158 0.930 . S
C103 N100 1.314 . S
C103 C101 1.353 . S
C103 H159 0.930 . S
C104 N105 1.314 . S
C104 C109 1.353 . S
C104 H110 0.930 . S
N105 Li88 1.990 . S
N105 C104 1.314 . S
N105 C107 1.279 . S
C106 C107 1.358 . S
C106 C108 1.356 . S
C106 H160 0.930 . S
C107 N105 1.279 . S
C107 C106 1.358 . S
C107 H111 0.930 . S
C108 C106 1.356 . S
C108 C109 1.348 . S
C109 C104 1.353 . S
C109 C108 1.348 . S
C109 H161 0.929 . S
H110 C104 0.930 . S
H111 C107 0.930 . S
C112 N113 1.314 . S
C112 C114 1.353 . S
C112 H118 0.930 . S
N113 Li89 1.990 . S
N113 C112 1.314 . S
N113 C116 1.279 . S
C114 C112 1.353 . S
C114 C117 1.348 . S
C114 H162 0.929 . S
C115 C116 1.358 . S
C115 C117 1.356 . S
C115 H163 0.930 . S
C116 N113 1.279 . S
C116 C115 1.358 . S
C116 H119 0.930 . S
C117 C114 1.348 . S
C117 C115 1.356 . S
H118 C112 0.930 . S
H119 C116 0.930 . S
C120 C122 1.348 . S
C120 C123 1.356 . S
C120 O150 1.325 . S
N121 C124 1.314 . S
N121 C125 1.279 . S
C122 C120 1.348 . S
C122 C124 1.353 . S
C122 H164 0.929 . S
C123 C120 1.356 . S
C123 C125 1.358 . S
C123 H165 0.930 . S
C124 N121 1.314 . S
C124 C122 1.353 . S
C124 H166 0.930 . S
C125 N121 1.279 . S
C125 C123 1.358 . S
C125 H167 0.930 . S
C126 C127 1.348 . S
C126 C128 1.356 . S
C126 O151 1.325 . S
C127 C126 1.348 . S
C127 C129 1.353 . S
C127 H168 0.929 . S
C128 C126 1.356 . S
C128 C130 1.358 . S
C128 H169 0.930 . S
C129 C127 1.353 . S
C129 N131 1.314 . S
C129 H170 0.930 . S
C130 C128 1.358 . S
C130 N131 1.279 . S
C130 H171 0.930 . S
N131 C129 1.314 . S
N131 C130 1.279 . S
C132 C134 1.353 . S
C132 N135 1.314 . S
C132 H138 0.930 . S
C133 N135 1.279 . S
C133 C136 1.358 . S
C133 H139 0.930 . S
C134 C132 1.353 . S
C134 C137 1.348 . S
C134 H172 0.929 . S
N135 Li90 1.990 . S
N135 C132 1.314 . S
N135 C133 1.279 . S
C136 C133 1.358 . S
C136 C137 1.356 . S
C136 H173 0.930 . S
C137 C134 1.348 . S
C137 C136 1.356 . S
H138 C132 0.930 . S
H139 C133 0.930 . S
C140 N141 1.314 . S
C140 C142 1.353 . S
C140 H146 0.930 . S
N141 Li91 1.990 . S
N141 C140 1.314 . S
N141 C144 1.279 . S
C142 C140 1.353 . S
C142 C145 1.348 . S
C142 H174 0.929 . S
C143 C144 1.358 . S
C143 C145 1.356 . S
C143 H175 0.930 . S
C144 N141 1.279 . S
C144 C143 1.358 . S
C144 H147 0.930 . S
C145 C142 1.348 . S
C145 C143 1.356 . S
H146 C140 0.930 . S
H147 C144 0.930 . S
O148 Li88 1.956 . S
O148 Li89 1.970 . S
O148 Li90 1.961 . S
O148 C92 1.325 . S
O149 Li88 1.970 . S
O149 Li89 1.956 . S
O149 Li91 1.961 . S
O149 C98 1.325 . S
O150 Li88 1.961 . S
O150 Li90 1.956 . S
O150 Li91 1.970 . S
O150 C120 1.325 . S
O151 Li89 1.961 . S
O151 Li90 1.970 . S
O151 Li91 1.956 . S
O151 C126 1.325 . S
H152 C94 0.929 . S
H153 C95 0.930 . S
H154 C96 0.930 . S
H155 C97 0.930 . S
H156 C99 0.930 . S
H157 C101 0.929 . S
H158 C102 0.930 . S
H159 C103 0.930 . S
H160 C106 0.930 . S
H161 C109 0.929 . S
H162 C114 0.929 . S
H163 C115 0.930 . S
H164 C122 0.929 . S
H165 C123 0.930 . S
H166 C124 0.930 . S
H167 C125 0.930 . S
H168 C127 0.929 . S
H169 C128 0.930 . S
H170 C129 0.930 . S
H171 C130 0.930 . S
H172 C134 0.929 . S
H173 C136 0.930 . S
H174 C142 0.929 . S
H175 C143 0.930 . S
Li176 N193 1.990 . S
Li176 O236 1.956 . S
Li176 O237 1.970 . S
Li176 O238 1.961 . S
Li177 N201 1.990 . S
Li177 O236 1.970 . S
Li177 O237 1.956 . S
Li177 O239 1.961 . S
Li178 N223 1.981 1_565 S
Li178 O236 1.961 . S
Li178 O238 1.956 . S
Li178 O239 1.970 . S
Li179 N229 1.990 . S
Li179 O237 1.961 . S
Li179 O238 1.970 . S
Li179 O239 1.956 . S
C180 C182 1.348 1_565 S
C180 C183 1.356 1_565 S
C180 O236 1.325 . S
N181 C184 1.314 . S
N181 C185 1.279 . S
C182 C180 1.348 1_545 S
C182 C184 1.353 . S
C182 H240 0.929 1_545 S
C183 C180 1.356 1_545 S
C183 C185 1.358 . S
C183 H241 0.930 . S
C184 N181 1.314 . S
C184 C182 1.353 . S
C184 H242 0.930 . S
C185 N181 1.279 . S
C185 C183 1.358 . S
C185 H243 0.930 . S
C186 C189 1.348 . S
C186 C190 1.356 . S
C186 O237 1.325 . S
C187 N188 1.279 . S
C187 C190 1.358 . S
C187 H244 0.930 . S
N188 C187 1.279 . S
N188 C191 1.314 . S
C189 C186 1.348 . S
C189 C191 1.353 . S
C189 H245 0.929 . S
C190 C186 1.356 . S
C190 C187 1.358 . S
C190 H246 0.930 . S
C191 N188 1.314 . S
C191 C189 1.353 . S
C191 H247 0.930 . S
C192 N193 1.314 . S
C192 C197 1.353 . S
C192 H198 0.930 . S
N193 Li176 1.990 . S
N193 C192 1.314 . S
N193 C195 1.279 . S
C194 C195 1.358 . S
C194 C196 1.356 . S
C194 H248 0.930 . S
C195 N193 1.279 . S
C195 C194 1.358 . S
C195 H199 0.930 . S
C196 C194 1.356 . S
C196 C197 1.348 . S
C197 C192 1.353 . S
C197 C196 1.348 . S
C197 H249 0.929 . S
H198 C192 0.930 . S
H199 C195 0.930 . S
C200 N201 1.314 . S
C200 C202 1.353 . S
C200 H206 0.930 . S
N201 Li177 1.990 . S
N201 C200 1.314 . S
N201 C204 1.279 . S
C202 C200 1.353 . S
C202 C205 1.348 . S
C202 H250 0.929 . S
C203 C204 1.358 . S
C203 C205 1.356 . S
C203 H251 0.930 . S
C204 N201 1.279 . S
C204 C203 1.358 . S
C204 H207 0.930 . S
C205 C202 1.348 . S
C205 C203 1.356 . S
H206 C200 0.930 . S
H207 C204 0.930 . S
C208 C210 1.348 . S
C208 C211 1.356 . S
C208 O238 1.325 . S
N209 C212 1.314 . S
N209 C213 1.279 . S
C210 C208 1.348 . S
C210 C212 1.353 . S
C210 H252 0.929 . S
C211 C208 1.356 . S
C211 C213 1.358 . S
C211 H253 0.930 . S
C212 N209 1.314 . S
C212 C210 1.353 . S
C212 H254 0.930 . S
C213 N209 1.279 . S
C213 C211 1.358 . S
C213 H255 0.930 . S
C214 C215 1.348 . S
C214 C216 1.356 . S
C214 O239 1.325 . S
C215 C214 1.348 . S
C215 C217 1.353 . S
C215 H256 0.929 . S
C216 C214 1.356 . S
C216 C218 1.358 . S
C216 H257 0.930 . S
C217 C215 1.353 . S
C217 N219 1.314 . S
C217 H258 0.930 . S
C218 C216 1.358 . S
C218 N219 1.279 . S
C218 H259 0.930 . S
N219 C217 1.314 . S
N219 C218 1.279 . S
C220 C222 1.353 . S
C220 N223 1.325 . S
C220 H226 0.930 . S
C221 N223 1.279 . S
C221 C224 1.358 . S
C221 H227 0.931 1_545 S
C222 C220 1.353 . S
C222 C225 1.348 . S
C222 H260 0.929 . S
N223 Li178 1.981 1_545 S
N223 C220 1.325 . S
N223 C221 1.279 . S
C224 C221 1.358 . S
C224 C225 1.356 . S
C224 H261 0.930 . S
C225 C222 1.348 . S
C225 C224 1.356 . S
H226 C220 0.930 . S
H227 C221 0.931 1_565 S
C228 N229 1.314 . S
C228 C230 1.353 . S
C228 H234 0.930 . S
N229 Li179 1.990 . S
N229 C228 1.314 . S
N229 C232 1.279 . S
C230 C228 1.353 . S
C230 C233 1.348 . S
C230 H262 0.929 . S
C231 C232 1.358 . S
C231 C233 1.356 . S
C231 H263 0.930 . S
C232 N229 1.279 . S
C232 C231 1.358 . S
C232 H235 0.930 . S
C233 C230 1.348 . S
C233 C231 1.356 . S
H234 C228 0.930 . S
H235 C232 0.930 . S
O236 Li176 1.956 . S
O236 Li177 1.970 . S
O236 Li178 1.961 . S
O236 C180 1.325 . S
O237 Li176 1.970 . S
O237 Li177 1.956 . S
O237 Li179 1.961 . S
O237 C186 1.325 . S
O238 Li176 1.961 . S
O238 Li178 1.956 . S
O238 Li179 1.970 . S
O238 C208 1.325 . S
O239 Li177 1.961 . S
O239 Li178 1.970 . S
O239 Li179 1.956 . S
O239 C214 1.325 . S
H240 C182 0.929 1_565 S
H241 C183 0.930 . S
H242 C184 0.930 . S
H243 C185 0.930 . S
H244 C187 0.930 . S
H245 C189 0.929 . S
H246 C190 0.930 . S
H247 C191 0.930 . S
H248 C194 0.930 . S
H249 C197 0.929 . S
H250 C202 0.929 . S
H251 C203 0.930 . S
H252 C210 0.929 . S
H253 C211 0.930 . S
H254 C212 0.930 . S
H255 C213 0.930 . S
H256 C215 0.929 . S
H257 C216 0.930 . S
H258 C217 0.930 . S
H259 C218 0.930 . S
H260 C222 0.929 . S
H261 C224 0.930 . S
H262 C230 0.929 . S
H263 C231 0.930 . S
Li264 N281 1.990 . S
Li264 O324 1.956 . S
Li264 O325 1.970 . S
Li264 O326 1.961 . S
Li265 N289 1.990 . S
Li265 O324 1.970 . S
Li265 O325 1.956 . S
Li265 O327 1.961 . S
Li266 N311 1.990 . S
Li266 O324 1.961 . S
Li266 O326 1.956 . S
Li266 O327 1.970 . S
Li267 N317 1.990 . S
Li267 O325 1.961 . S
Li267 O326 1.970 . S
Li267 O327 1.956 . S
C268 C270 1.348 . S
C268 C271 1.356 . S
C268 O324 1.325 . S
N269 C272 1.314 . S
N269 C273 1.279 . S
C270 C268 1.348 . S
C270 C272 1.353 . S
C270 H328 0.929 . S
C271 C268 1.356 . S
C271 C273 1.358 . S
C271 H329 0.930 . S
C272 N269 1.314 . S
C272 C270 1.353 . S
C272 H330 0.930 . S
C273 N269 1.279 . S
C273 C271 1.358 . S
C273 H331 0.930 . S
C274 C277 1.348 . S
C274 C278 1.356 . S
C274 O325 1.325 . S
C275 N276 1.279 . S
C275 C278 1.358 . S
C275 H332 0.930 . S
N276 C275 1.279 . S
N276 C279 1.314 . S
C277 C274 1.348 . S
C277 C279 1.353 . S
C277 H333 0.929 . S
C278 C274 1.356 . S
C278 C275 1.358 . S
C278 H334 0.930 . S
C279 N276 1.314 . S
C279 C277 1.353 . S
C279 H335 0.930 . S
C280 N281 1.314 . S
C280 C285 1.353 . S
C280 H286 0.930 . S
N281 Li264 1.990 . S
N281 C280 1.314 . S
N281 C283 1.279 . S
C282 C283 1.358 . S
C282 C284 1.356 . S
C282 H336 0.930 . S
C283 N281 1.279 . S
C283 C282 1.358 . S
C283 H287 0.930 . S
C284 C282 1.356 . S
C284 C285 1.348 . S
C285 C280 1.353 . S
C285 C284 1.348 . S
C285 H337 0.929 . S
H286 C280 0.930 . S
H287 C283 0.930 . S
C288 N289 1.314 . S
C288 C290 1.353 . S
C288 H294 0.930 . S
N289 Li265 1.990 . S
N289 C288 1.314 . S
N289 C292 1.279 . S
C290 C288 1.353 . S
C290 C293 1.348 . S
C290 H338 0.929 . S
C291 C292 1.358 . S
C291 C293 1.356 . S
C291 H339 0.930 . S
C292 N289 1.279 . S
C292 C291 1.358 . S
C292 H295 0.930 . S
C293 C290 1.348 . S
C293 C291 1.356 . S
H294 C288 0.930 . S
H295 C292 0.930 . S
C296 C298 1.348 . S
C296 C299 1.356 . S
C296 O326 1.325 . S
N297 C300 1.314 . S
N297 C301 1.279 . S
C298 C296 1.348 . S
C298 C300 1.353 . S
C298 H340 0.929 . S
C299 C296 1.356 . S
C299 C301 1.358 . S
C299 H341 0.930 . S
C300 N297 1.314 . S
C300 C298 1.353 . S
C300 H342 0.930 . S
C301 N297 1.279 . S
C301 C299 1.358 . S
C301 H343 0.930 . S
C302 C303 1.348 . S
C302 C304 1.356 . S
C302 O327 1.325 . S
C303 C302 1.348 . S
C303 C305 1.353 . S
C303 H344 0.929 . S
C304 C302 1.356 . S
C304 C306 1.358 . S
C304 H345 0.930 . S
C305 C303 1.353 . S
C305 N307 1.314 . S
C305 H346 0.930 . S
C306 C304 1.358 . S
C306 N307 1.279 . S
C306 H347 0.930 . S
N307 C305 1.314 . S
N307 C306 1.279 . S
C308 C310 1.353 . S
C308 N311 1.314 . S
C308 H314 0.930 . S
C309 N311 1.279 . S
C309 C312 1.358 . S
C309 H315 0.930 . S
C310 C308 1.353 . S
C310 C313 1.348 . S
C310 H348 0.929 . S
N311 Li266 1.990 . S
N311 C308 1.314 . S
N311 C309 1.279 . S
C312 C309 1.358 . S
C312 C313 1.356 . S
C312 H349 0.930 . S
C313 C310 1.348 . S
C313 C312 1.356 . S
H314 C308 0.930 . S
H315 C309 0.930 . S
C316 N317 1.314 . S
C316 C318 1.353 . S
C316 H322 0.930 . S
N317 Li267 1.990 . S
N317 C316 1.314 . S
N317 C320 1.279 . S
C318 C316 1.353 . S
C318 C321 1.348 . S
C318 H350 0.929 . S
C319 C320 1.358 . S
C319 C321 1.356 . S
C319 H351 0.930 . S
C320 N317 1.279 . S
C320 C319 1.358 . S
C320 H323 0.930 . S
C321 C318 1.348 . S
C321 C319 1.356 . S
H322 C316 0.930 . S
H323 C320 0.930 . S
O324 Li264 1.956 . S
O324 Li265 1.970 . S
O324 Li266 1.961 . S
O324 C268 1.325 . S
O325 Li264 1.970 . S
O325 Li265 1.956 . S
O325 Li267 1.961 . S
O325 C274 1.325 . S
O326 Li264 1.961 . S
O326 Li266 1.956 . S
O326 Li267 1.970 . S
O326 C296 1.325 . S
O327 Li265 1.961 . S
O327 Li266 1.970 . S
O327 Li267 1.956 . S
O327 C302 1.325 . S
H328 C270 0.929 . S
H329 C271 0.930 . S
H330 C272 0.930 . S
H331 C273 0.930 . S
H332 C275 0.930 . S
H333 C277 0.929 . S
H334 C278 0.930 . S
H335 C279 0.930 . S
H336 C282 0.930 . S
H337 C285 0.929 . S
H338 C290 0.929 . S
H339 C291 0.930 . S
H340 C298 0.929 . S
H341 C299 0.930 . S
H342 C300 0.930 . S
H343 C301 0.930 . S
H344 C303 0.929 . S
H345 C304 0.930 . S
H346 C305 0.930 . S
H347 C306 0.930 . S
H348 C310 0.929 . S
H349 C312 0.930 . S
H350 C318 0.929 . S
H351 C319 0.930 . S
Li352 N369 1.981 1_565 S
Li352 O412 1.956 . S
Li352 O413 1.970 . S
Li352 O414 1.961 . S
Li353 N377 1.990 . S
Li353 O412 1.970 . S
Li353 O413 1.956 . S
Li353 O415 1.961 . S
Li354 N399 1.990 . S
Li354 O412 1.961 . S
Li354 O414 1.956 . S
Li354 O415 1.970 . S
Li355 N405 1.990 . S
Li355 O413 1.961 . S
Li355 O414 1.970 . S
Li355 O415 1.956 . S
C356 C358 1.348 . S
C356 C359 1.356 . S
C356 O412 1.325 . S
N357 C360 1.314 . S
N357 C361 1.279 . S
C358 C356 1.348 . S
C358 C360 1.353 . S
C358 H416 0.929 . S
C359 C356 1.356 . S
C359 C361 1.358 . S
C359 H417 0.930 . S
C360 N357 1.314 . S
C360 C358 1.353 . S
C360 H418 0.930 . S
C361 N357 1.279 . S
C361 C359 1.358 . S
C361 H419 0.930 . S
C362 C365 1.348 . S
C362 C366 1.356 . S
C362 O413 1.325 . S
C363 N364 1.279 . S
C363 C366 1.358 . S
C363 H420 0.930 . S
N364 C363 1.279 . S
N364 C367 1.314 . S
C365 C362 1.348 . S
C365 C367 1.353 . S
C365 H421 0.929 . S
C366 C362 1.356 . S
C366 C363 1.358 . S
C366 H422 0.930 . S
C367 N364 1.314 . S
C367 C365 1.353 . S
C367 H423 0.930 . S
C368 N369 1.325 . S
C368 C373 1.353 . S
C368 H374 0.930 . S
N369 Li352 1.981 1_545 S
N369 C368 1.325 . S
N369 C371 1.279 . S
C370 C371 1.358 . S
C370 C372 1.356 . S
C370 H424 0.930 . S
C371 N369 1.279 . S
C371 C370 1.358 . S
C371 H375 0.931 1_545 S
C372 C370 1.356 . S
C372 C373 1.348 . S
C373 C368 1.353 . S
C373 C372 1.348 . S
C373 H425 0.929 . S
H374 C368 0.930 . S
H375 C371 0.931 1_565 S
C376 N377 1.314 . S
C376 C378 1.353 . S
C376 H382 0.930 . S
N377 Li353 1.990 . S
N377 C376 1.314 . S
N377 C380 1.279 . S
C378 C376 1.353 . S
C378 C381 1.348 . S
C378 H426 0.929 . S
C379 C380 1.358 . S
C379 C381 1.356 . S
C379 H427 0.930 . S
C380 N377 1.279 . S
C380 C379 1.358 . S
C380 H383 0.930 . S
C381 C378 1.348 . S
C381 C379 1.356 . S
H382 C376 0.930 . S
H383 C380 0.930 . S
C384 C386 1.348 1_565 S
C384 C387 1.356 1_565 S
C384 O414 1.325 . S
N385 C388 1.314 . S
N385 C389 1.279 . S
C386 C384 1.348 1_545 S
C386 C388 1.353 . S
C386 H428 0.929 1_545 S
C387 C384 1.356 1_545 S
C387 C389 1.358 . S
C387 H429 0.930 . S
C388 N385 1.314 . S
C388 C386 1.353 . S
C388 H430 0.930 . S
C389 N385 1.279 . S
C389 C387 1.358 . S
C389 H431 0.930 . S
C390 C391 1.348 . S
C390 C392 1.356 . S
C390 O415 1.325 . S
C391 C390 1.348 . S
C391 C393 1.353 . S
C391 H432 0.929 . S
C392 C390 1.356 . S
C392 C394 1.358 . S
C392 H433 0.930 . S
C393 C391 1.353 . S
C393 N395 1.314 . S
C393 H434 0.930 . S
C394 C392 1.358 . S
C394 N395 1.279 . S
C394 H435 0.930 . S
N395 C393 1.314 . S
N395 C394 1.279 . S
C396 C398 1.353 . S
C396 N399 1.314 . S
C396 H402 0.930 . S
C397 N399 1.279 . S
C397 C400 1.358 . S
C397 H403 0.930 . S
C398 C396 1.353 . S
C398 C401 1.348 . S
C398 H436 0.929 . S
N399 Li354 1.990 . S
N399 C396 1.314 . S
N399 C397 1.279 . S
C400 C397 1.358 . S
C400 C401 1.356 . S
C400 H437 0.930 . S
C401 C398 1.348 . S
C401 C400 1.356 . S
H402 C396 0.930 . S
H403 C397 0.930 . S
C404 N405 1.314 . S
C404 C406 1.353 . S
C404 H410 0.930 . S
N405 Li355 1.990 . S
N405 C404 1.314 . S
N405 C408 1.279 . S
C406 C404 1.353 . S
C406 C409 1.348 . S
C406 H438 0.929 . S
C407 C408 1.358 . S
C407 C409 1.356 . S
C407 H439 0.930 . S
C408 N405 1.279 . S
C408 C407 1.358 . S
C408 H411 0.930 . S
C409 C406 1.348 . S
C409 C407 1.356 . S
H410 C404 0.930 . S
H411 C408 0.930 . S
O412 Li352 1.956 . S
O412 Li353 1.970 . S
O412 Li354 1.961 . S
O412 C356 1.325 . S
O413 Li352 1.970 . S
O413 Li353 1.956 . S
O413 Li355 1.961 . S
O413 C362 1.325 . S
O414 Li352 1.961 . S
O414 Li354 1.956 . S
O414 Li355 1.970 . S
O414 C384 1.325 . S
O415 Li353 1.961 . S
O415 Li354 1.970 . S
O415 Li355 1.956 . S
O415 C390 1.325 . S
H416 C358 0.929 . S
H417 C359 0.930 . S
H418 C360 0.930 . S
H419 C361 0.930 . S
H420 C363 0.930 . S
H421 C365 0.929 . S
H422 C366 0.930 . S
H423 C367 0.930 . S
H424 C370 0.930 . S
H425 C373 0.929 . S
H426 C378 0.929 . S
H427 C379 0.930 . S
H428 C386 0.929 1_565 S
H429 C387 0.930 . S
H430 C388 0.930 . S
H431 C389 0.930 . S
H432 C391 0.929 . S
H433 C392 0.930 . S
H434 C393 0.930 . S
H435 C394 0.930 . S
H436 C398 0.929 . S
H437 C400 0.930 . S
H438 C406 0.929 . S
H439 C407 0.930 . S
Li440 N457 1.990 . S
Li440 O500 1.956 . S
Li440 O501 1.970 . S
Li440 O502 1.961 . S
Li441 N465 1.990 . S
Li441 O500 1.970 . S
Li441 O501 1.956 . S
Li441 O503 1.961 . S
Li442 N487 1.990 . S
Li442 O500 1.961 . S
Li442 O502 1.956 . S
Li442 O503 1.970 . S
Li443 N493 1.990 . S
Li443 O501 1.961 . S
Li443 O502 1.970 . S
Li443 O503 1.956 . S
C444 C446 1.348 . S
C444 C447 1.356 . S
C444 O500 1.325 . S
N445 C448 1.314 . S
N445 C449 1.279 . S
C446 C444 1.348 . S
C446 C448 1.353 . S
C446 H504 0.929 . S
C447 C444 1.356 . S
C447 C449 1.358 . S
C447 H505 0.930 . S
C448 N445 1.314 . S
C448 C446 1.353 . S
C448 H506 0.930 . S
C449 N445 1.279 . S
C449 C447 1.358 . S
C449 H507 0.930 . S
C450 C453 1.348 . S
C450 C454 1.356 . S
C450 O501 1.325 . S
C451 N452 1.279 . S
C451 C454 1.358 . S
C451 H508 0.930 . S
N452 C451 1.279 . S
N452 C455 1.314 . S
C453 C450 1.348 . S
C453 C455 1.353 . S
C453 H509 0.929 . S
C454 C450 1.356 . S
C454 C451 1.358 . S
C454 H510 0.930 . S
C455 N452 1.314 . S
C455 C453 1.353 . S
C455 H511 0.930 . S
C456 N457 1.314 . S
C456 C461 1.353 . S
C456 H462 0.930 . S
N457 Li440 1.990 . S
N457 C456 1.314 . S
N457 C459 1.279 . S
C458 C459 1.358 . S
C458 C460 1.356 . S
C458 H512 0.930 . S
C459 N457 1.279 . S
C459 C458 1.358 . S
C459 H463 0.930 . S
C460 C458 1.356 . S
C460 C461 1.348 . S
C461 C456 1.353 . S
C461 C460 1.348 . S
C461 H513 0.929 . S
H462 C456 0.930 . S
H463 C459 0.930 . S
C464 N465 1.314 . S
C464 C466 1.353 . S
C464 H470 0.930 . S
N465 Li441 1.990 . S
N465 C464 1.314 . S
N465 C468 1.279 . S
C466 C464 1.353 . S
C466 C469 1.348 . S
C466 H514 0.929 . S
C467 C468 1.358 . S
C467 C469 1.356 . S
C467 H515 0.930 . S
C468 N465 1.279 . S
C468 C467 1.358 . S
C468 H471 0.930 . S
C469 C466 1.348 . S
C469 C467 1.356 . S
H470 C464 0.930 . S
H471 C468 0.930 . S
C472 C474 1.348 . S
C472 C475 1.356 . S
C472 O502 1.325 . S
N473 C476 1.314 . S
N473 C477 1.279 . S
C474 C472 1.348 . S
C474 C476 1.353 . S
C474 H516 0.929 . S
C475 C472 1.356 . S
C475 C477 1.358 . S
C475 H517 0.930 . S
C476 N473 1.314 . S
C476 C474 1.353 . S
C476 H518 0.930 . S
C477 N473 1.279 . S
C477 C475 1.358 . S
C477 H519 0.930 . S
C478 C479 1.348 . S
C478 C480 1.356 . S
C478 O503 1.325 . S
C479 C478 1.348 . S
C479 C481 1.353 . S
C479 H520 0.929 . S
C480 C478 1.356 . S
C480 C482 1.358 . S
C480 H521 0.930 . S
C481 C479 1.353 . S
C481 N483 1.314 . S
C481 H522 0.930 . S
C482 C480 1.358 . S
C482 N483 1.279 . S
C482 H523 0.930 . S
N483 C481 1.314 . S
N483 C482 1.279 . S
C484 C486 1.353 . S
C484 N487 1.314 . S
C484 H490 0.930 . S
C485 N487 1.279 . S
C485 C488 1.358 . S
C485 H491 0.930 . S
C486 C484 1.353 . S
C486 C489 1.348 . S
C486 H524 0.929 . S
N487 Li442 1.990 . S
N487 C484 1.314 . S
N487 C485 1.279 . S
C488 C485 1.358 . S
C488 C489 1.356 . S
C488 H525 0.930 . S
C489 C486 1.348 . S
C489 C488 1.356 . S
H490 C484 0.930 . S
H491 C485 0.930 . S
C492 N493 1.314 . S
C492 C494 1.353 . S
C492 H498 0.930 . S
N493 Li443 1.990 . S
N493 C492 1.314 . S
N493 C496 1.279 . S
C494 C492 1.353 . S
C494 C497 1.348 . S
C494 H526 0.929 . S
C495 C496 1.358 . S
C495 C497 1.356 . S
C495 H527 0.930 . S
C496 N493 1.279 . S
C496 C495 1.358 . S
C496 H499 0.930 . S
C497 C494 1.348 . S
C497 C495 1.356 . S
H498 C492 0.930 . S
H499 C496 0.930 . S
O500 Li440 1.956 . S
O500 Li441 1.970 . S
O500 Li442 1.961 . S
O500 C444 1.325 . S
O501 Li440 1.970 . S
O501 Li441 1.956 . S
O501 Li443 1.961 . S
O501 C450 1.325 . S
O502 Li440 1.961 . S
O502 Li442 1.956 . S
O502 Li443 1.970 . S
O502 C472 1.325 . S
O503 Li441 1.961 . S
O503 Li442 1.970 . S
O503 Li443 1.956 . S
O503 C478 1.325 . S
H504 C446 0.929 . S
H505 C447 0.930 . S
H506 C448 0.930 . S
H507 C449 0.930 . S
H508 C451 0.930 . S
H509 C453 0.929 . S
H510 C454 0.930 . S
H511 C455 0.930 . S
H512 C458 0.930 . S
H513 C461 0.929 . S
H514 C466 0.929 . S
H515 C467 0.930 . S
H516 C474 0.929 . S
H517 C475 0.930 . S
H518 C476 0.930 . S
H519 C477 0.930 . S
H520 C479 0.929 . S
H521 C480 0.930 . S
H522 C481 0.930 . S
H523 C482 0.930 . S
H524 C486 0.929 . S
H525 C488 0.930 . S
H526 C494 0.929 . S
H527 C495 0.930 . S
Li528 N545 1.990 . S
Li528 O588 1.956 . S
Li528 O589 1.970 . S
Li528 O590 1.961 . S
Li529 N553 1.981 1_545 S
Li529 O588 1.970 . S
Li529 O589 1.956 . S
Li529 O591 1.961 . S
Li530 N575 1.990 . S
Li530 O588 1.961 . S
Li530 O590 1.956 . S
Li530 O591 1.970 . S
Li531 N581 1.990 . S
Li531 O589 1.961 . S
Li531 O590 1.970 . S
Li531 O591 1.956 . S
C532 C534 1.348 . S
C532 C535 1.356 . S
C532 O588 1.325 . S
N533 C536 1.314 . S
N533 C537 1.279 . S
C534 C532 1.348 . S
C534 C536 1.353 . S
C534 H592 0.929 . S
C535 C532 1.356 . S
C535 C537 1.358 . S
C535 H593 0.930 . S
C536 N533 1.314 . S
C536 C534 1.353 . S
C536 H594 0.930 . S
C537 N533 1.279 . S
C537 C535 1.358 . S
C537 H595 0.930 . S
C538 C541 1.348 . S
C538 C542 1.356 . S
C538 O589 1.325 . S
C539 N540 1.279 . S
C539 C542 1.358 . S
C539 H596 0.930 . S
N540 C539 1.279 . S
N540 C543 1.314 . S
C541 C538 1.348 . S
C541 C543 1.353 . S
C541 H597 0.929 . S
C542 C538 1.356 . S
C542 C539 1.358 . S
C542 H598 0.930 . S
C543 N540 1.314 . S
C543 C541 1.353 . S
C543 H599 0.930 . S
C544 N545 1.314 . S
C544 C549 1.353 . S
C544 H550 0.930 . S
N545 Li528 1.990 . S
N545 C544 1.314 . S
N545 C547 1.279 . S
C546 C547 1.358 . S
C546 C548 1.356 . S
C546 H600 0.930 . S
C547 N545 1.279 . S
C547 C546 1.358 . S
C547 H551 0.930 . S
C548 C546 1.356 . S
C548 C549 1.348 . S
C549 C544 1.353 . S
C549 C548 1.348 . S
C549 H601 0.929 . S
H550 C544 0.930 . S
H551 C547 0.930 . S
C552 N553 1.325 . S
C552 C554 1.353 . S
C552 H558 0.930 . S
N553 Li529 1.981 1_565 S
N553 C552 1.325 . S
N553 C556 1.279 . S
C554 C552 1.353 . S
C554 C557 1.348 . S
C554 H602 0.929 . S
C555 C556 1.358 . S
C555 C557 1.356 . S
C555 H603 0.930 . S
C556 N553 1.279 . S
C556 C555 1.358 . S
C556 H559 0.931 1_565 S
C557 C554 1.348 . S
C557 C555 1.356 . S
H558 C552 0.930 . S
H559 C556 0.931 1_545 S
C560 C562 1.348 . S
C560 C563 1.356 . S
C560 O590 1.325 . S
N561 C564 1.314 . S
N561 C565 1.279 . S
C562 C560 1.348 . S
C562 C564 1.353 . S
C562 H604 0.929 . S
C563 C560 1.356 . S
C563 C565 1.358 . S
C563 H605 0.930 . S
C564 N561 1.314 . S
C564 C562 1.353 . S
C564 H606 0.930 . S
C565 N561 1.279 . S
C565 C563 1.358 . S
C565 H607 0.930 . S
C566 C567 1.348 1_545 S
C566 C568 1.356 1_545 S
C566 O591 1.325 . S
C567 C566 1.348 1_565 S
C567 C569 1.353 . S
C567 H608 0.929 1_565 S
C568 C566 1.356 1_565 S
C568 C570 1.358 . S
C568 H609 0.930 . S
C569 C567 1.353 . S
C569 N571 1.314 . S
C569 H610 0.930 . S
C570 C568 1.358 . S
C570 N571 1.279 . S
C570 H611 0.930 . S
N571 C569 1.314 . S
N571 C570 1.279 . S
C572 C574 1.353 . S
C572 N575 1.314 . S
C572 H578 0.930 . S
C573 N575 1.279 . S
C573 C576 1.358 . S
C573 H579 0.930 . S
C574 C572 1.353 . S
C574 C577 1.348 . S
C574 H612 0.929 . S
N575 Li530 1.990 . S
N575 C572 1.314 . S
N575 C573 1.279 . S
C576 C573 1.358 . S
C576 C577 1.356 . S
C576 H613 0.930 . S
C577 C574 1.348 . S
C577 C576 1.356 . S
H578 C572 0.930 . S
H579 C573 0.930 . S
C580 N581 1.314 . S
C580 C582 1.353 . S
C580 H586 0.930 . S
N581 Li531 1.990 . S
N581 C580 1.314 . S
N581 C584 1.279 . S
C582 C580 1.353 . S
C582 C585 1.348 . S
C582 H614 0.929 . S
C583 C584 1.358 . S
C583 C585 1.356 . S
C583 H615 0.930 . S
C584 N581 1.279 . S
C584 C583 1.358 . S
C584 H587 0.930 . S
C585 C582 1.348 . S
C585 C583 1.356 . S
H586 C580 0.930 . S
H587 C584 0.930 . S
O588 Li528 1.956 . S
O588 Li529 1.970 . S
O588 Li530 1.961 . S
O588 C532 1.325 . S
O589 Li528 1.970 . S
O589 Li529 1.956 . S
O589 Li531 1.961 . S
O589 C538 1.325 . S
O590 Li528 1.961 . S
O590 Li530 1.956 . S
O590 Li531 1.970 . S
O590 C560 1.325 . S
O591 Li529 1.961 . S
O591 Li530 1.970 . S
O591 Li531 1.956 . S
O591 C566 1.325 . S
H592 C534 0.929 . S
H593 C535 0.930 . S
H594 C536 0.930 . S
H595 C537 0.930 . S
H596 C539 0.930 . S
H597 C541 0.929 . S
H598 C542 0.930 . S
H599 C543 0.930 . S
H600 C546 0.930 . S
H601 C549 0.929 . S
H602 C554 0.929 . S
H603 C555 0.930 . S
H604 C562 0.929 . S
H605 C563 0.930 . S
H606 C564 0.930 . S
H607 C565 0.930 . S
H608 C567 0.929 1_545 S
H609 C568 0.930 . S
H610 C569 0.930 . S
H611 C570 0.930 . S
H612 C574 0.929 . S
H613 C576 0.930 . S
H614 C582 0.929 . S
H615 C583 0.930 . S
Li616 N633 1.990 . S
Li616 O676 1.956 . S
Li616 O677 1.970 . S
Li616 O678 1.961 . S
Li617 N641 1.990 . S
Li617 O676 1.970 . S
Li617 O677 1.956 . S
Li617 O679 1.961 . S
Li618 N663 1.990 . S
Li618 O676 1.961 . S
Li618 O678 1.956 . S
Li618 O679 1.970 . S
Li619 N669 1.990 . S
Li619 O677 1.961 . S
Li619 O678 1.970 . S
Li619 O679 1.956 . S
C620 C622 1.348 . S
C620 C623 1.356 . S
C620 O676 1.325 . S
N621 C624 1.314 . S
N621 C625 1.279 . S
C622 C620 1.348 . S
C622 C624 1.353 . S
C622 H680 0.929 . S
C623 C620 1.356 . S
C623 C625 1.358 . S
C623 H681 0.930 . S
C624 N621 1.314 . S
C624 C622 1.353 . S
C624 H682 0.930 . S
C625 N621 1.279 . S
C625 C623 1.358 . S
C625 H683 0.930 . S
C626 C629 1.348 . S
C626 C630 1.356 . S
C626 O677 1.325 . S
C627 N628 1.279 . S
C627 C630 1.358 . S
C627 H684 0.930 . S
N628 C627 1.279 . S
N628 C631 1.314 . S
C629 C626 1.348 . S
C629 C631 1.353 . S
C629 H685 0.929 . S
C630 C626 1.356 . S
C630 C627 1.358 . S
C630 H686 0.930 . S
C631 N628 1.314 . S
C631 C629 1.353 . S
C631 H687 0.930 . S
C632 N633 1.314 . S
C632 C637 1.353 . S
C632 H638 0.930 . S
N633 Li616 1.990 . S
N633 C632 1.314 . S
N633 C635 1.279 . S
C634 C635 1.358 . S
C634 C636 1.356 . S
C634 H688 0.930 . S
C635 N633 1.279 . S
C635 C634 1.358 . S
C635 H639 0.930 . S
C636 C634 1.356 . S
C636 C637 1.348 . S
C637 C632 1.353 . S
C637 C636 1.348 . S
C637 H689 0.929 . S
H638 C632 0.930 . S
H639 C635 0.930 . S
C640 N641 1.314 . S
C640 C642 1.353 . S
C640 H646 0.930 . S
N641 Li617 1.990 . S
N641 C640 1.314 . S
N641 C644 1.279 . S
C642 C640 1.353 . S
C642 C645 1.348 . S
C642 H690 0.929 . S
C643 C644 1.358 . S
C643 C645 1.356 . S
C643 H691 0.930 . S
C644 N641 1.279 . S
C644 C643 1.358 . S
C644 H647 0.930 . S
C645 C642 1.348 . S
C645 C643 1.356 . S
H646 C640 0.930 . S
H647 C644 0.930 . S
C648 C650 1.348 . S
C648 C651 1.356 . S
C648 O678 1.325 . S
N649 C652 1.314 . S
N649 C653 1.279 . S
C650 C648 1.348 . S
C650 C652 1.353 . S
C650 H692 0.929 . S
C651 C648 1.356 . S
C651 C653 1.358 . S
C651 H693 0.930 . S
C652 N649 1.314 . S
C652 C650 1.353 . S
C652 H694 0.930 . S
C653 N649 1.279 . S
C653 C651 1.358 . S
C653 H695 0.930 . S
C654 C655 1.348 . S
C654 C656 1.356 . S
C654 O679 1.325 . S
C655 C654 1.348 . S
C655 C657 1.353 . S
C655 H696 0.929 . S
C656 C654 1.356 . S
C656 C658 1.358 . S
C656 H697 0.930 . S
C657 C655 1.353 . S
C657 N659 1.314 . S
C657 H698 0.930 . S
C658 C656 1.358 . S
C658 N659 1.279 . S
C658 H699 0.930 . S
N659 C657 1.314 . S
N659 C658 1.279 . S
C660 C662 1.353 . S
C660 N663 1.314 . S
C660 H666 0.930 . S
C661 N663 1.279 . S
C661 C664 1.358 . S
C661 H667 0.930 . S
C662 C660 1.353 . S
C662 C665 1.348 . S
C662 H700 0.929 . S
N663 Li618 1.990 . S
N663 C660 1.314 . S
N663 C661 1.279 . S
C664 C661 1.358 . S
C664 C665 1.356 . S
C664 H701 0.930 . S
C665 C662 1.348 . S
C665 C664 1.356 . S
H666 C660 0.930 . S
H667 C661 0.930 . S
C668 N669 1.314 . S
C668 C670 1.353 . S
C668 H674 0.930 . S
N669 Li619 1.990 . S
N669 C668 1.314 . S
N669 C672 1.279 . S
C670 C668 1.353 . S
C670 C673 1.348 . S
C670 H702 0.929 . S
C671 C672 1.358 . S
C671 C673 1.356 . S
C671 H703 0.930 . S
C672 N669 1.279 . S
C672 C671 1.358 . S
C672 H675 0.930 . S
C673 C670 1.348 . S
C673 C671 1.356 . S
H674 C668 0.930 . S
H675 C672 0.930 . S
O676 Li616 1.956 . S
O676 Li617 1.970 . S
O676 Li618 1.961 . S
O676 C620 1.325 . S
O677 Li616 1.970 . S
O677 Li617 1.956 . S
O677 Li619 1.961 . S
O677 C626 1.325 . S
O678 Li616 1.961 . S
O678 Li618 1.956 . S
O678 Li619 1.970 . S
O678 C648 1.325 . S
O679 Li617 1.961 . S
O679 Li618 1.970 . S
O679 Li619 1.956 . S
O679 C654 1.325 . S
H680 C622 0.929 . S
H681 C623 0.930 . S
H682 C624 0.930 . S
H683 C625 0.930 . S
H684 C627 0.930 . S
H685 C629 0.929 . S
H686 C630 0.930 . S
H687 C631 0.930 . S
H688 C634 0.930 . S
H689 C637 0.929 . S
H690 C642 0.929 . S
H691 C643 0.930 . S
H692 C650 0.929 . S
H693 C651 0.930 . S
H694 C652 0.930 . S
H695 C653 0.930 . S
H696 C655 0.929 . S
H697 C656 0.930 . S
H698 C657 0.930 . S
H699 C658 0.930 . S
H700 C662 0.929 . S
H701 C664 0.930 . S
H702 C670 0.929 . S
H703 C671 0.930 . S
Li704 N721 1.990 . S
Li704 O764 1.956 . S
Li704 O765 1.970 . S
Li704 O766 1.961 . S
Li705 N729 1.990 1_565 S
Li705 O764 1.970 . S
Li705 O765 1.956 . S
Li705 O767 1.961 . S
Li706 N751 1.990 . S
Li706 O764 1.961 . S
Li706 O766 1.956 . S
Li706 O767 1.970 . S
Li707 N757 1.990 . S
Li707 O765 1.961 . S
Li707 O766 1.970 . S
Li707 O767 1.956 . S
C708 C710 1.348 . S
C708 C711 1.356 . S
C708 O764 1.325 . S
N709 C712 1.314 . S
N709 C713 1.279 . S
C710 C708 1.348 . S
C710 C712 1.353 . S
C710 H768 0.929 . S
C711 C708 1.356 . S
C711 C713 1.358 . S
C711 H769 0.930 . S
C712 N709 1.314 . S
C712 C710 1.353 . S
C712 H770 0.930 . S
C713 N709 1.279 . S
C713 C711 1.358 . S
C713 H771 0.930 . S
C714 C717 1.348 1_565 S
C714 C718 1.356 1_565 S
C714 O765 1.325 . S
C715 N716 1.279 . S
C715 C718 1.358 . S
C715 H772 0.930 . S
N716 C715 1.279 . S
N716 C719 1.314 . S
C717 C714 1.348 1_545 S
C717 C719 1.353 . S
C717 H773 0.929 . S
C718 C714 1.356 1_545 S
C718 C715 1.358 . S
C718 H774 0.930 . S
C719 N716 1.314 . S
C719 C717 1.353 . S
C719 H775 0.930 . S
C720 N721 1.314 . S
C720 C725 1.353 . S
C720 H726 0.930 . S
N721 Li704 1.990 . S
N721 C720 1.314 . S
N721 C723 1.279 . S
C722 C723 1.358 . S
C722 C724 1.356 . S
C722 H776 0.930 . S
C723 N721 1.279 . S
C723 C722 1.358 . S
C723 H727 0.930 . S
C724 C722 1.356 . S
C724 C725 1.348 . S
C725 C720 1.353 . S
C725 C724 1.348 . S
C725 H777 0.929 . S
H726 C720 0.930 . S
H727 C723 0.930 . S
C728 N729 1.314 1_565 S
C728 C730 1.353 1_565 S
C728 H734 0.930 . S
N729 Li705 1.990 1_545 S
N729 C728 1.314 1_545 S
N729 C732 1.279 . S
C730 C728 1.353 1_545 S
C730 C733 1.348 . S
C730 H778 0.929 . S
C731 C732 1.358 . S
C731 C733 1.356 . S
C731 H779 0.930 . S
C732 N729 1.279 . S
C732 C731 1.358 . S
C732 H735 0.930 . S
C733 C730 1.348 . S
C733 C731 1.356 . S
H734 C728 0.930 . S
H735 C732 0.930 . S
C736 C738 1.348 . S
C736 C739 1.356 . S
C736 O766 1.325 . S
N737 C740 1.314 . S
N737 C741 1.279 . S
C738 C736 1.348 . S
C738 C740 1.353 . S
C738 H780 0.929 . S
C739 C736 1.356 . S
C739 C741 1.358 . S
C739 H781 0.930 . S
C740 N737 1.314 . S
C740 C738 1.353 . S
C740 H782 0.930 . S
C741 N737 1.279 . S
C741 C739 1.358 . S
C741 H783 0.930 . S
C742 C743 1.348 . S
C742 C744 1.356 . S
C742 O767 1.325 . S
C743 C742 1.348 . S
C743 C745 1.353 . S
C743 H784 0.929 . S
C744 C742 1.356 . S
C744 C746 1.358 . S
C744 H785 0.930 . S
C745 C743 1.353 . S
C745 N747 1.314 . S
C745 H786 0.930 . S
C746 C744 1.358 . S
C746 N747 1.279 . S
C746 H787 0.930 . S
N747 C745 1.314 . S
N747 C746 1.279 . S
C748 C750 1.353 . S
C748 N751 1.314 . S
C748 H754 0.930 . S
C749 N751 1.279 . S
C749 C752 1.358 . S
C749 H755 0.930 . S
C750 C748 1.353 . S
C750 C753 1.348 . S
C750 H788 0.929 . S
N751 Li706 1.990 . S
N751 C748 1.314 . S
N751 C749 1.279 . S
C752 C749 1.358 . S
C752 C753 1.356 . S
C752 H789 0.930 . S
C753 C750 1.348 . S
C753 C752 1.356 . S
H754 C748 0.930 . S
H755 C749 0.930 . S
C756 N757 1.314 . S
C756 C758 1.353 . S
C756 H762 0.930 . S
N757 Li707 1.990 . S
N757 C756 1.314 . S
N757 C760 1.279 . S
C758 C756 1.353 . S
C758 C761 1.348 . S
C758 H790 0.929 . S
C759 C760 1.358 . S
C759 C761 1.356 . S
C759 H791 0.930 . S
C760 N757 1.279 . S
C760 C759 1.358 . S
C760 H763 0.930 . S
C761 C758 1.348 . S
C761 C759 1.356 . S
H762 C756 0.930 . S
H763 C760 0.930 . S
O764 Li704 1.956 . S
O764 Li705 1.970 . S
O764 Li706 1.961 . S
O764 C708 1.325 . S
O765 Li704 1.970 . S
O765 Li705 1.956 . S
O765 Li707 1.961 . S
O765 C714 1.325 . S
O766 Li704 1.961 . S
O766 Li706 1.956 . S
O766 Li707 1.970 . S
O766 C736 1.325 . S
O767 Li705 1.961 . S
O767 Li706 1.970 . S
O767 Li707 1.956 . S
O767 C742 1.325 . S
H768 C710 0.929 . S
H769 C711 0.930 . S
H770 C712 0.930 . S
H771 C713 0.930 . S
H772 C715 0.930 . S
H773 C717 0.929 . S
H774 C718 0.930 . S
H775 C719 0.930 . S
H776 C722 0.930 . S
H777 C725 0.929 . S
H778 C730 0.929 . S
H779 C731 0.930 . S
H780 C738 0.929 . S
H781 C739 0.930 . S
H782 C740 0.930 . S
H783 C741 0.930 . S
H784 C743 0.929 . S
H785 C744 0.930 . S
H786 C745 0.930 . S
H787 C746 0.930 . S
H788 C750 0.929 . S
H789 C752 0.930 . S
H790 C758 0.929 . S
H791 C759 0.930 . S
Li792 N809 1.990 . S
Li792 O852 1.956 . S
Li792 O853 1.970 . S
Li792 O854 1.961 . S
Li793 N817 1.990 . S
Li793 O852 1.970 . S
Li793 O853 1.956 . S
Li793 O855 1.961 . S
Li794 N839 1.990 . S
Li794 O852 1.961 . S
Li794 O854 1.956 . S
Li794 O855 1.970 . S
Li795 N845 1.990 . S
Li795 O853 1.961 . S
Li795 O854 1.970 . S
Li795 O855 1.956 . S
C796 C798 1.348 . S
C796 C799 1.356 . S
C796 O852 1.325 . S
N797 C800 1.314 . S
N797 C801 1.279 . S
C798 C796 1.348 . S
C798 C800 1.353 . S
C798 H856 0.929 . S
C799 C796 1.356 . S
C799 C801 1.358 . S
C799 H857 0.930 . S
C800 N797 1.314 . S
C800 C798 1.353 . S
C800 H858 0.930 . S
C801 N797 1.279 . S
C801 C799 1.358 . S
C801 H859 0.930 . S
C802 C805 1.348 . S
C802 C806 1.356 . S
C802 O853 1.325 . S
C803 N804 1.279 . S
C803 C806 1.358 . S
C803 H860 0.930 . S
N804 C803 1.279 . S
N804 C807 1.314 . S
C805 C802 1.348 . S
C805 C807 1.353 . S
C805 H861 0.929 . S
C806 C802 1.356 . S
C806 C803 1.358 . S
C806 H862 0.930 . S
C807 N804 1.314 . S
C807 C805 1.353 . S
C807 H863 0.930 . S
C808 N809 1.314 . S
C808 C813 1.353 . S
C808 H814 0.930 . S
N809 Li792 1.990 . S
N809 C808 1.314 . S
N809 C811 1.279 . S
C810 C811 1.358 . S
C810 C812 1.356 . S
C810 H864 0.930 . S
C811 N809 1.279 . S
C811 C810 1.358 . S
C811 H815 0.930 . S
C812 C810 1.356 . S
C812 C813 1.348 . S
C813 C808 1.353 . S
C813 C812 1.348 . S
C813 H865 0.929 . S
H814 C808 0.930 . S
H815 C811 0.930 . S
C816 N817 1.314 . S
C816 C818 1.353 . S
C816 H822 0.930 . S
N817 Li793 1.990 . S
N817 C816 1.314 . S
N817 C820 1.279 . S
C818 C816 1.353 . S
C818 C821 1.348 . S
C818 H866 0.929 . S
C819 C820 1.358 . S
C819 C821 1.356 . S
C819 H867 0.930 . S
C820 N817 1.279 . S
C820 C819 1.358 . S
C820 H823 0.930 . S
C821 C818 1.348 . S
C821 C819 1.356 . S
H822 C816 0.930 . S
H823 C820 0.930 . S
C824 C826 1.348 . S
C824 C827 1.356 . S
C824 O854 1.325 . S
N825 C828 1.314 . S
N825 C829 1.279 . S
C826 C824 1.348 . S
C826 C828 1.353 . S
C826 H868 0.929 . S
C827 C824 1.356 . S
C827 C829 1.358 . S
C827 H869 0.930 . S
C828 N825 1.314 . S
C828 C826 1.353 . S
C828 H870 0.930 . S
C829 N825 1.279 . S
C829 C827 1.358 . S
C829 H871 0.930 . S
C830 C831 1.348 . S
C830 C832 1.356 . S
C830 O855 1.325 . S
C831 C830 1.348 . S
C831 C833 1.353 . S
C831 H872 0.929 . S
C832 C830 1.356 . S
C832 C834 1.358 . S
C832 H873 0.930 . S
C833 C831 1.353 . S
C833 N835 1.314 . S
C833 H874 0.930 . S
C834 C832 1.358 . S
C834 N835 1.279 . S
C834 H875 0.930 . S
N835 C833 1.314 . S
N835 C834 1.279 . S
C836 C838 1.353 . S
C836 N839 1.314 . S
C836 H842 0.930 . S
C837 N839 1.279 . S
C837 C840 1.358 . S
C837 H843 0.930 . S
C838 C836 1.353 . S
C838 C841 1.348 . S
C838 H876 0.929 . S
N839 Li794 1.990 . S
N839 C836 1.314 . S
N839 C837 1.279 . S
C840 C837 1.358 . S
C840 C841 1.356 . S
C840 H877 0.930 . S
C841 C838 1.348 . S
C841 C840 1.356 . S
H842 C836 0.930 . S
H843 C837 0.930 . S
C844 N845 1.314 . S
C844 C846 1.353 . S
C844 H850 0.930 . S
N845 Li795 1.990 . S
N845 C844 1.314 . S
N845 C848 1.279 . S
C846 C844 1.353 . S
C846 C849 1.348 . S
C846 H878 0.929 . S
C847 C848 1.358 . S
C847 C849 1.356 . S
C847 H879 0.930 . S
C848 N845 1.279 . S
C848 C847 1.358 . S
C848 H851 0.930 . S
C849 C846 1.348 . S
C849 C847 1.356 . S
H850 C844 0.930 . S
H851 C848 0.930 . S
O852 Li792 1.956 . S
O852 Li793 1.970 . S
O852 Li794 1.961 . S
O852 C796 1.325 . S
O853 Li792 1.970 . S
O853 Li793 1.956 . S
O853 Li795 1.961 . S
O853 C802 1.325 . S
O854 Li792 1.961 . S
O854 Li794 1.956 . S
O854 Li795 1.970 . S
O854 C824 1.325 . S
O855 Li793 1.961 . S
O855 Li794 1.970 . S
O855 Li795 1.956 . S
O855 C830 1.325 . S
H856 C798 0.929 . S
H857 C799 0.930 . S
H858 C800 0.930 . S
H859 C801 0.930 . S
H860 C803 0.930 . S
H861 C805 0.929 . S
H862 C806 0.930 . S
H863 C807 0.930 . S
H864 C810 0.930 . S
H865 C813 0.929 . S
H866 C818 0.929 . S
H867 C819 0.930 . S
H868 C826 0.929 . S
H869 C827 0.930 . S
H870 C828 0.930 . S
H871 C829 0.930 . S
H872 C831 0.929 . S
H873 C832 0.930 . S
H874 C833 0.930 . S
H875 C834 0.930 . S
H876 C838 0.929 . S
H877 C840 0.930 . S
H878 C846 0.929 . S
H879 C847 0.930 . S
Li880 N897 1.990 . S
Li880 O940 1.956 . S
Li880 O941 1.970 . S
Li880 O942 1.961 . S
Li881 N905 1.990 . S
Li881 O940 1.970 . S
Li881 O941 1.956 . S
Li881 O943 1.961 . S
Li882 N927 1.990 . S
Li882 O940 1.961 . S
Li882 O942 1.956 . S
Li882 O943 1.970 . S
Li883 N933 1.990 1_545 S
Li883 O941 1.961 . S
Li883 O942 1.970 . S
Li883 O943 1.956 . S
C884 C886 1.348 . S
C884 C887 1.356 . S
C884 O940 1.325 . S
N885 C888 1.314 . S
N885 C889 1.279 . S
C886 C884 1.348 . S
C886 C888 1.353 . S
C886 H944 0.929 . S
C887 C884 1.356 . S
C887 C889 1.358 . S
C887 H945 0.930 . S
C888 N885 1.314 . S
C888 C886 1.353 . S
C888 H946 0.930 . S
C889 N885 1.279 . S
C889 C887 1.358 . S
C889 H947 0.930 . S
C890 C893 1.348 . S
C890 C894 1.356 . S
C890 O941 1.325 . S
C891 N892 1.279 . S
C891 C894 1.358 . S
C891 H948 0.930 . S
N892 C891 1.279 . S
N892 C895 1.314 . S
C893 C890 1.348 . S
C893 C895 1.353 . S
C893 H949 0.929 . S
C894 C890 1.356 . S
C894 C891 1.358 . S
C894 H950 0.930 . S
C895 N892 1.314 . S
C895 C893 1.353 . S
C895 H951 0.930 . S
C896 N897 1.314 . S
C896 C901 1.353 . S
C896 H902 0.930 . S
N897 Li880 1.990 . S
N897 C896 1.314 . S
N897 C899 1.279 . S
C898 C899 1.358 . S
C898 C900 1.356 . S
C898 H952 0.930 . S
C899 N897 1.279 . S
C899 C898 1.358 . S
C899 H903 0.930 . S
C900 C898 1.356 . S
C900 C901 1.348 . S
C901 C896 1.353 . S
C901 C900 1.348 . S
C901 H953 0.929 . S
H902 C896 0.930 . S
H903 C899 0.930 . S
C904 N905 1.314 . S
C904 C906 1.353 . S
C904 H910 0.930 . S
N905 Li881 1.990 . S
N905 C904 1.314 . S
N905 C908 1.279 . S
C906 C904 1.353 . S
C906 C909 1.348 . S
C906 H954 0.968 . S
C907 C908 1.358 . S
C907 C909 1.356 . S
C907 H955 0.930 . S
C908 N905 1.279 . S
C908 C907 1.358 . S
C908 H911 0.930 . S
C909 C906 1.348 . S
C909 C907 1.356 . S
H910 C904 0.930 . S
H911 C908 0.930 . S
C912 C914 1.348 . S
C912 C915 1.356 . S
C912 O942 1.325 . S
N913 C916 1.314 . S
N913 C917 1.279 . S
C914 C912 1.348 . S
C914 C916 1.353 . S
C914 H956 0.929 . S
C915 C912 1.356 . S
C915 C917 1.358 . S
C915 H957 0.930 . S
C916 N913 1.314 . S
C916 C914 1.353 . S
C916 H958 0.930 . S
C917 N913 1.279 . S
C917 C915 1.358 . S
C917 H959 0.930 . S
C918 C919 1.348 1_545 S
C918 C920 1.356 1_545 S
C918 O943 1.325 . S
C919 C918 1.348 1_565 S
C919 C921 1.353 . S
C919 H960 0.929 . S
C920 C918 1.356 1_565 S
C920 C922 1.358 . S
C920 H961 0.930 . S
C921 C919 1.353 . S
C921 N923 1.314 . S
C921 H962 0.930 . S
C922 C920 1.358 . S
C922 N923 1.279 . S
C922 H963 0.930 . S
N923 C921 1.314 . S
N923 C922 1.279 . S
C924 C926 1.353 . S
C924 N927 1.314 . S
C924 H930 0.930 . S
C925 N927 1.279 . S
C925 C928 1.358 . S
C925 H931 0.930 . S
C926 C924 1.353 . S
C926 C929 1.348 . S
C926 H964 0.929 . S
N927 Li882 1.990 . S
N927 C924 1.314 . S
N927 C925 1.279 . S
C928 C925 1.358 . S
C928 C929 1.356 . S
C928 H965 0.930 . S
C929 C926 1.348 . S
C929 C928 1.356 . S
H930 C924 0.930 . S
H931 C925 0.930 . S
C932 N933 1.314 1_545 S
C932 C934 1.353 1_545 S
C932 H938 0.930 . S
N933 Li883 1.990 1_565 S
N933 C932 1.314 1_565 S
N933 C936 1.279 . S
C934 C932 1.353 1_565 S
C934 C937 1.348 . S
C934 H966 0.929 . S
C935 C936 1.358 . S
C935 C937 1.356 . S
C935 H967 0.930 . S
C936 N933 1.279 . S
C936 C935 1.358 . S
C936 H939 0.930 . S
C937 C934 1.348 . S
C937 C935 1.356 . S
H938 C932 0.930 . S
H939 C936 0.930 . S
O940 Li880 1.956 . S
O940 Li881 1.970 . S
O940 Li882 1.961 . S
O940 C884 1.325 . S
O941 Li880 1.970 . S
O941 Li881 1.956 . S
O941 Li883 1.961 . S
O941 C890 1.325 . S
O942 Li880 1.961 . S
O942 Li882 1.956 . S
O942 Li883 1.970 . S
O942 C912 1.325 . S
O943 Li881 1.961 . S
O943 Li882 1.970 . S
O943 Li883 1.956 . S
O943 C918 1.325 . S
H944 C886 0.929 . S
H945 C887 0.930 . S
H946 C888 0.930 . S
H947 C889 0.930 . S
H948 C891 0.930 . S
H949 C893 0.929 . S
H950 C894 0.930 . S
H951 C895 0.930 . S
H952 C898 0.930 . S
H953 C901 0.929 . S
H954 C906 0.968 . S
H955 C907 0.930 . S
H956 C914 0.929 . S
H957 C915 0.930 . S
H958 C916 0.930 . S
H959 C917 0.930 . S
H960 C919 0.929 . S
H961 C920 0.930 . S
H962 C921 0.930 . S
H963 C922 0.930 . S
H964 C926 0.929 . S
H965 C928 0.930 . S
H966 C934 0.929 . S
H967 C935 0.930 . S
Li968 N985 1.990 . S
Li968 O1028 1.956 . S
Li968 O1029 1.970 . S
Li968 O1030 1.961 . S
Li969 N993 1.990 . S
Li969 O1028 1.970 . S
Li969 O1029 1.956 . S
Li969 O1031 1.961 . S
Li970 N1015 1.990 . S
Li970 O1028 1.961 . S
Li970 O1030 1.956 . S
Li970 O1031 1.970 . S
Li971 N1021 1.990 . S
Li971 O1029 1.961 . S
Li971 O1030 1.970 . S
Li971 O1031 1.956 . S
C972 C974 1.348 . S
C972 C975 1.356 . S
C972 O1028 1.325 . S
N973 C976 1.314 . S
N973 C977 1.279 . S
C974 C972 1.348 . S
C974 C976 1.353 . S
C974 H1032 0.929 . S
C975 C972 1.356 . S
C975 C977 1.358 . S
C975 H1033 0.930 . S
C976 N973 1.314 . S
C976 C974 1.353 . S
C976 H1034 0.930 . S
C977 N973 1.279 . S
C977 C975 1.358 . S
C977 H1035 0.930 . S
C978 C981 1.348 . S
C978 C982 1.356 . S
C978 O1029 1.325 . S
C979 N980 1.279 . S
C979 C982 1.358 . S
C979 H1036 0.930 . S
N980 C979 1.279 . S
N980 C983 1.314 . S
C981 C978 1.348 . S
C981 C983 1.353 . S
C981 H1037 0.929 . S
C982 C978 1.356 . S
C982 C979 1.358 . S
C982 H1038 0.930 . S
C983 N980 1.314 . S
C983 C981 1.353 . S
C983 H1039 0.930 . S
C984 N985 1.314 . S
C984 C989 1.353 . S
C984 H990 0.930 . S
N985 Li968 1.990 . S
N985 C984 1.314 . S
N985 C987 1.279 . S
C986 C987 1.358 . S
C986 C988 1.356 . S
C986 H1040 0.930 . S
C987 N985 1.279 . S
C987 C986 1.358 . S
C987 H991 0.930 . S
C988 C986 1.356 . S
C988 C989 1.348 . S
C989 C984 1.353 . S
C989 C988 1.348 . S
C989 H1041 0.929 . S
H990 C984 0.930 . S
H991 C987 0.930 . S
C992 N993 1.314 . S
C992 C994 1.353 . S
C992 H998 0.930 . S
N993 Li969 1.990 . S
N993 C992 1.314 . S
N993 C996 1.279 . S
C994 C992 1.353 . S
C994 C997 1.348 . S
C994 H1042 0.929 . S
C995 C996 1.358 . S
C995 C997 1.356 . S
C995 H1043 0.930 . S
C996 N993 1.279 . S
C996 C995 1.358 . S
C996 H999 0.930 . S
C997 C994 1.348 . S
C997 C995 1.356 . S
H998 C992 0.930 . S
H999 C996 0.930 . S
C1000 C1002 1.348 . S
C1000 C1003 1.356 . S
C1000 O1030 1.325 . S
N1001 C1004 1.314 . S
N1001 C1005 1.279 . S
C1002 C1000 1.348 . S
C1002 C1004 1.353 . S
C1002 H1044 0.929 . S
C1003 C1000 1.356 . S
C1003 C1005 1.358 . S
C1003 H1045 0.930 . S
C1004 N1001 1.314 . S
C1004 C1002 1.353 . S
C1004 H1046 0.930 . S
C1005 N1001 1.279 . S
C1005 C1003 1.358 . S
C1005 H1047 0.930 . S
C1006 C1007 1.348 . S
C1006 C1008 1.356 . S
C1006 O1031 1.325 . S
C1007 C1006 1.348 . S
C1007 C1009 1.353 . S
C1007 H1048 0.929 . S
C1008 C1006 1.356 . S
C1008 C1010 1.358 . S
C1008 H1049 0.930 . S
C1009 C1007 1.353 . S
C1009 N1011 1.314 . S
C1009 H1050 0.930 . S
C1010 C1008 1.358 . S
C1010 N1011 1.279 . S
C1010 H1051 0.930 . S
N1011 C1009 1.314 . S
N1011 C1010 1.279 . S
C1012 C1014 1.353 . S
C1012 N1015 1.314 . S
C1012 H1018 0.930 . S
C1013 N1015 1.279 . S
C1013 C1016 1.358 . S
C1013 H1019 0.930 . S
C1014 C1012 1.353 . S
C1014 C1017 1.348 . S
C1014 H1052 0.929 . S
N1015 Li970 1.990 . S
N1015 C1012 1.314 . S
N1015 C1013 1.279 . S
C1016 C1013 1.358 . S
C1016 C1017 1.356 . S
C1016 H1053 0.930 . S
C1017 C1014 1.348 . S
C1017 C1016 1.356 . S
H1018 C1012 0.930 . S
H1019 C1013 0.930 . S
C1020 N1021 1.314 . S
C1020 C1022 1.353 . S
C1020 H1026 0.930 . S
N1021 Li971 1.990 . S
N1021 C1020 1.314 . S
N1021 C1024 1.279 . S
C1022 C1020 1.353 . S
C1022 C1025 1.348 . S
C1022 H1054 0.929 . S
C1023 C1024 1.358 . S
C1023 C1025 1.356 . S
C1023 H1055 0.930 . S
C1024 N1021 1.279 . S
C1024 C1023 1.358 . S
C1024 H1027 0.930 . S
C1025 C1022 1.348 . S
C1025 C1023 1.356 . S
H1026 C1020 0.930 . S
H1027 C1024 0.930 . S
O1028 Li968 1.956 . S
O1028 Li969 1.970 . S
O1028 Li970 1.961 . S
O1028 C972 1.325 . S
O1029 Li968 1.970 . S
O1029 Li969 1.956 . S
O1029 Li971 1.961 . S
O1029 C978 1.325 . S
O1030 Li968 1.961 . S
O1030 Li970 1.956 . S
O1030 Li971 1.970 . S
O1030 C1000 1.325 . S
O1031 Li969 1.961 . S
O1031 Li970 1.970 . S
O1031 Li971 1.956 . S
O1031 C1006 1.325 . S
H1032 C974 0.929 . S
H1033 C975 0.930 . S
H1034 C976 0.930 . S
H1035 C977 0.930 . S
H1036 C979 0.930 . S
H1037 C981 0.929 . S
H1038 C982 0.930 . S
H1039 C983 0.930 . S
H1040 C986 0.930 . S
H1041 C989 0.929 . S
H1042 C994 0.929 . S
H1043 C995 0.930 . S
H1044 C1002 0.929 . S
H1045 C1003 0.930 . S
H1046 C1004 0.930 . S
H1047 C1005 0.930 . S
H1048 C1007 0.929 . S
H1049 C1008 0.930 . S
H1050 C1009 0.930 . S
H1051 C1010 0.930 . S
H1052 C1014 0.929 . S
H1053 C1016 0.930 . S
H1054 C1022 0.929 . S
H1055 C1023 0.930 . S
Li1056 N1073 1.990 . S
Li1056 O1116 1.956 . S
Li1056 O1117 1.970 . S
Li1056 O1118 1.961 . S
Li1057 N1081 1.990 . S
Li1057 O1116 1.970 . S
Li1057 O1117 1.956 . S
Li1057 O1119 1.961 . S
Li1058 N1103 1.990 1_545 S
Li1058 O1116 1.961 . S
Li1058 O1118 1.956 . S
Li1058 O1119 1.970 . S
Li1059 N1109 1.990 . S
Li1059 O1117 1.961 . S
Li1059 O1118 1.970 . S
Li1059 O1119 1.956 . S
C1060 C1062 1.348 . S
C1060 C1063 1.356 . S
C1060 O1116 1.325 . S
N1061 C1064 1.314 . S
N1061 C1065 1.279 . S
C1062 C1060 1.348 . S
C1062 C1064 1.353 . S
C1062 H1120 0.929 . S
C1063 C1060 1.356 . S
C1063 C1065 1.358 . S
C1063 H1121 0.930 . S
C1064 N1061 1.314 . S
C1064 C1062 1.353 . S
C1064 H1122 0.930 . S
C1065 N1061 1.279 . S
C1065 C1063 1.358 . S
C1065 H1123 0.930 . S
C1066 C1069 1.348 . S
C1066 C1070 1.356 . S
C1066 O1117 1.325 . S
C1067 N1068 1.279 . S
C1067 C1070 1.358 . S
C1067 H1124 0.930 . S
N1068 C1067 1.279 . S
N1068 C1071 1.314 . S
C1069 C1066 1.348 . S
C1069 C1071 1.353 . S
C1069 H1125 0.929 . S
C1070 C1066 1.356 . S
C1070 C1067 1.358 . S
C1070 H1126 0.930 . S
C1071 N1068 1.314 . S
C1071 C1069 1.353 . S
C1071 H1127 0.930 . S
C1072 N1073 1.314 . S
C1072 C1077 1.353 . S
C1072 H1078 0.930 . S
N1073 Li1056 1.990 . S
N1073 C1072 1.314 . S
N1073 C1075 1.279 . S
C1074 C1075 1.358 . S
C1074 C1076 1.356 . S
C1074 H1128 0.930 . S
C1075 N1073 1.279 . S
C1075 C1074 1.358 . S
C1075 H1079 0.930 . S
C1076 C1074 1.356 . S
C1076 C1077 1.348 . S
C1077 C1072 1.353 . S
C1077 C1076 1.348 . S
C1077 H1129 0.929 . S
H1078 C1072 0.930 . S
H1079 C1075 0.930 . S
C1080 N1081 1.314 . S
C1080 C1082 1.353 . S
C1080 H1086 0.930 . S
N1081 Li1057 1.990 . S
N1081 C1080 1.314 . S
N1081 C1084 1.279 . S
C1082 C1080 1.353 . S
C1082 C1085 1.348 . S
C1082 H1130 0.929 . S
C1083 C1084 1.358 . S
C1083 C1085 1.356 . S
C1083 H1131 0.930 . S
C1084 N1081 1.279 . S
C1084 C1083 1.358 . S
C1084 H1087 0.930 . S
C1085 C1082 1.348 . S
C1085 C1083 1.356 . S
H1086 C1080 0.930 . S
H1087 C1084 0.930 . S
C1088 C1090 1.348 1_545 S
C1088 C1091 1.356 1_545 S
C1088 O1118 1.325 . S
N1089 C1092 1.314 . S
N1089 C1093 1.279 . S
C1090 C1088 1.348 1_565 S
C1090 C1092 1.353 . S
C1090 H1132 0.929 . S
C1091 C1088 1.356 1_565 S
C1091 C1093 1.358 . S
C1091 H1133 0.930 . S
C1092 N1089 1.314 . S
C1092 C1090 1.353 . S
C1092 H1134 0.930 . S
C1093 N1089 1.279 . S
C1093 C1091 1.358 . S
C1093 H1135 0.930 . S
C1094 C1095 1.348 . S
C1094 C1096 1.356 . S
C1094 O1119 1.325 . S
C1095 C1094 1.348 . S
C1095 C1097 1.353 . S
C1095 H1136 0.929 . S
C1096 C1094 1.356 . S
C1096 C1098 1.358 . S
C1096 H1137 0.930 . S
C1097 C1095 1.353 . S
C1097 N1099 1.314 . S
C1097 H1138 0.930 . S
C1098 C1096 1.358 . S
C1098 N1099 1.279 . S
C1098 H1139 0.930 . S
N1099 C1097 1.314 . S
N1099 C1098 1.279 . S
C1100 C1102 1.353 1_545 S
C1100 N1103 1.314 1_545 S
C1100 H1106 0.930 . S
C1101 N1103 1.279 . S
C1101 C1104 1.358 . S
C1101 H1107 0.930 . S
C1102 C1100 1.353 1_565 S
C1102 C1105 1.348 . S
C1102 H1140 0.929 . S
N1103 Li1058 1.990 1_565 S
N1103 C1100 1.314 1_565 S
N1103 C1101 1.279 . S
C1104 C1101 1.358 . S
C1104 C1105 1.356 . S
C1104 H1141 0.930 . S
C1105 C1102 1.348 . S
C1105 C1104 1.356 . S
H1106 C1100 0.930 . S
H1107 C1101 0.930 . S
C1108 N1109 1.314 . S
C1108 C1110 1.353 . S
C1108 H1114 0.930 . S
N1109 Li1059 1.990 . S
N1109 C1108 1.314 . S
N1109 C1112 1.279 . S
C1110 C1108 1.353 . S
C1110 C1113 1.348 . S
C1110 H1142 0.929 . S
C1111 C1112 1.358 . S
C1111 C1113 1.356 . S
C1111 H1143 0.930 . S
C1112 N1109 1.279 . S
C1112 C1111 1.358 . S
C1112 H1115 0.930 . S
C1113 C1110 1.348 . S
C1113 C1111 1.356 . S
H1114 C1108 0.930 . S
H1115 C1112 0.930 . S
O1116 Li1056 1.956 . S
O1116 Li1057 1.970 . S
O1116 Li1058 1.961 . S
O1116 C1060 1.325 . S
O1117 Li1056 1.970 . S
O1117 Li1057 1.956 . S
O1117 Li1059 1.961 . S
O1117 C1066 1.325 . S
O1118 Li1056 1.961 . S
O1118 Li1058 1.956 . S
O1118 Li1059 1.970 . S
O1118 C1088 1.325 . S
O1119 Li1057 1.961 . S
O1119 Li1058 1.970 . S
O1119 Li1059 1.956 . S
O1119 C1094 1.325 . S
H1120 C1062 0.929 . S
H1121 C1063 0.930 . S
H1122 C1064 0.930 . S
H1123 C1065 0.930 . S
H1124 C1067 0.930 . S
H1125 C1069 0.929 . S
H1126 C1070 0.930 . S
H1127 C1071 0.930 . S
H1128 C1074 0.930 . S
H1129 C1077 0.929 . S
H1130 C1082 0.929 . S
H1131 C1083 0.930 . S
H1132 C1090 0.929 . S
H1133 C1091 0.930 . S
H1134 C1092 0.930 . S
H1135 C1093 0.930 . S
H1136 C1095 0.929 . S
H1137 C1096 0.930 . S
H1138 C1097 0.930 . S
H1139 C1098 0.930 . S
H1140 C1102 0.929 . S
H1141 C1104 0.930 . S
H1142 C1110 0.929 . S
H1143 C1111 0.930 . S
Li1144 N1161 1.990 . S
Li1144 O1204 1.956 . S
Li1144 O1205 1.970 . S
Li1144 O1206 1.961 . S
Li1145 N1169 1.990 . S
Li1145 O1204 1.970 . S
Li1145 O1205 1.956 . S
Li1145 O1207 1.961 . S
Li1146 N1191 1.990 . S
Li1146 O1204 1.961 . S
Li1146 O1206 1.956 . S
Li1146 O1207 1.970 . S
Li1147 N1197 1.990 . S
Li1147 O1205 1.961 . S
Li1147 O1206 1.970 . S
Li1147 O1207 1.956 . S
C1148 C1150 1.348 . S
C1148 C1151 1.356 . S
C1148 O1204 1.325 . S
N1149 C1152 1.314 . S
N1149 C1153 1.279 . S
C1150 C1148 1.348 . S
C1150 C1152 1.353 . S
C1150 H1208 0.929 . S
C1151 C1148 1.356 . S
C1151 C1153 1.358 . S
C1151 H1209 0.930 . S
C1152 N1149 1.314 . S
C1152 C1150 1.353 . S
C1152 H1210 0.930 . S
C1153 N1149 1.279 . S
C1153 C1151 1.358 . S
C1153 H1211 0.930 . S
C1154 C1157 1.348 . S
C1154 C1158 1.356 . S
C1154 O1205 1.325 . S
C1155 N1156 1.279 . S
C1155 C1158 1.358 . S
C1155 H1212 0.930 . S
N1156 C1155 1.279 . S
N1156 C1159 1.314 . S
C1157 C1154 1.348 . S
C1157 C1159 1.353 . S
C1157 H1213 0.929 . S
C1158 C1154 1.356 . S
C1158 C1155 1.358 . S
C1158 H1214 0.930 . S
C1159 N1156 1.314 . S
C1159 C1157 1.353 . S
C1159 H1215 0.930 . S
C1160 N1161 1.314 . S
C1160 C1165 1.353 . S
C1160 H1166 0.930 . S
N1161 Li1144 1.990 . S
N1161 C1160 1.314 . S
N1161 C1163 1.279 . S
C1162 C1163 1.358 . S
C1162 C1164 1.356 . S
C1162 H1216 0.930 . S
C1163 N1161 1.279 . S
C1163 C1162 1.358 . S
C1163 H1167 0.930 . S
C1164 C1162 1.356 . S
C1164 C1165 1.348 . S
C1165 C1160 1.353 . S
C1165 C1164 1.348 . S
C1165 H1217 0.929 . S
H1166 C1160 0.930 . S
H1167 C1163 0.930 . S
C1168 N1169 1.314 . S
C1168 C1170 1.353 . S
C1168 H1174 0.930 . S
N1169 Li1145 1.990 . S
N1169 C1168 1.314 . S
N1169 C1172 1.279 . S
C1170 C1168 1.353 . S
C1170 C1173 1.348 . S
C1170 H1218 0.929 . S
C1171 C1172 1.358 . S
C1171 C1173 1.356 . S
C1171 H1219 0.930 . S
C1172 N1169 1.279 . S
C1172 C1171 1.358 . S
C1172 H1175 0.930 . S
C1173 C1170 1.348 . S
C1173 C1171 1.356 . S
H1174 C1168 0.930 . S
H1175 C1172 0.930 . S
C1176 C1178 1.348 . S
C1176 C1179 1.356 . S
C1176 O1206 1.325 . S
N1177 C1180 1.314 . S
N1177 C1181 1.279 . S
C1178 C1176 1.348 . S
C1178 C1180 1.353 . S
C1178 H1220 0.929 . S
C1179 C1176 1.356 . S
C1179 C1181 1.358 . S
C1179 H1221 0.930 . S
C1180 N1177 1.314 . S
C1180 C1178 1.353 . S
C1180 H1222 0.930 . S
C1181 N1177 1.279 . S
C1181 C1179 1.358 . S
C1181 H1223 0.930 . S
C1182 C1183 1.348 . S
C1182 C1184 1.356 . S
C1182 O1207 1.325 . S
C1183 C1182 1.348 . S
C1183 C1185 1.353 . S
C1183 H1224 0.929 . S
C1184 C1182 1.356 . S
C1184 C1186 1.358 . S
C1184 H1225 0.930 . S
C1185 C1183 1.353 . S
C1185 N1187 1.314 . S
C1185 H1226 0.930 . S
C1186 C1184 1.358 . S
C1186 N1187 1.279 . S
C1186 H1227 0.930 . S
N1187 C1185 1.314 . S
N1187 C1186 1.279 . S
C1188 C1190 1.353 . S
C1188 N1191 1.314 . S
C1188 H1194 0.930 . S
C1189 N1191 1.279 . S
C1189 C1192 1.358 . S
C1189 H1195 0.930 . S
C1190 C1188 1.353 . S
C1190 C1193 1.348 . S
C1190 H1228 0.929 . S
N1191 Li1146 1.990 . S
N1191 C1188 1.314 . S
N1191 C1189 1.279 . S
C1192 C1189 1.358 . S
C1192 C1193 1.356 . S
C1192 H1229 0.930 . S
C1193 C1190 1.348 . S
C1193 C1192 1.356 . S
H1194 C1188 0.930 . S
H1195 C1189 0.930 . S
C1196 N1197 1.314 . S
C1196 C1198 1.353 . S
C1196 H1202 0.930 . S
N1197 Li1147 1.990 . S
N1197 C1196 1.314 . S
N1197 C1200 1.279 . S
C1198 C1196 1.353 . S
C1198 C1201 1.348 . S
C1198 H1230 0.929 . S
C1199 C1200 1.358 . S
C1199 C1201 1.356 . S
C1199 H1231 0.930 . S
C1200 N1197 1.279 . S
C1200 C1199 1.358 . S
C1200 H1203 0.930 . S
C1201 C1198 1.348 . S
C1201 C1199 1.356 . S
H1202 C1196 0.930 . S
H1203 C1200 0.930 . S
O1204 Li1144 1.956 . S
O1204 Li1145 1.970 . S
O1204 Li1146 1.961 . S
O1204 C1148 1.325 . S
O1205 Li1144 1.970 . S
O1205 Li1145 1.956 . S
O1205 Li1147 1.961 . S
O1205 C1154 1.325 . S
O1206 Li1144 1.961 . S
O1206 Li1146 1.956 . S
O1206 Li1147 1.970 . S
O1206 C1176 1.325 . S
O1207 Li1145 1.961 . S
O1207 Li1146 1.970 . S
O1207 Li1147 1.956 . S
O1207 C1182 1.325 . S
H1208 C1150 0.929 . S
H1209 C1151 0.930 . S
H1210 C1152 0.930 . S
H1211 C1153 0.930 . S
H1212 C1155 0.930 . S
H1213 C1157 0.929 . S
H1214 C1158 0.930 . S
H1215 C1159 0.930 . S
H1216 C1162 0.930 . S
H1217 C1165 0.929 . S
H1218 C1170 0.929 . S
H1219 C1171 0.930 . S
H1220 C1178 0.929 . S
H1221 C1179 0.930 . S
H1222 C1180 0.930 . S
H1223 C1181 0.930 . S
H1224 C1183 0.929 . S
H1225 C1184 0.930 . S
H1226 C1185 0.930 . S
H1227 C1186 0.930 . S
H1228 C1190 0.929 . S
H1229 C1192 0.930 . S
H1230 C1198 0.929 . S
H1231 C1199 0.930 . S
Li1232 N1249 1.990 1_565 S
Li1232 O1292 1.956 . S
Li1232 O1293 1.970 . S
Li1232 O1294 1.961 . S
Li1233 N1257 1.990 . S
Li1233 O1292 1.970 . S
Li1233 O1293 1.956 . S
Li1233 O1295 1.961 . S
Li1234 N1279 1.990 . S
Li1234 O1292 1.961 . S
Li1234 O1294 1.956 . S
Li1234 O1295 1.970 . S
Li1235 N1285 1.990 . S
Li1235 O1293 1.961 . S
Li1235 O1294 1.970 . S
Li1235 O1295 1.956 . S
C1236 C1238 1.348 1_565 S
C1236 C1239 1.356 1_565 S
C1236 O1292 1.325 . S
N1237 C1240 1.314 . S
N1237 C1241 1.279 . S
C1238 C1236 1.348 1_545 S
C1238 C1240 1.353 . S
C1238 H1296 0.929 . S
C1239 C1236 1.356 1_545 S
C1239 C1241 1.358 . S
C1239 H1297 0.930 . S
C1240 N1237 1.314 . S
C1240 C1238 1.353 . S
C1240 H1298 0.930 . S
C1241 N1237 1.279 . S
C1241 C1239 1.358 . S
C1241 H1299 0.930 . S
C1242 C1245 1.348 . S
C1242 C1246 1.356 . S
C1242 O1293 1.325 . S
C1243 N1244 1.279 . S
C1243 C1246 1.358 . S
C1243 H1300 0.930 . S
N1244 C1243 1.279 . S
N1244 C1247 1.314 . S
C1245 C1242 1.348 . S
C1245 C1247 1.353 . S
C1245 H1301 0.929 . S
C1246 C1242 1.356 . S
C1246 C1243 1.358 . S
C1246 H1302 0.930 . S
C1247 N1244 1.314 . S
C1247 C1245 1.353 . S
C1247 H1303 0.930 . S
C1248 N1249 1.314 1_565 S
C1248 C1253 1.353 1_565 S
C1248 H1254 0.930 . S
N1249 Li1232 1.990 1_545 S
N1249 C1248 1.314 1_545 S
N1249 C1251 1.279 . S
C1250 C1251 1.358 . S
C1250 C1252 1.356 . S
C1250 H1304 0.930 . S
C1251 N1249 1.279 . S
C1251 C1250 1.358 . S
C1251 H1255 0.930 . S
C1252 C1250 1.356 . S
C1252 C1253 1.348 . S
C1253 C1248 1.353 1_545 S
C1253 C1252 1.348 . S
C1253 H1305 0.929 . S
H1254 C1248 0.930 . S
H1255 C1251 0.930 . S
C1256 N1257 1.314 . S
C1256 C1258 1.353 . S
C1256 H1262 0.930 . S
N1257 Li1233 1.990 . S
N1257 C1256 1.314 . S
N1257 C1260 1.279 . S
C1258 C1256 1.353 . S
C1258 C1261 1.348 . S
C1258 H1306 0.929 . S
C1259 C1260 1.358 . S
C1259 C1261 1.356 . S
C1259 H1307 0.930 . S
C1260 N1257 1.279 . S
C1260 C1259 1.358 . S
C1260 H1263 0.930 . S
C1261 C1258 1.348 . S
C1261 C1259 1.356 . S
H1262 C1256 0.930 . S
H1263 C1260 0.930 . S
C1264 C1266 1.348 . S
C1264 C1267 1.356 . S
C1264 O1294 1.325 . S
N1265 C1268 1.314 . S
N1265 C1269 1.279 . S
C1266 C1264 1.348 . S
C1266 C1268 1.353 . S
C1266 H1308 0.929 . S
C1267 C1264 1.356 . S
C1267 C1269 1.358 . S
C1267 H1309 0.930 . S
C1268 N1265 1.314 . S
C1268 C1266 1.353 . S
C1268 H1310 0.930 . S
C1269 N1265 1.279 . S
C1269 C1267 1.358 . S
C1269 H1311 0.930 . S
C1270 C1271 1.348 . S
C1270 C1272 1.356 . S
C1270 O1295 1.325 . S
C1271 C1270 1.348 . S
C1271 C1273 1.353 . S
C1271 H1312 0.929 . S
C1272 C1270 1.356 . S
C1272 C1274 1.358 . S
C1272 H1313 0.930 . S
C1273 C1271 1.353 . S
C1273 N1275 1.314 . S
C1273 H1314 0.930 . S
C1274 C1272 1.358 . S
C1274 N1275 1.279 . S
C1274 H1315 0.930 . S
N1275 C1273 1.314 . S
N1275 C1274 1.279 . S
C1276 C1278 1.353 . S
C1276 N1279 1.314 . S
C1276 H1282 0.930 . S
C1277 N1279 1.279 . S
C1277 C1280 1.358 . S
C1277 H1283 0.930 . S
C1278 C1276 1.353 . S
C1278 C1281 1.348 . S
C1278 H1316 0.968 . S
N1279 Li1234 1.990 . S
N1279 C1276 1.314 . S
N1279 C1277 1.279 . S
C1280 C1277 1.358 . S
C1280 C1281 1.356 . S
C1280 H1317 0.930 . S
C1281 C1278 1.348 . S
C1281 C1280 1.356 . S
H1282 C1276 0.930 . S
H1283 C1277 0.930 . S
C1284 N1285 1.314 . S
C1284 C1286 1.353 . S
C1284 H1290 0.930 . S
N1285 Li1235 1.990 . S
N1285 C1284 1.314 . S
N1285 C1288 1.279 . S
C1286 C1284 1.353 . S
C1286 C1289 1.348 . S
C1286 H1318 0.929 . S
C1287 C1288 1.358 . S
C1287 C1289 1.356 . S
C1287 H1319 0.930 . S
C1288 N1285 1.279 . S
C1288 C1287 1.358 . S
C1288 H1291 0.930 . S
C1289 C1286 1.348 . S
C1289 C1287 1.356 . S
H1290 C1284 0.930 . S
H1291 C1288 0.930 . S
O1292 Li1232 1.956 . S
O1292 Li1233 1.970 . S
O1292 Li1234 1.961 . S
O1292 C1236 1.325 . S
O1293 Li1232 1.970 . S
O1293 Li1233 1.956 . S
O1293 Li1235 1.961 . S
O1293 C1242 1.325 . S
O1294 Li1232 1.961 . S
O1294 Li1234 1.956 . S
O1294 Li1235 1.970 . S
O1294 C1264 1.325 . S
O1295 Li1233 1.961 . S
O1295 Li1234 1.970 . S
O1295 Li1235 1.956 . S
O1295 C1270 1.325 . S
H1296 C1238 0.929 . S
H1297 C1239 0.930 . S
H1298 C1240 0.930 . S
H1299 C1241 0.930 . S
H1300 C1243 0.930 . S
H1301 C1245 0.929 . S
H1302 C1246 0.930 . S
H1303 C1247 0.930 . S
H1304 C1250 0.930 . S
H1305 C1253 0.929 . S
H1306 C1258 0.929 . S
H1307 C1259 0.930 . S
H1308 C1266 0.929 . S
H1309 C1267 0.930 . S
H1310 C1268 0.930 . S
H1311 C1269 0.930 . S
H1312 C1271 0.929 . S
H1313 C1272 0.930 . S
H1314 C1273 0.930 . S
H1315 C1274 0.930 . S
H1316 C1278 0.968 . S
H1317 C1280 0.930 . S
H1318 C1286 0.929 . S
H1319 C1287 0.930 . S
Li1320 N1337 1.990 . S
Li1320 O1380 1.956 . S
Li1320 O1381 1.970 . S
Li1320 O1382 1.961 . S
Li1321 N1345 1.990 . S
Li1321 O1380 1.970 . S
Li1321 O1381 1.956 . S
Li1321 O1383 1.961 . S
Li1322 N1367 1.990 . S
Li1322 O1380 1.961 . S
Li1322 O1382 1.956 . S
Li1322 O1383 1.970 . S
Li1323 N1373 1.990 . S
Li1323 O1381 1.961 . S
Li1323 O1382 1.970 . S
Li1323 O1383 1.956 . S
C1324 C1326 1.348 . S
C1324 C1327 1.356 . S
C1324 O1380 1.325 . S
N1325 C1328 1.314 . S
N1325 C1329 1.279 . S
C1326 C1324 1.348 . S
C1326 C1328 1.353 . S
C1326 H1384 0.929 . S
C1327 C1324 1.356 . S
C1327 C1329 1.358 . S
C1327 H1385 0.930 . S
C1328 N1325 1.314 . S
C1328 C1326 1.353 . S
C1328 H1386 0.930 . S
C1329 N1325 1.279 . S
C1329 C1327 1.358 . S
C1329 H1387 0.930 . S
C1330 C1333 1.348 . S
C1330 C1334 1.356 . S
C1330 O1381 1.325 . S
C1331 N1332 1.279 . S
C1331 C1334 1.358 . S
C1331 H1388 0.930 . S
N1332 C1331 1.279 . S
N1332 C1335 1.314 . S
C1333 C1330 1.348 . S
C1333 C1335 1.353 . S
C1333 H1389 0.929 . S
C1334 C1330 1.356 . S
C1334 C1331 1.358 . S
C1334 H1390 0.930 . S
C1335 N1332 1.314 . S
C1335 C1333 1.353 . S
C1335 H1391 0.930 . S
C1336 N1337 1.314 . S
C1336 C1341 1.353 . S
C1336 H1342 0.930 . S
N1337 Li1320 1.990 . S
N1337 C1336 1.314 . S
N1337 C1339 1.279 . S
C1338 C1339 1.358 . S
C1338 C1340 1.356 . S
C1338 H1392 0.930 . S
C1339 N1337 1.279 . S
C1339 C1338 1.358 . S
C1339 H1343 0.930 . S
C1340 C1338 1.356 . S
C1340 C1341 1.348 . S
C1341 C1336 1.353 . S
C1341 C1340 1.348 . S
C1341 H1393 0.929 . S
H1342 C1336 0.930 . S
H1343 C1339 0.930 . S
C1344 N1345 1.314 . S
C1344 C1346 1.353 . S
C1344 H1350 0.930 . S
N1345 Li1321 1.990 . S
N1345 C1344 1.314 . S
N1345 C1348 1.279 . S
C1346 C1344 1.353 . S
C1346 C1349 1.348 . S
C1346 H1394 0.929 . S
C1347 C1348 1.358 . S
C1347 C1349 1.356 . S
C1347 H1395 0.930 . S
C1348 N1345 1.279 . S
C1348 C1347 1.358 . S
C1348 H1351 0.930 . S
C1349 C1346 1.348 . S
C1349 C1347 1.356 . S
H1350 C1344 0.930 . S
H1351 C1348 0.930 . S
C1352 C1354 1.348 . S
C1352 C1355 1.356 . S
C1352 O1382 1.325 . S
N1353 C1356 1.314 . S
N1353 C1357 1.279 . S
C1354 C1352 1.348 . S
C1354 C1356 1.353 . S
C1354 H1396 0.929 . S
C1355 C1352 1.356 . S
C1355 C1357 1.358 . S
C1355 H1397 0.930 . S
C1356 N1353 1.314 . S
C1356 C1354 1.353 . S
C1356 H1398 0.930 . S
C1357 N1353 1.279 . S
C1357 C1355 1.358 . S
C1357 H1399 0.930 . S
C1358 C1359 1.348 . S
C1358 C1360 1.356 . S
C1358 O1383 1.325 . S
C1359 C1358 1.348 . S
C1359 C1361 1.353 . S
C1359 H1400 0.929 . S
C1360 C1358 1.356 . S
C1360 C1362 1.358 . S
C1360 H1401 0.930 . S
C1361 C1359 1.353 . S
C1361 N1363 1.314 . S
C1361 H1402 0.930 . S
C1362 C1360 1.358 . S
C1362 N1363 1.279 . S
C1362 H1403 0.930 . S
N1363 C1361 1.314 . S
N1363 C1362 1.279 . S
C1364 C1366 1.353 . S
C1364 N1367 1.314 . S
C1364 H1370 0.930 . S
C1365 N1367 1.279 . S
C1365 C1368 1.358 . S
C1365 H1371 0.930 . S
C1366 C1364 1.353 . S
C1366 C1369 1.348 . S
C1366 H1404 0.929 . S
N1367 Li1322 1.990 . S
N1367 C1364 1.314 . S
N1367 C1365 1.279 . S
C1368 C1365 1.358 . S
C1368 C1369 1.356 . S
C1368 H1405 0.930 . S
C1369 C1366 1.348 . S
C1369 C1368 1.356 . S
H1370 C1364 0.930 . S
H1371 C1365 0.930 . S
C1372 N1373 1.314 . S
C1372 C1374 1.353 . S
C1372 H1378 0.930 . S
N1373 Li1323 1.990 . S
N1373 C1372 1.314 . S
N1373 C1376 1.279 . S
C1374 C1372 1.353 . S
C1374 C1377 1.348 . S
C1374 H1406 0.929 . S
C1375 C1376 1.358 . S
C1375 C1377 1.356 . S
C1375 H1407 0.930 . S
C1376 N1373 1.279 . S
C1376 C1375 1.358 . S
C1376 H1379 0.930 . S
C1377 C1374 1.348 . S
C1377 C1375 1.356 . S
H1378 C1372 0.930 . S
H1379 C1376 0.930 . S
O1380 Li1320 1.956 . S
O1380 Li1321 1.970 . S
O1380 Li1322 1.961 . S
O1380 C1324 1.325 . S
O1381 Li1320 1.970 . S
O1381 Li1321 1.956 . S
O1381 Li1323 1.961 . S
O1381 C1330 1.325 . S
O1382 Li1320 1.961 . S
O1382 Li1322 1.956 . S
O1382 Li1323 1.970 . S
O1382 C1352 1.325 . S
O1383 Li1321 1.961 . S
O1383 Li1322 1.970 . S
O1383 Li1323 1.956 . S
O1383 C1358 1.325 . S
H1384 C1326 0.929 . S
H1385 C1327 0.930 . S
H1386 C1328 0.930 . S
H1387 C1329 0.930 . S
H1388 C1331 0.930 . S
H1389 C1333 0.929 . S
H1390 C1334 0.930 . S
H1391 C1335 0.930 . S
H1392 C1338 0.930 . S
H1393 C1341 0.929 . S
H1394 C1346 0.929 . S
H1395 C1347 0.930 . S
H1396 C1354 0.929 . S
H1397 C1355 0.930 . S
H1398 C1356 0.930 . S
H1399 C1357 0.930 . S
H1400 C1359 0.929 . S
H1401 C1360 0.930 . S
H1402 C1361 0.930 . S
H1403 C1362 0.930 . S
H1404 C1366 0.929 . S
H1405 C1368 0.930 . S
H1406 C1374 0.929 . S
H1407 C1375 0.930 . S
Li1408 N1425 1.990 . S
Li1408 O1468 1.956 . S
Li1408 O1469 1.970 . S
Li1408 O1470 1.961 . S
Li1409 N1433 1.990 . S
Li1409 O1468 1.970 . S
Li1409 O1469 1.956 . S
Li1409 O1471 1.961 . S
Li1410 N1455 1.990 . S
Li1410 O1468 1.961 . S
Li1410 O1470 1.956 . S
Li1410 O1471 1.970 . S
Li1411 N1461 1.990 . S
Li1411 O1469 1.961 . S
Li1411 O1470 1.970 . S
Li1411 O1471 1.956 . S
C1412 C1414 1.348 . S
C1412 C1415 1.356 . S
C1412 O1468 1.325 . S
N1413 C1416 1.314 . S
N1413 C1417 1.279 . S
C1414 C1412 1.348 . S
C1414 C1416 1.353 . S
C1414 H1472 0.929 . S
C1415 C1412 1.356 . S
C1415 C1417 1.358 . S
C1415 H1473 0.930 . S
C1416 N1413 1.314 . S
C1416 C1414 1.353 . S
C1416 H1474 0.930 . S
C1417 N1413 1.279 . S
C1417 C1415 1.358 . S
C1417 H1475 0.930 . S
C1418 C1421 1.348 . S
C1418 C1422 1.356 . S
C1418 O1469 1.325 . S
C1419 N1420 1.279 . S
C1419 C1422 1.358 . S
C1419 H1476 0.930 . S
N1420 C1419 1.279 . S
N1420 C1423 1.314 . S
C1421 C1418 1.348 . S
C1421 C1423 1.353 . S
C1421 H1477 0.929 . S
C1422 C1418 1.356 . S
C1422 C1419 1.358 . S
C1422 H1478 0.930 . S
C1423 N1420 1.314 . S
C1423 C1421 1.353 . S
C1423 H1479 0.930 . S
C1424 N1425 1.314 . S
C1424 C1429 1.353 . S
C1424 H1430 0.930 . S
N1425 Li1408 1.990 . S
N1425 C1424 1.314 . S
N1425 C1427 1.279 . S
C1426 C1427 1.358 . S
C1426 C1428 1.356 . S
C1426 H1480 0.930 . S
C1427 N1425 1.279 . S
C1427 C1426 1.358 . S
C1427 H1431 0.930 . S
C1428 C1426 1.356 . S
C1428 C1429 1.348 . S
C1429 C1424 1.353 . S
C1429 C1428 1.348 . S
C1429 H1481 0.929 . S
H1430 C1424 0.930 . S
H1431 C1427 0.930 . S
C1432 N1433 1.314 . S
C1432 C1434 1.353 . S
C1432 H1438 0.930 . S
N1433 Li1409 1.990 . S
N1433 C1432 1.314 . S
N1433 C1436 1.279 . S
C1434 C1432 1.353 . S
C1434 C1437 1.348 . S
C1434 H1482 0.929 . S
C1435 C1436 1.358 . S
C1435 C1437 1.356 . S
C1435 H1483 0.930 . S
C1436 N1433 1.279 . S
C1436 C1435 1.358 . S
C1436 H1439 0.930 . S
C1437 C1434 1.348 . S
C1437 C1435 1.356 . S
H1438 C1432 0.930 . S
H1439 C1436 0.930 . S
C1440 C1442 1.348 . S
C1440 C1443 1.356 . S
C1440 O1470 1.325 . S
N1441 C1444 1.314 . S
N1441 C1445 1.279 . S
C1442 C1440 1.348 . S
C1442 C1444 1.353 . S
C1442 H1484 0.929 . S
C1443 C1440 1.356 . S
C1443 C1445 1.358 . S
C1443 H1485 0.930 . S
C1444 N1441 1.314 . S
C1444 C1442 1.353 . S
C1444 H1486 0.930 . S
C1445 N1441 1.279 . S
C1445 C1443 1.358 . S
C1445 H1487 0.930 . S
C1446 C1447 1.348 . S
C1446 C1448 1.356 . S
C1446 O1471 1.325 . S
C1447 C1446 1.348 . S
C1447 C1449 1.353 . S
C1447 H1488 0.929 . S
C1448 C1446 1.356 . S
C1448 C1450 1.358 . S
C1448 H1489 0.930 . S
C1449 C1447 1.353 . S
C1449 N1451 1.314 . S
C1449 H1490 0.930 . S
C1450 C1448 1.358 . S
C1450 N1451 1.279 . S
C1450 H1491 0.930 . S
N1451 C1449 1.314 . S
N1451 C1450 1.279 . S
C1452 C1454 1.353 . S
C1452 N1455 1.314 . S
C1452 H1458 0.930 . S
C1453 N1455 1.279 . S
C1453 C1456 1.358 . S
C1453 H1459 0.930 . S
C1454 C1452 1.353 . S
C1454 C1457 1.348 . S
C1454 H1492 0.929 . S
N1455 Li1410 1.990 . S
N1455 C1452 1.314 . S
N1455 C1453 1.279 . S
C1456 C1453 1.358 . S
C1456 C1457 1.356 . S
C1456 H1493 0.930 . S
C1457 C1454 1.348 . S
C1457 C1456 1.356 . S
H1458 C1452 0.930 . S
H1459 C1453 0.930 . S
C1460 N1461 1.314 . S
C1460 C1462 1.353 . S
C1460 H1466 0.930 . S
N1461 Li1411 1.990 . S
N1461 C1460 1.314 . S
N1461 C1464 1.279 . S
C1462 C1460 1.353 . S
C1462 C1465 1.348 . S
C1462 H1494 0.929 . S
C1463 C1464 1.358 . S
C1463 C1465 1.356 . S
C1463 H1495 0.930 . S
C1464 N1461 1.279 . S
C1464 C1463 1.358 . S
C1464 H1467 0.930 . S
C1465 C1462 1.348 . S
C1465 C1463 1.356 . S
H1466 C1460 0.930 . S
H1467 C1464 0.930 . S
O1468 Li1408 1.956 . S
O1468 Li1409 1.970 . S
O1468 Li1410 1.961 . S
O1468 C1412 1.325 . S
O1469 Li1408 1.970 . S
O1469 Li1409 1.956 . S
O1469 Li1411 1.961 . S
O1469 C1418 1.325 . S
O1470 Li1408 1.961 . S
O1470 Li1410 1.956 . S
O1470 Li1411 1.970 . S
O1470 C1440 1.325 . S
O1471 Li1409 1.961 . S
O1471 Li1410 1.970 . S
O1471 Li1411 1.956 . S
O1471 C1446 1.325 . S
H1472 C1414 0.929 . S
H1473 C1415 0.930 . S
H1474 C1416 0.930 . S
H1475 C1417 0.930 . S
H1476 C1419 0.930 . S
H1477 C1421 0.929 . S
H1478 C1422 0.930 . S
H1479 C1423 0.930 . S
H1480 C1426 0.930 . S
H1481 C1429 0.929 . S
H1482 C1434 0.929 . S
H1483 C1435 0.930 . S
H1484 C1442 0.929 . S
H1485 C1443 0.930 . S
H1486 C1444 0.930 . S
H1487 C1445 0.930 . S
H1488 C1447 0.929 . S
H1489 C1448 0.930 . S
H1490 C1449 0.930 . S
H1491 C1450 0.930 . S
H1492 C1454 0.929 . S
H1493 C1456 0.930 . S
H1494 C1462 0.929 . S
H1495 C1463 0.930 . S
Li1496 N1513 1.990 . S
Li1496 O1556 1.956 . S
Li1496 O1557 1.970 . S
Li1496 O1558 1.961 . S
Li1497 N1521 1.990 . S
Li1497 O1556 1.970 . S
Li1497 O1557 1.956 . S
Li1497 O1559 1.961 . S
Li1498 N1543 1.990 . S
Li1498 O1556 1.961 . S
Li1498 O1558 1.956 . S
Li1498 O1559 1.970 . S
Li1499 N1549 1.990 . S
Li1499 O1557 1.961 . S
Li1499 O1558 1.970 . S
Li1499 O1559 1.956 . S
C1500 C1502 1.348 . S
C1500 C1503 1.356 . S
C1500 O1556 1.325 . S
N1501 C1504 1.314 . S
N1501 C1505 1.279 . S
C1502 C1500 1.348 . S
C1502 C1504 1.353 . S
C1502 H1560 0.929 . S
C1503 C1500 1.356 . S
C1503 C1505 1.358 . S
C1503 H1561 0.930 . S
C1504 N1501 1.314 . S
C1504 C1502 1.353 . S
C1504 H1562 0.930 . S
C1505 N1501 1.279 . S
C1505 C1503 1.358 . S
C1505 H1563 0.930 . S
C1506 C1509 1.348 . S
C1506 C1510 1.356 . S
C1506 O1557 1.325 . S
C1507 N1508 1.279 . S
C1507 C1510 1.358 . S
C1507 H1564 0.930 . S
N1508 C1507 1.279 . S
N1508 C1511 1.314 . S
C1509 C1506 1.348 . S
C1509 C1511 1.353 . S
C1509 H1565 0.929 . S
C1510 C1506 1.356 . S
C1510 C1507 1.358 . S
C1510 H1566 0.930 . S
C1511 N1508 1.314 . S
C1511 C1509 1.353 . S
C1511 H1567 0.930 . S
C1512 N1513 1.314 . S
C1512 C1517 1.353 . S
C1512 H1518 0.930 . S
N1513 Li1496 1.990 . S
N1513 C1512 1.314 . S
N1513 C1515 1.279 . S
C1514 C1515 1.358 . S
C1514 C1516 1.356 . S
C1514 H1568 0.930 . S
C1515 N1513 1.279 . S
C1515 C1514 1.358 . S
C1515 H1519 0.930 . S
C1516 C1514 1.356 . S
C1516 C1517 1.348 . S
C1517 C1512 1.353 . S
C1517 C1516 1.348 . S
C1517 H1569 0.929 . S
H1518 C1512 0.930 . S
H1519 C1515 0.930 . S
C1520 N1521 1.314 . S
C1520 C1522 1.353 . S
C1520 H1526 0.930 . S
N1521 Li1497 1.990 . S
N1521 C1520 1.314 . S
N1521 C1524 1.279 . S
C1522 C1520 1.353 . S
C1522 C1525 1.348 . S
C1522 H1570 0.929 . S
C1523 C1524 1.358 . S
C1523 C1525 1.356 . S
C1523 H1571 0.930 . S
C1524 N1521 1.279 . S
C1524 C1523 1.358 . S
C1524 H1527 0.930 . S
C1525 C1522 1.348 . S
C1525 C1523 1.356 . S
H1526 C1520 0.930 . S
H1527 C1524 0.930 . S
C1528 C1530 1.348 . S
C1528 C1531 1.356 . S
C1528 O1558 1.325 . S
N1529 C1532 1.314 . S
N1529 C1533 1.279 . S
C1530 C1528 1.348 . S
C1530 C1532 1.353 . S
C1530 H1572 0.929 . S
C1531 C1528 1.356 . S
C1531 C1533 1.358 . S
C1531 H1573 0.930 . S
C1532 N1529 1.314 . S
C1532 C1530 1.353 . S
C1532 H1574 0.930 . S
C1533 N1529 1.279 . S
C1533 C1531 1.358 . S
C1533 H1575 0.930 . S
C1534 C1535 1.348 . S
C1534 C1536 1.356 . S
C1534 O1559 1.325 . S
C1535 C1534 1.348 . S
C1535 C1537 1.353 . S
C1535 H1576 0.929 . S
C1536 C1534 1.356 . S
C1536 C1538 1.358 . S
C1536 H1577 0.930 . S
C1537 C1535 1.353 . S
C1537 N1539 1.314 . S
C1537 H1578 0.930 . S
C1538 C1536 1.358 . S
C1538 N1539 1.279 . S
C1538 H1579 0.930 . S
N1539 C1537 1.314 . S
N1539 C1538 1.279 . S
C1540 C1542 1.353 . S
C1540 N1543 1.314 . S
C1540 H1546 0.930 . S
C1541 N1543 1.279 . S
C1541 C1544 1.358 . S
C1541 H1547 0.930 . S
C1542 C1540 1.353 . S
C1542 C1545 1.348 . S
C1542 H1580 0.929 . S
N1543 Li1498 1.990 . S
N1543 C1540 1.314 . S
N1543 C1541 1.279 . S
C1544 C1541 1.358 . S
C1544 C1545 1.356 . S
C1544 H1581 0.930 . S
C1545 C1542 1.348 . S
C1545 C1544 1.356 . S
H1546 C1540 0.930 . S
H1547 C1541 0.930 . S
C1548 N1549 1.314 . S
C1548 C1550 1.353 . S
C1548 H1554 0.930 . S
N1549 Li1499 1.990 . S
N1549 C1548 1.314 . S
N1549 C1552 1.279 . S
C1550 C1548 1.353 . S
C1550 C1553 1.348 . S
C1550 H1582 0.929 . S
C1551 C1552 1.358 . S
C1551 C1553 1.356 . S
C1551 H1583 0.930 . S
C1552 N1549 1.279 . S
C1552 C1551 1.358 . S
C1552 H1555 0.930 . S
C1553 C1550 1.348 . S
C1553 C1551 1.356 . S
H1554 C1548 0.930 . S
H1555 C1552 0.930 . S
O1556 Li1496 1.956 . S
O1556 Li1497 1.970 . S
O1556 Li1498 1.961 . S
O1556 C1500 1.325 . S
O1557 Li1496 1.970 . S
O1557 Li1497 1.956 . S
O1557 Li1499 1.961 . S
O1557 C1506 1.325 . S
O1558 Li1496 1.961 . S
O1558 Li1498 1.956 . S
O1558 Li1499 1.970 . S
O1558 C1528 1.325 . S
O1559 Li1497 1.961 . S
O1559 Li1498 1.970 . S
O1559 Li1499 1.956 . S
O1559 C1534 1.325 . S
H1560 C1502 0.929 . S
H1561 C1503 0.930 . S
H1562 C1504 0.930 . S
H1563 C1505 0.930 . S
H1564 C1507 0.930 . S
H1565 C1509 0.929 . S
H1566 C1510 0.930 . S
H1567 C1511 0.930 . S
H1568 C1514 0.930 . S
H1569 C1517 0.929 . S
H1570 C1522 0.929 . S
H1571 C1523 0.930 . S
H1572 C1530 0.929 . S
H1573 C1531 0.930 . S
H1574 C1532 0.930 . S
H1575 C1533 0.930 . S
H1576 C1535 0.929 . S
H1577 C1536 0.930 . S
H1578 C1537 0.930 . S
H1579 C1538 0.930 . S
H1580 C1542 0.929 . S
H1581 C1544 0.930 . S
H1582 C1550 0.929 . S
H1583 C1551 0.930 . S
Li1584 N1601 1.990 . S
Li1584 O1644 1.956 . S
Li1584 O1645 1.970 . S
Li1584 O1646 1.961 . S
Li1585 N1609 1.990 . S
Li1585 O1644 1.970 . S
Li1585 O1645 1.956 . S
Li1585 O1647 1.961 . S
Li1586 N1631 1.990 . S
Li1586 O1644 1.961 . S
Li1586 O1646 1.956 . S
Li1586 O1647 1.970 . S
Li1587 N1637 1.990 . S
Li1587 O1645 1.961 . S
Li1587 O1646 1.970 . S
Li1587 O1647 1.956 . S
C1588 C1590 1.348 . S
C1588 C1591 1.356 . S
C1588 O1644 1.325 . S
N1589 C1592 1.314 . S
N1589 C1593 1.279 . S
C1590 C1588 1.348 . S
C1590 C1592 1.353 . S
C1590 H1648 0.929 . S
C1591 C1588 1.356 . S
C1591 C1593 1.358 . S
C1591 H1649 0.930 . S
C1592 N1589 1.314 . S
C1592 C1590 1.353 . S
C1592 H1650 0.930 . S
C1593 N1589 1.279 . S
C1593 C1591 1.358 . S
C1593 H1651 0.930 . S
C1594 C1597 1.348 . S
C1594 C1598 1.356 . S
C1594 O1645 1.325 . S
C1595 N1596 1.279 . S
C1595 C1598 1.358 . S
C1595 H1652 0.930 . S
N1596 C1595 1.279 . S
N1596 C1599 1.314 . S
C1597 C1594 1.348 . S
C1597 C1599 1.353 . S
C1597 H1653 0.929 . S
C1598 C1594 1.356 . S
C1598 C1595 1.358 . S
C1598 H1654 0.930 . S
C1599 N1596 1.314 . S
C1599 C1597 1.353 . S
C1599 H1655 0.930 . S
C1600 N1601 1.314 . S
C1600 C1605 1.353 . S
C1600 H1606 0.930 . S
N1601 Li1584 1.990 . S
N1601 C1600 1.314 . S
N1601 C1603 1.279 . S
C1602 C1603 1.358 . S
C1602 C1604 1.356 . S
C1602 H1656 0.930 . S
C1603 N1601 1.279 . S
C1603 C1602 1.358 . S
C1603 H1607 0.930 . S
C1604 C1602 1.356 . S
C1604 C1605 1.348 . S
C1605 C1600 1.353 . S
C1605 C1604 1.348 . S
C1605 H1657 0.929 . S
H1606 C1600 0.930 . S
H1607 C1603 0.930 . S
C1608 N1609 1.314 . S
C1608 C1610 1.353 . S
C1608 H1614 0.930 . S
N1609 Li1585 1.990 . S
N1609 C1608 1.314 . S
N1609 C1612 1.279 . S
C1610 C1608 1.353 . S
C1610 C1613 1.348 . S
C1610 H1658 0.929 . S
C1611 C1612 1.358 . S
C1611 C1613 1.356 . S
C1611 H1659 0.930 . S
C1612 N1609 1.279 . S
C1612 C1611 1.358 . S
C1612 H1615 0.930 . S
C1613 C1610 1.348 . S
C1613 C1611 1.356 . S
H1614 C1608 0.930 . S
H1615 C1612 0.930 . S
C1616 C1618 1.348 . S
C1616 C1619 1.356 . S
C1616 O1646 1.325 . S
N1617 C1620 1.314 . S
N1617 C1621 1.279 . S
C1618 C1616 1.348 . S
C1618 C1620 1.353 . S
C1618 H1660 0.929 . S
C1619 C1616 1.356 . S
C1619 C1621 1.358 . S
C1619 H1661 0.930 . S
C1620 N1617 1.314 . S
C1620 C1618 1.353 . S
C1620 H1662 0.930 . S
C1621 N1617 1.279 . S
C1621 C1619 1.358 . S
C1621 H1663 0.930 . S
C1622 C1623 1.348 . S
C1622 C1624 1.356 . S
C1622 O1647 1.325 . S
C1623 C1622 1.348 . S
C1623 C1625 1.353 . S
C1623 H1664 0.929 . S
C1624 C1622 1.356 . S
C1624 C1626 1.358 . S
C1624 H1665 0.930 . S
C1625 C1623 1.353 . S
C1625 N1627 1.314 . S
C1625 H1666 0.930 . S
C1626 C1624 1.358 . S
C1626 N1627 1.279 . S
C1626 H1667 0.930 . S
N1627 C1625 1.314 . S
N1627 C1626 1.279 . S
C1628 C1630 1.353 . S
C1628 N1631 1.314 . S
C1628 H1634 0.930 . S
C1629 N1631 1.279 . S
C1629 C1632 1.358 . S
C1629 H1635 0.930 . S
C1630 C1628 1.353 . S
C1630 C1633 1.348 . S
C1630 H1668 0.929 . S
N1631 Li1586 1.990 . S
N1631 C1628 1.314 . S
N1631 C1629 1.279 . S
C1632 C1629 1.358 . S
C1632 C1633 1.356 . S
C1632 H1669 0.930 . S
C1633 C1630 1.348 . S
C1633 C1632 1.356 . S
H1634 C1628 0.930 . S
H1635 C1629 0.930 . S
C1636 N1637 1.314 . S
C1636 C1638 1.353 . S
C1636 H1642 0.930 . S
N1637 Li1587 1.990 . S
N1637 C1636 1.314 . S
N1637 C1640 1.279 . S
C1638 C1636 1.353 . S
C1638 C1641 1.348 . S
C1638 H1670 0.929 . S
C1639 C1640 1.358 . S
C1639 C1641 1.356 . S
C1639 H1671 0.930 . S
C1640 N1637 1.279 . S
C1640 C1639 1.358 . S
C1640 H1643 0.930 . S
C1641 C1638 1.348 . S
C1641 C1639 1.356 . S
H1642 C1636 0.930 . S
H1643 C1640 0.930 . S
O1644 Li1584 1.956 . S
O1644 Li1585 1.970 . S
O1644 Li1586 1.961 . S
O1644 C1588 1.325 . S
O1645 Li1584 1.970 . S
O1645 Li1585 1.956 . S
O1645 Li1587 1.961 . S
O1645 C1594 1.325 . S
O1646 Li1584 1.961 . S
O1646 Li1586 1.956 . S
O1646 Li1587 1.970 . S
O1646 C1616 1.325 . S
O1647 Li1585 1.961 . S
O1647 Li1586 1.970 . S
O1647 Li1587 1.956 . S
O1647 C1622 1.325 . S
H1648 C1590 0.929 . S
H1649 C1591 0.930 . S
H1650 C1592 0.930 . S
H1651 C1593 0.930 . S
H1652 C1595 0.930 . S
H1653 C1597 0.929 . S
H1654 C1598 0.930 . S
H1655 C1599 0.930 . S
H1656 C1602 0.930 . S
H1657 C1605 0.929 . S
H1658 C1610 0.929 . S
H1659 C1611 0.930 . S
H1660 C1618 0.929 . S
H1661 C1619 0.930 . S
H1662 C1620 0.930 . S
H1663 C1621 0.930 . S
H1664 C1623 0.929 . S
H1665 C1624 0.930 . S
H1666 C1625 0.930 . S
H1667 C1626 0.930 . S
H1668 C1630 0.929 . S
H1669 C1632 0.930 . S
H1670 C1638 0.929 . S
H1671 C1639 0.930 . S
Li1672 N1689 1.990 . S
Li1672 O1732 1.956 . S
Li1672 O1733 1.970 . S
Li1672 O1734 1.961 . S
Li1673 N1697 1.990 . S
Li1673 O1732 1.970 . S
Li1673 O1733 1.956 . S
Li1673 O1735 1.961 . S
Li1674 N1719 1.990 . S
Li1674 O1732 1.961 . S
Li1674 O1734 1.956 . S
Li1674 O1735 1.970 . S
Li1675 N1725 1.990 . S
Li1675 O1733 1.961 . S
Li1675 O1734 1.970 . S
Li1675 O1735 1.956 . S
C1676 C1678 1.348 . S
C1676 C1679 1.356 . S
C1676 O1732 1.325 . S
N1677 C1680 1.314 . S
N1677 C1681 1.279 . S
C1678 C1676 1.348 . S
C1678 C1680 1.353 . S
C1678 H1736 0.929 . S
C1679 C1676 1.356 . S
C1679 C1681 1.358 . S
C1679 H1737 0.930 . S
C1680 N1677 1.314 . S
C1680 C1678 1.353 . S
C1680 H1738 0.930 . S
C1681 N1677 1.279 . S
C1681 C1679 1.358 . S
C1681 H1739 0.930 . S
C1682 C1685 1.348 . S
C1682 C1686 1.356 . S
C1682 O1733 1.325 . S
C1683 N1684 1.279 . S
C1683 C1686 1.358 . S
C1683 H1740 0.930 . S
N1684 C1683 1.279 . S
N1684 C1687 1.314 . S
C1685 C1682 1.348 . S
C1685 C1687 1.353 . S
C1685 H1741 0.929 . S
C1686 C1682 1.356 . S
C1686 C1683 1.358 . S
C1686 H1742 0.930 . S
C1687 N1684 1.314 . S
C1687 C1685 1.353 . S
C1687 H1743 0.930 . S
C1688 N1689 1.314 . S
C1688 C1693 1.353 . S
C1688 H1694 0.930 . S
N1689 Li1672 1.990 . S
N1689 C1688 1.314 . S
N1689 C1691 1.279 . S
C1690 C1691 1.358 . S
C1690 C1692 1.356 . S
C1690 H1744 0.930 . S
C1691 N1689 1.279 . S
C1691 C1690 1.358 . S
C1691 H1695 0.930 . S
C1692 C1690 1.356 . S
C1692 C1693 1.348 . S
C1693 C1688 1.353 . S
C1693 C1692 1.348 . S
C1693 H1745 0.929 . S
H1694 C1688 0.930 . S
H1695 C1691 0.930 . S
C1696 N1697 1.314 . S
C1696 C1698 1.353 . S
C1696 H1702 0.930 . S
N1697 Li1673 1.990 . S
N1697 C1696 1.314 . S
N1697 C1700 1.279 . S
C1698 C1696 1.353 . S
C1698 C1701 1.348 . S
C1698 H1746 0.929 . S
C1699 C1700 1.358 . S
C1699 C1701 1.356 . S
C1699 H1747 0.930 . S
C1700 N1697 1.279 . S
C1700 C1699 1.358 . S
C1700 H1703 0.930 . S
C1701 C1698 1.348 . S
C1701 C1699 1.356 . S
H1702 C1696 0.930 . S
H1703 C1700 0.930 . S
C1704 C1706 1.348 . S
C1704 C1707 1.356 . S
C1704 O1734 1.325 . S
N1705 C1708 1.314 . S
N1705 C1709 1.279 . S
C1706 C1704 1.348 . S
C1706 C1708 1.353 . S
C1706 H1748 0.929 . S
C1707 C1704 1.356 . S
C1707 C1709 1.358 . S
C1707 H1749 0.930 . S
C1708 N1705 1.314 . S
C1708 C1706 1.353 . S
C1708 H1750 0.930 . S
C1709 N1705 1.279 . S
C1709 C1707 1.358 . S
C1709 H1751 0.930 . S
C1710 C1711 1.348 . S
C1710 C1712 1.356 . S
C1710 O1735 1.325 . S
C1711 C1710 1.348 . S
C1711 C1713 1.353 . S
C1711 H1752 0.929 . S
C1712 C1710 1.356 . S
C1712 C1714 1.358 . S
C1712 H1753 0.930 . S
C1713 C1711 1.353 . S
C1713 N1715 1.314 . S
C1713 H1754 0.930 . S
C1714 C1712 1.358 . S
C1714 N1715 1.279 . S
C1714 H1755 0.930 . S
N1715 C1713 1.314 . S
N1715 C1714 1.279 . S
C1716 C1718 1.353 . S
C1716 N1719 1.314 . S
C1716 H1722 0.930 . S
C1717 N1719 1.279 . S
C1717 C1720 1.358 . S
C1717 H1723 0.930 . S
C1718 C1716 1.353 . S
C1718 C1721 1.348 . S
C1718 H1756 0.929 . S
N1719 Li1674 1.990 . S
N1719 C1716 1.314 . S
N1719 C1717 1.279 . S
C1720 C1717 1.358 . S
C1720 C1721 1.356 . S
C1720 H1757 0.930 . S
C1721 C1718 1.348 . S
C1721 C1720 1.356 . S
H1722 C1716 0.930 . S
H1723 C1717 0.930 . S
C1724 N1725 1.314 . S
C1724 C1726 1.353 . S
C1724 H1730 0.930 . S
N1725 Li1675 1.990 . S
N1725 C1724 1.314 . S
N1725 C1728 1.279 . S
C1726 C1724 1.353 . S
C1726 C1729 1.348 . S
C1726 H1758 0.929 . S
C1727 C1728 1.358 . S
C1727 C1729 1.356 . S
C1727 H1759 0.930 . S
C1728 N1725 1.279 . S
C1728 C1727 1.358 . S
C1728 H1731 0.930 . S
C1729 C1726 1.348 . S
C1729 C1727 1.356 . S
H1730 C1724 0.930 . S
H1731 C1728 0.930 . S
O1732 Li1672 1.956 . S
O1732 Li1673 1.970 . S
O1732 Li1674 1.961 . S
O1732 C1676 1.325 . S
O1733 Li1672 1.970 . S
O1733 Li1673 1.956 . S
O1733 Li1675 1.961 . S
O1733 C1682 1.325 . S
O1734 Li1672 1.961 . S
O1734 Li1674 1.956 . S
O1734 Li1675 1.970 . S
O1734 C1704 1.325 . S
O1735 Li1673 1.961 . S
O1735 Li1674 1.970 . S
O1735 Li1675 1.956 . S
O1735 C1710 1.325 . S
H1736 C1678 0.929 . S
H1737 C1679 0.930 . S
H1738 C1680 0.930 . S
H1739 C1681 0.930 . S
H1740 C1683 0.930 . S
H1741 C1685 0.929 . S
H1742 C1686 0.930 . S
H1743 C1687 0.930 . S
H1744 C1690 0.930 . S
H1745 C1693 0.929 . S
H1746 C1698 0.929 . S
H1747 C1699 0.930 . S
H1748 C1706 0.929 . S
H1749 C1707 0.930 . S
H1750 C1708 0.930 . S
H1751 C1709 0.930 . S
H1752 C1711 0.929 . S
H1753 C1712 0.930 . S
H1754 C1713 0.930 . S
H1755 C1714 0.930 . S
H1756 C1718 0.929 . S
H1757 C1720 0.930 . S
H1758 C1726 0.929 . S
H1759 C1727 0.930 . S
Li1760 N1777 1.990 . S
Li1760 O1820 1.956 . S
Li1760 O1821 1.970 . S
Li1760 O1822 1.961 . S
Li1761 N1785 1.990 . S
Li1761 O1820 1.970 . S
Li1761 O1821 1.956 . S
Li1761 O1823 1.961 . S
Li1762 N1807 1.990 . S
Li1762 O1820 1.961 . S
Li1762 O1822 1.956 . S
Li1762 O1823 1.970 . S
Li1763 N1813 1.990 . S
Li1763 O1821 1.961 . S
Li1763 O1822 1.970 . S
Li1763 O1823 1.956 . S
C1764 C1766 1.348 . S
C1764 C1767 1.356 . S
C1764 O1820 1.325 . S
N1765 C1768 1.314 . S
N1765 C1769 1.279 . S
C1766 C1764 1.348 . S
C1766 C1768 1.353 . S
C1766 H1824 0.929 . S
C1767 C1764 1.356 . S
C1767 C1769 1.358 . S
C1767 H1825 0.930 . S
C1768 N1765 1.314 . S
C1768 C1766 1.353 . S
C1768 H1826 0.930 . S
C1769 N1765 1.279 . S
C1769 C1767 1.358 . S
C1769 H1827 0.930 . S
C1770 C1773 1.348 . S
C1770 C1774 1.356 . S
C1770 O1821 1.325 . S
C1771 N1772 1.279 . S
C1771 C1774 1.358 . S
C1771 H1828 0.930 . S
N1772 C1771 1.279 . S
N1772 C1775 1.314 . S
C1773 C1770 1.348 . S
C1773 C1775 1.353 . S
C1773 H1829 0.929 . S
C1774 C1770 1.356 . S
C1774 C1771 1.358 . S
C1774 H1830 0.930 . S
C1775 N1772 1.314 . S
C1775 C1773 1.353 . S
C1775 H1831 0.930 . S
C1776 N1777 1.314 . S
C1776 C1781 1.353 . S
C1776 H1782 0.930 . S
N1777 Li1760 1.990 . S
N1777 C1776 1.314 . S
N1777 C1779 1.279 . S
C1778 C1779 1.358 . S
C1778 C1780 1.356 . S
C1778 H1832 0.930 . S
C1779 N1777 1.279 . S
C1779 C1778 1.358 . S
C1779 H1783 0.930 . S
C1780 C1778 1.356 . S
C1780 C1781 1.348 . S
C1781 C1776 1.353 . S
C1781 C1780 1.348 . S
C1781 H1833 0.929 . S
H1782 C1776 0.930 . S
H1783 C1779 0.930 . S
C1784 N1785 1.314 . S
C1784 C1786 1.353 . S
C1784 H1790 0.930 . S
N1785 Li1761 1.990 . S
N1785 C1784 1.314 . S
N1785 C1788 1.279 . S
C1786 C1784 1.353 . S
C1786 C1789 1.348 . S
C1786 H1834 0.929 . S
C1787 C1788 1.358 . S
C1787 C1789 1.356 . S
C1787 H1835 0.930 . S
C1788 N1785 1.279 . S
C1788 C1787 1.358 . S
C1788 H1791 0.930 . S
C1789 C1786 1.348 . S
C1789 C1787 1.356 . S
H1790 C1784 0.930 . S
H1791 C1788 0.930 . S
C1792 C1794 1.348 . S
C1792 C1795 1.356 . S
C1792 O1822 1.325 . S
N1793 C1796 1.314 . S
N1793 C1797 1.279 . S
C1794 C1792 1.348 . S
C1794 C1796 1.353 . S
C1794 H1836 0.929 . S
C1795 C1792 1.356 . S
C1795 C1797 1.358 . S
C1795 H1837 0.930 . S
C1796 N1793 1.314 . S
C1796 C1794 1.353 . S
C1796 H1838 0.930 . S
C1797 N1793 1.279 . S
C1797 C1795 1.358 . S
C1797 H1839 0.930 . S
C1798 C1799 1.348 . S
C1798 C1800 1.356 . S
C1798 O1823 1.325 . S
C1799 C1798 1.348 . S
C1799 C1801 1.353 . S
C1799 H1840 0.929 . S
C1800 C1798 1.356 . S
C1800 C1802 1.358 . S
C1800 H1841 0.930 . S
C1801 C1799 1.353 . S
C1801 N1803 1.314 . S
C1801 H1842 0.930 . S
C1802 C1800 1.358 . S
C1802 N1803 1.279 . S
C1802 H1843 0.930 . S
N1803 C1801 1.314 . S
N1803 C1802 1.279 . S
C1804 C1806 1.353 . S
C1804 N1807 1.314 . S
C1804 H1810 0.930 . S
C1805 N1807 1.279 . S
C1805 C1808 1.358 . S
C1805 H1811 0.930 . S
C1806 C1804 1.353 . S
C1806 C1809 1.348 . S
C1806 H1844 0.929 . S
N1807 Li1762 1.990 . S
N1807 C1804 1.314 . S
N1807 C1805 1.279 . S
C1808 C1805 1.358 . S
C1808 C1809 1.356 . S
C1808 H1845 0.930 . S
C1809 C1806 1.348 . S
C1809 C1808 1.356 . S
H1810 C1804 0.930 . S
H1811 C1805 0.930 . S
C1812 N1813 1.314 . S
C1812 C1814 1.353 . S
C1812 H1818 0.930 . S
N1813 Li1763 1.990 . S
N1813 C1812 1.314 . S
N1813 C1816 1.279 . S
C1814 C1812 1.353 . S
C1814 C1817 1.348 . S
C1814 H1846 0.929 . S
C1815 C1816 1.358 . S
C1815 C1817 1.356 . S
C1815 H1847 0.930 . S
C1816 N1813 1.279 . S
C1816 C1815 1.358 . S
C1816 H1819 0.930 . S
C1817 C1814 1.348 . S
C1817 C1815 1.356 . S
H1818 C1812 0.930 . S
H1819 C1816 0.930 . S
O1820 Li1760 1.956 . S
O1820 Li1761 1.970 . S
O1820 Li1762 1.961 . S
O1820 C1764 1.325 . S
O1821 Li1760 1.970 . S
O1821 Li1761 1.956 . S
O1821 Li1763 1.961 . S
O1821 C1770 1.325 . S
O1822 Li1760 1.961 . S
O1822 Li1762 1.956 . S
O1822 Li1763 1.970 . S
O1822 C1792 1.325 . S
O1823 Li1761 1.961 . S
O1823 Li1762 1.970 . S
O1823 Li1763 1.956 . S
O1823 C1798 1.325 . S
H1824 C1766 0.929 . S
H1825 C1767 0.930 . S
H1826 C1768 0.930 . S
H1827 C1769 0.930 . S
H1828 C1771 0.930 . S
H1829 C1773 0.929 . S
H1830 C1774 0.930 . S
H1831 C1775 0.930 . S
H1832 C1778 0.930 . S
H1833 C1781 0.929 . S
H1834 C1786 0.929 . S
H1835 C1787 0.930 . S
H1836 C1794 0.929 . S
H1837 C1795 0.930 . S
H1838 C1796 0.930 . S
H1839 C1797 0.930 . S
H1840 C1799 0.929 . S
H1841 C1800 0.930 . S
H1842 C1801 0.930 . S
H1843 C1802 0.930 . S
H1844 C1806 0.929 . S
H1845 C1808 0.930 . S
H1846 C1814 0.929 . S
H1847 C1815 0.930 . S
Li1848 N1865 1.990 . S
Li1848 O1908 1.956 . S
Li1848 O1909 1.970 . S
Li1848 O1910 1.961 . S
Li1849 N1873 1.990 . S
Li1849 O1908 1.970 . S
Li1849 O1909 1.956 . S
Li1849 O1911 1.961 . S
Li1850 N1895 1.990 . S
Li1850 O1908 1.961 . S
Li1850 O1910 1.956 . S
Li1850 O1911 1.970 . S
Li1851 N1901 1.990 . S
Li1851 O1909 1.961 . S
Li1851 O1910 1.970 . S
Li1851 O1911 1.956 . S
C1852 C1854 1.348 . S
C1852 C1855 1.356 . S
C1852 O1908 1.325 . S
N1853 C1856 1.314 . S
N1853 C1857 1.279 . S
C1854 C1852 1.348 . S
C1854 C1856 1.353 . S
C1854 H1912 0.929 . S
C1855 C1852 1.356 . S
C1855 C1857 1.358 . S
C1855 H1913 0.930 . S
C1856 N1853 1.314 . S
C1856 C1854 1.353 . S
C1856 H1914 0.930 . S
C1857 N1853 1.279 . S
C1857 C1855 1.358 . S
C1857 H1915 0.930 . S
C1858 C1861 1.348 . S
C1858 C1862 1.356 . S
C1858 O1909 1.325 . S
C1859 N1860 1.279 . S
C1859 C1862 1.358 . S
C1859 H1916 0.930 . S
N1860 C1859 1.279 . S
N1860 C1863 1.314 . S
C1861 C1858 1.348 . S
C1861 C1863 1.353 . S
C1861 H1917 0.929 . S
C1862 C1858 1.356 . S
C1862 C1859 1.358 . S
C1862 H1918 0.930 . S
C1863 N1860 1.314 . S
C1863 C1861 1.353 . S
C1863 H1919 0.930 . S
C1864 N1865 1.314 . S
C1864 C1869 1.353 . S
C1864 H1870 0.930 . S
N1865 Li1848 1.990 . S
N1865 C1864 1.314 . S
N1865 C1867 1.279 . S
C1866 C1867 1.358 . S
C1866 C1868 1.356 . S
C1866 H1920 0.930 . S
C1867 N1865 1.279 . S
C1867 C1866 1.358 . S
C1867 H1871 0.930 . S
C1868 C1866 1.356 . S
C1868 C1869 1.348 . S
C1869 C1864 1.353 . S
C1869 C1868 1.348 . S
C1869 H1921 0.929 . S
H1870 C1864 0.930 . S
H1871 C1867 0.930 . S
C1872 N1873 1.314 . S
C1872 C1874 1.353 . S
C1872 H1878 0.930 . S
N1873 Li1849 1.990 . S
N1873 C1872 1.314 . S
N1873 C1876 1.279 . S
C1874 C1872 1.353 . S
C1874 C1877 1.348 . S
C1874 H1922 0.929 . S
C1875 C1876 1.358 . S
C1875 C1877 1.356 . S
C1875 H1923 0.930 . S
C1876 N1873 1.279 . S
C1876 C1875 1.358 . S
C1876 H1879 0.930 . S
C1877 C1874 1.348 . S
C1877 C1875 1.356 . S
H1878 C1872 0.930 . S
H1879 C1876 0.930 . S
C1880 C1882 1.348 . S
C1880 C1883 1.356 . S
C1880 O1910 1.325 . S
N1881 C1884 1.314 . S
N1881 C1885 1.279 . S
C1882 C1880 1.348 . S
C1882 C1884 1.353 . S
C1882 H1924 0.929 . S
C1883 C1880 1.356 . S
C1883 C1885 1.358 . S
C1883 H1925 0.930 . S
C1884 N1881 1.314 . S
C1884 C1882 1.353 . S
C1884 H1926 0.930 . S
C1885 N1881 1.279 . S
C1885 C1883 1.358 . S
C1885 H1927 0.930 . S
C1886 C1887 1.348 . S
C1886 C1888 1.356 . S
C1886 O1911 1.325 . S
C1887 C1886 1.348 . S
C1887 C1889 1.353 . S
C1887 H1928 0.929 . S
C1888 C1886 1.356 . S
C1888 C1890 1.358 . S
C1888 H1929 0.930 . S
C1889 C1887 1.353 . S
C1889 N1891 1.314 . S
C1889 H1930 0.930 . S
C1890 C1888 1.358 . S
C1890 N1891 1.279 . S
C1890 H1931 0.930 . S
N1891 C1889 1.314 . S
N1891 C1890 1.279 . S
C1892 C1894 1.353 . S
C1892 N1895 1.314 . S
C1892 H1898 0.930 . S
C1893 N1895 1.279 . S
C1893 C1896 1.358 . S
C1893 H1899 0.930 . S
C1894 C1892 1.353 . S
C1894 C1897 1.348 . S
C1894 H1932 0.929 . S
N1895 Li1850 1.990 . S
N1895 C1892 1.314 . S
N1895 C1893 1.279 . S
C1896 C1893 1.358 . S
C1896 C1897 1.356 . S
C1896 H1933 0.930 . S
C1897 C1894 1.348 . S
C1897 C1896 1.356 . S
H1898 C1892 0.930 . S
H1899 C1893 0.930 . S
C1900 N1901 1.314 . S
C1900 C1902 1.353 . S
C1900 H1906 0.930 . S
N1901 Li1851 1.990 . S
N1901 C1900 1.314 . S
N1901 C1904 1.279 . S
C1902 C1900 1.353 . S
C1902 C1905 1.348 . S
C1902 H1934 0.929 . S
C1903 C1904 1.358 . S
C1903 C1905 1.356 . S
C1903 H1935 0.930 . S
C1904 N1901 1.279 . S
C1904 C1903 1.358 . S
C1904 H1907 0.930 . S
C1905 C1902 1.348 . S
C1905 C1903 1.356 . S
H1906 C1900 0.930 . S
H1907 C1904 0.930 . S
O1908 Li1848 1.956 . S
O1908 Li1849 1.970 . S
O1908 Li1850 1.961 . S
O1908 C1852 1.325 . S
O1909 Li1848 1.970 . S
O1909 Li1849 1.956 . S
O1909 Li1851 1.961 . S
O1909 C1858 1.325 . S
O1910 Li1848 1.961 . S
O1910 Li1850 1.956 . S
O1910 Li1851 1.970 . S
O1910 C1880 1.325 . S
O1911 Li1849 1.961 . S
O1911 Li1850 1.970 . S
O1911 Li1851 1.956 . S
O1911 C1886 1.325 . S
H1912 C1854 0.929 . S
H1913 C1855 0.930 . S
H1914 C1856 0.930 . S
H1915 C1857 0.930 . S
H1916 C1859 0.930 . S
H1917 C1861 0.929 . S
H1918 C1862 0.930 . S
H1919 C1863 0.930 . S
H1920 C1866 0.930 . S
H1921 C1869 0.929 . S
H1922 C1874 0.929 . S
H1923 C1875 0.930 . S
H1924 C1882 0.929 . S
H1925 C1883 0.930 . S
H1926 C1884 0.930 . S
H1927 C1885 0.930 . S
H1928 C1887 0.929 . S
H1929 C1888 0.930 . S
H1930 C1889 0.930 . S
H1931 C1890 0.930 . S
H1932 C1894 0.929 . S
H1933 C1896 0.930 . S
H1934 C1902 0.929 . S
H1935 C1903 0.930 . S
Li1936 N1953 1.990 . S
Li1936 O1996 1.956 . S
Li1936 O1997 1.970 . S
Li1936 O1998 1.961 . S
Li1937 N1961 1.990 . S
Li1937 O1996 1.970 . S
Li1937 O1997 1.956 . S
Li1937 O1999 1.961 . S
Li1938 N1983 1.990 . S
Li1938 O1996 1.961 . S
Li1938 O1998 1.956 . S
Li1938 O1999 1.970 . S
Li1939 N1989 1.990 . S
Li1939 O1997 1.961 . S
Li1939 O1998 1.970 . S
Li1939 O1999 1.956 . S
C1940 C1942 1.348 . S
C1940 C1943 1.356 . S
C1940 O1996 1.325 . S
N1941 C1944 1.314 . S
N1941 C1945 1.279 . S
C1942 C1940 1.348 . S
C1942 C1944 1.353 . S
C1942 H2000 0.929 . S
C1943 C1940 1.356 . S
C1943 C1945 1.358 . S
C1943 H2001 0.930 . S
C1944 N1941 1.314 . S
C1944 C1942 1.353 . S
C1944 H2002 0.930 . S
C1945 N1941 1.279 . S
C1945 C1943 1.358 . S
C1945 H2003 0.930 . S
C1946 C1949 1.348 . S
C1946 C1950 1.356 . S
C1946 O1997 1.325 . S
C1947 N1948 1.279 . S
C1947 C1950 1.358 . S
C1947 H2004 0.930 . S
N1948 C1947 1.279 . S
N1948 C1951 1.314 . S
C1949 C1946 1.348 . S
C1949 C1951 1.353 . S
C1949 H2005 0.929 . S
C1950 C1946 1.356 . S
C1950 C1947 1.358 . S
C1950 H2006 0.930 . S
C1951 N1948 1.314 . S
C1951 C1949 1.353 . S
C1951 H2007 0.930 . S
C1952 N1953 1.314 . S
C1952 C1957 1.353 . S
C1952 H1958 0.930 . S
N1953 Li1936 1.990 . S
N1953 C1952 1.314 . S
N1953 C1955 1.279 . S
C1954 C1955 1.358 . S
C1954 C1956 1.356 . S
C1954 H2008 0.930 . S
C1955 N1953 1.279 . S
C1955 C1954 1.358 . S
C1955 H1959 0.930 . S
C1956 C1954 1.356 . S
C1956 C1957 1.348 . S
C1957 C1952 1.353 . S
C1957 C1956 1.348 . S
C1957 H2009 0.929 . S
H1958 C1952 0.930 . S
H1959 C1955 0.930 . S
C1960 N1961 1.314 . S
C1960 C1962 1.353 . S
C1960 H1966 0.930 . S
N1961 Li1937 1.990 . S
N1961 C1960 1.314 . S
N1961 C1964 1.279 . S
C1962 C1960 1.353 . S
C1962 C1965 1.348 . S
C1962 H2010 0.929 . S
C1963 C1964 1.358 . S
C1963 C1965 1.356 . S
C1963 H2011 0.930 . S
C1964 N1961 1.279 . S
C1964 C1963 1.358 . S
C1964 H1967 0.930 . S
C1965 C1962 1.348 . S
C1965 C1963 1.356 . S
H1966 C1960 0.930 . S
H1967 C1964 0.930 . S
C1968 C1970 1.348 . S
C1968 C1971 1.356 . S
C1968 O1998 1.325 . S
N1969 C1972 1.314 . S
N1969 C1973 1.279 . S
C1970 C1968 1.348 . S
C1970 C1972 1.353 . S
C1970 H2012 0.929 . S
C1971 C1968 1.356 . S
C1971 C1973 1.358 . S
C1971 H2013 0.930 . S
C1972 N1969 1.314 . S
C1972 C1970 1.353 . S
C1972 H2014 0.930 . S
C1973 N1969 1.279 . S
C1973 C1971 1.358 . S
C1973 H2015 0.930 . S
C1974 C1975 1.348 . S
C1974 C1976 1.356 . S
C1974 O1999 1.325 . S
C1975 C1974 1.348 . S
C1975 C1977 1.353 . S
C1975 H2016 0.929 . S
C1976 C1974 1.356 . S
C1976 C1978 1.358 . S
C1976 H2017 0.930 . S
C1977 C1975 1.353 . S
C1977 N1979 1.314 . S
C1977 H2018 0.930 . S
C1978 C1976 1.358 . S
C1978 N1979 1.279 . S
C1978 H2019 0.930 . S
N1979 C1977 1.314 . S
N1979 C1978 1.279 . S
C1980 C1982 1.353 . S
C1980 N1983 1.314 . S
C1980 H1986 0.930 . S
C1981 N1983 1.279 . S
C1981 C1984 1.358 . S
C1981 H1987 0.930 . S
C1982 C1980 1.353 . S
C1982 C1985 1.348 . S
C1982 H2020 0.929 . S
N1983 Li1938 1.990 . S
N1983 C1980 1.314 . S
N1983 C1981 1.279 . S
C1984 C1981 1.358 . S
C1984 C1985 1.356 . S
C1984 H2021 0.930 . S
C1985 C1982 1.348 . S
C1985 C1984 1.356 . S
H1986 C1980 0.930 . S
H1987 C1981 0.930 . S
C1988 N1989 1.314 . S
C1988 C1990 1.353 . S
C1988 H1994 0.930 . S
N1989 Li1939 1.990 . S
N1989 C1988 1.314 . S
N1989 C1992 1.279 . S
C1990 C1988 1.353 . S
C1990 C1993 1.348 . S
C1990 H2022 0.929 . S
C1991 C1992 1.358 . S
C1991 C1993 1.356 . S
C1991 H2023 0.930 . S
C1992 N1989 1.279 . S
C1992 C1991 1.358 . S
C1992 H1995 0.930 . S
C1993 C1990 1.348 . S
C1993 C1991 1.356 . S
H1994 C1988 0.930 . S
H1995 C1992 0.930 . S
O1996 Li1936 1.956 . S
O1996 Li1937 1.970 . S
O1996 Li1938 1.961 . S
O1996 C1940 1.325 . S
O1997 Li1936 1.970 . S
O1997 Li1937 1.956 . S
O1997 Li1939 1.961 . S
O1997 C1946 1.325 . S
O1998 Li1936 1.961 . S
O1998 Li1938 1.956 . S
O1998 Li1939 1.970 . S
O1998 C1968 1.325 . S
O1999 Li1937 1.961 . S
O1999 Li1938 1.970 . S
O1999 Li1939 1.956 . S
O1999 C1974 1.325 . S
H2000 C1942 0.929 . S
H2001 C1943 0.930 . S
H2002 C1944 0.930 . S
H2003 C1945 0.930 . S
H2004 C1947 0.930 . S
H2005 C1949 0.929 . S
H2006 C1950 0.930 . S
H2007 C1951 0.930 . S
H2008 C1954 0.930 . S
H2009 C1957 0.929 . S
H2010 C1962 0.929 . S
H2011 C1963 0.930 . S
H2012 C1970 0.929 . S
H2013 C1971 0.930 . S
H2014 C1972 0.930 . S
H2015 C1973 0.930 . S
H2016 C1975 0.929 . S
H2017 C1976 0.930 . S
H2018 C1977 0.930 . S
H2019 C1978 0.930 . S
H2020 C1982 0.929 . S
H2021 C1984 0.930 . S
H2022 C1990 0.929 . S
H2023 C1991 0.930 . S
Li2024 N2041 1.990 . S
Li2024 O2084 1.956 . S
Li2024 O2085 1.970 . S
Li2024 O2086 1.961 . S
Li2025 N2049 1.990 . S
Li2025 O2084 1.970 . S
Li2025 O2085 1.956 . S
Li2025 O2087 1.961 . S
Li2026 N2071 1.990 . S
Li2026 O2084 1.961 . S
Li2026 O2086 1.956 . S
Li2026 O2087 1.970 . S
Li2027 N2077 1.990 . S
Li2027 O2085 1.961 . S
Li2027 O2086 1.970 . S
Li2027 O2087 1.956 . S
C2028 C2030 1.348 . S
C2028 C2031 1.356 . S
C2028 O2084 1.325 . S
N2029 C2032 1.314 . S
N2029 C2033 1.279 . S
C2030 C2028 1.348 . S
C2030 C2032 1.353 . S
C2030 H2088 0.929 . S
C2031 C2028 1.356 . S
C2031 C2033 1.358 . S
C2031 H2089 0.930 . S
C2032 N2029 1.314 . S
C2032 C2030 1.353 . S
C2032 H2090 0.930 . S
C2033 N2029 1.279 . S
C2033 C2031 1.358 . S
C2033 H2091 0.930 . S
C2034 C2037 1.348 . S
C2034 C2038 1.356 . S
C2034 O2085 1.325 . S
C2035 N2036 1.279 . S
C2035 C2038 1.358 . S
C2035 H2092 0.930 . S
N2036 C2035 1.279 . S
N2036 C2039 1.314 . S
C2037 C2034 1.348 . S
C2037 C2039 1.353 . S
C2037 H2093 0.929 . S
C2038 C2034 1.356 . S
C2038 C2035 1.358 . S
C2038 H2094 0.930 . S
C2039 N2036 1.314 . S
C2039 C2037 1.353 . S
C2039 H2095 0.930 . S
C2040 N2041 1.314 . S
C2040 C2045 1.353 . S
C2040 H2046 0.930 . S
N2041 Li2024 1.990 . S
N2041 C2040 1.314 . S
N2041 C2043 1.279 . S
C2042 C2043 1.358 . S
C2042 C2044 1.356 . S
C2042 H2096 0.930 . S
C2043 N2041 1.279 . S
C2043 C2042 1.358 . S
C2043 H2047 0.930 . S
C2044 C2042 1.356 . S
C2044 C2045 1.348 . S
C2045 C2040 1.353 . S
C2045 C2044 1.348 . S
C2045 H2097 0.929 . S
H2046 C2040 0.930 . S
H2047 C2043 0.930 . S
C2048 N2049 1.314 . S
C2048 C2050 1.353 . S
C2048 H2054 0.930 . S
N2049 Li2025 1.990 . S
N2049 C2048 1.314 . S
N2049 C2052 1.279 . S
C2050 C2048 1.353 . S
C2050 C2053 1.348 . S
C2050 H2098 0.929 . S
C2051 C2052 1.358 . S
C2051 C2053 1.356 . S
C2051 H2099 0.930 . S
C2052 N2049 1.279 . S
C2052 C2051 1.358 . S
C2052 H2055 0.930 . S
C2053 C2050 1.348 . S
C2053 C2051 1.356 . S
H2054 C2048 0.930 . S
H2055 C2052 0.930 . S
C2056 C2058 1.348 . S
C2056 C2059 1.356 . S
C2056 O2086 1.325 . S
N2057 C2060 1.314 . S
N2057 C2061 1.279 . S
C2058 C2056 1.348 . S
C2058 C2060 1.353 . S
C2058 H2100 0.929 . S
C2059 C2056 1.356 . S
C2059 C2061 1.358 . S
C2059 H2101 0.930 . S
C2060 N2057 1.314 . S
C2060 C2058 1.353 . S
C2060 H2102 0.930 . S
C2061 N2057 1.279 . S
C2061 C2059 1.358 . S
C2061 H2103 0.930 . S
C2062 C2063 1.348 . S
C2062 C2064 1.356 . S
C2062 O2087 1.325 . S
C2063 C2062 1.348 . S
C2063 C2065 1.353 . S
C2063 H2104 0.929 . S
C2064 C2062 1.356 . S
C2064 C2066 1.358 . S
C2064 H2105 0.930 . S
C2065 C2063 1.353 . S
C2065 N2067 1.314 . S
C2065 H2106 0.930 . S
C2066 C2064 1.358 . S
C2066 N2067 1.279 . S
C2066 H2107 0.930 . S
N2067 C2065 1.314 . S
N2067 C2066 1.279 . S
C2068 C2070 1.353 . S
C2068 N2071 1.314 . S
C2068 H2074 0.930 . S
C2069 N2071 1.279 . S
C2069 C2072 1.358 . S
C2069 H2075 0.930 . S
C2070 C2068 1.353 . S
C2070 C2073 1.348 . S
C2070 H2108 0.929 . S
N2071 Li2026 1.990 . S
N2071 C2068 1.314 . S
N2071 C2069 1.279 . S
C2072 C2069 1.358 . S
C2072 C2073 1.356 . S
C2072 H2109 0.930 . S
C2073 C2070 1.348 . S
C2073 C2072 1.356 . S
H2074 C2068 0.930 . S
H2075 C2069 0.930 . S
C2076 N2077 1.314 . S
C2076 C2078 1.353 . S
C2076 H2082 0.930 . S
N2077 Li2027 1.990 . S
N2077 C2076 1.314 . S
N2077 C2080 1.279 . S
C2078 C2076 1.353 . S
C2078 C2081 1.348 . S
C2078 H2110 0.929 . S
C2079 C2080 1.358 . S
C2079 C2081 1.356 . S
C2079 H2111 0.930 . S
C2080 N2077 1.279 . S
C2080 C2079 1.358 . S
C2080 H2083 0.930 . S
C2081 C2078 1.348 . S
C2081 C2079 1.356 . S
H2082 C2076 0.930 . S
H2083 C2080 0.930 . S
O2084 Li2024 1.956 . S
O2084 Li2025 1.970 . S
O2084 Li2026 1.961 . S
O2084 C2028 1.325 . S
O2085 Li2024 1.970 . S
O2085 Li2025 1.956 . S
O2085 Li2027 1.961 . S
O2085 C2034 1.325 . S
O2086 Li2024 1.961 . S
O2086 Li2026 1.956 . S
O2086 Li2027 1.970 . S
O2086 C2056 1.325 . S
O2087 Li2025 1.961 . S
O2087 Li2026 1.970 . S
O2087 Li2027 1.956 . S
O2087 C2062 1.325 . S
H2088 C2030 0.929 . S
H2089 C2031 0.930 . S
H2090 C2032 0.930 . S
H2091 C2033 0.930 . S
H2092 C2035 0.930 . S
H2093 C2037 0.929 . S
H2094 C2038 0.930 . S
H2095 C2039 0.930 . S
H2096 C2042 0.930 . S
H2097 C2045 0.929 . S
H2098 C2050 0.929 . S
H2099 C2051 0.930 . S
H2100 C2058 0.929 . S
H2101 C2059 0.930 . S
H2102 C2060 0.930 . S
H2103 C2061 0.930 . S
H2104 C2063 0.929 . S
H2105 C2064 0.930 . S
H2106 C2065 0.930 . S
H2107 C2066 0.930 . S
H2108 C2070 0.929 . S
H2109 C2072 0.930 . S
H2110 C2078 0.929 . S
H2111 C2079 0.930 . S
Li2112 N2129 1.990 . S
Li2112 O2172 1.956 . S
Li2112 O2173 1.970 . S
Li2112 O2174 1.961 . S
Li2113 N2137 1.990 . S
Li2113 O2172 1.970 . S
Li2113 O2173 1.956 . S
Li2113 O2175 1.961 . S
Li2114 N2159 1.990 . S
Li2114 O2172 1.961 . S
Li2114 O2174 1.956 . S
Li2114 O2175 1.970 . S
Li2115 N2165 1.990 . S
Li2115 O2173 1.961 . S
Li2115 O2174 1.970 . S
Li2115 O2175 1.956 . S
C2116 C2118 1.348 . S
C2116 C2119 1.356 . S
C2116 O2172 1.325 . S
N2117 C2120 1.314 . S
N2117 C2121 1.279 . S
C2118 C2116 1.348 . S
C2118 C2120 1.353 . S
C2118 H2176 0.929 . S
C2119 C2116 1.356 . S
C2119 C2121 1.358 . S
C2119 H2177 0.930 . S
C2120 N2117 1.314 . S
C2120 C2118 1.353 . S
C2120 H2178 0.930 . S
C2121 N2117 1.279 . S
C2121 C2119 1.358 . S
C2121 H2179 0.930 . S
C2122 C2125 1.348 . S
C2122 C2126 1.356 . S
C2122 O2173 1.325 . S
C2123 N2124 1.279 . S
C2123 C2126 1.358 . S
C2123 H2180 0.930 . S
N2124 C2123 1.279 . S
N2124 C2127 1.314 . S
C2125 C2122 1.348 . S
C2125 C2127 1.353 . S
C2125 H2181 0.929 . S
C2126 C2122 1.356 . S
C2126 C2123 1.358 . S
C2126 H2182 0.930 . S
C2127 N2124 1.314 . S
C2127 C2125 1.353 . S
C2127 H2183 0.930 . S
C2128 N2129 1.314 . S
C2128 C2133 1.353 . S
C2128 H2134 0.930 . S
N2129 Li2112 1.990 . S
N2129 C2128 1.314 . S
N2129 C2131 1.279 . S
C2130 C2131 1.358 . S
C2130 C2132 1.356 . S
C2130 H2184 0.930 . S
C2131 N2129 1.279 . S
C2131 C2130 1.358 . S
C2131 H2135 0.930 . S
C2132 C2130 1.356 . S
C2132 C2133 1.348 . S
C2133 C2128 1.353 . S
C2133 C2132 1.348 . S
C2133 H2185 0.929 . S
H2134 C2128 0.930 . S
H2135 C2131 0.930 . S
C2136 N2137 1.314 . S
C2136 C2138 1.353 . S
C2136 H2142 0.930 . S
N2137 Li2113 1.990 . S
N2137 C2136 1.314 . S
N2137 C2140 1.279 . S
C2138 C2136 1.353 . S
C2138 C2141 1.348 . S
C2138 H2186 0.929 . S
C2139 C2140 1.358 . S
C2139 C2141 1.356 . S
C2139 H2187 0.930 . S
C2140 N2137 1.279 . S
C2140 C2139 1.358 . S
C2140 H2143 0.930 . S
C2141 C2138 1.348 . S
C2141 C2139 1.356 . S
H2142 C2136 0.930 . S
H2143 C2140 0.930 . S
C2144 C2146 1.348 . S
C2144 C2147 1.356 . S
C2144 O2174 1.325 . S
N2145 C2148 1.314 . S
N2145 C2149 1.279 . S
C2146 C2144 1.348 . S
C2146 C2148 1.353 . S
C2146 H2188 0.929 . S
C2147 C2144 1.356 . S
C2147 C2149 1.358 . S
C2147 H2189 0.930 . S
C2148 N2145 1.314 . S
C2148 C2146 1.353 . S
C2148 H2190 0.930 . S
C2149 N2145 1.279 . S
C2149 C2147 1.358 . S
C2149 H2191 0.930 . S
C2150 C2151 1.348 . S
C2150 C2152 1.356 . S
C2150 O2175 1.325 . S
C2151 C2150 1.348 . S
C2151 C2153 1.353 . S
C2151 H2192 0.929 . S
C2152 C2150 1.356 . S
C2152 C2154 1.358 . S
C2152 H2193 0.930 . S
C2153 C2151 1.353 . S
C2153 N2155 1.314 . S
C2153 H2194 0.930 . S
C2154 C2152 1.358 . S
C2154 N2155 1.279 . S
C2154 H2195 0.930 . S
N2155 C2153 1.314 . S
N2155 C2154 1.279 . S
C2156 C2158 1.353 . S
C2156 N2159 1.314 . S
C2156 H2162 0.930 . S
C2157 N2159 1.279 . S
C2157 C2160 1.358 . S
C2157 H2163 0.930 . S
C2158 C2156 1.353 . S
C2158 C2161 1.348 . S
C2158 H2196 0.929 . S
N2159 Li2114 1.990 . S
N2159 C2156 1.314 . S
N2159 C2157 1.279 . S
C2160 C2157 1.358 . S
C2160 C2161 1.356 . S
C2160 H2197 0.930 . S
C2161 C2158 1.348 . S
C2161 C2160 1.356 . S
H2162 C2156 0.930 . S
H2163 C2157 0.930 . S
C2164 N2165 1.314 . S
C2164 C2166 1.353 . S
C2164 H2170 0.930 . S
N2165 Li2115 1.990 . S
N2165 C2164 1.314 . S
N2165 C2168 1.279 . S
C2166 C2164 1.353 . S
C2166 C2169 1.348 . S
C2166 H2198 0.968 . S
C2167 C2168 1.358 . S
C2167 C2169 1.356 . S
C2167 H2199 0.930 . S
C2168 N2165 1.279 . S
C2168 C2167 1.358 . S
C2168 H2171 0.930 . S
C2169 C2166 1.348 . S
C2169 C2167 1.356 . S
H2170 C2164 0.930 . S
H2171 C2168 0.930 . S
O2172 Li2112 1.956 . S
O2172 Li2113 1.970 . S
O2172 Li2114 1.961 . S
O2172 C2116 1.325 . S
O2173 Li2112 1.970 . S
O2173 Li2113 1.956 . S
O2173 Li2115 1.961 . S
O2173 C2122 1.325 . S
O2174 Li2112 1.961 . S
O2174 Li2114 1.956 . S
O2174 Li2115 1.970 . S
O2174 C2144 1.325 . S
O2175 Li2113 1.961 . S
O2175 Li2114 1.970 . S
O2175 Li2115 1.956 . S
O2175 C2150 1.325 . S
H2176 C2118 0.929 . S
H2177 C2119 0.930 . S
H2178 C2120 0.930 . S
H2179 C2121 0.930 . S
H2180 C2123 0.930 . S
H2181 C2125 0.929 . S
H2182 C2126 0.930 . S
H2183 C2127 0.930 . S
H2184 C2130 0.930 . S
H2185 C2133 0.929 . S
H2186 C2138 0.929 . S
H2187 C2139 0.930 . S
H2188 C2146 0.929 . S
H2189 C2147 0.930 . S
H2190 C2148 0.930 . S
H2191 C2149 0.930 . S
H2192 C2151 0.929 . S
H2193 C2152 0.930 . S
H2194 C2153 0.930 . S
H2195 C2154 0.930 . S
H2196 C2158 0.929 . S
H2197 C2160 0.930 . S
H2198 C2166 0.968 . S
H2199 C2167 0.930 . S
Li2200 N2217 1.990 . S
Li2200 O2260 1.956 . S
Li2200 O2261 1.970 . S
Li2200 O2262 1.961 . S
Li2201 N2225 1.990 . S
Li2201 O2260 1.970 . S
Li2201 O2261 1.956 . S
Li2201 O2263 1.961 . S
Li2202 N2247 1.990 . S
Li2202 O2260 1.961 . S
Li2202 O2262 1.956 . S
Li2202 O2263 1.970 . S
Li2203 N2253 1.990 . S
Li2203 O2261 1.961 . S
Li2203 O2262 1.970 . S
Li2203 O2263 1.956 . S
C2204 C2206 1.348 . S
C2204 C2207 1.356 . S
C2204 O2260 1.325 . S
N2205 C2208 1.314 . S
N2205 C2209 1.279 . S
C2206 C2204 1.348 . S
C2206 C2208 1.353 . S
C2206 H2264 0.929 . S
C2207 C2204 1.356 . S
C2207 C2209 1.358 . S
C2207 H2265 0.930 . S
C2208 N2205 1.314 . S
C2208 C2206 1.353 . S
C2208 H2266 0.930 . S
C2209 N2205 1.279 . S
C2209 C2207 1.358 . S
C2209 H2267 0.930 . S
C2210 C2213 1.348 . S
C2210 C2214 1.356 . S
C2210 O2261 1.325 . S
C2211 N2212 1.279 . S
C2211 C2214 1.358 . S
C2211 H2268 0.930 . S
N2212 C2211 1.279 . S
N2212 C2215 1.314 . S
C2213 C2210 1.348 . S
C2213 C2215 1.353 . S
C2213 H2269 0.929 . S
C2214 C2210 1.356 . S
C2214 C2211 1.358 . S
C2214 H2270 0.930 . S
C2215 N2212 1.314 . S
C2215 C2213 1.353 . S
C2215 H2271 0.930 . S
C2216 N2217 1.314 . S
C2216 C2221 1.353 . S
C2216 H2222 0.930 . S
N2217 Li2200 1.990 . S
N2217 C2216 1.314 . S
N2217 C2219 1.279 . S
C2218 C2219 1.358 . S
C2218 C2220 1.356 . S
C2218 H2272 0.930 . S
C2219 N2217 1.279 . S
C2219 C2218 1.358 . S
C2219 H2223 0.930 . S
C2220 C2218 1.356 . S
C2220 C2221 1.348 . S
C2221 C2216 1.353 . S
C2221 C2220 1.348 . S
C2221 H2273 0.929 . S
H2222 C2216 0.930 . S
H2223 C2219 0.930 . S
C2224 N2225 1.314 . S
C2224 C2226 1.353 . S
C2224 H2230 0.930 . S
N2225 Li2201 1.990 . S
N2225 C2224 1.314 . S
N2225 C2228 1.279 . S
C2226 C2224 1.353 . S
C2226 C2229 1.348 . S
C2226 H2274 0.929 . S
C2227 C2228 1.358 . S
C2227 C2229 1.356 . S
C2227 H2275 0.930 . S
C2228 N2225 1.279 . S
C2228 C2227 1.358 . S
C2228 H2231 0.930 . S
C2229 C2226 1.348 . S
C2229 C2227 1.356 . S
H2230 C2224 0.930 . S
H2231 C2228 0.930 . S
C2232 C2234 1.348 . S
C2232 C2235 1.356 . S
C2232 O2262 1.325 . S
N2233 C2236 1.314 . S
N2233 C2237 1.279 . S
C2234 C2232 1.348 . S
C2234 C2236 1.353 . S
C2234 H2276 0.929 . S
C2235 C2232 1.356 . S
C2235 C2237 1.358 . S
C2235 H2277 0.930 . S
C2236 N2233 1.314 . S
C2236 C2234 1.353 . S
C2236 H2278 0.930 . S
C2237 N2233 1.279 . S
C2237 C2235 1.358 . S
C2237 H2279 0.930 . S
C2238 C2239 1.348 . S
C2238 C2240 1.356 . S
C2238 O2263 1.325 . S
C2239 C2238 1.348 . S
C2239 C2241 1.353 . S
C2239 H2280 0.929 . S
C2240 C2238 1.356 . S
C2240 C2242 1.358 . S
C2240 H2281 0.930 . S
C2241 C2239 1.353 . S
C2241 N2243 1.314 . S
C2241 H2282 0.930 . S
C2242 C2240 1.358 . S
C2242 N2243 1.279 . S
C2242 H2283 0.930 . S
N2243 C2241 1.314 . S
N2243 C2242 1.279 . S
C2244 C2246 1.353 . S
C2244 N2247 1.314 . S
C2244 H2250 0.930 . S
C2245 N2247 1.279 . S
C2245 C2248 1.358 . S
C2245 H2251 0.930 . S
C2246 C2244 1.353 . S
C2246 C2249 1.348 . S
C2246 H2284 0.929 . S
N2247 Li2202 1.990 . S
N2247 C2244 1.314 . S
N2247 C2245 1.279 . S
C2248 C2245 1.358 . S
C2248 C2249 1.356 . S
C2248 H2285 0.930 . S
C2249 C2246 1.348 . S
C2249 C2248 1.356 . S
H2250 C2244 0.930 . S
H2251 C2245 0.930 . S
C2252 N2253 1.314 . S
C2252 C2254 1.353 . S
C2252 H2258 0.930 . S
N2253 Li2203 1.990 . S
N2253 C2252 1.314 . S
N2253 C2256 1.279 . S
C2254 C2252 1.353 . S
C2254 C2257 1.348 . S
C2254 H2286 0.929 . S
C2255 C2256 1.358 . S
C2255 C2257 1.356 . S
C2255 H2287 0.930 . S
C2256 N2253 1.279 . S
C2256 C2255 1.358 . S
C2256 H2259 0.930 . S
C2257 C2254 1.348 . S
C2257 C2255 1.356 . S
H2258 C2252 0.930 . S
H2259 C2256 0.930 . S
O2260 Li2200 1.956 . S
O2260 Li2201 1.970 . S
O2260 Li2202 1.961 . S
O2260 C2204 1.325 . S
O2261 Li2200 1.970 . S
O2261 Li2201 1.956 . S
O2261 Li2203 1.961 . S
O2261 C2210 1.325 . S
O2262 Li2200 1.961 . S
O2262 Li2202 1.956 . S
O2262 Li2203 1.970 . S
O2262 C2232 1.325 . S
O2263 Li2201 1.961 . S
O2263 Li2202 1.970 . S
O2263 Li2203 1.956 . S
O2263 C2238 1.325 . S
H2264 C2206 0.929 . S
H2265 C2207 0.930 . S
H2266 C2208 0.930 . S
H2267 C2209 0.930 . S
H2268 C2211 0.930 . S
H2269 C2213 0.929 . S
H2270 C2214 0.930 . S
H2271 C2215 0.930 . S
H2272 C2218 0.930 . S
H2273 C2221 0.929 . S
H2274 C2226 0.929 . S
H2275 C2227 0.930 . S
H2276 C2234 0.929 . S
H2277 C2235 0.930 . S
H2278 C2236 0.930 . S
H2279 C2237 0.930 . S
H2280 C2239 0.929 . S
H2281 C2240 0.930 . S
H2282 C2241 0.930 . S
H2283 C2242 0.930 . S
H2284 C2246 0.929 . S
H2285 C2248 0.930 . S
H2286 C2254 0.929 . S
H2287 C2255 0.930 . S
Li2288 N2305 1.990 . S
Li2288 O2348 1.956 . S
Li2288 O2349 1.970 . S
Li2288 O2350 1.961 . S
Li2289 N2313 1.990 . S
Li2289 O2348 1.970 . S
Li2289 O2349 1.956 . S
Li2289 O2351 1.961 . S
Li2290 N2335 1.990 . S
Li2290 O2348 1.961 . S
Li2290 O2350 1.956 . S
Li2290 O2351 1.970 . S
Li2291 N2341 1.990 . S
Li2291 O2349 1.961 . S
Li2291 O2350 1.970 . S
Li2291 O2351 1.956 . S
C2292 C2294 1.348 . S
C2292 C2295 1.356 . S
C2292 O2348 1.325 . S
N2293 C2296 1.314 . S
N2293 C2297 1.279 . S
C2294 C2292 1.348 . S
C2294 C2296 1.353 . S
C2294 H2352 0.929 . S
C2295 C2292 1.356 . S
C2295 C2297 1.358 . S
C2295 H2353 0.930 . S
C2296 N2293 1.314 . S
C2296 C2294 1.353 . S
C2296 H2354 0.930 . S
C2297 N2293 1.279 . S
C2297 C2295 1.358 . S
C2297 H2355 0.930 . S
C2298 C2301 1.348 . S
C2298 C2302 1.356 . S
C2298 O2349 1.325 . S
C2299 N2300 1.279 . S
C2299 C2302 1.358 . S
C2299 H2356 0.930 . S
N2300 C2299 1.279 . S
N2300 C2303 1.314 . S
C2301 C2298 1.348 . S
C2301 C2303 1.353 . S
C2301 H2357 0.929 . S
C2302 C2298 1.356 . S
C2302 C2299 1.358 . S
C2302 H2358 0.930 . S
C2303 N2300 1.314 . S
C2303 C2301 1.353 . S
C2303 H2359 0.930 . S
C2304 N2305 1.314 . S
C2304 C2309 1.353 . S
C2304 H2310 0.930 . S
N2305 Li2288 1.990 . S
N2305 C2304 1.314 . S
N2305 C2307 1.279 . S
C2306 C2307 1.358 . S
C2306 C2308 1.356 . S
C2306 H2360 0.930 . S
C2307 N2305 1.279 . S
C2307 C2306 1.358 . S
C2307 H2311 0.930 . S
C2308 C2306 1.356 . S
C2308 C2309 1.348 . S
C2309 C2304 1.353 . S
C2309 C2308 1.348 . S
C2309 H2361 0.929 . S
H2310 C2304 0.930 . S
H2311 C2307 0.930 . S
C2312 N2313 1.314 . S
C2312 C2314 1.353 . S
C2312 H2318 0.930 . S
N2313 Li2289 1.990 . S
N2313 C2312 1.314 . S
N2313 C2316 1.279 . S
C2314 C2312 1.353 . S
C2314 C2317 1.348 . S
C2314 H2362 0.929 . S
C2315 C2316 1.358 . S
C2315 C2317 1.356 . S
C2315 H2363 0.930 . S
C2316 N2313 1.279 . S
C2316 C2315 1.358 . S
C2316 H2319 0.930 . S
C2317 C2314 1.348 . S
C2317 C2315 1.356 . S
H2318 C2312 0.930 . S
H2319 C2316 0.930 . S
C2320 C2322 1.348 . S
C2320 C2323 1.356 . S
C2320 O2350 1.325 . S
N2321 C2324 1.314 . S
N2321 C2325 1.279 . S
C2322 C2320 1.348 . S
C2322 C2324 1.353 . S
C2322 H2364 0.929 . S
C2323 C2320 1.356 . S
C2323 C2325 1.358 . S
C2323 H2365 0.930 . S
C2324 N2321 1.314 . S
C2324 C2322 1.353 . S
C2324 H2366 0.930 . S
C2325 N2321 1.279 . S
C2325 C2323 1.358 . S
C2325 H2367 0.930 . S
C2326 C2327 1.348 . S
C2326 C2328 1.356 . S
C2326 O2351 1.325 . S
C2327 C2326 1.348 . S
C2327 C2329 1.353 . S
C2327 H2368 0.929 . S
C2328 C2326 1.356 . S
C2328 C2330 1.358 . S
C2328 H2369 0.930 . S
C2329 C2327 1.353 . S
C2329 N2331 1.314 . S
C2329 H2370 0.930 . S
C2330 C2328 1.358 . S
C2330 N2331 1.279 . S
C2330 H2371 0.930 . S
N2331 C2329 1.314 . S
N2331 C2330 1.279 . S
C2332 C2334 1.353 . S
C2332 N2335 1.314 . S
C2332 H2338 0.930 . S
C2333 N2335 1.279 . S
C2333 C2336 1.358 . S
C2333 H2339 0.930 . S
C2334 C2332 1.353 . S
C2334 C2337 1.348 . S
C2334 H2372 0.929 . S
N2335 Li2290 1.990 . S
N2335 C2332 1.314 . S
N2335 C2333 1.279 . S
C2336 C2333 1.358 . S
C2336 C2337 1.356 . S
C2336 H2373 0.930 . S
C2337 C2334 1.348 . S
C2337 C2336 1.356 . S
H2338 C2332 0.930 . S
H2339 C2333 0.930 . S
C2340 N2341 1.314 . S
C2340 C2342 1.353 . S
C2340 H2346 0.930 . S
N2341 Li2291 1.990 . S
N2341 C2340 1.314 . S
N2341 C2344 1.279 . S
C2342 C2340 1.353 . S
C2342 C2345 1.348 . S
C2342 H2374 0.929 . S
C2343 C2344 1.358 . S
C2343 C2345 1.356 . S
C2343 H2375 0.930 . S
C2344 N2341 1.279 . S
C2344 C2343 1.358 . S
C2344 H2347 0.930 . S
C2345 C2342 1.348 . S
C2345 C2343 1.356 . S
H2346 C2340 0.930 . S
H2347 C2344 0.930 . S
O2348 Li2288 1.956 . S
O2348 Li2289 1.970 . S
O2348 Li2290 1.961 . S
O2348 C2292 1.325 . S
O2349 Li2288 1.970 . S
O2349 Li2289 1.956 . S
O2349 Li2291 1.961 . S
O2349 C2298 1.325 . S
O2350 Li2288 1.961 . S
O2350 Li2290 1.956 . S
O2350 Li2291 1.970 . S
O2350 C2320 1.325 . S
O2351 Li2289 1.961 . S
O2351 Li2290 1.970 . S
O2351 Li2291 1.956 . S
O2351 C2326 1.325 . S
H2352 C2294 0.929 . S
H2353 C2295 0.930 . S
H2354 C2296 0.930 . S
H2355 C2297 0.930 . S
H2356 C2299 0.930 . S
H2357 C2301 0.929 . S
H2358 C2302 0.930 . S
H2359 C2303 0.930 . S
H2360 C2306 0.930 . S
H2361 C2309 0.929 . S
H2362 C2314 0.929 . S
H2363 C2315 0.930 . S
H2364 C2322 0.929 . S
H2365 C2323 0.930 . S
H2366 C2324 0.930 . S
H2367 C2325 0.930 . S
H2368 C2327 0.929 . S
H2369 C2328 0.930 . S
H2370 C2329 0.930 . S
H2371 C2330 0.930 . S
H2372 C2334 0.929 . S
H2373 C2336 0.930 . S
H2374 C2342 0.929 . S
H2375 C2343 0.930 . S
Li2376 N2393 1.990 . S
Li2376 O2436 1.956 . S
Li2376 O2437 1.970 . S
Li2376 O2438 1.961 . S
Li2377 N2401 1.990 . S
Li2377 O2436 1.970 . S
Li2377 O2437 1.956 . S
Li2377 O2439 1.961 . S
Li2378 N2423 1.990 . S
Li2378 O2436 1.961 . S
Li2378 O2438 1.956 . S
Li2378 O2439 1.970 . S
Li2379 N2429 1.990 . S
Li2379 O2437 1.961 . S
Li2379 O2438 1.970 . S
Li2379 O2439 1.956 . S
C2380 C2382 1.348 . S
C2380 C2383 1.356 . S
C2380 O2436 1.325 . S
N2381 C2384 1.314 . S
N2381 C2385 1.279 . S
C2382 C2380 1.348 . S
C2382 C2384 1.353 . S
C2382 H2440 0.929 . S
C2383 C2380 1.356 . S
C2383 C2385 1.358 . S
C2383 H2441 0.930 . S
C2384 N2381 1.314 . S
C2384 C2382 1.353 . S
C2384 H2442 0.930 . S
C2385 N2381 1.279 . S
C2385 C2383 1.358 . S
C2385 H2443 0.930 . S
C2386 C2389 1.348 . S
C2386 C2390 1.356 . S
C2386 O2437 1.325 . S
C2387 N2388 1.279 . S
C2387 C2390 1.358 . S
C2387 H2444 0.930 . S
N2388 C2387 1.279 . S
N2388 C2391 1.314 . S
C2389 C2386 1.348 . S
C2389 C2391 1.353 . S
C2389 H2445 0.929 . S
C2390 C2386 1.356 . S
C2390 C2387 1.358 . S
C2390 H2446 0.930 . S
C2391 N2388 1.314 . S
C2391 C2389 1.353 . S
C2391 H2447 0.930 . S
C2392 N2393 1.314 . S
C2392 C2397 1.353 . S
C2392 H2398 0.930 . S
N2393 Li2376 1.990 . S
N2393 C2392 1.314 . S
N2393 C2395 1.279 . S
C2394 C2395 1.358 . S
C2394 C2396 1.356 . S
C2394 H2448 0.930 . S
C2395 N2393 1.279 . S
C2395 C2394 1.358 . S
C2395 H2399 0.930 . S
C2396 C2394 1.356 . S
C2396 C2397 1.348 . S
C2397 C2392 1.353 . S
C2397 C2396 1.348 . S
C2397 H2449 0.929 . S
H2398 C2392 0.930 . S
H2399 C2395 0.930 . S
C2400 N2401 1.314 . S
C2400 C2402 1.353 . S
C2400 H2406 0.930 . S
N2401 Li2377 1.990 . S
N2401 C2400 1.314 . S
N2401 C2404 1.279 . S
C2402 C2400 1.353 . S
C2402 C2405 1.348 . S
C2402 H2450 0.929 . S
C2403 C2404 1.358 . S
C2403 C2405 1.356 . S
C2403 H2451 0.930 . S
C2404 N2401 1.279 . S
C2404 C2403 1.358 . S
C2404 H2407 0.930 . S
C2405 C2402 1.348 . S
C2405 C2403 1.356 . S
H2406 C2400 0.930 . S
H2407 C2404 0.930 . S
C2408 C2410 1.348 . S
C2408 C2411 1.356 . S
C2408 O2438 1.325 . S
N2409 C2412 1.314 . S
N2409 C2413 1.279 . S
C2410 C2408 1.348 . S
C2410 C2412 1.353 . S
C2410 H2452 0.929 . S
C2411 C2408 1.356 . S
C2411 C2413 1.358 . S
C2411 H2453 0.930 . S
C2412 N2409 1.314 . S
C2412 C2410 1.353 . S
C2412 H2454 0.930 . S
C2413 N2409 1.279 . S
C2413 C2411 1.358 . S
C2413 H2455 0.930 . S
C2414 C2415 1.348 . S
C2414 C2416 1.356 . S
C2414 O2439 1.325 . S
C2415 C2414 1.348 . S
C2415 C2417 1.353 . S
C2415 H2456 0.929 . S
C2416 C2414 1.356 . S
C2416 C2418 1.358 . S
C2416 H2457 0.930 . S
C2417 C2415 1.353 . S
C2417 N2419 1.314 . S
C2417 H2458 0.930 . S
C2418 C2416 1.358 . S
C2418 N2419 1.279 . S
C2418 H2459 0.930 . S
N2419 C2417 1.314 . S
N2419 C2418 1.279 . S
C2420 C2422 1.353 . S
C2420 N2423 1.314 . S
C2420 H2426 0.930 . S
C2421 N2423 1.279 . S
C2421 C2424 1.358 . S
C2421 H2427 0.930 . S
C2422 C2420 1.353 . S
C2422 C2425 1.348 . S
C2422 H2460 0.929 . S
N2423 Li2378 1.990 . S
N2423 C2420 1.314 . S
N2423 C2421 1.279 . S
C2424 C2421 1.358 . S
C2424 C2425 1.356 . S
C2424 H2461 0.930 . S
C2425 C2422 1.348 . S
C2425 C2424 1.356 . S
H2426 C2420 0.930 . S
H2427 C2421 0.930 . S
C2428 N2429 1.314 . S
C2428 C2430 1.353 . S
C2428 H2434 0.930 . S
N2429 Li2379 1.990 . S
N2429 C2428 1.314 . S
N2429 C2432 1.279 . S
C2430 C2428 1.353 . S
C2430 C2433 1.348 . S
C2430 H2462 0.929 . S
C2431 C2432 1.358 . S
C2431 C2433 1.356 . S
C2431 H2463 0.930 . S
C2432 N2429 1.279 . S
C2432 C2431 1.358 . S
C2432 H2435 0.930 . S
C2433 C2430 1.348 . S
C2433 C2431 1.356 . S
H2434 C2428 0.930 . S
H2435 C2432 0.930 . S
O2436 Li2376 1.956 . S
O2436 Li2377 1.970 . S
O2436 Li2378 1.961 . S
O2436 C2380 1.325 . S
O2437 Li2376 1.970 . S
O2437 Li2377 1.956 . S
O2437 Li2379 1.961 . S
O2437 C2386 1.325 . S
O2438 Li2376 1.961 . S
O2438 Li2378 1.956 . S
O2438 Li2379 1.970 . S
O2438 C2408 1.325 . S
O2439 Li2377 1.961 . S
O2439 Li2378 1.970 . S
O2439 Li2379 1.956 . S
O2439 C2414 1.325 . S
H2440 C2382 0.929 . S
H2441 C2383 0.930 . S
H2442 C2384 0.930 . S
H2443 C2385 0.930 . S
H2444 C2387 0.930 . S
H2445 C2389 0.929 . S
H2446 C2390 0.930 . S
H2447 C2391 0.930 . S
H2448 C2394 0.930 . S
H2449 C2397 0.929 . S
H2450 C2402 0.929 . S
H2451 C2403 0.930 . S
H2452 C2410 0.929 . S
H2453 C2411 0.930 . S
H2454 C2412 0.930 . S
H2455 C2413 0.930 . S
H2456 C2415 0.929 . S
H2457 C2416 0.930 . S
H2458 C2417 0.930 . S
H2459 C2418 0.930 . S
H2460 C2422 0.929 . S
H2461 C2424 0.930 . S
H2462 C2430 0.929 . S
H2463 C2431 0.930 . S
Li2464 N2481 1.990 . S
Li2464 O2524 1.956 . S
Li2464 O2525 1.970 . S
Li2464 O2526 1.961 . S
Li2465 N2489 1.990 . S
Li2465 O2524 1.970 . S
Li2465 O2525 1.956 . S
Li2465 O2527 1.961 . S
Li2466 N2511 1.990 . S
Li2466 O2524 1.961 . S
Li2466 O2526 1.956 . S
Li2466 O2527 1.970 . S
Li2467 N2517 1.990 . S
Li2467 O2525 1.961 . S
Li2467 O2526 1.970 . S
Li2467 O2527 1.956 . S
C2468 C2470 1.348 . S
C2468 C2471 1.356 . S
C2468 O2524 1.325 . S
N2469 C2472 1.314 . S
N2469 C2473 1.279 . S
C2470 C2468 1.348 . S
C2470 C2472 1.353 . S
C2470 H2528 0.929 . S
C2471 C2468 1.356 . S
C2471 C2473 1.358 . S
C2471 H2529 0.930 . S
C2472 N2469 1.314 . S
C2472 C2470 1.353 . S
C2472 H2530 0.930 . S
C2473 N2469 1.279 . S
C2473 C2471 1.358 . S
C2473 H2531 0.930 . S
C2474 C2477 1.348 . S
C2474 C2478 1.356 . S
C2474 O2525 1.325 . S
C2475 N2476 1.279 . S
C2475 C2478 1.358 . S
C2475 H2532 0.930 . S
N2476 C2475 1.279 . S
N2476 C2479 1.314 . S
C2477 C2474 1.348 . S
C2477 C2479 1.353 . S
C2477 H2533 0.929 . S
C2478 C2474 1.356 . S
C2478 C2475 1.358 . S
C2478 H2534 0.930 . S
C2479 N2476 1.314 . S
C2479 C2477 1.353 . S
C2479 H2535 0.930 . S
C2480 N2481 1.314 . S
C2480 C2485 1.353 . S
C2480 H2486 0.930 . S
N2481 Li2464 1.990 . S
N2481 C2480 1.314 . S
N2481 C2483 1.279 . S
C2482 C2483 1.358 . S
C2482 C2484 1.356 . S
C2482 H2536 0.930 . S
C2483 N2481 1.279 . S
C2483 C2482 1.358 . S
C2483 H2487 0.930 . S
C2484 C2482 1.356 . S
C2484 C2485 1.348 . S
C2485 C2480 1.353 . S
C2485 C2484 1.348 . S
C2485 H2537 0.929 . S
H2486 C2480 0.930 . S
H2487 C2483 0.930 . S
C2488 N2489 1.314 . S
C2488 C2490 1.353 . S
C2488 H2494 0.930 . S
N2489 Li2465 1.990 . S
N2489 C2488 1.314 . S
N2489 C2492 1.279 . S
C2490 C2488 1.353 . S
C2490 C2493 1.348 . S
C2490 H2538 0.968 . S
C2491 C2492 1.358 . S
C2491 C2493 1.356 . S
C2491 H2539 0.930 . S
C2492 N2489 1.279 . S
C2492 C2491 1.358 . S
C2492 H2495 0.930 . S
C2493 C2490 1.348 . S
C2493 C2491 1.356 . S
H2494 C2488 0.930 . S
H2495 C2492 0.930 . S
C2496 C2498 1.348 . S
C2496 C2499 1.356 . S
C2496 O2526 1.325 . S
N2497 C2500 1.314 . S
N2497 C2501 1.279 . S
C2498 C2496 1.348 . S
C2498 C2500 1.353 . S
C2498 H2540 0.929 . S
C2499 C2496 1.356 . S
C2499 C2501 1.358 . S
C2499 H2541 0.930 . S
C2500 N2497 1.314 . S
C2500 C2498 1.353 . S
C2500 H2542 0.930 . S
C2501 N2497 1.279 . S
C2501 C2499 1.358 . S
C2501 H2543 0.930 . S
C2502 C2503 1.348 . S
C2502 C2504 1.356 . S
C2502 O2527 1.325 . S
C2503 C2502 1.348 . S
C2503 C2505 1.353 . S
C2503 H2544 0.929 . S
C2504 C2502 1.356 . S
C2504 C2506 1.358 . S
C2504 H2545 0.930 . S
C2505 C2503 1.353 . S
C2505 N2507 1.314 . S
C2505 H2546 0.930 . S
C2506 C2504 1.358 . S
C2506 N2507 1.279 . S
C2506 H2547 0.930 . S
N2507 C2505 1.314 . S
N2507 C2506 1.279 . S
C2508 C2510 1.353 . S
C2508 N2511 1.314 . S
C2508 H2514 0.930 . S
C2509 N2511 1.279 . S
C2509 C2512 1.358 . S
C2509 H2515 0.930 . S
C2510 C2508 1.353 . S
C2510 C2513 1.348 . S
C2510 H2548 0.929 . S
N2511 Li2466 1.990 . S
N2511 C2508 1.314 . S
N2511 C2509 1.279 . S
C2512 C2509 1.358 . S
C2512 C2513 1.356 . S
C2512 H2549 0.930 . S
C2513 C2510 1.348 . S
C2513 C2512 1.356 . S
H2514 C2508 0.930 . S
H2515 C2509 0.930 . S
C2516 N2517 1.314 . S
C2516 C2518 1.353 . S
C2516 H2522 0.930 . S
N2517 Li2467 1.990 . S
N2517 C2516 1.314 . S
N2517 C2520 1.279 . S
C2518 C2516 1.353 . S
C2518 C2521 1.348 . S
C2518 H2550 0.929 . S
C2519 C2520 1.358 . S
C2519 C2521 1.356 . S
C2519 H2551 0.930 . S
C2520 N2517 1.279 . S
C2520 C2519 1.358 . S
C2520 H2523 0.930 . S
C2521 C2518 1.348 . S
C2521 C2519 1.356 . S
H2522 C2516 0.930 . S
H2523 C2520 0.930 . S
O2524 Li2464 1.956 . S
O2524 Li2465 1.970 . S
O2524 Li2466 1.961 . S
O2524 C2468 1.325 . S
O2525 Li2464 1.970 . S
O2525 Li2465 1.956 . S
O2525 Li2467 1.961 . S
O2525 C2474 1.325 . S
O2526 Li2464 1.961 . S
O2526 Li2466 1.956 . S
O2526 Li2467 1.970 . S
O2526 C2496 1.325 . S
O2527 Li2465 1.961 . S
O2527 Li2466 1.970 . S
O2527 Li2467 1.956 . S
O2527 C2502 1.325 . S
H2528 C2470 0.929 . S
H2529 C2471 0.930 . S
H2530 C2472 0.930 . S
H2531 C2473 0.930 . S
H2532 C2475 0.930 . S
H2533 C2477 0.929 . S
H2534 C2478 0.930 . S
H2535 C2479 0.930 . S
H2536 C2482 0.930 . S
H2537 C2485 0.929 . S
H2538 C2490 0.968 . S
H2539 C2491 0.930 . S
H2540 C2498 0.929 . S
H2541 C2499 0.930 . S
H2542 C2500 0.930 . S
H2543 C2501 0.930 . S
H2544 C2503 0.929 . S
H2545 C2504 0.930 . S
H2546 C2505 0.930 . S
H2547 C2506 0.930 . S
H2548 C2510 0.929 . S
H2549 C2512 0.930 . S
H2550 C2518 0.929 . S
H2551 C2519 0.930 . S
Li2552 N2569 1.990 . S
Li2552 O2612 1.956 . S
Li2552 O2613 1.970 . S
Li2552 O2614 1.961 . S
Li2553 N2577 1.990 . S
Li2553 O2612 1.970 . S
Li2553 O2613 1.956 . S
Li2553 O2615 1.961 . S
Li2554 N2599 1.990 . S
Li2554 O2612 1.961 . S
Li2554 O2614 1.956 . S
Li2554 O2615 1.970 . S
Li2555 N2605 1.990 . S
Li2555 O2613 1.961 . S
Li2555 O2614 1.970 . S
Li2555 O2615 1.956 . S
C2556 C2558 1.348 . S
C2556 C2559 1.356 . S
C2556 O2612 1.325 . S
N2557 C2560 1.314 . S
N2557 C2561 1.279 . S
C2558 C2556 1.348 . S
C2558 C2560 1.353 . S
C2558 H2616 0.929 . S
C2559 C2556 1.356 . S
C2559 C2561 1.358 . S
C2559 H2617 0.930 . S
C2560 N2557 1.314 . S
C2560 C2558 1.353 . S
C2560 H2618 0.930 . S
C2561 N2557 1.279 . S
C2561 C2559 1.358 . S
C2561 H2619 0.930 . S
C2562 C2565 1.348 . S
C2562 C2566 1.356 . S
C2562 O2613 1.325 . S
C2563 N2564 1.279 . S
C2563 C2566 1.358 . S
C2563 H2620 0.930 . S
N2564 C2563 1.279 . S
N2564 C2567 1.314 . S
C2565 C2562 1.348 . S
C2565 C2567 1.353 . S
C2565 H2621 0.929 . S
C2566 C2562 1.356 . S
C2566 C2563 1.358 . S
C2566 H2622 0.930 . S
C2567 N2564 1.314 . S
C2567 C2565 1.353 . S
C2567 H2623 0.930 . S
C2568 N2569 1.314 . S
C2568 C2573 1.353 . S
C2568 H2574 0.930 . S
N2569 Li2552 1.990 . S
N2569 C2568 1.314 . S
N2569 C2571 1.279 . S
C2570 C2571 1.358 . S
C2570 C2572 1.356 . S
C2570 H2624 0.930 . S
C2571 N2569 1.279 . S
C2571 C2570 1.358 . S
C2571 H2575 0.930 . S
C2572 C2570 1.356 . S
C2572 C2573 1.348 . S
C2573 C2568 1.353 . S
C2573 C2572 1.348 . S
C2573 H2625 0.929 . S
H2574 C2568 0.930 . S
H2575 C2571 0.930 . S
C2576 N2577 1.314 . S
C2576 C2578 1.353 . S
C2576 H2582 0.930 . S
N2577 Li2553 1.990 . S
N2577 C2576 1.314 . S
N2577 C2580 1.279 . S
C2578 C2576 1.353 . S
C2578 C2581 1.348 . S
C2578 H2626 0.929 . S
C2579 C2580 1.358 . S
C2579 C2581 1.356 . S
C2579 H2627 0.930 . S
C2580 N2577 1.279 . S
C2580 C2579 1.358 . S
C2580 H2583 0.930 . S
C2581 C2578 1.348 . S
C2581 C2579 1.356 . S
H2582 C2576 0.930 . S
H2583 C2580 0.930 . S
C2584 C2586 1.348 . S
C2584 C2587 1.356 . S
C2584 O2614 1.325 . S
N2585 C2588 1.314 . S
N2585 C2589 1.279 . S
C2586 C2584 1.348 . S
C2586 C2588 1.353 . S
C2586 H2628 0.929 . S
C2587 C2584 1.356 . S
C2587 C2589 1.358 . S
C2587 H2629 0.930 . S
C2588 N2585 1.314 . S
C2588 C2586 1.353 . S
C2588 H2630 0.930 . S
C2589 N2585 1.279 . S
C2589 C2587 1.358 . S
C2589 H2631 0.930 . S
C2590 C2591 1.348 . S
C2590 C2592 1.356 . S
C2590 O2615 1.325 . S
C2591 C2590 1.348 . S
C2591 C2593 1.353 . S
C2591 H2632 0.929 . S
C2592 C2590 1.356 . S
C2592 C2594 1.358 . S
C2592 H2633 0.930 . S
C2593 C2591 1.353 . S
C2593 N2595 1.314 . S
C2593 H2634 0.930 . S
C2594 C2592 1.358 . S
C2594 N2595 1.279 . S
C2594 H2635 0.930 . S
N2595 C2593 1.314 . S
N2595 C2594 1.279 . S
C2596 C2598 1.353 . S
C2596 N2599 1.314 . S
C2596 H2602 0.930 . S
C2597 N2599 1.279 . S
C2597 C2600 1.358 . S
C2597 H2603 0.930 . S
C2598 C2596 1.353 . S
C2598 C2601 1.348 . S
C2598 H2636 0.929 . S
N2599 Li2554 1.990 . S
N2599 C2596 1.314 . S
N2599 C2597 1.279 . S
C2600 C2597 1.358 . S
C2600 C2601 1.356 . S
C2600 H2637 0.930 . S
C2601 C2598 1.348 . S
C2601 C2600 1.356 . S
H2602 C2596 0.930 . S
H2603 C2597 0.930 . S
C2604 N2605 1.314 . S
C2604 C2606 1.353 . S
C2604 H2610 0.930 . S
N2605 Li2555 1.990 . S
N2605 C2604 1.314 . S
N2605 C2608 1.279 . S
C2606 C2604 1.353 . S
C2606 C2609 1.348 . S
C2606 H2638 0.929 . S
C2607 C2608 1.358 . S
C2607 C2609 1.356 . S
C2607 H2639 0.930 . S
C2608 N2605 1.279 . S
C2608 C2607 1.358 . S
C2608 H2611 0.930 . S
C2609 C2606 1.348 . S
C2609 C2607 1.356 . S
H2610 C2604 0.930 . S
H2611 C2608 0.930 . S
O2612 Li2552 1.956 . S
O2612 Li2553 1.970 . S
O2612 Li2554 1.961 . S
O2612 C2556 1.325 . S
O2613 Li2552 1.970 . S
O2613 Li2553 1.956 . S
O2613 Li2555 1.961 . S
O2613 C2562 1.325 . S
O2614 Li2552 1.961 . S
O2614 Li2554 1.956 . S
O2614 Li2555 1.970 . S
O2614 C2584 1.325 . S
O2615 Li2553 1.961 . S
O2615 Li2554 1.970 . S
O2615 Li2555 1.956 . S
O2615 C2590 1.325 . S
H2616 C2558 0.929 . S
H2617 C2559 0.930 . S
H2618 C2560 0.930 . S
H2619 C2561 0.930 . S
H2620 C2563 0.930 . S
H2621 C2565 0.929 . S
H2622 C2566 0.930 . S
H2623 C2567 0.930 . S
H2624 C2570 0.930 . S
H2625 C2573 0.929 . S
H2626 C2578 0.929 . S
H2627 C2579 0.930 . S
H2628 C2586 0.929 . S
H2629 C2587 0.930 . S
H2630 C2588 0.930 . S
H2631 C2589 0.930 . S
H2632 C2591 0.929 . S
H2633 C2592 0.930 . S
H2634 C2593 0.930 . S
H2635 C2594 0.930 . S
H2636 C2598 0.929 . S
H2637 C2600 0.930 . S
H2638 C2606 0.929 . S
H2639 C2607 0.930 . S
Li2640 N2657 1.990 . S
Li2640 O2700 1.956 . S
Li2640 O2701 1.970 . S
Li2640 O2702 1.961 . S
Li2641 N2665 1.990 . S
Li2641 O2700 1.970 . S
Li2641 O2701 1.956 . S
Li2641 O2703 1.961 . S
Li2642 N2687 1.990 . S
Li2642 O2700 1.961 . S
Li2642 O2702 1.956 . S
Li2642 O2703 1.970 . S
Li2643 N2693 1.990 . S
Li2643 O2701 1.961 . S
Li2643 O2702 1.970 . S
Li2643 O2703 1.956 . S
C2644 C2646 1.348 . S
C2644 C2647 1.356 . S
C2644 O2700 1.325 . S
N2645 C2648 1.314 . S
N2645 C2649 1.279 . S
C2646 C2644 1.348 . S
C2646 C2648 1.353 . S
C2646 H2704 0.929 . S
C2647 C2644 1.356 . S
C2647 C2649 1.358 . S
C2647 H2705 0.930 . S
C2648 N2645 1.314 . S
C2648 C2646 1.353 . S
C2648 H2706 0.930 . S
C2649 N2645 1.279 . S
C2649 C2647 1.358 . S
C2649 H2707 0.930 . S
C2650 C2653 1.348 . S
C2650 C2654 1.356 . S
C2650 O2701 1.325 . S
C2651 N2652 1.279 . S
C2651 C2654 1.358 . S
C2651 H2708 0.930 . S
N2652 C2651 1.279 . S
N2652 C2655 1.314 . S
C2653 C2650 1.348 . S
C2653 C2655 1.353 . S
C2653 H2709 0.929 . S
C2654 C2650 1.356 . S
C2654 C2651 1.358 . S
C2654 H2710 0.930 . S
C2655 N2652 1.314 . S
C2655 C2653 1.353 . S
C2655 H2711 0.930 . S
C2656 N2657 1.314 . S
C2656 C2661 1.353 . S
C2656 H2662 0.930 . S
N2657 Li2640 1.990 . S
N2657 C2656 1.314 . S
N2657 C2659 1.279 . S
C2658 C2659 1.358 . S
C2658 C2660 1.356 . S
C2658 H2712 0.930 . S
C2659 N2657 1.279 . S
C2659 C2658 1.358 . S
C2659 H2663 0.930 . S
C2660 C2658 1.356 . S
C2660 C2661 1.348 . S
C2661 C2656 1.353 . S
C2661 C2660 1.348 . S
C2661 H2713 0.929 . S
H2662 C2656 0.930 . S
H2663 C2659 0.930 . S
C2664 N2665 1.314 . S
C2664 C2666 1.353 . S
C2664 H2670 0.930 . S
N2665 Li2641 1.990 . S
N2665 C2664 1.314 . S
N2665 C2668 1.279 . S
C2666 C2664 1.353 . S
C2666 C2669 1.348 . S
C2666 H2714 0.929 . S
C2667 C2668 1.358 . S
C2667 C2669 1.356 . S
C2667 H2715 0.930 . S
C2668 N2665 1.279 . S
C2668 C2667 1.358 . S
C2668 H2671 0.930 . S
C2669 C2666 1.348 . S
C2669 C2667 1.356 . S
H2670 C2664 0.930 . S
H2671 C2668 0.930 . S
C2672 C2674 1.348 . S
C2672 C2675 1.356 . S
C2672 O2702 1.325 . S
N2673 C2676 1.314 . S
N2673 C2677 1.279 . S
C2674 C2672 1.348 . S
C2674 C2676 1.353 . S
C2674 H2716 0.929 . S
C2675 C2672 1.356 . S
C2675 C2677 1.358 . S
C2675 H2717 0.930 . S
C2676 N2673 1.314 . S
C2676 C2674 1.353 . S
C2676 H2718 0.930 . S
C2677 N2673 1.279 . S
C2677 C2675 1.358 . S
C2677 H2719 0.930 . S
C2678 C2679 1.348 . S
C2678 C2680 1.356 . S
C2678 O2703 1.325 . S
C2679 C2678 1.348 . S
C2679 C2681 1.353 . S
C2679 H2720 0.929 . S
C2680 C2678 1.356 . S
C2680 C2682 1.358 . S
C2680 H2721 0.930 . S
C2681 C2679 1.353 . S
C2681 N2683 1.314 . S
C2681 H2722 0.930 . S
C2682 C2680 1.358 . S
C2682 N2683 1.279 . S
C2682 H2723 0.930 . S
N2683 C2681 1.314 . S
N2683 C2682 1.279 . S
C2684 C2686 1.353 . S
C2684 N2687 1.314 . S
C2684 H2690 0.930 . S
C2685 N2687 1.279 . S
C2685 C2688 1.358 . S
C2685 H2691 0.930 . S
C2686 C2684 1.353 . S
C2686 C2689 1.348 . S
C2686 H2724 0.929 . S
N2687 Li2642 1.990 . S
N2687 C2684 1.314 . S
N2687 C2685 1.279 . S
C2688 C2685 1.358 . S
C2688 C2689 1.356 . S
C2688 H2725 0.930 . S
C2689 C2686 1.348 . S
C2689 C2688 1.356 . S
H2690 C2684 0.930 . S
H2691 C2685 0.930 . S
C2692 N2693 1.314 . S
C2692 C2694 1.353 . S
C2692 H2698 0.930 . S
N2693 Li2643 1.990 . S
N2693 C2692 1.314 . S
N2693 C2696 1.279 . S
C2694 C2692 1.353 . S
C2694 C2697 1.348 . S
C2694 H2726 0.929 . S
C2695 C2696 1.358 . S
C2695 C2697 1.356 . S
C2695 H2727 0.930 . S
C2696 N2693 1.279 . S
C2696 C2695 1.358 . S
C2696 H2699 0.930 . S
C2697 C2694 1.348 . S
C2697 C2695 1.356 . S
H2698 C2692 0.930 . S
H2699 C2696 0.930 . S
O2700 Li2640 1.956 . S
O2700 Li2641 1.970 . S
O2700 Li2642 1.961 . S
O2700 C2644 1.325 . S
O2701 Li2640 1.970 . S
O2701 Li2641 1.956 . S
O2701 Li2643 1.961 . S
O2701 C2650 1.325 . S
O2702 Li2640 1.961 . S
O2702 Li2642 1.956 . S
O2702 Li2643 1.970 . S
O2702 C2672 1.325 . S
O2703 Li2641 1.961 . S
O2703 Li2642 1.970 . S
O2703 Li2643 1.956 . S
O2703 C2678 1.325 . S
H2704 C2646 0.929 . S
H2705 C2647 0.930 . S
H2706 C2648 0.930 . S
H2707 C2649 0.930 . S
H2708 C2651 0.930 . S
H2709 C2653 0.929 . S
H2710 C2654 0.930 . S
H2711 C2655 0.930 . S
H2712 C2658 0.930 . S
H2713 C2661 0.929 . S
H2714 C2666 0.929 . S
H2715 C2667 0.930 . S
H2716 C2674 0.929 . S
H2717 C2675 0.930 . S
H2718 C2676 0.930 . S
H2719 C2677 0.930 . S
H2720 C2679 0.929 . S
H2721 C2680 0.930 . S
H2722 C2681 0.930 . S
H2723 C2682 0.930 . S
H2724 C2686 0.929 . S
H2725 C2688 0.930 . S
H2726 C2694 0.929 . S
H2727 C2695 0.930 . S
Li2728 N2745 1.990 . S
Li2728 O2788 1.956 . S
Li2728 O2789 1.970 . S
Li2728 O2790 1.961 . S
Li2729 N2753 1.990 . S
Li2729 O2788 1.970 . S
Li2729 O2789 1.956 . S
Li2729 O2791 1.961 . S
Li2730 N2775 1.990 . S
Li2730 O2788 1.961 . S
Li2730 O2790 1.956 . S
Li2730 O2791 1.970 . S
Li2731 N2781 1.990 . S
Li2731 O2789 1.961 . S
Li2731 O2790 1.970 . S
Li2731 O2791 1.956 . S
C2732 C2734 1.348 . S
C2732 C2735 1.356 . S
C2732 O2788 1.325 . S
N2733 C2736 1.314 . S
N2733 C2737 1.279 . S
C2734 C2732 1.348 . S
C2734 C2736 1.353 . S
C2734 H2792 0.929 . S
C2735 C2732 1.356 . S
C2735 C2737 1.358 . S
C2735 H2793 0.930 . S
C2736 N2733 1.314 . S
C2736 C2734 1.353 . S
C2736 H2794 0.930 . S
C2737 N2733 1.279 . S
C2737 C2735 1.358 . S
C2737 H2795 0.930 . S
C2738 C2741 1.348 . S
C2738 C2742 1.356 . S
C2738 O2789 1.325 . S
C2739 N2740 1.279 . S
C2739 C2742 1.358 . S
C2739 H2796 0.930 . S
N2740 C2739 1.279 . S
N2740 C2743 1.314 . S
C2741 C2738 1.348 . S
C2741 C2743 1.353 . S
C2741 H2797 0.929 . S
C2742 C2738 1.356 . S
C2742 C2739 1.358 . S
C2742 H2798 0.930 . S
C2743 N2740 1.314 . S
C2743 C2741 1.353 . S
C2743 H2799 0.930 . S
C2744 N2745 1.314 . S
C2744 C2749 1.353 . S
C2744 H2750 0.930 . S
N2745 Li2728 1.990 . S
N2745 C2744 1.314 . S
N2745 C2747 1.279 . S
C2746 C2747 1.358 . S
C2746 C2748 1.356 . S
C2746 H2800 0.930 . S
C2747 N2745 1.279 . S
C2747 C2746 1.358 . S
C2747 H2751 0.930 . S
C2748 C2746 1.356 . S
C2748 C2749 1.348 . S
C2749 C2744 1.353 . S
C2749 C2748 1.348 . S
C2749 H2801 0.929 . S
H2750 C2744 0.930 . S
H2751 C2747 0.930 . S
C2752 N2753 1.314 . S
C2752 C2754 1.353 . S
C2752 H2758 0.930 . S
N2753 Li2729 1.990 . S
N2753 C2752 1.314 . S
N2753 C2756 1.279 . S
C2754 C2752 1.353 . S
C2754 C2757 1.348 . S
C2754 H2802 0.929 . S
C2755 C2756 1.358 . S
C2755 C2757 1.356 . S
C2755 H2803 0.930 . S
C2756 N2753 1.279 . S
C2756 C2755 1.358 . S
C2756 H2759 0.930 . S
C2757 C2754 1.348 . S
C2757 C2755 1.356 . S
H2758 C2752 0.930 . S
H2759 C2756 0.930 . S
C2760 C2762 1.348 . S
C2760 C2763 1.356 . S
C2760 O2790 1.325 . S
N2761 C2764 1.314 . S
N2761 C2765 1.279 . S
C2762 C2760 1.348 . S
C2762 C2764 1.353 . S
C2762 H2804 0.929 . S
C2763 C2760 1.356 . S
C2763 C2765 1.358 . S
C2763 H2805 0.930 . S
C2764 N2761 1.314 . S
C2764 C2762 1.353 . S
C2764 H2806 0.930 . S
C2765 N2761 1.279 . S
C2765 C2763 1.358 . S
C2765 H2807 0.930 . S
C2766 C2767 1.348 . S
C2766 C2768 1.356 . S
C2766 O2791 1.325 . S
C2767 C2766 1.348 . S
C2767 C2769 1.353 . S
C2767 H2808 0.929 . S
C2768 C2766 1.356 . S
C2768 C2770 1.358 . S
C2768 H2809 0.930 . S
C2769 C2767 1.353 . S
C2769 N2771 1.314 . S
C2769 H2810 0.930 . S
C2770 C2768 1.358 . S
C2770 N2771 1.279 . S
C2770 H2811 0.930 . S
N2771 C2769 1.314 . S
N2771 C2770 1.279 . S
C2772 C2774 1.353 . S
C2772 N2775 1.314 . S
C2772 H2778 0.930 . S
C2773 N2775 1.279 . S
C2773 C2776 1.358 . S
C2773 H2779 0.930 . S
C2774 C2772 1.353 . S
C2774 C2777 1.348 . S
C2774 H2812 0.929 . S
N2775 Li2730 1.990 . S
N2775 C2772 1.314 . S
N2775 C2773 1.279 . S
C2776 C2773 1.358 . S
C2776 C2777 1.356 . S
C2776 H2813 0.930 . S
C2777 C2774 1.348 . S
C2777 C2776 1.356 . S
H2778 C2772 0.930 . S
H2779 C2773 0.930 . S
C2780 N2781 1.314 . S
C2780 C2782 1.353 . S
C2780 H2786 0.930 . S
N2781 Li2731 1.990 . S
N2781 C2780 1.314 . S
N2781 C2784 1.279 . S
C2782 C2780 1.353 . S
C2782 C2785 1.348 . S
C2782 H2814 0.929 . S
C2783 C2784 1.358 . S
C2783 C2785 1.356 . S
C2783 H2815 0.930 . S
C2784 N2781 1.279 . S
C2784 C2783 1.358 . S
C2784 H2787 0.930 . S
C2785 C2782 1.348 . S
C2785 C2783 1.356 . S
H2786 C2780 0.930 . S
H2787 C2784 0.930 . S
O2788 Li2728 1.956 . S
O2788 Li2729 1.970 . S
O2788 Li2730 1.961 . S
O2788 C2732 1.325 . S
O2789 Li2728 1.970 . S
O2789 Li2729 1.956 . S
O2789 Li2731 1.961 . S
O2789 C2738 1.325 . S
O2790 Li2728 1.961 . S
O2790 Li2730 1.956 . S
O2790 Li2731 1.970 . S
O2790 C2760 1.325 . S
O2791 Li2729 1.961 . S
O2791 Li2730 1.970 . S
O2791 Li2731 1.956 . S
O2791 C2766 1.325 . S
H2792 C2734 0.929 . S
H2793 C2735 0.930 . S
H2794 C2736 0.930 . S
H2795 C2737 0.930 . S
H2796 C2739 0.930 . S
H2797 C2741 0.929 . S
H2798 C2742 0.930 . S
H2799 C2743 0.930 . S
H2800 C2746 0.930 . S
H2801 C2749 0.929 . S
H2802 C2754 0.929 . S
H2803 C2755 0.930 . S
H2804 C2762 0.929 . S
H2805 C2763 0.930 . S
H2806 C2764 0.930 . S
H2807 C2765 0.930 . S
H2808 C2767 0.929 . S
H2809 C2768 0.930 . S
H2810 C2769 0.930 . S
H2811 C2770 0.930 . S
H2812 C2774 0.929 . S
H2813 C2776 0.930 . S
H2814 C2782 0.929 . S
H2815 C2783 0.930 . S
C2816 C2817 1.349 . S
C2816 C2818 1.327 1_565 S
C2816 H2841 0.950 1_565 S
C2817 C2816 1.349 . S
C2817 C2833 1.349 . S
C2818 C2816 1.327 1_545 S
C2818 C2837 1.429 1_545 S
C2818 H2842 0.950 . S
C2819 C2836 1.574 . S
C2819 C2838 1.368 . S
C2819 H2843 0.949 . S
H2820 C2824 0.949 . S
C2821 C2822 1.349 . S
C2821 C2823 1.327 1_545 S
C2821 H2844 0.950 1_545 S
C2822 C2821 1.349 . S
C2822 C2834 1.349 . S
C2823 C2821 1.327 1_565 S
C2823 C2839 1.429 1_565 S
C2823 H2845 0.950 . S
C2824 H2820 0.949 . S
C2824 C2832 1.574 . S
C2824 C2840 1.368 . S
H2825 C2833 0.950 . S
H2826 C2831 0.950 . S
H2827 C2832 0.949 . S
H2828 C2834 0.950 . S
H2829 C2835 0.950 . S
H2830 C2836 0.949 . S
C2831 H2826 0.950 . S
C2831 C2833 1.327 . S
C2831 C2837 1.429 . S
C2832 C2824 1.574 . S
C2832 H2827 0.949 . S
C2832 C2838 1.368 1_545 S
C2833 C2817 1.349 . S
C2833 H2825 0.950 . S
C2833 C2831 1.327 . S
C2834 C2822 1.349 . S
C2834 H2828 0.950 . S
C2834 C2835 1.327 . S
C2835 H2829 0.950 . S
C2835 C2834 1.327 . S
C2835 C2839 1.429 . S
C2836 C2819 1.574 . S
C2836 H2830 0.949 . S
C2836 C2840 1.368 1_565 S
C2837 C2818 1.429 1_565 S
C2837 C2831 1.429 . S
C2837 C2838 1.523 . S
C2838 C2819 1.368 . S
C2838 C2832 1.368 1_565 S
C2838 C2837 1.523 . S
C2839 C2823 1.429 1_545 S
C2839 C2835 1.429 . S
C2839 C2840 1.523 . S
C2840 C2824 1.368 . S
C2840 C2836 1.368 1_545 S
C2840 C2839 1.523 . S
H2841 C2816 0.950 1_545 S
H2842 C2818 0.950 . S
H2843 C2819 0.949 . S
H2844 C2821 0.950 1_565 S
H2845 C2823 0.950 . S
C2846 C2847 1.349 . S
C2846 C2848 1.327 . S
C2846 H2871 0.950 . S
C2847 C2846 1.349 . S
C2847 C2863 1.349 . S
C2848 C2846 1.327 . S
C2848 C2867 1.429 . S
C2848 H2872 0.950 . S
C2849 C2866 1.574 . S
C2849 C2868 1.368 . S
C2849 H2873 0.949 . S
H2850 C2854 0.949 . S
C2851 C2852 1.349 . S
C2851 C2853 1.327 . S
C2851 H2874 0.950 . S
C2852 C2851 1.349 . S
C2852 C2864 1.349 . S
C2853 C2851 1.327 . S
C2853 C2869 1.429 . S
C2853 H2875 0.950 . S
C2854 H2850 0.949 . S
C2854 C2862 1.574 . S
C2854 C2870 1.368 . S
H2855 C2863 0.950 . S
H2856 C2861 0.950 . S
H2857 C2862 0.949 . S
H2858 C2864 0.950 . S
H2859 C2865 0.950 . S
H2860 C2866 0.949 . S
C2861 H2856 0.950 . S
C2861 C2863 1.327 . S
C2861 C2867 1.429 . S
C2862 C2854 1.574 . S
C2862 H2857 0.949 . S
C2862 C2868 1.368 . S
C2863 C2847 1.349 . S
C2863 H2855 0.950 . S
C2863 C2861 1.327 . S
C2864 C2852 1.349 . S
C2864 H2858 0.950 . S
C2864 C2865 1.327 . S
C2865 H2859 0.950 . S
C2865 C2864 1.327 . S
C2865 C2869 1.429 . S
C2866 C2849 1.574 . S
C2866 H2860 0.949 . S
C2866 C2870 1.368 . S
C2867 C2848 1.429 . S
C2867 C2861 1.429 . S
C2867 C2868 1.523 . S
C2868 C2849 1.368 . S
C2868 C2862 1.368 . S
C2868 C2867 1.523 . S
C2869 C2853 1.429 . S
C2869 C2865 1.429 . S
C2869 C2870 1.523 . S
C2870 C2854 1.368 . S
C2870 C2866 1.368 . S
C2870 C2869 1.523 . S
H2871 C2846 0.950 . S
H2872 C2848 0.950 . S
H2873 C2849 0.949 . S
H2874 C2851 0.950 . S
H2875 C2853 0.950 . S
C2876 C2877 1.349 . S
C2876 C2878 1.327 1_545 S
C2876 H2901 0.950 1_545 S
C2877 C2876 1.349 . S
C2877 C2893 1.349 . S
C2878 C2876 1.327 1_565 S
C2878 C2897 1.429 1_565 S
C2878 H2902 0.950 . S
C2879 C2896 1.574 . S
C2879 C2898 1.368 . S
C2879 H2903 0.949 . S
H2880 C2884 0.949 . S
C2881 C2882 1.349 . S
C2881 C2883 1.327 1_565 S
C2881 H2904 0.950 1_565 S
C2882 C2881 1.349 . S
C2882 C2894 1.349 . S
C2883 C2881 1.327 1_545 S
C2883 C2899 1.429 1_545 S
C2883 H2905 0.950 . S
C2884 H2880 0.949 . S
C2884 C2892 1.574 . S
C2884 C2900 1.368 . S
H2885 C2893 0.950 . S
H2886 C2891 0.950 . S
H2887 C2892 0.949 . S
H2888 C2894 0.950 . S
H2889 C2895 0.950 . S
H2890 C2896 0.949 . S
C2891 H2886 0.950 . S
C2891 C2893 1.327 . S
C2891 C2897 1.429 . S
C2892 C2884 1.574 . S
C2892 H2887 0.949 . S
C2892 C2898 1.368 1_565 S
C2893 C2877 1.349 . S
C2893 H2885 0.950 . S
C2893 C2891 1.327 . S
C2894 C2882 1.349 . S
C2894 H2888 0.950 . S
C2894 C2895 1.327 . S
C2895 H2889 0.950 . S
C2895 C2894 1.327 . S
C2895 C2899 1.429 . S
C2896 C2879 1.574 . S
C2896 H2890 0.949 . S
C2896 C2900 1.368 1_545 S
C2897 C2878 1.429 1_545 S
C2897 C2891 1.429 . S
C2897 C2898 1.523 . S
C2898 C2879 1.368 . S
C2898 C2892 1.368 1_545 S
C2898 C2897 1.523 . S
C2899 C2883 1.429 1_565 S
C2899 C2895 1.429 . S
C2899 C2900 1.523 . S
C2900 C2884 1.368 . S
C2900 C2896 1.368 1_565 S
C2900 C2899 1.523 . S
H2901 C2876 0.950 1_565 S
H2902 C2878 0.950 . S
H2903 C2879 0.949 . S
H2904 C2881 0.950 1_545 S
H2905 C2883 0.950 . S
C2906 C2907 1.349 . S
C2906 C2908 1.327 . S
C2906 H2931 0.950 . S
C2907 C2906 1.349 . S
C2907 C2923 1.349 . S
C2908 C2906 1.327 . S
C2908 C2927 1.429 . S
C2908 H2932 0.950 . S
C2909 C2926 1.574 1_556 S
C2909 C2928 1.368 . S
C2909 H2933 0.949 . S
H2910 C2914 0.949 . S
C2911 C2912 1.349 . S
C2911 C2913 1.327 . S
C2911 H2934 0.950 . S
C2912 C2911 1.349 . S
C2912 C2924 1.349 . S
C2913 C2911 1.327 . S
C2913 C2929 1.429 . S
C2913 H2935 0.950 . S
C2914 H2910 0.949 . S
C2914 C2922 1.574 1_554 S
C2914 C2930 1.368 . S
H2915 C2923 0.950 . S
H2916 C2921 0.950 . S
H2917 C2922 0.949 . S
H2918 C2924 0.950 . S
H2919 C2925 0.950 . S
H2920 C2926 0.949 . S
C2921 H2916 0.950 . S
C2921 C2923 1.327 . S
C2921 C2927 1.429 . S
C2922 C2914 1.574 1_556 S
C2922 H2917 0.949 . S
C2922 C2928 1.368 . S
C2923 C2907 1.349 . S
C2923 H2915 0.950 . S
C2923 C2921 1.327 . S
C2924 C2912 1.349 . S
C2924 H2918 0.950 . S
C2924 C2925 1.327 . S
C2925 H2919 0.950 . S
C2925 C2924 1.327 . S
C2925 C2929 1.429 . S
C2926 C2909 1.574 1_554 S
C2926 H2920 0.949 . S
C2926 C2930 1.368 . S
C2927 C2908 1.429 . S
C2927 C2921 1.429 . S
C2927 C2928 1.523 . S
C2928 C2909 1.368 . S
C2928 C2922 1.368 . S
C2928 C2927 1.523 . S
C2929 C2913 1.429 . S
C2929 C2925 1.429 . S
C2929 C2930 1.523 . S
C2930 C2914 1.368 . S
C2930 C2926 1.368 . S
C2930 C2929 1.523 . S
H2931 C2906 0.950 . S
H2932 C2908 0.950 . S
H2933 C2909 0.949 . S
H2934 C2911 0.950 . S
H2935 C2913 0.950 . S
C2936 C2937 1.349 . S
C2936 C2938 1.327 . S
C2936 H2961 0.950 . S
C2937 C2936 1.349 . S
C2937 C2953 1.349 . S
C2938 C2936 1.327 . S
C2938 C2957 1.429 . S
C2938 H2962 0.950 . S
C2939 C2956 1.574 1_565 S
C2939 C2958 1.368 . S
C2939 H2963 0.949 . S
H2940 C2944 0.949 . S
C2941 C2942 1.349 . S
C2941 C2943 1.327 . S
C2941 H2964 0.950 . S
C2942 C2941 1.349 . S
C2942 C2954 1.349 . S
C2943 C2941 1.327 . S
C2943 C2959 1.429 . S
C2943 H2965 0.950 . S
C2944 H2940 0.949 . S
C2944 C2952 1.574 1_545 S
C2944 C2960 1.368 . S
H2945 C2953 0.950 . S
H2946 C2951 0.950 . S
H2947 C2952 0.949 . S
H2948 C2954 0.950 . S
H2949 C2955 0.950 . S
H2950 C2956 0.949 . S
C2951 H2946 0.950 . S
C2951 C2953 1.327 . S
C2951 C2957 1.429 . S
C2952 C2944 1.574 1_565 S
C2952 H2947 0.949 . S
C2952 C2958 1.368 . S
C2953 C2937 1.349 . S
C2953 H2945 0.950 . S
C2953 C2951 1.327 . S
C2954 C2942 1.349 . S
C2954 H2948 0.950 . S
C2954 C2955 1.327 . S
C2955 H2949 0.950 . S
C2955 C2954 1.327 . S
C2955 C2959 1.429 . S
C2956 C2939 1.574 1_545 S
C2956 H2950 0.949 . S
C2956 C2960 1.368 . S
C2957 C2938 1.429 . S
C2957 C2951 1.429 . S
C2957 C2958 1.523 . S
C2958 C2939 1.368 . S
C2958 C2952 1.368 . S
C2958 C2957 1.523 . S
C2959 C2943 1.429 . S
C2959 C2955 1.429 . S
C2959 C2960 1.523 . S
C2960 C2944 1.368 . S
C2960 C2956 1.368 . S
C2960 C2959 1.523 . S
H2961 C2936 0.950 . S
H2962 C2938 0.950 . S
H2963 C2939 0.949 . S
H2964 C2941 0.950 . S
H2965 C2943 0.950 . S
C2966 C2967 1.349 . S
C2966 C2968 1.327 . S
C2966 H2991 0.950 . S
C2967 C2966 1.349 . S
C2967 C2983 1.349 . S
C2968 C2966 1.327 . S
C2968 C2987 1.429 . S
C2968 H2992 0.950 . S
C2969 C2986 1.574 . S
C2969 C2988 1.368 . S
C2969 H2993 0.949 . S
H2970 C2974 0.949 . S
C2971 C2972 1.349 . S
C2971 C2973 1.327 . S
C2971 H2994 0.950 . S
C2972 C2971 1.349 . S
C2972 C2984 1.349 . S
C2973 C2971 1.327 . S
C2973 C2989 1.429 . S
C2973 H2995 0.950 . S
C2974 H2970 0.949 . S
C2974 C2982 1.574 . S
C2974 C2990 1.368 . S
H2975 C2983 0.950 . S
H2976 C2981 0.950 . S
H2977 C2982 0.949 . S
H2978 C2984 0.950 . S
H2979 C2985 0.950 . S
H2980 C2986 0.949 . S
C2981 H2976 0.950 . S
C2981 C2983 1.327 . S
C2981 C2987 1.429 . S
C2982 C2974 1.574 . S
C2982 H2977 0.949 . S
C2982 C2988 1.368 . S
C2983 C2967 1.349 . S
C2983 H2975 0.950 . S
C2983 C2981 1.327 . S
C2984 C2972 1.349 . S
C2984 H2978 0.950 . S
C2984 C2985 1.327 . S
C2985 H2979 0.950 . S
C2985 C2984 1.327 . S
C2985 C2989 1.429 . S
C2986 C2969 1.574 . S
C2986 H2980 0.949 . S
C2986 C2990 1.368 . S
C2987 C2968 1.429 . S
C2987 C2981 1.429 . S
C2987 C2988 1.523 . S
C2988 C2969 1.368 . S
C2988 C2982 1.368 . S
C2988 C2987 1.523 . S
C2989 C2973 1.429 . S
C2989 C2985 1.429 . S
C2989 C2990 1.523 . S
C2990 C2974 1.368 . S
C2990 C2986 1.368 . S
C2990 C2989 1.523 . S
H2991 C2966 0.950 . S
H2992 C2968 0.950 . S
H2993 C2969 0.949 . S
H2994 C2971 0.950 . S
H2995 C2973 0.950 . S
C2996 C2997 1.349 . S
C2996 C2998 1.327 1_545 S
C2996 H3021 0.950 1_545 S
C2997 C2996 1.349 . S
C2997 C3013 1.349 . S
C2998 C2996 1.327 1_565 S
C2998 C3017 1.429 1_565 S
C2998 H3022 0.950 . S
C2999 C3016 1.574 . S
C2999 C3018 1.368 . S
C2999 H3023 0.949 . S
H3000 C3004 0.949 . S
C3001 C3002 1.349 . S
C3001 C3003 1.327 1_565 S
C3001 H3024 0.950 1_565 S
C3002 C3001 1.349 . S
C3002 C3014 1.349 . S
C3003 C3001 1.327 1_545 S
C3003 C3019 1.429 1_545 S
C3003 H3025 0.950 . S
C3004 H3000 0.949 . S
C3004 C3012 1.574 . S
C3004 C3020 1.368 . S
H3005 C3013 0.950 . S
H3006 C3011 0.950 . S
H3007 C3012 0.949 . S
H3008 C3014 0.950 . S
H3009 C3015 0.950 . S
H3010 C3016 0.949 . S
C3011 H3006 0.950 . S
C3011 C3013 1.327 . S
C3011 C3017 1.429 . S
C3012 C3004 1.574 . S
C3012 H3007 0.949 . S
C3012 C3018 1.368 1_565 S
C3013 C2997 1.349 . S
C3013 H3005 0.950 . S
C3013 C3011 1.327 . S
C3014 C3002 1.349 . S
C3014 H3008 0.950 . S
C3014 C3015 1.327 . S
C3015 H3009 0.950 . S
C3015 C3014 1.327 . S
C3015 C3019 1.429 . S
C3016 C2999 1.574 . S
C3016 H3010 0.949 . S
C3016 C3020 1.368 1_545 S
C3017 C2998 1.429 1_545 S
C3017 C3011 1.429 . S
C3017 C3018 1.523 . S
C3018 C2999 1.368 . S
C3018 C3012 1.368 1_545 S
C3018 C3017 1.523 . S
C3019 C3003 1.429 1_565 S
C3019 C3015 1.429 . S
C3019 C3020 1.523 . S
C3020 C3004 1.368 . S
C3020 C3016 1.368 1_565 S
C3020 C3019 1.523 . S
H3021 C2996 0.950 1_565 S
H3022 C2998 0.950 . S
H3023 C2999 0.949 . S
H3024 C3001 0.950 1_545 S
H3025 C3003 0.950 . S
C3026 C3027 1.349 . S
C3026 C3028 1.327 . S
C3026 H3051 0.950 . S
C3027 C3026 1.349 . S
C3027 C3043 1.349 . S
C3028 C3026 1.327 . S
C3028 C3047 1.429 . S
C3028 H3052 0.950 . S
C3029 C3046 1.574 1_556 S
C3029 C3048 1.368 . S
C3029 H3053 0.949 . S
H3030 C3034 0.949 . S
C3031 C3032 1.349 . S
C3031 C3033 1.327 . S
C3031 H3054 0.950 . S
C3032 C3031 1.349 . S
C3032 C3044 1.349 . S
C3033 C3031 1.327 . S
C3033 C3049 1.429 . S
C3033 H3055 0.950 . S
C3034 H3030 0.949 . S
C3034 C3042 1.574 1_554 S
C3034 C3050 1.368 . S
H3035 C3043 0.950 . S
H3036 C3041 0.950 . S
H3037 C3042 0.949 . S
H3038 C3044 0.950 . S
H3039 C3045 0.950 . S
H3040 C3046 0.949 . S
C3041 H3036 0.950 . S
C3041 C3043 1.327 . S
C3041 C3047 1.429 . S
C3042 C3034 1.574 1_556 S
C3042 H3037 0.949 . S
C3042 C3048 1.368 . S
C3043 C3027 1.349 . S
C3043 H3035 0.950 . S
C3043 C3041 1.327 . S
C3044 C3032 1.349 . S
C3044 H3038 0.950 . S
C3044 C3045 1.327 . S
C3045 H3039 0.950 . S
C3045 C3044 1.327 . S
C3045 C3049 1.429 . S
C3046 C3029 1.574 1_554 S
C3046 H3040 0.949 . S
C3046 C3050 1.368 . S
C3047 C3028 1.429 . S
C3047 C3041 1.429 . S
C3047 C3048 1.523 . S
C3048 C3029 1.368 . S
C3048 C3042 1.368 . S
C3048 C3047 1.523 . S
C3049 C3033 1.429 . S
C3049 C3045 1.429 . S
C3049 C3050 1.523 . S
C3050 C3034 1.368 . S
C3050 C3046 1.368 . S
C3050 C3049 1.523 . S
H3051 C3026 0.950 . S
H3052 C3028 0.950 . S
H3053 C3029 0.949 . S
H3054 C3031 0.950 . S
H3055 C3033 0.950 . S
C3056 C3057 1.349 . S
C3056 C3058 1.327 . S
C3056 H3081 0.950 . S
C3057 C3056 1.349 . S
C3057 C3073 1.349 . S
C3058 C3056 1.327 . S
C3058 C3077 1.429 . S
C3058 H3082 0.950 . S
C3059 C3076 1.574 . S
C3059 C3078 1.368 . S
C3059 H3083 0.949 . S
H3060 C3064 0.949 . S
C3061 C3062 1.349 . S
C3061 C3063 1.327 . S
C3061 H3084 0.950 . S
C3062 C3061 1.349 . S
C3062 C3074 1.349 . S
C3063 C3061 1.327 . S
C3063 C3079 1.429 . S
C3063 H3085 0.950 . S
C3064 H3060 0.949 . S
C3064 C3072 1.574 . S
C3064 C3080 1.368 . S
H3065 C3073 0.950 . S
H3066 C3071 0.950 . S
H3067 C3072 0.949 . S
H3068 C3074 0.950 . S
H3069 C3075 0.950 . S
H3070 C3076 0.949 . S
C3071 H3066 0.950 . S
C3071 C3073 1.327 . S
C3071 C3077 1.429 . S
C3072 C3064 1.574 . S
C3072 H3067 0.949 . S
C3072 C3078 1.368 . S
C3073 C3057 1.349 . S
C3073 H3065 0.950 . S
C3073 C3071 1.327 . S
C3074 C3062 1.349 . S
C3074 H3068 0.950 . S
C3074 C3075 1.327 . S
C3075 H3069 0.950 . S
C3075 C3074 1.327 . S
C3075 C3079 1.429 . S
C3076 C3059 1.574 . S
C3076 H3070 0.949 . S
C3076 C3080 1.368 . S
C3077 C3058 1.429 . S
C3077 C3071 1.429 . S
C3077 C3078 1.523 . S
C3078 C3059 1.368 . S
C3078 C3072 1.368 . S
C3078 C3077 1.523 . S
C3079 C3063 1.429 . S
C3079 C3075 1.429 . S
C3079 C3080 1.523 . S
C3080 C3064 1.368 . S
C3080 C3076 1.368 . S
C3080 C3079 1.523 . S
H3081 C3056 0.950 . S
H3082 C3058 0.950 . S
H3083 C3059 0.949 . S
H3084 C3061 0.950 . S
H3085 C3063 0.950 . S
C3086 C3087 1.349 . S
C3086 C3088 1.327 . S
C3086 H3111 0.950 . S
C3087 C3086 1.349 . S
C3087 C3103 1.349 . S
C3088 C3086 1.327 . S
C3088 C3107 1.429 . S
C3088 H3112 0.950 . S
C3089 C3106 1.574 1_554 S
C3089 C3108 1.368 . S
C3089 H3113 0.949 . S
H3090 C3094 0.949 . S
C3091 C3092 1.349 . S
C3091 C3093 1.327 . S
C3091 H3114 0.950 . S
C3092 C3091 1.349 . S
C3092 C3104 1.349 . S
C3093 C3091 1.327 . S
C3093 C3109 1.429 . S
C3093 H3115 0.950 . S
C3094 H3090 0.949 . S
C3094 C3102 1.574 1_556 S
C3094 C3110 1.368 . S
H3095 C3103 0.950 . S
H3096 C3101 0.950 . S
H3097 C3102 0.949 . S
H3098 C3104 0.950 . S
H3099 C3105 0.950 . S
H3100 C3106 0.949 . S
C3101 H3096 0.950 . S
C3101 C3103 1.327 . S
C3101 C3107 1.429 . S
C3102 C3094 1.574 1_554 S
C3102 H3097 0.949 . S
C3102 C3108 1.368 . S
C3103 C3087 1.349 . S
C3103 H3095 0.950 . S
C3103 C3101 1.327 . S
C3104 C3092 1.349 . S
C3104 H3098 0.950 . S
C3104 C3105 1.327 . S
C3105 H3099 0.950 . S
C3105 C3104 1.327 . S
C3105 C3109 1.429 . S
C3106 C3089 1.574 1_556 S
C3106 H3100 0.949 . S
C3106 C3110 1.368 . S
C3107 C3088 1.429 . S
C3107 C3101 1.429 . S
C3107 C3108 1.523 . S
C3108 C3089 1.368 . S
C3108 C3102 1.368 . S
C3108 C3107 1.523 . S
C3109 C3093 1.429 . S
C3109 C3105 1.429 . S
C3109 C3110 1.523 . S
C3110 C3094 1.368 . S
C3110 C3106 1.368 . S
C3110 C3109 1.523 . S
H3111 C3086 0.950 . S
H3112 C3088 0.950 . S
H3113 C3089 0.949 . S
H3114 C3091 0.950 . S
H3115 C3093 0.950 . S
C3116 C3117 1.349 . S
C3116 C3118 1.327 . S
C3116 H3141 0.950 . S
C3117 C3116 1.349 . S
C3117 C3133 1.349 . S
C3118 C3116 1.327 . S
C3118 C3137 1.429 . S
C3118 H3142 0.950 . S
C3119 C3136 1.574 . S
C3119 C3138 1.368 . S
C3119 H3143 0.949 . S
H3120 C3124 0.949 . S
C3121 C3122 1.349 . S
C3121 C3123 1.327 . S
C3121 H3144 0.950 . S
C3122 C3121 1.349 . S
C3122 C3134 1.349 . S
C3123 C3121 1.327 . S
C3123 C3139 1.429 . S
C3123 H3145 0.950 . S
C3124 H3120 0.949 . S
C3124 C3132 1.574 . S
C3124 C3140 1.368 . S
H3125 C3133 0.950 . S
H3126 C3131 0.950 . S
H3127 C3132 0.949 . S
H3128 C3134 0.950 . S
H3129 C3135 0.950 . S
H3130 C3136 0.949 . S
C3131 H3126 0.950 . S
C3131 C3133 1.327 . S
C3131 C3137 1.429 . S
C3132 C3124 1.574 . S
C3132 H3127 0.949 . S
C3132 C3138 1.368 . S
C3133 C3117 1.349 . S
C3133 H3125 0.950 . S
C3133 C3131 1.327 . S
C3134 C3122 1.349 . S
C3134 H3128 0.950 . S
C3134 C3135 1.327 . S
C3135 H3129 0.950 . S
C3135 C3134 1.327 . S
C3135 C3139 1.429 . S
C3136 C3119 1.574 . S
C3136 H3130 0.949 . S
C3136 C3140 1.368 . S
C3137 C3118 1.429 . S
C3137 C3131 1.429 . S
C3137 C3138 1.523 . S
C3138 C3119 1.368 . S
C3138 C3132 1.368 . S
C3138 C3137 1.523 . S
C3139 C3123 1.429 . S
C3139 C3135 1.429 . S
C3139 C3140 1.523 . S
C3140 C3124 1.368 . S
C3140 C3136 1.368 . S
C3140 C3139 1.523 . S
H3141 C3116 0.950 . S
H3142 C3118 0.950 . S
H3143 C3119 0.949 . S
H3144 C3121 0.950 . S
H3145 C3123 0.950 . S
C3146 C3147 1.349 . S
C3146 C3148 1.327 . S
C3146 H3171 0.950 . S
C3147 C3146 1.349 . S
C3147 C3163 1.349 . S
C3148 C3146 1.327 . S
C3148 C3167 1.429 . S
C3148 H3172 0.950 . S
C3149 C3166 1.574 . S
C3149 C3168 1.368 . S
C3149 H3173 0.949 . S
H3150 C3154 0.949 . S
C3151 C3152 1.349 . S
C3151 C3153 1.327 . S
C3151 H3174 0.950 . S
C3152 C3151 1.349 . S
C3152 C3164 1.349 . S
C3153 C3151 1.327 . S
C3153 C3169 1.429 . S
C3153 H3175 0.950 . S
C3154 H3150 0.949 . S
C3154 C3162 1.574 . S
C3154 C3170 1.368 . S
H3155 C3163 0.950 . S
H3156 C3161 0.950 . S
H3157 C3162 0.949 . S
H3158 C3164 0.950 . S
H3159 C3165 0.950 . S
H3160 C3166 0.949 . S
C3161 H3156 0.950 . S
C3161 C3163 1.327 . S
C3161 C3167 1.429 . S
C3162 C3154 1.574 . S
C3162 H3157 0.949 . S
C3162 C3168 1.368 . S
C3163 C3147 1.349 . S
C3163 H3155 0.950 . S
C3163 C3161 1.327 . S
C3164 C3152 1.349 . S
C3164 H3158 0.950 . S
C3164 C3165 1.327 . S
C3165 H3159 0.950 . S
C3165 C3164 1.327 . S
C3165 C3169 1.429 . S
C3166 C3149 1.574 . S
C3166 H3160 0.949 . S
C3166 C3170 1.368 . S
C3167 C3148 1.429 . S
C3167 C3161 1.429 . S
C3167 C3168 1.523 . S
C3168 C3149 1.368 . S
C3168 C3162 1.368 . S
C3168 C3167 1.523 . S
C3169 C3153 1.429 . S
C3169 C3165 1.429 . S
C3169 C3170 1.523 . S
C3170 C3154 1.368 . S
C3170 C3166 1.368 . S
C3170 C3169 1.523 . S
H3171 C3146 0.950 . S
H3172 C3148 0.950 . S
H3173 C3149 0.949 . S
H3174 C3151 0.950 . S
H3175 C3153 0.950 . S
C3176 C3177 1.349 . S
C3176 C3178 1.327 . S
C3176 H3201 0.950 . S
C3177 C3176 1.349 . S
C3177 C3193 1.349 . S
C3178 C3176 1.327 . S
C3178 C3197 1.429 . S
C3178 H3202 0.950 . S
C3179 C3196 1.574 . S
C3179 C3198 1.368 . S
C3179 H3203 0.949 . S
H3180 C3184 0.949 . S
C3181 C3182 1.349 . S
C3181 C3183 1.327 . S
C3181 H3204 0.950 . S
C3182 C3181 1.349 . S
C3182 C3194 1.349 . S
C3183 C3181 1.327 . S
C3183 C3199 1.429 . S
C3183 H3205 0.950 . S
C3184 H3180 0.949 . S
C3184 C3192 1.574 . S
C3184 C3200 1.368 . S
H3185 C3193 0.950 . S
H3186 C3191 0.950 . S
H3187 C3192 0.949 . S
H3188 C3194 0.950 . S
H3189 C3195 0.950 . S
H3190 C3196 0.949 . S
C3191 H3186 0.950 . S
C3191 C3193 1.327 . S
C3191 C3197 1.429 . S
C3192 C3184 1.574 . S
C3192 H3187 0.949 . S
C3192 C3198 1.368 . S
C3193 C3177 1.349 . S
C3193 H3185 0.950 . S
C3193 C3191 1.327 . S
C3194 C3182 1.349 . S
C3194 H3188 0.950 . S
C3194 C3195 1.327 . S
C3195 H3189 0.950 . S
C3195 C3194 1.327 . S
C3195 C3199 1.429 . S
C3196 C3179 1.574 . S
C3196 H3190 0.949 . S
C3196 C3200 1.368 . S
C3197 C3178 1.429 . S
C3197 C3191 1.429 . S
C3197 C3198 1.523 . S
C3198 C3179 1.368 . S
C3198 C3192 1.368 . S
C3198 C3197 1.523 . S
C3199 C3183 1.429 . S
C3199 C3195 1.429 . S
C3199 C3200 1.523 . S
C3200 C3184 1.368 . S
C3200 C3196 1.368 . S
C3200 C3199 1.523 . S
H3201 C3176 0.950 . S
H3202 C3178 0.950 . S
H3203 C3179 0.949 . S
H3204 C3181 0.950 . S
H3205 C3183 0.950 . S
C3206 C3207 1.349 . S
C3206 C3208 1.327 . S
C3206 H3231 0.950 . S
C3207 C3206 1.349 . S
C3207 C3223 1.349 . S
C3208 C3206 1.327 . S
C3208 C3227 1.429 . S
C3208 H3232 0.950 . S
C3209 C3226 1.574 1_554 S
C3209 C3228 1.368 . S
C3209 H3233 0.949 . S
H3210 C3214 0.949 . S
C3211 C3212 1.349 . S
C3211 C3213 1.327 . S
C3211 H3234 0.950 . S
C3212 C3211 1.349 . S
C3212 C3224 1.349 . S
C3213 C3211 1.327 . S
C3213 C3229 1.429 . S
C3213 H3235 0.950 . S
C3214 H3210 0.949 . S
C3214 C3222 1.574 1_556 S
C3214 C3230 1.368 . S
H3215 C3223 0.950 . S
H3216 C3221 0.950 . S
H3217 C3222 0.949 . S
H3218 C3224 0.950 . S
H3219 C3225 0.950 . S
H3220 C3226 0.949 . S
C3221 H3216 0.950 . S
C3221 C3223 1.327 . S
C3221 C3227 1.429 . S
C3222 C3214 1.574 1_554 S
C3222 H3217 0.949 . S
C3222 C3228 1.368 . S
C3223 C3207 1.349 . S
C3223 H3215 0.950 . S
C3223 C3221 1.327 . S
C3224 C3212 1.349 . S
C3224 H3218 0.950 . S
C3224 C3225 1.327 . S
C3225 H3219 0.950 . S
C3225 C3224 1.327 . S
C3225 C3229 1.429 . S
C3226 C3209 1.574 1_556 S
C3226 H3220 0.949 . S
C3226 C3230 1.368 . S
C3227 C3208 1.429 . S
C3227 C3221 1.429 . S
C3227 C3228 1.523 . S
C3228 C3209 1.368 . S
C3228 C3222 1.368 . S
C3228 C3227 1.523 . S
C3229 C3213 1.429 . S
C3229 C3225 1.429 . S
C3229 C3230 1.523 . S
C3230 C3214 1.368 . S
C3230 C3226 1.368 . S
C3230 C3229 1.523 . S
H3231 C3206 0.950 . S
H3232 C3208 0.950 . S
H3233 C3209 0.949 . S
H3234 C3211 0.950 . S
H3235 C3213 0.950 . S
C3236 C3237 1.349 . S
C3236 C3238 1.327 . S
C3236 H3261 0.950 . S
C3237 C3236 1.349 . S
C3237 C3253 1.349 . S
C3238 C3236 1.327 . S
C3238 C3257 1.429 . S
C3238 H3262 0.950 . S
C3239 C3256 1.574 . S
C3239 C3258 1.368 . S
C3239 H3263 0.949 . S
H3240 C3244 0.949 . S
C3241 C3242 1.349 . S
C3241 C3243 1.327 . S
C3241 H3264 0.950 . S
C3242 C3241 1.349 . S
C3242 C3254 1.349 . S
C3243 C3241 1.327 . S
C3243 C3259 1.429 . S
C3243 H3265 0.950 . S
C3244 H3240 0.949 . S
C3244 C3252 1.574 . S
C3244 C3260 1.368 . S
H3245 C3253 0.950 . S
H3246 C3251 0.950 . S
H3247 C3252 0.949 . S
H3248 C3254 0.950 . S
H3249 C3255 0.950 . S
H3250 C3256 0.949 . S
C3251 H3246 0.950 . S
C3251 C3253 1.327 . S
C3251 C3257 1.429 . S
C3252 C3244 1.574 . S
C3252 H3247 0.949 . S
C3252 C3258 1.368 . S
C3253 C3237 1.349 . S
C3253 H3245 0.950 . S
C3253 C3251 1.327 . S
C3254 C3242 1.349 . S
C3254 H3248 0.950 . S
C3254 C3255 1.327 . S
C3255 H3249 0.950 . S
C3255 C3254 1.327 . S
C3255 C3259 1.429 . S
C3256 C3239 1.574 . S
C3256 H3250 0.949 . S
C3256 C3260 1.368 . S
C3257 C3238 1.429 . S
C3257 C3251 1.429 . S
C3257 C3258 1.523 . S
C3258 C3239 1.368 . S
C3258 C3252 1.368 . S
C3258 C3257 1.523 . S
C3259 C3243 1.429 . S
C3259 C3255 1.429 . S
C3259 C3260 1.523 . S
C3260 C3244 1.368 . S
C3260 C3256 1.368 . S
C3260 C3259 1.523 . S
H3261 C3236 0.950 . S
H3262 C3238 0.950 . S
H3263 C3239 0.949 . S
H3264 C3241 0.950 . S
H3265 C3243 0.950 . S
C3266 C3267 1.349 . S
C3266 C3268 1.327 . S
C3266 H3291 0.950 . S
C3267 C3266 1.349 . S
C3267 C3283 1.349 . S
C3268 C3266 1.327 . S
C3268 C3287 1.429 . S
C3268 H3292 0.950 . S
C3269 C3286 1.574 . S
C3269 C3288 1.368 . S
C3269 H3293 0.949 . S
H3270 C3274 0.949 . S
C3271 C3272 1.349 . S
C3271 C3273 1.327 . S
C3271 H3294 0.950 . S
C3272 C3271 1.349 . S
C3272 C3284 1.349 . S
C3273 C3271 1.327 . S
C3273 C3289 1.429 . S
C3273 H3295 0.950 . S
C3274 H3270 0.949 . S
C3274 C3282 1.574 . S
C3274 C3290 1.368 . S
H3275 C3283 0.950 . S
H3276 C3281 0.950 . S
H3277 C3282 0.949 . S
H3278 C3284 0.950 . S
H3279 C3285 0.950 . S
H3280 C3286 0.949 . S
C3281 H3276 0.950 . S
C3281 C3283 1.327 . S
C3281 C3287 1.429 . S
C3282 C3274 1.574 . S
C3282 H3277 0.949 . S
C3282 C3288 1.368 . S
C3283 C3267 1.349 . S
C3283 H3275 0.950 . S
C3283 C3281 1.327 . S
C3284 C3272 1.349 . S
C3284 H3278 0.950 . S
C3284 C3285 1.327 . S
C3285 H3279 0.950 . S
C3285 C3284 1.327 . S
C3285 C3289 1.429 . S
C3286 C3269 1.574 . S
C3286 H3280 0.949 . S
C3286 C3290 1.368 . S
C3287 C3268 1.429 . S
C3287 C3281 1.429 . S
C3287 C3288 1.523 . S
C3288 C3269 1.368 . S
C3288 C3282 1.368 . S
C3288 C3287 1.523 . S
C3289 C3273 1.429 . S
C3289 C3285 1.429 . S
C3289 C3290 1.523 . S
C3290 C3274 1.368 . S
C3290 C3286 1.368 . S
C3290 C3289 1.523 . S
H3291 C3266 0.950 . S
H3292 C3268 0.950 . S
H3293 C3269 0.949 . S
H3294 C3271 0.950 . S
H3295 C3273 0.950 . S
C3296 C3297 1.349 . S
C3296 C3298 1.327 . S
C3296 H3321 0.950 . S
C3297 C3296 1.349 . S
C3297 C3313 1.349 . S
C3298 C3296 1.327 . S
C3298 C3317 1.429 . S
C3298 H3322 0.950 . S
C3299 C3316 1.574 . S
C3299 C3318 1.368 . S
C3299 H3323 0.949 . S
H3300 C3304 0.949 . S
C3301 C3302 1.349 . S
C3301 C3303 1.327 . S
C3301 H3324 0.950 . S
C3302 C3301 1.349 . S
C3302 C3314 1.349 . S
C3303 C3301 1.327 . S
C3303 C3319 1.429 . S
C3303 H3325 0.950 . S
C3304 H3300 0.949 . S
C3304 C3312 1.574 . S
C3304 C3320 1.368 . S
H3305 C3313 0.950 . S
H3306 C3311 0.950 . S
H3307 C3312 0.949 . S
H3308 C3314 0.950 . S
H3309 C3315 0.950 . S
H3310 C3316 0.949 . S
C3311 H3306 0.950 . S
C3311 C3313 1.327 . S
C3311 C3317 1.429 . S
C3312 C3304 1.574 . S
C3312 H3307 0.949 . S
C3312 C3318 1.368 . S
C3313 C3297 1.349 . S
C3313 H3305 0.950 . S
C3313 C3311 1.327 . S
C3314 C3302 1.349 . S
C3314 H3308 0.950 . S
C3314 C3315 1.327 . S
C3315 H3309 0.950 . S
C3315 C3314 1.327 . S
C3315 C3319 1.429 . S
C3316 C3299 1.574 . S
C3316 H3310 0.949 . S
C3316 C3320 1.368 . S
C3317 C3298 1.429 . S
C3317 C3311 1.429 . S
C3317 C3318 1.523 . S
C3318 C3299 1.368 . S
C3318 C3312 1.368 . S
C3318 C3317 1.523 . S
C3319 C3303 1.429 . S
C3319 C3315 1.429 . S
C3319 C3320 1.523 . S
C3320 C3304 1.368 . S
C3320 C3316 1.368 . S
C3320 C3319 1.523 . S
H3321 C3296 0.950 . S
H3322 C3298 0.950 . S
H3323 C3299 0.949 . S
H3324 C3301 0.950 . S
H3325 C3303 0.950 . S
C3326 C3327 1.349 . S
C3326 C3328 1.327 . S
C3326 H3351 0.950 . S
C3327 C3326 1.349 . S
C3327 C3343 1.349 . S
C3328 C3326 1.327 . S
C3328 C3347 1.429 . S
C3328 H3352 0.950 . S
C3329 C3346 1.574 . S
C3329 C3348 1.368 . S
C3329 H3353 0.949 . S
H3330 C3334 0.949 . S
C3331 C3332 1.349 . S
C3331 C3333 1.327 . S
C3331 H3354 0.950 . S
C3332 C3331 1.349 . S
C3332 C3344 1.349 . S
C3333 C3331 1.327 . S
C3333 C3349 1.429 . S
C3333 H3355 0.950 . S
C3334 H3330 0.949 . S
C3334 C3342 1.574 . S
C3334 C3350 1.368 . S
H3335 C3343 0.950 . S
H3336 C3341 0.950 . S
H3337 C3342 0.949 . S
H3338 C3344 0.950 . S
H3339 C3345 0.950 . S
H3340 C3346 0.949 . S
C3341 H3336 0.950 . S
C3341 C3343 1.327 . S
C3341 C3347 1.429 . S
C3342 C3334 1.574 . S
C3342 H3337 0.949 . S
C3342 C3348 1.368 . S
C3343 C3327 1.349 . S
C3343 H3335 0.950 . S
C3343 C3341 1.327 . S
C3344 C3332 1.349 . S
C3344 H3338 0.950 . S
C3344 C3345 1.327 . S
C3345 H3339 0.950 . S
C3345 C3344 1.327 . S
C3345 C3349 1.429 . S
C3346 C3329 1.574 . S
C3346 H3340 0.949 . S
C3346 C3350 1.368 . S
C3347 C3328 1.429 . S
C3347 C3341 1.429 . S
C3347 C3348 1.523 . S
C3348 C3329 1.368 . S
C3348 C3342 1.368 . S
C3348 C3347 1.523 . S
C3349 C3333 1.429 . S
C3349 C3345 1.429 . S
C3349 C3350 1.523 . S
C3350 C3334 1.368 . S
C3350 C3346 1.368 . S
C3350 C3349 1.523 . S
H3351 C3326 0.950 . S
H3352 C3328 0.950 . S
H3353 C3329 0.949 . S
H3354 C3331 0.950 . S
H3355 C3333 0.950 . S
C3356 C3357 1.349 . S
C3356 C3358 1.327 . S
C3356 H3381 0.950 . S
C3357 C3356 1.349 . S
C3357 C3373 1.349 . S
C3358 C3356 1.327 . S
C3358 C3377 1.429 . S
C3358 H3382 0.950 . S
C3359 C3376 1.574 . S
C3359 C3378 1.368 . S
C3359 H3383 0.949 . S
H3360 C3364 0.949 . S
C3361 C3362 1.349 . S
C3361 C3363 1.327 . S
C3361 H3384 0.950 . S
C3362 C3361 1.349 . S
C3362 C3374 1.349 . S
C3363 C3361 1.327 . S
C3363 C3379 1.429 . S
C3363 H3385 0.950 . S
C3364 H3360 0.949 . S
C3364 C3372 1.574 . S
C3364 C3380 1.368 . S
H3365 C3373 0.950 . S
H3366 C3371 0.950 . S
H3367 C3372 0.949 . S
H3368 C3374 0.950 . S
H3369 C3375 0.950 . S
H3370 C3376 0.949 . S
C3371 H3366 0.950 . S
C3371 C3373 1.327 . S
C3371 C3377 1.429 . S
C3372 C3364 1.574 . S
C3372 H3367 0.949 . S
C3372 C3378 1.368 . S
C3373 C3357 1.349 . S
C3373 H3365 0.950 . S
C3373 C3371 1.327 . S
C3374 C3362 1.349 . S
C3374 H3368 0.950 . S
C3374 C3375 1.327 . S
C3375 H3369 0.950 . S
C3375 C3374 1.327 . S
C3375 C3379 1.429 . S
C3376 C3359 1.574 . S
C3376 H3370 0.949 . S
C3376 C3380 1.368 . S
C3377 C3358 1.429 . S
C3377 C3371 1.429 . S
C3377 C3378 1.523 . S
C3378 C3359 1.368 . S
C3378 C3372 1.368 . S
C3378 C3377 1.523 . S
C3379 C3363 1.429 . S
C3379 C3375 1.429 . S
C3379 C3380 1.523 . S
C3380 C3364 1.368 . S
C3380 C3376 1.368 . S
C3380 C3379 1.523 . S
H3381 C3356 0.950 . S
H3382 C3358 0.950 . S
H3383 C3359 0.949 . S
H3384 C3361 0.950 . S
H3385 C3363 0.950 . S
C3386 C3387 1.349 . S
C3386 C3388 1.327 . S
C3386 H3411 0.950 . S
C3387 C3386 1.349 . S
C3387 C3403 1.349 . S
C3388 C3386 1.327 . S
C3388 C3407 1.429 . S
C3388 H3412 0.950 . S
C3389 C3406 1.574 . S
C3389 C3408 1.368 . S
C3389 H3413 0.949 . S
H3390 C3394 0.949 . S
C3391 C3392 1.349 . S
C3391 C3393 1.327 . S
C3391 H3414 0.950 . S
C3392 C3391 1.349 . S
C3392 C3404 1.349 . S
C3393 C3391 1.327 . S
C3393 C3409 1.429 . S
C3393 H3415 0.950 . S
C3394 H3390 0.949 . S
C3394 C3402 1.574 . S
C3394 C3410 1.368 . S
H3395 C3403 0.950 . S
H3396 C3401 0.950 . S
H3397 C3402 0.949 . S
H3398 C3404 0.950 . S
H3399 C3405 0.950 . S
H3400 C3406 0.949 . S
C3401 H3396 0.950 . S
C3401 C3403 1.327 . S
C3401 C3407 1.429 . S
C3402 C3394 1.574 . S
C3402 H3397 0.949 . S
C3402 C3408 1.368 . S
C3403 C3387 1.349 . S
C3403 H3395 0.950 . S
C3403 C3401 1.327 . S
C3404 C3392 1.349 . S
C3404 H3398 0.950 . S
C3404 C3405 1.327 . S
C3405 H3399 0.950 . S
C3405 C3404 1.327 . S
C3405 C3409 1.429 . S
C3406 C3389 1.574 . S
C3406 H3400 0.949 . S
C3406 C3410 1.368 . S
C3407 C3388 1.429 . S
C3407 C3401 1.429 . S
C3407 C3408 1.523 . S
C3408 C3389 1.368 . S
C3408 C3402 1.368 . S
C3408 C3407 1.523 . S
C3409 C3393 1.429 . S
C3409 C3405 1.429 . S
C3409 C3410 1.523 . S
C3410 C3394 1.368 . S
C3410 C3406 1.368 . S
C3410 C3409 1.523 . S
H3411 C3386 0.950 . S
H3412 C3388 0.950 . S
H3413 C3389 0.949 . S
H3414 C3391 0.950 . S
H3415 C3393 0.950 . S
C3416 C3417 1.349 . S
C3416 C3418 1.327 . S
C3416 H3441 0.950 . S
C3417 C3416 1.349 . S
C3417 C3433 1.349 . S
C3418 C3416 1.327 . S
C3418 C3437 1.429 . S
C3418 H3442 0.950 . S
C3419 C3436 1.574 . S
C3419 C3438 1.368 . S
C3419 H3443 0.949 . S
H3420 C3424 0.949 . S
C3421 C3422 1.349 . S
C3421 C3423 1.327 . S
C3421 H3444 0.950 . S
C3422 C3421 1.349 . S
C3422 C3434 1.349 . S
C3423 C3421 1.327 . S
C3423 C3439 1.429 . S
C3423 H3445 0.950 . S
C3424 H3420 0.949 . S
C3424 C3432 1.574 . S
C3424 C3440 1.368 . S
H3425 C3433 0.950 . S
H3426 C3431 0.950 . S
H3427 C3432 0.949 . S
H3428 C3434 0.950 . S
H3429 C3435 0.950 . S
H3430 C3436 0.949 . S
C3431 H3426 0.950 . S
C3431 C3433 1.327 . S
C3431 C3437 1.429 . S
C3432 C3424 1.574 . S
C3432 H3427 0.949 . S
C3432 C3438 1.368 . S
C3433 C3417 1.349 . S
C3433 H3425 0.950 . S
C3433 C3431 1.327 . S
C3434 C3422 1.349 . S
C3434 H3428 0.950 . S
C3434 C3435 1.327 . S
C3435 H3429 0.950 . S
C3435 C3434 1.327 . S
C3435 C3439 1.429 . S
C3436 C3419 1.574 . S
C3436 H3430 0.949 . S
C3436 C3440 1.368 . S
C3437 C3418 1.429 . S
C3437 C3431 1.429 . S
C3437 C3438 1.523 . S
C3438 C3419 1.368 . S
C3438 C3432 1.368 . S
C3438 C3437 1.523 . S
C3439 C3423 1.429 . S
C3439 C3435 1.429 . S
C3439 C3440 1.523 . S
C3440 C3424 1.368 . S
C3440 C3436 1.368 . S
C3440 C3439 1.523 . S
H3441 C3416 0.950 . S
H3442 C3418 0.950 . S
H3443 C3419 0.949 . S
H3444 C3421 0.950 . S
H3445 C3423 0.950 . S
C3446 C3447 1.349 . S
C3446 C3448 1.327 . S
C3446 H3471 0.950 . S
C3447 C3446 1.349 . S
C3447 C3463 1.349 . S
C3448 C3446 1.327 . S
C3448 C3467 1.429 . S
C3448 H3472 0.950 . S
C3449 C3466 1.574 . S
C3449 C3468 1.368 . S
C3449 H3473 0.949 . S
H3450 C3454 0.949 . S
C3451 C3452 1.349 . S
C3451 C3453 1.327 . S
C3451 H3474 0.950 . S
C3452 C3451 1.349 . S
C3452 C3464 1.349 . S
C3453 C3451 1.327 . S
C3453 C3469 1.429 . S
C3453 H3475 0.950 . S
C3454 H3450 0.949 . S
C3454 C3462 1.574 . S
C3454 C3470 1.368 . S
H3455 C3463 0.950 . S
H3456 C3461 0.950 . S
H3457 C3462 0.949 . S
H3458 C3464 0.950 . S
H3459 C3465 0.950 . S
H3460 C3466 0.949 . S
C3461 H3456 0.950 . S
C3461 C3463 1.327 . S
C3461 C3467 1.429 . S
C3462 C3454 1.574 . S
C3462 H3457 0.949 . S
C3462 C3468 1.368 . S
C3463 C3447 1.349 . S
C3463 H3455 0.950 . S
C3463 C3461 1.327 . S
C3464 C3452 1.349 . S
C3464 H3458 0.950 . S
C3464 C3465 1.327 . S
C3465 H3459 0.950 . S
C3465 C3464 1.327 . S
C3465 C3469 1.429 . S
C3466 C3449 1.574 . S
C3466 H3460 0.949 . S
C3466 C3470 1.368 . S
C3467 C3448 1.429 . S
C3467 C3461 1.429 . S
C3467 C3468 1.523 . S
C3468 C3449 1.368 . S
C3468 C3462 1.368 . S
C3468 C3467 1.523 . S
C3469 C3453 1.429 . S
C3469 C3465 1.429 . S
C3469 C3470 1.523 . S
C3470 C3454 1.368 . S
C3470 C3466 1.368 . S
C3470 C3469 1.523 . S
H3471 C3446 0.950 . S
H3472 C3448 0.950 . S
H3473 C3449 0.949 . S
H3474 C3451 0.950 . S
H3475 C3453 0.950 . S
C3476 C3477 1.349 . S
C3476 C3478 1.327 . S
C3476 H3501 0.950 . S
C3477 C3476 1.349 . S
C3477 C3493 1.349 . S
C3478 C3476 1.327 . S
C3478 C3497 1.429 . S
C3478 H3502 0.950 . S
C3479 C3496 1.574 . S
C3479 C3498 1.368 . S
C3479 H3503 0.949 . S
H3480 C3484 0.949 . S
C3481 C3482 1.349 . S
C3481 C3483 1.327 . S
C3481 H3504 0.950 . S
C3482 C3481 1.349 . S
C3482 C3494 1.349 . S
C3483 C3481 1.327 . S
C3483 C3499 1.429 . S
C3483 H3505 0.950 . S
C3484 H3480 0.949 . S
C3484 C3492 1.574 . S
C3484 C3500 1.368 . S
H3485 C3493 0.950 . S
H3486 C3491 0.950 . S
H3487 C3492 0.949 . S
H3488 C3494 0.950 . S
H3489 C3495 0.950 . S
H3490 C3496 0.949 . S
C3491 H3486 0.950 . S
C3491 C3493 1.327 . S
C3491 C3497 1.429 . S
C3492 C3484 1.574 . S
C3492 H3487 0.949 . S
C3492 C3498 1.368 . S
C3493 C3477 1.349 . S
C3493 H3485 0.950 . S
C3493 C3491 1.327 . S
C3494 C3482 1.349 . S
C3494 H3488 0.950 . S
C3494 C3495 1.327 . S
C3495 H3489 0.950 . S
C3495 C3494 1.327 . S
C3495 C3499 1.429 . S
C3496 C3479 1.574 . S
C3496 H3490 0.949 . S
C3496 C3500 1.368 . S
C3497 C3478 1.429 . S
C3497 C3491 1.429 . S
C3497 C3498 1.523 . S
C3498 C3479 1.368 . S
C3498 C3492 1.368 . S
C3498 C3497 1.523 . S
C3499 C3483 1.429 . S
C3499 C3495 1.429 . S
C3499 C3500 1.523 . S
C3500 C3484 1.368 . S
C3500 C3496 1.368 . S
C3500 C3499 1.523 . S
H3501 C3476 0.950 . S
H3502 C3478 0.950 . S
H3503 C3479 0.949 . S
H3504 C3481 0.950 . S
H3505 C3483 0.950 . S
C3506 C3507 1.349 . S
C3506 C3508 1.327 . S
C3506 H3531 0.950 . S
C3507 C3506 1.349 . S
C3507 C3523 1.349 . S
C3508 C3506 1.327 . S
C3508 C3527 1.429 . S
C3508 H3532 0.950 . S
C3509 C3526 1.574 . S
C3509 C3528 1.368 . S
C3509 H3533 0.949 . S
H3510 C3514 0.949 . S
C3511 C3512 1.349 . S
C3511 C3513 1.327 . S
C3511 H3534 0.950 . S
C3512 C3511 1.349 . S
C3512 C3524 1.349 . S
C3513 C3511 1.327 . S
C3513 C3529 1.429 . S
C3513 H3535 0.950 . S
C3514 H3510 0.949 . S
C3514 C3522 1.574 . S
C3514 C3530 1.368 . S
H3515 C3523 0.950 . S
H3516 C3521 0.950 . S
H3517 C3522 0.949 . S
H3518 C3524 0.950 . S
H3519 C3525 0.950 . S
H3520 C3526 0.949 . S
C3521 H3516 0.950 . S
C3521 C3523 1.327 . S
C3521 C3527 1.429 . S
C3522 C3514 1.574 . S
C3522 H3517 0.949 . S
C3522 C3528 1.368 . S
C3523 C3507 1.349 . S
C3523 H3515 0.950 . S
C3523 C3521 1.327 . S
C3524 C3512 1.349 . S
C3524 H3518 0.950 . S
C3524 C3525 1.327 . S
C3525 H3519 0.950 . S
C3525 C3524 1.327 . S
C3525 C3529 1.429 . S
C3526 C3509 1.574 . S
C3526 H3520 0.949 . S
C3526 C3530 1.368 . S
C3527 C3508 1.429 . S
C3527 C3521 1.429 . S
C3527 C3528 1.523 . S
C3528 C3509 1.368 . S
C3528 C3522 1.368 . S
C3528 C3527 1.523 . S
C3529 C3513 1.429 . S
C3529 C3525 1.429 . S
C3529 C3530 1.523 . S
C3530 C3514 1.368 . S
C3530 C3526 1.368 . S
C3530 C3529 1.523 . S
H3531 C3506 0.950 . S
H3532 C3508 0.950 . S
H3533 C3509 0.949 . S
H3534 C3511 0.950 . S
H3535 C3513 0.950 . S
C3536 C3537 1.349 . S
C3536 C3538 1.327 . S
C3536 H3561 0.950 . S
C3537 C3536 1.349 . S
C3537 C3553 1.349 . S
C3538 C3536 1.327 . S
C3538 C3557 1.429 . S
C3538 H3562 0.950 . S
C3539 C3556 1.574 . S
C3539 C3558 1.368 . S
C3539 H3563 0.949 . S
H3540 C3544 0.949 . S
C3541 C3542 1.349 . S
C3541 C3543 1.327 . S
C3541 H3564 0.950 . S
C3542 C3541 1.349 . S
C3542 C3554 1.349 . S
C3543 C3541 1.327 . S
C3543 C3559 1.429 . S
C3543 H3565 0.950 . S
C3544 H3540 0.949 . S
C3544 C3552 1.574 . S
C3544 C3560 1.368 . S
H3545 C3553 0.950 . S
H3546 C3551 0.950 . S
H3547 C3552 0.949 . S
H3548 C3554 0.950 . S
H3549 C3555 0.950 . S
H3550 C3556 0.949 . S
C3551 H3546 0.950 . S
C3551 C3553 1.327 . S
C3551 C3557 1.429 . S
C3552 C3544 1.574 . S
C3552 H3547 0.949 . S
C3552 C3558 1.368 . S
C3553 C3537 1.349 . S
C3553 H3545 0.950 . S
C3553 C3551 1.327 . S
C3554 C3542 1.349 . S
C3554 H3548 0.950 . S
C3554 C3555 1.327 . S
C3555 H3549 0.950 . S
C3555 C3554 1.327 . S
C3555 C3559 1.429 . S
C3556 C3539 1.574 . S
C3556 H3550 0.949 . S
C3556 C3560 1.368 . S
C3557 C3538 1.429 . S
C3557 C3551 1.429 . S
C3557 C3558 1.523 . S
C3558 C3539 1.368 . S
C3558 C3552 1.368 . S
C3558 C3557 1.523 . S
C3559 C3543 1.429 . S
C3559 C3555 1.429 . S
C3559 C3560 1.523 . S
C3560 C3544 1.368 . S
C3560 C3556 1.368 . S
C3560 C3559 1.523 . S
H3561 C3536 0.950 . S
H3562 C3538 0.950 . S
H3563 C3539 0.949 . S
H3564 C3541 0.950 . S
H3565 C3543 0.950 . S
C3566 C3567 1.349 . S
C3566 C3568 1.327 . S
C3566 H3591 0.950 . S
C3567 C3566 1.349 . S
C3567 C3583 1.349 . S
C3568 C3566 1.327 . S
C3568 C3587 1.429 . S
C3568 H3592 0.950 . S
C3569 C3586 1.574 . S
C3569 C3588 1.368 . S
C3569 H3593 0.949 . S
H3570 C3574 0.949 . S
C3571 C3572 1.349 . S
C3571 C3573 1.327 . S
C3571 H3594 0.950 . S
C3572 C3571 1.349 . S
C3572 C3584 1.349 . S
C3573 C3571 1.327 . S
C3573 C3589 1.429 . S
C3573 H3595 0.950 . S
C3574 H3570 0.949 . S
C3574 C3582 1.574 . S
C3574 C3590 1.368 . S
H3575 C3583 0.950 . S
H3576 C3581 0.950 . S
H3577 C3582 0.949 . S
H3578 C3584 0.950 . S
H3579 C3585 0.950 . S
H3580 C3586 0.949 . S
C3581 H3576 0.950 . S
C3581 C3583 1.327 . S
C3581 C3587 1.429 . S
C3582 C3574 1.574 . S
C3582 H3577 0.949 . S
C3582 C3588 1.368 . S
C3583 C3567 1.349 . S
C3583 H3575 0.950 . S
C3583 C3581 1.327 . S
C3584 C3572 1.349 . S
C3584 H3578 0.950 . S
C3584 C3585 1.327 . S
C3585 H3579 0.950 . S
C3585 C3584 1.327 . S
C3585 C3589 1.429 . S
C3586 C3569 1.574 . S
C3586 H3580 0.949 . S
C3586 C3590 1.368 . S
C3587 C3568 1.429 . S
C3587 C3581 1.429 . S
C3587 C3588 1.523 . S
C3588 C3569 1.368 . S
C3588 C3582 1.368 . S
C3588 C3587 1.523 . S
C3589 C3573 1.429 . S
C3589 C3585 1.429 . S
C3589 C3590 1.523 . S
C3590 C3574 1.368 . S
C3590 C3586 1.368 . S
C3590 C3589 1.523 . S
H3591 C3566 0.950 . S
H3592 C3568 0.950 . S
H3593 C3569 0.949 . S
H3594 C3571 0.950 . S
H3595 C3573 0.950 . S
C3596 C3597 1.349 . S
C3596 C3598 1.327 . S
C3596 H3621 0.950 . S
C3597 C3596 1.349 . S
C3597 C3613 1.349 . S
C3598 C3596 1.327 . S
C3598 C3617 1.429 . S
C3598 H3622 0.950 . S
C3599 C3616 1.574 . S
C3599 C3618 1.368 . S
C3599 H3623 0.949 . S
H3600 C3604 0.949 . S
C3601 C3602 1.349 . S
C3601 C3603 1.327 . S
C3601 H3624 0.950 . S
C3602 C3601 1.349 . S
C3602 C3614 1.349 . S
C3603 C3601 1.327 . S
C3603 C3619 1.429 . S
C3603 H3625 0.950 . S
C3604 H3600 0.949 . S
C3604 C3612 1.574 . S
C3604 C3620 1.368 . S
H3605 C3613 0.950 . S
H3606 C3611 0.950 . S
H3607 C3612 0.949 . S
H3608 C3614 0.950 . S
H3609 C3615 0.950 . S
H3610 C3616 0.949 . S
C3611 H3606 0.950 . S
C3611 C3613 1.327 . S
C3611 C3617 1.429 . S
C3612 C3604 1.574 . S
C3612 H3607 0.949 . S
C3612 C3618 1.368 . S
C3613 C3597 1.349 . S
C3613 H3605 0.950 . S
C3613 C3611 1.327 . S
C3614 C3602 1.349 . S
C3614 H3608 0.950 . S
C3614 C3615 1.327 . S
C3615 H3609 0.950 . S
C3615 C3614 1.327 . S
C3615 C3619 1.429 . S
C3616 C3599 1.574 . S
C3616 H3610 0.949 . S
C3616 C3620 1.368 . S
C3617 C3598 1.429 . S
C3617 C3611 1.429 . S
C3617 C3618 1.523 . S
C3618 C3599 1.368 . S
C3618 C3612 1.368 . S
C3618 C3617 1.523 . S
C3619 C3603 1.429 . S
C3619 C3615 1.429 . S
C3619 C3620 1.523 . S
C3620 C3604 1.368 . S
C3620 C3616 1.368 . S
C3620 C3619 1.523 . S
H3621 C3596 0.950 . S
H3622 C3598 0.950 . S
H3623 C3599 0.949 . S
H3624 C3601 0.950 . S
H3625 C3603 0.950 . S
C3626 C3627 1.349 . S
C3626 C3628 1.327 . S
C3626 H3651 0.950 . S
C3627 C3626 1.349 . S
C3627 C3643 1.349 . S
C3628 C3626 1.327 . S
C3628 C3647 1.429 . S
C3628 H3652 0.950 . S
C3629 C3646 1.574 . S
C3629 C3648 1.368 . S
C3629 H3653 0.949 . S
H3630 C3634 0.949 . S
C3631 C3632 1.349 . S
C3631 C3633 1.327 . S
C3631 H3654 0.950 . S
C3632 C3631 1.349 . S
C3632 C3644 1.349 . S
C3633 C3631 1.327 . S
C3633 C3649 1.429 . S
C3633 H3655 0.950 . S
C3634 H3630 0.949 . S
C3634 C3642 1.574 . S
C3634 C3650 1.368 . S
H3635 C3643 0.950 . S
H3636 C3641 0.950 . S
H3637 C3642 0.949 . S
H3638 C3644 0.950 . S
H3639 C3645 0.950 . S
H3640 C3646 0.949 . S
C3641 H3636 0.950 . S
C3641 C3643 1.327 . S
C3641 C3647 1.429 . S
C3642 C3634 1.574 . S
C3642 H3637 0.949 . S
C3642 C3648 1.368 . S
C3643 C3627 1.349 . S
C3643 H3635 0.950 . S
C3643 C3641 1.327 . S
C3644 C3632 1.349 . S
C3644 H3638 0.950 . S
C3644 C3645 1.327 . S
C3645 H3639 0.950 . S
C3645 C3644 1.327 . S
C3645 C3649 1.429 . S
C3646 C3629 1.574 . S
C3646 H3640 0.949 . S
C3646 C3650 1.368 . S
C3647 C3628 1.429 . S
C3647 C3641 1.429 . S
C3647 C3648 1.523 . S
C3648 C3629 1.368 . S
C3648 C3642 1.368 . S
C3648 C3647 1.523 . S
C3649 C3633 1.429 . S
C3649 C3645 1.429 . S
C3649 C3650 1.523 . S
C3650 C3634 1.368 . S
C3650 C3646 1.368 . S
C3650 C3649 1.523 . S
H3651 C3626 0.950 . S
H3652 C3628 0.950 . S
H3653 C3629 0.949 . S
H3654 C3631 0.950 . S
H3655 C3633 0.950 . S
C3656 C3657 1.349 . S
C3656 C3658 1.327 . S
C3656 H3681 0.950 . S
C3657 C3656 1.349 . S
C3657 C3673 1.349 . S
C3658 C3656 1.327 . S
C3658 C3677 1.429 . S
C3658 H3682 0.950 . S
C3659 C3676 1.574 . S
C3659 C3678 1.368 . S
C3659 H3683 0.949 . S
H3660 C3664 0.949 . S
C3661 C3662 1.349 . S
C3661 C3663 1.327 . S
C3661 H3684 0.950 . S
C3662 C3661 1.349 . S
C3662 C3674 1.349 . S
C3663 C3661 1.327 . S
C3663 C3679 1.429 . S
C3663 H3685 0.950 . S
C3664 H3660 0.949 . S
C3664 C3672 1.574 . S
C3664 C3680 1.368 . S
H3665 C3673 0.950 . S
H3666 C3671 0.950 . S
H3667 C3672 0.949 . S
H3668 C3674 0.950 . S
H3669 C3675 0.950 . S
H3670 C3676 0.949 . S
C3671 H3666 0.950 . S
C3671 C3673 1.327 . S
C3671 C3677 1.429 . S
C3672 C3664 1.574 . S
C3672 H3667 0.949 . S
C3672 C3678 1.368 . S
C3673 C3657 1.349 . S
C3673 H3665 0.950 . S
C3673 C3671 1.327 . S
C3674 C3662 1.349 . S
C3674 H3668 0.950 . S
C3674 C3675 1.327 . S
C3675 H3669 0.950 . S
C3675 C3674 1.327 . S
C3675 C3679 1.429 . S
C3676 C3659 1.574 . S
C3676 H3670 0.949 . S
C3676 C3680 1.368 . S
C3677 C3658 1.429 . S
C3677 C3671 1.429 . S
C3677 C3678 1.523 . S
C3678 C3659 1.368 . S
C3678 C3672 1.368 . S
C3678 C3677 1.523 . S
C3679 C3663 1.429 . S
C3679 C3675 1.429 . S
C3679 C3680 1.523 . S
C3680 C3664 1.368 . S
C3680 C3676 1.368 . S
C3680 C3679 1.523 . S
H3681 C3656 0.950 . S
H3682 C3658 0.950 . S
H3683 C3659 0.949 . S
H3684 C3661 0.950 . S
H3685 C3663 0.950 . S
C3686 C3687 1.349 . S
C3686 C3688 1.327 . S
C3686 H3711 0.950 . S
C3687 C3686 1.349 . S
C3687 C3703 1.349 . S
C3688 C3686 1.327 . S
C3688 C3707 1.429 . S
C3688 H3712 0.950 . S
C3689 C3706 1.574 . S
C3689 C3708 1.368 . S
C3689 H3713 0.949 . S
H3690 C3694 0.949 . S
C3691 C3692 1.349 . S
C3691 C3693 1.327 . S
C3691 H3714 0.950 . S
C3692 C3691 1.349 . S
C3692 C3704 1.349 . S
C3693 C3691 1.327 . S
C3693 C3709 1.429 . S
C3693 H3715 0.950 . S
C3694 H3690 0.949 . S
C3694 C3702 1.574 . S
C3694 C3710 1.368 . S
H3695 C3703 0.950 . S
H3696 C3701 0.950 . S
H3697 C3702 0.949 . S
H3698 C3704 0.950 . S
H3699 C3705 0.950 . S
H3700 C3706 0.949 . S
C3701 H3696 0.950 . S
C3701 C3703 1.327 . S
C3701 C3707 1.429 . S
C3702 C3694 1.574 . S
C3702 H3697 0.949 . S
C3702 C3708 1.368 . S
C3703 C3687 1.349 . S
C3703 H3695 0.950 . S
C3703 C3701 1.327 . S
C3704 C3692 1.349 . S
C3704 H3698 0.950 . S
C3704 C3705 1.327 . S
C3705 H3699 0.950 . S
C3705 C3704 1.327 . S
C3705 C3709 1.429 . S
C3706 C3689 1.574 . S
C3706 H3700 0.949 . S
C3706 C3710 1.368 . S
C3707 C3688 1.429 . S
C3707 C3701 1.429 . S
C3707 C3708 1.523 . S
C3708 C3689 1.368 . S
C3708 C3702 1.368 . S
C3708 C3707 1.523 . S
C3709 C3693 1.429 . S
C3709 C3705 1.429 . S
C3709 C3710 1.523 . S
C3710 C3694 1.368 . S
C3710 C3706 1.368 . S
C3710 C3709 1.523 . S
H3711 C3686 0.950 . S
H3712 C3688 0.950 . S
H3713 C3689 0.949 . S
H3714 C3691 0.950 . S
H3715 C3693 0.950 . S
C3716 C3717 1.349 . S
C3716 C3718 1.327 . S
C3716 H3741 0.950 . S
C3717 C3716 1.349 . S
C3717 C3733 1.349 . S
C3718 C3716 1.327 . S
C3718 C3737 1.429 . S
C3718 H3742 0.950 . S
C3719 C3736 1.574 . S
C3719 C3738 1.368 . S
C3719 H3743 0.949 . S
H3720 C3724 0.949 . S
C3721 C3722 1.349 . S
C3721 C3723 1.327 . S
C3721 H3744 0.950 . S
C3722 C3721 1.349 . S
C3722 C3734 1.349 . S
C3723 C3721 1.327 . S
C3723 C3739 1.429 . S
C3723 H3745 0.950 . S
C3724 H3720 0.949 . S
C3724 C3732 1.574 . S
C3724 C3740 1.368 . S
H3725 C3733 0.950 . S
H3726 C3731 0.950 . S
H3727 C3732 0.949 . S
H3728 C3734 0.950 . S
H3729 C3735 0.950 . S
H3730 C3736 0.949 . S
C3731 H3726 0.950 . S
C3731 C3733 1.327 . S
C3731 C3737 1.429 . S
C3732 C3724 1.574 . S
C3732 H3727 0.949 . S
C3732 C3738 1.368 . S
C3733 C3717 1.349 . S
C3733 H3725 0.950 . S
C3733 C3731 1.327 . S
C3734 C3722 1.349 . S
C3734 H3728 0.950 . S
C3734 C3735 1.327 . S
C3735 H3729 0.950 . S
C3735 C3734 1.327 . S
C3735 C3739 1.429 . S
C3736 C3719 1.574 . S
C3736 H3730 0.949 . S
C3736 C3740 1.368 . S
C3737 C3718 1.429 . S
C3737 C3731 1.429 . S
C3737 C3738 1.523 . S
C3738 C3719 1.368 . S
C3738 C3732 1.368 . S
C3738 C3737 1.523 . S
C3739 C3723 1.429 . S
C3739 C3735 1.429 . S
C3739 C3740 1.523 . S
C3740 C3724 1.368 . S
C3740 C3736 1.368 . S
C3740 C3739 1.523 . S
H3741 C3716 0.950 . S
H3742 C3718 0.950 . S
H3743 C3719 0.949 . S
H3744 C3721 0.950 . S
H3745 C3723 0.950 . S
C3746 C3747 1.349 . S
C3746 C3748 1.327 . S
C3746 H3771 0.950 . S
C3747 C3746 1.349 . S
C3747 C3763 1.349 . S
C3748 C3746 1.327 . S
C3748 C3767 1.429 . S
C3748 H3772 0.950 . S
C3749 C3766 1.574 . S
C3749 C3768 1.368 . S
C3749 H3773 0.949 . S
H3750 C3754 0.949 . S
C3751 C3752 1.349 . S
C3751 C3753 1.327 . S
C3751 H3774 0.950 . S
C3752 C3751 1.349 . S
C3752 C3764 1.349 . S
C3753 C3751 1.327 . S
C3753 C3769 1.429 . S
C3753 H3775 0.950 . S
C3754 H3750 0.949 . S
C3754 C3762 1.574 . S
C3754 C3770 1.368 . S
H3755 C3763 0.950 . S
H3756 C3761 0.950 . S
H3757 C3762 0.949 . S
H3758 C3764 0.950 . S
H3759 C3765 0.950 . S
H3760 C3766 0.949 . S
C3761 H3756 0.950 . S
C3761 C3763 1.327 . S
C3761 C3767 1.429 . S
C3762 C3754 1.574 . S
C3762 H3757 0.949 . S
C3762 C3768 1.368 . S
C3763 C3747 1.349 . S
C3763 H3755 0.950 . S
C3763 C3761 1.327 . S
C3764 C3752 1.349 . S
C3764 H3758 0.950 . S
C3764 C3765 1.327 . S
C3765 H3759 0.950 . S
C3765 C3764 1.327 . S
C3765 C3769 1.429 . S
C3766 C3749 1.574 . S
C3766 H3760 0.949 . S
C3766 C3770 1.368 . S
C3767 C3748 1.429 . S
C3767 C3761 1.429 . S
C3767 C3768 1.523 . S
C3768 C3749 1.368 . S
C3768 C3762 1.368 . S
C3768 C3767 1.523 . S
C3769 C3753 1.429 . S
C3769 C3765 1.429 . S
C3769 C3770 1.523 . S
C3770 C3754 1.368 . S
C3770 C3766 1.368 . S
C3770 C3769 1.523 . S
H3771 C3746 0.950 . S
H3772 C3748 0.950 . S
H3773 C3749 0.949 . S
H3774 C3751 0.950 . S
H3775 C3753 0.950 . S
C3776 C3777 1.349 . S
C3776 C3778 1.327 . S
C3776 H3801 0.950 . S
C3777 C3776 1.349 . S
C3777 C3793 1.349 . S
C3778 C3776 1.327 . S
C3778 C3797 1.429 . S
C3778 H3802 0.950 . S
C3779 C3796 1.574 . S
C3779 C3798 1.368 . S
C3779 H3803 0.949 . S
H3780 C3784 0.949 . S
C3781 C3782 1.349 . S
C3781 C3783 1.327 . S
C3781 H3804 0.950 . S
C3782 C3781 1.349 . S
C3782 C3794 1.349 . S
C3783 C3781 1.327 . S
C3783 C3799 1.429 . S
C3783 H3805 0.950 . S
C3784 H3780 0.949 . S
C3784 C3792 1.574 . S
C3784 C3800 1.368 . S
H3785 C3793 0.950 . S
H3786 C3791 0.950 . S
H3787 C3792 0.949 . S
H3788 C3794 0.950 . S
H3789 C3795 0.950 . S
H3790 C3796 0.949 . S
C3791 H3786 0.950 . S
C3791 C3793 1.327 . S
C3791 C3797 1.429 . S
C3792 C3784 1.574 . S
C3792 H3787 0.949 . S
C3792 C3798 1.368 . S
C3793 C3777 1.349 . S
C3793 H3785 0.950 . S
C3793 C3791 1.327 . S
C3794 C3782 1.349 . S
C3794 H3788 0.950 . S
C3794 C3795 1.327 . S
C3795 H3789 0.950 . S
C3795 C3794 1.327 . S
C3795 C3799 1.429 . S
C3796 C3779 1.574 . S
C3796 H3790 0.949 . S
C3796 C3800 1.368 . S
C3797 C3778 1.429 . S
C3797 C3791 1.429 . S
C3797 C3798 1.523 . S
C3798 C3779 1.368 . S
C3798 C3792 1.368 . S
C3798 C3797 1.523 . S
C3799 C3783 1.429 . S
C3799 C3795 1.429 . S
C3799 C3800 1.523 . S
C3800 C3784 1.368 . S
C3800 C3796 1.368 . S
C3800 C3799 1.523 . S
H3801 C3776 0.950 . S
H3802 C3778 0.950 . S
H3803 C3779 0.949 . S
H3804 C3781 0.950 . S
H3805 C3783 0.950 . S
C3806 C3807 1.349 . S
C3806 C3808 1.327 . S
C3806 H3831 0.950 . S
C3807 C3806 1.349 . S
C3807 C3823 1.349 . S
C3808 C3806 1.327 . S
C3808 C3827 1.429 . S
C3808 H3832 0.950 . S
C3809 C3826 1.574 . S
C3809 C3828 1.368 . S
C3809 H3833 0.949 . S
H3810 C3814 0.949 . S
C3811 C3812 1.349 . S
C3811 C3813 1.327 . S
C3811 H3834 0.950 . S
C3812 C3811 1.349 . S
C3812 C3824 1.349 . S
C3813 C3811 1.327 . S
C3813 C3829 1.429 . S
C3813 H3835 0.950 . S
C3814 H3810 0.949 . S
C3814 C3822 1.574 . S
C3814 C3830 1.368 . S
H3815 C3823 0.950 . S
H3816 C3821 0.950 . S
H3817 C3822 0.949 . S
H3818 C3824 0.950 . S
H3819 C3825 0.950 . S
H3820 C3826 0.949 . S
C3821 H3816 0.950 . S
C3821 C3823 1.327 . S
C3821 C3827 1.429 . S
C3822 C3814 1.574 . S
C3822 H3817 0.949 . S
C3822 C3828 1.368 . S
C3823 C3807 1.349 . S
C3823 H3815 0.950 . S
C3823 C3821 1.327 . S
C3824 C3812 1.349 . S
C3824 H3818 0.950 . S
C3824 C3825 1.327 . S
C3825 H3819 0.950 . S
C3825 C3824 1.327 . S
C3825 C3829 1.429 . S
C3826 C3809 1.574 . S
C3826 H3820 0.949 . S
C3826 C3830 1.368 . S
C3827 C3808 1.429 . S
C3827 C3821 1.429 . S
C3827 C3828 1.523 . S
C3828 C3809 1.368 . S
C3828 C3822 1.368 . S
C3828 C3827 1.523 . S
C3829 C3813 1.429 . S
C3829 C3825 1.429 . S
C3829 C3830 1.523 . S
C3830 C3814 1.368 . S
C3830 C3826 1.368 . S
C3830 C3829 1.523 . S
H3831 C3806 0.950 . S
H3832 C3808 0.950 . S
H3833 C3809 0.949 . S
H3834 C3811 0.950 . S
H3835 C3813 0.950 . S
C3836 C3837 1.349 . S
C3836 C3838 1.327 . S
C3836 H3861 0.950 . S
C3837 C3836 1.349 . S
C3837 C3853 1.349 . S
C3838 C3836 1.327 . S
C3838 C3857 1.429 . S
C3838 H3862 0.950 . S
C3839 C3856 1.574 . S
C3839 C3858 1.368 . S
C3839 H3863 0.949 . S
H3840 C3844 0.949 . S
C3841 C3842 1.349 . S
C3841 C3843 1.327 . S
C3841 H3864 0.950 . S
C3842 C3841 1.349 . S
C3842 C3854 1.349 . S
C3843 C3841 1.327 . S
C3843 C3859 1.429 . S
C3843 H3865 0.950 . S
C3844 H3840 0.949 . S
C3844 C3852 1.574 . S
C3844 C3860 1.368 . S
H3845 C3853 0.950 . S
H3846 C3851 0.950 . S
H3847 C3852 0.949 . S
H3848 C3854 0.950 . S
H3849 C3855 0.950 . S
H3850 C3856 0.949 . S
C3851 H3846 0.950 . S
C3851 C3853 1.327 . S
C3851 C3857 1.429 . S
C3852 C3844 1.574 . S
C3852 H3847 0.949 . S
C3852 C3858 1.368 . S
C3853 C3837 1.349 . S
C3853 H3845 0.950 . S
C3853 C3851 1.327 . S
C3854 C3842 1.349 . S
C3854 H3848 0.950 . S
C3854 C3855 1.327 . S
C3855 H3849 0.950 . S
C3855 C3854 1.327 . S
C3855 C3859 1.429 . S
C3856 C3839 1.574 . S
C3856 H3850 0.949 . S
C3856 C3860 1.368 . S
C3857 C3838 1.429 . S
C3857 C3851 1.429 . S
C3857 C3858 1.523 . S
C3858 C3839 1.368 . S
C3858 C3852 1.368 . S
C3858 C3857 1.523 . S
C3859 C3843 1.429 . S
C3859 C3855 1.429 . S
C3859 C3860 1.523 . S
C3860 C3844 1.368 . S
C3860 C3856 1.368 . S
C3860 C3859 1.523 . S
H3861 C3836 0.950 . S
H3862 C3838 0.950 . S
H3863 C3839 0.949 . S
H3864 C3841 0.950 . S
H3865 C3843 0.950 . S
C3866 C3867 1.349 . S
C3866 C3868 1.327 . S
C3866 H3891 0.950 . S
C3867 C3866 1.349 . S
C3867 C3883 1.349 . S
C3868 C3866 1.327 . S
C3868 C3887 1.429 . S
C3868 H3892 0.950 . S
C3869 C3886 1.574 . S
C3869 C3888 1.368 . S
C3869 H3893 0.949 . S
H3870 C3874 0.949 . S
C3871 C3872 1.349 . S
C3871 C3873 1.327 . S
C3871 H3894 0.950 . S
C3872 C3871 1.349 . S
C3872 C3884 1.349 . S
C3873 C3871 1.327 . S
C3873 C3889 1.429 . S
C3873 H3895 0.950 . S
C3874 H3870 0.949 . S
C3874 C3882 1.574 . S
C3874 C3890 1.368 . S
H3875 C3883 0.950 . S
H3876 C3881 0.950 . S
H3877 C3882 0.949 . S
H3878 C3884 0.950 . S
H3879 C3885 0.950 . S
H3880 C3886 0.949 . S
C3881 H3876 0.950 . S
C3881 C3883 1.327 . S
C3881 C3887 1.429 . S
C3882 C3874 1.574 . S
C3882 H3877 0.949 . S
C3882 C3888 1.368 . S
C3883 C3867 1.349 . S
C3883 H3875 0.950 . S
C3883 C3881 1.327 . S
C3884 C3872 1.349 . S
C3884 H3878 0.950 . S
C3884 C3885 1.327 . S
C3885 H3879 0.950 . S
C3885 C3884 1.327 . S
C3885 C3889 1.429 . S
C3886 C3869 1.574 . S
C3886 H3880 0.949 . S
C3886 C3890 1.368 . S
C3887 C3868 1.429 . S
C3887 C3881 1.429 . S
C3887 C3888 1.523 . S
C3888 C3869 1.368 . S
C3888 C3882 1.368 . S
C3888 C3887 1.523 . S
C3889 C3873 1.429 . S
C3889 C3885 1.429 . S
C3889 C3890 1.523 . S
C3890 C3874 1.368 . S
C3890 C3886 1.368 . S
C3890 C3889 1.523 . S
H3891 C3866 0.950 . S
H3892 C3868 0.950 . S
H3893 C3869 0.949 . S
H3894 C3871 0.950 . S
H3895 C3873 0.950 . S
C3896 C3897 1.349 . S
C3896 C3898 1.327 . S
C3896 H3921 0.950 . S
C3897 C3896 1.349 . S
C3897 C3913 1.349 . S
C3898 C3896 1.327 . S
C3898 C3917 1.429 . S
C3898 H3922 0.950 . S
C3899 C3916 1.574 . S
C3899 C3918 1.368 . S
C3899 H3923 0.949 . S
H3900 C3904 0.949 . S
C3901 C3902 1.349 . S
C3901 C3903 1.327 . S
C3901 H3924 0.950 . S
C3902 C3901 1.349 . S
C3902 C3914 1.349 . S
C3903 C3901 1.327 . S
C3903 C3919 1.429 . S
C3903 H3925 0.950 . S
C3904 H3900 0.949 . S
C3904 C3912 1.574 . S
C3904 C3920 1.368 . S
H3905 C3913 0.950 . S
H3906 C3911 0.950 . S
H3907 C3912 0.949 . S
H3908 C3914 0.950 . S
H3909 C3915 0.950 . S
H3910 C3916 0.949 . S
C3911 H3906 0.950 . S
C3911 C3913 1.327 . S
C3911 C3917 1.429 . S
C3912 C3904 1.574 . S
C3912 H3907 0.949 . S
C3912 C3918 1.368 . S
C3913 C3897 1.349 . S
C3913 H3905 0.950 . S
C3913 C3911 1.327 . S
C3914 C3902 1.349 . S
C3914 H3908 0.950 . S
C3914 C3915 1.327 . S
C3915 H3909 0.950 . S
C3915 C3914 1.327 . S
C3915 C3919 1.429 . S
C3916 C3899 1.574 . S
C3916 H3910 0.949 . S
C3916 C3920 1.368 . S
C3917 C3898 1.429 . S
C3917 C3911 1.429 . S
C3917 C3918 1.523 . S
C3918 C3899 1.368 . S
C3918 C3912 1.368 . S
C3918 C3917 1.523 . S
C3919 C3903 1.429 . S
C3919 C3915 1.429 . S
C3919 C3920 1.523 . S
C3920 C3904 1.368 . S
C3920 C3916 1.368 . S
C3920 C3919 1.523 . S
H3921 C3896 0.950 . S
H3922 C3898 0.950 . S
H3923 C3899 0.949 . S
H3924 C3901 0.950 . S
H3925 C3903 0.950 . S
C3926 C3927 1.349 . S
C3926 C3928 1.327 . S
C3926 H3951 0.950 . S
C3927 C3926 1.349 . S
C3927 C3943 1.349 . S
C3928 C3926 1.327 . S
C3928 C3947 1.429 . S
C3928 H3952 0.950 . S
C3929 C3946 1.574 . S
C3929 C3948 1.368 . S
C3929 H3953 0.949 . S
H3930 C3934 0.949 . S
C3931 C3932 1.349 . S
C3931 C3933 1.327 . S
C3931 H3954 0.950 . S
C3932 C3931 1.349 . S
C3932 C3944 1.349 . S
C3933 C3931 1.327 . S
C3933 C3949 1.429 . S
C3933 H3955 0.950 . S
C3934 H3930 0.949 . S
C3934 C3942 1.574 . S
C3934 C3950 1.368 . S
H3935 C3943 0.950 . S
H3936 C3941 0.950 . S
H3937 C3942 0.949 . S
H3938 C3944 0.950 . S
H3939 C3945 0.950 . S
H3940 C3946 0.949 . S
C3941 H3936 0.950 . S
C3941 C3943 1.327 . S
C3941 C3947 1.429 . S
C3942 C3934 1.574 . S
C3942 H3937 0.949 . S
C3942 C3948 1.368 . S
C3943 C3927 1.349 . S
C3943 H3935 0.950 . S
C3943 C3941 1.327 . S
C3944 C3932 1.349 . S
C3944 H3938 0.950 . S
C3944 C3945 1.327 . S
C3945 H3939 0.950 . S
C3945 C3944 1.327 . S
C3945 C3949 1.429 . S
C3946 C3929 1.574 . S
C3946 H3940 0.949 . S
C3946 C3950 1.368 . S
C3947 C3928 1.429 . S
C3947 C3941 1.429 . S
C3947 C3948 1.523 . S
C3948 C3929 1.368 . S
C3948 C3942 1.368 . S
C3948 C3947 1.523 . S
C3949 C3933 1.429 . S
C3949 C3945 1.429 . S
C3949 C3950 1.523 . S
C3950 C3934 1.368 . S
C3950 C3946 1.368 . S
C3950 C3949 1.523 . S
H3951 C3926 0.950 . S
H3952 C3928 0.950 . S
H3953 C3929 0.949 . S
H3954 C3931 0.950 . S
H3955 C3933 0.950 . S
C3956 C3957 1.349 . S
C3956 C3958 1.327 . S
C3956 H3981 0.950 . S
C3957 C3956 1.349 . S
C3957 C3973 1.349 . S
C3958 C3956 1.327 . S
C3958 C3977 1.429 . S
C3958 H3982 0.950 . S
C3959 C3976 1.574 . S
C3959 C3978 1.368 . S
C3959 H3983 0.949 . S
H3960 C3964 0.949 . S
C3961 C3962 1.349 . S
C3961 C3963 1.327 . S
C3961 H3984 0.950 . S
C3962 C3961 1.349 . S
C3962 C3974 1.349 . S
C3963 C3961 1.327 . S
C3963 C3979 1.429 . S
C3963 H3985 0.950 . S
C3964 H3960 0.949 . S
C3964 C3972 1.574 . S
C3964 C3980 1.368 . S
H3965 C3973 0.950 . S
H3966 C3971 0.950 . S
H3967 C3972 0.949 . S
H3968 C3974 0.950 . S
H3969 C3975 0.950 . S
H3970 C3976 0.949 . S
C3971 H3966 0.950 . S
C3971 C3973 1.327 . S
C3971 C3977 1.429 . S
C3972 C3964 1.574 . S
C3972 H3967 0.949 . S
C3972 C3978 1.368 . S
C3973 C3957 1.349 . S
C3973 H3965 0.950 . S
C3973 C3971 1.327 . S
C3974 C3962 1.349 . S
C3974 H3968 0.950 . S
C3974 C3975 1.327 . S
C3975 H3969 0.950 . S
C3975 C3974 1.327 . S
C3975 C3979 1.429 . S
C3976 C3959 1.574 . S
C3976 H3970 0.949 . S
C3976 C3980 1.368 . S
C3977 C3958 1.429 . S
C3977 C3971 1.429 . S
C3977 C3978 1.523 . S
C3978 C3959 1.368 . S
C3978 C3972 1.368 . S
C3978 C3977 1.523 . S
C3979 C3963 1.429 . S
C3979 C3975 1.429 . S
C3979 C3980 1.523 . S
C3980 C3964 1.368 . S
C3980 C3976 1.368 . S
C3980 C3979 1.523 . S
H3981 C3956 0.950 . S
H3982 C3958 0.950 . S
H3983 C3959 0.949 . S
H3984 C3961 0.950 . S
H3985 C3963 0.950 . S
C3986 C3987 1.349 . S
C3986 C3988 1.327 . S
C3986 H4011 0.950 . S
C3987 C3986 1.349 . S
C3987 C4003 1.349 . S
C3988 C3986 1.327 . S
C3988 C4007 1.429 . S
C3988 H4012 0.950 . S
C3989 C4006 1.574 . S
C3989 C4008 1.368 . S
C3989 H4013 0.949 . S
H3990 C3994 0.949 . S
C3991 C3992 1.349 . S
C3991 C3993 1.327 . S
C3991 H4014 0.950 . S
C3992 C3991 1.349 . S
C3992 C4004 1.349 . S
C3993 C3991 1.327 . S
C3993 C4009 1.429 . S
C3993 H4015 0.950 . S
C3994 H3990 0.949 . S
C3994 C4002 1.574 . S
C3994 C4010 1.368 . S
H3995 C4003 0.950 . S
H3996 C4001 0.950 . S
H3997 C4002 0.949 . S
H3998 C4004 0.950 . S
H3999 C4005 0.950 . S
H4000 C4006 0.949 . S
C4001 H3996 0.950 . S
C4001 C4003 1.327 . S
C4001 C4007 1.429 . S
C4002 C3994 1.574 . S
C4002 H3997 0.949 . S
C4002 C4008 1.368 . S
C4003 C3987 1.349 . S
C4003 H3995 0.950 . S
C4003 C4001 1.327 . S
C4004 C3992 1.349 . S
C4004 H3998 0.950 . S
C4004 C4005 1.327 . S
C4005 H3999 0.950 . S
C4005 C4004 1.327 . S
C4005 C4009 1.429 . S
C4006 C3989 1.574 . S
C4006 H4000 0.949 . S
C4006 C4010 1.368 . S
C4007 C3988 1.429 . S
C4007 C4001 1.429 . S
C4007 C4008 1.523 . S
C4008 C3989 1.368 . S
C4008 C4002 1.368 . S
C4008 C4007 1.523 . S
C4009 C3993 1.429 . S
C4009 C4005 1.429 . S
C4009 C4010 1.523 . S
C4010 C3994 1.368 . S
C4010 C4006 1.368 . S
C4010 C4009 1.523 . S
H4011 C3986 0.950 . S
H4012 C3988 0.950 . S
H4013 C3989 0.949 . S
H4014 C3991 0.950 . S
H4015 C3993 0.950 . S
C4016 C4017 1.349 . S
C4016 C4018 1.327 . S
C4016 H4041 0.950 . S
C4017 C4016 1.349 . S
C4017 C4033 1.349 . S
C4018 C4016 1.327 . S
C4018 C4037 1.429 . S
C4018 H4042 0.950 . S
C4019 C4036 1.574 . S
C4019 C4038 1.368 . S
C4019 H4043 0.949 . S
H4020 C4024 0.949 . S
C4021 C4022 1.349 . S
C4021 C4023 1.327 . S
C4021 H4044 0.950 . S
C4022 C4021 1.349 . S
C4022 C4034 1.349 . S
C4023 C4021 1.327 . S
C4023 C4039 1.429 . S
C4023 H4045 0.950 . S
C4024 H4020 0.949 . S
C4024 C4032 1.574 . S
C4024 C4040 1.368 . S
H4025 C4033 0.950 . S
H4026 C4031 0.950 . S
H4027 C4032 0.949 . S
H4028 C4034 0.950 . S
H4029 C4035 0.950 . S
H4030 C4036 0.949 . S
C4031 H4026 0.950 . S
C4031 C4033 1.327 . S
C4031 C4037 1.429 . S
C4032 C4024 1.574 . S
C4032 H4027 0.949 . S
C4032 C4038 1.368 . S
C4033 C4017 1.349 . S
C4033 H4025 0.950 . S
C4033 C4031 1.327 . S
C4034 C4022 1.349 . S
C4034 H4028 0.950 . S
C4034 C4035 1.327 . S
C4035 H4029 0.950 . S
C4035 C4034 1.327 . S
C4035 C4039 1.429 . S
C4036 C4019 1.574 . S
C4036 H4030 0.949 . S
C4036 C4040 1.368 . S
C4037 C4018 1.429 . S
C4037 C4031 1.429 . S
C4037 C4038 1.523 . S
C4038 C4019 1.368 . S
C4038 C4032 1.368 . S
C4038 C4037 1.523 . S
C4039 C4023 1.429 . S
C4039 C4035 1.429 . S
C4039 C4040 1.523 . S
C4040 C4024 1.368 . S
C4040 C4036 1.368 . S
C4040 C4039 1.523 . S
H4041 C4016 0.950 . S
H4042 C4018 0.950 . S
H4043 C4019 0.949 . S
H4044 C4021 0.950 . S
H4045 C4023 0.950 . S
C4046 C4047 1.349 . S
C4046 C4048 1.327 . S
C4046 H4071 0.950 . S
C4047 C4046 1.349 . S
C4047 C4063 1.349 . S
C4048 C4046 1.327 . S
C4048 C4067 1.429 . S
C4048 H4072 0.950 . S
C4049 C4066 1.574 . S
C4049 C4068 1.368 . S
C4049 H4073 0.949 . S
H4050 C4054 0.949 . S
C4051 C4052 1.349 . S
C4051 C4053 1.327 . S
C4051 H4074 0.950 . S
C4052 C4051 1.349 . S
C4052 C4064 1.349 . S
C4053 C4051 1.327 . S
C4053 C4069 1.429 . S
C4053 H4075 0.950 . S
C4054 H4050 0.949 . S
C4054 C4062 1.574 . S
C4054 C4070 1.368 . S
H4055 C4063 0.950 . S
H4056 C4061 0.950 . S
H4057 C4062 0.949 . S
H4058 C4064 0.950 . S
H4059 C4065 0.950 . S
H4060 C4066 0.949 . S
C4061 H4056 0.950 . S
C4061 C4063 1.327 . S
C4061 C4067 1.429 . S
C4062 C4054 1.574 . S
C4062 H4057 0.949 . S
C4062 C4068 1.368 . S
C4063 C4047 1.349 . S
C4063 H4055 0.950 . S
C4063 C4061 1.327 . S
C4064 C4052 1.349 . S
C4064 H4058 0.950 . S
C4064 C4065 1.327 . S
C4065 H4059 0.950 . S
C4065 C4064 1.327 . S
C4065 C4069 1.429 . S
C4066 C4049 1.574 . S
C4066 H4060 0.949 . S
C4066 C4070 1.368 . S
C4067 C4048 1.429 . S
C4067 C4061 1.429 . S
C4067 C4068 1.523 . S
C4068 C4049 1.368 . S
C4068 C4062 1.368 . S
C4068 C4067 1.523 . S
C4069 C4053 1.429 . S
C4069 C4065 1.429 . S
C4069 C4070 1.523 . S
C4070 C4054 1.368 . S
C4070 C4066 1.368 . S
C4070 C4069 1.523 . S
H4071 C4046 0.950 . S
H4072 C4048 0.950 . S
H4073 C4049 0.949 . S
H4074 C4051 0.950 . S
H4075 C4053 0.950 . S
C4076 C4077 1.349 . S
C4076 C4078 1.327 . S
C4076 H4101 0.950 . S
C4077 C4076 1.349 . S
C4077 C4093 1.349 . S
C4078 C4076 1.327 . S
C4078 C4097 1.429 . S
C4078 H4102 0.950 . S
C4079 C4096 1.574 . S
C4079 C4098 1.368 . S
C4079 H4103 0.949 . S
H4080 C4084 0.949 . S
C4081 C4082 1.349 . S
C4081 C4083 1.327 . S
C4081 H4104 0.950 . S
C4082 C4081 1.349 . S
C4082 C4094 1.349 . S
C4083 C4081 1.327 . S
C4083 C4099 1.429 . S
C4083 H4105 0.950 . S
C4084 H4080 0.949 . S
C4084 C4092 1.574 . S
C4084 C4100 1.368 . S
H4085 C4093 0.950 . S
H4086 C4091 0.950 . S
H4087 C4092 0.949 . S
H4088 C4094 0.950 . S
H4089 C4095 0.950 . S
H4090 C4096 0.949 . S
C4091 H4086 0.950 . S
C4091 C4093 1.327 . S
C4091 C4097 1.429 . S
C4092 C4084 1.574 . S
C4092 H4087 0.949 . S
C4092 C4098 1.368 . S
C4093 C4077 1.349 . S
C4093 H4085 0.950 . S
C4093 C4091 1.327 . S
C4094 C4082 1.349 . S
C4094 H4088 0.950 . S
C4094 C4095 1.327 . S
C4095 H4089 0.950 . S
C4095 C4094 1.327 . S
C4095 C4099 1.429 . S
C4096 C4079 1.574 . S
C4096 H4090 0.949 . S
C4096 C4100 1.368 . S
C4097 C4078 1.429 . S
C4097 C4091 1.429 . S
C4097 C4098 1.523 . S
C4098 C4079 1.368 . S
C4098 C4092 1.368 . S
C4098 C4097 1.523 . S
C4099 C4083 1.429 . S
C4099 C4095 1.429 . S
C4099 C4100 1.523 . S
C4100 C4084 1.368 . S
C4100 C4096 1.368 . S
C4100 C4099 1.523 . S
H4101 C4076 0.950 . S
H4102 C4078 0.950 . S
H4103 C4079 0.949 . S
H4104 C4081 0.950 . S
H4105 C4083 0.950 . S
C4106 C4107 1.349 . S
C4106 C4108 1.327 . S
C4106 H4131 0.950 . S
C4107 C4106 1.349 . S
C4107 C4123 1.349 . S
C4108 C4106 1.327 . S
C4108 C4127 1.429 . S
C4108 H4132 0.950 . S
C4109 C4126 1.574 . S
C4109 C4128 1.368 . S
C4109 H4133 0.949 . S
H4110 C4114 0.949 . S
C4111 C4112 1.349 . S
C4111 C4113 1.327 . S
C4111 H4134 0.950 . S
C4112 C4111 1.349 . S
C4112 C4124 1.349 . S
C4113 C4111 1.327 . S
C4113 C4129 1.429 . S
C4113 H4135 0.950 . S
C4114 H4110 0.949 . S
C4114 C4122 1.574 . S
C4114 C4130 1.368 . S
H4115 C4123 0.950 . S
H4116 C4121 0.950 . S
H4117 C4122 0.949 . S
H4118 C4124 0.950 . S
H4119 C4125 0.950 . S
H4120 C4126 0.949 . S
C4121 H4116 0.950 . S
C4121 C4123 1.327 . S
C4121 C4127 1.429 . S
C4122 C4114 1.574 . S
C4122 H4117 0.949 . S
C4122 C4128 1.368 . S
C4123 C4107 1.349 . S
C4123 H4115 0.950 . S
C4123 C4121 1.327 . S
C4124 C4112 1.349 . S
C4124 H4118 0.950 . S
C4124 C4125 1.327 . S
C4125 H4119 0.950 . S
C4125 C4124 1.327 . S
C4125 C4129 1.429 . S
C4126 C4109 1.574 . S
C4126 H4120 0.949 . S
C4126 C4130 1.368 . S
C4127 C4108 1.429 . S
C4127 C4121 1.429 . S
C4127 C4128 1.523 . S
C4128 C4109 1.368 . S
C4128 C4122 1.368 . S
C4128 C4127 1.523 . S
C4129 C4113 1.429 . S
C4129 C4125 1.429 . S
C4129 C4130 1.523 . S
C4130 C4114 1.368 . S
C4130 C4126 1.368 . S
C4130 C4129 1.523 . S
H4131 C4106 0.950 . S
H4132 C4108 0.950 . S
H4133 C4109 0.949 . S
H4134 C4111 0.950 . S
H4135 C4113 0.950 . S
C4136 C4137 1.349 . S
C4136 C4138 1.327 . S
C4136 H4161 0.950 . S
C4137 C4136 1.349 . S
C4137 C4153 1.349 . S
C4138 C4136 1.327 . S
C4138 C4157 1.429 . S
C4138 H4162 0.950 . S
C4139 C4156 1.574 . S
C4139 C4158 1.368 . S
C4139 H4163 0.949 . S
H4140 C4144 0.949 . S
C4141 C4142 1.349 . S
C4141 C4143 1.327 . S
C4141 H4164 0.950 . S
C4142 C4141 1.349 . S
C4142 C4154 1.349 . S
C4143 C4141 1.327 . S
C4143 C4159 1.429 . S
C4143 H4165 0.950 . S
C4144 H4140 0.949 . S
C4144 C4152 1.574 . S
C4144 C4160 1.368 . S
H4145 C4153 0.950 . S
H4146 C4151 0.950 . S
H4147 C4152 0.949 . S
H4148 C4154 0.950 . S
H4149 C4155 0.950 . S
H4150 C4156 0.949 . S
C4151 H4146 0.950 . S
C4151 C4153 1.327 . S
C4151 C4157 1.429 . S
C4152 C4144 1.574 . S
C4152 H4147 0.949 . S
C4152 C4158 1.368 . S
C4153 C4137 1.349 . S
C4153 H4145 0.950 . S
C4153 C4151 1.327 . S
C4154 C4142 1.349 . S
C4154 H4148 0.950 . S
C4154 C4155 1.327 . S
C4155 H4149 0.950 . S
C4155 C4154 1.327 . S
C4155 C4159 1.429 . S
C4156 C4139 1.574 . S
C4156 H4150 0.949 . S
C4156 C4160 1.368 . S
C4157 C4138 1.429 . S
C4157 C4151 1.429 . S
C4157 C4158 1.523 . S
C4158 C4139 1.368 . S
C4158 C4152 1.368 . S
C4158 C4157 1.523 . S
C4159 C4143 1.429 . S
C4159 C4155 1.429 . S
C4159 C4160 1.523 . S
C4160 C4144 1.368 . S
C4160 C4156 1.368 . S
C4160 C4159 1.523 . S
H4161 C4136 0.950 . S
H4162 C4138 0.950 . S
H4163 C4139 0.949 . S
H4164 C4141 0.950 . S
H4165 C4143 0.950 . S
C4166 C4167 1.349 . S
C4166 C4168 1.327 . S
C4166 H4191 0.950 . S
C4167 C4166 1.349 . S
C4167 C4183 1.349 . S
C4168 C4166 1.327 . S
C4168 C4187 1.429 . S
C4168 H4192 0.950 . S
C4169 C4186 1.574 . S
C4169 C4188 1.368 . S
C4169 H4193 0.949 . S
H4170 C4174 0.949 . S
C4171 C4172 1.349 . S
C4171 C4173 1.327 . S
C4171 H4194 0.950 . S
C4172 C4171 1.349 . S
C4172 C4184 1.349 . S
C4173 C4171 1.327 . S
C4173 C4189 1.429 . S
C4173 H4195 0.950 . S
C4174 H4170 0.949 . S
C4174 C4182 1.574 . S
C4174 C4190 1.368 . S
H4175 C4183 0.950 . S
H4176 C4181 0.950 . S
H4177 C4182 0.949 . S
H4178 C4184 0.950 . S
H4179 C4185 0.950 . S
H4180 C4186 0.949 . S
C4181 H4176 0.950 . S
C4181 C4183 1.327 . S
C4181 C4187 1.429 . S
C4182 C4174 1.574 . S
C4182 H4177 0.949 . S
C4182 C4188 1.368 . S
C4183 C4167 1.349 . S
C4183 H4175 0.950 . S
C4183 C4181 1.327 . S
C4184 C4172 1.349 . S
C4184 H4178 0.950 . S
C4184 C4185 1.327 . S
C4185 H4179 0.950 . S
C4185 C4184 1.327 . S
C4185 C4189 1.429 . S
C4186 C4169 1.574 . S
C4186 H4180 0.949 . S
C4186 C4190 1.368 . S
C4187 C4168 1.429 . S
C4187 C4181 1.429 . S
C4187 C4188 1.523 . S
C4188 C4169 1.368 . S
C4188 C4182 1.368 . S
C4188 C4187 1.523 . S
C4189 C4173 1.429 . S
C4189 C4185 1.429 . S
C4189 C4190 1.523 . S
C4190 C4174 1.368 . S
C4190 C4186 1.368 . S
C4190 C4189 1.523 . S
H4191 C4166 0.950 . S
H4192 C4168 0.950 . S
H4193 C4169 0.949 . S
H4194 C4171 0.950 . S
H4195 C4173 0.950 . S
C4196 C4197 1.349 . S
C4196 C4198 1.327 . S
C4196 H4221 0.950 . S
C4197 C4196 1.349 . S
C4197 C4213 1.349 . S
C4198 C4196 1.327 . S
C4198 C4217 1.429 . S
C4198 H4222 0.950 . S
C4199 C4216 1.574 . S
C4199 C4218 1.368 . S
C4199 H4223 0.949 . S
H4200 C4204 0.949 . S
C4201 C4202 1.349 . S
C4201 C4203 1.327 . S
C4201 H4224 0.950 . S
C4202 C4201 1.349 . S
C4202 C4214 1.349 . S
C4203 C4201 1.327 . S
C4203 C4219 1.429 . S
C4203 H4225 0.950 . S
C4204 H4200 0.949 . S
C4204 C4212 1.574 . S
C4204 C4220 1.368 . S
H4205 C4213 0.950 . S
H4206 C4211 0.950 . S
H4207 C4212 0.949 . S
H4208 C4214 0.950 . S
H4209 C4215 0.950 . S
H4210 C4216 0.949 . S
C4211 H4206 0.950 . S
C4211 C4213 1.327 . S
C4211 C4217 1.429 . S
C4212 C4204 1.574 . S
C4212 H4207 0.949 . S
C4212 C4218 1.368 . S
C4213 C4197 1.349 . S
C4213 H4205 0.950 . S
C4213 C4211 1.327 . S
C4214 C4202 1.349 . S
C4214 H4208 0.950 . S
C4214 C4215 1.327 . S
C4215 H4209 0.950 . S
C4215 C4214 1.327 . S
C4215 C4219 1.429 . S
C4216 C4199 1.574 . S
C4216 H4210 0.949 . S
C4216 C4220 1.368 . S
C4217 C4198 1.429 . S
C4217 C4211 1.429 . S
C4217 C4218 1.523 . S
C4218 C4199 1.368 . S
C4218 C4212 1.368 . S
C4218 C4217 1.523 . S
C4219 C4203 1.429 . S
C4219 C4215 1.429 . S
C4219 C4220 1.523 . S
C4220 C4204 1.368 . S
C4220 C4216 1.368 . S
C4220 C4219 1.523 . S
H4221 C4196 0.950 . S
H4222 C4198 0.950 . S
H4223 C4199 0.949 . S
H4224 C4201 0.950 . S
H4225 C4203 0.950 . S
C4226 C4227 1.349 . S
C4226 C4228 1.327 . S
C4226 H4251 0.950 . S
C4227 C4226 1.349 . S
C4227 C4243 1.349 . S
C4228 C4226 1.327 . S
C4228 C4247 1.429 . S
C4228 H4252 0.950 . S
C4229 C4246 1.574 . S
C4229 C4248 1.368 . S
C4229 H4253 0.949 . S
H4230 C4234 0.949 . S
C4231 C4232 1.349 . S
C4231 C4233 1.327 . S
C4231 H4254 0.950 . S
C4232 C4231 1.349 . S
C4232 C4244 1.349 . S
C4233 C4231 1.327 . S
C4233 C4249 1.429 . S
C4233 H4255 0.950 . S
C4234 H4230 0.949 . S
C4234 C4242 1.574 . S
C4234 C4250 1.368 . S
H4235 C4243 0.950 . S
H4236 C4241 0.950 . S
H4237 C4242 0.949 . S
H4238 C4244 0.950 . S
H4239 C4245 0.950 . S
H4240 C4246 0.949 . S
C4241 H4236 0.950 . S
C4241 C4243 1.327 . S
C4241 C4247 1.429 . S
C4242 C4234 1.574 . S
C4242 H4237 0.949 . S
C4242 C4248 1.368 . S
C4243 C4227 1.349 . S
C4243 H4235 0.950 . S
C4243 C4241 1.327 . S
C4244 C4232 1.349 . S
C4244 H4238 0.950 . S
C4244 C4245 1.327 . S
C4245 H4239 0.950 . S
C4245 C4244 1.327 . S
C4245 C4249 1.429 . S
C4246 C4229 1.574 . S
C4246 H4240 0.949 . S
C4246 C4250 1.368 . S
C4247 C4228 1.429 . S
C4247 C4241 1.429 . S
C4247 C4248 1.523 . S
C4248 C4229 1.368 . S
C4248 C4242 1.368 . S
C4248 C4247 1.523 . S
C4249 C4233 1.429 . S
C4249 C4245 1.429 . S
C4249 C4250 1.523 . S
C4250 C4234 1.368 . S
C4250 C4246 1.368 . S
C4250 C4249 1.523 . S
H4251 C4226 0.950 . S
H4252 C4228 0.950 . S
H4253 C4229 0.949 . S
H4254 C4231 0.950 . S
H4255 C4233 0.950 . S
C4256 C4257 1.349 . S
C4256 C4258 1.327 . S
C4256 H4281 0.950 . S
C4257 C4256 1.349 . S
C4257 C4273 1.349 . S
C4258 C4256 1.327 . S
C4258 C4277 1.429 . S
C4258 H4282 0.950 . S
C4259 C4276 1.574 . S
C4259 C4278 1.368 . S
C4259 H4283 0.949 . S
H4260 C4264 0.949 . S
C4261 C4262 1.349 . S
C4261 C4263 1.327 . S
C4261 H4284 0.950 . S
C4262 C4261 1.349 . S
C4262 C4274 1.349 . S
C4263 C4261 1.327 . S
C4263 C4279 1.429 . S
C4263 H4285 0.950 . S
C4264 H4260 0.949 . S
C4264 C4272 1.574 . S
C4264 C4280 1.368 . S
H4265 C4273 0.950 . S
H4266 C4271 0.950 . S
H4267 C4272 0.949 . S
H4268 C4274 0.950 . S
H4269 C4275 0.950 . S
H4270 C4276 0.949 . S
C4271 H4266 0.950 . S
C4271 C4273 1.327 . S
C4271 C4277 1.429 . S
C4272 C4264 1.574 . S
C4272 H4267 0.949 . S
C4272 C4278 1.368 . S
C4273 C4257 1.349 . S
C4273 H4265 0.950 . S
C4273 C4271 1.327 . S
C4274 C4262 1.349 . S
C4274 H4268 0.950 . S
C4274 C4275 1.327 . S
C4275 H4269 0.950 . S
C4275 C4274 1.327 . S
C4275 C4279 1.429 . S
C4276 C4259 1.574 . S
C4276 H4270 0.949 . S
C4276 C4280 1.368 . S
C4277 C4258 1.429 . S
C4277 C4271 1.429 . S
C4277 C4278 1.523 . S
C4278 C4259 1.368 . S
C4278 C4272 1.368 . S
C4278 C4277 1.523 . S
C4279 C4263 1.429 . S
C4279 C4275 1.429 . S
C4279 C4280 1.523 . S
C4280 C4264 1.368 . S
C4280 C4276 1.368 . S
C4280 C4279 1.523 . S
H4281 C4256 0.950 . S
H4282 C4258 0.950 . S
H4283 C4259 0.949 . S
H4284 C4261 0.950 . S
H4285 C4263 0.950 . S
C4286 C4287 1.349 . S
C4286 C4288 1.327 . S
C4286 H4311 0.950 . S
C4287 C4286 1.349 . S
C4287 C4303 1.349 . S
C4288 C4286 1.327 . S
C4288 C4307 1.429 . S
C4288 H4312 0.950 . S
C4289 C4306 1.574 . S
C4289 C4308 1.368 . S
C4289 H4313 0.949 . S
H4290 C4294 0.949 . S
C4291 C4292 1.349 . S
C4291 C4293 1.327 . S
C4291 H4314 0.950 . S
C4292 C4291 1.349 . S
C4292 C4304 1.349 . S
C4293 C4291 1.327 . S
C4293 C4309 1.429 . S
C4293 H4315 0.950 . S
C4294 H4290 0.949 . S
C4294 C4302 1.574 . S
C4294 C4310 1.368 . S
H4295 C4303 0.950 . S
H4296 C4301 0.950 . S
H4297 C4302 0.949 . S
H4298 C4304 0.950 . S
H4299 C4305 0.950 . S
H4300 C4306 0.949 . S
C4301 H4296 0.950 . S
C4301 C4303 1.327 . S
C4301 C4307 1.429 . S
C4302 C4294 1.574 . S
C4302 H4297 0.949 . S
C4302 C4308 1.368 . S
C4303 C4287 1.349 . S
C4303 H4295 0.950 . S
C4303 C4301 1.327 . S
C4304 C4292 1.349 . S
C4304 H4298 0.950 . S
C4304 C4305 1.327 . S
C4305 H4299 0.950 . S
C4305 C4304 1.327 . S
C4305 C4309 1.429 . S
C4306 C4289 1.574 . S
C4306 H4300 0.949 . S
C4306 C4310 1.368 . S
C4307 C4288 1.429 . S
C4307 C4301 1.429 . S
C4307 C4308 1.523 . S
C4308 C4289 1.368 . S
C4308 C4302 1.368 . S
C4308 C4307 1.523 . S
C4309 C4293 1.429 . S
C4309 C4305 1.429 . S
C4309 C4310 1.523 . S
C4310 C4294 1.368 . S
C4310 C4306 1.368 . S
C4310 C4309 1.523 . S
H4311 C4286 0.950 . S
H4312 C4288 0.950 . S
H4313 C4289 0.949 . S
H4314 C4291 0.950 . S
H4315 C4293 0.950 . S
C4316 C4317 1.349 . S
C4316 C4318 1.327 . S
C4316 H4341 0.950 . S
C4317 C4316 1.349 . S
C4317 C4333 1.349 . S
C4318 C4316 1.327 . S
C4318 C4337 1.429 . S
C4318 H4342 0.950 . S
C4319 C4336 1.574 . S
C4319 C4338 1.368 . S
C4319 H4343 0.949 . S
H4320 C4324 0.949 . S
C4321 C4322 1.349 . S
C4321 C4323 1.327 . S
C4321 H4344 0.950 . S
C4322 C4321 1.349 . S
C4322 C4334 1.349 . S
C4323 C4321 1.327 . S
C4323 C4339 1.429 . S
C4323 H4345 0.950 . S
C4324 H4320 0.949 . S
C4324 C4332 1.574 . S
C4324 C4340 1.368 . S
H4325 C4333 0.950 . S
H4326 C4331 0.950 . S
H4327 C4332 0.949 . S
H4328 C4334 0.950 . S
H4329 C4335 0.950 . S
H4330 C4336 0.949 . S
C4331 H4326 0.950 . S
C4331 C4333 1.327 . S
C4331 C4337 1.429 . S
C4332 C4324 1.574 . S
C4332 H4327 0.949 . S
C4332 C4338 1.368 . S
C4333 C4317 1.349 . S
C4333 H4325 0.950 . S
C4333 C4331 1.327 . S
C4334 C4322 1.349 . S
C4334 H4328 0.950 . S
C4334 C4335 1.327 . S
C4335 H4329 0.950 . S
C4335 C4334 1.327 . S
C4335 C4339 1.429 . S
C4336 C4319 1.574 . S
C4336 H4330 0.949 . S
C4336 C4340 1.368 . S
C4337 C4318 1.429 . S
C4337 C4331 1.429 . S
C4337 C4338 1.523 . S
C4338 C4319 1.368 . S
C4338 C4332 1.368 . S
C4338 C4337 1.523 . S
C4339 C4323 1.429 . S
C4339 C4335 1.429 . S
C4339 C4340 1.523 . S
C4340 C4324 1.368 . S
C4340 C4336 1.368 . S
C4340 C4339 1.523 . S
H4341 C4316 0.950 . S
H4342 C4318 0.950 . S
H4343 C4319 0.949 . S
H4344 C4321 0.950 . S
H4345 C4323 0.950 . S
C4346 C4347 1.349 . S
C4346 C4348 1.327 . S
C4346 H4371 0.950 . S
C4347 C4346 1.349 . S
C4347 C4363 1.349 . S
C4348 C4346 1.327 . S
C4348 C4367 1.429 . S
C4348 H4372 0.950 . S
C4349 C4366 1.574 . S
C4349 C4368 1.368 . S
C4349 H4373 0.949 . S
H4350 C4354 0.949 . S
C4351 C4352 1.349 . S
C4351 C4353 1.327 . S
C4351 H4374 0.950 . S
C4352 C4351 1.349 . S
C4352 C4364 1.349 . S
C4353 C4351 1.327 . S
C4353 C4369 1.429 . S
C4353 H4375 0.950 . S
C4354 H4350 0.949 . S
C4354 C4362 1.574 . S
C4354 C4370 1.368 . S
H4355 C4363 0.950 . S
H4356 C4361 0.950 . S
H4357 C4362 0.949 . S
H4358 C4364 0.946 1_455 S
H4359 C4365 0.950 . S
H4360 C4366 0.949 . S
C4361 H4356 0.950 . S
C4361 C4363 1.327 . S
C4361 C4367 1.429 . S
C4362 C4354 1.574 . S
C4362 H4357 0.949 . S
C4362 C4368 1.368 . S
C4363 C4347 1.349 . S
C4363 H4355 0.950 . S
C4363 C4361 1.327 . S
C4364 C4352 1.349 . S
C4364 H4358 0.946 1_655 S
C4364 C4365 1.327 . S
C4365 H4359 0.950 . S
C4365 C4364 1.327 . S
C4365 C4369 1.429 . S
C4366 C4349 1.574 . S
C4366 H4360 0.949 . S
C4366 C4370 1.368 . S
C4367 C4348 1.429 . S
C4367 C4361 1.429 . S
C4367 C4368 1.523 . S
C4368 C4349 1.368 . S
C4368 C4362 1.368 . S
C4368 C4367 1.523 . S
C4369 C4353 1.429 . S
C4369 C4365 1.429 . S
C4369 C4370 1.523 . S
C4370 C4354 1.368 . S
C4370 C4366 1.368 . S
C4370 C4369 1.523 . S
H4371 C4346 0.950 . S
H4372 C4348 0.950 . S
H4373 C4349 0.949 . S
H4374 C4351 0.950 . S
H4375 C4353 0.950 . S
C4376 C4377 1.349 . S
C4376 C4378 1.327 . S
C4376 H4401 0.950 . S
C4377 C4376 1.349 . S
C4377 C4393 1.349 . S
C4378 C4376 1.327 . S
C4378 C4397 1.429 . S
C4378 H4402 0.950 . S
C4379 C4396 1.574 . S
C4379 C4398 1.368 . S
C4379 H4403 0.949 . S
H4380 C4384 0.949 . S
C4381 C4382 1.349 . S
C4381 C4383 1.327 . S
C4381 H4404 0.950 . S
C4382 C4381 1.349 . S
C4382 C4394 1.349 . S
C4383 C4381 1.327 . S
C4383 C4399 1.429 . S
C4383 H4405 0.950 . S
C4384 H4380 0.949 . S
C4384 C4392 1.574 . S
C4384 C4400 1.368 . S
H4385 C4393 0.950 . S
H4386 C4391 0.950 . S
H4387 C4392 0.949 . S
H4388 C4394 0.950 . S
H4389 C4395 0.950 . S
H4390 C4396 0.949 . S
C4391 H4386 0.950 . S
C4391 C4393 1.327 . S
C4391 C4397 1.429 . S
C4392 C4384 1.574 . S
C4392 H4387 0.949 . S
C4392 C4398 1.368 . S
C4393 C4377 1.349 . S
C4393 H4385 0.950 . S
C4393 C4391 1.327 . S
C4394 C4382 1.349 . S
C4394 H4388 0.950 . S
C4394 C4395 1.327 . S
C4395 H4389 0.950 . S
C4395 C4394 1.327 . S
C4395 C4399 1.429 . S
C4396 C4379 1.574 . S
C4396 H4390 0.949 . S
C4396 C4400 1.368 . S
C4397 C4378 1.429 . S
C4397 C4391 1.429 . S
C4397 C4398 1.523 . S
C4398 C4379 1.368 . S
C4398 C4392 1.368 . S
C4398 C4397 1.523 . S
C4399 C4383 1.429 . S
C4399 C4395 1.429 . S
C4399 C4400 1.523 . S
C4400 C4384 1.368 . S
C4400 C4396 1.368 . S
C4400 C4399 1.523 . S
H4401 C4376 0.950 . S
H4402 C4378 0.950 . S
H4403 C4379 0.949 . S
H4404 C4381 0.950 . S
H4405 C4383 0.950 . S
C4406 C4407 1.349 . S
C4406 C4408 1.327 . S
C4406 H4431 0.953 1_655 S
C4407 C4406 1.349 . S
C4407 C4423 1.349 . S
C4408 C4406 1.327 . S
C4408 C4427 1.429 . S
C4408 H4432 0.950 . S
C4409 C4426 1.574 . S
C4409 C4428 1.368 . S
C4409 H4433 0.949 . S
H4410 C4414 0.949 . S
C4411 C4412 1.349 . S
C4411 C4413 1.327 . S
C4411 H4434 0.950 . S
C4412 C4411 1.349 . S
C4412 C4424 1.349 . S
C4413 C4411 1.327 . S
C4413 C4429 1.429 . S
C4413 H4435 0.950 . S
C4414 H4410 0.949 . S
C4414 C4422 1.574 . S
C4414 C4430 1.368 . S
H4415 C4423 0.950 . S
H4416 C4421 0.950 . S
H4417 C4422 0.949 . S
H4418 C4424 0.950 . S
H4419 C4425 0.950 . S
H4420 C4426 0.949 . S
C4421 H4416 0.950 . S
C4421 C4423 1.327 . S
C4421 C4427 1.429 . S
C4422 C4414 1.574 . S
C4422 H4417 0.949 . S
C4422 C4428 1.368 . S
C4423 C4407 1.349 . S
C4423 H4415 0.950 . S
C4423 C4421 1.327 . S
C4424 C4412 1.349 . S
C4424 H4418 0.950 . S
C4424 C4425 1.327 . S
C4425 H4419 0.950 . S
C4425 C4424 1.327 . S
C4425 C4429 1.429 . S
C4426 C4409 1.574 . S
C4426 H4420 0.949 . S
C4426 C4430 1.368 . S
C4427 C4408 1.429 . S
C4427 C4421 1.429 . S
C4427 C4428 1.523 . S
C4428 C4409 1.368 . S
C4428 C4422 1.368 . S
C4428 C4427 1.523 . S
C4429 C4413 1.429 . S
C4429 C4425 1.429 . S
C4429 C4430 1.523 . S
C4430 C4414 1.368 . S
C4430 C4426 1.368 . S
C4430 C4429 1.523 . S
H4431 C4406 0.953 1_455 S
H4432 C4408 0.950 . S
H4433 C4409 0.949 . S
H4434 C4411 0.950 . S
H4435 C4413 0.950 . S
C4436 C4437 1.349 . S
C4436 C4438 1.327 . S
C4436 H4461 0.950 . S
C4437 C4436 1.349 . S
C4437 C4453 1.349 . S
C4438 C4436 1.327 . S
C4438 C4457 1.429 . S
C4438 H4462 0.950 . S
C4439 C4456 1.574 . S
C4439 C4458 1.368 . S
C4439 H4463 0.949 . S
H4440 C4444 0.949 . S
C4441 C4442 1.349 . S
C4441 C4443 1.327 . S
C4441 H4464 0.950 . S
C4442 C4441 1.349 . S
C4442 C4454 1.349 . S
C4443 C4441 1.327 . S
C4443 C4459 1.429 . S
C4443 H4465 0.950 . S
C4444 H4440 0.949 . S
C4444 C4452 1.574 . S
C4444 C4460 1.368 . S
H4445 C4453 0.950 . S
H4446 C4451 0.950 . S
H4447 C4452 0.949 . S
H4448 C4454 0.950 . S
H4449 C4455 0.950 . S
H4450 C4456 0.949 . S
C4451 H4446 0.950 . S
C4451 C4453 1.327 . S
C4451 C4457 1.429 . S
C4452 C4444 1.574 . S
C4452 H4447 0.949 . S
C4452 C4458 1.368 . S
C4453 C4437 1.349 . S
C4453 H4445 0.950 . S
C4453 C4451 1.327 . S
C4454 C4442 1.349 . S
C4454 H4448 0.950 . S
C4454 C4455 1.327 . S
C4455 H4449 0.950 . S
C4455 C4454 1.327 . S
C4455 C4459 1.429 . S
C4456 C4439 1.574 . S
C4456 H4450 0.949 . S
C4456 C4460 1.368 . S
C4457 C4438 1.429 . S
C4457 C4451 1.429 . S
C4457 C4458 1.523 . S
C4458 C4439 1.368 . S
C4458 C4452 1.368 . S
C4458 C4457 1.523 . S
C4459 C4443 1.429 . S
C4459 C4455 1.429 . S
C4459 C4460 1.523 . S
C4460 C4444 1.368 . S
C4460 C4456 1.368 . S
C4460 C4459 1.523 . S
H4461 C4436 0.950 . S
H4462 C4438 0.950 . S
H4463 C4439 0.949 . S
H4464 C4441 0.950 . S
H4465 C4443 0.950 . S
C4466 C4467 1.349 . S
C4466 C4468 1.327 . S
C4466 H4491 0.950 . S
C4467 C4466 1.349 . S
C4467 C4483 1.349 . S
C4468 C4466 1.327 . S
C4468 C4487 1.429 . S
C4468 H4492 0.950 . S
C4469 C4486 1.574 . S
C4469 C4488 1.368 . S
C4469 H4493 0.949 . S
H4470 C4474 0.949 . S
C4471 C4472 1.349 . S
C4471 C4473 1.327 . S
C4471 H4494 0.950 . S
C4472 C4471 1.349 . S
C4472 C4484 1.349 . S
C4473 C4471 1.327 . S
C4473 C4489 1.429 . S
C4473 H4495 0.950 . S
C4474 H4470 0.949 . S
C4474 C4482 1.574 . S
C4474 C4490 1.368 . S
H4475 C4483 0.950 . S
H4476 C4481 0.950 . S
H4477 C4482 0.949 . S
H4478 C4484 0.950 . S
H4479 C4485 0.950 . S
H4480 C4486 0.949 . S
C4481 H4476 0.950 . S
C4481 C4483 1.327 . S
C4481 C4487 1.429 . S
C4482 C4474 1.574 . S
C4482 H4477 0.949 . S
C4482 C4488 1.368 . S
C4483 C4467 1.349 . S
C4483 H4475 0.950 . S
C4483 C4481 1.327 . S
C4484 C4472 1.349 . S
C4484 H4478 0.950 . S
C4484 C4485 1.327 . S
C4485 H4479 0.950 . S
C4485 C4484 1.327 . S
C4485 C4489 1.429 . S
C4486 C4469 1.574 . S
C4486 H4480 0.949 . S
C4486 C4490 1.368 . S
C4487 C4468 1.429 . S
C4487 C4481 1.429 . S
C4487 C4488 1.523 . S
C4488 C4469 1.368 . S
C4488 C4482 1.368 . S
C4488 C4487 1.523 . S
C4489 C4473 1.429 . S
C4489 C4485 1.429 . S
C4489 C4490 1.523 . S
C4490 C4474 1.368 . S
C4490 C4486 1.368 . S
C4490 C4489 1.523 . S
H4491 C4466 0.950 . S
H4492 C4468 0.950 . S
H4493 C4469 0.949 . S
H4494 C4471 0.950 . S
H4495 C4473 0.950 . S
C4496 C4497 1.349 . S
C4496 C4498 1.327 . S
C4496 H4521 0.950 . S
C4497 C4496 1.349 . S
C4497 C4513 1.349 . S
C4498 C4496 1.327 . S
C4498 C4517 1.429 . S
C4498 H4522 0.950 . S
C4499 C4516 1.574 . S
C4499 C4518 1.368 . S
C4499 H4523 0.949 . S
H4500 C4504 0.949 . S
C4501 C4502 1.349 . S
C4501 C4503 1.327 . S
C4501 H4524 0.950 . S
C4502 C4501 1.349 . S
C4502 C4514 1.349 . S
C4503 C4501 1.327 . S
C4503 C4519 1.429 . S
C4503 H4525 0.950 . S
C4504 H4500 0.949 . S
C4504 C4512 1.574 . S
C4504 C4520 1.368 . S
H4505 C4513 0.950 . S
H4506 C4511 0.950 . S
H4507 C4512 0.949 . S
H4508 C4514 0.950 . S
H4509 C4515 0.950 . S
H4510 C4516 0.949 . S
C4511 H4506 0.950 . S
C4511 C4513 1.327 . S
C4511 C4517 1.429 . S
C4512 C4504 1.574 . S
C4512 H4507 0.949 . S
C4512 C4518 1.368 . S
C4513 C4497 1.349 . S
C4513 H4505 0.950 . S
C4513 C4511 1.327 . S
C4514 C4502 1.349 . S
C4514 H4508 0.950 . S
C4514 C4515 1.327 . S
C4515 H4509 0.950 . S
C4515 C4514 1.327 . S
C4515 C4519 1.429 . S
C4516 C4499 1.574 . S
C4516 H4510 0.949 . S
C4516 C4520 1.368 . S
C4517 C4498 1.429 . S
C4517 C4511 1.429 . S
C4517 C4518 1.523 . S
C4518 C4499 1.368 . S
C4518 C4512 1.368 . S
C4518 C4517 1.523 . S
C4519 C4503 1.429 . S
C4519 C4515 1.429 . S
C4519 C4520 1.523 . S
C4520 C4504 1.368 . S
C4520 C4516 1.368 . S
C4520 C4519 1.523 . S
H4521 C4496 0.950 . S
H4522 C4498 0.950 . S
H4523 C4499 0.949 . S
H4524 C4501 0.950 . S
H4525 C4503 0.950 . S
C4526 C4527 1.349 . S
C4526 C4528 1.327 . S
C4526 H4551 0.950 . S
C4527 C4526 1.349 . S
C4527 C4543 1.349 . S
C4528 C4526 1.327 . S
C4528 C4547 1.429 . S
C4528 H4552 0.950 . S
C4529 C4546 1.574 . S
C4529 C4548 1.368 . S
C4529 H4553 0.949 . S
H4530 C4534 0.949 . S
C4531 C4532 1.349 . S
C4531 C4533 1.327 . S
C4531 H4554 0.950 . S
C4532 C4531 1.349 . S
C4532 C4544 1.349 . S
C4533 C4531 1.327 . S
C4533 C4549 1.429 . S
C4533 H4555 0.950 . S
C4534 H4530 0.949 . S
C4534 C4542 1.574 . S
C4534 C4550 1.368 . S
H4535 C4543 0.950 . S
H4536 C4541 0.950 . S
H4537 C4542 0.949 . S
H4538 C4544 0.950 . S
H4539 C4545 0.950 . S
H4540 C4546 0.949 . S
C4541 H4536 0.950 . S
C4541 C4543 1.327 . S
C4541 C4547 1.429 . S
C4542 C4534 1.574 . S
C4542 H4537 0.949 . S
C4542 C4548 1.368 . S
C4543 C4527 1.349 . S
C4543 H4535 0.950 . S
C4543 C4541 1.327 . S
C4544 C4532 1.349 . S
C4544 H4538 0.950 . S
C4544 C4545 1.327 . S
C4545 H4539 0.950 . S
C4545 C4544 1.327 . S
C4545 C4549 1.429 . S
C4546 C4529 1.574 . S
C4546 H4540 0.949 . S
C4546 C4550 1.368 . S
C4547 C4528 1.429 . S
C4547 C4541 1.429 . S
C4547 C4548 1.523 . S
C4548 C4529 1.368 . S
C4548 C4542 1.368 . S
C4548 C4547 1.523 . S
C4549 C4533 1.429 . S
C4549 C4545 1.429 . S
C4549 C4550 1.523 . S
C4550 C4534 1.368 . S
C4550 C4546 1.368 . S
C4550 C4549 1.523 . S
H4551 C4526 0.950 . S
H4552 C4528 0.950 . S
H4553 C4529 0.949 . S
H4554 C4531 0.950 . S
H4555 C4533 0.950 . S
C4556 C4557 1.349 . S
C4556 C4558 1.327 . S
C4556 H4581 0.950 . S
C4557 C4556 1.349 . S
C4557 C4573 1.349 . S
C4558 C4556 1.327 . S
C4558 C4577 1.429 . S
C4558 H4582 0.950 . S
C4559 C4576 1.574 . S
C4559 C4578 1.368 . S
C4559 H4583 0.949 . S
H4560 C4564 0.949 . S
C4561 C4562 1.349 . S
C4561 C4563 1.327 . S
C4561 H4584 0.950 . S
C4562 C4561 1.349 . S
C4562 C4574 1.349 . S
C4563 C4561 1.327 . S
C4563 C4579 1.429 . S
C4563 H4585 0.950 . S
C4564 H4560 0.949 . S
C4564 C4572 1.574 . S
C4564 C4580 1.368 . S
H4565 C4573 0.950 . S
H4566 C4571 0.950 . S
H4567 C4572 0.949 . S
H4568 C4574 0.950 . S
H4569 C4575 0.950 . S
H4570 C4576 0.949 . S
C4571 H4566 0.950 . S
C4571 C4573 1.327 . S
C4571 C4577 1.429 . S
C4572 C4564 1.574 . S
C4572 H4567 0.949 . S
C4572 C4578 1.368 . S
C4573 C4557 1.349 . S
C4573 H4565 0.950 . S
C4573 C4571 1.327 . S
C4574 C4562 1.349 . S
C4574 H4568 0.950 . S
C4574 C4575 1.327 . S
C4575 H4569 0.950 . S
C4575 C4574 1.327 . S
C4575 C4579 1.429 . S
C4576 C4559 1.574 . S
C4576 H4570 0.949 . S
C4576 C4580 1.368 . S
C4577 C4558 1.429 . S
C4577 C4571 1.429 . S
C4577 C4578 1.523 . S
C4578 C4559 1.368 . S
C4578 C4572 1.368 . S
C4578 C4577 1.523 . S
C4579 C4563 1.429 . S
C4579 C4575 1.429 . S
C4579 C4580 1.523 . S
C4580 C4564 1.368 . S
C4580 C4576 1.368 . S
C4580 C4579 1.523 . S
H4581 C4556 0.950 . S
H4582 C4558 0.950 . S
H4583 C4559 0.949 . S
H4584 C4561 0.950 . S
H4585 C4563 0.950 . S
C4586 C4587 1.349 . S
C4586 C4588 1.327 . S
C4586 H4611 0.950 . S
C4587 C4586 1.349 . S
C4587 C4603 1.349 . S
C4588 C4586 1.327 . S
C4588 C4607 1.429 . S
C4588 H4612 0.950 . S
C4589 C4606 1.574 . S
C4589 C4608 1.368 . S
C4589 H4613 0.949 . S
H4590 C4594 0.949 . S
C4591 C4592 1.349 . S
C4591 C4593 1.327 . S
C4591 H4614 0.950 . S
C4592 C4591 1.349 . S
C4592 C4604 1.349 . S
C4593 C4591 1.327 . S
C4593 C4609 1.429 . S
C4593 H4615 0.950 . S
C4594 H4590 0.949 . S
C4594 C4602 1.574 . S
C4594 C4610 1.368 . S
H4595 C4603 0.950 . S
H4596 C4601 0.950 . S
H4597 C4602 0.949 . S
H4598 C4604 0.950 . S
H4599 C4605 0.950 . S
H4600 C4606 0.949 . S
C4601 H4596 0.950 . S
C4601 C4603 1.327 . S
C4601 C4607 1.429 . S
C4602 C4594 1.574 . S
C4602 H4597 0.949 . S
C4602 C4608 1.368 . S
C4603 C4587 1.349 . S
C4603 H4595 0.950 . S
C4603 C4601 1.327 . S
C4604 C4592 1.349 . S
C4604 H4598 0.950 . S
C4604 C4605 1.327 . S
C4605 H4599 0.950 . S
C4605 C4604 1.327 . S
C4605 C4609 1.429 . S
C4606 C4589 1.574 . S
C4606 H4600 0.949 . S
C4606 C4610 1.368 . S
C4607 C4588 1.429 . S
C4607 C4601 1.429 . S
C4607 C4608 1.523 . S
C4608 C4589 1.368 . S
C4608 C4602 1.368 . S
C4608 C4607 1.523 . S
C4609 C4593 1.429 . S
C4609 C4605 1.429 . S
C4609 C4610 1.523 . S
C4610 C4594 1.368 . S
C4610 C4606 1.368 . S
C4610 C4609 1.523 . S
H4611 C4586 0.950 . S
H4612 C4588 0.950 . S
H4613 C4589 0.949 . S
H4614 C4591 0.950 . S
H4615 C4593 0.950 . S
C4616 C4617 1.349 . S
C4616 C4618 1.327 . S
C4616 H4641 0.950 . S
C4617 C4616 1.349 . S
C4617 C4633 1.349 . S
C4618 C4616 1.327 . S
C4618 C4637 1.429 . S
C4618 H4642 0.950 . S
C4619 C4636 1.574 . S
C4619 C4638 1.368 . S
C4619 H4643 0.949 . S
H4620 C4624 0.949 . S
C4621 C4622 1.349 . S
C4621 C4623 1.327 . S
C4621 H4644 0.950 . S
C4622 C4621 1.349 . S
C4622 C4634 1.349 . S
C4623 C4621 1.327 . S
C4623 C4639 1.429 . S
C4623 H4645 0.950 . S
C4624 H4620 0.949 . S
C4624 C4632 1.574 . S
C4624 C4640 1.368 . S
H4625 C4633 0.950 . S
H4626 C4631 0.950 . S
H4627 C4632 0.949 . S
H4628 C4634 0.950 . S
H4629 C4635 0.950 . S
H4630 C4636 0.949 . S
C4631 H4626 0.950 . S
C4631 C4633 1.327 . S
C4631 C4637 1.429 . S
C4632 C4624 1.574 . S
C4632 H4627 0.949 . S
C4632 C4638 1.368 . S
C4633 C4617 1.349 . S
C4633 H4625 0.950 . S
C4633 C4631 1.327 . S
C4634 C4622 1.349 . S
C4634 H4628 0.950 . S
C4634 C4635 1.327 . S
C4635 H4629 0.950 . S
C4635 C4634 1.327 . S
C4635 C4639 1.429 . S
C4636 C4619 1.574 . S
C4636 H4630 0.949 . S
C4636 C4640 1.368 . S
C4637 C4618 1.429 . S
C4637 C4631 1.429 . S
C4637 C4638 1.523 . S
C4638 C4619 1.368 . S
C4638 C4632 1.368 . S
C4638 C4637 1.523 . S
C4639 C4623 1.429 . S
C4639 C4635 1.429 . S
C4639 C4640 1.523 . S
C4640 C4624 1.368 . S
C4640 C4636 1.368 . S
C4640 C4639 1.523 . S
H4641 C4616 0.950 . S
H4642 C4618 0.950 . S
H4643 C4619 0.949 . S
H4644 C4621 0.950 . S
H4645 C4623 0.950 . S
C4646 C4647 1.349 . S
C4646 C4648 1.327 . S
C4646 H4671 0.950 . S
C4647 C4646 1.349 . S
C4647 C4663 1.349 . S
C4648 C4646 1.327 . S
C4648 C4667 1.429 . S
C4648 H4672 0.950 . S
C4649 C4666 1.574 . S
C4649 C4668 1.368 . S
C4649 H4673 0.949 . S
H4650 C4654 0.949 . S
C4651 C4652 1.349 . S
C4651 C4653 1.327 . S
C4651 H4674 0.950 . S
C4652 C4651 1.349 . S
C4652 C4664 1.349 . S
C4653 C4651 1.327 . S
C4653 C4669 1.429 . S
C4653 H4675 0.950 . S
C4654 H4650 0.949 . S
C4654 C4662 1.574 . S
C4654 C4670 1.368 . S
H4655 C4663 0.950 . S
H4656 C4661 0.950 . S
H4657 C4662 0.949 . S
H4658 C4664 0.950 . S
H4659 C4665 0.950 . S
H4660 C4666 0.949 . S
C4661 H4656 0.950 . S
C4661 C4663 1.327 . S
C4661 C4667 1.429 . S
C4662 C4654 1.574 . S
C4662 H4657 0.949 . S
C4662 C4668 1.368 . S
C4663 C4647 1.349 . S
C4663 H4655 0.950 . S
C4663 C4661 1.327 . S
C4664 C4652 1.349 . S
C4664 H4658 0.950 . S
C4664 C4665 1.327 . S
C4665 H4659 0.950 . S
C4665 C4664 1.327 . S
C4665 C4669 1.429 . S
C4666 C4649 1.574 . S
C4666 H4660 0.949 . S
C4666 C4670 1.368 . S
C4667 C4648 1.429 . S
C4667 C4661 1.429 . S
C4667 C4668 1.523 . S
C4668 C4649 1.368 . S
C4668 C4662 1.368 . S
C4668 C4667 1.523 . S
C4669 C4653 1.429 . S
C4669 C4665 1.429 . S
C4669 C4670 1.523 . S
C4670 C4654 1.368 . S
C4670 C4666 1.368 . S
C4670 C4669 1.523 . S
H4671 C4646 0.950 . S
H4672 C4648 0.950 . S
H4673 C4649 0.949 . S
H4674 C4651 0.950 . S
H4675 C4653 0.950 . S
C4676 C4677 1.349 . S
C4676 C4678 1.327 . S
C4676 H4701 0.950 . S
C4677 C4676 1.349 . S
C4677 C4693 1.349 . S
C4678 C4676 1.327 . S
C4678 C4697 1.429 . S
C4678 H4702 0.950 . S
C4679 C4696 1.574 . S
C4679 C4698 1.368 . S
C4679 H4703 0.949 . S
H4680 C4684 0.949 . S
C4681 C4682 1.349 . S
C4681 C4683 1.327 . S
C4681 H4704 0.950 . S
C4682 C4681 1.349 . S
C4682 C4694 1.349 . S
C4683 C4681 1.327 . S
C4683 C4699 1.429 . S
C4683 H4705 0.950 . S
C4684 H4680 0.949 . S
C4684 C4692 1.574 . S
C4684 C4700 1.368 . S
H4685 C4693 0.950 . S
H4686 C4691 0.950 . S
H4687 C4692 0.949 . S
H4688 C4694 0.950 . S
H4689 C4695 0.950 . S
H4690 C4696 0.949 . S
C4691 H4686 0.950 . S
C4691 C4693 1.327 . S
C4691 C4697 1.429 . S
C4692 C4684 1.574 . S
C4692 H4687 0.949 . S
C4692 C4698 1.368 . S
C4693 C4677 1.349 . S
C4693 H4685 0.950 . S
C4693 C4691 1.327 . S
C4694 C4682 1.349 . S
C4694 H4688 0.950 . S
C4694 C4695 1.327 . S
C4695 H4689 0.950 . S
C4695 C4694 1.327 . S
C4695 C4699 1.429 . S
C4696 C4679 1.574 . S
C4696 H4690 0.949 . S
C4696 C4700 1.368 . S
C4697 C4678 1.429 . S
C4697 C4691 1.429 . S
C4697 C4698 1.523 . S
C4698 C4679 1.368 . S
C4698 C4692 1.368 . S
C4698 C4697 1.523 . S
C4699 C4683 1.429 . S
C4699 C4695 1.429 . S
C4699 C4700 1.523 . S
C4700 C4684 1.368 . S
C4700 C4696 1.368 . S
C4700 C4699 1.523 . S
H4701 C4676 0.950 . S
H4702 C4678 0.950 . S
H4703 C4679 0.949 . S
H4704 C4681 0.950 . S
H4705 C4683 0.950 . S
C4706 C4707 1.349 . S
C4706 C4708 1.327 . S
C4706 H4731 0.950 . S
C4707 C4706 1.349 . S
C4707 C4723 1.349 . S
C4708 C4706 1.327 . S
C4708 C4727 1.429 . S
C4708 H4732 0.950 . S
C4709 C4726 1.574 . S
C4709 C4728 1.368 . S
C4709 H4733 0.949 . S
H4710 C4714 0.949 . S
C4711 C4712 1.349 . S
C4711 C4713 1.327 . S
C4711 H4734 0.950 . S
C4712 C4711 1.349 . S
C4712 C4724 1.349 . S
C4713 C4711 1.327 . S
C4713 C4729 1.429 . S
C4713 H4735 0.950 . S
C4714 H4710 0.949 . S
C4714 C4722 1.574 . S
C4714 C4730 1.368 . S
H4715 C4723 0.950 . S
H4716 C4721 0.950 . S
H4717 C4722 0.949 . S
H4718 C4724 0.950 . S
H4719 C4725 0.950 . S
H4720 C4726 0.949 . S
C4721 H4716 0.950 . S
C4721 C4723 1.327 . S
C4721 C4727 1.429 . S
C4722 C4714 1.574 . S
C4722 H4717 0.949 . S
C4722 C4728 1.368 . S
C4723 C4707 1.349 . S
C4723 H4715 0.950 . S
C4723 C4721 1.327 . S
C4724 C4712 1.349 . S
C4724 H4718 0.950 . S
C4724 C4725 1.327 . S
C4725 H4719 0.950 . S
C4725 C4724 1.327 . S
C4725 C4729 1.429 . S
C4726 C4709 1.574 . S
C4726 H4720 0.949 . S
C4726 C4730 1.368 . S
C4727 C4708 1.429 . S
C4727 C4721 1.429 . S
C4727 C4728 1.523 . S
C4728 C4709 1.368 . S
C4728 C4722 1.368 . S
C4728 C4727 1.523 . S
C4729 C4713 1.429 . S
C4729 C4725 1.429 . S
C4729 C4730 1.523 . S
C4730 C4714 1.368 . S
C4730 C4726 1.368 . S
C4730 C4729 1.523 . S
H4731 C4706 0.950 . S
H4732 C4708 0.950 . S
H4733 C4709 0.949 . S
H4734 C4711 0.950 . S
H4735 C4713 0.950 . S
C2817 C409 1.503 . S
C2822 C29 1.503 . S
C2847 C497 1.503 . S
C2852 C117 1.503 . S
C2877 C577 1.503 . S
C2882 C205 1.503 . S
C2907 C284 1.503 . S
C2912 C665 1.503 . S
C2937 C724 1.492 . S
C2942 C1113 1.492 . S
C2967 C1173 1.492 . S
C2972 C841 1.492 . S
C2997 C929 1.492 . S
C3002 C1261 1.492 . S
C3027 C1349 1.492 . S
C3032 C1017 1.492 . S
C3057 C1428 1.503 . S
C3062 C1817 1.503 . S
C3087 C1897 1.503 . S
C3092 C1525 1.503 . S
C3117 C1985 1.503 . S
C3122 C1604 1.503 . S
C3147 C2081 1.504 . S
C3152 C1692 1.504 . S
C3177 C2132 1.492 . S
C3182 C2513 1.492 . S
C3207 C2249 1.492 . S
C3212 C2581 1.492 . S
C3237 C2337 1.492 . S
C3242 C2660 1.492 . S
C3267 C2433 1.492 . S
C3272 C2757 1.492 . S
C3297 C49 0.268 . S
C3302 C645 0.268 . S
C3327 C137 0.268 . S
C3332 C372 0.268 . S
C3357 C225 0.268 . S
C3362 C460 0.268 . S
C3387 C557 0.268 . S
C3392 C321 0.268 . S
C3417 C1340 0.277 . S
C3422 C733 0.277 . S
C3447 C1105 0.277 . S
C3452 C849 0.277 . S
C3477 C1164 0.277 . S
C3482 C937 0.277 . S
C3507 C1025 0.277 . S
C3512 C1252 0.277 . S
C3537 C2044 0.268 . S
C3542 C1465 0.268 . S
C3567 C1780 0.268 . S
C3572 C1545 0.268 . S
C3597 C1877 0.268 . S
C3602 C1641 0.268 . S
C3627 C1729 0.268 . S
C3632 C1965 0.268 . S
C3657 C2141 0.277 . S
C3662 C2748 0.277 . S
C3687 C2257 0.277 . S
C3692 C2521 0.277 . S
C3717 C2345 0.277 . S
C3722 C2572 0.277 . S
C3747 C2669 0.277 . S
C3752 C2425 0.277 . S
C3777 C57 1.547 . S
C3782 C2229 1.517 . S
C3807 C145 1.547 . S
C3812 C909 1.517 1_455 S
C3837 C233 1.547 . S
C3842 C2396 1.517 . S
C3867 C761 1.517 . S
C3872 C313 1.547 . S
C3897 C2777 1.517 . S
C3902 C381 1.547 . S
C3927 C469 1.547 . S
C3932 C1076 1.517 . S
C3957 C548 1.547 . S
C3962 C2601 1.517 . S
C3987 C636 1.547 . S
C3992 C1281 1.517 1_455 S
C4017 C1516 1.517 . S
C4022 C753 1.544 . S
C4047 C196 1.517 1_655 S
C4052 C812 1.544 . S
C4077 C1701 1.517 . S
C4082 C900 1.544 . S
C4107 C988 1.544 . S
C4112 C20 1.517 . S
C4137 C2073 1.517 . S
C4142 C1085 1.544 . S
C4167 C401 1.516 . S
C4172 C1201 1.544 . S
C4197 C1905 1.517 . S
C4202 C1289 1.544 . S
C4227 C585 1.517 1_655 S
C4232 C1377 1.544 . S
C4257 C821 1.517 . S
C4262 C1457 1.547 . S
C4287 C1553 1.547 . S
C4292 C2317 1.517 . S
C4317 C1633 1.547 . S
C4322 C997 1.517 . S
C4347 C1721 1.547 . S
C4352 C2169 1.517 1_655 S
C4377 C1789 1.547 . S
C4382 C1369 1.517 . S
C4407 C2493 1.517 1_655 S
C4412 C1868 1.547 . S
C4437 C1956 1.547 . S
C4442 C1193 1.517 . S
C4467 C2053 1.547 . S
C4472 C2697 1.517 . S
C4497 C2161 1.544 . S
C4502 C108 1.517 . S
C4527 C2220 1.544 . S
C4532 C1613 1.517 . S
C4557 C293 1.517 . S
C4562 C2308 1.544 . S
C4587 C1437 1.517 1_455 S
C4592 C2405 1.544 . S
C4617 C2484 1.544 . S
C4622 C673 1.517 . S
C4647 C2609 1.544 . S
C4652 C1809 1.517 1_455 S
C4677 C489 1.517 . S
C4682 C2689 1.544 . S
C4707 C1993 1.517 . S
C4712 C2785 1.544 . S
