# Generated by pormake.
# Topology uku, (4)-cn, num edge types: 1
# Building blocks:
#     Node 0, Type 0, BuildingBlock: QUQFOY_clean_sbu_3, # of connection points: 4
#     Node 1, Type 0, BuildingBlock: QUQFOY_clean_sbu_3, # of connection points: 4
#     Node 2, Type 0, BuildingBlock: QUQFOY_clean_sbu_3, # of connection points: 4
#     Node 3, Type 0, BuildingBlock: QUQFOY_clean_sbu_3, # of connection points: 4
#     Node 4, Type 0, BuildingBlock: QUQFOY_clean_sbu_3, # of connection points: 4
#     Node 5, Type 0, BuildingBlock: QUQFOY_clean_sbu_3, # of connection points: 4
#     Node 6, Type 0, BuildingBlock: QUQFOY_clean_sbu_3, # of connection points: 4
#     Node 7, Type 0, BuildingBlock: QUQFOY_clean_sbu_3, # of connection points: 4
#     Node 8, Type 0, BuildingBlock: QUQFOY_clean_sbu_3, # of connection points: 4
#     Node 9, Type 0, BuildingBlock: QUQFOY_clean_sbu_3, # of connection points: 4
#     Node 10, Type 0, BuildingBlock: QUQFOY_clean_sbu_3, # of connection points: 4
#     Node 11, Type 0, BuildingBlock: QUQFOY_clean_sbu_3, # of connection points: 4
#     Edge 12, Type (0, 0), BuildingBlock: XIVTED_clean_linker_0, # of connection points: 2
#     Edge 13, Type (0, 0), BuildingBlock: XIVTED_clean_linker_0, # of connection points: 2
#     Edge 14, Type (0, 0), BuildingBlock: XIVTED_clean_linker_0, # of connection points: 2
#     Edge 15, Type (0, 0), BuildingBlock: XIVTED_clean_linker_0, # of connection points: 2
#     Edge 16, Type (0, 0), BuildingBlock: XIVTED_clean_linker_0, # of connection points: 2
#     Edge 17, Type (0, 0), BuildingBlock: XIVTED_clean_linker_0, # of connection points: 2
#     Edge 18, Type (0, 0), BuildingBlock: XIVTED_clean_linker_0, # of connection points: 2
#     Edge 19, Type (0, 0), BuildingBlock: XIVTED_clean_linker_0, # of connection points: 2
#     Edge 20, Type (0, 0), BuildingBlock: XIVTED_clean_linker_0, # of connection points: 2
#     Edge 21, Type (0, 0), BuildingBlock: XIVTED_clean_linker_0, # of connection points: 2
#     Edge 22, Type (0, 0), BuildingBlock: XIVTED_clean_linker_0, # of connection points: 2
#     Edge 23, Type (0, 0), BuildingBlock: XIVTED_clean_linker_0, # of connection points: 2
#     Edge 24, Type (0, 0), BuildingBlock: XIVTED_clean_linker_0, # of connection points: 2
#     Edge 25, Type (0, 0), BuildingBlock: XIVTED_clean_linker_0, # of connection points: 2
#     Edge 26, Type (0, 0), BuildingBlock: XIVTED_clean_linker_0, # of connection points: 2
#     Edge 27, Type (0, 0), BuildingBlock: XIVTED_clean_linker_0, # of connection points: 2
#     Edge 28, Type (0, 0), BuildingBlock: XIVTED_clean_linker_0, # of connection points: 2
#     Edge 29, Type (0, 0), BuildingBlock: XIVTED_clean_linker_0, # of connection points: 2
#     Edge 30, Type (0, 0), BuildingBlock: XIVTED_clean_linker_0, # of connection points: 2
#     Edge 31, Type (0, 0), BuildingBlock: XIVTED_clean_linker_0, # of connection points: 2
#     Edge 32, Type (0, 0), BuildingBlock: XIVTED_clean_linker_0, # of connection points: 2
#     Edge 33, Type (0, 0), BuildingBlock: XIVTED_clean_linker_0, # of connection points: 2
#     Edge 34, Type (0, 0), BuildingBlock: XIVTED_clean_linker_0, # of connection points: 2
#     Edge 35, Type (0, 0), BuildingBlock: XIVTED_clean_linker_0, # of connection points: 2
# Relax obj value: 0.368
# Max RMSD: 0.260
# Mean RMSD: 0.260
data_MOF--net-uku--node1-QUQFOY_clean_sbu_3--edge1-XIVTED_clean_linker_0
_symmetry_space_group_name_H-M    P1
_symmetry_Int_Tables_number       1
_symmetry_cell_setting            triclinic
loop_
_symmetry_equiv_pos_as_xyz
'x, y, z'
_cell_length_a     44.718316
_cell_length_b     44.15264
_cell_length_c     44.389298
_cell_angle_alpha  90.281415
_cell_angle_beta   90.229821
_cell_angle_gamma 89.76297
loop_
_atom_site_label
_atom_site_type_symbol
_atom_site_fract_x
_atom_site_fract_y
_atom_site_fract_z
_atom_type_partial_charge
C0 C 0.01475 0.15484 0.67779 0.0
O1 O 0.00146 0.1311 0.68649 0.0
Cd2 Cd 0.00238 0.08395 0.65912 0.0
O3 O 0.02575 0.15622 0.65145 0.0
Cd4 Cd 0.02586 0.12504 0.6051 0.0
C5 C 0.07791 0.08372 0.63941 0.0
O6 O -0.01517 0.08897 0.60941 0.0
O7 O 0.02199 0.07613 0.58092 0.0
O8 O -0.00609 0.1619 0.58178 0.0
C9 C -0.00357 0.06982 0.59137 0.0
O10 O 0.05527 0.0729 0.65295 0.0
C11 C 0.00977 0.16587 0.55851 0.0
O12 O 0.07531 0.10613 0.62144 0.0
O13 O 0.03496 0.15223 0.55765 0.0
C14 C 0.89847 0.76903 0.67203 0.0
O15 O 0.91483 0.79067 0.6812 0.0
Cd16 Cd 0.91365 0.83994 0.65807 0.0
O17 O 0.88485 0.77084 0.64691 0.0
Cd18 Cd 0.88423 0.80497 0.60314 0.0
C19 C 0.83679 0.84491 0.64458 0.0
O20 O 0.92665 0.8399 0.60672 0.0
O21 O 0.88722 0.85484 0.58235 0.0
O22 O 0.91341 0.7674 0.57775 0.0
C23 C 0.91372 0.86024 0.59106 0.0
O24 O 0.86099 0.85335 0.65731 0.0
C25 C 0.89765 0.76621 0.55395 0.0
O26 O 0.8368 0.82425 0.62429 0.0
O27 O 0.87347 0.78166 0.55366 0.0
C28 C 0.03153 0.75377 0.26377 0.0
O29 O 0.00546 0.76369 0.26906 0.0
Cd30 Cd 0.02488 0.80081 0.30508 0.0
O31 O 0.05279 0.76472 0.27923 0.0
Cd32 Cd 0.03662 0.8023 0.32092 0.0
C33 C 0.08908 0.82797 0.29133 0.0
O34 O -0.00528 0.84178 0.30858 0.0
O35 O 0.03487 0.85708 0.33102 0.0
O36 O 0.00043 0.7688 0.34473 0.0
C37 C 0.00912 0.86342 0.32065 0.0
O38 O 0.06443 0.82657 0.27731 0.0
C39 C 0.01273 0.76907 0.37052 0.0
O40 O 0.09042 0.81593 0.31725 0.0
O41 O 0.03727 0.78346 0.37306 0.0
C42 C 0.9078 0.16548 0.24797 0.0
O43 O 0.92216 0.14287 0.23764 0.0
Cd44 Cd 0.92128 0.09363 0.26055 0.0
O45 O 0.89595 0.16447 0.27395 0.0
Cd46 Cd 0.89627 0.12999 0.31762 0.0
C47 C 0.84547 0.09058 0.27937 0.0
O48 O 0.93819 0.0948 0.31075 0.0
O49 O 0.9013 0.07979 0.33824 0.0
O50 O 0.927 0.16591 0.34382 0.0
C51 C 0.92689 0.07434 0.32722 0.0
O52 O 0.86849 0.08151 0.26499 0.0
C53 C 0.91081 0.16822 0.36713 0.0
O54 O 0.84739 0.11129 0.29951 0.0
O55 O 0.88606 0.15396 0.36686 0.0
C56 C 0.67257 0.01771 0.16307 0.0
O57 O 0.68097 0.0023 0.14038 0.0
Cd58 Cd 0.65591 0.00391 0.09232 0.0
O59 O 0.64719 0.03084 0.16307 0.0
Cd60 Cd 0.60221 0.03195 0.13053 0.0
C61 C 0.64066 0.08159 0.0905 0.0
O62 O 0.60527 -0.00989 0.09422 0.0
O63 O 0.58008 0.02998 0.08115 0.0
O64 O 0.57625 0.00086 0.16586 0.0
C65 C 0.58902 0.00345 0.0747 0.0
O66 O 0.65332 0.05754 0.08079 0.0
C67 C 0.55359 0.01799 0.16884 0.0
O68 O 0.6216 0.08071 0.11189 0.0
O69 O 0.55441 0.04358 0.15563 0.0
C70 C 0.244 0.91313 0.15789 0.0
O71 O 0.23403 0.92743 0.13519 0.0
Cd72 Cd 0.25828 0.92761 0.08676 0.0
O73 O 0.27018 0.90177 0.15751 0.0
Cd74 Cd 0.31419 0.90209 0.12415 0.0
C75 C 0.27708 0.85086 0.08365 0.0
O76 O 0.30846 0.94341 0.08791 0.0
O77 O 0.33554 0.90478 0.07475 0.0
O78 O 0.33972 0.93459 0.15906 0.0
C79 C 0.32498 0.93064 0.06824 0.0
O80 O 0.26318 0.87431 0.07436 0.0
C81 C 0.36266 0.91795 0.16253 0.0
O82 O 0.29637 0.85255 0.10496 0.0
O83 O 0.36245 0.89215 0.14945 0.0
C84 C 0.6716 0.91404 0.77391 0.0
O85 O 0.68098 0.92834 0.79695 0.0
Cd86 Cd 0.65559 0.9273 0.84478 0.0
O87 O 0.64568 0.90234 0.77373 0.0
Cd88 Cd 0.60093 0.90168 0.80571 0.0
C89 C 0.63836 0.85026 0.84539 0.0
O90 O 0.60529 0.94315 0.84214 0.0
O91 O 0.578 0.90479 0.85455 0.0
O92 O 0.57663 0.93368 0.76974 0.0
C93 C 0.58823 0.93071 0.86131 0.0
O94 O 0.65163 0.87365 0.8557 0.0
C95 C 0.55392 0.91704 0.76549 0.0
O96 O 0.61939 0.85221 0.82385 0.0
O97 O 0.55371 0.89148 0.77879 0.0
C98 C 0.24627 0.01674 0.76301 0.0
O99 O 0.23678 0.001 0.78483 0.0
Cd100 Cd 0.25979 0.00176 0.83409 0.0
O101 O 0.27154 0.02973 0.76467 0.0
Cd102 Cd 0.31499 0.03027 0.79887 0.0
C103 C 0.27499 0.07922 0.83891 0.0
O104 O 0.31072 -0.01187 0.83431 0.0
O105 O 0.33608 0.02745 0.84852 0.0
O106 O 0.34149 -0.00042 0.7633 0.0
C107 C 0.3264 0.00121 0.85452 0.0
O108 O 0.26189 0.05509 0.84726 0.0
C109 C 0.36394 0.01683 0.76067 0.0
O110 O 0.29487 0.07867 0.81828 0.0
O111 O 0.36298 0.04215 0.77463 0.0
C112 C 0.1546 0.68274 0.00961 0.0
O113 O 0.13129 0.69288 -0.00337 0.0
Cd114 Cd 0.08358 0.66782 -0.00041 0.0
O115 O 0.15494 0.65617 0.0205 0.0
Cd116 Cd 0.12213 0.61149 0.02061 0.0
C117 C 0.08623 0.64804 0.07532 0.0
O118 O 0.08407 0.61758 -0.01881 0.0
O119 O 0.07286 0.58988 0.01964 0.0
O120 O 0.15581 0.58531 -0.01261 0.0
C121 C 0.06533 0.60044 -0.00581 0.0
O122 O 0.07476 0.66262 0.05337 0.0
C123 C 0.15991 0.56239 0.00406 0.0
O124 O 0.10705 0.62858 0.07113 0.0
O125 O 0.14762 0.56291 0.02994 0.0
C126 C 0.15002 0.24581 0.91448 0.0
O127 O 0.12712 0.23575 0.92796 0.0
Cd128 Cd 0.07889 0.26036 0.9281 0.0
O129 O 0.14998 0.2723 0.90333 0.0
Cd130 Cd 0.11781 0.31766 0.90183 0.0
C131 C 0.07657 0.27863 0.85167 0.0
O132 O 0.08362 0.31095 0.94363 0.0
O133 O 0.07074 0.34382 0.91002 0.0
O134 O 0.1554 0.34337 0.93088 0.0
C135 C 0.06446 0.33002 0.93415 0.0
O136 O 0.06724 0.26478 0.87493 0.0
C137 C 0.15805 0.36586 0.91341 0.0
O138 O 0.09739 0.29835 0.85349 0.0
O139 O 0.14321 0.36509 0.88882 0.0
C140 C 0.76455 0.67964 0.90712 0.0
O141 O 0.78757 0.6894 0.92083 0.0
Cd142 Cd 0.83551 0.66437 0.91859 0.0
O143 O 0.76449 0.65331 0.8954 0.0
Cd144 Cd 0.79714 0.60821 0.89452 0.0
C145 C 0.8349 0.64521 0.84213 0.0
O146 O 0.83416 0.61379 0.93492 0.0
O147 O 0.84626 0.58582 0.89662 0.0
O148 O 0.76242 0.58368 0.92721 0.0
C149 C 0.85332 0.59667 0.92217 0.0
O150 O 0.84535 0.65919 0.86504 0.0
C151 C 0.75851 0.56026 0.91102 0.0
O152 O 0.81379 0.62596 0.84468 0.0
O153 O 0.77141 0.55968 0.88543 0.0
C154 C 0.76596 0.24908 0.02063 0.0
O155 O 0.78937 0.23835 0.00837 0.0
Cd156 Cd 0.83697 0.26365 0.00627 0.0
O157 O 0.76502 0.2765 0.02955 0.0
Cd158 Cd 0.79663 0.32214 0.02747 0.0
C159 C 0.83889 0.28914 0.08071 0.0
O160 O 0.83132 0.31238 -0.01366 0.0
O161 O 0.84333 0.34787 0.0178 0.0
O162 O 0.75938 0.34561 -0.00394 0.0
C163 C 0.84995 0.33247 -0.00543 0.0
O164 O 0.84873 0.27346 0.05867 0.0
C165 C 0.75645 0.36948 0.01184 0.0
O166 O 0.81727 0.30789 0.07738 0.0
O167 O 0.77074 0.3705 0.03674 0.0
H168 H -0.035 0.19555 0.37428 0.0
H169 H 0.9541 0.19082 0.55303 0.0
H170 H 0.8847 0.17326 0.42294 0.0
H171 H 0.03548 0.17525 0.50319 0.0
H172 H 0.92853 0.20366 0.50609 0.0
H173 H -0.01021 0.20736 0.42196 0.0
C174 C 0.95229 0.19385 0.39492 0.0
C175 C 0.92288 0.18272 0.39469 0.0
C176 C 0.95214 0.19809 0.50556 0.0
C177 C 0.95126 0.19629 0.44923 0.0
C178 C -0.03315 0.19086 0.53234 0.0
C179 C -0.00313 0.18128 0.53193 0.0
C180 C -0.03239 0.19601 0.47825 0.0
C181 C 0.01224 0.18208 0.50448 0.0
C182 C -0.03344 0.20052 0.42211 0.0
C183 C 0.90751 0.18134 0.42211 0.0
N184 N -0.0027 0.18885 0.47861 0.0
N185 N 0.92204 0.18759 0.44838 0.0
H186 H 0.03432 0.76101 0.42786 0.0
H187 H 0.94668 0.7295 0.5498 0.0
H188 H 0.95501 0.74962 0.3733 0.0
H189 H 0.87818 0.77177 0.49542 0.0
H190 H -0.02435 0.71943 0.50435 0.0
H191 H 0.00505 0.74898 0.47254 0.0
C192 C 0.01093 0.75525 0.42521 0.0
C193 C -0.00294 0.75651 0.39688 0.0
C194 C 0.95417 0.73066 0.50234 0.0
C195 C -0.03665 0.74267 0.44783 0.0
C196 C 0.93741 0.73612 0.52822 0.0
C197 C 0.9103 0.75222 0.52646 0.0
C198 C 0.94378 0.7415 0.47455 0.0
C199 C 0.89916 0.75969 0.49785 0.0
C200 C -0.00578 0.74814 0.4507 0.0
C201 C -0.03339 0.74898 0.39474 0.0
N202 N 0.91622 0.75471 0.47299 0.0
N203 N 0.95061 0.74306 0.41997 0.0
H204 H 0.41724 0.89032 0.17115 0.0
H205 H 0.49889 0.04608 0.17453 0.0
H206 H 0.37005 -0.02555 0.18645 0.0
H207 H 0.54494 0.96204 0.19303 0.0
H208 H 0.45132 0.02096 0.18453 0.0
H209 H 0.46406 0.91562 0.18457 0.0
C210 C 0.41662 0.9139 0.17799 0.0
C211 C 0.38978 0.9304 0.17715 0.0
C212 C 0.4719 0.00819 0.18708 0.0
C213 C 0.44324 0.95964 0.19192 0.0
C214 C 0.49908 0.02259 0.18144 0.0
C215 C 0.52588 0.00602 0.18237 0.0
C216 C 0.47158 -0.02305 0.19313 0.0
C217 C 0.52477 -0.02438 0.19156 0.0
C218 C 0.44336 0.92837 0.18563 0.0
C219 C 0.39029 0.96091 0.18636 0.0
N220 N 0.49804 0.96188 0.1959 0.0
N221 N 0.41666 -0.02529 0.19271 0.0
H222 H 0.49983 0.88947 0.7551 0.0
H223 H 0.41841 0.04496 0.75565 0.0
H224 H 0.54714 -0.02676 0.74115 0.0
H225 H 0.37249 0.96186 0.73373 0.0
H226 H 0.46596 0.02001 0.74408 0.0
H227 H 0.45322 0.91502 0.74105 0.0
C228 C 0.50054 0.91301 0.74838 0.0
C229 C 0.52729 0.92939 0.74993 0.0
C230 C 0.44541 0.00745 0.7411 0.0
C231 C 0.47408 0.95891 0.73448 0.0
C232 C 0.41825 0.02174 0.74767 0.0
C233 C 0.39153 0.00529 0.74632 0.0
C234 C 0.44577 -0.02357 0.73371 0.0
C235 C 0.39262 -0.02473 0.73565 0.0
C236 C 0.47392 0.92763 0.74037 0.0
C237 C 0.52693 0.95983 0.74078 0.0
N238 N 0.41935 0.96158 0.73047 0.0
N239 N 0.50064 -0.0262 0.73415 0.0
H240 H 0.18634 0.37491 -0.03272 0.0
H241 H 0.18211 0.5538 0.94747 0.0
H242 H 0.16412 0.42014 0.8841 0.0
H243 H 0.16995 0.50797 0.0322 0.0
H244 H 0.19425 0.50532 0.92374 0.0
H245 H 0.19921 0.42374 -0.01028 0.0
C246 C 0.1849 0.395 0.95344 0.0
C247 C 0.17344 0.39354 0.92394 0.0
C248 C 0.18956 0.50601 0.94766 0.0
C249 C 0.18814 0.4494 0.94962 0.0
C250 C 0.1827 0.53366 0.9613 0.0
C251 C 0.17434 0.53482 -0.00823 0.0
C252 C 0.18826 0.47938 -0.03537 0.0
C253 C 0.17582 0.50804 0.00857 0.0
C254 C 0.19217 0.42286 -0.03364 0.0
C255 C 0.17241 0.42028 0.90704 0.0
N256 N 0.18217 0.48129 -0.00534 0.0
N257 N 0.17918 0.44724 0.92029 0.0
H258 H 0.73315 0.55504 -0.03347 0.0
H259 H 0.73099 0.37514 0.95614 0.0
H260 H 0.75052 0.50412 0.88514 0.0
H261 H 0.74894 0.42564 0.03771 0.0
H262 H 0.71934 0.4225 0.93039 0.0
H263 H 0.72024 0.50807 -0.00798 0.0
C264 C 0.73357 0.53408 0.95376 0.0
C265 C 0.74359 0.53341 0.92379 0.0
C266 C 0.72517 0.42311 0.95409 0.0
C267 C 0.72878 0.47966 0.95296 0.0
C268 C 0.73171 0.39609 -0.03109 0.0
C269 C 0.74161 0.39651 -0.001 0.0
C270 C 0.72831 0.45068 -0.03047 0.0
C271 C 0.74183 0.42432 0.0144 0.0
C272 C 0.72625 0.50729 -0.03159 0.0
C273 C 0.74332 0.50563 0.90836 0.0
N274 N 0.73575 0.45039 -0.00065 0.0
N275 N 0.7365 0.47973 0.92327 0.0
H276 H 0.08948 0.02534 0.65348 0.0
H277 H 0.25124 0.06117 0.72039 0.0
H278 H 0.1329 0.1116 0.64243 0.0
H279 H 0.19632 -0.01459 0.74596 0.0
H280 H 0.2143 0.07455 0.68174 0.0
H281 H 0.13498 0.00511 0.67607 0.0
C282 C 0.10885 0.03991 0.65541 0.0
C283 C 0.10732 0.07035 0.64664 0.0
C284 C 0.21062 0.05476 0.69553 0.0
C285 C 0.15938 0.04744 0.67302 0.0
C286 C 0.2317 0.04702 0.71754 0.0
C287 C 0.22662 0.02235 0.73673 0.0
C288 C 0.18447 0.03752 0.69256 0.0
C289 C 0.20095 0.00484 0.73198 0.0
C290 C 0.1348 0.02835 0.66838 0.0
C291 C 0.13317 0.08806 0.64913 0.0
N292 N 0.18076 0.01291 0.71054 0.0
N293 N 0.15809 0.07649 0.66267 0.0
H294 H 0.66469 0.87359 0.72733 0.0
H295 H 0.83053 0.90112 0.66824 0.0
H296 H 0.72496 0.94157 0.76212 0.0
H297 H 0.7796 0.82149 0.64509 0.0
H298 H 0.78708 0.92211 0.69369 0.0
H299 H 0.70178 0.8601 0.68906 0.0
C300 C 0.68551 0.88602 0.72665 0.0
C301 C 0.69189 0.90854 0.74821 0.0
C302 C 0.7852 0.90017 0.68283 0.0
C303 C 0.73426 0.89318 0.70449 0.0
C304 C 0.81001 0.88815 0.66825 0.0
C305 C 0.80879 0.85925 0.65502 0.0
C306 C 0.7589 0.88311 0.68454 0.0
C307 C 0.78148 0.84376 0.6552 0.0
C308 C 0.70667 0.8782 0.70485 0.0
C309 C 0.71919 0.92386 0.7462 0.0
N310 N 0.75763 0.8557 0.67023 0.0
N311 N 0.73941 0.91575 0.72489 0.0
H312 H 0.18824 0.93651 0.16823 0.0
H313 H 0.14991 0.82132 0.30148 0.0
H314 H 0.25366 0.875 0.20577 0.0
H315 H 0.0852 0.8722 0.24983 0.0
H316 H 0.19024 0.84688 0.27375 0.0
H317 H 0.15247 0.92001 0.20587 0.0
C318 C 0.19523 0.91978 0.18461 0.0
C319 C 0.22387 0.90681 0.1835 0.0
C320 C 0.16717 0.85256 0.26879 0.0
C321 C 0.18275 0.88743 0.22658 0.0
C322 C 0.14424 0.83805 0.28461 0.0
C323 C 0.11425 0.84434 0.27757 0.0
C324 C 0.15983 0.87368 0.24625 0.0
C325 C 0.10802 0.86625 0.25562 0.0
C326 C 0.17473 0.91027 0.20609 0.0
C327 C 0.23171 0.88544 0.20561 0.0
N328 N 0.13054 0.87998 0.24073 0.0
N329 N 0.21112 0.8761 0.22603 0.0
H330 H 0.72312 -0.01436 0.17677 0.0
H331 H 0.7886 0.11489 0.28387 0.0
H332 H 0.67083 0.06268 0.20593 0.0
H333 H 0.8366 0.03454 0.25622 0.0
H334 H 0.74262 0.09323 0.26221 0.0
H335 H 0.76212 -0.00016 0.21249 0.0
C336 C 0.71968 0.00535 0.19099 0.0
C337 C 0.69387 0.0232 0.18806 0.0
C338 C 0.76317 0.08021 0.26133 0.0
C339 C 0.73877 0.04005 0.22877 0.0
C340 C 0.78934 0.09253 0.27376 0.0
C341 C 0.8165 0.07673 0.27128 0.0
C342 C 0.76438 0.05195 0.24654 0.0
C343 C 0.81626 0.0478 0.25805 0.0
C344 C 0.74199 0.01351 0.21142 0.0
C345 C 0.69048 0.04835 0.20733 0.0
N346 N 0.79076 0.03653 0.24595 0.0
N347 N 0.71293 0.05634 0.22653 0.0
H348 H 0.659 0.08983 0.03324 0.0
H349 H 0.72122 0.25666 0.06215 0.0
H350 H 0.64337 0.13867 0.11615 0.0
H351 H 0.7531 0.19505 -0.00647 0.0
H352 H 0.68339 0.21932 0.0764 0.0
H353 H 0.68309 0.13431 0.0125 0.0
C354 C 0.66034 0.11014 0.04698 0.0
C355 C 0.64971 0.11043 0.07667 0.0
C356 C 0.69844 0.21423 0.05798 0.0
C357 C 0.67772 0.16144 0.05312 0.0
C358 C 0.71994 0.23552 0.04974 0.0
C359 C 0.74055 0.22878 0.02681 0.0
C360 C 0.69737 0.18625 0.0429 0.0
C361 C 0.73792 0.20106 0.01156 0.0
C362 C 0.67415 0.13552 0.03512 0.0
C363 C 0.65149 0.13751 0.09323 0.0
N364 N 0.71686 0.1808 0.01998 0.0
N365 N 0.66578 0.16191 0.08138 0.0
H366 H 0.16834 0.73483 -0.02016 0.0
H367 H 0.27751 0.79355 0.10839 0.0
H368 H 0.19885 0.6773 0.05213 0.0
H369 H 0.25811 0.84207 0.02644 0.0
H370 H 0.25422 0.74819 0.08615 0.0
H371 H 0.20598 0.77202 -0.00589 0.0
C372 C 0.18324 0.72987 -0.0015 0.0
C373 C 0.18023 0.70311 0.01501 0.0
C374 C 0.2556 0.76865 0.07289 0.0
C375 C 0.22314 0.74587 0.03195 0.0
C376 C 0.26899 0.79443 0.08553 0.0
C377 C 0.26914 0.82168 0.06944 0.0
C378 C 0.24241 0.77038 0.04407 0.0
C379 C 0.25783 0.82168 0.0399 0.0
C380 C 0.2048 0.7511 0.00667 0.0
C381 C 0.20034 0.69773 0.03884 0.0
N382 N 0.24462 0.79663 0.02837 0.0
N383 N 0.22062 0.71918 0.04697 0.0
H384 H 0.7193 0.67415 0.86557 0.0
H385 H 0.65691 0.83966 0.90243 0.0
H386 H 0.75102 0.73177 0.93766 0.0
H387 H 0.63996 0.79407 0.81793 0.0
H388 H 0.68087 0.79403 0.92149 0.0
H389 H 0.6808 0.71196 0.85367 0.0
C390 C 0.71786 0.69449 0.87924 0.0
C391 C 0.73865 0.70003 0.90243 0.0
C392 C 0.67163 0.79378 0.8989 0.0
C393 C 0.69468 0.74313 0.88897 0.0
C394 C 0.65788 0.81981 0.888 0.0
C395 C 0.64698 0.82077 0.85835 0.0
C396 C 0.67485 0.7685 0.87994 0.0
C397 C 0.6483 0.79426 0.84086 0.0
C398 C 0.69594 0.71606 0.87234 0.0
C399 C 0.73572 0.72674 0.91936 0.0
N400 N 0.66256 0.76924 0.85175 0.0
N401 N 0.7143 0.74735 0.91216 0.0
H402 H 0.27609 0.13744 0.8164 0.0
H403 H 0.16415 0.19341 0.94381 0.0
H404 H 0.25265 0.08578 0.89505 0.0
H405 H 0.19421 0.25166 0.87233 0.0
H406 H 0.20201 0.15633 0.92943 0.0
H407 H 0.25206 0.18218 0.83923 0.0
C408 C 0.26643 0.13569 0.83865 0.0
C409 C 0.26574 0.1078 0.85359 0.0
C410 C 0.20065 0.17736 0.91706 0.0
C411 C 0.23828 0.15843 0.87967 0.0
C412 C 0.17898 0.19854 0.92529 0.0
C413 C 0.17575 0.22545 0.909 0.0
C414 C 0.21893 0.18283 0.89196 0.0
C415 C 0.19582 0.23108 0.8854 0.0
C416 C 0.25265 0.16113 0.85164 0.0
C417 C 0.25305 0.1067 0.88242 0.0
N418 N 0.21624 0.20969 0.87722 0.0
N419 N 0.23955 0.13149 0.89431 0.0
H420 H 0.08392 0.72399 0.25245 0.0
H421 H 0.03129 0.66898 0.09087 0.0
H422 H -0.00689 0.73274 0.22022 0.0
H423 H 0.11677 0.64424 0.12909 0.0
H424 H 0.01567 0.68848 0.13974 0.0
H425 H 0.09534 0.6913 0.20949 0.0
C426 C 0.06628 0.7188 0.23647 0.0
C427 C 0.03759 0.73142 0.23969 0.0
C428 C 0.03771 0.67845 0.13766 0.0
C429 C 0.0506 0.69412 0.19037 0.0
C430 C 0.04668 0.66736 0.10972 0.0
C431 C 0.07552 0.65537 0.10589 0.0
C432 C 0.05789 0.67806 0.16192 0.0
C433 C 0.09438 0.65344 0.13111 0.0
C434 C 0.07282 0.70003 0.21199 0.0
C435 C 0.01557 0.72368 0.21849 0.0
N436 N 0.08541 0.66518 0.15802 0.0
N437 N 0.02265 0.70583 0.19451 0.0
H438 H 0.05513 0.20131 0.67398 0.0
H439 H 0.02093 0.25683 0.84175 0.0
H440 H -0.0142 0.16547 0.73087 0.0
H441 H 0.10228 0.27959 0.79524 0.0
H442 H 0.00204 0.23297 0.79608 0.0
H443 H 0.06708 0.23867 0.71323 0.0
C444 C 0.04209 0.2016 0.69449 0.0
C445 C 0.01962 0.18001 0.69932 0.0
C446 C 0.02389 0.24344 0.79564 0.0
C447 C 0.03314 0.22266 0.74408 0.0
C448 C 0.0347 0.25713 0.82171 0.0
C449 C 0.06344 0.26973 0.82239 0.0
C450 C 0.04203 0.24198 0.76998 0.0
C451 C 0.08006 0.26996 0.79566 0.0
C452 C 0.04902 0.22286 0.71688 0.0
C453 C 0.0035 0.18143 0.7263 0.0
N454 N 0.06929 0.25576 0.77055 0.0
N455 N 0.0107 0.20223 0.74769 0.0
H456 H 0.89196 0.66096 0.83047 0.0
H457 H 0.85383 0.72677 0.66782 0.0
H458 H 0.80661 0.64781 0.78685 0.0
H459 H 0.93033 0.75197 0.72187 0.0
H460 H 0.841 0.68844 0.70529 0.0
H461 H 0.91104 0.68381 0.7847 0.0
C462 C 0.87734 0.66253 0.811 0.0
C463 C 0.84751 0.65301 0.81255 0.0
C464 C 0.86081 0.70208 0.70867 0.0
C465 C 0.86909 0.67971 0.76014 0.0
C466 C 0.86823 0.7239 0.68728 0.0
C467 C 0.89299 0.7429 0.69195 0.0
C468 C 0.87843 0.69912 0.73472 0.0
C469 C 0.91083 0.73814 0.71753 0.0
C470 C 0.88824 0.67564 0.78489 0.0
C471 C 0.8297 0.65506 0.78656 0.0
N472 N 0.90306 0.7169 0.73803 0.0
N473 N 0.84062 0.66876 0.76147 0.0
H474 H 0.94018 0.183 0.19915 0.0
H475 H 0.81166 0.28912 0.1363 0.0
H476 H 0.86333 0.20819 0.25232 0.0
H477 H 0.89643 0.27447 0.09249 0.0
H478 H 0.83238 0.2663 0.18234 0.0
H479 H 0.92713 0.22229 0.16305 0.0
C480 C 0.92073 0.19707 0.20339 0.0
C481 C 0.90261 0.19206 0.22853 0.0
C482 C 0.84662 0.26874 0.16284 0.0
C483 C 0.88711 0.23688 0.18698 0.0
C484 C 0.83484 0.28192 0.13668 0.0
C485 C 0.85224 0.28312 0.11051 0.0
C486 C 0.87585 0.25675 0.16254 0.0
C487 C 0.8821 0.27341 0.11207 0.0
C488 C 0.91327 0.2196 0.1828 0.0
C489 C 0.87783 0.21121 0.2331 0.0
N490 N 0.8928 0.26025 0.13743 0.0
N491 N 0.87046 0.23244 0.2122 0.0
H492 H 0.02607 0.01855 0.57407 0.0
H493 H 0.8836 0.91205 0.57734 0.0
H494 H 0.93904 0.05115 0.60113 0.0
H495 H -0.02794 0.87823 0.59782 0.0
H496 H 0.90362 0.96335 0.5751 0.0
H497 H 0.00627 -0.03302 0.57186 0.0
C498 C 0.00271 0.0149 0.57923 0.0
C499 C -0.0159 0.0391 0.58786 0.0
C500 C 0.91863 0.94466 0.57996 0.0
C501 C -0.03852 -0.01962 0.58514 0.0
C502 C 0.90732 0.91537 0.58108 0.0
C503 C 0.92625 0.89087 0.58787 0.0
C504 C 0.94916 0.94944 0.5851 0.0
C505 C 0.95673 0.89654 0.59266 0.0
C506 C -0.00845 -0.01451 0.57814 0.0
C507 C 0.9541 0.03308 0.59449 0.0
N508 N -0.03267 0.92532 0.59106 0.0
N509 N 0.94365 0.00426 0.59287 0.0
H510 H 0.89859 0.0224 0.34346 0.0
H511 H 0.04079 0.91532 0.32884 0.0
H512 H -0.01618 0.05598 0.31319 0.0
H513 H 0.95093 0.88245 0.31551 0.0
H514 H 0.02128 -0.03287 0.33136 0.0
H515 H 0.91866 -0.02913 0.34205 0.0
C516 C 0.92163 0.01897 0.33677 0.0
C517 C 0.93961 0.04349 0.32837 0.0
C518 C 0.00589 0.94856 0.32784 0.0
C519 C -0.0374 -0.01536 0.32685 0.0
C520 C 0.01693 0.91902 0.32652 0.0
C521 C -0.00262 0.89462 0.32196 0.0
C522 C -0.02496 0.95365 0.32516 0.0
C523 C -0.03328 0.90067 0.31895 0.0
C524 C 0.93295 -0.01045 0.33578 0.0
C525 C -0.03077 0.03768 0.31975 0.0
N526 N 0.95642 0.92963 0.32084 0.0
N527 N -0.02011 0.00879 0.31933 0.0
H528 H 0.5982 -0.01153 0.8817 0.0
H529 H 0.59638 0.94512 0.05452 0.0
H530 H 0.57242 0.89942 0.91147 0.0
H531 H 0.57528 0.03552 0.02424 0.0
H532 H 0.59392 0.92743 0.00202 0.0
H533 H 0.59615 0.00624 0.93416 0.0
C534 C 0.59197 -0.02724 0.89923 0.0
C535 C 0.58541 0.94251 0.89229 0.0
C536 C 0.58963 0.95108 0.00703 0.0
C537 C 0.58359 0.96239 0.95202 0.0
C538 C 0.5911 0.96115 0.03687 0.0
C539 C 0.58596 -0.00824 0.04368 0.0
C540 C 0.58369 -0.02807 -0.01607 0.0
C541 C 0.57923 0.01167 0.01999 0.0
C542 C 0.59075 -0.01712 0.92906 0.0
C543 C 0.57749 0.923 0.91583 0.0
N544 N 0.57861 0.00147 -0.00889 0.0
N545 N 0.57712 0.93319 0.94472 0.0
H546 H 0.3146 -0.01173 0.04781 0.0
H547 H 0.31723 0.94327 0.87447 0.0
H548 H 0.33918 0.89844 0.01781 0.0
H549 H 0.33884 0.03344 0.90542 0.0
H550 H 0.31802 0.92603 0.92703 0.0
H551 H 0.31613 0.0054 -0.00474 0.0
C552 C 0.32039 -0.02776 0.0302 0.0
C553 C 0.32691 0.94199 0.03712 0.0
C554 C 0.32273 0.94954 0.92216 0.0
C555 C 0.32814 0.96115 -0.02269 0.0
C556 C 0.32224 0.95935 0.89228 0.0
C557 C 0.32812 -0.01026 0.88563 0.0
C558 C 0.32845 -0.02955 0.94542 0.0
C559 C 0.33441 0.00973 0.90953 0.0
C560 C 0.32132 -0.01801 0.00033 0.0
C561 C 0.33423 0.92204 0.01348 0.0
N562 N 0.33413 -0.0002 0.9384 0.0
N563 N 0.33438 0.93191 -0.01542 0.0
H564 H 0.90284 0.5822 0.88951 0.0
H565 H 0.01636 0.58536 0.02706 0.0
H566 H 0.87471 0.60704 -0.02077 0.0
H567 H 0.04349 0.60939 0.9371 0.0
H568 H -0.03558 0.58311 0.00981 0.0
H569 H 0.95482 0.58191 0.9068 0.0
C570 C 0.90758 0.5873 0.91294 0.0
C571 C 0.88446 0.59466 0.93304 0.0
C572 C -0.01821 0.58879 -0.00612 0.0
C573 C 0.94376 0.59414 0.95283 0.0
C574 C 0.01142 0.58991 0.00359 0.0
C575 C 0.03423 0.59759 -0.01659 0.0
C576 C -0.02501 0.59478 -0.03634 0.0
C577 C 0.02653 0.60346 0.95335 0.0
C578 C 0.93723 0.58732 0.92267 0.0
C579 C 0.8919 0.60132 -0.03695 0.0
N580 N -0.00251 0.60176 0.94429 0.0
N581 N 0.92098 0.60073 -0.02787 0.0
H582 H 0.03359 0.28523 0.96264 0.0
H583 H 0.88686 0.38112 -0.00758 0.0
H584 H 0.02542 0.37728 0.93139 0.0
H585 H 0.88289 0.28578 -0.02887 0.0
H586 H 0.93989 0.38117 -0.02147 0.0
H587 H -0.01967 0.28599 -0.02409 0.0
C588 C 0.0207 0.30573 0.95907 0.0
C589 C 0.03378 0.33127 0.94597 0.0
C590 C 0.92729 0.36034 -0.02331 0.0
C591 C -0.02669 0.33223 0.96099 0.0
C592 C 0.89713 0.3603 -0.01549 0.0
C593 C 0.88058 0.33345 -0.01732 0.0
C594 C 0.94109 0.33316 -0.03214 0.0
C595 C 0.89487 0.307 -0.02749 0.0
C596 C -0.00965 0.30602 -0.0337 0.0
C597 C 0.01607 0.35715 0.94144 0.0
N598 N 0.92451 0.30741 -0.03416 0.0
N599 N -0.0133 0.35705 0.94909 0.0
loop_
_geom_bond_atom_site_label_1
_geom_bond_atom_site_label_2
_geom_bond_distance
_geom_bond_site_symmetry_2
_ccdc_geom_bond_type
C0 O1 1.306 . S
C0 O3 1.160 . S
O1 C0 1.306 . S
O1 Cd2 2.228 . S
Cd2 O1 2.228 . S
Cd2 O6 2.273 . S
Cd2 O10 2.277 . S
O3 C0 1.160 . S
O3 Cd4 2.203 . S
Cd4 O3 2.203 . S
Cd4 O6 2.411 . S
Cd4 O7 2.333 . S
Cd4 O8 2.352 . S
Cd4 O12 2.277 . S
Cd4 O13 2.356 . S
C5 O10 1.209 . S
C5 O12 1.226 . S
O6 Cd2 2.273 . S
O6 Cd4 2.411 . S
O6 C9 1.320 . S
O7 Cd4 2.333 . S
O7 C9 1.214 . S
O8 Cd4 2.352 . S
O8 C11 1.258 . S
C9 O6 1.320 . S
C9 O7 1.214 . S
O10 Cd2 2.277 . S
O10 C5 1.209 . S
C11 O8 1.258 . S
C11 O13 1.282 . S
O12 Cd4 2.277 . S
O12 C5 1.226 . S
O13 Cd4 2.356 . S
O13 C11 1.282 . S
C14 O15 1.306 . S
C14 O17 1.160 . S
O15 C14 1.306 . S
O15 Cd16 2.228 . S
Cd16 O15 2.228 . S
Cd16 O20 2.273 . S
Cd16 O24 2.277 . S
O17 C14 1.160 . S
O17 Cd18 2.203 . S
Cd18 O17 2.203 . S
Cd18 O20 2.411 . S
Cd18 O21 2.333 . S
Cd18 O22 2.352 . S
Cd18 O26 2.277 . S
Cd18 O27 2.356 . S
C19 O24 1.209 . S
C19 O26 1.226 . S
O20 Cd16 2.273 . S
O20 Cd18 2.411 . S
O20 C23 1.320 . S
O21 Cd18 2.333 . S
O21 C23 1.214 . S
O22 Cd18 2.352 . S
O22 C25 1.258 . S
C23 O20 1.320 . S
C23 O21 1.214 . S
O24 Cd16 2.277 . S
O24 C19 1.209 . S
C25 O22 1.258 . S
C25 O27 1.282 . S
O26 Cd18 2.277 . S
O26 C19 1.226 . S
O27 Cd18 2.356 . S
O27 C25 1.282 . S
C28 O29 1.306 . S
C28 O31 1.160 . S
O29 C28 1.306 . S
O29 Cd30 2.228 . S
Cd30 O29 2.228 . S
Cd30 O34 2.273 . S
Cd30 O38 2.277 . S
O31 C28 1.160 . S
O31 Cd32 2.203 . S
Cd32 O31 2.203 . S
Cd32 O34 2.411 . S
Cd32 O35 2.333 . S
Cd32 O36 2.352 . S
Cd32 O40 2.277 . S
Cd32 O41 2.356 . S
C33 O38 1.209 . S
C33 O40 1.226 . S
O34 Cd30 2.273 . S
O34 Cd32 2.411 . S
O34 C37 1.320 . S
O35 Cd32 2.333 . S
O35 C37 1.214 . S
O36 Cd32 2.352 . S
O36 C39 1.258 . S
C37 O34 1.320 . S
C37 O35 1.214 . S
O38 Cd30 2.277 . S
O38 C33 1.209 . S
C39 O36 1.258 . S
C39 O41 1.282 . S
O40 Cd32 2.277 . S
O40 C33 1.226 . S
O41 Cd32 2.356 . S
O41 C39 1.282 . S
C42 O43 1.306 . S
C42 O45 1.160 . S
O43 C42 1.306 . S
O43 Cd44 2.228 . S
Cd44 O43 2.228 . S
Cd44 O48 2.273 . S
Cd44 O52 2.277 . S
O45 C42 1.160 . S
O45 Cd46 2.203 . S
Cd46 O45 2.203 . S
Cd46 O48 2.411 . S
Cd46 O49 2.333 . S
Cd46 O50 2.352 . S
Cd46 O54 2.277 . S
Cd46 O55 2.356 . S
C47 O52 1.209 . S
C47 O54 1.226 . S
O48 Cd44 2.273 . S
O48 Cd46 2.411 . S
O48 C51 1.320 . S
O49 Cd46 2.333 . S
O49 C51 1.214 . S
O50 Cd46 2.352 . S
O50 C53 1.258 . S
C51 O48 1.320 . S
C51 O49 1.214 . S
O52 Cd44 2.277 . S
O52 C47 1.209 . S
C53 O50 1.258 . S
C53 O55 1.282 . S
O54 Cd46 2.277 . S
O54 C47 1.226 . S
O55 Cd46 2.356 . S
O55 C53 1.282 . S
C56 O57 1.306 . S
C56 O59 1.160 . S
O57 C56 1.306 . S
O57 Cd58 2.228 . S
Cd58 O57 2.228 . S
Cd58 O62 2.273 . S
Cd58 O66 2.277 . S
O59 C56 1.160 . S
O59 Cd60 2.203 . S
Cd60 O59 2.203 . S
Cd60 O62 2.411 . S
Cd60 O63 2.333 . S
Cd60 O64 2.352 . S
Cd60 O68 2.277 . S
Cd60 O69 2.356 . S
C61 O66 1.209 . S
C61 O68 1.226 . S
O62 Cd58 2.273 . S
O62 Cd60 2.411 . S
O62 C65 1.320 . S
O63 Cd60 2.333 . S
O63 C65 1.214 . S
O64 Cd60 2.352 . S
O64 C67 1.258 . S
C65 O62 1.320 . S
C65 O63 1.214 . S
O66 Cd58 2.277 . S
O66 C61 1.209 . S
C67 O64 1.258 . S
C67 O69 1.282 . S
O68 Cd60 2.277 . S
O68 C61 1.226 . S
O69 Cd60 2.356 . S
O69 C67 1.282 . S
C70 O71 1.306 . S
C70 O73 1.160 . S
O71 C70 1.306 . S
O71 Cd72 2.228 . S
Cd72 O71 2.228 . S
Cd72 O76 2.273 . S
Cd72 O80 2.277 . S
O73 C70 1.160 . S
O73 Cd74 2.203 . S
Cd74 O73 2.203 . S
Cd74 O76 2.411 . S
Cd74 O77 2.333 . S
Cd74 O78 2.352 . S
Cd74 O82 2.277 . S
Cd74 O83 2.356 . S
C75 O80 1.209 . S
C75 O82 1.226 . S
O76 Cd72 2.273 . S
O76 Cd74 2.411 . S
O76 C79 1.320 . S
O77 Cd74 2.333 . S
O77 C79 1.214 . S
O78 Cd74 2.352 . S
O78 C81 1.258 . S
C79 O76 1.320 . S
C79 O77 1.214 . S
O80 Cd72 2.277 . S
O80 C75 1.209 . S
C81 O78 1.258 . S
C81 O83 1.282 . S
O82 Cd74 2.277 . S
O82 C75 1.226 . S
O83 Cd74 2.356 . S
O83 C81 1.282 . S
C84 O85 1.306 . S
C84 O87 1.160 . S
O85 C84 1.306 . S
O85 Cd86 2.228 . S
Cd86 O85 2.228 . S
Cd86 O90 2.273 . S
Cd86 O94 2.277 . S
O87 C84 1.160 . S
O87 Cd88 2.203 . S
Cd88 O87 2.203 . S
Cd88 O90 2.411 . S
Cd88 O91 2.333 . S
Cd88 O92 2.352 . S
Cd88 O96 2.277 . S
Cd88 O97 2.356 . S
C89 O94 1.209 . S
C89 O96 1.226 . S
O90 Cd86 2.273 . S
O90 Cd88 2.411 . S
O90 C93 1.320 . S
O91 Cd88 2.333 . S
O91 C93 1.214 . S
O92 Cd88 2.352 . S
O92 C95 1.258 . S
C93 O90 1.320 . S
C93 O91 1.214 . S
O94 Cd86 2.277 . S
O94 C89 1.209 . S
C95 O92 1.258 . S
C95 O97 1.282 . S
O96 Cd88 2.277 . S
O96 C89 1.226 . S
O97 Cd88 2.356 . S
O97 C95 1.282 . S
C98 O99 1.306 . S
C98 O101 1.160 . S
O99 C98 1.306 . S
O99 Cd100 2.228 . S
Cd100 O99 2.228 . S
Cd100 O104 2.273 . S
Cd100 O108 2.277 . S
O101 C98 1.160 . S
O101 Cd102 2.203 . S
Cd102 O101 2.203 . S
Cd102 O104 2.411 . S
Cd102 O105 2.333 . S
Cd102 O106 2.352 . S
Cd102 O110 2.277 . S
Cd102 O111 2.356 . S
C103 O108 1.209 . S
C103 O110 1.226 . S
O104 Cd100 2.273 . S
O104 Cd102 2.411 . S
O104 C107 1.320 . S
O105 Cd102 2.333 . S
O105 C107 1.214 . S
O106 Cd102 2.352 . S
O106 C109 1.258 . S
C107 O104 1.320 . S
C107 O105 1.214 . S
O108 Cd100 2.277 . S
O108 C103 1.209 . S
C109 O106 1.258 . S
C109 O111 1.282 . S
O110 Cd102 2.277 . S
O110 C103 1.226 . S
O111 Cd102 2.356 . S
O111 C109 1.282 . S
C112 O113 1.306 . S
C112 O115 1.160 . S
O113 C112 1.306 . S
O113 Cd114 2.228 . S
Cd114 O113 2.228 . S
Cd114 O118 2.273 . S
Cd114 O122 2.277 . S
O115 C112 1.160 . S
O115 Cd116 2.203 . S
Cd116 O115 2.203 . S
Cd116 O118 2.411 . S
Cd116 O119 2.333 . S
Cd116 O120 2.352 . S
Cd116 O124 2.277 . S
Cd116 O125 2.356 . S
C117 O122 1.209 . S
C117 O124 1.226 . S
O118 Cd114 2.273 . S
O118 Cd116 2.411 . S
O118 C121 1.320 . S
O119 Cd116 2.333 . S
O119 C121 1.214 . S
O120 Cd116 2.352 . S
O120 C123 1.258 . S
C121 O118 1.320 . S
C121 O119 1.214 . S
O122 Cd114 2.277 . S
O122 C117 1.209 . S
C123 O120 1.258 . S
C123 O125 1.282 . S
O124 Cd116 2.277 . S
O124 C117 1.226 . S
O125 Cd116 2.356 . S
O125 C123 1.282 . S
C126 O127 1.306 . S
C126 O129 1.160 . S
O127 C126 1.306 . S
O127 Cd128 2.228 . S
Cd128 O127 2.228 . S
Cd128 O132 2.273 . S
Cd128 O136 2.277 . S
O129 C126 1.160 . S
O129 Cd130 2.203 . S
Cd130 O129 2.203 . S
Cd130 O132 2.411 . S
Cd130 O133 2.333 . S
Cd130 O134 2.352 . S
Cd130 O138 2.277 . S
Cd130 O139 2.356 . S
C131 O136 1.209 . S
C131 O138 1.226 . S
O132 Cd128 2.273 . S
O132 Cd130 2.411 . S
O132 C135 1.320 . S
O133 Cd130 2.333 . S
O133 C135 1.214 . S
O134 Cd130 2.352 . S
O134 C137 1.258 . S
C135 O132 1.320 . S
C135 O133 1.214 . S
O136 Cd128 2.277 . S
O136 C131 1.209 . S
C137 O134 1.258 . S
C137 O139 1.282 . S
O138 Cd130 2.277 . S
O138 C131 1.226 . S
O139 Cd130 2.356 . S
O139 C137 1.282 . S
C140 O141 1.306 . S
C140 O143 1.160 . S
O141 C140 1.306 . S
O141 Cd142 2.228 . S
Cd142 O141 2.228 . S
Cd142 O146 2.273 . S
Cd142 O150 2.277 . S
O143 C140 1.160 . S
O143 Cd144 2.203 . S
Cd144 O143 2.203 . S
Cd144 O146 2.411 . S
Cd144 O147 2.333 . S
Cd144 O148 2.352 . S
Cd144 O152 2.277 . S
Cd144 O153 2.356 . S
C145 O150 1.209 . S
C145 O152 1.226 . S
O146 Cd142 2.273 . S
O146 Cd144 2.411 . S
O146 C149 1.320 . S
O147 Cd144 2.333 . S
O147 C149 1.214 . S
O148 Cd144 2.352 . S
O148 C151 1.258 . S
C149 O146 1.320 . S
C149 O147 1.214 . S
O150 Cd142 2.277 . S
O150 C145 1.209 . S
C151 O148 1.258 . S
C151 O153 1.282 . S
O152 Cd144 2.277 . S
O152 C145 1.226 . S
O153 Cd144 2.356 . S
O153 C151 1.282 . S
C154 O155 1.306 . S
C154 O157 1.160 . S
O155 C154 1.306 . S
O155 Cd156 2.228 . S
Cd156 O155 2.228 . S
Cd156 O160 2.273 . S
Cd156 O164 2.277 . S
O157 C154 1.160 . S
O157 Cd158 2.203 . S
Cd158 O157 2.203 . S
Cd158 O160 2.411 . S
Cd158 O161 2.333 . S
Cd158 O162 2.352 . S
Cd158 O166 2.277 . S
Cd158 O167 2.356 . S
C159 O164 1.209 . S
C159 O166 1.226 . S
O160 Cd156 2.273 . S
O160 Cd158 2.411 . S
O160 C163 1.320 . S
O161 Cd158 2.333 . S
O161 C163 1.214 . S
O162 Cd158 2.352 . S
O162 C165 1.258 . S
C163 O160 1.320 . S
C163 O161 1.214 . S
O164 Cd156 2.277 . S
O164 C159 1.209 . S
C165 O162 1.258 . S
C165 O167 1.282 . S
O166 Cd158 2.277 . S
O166 C159 1.226 . S
O167 Cd158 2.356 . S
O167 C165 1.282 . S
H168 C174 0.930 . S
H169 C178 0.930 . S
H170 C183 0.929 . S
H171 C181 0.929 . S
H172 C176 0.929 . S
H173 C182 0.929 . S
C174 H168 0.930 . S
C174 C175 1.367 . S
C174 C182 1.378 1_655 S
C175 C174 1.367 . S
C175 C183 1.433 . S
C176 H172 0.929 . S
C176 C178 1.378 1_655 S
C176 C180 1.350 1_655 S
C177 C180 1.463 1_655 S
C177 C182 1.350 1_655 S
C177 N185 1.427 . S
C178 H169 0.930 . S
C178 C176 1.378 1_455 S
C178 C179 1.367 . S
C179 C178 1.367 . S
C179 C181 1.433 . S
C180 C176 1.350 1_455 S
C180 C177 1.463 1_455 S
C180 N184 1.427 . S
C181 H171 0.929 . S
C181 C179 1.433 . S
C181 N184 1.384 . S
C182 H173 0.929 . S
C182 C174 1.378 1_455 S
C182 C177 1.350 1_455 S
C183 H170 0.929 . S
C183 C175 1.433 . S
C183 N185 1.384 . S
N184 C180 1.427 . S
N184 C181 1.384 . S
N185 C177 1.427 . S
N185 C183 1.384 . S
H186 C192 0.930 . S
H187 C196 0.930 . S
H188 C201 0.929 . S
H189 C199 0.929 . S
H190 C194 0.929 . S
H191 C200 0.929 . S
C192 H186 0.930 . S
C192 C193 1.367 . S
C192 C200 1.378 . S
C193 C192 1.367 . S
C193 C201 1.433 . S
C194 H190 0.929 . S
C194 C196 1.378 . S
C194 C198 1.350 . S
C195 C198 1.463 1_455 S
C195 C200 1.350 . S
C195 N203 1.427 . S
C196 H187 0.930 . S
C196 C194 1.378 . S
C196 C197 1.367 . S
C197 C196 1.367 . S
C197 C199 1.433 . S
C198 C194 1.350 . S
C198 C195 1.463 1_655 S
C198 N202 1.427 . S
C199 H189 0.929 . S
C199 C197 1.433 . S
C199 N202 1.384 . S
C200 H191 0.929 . S
C200 C192 1.378 . S
C200 C195 1.350 . S
C201 H188 0.929 . S
C201 C193 1.433 . S
C201 N203 1.384 . S
N202 C198 1.427 . S
N202 C199 1.384 . S
N203 C195 1.427 . S
N203 C201 1.384 . S
H204 C210 0.930 . S
H205 C214 0.930 . S
H206 C219 0.929 . S
H207 C217 0.929 . S
H208 C212 0.929 . S
H209 C218 0.929 . S
C210 H204 0.930 . S
C210 C211 1.367 . S
C210 C218 1.378 . S
C211 C210 1.367 . S
C211 C219 1.433 . S
C212 H208 0.929 . S
C212 C214 1.378 . S
C212 C216 1.350 . S
C213 C216 1.463 1_565 S
C213 C218 1.350 . S
C213 N221 1.427 . S
C214 H205 0.930 . S
C214 C212 1.378 . S
C214 C215 1.367 . S
C215 C214 1.367 . S
C215 C217 1.433 . S
C216 C212 1.350 . S
C216 C213 1.463 1_545 S
C216 N220 1.427 . S
C217 H207 0.929 . S
C217 C215 1.433 . S
C217 N220 1.384 . S
C218 H209 0.929 . S
C218 C210 1.378 . S
C218 C213 1.350 . S
C219 H206 0.929 . S
C219 C211 1.433 . S
C219 N221 1.384 . S
N220 C216 1.427 . S
N220 C217 1.384 . S
N221 C213 1.427 . S
N221 C219 1.384 . S
H222 C228 0.930 . S
H223 C232 0.930 . S
H224 C237 0.929 . S
H225 C235 0.929 . S
H226 C230 0.929 . S
H227 C236 0.929 . S
C228 H222 0.930 . S
C228 C229 1.367 . S
C228 C236 1.378 . S
C229 C228 1.367 . S
C229 C237 1.433 . S
C230 H226 0.929 . S
C230 C232 1.378 . S
C230 C234 1.350 . S
C231 C234 1.463 1_565 S
C231 C236 1.350 . S
C231 N239 1.424 1_565 S
C232 H223 0.930 . S
C232 C230 1.378 . S
C232 C233 1.367 . S
C233 C232 1.367 . S
C233 C235 1.433 . S
C234 C230 1.350 . S
C234 C231 1.463 1_545 S
C234 N238 1.424 1_545 S
C235 H225 0.929 . S
C235 C233 1.433 . S
C235 N238 1.377 1_545 S
C236 H227 0.929 . S
C236 C228 1.378 . S
C236 C231 1.350 . S
C237 H224 0.929 . S
C237 C229 1.433 . S
C237 N239 1.377 1_565 S
N238 C234 1.424 1_565 S
N238 C235 1.377 1_565 S
N239 C231 1.424 1_545 S
N239 C237 1.377 1_545 S
H240 C246 0.930 . S
H241 C250 0.930 . S
H242 C255 0.929 . S
H243 C253 0.929 . S
H244 C248 0.929 . S
H245 C254 0.929 . S
C246 H240 0.930 . S
C246 C247 1.367 . S
C246 C254 1.378 1_556 S
C247 C246 1.367 . S
C247 C255 1.433 . S
C248 H244 0.929 . S
C248 C250 1.378 1_556 S
C248 C252 1.350 1_556 S
C249 C252 1.463 1_556 S
C249 C254 1.350 1_556 S
C249 N257 1.427 . S
C250 H241 0.930 . S
C250 C248 1.378 1_554 S
C250 C251 1.367 . S
C251 C250 1.367 . S
C251 C253 1.433 . S
C252 C248 1.350 1_554 S
C252 C249 1.463 1_554 S
C252 N256 1.427 . S
C253 H243 0.929 . S
C253 C251 1.433 . S
C253 N256 1.384 . S
C254 H245 0.929 . S
C254 C246 1.378 1_554 S
C254 C249 1.350 1_554 S
C255 H242 0.929 . S
C255 C247 1.433 . S
C255 N257 1.384 . S
N256 C252 1.427 . S
N256 C253 1.384 . S
N257 C249 1.427 . S
N257 C255 1.384 . S
H258 C264 0.930 . S
H259 C268 0.930 . S
H260 C273 0.929 . S
H261 C271 0.929 . S
H262 C266 0.929 . S
H263 C272 0.929 . S
C264 H258 0.930 . S
C264 C265 1.367 . S
C264 C272 1.378 1_556 S
C265 C264 1.367 . S
C265 C273 1.433 . S
C266 H262 0.929 . S
C266 C268 1.378 1_556 S
C266 C270 1.350 1_556 S
C267 C270 1.463 1_556 S
C267 C272 1.350 1_556 S
C267 N275 1.427 . S
C268 H259 0.930 . S
C268 C266 1.378 1_554 S
C268 C269 1.367 . S
C269 C268 1.367 . S
C269 C271 1.433 . S
C270 C266 1.350 1_554 S
C270 C267 1.463 1_554 S
C270 N274 1.427 . S
C271 H261 0.929 . S
C271 C269 1.433 . S
C271 N274 1.384 . S
C272 H263 0.929 . S
C272 C264 1.378 1_554 S
C272 C267 1.350 1_554 S
C273 H260 0.929 . S
C273 C265 1.433 . S
C273 N275 1.384 . S
N274 C270 1.427 . S
N274 C271 1.384 . S
N275 C267 1.427 . S
N275 C273 1.384 . S
H276 C282 0.930 . S
H277 C286 0.930 . S
H278 C291 0.929 . S
H279 C289 0.929 . S
H280 C284 0.929 . S
H281 C290 0.929 . S
C282 H276 0.930 . S
C282 C283 1.367 . S
C282 C290 1.378 . S
C283 C282 1.367 . S
C283 C291 1.433 . S
C284 H280 0.929 . S
C284 C286 1.378 . S
C284 C288 1.350 . S
C285 C288 1.463 . S
C285 C290 1.350 . S
C285 N293 1.427 . S
C286 H277 0.930 . S
C286 C284 1.378 . S
C286 C287 1.367 . S
C287 C286 1.367 . S
C287 C289 1.433 . S
C288 C284 1.350 . S
C288 C285 1.463 . S
C288 N292 1.427 . S
C289 H279 0.929 . S
C289 C287 1.433 . S
C289 N292 1.384 . S
C290 H281 0.929 . S
C290 C282 1.378 . S
C290 C285 1.350 . S
C291 H278 0.929 . S
C291 C283 1.433 . S
C291 N293 1.384 . S
N292 C288 1.427 . S
N292 C289 1.384 . S
N293 C285 1.427 . S
N293 C291 1.384 . S
H294 C300 0.930 . S
H295 C304 0.930 . S
H296 C309 0.929 . S
H297 C307 0.929 . S
H298 C302 0.929 . S
H299 C308 0.929 . S
C300 H294 0.930 . S
C300 C301 1.367 . S
C300 C308 1.378 . S
C301 C300 1.367 . S
C301 C309 1.433 . S
C302 H298 0.929 . S
C302 C304 1.378 . S
C302 C306 1.350 . S
C303 C306 1.463 . S
C303 C308 1.350 . S
C303 N311 1.427 . S
C304 H295 0.930 . S
C304 C302 1.378 . S
C304 C305 1.367 . S
C305 C304 1.367 . S
C305 C307 1.433 . S
C306 C302 1.350 . S
C306 C303 1.463 . S
C306 N310 1.427 . S
C307 H297 0.929 . S
C307 C305 1.433 . S
C307 N310 1.384 . S
C308 H299 0.929 . S
C308 C300 1.378 . S
C308 C303 1.350 . S
C309 H296 0.929 . S
C309 C301 1.433 . S
C309 N311 1.384 . S
N310 C306 1.427 . S
N310 C307 1.384 . S
N311 C303 1.427 . S
N311 C309 1.384 . S
H312 C318 0.930 . S
H313 C322 0.930 . S
H314 C327 0.929 . S
H315 C325 0.929 . S
H316 C320 0.929 . S
H317 C326 0.929 . S
C318 H312 0.930 . S
C318 C319 1.367 . S
C318 C326 1.378 . S
C319 C318 1.367 . S
C319 C327 1.433 . S
C320 H316 0.929 . S
C320 C322 1.378 . S
C320 C324 1.350 . S
C321 C324 1.463 . S
C321 C326 1.350 . S
C321 N329 1.427 . S
C322 H313 0.930 . S
C322 C320 1.378 . S
C322 C323 1.367 . S
C323 C322 1.367 . S
C323 C325 1.433 . S
C324 C320 1.350 . S
C324 C321 1.463 . S
C324 N328 1.427 . S
C325 H315 0.929 . S
C325 C323 1.433 . S
C325 N328 1.384 . S
C326 H317 0.929 . S
C326 C318 1.378 . S
C326 C321 1.350 . S
C327 H314 0.929 . S
C327 C319 1.433 . S
C327 N329 1.384 . S
N328 C324 1.427 . S
N328 C325 1.384 . S
N329 C321 1.427 . S
N329 C327 1.384 . S
H330 C336 0.930 . S
H331 C340 0.930 . S
H332 C345 0.929 . S
H333 C343 0.929 . S
H334 C338 0.929 . S
H335 C344 0.929 . S
C336 H330 0.930 . S
C336 C337 1.367 . S
C336 C344 1.378 . S
C337 C336 1.367 . S
C337 C345 1.433 . S
C338 H334 0.929 . S
C338 C340 1.378 . S
C338 C342 1.350 . S
C339 C342 1.463 . S
C339 C344 1.350 . S
C339 N347 1.427 . S
C340 H331 0.930 . S
C340 C338 1.378 . S
C340 C341 1.367 . S
C341 C340 1.367 . S
C341 C343 1.433 . S
C342 C338 1.350 . S
C342 C339 1.463 . S
C342 N346 1.427 . S
C343 H333 0.929 . S
C343 C341 1.433 . S
C343 N346 1.384 . S
C344 H335 0.929 . S
C344 C336 1.378 . S
C344 C339 1.350 . S
C345 H332 0.929 . S
C345 C337 1.433 . S
C345 N347 1.384 . S
N346 C342 1.427 . S
N346 C343 1.384 . S
N347 C339 1.427 . S
N347 C345 1.384 . S
H348 C354 0.930 . S
H349 C358 0.930 . S
H350 C363 0.929 . S
H351 C361 0.929 . S
H352 C356 0.929 . S
H353 C362 0.929 . S
C354 H348 0.930 . S
C354 C355 1.367 . S
C354 C362 1.378 . S
C355 C354 1.367 . S
C355 C363 1.433 . S
C356 H352 0.929 . S
C356 C358 1.378 . S
C356 C360 1.350 . S
C357 C360 1.463 . S
C357 C362 1.350 . S
C357 N365 1.427 . S
C358 H349 0.930 . S
C358 C356 1.378 . S
C358 C359 1.367 . S
C359 C358 1.367 . S
C359 C361 1.433 . S
C360 C356 1.350 . S
C360 C357 1.463 . S
C360 N364 1.427 . S
C361 H351 0.929 . S
C361 C359 1.433 . S
C361 N364 1.384 . S
C362 H353 0.929 . S
C362 C354 1.378 . S
C362 C357 1.350 . S
C363 H350 0.929 . S
C363 C355 1.433 . S
C363 N365 1.384 . S
N364 C360 1.427 . S
N364 C361 1.384 . S
N365 C357 1.427 . S
N365 C363 1.384 . S
H366 C372 0.930 . S
H367 C376 0.930 . S
H368 C381 0.929 . S
H369 C379 0.929 . S
H370 C374 0.929 . S
H371 C380 0.929 . S
C372 H366 0.930 . S
C372 C373 1.367 . S
C372 C380 1.378 . S
C373 C372 1.367 . S
C373 C381 1.433 . S
C374 H370 0.929 . S
C374 C376 1.378 . S
C374 C378 1.350 . S
C375 C378 1.463 . S
C375 C380 1.350 . S
C375 N383 1.427 . S
C376 H367 0.930 . S
C376 C374 1.378 . S
C376 C377 1.367 . S
C377 C376 1.367 . S
C377 C379 1.433 . S
C378 C374 1.350 . S
C378 C375 1.463 . S
C378 N382 1.427 . S
C379 H369 0.929 . S
C379 C377 1.433 . S
C379 N382 1.384 . S
C380 H371 0.929 . S
C380 C372 1.378 . S
C380 C375 1.350 . S
C381 H368 0.929 . S
C381 C373 1.433 . S
C381 N383 1.384 . S
N382 C378 1.427 . S
N382 C379 1.384 . S
N383 C375 1.427 . S
N383 C381 1.384 . S
H384 C390 0.930 . S
H385 C394 0.930 . S
H386 C399 0.929 . S
H387 C397 0.929 . S
H388 C392 0.929 . S
H389 C398 0.929 . S
C390 H384 0.930 . S
C390 C391 1.367 . S
C390 C398 1.378 . S
C391 C390 1.367 . S
C391 C399 1.433 . S
C392 H388 0.929 . S
C392 C394 1.378 . S
C392 C396 1.350 . S
C393 C396 1.463 . S
C393 C398 1.350 . S
C393 N401 1.427 . S
C394 H385 0.930 . S
C394 C392 1.378 . S
C394 C395 1.367 . S
C395 C394 1.367 . S
C395 C397 1.433 . S
C396 C392 1.350 . S
C396 C393 1.463 . S
C396 N400 1.427 . S
C397 H387 0.929 . S
C397 C395 1.433 . S
C397 N400 1.384 . S
C398 H389 0.929 . S
C398 C390 1.378 . S
C398 C393 1.350 . S
C399 H386 0.929 . S
C399 C391 1.433 . S
C399 N401 1.384 . S
N400 C396 1.427 . S
N400 C397 1.384 . S
N401 C393 1.427 . S
N401 C399 1.384 . S
H402 C408 0.930 . S
H403 C412 0.930 . S
H404 C417 0.929 . S
H405 C415 0.929 . S
H406 C410 0.929 . S
H407 C416 0.929 . S
C408 H402 0.930 . S
C408 C409 1.367 . S
C408 C416 1.378 . S
C409 C408 1.367 . S
C409 C417 1.433 . S
C410 H406 0.929 . S
C410 C412 1.378 . S
C410 C414 1.350 . S
C411 C414 1.463 . S
C411 C416 1.350 . S
C411 N419 1.427 . S
C412 H403 0.930 . S
C412 C410 1.378 . S
C412 C413 1.367 . S
C413 C412 1.367 . S
C413 C415 1.433 . S
C414 C410 1.350 . S
C414 C411 1.463 . S
C414 N418 1.427 . S
C415 H405 0.929 . S
C415 C413 1.433 . S
C415 N418 1.384 . S
C416 H407 0.929 . S
C416 C408 1.378 . S
C416 C411 1.350 . S
C417 H404 0.929 . S
C417 C409 1.433 . S
C417 N419 1.384 . S
N418 C414 1.427 . S
N418 C415 1.384 . S
N419 C411 1.427 . S
N419 C417 1.384 . S
H420 C426 0.930 . S
H421 C430 0.930 . S
H422 C435 0.929 . S
H423 C433 0.929 . S
H424 C428 0.929 . S
H425 C434 0.929 . S
C426 H420 0.930 . S
C426 C427 1.367 . S
C426 C434 1.378 . S
C427 C426 1.367 . S
C427 C435 1.433 . S
C428 H424 0.929 . S
C428 C430 1.378 . S
C428 C432 1.350 . S
C429 C432 1.463 . S
C429 C434 1.350 . S
C429 N437 1.427 . S
C430 H421 0.930 . S
C430 C428 1.378 . S
C430 C431 1.367 . S
C431 C430 1.367 . S
C431 C433 1.433 . S
C432 C428 1.350 . S
C432 C429 1.463 . S
C432 N436 1.427 . S
C433 H423 0.929 . S
C433 C431 1.433 . S
C433 N436 1.384 . S
C434 H425 0.929 . S
C434 C426 1.378 . S
C434 C429 1.350 . S
C435 H422 0.929 . S
C435 C427 1.433 . S
C435 N437 1.384 . S
N436 C432 1.427 . S
N436 C433 1.384 . S
N437 C429 1.427 . S
N437 C435 1.384 . S
H438 C444 0.930 . S
H439 C448 0.930 . S
H440 C453 0.929 . S
H441 C451 0.929 . S
H442 C446 0.929 . S
H443 C452 0.929 . S
C444 H438 0.930 . S
C444 C445 1.367 . S
C444 C452 1.378 . S
C445 C444 1.367 . S
C445 C453 1.433 . S
C446 H442 0.929 . S
C446 C448 1.378 . S
C446 C450 1.350 . S
C447 C450 1.463 . S
C447 C452 1.350 . S
C447 N455 1.427 . S
C448 H439 0.930 . S
C448 C446 1.378 . S
C448 C449 1.367 . S
C449 C448 1.367 . S
C449 C451 1.433 . S
C450 C446 1.350 . S
C450 C447 1.463 . S
C450 N454 1.427 . S
C451 H441 0.929 . S
C451 C449 1.433 . S
C451 N454 1.384 . S
C452 H443 0.929 . S
C452 C444 1.378 . S
C452 C447 1.350 . S
C453 H440 0.929 . S
C453 C445 1.433 . S
C453 N455 1.384 . S
N454 C450 1.427 . S
N454 C451 1.384 . S
N455 C447 1.427 . S
N455 C453 1.384 . S
H456 C462 0.930 . S
H457 C466 0.930 . S
H458 C471 0.929 . S
H459 C469 0.929 . S
H460 C464 0.929 . S
H461 C470 0.929 . S
C462 H456 0.930 . S
C462 C463 1.367 . S
C462 C470 1.378 . S
C463 C462 1.367 . S
C463 C471 1.433 . S
C464 H460 0.929 . S
C464 C466 1.378 . S
C464 C468 1.350 . S
C465 C468 1.463 . S
C465 C470 1.350 . S
C465 N473 1.427 . S
C466 H457 0.930 . S
C466 C464 1.378 . S
C466 C467 1.367 . S
C467 C466 1.367 . S
C467 C469 1.433 . S
C468 C464 1.350 . S
C468 C465 1.463 . S
C468 N472 1.427 . S
C469 H459 0.929 . S
C469 C467 1.433 . S
C469 N472 1.384 . S
C470 H461 0.929 . S
C470 C462 1.378 . S
C470 C465 1.350 . S
C471 H458 0.929 . S
C471 C463 1.433 . S
C471 N473 1.384 . S
N472 C468 1.427 . S
N472 C469 1.384 . S
N473 C465 1.427 . S
N473 C471 1.384 . S
H474 C480 0.930 . S
H475 C484 0.930 . S
H476 C489 0.929 . S
H477 C487 0.929 . S
H478 C482 0.929 . S
H479 C488 0.929 . S
C480 H474 0.930 . S
C480 C481 1.367 . S
C480 C488 1.378 . S
C481 C480 1.367 . S
C481 C489 1.433 . S
C482 H478 0.929 . S
C482 C484 1.378 . S
C482 C486 1.350 . S
C483 C486 1.463 . S
C483 C488 1.350 . S
C483 N491 1.427 . S
C484 H475 0.930 . S
C484 C482 1.378 . S
C484 C485 1.367 . S
C485 C484 1.367 . S
C485 C487 1.433 . S
C486 C482 1.350 . S
C486 C483 1.463 . S
C486 N490 1.427 . S
C487 H477 0.929 . S
C487 C485 1.433 . S
C487 N490 1.384 . S
C488 H479 0.929 . S
C488 C480 1.378 . S
C488 C483 1.350 . S
C489 H476 0.929 . S
C489 C481 1.433 . S
C489 N491 1.384 . S
N490 C486 1.427 . S
N490 C487 1.384 . S
N491 C483 1.427 . S
N491 C489 1.384 . S
H492 C498 0.930 . S
H493 C502 0.930 . S
H494 C507 0.929 . S
H495 C505 0.929 . S
H496 C500 0.929 . S
H497 C506 0.929 . S
C498 H492 0.930 . S
C498 C499 1.367 . S
C498 C506 1.378 . S
C499 C498 1.367 . S
C499 C507 1.433 . S
C500 H496 0.929 . S
C500 C502 1.378 . S
C500 C504 1.350 . S
C501 C504 1.463 1_445 S
C501 C506 1.350 . S
C501 N509 1.425 1_455 S
C502 H493 0.930 . S
C502 C500 1.378 . S
C502 C503 1.367 . S
C503 C502 1.367 . S
C503 C505 1.433 . S
C504 C500 1.350 . S
C504 C501 1.463 1_665 S
C504 N508 1.425 1_655 S
C505 H495 0.929 . S
C505 C503 1.433 . S
C505 N508 1.380 1_655 S
C506 H497 0.929 . S
C506 C498 1.378 . S
C506 C501 1.350 . S
C507 H494 0.929 . S
C507 C499 1.433 . S
C507 N509 1.380 1_455 S
N508 C504 1.425 1_455 S
N508 C505 1.380 1_455 S
N509 C501 1.425 1_655 S
N509 C507 1.380 1_655 S
H510 C516 0.930 . S
H511 C520 0.930 . S
H512 C525 0.929 . S
H513 C523 0.929 . S
H514 C518 0.929 . S
H515 C524 0.929 . S
C516 H510 0.930 . S
C516 C517 1.367 . S
C516 C524 1.378 . S
C517 C516 1.367 . S
C517 C525 1.433 . S
C518 H514 0.929 . S
C518 C520 1.378 . S
C518 C522 1.350 . S
C519 C522 1.463 1_645 S
C519 C524 1.350 . S
C519 N527 1.428 1_655 S
C520 H511 0.930 . S
C520 C518 1.378 . S
C520 C521 1.367 . S
C521 C520 1.367 . S
C521 C523 1.433 . S
C522 C518 1.350 . S
C522 C519 1.463 1_465 S
C522 N526 1.428 1_455 S
C523 H513 0.929 . S
C523 C521 1.433 . S
C523 N526 1.384 1_455 S
C524 H515 0.929 . S
C524 C516 1.378 . S
C524 C519 1.350 . S
C525 H512 0.929 . S
C525 C517 1.433 . S
C525 N527 1.384 1_655 S
N526 C522 1.428 1_655 S
N526 C523 1.384 1_655 S
N527 C519 1.428 1_455 S
N527 C525 1.384 1_455 S
H528 C534 0.930 1_545 S
H529 C538 0.930 1_565 S
H530 C543 0.929 . S
H531 C541 0.929 . S
H532 C536 0.929 . S
H533 C542 0.929 . S
C534 H528 0.930 1_565 S
C534 C535 1.367 . S
C534 C542 1.378 1_565 S
C535 C534 1.367 . S
C535 C543 1.433 . S
C536 H532 0.929 . S
C536 C538 1.378 1_565 S
C536 C540 1.350 1_565 S
C537 C540 1.463 1_566 S
C537 C542 1.350 1_565 S
C537 N545 1.427 . S
C538 H529 0.930 1_545 S
C538 C536 1.378 1_545 S
C538 C539 1.367 . S
C539 C538 1.367 . S
C539 C541 1.433 . S
C540 C536 1.350 1_545 S
C540 C537 1.463 1_544 S
C540 N544 1.427 . S
C541 H531 0.929 . S
C541 C539 1.433 . S
C541 N544 1.384 . S
C542 H533 0.929 . S
C542 C534 1.378 1_545 S
C542 C537 1.350 1_545 S
C543 H530 0.929 . S
C543 C535 1.433 . S
C543 N545 1.384 . S
N544 C540 1.427 . S
N544 C541 1.384 . S
N545 C537 1.427 . S
N545 C543 1.384 . S
H546 C552 0.930 1_545 S
H547 C556 0.930 1_565 S
H548 C561 0.929 . S
H549 C559 0.929 . S
H550 C554 0.929 . S
H551 C560 0.929 . S
C552 H546 0.930 1_565 S
C552 C553 1.367 . S
C552 C560 1.378 1_565 S
C553 C552 1.367 . S
C553 C561 1.433 . S
C554 H550 0.929 . S
C554 C556 1.378 1_565 S
C554 C558 1.350 1_565 S
C555 C558 1.463 1_564 S
C555 C560 1.350 1_565 S
C555 N563 1.427 . S
C556 H547 0.930 1_545 S
C556 C554 1.378 1_545 S
C556 C557 1.367 . S
C557 C556 1.367 . S
C557 C559 1.433 . S
C558 C554 1.350 1_545 S
C558 C555 1.463 1_546 S
C558 N562 1.427 . S
C559 H549 0.929 . S
C559 C557 1.433 . S
C559 N562 1.384 . S
C560 H551 0.929 . S
C560 C552 1.378 1_545 S
C560 C555 1.350 1_545 S
C561 H548 0.929 . S
C561 C553 1.433 . S
C561 N563 1.384 . S
N562 C558 1.427 . S
N562 C559 1.384 . S
N563 C555 1.427 . S
N563 C561 1.384 . S
H564 C570 0.930 . S
H565 C574 0.930 . S
H566 C579 0.929 1_554 S
H567 C577 0.929 1_556 S
H568 C572 0.929 . S
H569 C578 0.929 . S
C570 H564 0.930 . S
C570 C571 1.367 . S
C570 C578 1.378 . S
C571 C570 1.367 . S
C571 C579 1.433 . S
C572 H568 0.929 . S
C572 C574 1.378 . S
C572 C576 1.350 . S
C573 C576 1.463 1_656 S
C573 C578 1.350 . S
C573 N581 1.427 1_556 S
C574 H565 0.930 . S
C574 C572 1.378 . S
C574 C575 1.367 . S
C575 C574 1.367 . S
C575 C577 1.433 . S
C576 C572 1.350 . S
C576 C573 1.463 1_454 S
C576 N580 1.427 1_554 S
C577 H567 0.929 1_554 S
C577 C575 1.433 . S
C577 N580 1.384 1_554 S
C578 H569 0.929 . S
C578 C570 1.378 . S
C578 C573 1.350 . S
C579 H566 0.929 1_556 S
C579 C571 1.433 . S
C579 N581 1.384 1_556 S
N580 C576 1.427 1_556 S
N580 C577 1.384 1_556 S
N581 C573 1.427 1_554 S
N581 C579 1.384 1_554 S
H582 C588 0.930 . S
H583 C592 0.930 . S
H584 C597 0.929 . S
H585 C595 0.929 . S
H586 C590 0.929 . S
H587 C596 0.929 . S
C588 H582 0.930 . S
C588 C589 1.367 . S
C588 C596 1.378 . S
C589 C588 1.367 . S
C589 C597 1.433 . S
C590 H586 0.929 . S
C590 C592 1.378 . S
C590 C594 1.350 . S
C591 C594 1.463 1_456 S
C591 C596 1.350 . S
C591 N599 1.427 . S
C592 H583 0.930 . S
C592 C590 1.378 . S
C592 C593 1.367 . S
C593 C592 1.367 . S
C593 C595 1.433 . S
C594 C590 1.350 . S
C594 C591 1.463 1_654 S
C594 N598 1.427 . S
C595 H585 0.929 . S
C595 C593 1.433 . S
C595 N598 1.384 . S
C596 H587 0.929 . S
C596 C588 1.378 . S
C596 C591 1.350 . S
C597 H584 0.929 . S
C597 C589 1.433 . S
C597 N599 1.384 . S
N598 C594 1.427 . S
N598 C595 1.384 . S
N599 C591 1.427 . S
N599 C597 1.384 . S
C175 C53 0.966 . S
C179 C11 0.972 . S
C193 C39 0.963 . S
C197 C25 0.979 . S
C211 C81 0.980 . S
C215 C67 0.968 . S
C229 C95 0.979 . S
C233 C109 0.968 . S
C247 C137 0.973 . S
C251 C123 0.965 . S
C265 C151 0.972 . S
C269 C165 0.966 . S
C283 C5 0.960 . S
C287 C98 0.919 . S
C301 C84 0.935 . S
C305 C19 0.956 . S
C319 C70 0.940 . S
C323 C33 0.959 . S
C337 C56 0.923 . S
C341 C47 0.967 . S
C355 C61 0.966 . S
C359 C154 0.911 . S
C373 C112 0.931 . S
C377 C75 0.965 . S
C391 C140 0.925 . S
C395 C89 0.958 . S
C409 C103 0.968 . S
C413 C126 0.914 . S
C427 C28 0.938 . S
C431 C117 0.956 . S
C445 C0 0.939 . S
C449 C131 0.956 . S
C463 C145 0.967 . S
C467 C14 0.911 . S
C481 C42 0.916 . S
C485 C159 0.968 . S
C499 C9 1.238 . S
C503 C23 1.245 . S
C517 C51 1.238 . S
C521 C37 1.245 . S
C535 C93 1.242 . S
C539 C65 1.247 . S
C553 C79 1.242 . S
C557 C107 1.246 . S
C571 C149 1.244 . S
C575 C121 1.239 . S
C589 C135 1.246 . S
C593 C163 1.239 . S
