# Generated by pormake.
# Topology snk, (6)-cn, num edge types: 1
# Building blocks:
#     Node 0, Type 0, BuildingBlock: GEDQOX_clean_sbu_0, # of connection points: 6
#     Node 1, Type 0, BuildingBlock: GEDQOX_clean_sbu_0, # of connection points: 6
#     Node 2, Type 0, BuildingBlock: GEDQOX_clean_sbu_0, # of connection points: 6
#     Node 3, Type 0, BuildingBlock: GEDQOX_clean_sbu_0, # of connection points: 6
#     Node 4, Type 0, BuildingBlock: GEDQOX_clean_sbu_0, # of connection points: 6
#     Node 5, Type 0, BuildingBlock: GEDQOX_clean_sbu_0, # of connection points: 6
#     Node 6, Type 0, BuildingBlock: GEDQOX_clean_sbu_0, # of connection points: 6
#     Node 7, Type 0, BuildingBlock: GEDQOX_clean_sbu_0, # of connection points: 6
#     Edge 8, Type (0, 0), BuildingBlock: XUDNAN_clean_linker_2, # of connection points: 2
#     Edge 9, Type (0, 0), BuildingBlock: XUDNAN_clean_linker_2, # of connection points: 2
#     Edge 10, Type (0, 0), BuildingBlock: XUDNAN_clean_linker_2, # of connection points: 2
#     Edge 11, Type (0, 0), BuildingBlock: XUDNAN_clean_linker_2, # of connection points: 2
#     Edge 12, Type (0, 0), BuildingBlock: XUDNAN_clean_linker_2, # of connection points: 2
#     Edge 13, Type (0, 0), BuildingBlock: XUDNAN_clean_linker_2, # of connection points: 2
#     Edge 14, Type (0, 0), BuildingBlock: XUDNAN_clean_linker_2, # of connection points: 2
#     Edge 15, Type (0, 0), BuildingBlock: XUDNAN_clean_linker_2, # of connection points: 2
#     Edge 16, Type (0, 0), BuildingBlock: XUDNAN_clean_linker_2, # of connection points: 2
#     Edge 17, Type (0, 0), BuildingBlock: XUDNAN_clean_linker_2, # of connection points: 2
#     Edge 18, Type (0, 0), BuildingBlock: XUDNAN_clean_linker_2, # of connection points: 2
#     Edge 19, Type (0, 0), BuildingBlock: XUDNAN_clean_linker_2, # of connection points: 2
#     Edge 20, Type (0, 0), BuildingBlock: XUDNAN_clean_linker_2, # of connection points: 2
#     Edge 21, Type (0, 0), BuildingBlock: XUDNAN_clean_linker_2, # of connection points: 2
#     Edge 22, Type (0, 0), BuildingBlock: XUDNAN_clean_linker_2, # of connection points: 2
#     Edge 23, Type (0, 0), BuildingBlock: XUDNAN_clean_linker_2, # of connection points: 2
#     Edge 24, Type (0, 0), BuildingBlock: XUDNAN_clean_linker_2, # of connection points: 2
#     Edge 25, Type (0, 0), BuildingBlock: XUDNAN_clean_linker_2, # of connection points: 2
#     Edge 26, Type (0, 0), BuildingBlock: XUDNAN_clean_linker_2, # of connection points: 2
#     Edge 27, Type (0, 0), BuildingBlock: XUDNAN_clean_linker_2, # of connection points: 2
#     Edge 28, Type (0, 0), BuildingBlock: XUDNAN_clean_linker_2, # of connection points: 2
#     Edge 29, Type (0, 0), BuildingBlock: XUDNAN_clean_linker_2, # of connection points: 2
#     Edge 30, Type (0, 0), BuildingBlock: XUDNAN_clean_linker_2, # of connection points: 2
#     Edge 31, Type (0, 0), BuildingBlock: XUDNAN_clean_linker_2, # of connection points: 2
# Relax obj value: 0.116
# Max RMSD: 0.184
# Mean RMSD: 0.184
data_MOF--net-snk--node1-GEDQOX_clean_sbu_0--edge1-XUDNAN_clean_linker_2
_symmetry_space_group_name_H-M    P1
_symmetry_Int_Tables_number       1
_symmetry_cell_setting            triclinic
loop_
_symmetry_equiv_pos_as_xyz
'x, y, z'
_cell_length_a     56.972287
_cell_length_b     57.130434
_cell_length_c     15.530542
_cell_angle_alpha  90.056691
_cell_angle_beta   89.840895
_cell_angle_gamma 89.809831
loop_
_atom_site_label
_atom_site_type_symbol
_atom_site_fract_x
_atom_site_fract_y
_atom_site_fract_z
_atom_type_partial_charge
Nd0 Nd 0.02986 0.03336 0.56171 0.0
Nd1 Nd 0.99482 0.98844 0.56252 0.0
C2 C 0.04568 0.07682 0.55233 0.0
C3 C 0.06333 0.09226 0.5116 0.0
C4 C 0.05686 0.11519 0.48958 0.0
C5 C 0.07346 0.13089 0.45691 0.0
C6 C 0.09703 0.12404 0.44546 0.0
C7 C 0.1034 0.10087 0.46633 0.0
C8 C 0.08673 0.08513 0.49899 0.0
C9 C 0.05457 0.99125 0.56046 0.0
C10 C 0.01695 1.00538 0.37982 0.0
C11 C 0.97223 0.94908 0.59757 0.0
C12 C 0.95112 0.93386 0.59441 0.0
C13 C 0.93164 0.93818 0.64816 0.0
C14 C 0.91383 0.92148 0.65725 0.0
C15 C 0.91506 0.89997 0.61313 0.0
C16 C 0.93401 0.89617 0.5563 0.0
C17 C 0.95184 0.91285 0.54739 0.0
C18 C 0.97438 0.0317 0.53768 0.0
C19 C 0.01788 1.00838 0.74316 0.0
O20 O 0.02854 0.06899 0.50403 0.0
O21 O 0.05316 0.06146 0.60875 0.0
O22 O 0.06499 0.0115 0.56138 0.0
O23 O 0.0329 0.99489 0.55843 0.0
O24 O 0.02303 0.02554 0.41654 0.0
O25 O 1.00873 0.98735 0.42441 0.0
O26 O 0.97165 0.9677 0.64687 0.0
O27 O 0.98546 0.9516 0.52886 0.0
O28 O 0.96637 0.01246 0.50433 0.0
O29 O 0.99123 0.02729 0.5878 0.0
O30 O 1.01149 0.99 0.69699 0.0
O31 O 0.02208 0.02897 0.7071 0.0
H32 H 0.03897 0.12114 0.49935 0.0
H33 H 0.0679 0.14862 0.44283 0.0
H34 H 0.12128 0.09485 0.4573 0.0
H35 H 0.09219 0.06751 0.5153 0.0
H36 H 0.9306 0.95404 0.68628 0.0
H37 H 0.89969 0.92501 0.70218 0.0
H38 H 0.93539 0.88003 0.51999 0.0
H39 H 0.9667 0.90886 0.50619 0.0
Nd40 Nd 0.24389 0.78139 0.78373 0.0
Nd41 Nd 0.28399 0.74233 0.77408 0.0
C42 C 0.20159 0.80087 0.78351 0.0
C43 C 0.18573 0.8194 0.75146 0.0
C44 C 0.19344 0.83766 0.69797 0.0
C45 C 0.1775 0.85483 0.66922 0.0
C46 C 0.15362 0.85392 0.69321 0.0
C47 C 0.14625 0.83567 0.74771 0.0
C48 C 0.16209 0.81866 0.77621 0.0
C49 C 0.28763 0.80272 0.78518 0.0
C50 C 0.27 0.76889 0.59819 0.0
C51 C 0.31862 0.71119 0.78081 0.0
C52 C 0.33586 0.69628 0.82688 0.0
C53 C 0.35451 0.70549 0.87516 0.0
C54 C 0.37168 0.69053 0.91018 0.0
C55 C 0.37062 0.66609 0.89712 0.0
C56 C 0.35168 0.65709 0.84964 0.0
C57 C 0.33459 0.67194 0.81529 0.0
C58 C 0.23853 0.72812 0.74212 0.0
C59 C 0.26656 0.76201 0.96359 0.0
O60 O 0.20789 0.7842 0.73007 0.0
O61 O 0.21821 0.80686 0.83725 0.0
O62 O 0.26795 0.81431 0.7875 0.0
O63 O 0.2831 0.78119 0.78035 0.0
O64 O 0.2504 0.77628 0.63643 0.0
O65 O 0.28714 0.75857 0.64116 0.0
O66 O 0.32227 0.73369 0.77111 0.0
O67 O 0.29642 0.70578 0.78736 0.0
O68 O 0.25662 0.72138 0.69771 0.0
O69 O 0.24474 0.74211 0.80095 0.0
O70 O 0.28295 0.75118 0.91783 0.0
O71 O 0.24802 0.77209 0.92779 0.0
H72 H 0.21166 0.83856 0.67825 0.0
H73 H 0.18378 0.86855 0.62706 0.0
H74 H 0.12819 0.83459 0.76916 0.0
H75 H 0.15581 0.80482 0.81799 0.0
H76 H 0.35604 0.7242 0.88477 0.0
H77 H 0.38583 0.69815 0.94706 0.0
H78 H 0.35039 0.63854 0.83618 0.0
H79 H 0.32064 0.66438 0.77713 0.0
Nd80 Nd 0.49774 0.99147 1.02297 0.0
Nd81 Nd 0.53168 0.03301 1.01398 0.0
C82 C 0.47549 0.95062 1.01427 0.0
C83 C 0.45956 0.93401 0.96987 0.0
C84 C 0.43939 0.94146 0.92555 0.0
C85 C 0.42317 0.92505 0.89387 0.0
C86 C 0.42668 0.9008 0.90623 0.0
C87 C 0.44721 0.89356 0.94933 0.0
C88 C 0.46339 0.90993 0.98037 0.0
C89 C 0.47653 0.03469 0.04028 0.0
C90 C 0.5092 0.01592 0.83554 0.0
C91 C 0.55544 0.073 1.0268 0.0
C92 C 0.57421 0.08689 0.07005 0.0
C93 C 0.56851 0.10268 0.13653 0.0
C94 C 0.58525 0.11845 0.16823 0.0
C95 C 0.60818 0.11904 0.13406 0.0
C96 C 0.61411 0.10266 0.06963 0.0
C97 C 0.59735 0.0869 0.03783 0.0
C98 C 0.55261 0.98949 1.0003 0.0
C99 C 0.515 0.01288 0.20287 0.0
O100 O 0.49692 0.95358 0.98561 0.0
O101 O 0.46639 0.96964 0.04739 0.0
O102 O 0.46977 0.01603 0.08063 0.0
O103 O 0.49292 0.02994 0.98817 0.0
O104 O 0.50372 0.99614 0.87525 0.0
O105 O 0.51632 0.0344 0.87913 0.0
O106 O 0.53586 0.06887 0.06826 0.0
O107 O 0.56151 0.0558 0.97566 0.0
O108 O 0.55937 1.00776 0.95785 0.0
O109 O 0.53628 0.99479 0.05182 0.0
O110 O 0.5225 0.03087 0.15734 0.0
O111 O 0.50843 0.99316 0.1657 0.0
H112 H 0.43591 0.95996 0.91689 0.0
H113 H 0.40783 0.9314 0.86009 0.0
H114 H 0.45049 0.87522 0.96195 0.0
H115 H 0.4786 0.90372 1.01542 0.0
H116 H 0.55084 0.10341 0.16236 0.0
H117 H 0.58005 0.13049 0.21876 0.0
H118 H 0.63145 0.10267 0.04091 0.0
H119 H 0.60234 0.0753 0.98566 0.0
Nd120 Nd 0.27941 0.23836 0.28332 0.0
Nd121 Nd 0.2379 0.27691 0.27952 0.0
C122 C 0.31536 0.2092 0.27093 0.0
C123 C 0.33606 0.19746 0.23281 0.0
C124 C 0.33878 0.19462 0.14346 0.0
C125 C 0.35684 0.18034 0.11052 0.0
C126 C 0.37218 0.1684 0.1665 0.0
C127 C 0.36978 0.17199 0.25566 0.0
C128 C 0.35199 0.18642 0.28831 0.0
C129 C 0.23454 0.22275 0.31673 0.0
C130 C 0.25974 0.25892 0.09785 0.0
C131 C 0.19567 0.29638 0.28498 0.0
C132 C 0.18112 0.31527 0.3231 0.0
C133 C 0.18962 0.33812 0.33482 0.0
C134 C 0.17476 0.35586 0.36634 0.0
C135 C 0.15114 0.35107 0.38694 0.0
C136 C 0.14288 0.32807 0.37564 0.0
C137 C 0.15769 0.31044 0.34419 0.0
C138 C 0.28146 0.29854 0.27426 0.0
C139 C 0.26315 0.26292 0.46411 0.0
O140 O 0.31717 0.22978 0.30795 0.0
O141 O 0.29465 0.205 0.23796 0.0
O142 O 0.25313 0.21486 0.35492 0.0
O143 O 0.24006 0.23776 0.2606 0.0
O144 O 0.27774 0.2493 0.13913 0.0
O145 O 0.24082 0.26672 0.13826 0.0
O146 O 0.20196 0.27903 0.33523 0.0
O147 O 0.21191 0.30227 0.22909 0.0
O148 O 0.26172 0.31005 0.27442 0.0
O149 O 0.277 0.27705 0.27891 0.0
O150 O 0.2446 0.2715 0.42353 0.0
O151 O 0.28032 0.25152 0.42395 0.0
H152 H 0.32655 0.20282 0.09943 0.0
H153 H 0.35818 0.17786 0.04154 0.0
H154 H 0.38147 0.16331 0.30041 0.0
H155 H 0.35012 0.18823 0.35746 0.0
H156 H 0.20766 0.34231 0.31906 0.0
H157 H 0.18181 0.37327 0.37506 0.0
H158 H 0.12476 0.32374 0.38929 0.0
H159 H 0.15069 0.293 0.33495 0.0
Nd160 Nd 0.74651 0.27951 0.28787 0.0
Nd161 Nd 0.78766 0.241 0.28319 0.0
C162 C 0.71068 0.30899 0.27427 0.0
C163 C 0.69138 0.32143 0.22876 0.0
C164 C 0.66836 0.31256 0.22746 0.0
C165 C 0.64962 0.32649 0.19833 0.0
C166 C 0.65347 0.34969 0.17128 0.0
C167 C 0.6766 0.35813 0.16944 0.0
C168 C 0.69527 0.34422 0.19773 0.0
C169 C 0.7915 0.29516 0.31973 0.0
C170 C 0.76652 0.25929 0.10143 0.0
C171 C 0.83003 0.22178 0.28994 0.0
C172 C 0.84508 0.20361 0.32985 0.0
C173 C 0.86844 0.2092 0.34903 0.0
C174 C 0.88374 0.19227 0.38214 0.0
C175 C 0.87608 0.16922 0.39717 0.0
C176 C 0.85253 0.16368 0.37845 0.0
C177 C 0.83717 0.18071 0.34518 0.0
C178 C 0.74412 0.21919 0.27701 0.0
C179 C 0.76211 0.25484 0.46809 0.0
O180 O 0.70816 0.2873 0.30055 0.0
O181 O 0.73239 0.31439 0.25509 0.0
O182 O 0.773 0.30251 0.3604 0.0
O183 O 0.78587 0.28021 0.26336 0.0
O184 O 0.74878 0.26949 0.14274 0.0
O185 O 0.78507 0.2508 0.14175 0.0
O186 O 0.82368 0.23966 0.33776 0.0
O187 O 0.8137 0.21506 0.23598 0.0
O188 O 0.76393 0.20782 0.27684 0.0
O189 O 0.74847 0.24073 0.2825 0.0
O190 O 0.78066 0.2462 0.42728 0.0
O191 O 0.74508 0.26637 0.42821 0.0
H192 H 0.66468 0.29522 0.25205 0.0
H193 H 0.63198 0.3195 0.20087 0.0
H194 H 0.68023 0.37578 0.14788 0.0
H195 H 0.71269 0.35176 0.19874 0.0
H196 H 0.87501 0.22668 0.33701 0.0
H197 H 0.90177 0.19719 0.39415 0.0
H198 H 0.8459 0.14622 0.39002 0.0
H199 H 0.81921 0.17593 0.33093 0.0
Nd200 Nd 0.77735 0.73947 0.75518 0.0
Nd201 Nd 0.73566 0.77743 0.75046 0.0
C202 C 0.81282 0.70978 0.74123 0.0
C203 C 0.83391 0.69785 0.7067 0.0
C204 C 0.83752 0.69463 0.61792 0.0
C205 C 0.85593 0.68029 0.58816 0.0
C206 C 0.87079 0.66867 0.64671 0.0
C207 C 0.8675 0.67262 0.73532 0.0
C208 C 0.84934 0.6871 0.76484 0.0
C209 C 0.73269 0.72354 0.79035 0.0
C210 C 0.75973 0.76108 0.56962 0.0
C211 C 0.69312 0.79624 0.75796 0.0
C212 C 0.67869 0.81481 0.79873 0.0
C213 C 0.68718 0.8376 0.81191 0.0
C214 C 0.67248 0.85504 0.84651 0.0
C215 C 0.64903 0.85001 0.86886 0.0
C216 C 0.64078 0.82706 0.85626 0.0
C217 C 0.65543 0.80972 0.82166 0.0
C218 C 0.77889 0.79958 0.74479 0.0
C219 C 0.76269 0.76498 0.93396 0.0
O220 O 0.81439 0.72923 0.78585 0.0
O221 O 0.79271 0.70704 0.70179 0.0
O222 O 0.75141 0.71632 0.82936 0.0
O223 O 0.73791 0.73824 0.73278 0.0
O224 O 0.77722 0.75222 0.61532 0.0
O225 O 0.7399 0.76841 0.60582 0.0
O226 O 0.69973 0.77867 0.80653 0.0
O227 O 0.70915 0.80259 0.70197 0.0
O228 O 0.75904 0.81091 0.7456 0.0
O229 O 0.77467 0.77807 0.75003 0.0
O230 O 0.74297 0.77224 0.89682 0.0
O231 O 0.77995 0.75496 0.89003 0.0
H232 H 0.82573 0.70262 0.57181 0.0
H233 H 0.85793 0.67754 0.51953 0.0
H234 H 0.87881 0.66421 0.78207 0.0
H235 H 0.8468 0.6892 0.8336 0.0
H236 H 0.70509 0.84198 0.79494 0.0
H237 H 0.67953 0.87242 0.8562 0.0
H238 H 0.62279 0.82256 0.8713 0.0
H239 H 0.64845 0.79231 0.81154 0.0
Nd240 Nd 0.53066 0.52717 0.04541 0.0
Nd241 Nd 0.49152 0.48686 0.0405 0.0
C242 C 0.56127 0.56179 0.03052 0.0
C243 C 0.57338 0.5807 0.98223 0.0
C244 C 0.56414 0.60355 0.97742 0.0
C245 C 0.57777 0.62195 0.94437 0.0
C246 C 0.60101 0.61793 0.91681 0.0
C247 C 0.60981 0.59493 0.91868 0.0
C248 C 0.59621 0.57661 0.95094 0.0
C249 C 0.54545 0.48207 0.07819 0.0
C250 C 0.50903 0.50988 0.85921 0.0
C251 C 0.47154 0.44504 0.04704 0.0
C252 C 0.45258 0.43048 0.08545 0.0
C253 C 0.45809 0.41386 0.14902 0.0
C254 C 0.44123 0.39787 0.17787 0.0
C255 C 0.41838 0.39792 0.14352 0.0
C256 C 0.41265 0.41503 0.08178 0.0
C257 C 0.42955 0.43105 0.05287 0.0
C258 C 0.47043 0.53071 0.03885 0.0
C259 C 0.50515 0.51312 0.22437 0.0
O260 O 0.53993 0.56491 0.06066 0.0
O261 O 0.5658 0.54006 1.00915 0.0
O262 O 0.55286 0.50036 0.11922 0.0
O263 O 0.53082 0.48788 1.02095 0.0
O264 O 0.51917 0.52668 0.90434 0.0
O265 O 0.50026 0.49081 0.89563 0.0
O266 O 0.48918 0.45116 0.09626 0.0
O267 O 0.46581 0.46115 0.9907 0.0
O268 O 0.45856 0.51129 0.03932 0.0
O269 O 0.4919 0.52576 0.04208 0.0
O270 O 0.49735 0.49373 0.18684 0.0
O271 O 0.5156 0.53007 0.18083 0.0
H272 H 0.54673 0.60738 1.00197 0.0
H273 H 0.57051 0.6395 0.94407 0.0
H274 H 0.62749 0.59116 0.89681 0.0
H275 H 0.60401 0.55932 0.95458 0.0
H276 H 0.4757 0.41275 0.17489 0.0
H277 H 0.44623 0.38522 0.22642 0.0
H278 H 0.39535 0.41549 0.05312 0.0
H279 H 0.42471 0.44339 1.00304 0.0
Nd280 Nd 0.99854 0.49188 0.52574 0.0
Nd281 Nd 0.03189 0.53406 0.51595 0.0
C282 C 0.97611 0.45111 0.51644 0.0
C283 C 0.95859 0.43551 0.47476 0.0
C284 C 0.96582 0.41337 0.44529 0.0
C285 C 0.94945 0.39696 0.41595 0.0
C286 C 0.92525 0.40216 0.41525 0.0
C287 C 0.91806 0.42458 0.44314 0.0
C288 C 0.9345 0.44102 0.47268 0.0
C289 C 0.97685 0.53505 0.5377 0.0
C290 C 0.0147 0.51217 0.33672 0.0
C291 C 0.05335 0.5753 0.52632 0.0
C292 C 0.07045 0.59072 0.57129 0.0
C293 C 0.0631 0.61282 0.60082 0.0
C294 C 0.07935 0.62906 0.63259 0.0
C295 C 0.1035 0.6237 0.63538 0.0
C296 C 0.11076 0.60129 0.60779 0.0
C297 C 0.09447 0.58503 0.57611 0.0
C298 C 0.05374 0.49098 0.50274 0.0
C299 C 0.02042 0.5099 0.70425 0.0
O300 O 0.99605 0.45515 0.47726 0.0
O301 O 0.96868 0.46898 0.56175 0.0
O302 O 0.97037 0.51672 0.58052 0.0
O303 O 0.9934 0.53003 0.48671 0.0
O304 O 1.0077 0.49399 0.38233 0.0
O305 O 0.02075 0.53208 0.3738 0.0
O306 O 0.03295 0.57115 0.56221 0.0
O307 O 0.06146 0.55744 0.48262 0.0
O308 O 0.06088 0.50957 0.46279 0.0
O309 O 0.03704 0.49599 0.55289 0.0
O310 O 0.0259 0.52959 0.66392 0.0
O311 O 0.01342 0.49128 0.66127 0.0
H312 H 0.98419 0.40844 0.44752 0.0
H313 H 0.95577 0.37986 0.39654 0.0
H314 H 0.89967 0.42943 0.44255 0.0
H315 H 0.92827 0.45786 0.49548 0.0
H316 H 0.04479 0.61787 0.59667 0.0
H317 H 0.07303 0.64616 0.65207 0.0
H318 H 0.12911 0.59633 0.61009 0.0
H319 H 0.10081 0.56822 0.55352 0.0
H320 H 0.14283 0.1296 0.49915 0.0
H321 H 0.09169 0.15751 0.3195 0.0
H322 H 0.1206 0.18673 0.27033 0.0
H323 H 0.16905 0.18445 0.55701 0.0
H324 H 0.1984 0.1727 0.56297 0.0
H325 H 0.1736 0.15413 0.58468 0.0
H326 H 0.18774 0.12502 0.46728 0.0
H327 H 0.21267 0.14342 0.44567 0.0
H328 H 0.19309 0.13549 0.35955 0.0
H329 H 0.15564 0.21312 0.23993 0.0
H330 H 0.19406 0.2332 0.22849 0.0
H331 H 0.22209 0.18762 0.42656 0.0
C332 C 0.13773 0.14167 0.44883 0.0
C333 C 0.11484 0.14119 0.41354 0.0
C334 C 0.10893 0.15764 0.34863 0.0
C335 C 0.12529 0.17429 0.31993 0.0
C336 C 0.1476 0.17436 0.35659 0.0
C337 C 0.15384 0.15841 0.41944 0.0
C338 C 0.17899 0.16203 0.448 0.0
C339 C 0.18006 0.16873 0.54385 0.0
C340 C 0.194 0.14019 0.42896 0.0
C341 C 0.18599 0.1824 0.39108 0.0
C342 C 0.16764 0.18937 0.33897 0.0
C343 C 0.17011 0.20778 0.2805 0.0
C344 C 0.19195 0.21912 0.27449 0.0
C345 C 0.21104 0.21197 0.32651 0.0
C346 C 0.20782 0.19352 0.38596 0.0
H347 H 0.10089 0.98204 0.59691 0.0
H348 H 0.03424 0.94827 0.54715 0.0
H349 H 0.05289 0.90954 0.56803 0.0
H350 H 0.13832 0.93802 0.49385 0.0
H351 H 0.16107 0.94023 0.57385 0.0
H352 H 0.14286 0.96525 0.55009 0.0
H353 H 0.13132 0.96851 0.71109 0.0
H354 H 0.1495 0.94355 0.73536 0.0
H355 H 0.11889 0.94349 0.76501 0.0
H356 H 0.07847 0.87462 0.59773 0.0
H357 H 0.10862 0.84582 0.63941 0.0
H358 H 0.15882 0.90198 0.67537 0.0
C359 C 0.09031 0.96645 0.58951 0.0
C360 C 0.06612 0.9681 0.5698 0.0
C361 C 0.05278 0.94737 0.56184 0.0
C362 C 0.06325 0.92531 0.57346 0.0
C363 C 0.0871 0.92425 0.59335 0.0
C364 C 0.10048 0.94425 0.60159 0.0
C365 C 0.12552 0.93822 0.62714 0.0
C366 C 0.14297 0.94589 0.55704 0.0
C367 C 0.13166 0.94909 0.71487 0.0
C368 C 0.12408 0.91172 0.63271 0.0
C369 C 0.10178 0.90407 0.61228 0.0
C370 C 0.09596 0.88043 0.61404 0.0
C371 C 0.11323 0.86419 0.6384 0.0
C372 C 0.13613 0.87153 0.66159 0.0
C373 C 0.14161 0.89569 0.6574 0.0
H374 H 0.29772 0.84781 0.83074 0.0
H375 H 0.33081 0.78199 0.76151 0.0
H376 H 0.36997 0.80023 0.77921 0.0
H377 H 0.33957 0.88632 0.72759 0.0
H378 H 0.33842 0.9079 0.81226 0.0
H379 H 0.3132 0.88989 0.79074 0.0
H380 H 0.31271 0.87619 0.94967 0.0
H381 H 0.33786 0.8942 0.97176 0.0
H382 H 0.33879 0.86333 0.99534 0.0
H383 H 0.40567 0.82617 0.80456 0.0
H384 H 0.43469 0.85633 0.84254 0.0
H385 H 0.37806 0.90473 0.90326 0.0
C386 C 0.31321 0.83727 0.81867 0.0
C387 C 0.31123 0.81348 0.79416 0.0
C388 C 0.33192 0.80022 0.78013 0.0
C389 C 0.35422 0.81048 0.78987 0.0
C390 C 0.35556 0.834 0.8143 0.0
C391 C 0.33556 0.84717 0.82905 0.0
C392 C 0.34172 0.87179 0.858 0.0
C393 C 0.33269 0.89005 0.79327 0.0
C394 C 0.33221 0.87665 0.9491 0.0
C395 C 0.36833 0.87051 0.85733 0.0
C396 C 0.37597 0.84862 0.83131 0.0
C397 C 0.39981 0.84329 0.82559 0.0
C398 C 0.41622 0.86059 0.84801 0.0
C399 C 0.4089 0.88307 0.87697 0.0
C400 C 0.38448 0.88797 0.88064 0.0
H401 H 0.4417 0.04675 0.15271 0.0
H402 H 0.48315 0.07399 0.94102 0.0
H403 H 0.46102 0.11142 0.94905 0.0
H404 H 0.38701 0.07285 0.09229 0.0
H405 H 0.37806 0.07885 0.20152 0.0
H406 H 0.39729 0.05453 0.17886 0.0
H407 H 0.42777 0.07089 0.28669 0.0
H408 H 0.4086 0.09524 0.30988 0.0
H409 H 0.43825 0.10043 0.27406 0.0
H410 H 0.43283 0.14565 0.97839 0.0
H411 H 0.40306 0.17402 0.03141 0.0
H412 H 0.38117 0.12414 0.2257 0.0
C413 C 0.44617 0.0606 0.10807 0.0
C414 C 0.46406 0.05746 0.04592 0.0
C415 C 0.46947 0.07604 0.98902 0.0
C416 C 0.45696 0.09732 0.99308 0.0
C417 C 0.43923 0.09977 0.05477 0.0
C418 C 0.43399 0.08192 0.11161 0.0
C419 C 0.4143 0.08885 0.1723 0.0
C420 C 0.3929 0.07282 0.1605 0.0
C421 C 0.42275 0.08886 0.26629 0.0
C422 C 0.4092 0.11343 0.14101 0.0
C423 C 0.4236 0.11943 0.07277 0.0
C424 C 0.42159 0.14113 0.03209 0.0
C425 C 0.40457 0.1571 0.06233 0.0
C426 C 0.38993 0.1514 0.13312 0.0
C427 C 0.39236 0.1292 0.17241 0.0
H428 H 0.86718 0.90431 0.64032 0.0
H429 H 0.92316 0.85267 0.62708 0.0
H430 H 0.89473 0.82147 0.66016 0.0
H431 H 0.83658 0.87836 0.81912 0.0
H432 H 0.80783 0.88537 0.77827 0.0
H433 H 0.83248 0.90363 0.75129 0.0
H434 H 0.82395 0.89782 0.58888 0.0
H435 H 0.79921 0.87962 0.61538 0.0
H436 H 0.82207 0.86857 0.54578 0.0
H437 H 0.85997 0.79562 0.69682 0.0
H438 H 0.82154 0.77751 0.73028 0.0
H439 H 0.78859 0.84601 0.7229 0.0
C440 C 0.87353 0.88647 0.64465 0.0
C441 C 0.89752 0.88107 0.63037 0.0
C442 C 0.90489 0.85735 0.63594 0.0
C443 C 0.88887 0.83947 0.65551 0.0
C444 C 0.86545 0.84545 0.66965 0.0
C445 C 0.85778 0.86838 0.66426 0.0
C446 C 0.83166 0.87015 0.68236 0.0
C447 C 0.82687 0.88527 0.76253 0.0
C448 C 0.81845 0.8796 0.60339 0.0
C449 C 0.82584 0.84466 0.69889 0.0
C450 C 0.84556 0.83066 0.69133 0.0
C451 C 0.84444 0.80645 0.70305 0.0
C452 C 0.82257 0.79631 0.72227 0.0
C453 C 0.80216 0.81035 0.72964 0.0
C454 C 0.80394 0.83484 0.71818 0.0
H455 H 0.93752 0.04289 0.43262 0.0
H456 H 0.98546 0.07291 0.61863 0.0
H457 H 0.96535 0.11122 0.60413 0.0
H458 H 0.93389 0.09377 0.29425 0.0
H459 H 0.90325 0.08955 0.2704 0.0
H460 H 0.9216 0.06473 0.29517 0.0
H461 H 0.89304 0.05293 0.41762 0.0
H462 H 0.87468 0.07779 0.39362 0.0
H463 H 0.88598 0.07382 0.50093 0.0
H464 H 0.93914 0.14605 0.57164 0.0
H465 H 0.91025 0.17502 0.52001 0.0
H466 H 0.87991 0.12245 0.35211 0.0
C467 C 0.94383 0.05755 0.47015 0.0
C468 C 0.96303 0.05493 0.527 0.0
C469 C 0.97079 0.07453 0.57477 0.0
C470 C 0.95945 0.09633 0.56701 0.0
C471 C 0.9404 0.09827 0.511 0.0
C472 C 0.93275 0.07942 0.46298 0.0
C473 C 0.91198 0.08613 0.40709 0.0
C474 C 0.91805 0.08338 0.31104 0.0
C475 C 0.89013 0.07182 0.4313 0.0
C476 C 0.90899 0.11169 0.43149 0.0
C477 C 0.92555 0.11833 0.49157 0.0
C478 C 0.92623 0.14105 0.52413 0.0
C479 C 0.90977 0.15745 0.49396 0.0
C480 C 0.89278 0.1512 0.43137 0.0
C481 C 0.89242 0.12786 0.40048 0.0
H482 H 0.73479 0.1731 0.24401 0.0
H483 H 0.70077 0.24052 0.27645 0.0
H484 H 0.6622 0.22216 0.24751 0.0
H485 H 0.6993 0.15346 0.06909 0.0
H486 H 0.69874 0.12336 0.10375 0.0
H487 H 0.72334 0.14165 0.13071 0.0
H488 H 0.71724 0.1324 0.29245 0.0
H489 H 0.69265 0.11403 0.266 0.0
H490 H 0.68901 0.13778 0.34141 0.0
H491 H 0.6273 0.19614 0.21177 0.0
H492 H 0.59927 0.16537 0.16992 0.0
H493 H 0.6562 0.11475 0.16004 0.0
C494 C 0.71919 0.18399 0.24574 0.0
C495 C 0.72076 0.20828 0.26304 0.0
C496 C 0.69998 0.22191 0.26378 0.0
C497 C 0.67801 0.21159 0.24737 0.0
C498 C 0.6771 0.1876 0.23005 0.0
C499 C 0.69718 0.17398 0.22905 0.0
C500 C 0.69157 0.14874 0.20642 0.0
C501 C 0.70397 0.14138 0.12251 0.0
C502 C 0.698 0.13227 0.28102 0.0
C503 C 0.66518 0.15022 0.19441 0.0
C504 C 0.65715 0.17275 0.20877 0.0
C505 C 0.63344 0.17843 0.20093 0.0
C506 C 0.61757 0.16072 0.17763 0.0
C507 C 0.62533 0.13744 0.16202 0.0
C508 C 0.64958 0.1323 0.17084 0.0
H509 H 0.64542 0.89629 0.81911 0.0
H510 H 0.61615 0.84577 0.9979 0.0
H511 H 0.58831 0.8757 0.05103 0.0
H512 H 0.64146 0.94648 0.9625 0.0
H513 H 0.63391 0.96651 0.8773 0.0
H514 H 0.65171 0.94114 0.85431 0.0
H515 H 0.62208 0.9283 0.73724 0.0
H516 H 0.60413 0.95357 0.76019 0.0
H517 H 0.5916 0.92468 0.7656 0.0
H518 H 0.56284 0.91127 0.08305 0.0
H519 H 0.54274 0.94974 0.0927 0.0
H520 H 0.58905 0.97698 0.8949 0.0
C521 C 0.63339 0.89156 0.87026 0.0
C522 C 0.63302 0.86854 0.90393 0.0
C523 C 0.61665 0.86312 0.96998 0.0
C524 C 0.6008 0.88006 1.001 0.0
C525 C 0.60149 0.90247 0.9657 0.0
C526 C 0.61744 0.90827 0.90202 0.0
C527 C 0.61442 0.93354 0.87432 0.0
C528 C 0.6367 0.94775 0.89326 0.0
C529 C 0.60765 0.9351 0.77867 0.0
C530 C 0.59424 0.94103 0.93208 0.0
C531 C 0.587 0.92287 0.9844 0.0
C532 C 0.56845 0.92562 0.04258 0.0
C533 C 0.55711 0.94751 0.04762 0.0
C534 C 0.56437 0.96634 0.99482 0.0
C535 C 0.58315 0.96293 0.93633 0.0
H536 H 0.64637 0.62541 0.9665 0.0
H537 H 0.59107 0.65496 0.80873 0.0
H538 H 0.61804 0.68659 0.76234 0.0
H539 H 0.67135 0.68064 0.03544 0.0
H540 H 0.70101 0.66958 0.03287 0.0
H541 H 0.67699 0.65004 0.05501 0.0
H542 H 0.69016 0.62336 0.92856 0.0
H543 H 0.71421 0.64279 0.90612 0.0
H544 H 0.69351 0.63574 0.82252 0.0
H545 H 0.65272 0.71395 0.72714 0.0
H546 H 0.69082 0.73454 0.71079 0.0
H547 H 0.72218 0.68698 0.89528 0.0
C548 C 0.6399 0.6385 0.92201 0.0
C549 C 0.61665 0.6376 0.89066 0.0
C550 C 0.60878 0.65534 0.83379 0.0
C551 C 0.62401 0.67332 0.80696 0.0
C552 C 0.64696 0.67349 0.83844 0.0
C553 C 0.65473 0.65658 0.89536 0.0
C554 C 0.68014 0.66037 0.91963 0.0
C555 C 0.6825 0.66547 1.01648 0.0
C556 C 0.6954 0.63932 0.89256 0.0
C557 C 0.6857 0.68181 0.86638 0.0
C558 C 0.66641 0.68925 0.81991 0.0
C559 C 0.66783 0.70834 0.76391 0.0
C560 C 0.68951 0.71994 0.75497 0.0
C561 C 0.70941 0.71243 0.802 0.0
C562 C 0.70726 0.69327 0.85884 0.0
H563 H 0.64682 0.39481 0.22537 0.0
H564 H 0.61493 0.34062 0.06951 0.0
H565 H 0.58257 0.36792 0.03177 0.0
H566 H 0.59259 0.41941 0.30803 0.0
H567 H 0.60346 0.449 0.30585 0.0
H568 H 0.62351 0.42493 0.32137 0.0
H569 H 0.64815 0.4388 0.19055 0.0
H570 H 0.62822 0.46291 0.17476 0.0
H571 H 0.63405 0.44278 0.08779 0.0
H572 H 0.5546 0.40275 1.00526 0.0
H573 H 0.53352 0.44083 0.99707 0.0
H574 H 0.58367 0.47093 0.17465 0.0
C575 C 0.63308 0.38867 0.18303 0.0
C576 C 0.63352 0.36562 0.14978 0.0
C577 C 0.61493 0.35817 0.09591 0.0
C578 C 0.59653 0.37359 0.074 0.0
C579 C 0.59679 0.3963 0.10738 0.0
C580 C 0.61456 0.40368 0.16136 0.0
C581 C 0.611 0.42887 0.18884 0.0
C582 C 0.60742 0.43065 0.28683 0.0
C583 C 0.63157 0.44424 0.15865 0.0
C584 C 0.58866 0.43475 0.14093 0.0
C585 C 0.58063 0.41582 0.09413 0.0
C586 C 0.56067 0.41758 0.04236 0.0
C587 C 0.54879 0.43924 0.03804 0.0
C588 C 0.55686 0.45878 0.08555 0.0
C589 C 0.57692 0.45628 0.13812 0.0
H590 H 0.881 0.39339 0.48244 0.0
H591 H 0.92961 0.36963 0.2848 0.0
H592 H 0.9017 0.33874 0.24295 0.0
H593 H 0.85952 0.33677 0.54388 0.0
H594 H 0.8297 0.34656 0.55943 0.0
H595 H 0.85363 0.36664 0.57494 0.0
H596 H 0.83525 0.39516 0.46421 0.0
H597 H 0.81117 0.37525 0.44892 0.0
H598 H 0.82832 0.38471 0.35773 0.0
H599 H 0.86803 0.30998 0.22218 0.0
H600 H 0.83088 0.28748 0.2206 0.0
H601 H 0.80407 0.33059 0.42902 0.0
C602 C 0.88576 0.3819 0.4297 0.0
C603 C 0.90775 0.38405 0.38748 0.0
C604 C 0.91317 0.36826 0.3195 0.0
C605 C 0.89734 0.35065 0.29485 0.0
C606 C 0.87598 0.34893 0.33838 0.0
C607 C 0.87012 0.36423 0.40406 0.0
C608 C 0.84591 0.35885 0.43978 0.0
C609 C 0.84729 0.35179 0.53516 0.0
C610 C 0.82918 0.37973 0.42685 0.0
C611 C 0.839 0.33823 0.38372 0.0
C612 C 0.85662 0.33264 0.32588 0.0
C613 C 0.85413 0.31425 0.26722 0.0
C614 C 0.833 0.30151 0.26686 0.0
C615 C 0.81456 0.30725 0.32452 0.0
C616 C 0.81783 0.32572 0.38415 0.0
H617 H 0.88009 0.62493 0.71083 0.0
H618 H 0.90238 0.67373 0.51348 0.0
H619 H 0.93262 0.64532 0.46469 0.0
H620 H 0.93724 0.60224 0.76424 0.0
H621 H 0.92693 0.57273 0.77953 0.0
H622 H 0.90748 0.5971 0.79901 0.0
H623 H 0.87749 0.57977 0.69134 0.0
H624 H 0.89684 0.55535 0.67161 0.0
H625 H 0.88677 0.57305 0.583 0.0
H626 H 0.96113 0.61112 0.43944 0.0
H627 H 0.98352 0.57379 0.43548 0.0
H628 H 0.94153 0.54759 0.64752 0.0
C629 C 0.89148 0.62976 0.65784 0.0
C630 C 0.88898 0.65167 0.6164 0.0
C631 C 0.90391 0.65705 0.54604 0.0
C632 C 0.9212 0.64105 0.51818 0.0
C633 C 0.92323 0.61964 0.56083 0.0
C634 C 0.90862 0.61396 0.62882 0.0
C635 C 0.91383 0.58961 0.66247 0.0
C636 C 0.92185 0.59049 0.7569 0.0
C637 C 0.89246 0.5735 0.65141 0.0
C638 C 0.93376 0.58245 0.60322 0.0
C639 C 0.93907 0.59999 0.54519 0.0
C640 C 0.95701 0.59727 0.48446 0.0
C641 C 0.96966 0.57604 0.48268 0.0
C642 C 0.96419 0.55777 0.54086 0.0
C643 C 0.94607 0.56119 0.60196 0.0
H644 H 0.29131 0.34477 0.24873 0.0
H645 H 0.32436 0.27656 0.26978 0.0
H646 H 0.36318 0.29465 0.24279 0.0
H647 H 0.32688 0.36577 0.07636 0.0
H648 H 0.32795 0.39544 0.11566 0.0
H649 H 0.30309 0.37727 0.14062 0.0
H650 H 0.30949 0.38461 0.3035 0.0
H651 H 0.33434 0.40288 0.27905 0.0
H652 H 0.3377 0.37827 0.35054 0.0
H653 H 0.3983 0.32038 0.20945 0.0
H654 H 0.42674 0.35114 0.17111 0.0
H655 H 0.37061 0.40271 0.17181 0.0
C656 C 0.30676 0.33366 0.24843 0.0
C657 C 0.30489 0.30925 0.26188 0.0
C658 C 0.32544 0.29529 0.26013 0.0
C659 C 0.34754 0.30543 0.24478 0.0
C660 C 0.34875 0.32957 0.23117 0.0
C661 C 0.32888 0.34349 0.23288 0.0
C662 C 0.33482 0.36885 0.21404 0.0
C663 C 0.32245 0.37732 0.13178 0.0
C664 C 0.32873 0.38458 0.2914 0.0
C665 C 0.36114 0.36707 0.20091 0.0
C666 C 0.36885 0.34428 0.21147 0.0
C667 C 0.39244 0.33829 0.20166 0.0
C668 C 0.40852 0.35597 0.18038 0.0
C669 C 0.40106 0.3795 0.16885 0.0
C670 C 0.37696 0.38496 0.17953 0.0
H671 H 0.42395 0.54231 0.03726 0.0
H672 H 0.49342 0.57231 1.0129 0.0
H673 H 0.47561 0.61115 0.98348 0.0
H674 H 0.39768 0.57374 0.86837 0.0
H675 H 0.36974 0.5774 0.92147 0.0
H676 H 0.38801 0.55263 0.94697 0.0
H677 H 0.3871 0.56415 0.10837 0.0
H678 H 0.36872 0.58894 0.08341 0.0
H679 H 0.39595 0.59317 0.1401 0.0
H680 H 0.44962 0.64625 0.9461 0.0
H681 H 0.41834 0.6741 0.90514 0.0
H682 H 0.36595 0.62107 0.95955 0.0
C683 C 0.43543 0.55713 1.02697 0.0
C684 C 0.46008 0.55437 1.02788 0.0
C685 C 0.4745 0.57411 1.01328 0.0
C686 C 0.46451 0.59621 0.99639 0.0
C687 C 0.44008 0.5983 0.99496 0.0
C688 C 0.42575 0.57926 1.01047 0.0
C689 C 0.40006 0.58582 1.00221 0.0
C690 C 0.38819 0.57155 0.93049 0.0
C691 C 0.3872 0.58285 0.08868 0.0
C692 C 0.40208 0.61141 0.97787 0.0
C693 C 0.42527 0.61836 0.97441 0.0
C694 C 0.4314 0.64102 0.94974 0.0
C695 C 0.41344 0.65681 0.92709 0.0
C696 C 0.38951 0.64997 0.92902 0.0
C697 C 0.38397 0.62697 0.95629 0.0
H698 H 0.22531 0.69393 0.62902 0.0
H699 H 0.19932 0.73556 0.84276 0.0
H700 H 0.16173 0.71377 0.83838 0.0
H701 H 0.16992 0.68967 0.51364 0.0
H702 H 0.17545 0.66003 0.47901 0.0
H703 H 0.19964 0.67963 0.49736 0.0
H704 H 0.21774 0.6499 0.60431 0.0
H705 H 0.19352 0.6303 0.58689 0.0
H706 H 0.20051 0.63984 0.69444 0.0
H707 H 0.12734 0.6859 0.81318 0.0
H708 H 0.09906 0.65565 0.76775 0.0
H709 H 0.14773 0.63261 0.56929 0.0
C710 C 0.21164 0.69864 0.67447 0.0
C711 C 0.21526 0.71648 0.73633 0.0
C712 C 0.19693 0.722 0.79478 0.0
C713 C 0.17555 0.70968 0.79278 0.0
C714 C 0.17272 0.6919 0.7318 0.0
C715 C 0.19026 0.68652 0.67337 0.0
C716 C 0.18308 0.66644 0.61514 0.0
C717 C 0.18195 0.67443 0.5207 0.0
C718 C 0.1997 0.64538 0.62588 0.0
C719 C 0.15881 0.66113 0.65029 0.0
C720 C 0.1531 0.67603 0.71739 0.0
C721 C 0.13164 0.67429 0.76031 0.0
C722 C 0.1156 0.65706 0.73369 0.0
C723 C 0.12099 0.64162 0.66466 0.0
C724 C 0.14303 0.64382 0.62291 0.0
H725 H 0.14799 0.39719 0.33379 0.0
H726 H 0.11749 0.34756 0.51328 0.0
H727 H 0.0893 0.37769 0.56169 0.0
H728 H 0.14299 0.44807 0.47384 0.0
H729 H 0.13601 0.46774 0.38688 0.0
H730 H 0.15398 0.44229 0.36691 0.0
H731 H 0.12516 0.42896 0.24791 0.0
H732 H 0.10705 0.4543 0.26785 0.0
H733 H 0.0945 0.42542 0.27369 0.0
H734 H 0.06361 0.41311 0.58872 0.0
H735 H 0.04338 0.45149 0.59484 0.0
H736 H 0.09097 0.47834 0.40038 0.0
C737 C 0.1356 0.39271 0.3841 0.0
C738 C 0.13497 0.36984 0.41924 0.0
C739 C 0.11817 0.36476 0.48417 0.0
C740 C 0.10212 0.38182 0.51253 0.0
C741 C 0.10305 0.40404 0.47579 0.0
C742 C 0.11943 0.40957 0.4133 0.0
C743 C 0.11657 0.43475 0.38394 0.0
C744 C 0.13871 0.44906 0.40412 0.0
C745 C 0.11045 0.43591 0.28764 0.0
C746 C 0.09599 0.44246 0.43944 0.0
C747 C 0.08842 0.42448 0.49194 0.0
C748 C 0.06948 0.42734 0.54817 0.0
C749 C 0.05807 0.44919 0.55119 0.0
C750 C 0.06566 0.4679 0.49845 0.0
C751 C 0.08484 0.46438 0.44177 0.0
H752 H 0.01874 0.04137 0.8766 0.0
H753 H 0.02344 0.96675 0.8244 0.0
H754 H 0.02549 0.95878 0.97912 0.0
H755 H 0.05842 0.04104 0.06495 0.0
H756 H 0.04138 0.06233 0.12402 0.0
H757 H 0.04165 0.06286 1.00796 0.0
H758 H 0.9963 0.06025 1.0067 0.0
H759 H 0.9959 0.05963 0.12265 0.0
H760 H 0.98204 0.03653 0.06243 0.0
H761 H 0.02448 0.95786 0.13719 0.0
H762 H 0.02157 0.96429 0.2933 0.0
H763 H 0.01821 0.03938 0.25132 0.0
C764 C 0.02054 0.02342 0.89787 0.0
C765 C 0.02084 1.00471 0.83761 0.0
C766 C 0.02297 0.98144 0.86852 0.0
C767 C 0.02424 0.97667 0.95666 0.0
C768 C 0.02345 0.9953 1.01421 0.0
C769 C 0.02178 0.01824 0.98669 0.0
C770 C 0.02049 0.03475 0.06377 0.0
C771 C 0.04176 0.05122 0.06524 0.0
C772 C 0.9973 0.04861 0.06386 0.0
C773 C 0.02137 0.01739 0.13819 0.0
C774 C 0.02312 0.99477 0.10743 0.0
C775 C 0.0233 0.97551 0.16225 0.0
C776 C 0.02153 0.97936 0.25106 0.0
C777 C 0.0197 1.00232 0.28506 0.0
C778 C 0.01985 0.02163 0.22754 0.0
H779 H 0.23617 0.7743 0.47014 0.0
H780 H 0.31134 0.76827 0.51159 0.0
H781 H 0.3179 0.76733 0.35557 0.0
H782 H 0.23341 0.7355 0.29253 0.0
H783 H 0.212 0.75193 0.23217 0.0
H784 H 0.21265 0.7541 0.34785 0.0
H785 H 0.21695 0.7991 0.33721 0.0
H786 H 0.2161 0.7971 0.2214 0.0
H787 H 0.24042 0.81131 0.27361 0.0
H788 H 0.31685 0.76341 0.19886 0.0
H789 H 0.30848 0.75965 0.04474 0.0
H790 H 0.23405 0.76936 0.09596 0.0
C791 C 0.254 0.77328 0.44616 0.0
C792 C 0.27323 0.77129 0.50357 0.0
C793 C 0.29628 0.76964 0.46944 0.0
C794 C 0.30024 0.76914 0.38064 0.0
C795 C 0.28101 0.77044 0.32595 0.0
C796 C 0.25834 0.77276 0.35671 0.0
C797 C 0.24094 0.77301 0.28235 0.0
C798 C 0.22374 0.75241 0.28916 0.0
C799 C 0.22783 0.79653 0.27842 0.0
C800 C 0.25744 0.77006 0.20571 0.0
C801 C 0.28044 0.7686 0.23317 0.0
C802 C 0.29894 0.76478 0.17627 0.0
C803 C 0.29394 0.76249 0.08865 0.0
C804 C 0.2706 0.76417 0.05781 0.0
C805 C 0.25208 0.76817 0.11738 0.0
H806 H 0.50964 0.98153 0.70865 0.0
H807 H 0.50257 0.05648 0.74953 0.0
H808 H 0.50144 0.06276 0.59353 0.0
H809 H 0.54776 0.98528 0.52888 0.0
H810 H 0.53522 0.96126 0.46956 0.0
H811 H 0.5334 0.96175 0.58534 0.0
H812 H 0.48818 0.95803 0.57733 0.0
H813 H 0.48987 0.95735 0.46142 0.0
H814 H 0.47162 0.97881 0.51454 0.0
H815 H 0.50435 0.06209 0.43752 0.0
H816 H 0.50927 0.05437 0.28346 0.0
H817 H 0.51388 0.9797 0.33456 0.0
C818 C 0.5074 0.99916 0.68445 0.0
C819 C 0.50624 0.01853 0.7414 0.0
C820 C 0.50366 0.04139 0.70741 0.0
C821 C 0.50291 0.04517 0.61874 0.0
C822 C 0.50469 0.02592 0.56434 0.0
C823 C 0.5067 1.00333 0.59516 0.0
C824 C 0.50934 0.98606 0.52097 0.0
C825 C 0.53283 0.97281 0.52655 0.0
C826 C 0.48851 0.96906 0.51843 0.0
C827 C 0.50895 1.00264 0.44435 0.0
C828 C 0.50619 0.02551 0.47173 0.0
C829 C 0.50631 0.04426 0.41494 0.0
C830 C 0.50931 0.03965 0.3274 0.0
C831 C 0.51207 0.01643 0.29675 0.0
C832 C 0.51167 0.99761 0.35609 0.0
H833 H 0.28167 0.23295 0.96732 0.0
H834 H 0.24057 0.29578 1.0161 0.0
H835 H 0.24024 0.30456 0.86172 0.0
H836 H 0.31643 0.25674 0.78537 0.0
H837 H 0.31558 0.22991 0.7243 0.0
H838 H 0.31463 0.22902 0.84031 0.0
H839 H 0.27602 0.20533 0.83427 0.0
H840 H 0.27686 0.20613 0.71837 0.0
H841 H 0.25137 0.21687 0.77516 0.0
H842 H 0.24181 0.30608 0.70537 0.0
H843 H 0.24423 0.2996 0.54947 0.0
H844 H 0.28394 0.23563 0.59211 0.0
C845 C 0.27291 0.24867 0.94521 0.0
C846 C 0.26108 0.26365 1.00401 0.0
C847 C 0.24954 0.2839 0.97254 0.0
C848 C 0.24938 0.28918 0.88483 0.0
C849 C 0.26077 0.27402 0.82844 0.0
C850 C 0.27229 0.25413 0.85659 0.0
C851 C 0.28178 0.24025 0.78006 0.0
C852 C 0.30871 0.23891 0.78269 0.0
C853 C 0.27085 0.21569 0.7768 0.0
C854 C 0.2734 0.25534 0.70522 0.0
C855 C 0.26154 0.27481 0.73556 0.0
C856 C 0.25119 0.291 0.68058 0.0
C857 C 0.2526 0.28709 0.59195 0.0
C858 C 0.26427 0.26713 0.55834 0.0
C859 C 0.27518 0.25121 0.61586 0.0
H860 H 0.74496 0.2856 0.9716 0.0
H861 H 0.7852 0.22219 1.01885 0.0
H862 H 0.78507 0.21325 0.8646 0.0
H863 H 0.70945 0.26217 0.79189 0.0
H864 H 0.71059 0.28889 0.73039 0.0
H865 H 0.71184 0.28995 0.84632 0.0
H866 H 0.75083 0.31298 0.83791 0.0
H867 H 0.74966 0.31204 0.72208 0.0
H868 H 0.77513 0.30097 0.77755 0.0
H869 H 0.78301 0.21149 0.70848 0.0
H870 H 0.78037 0.21783 0.55263 0.0
H871 H 0.74189 0.28253 0.59661 0.0
C872 C 0.75347 0.26974 0.94919 0.0
C873 C 0.76517 0.25464 1.00754 0.0
C874 C 0.77635 0.23418 0.97567 0.0
C875 C 0.77624 0.22881 0.88801 0.0
C876 C 0.76494 0.24407 0.8321 0.0
C877 C 0.75382 0.26418 0.86061 0.0
C878 C 0.74436 0.27809 0.78445 0.0
C879 C 0.71746 0.27988 0.78853 0.0
C880 C 0.75568 0.30247 0.78027 0.0
C881 C 0.75229 0.26276 0.70938 0.0
C882 C 0.76391 0.24314 0.73931 0.0
C883 C 0.77383 0.22669 0.68401 0.0
C884 C 0.77229 0.23051 0.59543 0.0
C885 C 0.76092 0.25064 0.56224 0.0
C886 C 0.75039 0.26681 0.6201 0.0
H887 H 0.72693 0.76626 0.4373 0.0
H888 H 0.8018 0.76182 0.48778 0.0
H889 H 0.80996 0.76492 0.33325 0.0
H890 H 0.72821 0.73131 0.24554 0.0
H891 H 0.70645 0.74818 0.1886 0.0
H892 H 0.70595 0.74716 0.3045 0.0
H893 H 0.70763 0.79241 0.31044 0.0
H894 H 0.70818 0.79356 0.19445 0.0
H895 H 0.73104 0.80753 0.25567 0.0
H896 H 0.8108 0.76668 0.17556 0.0
H897 H 0.80412 0.76603 1.01948 0.0
H898 H 0.72882 0.76918 0.06292 0.0
C899 C 0.74501 0.76619 0.41569 0.0
C900 C 0.7637 0.76373 0.47528 0.0
C901 C 0.78712 0.76348 0.44404 0.0
C902 C 0.792 0.76537 0.35608 0.0
C903 C 0.77334 0.76749 0.29916 0.0
C904 C 0.75029 0.76788 0.32706 0.0
C905 C 0.73368 0.76926 0.25045 0.0
C906 C 0.71763 0.74769 0.2471 0.0
C907 C 0.71928 0.79205 0.25293 0.0
C908 C 0.75107 0.7693 0.17574 0.0
C909 C 0.77383 0.76844 0.20607 0.0
C910 C 0.79307 0.76749 0.15085 0.0
C911 C 0.78906 0.76706 0.06206 0.0
C912 C 0.76596 0.76758 1.02851 0.0
C913 C 0.74669 0.76906 0.08642 0.0
H914 H 0.50287 0.47734 0.72674 0.0
H915 H 0.50948 0.55181 0.77829 0.0
H916 H 0.5065 0.56008 0.62395 0.0
H917 H 0.53793 0.47749 0.53481 0.0
H918 H 0.52043 0.45637 0.47761 0.0
H919 H 0.52144 0.45581 0.59349 0.0
H920 H 0.47613 0.459 0.59974 0.0
H921 H 0.47499 0.45962 0.48377 0.0
H922 H 0.4616 0.48285 0.54547 0.0
H923 H 0.50464 0.56102 0.46667 0.0
H924 H 0.50514 0.55441 0.31052 0.0
H925 H 0.50004 0.47942 0.3525 0.0
C926 C 0.50344 0.49536 0.70536 0.0
C927 C 0.50648 0.5139 0.7651 0.0
C928 C 0.50739 0.53724 0.7343 0.0
C929 C 0.50556 0.5422 0.6465 0.0
C930 C 0.50287 0.52367 0.58938 0.0
C931 C 0.50186 0.5007 0.61689 0.0
C932 C 0.50003 0.4842 0.54005 0.0
C933 C 0.52122 0.46748 0.53629 0.0
C934 C 0.4768 0.47061 0.54242 0.0
C935 C 0.50046 0.50157 0.46571 0.0
C936 C 0.50192 0.52421 0.49642 0.0
C937 C 0.50338 0.54339 0.44163 0.0
C938 C 0.50373 0.53941 0.35281 0.0
C939 C 0.50263 0.51641 0.31888 0.0
C940 C 0.50062 0.49722 0.37635 0.0
H941 H 0.01907 0.54422 0.83147 0.0
H942 H 0.02841 0.46955 0.78965 0.0
H943 H 0.02971 0.46314 0.9455 0.0
H944 H 0.05701 0.54782 1.02592 0.0
H945 H 0.03813 0.56868 0.0793 0.0
H946 H 0.03988 0.56819 0.96338 0.0
H947 H 0.99479 0.56319 0.95512 0.0
H948 H 0.99292 0.56347 0.0709 0.0
H949 H 0.9811 0.53918 1.01108 0.0
H950 H 0.0266 0.46351 0.10134 0.0
H951 H 0.02143 0.47091 0.25554 0.0
H952 H 0.0148 0.54549 0.20563 0.0
C953 C 0.02186 0.52665 0.85546 0.0
C954 C 0.02357 0.50737 0.79829 0.0
C955 C 0.02685 0.48457 0.83197 0.0
C956 C 0.02771 0.48072 0.92055 0.0
C957 C 0.02534 0.49984 0.97518 0.0
C958 C 0.02268 0.52241 0.9447 0.0
C959 C 0.01952 0.53949 1.01917 0.0
C960 C 0.03985 0.55709 1.0221 0.0
C961 C 0.99566 0.55207 1.01371 0.0
C962 C 0.02037 0.52283 0.0955 0.0
C963 C 0.02378 0.50009 0.06776 0.0
C964 C 0.02415 0.48125 0.12422 0.0
C965 C 0.021 0.48567 0.21182 0.0
C966 C 0.01762 0.50878 0.24282 0.0
C967 C 0.01749 0.52767 0.18381 0.0
loop_
_geom_bond_atom_site_label_1
_geom_bond_atom_site_label_2
_geom_bond_distance
_geom_bond_site_symmetry_2
_ccdc_geom_bond_type
Nd0 C2 2.836 . S
Nd0 O20 2.500 . S
Nd0 O21 2.492 . S
Nd0 O22 2.487 1_545 S
Nd0 O23 2.682 1_545 S
Nd0 O24 2.410 . S
Nd0 O29 2.414 1_455 S
Nd0 O31 2.424 . S
Nd1 C11 2.836 . S
Nd1 O23 2.414 1_655 S
Nd1 O25 2.424 . S
Nd1 O26 2.500 . S
Nd1 O27 2.492 . S
Nd1 O28 2.487 1_565 S
Nd1 O29 2.682 1_565 S
Nd1 O30 2.410 . S
C2 Nd0 2.836 . S
C2 C3 1.498 . S
C2 O20 1.258 . S
C2 O21 1.239 . S
C3 C2 1.498 . S
C3 C4 1.366 . S
C3 C8 1.407 . S
C4 C3 1.366 . S
C4 C5 1.392 . S
C4 H32 0.930 . S
C5 C4 1.392 . S
C5 C6 1.398 . S
C5 H33 0.929 . S
C6 C5 1.398 . S
C6 C7 1.352 . S
C7 C6 1.352 . S
C7 C8 1.384 . S
C7 H34 0.930 . S
C8 C3 1.407 . S
C8 C7 1.384 . S
C8 H35 0.929 . S
C9 O22 1.241 . S
C9 O23 1.273 . S
C10 O24 1.251 . S
C10 O25 1.268 1_445 S
C11 Nd1 2.836 . S
C11 C12 1.498 . S
C11 O26 1.258 . S
C11 O27 1.239 . S
C12 C11 1.498 . S
C12 C13 1.366 . S
C12 C17 1.407 . S
C13 C12 1.366 . S
C13 C14 1.392 . S
C13 H36 0.930 . S
C14 C13 1.392 . S
C14 C15 1.398 . S
C14 H37 0.929 . S
C15 C14 1.398 . S
C15 C16 1.352 . S
C16 C15 1.352 . S
C16 C17 1.384 . S
C16 H38 0.930 . S
C17 C12 1.407 . S
C17 C16 1.384 . S
C17 H39 0.929 . S
C18 O28 1.241 . S
C18 O29 1.273 . S
C19 O30 1.251 . S
C19 O31 1.268 1_665 S
O20 Nd0 2.500 . S
O20 C2 1.258 . S
O21 Nd0 2.492 . S
O21 C2 1.239 . S
O22 Nd0 2.487 1_565 S
O22 C9 1.241 . S
O23 Nd0 2.682 1_565 S
O23 Nd1 2.414 1_455 S
O23 C9 1.273 . S
O24 Nd0 2.410 . S
O24 C10 1.251 . S
O25 Nd1 2.424 . S
O25 C10 1.268 1_665 S
O26 Nd1 2.500 . S
O26 C11 1.258 . S
O27 Nd1 2.492 . S
O27 C11 1.239 . S
O28 Nd1 2.487 1_545 S
O28 C18 1.241 . S
O29 Nd0 2.414 1_655 S
O29 Nd1 2.682 1_545 S
O29 C18 1.273 . S
O30 Nd1 2.410 . S
O30 C19 1.251 . S
O31 Nd0 2.424 . S
O31 C19 1.268 1_445 S
H32 C4 0.930 . S
H33 C5 0.929 . S
H34 C7 0.930 . S
H35 C8 0.929 . S
H36 C13 0.930 . S
H37 C14 0.929 . S
H38 C16 0.930 . S
H39 C17 0.929 . S
Nd40 C42 2.836 . S
Nd40 O60 2.500 . S
Nd40 O61 2.492 . S
Nd40 O62 2.487 . S
Nd40 O63 2.682 . S
Nd40 O64 2.410 . S
Nd40 O69 2.414 . S
Nd40 O71 2.424 . S
Nd41 C51 2.836 . S
Nd41 O63 2.414 . S
Nd41 O65 2.424 . S
Nd41 O66 2.500 . S
Nd41 O67 2.492 . S
Nd41 O68 2.487 . S
Nd41 O69 2.682 . S
Nd41 O70 2.410 . S
C42 Nd40 2.836 . S
C42 C43 1.498 . S
C42 O60 1.258 . S
C42 O61 1.239 . S
C43 C42 1.498 . S
C43 C44 1.366 . S
C43 C48 1.407 . S
C44 C43 1.366 . S
C44 C45 1.392 . S
C44 H72 0.930 . S
C45 C44 1.392 . S
C45 C46 1.398 . S
C45 H73 0.929 . S
C46 C45 1.398 . S
C46 C47 1.352 . S
C47 C46 1.352 . S
C47 C48 1.384 . S
C47 H74 0.930 . S
C48 C43 1.407 . S
C48 C47 1.384 . S
C48 H75 0.929 . S
C49 O62 1.241 . S
C49 O63 1.273 . S
C50 O64 1.251 . S
C50 O65 1.268 . S
C51 Nd41 2.836 . S
C51 C52 1.498 . S
C51 O66 1.258 . S
C51 O67 1.239 . S
C52 C51 1.498 . S
C52 C53 1.366 . S
C52 C57 1.407 . S
C53 C52 1.366 . S
C53 C54 1.392 . S
C53 H76 0.930 . S
C54 C53 1.392 . S
C54 C55 1.398 . S
C54 H77 0.929 1_556 S
C55 C54 1.398 . S
C55 C56 1.352 . S
C56 C55 1.352 . S
C56 C57 1.384 . S
C56 H78 0.930 . S
C57 C52 1.407 . S
C57 C56 1.384 . S
C57 H79 0.929 . S
C58 O68 1.241 . S
C58 O69 1.273 . S
C59 O70 1.251 . S
C59 O71 1.268 . S
O60 Nd40 2.500 . S
O60 C42 1.258 . S
O61 Nd40 2.492 . S
O61 C42 1.239 . S
O62 Nd40 2.487 . S
O62 C49 1.241 . S
O63 Nd40 2.682 . S
O63 Nd41 2.414 . S
O63 C49 1.273 . S
O64 Nd40 2.410 . S
O64 C50 1.251 . S
O65 Nd41 2.424 . S
O65 C50 1.268 . S
O66 Nd41 2.500 . S
O66 C51 1.258 . S
O67 Nd41 2.492 . S
O67 C51 1.239 . S
O68 Nd41 2.487 . S
O68 C58 1.241 . S
O69 Nd40 2.414 . S
O69 Nd41 2.682 . S
O69 C58 1.273 . S
O70 Nd41 2.410 . S
O70 C59 1.251 . S
O71 Nd40 2.424 . S
O71 C59 1.268 . S
H72 C44 0.930 . S
H73 C45 0.929 . S
H74 C47 0.930 . S
H75 C48 0.929 . S
H76 C53 0.930 . S
H77 C54 0.929 1_554 S
H78 C56 0.930 . S
H79 C57 0.929 . S
Nd80 C82 2.836 1_554 S
Nd80 O100 2.500 1_554 S
Nd80 O101 2.492 1_554 S
Nd80 O102 2.487 1_565 S
Nd80 O103 2.682 1_565 S
Nd80 O104 2.410 1_554 S
Nd80 O109 2.414 1_554 S
Nd80 O111 2.424 . S
Nd81 C91 2.836 1_556 S
Nd81 O103 2.414 1_556 S
Nd81 O105 2.424 . S
Nd81 O106 2.500 1_556 S
Nd81 O107 2.492 1_556 S
Nd81 O108 2.487 1_545 S
Nd81 O109 2.682 1_545 S
Nd81 O110 2.410 1_556 S
C82 Nd80 2.836 1_556 S
C82 C83 1.498 . S
C82 O100 1.258 . S
C82 O101 1.239 . S
C83 C82 1.498 . S
C83 C84 1.366 . S
C83 C88 1.407 . S
C84 C83 1.366 . S
C84 C85 1.392 . S
C84 H112 0.930 . S
C85 C84 1.392 . S
C85 C86 1.398 . S
C85 H113 0.929 . S
C86 C85 1.398 . S
C86 C87 1.352 . S
C87 C86 1.352 . S
C87 C88 1.384 . S
C87 H114 0.930 . S
C88 C83 1.407 . S
C88 C87 1.384 . S
C88 H115 0.929 . S
C89 O102 1.241 . S
C89 O103 1.273 . S
C90 O104 1.251 . S
C90 O105 1.268 1_565 S
C91 Nd81 2.836 1_554 S
C91 C92 1.498 . S
C91 O106 1.258 . S
C91 O107 1.239 . S
C92 C91 1.498 . S
C92 C93 1.366 . S
C92 C97 1.407 . S
C93 C92 1.366 . S
C93 C94 1.392 . S
C93 H116 0.930 . S
C94 C93 1.392 . S
C94 C95 1.398 . S
C94 H117 0.929 . S
C95 C94 1.398 . S
C95 C96 1.352 . S
C96 C95 1.352 . S
C96 C97 1.384 . S
C96 H118 0.930 . S
C97 C92 1.407 . S
C97 C96 1.384 . S
C97 H119 0.929 . S
C98 O108 1.241 . S
C98 O109 1.273 . S
C99 O110 1.251 . S
C99 O111 1.268 1_545 S
O100 Nd80 2.500 1_556 S
O100 C82 1.258 . S
O101 Nd80 2.492 1_556 S
O101 C82 1.239 . S
O102 Nd80 2.487 1_545 S
O102 C89 1.241 . S
O103 Nd80 2.682 1_545 S
O103 Nd81 2.414 1_554 S
O103 C89 1.273 . S
O104 Nd80 2.410 1_556 S
O104 C90 1.251 . S
O105 Nd81 2.424 . S
O105 C90 1.268 1_545 S
O106 Nd81 2.500 1_554 S
O106 C91 1.258 . S
O107 Nd81 2.492 1_554 S
O107 C91 1.239 . S
O108 Nd81 2.487 1_565 S
O108 C98 1.241 . S
O109 Nd80 2.414 1_556 S
O109 Nd81 2.682 1_565 S
O109 C98 1.273 . S
O110 Nd81 2.410 1_554 S
O110 C99 1.251 . S
O111 Nd80 2.424 . S
O111 C99 1.268 1_565 S
H112 C84 0.930 . S
H113 C85 0.929 . S
H114 C87 0.930 . S
H115 C88 0.929 . S
H116 C93 0.930 . S
H117 C94 0.929 . S
H118 C96 0.930 . S
H119 C97 0.929 . S
Nd120 C122 2.836 . S
Nd120 O140 2.500 . S
Nd120 O141 2.492 . S
Nd120 O142 2.487 . S
Nd120 O143 2.682 . S
Nd120 O144 2.410 . S
Nd120 O149 2.414 . S
Nd120 O151 2.424 . S
Nd121 C131 2.836 . S
Nd121 O143 2.414 . S
Nd121 O145 2.424 . S
Nd121 O146 2.500 . S
Nd121 O147 2.492 . S
Nd121 O148 2.487 . S
Nd121 O149 2.682 . S
Nd121 O150 2.410 . S
C122 Nd120 2.836 . S
C122 C123 1.498 . S
C122 O140 1.258 . S
C122 O141 1.239 . S
C123 C122 1.498 . S
C123 C124 1.366 . S
C123 C128 1.407 . S
C124 C123 1.366 . S
C124 C125 1.392 . S
C124 H152 0.930 . S
C125 C124 1.392 . S
C125 C126 1.398 . S
C125 H153 0.929 1_554 S
C126 C125 1.398 . S
C126 C127 1.352 . S
C127 C126 1.352 . S
C127 C128 1.384 . S
C127 H154 0.930 . S
C128 C123 1.407 . S
C128 C127 1.384 . S
C128 H155 0.929 . S
C129 O142 1.241 . S
C129 O143 1.273 . S
C130 O144 1.251 . S
C130 O145 1.268 . S
C131 Nd121 2.836 . S
C131 C132 1.498 . S
C131 O146 1.258 . S
C131 O147 1.239 . S
C132 C131 1.498 . S
C132 C133 1.366 . S
C132 C137 1.407 . S
C133 C132 1.366 . S
C133 C134 1.392 . S
C133 H156 0.930 . S
C134 C133 1.392 . S
C134 C135 1.398 . S
C134 H157 0.929 . S
C135 C134 1.398 . S
C135 C136 1.352 . S
C136 C135 1.352 . S
C136 C137 1.384 . S
C136 H158 0.930 . S
C137 C132 1.407 . S
C137 C136 1.384 . S
C137 H159 0.929 . S
C138 O148 1.241 . S
C138 O149 1.273 . S
C139 O150 1.251 . S
C139 O151 1.268 . S
O140 Nd120 2.500 . S
O140 C122 1.258 . S
O141 Nd120 2.492 . S
O141 C122 1.239 . S
O142 Nd120 2.487 . S
O142 C129 1.241 . S
O143 Nd120 2.682 . S
O143 Nd121 2.414 . S
O143 C129 1.273 . S
O144 Nd120 2.410 . S
O144 C130 1.251 . S
O145 Nd121 2.424 . S
O145 C130 1.268 . S
O146 Nd121 2.500 . S
O146 C131 1.258 . S
O147 Nd121 2.492 . S
O147 C131 1.239 . S
O148 Nd121 2.487 . S
O148 C138 1.241 . S
O149 Nd120 2.414 . S
O149 Nd121 2.682 . S
O149 C138 1.273 . S
O150 Nd121 2.410 . S
O150 C139 1.251 . S
O151 Nd120 2.424 . S
O151 C139 1.268 . S
H152 C124 0.930 . S
H153 C125 0.929 1_556 S
H154 C127 0.930 . S
H155 C128 0.929 . S
H156 C133 0.930 . S
H157 C134 0.929 . S
H158 C136 0.930 . S
H159 C137 0.929 . S
Nd160 C162 2.836 . S
Nd160 O180 2.500 . S
Nd160 O181 2.492 . S
Nd160 O182 2.487 . S
Nd160 O183 2.682 . S
Nd160 O184 2.410 . S
Nd160 O189 2.414 . S
Nd160 O191 2.424 . S
Nd161 C171 2.836 . S
Nd161 O183 2.414 . S
Nd161 O185 2.424 . S
Nd161 O186 2.500 . S
Nd161 O187 2.492 . S
Nd161 O188 2.487 . S
Nd161 O189 2.682 . S
Nd161 O190 2.410 . S
C162 Nd160 2.836 . S
C162 C163 1.498 . S
C162 O180 1.258 . S
C162 O181 1.239 . S
C163 C162 1.498 . S
C163 C164 1.366 . S
C163 C168 1.407 . S
C164 C163 1.366 . S
C164 C165 1.392 . S
C164 H192 0.930 . S
C165 C164 1.392 . S
C165 C166 1.398 . S
C165 H193 0.929 1_554 S
C166 C165 1.398 . S
C166 C167 1.352 . S
C167 C166 1.352 . S
C167 C168 1.384 . S
C167 H194 0.930 . S
C168 C163 1.407 . S
C168 C167 1.384 . S
C168 H195 0.929 . S
C169 O182 1.241 . S
C169 O183 1.273 . S
C170 O184 1.251 . S
C170 O185 1.268 . S
C171 Nd161 2.836 . S
C171 C172 1.498 . S
C171 O186 1.258 . S
C171 O187 1.239 . S
C172 C171 1.498 . S
C172 C173 1.366 . S
C172 C177 1.407 . S
C173 C172 1.366 . S
C173 C174 1.392 . S
C173 H196 0.930 . S
C174 C173 1.392 . S
C174 C175 1.398 . S
C174 H197 0.929 . S
C175 C174 1.398 . S
C175 C176 1.352 . S
C176 C175 1.352 . S
C176 C177 1.384 . S
C176 H198 0.930 . S
C177 C172 1.407 . S
C177 C176 1.384 . S
C177 H199 0.929 . S
C178 O188 1.241 . S
C178 O189 1.273 . S
C179 O190 1.251 . S
C179 O191 1.268 . S
O180 Nd160 2.500 . S
O180 C162 1.258 . S
O181 Nd160 2.492 . S
O181 C162 1.239 . S
O182 Nd160 2.487 . S
O182 C169 1.241 . S
O183 Nd160 2.682 . S
O183 Nd161 2.414 . S
O183 C169 1.273 . S
O184 Nd160 2.410 . S
O184 C170 1.251 . S
O185 Nd161 2.424 . S
O185 C170 1.268 . S
O186 Nd161 2.500 . S
O186 C171 1.258 . S
O187 Nd161 2.492 . S
O187 C171 1.239 . S
O188 Nd161 2.487 . S
O188 C178 1.241 . S
O189 Nd160 2.414 . S
O189 Nd161 2.682 . S
O189 C178 1.273 . S
O190 Nd161 2.410 . S
O190 C179 1.251 . S
O191 Nd160 2.424 . S
O191 C179 1.268 . S
H192 C164 0.930 . S
H193 C165 0.929 1_556 S
H194 C167 0.930 . S
H195 C168 0.929 . S
H196 C173 0.930 . S
H197 C174 0.929 . S
H198 C176 0.930 . S
H199 C177 0.929 . S
Nd200 C202 2.836 . S
Nd200 O220 2.500 . S
Nd200 O221 2.492 . S
Nd200 O222 2.487 . S
Nd200 O223 2.682 . S
Nd200 O224 2.410 . S
Nd200 O229 2.414 . S
Nd200 O231 2.424 . S
Nd201 C211 2.836 . S
Nd201 O223 2.414 . S
Nd201 O225 2.424 . S
Nd201 O226 2.500 . S
Nd201 O227 2.492 . S
Nd201 O228 2.487 . S
Nd201 O229 2.682 . S
Nd201 O230 2.410 . S
C202 Nd200 2.836 . S
C202 C203 1.498 . S
C202 O220 1.258 . S
C202 O221 1.239 . S
C203 C202 1.498 . S
C203 C204 1.366 . S
C203 C208 1.407 . S
C204 C203 1.366 . S
C204 C205 1.392 . S
C204 H232 0.930 . S
C205 C204 1.392 . S
C205 C206 1.398 . S
C205 H233 0.929 . S
C206 C205 1.398 . S
C206 C207 1.352 . S
C207 C206 1.352 . S
C207 C208 1.384 . S
C207 H234 0.930 . S
C208 C203 1.407 . S
C208 C207 1.384 . S
C208 H235 0.929 . S
C209 O222 1.241 . S
C209 O223 1.273 . S
C210 O224 1.251 . S
C210 O225 1.268 . S
C211 Nd201 2.836 . S
C211 C212 1.498 . S
C211 O226 1.258 . S
C211 O227 1.239 . S
C212 C211 1.498 . S
C212 C213 1.366 . S
C212 C217 1.407 . S
C213 C212 1.366 . S
C213 C214 1.392 . S
C213 H236 0.930 . S
C214 C213 1.392 . S
C214 C215 1.398 . S
C214 H237 0.929 1_556 S
C215 C214 1.398 . S
C215 C216 1.352 . S
C216 C215 1.352 . S
C216 C217 1.384 . S
C216 H238 0.930 . S
C217 C212 1.407 . S
C217 C216 1.384 . S
C217 H239 0.929 . S
C218 O228 1.241 . S
C218 O229 1.273 . S
C219 O230 1.251 . S
C219 O231 1.268 . S
O220 Nd200 2.500 . S
O220 C202 1.258 . S
O221 Nd200 2.492 . S
O221 C202 1.239 . S
O222 Nd200 2.487 . S
O222 C209 1.241 . S
O223 Nd200 2.682 . S
O223 Nd201 2.414 . S
O223 C209 1.273 . S
O224 Nd200 2.410 . S
O224 C210 1.251 . S
O225 Nd201 2.424 . S
O225 C210 1.268 . S
O226 Nd201 2.500 . S
O226 C211 1.258 . S
O227 Nd201 2.492 . S
O227 C211 1.239 . S
O228 Nd201 2.487 . S
O228 C218 1.241 . S
O229 Nd200 2.414 . S
O229 Nd201 2.682 . S
O229 C218 1.273 . S
O230 Nd201 2.410 . S
O230 C219 1.251 . S
O231 Nd200 2.424 . S
O231 C219 1.268 . S
H232 C204 0.930 . S
H233 C205 0.929 . S
H234 C207 0.930 . S
H235 C208 0.929 . S
H236 C213 0.930 . S
H237 C214 0.929 1_554 S
H238 C216 0.930 . S
H239 C217 0.929 . S
Nd240 C242 2.836 1_554 S
Nd240 O260 2.500 1_554 S
Nd240 O261 2.492 1_554 S
Nd240 O262 2.487 . S
Nd240 O263 2.682 . S
Nd240 O264 2.410 1_554 S
Nd240 O269 2.414 1_554 S
Nd240 O271 2.424 . S
Nd241 C251 2.836 1_556 S
Nd241 O263 2.414 1_556 S
Nd241 O265 2.424 . S
Nd241 O266 2.500 1_556 S
Nd241 O267 2.492 1_556 S
Nd241 O268 2.487 . S
Nd241 O269 2.682 . S
Nd241 O270 2.410 1_556 S
C242 Nd240 2.836 1_556 S
C242 C243 1.498 . S
C242 O260 1.258 . S
C242 O261 1.239 . S
C243 C242 1.498 . S
C243 C244 1.366 . S
C243 C248 1.407 . S
C244 C243 1.366 . S
C244 C245 1.392 . S
C244 H272 0.930 . S
C245 C244 1.392 . S
C245 C246 1.398 . S
C245 H273 0.929 . S
C246 C245 1.398 . S
C246 C247 1.352 . S
C247 C246 1.352 . S
C247 C248 1.384 . S
C247 H274 0.930 . S
C248 C243 1.407 . S
C248 C247 1.384 . S
C248 H275 0.929 . S
C249 O262 1.241 . S
C249 O263 1.273 . S
C250 O264 1.251 . S
C250 O265 1.268 . S
C251 Nd241 2.836 1_554 S
C251 C252 1.498 . S
C251 O266 1.258 . S
C251 O267 1.239 . S
C252 C251 1.498 . S
C252 C253 1.366 . S
C252 C257 1.407 . S
C253 C252 1.366 . S
C253 C254 1.392 . S
C253 H276 0.930 . S
C254 C253 1.392 . S
C254 C255 1.398 . S
C254 H277 0.929 . S
C255 C254 1.398 . S
C255 C256 1.352 . S
C256 C255 1.352 . S
C256 C257 1.384 . S
C256 H278 0.930 . S
C257 C252 1.407 . S
C257 C256 1.384 . S
C257 H279 0.929 . S
C258 O268 1.241 . S
C258 O269 1.273 . S
C259 O270 1.251 . S
C259 O271 1.268 . S
O260 Nd240 2.500 1_556 S
O260 C242 1.258 . S
O261 Nd240 2.492 1_556 S
O261 C242 1.239 . S
O262 Nd240 2.487 . S
O262 C249 1.241 . S
O263 Nd240 2.682 . S
O263 Nd241 2.414 1_554 S
O263 C249 1.273 . S
O264 Nd240 2.410 1_556 S
O264 C250 1.251 . S
O265 Nd241 2.424 . S
O265 C250 1.268 . S
O266 Nd241 2.500 1_554 S
O266 C251 1.258 . S
O267 Nd241 2.492 1_554 S
O267 C251 1.239 . S
O268 Nd241 2.487 . S
O268 C258 1.241 . S
O269 Nd240 2.414 1_556 S
O269 Nd241 2.682 . S
O269 C258 1.273 . S
O270 Nd241 2.410 1_554 S
O270 C259 1.251 . S
O271 Nd240 2.424 . S
O271 C259 1.268 . S
H272 C244 0.930 . S
H273 C245 0.929 . S
H274 C247 0.930 . S
H275 C248 0.929 . S
H276 C253 0.930 . S
H277 C254 0.929 . S
H278 C256 0.930 . S
H279 C257 0.929 . S
Nd280 C282 2.836 . S
Nd280 O300 2.500 . S
Nd280 O301 2.492 . S
Nd280 O302 2.487 . S
Nd280 O303 2.682 . S
Nd280 O304 2.410 . S
Nd280 O309 2.414 1_655 S
Nd280 O311 2.424 . S
Nd281 C291 2.836 . S
Nd281 O303 2.414 1_455 S
Nd281 O305 2.424 . S
Nd281 O306 2.500 . S
Nd281 O307 2.492 . S
Nd281 O308 2.487 . S
Nd281 O309 2.682 . S
Nd281 O310 2.410 . S
C282 Nd280 2.836 . S
C282 C283 1.498 . S
C282 O300 1.258 . S
C282 O301 1.239 . S
C283 C282 1.498 . S
C283 C284 1.366 . S
C283 C288 1.407 . S
C284 C283 1.366 . S
C284 C285 1.392 . S
C284 H312 0.930 . S
C285 C284 1.392 . S
C285 C286 1.398 . S
C285 H313 0.929 . S
C286 C285 1.398 . S
C286 C287 1.352 . S
C287 C286 1.352 . S
C287 C288 1.384 . S
C287 H314 0.930 . S
C288 C283 1.407 . S
C288 C287 1.384 . S
C288 H315 0.929 . S
C289 O302 1.241 . S
C289 O303 1.273 . S
C290 O304 1.251 . S
C290 O305 1.268 1_655 S
C291 Nd281 2.836 . S
C291 C292 1.498 . S
C291 O306 1.258 . S
C291 O307 1.239 . S
C292 C291 1.498 . S
C292 C293 1.366 . S
C292 C297 1.407 . S
C293 C292 1.366 . S
C293 C294 1.392 . S
C293 H316 0.930 . S
C294 C293 1.392 . S
C294 C295 1.398 . S
C294 H317 0.929 . S
C295 C294 1.398 . S
C295 C296 1.352 . S
C296 C295 1.352 . S
C296 C297 1.384 . S
C296 H318 0.930 . S
C297 C292 1.407 . S
C297 C296 1.384 . S
C297 H319 0.929 . S
C298 O308 1.241 . S
C298 O309 1.273 . S
C299 O310 1.251 . S
C299 O311 1.268 1_455 S
O300 Nd280 2.500 . S
O300 C282 1.258 . S
O301 Nd280 2.492 . S
O301 C282 1.239 . S
O302 Nd280 2.487 . S
O302 C289 1.241 . S
O303 Nd280 2.682 . S
O303 Nd281 2.414 1_655 S
O303 C289 1.273 . S
O304 Nd280 2.410 . S
O304 C290 1.251 . S
O305 Nd281 2.424 . S
O305 C290 1.268 1_455 S
O306 Nd281 2.500 . S
O306 C291 1.258 . S
O307 Nd281 2.492 . S
O307 C291 1.239 . S
O308 Nd281 2.487 . S
O308 C298 1.241 . S
O309 Nd280 2.414 1_455 S
O309 Nd281 2.682 . S
O309 C298 1.273 . S
O310 Nd281 2.410 . S
O310 C299 1.251 . S
O311 Nd280 2.424 . S
O311 C299 1.268 1_655 S
H312 C284 0.930 . S
H313 C285 0.929 . S
H314 C287 0.930 . S
H315 C288 0.929 . S
H316 C293 0.930 . S
H317 C294 0.929 . S
H318 C296 0.930 . S
H319 C297 0.929 . S
H320 C332 0.930 . S
H321 C334 0.930 . S
H322 C335 0.930 . S
H323 C339 0.959 . S
H324 C339 0.959 . S
H325 C339 0.961 . S
H326 C340 0.960 . S
H327 C340 0.961 . S
H328 C340 0.959 . S
H329 C343 0.929 . S
H330 C344 0.931 . S
H331 C346 0.930 . S
C332 H320 0.930 . S
C332 C333 1.399 . S
C332 C337 1.399 . S
C333 C332 1.399 . S
C333 C334 1.376 . S
C334 H321 0.930 . S
C334 C333 1.376 . S
C334 C335 1.388 . S
C335 H322 0.930 . S
C335 C334 1.388 . S
C335 C336 1.390 . S
C336 C335 1.390 . S
C336 C337 1.394 . S
C336 C342 1.465 . S
C337 C332 1.399 . S
C337 C336 1.394 . S
C337 C338 1.516 . S
C338 C337 1.516 . S
C338 C339 1.502 . S
C338 C340 1.561 . S
C338 C341 1.526 . S
C339 H323 0.959 . S
C339 H324 0.959 . S
C339 H325 0.961 . S
C339 C338 1.502 . S
C340 H326 0.960 . S
C340 H327 0.961 . S
C340 H328 0.959 . S
C340 C338 1.561 . S
C341 C338 1.526 . S
C341 C342 1.396 . S
C341 C346 1.390 . S
C342 C336 1.465 . S
C342 C341 1.396 . S
C342 C343 1.399 . S
C343 H329 0.929 . S
C343 C342 1.399 . S
C343 C344 1.385 . S
C344 H330 0.931 . S
C344 C343 1.385 . S
C344 C345 1.389 . S
C345 C344 1.389 . S
C345 C346 1.387 . S
C346 H331 0.930 . S
C346 C341 1.390 . S
C346 C345 1.387 . S
H347 C359 0.930 . S
H348 C361 0.930 . S
H349 C362 0.930 . S
H350 C366 0.959 . S
H351 C366 0.959 . S
H352 C366 0.961 . S
H353 C367 0.960 . S
H354 C367 0.961 . S
H355 C367 0.959 . S
H356 C370 0.929 . S
H357 C371 0.931 . S
H358 C373 0.930 . S
C359 H347 0.930 . S
C359 C360 1.399 . S
C359 C364 1.399 . S
C360 C359 1.399 . S
C360 C361 1.376 . S
C361 H348 0.930 . S
C361 C360 1.376 . S
C361 C362 1.388 . S
C362 H349 0.930 . S
C362 C361 1.388 . S
C362 C363 1.390 . S
C363 C362 1.390 . S
C363 C364 1.394 . S
C363 C369 1.465 . S
C364 C359 1.399 . S
C364 C363 1.394 . S
C364 C365 1.516 . S
C365 C364 1.516 . S
C365 C366 1.502 . S
C365 C367 1.561 . S
C365 C368 1.526 . S
C366 H350 0.959 . S
C366 H351 0.959 . S
C366 H352 0.961 . S
C366 C365 1.502 . S
C367 H353 0.960 . S
C367 H354 0.961 . S
C367 H355 0.959 . S
C367 C365 1.561 . S
C368 C365 1.526 . S
C368 C369 1.396 . S
C368 C373 1.390 . S
C369 C363 1.465 . S
C369 C368 1.396 . S
C369 C370 1.399 . S
C370 H356 0.929 . S
C370 C369 1.399 . S
C370 C371 1.385 . S
C371 H357 0.931 . S
C371 C370 1.385 . S
C371 C372 1.389 . S
C372 C371 1.389 . S
C372 C373 1.387 . S
C373 H358 0.930 . S
C373 C368 1.390 . S
C373 C372 1.387 . S
H374 C386 0.930 . S
H375 C388 0.930 . S
H376 C389 0.930 . S
H377 C393 0.959 . S
H378 C393 0.959 . S
H379 C393 0.961 . S
H380 C394 0.960 . S
H381 C394 0.961 . S
H382 C394 0.959 . S
H383 C397 0.929 . S
H384 C398 0.931 . S
H385 C400 0.930 . S
C386 H374 0.930 . S
C386 C387 1.399 . S
C386 C391 1.399 . S
C387 C386 1.399 . S
C387 C388 1.376 . S
C388 H375 0.930 . S
C388 C387 1.376 . S
C388 C389 1.388 . S
C389 H376 0.930 . S
C389 C388 1.388 . S
C389 C390 1.390 . S
C390 C389 1.390 . S
C390 C391 1.394 . S
C390 C396 1.465 . S
C391 C386 1.399 . S
C391 C390 1.394 . S
C391 C392 1.516 . S
C392 C391 1.516 . S
C392 C393 1.502 . S
C392 C394 1.561 . S
C392 C395 1.526 . S
C393 H377 0.959 . S
C393 H378 0.959 . S
C393 H379 0.961 . S
C393 C392 1.502 . S
C394 H380 0.960 . S
C394 H381 0.961 . S
C394 H382 0.959 . S
C394 C392 1.561 . S
C395 C392 1.526 . S
C395 C396 1.396 . S
C395 C400 1.390 . S
C396 C390 1.465 . S
C396 C395 1.396 . S
C396 C397 1.399 . S
C397 H383 0.929 . S
C397 C396 1.399 . S
C397 C398 1.385 . S
C398 H384 0.931 . S
C398 C397 1.385 . S
C398 C399 1.389 . S
C399 C398 1.389 . S
C399 C400 1.387 . S
C400 H385 0.930 . S
C400 C395 1.390 . S
C400 C399 1.387 . S
H401 C413 0.930 . S
H402 C415 0.930 . S
H403 C416 0.930 . S
H404 C420 0.959 . S
H405 C420 0.959 . S
H406 C420 0.961 . S
H407 C421 0.960 . S
H408 C421 0.961 . S
H409 C421 0.959 . S
H410 C424 0.929 . S
H411 C425 0.931 . S
H412 C427 0.930 . S
C413 H401 0.930 . S
C413 C414 1.399 1_556 S
C413 C418 1.399 . S
C414 C413 1.399 1_554 S
C414 C415 1.376 . S
C415 H402 0.930 . S
C415 C414 1.376 . S
C415 C416 1.388 . S
C416 H403 0.930 . S
C416 C415 1.388 . S
C416 C417 1.390 . S
C417 C416 1.390 . S
C417 C418 1.394 1_554 S
C417 C423 1.465 . S
C418 C413 1.399 . S
C418 C417 1.394 1_556 S
C418 C419 1.516 . S
C419 C418 1.516 . S
C419 C420 1.502 . S
C419 C421 1.561 . S
C419 C422 1.526 . S
C420 H404 0.959 . S
C420 H405 0.959 . S
C420 H406 0.961 . S
C420 C419 1.502 . S
C421 H407 0.960 . S
C421 H408 0.961 . S
C421 H409 0.959 . S
C421 C419 1.561 . S
C422 C419 1.526 . S
C422 C423 1.396 1_556 S
C422 C427 1.390 . S
C423 C417 1.465 . S
C423 C422 1.396 1_554 S
C423 C424 1.399 . S
C424 H410 0.929 . S
C424 C423 1.399 . S
C424 C425 1.385 . S
C425 H411 0.931 . S
C425 C424 1.385 . S
C425 C426 1.389 . S
C426 C425 1.389 . S
C426 C427 1.387 1_554 S
C427 H412 0.930 . S
C427 C422 1.390 . S
C427 C426 1.387 1_556 S
H428 C440 0.930 . S
H429 C442 0.930 . S
H430 C443 0.930 . S
H431 C447 0.959 . S
H432 C447 0.959 . S
H433 C447 0.961 . S
H434 C448 0.960 . S
H435 C448 0.961 . S
H436 C448 0.959 . S
H437 C451 0.929 . S
H438 C452 0.931 . S
H439 C454 0.930 . S
C440 H428 0.930 . S
C440 C441 1.399 . S
C440 C445 1.399 . S
C441 C440 1.399 . S
C441 C442 1.376 . S
C442 H429 0.930 . S
C442 C441 1.376 . S
C442 C443 1.388 . S
C443 H430 0.930 . S
C443 C442 1.388 . S
C443 C444 1.390 . S
C444 C443 1.390 . S
C444 C445 1.394 . S
C444 C450 1.465 . S
C445 C440 1.399 . S
C445 C444 1.394 . S
C445 C446 1.516 . S
C446 C445 1.516 . S
C446 C447 1.502 . S
C446 C448 1.561 . S
C446 C449 1.526 . S
C447 H431 0.959 . S
C447 H432 0.959 . S
C447 H433 0.961 . S
C447 C446 1.502 . S
C448 H434 0.960 . S
C448 H435 0.961 . S
C448 H436 0.959 . S
C448 C446 1.561 . S
C449 C446 1.526 . S
C449 C450 1.396 . S
C449 C454 1.390 . S
C450 C444 1.465 . S
C450 C449 1.396 . S
C450 C451 1.399 . S
C451 H437 0.929 . S
C451 C450 1.399 . S
C451 C452 1.385 . S
C452 H438 0.931 . S
C452 C451 1.385 . S
C452 C453 1.389 . S
C453 C452 1.389 . S
C453 C454 1.387 . S
C454 H439 0.930 . S
C454 C449 1.390 . S
C454 C453 1.387 . S
H455 C467 0.930 . S
H456 C469 0.930 . S
H457 C470 0.930 . S
H458 C474 0.959 . S
H459 C474 0.959 . S
H460 C474 0.961 . S
H461 C475 0.960 . S
H462 C475 0.961 . S
H463 C475 0.959 . S
H464 C478 0.929 . S
H465 C479 0.931 . S
H466 C481 0.930 . S
C467 H455 0.930 . S
C467 C468 1.399 . S
C467 C472 1.399 . S
C468 C467 1.399 . S
C468 C469 1.376 . S
C469 H456 0.930 . S
C469 C468 1.376 . S
C469 C470 1.388 . S
C470 H457 0.930 . S
C470 C469 1.388 . S
C470 C471 1.390 . S
C471 C470 1.390 . S
C471 C472 1.394 . S
C471 C477 1.465 . S
C472 C467 1.399 . S
C472 C471 1.394 . S
C472 C473 1.516 . S
C473 C472 1.516 . S
C473 C474 1.502 . S
C473 C475 1.561 . S
C473 C476 1.526 . S
C474 H458 0.959 . S
C474 H459 0.959 . S
C474 H460 0.961 . S
C474 C473 1.502 . S
C475 H461 0.960 . S
C475 H462 0.961 . S
C475 H463 0.959 . S
C475 C473 1.561 . S
C476 C473 1.526 . S
C476 C477 1.396 . S
C476 C481 1.390 . S
C477 C471 1.465 . S
C477 C476 1.396 . S
C477 C478 1.399 . S
C478 H464 0.929 . S
C478 C477 1.399 . S
C478 C479 1.385 . S
C479 H465 0.931 . S
C479 C478 1.385 . S
C479 C480 1.389 . S
C480 C479 1.389 . S
C480 C481 1.387 . S
C481 H466 0.930 . S
C481 C476 1.390 . S
C481 C480 1.387 . S
H482 C494 0.930 . S
H483 C496 0.930 . S
H484 C497 0.930 . S
H485 C501 0.959 . S
H486 C501 0.959 . S
H487 C501 0.961 . S
H488 C502 0.960 . S
H489 C502 0.961 . S
H490 C502 0.959 . S
H491 C505 0.929 . S
H492 C506 0.931 . S
H493 C508 0.930 . S
C494 H482 0.930 . S
C494 C495 1.399 . S
C494 C499 1.399 . S
C495 C494 1.399 . S
C495 C496 1.376 . S
C496 H483 0.930 . S
C496 C495 1.376 . S
C496 C497 1.388 . S
C497 H484 0.930 . S
C497 C496 1.388 . S
C497 C498 1.390 . S
C498 C497 1.390 . S
C498 C499 1.394 . S
C498 C504 1.465 . S
C499 C494 1.399 . S
C499 C498 1.394 . S
C499 C500 1.516 . S
C500 C499 1.516 . S
C500 C501 1.502 . S
C500 C502 1.561 . S
C500 C503 1.526 . S
C501 H485 0.959 . S
C501 H486 0.959 . S
C501 H487 0.961 . S
C501 C500 1.502 . S
C502 H488 0.960 . S
C502 H489 0.961 . S
C502 H490 0.959 . S
C502 C500 1.561 . S
C503 C500 1.526 . S
C503 C504 1.396 . S
C503 C508 1.390 . S
C504 C498 1.465 . S
C504 C503 1.396 . S
C504 C505 1.399 . S
C505 H491 0.929 . S
C505 C504 1.399 . S
C505 C506 1.385 . S
C506 H492 0.931 . S
C506 C505 1.385 . S
C506 C507 1.389 . S
C507 C506 1.389 . S
C507 C508 1.387 . S
C508 H493 0.930 . S
C508 C503 1.390 . S
C508 C507 1.387 . S
H509 C521 0.930 . S
H510 C523 0.930 . S
H511 C524 0.930 . S
H512 C528 0.959 . S
H513 C528 0.959 . S
H514 C528 0.961 . S
H515 C529 0.960 . S
H516 C529 0.961 . S
H517 C529 0.959 . S
H518 C532 0.929 . S
H519 C533 0.931 . S
H520 C535 0.930 . S
C521 H509 0.930 . S
C521 C522 1.399 1_554 S
C521 C526 1.399 . S
C522 C521 1.399 1_556 S
C522 C523 1.376 . S
C523 H510 0.930 . S
C523 C522 1.376 . S
C523 C524 1.388 . S
C524 H511 0.930 . S
C524 C523 1.388 . S
C524 C525 1.390 . S
C525 C524 1.390 . S
C525 C526 1.394 1_556 S
C525 C531 1.465 . S
C526 C521 1.399 . S
C526 C525 1.394 1_554 S
C526 C527 1.516 . S
C527 C526 1.516 . S
C527 C528 1.502 . S
C527 C529 1.561 . S
C527 C530 1.526 . S
C528 H512 0.959 . S
C528 H513 0.959 . S
C528 H514 0.961 . S
C528 C527 1.502 . S
C529 H515 0.960 . S
C529 H516 0.961 . S
C529 H517 0.959 . S
C529 C527 1.561 . S
C530 C527 1.526 . S
C530 C531 1.396 1_554 S
C530 C535 1.390 . S
C531 C525 1.465 . S
C531 C530 1.396 1_556 S
C531 C532 1.399 . S
C532 H518 0.929 . S
C532 C531 1.399 . S
C532 C533 1.385 . S
C533 H519 0.931 . S
C533 C532 1.385 . S
C533 C534 1.389 . S
C534 C533 1.389 . S
C534 C535 1.387 1_556 S
C535 H520 0.930 . S
C535 C530 1.390 . S
C535 C534 1.387 1_554 S
H536 C548 0.930 . S
H537 C550 0.930 . S
H538 C551 0.930 . S
H539 C555 0.959 . S
H540 C555 0.959 . S
H541 C555 0.961 . S
H542 C556 0.960 . S
H543 C556 0.961 . S
H544 C556 0.959 . S
H545 C559 0.929 . S
H546 C560 0.931 . S
H547 C562 0.930 . S
C548 H536 0.930 . S
C548 C549 1.399 . S
C548 C553 1.399 . S
C549 C548 1.399 . S
C549 C550 1.376 . S
C550 H537 0.930 . S
C550 C549 1.376 . S
C550 C551 1.388 . S
C551 H538 0.930 . S
C551 C550 1.388 . S
C551 C552 1.390 . S
C552 C551 1.390 . S
C552 C553 1.394 . S
C552 C558 1.465 . S
C553 C548 1.399 . S
C553 C552 1.394 . S
C553 C554 1.516 . S
C554 C553 1.516 . S
C554 C555 1.502 . S
C554 C556 1.561 . S
C554 C557 1.526 . S
C555 H539 0.959 . S
C555 H540 0.959 . S
C555 H541 0.961 . S
C555 C554 1.502 . S
C556 H542 0.960 . S
C556 H543 0.961 . S
C556 H544 0.959 . S
C556 C554 1.561 . S
C557 C554 1.526 . S
C557 C558 1.396 . S
C557 C562 1.390 . S
C558 C552 1.465 . S
C558 C557 1.396 . S
C558 C559 1.399 . S
C559 H545 0.929 . S
C559 C558 1.399 . S
C559 C560 1.385 . S
C560 H546 0.931 . S
C560 C559 1.385 . S
C560 C561 1.389 . S
C561 C560 1.389 . S
C561 C562 1.387 . S
C562 H547 0.930 . S
C562 C557 1.390 . S
C562 C561 1.387 . S
H563 C575 0.930 . S
H564 C577 0.930 . S
H565 C578 0.930 . S
H566 C582 0.959 . S
H567 C582 0.959 . S
H568 C582 0.961 . S
H569 C583 0.960 . S
H570 C583 0.961 . S
H571 C583 0.959 . S
H572 C586 0.929 . S
H573 C587 0.931 . S
H574 C589 0.930 . S
C575 H563 0.930 . S
C575 C576 1.399 . S
C575 C580 1.399 . S
C576 C575 1.399 . S
C576 C577 1.376 1_554 S
C577 H564 0.930 . S
C577 C576 1.376 1_556 S
C577 C578 1.388 . S
C578 H565 0.930 . S
C578 C577 1.388 . S
C578 C579 1.390 . S
C579 C578 1.390 . S
C579 C580 1.394 1_556 S
C579 C585 1.465 . S
C580 C575 1.399 . S
C580 C579 1.394 1_554 S
C580 C581 1.516 . S
C581 C580 1.516 . S
C581 C582 1.502 . S
C581 C583 1.561 . S
C581 C584 1.526 . S
C582 H566 0.959 . S
C582 H567 0.959 . S
C582 H568 0.961 . S
C582 C581 1.502 . S
C583 H569 0.960 . S
C583 H570 0.961 . S
C583 H571 0.959 . S
C583 C581 1.561 . S
C584 C581 1.526 . S
C584 C585 1.396 1_554 S
C584 C589 1.390 . S
C585 C579 1.465 . S
C585 C584 1.396 1_556 S
C585 C586 1.399 . S
C586 H572 0.929 . S
C586 C585 1.399 . S
C586 C587 1.385 . S
C587 H573 0.931 . S
C587 C586 1.385 . S
C587 C588 1.389 1_556 S
C588 C587 1.389 1_554 S
C588 C589 1.387 . S
C589 H574 0.930 . S
C589 C584 1.390 . S
C589 C588 1.387 . S
H590 C602 0.930 . S
H591 C604 0.930 . S
H592 C605 0.930 . S
H593 C609 0.959 . S
H594 C609 0.959 . S
H595 C609 0.961 . S
H596 C610 0.960 . S
H597 C610 0.961 . S
H598 C610 0.959 . S
H599 C613 0.929 . S
H600 C614 0.931 . S
H601 C616 0.930 . S
C602 H590 0.930 . S
C602 C603 1.399 . S
C602 C607 1.399 . S
C603 C602 1.399 . S
C603 C604 1.376 . S
C604 H591 0.930 . S
C604 C603 1.376 . S
C604 C605 1.388 . S
C605 H592 0.930 . S
C605 C604 1.388 . S
C605 C606 1.390 . S
C606 C605 1.390 . S
C606 C607 1.394 . S
C606 C612 1.465 . S
C607 C602 1.399 . S
C607 C606 1.394 . S
C607 C608 1.516 . S
C608 C607 1.516 . S
C608 C609 1.502 . S
C608 C610 1.561 . S
C608 C611 1.526 . S
C609 H593 0.959 . S
C609 H594 0.959 . S
C609 H595 0.961 . S
C609 C608 1.502 . S
C610 H596 0.960 . S
C610 H597 0.961 . S
C610 H598 0.959 . S
C610 C608 1.561 . S
C611 C608 1.526 . S
C611 C612 1.396 . S
C611 C616 1.390 . S
C612 C606 1.465 . S
C612 C611 1.396 . S
C612 C613 1.399 . S
C613 H599 0.929 . S
C613 C612 1.399 . S
C613 C614 1.385 . S
C614 H600 0.931 . S
C614 C613 1.385 . S
C614 C615 1.389 . S
C615 C614 1.389 . S
C615 C616 1.387 . S
C616 H601 0.930 . S
C616 C611 1.390 . S
C616 C615 1.387 . S
H617 C629 0.930 . S
H618 C631 0.930 . S
H619 C632 0.930 . S
H620 C636 0.959 . S
H621 C636 0.959 . S
H622 C636 0.961 . S
H623 C637 0.960 . S
H624 C637 0.961 . S
H625 C637 0.959 . S
H626 C640 0.929 . S
H627 C641 0.931 . S
H628 C643 0.930 . S
C629 H617 0.930 . S
C629 C630 1.399 . S
C629 C634 1.399 . S
C630 C629 1.399 . S
C630 C631 1.376 . S
C631 H618 0.930 . S
C631 C630 1.376 . S
C631 C632 1.388 . S
C632 H619 0.930 . S
C632 C631 1.388 . S
C632 C633 1.390 . S
C633 C632 1.390 . S
C633 C634 1.394 . S
C633 C639 1.465 . S
C634 C629 1.399 . S
C634 C633 1.394 . S
C634 C635 1.516 . S
C635 C634 1.516 . S
C635 C636 1.502 . S
C635 C637 1.561 . S
C635 C638 1.526 . S
C636 H620 0.959 . S
C636 H621 0.959 . S
C636 H622 0.961 . S
C636 C635 1.502 . S
C637 H623 0.960 . S
C637 H624 0.961 . S
C637 H625 0.959 . S
C637 C635 1.561 . S
C638 C635 1.526 . S
C638 C639 1.396 . S
C638 C643 1.390 . S
C639 C633 1.465 . S
C639 C638 1.396 . S
C639 C640 1.399 . S
C640 H626 0.929 . S
C640 C639 1.399 . S
C640 C641 1.385 . S
C641 H627 0.931 . S
C641 C640 1.385 . S
C641 C642 1.389 . S
C642 C641 1.389 . S
C642 C643 1.387 . S
C643 H628 0.930 . S
C643 C638 1.390 . S
C643 C642 1.387 . S
H644 C656 0.930 . S
H645 C658 0.930 . S
H646 C659 0.930 . S
H647 C663 0.959 . S
H648 C663 0.959 . S
H649 C663 0.961 . S
H650 C664 0.960 . S
H651 C664 0.961 . S
H652 C664 0.959 . S
H653 C667 0.929 . S
H654 C668 0.931 . S
H655 C670 0.930 . S
C656 H644 0.930 . S
C656 C657 1.399 . S
C656 C661 1.399 . S
C657 C656 1.399 . S
C657 C658 1.376 . S
C658 H645 0.930 . S
C658 C657 1.376 . S
C658 C659 1.388 . S
C659 H646 0.930 . S
C659 C658 1.388 . S
C659 C660 1.390 . S
C660 C659 1.390 . S
C660 C661 1.394 . S
C660 C666 1.465 . S
C661 C656 1.399 . S
C661 C660 1.394 . S
C661 C662 1.516 . S
C662 C661 1.516 . S
C662 C663 1.502 . S
C662 C664 1.561 . S
C662 C665 1.526 . S
C663 H647 0.959 . S
C663 H648 0.959 . S
C663 H649 0.961 . S
C663 C662 1.502 . S
C664 H650 0.960 . S
C664 H651 0.961 . S
C664 H652 0.959 . S
C664 C662 1.561 . S
C665 C662 1.526 . S
C665 C666 1.396 . S
C665 C670 1.390 . S
C666 C660 1.465 . S
C666 C665 1.396 . S
C666 C667 1.399 . S
C667 H653 0.929 . S
C667 C666 1.399 . S
C667 C668 1.385 . S
C668 H654 0.931 . S
C668 C667 1.385 . S
C668 C669 1.389 . S
C669 C668 1.389 . S
C669 C670 1.387 . S
C670 H655 0.930 . S
C670 C665 1.390 . S
C670 C669 1.387 . S
H671 C683 0.930 . S
H672 C685 0.930 . S
H673 C686 0.930 . S
H674 C690 0.959 . S
H675 C690 0.959 . S
H676 C690 0.961 . S
H677 C691 0.960 . S
H678 C691 0.961 . S
H679 C691 0.959 . S
H680 C694 0.929 . S
H681 C695 0.931 . S
H682 C697 0.930 . S
C683 H671 0.930 . S
C683 C684 1.399 1_554 S
C683 C688 1.399 . S
C684 C683 1.399 1_556 S
C684 C685 1.376 . S
C685 H672 0.930 . S
C685 C684 1.376 . S
C685 C686 1.388 . S
C686 H673 0.930 . S
C686 C685 1.388 . S
C686 C687 1.390 . S
C687 C686 1.390 . S
C687 C688 1.394 1_556 S
C687 C693 1.465 . S
C688 C683 1.399 . S
C688 C687 1.394 1_554 S
C688 C689 1.516 . S
C689 C688 1.516 . S
C689 C690 1.502 . S
C689 C691 1.561 . S
C689 C692 1.526 . S
C690 H674 0.959 . S
C690 H675 0.959 . S
C690 H676 0.961 . S
C690 C689 1.502 . S
C691 H677 0.960 . S
C691 H678 0.961 . S
C691 H679 0.959 . S
C691 C689 1.561 . S
C692 C689 1.526 . S
C692 C693 1.396 1_554 S
C692 C697 1.390 . S
C693 C687 1.465 . S
C693 C692 1.396 1_556 S
C693 C694 1.399 . S
C694 H680 0.929 . S
C694 C693 1.399 . S
C694 C695 1.385 . S
C695 H681 0.931 . S
C695 C694 1.385 . S
C695 C696 1.389 . S
C696 C695 1.389 . S
C696 C697 1.387 1_556 S
C697 H682 0.930 . S
C697 C692 1.390 . S
C697 C696 1.387 1_554 S
H698 C710 0.930 . S
H699 C712 0.930 . S
H700 C713 0.930 . S
H701 C717 0.959 . S
H702 C717 0.959 . S
H703 C717 0.961 . S
H704 C718 0.960 . S
H705 C718 0.961 . S
H706 C718 0.959 . S
H707 C721 0.929 . S
H708 C722 0.931 . S
H709 C724 0.930 . S
C710 H698 0.930 . S
C710 C711 1.399 . S
C710 C715 1.399 . S
C711 C710 1.399 . S
C711 C712 1.376 . S
C712 H699 0.930 . S
C712 C711 1.376 . S
C712 C713 1.388 . S
C713 H700 0.930 . S
C713 C712 1.388 . S
C713 C714 1.390 . S
C714 C713 1.390 . S
C714 C715 1.394 . S
C714 C720 1.465 . S
C715 C710 1.399 . S
C715 C714 1.394 . S
C715 C716 1.516 . S
C716 C715 1.516 . S
C716 C717 1.502 . S
C716 C718 1.561 . S
C716 C719 1.526 . S
C717 H701 0.959 . S
C717 H702 0.959 . S
C717 H703 0.961 . S
C717 C716 1.502 . S
C718 H704 0.960 . S
C718 H705 0.961 . S
C718 H706 0.959 . S
C718 C716 1.561 . S
C719 C716 1.526 . S
C719 C720 1.396 . S
C719 C724 1.390 . S
C720 C714 1.465 . S
C720 C719 1.396 . S
C720 C721 1.399 . S
C721 H707 0.929 . S
C721 C720 1.399 . S
C721 C722 1.385 . S
C722 H708 0.931 . S
C722 C721 1.385 . S
C722 C723 1.389 . S
C723 C722 1.389 . S
C723 C724 1.387 . S
C724 H709 0.930 . S
C724 C719 1.390 . S
C724 C723 1.387 . S
H725 C737 0.930 . S
H726 C739 0.930 . S
H727 C740 0.930 . S
H728 C744 0.959 . S
H729 C744 0.959 . S
H730 C744 0.961 . S
H731 C745 0.960 . S
H732 C745 0.961 . S
H733 C745 0.959 . S
H734 C748 0.929 . S
H735 C749 0.931 . S
H736 C751 0.930 . S
C737 H725 0.930 . S
C737 C738 1.399 . S
C737 C742 1.399 . S
C738 C737 1.399 . S
C738 C739 1.376 . S
C739 H726 0.930 . S
C739 C738 1.376 . S
C739 C740 1.388 . S
C740 H727 0.930 . S
C740 C739 1.388 . S
C740 C741 1.390 . S
C741 C740 1.390 . S
C741 C742 1.394 . S
C741 C747 1.465 . S
C742 C737 1.399 . S
C742 C741 1.394 . S
C742 C743 1.516 . S
C743 C742 1.516 . S
C743 C744 1.502 . S
C743 C745 1.561 . S
C743 C746 1.526 . S
C744 H728 0.959 . S
C744 H729 0.959 . S
C744 H730 0.961 . S
C744 C743 1.502 . S
C745 H731 0.960 . S
C745 H732 0.961 . S
C745 H733 0.959 . S
C745 C743 1.561 . S
C746 C743 1.526 . S
C746 C747 1.396 . S
C746 C751 1.390 . S
C747 C741 1.465 . S
C747 C746 1.396 . S
C747 C748 1.399 . S
C748 H734 0.929 . S
C748 C747 1.399 . S
C748 C749 1.385 . S
C749 H735 0.931 . S
C749 C748 1.385 . S
C749 C750 1.389 . S
C750 C749 1.389 . S
C750 C751 1.387 . S
C751 H736 0.930 . S
C751 C746 1.390 . S
C751 C750 1.387 . S
H752 C764 0.945 . S
H753 C766 0.930 . S
H754 C767 0.930 . S
H755 C771 0.959 . S
H756 C771 0.959 1_554 S
H757 C771 0.961 . S
H758 C772 0.960 . S
H759 C772 0.963 1_554 S
H760 C772 0.959 1_554 S
H761 C775 0.929 . S
H762 C776 0.931 . S
H763 C778 0.930 . S
C764 H752 0.945 . S
C764 C765 1.384 1_445 S
C764 C769 1.399 . S
C765 C764 1.384 1_665 S
C765 C766 1.376 . S
C766 H753 0.930 . S
C766 C765 1.376 . S
C766 C767 1.388 . S
C767 H754 0.930 . S
C767 C766 1.388 . S
C767 C768 1.390 . S
C768 C767 1.390 . S
C768 C769 1.381 1_665 S
C768 C774 1.465 1_556 S
C769 C764 1.399 . S
C769 C768 1.381 1_445 S
C769 C770 1.527 . S
C770 C769 1.527 . S
C770 C771 1.502 . S
C770 C772 1.561 1_455 S
C770 C773 1.526 1_556 S
C771 H755 0.959 . S
C771 H756 0.959 1_556 S
C771 H757 0.961 . S
C771 C770 1.502 . S
C772 H758 0.960 . S
C772 H759 0.963 1_556 S
C772 H760 0.959 1_556 S
C772 C770 1.561 1_655 S
C773 C770 1.526 1_554 S
C773 C774 1.396 1_445 S
C773 C778 1.390 . S
C774 C768 1.465 1_554 S
C774 C773 1.396 1_665 S
C774 C775 1.399 . S
C775 H761 0.929 . S
C775 C774 1.399 . S
C775 C776 1.385 . S
C776 H762 0.931 . S
C776 C775 1.385 . S
C776 C777 1.389 1_665 S
C777 C776 1.389 1_445 S
C777 C778 1.387 . S
C778 H763 0.930 . S
C778 C773 1.390 . S
C778 C777 1.387 . S
H779 C791 0.930 . S
H780 C793 0.930 . S
H781 C794 0.930 . S
H782 C798 0.959 . S
H783 C798 0.959 . S
H784 C798 0.961 . S
H785 C799 0.960 . S
H786 C799 0.961 . S
H787 C799 0.959 . S
H788 C802 0.929 . S
H789 C803 0.931 . S
H790 C805 0.930 . S
C791 H779 0.930 . S
C791 C792 1.399 . S
C791 C796 1.399 . S
C792 C791 1.399 . S
C792 C793 1.376 . S
C793 H780 0.930 . S
C793 C792 1.376 . S
C793 C794 1.388 . S
C794 H781 0.930 . S
C794 C793 1.388 . S
C794 C795 1.390 . S
C795 C794 1.390 . S
C795 C796 1.394 . S
C795 C801 1.465 . S
C796 C791 1.399 . S
C796 C795 1.394 . S
C796 C797 1.516 . S
C797 C796 1.516 . S
C797 C798 1.502 . S
C797 C799 1.561 . S
C797 C800 1.526 . S
C798 H782 0.959 . S
C798 H783 0.959 . S
C798 H784 0.961 . S
C798 C797 1.502 . S
C799 H785 0.960 . S
C799 H786 0.961 . S
C799 H787 0.959 . S
C799 C797 1.561 . S
C800 C797 1.526 . S
C800 C801 1.396 . S
C800 C805 1.390 . S
C801 C795 1.465 . S
C801 C800 1.396 . S
C801 C802 1.399 . S
C802 H788 0.929 . S
C802 C801 1.399 . S
C802 C803 1.385 . S
C803 H789 0.931 . S
C803 C802 1.385 . S
C803 C804 1.389 . S
C804 C803 1.389 . S
C804 C805 1.387 . S
C805 H790 0.930 . S
C805 C800 1.390 . S
C805 C804 1.387 . S
H806 C818 0.930 . S
H807 C820 0.930 . S
H808 C821 0.930 . S
H809 C825 0.959 . S
H810 C825 0.959 . S
H811 C825 0.961 . S
H812 C826 0.960 . S
H813 C826 0.961 . S
H814 C826 0.959 . S
H815 C829 0.929 . S
H816 C830 0.931 . S
H817 C832 0.930 . S
C818 H806 0.930 . S
C818 C819 1.399 . S
C818 C823 1.399 . S
C819 C818 1.399 . S
C819 C820 1.376 1_565 S
C820 H807 0.930 . S
C820 C819 1.376 1_545 S
C820 C821 1.388 . S
C821 H808 0.930 . S
C821 C820 1.388 . S
C821 C822 1.390 . S
C822 C821 1.390 . S
C822 C823 1.394 1_545 S
C822 C828 1.465 . S
C823 C818 1.399 . S
C823 C822 1.394 1_565 S
C823 C824 1.516 . S
C824 C823 1.516 . S
C824 C825 1.502 . S
C824 C826 1.561 . S
C824 C827 1.526 . S
C825 H809 0.959 . S
C825 H810 0.959 . S
C825 H811 0.961 . S
C825 C824 1.502 . S
C826 H812 0.960 . S
C826 H813 0.961 . S
C826 H814 0.959 . S
C826 C824 1.561 . S
C827 C824 1.526 . S
C827 C828 1.396 1_565 S
C827 C832 1.390 . S
C828 C822 1.465 . S
C828 C827 1.396 1_545 S
C828 C829 1.399 . S
C829 H815 0.929 . S
C829 C828 1.399 . S
C829 C830 1.385 . S
C830 H816 0.931 . S
C830 C829 1.385 . S
C830 C831 1.389 . S
C831 C830 1.389 . S
C831 C832 1.387 1_545 S
C832 H817 0.930 . S
C832 C827 1.390 . S
C832 C831 1.387 1_565 S
H833 C845 0.930 . S
H834 C847 0.930 . S
H835 C848 0.930 . S
H836 C852 0.959 . S
H837 C852 0.959 . S
H838 C852 0.961 . S
H839 C853 0.960 . S
H840 C853 0.961 . S
H841 C853 0.959 . S
H842 C856 0.929 . S
H843 C857 0.931 . S
H844 C859 0.930 . S
C845 H833 0.930 . S
C845 C846 1.399 . S
C845 C850 1.399 . S
C846 C845 1.399 . S
C846 C847 1.376 . S
C847 H834 0.930 . S
C847 C846 1.376 . S
C847 C848 1.388 . S
C848 H835 0.930 . S
C848 C847 1.388 . S
C848 C849 1.390 . S
C849 C848 1.390 . S
C849 C850 1.394 . S
C849 C855 1.465 . S
C850 C845 1.399 . S
C850 C849 1.394 . S
C850 C851 1.516 . S
C851 C850 1.516 . S
C851 C852 1.502 . S
C851 C853 1.561 . S
C851 C854 1.526 . S
C852 H836 0.959 . S
C852 H837 0.959 . S
C852 H838 0.961 . S
C852 C851 1.502 . S
C853 H839 0.960 . S
C853 H840 0.961 . S
C853 H841 0.959 . S
C853 C851 1.561 . S
C854 C851 1.526 . S
C854 C855 1.396 . S
C854 C859 1.390 . S
C855 C849 1.465 . S
C855 C854 1.396 . S
C855 C856 1.399 . S
C856 H842 0.929 . S
C856 C855 1.399 . S
C856 C857 1.385 . S
C857 H843 0.931 . S
C857 C856 1.385 . S
C857 C858 1.389 . S
C858 C857 1.389 . S
C858 C859 1.387 . S
C859 H844 0.930 . S
C859 C854 1.390 . S
C859 C858 1.387 . S
H860 C872 0.930 . S
H861 C874 0.930 . S
H862 C875 0.930 . S
H863 C879 0.959 . S
H864 C879 0.959 . S
H865 C879 0.961 . S
H866 C880 0.960 . S
H867 C880 0.961 . S
H868 C880 0.959 . S
H869 C883 0.929 . S
H870 C884 0.931 . S
H871 C886 0.930 . S
C872 H860 0.930 . S
C872 C873 1.399 . S
C872 C877 1.399 . S
C873 C872 1.399 . S
C873 C874 1.376 . S
C874 H861 0.930 . S
C874 C873 1.376 . S
C874 C875 1.388 . S
C875 H862 0.930 . S
C875 C874 1.388 . S
C875 C876 1.390 . S
C876 C875 1.390 . S
C876 C877 1.394 . S
C876 C882 1.465 . S
C877 C872 1.399 . S
C877 C876 1.394 . S
C877 C878 1.516 . S
C878 C877 1.516 . S
C878 C879 1.502 . S
C878 C880 1.561 . S
C878 C881 1.526 . S
C879 H863 0.959 . S
C879 H864 0.959 . S
C879 H865 0.961 . S
C879 C878 1.502 . S
C880 H866 0.960 . S
C880 H867 0.961 . S
C880 H868 0.959 . S
C880 C878 1.561 . S
C881 C878 1.526 . S
C881 C882 1.396 . S
C881 C886 1.390 . S
C882 C876 1.465 . S
C882 C881 1.396 . S
C882 C883 1.399 . S
C883 H869 0.929 . S
C883 C882 1.399 . S
C883 C884 1.385 . S
C884 H870 0.931 . S
C884 C883 1.385 . S
C884 C885 1.389 . S
C885 C884 1.389 . S
C885 C886 1.387 . S
C886 H871 0.930 . S
C886 C881 1.390 . S
C886 C885 1.387 . S
H887 C899 0.930 . S
H888 C901 0.930 . S
H889 C902 0.930 . S
H890 C906 0.959 . S
H891 C906 0.959 . S
H892 C906 0.961 . S
H893 C907 0.960 . S
H894 C907 0.961 . S
H895 C907 0.959 . S
H896 C910 0.929 . S
H897 C911 0.931 . S
H898 C913 0.930 . S
C899 H887 0.930 . S
C899 C900 1.399 . S
C899 C904 1.399 . S
C900 C899 1.399 . S
C900 C901 1.376 . S
C901 H888 0.930 . S
C901 C900 1.376 . S
C901 C902 1.388 . S
C902 H889 0.930 . S
C902 C901 1.388 . S
C902 C903 1.390 . S
C903 C902 1.390 . S
C903 C904 1.394 . S
C903 C909 1.465 . S
C904 C899 1.399 . S
C904 C903 1.394 . S
C904 C905 1.516 . S
C905 C904 1.516 . S
C905 C906 1.502 . S
C905 C907 1.561 . S
C905 C908 1.526 . S
C906 H890 0.959 . S
C906 H891 0.959 . S
C906 H892 0.961 . S
C906 C905 1.502 . S
C907 H893 0.960 . S
C907 H894 0.961 . S
C907 H895 0.959 . S
C907 C905 1.561 . S
C908 C905 1.526 . S
C908 C909 1.396 . S
C908 C913 1.390 . S
C909 C903 1.465 . S
C909 C908 1.396 . S
C909 C910 1.399 . S
C910 H896 0.929 . S
C910 C909 1.399 . S
C910 C911 1.385 . S
C911 H897 0.931 . S
C911 C910 1.385 . S
C911 C912 1.389 . S
C912 C911 1.389 . S
C912 C913 1.387 . S
C913 H898 0.930 . S
C913 C908 1.390 . S
C913 C912 1.387 . S
H914 C926 0.930 . S
H915 C928 0.930 . S
H916 C929 0.930 . S
H917 C933 0.959 . S
H918 C933 0.959 . S
H919 C933 0.961 . S
H920 C934 0.960 . S
H921 C934 0.961 . S
H922 C934 0.959 . S
H923 C937 0.929 . S
H924 C938 0.931 . S
H925 C940 0.930 . S
C926 H914 0.930 . S
C926 C927 1.399 . S
C926 C931 1.399 . S
C927 C926 1.399 . S
C927 C928 1.376 . S
C928 H915 0.930 . S
C928 C927 1.376 . S
C928 C929 1.388 . S
C929 H916 0.930 . S
C929 C928 1.388 . S
C929 C930 1.390 . S
C930 C929 1.390 . S
C930 C931 1.394 . S
C930 C936 1.465 . S
C931 C926 1.399 . S
C931 C930 1.394 . S
C931 C932 1.516 . S
C932 C931 1.516 . S
C932 C933 1.502 . S
C932 C934 1.561 . S
C932 C935 1.526 . S
C933 H917 0.959 . S
C933 H918 0.959 . S
C933 H919 0.961 . S
C933 C932 1.502 . S
C934 H920 0.960 . S
C934 H921 0.961 . S
C934 H922 0.959 . S
C934 C932 1.561 . S
C935 C932 1.526 . S
C935 C936 1.396 . S
C935 C940 1.390 . S
C936 C930 1.465 . S
C936 C935 1.396 . S
C936 C937 1.399 . S
C937 H923 0.929 . S
C937 C936 1.399 . S
C937 C938 1.385 . S
C938 H924 0.931 . S
C938 C937 1.385 . S
C938 C939 1.389 . S
C939 C938 1.389 . S
C939 C940 1.387 . S
C940 H925 0.930 . S
C940 C935 1.390 . S
C940 C939 1.387 . S
H941 C953 0.930 . S
H942 C955 0.930 . S
H943 C956 0.930 . S
H944 C960 0.959 . S
H945 C960 0.959 . S
H946 C960 0.961 1_556 S
H947 C961 0.960 1_556 S
H948 C961 0.961 . S
H949 C961 0.959 . S
H950 C964 0.929 . S
H951 C965 0.931 . S
H952 C967 0.924 1_455 S
C953 H941 0.930 . S
C953 C954 1.399 . S
C953 C958 1.399 . S
C954 C953 1.399 . S
C954 C955 1.376 1_455 S
C955 H942 0.930 . S
C955 C954 1.376 1_655 S
C955 C956 1.388 . S
C956 H943 0.930 . S
C956 C955 1.388 . S
C956 C957 1.390 . S
C957 C956 1.390 . S
C957 C958 1.394 1_655 S
C957 C963 1.465 1_556 S
C958 C953 1.399 . S
C958 C957 1.394 1_455 S
C958 C959 1.516 1_556 S
C959 C958 1.516 1_554 S
C959 C960 1.502 . S
C959 C961 1.561 1_455 S
C959 C962 1.524 . S
C960 H944 0.959 . S
C960 H945 0.959 . S
C960 H946 0.961 1_554 S
C960 C959 1.502 . S
C961 H947 0.960 1_554 S
C961 H948 0.961 . S
C961 H949 0.959 . S
C961 C959 1.561 1_655 S
C962 C959 1.524 . S
C962 C963 1.398 1_455 S
C962 C967 1.389 1_455 S
C963 C957 1.465 1_554 S
C963 C962 1.398 1_655 S
C963 C964 1.399 . S
C964 H950 0.929 . S
C964 C963 1.399 . S
C964 C965 1.385 . S
C965 H951 0.931 . S
C965 C964 1.385 . S
C965 C966 1.389 . S
C966 C965 1.389 . S
C966 C967 1.393 . S
C967 H952 0.924 1_655 S
C967 C962 1.389 1_655 S
C967 C966 1.393 . S
C333 C6 1.678 . S
C345 C129 1.638 . S
C360 C9 1.650 . S
C372 C46 1.628 . S
C387 C49 1.650 . S
C399 C86 1.630 . S
C414 C89 1.656 . S
C426 C126 1.624 . S
C441 C15 1.639 . S
C453 C218 1.654 . S
C468 C18 1.636 . S
C480 C175 1.687 . S
C495 C178 1.695 . S
C507 C95 1.632 . S
C522 C215 1.634 . S
C534 C98 1.659 . S
C549 C246 1.685 . S
C561 C209 1.647 . S
C576 C166 1.679 . S
C588 C249 1.642 . S
C603 C286 1.680 . S
C615 C169 1.645 . S
C630 C206 1.638 . S
C642 C289 1.688 . S
C657 C138 1.695 . S
C669 C255 1.634 . S
C684 C258 1.696 . S
C696 C55 1.636 . S
C711 C58 1.637 . S
C723 C295 1.687 . S
C738 C135 1.644 . S
C750 C298 1.644 . S
C765 C19 2.148 . S
C777 C10 2.102 . S
C792 C50 2.102 . S
C804 C59 2.145 1_554 S
C819 C90 2.117 . S
C831 C99 2.140 . S
C846 C130 2.101 1_556 S
C858 C139 2.148 . S
C873 C170 2.107 1_556 S
C885 C179 2.138 . S
C900 C210 2.149 . S
C912 C219 2.106 1_554 S
C927 C250 2.133 . S
C939 C259 2.111 . S
C954 C299 2.102 . S
C966 C290 2.149 . S
