# Generated by pormake.
# Topology vbb, (4)-cn, num edge types: 1
# Building blocks:
#     Node 0, Type 0, BuildingBlock: KOZSID_clean_sbu_0, # of connection points: 4
#     Node 1, Type 0, BuildingBlock: KOZSID_clean_sbu_0, # of connection points: 4
#     Node 2, Type 0, BuildingBlock: KOZSID_clean_sbu_0, # of connection points: 4
#     Node 3, Type 0, BuildingBlock: KOZSID_clean_sbu_0, # of connection points: 4
#     Node 4, Type 0, BuildingBlock: KOZSID_clean_sbu_0, # of connection points: 4
#     Node 5, Type 0, BuildingBlock: KOZSID_clean_sbu_0, # of connection points: 4
#     Node 6, Type 0, BuildingBlock: KOZSID_clean_sbu_0, # of connection points: 4
#     Node 7, Type 0, BuildingBlock: KOZSID_clean_sbu_0, # of connection points: 4
#     Node 8, Type 0, BuildingBlock: KOZSID_clean_sbu_0, # of connection points: 4
#     Node 9, Type 0, BuildingBlock: KOZSID_clean_sbu_0, # of connection points: 4
#     Node 10, Type 0, BuildingBlock: KOZSID_clean_sbu_0, # of connection points: 4
#     Node 11, Type 0, BuildingBlock: KOZSID_clean_sbu_0, # of connection points: 4
#     Node 12, Type 0, BuildingBlock: KOZSID_clean_sbu_0, # of connection points: 4
#     Node 13, Type 0, BuildingBlock: KOZSID_clean_sbu_0, # of connection points: 4
#     Node 14, Type 0, BuildingBlock: KOZSID_clean_sbu_0, # of connection points: 4
#     Node 15, Type 0, BuildingBlock: KOZSID_clean_sbu_0, # of connection points: 4
#     Node 16, Type 0, BuildingBlock: KOZSID_clean_sbu_0, # of connection points: 4
#     Node 17, Type 0, BuildingBlock: KOZSID_clean_sbu_0, # of connection points: 4
#     Node 18, Type 0, BuildingBlock: KOZSID_clean_sbu_0, # of connection points: 4
#     Node 19, Type 0, BuildingBlock: KOZSID_clean_sbu_0, # of connection points: 4
#     Node 20, Type 0, BuildingBlock: KOZSID_clean_sbu_0, # of connection points: 4
#     Node 21, Type 0, BuildingBlock: KOZSID_clean_sbu_0, # of connection points: 4
#     Node 22, Type 0, BuildingBlock: KOZSID_clean_sbu_0, # of connection points: 4
#     Node 23, Type 0, BuildingBlock: KOZSID_clean_sbu_0, # of connection points: 4
#     Node 24, Type 0, BuildingBlock: KOZSID_clean_sbu_0, # of connection points: 4
#     Node 25, Type 0, BuildingBlock: KOZSID_clean_sbu_0, # of connection points: 4
#     Node 26, Type 0, BuildingBlock: KOZSID_clean_sbu_0, # of connection points: 4
#     Node 27, Type 0, BuildingBlock: KOZSID_clean_sbu_0, # of connection points: 4
#     Node 28, Type 0, BuildingBlock: KOZSID_clean_sbu_0, # of connection points: 4
#     Node 29, Type 0, BuildingBlock: KOZSID_clean_sbu_0, # of connection points: 4
#     Node 30, Type 0, BuildingBlock: KOZSID_clean_sbu_0, # of connection points: 4
#     Node 31, Type 0, BuildingBlock: KOZSID_clean_sbu_0, # of connection points: 4
#     Edge 32, Type (0, 0), BuildingBlock: CIFDUS_clean_linker_0, # of connection points: 2
#     Edge 33, Type (0, 0), BuildingBlock: CIFDUS_clean_linker_0, # of connection points: 2
#     Edge 34, Type (0, 0), BuildingBlock: CIFDUS_clean_linker_0, # of connection points: 2
#     Edge 35, Type (0, 0), BuildingBlock: CIFDUS_clean_linker_0, # of connection points: 2
#     Edge 36, Type (0, 0), BuildingBlock: CIFDUS_clean_linker_0, # of connection points: 2
#     Edge 37, Type (0, 0), BuildingBlock: CIFDUS_clean_linker_0, # of connection points: 2
#     Edge 38, Type (0, 0), BuildingBlock: CIFDUS_clean_linker_0, # of connection points: 2
#     Edge 39, Type (0, 0), BuildingBlock: CIFDUS_clean_linker_0, # of connection points: 2
#     Edge 40, Type (0, 0), BuildingBlock: CIFDUS_clean_linker_0, # of connection points: 2
#     Edge 41, Type (0, 0), BuildingBlock: CIFDUS_clean_linker_0, # of connection points: 2
#     Edge 42, Type (0, 0), BuildingBlock: CIFDUS_clean_linker_0, # of connection points: 2
#     Edge 43, Type (0, 0), BuildingBlock: CIFDUS_clean_linker_0, # of connection points: 2
#     Edge 44, Type (0, 0), BuildingBlock: CIFDUS_clean_linker_0, # of connection points: 2
#     Edge 45, Type (0, 0), BuildingBlock: CIFDUS_clean_linker_0, # of connection points: 2
#     Edge 46, Type (0, 0), BuildingBlock: CIFDUS_clean_linker_0, # of connection points: 2
#     Edge 47, Type (0, 0), BuildingBlock: CIFDUS_clean_linker_0, # of connection points: 2
#     Edge 48, Type (0, 0), BuildingBlock: CIFDUS_clean_linker_0, # of connection points: 2
#     Edge 49, Type (0, 0), BuildingBlock: CIFDUS_clean_linker_0, # of connection points: 2
#     Edge 50, Type (0, 0), BuildingBlock: CIFDUS_clean_linker_0, # of connection points: 2
#     Edge 51, Type (0, 0), BuildingBlock: CIFDUS_clean_linker_0, # of connection points: 2
#     Edge 52, Type (0, 0), BuildingBlock: CIFDUS_clean_linker_0, # of connection points: 2
#     Edge 53, Type (0, 0), BuildingBlock: CIFDUS_clean_linker_0, # of connection points: 2
#     Edge 54, Type (0, 0), BuildingBlock: CIFDUS_clean_linker_0, # of connection points: 2
#     Edge 55, Type (0, 0), BuildingBlock: CIFDUS_clean_linker_0, # of connection points: 2
#     Edge 56, Type (0, 0), BuildingBlock: CIFDUS_clean_linker_0, # of connection points: 2
#     Edge 57, Type (0, 0), BuildingBlock: CIFDUS_clean_linker_0, # of connection points: 2
#     Edge 58, Type (0, 0), BuildingBlock: CIFDUS_clean_linker_0, # of connection points: 2
#     Edge 59, Type (0, 0), BuildingBlock: CIFDUS_clean_linker_0, # of connection points: 2
#     Edge 60, Type (0, 0), BuildingBlock: CIFDUS_clean_linker_0, # of connection points: 2
#     Edge 61, Type (0, 0), BuildingBlock: CIFDUS_clean_linker_0, # of connection points: 2
#     Edge 62, Type (0, 0), BuildingBlock: CIFDUS_clean_linker_0, # of connection points: 2
#     Edge 63, Type (0, 0), BuildingBlock: CIFDUS_clean_linker_0, # of connection points: 2
#     Edge 64, Type (0, 0), BuildingBlock: CIFDUS_clean_linker_0, # of connection points: 2
#     Edge 65, Type (0, 0), BuildingBlock: CIFDUS_clean_linker_0, # of connection points: 2
#     Edge 66, Type (0, 0), BuildingBlock: CIFDUS_clean_linker_0, # of connection points: 2
#     Edge 67, Type (0, 0), BuildingBlock: CIFDUS_clean_linker_0, # of connection points: 2
#     Edge 68, Type (0, 0), BuildingBlock: CIFDUS_clean_linker_0, # of connection points: 2
#     Edge 69, Type (0, 0), BuildingBlock: CIFDUS_clean_linker_0, # of connection points: 2
#     Edge 70, Type (0, 0), BuildingBlock: CIFDUS_clean_linker_0, # of connection points: 2
#     Edge 71, Type (0, 0), BuildingBlock: CIFDUS_clean_linker_0, # of connection points: 2
#     Edge 72, Type (0, 0), BuildingBlock: CIFDUS_clean_linker_0, # of connection points: 2
#     Edge 73, Type (0, 0), BuildingBlock: CIFDUS_clean_linker_0, # of connection points: 2
#     Edge 74, Type (0, 0), BuildingBlock: CIFDUS_clean_linker_0, # of connection points: 2
#     Edge 75, Type (0, 0), BuildingBlock: CIFDUS_clean_linker_0, # of connection points: 2
#     Edge 76, Type (0, 0), BuildingBlock: CIFDUS_clean_linker_0, # of connection points: 2
#     Edge 77, Type (0, 0), BuildingBlock: CIFDUS_clean_linker_0, # of connection points: 2
#     Edge 78, Type (0, 0), BuildingBlock: CIFDUS_clean_linker_0, # of connection points: 2
#     Edge 79, Type (0, 0), BuildingBlock: CIFDUS_clean_linker_0, # of connection points: 2
#     Edge 80, Type (0, 0), BuildingBlock: CIFDUS_clean_linker_0, # of connection points: 2
#     Edge 81, Type (0, 0), BuildingBlock: CIFDUS_clean_linker_0, # of connection points: 2
#     Edge 82, Type (0, 0), BuildingBlock: CIFDUS_clean_linker_0, # of connection points: 2
#     Edge 83, Type (0, 0), BuildingBlock: CIFDUS_clean_linker_0, # of connection points: 2
#     Edge 84, Type (0, 0), BuildingBlock: CIFDUS_clean_linker_0, # of connection points: 2
#     Edge 85, Type (0, 0), BuildingBlock: CIFDUS_clean_linker_0, # of connection points: 2
#     Edge 86, Type (0, 0), BuildingBlock: CIFDUS_clean_linker_0, # of connection points: 2
#     Edge 87, Type (0, 0), BuildingBlock: CIFDUS_clean_linker_0, # of connection points: 2
#     Edge 88, Type (0, 0), BuildingBlock: CIFDUS_clean_linker_0, # of connection points: 2
#     Edge 89, Type (0, 0), BuildingBlock: CIFDUS_clean_linker_0, # of connection points: 2
#     Edge 90, Type (0, 0), BuildingBlock: CIFDUS_clean_linker_0, # of connection points: 2
#     Edge 91, Type (0, 0), BuildingBlock: CIFDUS_clean_linker_0, # of connection points: 2
#     Edge 92, Type (0, 0), BuildingBlock: CIFDUS_clean_linker_0, # of connection points: 2
#     Edge 93, Type (0, 0), BuildingBlock: CIFDUS_clean_linker_0, # of connection points: 2
#     Edge 94, Type (0, 0), BuildingBlock: CIFDUS_clean_linker_0, # of connection points: 2
#     Edge 95, Type (0, 0), BuildingBlock: CIFDUS_clean_linker_0, # of connection points: 2
# Relax obj value: 0.043
# Max RMSD: 0.156
# Mean RMSD: 0.154
data_MOF--net-vbb--node1-KOZSID_clean_sbu_0--edge1-CIFDUS_clean_linker_0
_symmetry_space_group_name_H-M    P1
_symmetry_Int_Tables_number       1
_symmetry_cell_setting            triclinic
loop_
_symmetry_equiv_pos_as_xyz
'x, y, z'
_cell_length_a     59.205185
_cell_length_b     37.194131
_cell_length_c     110.51269
_cell_angle_alpha  89.797909
_cell_angle_beta   90.070166
_cell_angle_gamma 90.020454
loop_
_atom_site_label
_atom_site_type_symbol
_atom_site_fract_x
_atom_site_fract_y
_atom_site_fract_z
_atom_type_partial_charge
C0 C 0.5043 0.07794 0.0941 0.0
C1 C 0.48918 0.10463 0.09755 0.0
C2 C 0.47615 0.11233 0.08764 0.0
C3 C 0.48364 0.08953 0.0788 0.0
N4 N 0.50052 0.06794 0.0825 0.0
Co5 Co 0.51299 0.02721 0.07316 0.0
N6 N 0.50288 0.04884 0.0576 0.0
C7 C 0.48694 0.07449 0.05644 0.0
C8 C 0.48252 0.08362 0.04466 0.0
C9 C 0.49623 0.06196 0.03793 0.0
C10 C 0.50834 0.0406 0.04603 0.0
N11 N 0.52505 0.98615 0.06376 0.0
C12 C 0.52823 0.98245 0.05165 0.0
C13 C 0.53653 0.94844 0.04902 0.0
C14 C 0.53797 0.93014 0.05981 0.0
C15 C 0.53064 0.95389 0.06843 0.0
N16 N 0.52293 0.00661 0.08896 0.0
C17 C 0.52913 0.97224 0.09085 0.0
C18 C 0.53858 0.96718 0.10207 0.0
C19 C 0.5381 1.00024 0.10757 0.0
C20 C 0.52772 0.02387 0.09954 0.0
N21 N 0.48384 1.00105 0.07458 0.0
C22 C 0.44709 0.95235 0.07687 0.0
C23 C 0.45561 0.97124 0.08693 0.0
C24 C 0.47378 0.9955 0.08559 0.0
C25 C 0.45673 0.96029 0.06557 0.0
C26 C 0.47489 0.98434 0.06463 0.0
N27 N 0.54272 0.05135 0.07167 0.0
C28 C 0.58321 0.04592 0.07366 0.0
C29 C 0.58688 0.08007 0.06863 0.0
C30 C 0.56742 0.10016 0.06551 0.0
C31 C 0.54553 0.08547 0.06722 0.0
C32 C 0.5615 0.032 0.07477 0.0
H33 H 0.53095 0.10136 0.06474 0.0
H34 H 0.5602 0.00497 0.07807 0.0
H35 H 0.48023 0.00869 0.09356 0.0
H36 H 0.48217 0.98823 0.05581 0.0
C37 C 0.47778 0.09126 0.06659 0.0
C38 C 0.52133 0.06179 0.10218 0.0
C39 C 0.52168 0.00913 0.04234 0.0
C40 C 0.53163 0.94877 0.08102 0.0
H41 H 0.48758 0.11721 0.10632 0.0
H42 H 0.46321 0.13277 0.0869 0.0
H43 H 0.4707 0.10356 0.04134 0.0
H44 H 0.49638 0.06097 0.02815 0.0
H45 H 0.54075 0.93776 0.04022 0.0
H46 H 0.54413 0.90305 0.0612 0.0
H47 H 0.5467 0.9431 0.10548 0.0
H48 H 0.54552 0.006 0.11626 0.0
H49 H 0.44891 0.96648 0.0959 0.0
H50 H 0.45052 0.94769 0.05741 0.0
H51 H 0.59702 0.02933 0.07682 0.0
H52 H 0.56892 0.12673 0.06158 0.0
C53 C 0.79424 0.17983 0.09129 0.0
C54 C 0.80941 0.1529 0.09455 0.0
C55 C 0.82144 0.1445 0.08438 0.0
C56 C 0.81335 0.16713 0.07557 0.0
N57 N 0.79704 0.1893 0.07953 0.0
Co58 Co 0.78407 0.22986 0.07016 0.0
N59 N 0.79264 0.20736 0.0545 0.0
C60 C 0.80822 0.18126 0.05318 0.0
C61 C 0.81168 0.17164 0.04138 0.0
C62 C 0.79771 0.19343 0.03479 0.0
C63 C 0.78639 0.21535 0.04297 0.0
N64 N 0.77153 0.27075 0.06071 0.0
C65 C 0.76744 0.27413 0.04864 0.0
C66 C 0.759 0.3081 0.046 0.0
C67 C 0.75846 0.32674 0.05669 0.0
C68 C 0.76641 0.30321 0.06529 0.0
N69 N 0.77564 0.25126 0.08604 0.0
C70 C 0.76973 0.28578 0.0878 0.0
C71 C 0.76128 0.29152 0.09919 0.0
C72 C 0.76212 0.25874 0.10493 0.0
C73 C 0.77171 0.23458 0.09687 0.0
N74 N 0.81356 0.25552 0.07068 0.0
C75 C 0.85201 0.30101 0.07123 0.0
C76 C 0.84345 0.2854 0.08188 0.0
C77 C 0.82448 0.26233 0.08139 0.0
C78 C 0.8412 0.29252 0.06034 0.0
C79 C 0.82211 0.27029 0.06026 0.0
N80 N 0.75409 0.2062 0.06952 0.0
C81 C 0.7138 0.2122 0.07236 0.0
C82 C 0.70954 0.17807 0.06752 0.0
C83 C 0.72865 0.15772 0.06404 0.0
C84 C 0.75073 0.17208 0.06525 0.0
C85 C 0.73567 0.22584 0.07295 0.0
H86 H 0.765 0.15594 0.06252 0.0
H87 H 0.73739 0.25289 0.07611 0.0
H88 H 0.81836 0.25071 0.08973 0.0
H89 H 0.81393 0.26611 0.0517 0.0
C90 C 0.81807 0.16475 0.06324 0.0
C91 C 0.77816 0.1967 0.09971 0.0
C92 C 0.77314 0.24711 0.03933 0.0
C93 C 0.76647 0.30879 0.07785 0.0
H94 H 0.81171 0.14064 0.10335 0.0
H95 H 0.8341 0.12372 0.08345 0.0
H96 H 0.8231 0.15135 0.03796 0.0
H97 H 0.79695 0.19414 0.02502 0.0
H98 H 0.75407 0.31854 0.03723 0.0
H99 H 0.75249 0.35392 0.05806 0.0
H100 H 0.75356 0.31585 0.10258 0.0
H101 H 0.75544 0.25352 0.11384 0.0
H102 H 0.85143 0.29074 0.09052 0.0
H103 H 0.84709 0.3039 0.05187 0.0
H104 H 0.70037 0.22901 0.07577 0.0
H105 H 0.72674 0.13117 0.06021 0.0
C106 C 0.50399 0.18547 0.16434 0.0
C107 C 0.48848 0.15984 0.16047 0.0
C108 C 0.47609 0.15003 0.17041 0.0
C109 C 0.48434 0.17065 0.17968 0.0
N110 N 0.50104 0.19288 0.17619 0.0
Co111 Co 0.51443 0.2313 0.1862 0.0
N112 N 0.50561 0.20624 0.20137 0.0
C113 C 0.49015 0.17979 0.20228 0.0
C114 C 0.48769 0.16702 0.21386 0.0
C115 C 0.50221 0.1871 0.22071 0.0
C116 C 0.51254 0.2115 0.21292 0.0
N117 N 0.52705 0.27039 0.19632 0.0
C118 C 0.53118 0.27145 0.2084 0.0
C119 C 0.53873 0.30529 0.21179 0.0
C120 C 0.53912 0.32601 0.20147 0.0
C121 C 0.53173 0.30384 0.19237 0.0
N122 N 0.52352 0.255 0.17081 0.0
C123 C 0.52977 0.28959 0.1696 0.0
C124 C 0.53867 0.29672 0.15838 0.0
C125 C 0.53781 0.26474 0.15218 0.0
C126 C 0.52785 0.23967 0.15985 0.0
N127 N 0.48521 0.25755 0.186 0.0
C128 C 0.44694 0.30335 0.18597 0.0
C129 C 0.45578 0.28967 0.17512 0.0
C130 C 0.47464 0.26644 0.17535 0.0
C131 C 0.45741 0.29277 0.19679 0.0
C132 C 0.47642 0.27037 0.19661 0.0
N133 N 0.54413 0.20689 0.1864 0.0
C134 C 0.58454 0.21282 0.18409 0.0
C135 C 0.58771 0.17581 0.18544 0.0
C136 C 0.56842 0.15451 0.18764 0.0
C137 C 0.54673 0.17058 0.18802 0.0
C138 C 0.56296 0.2276 0.18462 0.0
H139 H 0.53209 0.15376 0.18948 0.0
H140 H 0.56169 0.25614 0.18339 0.0
H141 H 0.48096 0.25634 0.16685 0.0
H142 H 0.48436 0.26441 0.20515 0.0
C143 C 0.47983 0.16557 0.19197 0.0
C144 C 0.52121 0.20227 0.15657 0.0
C145 C 0.52616 0.24219 0.21702 0.0
C146 C 0.53232 0.31138 0.17989 0.0
H147 H 0.48647 0.14903 0.15146 0.0
H148 H 0.46326 0.12934 0.1709 0.0
H149 H 0.47682 0.14545 0.21694 0.0
H150 H 0.50434 0.18475 0.23041 0.0
H151 H 0.54318 0.3142 0.22079 0.0
H152 H 0.5447 0.35363 0.20066 0.0
H153 H 0.54655 0.32144 0.15537 0.0
H154 H 0.54463 0.26071 0.14325 0.0
H155 H 0.44809 0.29665 0.16654 0.0
H156 H 0.45132 0.30265 0.2054 0.0
H157 H 0.59878 0.2306 0.18261 0.0
H158 H 0.57001 0.12569 0.18875 0.0
C159 C 0.79513 0.07476 0.16385 0.0
C160 C 0.81129 0.09941 0.16 0.0
C161 C 0.82412 0.10787 0.1699 0.0
C162 C 0.81546 0.08745 0.17915 0.0
N163 N 0.79807 0.06658 0.17569 0.0
Co164 Co 0.78393 0.02865 0.18576 0.0
N165 N 0.7939 0.05239 0.20097 0.0
C166 C 0.81019 0.07758 0.20178 0.0
C167 C 0.81411 0.0888 0.21338 0.0
C168 C 0.79969 0.06901 0.22039 0.0
C169 C 0.78771 0.04654 0.21264 0.0
N170 N 0.77063 0.98991 0.19591 0.0
C171 C 0.76735 0.98805 0.20807 0.0
C172 C 0.75835 0.9549 0.2113 0.0
C173 C 0.75652 0.93521 0.20086 0.0
C174 C 0.76437 0.95732 0.19183 0.0
N175 N 0.77354 0.00655 0.17034 0.0
C176 C 0.76587 0.97271 0.16911 0.0
C177 C 0.75633 0.96688 0.15797 0.0
C178 C 0.75824 0.9989 0.15182 0.0
C179 C 0.76949 0.02264 0.15941 0.0
N180 N 0.81236 1.00005 0.18526 0.0
C181 C 0.847 0.94702 0.18525 0.0
C182 C 0.83888 0.96221 0.17437 0.0
C183 C 0.8218 0.98885 0.17458 0.0
C184 C 0.83845 0.96139 0.19604 0.0
C185 C 0.82122 0.98709 0.19586 0.0
N186 N 0.75499 0.05519 0.1864 0.0
C187 C 0.71421 0.05183 0.18638 0.0
C188 C 0.71236 0.08864 0.18849 0.0
C189 C 0.73242 0.10888 0.18922 0.0
C190 C 0.75364 0.09154 0.18826 0.0
C191 C 0.7354 0.0359 0.18525 0.0
H192 H 0.76889 0.10729 0.18914 0.0
H193 H 0.7357 0.00753 0.18357 0.0
H194 H 0.81559 0.99919 0.16606 0.0
H195 H 0.81445 0.99498 0.20446 0.0
C196 C 0.82048 0.0915 0.1914 0.0
C197 C 0.77749 0.05937 0.15602 0.0
C198 C 0.77417 0.01579 0.2169 0.0
C199 C 0.76291 0.95072 0.17935 0.0
H200 H 0.81356 0.11036 0.151 0.0
H201 H 0.83758 0.1275 0.17038 0.0
H202 H 0.82615 0.10876 0.21641 0.0
H203 H 0.79905 0.06979 0.23017 0.0
H204 H 0.75382 0.94573 0.22028 0.0
H205 H 0.74969 0.90836 0.19995 0.0
H206 H 0.74739 0.94311 0.15499 0.0
H207 H 0.75125 0.00397 0.14296 0.0
H208 H 0.84494 0.95265 0.16573 0.0
H209 H 0.84455 0.95219 0.20476 0.0
H210 H 0.69923 0.03523 0.18562 0.0
H211 H 0.73173 0.13755 0.19083 0.0
C212 C 0.52691 0.96456 0.91312 0.0
C213 C 0.52105 0.98792 0.90381 0.0
C214 C 0.51841 0.0213 0.90891 0.0
C215 C 0.52292 0.01664 0.92102 0.0
N216 N 0.52823 0.98246 0.92381 0.0
Co217 Co 0.53608 0.96439 0.94022 0.0
N218 N 0.5224 0.00664 0.94836 0.0
C219 C 0.51719 0.03798 0.94288 0.0
C220 C 0.50864 0.06301 0.95075 0.0
C221 C 0.50884 0.0466 0.96189 0.0
C222 C 0.51767 0.0124 0.96024 0.0
N223 N 0.54404 0.94545 0.95657 0.0
C224 C 0.53708 0.9557 0.96772 0.0
C225 C 0.54799 0.93575 0.97668 0.0
C226 C 0.5623 0.91269 0.97095 0.0
C227 C 0.55948 0.91974 0.95888 0.0
N228 N 0.54991 0.92217 0.93209 0.0
C229 C 0.56429 0.8985 0.9372 0.0
C230 C 0.56875 0.86948 0.93001 0.0
C231 C 0.55651 0.87515 0.9197 0.0
C232 C 0.54572 0.90815 0.92098 0.0
N233 N 0.56525 0.99123 0.93956 0.0
C234 C 0.60059 0.04317 0.93836 0.0
C235 C 0.59034 0.03357 0.94937 0.0
C236 C 0.57282 0.00831 0.94975 0.0
C237 C 0.59386 0.02357 0.92806 0.0
C238 C 0.57643 0.99753 0.92888 0.0
N239 N 0.50654 0.93941 0.94093 0.0
C240 C 0.48301 0.88846 0.94623 0.0
C241 C 0.4633 0.90612 0.9421 0.0
C242 C 0.46616 0.94091 0.93735 0.0
C243 C 0.48757 0.95701 0.93701 0.0
C244 C 0.50433 0.90531 0.94546 0.0
H245 H 0.48863 0.98397 0.93351 0.0
H246 H 0.519 0.89082 0.94861 0.0
H247 H 0.56476 0.00417 0.95833 0.0
H248 H 0.57132 0.98377 0.92074 0.0
C249 C 0.51846 0.04146 0.93024 0.0
C250 C 0.53254 0.92623 0.91138 0.0
C251 C 0.52322 0.98758 0.97027 0.0
C252 C 0.56875 0.89962 0.94955 0.0
H253 H 0.51894 0.98153 0.89433 0.0
H254 H 0.51294 0.04566 0.9044 0.0
H255 H 0.50269 0.0898 0.94862 0.0
H256 H 0.50353 0.0587 0.97031 0.0
H257 H 0.54653 0.9383 0.98639 0.0
H258 H 0.57324 0.89282 0.97509 0.0
H259 H 0.57829 0.84562 0.93235 0.0
H260 H 0.55536 0.85625 0.91233 0.0
H261 H 0.59531 0.04623 0.95776 0.0
H262 H 0.60126 0.02924 0.91931 0.0
H263 H 0.48215 0.86187 0.95019 0.0
H264 H 0.45205 0.95592 0.93372 0.0
C265 C 0.26948 0.78752 0.9103 0.0
C266 C 0.27597 0.76564 0.90078 0.0
C267 C 0.2786 0.73163 0.90546 0.0
C268 C 0.27353 0.73453 0.91755 0.0
N269 N 0.26799 0.76826 0.92074 0.0
Co270 Co 0.25912 0.78393 0.93723 0.0
N271 N 0.27228 0.74043 0.94493 0.0
C272 C 0.27785 0.70989 0.93916 0.0
C273 C 0.28636 0.6841 0.94682 0.0
C274 C 0.28583 0.69922 0.95814 0.0
C275 C 0.27685 0.73347 0.95676 0.0
N276 N 0.24983 0.80011 0.9536 0.0
C277 C 0.25612 0.78814 0.96467 0.0
C278 C 0.24412 0.80577 0.97372 0.0
C279 C 0.22991 0.82938 0.9681 0.0
C280 C 0.23384 0.82484 0.956 0.0
N281 N 0.24596 0.82756 0.92962 0.0
C282 C 0.23097 0.85014 0.93471 0.0
C283 C 0.22613 0.87947 0.92764 0.0
C284 C 0.23871 0.87502 0.9174 0.0
C285 C 0.25029 0.8427 0.91871 0.0
N286 N 0.23002 0.75774 0.93547 0.0
C287 C 0.19291 0.71018 0.93208 0.0
C288 C 0.2039 0.71321 0.94331 0.0
C289 C 0.22219 0.73681 0.94479 0.0
C290 C 0.20039 0.73324 0.92275 0.0
C291 C 0.21874 0.75683 0.92464 0.0
N292 N 0.28862 0.80857 0.93896 0.0
C293 C 0.31187 0.85866 0.94534 0.0
C294 C 0.33176 0.84171 0.94117 0.0
C295 C 0.32912 0.80767 0.93589 0.0
C296 C 0.30777 0.79161 0.93504 0.0
C297 C 0.2906 0.84189 0.94406 0.0
H298 H 0.30689 0.76525 0.93111 0.0
H299 H 0.27576 0.85581 0.94724 0.0
H300 H 0.23043 0.7371 0.95348 0.0
H301 H 0.22428 0.77342 0.91718 0.0
C302 C 0.27741 0.70827 0.92646 0.0
C303 C 0.26328 0.82568 0.90896 0.0
C304 C 0.27109 0.75737 0.96691 0.0
C305 C 0.22524 0.84671 0.94686 0.0
H306 H 0.27847 0.77346 0.89143 0.0
H307 H 0.28435 0.70796 0.9007 0.0
H308 H 0.29269 0.65775 0.94446 0.0
H309 H 0.29111 0.68631 0.96646 0.0
H310 H 0.24495 0.80149 0.98339 0.0
H311 H 0.2184 0.84809 0.97234 0.0
H312 H 0.21559 0.90225 0.92989 0.0
H313 H 0.23912 0.89347 0.90981 0.0
H314 H 0.19857 0.69721 0.95099 0.0
H315 H 0.19267 0.73238 0.91388 0.0
H316 H 0.31255 0.88462 0.9497 0.0
H317 H 0.34338 0.79327 0.93219 0.0
C318 C 0.52915 0.78198 0.84545 0.0
C319 C 0.52444 0.75621 0.85419 0.0
C320 C 0.52261 0.72389 0.84827 0.0
C321 C 0.52633 0.7316 0.83626 0.0
N322 N 0.53024 0.76676 0.83428 0.0
Co323 Co 0.5369 0.78898 0.81828 0.0
N324 N 0.525 0.74692 0.80925 0.0
C325 C 0.52188 0.71381 0.81392 0.0
C326 C 0.51449 0.68951 0.80545 0.0
C327 C 0.51316 0.70847 0.79478 0.0
C328 C 0.51979 0.7434 0.79734 0.0
N329 N 0.54343 0.81203 0.80238 0.0
C330 C 0.53588 0.80379 0.79115 0.0
C331 C 0.54441 0.8276 0.78258 0.0
C332 C 0.55823 0.85089 0.78861 0.0
C333 C 0.55722 0.84029 0.80048 0.0
N334 N 0.54918 0.83094 0.82721 0.0
C335 C 0.56254 0.8569 0.82259 0.0
C336 C 0.56758 0.88348 0.83071 0.0
C337 C 0.55682 0.87369 0.84114 0.0
C338 C 0.54597 0.84124 0.83883 0.0
N339 N 0.5671 0.76539 0.81827 0.0
C340 C 0.6029 0.71433 0.81869 0.0
C341 C 0.59278 0.72557 0.80779 0.0
C342 C 0.57504 0.75053 0.80778 0.0
C343 C 0.59603 0.7323 0.82927 0.0
C344 C 0.57843 0.758 0.82883 0.0
N345 N 0.50629 0.81045 0.81829 0.0
C346 C 0.48 0.85997 0.81579 0.0
C347 C 0.46152 0.83764 0.81873 0.0
C348 C 0.46622 0.80141 0.82118 0.0
C349 C 0.48837 0.78861 0.82099 0.0
C350 C 0.50222 0.84588 0.81563 0.0
H351 H 0.49089 0.76066 0.82308 0.0
H352 H 0.51607 0.8636 0.81342 0.0
H353 H 0.56691 0.75598 0.79926 0.0
H354 H 0.57315 0.77028 0.8372 0.0
C355 C 0.52327 0.70804 0.82648 0.0
C356 C 0.53438 0.8199 0.84817 0.0
C357 C 0.52283 0.77158 0.78809 0.0
C358 C 0.56621 0.85932 0.81018 0.0
H359 H 0.52273 0.76034 0.86383 0.0
H360 H 0.51844 0.69806 0.85222 0.0
H361 H 0.51013 0.66157 0.8069 0.0
H362 H 0.50822 0.69772 0.78608 0.0
H363 H 0.54132 0.82783 0.77292 0.0
H364 H 0.56737 0.8735 0.78483 0.0
H365 H 0.57695 0.90802 0.82908 0.0
H366 H 0.55697 0.88887 0.84947 0.0
H367 H 0.59792 0.71429 0.79921 0.0
H368 H 0.60333 0.72544 0.83795 0.0
H369 H 0.47743 0.88822 0.81385 0.0
H370 H 0.45278 0.78255 0.82318 0.0
C371 C 0.27363 0.97512 0.84453 0.0
C372 C 0.27961 0.99983 0.85336 0.0
C373 C 0.28021 0.03298 0.84782 0.0
C374 C 0.2745 0.02683 0.83595 0.0
N375 N 0.27047 0.99187 0.83372 0.0
Co376 Co 0.26113 0.97165 0.81791 0.0
N377 N 0.27177 0.01461 0.80891 0.0
C378 C 0.27553 0.04726 0.81372 0.0
C379 C 0.28218 0.07212 0.8052 0.0
C380 C 0.28239 0.05394 0.79438 0.0
C381 C 0.27588 0.01889 0.79692 0.0
N382 N 0.25182 0.95081 0.80218 0.0
C383 C 0.25808 0.9599 0.79082 0.0
C384 C 0.24777 0.93773 0.78234 0.0
C385 C 0.23421 0.91458 0.78864 0.0
C386 C 0.23713 0.92363 0.80055 0.0
N387 N 0.25017 0.92869 0.82683 0.0
C388 C 0.23614 0.90324 0.82249 0.0
C389 C 0.23396 0.87426 0.83007 0.0
C390 C 0.24726 0.88199 0.83982 0.0
C391 C 0.25632 0.91607 0.83785 0.0
N392 N 0.23117 0.99514 0.81957 0.0
C393 C 0.1941 0.04252 0.82274 0.0
C394 C 0.20342 0.03633 0.81126 0.0
C395 C 0.2218 0.0128 0.80988 0.0
C396 C 0.20293 0.02245 0.83247 0.0
C397 C 0.22114 0.99864 0.83068 0.0
N398 N 0.29151 0.94992 0.81631 0.0
C399 C 0.31668 0.89969 0.81274 0.0
C400 C 0.33571 0.92184 0.81432 0.0
C401 C 0.33204 0.95806 0.81698 0.0
C402 C 0.31005 0.97133 0.81809 0.0
C403 C 0.29472 0.91435 0.81362 0.0
H404 H 0.30816 0.99921 0.82042 0.0
H405 H 0.28038 0.89698 0.81213 0.0
H406 H 0.22916 0.01049 0.801 0.0
H407 H 0.22777 0.98431 0.83841 0.0
C408 C 0.27599 0.05167 0.82635 0.0
C409 C 0.26921 0.93667 0.84691 0.0
C410 C 0.27202 0.99112 0.78771 0.0
C411 C 0.22987 0.9031 0.81034 0.0
H412 H 0.28295 0.99451 0.86283 0.0
H413 H 0.28492 0.05832 0.85189 0.0
H414 H 0.28697 0.09983 0.80671 0.0
H415 H 0.28661 0.0652 0.78563 0.0
H416 H 0.24968 0.93824 0.77261 0.0
H417 H 0.22423 0.89275 0.785 0.0
H418 H 0.22513 0.84931 0.82833 0.0
H419 H 0.25009 0.86402 0.84737 0.0
H420 H 0.19734 0.05099 0.80342 0.0
H421 H 0.19607 0.02553 0.84148 0.0
H422 H 0.31875 0.87148 0.81063 0.0
H423 H 0.34618 0.97609 0.81837 0.0
C424 C 0.50014 0.58695 0.58551 0.0
C425 C 0.48885 0.61952 0.58675 0.0
C426 C 0.4787 0.62657 0.5759 0.0
C427 C 0.48457 0.59839 0.5686 0.0
N428 N 0.49786 0.57395 0.57412 0.0
Co429 Co 0.51141 0.53071 0.56648 0.0
N430 N 0.50578 0.5501 0.5499 0.0
C431 C 0.49156 0.57719 0.54711 0.0
C432 C 0.49034 0.58444 0.53498 0.0
C433 C 0.50441 0.56008 0.52971 0.0
C434 C 0.51358 0.53918 0.53898 0.0
N435 N 0.52476 0.48741 0.55881 0.0
C436 C 0.5303 0.481 0.54708 0.0
C437 C 0.53842 0.44623 0.54572 0.0
C438 C 0.53731 0.43015 0.5569 0.0
C439 C 0.52876 0.45592 0.56448 0.0
N440 N 0.517 0.5123 0.58318 0.0
C441 C 0.52143 0.4779 0.58614 0.0
C442 C 0.52444 0.47304 0.59837 0.0
C443 C 0.52163 0.50646 0.60341 0.0
C444 C 0.51711 0.52998 0.59395 0.0
N445 N 0.48156 0.50565 0.56625 0.0
C446 C 0.44634 0.45334 0.56625 0.0
C447 C 0.45244 0.47188 0.57689 0.0
C448 C 0.46973 0.49825 0.57664 0.0
C449 C 0.45691 0.46464 0.55552 0.0
C450 C 0.47441 0.48991 0.55573 0.0
N451 N 0.54168 0.55355 0.56659 0.0
C452 C 0.58159 0.54759 0.57084 0.0
C453 C 0.58657 0.58058 0.56522 0.0
C454 C 0.56803 0.60042 0.56069 0.0
C455 C 0.5458 0.58664 0.56157 0.0
C456 C 0.55949 0.5345 0.57122 0.0
H457 H 0.53205 0.60242 0.55796 0.0
H458 H 0.55703 0.50835 0.57515 0.0
H459 H 0.47427 0.51117 0.58503 0.0
H460 H 0.4829 0.49486 0.54732 0.0
C461 C 0.4817 0.59787 0.55612 0.0
C462 C 0.51139 0.56823 0.59559 0.0
C463 C 0.52632 0.50585 0.53685 0.0
C464 C 0.52627 0.45277 0.57707 0.0
H465 H 0.48804 0.6366 0.59463 0.0
H466 H 0.46922 0.65039 0.57344 0.0
H467 H 0.48054 0.60515 0.53051 0.0
H468 H 0.50674 0.55735 0.52006 0.0
H469 H 0.54411 0.43357 0.53747 0.0
H470 H 0.5424 0.40305 0.55923 0.0
H471 H 0.52896 0.44844 0.60304 0.0
H472 H 0.52271 0.51282 0.61294 0.0
H473 H 0.44472 0.46512 0.58546 0.0
H474 H 0.45233 0.45319 0.54687 0.0
H475 H 0.59469 0.53139 0.57496 0.0
H476 H 0.57056 0.62603 0.55623 0.0
C477 C 0.79338 0.66642 0.58688 0.0
C478 C 0.80386 0.63322 0.58836 0.0
C479 C 0.8151 0.62621 0.57786 0.0
C480 C 0.81067 0.65507 0.57049 0.0
N481 N 0.79719 0.67983 0.57563 0.0
Co482 Co 0.78557 0.72427 0.56771 0.0
N483 N 0.79342 0.70605 0.55132 0.0
C484 C 0.8079 0.67901 0.54898 0.0
C485 C 0.81124 0.6732 0.53689 0.0
C486 C 0.79825 0.69836 0.53119 0.0
C487 C 0.7875 0.71815 0.54017 0.0
N488 N 0.77395 0.76856 0.55971 0.0
C489 C 0.76945 0.77543 0.54784 0.0
C490 C 0.76177 0.81042 0.54633 0.0
C491 C 0.76207 0.82611 0.55755 0.0
C492 C 0.76971 0.79991 0.56532 0.0
N493 N 0.77811 0.74201 0.58422 0.0
C494 C 0.77398 0.7765 0.58712 0.0
C495 C 0.76984 0.7811 0.59925 0.0
C496 C 0.77166 0.74743 0.60431 0.0
C497 C 0.77676 0.72403 0.59496 0.0
N498 N 0.81572 0.7476 0.56898 0.0
C499 C 0.85339 0.79425 0.57204 0.0
C500 C 0.84578 0.77176 0.58149 0.0
C501 C 0.82719 0.74858 0.57976 0.0
C502 C 0.84244 0.79071 0.56081 0.0
C503 C 0.82389 0.76749 0.55949 0.0
N504 N 0.75503 0.70279 0.56651 0.0
C505 C 0.7149 0.70951 0.56987 0.0
C506 C 0.71016 0.67608 0.56459 0.0
C507 C 0.72885 0.6559 0.5605 0.0
C508 C 0.75108 0.6696 0.56161 0.0
C509 C 0.73702 0.72239 0.57055 0.0
H510 H 0.76501 0.65354 0.55839 0.0
H511 H 0.73939 0.74863 0.57437 0.0
H512 H 0.82149 0.73265 0.58734 0.0
H513 H 0.81561 0.76696 0.55082 0.0
C514 C 0.81573 0.65681 0.55823 0.0
C515 C 0.782 0.68562 0.59675 0.0
C516 C 0.77413 0.75066 0.53772 0.0
C517 C 0.77071 0.8023 0.57799 0.0
H518 H 0.80361 0.61593 0.59626 0.0
H519 H 0.82461 0.60224 0.57568 0.0
H520 H 0.82161 0.65275 0.53272 0.0
H521 H 0.79742 0.70215 0.52149 0.0
H522 H 0.75682 0.82345 0.53797 0.0
H523 H 0.75689 0.85318 0.5598 0.0
H524 H 0.76534 0.80575 0.60383 0.0
H525 H 0.76964 0.74086 0.61379 0.0
H526 H 0.85349 0.77294 0.59036 0.0
H527 H 0.84791 0.80617 0.55303 0.0
H528 H 0.70163 0.72605 0.57361 0.0
H529 H 0.72644 0.62998 0.55628 0.0
C530 C 0.4991 0.66239 0.66733 0.0
C531 C 0.48781 0.62985 0.66591 0.0
C532 C 0.475 0.62477 0.67604 0.0
C533 C 0.47959 0.65367 0.68327 0.0
N534 N 0.4946 0.67668 0.67835 0.0
Co535 Co 0.50859 0.71857 0.68661 0.0
N536 N 0.49932 0.70047 0.70281 0.0
C537 C 0.48353 0.67521 0.70499 0.0
C538 C 0.48114 0.66715 0.71703 0.0
C539 C 0.49616 0.689 0.72284 0.0
C540 C 0.50672 0.70964 0.71398 0.0
N541 N 0.52251 0.76031 0.69489 0.0
C542 C 0.52746 0.76527 0.70678 0.0
C543 C 0.53628 0.79935 0.70866 0.0
C544 C 0.53665 0.81624 0.69757 0.0
C545 C 0.52803 0.79165 0.68954 0.0
N546 N 0.51763 0.73605 0.67033 0.0
C547 C 0.52338 0.7701 0.66759 0.0
C548 C 0.52861 0.77441 0.65556 0.0
C549 C 0.5259 0.741 0.65046 0.0
C550 C 0.51927 0.71795 0.65969 0.0
N551 N 0.47992 0.74636 0.68532 0.0
C552 C 0.44469 0.79778 0.68274 0.0
C553 C 0.45191 0.77673 0.67291 0.0
C554 C 0.46918 0.7509 0.67443 0.0
C555 C 0.45477 0.79085 0.69401 0.0
C556 C 0.47225 0.76545 0.69509 0.0
N557 N 0.53771 0.6926 0.68792 0.0
C558 C 0.57826 0.69298 0.68504 0.0
C559 C 0.58052 0.65838 0.69003 0.0
C560 C 0.5604 0.64133 0.69388 0.0
C561 C 0.5393 0.65864 0.69264 0.0
C562 C 0.55707 0.70955 0.68424 0.0
H563 H 0.5243 0.64467 0.6956 0.0
H564 H 0.55649 0.7364 0.68061 0.0
H565 H 0.47445 0.73565 0.66663 0.0
H566 H 0.48023 0.76263 0.7038 0.0
C567 C 0.47448 0.65516 0.69555 0.0
C568 C 0.51302 0.67984 0.6579 0.0
C569 C 0.522 0.73973 0.71657 0.0
C570 C 0.52745 0.79508 0.67686 0.0
H571 H 0.48895 0.6109 0.65856 0.0
H572 H 0.46492 0.60136 0.67825 0.0
H573 H 0.47049 0.64672 0.72106 0.0
H574 H 0.49887 0.68964 0.73252 0.0
H575 H 0.54151 0.81097 0.71718 0.0
H576 H 0.54289 0.84297 0.69559 0.0
H577 H 0.53453 0.79859 0.65109 0.0
H578 H 0.52841 0.73441 0.64103 0.0
H579 H 0.44444 0.78045 0.66405 0.0
H580 H 0.44996 0.80624 0.7019 0.0
H581 H 0.5927 0.70751 0.68157 0.0
H582 H 0.56079 0.6149 0.69798 0.0
C583 C 0.7925 0.59279 0.66921 0.0
C584 C 0.80314 0.62597 0.66799 0.0
C585 C 0.81584 0.63094 0.67817 0.0
C586 C 0.81184 0.60126 0.68521 0.0
N587 N 0.79727 0.5779 0.68015 0.0
Co588 Co 0.78434 0.53448 0.68813 0.0
N589 N 0.79363 0.55145 0.70446 0.0
C590 C 0.80934 0.57678 0.70669 0.0
C591 C 0.81343 0.58195 0.71875 0.0
C592 C 0.79963 0.5581 0.72455 0.0
C593 C 0.78769 0.5397 0.71564 0.0
N594 N 0.77143 0.49119 0.69614 0.0
C595 C 0.76718 0.48445 0.70804 0.0
C596 C 0.75834 0.45015 0.70954 0.0
C597 C 0.75765 0.43472 0.69828 0.0
C598 C 0.7659 0.4604 0.69049 0.0
N599 N 0.77541 0.51803 0.67171 0.0
C600 C 0.7701 0.48404 0.66873 0.0
C601 C 0.76493 0.48042 0.65667 0.0
C602 C 0.76722 0.51425 0.65178 0.0
C603 C 0.77353 0.53683 0.66117 0.0
N604 N 0.81355 0.50849 0.68647 0.0
C605 C 0.85084 0.46112 0.68327 0.0
C606 C 0.84 0.46469 0.69451 0.0
C607 C 0.82161 0.48816 0.6959 0.0
C608 C 0.84307 0.48355 0.67382 0.0
C609 C 0.82467 0.50706 0.67562 0.0
N610 N 0.75478 0.5589 0.68972 0.0
C611 C 0.71433 0.55778 0.68642 0.0
C612 C 0.71165 0.59225 0.69138 0.0
C613 C 0.73147 0.60941 0.69557 0.0
C614 C 0.75274 0.59254 0.69455 0.0
C615 C 0.73567 0.54162 0.68586 0.0
H616 H 0.76753 0.6067 0.6977 0.0
H617 H 0.7366 0.51498 0.68214 0.0
H618 H 0.81351 0.48883 0.70461 0.0
H619 H 0.81895 0.52317 0.66808 0.0
C620 C 0.81753 0.59848 0.6974 0.0
C621 C 0.77917 0.57526 0.65959 0.0
C622 C 0.77315 0.50852 0.71816 0.0
C623 C 0.76634 0.45825 0.67781 0.0
H624 H 0.80173 0.64521 0.66069 0.0
H625 H 0.82562 0.65453 0.6805 0.0
H626 H 0.82479 0.6012 0.72285 0.0
H627 H 0.79904 0.55418 0.73424 0.0
H628 H 0.75329 0.43736 0.71792 0.0
H629 H 0.75145 0.4082 0.69602 0.0
H630 H 0.75933 0.45639 0.65205 0.0
H631 H 0.76462 0.52142 0.64239 0.0
H632 H 0.84552 0.44924 0.70229 0.0
H633 H 0.85061 0.48226 0.66492 0.0
H634 H 0.70013 0.54313 0.68275 0.0
H635 H 0.73076 0.63568 0.69971 0.0
C636 C 0.51872 0.48333 0.40766 0.0
C637 C 0.50714 0.50756 0.40034 0.0
C638 C 0.50584 0.53932 0.40662 0.0
C639 C 0.51612 0.53284 0.41756 0.0
N640 N 0.52373 0.49889 0.4185 0.0
Co641 Co 0.53513 0.47573 0.43356 0.0
N642 N 0.52244 0.51368 0.44412 0.0
C643 C 0.51599 0.54659 0.44035 0.0
C644 C 0.50874 0.56801 0.44966 0.0
C645 C 0.5112 0.54751 0.45993 0.0
C646 C 0.51991 0.51458 0.45633 0.0
N647 N 0.54619 0.451 0.4484 0.0
C648 C 0.54069 0.45592 0.46018 0.0
C649 C 0.55314 0.43297 0.4676 0.0
C650 C 0.56721 0.41384 0.46022 0.0
C651 C 0.5626 0.42591 0.44876 0.0
N652 N 0.54861 0.43859 0.42306 0.0
C653 C 0.56625 0.41753 0.426 0.0
C654 C 0.57385 0.39727 0.41649 0.0
C655 C 0.56002 0.40608 0.40699 0.0
C656 C 0.54442 0.43079 0.41134 0.0
N657 N 0.56348 0.50434 0.43267 0.0
C658 C 0.59848 0.55656 0.43206 0.0
C659 C 0.59007 0.54293 0.44302 0.0
C660 C 0.57273 0.51741 0.44313 0.0
C661 C 0.58998 0.54124 0.42133 0.0
C662 C 0.57263 0.51508 0.42184 0.0
N663 N 0.5063 0.44901 0.43456 0.0
C664 C 0.48416 0.39467 0.43685 0.0
C665 C 0.46373 0.41429 0.43623 0.0
C666 C 0.46548 0.45158 0.43474 0.0
C667 C 0.48657 0.46808 0.43381 0.0
C668 C 0.50521 0.41252 0.43604 0.0
H669 H 0.48669 0.49669 0.43256 0.0
H670 H 0.52057 0.39692 0.43663 0.0
H671 H 0.56621 0.50967 0.45182 0.0
H672 H 0.566 0.50469 0.41344 0.0
C673 C 0.5138 0.55417 0.42794 0.0
C674 C 0.52598 0.44649 0.40414 0.0
C675 C 0.52736 0.48624 0.46483 0.0
C676 C 0.57221 0.4127 0.43812 0.0
H677 H 0.49956 0.50297 0.3916 0.0
H678 H 0.4968 0.56332 0.4039 0.0
H679 H 0.50194 0.59496 0.44905 0.0
H680 H 0.50732 0.55601 0.46905 0.0
H681 H 0.553 0.43142 0.47737 0.0
H682 H 0.57944 0.39371 0.46292 0.0
H683 H 0.58718 0.37736 0.41658 0.0
H684 H 0.56118 0.3952 0.39794 0.0
H685 H 0.59642 0.55259 0.4516 0.0
H686 H 0.59595 0.5504 0.4126 0.0
H687 H 0.48399 0.36573 0.43788 0.0
H688 H 0.45062 0.46851 0.4345 0.0
C689 C 0.28212 0.27991 0.40933 0.0
C690 C 0.29369 0.25699 0.40165 0.0
C691 C 0.29481 0.2241 0.40743 0.0
C692 C 0.28409 0.22863 0.41837 0.0
N693 N 0.27635 0.26232 0.4197 0.0
Co694 Co 0.26342 0.28288 0.43467 0.0
N695 N 0.27618 0.2444 0.44497 0.0
C696 C 0.28295 0.21195 0.44103 0.0
C697 C 0.29038 0.19027 0.45032 0.0
C698 C 0.28783 0.21032 0.46069 0.0
C699 C 0.27905 0.24331 0.45714 0.0
N700 N 0.2507 0.30489 0.44945 0.0
C701 C 0.25635 0.29974 0.46118 0.0
C702 C 0.24325 0.32129 0.46867 0.0
C703 C 0.22845 0.33948 0.46133 0.0
C704 C 0.23345 0.32848 0.44981 0.0
N705 N 0.24985 0.32055 0.42445 0.0
C706 C 0.23152 0.34024 0.42713 0.0
C707 C 0.22493 0.36221 0.41775 0.0
C708 C 0.2402 0.35587 0.40867 0.0
C709 C 0.25538 0.33062 0.41313 0.0
N710 N 0.23577 0.25329 0.43274 0.0
C711 C 0.19988 0.20349 0.43001 0.0
C712 C 0.2082 0.2127 0.44148 0.0
C713 C 0.22606 0.23728 0.44264 0.0
C714 C 0.20954 0.22087 0.41994 0.0
C715 C 0.22721 0.24583 0.4215 0.0
N716 N 0.29164 0.31083 0.43652 0.0
C717 C 0.3128 0.36642 0.43777 0.0
C718 C 0.33349 0.34766 0.43708 0.0
C719 C 0.33249 0.31022 0.43626 0.0
C720 C 0.31172 0.29261 0.43595 0.0
C721 C 0.29207 0.34748 0.43758 0.0
H722 H 0.31213 0.26396 0.43485 0.0
H723 H 0.27644 0.36239 0.43806 0.0
H724 H 0.23246 0.24235 0.45161 0.0
H725 H 0.23435 0.25842 0.41356 0.0
C726 C 0.28591 0.20577 0.42854 0.0
C727 C 0.27531 0.31748 0.40666 0.0
C728 C 0.27201 0.27191 0.46554 0.0
C729 C 0.22428 0.34282 0.43914 0.0
H730 H 0.30101 0.26316 0.39295 0.0
H731 H 0.30381 0.20051 0.40437 0.0
H732 H 0.29756 0.16361 0.44963 0.0
H733 H 0.29181 0.20163 0.4698 0.0
H734 H 0.24391 0.3232 0.47843 0.0
H735 H 0.2159 0.35897 0.46407 0.0
H736 H 0.2115 0.38194 0.41774 0.0
H737 H 0.24052 0.36895 0.39991 0.0
H738 H 0.20154 0.19995 0.44955 0.0
H739 H 0.20356 0.21515 0.41089 0.0
H740 H 0.3126 0.39545 0.43844 0.0
H741 H 0.34774 0.29437 0.4354 0.0
C742 C 0.51817 0.27065 0.34615 0.0
C743 C 0.50841 0.2455 0.35386 0.0
C744 C 0.50757 0.21351 0.34766 0.0
C745 C 0.5163 0.22074 0.33641 0.0
N746 N 0.52243 0.25538 0.33518 0.0
Co747 Co 0.53145 0.27909 0.31978 0.0
N748 N 0.5189 0.23988 0.30969 0.0
C749 C 0.5143 0.20642 0.31366 0.0
C750 C 0.50697 0.18416 0.30457 0.0
C751 C 0.50733 0.20482 0.29424 0.0
C752 C 0.51479 0.23873 0.2976 0.0
N753 N 0.54022 0.30412 0.30459 0.0
C754 C 0.53331 0.29875 0.29305 0.0
C755 C 0.54356 0.32318 0.28524 0.0
C756 C 0.55801 0.34342 0.29208 0.0
C757 C 0.55559 0.33069 0.30366 0.0
N758 N 0.54472 0.31768 0.32977 0.0
C759 C 0.56125 0.3402 0.32626 0.0
C760 C 0.56919 0.36131 0.33549 0.0
C761 C 0.55678 0.3515 0.34541 0.0
C762 C 0.54158 0.32535 0.3416 0.0
N763 N 0.5607 0.2529 0.32001 0.0
C764 C 0.59696 0.20287 0.32012 0.0
C765 C 0.58731 0.21538 0.30927 0.0
C766 C 0.56932 0.2398 0.30941 0.0
C767 C 0.58902 0.2184 0.33092 0.0
C768 C 0.57111 0.2435 0.33065 0.0
N769 N 0.5017 0.30333 0.31955 0.0
C770 C 0.47725 0.35544 0.318 0.0
C771 C 0.45804 0.33408 0.32029 0.0
C772 C 0.46132 0.29718 0.32187 0.0
C773 C 0.48293 0.28255 0.32143 0.0
C774 C 0.499 0.33954 0.31774 0.0
H775 H 0.4843 0.25406 0.32279 0.0
H776 H 0.51359 0.3564 0.31619 0.0
H777 H 0.56177 0.24665 0.30085 0.0
H778 H 0.56503 0.25405 0.33914 0.0
C779 C 0.51377 0.19889 0.32613 0.0
C780 C 0.5246 0.30812 0.34941 0.0
C781 C 0.51975 0.26797 0.28896 0.0
C782 C 0.56578 0.34518 0.31397 0.0
H783 H 0.50176 0.24952 0.36283 0.0
H784 H 0.49985 0.18871 0.35071 0.0
H785 H 0.50149 0.1565 0.30538 0.0
H786 H 0.50292 0.19583 0.28523 0.0
H787 H 0.54141 0.32546 0.27554 0.0
H788 H 0.56879 0.36509 0.28899 0.0
H789 H 0.58181 0.38232 0.33496 0.0
H790 H 0.55861 0.36263 0.35439 0.0
H791 H 0.59317 0.20572 0.3006 0.0
H792 H 0.59586 0.21019 0.33958 0.0
H793 H 0.47556 0.38419 0.31671 0.0
H794 H 0.44712 0.27939 0.32345 0.0
C795 C 0.28102 0.47993 0.34746 0.0
C796 C 0.29245 0.50234 0.35539 0.0
C797 C 0.2929 0.53593 0.35008 0.0
C798 C 0.28201 0.53231 0.33915 0.0
N799 N 0.27478 0.49852 0.33735 0.0
Co800 Co 0.26201 0.47934 0.32208 0.0
N801 N 0.27381 0.51989 0.31232 0.0
C802 C 0.2804 0.55188 0.31678 0.0
C803 C 0.28742 0.57517 0.30788 0.0
C804 C 0.28471 0.55681 0.29719 0.0
C805 C 0.27605 0.52321 0.30015 0.0
N806 N 0.24943 0.45866 0.30702 0.0
C807 C 0.25409 0.46638 0.29531 0.0
C808 C 0.2403 0.44645 0.28763 0.0
C809 C 0.22642 0.42615 0.29481 0.0
C810 C 0.2324 0.43465 0.30643 0.0
N811 N 0.24944 0.43961 0.33179 0.0
C812 C 0.23138 0.41951 0.32889 0.0
C813 C 0.22533 0.39604 0.33794 0.0
C814 C 0.24066 0.40181 0.34706 0.0
C815 C 0.25537 0.42825 0.34293 0.0
N816 N 0.23384 0.50731 0.32449 0.0
C817 C 0.19729 0.55565 0.3278 0.0
C818 C 0.20595 0.54827 0.31626 0.0
C819 C 0.22402 0.52437 0.31482 0.0
C820 C 0.20687 0.53679 0.33763 0.0
C821 C 0.22501 0.51281 0.33579 0.0
N822 N 0.29071 0.45311 0.31965 0.0
C823 C 0.31292 0.39934 0.3163 0.0
C824 C 0.33307 0.41943 0.3167 0.0
C825 C 0.33146 0.4563 0.31871 0.0
C826 C 0.31042 0.47235 0.32029 0.0
C827 C 0.29183 0.41681 0.31767 0.0
H828 H 0.31033 0.50064 0.32215 0.0
H829 H 0.27649 0.40112 0.31716 0.0
H830 H 0.2304 0.52063 0.3058 0.0
H831 H 0.23231 0.49946 0.34356 0.0
C832 C 0.28342 0.55643 0.32934 0.0
C833 C 0.27496 0.44175 0.34964 0.0
C834 C 0.26853 0.49622 0.29122 0.0
C835 C 0.22379 0.41848 0.31692 0.0
H836 H 0.30024 0.4954 0.36391 0.0
H837 H 0.30167 0.55944 0.35342 0.0
H838 H 0.29444 0.60182 0.30901 0.0
H839 H 0.28854 0.56711 0.28826 0.0
H840 H 0.23955 0.44753 0.27785 0.0
H841 H 0.21353 0.40743 0.29189 0.0
H842 H 0.21215 0.37588 0.33772 0.0
H843 H 0.24122 0.38774 0.35564 0.0
H844 H 0.19893 0.56104 0.30828 0.0
H845 H 0.20091 0.54127 0.34676 0.0
H846 H 0.31344 0.37061 0.31476 0.0
H847 H 0.34653 0.47277 0.31923 0.0
C848 C 0.99902 0.08298 0.59021 0.0
C849 C 0.9827 0.10767 0.5937 0.0
C850 C 0.96899 0.11308 0.58385 0.0
C851 C 0.9775 0.09105 0.57502 0.0
N852 N 0.99555 0.0721 0.57873 0.0
Co853 Co 1.01079 0.03389 0.56947 0.0
N854 N 1.00013 0.05452 0.55389 0.0
C855 C 0.98295 0.07802 0.55261 0.0
C856 C 0.97871 0.08707 0.5408 0.0
C857 C 0.99388 0.06759 0.53419 0.0
C858 C 1.00659 0.04746 0.54237 0.0
N859 N 0.02522 0.99469 0.56017 0.0
C860 C 0.02875 0.99139 0.54808 0.0
C861 C 0.03857 0.9584 0.5455 0.0
C862 C 0.04073 0.94034 0.55631 0.0
C863 C 0.0322 0.96317 0.5649 0.0
N864 N 1.02178 0.01511 0.58527 0.0
C865 C 0.02998 0.98196 0.58729 0.0
C866 C 0.03944 0.97871 0.59861 0.0
C867 C 0.03703 0.01185 0.60397 0.0
C868 C 0.02586 0.03368 0.59569 0.0
N869 N 0.9831 0.0036 0.5705 0.0
C870 C 0.94612 0.955 0.57138 0.0
C871 C 0.95473 0.9708 0.58198 0.0
C872 C 0.973 0.99534 0.58133 0.0
C873 C 0.95639 0.96439 0.56042 0.0
C874 C 0.97474 0.98811 0.56018 0.0
N875 N 0.03896 0.06245 0.56835 0.0
C876 C 0.07982 0.06291 0.56903 0.0
C877 C 0.08049 0.10005 0.56716 0.0
C878 C 0.05969 0.1182 0.56597 0.0
C879 C 0.03912 0.09885 0.56645 0.0
C880 C 0.05917 0.04492 0.56972 0.0
H881 H 1.02339 0.11324 0.56536 0.0
H882 H 0.05976 0.01657 0.57152 0.0
H883 H 0.9791 0.00728 0.58961 0.0
H884 H 0.98236 0.9932 0.55153 0.0
C885 C 0.97218 0.09273 0.56271 0.0
C886 C 1.01791 0.07106 0.59784 0.0
C887 C 1.02131 0.01745 0.53876 0.0
C888 C 0.03361 0.95852 0.57753 0.0
H889 H 0.9812 0.12099 0.60235 0.0
H890 H 0.95527 0.13217 0.58304 0.0
H891 H 0.96602 0.10544 0.53738 0.0
H892 H 0.99456 0.06697 0.52441 0.0
H893 H 0.04342 0.94826 0.53671 0.0
H894 H 0.04819 0.9141 0.55774 0.0
H895 H 0.0486 0.95587 0.60221 0.0
H896 H 0.04348 0.01884 0.61277 0.0
H897 H 0.94721 0.96469 0.59068 0.0
H898 H 0.95052 0.95284 0.55199 0.0
H899 H 0.09526 0.04771 0.57029 0.0
H900 H 0.05932 0.14702 0.56455 0.0
C901 C 0.29351 0.16652 0.58628 0.0
C902 C 0.30514 0.13436 0.58794 0.0
C903 C 0.31713 0.12834 0.5776 0.0
C904 C 0.31195 0.15664 0.57013 0.0
N905 N 0.29732 0.1801 0.57509 0.0
Co906 Co 0.2841 0.22293 0.56698 0.0
N907 N 0.29241 0.20436 0.55075 0.0
C908 C 0.30751 0.17821 0.54843 0.0
C909 C 0.30944 0.17039 0.53637 0.0
C910 C 0.29482 0.19332 0.53069 0.0
C911 C 0.28493 0.2142 0.53965 0.0
N912 N 0.27128 0.26587 0.55877 0.0
C913 C 0.26626 0.27136 0.54691 0.0
C914 C 0.25844 0.30608 0.54503 0.0
C915 C 0.25875 0.32282 0.5561 0.0
C916 C 0.26677 0.29751 0.56412 0.0
N917 N 0.27571 0.24066 0.5833 0.0
C918 C 0.27046 0.27485 0.58604 0.0
C919 C 0.26573 0.27931 0.59812 0.0
C920 C 0.26833 0.24584 0.60327 0.0
C921 C 0.27446 0.2227 0.59403 0.0
N922 N 0.31345 0.24878 0.56809 0.0
C923 C 0.34937 0.29879 0.57054 0.0
C924 C 0.34184 0.27814 0.58043 0.0
C925 C 0.32425 0.25293 0.57898 0.0
C926 C 0.33937 0.29202 0.55926 0.0
C927 C 0.32151 0.2673 0.55825 0.0
N928 N 0.25433 0.1989 0.56591 0.0
C929 C 0.21364 0.20345 0.56747 0.0
C930 C 0.21073 0.16711 0.56444 0.0
C931 C 0.23059 0.1471 0.5622 0.0
C932 C 0.25206 0.1635 0.56285 0.0
C933 C 0.23527 0.21845 0.56831 0.0
H934 H 0.26683 0.14751 0.56091 0.0
H935 H 0.23643 0.24625 0.57087 0.0
H936 H 0.31873 0.23796 0.58682 0.0
H937 H 0.31351 0.2647 0.54954 0.0
C938 C 0.31664 0.15774 0.5578 0.0
C939 C 0.28081 0.18471 0.59591 0.0
C940 C 0.27042 0.24531 0.53718 0.0
C941 C 0.26718 0.30041 0.5768 0.0
H942 H 0.30505 0.11695 0.59581 0.0
H943 H 0.32738 0.10507 0.57554 0.0
H944 H 0.31961 0.14963 0.53224 0.0
H945 H 0.29203 0.19468 0.52102 0.0
H946 H 0.2533 0.3181 0.53653 0.0
H947 H 0.2532 0.34988 0.5581 0.0
H948 H 0.26043 0.3037 0.6026 0.0
H949 H 0.26617 0.23926 0.61275 0.0
H950 H 0.34929 0.28179 0.5893 0.0
H951 H 0.3445 0.30713 0.55133 0.0
H952 H 0.19933 0.22087 0.56903 0.0
H953 H 0.22977 0.1188 0.56004 0.0
C954 C 1.00157 0.1785 0.66523 0.0
C955 C 0.98617 0.15181 0.66217 0.0
C956 C 0.9736 0.14505 0.67234 0.0
C957 C 0.98177 0.1683 0.68091 0.0
N958 N 0.99856 0.18928 0.67676 0.0
Co959 Co 1.01258 0.22963 0.68557 0.0
N960 N 1.00401 0.20845 0.70144 0.0
C961 C 0.98811 0.18295 0.70312 0.0
C962 C 0.98493 0.17409 0.71503 0.0
C963 C 0.99941 0.19579 0.7213 0.0
C964 C 1.01071 0.21696 0.71282 0.0
N965 N 0.02575 0.27087 0.69445 0.0
C966 C 0.02983 0.27522 0.70647 0.0
C967 C 0.0383 0.30939 0.7087 0.0
C968 C 0.03891 0.32712 0.69778 0.0
C969 C 0.03092 0.30291 0.68945 0.0
N970 N 1.02148 0.24908 0.66948 0.0
C971 C 0.0279 0.28307 0.66718 0.0
C972 C 0.03621 0.28711 0.65565 0.0
C973 C 0.03488 0.25361 0.65042 0.0
C974 C 0.02548 0.23077 0.659 0.0
N975 N 0.98351 0.25661 0.68493 0.0
C976 C 0.94541 0.30301 0.68429 0.0
C977 C 0.9539 0.2873 0.67366 0.0
C978 C 0.97269 0.26382 0.6742 0.0
C979 C 0.95621 0.2943 0.69518 0.0
C980 C 0.97511 0.27165 0.69531 0.0
N981 N 0.04215 0.20459 0.68619 0.0
C982 C 0.08257 0.20936 0.68355 0.0
C983 C 0.08556 0.17246 0.68538 0.0
C984 C 0.06615 0.1519 0.68806 0.0
C985 C 0.04455 0.16849 0.68839 0.0
C986 C 0.0611 0.2246 0.68394 0.0
H987 H 0.02983 0.15218 0.69023 0.0
H988 H 0.06003 0.2529 0.68216 0.0
H989 H 0.97871 0.25207 0.66588 0.0
H990 H 0.98322 0.2673 0.70388 0.0
C991 C 0.97742 0.16652 0.6933 0.0
C992 C 1.01908 0.19254 0.6571 0.0
C993 C 0.02408 0.24895 0.71606 0.0
C994 C 0.03115 0.30723 0.67679 0.0
H995 H 0.98453 0.13815 0.65358 0.0
H996 H 0.96086 0.12446 0.67349 0.0
H997 H 0.97332 0.15447 0.71874 0.0
H998 H 1.00046 0.19707 0.73106 0.0
H999 H 0.04321 0.32054 0.71734 0.0
H1000 H 0.045 0.35411 0.69609 0.0
H1001 H 0.04392 0.31088 0.65177 0.0
H1002 H 0.04084 0.24711 0.64148 0.0
H1003 H 0.94595 0.2928 0.66502 0.0
H1004 H 0.95042 0.30574 0.70363 0.0
H1005 H 0.09685 0.22675 0.68172 0.0
H1006 H 0.06752 0.12321 0.68957 0.0
C1007 C 0.2939 0.0889 0.66672 0.0
C1008 C 0.3042 0.12224 0.66508 0.0
C1009 C 0.31649 0.12907 0.67527 0.0
C1010 C 0.3125 0.10046 0.68279 0.0
N1011 N 0.29839 0.07594 0.67795 0.0
Co1012 Co 0.28497 0.03416 0.68653 0.0
N1013 N 0.29193 0.0555 0.70254 0.0
C1014 C 0.30679 0.0821 0.70472 0.0
C1015 C 0.30762 0.09205 0.71664 0.0
C1016 C 0.29254 0.07002 0.72237 0.0
C1017 C 0.28348 0.0475 0.71358 0.0
N1018 N 0.27202 0.99221 0.69516 0.0
C1019 C 0.26635 0.98832 0.70698 0.0
C1020 C 0.25897 0.95358 0.70931 0.0
C1021 C 0.26028 0.9352 0.69855 0.0
C1022 C 0.26841 0.95963 0.69026 0.0
N1023 N 0.27772 0.01404 0.67042 0.0
C1024 C 0.27322 0.97931 0.66808 0.0
C1025 C 0.26865 0.97349 0.65604 0.0
C1026 C 0.27041 0.00665 0.65054 0.0
C1027 C 0.27587 0.03105 0.65955 0.0
N1028 N 0.31458 0.00844 0.68654 0.0
C1029 C 0.34939 0.95538 0.6867 0.0
C1030 C 0.34261 0.97264 0.6759 0.0
C1031 C 0.32552 0.99936 0.67604 0.0
C1032 C 0.33966 0.96826 0.69745 0.0
C1033 C 0.32235 0.99391 0.69717 0.0
N1034 N 0.25492 0.05755 0.68667 0.0
C1035 C 0.21437 0.05067 0.68507 0.0
C1036 C 0.21088 0.08649 0.68831 0.0
C1037 C 0.23001 0.10799 0.69045 0.0
C1038 C 0.25189 0.09293 0.68969 0.0
C1039 C 0.23629 0.03697 0.68416 0.0
H1040 H 0.26631 0.10967 0.69171 0.0
H1041 H 0.23805 0.00926 0.6816 0.0
H1042 H 0.32036 0.01116 0.66754 0.0
H1043 H 0.31442 1.00017 0.70565 0.0
C1044 C 0.31649 0.10114 0.6952 0.0
C1045 C 0.28081 0.06953 0.65741 0.0
C1046 C 0.26935 0.01613 0.71629 0.0
C1047 C 0.26976 0.95485 0.67765 0.0
H1048 H 0.3026 0.14074 0.65759 0.0
H1049 H 0.32554 0.15358 0.67736 0.0
H1050 H 0.31738 0.1136 0.72062 0.0
H1051 H 0.28899 0.07015 0.73197 0.0
H1052 H 0.25345 0.94264 0.7179 0.0
H1053 H 0.25532 0.90763 0.69692 0.0
H1054 H 0.26376 0.94844 0.65182 0.0
H1055 H 0.26803 0.01221 0.64101 0.0
H1056 H 0.34962 0.96458 0.66729 0.0
H1057 H 0.34475 0.95778 0.70618 0.0
H1058 H 0.20013 0.03318 0.68325 0.0
H1059 H 0.22806 0.13591 0.69299 0.0
C1060 C 1.0202 0.98162 0.40952 0.0
C1061 C 1.01063 0.0047 0.40105 0.0
C1062 C 1.0095 0.03807 0.40638 0.0
C1063 C 1.01806 0.03372 0.41785 0.0
N1064 N 0.02449 0.99966 0.42001 0.0
Co1065 Co 0.03359 0.97962 0.43599 0.0
N1066 N 1.0204 0.02041 0.44505 0.0
C1067 C 1.01512 0.05261 0.4402 0.0
C1068 C 1.00709 0.0764 0.44864 0.0
C1069 C 1.00782 0.05823 0.45948 0.0
C1070 C 1.01641 0.02425 0.45709 0.0
N1071 N 0.04238 0.95787 0.45175 0.0
C1072 C 0.03577 0.96588 0.46318 0.0
C1073 C 0.04719 0.94445 0.47154 0.0
C1074 C 0.06166 0.92311 0.46516 0.0
C1075 C 0.05837 0.93242 0.45329 0.0
N1076 N 0.04759 0.93974 0.427 0.0
C1077 C 0.06451 0.91876 0.43099 0.0
C1078 C 0.07257 0.8959 0.42229 0.0
C1079 C 0.05978 0.90294 0.4122 0.0
C1080 C 0.04438 0.92938 0.41544 0.0
N1081 N 0.06252 0.00679 0.4354 0.0
C1082 C 0.09827 0.05774 0.43471 0.0
C1083 C 0.08858 0.04645 0.44567 0.0
C1084 C 0.07085 0.02163 0.44581 0.0
C1085 C 0.09068 0.04055 0.42412 0.0
C1086 C 0.07298 0.01501 0.42467 0.0
N1087 N 1.00414 0.95446 0.43657 0.0
C1088 C 0.98026 0.90183 0.43877 0.0
C1089 C 0.96089 0.92221 0.43589 0.0
C1090 C 0.96377 0.95891 0.43374 0.0
C1091 C 0.98518 0.9743 0.43416 0.0
C1092 C 1.00181 0.91848 0.43899 0.0
H1093 H 0.98621 1.00254 0.43227 0.0
H1094 H 1.01656 0.90236 0.44096 0.0
H1095 H 0.06328 0.01594 0.45443 0.0
H1096 H 0.06714 1.00312 0.41633 0.0
C1097 C 1.01485 0.0575 0.42757 0.0
C1098 C 0.02653 0.94343 0.40751 0.0
C1099 C 1.0224 0.99771 0.46656 0.0
C1100 C 0.06901 0.91647 0.44337 0.0
H1101 H 1.00439 0.99849 0.39214 0.0
H1102 H 1.00167 0.06194 0.40263 0.0
H1103 H 1.00093 0.10341 0.44708 0.0
H1104 H 1.00291 0.06899 0.46817 0.0
H1105 H 0.04623 0.94535 0.4813 0.0
H1106 H 0.07336 0.90343 0.46876 0.0
H1107 H 0.08536 0.87532 0.4233 0.0
H1108 H 0.06125 0.88958 0.40355 0.0
H1109 H 0.0942 0.05745 0.45422 0.0
H1110 H 0.09762 0.04779 0.41538 0.0
H1111 H 0.97885 0.87325 0.4405 0.0
H1112 H 0.94942 0.97593 0.43165 0.0
C1113 C 0.78208 0.77675 0.40849 0.0
C1114 C 0.7941 0.75335 0.40114 0.0
C1115 C 0.79487 0.7208 0.40705 0.0
C1116 C 0.78386 0.72601 0.41783 0.0
N1117 N 0.77638 0.75993 0.41906 0.0
Co1118 Co 0.76372 0.78087 0.43413 0.0
N1119 N 0.77499 0.74086 0.44444 0.0
C1120 C 0.78149 0.70843 0.44034 0.0
C1121 C 0.78805 0.68563 0.44949 0.0
C1122 C 0.78515 0.70475 0.45998 0.0
C1123 C 0.77685 0.73829 0.45667 0.0
N1124 N 0.75134 0.80306 0.44905 0.0
C1125 C 0.75574 0.79614 0.46088 0.0
C1126 C 0.74238 0.81747 0.46831 0.0
C1127 C 0.72898 0.83783 0.46089 0.0
C1128 C 0.73484 0.82798 0.44938 0.0
N1129 N 0.75163 0.82022 0.42391 0.0
C1130 C 0.73387 0.84107 0.42676 0.0
C1131 C 0.72692 0.86268 0.4174 0.0
C1132 C 0.74125 0.85497 0.40806 0.0
C1133 C 0.75653 0.8295 0.41235 0.0
N1134 N 0.73529 0.75338 0.43182 0.0
C1135 C 0.69895 0.7046 0.4285 0.0
C1136 C 0.70695 0.71323 0.44009 0.0
C1137 C 0.72497 0.73736 0.44154 0.0
C1138 C 0.70906 0.72234 0.41862 0.0
C1139 C 0.72695 0.74674 0.42047 0.0
N1140 N 0.79267 0.80658 0.43642 0.0
C1141 C 0.81527 0.86012 0.43949 0.0
C1142 C 0.83525 0.83961 0.43936 0.0
C1143 C 0.83337 0.80264 0.43764 0.0
C1144 C 0.81222 0.78689 0.43607 0.0
C1145 C 0.79406 0.84299 0.43812 0.0
H1146 H 0.81191 0.75847 0.43451 0.0
H1147 H 0.77886 0.85902 0.43841 0.0
H1148 H 0.73108 0.74183 0.45059 0.0
H1149 H 0.73449 0.75939 0.41265 0.0
C1150 C 0.78492 0.70293 0.42791 0.0
C1151 C 0.77491 0.81387 0.40511 0.0
C1152 C 0.76943 0.76594 0.46538 0.0
C1153 C 0.72655 0.84344 0.43873 0.0
H1154 H 0.80221 0.75899 0.3926 0.0
H1155 H 0.80388 0.69699 0.4042 0.0
H1156 H 0.79491 0.65879 0.44863 0.0
H1157 H 0.78864 0.69501 0.46903 0.0
H1158 H 0.74161 0.81731 0.47809 0.0
H1159 H 0.71647 0.85745 0.46357 0.0
H1160 H 0.71348 0.88239 0.41745 0.0
H1161 H 0.74041 0.86675 0.39911 0.0
H1162 H 0.69998 0.70025 0.44804 0.0
H1163 H 0.70333 0.7172 0.40948 0.0
H1164 H 0.81602 0.88893 0.4408 0.0
H1165 H 0.84832 0.78586 0.43738 0.0
C1166 C 1.0197 0.78485 0.34639 0.0
C1167 C 1.00895 0.76265 0.3547 0.0
C1168 C 1.00766 0.72908 0.34953 0.0
C1169 C 1.0173 0.73248 0.33828 0.0
N1170 N 0.02453 0.76613 0.33611 0.0
Co1171 Co 0.03544 0.78485 0.3203 0.0
N1172 N 1.02249 0.74403 0.31113 0.0
C1173 C 1.01627 0.7123 0.316 0.0
C1174 C 1.00838 0.68858 0.30749 0.0
C1175 C 1.01014 0.70633 0.29661 0.0
C1176 C 1.01915 0.74001 0.29905 0.0
N1177 N 0.04609 0.80518 0.30469 0.0
C1178 C 0.04021 0.79697 0.29316 0.0
C1179 C 0.05287 0.8171 0.28497 0.0
C1180 C 0.06733 0.83791 0.29159 0.0
C1181 C 0.06279 0.82954 0.30342 0.0
N1182 N 0.04918 0.82481 0.3294 0.0
C1183 C 0.06686 0.84473 0.32575 0.0
C1184 C 0.07458 0.86771 0.33452 0.0
C1185 C 0.06078 0.86184 0.34428 0.0
C1186 C 0.04517 0.83594 0.3408 0.0
N1187 N 0.06389 0.75692 0.32191 0.0
C1188 C 0.10207 0.71125 0.32376 0.0
C1189 C 0.0918 0.71844 0.31259 0.0
C1190 C 0.07288 0.74084 0.31187 0.0
C1191 C 0.09283 0.72777 0.33405 0.0
C1192 C 0.07394 0.7508 0.33292 0.0
N1193 N 1.00652 0.81103 0.31864 0.0
C1194 C 0.98407 0.86432 0.3148 0.0
C1195 C 0.96398 0.84433 0.31593 0.0
C1196 C 0.96574 0.80782 0.31865 0.0
C1197 C 0.9869 0.79196 0.32009 0.0
C1198 C 1.00524 0.84704 0.31608 0.0
H1199 H 0.98717 0.76391 0.32236 0.0
H1200 H 1.02052 0.86258 0.31494 0.0
H1201 H 0.06531 0.74438 0.30311 0.0
H1202 H 0.0673 0.76329 0.34097 0.0
C1203 C 1.01466 0.70822 0.32864 0.0
C1204 C 0.02658 0.82283 0.3484 0.0
C1205 C 0.026 0.76622 0.28964 0.0
C1206 C 0.07272 0.84576 0.31352 0.0
H1207 H 1.00205 0.76961 0.3634 0.0
H1208 H 0.9991 0.70575 0.3532 0.0
H1209 H 1.0015 0.66199 0.30903 0.0
H1210 H 1.00553 0.69554 0.28786 0.0
H1211 H 0.0526 0.81573 0.27519 0.0
H1212 H 0.07974 0.85674 0.28818 0.0
H1213 H 0.08791 0.88749 0.33374 0.0
H1214 H 0.06184 0.8755 0.3529 0.0
H1215 H 0.09809 0.70616 0.30438 0.0
H1216 H 0.10029 0.72332 0.34288 0.0
H1217 H 0.98342 0.89277 0.31271 0.0
H1218 H 0.95072 0.79147 0.31973 0.0
C1219 C 0.78173 0.98976 0.34673 0.0
C1220 C 0.79252 0.01365 0.35446 0.0
C1221 C 0.79294 0.04643 0.3487 0.0
C1222 C 0.78301 0.04091 0.33763 0.0
N1223 N 0.77652 0.00657 0.33608 0.0
Co1224 Co 0.76585 0.98532 0.32059 0.0
N1225 N 0.77707 0.0264 0.31074 0.0
C1226 C 0.78244 0.05902 0.31514 0.0
C1227 C 0.78915 0.08267 0.30628 0.0
C1228 C 0.7875 0.06395 0.29564 0.0
C1229 C 0.77972 0.02979 0.29857 0.0
N1230 N 0.75543 0.96286 0.30526 0.0
C1231 C 0.76041 0.97081 0.29357 0.0
C1232 C 0.74825 0.94885 0.28574 0.0
C1233 C 0.73501 0.92706 0.29275 0.0
C1234 C 0.73974 0.93672 0.30442 0.0
N1235 N 0.75388 0.94485 0.33036 0.0
C1236 C 0.73705 0.92279 0.32694 0.0
C1237 C 0.72995 0.90027 0.33601 0.0
C1238 C 0.74318 0.90864 0.34576 0.0
C1239 C 0.75804 0.93543 0.34199 0.0
N1240 N 0.73658 0.01093 0.32219 0.0
C1241 C 0.69933 0.05824 0.32475 0.0
C1242 C 0.70832 0.05016 0.31334 0.0
C1243 C 0.72679 0.02675 0.31226 0.0
C1244 C 0.70883 0.04052 0.33481 0.0
C1245 C 0.72717 0.01682 0.33333 0.0
N1246 N 0.7956 0.96149 0.31909 0.0
C1247 C 0.81992 0.90932 0.31727 0.0
C1248 C 0.83927 0.93063 0.31925 0.0
C1249 C 0.83612 0.9676 0.32064 0.0
C1250 C 0.8145 0.98227 0.32052 0.0
C1251 C 0.79818 0.9253 0.31727 0.0
H1252 H 0.81327 0.01069 0.32194 0.0
H1253 H 0.78349 0.90844 0.31605 0.0
H1254 H 0.73369 0.0228 0.30337 0.0
H1255 H 0.73424 0.00422 0.34129 0.0
C1256 C 0.78449 0.06432 0.32767 0.0
C1257 C 0.77528 0.95208 0.34979 0.0
C1258 C 0.77335 1.00242 0.28952 0.0
C1259 C 0.73097 0.9203 0.31478 0.0
H1260 H 0.80008 0.00822 0.36316 0.0
H1261 H 0.80112 0.07068 0.35186 0.0
H1262 H 0.79521 0.1099 0.30744 0.0
H1263 H 0.79137 0.0744 0.28673 0.0
H1264 H 0.74807 0.94953 0.27595 0.0
H1265 H 0.72326 0.90673 0.28968 0.0
H1266 H 0.71715 0.87954 0.33551 0.0
H1267 H 0.74191 0.8964 0.35463 0.0
H1268 H 0.7018 0.06311 0.30527 0.0
H1269 H 0.7023 0.04522 0.34382 0.0
H1270 H 0.82149 0.88054 0.31612 0.0
H1271 H 0.85041 0.98537 0.32196 0.0
C1272 C 1.00501 0.58997 0.08622 0.0
C1273 C 0.99448 0.62324 0.08733 0.0
C1274 C 0.98182 0.62826 0.07713 0.0
C1275 C 0.98575 0.59853 0.07017 0.0
N1276 N 1.00023 0.57509 0.07531 0.0
Co1277 Co 1.0132 0.5317 0.06747 0.0
N1278 N 1.00406 0.5487 0.05108 0.0
C1279 C 0.98845 0.57414 0.04875 0.0
C1280 C 0.98455 0.57943 0.03667 0.0
C1281 C 0.99837 0.55553 0.03096 0.0
C1282 C 1.01009 0.53695 0.03995 0.0
N1283 N 0.02618 0.4884 0.05961 0.0
C1284 C 0.03043 0.48157 0.04774 0.0
C1285 C 0.03919 0.44724 0.04633 0.0
C1286 C 0.03986 0.43185 0.05763 0.0
C1287 C 0.03165 0.45759 0.06533 0.0
N1288 N 1.02201 0.51517 0.08393 0.0
C1289 C 0.02725 0.48116 0.08702 0.0
C1290 C 0.03227 0.4775 0.0991 0.0
C1291 C 0.02997 0.51132 0.10389 0.0
C1292 C 0.02381 0.53392 0.09443 0.0
N1293 N 0.98401 0.50577 0.06911 0.0
C1294 C 0.94662 0.45867 0.0723 0.0
C1295 C 0.95752 0.46223 0.06107 0.0
C1296 C 0.97598 0.48557 0.05969 0.0
C1297 C 0.95434 0.48096 0.08174 0.0
C1298 C 0.9728 0.50437 0.07994 0.0
N1299 N 0.04273 0.5562 0.06589 0.0
C1300 C 0.0831 0.5556 0.06937 0.0
C1301 C 0.08567 0.59013 0.06435 0.0
C1302 C 0.06585 0.60701 0.06002 0.0
C1303 C 0.04467 0.58987 0.06099 0.0
C1304 C 0.06184 0.53914 0.06987 0.0
H1305 H 0.02988 0.60387 0.05776 0.0
H1306 H 0.06095 0.51248 0.07365 0.0
H1307 H 0.98415 0.48624 0.05101 0.0
H1308 H 0.97849 0.52043 0.08747 0.0
C1309 C 0.98019 0.59583 0.05797 0.0
C1310 C 1.01824 0.57235 0.09589 0.0
C1311 C 0.02442 0.50552 0.03755 0.0
C1312 C 0.03109 0.45538 0.07801 0.0
H1313 H 0.99595 0.64249 0.09458 0.0
H1314 H 0.97216 0.65193 0.07472 0.0
H1315 H 0.97332 0.59879 0.03249 0.0
H1316 H 0.9991 0.55167 0.02128 0.0
H1317 H 0.04417 0.43438 0.03798 0.0
H1318 H 0.04596 0.40528 0.05996 0.0
H1319 H 0.03778 0.45345 0.10378 0.0
H1320 H 0.03247 0.51846 0.11328 0.0
H1321 H 0.95202 0.44688 0.05331 0.0
H1322 H 0.94672 0.47965 0.09062 0.0
H1323 H 0.09731 0.54116 0.07315 0.0
H1324 H 0.06649 0.63326 0.0558 0.0
C1325 C 0.29659 0.66288 0.08853 0.0
C1326 C 0.30757 0.6302 0.09031 0.0
C1327 C 0.32086 0.62461 0.0804 0.0
C1328 C 0.31682 0.65336 0.07294 0.0
N1329 N 0.30171 0.6767 0.07751 0.0
Co1330 Co 0.28824 0.71838 0.06887 0.0
N1331 N 0.29771 0.69919 0.05291 0.0
C1332 C 0.31387 0.6743 0.0511 0.0
C1333 C 0.31781 0.66726 0.03914 0.0
C1334 C 0.30345 0.68942 0.03297 0.0
C1335 C 0.29137 0.70881 0.04158 0.0
N1336 N 0.27481 0.76004 0.06023 0.0
C1337 C 0.27039 0.76477 0.04827 0.0
C1338 C 0.2612 0.79856 0.04617 0.0
C1339 C 0.26045 0.81574 0.05713 0.0
C1340 C 0.26904 0.79153 0.06534 0.0
N1341 N 0.27906 0.73694 0.08494 0.0
C1342 C 0.27349 0.77117 0.08743 0.0
C1343 C 0.26799 0.77604 0.09939 0.0
C1344 C 0.27028 0.74277 0.10471 0.0
C1345 C 0.27694 0.7193 0.09565 0.0
N1346 N 0.3171 0.74545 0.07007 0.0
C1347 C 0.35477 0.79225 0.07175 0.0
C1348 C 0.34669 0.77362 0.08196 0.0
C1349 C 0.32811 0.74996 0.08089 0.0
C1350 C 0.34384 0.78617 0.0607 0.0
C1351 C 0.32515 0.76318 0.06007 0.0
N1352 N 0.25903 0.69279 0.06762 0.0
C1353 C 0.21849 0.69314 0.07044 0.0
C1354 C 0.21633 0.65826 0.06572 0.0
C1355 C 0.23647 0.64119 0.062 0.0
C1356 C 0.25751 0.65864 0.06314 0.0
C1357 C 0.23965 0.70987 0.07113 0.0
H1358 H 0.27254 0.64457 0.06033 0.0
H1359 H 0.24021 0.73688 0.07457 0.0
H1360 H 0.32235 0.73593 0.08888 0.0
H1361 H 0.31689 0.76072 0.05145 0.0
C1362 C 0.32257 0.65452 0.06074 0.0
C1363 C 0.28249 0.68108 0.09765 0.0
C1364 C 0.27662 0.73934 0.03861 0.0
C1365 C 0.2695 0.79564 0.07797 0.0
H1366 H 0.30598 0.61159 0.09779 0.0
H1367 H 0.33092 0.60101 0.07848 0.0
H1368 H 0.32943 0.64788 0.03535 0.0
H1369 H 0.30263 0.69169 0.02323 0.0
H1370 H 0.25598 0.80988 0.03757 0.0
H1371 H 0.25401 0.84242 0.05892 0.0
H1372 H 0.26205 0.80044 0.10364 0.0
H1373 H 0.26736 0.73652 0.11415 0.0
H1374 H 0.35479 0.77704 0.09067 0.0
H1375 H 0.34933 0.79992 0.05256 0.0
H1376 H 0.204 0.70772 0.07378 0.0
H1377 H 0.23617 0.61461 0.05807 0.0
C1378 C 1.00118 0.66299 0.16843 0.0
C1379 C 0.98937 0.631 0.16688 0.0
C1380 C 0.97715 0.62547 0.17719 0.0
C1381 C 0.9824 0.65387 0.18453 0.0
N1382 N 0.99731 0.67692 0.17956 0.0
Co1383 Co 1.01065 0.71979 0.18756 0.0
N1384 N 1.00109 0.70256 0.20386 0.0
C1385 C 0.98526 0.67732 0.20605 0.0
C1386 C 0.98122 0.67175 0.2181 0.0
C1387 C 0.99517 0.6952 0.22394 0.0
C1388 C 1.00712 0.71381 0.21506 0.0
N1389 N 0.02393 0.76257 0.19563 0.0
C1390 C 0.02805 0.76895 0.20755 0.0
C1391 C 0.03726 0.80294 0.20913 0.0
C1392 C 0.03839 0.81857 0.19788 0.0
C1393 C 0.03 0.79331 0.19004 0.0
N1394 N 1.01992 0.73654 0.17117 0.0
C1395 C 0.02597 0.77036 0.16826 0.0
C1396 C 0.03112 0.77431 0.15621 0.0
C1397 C 0.02797 0.74094 0.15121 0.0
C1398 C 1.02111 0.71834 0.16052 0.0
N1399 N 0.98175 0.74651 0.18581 0.0
C1400 C 0.94536 0.79521 0.18252 0.0
C1401 C 0.95314 0.77358 0.17298 0.0
C1402 C 0.97102 0.74912 0.17485 0.0
C1403 C 0.95555 0.79039 0.19387 0.0
C1404 C 0.97361 0.76629 0.1953 0.0
N1405 N 0.03992 0.69455 0.18928 0.0
C1406 C 0.08046 0.69483 0.18642 0.0
C1407 C 0.08267 0.66032 0.1915 0.0
C1408 C 0.06257 0.64349 0.19546 0.0
C1409 C 0.0415 0.6608 0.19416 0.0
C1410 C 0.05928 0.71141 0.18557 0.0
H1411 H 0.0265 0.64692 0.19716 0.0
H1412 H 0.0587 0.73809 0.1818 0.0
H1413 H 0.97666 0.73327 0.16728 0.0
H1414 H 0.98154 0.76495 0.20406 0.0
C1415 C 0.97681 0.65618 0.19672 0.0
C1416 C 1.01407 0.68073 0.15873 0.0
C1417 C 1.02171 0.74482 0.21762 0.0
C1418 C 0.02993 0.79575 0.17737 0.0
H1419 H 0.98941 0.61348 0.15908 0.0
H1420 H 0.9665 0.60261 0.17928 0.0
H1421 H 0.96977 0.65251 0.22217 0.0
H1422 H 0.99586 0.69875 0.23364 0.0
H1423 H 0.0423 0.81537 0.21755 0.0
H1424 H 0.04498 0.84493 0.19567 0.0
H1425 H 0.03715 0.79828 0.15166 0.0
H1426 H 0.03028 0.73405 0.14179 0.0
H1427 H 0.9456 0.77576 0.16407 0.0
H1428 H 0.95031 0.80639 0.20154 0.0
H1429 H 0.09492 0.70919 0.1829 0.0
H1430 H 0.06293 0.61719 0.19965 0.0
C1431 C 0.29525 0.59154 0.17054 0.0
C1432 C 0.30677 0.6239 0.16915 0.0
C1433 C 0.31883 0.6292 0.17953 0.0
C1434 C 0.31375 0.60032 0.18675 0.0
N1435 N 0.29907 0.57722 0.18164 0.0
Co1436 Co 0.28573 0.53397 0.18944 0.0
N1437 N 0.29476 0.5509 0.20579 0.0
C1438 C 0.31063 0.5759 0.20816 0.0
C1439 C 0.31441 0.58096 0.22025 0.0
C1440 C 0.30021 0.55745 0.22592 0.0
C1441 C 0.28836 0.53936 0.2169 0.0
N1442 N 0.27237 0.49086 0.19733 0.0
C1443 C 0.26761 0.48446 0.20917 0.0
C1444 C 0.25843 0.4504 0.21068 0.0
C1445 C 0.25796 0.43477 0.19944 0.0
C1446 C 0.2667 0.46012 0.19169 0.0
N1447 N 0.27712 0.5174 0.17297 0.0
C1448 C 0.27144 0.48354 0.16998 0.0
C1449 C 0.26677 0.4798 0.15787 0.0
C1450 C 0.26986 0.51337 0.15293 0.0
C1451 C 0.2762 0.53584 0.16233 0.0
N1452 N 0.31481 0.50777 0.18798 0.0
C1453 C 0.3523 0.46089 0.18504 0.0
C1454 C 0.34108 0.46406 0.19619 0.0
C1455 C 0.32256 0.4873 0.19744 0.0
C1456 C 0.34479 0.48338 0.17556 0.0
C1457 C 0.32629 0.50667 0.17724 0.0
N1458 N 0.25629 0.5588 0.19084 0.0
C1459 C 0.21589 0.55835 0.18744 0.0
C1460 C 0.21338 0.59272 0.19249 0.0
C1461 C 0.23325 0.60953 0.19676 0.0
C1462 C 0.25441 0.59238 0.19574 0.0
C1463 C 0.23714 0.5419 0.18687 0.0
H1464 H 0.26925 0.60627 0.19896 0.0
H1465 H 0.23796 0.51533 0.18309 0.0
H1466 H 0.31414 0.48776 0.20607 0.0
H1467 H 0.32082 0.52292 0.16968 0.0
C1468 C 0.31923 0.59751 0.19896 0.0
C1469 C 0.28298 0.57363 0.16068 0.0
C1470 C 0.27332 0.50873 0.21924 0.0
C1471 C 0.26728 0.45786 0.17903 0.0
H1472 H 0.30671 0.64174 0.16139 0.0
H1473 H 0.32927 0.65217 0.18174 0.0
H1474 H 0.3258 0.59997 0.22445 0.0
H1475 H 0.29926 0.55358 0.23561 0.0
H1476 H 0.25295 0.43794 0.21903 0.0
H1477 H 0.25152 0.4084 0.19718 0.0
H1478 H 0.26108 0.45585 0.15324 0.0
H1479 H 0.26784 0.52047 0.14348 0.0
H1480 H 0.3464 0.44851 0.20398 0.0
H1481 H 0.35262 0.48233 0.16673 0.0
H1482 H 0.20162 0.54401 0.1837 0.0
H1483 H 0.23265 0.63571 0.20097 0.0
C1484 C 1.01824 0.47973 0.90811 0.0
C1485 C 1.00671 0.50346 0.90059 0.0
C1486 C 1.00484 0.53534 0.90675 0.0
C1487 C 1.01477 0.52941 0.91781 0.0
N1488 N 1.02269 0.49569 0.91896 0.0
Co1489 Co 0.03398 0.47347 0.93421 0.0
N1490 N 1.02083 0.5117 0.94452 0.0
C1491 C 1.014 0.54418 0.94053 0.0
C1492 C 1.00623 0.56579 0.94966 0.0
C1493 C 1.00872 0.5459 0.96006 0.0
C1494 C 1.01802 0.51314 0.95671 0.0
N1495 N 0.045 0.44975 0.94926 0.0
C1496 C 0.03946 0.45536 0.96101 0.0
C1497 C 0.05213 0.43322 0.9686 0.0
C1498 C 0.06634 0.41386 0.96137 0.0
C1499 C 0.06161 0.42502 0.94983 0.0
N1500 N 0.04787 0.43597 0.92396 0.0
C1501 C 0.0655 0.41519 0.92714 0.0
C1502 C 0.07334 0.39438 0.91783 0.0
C1503 C 0.05969 0.4025 0.90819 0.0
C1504 C 0.04396 0.42744 0.91226 0.0
N1505 N 0.06222 0.50247 0.93329 0.0
C1506 C 0.09964 0.55024 0.93258 0.0
C1507 C 0.08995 0.5394 0.94355 0.0
C1508 C 0.07138 0.51608 0.94371 0.0
C1509 C 0.09028 0.53616 0.92189 0.0
C1510 C 0.07182 0.512 0.92245 0.0
N1511 N 1.00532 0.44617 0.93523 0.0
C1512 C 0.98374 0.39126 0.93762 0.0
C1513 C 0.96307 0.41021 0.93685 0.0
C1514 C 0.96444 0.44754 0.93524 0.0
C1515 C 0.98538 0.46464 0.93433 0.0
C1516 C 1.00459 0.4097 0.93686 0.0
H1517 H 0.98522 0.49321 0.93295 0.0
H1518 H 1.0201 0.39455 0.93757 0.0
H1519 H 0.0642 0.50988 0.95239 0.0
H1520 H 0.06512 0.50148 0.91408 0.0
C1521 C 1.01198 0.55108 0.92808 0.0
C1522 C 0.0259 0.44297 0.90474 0.0
C1523 C 0.02573 0.48555 0.96544 0.0
C1524 C 0.07134 0.41127 0.9393 0.0
H1525 H 0.99957 0.49841 0.89177 0.0
H1526 H 0.99571 0.55906 0.90385 0.0
H1527 H 0.99904 0.59244 0.94885 0.0
H1528 H 1.00446 0.5547 0.9691 0.0
H1529 H 0.05206 0.43234 0.97838 0.0
H1530 H 0.07875 0.3942 0.96423 0.0
H1531 H 0.08674 0.37462 0.91812 0.0
H1532 H 0.06114 0.39115 0.89922 0.0
H1533 H 0.09639 0.54959 0.95206 0.0
H1534 H 0.09733 0.54338 0.91317 0.0
H1535 H 0.98393 0.36235 0.93873 0.0
H1536 H 0.94941 0.46404 0.93487 0.0
C1537 C 0.7802 0.26968 0.90948 0.0
C1538 C 0.79218 0.24675 0.90195 0.0
C1539 C 0.79425 0.21453 0.90799 0.0
C1540 C 0.78394 0.21948 0.91898 0.0
N1541 N 0.77562 0.2529 0.92021 0.0
Co1542 Co 0.76345 0.27362 0.93543 0.0
N1543 N 0.77656 0.23498 0.9457 0.0
C1544 C 0.78377 0.20291 0.94161 0.0
C1545 C 0.79136 0.18082 0.95073 0.0
C1546 C 0.78836 0.19995 0.96121 0.0
C1547 C 0.77899 0.23279 0.95792 0.0
N1548 N 0.75154 0.29577 0.95048 0.0
C1549 C 0.75673 0.2895 0.96227 0.0
C1550 C 0.74342 0.31051 0.96983 0.0
C1551 C 0.7292 0.32988 0.96255 0.0
C1552 C 0.73456 0.31984 0.95099 0.0
N1553 N 0.74958 0.31155 0.92523 0.0
C1554 C 0.73163 0.33164 0.92833 0.0
C1555 C 0.72397 0.35306 0.91907 0.0
C1556 C 0.73805 0.34607 0.90955 0.0
C1557 C 0.75385 0.32114 0.91363 0.0
N1558 N 0.7356 0.24394 0.93389 0.0
C1559 C 0.70009 0.19287 0.93176 0.0
C1560 C 0.70853 0.2032 0.94309 0.0
C1561 C 0.72618 0.22833 0.94395 0.0
C1562 C 0.70936 0.20992 0.92151 0.0
C1563 C 0.72679 0.23557 0.92277 0.0
N1564 N 0.79179 0.30159 0.93692 0.0
C1565 C 0.81277 0.35738 0.93823 0.0
C1566 C 0.83354 0.33893 0.93734 0.0
C1567 C 0.83267 0.30149 0.93639 0.0
C1568 C 0.81193 0.28361 0.93614 0.0
C1569 C 0.79212 0.33821 0.9381 0.0
H1570 H 0.81241 0.25499 0.935 0.0
H1571 H 0.77646 0.35296 0.93878 0.0
H1572 H 0.73269 0.23399 0.95284 0.0
H1573 H 0.73357 0.24785 0.91469 0.0
C1574 C 0.78644 0.19706 0.92915 0.0
C1575 C 0.77221 0.30641 0.90618 0.0
C1576 C 0.77107 0.25993 0.96669 0.0
C1577 C 0.72518 0.33426 0.94043 0.0
H1578 H 0.79942 0.25255 0.8932 0.0
H1579 H 0.80365 0.1912 0.90504 0.0
H1580 H 0.79881 0.15439 0.94985 0.0
H1581 H 0.79241 0.19065 0.97024 0.0
H1582 H 0.74319 0.31067 0.97962 0.0
H1583 H 0.71644 0.34891 0.96536 0.0
H1584 H 0.71034 0.37244 0.91933 0.0
H1585 H 0.7368 0.3581 0.90065 0.0
H1586 H 0.70219 0.19083 0.9513 0.0
H1587 H 0.70327 0.20338 0.91254 0.0
H1588 H 0.81244 0.38637 0.93904 0.0
H1589 H 0.84799 0.28586 0.93541 0.0
C1590 C 1.01737 0.26907 0.84584 0.0
C1591 C 1.00593 0.24517 0.85332 0.0
C1592 C 1.00369 0.21359 0.84701 0.0
C1593 C 1.01334 0.21988 0.83591 0.0
N1594 N 1.02145 0.25352 0.83488 0.0
Co1595 Co 0.03241 0.27633 0.81967 0.0
N1596 N 1.01869 0.23881 0.80925 0.0
C1597 C 1.01185 0.2062 0.81312 0.0
C1598 C 1.00391 0.18496 0.80391 0.0
C1599 C 1.00632 0.20521 0.79359 0.0
C1600 C 1.01572 0.23781 0.79706 0.0
N1601 N 0.043 0.30078 0.80467 0.0
C1602 C 0.03702 0.29585 0.79293 0.0
C1603 C 0.04938 0.31851 0.78538 0.0
C1604 C 0.06387 0.33744 0.7926 0.0
C1605 C 0.05959 0.32555 0.80411 0.0
N1606 N 0.04691 0.31301 0.83002 0.0
C1607 C 0.06453 0.33377 0.82683 0.0
C1608 C 0.07277 0.35399 0.8362 0.0
C1609 C 0.05939 0.34553 0.8459 0.0
C1610 C 0.0434 0.32101 0.8418 0.0
N1611 N 0.06044 0.24671 0.82017 0.0
C1612 C 0.09497 0.19345 0.82016 0.0
C1613 C 0.08634 0.20801 0.80937 0.0
C1614 C 0.06921 0.23389 0.80956 0.0
C1615 C 0.0869 0.20838 0.83105 0.0
C1616 C 0.06983 0.23507 0.83085 0.0
N1617 N 1.00388 0.30408 0.81907 0.0
C1618 C 0.98248 0.35937 0.81735 0.0
C1619 C 0.96176 0.34057 0.81816 0.0
C1620 C 0.96301 0.30314 0.81943 0.0
C1621 C 0.98389 0.28576 0.81999 0.0
C1622 C 1.00328 0.34067 0.81777 0.0
H1623 H 0.98362 0.25711 0.82113 0.0
H1624 H 1.01883 0.35571 0.81705 0.0
H1625 H 0.06249 0.24218 0.80097 0.0
H1626 H 0.06365 0.24523 0.83936 0.0
C1627 C 1.01014 0.19873 0.82555 0.0
C1628 C 0.02533 0.3056 0.84932 0.0
C1629 C 1.02336 0.26565 0.78842 0.0
C1630 C 0.06984 0.33851 0.81463 0.0
H1631 H 0.99908 0.24991 0.86221 0.0
H1632 H 0.9945 0.18987 0.84985 0.0
H1633 H 0.99673 0.15828 0.80464 0.0
H1634 H 1.00197 0.19674 0.78453 0.0
H1635 H 0.04894 0.31995 0.77561 0.0
H1636 H 0.07618 0.35726 0.78976 0.0
H1637 H 0.08621 0.37371 0.8359 0.0
H1638 H 0.0611 0.35649 0.85491 0.0
H1639 H 0.09236 0.19891 0.80066 0.0
H1640 H 0.09301 0.1986 0.83968 0.0
H1641 H 0.98276 0.38835 0.81649 0.0
H1642 H 0.94791 0.28677 0.81979 0.0
C1643 C 0.77983 0.48283 0.84768 0.0
C1644 C 0.79198 0.50578 0.85514 0.0
C1645 C 0.79408 0.5379 0.84905 0.0
C1646 C 0.78362 0.53287 0.83809 0.0
N1647 N 0.77517 0.4995 0.83693 0.0
Co1648 Co 0.76275 0.47863 0.82178 0.0
N1649 N 0.77601 0.51685 0.81141 0.0
C1650 C 0.78348 0.54889 0.81541 0.0
C1651 C 0.79121 0.57061 0.80624 0.0
C1652 C 0.78804 0.55126 0.79581 0.0
C1653 C 0.77839 0.5187 0.79918 0.0
N1654 N 0.75053 0.45634 0.80681 0.0
C1655 C 0.75561 0.46232 0.795 0.0
C1656 C 0.74203 0.44141 0.78751 0.0
C1657 C 0.72778 0.42241 0.79487 0.0
C1658 C 0.73337 0.43256 0.80639 0.0
N1659 N 0.74879 0.44109 0.83208 0.0
C1660 C 0.73067 0.42121 0.82908 0.0
C1661 C 0.72305 0.4 0.83839 0.0
C1662 C 0.73735 0.40691 0.84785 0.0
C1663 C 0.75321 0.43159 0.84368 0.0
N1664 N 0.73511 0.50875 0.82326 0.0
C1665 C 0.70016 0.5608 0.82527 0.0
C1666 C 0.70856 0.55019 0.81397 0.0
C1667 C 0.72588 0.52453 0.81317 0.0
C1668 C 0.70915 0.54345 0.83555 0.0
C1669 C 0.72634 0.51739 0.83435 0.0
N1670 N 0.79091 0.45028 0.82029 0.0
C1671 C 0.81162 0.39436 0.8186 0.0
C1672 C 0.83248 0.41259 0.81943 0.0
C1673 C 0.83179 0.44998 0.82061 0.0
C1674 C 0.81114 0.46802 0.82106 0.0
C1675 C 0.79105 0.4137 0.81896 0.0
H1676 H 0.81177 0.4966 0.82231 0.0
H1677 H 0.77531 0.39915 0.81829 0.0
H1678 H 0.73233 0.51863 0.8043 0.0
H1679 H 0.73299 0.505 0.84246 0.0
C1680 C 0.78621 0.55502 0.82786 0.0
C1681 C 0.77178 0.44617 0.85104 0.0
C1682 C 0.77008 0.4916 0.79049 0.0
C1683 C 0.72403 0.41848 0.817 0.0
H1684 H 0.79933 0.50003 0.86387 0.0
H1685 H 0.80364 0.56117 0.85193 0.0
H1686 H 0.79887 0.59692 0.80704 0.0
H1687 H 0.79214 0.56028 0.78676 0.0
H1688 H 0.74164 0.44109 0.77773 0.0
H1689 H 0.71483 0.40355 0.79212 0.0
H1690 H 0.70932 0.38078 0.83821 0.0
H1691 H 0.73621 0.395 0.85678 0.0
H1692 H 0.70247 0.56274 0.80573 0.0
H1693 H 0.70308 0.55011 0.8445 0.0
H1694 H 0.81115 0.36541 0.81765 0.0
H1695 H 0.8472 0.46543 0.82157 0.0
H1696 H 0.53203 0.13285 0.10432 0.0
H1697 H 0.52096 0.03823 0.12619 0.0
H1698 H 0.52788 0.07278 0.1444 0.0
H1699 H 0.53145 0.13139 0.15444 0.0
H1700 H 0.52269 0.22665 0.13257 0.0
H1701 H 0.52946 0.19187 0.11438 0.0
C1702 C 0.53139 0.11959 0.11307 0.0
C1703 C 0.52756 0.08201 0.11361 0.0
C1704 C 0.53171 0.14068 0.12368 0.0
C1705 C 0.526 0.06596 0.12515 0.0
C1706 C 0.52916 0.0862 0.13571 0.0
C1707 C 0.53127 0.14477 0.1457 0.0
C1708 C 0.52799 0.18246 0.14517 0.0
C1709 C 0.53143 0.12375 0.1351 0.0
C1710 C 0.52719 0.19872 0.13364 0.0
C1711 C 0.53024 0.17836 0.12308 0.0
H1712 H 0.76991 0.1312 0.15301 0.0
H1713 H 0.7758 0.03373 0.13224 0.0
H1714 H 0.76957 0.06745 0.11367 0.0
H1715 H 0.76741 0.12574 0.1029 0.0
H1716 H 0.78076 0.22173 0.12349 0.0
H1717 H 0.77444 0.18885 0.1422 0.0
C1718 C 0.76963 0.11712 0.14443 0.0
C1719 C 0.77177 0.07916 0.14434 0.0
C1720 C 0.76964 0.13729 0.13356 0.0
C1721 C 0.77208 0.06203 0.13299 0.0
C1722 C 0.76934 0.0817 0.1222 0.0
C1723 C 0.76874 0.13969 0.11148 0.0
C1724 C 0.77291 0.17724 0.11151 0.0
C1725 C 0.76862 0.11948 0.12235 0.0
C1726 C 0.77538 0.19407 0.12284 0.0
C1727 C 0.77257 0.17477 0.13368 0.0
H1728 H 0.50133 0.85019 0.86236 0.0
H1729 H 0.57166 0.82052 0.86225 0.0
H1730 H 0.57787 0.8544 0.88087 0.0
H1731 H 0.56399 0.89601 0.89632 0.0
H1732 H 0.4927 0.91734 0.89903 0.0
H1733 H 0.48624 0.88524 0.87992 0.0
C1734 C 0.51782 0.85039 0.86664 0.0
C1735 C 0.53606 0.83293 0.86094 0.0
C1736 C 0.52118 0.86943 0.87757 0.0
C1737 C 0.55739 0.83354 0.86652 0.0
C1738 C 0.56099 0.85331 0.87708 0.0
C1739 C 0.5469 0.89273 0.89297 0.0
C1740 C 0.52877 0.90823 0.89934 0.0
C1741 C 0.54313 0.87191 0.88255 0.0
C1742 C 0.50694 0.90537 0.8944 0.0
C1743 C 0.50323 0.88671 0.88353 0.0
H1744 H 0.23674 0.91143 0.86199 0.0
H1745 H 0.30863 0.9272 0.8597 0.0
H1746 H 0.31374 0.89396 0.87883 0.0
H1747 H 0.29729 0.85741 0.89578 0.0
H1748 H 0.22624 0.83226 0.89493 0.0
H1749 H 0.2213 0.86996 0.87699 0.0
C1750 C 0.25358 0.90724 0.8656 0.0
C1751 C 0.27233 0.92102 0.85931 0.0
C1752 C 0.2565 0.88541 0.87585 0.0
C1753 C 0.29396 0.91654 0.86433 0.0
C1754 C 0.29687 0.89715 0.87517 0.0
C1755 C 0.28089 0.85975 0.89148 0.0
C1756 C 0.26206 0.84259 0.89672 0.0
C1757 C 0.27828 0.8807 0.88087 0.0
C1758 C 0.24089 0.84544 0.89105 0.0
C1759 C 0.23802 0.86728 0.8809 0.0
H1760 H 0.5444 0.59842 0.60994 0.0
H1761 H 0.4732 0.57469 0.60879 0.0
H1762 H 0.46705 0.6109 0.6269 0.0
H1763 H 0.48145 0.65192 0.64241 0.0
H1764 H 0.55314 0.66776 0.64618 0.0
H1765 H 0.55959 0.63405 0.62738 0.0
C1766 C 0.52767 0.60063 0.61385 0.0
C1767 C 0.50921 0.58416 0.60798 0.0
C1768 C 0.52431 0.62097 0.62452 0.0
C1769 C 0.48761 0.58714 0.61314 0.0
C1770 C 0.48407 0.60815 0.62342 0.0
C1771 C 0.49857 0.64727 0.63931 0.0
C1772 C 0.51683 0.66155 0.64592 0.0
C1773 C 0.50221 0.62563 0.62907 0.0
C1774 C 0.53879 0.65677 0.64136 0.0
C1775 C 0.54247 0.63717 0.63067 0.0
H1776 H 0.81101 0.60437 0.6445 0.0
H1777 H 0.73934 0.58685 0.64747 0.0
H1778 H 0.73327 0.62012 0.62847 0.0
H1779 H 0.74876 0.65542 0.61099 0.0
H1780 H 0.81989 0.67975 0.61026 0.0
H1781 H 0.82568 0.64462 0.62874 0.0
C1782 C 0.79398 0.60851 0.64116 0.0
C1783 C 0.7756 0.59385 0.6476 0.0
C1784 C 0.79053 0.62962 0.63072 0.0
C1785 C 0.75377 0.59813 0.64278 0.0
C1786 C 0.7503 0.61742 0.63196 0.0
C1787 C 0.76538 0.65356 0.61506 0.0
C1788 C 0.78392 0.67 0.60925 0.0
C1789 C 0.76854 0.63372 0.6259 0.0
C1790 C 0.80541 0.66739 0.6146 0.0
C1791 C 0.80875 0.64701 0.62509 0.0
H1792 H 0.51652 0.37528 0.40202 0.0
H1793 H 0.52248 0.47148 0.38036 0.0
H1794 H 0.51514 0.43699 0.36215 0.0
H1795 H 0.51297 0.37837 0.35193 0.0
H1796 H 0.52513 0.28295 0.37323 0.0
H1797 H 0.51919 0.31687 0.39169 0.0
C1798 C 0.51587 0.38888 0.39332 0.0
C1799 C 0.51866 0.42668 0.39284 0.0
C1800 C 0.51507 0.36816 0.38265 0.0
C1801 C 0.51848 0.44332 0.38138 0.0
C1802 C 0.51505 0.42319 0.37081 0.0
C1803 C 0.51398 0.36479 0.36061 0.0
C1804 C 0.51811 0.3273 0.36096 0.0
C1805 C 0.51399 0.38547 0.3713 0.0
C1806 C 0.52006 0.31072 0.37239 0.0
C1807 C 0.51744 0.33059 0.38307 0.0
H1808 H 0.28272 0.4524 0.37424 0.0
H1809 H 0.28886 0.37352 0.34592 0.0
H1810 H 0.29166 0.32578 0.36105 0.0
H1811 H 0.28427 0.30671 0.38219 0.0
H1812 H 0.28825 0.38606 0.41048 0.0
H1813 H 0.29039 0.43383 0.39537 0.0
C1814 C 0.28634 0.42537 0.37125 0.0
C1815 C 0.28534 0.41685 0.35885 0.0
C1816 C 0.28926 0.39797 0.38001 0.0
C1817 C 0.28924 0.3809 0.3554 0.0
C1818 C 0.29072 0.35344 0.36405 0.0
C1819 C 0.28721 0.33398 0.38517 0.0
C1820 C 0.28575 0.34253 0.39756 0.0
C1821 C 0.28966 0.36151 0.37641 0.0
C1822 C 0.28895 0.37865 0.40101 0.0
C1823 C 0.29003 0.40613 0.39236 0.0
H1824 H 0.02502 0.05975 0.62273 0.0
H1825 H 0.02755 0.14178 0.59505 0.0
H1826 H 0.02858 0.18814 0.61058 0.0
H1827 H 1.02239 0.20461 0.63205 0.0
H1828 H 0.0325 0.1233 0.65947 0.0
H1829 H 0.0335 0.07706 0.64389 0.0
C1830 C 0.02748 0.08729 0.6199 0.0
C1831 C 0.02601 0.09672 0.60754 0.0
C1832 C 0.02983 0.11412 0.62889 0.0
C1833 C 0.02818 0.13344 0.60445 0.0
C1834 C 0.02874 0.16016 0.61335 0.0
C1835 C 0.02647 0.17743 0.63474 0.0
C1836 C 0.02717 0.16793 0.64711 0.0
C1837 C 0.02876 0.15087 0.62565 0.0
C1838 C 0.03147 0.13161 0.65007 0.0
C1839 C 0.03199 0.10496 0.64115 0.0
H1840 H 0.24812 0.15064 0.60951 0.0
H1841 H 0.31813 0.1824 0.60988 0.0
H1842 H 0.32503 0.14428 0.62753 0.0
H1843 H 0.31181 0.0993 0.64208 0.0
H1844 H 0.24064 0.07753 0.64518 0.0
H1845 H 0.23359 0.11195 0.62648 0.0
C1846 C 0.26468 0.14988 0.6137 0.0
C1847 C 0.28267 0.16907 0.60836 0.0
C1848 C 0.26841 0.12862 0.62417 0.0
C1849 C 0.30407 0.16794 0.61386 0.0
C1850 C 0.30808 0.14575 0.62384 0.0
C1851 C 0.29464 0.10281 0.63887 0.0
C1852 C 0.2767 0.08678 0.64527 0.0
C1853 C 0.2905 0.12549 0.62892 0.0
C1854 C 0.25474 0.08994 0.64053 0.0
C1855 C 0.25069 0.11003 0.62993 0.0
H1856 H 1.02045 0.81092 0.37328 0.0
H1857 H 1.01497 0.89276 0.34566 0.0
H1858 H 1.01395 0.93907 0.36121 0.0
H1859 H 1.02152 0.95558 0.38255 0.0
H1860 H 1.01363 0.87401 0.41009 0.0
H1861 H 1.0124 0.82777 0.39453 0.0
C1862 C 1.01728 0.83831 0.37049 0.0
C1863 C 1.01803 0.84786 0.35813 0.0
C1864 C 1.01486 0.86499 0.37951 0.0
C1865 C 1.01491 0.88441 0.35507 0.0
C1866 C 1.01438 0.91109 0.36397 0.0
C1867 C 1.01779 0.92834 0.3853 0.0
C1868 C 1.01794 0.91878 0.39767 0.0
C1869 C 1.01523 0.90177 0.37626 0.0
C1870 C 1.01408 0.88236 0.40069 0.0
C1871 C 1.01341 0.85572 0.39178 0.0
H1872 H 0.78452 0.8851 0.40263 0.0
H1873 H 0.77762 0.78867 0.38139 0.0
H1874 H 0.78446 0.82291 0.363 0.0
H1875 H 0.78658 0.88147 0.35251 0.0
H1876 H 0.77497 0.9771 0.37356 0.0
H1877 H 0.78138 0.94336 0.3921 0.0
C1878 C 0.78483 0.8714 0.39399 0.0
C1879 C 0.78191 0.83361 0.39368 0.0
C1880 C 0.78526 0.89198 0.38322 0.0
C1881 C 0.78167 0.81685 0.38227 0.0
C1882 C 0.78483 0.83682 0.3716 0.0
C1883 C 0.78576 0.89512 0.36116 0.0
C1884 C 0.7817 0.93265 0.36139 0.0
C1885 C 0.78598 0.87454 0.37193 0.0
C1886 C 0.77997 0.94928 0.37278 0.0
C1887 C 0.78288 0.92954 0.38352 0.0
H1888 H 0.04759 0.65049 0.14481 0.0
H1889 H 0.97659 0.67597 0.14483 0.0
H1890 H 0.97121 0.64146 0.12628 0.0
H1891 H 0.98614 0.60132 0.1107 0.0
H1892 H 0.05783 0.5834 0.10826 0.0
H1893 H 0.06348 0.61586 0.12739 0.0
C1894 C 0.03108 0.64895 0.14059 0.0
C1895 C 1.01242 0.66529 0.14626 0.0
C1896 C 0.02818 0.62964 0.12968 0.0
C1897 C 0.99113 0.66339 0.14066 0.0
C1898 C 0.98802 0.64342 0.13012 0.0
C1899 C 1.0031 0.60526 0.11417 0.0
C1900 C 1.0216 0.59071 0.10787 0.0
C1901 C 1.00633 0.62598 0.12465 0.0
C1902 C 0.04332 0.59464 0.11286 0.0
C1903 C 0.04655 0.61346 0.12374 0.0
H1904 H 0.25018 0.60301 0.14605 0.0
H1905 H 0.32136 0.57919 0.14765 0.0
H1906 H 0.32782 0.6145 0.12931 0.0
H1907 H 0.31368 0.65465 0.11348 0.0
H1908 H 0.24204 0.66975 0.10911 0.0
H1909 H 0.23524 0.63735 0.12822 0.0
C1910 C 0.26697 0.60508 0.1422 0.0
C1911 C 0.28536 0.5891 0.14826 0.0
C1912 C 0.27049 0.62469 0.13138 0.0
C1913 C 0.30703 0.59156 0.14316 0.0
C1914 C 0.31076 0.61199 0.13275 0.0
C1915 C 0.29651 0.6501 0.11653 0.0
C1916 C 0.27835 0.66368 0.1097 0.0
C1917 C 0.29269 0.62913 0.12691 0.0
C1918 C 0.25629 0.65915 0.11414 0.0
C1919 C 0.25241 0.64034 0.12499 0.0
H1920 H 1.01613 0.3768 0.85196 0.0
H1921 H 0.02401 0.27982 0.87303 0.0
H1922 H 1.01818 0.31361 0.89156 0.0
H1923 H 1.0162 0.37186 0.90211 0.0
H1924 H 0.02477 0.46866 0.88102 0.0
H1925 H 1.01861 0.43497 0.8625 0.0
C1926 C 1.01622 0.36289 0.8606 0.0
C1927 C 1.01911 0.3251 0.86086 0.0
C1928 C 1.01598 0.38319 0.87139 0.0
C1929 C 1.01995 0.30804 0.87225 0.0
C1930 C 1.01734 0.32773 0.88297 0.0
C1931 C 1.01637 0.38575 0.89346 0.0
C1932 C 1.01954 0.4235 0.8932 0.0
C1933 C 1.01593 0.36545 0.88268 0.0
C1934 C 1.02049 0.44052 0.88181 0.0
C1935 C 1.0177 0.42087 0.87108 0.0
H1936 H 0.78163 0.37775 0.90367 0.0
H1937 H 0.7734 0.2816 0.88244 0.0
H1938 H 0.77901 0.31611 0.86395 0.0
H1939 H 0.78095 0.37475 0.85349 0.0
H1940 H 0.77365 0.47096 0.87477 0.0
H1941 H 0.77963 0.43641 0.89323 0.0
C1942 C 0.78145 0.36419 0.89499 0.0
C1943 C 0.77843 0.32642 0.89468 0.0
C1944 C 0.78172 0.38491 0.88424 0.0
C1945 C 0.77745 0.30981 0.88325 0.0
C1946 C 0.77997 0.3299 0.87255 0.0
C1947 C 0.78105 0.38831 0.86217 0.0
C1948 C 0.77819 0.42611 0.8625 0.0
C1949 C 0.78153 0.36759 0.87292 0.0
C1950 C 0.77758 0.44273 0.87393 0.0
C1951 C 0.78031 0.42261 0.88461 0.0
H1952 H 0.36206 0.84986 0.087 0.0
H1953 H 0.39199 0.79191 0.05737 0.0
H1954 H 0.42307 0.83503 0.05657 0.0
H1955 H 0.44145 0.89 0.06381 0.0
H1956 H 0.41084 0.95067 0.0927 0.0
H1957 H 0.3809 0.9057 0.09437 0.0
C1958 C 0.37555 0.84648 0.08048 0.0
C1959 C 0.37461 0.81746 0.07226 0.0
C1960 C 0.39334 0.87205 0.07989 0.0
C1961 C 0.39215 0.8139 0.06376 0.0
C1962 C 0.40997 0.83865 0.0633 0.0
C1963 C 0.42815 0.89387 0.07041 0.0
C1964 C 0.42866 0.92431 0.07805 0.0
C1965 C 0.41063 0.86811 0.0712 0.0
C1966 C 0.41133 0.92768 0.08673 0.0
C1967 C 0.39399 0.90192 0.08766 0.0
H1968 H 0.85935 0.36292 0.08441 0.0
H1969 H 0.88998 0.2948 0.05757 0.0
H1970 H 0.92183 0.33628 0.05581 0.0
H1971 H 0.94074 0.39255 0.06143 0.0
H1972 H 0.90922 0.46335 0.08727 0.0
H1973 H 0.87855 0.42021 0.09 0.0
C1974 C 0.87314 0.35701 0.07829 0.0
C1975 C 0.87221 0.32554 0.07116 0.0
C1976 C 0.89136 0.38163 0.0771 0.0
C1977 C 0.89015 0.31869 0.06315 0.0
C1978 C 0.90841 0.3425 0.06213 0.0
C1979 C 0.9271 0.39904 0.06757 0.0
C1980 C 0.92764 0.43177 0.07407 0.0
C1981 C 0.9091 0.3743 0.06893 0.0
C1982 C 0.90978 0.43853 0.0822 0.0
C1983 C 0.892 0.41382 0.08373 0.0
H1984 H 0.43979 0.36604 0.17309 0.0
H1985 H 0.40903 0.29682 0.19975 0.0
H1986 H 0.37721 0.33826 0.20157 0.0
H1987 H 0.35823 0.39459 0.19595 0.0
H1988 H 0.38995 0.46636 0.17028 0.0
H1989 H 0.42069 0.42347 0.1676 0.0
C1990 C 0.42599 0.35989 0.1792 0.0
C1991 C 0.42689 0.32814 0.18625 0.0
C1992 C 0.40779 0.38443 0.18041 0.0
C1993 C 0.40893 0.32098 0.19424 0.0
C1994 C 0.39067 0.34474 0.19529 0.0
C1995 C 0.37194 0.40136 0.18987 0.0
C1996 C 0.3714 0.43425 0.18337 0.0
C1997 C 0.38999 0.37677 0.18853 0.0
C1998 C 0.38936 0.44138 0.17533 0.0
C1999 C 0.40718 0.41683 0.17383 0.0
H2000 H 0.88205 0.92901 0.16946 0.0
H2001 H 0.84829 0.89194 0.20183 0.0
H2002 H 0.87519 0.84323 0.20385 0.0
H2003 H 0.90893 0.81083 0.1969 0.0
H2004 H 0.94174 0.84426 0.16395 0.0
H2005 H 0.91452 0.89344 0.16161 0.0
C2006 C 0.88038 0.91018 0.1769 0.0
C2007 C 0.86323 0.91548 0.18566 0.0
C2008 C 0.89582 0.88104 0.17793 0.0
C2009 C 0.86161 0.8901 0.19516 0.0
C2010 C 0.87694 0.86166 0.19629 0.0
C2011 C 0.91015 0.82882 0.18918 0.0
C2012 C 0.92756 0.82368 0.18065 0.0
C2013 C 0.89429 0.85701 0.18783 0.0
C2014 C 0.92851 0.84717 0.17063 0.0
C2015 C 0.91297 0.87555 0.16932 0.0
H2016 H 0.66186 0.18295 0.94546 0.0
H2017 H 0.69861 0.13627 0.91578 0.0
H2018 H 0.67151 0.08651 0.91492 0.0
H2019 H 0.63784 0.05449 0.92321 0.0
H2020 H 0.60031 0.10451 0.95213 0.0
H2021 H 0.62719 0.15355 0.95272 0.0
C2022 C 0.664 0.16193 0.93878 0.0
C2023 C 0.68249 0.1636 0.93074 0.0
C2024 C 0.6482 0.13336 0.93828 0.0
C2025 C 0.68456 0.13613 0.92205 0.0
C2026 C 0.66908 0.10741 0.9216 0.0
C2027 C 0.63535 0.07617 0.92959 0.0
C2028 C 0.61707 0.07449 0.93786 0.0
C2029 C 0.65084 0.10548 0.92974 0.0
C2030 C 0.61445 0.10354 0.94594 0.0
C2031 C 0.62979 0.13218 0.94623 0.0
H2032 H 0.18792 0.64295 0.94241 0.0
H2033 H 0.15506 0.71545 0.9174 0.0
H2034 H 0.12459 0.67197 0.91456 0.0
H2035 H 0.10597 0.61377 0.91986 0.0
H2036 H 0.13828 0.54358 0.94573 0.0
H2037 H 0.16976 0.58562 0.9476 0.0
C2038 C 0.17403 0.6497 0.93643 0.0
C2039 C 0.1741 0.68305 0.9302 0.0
C2040 C 0.15621 0.62469 0.93497 0.0
C2041 C 0.15595 0.69018 0.92226 0.0
C2042 C 0.13829 0.66526 0.92067 0.0
C2043 C 0.12004 0.60752 0.92579 0.0
C2044 C 0.11963 0.57531 0.93264 0.0
C2045 C 0.13811 0.63242 0.92703 0.0
C2046 C 0.13798 0.56806 0.94039 0.0
C2047 C 0.15605 0.59219 0.94147 0.0
H2048 H 0.63935 0.70044 0.83417 0.0
H2049 H 0.60326 0.65527 0.80379 0.0
H2050 H 0.62954 0.60542 0.80311 0.0
H2051 H 0.66302 0.57365 0.81087 0.0
H2052 H 0.69844 0.61603 0.8418 0.0
H2053 H 0.67202 0.66659 0.84267 0.0
C2054 C 0.63703 0.67967 0.82744 0.0
C2055 C 0.61931 0.68289 0.81885 0.0
C2056 C 0.65214 0.64993 0.82722 0.0
C2057 C 0.61697 0.65503 0.81027 0.0
C2058 C 0.63195 0.62592 0.80994 0.0
C2059 C 0.66506 0.59394 0.81781 0.0
C2060 C 0.68295 0.5907 0.82623 0.0
C2061 C 0.64971 0.6231 0.81829 0.0
C2062 C 0.68484 0.61726 0.83525 0.0
C2063 C 0.66976 0.64649 0.8357 0.0
H2064 H 0.13063 0.17604 0.83571 0.0
H2065 H 0.09592 0.1382 0.80378 0.0
H2066 H 0.12291 0.08959 0.80175 0.0
H2067 H 0.15697 0.05749 0.80859 0.0
H2068 H 0.19101 0.09237 0.84099 0.0
H2069 H 0.16365 0.14116 0.84335 0.0
C2070 C 0.12877 0.15706 0.82836 0.0
C2071 C 0.11129 0.16203 0.81974 0.0
C2072 C 0.14433 0.12809 0.82731 0.0
C2073 C 0.10946 0.13651 0.81035 0.0
C2074 C 0.12486 0.10817 0.80922 0.0
C2075 C 0.15845 0.07572 0.81618 0.0
C2076 C 0.17625 0.07098 0.82456 0.0
C2077 C 0.14253 0.10382 0.81754 0.0
C2078 C 0.17749 0.09484 0.83443 0.0
C2079 C 0.16186 0.12305 0.83575 0.0
H2080 H 0.40975 0.43749 0.58147 0.0
H2081 H 0.44677 0.39493 0.55101 0.0
H2082 H 0.42047 0.34541 0.54951 0.0
H2083 H 0.38648 0.31327 0.55645 0.0
H2084 H 0.35096 0.35152 0.58786 0.0
H2085 H 0.37721 0.40227 0.58949 0.0
C2086 C 0.4123 0.41736 0.57455 0.0
C2087 C 0.43019 0.42149 0.56612 0.0
C2088 C 0.39728 0.38751 0.5739 0.0
C2089 C 0.43285 0.39427 0.55734 0.0
C2090 C 0.41786 0.36525 0.55653 0.0
C2091 C 0.38449 0.33265 0.56368 0.0
C2092 C 0.36659 0.32839 0.57199 0.0
C2093 C 0.39988 0.36166 0.56466 0.0
C2094 C 0.36459 0.35374 0.58137 0.0
C2095 C 0.37958 0.38301 0.58227 0.0
H2096 H 0.85847 0.86101 0.56138 0.0
H2097 H 0.89109 0.78972 0.58687 0.0
H2098 H 0.92132 0.8336 0.58971 0.0
H2099 H 0.93979 0.8919 0.58434 0.0
H2100 H 0.90777 0.96082 0.558 0.0
H2101 H 0.87651 0.91837 0.55608 0.0
C2102 C 0.87226 0.8546 0.56747 0.0
C2103 C 0.87218 0.82148 0.57383 0.0
C2104 C 0.88994 0.87986 0.56894 0.0
C2105 C 0.89021 0.8148 0.5819 0.0
C2106 C 0.90772 0.83996 0.5835 0.0
C2107 C 0.92581 0.89778 0.57831 0.0
C2108 C 0.92621 0.92978 0.57135 0.0
C2109 C 0.90789 0.87261 0.57703 0.0
C2110 C 0.90803 0.93655 0.56345 0.0
C2111 C 0.8901 0.91217 0.56233 0.0
H2112 H 0.40872 0.81496 0.69738 0.0
H2113 H 0.44236 0.84896 0.66474 0.0
H2114 H 0.41648 0.90011 0.66291 0.0
H2115 H 0.38478 0.93693 0.67102 0.0
H2116 H 0.34977 0.89891 0.7029 0.0
H2117 H 0.3757 0.84892 0.7046 0.0
C2118 C 0.41042 0.83351 0.68985 0.0
C2119 C 0.42769 0.82783 0.68125 0.0
C2120 C 0.39526 0.86285 0.68876 0.0
C2121 C 0.42924 0.85217 0.67147 0.0
C2122 C 0.41445 0.88171 0.67045 0.0
C2123 C 0.38259 0.91769 0.6783 0.0
C2124 C 0.36536 0.92325 0.68702 0.0
C2125 C 0.39741 0.88758 0.67909 0.0
C2126 C 0.36318 0.89716 0.69629 0.0
C2127 C 0.37795 0.86786 0.69722 0.0
H2128 H 0.8569 0.39493 0.6943 0.0
H2129 H 0.88806 0.46567 0.66813 0.0
H2130 H 0.91865 0.4225 0.66536 0.0
H2131 H 0.93791 0.36511 0.67099 0.0
H2132 H 0.90759 0.29697 0.69809 0.0
H2133 H 0.87585 0.33855 0.69992 0.0
C2134 C 0.87044 0.4014 0.68808 0.0
C2135 C 0.8698 0.43415 0.68149 0.0
C2136 C 0.8884 0.3766 0.68667 0.0
C2137 C 0.88755 0.44086 0.67327 0.0
C2138 C 0.9053 0.41611 0.67172 0.0
C2139 C 0.92421 0.3592 0.67718 0.0
C2140 C 0.92522 0.32768 0.68437 0.0
C2141 C 0.90603 0.38389 0.67841 0.0
C2142 C 0.90738 0.32089 0.69247 0.0
C2143 C 0.88917 0.34476 0.69353 0.0
H2144 H 0.63486 0.57071 0.41675 0.0
H2145 H 0.59903 0.61402 0.44744 0.0
H2146 H 0.62622 0.66266 0.44896 0.0
H2147 H 0.66076 0.693 0.44207 0.0
H2148 H 0.69653 0.6518 0.41113 0.0
H2149 H 0.66874 0.60345 0.40911 0.0
C2150 C 0.63284 0.59091 0.42371 0.0
C2151 C 0.61494 0.58769 0.43214 0.0
C2152 C 0.64862 0.61964 0.4245 0.0
C2153 C 0.61285 0.61462 0.44103 0.0
C2154 C 0.62837 0.64288 0.44188 0.0
C2155 C 0.66257 0.67345 0.43488 0.0
C2156 C 0.68096 0.67629 0.42681 0.0
C2157 C 0.64649 0.64551 0.43377 0.0
C2158 C 0.68257 0.6508 0.41743 0.0
C2159 C 0.66669 0.62284 0.41632 0.0
H2160 H 0.13549 0.06906 0.41971 0.0
H2161 H 0.09881 0.11718 0.44929 0.0
H2162 H 0.12643 0.16518 0.45047 0.0
H2163 H 0.16149 0.19391 0.44352 0.0
H2164 H 0.19771 0.14864 0.4134 0.0
H2165 H 0.16975 0.1003 0.41189 0.0
C2166 C 0.13337 0.09015 0.42635 0.0
C2167 C 0.1151 0.08839 0.4346 0.0
C2168 C 0.14932 0.11867 0.42688 0.0
C2169 C 0.11291 0.1165 0.44307 0.0
C2170 C 0.12868 0.14446 0.4437 0.0
C2171 C 0.16333 0.17347 0.43662 0.0
C2172 C 0.18189 0.1751 0.42863 0.0
C2173 C 0.14709 0.14571 0.43576 0.0
C2174 C 0.18361 0.14848 0.41964 0.0
C2175 C 0.16763 0.12059 0.4188 0.0
H2176 H 0.66183 0.06906 0.31049 0.0
H2177 H 0.69555 0.1109 0.34204 0.0
H2178 H 0.66724 0.15856 0.34363 0.0
H2179 H 0.63343 0.19024 0.33556 0.0
H2180 H 0.59919 0.14585 0.30445 0.0
H2181 H 0.62721 0.09847 0.30314 0.0
C2182 C 0.66306 0.0886 0.31772 0.0
C2183 C 0.68102 0.08613 0.32611 0.0
C2184 C 0.64663 0.11609 0.31861 0.0
C2185 C 0.68192 0.11162 0.33551 0.0
C2186 C 0.66575 0.13917 0.33638 0.0
C2187 C 0.6319 0.17011 0.32854 0.0
C2188 C 0.61419 0.17275 0.31995 0.0
C2189 C 0.64805 0.14193 0.32792 0.0
C2190 C 0.61284 0.14589 0.31098 0.0
C2191 C 0.62883 0.11825 0.31027 0.0
H2192 H 0.19074 0.61895 0.31539 0.0
H2193 H 0.16155 0.55459 0.34392 0.0
H2194 H 0.13068 0.59788 0.34592 0.0
H2195 H 0.11053 0.65301 0.33877 0.0
H2196 H 0.13959 0.71512 0.30967 0.0
H2197 H 0.17151 0.6738 0.30865 0.0
C2198 C 0.17758 0.614 0.322 0.0
C2199 C 0.17865 0.58297 0.32941 0.0
C2200 C 0.15962 0.63883 0.32299 0.0
C2201 C 0.16152 0.57809 0.33812 0.0
C2202 C 0.14368 0.60286 0.33922 0.0
C2203 C 0.12401 0.65771 0.33232 0.0
C2204 C 0.1225 0.68727 0.32427 0.0
C2205 C 0.14238 0.63325 0.33164 0.0
C2206 C 0.14011 0.69259 0.31591 0.0
C2207 C 0.15843 0.6689 0.31531 0.0
H2208 H 0.54291 0.04198 0.02343 0.0
H2209 H 0.49727 0.95539 0.03198 0.0
H2210 H 0.49179 0.94332 0.0104 0.0
H2211 H 0.50006 0.95741 0.98898 0.0
H2212 H 0.54609 0.04341 0.98042 0.0
H2213 H 0.55072 0.05668 1.00197 0.0
C2214 C 0.53208 0.02012 0.02052 0.0
C2215 C 0.52098 0.99896 0.02926 0.0
C2216 C 0.52856 0.01398 0.00807 0.0
C2217 C 0.50649 0.97132 0.02541 0.0
C2218 C 0.5031 0.96478 0.01308 0.0
C2219 C 0.51066 0.97956 0.99188 0.0
C2220 C 0.52231 0.99994 0.98314 0.0
C2221 C 0.5139 0.98609 0.00432 0.0
C2222 C 0.5365 0.028 0.98697 0.0
C2223 C 0.53943 0.03518 0.9993 0.0
H2224 H 0.75131 0.21269 0.02093 0.0
H2225 H 0.79587 0.30165 0.02811 0.0
H2226 H 0.79986 0.31292 0.00637 0.0
H2227 H 0.79155 0.29626 0.98512 0.0
H2228 H 0.74788 0.20621 0.97795 0.0
H2229 H 0.7431 0.19593 0.99971 0.0
C2230 C 0.76156 0.23489 0.01769 0.0
C2231 C 0.77283 0.25685 0.02613 0.0
C2232 C 0.76441 0.2404 0.00514 0.0
C2233 C 0.78653 0.285 0.02182 0.0
C2234 C 0.78906 0.29113 0.00938 0.0
C2235 C 0.78128 0.27411 0.98838 0.0
C2236 C 0.77051 0.25148 0.97996 0.0
C2237 C 0.77833 0.26873 1.00093 0.0
C2238 C 0.75679 0.22338 0.98426 0.0
C2239 C 0.75385 0.21777 0.9967 0.0
H2240 H 0.49368 0.25912 0.2334 0.0
H2241 H 0.56488 0.23766 0.23027 0.0
H2242 H 0.5691 0.24203 0.25234 0.0
H2243 H 0.55223 0.25097 0.27259 0.0
H2244 H 0.48102 0.27242 0.27572 0.0
H2245 H 0.4768 0.26802 0.25365 0.0
C2246 C 0.5101 0.25562 0.23761 0.0
C2247 C 0.52899 0.24802 0.2303 0.0
C2248 C 0.51225 0.25756 0.25028 0.0
C2249 C 0.5502 0.24358 0.23576 0.0
C2250 C 0.55254 0.24584 0.24835 0.0
C2251 C 0.5358 0.25445 0.26839 0.0
C2252 C 0.51692 0.26206 0.27569 0.0
C2253 C 0.53365 0.2525 0.25571 0.0
C2254 C 0.4957 0.26648 0.27024 0.0
C2255 C 0.49336 0.26421 0.25764 0.0
H2256 H 0.7528 0.0504 0.2354 0.0
H2257 H 0.79842 0.96304 0.22805 0.0
H2258 H 0.80329 0.95232 0.24977 0.0
H2259 H 0.7949 0.96832 0.27103 0.0
H2260 H 0.74909 0.05541 0.2784 0.0
H2261 H 0.74436 0.06635 0.25667 0.0
C2262 C 0.76353 0.02873 0.23861 0.0
C2263 C 0.77485 0.00702 0.23015 0.0
C2264 C 0.76662 0.02324 0.25115 0.0
C2265 C 0.78911 0.97951 0.23439 0.0
C2266 C 0.7921 0.97366 0.24681 0.0
C2267 C 0.78418 0.99002 0.26783 0.0
C2268 C 0.77281 0.01162 0.2763 0.0
C2269 C 0.7811 0.99553 0.25529 0.0
C2270 C 0.75851 0.03909 0.27206 0.0
C2271 C 0.75558 0.04504 0.25964 0.0
H2272 H 0.29425 0.78995 0.98491 0.0
H2273 H 0.2507 0.69987 0.97756 0.0
H2274 H 0.2468 0.68814 0.99928 0.0
H2275 H 0.25459 0.70525 0.02046 0.0
H2276 H 0.29801 0.79552 0.02778 0.0
H2277 H 0.30238 0.80663 0.00606 0.0
C2278 C 0.28445 0.76719 0.98812 0.0
C2279 C 0.27328 0.74517 0.97971 0.0
C2280 C 0.2815 0.76166 1.00061 0.0
C2281 C 0.26001 0.71642 0.98389 0.0
C2282 C 0.25742 0.71019 0.9963 0.0
C2283 C 0.26455 0.7278 0.01723 0.0
C2284 C 0.27544 0.75018 0.02564 0.0
C2285 C 0.26769 0.73309 0.00474 0.0
C2286 C 0.28891 0.77869 0.02144 0.0
C2287 C 0.29175 0.7846 0.00904 0.0
H2288 H 0.4924 0.7648 0.73328 0.0
H2289 H 0.56174 0.73281 0.72878 0.0
H2290 H 0.56791 0.73764 0.75071 0.0
H2291 H 0.55298 0.74898 0.77128 0.0
H2292 H 0.4834 0.77965 0.77576 0.0
H2293 H 0.47749 0.77609 0.75379 0.0
C2294 C 0.50892 0.75942 0.73714 0.0
C2295 C 0.52667 0.74861 0.7295 0.0
C2296 C 0.51202 0.761 0.74975 0.0
C2297 C 0.54796 0.74144 0.73452 0.0
C2298 C 0.55136 0.74378 0.74704 0.0
C2299 C 0.53648 0.75429 0.7674 0.0
C2300 C 0.51851 0.76408 0.77505 0.0
C2301 C 0.53342 0.7529 0.75477 0.0
C2302 C 0.49729 0.77155 0.77001 0.0
C2303 C 0.49403 0.76992 0.75747 0.0
H2304 H 0.29863 0.98848 0.73256 0.0
H2305 H 0.23091 0.02922 0.72892 0.0
H2306 H 0.22644 0.02858 0.75101 0.0
H2307 H 0.24243 0.01799 0.77139 0.0
H2308 H 0.31022 0.97752 0.775 0.0
H2309 H 0.31459 0.9778 0.75291 0.0
C2310 C 0.28275 0.99635 0.73666 0.0
C2311 C 0.26491 0.0082 0.72924 0.0
C2312 C 0.2807 0.99719 0.74932 0.0
C2313 C 0.2446 0.0193 0.73453 0.0
C2314 C 0.24222 0.01947 0.74713 0.0
C2315 C 0.25828 0.01002 0.76727 0.0
C2316 C 0.27617 0.99835 0.77469 0.0
C2317 C 0.2603 0.0091 0.75461 0.0
C2318 C 0.29647 0.98723 0.76939 0.0
C2319 C 0.2988 0.98688 0.7568 0.0
H2320 H 0.5062 0.4527 0.48366 0.0
H2321 H 0.55406 0.53646 0.47542 0.0
H2322 H 0.56036 0.54678 0.49704 0.0
H2323 H 0.55142 0.53309 0.51838 0.0
H2324 H 0.50222 0.45138 0.52666 0.0
H2325 H 0.49784 0.43812 0.50509 0.0
C2326 C 0.51778 0.47344 0.48666 0.0
C2327 C 0.52925 0.49441 0.47802 0.0
C2328 C 0.52149 0.47892 0.49913 0.0
C2329 C 0.54464 0.52067 0.48195 0.0
C2330 C 0.54843 0.52626 0.4943 0.0
C2331 C 0.5402 0.51179 0.51542 0.0
C2332 C 0.52749 0.49276 0.52408 0.0
C2333 C 0.53698 0.50555 0.50298 0.0
C2334 C 0.51256 0.46579 0.52017 0.0
C2335 C 0.50978 0.45863 0.50783 0.0
H2336 H 0.75004 0.71917 0.51966 0.0
H2337 H 0.79575 0.80672 0.52668 0.0
H2338 H 0.79882 0.81887 0.50495 0.0
H2339 H 0.79014 0.80225 0.48372 0.0
H2340 H 0.7455 0.71326 0.47676 0.0
H2341 H 0.74082 0.70328 0.49853 0.0
C2342 C 0.76021 0.74144 0.5164 0.0
C2343 C 0.7722 0.76259 0.52478 0.0
C2344 C 0.76267 0.74722 0.50385 0.0
C2345 C 0.78585 0.79075 0.52045 0.0
C2346 C 0.7879 0.79729 0.508 0.0
C2347 C 0.77965 0.78043 0.48703 0.0
C2348 C 0.76868 0.75787 0.47867 0.0
C2349 C 0.77677 0.77524 0.49959 0.0
C2350 C 0.75463 0.73026 0.48302 0.0
C2351 C 0.75173 0.72487 0.49547 0.0
H2352 H 0.78918 0.45428 0.77188 0.0
H2353 H 0.7475 0.54635 0.77944 0.0
H2354 H 0.74261 0.55743 0.75773 0.0
H2355 H 0.75078 0.54154 0.73649 0.0
H2356 H 0.7933 0.45053 0.72887 0.0
H2357 H 0.79667 0.43759 0.75055 0.0
C2358 C 0.77929 0.47699 0.76872 0.0
C2359 C 0.76921 0.50006 0.77723 0.0
C2360 C 0.77622 0.48279 0.75619 0.0
C2361 C 0.75594 0.52887 0.77305 0.0
C2362 C 0.75291 0.53492 0.76065 0.0
C2363 C 0.7603 0.51838 0.73961 0.0
C2364 C 0.7713 0.49649 0.73108 0.0
C2365 C 0.76291 0.51202 0.75212 0.0
C2366 C 0.78414 0.46714 0.73523 0.0
C2367 C 0.78638 0.46011 0.74764 0.0
H2368 H 0.24174 0.24866 0.48224 0.0
H2369 H 0.30995 0.28714 0.4784 0.0
H2370 H 0.31475 0.28632 0.50048 0.0
H2371 H 0.29944 0.27399 0.52089 0.0
H2372 H 0.23148 0.23441 0.52469 0.0
H2373 H 0.22616 0.23763 0.50267 0.0
C2374 C 0.25766 0.25662 0.4863 0.0
C2375 C 0.27555 0.26786 0.47881 0.0
C2376 C 0.26006 0.25673 0.49897 0.0
C2377 C 0.29609 0.27822 0.48405 0.0
C2378 C 0.29872 0.27806 0.49665 0.0
C2379 C 0.28333 0.26691 0.51685 0.0
C2380 C 0.26572 0.25445 0.52431 0.0
C2381 C 0.28077 0.26762 0.50419 0.0
C2382 C 0.24506 0.24459 0.51908 0.0
C2383 C 0.24217 0.24597 0.50651 0.0
H2384 H 0.28855 0.45856 0.27319 0.0
H2385 H 0.24651 0.55087 0.27981 0.0
H2386 H 0.24186 0.56029 0.258 0.0
H2387 H 0.25018 0.54256 0.23698 0.0
H2388 H 0.29291 0.45111 0.23033 0.0
H2389 H 0.29614 0.43998 0.25212 0.0
C2390 C 0.27871 0.48105 0.26979 0.0
C2391 C 0.26847 0.50469 0.27803 0.0
C2392 C 0.27565 0.48568 0.25725 0.0
C2393 C 0.25517 0.53311 0.2736 0.0
C2394 C 0.25222 0.53813 0.26115 0.0
C2395 C 0.25965 0.51965 0.24035 0.0
C2396 C 0.27082 0.49713 0.2321 0.0
C2397 C 0.26226 0.51447 0.25289 0.0
C2398 C 0.28364 0.46813 0.23652 0.0
C2399 C 0.28582 0.46219 0.24897 0.0
H2400 H 1.00085 0.96505 0.48539 0.0
H2401 H 0.04584 0.05258 0.47694 0.0
H2402 H 0.05055 0.06542 0.49851 0.0
H2403 H 0.04245 0.05085 0.51995 0.0
H2404 H 0.99817 0.96243 0.5284 0.0
H2405 H 0.99309 0.95006 0.50681 0.0
C2406 C 1.01135 0.98729 0.48832 0.0
C2407 C 1.02253 0.00841 0.4796 0.0
C2408 C 1.0146 0.99367 0.50077 0.0
C2409 C 0.03657 0.0366 0.48348 0.0
C2410 C 0.03952 0.0436 0.49582 0.0
C2411 C 0.03204 0.02852 0.51701 0.0
C2412 C 1.02111 0.00704 0.52571 0.0
C2413 C 0.02884 0.02207 0.50456 0.0
C2414 C 1.0072 0.9787 0.52184 0.0
C2415 C 1.00406 0.97195 0.5095 0.0
H2416 H 0.04636 0.2172 0.73485 0.0
H2417 H 1.0004 0.30347 0.72646 0.0
H2418 H 0.99543 0.31577 0.74805 0.0
H2419 H 1.00305 0.30032 0.7695 0.0
H2420 H 0.04837 0.21316 0.77786 0.0
H2421 H 0.05429 0.20218 0.75625 0.0
C2422 C 0.03564 0.23912 0.7378 0.0
C2423 C 0.02417 0.25993 0.72908 0.0
C2424 C 0.03226 0.24519 0.75025 0.0
C2425 C 1.00985 0.28771 0.73299 0.0
C2426 C 1.00677 0.2944 0.74534 0.0
C2427 C 1.01397 0.27868 0.76653 0.0
C2428 C 0.02487 0.25704 0.77522 0.0
C2429 C 1.0176 0.27297 0.75407 0.0
C2430 C 0.03939 0.22957 0.77131 0.0
C2431 C 0.04298 0.22357 0.75897 0.0
H2432 H 0.04411 0.71258 0.23618 0.0
H2433 H 1.00074 0.80228 0.22791 0.0
H2434 H 0.99712 0.81582 0.2495 0.0
H2435 H 1.00518 0.80058 0.27091 0.0
H2436 H 0.04833 0.71055 0.27913 0.0
H2437 H 0.05262 0.69789 0.25753 0.0
C2438 C 0.03431 0.73555 0.23914 0.0
C2439 C 1.02317 0.75696 0.23048 0.0
C2440 C 0.03168 0.74235 0.2516 0.0
C2441 C 1.00998 0.78607 0.2344 0.0
C2442 C 1.00762 0.79344 0.24675 0.0
C2443 C 1.01519 0.77787 0.26791 0.0
C2444 C 0.02591 0.75591 0.27658 0.0
C2445 C 1.01807 0.7714 0.25545 0.0
C2446 C 0.03937 0.72714 0.27263 0.0
C2447 C 0.04209 0.72024 0.26028 0.0
H2448 H 1.00609 0.45016 0.98438 0.0
H2449 H 0.04996 0.53914 0.97596 0.0
H2450 H 0.0555 0.55087 0.99754 0.0
H2451 H 0.04725 0.53649 0.01893 0.0
H2452 H 1.00283 0.4483 0.02741 0.0
H2453 H 0.99869 0.4347 0.00585 0.0
C2454 C 1.01662 0.47233 0.98733 0.0
C2455 C 0.02714 0.49435 0.97862 0.0
C2456 C 1.02008 0.47843 0.99979 0.0
C2457 C 0.04122 0.52247 0.98251 0.0
C2458 C 0.0446 0.52889 0.99484 0.0
C2459 C 0.03714 0.51377 0.01601 0.0
C2460 C 0.02579 0.49289 0.02474 0.0
C2461 C 0.03418 0.50701 0.00357 0.0
C2462 C 1.01221 0.46411 0.02088 0.0
C2463 C 1.00956 0.45672 0.00854 0.0
H2464 H 0.60318 0.15035 0.06757 0.0
H2465 H 0.62576 0.04012 0.06488 0.0
H2466 H 0.66466 0.0598 0.06482 0.0
H2467 H 0.69302 0.10792 0.06649 0.0
H2468 H 0.67032 0.21836 0.06495 0.0
H2469 H 0.63147 0.19868 0.06563 0.0
C2470 C 0.61643 0.13043 0.06678 0.0
C2471 C 0.61089 0.09345 0.06685 0.0
C2472 C 0.63923 0.14194 0.06611 0.0
C2473 C 0.62889 0.06867 0.06562 0.0
C2474 C 0.65146 0.0799 0.06539 0.0
C2475 C 0.67977 0.12794 0.06611 0.0
C2476 C 0.68535 0.1649 0.06628 0.0
C2477 C 0.65693 0.11648 0.06585 0.0
C2478 C 0.66727 0.18977 0.0656 0.0
C2479 C 0.64469 0.17854 0.06578 0.0
H2480 H 0.60997 0.1269 0.20007 0.0
H2481 H 0.61853 0.19145 0.16792 0.0
H2482 H 0.65795 0.17301 0.16651 0.0
H2483 H 0.69057 0.1384 0.17435 0.0
H2484 H 0.682 0.07228 0.20606 0.0
H2485 H 0.64258 0.09155 0.20778 0.0
C2486 C 0.6204 0.13657 0.19269 0.0
C2487 C 0.61114 0.16074 0.18416 0.0
C2488 C 0.64335 0.12594 0.19194 0.0
C2489 C 0.62512 0.17315 0.1747 0.0
C2490 C 0.64777 0.16264 0.17388 0.0
C2491 C 0.68013 0.12875 0.18174 0.0
C2492 C 0.68934 0.1044 0.19018 0.0
C2493 C 0.65721 0.13931 0.1825 0.0
C2494 C 0.6754 0.0914 0.19954 0.0
C2495 C 0.65278 0.10222 0.20047 0.0
H2496 H 0.42092 0.93827 0.94352 0.0
H2497 H 0.45247 0.8336 0.94156 0.0
H2498 H 0.4155 0.80526 0.94203 0.0
H2499 H 0.37411 0.80948 0.94254 0.0
H2500 H 0.34252 0.91429 0.94177 0.0
H2501 H 0.37949 0.94257 0.94285 0.0
C2502 C 0.41999 0.90925 0.94298 0.0
C2503 C 0.44012 0.88856 0.94253 0.0
C2504 C 0.3984 0.89279 0.9428 0.0
C2505 C 0.4378 0.8508 0.94219 0.0
C2506 C 0.41645 0.83434 0.94232 0.0
C2507 C 0.37503 0.83855 0.94238 0.0
C2508 C 0.35489 0.85926 0.94206 0.0
C2509 C 0.3966 0.85502 0.94255 0.0
C2510 C 0.3572 0.89704 0.94225 0.0
C2511 C 0.37854 0.91348 0.94274 0.0
H2512 H 0.43961 0.88857 0.80452 0.0
H2513 H 0.42881 0.8175 0.83495 0.0
H2514 H 0.38921 0.83457 0.83563 0.0
H2515 H 0.35701 0.87003 0.82779 0.0
H2516 H 0.36794 0.94436 0.79844 0.0
H2517 H 0.40762 0.92589 0.79716 0.0
C2518 C 0.4287 0.87704 0.81139 0.0
C2519 C 0.43748 0.85113 0.81952 0.0
C2520 C 0.40566 0.88745 0.81189 0.0
C2521 C 0.42273 0.83668 0.82831 0.0
C2522 C 0.39994 0.84661 0.82878 0.0
C2523 C 0.36805 0.88183 0.82104 0.0
C2524 C 0.35941 0.90819 0.81311 0.0
C2525 C 0.3911 0.87175 0.82058 0.0
C2526 C 0.3741 0.92381 0.80458 0.0
C2527 C 0.39685 0.91334 0.80388 0.0
H2528 H 0.69324 0.60629 0.56444 0.0
H2529 H 0.6715 0.71693 0.56176 0.0
H2530 H 0.63234 0.69795 0.56205 0.0
H2531 H 0.6036 0.65027 0.56382 0.0
H2532 H 0.62534 0.53934 0.5636 0.0
H2533 H 0.66447 0.55835 0.56365 0.0
C2534 C 0.68008 0.62641 0.56374 0.0
C2535 C 0.68591 0.66329 0.56348 0.0
C2536 C 0.65716 0.61529 0.5635 0.0
C2537 C 0.66808 0.68845 0.56252 0.0
C2538 C 0.64541 0.6776 0.56255 0.0
C2539 C 0.61674 0.63003 0.56361 0.0
C2540 C 0.61088 0.59317 0.56412 0.0
C2541 C 0.63966 0.64109 0.56319 0.0
C2542 C 0.62873 0.5679 0.56379 0.0
C2543 C 0.6514 0.57874 0.56365 0.0
H2544 H 0.62299 0.68993 0.692 0.0
H2545 H 0.59088 0.58562 0.69018 0.0
H2546 H 0.62765 0.5568 0.69137 0.0
H2547 H 0.66905 0.56054 0.69242 0.0
H2548 H 0.70121 0.66495 0.69138 0.0
H2549 H 0.66439 0.69369 0.69183 0.0
C2550 C 0.62375 0.66088 0.69163 0.0
C2551 C 0.60352 0.64045 0.69098 0.0
C2552 C 0.64522 0.64413 0.69185 0.0
C2553 C 0.60562 0.60264 0.69091 0.0
C2554 C 0.62686 0.5859 0.69147 0.0
C2555 C 0.66831 0.5896 0.69207 0.0
C2556 C 0.68856 0.61007 0.69188 0.0
C2557 C 0.64682 0.60634 0.69185 0.0
C2558 C 0.68644 0.64787 0.6918 0.0
C2559 C 0.66518 0.66458 0.69193 0.0
H2560 H 0.4233 0.43483 0.42571 0.0
H2561 H 0.45168 0.35423 0.44952 0.0
H2562 H 0.41433 0.32759 0.4521 0.0
H2563 H 0.37335 0.32747 0.44794 0.0
H2564 H 0.34486 0.40931 0.42475 0.0
H2565 H 0.38229 0.43609 0.42216 0.0
C2566 C 0.42147 0.41177 0.43164 0.0
C2567 C 0.44075 0.39687 0.43741 0.0
C2568 C 0.39971 0.39702 0.43337 0.0
C2569 C 0.43759 0.36623 0.44475 0.0
C2570 C 0.41606 0.35112 0.44636 0.0
C2571 C 0.37526 0.35119 0.4423 0.0
C2572 C 0.35607 0.36621 0.43654 0.0
C2573 C 0.39697 0.36633 0.44075 0.0
C2574 C 0.35906 0.39731 0.42944 0.0
C2575 C 0.38059 0.41245 0.42785 0.0
H2576 H 0.43532 0.38073 0.30506 0.0
H2577 H 0.42761 0.32015 0.33813 0.0
H2578 H 0.38809 0.33823 0.33946 0.0
H2579 H 0.35521 0.3715 0.33131 0.0
H2580 H 0.36287 0.43356 0.29863 0.0
H2581 H 0.40236 0.4145 0.29697 0.0
C2582 C 0.42505 0.37188 0.31262 0.0
C2583 C 0.43457 0.349 0.32147 0.0
C2584 C 0.40204 0.38221 0.31331 0.0
C2585 C 0.4208 0.33753 0.33114 0.0
C2586 C 0.39811 0.3478 0.3319 0.0
C2587 C 0.36545 0.38024 0.32372 0.0
C2588 C 0.35598 0.40336 0.31498 0.0
C2589 C 0.38841 0.36987 0.323 0.0
C2590 C 0.36966 0.4153 0.30537 0.0
C2591 C 0.39233 0.40464 0.30447 0.0
H2592 H 0.11892 0.08099 0.55496 0.0
H2593 H 0.09282 0.16137 0.57922 0.0
H2594 H 0.13046 0.18843 0.58078 0.0
H2595 H 0.17108 0.18737 0.57611 0.0
H2596 H 0.19651 0.1096 0.55049 0.0
H2597 H 0.15915 0.08287 0.54906 0.0
C2598 C 0.12143 0.10458 0.56055 0.0
C2599 C 0.10292 0.11901 0.56699 0.0
C2600 C 0.14317 0.12014 0.56136 0.0
C2601 C 0.10656 0.14983 0.57406 0.0
C2602 C 0.12819 0.16514 0.57504 0.0
C2603 C 0.16865 0.16505 0.56999 0.0
C2604 C 0.18729 0.15076 0.5635 0.0
C2605 C 0.1467 0.15033 0.56882 0.0
C2606 C 0.18313 0.12106 0.5559 0.0
C2607 C 0.16152 0.10583 0.55494 0.0
H2608 H 0.18843 0.13517 0.67413 0.0
H2609 H 0.17997 0.06699 0.70533 0.0
H2610 H 0.14036 0.08568 0.70708 0.0
H2611 H 0.10776 0.12216 0.69974 0.0
H2612 H 0.11634 0.18768 0.66778 0.0
H2613 H 0.15567 0.16924 0.66629 0.0
C2614 C 0.17794 0.12476 0.68138 0.0
C2615 C 0.18726 0.10022 0.68972 0.0
C2616 C 0.15494 0.13498 0.68214 0.0
C2617 C 0.17328 0.08627 0.69889 0.0
C2618 C 0.15057 0.09683 0.69985 0.0
C2619 C 0.11815 0.13203 0.69237 0.0
C2620 C 0.10892 0.1568 0.684 0.0
C2621 C 0.14109 0.12113 0.6915 0.0
C2622 C 0.12289 0.16921 0.67452 0.0
C2623 C 0.1455 0.15863 0.67363 0.0
H2624 H 0.93703 0.87964 0.45194 0.0
H2625 H 0.93215 0.93056 0.41693 0.0
H2626 H 0.89267 0.91239 0.41526 0.0
H2627 H 0.85895 0.88229 0.42374 0.0
H2628 H 0.86366 0.82984 0.45842 0.0
H2629 H 0.90323 0.84852 0.46031 0.0
C2630 C 0.92739 0.88627 0.44388 0.0
C2631 C 0.93767 0.90649 0.43458 0.0
C2632 C 0.90437 0.87599 0.44301 0.0
C2633 C 0.92473 0.91517 0.42426 0.0
C2634 C 0.90206 0.9049 0.42331 0.0
C2635 C 0.86857 0.87558 0.43179 0.0
C2636 C 0.85823 0.85542 0.44105 0.0
C2637 C 0.89156 0.88566 0.43267 0.0
C2638 C 0.87112 0.84594 0.45128 0.0
C2639 C 0.89383 0.85636 0.45231 0.0
H2640 H 0.94221 0.89328 0.33014 0.0
H2641 H 0.93368 0.82859 0.29825 0.0
H2642 H 0.89418 0.84775 0.29656 0.0
H2643 H 0.8615 0.88257 0.3044 0.0
H2644 H 0.87013 0.94553 0.33677 0.0
H2645 H 0.9096 0.92727 0.3381 0.0
C2646 C 0.93177 0.88396 0.32271 0.0
C2647 C 0.941 0.86012 0.31419 0.0
C2648 C 0.90882 0.8944 0.32199 0.0
C2649 C 0.92707 0.84743 0.30481 0.0
C2650 C 0.90441 0.85816 0.3039 0.0
C2651 C 0.87196 0.89192 0.31181 0.0
C2652 C 0.86272 0.9156 0.32043 0.0
C2653 C 0.89495 0.8814 0.31251 0.0
C2654 C 0.87673 0.92761 0.32992 0.0
C2655 C 0.8994 0.91721 0.33069 0.0
H2656 H 0.17371 0.68919 0.06359 0.0
H2657 H 0.20635 0.58538 0.06605 0.0
H2658 H 0.16978 0.556 0.06488 0.0
H2659 H 0.12842 0.55909 0.06362 0.0
H2660 H 0.09566 0.66301 0.06416 0.0
H2661 H 0.1323 0.69232 0.06369 0.0
C2662 C 0.17311 0.66014 0.06411 0.0
C2663 C 0.19343 0.64002 0.06489 0.0
C2664 C 0.15174 0.64306 0.06392 0.0
C2665 C 0.19154 0.60219 0.06517 0.0
C2666 C 0.17041 0.58512 0.06463 0.0
C2667 C 0.12899 0.58816 0.06386 0.0
C2668 C 0.10864 0.60831 0.0639 0.0
C2669 C 0.15036 0.60524 0.06409 0.0
C2670 C 0.11052 0.64615 0.06385 0.0
C2671 C 0.13168 0.6632 0.06371 0.0
H2672 H 0.12525 0.69144 0.19334 0.0
H2673 H 0.09266 0.58749 0.19163 0.0
H2674 H 0.12931 0.55824 0.19272 0.0
H2675 H 0.17072 0.56151 0.19363 0.0
H2676 H 0.20335 0.66552 0.19251 0.0
H2677 H 0.16667 0.69472 0.19306 0.0
C2678 C 0.12589 0.66238 0.19298 0.0
C2679 C 0.10558 0.64217 0.19239 0.0
C2680 C 0.14728 0.64539 0.19314 0.0
C2681 C 0.10749 0.60434 0.19232 0.0
C2682 C 0.12865 0.58736 0.19282 0.0
C2683 C 0.17009 0.59058 0.19329 0.0
C2684 C 0.19042 0.61081 0.19304 0.0
C2685 C 0.1487 0.60757 0.19313 0.0
C2686 C 0.1885 0.64864 0.19297 0.0
C2687 C 0.16732 0.66561 0.19315 0.0
H2688 H 0.87384 0.31925 0.94794 0.0
H2689 H 0.84422 0.40131 0.92525 0.0
H2690 H 0.88126 0.42953 0.92282 0.0
H2691 H 0.92225 0.42972 0.92642 0.0
H2692 H 0.95172 0.34923 0.9499 0.0
H2693 H 0.91482 0.32094 0.95222 0.0
C2694 C 0.87542 0.34331 0.94244 0.0
C2695 C 0.856 0.35796 0.93678 0.0
C2696 C 0.89692 0.35943 0.94103 0.0
C2697 C 0.85859 0.38952 0.92986 0.0
C2698 C 0.8799 0.40553 0.92837 0.0
C2699 C 0.92078 0.40635 0.93223 0.0
C2700 C 0.94026 0.39199 0.93796 0.0
C2701 C 0.89923 0.39061 0.93383 0.0
C2702 C 0.9375 0.3609 0.94515 0.0
C2703 C 0.9162 0.34479 0.94661 0.0
H2704 H 0.92134 0.32074 0.8289 0.0
H2705 H 0.95012 0.40247 0.80568 0.0
H2706 H 0.91321 0.43108 0.80392 0.0
H2707 H 0.87241 0.43267 0.80858 0.0
H2708 H 0.84344 0.34947 0.83101 0.0
H2709 H 0.88049 0.32093 0.8329 0.0
C2710 C 0.9197 0.34447 0.82326 0.0
C2711 C 0.939 0.35906 0.81743 0.0
C2712 C 0.89814 0.36041 0.82198 0.0
C2713 C 0.93605 0.3906 0.81049 0.0
C2714 C 0.91475 0.40689 0.80935 0.0
C2715 C 0.87414 0.40829 0.81391 0.0
C2716 C 0.8549 0.39341 0.81966 0.0
C2717 C 0.89564 0.39201 0.81501 0.0
C2718 C 0.85767 0.36144 0.82635 0.0
C2719 C 0.87898 0.34525 0.82753 0.0
loop_
_geom_bond_atom_site_label_1
_geom_bond_atom_site_label_2
_geom_bond_distance
_geom_bond_site_symmetry_2
_ccdc_geom_bond_type
C0 C1 1.443 . S
C0 N4 1.376 . S
C0 C38 1.389 . S
C1 C0 1.443 . S
C1 C2 1.340 . S
C1 H41 0.951 . S
C2 C1 1.340 . S
C2 C3 1.439 . S
C2 H42 0.950 . S
C3 C2 1.439 . S
C3 N4 1.374 . S
C3 C37 1.395 . S
N4 C0 1.376 . S
N4 C3 1.374 . S
N4 Co5 2.008 . S
Co5 N4 2.008 . S
Co5 N6 1.995 . S
Co5 N11 2.008 1_545 S
Co5 N16 1.995 1_545 S
Co5 N21 2.282 1_545 S
Co5 N27 2.282 . S
N6 Co5 1.995 . S
N6 C7 1.376 . S
N6 C10 1.383 . S
C7 N6 1.376 . S
C7 C8 1.446 . S
C7 C37 1.391 . S
C8 C7 1.446 . S
C8 C9 1.339 . S
C8 H43 0.949 . S
C9 C8 1.339 . S
C9 C10 1.439 . S
C9 H44 0.950 . S
C10 N6 1.383 . S
C10 C9 1.439 . S
C10 C39 1.392 1_545 S
N11 Co5 2.008 1_565 S
N11 C12 1.376 . S
N11 C15 1.374 . S
C12 N11 1.376 . S
C12 C13 1.443 . S
C12 C39 1.389 . S
C13 C12 1.443 . S
C13 C14 1.340 . S
C13 H45 0.951 . S
C14 C13 1.340 . S
C14 C15 1.439 . S
C14 H46 0.950 . S
C15 N11 1.374 . S
C15 C14 1.439 . S
C15 C40 1.395 . S
N16 Co5 1.995 1_565 S
N16 C17 1.376 . S
N16 C20 1.383 1_565 S
C17 N16 1.376 . S
C17 C18 1.446 . S
C17 C40 1.391 . S
C18 C17 1.446 . S
C18 C19 1.339 . S
C18 H47 0.949 . S
C19 C18 1.339 . S
C19 C20 1.439 1_565 S
C19 H48 0.950 . S
C20 N16 1.383 1_545 S
C20 C19 1.439 1_545 S
C20 C38 1.392 . S
N21 Co5 2.282 1_565 S
N21 C24 1.332 . S
N21 C26 1.332 1_565 S
C22 C23 1.386 . S
C22 C25 1.388 . S
C23 C22 1.386 . S
C23 C24 1.382 . S
C23 H49 0.950 . S
C24 N21 1.332 . S
C24 C23 1.382 . S
C24 H35 0.952 . S
C25 C22 1.388 . S
C25 C26 1.382 1_565 S
C25 H50 0.950 . S
C26 N21 1.332 1_545 S
C26 C25 1.382 1_545 S
C26 H36 0.948 . S
N27 Co5 2.282 . S
N27 C31 1.332 . S
N27 C32 1.332 . S
C28 C29 1.388 . S
C28 C32 1.382 . S
C28 H51 0.950 . S
C29 C28 1.388 . S
C29 C30 1.386 . S
C30 C29 1.386 . S
C30 C31 1.382 . S
C30 H52 0.950 . S
C31 N27 1.332 . S
C31 C30 1.382 . S
C31 H33 0.952 . S
C32 N27 1.332 . S
C32 C28 1.382 . S
C32 H34 0.948 . S
H33 C31 0.952 . S
H34 C32 0.948 . S
H35 C24 0.952 . S
H36 C26 0.948 . S
C37 C3 1.395 . S
C37 C7 1.391 . S
C38 C0 1.389 . S
C38 C20 1.392 . S
C39 C10 1.392 1_565 S
C39 C12 1.389 . S
C40 C15 1.395 . S
C40 C17 1.391 . S
H41 C1 0.951 . S
H42 C2 0.950 . S
H43 C8 0.949 . S
H44 C9 0.950 . S
H45 C13 0.951 . S
H46 C14 0.950 . S
H47 C18 0.949 . S
H48 C19 0.950 . S
H49 C23 0.950 . S
H50 C25 0.950 . S
H51 C28 0.950 . S
H52 C30 0.950 . S
C53 C54 1.443 . S
C53 N57 1.376 . S
C53 C91 1.389 . S
C54 C53 1.443 . S
C54 C55 1.340 . S
C54 H94 0.951 . S
C55 C54 1.340 . S
C55 C56 1.439 . S
C55 H95 0.950 . S
C56 C55 1.439 . S
C56 N57 1.374 . S
C56 C90 1.395 . S
N57 C53 1.376 . S
N57 C56 1.374 . S
N57 Co58 2.008 . S
Co58 N57 2.008 . S
Co58 N59 1.995 . S
Co58 N64 2.008 . S
Co58 N69 1.995 . S
Co58 N74 2.282 . S
Co58 N80 2.282 . S
N59 Co58 1.995 . S
N59 C60 1.376 . S
N59 C63 1.383 . S
C60 N59 1.376 . S
C60 C61 1.446 . S
C60 C90 1.391 . S
C61 C60 1.446 . S
C61 C62 1.339 . S
C61 H96 0.949 . S
C62 C61 1.339 . S
C62 C63 1.439 . S
C62 H97 0.950 . S
C63 N59 1.383 . S
C63 C62 1.439 . S
C63 C92 1.392 . S
N64 Co58 2.008 . S
N64 C65 1.376 . S
N64 C68 1.374 . S
C65 N64 1.376 . S
C65 C66 1.443 . S
C65 C92 1.389 . S
C66 C65 1.443 . S
C66 C67 1.340 . S
C66 H98 0.951 . S
C67 C66 1.340 . S
C67 C68 1.439 . S
C67 H99 0.950 . S
C68 N64 1.374 . S
C68 C67 1.439 . S
C68 C93 1.395 . S
N69 Co58 1.995 . S
N69 C70 1.376 . S
N69 C73 1.383 . S
C70 N69 1.376 . S
C70 C71 1.446 . S
C70 C93 1.391 . S
C71 C70 1.446 . S
C71 C72 1.339 . S
C71 H100 0.949 . S
C72 C71 1.339 . S
C72 C73 1.439 . S
C72 H101 0.950 . S
C73 N69 1.383 . S
C73 C72 1.439 . S
C73 C91 1.392 . S
N74 Co58 2.282 . S
N74 C77 1.332 . S
N74 C79 1.332 . S
C75 C76 1.386 . S
C75 C78 1.388 . S
C76 C75 1.386 . S
C76 C77 1.382 . S
C76 H102 0.950 . S
C77 N74 1.332 . S
C77 C76 1.382 . S
C77 H88 0.952 . S
C78 C75 1.388 . S
C78 C79 1.382 . S
C78 H103 0.950 . S
C79 N74 1.332 . S
C79 C78 1.382 . S
C79 H89 0.948 . S
N80 Co58 2.282 . S
N80 C84 1.332 . S
N80 C85 1.332 . S
C81 C82 1.388 . S
C81 C85 1.382 . S
C81 H104 0.950 . S
C82 C81 1.388 . S
C82 C83 1.386 . S
C83 C82 1.386 . S
C83 C84 1.382 . S
C83 H105 0.950 . S
C84 N80 1.332 . S
C84 C83 1.382 . S
C84 H86 0.952 . S
C85 N80 1.332 . S
C85 C81 1.382 . S
C85 H87 0.948 . S
H86 C84 0.952 . S
H87 C85 0.948 . S
H88 C77 0.952 . S
H89 C79 0.948 . S
C90 C56 1.395 . S
C90 C60 1.391 . S
C91 C53 1.389 . S
C91 C73 1.392 . S
C92 C63 1.392 . S
C92 C65 1.389 . S
C93 C68 1.395 . S
C93 C70 1.391 . S
H94 C54 0.951 . S
H95 C55 0.950 . S
H96 C61 0.949 . S
H97 C62 0.950 . S
H98 C66 0.951 . S
H99 C67 0.950 . S
H100 C71 0.949 . S
H101 C72 0.950 . S
H102 C76 0.950 . S
H103 C78 0.950 . S
H104 C81 0.950 . S
H105 C83 0.950 . S
C106 C107 1.443 . S
C106 N110 1.376 . S
C106 C144 1.389 . S
C107 C106 1.443 . S
C107 C108 1.340 . S
C107 H147 0.951 . S
C108 C107 1.340 . S
C108 C109 1.439 . S
C108 H148 0.950 . S
C109 C108 1.439 . S
C109 N110 1.374 . S
C109 C143 1.395 . S
N110 C106 1.376 . S
N110 C109 1.374 . S
N110 Co111 2.008 . S
Co111 N110 2.008 . S
Co111 N112 1.995 . S
Co111 N117 2.008 . S
Co111 N122 1.995 . S
Co111 N127 2.282 . S
Co111 N133 2.282 . S
N112 Co111 1.995 . S
N112 C113 1.376 . S
N112 C116 1.383 . S
C113 N112 1.376 . S
C113 C114 1.446 . S
C113 C143 1.391 . S
C114 C113 1.446 . S
C114 C115 1.339 . S
C114 H149 0.949 . S
C115 C114 1.339 . S
C115 C116 1.439 . S
C115 H150 0.950 . S
C116 N112 1.383 . S
C116 C115 1.439 . S
C116 C145 1.392 . S
N117 Co111 2.008 . S
N117 C118 1.376 . S
N117 C121 1.374 . S
C118 N117 1.376 . S
C118 C119 1.443 . S
C118 C145 1.389 . S
C119 C118 1.443 . S
C119 C120 1.340 . S
C119 H151 0.951 . S
C120 C119 1.340 . S
C120 C121 1.439 . S
C120 H152 0.950 . S
C121 N117 1.374 . S
C121 C120 1.439 . S
C121 C146 1.395 . S
N122 Co111 1.995 . S
N122 C123 1.376 . S
N122 C126 1.383 . S
C123 N122 1.376 . S
C123 C124 1.446 . S
C123 C146 1.391 . S
C124 C123 1.446 . S
C124 C125 1.339 . S
C124 H153 0.949 . S
C125 C124 1.339 . S
C125 C126 1.439 . S
C125 H154 0.950 . S
C126 N122 1.383 . S
C126 C125 1.439 . S
C126 C144 1.392 . S
N127 Co111 2.282 . S
N127 C130 1.332 . S
N127 C132 1.332 . S
C128 C129 1.386 . S
C128 C131 1.388 . S
C129 C128 1.386 . S
C129 C130 1.382 . S
C129 H155 0.950 . S
C130 N127 1.332 . S
C130 C129 1.382 . S
C130 H141 0.952 . S
C131 C128 1.388 . S
C131 C132 1.382 . S
C131 H156 0.950 . S
C132 N127 1.332 . S
C132 C131 1.382 . S
C132 H142 0.948 . S
N133 Co111 2.282 . S
N133 C137 1.332 . S
N133 C138 1.332 . S
C134 C135 1.388 . S
C134 C138 1.382 . S
C134 H157 0.950 . S
C135 C134 1.388 . S
C135 C136 1.386 . S
C136 C135 1.386 . S
C136 C137 1.382 . S
C136 H158 0.950 . S
C137 N133 1.332 . S
C137 C136 1.382 . S
C137 H139 0.952 . S
C138 N133 1.332 . S
C138 C134 1.382 . S
C138 H140 0.948 . S
H139 C137 0.952 . S
H140 C138 0.948 . S
H141 C130 0.952 . S
H142 C132 0.948 . S
C143 C109 1.395 . S
C143 C113 1.391 . S
C144 C106 1.389 . S
C144 C126 1.392 . S
C145 C116 1.392 . S
C145 C118 1.389 . S
C146 C121 1.395 . S
C146 C123 1.391 . S
H147 C107 0.951 . S
H148 C108 0.950 . S
H149 C114 0.949 . S
H150 C115 0.950 . S
H151 C119 0.951 . S
H152 C120 0.950 . S
H153 C124 0.949 . S
H154 C125 0.950 . S
H155 C129 0.950 . S
H156 C131 0.950 . S
H157 C134 0.950 . S
H158 C136 0.950 . S
C159 C160 1.443 . S
C159 N163 1.376 . S
C159 C197 1.389 . S
C160 C159 1.443 . S
C160 C161 1.340 . S
C160 H200 0.951 . S
C161 C160 1.340 . S
C161 C162 1.439 . S
C161 H201 0.950 . S
C162 C161 1.439 . S
C162 N163 1.374 . S
C162 C196 1.395 . S
N163 C159 1.376 . S
N163 C162 1.374 . S
N163 Co164 2.008 . S
Co164 N163 2.008 . S
Co164 N165 1.995 . S
Co164 N170 2.008 1_545 S
Co164 N175 1.995 1_545 S
Co164 N180 2.282 1_545 S
Co164 N186 2.282 . S
N165 Co164 1.995 . S
N165 C166 1.376 . S
N165 C169 1.383 . S
C166 N165 1.376 . S
C166 C167 1.446 . S
C166 C196 1.391 . S
C167 C166 1.446 . S
C167 C168 1.339 . S
C167 H202 0.949 . S
C168 C167 1.339 . S
C168 C169 1.439 . S
C168 H203 0.950 . S
C169 N165 1.383 . S
C169 C168 1.439 . S
C169 C198 1.392 1_545 S
N170 Co164 2.008 1_565 S
N170 C171 1.376 . S
N170 C174 1.374 . S
C171 N170 1.376 . S
C171 C172 1.443 . S
C171 C198 1.389 . S
C172 C171 1.443 . S
C172 C173 1.340 . S
C172 H204 0.951 . S
C173 C172 1.340 . S
C173 C174 1.439 . S
C173 H205 0.950 . S
C174 N170 1.374 . S
C174 C173 1.439 . S
C174 C199 1.395 . S
N175 Co164 1.995 1_565 S
N175 C176 1.376 . S
N175 C179 1.383 1_565 S
C176 N175 1.376 . S
C176 C177 1.446 . S
C176 C199 1.391 . S
C177 C176 1.446 . S
C177 C178 1.339 . S
C177 H206 0.949 . S
C178 C177 1.339 . S
C178 C179 1.439 1_565 S
C178 H207 0.950 . S
C179 N175 1.383 1_545 S
C179 C178 1.439 1_545 S
C179 C197 1.392 . S
N180 Co164 2.282 1_565 S
N180 C183 1.332 . S
N180 C185 1.332 1_565 S
C181 C182 1.386 . S
C181 C184 1.388 . S
C182 C181 1.386 . S
C182 C183 1.382 . S
C182 H208 0.950 . S
C183 N180 1.332 . S
C183 C182 1.382 . S
C183 H194 0.952 . S
C184 C181 1.388 . S
C184 C185 1.382 1_565 S
C184 H209 0.950 . S
C185 N180 1.332 1_545 S
C185 C184 1.382 1_545 S
C185 H195 0.948 . S
N186 Co164 2.282 . S
N186 C190 1.332 . S
N186 C191 1.332 . S
C187 C188 1.388 . S
C187 C191 1.382 . S
C187 H210 0.950 . S
C188 C187 1.388 . S
C188 C189 1.386 . S
C189 C188 1.386 . S
C189 C190 1.382 . S
C189 H211 0.950 . S
C190 N186 1.332 . S
C190 C189 1.382 . S
C190 H192 0.952 . S
C191 N186 1.332 . S
C191 C187 1.382 . S
C191 H193 0.948 . S
H192 C190 0.952 . S
H193 C191 0.948 . S
H194 C183 0.952 . S
H195 C185 0.948 . S
C196 C162 1.395 . S
C196 C166 1.391 . S
C197 C159 1.389 . S
C197 C179 1.392 . S
C198 C169 1.392 1_565 S
C198 C171 1.389 . S
C199 C174 1.395 . S
C199 C176 1.391 . S
H200 C160 0.951 . S
H201 C161 0.950 . S
H202 C167 0.949 . S
H203 C168 0.950 . S
H204 C172 0.951 . S
H205 C173 0.950 . S
H206 C177 0.949 . S
H207 C178 0.950 . S
H208 C182 0.950 . S
H209 C184 0.950 . S
H210 C187 0.950 . S
H211 C189 0.950 . S
C212 C213 1.443 1_565 S
C212 N216 1.363 1_565 S
C212 C250 1.389 . S
C213 C212 1.443 1_545 S
C213 C214 1.340 . S
C213 H253 0.951 1_545 S
C214 C213 1.340 . S
C214 C215 1.439 . S
C214 H254 0.950 . S
C215 C214 1.439 . S
C215 N216 1.396 . S
C215 C249 1.395 . S
N216 C212 1.363 1_545 S
N216 C215 1.396 . S
N216 Co217 1.999 1_545 S
Co217 N216 1.999 1_565 S
Co217 N218 1.995 1_565 S
Co217 N223 2.008 . S
Co217 N228 1.995 . S
Co217 N233 2.282 1_565 S
Co217 N239 2.282 . S
N218 Co217 1.995 1_545 S
N218 C219 1.376 . S
N218 C222 1.383 . S
C219 N218 1.376 . S
C219 C220 1.446 . S
C219 C249 1.391 . S
C220 C219 1.446 . S
C220 C221 1.339 . S
C220 H255 0.949 . S
C221 C220 1.339 . S
C221 C222 1.439 . S
C221 H256 0.950 . S
C222 N218 1.383 . S
C222 C221 1.439 . S
C222 C251 1.392 . S
N223 Co217 2.008 . S
N223 C224 1.376 . S
N223 C227 1.374 . S
C224 N223 1.376 . S
C224 C225 1.443 . S
C224 C251 1.389 1_565 S
C225 C224 1.443 . S
C225 C226 1.340 . S
C225 H257 0.951 . S
C226 C225 1.340 . S
C226 C227 1.439 . S
C226 H258 0.950 . S
C227 N223 1.374 . S
C227 C226 1.439 . S
C227 C252 1.395 . S
N228 Co217 1.995 . S
N228 C229 1.376 . S
N228 C232 1.383 . S
C229 N228 1.376 . S
C229 C230 1.446 . S
C229 C252 1.391 . S
C230 C229 1.446 . S
C230 C231 1.339 . S
C230 H259 0.949 . S
C231 C230 1.339 . S
C231 C232 1.439 . S
C231 H260 0.950 . S
C232 N228 1.383 . S
C232 C231 1.439 . S
C232 C250 1.392 . S
N233 Co217 2.282 1_545 S
N233 C236 1.332 1_545 S
N233 C238 1.332 . S
C234 C235 1.386 . S
C234 C237 1.388 . S
C235 C234 1.386 . S
C235 C236 1.382 1_545 S
C235 H261 0.950 . S
C236 N233 1.332 1_565 S
C236 C235 1.382 1_565 S
C236 H247 0.952 . S
C237 C234 1.388 . S
C237 C238 1.382 . S
C237 H262 0.950 . S
C238 N233 1.332 . S
C238 C237 1.382 . S
C238 H248 0.948 . S
N239 Co217 2.282 . S
N239 C243 1.332 . S
N239 C244 1.332 . S
C240 C241 1.388 . S
C240 C244 1.382 . S
C240 H263 0.950 . S
C241 C240 1.388 . S
C241 C242 1.386 . S
C242 C241 1.386 . S
C242 C243 1.382 . S
C242 H264 0.950 . S
C243 N239 1.332 . S
C243 C242 1.382 . S
C243 H245 0.952 . S
C244 N239 1.332 . S
C244 C240 1.382 . S
C244 H246 0.948 . S
H245 C243 0.952 . S
H246 C244 0.948 . S
H247 C236 0.952 . S
H248 C238 0.948 . S
C249 C215 1.395 . S
C249 C219 1.391 . S
C250 C212 1.389 . S
C250 C232 1.392 . S
C251 C222 1.392 . S
C251 C224 1.389 1_545 S
C252 C227 1.395 . S
C252 C229 1.391 . S
H253 C213 0.951 1_565 S
H254 C214 0.950 . S
H255 C220 0.949 . S
H256 C221 0.950 . S
H257 C225 0.951 . S
H258 C226 0.950 . S
H259 C230 0.949 . S
H260 C231 0.950 . S
H261 C235 0.950 . S
H262 C237 0.950 . S
H263 C240 0.950 . S
H264 C242 0.950 . S
C265 C266 1.443 . S
C265 N269 1.376 . S
C265 C303 1.389 . S
C266 C265 1.443 . S
C266 C267 1.340 . S
C266 H306 0.951 . S
C267 C266 1.340 . S
C267 C268 1.439 . S
C267 H307 0.950 . S
C268 C267 1.439 . S
C268 N269 1.374 . S
C268 C302 1.395 . S
N269 C265 1.376 . S
N269 C268 1.374 . S
N269 Co270 2.008 . S
Co270 N269 2.008 . S
Co270 N271 1.995 . S
Co270 N276 2.008 . S
Co270 N281 1.995 . S
Co270 N286 2.282 . S
Co270 N292 2.282 . S
N271 Co270 1.995 . S
N271 C272 1.376 . S
N271 C275 1.383 . S
C272 N271 1.376 . S
C272 C273 1.446 . S
C272 C302 1.391 . S
C273 C272 1.446 . S
C273 C274 1.339 . S
C273 H308 0.949 . S
C274 C273 1.339 . S
C274 C275 1.439 . S
C274 H309 0.950 . S
C275 N271 1.383 . S
C275 C274 1.439 . S
C275 C304 1.392 . S
N276 Co270 2.008 . S
N276 C277 1.376 . S
N276 C280 1.374 . S
C277 N276 1.376 . S
C277 C278 1.443 . S
C277 C304 1.389 . S
C278 C277 1.443 . S
C278 C279 1.340 . S
C278 H310 0.951 . S
C279 C278 1.340 . S
C279 C280 1.439 . S
C279 H311 0.950 . S
C280 N276 1.374 . S
C280 C279 1.439 . S
C280 C305 1.395 . S
N281 Co270 1.995 . S
N281 C282 1.376 . S
N281 C285 1.383 . S
C282 N281 1.376 . S
C282 C283 1.446 . S
C282 C305 1.391 . S
C283 C282 1.446 . S
C283 C284 1.339 . S
C283 H312 0.949 . S
C284 C283 1.339 . S
C284 C285 1.439 . S
C284 H313 0.950 . S
C285 N281 1.383 . S
C285 C284 1.439 . S
C285 C303 1.392 . S
N286 Co270 2.282 . S
N286 C289 1.332 . S
N286 C291 1.332 . S
C287 C288 1.386 . S
C287 C290 1.388 . S
C288 C287 1.386 . S
C288 C289 1.382 . S
C288 H314 0.950 . S
C289 N286 1.332 . S
C289 C288 1.382 . S
C289 H300 0.952 . S
C290 C287 1.388 . S
C290 C291 1.382 . S
C290 H315 0.950 . S
C291 N286 1.332 . S
C291 C290 1.382 . S
C291 H301 0.948 . S
N292 Co270 2.282 . S
N292 C296 1.332 . S
N292 C297 1.332 . S
C293 C294 1.388 . S
C293 C297 1.382 . S
C293 H316 0.950 . S
C294 C293 1.388 . S
C294 C295 1.386 . S
C295 C294 1.386 . S
C295 C296 1.382 . S
C295 H317 0.950 . S
C296 N292 1.332 . S
C296 C295 1.382 . S
C296 H298 0.952 . S
C297 N292 1.332 . S
C297 C293 1.382 . S
C297 H299 0.948 . S
H298 C296 0.952 . S
H299 C297 0.948 . S
H300 C289 0.952 . S
H301 C291 0.948 . S
C302 C268 1.395 . S
C302 C272 1.391 . S
C303 C265 1.389 . S
C303 C285 1.392 . S
C304 C275 1.392 . S
C304 C277 1.389 . S
C305 C280 1.395 . S
C305 C282 1.391 . S
H306 C266 0.951 . S
H307 C267 0.950 . S
H308 C273 0.949 . S
H309 C274 0.950 . S
H310 C278 0.951 . S
H311 C279 0.950 . S
H312 C283 0.949 . S
H313 C284 0.950 . S
H314 C288 0.950 . S
H315 C290 0.950 . S
H316 C293 0.950 . S
H317 C295 0.950 . S
C318 C319 1.443 . S
C318 N322 1.376 . S
C318 C356 1.389 . S
C319 C318 1.443 . S
C319 C320 1.340 . S
C319 H359 0.951 . S
C320 C319 1.340 . S
C320 C321 1.439 . S
C320 H360 0.950 . S
C321 C320 1.439 . S
C321 N322 1.374 . S
C321 C355 1.395 . S
N322 C318 1.376 . S
N322 C321 1.374 . S
N322 Co323 2.008 . S
Co323 N322 2.008 . S
Co323 N324 1.995 . S
Co323 N329 2.008 . S
Co323 N334 1.995 . S
Co323 N339 2.282 . S
Co323 N345 2.282 . S
N324 Co323 1.995 . S
N324 C325 1.376 . S
N324 C328 1.383 . S
C325 N324 1.376 . S
C325 C326 1.446 . S
C325 C355 1.391 . S
C326 C325 1.446 . S
C326 C327 1.339 . S
C326 H361 0.949 . S
C327 C326 1.339 . S
C327 C328 1.439 . S
C327 H362 0.950 . S
C328 N324 1.383 . S
C328 C327 1.439 . S
C328 C357 1.392 . S
N329 Co323 2.008 . S
N329 C330 1.376 . S
N329 C333 1.374 . S
C330 N329 1.376 . S
C330 C331 1.443 . S
C330 C357 1.389 . S
C331 C330 1.443 . S
C331 C332 1.340 . S
C331 H363 0.951 . S
C332 C331 1.340 . S
C332 C333 1.439 . S
C332 H364 0.950 . S
C333 N329 1.374 . S
C333 C332 1.439 . S
C333 C358 1.395 . S
N334 Co323 1.995 . S
N334 C335 1.376 . S
N334 C338 1.383 . S
C335 N334 1.376 . S
C335 C336 1.446 . S
C335 C358 1.391 . S
C336 C335 1.446 . S
C336 C337 1.339 . S
C336 H365 0.949 . S
C337 C336 1.339 . S
C337 C338 1.439 . S
C337 H366 0.950 . S
C338 N334 1.383 . S
C338 C337 1.439 . S
C338 C356 1.392 . S
N339 Co323 2.282 . S
N339 C342 1.332 . S
N339 C344 1.332 . S
C340 C341 1.386 . S
C340 C343 1.388 . S
C341 C340 1.386 . S
C341 C342 1.382 . S
C341 H367 0.950 . S
C342 N339 1.332 . S
C342 C341 1.382 . S
C342 H353 0.952 . S
C343 C340 1.388 . S
C343 C344 1.382 . S
C343 H368 0.950 . S
C344 N339 1.332 . S
C344 C343 1.382 . S
C344 H354 0.948 . S
N345 Co323 2.282 . S
N345 C349 1.332 . S
N345 C350 1.332 . S
C346 C347 1.388 . S
C346 C350 1.382 . S
C346 H369 0.950 . S
C347 C346 1.388 . S
C347 C348 1.386 . S
C348 C347 1.386 . S
C348 C349 1.382 . S
C348 H370 0.950 . S
C349 N345 1.332 . S
C349 C348 1.382 . S
C349 H351 0.952 . S
C350 N345 1.332 . S
C350 C346 1.382 . S
C350 H352 0.948 . S
H351 C349 0.952 . S
H352 C350 0.948 . S
H353 C342 0.952 . S
H354 C344 0.948 . S
C355 C321 1.395 . S
C355 C325 1.391 . S
C356 C318 1.389 . S
C356 C338 1.392 . S
C357 C328 1.392 . S
C357 C330 1.389 . S
C358 C333 1.395 . S
C358 C335 1.391 . S
H359 C319 0.951 . S
H360 C320 0.950 . S
H361 C326 0.949 . S
H362 C327 0.950 . S
H363 C331 0.951 . S
H364 C332 0.950 . S
H365 C336 0.949 . S
H366 C337 0.950 . S
H367 C341 0.950 . S
H368 C343 0.950 . S
H369 C346 0.950 . S
H370 C348 0.950 . S
C371 C372 1.443 1_565 S
C371 N375 1.366 1_565 S
C371 C409 1.389 . S
C372 C371 1.443 1_545 S
C372 C373 1.340 . S
C372 H412 0.951 1_545 S
C373 C372 1.340 . S
C373 C374 1.439 . S
C373 H413 0.950 . S
C374 C373 1.439 . S
C374 N375 1.392 . S
C374 C408 1.395 . S
N375 C371 1.366 1_545 S
N375 C374 1.392 . S
N375 Co376 2.000 1_545 S
Co376 N375 2.000 1_565 S
Co376 N377 1.995 1_565 S
Co376 N382 2.008 . S
Co376 N387 1.995 . S
Co376 N392 2.282 1_565 S
Co376 N398 2.282 . S
N377 Co376 1.995 1_545 S
N377 C378 1.376 . S
N377 C381 1.383 . S
C378 N377 1.376 . S
C378 C379 1.446 . S
C378 C408 1.391 . S
C379 C378 1.446 . S
C379 C380 1.339 . S
C379 H414 0.949 . S
C380 C379 1.339 . S
C380 C381 1.439 . S
C380 H415 0.950 . S
C381 N377 1.383 . S
C381 C380 1.439 . S
C381 C410 1.392 . S
N382 Co376 2.008 . S
N382 C383 1.376 . S
N382 C386 1.374 . S
C383 N382 1.376 . S
C383 C384 1.443 . S
C383 C410 1.389 1_565 S
C384 C383 1.443 . S
C384 C385 1.340 . S
C384 H416 0.951 . S
C385 C384 1.340 . S
C385 C386 1.439 . S
C385 H417 0.950 . S
C386 N382 1.374 . S
C386 C385 1.439 . S
C386 C411 1.395 . S
N387 Co376 1.995 . S
N387 C388 1.376 . S
N387 C391 1.383 . S
C388 N387 1.376 . S
C388 C389 1.446 . S
C388 C411 1.391 . S
C389 C388 1.446 . S
C389 C390 1.339 . S
C389 H418 0.949 . S
C390 C389 1.339 . S
C390 C391 1.439 . S
C390 H419 0.950 . S
C391 N387 1.383 . S
C391 C390 1.439 . S
C391 C409 1.392 . S
N392 Co376 2.282 1_545 S
N392 C395 1.332 1_545 S
N392 C397 1.332 . S
C393 C394 1.386 . S
C393 C396 1.388 . S
C394 C393 1.386 . S
C394 C395 1.382 1_545 S
C394 H420 0.950 . S
C395 N392 1.332 1_565 S
C395 C394 1.382 1_565 S
C395 H406 0.952 . S
C396 C393 1.388 . S
C396 C397 1.382 . S
C396 H421 0.950 . S
C397 N392 1.332 . S
C397 C396 1.382 . S
C397 H407 0.948 . S
N398 Co376 2.282 . S
N398 C402 1.332 . S
N398 C403 1.332 . S
C399 C400 1.388 . S
C399 C403 1.382 . S
C399 H422 0.950 . S
C400 C399 1.388 . S
C400 C401 1.386 . S
C401 C400 1.386 . S
C401 C402 1.382 . S
C401 H423 0.950 . S
C402 N398 1.332 . S
C402 C401 1.382 . S
C402 H404 0.952 . S
C403 N398 1.332 . S
C403 C399 1.382 . S
C403 H405 0.948 . S
H404 C402 0.952 . S
H405 C403 0.948 . S
H406 C395 0.952 . S
H407 C397 0.948 . S
C408 C374 1.395 . S
C408 C378 1.391 . S
C409 C371 1.389 . S
C409 C391 1.392 . S
C410 C381 1.392 . S
C410 C383 1.389 1_545 S
C411 C386 1.395 . S
C411 C388 1.391 . S
H412 C372 0.951 1_565 S
H413 C373 0.950 . S
H414 C379 0.949 . S
H415 C380 0.950 . S
H416 C384 0.951 . S
H417 C385 0.950 . S
H418 C389 0.949 . S
H419 C390 0.950 . S
H420 C394 0.950 . S
H421 C396 0.950 . S
H422 C399 0.950 . S
H423 C401 0.950 . S
C424 C425 1.443 . S
C424 N428 1.376 . S
C424 C462 1.389 . S
C425 C424 1.443 . S
C425 C426 1.340 . S
C425 H465 0.951 . S
C426 C425 1.340 . S
C426 C427 1.439 . S
C426 H466 0.950 . S
C427 C426 1.439 . S
C427 N428 1.374 . S
C427 C461 1.395 . S
N428 C424 1.376 . S
N428 C427 1.374 . S
N428 Co429 2.008 . S
Co429 N428 2.008 . S
Co429 N430 1.995 . S
Co429 N435 2.008 . S
Co429 N440 1.995 . S
Co429 N445 2.282 . S
Co429 N451 2.282 . S
N430 Co429 1.995 . S
N430 C431 1.376 . S
N430 C434 1.383 . S
C431 N430 1.376 . S
C431 C432 1.446 . S
C431 C461 1.391 . S
C432 C431 1.446 . S
C432 C433 1.339 . S
C432 H467 0.949 . S
C433 C432 1.339 . S
C433 C434 1.439 . S
C433 H468 0.950 . S
C434 N430 1.383 . S
C434 C433 1.439 . S
C434 C463 1.392 . S
N435 Co429 2.008 . S
N435 C436 1.376 . S
N435 C439 1.374 . S
C436 N435 1.376 . S
C436 C437 1.443 . S
C436 C463 1.389 . S
C437 C436 1.443 . S
C437 C438 1.340 . S
C437 H469 0.951 . S
C438 C437 1.340 . S
C438 C439 1.439 . S
C438 H470 0.950 . S
C439 N435 1.374 . S
C439 C438 1.439 . S
C439 C464 1.395 . S
N440 Co429 1.995 . S
N440 C441 1.376 . S
N440 C444 1.383 . S
C441 N440 1.376 . S
C441 C442 1.446 . S
C441 C464 1.391 . S
C442 C441 1.446 . S
C442 C443 1.339 . S
C442 H471 0.949 . S
C443 C442 1.339 . S
C443 C444 1.439 . S
C443 H472 0.950 . S
C444 N440 1.383 . S
C444 C443 1.439 . S
C444 C462 1.392 . S
N445 Co429 2.282 . S
N445 C448 1.332 . S
N445 C450 1.332 . S
C446 C447 1.386 . S
C446 C449 1.388 . S
C447 C446 1.386 . S
C447 C448 1.382 . S
C447 H473 0.950 . S
C448 N445 1.332 . S
C448 C447 1.382 . S
C448 H459 0.952 . S
C449 C446 1.388 . S
C449 C450 1.382 . S
C449 H474 0.950 . S
C450 N445 1.332 . S
C450 C449 1.382 . S
C450 H460 0.948 . S
N451 Co429 2.282 . S
N451 C455 1.332 . S
N451 C456 1.332 . S
C452 C453 1.388 . S
C452 C456 1.382 . S
C452 H475 0.950 . S
C453 C452 1.388 . S
C453 C454 1.386 . S
C454 C453 1.386 . S
C454 C455 1.382 . S
C454 H476 0.950 . S
C455 N451 1.332 . S
C455 C454 1.382 . S
C455 H457 0.952 . S
C456 N451 1.332 . S
C456 C452 1.382 . S
C456 H458 0.948 . S
H457 C455 0.952 . S
H458 C456 0.948 . S
H459 C448 0.952 . S
H460 C450 0.948 . S
C461 C427 1.395 . S
C461 C431 1.391 . S
C462 C424 1.389 . S
C462 C444 1.392 . S
C463 C434 1.392 . S
C463 C436 1.389 . S
C464 C439 1.395 . S
C464 C441 1.391 . S
H465 C425 0.951 . S
H466 C426 0.950 . S
H467 C432 0.949 . S
H468 C433 0.950 . S
H469 C437 0.951 . S
H470 C438 0.950 . S
H471 C442 0.949 . S
H472 C443 0.950 . S
H473 C447 0.950 . S
H474 C449 0.950 . S
H475 C452 0.950 . S
H476 C454 0.950 . S
C477 C478 1.443 . S
C477 N481 1.376 . S
C477 C515 1.389 . S
C478 C477 1.443 . S
C478 C479 1.340 . S
C478 H518 0.951 . S
C479 C478 1.340 . S
C479 C480 1.439 . S
C479 H519 0.950 . S
C480 C479 1.439 . S
C480 N481 1.374 . S
C480 C514 1.395 . S
N481 C477 1.376 . S
N481 C480 1.374 . S
N481 Co482 2.008 . S
Co482 N481 2.008 . S
Co482 N483 1.995 . S
Co482 N488 2.008 . S
Co482 N493 1.995 . S
Co482 N498 2.282 . S
Co482 N504 2.282 . S
N483 Co482 1.995 . S
N483 C484 1.376 . S
N483 C487 1.383 . S
C484 N483 1.376 . S
C484 C485 1.446 . S
C484 C514 1.391 . S
C485 C484 1.446 . S
C485 C486 1.339 . S
C485 H520 0.949 . S
C486 C485 1.339 . S
C486 C487 1.439 . S
C486 H521 0.950 . S
C487 N483 1.383 . S
C487 C486 1.439 . S
C487 C516 1.392 . S
N488 Co482 2.008 . S
N488 C489 1.376 . S
N488 C492 1.374 . S
C489 N488 1.376 . S
C489 C490 1.443 . S
C489 C516 1.389 . S
C490 C489 1.443 . S
C490 C491 1.340 . S
C490 H522 0.951 . S
C491 C490 1.340 . S
C491 C492 1.439 . S
C491 H523 0.950 . S
C492 N488 1.374 . S
C492 C491 1.439 . S
C492 C517 1.395 . S
N493 Co482 1.995 . S
N493 C494 1.376 . S
N493 C497 1.383 . S
C494 N493 1.376 . S
C494 C495 1.446 . S
C494 C517 1.391 . S
C495 C494 1.446 . S
C495 C496 1.339 . S
C495 H524 0.949 . S
C496 C495 1.339 . S
C496 C497 1.439 . S
C496 H525 0.950 . S
C497 N493 1.383 . S
C497 C496 1.439 . S
C497 C515 1.392 . S
N498 Co482 2.282 . S
N498 C501 1.332 . S
N498 C503 1.332 . S
C499 C500 1.386 . S
C499 C502 1.388 . S
C500 C499 1.386 . S
C500 C501 1.382 . S
C500 H526 0.950 . S
C501 N498 1.332 . S
C501 C500 1.382 . S
C501 H512 0.952 . S
C502 C499 1.388 . S
C502 C503 1.382 . S
C502 H527 0.950 . S
C503 N498 1.332 . S
C503 C502 1.382 . S
C503 H513 0.948 . S
N504 Co482 2.282 . S
N504 C508 1.332 . S
N504 C509 1.332 . S
C505 C506 1.388 . S
C505 C509 1.382 . S
C505 H528 0.950 . S
C506 C505 1.388 . S
C506 C507 1.386 . S
C507 C506 1.386 . S
C507 C508 1.382 . S
C507 H529 0.950 . S
C508 N504 1.332 . S
C508 C507 1.382 . S
C508 H510 0.952 . S
C509 N504 1.332 . S
C509 C505 1.382 . S
C509 H511 0.948 . S
H510 C508 0.952 . S
H511 C509 0.948 . S
H512 C501 0.952 . S
H513 C503 0.948 . S
C514 C480 1.395 . S
C514 C484 1.391 . S
C515 C477 1.389 . S
C515 C497 1.392 . S
C516 C487 1.392 . S
C516 C489 1.389 . S
C517 C492 1.395 . S
C517 C494 1.391 . S
H518 C478 0.951 . S
H519 C479 0.950 . S
H520 C485 0.949 . S
H521 C486 0.950 . S
H522 C490 0.951 . S
H523 C491 0.950 . S
H524 C495 0.949 . S
H525 C496 0.950 . S
H526 C500 0.950 . S
H527 C502 0.950 . S
H528 C505 0.950 . S
H529 C507 0.950 . S
C530 C531 1.443 . S
C530 N534 1.376 . S
C530 C568 1.389 . S
C531 C530 1.443 . S
C531 C532 1.340 . S
C531 H571 0.951 . S
C532 C531 1.340 . S
C532 C533 1.439 . S
C532 H572 0.950 . S
C533 C532 1.439 . S
C533 N534 1.374 . S
C533 C567 1.395 . S
N534 C530 1.376 . S
N534 C533 1.374 . S
N534 Co535 2.008 . S
Co535 N534 2.008 . S
Co535 N536 1.995 . S
Co535 N541 2.008 . S
Co535 N546 1.995 . S
Co535 N551 2.282 . S
Co535 N557 2.282 . S
N536 Co535 1.995 . S
N536 C537 1.376 . S
N536 C540 1.383 . S
C537 N536 1.376 . S
C537 C538 1.446 . S
C537 C567 1.391 . S
C538 C537 1.446 . S
C538 C539 1.339 . S
C538 H573 0.949 . S
C539 C538 1.339 . S
C539 C540 1.439 . S
C539 H574 0.950 . S
C540 N536 1.383 . S
C540 C539 1.439 . S
C540 C569 1.392 . S
N541 Co535 2.008 . S
N541 C542 1.376 . S
N541 C545 1.374 . S
C542 N541 1.376 . S
C542 C543 1.443 . S
C542 C569 1.389 . S
C543 C542 1.443 . S
C543 C544 1.340 . S
C543 H575 0.951 . S
C544 C543 1.340 . S
C544 C545 1.439 . S
C544 H576 0.950 . S
C545 N541 1.374 . S
C545 C544 1.439 . S
C545 C570 1.395 . S
N546 Co535 1.995 . S
N546 C547 1.376 . S
N546 C550 1.383 . S
C547 N546 1.376 . S
C547 C548 1.446 . S
C547 C570 1.391 . S
C548 C547 1.446 . S
C548 C549 1.339 . S
C548 H577 0.949 . S
C549 C548 1.339 . S
C549 C550 1.439 . S
C549 H578 0.950 . S
C550 N546 1.383 . S
C550 C549 1.439 . S
C550 C568 1.392 . S
N551 Co535 2.282 . S
N551 C554 1.332 . S
N551 C556 1.332 . S
C552 C553 1.386 . S
C552 C555 1.388 . S
C553 C552 1.386 . S
C553 C554 1.382 . S
C553 H579 0.950 . S
C554 N551 1.332 . S
C554 C553 1.382 . S
C554 H565 0.952 . S
C555 C552 1.388 . S
C555 C556 1.382 . S
C555 H580 0.950 . S
C556 N551 1.332 . S
C556 C555 1.382 . S
C556 H566 0.948 . S
N557 Co535 2.282 . S
N557 C561 1.332 . S
N557 C562 1.332 . S
C558 C559 1.388 . S
C558 C562 1.382 . S
C558 H581 0.950 . S
C559 C558 1.388 . S
C559 C560 1.386 . S
C560 C559 1.386 . S
C560 C561 1.382 . S
C560 H582 0.950 . S
C561 N557 1.332 . S
C561 C560 1.382 . S
C561 H563 0.952 . S
C562 N557 1.332 . S
C562 C558 1.382 . S
C562 H564 0.948 . S
H563 C561 0.952 . S
H564 C562 0.948 . S
H565 C554 0.952 . S
H566 C556 0.948 . S
C567 C533 1.395 . S
C567 C537 1.391 . S
C568 C530 1.389 . S
C568 C550 1.392 . S
C569 C540 1.392 . S
C569 C542 1.389 . S
C570 C545 1.395 . S
C570 C547 1.391 . S
H571 C531 0.951 . S
H572 C532 0.950 . S
H573 C538 0.949 . S
H574 C539 0.950 . S
H575 C543 0.951 . S
H576 C544 0.950 . S
H577 C548 0.949 . S
H578 C549 0.950 . S
H579 C553 0.950 . S
H580 C555 0.950 . S
H581 C558 0.950 . S
H582 C560 0.950 . S
C583 C584 1.443 . S
C583 N587 1.376 . S
C583 C621 1.389 . S
C584 C583 1.443 . S
C584 C585 1.340 . S
C584 H624 0.951 . S
C585 C584 1.340 . S
C585 C586 1.439 . S
C585 H625 0.950 . S
C586 C585 1.439 . S
C586 N587 1.374 . S
C586 C620 1.395 . S
N587 C583 1.376 . S
N587 C586 1.374 . S
N587 Co588 2.008 . S
Co588 N587 2.008 . S
Co588 N589 1.995 . S
Co588 N594 2.008 . S
Co588 N599 1.995 . S
Co588 N604 2.282 . S
Co588 N610 2.282 . S
N589 Co588 1.995 . S
N589 C590 1.376 . S
N589 C593 1.383 . S
C590 N589 1.376 . S
C590 C591 1.446 . S
C590 C620 1.391 . S
C591 C590 1.446 . S
C591 C592 1.339 . S
C591 H626 0.949 . S
C592 C591 1.339 . S
C592 C593 1.439 . S
C592 H627 0.950 . S
C593 N589 1.383 . S
C593 C592 1.439 . S
C593 C622 1.392 . S
N594 Co588 2.008 . S
N594 C595 1.376 . S
N594 C598 1.374 . S
C595 N594 1.376 . S
C595 C596 1.443 . S
C595 C622 1.389 . S
C596 C595 1.443 . S
C596 C597 1.340 . S
C596 H628 0.951 . S
C597 C596 1.340 . S
C597 C598 1.439 . S
C597 H629 0.950 . S
C598 N594 1.374 . S
C598 C597 1.439 . S
C598 C623 1.395 . S
N599 Co588 1.995 . S
N599 C600 1.376 . S
N599 C603 1.383 . S
C600 N599 1.376 . S
C600 C601 1.446 . S
C600 C623 1.391 . S
C601 C600 1.446 . S
C601 C602 1.339 . S
C601 H630 0.949 . S
C602 C601 1.339 . S
C602 C603 1.439 . S
C602 H631 0.950 . S
C603 N599 1.383 . S
C603 C602 1.439 . S
C603 C621 1.392 . S
N604 Co588 2.282 . S
N604 C607 1.332 . S
N604 C609 1.332 . S
C605 C606 1.386 . S
C605 C608 1.388 . S
C606 C605 1.386 . S
C606 C607 1.382 . S
C606 H632 0.950 . S
C607 N604 1.332 . S
C607 C606 1.382 . S
C607 H618 0.952 . S
C608 C605 1.388 . S
C608 C609 1.382 . S
C608 H633 0.950 . S
C609 N604 1.332 . S
C609 C608 1.382 . S
C609 H619 0.948 . S
N610 Co588 2.282 . S
N610 C614 1.332 . S
N610 C615 1.332 . S
C611 C612 1.388 . S
C611 C615 1.382 . S
C611 H634 0.950 . S
C612 C611 1.388 . S
C612 C613 1.386 . S
C613 C612 1.386 . S
C613 C614 1.382 . S
C613 H635 0.950 . S
C614 N610 1.332 . S
C614 C613 1.382 . S
C614 H616 0.952 . S
C615 N610 1.332 . S
C615 C611 1.382 . S
C615 H617 0.948 . S
H616 C614 0.952 . S
H617 C615 0.948 . S
H618 C607 0.952 . S
H619 C609 0.948 . S
C620 C586 1.395 . S
C620 C590 1.391 . S
C621 C583 1.389 . S
C621 C603 1.392 . S
C622 C593 1.392 . S
C622 C595 1.389 . S
C623 C598 1.395 . S
C623 C600 1.391 . S
H624 C584 0.951 . S
H625 C585 0.950 . S
H626 C591 0.949 . S
H627 C592 0.950 . S
H628 C596 0.951 . S
H629 C597 0.950 . S
H630 C601 0.949 . S
H631 C602 0.950 . S
H632 C606 0.950 . S
H633 C608 0.950 . S
H634 C611 0.950 . S
H635 C613 0.950 . S
C636 C637 1.443 . S
C636 N640 1.376 . S
C636 C674 1.389 . S
C637 C636 1.443 . S
C637 C638 1.340 . S
C637 H677 0.951 . S
C638 C637 1.340 . S
C638 C639 1.439 . S
C638 H678 0.950 . S
C639 C638 1.439 . S
C639 N640 1.374 . S
C639 C673 1.395 . S
N640 C636 1.376 . S
N640 C639 1.374 . S
N640 Co641 2.008 . S
Co641 N640 2.008 . S
Co641 N642 1.995 . S
Co641 N647 2.008 . S
Co641 N652 1.995 . S
Co641 N657 2.282 . S
Co641 N663 2.282 . S
N642 Co641 1.995 . S
N642 C643 1.376 . S
N642 C646 1.383 . S
C643 N642 1.376 . S
C643 C644 1.446 . S
C643 C673 1.391 . S
C644 C643 1.446 . S
C644 C645 1.339 . S
C644 H679 0.949 . S
C645 C644 1.339 . S
C645 C646 1.439 . S
C645 H680 0.950 . S
C646 N642 1.383 . S
C646 C645 1.439 . S
C646 C675 1.392 . S
N647 Co641 2.008 . S
N647 C648 1.376 . S
N647 C651 1.374 . S
C648 N647 1.376 . S
C648 C649 1.443 . S
C648 C675 1.389 . S
C649 C648 1.443 . S
C649 C650 1.340 . S
C649 H681 0.951 . S
C650 C649 1.340 . S
C650 C651 1.439 . S
C650 H682 0.950 . S
C651 N647 1.374 . S
C651 C650 1.439 . S
C651 C676 1.395 . S
N652 Co641 1.995 . S
N652 C653 1.376 . S
N652 C656 1.383 . S
C653 N652 1.376 . S
C653 C654 1.446 . S
C653 C676 1.391 . S
C654 C653 1.446 . S
C654 C655 1.339 . S
C654 H683 0.949 . S
C655 C654 1.339 . S
C655 C656 1.439 . S
C655 H684 0.950 . S
C656 N652 1.383 . S
C656 C655 1.439 . S
C656 C674 1.392 . S
N657 Co641 2.282 . S
N657 C660 1.332 . S
N657 C662 1.332 . S
C658 C659 1.386 . S
C658 C661 1.388 . S
C659 C658 1.386 . S
C659 C660 1.382 . S
C659 H685 0.950 . S
C660 N657 1.332 . S
C660 C659 1.382 . S
C660 H671 0.952 . S
C661 C658 1.388 . S
C661 C662 1.382 . S
C661 H686 0.950 . S
C662 N657 1.332 . S
C662 C661 1.382 . S
C662 H672 0.948 . S
N663 Co641 2.282 . S
N663 C667 1.332 . S
N663 C668 1.332 . S
C664 C665 1.388 . S
C664 C668 1.382 . S
C664 H687 0.950 . S
C665 C664 1.388 . S
C665 C666 1.386 . S
C666 C665 1.386 . S
C666 C667 1.382 . S
C666 H688 0.950 . S
C667 N663 1.332 . S
C667 C666 1.382 . S
C667 H669 0.952 . S
C668 N663 1.332 . S
C668 C664 1.382 . S
C668 H670 0.948 . S
H669 C667 0.952 . S
H670 C668 0.948 . S
H671 C660 0.952 . S
H672 C662 0.948 . S
C673 C639 1.395 . S
C673 C643 1.391 . S
C674 C636 1.389 . S
C674 C656 1.392 . S
C675 C646 1.392 . S
C675 C648 1.389 . S
C676 C651 1.395 . S
C676 C653 1.391 . S
H677 C637 0.951 . S
H678 C638 0.950 . S
H679 C644 0.949 . S
H680 C645 0.950 . S
H681 C649 0.951 . S
H682 C650 0.950 . S
H683 C654 0.949 . S
H684 C655 0.950 . S
H685 C659 0.950 . S
H686 C661 0.950 . S
H687 C664 0.950 . S
H688 C666 0.950 . S
C689 C690 1.443 . S
C689 N693 1.376 . S
C689 C727 1.389 . S
C690 C689 1.443 . S
C690 C691 1.340 . S
C690 H730 0.951 . S
C691 C690 1.340 . S
C691 C692 1.439 . S
C691 H731 0.950 . S
C692 C691 1.439 . S
C692 N693 1.374 . S
C692 C726 1.395 . S
N693 C689 1.376 . S
N693 C692 1.374 . S
N693 Co694 2.008 . S
Co694 N693 2.008 . S
Co694 N695 1.995 . S
Co694 N700 2.008 . S
Co694 N705 1.995 . S
Co694 N710 2.282 . S
Co694 N716 2.282 . S
N695 Co694 1.995 . S
N695 C696 1.376 . S
N695 C699 1.383 . S
C696 N695 1.376 . S
C696 C697 1.446 . S
C696 C726 1.391 . S
C697 C696 1.446 . S
C697 C698 1.339 . S
C697 H732 0.949 . S
C698 C697 1.339 . S
C698 C699 1.439 . S
C698 H733 0.950 . S
C699 N695 1.383 . S
C699 C698 1.439 . S
C699 C728 1.392 . S
N700 Co694 2.008 . S
N700 C701 1.376 . S
N700 C704 1.374 . S
C701 N700 1.376 . S
C701 C702 1.443 . S
C701 C728 1.389 . S
C702 C701 1.443 . S
C702 C703 1.340 . S
C702 H734 0.951 . S
C703 C702 1.340 . S
C703 C704 1.439 . S
C703 H735 0.950 . S
C704 N700 1.374 . S
C704 C703 1.439 . S
C704 C729 1.395 . S
N705 Co694 1.995 . S
N705 C706 1.376 . S
N705 C709 1.383 . S
C706 N705 1.376 . S
C706 C707 1.446 . S
C706 C729 1.391 . S
C707 C706 1.446 . S
C707 C708 1.339 . S
C707 H736 0.949 . S
C708 C707 1.339 . S
C708 C709 1.439 . S
C708 H737 0.950 . S
C709 N705 1.383 . S
C709 C708 1.439 . S
C709 C727 1.392 . S
N710 Co694 2.282 . S
N710 C713 1.332 . S
N710 C715 1.332 . S
C711 C712 1.386 . S
C711 C714 1.388 . S
C712 C711 1.386 . S
C712 C713 1.382 . S
C712 H738 0.950 . S
C713 N710 1.332 . S
C713 C712 1.382 . S
C713 H724 0.952 . S
C714 C711 1.388 . S
C714 C715 1.382 . S
C714 H739 0.950 . S
C715 N710 1.332 . S
C715 C714 1.382 . S
C715 H725 0.948 . S
N716 Co694 2.282 . S
N716 C720 1.332 . S
N716 C721 1.332 . S
C717 C718 1.388 . S
C717 C721 1.382 . S
C717 H740 0.950 . S
C718 C717 1.388 . S
C718 C719 1.386 . S
C719 C718 1.386 . S
C719 C720 1.382 . S
C719 H741 0.950 . S
C720 N716 1.332 . S
C720 C719 1.382 . S
C720 H722 0.952 . S
C721 N716 1.332 . S
C721 C717 1.382 . S
C721 H723 0.948 . S
H722 C720 0.952 . S
H723 C721 0.948 . S
H724 C713 0.952 . S
H725 C715 0.948 . S
C726 C692 1.395 . S
C726 C696 1.391 . S
C727 C689 1.389 . S
C727 C709 1.392 . S
C728 C699 1.392 . S
C728 C701 1.389 . S
C729 C704 1.395 . S
C729 C706 1.391 . S
H730 C690 0.951 . S
H731 C691 0.950 . S
H732 C697 0.949 . S
H733 C698 0.950 . S
H734 C702 0.951 . S
H735 C703 0.950 . S
H736 C707 0.949 . S
H737 C708 0.950 . S
H738 C712 0.950 . S
H739 C714 0.950 . S
H740 C717 0.950 . S
H741 C719 0.950 . S
C742 C743 1.443 . S
C742 N746 1.376 . S
C742 C780 1.389 . S
C743 C742 1.443 . S
C743 C744 1.340 . S
C743 H783 0.951 . S
C744 C743 1.340 . S
C744 C745 1.439 . S
C744 H784 0.950 . S
C745 C744 1.439 . S
C745 N746 1.374 . S
C745 C779 1.395 . S
N746 C742 1.376 . S
N746 C745 1.374 . S
N746 Co747 2.008 . S
Co747 N746 2.008 . S
Co747 N748 1.995 . S
Co747 N753 2.008 . S
Co747 N758 1.995 . S
Co747 N763 2.282 . S
Co747 N769 2.282 . S
N748 Co747 1.995 . S
N748 C749 1.376 . S
N748 C752 1.383 . S
C749 N748 1.376 . S
C749 C750 1.446 . S
C749 C779 1.391 . S
C750 C749 1.446 . S
C750 C751 1.339 . S
C750 H785 0.949 . S
C751 C750 1.339 . S
C751 C752 1.439 . S
C751 H786 0.950 . S
C752 N748 1.383 . S
C752 C751 1.439 . S
C752 C781 1.392 . S
N753 Co747 2.008 . S
N753 C754 1.376 . S
N753 C757 1.374 . S
C754 N753 1.376 . S
C754 C755 1.443 . S
C754 C781 1.389 . S
C755 C754 1.443 . S
C755 C756 1.340 . S
C755 H787 0.951 . S
C756 C755 1.340 . S
C756 C757 1.439 . S
C756 H788 0.950 . S
C757 N753 1.374 . S
C757 C756 1.439 . S
C757 C782 1.395 . S
N758 Co747 1.995 . S
N758 C759 1.376 . S
N758 C762 1.383 . S
C759 N758 1.376 . S
C759 C760 1.446 . S
C759 C782 1.391 . S
C760 C759 1.446 . S
C760 C761 1.339 . S
C760 H789 0.949 . S
C761 C760 1.339 . S
C761 C762 1.439 . S
C761 H790 0.950 . S
C762 N758 1.383 . S
C762 C761 1.439 . S
C762 C780 1.392 . S
N763 Co747 2.282 . S
N763 C766 1.332 . S
N763 C768 1.332 . S
C764 C765 1.386 . S
C764 C767 1.388 . S
C765 C764 1.386 . S
C765 C766 1.382 . S
C765 H791 0.950 . S
C766 N763 1.332 . S
C766 C765 1.382 . S
C766 H777 0.952 . S
C767 C764 1.388 . S
C767 C768 1.382 . S
C767 H792 0.950 . S
C768 N763 1.332 . S
C768 C767 1.382 . S
C768 H778 0.948 . S
N769 Co747 2.282 . S
N769 C773 1.332 . S
N769 C774 1.332 . S
C770 C771 1.388 . S
C770 C774 1.382 . S
C770 H793 0.950 . S
C771 C770 1.388 . S
C771 C772 1.386 . S
C772 C771 1.386 . S
C772 C773 1.382 . S
C772 H794 0.950 . S
C773 N769 1.332 . S
C773 C772 1.382 . S
C773 H775 0.952 . S
C774 N769 1.332 . S
C774 C770 1.382 . S
C774 H776 0.948 . S
H775 C773 0.952 . S
H776 C774 0.948 . S
H777 C766 0.952 . S
H778 C768 0.948 . S
C779 C745 1.395 . S
C779 C749 1.391 . S
C780 C742 1.389 . S
C780 C762 1.392 . S
C781 C752 1.392 . S
C781 C754 1.389 . S
C782 C757 1.395 . S
C782 C759 1.391 . S
H783 C743 0.951 . S
H784 C744 0.950 . S
H785 C750 0.949 . S
H786 C751 0.950 . S
H787 C755 0.951 . S
H788 C756 0.950 . S
H789 C760 0.949 . S
H790 C761 0.950 . S
H791 C765 0.950 . S
H792 C767 0.950 . S
H793 C770 0.950 . S
H794 C772 0.950 . S
C795 C796 1.443 . S
C795 N799 1.376 . S
C795 C833 1.389 . S
C796 C795 1.443 . S
C796 C797 1.340 . S
C796 H836 0.951 . S
C797 C796 1.340 . S
C797 C798 1.439 . S
C797 H837 0.950 . S
C798 C797 1.439 . S
C798 N799 1.374 . S
C798 C832 1.395 . S
N799 C795 1.376 . S
N799 C798 1.374 . S
N799 Co800 2.008 . S
Co800 N799 2.008 . S
Co800 N801 1.995 . S
Co800 N806 2.008 . S
Co800 N811 1.995 . S
Co800 N816 2.282 . S
Co800 N822 2.282 . S
N801 Co800 1.995 . S
N801 C802 1.376 . S
N801 C805 1.383 . S
C802 N801 1.376 . S
C802 C803 1.446 . S
C802 C832 1.391 . S
C803 C802 1.446 . S
C803 C804 1.339 . S
C803 H838 0.949 . S
C804 C803 1.339 . S
C804 C805 1.439 . S
C804 H839 0.950 . S
C805 N801 1.383 . S
C805 C804 1.439 . S
C805 C834 1.392 . S
N806 Co800 2.008 . S
N806 C807 1.376 . S
N806 C810 1.374 . S
C807 N806 1.376 . S
C807 C808 1.443 . S
C807 C834 1.389 . S
C808 C807 1.443 . S
C808 C809 1.340 . S
C808 H840 0.951 . S
C809 C808 1.340 . S
C809 C810 1.439 . S
C809 H841 0.950 . S
C810 N806 1.374 . S
C810 C809 1.439 . S
C810 C835 1.395 . S
N811 Co800 1.995 . S
N811 C812 1.376 . S
N811 C815 1.383 . S
C812 N811 1.376 . S
C812 C813 1.446 . S
C812 C835 1.391 . S
C813 C812 1.446 . S
C813 C814 1.339 . S
C813 H842 0.949 . S
C814 C813 1.339 . S
C814 C815 1.439 . S
C814 H843 0.950 . S
C815 N811 1.383 . S
C815 C814 1.439 . S
C815 C833 1.392 . S
N816 Co800 2.282 . S
N816 C819 1.332 . S
N816 C821 1.332 . S
C817 C818 1.386 . S
C817 C820 1.388 . S
C818 C817 1.386 . S
C818 C819 1.382 . S
C818 H844 0.950 . S
C819 N816 1.332 . S
C819 C818 1.382 . S
C819 H830 0.952 . S
C820 C817 1.388 . S
C820 C821 1.382 . S
C820 H845 0.950 . S
C821 N816 1.332 . S
C821 C820 1.382 . S
C821 H831 0.948 . S
N822 Co800 2.282 . S
N822 C826 1.332 . S
N822 C827 1.332 . S
C823 C824 1.388 . S
C823 C827 1.382 . S
C823 H846 0.950 . S
C824 C823 1.388 . S
C824 C825 1.386 . S
C825 C824 1.386 . S
C825 C826 1.382 . S
C825 H847 0.950 . S
C826 N822 1.332 . S
C826 C825 1.382 . S
C826 H828 0.952 . S
C827 N822 1.332 . S
C827 C823 1.382 . S
C827 H829 0.948 . S
H828 C826 0.952 . S
H829 C827 0.948 . S
H830 C819 0.952 . S
H831 C821 0.948 . S
C832 C798 1.395 . S
C832 C802 1.391 . S
C833 C795 1.389 . S
C833 C815 1.392 . S
C834 C805 1.392 . S
C834 C807 1.389 . S
C835 C810 1.395 . S
C835 C812 1.391 . S
H836 C796 0.951 . S
H837 C797 0.950 . S
H838 C803 0.949 . S
H839 C804 0.950 . S
H840 C808 0.951 . S
H841 C809 0.950 . S
H842 C813 0.949 . S
H843 C814 0.950 . S
H844 C818 0.950 . S
H845 C820 0.950 . S
H846 C823 0.950 . S
H847 C825 0.950 . S
C848 C849 1.443 . S
C848 N852 1.376 . S
C848 C886 1.389 1_655 S
C849 C848 1.443 . S
C849 C850 1.340 . S
C849 H889 0.951 . S
C850 C849 1.340 . S
C850 C851 1.439 . S
C850 H890 0.950 . S
C851 C850 1.439 . S
C851 N852 1.374 . S
C851 C885 1.395 . S
N852 C848 1.376 . S
N852 C851 1.374 . S
N852 Co853 2.008 . S
Co853 N852 2.008 . S
Co853 N854 1.995 . S
Co853 N859 2.008 1_645 S
Co853 N864 1.983 1_645 S
Co853 N869 2.282 1_545 S
Co853 N875 2.282 1_655 S
N854 Co853 1.995 . S
N854 C855 1.376 . S
N854 C858 1.383 . S
C855 N854 1.376 . S
C855 C856 1.446 . S
C855 C885 1.391 . S
C856 C855 1.446 . S
C856 C857 1.339 . S
C856 H891 0.949 . S
C857 C856 1.339 . S
C857 C858 1.439 . S
C857 H892 0.950 . S
C858 N854 1.383 . S
C858 C857 1.439 . S
C858 C887 1.392 1_545 S
N859 Co853 2.008 1_465 S
N859 C860 1.376 . S
N859 C863 1.374 . S
C860 N859 1.376 . S
C860 C861 1.443 . S
C860 C887 1.389 1_455 S
C861 C860 1.443 . S
C861 C862 1.340 . S
C861 H893 0.951 . S
C862 C861 1.340 . S
C862 C863 1.439 . S
C862 H894 0.950 . S
C863 N859 1.374 . S
C863 C862 1.439 . S
C863 C888 1.395 . S
N864 Co853 1.983 1_465 S
N864 C865 1.404 . S
N864 C868 1.368 1_565 S
C865 N864 1.404 . S
C865 C866 1.446 . S
C865 C888 1.391 . S
C866 C865 1.446 . S
C866 C867 1.339 . S
C866 H895 0.949 . S
C867 C866 1.339 . S
C867 C868 1.439 1_565 S
C867 H896 0.949 . S
C868 N864 1.368 1_545 S
C868 C867 1.439 1_545 S
C868 C886 1.392 . S
N869 Co853 2.282 1_565 S
N869 C872 1.332 . S
N869 C874 1.332 1_565 S
C870 C871 1.386 . S
C870 C873 1.388 . S
C871 C870 1.386 . S
C871 C872 1.382 . S
C871 H897 0.950 . S
C872 N869 1.332 . S
C872 C871 1.382 . S
C872 H883 0.952 . S
C873 C870 1.388 . S
C873 C874 1.382 1_565 S
C873 H898 0.950 . S
C874 N869 1.332 1_545 S
C874 C873 1.382 1_545 S
C874 H884 0.948 . S
N875 Co853 2.282 1_455 S
N875 C879 1.332 . S
N875 C880 1.332 . S
C876 C877 1.388 . S
C876 C880 1.382 . S
C876 H899 0.950 . S
C877 C876 1.388 . S
C877 C878 1.386 . S
C878 C877 1.386 . S
C878 C879 1.382 . S
C878 H900 0.950 . S
C879 N875 1.332 . S
C879 C878 1.382 . S
C879 H881 0.952 . S
C880 N875 1.332 . S
C880 C876 1.382 . S
C880 H882 0.948 . S
H881 C879 0.952 . S
H882 C880 0.948 . S
H883 C872 0.952 . S
H884 C874 0.948 . S
C885 C851 1.395 . S
C885 C855 1.391 . S
C886 C848 1.389 1_455 S
C886 C868 1.392 . S
C887 C858 1.392 1_565 S
C887 C860 1.389 1_655 S
C888 C863 1.395 . S
C888 C865 1.391 . S
H889 C849 0.951 . S
H890 C850 0.950 . S
H891 C856 0.949 . S
H892 C857 0.950 . S
H893 C861 0.951 . S
H894 C862 0.950 . S
H895 C866 0.949 . S
H896 C867 0.949 . S
H897 C871 0.950 . S
H898 C873 0.950 . S
H899 C876 0.950 . S
H900 C878 0.950 . S
C901 C902 1.443 . S
C901 N905 1.376 . S
C901 C939 1.389 . S
C902 C901 1.443 . S
C902 C903 1.340 . S
C902 H942 0.951 . S
C903 C902 1.340 . S
C903 C904 1.439 . S
C903 H943 0.950 . S
C904 C903 1.439 . S
C904 N905 1.374 . S
C904 C938 1.395 . S
N905 C901 1.376 . S
N905 C904 1.374 . S
N905 Co906 2.008 . S
Co906 N905 2.008 . S
Co906 N907 1.995 . S
Co906 N912 2.008 . S
Co906 N917 1.995 . S
Co906 N922 2.282 . S
Co906 N928 2.282 . S
N907 Co906 1.995 . S
N907 C908 1.376 . S
N907 C911 1.383 . S
C908 N907 1.376 . S
C908 C909 1.446 . S
C908 C938 1.391 . S
C909 C908 1.446 . S
C909 C910 1.339 . S
C909 H944 0.949 . S
C910 C909 1.339 . S
C910 C911 1.439 . S
C910 H945 0.950 . S
C911 N907 1.383 . S
C911 C910 1.439 . S
C911 C940 1.392 . S
N912 Co906 2.008 . S
N912 C913 1.376 . S
N912 C916 1.374 . S
C913 N912 1.376 . S
C913 C914 1.443 . S
C913 C940 1.389 . S
C914 C913 1.443 . S
C914 C915 1.340 . S
C914 H946 0.951 . S
C915 C914 1.340 . S
C915 C916 1.439 . S
C915 H947 0.950 . S
C916 N912 1.374 . S
C916 C915 1.439 . S
C916 C941 1.395 . S
N917 Co906 1.995 . S
N917 C918 1.376 . S
N917 C921 1.383 . S
C918 N917 1.376 . S
C918 C919 1.446 . S
C918 C941 1.391 . S
C919 C918 1.446 . S
C919 C920 1.339 . S
C919 H948 0.949 . S
C920 C919 1.339 . S
C920 C921 1.439 . S
C920 H949 0.950 . S
C921 N917 1.383 . S
C921 C920 1.439 . S
C921 C939 1.392 . S
N922 Co906 2.282 . S
N922 C925 1.332 . S
N922 C927 1.332 . S
C923 C924 1.386 . S
C923 C926 1.388 . S
C924 C923 1.386 . S
C924 C925 1.382 . S
C924 H950 0.950 . S
C925 N922 1.332 . S
C925 C924 1.382 . S
C925 H936 0.952 . S
C926 C923 1.388 . S
C926 C927 1.382 . S
C926 H951 0.950 . S
C927 N922 1.332 . S
C927 C926 1.382 . S
C927 H937 0.948 . S
N928 Co906 2.282 . S
N928 C932 1.332 . S
N928 C933 1.332 . S
C929 C930 1.388 . S
C929 C933 1.382 . S
C929 H952 0.950 . S
C930 C929 1.388 . S
C930 C931 1.386 . S
C931 C930 1.386 . S
C931 C932 1.382 . S
C931 H953 0.950 . S
C932 N928 1.332 . S
C932 C931 1.382 . S
C932 H934 0.952 . S
C933 N928 1.332 . S
C933 C929 1.382 . S
C933 H935 0.948 . S
H934 C932 0.952 . S
H935 C933 0.948 . S
H936 C925 0.952 . S
H937 C927 0.948 . S
C938 C904 1.395 . S
C938 C908 1.391 . S
C939 C901 1.389 . S
C939 C921 1.392 . S
C940 C911 1.392 . S
C940 C913 1.389 . S
C941 C916 1.395 . S
C941 C918 1.391 . S
H942 C902 0.951 . S
H943 C903 0.950 . S
H944 C909 0.949 . S
H945 C910 0.950 . S
H946 C914 0.951 . S
H947 C915 0.950 . S
H948 C919 0.949 . S
H949 C920 0.950 . S
H950 C924 0.950 . S
H951 C926 0.950 . S
H952 C929 0.950 . S
H953 C931 0.950 . S
C954 C955 1.443 . S
C954 N958 1.376 . S
C954 C992 1.389 1_655 S
C955 C954 1.443 . S
C955 C956 1.340 . S
C955 H995 0.951 . S
C956 C955 1.340 . S
C956 C957 1.439 . S
C956 H996 0.950 . S
C957 C956 1.439 . S
C957 N958 1.374 . S
C957 C991 1.395 . S
N958 C954 1.376 . S
N958 C957 1.374 . S
N958 Co959 2.008 . S
Co959 N958 2.008 . S
Co959 N960 1.995 . S
Co959 N965 2.008 1_655 S
Co959 N970 1.995 1_655 S
Co959 N975 2.282 . S
Co959 N981 2.282 1_655 S
N960 Co959 1.995 . S
N960 C961 1.376 . S
N960 C964 1.383 . S
C961 N960 1.376 . S
C961 C962 1.446 . S
C961 C991 1.391 . S
C962 C961 1.446 . S
C962 C963 1.339 . S
C962 H997 0.949 . S
C963 C962 1.339 . S
C963 C964 1.439 . S
C963 H998 0.950 . S
C964 N960 1.383 . S
C964 C963 1.439 . S
C964 C993 1.392 . S
N965 Co959 2.008 1_455 S
N965 C966 1.376 . S
N965 C969 1.374 . S
C966 N965 1.376 . S
C966 C967 1.443 . S
C966 C993 1.389 1_455 S
C967 C966 1.443 . S
C967 C968 1.340 . S
C967 H999 0.951 . S
C968 C967 1.340 . S
C968 C969 1.439 . S
C968 H1000 0.950 . S
C969 N965 1.374 . S
C969 C968 1.439 . S
C969 C994 1.395 . S
N970 Co959 1.995 1_455 S
N970 C971 1.376 . S
N970 C974 1.383 . S
C971 N970 1.376 . S
C971 C972 1.446 . S
C971 C994 1.391 . S
C972 C971 1.446 . S
C972 C973 1.339 . S
C972 H1001 0.949 . S
C973 C972 1.339 . S
C973 C974 1.439 . S
C973 H1002 0.950 . S
C974 N970 1.383 . S
C974 C973 1.439 . S
C974 C992 1.392 . S
N975 Co959 2.282 . S
N975 C978 1.332 . S
N975 C980 1.332 . S
C976 C977 1.386 . S
C976 C979 1.388 . S
C977 C976 1.386 . S
C977 C978 1.382 . S
C977 H1003 0.950 . S
C978 N975 1.332 . S
C978 C977 1.382 . S
C978 H989 0.952 . S
C979 C976 1.388 . S
C979 C980 1.382 . S
C979 H1004 0.950 . S
C980 N975 1.332 . S
C980 C979 1.382 . S
C980 H990 0.948 . S
N981 Co959 2.282 1_455 S
N981 C985 1.332 . S
N981 C986 1.332 . S
C982 C983 1.388 . S
C982 C986 1.382 . S
C982 H1005 0.950 . S
C983 C982 1.388 . S
C983 C984 1.386 . S
C984 C983 1.386 . S
C984 C985 1.382 . S
C984 H1006 0.950 . S
C985 N981 1.332 . S
C985 C984 1.382 . S
C985 H987 0.952 . S
C986 N981 1.332 . S
C986 C982 1.382 . S
C986 H988 0.948 . S
H987 C985 0.952 . S
H988 C986 0.948 . S
H989 C978 0.952 . S
H990 C980 0.948 . S
C991 C957 1.395 . S
C991 C961 1.391 . S
C992 C954 1.389 1_455 S
C992 C974 1.392 . S
C993 C964 1.392 . S
C993 C966 1.389 1_655 S
C994 C969 1.395 . S
C994 C971 1.391 . S
H995 C955 0.951 . S
H996 C956 0.950 . S
H997 C962 0.949 . S
H998 C963 0.950 . S
H999 C967 0.951 . S
H1000 C968 0.950 . S
H1001 C972 0.949 . S
H1002 C973 0.950 . S
H1003 C977 0.950 . S
H1004 C979 0.950 . S
H1005 C982 0.950 . S
H1006 C984 0.950 . S
C1007 C1008 1.443 . S
C1007 N1011 1.376 . S
C1007 C1045 1.389 . S
C1008 C1007 1.443 . S
C1008 C1009 1.340 . S
C1008 H1048 0.951 . S
C1009 C1008 1.340 . S
C1009 C1010 1.439 . S
C1009 H1049 0.950 . S
C1010 C1009 1.439 . S
C1010 N1011 1.374 . S
C1010 C1044 1.395 . S
N1011 C1007 1.376 . S
N1011 C1010 1.374 . S
N1011 Co1012 2.008 . S
Co1012 N1011 2.008 . S
Co1012 N1013 1.995 . S
Co1012 N1018 2.008 1_545 S
Co1012 N1023 1.995 1_545 S
Co1012 N1028 2.282 1_545 S
Co1012 N1034 2.282 . S
N1013 Co1012 1.995 . S
N1013 C1014 1.376 . S
N1013 C1017 1.383 . S
C1014 N1013 1.376 . S
C1014 C1015 1.446 . S
C1014 C1044 1.391 . S
C1015 C1014 1.446 . S
C1015 C1016 1.339 . S
C1015 H1050 0.949 . S
C1016 C1015 1.339 . S
C1016 C1017 1.439 . S
C1016 H1051 0.950 . S
C1017 N1013 1.383 . S
C1017 C1016 1.439 . S
C1017 C1046 1.392 1_545 S
N1018 Co1012 2.008 1_565 S
N1018 C1019 1.376 . S
N1018 C1022 1.374 . S
C1019 N1018 1.376 . S
C1019 C1020 1.443 . S
C1019 C1046 1.389 . S
C1020 C1019 1.443 . S
C1020 C1021 1.340 . S
C1020 H1052 0.951 . S
C1021 C1020 1.340 . S
C1021 C1022 1.439 . S
C1021 H1053 0.950 . S
C1022 N1018 1.374 . S
C1022 C1021 1.439 . S
C1022 C1047 1.395 . S
N1023 Co1012 1.995 1_565 S
N1023 C1024 1.376 . S
N1023 C1027 1.383 1_565 S
C1024 N1023 1.376 . S
C1024 C1025 1.446 . S
C1024 C1047 1.391 . S
C1025 C1024 1.446 . S
C1025 C1026 1.339 . S
C1025 H1054 0.949 . S
C1026 C1025 1.339 . S
C1026 C1027 1.439 1_565 S
C1026 H1055 0.950 . S
C1027 N1023 1.383 1_545 S
C1027 C1026 1.439 1_545 S
C1027 C1045 1.392 . S
N1028 Co1012 2.282 1_565 S
N1028 C1031 1.332 . S
N1028 C1033 1.328 1_565 S
C1029 C1030 1.386 . S
C1029 C1032 1.388 . S
C1030 C1029 1.386 . S
C1030 C1031 1.382 . S
C1030 H1056 0.950 . S
C1031 N1028 1.332 . S
C1031 C1030 1.382 . S
C1031 H1042 0.952 . S
C1032 C1029 1.388 . S
C1032 C1033 1.375 1_565 S
C1032 H1057 0.950 . S
C1033 N1028 1.328 1_545 S
C1033 C1032 1.375 1_545 S
C1033 H1043 0.960 . S
N1034 Co1012 2.282 . S
N1034 C1038 1.332 . S
N1034 C1039 1.332 . S
C1035 C1036 1.388 . S
C1035 C1039 1.382 . S
C1035 H1058 0.950 . S
C1036 C1035 1.388 . S
C1036 C1037 1.386 . S
C1037 C1036 1.386 . S
C1037 C1038 1.382 . S
C1037 H1059 0.950 . S
C1038 N1034 1.332 . S
C1038 C1037 1.382 . S
C1038 H1040 0.952 . S
C1039 N1034 1.332 . S
C1039 C1035 1.382 . S
C1039 H1041 0.948 . S
H1040 C1038 0.952 . S
H1041 C1039 0.948 . S
H1042 C1031 0.952 . S
H1043 C1033 0.960 . S
C1044 C1010 1.395 . S
C1044 C1014 1.391 . S
C1045 C1007 1.389 . S
C1045 C1027 1.392 . S
C1046 C1017 1.392 1_565 S
C1046 C1019 1.389 . S
C1047 C1022 1.395 . S
C1047 C1024 1.391 . S
H1048 C1008 0.951 . S
H1049 C1009 0.950 . S
H1050 C1015 0.949 . S
H1051 C1016 0.950 . S
H1052 C1020 0.951 . S
H1053 C1021 0.950 . S
H1054 C1025 0.949 . S
H1055 C1026 0.950 . S
H1056 C1030 0.950 . S
H1057 C1032 0.950 . S
H1058 C1035 0.950 . S
H1059 C1037 0.950 . S
C1060 C1061 1.442 1_565 S
C1060 N1064 1.376 . S
C1060 C1098 1.389 . S
C1061 C1060 1.442 1_545 S
C1061 C1062 1.342 . S
C1061 H1101 0.951 1_545 S
C1062 C1061 1.342 . S
C1062 C1063 1.439 . S
C1062 H1102 0.950 . S
C1063 C1062 1.439 . S
C1063 N1064 1.374 1_545 S
C1063 C1097 1.395 . S
N1064 C1060 1.376 . S
N1064 C1063 1.374 1_565 S
N1064 Co1065 2.008 1_655 S
Co1065 N1064 2.008 1_455 S
Co1065 N1066 1.995 1_465 S
Co1065 N1071 2.008 . S
Co1065 N1076 1.995 . S
Co1065 N1081 2.282 1_565 S
Co1065 N1087 2.282 1_455 S
N1066 Co1065 1.995 1_645 S
N1066 C1067 1.376 . S
N1066 C1070 1.383 . S
C1067 N1066 1.376 . S
C1067 C1068 1.446 . S
C1067 C1097 1.391 . S
C1068 C1067 1.446 . S
C1068 C1069 1.339 . S
C1068 H1103 0.949 . S
C1069 C1068 1.339 . S
C1069 C1070 1.439 . S
C1069 H1104 0.950 . S
C1070 N1066 1.383 . S
C1070 C1069 1.439 . S
C1070 C1099 1.392 1_655 S
N1071 Co1065 2.008 . S
N1071 C1072 1.376 . S
N1071 C1075 1.374 . S
C1072 N1071 1.376 . S
C1072 C1073 1.443 . S
C1072 C1099 1.389 1_565 S
C1073 C1072 1.443 . S
C1073 C1074 1.340 . S
C1073 H1105 0.951 . S
C1074 C1073 1.340 . S
C1074 C1075 1.439 . S
C1074 H1106 0.950 . S
C1075 N1071 1.374 . S
C1075 C1074 1.439 . S
C1075 C1100 1.395 . S
N1076 Co1065 1.995 . S
N1076 C1077 1.376 . S
N1076 C1080 1.383 . S
C1077 N1076 1.376 . S
C1077 C1078 1.446 . S
C1077 C1100 1.391 . S
C1078 C1077 1.446 . S
C1078 C1079 1.339 . S
C1078 H1107 0.949 . S
C1079 C1078 1.339 . S
C1079 C1080 1.439 . S
C1079 H1108 0.950 . S
C1080 N1076 1.383 . S
C1080 C1079 1.439 . S
C1080 C1098 1.392 1_455 S
N1081 Co1065 2.282 1_545 S
N1081 C1084 1.332 1_545 S
N1081 C1086 1.332 . S
C1082 C1083 1.386 . S
C1082 C1085 1.388 . S
C1083 C1082 1.386 . S
C1083 C1084 1.382 1_545 S
C1083 H1109 0.950 . S
C1084 N1081 1.332 1_565 S
C1084 C1083 1.382 1_565 S
C1084 H1095 0.952 . S
C1085 C1082 1.388 . S
C1085 C1086 1.382 . S
C1085 H1110 0.950 . S
C1086 N1081 1.332 . S
C1086 C1085 1.382 . S
C1086 H1096 0.948 . S
N1087 Co1065 2.282 1_655 S
N1087 C1091 1.332 . S
N1087 C1092 1.332 . S
C1088 C1089 1.388 . S
C1088 C1092 1.382 . S
C1088 H1111 0.950 . S
C1089 C1088 1.388 . S
C1089 C1090 1.386 . S
C1090 C1089 1.386 . S
C1090 C1091 1.382 . S
C1090 H1112 0.950 . S
C1091 N1087 1.332 . S
C1091 C1090 1.382 . S
C1091 H1093 0.952 . S
C1092 N1087 1.332 . S
C1092 C1088 1.382 . S
C1092 H1094 0.948 . S
H1093 C1091 0.952 . S
H1094 C1092 0.948 . S
H1095 C1084 0.952 . S
H1096 C1086 0.948 . S
C1097 C1063 1.395 . S
C1097 C1067 1.391 . S
C1098 C1060 1.389 . S
C1098 C1080 1.392 1_655 S
C1099 C1070 1.392 1_455 S
C1099 C1072 1.389 1_545 S
C1100 C1075 1.395 . S
C1100 C1077 1.391 . S
H1101 C1061 0.951 1_565 S
H1102 C1062 0.950 . S
H1103 C1068 0.949 . S
H1104 C1069 0.950 . S
H1105 C1073 0.951 . S
H1106 C1074 0.950 . S
H1107 C1078 0.949 . S
H1108 C1079 0.950 . S
H1109 C1083 0.950 . S
H1110 C1085 0.950 . S
H1111 C1088 0.950 . S
H1112 C1090 0.950 . S
C1113 C1114 1.443 . S
C1113 N1117 1.376 . S
C1113 C1151 1.389 . S
C1114 C1113 1.443 . S
C1114 C1115 1.340 . S
C1114 H1154 0.951 . S
C1115 C1114 1.340 . S
C1115 C1116 1.439 . S
C1115 H1155 0.950 . S
C1116 C1115 1.439 . S
C1116 N1117 1.374 . S
C1116 C1150 1.395 . S
N1117 C1113 1.376 . S
N1117 C1116 1.374 . S
N1117 Co1118 2.008 . S
Co1118 N1117 2.008 . S
Co1118 N1119 1.995 . S
Co1118 N1124 2.008 . S
Co1118 N1129 1.995 . S
Co1118 N1134 2.282 . S
Co1118 N1140 2.282 . S
N1119 Co1118 1.995 . S
N1119 C1120 1.376 . S
N1119 C1123 1.383 . S
C1120 N1119 1.376 . S
C1120 C1121 1.446 . S
C1120 C1150 1.391 . S
C1121 C1120 1.446 . S
C1121 C1122 1.339 . S
C1121 H1156 0.949 . S
C1122 C1121 1.339 . S
C1122 C1123 1.439 . S
C1122 H1157 0.950 . S
C1123 N1119 1.383 . S
C1123 C1122 1.439 . S
C1123 C1152 1.392 . S
N1124 Co1118 2.008 . S
N1124 C1125 1.376 . S
N1124 C1128 1.374 . S
C1125 N1124 1.376 . S
C1125 C1126 1.443 . S
C1125 C1152 1.389 . S
C1126 C1125 1.443 . S
C1126 C1127 1.340 . S
C1126 H1158 0.951 . S
C1127 C1126 1.340 . S
C1127 C1128 1.439 . S
C1127 H1159 0.950 . S
C1128 N1124 1.374 . S
C1128 C1127 1.439 . S
C1128 C1153 1.395 . S
N1129 Co1118 1.995 . S
N1129 C1130 1.376 . S
N1129 C1133 1.383 . S
C1130 N1129 1.376 . S
C1130 C1131 1.446 . S
C1130 C1153 1.391 . S
C1131 C1130 1.446 . S
C1131 C1132 1.339 . S
C1131 H1160 0.949 . S
C1132 C1131 1.339 . S
C1132 C1133 1.439 . S
C1132 H1161 0.950 . S
C1133 N1129 1.383 . S
C1133 C1132 1.439 . S
C1133 C1151 1.392 . S
N1134 Co1118 2.282 . S
N1134 C1137 1.332 . S
N1134 C1139 1.332 . S
C1135 C1136 1.386 . S
C1135 C1138 1.388 . S
C1136 C1135 1.386 . S
C1136 C1137 1.382 . S
C1136 H1162 0.950 . S
C1137 N1134 1.332 . S
C1137 C1136 1.382 . S
C1137 H1148 0.952 . S
C1138 C1135 1.388 . S
C1138 C1139 1.382 . S
C1138 H1163 0.950 . S
C1139 N1134 1.332 . S
C1139 C1138 1.382 . S
C1139 H1149 0.948 . S
N1140 Co1118 2.282 . S
N1140 C1144 1.332 . S
N1140 C1145 1.332 . S
C1141 C1142 1.388 . S
C1141 C1145 1.382 . S
C1141 H1164 0.950 . S
C1142 C1141 1.388 . S
C1142 C1143 1.386 . S
C1143 C1142 1.386 . S
C1143 C1144 1.382 . S
C1143 H1165 0.950 . S
C1144 N1140 1.332 . S
C1144 C1143 1.382 . S
C1144 H1146 0.952 . S
C1145 N1140 1.332 . S
C1145 C1141 1.382 . S
C1145 H1147 0.948 . S
H1146 C1144 0.952 . S
H1147 C1145 0.948 . S
H1148 C1137 0.952 . S
H1149 C1139 0.948 . S
C1150 C1116 1.395 . S
C1150 C1120 1.391 . S
C1151 C1113 1.389 . S
C1151 C1133 1.392 . S
C1152 C1123 1.392 . S
C1152 C1125 1.389 . S
C1153 C1128 1.395 . S
C1153 C1130 1.391 . S
H1154 C1114 0.951 . S
H1155 C1115 0.950 . S
H1156 C1121 0.949 . S
H1157 C1122 0.950 . S
H1158 C1126 0.951 . S
H1159 C1127 0.950 . S
H1160 C1131 0.949 . S
H1161 C1132 0.950 . S
H1162 C1136 0.950 . S
H1163 C1138 0.950 . S
H1164 C1141 0.950 . S
H1165 C1143 0.950 . S
C1166 C1167 1.443 . S
C1166 N1170 1.376 . S
C1166 C1204 1.389 . S
C1167 C1166 1.443 . S
C1167 C1168 1.340 . S
C1167 H1207 0.951 . S
C1168 C1167 1.340 . S
C1168 C1169 1.439 . S
C1168 H1208 0.950 . S
C1169 C1168 1.439 . S
C1169 N1170 1.374 . S
C1169 C1203 1.395 . S
N1170 C1166 1.376 . S
N1170 C1169 1.374 . S
N1170 Co1171 2.008 1_655 S
Co1171 N1170 2.008 1_455 S
Co1171 N1172 1.995 1_455 S
Co1171 N1177 2.008 . S
Co1171 N1182 1.995 . S
Co1171 N1187 2.282 . S
Co1171 N1193 2.282 1_455 S
N1172 Co1171 1.995 1_655 S
N1172 C1173 1.376 . S
N1172 C1176 1.383 . S
C1173 N1172 1.376 . S
C1173 C1174 1.446 . S
C1173 C1203 1.391 . S
C1174 C1173 1.446 . S
C1174 C1175 1.339 . S
C1174 H1209 0.949 . S
C1175 C1174 1.339 . S
C1175 C1176 1.439 . S
C1175 H1210 0.950 . S
C1176 N1172 1.383 . S
C1176 C1175 1.439 . S
C1176 C1205 1.392 1_655 S
N1177 Co1171 2.008 . S
N1177 C1178 1.376 . S
N1177 C1181 1.374 . S
C1178 N1177 1.376 . S
C1178 C1179 1.443 . S
C1178 C1205 1.389 . S
C1179 C1178 1.443 . S
C1179 C1180 1.340 . S
C1179 H1211 0.951 . S
C1180 C1179 1.340 . S
C1180 C1181 1.439 . S
C1180 H1212 0.950 . S
C1181 N1177 1.374 . S
C1181 C1180 1.439 . S
C1181 C1206 1.395 . S
N1182 Co1171 1.995 . S
N1182 C1183 1.376 . S
N1182 C1186 1.383 . S
C1183 N1182 1.376 . S
C1183 C1184 1.446 . S
C1183 C1206 1.391 . S
C1184 C1183 1.446 . S
C1184 C1185 1.339 . S
C1184 H1213 0.949 . S
C1185 C1184 1.339 . S
C1185 C1186 1.439 . S
C1185 H1214 0.950 . S
C1186 N1182 1.383 . S
C1186 C1185 1.439 . S
C1186 C1204 1.392 1_455 S
N1187 Co1171 2.282 . S
N1187 C1190 1.332 . S
N1187 C1192 1.332 . S
C1188 C1189 1.386 . S
C1188 C1191 1.388 . S
C1189 C1188 1.386 . S
C1189 C1190 1.382 . S
C1189 H1215 0.950 . S
C1190 N1187 1.332 . S
C1190 C1189 1.382 . S
C1190 H1201 0.952 . S
C1191 C1188 1.388 . S
C1191 C1192 1.382 . S
C1191 H1216 0.950 . S
C1192 N1187 1.332 . S
C1192 C1191 1.382 . S
C1192 H1202 0.948 . S
N1193 Co1171 2.282 1_655 S
N1193 C1197 1.332 . S
N1193 C1198 1.332 . S
C1194 C1195 1.388 . S
C1194 C1198 1.382 . S
C1194 H1217 0.950 . S
C1195 C1194 1.388 . S
C1195 C1196 1.386 . S
C1196 C1195 1.386 . S
C1196 C1197 1.382 . S
C1196 H1218 0.950 . S
C1197 N1193 1.332 . S
C1197 C1196 1.382 . S
C1197 H1199 0.952 . S
C1198 N1193 1.332 . S
C1198 C1194 1.382 . S
C1198 H1200 0.948 . S
H1199 C1197 0.952 . S
H1200 C1198 0.948 . S
H1201 C1190 0.952 . S
H1202 C1192 0.948 . S
C1203 C1169 1.395 . S
C1203 C1173 1.391 . S
C1204 C1166 1.389 . S
C1204 C1186 1.392 1_655 S
C1205 C1176 1.392 1_455 S
C1205 C1178 1.389 . S
C1206 C1181 1.395 . S
C1206 C1183 1.391 . S
H1207 C1167 0.951 . S
H1208 C1168 0.950 . S
H1209 C1174 0.949 . S
H1210 C1175 0.950 . S
H1211 C1179 0.951 . S
H1212 C1180 0.950 . S
H1213 C1184 0.949 . S
H1214 C1185 0.950 . S
H1215 C1189 0.950 . S
H1216 C1191 0.950 . S
H1217 C1194 0.950 . S
H1218 C1196 0.950 . S
C1219 C1220 1.443 1_565 S
C1219 N1223 1.376 1_565 S
C1219 C1257 1.389 . S
C1220 C1219 1.443 1_545 S
C1220 C1221 1.340 . S
C1220 H1260 0.951 1_545 S
C1221 C1220 1.340 . S
C1221 C1222 1.439 . S
C1221 H1261 0.950 . S
C1222 C1221 1.439 . S
C1222 N1223 1.374 . S
C1222 C1256 1.395 . S
N1223 C1219 1.376 1_545 S
N1223 C1222 1.374 . S
N1223 Co1224 2.008 1_545 S
Co1224 N1223 2.008 1_565 S
Co1224 N1225 1.995 1_565 S
Co1224 N1230 2.008 . S
Co1224 N1235 1.995 . S
Co1224 N1240 2.282 1_565 S
Co1224 N1246 2.282 . S
N1225 Co1224 1.995 1_545 S
N1225 C1226 1.376 . S
N1225 C1229 1.383 . S
C1226 N1225 1.376 . S
C1226 C1227 1.446 . S
C1226 C1256 1.391 . S
C1227 C1226 1.446 . S
C1227 C1228 1.339 . S
C1227 H1262 0.949 . S
C1228 C1227 1.339 . S
C1228 C1229 1.439 . S
C1228 H1263 0.950 . S
C1229 N1225 1.383 . S
C1229 C1228 1.439 . S
C1229 C1258 1.392 . S
N1230 Co1224 2.008 . S
N1230 C1231 1.376 . S
N1230 C1234 1.374 . S
C1231 N1230 1.376 . S
C1231 C1232 1.443 . S
C1231 C1258 1.389 1_565 S
C1232 C1231 1.443 . S
C1232 C1233 1.340 . S
C1232 H1264 0.951 . S
C1233 C1232 1.340 . S
C1233 C1234 1.439 . S
C1233 H1265 0.950 . S
C1234 N1230 1.374 . S
C1234 C1233 1.439 . S
C1234 C1259 1.395 . S
N1235 Co1224 1.995 . S
N1235 C1236 1.376 . S
N1235 C1239 1.383 . S
C1236 N1235 1.376 . S
C1236 C1237 1.446 . S
C1236 C1259 1.391 . S
C1237 C1236 1.446 . S
C1237 C1238 1.339 . S
C1237 H1266 0.949 . S
C1238 C1237 1.339 . S
C1238 C1239 1.439 . S
C1238 H1267 0.950 . S
C1239 N1235 1.383 . S
C1239 C1238 1.439 . S
C1239 C1257 1.392 . S
N1240 Co1224 2.282 1_545 S
N1240 C1243 1.325 1_545 S
N1240 C1245 1.332 . S
C1241 C1242 1.386 . S
C1241 C1244 1.388 . S
C1242 C1241 1.386 . S
C1242 C1243 1.374 1_545 S
C1242 H1268 0.950 . S
C1243 N1240 1.325 1_565 S
C1243 C1242 1.374 1_565 S
C1243 H1254 0.967 . S
C1244 C1241 1.388 . S
C1244 C1245 1.382 . S
C1244 H1269 0.950 . S
C1245 N1240 1.332 . S
C1245 C1244 1.382 . S
C1245 H1255 0.948 . S
N1246 Co1224 2.282 . S
N1246 C1250 1.332 . S
N1246 C1251 1.332 . S
C1247 C1248 1.388 . S
C1247 C1251 1.382 . S
C1247 H1270 0.950 . S
C1248 C1247 1.388 . S
C1248 C1249 1.386 . S
C1249 C1248 1.386 . S
C1249 C1250 1.382 . S
C1249 H1271 0.950 . S
C1250 N1246 1.332 . S
C1250 C1249 1.382 . S
C1250 H1252 0.952 . S
C1251 N1246 1.332 . S
C1251 C1247 1.382 . S
C1251 H1253 0.948 . S
H1252 C1250 0.952 . S
H1253 C1251 0.948 . S
H1254 C1243 0.967 . S
H1255 C1245 0.948 . S
C1256 C1222 1.395 . S
C1256 C1226 1.391 . S
C1257 C1219 1.389 . S
C1257 C1239 1.392 . S
C1258 C1229 1.392 . S
C1258 C1231 1.389 1_545 S
C1259 C1234 1.395 . S
C1259 C1236 1.391 . S
H1260 C1220 0.951 1_565 S
H1261 C1221 0.950 . S
H1262 C1227 0.949 . S
H1263 C1228 0.950 . S
H1264 C1232 0.951 . S
H1265 C1233 0.950 . S
H1266 C1237 0.949 . S
H1267 C1238 0.950 . S
H1268 C1242 0.950 . S
H1269 C1244 0.950 . S
H1270 C1247 0.950 . S
H1271 C1249 0.950 . S
C1272 C1273 1.443 . S
C1272 N1276 1.376 . S
C1272 C1310 1.389 1_655 S
C1273 C1272 1.443 . S
C1273 C1274 1.340 . S
C1273 H1313 0.951 . S
C1274 C1273 1.340 . S
C1274 C1275 1.439 . S
C1274 H1314 0.950 . S
C1275 C1274 1.439 . S
C1275 N1276 1.374 . S
C1275 C1309 1.395 . S
N1276 C1272 1.376 . S
N1276 C1275 1.374 . S
N1276 Co1277 2.008 . S
Co1277 N1276 2.008 . S
Co1277 N1278 1.995 . S
Co1277 N1283 2.008 1_655 S
Co1277 N1288 1.995 1_655 S
Co1277 N1293 2.282 . S
Co1277 N1299 2.282 1_655 S
N1278 Co1277 1.995 . S
N1278 C1279 1.376 . S
N1278 C1282 1.383 . S
C1279 N1278 1.376 . S
C1279 C1280 1.446 . S
C1279 C1309 1.391 . S
C1280 C1279 1.446 . S
C1280 C1281 1.339 . S
C1280 H1315 0.949 . S
C1281 C1280 1.339 . S
C1281 C1282 1.439 . S
C1281 H1316 0.950 . S
C1282 N1278 1.383 . S
C1282 C1281 1.439 . S
C1282 C1311 1.392 . S
N1283 Co1277 2.008 1_455 S
N1283 C1284 1.376 . S
N1283 C1287 1.374 . S
C1284 N1283 1.376 . S
C1284 C1285 1.443 . S
C1284 C1311 1.389 1_455 S
C1285 C1284 1.443 . S
C1285 C1286 1.340 . S
C1285 H1317 0.951 . S
C1286 C1285 1.340 . S
C1286 C1287 1.439 . S
C1286 H1318 0.950 . S
C1287 N1283 1.374 . S
C1287 C1286 1.439 . S
C1287 C1312 1.395 . S
N1288 Co1277 1.995 1_455 S
N1288 C1289 1.376 . S
N1288 C1292 1.383 . S
C1289 N1288 1.376 . S
C1289 C1290 1.446 . S
C1289 C1312 1.391 . S
C1290 C1289 1.446 . S
C1290 C1291 1.339 . S
C1290 H1319 0.949 . S
C1291 C1290 1.339 . S
C1291 C1292 1.439 . S
C1291 H1320 0.950 . S
C1292 N1288 1.383 . S
C1292 C1291 1.439 . S
C1292 C1310 1.392 . S
N1293 Co1277 2.282 . S
N1293 C1296 1.332 . S
N1293 C1298 1.332 . S
C1294 C1295 1.386 . S
C1294 C1297 1.388 . S
C1295 C1294 1.386 . S
C1295 C1296 1.382 . S
C1295 H1321 0.950 . S
C1296 N1293 1.332 . S
C1296 C1295 1.382 . S
C1296 H1307 0.952 . S
C1297 C1294 1.388 . S
C1297 C1298 1.382 . S
C1297 H1322 0.950 . S
C1298 N1293 1.332 . S
C1298 C1297 1.382 . S
C1298 H1308 0.948 . S
N1299 Co1277 2.282 1_455 S
N1299 C1303 1.332 . S
N1299 C1304 1.332 . S
C1300 C1301 1.388 . S
C1300 C1304 1.382 . S
C1300 H1323 0.950 . S
C1301 C1300 1.388 . S
C1301 C1302 1.386 . S
C1302 C1301 1.386 . S
C1302 C1303 1.382 . S
C1302 H1324 0.950 . S
C1303 N1299 1.332 . S
C1303 C1302 1.382 . S
C1303 H1305 0.952 . S
C1304 N1299 1.332 . S
C1304 C1300 1.382 . S
C1304 H1306 0.948 . S
H1305 C1303 0.952 . S
H1306 C1304 0.948 . S
H1307 C1296 0.952 . S
H1308 C1298 0.948 . S
C1309 C1275 1.395 . S
C1309 C1279 1.391 . S
C1310 C1272 1.389 1_455 S
C1310 C1292 1.392 . S
C1311 C1282 1.392 . S
C1311 C1284 1.389 1_655 S
C1312 C1287 1.395 . S
C1312 C1289 1.391 . S
H1313 C1273 0.951 . S
H1314 C1274 0.950 . S
H1315 C1280 0.949 . S
H1316 C1281 0.950 . S
H1317 C1285 0.951 . S
H1318 C1286 0.950 . S
H1319 C1290 0.949 . S
H1320 C1291 0.950 . S
H1321 C1295 0.950 . S
H1322 C1297 0.950 . S
H1323 C1300 0.950 . S
H1324 C1302 0.950 . S
C1325 C1326 1.443 . S
C1325 N1329 1.376 . S
C1325 C1363 1.389 . S
C1326 C1325 1.443 . S
C1326 C1327 1.340 . S
C1326 H1366 0.951 . S
C1327 C1326 1.340 . S
C1327 C1328 1.439 . S
C1327 H1367 0.950 . S
C1328 C1327 1.439 . S
C1328 N1329 1.374 . S
C1328 C1362 1.395 . S
N1329 C1325 1.376 . S
N1329 C1328 1.374 . S
N1329 Co1330 2.008 . S
Co1330 N1329 2.008 . S
Co1330 N1331 1.995 . S
Co1330 N1336 2.008 . S
Co1330 N1341 1.995 . S
Co1330 N1346 2.282 . S
Co1330 N1352 2.282 . S
N1331 Co1330 1.995 . S
N1331 C1332 1.376 . S
N1331 C1335 1.383 . S
C1332 N1331 1.376 . S
C1332 C1333 1.446 . S
C1332 C1362 1.391 . S
C1333 C1332 1.446 . S
C1333 C1334 1.339 . S
C1333 H1368 0.949 . S
C1334 C1333 1.339 . S
C1334 C1335 1.439 . S
C1334 H1369 0.950 . S
C1335 N1331 1.383 . S
C1335 C1334 1.439 . S
C1335 C1364 1.392 . S
N1336 Co1330 2.008 . S
N1336 C1337 1.376 . S
N1336 C1340 1.374 . S
C1337 N1336 1.376 . S
C1337 C1338 1.443 . S
C1337 C1364 1.389 . S
C1338 C1337 1.443 . S
C1338 C1339 1.340 . S
C1338 H1370 0.951 . S
C1339 C1338 1.340 . S
C1339 C1340 1.439 . S
C1339 H1371 0.950 . S
C1340 N1336 1.374 . S
C1340 C1339 1.439 . S
C1340 C1365 1.395 . S
N1341 Co1330 1.995 . S
N1341 C1342 1.376 . S
N1341 C1345 1.383 . S
C1342 N1341 1.376 . S
C1342 C1343 1.446 . S
C1342 C1365 1.391 . S
C1343 C1342 1.446 . S
C1343 C1344 1.339 . S
C1343 H1372 0.949 . S
C1344 C1343 1.339 . S
C1344 C1345 1.439 . S
C1344 H1373 0.950 . S
C1345 N1341 1.383 . S
C1345 C1344 1.439 . S
C1345 C1363 1.392 . S
N1346 Co1330 2.282 . S
N1346 C1349 1.332 . S
N1346 C1351 1.332 . S
C1347 C1348 1.386 . S
C1347 C1350 1.388 . S
C1348 C1347 1.386 . S
C1348 C1349 1.382 . S
C1348 H1374 0.950 . S
C1349 N1346 1.332 . S
C1349 C1348 1.382 . S
C1349 H1360 0.952 . S
C1350 C1347 1.388 . S
C1350 C1351 1.382 . S
C1350 H1375 0.950 . S
C1351 N1346 1.332 . S
C1351 C1350 1.382 . S
C1351 H1361 0.948 . S
N1352 Co1330 2.282 . S
N1352 C1356 1.332 . S
N1352 C1357 1.332 . S
C1353 C1354 1.388 . S
C1353 C1357 1.382 . S
C1353 H1376 0.950 . S
C1354 C1353 1.388 . S
C1354 C1355 1.386 . S
C1355 C1354 1.386 . S
C1355 C1356 1.382 . S
C1355 H1377 0.950 . S
C1356 N1352 1.332 . S
C1356 C1355 1.382 . S
C1356 H1358 0.952 . S
C1357 N1352 1.332 . S
C1357 C1353 1.382 . S
C1357 H1359 0.948 . S
H1358 C1356 0.952 . S
H1359 C1357 0.948 . S
H1360 C1349 0.952 . S
H1361 C1351 0.948 . S
C1362 C1328 1.395 . S
C1362 C1332 1.391 . S
C1363 C1325 1.389 . S
C1363 C1345 1.392 . S
C1364 C1335 1.392 . S
C1364 C1337 1.389 . S
C1365 C1340 1.395 . S
C1365 C1342 1.391 . S
H1366 C1326 0.951 . S
H1367 C1327 0.950 . S
H1368 C1333 0.949 . S
H1369 C1334 0.950 . S
H1370 C1338 0.951 . S
H1371 C1339 0.950 . S
H1372 C1343 0.949 . S
H1373 C1344 0.950 . S
H1374 C1348 0.950 . S
H1375 C1350 0.950 . S
H1376 C1353 0.950 . S
H1377 C1355 0.950 . S
C1378 C1379 1.443 . S
C1378 N1382 1.376 . S
C1378 C1416 1.389 1_655 S
C1379 C1378 1.443 . S
C1379 C1380 1.340 . S
C1379 H1419 0.951 . S
C1380 C1379 1.340 . S
C1380 C1381 1.439 . S
C1380 H1420 0.950 . S
C1381 C1380 1.439 . S
C1381 N1382 1.374 . S
C1381 C1415 1.395 . S
N1382 C1378 1.376 . S
N1382 C1381 1.374 . S
N1382 Co1383 2.008 . S
Co1383 N1382 2.008 . S
Co1383 N1384 1.995 . S
Co1383 N1389 2.008 1_655 S
Co1383 N1394 1.995 1_655 S
Co1383 N1399 2.282 . S
Co1383 N1405 2.282 1_655 S
N1384 Co1383 1.995 . S
N1384 C1385 1.376 . S
N1384 C1388 1.383 . S
C1385 N1384 1.376 . S
C1385 C1386 1.446 . S
C1385 C1415 1.391 . S
C1386 C1385 1.446 . S
C1386 C1387 1.339 . S
C1386 H1421 0.949 . S
C1387 C1386 1.339 . S
C1387 C1388 1.439 . S
C1387 H1422 0.950 . S
C1388 N1384 1.383 . S
C1388 C1387 1.439 . S
C1388 C1417 1.392 . S
N1389 Co1383 2.008 1_455 S
N1389 C1390 1.376 . S
N1389 C1393 1.374 . S
C1390 N1389 1.376 . S
C1390 C1391 1.443 . S
C1390 C1417 1.389 1_455 S
C1391 C1390 1.443 . S
C1391 C1392 1.340 . S
C1391 H1423 0.951 . S
C1392 C1391 1.340 . S
C1392 C1393 1.439 . S
C1392 H1424 0.950 . S
C1393 N1389 1.374 . S
C1393 C1392 1.439 . S
C1393 C1418 1.395 . S
N1394 Co1383 1.995 1_455 S
N1394 C1395 1.376 . S
N1394 C1398 1.383 . S
C1395 N1394 1.376 . S
C1395 C1396 1.446 . S
C1395 C1418 1.391 . S
C1396 C1395 1.446 . S
C1396 C1397 1.339 . S
C1396 H1425 0.949 . S
C1397 C1396 1.339 . S
C1397 C1398 1.439 . S
C1397 H1426 0.950 . S
C1398 N1394 1.383 . S
C1398 C1397 1.439 . S
C1398 C1416 1.392 . S
N1399 Co1383 2.282 . S
N1399 C1402 1.332 . S
N1399 C1404 1.332 . S
C1400 C1401 1.386 . S
C1400 C1403 1.388 . S
C1401 C1400 1.386 . S
C1401 C1402 1.382 . S
C1401 H1427 0.950 . S
C1402 N1399 1.332 . S
C1402 C1401 1.382 . S
C1402 H1413 0.952 . S
C1403 C1400 1.388 . S
C1403 C1404 1.382 . S
C1403 H1428 0.950 . S
C1404 N1399 1.332 . S
C1404 C1403 1.382 . S
C1404 H1414 0.948 . S
N1405 Co1383 2.282 1_455 S
N1405 C1409 1.332 . S
N1405 C1410 1.332 . S
C1406 C1407 1.388 . S
C1406 C1410 1.382 . S
C1406 H1429 0.950 . S
C1407 C1406 1.388 . S
C1407 C1408 1.386 . S
C1408 C1407 1.386 . S
C1408 C1409 1.382 . S
C1408 H1430 0.950 . S
C1409 N1405 1.332 . S
C1409 C1408 1.382 . S
C1409 H1411 0.952 . S
C1410 N1405 1.332 . S
C1410 C1406 1.382 . S
C1410 H1412 0.948 . S
H1411 C1409 0.952 . S
H1412 C1410 0.948 . S
H1413 C1402 0.952 . S
H1414 C1404 0.948 . S
C1415 C1381 1.395 . S
C1415 C1385 1.391 . S
C1416 C1378 1.389 1_455 S
C1416 C1398 1.392 . S
C1417 C1388 1.392 . S
C1417 C1390 1.389 1_655 S
C1418 C1393 1.395 . S
C1418 C1395 1.391 . S
H1419 C1379 0.951 . S
H1420 C1380 0.950 . S
H1421 C1386 0.949 . S
H1422 C1387 0.950 . S
H1423 C1391 0.951 . S
H1424 C1392 0.950 . S
H1425 C1396 0.949 . S
H1426 C1397 0.950 . S
H1427 C1401 0.950 . S
H1428 C1403 0.950 . S
H1429 C1406 0.950 . S
H1430 C1408 0.950 . S
C1431 C1432 1.443 . S
C1431 N1435 1.376 . S
C1431 C1469 1.389 . S
C1432 C1431 1.443 . S
C1432 C1433 1.340 . S
C1432 H1472 0.951 . S
C1433 C1432 1.340 . S
C1433 C1434 1.439 . S
C1433 H1473 0.950 . S
C1434 C1433 1.439 . S
C1434 N1435 1.374 . S
C1434 C1468 1.395 . S
N1435 C1431 1.376 . S
N1435 C1434 1.374 . S
N1435 Co1436 2.008 . S
Co1436 N1435 2.008 . S
Co1436 N1437 1.995 . S
Co1436 N1442 2.008 . S
Co1436 N1447 1.995 . S
Co1436 N1452 2.282 . S
Co1436 N1458 2.282 . S
N1437 Co1436 1.995 . S
N1437 C1438 1.376 . S
N1437 C1441 1.383 . S
C1438 N1437 1.376 . S
C1438 C1439 1.446 . S
C1438 C1468 1.391 . S
C1439 C1438 1.446 . S
C1439 C1440 1.339 . S
C1439 H1474 0.949 . S
C1440 C1439 1.339 . S
C1440 C1441 1.439 . S
C1440 H1475 0.950 . S
C1441 N1437 1.383 . S
C1441 C1440 1.439 . S
C1441 C1470 1.392 . S
N1442 Co1436 2.008 . S
N1442 C1443 1.376 . S
N1442 C1446 1.374 . S
C1443 N1442 1.376 . S
C1443 C1444 1.443 . S
C1443 C1470 1.389 . S
C1444 C1443 1.443 . S
C1444 C1445 1.340 . S
C1444 H1476 0.951 . S
C1445 C1444 1.340 . S
C1445 C1446 1.439 . S
C1445 H1477 0.950 . S
C1446 N1442 1.374 . S
C1446 C1445 1.439 . S
C1446 C1471 1.395 . S
N1447 Co1436 1.995 . S
N1447 C1448 1.376 . S
N1447 C1451 1.383 . S
C1448 N1447 1.376 . S
C1448 C1449 1.446 . S
C1448 C1471 1.391 . S
C1449 C1448 1.446 . S
C1449 C1450 1.339 . S
C1449 H1478 0.949 . S
C1450 C1449 1.339 . S
C1450 C1451 1.439 . S
C1450 H1479 0.950 . S
C1451 N1447 1.383 . S
C1451 C1450 1.439 . S
C1451 C1469 1.392 . S
N1452 Co1436 2.282 . S
N1452 C1455 1.332 . S
N1452 C1457 1.332 . S
C1453 C1454 1.386 . S
C1453 C1456 1.388 . S
C1454 C1453 1.386 . S
C1454 C1455 1.382 . S
C1454 H1480 0.950 . S
C1455 N1452 1.332 . S
C1455 C1454 1.382 . S
C1455 H1466 0.952 . S
C1456 C1453 1.388 . S
C1456 C1457 1.382 . S
C1456 H1481 0.950 . S
C1457 N1452 1.332 . S
C1457 C1456 1.382 . S
C1457 H1467 0.948 . S
N1458 Co1436 2.282 . S
N1458 C1462 1.332 . S
N1458 C1463 1.332 . S
C1459 C1460 1.388 . S
C1459 C1463 1.382 . S
C1459 H1482 0.950 . S
C1460 C1459 1.388 . S
C1460 C1461 1.386 . S
C1461 C1460 1.386 . S
C1461 C1462 1.382 . S
C1461 H1483 0.950 . S
C1462 N1458 1.332 . S
C1462 C1461 1.382 . S
C1462 H1464 0.952 . S
C1463 N1458 1.332 . S
C1463 C1459 1.382 . S
C1463 H1465 0.948 . S
H1464 C1462 0.952 . S
H1465 C1463 0.948 . S
H1466 C1455 0.952 . S
H1467 C1457 0.948 . S
C1468 C1434 1.395 . S
C1468 C1438 1.391 . S
C1469 C1431 1.389 . S
C1469 C1451 1.392 . S
C1470 C1441 1.392 . S
C1470 C1443 1.389 . S
C1471 C1446 1.395 . S
C1471 C1448 1.391 . S
H1472 C1432 0.951 . S
H1473 C1433 0.950 . S
H1474 C1439 0.949 . S
H1475 C1440 0.950 . S
H1476 C1444 0.951 . S
H1477 C1445 0.950 . S
H1478 C1449 0.949 . S
H1479 C1450 0.950 . S
H1480 C1454 0.950 . S
H1481 C1456 0.950 . S
H1482 C1459 0.950 . S
H1483 C1461 0.950 . S
C1484 C1485 1.443 . S
C1484 N1488 1.376 . S
C1484 C1522 1.389 . S
C1485 C1484 1.443 . S
C1485 C1486 1.340 . S
C1485 H1525 0.951 . S
C1486 C1485 1.340 . S
C1486 C1487 1.439 . S
C1486 H1526 0.950 . S
C1487 C1486 1.439 . S
C1487 N1488 1.374 . S
C1487 C1521 1.395 . S
N1488 C1484 1.376 . S
N1488 C1487 1.374 . S
N1488 Co1489 2.008 1_655 S
Co1489 N1488 2.008 1_455 S
Co1489 N1490 1.995 1_455 S
Co1489 N1495 2.008 . S
Co1489 N1500 1.995 . S
Co1489 N1505 2.282 . S
Co1489 N1511 2.282 1_455 S
N1490 Co1489 1.995 1_655 S
N1490 C1491 1.376 . S
N1490 C1494 1.383 . S
C1491 N1490 1.376 . S
C1491 C1492 1.446 . S
C1491 C1521 1.391 . S
C1492 C1491 1.446 . S
C1492 C1493 1.339 . S
C1492 H1527 0.949 . S
C1493 C1492 1.339 . S
C1493 C1494 1.439 . S
C1493 H1528 0.950 . S
C1494 N1490 1.383 . S
C1494 C1493 1.439 . S
C1494 C1523 1.392 1_655 S
N1495 Co1489 2.008 . S
N1495 C1496 1.376 . S
N1495 C1499 1.374 . S
C1496 N1495 1.376 . S
C1496 C1497 1.443 . S
C1496 C1523 1.389 . S
C1497 C1496 1.443 . S
C1497 C1498 1.340 . S
C1497 H1529 0.951 . S
C1498 C1497 1.340 . S
C1498 C1499 1.439 . S
C1498 H1530 0.950 . S
C1499 N1495 1.374 . S
C1499 C1498 1.439 . S
C1499 C1524 1.395 . S
N1500 Co1489 1.995 . S
N1500 C1501 1.376 . S
N1500 C1504 1.383 . S
C1501 N1500 1.376 . S
C1501 C1502 1.446 . S
C1501 C1524 1.391 . S
C1502 C1501 1.446 . S
C1502 C1503 1.339 . S
C1502 H1531 0.949 . S
C1503 C1502 1.339 . S
C1503 C1504 1.439 . S
C1503 H1532 0.950 . S
C1504 N1500 1.383 . S
C1504 C1503 1.439 . S
C1504 C1522 1.392 1_455 S
N1505 Co1489 2.282 . S
N1505 C1508 1.332 . S
N1505 C1510 1.332 . S
C1506 C1507 1.386 . S
C1506 C1509 1.388 . S
C1507 C1506 1.386 . S
C1507 C1508 1.382 . S
C1507 H1533 0.950 . S
C1508 N1505 1.332 . S
C1508 C1507 1.382 . S
C1508 H1519 0.952 . S
C1509 C1506 1.388 . S
C1509 C1510 1.382 . S
C1509 H1534 0.950 . S
C1510 N1505 1.332 . S
C1510 C1509 1.382 . S
C1510 H1520 0.948 . S
N1511 Co1489 2.282 1_655 S
N1511 C1515 1.332 . S
N1511 C1516 1.332 . S
C1512 C1513 1.388 . S
C1512 C1516 1.382 . S
C1512 H1535 0.950 . S
C1513 C1512 1.388 . S
C1513 C1514 1.386 . S
C1514 C1513 1.386 . S
C1514 C1515 1.382 . S
C1514 H1536 0.950 . S
C1515 N1511 1.332 . S
C1515 C1514 1.382 . S
C1515 H1517 0.952 . S
C1516 N1511 1.332 . S
C1516 C1512 1.382 . S
C1516 H1518 0.948 . S
H1517 C1515 0.952 . S
H1518 C1516 0.948 . S
H1519 C1508 0.952 . S
H1520 C1510 0.948 . S
C1521 C1487 1.395 . S
C1521 C1491 1.391 . S
C1522 C1484 1.389 . S
C1522 C1504 1.392 1_655 S
C1523 C1494 1.392 1_455 S
C1523 C1496 1.389 . S
C1524 C1499 1.395 . S
C1524 C1501 1.391 . S
H1525 C1485 0.951 . S
H1526 C1486 0.950 . S
H1527 C1492 0.949 . S
H1528 C1493 0.950 . S
H1529 C1497 0.951 . S
H1530 C1498 0.950 . S
H1531 C1502 0.949 . S
H1532 C1503 0.950 . S
H1533 C1507 0.950 . S
H1534 C1509 0.950 . S
H1535 C1512 0.950 . S
H1536 C1514 0.950 . S
C1537 C1538 1.443 . S
C1537 N1541 1.376 . S
C1537 C1575 1.389 . S
C1538 C1537 1.443 . S
C1538 C1539 1.340 . S
C1538 H1578 0.951 . S
C1539 C1538 1.340 . S
C1539 C1540 1.439 . S
C1539 H1579 0.950 . S
C1540 C1539 1.439 . S
C1540 N1541 1.374 . S
C1540 C1574 1.395 . S
N1541 C1537 1.376 . S
N1541 C1540 1.374 . S
N1541 Co1542 2.008 . S
Co1542 N1541 2.008 . S
Co1542 N1543 1.995 . S
Co1542 N1548 2.008 . S
Co1542 N1553 1.995 . S
Co1542 N1558 2.282 . S
Co1542 N1564 2.282 . S
N1543 Co1542 1.995 . S
N1543 C1544 1.376 . S
N1543 C1547 1.383 . S
C1544 N1543 1.376 . S
C1544 C1545 1.446 . S
C1544 C1574 1.391 . S
C1545 C1544 1.446 . S
C1545 C1546 1.339 . S
C1545 H1580 0.949 . S
C1546 C1545 1.339 . S
C1546 C1547 1.439 . S
C1546 H1581 0.950 . S
C1547 N1543 1.383 . S
C1547 C1546 1.439 . S
C1547 C1576 1.392 . S
N1548 Co1542 2.008 . S
N1548 C1549 1.376 . S
N1548 C1552 1.374 . S
C1549 N1548 1.376 . S
C1549 C1550 1.443 . S
C1549 C1576 1.389 . S
C1550 C1549 1.443 . S
C1550 C1551 1.340 . S
C1550 H1582 0.951 . S
C1551 C1550 1.340 . S
C1551 C1552 1.439 . S
C1551 H1583 0.950 . S
C1552 N1548 1.374 . S
C1552 C1551 1.439 . S
C1552 C1577 1.395 . S
N1553 Co1542 1.995 . S
N1553 C1554 1.376 . S
N1553 C1557 1.383 . S
C1554 N1553 1.376 . S
C1554 C1555 1.446 . S
C1554 C1577 1.391 . S
C1555 C1554 1.446 . S
C1555 C1556 1.339 . S
C1555 H1584 0.949 . S
C1556 C1555 1.339 . S
C1556 C1557 1.439 . S
C1556 H1585 0.950 . S
C1557 N1553 1.383 . S
C1557 C1556 1.439 . S
C1557 C1575 1.392 . S
N1558 Co1542 2.282 . S
N1558 C1561 1.332 . S
N1558 C1563 1.332 . S
C1559 C1560 1.386 . S
C1559 C1562 1.388 . S
C1560 C1559 1.386 . S
C1560 C1561 1.382 . S
C1560 H1586 0.950 . S
C1561 N1558 1.332 . S
C1561 C1560 1.382 . S
C1561 H1572 0.952 . S
C1562 C1559 1.388 . S
C1562 C1563 1.382 . S
C1562 H1587 0.950 . S
C1563 N1558 1.332 . S
C1563 C1562 1.382 . S
C1563 H1573 0.948 . S
N1564 Co1542 2.282 . S
N1564 C1568 1.332 . S
N1564 C1569 1.332 . S
C1565 C1566 1.388 . S
C1565 C1569 1.382 . S
C1565 H1588 0.950 . S
C1566 C1565 1.388 . S
C1566 C1567 1.386 . S
C1567 C1566 1.386 . S
C1567 C1568 1.382 . S
C1567 H1589 0.950 . S
C1568 N1564 1.332 . S
C1568 C1567 1.382 . S
C1568 H1570 0.952 . S
C1569 N1564 1.332 . S
C1569 C1565 1.382 . S
C1569 H1571 0.948 . S
H1570 C1568 0.952 . S
H1571 C1569 0.948 . S
H1572 C1561 0.952 . S
H1573 C1563 0.948 . S
C1574 C1540 1.395 . S
C1574 C1544 1.391 . S
C1575 C1537 1.389 . S
C1575 C1557 1.392 . S
C1576 C1547 1.392 . S
C1576 C1549 1.389 . S
C1577 C1552 1.395 . S
C1577 C1554 1.391 . S
H1578 C1538 0.951 . S
H1579 C1539 0.950 . S
H1580 C1545 0.949 . S
H1581 C1546 0.950 . S
H1582 C1550 0.951 . S
H1583 C1551 0.950 . S
H1584 C1555 0.949 . S
H1585 C1556 0.950 . S
H1586 C1560 0.950 . S
H1587 C1562 0.950 . S
H1588 C1565 0.950 . S
H1589 C1567 0.950 . S
C1590 C1591 1.443 . S
C1590 N1594 1.376 . S
C1590 C1628 1.389 . S
C1591 C1590 1.443 . S
C1591 C1592 1.340 . S
C1591 H1631 0.951 . S
C1592 C1591 1.340 . S
C1592 C1593 1.439 . S
C1592 H1632 0.950 . S
C1593 C1592 1.439 . S
C1593 N1594 1.374 . S
C1593 C1627 1.395 . S
N1594 C1590 1.376 . S
N1594 C1593 1.374 . S
N1594 Co1595 2.008 1_655 S
Co1595 N1594 2.008 1_455 S
Co1595 N1596 1.995 1_455 S
Co1595 N1601 2.008 . S
Co1595 N1606 1.995 . S
Co1595 N1611 2.282 . S
Co1595 N1617 2.282 1_455 S
N1596 Co1595 1.995 1_655 S
N1596 C1597 1.376 . S
N1596 C1600 1.383 . S
C1597 N1596 1.376 . S
C1597 C1598 1.446 . S
C1597 C1627 1.391 . S
C1598 C1597 1.446 . S
C1598 C1599 1.339 . S
C1598 H1633 0.949 . S
C1599 C1598 1.339 . S
C1599 C1600 1.439 . S
C1599 H1634 0.950 . S
C1600 N1596 1.383 . S
C1600 C1599 1.439 . S
C1600 C1629 1.392 1_655 S
N1601 Co1595 2.008 . S
N1601 C1602 1.376 . S
N1601 C1605 1.374 . S
C1602 N1601 1.376 . S
C1602 C1603 1.443 . S
C1602 C1629 1.389 . S
C1603 C1602 1.443 . S
C1603 C1604 1.340 . S
C1603 H1635 0.951 . S
C1604 C1603 1.340 . S
C1604 C1605 1.439 . S
C1604 H1636 0.950 . S
C1605 N1601 1.374 . S
C1605 C1604 1.439 . S
C1605 C1630 1.395 . S
N1606 Co1595 1.995 . S
N1606 C1607 1.376 . S
N1606 C1610 1.383 . S
C1607 N1606 1.376 . S
C1607 C1608 1.446 . S
C1607 C1630 1.391 . S
C1608 C1607 1.446 . S
C1608 C1609 1.339 . S
C1608 H1637 0.949 . S
C1609 C1608 1.339 . S
C1609 C1610 1.439 . S
C1609 H1638 0.950 . S
C1610 N1606 1.383 . S
C1610 C1609 1.439 . S
C1610 C1628 1.392 1_455 S
N1611 Co1595 2.282 . S
N1611 C1614 1.332 . S
N1611 C1616 1.332 . S
C1612 C1613 1.386 . S
C1612 C1615 1.388 . S
C1613 C1612 1.386 . S
C1613 C1614 1.382 . S
C1613 H1639 0.950 . S
C1614 N1611 1.332 . S
C1614 C1613 1.382 . S
C1614 H1625 0.952 . S
C1615 C1612 1.388 . S
C1615 C1616 1.382 . S
C1615 H1640 0.950 . S
C1616 N1611 1.332 . S
C1616 C1615 1.382 . S
C1616 H1626 0.948 . S
N1617 Co1595 2.282 1_655 S
N1617 C1621 1.332 . S
N1617 C1622 1.332 . S
C1618 C1619 1.388 . S
C1618 C1622 1.382 . S
C1618 H1641 0.950 . S
C1619 C1618 1.388 . S
C1619 C1620 1.386 . S
C1620 C1619 1.386 . S
C1620 C1621 1.382 . S
C1620 H1642 0.950 . S
C1621 N1617 1.332 . S
C1621 C1620 1.382 . S
C1621 H1623 0.952 . S
C1622 N1617 1.332 . S
C1622 C1618 1.382 . S
C1622 H1624 0.948 . S
H1623 C1621 0.952 . S
H1624 C1622 0.948 . S
H1625 C1614 0.952 . S
H1626 C1616 0.948 . S
C1627 C1593 1.395 . S
C1627 C1597 1.391 . S
C1628 C1590 1.389 . S
C1628 C1610 1.392 1_655 S
C1629 C1600 1.392 1_455 S
C1629 C1602 1.389 . S
C1630 C1605 1.395 . S
C1630 C1607 1.391 . S
H1631 C1591 0.951 . S
H1632 C1592 0.950 . S
H1633 C1598 0.949 . S
H1634 C1599 0.950 . S
H1635 C1603 0.951 . S
H1636 C1604 0.950 . S
H1637 C1608 0.949 . S
H1638 C1609 0.950 . S
H1639 C1613 0.950 . S
H1640 C1615 0.950 . S
H1641 C1618 0.950 . S
H1642 C1620 0.950 . S
C1643 C1644 1.443 . S
C1643 N1647 1.376 . S
C1643 C1681 1.389 . S
C1644 C1643 1.443 . S
C1644 C1645 1.340 . S
C1644 H1684 0.951 . S
C1645 C1644 1.340 . S
C1645 C1646 1.439 . S
C1645 H1685 0.950 . S
C1646 C1645 1.439 . S
C1646 N1647 1.374 . S
C1646 C1680 1.395 . S
N1647 C1643 1.376 . S
N1647 C1646 1.374 . S
N1647 Co1648 2.008 . S
Co1648 N1647 2.008 . S
Co1648 N1649 1.995 . S
Co1648 N1654 2.008 . S
Co1648 N1659 1.995 . S
Co1648 N1664 2.282 . S
Co1648 N1670 2.282 . S
N1649 Co1648 1.995 . S
N1649 C1650 1.376 . S
N1649 C1653 1.383 . S
C1650 N1649 1.376 . S
C1650 C1651 1.446 . S
C1650 C1680 1.391 . S
C1651 C1650 1.446 . S
C1651 C1652 1.339 . S
C1651 H1686 0.949 . S
C1652 C1651 1.339 . S
C1652 C1653 1.439 . S
C1652 H1687 0.950 . S
C1653 N1649 1.383 . S
C1653 C1652 1.439 . S
C1653 C1682 1.392 . S
N1654 Co1648 2.008 . S
N1654 C1655 1.376 . S
N1654 C1658 1.374 . S
C1655 N1654 1.376 . S
C1655 C1656 1.443 . S
C1655 C1682 1.389 . S
C1656 C1655 1.443 . S
C1656 C1657 1.340 . S
C1656 H1688 0.951 . S
C1657 C1656 1.340 . S
C1657 C1658 1.439 . S
C1657 H1689 0.950 . S
C1658 N1654 1.374 . S
C1658 C1657 1.439 . S
C1658 C1683 1.395 . S
N1659 Co1648 1.995 . S
N1659 C1660 1.376 . S
N1659 C1663 1.383 . S
C1660 N1659 1.376 . S
C1660 C1661 1.446 . S
C1660 C1683 1.391 . S
C1661 C1660 1.446 . S
C1661 C1662 1.339 . S
C1661 H1690 0.949 . S
C1662 C1661 1.339 . S
C1662 C1663 1.439 . S
C1662 H1691 0.950 . S
C1663 N1659 1.383 . S
C1663 C1662 1.439 . S
C1663 C1681 1.392 . S
N1664 Co1648 2.282 . S
N1664 C1667 1.332 . S
N1664 C1669 1.332 . S
C1665 C1666 1.386 . S
C1665 C1668 1.388 . S
C1666 C1665 1.386 . S
C1666 C1667 1.382 . S
C1666 H1692 0.950 . S
C1667 N1664 1.332 . S
C1667 C1666 1.382 . S
C1667 H1678 0.952 . S
C1668 C1665 1.388 . S
C1668 C1669 1.382 . S
C1668 H1693 0.950 . S
C1669 N1664 1.332 . S
C1669 C1668 1.382 . S
C1669 H1679 0.948 . S
N1670 Co1648 2.282 . S
N1670 C1674 1.332 . S
N1670 C1675 1.332 . S
C1671 C1672 1.388 . S
C1671 C1675 1.382 . S
C1671 H1694 0.950 . S
C1672 C1671 1.388 . S
C1672 C1673 1.386 . S
C1673 C1672 1.386 . S
C1673 C1674 1.382 . S
C1673 H1695 0.950 . S
C1674 N1670 1.332 . S
C1674 C1673 1.382 . S
C1674 H1676 0.952 . S
C1675 N1670 1.332 . S
C1675 C1671 1.382 . S
C1675 H1677 0.948 . S
H1676 C1674 0.952 . S
H1677 C1675 0.948 . S
H1678 C1667 0.952 . S
H1679 C1669 0.948 . S
C1680 C1646 1.395 . S
C1680 C1650 1.391 . S
C1681 C1643 1.389 . S
C1681 C1663 1.392 . S
C1682 C1653 1.392 . S
C1682 C1655 1.389 . S
C1683 C1658 1.395 . S
C1683 C1660 1.391 . S
H1684 C1644 0.951 . S
H1685 C1645 0.950 . S
H1686 C1651 0.949 . S
H1687 C1652 0.950 . S
H1688 C1656 0.951 . S
H1689 C1657 0.950 . S
H1690 C1661 0.949 . S
H1691 C1662 0.950 . S
H1692 C1666 0.950 . S
H1693 C1668 0.950 . S
H1694 C1671 0.950 . S
H1695 C1673 0.950 . S
H1696 C1702 0.930 . S
H1697 C1705 0.930 . S
H1698 C1706 0.930 . S
H1699 C1707 0.930 . S
H1700 C1710 0.930 . S
H1701 C1711 0.930 . S
C1702 H1696 0.930 . S
C1702 C1703 1.355 . S
C1702 C1704 1.415 . S
C1703 C1702 1.355 . S
C1703 C1705 1.419 . S
C1704 C1702 1.415 . S
C1704 C1709 1.425 . S
C1704 C1711 1.409 . S
C1705 H1697 0.930 . S
C1705 C1703 1.419 . S
C1705 C1706 1.362 . S
C1706 H1698 0.930 . S
C1706 C1705 1.362 . S
C1706 C1709 1.409 . S
C1707 H1699 0.930 . S
C1707 C1708 1.355 . S
C1707 C1709 1.415 . S
C1708 C1707 1.355 . S
C1708 C1710 1.419 . S
C1709 C1704 1.425 . S
C1709 C1706 1.409 . S
C1709 C1707 1.415 . S
C1710 H1700 0.930 . S
C1710 C1708 1.419 . S
C1710 C1711 1.362 . S
C1711 H1701 0.930 . S
C1711 C1704 1.409 . S
C1711 C1710 1.362 . S
H1712 C1718 0.930 . S
H1713 C1721 0.930 . S
H1714 C1722 0.930 . S
H1715 C1723 0.930 . S
H1716 C1726 0.930 . S
H1717 C1727 0.930 . S
C1718 H1712 0.930 . S
C1718 C1719 1.355 . S
C1718 C1720 1.415 . S
C1719 C1718 1.355 . S
C1719 C1721 1.419 . S
C1720 C1718 1.415 . S
C1720 C1725 1.425 . S
C1720 C1727 1.409 . S
C1721 H1713 0.930 . S
C1721 C1719 1.419 . S
C1721 C1722 1.362 . S
C1722 H1714 0.930 . S
C1722 C1721 1.362 . S
C1722 C1725 1.409 . S
C1723 H1715 0.930 . S
C1723 C1724 1.355 . S
C1723 C1725 1.415 . S
C1724 C1723 1.355 . S
C1724 C1726 1.419 . S
C1725 C1720 1.425 . S
C1725 C1722 1.409 . S
C1725 C1723 1.415 . S
C1726 H1716 0.930 . S
C1726 C1724 1.419 . S
C1726 C1727 1.362 . S
C1727 H1717 0.930 . S
C1727 C1720 1.409 . S
C1727 C1726 1.362 . S
H1728 C1734 0.930 . S
H1729 C1737 0.930 . S
H1730 C1738 0.930 . S
H1731 C1739 0.930 . S
H1732 C1742 0.930 . S
H1733 C1743 0.930 . S
C1734 H1728 0.930 . S
C1734 C1735 1.355 . S
C1734 C1736 1.415 . S
C1735 C1734 1.355 . S
C1735 C1737 1.419 . S
C1736 C1734 1.415 . S
C1736 C1741 1.425 . S
C1736 C1743 1.409 . S
C1737 H1729 0.930 . S
C1737 C1735 1.419 . S
C1737 C1738 1.362 . S
C1738 H1730 0.930 . S
C1738 C1737 1.362 . S
C1738 C1741 1.409 . S
C1739 H1731 0.930 . S
C1739 C1740 1.355 . S
C1739 C1741 1.415 . S
C1740 C1739 1.355 . S
C1740 C1742 1.419 . S
C1741 C1736 1.425 . S
C1741 C1738 1.409 . S
C1741 C1739 1.415 . S
C1742 H1732 0.930 . S
C1742 C1740 1.419 . S
C1742 C1743 1.362 . S
C1743 H1733 0.930 . S
C1743 C1736 1.409 . S
C1743 C1742 1.362 . S
H1744 C1750 0.930 . S
H1745 C1753 0.930 . S
H1746 C1754 0.930 . S
H1747 C1755 0.930 . S
H1748 C1758 0.930 . S
H1749 C1759 0.930 . S
C1750 H1744 0.930 . S
C1750 C1751 1.355 . S
C1750 C1752 1.415 . S
C1751 C1750 1.355 . S
C1751 C1753 1.419 . S
C1752 C1750 1.415 . S
C1752 C1757 1.425 . S
C1752 C1759 1.409 . S
C1753 H1745 0.930 . S
C1753 C1751 1.419 . S
C1753 C1754 1.362 . S
C1754 H1746 0.930 . S
C1754 C1753 1.362 . S
C1754 C1757 1.409 . S
C1755 H1747 0.930 . S
C1755 C1756 1.355 . S
C1755 C1757 1.415 . S
C1756 C1755 1.355 . S
C1756 C1758 1.419 . S
C1757 C1752 1.425 . S
C1757 C1754 1.409 . S
C1757 C1755 1.415 . S
C1758 H1748 0.930 . S
C1758 C1756 1.419 . S
C1758 C1759 1.362 . S
C1759 H1749 0.930 . S
C1759 C1752 1.409 . S
C1759 C1758 1.362 . S
H1760 C1766 0.930 . S
H1761 C1769 0.930 . S
H1762 C1770 0.930 . S
H1763 C1771 0.930 . S
H1764 C1774 0.930 . S
H1765 C1775 0.930 . S
C1766 H1760 0.930 . S
C1766 C1767 1.355 . S
C1766 C1768 1.415 . S
C1767 C1766 1.355 . S
C1767 C1769 1.419 . S
C1768 C1766 1.415 . S
C1768 C1773 1.425 . S
C1768 C1775 1.409 . S
C1769 H1761 0.930 . S
C1769 C1767 1.419 . S
C1769 C1770 1.362 . S
C1770 H1762 0.930 . S
C1770 C1769 1.362 . S
C1770 C1773 1.409 . S
C1771 H1763 0.930 . S
C1771 C1772 1.355 . S
C1771 C1773 1.415 . S
C1772 C1771 1.355 . S
C1772 C1774 1.419 . S
C1773 C1768 1.425 . S
C1773 C1770 1.409 . S
C1773 C1771 1.415 . S
C1774 H1764 0.930 . S
C1774 C1772 1.419 . S
C1774 C1775 1.362 . S
C1775 H1765 0.930 . S
C1775 C1768 1.409 . S
C1775 C1774 1.362 . S
H1776 C1782 0.930 . S
H1777 C1785 0.930 . S
H1778 C1786 0.930 . S
H1779 C1787 0.930 . S
H1780 C1790 0.930 . S
H1781 C1791 0.930 . S
C1782 H1776 0.930 . S
C1782 C1783 1.355 . S
C1782 C1784 1.415 . S
C1783 C1782 1.355 . S
C1783 C1785 1.419 . S
C1784 C1782 1.415 . S
C1784 C1789 1.425 . S
C1784 C1791 1.409 . S
C1785 H1777 0.930 . S
C1785 C1783 1.419 . S
C1785 C1786 1.362 . S
C1786 H1778 0.930 . S
C1786 C1785 1.362 . S
C1786 C1789 1.409 . S
C1787 H1779 0.930 . S
C1787 C1788 1.355 . S
C1787 C1789 1.415 . S
C1788 C1787 1.355 . S
C1788 C1790 1.419 . S
C1789 C1784 1.425 . S
C1789 C1786 1.409 . S
C1789 C1787 1.415 . S
C1790 H1780 0.930 . S
C1790 C1788 1.419 . S
C1790 C1791 1.362 . S
C1791 H1781 0.930 . S
C1791 C1784 1.409 . S
C1791 C1790 1.362 . S
H1792 C1798 0.930 . S
H1793 C1801 0.930 . S
H1794 C1802 0.930 . S
H1795 C1803 0.930 . S
H1796 C1806 0.930 . S
H1797 C1807 0.930 . S
C1798 H1792 0.930 . S
C1798 C1799 1.355 . S
C1798 C1800 1.415 . S
C1799 C1798 1.355 . S
C1799 C1801 1.419 . S
C1800 C1798 1.415 . S
C1800 C1805 1.425 . S
C1800 C1807 1.409 . S
C1801 H1793 0.930 . S
C1801 C1799 1.419 . S
C1801 C1802 1.362 . S
C1802 H1794 0.930 . S
C1802 C1801 1.362 . S
C1802 C1805 1.409 . S
C1803 H1795 0.930 . S
C1803 C1804 1.355 . S
C1803 C1805 1.415 . S
C1804 C1803 1.355 . S
C1804 C1806 1.419 . S
C1805 C1800 1.425 . S
C1805 C1802 1.409 . S
C1805 C1803 1.415 . S
C1806 H1796 0.930 . S
C1806 C1804 1.419 . S
C1806 C1807 1.362 . S
C1807 H1797 0.930 . S
C1807 C1800 1.409 . S
C1807 C1806 1.362 . S
H1808 C1814 0.930 . S
H1809 C1817 0.930 . S
H1810 C1818 0.930 . S
H1811 C1819 0.930 . S
H1812 C1822 0.930 . S
H1813 C1823 0.930 . S
C1814 H1808 0.930 . S
C1814 C1815 1.355 . S
C1814 C1816 1.415 . S
C1815 C1814 1.355 . S
C1815 C1817 1.419 . S
C1816 C1814 1.415 . S
C1816 C1821 1.425 . S
C1816 C1823 1.409 . S
C1817 H1809 0.930 . S
C1817 C1815 1.419 . S
C1817 C1818 1.362 . S
C1818 H1810 0.930 . S
C1818 C1817 1.362 . S
C1818 C1821 1.409 . S
C1819 H1811 0.930 . S
C1819 C1820 1.355 . S
C1819 C1821 1.415 . S
C1820 C1819 1.355 . S
C1820 C1822 1.419 . S
C1821 C1816 1.425 . S
C1821 C1818 1.409 . S
C1821 C1819 1.415 . S
C1822 H1812 0.930 . S
C1822 C1820 1.419 . S
C1822 C1823 1.362 . S
C1823 H1813 0.930 . S
C1823 C1816 1.409 . S
C1823 C1822 1.362 . S
H1824 C1830 0.930 . S
H1825 C1833 0.930 1_655 S
H1826 C1834 0.933 . S
H1827 C1835 0.930 . S
H1828 C1838 0.930 . S
H1829 C1839 0.930 . S
C1830 H1824 0.930 . S
C1830 C1831 1.355 . S
C1830 C1832 1.415 . S
C1831 C1830 1.355 . S
C1831 C1833 1.419 . S
C1832 C1830 1.415 . S
C1832 C1837 1.425 . S
C1832 C1839 1.409 . S
C1833 H1825 0.930 1_455 S
C1833 C1831 1.419 . S
C1833 C1834 1.362 1_455 S
C1834 H1826 0.933 . S
C1834 C1833 1.362 1_655 S
C1834 C1837 1.407 1_655 S
C1835 H1827 0.930 . S
C1835 C1836 1.355 . S
C1835 C1837 1.415 . S
C1836 C1835 1.355 . S
C1836 C1838 1.419 . S
C1837 C1832 1.425 . S
C1837 C1834 1.407 1_455 S
C1837 C1835 1.415 . S
C1838 H1828 0.930 . S
C1838 C1836 1.419 . S
C1838 C1839 1.362 . S
C1839 H1829 0.930 . S
C1839 C1832 1.409 . S
C1839 C1838 1.362 . S
H1840 C1846 0.930 . S
H1841 C1849 0.930 . S
H1842 C1850 0.930 . S
H1843 C1851 0.930 . S
H1844 C1854 0.930 . S
H1845 C1855 0.930 . S
C1846 H1840 0.930 . S
C1846 C1847 1.355 . S
C1846 C1848 1.415 . S
C1847 C1846 1.355 . S
C1847 C1849 1.419 . S
C1848 C1846 1.415 . S
C1848 C1853 1.425 . S
C1848 C1855 1.409 . S
C1849 H1841 0.930 . S
C1849 C1847 1.419 . S
C1849 C1850 1.362 . S
C1850 H1842 0.930 . S
C1850 C1849 1.362 . S
C1850 C1853 1.409 . S
C1851 H1843 0.930 . S
C1851 C1852 1.355 . S
C1851 C1853 1.415 . S
C1852 C1851 1.355 . S
C1852 C1854 1.419 . S
C1853 C1848 1.425 . S
C1853 C1850 1.409 . S
C1853 C1851 1.415 . S
C1854 H1844 0.930 . S
C1854 C1852 1.419 . S
C1854 C1855 1.362 . S
C1855 H1845 0.930 . S
C1855 C1848 1.409 . S
C1855 C1854 1.362 . S
H1856 C1862 0.930 . S
H1857 C1865 0.930 . S
H1858 C1866 0.930 . S
H1859 C1867 0.930 . S
H1860 C1870 0.930 . S
H1861 C1871 0.930 . S
C1862 H1856 0.930 . S
C1862 C1863 1.355 1_455 S
C1862 C1864 1.415 . S
C1863 C1862 1.355 1_655 S
C1863 C1865 1.419 . S
C1864 C1862 1.415 . S
C1864 C1869 1.425 1_455 S
C1864 C1871 1.409 . S
C1865 H1857 0.930 . S
C1865 C1863 1.419 . S
C1865 C1866 1.362 . S
C1866 H1858 0.930 . S
C1866 C1865 1.362 . S
C1866 C1869 1.409 . S
C1867 H1859 0.930 . S
C1867 C1868 1.355 . S
C1867 C1869 1.415 . S
C1868 C1867 1.355 . S
C1868 C1870 1.419 1_655 S
C1869 C1864 1.425 1_655 S
C1869 C1866 1.409 . S
C1869 C1867 1.415 . S
C1870 H1860 0.930 . S
C1870 C1868 1.419 1_455 S
C1870 C1871 1.362 . S
C1871 H1861 0.930 . S
C1871 C1864 1.409 . S
C1871 C1870 1.362 . S
H1872 C1878 0.930 . S
H1873 C1881 0.930 . S
H1874 C1882 0.930 . S
H1875 C1883 0.930 . S
H1876 C1886 0.930 . S
H1877 C1887 0.930 . S
C1878 H1872 0.930 . S
C1878 C1879 1.355 . S
C1878 C1880 1.415 . S
C1879 C1878 1.355 . S
C1879 C1881 1.419 . S
C1880 C1878 1.415 . S
C1880 C1885 1.425 . S
C1880 C1887 1.409 . S
C1881 H1873 0.930 . S
C1881 C1879 1.419 . S
C1881 C1882 1.362 . S
C1882 H1874 0.930 . S
C1882 C1881 1.362 . S
C1882 C1885 1.409 . S
C1883 H1875 0.930 . S
C1883 C1884 1.355 . S
C1883 C1885 1.415 . S
C1884 C1883 1.355 . S
C1884 C1886 1.419 . S
C1885 C1880 1.425 . S
C1885 C1882 1.409 . S
C1885 C1883 1.415 . S
C1886 H1876 0.930 . S
C1886 C1884 1.419 . S
C1886 C1887 1.362 . S
C1887 H1877 0.930 . S
C1887 C1880 1.409 . S
C1887 C1886 1.362 . S
H1888 C1894 0.930 . S
H1889 C1897 0.930 . S
H1890 C1898 0.930 . S
H1891 C1899 0.930 . S
H1892 C1902 0.930 . S
H1893 C1903 0.930 . S
C1894 H1888 0.930 . S
C1894 C1895 1.355 . S
C1894 C1896 1.415 . S
C1895 C1894 1.355 . S
C1895 C1897 1.419 1_455 S
C1896 C1894 1.415 . S
C1896 C1901 1.425 1_455 S
C1896 C1903 1.409 . S
C1897 H1889 0.930 . S
C1897 C1895 1.419 1_655 S
C1897 C1898 1.362 . S
C1898 H1890 0.930 . S
C1898 C1897 1.362 . S
C1898 C1901 1.409 . S
C1899 H1891 0.930 . S
C1899 C1900 1.355 1_655 S
C1899 C1901 1.415 . S
C1900 C1899 1.355 1_455 S
C1900 C1902 1.419 . S
C1901 C1896 1.425 1_655 S
C1901 C1898 1.409 . S
C1901 C1899 1.415 . S
C1902 H1892 0.930 . S
C1902 C1900 1.419 . S
C1902 C1903 1.362 . S
C1903 H1893 0.930 . S
C1903 C1896 1.409 . S
C1903 C1902 1.362 . S
H1904 C1910 0.930 . S
H1905 C1913 0.930 . S
H1906 C1914 0.930 . S
H1907 C1915 0.930 . S
H1908 C1918 0.930 . S
H1909 C1919 0.930 . S
C1910 H1904 0.930 . S
C1910 C1911 1.355 . S
C1910 C1912 1.415 . S
C1911 C1910 1.355 . S
C1911 C1913 1.419 . S
C1912 C1910 1.415 . S
C1912 C1917 1.425 . S
C1912 C1919 1.409 . S
C1913 H1905 0.930 . S
C1913 C1911 1.419 . S
C1913 C1914 1.362 . S
C1914 H1906 0.930 . S
C1914 C1913 1.362 . S
C1914 C1917 1.409 . S
C1915 H1907 0.930 . S
C1915 C1916 1.355 . S
C1915 C1917 1.415 . S
C1916 C1915 1.355 . S
C1916 C1918 1.419 . S
C1917 C1912 1.425 . S
C1917 C1914 1.409 . S
C1917 C1915 1.415 . S
C1918 H1908 0.930 . S
C1918 C1916 1.419 . S
C1918 C1919 1.362 . S
C1919 H1909 0.930 . S
C1919 C1912 1.409 . S
C1919 C1918 1.362 . S
H1920 C1926 0.930 . S
H1921 C1929 0.930 . S
H1922 C1930 0.930 . S
H1923 C1931 0.930 . S
H1924 C1934 0.930 . S
H1925 C1935 0.930 . S
C1926 H1920 0.930 . S
C1926 C1927 1.355 . S
C1926 C1928 1.415 . S
C1927 C1926 1.355 . S
C1927 C1929 1.419 . S
C1928 C1926 1.415 . S
C1928 C1933 1.425 . S
C1928 C1935 1.409 . S
C1929 H1921 0.930 . S
C1929 C1927 1.419 . S
C1929 C1930 1.362 . S
C1930 H1922 0.930 . S
C1930 C1929 1.362 . S
C1930 C1933 1.409 . S
C1931 H1923 0.930 . S
C1931 C1932 1.355 . S
C1931 C1933 1.415 . S
C1932 C1931 1.355 . S
C1932 C1934 1.419 . S
C1933 C1928 1.425 . S
C1933 C1930 1.409 . S
C1933 C1931 1.415 . S
C1934 H1924 0.930 . S
C1934 C1932 1.419 . S
C1934 C1935 1.362 . S
C1935 H1925 0.930 . S
C1935 C1928 1.409 . S
C1935 C1934 1.362 . S
H1936 C1942 0.930 . S
H1937 C1945 0.930 . S
H1938 C1946 0.930 . S
H1939 C1947 0.930 . S
H1940 C1950 0.930 . S
H1941 C1951 0.930 . S
C1942 H1936 0.930 . S
C1942 C1943 1.355 . S
C1942 C1944 1.415 . S
C1943 C1942 1.355 . S
C1943 C1945 1.419 . S
C1944 C1942 1.415 . S
C1944 C1949 1.425 . S
C1944 C1951 1.409 . S
C1945 H1937 0.930 . S
C1945 C1943 1.419 . S
C1945 C1946 1.362 . S
C1946 H1938 0.930 . S
C1946 C1945 1.362 . S
C1946 C1949 1.409 . S
C1947 H1939 0.930 . S
C1947 C1948 1.355 . S
C1947 C1949 1.415 . S
C1948 C1947 1.355 . S
C1948 C1950 1.419 . S
C1949 C1944 1.425 . S
C1949 C1946 1.409 . S
C1949 C1947 1.415 . S
C1950 H1940 0.930 . S
C1950 C1948 1.419 . S
C1950 C1951 1.362 . S
C1951 H1941 0.930 . S
C1951 C1944 1.409 . S
C1951 C1950 1.362 . S
H1952 C1958 0.930 . S
H1953 C1961 0.930 . S
H1954 C1962 0.930 . S
H1955 C1963 0.930 . S
H1956 C1966 0.930 . S
H1957 C1967 0.930 . S
C1958 H1952 0.930 . S
C1958 C1959 1.355 . S
C1958 C1960 1.415 . S
C1959 C1958 1.355 . S
C1959 C1961 1.419 . S
C1960 C1958 1.415 . S
C1960 C1965 1.425 . S
C1960 C1967 1.409 . S
C1961 H1953 0.930 . S
C1961 C1959 1.419 . S
C1961 C1962 1.362 . S
C1962 H1954 0.930 . S
C1962 C1961 1.362 . S
C1962 C1965 1.409 . S
C1963 H1955 0.930 . S
C1963 C1964 1.355 . S
C1963 C1965 1.415 . S
C1964 C1963 1.355 . S
C1964 C1966 1.419 . S
C1965 C1960 1.425 . S
C1965 C1962 1.409 . S
C1965 C1963 1.415 . S
C1966 H1956 0.930 . S
C1966 C1964 1.419 . S
C1966 C1967 1.362 . S
C1967 H1957 0.930 . S
C1967 C1960 1.409 . S
C1967 C1966 1.362 . S
H1968 C1974 0.930 . S
H1969 C1977 0.930 . S
H1970 C1978 0.930 . S
H1971 C1979 0.930 . S
H1972 C1982 0.930 . S
H1973 C1983 0.930 . S
C1974 H1968 0.930 . S
C1974 C1975 1.355 . S
C1974 C1976 1.415 . S
C1975 C1974 1.355 . S
C1975 C1977 1.419 . S
C1976 C1974 1.415 . S
C1976 C1981 1.425 . S
C1976 C1983 1.409 . S
C1977 H1969 0.930 . S
C1977 C1975 1.419 . S
C1977 C1978 1.362 . S
C1978 H1970 0.930 . S
C1978 C1977 1.362 . S
C1978 C1981 1.409 . S
C1979 H1971 0.930 . S
C1979 C1980 1.355 . S
C1979 C1981 1.415 . S
C1980 C1979 1.355 . S
C1980 C1982 1.419 . S
C1981 C1976 1.425 . S
C1981 C1978 1.409 . S
C1981 C1979 1.415 . S
C1982 H1972 0.930 . S
C1982 C1980 1.419 . S
C1982 C1983 1.362 . S
C1983 H1973 0.930 . S
C1983 C1976 1.409 . S
C1983 C1982 1.362 . S
H1984 C1990 0.930 . S
H1985 C1993 0.930 . S
H1986 C1994 0.930 . S
H1987 C1995 0.930 . S
H1988 C1998 0.930 . S
H1989 C1999 0.930 . S
C1990 H1984 0.930 . S
C1990 C1991 1.355 . S
C1990 C1992 1.415 . S
C1991 C1990 1.355 . S
C1991 C1993 1.419 . S
C1992 C1990 1.415 . S
C1992 C1997 1.425 . S
C1992 C1999 1.409 . S
C1993 H1985 0.930 . S
C1993 C1991 1.419 . S
C1993 C1994 1.362 . S
C1994 H1986 0.930 . S
C1994 C1993 1.362 . S
C1994 C1997 1.409 . S
C1995 H1987 0.930 . S
C1995 C1996 1.355 . S
C1995 C1997 1.415 . S
C1996 C1995 1.355 . S
C1996 C1998 1.419 . S
C1997 C1992 1.425 . S
C1997 C1994 1.409 . S
C1997 C1995 1.415 . S
C1998 H1988 0.930 . S
C1998 C1996 1.419 . S
C1998 C1999 1.362 . S
C1999 H1989 0.930 . S
C1999 C1992 1.409 . S
C1999 C1998 1.362 . S
H2000 C2006 0.930 . S
H2001 C2009 0.930 . S
H2002 C2010 0.930 . S
H2003 C2011 0.930 . S
H2004 C2014 0.930 . S
H2005 C2015 0.930 . S
C2006 H2000 0.930 . S
C2006 C2007 1.355 . S
C2006 C2008 1.415 . S
C2007 C2006 1.355 . S
C2007 C2009 1.419 . S
C2008 C2006 1.415 . S
C2008 C2013 1.425 . S
C2008 C2015 1.409 . S
C2009 H2001 0.930 . S
C2009 C2007 1.419 . S
C2009 C2010 1.362 . S
C2010 H2002 0.930 . S
C2010 C2009 1.362 . S
C2010 C2013 1.409 . S
C2011 H2003 0.930 . S
C2011 C2012 1.355 . S
C2011 C2013 1.415 . S
C2012 C2011 1.355 . S
C2012 C2014 1.419 . S
C2013 C2008 1.425 . S
C2013 C2010 1.409 . S
C2013 C2011 1.415 . S
C2014 H2004 0.930 . S
C2014 C2012 1.419 . S
C2014 C2015 1.362 . S
C2015 H2005 0.930 . S
C2015 C2008 1.409 . S
C2015 C2014 1.362 . S
H2016 C2022 0.930 . S
H2017 C2025 0.930 . S
H2018 C2026 0.930 . S
H2019 C2027 0.930 . S
H2020 C2030 0.930 . S
H2021 C2031 0.930 . S
C2022 H2016 0.930 . S
C2022 C2023 1.355 . S
C2022 C2024 1.415 . S
C2023 C2022 1.355 . S
C2023 C2025 1.419 . S
C2024 C2022 1.415 . S
C2024 C2029 1.425 . S
C2024 C2031 1.409 . S
C2025 H2017 0.930 . S
C2025 C2023 1.419 . S
C2025 C2026 1.362 . S
C2026 H2018 0.930 . S
C2026 C2025 1.362 . S
C2026 C2029 1.409 . S
C2027 H2019 0.930 . S
C2027 C2028 1.355 . S
C2027 C2029 1.415 . S
C2028 C2027 1.355 . S
C2028 C2030 1.419 . S
C2029 C2024 1.425 . S
C2029 C2026 1.409 . S
C2029 C2027 1.415 . S
C2030 H2020 0.930 . S
C2030 C2028 1.419 . S
C2030 C2031 1.362 . S
C2031 H2021 0.930 . S
C2031 C2024 1.409 . S
C2031 C2030 1.362 . S
H2032 C2038 0.930 . S
H2033 C2041 0.930 . S
H2034 C2042 0.930 . S
H2035 C2043 0.930 . S
H2036 C2046 0.930 . S
H2037 C2047 0.930 . S
C2038 H2032 0.930 . S
C2038 C2039 1.355 . S
C2038 C2040 1.415 . S
C2039 C2038 1.355 . S
C2039 C2041 1.419 . S
C2040 C2038 1.415 . S
C2040 C2045 1.425 . S
C2040 C2047 1.409 . S
C2041 H2033 0.930 . S
C2041 C2039 1.419 . S
C2041 C2042 1.362 . S
C2042 H2034 0.930 . S
C2042 C2041 1.362 . S
C2042 C2045 1.409 . S
C2043 H2035 0.930 . S
C2043 C2044 1.355 . S
C2043 C2045 1.415 . S
C2044 C2043 1.355 . S
C2044 C2046 1.419 . S
C2045 C2040 1.425 . S
C2045 C2042 1.409 . S
C2045 C2043 1.415 . S
C2046 H2036 0.930 . S
C2046 C2044 1.419 . S
C2046 C2047 1.362 . S
C2047 H2037 0.930 . S
C2047 C2040 1.409 . S
C2047 C2046 1.362 . S
H2048 C2054 0.930 . S
H2049 C2057 0.930 . S
H2050 C2058 0.930 . S
H2051 C2059 0.930 . S
H2052 C2062 0.930 . S
H2053 C2063 0.930 . S
C2054 H2048 0.930 . S
C2054 C2055 1.355 . S
C2054 C2056 1.415 . S
C2055 C2054 1.355 . S
C2055 C2057 1.419 . S
C2056 C2054 1.415 . S
C2056 C2061 1.425 . S
C2056 C2063 1.409 . S
C2057 H2049 0.930 . S
C2057 C2055 1.419 . S
C2057 C2058 1.362 . S
C2058 H2050 0.930 . S
C2058 C2057 1.362 . S
C2058 C2061 1.409 . S
C2059 H2051 0.930 . S
C2059 C2060 1.355 . S
C2059 C2061 1.415 . S
C2060 C2059 1.355 . S
C2060 C2062 1.419 . S
C2061 C2056 1.425 . S
C2061 C2058 1.409 . S
C2061 C2059 1.415 . S
C2062 H2052 0.930 . S
C2062 C2060 1.419 . S
C2062 C2063 1.362 . S
C2063 H2053 0.930 . S
C2063 C2056 1.409 . S
C2063 C2062 1.362 . S
H2064 C2070 0.930 . S
H2065 C2073 0.930 . S
H2066 C2074 0.930 . S
H2067 C2075 0.930 . S
H2068 C2078 0.930 . S
H2069 C2079 0.930 . S
C2070 H2064 0.930 . S
C2070 C2071 1.355 . S
C2070 C2072 1.415 . S
C2071 C2070 1.355 . S
C2071 C2073 1.419 . S
C2072 C2070 1.415 . S
C2072 C2077 1.425 . S
C2072 C2079 1.409 . S
C2073 H2065 0.930 . S
C2073 C2071 1.419 . S
C2073 C2074 1.362 . S
C2074 H2066 0.930 . S
C2074 C2073 1.362 . S
C2074 C2077 1.409 . S
C2075 H2067 0.930 . S
C2075 C2076 1.355 . S
C2075 C2077 1.415 . S
C2076 C2075 1.355 . S
C2076 C2078 1.419 . S
C2077 C2072 1.425 . S
C2077 C2074 1.409 . S
C2077 C2075 1.415 . S
C2078 H2068 0.930 . S
C2078 C2076 1.419 . S
C2078 C2079 1.362 . S
C2079 H2069 0.930 . S
C2079 C2072 1.409 . S
C2079 C2078 1.362 . S
H2080 C2086 0.930 . S
H2081 C2089 0.930 . S
H2082 C2090 0.930 . S
H2083 C2091 0.930 . S
H2084 C2094 0.930 . S
H2085 C2095 0.930 . S
C2086 H2080 0.930 . S
C2086 C2087 1.355 . S
C2086 C2088 1.415 . S
C2087 C2086 1.355 . S
C2087 C2089 1.419 . S
C2088 C2086 1.415 . S
C2088 C2093 1.425 . S
C2088 C2095 1.409 . S
C2089 H2081 0.930 . S
C2089 C2087 1.419 . S
C2089 C2090 1.362 . S
C2090 H2082 0.930 . S
C2090 C2089 1.362 . S
C2090 C2093 1.409 . S
C2091 H2083 0.930 . S
C2091 C2092 1.355 . S
C2091 C2093 1.415 . S
C2092 C2091 1.355 . S
C2092 C2094 1.419 . S
C2093 C2088 1.425 . S
C2093 C2090 1.409 . S
C2093 C2091 1.415 . S
C2094 H2084 0.930 . S
C2094 C2092 1.419 . S
C2094 C2095 1.362 . S
C2095 H2085 0.930 . S
C2095 C2088 1.409 . S
C2095 C2094 1.362 . S
H2096 C2102 0.930 . S
H2097 C2105 0.930 . S
H2098 C2106 0.930 . S
H2099 C2107 0.930 . S
H2100 C2110 0.930 . S
H2101 C2111 0.930 . S
C2102 H2096 0.930 . S
C2102 C2103 1.355 . S
C2102 C2104 1.415 . S
C2103 C2102 1.355 . S
C2103 C2105 1.419 . S
C2104 C2102 1.415 . S
C2104 C2109 1.425 . S
C2104 C2111 1.409 . S
C2105 H2097 0.930 . S
C2105 C2103 1.419 . S
C2105 C2106 1.362 . S
C2106 H2098 0.930 . S
C2106 C2105 1.362 . S
C2106 C2109 1.409 . S
C2107 H2099 0.930 . S
C2107 C2108 1.355 . S
C2107 C2109 1.415 . S
C2108 C2107 1.355 . S
C2108 C2110 1.419 . S
C2109 C2104 1.425 . S
C2109 C2106 1.409 . S
C2109 C2107 1.415 . S
C2110 H2100 0.930 . S
C2110 C2108 1.419 . S
C2110 C2111 1.362 . S
C2111 H2101 0.930 . S
C2111 C2104 1.409 . S
C2111 C2110 1.362 . S
H2112 C2118 0.930 . S
H2113 C2121 0.930 . S
H2114 C2122 0.930 . S
H2115 C2123 0.930 . S
H2116 C2126 0.930 . S
H2117 C2127 0.930 . S
C2118 H2112 0.930 . S
C2118 C2119 1.355 . S
C2118 C2120 1.415 . S
C2119 C2118 1.355 . S
C2119 C2121 1.419 . S
C2120 C2118 1.415 . S
C2120 C2125 1.425 . S
C2120 C2127 1.409 . S
C2121 H2113 0.930 . S
C2121 C2119 1.419 . S
C2121 C2122 1.362 . S
C2122 H2114 0.930 . S
C2122 C2121 1.362 . S
C2122 C2125 1.409 . S
C2123 H2115 0.930 . S
C2123 C2124 1.355 . S
C2123 C2125 1.415 . S
C2124 C2123 1.355 . S
C2124 C2126 1.419 . S
C2125 C2120 1.425 . S
C2125 C2122 1.409 . S
C2125 C2123 1.415 . S
C2126 H2116 0.930 . S
C2126 C2124 1.419 . S
C2126 C2127 1.362 . S
C2127 H2117 0.930 . S
C2127 C2120 1.409 . S
C2127 C2126 1.362 . S
H2128 C2134 0.930 . S
H2129 C2137 0.930 . S
H2130 C2138 0.930 . S
H2131 C2139 0.930 . S
H2132 C2142 0.930 . S
H2133 C2143 0.930 . S
C2134 H2128 0.930 . S
C2134 C2135 1.355 . S
C2134 C2136 1.415 . S
C2135 C2134 1.355 . S
C2135 C2137 1.419 . S
C2136 C2134 1.415 . S
C2136 C2141 1.425 . S
C2136 C2143 1.409 . S
C2137 H2129 0.930 . S
C2137 C2135 1.419 . S
C2137 C2138 1.362 . S
C2138 H2130 0.930 . S
C2138 C2137 1.362 . S
C2138 C2141 1.409 . S
C2139 H2131 0.930 . S
C2139 C2140 1.355 . S
C2139 C2141 1.415 . S
C2140 C2139 1.355 . S
C2140 C2142 1.419 . S
C2141 C2136 1.425 . S
C2141 C2138 1.409 . S
C2141 C2139 1.415 . S
C2142 H2132 0.930 . S
C2142 C2140 1.419 . S
C2142 C2143 1.362 . S
C2143 H2133 0.930 . S
C2143 C2136 1.409 . S
C2143 C2142 1.362 . S
H2144 C2150 0.930 . S
H2145 C2153 0.930 . S
H2146 C2154 0.930 . S
H2147 C2155 0.930 . S
H2148 C2158 0.930 . S
H2149 C2159 0.930 . S
C2150 H2144 0.930 . S
C2150 C2151 1.355 . S
C2150 C2152 1.415 . S
C2151 C2150 1.355 . S
C2151 C2153 1.419 . S
C2152 C2150 1.415 . S
C2152 C2157 1.425 . S
C2152 C2159 1.409 . S
C2153 H2145 0.930 . S
C2153 C2151 1.419 . S
C2153 C2154 1.362 . S
C2154 H2146 0.930 . S
C2154 C2153 1.362 . S
C2154 C2157 1.409 . S
C2155 H2147 0.930 . S
C2155 C2156 1.355 . S
C2155 C2157 1.415 . S
C2156 C2155 1.355 . S
C2156 C2158 1.419 . S
C2157 C2152 1.425 . S
C2157 C2154 1.409 . S
C2157 C2155 1.415 . S
C2158 H2148 0.930 . S
C2158 C2156 1.419 . S
C2158 C2159 1.362 . S
C2159 H2149 0.930 . S
C2159 C2152 1.409 . S
C2159 C2158 1.362 . S
H2160 C2166 0.930 . S
H2161 C2169 0.930 . S
H2162 C2170 0.930 . S
H2163 C2171 0.930 . S
H2164 C2174 0.930 . S
H2165 C2175 0.930 . S
C2166 H2160 0.930 . S
C2166 C2167 1.355 . S
C2166 C2168 1.415 . S
C2167 C2166 1.355 . S
C2167 C2169 1.419 . S
C2168 C2166 1.415 . S
C2168 C2173 1.425 . S
C2168 C2175 1.409 . S
C2169 H2161 0.930 . S
C2169 C2167 1.419 . S
C2169 C2170 1.362 . S
C2170 H2162 0.930 . S
C2170 C2169 1.362 . S
C2170 C2173 1.409 . S
C2171 H2163 0.930 . S
C2171 C2172 1.355 . S
C2171 C2173 1.415 . S
C2172 C2171 1.355 . S
C2172 C2174 1.419 . S
C2173 C2168 1.425 . S
C2173 C2170 1.409 . S
C2173 C2171 1.415 . S
C2174 H2164 0.930 . S
C2174 C2172 1.419 . S
C2174 C2175 1.362 . S
C2175 H2165 0.930 . S
C2175 C2168 1.409 . S
C2175 C2174 1.362 . S
H2176 C2182 0.930 . S
H2177 C2185 0.930 . S
H2178 C2186 0.930 . S
H2179 C2187 0.930 . S
H2180 C2190 0.930 . S
H2181 C2191 0.930 . S
C2182 H2176 0.930 . S
C2182 C2183 1.355 . S
C2182 C2184 1.415 . S
C2183 C2182 1.355 . S
C2183 C2185 1.419 . S
C2184 C2182 1.415 . S
C2184 C2189 1.425 . S
C2184 C2191 1.409 . S
C2185 H2177 0.930 . S
C2185 C2183 1.419 . S
C2185 C2186 1.362 . S
C2186 H2178 0.930 . S
C2186 C2185 1.362 . S
C2186 C2189 1.409 . S
C2187 H2179 0.930 . S
C2187 C2188 1.355 . S
C2187 C2189 1.415 . S
C2188 C2187 1.355 . S
C2188 C2190 1.419 . S
C2189 C2184 1.425 . S
C2189 C2186 1.409 . S
C2189 C2187 1.415 . S
C2190 H2180 0.930 . S
C2190 C2188 1.419 . S
C2190 C2191 1.362 . S
C2191 H2181 0.930 . S
C2191 C2184 1.409 . S
C2191 C2190 1.362 . S
H2192 C2198 0.930 . S
H2193 C2201 0.930 . S
H2194 C2202 0.930 . S
H2195 C2203 0.930 . S
H2196 C2206 0.930 . S
H2197 C2207 0.930 . S
C2198 H2192 0.930 . S
C2198 C2199 1.355 . S
C2198 C2200 1.415 . S
C2199 C2198 1.355 . S
C2199 C2201 1.419 . S
C2200 C2198 1.415 . S
C2200 C2205 1.425 . S
C2200 C2207 1.409 . S
C2201 H2193 0.930 . S
C2201 C2199 1.419 . S
C2201 C2202 1.362 . S
C2202 H2194 0.930 . S
C2202 C2201 1.362 . S
C2202 C2205 1.409 . S
C2203 H2195 0.930 . S
C2203 C2204 1.355 . S
C2203 C2205 1.415 . S
C2204 C2203 1.355 . S
C2204 C2206 1.419 . S
C2205 C2200 1.425 . S
C2205 C2202 1.409 . S
C2205 C2203 1.415 . S
C2206 H2196 0.930 . S
C2206 C2204 1.419 . S
C2206 C2207 1.362 . S
C2207 H2197 0.930 . S
C2207 C2200 1.409 . S
C2207 C2206 1.362 . S
H2208 C2214 0.930 . S
H2209 C2217 0.930 . S
H2210 C2218 0.885 1_556 S
H2211 C2219 0.930 . S
H2212 C2222 0.930 . S
H2213 C2223 0.885 1_554 S
C2214 H2208 0.930 . S
C2214 C2215 1.355 1_545 S
C2214 C2216 1.415 . S
C2215 C2214 1.355 1_565 S
C2215 C2217 1.419 . S
C2216 C2214 1.415 . S
C2216 C2221 1.425 1_544 S
C2216 C2223 1.409 1_554 S
C2217 H2209 0.930 . S
C2217 C2215 1.419 . S
C2217 C2218 1.362 . S
C2218 H2210 0.885 1_554 S
C2218 C2217 1.362 . S
C2218 C2221 1.409 1_554 S
C2219 H2211 0.930 . S
C2219 C2220 1.355 1_565 S
C2219 C2221 1.415 . S
C2220 C2219 1.355 1_545 S
C2220 C2222 1.419 . S
C2221 C2216 1.425 1_566 S
C2221 C2218 1.409 1_556 S
C2221 C2219 1.415 . S
C2222 H2212 0.930 . S
C2222 C2220 1.419 . S
C2222 C2223 1.362 . S
C2223 H2213 0.885 1_556 S
C2223 C2216 1.409 1_556 S
C2223 C2222 1.362 . S
H2224 C2230 0.930 . S
H2225 C2233 0.930 . S
H2226 C2234 0.930 1_556 S
H2227 C2235 0.930 . S
H2228 C2238 0.930 . S
H2229 C2239 0.930 1_554 S
C2230 H2224 0.930 . S
C2230 C2231 1.355 . S
C2230 C2232 1.415 . S
C2231 C2230 1.355 . S
C2231 C2233 1.419 . S
C2232 C2230 1.415 . S
C2232 C2237 1.425 1_554 S
C2232 C2239 1.409 1_554 S
C2233 H2225 0.930 . S
C2233 C2231 1.419 . S
C2233 C2234 1.362 . S
C2234 H2226 0.930 1_554 S
C2234 C2233 1.362 . S
C2234 C2237 1.409 1_554 S
C2235 H2227 0.930 . S
C2235 C2236 1.355 . S
C2235 C2237 1.415 . S
C2236 C2235 1.355 . S
C2236 C2238 1.419 . S
C2237 C2232 1.425 1_556 S
C2237 C2234 1.409 1_556 S
C2237 C2235 1.415 . S
C2238 H2228 0.930 . S
C2238 C2236 1.419 . S
C2238 C2239 1.362 . S
C2239 H2229 0.930 1_556 S
C2239 C2232 1.409 1_556 S
C2239 C2238 1.362 . S
H2240 C2246 0.930 . S
H2241 C2249 0.930 . S
H2242 C2250 0.930 . S
H2243 C2251 0.930 . S
H2244 C2254 0.930 . S
H2245 C2255 0.930 . S
C2246 H2240 0.930 . S
C2246 C2247 1.355 . S
C2246 C2248 1.415 . S
C2247 C2246 1.355 . S
C2247 C2249 1.419 . S
C2248 C2246 1.415 . S
C2248 C2253 1.425 . S
C2248 C2255 1.409 . S
C2249 H2241 0.930 . S
C2249 C2247 1.419 . S
C2249 C2250 1.362 . S
C2250 H2242 0.930 . S
C2250 C2249 1.362 . S
C2250 C2253 1.409 . S
C2251 H2243 0.930 . S
C2251 C2252 1.355 . S
C2251 C2253 1.415 . S
C2252 C2251 1.355 . S
C2252 C2254 1.419 . S
C2253 C2248 1.425 . S
C2253 C2250 1.409 . S
C2253 C2251 1.415 . S
C2254 H2244 0.930 . S
C2254 C2252 1.419 . S
C2254 C2255 1.362 . S
C2255 H2245 0.930 . S
C2255 C2248 1.409 . S
C2255 C2254 1.362 . S
H2256 C2262 0.930 . S
H2257 C2265 0.930 . S
H2258 C2266 0.930 . S
H2259 C2267 0.930 . S
H2260 C2270 0.930 . S
H2261 C2271 0.930 . S
C2262 H2256 0.930 . S
C2262 C2263 1.355 1_545 S
C2262 C2264 1.415 . S
C2263 C2262 1.355 1_565 S
C2263 C2265 1.419 . S
C2264 C2262 1.415 . S
C2264 C2269 1.425 1_545 S
C2264 C2271 1.409 . S
C2265 H2257 0.930 . S
C2265 C2263 1.419 . S
C2265 C2266 1.362 . S
C2266 H2258 0.930 . S
C2266 C2265 1.362 . S
C2266 C2269 1.409 . S
C2267 H2259 0.930 . S
C2267 C2268 1.355 1_565 S
C2267 C2269 1.415 . S
C2268 C2267 1.355 1_545 S
C2268 C2270 1.419 . S
C2269 C2264 1.425 1_565 S
C2269 C2266 1.409 . S
C2269 C2267 1.415 . S
C2270 H2260 0.930 . S
C2270 C2268 1.419 . S
C2270 C2271 1.362 . S
C2271 H2261 0.930 . S
C2271 C2264 1.409 . S
C2271 C2270 1.362 . S
H2272 C2278 0.930 . S
H2273 C2281 0.930 . S
H2274 C2282 0.930 . S
H2275 C2283 0.930 . S
H2276 C2286 0.930 . S
H2277 C2287 0.930 . S
C2278 H2272 0.930 . S
C2278 C2279 1.355 . S
C2278 C2280 1.415 . S
C2279 C2278 1.355 . S
C2279 C2281 1.419 . S
C2280 C2278 1.415 . S
C2280 C2285 1.425 1_556 S
C2280 C2287 1.409 1_556 S
C2281 H2273 0.930 . S
C2281 C2279 1.419 . S
C2281 C2282 1.362 . S
C2282 H2274 0.930 . S
C2282 C2281 1.362 . S
C2282 C2285 1.409 1_556 S
C2283 H2275 0.930 . S
C2283 C2284 1.355 . S
C2283 C2285 1.415 . S
C2284 C2283 1.355 . S
C2284 C2286 1.419 . S
C2285 C2280 1.425 1_554 S
C2285 C2282 1.409 1_554 S
C2285 C2283 1.415 . S
C2286 H2276 0.930 . S
C2286 C2284 1.419 . S
C2286 C2287 1.362 . S
C2287 H2277 0.930 . S
C2287 C2280 1.409 1_554 S
C2287 C2286 1.362 . S
H2288 C2294 0.930 . S
H2289 C2297 0.930 . S
H2290 C2298 0.930 . S
H2291 C2299 0.930 . S
H2292 C2302 0.930 . S
H2293 C2303 0.930 . S
C2294 H2288 0.930 . S
C2294 C2295 1.355 . S
C2294 C2296 1.415 . S
C2295 C2294 1.355 . S
C2295 C2297 1.419 . S
C2296 C2294 1.415 . S
C2296 C2301 1.425 . S
C2296 C2303 1.409 . S
C2297 H2289 0.930 . S
C2297 C2295 1.419 . S
C2297 C2298 1.362 . S
C2298 H2290 0.930 . S
C2298 C2297 1.362 . S
C2298 C2301 1.409 . S
C2299 H2291 0.930 . S
C2299 C2300 1.355 . S
C2299 C2301 1.415 . S
C2300 C2299 1.355 . S
C2300 C2302 1.419 . S
C2301 C2296 1.425 . S
C2301 C2298 1.409 . S
C2301 C2299 1.415 . S
C2302 H2292 0.930 . S
C2302 C2300 1.419 . S
C2302 C2303 1.362 . S
C2303 H2293 0.930 . S
C2303 C2296 1.409 . S
C2303 C2302 1.362 . S
H2304 C2310 0.930 . S
H2305 C2313 0.930 . S
H2306 C2314 0.930 . S
H2307 C2315 0.930 . S
H2308 C2318 0.930 . S
H2309 C2319 0.930 . S
C2310 H2304 0.930 . S
C2310 C2311 1.355 1_545 S
C2310 C2312 1.415 . S
C2311 C2310 1.355 1_565 S
C2311 C2313 1.419 . S
C2312 C2310 1.415 . S
C2312 C2317 1.425 1_545 S
C2312 C2319 1.409 . S
C2313 H2305 0.930 . S
C2313 C2311 1.419 . S
C2313 C2314 1.362 . S
C2314 H2306 0.930 . S
C2314 C2313 1.362 . S
C2314 C2317 1.409 . S
C2315 H2307 0.930 . S
C2315 C2316 1.355 1_565 S
C2315 C2317 1.415 . S
C2316 C2315 1.355 1_545 S
C2316 C2318 1.419 . S
C2317 C2312 1.425 1_565 S
C2317 C2314 1.409 . S
C2317 C2315 1.415 . S
C2318 H2308 0.930 . S
C2318 C2316 1.419 . S
C2318 C2319 1.362 . S
C2319 H2309 0.930 . S
C2319 C2312 1.409 . S
C2319 C2318 1.362 . S
H2320 C2326 0.930 . S
H2321 C2329 0.930 . S
H2322 C2330 0.930 . S
H2323 C2331 0.930 . S
H2324 C2334 0.930 . S
H2325 C2335 0.930 . S
C2326 H2320 0.930 . S
C2326 C2327 1.355 . S
C2326 C2328 1.415 . S
C2327 C2326 1.355 . S
C2327 C2329 1.419 . S
C2328 C2326 1.415 . S
C2328 C2333 1.425 . S
C2328 C2335 1.409 . S
C2329 H2321 0.930 . S
C2329 C2327 1.419 . S
C2329 C2330 1.362 . S
C2330 H2322 0.930 . S
C2330 C2329 1.362 . S
C2330 C2333 1.409 . S
C2331 H2323 0.930 . S
C2331 C2332 1.355 . S
C2331 C2333 1.415 . S
C2332 C2331 1.355 . S
C2332 C2334 1.419 . S
C2333 C2328 1.425 . S
C2333 C2330 1.409 . S
C2333 C2331 1.415 . S
C2334 H2324 0.930 . S
C2334 C2332 1.419 . S
C2334 C2335 1.362 . S
C2335 H2325 0.930 . S
C2335 C2328 1.409 . S
C2335 C2334 1.362 . S
H2336 C2342 0.930 . S
H2337 C2345 0.930 . S
H2338 C2346 0.930 . S
H2339 C2347 0.930 . S
H2340 C2350 0.930 . S
H2341 C2351 0.930 . S
C2342 H2336 0.930 . S
C2342 C2343 1.355 . S
C2342 C2344 1.415 . S
C2343 C2342 1.355 . S
C2343 C2345 1.419 . S
C2344 C2342 1.415 . S
C2344 C2349 1.425 . S
C2344 C2351 1.409 . S
C2345 H2337 0.930 . S
C2345 C2343 1.419 . S
C2345 C2346 1.362 . S
C2346 H2338 0.930 . S
C2346 C2345 1.362 . S
C2346 C2349 1.409 . S
C2347 H2339 0.930 . S
C2347 C2348 1.355 . S
C2347 C2349 1.415 . S
C2348 C2347 1.355 . S
C2348 C2350 1.419 . S
C2349 C2344 1.425 . S
C2349 C2346 1.409 . S
C2349 C2347 1.415 . S
C2350 H2340 0.930 . S
C2350 C2348 1.419 . S
C2350 C2351 1.362 . S
C2351 H2341 0.930 . S
C2351 C2344 1.409 . S
C2351 C2350 1.362 . S
H2352 C2358 0.930 . S
H2353 C2361 0.930 . S
H2354 C2362 0.930 . S
H2355 C2363 0.930 . S
H2356 C2366 0.930 . S
H2357 C2367 0.930 . S
C2358 H2352 0.930 . S
C2358 C2359 1.355 . S
C2358 C2360 1.415 . S
C2359 C2358 1.355 . S
C2359 C2361 1.419 . S
C2360 C2358 1.415 . S
C2360 C2365 1.425 . S
C2360 C2367 1.409 . S
C2361 H2353 0.930 . S
C2361 C2359 1.419 . S
C2361 C2362 1.362 . S
C2362 H2354 0.930 . S
C2362 C2361 1.362 . S
C2362 C2365 1.409 . S
C2363 H2355 0.930 . S
C2363 C2364 1.355 . S
C2363 C2365 1.415 . S
C2364 C2363 1.355 . S
C2364 C2366 1.419 . S
C2365 C2360 1.425 . S
C2365 C2362 1.409 . S
C2365 C2363 1.415 . S
C2366 H2356 0.930 . S
C2366 C2364 1.419 . S
C2366 C2367 1.362 . S
C2367 H2357 0.930 . S
C2367 C2360 1.409 . S
C2367 C2366 1.362 . S
H2368 C2374 0.930 . S
H2369 C2377 0.930 . S
H2370 C2378 0.930 . S
H2371 C2379 0.930 . S
H2372 C2382 0.930 . S
H2373 C2383 0.930 . S
C2374 H2368 0.930 . S
C2374 C2375 1.355 . S
C2374 C2376 1.415 . S
C2375 C2374 1.355 . S
C2375 C2377 1.419 . S
C2376 C2374 1.415 . S
C2376 C2381 1.425 . S
C2376 C2383 1.409 . S
C2377 H2369 0.930 . S
C2377 C2375 1.419 . S
C2377 C2378 1.362 . S
C2378 H2370 0.930 . S
C2378 C2377 1.362 . S
C2378 C2381 1.409 . S
C2379 H2371 0.930 . S
C2379 C2380 1.355 . S
C2379 C2381 1.415 . S
C2380 C2379 1.355 . S
C2380 C2382 1.419 . S
C2381 C2376 1.425 . S
C2381 C2378 1.409 . S
C2381 C2379 1.415 . S
C2382 H2372 0.930 . S
C2382 C2380 1.419 . S
C2382 C2383 1.362 . S
C2383 H2373 0.930 . S
C2383 C2376 1.409 . S
C2383 C2382 1.362 . S
H2384 C2390 0.930 . S
H2385 C2393 0.930 . S
H2386 C2394 0.930 . S
H2387 C2395 0.930 . S
H2388 C2398 0.930 . S
H2389 C2399 0.930 . S
C2390 H2384 0.930 . S
C2390 C2391 1.355 . S
C2390 C2392 1.415 . S
C2391 C2390 1.355 . S
C2391 C2393 1.419 . S
C2392 C2390 1.415 . S
C2392 C2397 1.425 . S
C2392 C2399 1.409 . S
C2393 H2385 0.930 . S
C2393 C2391 1.419 . S
C2393 C2394 1.362 . S
C2394 H2386 0.930 . S
C2394 C2393 1.362 . S
C2394 C2397 1.409 . S
C2395 H2387 0.930 . S
C2395 C2396 1.355 . S
C2395 C2397 1.415 . S
C2396 C2395 1.355 . S
C2396 C2398 1.419 . S
C2397 C2392 1.425 . S
C2397 C2394 1.409 . S
C2397 C2395 1.415 . S
C2398 H2388 0.930 . S
C2398 C2396 1.419 . S
C2398 C2399 1.362 . S
C2399 H2389 0.930 . S
C2399 C2392 1.409 . S
C2399 C2398 1.362 . S
H2400 C2406 0.930 . S
H2401 C2409 0.930 . S
H2402 C2410 0.930 . S
H2403 C2411 0.930 . S
H2404 C2414 0.930 . S
H2405 C2415 0.930 . S
C2406 H2400 0.930 . S
C2406 C2407 1.355 1_565 S
C2406 C2408 1.415 . S
C2407 C2406 1.355 1_545 S
C2407 C2409 1.419 1_455 S
C2408 C2406 1.415 . S
C2408 C2413 1.425 1_465 S
C2408 C2415 1.409 . S
C2409 H2401 0.930 . S
C2409 C2407 1.419 1_655 S
C2409 C2410 1.362 . S
C2410 H2402 0.930 . S
C2410 C2409 1.362 . S
C2410 C2413 1.409 . S
C2411 H2403 0.930 . S
C2411 C2412 1.355 1_545 S
C2411 C2413 1.415 . S
C2412 C2411 1.355 1_565 S
C2412 C2414 1.419 1_655 S
C2413 C2408 1.425 1_645 S
C2413 C2410 1.409 . S
C2413 C2411 1.415 . S
C2414 H2404 0.930 . S
C2414 C2412 1.419 1_455 S
C2414 C2415 1.362 . S
C2415 H2405 0.930 . S
C2415 C2408 1.409 . S
C2415 C2414 1.362 . S
H2416 C2422 0.930 . S
H2417 C2425 0.930 . S
H2418 C2426 0.930 . S
H2419 C2427 0.930 . S
H2420 C2430 0.930 . S
H2421 C2431 0.930 . S
C2422 H2416 0.930 . S
C2422 C2423 1.355 1_455 S
C2422 C2424 1.415 . S
C2423 C2422 1.355 1_655 S
C2423 C2425 1.419 . S
C2424 C2422 1.415 . S
C2424 C2429 1.425 1_455 S
C2424 C2431 1.409 . S
C2425 H2417 0.930 . S
C2425 C2423 1.419 . S
C2425 C2426 1.362 . S
C2426 H2418 0.930 . S
C2426 C2425 1.362 . S
C2426 C2429 1.409 . S
C2427 H2419 0.930 . S
C2427 C2428 1.355 1_655 S
C2427 C2429 1.415 . S
C2428 C2427 1.355 1_455 S
C2428 C2430 1.419 . S
C2429 C2424 1.425 1_655 S
C2429 C2426 1.409 . S
C2429 C2427 1.415 . S
C2430 H2420 0.930 . S
C2430 C2428 1.419 . S
C2430 C2431 1.362 . S
C2431 H2421 0.930 . S
C2431 C2424 1.409 . S
C2431 C2430 1.362 . S
H2432 C2438 0.930 . S
H2433 C2441 0.930 . S
H2434 C2442 0.930 . S
H2435 C2443 0.930 . S
H2436 C2446 0.930 . S
H2437 C2447 0.930 . S
C2438 H2432 0.930 . S
C2438 C2439 1.355 1_455 S
C2438 C2440 1.415 . S
C2439 C2438 1.355 1_655 S
C2439 C2441 1.419 . S
C2440 C2438 1.415 . S
C2440 C2445 1.425 1_455 S
C2440 C2447 1.409 . S
C2441 H2433 0.930 . S
C2441 C2439 1.419 . S
C2441 C2442 1.362 . S
C2442 H2434 0.930 . S
C2442 C2441 1.362 . S
C2442 C2445 1.409 . S
C2443 H2435 0.930 . S
C2443 C2444 1.355 1_655 S
C2443 C2445 1.415 . S
C2444 C2443 1.355 1_455 S
C2444 C2446 1.419 . S
C2445 C2440 1.425 1_655 S
C2445 C2442 1.409 . S
C2445 C2443 1.415 . S
C2446 H2436 0.930 . S
C2446 C2444 1.419 . S
C2446 C2447 1.362 . S
C2447 H2437 0.930 . S
C2447 C2440 1.409 . S
C2447 C2446 1.362 . S
H2448 C2454 0.930 . S
H2449 C2457 0.930 . S
H2450 C2458 0.930 . S
H2451 C2459 0.930 . S
H2452 C2462 0.930 . S
H2453 C2463 0.930 . S
C2454 H2448 0.930 . S
C2454 C2455 1.355 1_655 S
C2454 C2456 1.415 . S
C2455 C2454 1.355 1_455 S
C2455 C2457 1.419 . S
C2456 C2454 1.415 . S
C2456 C2461 1.425 1_656 S
C2456 C2463 1.409 1_556 S
C2457 H2449 0.930 . S
C2457 C2455 1.419 . S
C2457 C2458 1.362 . S
C2458 H2450 0.930 . S
C2458 C2457 1.362 . S
C2458 C2461 1.409 1_556 S
C2459 H2451 0.930 . S
C2459 C2460 1.355 1_455 S
C2459 C2461 1.415 . S
C2460 C2459 1.355 1_655 S
C2460 C2462 1.419 . S
C2461 C2456 1.425 1_454 S
C2461 C2458 1.409 1_554 S
C2461 C2459 1.415 . S
C2462 H2452 0.930 . S
C2462 C2460 1.419 . S
C2462 C2463 1.362 . S
C2463 H2453 0.930 . S
C2463 C2456 1.409 1_554 S
C2463 C2462 1.362 . S
H2464 C2470 0.930 . S
H2465 C2473 0.930 . S
H2466 C2474 0.930 . S
H2467 C2475 0.930 . S
H2468 C2478 0.930 . S
H2469 C2479 0.930 . S
C2470 H2464 0.930 . S
C2470 C2471 1.355 . S
C2470 C2472 1.415 . S
C2471 C2470 1.355 . S
C2471 C2473 1.419 . S
C2472 C2470 1.415 . S
C2472 C2477 1.425 . S
C2472 C2479 1.409 . S
C2473 H2465 0.930 . S
C2473 C2471 1.419 . S
C2473 C2474 1.362 . S
C2474 H2466 0.930 . S
C2474 C2473 1.362 . S
C2474 C2477 1.409 . S
C2475 H2467 0.930 . S
C2475 C2476 1.355 . S
C2475 C2477 1.415 . S
C2476 C2475 1.355 . S
C2476 C2478 1.419 . S
C2477 C2472 1.425 . S
C2477 C2474 1.409 . S
C2477 C2475 1.415 . S
C2478 H2468 0.930 . S
C2478 C2476 1.419 . S
C2478 C2479 1.362 . S
C2479 H2469 0.930 . S
C2479 C2472 1.409 . S
C2479 C2478 1.362 . S
H2480 C2486 0.930 . S
H2481 C2489 0.930 . S
H2482 C2490 0.930 . S
H2483 C2491 0.930 . S
H2484 C2494 0.930 . S
H2485 C2495 0.930 . S
C2486 H2480 0.930 . S
C2486 C2487 1.355 . S
C2486 C2488 1.415 . S
C2487 C2486 1.355 . S
C2487 C2489 1.419 . S
C2488 C2486 1.415 . S
C2488 C2493 1.425 . S
C2488 C2495 1.409 . S
C2489 H2481 0.930 . S
C2489 C2487 1.419 . S
C2489 C2490 1.362 . S
C2490 H2482 0.930 . S
C2490 C2489 1.362 . S
C2490 C2493 1.409 . S
C2491 H2483 0.930 . S
C2491 C2492 1.355 . S
C2491 C2493 1.415 . S
C2492 C2491 1.355 . S
C2492 C2494 1.419 . S
C2493 C2488 1.425 . S
C2493 C2490 1.409 . S
C2493 C2491 1.415 . S
C2494 H2484 0.930 . S
C2494 C2492 1.419 . S
C2494 C2495 1.362 . S
C2495 H2485 0.930 . S
C2495 C2488 1.409 . S
C2495 C2494 1.362 . S
H2496 C2502 0.930 . S
H2497 C2505 0.930 . S
H2498 C2506 0.930 . S
H2499 C2507 0.930 . S
H2500 C2510 0.930 . S
H2501 C2511 0.930 . S
C2502 H2496 0.930 . S
C2502 C2503 1.355 . S
C2502 C2504 1.415 . S
C2503 C2502 1.355 . S
C2503 C2505 1.419 . S
C2504 C2502 1.415 . S
C2504 C2509 1.425 . S
C2504 C2511 1.409 . S
C2505 H2497 0.930 . S
C2505 C2503 1.419 . S
C2505 C2506 1.362 . S
C2506 H2498 0.930 . S
C2506 C2505 1.362 . S
C2506 C2509 1.409 . S
C2507 H2499 0.930 . S
C2507 C2508 1.355 . S
C2507 C2509 1.415 . S
C2508 C2507 1.355 . S
C2508 C2510 1.419 . S
C2509 C2504 1.425 . S
C2509 C2506 1.409 . S
C2509 C2507 1.415 . S
C2510 H2500 0.930 . S
C2510 C2508 1.419 . S
C2510 C2511 1.362 . S
C2511 H2501 0.930 . S
C2511 C2504 1.409 . S
C2511 C2510 1.362 . S
H2512 C2518 0.930 . S
H2513 C2521 0.930 . S
H2514 C2522 0.930 . S
H2515 C2523 0.930 . S
H2516 C2526 0.930 . S
H2517 C2527 0.930 . S
C2518 H2512 0.930 . S
C2518 C2519 1.355 . S
C2518 C2520 1.415 . S
C2519 C2518 1.355 . S
C2519 C2521 1.419 . S
C2520 C2518 1.415 . S
C2520 C2525 1.425 . S
C2520 C2527 1.409 . S
C2521 H2513 0.930 . S
C2521 C2519 1.419 . S
C2521 C2522 1.362 . S
C2522 H2514 0.930 . S
C2522 C2521 1.362 . S
C2522 C2525 1.409 . S
C2523 H2515 0.930 . S
C2523 C2524 1.355 . S
C2523 C2525 1.415 . S
C2524 C2523 1.355 . S
C2524 C2526 1.419 . S
C2525 C2520 1.425 . S
C2525 C2522 1.409 . S
C2525 C2523 1.415 . S
C2526 H2516 0.930 . S
C2526 C2524 1.419 . S
C2526 C2527 1.362 . S
C2527 H2517 0.930 . S
C2527 C2520 1.409 . S
C2527 C2526 1.362 . S
H2528 C2534 0.930 . S
H2529 C2537 0.930 . S
H2530 C2538 0.930 . S
H2531 C2539 0.930 . S
H2532 C2542 0.930 . S
H2533 C2543 0.930 . S
C2534 H2528 0.930 . S
C2534 C2535 1.355 . S
C2534 C2536 1.415 . S
C2535 C2534 1.355 . S
C2535 C2537 1.419 . S
C2536 C2534 1.415 . S
C2536 C2541 1.425 . S
C2536 C2543 1.409 . S
C2537 H2529 0.930 . S
C2537 C2535 1.419 . S
C2537 C2538 1.362 . S
C2538 H2530 0.930 . S
C2538 C2537 1.362 . S
C2538 C2541 1.409 . S
C2539 H2531 0.930 . S
C2539 C2540 1.355 . S
C2539 C2541 1.415 . S
C2540 C2539 1.355 . S
C2540 C2542 1.419 . S
C2541 C2536 1.425 . S
C2541 C2538 1.409 . S
C2541 C2539 1.415 . S
C2542 H2532 0.930 . S
C2542 C2540 1.419 . S
C2542 C2543 1.362 . S
C2543 H2533 0.930 . S
C2543 C2536 1.409 . S
C2543 C2542 1.362 . S
H2544 C2550 0.930 . S
H2545 C2553 0.930 . S
H2546 C2554 0.930 . S
H2547 C2555 0.930 . S
H2548 C2558 0.930 . S
H2549 C2559 0.930 . S
C2550 H2544 0.930 . S
C2550 C2551 1.355 . S
C2550 C2552 1.415 . S
C2551 C2550 1.355 . S
C2551 C2553 1.419 . S
C2552 C2550 1.415 . S
C2552 C2557 1.425 . S
C2552 C2559 1.409 . S
C2553 H2545 0.930 . S
C2553 C2551 1.419 . S
C2553 C2554 1.362 . S
C2554 H2546 0.930 . S
C2554 C2553 1.362 . S
C2554 C2557 1.409 . S
C2555 H2547 0.930 . S
C2555 C2556 1.355 . S
C2555 C2557 1.415 . S
C2556 C2555 1.355 . S
C2556 C2558 1.419 . S
C2557 C2552 1.425 . S
C2557 C2554 1.409 . S
C2557 C2555 1.415 . S
C2558 H2548 0.930 . S
C2558 C2556 1.419 . S
C2558 C2559 1.362 . S
C2559 H2549 0.930 . S
C2559 C2552 1.409 . S
C2559 C2558 1.362 . S
H2560 C2566 0.930 . S
H2561 C2569 0.930 . S
H2562 C2570 0.930 . S
H2563 C2571 0.930 . S
H2564 C2574 0.930 . S
H2565 C2575 0.930 . S
C2566 H2560 0.930 . S
C2566 C2567 1.355 . S
C2566 C2568 1.415 . S
C2567 C2566 1.355 . S
C2567 C2569 1.419 . S
C2568 C2566 1.415 . S
C2568 C2573 1.425 . S
C2568 C2575 1.409 . S
C2569 H2561 0.930 . S
C2569 C2567 1.419 . S
C2569 C2570 1.362 . S
C2570 H2562 0.930 . S
C2570 C2569 1.362 . S
C2570 C2573 1.409 . S
C2571 H2563 0.930 . S
C2571 C2572 1.355 . S
C2571 C2573 1.415 . S
C2572 C2571 1.355 . S
C2572 C2574 1.419 . S
C2573 C2568 1.425 . S
C2573 C2570 1.409 . S
C2573 C2571 1.415 . S
C2574 H2564 0.930 . S
C2574 C2572 1.419 . S
C2574 C2575 1.362 . S
C2575 H2565 0.930 . S
C2575 C2568 1.409 . S
C2575 C2574 1.362 . S
H2576 C2582 0.930 . S
H2577 C2585 0.930 . S
H2578 C2586 0.930 . S
H2579 C2587 0.930 . S
H2580 C2590 0.930 . S
H2581 C2591 0.930 . S
C2582 H2576 0.930 . S
C2582 C2583 1.355 . S
C2582 C2584 1.415 . S
C2583 C2582 1.355 . S
C2583 C2585 1.419 . S
C2584 C2582 1.415 . S
C2584 C2589 1.425 . S
C2584 C2591 1.409 . S
C2585 H2577 0.930 . S
C2585 C2583 1.419 . S
C2585 C2586 1.362 . S
C2586 H2578 0.930 . S
C2586 C2585 1.362 . S
C2586 C2589 1.409 . S
C2587 H2579 0.930 . S
C2587 C2588 1.355 . S
C2587 C2589 1.415 . S
C2588 C2587 1.355 . S
C2588 C2590 1.419 . S
C2589 C2584 1.425 . S
C2589 C2586 1.409 . S
C2589 C2587 1.415 . S
C2590 H2580 0.930 . S
C2590 C2588 1.419 . S
C2590 C2591 1.362 . S
C2591 H2581 0.930 . S
C2591 C2584 1.409 . S
C2591 C2590 1.362 . S
H2592 C2598 0.930 . S
H2593 C2601 0.930 . S
H2594 C2602 0.930 . S
H2595 C2603 0.930 . S
H2596 C2606 0.930 . S
H2597 C2607 0.930 . S
C2598 H2592 0.930 . S
C2598 C2599 1.355 . S
C2598 C2600 1.415 . S
C2599 C2598 1.355 . S
C2599 C2601 1.419 . S
C2600 C2598 1.415 . S
C2600 C2605 1.425 . S
C2600 C2607 1.409 . S
C2601 H2593 0.930 . S
C2601 C2599 1.419 . S
C2601 C2602 1.362 . S
C2602 H2594 0.930 . S
C2602 C2601 1.362 . S
C2602 C2605 1.409 . S
C2603 H2595 0.930 . S
C2603 C2604 1.355 . S
C2603 C2605 1.415 . S
C2604 C2603 1.355 . S
C2604 C2606 1.419 . S
C2605 C2600 1.425 . S
C2605 C2602 1.409 . S
C2605 C2603 1.415 . S
C2606 H2596 0.930 . S
C2606 C2604 1.419 . S
C2606 C2607 1.362 . S
C2607 H2597 0.930 . S
C2607 C2600 1.409 . S
C2607 C2606 1.362 . S
H2608 C2614 0.930 . S
H2609 C2617 0.930 . S
H2610 C2618 0.930 . S
H2611 C2619 0.930 . S
H2612 C2622 0.930 . S
H2613 C2623 0.930 . S
C2614 H2608 0.930 . S
C2614 C2615 1.355 . S
C2614 C2616 1.415 . S
C2615 C2614 1.355 . S
C2615 C2617 1.419 . S
C2616 C2614 1.415 . S
C2616 C2621 1.425 . S
C2616 C2623 1.409 . S
C2617 H2609 0.930 . S
C2617 C2615 1.419 . S
C2617 C2618 1.362 . S
C2618 H2610 0.930 . S
C2618 C2617 1.362 . S
C2618 C2621 1.409 . S
C2619 H2611 0.930 . S
C2619 C2620 1.355 . S
C2619 C2621 1.415 . S
C2620 C2619 1.355 . S
C2620 C2622 1.419 . S
C2621 C2616 1.425 . S
C2621 C2618 1.409 . S
C2621 C2619 1.415 . S
C2622 H2612 0.930 . S
C2622 C2620 1.419 . S
C2622 C2623 1.362 . S
C2623 H2613 0.930 . S
C2623 C2616 1.409 . S
C2623 C2622 1.362 . S
H2624 C2630 0.930 . S
H2625 C2633 0.930 . S
H2626 C2634 0.930 . S
H2627 C2635 0.930 . S
H2628 C2638 0.930 . S
H2629 C2639 0.930 . S
C2630 H2624 0.930 . S
C2630 C2631 1.355 . S
C2630 C2632 1.415 . S
C2631 C2630 1.355 . S
C2631 C2633 1.419 . S
C2632 C2630 1.415 . S
C2632 C2637 1.425 . S
C2632 C2639 1.409 . S
C2633 H2625 0.930 . S
C2633 C2631 1.419 . S
C2633 C2634 1.362 . S
C2634 H2626 0.930 . S
C2634 C2633 1.362 . S
C2634 C2637 1.409 . S
C2635 H2627 0.930 . S
C2635 C2636 1.355 . S
C2635 C2637 1.415 . S
C2636 C2635 1.355 . S
C2636 C2638 1.419 . S
C2637 C2632 1.425 . S
C2637 C2634 1.409 . S
C2637 C2635 1.415 . S
C2638 H2628 0.930 . S
C2638 C2636 1.419 . S
C2638 C2639 1.362 . S
C2639 H2629 0.930 . S
C2639 C2632 1.409 . S
C2639 C2638 1.362 . S
H2640 C2646 0.930 . S
H2641 C2649 0.930 . S
H2642 C2650 0.930 . S
H2643 C2651 0.930 . S
H2644 C2654 0.930 . S
H2645 C2655 0.930 . S
C2646 H2640 0.930 . S
C2646 C2647 1.355 . S
C2646 C2648 1.415 . S
C2647 C2646 1.355 . S
C2647 C2649 1.419 . S
C2648 C2646 1.415 . S
C2648 C2653 1.425 . S
C2648 C2655 1.409 . S
C2649 H2641 0.930 . S
C2649 C2647 1.419 . S
C2649 C2650 1.362 . S
C2650 H2642 0.930 . S
C2650 C2649 1.362 . S
C2650 C2653 1.409 . S
C2651 H2643 0.930 . S
C2651 C2652 1.355 . S
C2651 C2653 1.415 . S
C2652 C2651 1.355 . S
C2652 C2654 1.419 . S
C2653 C2648 1.425 . S
C2653 C2650 1.409 . S
C2653 C2651 1.415 . S
C2654 H2644 0.930 . S
C2654 C2652 1.419 . S
C2654 C2655 1.362 . S
C2655 H2645 0.930 . S
C2655 C2648 1.409 . S
C2655 C2654 1.362 . S
H2656 C2662 0.930 . S
H2657 C2665 0.930 . S
H2658 C2666 0.930 . S
H2659 C2667 0.930 . S
H2660 C2670 0.930 . S
H2661 C2671 0.930 . S
C2662 H2656 0.930 . S
C2662 C2663 1.355 . S
C2662 C2664 1.415 . S
C2663 C2662 1.355 . S
C2663 C2665 1.419 . S
C2664 C2662 1.415 . S
C2664 C2669 1.425 . S
C2664 C2671 1.409 . S
C2665 H2657 0.930 . S
C2665 C2663 1.419 . S
C2665 C2666 1.362 . S
C2666 H2658 0.930 . S
C2666 C2665 1.362 . S
C2666 C2669 1.409 . S
C2667 H2659 0.930 . S
C2667 C2668 1.355 . S
C2667 C2669 1.415 . S
C2668 C2667 1.355 . S
C2668 C2670 1.419 . S
C2669 C2664 1.425 . S
C2669 C2666 1.409 . S
C2669 C2667 1.415 . S
C2670 H2660 0.930 . S
C2670 C2668 1.419 . S
C2670 C2671 1.362 . S
C2671 H2661 0.930 . S
C2671 C2664 1.409 . S
C2671 C2670 1.362 . S
H2672 C2678 0.930 . S
H2673 C2681 0.930 . S
H2674 C2682 0.930 . S
H2675 C2683 0.930 . S
H2676 C2686 0.930 . S
H2677 C2687 0.930 . S
C2678 H2672 0.930 . S
C2678 C2679 1.355 . S
C2678 C2680 1.415 . S
C2679 C2678 1.355 . S
C2679 C2681 1.419 . S
C2680 C2678 1.415 . S
C2680 C2685 1.425 . S
C2680 C2687 1.409 . S
C2681 H2673 0.930 . S
C2681 C2679 1.419 . S
C2681 C2682 1.362 . S
C2682 H2674 0.930 . S
C2682 C2681 1.362 . S
C2682 C2685 1.409 . S
C2683 H2675 0.930 . S
C2683 C2684 1.355 . S
C2683 C2685 1.415 . S
C2684 C2683 1.355 . S
C2684 C2686 1.419 . S
C2685 C2680 1.425 . S
C2685 C2682 1.409 . S
C2685 C2683 1.415 . S
C2686 H2676 0.930 . S
C2686 C2684 1.419 . S
C2686 C2687 1.362 . S
C2687 H2677 0.930 . S
C2687 C2680 1.409 . S
C2687 C2686 1.362 . S
H2688 C2694 0.930 . S
H2689 C2697 0.930 . S
H2690 C2698 0.930 . S
H2691 C2699 0.930 . S
H2692 C2702 0.930 . S
H2693 C2703 0.930 . S
C2694 H2688 0.930 . S
C2694 C2695 1.355 . S
C2694 C2696 1.415 . S
C2695 C2694 1.355 . S
C2695 C2697 1.419 . S
C2696 C2694 1.415 . S
C2696 C2701 1.425 . S
C2696 C2703 1.409 . S
C2697 H2689 0.930 . S
C2697 C2695 1.419 . S
C2697 C2698 1.362 . S
C2698 H2690 0.930 . S
C2698 C2697 1.362 . S
C2698 C2701 1.409 . S
C2699 H2691 0.930 . S
C2699 C2700 1.355 . S
C2699 C2701 1.415 . S
C2700 C2699 1.355 . S
C2700 C2702 1.419 . S
C2701 C2696 1.425 . S
C2701 C2698 1.409 . S
C2701 C2699 1.415 . S
C2702 H2692 0.930 . S
C2702 C2700 1.419 . S
C2702 C2703 1.362 . S
C2703 H2693 0.930 . S
C2703 C2696 1.409 . S
C2703 C2702 1.362 . S
H2704 C2710 0.930 . S
H2705 C2713 0.930 . S
H2706 C2714 0.930 . S
H2707 C2715 0.930 . S
H2708 C2718 0.930 . S
H2709 C2719 0.930 . S
C2710 H2704 0.930 . S
C2710 C2711 1.355 . S
C2710 C2712 1.415 . S
C2711 C2710 1.355 . S
C2711 C2713 1.419 . S
C2712 C2710 1.415 . S
C2712 C2717 1.425 . S
C2712 C2719 1.409 . S
C2713 H2705 0.930 . S
C2713 C2711 1.419 . S
C2713 C2714 1.362 . S
C2714 H2706 0.930 . S
C2714 C2713 1.362 . S
C2714 C2717 1.409 . S
C2715 H2707 0.930 . S
C2715 C2716 1.355 . S
C2715 C2717 1.415 . S
C2716 C2715 1.355 . S
C2716 C2718 1.419 . S
C2717 C2712 1.425 . S
C2717 C2714 1.409 . S
C2717 C2715 1.415 . S
C2718 H2708 0.930 . S
C2718 C2716 1.419 . S
C2718 C2719 1.362 . S
C2719 H2709 0.930 . S
C2719 C2712 1.409 . S
C2719 C2718 1.362 . S
C1703 C38 1.832 . S
C1708 C144 1.833 . S
C1719 C197 1.822 . S
C1724 C91 1.819 . S
C1735 C356 1.801 . S
C1740 C250 1.811 . S
C1751 C409 1.825 . S
C1756 C303 1.816 . S
C1767 C462 1.826 . S
C1772 C568 1.833 . S
C1783 C621 1.796 . S
C1788 C515 1.782 . S
C1799 C674 1.828 . S
C1804 C780 1.836 . S
C1815 C833 1.784 . S
C1820 C727 1.785 . S
C1831 C886 1.752 . S
C1836 C992 1.758 . S
C1847 C939 1.807 . S
C1852 C1045 1.821 . S
C1863 C1204 1.773 . S
C1868 C1098 1.765 . S
C1879 C1151 1.826 . S
C1884 C1257 1.835 . S
C1895 C1416 1.787 . S
C1900 C1310 1.796 . S
C1911 C1469 1.809 . S
C1916 C1363 1.823 . S
C1927 C1628 1.800 . S
C1932 C1522 1.803 . S
C1943 C1575 1.833 . S
C1948 C1681 1.838 . S
C1959 C1347 1.965 . S
C1964 C22 1.962 . S
C1975 C75 1.960 . S
C1980 C1294 1.951 . S
C1991 C128 1.962 . S
C1996 C1453 1.965 . S
C2007 C181 1.949 . S
C2012 C1400 1.944 . S
C2023 C1559 1.949 . S
C2028 C234 1.959 . S
C2039 C287 1.959 . S
C2044 C1506 1.944 . S
C2055 C340 1.953 . S
C2060 C1665 1.949 . S
C2071 C1612 1.957 . S
C2076 C393 1.941 . S
C2087 C446 1.955 . S
C2092 C923 1.955 . S
C2103 C499 1.952 . S
C2108 C870 1.955 . S
C2119 C552 1.953 . S
C2124 C1029 1.962 . S
C2135 C605 1.960 . S
C2140 C976 1.951 . S
C2151 C658 1.956 . S
C2156 C1135 1.949 . S
C2167 C1082 1.947 . S
C2172 C711 1.938 . S
C2183 C1241 1.951 . S
C2188 C764 1.951 . S
C2199 C817 1.960 . S
C2204 C1188 1.948 . S
C2215 C39 1.885 . S
C2220 C251 1.878 . S
C2231 C92 1.878 . S
C2236 C1576 1.869 . S
C2247 C145 1.852 . S
C2252 C781 1.845 . S
C2263 C198 1.878 . S
C2268 C1258 1.870 . S
C2279 C304 1.830 . S
C2284 C1364 1.840 . S
C2295 C569 1.825 . S
C2300 C357 1.815 . S
C2311 C1046 1.870 . S
C2316 C410 1.864 . S
C2327 C675 1.874 . S
C2332 C463 1.881 . S
C2343 C516 1.873 . S
C2348 C1152 1.863 . S
C2359 C1682 1.858 . S
C2364 C622 1.866 . S
C2375 C728 1.808 . S
C2380 C940 1.817 . S
C2391 C834 1.864 . S
C2396 C1470 1.872 . S
C2407 C1099 1.836 . S
C2412 C887 1.842 . S
C2423 C993 1.855 . S
C2428 C1629 1.847 . S
C2439 C1417 1.850 . S
C2444 C1205 1.842 . S
C2455 C1523 1.843 . S
C2460 C1311 1.850 . S
C2471 C29 1.089 . S
C2476 C82 1.094 . S
C2487 C135 1.091 . S
C2492 C188 1.091 . S
C2503 C241 1.131 . S
C2508 C294 1.135 . S
C2519 C347 1.121 . S
C2524 C400 1.101 . S
C2535 C506 1.089 . S
C2540 C453 1.097 . S
C2551 C559 1.136 . S
C2556 C612 1.134 . S
C2567 C665 1.097 . S
C2572 C718 1.114 . S
C2583 C771 1.103 . S
C2588 C824 1.093 . S
C2599 C877 1.148 . S
C2604 C930 1.140 . S
C2615 C1036 1.105 . S
C2620 C983 1.123 . S
C2631 C1089 1.127 . S
C2636 C1142 1.116 . S
C2647 C1195 1.111 . S
C2652 C1248 1.113 . S
C2663 C1354 1.149 . S
C2668 C1301 1.151 . S
C2679 C1407 1.149 . S
C2684 C1460 1.151 . S
C2695 C1566 1.147 . S
C2700 C1513 1.136 . S
C2711 C1619 1.111 . S
C2716 C1672 1.135 . S
