# Generated by pormake.
# Topology fee, (5)-cn, num edge types: 1
# Building blocks:
#     Node 0, Type 0, BuildingBlock: XOMCOT_clean_sbu_0, # of connection points: 5
#     Node 1, Type 0, BuildingBlock: XOMCOT_clean_sbu_0, # of connection points: 5
#     Node 2, Type 0, BuildingBlock: XOMCOT_clean_sbu_0, # of connection points: 5
#     Node 3, Type 0, BuildingBlock: XOMCOT_clean_sbu_0, # of connection points: 5
#     Edge 4, Type (0, 0), BuildingBlock: EZIPEK_clean_linker_0, # of connection points: 2
#     Edge 5, Type (0, 0), BuildingBlock: EZIPEK_clean_linker_0, # of connection points: 2
#     Edge 6, Type (0, 0), BuildingBlock: EZIPEK_clean_linker_0, # of connection points: 2
#     Edge 7, Type (0, 0), BuildingBlock: EZIPEK_clean_linker_0, # of connection points: 2
#     Edge 8, Type (0, 0), BuildingBlock: EZIPEK_clean_linker_0, # of connection points: 2
#     Edge 9, Type (0, 0), BuildingBlock: EZIPEK_clean_linker_0, # of connection points: 2
#     Edge 10, Type (0, 0), BuildingBlock: EZIPEK_clean_linker_0, # of connection points: 2
#     Edge 11, Type (0, 0), BuildingBlock: EZIPEK_clean_linker_0, # of connection points: 2
#     Edge 12, Type (0, 0), BuildingBlock: EZIPEK_clean_linker_0, # of connection points: 2
#     Edge 13, Type (0, 0), BuildingBlock: EZIPEK_clean_linker_0, # of connection points: 2
# Relax obj value: 0.155
# Max RMSD: 0.169
# Mean RMSD: 0.149
data_MOF--net-fee--node1-XOMCOT_clean_sbu_0--edge1-EZIPEK_clean_linker_0
_symmetry_space_group_name_H-M    P1
_symmetry_Int_Tables_number       1
_symmetry_cell_setting            triclinic
loop_
_symmetry_equiv_pos_as_xyz
'x, y, z'
_cell_length_a     28.900396
_cell_length_b     28.849055
_cell_length_c     13.689178
_cell_angle_alpha  95.472515
_cell_angle_beta   95.149912
_cell_angle_gamma 90.24537
loop_
_atom_site_label
_atom_site_type_symbol
_atom_site_fract_x
_atom_site_fract_y
_atom_site_fract_z
_atom_type_partial_charge
Co0 Co 0.17041 0.56137 0.11286 0.0
C1 C 0.16939 0.55913 0.32977 0.0
C2 C 0.19699 0.62368 0.29202 0.0
C3 C 0.19821 0.62544 0.39305 0.0
N4 N 0.1793 0.58202 0.25234 0.0
N5 N 0.18055 0.5851 0.41635 0.0
H6 H 0.15427 0.52445 0.3231 0.0
H7 H 0.20794 0.65122 0.25064 0.0
C8 C 0.25784 0.59977 0.03977 0.0
O9 O 0.26272 0.56091 0.98341 0.0
N10 N 0.16081 0.54132 0.97131 0.0
C11 C 0.13966 0.5016 0.92828 0.0
C12 C 0.13821 0.50112 0.8275 0.0
C13 C 0.16966 0.56545 0.89457 0.0
N14 N 0.1573 0.54109 0.8068 0.0
C15 C 0.19516 0.46525 0.11733 0.0
C16 C 0.28844 0.48003 0.17488 0.0
C17 C 0.27209 0.43467 0.14529 0.0
C18 C 0.22462 0.42719 0.12003 0.0
C19 C 0.25747 0.51714 0.17157 0.0
N20 N 0.21227 0.50975 0.13464 0.0
H21 H 0.15847 0.45867 0.10233 0.0
H22 H 0.26998 0.55179 0.19785 0.0
H23 H 0.12381 0.47545 0.96594 0.0
H24 H 0.18435 0.60018 0.9019 0.0
O25 O 0.11258 0.53126 0.13246 0.0
O26 O 0.11941 0.60445 0.0977 0.0
O27 O 0.22336 0.60476 0.092 0.0
C28 C 0.09273 0.57039 0.11592 0.0
H29 H 0.21026 0.65436 0.44554 0.0
H30 H 0.12352 0.47398 0.77339 0.0
H31 H 0.32462 0.48656 0.2007 0.0
H32 H 0.2105 0.39222 0.1028 0.0
Co33 Co 0.45182 0.19415 0.12376 0.0
C34 C 0.45675 0.19613 0.34525 0.0
C35 C 0.38766 0.18966 0.27306 0.0
C36 C 0.38475 0.18863 0.37225 0.0
N37 N 0.4326 0.19439 0.25573 0.0
N38 N 0.42802 0.19298 0.41694 0.0
H39 H 0.49403 0.19918 0.35864 0.0
H40 H 0.3588 0.18679 0.21666 0.0
C41 C 0.40148 0.28214 0.16444 0.0
O42 O 0.43052 0.28816 0.2443 0.0
N43 N 0.47014 0.19263 0.99136 0.0
C44 C 0.5139 0.18546 0.96656 0.0
C45 C 0.51418 0.1856 0.86651 0.0
C46 C 0.44411 0.19688 0.90596 0.0
N47 N 0.47049 0.19272 0.82904 0.0
C48 C 0.54368 0.22333 0.20921 0.0
C49 C 0.54484 0.30379 0.11449 0.0
C50 C 0.58653 0.28786 0.15764 0.0
C51 C 0.58584 0.24756 0.20728 0.0
C52 C 0.50425 0.27802 0.11528 0.0
N53 N 0.5034 0.23827 0.16243 0.0
H54 H 0.54446 0.19022 0.23996 0.0
H55 H 0.4748 0.28784 0.06858 0.0
H56 H 0.54353 0.17948 1.01758 0.0
H57 H 0.40696 0.20223 0.89994 0.0
O58 O 0.48439 0.13618 0.13904 0.0
O59 O 0.41031 0.14102 0.08407 0.0
O60 O 0.40576 0.24653 0.10187 0.0
C61 C 0.44545 0.11488 0.10708 0.0
H62 H 0.35348 0.18504 0.40902 0.0
H63 H 0.54385 0.18011 0.82401 0.0
H64 H 0.54431 0.3341 0.07331 0.0
H65 H 0.61781 0.23369 0.23952 0.0
Co66 Co 0.81416 0.55408 0.10588 0.0
C67 C 0.8124 0.54903 0.88515 0.0
C68 C 0.80838 0.61855 0.9552 0.0
C69 C 0.80809 0.62115 0.85563 0.0
N70 N 0.81088 0.57347 0.974 0.0
N71 N 0.81093 0.57761 0.81226 0.0
H72 H 0.81573 0.51167 0.87368 0.0
H73 H 0.80764 0.64778 1.01069 0.0
C74 C 0.73413 0.61494 0.18754 0.0
O75 O 0.73092 0.59481 0.26874 0.0
N76 N 0.81797 0.53522 0.23862 0.0
C77 C 0.82259 0.49074 0.2609 0.0
C78 C 0.82444 0.48975 0.3611 0.0
C79 C 0.81921 0.56105 0.32651 0.0
N80 N 0.8221 0.53379 0.40178 0.0
C81 C 0.78648 0.46124 0.02488 0.0
C82 C 0.70084 0.46221 0.09946 0.0
C83 C 0.7196 0.41949 0.06862 0.0
C84 C 0.76229 0.41909 0.02754 0.0
C85 C 0.72656 0.50293 0.09847 0.0
N86 N 0.76983 0.50245 0.06535 0.0
H87 H 0.82073 0.45984 0.99928 0.0
H88 H 0.71211 0.53361 0.13174 0.0
H89 H 0.82483 0.46074 0.20823 0.0
H90 H 0.8175 0.59867 0.3354 0.0
O91 O 0.87159 0.52154 0.08625 0.0
O92 O 0.86692 0.59595 0.14121 0.0
O93 O 0.76354 0.60134 0.12728 0.0
C94 C 0.89281 0.56094 0.11518 0.0
H95 H 0.80703 0.65249 0.81786 0.0
H96 H 0.82688 0.45916 0.40128 0.0
H97 H 0.66776 0.46381 0.13117 0.0
H98 H 0.77787 0.38648 1.00281 0.0
Co99 Co 0.45094 0.83436 0.08601 0.0
C100 C 0.45517 0.82851 0.86506 0.0
C101 C 0.38597 0.82889 0.90996 0.0
C102 C 0.38297 0.82813 0.80919 0.0
N103 N 0.43111 0.82836 0.94547 0.0
N104 N 0.42639 0.82812 0.78145 0.0
H105 H 0.49246 0.83069 0.86656 0.0
H106 H 0.35705 0.831 0.95488 0.0
C107 C 0.39765 0.74534 0.04353 0.0
O108 O 0.42179 0.73782 0.9668 0.0
N109 N 0.46967 0.84193 0.22588 0.0
C110 C 0.51205 0.85673 0.26663 0.0
C111 C 0.5132 0.85696 0.36727 0.0
C112 C 0.44541 0.83332 0.30214 0.0
N113 N 0.47146 0.84222 0.38901 0.0
C114 C 0.54118 0.80409 0.03412 0.0
C115 C 0.54277 0.72611 0.13733 0.0
C116 C 0.58291 0.73905 0.09686 0.0
C117 C 0.58213 0.77856 0.04478 0.0
C118 C 0.50317 0.75312 0.12712 0.0
N119 N 0.50189 0.79079 0.07332 0.0
H120 H 0.54219 0.8363 1.00031 0.0
H121 H 0.47469 0.7453 0.16881 0.0
H122 H 0.54035 0.86638 0.22574 0.0
H123 H 0.40975 0.82092 0.29456 0.0
O124 O 0.48391 0.89143 0.07201 0.0
O125 O 0.40986 0.88701 0.10083 0.0
O126 O 0.40564 0.78209 0.1035 0.0
C127 C 0.44532 0.91283 0.08676 0.0
H128 H 0.35154 0.82937 0.76017 0.0
H129 H 0.54229 0.86706 0.4206 0.0
H130 H 0.54278 0.69664 0.18085 0.0
H131 H 0.6132 0.79018 1.01504 0.0
C132 C 0.13133 0.58234 0.66201 0.0
C133 C 0.16412 0.55383 0.7098 0.0
C134 C 0.20594 0.54327 0.5609 0.0
C135 C 0.17421 0.57341 0.51446 0.0
N136 N 0.11013 0.62611 0.52214 0.0
N137 N 0.23502 0.51092 0.71225 0.0
C138 C 0.13786 0.59428 0.56562 0.0
C139 C 0.20212 0.53523 0.66106 0.0
N140 N 0.09323 0.59671 0.70828 0.0
N141 N 0.23964 0.52253 0.50863 0.0
H142 H 0.23274 0.50475 0.78556 0.0
H143 H 0.26583 0.49933 0.68508 0.0
H144 H 0.24446 0.52967 0.43694 0.0
H145 H 0.26143 0.49676 0.53378 0.0
H146 H 0.06514 0.61342 0.67463 0.0
H147 H 0.08852 0.58932 0.77977 0.0
H148 H 0.08595 0.6463 0.55821 0.0
H149 H 0.11322 0.63442 0.45062 0.0
C150 C 0.4534 0.23605 0.68412 0.0
C151 C 0.45601 0.19312 0.72619 0.0
C152 C 0.44449 0.15027 0.5626 0.0
C153 C 0.44002 0.19318 0.52084 0.0
N154 N 0.43448 0.27649 0.53809 0.0
N155 N 0.44904 0.10981 0.71099 0.0
C156 C 0.44288 0.23607 0.5807 0.0
C157 C 0.45004 0.15025 0.66675 0.0
N158 N 0.46244 0.2765 0.74336 0.0
N159 N 0.44409 0.10983 0.50177 0.0
H160 H 0.45278 0.10937 0.78739 0.0
H161 H 0.44145 0.07723 0.67342 0.0
H162 H 0.43975 0.1093 0.42516 0.0
H163 H 0.45082 0.07722 0.52598 0.0
H164 H 0.46566 0.30893 0.71712 0.0
H165 H 0.46916 0.27719 0.81968 0.0
H166 H 0.43149 0.3088 0.57767 0.0
H167 H 0.42792 0.27724 0.46204 0.0
C168 C 0.8573 0.5698 0.66923 0.0
C169 C 0.81405 0.5654 0.70893 0.0
C170 C 0.77543 0.54509 0.54365 0.0
C171 C 0.81908 0.54728 0.50466 0.0
N172 N 0.90201 0.55583 0.52738 0.0
N173 N 0.73251 0.54719 0.68917 0.0
C174 C 0.8602 0.55817 0.56676 0.0
C175 C 0.77318 0.55249 0.64738 0.0
N176 N 0.89521 0.58598 0.72987 0.0
N177 N 0.73635 0.53631 0.48051 0.0
H178 H 0.73007 0.55373 0.76481 0.0
H179 H 0.7017 0.53451 0.65066 0.0
H180 H 0.73751 0.52985 0.4045 0.0
H181 H 0.7027 0.53745 0.50176 0.0
H182 H 0.92698 0.59421 0.70521 0.0
H183 H 0.89406 0.59378 0.80554 0.0
H184 H 0.93401 0.55896 0.56896 0.0
H185 H 0.90464 0.54782 0.45218 0.0
C186 C 0.45373 0.79175 0.62685 0.0
C187 C 0.43868 0.83175 0.68288 0.0
C188 C 0.44103 0.87729 0.54094 0.0
C189 C 0.45818 0.83791 0.48649 0.0
N190 N 0.48529 0.75929 0.47646 0.0
N191 N 0.42117 0.91329 0.69928 0.0
C192 C 0.46572 0.79548 0.52921 0.0
C193 C 0.43305 0.87477 0.64133 0.0
N194 N 0.45501 0.75006 0.6666 0.0
N195 N 0.43206 0.91682 0.49542 0.0
H196 H 0.41433 0.91205 0.77244 0.0
H197 H 0.42049 0.94687 0.67757 0.0
H198 H 0.43909 0.91964 0.42287 0.0
H199 H 0.41561 0.94583 0.52672 0.0
H200 H 0.46161 0.71841 0.62756 0.0
H201 H 0.44664 0.74675 0.73821 0.0
H202 H 0.49605 0.72866 0.50547 0.0
H203 H 0.49306 0.76099 0.40388 0.0
C204 C 0.96523 0.55643 0.02529 0.0
C205 C 0.94405 0.56622 0.11486 0.0
C206 C 0.02071 0.58585 0.20293 0.0
C207 C 0.04156 0.57455 0.11407 0.0
N208 N 0.03409 0.56125 0.93754 0.0
N209 N 0.95132 0.58576 0.29092 0.0
C210 C 0.0139 0.56321 0.02435 0.0
C211 C 0.97167 0.58041 0.20416 0.0
N212 N 0.93907 0.53952 0.94124 0.0
N213 N 0.04793 0.60325 0.28515 0.0
H214 H 0.91577 0.58142 0.29498 0.0
H215 H 0.96954 0.59139 0.3601 0.0
H216 H 0.08365 0.60828 0.28504 0.0
H217 H 0.03519 0.6163 0.35079 0.0
H218 H 0.95302 0.52537 0.87769 0.0
H219 H 0.90307 0.53707 0.93589 0.0
H220 H 0.0157 0.55794 0.86826 0.0
H221 H 0.06933 0.56792 0.93481 0.0
C222 C 0.46006 0.98737 1.01192 0.0
C223 C 0.44251 0.96441 0.08855 0.0
C224 C 0.41902 0.03982 0.16626 0.0
C225 C 0.4418 0.06307 0.09684 0.0
N226 N 0.4879 0.05912 0.95803 0.0
N227 N 0.4134 0.96995 0.24922 0.0
C228 C 0.46357 0.03684 0.02114 0.0
C229 C 0.42384 0.99088 0.16829 0.0
N230 N 0.47146 0.96208 0.92806 0.0
N231 N 0.39258 0.06431 0.23037 0.0
H232 H 0.41785 0.93456 0.25583 0.0
H233 H 0.40488 0.98839 0.3142 0.0
H234 H 0.38856 0.10006 0.23174 0.0
H235 H 0.37118 0.04868 0.27543 0.0
H236 H 0.47957 0.97701 0.86531 0.0
H237 H 0.46837 0.92597 0.91703 0.0
H238 H 0.50952 0.0421 0.90968 0.0
H239 H 0.48861 0.09514 0.95801 0.0
C240 C 0.35587 0.33953 0.06372 0.0
C241 C 0.36381 0.31703 0.15184 0.0
C242 C 0.31333 0.37348 0.23572 0.0
C243 C 0.30386 0.39444 0.14707 0.0
N244 N 0.30907 0.3935 0.97224 0.0
N245 N 0.33963 0.30546 0.31259 0.0
C246 C 0.32286 0.3761 0.05956 0.0
C247 C 0.33951 0.33204 0.23517 0.0
N248 N 0.3814 0.32801 0.98581 0.0
N249 N 0.29781 0.39351 0.32124 0.0
H250 H 0.35683 0.27405 0.31415 0.0
H251 H 0.31861 0.3118 0.37024 0.0
H252 H 0.27672 0.42277 0.32433 0.0
H253 H 0.30878 0.38332 0.39047 0.0
H254 H 0.38157 0.34735 0.9254 0.0
H255 H 0.40484 0.30082 0.98325 0.0
H256 H 0.31711 0.37808 0.90403 0.0
H257 H 0.28668 0.42161 0.9671 0.0
C258 C 0.67139 0.34675 1.01472 0.0
C259 C 0.69596 0.37625 0.09082 0.0
C260 C 0.65601 0.33992 0.21544 0.0
C261 C 0.63046 0.31136 0.13917 0.0
N262 N 0.62427 0.27675 0.9712 0.0
N263 N 0.72303 0.39068 0.26275 0.0
C264 C 0.64195 0.31106 0.04034 0.0
C265 C 0.69216 0.36913 0.19109 0.0
N266 N 0.67381 0.35459 0.91844 0.0
N267 N 0.64393 0.34145 0.30991 0.0
H268 H 0.75017 0.41182 0.24655 0.0
H269 H 0.72461 0.38396 0.33638 0.0
H270 H 0.61793 0.32028 0.33076 0.0
H271 H 0.6576 0.36577 0.36632 0.0
H272 H 0.65236 0.33779 0.86048 0.0
H273 H 0.69528 0.38015 0.89683 0.0
H274 H 0.63425 0.27229 0.8997 0.0
H275 H 0.60307 0.2499 0.98862 0.0
C276 C 0.63885 0.6784 0.04023 0.0
C277 C 0.62604 0.7121 0.11455 0.0
C278 C 0.69064 0.68853 0.22754 0.0
C279 C 0.69907 0.65016 0.15866 0.0
N280 N 0.67811 0.60661 0.99946 0.0
N281 N 0.63813 0.74943 0.28018 0.0
C282 C 0.67291 0.64491 0.06435 0.0
C283 C 0.65162 0.71732 0.20853 0.0
N284 N 0.6183 0.67823 0.94617 0.0
N285 N 0.7212 0.69869 0.30912 0.0
H286 H 0.61182 0.77332 0.26713 0.0
H287 H 0.65129 0.75084 0.35375 0.0
H288 H 0.75108 0.67944 0.32372 0.0
H289 H 0.71964 0.72875 0.35717 0.0
H290 H 0.63039 0.65878 0.88581 0.0
H291 H 0.59145 0.70047 0.92644 0.0
H292 H 0.65513 0.59764 0.93745 0.0
H293 H 0.70319 0.58153 1.00914 0.0
C294 C 0.37598 0.66221 0.06139 0.0
C295 C 0.36245 0.7095 0.05954 0.0
C296 C 0.28042 0.68468 0.04071 0.0
C297 C 0.29388 0.63759 0.04738 0.0
N298 N 0.35489 0.58373 0.0888 0.0
N299 N 0.30153 0.76641 0.07127 0.0
C300 C 0.34177 0.62695 0.06455 0.0
C301 C 0.31464 0.72096 0.0577 0.0
N302 N 0.42172 0.6506 0.05944 0.0
N303 N 0.23536 0.69479 1.01176 0.0
H304 H 0.32492 0.79429 0.082 0.0
H305 H 0.26757 0.7763 0.08171 0.0
H306 H 0.20923 0.66962 0.99512 0.0
H307 H 0.22468 0.72766 0.99423 0.0
H308 H 0.43287 0.61654 0.04519 0.0
H309 H 0.44863 0.67509 0.06712 0.0
H310 H 0.38868 0.57584 0.11449 0.0
H311 H 0.3316 0.5566 0.09254 0.0
loop_
_geom_bond_atom_site_label_1
_geom_bond_atom_site_label_2
_geom_bond_distance
_geom_bond_site_symmetry_2
_ccdc_geom_bond_type
Co0 N4 2.148 . S
Co0 N10 2.128 1_554 S
Co0 N20 2.194 . S
Co0 O25 2.351 . S
Co0 O26 2.155 . S
Co0 O27 2.096 . S
C1 N4 1.301 . S
C1 N5 1.328 . S
C1 H6 0.930 . S
C2 C3 1.333 . S
C2 N4 1.317 . S
C2 H7 0.930 . S
C3 C2 1.333 . S
C3 N5 1.350 . S
C3 H29 0.931 . S
N4 Co0 2.148 . S
N4 C1 1.301 . S
N4 C2 1.317 . S
N5 C1 1.328 . S
N5 C3 1.350 . S
H6 C1 0.930 . S
H7 C2 0.930 . S
C8 O9 1.224 . S
C8 O27 1.247 . S
O9 C8 1.224 . S
N10 Co0 2.128 1_556 S
N10 C11 1.355 . S
N10 C13 1.311 . S
C11 N10 1.355 . S
C11 C12 1.363 . S
C11 H23 0.929 . S
C12 C11 1.363 . S
C12 N14 1.375 . S
C12 H30 0.931 . S
C13 N10 1.311 . S
C13 N14 1.347 . S
C13 H24 0.929 . S
N14 C12 1.375 . S
N14 C13 1.347 . S
C15 C18 1.365 . S
C15 N20 1.328 . S
C15 H21 0.929 . S
C16 C17 1.362 . S
C16 C19 1.378 . S
C16 H31 0.929 . S
C17 C16 1.362 . S
C17 C18 1.366 . S
C18 C15 1.365 . S
C18 C17 1.366 . S
C18 H32 0.930 . S
C19 C16 1.378 . S
C19 N20 1.315 . S
C19 H22 0.930 . S
N20 Co0 2.194 . S
N20 C15 1.328 . S
N20 C19 1.315 . S
H21 C15 0.929 . S
H22 C19 0.930 . S
H23 C11 0.929 . S
H24 C13 0.929 . S
O25 Co0 2.351 . S
O25 C28 1.244 . S
O26 Co0 2.155 . S
O26 C28 1.240 . S
O27 Co0 2.096 . S
O27 C8 1.247 . S
C28 O25 1.244 . S
C28 O26 1.240 . S
H29 C3 0.931 . S
H30 C12 0.931 . S
H31 C16 0.929 . S
H32 C18 0.930 . S
Co33 N37 2.148 . S
Co33 N43 2.128 1_554 S
Co33 N53 2.194 . S
Co33 O58 2.351 . S
Co33 O59 2.155 . S
Co33 O60 2.096 . S
C34 N37 1.301 . S
C34 N38 1.328 . S
C34 H39 0.930 . S
C35 C36 1.333 . S
C35 N37 1.317 . S
C35 H40 0.930 . S
C36 C35 1.333 . S
C36 N38 1.350 . S
C36 H62 0.931 . S
N37 Co33 2.148 . S
N37 C34 1.301 . S
N37 C35 1.317 . S
N38 C34 1.328 . S
N38 C36 1.350 . S
H39 C34 0.930 . S
H40 C35 0.930 . S
C41 O42 1.224 . S
C41 O60 1.247 . S
O42 C41 1.224 . S
N43 Co33 2.128 1_556 S
N43 C44 1.355 . S
N43 C46 1.311 . S
C44 N43 1.355 . S
C44 C45 1.363 . S
C44 H56 0.929 . S
C45 C44 1.363 . S
C45 N47 1.375 . S
C45 H63 0.931 . S
C46 N43 1.311 . S
C46 N47 1.347 . S
C46 H57 0.929 . S
N47 C45 1.375 . S
N47 C46 1.347 . S
C48 C51 1.365 . S
C48 N53 1.328 . S
C48 H54 0.929 . S
C49 C50 1.362 . S
C49 C52 1.378 . S
C49 H64 0.929 . S
C50 C49 1.362 . S
C50 C51 1.366 . S
C51 C48 1.365 . S
C51 C50 1.366 . S
C51 H65 0.930 . S
C52 C49 1.378 . S
C52 N53 1.315 . S
C52 H55 0.930 . S
N53 Co33 2.194 . S
N53 C48 1.328 . S
N53 C52 1.315 . S
H54 C48 0.929 . S
H55 C52 0.930 . S
H56 C44 0.929 . S
H57 C46 0.929 . S
O58 Co33 2.351 . S
O58 C61 1.244 . S
O59 Co33 2.155 . S
O59 C61 1.240 . S
O60 Co33 2.096 . S
O60 C41 1.247 . S
C61 O58 1.244 . S
C61 O59 1.240 . S
H62 C36 0.931 . S
H63 C45 0.931 . S
H64 C49 0.929 . S
H65 C51 0.930 . S
Co66 N70 2.148 1_554 S
Co66 N76 2.128 . S
Co66 N86 2.194 . S
Co66 O91 2.351 . S
Co66 O92 2.155 . S
Co66 O93 2.096 . S
C67 N70 1.301 . S
C67 N71 1.328 . S
C67 H72 0.930 . S
C68 C69 1.333 . S
C68 N70 1.317 . S
C68 H73 0.930 . S
C69 C68 1.333 . S
C69 N71 1.350 . S
C69 H95 0.931 . S
N70 Co66 2.148 1_556 S
N70 C67 1.301 . S
N70 C68 1.317 . S
N71 C67 1.328 . S
N71 C69 1.350 . S
H72 C67 0.930 . S
H73 C68 0.930 . S
C74 O75 1.224 . S
C74 O93 1.247 . S
O75 C74 1.224 . S
N76 Co66 2.128 . S
N76 C77 1.355 . S
N76 C79 1.311 . S
C77 N76 1.355 . S
C77 C78 1.363 . S
C77 H89 0.929 . S
C78 C77 1.363 . S
C78 N80 1.375 . S
C78 H96 0.931 . S
C79 N76 1.311 . S
C79 N80 1.347 . S
C79 H90 0.929 . S
N80 C78 1.375 . S
N80 C79 1.347 . S
C81 C84 1.365 . S
C81 N86 1.328 . S
C81 H87 0.929 . S
C82 C83 1.362 . S
C82 C85 1.378 . S
C82 H97 0.929 . S
C83 C82 1.362 . S
C83 C84 1.366 . S
C84 C81 1.365 . S
C84 C83 1.366 . S
C84 H98 0.930 . S
C85 C82 1.378 . S
C85 N86 1.315 . S
C85 H88 0.930 . S
N86 Co66 2.194 . S
N86 C81 1.328 . S
N86 C85 1.315 . S
H87 C81 0.929 . S
H88 C85 0.930 . S
H89 C77 0.929 . S
H90 C79 0.929 . S
O91 Co66 2.351 . S
O91 C94 1.244 . S
O92 Co66 2.155 . S
O92 C94 1.240 . S
O93 Co66 2.096 . S
O93 C74 1.247 . S
C94 O91 1.244 . S
C94 O92 1.240 . S
H95 C69 0.931 . S
H96 C78 0.931 . S
H97 C82 0.929 . S
H98 C84 0.930 . S
Co99 N103 2.148 1_554 S
Co99 N109 2.128 . S
Co99 N119 2.194 . S
Co99 O124 2.351 . S
Co99 O125 2.155 . S
Co99 O126 2.096 . S
C100 N103 1.301 . S
C100 N104 1.328 . S
C100 H105 0.930 . S
C101 C102 1.333 . S
C101 N103 1.317 . S
C101 H106 0.930 . S
C102 C101 1.333 . S
C102 N104 1.350 . S
C102 H128 0.931 . S
N103 Co99 2.148 1_556 S
N103 C100 1.301 . S
N103 C101 1.317 . S
N104 C100 1.328 . S
N104 C102 1.350 . S
H105 C100 0.930 . S
H106 C101 0.930 . S
C107 O108 1.224 . S
C107 O126 1.247 . S
O108 C107 1.224 . S
N109 Co99 2.128 . S
N109 C110 1.355 . S
N109 C112 1.311 . S
C110 N109 1.355 . S
C110 C111 1.363 . S
C110 H122 0.929 . S
C111 C110 1.363 . S
C111 N113 1.375 . S
C111 H129 0.931 . S
C112 N109 1.311 . S
C112 N113 1.347 . S
C112 H123 0.929 . S
N113 C111 1.375 . S
N113 C112 1.347 . S
C114 C117 1.365 . S
C114 N119 1.328 . S
C114 H120 0.929 . S
C115 C116 1.362 . S
C115 C118 1.378 . S
C115 H130 0.929 . S
C116 C115 1.362 . S
C116 C117 1.366 . S
C117 C114 1.365 . S
C117 C116 1.366 . S
C117 H131 0.930 . S
C118 C115 1.378 . S
C118 N119 1.315 . S
C118 H121 0.930 . S
N119 Co99 2.194 . S
N119 C114 1.328 . S
N119 C118 1.315 . S
H120 C114 0.929 . S
H121 C118 0.930 . S
H122 C110 0.929 . S
H123 C112 0.929 . S
O124 Co99 2.351 . S
O124 C127 1.244 . S
O125 Co99 2.155 . S
O125 C127 1.240 . S
O126 Co99 2.096 . S
O126 C107 1.247 . S
C127 O124 1.244 . S
C127 O125 1.240 . S
H128 C102 0.931 . S
H129 C111 0.931 . S
H130 C115 0.929 . S
H131 C117 0.930 . S
C132 C133 1.363 . S
C132 C138 1.379 . S
C132 N140 1.356 . S
C133 C132 1.363 . S
C133 C139 1.363 . S
C134 C135 1.363 . S
C134 C139 1.379 . S
C134 N141 1.356 . S
C135 C134 1.363 . S
C135 C138 1.363 . S
N136 C138 1.356 . S
N136 H148 0.984 . S
N136 H149 0.985 . S
N137 C139 1.356 . S
N137 H142 0.984 . S
N137 H143 0.985 . S
C138 C132 1.379 . S
C138 C135 1.363 . S
C138 N136 1.356 . S
C139 C133 1.363 . S
C139 C134 1.379 . S
C139 N137 1.356 . S
N140 C132 1.356 . S
N140 H146 0.984 . S
N140 H147 0.984 . S
N141 C134 1.356 . S
N141 H144 0.984 . S
N141 H145 0.985 . S
H142 N137 0.984 . S
H143 N137 0.985 . S
H144 N141 0.984 . S
H145 N141 0.985 . S
H146 N140 0.984 . S
H147 N140 0.984 . S
H148 N136 0.984 . S
H149 N136 0.985 . S
C150 C151 1.363 . S
C150 C156 1.379 . S
C150 N158 1.356 . S
C151 C150 1.363 . S
C151 C157 1.363 . S
C152 C153 1.363 . S
C152 C157 1.379 . S
C152 N159 1.356 . S
C153 C152 1.363 . S
C153 C156 1.363 . S
N154 C156 1.356 . S
N154 H166 0.984 . S
N154 H167 0.985 . S
N155 C157 1.356 . S
N155 H160 0.984 . S
N155 H161 0.985 . S
C156 C150 1.379 . S
C156 C153 1.363 . S
C156 N154 1.356 . S
C157 C151 1.363 . S
C157 C152 1.379 . S
C157 N155 1.356 . S
N158 C150 1.356 . S
N158 H164 0.984 . S
N158 H165 0.984 . S
N159 C152 1.356 . S
N159 H162 0.984 . S
N159 H163 0.985 . S
H160 N155 0.984 . S
H161 N155 0.985 . S
H162 N159 0.984 . S
H163 N159 0.985 . S
H164 N158 0.984 . S
H165 N158 0.984 . S
H166 N154 0.984 . S
H167 N154 0.985 . S
C168 C169 1.363 . S
C168 C174 1.379 . S
C168 N176 1.356 . S
C169 C168 1.363 . S
C169 C175 1.363 . S
C170 C171 1.363 . S
C170 C175 1.379 . S
C170 N177 1.356 . S
C171 C170 1.363 . S
C171 C174 1.363 . S
N172 C174 1.356 . S
N172 H184 0.984 . S
N172 H185 0.985 . S
N173 C175 1.356 . S
N173 H178 0.984 . S
N173 H179 0.985 . S
C174 C168 1.379 . S
C174 C171 1.363 . S
C174 N172 1.356 . S
C175 C169 1.363 . S
C175 C170 1.379 . S
C175 N173 1.356 . S
N176 C168 1.356 . S
N176 H182 0.984 . S
N176 H183 0.984 . S
N177 C170 1.356 . S
N177 H180 0.984 . S
N177 H181 0.985 . S
H178 N173 0.984 . S
H179 N173 0.985 . S
H180 N177 0.984 . S
H181 N177 0.985 . S
H182 N176 0.984 . S
H183 N176 0.984 . S
H184 N172 0.984 . S
H185 N172 0.985 . S
C186 C187 1.363 . S
C186 C192 1.379 . S
C186 N194 1.356 . S
C187 C186 1.363 . S
C187 C193 1.363 . S
C188 C189 1.363 . S
C188 C193 1.379 . S
C188 N195 1.356 . S
C189 C188 1.363 . S
C189 C192 1.363 . S
N190 C192 1.356 . S
N190 H202 0.984 . S
N190 H203 0.985 . S
N191 C193 1.356 . S
N191 H196 0.984 . S
N191 H197 0.985 . S
C192 C186 1.379 . S
C192 C189 1.363 . S
C192 N190 1.356 . S
C193 C187 1.363 . S
C193 C188 1.379 . S
C193 N191 1.356 . S
N194 C186 1.356 . S
N194 H200 0.984 . S
N194 H201 0.984 . S
N195 C188 1.356 . S
N195 H198 0.984 . S
N195 H199 0.985 . S
H196 N191 0.984 . S
H197 N191 0.985 . S
H198 N195 0.984 . S
H199 N195 0.985 . S
H200 N194 0.984 . S
H201 N194 0.984 . S
H202 N190 0.984 . S
H203 N190 0.985 . S
C204 C205 1.363 . S
C204 C210 1.379 1_655 S
C204 N212 1.356 . S
C205 C204 1.363 . S
C205 C211 1.363 . S
C206 C207 1.363 . S
C206 C211 1.379 1_455 S
C206 N213 1.356 . S
C207 C206 1.363 . S
C207 C210 1.363 . S
N208 C210 1.356 1_556 S
N208 H220 0.984 . S
N208 H221 0.985 . S
N209 C211 1.356 . S
N209 H214 0.984 . S
N209 H215 0.985 . S
C210 C204 1.379 1_455 S
C210 C207 1.363 . S
C210 N208 1.356 1_554 S
C211 C205 1.363 . S
C211 C206 1.379 1_655 S
C211 N209 1.356 . S
N212 C204 1.356 . S
N212 H218 0.984 1_554 S
N212 H219 0.984 . S
N213 C206 1.356 . S
N213 H216 0.984 . S
N213 H217 0.985 . S
H214 N209 0.984 . S
H215 N209 0.985 . S
H216 N213 0.984 . S
H217 N213 0.985 . S
H218 N212 0.984 1_556 S
H219 N212 0.984 . S
H220 N208 0.984 . S
H221 N208 0.985 . S
C222 C223 1.363 . S
C222 C228 1.379 1_565 S
C222 N230 1.356 1_554 S
C223 C222 1.363 . S
C223 C229 1.349 1_565 S
C224 C225 1.363 . S
C224 C229 1.400 . S
C224 N231 1.356 . S
C225 C224 1.363 . S
C225 C228 1.363 . S
N226 C228 1.356 1_556 S
N226 H238 0.984 . S
N226 H239 0.985 . S
N227 C229 1.342 1_565 S
N227 H232 0.984 . S
N227 H233 0.985 . S
C228 C222 1.379 1_545 S
C228 C225 1.363 . S
C228 N226 1.356 1_554 S
C229 C223 1.349 1_545 S
C229 C224 1.400 . S
C229 N227 1.342 1_545 S
N230 C222 1.356 1_556 S
N230 H236 0.984 . S
N230 H237 0.984 1_556 S
N231 C224 1.356 . S
N231 H234 0.984 . S
N231 H235 0.985 . S
H232 N227 0.984 . S
H233 N227 0.985 . S
H234 N231 0.984 . S
H235 N231 0.985 . S
H236 N230 0.984 . S
H237 N230 0.984 1_554 S
H238 N226 0.984 . S
H239 N226 0.985 . S
C240 C241 1.363 1_556 S
C240 C246 1.379 . S
C240 N248 1.356 . S
C241 C240 1.363 1_554 S
C241 C247 1.363 . S
C242 C243 1.363 . S
C242 C247 1.379 . S
C242 N249 1.356 . S
C243 C242 1.363 . S
C243 C246 1.363 1_554 S
N244 C246 1.356 . S
N244 H256 0.984 . S
N244 H257 0.985 . S
N245 C247 1.356 . S
N245 H250 0.984 . S
N245 H251 0.985 . S
C246 C240 1.379 . S
C246 C243 1.363 1_556 S
C246 N244 1.356 . S
C247 C241 1.363 . S
C247 C242 1.379 . S
C247 N245 1.356 . S
N248 C240 1.356 . S
N248 H254 0.984 . S
N248 H255 0.984 . S
N249 C242 1.356 . S
N249 H252 0.984 . S
N249 H253 0.985 . S
H250 N245 0.984 . S
H251 N245 0.985 . S
H252 N249 0.984 . S
H253 N249 0.985 . S
H254 N248 0.984 . S
H255 N248 0.984 . S
H256 N244 0.984 . S
H257 N244 0.985 . S
C258 C259 1.363 . S
C258 C264 1.379 . S
C258 N266 1.356 1_554 S
C259 C258 1.363 . S
C259 C265 1.363 . S
C260 C261 1.363 . S
C260 C265 1.379 . S
C260 N267 1.356 . S
C261 C260 1.363 . S
C261 C264 1.363 . S
N262 C264 1.356 1_556 S
N262 H274 0.984 . S
N262 H275 0.985 . S
N263 C265 1.356 . S
N263 H268 0.984 . S
N263 H269 0.985 . S
C264 C258 1.379 . S
C264 C261 1.363 . S
C264 N262 1.356 1_554 S
C265 C259 1.363 . S
C265 C260 1.379 . S
C265 N263 1.356 . S
N266 C258 1.356 1_556 S
N266 H272 0.984 . S
N266 H273 0.984 . S
N267 C260 1.356 . S
N267 H270 0.984 . S
N267 H271 0.985 . S
H268 N263 0.984 . S
H269 N263 0.985 . S
H270 N267 0.984 . S
H271 N267 0.985 . S
H272 N266 0.984 . S
H273 N266 0.984 . S
H274 N262 0.984 . S
H275 N262 0.985 . S
C276 C277 1.363 . S
C276 C282 1.379 . S
C276 N284 1.356 . S
C277 C276 1.363 . S
C277 C283 1.363 . S
C278 C279 1.363 . S
C278 C283 1.379 . S
C278 N285 1.356 . S
C279 C278 1.363 . S
C279 C282 1.363 . S
N280 C282 1.356 . S
N280 H292 0.984 1_554 S
N280 H293 0.985 . S
N281 C283 1.356 . S
N281 H286 0.984 . S
N281 H287 0.985 . S
C282 C276 1.379 . S
C282 C279 1.363 . S
C282 N280 1.356 . S
C283 C277 1.363 . S
C283 C278 1.379 . S
C283 N281 1.356 . S
N284 C276 1.356 . S
N284 H290 0.984 1_554 S
N284 H291 0.984 . S
N285 C278 1.356 . S
N285 H288 0.984 . S
N285 H289 0.985 . S
H286 N281 0.984 . S
H287 N281 0.985 . S
H288 N285 0.984 . S
H289 N285 0.985 . S
H290 N284 0.984 1_556 S
H291 N284 0.984 . S
H292 N280 0.984 1_556 S
H293 N280 0.985 . S
C294 C295 1.363 . S
C294 C300 1.379 . S
C294 N302 1.356 . S
C295 C294 1.363 . S
C295 C301 1.363 . S
C296 C297 1.363 . S
C296 C301 1.379 . S
C296 N303 1.356 1_554 S
C297 C296 1.363 . S
C297 C300 1.363 . S
N298 C300 1.356 . S
N298 H310 0.984 . S
N298 H311 0.985 . S
N299 C301 1.356 1_556 S
N299 H304 0.984 1_556 S
N299 H305 0.985 . S
C300 C294 1.379 . S
C300 C297 1.363 . S
C300 N298 1.356 . S
C301 C295 1.363 . S
C301 C296 1.379 . S
C301 N299 1.356 1_554 S
N302 C294 1.356 . S
N302 H308 0.984 . S
N302 H309 0.984 . S
N303 C296 1.356 1_556 S
N303 H306 0.984 . S
N303 H307 0.985 . S
H304 N299 0.984 1_554 S
H305 N299 0.985 . S
H306 N303 0.984 . S
H307 N303 0.985 . S
H308 N302 0.984 . S
H309 N302 0.984 . S
H310 N298 0.984 . S
H311 N298 0.985 . S
C133 N14 1.456 . S
C135 N5 1.463 . S
C151 N47 1.464 . S
C153 N38 1.475 . S
C169 N71 1.475 . S
C171 N80 1.464 . S
C187 N104 1.463 . S
C189 N113 1.456 . S
C205 C94 1.104 . S
C207 C28 1.104 . S
C223 C127 1.104 . S
C225 C61 1.104 . S
C241 C41 1.524 . S
C243 C17 1.561 . S
C259 C83 1.299 . S
C261 C50 1.299 . S
C277 C116 1.561 . S
C279 C74 1.524 . S
C295 C107 1.851 . S
C297 C8 1.851 . S
