# Generated by pormake.
# Topology wkj, (6)-cn, num edge types: 1
# Building blocks:
#     Node 0, Type 0, BuildingBlock: MIFKUJ_clean_sbu_0, # of connection points: 6
#     Node 1, Type 0, BuildingBlock: MIFKUJ_clean_sbu_0, # of connection points: 6
#     Node 2, Type 0, BuildingBlock: MIFKUJ_clean_sbu_0, # of connection points: 6
#     Node 3, Type 0, BuildingBlock: MIFKUJ_clean_sbu_0, # of connection points: 6
#     Node 4, Type 0, BuildingBlock: MIFKUJ_clean_sbu_0, # of connection points: 6
#     Node 5, Type 0, BuildingBlock: MIFKUJ_clean_sbu_0, # of connection points: 6
#     Node 6, Type 0, BuildingBlock: MIFKUJ_clean_sbu_0, # of connection points: 6
#     Node 7, Type 0, BuildingBlock: MIFKUJ_clean_sbu_0, # of connection points: 6
#     Node 8, Type 0, BuildingBlock: MIFKUJ_clean_sbu_0, # of connection points: 6
#     Node 9, Type 0, BuildingBlock: MIFKUJ_clean_sbu_0, # of connection points: 6
#     Node 10, Type 0, BuildingBlock: MIFKUJ_clean_sbu_0, # of connection points: 6
#     Node 11, Type 0, BuildingBlock: MIFKUJ_clean_sbu_0, # of connection points: 6
#     Edge 12, Type (0, 0), BuildingBlock: CIFDUS_clean_linker_0, # of connection points: 2
#     Edge 13, Type (0, 0), BuildingBlock: CIFDUS_clean_linker_0, # of connection points: 2
#     Edge 14, Type (0, 0), BuildingBlock: CIFDUS_clean_linker_0, # of connection points: 2
#     Edge 15, Type (0, 0), BuildingBlock: CIFDUS_clean_linker_0, # of connection points: 2
#     Edge 16, Type (0, 0), BuildingBlock: CIFDUS_clean_linker_0, # of connection points: 2
#     Edge 17, Type (0, 0), BuildingBlock: CIFDUS_clean_linker_0, # of connection points: 2
#     Edge 18, Type (0, 0), BuildingBlock: CIFDUS_clean_linker_0, # of connection points: 2
#     Edge 19, Type (0, 0), BuildingBlock: CIFDUS_clean_linker_0, # of connection points: 2
#     Edge 20, Type (0, 0), BuildingBlock: CIFDUS_clean_linker_0, # of connection points: 2
#     Edge 21, Type (0, 0), BuildingBlock: CIFDUS_clean_linker_0, # of connection points: 2
#     Edge 22, Type (0, 0), BuildingBlock: CIFDUS_clean_linker_0, # of connection points: 2
#     Edge 23, Type (0, 0), BuildingBlock: CIFDUS_clean_linker_0, # of connection points: 2
#     Edge 24, Type (0, 0), BuildingBlock: CIFDUS_clean_linker_0, # of connection points: 2
#     Edge 25, Type (0, 0), BuildingBlock: CIFDUS_clean_linker_0, # of connection points: 2
#     Edge 26, Type (0, 0), BuildingBlock: CIFDUS_clean_linker_0, # of connection points: 2
#     Edge 27, Type (0, 0), BuildingBlock: CIFDUS_clean_linker_0, # of connection points: 2
#     Edge 28, Type (0, 0), BuildingBlock: CIFDUS_clean_linker_0, # of connection points: 2
#     Edge 29, Type (0, 0), BuildingBlock: CIFDUS_clean_linker_0, # of connection points: 2
#     Edge 30, Type (0, 0), BuildingBlock: CIFDUS_clean_linker_0, # of connection points: 2
#     Edge 31, Type (0, 0), BuildingBlock: CIFDUS_clean_linker_0, # of connection points: 2
#     Edge 32, Type (0, 0), BuildingBlock: CIFDUS_clean_linker_0, # of connection points: 2
#     Edge 33, Type (0, 0), BuildingBlock: CIFDUS_clean_linker_0, # of connection points: 2
#     Edge 34, Type (0, 0), BuildingBlock: CIFDUS_clean_linker_0, # of connection points: 2
#     Edge 35, Type (0, 0), BuildingBlock: CIFDUS_clean_linker_0, # of connection points: 2
#     Edge 36, Type (0, 0), BuildingBlock: CIFDUS_clean_linker_0, # of connection points: 2
#     Edge 37, Type (0, 0), BuildingBlock: CIFDUS_clean_linker_0, # of connection points: 2
#     Edge 38, Type (0, 0), BuildingBlock: CIFDUS_clean_linker_0, # of connection points: 2
#     Edge 39, Type (0, 0), BuildingBlock: CIFDUS_clean_linker_0, # of connection points: 2
#     Edge 40, Type (0, 0), BuildingBlock: CIFDUS_clean_linker_0, # of connection points: 2
#     Edge 41, Type (0, 0), BuildingBlock: CIFDUS_clean_linker_0, # of connection points: 2
#     Edge 42, Type (0, 0), BuildingBlock: CIFDUS_clean_linker_0, # of connection points: 2
#     Edge 43, Type (0, 0), BuildingBlock: CIFDUS_clean_linker_0, # of connection points: 2
#     Edge 44, Type (0, 0), BuildingBlock: CIFDUS_clean_linker_0, # of connection points: 2
#     Edge 45, Type (0, 0), BuildingBlock: CIFDUS_clean_linker_0, # of connection points: 2
#     Edge 46, Type (0, 0), BuildingBlock: CIFDUS_clean_linker_0, # of connection points: 2
#     Edge 47, Type (0, 0), BuildingBlock: CIFDUS_clean_linker_0, # of connection points: 2
# Relax obj value: 0.305
# Max RMSD: 0.212
# Mean RMSD: 0.212
data_MOF--net-wkj--node1-MIFKUJ_clean_sbu_0--edge1-CIFDUS_clean_linker_0
_symmetry_space_group_name_H-M    P1
_symmetry_Int_Tables_number       1
_symmetry_cell_setting            triclinic
loop_
_symmetry_equiv_pos_as_xyz
'x, y, z'
_cell_length_a     40.640273
_cell_length_b     40.39229
_cell_length_c     27.394415
_cell_angle_alpha  89.891935
_cell_angle_beta   90.046288
_cell_angle_gamma 120.01049
loop_
_atom_site_label
_atom_site_type_symbol
_atom_site_fract_x
_atom_site_fract_y
_atom_site_fract_z
_atom_type_partial_charge
Zn0 Zn 0.44349 0.08649 0.19109 0.0
Zn1 Zn 0.42358 0.09935 0.33961 0.0
C2 C 0.40136 0.03786 0.11749 0.0
O3 O 0.43391 0.03846 0.11489 0.0
C4 C 0.46741 0.12207 0.42667 0.0
O5 O 0.43854 0.12515 0.44242 0.0
O6 O 0.48906 0.11412 0.14607 0.0
O7 O 0.43969 0.121 0.24074 0.0
O8 O 0.43111 0.14736 0.30518 0.0
C9 C 0.48619 0.12576 0.1039 0.0
O10 O 0.4542 0.1242 0.09151 0.0
O11 O 0.39656 0.05726 0.15021 0.0
C12 C 0.34473 0.04724 0.36904 0.0
O13 O 0.33975 0.0327 0.32497 0.0
O14 O 0.37671 0.07559 0.3805 0.0
O15 O 0.42113 0.06352 0.28734 0.0
O16 O 0.45006 0.04876 0.2324 0.0
O17 O 0.4677 0.11222 0.38278 0.0
C18 C 0.43885 0.14894 0.25992 0.0
C19 C 0.44087 0.04822 0.27689 0.0
Zn20 Zn 0.33886 0.45726 0.52184 0.0
Zn21 Zn 0.32204 0.44263 0.67387 0.0
C22 C 0.29503 0.38694 0.46978 0.0
O23 O 0.30916 0.37339 0.50211 0.0
C24 C 0.36233 0.50603 0.73625 0.0
O25 O 0.32733 0.49867 0.74334 0.0
O26 O 0.37488 0.50028 0.47581 0.0
O27 O 0.32446 0.47597 0.58434 0.0
O28 O 0.28744 0.46101 0.64819 0.0
C29 C 0.36207 0.50622 0.43629 0.0
O30 O 0.32567 0.48607 0.42695 0.0
O31 O 0.29669 0.41865 0.47862 0.0
C32 C 0.29454 0.36764 0.71408 0.0
O33 O 0.30435 0.36123 0.67101 0.0
O34 O 0.29672 0.39962 0.72232 0.0
O35 O 0.33367 0.42408 0.61209 0.0
O36 O 0.36883 0.43312 0.54892 0.0
O37 O 0.36813 0.48573 0.70595 0.0
C38 C 0.29274 0.46864 0.60268 0.0
C39 C 0.36258 0.42494 0.59402 0.0
Zn40 Zn 0.88087 0.36394 0.85915 0.0
Zn41 Zn 0.8797 0.32565 0.00189 0.0
C42 C 0.92569 0.37625 0.77934 0.0
O43 O 0.92173 0.40655 0.78193 0.0
C44 C 0.83953 0.35593 0.06206 0.0
O45 O 0.80863 0.33594 0.03599 0.0
O46 O 0.84797 0.37953 0.81997 0.0
O47 O 0.85487 0.32564 0.91089 0.0
O48 O 0.83135 0.28359 0.96844 0.0
C49 C 0.83377 0.36423 0.77889 0.0
O50 O 0.83567 0.33408 0.76514 0.0
O51 O 0.91097 0.35086 0.81232 0.0
C52 C 0.93828 0.30837 0.03126 0.0
O53 O 0.95561 0.32634 0.991 0.0
O54 O 0.90506 0.30241 0.03984 0.0
O55 O 0.91618 0.36341 0.95108 0.0
O56 O 0.9161 0.40681 0.90249 0.0
O57 O 0.86951 0.35505 0.05186 0.0
C58 C 0.83034 0.29274 0.92436 0.0
C59 C 0.9225 0.3973 0.94438 0.0
Zn60 Zn 0.51537 0.8972 0.20285 0.0
Zn61 Zn 0.54227 0.88709 0.34725 0.0
C62 C 0.58145 0.93407 0.14063 0.0
O63 O 0.58948 0.96396 0.16775 0.0
C64 C 0.46826 0.84909 0.39575 0.0
O65 O 0.46129 0.81854 0.37075 0.0
O66 O 0.46775 0.88159 0.1631 0.0
O67 O 0.506 0.86223 0.26073 0.0
O68 O 0.52931 0.83811 0.31174 0.0
C69 C 0.45748 0.85493 0.13178 0.0
O70 O 0.47537 0.83539 0.1305 0.0
O71 O 0.55396 0.90165 0.15312 0.0
C72 C 0.61852 0.93564 0.38573 0.0
O73 O 0.6227 0.9577 0.34818 0.0
O74 O 0.58777 0.90399 0.39031 0.0
O75 O 0.55219 0.9249 0.29269 0.0
O76 O 0.53212 0.94825 0.2364 0.0
O77 O 0.49962 0.87994 0.38999 0.0
C78 C 0.51607 0.83788 0.26962 0.0
C79 C 0.54119 0.94819 0.28093 0.0
Zn80 Zn 0.61121 0.51723 0.52043 0.0
Zn81 Zn 0.64015 0.54188 0.67382 0.0
C82 C 0.61865 0.58106 0.4607 0.0
O83 O 0.59482 0.58213 0.49216 0.0
C84 C 0.61222 0.46904 0.73011 0.0
O85 O 0.61537 0.45208 0.69098 0.0
O86 O 0.59018 0.46526 0.48701 0.0
O87 O 0.64956 0.52931 0.57429 0.0
O88 O 0.68509 0.54396 0.63929 0.0
C89 C 0.59899 0.46224 0.44322 0.0
O90 O 0.62658 0.49251 0.42174 0.0
O91 O 0.63038 0.55754 0.46748 0.0
C92 C 0.62686 0.58932 0.73227 0.0
O93 O 0.59412 0.55719 0.73301 0.0
O94 O 0.65339 0.59158 0.7054 0.0
O95 O 0.59995 0.52948 0.62383 0.0
O96 O 0.5668 0.51528 0.55635 0.0
O97 O 0.62105 0.50389 0.72815 0.0
C98 C 0.68106 0.53759 0.59357 0.0
C99 C 0.56918 0.52062 0.60235 0.0
Zn100 Zn 0.10335 0.62376 0.83895 0.0
Zn101 Zn 0.09349 0.64923 0.98444 0.0
C102 C 0.03465 0.58769 0.78784 0.0
O103 O 0.03707 0.55886 0.80591 0.0
C104 C 0.12224 0.62971 0.06951 0.0
O105 O 0.11648 0.6553 0.09137 0.0
O106 O 0.13857 0.61748 0.79263 0.0
O107 O 0.12878 0.66937 0.88446 0.0
O108 O 0.13561 0.69743 0.95614 0.0
C109 C 0.1467 0.63404 0.75126 0.0
O110 O 0.13671 0.65976 0.74225 0.0
O111 O 0.06065 0.62155 0.79789 0.0
C112 C 0.02556 0.65111 0.01708 0.0
O113 O 0.01039 0.63542 0.97493 0.0
O114 O 0.0594 0.6594 0.02658 0.0
O115 O 0.068 0.61517 0.9284 0.0
O116 O 0.08195 0.57918 0.88403 0.0
O117 O 0.1154 0.62368 0.02424 0.0
C118 C 0.14544 0.69854 0.91183 0.0
C119 C 0.07029 0.58513 0.92411 0.0
Zn120 Zn 0.87117 0.5229 0.46714 0.0
Zn121 Zn 0.87628 0.555 0.32295 0.0
C122 C 0.91876 0.54719 0.54476 0.0
O123 O 0.91158 0.51232 0.53525 0.0
C124 C 0.82621 0.49078 0.26246 0.0
O125 O 0.80588 0.5078 0.26037 0.0
O126 O 0.83436 0.47471 0.50519 0.0
O127 O 0.85047 0.54128 0.41513 0.0
O128 O 0.83322 0.56046 0.35157 0.0
C129 C 0.82476 0.4784 0.54828 0.0
O130 O 0.83214 0.51244 0.56254 0.0
O131 O 0.90511 0.56245 0.51674 0.0
C132 C 0.93372 0.6247 0.2743 0.0
O133 O 0.95047 0.6347 0.3171 0.0
O134 O 0.90235 0.59369 0.2704 0.0
O135 O 0.9142 0.55796 0.37478 0.0
O136 O 0.9041 0.51128 0.42546 0.0
O137 O 0.8557 0.50483 0.28917 0.0
C138 C 0.82874 0.55162 0.39638 0.0
C139 C 0.91744 0.52895 0.38526 0.0
Zn140 Zn 0.34936 0.89736 0.81421 0.0
Zn141 Zn 0.33049 0.92006 0.67762 0.0
C142 C 0.31218 0.92009 0.8831 0.0
O143 O 0.29755 0.88461 0.89835 0.0
C144 C 0.34976 0.8784 0.6057 0.0
O145 O 0.31539 0.84911 0.61183 0.0
O146 O 0.3562 0.86828 0.87013 0.0
O147 O 0.32412 0.87144 0.75087 0.0
O148 O 0.283 0.87266 0.70113 0.0
C149 C 0.36035 0.83925 0.87481 0.0
O150 O 0.35953 0.81982 0.83597 0.0
O151 O 0.32931 0.92924 0.84234 0.0
C152 C 0.29075 0.94296 0.6147 0.0
O153 O 0.27073 0.90573 0.60873 0.0
O154 O 0.31732 0.95639 0.64607 0.0
O155 O 0.36245 0.94239 0.73767 0.0
O156 O 0.40012 0.93555 0.78799 0.0
O157 O 0.36021 0.90886 0.62973 0.0
C158 C 0.28985 0.85959 0.73963 0.0
C159 C 0.39516 0.94703 0.74683 0.0
Zn160 Zn 0.41448 0.33892 0.15807 0.0
Zn161 Zn 0.43618 0.33232 0.00928 0.0
C162 C 0.35862 0.34894 0.21534 0.0
O163 O 0.36907 0.37961 0.1885 0.0
C164 C 0.48699 0.3283 0.94056 0.0
O165 O 0.45739 0.29468 0.93103 0.0
O166 O 0.45816 0.33904 0.19521 0.0
O167 O 0.39906 0.30981 0.09574 0.0
O168 O 0.41552 0.28134 0.04243 0.0
C169 C 0.45571 0.33081 0.24049 0.0
O170 O 0.42202 0.31373 0.26111 0.0
O171 O 0.3722 0.32733 0.20599 0.0
C172 C 0.36803 0.31215 0.9468 0.0
O173 O 0.34481 0.29189 0.98216 0.0
O174 O 0.40365 0.33024 0.95373 0.0
O175 O 0.44719 0.37421 0.05917 0.0
O176 O 0.44017 0.39235 0.13292 0.0
O177 O 0.48551 0.34738 0.97646 0.0
C178 C 0.40392 0.28222 0.08507 0.0
C179 C 0.45423 0.40048 0.08998 0.0
Zn180 Zn 0.09586 0.45388 0.47361 0.0
Zn181 Zn 0.0905 0.4236 0.32981 0.0
C182 C 0.03449 0.425 0.53393 0.0
O183 O 0.04014 0.45857 0.52002 0.0
C184 C 0.12431 0.48028 0.2543 0.0
O185 O 0.12711 0.45313 0.2317 0.0
O186 O 0.13403 0.49768 0.51543 0.0
O187 O 0.11514 0.43494 0.42129 0.0
O188 O 0.13478 0.41912 0.35728 0.0
C189 C 0.14318 0.48981 0.55648 0.0
O190 O 0.13254 0.45397 0.56627 0.0
O191 O 0.05664 0.41367 0.51835 0.0
C192 C 0.03042 0.35344 0.28767 0.0
O193 O 0.01484 0.34764 0.33115 0.0
O194 O 0.06244 0.38309 0.28009 0.0
O195 O 0.05417 0.42305 0.38197 0.0
O196 O 0.06855 0.47197 0.43031 0.0
O197 O 0.11074 0.47423 0.29714 0.0
C198 C 0.13848 0.42707 0.40228 0.0
C199 C 0.05385 0.45387 0.39085 0.0
Zn200 Zn 0.61572 0.0624 0.80695 0.0
Zn201 Zn 0.65651 0.0961 0.66023 0.0
C202 C 0.62159 0.01079 0.87267 0.0
O203 O 0.59071 0.98643 0.8491 0.0
C204 C 0.63454 0.11935 0.57346 0.0
O205 O 0.66783 0.12561 0.55828 0.0
O206 O 0.58418 0.07992 0.84504 0.0
O207 O 0.65284 0.10569 0.76375 0.0
O208 O 0.68776 0.14178 0.70347 0.0
C209 C 0.59697 0.09663 0.8858 0.0
O210 O 0.63025 0.10271 0.9008 0.0
O211 O 0.64011 0.04514 0.85754 0.0
C212 C 0.68978 0.05316 0.61892 0.0
O213 O 0.67371 0.02995 0.65607 0.0
O214 O 0.68894 0.08411 0.61712 0.0
O215 O 0.62489 0.05319 0.70644 0.0
O216 O 0.58175 0.01962 0.75994 0.0
O217 O 0.62376 0.1072 0.61661 0.0
C218 C 0.67894 0.13777 0.74859 0.0
C219 C 0.59101 0.02753 0.71524 0.0
Zn220 Zn 0.53962 0.65384 0.14573 0.0
Zn221 Zn 0.56498 0.68729 0.9939 0.0
C222 C 0.60086 0.66463 0.20801 0.0
O223 O 0.60464 0.64309 0.17522 0.0
C224 C 0.49882 0.65237 0.9374 0.0
O225 O 0.48618 0.65644 0.97979 0.0
O226 O 0.48988 0.62662 0.18303 0.0
O227 O 0.54229 0.68507 0.08904 0.0
O228 O 0.5457 0.71958 0.02687 0.0
C229 C 0.48404 0.64377 0.21799 0.0
O230 O 0.50719 0.68063 0.22372 0.0
O231 O 0.57934 0.67826 0.19846 0.0
C232 C 0.64597 0.72498 0.95377 0.0
O233 O 0.68083 0.75406 0.95641 0.0
O234 O 0.62138 0.7236 0.98367 0.0
O235 O 0.55714 0.64188 0.03696 0.0
O236 O 0.54606 0.61476 0.11039 0.0
O237 O 0.53423 0.66499 0.93227 0.0
C238 C 0.53715 0.7108 0.07121 0.0
C239 C 0.55226 0.6144 0.06475 0.0
H240 H 0.39985 0.18636 0.26743 0.0
H241 H 0.48507 0.17885 0.1823 0.0
H242 H 0.48233 0.22078 0.12017 0.0
H243 H 0.45171 0.25454 0.08722 0.0
H244 H 0.36455 0.26039 0.17001 0.0
H245 H 0.37163 0.22366 0.23624 0.0
C246 C 0.41836 0.19476 0.23578 0.0
C247 C 0.44244 0.17974 0.22878 0.0
C248 C 0.41567 0.21772 0.19964 0.0
C249 C 0.46613 0.19012 0.1877 0.0
C250 C 0.46445 0.21384 0.15226 0.0
C251 C 0.43416 0.24757 0.11968 0.0
C252 C 0.40741 0.25952 0.12395 0.0
C253 C 0.43847 0.22674 0.15719 0.0
C254 C 0.38526 0.25115 0.16633 0.0
C255 C 0.38936 0.23033 0.20406 0.0
H256 H 0.29362 0.49 0.50954 0.0
H257 H 0.21828 0.42164 0.62558 0.0
H258 H 0.16381 0.3998 0.57137 0.0
H259 H 0.13758 0.40157 0.49186 0.0
H260 H 0.21211 0.46879 0.37503 0.0
H261 H 0.26703 0.49051 0.42876 0.0
C262 C 0.26526 0.47013 0.52261 0.0
C263 C 0.25984 0.45727 0.57103 0.0
C264 C 0.23421 0.45734 0.49117 0.0
C265 C 0.22305 0.43208 0.58833 0.0
C266 C 0.19196 0.41933 0.55735 0.0
C267 C 0.16613 0.42 0.47805 0.0
C268 C 0.17143 0.43325 0.42997 0.0
C269 C 0.19729 0.43176 0.50882 0.0
C270 C 0.20798 0.45757 0.41187 0.0
C271 C 0.23926 0.47001 0.4426 0.0
H272 H 0.75433 0.24583 0.92777 0.0
H273 H 0.85395 0.27963 0.83948 0.0
H274 H 0.81517 0.23648 0.77457 0.0
H275 H 0.75335 0.18807 0.74416 0.0
H276 H 0.65288 0.15526 0.82974 0.0
H277 H 0.69121 0.19953 0.89465 0.0
C278 C 0.76723 0.24327 0.89438 0.0
C279 C 0.80651 0.26513 0.88794 0.0
C280 C 0.74469 0.21903 0.85693 0.0
C281 C 0.82348 0.26269 0.84459 0.0
C282 C 0.80144 0.23823 0.8076 0.0
C283 C 0.73994 0.19112 0.77677 0.0
C284 C 0.70082 0.16814 0.78338 0.0
C285 C 0.76208 0.21632 0.8134 0.0
C286 C 0.68335 0.17205 0.82535 0.0
C287 C 0.70516 0.19737 0.86208 0.0
H288 H 0.57886 0.78317 0.09888 0.0
H289 H 0.46833 0.68292 0.11349 0.0
H290 H 0.45065 0.71504 0.17543 0.0
H291 H 0.46915 0.77005 0.22976 0.0
H292 H 0.5822 0.8673 0.22101 0.0
H293 H 0.59704 0.83824 0.15225 0.0
C294 C 0.55072 0.76892 0.11512 0.0
C295 C 0.52456 0.73139 0.10197 0.0
C296 C 0.5417 0.78679 0.152 0.0
C297 C 0.48844 0.71222 0.12333 0.0
C298 C 0.47854 0.7304 0.15873 0.0
C299 C 0.4969 0.78459 0.21249 0.0
C300 C 0.52474 0.82029 0.22953 0.0
C301 C 0.50531 0.76732 0.17415 0.0
C302 C 0.56071 0.8395 0.20781 0.0
C303 C 0.56905 0.82304 0.16869 0.0
H304 H 0.68328 0.53651 0.49528 0.0
H305 H 0.74988 0.54986 0.62443 0.0
H306 H 0.80271 0.55807 0.57378 0.0
H307 H 0.8286 0.55848 0.49329 0.0
H308 H 0.76272 0.54602 0.36401 0.0
H309 H 0.7106 0.54072 0.41451 0.0
C310 C 0.7093 0.54105 0.51233 0.0
C311 C 0.7127 0.54221 0.56335 0.0
C312 C 0.73941 0.54576 0.48311 0.0
C313 C 0.74664 0.54859 0.58511 0.0
C314 C 0.77677 0.55321 0.55625 0.0
C315 C 0.80275 0.55451 0.47631 0.0
C316 C 0.79892 0.552 0.42547 0.0
C317 C 0.77323 0.55139 0.50534 0.0
C318 C 0.76596 0.54791 0.40334 0.0
C319 C 0.73622 0.54466 0.43209 0.0
H320 H 0.29363 0.81423 0.8071 0.0
H321 H 0.21921 0.85172 0.74843 0.0
H322 H 0.16844 0.80806 0.80361 0.0
H323 H 0.14387 0.75451 0.86203 0.0
H324 H 0.21806 0.71552 0.91674 0.0
H325 H 0.27121 0.76524 0.86997 0.0
C326 C 0.26653 0.81332 0.80707 0.0
C327 C 0.25982 0.8357 0.77397 0.0
C328 C 0.23777 0.78803 0.83802 0.0
C329 C 0.22457 0.83414 0.77343 0.0
C330 C 0.19575 0.80941 0.80497 0.0
C331 C 0.17205 0.75786 0.86443 0.0
C332 C 0.17789 0.73241 0.8926 0.0
C333 C 0.20182 0.78561 0.83652 0.0
C334 C 0.21378 0.73572 0.89549 0.0
C335 C 0.24383 0.76374 0.86859 0.0
H336 H 0.61536 0.12813 0.97622 0.0
H337 H 0.52699 0.08863 0.86716 0.0
H338 H 0.48685 0.09977 0.92344 0.0
H339 H 0.47439 0.11415 0.00635 0.0
H340 H 0.56117 0.14903 0.11683 0.0
H341 H 0.60475 0.14709 0.0569 0.0
C342 C 0.58747 0.12227 0.96446 0.0
C343 C 0.57404 0.10705 0.91769 0.0
C344 C 0.56427 0.12797 0.99733 0.0
C345 C 0.53793 0.09999 0.90308 0.0
C346 C 0.51495 0.10637 0.93526 0.0
C347 C 0.50311 0.1221 0.01707 0.0
C348 C 0.51452 0.13156 0.06603 0.0
C349 C 0.52746 0.11944 0.98288 0.0
C350 C 0.5517 0.14148 0.07943 0.0
C351 C 0.57653 0.1402 0.04524 0.0
H352 H 0.46252 0.57158 0.24744 0.0
H353 H 0.44683 0.6673 0.27904 0.0
H354 H 0.4081 0.63362 0.35043 0.0
H355 H 0.37965 0.57703 0.40513 0.0
H356 H 0.39938 0.48364 0.37616 0.0
H357 H 0.43573 0.51619 0.30278 0.0
C358 C 0.45013 0.58481 0.26953 0.0
C359 C 0.45705 0.62165 0.25759 0.0
C360 C 0.42919 0.5659 0.31152 0.0
C361 C 0.44159 0.63882 0.28727 0.0
C362 C 0.41965 0.61967 0.32823 0.0
C363 C 0.39255 0.5643 0.38303 0.0
C364 C 0.3878 0.52856 0.39628 0.0
C365 C 0.41364 0.58338 0.3411 0.0
C366 C 0.4037 0.51167 0.36708 0.0
C367 C 0.42409 0.53007 0.32495 0.0
H368 H 0.81689 0.34783 0.68234 0.0
H369 H 0.82801 0.42809 0.79401 0.0
H370 H 0.82122 0.46809 0.73255 0.0
H371 H 0.81925 0.48383 0.64658 0.0
H372 H 0.81143 0.40542 0.53422 0.0
H373 H 0.80906 0.3609 0.59658 0.0
C374 C 0.81712 0.37369 0.69346 0.0
C375 C 0.82322 0.38497 0.74288 0.0
C376 C 0.81398 0.39706 0.6577 0.0
C377 C 0.82351 0.41869 0.75636 0.0
C378 C 0.81973 0.44169 0.72115 0.0
C379 C 0.81627 0.45669 0.63557 0.0
C380 C 0.8158 0.44821 0.58557 0.0
C381 C 0.81599 0.43169 0.67159 0.0
C382 C 0.81198 0.41284 0.5723 0.0
C383 C 0.81082 0.38741 0.60801 0.0
H384 H 0.36715 0.87646 0.9601 0.0
H385 H 0.3783 0.78409 0.89901 0.0
H386 H 0.40532 0.77773 0.97592 0.0
H387 H 0.43267 0.80356 0.05684 0.0
H388 H 0.42298 0.89732 0.11614 0.0
H389 H 0.3883 0.89771 0.04365 0.0
C390 C 0.3751 0.85461 0.96359 0.0
C391 C 0.37135 0.83129 0.92332 0.0
C392 C 0.39123 0.85159 0.00754 0.0
C393 C 0.38128 0.80278 0.92906 0.0
C394 C 0.39684 0.79919 0.97305 0.0
C395 C 0.4225 0.82373 0.05429 0.0
C396 C 0.43094 0.85072 0.09177 0.0
C397 C 0.40305 0.82425 0.012 0.0
C398 C 0.41716 0.87637 0.08788 0.0
C399 C 0.39742 0.87673 0.04628 0.0
H400 H 0.4599 0.32512 0.33924 0.0
H401 H 0.52931 0.37983 0.21254 0.0
H402 H 0.58219 0.42224 0.26522 0.0
H403 H 0.60513 0.45025 0.34645 0.0
H404 H 0.5347 0.39716 0.4729 0.0
H405 H 0.48624 0.34753 0.4212 0.0
C406 C 0.48683 0.34576 0.32304 0.0
C407 C 0.49023 0.34964 0.27184 0.0
C408 C 0.5169 0.37081 0.35359 0.0
C409 C 0.5256 0.3763 0.25172 0.0
C410 C 0.55587 0.40081 0.28189 0.0
C411 C 0.57952 0.42745 0.36293 0.0
C412 C 0.5734 0.42799 0.41355 0.0
C413 C 0.5513 0.39937 0.3328 0.0
C414 C 0.54013 0.39785 0.4341 0.0
C415 C 0.51226 0.36946 0.40447 0.0
H416 H 0.16009 0.57421 0.75425 0.0
H417 H 0.15953 0.65768 0.65612 0.0
H418 H 0.16451 0.62305 0.58631 0.0
H419 H 0.15846 0.5638 0.5529 0.0
H420 H 0.15733 0.47954 0.65115 0.0
H421 H 0.16417 0.52 0.72077 0.0
C422 C 0.16185 0.58532 0.71768 0.0
C423 C 0.15858 0.6181 0.71051 0.0
C424 C 0.16393 0.56481 0.6775 0.0
C425 C 0.16143 0.63226 0.66281 0.0
C426 C 0.16414 0.61236 0.62274 0.0
C427 C 0.16054 0.55461 0.58943 0.0
C428 C 0.15651 0.51824 0.59671 0.0
C429 C 0.16375 0.57774 0.62956 0.0
C430 C 0.1598 0.50712 0.64435 0.0
C431 C 0.16356 0.53021 0.68434 0.0
H432 H 0.28683 0.91289 0.97673 0.0
H433 H 0.36067 -0.00339 0.87091 0.0
H434 H 0.39229 0.04307 0.93552 0.0
H435 H 0.40665 0.05567 0.02282 0.0
H436 H 0.33325 0.9732 0.12919 0.0
H437 H 0.2934 0.93052 0.06371 0.0
C438 C 0.30904 0.94165 0.96765 0.0
C439 C 0.32196 0.95083 0.91921 0.0
C440 C 0.32753 0.96828 0.00516 0.0
C441 C 0.35039 0.98847 0.90794 0.0
C442 C 0.36877 0.0151 0.94494 0.0
C443 C 0.3812 0.02883 0.03141 0.0
C444 C 0.37263 0.01716 0.08015 0.0
C445 C 0.35878 0.00466 0.99376 0.0
C446 C 0.33994 0.9825 0.09157 0.0
C447 C 0.31742 0.95812 0.05422 0.0
H448 H 0.32155 0.38605 0.24532 0.0
H449 H 0.34901 0.30016 0.29019 0.0
H450 H 0.32566 0.29992 0.37206 0.0
H451 H 0.30599 0.33047 0.43355 0.0
H452 H 0.27805 0.41611 0.38928 0.0
H453 H 0.29203 0.40923 0.30454 0.0
C454 C 0.32177 0.36677 0.27275 0.0
C455 C 0.3377 0.34372 0.26171 0.0
C456 C 0.30834 0.3668 0.32007 0.0
C457 C 0.33727 0.31852 0.2976 0.0
C458 C 0.32397 0.31838 0.34461 0.0
C459 C 0.30201 0.347 0.40531 0.0
C460 C 0.29206 0.3746 0.41814 0.0
C461 C 0.31064 0.34332 0.35667 0.0
C462 C 0.28648 0.39524 0.38075 0.0
C463 C 0.29463 0.39144 0.33218 0.0
H464 H 0.0377 0.38764 0.6154 0.0
H465 H 0.9644 0.41546 0.53268 0.0
H466 H 0.92001 0.39604 0.60077 0.0
H467 H 0.90857 0.3832 0.68772 0.0
H468 H 0.98181 0.35757 0.7736 0.0
H469 H 0.01959 0.3635 0.70054 0.0
C470 C 0.01133 0.38809 0.61197 0.0
C471 C 0.00426 0.40321 0.56956 0.0
C472 C -0.01353 0.37806 0.65209 0.0
C473 C 0.97034 0.40415 0.56532 0.0
C474 C 0.9451 0.39326 0.60424 0.0
C475 C 0.93236 0.37811 0.69007 0.0
C476 C 0.9431 0.37075 0.73553 0.0
C477 C 0.9539 0.38211 0.64847 0.0
C478 C 0.97338 0.3635 0.73862 0.0
C479 C -0.00498 0.36713 0.697 0.0
H480 H 0.6354 0.00025 0.09856 0.0
H481 H 0.55904 0.88081 0.06779 0.0
H482 H 0.56945 0.89355 0.9805 0.0
H483 H 0.59151 0.94014 0.91332 0.0
H484 H 0.66673 0.05974 0.94411 0.0
H485 H 0.66587 0.04525 0.03072 0.0
C486 C 0.62173 0.97681 0.07286 0.0
C487 C 0.59581 0.93981 0.08978 0.0
C488 C 0.62723 0.98443 0.02255 0.0
C489 C 0.5788 0.9097 0.0559 0.0
C490 C 0.58455 0.91697 0.00584 0.0
C491 C 0.60841 0.96293 0.93883 0.0
C492 C 0.62858 0.00102 0.92231 0.0
C493 C 0.60733 0.95449 0.98877 0.0
C494 C 0.65074 0.03017 0.95576 0.0
C495 C 0.65009 0.02194 0.00544 0.0
H496 H 0.5961 0.6314 0.43214 0.0
H497 H 0.65931 0.57779 0.38337 0.0
H498 H 0.66418 0.60404 0.30181 0.0
H499 H 0.64376 0.63529 0.24207 0.0
H500 H 0.57916 0.68758 0.29 0.0
H501 H 0.5824 0.66953 0.37413 0.0
C502 C 0.61148 0.62596 0.40391 0.0
C503 C 0.62681 0.60218 0.41382 0.0
C504 C 0.61388 0.64084 0.35676 0.0
C505 C 0.64694 0.59573 0.37681 0.0
C506 C 0.64971 0.61068 0.33002 0.0
C507 C 0.63109 0.64351 0.27102 0.0
C508 C 0.61089 0.66238 0.2595 0.0
C509 C 0.63231 0.63229 0.31923 0.0
C510 C 0.59489 0.67303 0.29764 0.0
C511 C 0.59644 0.66241 0.34582 0.0
H512 H 0.0352 0.63353 0.71341 0.0
H513 H 0.96641 0.52335 0.78164 0.0
H514 H 0.92148 0.50307 0.71426 0.0
H515 H 0.90687 0.51292 0.63125 0.0
H516 H 0.97468 0.62164 0.56014 0.0
H517 H 0.01469 0.64659 0.63348 0.0
C518 C 0.00988 0.60549 0.71397 0.0
C519 C 0.00441 0.57972 0.75203 0.0
C520 C -0.01563 0.5936 0.67433 0.0
C521 C 0.97152 0.54346 0.75238 0.0
C522 C 0.94583 0.53178 0.71384 0.0
C523 C 0.93011 0.54229 0.63215 0.0
C524 C 0.9385 0.56531 0.59047 0.0
C525 C 0.95284 0.55601 0.67384 0.0
C526 C 0.96801 0.60348 0.59202 0.0
C527 C -0.00908 0.61757 0.63377 0.0
H528 H 0.41813 0.98243 0.32428 0.0
H529 H 0.51271 0.09638 0.30669 0.0
H530 H 0.55711 0.07399 0.32508 0.0
H531 H 0.56737 0.01939 0.31439 0.0
H532 H 0.4719 0.90497 0.3204 0.0
H533 H 0.42965 0.92941 0.3404 0.0
C534 C 0.44835 0.00256 0.32757 0.0
C535 C 0.46246 0.04063 0.31347 0.0
C536 C 0.47362 0.98889 0.33484 0.0
C537 C 0.50149 0.0668 0.31736 0.0
C538 C 0.52687 0.05385 0.32706 0.0
C539 C 0.53773 -4e-05 0.3231 0.0
C540 C 0.52259 0.96062 0.31618 0.0
C541 C 0.51324 0.01448 0.33112 0.0
C542 C 0.48416 0.93536 0.32667 0.0
C543 C 0.45984 0.94943 0.33704 0.0
H544 H 0.41063 0.49279 0.6309 0.0
H545 H 0.38783 0.37694 0.62026 0.0
H546 H 0.45426 0.39793 0.63945 0.0
H547 H 0.51969 0.45085 0.63258 0.0
H548 H 0.54246 0.56698 0.63082 0.0
H549 H 0.4752 0.54488 0.646 0.0
C550 C 0.41991 0.47206 0.6359 0.0
C551 C 0.39515 0.43365 0.62446 0.0
C552 C 0.45829 0.48475 0.64394 0.0
C553 C 0.40696 0.40668 0.6292 0.0
C554 C 0.44487 0.41877 0.63968 0.0
C555 C 0.50988 0.47115 0.63783 0.0
C556 C 0.53495 0.51011 0.63 0.0
C557 C 0.47114 0.458 0.64314 0.0
C558 C 0.52296 0.53677 0.63654 0.0
C559 C 0.48462 0.52408 0.64472 0.0
H560 H -0.00719 0.42029 0.97629 0.0
H561 H 0.90055 0.44322 0.98761 0.0
H562 H 0.94521 0.51074 0.00268 0.0
H563 H 0.00794 0.5629 0.97911 0.0
H564 H 0.09837 0.53927 0.95078 0.0
H565 H 0.05838 0.47334 0.97782 0.0
C566 C -0.01736 0.43983 0.98508 0.0
C567 C 0.94397 0.42762 0.97969 0.0
C568 C 0.00867 0.47903 0.98906 0.0
C569 C 0.93052 0.4526 0.99104 0.0
C570 C 0.95611 0.49127 0.99891 0.0
C571 C 0.01939 0.54376 0.98141 0.0
C572 C 0.05523 0.55504 0.96145 0.0
C573 C -0.00489 0.50515 0.99288 0.0
C574 C 0.07029 0.53052 0.96491 0.0
C575 C 0.0473 0.49276 0.97994 0.0
H576 H 0.06446 0.52343 0.36864 0.0
H577 H -0.0165 0.403 0.35719 0.0
H578 H 0.93246 0.41706 0.34226 0.0
H579 H 0.90975 0.46266 0.35397 0.0
H580 H -0.00953 0.58297 0.36654 0.0
H581 H 0.04307 0.57025 0.35816 0.0
C582 C 0.03583 0.50046 0.36105 0.0
C583 C 0.02727 0.46234 0.36517 0.0
C584 C 0.00667 0.50877 0.35336 0.0
C585 C -0.00952 0.43258 0.35453 0.0
C586 C 0.96128 0.4406 0.34646 0.0
C587 C 0.93889 0.4861 0.35276 0.0
C588 C 0.94662 0.52347 0.36167 0.0
C589 C 0.96876 0.47842 0.34896 0.0
C590 C -0.01584 0.55395 0.35977 0.0
C591 C 0.01416 0.54662 0.35555 0.0
H592 H 0.4404 0.01226 0.69864 0.0
H593 H 0.41096 0.89437 0.7109 0.0
H594 H 0.47305 0.90968 0.67904 0.0
H595 H 0.54014 0.95913 0.67978 0.0
H596 H 0.57098 0.07764 0.68126 0.0
H597 H 0.50475 0.06027 0.6725 0.0
C598 C 0.44706 0.98981 0.69169 0.0
C599 C 0.42211 0.95263 0.70798 0.0
C600 C 0.4837 -0.00065 0.6764 0.0
C601 C 0.43043 0.92338 0.69913 0.0
C602 C 0.46599 0.9322 0.68131 0.0
C603 C 0.53232 0.981 0.67493 0.0
C604 C 0.56 0.01941 0.68148 0.0
C605 C 0.49387 0.97055 0.67447 0.0
C606 C 0.55011 0.04786 0.67539 0.0
C607 C 0.51198 0.03782 0.6718 0.0
H608 H 0.57684 0.57085 0.10498 0.0
H609 H 0.51565 0.57797 0.98083 0.0
H610 H 0.48307 0.50832 0.97135 0.0
H611 H 0.4602 0.44572 0.01284 0.0
H612 H 0.51597 0.44143 0.14471 0.0
H613 H 0.56242 0.50925 0.13718 0.0
C614 C 0.55747 0.55712 0.0747 0.0
C615 C 0.54765 0.57882 0.04457 0.0
C616 C 0.53689 0.51737 0.07213 0.0
C617 C 0.52325 0.56143 0.00474 0.0
C618 C 0.50412 0.5216 -6e-05 0.0
C619 C 0.48304 0.45977 0.03915 0.0
C620 C 0.48438 0.43951 0.08001 0.0
C621 C 0.50865 0.49923 0.03575 0.0
C622 C 0.5141 0.45723 0.11381 0.0
C623 C 0.54071 0.49579 0.10935 0.0
H624 H 0.2571 0.92348 0.52562 0.0
H625 H 0.32366 0.02055 0.61893 0.0
H626 H 0.33921 0.06359 0.54937 0.0
H627 H 0.34551 0.07171 0.46101 0.0
H628 H 0.28417 0.97409 0.36671 0.0
H629 H 0.25401 0.93337 0.43771 0.0
C630 C 0.27404 0.95413 0.53104 0.0
C631 C 0.29008 0.96877 0.57705 0.0
C632 C 0.28424 0.97857 0.4905 0.0
C633 C 0.31159 0.00855 0.58363 0.0
C634 C 0.32063 0.03317 0.54384 0.0
C635 C 0.32482 0.04169 0.45586 0.0
C636 C 0.31798 0.02567 0.40884 0.0
C637 C 0.30898 0.01824 0.4968 0.0
C638 C 0.29041 0.98701 0.40261 0.0
C639 C 0.27336 0.96364 0.44325 0.0
H640 H 0.30095 0.30815 0.92294 0.0
H641 H 0.40417 0.32045 0.86119 0.0
H642 H 0.38606 0.33149 0.78072 0.0
H643 H 0.34547 0.34579 0.73033 0.0
H644 H 0.24676 0.34272 0.79277 0.0
H645 H 0.25757 0.3187 0.87008 0.0
C646 C 0.31898 0.31254 0.89159 0.0
C647 C 0.35388 0.31381 0.8979 0.0
C648 C 0.30909 0.3204 0.84556 0.0
C649 C 0.3773 0.31978 0.85722 0.0
C650 C 0.36697 0.32601 0.81118 0.0
C651 C 0.32571 0.33875 0.76047 0.0
C652 C 0.29522 0.34551 0.75617 0.0
C653 C 0.33353 0.32748 0.80524 0.0
C654 C 0.27031 0.3374 0.7956 0.0
C655 C 0.27668 0.324 0.83973 0.0
H656 H 0.91193 0.2779 0.12094 0.0
H657 H 0.01446 0.33323 0.03443 0.0
H658 H 0.05273 0.34622 0.10811 0.0
H659 H 0.05688 0.35328 0.19705 0.0
H660 H 0.95433 0.3018 0.28356 0.0
H661 H 0.91626 0.27555 0.20984 0.0
C662 C 0.94263 0.292 0.11798 0.0
C663 C 0.96035 0.30558 0.07239 0.0
C664 C 0.96447 0.30068 0.16061 0.0
C665 C 9e-05 0.323 0.06913 0.0
C666 C 0.02203 0.33071 0.11131 0.0
C667 C 0.02624 0.33566 0.19988 0.0
C668 C 0.00837 0.33026 0.2455 0.0
C669 C 0.00452 0.32155 0.15731 0.0
C670 C 0.96875 0.30674 0.2488 0.0
C671 C 0.94694 0.29186 0.20662 0.0
H672 H 0.67235 0.98033 0.5986 0.0
H673 H 0.72159 0.09301 0.53488 0.0
H674 H 0.71085 0.06558 0.45332 0.0
H675 H 0.67356 0.00936 0.40174 0.0
H676 H 0.62035 0.89671 0.4662 0.0
H677 H 0.64726 0.92433 0.54543 0.0
C678 C 0.68192 -0.00098 0.56697 0.0
C679 C 0.69648 0.03849 0.57278 0.0
C680 C 0.67422 0.98295 0.52009 0.0
C681 C 0.70945 0.06237 0.5314 0.0
C682 C 0.70309 0.04669 0.48464 0.0
C683 C 0.6688 -0.00924 0.43276 0.0
C684 C 0.644 0.95116 0.42844 0.0
C685 C 0.68323 0.00691 0.47865 0.0
C686 C 0.63863 0.92741 0.46882 0.0
C687 C 0.65391 0.94318 0.51424 0.0
H688 H 0.68355 0.73268 0.86938 0.0
H689 H 0.58815 0.6506 0.95435 0.0
H690 H 0.57158 0.60273 0.89083 0.0
H691 H 0.58576 0.58356 0.81255 0.0
H692 H 0.68474 0.66356 0.73071 0.0
H693 H 0.69872 0.71296 0.79185 0.0
C694 C 0.65909 0.70432 0.87395 0.0
C695 C 0.63623 0.69559 0.91585 0.0
C696 C 0.65061 0.6766 0.83791 0.0
C697 C 0.60508 0.65859 0.92159 0.0
C698 C 0.59593 0.63103 0.88548 0.0
C699 C 0.61017 0.61192 0.80775 0.0
C700 C 0.63407 0.62003 0.76705 0.0
C701 C 0.61853 0.63975 0.84353 0.0
C702 C 0.6659 0.65671 0.76174 0.0
C703 C 0.67393 0.6849 0.79669 0.0
H704 H 0.05004 0.68855 0.10314 0.0
H705 H 0.94808 0.61724 0.02066 0.0
H706 H 0.90948 0.60845 0.09306 0.0
H707 H 0.9059 0.61201 0.182 0.0
H708 H 0.00826 0.68053 0.26519 0.0
H709 H 0.04543 0.70015 0.18995 0.0
C710 C 0.01931 0.67163 0.10074 0.0
C711 C 0.00198 0.65282 0.05692 0.0
C712 C -0.00258 0.66596 0.14271 0.0
C713 C 0.96215 0.63169 0.05409 0.0
C714 C 0.94007 0.62649 0.09555 0.0
C715 C 0.93626 0.63183 0.18367 0.0
C716 C 0.95445 0.64401 0.22922 0.0
C717 C 0.95756 0.64208 0.14046 0.0
C718 C -0.00638 0.67033 0.23067 0.0
C719 C 0.01494 0.68138 0.18766 0.0
H720 H 0.53412 0.12617 0.40352 0.0
H721 H 0.46773 0.12702 0.526 0.0
H722 H 0.5145 0.12755 0.58247 0.0
H723 H 0.57228 0.12411 0.5969 0.0
H724 H 0.63911 0.12437 0.4743 0.0
H725 H 0.59394 0.12701 0.4179 0.0
C726 C 0.52999 0.12673 0.44257 0.0
C727 C 0.49738 0.12621 0.46059 0.0
C728 C 0.55691 0.12703 0.47474 0.0
C729 C 0.49261 0.12736 0.51123 0.0
C730 C 0.51925 0.12753 0.54354 0.0
C731 C 0.57707 0.12499 0.55784 0.0
C732 C 0.60879 0.12381 0.53974 0.0
C733 C 0.55118 0.12677 0.52568 0.0
C734 C 0.61489 0.12532 0.48911 0.0
C735 C 0.58906 0.12674 0.45684 0.0
H736 H 0.35817 0.55319 0.80284 0.0
H737 H 0.43727 0.52486 0.73667 0.0
H738 H 0.48779 0.57024 0.79051 0.0
H739 H 0.50826 0.615 0.86036 0.0
H740 H 0.4275 0.64061 0.92748 0.0
H741 H 0.37903 0.59953 0.86904 0.0
C742 C 0.3865 0.55707 0.79985 0.0
C743 C 0.39383 0.5355 0.76594 0.0
C744 C 0.41516 0.58275 0.83123 0.0
C745 C 0.43081 0.54108 0.76251 0.0
C746 C 0.45971 0.56698 0.79336 0.0
C747 C 0.4802 0.61197 0.86164 0.0
C748 C 0.47142 0.63071 0.89827 0.0
C749 C 0.45207 0.58758 0.82839 0.0
C750 C 0.43488 0.62629 0.89983 0.0
C751 C 0.40711 0.60278 0.86645 0.0
H752 H 0.78574 0.37425 0.08886 0.0
H753 H 0.89493 0.38915 0.13047 0.0
H754 H 0.89818 0.42872 0.19894 0.0
H755 H 0.87233 0.46202 0.24428 0.0
H756 H 0.76508 0.45117 0.20171 0.0
H757 H 0.75847 0.4065 0.13699 0.0
C758 C 0.81009 0.386 0.1131 0.0
C759 C 0.84008 0.37889 0.10428 0.0
C760 C 0.81214 0.40936 0.15235 0.0
C761 C 0.87151 0.39436 0.13604 0.0
C762 C 0.87342 0.41695 0.1754 0.0
C763 C 0.84721 0.4496 0.22131 0.0
C764 C 0.81932 0.46005 0.22768 0.0
C765 C 0.84417 0.425 0.18351 0.0
C766 C 0.78704 0.44367 0.19745 0.0
C767 C 0.78332 0.41826 0.16032 0.0
H768 H 0.47919 0.90475 0.45895 0.0
H769 H 0.3962 0.79021 0.41497 0.0
H770 H 0.35206 0.7886 0.47702 0.0
H771 H 0.33721 0.82033 0.54354 0.0
H772 H 0.42192 0.9347 0.58663 0.0
H773 H 0.46533 0.93544 0.52537 0.0
C774 C 0.45143 0.87937 0.46273 0.0
C775 C 0.44094 0.8477 0.43229 0.0
C776 C 0.42655 0.87853 0.49851 0.0
C777 C 0.40493 0.81502 0.43795 0.0
C778 C 0.37972 0.81407 0.47343 0.0
C779 C 0.3652 0.84532 0.53957 0.0
C780 C 0.37616 0.8774 0.56956 0.0
C781 C 0.39025 0.84571 0.50394 0.0
C782 C 0.4126 0.90957 0.56405 0.0
C783 C 0.43753 0.91013 0.52891 0.0
H784 H 0.58087 0.39221 0.74685 0.0
H785 H 0.60683 0.49839 0.81683 0.0
H786 H 0.57494 0.46413 0.89064 0.0
H787 H 0.53486 0.40434 0.9327 0.0
H788 H 0.50422 0.29711 0.86269 0.0
H789 H 0.5438 0.33155 0.79225 0.0
C790 C 0.57995 0.40783 0.77848 0.0
C791 C 0.59598 0.44776 0.77603 0.0
C792 C 0.5609 0.38783 0.82098 0.0
C793 C 0.59457 0.46762 0.81742 0.0
C794 C 0.57635 0.44808 0.85982 0.0
C795 C 0.53736 0.38835 0.90255 0.0
C796 C 0.51645 0.34821 0.90282 0.0
C797 C 0.55878 0.4082 0.86164 0.0
C798 C 0.51994 0.32807 0.86324 0.0
C799 C 0.54236 0.34774 0.82286 0.0
H800 H 0.13974 0.496 0.15797 0.0
H801 H 0.12367 0.54256 0.29172 0.0
H802 H 0.12587 0.5957 0.24652 0.0
H803 H 0.12559 0.62509 0.16821 0.0
H804 H 0.13881 0.57669 0.0343 0.0
H805 H 0.14471 0.52832 0.08045 0.0
C806 C 0.13732 0.51807 0.17736 0.0
C807 C 0.13121 0.51512 0.22801 0.0
C808 C 0.13775 0.54808 0.15107 0.0
C809 C 0.12816 0.54401 0.25261 0.0
C810 C 0.12932 0.57439 0.22681 0.0
C811 C 0.13037 0.60434 0.14917 0.0
C812 C 0.13131 0.60424 0.09792 0.0
C813 C 0.13307 0.57614 0.17588 0.0
C814 C 0.1376 0.57719 0.07377 0.0
C815 C 0.14096 0.54947 0.10011 0.0
loop_
_geom_bond_atom_site_label_1
_geom_bond_atom_site_label_2
_geom_bond_distance
_geom_bond_site_symmetry_2
_ccdc_geom_bond_type
Zn0 O6 1.969 . S
Zn0 O7 1.965 . S
Zn0 O11 2.024 . S
Zn0 O16 1.969 . S
Zn1 O8 1.969 . S
Zn1 O14 1.969 . S
Zn1 O15 1.965 . S
Zn1 O17 2.024 . S
C2 O3 1.229 . S
C2 O11 1.058 . S
O3 C2 1.229 . S
C4 O5 1.229 . S
C4 O17 1.058 . S
O5 C4 1.229 . S
O6 Zn0 1.969 . S
O6 C9 1.267 . S
O7 Zn0 1.965 . S
O7 C18 1.260 . S
O8 Zn1 1.969 . S
O8 C18 1.258 . S
C9 O6 1.267 . S
C9 O10 1.228 . S
O10 C9 1.228 . S
O11 Zn0 2.024 . S
O11 C2 1.058 . S
C12 O13 1.228 . S
C12 O14 1.267 . S
O13 C12 1.228 . S
O14 Zn1 1.969 . S
O14 C12 1.267 . S
O15 Zn1 1.965 . S
O15 C19 1.260 . S
O16 Zn0 1.969 . S
O16 C19 1.258 . S
O17 Zn1 2.024 . S
O17 C4 1.058 . S
C18 O7 1.260 . S
C18 O8 1.258 . S
C19 O15 1.260 . S
C19 O16 1.258 . S
Zn20 O26 1.969 . S
Zn20 O27 1.965 . S
Zn20 O31 2.024 . S
Zn20 O36 1.969 . S
Zn21 O28 1.969 . S
Zn21 O34 1.969 . S
Zn21 O35 1.965 . S
Zn21 O37 2.024 . S
C22 O23 1.229 . S
C22 O31 1.058 . S
O23 C22 1.229 . S
C24 O25 1.229 . S
C24 O37 1.058 . S
O25 C24 1.229 . S
O26 Zn20 1.969 . S
O26 C29 1.267 . S
O27 Zn20 1.965 . S
O27 C38 1.260 . S
O28 Zn21 1.969 . S
O28 C38 1.258 . S
C29 O26 1.267 . S
C29 O30 1.228 . S
O30 C29 1.228 . S
O31 Zn20 2.024 . S
O31 C22 1.058 . S
C32 O33 1.228 . S
C32 O34 1.267 . S
O33 C32 1.228 . S
O34 Zn21 1.969 . S
O34 C32 1.267 . S
O35 Zn21 1.965 . S
O35 C39 1.260 . S
O36 Zn20 1.969 . S
O36 C39 1.258 . S
O37 Zn21 2.024 . S
O37 C24 1.058 . S
C38 O27 1.260 . S
C38 O28 1.258 . S
C39 O35 1.260 . S
C39 O36 1.258 . S
Zn40 O46 1.969 . S
Zn40 O47 1.965 . S
Zn40 O51 2.024 . S
Zn40 O56 1.969 . S
Zn41 O48 1.969 . S
Zn41 O54 1.969 1_556 S
Zn41 O55 1.965 . S
Zn41 O57 2.024 1_556 S
C42 O43 1.229 . S
C42 O51 1.058 . S
O43 C42 1.229 . S
C44 O45 1.229 . S
C44 O57 1.058 . S
O45 C44 1.229 . S
O46 Zn40 1.969 . S
O46 C49 1.267 . S
O47 Zn40 1.965 . S
O47 C58 1.260 . S
O48 Zn41 1.969 . S
O48 C58 1.258 . S
C49 O46 1.267 . S
C49 O50 1.228 . S
O50 C49 1.228 . S
O51 Zn40 2.024 . S
O51 C42 1.058 . S
C52 O53 1.228 . S
C52 O54 1.267 . S
O53 C52 1.228 . S
O54 Zn41 1.969 1_554 S
O54 C52 1.267 . S
O55 Zn41 1.965 . S
O55 C59 1.260 . S
O56 Zn40 1.969 . S
O56 C59 1.258 . S
O57 Zn41 2.024 1_554 S
O57 C44 1.058 . S
C58 O47 1.260 . S
C58 O48 1.258 . S
C59 O55 1.260 . S
C59 O56 1.258 . S
Zn60 O66 1.969 . S
Zn60 O67 1.965 . S
Zn60 O71 2.024 . S
Zn60 O76 1.969 . S
Zn61 O68 1.969 . S
Zn61 O74 1.969 . S
Zn61 O75 1.965 . S
Zn61 O77 2.024 . S
C62 O63 1.229 . S
C62 O71 1.058 . S
O63 C62 1.229 . S
C64 O65 1.229 . S
C64 O77 1.058 . S
O65 C64 1.229 . S
O66 Zn60 1.969 . S
O66 C69 1.267 . S
O67 Zn60 1.965 . S
O67 C78 1.260 . S
O68 Zn61 1.969 . S
O68 C78 1.258 . S
C69 O66 1.267 . S
C69 O70 1.228 . S
O70 C69 1.228 . S
O71 Zn60 2.024 . S
O71 C62 1.058 . S
C72 O73 1.228 . S
C72 O74 1.267 . S
O73 C72 1.228 . S
O74 Zn61 1.969 . S
O74 C72 1.267 . S
O75 Zn61 1.965 . S
O75 C79 1.260 . S
O76 Zn60 1.969 . S
O76 C79 1.258 . S
O77 Zn61 2.024 . S
O77 C64 1.058 . S
C78 O67 1.260 . S
C78 O68 1.258 . S
C79 O75 1.260 . S
C79 O76 1.258 . S
Zn80 O86 1.969 . S
Zn80 O87 1.965 . S
Zn80 O91 2.024 . S
Zn80 O96 1.969 . S
Zn81 O88 1.969 . S
Zn81 O94 1.969 . S
Zn81 O95 1.965 . S
Zn81 O97 2.024 . S
C82 O83 1.229 . S
C82 O91 1.058 . S
O83 C82 1.229 . S
C84 O85 1.229 . S
C84 O97 1.058 . S
O85 C84 1.229 . S
O86 Zn80 1.969 . S
O86 C89 1.267 . S
O87 Zn80 1.965 . S
O87 C98 1.260 . S
O88 Zn81 1.969 . S
O88 C98 1.258 . S
C89 O86 1.267 . S
C89 O90 1.228 . S
O90 C89 1.228 . S
O91 Zn80 2.024 . S
O91 C82 1.058 . S
C92 O93 1.228 . S
C92 O94 1.267 . S
O93 C92 1.228 . S
O94 Zn81 1.969 . S
O94 C92 1.267 . S
O95 Zn81 1.965 . S
O95 C99 1.260 . S
O96 Zn80 1.969 . S
O96 C99 1.258 . S
O97 Zn81 2.024 . S
O97 C84 1.058 . S
C98 O87 1.260 . S
C98 O88 1.258 . S
C99 O95 1.260 . S
C99 O96 1.258 . S
Zn100 O106 1.969 . S
Zn100 O107 1.965 . S
Zn100 O111 2.024 . S
Zn100 O116 1.969 . S
Zn101 O108 1.969 . S
Zn101 O114 1.969 1_556 S
Zn101 O115 1.965 . S
Zn101 O117 2.024 1_556 S
C102 O103 1.229 . S
C102 O111 1.058 . S
O103 C102 1.229 . S
C104 O105 1.229 . S
C104 O117 1.058 . S
O105 C104 1.229 . S
O106 Zn100 1.969 . S
O106 C109 1.267 . S
O107 Zn100 1.965 . S
O107 C118 1.260 . S
O108 Zn101 1.969 . S
O108 C118 1.258 . S
C109 O106 1.267 . S
C109 O110 1.228 . S
O110 C109 1.228 . S
O111 Zn100 2.024 . S
O111 C102 1.058 . S
C112 O113 1.228 . S
C112 O114 1.267 . S
O113 C112 1.228 . S
O114 Zn101 1.969 1_554 S
O114 C112 1.267 . S
O115 Zn101 1.965 . S
O115 C119 1.260 . S
O116 Zn100 1.969 . S
O116 C119 1.258 . S
O117 Zn101 2.024 1_554 S
O117 C104 1.058 . S
C118 O107 1.260 . S
C118 O108 1.258 . S
C119 O115 1.260 . S
C119 O116 1.258 . S
Zn120 O126 1.969 . S
Zn120 O127 1.965 . S
Zn120 O131 2.024 . S
Zn120 O136 1.969 . S
Zn121 O128 1.969 . S
Zn121 O134 1.969 . S
Zn121 O135 1.965 . S
Zn121 O137 2.024 . S
C122 O123 1.229 . S
C122 O131 1.058 . S
O123 C122 1.229 . S
C124 O125 1.229 . S
C124 O137 1.058 . S
O125 C124 1.229 . S
O126 Zn120 1.969 . S
O126 C129 1.267 . S
O127 Zn120 1.965 . S
O127 C138 1.260 . S
O128 Zn121 1.969 . S
O128 C138 1.258 . S
C129 O126 1.267 . S
C129 O130 1.228 . S
O130 C129 1.228 . S
O131 Zn120 2.024 . S
O131 C122 1.058 . S
C132 O133 1.228 . S
C132 O134 1.267 . S
O133 C132 1.228 . S
O134 Zn121 1.969 . S
O134 C132 1.267 . S
O135 Zn121 1.965 . S
O135 C139 1.260 . S
O136 Zn120 1.969 . S
O136 C139 1.258 . S
O137 Zn121 2.024 . S
O137 C124 1.058 . S
C138 O127 1.260 . S
C138 O128 1.258 . S
C139 O135 1.260 . S
C139 O136 1.258 . S
Zn140 O146 1.969 . S
Zn140 O147 1.965 . S
Zn140 O151 2.024 . S
Zn140 O156 1.969 . S
Zn141 O148 1.969 . S
Zn141 O154 1.969 . S
Zn141 O155 1.965 . S
Zn141 O157 2.024 . S
C142 O143 1.229 . S
C142 O151 1.058 . S
O143 C142 1.229 . S
C144 O145 1.229 . S
C144 O157 1.058 . S
O145 C144 1.229 . S
O146 Zn140 1.969 . S
O146 C149 1.267 . S
O147 Zn140 1.965 . S
O147 C158 1.260 . S
O148 Zn141 1.969 . S
O148 C158 1.258 . S
C149 O146 1.267 . S
C149 O150 1.228 . S
O150 C149 1.228 . S
O151 Zn140 2.024 . S
O151 C142 1.058 . S
C152 O153 1.228 . S
C152 O154 1.267 . S
O153 C152 1.228 . S
O154 Zn141 1.969 . S
O154 C152 1.267 . S
O155 Zn141 1.965 . S
O155 C159 1.260 . S
O156 Zn140 1.969 . S
O156 C159 1.258 . S
O157 Zn141 2.024 . S
O157 C144 1.058 . S
C158 O147 1.260 . S
C158 O148 1.258 . S
C159 O155 1.260 . S
C159 O156 1.258 . S
Zn160 O166 1.969 . S
Zn160 O167 1.965 . S
Zn160 O171 2.024 . S
Zn160 O176 1.969 . S
Zn161 O168 1.969 . S
Zn161 O174 1.969 1_554 S
Zn161 O175 1.965 . S
Zn161 O177 2.024 1_554 S
C162 O163 1.229 . S
C162 O171 1.058 . S
O163 C162 1.229 . S
C164 O165 1.229 . S
C164 O177 1.058 . S
O165 C164 1.229 . S
O166 Zn160 1.969 . S
O166 C169 1.267 . S
O167 Zn160 1.965 . S
O167 C178 1.260 . S
O168 Zn161 1.969 . S
O168 C178 1.258 . S
C169 O166 1.267 . S
C169 O170 1.228 . S
O170 C169 1.228 . S
O171 Zn160 2.024 . S
O171 C162 1.058 . S
C172 O173 1.228 . S
C172 O174 1.267 . S
O173 C172 1.228 . S
O174 Zn161 1.969 1_556 S
O174 C172 1.267 . S
O175 Zn161 1.965 . S
O175 C179 1.260 . S
O176 Zn160 1.969 . S
O176 C179 1.258 . S
O177 Zn161 2.024 1_556 S
O177 C164 1.058 . S
C178 O167 1.260 . S
C178 O168 1.258 . S
C179 O175 1.260 . S
C179 O176 1.258 . S
Zn180 O186 1.969 . S
Zn180 O187 1.965 . S
Zn180 O191 2.024 . S
Zn180 O196 1.969 . S
Zn181 O188 1.969 . S
Zn181 O194 1.969 . S
Zn181 O195 1.965 . S
Zn181 O197 2.024 . S
C182 O183 1.229 . S
C182 O191 1.058 . S
O183 C182 1.229 . S
C184 O185 1.229 . S
C184 O197 1.058 . S
O185 C184 1.229 . S
O186 Zn180 1.969 . S
O186 C189 1.267 . S
O187 Zn180 1.965 . S
O187 C198 1.260 . S
O188 Zn181 1.969 . S
O188 C198 1.258 . S
C189 O186 1.267 . S
C189 O190 1.228 . S
O190 C189 1.228 . S
O191 Zn180 2.024 . S
O191 C182 1.058 . S
C192 O193 1.228 . S
C192 O194 1.267 . S
O193 C192 1.228 . S
O194 Zn181 1.969 . S
O194 C192 1.267 . S
O195 Zn181 1.965 . S
O195 C199 1.260 . S
O196 Zn180 1.969 . S
O196 C199 1.258 . S
O197 Zn181 2.024 . S
O197 C184 1.058 . S
C198 O187 1.260 . S
C198 O188 1.258 . S
C199 O195 1.260 . S
C199 O196 1.258 . S
Zn200 O206 1.969 . S
Zn200 O207 1.965 . S
Zn200 O211 2.024 . S
Zn200 O216 1.969 . S
Zn201 O208 1.969 . S
Zn201 O214 1.969 . S
Zn201 O215 1.965 . S
Zn201 O217 2.024 . S
C202 O203 1.229 . S
C202 O211 1.058 . S
O203 C202 1.229 . S
C204 O205 1.229 . S
C204 O217 1.058 . S
O205 C204 1.229 . S
O206 Zn200 1.969 . S
O206 C209 1.267 . S
O207 Zn200 1.965 . S
O207 C218 1.260 . S
O208 Zn201 1.969 . S
O208 C218 1.258 . S
C209 O206 1.267 . S
C209 O210 1.228 . S
O210 C209 1.228 . S
O211 Zn200 2.024 . S
O211 C202 1.058 . S
C212 O213 1.228 . S
C212 O214 1.267 . S
O213 C212 1.228 . S
O214 Zn201 1.969 . S
O214 C212 1.267 . S
O215 Zn201 1.965 . S
O215 C219 1.260 . S
O216 Zn200 1.969 . S
O216 C219 1.258 . S
O217 Zn201 2.024 . S
O217 C204 1.058 . S
C218 O207 1.260 . S
C218 O208 1.258 . S
C219 O215 1.260 . S
C219 O216 1.258 . S
Zn220 O226 1.969 . S
Zn220 O227 1.965 . S
Zn220 O231 2.024 . S
Zn220 O236 1.969 . S
Zn221 O228 1.969 . S
Zn221 O234 1.969 1_554 S
Zn221 O235 1.965 . S
Zn221 O237 2.024 1_554 S
C222 O223 1.229 . S
C222 O231 1.058 . S
O223 C222 1.229 . S
C224 O225 1.229 . S
C224 O237 1.058 . S
O225 C224 1.229 . S
O226 Zn220 1.969 . S
O226 C229 1.267 . S
O227 Zn220 1.965 . S
O227 C238 1.260 . S
O228 Zn221 1.969 . S
O228 C238 1.258 . S
C229 O226 1.267 . S
C229 O230 1.228 . S
O230 C229 1.228 . S
O231 Zn220 2.024 . S
O231 C222 1.058 . S
C232 O233 1.228 . S
C232 O234 1.267 . S
O233 C232 1.228 . S
O234 Zn221 1.969 1_556 S
O234 C232 1.267 . S
O235 Zn221 1.965 . S
O235 C239 1.260 . S
O236 Zn220 1.969 . S
O236 C239 1.258 . S
O237 Zn221 2.024 1_556 S
O237 C224 1.058 . S
C238 O227 1.260 . S
C238 O228 1.258 . S
C239 O235 1.260 . S
C239 O236 1.258 . S
H240 C246 0.930 . S
H241 C249 0.930 . S
H242 C250 0.930 . S
H243 C251 0.930 . S
H244 C254 0.930 . S
H245 C255 0.930 . S
C246 H240 0.930 . S
C246 C247 1.355 . S
C246 C248 1.415 . S
C247 C246 1.355 . S
C247 C249 1.419 . S
C248 C246 1.415 . S
C248 C253 1.425 . S
C248 C255 1.409 . S
C249 H241 0.930 . S
C249 C247 1.419 . S
C249 C250 1.362 . S
C250 H242 0.930 . S
C250 C249 1.362 . S
C250 C253 1.409 . S
C251 H243 0.930 . S
C251 C252 1.355 . S
C251 C253 1.415 . S
C252 C251 1.355 . S
C252 C254 1.419 . S
C253 C248 1.425 . S
C253 C250 1.409 . S
C253 C251 1.415 . S
C254 H244 0.930 . S
C254 C252 1.419 . S
C254 C255 1.362 . S
C255 H245 0.930 . S
C255 C248 1.409 . S
C255 C254 1.362 . S
H256 C262 0.930 . S
H257 C265 0.930 . S
H258 C266 0.930 . S
H259 C267 0.930 . S
H260 C270 0.930 . S
H261 C271 0.930 . S
C262 H256 0.930 . S
C262 C263 1.355 . S
C262 C264 1.415 . S
C263 C262 1.355 . S
C263 C265 1.419 . S
C264 C262 1.415 . S
C264 C269 1.425 . S
C264 C271 1.409 . S
C265 H257 0.930 . S
C265 C263 1.419 . S
C265 C266 1.362 . S
C266 H258 0.930 . S
C266 C265 1.362 . S
C266 C269 1.409 . S
C267 H259 0.930 . S
C267 C268 1.355 . S
C267 C269 1.415 . S
C268 C267 1.355 . S
C268 C270 1.419 . S
C269 C264 1.425 . S
C269 C266 1.409 . S
C269 C267 1.415 . S
C270 H260 0.930 . S
C270 C268 1.419 . S
C270 C271 1.362 . S
C271 H261 0.930 . S
C271 C264 1.409 . S
C271 C270 1.362 . S
H272 C278 0.930 . S
H273 C281 0.930 . S
H274 C282 0.930 . S
H275 C283 0.930 . S
H276 C286 0.930 . S
H277 C287 0.930 . S
C278 H272 0.930 . S
C278 C279 1.355 . S
C278 C280 1.415 . S
C279 C278 1.355 . S
C279 C281 1.419 . S
C280 C278 1.415 . S
C280 C285 1.425 . S
C280 C287 1.409 . S
C281 H273 0.930 . S
C281 C279 1.419 . S
C281 C282 1.362 . S
C282 H274 0.930 . S
C282 C281 1.362 . S
C282 C285 1.409 . S
C283 H275 0.930 . S
C283 C284 1.355 . S
C283 C285 1.415 . S
C284 C283 1.355 . S
C284 C286 1.419 . S
C285 C280 1.425 . S
C285 C282 1.409 . S
C285 C283 1.415 . S
C286 H276 0.930 . S
C286 C284 1.419 . S
C286 C287 1.362 . S
C287 H277 0.930 . S
C287 C280 1.409 . S
C287 C286 1.362 . S
H288 C294 0.930 . S
H289 C297 0.930 . S
H290 C298 0.930 . S
H291 C299 0.930 . S
H292 C302 0.930 . S
H293 C303 0.930 . S
C294 H288 0.930 . S
C294 C295 1.355 . S
C294 C296 1.415 . S
C295 C294 1.355 . S
C295 C297 1.419 . S
C296 C294 1.415 . S
C296 C301 1.425 . S
C296 C303 1.409 . S
C297 H289 0.930 . S
C297 C295 1.419 . S
C297 C298 1.362 . S
C298 H290 0.930 . S
C298 C297 1.362 . S
C298 C301 1.409 . S
C299 H291 0.930 . S
C299 C300 1.355 . S
C299 C301 1.415 . S
C300 C299 1.355 . S
C300 C302 1.419 . S
C301 C296 1.425 . S
C301 C298 1.409 . S
C301 C299 1.415 . S
C302 H292 0.930 . S
C302 C300 1.419 . S
C302 C303 1.362 . S
C303 H293 0.930 . S
C303 C296 1.409 . S
C303 C302 1.362 . S
H304 C310 0.930 . S
H305 C313 0.930 . S
H306 C314 0.930 . S
H307 C315 0.930 . S
H308 C318 0.930 . S
H309 C319 0.930 . S
C310 H304 0.930 . S
C310 C311 1.355 . S
C310 C312 1.415 . S
C311 C310 1.355 . S
C311 C313 1.419 . S
C312 C310 1.415 . S
C312 C317 1.425 . S
C312 C319 1.409 . S
C313 H305 0.930 . S
C313 C311 1.419 . S
C313 C314 1.362 . S
C314 H306 0.930 . S
C314 C313 1.362 . S
C314 C317 1.409 . S
C315 H307 0.930 . S
C315 C316 1.355 . S
C315 C317 1.415 . S
C316 C315 1.355 . S
C316 C318 1.419 . S
C317 C312 1.425 . S
C317 C314 1.409 . S
C317 C315 1.415 . S
C318 H308 0.930 . S
C318 C316 1.419 . S
C318 C319 1.362 . S
C319 H309 0.930 . S
C319 C312 1.409 . S
C319 C318 1.362 . S
H320 C326 0.930 . S
H321 C329 0.930 . S
H322 C330 0.930 . S
H323 C331 0.930 . S
H324 C334 0.930 . S
H325 C335 0.930 . S
C326 H320 0.930 . S
C326 C327 1.355 . S
C326 C328 1.415 . S
C327 C326 1.355 . S
C327 C329 1.419 . S
C328 C326 1.415 . S
C328 C333 1.425 . S
C328 C335 1.409 . S
C329 H321 0.930 . S
C329 C327 1.419 . S
C329 C330 1.362 . S
C330 H322 0.930 . S
C330 C329 1.362 . S
C330 C333 1.409 . S
C331 H323 0.930 . S
C331 C332 1.355 . S
C331 C333 1.415 . S
C332 C331 1.355 . S
C332 C334 1.419 . S
C333 C328 1.425 . S
C333 C330 1.409 . S
C333 C331 1.415 . S
C334 H324 0.930 . S
C334 C332 1.419 . S
C334 C335 1.362 . S
C335 H325 0.930 . S
C335 C328 1.409 . S
C335 C334 1.362 . S
H336 C342 0.930 . S
H337 C345 0.930 . S
H338 C346 0.930 . S
H339 C347 0.930 . S
H340 C350 0.930 . S
H341 C351 0.930 . S
C342 H336 0.930 . S
C342 C343 1.355 . S
C342 C344 1.398 1_556 S
C343 C342 1.355 . S
C343 C345 1.419 . S
C344 C342 1.398 1_554 S
C344 C349 1.425 1_554 S
C344 C351 1.426 . S
C345 H337 0.930 . S
C345 C343 1.419 . S
C345 C346 1.362 . S
C346 H338 0.930 . S
C346 C345 1.362 . S
C346 C349 1.426 . S
C347 H339 0.930 . S
C347 C348 1.355 . S
C347 C349 1.398 1_554 S
C348 C347 1.355 . S
C348 C350 1.419 . S
C349 C344 1.425 1_556 S
C349 C346 1.426 . S
C349 C347 1.398 1_556 S
C350 H340 0.930 . S
C350 C348 1.419 . S
C350 C351 1.362 . S
C351 H341 0.930 . S
C351 C344 1.426 . S
C351 C350 1.362 . S
H352 C358 0.930 . S
H353 C361 0.930 . S
H354 C362 0.930 . S
H355 C363 0.930 . S
H356 C366 0.930 . S
H357 C367 0.930 . S
C358 H352 0.930 . S
C358 C359 1.355 . S
C358 C360 1.415 . S
C359 C358 1.355 . S
C359 C361 1.419 . S
C360 C358 1.415 . S
C360 C365 1.425 . S
C360 C367 1.409 . S
C361 H353 0.930 . S
C361 C359 1.419 . S
C361 C362 1.362 . S
C362 H354 0.930 . S
C362 C361 1.362 . S
C362 C365 1.409 . S
C363 H355 0.930 . S
C363 C364 1.355 . S
C363 C365 1.415 . S
C364 C363 1.355 . S
C364 C366 1.419 . S
C365 C360 1.425 . S
C365 C362 1.409 . S
C365 C363 1.415 . S
C366 H356 0.930 . S
C366 C364 1.419 . S
C366 C367 1.362 . S
C367 H357 0.930 . S
C367 C360 1.409 . S
C367 C366 1.362 . S
H368 C374 0.930 . S
H369 C377 0.930 . S
H370 C378 0.930 . S
H371 C379 0.930 . S
H372 C382 0.930 . S
H373 C383 0.930 . S
C374 H368 0.930 . S
C374 C375 1.355 . S
C374 C376 1.415 . S
C375 C374 1.355 . S
C375 C377 1.419 . S
C376 C374 1.415 . S
C376 C381 1.425 . S
C376 C383 1.409 . S
C377 H369 0.930 . S
C377 C375 1.419 . S
C377 C378 1.362 . S
C378 H370 0.930 . S
C378 C377 1.362 . S
C378 C381 1.409 . S
C379 H371 0.930 . S
C379 C380 1.355 . S
C379 C381 1.415 . S
C380 C379 1.355 . S
C380 C382 1.419 . S
C381 C376 1.425 . S
C381 C378 1.409 . S
C381 C379 1.415 . S
C382 H372 0.930 . S
C382 C380 1.419 . S
C382 C383 1.362 . S
C383 H373 0.930 . S
C383 C376 1.409 . S
C383 C382 1.362 . S
H384 C390 0.930 . S
H385 C393 0.930 . S
H386 C394 0.930 . S
H387 C395 0.930 . S
H388 C398 0.930 . S
H389 C399 0.930 . S
C390 H384 0.930 . S
C390 C391 1.355 . S
C390 C392 1.415 . S
C391 C390 1.355 . S
C391 C393 1.419 . S
C392 C390 1.415 . S
C392 C397 1.425 1_556 S
C392 C399 1.409 1_556 S
C393 H385 0.930 . S
C393 C391 1.419 . S
C393 C394 1.362 . S
C394 H386 0.930 . S
C394 C393 1.362 . S
C394 C397 1.409 1_556 S
C395 H387 0.930 . S
C395 C396 1.355 . S
C395 C397 1.415 . S
C396 C395 1.355 . S
C396 C398 1.419 . S
C397 C392 1.425 1_554 S
C397 C394 1.409 1_554 S
C397 C395 1.415 . S
C398 H388 0.930 . S
C398 C396 1.419 . S
C398 C399 1.362 . S
C399 H389 0.930 . S
C399 C392 1.409 1_554 S
C399 C398 1.362 . S
H400 C406 0.930 . S
H401 C409 0.930 . S
H402 C410 0.930 . S
H403 C411 0.930 . S
H404 C414 0.930 . S
H405 C415 0.930 . S
C406 H400 0.930 . S
C406 C407 1.355 . S
C406 C408 1.415 . S
C407 C406 1.355 . S
C407 C409 1.419 . S
C408 C406 1.415 . S
C408 C413 1.425 . S
C408 C415 1.409 . S
C409 H401 0.930 . S
C409 C407 1.419 . S
C409 C410 1.362 . S
C410 H402 0.930 . S
C410 C409 1.362 . S
C410 C413 1.409 . S
C411 H403 0.930 . S
C411 C412 1.355 . S
C411 C413 1.415 . S
C412 C411 1.355 . S
C412 C414 1.419 . S
C413 C408 1.425 . S
C413 C410 1.409 . S
C413 C411 1.415 . S
C414 H404 0.930 . S
C414 C412 1.419 . S
C414 C415 1.362 . S
C415 H405 0.930 . S
C415 C408 1.409 . S
C415 C414 1.362 . S
H416 C422 0.930 . S
H417 C425 0.930 . S
H418 C426 0.930 . S
H419 C427 0.930 . S
H420 C430 0.930 . S
H421 C431 0.930 . S
C422 H416 0.930 . S
C422 C423 1.355 . S
C422 C424 1.415 . S
C423 C422 1.355 . S
C423 C425 1.419 . S
C424 C422 1.415 . S
C424 C429 1.425 . S
C424 C431 1.409 . S
C425 H417 0.930 . S
C425 C423 1.419 . S
C425 C426 1.362 . S
C426 H418 0.930 . S
C426 C425 1.362 . S
C426 C429 1.409 . S
C427 H419 0.930 . S
C427 C428 1.355 . S
C427 C429 1.415 . S
C428 C427 1.355 . S
C428 C430 1.419 . S
C429 C424 1.425 . S
C429 C426 1.409 . S
C429 C427 1.415 . S
C430 H420 0.930 . S
C430 C428 1.419 . S
C430 C431 1.362 . S
C431 H421 0.930 . S
C431 C424 1.409 . S
C431 C430 1.362 . S
H432 C438 0.930 . S
H433 C441 0.930 . S
H434 C442 0.930 1_545 S
H435 C443 0.930 . S
H436 C446 0.930 . S
H437 C447 0.930 1_565 S
C438 H432 0.930 . S
C438 C439 1.355 . S
C438 C440 1.415 . S
C439 C438 1.355 . S
C439 C441 1.419 . S
C440 C438 1.415 . S
C440 C445 1.425 1_566 S
C440 C447 1.409 1_566 S
C441 H433 0.930 . S
C441 C439 1.419 . S
C441 C442 1.362 . S
C442 H434 0.930 1_565 S
C442 C441 1.362 . S
C442 C445 1.409 1_566 S
C443 H435 0.930 . S
C443 C444 1.355 . S
C443 C445 1.415 . S
C444 C443 1.355 . S
C444 C446 1.419 . S
C445 C440 1.425 1_544 S
C445 C442 1.409 1_544 S
C445 C443 1.415 . S
C446 H436 0.930 . S
C446 C444 1.419 . S
C446 C447 1.362 . S
C447 H437 0.930 1_545 S
C447 C440 1.409 1_544 S
C447 C446 1.362 . S
H448 C454 0.930 . S
H449 C457 0.930 . S
H450 C458 0.930 . S
H451 C459 0.930 . S
H452 C462 0.930 . S
H453 C463 0.930 . S
C454 H448 0.930 . S
C454 C455 1.355 . S
C454 C456 1.415 . S
C455 C454 1.355 . S
C455 C457 1.419 . S
C456 C454 1.415 . S
C456 C461 1.425 . S
C456 C463 1.409 . S
C457 H449 0.930 . S
C457 C455 1.419 . S
C457 C458 1.362 . S
C458 H450 0.930 . S
C458 C457 1.362 . S
C458 C461 1.409 . S
C459 H451 0.930 . S
C459 C460 1.355 . S
C459 C461 1.415 . S
C460 C459 1.355 . S
C460 C462 1.419 . S
C461 C456 1.425 . S
C461 C458 1.409 . S
C461 C459 1.415 . S
C462 H452 0.930 . S
C462 C460 1.419 . S
C462 C463 1.362 . S
C463 H453 0.930 . S
C463 C456 1.409 . S
C463 C462 1.362 . S
H464 C470 0.930 . S
H465 C473 0.930 . S
H466 C474 0.930 1_655 S
H467 C475 0.930 . S
H468 C478 0.930 . S
H469 C479 0.930 1_455 S
C470 H464 0.930 . S
C470 C471 1.355 . S
C470 C472 1.415 . S
C471 C470 1.355 . S
C471 C473 1.419 . S
C472 C470 1.415 . S
C472 C477 1.425 1_455 S
C472 C479 1.409 1_455 S
C473 H465 0.930 . S
C473 C471 1.419 . S
C473 C474 1.362 . S
C474 H466 0.930 1_455 S
C474 C473 1.362 . S
C474 C477 1.409 1_455 S
C475 H467 0.930 . S
C475 C476 1.355 . S
C475 C477 1.415 . S
C476 C475 1.355 . S
C476 C478 1.419 . S
C477 C472 1.425 1_655 S
C477 C474 1.409 1_655 S
C477 C475 1.415 . S
C478 H468 0.930 . S
C478 C476 1.419 . S
C478 C479 1.362 . S
C479 H469 0.930 1_655 S
C479 C472 1.409 1_655 S
C479 C478 1.362 . S
H480 C486 0.930 1_545 S
H481 C489 0.930 . S
H482 C490 0.930 . S
H483 C491 0.930 1_565 S
H484 C494 0.930 . S
H485 C495 0.930 . S
C486 H480 0.930 1_565 S
C486 C487 1.355 . S
C486 C488 1.415 1_565 S
C487 C486 1.355 . S
C487 C489 1.419 . S
C488 C486 1.415 1_545 S
C488 C493 1.425 1_544 S
C488 C495 1.409 . S
C489 H481 0.930 . S
C489 C487 1.419 . S
C489 C490 1.362 1_554 S
C490 H482 0.930 . S
C490 C489 1.362 1_556 S
C490 C493 1.409 . S
C491 H483 0.930 1_545 S
C491 C492 1.355 . S
C491 C493 1.415 1_545 S
C492 C491 1.355 . S
C492 C494 1.419 . S
C493 C488 1.425 1_566 S
C493 C490 1.409 . S
C493 C491 1.415 1_565 S
C494 H484 0.930 . S
C494 C492 1.419 . S
C494 C495 1.362 1_556 S
C495 H485 0.930 . S
C495 C488 1.409 . S
C495 C494 1.362 1_554 S
H496 C502 0.930 . S
H497 C505 0.930 . S
H498 C506 0.930 . S
H499 C507 0.930 . S
H500 C510 0.930 . S
H501 C511 0.930 . S
C502 H496 0.930 . S
C502 C503 1.355 . S
C502 C504 1.415 . S
C503 C502 1.355 . S
C503 C505 1.419 . S
C504 C502 1.415 . S
C504 C509 1.425 . S
C504 C511 1.409 . S
C505 H497 0.930 . S
C505 C503 1.419 . S
C505 C506 1.362 . S
C506 H498 0.930 . S
C506 C505 1.362 . S
C506 C509 1.409 . S
C507 H499 0.930 . S
C507 C508 1.355 . S
C507 C509 1.415 . S
C508 C507 1.355 . S
C508 C510 1.419 . S
C509 C504 1.425 . S
C509 C506 1.409 . S
C509 C507 1.415 . S
C510 H500 0.930 . S
C510 C508 1.419 . S
C510 C511 1.362 . S
C511 H501 0.930 . S
C511 C504 1.409 . S
C511 C510 1.362 . S
H512 C518 0.930 . S
H513 C521 0.930 . S
H514 C522 0.930 . S
H515 C523 0.930 . S
H516 C526 0.930 . S
H517 C527 0.930 . S
C518 H512 0.930 . S
C518 C519 1.355 . S
C518 C520 1.415 . S
C519 C518 1.355 . S
C519 C521 1.419 . S
C520 C518 1.415 . S
C520 C525 1.425 1_455 S
C520 C527 1.409 1_455 S
C521 H513 0.930 . S
C521 C519 1.419 . S
C521 C522 1.362 . S
C522 H514 0.930 . S
C522 C521 1.362 . S
C522 C525 1.409 1_455 S
C523 H515 0.930 . S
C523 C524 1.355 . S
C523 C525 1.415 . S
C524 C523 1.355 . S
C524 C526 1.419 . S
C525 C520 1.425 1_655 S
C525 C522 1.409 1_655 S
C525 C523 1.415 . S
C526 H516 0.930 . S
C526 C524 1.419 . S
C526 C527 1.362 . S
C527 H517 0.930 . S
C527 C520 1.409 1_655 S
C527 C526 1.362 . S
H528 C534 0.930 . S
H529 C537 0.930 . S
H530 C538 0.930 . S
H531 C539 0.930 . S
H532 C542 0.930 . S
H533 C543 0.930 . S
C534 H528 0.930 . S
C534 C535 1.355 . S
C534 C536 1.415 1_545 S
C535 C534 1.355 . S
C535 C537 1.419 . S
C536 C534 1.415 1_565 S
C536 C541 1.425 1_565 S
C536 C543 1.409 . S
C537 H529 0.930 . S
C537 C535 1.419 . S
C537 C538 1.362 . S
C538 H530 0.930 . S
C538 C537 1.362 . S
C538 C541 1.409 . S
C539 H531 0.930 . S
C539 C540 1.355 . S
C539 C541 1.415 1_565 S
C540 C539 1.355 . S
C540 C542 1.419 . S
C541 C536 1.425 1_545 S
C541 C538 1.409 . S
C541 C539 1.415 1_545 S
C542 H532 0.930 . S
C542 C540 1.419 . S
C542 C543 1.362 . S
C543 H533 0.930 . S
C543 C536 1.409 . S
C543 C542 1.362 . S
H544 C550 0.930 . S
H545 C553 0.930 . S
H546 C554 0.930 . S
H547 C555 0.930 . S
H548 C558 0.930 . S
H549 C559 0.930 . S
C550 H544 0.930 . S
C550 C551 1.355 . S
C550 C552 1.415 . S
C551 C550 1.355 . S
C551 C553 1.419 . S
C552 C550 1.415 . S
C552 C557 1.425 . S
C552 C559 1.409 . S
C553 H545 0.930 . S
C553 C551 1.419 . S
C553 C554 1.362 . S
C554 H546 0.930 . S
C554 C553 1.362 . S
C554 C557 1.409 . S
C555 H547 0.930 . S
C555 C556 1.355 . S
C555 C557 1.415 . S
C556 C555 1.355 . S
C556 C558 1.419 . S
C557 C552 1.425 . S
C557 C554 1.409 . S
C557 C555 1.415 . S
C558 H548 0.930 . S
C558 C556 1.419 . S
C558 C559 1.362 . S
C559 H549 0.930 . S
C559 C552 1.409 . S
C559 C558 1.362 . S
H560 C566 0.930 . S
H561 C569 0.930 . S
H562 C570 0.930 . S
H563 C571 0.930 . S
H564 C574 0.930 . S
H565 C575 0.930 . S
C566 H560 0.930 . S
C566 C567 1.355 . S
C566 C568 1.415 1_655 S
C567 C566 1.355 . S
C567 C569 1.419 . S
C568 C566 1.415 1_455 S
C568 C573 1.425 1_455 S
C568 C575 1.409 . S
C569 H561 0.930 . S
C569 C567 1.419 . S
C569 C570 1.362 . S
C570 H562 0.930 . S
C570 C569 1.362 . S
C570 C573 1.409 . S
C571 H563 0.930 . S
C571 C572 1.355 . S
C571 C573 1.415 1_455 S
C572 C571 1.355 . S
C572 C574 1.419 . S
C573 C568 1.425 1_655 S
C573 C570 1.409 . S
C573 C571 1.415 1_655 S
C574 H564 0.930 . S
C574 C572 1.419 . S
C574 C575 1.362 . S
C575 H565 0.930 . S
C575 C568 1.409 . S
C575 C574 1.362 . S
H576 C582 0.930 . S
H577 C585 0.930 . S
H578 C586 0.930 . S
H579 C587 0.930 . S
H580 C590 0.930 . S
H581 C591 0.930 . S
C582 H576 0.930 . S
C582 C583 1.355 . S
C582 C584 1.415 . S
C583 C582 1.355 . S
C583 C585 1.419 . S
C584 C582 1.415 . S
C584 C589 1.425 1_455 S
C584 C591 1.409 . S
C585 H577 0.930 . S
C585 C583 1.419 . S
C585 C586 1.362 1_455 S
C586 H578 0.930 . S
C586 C585 1.362 1_655 S
C586 C589 1.409 . S
C587 H579 0.930 . S
C587 C588 1.355 . S
C587 C589 1.415 . S
C588 C587 1.355 . S
C588 C590 1.419 . S
C589 C584 1.425 1_655 S
C589 C586 1.409 . S
C589 C587 1.415 . S
C590 H580 0.930 . S
C590 C588 1.419 . S
C590 C591 1.362 1_655 S
C591 H581 0.930 . S
C591 C584 1.409 . S
C591 C590 1.362 1_455 S
H592 C598 0.930 . S
H593 C601 0.930 . S
H594 C602 0.930 . S
H595 C603 0.930 . S
H596 C606 0.930 . S
H597 C607 0.930 . S
C598 H592 0.930 . S
C598 C599 1.355 . S
C598 C600 1.415 1_565 S
C599 C598 1.355 . S
C599 C601 1.419 . S
C600 C598 1.415 1_545 S
C600 C605 1.425 1_545 S
C600 C607 1.409 . S
C601 H593 0.930 . S
C601 C599 1.419 . S
C601 C602 1.362 . S
C602 H594 0.930 . S
C602 C601 1.362 . S
C602 C605 1.409 . S
C603 H595 0.930 . S
C603 C604 1.355 . S
C603 C605 1.415 1_545 S
C604 C603 1.355 . S
C604 C606 1.419 . S
C605 C600 1.425 1_565 S
C605 C602 1.409 . S
C605 C603 1.415 1_565 S
C606 H596 0.930 . S
C606 C604 1.419 . S
C606 C607 1.362 . S
C607 H597 0.930 . S
C607 C600 1.409 . S
C607 C606 1.362 . S
H608 C614 0.930 . S
H609 C617 0.930 1_556 S
H610 C618 0.930 1_556 S
H611 C619 0.930 . S
H612 C622 0.930 . S
H613 C623 0.930 . S
C614 H608 0.930 . S
C614 C615 1.355 . S
C614 C616 1.415 . S
C615 C614 1.355 . S
C615 C617 1.419 . S
C616 C614 1.415 . S
C616 C621 1.425 . S
C616 C623 1.409 . S
C617 H609 0.930 1_554 S
C617 C615 1.419 . S
C617 C618 1.362 . S
C618 H610 0.930 1_554 S
C618 C617 1.362 . S
C618 C621 1.409 . S
C619 H611 0.930 . S
C619 C620 1.355 . S
C619 C621 1.415 . S
C620 C619 1.355 . S
C620 C622 1.419 . S
C621 C616 1.425 . S
C621 C618 1.409 . S
C621 C619 1.415 . S
C622 H612 0.930 . S
C622 C620 1.419 . S
C622 C623 1.362 . S
C623 H613 0.930 . S
C623 C616 1.409 . S
C623 C622 1.362 . S
H624 C630 0.930 . S
H625 C633 0.930 . S
H626 C634 0.931 1_545 S
H627 C635 0.930 . S
H628 C638 0.930 . S
H629 C639 0.931 1_565 S
C630 H624 0.930 . S
C630 C631 1.355 . S
C630 C632 1.415 . S
C631 C630 1.355 . S
C631 C633 1.419 . S
C632 C630 1.415 . S
C632 C637 1.425 1_565 S
C632 C639 1.406 1_565 S
C633 H625 0.930 . S
C633 C631 1.419 . S
C633 C634 1.366 . S
C634 H626 0.931 1_565 S
C634 C633 1.366 . S
C634 C637 1.404 1_565 S
C635 H627 0.930 . S
C635 C636 1.355 . S
C635 C637 1.415 . S
C636 C635 1.355 . S
C636 C638 1.419 . S
C637 C632 1.425 1_545 S
C637 C634 1.404 1_545 S
C637 C635 1.415 . S
C638 H628 0.930 . S
C638 C636 1.419 . S
C638 C639 1.365 . S
C639 H629 0.931 1_545 S
C639 C632 1.406 1_545 S
C639 C638 1.365 . S
H640 C646 0.930 . S
H641 C649 0.930 . S
H642 C650 0.930 . S
H643 C651 0.930 . S
H644 C654 0.930 . S
H645 C655 0.930 . S
C646 H640 0.930 . S
C646 C647 1.355 . S
C646 C648 1.415 . S
C647 C646 1.355 . S
C647 C649 1.419 . S
C648 C646 1.415 . S
C648 C653 1.425 . S
C648 C655 1.409 . S
C649 H641 0.930 . S
C649 C647 1.419 . S
C649 C650 1.362 . S
C650 H642 0.930 . S
C650 C649 1.362 . S
C650 C653 1.409 . S
C651 H643 0.930 . S
C651 C652 1.355 . S
C651 C653 1.415 . S
C652 C651 1.355 . S
C652 C654 1.419 . S
C653 C648 1.425 . S
C653 C650 1.409 . S
C653 C651 1.415 . S
C654 H644 0.930 . S
C654 C652 1.419 . S
C654 C655 1.362 . S
C655 H645 0.930 . S
C655 C648 1.409 . S
C655 C654 1.362 . S
H656 C662 0.930 . S
H657 C665 0.936 . S
H658 C666 0.930 . S
H659 C667 0.930 . S
H660 C670 0.937 . S
H661 C671 0.930 . S
C662 H656 0.930 . S
C662 C663 1.355 . S
C662 C664 1.415 . S
C663 C662 1.355 . S
C663 C665 1.398 1_655 S
C664 C662 1.415 . S
C664 C669 1.425 1_655 S
C664 C671 1.409 . S
C665 H657 0.936 . S
C665 C663 1.398 1_455 S
C665 C666 1.378 . S
C666 H658 0.930 . S
C666 C665 1.378 . S
C666 C669 1.409 . S
C667 H659 0.930 . S
C667 C668 1.355 . S
C667 C669 1.415 . S
C668 C667 1.355 . S
C668 C670 1.395 1_455 S
C669 C664 1.425 1_455 S
C669 C666 1.409 . S
C669 C667 1.415 . S
C670 H660 0.937 . S
C670 C668 1.395 1_655 S
C670 C671 1.380 . S
C671 H661 0.930 . S
C671 C664 1.409 . S
C671 C670 1.380 . S
H672 C678 0.930 . S
H673 C681 0.930 . S
H674 C682 0.930 . S
H675 C683 0.930 . S
H676 C686 0.930 . S
H677 C687 0.930 . S
C678 H672 0.930 . S
C678 C679 1.355 . S
C678 C680 1.415 1_545 S
C679 C678 1.355 . S
C679 C681 1.419 . S
C680 C678 1.415 1_565 S
C680 C685 1.425 1_565 S
C680 C687 1.409 . S
C681 H673 0.930 . S
C681 C679 1.419 . S
C681 C682 1.362 . S
C682 H674 0.930 . S
C682 C681 1.362 . S
C682 C685 1.409 . S
C683 H675 0.930 . S
C683 C684 1.355 . S
C683 C685 1.415 1_565 S
C684 C683 1.355 . S
C684 C686 1.419 . S
C685 C680 1.425 1_545 S
C685 C682 1.409 . S
C685 C683 1.415 1_545 S
C686 H676 0.930 . S
C686 C684 1.419 . S
C686 C687 1.362 . S
C687 H677 0.930 . S
C687 C680 1.409 . S
C687 C686 1.362 . S
H688 C694 0.930 . S
H689 C697 0.930 . S
H690 C698 0.930 . S
H691 C699 0.930 . S
H692 C702 0.930 . S
H693 C703 0.930 . S
C694 H688 0.930 . S
C694 C695 1.355 . S
C694 C696 1.415 . S
C695 C694 1.355 . S
C695 C697 1.419 . S
C696 C694 1.415 . S
C696 C701 1.425 . S
C696 C703 1.409 . S
C697 H689 0.930 . S
C697 C695 1.419 . S
C697 C698 1.362 . S
C698 H690 0.930 . S
C698 C697 1.362 . S
C698 C701 1.409 . S
C699 H691 0.930 . S
C699 C700 1.355 . S
C699 C701 1.415 . S
C700 C699 1.355 . S
C700 C702 1.419 . S
C701 C696 1.425 . S
C701 C698 1.409 . S
C701 C699 1.415 . S
C702 H692 0.930 . S
C702 C700 1.419 . S
C702 C703 1.362 . S
C703 H693 0.930 . S
C703 C696 1.409 . S
C703 C702 1.362 . S
H704 C710 0.930 . S
H705 C713 0.930 . S
H706 C714 0.930 . S
H707 C715 0.930 . S
H708 C718 0.930 . S
H709 C719 0.930 . S
C710 H704 0.930 . S
C710 C711 1.355 . S
C710 C712 1.415 . S
C711 C710 1.355 . S
C711 C713 1.419 . S
C712 C710 1.415 . S
C712 C717 1.425 1_455 S
C712 C719 1.409 . S
C713 H705 0.930 . S
C713 C711 1.419 . S
C713 C714 1.362 1_455 S
C714 H706 0.930 . S
C714 C713 1.362 1_655 S
C714 C717 1.409 . S
C715 H707 0.930 . S
C715 C716 1.355 . S
C715 C717 1.415 . S
C716 C715 1.355 . S
C716 C718 1.419 . S
C717 C712 1.425 1_655 S
C717 C714 1.409 . S
C717 C715 1.415 . S
C718 H708 0.930 . S
C718 C716 1.419 . S
C718 C719 1.362 1_655 S
C719 H709 0.930 . S
C719 C712 1.409 . S
C719 C718 1.362 1_455 S
H720 C726 0.930 . S
H721 C729 0.930 . S
H722 C730 0.930 . S
H723 C731 0.930 . S
H724 C734 0.930 . S
H725 C735 0.930 . S
C726 H720 0.930 . S
C726 C727 1.355 . S
C726 C728 1.415 . S
C727 C726 1.355 . S
C727 C729 1.419 . S
C728 C726 1.415 . S
C728 C733 1.425 . S
C728 C735 1.409 . S
C729 H721 0.930 . S
C729 C727 1.419 . S
C729 C730 1.362 . S
C730 H722 0.930 . S
C730 C729 1.362 . S
C730 C733 1.409 . S
C731 H723 0.930 . S
C731 C732 1.355 . S
C731 C733 1.415 . S
C732 C731 1.355 . S
C732 C734 1.419 . S
C733 C728 1.425 . S
C733 C730 1.409 . S
C733 C731 1.415 . S
C734 H724 0.930 . S
C734 C732 1.419 . S
C734 C735 1.362 . S
C735 H725 0.930 . S
C735 C728 1.409 . S
C735 C734 1.362 . S
H736 C742 0.930 . S
H737 C745 0.930 . S
H738 C746 0.930 . S
H739 C747 0.930 . S
H740 C750 0.930 . S
H741 C751 0.930 . S
C742 H736 0.930 . S
C742 C743 1.355 . S
C742 C744 1.415 . S
C743 C742 1.355 . S
C743 C745 1.419 . S
C744 C742 1.415 . S
C744 C749 1.425 . S
C744 C751 1.409 . S
C745 H737 0.930 . S
C745 C743 1.419 . S
C745 C746 1.362 . S
C746 H738 0.930 . S
C746 C745 1.362 . S
C746 C749 1.409 . S
C747 H739 0.930 . S
C747 C748 1.355 . S
C747 C749 1.415 . S
C748 C747 1.355 . S
C748 C750 1.419 . S
C749 C744 1.425 . S
C749 C746 1.409 . S
C749 C747 1.415 . S
C750 H740 0.930 . S
C750 C748 1.419 . S
C750 C751 1.362 . S
C751 H741 0.930 . S
C751 C744 1.409 . S
C751 C750 1.362 . S
H752 C758 0.930 . S
H753 C761 0.930 . S
H754 C762 0.930 . S
H755 C763 0.930 . S
H756 C766 0.930 . S
H757 C767 0.930 . S
C758 H752 0.930 . S
C758 C759 1.355 . S
C758 C760 1.415 . S
C759 C758 1.355 . S
C759 C761 1.419 . S
C760 C758 1.415 . S
C760 C765 1.425 . S
C760 C767 1.409 . S
C761 H753 0.930 . S
C761 C759 1.419 . S
C761 C762 1.362 . S
C762 H754 0.930 . S
C762 C761 1.362 . S
C762 C765 1.409 . S
C763 H755 0.930 . S
C763 C764 1.355 . S
C763 C765 1.415 . S
C764 C763 1.355 . S
C764 C766 1.419 . S
C765 C760 1.425 . S
C765 C762 1.409 . S
C765 C763 1.415 . S
C766 H756 0.930 . S
C766 C764 1.419 . S
C766 C767 1.362 . S
C767 H757 0.930 . S
C767 C760 1.409 . S
C767 C766 1.362 . S
H768 C774 0.930 . S
H769 C777 0.930 . S
H770 C778 0.930 . S
H771 C779 0.930 . S
H772 C782 0.930 . S
H773 C783 0.930 . S
C774 H768 0.930 . S
C774 C775 1.355 . S
C774 C776 1.415 . S
C775 C774 1.355 . S
C775 C777 1.419 . S
C776 C774 1.415 . S
C776 C781 1.425 . S
C776 C783 1.409 . S
C777 H769 0.930 . S
C777 C775 1.419 . S
C777 C778 1.362 . S
C778 H770 0.930 . S
C778 C777 1.362 . S
C778 C781 1.409 . S
C779 H771 0.930 . S
C779 C780 1.355 . S
C779 C781 1.415 . S
C780 C779 1.355 . S
C780 C782 1.419 . S
C781 C776 1.425 . S
C781 C778 1.409 . S
C781 C779 1.415 . S
C782 H772 0.930 . S
C782 C780 1.419 . S
C782 C783 1.362 . S
C783 H773 0.930 . S
C783 C776 1.409 . S
C783 C782 1.362 . S
H784 C790 0.930 . S
H785 C793 0.930 . S
H786 C794 0.930 . S
H787 C795 0.930 . S
H788 C798 0.930 . S
H789 C799 0.930 . S
C790 H784 0.930 . S
C790 C791 1.355 . S
C790 C792 1.415 . S
C791 C790 1.355 . S
C791 C793 1.419 . S
C792 C790 1.415 . S
C792 C797 1.425 . S
C792 C799 1.409 . S
C793 H785 0.930 . S
C793 C791 1.419 . S
C793 C794 1.362 . S
C794 H786 0.930 . S
C794 C793 1.362 . S
C794 C797 1.409 . S
C795 H787 0.930 . S
C795 C796 1.355 . S
C795 C797 1.415 . S
C796 C795 1.355 . S
C796 C798 1.419 . S
C797 C792 1.425 . S
C797 C794 1.409 . S
C797 C795 1.415 . S
C798 H788 0.930 . S
C798 C796 1.419 . S
C798 C799 1.362 . S
C799 H789 0.930 . S
C799 C792 1.409 . S
C799 C798 1.362 . S
H800 C806 0.930 . S
H801 C809 0.930 . S
H802 C810 0.930 . S
H803 C811 0.930 . S
H804 C814 0.930 . S
H805 C815 0.930 . S
C806 H800 0.930 . S
C806 C807 1.355 . S
C806 C808 1.415 . S
C807 C806 1.355 . S
C807 C809 1.419 . S
C808 C806 1.415 . S
C808 C813 1.425 . S
C808 C815 1.409 . S
C809 H801 0.930 . S
C809 C807 1.419 . S
C809 C810 1.362 . S
C810 H802 0.930 . S
C810 C809 1.362 . S
C810 C813 1.409 . S
C811 H803 0.930 . S
C811 C812 1.355 . S
C811 C813 1.415 . S
C812 C811 1.355 . S
C812 C814 1.419 . S
C813 C808 1.425 . S
C813 C810 1.409 . S
C813 C811 1.415 . S
C814 H804 0.930 . S
C814 C812 1.419 . S
C814 C815 1.362 . S
C815 H805 0.930 . S
C815 C808 1.409 . S
C815 C814 1.362 . S
C247 C18 1.110 . S
C252 C178 1.112 . S
C263 C38 1.156 . S
C268 C198 1.145 . S
C279 C58 1.134 . S
C284 C218 1.098 . S
C295 C238 1.102 . S
C300 C78 1.124 . S
C311 C98 1.141 . S
C316 C138 1.159 . S
C327 C158 1.140 . S
C332 C118 1.097 . S
C343 C209 0.903 . S
C348 C9 0.992 . S
C359 C229 0.984 . S
C364 C29 0.884 . S
C375 C49 0.901 . S
C380 C129 0.991 . S
C391 C149 0.981 . S
C396 C69 0.881 . S
C407 C169 0.969 . S
C412 C89 0.972 . S
C423 C109 0.968 . S
C428 C189 0.869 . S
C439 C142 1.429 . S
C444 C2 1.519 . S
C455 C162 1.422 . S
C460 C22 1.473 . S
C471 C182 1.428 . S
C476 C42 1.519 . S
C487 C62 1.410 . S
C492 C202 1.495 . S
C503 C82 1.444 . S
C508 C222 1.446 . S
C519 C102 1.419 . S
C524 C122 1.520 . S
C535 C19 0.585 . S
C540 C79 0.519 . S
C551 C39 0.520 . S
C556 C99 0.559 . S
C567 C59 0.609 . S
C572 C119 0.484 . S
C583 C199 0.584 . S
C588 C139 0.496 . S
C599 C159 0.587 . S
C604 C219 0.517 . S
C615 C239 0.615 . S
C620 C179 0.468 . S
C631 C152 1.296 . S
C636 C12 1.404 . S
C647 C172 1.299 . S
C652 C32 1.397 . S
C663 C52 1.343 . S
C668 C192 1.371 . S
C679 C212 1.315 . S
C684 C72 1.378 . S
C695 C232 1.302 . S
C700 C92 1.393 . S
C711 C112 1.305 . S
C716 C132 1.401 . S
C727 C4 1.589 . S
C732 C204 1.582 . S
C743 C24 1.605 . S
C748 C224 1.664 . S
C759 C44 1.571 . S
C764 C124 1.633 . S
C775 C64 1.652 . S
C780 C144 1.582 . S
C791 C84 1.570 . S
C796 C164 1.618 . S
C807 C184 1.662 . S
C812 C104 1.630 . S
