# Generated by pormake.
# Topology dia, (4)-cn, num edge types: 1
# Building blocks:
#     Node 0, Type 0, BuildingBlock: TATPOV_clean_sbu_0, # of connection points: 4
#     Node 1, Type 0, BuildingBlock: TATPOV_clean_sbu_0, # of connection points: 4
#     Node 2, Type 0, BuildingBlock: TATPOV_clean_sbu_0, # of connection points: 4
#     Node 3, Type 0, BuildingBlock: TATPOV_clean_sbu_0, # of connection points: 4
#     Node 4, Type 0, BuildingBlock: TATPOV_clean_sbu_0, # of connection points: 4
#     Node 5, Type 0, BuildingBlock: TATPOV_clean_sbu_0, # of connection points: 4
#     Node 6, Type 0, BuildingBlock: TATPOV_clean_sbu_0, # of connection points: 4
#     Node 7, Type 0, BuildingBlock: TATPOV_clean_sbu_0, # of connection points: 4
#     Edge 8, Type (0, 0), BuildingBlock: MIFKUJ_clean_linker_0, # of connection points: 2
#     Edge 9, Type (0, 0), BuildingBlock: MIFKUJ_clean_linker_0, # of connection points: 2
#     Edge 10, Type (0, 0), BuildingBlock: MIFKUJ_clean_linker_0, # of connection points: 2
#     Edge 11, Type (0, 0), BuildingBlock: MIFKUJ_clean_linker_0, # of connection points: 2
#     Edge 12, Type (0, 0), BuildingBlock: MIFKUJ_clean_linker_0, # of connection points: 2
#     Edge 13, Type (0, 0), BuildingBlock: MIFKUJ_clean_linker_0, # of connection points: 2
#     Edge 14, Type (0, 0), BuildingBlock: MIFKUJ_clean_linker_0, # of connection points: 2
#     Edge 15, Type (0, 0), BuildingBlock: MIFKUJ_clean_linker_0, # of connection points: 2
#     Edge 16, Type (0, 0), BuildingBlock: MIFKUJ_clean_linker_0, # of connection points: 2
#     Edge 17, Type (0, 0), BuildingBlock: MIFKUJ_clean_linker_0, # of connection points: 2
#     Edge 18, Type (0, 0), BuildingBlock: MIFKUJ_clean_linker_0, # of connection points: 2
#     Edge 19, Type (0, 0), BuildingBlock: MIFKUJ_clean_linker_0, # of connection points: 2
#     Edge 20, Type (0, 0), BuildingBlock: MIFKUJ_clean_linker_0, # of connection points: 2
#     Edge 21, Type (0, 0), BuildingBlock: MIFKUJ_clean_linker_0, # of connection points: 2
#     Edge 22, Type (0, 0), BuildingBlock: MIFKUJ_clean_linker_0, # of connection points: 2
#     Edge 23, Type (0, 0), BuildingBlock: MIFKUJ_clean_linker_0, # of connection points: 2
# Relax obj value: 0.006
# Max RMSD: 0.039
# Mean RMSD: 0.039
data_MOF--net-dia--node1-TATPOV_clean_sbu_0--edge1-MIFKUJ_clean_linker_0
_symmetry_space_group_name_H-M    P1
_symmetry_Int_Tables_number       1
_symmetry_cell_setting            triclinic
loop_
_symmetry_equiv_pos_as_xyz
'x, y, z'
_cell_length_a     41.64967
_cell_length_b     47.182698
_cell_length_c     47.232048
_cell_angle_alpha  91.502604
_cell_angle_beta   94.113652
_cell_angle_gamma 94.262411
loop_
_atom_site_label
_atom_site_type_symbol
_atom_site_fract_x
_atom_site_fract_y
_atom_site_fract_z
_atom_type_partial_charge
Zn0 Zn 0.15862 0.11997 0.62104 0.0
Zn1 Zn 0.13229 0.14893 0.65091 0.0
O2 O 0.15153 0.11913 0.67794 0.0
O3 O 0.15276 0.08602 0.6447 0.0
O4 O 0.10915 0.17546 0.67591 0.0
O5 O 0.20073 0.143 0.62409 0.0
O6 O 0.16772 0.17544 0.63348 0.0
C7 C 0.15468 0.0933 0.67069 0.0
C8 C 0.10022 0.12379 0.5951 0.0
O9 O 0.09665 0.13051 0.621 0.0
O10 O 0.12839 0.1232 0.58697 0.0
C11 C 0.0837 0.16724 0.68774 0.0
O12 O 0.07204 0.14066 0.68388 0.0
C13 C 0.19528 0.16889 0.62626 0.0
Zn14 Zn 0.83749 0.40534 0.9324 0.0
Zn15 Zn 0.8722 0.37683 0.89931 0.0
O16 O 0.85032 0.34684 0.92501 0.0
O17 O 0.82589 0.37227 0.95547 0.0
O18 O 0.89728 0.35212 0.87402 0.0
O19 O 0.8081 0.41528 0.89954 0.0
O20 O 0.84048 0.39576 0.87112 0.0
C21 C 0.83374 0.34843 0.94665 0.0
C22 C 0.90315 0.42723 0.93697 0.0
O23 O 0.90645 0.4064 0.91985 0.0
O24 O 0.87557 0.43154 0.94502 0.0
C25 C 0.92135 0.36113 0.86071 0.0
O26 O 0.93134 0.38822 0.86306 0.0
C27 C 0.81582 0.40962 0.87472 0.0
Zn28 Zn 0.62131 0.07758 0.08783 0.0
Zn29 Zn 0.59934 0.11278 0.1234 0.0
O30 O 0.63056 0.08946 0.14852 0.0
O31 O 0.65125 0.06244 0.11692 0.0
O32 O 0.58145 0.13961 0.15192 0.0
O33 O 0.63704 0.10905 0.06387 0.0
O34 O 0.62403 0.13936 0.0966 0.0
C35 C 0.64991 0.07079 0.1424 0.0
C36 C 0.55444 0.06784 0.08788 0.0
O37 O 0.55798 0.09019 0.10398 0.0
O38 O 0.57874 0.057 0.0789 0.0
C39 C 0.55773 0.15414 0.14489 0.0
O40 O 0.54503 0.152 0.11857 0.0
C41 C 0.63683 0.13433 0.07339 0.0
Zn42 Zn 0.84863 0.90663 0.39749 0.0
Zn43 Zn 0.88605 0.88275 0.36812 0.0
O44 O 0.85672 0.85046 0.38517 0.0
O45 O 0.81682 0.87367 0.39961 0.0
O46 O 0.91573 0.86099 0.34423 0.0
O47 O 0.84031 0.9362 0.36963 0.0
O48 O 0.86295 0.90905 0.3395 0.0
C49 C 0.82903 0.85041 0.39518 0.0
C50 C 0.91067 0.91603 0.42277 0.0
O51 O 0.91682 0.90607 0.39851 0.0
O52 O 0.88181 0.91555 0.42946 0.0
C53 C 0.90437 0.83936 0.329 0.0
O54 O 0.87336 0.83171 0.32866 0.0
C55 C 0.84744 0.93076 0.34463 0.0
Zn56 Zn 0.20602 0.63218 0.11079 0.0
Zn57 Zn 0.16102 0.6548 0.13685 0.0
O58 O 0.18094 0.62705 0.16594 0.0
O59 O 0.21887 0.60867 0.14276 0.0
O60 O 0.13022 0.67634 0.15958 0.0
O61 O 0.23167 0.6682 0.10566 0.0
O62 O 0.19016 0.68813 0.12162 0.0
C63 C 0.2036 0.6103 0.1648 0.0
C64 C 0.14262 0.61869 0.08308 0.0
O65 O 0.13351 0.63262 0.10423 0.0
O66 O 0.1724 0.61635 0.08063 0.0
C67 C 0.10126 0.66796 0.16387 0.0
O68 O 0.08906 0.64323 0.15299 0.0
C69 C 0.21753 0.69025 0.11097 0.0
Zn70 Zn 0.31428 0.38298 0.39754 0.0
Zn71 Zn 0.35488 0.35851 0.36707 0.0
O72 O 0.3372 0.32644 0.39277 0.0
O73 O 0.30118 0.34754 0.41605 0.0
O74 O 0.38232 0.33777 0.34043 0.0
O75 O 0.2868 0.3949 0.36506 0.0
O76 O 0.32248 0.37731 0.33867 0.0
C77 C 0.31561 0.32565 0.41068 0.0
C78 C 0.37973 0.407 0.40856 0.0
O79 O 0.38589 0.38824 0.39015 0.0
O80 O 0.351 0.40905 0.41503 0.0
C81 C 0.40727 0.32523 0.34849 0.0
O82 O 0.41693 0.32602 0.37562 0.0
C83 C 0.29686 0.39027 0.34093 0.0
Zn84 Zn 0.31226 0.87634 0.84862 0.0
Zn85 Zn 0.36489 0.85489 0.83624 0.0
O86 O 0.34029 0.8247 0.86005 0.0
O87 O 0.29497 0.8433 0.86875 0.0
O88 O 0.40163 0.83386 0.8212 0.0
O89 O 0.29538 0.8813 0.80931 0.0
O90 O 0.34393 0.87107 0.79903 0.0
C91 C 0.31324 0.82321 0.87127 0.0
C92 C 0.37036 0.90714 0.87479 0.0
O93 O 0.38479 0.88728 0.86342 0.0
O94 O 0.34003 0.9078 0.87054 0.0
C95 C 0.39489 0.80845 0.81162 0.0
O96 O 0.36531 0.79699 0.81283 0.0
C97 C 0.3162 0.87929 0.79141 0.0
Zn98 Zn 0.69338 0.59244 0.59633 0.0
Zn99 Zn 0.65261 0.62232 0.62179 0.0
O100 O 0.67548 0.60005 0.65412 0.0
O101 O 0.71009 0.57611 0.63196 0.0
O102 O 0.62401 0.64753 0.64299 0.0
O103 O 0.7169 0.62613 0.58156 0.0
O104 O 0.68075 0.65153 0.59983 0.0
C105 C 0.6977 0.58277 0.65461 0.0
C106 C 0.62746 0.5775 0.57611 0.0
O107 O 0.62145 0.59627 0.59457 0.0
O108 O 0.65634 0.57223 0.57282 0.0
C109 C 0.60099 0.63736 0.65689 0.0
O110 O 0.59504 0.60962 0.65719 0.0
C111 C 0.70539 0.64983 0.58542 0.0
H112 H 0.25835 0.30749 0.42939 0.0
H113 H 0.25012 0.27735 0.46972 0.0
H114 H 0.35001 0.25849 0.4731 0.0
H115 H 0.35856 0.28906 0.43239 0.0
H116 H 0.29254 0.2111 0.48625 0.0
H117 H 0.34711 0.30257 0.51475 0.0
H118 H 0.35619 0.35456 0.51125 0.0
H119 H 0.2589 0.36455 0.53208 0.0
H120 H 0.24908 0.31254 0.53518 0.0
H121 H 0.25929 0.16438 0.62092 0.0
H122 H 0.29259 0.19106 0.58874 0.0
H123 H 0.21629 0.24667 0.57181 0.0
H124 H 0.183 0.22033 0.60434 0.0
H125 H 0.27576 0.27449 0.56871 0.0
H126 H 0.218 0.18621 0.53265 0.0
H127 H 0.20377 0.13454 0.53293 0.0
H128 H 0.30279 0.11859 0.52406 0.0
H129 H 0.31767 0.17025 0.52416 0.0
C130 C 0.27832 0.29615 0.43806 0.0
C131 C 0.30915 0.30075 0.42805 0.0
C132 C 0.27359 0.27901 0.4611 0.0
C133 C 0.2996 0.26624 0.47453 0.0
C134 C 0.32973 0.26834 0.4629 0.0
C135 C 0.33452 0.28561 0.43962 0.0
C136 C 0.29554 0.25422 0.50265 0.0
C137 C 0.28991 0.22478 0.50463 0.0
C138 C 0.29132 0.27232 0.52624 0.0
C139 C 0.29732 0.30365 0.52501 0.0
C140 C 0.32759 0.31584 0.51837 0.0
C141 C 0.33288 0.34531 0.51648 0.0
C142 C 0.30812 0.36285 0.52139 0.0
C143 C 0.27806 0.35094 0.52828 0.0
C144 C 0.27263 0.32147 0.53014 0.0
C145 C 0.25004 0.18291 0.61109 0.0
C146 C 0.21832 0.18999 0.61467 0.0
C147 C 0.26907 0.19805 0.59266 0.0
C148 C 0.25651 0.22027 0.57733 0.0
C149 C 0.2263 0.22941 0.58332 0.0
C150 C 0.20731 0.21439 0.60197 0.0
C151 C 0.27243 0.23126 0.55238 0.0
C152 C 0.27977 0.26061 0.55084 0.0
C153 C 0.27797 0.21305 0.52912 0.0
C154 C 0.26901 0.18204 0.52878 0.0
C155 C 0.23676 0.17168 0.53097 0.0
C156 C 0.22858 0.14241 0.53104 0.0
C157 C 0.25238 0.12329 0.52861 0.0
C158 C 0.2844 0.13343 0.52601 0.0
C159 C 0.29272 0.16269 0.52601 0.0
H160 H 0.246 0.10064 0.52866 0.0
H161 H 0.31226 0.38566 0.51991 0.0
H162 H 0.75331 0.55734 0.66499 0.0
H163 H 0.7672 0.52685 0.704 0.0
H164 H 0.67964 0.54444 0.74242 0.0
H165 H 0.66541 0.57546 0.70307 0.0
H166 H 0.73466 0.54262 0.78163 0.0
H167 H 0.67864 0.48486 0.70651 0.0
H168 H 0.66652 0.46737 0.65697 0.0
H169 H 0.76177 0.4385 0.6555 0.0
H170 H 0.77465 0.45623 0.7049 0.0
H171 H 0.75634 0.42996 0.87414 0.0
H172 H 0.73026 0.45732 0.8372 0.0
H173 H 0.80839 0.44511 0.78399 0.0
H174 H 0.83448 0.41718 0.82079 0.0
H175 H 0.75053 0.4428 0.75326 0.0
H176 H 0.80853 0.50499 0.82555 0.0
H177 H 0.82228 0.52354 0.87457 0.0
H178 H 0.72446 0.54464 0.88092 0.0
H179 H 0.71004 0.52586 0.83203 0.0
C180 C 0.7371 0.55507 0.68187 0.0
C181 C 0.70802 0.56848 0.68079 0.0
C182 C 0.74506 0.53755 0.7041 0.0
C183 C 0.72405 0.53289 0.72564 0.0
C184 C 0.69598 0.54764 0.72575 0.0
C185 C 0.68796 0.56538 0.70338 0.0
C186 C 0.73124 0.51159 0.74713 0.0
C187 C 0.73745 0.52064 0.77559 0.0
C188 C 0.73544 0.48307 0.73901 0.0
C189 C 0.72767 0.47205 0.70938 0.0
C190 C 0.69708 0.47496 0.69557 0.0
C191 C 0.69007 0.46498 0.66752 0.0
C192 C 0.71338 0.45187 0.65308 0.0
C193 C 0.74374 0.44866 0.6667 0.0
C194 C 0.75089 0.45864 0.69475 0.0
C195 C 0.76776 0.43269 0.8544 0.0
C196 C 0.79771 0.42175 0.8505 0.0
C197 C 0.75284 0.44841 0.83336 0.0
C198 C 0.76778 0.4538 0.80819 0.0
C199 C 0.79659 0.44133 0.8034 0.0
C200 C 0.81145 0.42536 0.82441 0.0
C201 C 0.75454 0.47393 0.78771 0.0
C202 C 0.74722 0.46465 0.75941 0.0
C203 C 0.74944 0.50226 0.79597 0.0
C204 C 0.75813 0.51374 0.82527 0.0
C205 C 0.7899 0.5134 0.83748 0.0
C206 C 0.79782 0.52398 0.86522 0.0
C207 C 0.77423 0.53519 0.88088 0.0
C208 C 0.74269 0.53591 0.86879 0.0
C209 C 0.73464 0.52532 0.84106 0.0
H210 H 0.78041 0.54337 0.90236 0.0
H211 H 0.70791 0.44417 0.63136 0.0
H212 H 0.53453 0.0123 0.08527 0.0
H213 H 0.49305 0.9899 0.05112 0.0
H214 H 0.46249 0.0723 0.02906 0.0
H215 H 0.50423 0.09499 0.06359 0.0
H216 H 0.41189 0.01436 0.02654 0.0
H217 H 0.50879 0.0618 0.99013 0.0
H218 H 0.56757 0.07425 0.99436 0.0
H219 H 0.58485 0.98564 0.99289 0.0
H220 H 0.52613 0.97271 0.98921 0.0
H221 H 0.35237 0.95937 0.89006 0.0
H222 H 0.37765 0.99185 0.92761 0.0
H223 H 0.45228 0.93439 0.94405 0.0
H224 H 0.42771 0.90233 0.90564 0.0
H225 H 0.47777 0.98612 0.94835 0.0
H226 H 0.3842 0.93744 0.98551 0.0
H227 H 0.32637 0.92194 0.98636 0.0
H228 H 0.30291 0.00898 0.9891 0.0
H229 H 0.3606 0.02502 0.98819 0.0
C230 C 0.51789 0.02556 0.0742 0.0
C231 C 0.52256 0.0553 0.07682 0.0
C232 C 0.49425 0.01275 0.0547 0.0
C233 C 0.47513 0.02952 0.03741 0.0
C234 C 0.47702 0.05909 0.04238 0.0
C235 C 0.50074 0.072 0.06214 0.0
C236 C 0.45914 0.01653 0.01081 0.0
C237 C 0.42598 0.00872 0.00907 0.0
C238 C 0.47788 0.0086 0.98851 0.0
C239 C 0.51313 0.01631 0.98961 0.0
C240 C 0.52515 0.04499 0.99087 0.0
C241 C 0.55844 0.05213 0.99317 0.0
C242 C 0.57993 0.03075 0.99395 0.0
C243 C 0.56817 0.00218 0.99231 0.0
C244 C 0.5349 0.99494 0.99009 0.0
C245 C 0.37441 0.95384 0.90142 0.0
C246 C 0.388 0.92824 0.89499 0.0
C247 C 0.38869 0.97233 0.92306 0.0
C248 C 0.41641 0.96526 0.93917 0.0
C249 C 0.43079 0.94025 0.932 0.0
C250 C 0.4168 0.92196 0.91001 0.0
C251 C 0.43019 0.98355 0.96381 0.0
C252 C 0.46323 0.99223 0.96533 0.0
C253 C 0.41126 0.99204 0.98594 0.0
C254 C 0.37663 0.98241 0.98647 0.0
C255 C 0.36667 0.95326 0.9861 0.0
C256 C 0.33395 0.94438 0.98662 0.0
C257 C 0.31098 0.96444 0.98763 0.0
C258 C 0.32071 0.99346 0.98826 0.0
C259 C 0.35342 0.00246 0.9878 0.0
H260 H 0.28566 0.95751 0.98801 0.0
H261 H 0.6057 0.03631 0.99577 0.0
H262 H 0.88802 0.78958 0.29875 0.0
H263 H 0.92259 0.76138 0.27155 0.0
H264 H 0.0034 0.82231 0.29376 0.0
H265 H 0.96881 0.85085 0.32109 0.0
H266 H 0.99938 0.80595 0.23706 0.0
H267 H 0.99826 0.75996 0.32637 0.0
H268 H 0.9733 0.73724 0.36667 0.0
H269 H 0.92521 0.67216 0.31022 0.0
H270 H 0.94953 0.69474 0.2695 0.0
H271 H 0.11959 0.71949 0.19071 0.0
H272 H 0.08716 0.74893 0.21894 0.0
H273 H 0.00571 0.68708 0.20389 0.0
H274 H 0.03818 0.65725 0.17602 0.0
H275 H 0.01124 0.70457 0.25789 0.0
H276 H 0.01042 0.75042 0.1686 0.0
H277 H 0.03409 0.77295 0.12759 0.0
H278 H 0.08426 0.83792 0.18292 0.0
H279 H 0.06121 0.81555 0.22433 0.0
C280 C 0.91314 0.79708 0.2979 0.0
C281 C 0.92562 0.8225 0.31223 0.0
C282 C 0.93293 0.78081 0.28239 0.0
C283 C 0.96572 0.78952 0.28082 0.0
C284 C 0.9782 0.81512 0.29471 0.0
C285 C 0.95841 0.83137 0.31041 0.0
C286 C 0.98679 0.77187 0.26459 0.0
C287 C 0.0024 0.78391 0.24189 0.0
C288 C 0.99008 0.74288 0.27038 0.0
C289 C 0.97548 0.7292 0.29484 0.0
C290 C 0.98215 0.74094 0.32251 0.0
C291 C 0.96816 0.72806 0.34544 0.0
C292 C 0.94762 0.70331 0.341 0.0
C293 C 0.94109 0.69135 0.31363 0.0
C294 C 0.955 0.70417 0.29062 0.0
C295 C 0.09476 0.71212 0.19335 0.0
C296 C 0.08151 0.68598 0.18097 0.0
C297 C 0.07617 0.72908 0.20943 0.0
C298 C 0.04379 0.72046 0.21332 0.0
C299 C 0.03059 0.69425 0.2012 0.0
C300 C 0.0492 0.67723 0.18518 0.0
C301 C 0.02378 0.73858 0.23022 0.0
C302 C 0.00834 0.72663 0.25307 0.0
C303 C 0.0205 0.76761 0.22445 0.0
C304 C 0.03436 0.78113 0.1996 0.0
C305 C 0.02671 0.76938 0.17205 0.0
C306 C 0.03997 0.78215 0.14872 0.0
C307 C 0.06074 0.80681 0.15265 0.0
C308 C 0.06821 0.81879 0.17991 0.0
C309 C 0.05504 0.80609 0.20332 0.0
H310 H 0.07097 0.81666 0.13457 0.0
H311 H 0.93681 0.69337 0.35878 0.0
H312 H 0.35323 0.92204 0.77053 0.0
H313 H 0.33048 0.96 0.74309 0.0
H314 H 0.24151 0.90768 0.72601 0.0
H315 H 0.26383 0.87008 0.75412 0.0
H316 H 0.25807 0.95108 0.68247 0.0
H317 H 0.24428 0.93865 0.78416 0.0
H318 H 0.26622 0.93243 0.83334 0.0
H319 H 0.32625 0.01016 0.83029 0.0
H320 H 0.30495 0.01659 0.78088 0.0
H321 H 0.13315 0.0383 0.67457 0.0
H322 H 0.16527 0.00087 0.69347 0.0
H323 H 0.23871 0.06437 0.72771 0.0
H324 H 0.20586 0.10197 0.70969 0.0
H325 H 0.23654 0.01848 0.76028 0.0
H326 H 0.24293 0.03589 0.66175 0.0
H327 H 0.22159 0.04242 0.61249 0.0
H328 H 0.17822 0.95682 0.60813 0.0
H329 H 0.19884 0.94992 0.65756 0.0
C330 C 0.32962 0.91795 0.75937 0.0
C331 C 0.31011 0.89334 0.76448 0.0
C332 C 0.31655 0.93975 0.74392 0.0
C333 C 0.28417 0.93672 0.7331 0.0
C334 C 0.26653 0.91036 0.73428 0.0
C335 C 0.27935 0.88882 0.75019 0.0
C336 C 0.26653 0.96211 0.72695 0.0
C337 C 0.25332 0.96586 0.69937 0.0
C338 C 0.26084 0.98154 0.74906 0.0
C339 C 0.27332 0.97792 0.77881 0.0
C340 C 0.26234 0.95428 0.79392 0.0
C341 C 0.27463 0.95074 0.82182 0.0
C342 C 0.29767 0.97085 0.83489 0.0
C343 C 0.30844 0.99458 0.8201 0.0
C344 C 0.29627 0.99819 0.79216 0.0
C345 C 0.15543 0.04424 0.68731 0.0
C346 C 0.16714 0.07287 0.69075 0.0
C347 C 0.17398 0.02289 0.69772 0.0
C348 C 0.20488 0.02987 0.71101 0.0
C349 C 0.21508 0.05856 0.71719 0.0
C350 C 0.19618 0.08002 0.70717 0.0
C351 C 0.22752 0.00739 0.71574 0.0
C352 C 0.24164 0.0041 0.74315 0.0
C353 C 0.23427 0.98858 0.69334 0.0
C354 C 0.22224 0.99247 0.66344 0.0
C355 C 0.22869 0.01851 0.65034 0.0
C356 C 0.21672 0.02228 0.62239 0.0
C357 C 0.19852 6e-05 0.60721 0.0
C358 C 0.19231 0.97401 0.61993 0.0
C359 C 0.20415 0.97015 0.64791 0.0
H360 H 0.18927 0.00302 0.58557 0.0
H361 H 0.30703 0.96812 0.85652 0.0
H362 H 0.90229 0.47109 0.97515 0.0
H363 H 0.94624 0.50506 0.99231 0.0
H364 H 0.01098 0.46356 0.94037 0.0
H365 H 0.96654 0.42871 0.92294 0.0
H366 H 0.0375 0.47612 0.99452 0.0
H367 H 0.98625 0.5267 0.92097 0.0
H368 H 0.94088 0.54521 0.89256 0.0
H369 H 0.91676 0.5938 0.96512 0.0
H370 H 0.96168 0.57525 0.99412 0.0
H371 H 0.15508 0.58876 0.03544 0.0
H372 H 0.11709 0.55847 0.00422 0.0
H373 H 0.03853 0.58301 0.05186 0.0
H374 H 0.0765 0.6135 0.08348 0.0
H375 H 0.02377 0.5797 0.99237 0.0
H376 H 0.07037 0.5232 0.06667 0.0
H377 H 0.11534 0.50409 0.09512 0.0
H378 H 0.14831 0.46645 0.01977 0.0
H379 H 0.10376 0.48572 0.9908 0.0
C380 C 0.92578 0.46903 0.96718 0.0
C381 C 0.93082 0.44717 0.9475 0.0
C382 C 0.95089 0.48868 0.97695 0.0
C383 C 0.98169 0.48722 0.96717 0.0
C384 C 0.98722 0.46517 0.94794 0.0
C385 C 0.96189 0.44531 0.93805 0.0
C386 C 0.00794 0.50842 0.9782 0.0
C387 C 0.03492 0.49879 0.99343 0.0
C388 C 0.00424 0.53799 0.97718 0.0
C389 C 0.97729 0.54944 0.95977 0.0
C390 C 0.97115 0.54119 0.93094 0.0
C391 C 0.94552 0.55171 0.91471 0.0
C392 C 0.92593 0.57064 0.92704 0.0
C393 C 0.93197 0.57913 0.9556 0.0
C394 C 0.95755 0.56866 0.97193 0.0
C395 C 0.12969 0.58801 0.0392 0.0
C396 C 0.11886 0.60329 0.06223 0.0
C397 C 0.10804 0.57065 0.02129 0.0
C398 C 0.07515 0.56822 0.02601 0.0
C399 C 0.06391 0.58458 0.04797 0.0
C400 C 0.08562 0.60194 0.06603 0.0
C401 C 0.0528 0.5473 0.00915 0.0
C402 C 0.0266 0.55705 0.99291 0.0
C403 C 0.05728 0.51784 0.00913 0.0
C404 C 0.08399 0.50619 0.02653 0.0
C405 C 0.08738 0.51107 0.05614 0.0
C406 C 0.11276 0.50017 0.07236 0.0
C407 C 0.13473 0.48414 0.05925 0.0
C408 C 0.13132 0.47892 0.02989 0.0
C409 C 0.10601 0.48982 0.01356 0.0
H410 H 0.15435 0.47571 0.07185 0.0
H411 H 0.90609 0.57874 0.91444 0.0
H412 H 0.39155 0.31653 0.29139 0.0
H413 H 0.41868 0.28827 0.25759 0.0
H414 H 0.48885 0.2685 0.32436 0.0
H415 H 0.46201 0.29696 0.35831 0.0
H416 H 0.51755 0.28088 0.27588 0.0
H417 H 0.42804 0.21989 0.30182 0.0
H418 H 0.37099 0.20639 0.30921 0.0
H419 H 0.34523 0.2166 0.2206 0.0
H420 H 0.4021 0.23055 0.21274 0.0
H421 H 0.57857 0.16475 0.201 0.0
H422 H 0.5547 0.19457 0.23586 0.0
H423 H 0.48194 0.21544 0.17178 0.0
H424 H 0.50541 0.18555 0.13695 0.0
H425 H 0.4553 0.20196 0.22004 0.0
H426 H 0.54505 0.2633 0.19426 0.0
H427 H 0.60216 0.27683 0.1871 0.0
H428 H 0.62764 0.2657 0.2756 0.0
H429 H 0.57071 0.25171 0.28322 0.0
C430 C 0.41282 0.30628 0.29893 0.0
C431 C 0.42446 0.30894 0.32766 0.0
C432 C 0.42825 0.29001 0.27956 0.0
C433 C 0.45561 0.27592 0.28846 0.0
C434 C 0.46776 0.27909 0.31697 0.0
C435 C 0.45229 0.29533 0.33639 0.0
C436 C 0.47118 0.25756 0.26811 0.0
C437 C 0.50404 0.26338 0.26395 0.0
C438 C 0.45349 0.235 0.25213 0.0
C439 C 0.41929 0.22653 0.25675 0.0
C440 C 0.41018 0.21947 0.28395 0.0
C441 C 0.37788 0.2117 0.28821 0.0
C442 C 0.35449 0.21071 0.2654 0.0
C443 C 0.36337 0.21742 0.23826 0.0
C444 C 0.39563 0.22523 0.23388 0.0
C445 C 0.55755 0.17576 0.19429 0.0
C446 C 0.54395 0.17273 0.16612 0.0
C447 C 0.54399 0.19291 0.21424 0.0
C448 C 0.51662 0.20748 0.20644 0.0
C449 C 0.50302 0.20444 0.17835 0.0
C450 C 0.51657 0.18737 0.15841 0.0
C451 C 0.50163 0.2254 0.22759 0.0
C452 C 0.46885 0.21945 0.23196 0.0
C453 C 0.51943 0.24778 0.24377 0.0
C454 C 0.55367 0.25615 0.23924 0.0
C455 C 0.56287 0.26349 0.21215 0.0
C456 C 0.5952 0.27129 0.20801 0.0
C457 C 0.61853 0.27204 0.23086 0.0
C458 C 0.60955 0.26506 0.25791 0.0
C459 C 0.57726 0.25721 0.26215 0.0
H460 H 0.64354 0.2781 0.22762 0.0
H461 H 0.32949 0.20468 0.26875 0.0
H462 H 0.76556 0.84065 0.40402 0.0
H463 H 0.74196 0.80438 0.43379 0.0
H464 H 0.83271 0.76579 0.44198 0.0
H465 H 0.85654 0.80201 0.41182 0.0
H466 H 0.77847 0.72619 0.44051 0.0
H467 H 0.81889 0.8139 0.49 0.0
H468 H 0.82337 0.86595 0.49797 0.0
H469 H 0.72178 0.86422 0.50893 0.0
H470 H 0.71662 0.81217 0.50057 0.0
H471 H 0.76598 0.65796 0.56825 0.0
H472 H 0.78501 0.69223 0.53431 0.0
H473 H 0.6941 0.73061 0.53292 0.0
H474 H 0.67495 0.69642 0.56746 0.0
H475 H 0.74561 0.7701 0.52966 0.0
H476 H 0.70526 0.68228 0.48256 0.0
H477 H 0.70034 0.63028 0.47431 0.0
H478 H 0.8007 0.63202 0.45846 0.0
H479 H 0.80634 0.68402 0.46706 0.0
C480 C 0.78027 0.82398 0.41149 0.0
C481 C 0.81305 0.8244 0.40604 0.0
C482 C 0.76676 0.80334 0.42855 0.0
C483 C 0.78588 0.78296 0.44065 0.0
C484 C 0.81769 0.78156 0.43297 0.0
C485 C 0.83124 0.80219 0.41569 0.0
C486 C 0.7738 0.76537 0.46365 0.0
C487 C 0.77157 0.73572 0.46011 0.0
C488 C 0.76417 0.77796 0.48895 0.0
C489 C 0.76731 0.80919 0.49438 0.0
C490 C 0.79747 0.82465 0.49392 0.0
C491 C 0.80014 0.85415 0.49853 0.0
C492 C 0.77286 0.8684 0.50389 0.0
C493 C 0.74288 0.85316 0.50474 0.0
C494 C 0.74007 0.82366 0.50008 0.0
C495 C 0.75025 0.67406 0.56118 0.0
C496 C 0.71883 0.67434 0.57019 0.0
C497 C 0.7611 0.69351 0.54168 0.0
C498 C 0.7406 0.71336 0.53053 0.0
C499 C 0.71013 0.7152 0.54111 0.0
C500 C 0.69928 0.69579 0.5609 0.0
C501 C 0.75047 0.73086 0.50664 0.0
C502 C 0.75231 0.76052 0.51001 0.0
C503 C 0.75966 0.71827 0.48116 0.0
C504 C 0.75628 0.68702 0.47569 0.0
C505 C 0.72634 0.67155 0.47751 0.0
C506 C 0.72341 0.64208 0.47275 0.0
C507 C 0.7502 0.62784 0.46593 0.0
C508 C 0.77997 0.64307 0.46378 0.0
C509 C 0.78304 0.67255 0.46857 0.0
H510 H 0.74789 0.60502 0.46225 0.0
H511 H 0.77497 0.89123 0.50745 0.0
H512 H 0.16261 0.58692 0.2024 0.0
H513 H 0.17231 0.54587 0.232 0.0
H514 H 0.27002 0.54739 0.20694 0.0
H515 H 0.26048 0.58789 0.17743 0.0
H516 H 0.23798 0.49533 0.19744 0.0
H517 H 0.2547 0.56734 0.27333 0.0
H518 H 0.23886 0.60691 0.30314 0.0
H519 H 0.15803 0.55429 0.3286 0.0
H520 H 0.17318 0.5145 0.29863 0.0
H521 H 0.32401 0.41078 0.29391 0.0
H522 H 0.30068 0.44429 0.26114 0.0
H523 H 0.21027 0.43371 0.3004 0.0
H524 H 0.23379 0.40088 0.33364 0.0
H525 H 0.23 0.48729 0.30116 0.0
H526 H 0.21678 0.41332 0.23 0.0
H527 H 0.23233 0.37351 0.20039 0.0
H528 H 0.30509 0.42872 0.16561 0.0
H529 H 0.2903 0.46881 0.19531 0.0
C530 C 0.18637 0.57893 0.2039 0.0
C531 C 0.21073 0.5904 0.18752 0.0
C532 C 0.19182 0.55542 0.22063 0.0
C533 C 0.22176 0.54341 0.22129 0.0
C534 C 0.24662 0.55609 0.20637 0.0
C535 C 0.24118 0.57934 0.18968 0.0
C536 C 0.22712 0.51674 0.23608 0.0
C537 C 0.23645 0.49355 0.22017 0.0
C538 C 0.22391 0.51417 0.26546 0.0
C539 C 0.21484 0.53807 0.28348 0.0
C540 C 0.23338 0.5643 0.28509 0.0
C541 C 0.22457 0.58674 0.30206 0.0
C542 C 0.19739 0.58315 0.31768 0.0
C543 C 0.17903 0.55706 0.31644 0.0
C544 C 0.18773 0.53456 0.29948 0.0
C545 C 0.29884 0.41484 0.29485 0.0
C546 C 0.28078 0.4035 0.31641 0.0
C547 C 0.28549 0.43403 0.27614 0.0
C548 C 0.25374 0.44164 0.27844 0.0
C549 C 0.23488 0.42834 0.29841 0.0
C550 C 0.2483 0.4095 0.31728 0.0
C551 C 0.24172 0.46595 0.26267 0.0
C552 C 0.23107 0.48874 0.27836 0.0
C553 C 0.2436 0.46809 0.23304 0.0
C554 C 0.25255 0.44405 0.21505 0.0
C555 C 0.23626 0.41694 0.2162 0.0
C556 C 0.24491 0.39433 0.19937 0.0
C557 C 0.26972 0.39857 0.18117 0.0
C558 C 0.28588 0.42546 0.17972 0.0
C559 C 0.27734 0.44815 0.19652 0.0
H560 H 0.27638 0.38103 0.16816 0.0
H561 H 0.19061 0.60055 0.33081 0.0
H562 H 0.82301 0.29398 0.92428 0.0
H563 H 0.79289 0.25405 0.9453 0.0
H564 H 0.78553 0.3055 0.02109 0.0
H565 H 0.8155 0.34514 0.00044 0.0
H566 H 0.79521 0.25033 0.03339 0.0
H567 H 0.72607 0.3022 0.96956 0.0
H568 H 0.70938 0.3218 0.92336 0.0
H569 H 0.70051 0.23785 0.88485 0.0
H570 H 0.71759 0.2178 0.93079 0.0
H571 H 0.65751 0.18812 0.09365 0.0
H572 H 0.69342 0.22281 0.07105 0.0
H573 H 0.69219 0.16642 0.99752 0.0
H574 H 0.65623 0.13195 0.01968 0.0
H575 H 0.68911 0.22088 0.98241 0.0
H576 H 0.75417 0.16829 0.04666 0.0
H577 H 0.77087 0.14832 0.09266 0.0
H578 H 0.78793 0.2325 0.13008 0.0
H579 H 0.77087 0.25298 0.08437 0.0
C580 C 0.81562 0.29647 0.94567 0.0
C581 C 0.82121 0.32273 0.96061 0.0
C582 C 0.7983 0.27375 0.95758 0.0
C583 C 0.78659 0.27705 0.98456 0.0
C584 C 0.79425 0.30257 0.00022 0.0
C585 C 0.81125 0.32523 0.98832 0.0
C586 C 0.76399 0.25514 0.99574 0.0
C587 C 0.77195 0.24395 0.02233 0.0
C588 C 0.73388 0.24654 0.98106 0.0
C589 C 0.72347 0.25856 0.9535 0.0
C590 C 0.7208 0.28796 0.95118 0.0
C591 C 0.71123 0.29914 0.92506 0.0
C592 C 0.70399 0.28109 0.90117 0.0
C593 C 0.7062 0.25181 0.90337 0.0
C594 C 0.71581 0.24053 0.92944 0.0
C595 C 0.66443 0.18338 0.07247 0.0
C596 C 0.65429 0.15722 0.05856 0.0
C597 C 0.68513 0.20307 0.05969 0.0
C598 C 0.6959 0.19689 0.03285 0.0
C599 C 0.68433 0.17151 0.01831 0.0
C600 C 0.66382 0.15182 0.03106 0.0
C601 C 0.72015 0.2163 0.02025 0.0
C602 C 0.71247 0.22702 0.99339 0.0
C603 C 0.75055 0.22438 0.03466 0.0
C604 C 0.76093 0.21215 0.06216 0.0
C605 C 0.76123 0.18254 0.06475 0.0
C606 C 0.7708 0.17113 0.09076 0.0
C607 C 0.78037 0.18913 0.11429 0.0
C608 C 0.78046 0.21859 0.11184 0.0
C609 C 0.77086 0.23011 0.08588 0.0
H610 H 0.78779 0.18025 0.13441 0.0
H611 H 0.69657 0.28979 0.88096 0.0
H612 H 0.82997 0.98456 0.35084 0.0
H613 H 0.80139 0.01213 0.31572 0.0
H614 H 0.80869 0.94628 0.25195 0.0
H615 H 0.83774 0.9183 0.28726 0.0
H616 H 0.81627 0.00364 0.23213 0.0
H617 H 0.74307 0.94437 0.28437 0.0
H618 H 0.72156 0.92555 0.32801 0.0
H619 H 0.70106 0.00964 0.35454 0.0
H620 H 0.72291 0.02902 0.31123 0.0
H621 H 0.68596 0.02578 0.13603 0.0
H622 H 0.7237 0.00669 0.1707 0.0
H623 H 0.70169 0.06925 0.23324 0.0
H624 H 0.66301 0.08851 0.19839 0.0
H625 H 0.70378 0.01718 0.25507 0.0
H626 H 0.77248 0.0765 0.20166 0.0
H627 H 0.79448 0.09629 0.15866 0.0
H628 H 0.82424 0.01433 0.1349 0.0
H629 H 0.80197 0.99392 0.17755 0.0
C630 C 0.82598 0.97605 0.32925 0.0
C631 C 0.83558 0.94903 0.32187 0.0
C632 C 0.80968 0.99189 0.30923 0.0
C633 C 0.80243 0.98095 0.28149 0.0
C634 C 0.814 0.95494 0.27338 0.0
C635 C 0.83055 0.93901 0.29351 0.0
C636 C 0.78028 0.99556 0.26197 0.0
C637 C 0.79157 0.00637 0.23689 0.0
C638 C 0.74842 -0.00015 0.26883 0.0
C639 C 0.73492 0.98817 0.29471 0.0
C640 C 0.7342 0.95887 0.29962 0.0
C641 C 0.72191 0.9481 0.32427 0.0
C642 C 0.71002 0.9664 0.34407 0.0
C643 C 0.71031 0.9955 0.33921 0.0
C644 C 0.72262 0.00639 0.3146 0.0
C645 C 0.68904 0.03563 0.15712 0.0
C646 C 0.6716 0.05885 0.1644 0.0
C647 C 0.71084 0.02473 0.17688 0.0
C648 C 0.71606 0.03695 0.20431 0.0
C649 C 0.69819 0.05971 0.21202 0.0
C650 C 0.6761 0.07064 0.19217 0.0
C651 C 0.73956 0.02511 0.22492 0.0
C652 C 0.72854 0.01475 0.25029 0.0
C653 C 0.77171 0.02142 0.21837 0.0
C654 C 0.78532 0.03363 0.19273 0.0
C655 C 0.7835 0.06264 0.18717 0.0
C656 C 0.79606 0.07398 0.16287 0.0
C657 C 0.8107 0.05657 0.14403 0.0
C658 C 0.81288 0.02779 0.1495 0.0
C659 C 0.80032 0.01633 0.17376 0.0
H660 H 0.8204 0.06539 0.12523 0.0
H661 H 0.70053 0.95802 0.36315 0.0
H662 H 0.9658 0.94574 0.40845 0.0
H663 H 0.99848 0.98188 0.43831 0.0
H664 H 0.9438 0.95911 0.50967 0.0
H665 H 0.91077 0.92354 0.47985 0.0
H666 H 0.94386 0.01409 0.50181 0.0
H667 H 0.02405 0.94641 0.5079 0.0
H668 H 0.06046 0.91237 0.48986 0.0
H669 H 0.10883 0.97879 0.4448 0.0
H670 H 0.07242 0.01318 0.46227 0.0
H671 H 0.04437 0.09553 0.60971 0.0
H672 H 0.00975 0.06143 0.57907 0.0
H673 H 0.06174 0.08712 0.50704 0.0
H674 H 0.09653 0.1209 0.53753 0.0
H675 H 0.06293 0.03106 0.51495 0.0
H676 H 0.98252 0.09891 0.51014 0.0
H677 H 0.94624 0.13247 0.52923 0.0
H678 H 0.89849 0.06495 0.5733 0.0
H679 H 0.93478 0.03104 0.55478 0.0
C680 C 0.96149 0.94785 0.43072 0.0
C681 C 0.93566 0.93202 0.44181 0.0
C682 C 0.98007 0.96857 0.44776 0.0
C683 C 0.97337 0.97337 0.47618 0.0
C684 C 0.94915 0.95602 0.48774 0.0
C685 C 0.93045 0.93558 0.47072 0.0
C686 C 0.98942 0.99799 0.49318 0.0
C687 C 0.96992 0.01758 0.50504 0.0
C688 C 0.02337 0.00295 0.49674 0.0
C689 C 0.04528 0.98231 0.48616 0.0
C690 C 0.04227 0.95371 0.49394 0.0
C691 C 0.06294 0.93436 0.48386 0.0
C692 C 0.08688 0.9434 0.46613 0.0
C693 C 0.09024 0.97182 0.4585 0.0
C694 C 0.06961 0.99125 0.46851 0.0
C695 C 0.04755 0.0947 0.58715 0.0
C696 C 0.0733 0.11065 0.57603 0.0
C697 C 0.02788 0.07509 0.56967 0.0
C698 C 0.03349 0.0715 0.54084 0.0
C699 C 0.05726 0.08933 0.52928 0.0
C700 C 0.07696 0.10876 0.54669 0.0
C701 C 0.01737 0.04714 0.52355 0.0
C702 C 0.03687 0.02758 0.51167 0.0
C703 C 0.98344 0.04213 0.52012 0.0
C704 C 0.96159 0.06249 0.53129 0.0
C705 C 0.96447 0.09126 0.5241 0.0
C706 C 0.94386 0.11034 0.53478 0.0
C707 C 0.92013 0.10087 0.55253 0.0
C708 C 0.91691 0.07227 0.55958 0.0
C709 C 0.93747 0.05311 0.54898 0.0
H710 H 0.90419 0.11567 0.56077 0.0
H711 H 0.10287 0.92839 0.45836 0.0
H712 H 0.90515 0.3044 0.8489 0.0
H713 H 0.93266 0.27188 0.81949 0.0
H714 H 0.00301 0.34002 0.8028 0.0
H715 H 0.97525 0.37281 0.83174 0.0
H716 H 0.9851 0.30994 0.75534 0.0
H717 H 0.02027 0.28762 0.85064 0.0
H718 H 0.01354 0.27427 0.90011 0.0
H719 H 0.96123 0.19593 0.87071 0.0
H720 H 0.96729 0.20898 0.82102 0.0
H721 H 0.10081 0.22383 0.69988 0.0
H722 H 0.07334 0.25671 0.72901 0.0
H723 H 0.00165 0.18935 0.74472 0.0
H724 H 0.02918 0.15627 0.71596 0.0
H725 H 0.02049 0.21912 0.79268 0.0
H726 H 0.98528 0.24144 0.69744 0.0
H727 H 0.99201 0.25472 0.64794 0.0
H728 H 0.04448 0.33301 0.67725 0.0
H729 H 0.03844 0.32002 0.72696 0.0
C730 C 0.92649 0.3125 0.83901 0.0
C731 C 0.93802 0.34125 0.84282 0.0
C732 C 0.94231 0.29381 0.82226 0.0
C733 C 0.97024 0.30333 0.80917 0.0
C734 C 0.98157 0.3321 0.81268 0.0
C735 C 0.96569 0.35083 0.82933 0.0
C736 C 0.98752 0.28339 0.79172 0.0
C737 C 0.99323 0.29028 0.76367 0.0
C738 C 0.99755 0.25736 0.80225 0.0
C739 C 0.99397 0.24941 0.83211 0.0
C740 C 0.00713 0.26764 0.85472 0.0
C741 C 0.00347 0.26011 0.8828 0.0
C742 C 0.9869 0.2343 0.88855 0.0
C743 C 0.97403 0.21593 0.86622 0.0
C744 C 0.97759 0.22337 0.8381 0.0
C745 C 0.07919 0.21598 0.70951 0.0
C746 C 0.06719 0.18737 0.70548 0.0
C747 C 0.06341 0.23487 0.72609 0.0
C748 C 0.03516 0.22564 0.73886 0.0
C749 C 0.02335 0.19702 0.7351 0.0
C750 C 0.03911 0.17813 0.71855 0.0
C751 C 0.01806 0.24568 0.75632 0.0
C752 C 0.01238 0.2388 0.78437 0.0
C753 C 0.00808 0.27172 0.74579 0.0
C754 C 0.01168 0.27962 0.71592 0.0
C755 C 0.99847 0.26138 0.69333 0.0
C756 C 0.00212 0.26888 0.66524 0.0
C757 C 0.01874 0.29466 0.65946 0.0
C758 C 0.03166 0.31303 0.68176 0.0
C759 C 0.0281 0.30563 0.7099 0.0
H760 H 0.02154 0.30042 0.63769 0.0
H761 H 0.98409 0.22851 0.91031 0.0
H762 H 0.54764 0.62248 0.68535 0.0
H763 H 0.51514 0.6536 0.71161 0.0
H764 H 0.57691 0.72648 0.69116 0.0
H765 H 0.60975 0.69541 0.66484 0.0
H766 H 0.5625 0.72801 0.74743 0.0
H767 H 0.50446 0.71425 0.65614 0.0
H768 H 0.478 0.68643 0.61486 0.0
H769 H 0.4114 0.64484 0.66855 0.0
H770 H 0.43776 0.67214 0.71024 0.0
H771 H 0.45332 0.82832 0.79299 0.0
H772 H 0.49055 0.80139 0.76697 0.0
H773 H 0.42854 0.72481 0.77372 0.0
H774 H 0.39097 0.75165 0.79879 0.0
H775 H 0.44482 0.72795 0.72226 0.0
H776 H 0.5037 0.7394 0.81388 0.0
H777 H 0.53033 0.76612 0.85578 0.0
H778 H 0.59512 0.8109 0.80267 0.0
H779 H 0.56859 0.78469 0.76038 0.0
C780 C 0.55437 0.64512 0.68638 0.0
C781 C 0.58126 0.65642 0.67283 0.0
C782 C 0.53568 0.66292 0.70137 0.0
C783 C 0.54337 0.69244 0.70316 0.0
C784 C 0.57048 0.70378 0.69004 0.0
C785 C 0.58914 0.68598 0.6749 0.0
C786 C 0.52286 0.71134 0.71854 0.0
C787 C 0.53684 0.72834 0.7417 0.0
C788 C 0.48928 0.71141 0.71141 0.0
C789 C 0.47327 0.69507 0.68635 0.0
C790 C 0.48432 0.69902 0.65918 0.0
C791 C 0.46932 0.68337 0.6357 0.0
C792 C 0.44308 0.66384 0.63909 0.0
C793 C 0.43175 0.65996 0.66596 0.0
C794 C 0.44669 0.67554 0.68952 0.0
C795 C 0.44781 0.80569 0.78913 0.0
C796 C 0.41911 0.79217 0.79791 0.0
C797 C 0.46918 0.79027 0.77431 0.0
C798 C 0.46256 0.76092 0.76843 0.0
C799 C 0.43422 0.7474 0.77778 0.0
C800 C 0.41275 0.76281 0.79223 0.0
C801 C 0.48422 0.74429 0.75167 0.0
C802 C 0.47048 0.72775 0.72807 0.0
C803 C 0.51795 0.74455 0.75855 0.0
C804 C 0.53393 0.76031 0.78394 0.0
C805 C 0.52346 0.75511 0.81111 0.0
C806 C 0.53857 0.77013 0.83493 0.0
C807 C 0.56434 0.79026 0.83187 0.0
C808 C 0.57512 0.79534 0.80499 0.0
C809 C 0.56007 0.78039 0.7811 0.0
H810 H 0.57601 0.80186 0.85034 0.0
H811 H 0.4315 0.65174 0.62089 0.0
H812 H 0.18248 0.72947 0.0845 0.0
H813 H 0.20189 0.75833 0.04609 0.0
H814 H 0.29943 0.73841 0.06946 0.0
H815 H 0.28015 0.70934 0.10768 0.0
H816 H 0.29277 0.79307 0.04068 0.0
H817 H 0.26078 0.69133 0.03144 0.0
H818 H 0.22234 0.65006 0.03795 0.0
H819 H 0.14962 0.68762 0.98533 0.0
H820 H 0.18749 0.72941 0.97902 0.0
H821 H 0.35477 0.79619 0.90674 0.0
H822 H 0.34071 0.77359 0.9508 0.0
H823 H 0.23963 0.77992 0.92687 0.0
H824 H 0.25349 0.80229 0.88295 0.0
H825 H 0.24942 0.73249 0.95689 0.0
H826 H 0.28113 0.83271 0.96328 0.0
H827 H 0.31798 0.87512 0.95738 0.0
H828 H 0.38925 0.84258 0.01552 0.0
H829 H 0.35311 0.79952 0.02114 0.0
C830 C 0.20825 0.73263 0.08254 0.0
C831 C 0.2298 0.7168 0.09859 0.0
C832 C 0.21929 0.74899 0.06048 0.0
C833 C 0.25193 0.74979 0.05463 0.0
C834 C 0.27414 0.73785 0.0736 0.0
C835 C 0.26308 0.72126 0.09542 0.0
C836 C 0.26142 0.75658 0.02592 0.0
C837 C 0.28355 0.7798 0.02236 0.0
C838 C 0.24921 0.73916 0.00212 0.0
C839 C 0.22683 0.71359 0.00499 0.0
C840 C 0.23653 0.69084 0.02139 0.0
C841 C 0.21486 0.66737 0.02505 0.0
C842 C 0.18353 0.66625 0.01212 0.0
C843 C 0.17388 0.68854 0.99538 0.0
C844 C 0.19543 0.71212 0.99175 0.0
C845 C 0.32954 0.79159 0.91032 0.0
C846 C 0.30519 0.80124 0.89169 0.0
C847 C 0.32156 0.77899 0.93562 0.0
C848 C 0.28919 0.77584 0.94234 0.0
C849 C 0.26475 0.78242 0.92217 0.0
C850 C 0.2727 0.79515 0.89707 0.0
C851 C 0.28076 0.76916 0.97144 0.0
C852 C 0.2588 0.74582 0.97514 0.0
C853 C 0.29302 0.78662 0.99528 0.0
C854 C 0.31457 0.81271 0.99235 0.0
C855 C 0.30476 0.83447 0.97462 0.0
C856 C 0.32552 0.85864 0.97133 0.0
C857 C 0.35597 0.86154 0.98604 0.0
C858 C 0.36569 0.84028 0.00409 0.0
C859 C 0.3451 0.81595 0.0073 0.0
H860 H 0.37199 0.88028 0.98348 0.0
H861 H 0.16676 0.64808 0.01502 0.0
H862 H 0.44522 0.40797 0.40344 0.0
H863 H 0.48765 0.4386 0.43023 0.0
H864 H 0.41533 0.47934 0.47412 0.0
H865 H 0.37306 0.44946 0.44733 0.0
H866 H 0.46081 0.51775 0.4597 0.0
H867 H 0.45706 0.42756 0.50519 0.0
H868 H 0.45871 0.37552 0.50739 0.0
H869 H 0.55488 0.38162 0.47968 0.0
H870 H 0.55362 0.43369 0.47695 0.0
H871 H 0.56174 0.57975 0.57798 0.0
H872 H 0.51922 0.55207 0.5482 0.0
H873 H 0.59166 0.51193 0.50391 0.0
H874 H 0.63394 0.53891 0.53353 0.0
H875 H 0.54611 0.47354 0.51821 0.0
H876 H 0.54987 0.56435 0.47369 0.0
H877 H 0.54781 0.6164 0.47218 0.0
H878 H 0.45125 0.60919 0.49896 0.0
H879 H 0.45289 0.5571 0.50098 0.0
C880 C 0.43839 0.42359 0.41865 0.0
C881 C 0.40577 0.42612 0.42334 0.0
C882 C 0.46263 0.441 0.434 0.0
C883 C 0.45461 0.46102 0.45439 0.0
C884 C 0.42206 0.46406 0.45851 0.0
C885 C 0.39792 0.44681 0.4432 0.0
C886 C 0.47993 0.47836 0.47216 0.0
C887 C 0.47931 0.50809 0.47269 0.0
C888 C 0.50426 0.46576 0.48884 0.0
C889 C 0.50511 0.43447 0.49058 0.0
C890 C 0.47846 0.41777 0.49936 0.0
C891 C 0.47934 0.38828 0.50073 0.0
C892 C 0.50684 0.37526 0.4936 0.0
C893 C 0.53357 0.39173 0.48515 0.0
C894 C 0.53279 0.42123 0.4837 0.0
C895 C 0.56855 0.56507 0.56185 0.0
C896 C 0.60123 0.56153 0.55818 0.0
C897 C 0.54426 0.54935 0.5448 0.0
C898 C 0.55233 0.53006 0.52374 0.0
C899 C 0.58489 0.52661 0.52008 0.0
C900 C 0.60905 0.54216 0.53705 0.0
C901 C 0.5271 0.51295 0.50566 0.0
C902 C 0.52769 0.48323 0.50515 0.0
C903 C 0.5027 0.52557 0.48909 0.0
C904 C 0.50163 0.55686 0.48776 0.0
C905 C 0.52829 0.57389 0.47947 0.0
C906 C 0.52718 0.60339 0.47848 0.0
C907 C 0.49945 0.6161 0.48555 0.0
C908 C 0.47273 0.59932 0.49353 0.0
C909 C 0.47372 0.5698 0.49458 0.0
H910 H 0.49864 0.63894 0.48477 0.0
H911 H 0.50748 0.35242 0.49468 0.0
loop_
_geom_bond_atom_site_label_1
_geom_bond_atom_site_label_2
_geom_bond_distance
_geom_bond_site_symmetry_2
_ccdc_geom_bond_type
Zn0 O3 2.031 . S
Zn0 O5 2.049 . S
Zn0 O10 2.067 . S
Zn1 O2 1.962 . S
Zn1 O4 1.986 . S
Zn1 O6 1.996 . S
Zn1 O9 1.943 . S
O2 Zn1 1.962 . S
O2 C7 1.254 . S
O3 Zn0 2.031 . S
O3 C7 1.269 . S
O4 Zn1 1.986 . S
O4 C11 1.262 . S
O5 Zn0 2.049 . S
O5 C13 1.260 . S
O6 Zn1 1.996 . S
O6 C13 1.257 . S
C7 O2 1.254 . S
C7 O3 1.269 . S
C8 O9 1.249 . S
C8 O10 1.270 . S
O9 Zn1 1.943 . S
O9 C8 1.249 . S
O10 Zn0 2.067 . S
O10 C8 1.270 . S
C11 O4 1.262 . S
C11 O12 1.232 . S
O12 C11 1.232 . S
C13 O5 1.260 . S
C13 O6 1.257 . S
Zn14 O17 2.031 . S
Zn14 O19 2.049 . S
Zn14 O24 2.067 . S
Zn15 O16 1.962 . S
Zn15 O18 1.986 . S
Zn15 O20 1.996 . S
Zn15 O23 1.943 . S
O16 Zn15 1.962 . S
O16 C21 1.254 . S
O17 Zn14 2.031 . S
O17 C21 1.269 . S
O18 Zn15 1.986 . S
O18 C25 1.262 . S
O19 Zn14 2.049 . S
O19 C27 1.260 . S
O20 Zn15 1.996 . S
O20 C27 1.257 . S
C21 O16 1.254 . S
C21 O17 1.269 . S
C22 O23 1.249 . S
C22 O24 1.270 . S
O23 Zn15 1.943 . S
O23 C22 1.249 . S
O24 Zn14 2.067 . S
O24 C22 1.270 . S
C25 O18 1.262 . S
C25 O26 1.232 . S
O26 C25 1.232 . S
C27 O19 1.260 . S
C27 O20 1.257 . S
Zn28 O31 2.031 . S
Zn28 O33 2.049 . S
Zn28 O38 2.067 . S
Zn29 O30 1.962 . S
Zn29 O32 1.986 . S
Zn29 O34 1.996 . S
Zn29 O37 1.943 . S
O30 Zn29 1.962 . S
O30 C35 1.254 . S
O31 Zn28 2.031 . S
O31 C35 1.269 . S
O32 Zn29 1.986 . S
O32 C39 1.262 . S
O33 Zn28 2.049 . S
O33 C41 1.260 . S
O34 Zn29 1.996 . S
O34 C41 1.257 . S
C35 O30 1.254 . S
C35 O31 1.269 . S
C36 O37 1.249 . S
C36 O38 1.270 . S
O37 Zn29 1.943 . S
O37 C36 1.249 . S
O38 Zn28 2.067 . S
O38 C36 1.270 . S
C39 O32 1.262 . S
C39 O40 1.232 . S
O40 C39 1.232 . S
C41 O33 1.260 . S
C41 O34 1.257 . S
Zn42 O45 2.031 . S
Zn42 O47 2.049 . S
Zn42 O52 2.067 . S
Zn43 O44 1.962 . S
Zn43 O46 1.986 . S
Zn43 O48 1.996 . S
Zn43 O51 1.943 . S
O44 Zn43 1.962 . S
O44 C49 1.254 . S
O45 Zn42 2.031 . S
O45 C49 1.269 . S
O46 Zn43 1.986 . S
O46 C53 1.262 . S
O47 Zn42 2.049 . S
O47 C55 1.260 . S
O48 Zn43 1.996 . S
O48 C55 1.257 . S
C49 O44 1.254 . S
C49 O45 1.269 . S
C50 O51 1.249 . S
C50 O52 1.270 . S
O51 Zn43 1.943 . S
O51 C50 1.249 . S
O52 Zn42 2.067 . S
O52 C50 1.270 . S
C53 O46 1.262 . S
C53 O54 1.232 . S
O54 C53 1.232 . S
C55 O47 1.260 . S
C55 O48 1.257 . S
Zn56 O59 2.031 . S
Zn56 O61 2.049 . S
Zn56 O66 2.067 . S
Zn57 O58 1.962 . S
Zn57 O60 1.986 . S
Zn57 O62 1.996 . S
Zn57 O65 1.943 . S
O58 Zn57 1.962 . S
O58 C63 1.254 . S
O59 Zn56 2.031 . S
O59 C63 1.269 . S
O60 Zn57 1.986 . S
O60 C67 1.262 . S
O61 Zn56 2.049 . S
O61 C69 1.260 . S
O62 Zn57 1.996 . S
O62 C69 1.257 . S
C63 O58 1.254 . S
C63 O59 1.269 . S
C64 O65 1.249 . S
C64 O66 1.270 . S
O65 Zn57 1.943 . S
O65 C64 1.249 . S
O66 Zn56 2.067 . S
O66 C64 1.270 . S
C67 O60 1.262 . S
C67 O68 1.232 . S
O68 C67 1.232 . S
C69 O61 1.260 . S
C69 O62 1.257 . S
Zn70 O73 2.031 . S
Zn70 O75 2.049 . S
Zn70 O80 2.067 . S
Zn71 O72 1.962 . S
Zn71 O74 1.986 . S
Zn71 O76 1.996 . S
Zn71 O79 1.943 . S
O72 Zn71 1.962 . S
O72 C77 1.254 . S
O73 Zn70 2.031 . S
O73 C77 1.269 . S
O74 Zn71 1.986 . S
O74 C81 1.262 . S
O75 Zn70 2.049 . S
O75 C83 1.260 . S
O76 Zn71 1.996 . S
O76 C83 1.257 . S
C77 O72 1.254 . S
C77 O73 1.269 . S
C78 O79 1.249 . S
C78 O80 1.270 . S
O79 Zn71 1.943 . S
O79 C78 1.249 . S
O80 Zn70 2.067 . S
O80 C78 1.270 . S
C81 O74 1.262 . S
C81 O82 1.232 . S
O82 C81 1.232 . S
C83 O75 1.260 . S
C83 O76 1.257 . S
Zn84 O87 2.031 . S
Zn84 O89 2.049 . S
Zn84 O94 2.067 . S
Zn85 O86 1.962 . S
Zn85 O88 1.986 . S
Zn85 O90 1.996 . S
Zn85 O93 1.943 . S
O86 Zn85 1.962 . S
O86 C91 1.254 . S
O87 Zn84 2.031 . S
O87 C91 1.269 . S
O88 Zn85 1.986 . S
O88 C95 1.262 . S
O89 Zn84 2.049 . S
O89 C97 1.260 . S
O90 Zn85 1.996 . S
O90 C97 1.257 . S
C91 O86 1.254 . S
C91 O87 1.269 . S
C92 O93 1.249 . S
C92 O94 1.270 . S
O93 Zn85 1.943 . S
O93 C92 1.249 . S
O94 Zn84 2.067 . S
O94 C92 1.270 . S
C95 O88 1.262 . S
C95 O96 1.232 . S
O96 C95 1.232 . S
C97 O89 1.260 . S
C97 O90 1.257 . S
Zn98 O101 2.031 . S
Zn98 O103 2.049 . S
Zn98 O108 2.067 . S
Zn99 O100 1.962 . S
Zn99 O102 1.986 . S
Zn99 O104 1.996 . S
Zn99 O107 1.943 . S
O100 Zn99 1.962 . S
O100 C105 1.254 . S
O101 Zn98 2.031 . S
O101 C105 1.269 . S
O102 Zn99 1.986 . S
O102 C109 1.262 . S
O103 Zn98 2.049 . S
O103 C111 1.260 . S
O104 Zn99 1.996 . S
O104 C111 1.257 . S
C105 O100 1.254 . S
C105 O101 1.269 . S
C106 O107 1.249 . S
C106 O108 1.270 . S
O107 Zn99 1.943 . S
O107 C106 1.249 . S
O108 Zn98 2.067 . S
O108 C106 1.270 . S
C109 O102 1.262 . S
C109 O110 1.232 . S
O110 C109 1.232 . S
C111 O103 1.260 . S
C111 O104 1.257 . S
H112 C130 0.951 . S
H113 C132 0.951 . S
H114 C134 0.950 . S
H115 C135 0.950 . S
H116 C137 0.950 . S
H117 C140 0.950 . S
H118 C141 0.950 . S
H119 C143 0.950 . S
H120 C144 0.950 . S
H121 C145 0.951 . S
H122 C147 0.951 . S
H123 C149 0.950 . S
H124 C150 0.950 . S
H125 C152 0.950 . S
H126 C155 0.950 . S
H127 C156 0.950 . S
H128 C158 0.950 . S
H129 C159 0.950 . S
C130 H112 0.951 . S
C130 C131 1.366 . S
C130 C132 1.388 . S
C131 C130 1.366 . S
C131 C135 1.385 . S
C132 H113 0.951 . S
C132 C130 1.388 . S
C132 C133 1.366 . S
C133 C132 1.366 . S
C133 C134 1.414 . S
C133 C136 1.499 . S
C134 H114 0.950 . S
C134 C133 1.414 . S
C134 C135 1.374 . S
C135 H115 0.950 . S
C135 C131 1.385 . S
C135 C134 1.374 . S
C136 C133 1.499 . S
C136 C137 1.373 . S
C136 C138 1.389 . S
C137 H116 0.950 . S
C137 C136 1.373 . S
C137 C153 1.377 . S
C138 C136 1.389 . S
C138 C139 1.524 . S
C138 C152 1.377 . S
C139 C138 1.524 . S
C139 C140 1.397 . S
C139 C144 1.363 . S
C140 H117 0.950 . S
C140 C139 1.397 . S
C140 C141 1.334 . S
C141 H118 0.950 . S
C141 C140 1.334 . S
C141 C142 1.287 . S
C142 C141 1.287 . S
C142 C143 1.524 . S
C142 H161 0.913 . S
C143 H119 0.950 . S
C143 C142 1.524 . S
C143 C144 1.415 . S
C144 H120 0.950 . S
C144 C139 1.363 . S
C144 C143 1.415 . S
C145 H121 0.951 . S
C145 C146 1.366 . S
C145 C147 1.388 . S
C146 C145 1.366 . S
C146 C150 1.385 . S
C147 H122 0.951 . S
C147 C145 1.388 . S
C147 C148 1.366 . S
C148 C147 1.366 . S
C148 C149 1.414 . S
C148 C151 1.499 . S
C149 H123 0.950 . S
C149 C148 1.414 . S
C149 C150 1.374 . S
C150 H124 0.950 . S
C150 C146 1.385 . S
C150 C149 1.374 . S
C151 C148 1.499 . S
C151 C152 1.373 . S
C151 C153 1.389 . S
C152 H125 0.950 . S
C152 C138 1.377 . S
C152 C151 1.373 . S
C153 C137 1.377 . S
C153 C151 1.389 . S
C153 C154 1.524 . S
C154 C153 1.524 . S
C154 C155 1.397 . S
C154 C159 1.363 . S
C155 H126 0.950 . S
C155 C154 1.397 . S
C155 C156 1.334 . S
C156 H127 0.950 . S
C156 C155 1.334 . S
C156 C157 1.287 . S
C157 C156 1.287 . S
C157 C158 1.524 . S
C157 H160 0.999 . S
C158 H128 0.950 . S
C158 C157 1.524 . S
C158 C159 1.415 . S
C159 H129 0.950 . S
C159 C154 1.363 . S
C159 C158 1.415 . S
H160 C157 0.999 . S
H161 C142 0.913 . S
H162 C180 0.951 . S
H163 C182 0.951 . S
H164 C184 0.950 . S
H165 C185 0.950 . S
H166 C187 0.950 . S
H167 C190 0.950 . S
H168 C191 0.950 . S
H169 C193 0.950 . S
H170 C194 0.950 . S
H171 C195 0.951 . S
H172 C197 0.951 . S
H173 C199 0.950 . S
H174 C200 0.950 . S
H175 C202 0.950 . S
H176 C205 0.950 . S
H177 C206 0.950 . S
H178 C208 0.950 . S
H179 C209 0.950 . S
C180 H162 0.951 . S
C180 C181 1.366 . S
C180 C182 1.388 . S
C181 C180 1.366 . S
C181 C185 1.385 . S
C182 H163 0.951 . S
C182 C180 1.388 . S
C182 C183 1.366 . S
C183 C182 1.366 . S
C183 C184 1.414 . S
C183 C186 1.499 . S
C184 H164 0.950 . S
C184 C183 1.414 . S
C184 C185 1.374 . S
C185 H165 0.950 . S
C185 C181 1.385 . S
C185 C184 1.374 . S
C186 C183 1.499 . S
C186 C187 1.373 . S
C186 C188 1.389 . S
C187 H166 0.950 . S
C187 C186 1.373 . S
C187 C203 1.377 . S
C188 C186 1.389 . S
C188 C189 1.524 . S
C188 C202 1.377 . S
C189 C188 1.524 . S
C189 C190 1.397 . S
C189 C194 1.363 . S
C190 H167 0.950 . S
C190 C189 1.397 . S
C190 C191 1.334 . S
C191 H168 0.950 . S
C191 C190 1.334 . S
C191 C192 1.287 . S
C192 C191 1.287 . S
C192 C193 1.524 . S
C192 H211 0.913 . S
C193 H169 0.950 . S
C193 C192 1.524 . S
C193 C194 1.415 . S
C194 H170 0.950 . S
C194 C189 1.363 . S
C194 C193 1.415 . S
C195 H171 0.951 . S
C195 C196 1.366 . S
C195 C197 1.388 . S
C196 C195 1.366 . S
C196 C200 1.385 . S
C197 H172 0.951 . S
C197 C195 1.388 . S
C197 C198 1.366 . S
C198 C197 1.366 . S
C198 C199 1.414 . S
C198 C201 1.499 . S
C199 H173 0.950 . S
C199 C198 1.414 . S
C199 C200 1.374 . S
C200 H174 0.950 . S
C200 C196 1.385 . S
C200 C199 1.374 . S
C201 C198 1.499 . S
C201 C202 1.373 . S
C201 C203 1.389 . S
C202 H175 0.950 . S
C202 C188 1.377 . S
C202 C201 1.373 . S
C203 C187 1.377 . S
C203 C201 1.389 . S
C203 C204 1.524 . S
C204 C203 1.524 . S
C204 C205 1.397 . S
C204 C209 1.363 . S
C205 H176 0.950 . S
C205 C204 1.397 . S
C205 C206 1.334 . S
C206 H177 0.950 . S
C206 C205 1.334 . S
C206 C207 1.287 . S
C207 C206 1.287 . S
C207 C208 1.524 . S
C207 H210 0.999 . S
C208 H178 0.950 . S
C208 C207 1.524 . S
C208 C209 1.415 . S
C209 H179 0.950 . S
C209 C204 1.363 . S
C209 C208 1.415 . S
H210 C207 0.999 . S
H211 C192 0.913 . S
H212 C230 0.951 . S
H213 C232 0.951 . S
H214 C234 0.950 . S
H215 C235 0.950 . S
H216 C237 0.950 . S
H217 C240 0.950 . S
H218 C241 0.950 . S
H219 C243 0.950 . S
H220 C244 0.950 . S
H221 C245 0.951 . S
H222 C247 0.951 . S
H223 C249 0.950 . S
H224 C250 0.950 . S
H225 C252 0.950 . S
H226 C255 0.950 . S
H227 C256 0.950 . S
H228 C258 0.950 . S
H229 C259 0.944 1_556 S
C230 H212 0.951 . S
C230 C231 1.366 . S
C230 C232 1.388 . S
C231 C230 1.366 . S
C231 C235 1.385 . S
C232 H213 0.951 . S
C232 C230 1.388 . S
C232 C233 1.366 . S
C233 C232 1.366 . S
C233 C234 1.414 . S
C233 C236 1.499 . S
C234 H214 0.950 . S
C234 C233 1.414 . S
C234 C235 1.374 . S
C235 H215 0.950 . S
C235 C231 1.385 . S
C235 C234 1.374 . S
C236 C233 1.499 . S
C236 C237 1.373 . S
C236 C238 1.369 1_545 S
C237 H216 0.950 . S
C237 C236 1.373 . S
C237 C253 1.377 1_545 S
C238 C236 1.369 1_565 S
C238 C239 1.524 1_564 S
C238 C252 1.396 1_554 S
C239 C238 1.524 1_546 S
C239 C240 1.424 . S
C239 C244 1.341 1_546 S
C240 H217 0.950 . S
C240 C239 1.424 . S
C240 C241 1.334 . S
C241 H218 0.950 . S
C241 C240 1.334 . S
C241 C242 1.287 . S
C242 C241 1.287 . S
C242 C243 1.524 1_545 S
C242 H261 0.913 . S
C243 H219 0.950 . S
C243 C242 1.524 1_565 S
C243 C244 1.415 1_556 S
C244 H220 0.950 . S
C244 C239 1.341 1_564 S
C244 C243 1.415 1_554 S
C245 H221 0.951 . S
C245 C246 1.366 . S
C245 C247 1.388 . S
C246 C245 1.366 . S
C246 C250 1.385 . S
C247 H222 0.951 . S
C247 C245 1.388 . S
C247 C248 1.366 . S
C248 C247 1.366 . S
C248 C249 1.414 . S
C248 C251 1.499 . S
C249 H223 0.950 . S
C249 C248 1.414 . S
C249 C250 1.374 . S
C250 H224 0.950 . S
C250 C246 1.385 . S
C250 C249 1.374 . S
C251 C248 1.499 . S
C251 C252 1.373 . S
C251 C253 1.389 1_556 S
C252 H225 0.950 . S
C252 C238 1.396 1_556 S
C252 C251 1.373 . S
C253 C237 1.377 1_565 S
C253 C251 1.389 1_554 S
C253 C254 1.524 . S
C254 C253 1.524 . S
C254 C255 1.397 . S
C254 C259 1.363 1_565 S
C255 H226 0.950 . S
C255 C254 1.397 . S
C255 C256 1.334 . S
C256 H227 0.950 . S
C256 C255 1.334 . S
C256 C257 1.287 . S
C257 C256 1.287 . S
C257 C258 1.524 1_565 S
C257 H260 0.999 . S
C258 H228 0.950 . S
C258 C257 1.524 1_545 S
C258 C259 1.415 . S
C259 H229 0.944 1_554 S
C259 C254 1.363 1_545 S
C259 C258 1.415 . S
H260 C257 0.999 . S
H261 C242 0.913 . S
H262 C280 0.951 . S
H263 C282 0.951 . S
H264 C284 0.950 . S
H265 C285 0.950 . S
H266 C287 0.950 . S
H267 C290 0.950 1_455 S
H268 C291 0.950 1_455 S
H269 C293 0.950 . S
H270 C294 0.950 . S
H271 C295 0.951 . S
H272 C297 0.951 . S
H273 C299 0.950 . S
H274 C300 0.950 . S
H275 C302 0.950 . S
H276 C305 0.950 1_655 S
H277 C306 0.950 1_655 S
H278 C308 0.950 . S
H279 C309 0.950 . S
C280 H262 0.951 . S
C280 C281 1.366 . S
C280 C282 1.388 . S
C281 C280 1.366 . S
C281 C285 1.385 . S
C282 H263 0.951 . S
C282 C280 1.388 . S
C282 C283 1.366 . S
C283 C282 1.366 . S
C283 C284 1.414 . S
C283 C286 1.499 . S
C284 H264 0.950 . S
C284 C283 1.414 . S
C284 C285 1.374 . S
C285 H265 0.950 . S
C285 C281 1.385 . S
C285 C284 1.374 . S
C286 C283 1.499 . S
C286 C287 1.373 . S
C286 C288 1.389 . S
C287 H266 0.950 . S
C287 C286 1.373 . S
C287 C303 1.377 1_655 S
C288 C286 1.389 . S
C288 C289 1.524 . S
C288 C302 1.377 1_655 S
C289 C288 1.524 . S
C289 C290 1.397 . S
C289 C294 1.363 . S
C290 H267 0.950 1_655 S
C290 C289 1.397 . S
C290 C291 1.334 . S
C291 H268 0.950 1_655 S
C291 C290 1.334 . S
C291 C292 1.287 . S
C292 C291 1.287 . S
C292 C293 1.524 . S
C292 H311 0.913 . S
C293 H269 0.950 . S
C293 C292 1.524 . S
C293 C294 1.415 . S
C294 H270 0.950 . S
C294 C289 1.363 . S
C294 C293 1.415 . S
C295 H271 0.951 . S
C295 C296 1.366 . S
C295 C297 1.388 . S
C296 C295 1.366 . S
C296 C300 1.385 . S
C297 H272 0.951 . S
C297 C295 1.388 . S
C297 C298 1.366 . S
C298 C297 1.366 . S
C298 C299 1.414 . S
C298 C301 1.499 . S
C299 H273 0.950 . S
C299 C298 1.414 . S
C299 C300 1.374 . S
C300 H274 0.950 . S
C300 C296 1.385 . S
C300 C299 1.374 . S
C301 C298 1.499 . S
C301 C302 1.373 . S
C301 C303 1.389 . S
C302 H275 0.950 . S
C302 C288 1.377 1_455 S
C302 C301 1.373 . S
C303 C287 1.377 1_455 S
C303 C301 1.389 . S
C303 C304 1.524 . S
C304 C303 1.524 . S
C304 C305 1.397 . S
C304 C309 1.363 . S
C305 H276 0.950 1_455 S
C305 C304 1.397 . S
C305 C306 1.334 . S
C306 H277 0.950 1_455 S
C306 C305 1.334 . S
C306 C307 1.287 . S
C307 C306 1.287 . S
C307 C308 1.524 . S
C307 H310 0.999 . S
C308 H278 0.950 . S
C308 C307 1.524 . S
C308 C309 1.415 . S
C309 H279 0.950 . S
C309 C304 1.363 . S
C309 C308 1.415 . S
H310 C307 0.999 . S
H311 C292 0.913 . S
H312 C330 0.951 . S
H313 C332 0.951 . S
H314 C334 0.950 . S
H315 C335 0.950 . S
H316 C337 0.950 . S
H317 C340 0.935 1_565 S
H318 C341 0.950 1_565 S
H319 C343 0.950 . S
H320 C344 0.950 . S
H321 C345 0.951 . S
H322 C347 0.951 . S
H323 C349 0.950 . S
H324 C350 0.950 . S
H325 C352 0.950 . S
H326 C355 0.950 1_545 S
H327 C356 0.950 1_545 S
H328 C358 0.950 . S
H329 C359 0.950 . S
C330 H312 0.951 . S
C330 C331 1.366 . S
C330 C332 1.388 . S
C331 C330 1.366 . S
C331 C335 1.385 . S
C332 H313 0.951 . S
C332 C330 1.388 . S
C332 C333 1.366 . S
C333 C332 1.366 . S
C333 C334 1.414 . S
C333 C336 1.499 . S
C334 H314 0.950 . S
C334 C333 1.414 . S
C334 C335 1.374 . S
C335 H315 0.950 . S
C335 C331 1.385 . S
C335 C334 1.374 . S
C336 C333 1.499 . S
C336 C337 1.373 . S
C336 C338 1.389 1_565 S
C337 H316 0.950 . S
C337 C336 1.373 . S
C337 C353 1.377 . S
C338 C336 1.389 1_545 S
C338 C339 1.524 . S
C338 C352 1.377 . S
C339 C338 1.524 . S
C339 C340 1.407 . S
C339 C344 1.363 . S
C340 H317 0.935 1_545 S
C340 C339 1.407 . S
C340 C341 1.339 . S
C341 H318 0.950 1_545 S
C341 C340 1.339 . S
C341 C342 1.287 . S
C342 C341 1.287 . S
C342 C343 1.524 . S
C342 H361 0.913 . S
C343 H319 0.950 . S
C343 C342 1.524 . S
C343 C344 1.415 . S
C344 H320 0.950 . S
C344 C339 1.363 . S
C344 C343 1.415 . S
C345 H321 0.951 . S
C345 C346 1.366 . S
C345 C347 1.388 . S
C346 C345 1.366 . S
C346 C350 1.385 . S
C347 H322 0.951 . S
C347 C345 1.388 . S
C347 C348 1.366 . S
C348 C347 1.366 . S
C348 C349 1.414 . S
C348 C351 1.499 . S
C349 H323 0.950 . S
C349 C348 1.414 . S
C349 C350 1.374 . S
C350 H324 0.950 . S
C350 C346 1.385 . S
C350 C349 1.374 . S
C351 C348 1.499 . S
C351 C352 1.373 . S
C351 C353 1.389 1_545 S
C352 H325 0.950 . S
C352 C338 1.377 . S
C352 C351 1.373 . S
C353 C337 1.377 . S
C353 C351 1.389 1_565 S
C353 C354 1.524 . S
C354 C353 1.524 . S
C354 C355 1.397 . S
C354 C359 1.363 . S
C355 H326 0.950 1_565 S
C355 C354 1.397 . S
C355 C356 1.334 . S
C356 H327 0.950 1_565 S
C356 C355 1.334 . S
C356 C357 1.287 . S
C357 C356 1.287 . S
C357 C358 1.524 . S
C357 H360 0.999 . S
C358 H328 0.950 . S
C358 C357 1.524 . S
C358 C359 1.415 . S
C359 H329 0.950 . S
C359 C354 1.363 . S
C359 C358 1.415 . S
H360 C357 0.999 . S
H361 C342 0.913 . S
H362 C380 0.951 . S
H363 C382 0.951 . S
H364 C384 0.950 . S
H365 C385 0.950 . S
H366 C387 0.950 . S
H367 C390 0.950 . S
H368 C391 0.950 . S
H369 C393 0.950 . S
H370 C394 0.950 1_554 S
H371 C395 0.951 . S
H372 C397 0.951 . S
H373 C399 0.950 . S
H374 C400 0.950 . S
H375 C402 0.950 . S
H376 C405 0.950 . S
H377 C406 0.950 . S
H378 C408 0.950 . S
H379 C409 0.950 1_556 S
C380 H362 0.951 . S
C380 C381 1.366 . S
C380 C382 1.388 . S
C381 C380 1.366 . S
C381 C385 1.385 . S
C382 H363 0.951 . S
C382 C380 1.388 . S
C382 C383 1.366 . S
C383 C382 1.366 . S
C383 C384 1.414 . S
C383 C386 1.499 . S
C384 H364 0.950 . S
C384 C383 1.414 . S
C384 C385 1.374 . S
C385 H365 0.950 . S
C385 C381 1.385 . S
C385 C384 1.374 . S
C386 C383 1.499 . S
C386 C387 1.373 1_655 S
C386 C388 1.389 . S
C387 H366 0.950 . S
C387 C386 1.373 1_455 S
C387 C403 1.377 1_556 S
C388 C386 1.389 . S
C388 C389 1.524 . S
C388 C402 1.377 1_556 S
C389 C388 1.524 . S
C389 C390 1.397 . S
C389 C394 1.363 . S
C390 H367 0.950 . S
C390 C389 1.397 . S
C390 C391 1.334 . S
C391 H368 0.950 . S
C391 C390 1.334 . S
C391 C392 1.287 . S
C392 C391 1.287 . S
C392 C393 1.524 . S
C392 H411 0.913 . S
C393 H369 0.950 . S
C393 C392 1.524 . S
C393 C394 1.415 . S
C394 H370 0.950 1_556 S
C394 C389 1.363 . S
C394 C393 1.415 . S
C395 H371 0.951 . S
C395 C396 1.366 . S
C395 C397 1.388 . S
C396 C395 1.366 . S
C396 C400 1.385 . S
C397 H372 0.951 . S
C397 C395 1.388 . S
C397 C398 1.366 . S
C398 C397 1.366 . S
C398 C399 1.414 . S
C398 C401 1.499 . S
C399 H373 0.950 . S
C399 C398 1.414 . S
C399 C400 1.374 . S
C400 H374 0.950 . S
C400 C396 1.385 . S
C400 C399 1.374 . S
C401 C398 1.499 . S
C401 C402 1.373 1_455 S
C401 C403 1.389 . S
C402 H375 0.950 . S
C402 C388 1.377 1_554 S
C402 C401 1.373 1_655 S
C403 C387 1.377 1_554 S
C403 C401 1.389 . S
C403 C404 1.524 . S
C404 C403 1.524 . S
C404 C405 1.397 . S
C404 C409 1.363 . S
C405 H376 0.950 . S
C405 C404 1.397 . S
C405 C406 1.334 . S
C406 H377 0.950 . S
C406 C405 1.334 . S
C406 C407 1.287 . S
C407 C406 1.287 . S
C407 C408 1.524 . S
C407 H410 0.999 . S
C408 H378 0.950 . S
C408 C407 1.524 . S
C408 C409 1.415 . S
C409 H379 0.950 1_554 S
C409 C404 1.363 . S
C409 C408 1.415 . S
H410 C407 0.999 . S
H411 C392 0.913 . S
H412 C430 0.951 . S
H413 C432 0.951 . S
H414 C434 0.950 . S
H415 C435 0.950 . S
H416 C437 0.950 . S
H417 C440 0.950 . S
H418 C441 0.950 . S
H419 C443 0.950 . S
H420 C444 0.950 . S
H421 C445 0.951 . S
H422 C447 0.951 . S
H423 C449 0.950 . S
H424 C450 0.950 . S
H425 C452 0.950 . S
H426 C455 0.950 . S
H427 C456 0.950 . S
H428 C458 0.950 . S
H429 C459 0.950 . S
C430 H412 0.951 . S
C430 C431 1.366 . S
C430 C432 1.388 . S
C431 C430 1.366 . S
C431 C435 1.385 . S
C432 H413 0.951 . S
C432 C430 1.388 . S
C432 C433 1.366 . S
C433 C432 1.366 . S
C433 C434 1.414 . S
C433 C436 1.499 . S
C434 H414 0.950 . S
C434 C433 1.414 . S
C434 C435 1.374 . S
C435 H415 0.950 . S
C435 C431 1.385 . S
C435 C434 1.374 . S
C436 C433 1.499 . S
C436 C437 1.373 . S
C436 C438 1.389 . S
C437 H416 0.950 . S
C437 C436 1.373 . S
C437 C453 1.377 . S
C438 C436 1.389 . S
C438 C439 1.524 . S
C438 C452 1.377 . S
C439 C438 1.524 . S
C439 C440 1.397 . S
C439 C444 1.363 . S
C440 H417 0.950 . S
C440 C439 1.397 . S
C440 C441 1.334 . S
C441 H418 0.950 . S
C441 C440 1.334 . S
C441 C442 1.287 . S
C442 C441 1.287 . S
C442 C443 1.524 . S
C442 H461 0.913 . S
C443 H419 0.950 . S
C443 C442 1.524 . S
C443 C444 1.415 . S
C444 H420 0.950 . S
C444 C439 1.363 . S
C444 C443 1.415 . S
C445 H421 0.951 . S
C445 C446 1.366 . S
C445 C447 1.388 . S
C446 C445 1.366 . S
C446 C450 1.385 . S
C447 H422 0.951 . S
C447 C445 1.388 . S
C447 C448 1.366 . S
C448 C447 1.366 . S
C448 C449 1.414 . S
C448 C451 1.499 . S
C449 H423 0.950 . S
C449 C448 1.414 . S
C449 C450 1.374 . S
C450 H424 0.950 . S
C450 C446 1.385 . S
C450 C449 1.374 . S
C451 C448 1.499 . S
C451 C452 1.373 . S
C451 C453 1.389 . S
C452 H425 0.950 . S
C452 C438 1.377 . S
C452 C451 1.373 . S
C453 C437 1.377 . S
C453 C451 1.389 . S
C453 C454 1.524 . S
C454 C453 1.524 . S
C454 C455 1.397 . S
C454 C459 1.363 . S
C455 H426 0.950 . S
C455 C454 1.397 . S
C455 C456 1.334 . S
C456 H427 0.950 . S
C456 C455 1.334 . S
C456 C457 1.287 . S
C457 C456 1.287 . S
C457 C458 1.524 . S
C457 H460 0.999 . S
C458 H428 0.950 . S
C458 C457 1.524 . S
C458 C459 1.415 . S
C459 H429 0.950 . S
C459 C454 1.363 . S
C459 C458 1.415 . S
H460 C457 0.999 . S
H461 C442 0.913 . S
H462 C480 0.951 . S
H463 C482 0.951 . S
H464 C484 0.950 . S
H465 C485 0.950 . S
H466 C487 0.950 . S
H467 C490 0.950 . S
H468 C491 0.950 . S
H469 C493 0.950 . S
H470 C494 0.950 . S
H471 C495 0.951 . S
H472 C497 0.951 . S
H473 C499 0.950 . S
H474 C500 0.950 . S
H475 C502 0.950 . S
H476 C505 0.950 . S
H477 C506 0.950 . S
H478 C508 0.950 . S
H479 C509 0.950 . S
C480 H462 0.951 . S
C480 C481 1.366 . S
C480 C482 1.388 . S
C481 C480 1.366 . S
C481 C485 1.385 . S
C482 H463 0.951 . S
C482 C480 1.388 . S
C482 C483 1.366 . S
C483 C482 1.366 . S
C483 C484 1.414 . S
C483 C486 1.499 . S
C484 H464 0.950 . S
C484 C483 1.414 . S
C484 C485 1.374 . S
C485 H465 0.950 . S
C485 C481 1.385 . S
C485 C484 1.374 . S
C486 C483 1.499 . S
C486 C487 1.373 . S
C486 C488 1.389 . S
C487 H466 0.950 . S
C487 C486 1.373 . S
C487 C503 1.377 . S
C488 C486 1.389 . S
C488 C489 1.524 . S
C488 C502 1.377 . S
C489 C488 1.524 . S
C489 C490 1.397 . S
C489 C494 1.363 . S
C490 H467 0.950 . S
C490 C489 1.397 . S
C490 C491 1.334 . S
C491 H468 0.950 . S
C491 C490 1.334 . S
C491 C492 1.287 . S
C492 C491 1.287 . S
C492 C493 1.524 . S
C492 H511 0.913 . S
C493 H469 0.950 . S
C493 C492 1.524 . S
C493 C494 1.415 . S
C494 H470 0.950 . S
C494 C489 1.363 . S
C494 C493 1.415 . S
C495 H471 0.951 . S
C495 C496 1.366 . S
C495 C497 1.388 . S
C496 C495 1.366 . S
C496 C500 1.385 . S
C497 H472 0.951 . S
C497 C495 1.388 . S
C497 C498 1.366 . S
C498 C497 1.366 . S
C498 C499 1.414 . S
C498 C501 1.499 . S
C499 H473 0.950 . S
C499 C498 1.414 . S
C499 C500 1.374 . S
C500 H474 0.950 . S
C500 C496 1.385 . S
C500 C499 1.374 . S
C501 C498 1.499 . S
C501 C502 1.373 . S
C501 C503 1.389 . S
C502 H475 0.950 . S
C502 C488 1.377 . S
C502 C501 1.373 . S
C503 C487 1.377 . S
C503 C501 1.389 . S
C503 C504 1.524 . S
C504 C503 1.524 . S
C504 C505 1.397 . S
C504 C509 1.363 . S
C505 H476 0.950 . S
C505 C504 1.397 . S
C505 C506 1.334 . S
C506 H477 0.950 . S
C506 C505 1.334 . S
C506 C507 1.287 . S
C507 C506 1.287 . S
C507 C508 1.524 . S
C507 H510 0.999 . S
C508 H478 0.950 . S
C508 C507 1.524 . S
C508 C509 1.415 . S
C509 H479 0.950 . S
C509 C504 1.363 . S
C509 C508 1.415 . S
H510 C507 0.999 . S
H511 C492 0.913 . S
H512 C530 0.951 . S
H513 C532 0.951 . S
H514 C534 0.950 . S
H515 C535 0.950 . S
H516 C537 0.950 . S
H517 C540 0.950 . S
H518 C541 0.950 . S
H519 C543 0.950 . S
H520 C544 0.950 . S
H521 C545 0.951 . S
H522 C547 0.951 . S
H523 C549 0.950 . S
H524 C550 0.950 . S
H525 C552 0.950 . S
H526 C555 0.950 . S
H527 C556 0.950 . S
H528 C558 0.950 . S
H529 C559 0.950 . S
C530 H512 0.951 . S
C530 C531 1.366 . S
C530 C532 1.388 . S
C531 C530 1.366 . S
C531 C535 1.385 . S
C532 H513 0.951 . S
C532 C530 1.388 . S
C532 C533 1.366 . S
C533 C532 1.366 . S
C533 C534 1.414 . S
C533 C536 1.499 . S
C534 H514 0.950 . S
C534 C533 1.414 . S
C534 C535 1.374 . S
C535 H515 0.950 . S
C535 C531 1.385 . S
C535 C534 1.374 . S
C536 C533 1.499 . S
C536 C537 1.373 . S
C536 C538 1.389 . S
C537 H516 0.950 . S
C537 C536 1.373 . S
C537 C553 1.377 . S
C538 C536 1.389 . S
C538 C539 1.524 . S
C538 C552 1.377 . S
C539 C538 1.524 . S
C539 C540 1.397 . S
C539 C544 1.363 . S
C540 H517 0.950 . S
C540 C539 1.397 . S
C540 C541 1.334 . S
C541 H518 0.950 . S
C541 C540 1.334 . S
C541 C542 1.287 . S
C542 C541 1.287 . S
C542 C543 1.524 . S
C542 H561 0.913 . S
C543 H519 0.950 . S
C543 C542 1.524 . S
C543 C544 1.415 . S
C544 H520 0.950 . S
C544 C539 1.363 . S
C544 C543 1.415 . S
C545 H521 0.951 . S
C545 C546 1.366 . S
C545 C547 1.388 . S
C546 C545 1.366 . S
C546 C550 1.385 . S
C547 H522 0.951 . S
C547 C545 1.388 . S
C547 C548 1.366 . S
C548 C547 1.366 . S
C548 C549 1.414 . S
C548 C551 1.499 . S
C549 H523 0.950 . S
C549 C548 1.414 . S
C549 C550 1.374 . S
C550 H524 0.950 . S
C550 C546 1.385 . S
C550 C549 1.374 . S
C551 C548 1.499 . S
C551 C552 1.373 . S
C551 C553 1.389 . S
C552 H525 0.950 . S
C552 C538 1.377 . S
C552 C551 1.373 . S
C553 C537 1.377 . S
C553 C551 1.389 . S
C553 C554 1.524 . S
C554 C553 1.524 . S
C554 C555 1.397 . S
C554 C559 1.363 . S
C555 H526 0.950 . S
C555 C554 1.397 . S
C555 C556 1.334 . S
C556 H527 0.950 . S
C556 C555 1.334 . S
C556 C557 1.287 . S
C557 C556 1.287 . S
C557 C558 1.524 . S
C557 H560 0.999 . S
C558 H528 0.950 . S
C558 C557 1.524 . S
C558 C559 1.415 . S
C559 H529 0.950 . S
C559 C554 1.363 . S
C559 C558 1.415 . S
H560 C557 0.999 . S
H561 C542 0.913 . S
H562 C580 0.951 . S
H563 C582 0.951 . S
H564 C584 0.950 . S
H565 C585 0.950 . S
H566 C587 0.950 . S
H567 C590 0.950 . S
H568 C591 0.950 . S
H569 C593 0.950 . S
H570 C594 0.950 . S
H571 C595 0.951 . S
H572 C597 0.951 . S
H573 C599 0.950 . S
H574 C600 0.950 . S
H575 C602 0.950 . S
H576 C605 0.950 . S
H577 C606 0.950 . S
H578 C608 0.950 . S
H579 C609 0.950 . S
C580 H562 0.951 . S
C580 C581 1.366 . S
C580 C582 1.388 . S
C581 C580 1.366 . S
C581 C585 1.385 . S
C582 H563 0.951 . S
C582 C580 1.388 . S
C582 C583 1.366 . S
C583 C582 1.366 . S
C583 C584 1.414 . S
C583 C586 1.499 . S
C584 H564 0.950 . S
C584 C583 1.414 . S
C584 C585 1.374 . S
C585 H565 0.950 . S
C585 C581 1.385 . S
C585 C584 1.374 . S
C586 C583 1.499 . S
C586 C587 1.373 1_556 S
C586 C588 1.389 . S
C587 H566 0.950 . S
C587 C586 1.373 1_554 S
C587 C603 1.377 . S
C588 C586 1.389 . S
C588 C589 1.524 . S
C588 C602 1.377 . S
C589 C588 1.524 . S
C589 C590 1.397 . S
C589 C594 1.363 . S
C590 H567 0.950 . S
C590 C589 1.397 . S
C590 C591 1.334 . S
C591 H568 0.950 . S
C591 C590 1.334 . S
C591 C592 1.287 . S
C592 C591 1.287 . S
C592 C593 1.524 . S
C592 H611 0.913 . S
C593 H569 0.950 . S
C593 C592 1.524 . S
C593 C594 1.415 . S
C594 H570 0.950 . S
C594 C589 1.363 . S
C594 C593 1.415 . S
C595 H571 0.951 . S
C595 C596 1.366 . S
C595 C597 1.388 . S
C596 C595 1.366 . S
C596 C600 1.385 . S
C597 H572 0.951 . S
C597 C595 1.388 . S
C597 C598 1.366 . S
C598 C597 1.366 . S
C598 C599 1.414 . S
C598 C601 1.499 . S
C599 H573 0.950 . S
C599 C598 1.414 . S
C599 C600 1.374 . S
C600 H574 0.950 . S
C600 C596 1.385 . S
C600 C599 1.374 . S
C601 C598 1.499 . S
C601 C602 1.373 1_554 S
C601 C603 1.389 . S
C602 H575 0.950 . S
C602 C588 1.377 . S
C602 C601 1.373 1_556 S
C603 C587 1.377 . S
C603 C601 1.389 . S
C603 C604 1.524 . S
C604 C603 1.524 . S
C604 C605 1.397 . S
C604 C609 1.363 . S
C605 H576 0.950 . S
C605 C604 1.397 . S
C605 C606 1.334 . S
C606 H577 0.950 . S
C606 C605 1.334 . S
C606 C607 1.287 . S
C607 C606 1.287 . S
C607 C608 1.524 . S
C607 H610 0.999 . S
C608 H578 0.950 . S
C608 C607 1.524 . S
C608 C609 1.415 . S
C609 H579 0.950 . S
C609 C604 1.363 . S
C609 C608 1.415 . S
H610 C607 0.999 . S
H611 C592 0.913 . S
H612 C630 0.951 . S
H613 C632 0.951 . S
H614 C634 0.950 . S
H615 C635 0.950 . S
H616 C637 0.950 . S
H617 C640 0.950 . S
H618 C641 0.950 . S
H619 C643 0.950 1_545 S
H620 C644 0.950 . S
H621 C645 0.951 . S
H622 C647 0.951 . S
H623 C649 0.950 . S
H624 C650 0.950 . S
H625 C652 0.950 . S
H626 C655 0.950 . S
H627 C656 0.950 . S
H628 C658 0.950 1_565 S
H629 C659 0.950 . S
C630 H612 0.951 . S
C630 C631 1.366 . S
C630 C632 1.388 . S
C631 C630 1.366 . S
C631 C635 1.385 . S
C632 H613 0.951 . S
C632 C630 1.388 . S
C632 C633 1.366 . S
C633 C632 1.366 . S
C633 C634 1.414 . S
C633 C636 1.499 . S
C634 H614 0.950 . S
C634 C633 1.414 . S
C634 C635 1.374 . S
C635 H615 0.950 . S
C635 C631 1.385 . S
C635 C634 1.374 . S
C636 C633 1.499 . S
C636 C637 1.373 . S
C636 C638 1.389 . S
C637 H616 0.950 . S
C637 C636 1.373 . S
C637 C653 1.377 1_565 S
C638 C636 1.389 . S
C638 C639 1.524 . S
C638 C652 1.377 1_565 S
C639 C638 1.524 . S
C639 C640 1.397 . S
C639 C644 1.363 1_565 S
C640 H617 0.950 . S
C640 C639 1.397 . S
C640 C641 1.334 . S
C641 H618 0.950 . S
C641 C640 1.334 . S
C641 C642 1.287 . S
C642 C641 1.287 . S
C642 C643 1.524 . S
C642 H661 0.913 . S
C643 H619 0.950 1_565 S
C643 C642 1.524 . S
C643 C644 1.415 1_565 S
C644 H620 0.950 . S
C644 C639 1.363 1_545 S
C644 C643 1.415 1_545 S
C645 H621 0.951 . S
C645 C646 1.366 . S
C645 C647 1.388 . S
C646 C645 1.366 . S
C646 C650 1.385 . S
C647 H622 0.951 . S
C647 C645 1.388 . S
C647 C648 1.366 . S
C648 C647 1.366 . S
C648 C649 1.414 . S
C648 C651 1.499 . S
C649 H623 0.950 . S
C649 C648 1.414 . S
C649 C650 1.374 . S
C650 H624 0.950 . S
C650 C646 1.385 . S
C650 C649 1.374 . S
C651 C648 1.499 . S
C651 C652 1.373 . S
C651 C653 1.389 . S
C652 H625 0.950 . S
C652 C638 1.377 1_545 S
C652 C651 1.373 . S
C653 C637 1.377 1_545 S
C653 C651 1.389 . S
C653 C654 1.524 . S
C654 C653 1.524 . S
C654 C655 1.397 . S
C654 C659 1.363 1_545 S
C655 H626 0.950 . S
C655 C654 1.397 . S
C655 C656 1.334 . S
C656 H627 0.950 . S
C656 C655 1.334 . S
C656 C657 1.287 . S
C657 C656 1.287 . S
C657 C658 1.524 . S
C657 H660 0.999 . S
C658 H628 0.950 1_545 S
C658 C657 1.524 . S
C658 C659 1.415 1_545 S
C659 H629 0.950 . S
C659 C654 1.363 1_565 S
C659 C658 1.415 1_565 S
H660 C657 0.999 . S
H661 C642 0.913 . S
H662 C680 0.951 . S
H663 C682 0.951 . S
H664 C684 0.950 . S
H665 C685 0.950 . S
H666 C687 0.950 . S
H667 C690 0.950 . S
H668 C691 0.950 . S
H669 C693 0.950 . S
H670 C694 0.950 . S
H671 C695 0.951 . S
H672 C697 0.951 . S
H673 C699 0.950 . S
H674 C700 0.950 . S
H675 C702 0.950 . S
H676 C705 0.950 . S
H677 C706 0.950 . S
H678 C708 0.950 . S
H679 C709 0.950 . S
C680 H662 0.951 . S
C680 C681 1.366 . S
C680 C682 1.388 . S
C681 C680 1.366 . S
C681 C685 1.385 . S
C682 H663 0.951 . S
C682 C680 1.388 . S
C682 C683 1.366 . S
C683 C682 1.366 . S
C683 C684 1.414 . S
C683 C686 1.499 . S
C684 H664 0.950 . S
C684 C683 1.414 . S
C684 C685 1.374 . S
C685 H665 0.950 . S
C685 C681 1.385 . S
C685 C684 1.374 . S
C686 C683 1.499 . S
C686 C687 1.373 . S
C686 C688 1.389 1_655 S
C687 H666 0.950 . S
C687 C686 1.373 . S
C687 C703 1.377 1_565 S
C688 C686 1.389 1_455 S
C688 C689 1.524 . S
C688 C702 1.377 . S
C689 C688 1.524 . S
C689 C690 1.397 . S
C689 C694 1.363 . S
C690 H667 0.950 . S
C690 C689 1.397 . S
C690 C691 1.334 . S
C691 H668 0.950 . S
C691 C690 1.334 . S
C691 C692 1.287 . S
C692 C691 1.287 . S
C692 C693 1.524 . S
C692 H711 0.913 . S
C693 H669 0.950 . S
C693 C692 1.524 . S
C693 C694 1.415 . S
C694 H670 0.950 . S
C694 C689 1.363 . S
C694 C693 1.415 . S
C695 H671 0.951 . S
C695 C696 1.366 . S
C695 C697 1.388 . S
C696 C695 1.366 . S
C696 C700 1.385 . S
C697 H672 0.951 . S
C697 C695 1.388 . S
C697 C698 1.366 . S
C698 C697 1.366 . S
C698 C699 1.414 . S
C698 C701 1.499 . S
C699 H673 0.950 . S
C699 C698 1.414 . S
C699 C700 1.374 . S
C700 H674 0.950 . S
C700 C696 1.385 . S
C700 C699 1.374 . S
C701 C698 1.499 . S
C701 C702 1.373 1_545 S
C701 C703 1.389 1_455 S
C702 H675 0.950 . S
C702 C688 1.377 . S
C702 C701 1.373 1_565 S
C703 C687 1.377 1_545 S
C703 C701 1.389 1_655 S
C703 C704 1.524 . S
C704 C703 1.524 . S
C704 C705 1.397 . S
C704 C709 1.363 . S
C705 H676 0.950 . S
C705 C704 1.397 . S
C705 C706 1.334 . S
C706 H677 0.950 . S
C706 C705 1.334 . S
C706 C707 1.287 . S
C707 C706 1.287 . S
C707 C708 1.524 . S
C707 H710 0.999 . S
C708 H678 0.950 . S
C708 C707 1.524 . S
C708 C709 1.415 . S
C709 H679 0.950 . S
C709 C704 1.363 . S
C709 C708 1.415 . S
H710 C707 0.999 . S
H711 C692 0.913 . S
H712 C730 0.951 . S
H713 C732 0.951 . S
H714 C734 0.950 . S
H715 C735 0.950 . S
H716 C737 0.950 . S
H717 C740 0.950 1_455 S
H718 C741 0.950 . S
H719 C743 0.950 . S
H720 C744 0.950 . S
H721 C745 0.951 . S
H722 C747 0.951 . S
H723 C749 0.950 . S
H724 C750 0.950 . S
H725 C752 0.950 . S
H726 C755 0.950 1_655 S
H727 C756 0.950 . S
H728 C758 0.950 . S
H729 C759 0.950 . S
C730 H712 0.951 . S
C730 C731 1.366 . S
C730 C732 1.388 . S
C731 C730 1.366 . S
C731 C735 1.385 . S
C732 H713 0.951 . S
C732 C730 1.388 . S
C732 C733 1.366 . S
C733 C732 1.366 . S
C733 C734 1.414 . S
C733 C736 1.499 . S
C734 H714 0.950 . S
C734 C733 1.414 . S
C734 C735 1.374 . S
C735 H715 0.950 . S
C735 C731 1.385 . S
C735 C734 1.374 . S
C736 C733 1.499 . S
C736 C737 1.373 . S
C736 C738 1.389 . S
C737 H716 0.950 . S
C737 C736 1.373 . S
C737 C753 1.377 1_655 S
C738 C736 1.389 . S
C738 C739 1.524 . S
C738 C752 1.377 1_655 S
C739 C738 1.524 . S
C739 C740 1.397 . S
C739 C744 1.363 . S
C740 H717 0.950 1_655 S
C740 C739 1.397 . S
C740 C741 1.334 . S
C741 H718 0.950 . S
C741 C740 1.334 . S
C741 C742 1.287 . S
C742 C741 1.287 . S
C742 C743 1.524 . S
C742 H761 0.913 . S
C743 H719 0.950 . S
C743 C742 1.524 . S
C743 C744 1.415 . S
C744 H720 0.950 . S
C744 C739 1.363 . S
C744 C743 1.415 . S
C745 H721 0.951 . S
C745 C746 1.366 . S
C745 C747 1.388 . S
C746 C745 1.366 . S
C746 C750 1.385 . S
C747 H722 0.951 . S
C747 C745 1.388 . S
C747 C748 1.366 . S
C748 C747 1.366 . S
C748 C749 1.414 . S
C748 C751 1.499 . S
C749 H723 0.950 . S
C749 C748 1.414 . S
C749 C750 1.374 . S
C750 H724 0.950 . S
C750 C746 1.385 . S
C750 C749 1.374 . S
C751 C748 1.499 . S
C751 C752 1.373 . S
C751 C753 1.389 . S
C752 H725 0.950 . S
C752 C738 1.377 1_455 S
C752 C751 1.373 . S
C753 C737 1.377 1_455 S
C753 C751 1.389 . S
C753 C754 1.524 . S
C754 C753 1.524 . S
C754 C755 1.397 . S
C754 C759 1.363 . S
C755 H726 0.950 1_455 S
C755 C754 1.397 . S
C755 C756 1.334 . S
C756 H727 0.950 . S
C756 C755 1.334 . S
C756 C757 1.287 . S
C757 C756 1.287 . S
C757 C758 1.524 . S
C757 H760 0.999 . S
C758 H728 0.950 . S
C758 C757 1.524 . S
C758 C759 1.415 . S
C759 H729 0.950 . S
C759 C754 1.363 . S
C759 C758 1.415 . S
H760 C757 0.999 . S
H761 C742 0.913 . S
H762 C780 0.951 . S
H763 C782 0.951 . S
H764 C784 0.950 . S
H765 C785 0.950 . S
H766 C787 0.950 . S
H767 C790 0.950 . S
H768 C791 0.950 . S
H769 C793 0.950 . S
H770 C794 0.950 . S
H771 C795 0.951 . S
H772 C797 0.951 . S
H773 C799 0.950 . S
H774 C800 0.950 . S
H775 C802 0.950 . S
H776 C805 0.950 . S
H777 C806 0.950 . S
H778 C808 0.950 . S
H779 C809 0.950 . S
C780 H762 0.951 . S
C780 C781 1.366 . S
C780 C782 1.388 . S
C781 C780 1.366 . S
C781 C785 1.385 . S
C782 H763 0.951 . S
C782 C780 1.388 . S
C782 C783 1.366 . S
C783 C782 1.366 . S
C783 C784 1.414 . S
C783 C786 1.499 . S
C784 H764 0.950 . S
C784 C783 1.414 . S
C784 C785 1.374 . S
C785 H765 0.950 . S
C785 C781 1.385 . S
C785 C784 1.374 . S
C786 C783 1.499 . S
C786 C787 1.373 . S
C786 C788 1.389 . S
C787 H766 0.950 . S
C787 C786 1.373 . S
C787 C803 1.377 . S
C788 C786 1.389 . S
C788 C789 1.524 . S
C788 C802 1.377 . S
C789 C788 1.524 . S
C789 C790 1.397 . S
C789 C794 1.363 . S
C790 H767 0.950 . S
C790 C789 1.397 . S
C790 C791 1.334 . S
C791 H768 0.950 . S
C791 C790 1.334 . S
C791 C792 1.287 . S
C792 C791 1.287 . S
C792 C793 1.524 . S
C792 H811 0.913 . S
C793 H769 0.950 . S
C793 C792 1.524 . S
C793 C794 1.415 . S
C794 H770 0.950 . S
C794 C789 1.363 . S
C794 C793 1.415 . S
C795 H771 0.951 . S
C795 C796 1.366 . S
C795 C797 1.388 . S
C796 C795 1.366 . S
C796 C800 1.385 . S
C797 H772 0.951 . S
C797 C795 1.388 . S
C797 C798 1.366 . S
C798 C797 1.366 . S
C798 C799 1.414 . S
C798 C801 1.499 . S
C799 H773 0.950 . S
C799 C798 1.414 . S
C799 C800 1.374 . S
C800 H774 0.950 . S
C800 C796 1.385 . S
C800 C799 1.374 . S
C801 C798 1.499 . S
C801 C802 1.373 . S
C801 C803 1.389 . S
C802 H775 0.950 . S
C802 C788 1.377 . S
C802 C801 1.373 . S
C803 C787 1.377 . S
C803 C801 1.389 . S
C803 C804 1.524 . S
C804 C803 1.524 . S
C804 C805 1.397 . S
C804 C809 1.363 . S
C805 H776 0.950 . S
C805 C804 1.397 . S
C805 C806 1.334 . S
C806 H777 0.950 . S
C806 C805 1.334 . S
C806 C807 1.287 . S
C807 C806 1.287 . S
C807 C808 1.524 . S
C807 H810 0.999 . S
C808 H778 0.950 . S
C808 C807 1.524 . S
C808 C809 1.415 . S
C809 H779 0.950 . S
C809 C804 1.363 . S
C809 C808 1.415 . S
H810 C807 0.999 . S
H811 C792 0.913 . S
H812 C830 0.951 . S
H813 C832 0.951 . S
H814 C834 0.950 . S
H815 C835 0.950 . S
H816 C837 0.950 . S
H817 C840 0.950 . S
H818 C841 0.950 1_554 S
H819 C843 0.950 . S
H820 C844 0.950 . S
H821 C845 0.951 . S
H822 C847 0.951 . S
H823 C849 0.950 . S
H824 C850 0.950 . S
H825 C852 0.950 . S
H826 C855 0.969 . S
H827 C856 0.950 1_556 S
H828 C858 0.950 . S
H829 C859 0.950 . S
C830 H812 0.951 . S
C830 C831 1.366 . S
C830 C832 1.388 . S
C831 C830 1.366 . S
C831 C835 1.385 . S
C832 H813 0.951 . S
C832 C830 1.388 . S
C832 C833 1.366 . S
C833 C832 1.366 . S
C833 C834 1.414 . S
C833 C836 1.499 . S
C834 H814 0.950 . S
C834 C833 1.414 . S
C834 C835 1.374 . S
C835 H815 0.950 . S
C835 C831 1.385 . S
C835 C834 1.374 . S
C836 C833 1.499 . S
C836 C837 1.373 . S
C836 C838 1.389 1_554 S
C837 H816 0.950 . S
C837 C836 1.373 . S
C837 C853 1.377 . S
C838 C836 1.389 1_556 S
C838 C839 1.524 . S
C838 C852 1.377 . S
C839 C838 1.524 . S
C839 C840 1.397 1_556 S
C839 C844 1.363 . S
C840 H817 0.950 . S
C840 C839 1.397 1_554 S
C840 C841 1.334 1_554 S
C841 H818 0.950 1_556 S
C841 C840 1.334 1_556 S
C841 C842 1.287 . S
C842 C841 1.287 . S
C842 C843 1.524 . S
C842 H861 0.913 . S
C843 H819 0.950 . S
C843 C842 1.524 . S
C843 C844 1.415 . S
C844 H820 0.950 . S
C844 C839 1.363 . S
C844 C843 1.415 . S
C845 H821 0.951 . S
C845 C846 1.366 . S
C845 C847 1.388 . S
C846 C845 1.366 . S
C846 C850 1.385 . S
C847 H822 0.951 . S
C847 C845 1.388 . S
C847 C848 1.366 . S
C848 C847 1.366 . S
C848 C849 1.414 . S
C848 C851 1.499 . S
C849 H823 0.950 . S
C849 C848 1.414 . S
C849 C850 1.374 . S
C850 H824 0.950 . S
C850 C846 1.385 . S
C850 C849 1.374 . S
C851 C848 1.499 . S
C851 C852 1.373 . S
C851 C853 1.389 1_556 S
C852 H825 0.950 . S
C852 C838 1.377 . S
C852 C851 1.373 . S
C853 C837 1.377 . S
C853 C851 1.389 1_554 S
C853 C854 1.524 . S
C854 C853 1.524 . S
C854 C855 1.383 1_554 S
C854 C859 1.363 . S
C855 H826 0.969 . S
C855 C854 1.383 1_556 S
C855 C856 1.329 1_556 S
C856 H827 0.950 1_554 S
C856 C855 1.329 1_554 S
C856 C857 1.287 . S
C857 C856 1.287 . S
C857 C858 1.524 . S
C857 H860 0.999 . S
C858 H828 0.950 . S
C858 C857 1.524 . S
C858 C859 1.415 . S
C859 H829 0.950 . S
C859 C854 1.363 . S
C859 C858 1.415 . S
H860 C857 0.999 . S
H861 C842 0.913 . S
H862 C880 0.951 . S
H863 C882 0.951 . S
H864 C884 0.950 . S
H865 C885 0.950 . S
H866 C887 0.950 . S
H867 C890 0.950 . S
H868 C891 0.950 . S
H869 C893 0.950 . S
H870 C894 0.950 . S
H871 C895 0.951 . S
H872 C897 0.951 . S
H873 C899 0.950 . S
H874 C900 0.950 . S
H875 C902 0.950 . S
H876 C905 0.950 . S
H877 C906 0.950 . S
H878 C908 0.950 . S
H879 C909 0.950 . S
C880 H862 0.951 . S
C880 C881 1.366 . S
C880 C882 1.388 . S
C881 C880 1.366 . S
C881 C885 1.385 . S
C882 H863 0.951 . S
C882 C880 1.388 . S
C882 C883 1.366 . S
C883 C882 1.366 . S
C883 C884 1.414 . S
C883 C886 1.499 . S
C884 H864 0.950 . S
C884 C883 1.414 . S
C884 C885 1.374 . S
C885 H865 0.950 . S
C885 C881 1.385 . S
C885 C884 1.374 . S
C886 C883 1.499 . S
C886 C887 1.373 . S
C886 C888 1.389 . S
C887 H866 0.950 . S
C887 C886 1.373 . S
C887 C903 1.377 . S
C888 C886 1.389 . S
C888 C889 1.524 . S
C888 C902 1.377 . S
C889 C888 1.524 . S
C889 C890 1.397 . S
C889 C894 1.363 . S
C890 H867 0.950 . S
C890 C889 1.397 . S
C890 C891 1.334 . S
C891 H868 0.950 . S
C891 C890 1.334 . S
C891 C892 1.287 . S
C892 C891 1.287 . S
C892 C893 1.524 . S
C892 H911 0.913 . S
C893 H869 0.950 . S
C893 C892 1.524 . S
C893 C894 1.415 . S
C894 H870 0.950 . S
C894 C889 1.363 . S
C894 C893 1.415 . S
C895 H871 0.951 . S
C895 C896 1.366 . S
C895 C897 1.388 . S
C896 C895 1.366 . S
C896 C900 1.385 . S
C897 H872 0.951 . S
C897 C895 1.388 . S
C897 C898 1.366 . S
C898 C897 1.366 . S
C898 C899 1.414 . S
C898 C901 1.499 . S
C899 H873 0.950 . S
C899 C898 1.414 . S
C899 C900 1.374 . S
C900 H874 0.950 . S
C900 C896 1.385 . S
C900 C899 1.374 . S
C901 C898 1.499 . S
C901 C902 1.373 . S
C901 C903 1.389 . S
C902 H875 0.950 . S
C902 C888 1.377 . S
C902 C901 1.373 . S
C903 C887 1.377 . S
C903 C901 1.389 . S
C903 C904 1.524 . S
C904 C903 1.524 . S
C904 C905 1.397 . S
C904 C909 1.363 . S
C905 H876 0.950 . S
C905 C904 1.397 . S
C905 C906 1.334 . S
C906 H877 0.950 . S
C906 C905 1.334 . S
C906 C907 1.287 . S
C907 C906 1.287 . S
C907 C908 1.524 . S
C907 H910 0.999 . S
C908 H878 0.950 . S
C908 C907 1.524 . S
C908 C909 1.415 . S
C909 H879 0.950 . S
C909 C904 1.363 . S
C909 C908 1.415 . S
H910 C907 0.999 . S
H911 C892 0.913 . S
C131 C77 1.494 . S
C146 C13 1.400 . S
C181 C105 1.494 . S
C196 C27 1.400 . S
C231 C36 1.462 . S
C246 C92 1.462 . S
C281 C53 1.494 . S
C296 C67 1.493 . S
C331 C97 1.400 . S
C346 C7 1.494 . S
C381 C22 1.462 . S
C396 C64 1.462 . S
C431 C81 1.494 . S
C446 C39 1.494 . S
C481 C49 1.494 . S
C496 C111 1.400 . S
C531 C63 1.493 . S
C546 C83 1.399 . S
C581 C21 1.494 . S
C596 C41 1.399 . S
C631 C55 1.400 . S
C646 C35 1.494 . S
C681 C50 1.461 . S
C696 C8 1.462 . S
C731 C25 1.494 . S
C746 C11 1.494 . S
C781 C109 1.494 . S
C796 C95 1.494 . S
C831 C69 1.400 . S
C846 C91 1.494 . S
C881 C78 1.461 . S
C896 C106 1.462 . S
