# Generated by pormake.
# Topology vbc, (5)-cn, num edge types: 1
# Building blocks:
#     Node 0, Type 0, BuildingBlock: BEQFEK_clean_sbu_0, # of connection points: 5
#     Node 1, Type 0, BuildingBlock: BEQFEK_clean_sbu_0, # of connection points: 5
#     Node 2, Type 0, BuildingBlock: BEQFEK_clean_sbu_0, # of connection points: 5
#     Node 3, Type 0, BuildingBlock: BEQFEK_clean_sbu_0, # of connection points: 5
#     Node 4, Type 0, BuildingBlock: BEQFEK_clean_sbu_0, # of connection points: 5
#     Node 5, Type 0, BuildingBlock: BEQFEK_clean_sbu_0, # of connection points: 5
#     Node 6, Type 0, BuildingBlock: BEQFEK_clean_sbu_0, # of connection points: 5
#     Node 7, Type 0, BuildingBlock: BEQFEK_clean_sbu_0, # of connection points: 5
#     Node 8, Type 0, BuildingBlock: BEQFEK_clean_sbu_0, # of connection points: 5
#     Node 9, Type 0, BuildingBlock: BEQFEK_clean_sbu_0, # of connection points: 5
#     Node 10, Type 0, BuildingBlock: BEQFEK_clean_sbu_0, # of connection points: 5
#     Node 11, Type 0, BuildingBlock: BEQFEK_clean_sbu_0, # of connection points: 5
#     Node 12, Type 0, BuildingBlock: BEQFEK_clean_sbu_0, # of connection points: 5
#     Node 13, Type 0, BuildingBlock: BEQFEK_clean_sbu_0, # of connection points: 5
#     Node 14, Type 0, BuildingBlock: BEQFEK_clean_sbu_0, # of connection points: 5
#     Node 15, Type 0, BuildingBlock: BEQFEK_clean_sbu_0, # of connection points: 5
#     Node 16, Type 0, BuildingBlock: BEQFEK_clean_sbu_0, # of connection points: 5
#     Node 17, Type 0, BuildingBlock: BEQFEK_clean_sbu_0, # of connection points: 5
#     Node 18, Type 0, BuildingBlock: BEQFEK_clean_sbu_0, # of connection points: 5
#     Node 19, Type 0, BuildingBlock: BEQFEK_clean_sbu_0, # of connection points: 5
#     Node 20, Type 0, BuildingBlock: BEQFEK_clean_sbu_0, # of connection points: 5
#     Node 21, Type 0, BuildingBlock: BEQFEK_clean_sbu_0, # of connection points: 5
#     Node 22, Type 0, BuildingBlock: BEQFEK_clean_sbu_0, # of connection points: 5
#     Node 23, Type 0, BuildingBlock: BEQFEK_clean_sbu_0, # of connection points: 5
#     Node 24, Type 0, BuildingBlock: BEQFEK_clean_sbu_0, # of connection points: 5
#     Node 25, Type 0, BuildingBlock: BEQFEK_clean_sbu_0, # of connection points: 5
#     Node 26, Type 0, BuildingBlock: BEQFEK_clean_sbu_0, # of connection points: 5
#     Node 27, Type 0, BuildingBlock: BEQFEK_clean_sbu_0, # of connection points: 5
#     Node 28, Type 0, BuildingBlock: BEQFEK_clean_sbu_0, # of connection points: 5
#     Node 29, Type 0, BuildingBlock: BEQFEK_clean_sbu_0, # of connection points: 5
#     Node 30, Type 0, BuildingBlock: BEQFEK_clean_sbu_0, # of connection points: 5
#     Node 31, Type 0, BuildingBlock: BEQFEK_clean_sbu_0, # of connection points: 5
#     Edge 32, Type (0, 0), BuildingBlock: KIFKEQ_clean_linker_1, # of connection points: 2
#     Edge 33, Type (0, 0), BuildingBlock: KIFKEQ_clean_linker_1, # of connection points: 2
#     Edge 34, Type (0, 0), BuildingBlock: KIFKEQ_clean_linker_1, # of connection points: 2
#     Edge 35, Type (0, 0), BuildingBlock: KIFKEQ_clean_linker_1, # of connection points: 2
#     Edge 36, Type (0, 0), BuildingBlock: KIFKEQ_clean_linker_1, # of connection points: 2
#     Edge 37, Type (0, 0), BuildingBlock: KIFKEQ_clean_linker_1, # of connection points: 2
#     Edge 38, Type (0, 0), BuildingBlock: KIFKEQ_clean_linker_1, # of connection points: 2
#     Edge 39, Type (0, 0), BuildingBlock: KIFKEQ_clean_linker_1, # of connection points: 2
#     Edge 40, Type (0, 0), BuildingBlock: KIFKEQ_clean_linker_1, # of connection points: 2
#     Edge 41, Type (0, 0), BuildingBlock: KIFKEQ_clean_linker_1, # of connection points: 2
#     Edge 42, Type (0, 0), BuildingBlock: KIFKEQ_clean_linker_1, # of connection points: 2
#     Edge 43, Type (0, 0), BuildingBlock: KIFKEQ_clean_linker_1, # of connection points: 2
#     Edge 44, Type (0, 0), BuildingBlock: KIFKEQ_clean_linker_1, # of connection points: 2
#     Edge 45, Type (0, 0), BuildingBlock: KIFKEQ_clean_linker_1, # of connection points: 2
#     Edge 46, Type (0, 0), BuildingBlock: KIFKEQ_clean_linker_1, # of connection points: 2
#     Edge 47, Type (0, 0), BuildingBlock: KIFKEQ_clean_linker_1, # of connection points: 2
#     Edge 48, Type (0, 0), BuildingBlock: KIFKEQ_clean_linker_1, # of connection points: 2
#     Edge 49, Type (0, 0), BuildingBlock: KIFKEQ_clean_linker_1, # of connection points: 2
#     Edge 50, Type (0, 0), BuildingBlock: KIFKEQ_clean_linker_1, # of connection points: 2
#     Edge 51, Type (0, 0), BuildingBlock: KIFKEQ_clean_linker_1, # of connection points: 2
#     Edge 52, Type (0, 0), BuildingBlock: KIFKEQ_clean_linker_1, # of connection points: 2
#     Edge 53, Type (0, 0), BuildingBlock: KIFKEQ_clean_linker_1, # of connection points: 2
#     Edge 54, Type (0, 0), BuildingBlock: KIFKEQ_clean_linker_1, # of connection points: 2
#     Edge 55, Type (0, 0), BuildingBlock: KIFKEQ_clean_linker_1, # of connection points: 2
#     Edge 56, Type (0, 0), BuildingBlock: KIFKEQ_clean_linker_1, # of connection points: 2
#     Edge 57, Type (0, 0), BuildingBlock: KIFKEQ_clean_linker_1, # of connection points: 2
#     Edge 58, Type (0, 0), BuildingBlock: KIFKEQ_clean_linker_1, # of connection points: 2
#     Edge 59, Type (0, 0), BuildingBlock: KIFKEQ_clean_linker_1, # of connection points: 2
#     Edge 60, Type (0, 0), BuildingBlock: KIFKEQ_clean_linker_1, # of connection points: 2
#     Edge 61, Type (0, 0), BuildingBlock: KIFKEQ_clean_linker_1, # of connection points: 2
#     Edge 62, Type (0, 0), BuildingBlock: KIFKEQ_clean_linker_1, # of connection points: 2
#     Edge 63, Type (0, 0), BuildingBlock: KIFKEQ_clean_linker_1, # of connection points: 2
#     Edge 64, Type (0, 0), BuildingBlock: KIFKEQ_clean_linker_1, # of connection points: 2
#     Edge 65, Type (0, 0), BuildingBlock: KIFKEQ_clean_linker_1, # of connection points: 2
#     Edge 66, Type (0, 0), BuildingBlock: KIFKEQ_clean_linker_1, # of connection points: 2
#     Edge 67, Type (0, 0), BuildingBlock: KIFKEQ_clean_linker_1, # of connection points: 2
#     Edge 68, Type (0, 0), BuildingBlock: KIFKEQ_clean_linker_1, # of connection points: 2
#     Edge 69, Type (0, 0), BuildingBlock: KIFKEQ_clean_linker_1, # of connection points: 2
#     Edge 70, Type (0, 0), BuildingBlock: KIFKEQ_clean_linker_1, # of connection points: 2
#     Edge 71, Type (0, 0), BuildingBlock: KIFKEQ_clean_linker_1, # of connection points: 2
#     Edge 72, Type (0, 0), BuildingBlock: KIFKEQ_clean_linker_1, # of connection points: 2
#     Edge 73, Type (0, 0), BuildingBlock: KIFKEQ_clean_linker_1, # of connection points: 2
#     Edge 74, Type (0, 0), BuildingBlock: KIFKEQ_clean_linker_1, # of connection points: 2
#     Edge 75, Type (0, 0), BuildingBlock: KIFKEQ_clean_linker_1, # of connection points: 2
#     Edge 76, Type (0, 0), BuildingBlock: KIFKEQ_clean_linker_1, # of connection points: 2
#     Edge 77, Type (0, 0), BuildingBlock: KIFKEQ_clean_linker_1, # of connection points: 2
#     Edge 78, Type (0, 0), BuildingBlock: KIFKEQ_clean_linker_1, # of connection points: 2
#     Edge 79, Type (0, 0), BuildingBlock: KIFKEQ_clean_linker_1, # of connection points: 2
#     Edge 80, Type (0, 0), BuildingBlock: KIFKEQ_clean_linker_1, # of connection points: 2
#     Edge 81, Type (0, 0), BuildingBlock: KIFKEQ_clean_linker_1, # of connection points: 2
#     Edge 82, Type (0, 0), BuildingBlock: KIFKEQ_clean_linker_1, # of connection points: 2
#     Edge 83, Type (0, 0), BuildingBlock: KIFKEQ_clean_linker_1, # of connection points: 2
#     Edge 84, Type (0, 0), BuildingBlock: KIFKEQ_clean_linker_1, # of connection points: 2
#     Edge 85, Type (0, 0), BuildingBlock: KIFKEQ_clean_linker_1, # of connection points: 2
#     Edge 86, Type (0, 0), BuildingBlock: KIFKEQ_clean_linker_1, # of connection points: 2
#     Edge 87, Type (0, 0), BuildingBlock: KIFKEQ_clean_linker_1, # of connection points: 2
#     Edge 88, Type (0, 0), BuildingBlock: KIFKEQ_clean_linker_1, # of connection points: 2
#     Edge 89, Type (0, 0), BuildingBlock: KIFKEQ_clean_linker_1, # of connection points: 2
#     Edge 90, Type (0, 0), BuildingBlock: KIFKEQ_clean_linker_1, # of connection points: 2
#     Edge 91, Type (0, 0), BuildingBlock: KIFKEQ_clean_linker_1, # of connection points: 2
#     Edge 92, Type (0, 0), BuildingBlock: KIFKEQ_clean_linker_1, # of connection points: 2
#     Edge 93, Type (0, 0), BuildingBlock: KIFKEQ_clean_linker_1, # of connection points: 2
#     Edge 94, Type (0, 0), BuildingBlock: KIFKEQ_clean_linker_1, # of connection points: 2
#     Edge 95, Type (0, 0), BuildingBlock: KIFKEQ_clean_linker_1, # of connection points: 2
#     Edge 96, Type (0, 0), BuildingBlock: KIFKEQ_clean_linker_1, # of connection points: 2
#     Edge 97, Type (0, 0), BuildingBlock: KIFKEQ_clean_linker_1, # of connection points: 2
#     Edge 98, Type (0, 0), BuildingBlock: KIFKEQ_clean_linker_1, # of connection points: 2
#     Edge 99, Type (0, 0), BuildingBlock: KIFKEQ_clean_linker_1, # of connection points: 2
#     Edge 100, Type (0, 0), BuildingBlock: KIFKEQ_clean_linker_1, # of connection points: 2
#     Edge 101, Type (0, 0), BuildingBlock: KIFKEQ_clean_linker_1, # of connection points: 2
#     Edge 102, Type (0, 0), BuildingBlock: KIFKEQ_clean_linker_1, # of connection points: 2
#     Edge 103, Type (0, 0), BuildingBlock: KIFKEQ_clean_linker_1, # of connection points: 2
#     Edge 104, Type (0, 0), BuildingBlock: KIFKEQ_clean_linker_1, # of connection points: 2
#     Edge 105, Type (0, 0), BuildingBlock: KIFKEQ_clean_linker_1, # of connection points: 2
#     Edge 106, Type (0, 0), BuildingBlock: KIFKEQ_clean_linker_1, # of connection points: 2
#     Edge 107, Type (0, 0), BuildingBlock: KIFKEQ_clean_linker_1, # of connection points: 2
#     Edge 108, Type (0, 0), BuildingBlock: KIFKEQ_clean_linker_1, # of connection points: 2
#     Edge 109, Type (0, 0), BuildingBlock: KIFKEQ_clean_linker_1, # of connection points: 2
#     Edge 110, Type (0, 0), BuildingBlock: KIFKEQ_clean_linker_1, # of connection points: 2
#     Edge 111, Type (0, 0), BuildingBlock: KIFKEQ_clean_linker_1, # of connection points: 2
# Relax obj value: 0.222
# Max RMSD: 0.107
# Mean RMSD: 0.107
data_MOF--net-vbc--node1-BEQFEK_clean_sbu_0--edge1-KIFKEQ_clean_linker_1
_symmetry_space_group_name_H-M    P1
_symmetry_Int_Tables_number       1
_symmetry_cell_setting            triclinic
loop_
_symmetry_equiv_pos_as_xyz
'x, y, z'
_cell_length_a     41.199798
_cell_length_b     77.129373
_cell_length_c     49.938657
_cell_angle_alpha  89.869263
_cell_angle_beta   90.004516
_cell_angle_gamma 90.00483
loop_
_atom_site_label
_atom_site_type_symbol
_atom_site_fract_x
_atom_site_fract_y
_atom_site_fract_z
_atom_type_partial_charge
Co0 Co 0.14054 0.03902 0.44763 0.0
Co1 Co 0.19822 0.04271 0.40883 0.0
C2 C 0.13398 0.02603 0.39098 0.0
O3 O 0.1223 0.02806 0.41439 0.0
O4 O 0.16333 0.03047 0.38621 0.0
C5 C 0.0933 0.02178 0.47859 0.0
O6 O 0.09988 1.00902 0.46206 0.0
C7 C 0.25653 0.0254 0.39213 0.0
C8 C 0.28826 0.04697 0.37992 0.0
C9 C 0.28874 0.02941 0.38635 0.0
N10 N 0.23866 0.03995 0.39056 0.0
N11 N 0.25752 0.05272 0.3823 0.0
C12 C 0.24259 1.00816 0.39985 0.0
H13 H 0.24111 1.00706 0.42194 0.0
H14 H 0.25783 0.99744 0.39203 0.0
H15 H 0.21753 1.00698 0.39192 0.0
C16 C 0.19243 0.02574 0.48491 0.0
N17 N 0.18146 0.03044 0.46028 0.0
N18 N 0.20634 0.03438 0.44506 0.0
C19 C 0.23374 0.03345 0.46014 0.0
C20 C 0.22628 0.02727 0.48569 0.0
C21 C 0.17068 0.02079 0.50764 0.0
H22 H 0.15824 0.03253 0.51528 0.0
H23 H 0.15194 1.01161 0.50044 0.0
H24 H 0.18441 1.01456 0.52416 0.0
O25 O 0.14482 0.06455 0.44081 0.0
O26 O 0.18525 0.06766 0.41154 0.0
H27 H 0.27524 0.04894 0.47075 0.0
H28 H 0.28276 0.03267 0.44627 0.0
C29 C 0.26484 0.04234 0.45296 0.0
H30 H 0.26087 0.05209 0.43699 0.0
H31 H 0.25015 0.06563 0.3808 0.0
O32 O 0.10818 0.03609 0.47602 0.0
C33 C 0.1628 0.07415 0.42609 0.0
Co34 Co 0.14282 0.23826 0.44916 0.0
Co35 Co 0.0851 0.23541 0.41011 0.0
C36 C 0.14977 0.25142 0.39236 0.0
O37 O 0.16142 0.24884 0.41566 0.0
O38 O 0.12008 0.2477 0.38759 0.0
C39 C 0.18938 0.25578 0.47998 0.0
O40 O 0.18132 0.26857 0.46386 0.0
C41 C 0.02706 0.25315 0.39355 0.0
C42 C 0.99487 0.23183 0.38126 0.0
C43 C 0.99476 0.24936 0.38777 0.0
N44 N 0.04463 0.23849 0.39191 0.0
N45 N 0.02549 0.22588 0.3836 0.0
C46 C 0.04134 0.27026 0.40137 0.0
H47 H 0.06645 0.27133 0.39347 0.0
H48 H 0.04281 0.27125 0.42346 0.0
H49 H 0.02634 0.28111 0.39359 0.0
C50 C 0.09103 0.25181 0.48635 0.0
N51 N 0.10205 0.24718 0.46173 0.0
N52 N 0.07715 0.24355 0.44637 0.0
C53 C 0.04968 0.24457 0.46133 0.0
C54 C 0.05711 0.25055 0.48695 0.0
C55 C 0.11273 0.25645 0.50924 0.0
H56 H 0.12547 0.24463 0.51638 0.0
H57 H 0.13124 0.26587 0.50237 0.0
H58 H 0.09897 0.26228 0.52603 0.0
O59 O 0.13775 0.21281 0.4425 0.0
O60 O 0.09774 0.21035 0.41267 0.0
H61 H 0.0224 0.22608 0.43816 0.0
H62 H 1.00778 0.22931 0.47179 0.0
C63 C 0.01847 0.23585 0.45403 0.0
H64 H 1.0008 0.24562 0.44716 0.0
H65 H 0.03259 0.21294 0.38203 0.0
O66 O 0.17555 0.24118 0.47737 0.0
C67 C 0.1197 0.20352 0.42743 0.0
Co68 Co 0.14014 0.24008 0.91449 0.0
Co69 Co 0.19763 0.23727 0.95382 0.0
C70 C 0.13264 0.25303 0.97127 0.0
O71 O 0.12119 0.25042 0.94793 0.0
O72 O 0.16236 0.24944 0.97621 0.0
C73 C 0.08645 0.2542 0.88601 0.0
O74 O 0.08434 0.26455 0.90678 0.0
C75 C 0.25583 0.2548 0.97052 0.0
C76 C 0.28757 0.23331 0.98304 0.0
C77 C 0.28804 0.25085 0.97645 0.0
N78 N 0.238 0.24023 0.97217 0.0
N79 N 0.25687 0.22752 0.98061 0.0
C80 C 0.24185 0.272 0.96264 0.0
H81 H 0.2167 0.27314 0.9704 0.0
H82 H 0.24057 0.27306 0.94055 0.0
H83 H 0.25694 0.28276 0.97052 0.0
C84 C 0.19152 0.25393 0.87766 0.0
N85 N 0.18073 0.24922 0.90231 0.0
N86 N 0.2057 0.24558 0.91758 0.0
C87 C 0.23307 0.24669 0.90249 0.0
C88 C 0.22542 0.25272 0.87687 0.0
C89 C 0.16954 0.25843 0.85485 0.0
H90 H 0.16072 0.2463 0.84539 0.0
H91 H 0.14823 0.26575 0.86232 0.0
H92 H 0.18241 0.26632 0.83958 0.0
O93 O 0.14546 0.21468 0.92119 0.0
O94 O 0.18518 0.21218 0.95124 0.0
H95 H 0.27489 0.23143 0.89197 0.0
H96 H 0.28207 0.24782 0.91632 0.0
C97 C 0.26437 0.23802 0.90971 0.0
H98 H 0.26063 0.2283 0.92577 0.0
H99 H 0.24954 0.21461 0.98221 0.0
O100 O 0.10841 0.24267 0.88542 0.0
C101 C 0.16339 0.20536 0.93635 0.0
Co102 Co 0.14216 0.04125 0.91488 0.0
Co103 Co 0.08512 0.04429 0.95446 0.0
C104 C 0.15013 0.02814 0.97145 0.0
O105 O 0.16154 0.03068 0.94808 0.0
O106 O 0.12054 0.03192 0.97638 0.0
C107 C 0.19242 0.02522 0.88512 0.0
O108 O 0.19077 1.01361 0.90435 0.0
C109 C 0.02804 0.02655 0.9729 0.0
C110 C 0.99628 0.04791 0.98574 0.0
C111 C 0.99587 0.03042 0.97894 0.0
N112 N 0.04572 0.04118 0.97421 0.0
N113 N 0.02692 0.05378 0.98308 0.0
C114 C 0.04172 1.0095 0.96408 0.0
H115 H 0.06614 1.00765 0.97302 0.0
H116 H 0.04476 1.00936 0.94205 0.0
H117 H 0.02554 0.99865 0.97008 0.0
C118 C 0.0905 0.02795 0.87799 0.0
N119 N 0.10111 0.03243 0.90278 0.0
N120 N 0.07611 0.03638 0.91787 0.0
C121 C 0.04891 0.03575 0.90237 0.0
C122 C 0.0567 0.02969 0.87676 0.0
C123 C 0.11279 0.02521 0.85471 0.0
H124 H 0.12646 0.03735 0.85082 0.0
H125 H 0.13058 1.01491 0.85971 0.0
H126 H 0.09951 0.02167 0.83623 0.0
O127 O 0.13741 0.06668 0.92167 0.0
O128 O 0.09797 0.06933 0.95195 0.0
H129 H 1.01579 0.05691 0.89989 0.0
H130 H 0.99662 0.03606 0.90245 0.0
C131 C 0.01726 0.04401 0.90966 0.0
H132 H 1.01515 0.04641 0.93116 0.0
H133 H 0.03412 0.06671 0.98455 0.0
O134 O 0.1739 0.03837 0.88584 0.0
C135 C 0.11979 0.07606 0.93693 0.0
Co136 Co 0.892 0.99035 0.66539 0.0
Co137 Co 0.8345 0.98724 0.70469 0.0
C138 C 0.89933 1.00317 0.72223 0.0
O139 O 0.91083 1.00068 0.69888 0.0
O140 O 0.86966 0.99944 0.72713 0.0
C141 C 0.94556 1.00464 0.63684 0.0
O142 O 0.94771 0.01499 0.65761 0.0
C143 C 0.7762 1.00461 0.7215 0.0
C144 C 0.74457 0.98304 0.73384 0.0
C145 C 0.74402 1.00059 0.72738 0.0
N146 N 0.79411 0.99006 0.72305 0.0
N147 N 0.7753 0.9773 0.73139 0.0
C148 C 0.7901 0.02185 0.71375 0.0
H149 H 0.7914 0.02298 0.69166 0.0
H150 H 0.77493 0.03257 0.72168 0.0
H151 H 0.81523 0.02302 0.72155 0.0
C152 C 0.84049 1.00412 0.62865 0.0
N153 N 0.85132 0.99939 0.65328 0.0
N154 N 0.82637 0.99563 0.66852 0.0
C155 C 0.799 0.9967 0.65343 0.0
C156 C 0.80661 1.0028 0.62785 0.0
C157 C 0.86242 1.00872 0.60586 0.0
H158 H 0.88362 0.01612 0.61336 0.0
H159 H 0.84946 0.01657 0.59059 0.0
H160 H 0.87143 0.99664 0.5964 0.0
O161 O 0.8869 0.96492 0.67194 0.0
O162 O 0.84714 0.96219 0.70191 0.0
H163 H 0.75732 0.98135 0.64281 0.0
H164 H 0.74999 0.99767 0.66726 0.0
C165 C 0.76778 0.98793 0.66059 0.0
H166 H 0.7716 0.97818 0.67659 0.0
H167 H 0.7827 0.9644 0.73289 0.0
O168 O 0.92367 0.99307 0.6363 0.0
C169 C 0.86903 0.95549 0.68699 0.0
Co170 Co 0.89028 0.79153 0.66353 0.0
Co171 Co 0.94723 0.79432 0.70321 0.0
C172 C 0.88211 0.77828 0.72002 0.0
O173 O 0.87076 0.78093 0.69666 0.0
O174 O 0.91173 0.78197 0.72501 0.0
C175 C 0.84002 0.77555 0.63385 0.0
O176 O 0.84189 0.76391 0.65304 0.0
C177 C 1.00381 0.77635 0.72202 0.0
C178 C 0.03594 0.79756 0.73482 0.0
C179 C 0.03603 0.78005 0.72818 0.0
N180 N 0.98646 0.79108 0.7231 0.0
N181 N 1.00544 0.80361 0.73196 0.0
C182 C 0.98985 0.75936 0.71322 0.0
H183 H 0.98674 0.75925 0.6912 0.0
H184 H 1.00585 0.74843 0.71921 0.0
H185 H 0.96542 0.75762 0.7222 0.0
C186 C 0.94189 0.7782 0.62661 0.0
N187 N 0.93128 0.78266 0.65141 0.0
N188 N 0.9563 0.78643 0.66659 0.0
C189 C 0.98355 0.78567 0.65116 0.0
C190 C 0.97573 0.77975 0.62547 0.0
C191 C 0.91962 0.77565 0.60326 0.0
H192 H 0.90597 0.78782 0.59958 0.0
H193 H 0.9018 0.76532 0.60807 0.0
H194 H 0.93291 0.77224 0.58472 0.0
O195 O 0.89514 0.81693 0.67047 0.0
O196 O 0.93454 0.81938 0.70084 0.0
H197 H 0.01727 0.80658 0.64904 0.0
H198 H 0.03584 0.78556 0.65135 0.0
C199 C 1.01541 0.79364 0.65863 0.0
H200 H 0.01752 0.79588 0.68016 0.0
H201 H 0.99851 0.81658 0.73329 0.0
O202 O 0.85848 0.78872 0.63451 0.0
C203 C 0.9128 0.82621 0.68585 0.0
Co204 Co 0.8916 0.78932 0.19663 0.0
Co205 Co 0.83318 0.79312 0.15845 0.0
C206 C 0.89746 0.77649 0.13995 0.0
O207 O 0.90925 0.77828 0.16335 0.0
O208 O 0.86813 0.7811 0.13533 0.0
C209 C 0.94592 0.77522 0.22465 0.0
O210 O 0.94853 0.76514 0.20359 0.0
C211 C 0.77403 0.77631 0.14206 0.0
C212 C 0.7431 0.79828 0.13016 0.0
C213 C 0.74193 0.78072 0.1365 0.0
N214 N 0.79248 0.79066 0.14046 0.0
N215 N 0.77408 0.80366 0.13239 0.0
C216 C 0.78738 0.75889 0.14953 0.0
H217 H 0.7886 0.75759 0.1716 0.0
H218 H 0.77188 0.74837 0.14139 0.0
H219 H 0.81248 0.75756 0.14174 0.0
C220 C 0.84033 0.77591 0.23419 0.0
N221 N 0.85079 0.78075 0.2095 0.0
N222 N 0.82562 0.78457 0.19456 0.0
C223 C 0.79849 0.78348 0.20993 0.0
C224 C 0.80645 0.77725 0.23536 0.0
C225 C 0.86257 0.77108 0.25665 0.0
H226 H 0.87176 0.78306 0.26629 0.0
H227 H 0.88364 0.76373 0.24879 0.0
H228 H 0.84981 0.7631 0.27188 0.0
O229 O 0.88782 0.81483 0.18926 0.0
O230 O 0.84572 0.81806 0.16173 0.0
H231 H 0.77082 0.80218 0.18734 0.0
H232 H 0.75694 0.79875 0.22116 0.0
C233 C 0.76718 0.79231 0.20319 0.0
H234 H 0.74932 0.78262 0.19648 0.0
H235 H 0.78197 0.81648 0.1309 0.0
O236 O 0.92358 0.78653 0.22548 0.0
C237 C 0.8691 0.82449 0.1753 0.0
Co238 Co 0.88963 0.98919 0.1976 0.0
Co239 Co 0.94821 0.98541 0.15966 0.0
C240 C 0.88424 1.00234 0.14103 0.0
O241 O 0.87228 1.00055 0.16438 0.0
O242 O 0.91351 0.99761 0.13652 0.0
C243 C 0.84271 1.00672 0.22826 0.0
O244 O 0.85021 0.01946 0.21189 0.0
C245 C 1.00716 1.00248 0.14352 0.0
C246 C 0.03859 0.98071 0.13179 0.0
C247 C 0.03938 0.99825 0.13815 0.0
N248 N 0.98898 0.98804 0.14181 0.0
N249 N 1.00768 0.97516 0.13383 0.0
C250 C 0.99347 0.01979 0.15098 0.0
H251 H 0.99193 0.02096 0.17305 0.0
H252 H 1.00892 0.03043 0.14306 0.0
H253 H 0.96845 0.02107 0.14297 0.0
C254 C 0.94127 1.00219 0.23556 0.0
N255 N 0.93059 0.99749 0.21086 0.0
N256 N 0.9557 0.99369 0.19585 0.0
C257 C 0.98291 0.99464 0.21113 0.0
C258 C 0.97514 1.00077 0.23657 0.0
C259 C 0.91926 1.00715 0.25809 0.0
H260 H 0.90619 0.99547 0.26533 0.0
H261 H 0.90105 0.01661 0.25079 0.0
H262 H 0.93286 1.01306 0.27491 0.0
O263 O 0.8931 0.96368 0.19003 0.0
O264 O 0.93543 0.96051 0.16271 0.0
H265 H 1.01032 0.97593 0.18847 0.0
H266 H 0.02443 0.97927 0.22223 0.0
C267 C 1.01412 0.98577 0.20428 0.0
H268 H 0.03202 0.99544 0.19751 0.0
H269 H 1.00004 0.96231 0.13231 0.0
O270 O 0.85686 0.9922 0.22571 0.0
C271 C 0.91186 0.95406 0.17609 0.0
Co272 Co 0.14072 0.53941 0.94578 0.0
Co273 Co 0.19855 0.54301 0.90734 0.0
C274 C 0.13409 0.52602 0.88975 0.0
O275 O 0.1225 0.52776 0.91321 0.0
O276 O 0.16321 0.53085 0.88499 0.0
C277 C 0.09596 0.52169 0.97826 0.0
O278 O 0.10569 0.50851 0.9637 0.0
C279 C 0.25583 0.52535 0.88912 0.0
C280 C 0.28736 0.54679 0.87601 0.0
C281 C 0.28795 0.52931 0.88295 0.0
N282 N 0.23804 0.53994 0.88776 0.0
N283 N 0.25669 0.55258 0.87872 0.0
C284 C 0.24234 0.50828 0.89815 0.0
H285 H 0.23937 0.50817 0.92018 0.0
H286 H 0.25858 0.49746 0.89221 0.0
H287 H 0.21789 0.50636 0.88928 0.0
C288 C 0.19253 0.52699 0.98408 0.0
N289 N 0.18199 0.53129 0.95913 0.0
N290 N 0.20713 0.5351 0.94406 0.0
C291 C 0.23427 0.53452 0.95965 0.0
C292 C 0.22634 0.52863 0.98536 0.0
C293 C 0.17033 0.52433 1.00747 0.0
H294 H 0.15337 0.53543 1.00898 0.0
H295 H 0.15586 0.51238 1.0043 0.0
H296 H 0.18378 0.52322 1.02661 0.0
O297 O 0.14407 0.56485 0.93761 0.0
O298 O 0.18609 0.56801 0.90995 0.0
H299 H 0.26759 0.5556 0.9619 0.0
H300 H 0.28656 0.53468 0.95955 0.0
C301 C 0.266 0.54269 0.95228 0.0
H302 H 0.26815 0.54507 0.93077 0.0
H303 H 0.24936 0.56549 0.87712 0.0
O304 O 0.10793 0.5366 0.97391 0.0
C305 C 0.16264 0.57447 0.92343 0.0
Co306 Co 0.14217 0.73907 0.94719 0.0
Co307 Co 0.08368 0.73548 0.90892 0.0
C308 C 0.14793 0.75217 0.89051 0.0
O309 O 0.1598 0.75028 0.91388 0.0
O310 O 0.11859 0.7476 0.88593 0.0
C311 C 0.19434 0.75442 0.97591 0.0
O312 O 0.19377 0.76565 0.95611 0.0
C313 C 0.02491 0.75265 0.89256 0.0
C314 C 0.99337 0.73092 0.88082 0.0
C315 C 0.99268 0.74848 0.88712 0.0
N316 N 0.04299 0.73818 0.89094 0.0
N317 N 0.02423 0.72532 0.88296 0.0
C318 C 0.0387 0.76995 0.89999 0.0
H319 H 0.06377 0.77116 0.89204 0.0
H320 H 0.04017 0.77115 0.92205 0.0
H321 H 0.02337 0.7806 0.89198 0.0
C322 C 0.09059 0.75231 0.98475 0.0
N323 N 0.10124 0.74753 0.9601 0.0
N324 N 0.07613 0.74381 0.94505 0.0
C325 C 0.04889 0.7449 0.96026 0.0
C326 C 0.05668 0.75105 0.98571 0.0
C327 C 0.11267 0.75702 1.00735 0.0
H328 H 0.12237 0.74499 1.01658 0.0
H329 H 0.13342 0.76472 0.99968 0.0
H330 H 0.09966 0.76462 1.02284 0.0
O331 O 0.13843 0.71356 0.93954 0.0
O332 O 0.09628 0.71055 0.91198 0.0
H333 H 0.02136 0.72622 0.93765 0.0
H334 H 1.00717 0.72968 0.97135 0.0
C335 C 0.01761 0.73611 0.95339 0.0
H336 H 0.99983 0.74581 0.94651 0.0
H337 H 0.03178 0.71245 0.8815 0.0
O338 O 0.17442 0.74186 0.97594 0.0
C339 C 0.1197 0.70401 0.92544 0.0
Co340 Co 0.13975 0.73987 0.41407 0.0
Co341 Co 0.19747 0.73703 0.453 0.0
C342 C 0.13275 0.75301 0.47072 0.0
O343 O 0.12112 0.75041 0.44744 0.0
O344 O 0.16246 0.74932 0.47552 0.0
C345 C 0.09226 0.75695 0.38343 0.0
O346 O 0.09874 0.7696 0.40017 0.0
C347 C 0.25591 0.7545 0.46932 0.0
C348 C 0.28755 0.73299 0.48194 0.0
C349 C 0.2881 0.7505 0.47519 0.0
N350 N 0.23798 0.73997 0.47115 0.0
N351 N 0.2568 0.72725 0.47965 0.0
C352 C 0.24201 0.77169 0.46132 0.0
H353 H 0.21689 0.77291 0.46912 0.0
H354 H 0.24069 0.77268 0.43921 0.0
H355 H 0.25721 0.78246 0.46907 0.0
C356 C 0.19117 0.75346 0.37669 0.0
N357 N 0.18038 0.74885 0.40141 0.0
N358 N 0.20538 0.74518 0.41664 0.0
C359 C 0.23271 0.74616 0.40148 0.0
C360 C 0.22505 0.75213 0.37585 0.0
C361 C 0.16925 0.75818 0.35394 0.0
H362 H 0.1571 0.74631 0.34641 0.0
H363 H 0.15031 0.76725 0.36108 0.0
H364 H 0.18279 0.76445 0.33735 0.0
O365 O 0.14486 0.71444 0.42082 0.0
O366 O 0.18486 0.71196 0.45063 0.0
H367 H 0.26022 0.72779 0.42483 0.0
H368 H 0.2744 0.73079 0.39099 0.0
C369 C 0.26398 0.73745 0.40871 0.0
H370 H 0.28177 0.74724 0.4152 0.0
H371 H 0.24939 0.71436 0.4814 0.0
O372 O 0.10727 0.74266 0.38575 0.0
C373 C 0.1629 0.70513 0.43591 0.0
Co374 Co 0.14131 0.54081 0.41464 0.0
Co375 Co 0.08406 0.54428 0.45373 0.0
C376 C 0.14845 0.5274 0.47096 0.0
O377 O 0.15997 0.52947 0.44752 0.0
O378 O 0.1192 0.53191 0.4758 0.0
C379 C 0.18554 0.52273 0.38242 0.0
O380 O 0.17547 0.50972 0.39729 0.0
C381 C 0.02716 0.52645 0.47211 0.0
C382 C 0.99515 0.5477 0.48497 0.0
C383 C 0.99494 0.53022 0.47813 0.0
N384 N 0.04466 0.54113 0.47345 0.0
N385 N 0.02574 0.55367 0.48234 0.0
C386 C 0.04103 0.50945 0.46326 0.0
H387 H 0.0654 0.50764 0.47232 0.0
H388 H 0.04424 0.50938 0.44125 0.0
H389 H 0.0249 0.49855 0.46913 0.0
C390 C 0.0892 0.52829 0.37695 0.0
N391 N 0.10001 0.53257 0.4018 0.0
N392 N 0.07507 0.53648 0.41701 0.0
C393 C 0.04778 0.53596 0.4016 0.0
C394 C 0.05539 0.53002 0.37589 0.0
C395 C 0.11115 0.52566 0.35342 0.0
H396 H 0.12818 0.53673 0.3518 0.0
H397 H 0.12555 0.51367 0.35646 0.0
H398 H 0.0975 0.52466 0.33435 0.0
O399 O 0.13739 0.56628 0.4219 0.0
O400 O 0.09716 0.56924 0.45139 0.0
H401 H 1.01465 0.55712 0.39939 0.0
H402 H 0.99548 0.53626 0.40202 0.0
C403 C 0.0162 0.54421 0.40911 0.0
H404 H 1.01429 0.54659 0.43062 0.0
H405 H 0.0328 0.56662 0.48385 0.0
O406 O 0.17394 0.53775 0.38645 0.0
C407 C 0.11959 0.5758 0.43683 0.0
Co408 Co 0.89287 0.49026 0.16392 0.0
Co409 Co 0.83445 0.48721 0.20239 0.0
C410 C 0.89921 0.50333 0.2205 0.0
O411 O 0.91102 0.50109 0.19719 0.0
O412 O 0.86963 0.49927 0.22516 0.0
C413 C 0.94565 0.50499 0.13507 0.0
O414 O 0.94583 0.51615 0.15489 0.0
C415 C 0.77595 0.50473 0.21867 0.0
C416 C 0.74431 0.4832 0.23124 0.0
C417 C 0.74376 0.50072 0.22458 0.0
N418 N 0.79387 0.49019 0.22042 0.0
N419 N 0.77505 0.47746 0.22888 0.0
C420 C 0.78983 0.52193 0.21072 0.0
H421 H 0.815 0.52312 0.21842 0.0
H422 H 0.79101 0.52298 0.18862 0.0
H423 H 0.7747 0.53268 0.21861 0.0
C424 C 0.84162 0.50376 0.12634 0.0
N425 N 0.85218 0.49906 0.15107 0.0
N426 N 0.82701 0.49551 0.16618 0.0
C427 C 0.7998 0.49662 0.15093 0.0
C428 C 0.80771 0.5026 0.12536 0.0
C429 C 0.8638 0.50825 0.10366 0.0
H430 H 0.8731 0.49613 0.09453 0.0
H431 H 0.88479 0.51578 0.11122 0.0
H432 H 0.85098 0.51594 0.08812 0.0
O433 O 0.88836 0.46486 0.17159 0.0
O434 O 0.84652 0.46214 0.19955 0.0
H435 H 0.77205 0.47816 0.17392 0.0
H436 H 0.7579 0.48148 0.14014 0.0
C437 C 0.76841 0.48796 0.15797 0.0
H438 H 0.75076 0.49776 0.16467 0.0
H439 H 0.78246 0.46457 0.23058 0.0
O440 O 0.92507 0.49273 0.13511 0.0
C441 C 0.86958 0.45544 0.1859 0.0
Co442 Co 0.88951 0.29078 0.16457 0.0
Co443 Co 0.94724 0.2944 0.2033 0.0
C444 C 0.88263 0.27759 0.22089 0.0
O445 O 0.87105 0.27943 0.19743 0.0
O446 O 0.91185 0.28224 0.22565 0.0
C447 C 0.83918 0.27473 0.13482 0.0
O448 O 0.84108 0.263 0.15386 0.0
C449 C 1.00473 0.27704 0.2218 0.0
C450 C 0.03602 0.29869 0.23434 0.0
C451 C 0.03683 0.28118 0.22775 0.0
N452 N 0.98674 0.29156 0.22294 0.0
N453 N 1.00524 0.30433 0.23163 0.0
C454 C 0.99139 0.25986 0.21322 0.0
H455 H 0.98844 0.25958 0.19118 0.0
H456 H 1.00772 0.24914 0.21945 0.0
H457 H 0.96696 0.25796 0.22211 0.0
C458 C 0.94115 0.27796 0.12699 0.0
N459 N 0.93075 0.28246 0.15184 0.0
N460 N 0.95591 0.28638 0.16677 0.0
C461 C 0.98298 0.28573 0.15112 0.0
C462 C 0.97495 0.27969 0.12555 0.0
C463 C 0.91866 0.27506 0.10389 0.0
H464 H 0.90464 0.2871 0.1001 0.0
H465 H 0.90117 0.26464 0.10904 0.0
H466 H 0.93182 0.2716 0.08531 0.0
O467 O 0.89293 0.31626 0.17237 0.0
O468 O 0.93463 0.31933 0.20036 0.0
H469 H 0.01659 0.30666 0.14826 0.0
H470 H 0.03526 0.2857 0.15125 0.0
C471 C 1.0148 0.29386 0.15827 0.0
H472 H 0.01693 0.29644 0.17971 0.0
H473 H 0.99774 0.31722 0.23296 0.0
O474 O 0.85756 0.28793 0.13565 0.0
C475 C 0.91137 0.32584 0.18668 0.0
Co476 Co 0.89119 0.28911 0.69739 0.0
Co477 Co 0.83343 0.29288 0.65875 0.0
C478 C 0.89747 0.27612 0.64069 0.0
O479 O 0.9092 0.27818 0.66406 0.0
O480 O 0.86809 0.28054 0.63596 0.0
C481 C 0.93852 0.27172 0.72804 0.0
O482 O 0.93185 0.25902 0.71142 0.0
C483 C 0.77441 0.27611 0.64219 0.0
C484 C 0.74347 0.29805 0.6302 0.0
C485 C 0.74232 0.2805 0.63658 0.0
N486 N 0.79284 0.29047 0.64059 0.0
N487 N 0.77443 0.30345 0.63245 0.0
C488 C 0.78778 0.25871 0.64972 0.0
H489 H 0.78911 0.25747 0.6718 0.0
H490 H 0.77226 0.24817 0.64169 0.0
H491 H 0.81286 0.25736 0.64187 0.0
C492 C 0.83945 0.27578 0.73477 0.0
N493 N 0.8503 0.28054 0.71013 0.0
N494 N 0.82535 0.2845 0.695 0.0
C495 C 0.79803 0.28355 0.71017 0.0
C496 C 0.8056 0.27731 0.73567 0.0
C497 C 0.86131 0.27073 0.75738 0.0
H498 H 0.87379 0.28244 0.76511 0.0
H499 H 0.88 0.26158 0.75003 0.0
H500 H 0.84765 0.26443 0.77388 0.0
O501 O 0.88709 0.31467 0.69074 0.0
O502 O 0.84668 0.31777 0.66148 0.0
H503 H 0.77075 0.30222 0.6872 0.0
H504 H 0.7566 0.29902 0.721 0.0
C505 C 0.76689 0.29245 0.70315 0.0
H506 H 0.74895 0.28277 0.69652 0.0
H507 H 0.7823 0.31628 0.63097 0.0
O508 O 0.92366 0.28605 0.72565 0.0
C509 C 0.86913 0.32427 0.67601 0.0
Co510 Co 0.89001 0.48859 0.69715 0.0
Co511 Co 0.94779 0.4852 0.65821 0.0
C512 C 0.8833 0.50148 0.6402 0.0
O513 O 0.8716 0.49929 0.66358 0.0
O514 O 0.9128 0.49731 0.63551 0.0
C515 C 0.83709 0.50349 0.7256 0.0
O516 O 0.83601 0.51408 0.70499 0.0
C517 C 1.00558 0.50292 0.64138 0.0
C518 C 0.03811 0.4816 0.62972 0.0
C519 C 0.03795 0.49919 0.63583 0.0
N520 N 0.9882 0.48819 0.63997 0.0
N521 N 1.00754 0.47557 0.63204 0.0
C522 C 0.99103 0.52004 0.64878 0.0
H523 H 0.96605 0.521 0.6406 0.0
H524 H 0.9892 0.52116 0.67084 0.0
H525 H 1.00606 0.53089 0.641 0.0
C526 C 0.94163 0.50218 0.73407 0.0
N527 N 0.9308 0.49742 0.70948 0.0
N528 N 0.95575 0.4936 0.69432 0.0
C529 C 0.98311 0.49466 0.70941 0.0
C530 C 0.97552 0.50082 0.73492 0.0
C531 C 0.9197 0.50687 0.75679 0.0
H532 H 0.91042 0.49482 0.76627 0.0
H533 H 0.89867 0.51439 0.74919 0.0
H534 H 0.93274 0.51464 0.77206 0.0
O535 O 0.89482 0.46306 0.6906 0.0
O536 O 0.93512 0.46021 0.66114 0.0
H537 H 1.01037 0.47598 0.68661 0.0
H538 H 0.02487 0.4794 0.72024 0.0
C539 C 1.0143 0.48584 0.70235 0.0
H540 H 0.03206 0.49552 0.69535 0.0
H541 H 1.00062 0.46259 0.63075 0.0
O542 O 0.85814 0.49147 0.72613 0.0
C543 C 0.91289 0.45358 0.67584 0.0
Co544 Co 0.64017 0.03934 0.9479 0.0
Co545 Co 0.69801 0.04308 0.90918 0.0
C546 C 0.63393 0.0263 0.89118 0.0
O547 O 0.62219 0.02838 0.91455 0.0
O548 O 0.66332 0.03071 0.88644 0.0
C549 C 0.59321 0.02192 0.97901 0.0
O550 O 0.60057 1.00901 0.963 0.0
C551 C 0.75742 0.02646 0.89295 0.0
C552 C 0.788 0.0485 0.88074 0.0
C553 C 0.78947 0.03099 0.88738 0.0
N554 N 0.73872 0.04071 0.8911 0.0
N555 N 0.75692 0.05374 0.88284 0.0
C556 C 0.74437 1.00902 0.90064 0.0
H557 H 0.74316 1.00783 0.92272 0.0
H558 H 0.76004 0.99853 0.89264 0.0
H559 H 0.71928 1.00753 0.89287 0.0
C560 C 0.69206 0.02609 0.98527 0.0
N561 N 0.68112 0.03081 0.96064 0.0
N562 N 0.70602 0.03479 0.94546 0.0
C563 C 0.73338 0.03391 0.96059 0.0
C564 C 0.72591 0.02766 0.98609 0.0
C565 C 0.67031 0.02109 1.00797 0.0
H566 H 0.65746 0.03278 1.01538 0.0
H567 H 0.65189 1.01172 1.00082 0.0
H568 H 0.68409 0.01508 1.02465 0.0
O569 O 0.64432 0.0649 0.94115 0.0
O570 O 0.68471 0.06797 0.91185 0.0
H571 H 0.77443 0.04964 0.97146 0.0
H572 H 0.78256 0.03337 0.94715 0.0
C573 C 0.76438 0.04296 0.95362 0.0
H574 H 0.76042 0.05267 0.93759 0.0
H575 H 0.74882 0.06651 0.88116 0.0
O576 O 0.60756 0.03636 0.97614 0.0
C577 C 0.66227 0.07448 0.92639 0.0
Co578 Co 0.64168 0.23884 0.94792 0.0
Co579 Co 0.5837 0.23543 0.9093 0.0
C580 C 0.64794 0.25197 0.89114 0.0
O581 O 0.65977 0.24984 0.91449 0.0
O582 O 0.6185 0.24764 0.88653 0.0
C583 C 0.68832 0.25635 0.97884 0.0
O584 O 0.68031 0.2692 0.96285 0.0
C585 C 0.52575 0.25321 0.89295 0.0
C586 C 0.4932 0.23195 0.88108 0.0
C587 C 0.49335 0.2495 0.88747 0.0
N588 N 0.54315 0.2385 0.89125 0.0
N589 N 0.52379 0.22592 0.88319 0.0
C590 C 0.54028 0.2703 0.90057 0.0
H591 H 0.54218 0.27129 0.92264 0.0
H592 H 0.5252 0.28118 0.89298 0.0
H593 H 0.56524 0.27132 0.89235 0.0
C594 C 0.58987 0.25207 0.98542 0.0
N595 N 0.60081 0.24744 0.96077 0.0
N596 N 0.57588 0.24363 0.94556 0.0
C597 C 0.5485 0.24454 0.96064 0.0
C598 C 0.55599 0.25062 0.98618 0.0
C599 C 0.61164 0.25687 1.00819 0.0
H600 H 0.62461 0.24513 1.01535 0.0
H601 H 0.62996 0.26636 1.00117 0.0
H602 H 0.59787 0.26268 1.02499 0.0
O603 O 0.63708 0.21332 0.9411 0.0
O604 O 0.59646 0.21045 0.91194 0.0
H605 H 0.52141 0.22587 0.93765 0.0
H606 H 0.50693 0.22909 0.97133 0.0
C607 C 0.51739 0.23565 0.9535 0.0
H608 H 0.49951 0.24531 0.94665 0.0
H609 H 0.53073 0.21295 0.88167 0.0
O610 O 0.67446 0.24176 0.97608 0.0
C611 C 0.6189 0.20383 0.92641 0.0
Co612 Co 0.63894 0.24005 0.41442 0.0
Co613 Co 0.69729 0.23708 0.45293 0.0
C614 C 0.63241 0.2531 0.47102 0.0
O615 O 0.62068 0.25084 0.4477 0.0
O616 O 0.66203 0.24911 0.47572 0.0
C617 C 0.58619 0.25475 0.3856 0.0
O618 O 0.58608 0.26594 0.40539 0.0
C619 C 0.75588 0.25457 0.46917 0.0
C620 C 0.78741 0.23303 0.48184 0.0
C621 C 0.78805 0.25054 0.47511 0.0
N622 N 0.73789 0.24006 0.47097 0.0
N623 N 0.75665 0.22732 0.47948 0.0
C624 C 0.74209 0.27179 0.46117 0.0
H625 H 0.74099 0.27283 0.43907 0.0
H626 H 0.75722 0.28252 0.46909 0.0
H627 H 0.71689 0.27299 0.4688 0.0
C628 C 0.69014 0.2536 0.37684 0.0
N629 N 0.6796 0.24891 0.40158 0.0
N630 N 0.70477 0.24538 0.4167 0.0
C631 C 0.73197 0.2465 0.40143 0.0
C632 C 0.72405 0.25246 0.37585 0.0
C633 C 0.66794 0.25805 0.35415 0.0
H634 H 0.64694 0.26559 0.3617 0.0
H635 H 0.68075 0.26573 0.33859 0.0
H636 H 0.65865 0.24591 0.34506 0.0
O637 O 0.64351 0.21467 0.42205 0.0
O638 O 0.68528 0.21198 0.45009 0.0
H639 H 0.77385 0.23134 0.39066 0.0
H640 H 0.78105 0.24769 0.41508 0.0
C641 C 0.76338 0.23787 0.40847 0.0
H642 H 0.7598 0.2281 0.42448 0.0
H643 H 0.74917 0.21444 0.48123 0.0
O644 O 0.60675 0.2425 0.38564 0.0
C645 C 0.66226 0.20526 0.43639 0.0
Co646 Co 0.64333 0.04054 0.4154 0.0
Co647 Co 0.58473 0.04415 0.45346 0.0
C648 C 0.64904 0.02757 0.47209 0.0
O649 O 0.66099 0.02937 0.44872 0.0
O650 O 0.61969 0.03216 0.47655 0.0
C651 C 0.69657 0.02588 0.38693 0.0
O652 O 0.69776 0.01518 0.4074 0.0
C653 C 0.52653 0.0265 0.46972 0.0
C654 C 0.49419 0.04788 0.48144 0.0
C655 C 0.49417 0.03032 0.47517 0.0
N656 N 0.54408 0.04116 0.47134 0.0
N657 N 0.52483 0.05382 0.4793 0.0
C658 C 0.5409 1.00935 0.46223 0.0
H659 H 0.56588 1.0083 0.47039 0.0
H660 H 0.5427 1.00826 0.44016 0.0
H661 H 0.52576 0.99853 0.46996 0.0
C662 C 0.59201 0.02724 0.37772 0.0
N663 N 0.60252 0.03202 0.40241 0.0
N664 N 0.57735 0.03579 0.41734 0.0
C665 C 0.5502 0.03475 0.40201 0.0
C666 C 0.55812 0.02858 0.37658 0.0
C667 C 0.61422 0.02244 0.35525 0.0
H668 H 0.63516 0.01497 0.3631 0.0
H669 H 0.60138 1.0146 0.33996 0.0
H670 H 0.62359 0.03445 0.3457 0.0
O671 O 0.63939 0.06603 0.42301 0.0
O672 O 0.59706 0.06912 0.45036 0.0
H673 H 0.50858 0.05001 0.3908 0.0
H674 H 0.5011 0.03395 0.41573 0.0
C675 C 0.51895 0.0436 0.4088 0.0
H676 H 0.52274 0.05349 0.42453 0.0
H677 H 0.53191 0.06677 0.48075 0.0
O678 O 0.67543 0.03785 0.38657 0.0
C679 C 0.62057 0.07562 0.43696 0.0
Co680 Co 0.39161 0.99006 0.1656 0.0
Co681 Co 0.3344 0.98685 0.20489 0.0
C682 C 0.39932 1.00321 0.22199 0.0
O683 O 0.41077 1.00098 0.19858 0.0
O684 O 0.36989 0.99903 0.22689 0.0
C685 C 0.4428 1.0055 0.13583 0.0
O686 O 0.44208 0.01704 0.15512 0.0
C687 C 0.27732 1.00453 0.22344 0.0
C688 C 0.24571 0.98309 0.23639 0.0
C689 C 0.2452 1.0006 0.22964 0.0
N690 N 0.29503 0.98991 0.22463 0.0
N691 N 0.27634 0.97726 0.23356 0.0
C692 C 0.29087 0.02162 0.21454 0.0
H693 H 0.31533 0.02348 0.2234 0.0
H694 H 0.29381 0.0218 0.19251 0.0
H695 H 0.27468 0.03243 0.22059 0.0
C696 C 0.34021 1.00333 0.12836 0.0
N697 N 0.35064 0.99882 0.15322 0.0
N698 N 0.32554 0.9949 0.16823 0.0
C699 C 0.29842 0.99561 0.15263 0.0
C700 C 0.30641 1.00166 0.127 0.0
C701 C 0.36268 1.00604 0.10517 0.0
H702 H 0.37608 0.99383 0.10126 0.0
H703 H 0.38071 0.01619 0.1103 0.0
H704 H 0.3496 1.00977 0.08666 0.0
O705 O 0.38691 0.96459 0.17265 0.0
O706 O 0.34697 0.96182 0.20246 0.0
H707 H 0.26495 0.9746 0.15032 0.0
H708 H 0.24613 0.99555 0.1525 0.0
C709 C 0.26659 0.98752 0.15991 0.0
H710 H 0.26431 0.98522 0.18144 0.0
H711 H 0.2836 0.96433 0.235 0.0
O712 O 0.42341 0.99272 0.13656 0.0
C713 C 0.36903 0.95515 0.18769 0.0
Co714 Co 0.38972 0.79087 0.1641 0.0
Co715 Co 0.44714 0.79409 0.20307 0.0
C716 C 0.38272 0.77729 0.22037 0.0
O717 O 0.37108 0.77947 0.19698 0.0
O718 O 0.41202 0.78172 0.22514 0.0
C719 C 0.34526 0.77296 0.13183 0.0
O720 O 0.35527 0.75989 0.14661 0.0
C721 C 0.50388 0.77616 0.22161 0.0
C722 C 0.53597 0.79737 0.23449 0.0
C723 C 0.53608 0.77988 0.22776 0.0
N724 N 0.48649 0.79089 0.22279 0.0
N725 N 0.50546 0.8034 0.2317 0.0
C726 C 0.48993 0.75919 0.21273 0.0
H727 H 0.46553 0.75741 0.22174 0.0
H728 H 0.48676 0.75914 0.19071 0.0
H729 H 0.50597 0.74826 0.21862 0.0
C730 C 0.44163 0.77831 0.1262 0.0
N731 N 0.43095 0.78257 0.1511 0.0
N732 N 0.45599 0.78632 0.1663 0.0
C733 C 0.48324 0.78569 0.15085 0.0
C734 C 0.47546 0.77988 0.1251 0.0
C735 C 0.41959 0.77581 0.10269 0.0
H736 H 0.40267 0.78694 0.10118 0.0
H737 H 0.40507 0.76386 0.10568 0.0
H738 H 0.43318 0.77482 0.0836 0.0
O739 O 0.39382 0.81634 0.17151 0.0
O740 O 0.43418 0.81907 0.20093 0.0
H741 H 0.51689 0.80664 0.14885 0.0
H742 H 0.53553 0.78563 0.15117 0.0
C743 C 0.51504 0.79369 0.1584 0.0
H744 H 0.51709 0.79592 0.17993 0.0
H745 H 0.49849 0.81637 0.23313 0.0
O746 O 0.35697 0.78794 0.13593 0.0
C747 C 0.41176 0.82575 0.1865 0.0
Co748 Co 0.39179 0.78913 0.69649 0.0
Co749 Co 0.33328 0.79303 0.65856 0.0
C750 C 0.39727 0.7761 0.63996 0.0
O751 O 0.40917 0.77782 0.66334 0.0
O752 O 0.36802 0.78088 0.63541 0.0
C753 C 0.43885 0.77174 0.72745 0.0
O754 O 0.43112 0.75879 0.71164 0.0
C755 C 0.27402 0.77622 0.64238 0.0
C756 C 0.24314 0.79818 0.63032 0.0
C757 C 0.24192 0.78064 0.63682 0.0
N758 N 0.29252 0.79055 0.64064 0.0
N759 N 0.27414 0.80354 0.63247 0.0
C760 C 0.28732 0.75882 0.64998 0.0
H761 H 0.31241 0.75744 0.64217 0.0
H762 H 0.28858 0.7576 0.67206 0.0
H763 H 0.27177 0.74829 0.64195 0.0
C764 C 0.34018 0.77607 0.73451 0.0
N765 N 0.35085 0.78081 0.7098 0.0
N766 N 0.32574 0.78464 0.69477 0.0
C767 C 0.29853 0.78366 0.71006 0.0
C768 C 0.3063 0.77749 0.73553 0.0
C769 C 0.3622 0.77111 0.75707 0.0
H770 H 0.37528 0.78279 0.76423 0.0
H771 H 0.38041 0.76166 0.74984 0.0
H772 H 0.3486 0.7652 0.77394 0.0
O773 O 0.38832 0.81466 0.68893 0.0
O774 O 0.34601 0.81794 0.66163 0.0
H775 H 0.27105 0.80234 0.68727 0.0
H776 H 0.25708 0.79906 0.7211 0.0
C777 C 0.26731 0.79253 0.70319 0.0
H778 H 0.24937 0.78285 0.69659 0.0
H779 H 0.28207 0.81635 0.63087 0.0
O780 O 0.42469 0.78623 0.72451 0.0
C781 C 0.36957 0.82435 0.67503 0.0
Co782 Co 0.38924 0.98903 0.69792 0.0
Co783 Co 0.44792 0.98549 0.66005 0.0
C784 C 0.38379 1.00223 0.64138 0.0
O785 O 0.37178 1.00042 0.66472 0.0
O786 O 0.41309 0.99756 0.63694 0.0
C787 C 0.34247 1.00647 0.72874 0.0
O788 O 0.35072 0.01935 0.71289 0.0
C789 C 0.50609 1.00325 0.64403 0.0
C790 C 0.53855 0.98196 0.63213 0.0
C791 C 0.53848 0.9995 0.63858 0.0
N792 N 0.48862 0.98858 0.64225 0.0
N793 N 0.50793 0.97598 0.63418 0.0
C794 C 0.49164 0.02036 0.65168 0.0
H795 H 0.46667 0.02141 0.64349 0.0
H796 H 0.4898 0.02135 0.67375 0.0
H797 H 0.50675 0.03122 0.64407 0.0
C798 C 0.44082 1.00206 0.73605 0.0
N799 N 0.43012 0.9974 0.71134 0.0
N800 N 0.45525 0.99368 0.69629 0.0
C801 C 0.48248 0.99465 0.71153 0.0
C802 C 0.47472 1.00072 0.73702 0.0
C803 C 0.41881 1.00691 0.75864 0.0
H804 H 0.40564 0.99521 0.76567 0.0
H805 H 0.40067 0.01645 0.75147 0.0
H806 H 0.43241 1.01269 0.77557 0.0
O807 O 0.39308 0.96354 0.69014 0.0
O808 O 0.43556 0.96051 0.66292 0.0
H809 H 0.50986 0.97599 0.68877 0.0
H810 H 0.52411 0.97933 0.7225 0.0
C811 C 0.5137 0.98582 0.70458 0.0
H812 H 0.53155 0.9955 0.69775 0.0
H813 H 0.50091 0.96303 0.63258 0.0
O814 O 0.35621 0.99185 0.72592 0.0
C815 C 0.41199 0.95397 0.67621 0.0
Co816 Co 0.6401 0.53944 0.44705 0.0
Co817 Co 0.69788 0.54305 0.40817 0.0
C818 C 0.63347 0.52665 0.39016 0.0
O819 O 0.62181 0.52879 0.41355 0.0
O820 O 0.66296 0.53086 0.3854 0.0
C821 C 0.58648 0.52498 0.4755 0.0
O822 O 0.58429 0.51466 0.4547 0.0
C823 C 0.7571 0.52634 0.39171 0.0
C824 C 0.78785 0.54837 0.37973 0.0
C825 C 0.78918 0.53082 0.38616 0.0
N826 N 0.73852 0.54064 0.39003 0.0
N827 N 0.75682 0.55367 0.38191 0.0
C828 C 0.74389 0.5089 0.39921 0.0
H829 H 0.74268 0.50761 0.42127 0.0
H830 H 0.75947 0.49841 0.39108 0.0
H831 H 0.71879 0.50751 0.39142 0.0
C832 C 0.69152 0.5257 0.48397 0.0
N833 N 0.68084 0.53059 0.45937 0.0
N834 N 0.70585 0.53454 0.44433 0.0
C835 C 0.7331 0.53349 0.45957 0.0
C836 C 0.72538 0.52714 0.48499 0.0
C837 C 0.66948 0.52077 0.50652 0.0
H838 H 0.66028 0.53272 0.51627 0.0
H839 H 0.64841 0.5134 0.49872 0.0
H840 H 0.68241 0.51279 0.52164 0.0
O841 O 0.64469 0.56499 0.44058 0.0
O842 O 0.6849 0.56798 0.4111 0.0
H843 H 0.76046 0.55225 0.43684 0.0
H844 H 0.77435 0.549 0.47071 0.0
C845 C 0.76425 0.54245 0.45277 0.0
H846 H 0.7823 0.53283 0.44618 0.0
H847 H 0.74883 0.56648 0.38039 0.0
O848 O 0.60835 0.53656 0.47604 0.0
C849 C 0.66268 0.57454 0.4258 0.0
Co850 Co 0.6421 0.73894 0.44761 0.0
Co851 Co 0.58432 0.73548 0.40881 0.0
C852 C 0.64864 0.75197 0.39081 0.0
O853 O 0.66035 0.74984 0.41419 0.0
O854 O 0.6192 0.74769 0.38611 0.0
C855 C 0.68859 0.75657 0.47845 0.0
O856 O 0.68055 0.76935 0.46234 0.0
C857 C 0.52628 0.7531 0.3922 0.0
C858 C 0.49401 0.73173 0.38027 0.0
C859 C 0.49395 0.74929 0.38661 0.0
N860 N 0.54384 0.73844 0.39061 0.0
N861 N 0.52465 0.7258 0.38251 0.0
C862 C 0.54061 0.77025 0.39981 0.0
H863 H 0.54233 0.77129 0.42188 0.0
H864 H 0.52549 0.78107 0.39208 0.0
H865 H 0.56561 0.77131 0.39171 0.0
C866 C 0.59013 0.75222 0.48489 0.0
N867 N 0.60118 0.74756 0.46029 0.0
N868 N 0.57631 0.74373 0.44502 0.0
C869 C 0.54886 0.74467 0.46001 0.0
C870 C 0.55624 0.75079 0.48556 0.0
C871 C 0.61181 0.75705 0.50771 0.0
H872 H 0.62473 0.74532 0.51494 0.0
H873 H 0.63016 0.76653 0.50072 0.0
H874 H 0.59797 0.76288 0.52446 0.0
O875 O 0.6376 0.7134 0.4409 0.0
O876 O 0.59716 0.71052 0.41157 0.0
H877 H 0.52185 0.72598 0.43699 0.0
H878 H 0.5073 0.72921 0.47065 0.0
C879 C 0.51779 0.73577 0.45283 0.0
H880 H 0.49991 0.74542 0.44596 0.0
H881 H 0.53173 0.71285 0.38106 0.0
O882 O 0.67478 0.74196 0.47582 0.0
C883 C 0.61952 0.70391 0.42614 0.0
Co884 Co 0.64063 0.73985 0.91381 0.0
Co885 Co 0.69769 0.73718 0.95335 0.0
C886 C 0.63241 0.75302 0.97023 0.0
O887 O 0.62104 0.75037 0.9469 0.0
O888 O 0.66208 0.74939 0.9752 0.0
C889 C 0.58951 0.75522 0.88405 0.0
O890 O 0.59037 0.7668 0.90329 0.0
C891 C 0.75465 0.755 0.97195 0.0
C892 C 0.7863 0.73362 0.98506 0.0
C893 C 0.78677 0.75112 0.97824 0.0
N894 N 0.73699 0.74036 0.97314 0.0
N895 N 0.75571 0.72775 0.98218 0.0
C896 C 0.74105 0.77205 0.96294 0.0
H897 H 0.73818 0.77218 0.9409 0.0
H898 H 0.75718 0.7829 0.96897 0.0
H899 H 0.71655 0.7739 0.97174 0.0
C900 C 0.69185 0.75339 0.87671 0.0
N901 N 0.68143 0.74892 0.90159 0.0
N902 N 0.70656 0.74517 0.91668 0.0
C903 C 0.7337 0.74595 0.90112 0.0
C904 C 0.72568 0.75186 0.87542 0.0
C905 C 0.66941 0.75589 0.85344 0.0
H906 H 0.65625 0.7436 0.84962 0.0
H907 H 0.6512 0.76597 0.85841 0.0
H908 H 0.6825 0.75961 0.83492 0.0
O909 O 0.64595 0.71446 0.92066 0.0
O910 O 0.6854 0.71206 0.95098 0.0
H911 H 0.76738 0.72503 0.899 0.0
H912 H 0.78599 0.74605 0.90101 0.0
C913 C 0.76561 0.73798 0.90848 0.0
H914 H 0.7679 0.73575 0.93003 0.0
H915 H 0.74851 0.71481 0.98365 0.0
O916 O 0.60882 0.74242 0.88479 0.0
C917 C 0.66381 0.70519 0.93595 0.0
Co918 Co 0.64259 0.54073 0.91382 0.0
Co919 Co 0.58488 0.54447 0.95266 0.0
C920 C 0.64895 0.52768 0.97061 0.0
O921 O 0.66064 0.52976 0.9472 0.0
O922 O 0.61958 0.53208 0.97536 0.0
C923 C 0.68924 0.52304 0.88309 0.0
O924 O 0.68193 0.51039 0.89969 0.0
C925 C 0.52604 0.52752 0.9692 0.0
C926 C 0.49474 0.54933 0.98097 0.0
C927 C 0.49385 0.53178 0.97463 0.0
N928 N 0.54428 0.54194 0.97084 0.0
N929 N 0.52566 0.55484 0.97885 0.0
C930 C 0.53965 0.51018 0.96174 0.0
H931 H 0.56466 0.50888 0.96975 0.0
H932 H 0.54118 0.50901 0.93968 0.0
H933 H 0.52416 0.49957 0.96968 0.0
C934 C 0.59049 0.52759 0.87665 0.0
N935 N 0.60155 0.53227 0.90123 0.0
N936 N 0.57672 0.53623 0.91646 0.0
C937 C 0.54929 0.53536 0.90142 0.0
C938 C 0.55664 0.52915 0.87593 0.0
C939 C 0.61214 0.5226 0.8539 0.0
H940 H 0.63056 0.51321 0.86105 0.0
H941 H 0.59828 0.51662 0.83729 0.0
H942 H 0.62499 0.53429 0.84641 0.0
O943 O 0.63864 0.56628 0.92057 0.0
O944 O 0.59828 0.56933 0.9499 0.0
H945 H 0.508 0.55098 0.89063 0.0
H946 H 0.50025 0.53477 0.91525 0.0
C947 C 0.51829 0.54437 0.90849 0.0
H948 H 0.52238 0.55413 0.92435 0.0
H949 H 0.53335 0.56769 0.98031 0.0
O950 O 0.67502 0.53756 0.88548 0.0
C951 C 0.62078 0.57584 0.93538 0.0
Co952 Co 0.39213 0.49069 0.66518 0.0
Co953 Co 0.33365 0.48709 0.70317 0.0
C954 C 0.39781 0.50396 0.72149 0.0
O955 O 0.4097 0.50216 0.69813 0.0
O956 O 0.36856 0.49923 0.72609 0.0
C957 C 0.43949 0.50775 0.6342 0.0
O958 O 0.43259 0.52061 0.65045 0.0
C959 C 0.27522 0.50458 0.71928 0.0
C960 C 0.24334 0.48311 0.73162 0.0
C961 C 0.24297 0.50063 0.72499 0.0
N962 N 0.29303 0.49001 0.7211 0.0
N963 N 0.27407 0.47731 0.72943 0.0
C964 C 0.28927 0.52176 0.7114 0.0
H965 H 0.29082 0.52277 0.68931 0.0
H966 H 0.27405 0.53254 0.71907 0.0
H967 H 0.31432 0.52294 0.71938 0.0
C968 C 0.3406 0.50367 0.62706 0.0
N969 N 0.35125 0.49903 0.65181 0.0
N970 N 0.32614 0.49528 0.66687 0.0
C971 C 0.29892 0.49622 0.65159 0.0
C972 C 0.30672 0.50226 0.62603 0.0
C973 C 0.36264 0.50857 0.60449 0.0
H974 H 0.37533 0.49682 0.59712 0.0
H975 H 0.38117 0.51784 0.61177 0.0
H976 H 0.34912 0.51468 0.58775 0.0
O977 O 0.38847 0.46523 0.67317 0.0
O978 O 0.3461 0.46211 0.70047 0.0
H979 H 0.27142 0.47768 0.67463 0.0
H980 H 0.25729 0.48087 0.64081 0.0
C981 C 0.26766 0.48744 0.65863 0.0
H982 H 0.24983 0.49717 0.66525 0.0
H983 H 0.28138 0.46441 0.73113 0.0
O984 O 0.42481 0.4934 0.63696 0.0
C985 C 0.36968 0.45563 0.68719 0.0
Co986 Co 0.39055 0.29108 0.66534 0.0
Co987 Co 0.44833 0.29455 0.70401 0.0
C988 C 0.38361 0.27787 0.72164 0.0
O989 O 0.37201 0.27971 0.69819 0.0
O990 O 0.41284 0.28251 0.72635 0.0
C991 C 0.3404 0.27497 0.63561 0.0
O992 O 0.34273 0.26317 0.65452 0.0
C993 C 0.5049 0.27653 0.72262 0.0
C994 C 0.53732 0.2977 0.7351 0.0
C995 C 0.53718 0.28017 0.72859 0.0
N996 N 0.48769 0.29131 0.72368 0.0
N997 N 0.50685 0.30381 0.73235 0.0
C998 C 0.49072 0.25955 0.71398 0.0
H999 H 0.46635 0.2579 0.7231 0.0
H1000 H 0.48744 0.2594 0.69198 0.0
H1001 H 0.50668 0.2486 0.71994 0.0
C1002 C 0.44207 0.27825 0.62762 0.0
N1003 N 0.43172 0.28272 0.6525 0.0
N1004 N 0.45692 0.28653 0.66744 0.0
C1005 C 0.48399 0.2858 0.65181 0.0
C1006 C 0.4759 0.27985 0.62619 0.0
C1007 C 0.41954 0.27552 0.60449 0.0
H1008 H 0.4054 0.28755 0.60101 0.0
H1009 H 0.40217 0.265 0.60944 0.0
H1010 H 0.43267 0.27227 0.58581 0.0
O1011 O 0.39422 0.31654 0.67324 0.0
O1012 O 0.43605 0.31956 0.70115 0.0
H1013 H 0.51767 0.30672 0.64951 0.0
H1014 H 0.53629 0.2857 0.6516 0.0
C1015 C 0.51593 0.29376 0.65905 0.0
H1016 H 0.5183 0.29596 0.68057 0.0
H1017 H 0.50004 0.31681 0.73362 0.0
O1018 O 0.35849 0.28829 0.63648 0.0
C1019 C 0.41277 0.32609 0.6875 0.0
Co1020 Co 0.39086 0.28922 0.19669 0.0
Co1021 Co 0.33292 0.29296 0.15843 0.0
C1022 C 0.39708 0.27577 0.14066 0.0
O1023 O 0.40877 0.2775 0.16409 0.0
O1024 O 0.36799 0.28066 0.13595 0.0
C1025 C 0.43564 0.2714 0.229 0.0
O1026 O 0.42579 0.25823 0.21447 0.0
C1027 C 0.27497 0.27585 0.14022 0.0
C1028 C 0.24422 0.29767 0.12733 0.0
C1029 C 0.24299 0.28018 0.13414 0.0
N1030 N 0.29329 0.29026 0.13893 0.0
N1031 N 0.27511 0.30312 0.13003 0.0
C1032 C 0.28791 0.25862 0.14905 0.0
H1033 H 0.31234 0.25655 0.14025 0.0
H1034 H 0.29076 0.25837 0.1711 0.0
H1035 H 0.27138 0.24798 0.1429 0.0
C1036 C 0.33914 0.27686 0.23513 0.0
N1037 N 0.34957 0.2812 0.21016 0.0
N1038 N 0.32438 0.28504 0.19517 0.0
C1039 C 0.29731 0.28445 0.21084 0.0
C1040 C 0.30534 0.27852 0.23651 0.0
C1041 C 0.36143 0.27412 0.25843 0.0
H1042 H 0.37846 0.2852 0.25994 0.0
H1043 H 0.37582 0.26216 0.25517 0.0
H1044 H 0.34806 0.273 0.27761 0.0
O1045 O 0.38787 0.31467 0.18856 0.0
O1046 O 0.34577 0.31788 0.161 0.0
H1047 H 0.26374 0.30539 0.21353 0.0
H1048 H 0.24503 0.28444 0.21059 0.0
C1049 C 0.26553 0.2926 0.20358 0.0
H1050 H 0.26346 0.29523 0.18214 0.0
H1051 H 0.28292 0.31596 0.12851 0.0
O1052 O 0.42372 0.28632 0.22469 0.0
C1053 C 0.36933 0.32431 0.17437 0.0
Co1054 Co 0.38851 0.48867 0.1979 0.0
Co1055 Co 0.44687 0.48569 0.15936 0.0
C1056 C 0.38208 0.50175 0.1412 0.0
O1057 O 0.3703 0.49947 0.16452 0.0
O1058 O 0.41169 0.49774 0.13655 0.0
C1059 C 0.33628 0.50382 0.22658 0.0
O1060 O 0.33689 0.51505 0.20678 0.0
C1061 C 0.50495 0.50347 0.14291 0.0
C1062 C 0.53719 0.48214 0.13076 0.0
C1063 C 0.53726 0.49968 0.13717 0.0
N1064 N 0.48741 0.4888 0.1413 0.0
N1065 N 0.50658 0.47618 0.13309 0.0
C1066 C 0.49063 0.52059 0.15062 0.0
H1067 H 0.48919 0.52163 0.17271 0.0
H1068 H 0.50561 0.53143 0.14277 0.0
H1069 H 0.46552 0.52162 0.14273 0.0
C1070 C 0.43992 0.50222 0.23533 0.0
N1071 N 0.42926 0.49748 0.21066 0.0
N1072 N 0.45438 0.49395 0.19552 0.0
C1073 C 0.48165 0.49511 0.21068 0.0
C1074 C 0.47385 0.50111 0.23621 0.0
C1075 C 0.41783 0.50673 0.25802 0.0
H1076 H 0.40848 0.49461 0.26723 0.0
H1077 H 0.39685 0.51429 0.25045 0.0
H1078 H 0.43072 0.5144 0.27349 0.0
O1079 O 0.39301 0.46325 0.19035 0.0
O1080 O 0.43479 0.46062 0.1623 0.0
H1081 H 0.5237 0.48006 0.2215 0.0
H1082 H 0.5306 0.49625 0.19666 0.0
C1083 C 0.51303 0.48646 0.20362 0.0
H1084 H 0.5093 0.47659 0.18785 0.0
H1085 H 0.4995 0.46324 0.13156 0.0
O1086 O 0.35625 0.49128 0.22666 0.0
C1087 C 0.41176 0.45388 0.176 0.0
H1088 H 0.13288 0.09345 0.46461 0.0
H1089 H 0.1792 0.09795 0.38731 0.0
H1090 H 0.12214 0.12459 0.46448 0.0
H1091 H 0.16778 0.12918 0.38705 0.0
H1092 H 0.10386 0.18034 0.38778 0.0
H1093 H 0.11492 0.14907 0.38685 0.0
H1094 H 0.15834 0.15235 0.46528 0.0
H1095 H 0.14798 0.18352 0.46608 0.0
C1096 C 0.14072 0.10107 0.44755 0.0
C1097 C 0.15697 0.09319 0.42598 0.0
C1098 C 0.13463 0.11892 0.44754 0.0
C1099 C 0.14404 0.1293 0.42574 0.0
C1100 C 0.16006 0.12146 0.40404 0.0
C1101 C 0.16678 0.10362 0.40429 0.0
C1102 C 0.11568 0.17437 0.40484 0.0
C1103 C 0.12502 0.18444 0.427 0.0
C1104 C 0.1222 0.15651 0.40421 0.0
C1105 C 0.13753 0.14829 0.42598 0.0
C1106 C 0.14639 0.15831 0.44827 0.0
C1107 C 0.14051 0.17618 0.44866 0.0
H1108 H 0.14861 0.09571 0.89818 0.0
H1109 H 0.10418 0.09952 0.9763 0.0
H1110 H 0.15951 0.1268 0.89861 0.0
H1111 H 0.11571 0.13075 0.97682 0.0
H1112 H 0.17946 0.18195 0.97582 0.0
H1113 H 0.16814 0.1507 0.97665 0.0
H1114 H 0.12403 0.1545 0.89851 0.0
H1115 H 0.13473 0.18561 0.89778 0.0
C1116 C 0.14118 0.10317 0.91548 0.0
C1117 C 0.12544 0.09511 0.9372 0.0
C1118 C 0.14738 0.121 0.91567 0.0
C1119 C 0.13855 0.1312 0.93777 0.0
C1120 C 0.12299 0.12318 0.9596 0.0
C1121 C 0.11619 0.10534 0.95921 0.0
C1122 C 0.16745 0.17609 0.9588 0.0
C1123 C 0.15803 0.18629 0.93673 0.0
C1124 C 0.16076 0.15824 0.95938 0.0
C1125 C 0.14517 0.15018 0.93766 0.0
C1126 C 0.13621 0.16034 0.91548 0.0
C1127 C 0.14228 0.17818 0.91512 0.0
H1128 H 0.92834 0.84944 0.72556 0.0
H1129 H 0.8842 0.84611 0.64728 0.0
H1130 H 0.91683 0.88066 0.72651 0.0
H1131 H 0.87331 0.8772 0.64813 0.0
H1132 H 0.89795 0.93601 0.64823 0.0
H1133 H 0.90875 0.90491 0.64854 0.0
H1134 H 0.86437 0.90058 0.72651 0.0
H1135 H 0.85296 0.93183 0.72611 0.0
C1136 C 0.91641 0.85536 0.70852 0.0
C1137 C 0.90722 0.84526 0.68634 0.0
C1138 C 0.90961 0.8732 0.70916 0.0
C1139 C 0.89413 0.88135 0.68741 0.0
C1140 C 0.88538 0.87129 0.66513 0.0
C1141 C 0.89157 0.85346 0.6647 0.0
C1142 C 0.89037 0.92846 0.66545 0.0
C1143 C 0.87452 0.93643 0.68714 0.0
C1144 C 0.8965 0.91063 0.66557 0.0
C1145 C 0.88749 0.90033 0.68757 0.0
C1146 C 0.8718 0.90824 0.70937 0.0
C1147 C 0.86506 0.92609 0.70904 0.0
H1148 H 0.95235 0.92823 0.15822 0.0
H1149 H 0.85718 0.93673 0.19209 0.0
H1150 H 0.94187 0.89701 0.15732 0.0
H1151 H 0.84678 0.90559 0.19102 0.0
H1152 H 0.82858 0.8504 0.1575 0.0
H1153 H 0.83893 0.88165 0.15701 0.0
H1154 H 0.93381 0.87291 0.19109 0.0
H1155 H 0.92353 0.84177 0.19176 0.0
C1156 C 0.92919 0.92348 0.16541 0.0
C1157 C 0.90567 0.93504 0.17529 0.0
C1158 C 0.92325 0.90557 0.165 0.0
C1159 C 0.89346 0.89882 0.17407 0.0
C1160 C 0.86984 0.91038 0.18366 0.0
C1161 C 0.87593 0.92824 0.18443 0.0
C1162 C 0.85166 0.85513 0.16486 0.0
C1163 C 0.87517 0.84353 0.17472 0.0
C1164 C 0.85753 0.87305 0.16468 0.0
C1165 C 0.88723 0.87977 0.17397 0.0
C1166 C 0.91082 0.86816 0.18356 0.0
C1167 C 0.9048 0.85029 0.1841 0.0
H1168 H 0.17424 0.68656 0.94146 0.0
H1169 H 0.07928 0.67831 0.90705 0.0
H1170 H 0.18466 0.65543 0.93986 0.0
H1171 H 0.08976 0.6471 0.90564 0.0
H1172 H 0.10795 0.59165 0.93949 0.0
H1173 H 0.09762 0.62278 0.93904 0.0
H1174 H 0.1927 0.6317 0.90547 0.0
H1175 H 0.20311 0.60044 0.90574 0.0
C1176 C 0.15554 0.67812 0.93358 0.0
C1177 C 0.12585 0.68499 0.92444 0.0
C1178 C 0.16164 0.66028 0.9325 0.0
C1179 C 0.13808 0.64878 0.9226 0.0
C1180 C 0.10834 0.6556 0.91354 0.0
C1181 C 0.10239 0.6735 0.91426 0.0
C1182 C 0.1267 0.6002 0.93195 0.0
C1183 C 0.15642 0.59349 0.92268 0.0
C1184 C 0.12065 0.61806 0.93155 0.0
C1185 C 0.1443 0.62973 0.92221 0.0
C1186 C 0.17406 0.62306 0.91296 0.0
C1187 C 0.17996 0.60514 0.913 0.0
H1188 H 0.14953 0.59529 0.39844 0.0
H1189 H 0.10346 0.59938 0.47586 0.0
H1190 H 0.16039 0.62641 0.39875 0.0
H1191 H 0.11499 0.63061 0.4763 0.0
H1192 H 0.17886 0.68183 0.47555 0.0
H1193 H 0.16781 0.65056 0.47647 0.0
H1194 H 0.12416 0.65411 0.39812 0.0
H1195 H 0.13454 0.68527 0.39733 0.0
C1196 C 0.14178 0.60281 0.41557 0.0
C1197 C 0.12556 0.59482 0.43711 0.0
C1198 C 0.14794 0.62065 0.41569 0.0
C1199 C 0.13861 0.63092 0.43757 0.0
C1200 C 0.12265 0.62297 0.45926 0.0
C1201 C 0.11586 0.60513 0.45891 0.0
C1202 C 0.16699 0.67592 0.45851 0.0
C1203 C 0.1576 0.68606 0.43636 0.0
C1204 C 0.16047 0.65805 0.45913 0.0
C1205 C 0.14509 0.64991 0.43737 0.0
C1206 C 0.13617 0.66001 0.41512 0.0
C1207 C 0.14205 0.67787 0.41472 0.0
H1208 H 0.92382 0.43787 0.16991 0.0
H1209 H 0.82865 0.42981 0.20409 0.0
H1210 H 0.93375 0.40672 0.17117 0.0
H1211 H 0.83866 0.39851 0.20515 0.0
H1212 H 0.85685 0.34317 0.17038 0.0
H1213 H 0.84655 0.37433 0.17128 0.0
H1214 H 0.94135 0.38286 0.20556 0.0
H1215 H 0.95171 0.35163 0.20486 0.0
C1216 C 0.90496 0.42947 0.17768 0.0
C1217 C 0.87537 0.43639 0.18686 0.0
C1218 C 0.91079 0.4116 0.17856 0.0
C1219 C 0.88704 0.40013 0.1883 0.0
C1220 C 0.85738 0.40701 0.19739 0.0
C1221 C 0.8517 0.42494 0.19688 0.0
C1222 C 0.87555 0.35166 0.17815 0.0
C1223 C 0.90518 0.34485 0.18749 0.0
C1224 C 0.86951 0.36952 0.17883 0.0
C1225 C 0.8931 0.38107 0.1885 0.0
C1226 C 0.92276 0.3743 0.19782 0.0
C1227 C 0.92864 0.3564 0.19751 0.0
H1228 H 0.92886 0.43009 0.6367 0.0
H1229 H 0.88401 0.43393 0.71464 0.0
H1230 H 0.9176 0.39884 0.63623 0.0
H1231 H 0.87346 0.40276 0.71431 0.0
H1232 H 0.89888 0.34371 0.7145 0.0
H1233 H 0.90965 0.37486 0.7141 0.0
H1234 H 0.86445 0.37913 0.63645 0.0
H1235 H 0.85297 0.34791 0.63699 0.0
C1236 C 0.91683 0.42427 0.65378 0.0
C1237 C 0.90734 0.43452 0.6757 0.0
C1238 C 0.9102 0.40642 0.65342 0.0
C1239 C 0.89462 0.39839 0.67523 0.0
C1240 C 0.88561 0.40858 0.69728 0.0
C1241 C 0.89159 0.42645 0.69741 0.0
C1242 C 0.89113 0.35126 0.69734 0.0
C1243 C 0.87499 0.3433 0.67578 0.0
C1244 C 0.89725 0.36912 0.69717 0.0
C1245 C 0.88798 0.37941 0.67522 0.0
C1246 C 0.87206 0.37148 0.65355 0.0
C1247 C 0.86531 0.35365 0.65395 0.0
H1248 H 0.63276 0.09397 0.96493 0.0
H1249 H 0.67832 0.09809 0.88728 0.0
H1250 H 0.62213 0.12513 0.96455 0.0
H1251 H 0.66697 0.12933 0.88675 0.0
H1252 H 0.60261 0.18037 0.88733 0.0
H1253 H 0.61379 0.14911 0.88678 0.0
H1254 H 0.65866 0.15299 0.96458 0.0
H1255 H 0.64821 0.18416 0.96498 0.0
C1256 C 0.64045 0.10151 0.94774 0.0
C1257 C 0.65645 0.09352 0.92614 0.0
C1258 C 0.63443 0.11937 0.94759 0.0
C1259 C 0.64364 0.12965 0.9256 0.0
C1260 C 0.65941 0.12169 0.90388 0.0
C1261 C 0.66608 0.10385 0.90428 0.0
C1262 C 0.6148 0.17454 0.90432 0.0
C1263 C 0.62451 0.18478 0.92619 0.0
C1264 C 0.62138 0.15668 0.90392 0.0
C1265 C 0.63712 0.14863 0.92563 0.0
C1266 C 0.64638 0.15882 0.94762 0.0
C1267 C 0.64046 0.17669 0.94779 0.0
H1268 H 0.60819 0.18767 0.42006 0.0
H1269 H 0.70304 0.17963 0.45486 0.0
H1270 H 0.59826 0.15653 0.42125 0.0
H1271 H 0.69302 0.14833 0.45586 0.0
H1272 H 0.67526 0.09298 0.42111 0.0
H1273 H 0.68553 0.12413 0.42207 0.0
H1274 H 0.59024 0.13266 0.45541 0.0
H1275 H 0.5799 0.10142 0.45464 0.0
C1276 C 0.62698 0.17928 0.42796 0.0
C1277 C 0.65649 0.18621 0.43733 0.0
C1278 C 0.62114 0.16141 0.4288 0.0
C1279 C 0.6448 0.14994 0.43868 0.0
C1280 C 0.67437 0.15682 0.44797 0.0
C1281 C 0.68006 0.17476 0.4475 0.0
C1282 C 0.65644 0.10146 0.42868 0.0
C1283 C 0.62668 0.09464 0.43774 0.0
C1284 C 0.66247 0.11932 0.4294 0.0
C1285 C 0.63873 0.13088 0.43883 0.0
C1286 C 0.60894 0.1241 0.44785 0.0
C1287 C 0.60307 0.10619 0.44751 0.0
H1288 H 0.38192 0.84556 0.14842 0.0
H1289 H 0.42816 0.84903 0.22585 0.0
H1290 H 0.37136 0.87671 0.14924 0.0
H1291 H 0.41691 0.88027 0.22681 0.0
H1292 H 0.35318 0.93158 0.22697 0.0
H1293 H 0.36416 0.90029 0.22735 0.0
H1294 H 0.40785 0.90438 0.14909 0.0
H1295 H 0.39757 0.93556 0.14884 0.0
C1296 C 0.38977 0.85295 0.16566 0.0
C1297 C 0.40596 0.84478 0.18706 0.0
C1298 C 0.38378 0.87081 0.16607 0.0
C1299 C 0.39323 0.88091 0.1881 0.0
C1300 C 0.40916 0.87277 0.20964 0.0
C1301 C 0.41578 0.85493 0.209 0.0
C1302 C 0.36507 0.92578 0.20984 0.0
C1303 C 0.37449 0.93608 0.18788 0.0
C1304 C 0.37153 0.90791 0.21015 0.0
C1305 C 0.38688 0.89991 0.18825 0.0
C1306 C 0.39587 0.91017 0.16619 0.0
C1307 C 0.39005 0.92804 0.16611 0.0
H1308 H 0.32905 0.85028 0.65734 0.0
H1309 H 0.42414 0.8416 0.6913 0.0
H1310 H 0.33939 0.88153 0.65691 0.0
H1311 H 0.43441 0.87275 0.6907 0.0
H1312 H 0.45265 0.92824 0.65826 0.0
H1313 H 0.44235 0.897 0.65721 0.0
H1314 H 0.34721 0.90537 0.69093 0.0
H1315 H 0.35743 0.93651 0.69214 0.0
C1316 C 0.35217 0.855 0.66464 0.0
C1317 C 0.37571 0.84338 0.6744 0.0
C1318 C 0.35803 0.87292 0.6645 0.0
C1319 C 0.38775 0.87963 0.67375 0.0
C1320 C 0.4114 0.868 0.68321 0.0
C1321 C 0.40539 0.85014 0.6837 0.0
C1322 C 0.42952 0.92343 0.66542 0.0
C1323 C 0.40593 0.93494 0.67534 0.0
C1324 C 0.42368 0.90552 0.66493 0.0
C1325 C 0.39392 0.89869 0.67396 0.0
C1326 C 0.37024 0.91021 0.6836 0.0
C1327 C 0.37623 0.92807 0.68445 0.0
H1328 H 0.63362 0.59404 0.46456 0.0
H1329 H 0.67874 0.59817 0.38673 0.0
H1330 H 0.62314 0.62522 0.46428 0.0
H1331 H 0.66754 0.62942 0.38631 0.0
H1332 H 0.60327 0.68044 0.38705 0.0
H1333 H 0.61452 0.6492 0.38646 0.0
H1334 H 0.65945 0.65308 0.46424 0.0
H1335 H 0.64891 0.68425 0.46468 0.0
C1336 C 0.64126 0.60159 0.44736 0.0
C1337 C 0.65708 0.5936 0.42567 0.0
C1338 C 0.63532 0.61946 0.44726 0.0
C1339 C 0.64444 0.62974 0.42525 0.0
C1340 C 0.66006 0.62178 0.40346 0.0
C1341 C 0.66665 0.60393 0.40379 0.0
C1342 C 0.61549 0.67462 0.40403 0.0
C1343 C 0.62518 0.68486 0.42591 0.0
C1344 C 0.62211 0.65677 0.4036 0.0
C1345 C 0.63789 0.64872 0.4253 0.0
C1346 C 0.64714 0.65891 0.4473 0.0
C1347 C 0.64117 0.67677 0.44749 0.0
H1348 H 0.63666 0.68538 0.89673 0.0
H1349 H 0.67914 0.68179 0.97563 0.0
H1350 H 0.62657 0.6542 0.89709 0.0
H1351 H 0.66837 0.65048 0.9761 0.0
H1352 H 0.60408 0.59936 0.97427 0.0
H1353 H 0.61575 0.63055 0.97504 0.0
H1354 H 0.66259 0.62647 0.89806 0.0
H1355 H 0.65157 0.59536 0.89741 0.0
C1356 C 0.64383 0.67794 0.91418 0.0
C1357 C 0.65875 0.6861 0.93616 0.0
C1358 C 0.63812 0.66006 0.91432 0.0
C1359 C 0.6466 0.64991 0.93663 0.0
C1360 C 0.6614 0.65802 0.9587 0.0
C1361 C 0.66774 0.6759 0.95835 0.0
C1362 C 0.61683 0.60513 0.9575 0.0
C1363 C 0.62686 0.59485 0.93577 0.0
C1364 C 0.6237 0.62295 0.95805 0.0
C1365 C 0.64011 0.63092 0.93662 0.0
C1366 C 0.6498 0.62069 0.9148 0.0
C1367 C 0.64354 0.60286 0.91449 0.0
H1368 H 0.32909 0.42975 0.70496 0.0
H1369 H 0.4245 0.43837 0.67158 0.0
H1370 H 0.33959 0.39851 0.70589 0.0
H1371 H 0.43492 0.40724 0.6727 0.0
H1372 H 0.45303 0.35191 0.70585 0.0
H1373 H 0.44255 0.38315 0.70664 0.0
H1374 H 0.34794 0.37456 0.67203 0.0
H1375 H 0.35834 0.34343 0.67106 0.0
C1376 C 0.35231 0.42502 0.6979 0.0
C1377 C 0.37589 0.43661 0.68813 0.0
C1378 C 0.35827 0.40711 0.69833 0.0
C1379 C 0.38812 0.40039 0.6894 0.0
C1380 C 0.41181 0.412 0.67995 0.0
C1381 C 0.4057 0.42985 0.67916 0.0
C1382 C 0.42997 0.35667 0.69844 0.0
C1383 C 0.40659 0.34512 0.68833 0.0
C1384 C 0.42403 0.37458 0.69879 0.0
C1385 C 0.39437 0.38134 0.68943 0.0
C1386 C 0.37088 0.36977 0.67962 0.0
C1387 C 0.37699 0.35192 0.67891 0.0
H1388 H 0.32894 0.35027 0.15664 0.0
H1389 H 0.42424 0.34146 0.19012 0.0
H1390 H 0.33944 0.3815 0.15615 0.0
H1391 H 0.43467 0.3726 0.18944 0.0
H1392 H 0.45242 0.42832 0.15733 0.0
H1393 H 0.44226 0.39705 0.15595 0.0
H1394 H 0.34755 0.40509 0.19068 0.0
H1395 H 0.35764 0.43622 0.19226 0.0
C1396 C 0.35214 0.35496 0.16379 0.0
C1397 C 0.37568 0.34331 0.17349 0.0
C1398 C 0.3581 0.37286 0.16362 0.0
C1399 C 0.38791 0.37953 0.17274 0.0
C1400 C 0.41159 0.36788 0.18205 0.0
C1401 C 0.40548 0.35002 0.18259 0.0
C1402 C 0.42943 0.42343 0.16466 0.0
C1403 C 0.40591 0.43483 0.17497 0.0
C1404 C 0.42366 0.4055 0.16396 0.0
C1405 C 0.39405 0.39859 0.17315 0.0
C1406 C 0.37046 0.41001 0.1832 0.0
C1407 C 0.37639 0.42786 0.18427 0.0
H1408 H 0.34973 0.03301 0.36619 0.0
H1409 H 0.29652 1.00568 0.42786 0.0
H1410 H 0.40037 0.02599 0.38922 0.0
H1411 H 0.34667 0.99936 0.45091 0.0
H1412 H 0.48739 1.00677 0.43351 0.0
H1413 H 0.43754 0.99998 0.41034 0.0
H1414 H 0.38267 0.0258 0.47198 0.0
H1415 H 0.43298 0.0333 0.49511 0.0
C1416 C 0.34876 0.02503 0.38405 0.0
C1417 C 0.31872 0.02022 0.39517 0.0
C1418 C 0.37776 0.02102 0.39724 0.0
C1419 C 0.37721 1.01236 0.42201 0.0
C1420 C 0.34764 1.00612 0.43188 0.0
C1421 C 0.31874 1.00973 0.41835 0.0
C1422 C 0.46498 1.01054 0.44297 0.0
C1423 C 0.46453 0.02092 0.46619 0.0
C1424 C 0.43626 1.00666 0.42938 0.0
C1425 C 0.40642 1.01252 0.43922 0.0
C1426 C 0.40548 0.0211 0.46399 0.0
C1427 C 0.43429 0.02539 0.47724 0.0
H1428 H 0.84881 0.24684 0.49566 0.0
H1429 H 0.79644 0.27419 0.43353 0.0
H1430 H 0.89974 0.2537 0.47297 0.0
H1431 H 0.84689 0.28032 0.41076 0.0
H1432 H 0.93379 0.24634 0.36735 0.0
H1433 H 0.88318 0.25383 0.39003 0.0
H1434 H 0.93724 0.27967 0.45215 0.0
H1435 H 0.98739 0.27287 0.42944 0.0
C1436 C 0.84808 0.25478 0.47775 0.0
C1437 C 0.81819 0.25963 0.46639 0.0
C1438 C 0.87726 0.2587 0.46475 0.0
C1439 C 0.87704 0.26731 0.43993 0.0
C1440 C 0.8476 0.27359 0.42982 0.0
C1441 C 0.81853 0.27007 0.44317 0.0
C1442 C 0.93488 0.25425 0.38524 0.0
C1443 C 0.96498 0.25872 0.39655 0.0
C1444 C 0.90589 0.25853 0.39823 0.0
C1445 C 0.9065 0.26712 0.423 0.0
C1446 C 0.93622 0.27298 0.43311 0.0
C1447 C 0.96512 0.2691 0.41978 0.0
H1448 H 0.43208 0.24678 0.86756 0.0
H1449 H 0.48688 0.27289 0.92936 0.0
H1450 H 0.38189 0.2544 0.89076 0.0
H1451 H 0.43714 0.27984 0.95256 0.0
H1452 H 0.34899 0.24717 0.99665 0.0
H1453 H 0.39967 0.25406 0.97362 0.0
H1454 H 0.34618 0.28084 0.91194 0.0
H1455 H 0.29599 0.27466 0.93502 0.0
C1456 C 0.43351 0.25463 0.88549 0.0
C1457 C 0.46382 0.25895 0.89656 0.0
C1458 C 0.40476 0.25899 0.89877 0.0
C1459 C 0.40583 0.26751 0.9236 0.0
C1460 C 0.43576 0.27322 0.93347 0.0
C1461 C 0.46442 0.26926 0.91986 0.0
C1462 C 0.34807 0.25515 0.97879 0.0
C1463 C 0.31806 0.26002 0.96766 0.0
C1464 C 0.37711 0.25909 0.9656 0.0
C1465 C 0.37662 0.26775 0.94081 0.0
C1466 C 0.34709 0.27407 0.93097 0.0
C1467 C 0.31817 0.27054 0.94451 0.0
H1468 H 0.98968 1.01123 0.93271 0.0
H1469 H 0.93454 0.03136 0.99936 0.0
H1470 H 0.94 1.00518 0.9088 0.0
H1471 H 0.88431 0.02497 0.97515 0.0
H1472 H 0.79854 1.00684 0.92826 0.0
H1473 H 0.84893 1.00084 0.95114 0.0
H1474 H 0.90128 0.02963 0.89094 0.0
H1475 H 0.85042 0.03616 0.86801 0.0
C1476 C 0.96712 1.01365 0.94297 0.0
C1477 C 0.96634 0.02179 0.96821 0.0
C1478 C 0.9385 1.01031 0.92894 0.0
C1479 C 0.90839 1.01473 0.94 0.0
C1480 C 0.90728 0.02134 0.96621 0.0
C1481 C 0.93601 0.02499 0.98008 0.0
C1482 C 0.82053 1.01147 0.91906 0.0
C1483 C 0.81999 0.02233 0.89628 0.0
C1484 C 0.84958 1.00808 0.93253 0.0
C1485 C 0.87887 0.01496 0.92305 0.0
C1486 C 0.87896 0.02415 0.89871 0.0
C1487 C 0.8498 0.02788 0.88557 0.0
H1488 H 0.59971 0.9967 0.61866 0.0
H1489 H 0.5451 0.02287 0.6805 0.0
H1490 H 0.64997 1.00423 0.64185 0.0
H1491 H 0.5949 0.0297 0.70373 0.0
H1492 H 0.68309 0.99681 0.7476 0.0
H1493 H 0.63236 1.00376 0.72466 0.0
H1494 H 0.68574 0.0307 0.66308 0.0
H1495 H 0.73597 0.02446 0.68607 0.0
C1496 C 0.59834 1.00454 0.63661 0.0
C1497 C 0.56806 1.0089 0.64769 0.0
C1498 C 0.62712 1.00884 0.64989 0.0
C1499 C 0.62612 0.01734 0.67473 0.0
C1500 C 0.59623 0.02309 0.68463 0.0
C1501 C 0.56753 0.01919 0.67101 0.0
C1502 C 0.68397 1.00485 0.72979 0.0
C1503 C 0.71396 1.00975 0.71866 0.0
C1504 C 0.65491 1.00881 0.71665 0.0
C1505 C 0.65535 0.01753 0.69192 0.0
C1506 C 0.68486 0.02389 0.68207 0.0
C1507 C 0.71381 0.02032 0.69556 0.0
H1508 H 0.23319 0.75641 0.67763 0.0
H1509 H 0.18096 0.78555 0.61737 0.0
H1510 H 0.18287 0.75023 0.7005 0.0
H1511 H 0.13018 0.77884 0.64027 0.0
H1512 H 0.0973 0.78073 0.74871 0.0
H1513 H 0.14746 0.77419 0.72453 0.0
H1514 H 0.0916 0.7545 0.6582 0.0
H1515 H 0.04198 0.76074 0.68205 0.0
C1516 C 0.21114 0.76096 0.66842 0.0
C1517 C 0.21154 0.77183 0.64566 0.0
C1518 C 0.18212 0.75746 0.68188 0.0
C1519 C 0.15276 0.76425 0.6724 0.0
C1520 C 0.15256 0.77343 0.64805 0.0
C1521 C 0.18167 0.77727 0.63491 0.0
C1522 C 0.09577 0.77434 0.72946 0.0
C1523 C 0.06542 0.77125 0.71755 0.0
C1524 C 0.12446 0.77061 0.71559 0.0
C1525 C 0.12328 0.76399 0.68939 0.0
C1526 C 0.09314 0.75963 0.67834 0.0
C1527 C 0.06456 0.76307 0.69234 0.0
H1528 H 0.59736 0.78049 0.24828 0.0
H1529 H 0.54201 0.7607 0.1815 0.0
H1530 H 0.64751 0.77399 0.22406 0.0
H1531 H 0.59161 0.75449 0.15761 0.0
H1532 H 0.68099 0.78565 0.11702 0.0
H1533 H 0.63021 0.77887 0.13986 0.0
H1534 H 0.68287 0.75007 0.19988 0.0
H1535 H 0.7332 0.75632 0.17708 0.0
C1536 C 0.59582 0.77415 0.22899 0.0
C1537 C 0.56546 0.7711 0.21707 0.0
C1538 C 0.62451 0.77044 0.21511 0.0
C1539 C 0.62331 0.76388 0.18886 0.0
C1540 C 0.59316 0.75957 0.17779 0.0
C1541 C 0.56459 0.76299 0.19181 0.0
C1542 C 0.6817 0.77731 0.1345 0.0
C1543 C 0.71156 0.77185 0.14522 0.0
C1544 C 0.65259 0.77343 0.1476 0.0
C1545 C 0.65278 0.76418 0.17188 0.0
C1546 C 0.68214 0.75735 0.18131 0.0
C1547 C 0.71116 0.7609 0.16789 0.0
H1548 H 0.18401 0.99941 0.25025 0.0
H1549 H 0.23863 0.01997 0.18348 0.0
H1550 H 0.13363 1.00548 0.22605 0.0
H1551 H 0.1888 0.02574 0.15958 0.0
H1552 H 0.10054 0.99391 0.11884 0.0
H1553 H 0.15107 1.00107 0.14176 0.0
H1554 H 0.09736 0.029 0.20193 0.0
H1555 H 0.04727 0.02233 0.17908 0.0
C1556 C 0.18532 1.00583 0.23096 0.0
C1557 C 0.21556 1.0092 0.21902 0.0
C1558 C 0.1565 1.00929 0.21708 0.0
C1559 C 0.15745 0.01592 0.19083 0.0
C1560 C 0.18743 0.02058 0.17976 0.0
C1561 C 0.21614 0.0174 0.19377 0.0
C1562 C 0.09954 1.00214 0.13638 0.0
C1563 C 0.06949 1.00727 0.14708 0.0
C1564 C 0.12851 1.00624 0.14952 0.0
C1565 C 0.12797 0.01537 0.17385 0.0
C1566 C 0.09837 0.02183 0.18332 0.0
C1567 C 0.06949 0.01806 0.16986 0.0
H1568 H 0.29451 0.5101 0.92927 0.0
H1569 H 0.34919 0.53051 0.86242 0.0
H1570 H 0.34431 0.50444 0.95326 0.0
H1571 H 0.39955 0.52453 0.88671 0.0
H1572 H 0.48583 0.50766 0.93378 0.0
H1573 H 0.43573 0.50102 0.91095 0.0
H1574 H 0.38212 0.52912 0.97099 0.0
H1575 H 0.43268 0.53626 0.9939 0.0
C1576 C 0.31701 0.51266 0.91899 0.0
C1577 C 0.31761 0.52079 0.89369 0.0
C1578 C 0.3457 0.50954 0.93306 0.0
C1579 C 0.3757 0.51418 0.92199 0.0
C1580 C 0.37667 0.52074 0.89569 0.0
C1581 C 0.34786 0.52415 0.88176 0.0
C1582 C 0.46363 0.51198 0.94299 0.0
C1583 C 0.46369 0.5228 0.96573 0.0
C1584 C 0.43475 0.50823 0.92954 0.0
C1585 C 0.40517 0.51474 0.93897 0.0
C1586 C 0.40467 0.52391 0.96326 0.0
C1587 C 0.43365 0.528 0.9764 0.0
H1588 H 0.8479 0.75 0.99897 0.0
H1589 H 0.79342 0.77045 0.93204 0.0
H1590 H 0.89833 0.75602 0.97482 0.0
H1591 H 0.8433 0.77617 0.90819 0.0
H1592 H 0.98481 0.77268 0.92789 0.0
H1593 H 0.93471 0.77945 0.95063 0.0
H1594 H 0.88099 0.75146 0.89053 0.0
H1595 H 0.93154 0.74419 0.86772 0.0
C1596 C 0.84663 0.75639 0.97965 0.0
C1597 C 0.81641 0.75973 0.96765 0.0
C1598 C 0.87548 0.75982 0.9658 0.0
C1599 C 0.87459 0.7664 0.93952 0.0
C1600 C 0.84462 0.77105 0.92839 0.0
C1601 C 0.81589 0.7679 0.94238 0.0
C1602 C 0.96259 0.76841 0.91866 0.0
C1603 C 0.9626 0.75757 0.89594 0.0
C1604 C 0.9337 0.77224 0.93205 0.0
C1605 C 0.90409 0.7658 0.92257 0.0
C1606 C 0.90357 0.75662 0.89829 0.0
C1607 C 0.93254 0.75245 0.88521 0.0
H1608 H 0.29611 0.77409 0.43349 0.0
H1609 H 0.34905 0.74688 0.49545 0.0
H1610 H 0.34633 0.78025 0.41045 0.0
H1611 H 0.39977 0.75375 0.47244 0.0
H1612 H 0.43279 0.74626 0.36658 0.0
H1613 H 0.3824 0.75377 0.38958 0.0
H1614 H 0.43707 0.77966 0.45129 0.0
H1615 H 0.48698 0.77283 0.42828 0.0
C1616 C 0.31828 0.77002 0.44305 0.0
C1617 C 0.31815 0.75961 0.46631 0.0
C1618 C 0.34723 0.77354 0.42953 0.0
C1619 C 0.37676 0.7673 0.43949 0.0
C1620 C 0.37721 0.75872 0.46434 0.0
C1621 C 0.34815 0.7548 0.47751 0.0
C1622 C 0.43405 0.75418 0.38444 0.0
C1623 C 0.46425 0.75867 0.39554 0.0
C1624 C 0.40519 0.75848 0.39761 0.0
C1625 C 0.40604 0.76709 0.42236 0.0
C1626 C 0.43585 0.77296 0.43226 0.0
C1627 C 0.46462 0.76907 0.41875 0.0
H1628 H 0.85016 0.53598 0.36689 0.0
H1629 H 0.79805 0.50643 0.42674 0.0
H1630 H 0.90093 0.52936 0.38987 0.0
H1631 H 0.84835 0.50035 0.44969 0.0
H1632 H 0.93352 0.53094 0.49838 0.0
H1633 H 0.88346 0.52446 0.47398 0.0
H1634 H 0.93964 0.50494 0.40772 0.0
H1635 H 0.98915 0.5111 0.43179 0.0
C1636 C 0.84947 0.52763 0.38436 0.0
C1637 C 0.81962 0.52205 0.39497 0.0
C1638 C 0.87858 0.52384 0.39754 0.0
C1639 C 0.87839 0.51458 0.42181 0.0
C1640 C 0.84908 0.50765 0.43114 0.0
C1641 C 0.82007 0.51109 0.41763 0.0
C1642 C 0.93514 0.52461 0.47908 0.0
C1643 C 0.96555 0.52152 0.46728 0.0
C1644 C 0.90651 0.52091 0.4651 0.0
C1645 C 0.90781 0.51434 0.43886 0.0
C1646 C 0.93801 0.51002 0.42789 0.0
C1647 C 0.96653 0.51342 0.44201 0.0
H1648 H 0.68297 0.49713 0.24511 0.0
H1649 H 0.73556 0.52437 0.18298 0.0
H1650 H 0.6321 0.50408 0.22239 0.0
H1651 H 0.68516 0.53059 0.16018 0.0
H1652 H 0.59822 0.49665 0.11677 0.0
H1653 H 0.64882 0.50414 0.13947 0.0
H1654 H 0.59473 0.53008 0.20147 0.0
H1655 H 0.5446 0.52329 0.17872 0.0
C1656 C 0.68376 0.50507 0.22719 0.0
C1657 C 0.71369 0.50987 0.21585 0.0
C1658 C 0.65462 0.50904 0.21418 0.0
C1659 C 0.65491 0.51765 0.18936 0.0
C1660 C 0.68439 0.52387 0.17925 0.0
C1661 C 0.71344 0.5203 0.19261 0.0
C1662 C 0.59713 0.50458 0.13463 0.0
C1663 C 0.56703 0.50907 0.14591 0.0
C1664 C 0.62611 0.50886 0.14763 0.0
C1665 C 0.62549 0.51748 0.17239 0.0
C1666 C 0.59577 0.52337 0.18245 0.0
C1667 C 0.56688 0.51949 0.1691 0.0
H1668 H 0.09812 0.28326 0.24786 0.0
H1669 H 0.04363 0.26114 0.18235 0.0
H1670 H 0.14846 0.27695 0.22395 0.0
H1671 H 0.09346 0.25486 0.15888 0.0
H1672 H 0.23551 0.26017 0.17965 0.0
H1673 H 0.18546 0.25442 0.20318 0.0
H1674 H 0.13126 0.27694 0.13786 0.0
H1675 H 0.18182 0.28273 0.11391 0.0
C1676 C 0.09684 0.27646 0.22892 0.0
C1677 C 0.06662 0.27267 0.21729 0.0
C1678 C 0.12567 0.27284 0.2152 0.0
C1679 C 0.12481 0.26556 0.18939 0.0
C1680 C 0.09483 0.26057 0.17865 0.0
C1681 C 0.0661 0.26399 0.19248 0.0
C1682 C 0.21316 0.26324 0.16949 0.0
C1683 C 0.21294 0.2719 0.14461 0.0
C1684 C 0.1843 0.26012 0.18335 0.0
C1685 C 0.1545 0.26539 0.17255 0.0
C1686 C 0.15391 0.27263 0.14666 0.0
C1687 C 0.18286 0.27595 0.13291 0.0
H1688 H 0.59858 0.28061 0.74886 0.0
H1689 H 0.54257 0.26088 0.68241 0.0
H1690 H 0.64849 0.27393 0.72444 0.0
H1691 H 0.59194 0.25449 0.65831 0.0
H1692 H 0.73371 0.25616 0.67725 0.0
H1693 H 0.68349 0.24995 0.7002 0.0
H1694 H 0.63061 0.27869 0.64025 0.0
H1695 H 0.6813 0.28541 0.61723 0.0
C1696 C 0.59684 0.27424 0.7296 0.0
C1697 C 0.56638 0.27127 0.71782 0.0
C1698 C 0.62539 0.27042 0.7156 0.0
C1699 C 0.62395 0.26384 0.68938 0.0
C1700 C 0.59368 0.25959 0.67846 0.0
C1701 C 0.56524 0.26312 0.6926 0.0
C1702 C 0.71164 0.26071 0.66809 0.0
C1703 C 0.71197 0.27163 0.64538 0.0
C1704 C 0.68268 0.2572 0.6816 0.0
C1705 C 0.6533 0.26404 0.67225 0.0
C1706 C 0.65301 0.27325 0.64793 0.0
C1707 C 0.68207 0.27709 0.63473 0.0
H1708 H 0.04455 0.52292 0.67727 0.0
H1709 H 0.09917 0.4963 0.61589 0.0
H1710 H 0.09432 0.52993 0.70036 0.0
H1711 H 0.14941 0.50398 0.63897 0.0
H1712 H 0.18191 0.49723 0.74506 0.0
H1713 H 0.13138 0.50416 0.72181 0.0
H1714 H 0.1854 0.53037 0.65987 0.0
H1715 H 0.23545 0.52414 0.68314 0.0
C1716 C 0.06698 0.51919 0.66782 0.0
C1717 C 0.06751 0.50871 0.6447 0.0
C1718 C 0.09566 0.52319 0.68137 0.0
C1719 C 0.12554 0.51734 0.67161 0.0
C1720 C 0.12656 0.50867 0.6469 0.0
C1721 C 0.09779 0.50428 0.63369 0.0
C1722 C 0.18297 0.5051 0.72709 0.0
C1723 C 0.21307 0.50981 0.71597 0.0
C1724 C 0.15403 0.50907 0.71377 0.0
C1725 C 0.15471 0.51758 0.68887 0.0
C1726 C 0.18434 0.52373 0.67899 0.0
C1727 C 0.21318 0.52017 0.69264 0.0
H1728 H 0.94078 0.9893 0.58787 0.0
H1729 H 0.99956 0.02502 0.63357 0.0
H1730 H 0.97593 0.99352 0.54925 0.0
H1731 H 0.03529 0.02886 0.59514 0.0
H1732 H 0.07071 0.0462 0.51322 0.0
H1733 H 0.03474 0.04191 0.55128 0.0
H1734 H 0.02999 0.98711 0.53367 0.0
H1735 H 0.06524 0.9915 0.49507 0.0
C1736 C 0.9614 0.99793 0.58974 0.0
C1737 C 0.96743 1.00685 0.61374 0.0
C1738 C 0.98161 1.00029 0.56764 0.0
C1739 C 1.00838 1.01152 0.56913 0.0
C1740 C 1.01455 0.02032 0.59323 0.0
C1741 C 0.99421 0.01805 0.61529 0.0
C1742 C 0.06189 0.03325 0.51741 0.0
C1743 C 0.07077 0.01919 0.50116 0.0
C1744 C 0.04147 0.03077 0.53933 0.0
C1745 C 0.02966 1.01416 0.54557 0.0
C1746 C 0.03837 1.00011 0.52919 0.0
C1747 C 0.05866 1.00261 0.50714 0.0
H1748 H 0.33928 0.29275 0.58836 0.0
H1749 H 0.29142 0.25136 0.63145 0.0
H1750 H 0.30362 0.28796 0.55023 0.0
H1751 H 0.25495 0.24697 0.5937 0.0
H1752 H 0.21786 0.23138 0.51177 0.0
H1753 H 0.25487 0.23611 0.54903 0.0
H1754 H 0.24867 0.29148 0.5362 0.0
H1755 H 0.21261 0.28668 0.4983 0.0
C1756 C 0.3209 0.28274 0.58978 0.0
C1757 C 0.31812 0.27242 0.61287 0.0
C1758 C 0.30037 0.28005 0.56797 0.0
C1759 C 0.27642 0.26707 0.56889 0.0
C1760 C 0.2735 0.25686 0.59214 0.0
C1761 C 0.29424 0.25945 0.61385 0.0
C1762 C 0.22452 0.24456 0.51686 0.0
C1763 C 0.21238 0.25866 0.50212 0.0
C1764 C 0.24554 0.24728 0.53833 0.0
C1765 C 0.25461 0.26418 0.5457 0.0
C1766 C 0.24255 0.27828 0.53083 0.0
C1767 C 0.22177 0.27554 0.50918 0.0
H1768 H 0.96656 0.24137 0.74421 0.0
H1769 H 0.96125 0.29602 0.76281 0.0
H1770 H 1.00185 0.23683 0.78277 0.0
H1771 H 0.99724 0.29157 0.80081 0.0
H1772 H 0.03232 0.27447 0.88294 0.0
H1773 H 0.99653 0.27835 0.84456 0.0
H1774 H 0.05596 0.24319 0.79842 0.0
H1775 H 0.09118 0.23893 0.83699 0.0
C1776 C 0.97318 0.25243 0.75637 0.0
C1777 C 0.9611 0.26904 0.75054 0.0
C1778 C 0.99349 0.24985 0.77839 0.0
C1779 C 1.00223 0.26384 0.79489 0.0
C1780 C 0.99047 0.28048 0.78878 0.0
C1781 C 0.97004 0.28304 0.76689 0.0
C1782 C 0.03767 0.26754 0.86462 0.0
C1783 C 0.0645 0.25638 0.86297 0.0
C1784 C 0.01729 0.26984 0.84259 0.0
C1785 C 0.02349 0.26112 0.81843 0.0
C1786 C 0.05028 0.24991 0.81686 0.0
C1787 C 0.07053 0.24752 0.83893 0.0
H1788 H 0.19268 0.04281 0.8377 0.0
H1789 H 0.24169 1.00178 0.88074 0.0
H1790 H 0.22801 0.03809 0.79936 0.0
H1791 H 0.27781 0.99744 0.84274 0.0
H1792 H 0.31438 0.98193 0.76057 0.0
H1793 H 0.27756 0.98652 0.798 0.0
H1794 H 0.28293 0.0419 0.78517 0.0
H1795 H 0.31885 0.03726 0.74714 0.0
C1796 C 0.21123 0.03289 0.83906 0.0
C1797 C 0.21445 0.02266 0.86222 0.0
C1798 C 0.23157 0.03024 0.81713 0.0
C1799 C 0.25575 0.01739 0.81797 0.0
C1800 C 0.25908 1.00725 0.84125 0.0
C1801 C 0.23853 1.00981 0.8631 0.0
C1802 C 0.30757 0.99508 0.76568 0.0
C1803 C 0.31947 1.00924 0.75092 0.0
C1804 C 0.28665 0.99772 0.78725 0.0
C1805 C 0.27742 1.01458 0.79467 0.0
C1806 C 0.28919 0.02873 0.77976 0.0
C1807 C 0.30989 0.02608 0.75803 0.0
H1808 H 0.83936 0.79306 0.58637 0.0
H1809 H 0.79054 0.75222 0.62995 0.0
H1810 H 0.80357 0.78833 0.54831 0.0
H1811 H 0.75397 0.74787 0.59225 0.0
H1812 H 0.71668 0.73214 0.51044 0.0
H1813 H 0.75378 0.73681 0.54764 0.0
H1814 H 0.74855 0.79216 0.53436 0.0
H1815 H 0.71235 0.78742 0.49653 0.0
C1816 C 0.82076 0.78319 0.58791 0.0
C1817 C 0.81773 0.773 0.61112 0.0
C1818 C 0.80015 0.78053 0.56614 0.0
C1819 C 0.7759 0.76772 0.56722 0.0
C1820 C 0.77275 0.75764 0.59058 0.0
C1821 C 0.79356 0.7602 0.61225 0.0
C1822 C 0.72356 0.7453 0.51541 0.0
C1823 C 0.71165 0.75941 0.50057 0.0
C1824 C 0.74465 0.74799 0.53685 0.0
C1825 C 0.75401 0.76487 0.54407 0.0
C1826 C 0.74219 0.77898 0.5291 0.0
C1827 C 0.72133 0.77627 0.50749 0.0
H1828 H 1.00052 0.75528 0.22758 0.0
H1829 H 0.9403 0.7899 0.27402 0.0
H1830 H 0.03594 0.75118 0.26617 0.0
H1831 H 0.97514 0.78541 0.31276 0.0
H1832 H 0.06374 0.78726 0.36772 0.0
H1833 H 0.02891 0.79197 0.32895 0.0
H1834 H 0.03499 0.73746 0.30962 0.0
H1835 H 0.07053 0.73285 0.34787 0.0
C1836 C 0.9948 0.76196 0.24605 0.0
C1837 C 0.9677 0.77292 0.24778 0.0
C1838 C 1.01496 0.75953 0.26819 0.0
C1839 C 1.00826 0.76793 0.29253 0.0
C1840 C 0.9812 0.77895 0.29418 0.0
C1841 C 0.96117 0.78146 0.27201 0.0
C1842 C 0.05754 0.77628 0.35524 0.0
C1843 C 0.06989 0.7597 0.3608 0.0
C1844 C 0.0375 0.77897 0.33309 0.0
C1845 C 0.02929 0.7651 0.31618 0.0
C1846 C 0.04133 0.74847 0.32199 0.0
C1847 C 0.0615 0.74581 0.34403 0.0
H1848 H 0.693 0.04179 0.3382 0.0
H1849 H 0.74906 1.00444 0.38335 0.0
H1850 H 0.72762 0.03706 0.29942 0.0
H1851 H 0.78431 1.00009 0.34478 0.0
H1852 H 0.81832 0.98254 0.26271 0.0
H1853 H 0.78274 0.98736 0.30086 0.0
H1854 H 0.78189 0.04231 0.28357 0.0
H1855 H 0.81669 0.03741 0.24489 0.0
C1856 C 0.71293 0.0327 0.33993 0.0
C1857 C 0.71833 0.02348 0.36381 0.0
C1858 C 0.73285 0.03004 0.31773 0.0
C1859 C 0.75869 0.01819 0.31901 0.0
C1860 C 0.76427 1.0091 0.34301 0.0
C1861 C 0.74422 1.01168 0.36517 0.0
C1862 C 0.81041 0.99564 0.26698 0.0
C1863 C 0.82027 1.0096 0.2508 0.0
C1864 C 0.79022 0.99842 0.28896 0.0
C1865 C 0.77964 0.01523 0.29534 0.0
C1866 C 0.7893 0.02917 0.279 0.0
C1867 C 0.80934 0.02637 0.2569 0.0
H1868 H 0.0682 0.54647 1.00964 0.0
H1869 H 0.07258 0.49102 0.99772 0.0
H1870 H 0.03177 0.54221 1.04743 0.0
H1871 H 0.03681 0.48673 1.03603 0.0
H1872 H 0.94525 0.48726 0.08787 0.0
H1873 H 0.98116 0.49129 1.04966 0.0
H1874 H 0.03298 0.5312 0.09272 0.0
H1875 H 0.99651 0.52749 0.13071 0.0
C1876 C 0.06144 0.53336 1.01513 0.0
C1877 C 0.07322 0.51908 1.0007 0.0
C1878 C 0.04076 0.53092 1.03691 0.0
C1879 C 0.03154 0.51413 1.0448 0.0
C1880 C 0.04316 0.49984 1.03024 0.0
C1881 C 0.06375 0.5023 1.00836 0.0
C1882 C 0.96438 0.49686 0.08922 0.0
C1883 C 0.96807 0.50707 0.11228 0.0
C1884 C 0.98504 0.49911 0.06736 0.0
C1885 C 1.00988 0.51157 0.06815 0.0
C1886 C 1.01373 0.52167 0.09134 0.0
C1887 C 0.99297 0.51948 0.11316 0.0
H1888 H 0.31656 0.79743 0.10023 0.0
H1889 H 0.32267 0.74206 0.11285 0.0
H1890 H 0.27991 0.79276 0.06271 0.0
H1891 H 0.28673 0.73736 0.07481 0.0
H1892 H 0.195 0.73676 1.02331 0.0
H1893 H 0.23099 0.74127 0.06132 0.0
H1894 H 0.28083 0.78172 1.01761 0.0
H1895 H 0.24425 0.77753 0.97985 0.0
C1896 C 0.31014 0.78425 0.09495 0.0
C1897 C 0.32246 0.77011 0.10951 0.0
C1898 C 0.28933 0.78157 0.07332 0.0
C1899 C 0.28053 0.76469 0.0657 0.0
C1900 C 0.29273 0.75054 0.08038 0.0
C1901 C 0.31342 0.75323 0.10211 0.0
C1902 C 0.21371 0.74658 1.02178 0.0
C1903 C 0.21681 0.7568 0.9986 0.0
C1904 C 0.23442 0.74911 1.04353 0.0
C1905 C 0.25875 0.76186 1.0425 0.0
C1906 C 0.262 0.77198 1.01919 0.0
C1907 C 0.24117 0.76951 0.99749 0.0
H1908 H 0.33552 0.48616 0.27399 0.0
H1909 H 0.28634 0.5269 0.23038 0.0
H1910 H 0.29952 0.49074 0.31197 0.0
H1911 H 0.24975 0.53115 0.26811 0.0
H1912 H 0.21435 0.54709 0.3507 0.0
H1913 H 0.2509 0.54228 0.31317 0.0
H1914 H 0.24372 0.48692 0.3255 0.0
H1915 H 0.20787 0.49175 0.36356 0.0
C1916 C 0.31682 0.49598 0.27242 0.0
C1917 C 0.31376 0.50619 0.24921 0.0
C1918 C 0.29611 0.49855 0.29415 0.0
C1919 C 0.27181 0.51132 0.29307 0.0
C1920 C 0.26857 0.5214 0.26973 0.0
C1921 C 0.2894 0.51889 0.24805 0.0
C1922 C 0.22066 0.53389 0.34546 0.0
C1923 C 0.20828 0.51979 0.36009 0.0
C1924 C 0.24142 0.53113 0.32383 0.0
C1925 C 0.25008 0.51422 0.31628 0.0
C1926 C 0.23782 0.50012 0.33103 0.0
C1927 C 0.21718 0.50288 0.35277 0.0
H1928 H 0.83856 0.29249 0.08755 0.0
H1929 H 0.78986 0.25132 0.13051 0.0
H1930 H 0.80295 0.28788 1.04935 0.0
H1931 H 0.75345 0.2471 0.09265 0.0
H1932 H 0.71642 0.23178 1.01057 0.0
H1933 H 0.75339 0.23629 1.04791 0.0
H1934 H 0.74802 0.2917 1.0353 0.0
H1935 H 0.71196 0.28712 0.99732 0.0
C1936 C 0.82001 0.28257 0.08892 0.0
C1937 C 0.81697 0.27225 0.11201 0.0
C1938 C 0.79951 0.27998 0.06707 0.0
C1939 C 0.77534 0.26713 0.06793 0.0
C1940 C 0.77217 0.25692 0.09115 0.0
C1941 C 0.79289 0.2594 0.11292 0.0
C1942 C 0.72325 0.24492 1.01571 0.0
C1943 C 0.71134 0.2591 1.00102 0.0
C1944 C 0.74425 0.24752 1.03724 0.0
C1945 C 0.75354 0.26436 1.04469 0.0
C1946 C 0.74172 0.27854 1.02986 0.0
C1947 C 0.72094 0.27593 1.00816 0.0
H1948 H 0.71352 0.5471 0.8484 0.0
H1949 H 0.71561 0.49234 0.86691 0.0
H1950 H 0.74954 0.54221 0.81056 0.0
H1951 H 0.75086 0.48735 0.82852 0.0
H1952 H 0.84036 0.48787 0.77457 0.0
H1953 H 0.80524 0.49269 0.81303 0.0
H1954 H 0.74871 0.52928 0.76681 0.0
H1955 H 0.78444 0.52484 0.72858 0.0
C1956 C 0.72161 0.53401 0.84433 0.0
C1957 C 0.71177 0.5201 0.86063 0.0
C1958 C 0.74206 0.53118 0.82253 0.0
C1959 C 0.75292 0.51438 0.81644 0.0
C1960 C 0.74324 0.50049 0.83288 0.0
C1961 C 0.72294 0.50333 0.85481 0.0
C1962 C 0.82036 0.4969 0.7726 0.0
C1963 C 0.81514 0.50599 0.74857 0.0
C1964 C 0.80016 0.4996 0.7946 0.0
C1965 C 0.77421 0.51138 0.79299 0.0
C1966 C 0.76882 0.52034 0.76884 0.0
C1967 C 0.78917 0.51772 0.74688 0.0
H1968 H 0.44183 0.98797 0.08849 0.0
H1969 H 0.49362 0.02798 0.13134 0.0
H1970 H 0.47744 0.99205 1.05013 0.0
H1971 H 0.52998 0.03166 0.0933 0.0
H1972 H 0.56674 0.04677 1.01092 0.0
H1973 H 0.52996 0.0427 1.04851 0.0
H1974 H 0.53217 0.98728 1.03583 0.0
H1975 H 0.5681 0.99143 0.9976 0.0
C1976 C 0.46104 0.99753 0.08981 0.0
C1977 C 0.46496 1.00767 0.11291 0.0
C1978 C 0.48154 0.9998 0.06786 0.0
C1979 C 0.50656 1.01218 0.06864 0.0
C1980 C 0.51061 0.02222 0.09187 0.0
C1981 C 0.48991 0.02004 0.11374 0.0
C1982 C 0.55927 0.03372 1.0161 0.0
C1983 C 0.57027 0.01941 1.00132 0.0
C1984 C 0.53838 0.03138 1.03777 0.0
C1985 C 0.52827 1.01466 1.04527 0.0
C1986 C 0.53915 1.00035 1.03035 0.0
C1987 C 0.55984 1.00271 1.00852 0.0
H1988 H 0.45885 0.24071 0.24851 0.0
H1989 H 0.46368 0.29617 0.26021 0.0
H1990 H 0.49468 0.23641 0.2868 0.0
H1991 H 0.50014 0.2919 0.29796 0.0
H1992 H 0.53537 0.27727 0.38126 0.0
H1993 H 0.49882 0.28094 0.34331 0.0
H1994 H 0.55044 0.24094 0.30032 0.0
H1995 H 0.58643 0.23695 0.33849 0.0
C1996 C 0.4678 0.25198 0.2591 0.0
C1997 C 0.45843 0.26876 0.25139 0.0
C1998 C 0.48841 0.24952 0.28097 0.0
C1999 C 0.50015 0.26382 0.29545 0.0
C2000 C 0.49105 0.28061 0.2875 0.0
C2001 C 0.47035 0.28306 0.26574 0.0
C2002 C 0.53884 0.26923 0.36373 0.0
C2003 C 0.56372 0.25681 0.36285 0.0
C2004 C 0.51804 0.2714 0.34194 0.0
C2005 C 0.52182 0.26126 0.31879 0.0
C2006 C 0.54663 0.24878 0.318 0.0
C2007 C 0.56733 0.24655 0.33983 0.0
H2008 H 0.46366 0.74122 0.74617 0.0
H2009 H 0.46585 0.7966 0.75906 0.0
H2010 H 0.49968 0.73706 0.78433 0.0
H2011 H 0.50271 0.79251 0.79659 0.0
H2012 H 0.53893 0.77785 0.87951 0.0
H2013 H 0.50255 0.78157 0.84148 0.0
H2014 H 0.55456 0.74169 0.79846 0.0
H2015 H 0.59019 0.73759 0.83681 0.0
C2016 C 0.47212 0.75251 0.75697 0.0
C2017 C 0.4619 0.76923 0.74968 0.0
C2018 C 0.49287 0.75014 0.77877 0.0
C2019 C 0.50399 0.76445 0.79356 0.0
C2020 C 0.49411 0.78119 0.78595 0.0
C2021 C 0.47317 0.78354 0.76431 0.0
C2022 C 0.54252 0.76986 0.86195 0.0
C2023 C 0.56733 0.75741 0.86115 0.0
C2024 C 0.52182 0.77206 0.84009 0.0
C2025 C 0.52572 0.76196 0.8169 0.0
C2026 C 0.55059 0.7495 0.81616 0.0
C2027 C 0.5711 0.74721 0.8381 0.0
H2028 H 0.46733 0.53802 0.6175 0.0
H2029 H 0.46221 0.48326 0.5997 0.0
H2030 H 0.50239 0.54239 0.57879 0.0
H2031 H 0.498 0.48755 0.56151 0.0
H2032 H 0.53267 0.50445 0.47896 0.0
H2033 H 0.49717 0.50054 0.51754 0.0
H2034 H 0.55646 0.53605 0.56318 0.0
H2035 H 0.59137 0.54033 0.52444 0.0
C2036 C 0.47395 0.5269 0.60549 0.0
C2037 C 0.46199 0.51031 0.6116 0.0
C2038 C 0.49413 0.52939 0.58337 0.0
C2039 C 0.50289 0.51532 0.56705 0.0
C2040 C 0.49124 0.4987 0.57342 0.0
C2041 C 0.47093 0.49623 0.59542 0.0
C2042 C 0.53805 0.51144 0.49722 0.0
C2043 C 0.56474 0.52272 0.49867 0.0
C2044 C 0.51784 0.50913 0.51936 0.0
C2045 C 0.52406 0.51796 0.54343 0.0
C2046 C 0.55075 0.52925 0.54481 0.0
C2047 C 0.57083 0.53165 0.52264 0.0
H2048 H 0.31822 1.00894 0.64282 0.0
H2049 H 0.39901 1.00823 0.58794 0.0
H2050 H 0.28142 0.01514 0.60608 0.0
H2051 H 0.36229 0.01521 0.55101 0.0
H2052 H 0.28471 1.01027 0.48514 0.0
H2053 H 0.3228 1.00533 0.52179 0.0
H2054 H 0.25981 0.03389 0.57499 0.0
H2055 H 0.22153 0.03835 0.53831 0.0
C2056 C 0.32838 1.01041 0.62295 0.0
C2057 C 0.36195 1.00805 0.61869 0.0
C2058 C 0.30704 1.01409 0.60162 0.0
C2059 C 0.3183 0.01573 0.57502 0.0
C2060 C 0.3521 1.01378 0.57087 0.0
C2061 C 0.37346 1.00994 0.59225 0.0
C2062 C 0.27899 0.01549 0.5047 0.0
C2063 C 0.24961 0.02447 0.5087 0.0
C2064 C 0.30108 1.01275 0.52588 0.0
C2065 C 0.29486 0.01907 0.55194 0.0
C2066 C 0.26558 0.02835 0.55569 0.0
C2067 C 0.24339 0.03096 0.53452 0.0
H2068 H 0.96294 0.26921 0.64297 0.0
H2069 H 0.8831 0.27016 0.58712 0.0
H2070 H 1.0003 0.26286 0.6067 0.0
H2071 H 0.9204 0.26307 0.55069 0.0
H2072 H 0.99928 0.26806 0.48584 0.0
H2073 H 0.96067 0.2731 0.52204 0.0
H2074 H 0.02197 0.24385 0.57589 0.0
H2075 H 0.06075 0.23923 0.53962 0.0
C2076 C 0.95311 0.26777 0.62298 0.0
C2077 C 0.91964 0.27025 0.61831 0.0
C2078 C 0.97477 0.26401 0.60194 0.0
C2079 C 0.96394 0.26241 0.57523 0.0
C2080 C 0.93025 0.26447 0.57065 0.0
C2081 C 0.90856 0.26837 0.59175 0.0
C2082 C 1.00452 0.26271 0.50544 0.0
C2083 C 0.03359 0.25348 0.50975 0.0
C2084 C 0.98213 0.26551 0.52636 0.0
C2085 C 0.98772 0.25902 0.55245 0.0
C2086 C 0.0167 0.24951 0.55653 0.0
C2087 C 0.03919 0.24682 0.53561 0.0
H2088 H 0.3984 0.27151 0.77501 0.0
H2089 H 0.31786 0.27159 0.71985 0.0
H2090 H 0.36138 0.26456 0.81172 0.0
H2091 H 0.28075 0.26543 0.75642 0.0
H2092 H 0.22022 0.24218 0.82396 0.0
H2093 H 0.25849 0.24671 0.78731 0.0
H2094 H 0.3221 0.27455 0.84094 0.0
H2095 H 0.28402 0.26956 0.87752 0.0
C2096 C 0.37282 0.26999 0.7706 0.0
C2097 C 0.36148 0.27209 0.74415 0.0
C2098 C 0.35129 0.26617 0.79186 0.0
C2099 C 0.31747 0.26445 0.78759 0.0
C2100 C 0.30637 0.26629 0.76097 0.0
C2101 C 0.32788 0.26995 0.73974 0.0
C2102 C 0.24221 0.24943 0.82787 0.0
C2103 C 0.24864 0.25564 0.85382 0.0
C2104 C 0.26441 0.25208 0.8067 0.0
C2105 C 0.2939 0.26115 0.81059 0.0
C2106 C 0.30026 0.26727 0.83674 0.0
C2107 C 0.27816 0.26448 0.8579 0.0
H2108 H 1.00824 0.0511 0.85592 0.0
H2109 H 0.05374 1.00145 0.84333 0.0
H2110 H 0.96963 0.04496 0.82014 0.0
H2111 H 0.01633 0.99583 0.80613 0.0
H2112 H 0.96591 1.00201 0.72268 0.0
H2113 H 1.00328 1.00843 0.7593 0.0
H2114 H 0.92262 0.02313 0.80929 0.0
H2115 H 0.88481 0.01623 0.7727 0.0
C2116 C 1.00996 0.03876 0.84587 0.0
C2117 C 0.03416 0.02668 0.85318 0.0
C2118 C 0.98781 0.03531 0.82501 0.0
C2119 C 0.98955 0.01985 0.81014 0.0
C2120 C 1.0142 1.00793 0.81696 0.0
C2121 C 0.03586 1.01121 0.83826 0.0
C2122 C 0.95593 1.00672 0.74137 0.0
C2123 C 0.92204 1.00862 0.74444 0.0
C2124 C 0.97751 1.01028 0.76253 0.0
C2125 C 0.96617 0.01626 0.78745 0.0
C2126 C 0.93236 0.01862 0.79041 0.0
C2127 C 0.91062 1.01465 0.76937 0.0
H2128 H 0.74789 0.01953 0.62841 0.0
H2129 H 0.81194 0.99219 0.57501 0.0
H2130 H 0.70986 0.02443 0.59174 0.0
H2131 H 0.77373 0.9966 0.53831 0.0
H2132 H 0.71476 0.02133 0.47066 0.0
H2133 H 0.75164 0.01526 0.50738 0.0
H2134 H 0.6707 1.01446 0.56237 0.0
H2135 H 0.63387 0.02133 0.52547 0.0
C2136 C 0.75381 1.01445 0.6088 0.0
C2137 C 0.78339 1.00566 0.60478 0.0
C2138 C 0.73175 0.01717 0.5876 0.0
C2139 C 0.7382 1.01104 0.56148 0.0
C2140 C 0.76774 1.00199 0.55767 0.0
C2141 C 0.78991 0.99941 0.57887 0.0
C2142 C 0.70461 0.01972 0.49052 0.0
C2143 C 0.67098 0.02185 0.49476 0.0
C2144 C 0.72599 0.01612 0.51183 0.0
C2145 C 0.71473 1.01431 0.5384 0.0
C2146 C 0.68089 0.01603 0.54254 0.0
C2147 C 0.65947 0.0198 0.52118 0.0
H2148 H 0.14748 0.76603 0.5212 0.0
H2149 H 0.06616 0.75204 0.47127 0.0
H2150 H 0.10981 0.77298 0.55786 0.0
H2151 H 0.02893 0.75852 0.50793 0.0
H2152 H 0.97819 0.75165 0.59172 0.0
H2153 H 1.01555 0.746 0.55451 0.0
H2154 H 0.06324 0.79478 0.56914 0.0
H2155 H 0.02471 0.80096 0.60497 0.0
C2156 C 0.12166 0.76451 0.5179 0.0
C2157 C 0.11013 0.75853 0.49297 0.0
C2158 C 0.09998 0.76851 0.53898 0.0
C2159 C 0.06614 0.76623 0.53607 0.0
C2160 C 0.05471 0.76031 0.51114 0.0
C2161 C 0.07622 0.75671 0.48995 0.0
C2162 C 0.99629 0.76133 0.58679 0.0
C2163 C 0.99829 0.77671 0.6019 0.0
C2164 C 0.01792 0.75803 0.56547 0.0
C2165 C 0.04282 0.76984 0.5588 0.0
C2166 C 0.04486 0.78521 0.57387 0.0
C2167 C 0.02275 0.78869 0.59476 0.0
H2168 H 0.74762 0.76066 0.23476 0.0
H2169 H 0.81243 0.78722 0.2885 0.0
H2170 H 0.70971 0.75563 0.27143 0.0
H2171 H 0.77432 0.78263 0.32527 0.0
H2172 H 0.71459 0.75766 0.39249 0.0
H2173 H 0.75171 0.76381 0.35591 0.0
H2174 H 0.67085 0.7658 0.30091 0.0
H2175 H 0.6338 0.75887 0.3376 0.0
C2176 C 0.75374 0.76555 0.25445 0.0
C2177 C 0.78347 0.77419 0.25853 0.0
C2178 C 0.73175 0.76274 0.27566 0.0
C2179 C 0.73841 0.76863 0.30187 0.0
C2180 C 0.76815 0.77746 0.3058 0.0
C2181 C 0.79026 0.78014 0.28457 0.0
C2182 C 0.70452 0.75954 0.37266 0.0
C2183 C 0.67084 0.75773 0.36833 0.0
C2184 C 0.72604 0.76319 0.35143 0.0
C2185 C 0.71486 0.76534 0.3249 0.0
C2186 C 0.68098 0.76395 0.3207 0.0
C2187 C 0.65944 0.76014 0.34196 0.0
H2188 H 0.97054 0.98984 0.28939 0.0
H2189 H 0.03324 0.01801 0.23575 0.0
H2190 H 1.00904 0.99438 0.3259 0.0
H2191 H 0.07155 0.02299 0.27216 0.0
H2192 H 0.14851 0.01978 0.33757 0.0
H2193 H 0.1113 1.01279 0.30105 0.0
H2194 H 0.03104 1.0133 0.3567 0.0
H2195 H 0.06833 0.01954 0.39309 0.0
C2196 C 0.99232 0.99727 0.28546 0.0
C2197 C 0.99836 1.00375 0.25956 0.0
C2198 C 1.01465 0.99992 0.30652 0.0
C2199 C 0.04389 1.00921 0.30252 0.0
C2200 C 0.04988 0.01555 0.27642 0.0
C2201 C 0.02766 1.01279 0.25537 0.0
C2202 C 0.12298 0.01817 0.3421 0.0
C2203 C 0.11178 0.02021 0.36859 0.0
C2204 C 0.10135 1.01433 0.32095 0.0
C2205 C 0.06758 1.01251 0.3254 0.0
C2206 C 0.05662 1.01427 0.35205 0.0
C2207 C 0.07824 0.01797 0.37315 0.0
H2208 H 0.27597 0.54956 1.00556 0.0
H2209 H 0.22775 0.5008 1.01987 0.0
H2210 H 0.31416 0.54327 1.04158 0.0
H2211 H 0.26482 0.49506 0.0573 0.0
H2212 H 0.31547 0.50132 0.14052 0.0
H2213 H 0.27853 0.50779 0.10359 0.0
H2214 H 0.35998 0.52115 1.05347 0.0
H2215 H 0.39733 0.5142 0.0904 0.0
C2216 C 0.27359 0.53737 1.016 0.0
C2217 C 0.24877 0.52556 1.00906 0.0
C2218 C 0.2955 0.53384 1.03703 0.0
C2219 C 0.29291 0.5186 1.05246 0.0
C2220 C 0.26764 0.50698 1.04603 0.0
C2221 C 0.24619 0.51032 1.02457 0.0
C2222 C 0.32572 0.50574 0.12174 0.0
C2223 C 0.35969 0.50726 0.11874 0.0
C2224 C 0.30438 0.50934 0.10039 0.0
C2225 C 0.31605 0.51495 0.07534 0.0
C2226 C 0.34997 0.51692 0.07244 0.0
C2227 C 0.37146 0.51292 0.09368 0.0
H2228 H 0.96308 0.77014 0.14199 0.0
H2229 H 0.88295 0.77029 0.08642 0.0
H2230 H 1.00042 0.76397 0.10571 0.0
H2231 H 0.92025 0.76329 1.04994 0.0
H2232 H 0.99828 0.76803 0.98458 0.0
H2233 H 0.95987 0.7731 1.02085 0.0
H2234 H 0.02296 0.74532 0.07518 0.0
H2235 H 0.0616 0.74075 1.03883 0.0
C2236 C 0.95318 0.76854 0.12206 0.0
C2237 C 0.91963 0.77075 0.11747 0.0
C2238 C 0.97485 0.76487 0.10099 0.0
C2239 C 0.96396 0.76307 0.07433 0.0
C2240 C 0.93018 0.76486 0.06985 0.0
C2241 C 0.90848 0.76871 0.09097 0.0
C2242 C 1.00397 0.763 1.0043 0.0
C2243 C 0.03344 0.75415 1.00866 0.0
C2244 C 0.98167 0.76581 1.02528 0.0
C2245 C 0.98776 0.75973 1.05152 0.0
C2246 C 0.01723 0.75066 1.0557 0.0
C2247 C 0.03965 0.74799 1.03471 0.0
H2248 H 0.22017 0.74102 0.32321 0.0
H2249 H 0.28337 0.76924 0.37621 0.0
H2250 H 0.25829 0.74557 0.2864 0.0
H2251 H 0.32135 0.77417 0.3395 0.0
H2252 H 0.39764 0.77081 0.27363 0.0
H2253 H 0.36076 0.76383 0.3104 0.0
H2254 H 0.27996 0.7646 0.25529 0.0
H2255 H 0.31695 0.77089 0.21862 0.0
C2256 C 0.24199 0.74845 0.32695 0.0
C2257 C 0.24827 0.75495 0.35276 0.0
C2258 C 0.26409 0.75109 0.30571 0.0
C2259 C 0.29336 0.76039 0.30942 0.0
C2260 C 0.29963 0.76673 0.33545 0.0
C2261 C 0.27761 0.76399 0.35668 0.0
C2262 C 0.37206 0.76926 0.26925 0.0
C2263 C 0.36063 0.7714 0.24283 0.0
C2264 C 0.35062 0.76543 0.29056 0.0
C2265 C 0.31681 0.76369 0.28635 0.0
C2266 C 0.3056 0.76551 0.25976 0.0
C2267 C 0.32702 0.76923 0.23849 0.0
H2268 H 1.00554 0.55096 0.35588 0.0
H2269 H 0.0537 0.50223 0.34154 0.0
H2270 H 0.96718 0.54474 0.32 0.0
H2271 H 0.01647 0.49656 0.30425 0.0
H2272 H 0.96582 0.50307 0.22109 0.0
H2273 H 1.00276 0.50951 0.25796 0.0
H2274 H 0.92132 0.52254 0.3082 0.0
H2275 H 0.88394 0.51561 0.27131 0.0
C2276 C 1.00788 0.53879 0.34547 0.0
C2277 C 0.03275 0.52698 0.35235 0.0
C2278 C 0.98586 0.53529 0.32452 0.0
C2279 C 0.98841 0.52009 0.30911 0.0
C2280 C 1.0137 0.50846 0.3155 0.0
C2281 C 0.03524 0.51176 0.33688 0.0
C2282 C 0.95556 0.50741 0.23988 0.0
C2283 C 0.92159 0.50884 0.24292 0.0
C2284 C 0.97692 0.51099 0.26119 0.0
C2285 C 0.96524 0.5165 0.28626 0.0
C2286 C 0.93132 0.51839 0.28921 0.0
C2287 C 0.90982 0.51441 0.268 0.0
H2288 H 0.74934 0.5196 0.12602 0.0
H2289 H 0.81289 0.4921 0.07242 0.0
H2290 H 0.71112 0.52454 0.08953 0.0
H2291 H 0.77446 0.49659 1.03584 0.0
H2292 H 0.7147 0.52151 0.96859 0.0
H2293 H 0.75203 0.51537 1.00501 0.0
H2294 H 0.67169 0.51429 0.06057 0.0
H2295 H 0.63442 0.5212 1.02401 0.0
C2296 C 0.75512 0.5145 0.1064 0.0
C2297 C 0.78458 0.50562 0.10228 0.0
C2298 C 0.73294 0.51724 0.0853 0.0
C2299 C 0.73916 0.51106 0.05919 0.0
C2300 C 0.76864 0.50199 1.05523 0.0
C2301 C 0.79093 0.49937 0.07635 0.0
C2302 C 0.70478 0.51982 0.98851 0.0
C2303 C 0.67119 0.52189 0.99303 0.0
C2304 C 0.72642 0.51618 1.00964 0.0
C2305 C 0.71546 0.5143 1.03628 0.0
C2306 C 0.68165 0.51594 1.04068 0.0
C2307 C 0.65998 0.51973 1.0195 0.0
H2308 H 0.06607 0.2516 0.97166 0.0
H2309 H 0.14688 0.26632 1.02166 0.0
H2310 H 0.02854 0.25803 1.00815 0.0
H2311 H 0.10891 0.27322 0.05812 0.0
H2312 H 0.02308 0.30114 0.10436 0.0
H2313 H 0.06174 0.29494 0.06866 0.0
H2314 H 1.01535 0.24567 1.05509 0.0
H2315 H 0.97789 0.25136 0.09224 0.0
C2316 C 0.07595 0.25642 0.99032 0.0
C2317 C 0.10981 0.25846 0.99342 0.0
C2318 C 0.05427 0.25998 1.01141 0.0
C2319 C 0.06548 0.26611 1.03628 0.0
C2320 C 0.09926 0.2686 1.03927 0.0
C2321 C 0.1211 0.26462 1.01831 0.0
C2322 C 0.02145 0.28876 0.09443 0.0
C2323 C 0.99735 0.27665 0.10188 0.0
C2324 C 0.04362 0.28527 0.07361 0.0
C2325 C 0.042 0.26975 0.05889 0.0
C2326 C 0.0174 0.25781 0.0658 0.0
C2327 C 0.99571 0.26113 0.08708 0.0
H2328 H 0.63289 0.2585 0.83786 0.0
H2329 H 0.71373 0.25816 0.89272 0.0
H2330 H 0.66974 0.26552 0.80106 0.0
H2331 H 0.75066 0.26444 0.85605 0.0
H2332 H 0.81068 0.28805 0.78847 0.0
H2333 H 0.7725 0.28345 0.8252 0.0
H2334 H 0.70902 0.25542 0.77172 0.0
H2335 H 0.74704 0.26044 0.73506 0.0
C2336 C 0.6585 0.25999 0.84219 0.0
C2337 C 0.66998 0.25778 0.86859 0.0
C2338 C 0.67992 0.26385 0.82088 0.0
C2339 C 0.71376 0.26553 0.82505 0.0
C2340 C 0.72501 0.2636 0.8516 0.0
C2341 C 0.70361 0.25987 0.87288 0.0
C2342 C 0.78875 0.28073 0.78462 0.0
C2343 C 0.78236 0.27442 0.75872 0.0
C2344 C 0.76661 0.27806 0.80582 0.0
C2345 C 0.73721 0.2689 0.80199 0.0
C2346 C 0.73084 0.26275 0.77587 0.0
C2347 C 0.75288 0.26554 0.75467 0.0
H2348 H 0.97033 0.49042 0.78796 0.0
H2349 H 0.03423 0.51754 0.73399 0.0
H2350 H 1.00874 0.4949 0.82449 0.0
H2351 H 0.07244 0.52252 0.77046 0.0
H2352 H 0.14881 0.5197 0.83637 0.0
H2353 H 0.11173 0.51271 0.79976 0.0
H2354 H 0.03124 0.51344 0.8552 0.0
H2355 H 0.06841 0.51961 0.89165 0.0
C2356 C 0.99237 0.49761 0.78394 0.0
C2357 C 0.99879 0.50376 0.75792 0.0
C2358 C 1.01466 0.50023 0.80504 0.0
C2359 C 0.04422 0.50923 0.80101 0.0
C2360 C 0.05055 0.51529 0.77478 0.0
C2361 C 0.02838 0.51252 0.75369 0.0
C2362 C 0.12325 0.51813 0.84083 0.0
C2363 C 0.11197 0.52019 0.86729 0.0
C2364 C 0.10168 0.51429 0.81962 0.0
C2365 C 0.06787 0.51253 0.82396 0.0
C2366 C 0.05684 0.51433 0.85059 0.0
C2367 C 0.0784 0.51799 0.87175 0.0
H2368 H 0.89919 1.0083 0.0875 0.0
H2369 H 0.81877 1.00919 0.14276 0.0
H2370 H 0.86224 0.01536 1.05075 0.0
H2371 H 0.78177 0.01545 0.10621 0.0
H2372 H 0.72147 0.03869 1.03875 0.0
H2373 H 0.76 0.0342 0.07525 0.0
H2374 H 0.82249 1.00555 1.02174 0.0
H2375 H 0.78416 1.01055 0.98528 0.0
C2376 C 0.87367 1.01007 0.09193 0.0
C2377 C 0.86233 1.0082 0.11842 0.0
C2378 C 0.85218 1.01395 0.07065 0.0
C2379 C 0.81843 0.01597 0.07497 0.0
C2380 C 0.80735 1.01436 0.10162 0.0
C2381 C 0.82881 1.01064 0.12284 0.0
C2382 C 0.74327 0.03127 1.03486 0.0
C2383 C 0.74929 0.02478 1.00902 0.0
C2384 C 0.76561 0.02865 1.05592 0.0
C2385 C 0.79484 0.01933 1.05202 0.0
C2386 C 0.80083 1.013 1.02594 0.0
C2387 C 0.7786 0.01577 1.00487 0.0
H2388 H 0.46248 0.26865 0.14273 0.0
H2389 H 0.38245 0.26999 0.0871 0.0
H2390 H 0.49966 0.26241 0.1063 0.0
H2391 H 0.41954 0.26297 1.0505 0.0
H2392 H 0.49792 0.26791 0.98533 0.0
H2393 H 0.4595 0.27284 1.0217 0.0
H2394 H 0.52149 0.24376 0.07526 0.0
H2395 H 0.56011 0.23932 1.03884 0.0
C2396 C 0.45257 0.2673 0.12275 0.0
C2397 C 0.4191 0.26986 0.11819 0.0
C2398 C 0.47413 0.2636 0.10161 0.0
C2399 C 0.4632 0.26214 0.0749 0.0
C2400 C 0.42949 0.26427 0.07045 0.0
C2401 C 0.40792 0.26813 0.09164 0.0
C2402 C 0.50336 0.26259 1.00491 0.0
C2403 C 0.53257 0.25347 1.00909 0.0
C2404 C 0.48107 0.26531 1.02593 0.0
C2405 C 0.48689 0.25884 1.052 0.0
C2406 C 0.51601 0.24942 1.05594 0.0
C2407 C 0.53841 0.24683 1.03492 0.0
H2408 H 0.89717 0.27134 0.27435 0.0
H2409 H 0.81694 0.27118 0.21889 0.0
H2410 H 0.85998 0.26443 0.31095 0.0
H2411 H 0.77965 0.26505 0.25535 0.0
H2412 H 0.7189 0.24189 0.32293 0.0
H2413 H 0.75727 0.24641 0.28632 0.0
H2414 H 0.82051 0.27451 0.3399 0.0
H2415 H 0.78237 0.26954 0.37643 0.0
C2416 C 0.87163 0.26977 0.26985 0.0
C2417 C 0.86043 0.2718 0.24335 0.0
C2418 C 0.85 0.26598 0.29105 0.0
C2419 C 0.81621 0.26421 0.28666 0.0
C2420 C 0.80524 0.26596 0.25999 0.0
C2421 C 0.82686 0.2696 0.23883 0.0
C2422 C 0.74082 0.2492 0.32683 0.0
C2423 C 0.74716 0.25548 0.35275 0.0
C2424 C 0.76308 0.25183 0.30569 0.0
C2425 C 0.79252 0.26096 0.3096 0.0
C2426 C 0.79873 0.26717 0.3357 0.0
C2427 C 0.77659 0.26441 0.35683 0.0
H2428 H 0.56388 0.03849 0.32331 0.0
H2429 H 0.49929 1.01201 0.37749 0.0
H2430 H 0.52558 0.03388 0.28669 0.0
H2431 H 0.46118 1.00697 0.34099 0.0
H2432 H 0.38489 1.01026 0.27516 0.0
H2433 H 0.4222 0.01721 0.3116 0.0
H2434 H 0.5027 0.01501 0.25629 0.0
H2435 H 0.4653 1.00881 0.21993 0.0
C2436 C 0.54172 0.03143 0.32737 0.0
C2437 C 0.53504 0.02551 0.35349 0.0
C2438 C 0.51949 0.02874 0.30623 0.0
C2439 C 0.48975 0.01993 0.31034 0.0
C2440 C 0.48322 1.01407 0.33663 0.0
C2441 C 0.50533 0.01688 0.35774 0.0
C2442 C 0.41051 1.01148 0.27067 0.0
C2443 C 0.42172 1.00899 0.24428 0.0
C2444 C 0.4322 0.0153 0.29179 0.0
C2445 C 0.46606 0.01663 0.28744 0.0
C2446 C 0.47706 1.01442 0.26087 0.0
C2447 C 0.45538 1.01075 0.23978 0.0
H2448 H 0.25802 0.98027 0.10615 0.0
H2449 H 0.3038 0.02985 0.09322 0.0
H2450 H 0.21979 0.98635 0.07002 0.0
H2451 H 0.26678 0.0354 1.05569 0.0
H2452 H 0.21676 0.02928 0.97208 0.0
H2453 H 0.25394 0.02286 1.0089 0.0
H2454 H 0.173 1.00807 0.05862 0.0
H2455 H 0.13543 0.01496 1.02185 0.0
C2456 C 0.25989 0.99257 0.09594 0.0
C2457 C 0.28405 1.00466 0.10326 0.0
C2458 C 0.23796 0.99599 0.07487 0.0
C2459 C 0.2399 1.01141 0.0598 0.0
C2460 C 0.26451 0.02333 0.06664 0.0
C2461 C 0.28594 0.02009 0.08815 0.0
C2462 C 0.2067 0.02454 0.99074 0.0
C2463 C 0.1728 0.02261 0.99369 0.0
C2464 C 0.22816 0.02098 1.01203 0.0
C2465 C 0.21668 0.01498 1.03694 0.0
C2466 C 0.18287 1.01259 1.03976 0.0
C2467 C 0.16125 0.01655 1.01861 0.0
H2468 H 0.64698 0.76586 1.02078 0.0
H2469 H 0.56573 0.75232 0.9705 0.0
H2470 H 0.6093 0.77282 0.05737 0.0
H2471 H 0.5284 0.75885 1.00712 0.0
H2472 H 0.47688 0.75216 0.09056 0.0
H2473 H 0.51409 0.74648 1.05327 0.0
H2474 H 0.56362 0.79457 0.06917 0.0
H2475 H 0.52534 0.80078 0.10511 0.0
C2476 C 0.62116 0.76445 1.01739 0.0
C2477 C 0.60968 0.75858 0.99238 0.0
C2478 C 0.59946 0.76846 1.03844 0.0
C2479 C 0.56561 0.76632 1.03543 0.0
C2480 C 0.5542 0.76052 1.01042 0.0
C2481 C 0.57575 0.7569 0.98924 0.0
C2482 C 0.4954 0.76167 0.08593 0.0
C2483 C 0.49801 0.77685 0.10149 0.0
C2484 C 0.51692 0.75837 0.06453 0.0
C2485 C 0.54229 0.76996 0.05818 0.0
C2486 C 0.54489 0.78515 0.07365 0.0
C2487 C 0.52292 0.78863 0.09463 0.0
H2488 H 0.31091 0.78845 0.78825 0.0
H2489 H 0.24823 0.7602 0.73489 0.0
H2490 H 0.27247 0.7839 0.82482 0.0
H2491 H 0.20999 0.75519 0.77138 0.0
H2492 H 0.13317 0.75818 0.83698 0.0
H2493 H 0.17023 0.76517 0.80029 0.0
H2494 H 0.25061 0.76509 0.85584 0.0
H2495 H 0.21349 0.75887 0.89235 0.0
C2496 C 0.28915 0.78099 0.7844 0.0
C2497 C 0.28309 0.7745 0.75856 0.0
C2498 C 0.26685 0.77834 0.8055 0.0
C2499 C 0.23763 0.76901 0.80162 0.0
C2500 C 0.23163 0.76265 0.77556 0.0
C2501 C 0.25382 0.76543 0.75447 0.0
C2502 C 0.15869 0.75989 0.84144 0.0
C2503 C 0.16997 0.75798 0.86795 0.0
C2504 C 0.18024 0.76373 0.8202 0.0
C2505 C 0.214 0.76568 0.82456 0.0
C2506 C 0.22503 0.76404 0.85122 0.0
C2507 C 0.20351 0.76035 0.87242 0.0
H2508 H 0.53269 0.01809 0.73609 0.0
H2509 H 0.47044 0.98974 0.78986 0.0
H2510 H 0.57111 0.02314 0.7724 0.0
H2511 H 0.50905 0.99437 0.82627 0.0
H2512 H 0.56836 0.01961 0.89336 0.0
H2513 H 0.53102 1.0133 0.85706 0.0
H2514 H 0.61108 1.0131 0.80121 0.0
H2515 H 0.64835 0.02015 0.83767 0.0
C2516 C 0.52723 1.01285 0.75572 0.0
C2517 C 0.49802 1.00374 0.75997 0.0
C2518 C 0.54952 0.01565 0.77671 0.0
C2519 C 0.54369 1.00929 0.80283 0.0
C2520 C 0.51453 0.99992 0.80688 0.0
C2521 C 0.49214 0.99723 0.78588 0.0
C2522 C 0.57822 0.01809 0.87341 0.0
C2523 C 0.61174 0.02044 0.86879 0.0
C2524 C 0.55657 1.01434 0.85234 0.0
C2525 C 0.56745 1.01265 0.82566 0.0
C2526 C 0.60118 1.01458 0.82115 0.0
C2527 C 0.62286 0.01846 0.84226 0.0
H2528 H 0.81731 0.50699 0.64184 0.0
H2529 H 0.89819 0.50858 0.58707 0.0
H2530 H 0.78023 0.51327 0.60528 0.0
H2531 H 0.86117 0.51562 0.5504 0.0
H2532 H 0.78437 0.51071 0.48414 0.0
H2533 H 0.82235 0.50556 0.52075 0.0
H2534 H 0.75769 0.53228 0.57488 0.0
H2535 H 0.71954 0.53698 0.53818 0.0
C2536 C 0.8274 0.50898 0.62204 0.0
C2537 C 0.8611 0.50724 0.61774 0.0
C2538 C 0.8059 0.5127 0.60083 0.0
C2539 C 0.81713 0.515 0.57434 0.0
C2540 C 0.85102 0.51366 0.57016 0.0
C2541 C 0.87253 0.50978 0.59141 0.0
C2542 C 0.77826 0.51551 0.50387 0.0
C2543 C 0.7485 0.5241 0.50807 0.0
C2544 C 0.80029 0.51264 0.52505 0.0
C2545 C 0.79361 0.51839 0.55133 0.0
C2546 C 0.76387 0.5272 0.55535 0.0
C2547 C 0.74174 0.52994 0.53416 0.0
H2548 H 0.49819 0.76811 0.48454 0.0
H2549 H 0.56015 0.73951 0.53822 0.0
H2550 H 0.45969 0.7731 0.52083 0.0
H2551 H 0.52145 0.74401 0.57455 0.0
H2552 H 0.46263 0.76897 0.6419 0.0
H2553 H 0.49975 0.76271 0.60549 0.0
H2554 H 0.41961 0.76339 0.5497 0.0
H2555 H 0.38255 0.77045 0.58633 0.0
C2556 C 0.50356 0.7628 0.50414 0.0
C2557 C 0.53274 0.75366 0.5084 0.0
C2558 C 0.48122 0.76556 0.52512 0.0
C2559 C 0.48696 0.75911 0.55121 0.0
C2560 C 0.51604 0.74966 0.55522 0.0
C2561 C 0.53848 0.74703 0.53425 0.0
C2562 C 0.45269 0.76766 0.62194 0.0
C2563 C 0.41922 0.77026 0.6174 0.0
C2564 C 0.47421 0.76393 0.60079 0.0
C2565 C 0.46327 0.76248 0.57409 0.0
C2566 C 0.42957 0.76467 0.56964 0.0
C2567 C 0.40801 0.76855 0.59085 0.0
H2568 H 0.72811 0.77995 0.84145 0.0
H2569 H 0.77419 0.7305 0.85476 0.0
H2570 H 0.76515 0.78548 0.80393 0.0
H2571 H 0.81242 0.73654 0.81861 0.0
H2572 H 0.8967 0.76506 0.77041 0.0
H2573 H 0.85906 0.75818 0.80712 0.0
H2574 H 0.77822 0.77299 0.75729 0.0
H2575 H 0.81547 0.77942 0.72053 0.0
C2576 C 0.74604 0.77021 0.83646 0.0
C2577 C 0.74802 0.75483 0.85168 0.0
C2578 C 0.76748 0.77344 0.81496 0.0
C2579 C 0.79217 0.76154 0.80822 0.0
C2580 C 0.79419 0.74617 0.82339 0.0
C2581 C 0.77226 0.74277 0.84446 0.0
C2582 C 0.87088 0.76666 0.76713 0.0
C2583 C 0.85939 0.77274 0.7422 0.0
C2584 C 0.84923 0.7627 0.78825 0.0
C2585 C 0.81542 0.7651 0.78538 0.0
C2586 C 0.80399 0.7711 0.76045 0.0
C2587 C 0.82549 0.77467 0.7392 0.0
H2588 H 0.38302 0.5099 0.775 0.0
H2589 H 0.46327 0.51085 0.71957 0.0
H2590 H 0.42006 0.51695 0.81164 0.0
H2591 H 0.50037 0.51709 0.75601 0.0
H2592 H 0.56088 0.54027 0.82323 0.0
H2593 H 0.52222 0.53583 0.78684 0.0
H2594 H 0.45991 0.50711 0.84061 0.0
H2595 H 0.49837 0.51205 0.87695 0.0
C2596 C 0.40852 0.51168 0.77051 0.0
C2597 C 0.41978 0.50983 0.74401 0.0
C2598 C 0.43006 0.51556 0.79172 0.0
C2599 C 0.4638 0.51759 0.78732 0.0
C2600 C 0.47481 0.516 0.76066 0.0
C2601 C 0.45329 0.51228 0.7395 0.0
C2602 C 0.5391 0.53284 0.8272 0.0
C2603 C 0.53317 0.52631 0.85307 0.0
C2604 C 0.51667 0.53025 0.8062 0.0
C2605 C 0.48747 0.52093 0.81021 0.0
C2606 C 0.48155 0.51456 0.83633 0.0
C2607 C 0.50386 0.5173 0.85733 0.0
H2608 H 0.24846 0.51937 0.62651 0.0
H2609 H 0.31168 0.49135 0.57329 0.0
H2610 H 0.21036 0.52431 0.5899 0.0
H2611 H 0.27341 0.49588 0.53658 0.0
H2612 H 0.21419 0.52102 0.46899 0.0
H2613 H 0.2514 0.51479 0.50553 0.0
H2614 H 0.17089 0.514 0.56094 0.0
H2615 H 0.1338 0.52095 0.52429 0.0
C2616 C 0.2542 0.51417 0.60694 0.0
C2617 C 0.28357 0.50518 0.60294 0.0
C2618 C 0.2321 0.51691 0.58578 0.0
C2619 C 0.2383 0.5106 0.55972 0.0
C2620 C 0.26763 0.50137 0.55591 0.0
C2621 C 0.28983 0.49874 0.57709 0.0
C2622 C 0.20423 0.51937 0.4889 0.0
C2623 C 0.17064 0.52153 0.49336 0.0
C2624 C 0.22578 0.51568 0.5101 0.0
C2625 C 0.21472 0.51387 0.53673 0.0
C2626 C 0.18092 0.51559 0.54106 0.0
C2627 C 0.15936 0.51941 0.51983 0.0
H2628 H 0.47815 0.25173 0.5924 0.0
H2629 H 0.52472 0.30106 0.60541 0.0
H2630 H 0.51541 0.24604 0.55512 0.0
H2631 H 0.56318 0.29482 0.56957 0.0
H2632 H 0.64737 0.26578 0.5217 0.0
H2633 H 0.60978 0.27272 0.55844 0.0
H2634 H 0.5287 0.25879 0.50838 0.0
H2635 H 0.56583 0.25235 0.47164 0.0
C2636 C 0.49623 0.26141 0.58741 0.0
C2637 C 0.49828 0.2768 0.60249 0.0
C2638 C 0.51781 0.25808 0.56606 0.0
C2639 C 0.54273 0.26987 0.55934 0.0
C2640 C 0.5448 0.28526 0.57435 0.0
C2641 C 0.52272 0.28877 0.59525 0.0
C2642 C 0.62152 0.26438 0.51839 0.0
C2643 C 0.60991 0.25857 0.49339 0.0
C2644 C 0.5999 0.26837 0.53952 0.0
C2645 C 0.56602 0.26624 0.53659 0.0
C2646 C 0.55451 0.26046 0.51161 0.0
C2647 C 0.57597 0.25689 0.49037 0.0
H2648 H 0.13472 0.26441 0.34189 0.0
H2649 H 0.21641 0.25055 0.39159 0.0
H2650 H 0.17209 0.2714 0.30502 0.0
H2651 H 0.25339 0.2571 0.35471 0.0
H2652 H 0.30389 0.25058 0.2708 0.0
H2653 H 0.26696 0.24479 0.3083 0.0
H2654 H 0.21802 0.2932 0.2932 0.0
H2655 H 0.25605 0.29951 0.2571 0.0
C2656 C 0.16057 0.26293 0.34509 0.0
C2657 C 0.17228 0.25698 0.37002 0.0
C2658 C 0.18208 0.26695 0.32389 0.0
C2659 C 0.21595 0.26474 0.32667 0.0
C2660 C 0.22758 0.25884 0.35159 0.0
C2661 C 0.20622 0.25521 0.37291 0.0
C2662 C 0.28556 0.26013 0.27565 0.0
C2663 C 0.28302 0.27543 0.26026 0.0
C2664 C 0.2642 0.25676 0.29716 0.0
C2665 C 0.23907 0.26842 0.30378 0.0
C2666 C 0.23655 0.28373 0.2885 0.0
C2667 C 0.25837 0.28727 0.26741 0.0
H2668 H 0.64773 0.52012 0.33674 0.0
H2669 H 0.56769 0.5206 0.39238 0.0
H2670 H 0.61028 0.51313 0.30037 0.0
H2671 H 0.5302 0.51437 0.35616 0.0
H2672 H 0.46901 0.49079 0.28936 0.0
H2673 H 0.50764 0.49546 0.32572 0.0
H2674 H 0.57065 0.52322 0.27134 0.0
H2675 H 0.53221 0.51813 0.23508 0.0
C2676 C 0.62218 0.51867 0.34133 0.0
C2677 C 0.61111 0.52091 0.36782 0.0
C2678 C 0.60041 0.51483 0.32027 0.0
C2679 C 0.56662 0.5132 0.32479 0.0
C2680 C 0.55578 0.51517 0.35144 0.0
C2681 C 0.57752 0.51887 0.37245 0.0
C2682 C 0.49093 0.49806 0.28523 0.0
C2683 C 0.49711 0.50422 0.25916 0.0
C2684 C 0.51334 0.50078 0.30622 0.0
C2685 C 0.54279 0.50985 0.30201 0.0
C2686 C 0.54885 0.51593 0.27577 0.0
C2687 C 0.52655 0.5131 0.2548 0.0
loop_
_geom_bond_atom_site_label_1
_geom_bond_atom_site_label_2
_geom_bond_distance
_geom_bond_site_symmetry_2
_ccdc_geom_bond_type
Co0 O3 1.970 . S
Co0 N17 1.989 . S
Co0 O25 1.967 . S
Co0 O32 1.920 . S
Co1 O4 1.966 . S
Co1 N10 2.022 . S
Co1 N18 1.993 . S
Co1 O26 1.941 . S
C2 O3 1.258 . S
C2 O4 1.263 . S
O3 Co0 1.970 . S
O3 C2 1.258 . S
O4 Co1 1.966 . S
O4 C2 1.263 . S
C5 O6 1.235 1_545 S
C5 O32 1.289 . S
O6 C5 1.235 1_565 S
C7 C9 1.400 . S
C7 N10 1.351 . S
C7 C12 1.501 . S
C8 C9 1.387 . S
C8 N11 1.341 . S
C9 C7 1.400 . S
C9 C8 1.387 . S
N10 Co1 2.022 . S
N10 C7 1.351 . S
N10 N11 1.365 . S
N11 C8 1.341 . S
N11 N10 1.365 . S
N11 H31 0.862 . S
C12 C7 1.501 . S
C12 H13 0.961 . S
C12 H14 0.961 . S
C12 H15 0.960 . S
H13 C12 0.961 . S
H14 C12 0.961 . S
H15 C12 0.960 . S
C16 N17 1.342 . S
C16 C20 1.401 . S
C16 C21 1.499 . S
N17 Co0 1.989 . S
N17 C16 1.342 . S
N17 N18 1.388 . S
N18 Co1 1.993 . S
N18 N17 1.388 . S
N18 C19 1.346 . S
C19 N18 1.346 . S
C19 C20 1.396 . S
C19 C29 1.510 . S
C20 C16 1.401 . S
C20 C19 1.396 . S
C21 C16 1.499 . S
C21 H22 0.959 . S
C21 H23 1.023 . S
C21 H24 0.961 . S
H22 C21 0.959 . S
H23 C21 1.023 . S
H24 C21 0.961 . S
O25 Co0 1.967 . S
O25 C33 1.258 . S
O26 Co1 1.941 . S
O26 C33 1.266 . S
H27 C29 0.959 . S
H28 C29 0.961 . S
C29 C19 1.510 . S
C29 H27 0.959 . S
C29 H28 0.961 . S
C29 H30 0.960 . S
H30 C29 0.960 . S
H31 N11 0.862 . S
O32 Co0 1.920 . S
O32 C5 1.289 . S
C33 O25 1.258 . S
C33 O26 1.266 . S
Co34 O37 1.970 . S
Co34 N51 1.989 . S
Co34 O59 1.967 . S
Co34 O66 1.920 . S
Co35 O38 1.966 . S
Co35 N44 2.022 . S
Co35 N52 1.993 . S
Co35 O60 1.941 . S
C36 O37 1.258 . S
C36 O38 1.263 . S
O37 Co34 1.970 . S
O37 C36 1.258 . S
O38 Co35 1.966 . S
O38 C36 1.263 . S
C39 O40 1.235 . S
C39 O66 1.289 . S
O40 C39 1.235 . S
C41 C43 1.400 . S
C41 N44 1.351 1_655 S
C41 C46 1.501 1_655 S
C42 C43 1.387 . S
C42 N45 1.341 . S
C43 C41 1.400 . S
C43 C42 1.387 . S
N44 Co35 2.022 . S
N44 C41 1.351 1_455 S
N44 N45 1.365 1_455 S
N45 C42 1.341 . S
N45 N44 1.365 1_655 S
N45 H65 0.862 . S
C46 C41 1.501 1_455 S
C46 H47 0.961 . S
C46 H48 0.961 . S
C46 H49 0.960 . S
H47 C46 0.961 . S
H48 C46 0.961 . S
H49 C46 0.960 . S
C50 N51 1.342 . S
C50 C54 1.401 . S
C50 C55 1.499 . S
N51 Co34 1.989 . S
N51 C50 1.342 . S
N51 N52 1.388 . S
N52 Co35 1.993 . S
N52 N51 1.388 . S
N52 C53 1.346 . S
C53 N52 1.346 . S
C53 C54 1.396 . S
C53 C63 1.510 1_455 S
C54 C50 1.401 . S
C54 C53 1.396 . S
C55 C50 1.499 . S
C55 H56 0.959 . S
C55 H57 0.960 . S
C55 H58 0.961 . S
H56 C55 0.959 . S
H57 C55 0.960 . S
H58 C55 0.961 . S
O59 Co34 1.967 . S
O59 C67 1.258 . S
O60 Co35 1.941 . S
O60 C67 1.266 . S
H61 C63 0.959 . S
H62 C63 0.961 . S
C63 C53 1.510 1_655 S
C63 H61 0.959 . S
C63 H62 0.961 . S
C63 H64 0.960 . S
H64 C63 0.960 . S
H65 N45 0.862 . S
O66 Co34 1.920 . S
O66 C39 1.289 . S
C67 O59 1.258 . S
C67 O60 1.266 . S
Co68 O71 1.970 . S
Co68 N85 1.989 . S
Co68 O93 1.967 . S
Co68 O100 1.920 . S
Co69 O72 1.966 . S
Co69 N78 2.022 . S
Co69 N86 1.993 . S
Co69 O94 1.941 . S
C70 O71 1.258 . S
C70 O72 1.263 . S
O71 Co68 1.970 . S
O71 C70 1.258 . S
O72 Co69 1.966 . S
O72 C70 1.263 . S
C73 O74 1.235 . S
C73 O100 1.289 . S
O74 C73 1.235 . S
C75 C77 1.400 . S
C75 N78 1.351 . S
C75 C80 1.501 . S
C76 C77 1.387 . S
C76 N79 1.341 . S
C77 C75 1.400 . S
C77 C76 1.387 . S
N78 Co69 2.022 . S
N78 C75 1.351 . S
N78 N79 1.365 . S
N79 C76 1.341 . S
N79 N78 1.365 . S
N79 H99 0.862 . S
C80 C75 1.501 . S
C80 H81 0.961 . S
C80 H82 0.961 . S
C80 H83 0.960 . S
H81 C80 0.961 . S
H82 C80 0.961 . S
H83 C80 0.960 . S
C84 N85 1.342 . S
C84 C88 1.401 . S
C84 C89 1.499 . S
N85 Co68 1.989 . S
N85 C84 1.342 . S
N85 N86 1.388 . S
N86 Co69 1.993 . S
N86 N85 1.388 . S
N86 C87 1.346 . S
C87 N86 1.346 . S
C87 C88 1.396 . S
C87 C97 1.510 . S
C88 C84 1.401 . S
C88 C87 1.396 . S
C89 C84 1.499 . S
C89 H90 0.959 . S
C89 H91 0.960 . S
C89 H92 0.961 . S
H90 C89 0.959 . S
H91 C89 0.960 . S
H92 C89 0.961 . S
O93 Co68 1.967 . S
O93 C101 1.258 . S
O94 Co69 1.941 . S
O94 C101 1.266 . S
H95 C97 0.959 . S
H96 C97 0.961 . S
C97 C87 1.510 . S
C97 H95 0.959 . S
C97 H96 0.961 . S
C97 H98 0.960 . S
H98 C97 0.960 . S
H99 N79 0.862 . S
O100 Co68 1.920 . S
O100 C73 1.289 . S
C101 O93 1.258 . S
C101 O94 1.266 . S
Co102 O105 1.970 . S
Co102 N119 1.989 . S
Co102 O127 1.967 . S
Co102 O134 1.920 . S
Co103 O106 1.966 . S
Co103 N112 2.022 . S
Co103 N120 1.993 . S
Co103 O128 1.941 . S
C104 O105 1.258 . S
C104 O106 1.263 . S
O105 Co102 1.970 . S
O105 C104 1.258 . S
O106 Co103 1.966 . S
O106 C104 1.263 . S
C107 O108 1.235 1_545 S
C107 O134 1.289 . S
O108 C107 1.235 1_565 S
C109 C111 1.400 . S
C109 N112 1.351 1_655 S
C109 C114 1.501 1_655 S
C110 C111 1.387 . S
C110 N113 1.341 . S
C111 C109 1.400 . S
C111 C110 1.387 . S
N112 Co103 2.022 . S
N112 C109 1.351 1_455 S
N112 N113 1.365 1_455 S
N113 C110 1.341 . S
N113 N112 1.365 1_655 S
N113 H133 0.862 . S
C114 C109 1.501 1_455 S
C114 H115 0.961 . S
C114 H116 0.961 . S
C114 H117 0.960 . S
H115 C114 0.961 . S
H116 C114 0.961 . S
H117 C114 0.960 . S
C118 N119 1.342 . S
C118 C122 1.401 . S
C118 C123 1.499 . S
N119 Co102 1.989 . S
N119 C118 1.342 . S
N119 N120 1.388 . S
N120 Co103 1.993 . S
N120 N119 1.388 . S
N120 C121 1.346 . S
C121 N120 1.346 . S
C121 C122 1.396 . S
C121 C131 1.510 1_455 S
C122 C118 1.401 . S
C122 C121 1.396 . S
C123 C118 1.499 . S
C123 H124 0.959 . S
C123 H125 1.023 . S
C123 H126 0.961 . S
H124 C123 0.959 . S
H125 C123 1.023 . S
H126 C123 0.961 . S
O127 Co102 1.967 . S
O127 C135 1.258 . S
O128 Co103 1.941 . S
O128 C135 1.266 . S
H129 C131 0.959 . S
H130 C131 0.961 . S
C131 C121 1.510 1_655 S
C131 H129 0.959 . S
C131 H130 0.961 . S
C131 H132 0.960 . S
H132 C131 0.960 . S
H133 N113 0.862 . S
O134 Co102 1.920 . S
O134 C107 1.289 . S
C135 O127 1.258 . S
C135 O128 1.266 . S
Co136 O139 1.970 . S
Co136 N153 1.989 . S
Co136 O161 1.967 . S
Co136 O168 1.920 . S
Co137 O140 1.966 . S
Co137 N146 2.022 . S
Co137 N154 1.993 . S
Co137 O162 1.941 . S
C138 O139 1.258 . S
C138 O140 1.263 . S
O139 Co136 1.970 . S
O139 C138 1.258 . S
O140 Co137 1.966 . S
O140 C138 1.263 . S
C141 O142 1.235 1_565 S
C141 O168 1.289 . S
O142 C141 1.235 1_545 S
C143 C145 1.400 . S
C143 N146 1.351 . S
C143 C148 1.501 . S
C144 C145 1.387 . S
C144 N147 1.341 . S
C145 C143 1.400 . S
C145 C144 1.387 . S
N146 Co137 2.022 . S
N146 C143 1.351 . S
N146 N147 1.365 . S
N147 C144 1.341 . S
N147 N146 1.365 . S
N147 H167 0.862 . S
C148 C143 1.501 . S
C148 H149 0.961 . S
C148 H150 0.961 . S
C148 H151 0.960 . S
H149 C148 0.961 . S
H150 C148 0.961 . S
H151 C148 0.960 . S
C152 N153 1.342 . S
C152 C156 1.401 . S
C152 C157 1.499 . S
N153 Co136 1.989 . S
N153 C152 1.342 . S
N153 N154 1.388 . S
N154 Co137 1.993 . S
N154 N153 1.388 . S
N154 C155 1.346 . S
C155 N154 1.346 . S
C155 C156 1.396 . S
C155 C165 1.510 . S
C156 C152 1.401 . S
C156 C155 1.396 . S
C157 C152 1.499 . S
C157 H158 0.959 . S
C157 H159 1.023 . S
C157 H160 0.961 . S
H158 C157 0.959 . S
H159 C157 1.023 . S
H160 C157 0.961 . S
O161 Co136 1.967 . S
O161 C169 1.258 . S
O162 Co137 1.941 . S
O162 C169 1.266 . S
H163 C165 0.959 . S
H164 C165 0.961 . S
C165 C155 1.510 . S
C165 H163 0.959 . S
C165 H164 0.961 . S
C165 H166 0.960 . S
H166 C165 0.960 . S
H167 N147 0.862 . S
O168 Co136 1.920 . S
O168 C141 1.289 . S
C169 O161 1.258 . S
C169 O162 1.266 . S
Co170 O173 1.970 . S
Co170 N187 1.989 . S
Co170 O195 1.967 . S
Co170 O202 1.920 . S
Co171 O174 1.966 . S
Co171 N180 2.022 . S
Co171 N188 1.993 . S
Co171 O196 1.941 . S
C172 O173 1.258 . S
C172 O174 1.263 . S
O173 Co170 1.970 . S
O173 C172 1.258 . S
O174 Co171 1.966 . S
O174 C172 1.263 . S
C175 O176 1.235 . S
C175 O202 1.289 . S
O176 C175 1.235 . S
C177 C179 1.400 . S
C177 N180 1.351 1_455 S
C177 C182 1.501 1_455 S
C178 C179 1.387 . S
C178 N181 1.341 . S
C179 C177 1.400 . S
C179 C178 1.387 . S
N180 Co171 2.022 . S
N180 C177 1.351 1_655 S
N180 N181 1.365 1_655 S
N181 C178 1.341 . S
N181 N180 1.365 1_455 S
N181 H201 0.862 . S
C182 C177 1.501 1_655 S
C182 H183 0.961 . S
C182 H184 0.961 . S
C182 H185 0.960 . S
H183 C182 0.961 . S
H184 C182 0.961 . S
H185 C182 0.960 . S
C186 N187 1.342 . S
C186 C190 1.401 . S
C186 C191 1.499 . S
N187 Co170 1.989 . S
N187 C186 1.342 . S
N187 N188 1.388 . S
N188 Co171 1.993 . S
N188 N187 1.388 . S
N188 C189 1.346 . S
C189 N188 1.346 . S
C189 C190 1.396 . S
C189 C199 1.510 1_655 S
C190 C186 1.401 . S
C190 C189 1.396 . S
C191 C186 1.499 . S
C191 H192 0.959 . S
C191 H193 0.960 . S
C191 H194 0.961 . S
H192 C191 0.959 . S
H193 C191 0.960 . S
H194 C191 0.961 . S
O195 Co170 1.967 . S
O195 C203 1.258 . S
O196 Co171 1.941 . S
O196 C203 1.266 . S
H197 C199 0.959 . S
H198 C199 0.961 . S
C199 C189 1.510 1_455 S
C199 H197 0.959 . S
C199 H198 0.961 . S
C199 H200 0.960 . S
H200 C199 0.960 . S
H201 N181 0.862 . S
O202 Co170 1.920 . S
O202 C175 1.289 . S
C203 O195 1.258 . S
C203 O196 1.266 . S
Co204 O207 1.970 . S
Co204 N221 1.989 . S
Co204 O229 1.967 . S
Co204 O236 1.920 . S
Co205 O208 1.966 . S
Co205 N214 2.022 . S
Co205 N222 1.993 . S
Co205 O230 1.941 . S
C206 O207 1.258 . S
C206 O208 1.263 . S
O207 Co204 1.970 . S
O207 C206 1.258 . S
O208 Co205 1.966 . S
O208 C206 1.263 . S
C209 O210 1.235 . S
C209 O236 1.289 . S
O210 C209 1.235 . S
C211 C213 1.400 . S
C211 N214 1.351 . S
C211 C216 1.501 . S
C212 C213 1.387 . S
C212 N215 1.341 . S
C213 C211 1.400 . S
C213 C212 1.387 . S
N214 Co205 2.022 . S
N214 C211 1.351 . S
N214 N215 1.365 . S
N215 C212 1.341 . S
N215 N214 1.365 . S
N215 H235 0.862 . S
C216 C211 1.501 . S
C216 H217 0.961 . S
C216 H218 0.961 . S
C216 H219 0.960 . S
H217 C216 0.961 . S
H218 C216 0.961 . S
H219 C216 0.960 . S
C220 N221 1.342 . S
C220 C224 1.401 . S
C220 C225 1.499 . S
N221 Co204 1.989 . S
N221 C220 1.342 . S
N221 N222 1.388 . S
N222 Co205 1.993 . S
N222 N221 1.388 . S
N222 C223 1.346 . S
C223 N222 1.346 . S
C223 C224 1.396 . S
C223 C233 1.510 . S
C224 C220 1.401 . S
C224 C223 1.396 . S
C225 C220 1.499 . S
C225 H226 0.959 . S
C225 H227 0.960 . S
C225 H228 0.961 . S
H226 C225 0.959 . S
H227 C225 0.960 . S
H228 C225 0.961 . S
O229 Co204 1.967 . S
O229 C237 1.258 . S
O230 Co205 1.941 . S
O230 C237 1.266 . S
H231 C233 0.959 . S
H232 C233 0.961 . S
C233 C223 1.510 . S
C233 H231 0.959 . S
C233 H232 0.961 . S
C233 H234 0.960 . S
H234 C233 0.960 . S
H235 N215 0.862 . S
O236 Co204 1.920 . S
O236 C209 1.289 . S
C237 O229 1.258 . S
C237 O230 1.266 . S
Co238 O241 1.970 . S
Co238 N255 1.989 . S
Co238 O263 1.967 . S
Co238 O270 1.920 . S
Co239 O242 1.966 . S
Co239 N248 2.022 . S
Co239 N256 1.993 . S
Co239 O264 1.941 . S
C240 O241 1.258 . S
C240 O242 1.263 . S
O241 Co238 1.970 . S
O241 C240 1.258 . S
O242 Co239 1.966 . S
O242 C240 1.263 . S
C243 O244 1.235 1_565 S
C243 O270 1.289 . S
O244 C243 1.235 1_545 S
C245 C247 1.400 . S
C245 N248 1.351 1_455 S
C245 C250 1.501 1_455 S
C246 C247 1.387 . S
C246 N249 1.341 . S
C247 C245 1.400 . S
C247 C246 1.387 . S
N248 Co239 2.022 . S
N248 C245 1.351 1_655 S
N248 N249 1.365 1_655 S
N249 C246 1.341 . S
N249 N248 1.365 1_455 S
N249 H269 0.862 . S
C250 C245 1.501 1_655 S
C250 H251 0.961 . S
C250 H252 0.961 . S
C250 H253 0.960 . S
H251 C250 0.961 . S
H252 C250 0.961 . S
H253 C250 0.960 . S
C254 N255 1.342 . S
C254 C258 1.401 . S
C254 C259 1.499 . S
N255 Co238 1.989 . S
N255 C254 1.342 . S
N255 N256 1.388 . S
N256 Co239 1.993 . S
N256 N255 1.388 . S
N256 C257 1.346 . S
C257 N256 1.346 . S
C257 C258 1.396 . S
C257 C267 1.510 1_655 S
C258 C254 1.401 . S
C258 C257 1.396 . S
C259 C254 1.499 . S
C259 H260 0.959 . S
C259 H261 1.023 . S
C259 H262 0.961 . S
H260 C259 0.959 . S
H261 C259 1.023 . S
H262 C259 0.961 . S
O263 Co238 1.967 . S
O263 C271 1.258 . S
O264 Co239 1.941 . S
O264 C271 1.266 . S
H265 C267 0.959 . S
H266 C267 0.961 . S
C267 C257 1.510 1_455 S
C267 H265 0.959 . S
C267 H266 0.961 . S
C267 H268 0.960 . S
H268 C267 0.960 . S
H269 N249 0.862 . S
O270 Co238 1.920 . S
O270 C243 1.289 . S
C271 O263 1.258 . S
C271 O264 1.266 . S
Co272 O275 1.970 . S
Co272 N289 1.989 . S
Co272 O297 1.967 . S
Co272 O304 1.920 . S
Co273 O276 1.966 . S
Co273 N282 2.022 . S
Co273 N290 1.993 . S
Co273 O298 1.941 . S
C274 O275 1.258 . S
C274 O276 1.263 . S
O275 Co272 1.970 . S
O275 C274 1.258 . S
O276 Co273 1.966 . S
O276 C274 1.263 . S
C277 O278 1.235 . S
C277 O304 1.289 . S
O278 C277 1.235 . S
C279 C281 1.400 . S
C279 N282 1.351 . S
C279 C284 1.501 . S
C280 C281 1.387 . S
C280 N283 1.341 . S
C281 C279 1.400 . S
C281 C280 1.387 . S
N282 Co273 2.022 . S
N282 C279 1.351 . S
N282 N283 1.365 . S
N283 C280 1.341 . S
N283 N282 1.365 . S
N283 H303 0.862 . S
C284 C279 1.501 . S
C284 H285 0.961 . S
C284 H286 0.961 . S
C284 H287 0.960 . S
H285 C284 0.961 . S
H286 C284 0.961 . S
H287 C284 0.960 . S
C288 N289 1.342 . S
C288 C292 1.401 . S
C288 C293 1.499 1_556 S
N289 Co272 1.989 . S
N289 C288 1.342 . S
N289 N290 1.388 . S
N290 Co273 1.993 . S
N290 N289 1.388 . S
N290 C291 1.346 . S
C291 N290 1.346 . S
C291 C292 1.396 . S
C291 C301 1.510 . S
C292 C288 1.401 . S
C292 C291 1.396 . S
C293 C288 1.499 1_554 S
C293 H294 0.959 . S
C293 H295 0.960 . S
C293 H296 0.961 . S
H294 C293 0.959 . S
H295 C293 0.960 . S
H296 C293 0.961 . S
O297 Co272 1.967 . S
O297 C305 1.258 . S
O298 Co273 1.941 . S
O298 C305 1.266 . S
H299 C301 0.959 . S
H300 C301 0.961 . S
C301 C291 1.510 . S
C301 H299 0.959 . S
C301 H300 0.961 . S
C301 H302 0.960 . S
H302 C301 0.960 . S
H303 N283 0.862 . S
O304 Co272 1.920 . S
O304 C277 1.289 . S
C305 O297 1.258 . S
C305 O298 1.266 . S
Co306 O309 1.970 . S
Co306 N323 1.989 . S
Co306 O331 1.967 . S
Co306 O338 1.920 . S
Co307 O310 1.966 . S
Co307 N316 2.022 . S
Co307 N324 1.993 . S
Co307 O332 1.941 . S
C308 O309 1.258 . S
C308 O310 1.263 . S
O309 Co306 1.970 . S
O309 C308 1.258 . S
O310 Co307 1.966 . S
O310 C308 1.263 . S
C311 O312 1.235 . S
C311 O338 1.289 . S
O312 C311 1.235 . S
C313 C315 1.400 . S
C313 N316 1.351 1_655 S
C313 C318 1.501 1_655 S
C314 C315 1.387 . S
C314 N317 1.341 . S
C315 C313 1.400 . S
C315 C314 1.387 . S
N316 Co307 2.022 . S
N316 C313 1.351 1_455 S
N316 N317 1.365 1_455 S
N317 C314 1.341 . S
N317 N316 1.365 1_655 S
N317 H337 0.862 . S
C318 C313 1.501 1_455 S
C318 H319 0.961 . S
C318 H320 0.961 . S
C318 H321 0.960 . S
H319 C318 0.961 . S
H320 C318 0.961 . S
H321 C318 0.960 . S
C322 N323 1.342 . S
C322 C326 1.401 . S
C322 C327 1.499 1_556 S
N323 Co306 1.989 . S
N323 C322 1.342 . S
N323 N324 1.388 . S
N324 Co307 1.993 . S
N324 N323 1.388 . S
N324 C325 1.346 . S
C325 N324 1.346 . S
C325 C326 1.396 . S
C325 C335 1.510 1_455 S
C326 C322 1.401 . S
C326 C325 1.396 . S
C327 C322 1.499 1_554 S
C327 H328 0.959 . S
C327 H329 0.960 . S
C327 H330 0.961 . S
H328 C327 0.959 . S
H329 C327 0.960 . S
H330 C327 0.961 . S
O331 Co306 1.967 . S
O331 C339 1.258 . S
O332 Co307 1.941 . S
O332 C339 1.266 . S
H333 C335 0.959 . S
H334 C335 0.961 . S
C335 C325 1.510 1_655 S
C335 H333 0.959 . S
C335 H334 0.961 . S
C335 H336 0.960 . S
H336 C335 0.960 . S
H337 N317 0.862 . S
O338 Co306 1.920 . S
O338 C311 1.289 . S
C339 O331 1.258 . S
C339 O332 1.266 . S
Co340 O343 1.970 . S
Co340 N357 1.989 . S
Co340 O365 1.967 . S
Co340 O372 1.920 . S
Co341 O344 1.966 . S
Co341 N350 2.022 . S
Co341 N358 1.993 . S
Co341 O366 1.941 . S
C342 O343 1.258 . S
C342 O344 1.263 . S
O343 Co340 1.970 . S
O343 C342 1.258 . S
O344 Co341 1.966 . S
O344 C342 1.263 . S
C345 O346 1.235 . S
C345 O372 1.289 . S
O346 C345 1.235 . S
C347 C349 1.400 . S
C347 N350 1.351 . S
C347 C352 1.501 . S
C348 C349 1.387 . S
C348 N351 1.341 . S
C349 C347 1.400 . S
C349 C348 1.387 . S
N350 Co341 2.022 . S
N350 C347 1.351 . S
N350 N351 1.365 . S
N351 C348 1.341 . S
N351 N350 1.365 . S
N351 H371 0.862 . S
C352 C347 1.501 . S
C352 H353 0.961 . S
C352 H354 0.961 . S
C352 H355 0.960 . S
H353 C352 0.961 . S
H354 C352 0.961 . S
H355 C352 0.960 . S
C356 N357 1.342 . S
C356 C360 1.401 . S
C356 C361 1.499 . S
N357 Co340 1.989 . S
N357 C356 1.342 . S
N357 N358 1.388 . S
N358 Co341 1.993 . S
N358 N357 1.388 . S
N358 C359 1.346 . S
C359 N358 1.346 . S
C359 C360 1.396 . S
C359 C369 1.510 . S
C360 C356 1.401 . S
C360 C359 1.396 . S
C361 C356 1.499 . S
C361 H362 0.959 . S
C361 H363 0.960 . S
C361 H364 0.961 . S
H362 C361 0.959 . S
H363 C361 0.960 . S
H364 C361 0.961 . S
O365 Co340 1.967 . S
O365 C373 1.258 . S
O366 Co341 1.941 . S
O366 C373 1.266 . S
H367 C369 0.959 . S
H368 C369 0.961 . S
C369 C359 1.510 . S
C369 H367 0.959 . S
C369 H368 0.961 . S
C369 H370 0.960 . S
H370 C369 0.960 . S
H371 N351 0.862 . S
O372 Co340 1.920 . S
O372 C345 1.289 . S
C373 O365 1.258 . S
C373 O366 1.266 . S
Co374 O377 1.970 . S
Co374 N391 1.989 . S
Co374 O399 1.967 . S
Co374 O406 1.920 . S
Co375 O378 1.966 . S
Co375 N384 2.022 . S
Co375 N392 1.993 . S
Co375 O400 1.941 . S
C376 O377 1.258 . S
C376 O378 1.263 . S
O377 Co374 1.970 . S
O377 C376 1.258 . S
O378 Co375 1.966 . S
O378 C376 1.263 . S
C379 O380 1.235 . S
C379 O406 1.289 . S
O380 C379 1.235 . S
C381 C383 1.400 . S
C381 N384 1.351 1_655 S
C381 C386 1.501 1_655 S
C382 C383 1.387 . S
C382 N385 1.341 . S
C383 C381 1.400 . S
C383 C382 1.387 . S
N384 Co375 2.022 . S
N384 C381 1.351 1_455 S
N384 N385 1.365 1_455 S
N385 C382 1.341 . S
N385 N384 1.365 1_655 S
N385 H405 0.862 . S
C386 C381 1.501 1_455 S
C386 H387 0.961 . S
C386 H388 0.961 . S
C386 H389 0.960 . S
H387 C386 0.961 . S
H388 C386 0.961 . S
H389 C386 0.960 . S
C390 N391 1.342 . S
C390 C394 1.401 . S
C390 C395 1.499 . S
N391 Co374 1.989 . S
N391 C390 1.342 . S
N391 N392 1.388 . S
N392 Co375 1.993 . S
N392 N391 1.388 . S
N392 C393 1.346 . S
C393 N392 1.346 . S
C393 C394 1.396 . S
C393 C403 1.510 1_455 S
C394 C390 1.401 . S
C394 C393 1.396 . S
C395 C390 1.499 . S
C395 H396 0.959 . S
C395 H397 0.960 . S
C395 H398 0.961 . S
H396 C395 0.959 . S
H397 C395 0.960 . S
H398 C395 0.961 . S
O399 Co374 1.967 . S
O399 C407 1.258 . S
O400 Co375 1.941 . S
O400 C407 1.266 . S
H401 C403 0.959 . S
H402 C403 0.961 . S
C403 C393 1.510 1_655 S
C403 H401 0.959 . S
C403 H402 0.961 . S
C403 H404 0.960 . S
H404 C403 0.960 . S
H405 N385 0.862 . S
O406 Co374 1.920 . S
O406 C379 1.289 . S
C407 O399 1.258 . S
C407 O400 1.266 . S
Co408 O411 1.970 . S
Co408 N425 1.989 . S
Co408 O433 1.967 . S
Co408 O440 1.920 . S
Co409 O412 1.966 . S
Co409 N418 2.022 . S
Co409 N426 1.993 . S
Co409 O434 1.941 . S
C410 O411 1.258 . S
C410 O412 1.263 . S
O411 Co408 1.970 . S
O411 C410 1.258 . S
O412 Co409 1.966 . S
O412 C410 1.263 . S
C413 O414 1.235 . S
C413 O440 1.289 . S
O414 C413 1.235 . S
C415 C417 1.400 . S
C415 N418 1.351 . S
C415 C420 1.501 . S
C416 C417 1.387 . S
C416 N419 1.341 . S
C417 C415 1.400 . S
C417 C416 1.387 . S
N418 Co409 2.022 . S
N418 C415 1.351 . S
N418 N419 1.365 . S
N419 C416 1.341 . S
N419 N418 1.365 . S
N419 H439 0.862 . S
C420 C415 1.501 . S
C420 H421 0.961 . S
C420 H422 0.961 . S
C420 H423 0.960 . S
H421 C420 0.961 . S
H422 C420 0.961 . S
H423 C420 0.960 . S
C424 N425 1.342 . S
C424 C428 1.401 . S
C424 C429 1.499 1_554 S
N425 Co408 1.989 . S
N425 C424 1.342 . S
N425 N426 1.388 . S
N426 Co409 1.993 . S
N426 N425 1.388 . S
N426 C427 1.346 . S
C427 N426 1.346 . S
C427 C428 1.396 . S
C427 C437 1.510 . S
C428 C424 1.401 . S
C428 C427 1.396 . S
C429 C424 1.499 1_556 S
C429 H430 0.959 . S
C429 H431 0.960 . S
C429 H432 0.961 . S
H430 C429 0.959 . S
H431 C429 0.960 . S
H432 C429 0.961 . S
O433 Co408 1.967 . S
O433 C441 1.258 . S
O434 Co409 1.941 . S
O434 C441 1.266 . S
H435 C437 0.959 . S
H436 C437 0.961 . S
C437 C427 1.510 . S
C437 H435 0.959 . S
C437 H436 0.961 . S
C437 H438 0.960 . S
H438 C437 0.960 . S
H439 N419 0.862 . S
O440 Co408 1.920 . S
O440 C413 1.289 . S
C441 O433 1.258 . S
C441 O434 1.266 . S
Co442 O445 1.970 . S
Co442 N459 1.989 . S
Co442 O467 1.967 . S
Co442 O474 1.920 . S
Co443 O446 1.966 . S
Co443 N452 2.022 . S
Co443 N460 1.993 . S
Co443 O468 1.941 . S
C444 O445 1.258 . S
C444 O446 1.263 . S
O445 Co442 1.970 . S
O445 C444 1.258 . S
O446 Co443 1.966 . S
O446 C444 1.263 . S
C447 O448 1.235 . S
C447 O474 1.289 . S
O448 C447 1.235 . S
C449 C451 1.400 . S
C449 N452 1.351 1_455 S
C449 C454 1.501 1_455 S
C450 C451 1.387 . S
C450 N453 1.341 . S
C451 C449 1.400 . S
C451 C450 1.387 . S
N452 Co443 2.022 . S
N452 C449 1.351 1_655 S
N452 N453 1.365 1_655 S
N453 C450 1.341 . S
N453 N452 1.365 1_455 S
N453 H473 0.862 . S
C454 C449 1.501 1_655 S
C454 H455 0.961 . S
C454 H456 0.961 . S
C454 H457 0.960 . S
H455 C454 0.961 . S
H456 C454 0.961 . S
H457 C454 0.960 . S
C458 N459 1.342 . S
C458 C462 1.401 . S
C458 C463 1.499 1_554 S
N459 Co442 1.989 . S
N459 C458 1.342 . S
N459 N460 1.388 . S
N460 Co443 1.993 . S
N460 N459 1.388 . S
N460 C461 1.346 . S
C461 N460 1.346 . S
C461 C462 1.396 . S
C461 C471 1.510 1_655 S
C462 C458 1.401 . S
C462 C461 1.396 . S
C463 C458 1.499 1_556 S
C463 H464 0.959 . S
C463 H465 0.960 . S
C463 H466 0.961 . S
H464 C463 0.959 . S
H465 C463 0.960 . S
H466 C463 0.961 . S
O467 Co442 1.967 . S
O467 C475 1.258 . S
O468 Co443 1.941 . S
O468 C475 1.266 . S
H469 C471 0.959 . S
H470 C471 0.961 . S
C471 C461 1.510 1_455 S
C471 H469 0.959 . S
C471 H470 0.961 . S
C471 H472 0.960 . S
H472 C471 0.960 . S
H473 N453 0.862 . S
O474 Co442 1.920 . S
O474 C447 1.289 . S
C475 O467 1.258 . S
C475 O468 1.266 . S
Co476 O479 1.970 . S
Co476 N493 1.989 . S
Co476 O501 1.967 . S
Co476 O508 1.920 . S
Co477 O480 1.966 . S
Co477 N486 2.022 . S
Co477 N494 1.993 . S
Co477 O502 1.941 . S
C478 O479 1.258 . S
C478 O480 1.263 . S
O479 Co476 1.970 . S
O479 C478 1.258 . S
O480 Co477 1.966 . S
O480 C478 1.263 . S
C481 O482 1.235 . S
C481 O508 1.289 . S
O482 C481 1.235 . S
C483 C485 1.400 . S
C483 N486 1.351 . S
C483 C488 1.501 . S
C484 C485 1.387 . S
C484 N487 1.341 . S
C485 C483 1.400 . S
C485 C484 1.387 . S
N486 Co477 2.022 . S
N486 C483 1.351 . S
N486 N487 1.365 . S
N487 C484 1.341 . S
N487 N486 1.365 . S
N487 H507 0.862 . S
C488 C483 1.501 . S
C488 H489 0.961 . S
C488 H490 0.961 . S
C488 H491 0.960 . S
H489 C488 0.961 . S
H490 C488 0.961 . S
H491 C488 0.960 . S
C492 N493 1.342 . S
C492 C496 1.401 . S
C492 C497 1.499 . S
N493 Co476 1.989 . S
N493 C492 1.342 . S
N493 N494 1.388 . S
N494 Co477 1.993 . S
N494 N493 1.388 . S
N494 C495 1.346 . S
C495 N494 1.346 . S
C495 C496 1.396 . S
C495 C505 1.510 . S
C496 C492 1.401 . S
C496 C495 1.396 . S
C497 C492 1.499 . S
C497 H498 0.959 . S
C497 H499 0.960 . S
C497 H500 0.961 . S
H498 C497 0.959 . S
H499 C497 0.960 . S
H500 C497 0.961 . S
O501 Co476 1.967 . S
O501 C509 1.258 . S
O502 Co477 1.941 . S
O502 C509 1.266 . S
H503 C505 0.959 . S
H504 C505 0.961 . S
C505 C495 1.510 . S
C505 H503 0.959 . S
C505 H504 0.961 . S
C505 H506 0.960 . S
H506 C505 0.960 . S
H507 N487 0.862 . S
O508 Co476 1.920 . S
O508 C481 1.289 . S
C509 O501 1.258 . S
C509 O502 1.266 . S
Co510 O513 1.970 . S
Co510 N527 1.989 . S
Co510 O535 1.967 . S
Co510 O542 1.920 . S
Co511 O514 1.966 . S
Co511 N520 2.022 . S
Co511 N528 1.993 . S
Co511 O536 1.941 . S
C512 O513 1.258 . S
C512 O514 1.263 . S
O513 Co510 1.970 . S
O513 C512 1.258 . S
O514 Co511 1.966 . S
O514 C512 1.263 . S
C515 O516 1.235 . S
C515 O542 1.289 . S
O516 C515 1.235 . S
C517 C519 1.400 . S
C517 N520 1.351 1_455 S
C517 C522 1.501 1_455 S
C518 C519 1.387 . S
C518 N521 1.341 . S
C519 C517 1.400 . S
C519 C518 1.387 . S
N520 Co511 2.022 . S
N520 C517 1.351 1_655 S
N520 N521 1.365 1_655 S
N521 C518 1.341 . S
N521 N520 1.365 1_455 S
N521 H541 0.862 . S
C522 C517 1.501 1_655 S
C522 H523 0.961 . S
C522 H524 0.961 . S
C522 H525 0.960 . S
H523 C522 0.961 . S
H524 C522 0.961 . S
H525 C522 0.960 . S
C526 N527 1.342 . S
C526 C530 1.401 . S
C526 C531 1.499 . S
N527 Co510 1.989 . S
N527 C526 1.342 . S
N527 N528 1.388 . S
N528 Co511 1.993 . S
N528 N527 1.388 . S
N528 C529 1.346 . S
C529 N528 1.346 . S
C529 C530 1.396 . S
C529 C539 1.510 1_655 S
C530 C526 1.401 . S
C530 C529 1.396 . S
C531 C526 1.499 . S
C531 H532 0.959 . S
C531 H533 0.960 . S
C531 H534 0.961 . S
H532 C531 0.959 . S
H533 C531 0.960 . S
H534 C531 0.961 . S
O535 Co510 1.967 . S
O535 C543 1.258 . S
O536 Co511 1.941 . S
O536 C543 1.266 . S
H537 C539 0.959 . S
H538 C539 0.961 . S
C539 C529 1.510 1_455 S
C539 H537 0.959 . S
C539 H538 0.961 . S
C539 H540 0.960 . S
H540 C539 0.960 . S
H541 N521 0.862 . S
O542 Co510 1.920 . S
O542 C515 1.289 . S
C543 O535 1.258 . S
C543 O536 1.266 . S
Co544 O547 1.970 . S
Co544 N561 1.989 . S
Co544 O569 1.967 . S
Co544 O576 1.920 . S
Co545 O548 1.966 . S
Co545 N554 2.022 . S
Co545 N562 1.993 . S
Co545 O570 1.941 . S
C546 O547 1.258 . S
C546 O548 1.263 . S
O547 Co544 1.970 . S
O547 C546 1.258 . S
O548 Co545 1.966 . S
O548 C546 1.263 . S
C549 O550 1.235 1_545 S
C549 O576 1.289 . S
O550 C549 1.235 1_565 S
C551 C553 1.400 . S
C551 N554 1.351 . S
C551 C556 1.501 . S
C552 C553 1.387 . S
C552 N555 1.341 . S
C553 C551 1.400 . S
C553 C552 1.387 . S
N554 Co545 2.022 . S
N554 C551 1.351 . S
N554 N555 1.365 . S
N555 C552 1.341 . S
N555 N554 1.365 . S
N555 H575 0.862 . S
C556 C551 1.501 . S
C556 H557 0.961 . S
C556 H558 0.961 . S
C556 H559 0.960 . S
H557 C556 0.961 . S
H558 C556 0.961 . S
H559 C556 0.960 . S
C560 N561 1.342 . S
C560 C564 1.401 . S
C560 C565 1.499 1_556 S
N561 Co544 1.989 . S
N561 C560 1.342 . S
N561 N562 1.388 . S
N562 Co545 1.993 . S
N562 N561 1.388 . S
N562 C563 1.346 . S
C563 N562 1.346 . S
C563 C564 1.396 . S
C563 C573 1.510 . S
C564 C560 1.401 . S
C564 C563 1.396 . S
C565 C560 1.499 1_554 S
C565 H566 0.959 . S
C565 H567 1.023 . S
C565 H568 0.961 . S
H566 C565 0.959 . S
H567 C565 1.023 . S
H568 C565 0.961 . S
O569 Co544 1.967 . S
O569 C577 1.258 . S
O570 Co545 1.941 . S
O570 C577 1.266 . S
H571 C573 0.959 . S
H572 C573 0.961 . S
C573 C563 1.510 . S
C573 H571 0.959 . S
C573 H572 0.961 . S
C573 H574 0.960 . S
H574 C573 0.960 . S
H575 N555 0.862 . S
O576 Co544 1.920 . S
O576 C549 1.289 . S
C577 O569 1.258 . S
C577 O570 1.266 . S
Co578 O581 1.970 . S
Co578 N595 1.989 . S
Co578 O603 1.967 . S
Co578 O610 1.920 . S
Co579 O582 1.966 . S
Co579 N588 2.022 . S
Co579 N596 1.993 . S
Co579 O604 1.941 . S
C580 O581 1.258 . S
C580 O582 1.263 . S
O581 Co578 1.970 . S
O581 C580 1.258 . S
O582 Co579 1.966 . S
O582 C580 1.263 . S
C583 O584 1.235 . S
C583 O610 1.289 . S
O584 C583 1.235 . S
C585 C587 1.400 . S
C585 N588 1.351 . S
C585 C590 1.501 . S
C586 C587 1.387 . S
C586 N589 1.341 . S
C587 C585 1.400 . S
C587 C586 1.387 . S
N588 Co579 2.022 . S
N588 C585 1.351 . S
N588 N589 1.365 . S
N589 C586 1.341 . S
N589 N588 1.365 . S
N589 H609 0.862 . S
C590 C585 1.501 . S
C590 H591 0.961 . S
C590 H592 0.961 . S
C590 H593 0.960 . S
H591 C590 0.961 . S
H592 C590 0.961 . S
H593 C590 0.960 . S
C594 N595 1.342 . S
C594 C598 1.401 . S
C594 C599 1.499 1_556 S
N595 Co578 1.989 . S
N595 C594 1.342 . S
N595 N596 1.388 . S
N596 Co579 1.993 . S
N596 N595 1.388 . S
N596 C597 1.346 . S
C597 N596 1.346 . S
C597 C598 1.396 . S
C597 C607 1.510 . S
C598 C594 1.401 . S
C598 C597 1.396 . S
C599 C594 1.499 1_554 S
C599 H600 0.959 . S
C599 H601 0.960 . S
C599 H602 0.961 . S
H600 C599 0.959 . S
H601 C599 0.960 . S
H602 C599 0.961 . S
O603 Co578 1.967 . S
O603 C611 1.258 . S
O604 Co579 1.941 . S
O604 C611 1.266 . S
H605 C607 0.959 . S
H606 C607 0.961 . S
C607 C597 1.510 . S
C607 H605 0.959 . S
C607 H606 0.961 . S
C607 H608 0.960 . S
H608 C607 0.960 . S
H609 N589 0.862 . S
O610 Co578 1.920 . S
O610 C583 1.289 . S
C611 O603 1.258 . S
C611 O604 1.266 . S
Co612 O615 1.970 . S
Co612 N629 1.989 . S
Co612 O637 1.967 . S
Co612 O644 1.920 . S
Co613 O616 1.966 . S
Co613 N622 2.022 . S
Co613 N630 1.993 . S
Co613 O638 1.941 . S
C614 O615 1.258 . S
C614 O616 1.263 . S
O615 Co612 1.970 . S
O615 C614 1.258 . S
O616 Co613 1.966 . S
O616 C614 1.263 . S
C617 O618 1.235 . S
C617 O644 1.289 . S
O618 C617 1.235 . S
C619 C621 1.400 . S
C619 N622 1.351 . S
C619 C624 1.501 . S
C620 C621 1.387 . S
C620 N623 1.341 . S
C621 C619 1.400 . S
C621 C620 1.387 . S
N622 Co613 2.022 . S
N622 C619 1.351 . S
N622 N623 1.365 . S
N623 C620 1.341 . S
N623 N622 1.365 . S
N623 H643 0.862 . S
C624 C619 1.501 . S
C624 H625 0.961 . S
C624 H626 0.961 . S
C624 H627 0.960 . S
H625 C624 0.961 . S
H626 C624 0.961 . S
H627 C624 0.960 . S
C628 N629 1.342 . S
C628 C632 1.401 . S
C628 C633 1.499 . S
N629 Co612 1.989 . S
N629 C628 1.342 . S
N629 N630 1.388 . S
N630 Co613 1.993 . S
N630 N629 1.388 . S
N630 C631 1.346 . S
C631 N630 1.346 . S
C631 C632 1.396 . S
C631 C641 1.510 . S
C632 C628 1.401 . S
C632 C631 1.396 . S
C633 C628 1.499 . S
C633 H634 0.959 . S
C633 H635 0.960 . S
C633 H636 0.961 . S
H634 C633 0.959 . S
H635 C633 0.960 . S
H636 C633 0.961 . S
O637 Co612 1.967 . S
O637 C645 1.258 . S
O638 Co613 1.941 . S
O638 C645 1.266 . S
H639 C641 0.959 . S
H640 C641 0.961 . S
C641 C631 1.510 . S
C641 H639 0.959 . S
C641 H640 0.961 . S
C641 H642 0.960 . S
H642 C641 0.960 . S
H643 N623 0.862 . S
O644 Co612 1.920 . S
O644 C617 1.289 . S
C645 O637 1.258 . S
C645 O638 1.266 . S
Co646 O649 1.970 . S
Co646 N663 1.989 . S
Co646 O671 1.967 . S
Co646 O678 1.920 . S
Co647 O650 1.966 . S
Co647 N656 2.022 . S
Co647 N664 1.993 . S
Co647 O672 1.941 . S
C648 O649 1.258 . S
C648 O650 1.263 . S
O649 Co646 1.970 . S
O649 C648 1.258 . S
O650 Co647 1.966 . S
O650 C648 1.263 . S
C651 O652 1.235 1_545 S
C651 O678 1.289 . S
O652 C651 1.235 1_565 S
C653 C655 1.400 . S
C653 N656 1.351 . S
C653 C658 1.501 . S
C654 C655 1.387 . S
C654 N657 1.341 . S
C655 C653 1.400 . S
C655 C654 1.387 . S
N656 Co647 2.022 . S
N656 C653 1.351 . S
N656 N657 1.365 . S
N657 C654 1.341 . S
N657 N656 1.365 . S
N657 H677 0.862 . S
C658 C653 1.501 . S
C658 H659 0.961 . S
C658 H660 0.961 . S
C658 H661 0.960 . S
H659 C658 0.961 . S
H660 C658 0.961 . S
H661 C658 0.960 . S
C662 N663 1.342 . S
C662 C666 1.401 . S
C662 C667 1.499 . S
N663 Co646 1.989 . S
N663 C662 1.342 . S
N663 N664 1.388 . S
N664 Co647 1.993 . S
N664 N663 1.388 . S
N664 C665 1.346 . S
C665 N664 1.346 . S
C665 C666 1.396 . S
C665 C675 1.510 . S
C666 C662 1.401 . S
C666 C665 1.396 . S
C667 C662 1.499 . S
C667 H668 0.959 . S
C667 H669 1.023 . S
C667 H670 0.961 . S
H668 C667 0.959 . S
H669 C667 1.023 . S
H670 C667 0.961 . S
O671 Co646 1.967 . S
O671 C679 1.258 . S
O672 Co647 1.941 . S
O672 C679 1.266 . S
H673 C675 0.959 . S
H674 C675 0.961 . S
C675 C665 1.510 . S
C675 H673 0.959 . S
C675 H674 0.961 . S
C675 H676 0.960 . S
H676 C675 0.960 . S
H677 N657 0.862 . S
O678 Co646 1.920 . S
O678 C651 1.289 . S
C679 O671 1.258 . S
C679 O672 1.266 . S
Co680 O683 1.970 . S
Co680 N697 1.989 . S
Co680 O705 1.967 . S
Co680 O712 1.920 . S
Co681 O684 1.966 . S
Co681 N690 2.022 . S
Co681 N698 1.993 . S
Co681 O706 1.941 . S
C682 O683 1.258 . S
C682 O684 1.263 . S
O683 Co680 1.970 . S
O683 C682 1.258 . S
O684 Co681 1.966 . S
O684 C682 1.263 . S
C685 O686 1.235 1_565 S
C685 O712 1.289 . S
O686 C685 1.235 1_545 S
C687 C689 1.400 . S
C687 N690 1.351 . S
C687 C692 1.501 . S
C688 C689 1.387 . S
C688 N691 1.341 . S
C689 C687 1.400 . S
C689 C688 1.387 . S
N690 Co681 2.022 . S
N690 C687 1.351 . S
N690 N691 1.365 . S
N691 C688 1.341 . S
N691 N690 1.365 . S
N691 H711 0.862 . S
C692 C687 1.501 . S
C692 H693 0.961 . S
C692 H694 0.961 . S
C692 H695 0.960 . S
H693 C692 0.961 . S
H694 C692 0.961 . S
H695 C692 0.960 . S
C696 N697 1.342 . S
C696 C700 1.401 . S
C696 C701 1.499 1_554 S
N697 Co680 1.989 . S
N697 C696 1.342 . S
N697 N698 1.388 . S
N698 Co681 1.993 . S
N698 N697 1.388 . S
N698 C699 1.346 . S
C699 N698 1.346 . S
C699 C700 1.396 . S
C699 C709 1.510 . S
C700 C696 1.401 . S
C700 C699 1.396 . S
C701 C696 1.499 1_556 S
C701 H702 0.959 . S
C701 H703 1.023 . S
C701 H704 0.961 . S
H702 C701 0.959 . S
H703 C701 1.023 . S
H704 C701 0.961 . S
O705 Co680 1.967 . S
O705 C713 1.258 . S
O706 Co681 1.941 . S
O706 C713 1.266 . S
H707 C709 0.959 . S
H708 C709 0.961 . S
C709 C699 1.510 . S
C709 H707 0.959 . S
C709 H708 0.961 . S
C709 H710 0.960 . S
H710 C709 0.960 . S
H711 N691 0.862 . S
O712 Co680 1.920 . S
O712 C685 1.289 . S
C713 O705 1.258 . S
C713 O706 1.266 . S
Co714 O717 1.970 . S
Co714 N731 1.989 . S
Co714 O739 1.967 . S
Co714 O746 1.920 . S
Co715 O718 1.966 . S
Co715 N724 2.022 . S
Co715 N732 1.993 . S
Co715 O740 1.941 . S
C716 O717 1.258 . S
C716 O718 1.263 . S
O717 Co714 1.970 . S
O717 C716 1.258 . S
O718 Co715 1.966 . S
O718 C716 1.263 . S
C719 O720 1.235 . S
C719 O746 1.289 . S
O720 C719 1.235 . S
C721 C723 1.400 . S
C721 N724 1.351 . S
C721 C726 1.501 . S
C722 C723 1.387 . S
C722 N725 1.341 . S
C723 C721 1.400 . S
C723 C722 1.387 . S
N724 Co715 2.022 . S
N724 C721 1.351 . S
N724 N725 1.365 . S
N725 C722 1.341 . S
N725 N724 1.365 . S
N725 H745 0.862 . S
C726 C721 1.501 . S
C726 H727 0.961 . S
C726 H728 0.961 . S
C726 H729 0.960 . S
H727 C726 0.961 . S
H728 C726 0.961 . S
H729 C726 0.960 . S
C730 N731 1.342 . S
C730 C734 1.401 . S
C730 C735 1.499 1_554 S
N731 Co714 1.989 . S
N731 C730 1.342 . S
N731 N732 1.388 . S
N732 Co715 1.993 . S
N732 N731 1.388 . S
N732 C733 1.346 . S
C733 N732 1.346 . S
C733 C734 1.396 . S
C733 C743 1.510 . S
C734 C730 1.401 . S
C734 C733 1.396 . S
C735 C730 1.499 1_556 S
C735 H736 0.959 . S
C735 H737 0.960 . S
C735 H738 0.961 . S
H736 C735 0.959 . S
H737 C735 0.960 . S
H738 C735 0.961 . S
O739 Co714 1.967 . S
O739 C747 1.258 . S
O740 Co715 1.941 . S
O740 C747 1.266 . S
H741 C743 0.959 . S
H742 C743 0.961 . S
C743 C733 1.510 . S
C743 H741 0.959 . S
C743 H742 0.961 . S
C743 H744 0.960 . S
H744 C743 0.960 . S
H745 N725 0.862 . S
O746 Co714 1.920 . S
O746 C719 1.289 . S
C747 O739 1.258 . S
C747 O740 1.266 . S
Co748 O751 1.970 . S
Co748 N765 1.989 . S
Co748 O773 1.967 . S
Co748 O780 1.920 . S
Co749 O752 1.966 . S
Co749 N758 2.022 . S
Co749 N766 1.993 . S
Co749 O774 1.941 . S
C750 O751 1.258 . S
C750 O752 1.263 . S
O751 Co748 1.970 . S
O751 C750 1.258 . S
O752 Co749 1.966 . S
O752 C750 1.263 . S
C753 O754 1.235 . S
C753 O780 1.289 . S
O754 C753 1.235 . S
C755 C757 1.400 . S
C755 N758 1.351 . S
C755 C760 1.501 . S
C756 C757 1.387 . S
C756 N759 1.341 . S
C757 C755 1.400 . S
C757 C756 1.387 . S
N758 Co749 2.022 . S
N758 C755 1.351 . S
N758 N759 1.365 . S
N759 C756 1.341 . S
N759 N758 1.365 . S
N759 H779 0.862 . S
C760 C755 1.501 . S
C760 H761 0.961 . S
C760 H762 0.961 . S
C760 H763 0.960 . S
H761 C760 0.961 . S
H762 C760 0.961 . S
H763 C760 0.960 . S
C764 N765 1.342 . S
C764 C768 1.401 . S
C764 C769 1.499 . S
N765 Co748 1.989 . S
N765 C764 1.342 . S
N765 N766 1.388 . S
N766 Co749 1.993 . S
N766 N765 1.388 . S
N766 C767 1.346 . S
C767 N766 1.346 . S
C767 C768 1.396 . S
C767 C777 1.510 . S
C768 C764 1.401 . S
C768 C767 1.396 . S
C769 C764 1.499 . S
C769 H770 0.959 . S
C769 H771 0.960 . S
C769 H772 0.961 . S
H770 C769 0.959 . S
H771 C769 0.960 . S
H772 C769 0.961 . S
O773 Co748 1.967 . S
O773 C781 1.258 . S
O774 Co749 1.941 . S
O774 C781 1.266 . S
H775 C777 0.959 . S
H776 C777 0.961 . S
C777 C767 1.510 . S
C777 H775 0.959 . S
C777 H776 0.961 . S
C777 H778 0.960 . S
H778 C777 0.960 . S
H779 N759 0.862 . S
O780 Co748 1.920 . S
O780 C753 1.289 . S
C781 O773 1.258 . S
C781 O774 1.266 . S
Co782 O785 1.970 . S
Co782 N799 1.989 . S
Co782 O807 1.967 . S
Co782 O814 1.920 . S
Co783 O786 1.966 . S
Co783 N792 2.022 . S
Co783 N800 1.993 . S
Co783 O808 1.941 . S
C784 O785 1.258 . S
C784 O786 1.263 . S
O785 Co782 1.970 . S
O785 C784 1.258 . S
O786 Co783 1.966 . S
O786 C784 1.263 . S
C787 O788 1.235 1_565 S
C787 O814 1.289 . S
O788 C787 1.235 1_545 S
C789 C791 1.400 . S
C789 N792 1.351 . S
C789 C794 1.501 . S
C790 C791 1.387 . S
C790 N793 1.341 . S
C791 C789 1.400 . S
C791 C790 1.387 . S
N792 Co783 2.022 . S
N792 C789 1.351 . S
N792 N793 1.365 . S
N793 C790 1.341 . S
N793 N792 1.365 . S
N793 H813 0.862 . S
C794 C789 1.501 . S
C794 H795 0.961 . S
C794 H796 0.961 . S
C794 H797 0.960 . S
H795 C794 0.961 . S
H796 C794 0.961 . S
H797 C794 0.960 . S
C798 N799 1.342 . S
C798 C802 1.401 . S
C798 C803 1.499 . S
N799 Co782 1.989 . S
N799 C798 1.342 . S
N799 N800 1.388 . S
N800 Co783 1.993 . S
N800 N799 1.388 . S
N800 C801 1.346 . S
C801 N800 1.346 . S
C801 C802 1.396 . S
C801 C811 1.510 . S
C802 C798 1.401 . S
C802 C801 1.396 . S
C803 C798 1.499 . S
C803 H804 0.959 . S
C803 H805 1.023 . S
C803 H806 0.961 . S
H804 C803 0.959 . S
H805 C803 1.023 . S
H806 C803 0.961 . S
O807 Co782 1.967 . S
O807 C815 1.258 . S
O808 Co783 1.941 . S
O808 C815 1.266 . S
H809 C811 0.959 . S
H810 C811 0.961 . S
C811 C801 1.510 . S
C811 H809 0.959 . S
C811 H810 0.961 . S
C811 H812 0.960 . S
H812 C811 0.960 . S
H813 N793 0.862 . S
O814 Co782 1.920 . S
O814 C787 1.289 . S
C815 O807 1.258 . S
C815 O808 1.266 . S
Co816 O819 1.970 . S
Co816 N833 1.989 . S
Co816 O841 1.967 . S
Co816 O848 1.920 . S
Co817 O820 1.966 . S
Co817 N826 2.022 . S
Co817 N834 1.993 . S
Co817 O842 1.941 . S
C818 O819 1.258 . S
C818 O820 1.263 . S
O819 Co816 1.970 . S
O819 C818 1.258 . S
O820 Co817 1.966 . S
O820 C818 1.263 . S
C821 O822 1.235 . S
C821 O848 1.289 . S
O822 C821 1.235 . S
C823 C825 1.400 . S
C823 N826 1.351 . S
C823 C828 1.501 . S
C824 C825 1.387 . S
C824 N827 1.341 . S
C825 C823 1.400 . S
C825 C824 1.387 . S
N826 Co817 2.022 . S
N826 C823 1.351 . S
N826 N827 1.365 . S
N827 C824 1.341 . S
N827 N826 1.365 . S
N827 H847 0.862 . S
C828 C823 1.501 . S
C828 H829 0.961 . S
C828 H830 0.961 . S
C828 H831 0.960 . S
H829 C828 0.961 . S
H830 C828 0.961 . S
H831 C828 0.960 . S
C832 N833 1.342 . S
C832 C836 1.401 . S
C832 C837 1.499 . S
N833 Co816 1.989 . S
N833 C832 1.342 . S
N833 N834 1.388 . S
N834 Co817 1.993 . S
N834 N833 1.388 . S
N834 C835 1.346 . S
C835 N834 1.346 . S
C835 C836 1.396 . S
C835 C845 1.510 . S
C836 C832 1.401 . S
C836 C835 1.396 . S
C837 C832 1.499 . S
C837 H838 0.959 . S
C837 H839 0.960 . S
C837 H840 0.961 . S
H838 C837 0.959 . S
H839 C837 0.960 . S
H840 C837 0.961 . S
O841 Co816 1.967 . S
O841 C849 1.258 . S
O842 Co817 1.941 . S
O842 C849 1.266 . S
H843 C845 0.959 . S
H844 C845 0.961 . S
C845 C835 1.510 . S
C845 H843 0.959 . S
C845 H844 0.961 . S
C845 H846 0.960 . S
H846 C845 0.960 . S
H847 N827 0.862 . S
O848 Co816 1.920 . S
O848 C821 1.289 . S
C849 O841 1.258 . S
C849 O842 1.266 . S
Co850 O853 1.970 . S
Co850 N867 1.989 . S
Co850 O875 1.967 . S
Co850 O882 1.920 . S
Co851 O854 1.966 . S
Co851 N860 2.022 . S
Co851 N868 1.993 . S
Co851 O876 1.941 . S
C852 O853 1.258 . S
C852 O854 1.263 . S
O853 Co850 1.970 . S
O853 C852 1.258 . S
O854 Co851 1.966 . S
O854 C852 1.263 . S
C855 O856 1.235 . S
C855 O882 1.289 . S
O856 C855 1.235 . S
C857 C859 1.400 . S
C857 N860 1.351 . S
C857 C862 1.501 . S
C858 C859 1.387 . S
C858 N861 1.341 . S
C859 C857 1.400 . S
C859 C858 1.387 . S
N860 Co851 2.022 . S
N860 C857 1.351 . S
N860 N861 1.365 . S
N861 C858 1.341 . S
N861 N860 1.365 . S
N861 H881 0.862 . S
C862 C857 1.501 . S
C862 H863 0.961 . S
C862 H864 0.961 . S
C862 H865 0.960 . S
H863 C862 0.961 . S
H864 C862 0.961 . S
H865 C862 0.960 . S
C866 N867 1.342 . S
C866 C870 1.401 . S
C866 C871 1.499 . S
N867 Co850 1.989 . S
N867 C866 1.342 . S
N867 N868 1.388 . S
N868 Co851 1.993 . S
N868 N867 1.388 . S
N868 C869 1.346 . S
C869 N868 1.346 . S
C869 C870 1.396 . S
C869 C879 1.510 . S
C870 C866 1.401 . S
C870 C869 1.396 . S
C871 C866 1.499 . S
C871 H872 0.959 . S
C871 H873 0.960 . S
C871 H874 0.961 . S
H872 C871 0.959 . S
H873 C871 0.960 . S
H874 C871 0.961 . S
O875 Co850 1.967 . S
O875 C883 1.258 . S
O876 Co851 1.941 . S
O876 C883 1.266 . S
H877 C879 0.959 . S
H878 C879 0.961 . S
C879 C869 1.510 . S
C879 H877 0.959 . S
C879 H878 0.961 . S
C879 H880 0.960 . S
H880 C879 0.960 . S
H881 N861 0.862 . S
O882 Co850 1.920 . S
O882 C855 1.289 . S
C883 O875 1.258 . S
C883 O876 1.266 . S
Co884 O887 1.970 . S
Co884 N901 1.989 . S
Co884 O909 1.967 . S
Co884 O916 1.920 . S
Co885 O888 1.966 . S
Co885 N894 2.022 . S
Co885 N902 1.993 . S
Co885 O910 1.941 . S
C886 O887 1.258 . S
C886 O888 1.263 . S
O887 Co884 1.970 . S
O887 C886 1.258 . S
O888 Co885 1.966 . S
O888 C886 1.263 . S
C889 O890 1.235 . S
C889 O916 1.289 . S
O890 C889 1.235 . S
C891 C893 1.400 . S
C891 N894 1.351 . S
C891 C896 1.501 . S
C892 C893 1.387 . S
C892 N895 1.341 . S
C893 C891 1.400 . S
C893 C892 1.387 . S
N894 Co885 2.022 . S
N894 C891 1.351 . S
N894 N895 1.365 . S
N895 C892 1.341 . S
N895 N894 1.365 . S
N895 H915 0.862 . S
C896 C891 1.501 . S
C896 H897 0.961 . S
C896 H898 0.961 . S
C896 H899 0.960 . S
H897 C896 0.961 . S
H898 C896 0.961 . S
H899 C896 0.960 . S
C900 N901 1.342 . S
C900 C904 1.401 . S
C900 C905 1.499 . S
N901 Co884 1.989 . S
N901 C900 1.342 . S
N901 N902 1.388 . S
N902 Co885 1.993 . S
N902 N901 1.388 . S
N902 C903 1.346 . S
C903 N902 1.346 . S
C903 C904 1.396 . S
C903 C913 1.510 . S
C904 C900 1.401 . S
C904 C903 1.396 . S
C905 C900 1.499 . S
C905 H906 0.959 . S
C905 H907 0.960 . S
C905 H908 0.961 . S
H906 C905 0.959 . S
H907 C905 0.960 . S
H908 C905 0.961 . S
O909 Co884 1.967 . S
O909 C917 1.258 . S
O910 Co885 1.941 . S
O910 C917 1.266 . S
H911 C913 0.959 . S
H912 C913 0.961 . S
C913 C903 1.510 . S
C913 H911 0.959 . S
C913 H912 0.961 . S
C913 H914 0.960 . S
H914 C913 0.960 . S
H915 N895 0.862 . S
O916 Co884 1.920 . S
O916 C889 1.289 . S
C917 O909 1.258 . S
C917 O910 1.266 . S
Co918 O921 1.970 . S
Co918 N935 1.989 . S
Co918 O943 1.967 . S
Co918 O950 1.920 . S
Co919 O922 1.966 . S
Co919 N928 2.022 . S
Co919 N936 1.993 . S
Co919 O944 1.941 . S
C920 O921 1.258 . S
C920 O922 1.263 . S
O921 Co918 1.970 . S
O921 C920 1.258 . S
O922 Co919 1.966 . S
O922 C920 1.263 . S
C923 O924 1.235 . S
C923 O950 1.289 . S
O924 C923 1.235 . S
C925 C927 1.400 . S
C925 N928 1.351 . S
C925 C930 1.501 . S
C926 C927 1.387 . S
C926 N929 1.341 . S
C927 C925 1.400 . S
C927 C926 1.387 . S
N928 Co919 2.022 . S
N928 C925 1.351 . S
N928 N929 1.365 . S
N929 C926 1.341 . S
N929 N928 1.365 . S
N929 H949 0.862 . S
C930 C925 1.501 . S
C930 H931 0.961 . S
C930 H932 0.961 . S
C930 H933 0.960 . S
H931 C930 0.961 . S
H932 C930 0.961 . S
H933 C930 0.960 . S
C934 N935 1.342 . S
C934 C938 1.401 . S
C934 C939 1.499 . S
N935 Co918 1.989 . S
N935 C934 1.342 . S
N935 N936 1.388 . S
N936 Co919 1.993 . S
N936 N935 1.388 . S
N936 C937 1.346 . S
C937 N936 1.346 . S
C937 C938 1.396 . S
C937 C947 1.510 . S
C938 C934 1.401 . S
C938 C937 1.396 . S
C939 C934 1.499 . S
C939 H940 0.959 . S
C939 H941 0.960 . S
C939 H942 0.961 . S
H940 C939 0.959 . S
H941 C939 0.960 . S
H942 C939 0.961 . S
O943 Co918 1.967 . S
O943 C951 1.258 . S
O944 Co919 1.941 . S
O944 C951 1.266 . S
H945 C947 0.959 . S
H946 C947 0.961 . S
C947 C937 1.510 . S
C947 H945 0.959 . S
C947 H946 0.961 . S
C947 H948 0.960 . S
H948 C947 0.960 . S
H949 N929 0.862 . S
O950 Co918 1.920 . S
O950 C923 1.289 . S
C951 O943 1.258 . S
C951 O944 1.266 . S
Co952 O955 1.970 . S
Co952 N969 1.989 . S
Co952 O977 1.967 . S
Co952 O984 1.920 . S
Co953 O956 1.966 . S
Co953 N962 2.022 . S
Co953 N970 1.993 . S
Co953 O978 1.941 . S
C954 O955 1.258 . S
C954 O956 1.263 . S
O955 Co952 1.970 . S
O955 C954 1.258 . S
O956 Co953 1.966 . S
O956 C954 1.263 . S
C957 O958 1.235 . S
C957 O984 1.289 . S
O958 C957 1.235 . S
C959 C961 1.400 . S
C959 N962 1.351 . S
C959 C964 1.501 . S
C960 C961 1.387 . S
C960 N963 1.341 . S
C961 C959 1.400 . S
C961 C960 1.387 . S
N962 Co953 2.022 . S
N962 C959 1.351 . S
N962 N963 1.365 . S
N963 C960 1.341 . S
N963 N962 1.365 . S
N963 H983 0.862 . S
C964 C959 1.501 . S
C964 H965 0.961 . S
C964 H966 0.961 . S
C964 H967 0.960 . S
H965 C964 0.961 . S
H966 C964 0.961 . S
H967 C964 0.960 . S
C968 N969 1.342 . S
C968 C972 1.401 . S
C968 C973 1.499 . S
N969 Co952 1.989 . S
N969 C968 1.342 . S
N969 N970 1.388 . S
N970 Co953 1.993 . S
N970 N969 1.388 . S
N970 C971 1.346 . S
C971 N970 1.346 . S
C971 C972 1.396 . S
C971 C981 1.510 . S
C972 C968 1.401 . S
C972 C971 1.396 . S
C973 C968 1.499 . S
C973 H974 0.959 . S
C973 H975 0.960 . S
C973 H976 0.961 . S
H974 C973 0.959 . S
H975 C973 0.960 . S
H976 C973 0.961 . S
O977 Co952 1.967 . S
O977 C985 1.258 . S
O978 Co953 1.941 . S
O978 C985 1.266 . S
H979 C981 0.959 . S
H980 C981 0.961 . S
C981 C971 1.510 . S
C981 H979 0.959 . S
C981 H980 0.961 . S
C981 H982 0.960 . S
H982 C981 0.960 . S
H983 N963 0.862 . S
O984 Co952 1.920 . S
O984 C957 1.289 . S
C985 O977 1.258 . S
C985 O978 1.266 . S
Co986 O989 1.970 . S
Co986 N1003 1.989 . S
Co986 O1011 1.967 . S
Co986 O1018 1.920 . S
Co987 O990 1.966 . S
Co987 N996 2.022 . S
Co987 N1004 1.993 . S
Co987 O1012 1.941 . S
C988 O989 1.258 . S
C988 O990 1.263 . S
O989 Co986 1.970 . S
O989 C988 1.258 . S
O990 Co987 1.966 . S
O990 C988 1.263 . S
C991 O992 1.235 . S
C991 O1018 1.289 . S
O992 C991 1.235 . S
C993 C995 1.400 . S
C993 N996 1.351 . S
C993 C998 1.501 . S
C994 C995 1.387 . S
C994 N997 1.341 . S
C995 C993 1.400 . S
C995 C994 1.387 . S
N996 Co987 2.022 . S
N996 C993 1.351 . S
N996 N997 1.365 . S
N997 C994 1.341 . S
N997 N996 1.365 . S
N997 H1017 0.862 . S
C998 C993 1.501 . S
C998 H999 0.961 . S
C998 H1000 0.961 . S
C998 H1001 0.960 . S
H999 C998 0.961 . S
H1000 C998 0.961 . S
H1001 C998 0.960 . S
C1002 N1003 1.342 . S
C1002 C1006 1.401 . S
C1002 C1007 1.499 . S
N1003 Co986 1.989 . S
N1003 C1002 1.342 . S
N1003 N1004 1.388 . S
N1004 Co987 1.993 . S
N1004 N1003 1.388 . S
N1004 C1005 1.346 . S
C1005 N1004 1.346 . S
C1005 C1006 1.396 . S
C1005 C1015 1.510 . S
C1006 C1002 1.401 . S
C1006 C1005 1.396 . S
C1007 C1002 1.499 . S
C1007 H1008 0.959 . S
C1007 H1009 0.960 . S
C1007 H1010 0.961 . S
H1008 C1007 0.959 . S
H1009 C1007 0.960 . S
H1010 C1007 0.961 . S
O1011 Co986 1.967 . S
O1011 C1019 1.258 . S
O1012 Co987 1.941 . S
O1012 C1019 1.266 . S
H1013 C1015 0.959 . S
H1014 C1015 0.961 . S
C1015 C1005 1.510 . S
C1015 H1013 0.959 . S
C1015 H1014 0.961 . S
C1015 H1016 0.960 . S
H1016 C1015 0.960 . S
H1017 N997 0.862 . S
O1018 Co986 1.920 . S
O1018 C991 1.289 . S
C1019 O1011 1.258 . S
C1019 O1012 1.266 . S
Co1020 O1023 1.970 . S
Co1020 N1037 1.989 . S
Co1020 O1045 1.967 . S
Co1020 O1052 1.920 . S
Co1021 O1024 1.966 . S
Co1021 N1030 2.022 . S
Co1021 N1038 1.993 . S
Co1021 O1046 1.941 . S
C1022 O1023 1.258 . S
C1022 O1024 1.263 . S
O1023 Co1020 1.970 . S
O1023 C1022 1.258 . S
O1024 Co1021 1.966 . S
O1024 C1022 1.263 . S
C1025 O1026 1.235 . S
C1025 O1052 1.289 . S
O1026 C1025 1.235 . S
C1027 C1029 1.400 . S
C1027 N1030 1.351 . S
C1027 C1032 1.501 . S
C1028 C1029 1.387 . S
C1028 N1031 1.341 . S
C1029 C1027 1.400 . S
C1029 C1028 1.387 . S
N1030 Co1021 2.022 . S
N1030 C1027 1.351 . S
N1030 N1031 1.365 . S
N1031 C1028 1.341 . S
N1031 N1030 1.365 . S
N1031 H1051 0.862 . S
C1032 C1027 1.501 . S
C1032 H1033 0.961 . S
C1032 H1034 0.961 . S
C1032 H1035 0.960 . S
H1033 C1032 0.961 . S
H1034 C1032 0.961 . S
H1035 C1032 0.960 . S
C1036 N1037 1.342 . S
C1036 C1040 1.401 . S
C1036 C1041 1.499 . S
N1037 Co1020 1.989 . S
N1037 C1036 1.342 . S
N1037 N1038 1.388 . S
N1038 Co1021 1.993 . S
N1038 N1037 1.388 . S
N1038 C1039 1.346 . S
C1039 N1038 1.346 . S
C1039 C1040 1.396 . S
C1039 C1049 1.510 . S
C1040 C1036 1.401 . S
C1040 C1039 1.396 . S
C1041 C1036 1.499 . S
C1041 H1042 0.959 . S
C1041 H1043 0.960 . S
C1041 H1044 0.961 . S
H1042 C1041 0.959 . S
H1043 C1041 0.960 . S
H1044 C1041 0.961 . S
O1045 Co1020 1.967 . S
O1045 C1053 1.258 . S
O1046 Co1021 1.941 . S
O1046 C1053 1.266 . S
H1047 C1049 0.959 . S
H1048 C1049 0.961 . S
C1049 C1039 1.510 . S
C1049 H1047 0.959 . S
C1049 H1048 0.961 . S
C1049 H1050 0.960 . S
H1050 C1049 0.960 . S
H1051 N1031 0.862 . S
O1052 Co1020 1.920 . S
O1052 C1025 1.289 . S
C1053 O1045 1.258 . S
C1053 O1046 1.266 . S
Co1054 O1057 1.970 . S
Co1054 N1071 1.989 . S
Co1054 O1079 1.967 . S
Co1054 O1086 1.920 . S
Co1055 O1058 1.966 . S
Co1055 N1064 2.022 . S
Co1055 N1072 1.993 . S
Co1055 O1080 1.941 . S
C1056 O1057 1.258 . S
C1056 O1058 1.263 . S
O1057 Co1054 1.970 . S
O1057 C1056 1.258 . S
O1058 Co1055 1.966 . S
O1058 C1056 1.263 . S
C1059 O1060 1.235 . S
C1059 O1086 1.289 . S
O1060 C1059 1.235 . S
C1061 C1063 1.400 . S
C1061 N1064 1.351 . S
C1061 C1066 1.501 . S
C1062 C1063 1.387 . S
C1062 N1065 1.341 . S
C1063 C1061 1.400 . S
C1063 C1062 1.387 . S
N1064 Co1055 2.022 . S
N1064 C1061 1.351 . S
N1064 N1065 1.365 . S
N1065 C1062 1.341 . S
N1065 N1064 1.365 . S
N1065 H1085 0.862 . S
C1066 C1061 1.501 . S
C1066 H1067 0.961 . S
C1066 H1068 0.961 . S
C1066 H1069 0.960 . S
H1067 C1066 0.961 . S
H1068 C1066 0.961 . S
H1069 C1066 0.960 . S
C1070 N1071 1.342 . S
C1070 C1074 1.401 . S
C1070 C1075 1.499 . S
N1071 Co1054 1.989 . S
N1071 C1070 1.342 . S
N1071 N1072 1.388 . S
N1072 Co1055 1.993 . S
N1072 N1071 1.388 . S
N1072 C1073 1.346 . S
C1073 N1072 1.346 . S
C1073 C1074 1.396 . S
C1073 C1083 1.510 . S
C1074 C1070 1.401 . S
C1074 C1073 1.396 . S
C1075 C1070 1.499 . S
C1075 H1076 0.959 . S
C1075 H1077 0.960 . S
C1075 H1078 0.961 . S
H1076 C1075 0.959 . S
H1077 C1075 0.960 . S
H1078 C1075 0.961 . S
O1079 Co1054 1.967 . S
O1079 C1087 1.258 . S
O1080 Co1055 1.941 . S
O1080 C1087 1.266 . S
H1081 C1083 0.959 . S
H1082 C1083 0.961 . S
C1083 C1073 1.510 . S
C1083 H1081 0.959 . S
C1083 H1082 0.961 . S
C1083 H1084 0.960 . S
H1084 C1083 0.960 . S
H1085 N1065 0.862 . S
O1086 Co1054 1.920 . S
O1086 C1059 1.289 . S
C1087 O1079 1.258 . S
C1087 O1080 1.266 . S
H1088 C1096 0.950 . S
H1089 C1101 0.950 . S
H1090 C1098 0.950 . S
H1091 C1100 0.950 . S
H1092 C1102 0.950 . S
H1093 C1104 0.950 . S
H1094 C1106 0.950 . S
H1095 C1107 0.950 . S
C1096 H1088 0.950 . S
C1096 C1097 1.386 . S
C1096 C1098 1.391 . S
C1097 C1096 1.386 . S
C1097 C1101 1.393 . S
C1098 H1090 0.950 . S
C1098 C1096 1.391 . S
C1098 C1099 1.400 . S
C1099 C1098 1.400 . S
C1099 C1100 1.398 . S
C1099 C1105 1.491 . S
C1100 H1091 0.950 . S
C1100 C1099 1.398 . S
C1100 C1101 1.391 . S
C1101 H1089 0.950 . S
C1101 C1097 1.393 . S
C1101 C1100 1.391 . S
C1102 H1092 0.950 . S
C1102 C1103 1.386 . S
C1102 C1104 1.391 . S
C1103 C1102 1.386 . S
C1103 C1107 1.393 . S
C1104 H1093 0.950 . S
C1104 C1102 1.391 . S
C1104 C1105 1.400 . S
C1105 C1099 1.491 . S
C1105 C1104 1.400 . S
C1105 C1106 1.398 . S
C1106 H1094 0.950 . S
C1106 C1105 1.398 . S
C1106 C1107 1.391 . S
C1107 H1095 0.950 . S
C1107 C1103 1.393 . S
C1107 C1106 1.391 . S
H1108 C1116 0.950 . S
H1109 C1121 0.950 . S
H1110 C1118 0.950 . S
H1111 C1120 0.950 . S
H1112 C1122 0.950 . S
H1113 C1124 0.950 . S
H1114 C1126 0.950 . S
H1115 C1127 0.950 . S
C1116 H1108 0.950 . S
C1116 C1117 1.386 . S
C1116 C1118 1.391 . S
C1117 C1116 1.386 . S
C1117 C1121 1.393 . S
C1118 H1110 0.950 . S
C1118 C1116 1.391 . S
C1118 C1119 1.400 . S
C1119 C1118 1.400 . S
C1119 C1120 1.398 . S
C1119 C1125 1.491 . S
C1120 H1111 0.950 . S
C1120 C1119 1.398 . S
C1120 C1121 1.391 . S
C1121 H1109 0.950 . S
C1121 C1117 1.393 . S
C1121 C1120 1.391 . S
C1122 H1112 0.950 . S
C1122 C1123 1.386 . S
C1122 C1124 1.391 . S
C1123 C1122 1.386 . S
C1123 C1127 1.393 . S
C1124 H1113 0.950 . S
C1124 C1122 1.391 . S
C1124 C1125 1.400 . S
C1125 C1119 1.491 . S
C1125 C1124 1.400 . S
C1125 C1126 1.398 . S
C1126 H1114 0.950 . S
C1126 C1125 1.398 . S
C1126 C1127 1.391 . S
C1127 H1115 0.950 . S
C1127 C1123 1.393 . S
C1127 C1126 1.391 . S
H1128 C1136 0.950 . S
H1129 C1141 0.950 . S
H1130 C1138 0.950 . S
H1131 C1140 0.950 . S
H1132 C1142 0.950 . S
H1133 C1144 0.950 . S
H1134 C1146 0.950 . S
H1135 C1147 0.950 . S
C1136 H1128 0.950 . S
C1136 C1137 1.386 . S
C1136 C1138 1.391 . S
C1137 C1136 1.386 . S
C1137 C1141 1.393 . S
C1138 H1130 0.950 . S
C1138 C1136 1.391 . S
C1138 C1139 1.400 . S
C1139 C1138 1.400 . S
C1139 C1140 1.398 . S
C1139 C1145 1.491 . S
C1140 H1131 0.950 . S
C1140 C1139 1.398 . S
C1140 C1141 1.391 . S
C1141 H1129 0.950 . S
C1141 C1137 1.393 . S
C1141 C1140 1.391 . S
C1142 H1132 0.950 . S
C1142 C1143 1.386 . S
C1142 C1144 1.391 . S
C1143 C1142 1.386 . S
C1143 C1147 1.393 . S
C1144 H1133 0.950 . S
C1144 C1142 1.391 . S
C1144 C1145 1.400 . S
C1145 C1139 1.491 . S
C1145 C1144 1.400 . S
C1145 C1146 1.398 . S
C1146 H1134 0.950 . S
C1146 C1145 1.398 . S
C1146 C1147 1.391 . S
C1147 H1135 0.950 . S
C1147 C1143 1.393 . S
C1147 C1146 1.391 . S
H1148 C1156 0.950 . S
H1149 C1161 0.950 . S
H1150 C1158 0.950 . S
H1151 C1160 0.950 . S
H1152 C1162 0.950 . S
H1153 C1164 0.950 . S
H1154 C1166 0.950 . S
H1155 C1167 0.950 . S
C1156 H1148 0.950 . S
C1156 C1157 1.386 . S
C1156 C1158 1.391 . S
C1157 C1156 1.386 . S
C1157 C1161 1.393 . S
C1158 H1150 0.950 . S
C1158 C1156 1.391 . S
C1158 C1159 1.400 . S
C1159 C1158 1.400 . S
C1159 C1160 1.398 . S
C1159 C1165 1.491 . S
C1160 H1151 0.950 . S
C1160 C1159 1.398 . S
C1160 C1161 1.391 . S
C1161 H1149 0.950 . S
C1161 C1157 1.393 . S
C1161 C1160 1.391 . S
C1162 H1152 0.950 . S
C1162 C1163 1.386 . S
C1162 C1164 1.391 . S
C1163 C1162 1.386 . S
C1163 C1167 1.393 . S
C1164 H1153 0.950 . S
C1164 C1162 1.391 . S
C1164 C1165 1.400 . S
C1165 C1159 1.491 . S
C1165 C1164 1.400 . S
C1165 C1166 1.398 . S
C1166 H1154 0.950 . S
C1166 C1165 1.398 . S
C1166 C1167 1.391 . S
C1167 H1155 0.950 . S
C1167 C1163 1.393 . S
C1167 C1166 1.391 . S
H1168 C1176 0.950 . S
H1169 C1181 0.950 . S
H1170 C1178 0.950 . S
H1171 C1180 0.950 . S
H1172 C1182 0.950 . S
H1173 C1184 0.950 . S
H1174 C1186 0.950 . S
H1175 C1187 0.950 . S
C1176 H1168 0.950 . S
C1176 C1177 1.386 . S
C1176 C1178 1.391 . S
C1177 C1176 1.386 . S
C1177 C1181 1.393 . S
C1178 H1170 0.950 . S
C1178 C1176 1.391 . S
C1178 C1179 1.400 . S
C1179 C1178 1.400 . S
C1179 C1180 1.398 . S
C1179 C1185 1.491 . S
C1180 H1171 0.950 . S
C1180 C1179 1.398 . S
C1180 C1181 1.391 . S
C1181 H1169 0.950 . S
C1181 C1177 1.393 . S
C1181 C1180 1.391 . S
C1182 H1172 0.950 . S
C1182 C1183 1.386 . S
C1182 C1184 1.391 . S
C1183 C1182 1.386 . S
C1183 C1187 1.393 . S
C1184 H1173 0.950 . S
C1184 C1182 1.391 . S
C1184 C1185 1.400 . S
C1185 C1179 1.491 . S
C1185 C1184 1.400 . S
C1185 C1186 1.398 . S
C1186 H1174 0.950 . S
C1186 C1185 1.398 . S
C1186 C1187 1.391 . S
C1187 H1175 0.950 . S
C1187 C1183 1.393 . S
C1187 C1186 1.391 . S
H1188 C1196 0.950 . S
H1189 C1201 0.950 . S
H1190 C1198 0.950 . S
H1191 C1200 0.950 . S
H1192 C1202 0.950 . S
H1193 C1204 0.950 . S
H1194 C1206 0.950 . S
H1195 C1207 0.950 . S
C1196 H1188 0.950 . S
C1196 C1197 1.386 . S
C1196 C1198 1.391 . S
C1197 C1196 1.386 . S
C1197 C1201 1.393 . S
C1198 H1190 0.950 . S
C1198 C1196 1.391 . S
C1198 C1199 1.400 . S
C1199 C1198 1.400 . S
C1199 C1200 1.398 . S
C1199 C1205 1.491 . S
C1200 H1191 0.950 . S
C1200 C1199 1.398 . S
C1200 C1201 1.391 . S
C1201 H1189 0.950 . S
C1201 C1197 1.393 . S
C1201 C1200 1.391 . S
C1202 H1192 0.950 . S
C1202 C1203 1.386 . S
C1202 C1204 1.391 . S
C1203 C1202 1.386 . S
C1203 C1207 1.393 . S
C1204 H1193 0.950 . S
C1204 C1202 1.391 . S
C1204 C1205 1.400 . S
C1205 C1199 1.491 . S
C1205 C1204 1.400 . S
C1205 C1206 1.398 . S
C1206 H1194 0.950 . S
C1206 C1205 1.398 . S
C1206 C1207 1.391 . S
C1207 H1195 0.950 . S
C1207 C1203 1.393 . S
C1207 C1206 1.391 . S
H1208 C1216 0.950 . S
H1209 C1221 0.950 . S
H1210 C1218 0.950 . S
H1211 C1220 0.950 . S
H1212 C1222 0.950 . S
H1213 C1224 0.950 . S
H1214 C1226 0.950 . S
H1215 C1227 0.950 . S
C1216 H1208 0.950 . S
C1216 C1217 1.386 . S
C1216 C1218 1.391 . S
C1217 C1216 1.386 . S
C1217 C1221 1.393 . S
C1218 H1210 0.950 . S
C1218 C1216 1.391 . S
C1218 C1219 1.400 . S
C1219 C1218 1.400 . S
C1219 C1220 1.398 . S
C1219 C1225 1.491 . S
C1220 H1211 0.950 . S
C1220 C1219 1.398 . S
C1220 C1221 1.391 . S
C1221 H1209 0.950 . S
C1221 C1217 1.393 . S
C1221 C1220 1.391 . S
C1222 H1212 0.950 . S
C1222 C1223 1.386 . S
C1222 C1224 1.391 . S
C1223 C1222 1.386 . S
C1223 C1227 1.393 . S
C1224 H1213 0.950 . S
C1224 C1222 1.391 . S
C1224 C1225 1.400 . S
C1225 C1219 1.491 . S
C1225 C1224 1.400 . S
C1225 C1226 1.398 . S
C1226 H1214 0.950 . S
C1226 C1225 1.398 . S
C1226 C1227 1.391 . S
C1227 H1215 0.950 . S
C1227 C1223 1.393 . S
C1227 C1226 1.391 . S
H1228 C1236 0.950 . S
H1229 C1241 0.950 . S
H1230 C1238 0.950 . S
H1231 C1240 0.950 . S
H1232 C1242 0.950 . S
H1233 C1244 0.950 . S
H1234 C1246 0.950 . S
H1235 C1247 0.950 . S
C1236 H1228 0.950 . S
C1236 C1237 1.386 . S
C1236 C1238 1.391 . S
C1237 C1236 1.386 . S
C1237 C1241 1.393 . S
C1238 H1230 0.950 . S
C1238 C1236 1.391 . S
C1238 C1239 1.400 . S
C1239 C1238 1.400 . S
C1239 C1240 1.398 . S
C1239 C1245 1.491 . S
C1240 H1231 0.950 . S
C1240 C1239 1.398 . S
C1240 C1241 1.391 . S
C1241 H1229 0.950 . S
C1241 C1237 1.393 . S
C1241 C1240 1.391 . S
C1242 H1232 0.950 . S
C1242 C1243 1.386 . S
C1242 C1244 1.391 . S
C1243 C1242 1.386 . S
C1243 C1247 1.393 . S
C1244 H1233 0.950 . S
C1244 C1242 1.391 . S
C1244 C1245 1.400 . S
C1245 C1239 1.491 . S
C1245 C1244 1.400 . S
C1245 C1246 1.398 . S
C1246 H1234 0.950 . S
C1246 C1245 1.398 . S
C1246 C1247 1.391 . S
C1247 H1235 0.950 . S
C1247 C1243 1.393 . S
C1247 C1246 1.391 . S
H1248 C1256 0.950 . S
H1249 C1261 0.950 . S
H1250 C1258 0.950 . S
H1251 C1260 0.950 . S
H1252 C1262 0.950 . S
H1253 C1264 0.950 . S
H1254 C1266 0.950 . S
H1255 C1267 0.950 . S
C1256 H1248 0.950 . S
C1256 C1257 1.386 . S
C1256 C1258 1.391 . S
C1257 C1256 1.386 . S
C1257 C1261 1.393 . S
C1258 H1250 0.950 . S
C1258 C1256 1.391 . S
C1258 C1259 1.400 . S
C1259 C1258 1.400 . S
C1259 C1260 1.398 . S
C1259 C1265 1.491 . S
C1260 H1251 0.950 . S
C1260 C1259 1.398 . S
C1260 C1261 1.391 . S
C1261 H1249 0.950 . S
C1261 C1257 1.393 . S
C1261 C1260 1.391 . S
C1262 H1252 0.950 . S
C1262 C1263 1.386 . S
C1262 C1264 1.391 . S
C1263 C1262 1.386 . S
C1263 C1267 1.393 . S
C1264 H1253 0.950 . S
C1264 C1262 1.391 . S
C1264 C1265 1.400 . S
C1265 C1259 1.491 . S
C1265 C1264 1.400 . S
C1265 C1266 1.398 . S
C1266 H1254 0.950 . S
C1266 C1265 1.398 . S
C1266 C1267 1.391 . S
C1267 H1255 0.950 . S
C1267 C1263 1.393 . S
C1267 C1266 1.391 . S
H1268 C1276 0.950 . S
H1269 C1281 0.950 . S
H1270 C1278 0.950 . S
H1271 C1280 0.950 . S
H1272 C1282 0.950 . S
H1273 C1284 0.950 . S
H1274 C1286 0.950 . S
H1275 C1287 0.950 . S
C1276 H1268 0.950 . S
C1276 C1277 1.386 . S
C1276 C1278 1.391 . S
C1277 C1276 1.386 . S
C1277 C1281 1.393 . S
C1278 H1270 0.950 . S
C1278 C1276 1.391 . S
C1278 C1279 1.400 . S
C1279 C1278 1.400 . S
C1279 C1280 1.398 . S
C1279 C1285 1.491 . S
C1280 H1271 0.950 . S
C1280 C1279 1.398 . S
C1280 C1281 1.391 . S
C1281 H1269 0.950 . S
C1281 C1277 1.393 . S
C1281 C1280 1.391 . S
C1282 H1272 0.950 . S
C1282 C1283 1.386 . S
C1282 C1284 1.391 . S
C1283 C1282 1.386 . S
C1283 C1287 1.393 . S
C1284 H1273 0.950 . S
C1284 C1282 1.391 . S
C1284 C1285 1.400 . S
C1285 C1279 1.491 . S
C1285 C1284 1.400 . S
C1285 C1286 1.398 . S
C1286 H1274 0.950 . S
C1286 C1285 1.398 . S
C1286 C1287 1.391 . S
C1287 H1275 0.950 . S
C1287 C1283 1.393 . S
C1287 C1286 1.391 . S
H1288 C1296 0.950 . S
H1289 C1301 0.950 . S
H1290 C1298 0.950 . S
H1291 C1300 0.950 . S
H1292 C1302 0.950 . S
H1293 C1304 0.950 . S
H1294 C1306 0.950 . S
H1295 C1307 0.950 . S
C1296 H1288 0.950 . S
C1296 C1297 1.386 . S
C1296 C1298 1.391 . S
C1297 C1296 1.386 . S
C1297 C1301 1.393 . S
C1298 H1290 0.950 . S
C1298 C1296 1.391 . S
C1298 C1299 1.400 . S
C1299 C1298 1.400 . S
C1299 C1300 1.398 . S
C1299 C1305 1.491 . S
C1300 H1291 0.950 . S
C1300 C1299 1.398 . S
C1300 C1301 1.391 . S
C1301 H1289 0.950 . S
C1301 C1297 1.393 . S
C1301 C1300 1.391 . S
C1302 H1292 0.950 . S
C1302 C1303 1.386 . S
C1302 C1304 1.391 . S
C1303 C1302 1.386 . S
C1303 C1307 1.393 . S
C1304 H1293 0.950 . S
C1304 C1302 1.391 . S
C1304 C1305 1.400 . S
C1305 C1299 1.491 . S
C1305 C1304 1.400 . S
C1305 C1306 1.398 . S
C1306 H1294 0.950 . S
C1306 C1305 1.398 . S
C1306 C1307 1.391 . S
C1307 H1295 0.950 . S
C1307 C1303 1.393 . S
C1307 C1306 1.391 . S
H1308 C1316 0.950 . S
H1309 C1321 0.950 . S
H1310 C1318 0.950 . S
H1311 C1320 0.950 . S
H1312 C1322 0.950 . S
H1313 C1324 0.950 . S
H1314 C1326 0.950 . S
H1315 C1327 0.950 . S
C1316 H1308 0.950 . S
C1316 C1317 1.386 . S
C1316 C1318 1.391 . S
C1317 C1316 1.386 . S
C1317 C1321 1.393 . S
C1318 H1310 0.950 . S
C1318 C1316 1.391 . S
C1318 C1319 1.400 . S
C1319 C1318 1.400 . S
C1319 C1320 1.398 . S
C1319 C1325 1.491 . S
C1320 H1311 0.950 . S
C1320 C1319 1.398 . S
C1320 C1321 1.391 . S
C1321 H1309 0.950 . S
C1321 C1317 1.393 . S
C1321 C1320 1.391 . S
C1322 H1312 0.950 . S
C1322 C1323 1.386 . S
C1322 C1324 1.391 . S
C1323 C1322 1.386 . S
C1323 C1327 1.393 . S
C1324 H1313 0.950 . S
C1324 C1322 1.391 . S
C1324 C1325 1.400 . S
C1325 C1319 1.491 . S
C1325 C1324 1.400 . S
C1325 C1326 1.398 . S
C1326 H1314 0.950 . S
C1326 C1325 1.398 . S
C1326 C1327 1.391 . S
C1327 H1315 0.950 . S
C1327 C1323 1.393 . S
C1327 C1326 1.391 . S
H1328 C1336 0.950 . S
H1329 C1341 0.950 . S
H1330 C1338 0.950 . S
H1331 C1340 0.950 . S
H1332 C1342 0.950 . S
H1333 C1344 0.950 . S
H1334 C1346 0.950 . S
H1335 C1347 0.950 . S
C1336 H1328 0.950 . S
C1336 C1337 1.386 . S
C1336 C1338 1.391 . S
C1337 C1336 1.386 . S
C1337 C1341 1.393 . S
C1338 H1330 0.950 . S
C1338 C1336 1.391 . S
C1338 C1339 1.400 . S
C1339 C1338 1.400 . S
C1339 C1340 1.398 . S
C1339 C1345 1.491 . S
C1340 H1331 0.950 . S
C1340 C1339 1.398 . S
C1340 C1341 1.391 . S
C1341 H1329 0.950 . S
C1341 C1337 1.393 . S
C1341 C1340 1.391 . S
C1342 H1332 0.950 . S
C1342 C1343 1.386 . S
C1342 C1344 1.391 . S
C1343 C1342 1.386 . S
C1343 C1347 1.393 . S
C1344 H1333 0.950 . S
C1344 C1342 1.391 . S
C1344 C1345 1.400 . S
C1345 C1339 1.491 . S
C1345 C1344 1.400 . S
C1345 C1346 1.398 . S
C1346 H1334 0.950 . S
C1346 C1345 1.398 . S
C1346 C1347 1.391 . S
C1347 H1335 0.950 . S
C1347 C1343 1.393 . S
C1347 C1346 1.391 . S
H1348 C1356 0.950 . S
H1349 C1361 0.950 . S
H1350 C1358 0.950 . S
H1351 C1360 0.950 . S
H1352 C1362 0.950 . S
H1353 C1364 0.950 . S
H1354 C1366 0.950 . S
H1355 C1367 0.950 . S
C1356 H1348 0.950 . S
C1356 C1357 1.386 . S
C1356 C1358 1.391 . S
C1357 C1356 1.386 . S
C1357 C1361 1.393 . S
C1358 H1350 0.950 . S
C1358 C1356 1.391 . S
C1358 C1359 1.400 . S
C1359 C1358 1.400 . S
C1359 C1360 1.398 . S
C1359 C1365 1.491 . S
C1360 H1351 0.950 . S
C1360 C1359 1.398 . S
C1360 C1361 1.391 . S
C1361 H1349 0.950 . S
C1361 C1357 1.393 . S
C1361 C1360 1.391 . S
C1362 H1352 0.950 . S
C1362 C1363 1.386 . S
C1362 C1364 1.391 . S
C1363 C1362 1.386 . S
C1363 C1367 1.393 . S
C1364 H1353 0.950 . S
C1364 C1362 1.391 . S
C1364 C1365 1.400 . S
C1365 C1359 1.491 . S
C1365 C1364 1.400 . S
C1365 C1366 1.398 . S
C1366 H1354 0.950 . S
C1366 C1365 1.398 . S
C1366 C1367 1.391 . S
C1367 H1355 0.950 . S
C1367 C1363 1.393 . S
C1367 C1366 1.391 . S
H1368 C1376 0.950 . S
H1369 C1381 0.950 . S
H1370 C1378 0.950 . S
H1371 C1380 0.950 . S
H1372 C1382 0.950 . S
H1373 C1384 0.950 . S
H1374 C1386 0.950 . S
H1375 C1387 0.950 . S
C1376 H1368 0.950 . S
C1376 C1377 1.386 . S
C1376 C1378 1.391 . S
C1377 C1376 1.386 . S
C1377 C1381 1.393 . S
C1378 H1370 0.950 . S
C1378 C1376 1.391 . S
C1378 C1379 1.400 . S
C1379 C1378 1.400 . S
C1379 C1380 1.398 . S
C1379 C1385 1.491 . S
C1380 H1371 0.950 . S
C1380 C1379 1.398 . S
C1380 C1381 1.391 . S
C1381 H1369 0.950 . S
C1381 C1377 1.393 . S
C1381 C1380 1.391 . S
C1382 H1372 0.950 . S
C1382 C1383 1.386 . S
C1382 C1384 1.391 . S
C1383 C1382 1.386 . S
C1383 C1387 1.393 . S
C1384 H1373 0.950 . S
C1384 C1382 1.391 . S
C1384 C1385 1.400 . S
C1385 C1379 1.491 . S
C1385 C1384 1.400 . S
C1385 C1386 1.398 . S
C1386 H1374 0.950 . S
C1386 C1385 1.398 . S
C1386 C1387 1.391 . S
C1387 H1375 0.950 . S
C1387 C1383 1.393 . S
C1387 C1386 1.391 . S
H1388 C1396 0.950 . S
H1389 C1401 0.950 . S
H1390 C1398 0.950 . S
H1391 C1400 0.950 . S
H1392 C1402 0.950 . S
H1393 C1404 0.950 . S
H1394 C1406 0.950 . S
H1395 C1407 0.950 . S
C1396 H1388 0.950 . S
C1396 C1397 1.386 . S
C1396 C1398 1.391 . S
C1397 C1396 1.386 . S
C1397 C1401 1.393 . S
C1398 H1390 0.950 . S
C1398 C1396 1.391 . S
C1398 C1399 1.400 . S
C1399 C1398 1.400 . S
C1399 C1400 1.398 . S
C1399 C1405 1.491 . S
C1400 H1391 0.950 . S
C1400 C1399 1.398 . S
C1400 C1401 1.391 . S
C1401 H1389 0.950 . S
C1401 C1397 1.393 . S
C1401 C1400 1.391 . S
C1402 H1392 0.950 . S
C1402 C1403 1.386 . S
C1402 C1404 1.391 . S
C1403 C1402 1.386 . S
C1403 C1407 1.393 . S
C1404 H1393 0.950 . S
C1404 C1402 1.391 . S
C1404 C1405 1.400 . S
C1405 C1399 1.491 . S
C1405 C1404 1.400 . S
C1405 C1406 1.398 . S
C1406 H1394 0.950 . S
C1406 C1405 1.398 . S
C1406 C1407 1.391 . S
C1407 H1395 0.950 . S
C1407 C1403 1.393 . S
C1407 C1406 1.391 . S
H1408 C1416 0.950 . S
H1409 C1421 0.950 . S
H1410 C1418 0.950 . S
H1411 C1420 0.950 . S
H1412 C1422 0.950 . S
H1413 C1424 0.950 . S
H1414 C1426 0.950 . S
H1415 C1427 0.950 . S
C1416 H1408 0.950 . S
C1416 C1417 1.386 . S
C1416 C1418 1.391 . S
C1417 C1416 1.386 . S
C1417 C1421 1.393 . S
C1418 H1410 0.950 . S
C1418 C1416 1.391 . S
C1418 C1419 1.400 . S
C1419 C1418 1.400 . S
C1419 C1420 1.398 . S
C1419 C1425 1.491 . S
C1420 H1411 0.950 . S
C1420 C1419 1.398 . S
C1420 C1421 1.391 . S
C1421 H1409 0.950 . S
C1421 C1417 1.393 . S
C1421 C1420 1.391 . S
C1422 H1412 0.950 . S
C1422 C1423 1.386 . S
C1422 C1424 1.391 . S
C1423 C1422 1.386 . S
C1423 C1427 1.393 . S
C1424 H1413 0.950 . S
C1424 C1422 1.391 . S
C1424 C1425 1.400 . S
C1425 C1419 1.491 . S
C1425 C1424 1.400 . S
C1425 C1426 1.398 . S
C1426 H1414 0.950 . S
C1426 C1425 1.398 . S
C1426 C1427 1.391 . S
C1427 H1415 0.950 . S
C1427 C1423 1.393 . S
C1427 C1426 1.391 . S
H1428 C1436 0.950 . S
H1429 C1441 0.950 . S
H1430 C1438 0.950 . S
H1431 C1440 0.950 . S
H1432 C1442 0.950 . S
H1433 C1444 0.950 . S
H1434 C1446 0.950 . S
H1435 C1447 0.950 . S
C1436 H1428 0.950 . S
C1436 C1437 1.386 . S
C1436 C1438 1.391 . S
C1437 C1436 1.386 . S
C1437 C1441 1.393 . S
C1438 H1430 0.950 . S
C1438 C1436 1.391 . S
C1438 C1439 1.400 . S
C1439 C1438 1.400 . S
C1439 C1440 1.398 . S
C1439 C1445 1.491 . S
C1440 H1431 0.950 . S
C1440 C1439 1.398 . S
C1440 C1441 1.391 . S
C1441 H1429 0.950 . S
C1441 C1437 1.393 . S
C1441 C1440 1.391 . S
C1442 H1432 0.950 . S
C1442 C1443 1.386 . S
C1442 C1444 1.391 . S
C1443 C1442 1.386 . S
C1443 C1447 1.393 . S
C1444 H1433 0.950 . S
C1444 C1442 1.391 . S
C1444 C1445 1.400 . S
C1445 C1439 1.491 . S
C1445 C1444 1.400 . S
C1445 C1446 1.398 . S
C1446 H1434 0.950 . S
C1446 C1445 1.398 . S
C1446 C1447 1.391 . S
C1447 H1435 0.950 . S
C1447 C1443 1.393 . S
C1447 C1446 1.391 . S
H1448 C1456 0.950 . S
H1449 C1461 0.950 . S
H1450 C1458 0.950 . S
H1451 C1460 0.950 . S
H1452 C1462 0.950 . S
H1453 C1464 0.950 . S
H1454 C1466 0.950 . S
H1455 C1467 0.950 . S
C1456 H1448 0.950 . S
C1456 C1457 1.386 . S
C1456 C1458 1.391 . S
C1457 C1456 1.386 . S
C1457 C1461 1.393 . S
C1458 H1450 0.950 . S
C1458 C1456 1.391 . S
C1458 C1459 1.400 . S
C1459 C1458 1.400 . S
C1459 C1460 1.398 . S
C1459 C1465 1.491 . S
C1460 H1451 0.950 . S
C1460 C1459 1.398 . S
C1460 C1461 1.391 . S
C1461 H1449 0.950 . S
C1461 C1457 1.393 . S
C1461 C1460 1.391 . S
C1462 H1452 0.950 . S
C1462 C1463 1.386 . S
C1462 C1464 1.391 . S
C1463 C1462 1.386 . S
C1463 C1467 1.393 . S
C1464 H1453 0.950 . S
C1464 C1462 1.391 . S
C1464 C1465 1.400 . S
C1465 C1459 1.491 . S
C1465 C1464 1.400 . S
C1465 C1466 1.398 . S
C1466 H1454 0.950 . S
C1466 C1465 1.398 . S
C1466 C1467 1.391 . S
C1467 H1455 0.950 . S
C1467 C1463 1.393 . S
C1467 C1466 1.391 . S
H1468 C1476 0.950 . S
H1469 C1481 0.950 . S
H1470 C1478 0.950 . S
H1471 C1480 0.950 . S
H1472 C1482 0.950 . S
H1473 C1484 0.950 . S
H1474 C1486 0.950 . S
H1475 C1487 0.950 . S
C1476 H1468 0.950 . S
C1476 C1477 1.386 . S
C1476 C1478 1.391 . S
C1477 C1476 1.386 . S
C1477 C1481 1.393 . S
C1478 H1470 0.950 . S
C1478 C1476 1.391 . S
C1478 C1479 1.400 . S
C1479 C1478 1.400 . S
C1479 C1480 1.398 . S
C1479 C1485 1.491 . S
C1480 H1471 0.950 . S
C1480 C1479 1.398 . S
C1480 C1481 1.391 . S
C1481 H1469 0.950 . S
C1481 C1477 1.393 . S
C1481 C1480 1.391 . S
C1482 H1472 0.950 . S
C1482 C1483 1.386 . S
C1482 C1484 1.391 . S
C1483 C1482 1.386 . S
C1483 C1487 1.393 . S
C1484 H1473 0.950 . S
C1484 C1482 1.391 . S
C1484 C1485 1.400 . S
C1485 C1479 1.491 . S
C1485 C1484 1.400 . S
C1485 C1486 1.398 . S
C1486 H1474 0.950 . S
C1486 C1485 1.398 . S
C1486 C1487 1.391 . S
C1487 H1475 0.950 . S
C1487 C1483 1.393 . S
C1487 C1486 1.391 . S
H1488 C1496 0.950 . S
H1489 C1501 0.950 . S
H1490 C1498 0.950 . S
H1491 C1500 0.950 . S
H1492 C1502 0.950 . S
H1493 C1504 0.950 . S
H1494 C1506 0.950 . S
H1495 C1507 0.950 . S
C1496 H1488 0.950 . S
C1496 C1497 1.386 . S
C1496 C1498 1.391 . S
C1497 C1496 1.386 . S
C1497 C1501 1.393 . S
C1498 H1490 0.950 . S
C1498 C1496 1.391 . S
C1498 C1499 1.400 . S
C1499 C1498 1.400 . S
C1499 C1500 1.398 . S
C1499 C1505 1.491 . S
C1500 H1491 0.950 . S
C1500 C1499 1.398 . S
C1500 C1501 1.391 . S
C1501 H1489 0.950 . S
C1501 C1497 1.393 . S
C1501 C1500 1.391 . S
C1502 H1492 0.950 . S
C1502 C1503 1.386 . S
C1502 C1504 1.391 . S
C1503 C1502 1.386 . S
C1503 C1507 1.393 . S
C1504 H1493 0.950 . S
C1504 C1502 1.391 . S
C1504 C1505 1.400 . S
C1505 C1499 1.491 . S
C1505 C1504 1.400 . S
C1505 C1506 1.398 . S
C1506 H1494 0.950 . S
C1506 C1505 1.398 . S
C1506 C1507 1.391 . S
C1507 H1495 0.950 . S
C1507 C1503 1.393 . S
C1507 C1506 1.391 . S
H1508 C1516 0.950 . S
H1509 C1521 0.950 . S
H1510 C1518 0.950 . S
H1511 C1520 0.950 . S
H1512 C1522 0.950 . S
H1513 C1524 0.950 . S
H1514 C1526 0.950 . S
H1515 C1527 0.950 . S
C1516 H1508 0.950 . S
C1516 C1517 1.386 . S
C1516 C1518 1.391 . S
C1517 C1516 1.386 . S
C1517 C1521 1.393 . S
C1518 H1510 0.950 . S
C1518 C1516 1.391 . S
C1518 C1519 1.400 . S
C1519 C1518 1.400 . S
C1519 C1520 1.398 . S
C1519 C1525 1.491 . S
C1520 H1511 0.950 . S
C1520 C1519 1.398 . S
C1520 C1521 1.391 . S
C1521 H1509 0.950 . S
C1521 C1517 1.393 . S
C1521 C1520 1.391 . S
C1522 H1512 0.950 . S
C1522 C1523 1.386 . S
C1522 C1524 1.391 . S
C1523 C1522 1.386 . S
C1523 C1527 1.393 . S
C1524 H1513 0.950 . S
C1524 C1522 1.391 . S
C1524 C1525 1.400 . S
C1525 C1519 1.491 . S
C1525 C1524 1.400 . S
C1525 C1526 1.398 . S
C1526 H1514 0.950 . S
C1526 C1525 1.398 . S
C1526 C1527 1.391 . S
C1527 H1515 0.950 . S
C1527 C1523 1.393 . S
C1527 C1526 1.391 . S
H1528 C1536 0.950 . S
H1529 C1541 0.950 . S
H1530 C1538 0.950 . S
H1531 C1540 0.950 . S
H1532 C1542 0.950 . S
H1533 C1544 0.950 . S
H1534 C1546 0.950 . S
H1535 C1547 0.950 . S
C1536 H1528 0.950 . S
C1536 C1537 1.386 . S
C1536 C1538 1.391 . S
C1537 C1536 1.386 . S
C1537 C1541 1.393 . S
C1538 H1530 0.950 . S
C1538 C1536 1.391 . S
C1538 C1539 1.400 . S
C1539 C1538 1.400 . S
C1539 C1540 1.398 . S
C1539 C1545 1.491 . S
C1540 H1531 0.950 . S
C1540 C1539 1.398 . S
C1540 C1541 1.391 . S
C1541 H1529 0.950 . S
C1541 C1537 1.393 . S
C1541 C1540 1.391 . S
C1542 H1532 0.950 . S
C1542 C1543 1.386 . S
C1542 C1544 1.391 . S
C1543 C1542 1.386 . S
C1543 C1547 1.393 . S
C1544 H1533 0.950 . S
C1544 C1542 1.391 . S
C1544 C1545 1.400 . S
C1545 C1539 1.491 . S
C1545 C1544 1.400 . S
C1545 C1546 1.398 . S
C1546 H1534 0.950 . S
C1546 C1545 1.398 . S
C1546 C1547 1.391 . S
C1547 H1535 0.950 . S
C1547 C1543 1.393 . S
C1547 C1546 1.391 . S
H1548 C1556 0.950 . S
H1549 C1561 0.950 . S
H1550 C1558 0.950 . S
H1551 C1560 0.950 . S
H1552 C1562 0.950 . S
H1553 C1564 0.950 . S
H1554 C1566 0.950 . S
H1555 C1567 0.950 . S
C1556 H1548 0.950 . S
C1556 C1557 1.386 . S
C1556 C1558 1.391 . S
C1557 C1556 1.386 . S
C1557 C1561 1.393 . S
C1558 H1550 0.950 . S
C1558 C1556 1.391 . S
C1558 C1559 1.400 . S
C1559 C1558 1.400 . S
C1559 C1560 1.398 . S
C1559 C1565 1.491 . S
C1560 H1551 0.950 . S
C1560 C1559 1.398 . S
C1560 C1561 1.391 . S
C1561 H1549 0.950 . S
C1561 C1557 1.393 . S
C1561 C1560 1.391 . S
C1562 H1552 0.950 . S
C1562 C1563 1.386 . S
C1562 C1564 1.391 . S
C1563 C1562 1.386 . S
C1563 C1567 1.393 . S
C1564 H1553 0.950 . S
C1564 C1562 1.391 . S
C1564 C1565 1.400 . S
C1565 C1559 1.491 . S
C1565 C1564 1.400 . S
C1565 C1566 1.398 . S
C1566 H1554 0.950 . S
C1566 C1565 1.398 . S
C1566 C1567 1.391 . S
C1567 H1555 0.950 . S
C1567 C1563 1.393 . S
C1567 C1566 1.391 . S
H1568 C1576 0.950 . S
H1569 C1581 0.950 . S
H1570 C1578 0.950 . S
H1571 C1580 0.950 . S
H1572 C1582 0.950 . S
H1573 C1584 0.950 . S
H1574 C1586 0.950 . S
H1575 C1587 0.950 . S
C1576 H1568 0.950 . S
C1576 C1577 1.386 . S
C1576 C1578 1.391 . S
C1577 C1576 1.386 . S
C1577 C1581 1.393 . S
C1578 H1570 0.950 . S
C1578 C1576 1.391 . S
C1578 C1579 1.400 . S
C1579 C1578 1.400 . S
C1579 C1580 1.398 . S
C1579 C1585 1.491 . S
C1580 H1571 0.950 . S
C1580 C1579 1.398 . S
C1580 C1581 1.391 . S
C1581 H1569 0.950 . S
C1581 C1577 1.393 . S
C1581 C1580 1.391 . S
C1582 H1572 0.950 . S
C1582 C1583 1.386 . S
C1582 C1584 1.391 . S
C1583 C1582 1.386 . S
C1583 C1587 1.393 . S
C1584 H1573 0.950 . S
C1584 C1582 1.391 . S
C1584 C1585 1.400 . S
C1585 C1579 1.491 . S
C1585 C1584 1.400 . S
C1585 C1586 1.398 . S
C1586 H1574 0.950 . S
C1586 C1585 1.398 . S
C1586 C1587 1.391 . S
C1587 H1575 0.950 . S
C1587 C1583 1.393 . S
C1587 C1586 1.391 . S
H1588 C1596 0.950 . S
H1589 C1601 0.950 . S
H1590 C1598 0.950 . S
H1591 C1600 0.950 . S
H1592 C1602 0.950 . S
H1593 C1604 0.950 . S
H1594 C1606 0.950 . S
H1595 C1607 0.950 . S
C1596 H1588 0.950 . S
C1596 C1597 1.386 . S
C1596 C1598 1.391 . S
C1597 C1596 1.386 . S
C1597 C1601 1.393 . S
C1598 H1590 0.950 . S
C1598 C1596 1.391 . S
C1598 C1599 1.400 . S
C1599 C1598 1.400 . S
C1599 C1600 1.398 . S
C1599 C1605 1.491 . S
C1600 H1591 0.950 . S
C1600 C1599 1.398 . S
C1600 C1601 1.391 . S
C1601 H1589 0.950 . S
C1601 C1597 1.393 . S
C1601 C1600 1.391 . S
C1602 H1592 0.950 . S
C1602 C1603 1.386 . S
C1602 C1604 1.391 . S
C1603 C1602 1.386 . S
C1603 C1607 1.393 . S
C1604 H1593 0.950 . S
C1604 C1602 1.391 . S
C1604 C1605 1.400 . S
C1605 C1599 1.491 . S
C1605 C1604 1.400 . S
C1605 C1606 1.398 . S
C1606 H1594 0.950 . S
C1606 C1605 1.398 . S
C1606 C1607 1.391 . S
C1607 H1595 0.950 . S
C1607 C1603 1.393 . S
C1607 C1606 1.391 . S
H1608 C1616 0.950 . S
H1609 C1621 0.950 . S
H1610 C1618 0.950 . S
H1611 C1620 0.950 . S
H1612 C1622 0.950 . S
H1613 C1624 0.950 . S
H1614 C1626 0.950 . S
H1615 C1627 0.950 . S
C1616 H1608 0.950 . S
C1616 C1617 1.386 . S
C1616 C1618 1.391 . S
C1617 C1616 1.386 . S
C1617 C1621 1.393 . S
C1618 H1610 0.950 . S
C1618 C1616 1.391 . S
C1618 C1619 1.400 . S
C1619 C1618 1.400 . S
C1619 C1620 1.398 . S
C1619 C1625 1.491 . S
C1620 H1611 0.950 . S
C1620 C1619 1.398 . S
C1620 C1621 1.391 . S
C1621 H1609 0.950 . S
C1621 C1617 1.393 . S
C1621 C1620 1.391 . S
C1622 H1612 0.950 . S
C1622 C1623 1.386 . S
C1622 C1624 1.391 . S
C1623 C1622 1.386 . S
C1623 C1627 1.393 . S
C1624 H1613 0.950 . S
C1624 C1622 1.391 . S
C1624 C1625 1.400 . S
C1625 C1619 1.491 . S
C1625 C1624 1.400 . S
C1625 C1626 1.398 . S
C1626 H1614 0.950 . S
C1626 C1625 1.398 . S
C1626 C1627 1.391 . S
C1627 H1615 0.950 . S
C1627 C1623 1.393 . S
C1627 C1626 1.391 . S
H1628 C1636 0.950 . S
H1629 C1641 0.950 . S
H1630 C1638 0.950 . S
H1631 C1640 0.950 . S
H1632 C1642 0.950 . S
H1633 C1644 0.950 . S
H1634 C1646 0.950 . S
H1635 C1647 0.950 . S
C1636 H1628 0.950 . S
C1636 C1637 1.386 . S
C1636 C1638 1.391 . S
C1637 C1636 1.386 . S
C1637 C1641 1.393 . S
C1638 H1630 0.950 . S
C1638 C1636 1.391 . S
C1638 C1639 1.400 . S
C1639 C1638 1.400 . S
C1639 C1640 1.398 . S
C1639 C1645 1.491 . S
C1640 H1631 0.950 . S
C1640 C1639 1.398 . S
C1640 C1641 1.391 . S
C1641 H1629 0.950 . S
C1641 C1637 1.393 . S
C1641 C1640 1.391 . S
C1642 H1632 0.950 . S
C1642 C1643 1.386 . S
C1642 C1644 1.391 . S
C1643 C1642 1.386 . S
C1643 C1647 1.393 . S
C1644 H1633 0.950 . S
C1644 C1642 1.391 . S
C1644 C1645 1.400 . S
C1645 C1639 1.491 . S
C1645 C1644 1.400 . S
C1645 C1646 1.398 . S
C1646 H1634 0.950 . S
C1646 C1645 1.398 . S
C1646 C1647 1.391 . S
C1647 H1635 0.950 . S
C1647 C1643 1.393 . S
C1647 C1646 1.391 . S
H1648 C1656 0.950 . S
H1649 C1661 0.950 . S
H1650 C1658 0.950 . S
H1651 C1660 0.950 . S
H1652 C1662 0.950 . S
H1653 C1664 0.950 . S
H1654 C1666 0.950 . S
H1655 C1667 0.950 . S
C1656 H1648 0.950 . S
C1656 C1657 1.386 . S
C1656 C1658 1.391 . S
C1657 C1656 1.386 . S
C1657 C1661 1.393 . S
C1658 H1650 0.950 . S
C1658 C1656 1.391 . S
C1658 C1659 1.400 . S
C1659 C1658 1.400 . S
C1659 C1660 1.398 . S
C1659 C1665 1.491 . S
C1660 H1651 0.950 . S
C1660 C1659 1.398 . S
C1660 C1661 1.391 . S
C1661 H1649 0.950 . S
C1661 C1657 1.393 . S
C1661 C1660 1.391 . S
C1662 H1652 0.950 . S
C1662 C1663 1.386 . S
C1662 C1664 1.391 . S
C1663 C1662 1.386 . S
C1663 C1667 1.393 . S
C1664 H1653 0.950 . S
C1664 C1662 1.391 . S
C1664 C1665 1.400 . S
C1665 C1659 1.491 . S
C1665 C1664 1.400 . S
C1665 C1666 1.398 . S
C1666 H1654 0.950 . S
C1666 C1665 1.398 . S
C1666 C1667 1.391 . S
C1667 H1655 0.950 . S
C1667 C1663 1.393 . S
C1667 C1666 1.391 . S
H1668 C1676 0.950 . S
H1669 C1681 0.950 . S
H1670 C1678 0.950 . S
H1671 C1680 0.950 . S
H1672 C1682 0.950 . S
H1673 C1684 0.950 . S
H1674 C1686 0.950 . S
H1675 C1687 0.950 . S
C1676 H1668 0.950 . S
C1676 C1677 1.386 . S
C1676 C1678 1.391 . S
C1677 C1676 1.386 . S
C1677 C1681 1.393 . S
C1678 H1670 0.950 . S
C1678 C1676 1.391 . S
C1678 C1679 1.400 . S
C1679 C1678 1.400 . S
C1679 C1680 1.398 . S
C1679 C1685 1.491 . S
C1680 H1671 0.950 . S
C1680 C1679 1.398 . S
C1680 C1681 1.391 . S
C1681 H1669 0.950 . S
C1681 C1677 1.393 . S
C1681 C1680 1.391 . S
C1682 H1672 0.950 . S
C1682 C1683 1.386 . S
C1682 C1684 1.391 . S
C1683 C1682 1.386 . S
C1683 C1687 1.393 . S
C1684 H1673 0.950 . S
C1684 C1682 1.391 . S
C1684 C1685 1.400 . S
C1685 C1679 1.491 . S
C1685 C1684 1.400 . S
C1685 C1686 1.398 . S
C1686 H1674 0.950 . S
C1686 C1685 1.398 . S
C1686 C1687 1.391 . S
C1687 H1675 0.950 . S
C1687 C1683 1.393 . S
C1687 C1686 1.391 . S
H1688 C1696 0.950 . S
H1689 C1701 0.950 . S
H1690 C1698 0.950 . S
H1691 C1700 0.950 . S
H1692 C1702 0.950 . S
H1693 C1704 0.950 . S
H1694 C1706 0.950 . S
H1695 C1707 0.950 . S
C1696 H1688 0.950 . S
C1696 C1697 1.386 . S
C1696 C1698 1.391 . S
C1697 C1696 1.386 . S
C1697 C1701 1.393 . S
C1698 H1690 0.950 . S
C1698 C1696 1.391 . S
C1698 C1699 1.400 . S
C1699 C1698 1.400 . S
C1699 C1700 1.398 . S
C1699 C1705 1.491 . S
C1700 H1691 0.950 . S
C1700 C1699 1.398 . S
C1700 C1701 1.391 . S
C1701 H1689 0.950 . S
C1701 C1697 1.393 . S
C1701 C1700 1.391 . S
C1702 H1692 0.950 . S
C1702 C1703 1.386 . S
C1702 C1704 1.391 . S
C1703 C1702 1.386 . S
C1703 C1707 1.393 . S
C1704 H1693 0.950 . S
C1704 C1702 1.391 . S
C1704 C1705 1.400 . S
C1705 C1699 1.491 . S
C1705 C1704 1.400 . S
C1705 C1706 1.398 . S
C1706 H1694 0.950 . S
C1706 C1705 1.398 . S
C1706 C1707 1.391 . S
C1707 H1695 0.950 . S
C1707 C1703 1.393 . S
C1707 C1706 1.391 . S
H1708 C1716 0.950 . S
H1709 C1721 0.950 . S
H1710 C1718 0.950 . S
H1711 C1720 0.950 . S
H1712 C1722 0.950 . S
H1713 C1724 0.950 . S
H1714 C1726 0.950 . S
H1715 C1727 0.950 . S
C1716 H1708 0.950 . S
C1716 C1717 1.386 . S
C1716 C1718 1.391 . S
C1717 C1716 1.386 . S
C1717 C1721 1.393 . S
C1718 H1710 0.950 . S
C1718 C1716 1.391 . S
C1718 C1719 1.400 . S
C1719 C1718 1.400 . S
C1719 C1720 1.398 . S
C1719 C1725 1.491 . S
C1720 H1711 0.950 . S
C1720 C1719 1.398 . S
C1720 C1721 1.391 . S
C1721 H1709 0.950 . S
C1721 C1717 1.393 . S
C1721 C1720 1.391 . S
C1722 H1712 0.950 . S
C1722 C1723 1.386 . S
C1722 C1724 1.391 . S
C1723 C1722 1.386 . S
C1723 C1727 1.393 . S
C1724 H1713 0.950 . S
C1724 C1722 1.391 . S
C1724 C1725 1.400 . S
C1725 C1719 1.491 . S
C1725 C1724 1.400 . S
C1725 C1726 1.398 . S
C1726 H1714 0.950 . S
C1726 C1725 1.398 . S
C1726 C1727 1.391 . S
C1727 H1715 0.950 . S
C1727 C1723 1.393 . S
C1727 C1726 1.391 . S
H1728 C1736 0.950 . S
H1729 C1741 0.950 . S
H1730 C1738 0.941 1_545 S
H1731 C1740 0.950 . S
H1732 C1742 0.950 . S
H1733 C1744 0.941 1_565 S
H1734 C1746 0.950 . S
H1735 C1747 0.950 . S
C1736 H1728 0.950 . S
C1736 C1737 1.386 . S
C1736 C1738 1.391 . S
C1737 C1736 1.386 . S
C1737 C1741 1.393 . S
C1738 H1730 0.941 1_565 S
C1738 C1736 1.391 . S
C1738 C1739 1.400 . S
C1739 C1738 1.400 . S
C1739 C1740 1.398 . S
C1739 C1745 1.491 1_665 S
C1740 H1731 0.950 . S
C1740 C1739 1.398 . S
C1740 C1741 1.391 . S
C1741 H1729 0.950 . S
C1741 C1737 1.393 . S
C1741 C1740 1.391 . S
C1742 H1732 0.950 . S
C1742 C1743 1.386 . S
C1742 C1744 1.391 . S
C1743 C1742 1.386 . S
C1743 C1747 1.393 . S
C1744 H1733 0.941 1_545 S
C1744 C1742 1.391 . S
C1744 C1745 1.400 . S
C1745 C1739 1.491 1_445 S
C1745 C1744 1.400 . S
C1745 C1746 1.398 . S
C1746 H1734 0.950 . S
C1746 C1745 1.398 . S
C1746 C1747 1.391 . S
C1747 H1735 0.950 . S
C1747 C1743 1.393 . S
C1747 C1746 1.391 . S
H1748 C1756 0.950 . S
H1749 C1761 0.950 . S
H1750 C1758 0.950 . S
H1751 C1760 0.950 . S
H1752 C1762 0.950 . S
H1753 C1764 0.950 . S
H1754 C1766 0.950 . S
H1755 C1767 0.950 . S
C1756 H1748 0.950 . S
C1756 C1757 1.386 . S
C1756 C1758 1.391 . S
C1757 C1756 1.386 . S
C1757 C1761 1.393 . S
C1758 H1750 0.950 . S
C1758 C1756 1.391 . S
C1758 C1759 1.400 . S
C1759 C1758 1.400 . S
C1759 C1760 1.398 . S
C1759 C1765 1.491 . S
C1760 H1751 0.950 . S
C1760 C1759 1.398 . S
C1760 C1761 1.391 . S
C1761 H1749 0.950 . S
C1761 C1757 1.393 . S
C1761 C1760 1.391 . S
C1762 H1752 0.950 . S
C1762 C1763 1.386 . S
C1762 C1764 1.391 . S
C1763 C1762 1.386 . S
C1763 C1767 1.393 . S
C1764 H1753 0.950 . S
C1764 C1762 1.391 . S
C1764 C1765 1.400 . S
C1765 C1759 1.491 . S
C1765 C1764 1.400 . S
C1765 C1766 1.398 . S
C1766 H1754 0.950 . S
C1766 C1765 1.398 . S
C1766 C1767 1.391 . S
C1767 H1755 0.950 . S
C1767 C1763 1.393 . S
C1767 C1766 1.391 . S
H1768 C1776 0.950 . S
H1769 C1781 0.950 . S
H1770 C1778 0.950 . S
H1771 C1780 0.950 . S
H1772 C1782 0.950 . S
H1773 C1784 0.950 . S
H1774 C1786 0.950 . S
H1775 C1787 0.950 . S
C1776 H1768 0.950 . S
C1776 C1777 1.386 . S
C1776 C1778 1.391 . S
C1777 C1776 1.386 . S
C1777 C1781 1.393 . S
C1778 H1770 0.950 . S
C1778 C1776 1.391 . S
C1778 C1779 1.400 . S
C1779 C1778 1.400 . S
C1779 C1780 1.398 . S
C1779 C1785 1.491 1_655 S
C1780 H1771 0.950 . S
C1780 C1779 1.398 . S
C1780 C1781 1.391 . S
C1781 H1769 0.950 . S
C1781 C1777 1.393 . S
C1781 C1780 1.391 . S
C1782 H1772 0.950 . S
C1782 C1783 1.386 . S
C1782 C1784 1.391 . S
C1783 C1782 1.386 . S
C1783 C1787 1.393 . S
C1784 H1773 0.950 . S
C1784 C1782 1.391 . S
C1784 C1785 1.400 . S
C1785 C1779 1.491 1_455 S
C1785 C1784 1.400 . S
C1785 C1786 1.398 . S
C1786 H1774 0.950 . S
C1786 C1785 1.398 . S
C1786 C1787 1.391 . S
C1787 H1775 0.950 . S
C1787 C1783 1.393 . S
C1787 C1786 1.391 . S
H1788 C1796 0.950 . S
H1789 C1801 0.950 . S
H1790 C1798 0.950 . S
H1791 C1800 0.950 . S
H1792 C1802 0.950 . S
H1793 C1804 0.950 . S
H1794 C1806 0.950 . S
H1795 C1807 0.950 . S
C1796 H1788 0.950 . S
C1796 C1797 1.386 . S
C1796 C1798 1.391 . S
C1797 C1796 1.386 . S
C1797 C1801 1.393 1_545 S
C1798 H1790 0.950 . S
C1798 C1796 1.391 . S
C1798 C1799 1.400 . S
C1799 C1798 1.400 . S
C1799 C1800 1.398 1_545 S
C1799 C1805 1.491 1_545 S
C1800 H1791 0.950 . S
C1800 C1799 1.398 1_565 S
C1800 C1801 1.391 . S
C1801 H1789 0.950 . S
C1801 C1797 1.393 1_565 S
C1801 C1800 1.391 . S
C1802 H1792 0.950 . S
C1802 C1803 1.386 . S
C1802 C1804 1.391 . S
C1803 C1802 1.386 . S
C1803 C1807 1.393 1_565 S
C1804 H1793 0.950 . S
C1804 C1802 1.391 . S
C1804 C1805 1.400 . S
C1805 C1799 1.491 1_565 S
C1805 C1804 1.400 . S
C1805 C1806 1.398 1_565 S
C1806 H1794 0.950 . S
C1806 C1805 1.398 1_545 S
C1806 C1807 1.391 . S
C1807 H1795 0.950 . S
C1807 C1803 1.393 1_545 S
C1807 C1806 1.391 . S
H1808 C1816 0.950 . S
H1809 C1821 0.950 . S
H1810 C1818 0.950 . S
H1811 C1820 0.950 . S
H1812 C1822 0.950 . S
H1813 C1824 0.950 . S
H1814 C1826 0.950 . S
H1815 C1827 0.950 . S
C1816 H1808 0.950 . S
C1816 C1817 1.386 . S
C1816 C1818 1.391 . S
C1817 C1816 1.386 . S
C1817 C1821 1.393 . S
C1818 H1810 0.950 . S
C1818 C1816 1.391 . S
C1818 C1819 1.400 . S
C1819 C1818 1.400 . S
C1819 C1820 1.398 . S
C1819 C1825 1.491 . S
C1820 H1811 0.950 . S
C1820 C1819 1.398 . S
C1820 C1821 1.391 . S
C1821 H1809 0.950 . S
C1821 C1817 1.393 . S
C1821 C1820 1.391 . S
C1822 H1812 0.950 . S
C1822 C1823 1.386 . S
C1822 C1824 1.391 . S
C1823 C1822 1.386 . S
C1823 C1827 1.393 . S
C1824 H1813 0.950 . S
C1824 C1822 1.391 . S
C1824 C1825 1.400 . S
C1825 C1819 1.491 . S
C1825 C1824 1.400 . S
C1825 C1826 1.398 . S
C1826 H1814 0.950 . S
C1826 C1825 1.398 . S
C1826 C1827 1.391 . S
C1827 H1815 0.950 . S
C1827 C1823 1.393 . S
C1827 C1826 1.391 . S
H1828 C1836 0.950 . S
H1829 C1841 0.950 . S
H1830 C1838 0.950 . S
H1831 C1840 0.950 . S
H1832 C1842 0.950 . S
H1833 C1844 0.950 . S
H1834 C1846 0.950 . S
H1835 C1847 0.950 . S
C1836 H1828 0.950 . S
C1836 C1837 1.386 . S
C1836 C1838 1.391 . S
C1837 C1836 1.386 . S
C1837 C1841 1.393 . S
C1838 H1830 0.950 . S
C1838 C1836 1.391 . S
C1838 C1839 1.400 . S
C1839 C1838 1.400 . S
C1839 C1840 1.398 . S
C1839 C1845 1.491 1_655 S
C1840 H1831 0.950 . S
C1840 C1839 1.398 . S
C1840 C1841 1.391 . S
C1841 H1829 0.950 . S
C1841 C1837 1.393 . S
C1841 C1840 1.391 . S
C1842 H1832 0.950 . S
C1842 C1843 1.386 . S
C1842 C1844 1.391 . S
C1843 C1842 1.386 . S
C1843 C1847 1.393 . S
C1844 H1833 0.950 . S
C1844 C1842 1.391 . S
C1844 C1845 1.400 . S
C1845 C1839 1.491 1_455 S
C1845 C1844 1.400 . S
C1845 C1846 1.398 . S
C1846 H1834 0.950 . S
C1846 C1845 1.398 . S
C1846 C1847 1.391 . S
C1847 H1835 0.950 . S
C1847 C1843 1.393 . S
C1847 C1846 1.391 . S
H1848 C1856 0.950 . S
H1849 C1861 0.950 . S
H1850 C1858 0.932 1_565 S
H1851 C1860 0.950 . S
H1852 C1862 0.950 . S
H1853 C1864 0.932 1_545 S
H1854 C1866 0.950 . S
H1855 C1867 0.950 . S
C1856 H1848 0.950 . S
C1856 C1857 1.386 . S
C1856 C1858 1.404 . S
C1857 C1856 1.386 . S
C1857 C1861 1.393 . S
C1858 H1850 0.932 1_545 S
C1858 C1856 1.404 . S
C1858 C1859 1.406 . S
C1859 C1858 1.406 . S
C1859 C1860 1.398 . S
C1859 C1865 1.491 1_545 S
C1860 H1851 0.950 . S
C1860 C1859 1.398 . S
C1860 C1861 1.391 . S
C1861 H1849 0.950 . S
C1861 C1857 1.393 . S
C1861 C1860 1.391 . S
C1862 H1852 0.950 . S
C1862 C1863 1.386 . S
C1862 C1864 1.404 . S
C1863 C1862 1.386 . S
C1863 C1867 1.393 . S
C1864 H1853 0.932 1_565 S
C1864 C1862 1.404 . S
C1864 C1865 1.406 . S
C1865 C1859 1.491 1_565 S
C1865 C1864 1.406 . S
C1865 C1866 1.398 . S
C1866 H1854 0.950 . S
C1866 C1865 1.398 . S
C1866 C1867 1.391 . S
C1867 H1855 0.950 . S
C1867 C1863 1.393 . S
C1867 C1866 1.391 . S
H1868 C1876 0.950 . S
H1869 C1881 0.950 . S
H1870 C1878 0.940 1_554 S
H1871 C1880 0.950 . S
H1872 C1882 0.950 . S
H1873 C1884 0.940 1_556 S
H1874 C1886 0.950 . S
H1875 C1887 0.950 . S
C1876 H1868 0.950 . S
C1876 C1877 1.386 . S
C1876 C1878 1.399 . S
C1877 C1876 1.386 . S
C1877 C1881 1.393 . S
C1878 H1870 0.940 1_556 S
C1878 C1876 1.399 . S
C1878 C1879 1.404 . S
C1879 C1878 1.404 . S
C1879 C1880 1.398 . S
C1879 C1885 1.491 1_456 S
C1880 H1871 0.950 . S
C1880 C1879 1.398 . S
C1880 C1881 1.391 . S
C1881 H1869 0.950 . S
C1881 C1877 1.393 . S
C1881 C1880 1.391 . S
C1882 H1872 0.950 . S
C1882 C1883 1.386 . S
C1882 C1884 1.399 . S
C1883 C1882 1.386 . S
C1883 C1887 1.393 . S
C1884 H1873 0.940 1_554 S
C1884 C1882 1.399 . S
C1884 C1885 1.404 . S
C1885 C1879 1.491 1_654 S
C1885 C1884 1.404 . S
C1885 C1886 1.398 . S
C1886 H1874 0.950 . S
C1886 C1885 1.398 . S
C1886 C1887 1.391 . S
C1887 H1875 0.950 . S
C1887 C1883 1.393 . S
C1887 C1886 1.391 . S
H1888 C1896 0.950 . S
H1889 C1901 0.952 . S
H1890 C1898 0.950 . S
H1891 C1900 0.950 . S
H1892 C1902 0.950 . S
H1893 C1904 0.950 . S
H1894 C1906 0.950 . S
H1895 C1907 0.952 . S
C1896 H1888 0.950 . S
C1896 C1897 1.386 . S
C1896 C1898 1.391 . S
C1897 C1896 1.386 . S
C1897 C1901 1.390 1_554 S
C1898 H1890 0.950 . S
C1898 C1896 1.391 . S
C1898 C1899 1.400 . S
C1899 C1898 1.400 . S
C1899 C1900 1.398 1_554 S
C1899 C1905 1.491 1_554 S
C1900 H1891 0.950 . S
C1900 C1899 1.398 1_556 S
C1900 C1901 1.392 . S
C1901 H1889 0.952 . S
C1901 C1897 1.390 1_556 S
C1901 C1900 1.392 . S
C1902 H1892 0.950 . S
C1902 C1903 1.386 . S
C1902 C1904 1.391 . S
C1903 C1902 1.386 . S
C1903 C1907 1.390 1_556 S
C1904 H1893 0.950 . S
C1904 C1902 1.391 . S
C1904 C1905 1.400 . S
C1905 C1899 1.491 1_556 S
C1905 C1904 1.400 . S
C1905 C1906 1.398 1_556 S
C1906 H1894 0.950 . S
C1906 C1905 1.398 1_554 S
C1906 C1907 1.392 . S
C1907 H1895 0.952 . S
C1907 C1903 1.390 1_554 S
C1907 C1906 1.392 . S
H1908 C1916 0.950 . S
H1909 C1921 0.950 . S
H1910 C1918 0.950 . S
H1911 C1920 0.950 . S
H1912 C1922 0.950 . S
H1913 C1924 0.950 . S
H1914 C1926 0.950 . S
H1915 C1927 0.950 . S
C1916 H1908 0.950 . S
C1916 C1917 1.386 . S
C1916 C1918 1.391 . S
C1917 C1916 1.386 . S
C1917 C1921 1.393 . S
C1918 H1910 0.950 . S
C1918 C1916 1.391 . S
C1918 C1919 1.400 . S
C1919 C1918 1.400 . S
C1919 C1920 1.398 . S
C1919 C1925 1.491 . S
C1920 H1911 0.950 . S
C1920 C1919 1.398 . S
C1920 C1921 1.391 . S
C1921 H1909 0.950 . S
C1921 C1917 1.393 . S
C1921 C1920 1.391 . S
C1922 H1912 0.950 . S
C1922 C1923 1.386 . S
C1922 C1924 1.391 . S
C1923 C1922 1.386 . S
C1923 C1927 1.393 . S
C1924 H1913 0.950 . S
C1924 C1922 1.391 . S
C1924 C1925 1.400 . S
C1925 C1919 1.491 . S
C1925 C1924 1.400 . S
C1925 C1926 1.398 . S
C1926 H1914 0.950 . S
C1926 C1925 1.398 . S
C1926 C1927 1.391 . S
C1927 H1915 0.950 . S
C1927 C1923 1.393 . S
C1927 C1926 1.391 . S
H1928 C1936 0.949 1_556 S
H1929 C1941 0.950 . S
H1930 C1938 0.950 . S
H1931 C1940 0.950 . S
H1932 C1942 0.949 1_554 S
H1933 C1944 0.950 . S
H1934 C1946 0.950 . S
H1935 C1947 0.950 . S
C1936 H1928 0.949 1_554 S
C1936 C1937 1.386 . S
C1936 C1938 1.391 1_554 S
C1937 C1936 1.386 . S
C1937 C1941 1.393 . S
C1938 H1930 0.950 . S
C1938 C1936 1.391 1_556 S
C1938 C1939 1.400 1_556 S
C1939 C1938 1.400 1_554 S
C1939 C1940 1.398 . S
C1939 C1945 1.491 1_554 S
C1940 H1931 0.950 . S
C1940 C1939 1.398 . S
C1940 C1941 1.391 . S
C1941 H1929 0.950 . S
C1941 C1937 1.393 . S
C1941 C1940 1.391 . S
C1942 H1932 0.949 1_556 S
C1942 C1943 1.386 . S
C1942 C1944 1.391 1_556 S
C1943 C1942 1.386 . S
C1943 C1947 1.393 . S
C1944 H1933 0.950 . S
C1944 C1942 1.391 1_554 S
C1944 C1945 1.400 1_554 S
C1945 C1939 1.491 1_556 S
C1945 C1944 1.400 1_556 S
C1945 C1946 1.398 . S
C1946 H1934 0.950 . S
C1946 C1945 1.398 . S
C1946 C1947 1.391 . S
C1947 H1935 0.950 . S
C1947 C1943 1.393 . S
C1947 C1946 1.391 . S
H1948 C1956 0.950 . S
H1949 C1961 0.950 . S
H1950 C1958 0.950 . S
H1951 C1960 0.950 . S
H1952 C1962 0.950 . S
H1953 C1964 0.950 . S
H1954 C1966 0.950 . S
H1955 C1967 0.950 . S
C1956 H1948 0.950 . S
C1956 C1957 1.386 . S
C1956 C1958 1.391 . S
C1957 C1956 1.386 . S
C1957 C1961 1.393 . S
C1958 H1950 0.950 . S
C1958 C1956 1.391 . S
C1958 C1959 1.400 . S
C1959 C1958 1.400 . S
C1959 C1960 1.398 . S
C1959 C1965 1.491 . S
C1960 H1951 0.950 . S
C1960 C1959 1.398 . S
C1960 C1961 1.391 . S
C1961 H1949 0.950 . S
C1961 C1957 1.393 . S
C1961 C1960 1.391 . S
C1962 H1952 0.950 . S
C1962 C1963 1.386 . S
C1962 C1964 1.391 . S
C1963 C1962 1.386 . S
C1963 C1967 1.393 . S
C1964 H1953 0.950 . S
C1964 C1962 1.391 . S
C1964 C1965 1.400 . S
C1965 C1959 1.491 . S
C1965 C1964 1.400 . S
C1965 C1966 1.398 . S
C1966 H1954 0.950 . S
C1966 C1965 1.398 . S
C1966 C1967 1.391 . S
C1967 H1955 0.950 . S
C1967 C1963 1.393 . S
C1967 C1966 1.391 . S
H1968 C1976 0.950 . S
H1969 C1981 0.945 1_556 S
H1970 C1978 0.950 . S
H1971 C1980 0.950 . S
H1972 C1982 0.950 . S
H1973 C1984 0.950 . S
H1974 C1986 0.950 . S
H1975 C1987 0.945 1_554 S
C1976 H1968 0.950 . S
C1976 C1977 1.386 . S
C1976 C1978 1.391 . S
C1977 C1976 1.386 . S
C1977 C1981 1.393 1_565 S
C1978 H1970 0.950 . S
C1978 C1976 1.391 . S
C1978 C1979 1.400 . S
C1979 C1978 1.400 . S
C1979 C1980 1.398 1_564 S
C1979 C1985 1.491 1_564 S
C1980 H1971 0.950 . S
C1980 C1979 1.398 1_546 S
C1980 C1981 1.391 1_556 S
C1981 H1969 0.945 1_554 S
C1981 C1977 1.393 1_545 S
C1981 C1980 1.391 1_554 S
C1982 H1972 0.950 . S
C1982 C1983 1.386 . S
C1982 C1984 1.391 . S
C1983 C1982 1.386 . S
C1983 C1987 1.393 1_545 S
C1984 H1973 0.950 . S
C1984 C1982 1.391 . S
C1984 C1985 1.400 . S
C1985 C1979 1.491 1_546 S
C1985 C1984 1.400 . S
C1985 C1986 1.398 1_546 S
C1986 H1974 0.950 . S
C1986 C1985 1.398 1_564 S
C1986 C1987 1.391 1_554 S
C1987 H1975 0.945 1_556 S
C1987 C1983 1.393 1_565 S
C1987 C1986 1.391 1_556 S
H1988 C1996 0.950 . S
H1989 C2001 0.950 . S
H1990 C1998 0.950 . S
H1991 C2000 0.950 . S
H1992 C2002 0.950 . S
H1993 C2004 0.950 . S
H1994 C2006 0.950 . S
H1995 C2007 0.950 . S
C1996 H1988 0.950 . S
C1996 C1997 1.386 . S
C1996 C1998 1.391 . S
C1997 C1996 1.386 . S
C1997 C2001 1.393 . S
C1998 H1990 0.950 . S
C1998 C1996 1.391 . S
C1998 C1999 1.400 . S
C1999 C1998 1.400 . S
C1999 C2000 1.398 . S
C1999 C2005 1.491 . S
C2000 H1991 0.950 . S
C2000 C1999 1.398 . S
C2000 C2001 1.391 . S
C2001 H1989 0.950 . S
C2001 C1997 1.393 . S
C2001 C2000 1.391 . S
C2002 H1992 0.950 . S
C2002 C2003 1.386 . S
C2002 C2004 1.391 . S
C2003 C2002 1.386 . S
C2003 C2007 1.393 . S
C2004 H1993 0.950 . S
C2004 C2002 1.391 . S
C2004 C2005 1.400 . S
C2005 C1999 1.491 . S
C2005 C2004 1.400 . S
C2005 C2006 1.398 . S
C2006 H1994 0.950 . S
C2006 C2005 1.398 . S
C2006 C2007 1.391 . S
C2007 H1995 0.950 . S
C2007 C2003 1.393 . S
C2007 C2006 1.391 . S
H2008 C2016 0.950 . S
H2009 C2021 0.950 . S
H2010 C2018 0.950 . S
H2011 C2020 0.950 . S
H2012 C2022 0.950 . S
H2013 C2024 0.950 . S
H2014 C2026 0.950 . S
H2015 C2027 0.950 . S
C2016 H2008 0.950 . S
C2016 C2017 1.386 . S
C2016 C2018 1.391 . S
C2017 C2016 1.386 . S
C2017 C2021 1.393 . S
C2018 H2010 0.950 . S
C2018 C2016 1.391 . S
C2018 C2019 1.400 . S
C2019 C2018 1.400 . S
C2019 C2020 1.398 . S
C2019 C2025 1.491 . S
C2020 H2011 0.950 . S
C2020 C2019 1.398 . S
C2020 C2021 1.391 . S
C2021 H2009 0.950 . S
C2021 C2017 1.393 . S
C2021 C2020 1.391 . S
C2022 H2012 0.950 . S
C2022 C2023 1.386 . S
C2022 C2024 1.391 . S
C2023 C2022 1.386 . S
C2023 C2027 1.393 . S
C2024 H2013 0.950 . S
C2024 C2022 1.391 . S
C2024 C2025 1.400 . S
C2025 C2019 1.491 . S
C2025 C2024 1.400 . S
C2025 C2026 1.398 . S
C2026 H2014 0.950 . S
C2026 C2025 1.398 . S
C2026 C2027 1.391 . S
C2027 H2015 0.950 . S
C2027 C2023 1.393 . S
C2027 C2026 1.391 . S
H2028 C2036 0.950 . S
H2029 C2041 0.950 . S
H2030 C2038 0.950 . S
H2031 C2040 0.950 . S
H2032 C2042 0.950 . S
H2033 C2044 0.950 . S
H2034 C2046 0.950 . S
H2035 C2047 0.950 . S
C2036 H2028 0.950 . S
C2036 C2037 1.386 . S
C2036 C2038 1.391 . S
C2037 C2036 1.386 . S
C2037 C2041 1.393 . S
C2038 H2030 0.950 . S
C2038 C2036 1.391 . S
C2038 C2039 1.400 . S
C2039 C2038 1.400 . S
C2039 C2040 1.398 . S
C2039 C2045 1.491 . S
C2040 H2031 0.950 . S
C2040 C2039 1.398 . S
C2040 C2041 1.391 . S
C2041 H2029 0.950 . S
C2041 C2037 1.393 . S
C2041 C2040 1.391 . S
C2042 H2032 0.950 . S
C2042 C2043 1.386 . S
C2042 C2044 1.391 . S
C2043 C2042 1.386 . S
C2043 C2047 1.393 . S
C2044 H2033 0.950 . S
C2044 C2042 1.391 . S
C2044 C2045 1.400 . S
C2045 C2039 1.491 . S
C2045 C2044 1.400 . S
C2045 C2046 1.398 . S
C2046 H2034 0.950 . S
C2046 C2045 1.398 . S
C2046 C2047 1.391 . S
C2047 H2035 0.950 . S
C2047 C2043 1.393 . S
C2047 C2046 1.391 . S
H2048 C2056 0.948 1_545 S
H2049 C2061 0.950 . S
H2050 C2058 0.949 . S
H2051 C2060 0.950 . S
H2052 C2062 0.950 . S
H2053 C2064 0.950 . S
H2054 C2066 0.950 . S
H2055 C2067 0.950 . S
C2056 H2048 0.948 1_565 S
C2056 C2057 1.386 . S
C2056 C2058 1.392 1_565 S
C2057 C2056 1.386 . S
C2057 C2061 1.393 . S
C2058 H2050 0.949 . S
C2058 C2056 1.392 1_545 S
C2058 C2059 1.401 1_545 S
C2059 C2058 1.401 1_565 S
C2059 C2060 1.398 . S
C2059 C2065 1.491 . S
C2060 H2051 0.950 . S
C2060 C2059 1.398 . S
C2060 C2061 1.391 . S
C2061 H2049 0.950 . S
C2061 C2057 1.393 . S
C2061 C2060 1.391 . S
C2062 H2052 0.950 . S
C2062 C2063 1.386 1_565 S
C2062 C2064 1.391 . S
C2063 C2062 1.386 1_545 S
C2063 C2067 1.393 . S
C2064 H2053 0.950 . S
C2064 C2062 1.391 . S
C2064 C2065 1.400 . S
C2065 C2059 1.491 . S
C2065 C2064 1.400 . S
C2065 C2066 1.398 1_565 S
C2066 H2054 0.950 . S
C2066 C2065 1.398 1_545 S
C2066 C2067 1.391 . S
C2067 H2055 0.950 . S
C2067 C2063 1.393 . S
C2067 C2066 1.391 . S
H2068 C2076 0.950 . S
H2069 C2081 0.950 . S
H2070 C2078 0.950 . S
H2071 C2080 0.950 . S
H2072 C2082 0.950 . S
H2073 C2084 0.950 . S
H2074 C2086 0.950 . S
H2075 C2087 0.950 . S
C2076 H2068 0.950 . S
C2076 C2077 1.386 . S
C2076 C2078 1.391 . S
C2077 C2076 1.386 . S
C2077 C2081 1.393 . S
C2078 H2070 0.950 . S
C2078 C2076 1.391 . S
C2078 C2079 1.400 . S
C2079 C2078 1.400 . S
C2079 C2080 1.398 . S
C2079 C2085 1.491 . S
C2080 H2071 0.950 . S
C2080 C2079 1.398 . S
C2080 C2081 1.391 . S
C2081 H2069 0.950 . S
C2081 C2077 1.393 . S
C2081 C2080 1.391 . S
C2082 H2072 0.950 . S
C2082 C2083 1.386 . S
C2082 C2084 1.391 . S
C2083 C2082 1.386 . S
C2083 C2087 1.393 . S
C2084 H2073 0.950 . S
C2084 C2082 1.391 . S
C2084 C2085 1.400 . S
C2085 C2079 1.491 . S
C2085 C2084 1.400 . S
C2085 C2086 1.398 . S
C2086 H2074 0.950 . S
C2086 C2085 1.398 . S
C2086 C2087 1.391 . S
C2087 H2075 0.950 . S
C2087 C2083 1.393 . S
C2087 C2086 1.391 . S
H2088 C2096 0.950 . S
H2089 C2101 0.950 . S
H2090 C2098 0.950 . S
H2091 C2100 0.950 . S
H2092 C2102 0.950 . S
H2093 C2104 0.950 . S
H2094 C2106 0.950 . S
H2095 C2107 0.950 . S
C2096 H2088 0.950 . S
C2096 C2097 1.386 . S
C2096 C2098 1.391 . S
C2097 C2096 1.386 . S
C2097 C2101 1.393 . S
C2098 H2090 0.950 . S
C2098 C2096 1.391 . S
C2098 C2099 1.400 . S
C2099 C2098 1.400 . S
C2099 C2100 1.398 . S
C2099 C2105 1.491 . S
C2100 H2091 0.950 . S
C2100 C2099 1.398 . S
C2100 C2101 1.391 . S
C2101 H2089 0.950 . S
C2101 C2097 1.393 . S
C2101 C2100 1.391 . S
C2102 H2092 0.950 . S
C2102 C2103 1.386 . S
C2102 C2104 1.391 . S
C2103 C2102 1.386 . S
C2103 C2107 1.393 . S
C2104 H2093 0.950 . S
C2104 C2102 1.391 . S
C2104 C2105 1.400 . S
C2105 C2099 1.491 . S
C2105 C2104 1.400 . S
C2105 C2106 1.398 . S
C2106 H2094 0.950 . S
C2106 C2105 1.398 . S
C2106 C2107 1.391 . S
C2107 H2095 0.950 . S
C2107 C2103 1.393 . S
C2107 C2106 1.391 . S
H2108 C2116 0.950 . S
H2109 C2121 0.950 . S
H2110 C2118 0.950 . S
H2111 C2120 0.950 . S
H2112 C2122 0.950 . S
H2113 C2124 0.950 . S
H2114 C2126 0.950 1_545 S
H2115 C2127 0.950 . S
C2116 H2108 0.950 . S
C2116 C2117 1.386 . S
C2116 C2118 1.391 . S
C2117 C2116 1.386 . S
C2117 C2121 1.393 1_645 S
C2118 H2110 0.950 . S
C2118 C2116 1.391 . S
C2118 C2119 1.400 1_545 S
C2119 C2118 1.400 1_565 S
C2119 C2120 1.398 . S
C2119 C2125 1.491 . S
C2120 H2111 0.950 . S
C2120 C2119 1.398 . S
C2120 C2121 1.391 1_655 S
C2121 H2109 0.950 . S
C2121 C2117 1.393 1_465 S
C2121 C2120 1.391 1_455 S
C2122 H2112 0.950 . S
C2122 C2123 1.386 . S
C2122 C2124 1.391 . S
C2123 C2122 1.386 . S
C2123 C2127 1.393 . S
C2124 H2113 0.950 . S
C2124 C2122 1.391 . S
C2124 C2125 1.400 . S
C2125 C2119 1.491 . S
C2125 C2124 1.400 . S
C2125 C2126 1.398 . S
C2126 H2114 0.950 1_565 S
C2126 C2125 1.398 . S
C2126 C2127 1.391 . S
C2127 H2115 0.950 . S
C2127 C2123 1.393 . S
C2127 C2126 1.391 . S
H2128 C2136 0.950 . S
H2129 C2141 0.950 . S
H2130 C2138 0.950 . S
H2131 C2140 0.950 . S
H2132 C2142 0.950 . S
H2133 C2144 0.950 . S
H2134 C2146 0.950 . S
H2135 C2147 0.950 . S
C2136 H2128 0.950 . S
C2136 C2137 1.386 . S
C2136 C2138 1.391 . S
C2137 C2136 1.386 . S
C2137 C2141 1.393 . S
C2138 H2130 0.950 . S
C2138 C2136 1.391 . S
C2138 C2139 1.400 1_565 S
C2139 C2138 1.400 1_545 S
C2139 C2140 1.398 . S
C2139 C2145 1.491 . S
C2140 H2131 0.950 . S
C2140 C2139 1.398 . S
C2140 C2141 1.391 1_545 S
C2141 H2129 0.950 . S
C2141 C2137 1.393 . S
C2141 C2140 1.391 1_565 S
C2142 H2132 0.950 . S
C2142 C2143 1.386 . S
C2142 C2144 1.391 . S
C2143 C2142 1.386 . S
C2143 C2147 1.393 . S
C2144 H2133 0.950 . S
C2144 C2142 1.391 . S
C2144 C2145 1.400 . S
C2145 C2139 1.491 . S
C2145 C2144 1.400 . S
C2145 C2146 1.398 . S
C2146 H2134 0.950 . S
C2146 C2145 1.398 . S
C2146 C2147 1.391 . S
C2147 H2135 0.950 . S
C2147 C2143 1.393 . S
C2147 C2146 1.391 . S
H2148 C2156 0.950 . S
H2149 C2161 0.950 . S
H2150 C2158 0.950 . S
H2151 C2160 0.950 . S
H2152 C2162 0.950 . S
H2153 C2164 0.950 . S
H2154 C2166 0.950 . S
H2155 C2167 0.950 . S
C2156 H2148 0.950 . S
C2156 C2157 1.386 . S
C2156 C2158 1.391 . S
C2157 C2156 1.386 . S
C2157 C2161 1.393 . S
C2158 H2150 0.950 . S
C2158 C2156 1.391 . S
C2158 C2159 1.400 . S
C2159 C2158 1.400 . S
C2159 C2160 1.398 . S
C2159 C2165 1.491 . S
C2160 H2151 0.950 . S
C2160 C2159 1.398 . S
C2160 C2161 1.391 . S
C2161 H2149 0.950 . S
C2161 C2157 1.393 . S
C2161 C2160 1.391 . S
C2162 H2152 0.950 . S
C2162 C2163 1.386 1_655 S
C2162 C2164 1.391 1_655 S
C2163 C2162 1.386 1_455 S
C2163 C2167 1.393 . S
C2164 H2153 0.950 . S
C2164 C2162 1.391 1_455 S
C2164 C2165 1.400 . S
C2165 C2159 1.491 . S
C2165 C2164 1.400 . S
C2165 C2166 1.398 . S
C2166 H2154 0.950 . S
C2166 C2165 1.398 . S
C2166 C2167 1.391 . S
C2167 H2155 0.950 . S
C2167 C2163 1.393 . S
C2167 C2166 1.391 . S
H2168 C2176 0.950 . S
H2169 C2181 0.950 . S
H2170 C2178 0.950 . S
H2171 C2180 0.950 . S
H2172 C2182 0.950 . S
H2173 C2184 0.950 . S
H2174 C2186 0.950 . S
H2175 C2187 0.950 . S
C2176 H2168 0.950 . S
C2176 C2177 1.386 . S
C2176 C2178 1.391 . S
C2177 C2176 1.386 . S
C2177 C2181 1.393 . S
C2178 H2170 0.950 . S
C2178 C2176 1.391 . S
C2178 C2179 1.400 . S
C2179 C2178 1.400 . S
C2179 C2180 1.398 . S
C2179 C2185 1.491 . S
C2180 H2171 0.950 . S
C2180 C2179 1.398 . S
C2180 C2181 1.391 . S
C2181 H2169 0.950 . S
C2181 C2177 1.393 . S
C2181 C2180 1.391 . S
C2182 H2172 0.950 . S
C2182 C2183 1.386 . S
C2182 C2184 1.391 . S
C2183 C2182 1.386 . S
C2183 C2187 1.393 . S
C2184 H2173 0.950 . S
C2184 C2182 1.391 . S
C2184 C2185 1.400 . S
C2185 C2179 1.491 . S
C2185 C2184 1.400 . S
C2185 C2186 1.398 . S
C2186 H2174 0.950 . S
C2186 C2185 1.398 . S
C2186 C2187 1.391 . S
C2187 H2175 0.950 . S
C2187 C2183 1.393 . S
C2187 C2186 1.391 . S
H2188 C2196 0.950 . S
H2189 C2201 0.950 . S
H2190 C2198 0.950 . S
H2191 C2200 0.950 . S
H2192 C2202 0.950 . S
H2193 C2204 0.950 . S
H2194 C2206 0.950 . S
H2195 C2207 0.950 . S
C2196 H2188 0.950 . S
C2196 C2197 1.386 . S
C2196 C2198 1.391 . S
C2197 C2196 1.386 . S
C2197 C2201 1.393 1_565 S
C2198 H2190 0.950 . S
C2198 C2196 1.391 . S
C2198 C2199 1.400 1_565 S
C2199 C2198 1.400 1_545 S
C2199 C2200 1.398 . S
C2199 C2205 1.491 . S
C2200 H2191 0.950 . S
C2200 C2199 1.398 . S
C2200 C2201 1.391 . S
C2201 H2189 0.950 . S
C2201 C2197 1.393 1_545 S
C2201 C2200 1.391 . S
C2202 H2192 0.950 . S
C2202 C2203 1.386 . S
C2202 C2204 1.391 . S
C2203 C2202 1.386 . S
C2203 C2207 1.393 1_545 S
C2204 H2193 0.950 . S
C2204 C2202 1.391 . S
C2204 C2205 1.400 . S
C2205 C2199 1.491 . S
C2205 C2204 1.400 . S
C2205 C2206 1.398 1_545 S
C2206 H2194 0.950 . S
C2206 C2205 1.398 1_565 S
C2206 C2207 1.391 . S
C2207 H2195 0.950 . S
C2207 C2203 1.393 1_565 S
C2207 C2206 1.391 . S
H2208 C2216 0.950 . S
H2209 C2221 0.950 . S
H2210 C2218 0.950 . S
H2211 C2220 0.950 . S
H2212 C2222 0.950 . S
H2213 C2224 0.950 . S
H2214 C2226 0.950 . S
H2215 C2227 0.950 . S
C2216 H2208 0.950 . S
C2216 C2217 1.386 . S
C2216 C2218 1.391 . S
C2217 C2216 1.386 . S
C2217 C2221 1.393 . S
C2218 H2210 0.950 . S
C2218 C2216 1.391 . S
C2218 C2219 1.400 . S
C2219 C2218 1.400 . S
C2219 C2220 1.398 . S
C2219 C2225 1.491 . S
C2220 H2211 0.950 . S
C2220 C2219 1.398 . S
C2220 C2221 1.391 . S
C2221 H2209 0.950 . S
C2221 C2217 1.393 . S
C2221 C2220 1.391 . S
C2222 H2212 0.950 . S
C2222 C2223 1.386 . S
C2222 C2224 1.391 . S
C2223 C2222 1.386 . S
C2223 C2227 1.393 . S
C2224 H2213 0.950 . S
C2224 C2222 1.391 . S
C2224 C2225 1.400 . S
C2225 C2219 1.491 . S
C2225 C2224 1.400 . S
C2225 C2226 1.398 . S
C2226 H2214 0.950 . S
C2226 C2225 1.398 . S
C2226 C2227 1.391 . S
C2227 H2215 0.950 . S
C2227 C2223 1.393 . S
C2227 C2226 1.391 . S
H2228 C2236 0.950 . S
H2229 C2241 0.950 . S
H2230 C2238 0.950 . S
H2231 C2240 0.950 . S
H2232 C2242 0.950 . S
H2233 C2244 0.950 . S
H2234 C2246 0.950 . S
H2235 C2247 0.950 1_455 S
C2236 H2228 0.950 . S
C2236 C2237 1.386 . S
C2236 C2238 1.391 . S
C2237 C2236 1.386 . S
C2237 C2241 1.393 . S
C2238 H2230 0.950 . S
C2238 C2236 1.391 . S
C2238 C2239 1.400 . S
C2239 C2238 1.400 . S
C2239 C2240 1.398 . S
C2239 C2245 1.491 . S
C2240 H2231 0.950 . S
C2240 C2239 1.398 . S
C2240 C2241 1.391 . S
C2241 H2229 0.950 . S
C2241 C2237 1.393 . S
C2241 C2240 1.391 . S
C2242 H2232 0.950 . S
C2242 C2243 1.386 . S
C2242 C2244 1.391 . S
C2243 C2242 1.386 . S
C2243 C2247 1.393 . S
C2244 H2233 0.950 . S
C2244 C2242 1.391 . S
C2244 C2245 1.400 . S
C2245 C2239 1.491 . S
C2245 C2244 1.400 . S
C2245 C2246 1.398 . S
C2246 H2234 0.950 . S
C2246 C2245 1.398 . S
C2246 C2247 1.391 . S
C2247 H2235 0.950 1_655 S
C2247 C2243 1.393 . S
C2247 C2246 1.391 . S
H2248 C2256 0.950 . S
H2249 C2261 0.950 . S
H2250 C2258 0.950 . S
H2251 C2260 0.950 . S
H2252 C2262 0.950 . S
H2253 C2264 0.950 . S
H2254 C2266 0.950 . S
H2255 C2267 0.950 . S
C2256 H2248 0.950 . S
C2256 C2257 1.386 . S
C2256 C2258 1.391 . S
C2257 C2256 1.386 . S
C2257 C2261 1.393 . S
C2258 H2250 0.950 . S
C2258 C2256 1.391 . S
C2258 C2259 1.400 . S
C2259 C2258 1.400 . S
C2259 C2260 1.398 . S
C2259 C2265 1.491 . S
C2260 H2251 0.950 . S
C2260 C2259 1.398 . S
C2260 C2261 1.391 . S
C2261 H2249 0.950 . S
C2261 C2257 1.393 . S
C2261 C2260 1.391 . S
C2262 H2252 0.950 . S
C2262 C2263 1.386 . S
C2262 C2264 1.391 . S
C2263 C2262 1.386 . S
C2263 C2267 1.393 . S
C2264 H2253 0.950 . S
C2264 C2262 1.391 . S
C2264 C2265 1.400 . S
C2265 C2259 1.491 . S
C2265 C2264 1.400 . S
C2265 C2266 1.398 . S
C2266 H2254 0.950 . S
C2266 C2265 1.398 . S
C2266 C2267 1.391 . S
C2267 H2255 0.950 . S
C2267 C2263 1.393 . S
C2267 C2266 1.391 . S
H2268 C2276 0.950 . S
H2269 C2281 0.950 1_455 S
H2270 C2278 0.950 . S
H2271 C2280 0.950 . S
H2272 C2282 0.950 . S
H2273 C2284 0.950 . S
H2274 C2286 0.950 . S
H2275 C2287 0.950 . S
C2276 H2268 0.950 . S
C2276 C2277 1.386 . S
C2276 C2278 1.391 . S
C2277 C2276 1.386 . S
C2277 C2281 1.393 . S
C2278 H2270 0.950 . S
C2278 C2276 1.391 . S
C2278 C2279 1.400 . S
C2279 C2278 1.400 . S
C2279 C2280 1.398 . S
C2279 C2285 1.491 . S
C2280 H2271 0.950 . S
C2280 C2279 1.398 . S
C2280 C2281 1.391 . S
C2281 H2269 0.950 1_655 S
C2281 C2277 1.393 . S
C2281 C2280 1.391 . S
C2282 H2272 0.950 . S
C2282 C2283 1.386 . S
C2282 C2284 1.391 . S
C2283 C2282 1.386 . S
C2283 C2287 1.393 . S
C2284 H2273 0.950 . S
C2284 C2282 1.391 . S
C2284 C2285 1.400 . S
C2285 C2279 1.491 . S
C2285 C2284 1.400 . S
C2285 C2286 1.398 . S
C2286 H2274 0.950 . S
C2286 C2285 1.398 . S
C2286 C2287 1.391 . S
C2287 H2275 0.950 . S
C2287 C2283 1.393 . S
C2287 C2286 1.391 . S
H2288 C2296 0.950 . S
H2289 C2301 0.950 . S
H2290 C2298 0.950 . S
H2291 C2300 0.950 . S
H2292 C2302 0.950 . S
H2293 C2304 0.950 . S
H2294 C2306 0.950 . S
H2295 C2307 0.950 . S
C2296 H2288 0.950 . S
C2296 C2297 1.386 . S
C2296 C2298 1.391 . S
C2297 C2296 1.386 . S
C2297 C2301 1.393 . S
C2298 H2290 0.950 . S
C2298 C2296 1.391 . S
C2298 C2299 1.400 . S
C2299 C2298 1.400 . S
C2299 C2300 1.398 . S
C2299 C2305 1.491 . S
C2300 H2291 0.950 . S
C2300 C2299 1.398 . S
C2300 C2301 1.391 . S
C2301 H2289 0.950 . S
C2301 C2297 1.393 . S
C2301 C2300 1.391 . S
C2302 H2292 0.950 . S
C2302 C2303 1.386 . S
C2302 C2304 1.391 . S
C2303 C2302 1.386 . S
C2303 C2307 1.393 . S
C2304 H2293 0.950 . S
C2304 C2302 1.391 . S
C2304 C2305 1.400 . S
C2305 C2299 1.491 . S
C2305 C2304 1.400 . S
C2305 C2306 1.398 . S
C2306 H2294 0.950 . S
C2306 C2305 1.398 . S
C2306 C2307 1.391 . S
C2307 H2295 0.950 . S
C2307 C2303 1.393 . S
C2307 C2306 1.391 . S
H2308 C2316 0.950 . S
H2309 C2321 0.950 . S
H2310 C2318 0.950 . S
H2311 C2320 0.950 . S
H2312 C2322 0.950 . S
H2313 C2324 0.950 . S
H2314 C2326 0.950 . S
H2315 C2327 0.950 . S
C2316 H2308 0.950 . S
C2316 C2317 1.386 . S
C2316 C2318 1.391 . S
C2317 C2316 1.386 . S
C2317 C2321 1.393 . S
C2318 H2310 0.950 . S
C2318 C2316 1.391 . S
C2318 C2319 1.400 . S
C2319 C2318 1.400 . S
C2319 C2320 1.398 . S
C2319 C2325 1.491 . S
C2320 H2311 0.950 . S
C2320 C2319 1.398 . S
C2320 C2321 1.391 . S
C2321 H2309 0.950 . S
C2321 C2317 1.393 . S
C2321 C2320 1.391 . S
C2322 H2312 0.950 . S
C2322 C2323 1.386 . S
C2322 C2324 1.391 . S
C2323 C2322 1.386 . S
C2323 C2327 1.393 1_455 S
C2324 H2313 0.950 . S
C2324 C2322 1.391 . S
C2324 C2325 1.400 . S
C2325 C2319 1.491 . S
C2325 C2324 1.400 . S
C2325 C2326 1.398 . S
C2326 H2314 0.950 . S
C2326 C2325 1.398 . S
C2326 C2327 1.391 1_455 S
C2327 H2315 0.950 . S
C2327 C2323 1.393 1_655 S
C2327 C2326 1.391 1_655 S
H2328 C2336 0.950 . S
H2329 C2341 0.950 . S
H2330 C2338 0.950 . S
H2331 C2340 0.950 . S
H2332 C2342 0.950 . S
H2333 C2344 0.950 . S
H2334 C2346 0.950 . S
H2335 C2347 0.950 . S
C2336 H2328 0.950 . S
C2336 C2337 1.386 . S
C2336 C2338 1.391 . S
C2337 C2336 1.386 . S
C2337 C2341 1.393 . S
C2338 H2330 0.950 . S
C2338 C2336 1.391 . S
C2338 C2339 1.400 . S
C2339 C2338 1.400 . S
C2339 C2340 1.398 . S
C2339 C2345 1.491 . S
C2340 H2331 0.950 . S
C2340 C2339 1.398 . S
C2340 C2341 1.391 . S
C2341 H2329 0.950 . S
C2341 C2337 1.393 . S
C2341 C2340 1.391 . S
C2342 H2332 0.950 . S
C2342 C2343 1.386 . S
C2342 C2344 1.391 . S
C2343 C2342 1.386 . S
C2343 C2347 1.393 . S
C2344 H2333 0.950 . S
C2344 C2342 1.391 . S
C2344 C2345 1.400 . S
C2345 C2339 1.491 . S
C2345 C2344 1.400 . S
C2345 C2346 1.398 . S
C2346 H2334 0.950 . S
C2346 C2345 1.398 . S
C2346 C2347 1.391 . S
C2347 H2335 0.950 . S
C2347 C2343 1.393 . S
C2347 C2346 1.391 . S
H2348 C2356 0.937 1_655 S
H2349 C2361 0.950 . S
H2350 C2358 0.950 . S
H2351 C2360 0.950 . S
H2352 C2362 0.950 . S
H2353 C2364 0.950 . S
H2354 C2366 0.950 . S
H2355 C2367 0.950 . S
C2356 H2348 0.937 1_455 S
C2356 C2357 1.386 . S
C2356 C2358 1.391 . S
C2357 C2356 1.386 . S
C2357 C2361 1.393 . S
C2358 H2350 0.950 . S
C2358 C2356 1.391 . S
C2358 C2359 1.400 . S
C2359 C2358 1.400 . S
C2359 C2360 1.398 . S
C2359 C2365 1.491 . S
C2360 H2351 0.950 . S
C2360 C2359 1.398 . S
C2360 C2361 1.391 . S
C2361 H2349 0.950 . S
C2361 C2357 1.393 . S
C2361 C2360 1.391 . S
C2362 H2352 0.950 . S
C2362 C2363 1.386 . S
C2362 C2364 1.391 . S
C2363 C2362 1.386 . S
C2363 C2367 1.393 . S
C2364 H2353 0.950 . S
C2364 C2362 1.391 . S
C2364 C2365 1.400 . S
C2365 C2359 1.491 . S
C2365 C2364 1.400 . S
C2365 C2366 1.398 . S
C2366 H2354 0.950 . S
C2366 C2365 1.398 . S
C2366 C2367 1.391 . S
C2367 H2355 0.950 . S
C2367 C2363 1.393 . S
C2367 C2366 1.391 . S
H2368 C2376 0.950 . S
H2369 C2381 0.950 . S
H2370 C2378 0.950 . S
H2371 C2380 0.950 1_545 S
H2372 C2382 0.950 . S
H2373 C2384 0.950 . S
H2374 C2386 0.950 . S
H2375 C2387 0.950 . S
C2376 H2368 0.950 . S
C2376 C2377 1.386 . S
C2376 C2378 1.391 . S
C2377 C2376 1.386 . S
C2377 C2381 1.393 . S
C2378 H2370 0.950 . S
C2378 C2376 1.391 . S
C2378 C2379 1.400 . S
C2379 C2378 1.400 . S
C2379 C2380 1.398 . S
C2379 C2385 1.491 . S
C2380 H2371 0.950 1_565 S
C2380 C2379 1.398 . S
C2380 C2381 1.391 . S
C2381 H2369 0.950 . S
C2381 C2377 1.393 . S
C2381 C2380 1.391 . S
C2382 H2372 0.950 . S
C2382 C2383 1.386 . S
C2382 C2384 1.391 . S
C2383 C2382 1.386 . S
C2383 C2387 1.393 1_545 S
C2384 H2373 0.950 . S
C2384 C2382 1.391 . S
C2384 C2385 1.400 1_545 S
C2385 C2379 1.491 . S
C2385 C2384 1.400 1_565 S
C2385 C2386 1.398 . S
C2386 H2374 0.950 . S
C2386 C2385 1.398 . S
C2386 C2387 1.391 . S
C2387 H2375 0.950 . S
C2387 C2383 1.393 1_565 S
C2387 C2386 1.391 . S
H2388 C2396 0.950 . S
H2389 C2401 0.950 . S
H2390 C2398 0.950 . S
H2391 C2400 0.950 . S
H2392 C2402 0.950 . S
H2393 C2404 0.950 . S
H2394 C2406 0.950 . S
H2395 C2407 0.950 . S
C2396 H2388 0.950 . S
C2396 C2397 1.386 . S
C2396 C2398 1.391 . S
C2397 C2396 1.386 . S
C2397 C2401 1.393 . S
C2398 H2390 0.950 . S
C2398 C2396 1.391 . S
C2398 C2399 1.400 . S
C2399 C2398 1.400 . S
C2399 C2400 1.398 . S
C2399 C2405 1.491 . S
C2400 H2391 0.950 . S
C2400 C2399 1.398 . S
C2400 C2401 1.391 . S
C2401 H2389 0.950 . S
C2401 C2397 1.393 . S
C2401 C2400 1.391 . S
C2402 H2392 0.950 . S
C2402 C2403 1.386 . S
C2402 C2404 1.391 . S
C2403 C2402 1.386 . S
C2403 C2407 1.393 . S
C2404 H2393 0.950 . S
C2404 C2402 1.391 . S
C2404 C2405 1.400 . S
C2405 C2399 1.491 . S
C2405 C2404 1.400 . S
C2405 C2406 1.398 . S
C2406 H2394 0.950 . S
C2406 C2405 1.398 . S
C2406 C2407 1.391 . S
C2407 H2395 0.950 . S
C2407 C2403 1.393 . S
C2407 C2406 1.391 . S
H2408 C2416 0.950 . S
H2409 C2421 0.950 . S
H2410 C2418 0.950 . S
H2411 C2420 0.950 . S
H2412 C2422 0.950 . S
H2413 C2424 0.950 . S
H2414 C2426 0.950 . S
H2415 C2427 0.950 . S
C2416 H2408 0.950 . S
C2416 C2417 1.386 . S
C2416 C2418 1.391 . S
C2417 C2416 1.386 . S
C2417 C2421 1.393 . S
C2418 H2410 0.950 . S
C2418 C2416 1.391 . S
C2418 C2419 1.400 . S
C2419 C2418 1.400 . S
C2419 C2420 1.398 . S
C2419 C2425 1.491 . S
C2420 H2411 0.950 . S
C2420 C2419 1.398 . S
C2420 C2421 1.391 . S
C2421 H2409 0.950 . S
C2421 C2417 1.393 . S
C2421 C2420 1.391 . S
C2422 H2412 0.950 . S
C2422 C2423 1.386 . S
C2422 C2424 1.391 . S
C2423 C2422 1.386 . S
C2423 C2427 1.393 . S
C2424 H2413 0.950 . S
C2424 C2422 1.391 . S
C2424 C2425 1.400 . S
C2425 C2419 1.491 . S
C2425 C2424 1.400 . S
C2425 C2426 1.398 . S
C2426 H2414 0.950 . S
C2426 C2425 1.398 . S
C2426 C2427 1.391 . S
C2427 H2415 0.950 . S
C2427 C2423 1.393 . S
C2427 C2426 1.391 . S
H2428 C2436 0.950 . S
H2429 C2441 0.950 . S
H2430 C2438 0.950 . S
H2431 C2440 0.950 . S
H2432 C2442 0.950 . S
H2433 C2444 0.950 1_545 S
H2434 C2446 0.950 . S
H2435 C2447 0.950 . S
C2436 H2428 0.950 . S
C2436 C2437 1.385 1_565 S
C2436 C2438 1.391 . S
C2437 C2436 1.385 1_545 S
C2437 C2441 1.393 . S
C2438 H2430 0.950 . S
C2438 C2436 1.391 . S
C2438 C2439 1.400 . S
C2439 C2438 1.400 . S
C2439 C2440 1.398 1_565 S
C2439 C2445 1.491 . S
C2440 H2431 0.950 . S
C2440 C2439 1.398 1_545 S
C2440 C2441 1.391 . S
C2441 H2429 0.950 . S
C2441 C2437 1.393 . S
C2441 C2440 1.391 . S
C2442 H2432 0.950 . S
C2442 C2443 1.386 . S
C2442 C2444 1.391 . S
C2443 C2442 1.386 . S
C2443 C2447 1.393 . S
C2444 H2433 0.950 1_565 S
C2444 C2442 1.391 . S
C2444 C2445 1.400 . S
C2445 C2439 1.491 . S
C2445 C2444 1.400 . S
C2445 C2446 1.398 . S
C2446 H2434 0.950 . S
C2446 C2445 1.398 . S
C2446 C2447 1.391 . S
C2447 H2435 0.950 . S
C2447 C2443 1.393 . S
C2447 C2446 1.391 . S
H2448 C2456 0.950 . S
H2449 C2461 0.950 . S
H2450 C2458 0.950 . S
H2451 C2460 0.950 . S
H2452 C2462 0.950 . S
H2453 C2464 0.950 . S
H2454 C2466 0.982 . S
H2455 C2467 0.935 1_565 S
C2456 H2448 0.950 . S
C2456 C2457 1.386 . S
C2456 C2458 1.391 . S
C2457 C2456 1.386 . S
C2457 C2461 1.393 1_565 S
C2458 H2450 0.950 . S
C2458 C2456 1.391 . S
C2458 C2459 1.400 1_565 S
C2459 C2458 1.400 1_545 S
C2459 C2460 1.398 . S
C2459 C2465 1.491 . S
C2460 H2451 0.950 . S
C2460 C2459 1.398 . S
C2460 C2461 1.391 . S
C2461 H2449 0.950 . S
C2461 C2457 1.393 1_545 S
C2461 C2460 1.391 . S
C2462 H2452 0.950 . S
C2462 C2463 1.386 . S
C2462 C2464 1.391 . S
C2463 C2462 1.386 . S
C2463 C2467 1.393 . S
C2464 H2453 0.950 . S
C2464 C2462 1.391 . S
C2464 C2465 1.400 . S
C2465 C2459 1.491 . S
C2465 C2464 1.400 . S
C2465 C2466 1.381 1_545 S
C2466 H2454 0.982 . S
C2466 C2465 1.381 1_565 S
C2466 C2467 1.380 1_565 S
C2467 H2455 0.935 1_545 S
C2467 C2463 1.393 . S
C2467 C2466 1.380 1_545 S
H2468 C2476 0.950 . S
H2469 C2481 0.950 . S
H2470 C2478 0.950 . S
H2471 C2480 0.950 . S
H2472 C2482 0.950 . S
H2473 C2484 0.950 . S
H2474 C2486 0.950 . S
H2475 C2487 0.950 . S
C2476 H2468 0.950 . S
C2476 C2477 1.386 . S
C2476 C2478 1.391 . S
C2477 C2476 1.386 . S
C2477 C2481 1.393 . S
C2478 H2470 0.950 . S
C2478 C2476 1.391 . S
C2478 C2479 1.400 . S
C2479 C2478 1.400 . S
C2479 C2480 1.398 . S
C2479 C2485 1.491 . S
C2480 H2471 0.950 . S
C2480 C2479 1.398 . S
C2480 C2481 1.391 . S
C2481 H2469 0.950 . S
C2481 C2477 1.393 . S
C2481 C2480 1.391 . S
C2482 H2472 0.950 . S
C2482 C2483 1.386 . S
C2482 C2484 1.391 . S
C2483 C2482 1.386 . S
C2483 C2487 1.393 . S
C2484 H2473 0.950 . S
C2484 C2482 1.391 . S
C2484 C2485 1.400 . S
C2485 C2479 1.491 . S
C2485 C2484 1.400 . S
C2485 C2486 1.398 . S
C2486 H2474 0.950 . S
C2486 C2485 1.398 . S
C2486 C2487 1.391 . S
C2487 H2475 0.950 . S
C2487 C2483 1.393 . S
C2487 C2486 1.391 . S
H2488 C2496 0.950 . S
H2489 C2501 0.950 . S
H2490 C2498 0.950 . S
H2491 C2500 0.950 . S
H2492 C2502 0.950 . S
H2493 C2504 0.950 . S
H2494 C2506 0.950 . S
H2495 C2507 0.950 . S
C2496 H2488 0.950 . S
C2496 C2497 1.386 . S
C2496 C2498 1.391 . S
C2497 C2496 1.386 . S
C2497 C2501 1.393 . S
C2498 H2490 0.950 . S
C2498 C2496 1.391 . S
C2498 C2499 1.400 . S
C2499 C2498 1.400 . S
C2499 C2500 1.398 . S
C2499 C2505 1.491 . S
C2500 H2491 0.950 . S
C2500 C2499 1.398 . S
C2500 C2501 1.391 . S
C2501 H2489 0.950 . S
C2501 C2497 1.393 . S
C2501 C2500 1.391 . S
C2502 H2492 0.950 . S
C2502 C2503 1.386 . S
C2502 C2504 1.391 . S
C2503 C2502 1.386 . S
C2503 C2507 1.393 . S
C2504 H2493 0.950 . S
C2504 C2502 1.391 . S
C2504 C2505 1.400 . S
C2505 C2499 1.491 . S
C2505 C2504 1.400 . S
C2505 C2506 1.398 . S
C2506 H2494 0.950 . S
C2506 C2505 1.398 . S
C2506 C2507 1.391 . S
C2507 H2495 0.950 . S
C2507 C2503 1.393 . S
C2507 C2506 1.391 . S
H2508 C2516 0.950 . S
H2509 C2521 0.950 . S
H2510 C2518 0.950 . S
H2511 C2520 0.950 . S
H2512 C2522 0.950 . S
H2513 C2524 0.950 . S
H2514 C2526 0.950 . S
H2515 C2527 0.950 . S
C2516 H2508 0.950 . S
C2516 C2517 1.386 1_545 S
C2516 C2518 1.391 . S
C2517 C2516 1.386 1_565 S
C2517 C2521 1.393 . S
C2518 H2510 0.950 . S
C2518 C2516 1.391 . S
C2518 C2519 1.400 . S
C2519 C2518 1.400 . S
C2519 C2520 1.398 1_545 S
C2519 C2525 1.491 . S
C2520 H2511 0.950 . S
C2520 C2519 1.398 1_565 S
C2520 C2521 1.391 . S
C2521 H2509 0.950 . S
C2521 C2517 1.393 . S
C2521 C2520 1.391 . S
C2522 H2512 0.950 . S
C2522 C2523 1.386 1_565 S
C2522 C2524 1.391 . S
C2523 C2522 1.386 1_545 S
C2523 C2527 1.393 . S
C2524 H2513 0.950 . S
C2524 C2522 1.391 . S
C2524 C2525 1.400 1_565 S
C2525 C2519 1.491 . S
C2525 C2524 1.400 1_545 S
C2525 C2526 1.398 . S
C2526 H2514 0.950 . S
C2526 C2525 1.398 . S
C2526 C2527 1.391 . S
C2527 H2515 0.950 . S
C2527 C2523 1.393 . S
C2527 C2526 1.391 . S
H2528 C2536 0.950 . S
H2529 C2541 0.950 . S
H2530 C2538 0.950 . S
H2531 C2540 0.950 . S
H2532 C2542 0.950 . S
H2533 C2544 0.950 . S
H2534 C2546 0.950 . S
H2535 C2547 0.950 . S
C2536 H2528 0.950 . S
C2536 C2537 1.386 . S
C2536 C2538 1.391 . S
C2537 C2536 1.386 . S
C2537 C2541 1.393 . S
C2538 H2530 0.950 . S
C2538 C2536 1.391 . S
C2538 C2539 1.400 . S
C2539 C2538 1.400 . S
C2539 C2540 1.398 . S
C2539 C2545 1.491 . S
C2540 H2531 0.950 . S
C2540 C2539 1.398 . S
C2540 C2541 1.391 . S
C2541 H2529 0.950 . S
C2541 C2537 1.393 . S
C2541 C2540 1.391 . S
C2542 H2532 0.950 . S
C2542 C2543 1.386 . S
C2542 C2544 1.391 . S
C2543 C2542 1.386 . S
C2543 C2547 1.393 . S
C2544 H2533 0.950 . S
C2544 C2542 1.391 . S
C2544 C2545 1.400 . S
C2545 C2539 1.491 . S
C2545 C2544 1.400 . S
C2545 C2546 1.398 . S
C2546 H2534 0.950 . S
C2546 C2545 1.398 . S
C2546 C2547 1.391 . S
C2547 H2535 0.950 . S
C2547 C2543 1.393 . S
C2547 C2546 1.391 . S
H2548 C2556 0.950 . S
H2549 C2561 0.950 . S
H2550 C2558 0.950 . S
H2551 C2560 0.950 . S
H2552 C2562 0.950 . S
H2553 C2564 0.950 . S
H2554 C2566 0.950 . S
H2555 C2567 0.950 . S
C2556 H2548 0.950 . S
C2556 C2557 1.386 . S
C2556 C2558 1.391 . S
C2557 C2556 1.386 . S
C2557 C2561 1.393 . S
C2558 H2550 0.950 . S
C2558 C2556 1.391 . S
C2558 C2559 1.400 . S
C2559 C2558 1.400 . S
C2559 C2560 1.398 . S
C2559 C2565 1.491 . S
C2560 H2551 0.950 . S
C2560 C2559 1.398 . S
C2560 C2561 1.391 . S
C2561 H2549 0.950 . S
C2561 C2557 1.393 . S
C2561 C2560 1.391 . S
C2562 H2552 0.950 . S
C2562 C2563 1.386 . S
C2562 C2564 1.391 . S
C2563 C2562 1.386 . S
C2563 C2567 1.393 . S
C2564 H2553 0.950 . S
C2564 C2562 1.391 . S
C2564 C2565 1.400 . S
C2565 C2559 1.491 . S
C2565 C2564 1.400 . S
C2565 C2566 1.398 . S
C2566 H2554 0.950 . S
C2566 C2565 1.398 . S
C2566 C2567 1.391 . S
C2567 H2555 0.950 . S
C2567 C2563 1.393 . S
C2567 C2566 1.391 . S
H2568 C2576 0.950 . S
H2569 C2581 0.950 . S
H2570 C2578 0.950 . S
H2571 C2580 0.950 . S
H2572 C2582 0.950 . S
H2573 C2584 0.950 . S
H2574 C2586 0.950 . S
H2575 C2587 0.950 . S
C2576 H2568 0.950 . S
C2576 C2577 1.386 . S
C2576 C2578 1.391 . S
C2577 C2576 1.386 . S
C2577 C2581 1.393 . S
C2578 H2570 0.950 . S
C2578 C2576 1.391 . S
C2578 C2579 1.400 . S
C2579 C2578 1.400 . S
C2579 C2580 1.398 . S
C2579 C2585 1.491 . S
C2580 H2571 0.950 . S
C2580 C2579 1.398 . S
C2580 C2581 1.391 . S
C2581 H2569 0.950 . S
C2581 C2577 1.393 . S
C2581 C2580 1.391 . S
C2582 H2572 0.950 . S
C2582 C2583 1.386 . S
C2582 C2584 1.391 . S
C2583 C2582 1.386 . S
C2583 C2587 1.393 . S
C2584 H2573 0.950 . S
C2584 C2582 1.391 . S
C2584 C2585 1.400 . S
C2585 C2579 1.491 . S
C2585 C2584 1.400 . S
C2585 C2586 1.398 . S
C2586 H2574 0.950 . S
C2586 C2585 1.398 . S
C2586 C2587 1.391 . S
C2587 H2575 0.950 . S
C2587 C2583 1.393 . S
C2587 C2586 1.391 . S
H2588 C2596 0.950 . S
H2589 C2601 0.950 . S
H2590 C2598 0.950 . S
H2591 C2600 0.950 . S
H2592 C2602 0.950 . S
H2593 C2604 0.950 . S
H2594 C2606 0.950 . S
H2595 C2607 0.950 . S
C2596 H2588 0.950 . S
C2596 C2597 1.386 . S
C2596 C2598 1.391 . S
C2597 C2596 1.386 . S
C2597 C2601 1.393 . S
C2598 H2590 0.950 . S
C2598 C2596 1.391 . S
C2598 C2599 1.400 . S
C2599 C2598 1.400 . S
C2599 C2600 1.398 . S
C2599 C2605 1.491 . S
C2600 H2591 0.950 . S
C2600 C2599 1.398 . S
C2600 C2601 1.391 . S
C2601 H2589 0.950 . S
C2601 C2597 1.393 . S
C2601 C2600 1.391 . S
C2602 H2592 0.950 . S
C2602 C2603 1.386 . S
C2602 C2604 1.391 . S
C2603 C2602 1.386 . S
C2603 C2607 1.393 . S
C2604 H2593 0.950 . S
C2604 C2602 1.391 . S
C2604 C2605 1.400 . S
C2605 C2599 1.491 . S
C2605 C2604 1.400 . S
C2605 C2606 1.398 . S
C2606 H2594 0.950 . S
C2606 C2605 1.398 . S
C2606 C2607 1.391 . S
C2607 H2595 0.950 . S
C2607 C2603 1.393 . S
C2607 C2606 1.391 . S
H2608 C2616 0.950 . S
H2609 C2621 0.950 . S
H2610 C2618 0.950 . S
H2611 C2620 0.950 . S
H2612 C2622 0.950 . S
H2613 C2624 0.950 . S
H2614 C2626 0.950 . S
H2615 C2627 0.950 . S
C2616 H2608 0.950 . S
C2616 C2617 1.386 . S
C2616 C2618 1.391 . S
C2617 C2616 1.386 . S
C2617 C2621 1.393 . S
C2618 H2610 0.950 . S
C2618 C2616 1.391 . S
C2618 C2619 1.400 . S
C2619 C2618 1.400 . S
C2619 C2620 1.398 . S
C2619 C2625 1.491 . S
C2620 H2611 0.950 . S
C2620 C2619 1.398 . S
C2620 C2621 1.391 . S
C2621 H2609 0.950 . S
C2621 C2617 1.393 . S
C2621 C2620 1.391 . S
C2622 H2612 0.950 . S
C2622 C2623 1.386 . S
C2622 C2624 1.391 . S
C2623 C2622 1.386 . S
C2623 C2627 1.393 . S
C2624 H2613 0.950 . S
C2624 C2622 1.391 . S
C2624 C2625 1.400 . S
C2625 C2619 1.491 . S
C2625 C2624 1.400 . S
C2625 C2626 1.398 . S
C2626 H2614 0.950 . S
C2626 C2625 1.398 . S
C2626 C2627 1.391 . S
C2627 H2615 0.950 . S
C2627 C2623 1.393 . S
C2627 C2626 1.391 . S
H2628 C2636 0.950 . S
H2629 C2641 0.950 . S
H2630 C2638 0.950 . S
H2631 C2640 0.950 . S
H2632 C2642 0.950 . S
H2633 C2644 0.950 . S
H2634 C2646 0.950 . S
H2635 C2647 0.950 . S
C2636 H2628 0.950 . S
C2636 C2637 1.386 . S
C2636 C2638 1.391 . S
C2637 C2636 1.386 . S
C2637 C2641 1.393 . S
C2638 H2630 0.950 . S
C2638 C2636 1.391 . S
C2638 C2639 1.400 . S
C2639 C2638 1.400 . S
C2639 C2640 1.398 . S
C2639 C2645 1.491 . S
C2640 H2631 0.950 . S
C2640 C2639 1.398 . S
C2640 C2641 1.391 . S
C2641 H2629 0.950 . S
C2641 C2637 1.393 . S
C2641 C2640 1.391 . S
C2642 H2632 0.950 . S
C2642 C2643 1.386 . S
C2642 C2644 1.391 . S
C2643 C2642 1.386 . S
C2643 C2647 1.393 . S
C2644 H2633 0.950 . S
C2644 C2642 1.391 . S
C2644 C2645 1.400 . S
C2645 C2639 1.491 . S
C2645 C2644 1.400 . S
C2645 C2646 1.398 . S
C2646 H2634 0.950 . S
C2646 C2645 1.398 . S
C2646 C2647 1.391 . S
C2647 H2635 0.950 . S
C2647 C2643 1.393 . S
C2647 C2646 1.391 . S
H2648 C2656 0.950 . S
H2649 C2661 0.950 . S
H2650 C2658 0.950 . S
H2651 C2660 0.950 . S
H2652 C2662 0.950 . S
H2653 C2664 0.950 . S
H2654 C2666 0.950 . S
H2655 C2667 0.950 . S
C2656 H2648 0.950 . S
C2656 C2657 1.386 . S
C2656 C2658 1.391 . S
C2657 C2656 1.386 . S
C2657 C2661 1.393 . S
C2658 H2650 0.950 . S
C2658 C2656 1.391 . S
C2658 C2659 1.400 . S
C2659 C2658 1.400 . S
C2659 C2660 1.398 . S
C2659 C2665 1.491 . S
C2660 H2651 0.950 . S
C2660 C2659 1.398 . S
C2660 C2661 1.391 . S
C2661 H2649 0.950 . S
C2661 C2657 1.393 . S
C2661 C2660 1.391 . S
C2662 H2652 0.950 . S
C2662 C2663 1.386 . S
C2662 C2664 1.391 . S
C2663 C2662 1.386 . S
C2663 C2667 1.393 . S
C2664 H2653 0.950 . S
C2664 C2662 1.391 . S
C2664 C2665 1.400 . S
C2665 C2659 1.491 . S
C2665 C2664 1.400 . S
C2665 C2666 1.398 . S
C2666 H2654 0.950 . S
C2666 C2665 1.398 . S
C2666 C2667 1.391 . S
C2667 H2655 0.950 . S
C2667 C2663 1.393 . S
C2667 C2666 1.391 . S
H2668 C2676 0.950 . S
H2669 C2681 0.950 . S
H2670 C2678 0.950 . S
H2671 C2680 0.950 . S
H2672 C2682 0.950 . S
H2673 C2684 0.950 . S
H2674 C2686 0.950 . S
H2675 C2687 0.950 . S
C2676 H2668 0.950 . S
C2676 C2677 1.386 . S
C2676 C2678 1.391 . S
C2677 C2676 1.386 . S
C2677 C2681 1.393 . S
C2678 H2670 0.950 . S
C2678 C2676 1.391 . S
C2678 C2679 1.400 . S
C2679 C2678 1.400 . S
C2679 C2680 1.398 . S
C2679 C2685 1.491 . S
C2680 H2671 0.950 . S
C2680 C2679 1.398 . S
C2680 C2681 1.391 . S
C2681 H2669 0.950 . S
C2681 C2677 1.393 . S
C2681 C2680 1.391 . S
C2682 H2672 0.950 . S
C2682 C2683 1.386 . S
C2682 C2684 1.391 . S
C2683 C2682 1.386 . S
C2683 C2687 1.393 . S
C2684 H2673 0.950 . S
C2684 C2682 1.391 . S
C2684 C2685 1.400 . S
C2685 C2679 1.491 . S
C2685 C2684 1.400 . S
C2685 C2686 1.398 . S
C2686 H2674 0.950 . S
C2686 C2685 1.398 . S
C2686 C2687 1.391 . S
C2687 H2675 0.950 . S
C2687 C2683 1.393 . S
C2687 C2686 1.391 . S
C1097 C33 1.480 . S
C1103 C67 1.479 . S
C1117 C135 1.480 . S
C1123 C101 1.479 . S
C1137 C203 1.480 . S
C1143 C169 1.479 . S
C1157 C271 1.483 . S
C1163 C237 1.482 . S
C1177 C339 1.482 . S
C1183 C305 1.480 . S
C1197 C407 1.479 . S
C1203 C373 1.480 . S
C1217 C441 1.479 . S
C1223 C475 1.481 . S
C1237 C543 1.480 . S
C1243 C509 1.479 . S
C1257 C577 1.479 . S
C1263 C611 1.480 . S
C1277 C645 1.481 . S
C1283 C679 1.479 . S
C1297 C747 1.481 . S
C1303 C713 1.483 . S
C1317 C781 1.483 . S
C1323 C815 1.481 . S
C1337 C849 1.479 . S
C1343 C883 1.481 . S
C1357 C917 1.480 . S
C1363 C951 1.479 . S
C1377 C985 1.483 . S
C1383 C1019 1.480 . S
C1397 C1053 1.483 . S
C1403 C1087 1.482 . S
C1417 C9 0.519 . S
C1423 C655 0.547 . S
C1437 C621 0.516 . S
C1443 C43 0.579 . S
C1457 C587 0.514 . S
C1463 C77 0.567 . S
C1477 C111 0.564 . S
C1483 C553 0.514 . S
C1497 C791 0.569 . S
C1503 C145 0.514 . S
C1517 C757 0.544 . S
C1523 C179 0.521 . S
C1537 C723 0.565 . S
C1543 C213 0.514 . S
C1557 C689 0.563 . S
C1563 C247 0.514 . S
C1577 C281 0.595 . S
C1583 C927 0.542 . S
C1597 C893 0.524 . S
C1603 C315 0.539 . S
C1617 C349 0.550 . S
C1623 C859 0.595 . S
C1637 C825 0.514 . S
C1643 C383 0.564 . S
C1657 C417 0.562 . S
C1663 C1063 0.514 . S
C1677 C451 0.593 . S
C1683 C1029 0.561 . S
C1697 C995 0.572 . S
C1703 C485 0.587 . S
C1717 C519 0.535 . S
C1723 C961 0.528 . S
C1737 C141 0.520 . S
C1743 C5 0.520 . S
C1757 C991 0.577 . S
C1763 C39 0.577 . S
C1777 C481 0.521 . S
C1783 C73 0.521 . S
C1797 C107 0.519 . S
C1803 C787 0.519 . S
C1817 C175 0.574 . S
C1823 C855 0.574 . S
C1837 C209 0.574 . S
C1843 C345 0.574 . S
C1857 C651 0.568 . S
C1863 C243 0.568 . S
C1877 C277 0.518 . S
C1883 C413 0.518 . S
C1897 C719 0.575 . S
C1903 C311 0.575 . S
C1917 C1059 0.539 . S
C1923 C379 0.539 . S
C1937 C447 0.563 . S
C1943 C583 0.563 . S
C1957 C923 0.513 . S
C1963 C515 0.513 . S
C1977 C685 0.574 . S
C1983 C549 0.574 . S
C1997 C1025 0.545 . S
C2003 C617 0.545 . S
C2017 C753 0.540 . S
C2023 C889 0.540 . S
C2037 C957 0.514 . S
C2043 C821 0.514 . S
C2057 C784 2.453 . S
C2063 C20 2.472 . S
C2077 C478 2.454 . S
C2083 C54 2.472 1_655 S
C2097 C988 2.447 . S
C2103 C88 2.469 . S
C2117 C122 2.471 1_655 S
C2123 C138 2.452 . S
C2137 C156 2.471 . S
C2143 C648 2.451 . S
C2157 C342 2.447 . S
C2163 C190 2.469 1_455 S
C2177 C224 2.472 . S
C2183 C852 2.454 . S
C2197 C258 2.469 1_455 S
C2203 C2 2.446 . S
C2217 C292 2.472 1_554 S
C2223 C1056 2.454 . S
C2237 C206 2.454 . S
C2243 C326 2.472 1_654 S
C2257 C360 2.472 . S
C2263 C716 2.454 . S
C2277 C394 2.472 1_655 S
C2283 C410 2.454 . S
C2297 C428 2.472 1_556 S
C2303 C920 2.454 . S
C2317 C70 2.451 . S
C2323 C462 2.471 1_456 S
C2337 C580 2.454 . S
C2343 C496 2.472 . S
C2357 C530 2.469 1_455 S
C2363 C274 2.446 . S
C2377 C240 2.447 . S
C2383 C564 2.469 1_554 S
C2397 C1022 2.454 . S
C2403 C598 2.472 1_554 S
C2417 C444 2.449 . S
C2423 C632 2.470 . S
C2437 C666 2.470 . S
C2443 C682 2.449 . S
C2457 C700 2.470 1_556 S
C2463 C104 2.449 . S
C2477 C886 2.451 . S
C2483 C734 2.471 1_556 S
C2497 C768 2.469 . S
C2503 C308 2.446 . S
C2517 C802 2.472 . S
C2523 C546 2.454 . S
C2537 C512 2.454 . S
C2543 C836 2.472 . S
C2557 C870 2.469 . S
C2563 C750 2.445 . S
C2577 C904 2.470 . S
C2583 C172 2.448 . S
C2597 C954 2.448 . S
C2603 C938 2.469 . S
C2617 C972 2.472 . S
C2623 C376 2.454 . S
C2637 C1006 2.470 . S
C2643 C614 2.449 . S
C2657 C36 2.449 . S
C2663 C1040 2.470 . S
C2677 C818 2.453 . S
C2683 C1074 2.472 . S
