# Generated by pormake.
# Topology ukd, (4)-cn, num edge types: 1
# Building blocks:
#     Node 0, Type 0, BuildingBlock: KUFVIS_clean_sbu_0, # of connection points: 4
#     Node 1, Type 0, BuildingBlock: KUFVIS_clean_sbu_0, # of connection points: 4
#     Node 2, Type 0, BuildingBlock: KUFVIS_clean_sbu_0, # of connection points: 4
#     Node 3, Type 0, BuildingBlock: KUFVIS_clean_sbu_0, # of connection points: 4
#     Node 4, Type 0, BuildingBlock: KUFVIS_clean_sbu_0, # of connection points: 4
#     Node 5, Type 0, BuildingBlock: KUFVIS_clean_sbu_0, # of connection points: 4
#     Node 6, Type 0, BuildingBlock: KUFVIS_clean_sbu_0, # of connection points: 4
#     Node 7, Type 0, BuildingBlock: KUFVIS_clean_sbu_0, # of connection points: 4
#     Node 8, Type 0, BuildingBlock: KUFVIS_clean_sbu_0, # of connection points: 4
#     Node 9, Type 0, BuildingBlock: KUFVIS_clean_sbu_0, # of connection points: 4
#     Node 10, Type 0, BuildingBlock: KUFVIS_clean_sbu_0, # of connection points: 4
#     Node 11, Type 0, BuildingBlock: KUFVIS_clean_sbu_0, # of connection points: 4
#     Node 12, Type 0, BuildingBlock: KUFVIS_clean_sbu_0, # of connection points: 4
#     Node 13, Type 0, BuildingBlock: KUFVIS_clean_sbu_0, # of connection points: 4
#     Node 14, Type 0, BuildingBlock: KUFVIS_clean_sbu_0, # of connection points: 4
#     Node 15, Type 0, BuildingBlock: KUFVIS_clean_sbu_0, # of connection points: 4
#     Node 16, Type 0, BuildingBlock: KUFVIS_clean_sbu_0, # of connection points: 4
#     Node 17, Type 0, BuildingBlock: KUFVIS_clean_sbu_0, # of connection points: 4
#     Node 18, Type 0, BuildingBlock: KUFVIS_clean_sbu_0, # of connection points: 4
#     Node 19, Type 0, BuildingBlock: KUFVIS_clean_sbu_0, # of connection points: 4
#     Node 20, Type 0, BuildingBlock: KUFVIS_clean_sbu_0, # of connection points: 4
#     Node 21, Type 0, BuildingBlock: KUFVIS_clean_sbu_0, # of connection points: 4
#     Node 22, Type 0, BuildingBlock: KUFVIS_clean_sbu_0, # of connection points: 4
#     Node 23, Type 0, BuildingBlock: KUFVIS_clean_sbu_0, # of connection points: 4
#     Node 24, Type 0, BuildingBlock: KUFVIS_clean_sbu_0, # of connection points: 4
#     Node 25, Type 0, BuildingBlock: KUFVIS_clean_sbu_0, # of connection points: 4
#     Node 26, Type 0, BuildingBlock: KUFVIS_clean_sbu_0, # of connection points: 4
#     Node 27, Type 0, BuildingBlock: KUFVIS_clean_sbu_0, # of connection points: 4
#     Node 28, Type 0, BuildingBlock: KUFVIS_clean_sbu_0, # of connection points: 4
#     Node 29, Type 0, BuildingBlock: KUFVIS_clean_sbu_0, # of connection points: 4
#     Node 30, Type 0, BuildingBlock: KUFVIS_clean_sbu_0, # of connection points: 4
#     Node 31, Type 0, BuildingBlock: KUFVIS_clean_sbu_0, # of connection points: 4
#     Edge 32, Type (0, 0), BuildingBlock: EZIPEK_clean_linker_0, # of connection points: 2
#     Edge 33, Type (0, 0), BuildingBlock: EZIPEK_clean_linker_0, # of connection points: 2
#     Edge 34, Type (0, 0), BuildingBlock: EZIPEK_clean_linker_0, # of connection points: 2
#     Edge 35, Type (0, 0), BuildingBlock: EZIPEK_clean_linker_0, # of connection points: 2
#     Edge 36, Type (0, 0), BuildingBlock: EZIPEK_clean_linker_0, # of connection points: 2
#     Edge 37, Type (0, 0), BuildingBlock: EZIPEK_clean_linker_0, # of connection points: 2
#     Edge 38, Type (0, 0), BuildingBlock: EZIPEK_clean_linker_0, # of connection points: 2
#     Edge 39, Type (0, 0), BuildingBlock: EZIPEK_clean_linker_0, # of connection points: 2
#     Edge 40, Type (0, 0), BuildingBlock: EZIPEK_clean_linker_0, # of connection points: 2
#     Edge 41, Type (0, 0), BuildingBlock: EZIPEK_clean_linker_0, # of connection points: 2
#     Edge 42, Type (0, 0), BuildingBlock: EZIPEK_clean_linker_0, # of connection points: 2
#     Edge 43, Type (0, 0), BuildingBlock: EZIPEK_clean_linker_0, # of connection points: 2
#     Edge 44, Type (0, 0), BuildingBlock: EZIPEK_clean_linker_0, # of connection points: 2
#     Edge 45, Type (0, 0), BuildingBlock: EZIPEK_clean_linker_0, # of connection points: 2
#     Edge 46, Type (0, 0), BuildingBlock: EZIPEK_clean_linker_0, # of connection points: 2
#     Edge 47, Type (0, 0), BuildingBlock: EZIPEK_clean_linker_0, # of connection points: 2
#     Edge 48, Type (0, 0), BuildingBlock: EZIPEK_clean_linker_0, # of connection points: 2
#     Edge 49, Type (0, 0), BuildingBlock: EZIPEK_clean_linker_0, # of connection points: 2
#     Edge 50, Type (0, 0), BuildingBlock: EZIPEK_clean_linker_0, # of connection points: 2
#     Edge 51, Type (0, 0), BuildingBlock: EZIPEK_clean_linker_0, # of connection points: 2
#     Edge 52, Type (0, 0), BuildingBlock: EZIPEK_clean_linker_0, # of connection points: 2
#     Edge 53, Type (0, 0), BuildingBlock: EZIPEK_clean_linker_0, # of connection points: 2
#     Edge 54, Type (0, 0), BuildingBlock: EZIPEK_clean_linker_0, # of connection points: 2
#     Edge 55, Type (0, 0), BuildingBlock: EZIPEK_clean_linker_0, # of connection points: 2
#     Edge 56, Type (0, 0), BuildingBlock: EZIPEK_clean_linker_0, # of connection points: 2
#     Edge 57, Type (0, 0), BuildingBlock: EZIPEK_clean_linker_0, # of connection points: 2
#     Edge 58, Type (0, 0), BuildingBlock: EZIPEK_clean_linker_0, # of connection points: 2
#     Edge 59, Type (0, 0), BuildingBlock: EZIPEK_clean_linker_0, # of connection points: 2
#     Edge 60, Type (0, 0), BuildingBlock: EZIPEK_clean_linker_0, # of connection points: 2
#     Edge 61, Type (0, 0), BuildingBlock: EZIPEK_clean_linker_0, # of connection points: 2
#     Edge 62, Type (0, 0), BuildingBlock: EZIPEK_clean_linker_0, # of connection points: 2
#     Edge 63, Type (0, 0), BuildingBlock: EZIPEK_clean_linker_0, # of connection points: 2
#     Edge 64, Type (0, 0), BuildingBlock: EZIPEK_clean_linker_0, # of connection points: 2
#     Edge 65, Type (0, 0), BuildingBlock: EZIPEK_clean_linker_0, # of connection points: 2
#     Edge 66, Type (0, 0), BuildingBlock: EZIPEK_clean_linker_0, # of connection points: 2
#     Edge 67, Type (0, 0), BuildingBlock: EZIPEK_clean_linker_0, # of connection points: 2
#     Edge 68, Type (0, 0), BuildingBlock: EZIPEK_clean_linker_0, # of connection points: 2
#     Edge 69, Type (0, 0), BuildingBlock: EZIPEK_clean_linker_0, # of connection points: 2
#     Edge 70, Type (0, 0), BuildingBlock: EZIPEK_clean_linker_0, # of connection points: 2
#     Edge 71, Type (0, 0), BuildingBlock: EZIPEK_clean_linker_0, # of connection points: 2
#     Edge 72, Type (0, 0), BuildingBlock: EZIPEK_clean_linker_0, # of connection points: 2
#     Edge 73, Type (0, 0), BuildingBlock: EZIPEK_clean_linker_0, # of connection points: 2
#     Edge 74, Type (0, 0), BuildingBlock: EZIPEK_clean_linker_0, # of connection points: 2
#     Edge 75, Type (0, 0), BuildingBlock: EZIPEK_clean_linker_0, # of connection points: 2
#     Edge 76, Type (0, 0), BuildingBlock: EZIPEK_clean_linker_0, # of connection points: 2
#     Edge 77, Type (0, 0), BuildingBlock: EZIPEK_clean_linker_0, # of connection points: 2
#     Edge 78, Type (0, 0), BuildingBlock: EZIPEK_clean_linker_0, # of connection points: 2
#     Edge 79, Type (0, 0), BuildingBlock: EZIPEK_clean_linker_0, # of connection points: 2
#     Edge 80, Type (0, 0), BuildingBlock: EZIPEK_clean_linker_0, # of connection points: 2
#     Edge 81, Type (0, 0), BuildingBlock: EZIPEK_clean_linker_0, # of connection points: 2
#     Edge 82, Type (0, 0), BuildingBlock: EZIPEK_clean_linker_0, # of connection points: 2
#     Edge 83, Type (0, 0), BuildingBlock: EZIPEK_clean_linker_0, # of connection points: 2
#     Edge 84, Type (0, 0), BuildingBlock: EZIPEK_clean_linker_0, # of connection points: 2
#     Edge 85, Type (0, 0), BuildingBlock: EZIPEK_clean_linker_0, # of connection points: 2
#     Edge 86, Type (0, 0), BuildingBlock: EZIPEK_clean_linker_0, # of connection points: 2
#     Edge 87, Type (0, 0), BuildingBlock: EZIPEK_clean_linker_0, # of connection points: 2
#     Edge 88, Type (0, 0), BuildingBlock: EZIPEK_clean_linker_0, # of connection points: 2
#     Edge 89, Type (0, 0), BuildingBlock: EZIPEK_clean_linker_0, # of connection points: 2
#     Edge 90, Type (0, 0), BuildingBlock: EZIPEK_clean_linker_0, # of connection points: 2
#     Edge 91, Type (0, 0), BuildingBlock: EZIPEK_clean_linker_0, # of connection points: 2
#     Edge 92, Type (0, 0), BuildingBlock: EZIPEK_clean_linker_0, # of connection points: 2
#     Edge 93, Type (0, 0), BuildingBlock: EZIPEK_clean_linker_0, # of connection points: 2
#     Edge 94, Type (0, 0), BuildingBlock: EZIPEK_clean_linker_0, # of connection points: 2
#     Edge 95, Type (0, 0), BuildingBlock: EZIPEK_clean_linker_0, # of connection points: 2
# Relax obj value: 0.059
# Max RMSD: 0.104
# Mean RMSD: 0.102
data_MOF--net-ukd--node1-KUFVIS_clean_sbu_0--edge1-EZIPEK_clean_linker_0
_symmetry_space_group_name_H-M    P1
_symmetry_Int_Tables_number       1
_symmetry_cell_setting            triclinic
loop_
_symmetry_equiv_pos_as_xyz
'x, y, z'
_cell_length_a     32.73898
_cell_length_b     32.742075
_cell_length_c     52.772884
_cell_angle_alpha  90.012093
_cell_angle_beta   89.919378
_cell_angle_gamma 90.042095
loop_
_atom_site_label
_atom_site_type_symbol
_atom_site_fract_x
_atom_site_fract_y
_atom_site_fract_z
_atom_type_partial_charge
Mn0 Mn 0.21987 0.18605 0.35079 0.0
Mn1 Mn 0.12669 0.20655 0.32655 0.0
C2 C 0.16151 0.15741 0.36866 0.0
C3 C 0.27772 0.14445 0.35555 0.0
C4 C 0.17258 0.26571 0.35963 0.0
O5 O 0.23391 0.20872 0.31539 0.0
O6 O 0.17024 0.22224 0.30194 0.0
C7 C 0.13049 0.13865 0.28947 0.0
N8 N 0.10954 0.16022 0.30726 0.0
C9 C 0.05119 0.11596 0.30335 0.0
C10 C 0.0709 0.09533 0.28351 0.0
C11 C 0.11111 0.10613 0.27694 0.0
C12 C 0.07225 0.14787 0.3152 0.0
H13 H 0.16203 0.14565 0.28539 0.0
C14 C 0.2091 0.22331 0.29888 0.0
O15 O 0.27798 0.18252 0.36246 0.0
O16 O 0.24576 0.13231 0.34314 0.0
N17 N 0.08083 0.19468 0.34788 0.0
C18 C 0.06802 0.2149 0.36902 0.0
C19 C 0.03021 0.20479 0.37999 0.0
C20 C 0.0055 0.17474 0.36876 0.0
C21 C 0.01888 0.15506 0.34665 0.0
C22 C 0.05694 0.16628 0.33667 0.0
H23 H 0.0865 0.23862 0.37744 0.0
O24 O 0.19472 0.16102 0.38175 0.0
O25 O 0.16331 0.17094 0.34554 0.0
O26 O 0.20443 0.24387 0.36294 0.0
O27 O 0.14162 0.25454 0.34674 0.0
C28 C 0.99602 0.12468 0.33414 0.0
C29 C 0.01222 0.10503 0.31254 0.0
H30 H 0.05609 0.07012 0.2739 0.0
H31 H 0.12726 0.08914 0.26247 0.0
H32 H 0.01997 0.22039 0.39692 0.0
H33 H 0.97632 0.16707 0.37724 0.0
H34 H 0.96629 0.11567 0.34122 0.0
H35 H 0.99497 0.08077 0.30359 0.0
Mn36 Mn 0.06877 0.96906 0.60548 0.0
Mn37 Mn 0.05537 0.87554 0.57997 0.0
C38 C 0.09826 0.9121 0.62426 0.0
C39 C 0.10538 0.02969 0.61074 0.0
C40 C 0.99087 0.91669 0.61143 0.0
O41 O 0.04909 0.98253 0.56956 0.0
O42 O 0.03761 0.91875 0.55592 0.0
C43 C 0.12498 0.88863 0.54509 0.0
N44 N 0.10464 0.86431 0.5618 0.0
C45 C 0.1582 0.8141 0.56043 0.0
C46 C 0.17812 0.83714 0.54174 0.0
C47 C 0.16178 0.87495 0.53436 0.0
C48 C 0.12159 0.82933 0.57037 0.0
H49 H 0.11379 0.91875 0.5406 0.0
C50 C 0.03559 0.95746 0.55294 0.0
O51 O 0.06687 0.02747 0.61646 0.0
O52 O 0.12174 0.99792 0.60014 0.0
N53 N 0.06958 0.82951 0.60045 0.0
C54 C 0.0475 0.81203 0.6195 0.0
C55 C 0.06069 0.77492 0.63005 0.0
C56 C 0.09597 0.75583 0.6206 0.0
C57 C 0.1176 0.7739 0.60055 0.0
C58 C 0.10265 0.81057 0.59059 0.0
H59 H 0.02002 0.82628 0.62659 0.0
O60 O 0.09216 0.94515 0.63723 0.0
O61 O 0.08685 0.91346 0.60072 0.0
O62 O 0.01053 0.94999 0.61501 0.0
O63 O 0.00502 0.88595 0.59934 0.0
C64 C 0.15334 0.75698 0.59 0.0
C65 C 0.17392 0.77731 0.57019 0.0
H66 H 0.20668 0.8268 0.53358 0.0
H67 H 0.17786 0.89382 0.52077 0.0
H68 H 0.04371 0.76105 0.64541 0.0
H69 H 0.10609 0.7273 0.62885 0.0
H70 H 0.16558 0.72858 0.59708 0.0
H71 H 0.20198 0.76454 0.56272 0.0
Mn72 Mn 0.28494 0.81522 0.86071 0.0
Mn73 Mn 0.37285 0.80284 0.82746 0.0
C74 C 0.34465 0.84665 0.87403 0.0
C75 C 0.22523 0.85205 0.86958 0.0
C76 C 0.33917 0.73855 0.86266 0.0
O77 O 0.26424 0.79257 0.82708 0.0
O78 O 0.32469 0.78628 0.80663 0.0
C79 C 0.35943 0.86706 0.78889 0.0
N80 N 0.38271 0.85071 0.80766 0.0
C81 C 0.43557 0.90068 0.80088 0.0
C82 C 0.41203 0.91818 0.78155 0.0
C83 C 0.3737 0.9014 0.77562 0.0
C84 C 0.41938 0.86697 0.81376 0.0
H85 H 0.33038 0.85377 0.78402 0.0
C86 C 0.28574 0.78232 0.80788 0.0
O87 O 0.22902 0.81411 0.87641 0.0
O88 O 0.25464 0.86753 0.85625 0.0
N89 N 0.42204 0.81698 0.84501 0.0
C90 C 0.44099 0.79645 0.86415 0.0
C91 C 0.47938 0.80977 0.87268 0.0
C92 C 0.49843 0.84329 0.86099 0.0
C93 C 0.47887 0.8632 0.84086 0.0
C94 C 0.44037 0.84889 0.8334 0.0
H95 H 0.42685 0.77021 0.87293 0.0
O96 O 0.31476 0.84047 0.88967 0.0
O97 O 0.33876 0.8345 0.85082 0.0
O98 O 0.30698 0.75781 0.86956 0.0
O99 O 0.36597 0.75305 0.84761 0.0
C100 C 0.49607 0.89666 0.82787 0.0
C101 C 0.47443 0.91539 0.80789 0.0
H102 H 0.42308 0.94447 0.77113 0.0
H103 H 0.35538 0.91466 0.76068 0.0
H104 H 0.49437 0.7941 0.88813 0.0
H105 H 0.52812 0.85335 0.86756 0.0
H106 H 0.52576 0.90843 0.83323 0.0
H107 H 0.48779 0.94134 0.79822 0.0
Mn108 Mn 0.4362 0.03942 0.10338 0.0
Mn109 Mn 0.45441 0.1312 0.07641 0.0
C110 C 0.40694 0.09843 0.11994 0.0
C111 C 0.39563 0.98109 0.10985 0.0
C112 C 0.51531 0.08899 0.11002 0.0
O113 O 0.45816 0.02333 0.06819 0.0
O114 O 0.47072 0.08624 0.05306 0.0
C115 C 0.38593 0.12261 0.04013 0.0
N116 N 0.40736 0.14558 0.05699 0.0
C117 C 0.36143 0.20225 0.05172 0.0
C118 C 0.34088 0.1804 0.03275 0.0
C119 C 0.35261 0.14003 0.02735 0.0
C120 C 0.3942 0.1831 0.06386 0.0
H121 H 0.39368 0.09098 0.03699 0.0
C122 C 0.47222 0.04726 0.05099 0.0
O123 O 0.43379 0.98194 0.11652 0.0
O124 O 0.38271 0.01219 0.09695 0.0
N125 N 0.44173 0.17831 0.0964 0.0
C126 C 0.46169 0.19309 0.11712 0.0
C127 C 0.4505 0.23125 0.12714 0.0
C128 C 0.41977 0.25432 0.11535 0.0
C129 C 0.40034 0.23889 0.0937 0.0
C130 C 0.41257 0.20056 0.0847 0.0
H131 H 0.48589 0.17583 0.12597 0.0
O132 O 0.41146 0.06626 0.1339 0.0
O133 O 0.41999 0.09524 0.09677 0.0
O134 O 0.49418 0.05686 0.11432 0.0
O135 O 0.50309 0.119 0.09664 0.0
C136 C 0.36904 0.25984 0.08081 0.0
C137 C 0.34952 0.2415 0.05986 0.0
H138 H 0.31503 0.19367 0.02298 0.0
H139 H 0.33572 0.12225 0.0136 0.0
H140 H 0.46568 0.24296 0.14383 0.0
H141 H 0.41126 0.28375 0.12312 0.0
H142 H 0.35912 0.28967 0.08719 0.0
H143 H 0.32453 0.25727 0.05067 0.0
Mn144 Mn 0.2191 0.82101 0.15417 0.0
Mn145 Mn 0.12669 0.80092 0.1799 0.0
C146 C 0.1603 0.85047 0.13753 0.0
C147 C 0.2773 0.86216 0.14883 0.0
C148 C 0.17059 0.74176 0.14581 0.0
O149 O 0.23432 0.79775 0.18916 0.0
O150 O 0.17108 0.78445 0.20359 0.0
C151 C 0.13275 0.86817 0.21732 0.0
N152 N 0.11083 0.84701 0.19981 0.0
C153 C 0.05297 0.89144 0.20519 0.0
C154 C 0.07372 0.91159 0.2248 0.0
C155 C 0.11416 0.90051 0.23048 0.0
C156 C 0.07326 0.85965 0.19272 0.0
H157 H 0.16444 0.86096 0.2207 0.0
C158 C 0.21002 0.78309 0.20598 0.0
O159 O 0.27686 0.82424 0.14161 0.0
O160 O 0.24584 0.87441 0.1617 0.0
N161 N 0.08013 0.81359 0.15947 0.0
C162 C 0.06655 0.79431 0.1382 0.0
C163 C 0.02859 0.80525 0.12783 0.0
C164 C 0.00444 0.83493 0.13987 0.0
C165 C 0.01864 0.85365 0.16209 0.0
C166 C 0.0569 0.84181 0.17137 0.0
H167 H 0.08462 0.77086 0.12915 0.0
O168 O 0.19292 0.8468 0.12382 0.0
O169 O 0.16294 0.8365 0.1605 0.0
O170 O 0.20253 0.7634 0.14204 0.0
O171 O 0.14021 0.75311 0.15919 0.0
C172 C 0.99656 0.88388 0.17526 0.0
C173 C 0.01374 0.90284 0.19679 0.0
H174 H 0.05954 0.93669 0.23487 0.0
H175 H 0.13109 0.91715 0.24474 0.0
H176 H 0.01788 0.79069 0.11068 0.0
H177 H 0.97514 0.84322 0.13185 0.0
H178 H 0.96673 0.89341 0.1687 0.0
H179 H 0.99709 0.92704 0.20623 0.0
Mn180 Mn 0.43633 0.9677 0.40158 0.0
Mn181 Mn 0.45496 0.87612 0.42869 0.0
C182 C 0.40808 0.90833 0.38485 0.0
C183 C 0.3954 0.0256 0.39492 0.0
C184 C 0.51631 0.91962 0.39573 0.0
O185 O 0.4574 0.98394 0.43693 0.0
O186 O 0.46911 0.92112 0.45255 0.0
C187 C 0.3845 0.88232 0.4638 0.0
N188 N 0.40747 0.86016 0.44729 0.0
C189 C 0.36325 0.8019 0.45181 0.0
C190 C 0.3413 0.82288 0.47058 0.0
C191 C 0.35136 0.86365 0.47614 0.0
C192 C 0.39582 0.82226 0.44016 0.0
H193 H 0.39082 0.91428 0.46688 0.0
C194 C 0.47051 0.96016 0.45446 0.0
O195 O 0.43369 0.02512 0.38848 0.0
O196 O 0.38245 0.99433 0.40771 0.0
N197 N 0.44429 0.82905 0.40821 0.0
C198 C 0.46526 0.81531 0.38758 0.0
C199 C 0.45544 0.77706 0.37714 0.0
C200 C 0.42507 0.75281 0.38847 0.0
C201 C 0.4046 0.76719 0.41006 0.0
C202 C 0.41542 0.80571 0.41945 0.0
H203 H 0.48919 0.83347 0.37909 0.0
O204 O 0.41244 0.94058 0.37091 0.0
O205 O 0.42067 0.91167 0.40807 0.0
O206 O 0.49466 0.95113 0.39093 0.0
O207 O 0.50432 0.8897 0.4093 0.0
C208 C 0.37356 0.74504 0.42248 0.0
C209 C 0.35284 0.7624 0.44334 0.0
H210 H 0.31554 0.80864 0.47999 0.0
H211 H 0.33327 0.88078 0.48963 0.0
H212 H 0.47136 0.76621 0.36048 0.0
H213 H 0.41762 0.72331 0.38039 0.0
H214 H 0.36478 0.71502 0.41583 0.0
H215 H 0.32805 0.7457 0.45216 0.0
Mn216 Mn 0.2843 0.18682 0.64918 0.0
Mn217 Mn 0.37467 0.2026 0.67908 0.0
C218 C 0.34349 0.15568 0.63434 0.0
C219 C 0.22425 0.14976 0.64264 0.0
C220 C 0.33505 0.26499 0.64478 0.0
O221 O 0.26652 0.21041 0.6834 0.0
O222 O 0.32831 0.21552 0.70234 0.0
C223 C 0.37079 0.13697 0.71759 0.0
N224 N 0.39042 0.15536 0.69794 0.0
C225 C 0.44804 0.11024 0.70221 0.0
C226 C 0.42839 0.09085 0.72254 0.0
C227 C 0.38947 0.10414 0.73016 0.0
C228 C 0.42763 0.14243 0.69021 0.0
H229 H 0.34126 0.14745 0.7236 0.0
C230 C 0.28931 0.21982 0.70221 0.0
O231 O 0.22745 0.18753 0.63547 0.0
O232 O 0.2546 0.13446 0.65523 0.0
N233 N 0.42209 0.19191 0.65883 0.0
C234 C 0.43626 0.21289 0.63831 0.0
C235 C 0.47413 0.20226 0.62764 0.0
C236 C 0.49761 0.17107 0.63861 0.0
C237 C 0.48277 0.15048 0.66002 0.0
C238 C 0.44449 0.16192 0.66956 0.0
H239 H 0.4187 0.23737 0.63001 0.0
O240 O 0.31214 0.16049 0.61966 0.0
O241 O 0.33933 0.16911 0.65741 0.0
O242 O 0.30405 0.24382 0.63826 0.0
O243 O 0.36249 0.25258 0.66001 0.0
C244 C 0.50431 0.11885 0.67219 0.0
C245 C 0.48697 0.09875 0.69327 0.0
H246 H 0.44281 0.06566 0.73236 0.0
H247 H 0.37405 0.08931 0.74581 0.0
H248 H 0.48523 0.21813 0.61103 0.0
H249 H 0.52689 0.1631 0.6304 0.0
H250 H 0.53405 0.10947 0.66535 0.0
H251 H 0.50359 0.07411 0.70226 0.0
Mn252 Mn 0.07094 0.03544 0.9055 0.0
Mn253 Mn 0.05319 0.1296 0.92938 0.0
C254 C 0.10082 0.09287 0.88702 0.0
C255 C 0.1085 0.97484 0.90141 0.0
C256 C 0.99213 0.08483 0.89725 0.0
O257 O 0.04927 0.0228 0.94128 0.0
O258 O 0.03641 0.08684 0.95423 0.0
C259 C 0.12099 0.12437 0.96641 0.0
N260 N 0.10007 0.1456 0.94849 0.0
C261 C 0.14532 0.20314 0.95248 0.0
C262 C 0.16546 0.18312 0.97235 0.0
C263 C 0.15382 0.14317 0.97896 0.0
C264 C 0.11315 0.18261 0.94056 0.0
H265 H 0.11311 0.0931 0.97066 0.0
C266 C 0.03501 0.0481 0.95761 0.0
O267 O 0.07033 0.97677 0.89502 0.0
O268 O 0.12408 0.00702 0.91205 0.0
N269 N 0.06617 0.17493 0.90793 0.0
C270 C 0.04615 0.18812 0.88683 0.0
C271 C 0.05693 0.22577 0.87592 0.0
C272 C 0.08738 0.24995 0.88718 0.0
C273 C 0.10684 0.23618 0.90923 0.0
C274 C 0.09502 0.19827 0.91912 0.0
H275 H 0.02208 0.17009 0.87843 0.0
O276 O 0.09592 0.05954 0.8741 0.0
O277 O 0.08775 0.09171 0.91027 0.0
O278 O 0.0131 0.05234 0.89422 0.0
O279 O 0.00447 0.11601 0.90949 0.0
C280 C 0.13753 0.25853 0.92181 0.0
C281 C 0.15688 0.24196 0.94337 0.0
H282 H 0.19084 0.19751 0.98202 0.0
H283 H 0.17032 0.12682 0.99353 0.0
H284 H 0.0415 0.23631 0.85902 0.0
H285 H 0.09551 0.27904 0.87876 0.0
H286 H 0.14696 0.28816 0.91483 0.0
H287 H 0.18134 0.25883 0.95239 0.0
Mn288 Mn 0.79227 0.80182 0.65454 0.0
Mn289 Mn 0.79543 0.89031 0.68699 0.0
C290 C 0.83657 0.85301 0.642 0.0
C291 C 0.81558 0.73555 0.64712 0.0
C292 C 0.72884 0.8702 0.64914 0.0
O293 O 0.7664 0.7864 0.68821 0.0
O294 O 0.76934 0.84655 0.70813 0.0
C295 C 0.85284 0.86528 0.72747 0.0
N296 N 0.84306 0.89064 0.70794 0.0
C297 C 0.90447 0.92987 0.71404 0.0
C298 C 0.91508 0.90429 0.73428 0.0
C299 C 0.88921 0.87177 0.74096 0.0
C300 C 0.8679 0.92183 0.70123 0.0
H301 H 0.8331 0.84026 0.73274 0.0
C302 C 0.75926 0.80868 0.70755 0.0
O303 O 0.77936 0.74697 0.64013 0.0
O304 O 0.83703 0.76208 0.65959 0.0
N305 N 0.82086 0.9345 0.66915 0.0
C306 C 0.8068 0.95577 0.64875 0.0
C307 C 0.8301 0.9882 0.639 0.0
C308 C 0.86713 0.99899 0.65061 0.0
C309 C 0.88051 0.97727 0.67193 0.0
C310 C 0.85618 0.94501 0.68068 0.0
H311 H 0.77829 0.94776 0.63976 0.0
O312 O 0.82442 0.82556 0.62593 0.0
O313 O 0.82129 0.85025 0.66469 0.0
O314 O 0.74121 0.83416 0.64404 0.0
O315 O 0.74634 0.89352 0.66523 0.0
C316 C 0.91717 0.98624 0.68473 0.0
C317 C 0.92904 0.96268 0.70585 0.0
H318 H 0.94313 0.90916 0.74471 0.0
H319 H 0.89727 0.85178 0.7565 0.0
H320 H 0.81964 0.00475 0.6225 0.0
H321 H 0.88502 0.02398 0.643 0.0
H322 H 0.9366 0.01101 0.6784 0.0
H323 H 0.95748 0.96963 0.71539 0.0
Mn324 Mn 0.95499 0.0417 0.40963 0.0
Mn325 Mn 0.86548 0.04596 0.44152 0.0
C326 C 0.90483 0.08614 0.3965 0.0
C327 C 0.02127 0.06471 0.4023 0.0
C328 C 0.8881 0.97716 0.40532 0.0
O329 O 0.96901 0.01632 0.44332 0.0
O330 O 0.90978 0.02544 0.46488 0.0
C331 C 0.87779 0.10669 0.48242 0.0
N332 N 0.85933 0.09559 0.46039 0.0
C333 C 0.81563 0.15474 0.46195 0.0
C334 C 0.83588 0.16783 0.48388 0.0
C335 C 0.86688 0.14349 0.49428 0.0
C336 C 0.82822 0.11797 0.45082 0.0
H337 H 0.89963 0.08697 0.49134 0.0
C338 C 0.94767 0.01486 0.46351 0.0
O339 O 0.0099 0.02827 0.39569 0.0
O340 O 0.99493 0.08641 0.4148 0.0
N341 N 0.82213 0.06653 0.42067 0.0
C342 C 0.80483 0.04929 0.39974 0.0
C343 C 0.77306 0.06968 0.38718 0.0
C344 C 0.75893 0.1073 0.39644 0.0
C345 C 0.77676 0.1242 0.41818 0.0
C346 C 0.80871 0.10272 0.42973 0.0
H347 H 0.8154 0.0204 0.39242 0.0
O348 O 0.93258 0.07322 0.38083 0.0
O349 O 0.90642 0.07133 0.41936 0.0
O350 O 0.92303 0.99068 0.39878 0.0
O351 O 0.86616 0.99422 0.42227 0.0
C352 C 0.76405 0.16154 0.42883 0.0
C353 C 0.78323 0.17662 0.45084 0.0
H354 H 0.8273 0.19606 0.49317 0.0
H355 H 0.88178 0.15267 0.51167 0.0
H356 H 0.75951 0.05644 0.37038 0.0
H357 H 0.73433 0.12289 0.38673 0.0
H358 H 0.73943 0.17882 0.42032 0.0
H359 H 0.77299 0.20522 0.45897 0.0
Mn360 Mn 0.71008 0.20427 0.16064 0.0
Mn361 Mn 0.70003 0.11454 0.19168 0.0
C362 C 0.66592 0.15451 0.14551 0.0
C363 C 0.68977 0.27164 0.15311 0.0
C364 C 0.77231 0.13481 0.15757 0.0
O365 O 0.73232 0.21741 0.19569 0.0
O366 O 0.72099 0.15727 0.21539 0.0
C367 C 0.63482 0.13729 0.22804 0.0
N368 N 0.64866 0.11289 0.20895 0.0
C369 C 0.58708 0.07273 0.20992 0.0
C370 C 0.57232 0.09726 0.22969 0.0
C371 C 0.59622 0.1298 0.23869 0.0
C372 C 0.6257 0.08177 0.19996 0.0
H373 H 0.65304 0.16232 0.23508 0.0
C374 C 0.73209 0.19487 0.21545 0.0
O375 O 0.72627 0.25916 0.14749 0.0
O376 O 0.66616 0.24559 0.16445 0.0
N377 N 0.67865 0.07118 0.17121 0.0
C378 C 0.69695 0.05071 0.15177 0.0
C379 C 0.6763 0.01824 0.14002 0.0
C380 C 0.63739 0.00667 0.14863 0.0
C381 C 0.61957 0.02751 0.16905 0.0
C382 C 0.64155 0.05972 0.17998 0.0
H383 H 0.72692 0.05927 0.14507 0.0
O384 O 0.68036 0.18231 0.13043 0.0
O385 O 0.67863 0.15617 0.16876 0.0
O386 O 0.76104 0.17082 0.15166 0.0
O387 O 0.75298 0.11243 0.17343 0.0
C388 C 0.58083 0.01762 0.17895 0.0
C389 C 0.56466 0.0401 0.19944 0.0
H390 H 0.54252 0.09163 0.23793 0.0
H391 H 0.58493 0.14902 0.25384 0.0
H392 H 0.69031 1.00225 0.12431 0.0
H393 H 0.62151 0.98168 0.13946 0.0
H394 H 0.56311 0.9929 0.17086 0.0
H395 H 0.53468 0.03244 0.20674 0.0
Mn396 Mn 0.55584 0.95919 0.90844 0.0
Mn397 Mn 0.64411 0.9543 0.9415 0.0
C398 C 0.60678 0.91501 0.89545 0.0
C399 C 0.48867 0.93773 0.90156 0.0
C400 C 0.62317 0.02344 0.90513 0.0
O401 O 0.54091 0.98468 0.94206 0.0
O402 O 0.59901 0.97483 0.96437 0.0
C403 C 0.62832 0.89238 0.98129 0.0
N404 N 0.64863 0.90414 0.95999 0.0
C405 C 0.69099 0.84405 0.96157 0.0
C406 C 0.66899 0.83041 0.98274 0.0
C407 C 0.63772 0.85488 0.99276 0.0
C408 C 0.67986 0.88151 0.95077 0.0
H409 H 0.60608 0.91203 0.9899 0.0
C410 C 0.56132 0.98578 0.96257 0.0
O411 O 0.50124 0.9735 0.89451 0.0
O412 O 0.5151 0.91512 0.91334 0.0
N413 N 0.68864 0.9339 0.9215 0.0
C414 C 0.70823 0.95206 0.90164 0.0
C415 C 0.74083 0.93183 0.88974 0.0
C416 C 0.75353 0.89351 0.89864 0.0
C417 C 0.73362 0.87584 0.91945 0.0
C418 C 0.701 0.89724 0.9304 0.0
H419 H 0.69882 0.98154 0.89464 0.0
O420 O 0.57907 0.92743 0.87964 0.0
O421 O 0.6042 0.9295 0.91838 0.0
O422 O 0.58848 0.00996 0.89815 0.0
O423 O 0.6445 0.00637 0.9224 0.0
C424 C 0.74492 0.83784 0.92978 0.0
C425 C 0.72379 0.82207 0.95093 0.0
H426 H 0.67639 0.80163 0.99174 0.0
H427 H 0.62138 0.8452 0.00957 0.0
H428 H 0.75599 0.94566 0.87366 0.0
H429 H 0.7787 0.87801 0.88941 0.0
H430 H 0.76994 0.82057 0.92168 0.0
H431 H 0.73293 0.79295 0.95882 0.0
Mn432 Mn 0.79705 0.19962 0.85035 0.0
Mn433 Mn 0.80129 0.11138 0.81711 0.0
C434 C 0.84063 0.14812 0.86317 0.0
C435 C 0.82027 0.26607 0.85775 0.0
C436 C 0.73224 0.13268 0.85352 0.0
O437 O 0.77198 0.21506 0.81664 0.0
O438 O 0.78078 0.15657 0.79445 0.0
C439 C 0.86348 0.12776 0.77753 0.0
N440 N 0.85151 0.10705 0.79862 0.0
C441 C 0.91209 0.06536 0.79723 0.0
C442 C 0.92585 0.08767 0.77623 0.0
C443 C 0.90126 0.11881 0.76621 0.0
C444 C 0.87431 0.076 0.80785 0.0
H445 H 0.84387 0.1501 0.76901 0.0
C446 C 0.77036 0.19441 0.79619 0.0
O447 O 0.78395 0.25456 0.86457 0.0
O448 O 0.84204 0.23936 0.84563 0.0
N449 N 0.82166 0.06669 0.83693 0.0
C450 C 0.80332 0.04674 0.85658 0.0
C451 C 0.82358 0.01411 0.86837 0.0
C452 C 0.86216 1.00184 0.85963 0.0
C453 C 0.88004 0.02215 0.83903 0.0
C454 C 0.85851 0.05464 0.82811 0.0
H455 H 0.77366 0.05587 0.86348 0.0
O456 O 0.82836 0.17572 0.87913 0.0
O457 O 0.82607 0.15101 0.84031 0.0
O458 O 0.74574 0.16745 0.86044 0.0
O459 O 0.74932 0.11111 0.83633 0.0
C460 C 0.91835 0.01134 0.82889 0.0
C461 C 0.93427 0.0328 0.80792 0.0
H462 H 0.95487 0.08066 0.76737 0.0
H463 H 0.9111 0.13545 0.74956 0.0
H464 H 0.80959 0.99864 0.88429 0.0
H465 H 0.87772 0.9767 0.86882 0.0
H466 H 0.93575 0.98645 0.837 0.0
H467 H 0.96366 0.02406 0.80019 0.0
Mn468 Mn 0.55523 0.04342 0.59859 0.0
Mn469 Mn 0.64211 0.04705 0.56439 0.0
C470 C 0.60729 0.08624 0.61135 0.0
C471 C 0.48873 0.06599 0.6064 0.0
C472 C 0.61834 0.97519 0.59827 0.0
O473 O 0.53932 0.01905 0.56465 0.0
O474 O 0.59586 0.03157 0.54116 0.0
C475 C 0.62952 0.11452 0.5278 0.0
N476 N 0.64949 0.09892 0.54821 0.0
C477 C 0.6944 0.15718 0.54971 0.0
C478 C 0.67311 0.17453 0.52937 0.0
C479 C 0.6407 0.15295 0.51825 0.0
C480 C 0.68168 0.11883 0.55848 0.0
H481 H 0.60595 0.09735 0.51853 0.0
C482 C 0.55845 0.01998 0.54357 0.0
O483 O 0.50063 0.02971 0.61287 0.0
O484 O 0.51524 0.0884 0.5945 0.0
N485 N 0.68763 0.06258 0.58512 0.0
C486 C 0.70602 0.04111 0.60407 0.0
C487 C 0.73944 0.05822 0.61691 0.0
C488 C 0.75399 0.09697 0.60996 0.0
C489 C 0.73512 0.11817 0.5901 0.0
C490 C 0.70182 0.09964 0.57804 0.0
H491 H 0.69508 0.01134 0.60962 0.0
O492 O 0.57977 0.07413 0.62744 0.0
O493 O 0.60381 0.07192 0.58846 0.0
O494 O 0.58716 0.99207 0.60808 0.0
O495 O 0.63921 0.99252 0.5808 0.0
C496 C 0.74801 0.15701 0.58184 0.0
C497 C 0.72779 0.17642 0.56158 0.0
H498 H 0.68174 0.20414 0.52192 0.0
H499 H 0.62469 0.16568 0.50216 0.0
H500 H 0.7537 0.0417 0.63228 0.0
H501 H 0.77969 0.11011 0.61998 0.0
H502 H 0.77355 0.17216 0.59088 0.0
H503 H 0.73811 0.20619 0.55531 0.0
Mn504 Mn 0.71253 0.80315 0.3506 0.0
Mn505 Mn 0.70813 0.89176 0.31774 0.0
C506 C 0.66854 0.8544 0.36354 0.0
C507 C 0.69031 0.73618 0.35759 0.0
C508 C 0.77751 0.86989 0.35366 0.0
O509 O 0.73776 0.7884 0.31687 0.0
O510 O 0.72766 0.84668 0.29468 0.0
C511 C 0.64505 0.87684 0.27858 0.0
N512 N 0.65758 0.89693 0.29976 0.0
C513 C 0.59751 0.93938 0.29919 0.0
C514 C 0.58313 0.91765 0.27813 0.0
C515 C 0.60719 0.88645 0.26765 0.0
C516 C 0.63532 0.92807 0.30943 0.0
H517 H 0.66432 0.85456 0.26967 0.0
C518 C 0.73849 0.80897 0.29638 0.0
O519 O 0.72635 0.74828 0.36448 0.0
O520 O 0.66801 0.76267 0.34568 0.0
N521 N 0.68862 0.93629 0.33807 0.0
C522 C 0.70766 0.95585 0.35759 0.0
C523 C 0.68813 0.98868 0.36969 0.0
C524 C 0.64948 1.00146 0.36143 0.0
C525 C 0.63087 0.98154 0.34096 0.0
C526 C 0.65174 0.9489 0.32968 0.0
H527 H 0.73739 0.94636 0.36412 0.0
O528 O 0.68076 0.82669 0.37942 0.0
O529 O 0.68337 0.85177 0.34075 0.0
O530 O 0.76357 0.83544 0.36083 0.0
O531 O 0.76061 0.89136 0.33639 0.0
C532 C 0.59249 0.99295 0.33125 0.0
C533 C 0.57591 0.97201 0.3103 0.0
H534 H 0.55405 0.92518 0.26956 0.0
H535 H 0.5969 0.87029 0.25095 0.0
H536 H 0.70278 0.00396 0.38543 0.0
H537 H 0.63447 0.02674 0.37085 0.0
H538 H 0.57557 0.01795 0.33966 0.0
H539 H 0.5465 0.98125 0.30288 0.0
Mn540 Mn 0.95066 0.96438 0.10143 0.0
Mn541 Mn 0.8627 0.96 0.06807 0.0
C542 C 0.89948 0.92002 0.11393 0.0
C543 C 0.01722 0.94203 0.10868 0.0
C544 C 0.88331 0.02841 0.10508 0.0
O545 O 0.96605 0.99035 0.06795 0.0
O546 O 0.90809 0.98057 0.04545 0.0
C547 C 0.87878 0.89833 0.02816 0.0
N548 N 0.85834 0.90993 0.04945 0.0
C549 C 0.81662 0.84932 0.04795 0.0
C550 C 0.83879 0.83586 0.02681 0.0
C551 C 0.86979 0.86066 0.01674 0.0
C552 C 0.82734 0.88697 0.0587 0.0
H553 H 0.90086 0.9182 0.01954 0.0
C554 C 0.94579 0.99148 0.04736 0.0
O555 O 0.00521 0.97802 0.11577 0.0
O556 O 0.99097 0.92005 0.09632 0.0
N557 N 0.81796 0.93941 0.08787 0.0
C558 C 0.79784 0.95766 0.10749 0.0
C559 C 0.7651 0.93734 0.1192 0.0
C560 C 0.75294 0.89873 0.11044 0.0
C561 C 0.77341 0.88096 0.08987 0.0
C562 C 0.80598 0.90257 0.07901 0.0
H563 H 0.80683 0.98734 0.11439 0.0
O564 O 0.92698 0.93221 0.12995 0.0
O565 O 0.90233 0.93501 0.09116 0.0
O566 O 0.91801 0.01495 0.11203 0.0
O567 O 0.86227 0.01185 0.08746 0.0
C568 C 0.7626 0.84272 0.07965 0.0
C569 C 0.78406 0.827 0.05862 0.0
H570 H 0.83171 0.80694 0.01786 0.0
H571 H 0.88624 0.85111 0.99996 0.0
H572 H 0.74937 0.95136 0.13501 0.0
H573 H 0.7277 0.88314 0.11955 0.0
H574 H 0.73766 0.82525 0.08771 0.0
H575 H 0.77526 0.79771 0.05079 0.0
Mn576 Mn 0.72549 0.68729 0.85282 0.0
Mn577 Mn 0.63453 0.70495 0.82399 0.0
C578 C 0.66608 0.65617 0.86786 0.0
C579 C 0.78582 0.64951 0.85825 0.0
C580 C 0.67531 0.76574 0.85903 0.0
O581 O 0.74267 0.71198 0.81865 0.0
O582 O 0.68049 0.71812 0.80038 0.0
C583 C 0.6366 0.64081 0.78446 0.0
N584 N 0.6178 0.6585 0.80466 0.0
C585 C 0.5592 0.61468 0.80002 0.0
C586 C 0.57803 0.59595 0.77917 0.0
C587 C 0.61704 0.6089 0.77146 0.0
C588 C 0.58058 0.64574 0.81252 0.0
H589 H 0.6661 0.65123 0.77827 0.0
C590 C 0.71954 0.72194 0.80009 0.0
O591 O 0.78287 0.68704 0.86594 0.0
O592 O 0.75492 0.63484 0.84584 0.0
N593 N 0.58739 0.69411 0.8445 0.0
C594 C 0.57358 0.71502 0.86515 0.0
C595 C 0.53559 0.70479 0.87581 0.0
C596 C 0.51163 0.67403 0.86473 0.0
C597 C 0.52598 0.65368 0.8431 0.0
C598 C 0.56442 0.66468 0.83358 0.0
H599 H 0.59145 0.73924 0.8735 0.0
O600 O 0.69792 0.66011 0.88224 0.0
O601 O 0.66991 0.67026 0.84491 0.0
O602 O 0.70635 0.74411 0.86487 0.0
O603 O 0.64765 0.75417 0.84367 0.0
C604 C 0.50357 0.62303 0.83054 0.0
C605 C 0.52013 0.60361 0.80897 0.0
H606 H 0.56287 0.57157 0.76896 0.0
H607 H 0.63179 0.59464 0.75538 0.0
H608 H 0.52466 0.7208 0.89243 0.0
H609 H 0.48221 0.66641 0.87291 0.0
H610 H 0.47369 0.61401 0.83737 0.0
H611 H 0.50279 0.57981 0.79962 0.0
Mn612 Mn 0.57113 0.47254 0.10437 0.0
Mn613 Mn 0.5544 0.37946 0.07858 0.0
C614 C 0.60031 0.41443 0.12192 0.0
C615 C 0.60918 0.53222 0.11058 0.0
C616 C 0.49189 0.42294 0.11057 0.0
O617 O 0.55095 0.48686 0.06853 0.0
O618 O 0.53954 0.42322 0.05415 0.0
C619 C 0.62515 0.38614 0.04369 0.0
N620 N 0.60225 0.36393 0.06022 0.0
C621 C 0.64697 0.30607 0.05605 0.0
C622 C 0.66882 0.32702 0.03721 0.0
C623 C 0.6585 0.36764 0.03148 0.0
C624 C 0.61424 0.32631 0.0676 0.0
H625 H 0.61855 0.41801 0.04045 0.0
C626 C 0.53809 0.46208 0.05145 0.0
O627 O 0.57066 0.53052 0.11625 0.0
O628 O 0.62469 0.50075 0.09913 0.0
N629 N 0.56586 0.33324 0.09958 0.0
C630 C 0.54494 0.31958 0.12026 0.0
C631 C 0.55489 0.28148 0.13082 0.0
C632 C 0.58533 0.25727 0.11955 0.0
C633 C 0.60577 0.27157 0.09794 0.0
C634 C 0.59482 0.30994 0.08843 0.0
H635 H 0.52085 0.33764 0.12864 0.0
O636 O 0.59485 0.44692 0.13554 0.0
O637 O 0.58797 0.41667 0.09863 0.0
O638 O 0.51285 0.45518 0.1146 0.0
O639 O 0.50461 0.3925 0.09774 0.0
C640 C 0.63679 0.24941 0.08552 0.0
C641 C 0.65754 0.26673 0.06466 0.0
H642 H 0.6947 0.31289 0.02789 0.0
H643 H 0.67651 0.38479 0.01795 0.0
H644 H 0.53892 0.27063 0.14748 0.0
H645 H 0.59282 0.22784 0.12769 0.0
H646 H 0.64548 0.21938 0.09213 0.0
H647 H 0.68236 0.25005 0.05587 0.0
Mn648 Mn 0.78321 0.31382 0.35833 0.0
Mn649 Mn 0.86953 0.30339 0.32351 0.0
C650 C 0.84268 0.34638 0.37069 0.0
C651 C 0.72325 0.34962 0.3682 0.0
C652 C 0.84124 0.23931 0.36039 0.0
O653 O 0.76092 0.29063 0.32529 0.0
O654 O 0.82092 0.28191 0.30495 0.0
C655 C 0.84612 0.36461 0.2849 0.0
N656 N 0.87294 0.35108 0.30272 0.0
C657 C 0.91648 0.40949 0.29641 0.0
C658 C 0.88943 0.42393 0.27789 0.0
C659 C 0.85408 0.40141 0.27214 0.0
C660 C 0.90684 0.37272 0.30857 0.0
H661 H 0.8188 0.34754 0.28054 0.0
C662 C 0.78202 0.27822 0.30647 0.0
O663 O 0.72801 0.31179 0.37507 0.0
O664 O 0.75179 0.36547 0.35436 0.0
N665 N 0.91936 0.32209 0.33846 0.0
C666 C 0.94416 0.30195 0.355 0.0
C667 C 0.98137 0.31973 0.36231 0.0
C668 C 0.99324 0.35742 0.35196 0.0
C669 C 0.96827 0.37647 0.33392 0.0
C670 C 0.93167 0.3571 0.32726 0.0
H671 H 0.93547 0.27265 0.36272 0.0
O672 O 0.81363 0.3395 0.38679 0.0
O673 O 0.8361 0.33427 0.34754 0.0
O674 O 0.80761 0.25688 0.36655 0.0
O675 O 0.86777 0.25494 0.34547 0.0
C676 C 0.97851 0.41361 0.32202 0.0
C677 C 0.95252 0.43021 0.30336 0.0
H678 H 0.89545 0.45229 0.26799 0.0
H679 H 0.83298 0.41243 0.25794 0.0
H680 H 1.00088 0.30438 0.37583 0.0
H681 H 0.02193 0.37105 0.35765 0.0
H682 H 0.0064 0.42953 0.32697 0.0
H683 H 0.96071 0.45878 0.29434 0.0
Mn684 Mn 0.94033 0.5325 0.6063 0.0
Mn685 Mn 0.95945 0.62066 0.57469 0.0
C686 C 0.9093 0.59301 0.61888 0.0
C687 C 0.89945 0.47473 0.61388 0.0
C688 C 0.01845 0.58341 0.6122 0.0
O689 O 0.96571 0.51173 0.57323 0.0
O690 O 0.97499 0.57247 0.55351 0.0
C691 C 0.89873 0.61278 0.53346 0.0
N692 N 0.91416 0.63403 0.55344 0.0
C693 C 0.86796 0.68989 0.54597 0.0
C694 C 0.85139 0.66845 0.5254 0.0
C695 C 0.86673 0.62964 0.5192 0.0
C696 C 0.89931 0.6712 0.55976 0.0
H697 H 0.91102 0.58342 0.52834 0.0
C698 C 0.97744 0.53335 0.55436 0.0
O699 O 0.93679 0.47676 0.62211 0.0
O700 O 0.88769 0.5042 0.59923 0.0
N701 N 0.94622 0.66964 0.59279 0.0
C702 C 0.96553 0.68637 0.61318 0.0
C703 C 0.95315 0.72479 0.62221 0.0
C704 C 0.92185 0.74613 0.60978 0.0
C705 C 0.90322 0.72883 0.58841 0.0
C706 C 0.91641 0.69015 0.58051 0.0
H707 H 0.99007 0.67045 0.6226 0.0
O708 O 0.91298 0.56267 0.63442 0.0
O709 O 0.92391 0.58725 0.59619 0.0
O710 O 0.99713 0.55212 0.6182 0.0
O711 O 0.00697 0.61046 0.59638 0.0
C712 C 0.87216 0.74849 0.57457 0.0
C713 C 0.8546 0.72907 0.55333 0.0
H714 H 0.82693 0.6815 0.51422 0.0
H715 H 0.85421 0.61295 0.5033 0.0
H716 H 0.96785 0.73804 0.63862 0.0
H717 H 0.9125 0.77584 0.61674 0.0
H718 H 0.86137 0.77842 0.5802 0.0
H719 H 0.83051 0.74434 0.54297 0.0
Mn720 Mn 0.71851 0.31711 0.65457 0.0
Mn721 Mn 0.62573 0.2964 0.67951 0.0
C722 C 0.65987 0.34619 0.63735 0.0
C723 C 0.77699 0.35808 0.65007 0.0
C724 C 0.67101 0.23727 0.64599 0.0
O725 O 0.73297 0.29438 0.6898 0.0
O726 O 0.66961 0.28063 0.7038 0.0
C727 C 0.63031 0.36419 0.71664 0.0
N728 N 0.60897 0.34259 0.69905 0.0
C729 C 0.55075 0.3868 0.70355 0.0
C730 C 0.57083 0.40734 0.72326 0.0
C731 C 0.61118 0.3966 0.72942 0.0
C732 C 0.57154 0.35492 0.69148 0.0
H733 H 0.66195 0.35725 0.72037 0.0
C734 C 0.7085 0.27987 0.70656 0.0
O735 O 0.77666 0.3202 0.64279 0.0
O736 O 0.74491 0.37063 0.66225 0.0
N737 N 0.57966 0.30852 0.65853 0.0
C738 C 0.56692 0.28908 0.63711 0.0
C739 C 0.52936 0.2999 0.62617 0.0
C740 C 0.50465 0.32954 0.63782 0.0
C741 C 0.51798 0.34841 0.66019 0.0
C742 C 0.55593 0.33676 0.67002 0.0
H743 H 0.58542 0.26569 0.62835 0.0
O744 O 0.69282 0.34264 0.62392 0.0
O745 O 0.66212 0.33222 0.66034 0.0
O746 O 0.70273 0.2593 0.64243 0.0
O747 O 0.64023 0.24838 0.65911 0.0
C748 C 0.49535 0.37869 0.67296 0.0
C749 C 0.51175 0.39794 0.69462 0.0
H750 H 0.55624 0.43252 0.73303 0.0
H751 H 0.62763 0.41357 0.74375 0.0
H752 H 0.5194 0.28534 0.60885 0.0
H753 H 0.47565 0.33773 0.62936 0.0
H754 H 0.46571 0.38803 0.66599 0.0
H755 H 0.49472 0.4222 0.70374 0.0
Mn756 Mn 0.94428 0.47046 0.89752 0.0
Mn757 Mn 0.95815 0.38392 0.93168 0.0
C758 C 0.9119 0.41036 0.88572 0.0
C759 C 0.90751 0.53033 0.88854 0.0
C760 C 0.01995 0.41423 0.89398 0.0
O761 O 0.96845 0.4928 0.93031 0.0
O762 O 0.97863 0.43286 0.95043 0.0
C763 C 0.8987 0.40323 0.97225 0.0
N764 N 0.91243 0.37751 0.95385 0.0
C765 C 0.8623 0.32677 0.96492 0.0
C766 C 0.84764 0.35268 0.98404 0.0
C767 C 0.86575 0.39118 0.9876 0.0
C768 C 0.89466 0.34077 0.9499 0.0
H769 H 0.91292 0.43259 0.97525 0.0
C770 C 0.98148 0.47185 0.94902 0.0
O771 O 0.94504 0.5258 0.881 0.0
O772 O 0.89238 0.50144 0.90243 0.0
N773 N 0.94061 0.33377 0.91652 0.0
C774 C 0.95864 0.31225 0.89741 0.0
C775 C 0.9437 0.27334 0.89111 0.0
C776 C 0.91127 0.25637 0.90502 0.0
C777 C 0.89413 0.27849 0.92516 0.0
C778 C 0.90986 0.31742 0.9303 0.0
H779 H 0.9842 0.32472 0.88701 0.0
O780 O 0.9176 0.43958 0.86954 0.0
O781 O 0.925 0.41712 0.90864 0.0
O782 O 1.00137 0.44735 0.88803 0.0
O783 O 0.00541 0.38751 0.90905 0.0
C784 C 0.86216 0.26338 0.94042 0.0
C785 C 0.84616 0.28756 0.96023 0.0
H786 H 0.8225 0.34334 0.99609 0.0
H787 H 0.85459 0.41136 1.00231 0.0
H788 H 0.95744 0.25627 0.87574 0.0
H789 H 0.89998 0.22625 0.9002 0.0
H790 H 0.84938 0.23339 0.93692 0.0
H791 H 0.82127 0.2758 0.97165 0.0
Mn792 Mn 0.7869 0.68829 0.15385 0.0
Mn793 Mn 0.87987 0.70582 0.17952 0.0
C794 C 0.84513 0.65932 0.1363 0.0
C795 C 0.7273 0.65009 0.14768 0.0
C796 C 0.83631 0.76761 0.14726 0.0
O797 O 0.77239 0.70857 0.18964 0.0
O798 O 0.83586 0.72148 0.2037 0.0
C799 C 0.87286 0.63642 0.21533 0.0
N800 N 0.89512 0.65837 0.19834 0.0
C801 C 0.9523 0.61278 0.20253 0.0
C802 C 0.93124 0.59173 0.22166 0.0
C803 C 0.89096 0.60301 0.22767 0.0
C804 C 0.93249 0.64562 0.19087 0.0
H805 H 0.84126 0.64385 0.21894 0.0
C806 C 0.79699 0.72243 0.20649 0.0
O807 O 0.72894 0.68859 0.142 0.0
O808 O 0.75881 0.63466 0.1591 0.0
N809 N 0.92625 0.69371 0.15871 0.0
C810 C 0.94026 0.71425 0.13798 0.0
C811 C 0.97813 0.70351 0.12736 0.0
C812 C 1.00182 0.67273 0.13862 0.0
C813 C 0.98725 0.65278 0.16035 0.0
C814 C 0.9491 0.6645 0.16992 0.0
H815 H 0.92259 0.73856 0.12957 0.0
O816 O 0.81262 0.66462 0.1227 0.0
O817 O 0.84286 0.67171 0.1596 0.0
O818 O 0.804 0.7466 0.14359 0.0
O819 O 0.867 0.75508 0.15988 0.0
C820 C 0.0089 0.62146 0.17277 0.0
C821 C 0.99139 0.60138 0.19381 0.0
H822 H 0.94505 0.56582 0.2311 0.0
H823 H 0.87377 0.58573 0.24154 0.0
H824 H 0.98917 0.71907 0.11061 0.0
H825 H 0.03106 0.6646 0.13041 0.0
H826 H 0.03864 0.61199 0.16598 0.0
H827 H 0.00769 0.57639 0.20265 0.0
Mn828 Mn 0.5703 0.53392 0.40436 0.0
Mn829 Mn 0.55251 0.6278 0.42873 0.0
C830 C 0.60042 0.59163 0.38638 0.0
C831 C 0.60748 0.47307 0.40012 0.0
C832 C 0.49176 0.58382 0.39599 0.0
O833 O 0.54834 0.52082 0.44 0.0
O834 O 0.53538 0.5847 0.45311 0.0
C835 C 0.62011 0.62141 0.46585 0.0
N836 N 0.59911 0.64325 0.44825 0.0
C837 C 0.64361 0.70109 0.45348 0.0
C838 C 0.66369 0.68042 0.47312 0.0
C839 C 0.65252 0.64001 0.47892 0.0
C840 C 0.6119 0.6807 0.44101 0.0
H841 H 0.61252 0.58986 0.46951 0.0
C842 C 0.53405 0.54598 0.45638 0.0
O843 O 0.5694 0.4754 0.39359 0.0
O844 O 0.62323 0.50505 0.41092 0.0
N845 N 0.56583 0.67366 0.40782 0.0
C846 C 0.54634 0.6873 0.38665 0.0
C847 C 0.5571 0.72536 0.3763 0.0
C848 C 0.58673 0.74962 0.38831 0.0
C849 C 0.60566 0.73536 0.41043 0.0
C850 C 0.59408 0.69695 0.41964 0.0
H851 H 0.52277 0.66924 0.37772 0.0
O852 O 0.59574 0.5585 0.37321 0.0
O853 O 0.58716 0.59007 0.40955 0.0
O854 O 0.51262 0.55125 0.39297 0.0
O855 O 0.50406 0.6148 0.40845 0.0
C856 C 0.63573 0.75759 0.42364 0.0
C857 C 0.65485 0.7404 0.44509 0.0
H858 H 0.68875 0.69468 0.48319 0.0
H859 H 0.66902 0.62319 0.49327 0.0
H860 H 0.54235 0.73614 0.35924 0.0
H861 H 0.59477 0.77906 0.38036 0.0
H862 H 0.64493 0.7876 0.41722 0.0
H863 H 0.67891 0.75719 0.45456 0.0
Mn864 Mn 0.29404 0.30871 0.15566 0.0
Mn865 Mn 0.29865 0.39655 0.18919 0.0
C866 C 0.33891 0.35962 0.14336 0.0
C867 C 0.3157 0.24183 0.14846 0.0
C868 C 0.2305 0.3765 0.15188 0.0
O869 O 0.26769 0.29341 0.18905 0.0
O870 O 0.27756 0.35123 0.21168 0.0
C871 C 0.35969 0.37998 0.22932 0.0
N872 N 0.34854 0.40049 0.208 0.0
C873 C 0.40952 0.44163 0.20973 0.0
C874 C 0.42254 0.41934 0.23089 0.0
C875 C 0.39732 0.38861 0.24087 0.0
C876 C 0.37188 0.43126 0.19886 0.0
H877 H 0.33949 0.35815 0.23789 0.0
C878 C 0.26655 0.31357 0.20969 0.0
O879 O 0.27997 0.25431 0.14126 0.0
O880 O 0.33793 0.26794 0.16078 0.0
N881 N 0.31979 0.4412 0.16957 0.0
C882 C 0.30189 0.46157 0.14996 0.0
C883 C 0.32261 0.49417 0.13838 0.0
C884 C 0.36126 0.50593 0.14726 0.0
C885 C 0.37867 0.48523 0.16781 0.0
C886 C 0.35666 0.45281 0.17854 0.0
H887 H 0.27219 0.45287 0.14297 0.0
O888 O 0.3267 0.33223 0.12727 0.0
O889 O 0.32368 0.35681 0.16609 0.0
O890 O 0.24383 0.34171 0.14497 0.0
O891 O 0.24698 0.39743 0.1696 0.0
C892 C 0.41692 0.49565 0.17816 0.0
C893 C 0.43224 0.474 0.19918 0.0
H894 H 0.45143 0.42616 0.23995 0.0
H895 H 0.40652 0.37211 0.25768 0.0
H896 H 0.30889 0.51006 0.12257 0.0
H897 H 0.37717 0.53106 0.13824 0.0
H898 H 0.43469 0.52046 0.17019 0.0
H899 H 0.46154 0.48252 0.20711 0.0
Mn900 Mn 0.45607 0.54085 0.90625 0.0
Mn901 Mn 0.3678 0.54253 0.93936 0.0
C902 C 0.40435 0.5841 0.89389 0.0
C903 C 0.52231 0.56498 0.89863 0.0
C904 C 0.39291 0.47219 0.90465 0.0
O905 O 0.47128 0.51593 0.9401 0.0
O906 O 0.41341 0.52655 0.96284 0.0
C907 C 0.37751 0.60747 0.97799 0.0
N908 N 0.35917 0.59331 0.95659 0.0
C909 C 0.31308 0.65063 0.95605 0.0
C910 C 0.33285 0.66667 0.97738 0.0
C911 C 0.36503 0.64482 0.98851 0.0
C912 C 0.32707 0.61334 0.94633 0.0
H913 H 0.40065 0.58986 0.98735 0.0
C914 C 0.45121 0.5161 0.96087 0.0
O915 O 0.51115 0.52852 0.89194 0.0
O916 O 0.49557 0.58634 0.91105 0.0
N917 N 0.32316 0.55886 0.91814 0.0
C918 C 0.30623 0.53865 0.89814 0.0
C919 C 0.27329 0.5562 0.88509 0.0
C920 C 0.25779 0.59417 0.89284 0.0
C921 C 0.27525 0.61414 0.91368 0.0
C922 C 0.30818 0.59524 0.92589 0.0
H923 H 0.3179 0.50949 0.89197 0.0
O924 O 0.43194 0.57234 0.87774 0.0
O925 O 0.40712 0.5687 0.9165 0.0
O926 O 0.42474 0.48929 0.89575 0.0
O927 O 0.37143 0.4889 0.92202 0.0
C928 C 0.26122 0.65204 0.92283 0.0
C929 C 0.27994 0.67014 0.9441 0.0
H930 H 0.32319 0.69541 0.98559 0.0
H931 H 0.37978 0.65643 0.00538 0.0
H932 H 0.25997 0.54055 0.86903 0.0
H933 H 0.23239 0.60762 0.88271 0.0
H934 H 0.2359 0.66743 0.91373 0.0
H935 H 0.26869 0.69915 0.95109 0.0
Mn936 Mn 0.21169 0.70339 0.6621 0.0
Mn937 Mn 0.20724 0.61526 0.69478 0.0
C938 C 0.16646 0.65293 0.64955 0.0
C939 C 0.18807 0.77115 0.65843 0.0
C940 C 0.27529 0.63618 0.65707 0.0
O941 O 0.24104 0.71708 0.69502 0.0
O942 O 0.22659 0.66052 0.71737 0.0
C943 C 0.14372 0.63468 0.73302 0.0
N944 N 0.15723 0.61112 0.71343 0.0
C945 C 0.09733 0.5686 0.7157 0.0
C946 C 0.08281 0.59243 0.73586 0.0
C947 C 0.10609 0.62563 0.74452 0.0
C948 C 0.13511 0.57899 0.705 0.0
H949 H 0.16136 0.66032 0.73977 0.0
C950 C 0.23925 0.69761 0.71592 0.0
O951 O 0.22241 0.75946 0.64838 0.0
O952 O 0.16769 0.74285 0.66991 0.0
N953 N 0.18694 0.57025 0.67523 0.0
C954 C 0.20472 0.55066 0.65526 0.0
C955 C 0.1845 0.51765 0.64382 0.0
C956 C 0.14658 0.5046 0.65327 0.0
C957 C 0.12928 0.5246 0.67417 0.0
C958 C 0.15076 0.55744 0.68475 0.0
H959 H 0.23387 0.56037 0.64784 0.0
O960 O 0.17761 0.68142 0.63398 0.0
O961 O 0.18247 0.65478 0.672 0.0
O962 O 0.26135 0.67066 0.64985 0.0
O963 O 0.25919 0.61546 0.67513 0.0
C964 C 0.09135 0.51344 0.68475 0.0
C965 C 0.07545 0.53534 0.70556 0.0
H966 H 0.05371 0.58566 0.74471 0.0
H967 H 0.09504 0.64424 0.76003 0.0
H968 H 0.198 0.50246 0.62764 0.0
H969 H 0.13102 0.47921 0.64432 0.0
H970 H 0.07403 0.48822 0.67694 0.0
H971 H 0.04612 0.52666 0.71341 0.0
Mn972 Mn 0.05311 0.45872 0.4066 0.0
Mn973 Mn 0.14023 0.45332 0.4401 0.0
C974 C 0.1039 0.41351 0.39418 0.0
C975 C 0.9853 0.43594 0.40228 0.0
C976 C 0.12087 0.52175 0.40252 0.0
O977 O 0.03896 0.48831 0.43957 0.0
O978 O 0.09456 0.47264 0.46233 0.0
C979 C 0.11851 0.38889 0.47721 0.0
N980 N 0.14327 0.40292 0.45834 0.0
C981 C 0.18594 0.34326 0.46115 0.0
C982 C 0.16098 0.32829 0.48066 0.0
C983 C 0.12706 0.35115 0.48866 0.0
C984 C 0.17589 0.38105 0.45041 0.0
H985 H 0.09236 0.40626 0.48347 0.0
C986 C 0.05782 0.48606 0.46067 0.0
O987 O 0.99765 0.47016 0.39242 0.0
O988 O 0.01294 0.41512 0.41406 0.0
N989 N 0.1859 0.4332 0.42105 0.0
C990 C 0.20658 0.45141 0.40166 0.0
C991 C 0.24033 0.43155 0.3908 0.0
C992 C 0.25306 0.39362 0.40031 0.0
C993 C 0.23199 0.37593 0.42068 0.0
C994 C 0.1984 0.39702 0.43065 0.0
H995 H 0.1972 0.48064 0.39425 0.0
O996 O 0.0756 0.42442 0.37842 0.0
O997 O 0.1013 0.42928 0.41667 0.0
O998 O 0.08657 0.50803 0.39482 0.0
O999 O 0.14092 0.50554 0.4208 0.0
C1000 C 0.24288 0.33806 0.43137 0.0
C1001 C 0.21997 0.32181 0.45166 0.0
H1002 H 0.1674 0.29914 0.4895 0.0
H1003 H 0.10754 0.33971 0.50363 0.0
H1004 H 0.25633 0.44534 0.37503 0.0
H1005 H 0.27905 0.37836 0.39183 0.0
H1006 H 0.26868 0.32104 0.42403 0.0
H1007 H 0.22843 0.2925 0.45957 0.0
Mn1008 Mn 0.29619 0.69747 0.34826 0.0
Mn1009 Mn 0.30167 0.60957 0.31483 0.0
C1010 C 0.34023 0.64649 0.36115 0.0
C1011 C 0.31821 0.76418 0.35567 0.0
C1012 C 0.23206 0.6299 0.35111 0.0
O1013 O 0.27119 0.71278 0.31461 0.0
O1014 O 0.28106 0.65477 0.29213 0.0
C1015 C 0.36392 0.6263 0.27534 0.0
N1016 N 0.35212 0.60575 0.29653 0.0
C1017 C 0.41324 0.56483 0.29546 0.0
C1018 C 0.42689 0.58713 0.27443 0.0
C1019 C 0.40192 0.61777 0.26418 0.0
C1020 C 0.37522 0.57504 0.30591 0.0
H1021 H 0.34396 0.64808 0.26657 0.0
C1022 C 0.2702 0.69248 0.29403 0.0
O1023 O 0.28207 0.75205 0.36243 0.0
O1024 O 0.34063 0.73788 0.34365 0.0
N1025 N 0.32227 0.56503 0.33469 0.0
C1026 C 0.30397 0.54489 0.35428 0.0
C1027 C 0.32454 0.5126 0.36622 0.0
C1028 C 0.36339 0.50082 0.35768 0.0
C1029 C 0.38124 0.52131 0.33715 0.0
C1030 C 0.35942 0.55349 0.32609 0.0
H1031 H 0.27412 0.55365 0.36104 0.0
O1032 O 0.3275 0.6739 0.37709 0.0
O1033 O 0.3259 0.64929 0.33822 0.0
O1034 O 0.24524 0.66468 0.3582 0.0
O1035 O 0.24943 0.60868 0.33385 0.0
C1036 C 0.41984 0.511 0.32721 0.0
C1037 C 0.43573 0.5326 0.3063 0.0
H1038 H 0.45608 0.58043 0.26568 0.0
H1039 H 0.41163 0.63431 0.24747 0.0
H1040 H 0.31061 0.49704 0.38212 0.0
H1041 H 0.37918 0.47595 0.36699 0.0
H1042 H 0.43746 0.48637 0.33544 0.0
H1043 H 0.4653 0.5242 0.2987 0.0
Mn1044 Mn 0.05421 0.54832 0.09509 0.0
Mn1045 Mn 0.14349 0.55745 0.06335 0.0
C1046 C 0.10444 0.59245 0.10963 0.0
C1047 C 0.98711 0.56938 0.1031 0.0
C1048 C 0.12379 0.48618 0.09837 0.0
O1049 O 0.04041 0.5251 0.06031 0.0
O1050 O 0.10035 0.53563 0.04024 0.0
C1051 C 0.11954 0.62151 0.02659 0.0
N1052 N 0.14455 0.60829 0.0455 0.0
C1053 C 0.18429 0.67008 0.04355 0.0
C1054 C 0.15914 0.6842 0.02395 0.0
C1055 C 0.12652 0.65988 0.01552 0.0
C1056 C 0.17574 0.63166 0.05395 0.0
H1057 H 0.0944 0.603 0.02 0.0
C1058 C 0.06275 0.52452 0.04044 0.0
O1059 O 0.99939 0.53285 0.10877 0.0
O1060 O 0.01311 0.59246 0.0913 0.0
N1061 N 0.18733 0.57957 0.08309 0.0
C1062 C 0.20857 0.56179 0.10236 0.0
C1063 C 0.24132 0.58286 0.1135 0.0
C1064 C 0.25242 0.62162 0.10442 0.0
C1065 C 0.23087 0.63883 0.08413 0.0
C1066 C 0.1984 0.61646 0.07383 0.0
H1067 H 0.2004 0.53193 0.10939 0.0
O1068 O 0.0767 0.57852 0.12496 0.0
O1069 O 0.10234 0.57943 0.08645 0.0
O1070 O 0.0877 0.49743 0.10421 0.0
O1071 O 0.14604 0.50516 0.08226 0.0
C1072 C 0.2403 0.67735 0.07376 0.0
C1073 C 0.21711 0.6929 0.05344 0.0
H1074 H 0.16438 0.71381 0.01538 0.0
H1075 H 0.10682 0.67068 1.0005 0.0
H1076 H 0.25789 0.5693 0.1291 0.0
H1077 H 0.27764 0.63781 0.11311 0.0
H1078 H 0.26519 0.69537 0.08137 0.0
H1079 H 0.22442 0.72272 0.04577 0.0
Mn1080 Mn 0.2182 0.29957 0.84658 0.0
Mn1081 Mn 0.21533 0.38907 0.81509 0.0
C1082 C 0.17358 0.35005 0.85927 0.0
C1083 C 0.19481 0.23303 0.85387 0.0
C1084 C 0.28181 0.36801 0.85282 0.0
O1085 O 0.2441 0.28515 0.81296 0.0
O1086 O 0.24145 0.34587 0.79356 0.0
C1087 C 0.15843 0.36603 0.77385 0.0
N1088 N 0.168 0.39043 0.79391 0.0
C1089 C 0.10702 0.43034 0.78801 0.0
C1090 C 0.09664 0.40573 0.76725 0.0
C1091 C 0.1224 0.37336 0.7602 0.0
C1092 C 0.1433 0.42154 0.80093 0.0
H1093 H 0.17809 0.34112 0.76832 0.0
C1094 C 0.25132 0.30793 0.79388 0.0
O1095 O 0.23111 0.24453 0.86069 0.0
O1096 O 0.17341 0.25947 0.84132 0.0
N1097 N 0.18984 0.43257 0.83351 0.0
C1098 C 0.20355 0.4527 0.85446 0.0
C1099 C 0.18031 0.48481 0.86462 0.0
C1100 C 0.14361 0.49636 0.85291 0.0
C1101 C 0.1305 0.47572 0.8311 0.0
C1102 C 0.1548 0.44377 0.82193 0.0
H1103 H 0.23181 0.44409 0.86353 0.0
O1104 O 0.18604 0.32248 0.87517 0.0
O1105 O 0.18902 0.34811 0.83661 0.0
O1106 O 0.26934 0.33184 0.85754 0.0
O1107 O 0.26427 0.39165 0.83698 0.0
C1108 C 0.09414 0.48544 0.8182 0.0
C1109 C 0.08251 0.4629 0.7966 0.0
H1110 H 0.06883 0.41124 0.75669 0.0
H1111 H 0.11451 0.35413 0.74426 0.0
H1112 H 0.19067 0.50063 0.88144 0.0
H1113 H 0.12575 0.52113 0.86081 0.0
H1114 H 0.07474 0.51002 0.82483 0.0
H1115 H 0.05431 0.47044 0.78697 0.0
Mn1116 Mn 0.45117 0.4625 0.60024 0.0
Mn1117 Mn 0.36274 0.45856 0.56722 0.0
C1118 C 0.40008 0.41822 0.61265 0.0
C1119 C 0.51769 0.43924 0.60747 0.0
C1120 C 0.38392 0.52699 0.60414 0.0
O1121 O 0.46637 0.4883 0.56673 0.0
O1122 O 0.40787 0.4793 0.54456 0.0
C1123 C 0.37827 0.39748 0.52689 0.0
N1124 N 0.35815 0.40874 0.54836 0.0
C1125 C 0.31636 0.3482 0.54672 0.0
C1126 C 0.33821 0.33506 0.52537 0.0
C1127 C 0.36907 0.36001 0.51528 0.0
C1128 C 0.32724 0.38569 0.55762 0.0
H1129 H 0.40023 0.41748 0.51826 0.0
C1130 C 0.44572 0.48973 0.5463 0.0
O1131 O 0.5061 0.47539 0.61454 0.0
O1132 O 0.49118 0.41775 0.59502 0.0
N1133 N 0.31831 0.43767 0.58716 0.0
C1134 C 0.29877 0.45542 0.60717 0.0
C1135 C 0.26644 0.43475 0.61908 0.0
C1136 C 0.25404 0.39636 0.6101 0.0
C1137 C 0.27394 0.37908 0.58916 0.0
C1138 C 0.30619 0.40097 0.57815 0.0
H1139 H 0.30801 0.48491 0.61427 0.0
O1140 O 0.42753 0.43037 0.62871 0.0
O1141 O 0.40272 0.43343 0.58996 0.0
O1142 O 0.41872 0.51342 0.61094 0.0
O1143 O 0.36251 0.51023 0.58677 0.0
C1144 C 0.26297 0.341 0.57877 0.0
C1145 C 0.28401 0.32568 0.55747 0.0
H1146 H 0.33099 0.30628 0.51628 0.0
H1147 H 0.38527 0.35072 0.49835 0.0
H1148 H 0.25129 0.44827 0.63527 0.0
H1149 H 0.22912 0.38049 0.61937 0.0
H1150 H 0.23826 0.32333 0.58694 0.0
H1151 H 0.27511 0.29649 0.54953 0.0
C1152 C 0.15464 0.37875 0.36579 0.0
C1153 C 0.13014 0.37803 0.38805 0.0
C1154 C 0.1514 0.30766 0.39608 0.0
C1155 C 0.16937 0.3061 0.37185 0.0
N1156 N 0.18979 0.33936 0.33332 0.0
N1157 N 0.09854 0.33825 0.42154 0.0
C1158 C 0.17203 0.34168 0.35673 0.0
C1159 C 0.12696 0.34166 0.40265 0.0
N1160 N 0.16112 0.41481 0.35339 0.0
N1161 N 0.15725 0.27615 0.41256 0.0
H1162 H 0.07831 0.36148 0.42641 0.0
H1163 H 0.09243 0.31087 0.43087 0.0
H1164 H 0.17748 0.25247 0.40843 0.0
H1165 H 0.14641 0.27618 0.43112 0.0
H1166 H 0.18143 0.41817 0.33835 0.0
H1167 H 0.14884 0.44237 0.35968 0.0
H1168 H 0.18861 0.36266 0.31993 0.0
H1169 H 0.20465 0.31303 0.32701 0.0
C1170 C 0.9151 0.91471 0.60507 0.0
C1171 C 0.949 0.91247 0.62164 0.0
C1172 C 0.90909 0.87321 0.65201 0.0
C1173 C 0.87404 0.87692 0.63624 0.0
N1174 N 0.84181 0.90773 0.59987 0.0
N1175 N 0.97361 0.90353 0.66398 0.0
C1176 C 0.87645 0.89985 0.6134 0.0
C1177 C 0.94429 0.89646 0.64622 0.0
N1178 N 0.92026 0.92999 0.58119 0.0
N1179 N 0.91023 0.84552 0.67138 0.0
H1180 H 0.99712 0.92432 0.66062 0.0
H1181 H 0.97137 0.89364 0.68269 0.0
H1182 H 0.88646 0.82553 0.67557 0.0
H1183 H 0.93666 0.83939 0.68167 0.0
H1184 H 0.89816 0.92806 0.56708 0.0
H1185 H 0.94767 0.94319 0.57522 0.0
H1186 H 0.84092 0.92727 0.58433 0.0
H1187 H 0.81308 0.8978 0.60574 0.0
C1188 C 0.38313 0.65647 0.90413 0.0
C1189 C 0.38044 0.62139 0.88823 0.0
C1190 C 0.34966 0.66344 0.85524 0.0
C1191 C 0.3472 0.69688 0.87239 0.0
N1192 N 0.35338 0.72164 0.91526 0.0
N1193 N 0.35303 0.59008 0.85053 0.0
C1194 C 0.36061 0.69195 0.89767 0.0
C1195 C 0.36065 0.62438 0.8645 0.0
N1196 N 0.40955 0.65754 0.92415 0.0
N1197 N 0.34433 0.66924 0.82984 0.0
H1198 H 0.36089 0.56086 0.85672 0.0
H1199 H 0.33526 0.59042 0.83416 0.0
H1200 H 0.33828 0.69767 0.8219 0.0
H1201 H 0.34996 0.64654 0.81643 0.0
H1202 H 0.41528 0.68398 0.93455 0.0
H1203 H 0.42911 0.6337 0.92884 0.0
H1204 H 0.36097 0.71849 0.93433 0.0
H1205 H 0.33581 0.74737 0.91141 0.0
C1206 C 0.55761 0.11243 0.14582 0.0
C1207 C 0.55591 0.0938 0.12179 0.0
C1208 C 0.62898 0.10717 0.1157 0.0
C1209 C 0.62887 0.13131 0.1381 0.0
N1210 N 0.58933 0.16489 0.17099 0.0
N1211 N 0.58884 0.07324 0.08313 0.0
C1212 C 0.59224 0.136 0.15237 0.0
C1213 C 0.59146 0.09074 0.10659 0.0
N1214 N 0.52577 0.10782 0.16226 0.0
N1215 N 0.66493 0.09969 0.10336 0.0
H1216 H 0.56227 0.05894 0.07673 0.0
H1217 H 0.61217 0.07425 0.06973 0.0
H1218 H 0.69284 0.11116 0.10964 0.0
H1219 H 0.66774 0.07934 0.08831 0.0
H1220 H 0.52578 0.11925 0.18068 0.0
H1221 H 0.50174 0.08788 0.15839 0.0
H1222 H 0.56198 0.17205 0.18006 0.0
H1223 H 0.61288 0.18486 0.17566 0.0
C1224 C 0.16969 0.66564 0.14841 0.0
C1225 C 0.16651 0.70148 0.13353 0.0
C1226 C 0.12406 0.66584 0.1028 0.0
C1227 C 0.12846 0.62904 0.11688 0.0
N1228 N 0.16032 0.5922 0.15114 0.0
N1229 N 0.15258 0.73233 0.09332 0.0
C1230 C 0.15293 0.62839 0.13911 0.0
C1231 C 0.14787 0.70022 0.10951 0.0
N1232 N 0.18755 0.66778 0.17176 0.0
N1233 N 0.09517 0.66916 0.08423 0.0
H1234 H 0.17245 0.75632 0.09742 0.0
H1235 H 0.14125 0.73261 0.07488 0.0
H1236 H 0.07507 0.64578 0.07943 0.0
H1237 H 0.08823 0.69666 0.07529 0.0
H1238 H 0.18668 0.64422 0.18499 0.0
H1239 H 0.20207 0.69419 0.17825 0.0
H1240 H 0.18082 0.589 0.16607 0.0
H1241 H 0.14865 0.56447 0.14469 0.0
C1242 C 0.56059 0.89725 0.36046 0.0
C1243 C 0.55748 0.91557 0.38454 0.0
C1244 C 0.63028 0.90274 0.39195 0.0
C1245 C 0.63145 0.87854 0.36959 0.0
N1246 N 0.59398 0.84536 0.33564 0.0
N1247 N 0.58833 0.93667 0.42368 0.0
C1248 C 0.59572 0.87398 0.35449 0.0
C1249 C 0.59225 0.91902 0.40033 0.0
N1250 N 0.52955 0.90167 0.34347 0.0
N1251 N 0.6655 0.91016 0.40505 0.0
H1252 H 0.56138 0.95087 0.42955 0.0
H1253 H 0.61095 0.93596 0.43751 0.0
H1254 H 0.69374 0.8986 0.3994 0.0
H1255 H 0.66749 0.9305 0.42015 0.0
H1256 H 0.53093 0.89092 0.3249 0.0
H1257 H 0.50471 0.9207 0.3471 0.0
H1258 H 0.56717 0.8382 0.326 0.0
H1259 H 0.61787 0.82565 0.33124 0.0
C1260 C 0.3398 0.34076 0.65052 0.0
C1261 C 0.34108 0.30635 0.63417 0.0
C1262 C 0.3802 0.34546 0.60321 0.0
C1263 C 0.37611 0.38103 0.61854 0.0
N1264 N 0.34578 0.4142 0.65477 0.0
N1265 N 0.3524 0.27928 0.59236 0.0
C1266 C 0.35367 0.37922 0.64152 0.0
C1267 C 0.35752 0.31003 0.60952 0.0
N1268 N 0.32719 0.33624 0.67504 0.0
N1269 N 0.40794 0.3441 0.58383 0.0
H1270 H 0.33436 0.25381 0.59616 0.0
H1271 H 0.36181 0.28137 0.57353 0.0
H1272 H 0.42725 0.36818 0.57914 0.0
H1273 H 0.41486 0.3174 0.57398 0.0
H1274 H 0.3299 0.35902 0.68871 0.0
H1275 H 0.31673 0.3085 0.68218 0.0
H1276 H 0.32617 0.41532 0.67031 0.0
H1277 H 0.35562 0.44288 0.64871 0.0
C1278 C 0.91604 0.08482 0.90113 0.0
C1279 C 0.95124 0.08808 0.88565 0.0
C1280 C 0.91351 0.12783 0.85453 0.0
C1281 C 0.8774 0.12368 0.8694 0.0
N1282 N 0.84253 0.09266 0.90482 0.0
N1283 N 0.98003 0.09983 0.84454 0.0
C1284 C 0.8781 0.10019 0.89206 0.0
C1285 C 0.9486 0.10507 0.86121 0.0
N1286 N 0.91942 0.06834 0.92483 0.0
N1287 N 0.91568 0.15569 0.83527 0.0
H1288 H 0.00471 0.08093 0.84878 0.0
H1289 H 0.97907 0.10963 0.82577 0.0
H1290 H 0.89186 0.17509 0.83031 0.0
H1291 H 0.94273 0.16247 0.82574 0.0
H1292 H 0.89631 0.06936 0.93837 0.0
H1293 H 0.94639 0.05488 0.93126 0.0
H1294 H 0.84031 0.07278 0.92015 0.0
H1295 H 0.81432 0.10349 0.89862 0.0
C1296 C 0.84817 0.63824 0.61162 0.0
C1297 C 0.88324 0.62823 0.62612 0.0
C1298 C 0.86191 0.67786 0.65809 0.0
C1299 C 0.8334 0.69482 0.64084 0.0
N1300 N 0.80126 0.69138 0.59929 0.0
N1301 N 0.92548 0.64161 0.66265 0.0
C1302 C 0.82647 0.67486 0.61717 0.0
C1303 C 0.8905 0.64872 0.64933 0.0
N1304 N 0.83499 0.6125 0.59293 0.0
N1305 N 0.86067 0.68834 0.68315 0.0
H1306 H 0.94792 0.62158 0.65635 0.0
H1307 H 0.93408 0.65891 0.67835 0.0
H1308 H 0.83787 0.70703 0.69069 0.0
H1309 H 0.87878 0.67431 0.69684 0.0
H1310 H 0.80726 0.61621 0.58356 0.0
H1311 H 0.84954 0.58507 0.58858 0.0
H1312 H 0.79786 0.67911 0.58121 0.0
H1313 H 0.78673 0.71939 0.60106 0.0
C1314 C 0.10979 0.13855 0.40207 0.0
C1315 C 0.12785 0.13102 0.37809 0.0
C1316 C 0.07924 0.07543 0.37059 0.0
C1317 C 0.06141 0.08266 0.39487 0.0
N1318 N 0.0709 0.11035 0.43686 0.0
N1319 N 0.13985 0.08227 0.34456 0.0
C1320 C 0.08017 0.11094 0.4116 0.0
C1321 C 0.11588 0.09616 0.36396 0.0
N1322 N 0.1197 0.17284 0.41541 0.0
N1323 N 0.06048 0.05102 0.35309 0.0
H1324 H 0.16747 0.09593 0.33954 0.0
H1325 H 0.1347 0.05463 0.33532 0.0
H1326 H 0.03175 0.03813 0.35543 0.0
H1327 H 0.07144 0.04708 0.33473 0.0
H1328 H 0.10398 0.18215 0.43159 0.0
H1329 H 0.141 0.19395 0.40893 0.0
H1330 H 0.08622 0.12808 0.45022 0.0
H1331 H 0.05163 0.08847 0.44488 0.0
C1332 C 0.61864 0.36165 0.15452 0.0
C1333 C 0.62694 0.38097 0.13112 0.0
C1334 C 0.68303 0.33292 0.12318 0.0
C1335 C 0.67416 0.31323 0.14664 0.0
N1336 N 0.64665 0.32167 0.18856 0.0
N1337 N 0.67688 0.39516 0.09857 0.0
C1338 C 0.64587 0.33154 0.16351 0.0
C1339 C 0.66238 0.36991 0.11715 0.0
N1340 N 0.58413 0.37082 0.16788 0.0
N1341 N 0.70924 0.31587 0.10601 0.0
H1342 H 0.66331 0.42305 0.09416 0.0
H1343 H 0.70476 0.39069 0.08946 0.0
H1344 H 0.72356 0.28787 0.1084 0.0
H1345 H 0.71422 0.3279 0.08802 0.0
H1346 H 0.57456 0.35412 0.18362 0.0
H1347 H 0.56321 0.3926 0.16187 0.0
H1348 H 0.62881 0.33618 0.20224 0.0
H1349 H 0.66971 0.30333 0.19581 0.0
C1350 C 0.43109 0.89151 0.91302 0.0
C1351 C 0.44665 0.92181 0.89637 0.0
C1352 C 0.38733 0.90997 0.86875 0.0
C1353 C 0.3793 0.87297 0.88183 0.0
N1354 N 0.39561 0.82723 0.91623 0.0
N1355 N 0.43737 0.96079 0.85733 0.0
C1356 C 0.40147 0.86357 0.90409 0.0
C1357 C 0.4239 0.93195 0.87411 0.0
N1358 N 0.44337 0.89046 0.93774 0.0
N1359 N 0.35965 0.9247 0.85166 0.0
H1360 H 0.46361 0.97812 0.85943 0.0
H1361 H 0.42367 0.96578 0.83982 0.0
H1362 H 0.33229 0.90986 0.84748 0.0
H1363 H 0.36166 0.95367 0.84361 0.0
H1364 H 0.43053 0.87083 0.95112 0.0
H1365 H 0.46224 0.91284 0.94557 0.0
H1366 H 0.41419 0.81726 0.93101 0.0
H1367 H 0.3751 0.80529 0.90979 0.0
C1368 C 0.8956 0.35284 0.85605 0.0
C1369 C 0.88633 0.37478 0.87846 0.0
C1370 C 0.82894 0.32846 0.88678 0.0
C1371 C 0.83775 0.30715 0.86377 0.0
N1372 N 0.86831 0.31175 0.82215 0.0
N1373 N 0.83557 0.39218 0.90988 0.0
C1374 C 0.86763 0.32331 0.84703 0.0
C1375 C 0.85014 0.36548 0.89213 0.0
N1376 N 0.93189 0.35883 0.84385 0.0
N1377 N 0.80246 0.31287 0.90434 0.0
H1378 H 0.84988 0.41979 0.91413 0.0
H1379 H 0.80712 0.38895 0.91852 0.0
H1380 H 0.7882 0.28468 0.90289 0.0
H1381 H 0.79772 0.32619 0.92201 0.0
H1382 H 0.94167 0.34057 0.82883 0.0
H1383 H 0.95406 0.37888 0.85055 0.0
H1384 H 0.88766 0.32512 0.80881 0.0
H1385 H 0.84593 0.293 0.81422 0.0
C1386 C 0.38894 0.09472 0.6406 0.0
C1387 C 0.37799 0.12941 0.62606 0.0
C1388 C 0.4298 0.11052 0.59469 0.0
C1389 C 0.44709 0.08229 0.61208 0.0
N1390 N 0.43899 0.04643 0.65269 0.0
N1391 N 0.38991 0.17183 0.58935 0.0
C1392 C 0.42553 0.07359 0.63503 0.0
C1393 C 0.3986 0.13745 0.60294 0.0
N1394 N 0.36488 0.08196 0.66026 0.0
N1395 N 0.44176 0.11024 0.56985 0.0
H1396 H 0.36777 0.19274 0.59492 0.0
H1397 H 0.40743 0.18153 0.57398 0.0
H1398 H 0.46191 0.08852 0.56256 0.0
H1399 H 0.42768 0.12784 0.55593 0.0
H1400 H 0.3724 0.0569 0.67157 0.0
H1401 H 0.33658 0.09489 0.66441 0.0
H1402 H 0.46631 0.03039 0.6519 0.0
H1403 H 0.46631 0.03039 0.6519 0.0
C1404 C 0.68227 0.67395 0.38655 0.0
C1405 C 0.67405 0.69447 0.36324 0.0
C1406 C 0.62012 0.64472 0.35374 0.0
C1407 C 0.62757 0.62501 0.37719 0.0
N1408 N 0.6762 0.61082 0.41031 0.0
N1409 N 0.64744 0.68817 0.32077 0.0
C1410 C 0.66214 0.63633 0.39176 0.0
C1411 C 0.64673 0.67636 0.34561 0.0
N1412 N 0.70707 0.69094 0.40452 0.0
N1413 N 0.58674 0.63455 0.33962 0.0
H1414 H 0.6688 0.70893 0.3137 0.0
H1415 H 0.63056 0.67363 0.30668 0.0
H1416 H 0.56684 0.61124 0.34474 0.0
H1417 H 0.57708 0.65147 0.32401 0.0
H1418 H 0.71151 0.67819 0.42237 0.0
H1419 H 0.7202 0.7197 0.40317 0.0
H1420 H 0.70366 0.6154 0.41984 0.0
H1421 H 0.66287 0.58258 0.41421 0.0
C1422 C 0.10715 0.87053 0.10533 0.0
C1423 C 0.1265 0.87736 0.12897 0.0
C1424 C 0.07825 0.93257 0.13832 0.0
C1425 C 0.05846 0.92528 0.11466 0.0
N1426 N 0.06572 0.89949 0.07203 0.0
N1427 N 0.14069 0.92535 0.16254 0.0
C1428 C 0.07656 0.898 0.09702 0.0
C1429 C 0.11539 0.91184 0.14373 0.0
N1430 N 0.1167 0.83698 0.09118 0.0
N1431 N 0.06104 0.95715 0.15635 0.0
H1432 H 0.16865 0.91166 0.16661 0.0
H1433 H 0.13622 0.95274 0.17219 0.0
H1434 H 0.03256 0.97075 0.15477 0.0
H1435 H 0.0733 0.96094 0.17439 0.0
H1436 H 0.10004 0.82804 0.0753 0.0
H1437 H 0.13889 0.81611 0.09663 0.0
H1438 H 0.08043 0.88256 0.05801 0.0
H1439 H 0.04575 0.92146 0.06487 0.0
C1440 C 0.66893 0.84186 0.85537 0.0
C1441 C 0.66912 0.8064 0.87083 0.0
C1442 C 0.62965 0.84246 0.90312 0.0
C1443 C 0.63208 0.87902 0.88861 0.0
N1444 N 0.66083 0.91532 0.85305 0.0
N1445 N 0.66032 0.77689 0.91223 0.0
C1446 C 0.65414 0.8793 0.86544 0.0
C1447 C 0.65338 0.80822 0.89576 0.0
N1448 N 0.68109 0.83931 0.83065 0.0
N1449 N 0.60258 0.83906 0.92276 0.0
H1450 H 0.67963 0.75266 0.90778 0.0
H1451 H 0.65119 0.7775 0.93114 0.0
H1452 H 0.58273 0.86227 0.92821 0.0
H1453 H 0.59687 0.8116 0.9321 0.0
H1454 H 0.67732 0.86283 0.81758 0.0
H1455 H 0.69236 0.81242 0.82277 0.0
H1456 H 0.68005 0.91801 0.83739 0.0
H1457 H 0.65052 0.94329 0.85999 0.0
C1458 C 0.41584 0.42253 0.10603 0.0
C1459 C 0.45066 0.41901 0.12175 0.0
C1460 C 0.41188 0.37913 0.15246 0.0
C1461 C 0.37611 0.38376 0.13742 0.0
N1462 N 0.34233 0.41552 0.10194 0.0
N1463 N 0.47834 0.4066 0.16306 0.0
C1464 C 0.37755 0.40743 0.11484 0.0
C1465 C 0.44732 0.40171 0.14611 0.0
N1466 N 0.41985 0.43913 0.0824 0.0
N1467 N 0.41335 0.35106 0.17162 0.0
H1468 H 0.50322 0.42547 0.15916 0.0
H1469 H 0.47682 0.39657 0.18178 0.0
H1470 H 0.38918 0.33186 0.17635 0.0
H1471 H 0.44014 0.34389 0.18127 0.0
H1472 H 0.39702 0.43828 0.06871 0.0
H1473 H 0.44704 0.45246 0.07616 0.0
H1474 H 0.34065 0.43555 0.08666 0.0
H1475 H 0.31388 0.40506 0.10801 0.0
C1476 C 0.88189 0.1588 0.40507 0.0
C1477 C 0.88134 0.12319 0.38958 0.0
C1478 C 0.85712 0.1646 0.35433 0.0
C1479 C 0.85094 0.19835 0.37088 0.0
N1480 N 0.84944 0.22346 0.41401 0.0
N1481 N 0.85859 0.09113 0.35092 0.0
C1482 C 0.86006 0.19391 0.39701 0.0
C1483 C 0.86532 0.12572 0.36477 0.0
N1484 N 0.90572 0.16077 0.42627 0.0
N1485 N 0.85793 0.16957 0.32866 0.0
H1486 H 0.86368 0.06194 0.35818 0.0
H1487 H 0.84383 0.09155 0.33342 0.0
H1488 H 0.854 0.1976 0.31973 0.0
H1489 H 0.86649 0.14623 0.31629 0.0
H1490 H 0.90984 0.18764 0.43655 0.0
H1491 H 0.92484 0.13726 0.43214 0.0
H1492 H 0.85449 0.22063 0.43342 0.0
H1493 H 0.83186 0.24875 0.40918 0.0
C1494 C 0.13174 0.60611 0.6193 0.0
C1495 C 0.13116 0.62688 0.64283 0.0
C1496 C 0.0604 0.60487 0.64932 0.0
C1497 C 0.05886 0.5904 0.62408 0.0
N1498 N 0.09198 0.58498 0.58322 0.0
N1499 N 0.08967 0.65247 0.6779 0.0
C1500 C 0.09439 0.59268 0.60859 0.0
C1501 C 0.09445 0.62791 0.65729 0.0
N1502 N 0.16789 0.59974 0.60697 0.0
N1503 N 0.02817 0.59936 0.66536 0.0
H1504 H 0.1116 0.67298 0.68446 0.0
H1505 H 0.1116 0.67298 0.68446 0.0
H1506 H 0.00353 0.58059 0.66088 0.0
H1507 H 0.02796 0.61096 0.6838 0.0
H1508 H 0.17047 0.58135 0.59093 0.0
H1509 H 0.19585 0.60918 0.61438 0.0
H1510 H 0.11594 0.59039 0.57064 0.0
H1511 H 0.06478 0.57713 0.57432 0.0
C1512 C 0.65615 0.12327 0.63991 0.0
C1513 C 0.63204 0.12292 0.61752 0.0
C1514 C 0.6503 0.19438 0.6097 0.0
C1515 C 0.66802 0.19662 0.63395 0.0
N1516 N 0.68918 0.16408 0.67254 0.0
N1517 N 0.59904 0.16171 0.58408 0.0
C1518 C 0.67187 0.16109 0.64906 0.0
C1519 C 0.62746 0.15929 0.60298 0.0
N1520 N 0.66377 0.08752 0.6524 0.0
N1521 N 0.65477 0.22624 0.59328 0.0
H1522 H 0.57958 0.13789 0.57914 0.0
H1523 H 0.59186 0.18892 0.57488 0.0
H1524 H 0.67327 0.25123 0.59757 0.0
H1525 H 0.64458 0.22551 0.57459 0.0
H1526 H 0.6841 0.08503 0.66747 0.0
H1527 H 0.65231 0.05945 0.64633 0.0
H1528 H 0.68871 0.14073 0.68591 0.0
H1529 H 0.70286 0.19097 0.67897 0.0
C1530 C 0.13382 0.39154 0.89004 0.0
C1531 C 0.13647 0.37397 0.86565 0.0
C1532 C 0.06565 0.39467 0.85768 0.0
C1533 C 0.06116 0.40542 0.88354 0.0
N1534 N 0.08985 0.40137 0.9259 0.0
N1535 N 0.09944 0.34801 0.8292 0.0
C1536 C 0.09492 0.40049 0.90023 0.0
C1537 C 0.10102 0.37272 0.85004 0.0
N1538 N 0.16834 0.39909 0.90375 0.0
N1539 N 0.0357 0.40367 0.84062 0.0
H1540 H 0.12317 0.32882 0.82371 0.0
H1541 H 0.07276 0.34329 0.81885 0.0
H1542 H 0.00993 0.42064 0.84536 0.0
H1543 H 0.03859 0.3979 0.82128 0.0
H1544 H 0.1679 0.41498 0.92088 0.0
H1545 H 0.1975 0.39361 0.89657 0.0
H1546 H 0.11313 0.39368 0.93849 0.0
H1547 H 0.06175 0.40573 0.93469 0.0
C1548 C 0.85177 0.88184 0.14272 0.0
C1549 C 0.87519 0.88302 0.12001 0.0
C1550 C 0.85672 0.81192 0.11149 0.0
C1551 C 0.8399 0.80875 0.13599 0.0
N1552 N 0.82051 0.83984 0.17545 0.0
N1553 N 0.90733 0.84537 0.0857 0.0
C1554 C 0.83671 0.84366 0.15169 0.0
C1555 C 0.87946 0.84715 0.10498 0.0
N1556 N 0.84391 0.91718 0.15559 0.0
N1557 N 0.85121 0.78094 0.09456 0.0
H1558 H 0.9267 0.86934 0.08087 0.0
H1559 H 0.91418 0.81846 0.07605 0.0
H1560 H 0.83201 0.75636 0.09857 0.0
H1561 H 0.86104 0.78231 0.07579 0.0
H1562 H 0.82407 0.91901 0.17098 0.0
H1563 H 0.85437 0.94556 0.14941 0.0
H1564 H 0.82166 0.86276 0.1891 0.0
H1565 H 0.80723 0.81272 0.18183 0.0
C1566 C 0.41562 0.58371 0.39948 0.0
C1567 C 0.45103 0.58732 0.38422 0.0
C1568 C 0.41346 0.62703 0.35297 0.0
C1569 C 0.37714 0.6224 0.36758 0.0
N1570 N 0.342 0.59098 0.40276 0.0
N1571 N 0.48045 0.59985 0.34335 0.0
C1572 C 0.3777 0.59885 0.39022 0.0
C1573 C 0.44867 0.60459 0.35982 0.0
N1574 N 0.41875 0.56708 0.42315 0.0
N1575 N 0.41566 0.65504 0.33379 0.0
H1576 H 0.50526 0.5812 0.3477 0.0
H1577 H 0.47971 0.60979 0.32461 0.0
H1578 H 0.39168 0.67418 0.32872 0.0
H1579 H 0.4428 0.66223 0.32448 0.0
H1580 H 0.39543 0.56786 0.43656 0.0
H1581 H 0.44569 0.55376 0.42971 0.0
H1582 H 0.33971 0.57104 0.41805 0.0
H1583 H 0.3138 0.6016 0.39641 0.0
C1584 C 0.3874 0.15232 0.15184 0.0
C1585 C 0.37994 0.13215 0.12855 0.0
C1586 C 0.32362 0.17929 0.11958 0.0
C1587 C 0.33188 0.20018 0.14279 0.0
N1588 N 0.35893 0.19414 0.18516 0.0
N1589 N 0.33066 0.11601 0.0961 0.0
C1590 C 0.35985 0.18278 0.16024 0.0
C1591 C 0.34466 0.14223 0.11429 0.0
N1592 N 0.42157 0.14367 0.16558 0.0
N1593 N 0.29772 0.19522 0.10186 0.0
H1594 H 0.34461 0.08813 0.09213 0.0
H1595 H 0.30274 0.11965 0.08694 0.0
H1596 H 0.28308 0.22317 0.10341 0.0
H1597 H 0.29342 0.18226 0.08405 0.0
H1598 H 0.43085 0.16096 0.18113 0.0
H1599 H 0.44251 0.12157 0.16006 0.0
H1600 H 0.37649 0.17998 0.19907 0.0
H1601 H 0.3368 0.21386 0.19244 0.0
C1602 C 0.58247 0.57493 0.86812 0.0
C1603 C 0.56295 0.58292 0.89185 0.0
C1604 C 0.61132 0.63872 0.89971 0.0
C1605 C 0.63109 0.63046 0.87634 0.0
N1606 N 0.64456 0.5813 0.8433 0.0
N1607 N 0.57028 0.61144 0.93381 0.0
C1608 C 0.61965 0.59545 0.86217 0.0
C1609 C 0.5809 0.6115 0.90875 0.0
N1610 N 0.56486 0.54994 0.85049 0.0
N1611 N 0.62036 0.67338 0.91293 0.0
H1612 H 0.55069 0.58967 0.94163 0.0
H1613 H 0.58494 0.62941 0.94734 0.0
H1614 H 0.64193 0.69444 0.90672 0.0
H1615 H 0.60355 0.68314 0.92858 0.0
H1616 H 0.57691 0.54549 0.83243 0.0
H1617 H 0.53604 0.53706 0.85229 0.0
H1618 H 0.6399 0.55353 0.83411 0.0
H1619 H 0.67231 0.59502 0.83863 0.0
C1620 C 0.13257 0.82417 0.66668 0.0
C1621 C 0.17041 0.81333 0.65497 0.0
C1622 C 0.1629 0.8705 0.62525 0.0
C1623 C 0.12328 0.87847 0.6351 0.0
N1624 N 0.07503 0.87045 0.66924 0.0
N1625 N 0.22922 0.84067 0.63323 0.0
C1626 C 0.10973 0.85776 0.65718 0.0
C1627 C 0.18797 0.84066 0.63713 0.0
N1628 N 0.11825 0.80254 0.68695 0.0
N1629 N 0.17707 0.89184 0.60478 0.0
H1630 H 0.24919 0.82428 0.64472 0.0
H1631 H 0.24421 0.86164 0.62166 0.0
H1632 H 0.1616 0.91649 0.59683 0.0
H1633 H 0.20313 0.88343 0.59472 0.0
H1634 H 0.08782 0.80243 0.6927 0.0
H1635 H 0.13713 0.78537 0.69863 0.0
H1636 H 0.06576 0.86038 0.68704 0.0
H1637 H 0.05625 0.89305 0.66197 0.0
C1638 C 0.9156 0.43602 0.38058 0.0
C1639 C 0.94322 0.41857 0.39834 0.0
C1640 C 0.90286 0.35553 0.39893 0.0
C1641 C 0.87849 0.3707 0.37891 0.0
N1642 N 0.85969 0.42581 0.35094 0.0
N1643 N 0.94842 0.37109 0.43333 0.0
C1644 C 0.88419 0.41119 0.36984 0.0
C1645 C 0.93255 0.38106 0.41021 0.0
N1646 N 0.91667 0.47709 0.37604 0.0
N1647 N 0.89933 0.31563 0.40619 0.0
H1648 H 0.96658 0.39089 0.44379 0.0
H1649 H 0.9388 0.34599 0.4439 0.0
H1650 H 0.87942 0.29546 0.3973 0.0
H1651 H 0.91953 0.30129 0.41855 0.0
H1652 H 0.89643 0.49238 0.36421 0.0
H1653 H 0.93375 0.49714 0.38709 0.0
H1654 H 0.86539 0.45274 0.3411 0.0
H1655 H 0.83485 0.40965 0.34374 0.0
C1656 C 0.32587 0.82629 0.38478 0.0
C1657 C 0.33462 0.80565 0.36156 0.0
C1658 C 0.39003 0.85403 0.35292 0.0
C1659 C 0.38173 0.87421 0.37611 0.0
N1660 N 0.3316 0.88965 0.40827 0.0
N1661 N 0.36287 0.81176 0.31943 0.0
C1662 C 0.3463 0.86364 0.39016 0.0
C1663 C 0.36298 0.82323 0.34433 0.0
N1664 N 0.30014 0.80977 0.40244 0.0
N1665 N 0.42451 0.86305 0.33947 0.0
H1666 H 0.34113 0.79179 0.31196 0.0
H1667 H 0.38072 0.82602 0.30566 0.0
H1668 H 0.44519 0.8853 0.34519 0.0
H1669 H 0.43434 0.84585 0.324 0.0
H1670 H 0.29523 0.82273 0.4202 0.0
H1671 H 0.2866 0.78123 0.40097 0.0
H1672 H 0.30357 0.88555 0.41728 0.0
H1673 H 0.34508 0.91776 0.4123 0.0
C1674 C 0.927 0.57685 0.13399 0.0
C1675 C 0.94602 0.58574 0.11028 0.0
C1676 C 0.89784 0.64186 0.10345 0.0
C1677 C 0.87882 0.63309 0.12689 0.0
N1678 N 0.86548 0.58287 0.15937 0.0
N1679 N 0.93692 0.61464 0.06875 0.0
C1680 C 0.8902 0.5975 0.14055 0.0
C1681 C 0.92756 0.61466 0.09389 0.0
N1682 N 0.94459 0.5507 0.15095 0.0
N1683 N 0.88874 0.67683 0.0906 0.0
H1684 H 0.95509 0.59188 0.06099 0.0
H1685 H 0.92215 0.6329 0.05543 0.0
H1686 H 0.86744 0.69785 0.09713 0.0
H1687 H 0.90523 0.68675 0.07484 0.0
H1688 H 0.93304 0.54572 0.16907 0.0
H1689 H 0.97271 0.53673 0.14834 0.0
H1690 H 0.87015 0.55485 0.16825 0.0
H1691 H 0.8378 0.59648 0.16426 0.0
C1692 C 0.14839 0.17418 0.84418 0.0
C1693 C 0.17675 0.19263 0.86101 0.0
C1694 C 0.16302 0.13746 0.89147 0.0
C1695 C 0.12801 0.12592 0.87735 0.0
N1696 N 0.08643 0.13472 0.84004 0.0
N1697 N 0.20894 0.19215 0.90261 0.0
C1698 C 0.12066 0.14438 0.85349 0.0
C1699 C 0.18408 0.17409 0.88508 0.0
N1700 N 0.14907 0.18384 0.81899 0.0
N1701 N 0.17671 0.11308 0.91069 0.0
H1702 H 0.2223 0.22068 0.90046 0.0
H1703 H 0.21294 0.18078 0.92085 0.0
H1704 H 0.16282 0.08549 0.91551 0.0
H1705 H 0.20441 0.1178 0.91994 0.0
H1706 H 0.13132 0.16879 0.80552 0.0
H1707 H 0.17109 0.20308 0.8111 0.0
H1708 H 0.07717 0.15081 0.824 0.0
H1709 H 0.0654 0.11312 0.84621 0.0
C1710 C 0.57662 0.39392 0.59635 0.0
C1711 C 0.55855 0.42163 0.61379 0.0
C1712 C 0.61495 0.40775 0.64323 0.0
C1713 C 0.62615 0.37317 0.62858 0.0
N1714 N 0.61655 0.33256 0.5909 0.0
N1715 N 0.56058 0.45326 0.65554 0.0
C1716 C 0.60699 0.36628 0.6049 0.0
C1717 C 0.57799 0.4287 0.63759 0.0
N1718 N 0.56604 0.39518 0.57132 0.0
N1719 N 0.64001 0.42121 0.66219 0.0
H1720 H 0.53207 0.46678 0.65384 0.0
H1721 H 0.57256 0.45696 0.67366 0.0
H1722 H 0.66782 0.40738 0.66646 0.0
H1723 H 0.63552 0.44867 0.67176 0.0
H1724 H 0.58072 0.37795 0.55743 0.0
H1725 H 0.54633 0.41721 0.56396 0.0
H1726 H 0.60005 0.32359 0.57496 0.0
H1727 H 0.6385 0.31152 0.59654 0.0
C1728 C 0.21131 0.27756 0.23406 0.0
C1729 C 0.25212 0.29126 0.2326 0.0
C1730 C 0.26422 0.26458 0.27526 0.0
C1731 C 0.22512 0.24511 0.27549 0.0
N1732 N 0.16743 0.22426 0.24929 0.0
N1733 N 0.3208 0.28281 0.24815 0.0
C1734 C 0.20017 0.2492 0.25328 0.0
C1735 C 0.27971 0.28028 0.25206 0.0
N1736 N 0.18308 0.29119 0.21701 0.0
N1737 N 0.28581 0.27094 0.29702 0.0
H1738 H 0.33316 0.29054 0.23055 0.0
H1739 H 0.34198 0.27232 0.26138 0.0
H1740 H 0.27399 0.26588 0.31506 0.0
H1741 H 0.31325 0.28716 0.29718 0.0
H1742 H 0.15194 0.28515 0.21885 0.0
H1743 H 0.19028 0.31162 0.2025 0.0
H1744 H 0.1507 0.22428 0.2325 0.0
H1745 H 0.1607 0.19959 0.26079 0.0
C1746 C 0.99314 0.01144 0.52978 0.0
C1747 C 0.01389 0.97307 0.52963 0.0
C1748 C 0.98353 0.9597 0.48765 0.0
C1749 C 0.96885 1.00018 0.48661 0.0
N1750 N 0.97453 0.06849 0.50333 0.0
N1751 N 0.03707 0.91648 0.50315 0.0
C1752 C 0.97806 0.02736 0.50663 0.0
C1753 C 0.01135 0.94864 0.50711 0.0
N1754 N 0.98504 0.03179 0.5518 0.0
N1755 N 0.9713 0.93174 0.47 0.0
H1756 H 0.06109 0.9094 0.51508 0.0
H1757 H 0.0382 0.90039 0.48612 0.0
H1758 H 0.95128 0.93892 0.45529 0.0
H1759 H 0.97801 0.9007 0.47148 0.0
H1760 H 0.96794 0.05867 0.55214 0.0
H1761 H 0.98955 0.01924 0.56969 0.0
H1762 H 0.9837 0.08942 0.51711 0.0
H1763 H 0.96744 0.08133 0.48578 0.0
C1764 C 0.26423 0.69869 0.76153 0.0
C1765 C 0.24892 0.72011 0.74009 0.0
C1766 C 0.2533 0.78414 0.76471 0.0
C1767 C 0.26575 0.76173 0.78617 0.0
N1768 N 0.26503 0.69675 0.80727 0.0
N1769 N 0.21481 0.78201 0.72595 0.0
C1770 C 0.26536 0.71867 0.78534 0.0
C1771 C 0.2396 0.76268 0.74286 0.0
N1772 N 0.28022 0.66036 0.7592 0.0
N1773 N 0.25348 0.82581 0.76535 0.0
H1774 H 0.19931 0.76649 0.71183 0.0
H1775 H 0.20482 0.812 0.72822 0.0
H1776 H 0.25939 0.8422 0.78191 0.0
H1777 H 0.2495 0.84374 0.74922 0.0
H1778 H 0.29402 0.64523 0.77432 0.0
H1779 H 0.28475 0.64612 0.74176 0.0
H1780 H 0.26129 0.66511 0.80757 0.0
H1781 H 0.26454 0.71083 0.82503 0.0
C1782 C 0.51364 0.99123 0.02845 0.0
C1783 C 0.49381 0.0301 0.0279 0.0
C1784 C 0.52561 0.04193 0.98606 0.0
C1785 C 0.53953 1.00117 0.98539 0.0
N1786 N 0.53172 0.93333 1.00245 0.0
N1787 N 0.47199 0.08597 1.0005 0.0
C1788 C 0.52908 0.97457 0.00551 0.0
C1789 C 0.49735 0.05381 0.00512 0.0
N1790 N 0.52048 0.97095 0.05064 0.0
N1791 N 0.53889 0.0694 0.96839 0.0
H1792 H 0.4473 0.09301 0.01193 0.0
H1793 H 0.47168 0.10172 0.98334 0.0
H1794 H 0.55927 0.06167 0.95394 0.0
H1795 H 0.53261 0.10056 0.96962 0.0
H1796 H 0.53692 0.94368 0.05129 0.0
H1797 H 0.51561 0.98375 0.06843 0.0
H1798 H 0.52169 0.91282 0.01625 0.0
H1799 H 0.53881 0.92011 0.985 0.0
C1800 C 0.21425 0.72809 0.27041 0.0
C1801 C 0.25509 0.71446 0.27124 0.0
C1802 C 0.26575 0.74135 0.22849 0.0
C1803 C 0.22674 0.76094 0.22896 0.0
N1804 N 0.1701 0.78167 0.25615 0.0
N1805 N 0.32323 0.7229 0.25468 0.0
C1806 C 0.20255 0.75667 0.25152 0.0
C1807 C 0.28203 0.72547 0.25139 0.0
N1808 N 0.18653 0.71425 0.28778 0.0
N1809 N 0.2865 0.73512 0.20637 0.0
H1810 H 0.33616 0.71538 0.27212 0.0
H1811 H 0.34397 0.73334 0.24111 0.0
H1812 H 0.27401 0.74035 0.18855 0.0
H1813 H 0.31387 0.71885 0.20573 0.0
H1814 H 0.15534 0.72029 0.28638 0.0
H1815 H 0.19414 0.69366 0.3021 0.0
H1816 H 0.15397 0.78145 0.2732 0.0
H1817 H 0.16309 0.80655 0.24493 0.0
C1818 C 0.51212 0.01575 0.47735 0.0
C1819 C 0.49102 0.9775 0.47783 0.0
C1820 C 0.52063 0.96518 0.52012 0.0
C1821 C 0.53592 0.00548 0.52083 0.0
N1822 N 0.53198 0.07325 0.50325 0.0
N1823 N 0.46596 0.92298 0.50517 0.0
C1824 C 0.52742 0.03213 0.50041 0.0
C1825 C 0.49267 0.95413 0.50078 0.0
N1826 N 0.52036 0.03553 0.45515 0.0
N1827 N 0.53267 0.93722 0.53781 0.0
H1828 H 0.44154 0.91686 0.49336 0.0
H1829 H 0.46437 0.90745 0.52239 0.0
H1830 H 0.55343 0.94403 0.55219 0.0
H1831 H 0.52515 0.90633 0.53654 0.0
H1832 H 0.53787 0.06215 0.45453 0.0
H1833 H 0.51534 0.02286 0.43735 0.0
H1834 H 0.52346 0.09401 0.48923 0.0
H1835 H 0.53891 0.08635 0.52075 0.0
C1836 C 0.27998 0.24628 0.77089 0.0
C1837 C 0.2665 0.2876 0.76991 0.0
C1838 C 0.25916 0.28131 0.72361 0.0
C1839 C 0.27142 0.23991 0.72498 0.0
N1840 N 0.28024 0.1801 0.7504 0.0
N1841 N 0.26314 0.34772 0.7432 0.0
C1842 C 0.278 0.22161 0.74882 0.0
C1843 C 0.26118 0.30623 0.7457 0.0
N1844 N 0.29855 0.23176 0.79222 0.0
N1845 N 0.24489 0.29684 0.70131 0.0
H1846 H 0.27313 0.36681 0.75769 0.0
H1847 H 0.26225 0.3626 0.72577 0.0
H1848 H 0.24305 0.27965 0.68474 0.0
H1849 H 0.23126 0.32549 0.69988 0.0
H1850 H 0.31178 0.20288 0.79331 0.0
H1851 H 0.30622 0.25068 0.8074 0.0
H1852 H 0.28151 0.16434 0.76753 0.0
H1853 H 0.27545 0.16159 0.73456 0.0
C1854 C 0.00957 0.05775 1.00333 0.0
C1855 C 0.01324 0.03264 0.98113 0.0
C1856 C 0.97848 0.97818 0.00484 0.0
C1857 C 0.96798 0.00582 0.02439 0.0
N1858 N 0.96838 0.07488 0.04001 0.0
N1859 N 0.98665 0.97207 0.9598 0.0
C1860 C 0.98166 0.04662 0.02283 0.0
C1861 C 0.99366 0.99361 0.98152 0.0
N1862 N 0.0344 0.09068 0.00699 0.0
N1863 N 0.97593 0.9371 0.00875 0.0
H1864 H 0.99116 0.98398 0.94173 0.0
H1865 H 0.97038 0.94466 0.95978 0.0
H1866 H 0.96856 0.92478 0.02642 0.0
H1867 H 0.98607 0.91589 0.9954 0.0
H1868 H 0.03474 0.10746 0.02378 0.0
H1869 H 0.05861 0.09773 0.99517 0.0
H1870 H 0.9743 0.10603 0.0381 0.0
H1871 H 0.94834 0.06769 0.05474 0.0
C1872 C 0.73118 0.74644 0.73083 0.0
C1873 C 0.74383 0.78812 0.73152 0.0
C1874 C 0.74865 0.78348 0.77808 0.0
C1875 C 0.73721 0.74182 0.77709 0.0
N1876 N 0.73 0.68101 0.75236 0.0
N1877 N 0.74396 0.84908 0.75762 0.0
C1878 C 0.73204 0.72259 0.75336 0.0
C1879 C 0.74726 0.8076 0.75564 0.0
N1880 N 0.71409 0.73078 0.70932 0.0
N1881 N 0.76157 0.80004 0.80042 0.0
H1882 H 0.73408 0.8674 0.74272 0.0
H1883 H 0.74348 0.86446 0.77489 0.0
H1884 H 0.76303 0.78334 0.8172 0.0
H1885 H 0.77455 0.82903 0.80172 0.0
H1886 H 0.70152 0.70159 0.70831 0.0
H1887 H 0.70662 0.749 0.6938 0.0
H1888 H 0.72996 0.66454 0.73546 0.0
H1889 H 0.73357 0.66309 0.76857 0.0
C1890 C 0.72169 0.25185 0.24695 0.0
C1891 C 0.74112 0.21447 0.24034 0.0
C1892 C 0.77091 0.21342 0.28265 0.0
C1893 C 0.7617 0.25528 0.28577 0.0
N1894 N 0.7273 0.31532 0.27026 0.0
N1895 N 0.78777 0.16059 0.25259 0.0
C1896 C 0.73665 0.27493 0.26777 0.0
C1897 C 0.76657 0.1952 0.25846 0.0
N1898 N 0.68685 0.26348 0.23491 0.0
N1899 N 0.78117 0.19048 0.30316 0.0
H1900 H 0.78725 0.14725 0.23466 0.0
H1901 H 0.809 0.1477 0.26495 0.0
H1902 H 0.78138 0.2028 0.32142 0.0
H1903 H 0.78441 0.15882 0.30224 0.0
H1904 H 0.66942 0.28833 0.24089 0.0
H1905 H 0.67284 0.24525 0.22121 0.0
H1906 H 0.7121 0.33164 0.25617 0.0
H1907 H 0.73694 0.33279 0.28568 0.0
C1908 C 0.71363 0.22839 0.77225 0.0
C1909 C 0.75481 0.21582 0.77331 0.0
C1910 C 0.76467 0.24024 0.72994 0.0
C1911 C 0.72521 0.2589 0.72999 0.0
N1912 N 0.66766 0.27936 0.75659 0.0
N1913 N 0.82265 0.22434 0.75636 0.0
C1914 C 0.70105 0.25531 0.75263 0.0
C1915 C 0.78139 0.22613 0.75315 0.0
N1916 N 0.68638 0.21501 0.79004 0.0
N1917 N 0.78544 0.23309 0.70793 0.0
H1918 H 0.83583 0.21783 0.77389 0.0
H1919 H 0.84314 0.23436 0.74253 0.0
H1920 H 0.77266 0.23682 0.69004 0.0
H1921 H 0.81318 0.21744 0.70759 0.0
H1922 H 0.65501 0.21992 0.78852 0.0
H1923 H 0.69464 0.19587 0.80498 0.0
H1924 H 0.65163 0.27987 0.77367 0.0
H1925 H 0.65941 0.30292 0.74464 0.0
C1926 C 0.72582 0.77752 0.25353 0.0
C1927 C 0.75308 0.78737 0.27337 0.0
C1928 C 0.80519 0.74607 0.25249 0.0
C1929 C 0.78067 0.74318 0.23004 0.0
N1930 N 0.72075 0.77041 0.20838 0.0
N1931 N 0.82183 0.7864 0.28952 0.0
C1932 C 0.74173 0.76286 0.23022 0.0
C1933 C 0.79384 0.7736 0.27205 0.0
N1934 N 0.68468 0.78017 0.25714 0.0
N1935 N 0.83771 0.72084 0.25631 0.0
H1936 H 0.81448 0.80621 0.30433 0.0
H1937 H 0.85297 0.78033 0.2878 0.0
H1938 H 0.84467 0.69675 0.24441 0.0
H1939 H 0.85405 0.71999 0.27325 0.0
H1940 H 0.6637 0.77054 0.24352 0.0
H1941 H 0.67202 0.78695 0.27481 0.0
H1942 H 0.69343 0.7868 0.20827 0.0
H1943 H 0.73303 0.76621 0.19037 0.0
C1944 C 0.49645 0.51595 0.02727 0.0
C1945 C 0.51787 0.47794 0.02766 0.0
C1946 C 0.48908 0.46299 0.98549 0.0
C1947 C 0.47339 0.50299 0.98395 0.0
N1948 N 0.47621 0.57176 1.00016 0.0
N1949 N 0.54382 0.42219 1.00161 0.0
C1950 C 0.48131 0.53088 0.00384 0.0
C1951 C 0.51678 0.45328 0.00521 0.0
N1952 N 0.48774 0.53681 0.04902 0.0
N1953 N 0.47775 0.43409 0.96818 0.0
H1954 H 0.56806 0.41695 0.01369 0.0
H1955 H 0.54586 0.40576 0.98473 0.0
H1956 H 0.45739 0.44004 0.95344 0.0
H1957 H 0.48551 0.40335 0.97006 0.0
H1958 H 0.46995 0.56324 0.04902 0.0
H1959 H 0.49267 0.52516 0.06709 0.0
H1960 H 0.48443 0.59338 0.01376 0.0
H1961 H 0.4688 0.58388 0.98246 0.0
C1962 C 0.05824 0.51087 0.50625 0.0
C1963 C 0.03564 0.49694 0.48487 0.0
C1964 C 0.97269 0.50293 0.51061 0.0
C1965 C 0.99639 0.51315 0.53203 0.0
N1966 N 0.0621 0.50942 0.55193 0.0
N1967 N 0.97113 0.46776 0.47057 0.0
C1968 C 0.03932 0.51147 0.5304 0.0
C1969 C 0.99265 0.48972 0.48801 0.0
N1970 N 0.09682 0.52615 0.50355 0.0
N1971 N 0.9311 0.50508 0.51192 0.0
H1972 H 0.98449 0.45381 0.45506 0.0
H1973 H 0.94088 0.45879 0.47324 0.0
H1974 H 0.91562 0.5108 0.52886 0.0
H1975 H 0.91236 0.50314 0.49602 0.0
H1976 H 0.11292 0.53889 0.51866 0.0
H1977 H 0.11029 0.53141 0.48594 0.0
H1978 H 0.09367 0.50505 0.55163 0.0
H1979 H 0.04861 0.50769 0.56984 0.0
C1980 C 0.00454 0.53161 0.00933 0.0
C1981 C 0.04309 0.51432 0.01567 0.0
C1982 C 0.04563 0.48574 0.97299 0.0
C1983 C 0.00334 0.49269 0.96998 0.0
N1984 N 0.94138 0.52281 0.98611 0.0
N1985 N 0.09893 0.47023 1.0029 0.0
C1986 C 0.98228 0.51581 0.98841 0.0
C1987 C 0.06351 0.4902 0.99726 0.0
N1988 N 0.99099 0.56553 0.02164 0.0
N1989 N 0.06917 0.47755 0.95235 0.0
H1990 H 0.11186 0.4703 0.02093 0.0
H1991 H 0.11282 0.4501 0.99022 0.0
H1992 H 0.05694 0.47756 0.93407 0.0
H1993 H 0.10095 0.47579 0.95326 0.0
H1994 H 0.96488 0.58134 0.01603 0.0
H1995 H 0.00896 0.58085 0.03491 0.0
H1996 H 0.92421 0.53646 1.00046 0.0
H1997 H 0.92448 0.51275 0.97056 0.0
C1998 C 0.4932 0.49135 0.48044 0.0
C1999 C 0.51252 0.53049 0.47992 0.0
C2000 C 0.48093 0.54476 0.52154 0.0
C2001 C 0.46758 0.5039 0.52326 0.0
N2002 N 0.47571 0.43504 0.50789 0.0
N2003 N 0.53355 0.58878 0.50567 0.0
C2004 C 0.47815 0.47608 0.50382 0.0
C2005 C 0.50878 0.5558 0.50204 0.0
N2006 N 0.48633 0.46956 0.4588 0.0
N2007 N 0.46748 0.57312 0.53861 0.0
H2008 H 0.55789 0.59566 0.49392 0.0
H2009 H 0.53378 0.60572 0.52239 0.0
H2010 H 0.44752 0.56595 0.55339 0.0
H2011 H 0.47321 0.60428 0.53657 0.0
H2012 H 0.47021 0.44205 0.4589 0.0
H2013 H 0.49075 0.4813 0.44069 0.0
H2014 H 0.48596 0.41373 0.49462 0.0
H2015 H 0.4682 0.42283 0.52556 0.0
C2016 C 0.29629 0.07453 0.3724 0.0
C2017 C 0.30881 0.11449 0.36513 0.0
C2018 C 0.37744 0.09848 0.38152 0.0
C2019 C 0.36612 0.0568 0.38471 0.0
N2020 N 0.31699 0.00424 0.37335 0.0
N2021 N 0.36522 0.16083 0.35795 0.0
C2022 C 0.32626 0.04445 0.37723 0.0
C2023 C 0.35059 0.1255 0.36828 0.0
N2024 N 0.25605 0.06529 0.37626 0.0
N2025 N 0.41281 0.11292 0.39185 0.0
H2026 H 0.34734 0.18016 0.34689 0.0
H2027 H 0.39617 0.16835 0.35794 0.0
H2028 H 0.43207 0.09493 0.4029 0.0
H2029 H 0.4205 0.14382 0.39186 0.0
H2030 H 0.24663 0.03702 0.38329 0.0
H2031 H 0.23285 0.08699 0.37612 0.0
H2032 H 0.28882 0.99487 0.36617 0.0
H2033 H 0.33869 0.98102 0.37369 0.0
C2034 C 0.1525 0.08781 0.60035 0.0
C2035 C 0.13117 0.06476 0.61882 0.0
C2036 C 0.16454 0.10434 0.65262 0.0
C2037 C 0.18974 0.12345 0.63428 0.0
N2038 N 0.21129 0.12994 0.59062 0.0
N2039 N 0.12011 0.04751 0.66285 0.0
C2040 C 0.18441 0.11465 0.60807 0.0
C2041 C 0.13767 0.07235 0.64507 0.0
N2042 N 0.14175 0.0845 0.57541 0.0
N2043 N 0.16582 0.11732 0.67723 0.0
H2044 H 0.10028 0.0237 0.65834 0.0
H2045 H 0.12765 0.04836 0.682 0.0
H2046 H 0.18512 0.14072 0.68332 0.0
H2047 H 0.14524 0.10767 0.69106 0.0
H2048 H 0.15314 0.10354 0.56126 0.0
H2049 H 0.11845 0.06517 0.56921 0.0
H2050 H 0.21195 0.12069 0.57175 0.0
H2051 H 0.23527 0.14948 0.59529 0.0
C2052 C 0.18661 0.88838 0.90444 0.0
C2053 C 0.19083 0.87836 0.87831 0.0
C2054 C 0.14032 0.9309 0.86743 0.0
C2055 C 0.13469 0.93971 0.89364 0.0
N2056 N 0.14614 0.9214 0.9372 0.0
N2057 N 0.16555 0.88351 0.83567 0.0
C2058 C 0.15591 0.91671 0.91218 0.0
C2059 C 0.16565 0.89758 0.86006 0.0
N2060 N 0.21338 0.87267 0.92173 0.0
N2061 N 0.12353 0.95582 0.84946 0.0
H2062 H 0.18362 0.85905 0.82973 0.0
H2063 H 0.14484 0.89331 0.82201 0.0
H2064 H 0.10531 0.98095 0.85378 0.0
H2065 H 0.13054 0.95383 0.83025 0.0
H2066 H 0.21505 0.8826 0.94045 0.0
H2067 H 0.23617 0.85179 0.91702 0.0
H2068 H 0.15736 0.90257 0.95149 0.0
H2069 H 0.12384 0.94184 0.94344 0.0
C2070 C 0.29629 0.93207 0.13219 0.0
C2071 C 0.3086 0.89198 0.13922 0.0
C2072 C 0.37745 0.90806 0.12302 0.0
C2073 C 0.36628 0.94979 0.11999 0.0
N2074 N 0.31724 1.00233 0.13148 0.0
N2075 N 0.36466 0.84523 0.14605 0.0
C2076 C 0.3264 0.96213 0.12747 0.0
C2077 C 0.35033 0.88085 0.136 0.0
N2078 N 0.25608 0.94148 0.12848 0.0
N2079 N 0.41299 0.89378 0.11278 0.0
H2080 H 0.34653 0.82566 0.15685 0.0
H2081 H 0.39555 0.83756 0.14608 0.0
H2082 H 0.43253 0.91198 0.10201 0.0
H2083 H 0.42062 0.86288 0.11259 0.0
H2084 H 0.24675 0.96983 0.12158 0.0
H2085 H 0.23278 0.91984 0.12867 0.0
H2086 H 0.28909 0.01171 0.13871 0.0
H2087 H 0.33901 0.02551 0.13117 0.0
C2088 C 0.65918 0.90289 0.64845 0.0
C2089 C 0.69335 0.88722 0.63491 0.0
C2090 C 0.66411 0.91365 0.5953 0.0
C2091 C 0.63524 0.93631 0.60948 0.0
N2092 N 0.59181 0.9336 0.64646 0.0
N2093 N 0.72833 0.87743 0.59485 0.0
C2094 C 0.62856 0.92548 0.63526 0.0
C2095 C 0.69529 0.89157 0.60807 0.0
N2096 N 0.65642 0.89668 0.67401 0.0
N2097 N 0.66025 0.91177 0.56955 0.0
H2098 H 0.75169 0.8604 0.60296 0.0
H2099 H 0.73402 0.88492 0.576 0.0
H2100 H 0.63571 0.92531 0.56013 0.0
H2101 H 0.67791 0.89287 0.55806 0.0
H2102 H 0.63584 0.91197 0.68569 0.0
H2103 H 0.67601 0.87716 0.68381 0.0
H2104 H 0.58416 0.92467 0.66478 0.0
H2105 H 0.56651 0.94347 0.63624 0.0
C2106 C 0.86688 0.94077 0.36461 0.0
C2107 C 0.86941 0.94179 0.39158 0.0
C2108 C 0.81495 0.89043 0.39411 0.0
C2109 C 0.81327 0.88841 0.36712 0.0
N2110 N 0.84816 0.90103 0.32767 0.0
N2111 N 0.85631 0.90656 0.4308 0.0
C2112 C 0.84294 0.90994 0.35274 0.0
C2113 C 0.84709 0.91265 0.40585 0.0
N2114 N 0.88431 0.9707 0.35014 0.0
N2115 N 0.78442 0.87441 0.40875 0.0
H2116 H 0.88027 0.92187 0.43974 0.0
H2117 H 0.84331 0.88324 0.44158 0.0
H2118 H 0.75884 0.85962 0.4016 0.0
H2119 H 0.78249 0.87951 0.42822 0.0
H2120 H 0.87883 0.97351 0.33076 0.0
H2121 H 0.90116 0.9949 0.35741 0.0
H2122 H 0.87175 0.91335 0.3168 0.0
H2123 H 0.83182 0.87787 0.31862 0.0
C2124 C 0.83644 0.09296 0.15846 0.0
C2125 C 0.80798 0.11599 0.14419 0.0
C2126 C 0.84251 0.09314 0.10529 0.0
C2127 C 0.86388 0.06297 0.11923 0.0
N2128 N 0.87703 0.0317 0.16024 0.0
N2129 N 0.78141 0.13389 0.10266 0.0
C2130 C 0.8604 0.06254 0.1462 0.0
C2131 C 0.81067 0.11564 0.11721 0.0
N2132 N 0.84064 0.1002 0.18382 0.0
N2133 N 0.85262 0.10025 0.08056 0.0
H2134 H 0.75656 0.14975 0.10996 0.0
H2135 H 0.77978 0.13003 0.08308 0.0
H2136 H 0.8765 0.0849 0.07154 0.0
H2137 H 0.84051 0.12435 0.07009 0.0
H2138 H 0.86349 0.08686 0.19477 0.0
H2139 H 0.82428 0.12307 0.19315 0.0
H2140 H 0.87073 0.02776 0.17945 0.0
H2141 H 0.89412 0.00789 0.15271 0.0
C2142 C 0.66409 0.08818 0.90594 0.0
C2143 C 0.64205 0.05895 0.89158 0.0
C2144 C 0.66731 0.09212 0.85282 0.0
C2145 C 0.69678 0.11386 0.86714 0.0
N2146 N 0.72581 0.128 0.90864 0.0
N2147 N 0.62703 0.03074 0.84994 0.0
C2148 C 0.69554 0.11135 0.89411 0.0
C2149 C 0.64413 0.06062 0.86459 0.0
N2150 N 0.65508 0.09369 0.93099 0.0
N2151 N 0.6616 0.10144 0.82785 0.0
H2152 H 0.61078 0.00601 0.85705 0.0
H2153 H 0.63228 0.02849 0.83051 0.0
H2154 H 0.67751 0.12498 0.81887 0.0
H2155 H 0.63802 0.08902 0.81704 0.0
H2156 H 0.66782 0.11706 0.94184 0.0
H2157 H 0.63147 0.07791 0.94 0.0
H2158 H 0.72829 0.1225 0.92803 0.0
H2159 H 0.75061 0.14403 0.90141 0.0
C2160 C 0.829 0.61568 0.89191 0.0
C2161 C 0.8208 0.62287 0.8658 0.0
C2162 C 0.87167 0.57078 0.85425 0.0
C2163 C 0.88134 0.56522 0.88031 0.0
N2164 N 0.87591 0.58887 0.92336 0.0
N2165 N 0.84024 0.61364 0.82217 0.0
C2166 C 0.86209 0.58981 0.89894 0.0
C2167 C 0.84403 0.60236 0.84699 0.0
N2168 N 0.80367 0.6314 0.91008 0.0
N2169 N 0.8869 0.54442 0.83651 0.0
H2170 H 0.82051 0.63675 0.81625 0.0
H2171 H 0.85932 0.60288 0.80784 0.0
H2172 H 0.90696 0.52075 0.84087 0.0
H2173 H 0.8771 0.54388 0.81775 0.0
H2174 H 0.80534 0.62328 0.92913 0.0
H2175 H 0.77849 0.64966 0.90599 0.0
H2176 H 0.86601 0.60909 0.93732 0.0
H2177 H 0.90029 0.57054 0.92908 0.0
C2178 C 0.66872 0.60196 0.15562 0.0
C2179 C 0.69372 0.62342 0.1382 0.0
C2180 C 0.65736 0.59075 0.10269 0.0
C2181 C 0.63583 0.56582 0.12009 0.0
N2182 N 0.62442 0.54398 0.1633 0.0
N2183 N 0.71555 0.63477 0.09498 0.0
C2184 C 0.64211 0.57066 0.14664 0.0
C2185 C 0.6888 0.61719 0.11165 0.0
N2186 N 0.6698 0.61215 0.18073 0.0
N2187 N 0.64711 0.58977 0.07759 0.0
H2188 H 0.73894 0.6544 0.10051 0.0
H2189 H 0.71668 0.62744 0.07579 0.0
H2190 H 0.62428 0.57072 0.07046 0.0
H2191 H 0.65848 0.61029 0.06426 0.0
H2192 H 0.64925 0.60085 0.19408 0.0
H2193 H 0.68899 0.63486 0.18787 0.0
H2194 H 0.63179 0.54277 0.18247 0.0
H2195 H 0.60463 0.52073 0.15776 0.0
C2196 C 0.6632 0.39451 0.35897 0.0
C2197 C 0.68866 0.37549 0.37715 0.0
C2198 C 0.65468 0.41473 0.41098 0.0
C2199 C 0.63336 0.43764 0.39243 0.0
N2200 N 0.62174 0.45312 0.3482 0.0
N2201 N 0.71199 0.37041 0.42043 0.0
C2202 C 0.63842 0.42827 0.36625 0.0
C2203 C 0.68501 0.386 0.40322 0.0
N2204 N 0.66239 0.37988 0.33471 0.0
N2205 N 0.64535 0.41988 0.43603 0.0
H2206 H 0.73446 0.34919 0.41571 0.0
H2207 H 0.7141 0.3807 0.43905 0.0
H2208 H 0.6233 0.44056 0.44229 0.0
H2209 H 0.65668 0.40119 0.45035 0.0
H2210 H 0.64147 0.38961 0.32114 0.0
H2211 H 0.68001 0.35504 0.32885 0.0
H2212 H 0.62838 0.45059 0.32896 0.0
H2213 H 0.60416 0.47873 0.35244 0.0
C2214 C 0.8288 0.45701 0.62946 0.0
C2215 C 0.86927 0.44412 0.62379 0.0
C2216 C 0.85123 0.37589 0.64004 0.0
C2217 C 0.80935 0.38742 0.64143 0.0
N2218 N 0.75828 0.43694 0.62843 0.0
N2219 N 0.91646 0.38778 0.61947 0.0
C2220 C 0.79805 0.42737 0.63355 0.0
C2221 C 0.8799 0.40251 0.62792 0.0
N2222 N 0.8196 0.49747 0.63224 0.0
N2223 N 0.86411 0.34041 0.651 0.0
H2224 H 0.93739 0.4056 0.60949 0.0
H2225 H 0.92395 0.35686 0.61998 0.0
H2226 H 0.84465 0.32122 0.66115 0.0
H2227 H 0.89485 0.33248 0.65241 0.0
H2228 H 0.79093 0.50746 0.63825 0.0
H2229 H 0.84156 0.52049 0.63209 0.0
H2230 H 0.74975 0.46505 0.62079 0.0
H2231 H 0.73476 0.41553 0.62832 0.0
C2232 C 0.16629 0.42243 0.09807 0.0
C2233 C 0.14285 0.45098 0.11208 0.0
C2234 C 0.16575 0.41747 0.15129 0.0
C2235 C 0.19619 0.39602 0.13756 0.0
N2236 N 0.22797 0.38244 0.09671 0.0
N2237 N 0.12432 0.47818 0.1534 0.0
C2238 C 0.19683 0.39903 0.11057 0.0
C2239 C 0.14303 0.44885 0.13909 0.0
N2240 N 0.15928 0.41759 0.07273 0.0
N2241 N 0.15849 0.4078 0.17606 0.0
H2242 H 0.1081 0.50261 0.14592 0.0
H2243 H 0.12808 0.4803 0.17297 0.0
H2244 H 0.1739 0.38421 0.18529 0.0
H2245 H 0.13418 0.41992 0.18639 0.0
H2246 H 0.17294 0.39463 0.06198 0.0
H2247 H 0.1363 0.43347 0.06323 0.0
H2248 H 0.23201 0.38841 0.07747 0.0
H2249 H 0.25194 0.36585 0.10441 0.0
C2250 C 0.38186 0.42442 0.8666 0.0
C2251 C 0.37603 0.43374 0.8927 0.0
C2252 C 0.31631 0.38823 0.89393 0.0
C2253 C 0.31762 0.38483 0.86703 0.0
N2254 N 0.35349 0.39615 0.82776 0.0
N2255 N 0.35218 0.40716 0.93241 0.0
C2256 C 0.35126 0.40159 0.85341 0.0
C2257 C 0.3477 0.41006 0.90674 0.0
N2258 N 0.41781 0.43437 0.85495 0.0
N2259 N 0.28361 0.37351 0.90723 0.0
H2260 H 0.37672 0.42069 0.94186 0.0
H2261 H 0.33502 0.38751 0.94372 0.0
H2262 H 0.26 0.35684 0.89907 0.0
H2263 H 0.27837 0.38027 0.92624 0.0
H2264 H 0.42491 0.42684 0.83632 0.0
H2265 H 0.44326 0.4446 0.86488 0.0
H2266 H 0.37341 0.41214 0.816 0.0
H2267 H 0.33413 0.37636 0.81795 0.0
C2268 C 0.36255 0.56304 0.64504 0.0
C2269 C 0.36486 0.56214 0.61805 0.0
C2270 C 0.31164 0.61496 0.61607 0.0
C2271 C 0.31036 0.61687 0.6431 0.0
N2272 N 0.34601 0.60342 0.68212 0.0
N2273 N 0.35207 0.59796 0.57903 0.0
C2274 C 0.33976 0.59453 0.65714 0.0
C2275 C 0.34297 0.59184 0.604 0.0
N2276 N 0.37912 0.53248 0.65934 0.0
N2277 N 0.28167 0.63226 0.60163 0.0
H2278 H 0.37559 0.58228 0.56987 0.0
H2279 H 0.33956 0.6217 0.56841 0.0
H2280 H 0.25713 0.64859 0.60889 0.0
H2281 H 0.27915 0.6271 0.58221 0.0
H2282 H 0.37386 0.52984 0.67876 0.0
H2283 H 0.39473 0.50761 0.65189 0.0
H2284 H 0.36946 0.59035 0.69272 0.0
H2285 H 0.3309 0.62733 0.69127 0.0
C2286 C 0.16263 0.58604 0.40318 0.0
C2287 C 0.14073 0.55669 0.38883 0.0
C2288 C 0.16722 0.58905 0.35008 0.0
C2289 C 0.19651 0.61082 0.36453 0.0
N2290 N 0.22473 0.62519 0.40621 0.0
N2291 N 0.12662 0.52792 0.34717 0.0
C2292 C 0.19464 0.60866 0.3915 0.0
C2293 C 0.14356 0.55787 0.36183 0.0
N2294 N 0.15284 0.59238 0.42804 0.0
N2295 N 0.16199 0.59814 0.32504 0.0
H2296 H 0.10988 0.50347 0.35419 0.0
H2297 H 0.13246 0.52533 0.32781 0.0
H2298 H 0.17811 0.62156 0.31608 0.0
H2299 H 0.13854 0.58572 0.31413 0.0
H2300 H 0.16561 0.61582 0.43881 0.0
H2301 H 0.12855 0.57734 0.43687 0.0
H2302 H 0.22663 0.62001 0.42566 0.0
H2303 H 0.24997 0.64068 0.3991 0.0
loop_
_geom_bond_atom_site_label_1
_geom_bond_atom_site_label_2
_geom_bond_distance
_geom_bond_site_symmetry_2
_ccdc_geom_bond_type
Mn0 O5 2.095 . S
Mn0 O15 2.162 . S
Mn0 O16 2.297 . S
Mn0 O24 2.385 . S
Mn0 O25 2.209 . S
Mn0 O26 2.094 . S
Mn1 O6 2.121 . S
Mn1 N8 2.257 . S
Mn1 N17 2.282 . S
Mn1 O25 2.215 . S
Mn1 O27 2.117 . S
C2 O24 1.234 . S
C2 O25 1.283 . S
C3 O15 1.281 . S
C3 O16 1.236 . S
C4 O26 1.240 . S
C4 O27 1.264 . S
O5 Mn0 2.095 . S
O5 C14 1.250 . S
O6 Mn1 2.121 . S
O6 C14 1.258 . S
C7 N8 1.326 . S
C7 C11 1.460 . S
C7 H13 0.929 . S
N8 Mn1 2.257 . S
N8 C7 1.326 . S
N8 C12 1.362 . S
C9 C10 1.258 . S
C9 C12 1.431 . S
C9 C29 1.449 1_455 S
C10 C9 1.258 . S
C10 C11 1.477 . S
C10 H30 0.931 . S
C11 C7 1.460 . S
C11 C10 1.477 . S
C11 H31 0.930 . S
C12 N8 1.362 . S
C12 C9 1.431 . S
C12 C22 1.476 . S
H13 C7 0.929 . S
C14 O5 1.250 . S
C14 O6 1.258 . S
O15 Mn0 2.162 . S
O15 C3 1.281 . S
O16 Mn0 2.297 . S
O16 C3 1.236 . S
N17 Mn1 2.282 . S
N17 C18 1.328 . S
N17 C22 1.318 . S
C18 N17 1.328 . S
C18 C19 1.457 . S
C18 H23 0.929 . S
C19 C18 1.457 . S
C19 C20 1.291 . S
C19 H32 0.931 . S
C20 C19 1.291 . S
C20 C21 1.373 . S
C20 H33 0.929 1_455 S
C21 C20 1.373 . S
C21 C22 1.396 . S
C21 C28 1.403 1_455 S
C22 C12 1.476 . S
C22 N17 1.318 . S
C22 C21 1.396 . S
H23 C18 0.929 . S
O24 Mn0 2.385 . S
O24 C2 1.234 . S
O25 Mn0 2.209 . S
O25 Mn1 2.215 . S
O25 C2 1.283 . S
O26 Mn0 2.094 . S
O26 C4 1.240 . S
O27 Mn1 2.117 . S
O27 C4 1.264 . S
C28 C21 1.403 1_655 S
C28 C29 1.399 . S
C28 H34 0.929 . S
C29 C9 1.449 1_655 S
C29 C28 1.399 . S
C29 H35 0.930 . S
H30 C10 0.931 . S
H31 C11 0.930 . S
H32 C19 0.931 . S
H33 C20 0.929 1_655 S
H34 C28 0.929 . S
H35 C29 0.930 . S
Mn36 O41 2.095 . S
Mn36 O51 2.162 1_565 S
Mn36 O52 2.297 1_565 S
Mn36 O60 2.385 . S
Mn36 O61 2.209 . S
Mn36 O62 2.094 1_455 S
Mn37 O42 2.121 . S
Mn37 N44 2.257 . S
Mn37 N53 2.282 . S
Mn37 O61 2.215 . S
Mn37 O63 2.117 1_455 S
C38 O60 1.234 . S
C38 O61 1.283 . S
C39 O51 1.281 . S
C39 O52 1.236 . S
C40 O62 1.240 . S
C40 O63 1.264 . S
O41 Mn36 2.095 . S
O41 C50 1.250 . S
O42 Mn37 2.121 . S
O42 C50 1.258 . S
C43 N44 1.326 . S
C43 C47 1.460 . S
C43 H49 0.929 . S
N44 Mn37 2.257 . S
N44 C43 1.326 . S
N44 C48 1.362 . S
C45 C46 1.258 . S
C45 C48 1.431 . S
C45 C65 1.449 . S
C46 C45 1.258 . S
C46 C47 1.477 . S
C46 H66 0.931 . S
C47 C43 1.460 . S
C47 C46 1.477 . S
C47 H67 0.930 . S
C48 N44 1.362 . S
C48 C45 1.431 . S
C48 C58 1.476 . S
H49 C43 0.929 . S
C50 O41 1.250 . S
C50 O42 1.258 . S
O51 Mn36 2.162 1_545 S
O51 C39 1.281 . S
O52 Mn36 2.297 1_545 S
O52 C39 1.236 . S
N53 Mn37 2.282 . S
N53 C54 1.328 . S
N53 C58 1.318 . S
C54 N53 1.328 . S
C54 C55 1.457 . S
C54 H59 0.929 . S
C55 C54 1.457 . S
C55 C56 1.291 . S
C55 H68 0.931 . S
C56 C55 1.291 . S
C56 C57 1.373 . S
C56 H69 0.929 . S
C57 C56 1.373 . S
C57 C58 1.396 . S
C57 C64 1.403 . S
C58 C48 1.476 . S
C58 N53 1.318 . S
C58 C57 1.396 . S
H59 C54 0.929 . S
O60 Mn36 2.385 . S
O60 C38 1.234 . S
O61 Mn36 2.209 . S
O61 Mn37 2.215 . S
O61 C38 1.283 . S
O62 Mn36 2.094 1_655 S
O62 C40 1.240 . S
O63 Mn37 2.117 1_655 S
O63 C40 1.264 . S
C64 C57 1.403 . S
C64 C65 1.399 . S
C64 H70 0.929 . S
C65 C45 1.449 . S
C65 C64 1.399 . S
C65 H71 0.930 . S
H66 C46 0.931 . S
H67 C47 0.930 . S
H68 C55 0.931 . S
H69 C56 0.929 . S
H70 C64 0.929 . S
H71 C65 0.930 . S
Mn72 O77 2.095 . S
Mn72 O87 2.162 . S
Mn72 O88 2.297 . S
Mn72 O96 2.385 . S
Mn72 O97 2.209 . S
Mn72 O98 2.094 . S
Mn73 O78 2.121 . S
Mn73 N80 2.257 . S
Mn73 N89 2.282 . S
Mn73 O97 2.215 . S
Mn73 O99 2.117 . S
C74 O96 1.234 . S
C74 O97 1.283 . S
C75 O87 1.281 . S
C75 O88 1.236 . S
C76 O98 1.240 . S
C76 O99 1.264 . S
O77 Mn72 2.095 . S
O77 C86 1.250 . S
O78 Mn73 2.121 . S
O78 C86 1.258 . S
C79 N80 1.326 . S
C79 C83 1.460 . S
C79 H85 0.929 . S
N80 Mn73 2.257 . S
N80 C79 1.326 . S
N80 C84 1.362 . S
C81 C82 1.258 . S
C81 C84 1.431 . S
C81 C101 1.449 . S
C82 C81 1.258 . S
C82 C83 1.477 . S
C82 H102 0.931 . S
C83 C79 1.460 . S
C83 C82 1.477 . S
C83 H103 0.930 . S
C84 N80 1.362 . S
C84 C81 1.431 . S
C84 C94 1.476 . S
H85 C79 0.929 . S
C86 O77 1.250 . S
C86 O78 1.258 . S
O87 Mn72 2.162 . S
O87 C75 1.281 . S
O88 Mn72 2.297 . S
O88 C75 1.236 . S
N89 Mn73 2.282 . S
N89 C90 1.328 . S
N89 C94 1.318 . S
C90 N89 1.328 . S
C90 C91 1.457 . S
C90 H95 0.929 . S
C91 C90 1.457 . S
C91 C92 1.291 . S
C91 H104 0.931 . S
C92 C91 1.291 . S
C92 C93 1.373 . S
C92 H105 0.929 . S
C93 C92 1.373 . S
C93 C94 1.396 . S
C93 C100 1.403 . S
C94 C84 1.476 . S
C94 N89 1.318 . S
C94 C93 1.396 . S
H95 C90 0.929 . S
O96 Mn72 2.385 . S
O96 C74 1.234 . S
O97 Mn72 2.209 . S
O97 Mn73 2.215 . S
O97 C74 1.283 . S
O98 Mn72 2.094 . S
O98 C76 1.240 . S
O99 Mn73 2.117 . S
O99 C76 1.264 . S
C100 C93 1.403 . S
C100 C101 1.399 . S
C100 H106 0.929 . S
C101 C81 1.449 . S
C101 C100 1.399 . S
C101 H107 0.930 . S
H102 C82 0.931 . S
H103 C83 0.930 . S
H104 C91 0.931 . S
H105 C92 0.929 . S
H106 C100 0.929 . S
H107 C101 0.930 . S
Mn108 O113 2.095 . S
Mn108 O123 2.162 1_545 S
Mn108 O124 2.297 1_545 S
Mn108 O132 2.385 . S
Mn108 O133 2.209 . S
Mn108 O134 2.094 . S
Mn109 O114 2.121 . S
Mn109 N116 2.257 . S
Mn109 N125 2.282 . S
Mn109 O133 2.215 . S
Mn109 O135 2.117 . S
C110 O132 1.234 . S
C110 O133 1.283 . S
C111 O123 1.281 . S
C111 O124 1.236 . S
C112 O134 1.240 . S
C112 O135 1.264 . S
O113 Mn108 2.095 . S
O113 C122 1.250 . S
O114 Mn109 2.121 . S
O114 C122 1.258 . S
C115 N116 1.326 . S
C115 C119 1.460 . S
C115 H121 0.929 . S
N116 Mn109 2.257 . S
N116 C115 1.326 . S
N116 C120 1.362 . S
C117 C118 1.258 . S
C117 C120 1.431 . S
C117 C137 1.449 . S
C118 C117 1.258 . S
C118 C119 1.477 . S
C118 H138 0.931 . S
C119 C115 1.460 . S
C119 C118 1.477 . S
C119 H139 0.930 1_554 S
C120 N116 1.362 . S
C120 C117 1.431 . S
C120 C130 1.476 . S
H121 C115 0.929 . S
C122 O113 1.250 . S
C122 O114 1.258 . S
O123 Mn108 2.162 1_565 S
O123 C111 1.281 . S
O124 Mn108 2.297 1_565 S
O124 C111 1.236 . S
N125 Mn109 2.282 . S
N125 C126 1.328 . S
N125 C130 1.318 . S
C126 N125 1.328 . S
C126 C127 1.457 . S
C126 H131 0.929 . S
C127 C126 1.457 . S
C127 C128 1.291 . S
C127 H140 0.931 . S
C128 C127 1.291 . S
C128 C129 1.373 . S
C128 H141 0.929 . S
C129 C128 1.373 . S
C129 C130 1.396 . S
C129 C136 1.403 . S
C130 C120 1.476 . S
C130 N125 1.318 . S
C130 C129 1.396 . S
H131 C126 0.929 . S
O132 Mn108 2.385 . S
O132 C110 1.234 . S
O133 Mn108 2.209 . S
O133 Mn109 2.215 . S
O133 C110 1.283 . S
O134 Mn108 2.094 . S
O134 C112 1.240 . S
O135 Mn109 2.117 . S
O135 C112 1.264 . S
C136 C129 1.403 . S
C136 C137 1.399 . S
C136 H142 0.929 . S
C137 C117 1.449 . S
C137 C136 1.399 . S
C137 H143 0.930 . S
H138 C118 0.931 . S
H139 C119 0.930 1_556 S
H140 C127 0.931 . S
H141 C128 0.929 . S
H142 C136 0.929 . S
H143 C137 0.930 . S
Mn144 O149 2.095 . S
Mn144 O159 2.162 . S
Mn144 O160 2.297 . S
Mn144 O168 2.385 . S
Mn144 O169 2.209 . S
Mn144 O170 2.094 . S
Mn145 O150 2.121 . S
Mn145 N152 2.257 . S
Mn145 N161 2.282 . S
Mn145 O169 2.215 . S
Mn145 O171 2.117 . S
C146 O168 1.234 . S
C146 O169 1.283 . S
C147 O159 1.281 . S
C147 O160 1.236 . S
C148 O170 1.240 . S
C148 O171 1.264 . S
O149 Mn144 2.095 . S
O149 C158 1.250 . S
O150 Mn145 2.121 . S
O150 C158 1.258 . S
C151 N152 1.326 . S
C151 C155 1.460 . S
C151 H157 0.929 . S
N152 Mn145 2.257 . S
N152 C151 1.326 . S
N152 C156 1.362 . S
C153 C154 1.258 . S
C153 C156 1.431 . S
C153 C173 1.449 1_455 S
C154 C153 1.258 . S
C154 C155 1.477 . S
C154 H174 0.931 . S
C155 C151 1.460 . S
C155 C154 1.477 . S
C155 H175 0.930 . S
C156 N152 1.362 . S
C156 C153 1.431 . S
C156 C166 1.476 . S
H157 C151 0.929 . S
C158 O149 1.250 . S
C158 O150 1.258 . S
O159 Mn144 2.162 . S
O159 C147 1.281 . S
O160 Mn144 2.297 . S
O160 C147 1.236 . S
N161 Mn145 2.282 . S
N161 C162 1.328 . S
N161 C166 1.318 . S
C162 N161 1.328 . S
C162 C163 1.457 . S
C162 H167 0.929 . S
C163 C162 1.457 . S
C163 C164 1.291 . S
C163 H176 0.931 . S
C164 C163 1.291 . S
C164 C165 1.373 . S
C164 H177 0.929 1_455 S
C165 C164 1.373 . S
C165 C166 1.396 . S
C165 C172 1.403 1_455 S
C166 C156 1.476 . S
C166 N161 1.318 . S
C166 C165 1.396 . S
H167 C162 0.929 . S
O168 Mn144 2.385 . S
O168 C146 1.234 . S
O169 Mn144 2.209 . S
O169 Mn145 2.215 . S
O169 C146 1.283 . S
O170 Mn144 2.094 . S
O170 C148 1.240 . S
O171 Mn145 2.117 . S
O171 C148 1.264 . S
C172 C165 1.403 1_655 S
C172 C173 1.399 . S
C172 H178 0.929 . S
C173 C153 1.449 1_655 S
C173 C172 1.399 . S
C173 H179 0.930 . S
H174 C154 0.931 . S
H175 C155 0.930 . S
H176 C163 0.931 . S
H177 C164 0.929 1_655 S
H178 C172 0.929 . S
H179 C173 0.930 . S
Mn180 O185 2.095 . S
Mn180 O195 2.162 1_565 S
Mn180 O196 2.297 1_565 S
Mn180 O204 2.385 . S
Mn180 O205 2.209 . S
Mn180 O206 2.094 . S
Mn181 O186 2.121 . S
Mn181 N188 2.257 . S
Mn181 N197 2.282 . S
Mn181 O205 2.215 . S
Mn181 O207 2.117 . S
C182 O204 1.234 . S
C182 O205 1.283 . S
C183 O195 1.281 . S
C183 O196 1.236 . S
C184 O206 1.240 . S
C184 O207 1.264 . S
O185 Mn180 2.095 . S
O185 C194 1.250 . S
O186 Mn181 2.121 . S
O186 C194 1.258 . S
C187 N188 1.326 . S
C187 C191 1.460 . S
C187 H193 0.929 . S
N188 Mn181 2.257 . S
N188 C187 1.326 . S
N188 C192 1.362 . S
C189 C190 1.258 . S
C189 C192 1.431 . S
C189 C209 1.449 . S
C190 C189 1.258 . S
C190 C191 1.477 . S
C190 H210 0.931 . S
C191 C187 1.460 . S
C191 C190 1.477 . S
C191 H211 0.930 . S
C192 N188 1.362 . S
C192 C189 1.431 . S
C192 C202 1.476 . S
H193 C187 0.929 . S
C194 O185 1.250 . S
C194 O186 1.258 . S
O195 Mn180 2.162 1_545 S
O195 C183 1.281 . S
O196 Mn180 2.297 1_545 S
O196 C183 1.236 . S
N197 Mn181 2.282 . S
N197 C198 1.328 . S
N197 C202 1.318 . S
C198 N197 1.328 . S
C198 C199 1.457 . S
C198 H203 0.929 . S
C199 C198 1.457 . S
C199 C200 1.291 . S
C199 H212 0.931 . S
C200 C199 1.291 . S
C200 C201 1.373 . S
C200 H213 0.929 . S
C201 C200 1.373 . S
C201 C202 1.396 . S
C201 C208 1.403 . S
C202 C192 1.476 . S
C202 N197 1.318 . S
C202 C201 1.396 . S
H203 C198 0.929 . S
O204 Mn180 2.385 . S
O204 C182 1.234 . S
O205 Mn180 2.209 . S
O205 Mn181 2.215 . S
O205 C182 1.283 . S
O206 Mn180 2.094 . S
O206 C184 1.240 . S
O207 Mn181 2.117 . S
O207 C184 1.264 . S
C208 C201 1.403 . S
C208 C209 1.399 . S
C208 H214 0.929 . S
C209 C189 1.449 . S
C209 C208 1.399 . S
C209 H215 0.930 . S
H210 C190 0.931 . S
H211 C191 0.930 . S
H212 C199 0.931 . S
H213 C200 0.929 . S
H214 C208 0.929 . S
H215 C209 0.930 . S
Mn216 O221 2.095 . S
Mn216 O231 2.162 . S
Mn216 O232 2.297 . S
Mn216 O240 2.385 . S
Mn216 O241 2.209 . S
Mn216 O242 2.094 . S
Mn217 O222 2.121 . S
Mn217 N224 2.257 . S
Mn217 N233 2.282 . S
Mn217 O241 2.215 . S
Mn217 O243 2.117 . S
C218 O240 1.234 . S
C218 O241 1.283 . S
C219 O231 1.281 . S
C219 O232 1.236 . S
C220 O242 1.240 . S
C220 O243 1.264 . S
O221 Mn216 2.095 . S
O221 C230 1.250 . S
O222 Mn217 2.121 . S
O222 C230 1.258 . S
C223 N224 1.326 . S
C223 C227 1.460 . S
C223 H229 0.929 . S
N224 Mn217 2.257 . S
N224 C223 1.326 . S
N224 C228 1.362 . S
C225 C226 1.258 . S
C225 C228 1.431 . S
C225 C245 1.449 . S
C226 C225 1.258 . S
C226 C227 1.477 . S
C226 H246 0.931 . S
C227 C223 1.460 . S
C227 C226 1.477 . S
C227 H247 0.930 . S
C228 N224 1.362 . S
C228 C225 1.431 . S
C228 C238 1.476 . S
H229 C223 0.929 . S
C230 O221 1.250 . S
C230 O222 1.258 . S
O231 Mn216 2.162 . S
O231 C219 1.281 . S
O232 Mn216 2.297 . S
O232 C219 1.236 . S
N233 Mn217 2.282 . S
N233 C234 1.328 . S
N233 C238 1.318 . S
C234 N233 1.328 . S
C234 C235 1.457 . S
C234 H239 0.929 . S
C235 C234 1.457 . S
C235 C236 1.291 . S
C235 H248 0.931 . S
C236 C235 1.291 . S
C236 C237 1.373 . S
C236 H249 0.929 . S
C237 C236 1.373 . S
C237 C238 1.396 . S
C237 C244 1.403 . S
C238 C228 1.476 . S
C238 N233 1.318 . S
C238 C237 1.396 . S
H239 C234 0.929 . S
O240 Mn216 2.385 . S
O240 C218 1.234 . S
O241 Mn216 2.209 . S
O241 Mn217 2.215 . S
O241 C218 1.283 . S
O242 Mn216 2.094 . S
O242 C220 1.240 . S
O243 Mn217 2.117 . S
O243 C220 1.264 . S
C244 C237 1.403 . S
C244 C245 1.399 . S
C244 H250 0.929 . S
C245 C225 1.449 . S
C245 C244 1.399 . S
C245 H251 0.930 . S
H246 C226 0.931 . S
H247 C227 0.930 . S
H248 C235 0.931 . S
H249 C236 0.929 . S
H250 C244 0.929 . S
H251 C245 0.930 . S
Mn252 O257 2.095 . S
Mn252 O267 2.162 1_545 S
Mn252 O268 2.297 1_545 S
Mn252 O276 2.385 . S
Mn252 O277 2.209 . S
Mn252 O278 2.094 1_455 S
Mn253 O258 2.121 . S
Mn253 N260 2.257 . S
Mn253 N269 2.282 . S
Mn253 O277 2.215 . S
Mn253 O279 2.117 1_455 S
C254 O276 1.234 . S
C254 O277 1.283 . S
C255 O267 1.281 . S
C255 O268 1.236 . S
C256 O278 1.240 . S
C256 O279 1.264 . S
O257 Mn252 2.095 . S
O257 C266 1.250 . S
O258 Mn253 2.121 . S
O258 C266 1.258 . S
C259 N260 1.326 . S
C259 C263 1.460 . S
C259 H265 0.929 . S
N260 Mn253 2.257 . S
N260 C259 1.326 . S
N260 C264 1.362 . S
C261 C262 1.258 . S
C261 C264 1.431 . S
C261 C281 1.449 . S
C262 C261 1.258 . S
C262 C263 1.477 . S
C262 H282 0.931 . S
C263 C259 1.460 . S
C263 C262 1.477 . S
C263 H283 0.930 1_556 S
C264 N260 1.362 . S
C264 C261 1.431 . S
C264 C274 1.476 . S
H265 C259 0.929 . S
C266 O257 1.250 . S
C266 O258 1.258 . S
O267 Mn252 2.162 1_565 S
O267 C255 1.281 . S
O268 Mn252 2.297 1_565 S
O268 C255 1.236 . S
N269 Mn253 2.282 . S
N269 C270 1.328 . S
N269 C274 1.318 . S
C270 N269 1.328 . S
C270 C271 1.457 . S
C270 H275 0.929 . S
C271 C270 1.457 . S
C271 C272 1.291 . S
C271 H284 0.931 . S
C272 C271 1.291 . S
C272 C273 1.373 . S
C272 H285 0.929 . S
C273 C272 1.373 . S
C273 C274 1.396 . S
C273 C280 1.403 . S
C274 C264 1.476 . S
C274 N269 1.318 . S
C274 C273 1.396 . S
H275 C270 0.929 . S
O276 Mn252 2.385 . S
O276 C254 1.234 . S
O277 Mn252 2.209 . S
O277 Mn253 2.215 . S
O277 C254 1.283 . S
O278 Mn252 2.094 1_655 S
O278 C256 1.240 . S
O279 Mn253 2.117 1_655 S
O279 C256 1.264 . S
C280 C273 1.403 . S
C280 C281 1.399 . S
C280 H286 0.929 . S
C281 C261 1.449 . S
C281 C280 1.399 . S
C281 H287 0.930 . S
H282 C262 0.931 . S
H283 C263 0.930 1_554 S
H284 C271 0.931 . S
H285 C272 0.929 . S
H286 C280 0.929 . S
H287 C281 0.930 . S
Mn288 O293 2.095 . S
Mn288 O303 2.162 . S
Mn288 O304 2.297 . S
Mn288 O312 2.385 . S
Mn288 O313 2.209 . S
Mn288 O314 2.094 . S
Mn289 O294 2.121 . S
Mn289 N296 2.257 . S
Mn289 N305 2.282 . S
Mn289 O313 2.215 . S
Mn289 O315 2.117 . S
C290 O312 1.234 . S
C290 O313 1.283 . S
C291 O303 1.281 . S
C291 O304 1.236 . S
C292 O314 1.240 . S
C292 O315 1.264 . S
O293 Mn288 2.095 . S
O293 C302 1.250 . S
O294 Mn289 2.121 . S
O294 C302 1.258 . S
C295 N296 1.326 . S
C295 C299 1.460 . S
C295 H301 0.929 . S
N296 Mn289 2.257 . S
N296 C295 1.326 . S
N296 C300 1.362 . S
C297 C298 1.258 . S
C297 C300 1.431 . S
C297 C317 1.449 . S
C298 C297 1.258 . S
C298 C299 1.477 . S
C298 H318 0.931 . S
C299 C295 1.460 . S
C299 C298 1.477 . S
C299 H319 0.930 . S
C300 N296 1.362 . S
C300 C297 1.431 . S
C300 C310 1.476 . S
H301 C295 0.929 . S
C302 O293 1.250 . S
C302 O294 1.258 . S
O303 Mn288 2.162 . S
O303 C291 1.281 . S
O304 Mn288 2.297 . S
O304 C291 1.236 . S
N305 Mn289 2.282 . S
N305 C306 1.328 . S
N305 C310 1.318 . S
C306 N305 1.328 . S
C306 C307 1.457 . S
C306 H311 0.929 . S
C307 C306 1.457 . S
C307 C308 1.291 . S
C307 H320 0.931 . S
C308 C307 1.291 . S
C308 C309 1.373 . S
C308 H321 0.929 1_565 S
C309 C308 1.373 . S
C309 C310 1.396 . S
C309 C316 1.403 1_565 S
C310 C300 1.476 . S
C310 N305 1.318 . S
C310 C309 1.396 . S
H311 C306 0.929 . S
O312 Mn288 2.385 . S
O312 C290 1.234 . S
O313 Mn288 2.209 . S
O313 Mn289 2.215 . S
O313 C290 1.283 . S
O314 Mn288 2.094 . S
O314 C292 1.240 . S
O315 Mn289 2.117 . S
O315 C292 1.264 . S
C316 C309 1.403 1_545 S
C316 C317 1.399 1_545 S
C316 H322 0.929 . S
C317 C297 1.449 . S
C317 C316 1.399 1_565 S
C317 H323 0.930 1_565 S
H318 C298 0.931 . S
H319 C299 0.930 . S
H320 C307 0.931 . S
H321 C308 0.929 1_545 S
H322 C316 0.929 . S
H323 C317 0.930 1_545 S
Mn324 O329 2.095 1_545 S
Mn324 O339 2.162 1_655 S
Mn324 O340 2.297 1_655 S
Mn324 O348 2.385 . S
Mn324 O349 2.209 . S
Mn324 O350 2.094 1_545 S
Mn325 O330 2.121 . S
Mn325 N332 2.257 . S
Mn325 N341 2.282 . S
Mn325 O349 2.215 . S
Mn325 O351 2.117 1_545 S
C326 O348 1.234 . S
C326 O349 1.283 . S
C327 O339 1.281 . S
C327 O340 1.236 . S
C328 O350 1.240 . S
C328 O351 1.264 . S
O329 Mn324 2.095 1_565 S
O329 C338 1.250 1_565 S
O330 Mn325 2.121 . S
O330 C338 1.258 . S
C331 N332 1.326 . S
C331 C335 1.460 . S
C331 H337 0.929 . S
N332 Mn325 2.257 . S
N332 C331 1.326 . S
N332 C336 1.362 . S
C333 C334 1.258 . S
C333 C336 1.431 . S
C333 C353 1.449 . S
C334 C333 1.258 . S
C334 C335 1.477 . S
C334 H354 0.931 . S
C335 C331 1.460 . S
C335 C334 1.477 . S
C335 H355 0.930 . S
C336 N332 1.362 . S
C336 C333 1.431 . S
C336 C346 1.476 . S
H337 C331 0.929 . S
C338 O329 1.250 1_545 S
C338 O330 1.258 . S
O339 Mn324 2.162 1_455 S
O339 C327 1.281 . S
O340 Mn324 2.297 1_455 S
O340 C327 1.236 . S
N341 Mn325 2.282 . S
N341 C342 1.328 . S
N341 C346 1.318 . S
C342 N341 1.328 . S
C342 C343 1.457 . S
C342 H347 0.929 . S
C343 C342 1.457 . S
C343 C344 1.291 . S
C343 H356 0.931 . S
C344 C343 1.291 . S
C344 C345 1.373 . S
C344 H357 0.929 . S
C345 C344 1.373 . S
C345 C346 1.396 . S
C345 C352 1.403 . S
C346 C336 1.476 . S
C346 N341 1.318 . S
C346 C345 1.396 . S
H347 C342 0.929 . S
O348 Mn324 2.385 . S
O348 C326 1.234 . S
O349 Mn324 2.209 . S
O349 Mn325 2.215 . S
O349 C326 1.283 . S
O350 Mn324 2.094 1_565 S
O350 C328 1.240 . S
O351 Mn325 2.117 1_565 S
O351 C328 1.264 . S
C352 C345 1.403 . S
C352 C353 1.399 . S
C352 H358 0.929 . S
C353 C333 1.449 . S
C353 C352 1.399 . S
C353 H359 0.930 . S
H354 C334 0.931 . S
H355 C335 0.930 . S
H356 C343 0.931 . S
H357 C344 0.929 . S
H358 C352 0.929 . S
H359 C353 0.930 . S
Mn360 O365 2.095 . S
Mn360 O375 2.162 . S
Mn360 O376 2.297 . S
Mn360 O384 2.385 . S
Mn360 O385 2.209 . S
Mn360 O386 2.094 . S
Mn361 O366 2.121 . S
Mn361 N368 2.257 . S
Mn361 N377 2.282 . S
Mn361 O385 2.215 . S
Mn361 O387 2.117 . S
C362 O384 1.234 . S
C362 O385 1.283 . S
C363 O375 1.281 . S
C363 O376 1.236 . S
C364 O386 1.240 . S
C364 O387 1.264 . S
O365 Mn360 2.095 . S
O365 C374 1.250 . S
O366 Mn361 2.121 . S
O366 C374 1.258 . S
C367 N368 1.326 . S
C367 C371 1.460 . S
C367 H373 0.929 . S
N368 Mn361 2.257 . S
N368 C367 1.326 . S
N368 C372 1.362 . S
C369 C370 1.258 . S
C369 C372 1.431 . S
C369 C389 1.449 . S
C370 C369 1.258 . S
C370 C371 1.477 . S
C370 H390 0.931 . S
C371 C367 1.460 . S
C371 C370 1.477 . S
C371 H391 0.930 . S
C372 N368 1.362 . S
C372 C369 1.431 . S
C372 C382 1.476 . S
H373 C367 0.929 . S
C374 O365 1.250 . S
C374 O366 1.258 . S
O375 Mn360 2.162 . S
O375 C363 1.281 . S
O376 Mn360 2.297 . S
O376 C363 1.236 . S
N377 Mn361 2.282 . S
N377 C378 1.328 . S
N377 C382 1.318 . S
C378 N377 1.328 . S
C378 C379 1.457 . S
C378 H383 0.929 . S
C379 C378 1.457 . S
C379 C380 1.291 . S
C379 H392 0.931 . S
C380 C379 1.291 . S
C380 C381 1.373 . S
C380 H393 0.929 1_545 S
C381 C380 1.373 . S
C381 C382 1.396 . S
C381 C388 1.403 1_545 S
C382 C372 1.476 . S
C382 N377 1.318 . S
C382 C381 1.396 . S
H383 C378 0.929 . S
O384 Mn360 2.385 . S
O384 C362 1.234 . S
O385 Mn360 2.209 . S
O385 Mn361 2.215 . S
O385 C362 1.283 . S
O386 Mn360 2.094 . S
O386 C364 1.240 . S
O387 Mn361 2.117 . S
O387 C364 1.264 . S
C388 C381 1.403 1_565 S
C388 C389 1.399 1_565 S
C388 H394 0.929 . S
C389 C369 1.449 . S
C389 C388 1.399 1_545 S
C389 H395 0.930 1_545 S
H390 C370 0.931 . S
H391 C371 0.930 . S
H392 C379 0.931 . S
H393 C380 0.929 1_565 S
H394 C388 0.929 . S
H395 C389 0.930 1_565 S
Mn396 O401 2.095 1_565 S
Mn396 O411 2.162 . S
Mn396 O412 2.297 . S
Mn396 O420 2.385 . S
Mn396 O421 2.209 . S
Mn396 O422 2.094 1_565 S
Mn397 O402 2.121 . S
Mn397 N404 2.257 . S
Mn397 N413 2.282 . S
Mn397 O421 2.215 . S
Mn397 O423 2.117 1_565 S
C398 O420 1.234 . S
C398 O421 1.283 . S
C399 O411 1.281 . S
C399 O412 1.236 . S
C400 O422 1.240 . S
C400 O423 1.264 . S
O401 Mn396 2.095 1_545 S
O401 C410 1.250 1_545 S
O402 Mn397 2.121 . S
O402 C410 1.258 . S
C403 N404 1.326 . S
C403 C407 1.460 . S
C403 H409 0.929 . S
N404 Mn397 2.257 . S
N404 C403 1.326 . S
N404 C408 1.362 . S
C405 C406 1.258 . S
C405 C408 1.431 . S
C405 C425 1.449 . S
C406 C405 1.258 . S
C406 C407 1.477 . S
C406 H426 0.931 . S
C407 C403 1.460 . S
C407 C406 1.477 . S
C407 H427 0.930 1_556 S
C408 N404 1.362 . S
C408 C405 1.431 . S
C408 C418 1.476 . S
H409 C403 0.929 . S
C410 O401 1.250 1_565 S
C410 O402 1.258 . S
O411 Mn396 2.162 . S
O411 C399 1.281 . S
O412 Mn396 2.297 . S
O412 C399 1.236 . S
N413 Mn397 2.282 . S
N413 C414 1.328 . S
N413 C418 1.318 . S
C414 N413 1.328 . S
C414 C415 1.457 . S
C414 H419 0.929 . S
C415 C414 1.457 . S
C415 C416 1.291 . S
C415 H428 0.931 . S
C416 C415 1.291 . S
C416 C417 1.373 . S
C416 H429 0.929 . S
C417 C416 1.373 . S
C417 C418 1.396 . S
C417 C424 1.403 . S
C418 C408 1.476 . S
C418 N413 1.318 . S
C418 C417 1.396 . S
H419 C414 0.929 . S
O420 Mn396 2.385 . S
O420 C398 1.234 . S
O421 Mn396 2.209 . S
O421 Mn397 2.215 . S
O421 C398 1.283 . S
O422 Mn396 2.094 1_545 S
O422 C400 1.240 . S
O423 Mn397 2.117 1_545 S
O423 C400 1.264 . S
C424 C417 1.403 . S
C424 C425 1.399 . S
C424 H430 0.929 . S
C425 C405 1.449 . S
C425 C424 1.399 . S
C425 H431 0.930 . S
H426 C406 0.931 . S
H427 C407 0.930 1_554 S
H428 C415 0.931 . S
H429 C416 0.929 . S
H430 C424 0.929 . S
H431 C425 0.930 . S
Mn432 O437 2.095 . S
Mn432 O447 2.162 . S
Mn432 O448 2.297 . S
Mn432 O456 2.385 . S
Mn432 O457 2.209 . S
Mn432 O458 2.094 . S
Mn433 O438 2.121 . S
Mn433 N440 2.257 . S
Mn433 N449 2.282 . S
Mn433 O457 2.215 . S
Mn433 O459 2.117 . S
C434 O456 1.234 . S
C434 O457 1.283 . S
C435 O447 1.281 . S
C435 O448 1.236 . S
C436 O458 1.240 . S
C436 O459 1.264 . S
O437 Mn432 2.095 . S
O437 C446 1.250 . S
O438 Mn433 2.121 . S
O438 C446 1.258 . S
C439 N440 1.326 . S
C439 C443 1.460 . S
C439 H445 0.929 . S
N440 Mn433 2.257 . S
N440 C439 1.326 . S
N440 C444 1.362 . S
C441 C442 1.258 . S
C441 C444 1.431 . S
C441 C461 1.449 . S
C442 C441 1.258 . S
C442 C443 1.477 . S
C442 H462 0.931 . S
C443 C439 1.460 . S
C443 C442 1.477 . S
C443 H463 0.930 . S
C444 N440 1.362 . S
C444 C441 1.431 . S
C444 C454 1.476 . S
H445 C439 0.929 . S
C446 O437 1.250 . S
C446 O438 1.258 . S
O447 Mn432 2.162 . S
O447 C435 1.281 . S
O448 Mn432 2.297 . S
O448 C435 1.236 . S
N449 Mn433 2.282 . S
N449 C450 1.328 . S
N449 C454 1.318 . S
C450 N449 1.328 . S
C450 C451 1.457 . S
C450 H455 0.929 . S
C451 C450 1.457 . S
C451 C452 1.291 . S
C451 H464 0.931 . S
C452 C451 1.291 . S
C452 C453 1.373 . S
C452 H465 0.929 1_545 S
C453 C452 1.373 . S
C453 C454 1.396 . S
C453 C460 1.403 1_545 S
C454 C444 1.476 . S
C454 N449 1.318 . S
C454 C453 1.396 . S
H455 C450 0.929 . S
O456 Mn432 2.385 . S
O456 C434 1.234 . S
O457 Mn432 2.209 . S
O457 Mn433 2.215 . S
O457 C434 1.283 . S
O458 Mn432 2.094 . S
O458 C436 1.240 . S
O459 Mn433 2.117 . S
O459 C436 1.264 . S
C460 C453 1.403 1_565 S
C460 C461 1.399 1_565 S
C460 H466 0.929 . S
C461 C441 1.449 . S
C461 C460 1.399 1_545 S
C461 H467 0.930 1_545 S
H462 C442 0.931 . S
H463 C443 0.930 . S
H464 C451 0.931 . S
H465 C452 0.929 1_565 S
H466 C460 0.929 . S
H467 C461 0.930 1_565 S
Mn468 O473 2.095 1_545 S
Mn468 O483 2.162 . S
Mn468 O484 2.297 . S
Mn468 O492 2.385 . S
Mn468 O493 2.209 . S
Mn468 O494 2.094 1_545 S
Mn469 O474 2.121 . S
Mn469 N476 2.257 . S
Mn469 N485 2.282 . S
Mn469 O493 2.215 . S
Mn469 O495 2.117 1_545 S
C470 O492 1.234 . S
C470 O493 1.283 . S
C471 O483 1.281 . S
C471 O484 1.236 . S
C472 O494 1.240 . S
C472 O495 1.264 . S
O473 Mn468 2.095 1_565 S
O473 C482 1.250 1_565 S
O474 Mn469 2.121 . S
O474 C482 1.258 . S
C475 N476 1.326 . S
C475 C479 1.460 . S
C475 H481 0.929 . S
N476 Mn469 2.257 . S
N476 C475 1.326 . S
N476 C480 1.362 . S
C477 C478 1.258 . S
C477 C480 1.431 . S
C477 C497 1.449 . S
C478 C477 1.258 . S
C478 C479 1.477 . S
C478 H498 0.931 . S
C479 C475 1.460 . S
C479 C478 1.477 . S
C479 H499 0.930 . S
C480 N476 1.362 . S
C480 C477 1.431 . S
C480 C490 1.476 . S
H481 C475 0.929 . S
C482 O473 1.250 1_545 S
C482 O474 1.258 . S
O483 Mn468 2.162 . S
O483 C471 1.281 . S
O484 Mn468 2.297 . S
O484 C471 1.236 . S
N485 Mn469 2.282 . S
N485 C486 1.328 . S
N485 C490 1.318 . S
C486 N485 1.328 . S
C486 C487 1.457 . S
C486 H491 0.929 . S
C487 C486 1.457 . S
C487 C488 1.291 . S
C487 H500 0.931 . S
C488 C487 1.291 . S
C488 C489 1.373 . S
C488 H501 0.929 . S
C489 C488 1.373 . S
C489 C490 1.396 . S
C489 C496 1.403 . S
C490 C480 1.476 . S
C490 N485 1.318 . S
C490 C489 1.396 . S
H491 C486 0.929 . S
O492 Mn468 2.385 . S
O492 C470 1.234 . S
O493 Mn468 2.209 . S
O493 Mn469 2.215 . S
O493 C470 1.283 . S
O494 Mn468 2.094 1_565 S
O494 C472 1.240 . S
O495 Mn469 2.117 1_565 S
O495 C472 1.264 . S
C496 C489 1.403 . S
C496 C497 1.399 . S
C496 H502 0.929 . S
C497 C477 1.449 . S
C497 C496 1.399 . S
C497 H503 0.930 . S
H498 C478 0.931 . S
H499 C479 0.930 . S
H500 C487 0.931 . S
H501 C488 0.929 . S
H502 C496 0.929 . S
H503 C497 0.930 . S
Mn504 O509 2.095 . S
Mn504 O519 2.162 . S
Mn504 O520 2.297 . S
Mn504 O528 2.385 . S
Mn504 O529 2.209 . S
Mn504 O530 2.094 . S
Mn505 O510 2.121 . S
Mn505 N512 2.257 . S
Mn505 N521 2.282 . S
Mn505 O529 2.215 . S
Mn505 O531 2.117 . S
C506 O528 1.234 . S
C506 O529 1.283 . S
C507 O519 1.281 . S
C507 O520 1.236 . S
C508 O530 1.240 . S
C508 O531 1.264 . S
O509 Mn504 2.095 . S
O509 C518 1.250 . S
O510 Mn505 2.121 . S
O510 C518 1.258 . S
C511 N512 1.326 . S
C511 C515 1.460 . S
C511 H517 0.929 . S
N512 Mn505 2.257 . S
N512 C511 1.326 . S
N512 C516 1.362 . S
C513 C514 1.258 . S
C513 C516 1.431 . S
C513 C533 1.449 . S
C514 C513 1.258 . S
C514 C515 1.477 . S
C514 H534 0.931 . S
C515 C511 1.460 . S
C515 C514 1.477 . S
C515 H535 0.930 . S
C516 N512 1.362 . S
C516 C513 1.431 . S
C516 C526 1.476 . S
H517 C511 0.929 . S
C518 O509 1.250 . S
C518 O510 1.258 . S
O519 Mn504 2.162 . S
O519 C507 1.281 . S
O520 Mn504 2.297 . S
O520 C507 1.236 . S
N521 Mn505 2.282 . S
N521 C522 1.328 . S
N521 C526 1.318 . S
C522 N521 1.328 . S
C522 C523 1.457 . S
C522 H527 0.929 . S
C523 C522 1.457 . S
C523 C524 1.291 . S
C523 H536 0.931 . S
C524 C523 1.291 . S
C524 C525 1.373 . S
C524 H537 0.929 1_565 S
C525 C524 1.373 . S
C525 C526 1.396 . S
C525 C532 1.403 1_565 S
C526 C516 1.476 . S
C526 N521 1.318 . S
C526 C525 1.396 . S
H527 C522 0.929 . S
O528 Mn504 2.385 . S
O528 C506 1.234 . S
O529 Mn504 2.209 . S
O529 Mn505 2.215 . S
O529 C506 1.283 . S
O530 Mn504 2.094 . S
O530 C508 1.240 . S
O531 Mn505 2.117 . S
O531 C508 1.264 . S
C532 C525 1.403 1_545 S
C532 C533 1.399 1_545 S
C532 H538 0.929 . S
C533 C513 1.449 . S
C533 C532 1.399 1_565 S
C533 H539 0.930 1_565 S
H534 C514 0.931 . S
H535 C515 0.930 . S
H536 C523 0.931 . S
H537 C524 0.929 1_545 S
H538 C532 0.929 . S
H539 C533 0.930 1_545 S
Mn540 O545 2.095 1_565 S
Mn540 O555 2.162 1_655 S
Mn540 O556 2.297 1_655 S
Mn540 O564 2.385 . S
Mn540 O565 2.209 . S
Mn540 O566 2.094 1_565 S
Mn541 O546 2.121 . S
Mn541 N548 2.257 . S
Mn541 N557 2.282 . S
Mn541 O565 2.215 . S
Mn541 O567 2.117 1_565 S
C542 O564 1.234 . S
C542 O565 1.283 . S
C543 O555 1.281 . S
C543 O556 1.236 . S
C544 O566 1.240 . S
C544 O567 1.264 . S
O545 Mn540 2.095 1_545 S
O545 C554 1.250 1_545 S
O546 Mn541 2.121 . S
O546 C554 1.258 . S
C547 N548 1.326 . S
C547 C551 1.460 . S
C547 H553 0.929 . S
N548 Mn541 2.257 . S
N548 C547 1.326 . S
N548 C552 1.362 . S
C549 C550 1.258 . S
C549 C552 1.431 . S
C549 C569 1.449 . S
C550 C549 1.258 . S
C550 C551 1.477 . S
C550 H570 0.931 . S
C551 C547 1.460 . S
C551 C550 1.477 . S
C551 H571 0.930 1_554 S
C552 N548 1.362 . S
C552 C549 1.431 . S
C552 C562 1.476 . S
H553 C547 0.929 . S
C554 O545 1.250 1_565 S
C554 O546 1.258 . S
O555 Mn540 2.162 1_455 S
O555 C543 1.281 . S
O556 Mn540 2.297 1_455 S
O556 C543 1.236 . S
N557 Mn541 2.282 . S
N557 C558 1.328 . S
N557 C562 1.318 . S
C558 N557 1.328 . S
C558 C559 1.457 . S
C558 H563 0.929 . S
C559 C558 1.457 . S
C559 C560 1.291 . S
C559 H572 0.931 . S
C560 C559 1.291 . S
C560 C561 1.373 . S
C560 H573 0.929 . S
C561 C560 1.373 . S
C561 C562 1.396 . S
C561 C568 1.403 . S
C562 C552 1.476 . S
C562 N557 1.318 . S
C562 C561 1.396 . S
H563 C558 0.929 . S
O564 Mn540 2.385 . S
O564 C542 1.234 . S
O565 Mn540 2.209 . S
O565 Mn541 2.215 . S
O565 C542 1.283 . S
O566 Mn540 2.094 1_545 S
O566 C544 1.240 . S
O567 Mn541 2.117 1_545 S
O567 C544 1.264 . S
C568 C561 1.403 . S
C568 C569 1.399 . S
C568 H574 0.929 . S
C569 C549 1.449 . S
C569 C568 1.399 . S
C569 H575 0.930 . S
H570 C550 0.931 . S
H571 C551 0.930 1_556 S
H572 C559 0.931 . S
H573 C560 0.929 . S
H574 C568 0.929 . S
H575 C569 0.930 . S
Mn576 O581 2.095 . S
Mn576 O591 2.162 . S
Mn576 O592 2.297 . S
Mn576 O600 2.385 . S
Mn576 O601 2.209 . S
Mn576 O602 2.094 . S
Mn577 O582 2.121 . S
Mn577 N584 2.257 . S
Mn577 N593 2.282 . S
Mn577 O601 2.215 . S
Mn577 O603 2.117 . S
C578 O600 1.234 . S
C578 O601 1.283 . S
C579 O591 1.281 . S
C579 O592 1.236 . S
C580 O602 1.240 . S
C580 O603 1.264 . S
O581 Mn576 2.095 . S
O581 C590 1.250 . S
O582 Mn577 2.121 . S
O582 C590 1.258 . S
C583 N584 1.326 . S
C583 C587 1.460 . S
C583 H589 0.929 . S
N584 Mn577 2.257 . S
N584 C583 1.326 . S
N584 C588 1.362 . S
C585 C586 1.258 . S
C585 C588 1.431 . S
C585 C605 1.449 . S
C586 C585 1.258 . S
C586 C587 1.477 . S
C586 H606 0.931 . S
C587 C583 1.460 . S
C587 C586 1.477 . S
C587 H607 0.930 . S
C588 N584 1.362 . S
C588 C585 1.431 . S
C588 C598 1.476 . S
H589 C583 0.929 . S
C590 O581 1.250 . S
C590 O582 1.258 . S
O591 Mn576 2.162 . S
O591 C579 1.281 . S
O592 Mn576 2.297 . S
O592 C579 1.236 . S
N593 Mn577 2.282 . S
N593 C594 1.328 . S
N593 C598 1.318 . S
C594 N593 1.328 . S
C594 C595 1.457 . S
C594 H599 0.929 . S
C595 C594 1.457 . S
C595 C596 1.291 . S
C595 H608 0.931 . S
C596 C595 1.291 . S
C596 C597 1.373 . S
C596 H609 0.929 . S
C597 C596 1.373 . S
C597 C598 1.396 . S
C597 C604 1.403 . S
C598 C588 1.476 . S
C598 N593 1.318 . S
C598 C597 1.396 . S
H599 C594 0.929 . S
O600 Mn576 2.385 . S
O600 C578 1.234 . S
O601 Mn576 2.209 . S
O601 Mn577 2.215 . S
O601 C578 1.283 . S
O602 Mn576 2.094 . S
O602 C580 1.240 . S
O603 Mn577 2.117 . S
O603 C580 1.264 . S
C604 C597 1.403 . S
C604 C605 1.399 . S
C604 H610 0.929 . S
C605 C585 1.449 . S
C605 C604 1.399 . S
C605 H611 0.930 . S
H606 C586 0.931 . S
H607 C587 0.930 . S
H608 C595 0.931 . S
H609 C596 0.929 . S
H610 C604 0.929 . S
H611 C605 0.930 . S
Mn612 O617 2.095 . S
Mn612 O627 2.162 . S
Mn612 O628 2.297 . S
Mn612 O636 2.385 . S
Mn612 O637 2.209 . S
Mn612 O638 2.094 . S
Mn613 O618 2.121 . S
Mn613 N620 2.257 . S
Mn613 N629 2.282 . S
Mn613 O637 2.215 . S
Mn613 O639 2.117 . S
C614 O636 1.234 . S
C614 O637 1.283 . S
C615 O627 1.281 . S
C615 O628 1.236 . S
C616 O638 1.240 . S
C616 O639 1.264 . S
O617 Mn612 2.095 . S
O617 C626 1.250 . S
O618 Mn613 2.121 . S
O618 C626 1.258 . S
C619 N620 1.326 . S
C619 C623 1.460 . S
C619 H625 0.929 . S
N620 Mn613 2.257 . S
N620 C619 1.326 . S
N620 C624 1.362 . S
C621 C622 1.258 . S
C621 C624 1.431 . S
C621 C641 1.449 . S
C622 C621 1.258 . S
C622 C623 1.477 . S
C622 H642 0.931 . S
C623 C619 1.460 . S
C623 C622 1.477 . S
C623 H643 0.930 1_554 S
C624 N620 1.362 . S
C624 C621 1.431 . S
C624 C634 1.476 . S
H625 C619 0.929 . S
C626 O617 1.250 . S
C626 O618 1.258 . S
O627 Mn612 2.162 . S
O627 C615 1.281 . S
O628 Mn612 2.297 . S
O628 C615 1.236 . S
N629 Mn613 2.282 . S
N629 C630 1.328 . S
N629 C634 1.318 . S
C630 N629 1.328 . S
C630 C631 1.457 . S
C630 H635 0.929 . S
C631 C630 1.457 . S
C631 C632 1.291 . S
C631 H644 0.931 . S
C632 C631 1.291 . S
C632 C633 1.373 . S
C632 H645 0.929 . S
C633 C632 1.373 . S
C633 C634 1.396 . S
C633 C640 1.403 . S
C634 C624 1.476 . S
C634 N629 1.318 . S
C634 C633 1.396 . S
H635 C630 0.929 . S
O636 Mn612 2.385 . S
O636 C614 1.234 . S
O637 Mn612 2.209 . S
O637 Mn613 2.215 . S
O637 C614 1.283 . S
O638 Mn612 2.094 . S
O638 C616 1.240 . S
O639 Mn613 2.117 . S
O639 C616 1.264 . S
C640 C633 1.403 . S
C640 C641 1.399 . S
C640 H646 0.929 . S
C641 C621 1.449 . S
C641 C640 1.399 . S
C641 H647 0.930 . S
H642 C622 0.931 . S
H643 C623 0.930 1_556 S
H644 C631 0.931 . S
H645 C632 0.929 . S
H646 C640 0.929 . S
H647 C641 0.930 . S
Mn648 O653 2.095 . S
Mn648 O663 2.162 . S
Mn648 O664 2.297 . S
Mn648 O672 2.385 . S
Mn648 O673 2.209 . S
Mn648 O674 2.094 . S
Mn649 O654 2.121 . S
Mn649 N656 2.257 . S
Mn649 N665 2.282 . S
Mn649 O673 2.215 . S
Mn649 O675 2.117 . S
C650 O672 1.234 . S
C650 O673 1.283 . S
C651 O663 1.281 . S
C651 O664 1.236 . S
C652 O674 1.240 . S
C652 O675 1.264 . S
O653 Mn648 2.095 . S
O653 C662 1.250 . S
O654 Mn649 2.121 . S
O654 C662 1.258 . S
C655 N656 1.326 . S
C655 C659 1.460 . S
C655 H661 0.929 . S
N656 Mn649 2.257 . S
N656 C655 1.326 . S
N656 C660 1.362 . S
C657 C658 1.258 . S
C657 C660 1.431 . S
C657 C677 1.449 1_655 S
C658 C657 1.258 . S
C658 C659 1.477 . S
C658 H678 0.931 . S
C659 C655 1.460 . S
C659 C658 1.477 . S
C659 H679 0.930 . S
C660 N656 1.362 . S
C660 C657 1.431 . S
C660 C670 1.476 . S
H661 C655 0.929 . S
C662 O653 1.250 . S
C662 O654 1.258 . S
O663 Mn648 2.162 . S
O663 C651 1.281 . S
O664 Mn648 2.297 . S
O664 C651 1.236 . S
N665 Mn649 2.282 . S
N665 C666 1.328 . S
N665 C670 1.318 . S
C666 N665 1.328 . S
C666 C667 1.457 . S
C666 H671 0.929 . S
C667 C666 1.457 . S
C667 C668 1.291 . S
C667 H680 0.931 . S
C668 C667 1.291 . S
C668 C669 1.373 . S
C668 H681 0.929 1_655 S
C669 C668 1.373 . S
C669 C670 1.396 . S
C669 C676 1.403 1_655 S
C670 C660 1.476 . S
C670 N665 1.318 . S
C670 C669 1.396 . S
H671 C666 0.929 . S
O672 Mn648 2.385 . S
O672 C650 1.234 . S
O673 Mn648 2.209 . S
O673 Mn649 2.215 . S
O673 C650 1.283 . S
O674 Mn648 2.094 . S
O674 C652 1.240 . S
O675 Mn649 2.117 . S
O675 C652 1.264 . S
C676 C669 1.403 1_455 S
C676 C677 1.399 . S
C676 H682 0.929 . S
C677 C657 1.449 1_455 S
C677 C676 1.399 . S
C677 H683 0.930 . S
H678 C658 0.931 . S
H679 C659 0.930 . S
H680 C667 0.931 . S
H681 C668 0.929 1_455 S
H682 C676 0.929 . S
H683 C677 0.930 . S
Mn684 O689 2.095 . S
Mn684 O699 2.162 . S
Mn684 O700 2.297 . S
Mn684 O708 2.385 . S
Mn684 O709 2.209 . S
Mn684 O710 2.094 1_655 S
Mn685 O690 2.121 . S
Mn685 N692 2.257 . S
Mn685 N701 2.282 . S
Mn685 O709 2.215 . S
Mn685 O711 2.117 1_655 S
C686 O708 1.234 . S
C686 O709 1.283 . S
C687 O699 1.281 . S
C687 O700 1.236 . S
C688 O710 1.240 . S
C688 O711 1.264 . S
O689 Mn684 2.095 . S
O689 C698 1.250 . S
O690 Mn685 2.121 . S
O690 C698 1.258 . S
C691 N692 1.326 . S
C691 C695 1.460 . S
C691 H697 0.929 . S
N692 Mn685 2.257 . S
N692 C691 1.326 . S
N692 C696 1.362 . S
C693 C694 1.258 . S
C693 C696 1.431 . S
C693 C713 1.449 . S
C694 C693 1.258 . S
C694 C695 1.477 . S
C694 H714 0.931 . S
C695 C691 1.460 . S
C695 C694 1.477 . S
C695 H715 0.930 . S
C696 N692 1.362 . S
C696 C693 1.431 . S
C696 C706 1.476 . S
H697 C691 0.929 . S
C698 O689 1.250 . S
C698 O690 1.258 . S
O699 Mn684 2.162 . S
O699 C687 1.281 . S
O700 Mn684 2.297 . S
O700 C687 1.236 . S
N701 Mn685 2.282 . S
N701 C702 1.328 . S
N701 C706 1.318 . S
C702 N701 1.328 . S
C702 C703 1.457 . S
C702 H707 0.929 . S
C703 C702 1.457 . S
C703 C704 1.291 . S
C703 H716 0.931 . S
C704 C703 1.291 . S
C704 C705 1.373 . S
C704 H717 0.929 . S
C705 C704 1.373 . S
C705 C706 1.396 . S
C705 C712 1.403 . S
C706 C696 1.476 . S
C706 N701 1.318 . S
C706 C705 1.396 . S
H707 C702 0.929 . S
O708 Mn684 2.385 . S
O708 C686 1.234 . S
O709 Mn684 2.209 . S
O709 Mn685 2.215 . S
O709 C686 1.283 . S
O710 Mn684 2.094 1_455 S
O710 C688 1.240 . S
O711 Mn685 2.117 1_455 S
O711 C688 1.264 . S
C712 C705 1.403 . S
C712 C713 1.399 . S
C712 H718 0.929 . S
C713 C693 1.449 . S
C713 C712 1.399 . S
C713 H719 0.930 . S
H714 C694 0.931 . S
H715 C695 0.930 . S
H716 C703 0.931 . S
H717 C704 0.929 . S
H718 C712 0.929 . S
H719 C713 0.930 . S
Mn720 O725 2.095 . S
Mn720 O735 2.162 . S
Mn720 O736 2.297 . S
Mn720 O744 2.385 . S
Mn720 O745 2.209 . S
Mn720 O746 2.094 . S
Mn721 O726 2.121 . S
Mn721 N728 2.257 . S
Mn721 N737 2.282 . S
Mn721 O745 2.215 . S
Mn721 O747 2.117 . S
C722 O744 1.234 . S
C722 O745 1.283 . S
C723 O735 1.281 . S
C723 O736 1.236 . S
C724 O746 1.240 . S
C724 O747 1.264 . S
O725 Mn720 2.095 . S
O725 C734 1.250 . S
O726 Mn721 2.121 . S
O726 C734 1.258 . S
C727 N728 1.326 . S
C727 C731 1.460 . S
C727 H733 0.929 . S
N728 Mn721 2.257 . S
N728 C727 1.326 . S
N728 C732 1.362 . S
C729 C730 1.258 . S
C729 C732 1.431 . S
C729 C749 1.449 . S
C730 C729 1.258 . S
C730 C731 1.477 . S
C730 H750 0.931 . S
C731 C727 1.460 . S
C731 C730 1.477 . S
C731 H751 0.930 . S
C732 N728 1.362 . S
C732 C729 1.431 . S
C732 C742 1.476 . S
H733 C727 0.929 . S
C734 O725 1.250 . S
C734 O726 1.258 . S
O735 Mn720 2.162 . S
O735 C723 1.281 . S
O736 Mn720 2.297 . S
O736 C723 1.236 . S
N737 Mn721 2.282 . S
N737 C738 1.328 . S
N737 C742 1.318 . S
C738 N737 1.328 . S
C738 C739 1.457 . S
C738 H743 0.929 . S
C739 C738 1.457 . S
C739 C740 1.291 . S
C739 H752 0.931 . S
C740 C739 1.291 . S
C740 C741 1.373 . S
C740 H753 0.929 . S
C741 C740 1.373 . S
C741 C742 1.396 . S
C741 C748 1.403 . S
C742 C732 1.476 . S
C742 N737 1.318 . S
C742 C741 1.396 . S
H743 C738 0.929 . S
O744 Mn720 2.385 . S
O744 C722 1.234 . S
O745 Mn720 2.209 . S
O745 Mn721 2.215 . S
O745 C722 1.283 . S
O746 Mn720 2.094 . S
O746 C724 1.240 . S
O747 Mn721 2.117 . S
O747 C724 1.264 . S
C748 C741 1.403 . S
C748 C749 1.399 . S
C748 H754 0.929 . S
C749 C729 1.449 . S
C749 C748 1.399 . S
C749 H755 0.930 . S
H750 C730 0.931 . S
H751 C731 0.930 . S
H752 C739 0.931 . S
H753 C740 0.929 . S
H754 C748 0.929 . S
H755 C749 0.930 . S
Mn756 O761 2.095 . S
Mn756 O771 2.162 . S
Mn756 O772 2.297 . S
Mn756 O780 2.385 . S
Mn756 O781 2.209 . S
Mn756 O782 2.094 1_655 S
Mn757 O762 2.121 . S
Mn757 N764 2.257 . S
Mn757 N773 2.282 . S
Mn757 O781 2.215 . S
Mn757 O783 2.117 1_655 S
C758 O780 1.234 . S
C758 O781 1.283 . S
C759 O771 1.281 . S
C759 O772 1.236 . S
C760 O782 1.240 . S
C760 O783 1.264 . S
O761 Mn756 2.095 . S
O761 C770 1.250 . S
O762 Mn757 2.121 . S
O762 C770 1.258 . S
C763 N764 1.326 . S
C763 C767 1.460 . S
C763 H769 0.929 . S
N764 Mn757 2.257 . S
N764 C763 1.326 . S
N764 C768 1.362 . S
C765 C766 1.258 . S
C765 C768 1.431 . S
C765 C785 1.449 . S
C766 C765 1.258 . S
C766 C767 1.477 . S
C766 H786 0.931 . S
C767 C763 1.460 . S
C767 C766 1.477 . S
C767 H787 0.930 1_556 S
C768 N764 1.362 . S
C768 C765 1.431 . S
C768 C778 1.476 . S
H769 C763 0.929 . S
C770 O761 1.250 . S
C770 O762 1.258 . S
O771 Mn756 2.162 . S
O771 C759 1.281 . S
O772 Mn756 2.297 . S
O772 C759 1.236 . S
N773 Mn757 2.282 . S
N773 C774 1.328 . S
N773 C778 1.318 . S
C774 N773 1.328 . S
C774 C775 1.457 . S
C774 H779 0.929 . S
C775 C774 1.457 . S
C775 C776 1.291 . S
C775 H788 0.931 . S
C776 C775 1.291 . S
C776 C777 1.373 . S
C776 H789 0.929 . S
C777 C776 1.373 . S
C777 C778 1.396 . S
C777 C784 1.403 . S
C778 C768 1.476 . S
C778 N773 1.318 . S
C778 C777 1.396 . S
H779 C774 0.929 . S
O780 Mn756 2.385 . S
O780 C758 1.234 . S
O781 Mn756 2.209 . S
O781 Mn757 2.215 . S
O781 C758 1.283 . S
O782 Mn756 2.094 1_455 S
O782 C760 1.240 . S
O783 Mn757 2.117 1_455 S
O783 C760 1.264 . S
C784 C777 1.403 . S
C784 C785 1.399 . S
C784 H790 0.929 . S
C785 C765 1.449 . S
C785 C784 1.399 . S
C785 H791 0.930 . S
H786 C766 0.931 . S
H787 C767 0.930 1_554 S
H788 C775 0.931 . S
H789 C776 0.929 . S
H790 C784 0.929 . S
H791 C785 0.930 . S
Mn792 O797 2.095 . S
Mn792 O807 2.162 . S
Mn792 O808 2.297 . S
Mn792 O816 2.385 . S
Mn792 O817 2.209 . S
Mn792 O818 2.094 . S
Mn793 O798 2.121 . S
Mn793 N800 2.257 . S
Mn793 N809 2.282 . S
Mn793 O817 2.215 . S
Mn793 O819 2.117 . S
C794 O816 1.234 . S
C794 O817 1.283 . S
C795 O807 1.281 . S
C795 O808 1.236 . S
C796 O818 1.240 . S
C796 O819 1.264 . S
O797 Mn792 2.095 . S
O797 C806 1.250 . S
O798 Mn793 2.121 . S
O798 C806 1.258 . S
C799 N800 1.326 . S
C799 C803 1.460 . S
C799 H805 0.929 . S
N800 Mn793 2.257 . S
N800 C799 1.326 . S
N800 C804 1.362 . S
C801 C802 1.258 . S
C801 C804 1.431 . S
C801 C821 1.449 1_655 S
C802 C801 1.258 . S
C802 C803 1.477 . S
C802 H822 0.931 . S
C803 C799 1.460 . S
C803 C802 1.477 . S
C803 H823 0.930 . S
C804 N800 1.362 . S
C804 C801 1.431 . S
C804 C814 1.476 . S
H805 C799 0.929 . S
C806 O797 1.250 . S
C806 O798 1.258 . S
O807 Mn792 2.162 . S
O807 C795 1.281 . S
O808 Mn792 2.297 . S
O808 C795 1.236 . S
N809 Mn793 2.282 . S
N809 C810 1.328 . S
N809 C814 1.318 . S
C810 N809 1.328 . S
C810 C811 1.457 . S
C810 H815 0.929 . S
C811 C810 1.457 . S
C811 C812 1.291 . S
C811 H824 0.931 . S
C812 C811 1.291 . S
C812 C813 1.373 . S
C812 H825 0.929 1_655 S
C813 C812 1.373 . S
C813 C814 1.396 . S
C813 C820 1.403 1_655 S
C814 C804 1.476 . S
C814 N809 1.318 . S
C814 C813 1.396 . S
H815 C810 0.929 . S
O816 Mn792 2.385 . S
O816 C794 1.234 . S
O817 Mn792 2.209 . S
O817 Mn793 2.215 . S
O817 C794 1.283 . S
O818 Mn792 2.094 . S
O818 C796 1.240 . S
O819 Mn793 2.117 . S
O819 C796 1.264 . S
C820 C813 1.403 1_455 S
C820 C821 1.399 . S
C820 H826 0.929 . S
C821 C801 1.449 1_455 S
C821 C820 1.399 . S
C821 H827 0.930 . S
H822 C802 0.931 . S
H823 C803 0.930 . S
H824 C811 0.931 . S
H825 C812 0.929 1_455 S
H826 C820 0.929 . S
H827 C821 0.930 . S
Mn828 O833 2.095 . S
Mn828 O843 2.162 . S
Mn828 O844 2.297 . S
Mn828 O852 2.385 . S
Mn828 O853 2.209 . S
Mn828 O854 2.094 . S
Mn829 O834 2.121 . S
Mn829 N836 2.257 . S
Mn829 N845 2.282 . S
Mn829 O853 2.215 . S
Mn829 O855 2.117 . S
C830 O852 1.234 . S
C830 O853 1.283 . S
C831 O843 1.281 . S
C831 O844 1.236 . S
C832 O854 1.240 . S
C832 O855 1.264 . S
O833 Mn828 2.095 . S
O833 C842 1.250 . S
O834 Mn829 2.121 . S
O834 C842 1.258 . S
C835 N836 1.326 . S
C835 C839 1.460 . S
C835 H841 0.929 . S
N836 Mn829 2.257 . S
N836 C835 1.326 . S
N836 C840 1.362 . S
C837 C838 1.258 . S
C837 C840 1.431 . S
C837 C857 1.449 . S
C838 C837 1.258 . S
C838 C839 1.477 . S
C838 H858 0.931 . S
C839 C835 1.460 . S
C839 C838 1.477 . S
C839 H859 0.930 . S
C840 N836 1.362 . S
C840 C837 1.431 . S
C840 C850 1.476 . S
H841 C835 0.929 . S
C842 O833 1.250 . S
C842 O834 1.258 . S
O843 Mn828 2.162 . S
O843 C831 1.281 . S
O844 Mn828 2.297 . S
O844 C831 1.236 . S
N845 Mn829 2.282 . S
N845 C846 1.328 . S
N845 C850 1.318 . S
C846 N845 1.328 . S
C846 C847 1.457 . S
C846 H851 0.929 . S
C847 C846 1.457 . S
C847 C848 1.291 . S
C847 H860 0.931 . S
C848 C847 1.291 . S
C848 C849 1.373 . S
C848 H861 0.929 . S
C849 C848 1.373 . S
C849 C850 1.396 . S
C849 C856 1.403 . S
C850 C840 1.476 . S
C850 N845 1.318 . S
C850 C849 1.396 . S
H851 C846 0.929 . S
O852 Mn828 2.385 . S
O852 C830 1.234 . S
O853 Mn828 2.209 . S
O853 Mn829 2.215 . S
O853 C830 1.283 . S
O854 Mn828 2.094 . S
O854 C832 1.240 . S
O855 Mn829 2.117 . S
O855 C832 1.264 . S
C856 C849 1.403 . S
C856 C857 1.399 . S
C856 H862 0.929 . S
C857 C837 1.449 . S
C857 C856 1.399 . S
C857 H863 0.930 . S
H858 C838 0.931 . S
H859 C839 0.930 . S
H860 C847 0.931 . S
H861 C848 0.929 . S
H862 C856 0.929 . S
H863 C857 0.930 . S
Mn864 O869 2.095 . S
Mn864 O879 2.162 . S
Mn864 O880 2.297 . S
Mn864 O888 2.385 . S
Mn864 O889 2.209 . S
Mn864 O890 2.094 . S
Mn865 O870 2.121 . S
Mn865 N872 2.257 . S
Mn865 N881 2.282 . S
Mn865 O889 2.215 . S
Mn865 O891 2.117 . S
C866 O888 1.234 . S
C866 O889 1.283 . S
C867 O879 1.281 . S
C867 O880 1.236 . S
C868 O890 1.240 . S
C868 O891 1.264 . S
O869 Mn864 2.095 . S
O869 C878 1.250 . S
O870 Mn865 2.121 . S
O870 C878 1.258 . S
C871 N872 1.326 . S
C871 C875 1.460 . S
C871 H877 0.929 . S
N872 Mn865 2.257 . S
N872 C871 1.326 . S
N872 C876 1.362 . S
C873 C874 1.258 . S
C873 C876 1.431 . S
C873 C893 1.449 . S
C874 C873 1.258 . S
C874 C875 1.477 . S
C874 H894 0.931 . S
C875 C871 1.460 . S
C875 C874 1.477 . S
C875 H895 0.930 . S
C876 N872 1.362 . S
C876 C873 1.431 . S
C876 C886 1.476 . S
H877 C871 0.929 . S
C878 O869 1.250 . S
C878 O870 1.258 . S
O879 Mn864 2.162 . S
O879 C867 1.281 . S
O880 Mn864 2.297 . S
O880 C867 1.236 . S
N881 Mn865 2.282 . S
N881 C882 1.328 . S
N881 C886 1.318 . S
C882 N881 1.328 . S
C882 C883 1.457 . S
C882 H887 0.929 . S
C883 C882 1.457 . S
C883 C884 1.291 . S
C883 H896 0.931 . S
C884 C883 1.291 . S
C884 C885 1.373 . S
C884 H897 0.929 . S
C885 C884 1.373 . S
C885 C886 1.396 . S
C885 C892 1.403 . S
C886 C876 1.476 . S
C886 N881 1.318 . S
C886 C885 1.396 . S
H887 C882 0.929 . S
O888 Mn864 2.385 . S
O888 C866 1.234 . S
O889 Mn864 2.209 . S
O889 Mn865 2.215 . S
O889 C866 1.283 . S
O890 Mn864 2.094 . S
O890 C868 1.240 . S
O891 Mn865 2.117 . S
O891 C868 1.264 . S
C892 C885 1.403 . S
C892 C893 1.399 . S
C892 H898 0.929 . S
C893 C873 1.449 . S
C893 C892 1.399 . S
C893 H899 0.930 . S
H894 C874 0.931 . S
H895 C875 0.930 . S
H896 C883 0.931 . S
H897 C884 0.929 . S
H898 C892 0.929 . S
H899 C893 0.930 . S
Mn900 O905 2.095 . S
Mn900 O915 2.162 . S
Mn900 O916 2.297 . S
Mn900 O924 2.385 . S
Mn900 O925 2.209 . S
Mn900 O926 2.094 . S
Mn901 O906 2.121 . S
Mn901 N908 2.257 . S
Mn901 N917 2.282 . S
Mn901 O925 2.215 . S
Mn901 O927 2.117 . S
C902 O924 1.234 . S
C902 O925 1.283 . S
C903 O915 1.281 . S
C903 O916 1.236 . S
C904 O926 1.240 . S
C904 O927 1.264 . S
O905 Mn900 2.095 . S
O905 C914 1.250 . S
O906 Mn901 2.121 . S
O906 C914 1.258 . S
C907 N908 1.326 . S
C907 C911 1.460 . S
C907 H913 0.929 . S
N908 Mn901 2.257 . S
N908 C907 1.326 . S
N908 C912 1.362 . S
C909 C910 1.258 . S
C909 C912 1.431 . S
C909 C929 1.449 . S
C910 C909 1.258 . S
C910 C911 1.477 . S
C910 H930 0.931 . S
C911 C907 1.460 . S
C911 C910 1.477 . S
C911 H931 0.930 1_556 S
C912 N908 1.362 . S
C912 C909 1.431 . S
C912 C922 1.476 . S
H913 C907 0.929 . S
C914 O905 1.250 . S
C914 O906 1.258 . S
O915 Mn900 2.162 . S
O915 C903 1.281 . S
O916 Mn900 2.297 . S
O916 C903 1.236 . S
N917 Mn901 2.282 . S
N917 C918 1.328 . S
N917 C922 1.318 . S
C918 N917 1.328 . S
C918 C919 1.457 . S
C918 H923 0.929 . S
C919 C918 1.457 . S
C919 C920 1.291 . S
C919 H932 0.931 . S
C920 C919 1.291 . S
C920 C921 1.373 . S
C920 H933 0.929 . S
C921 C920 1.373 . S
C921 C922 1.396 . S
C921 C928 1.403 . S
C922 C912 1.476 . S
C922 N917 1.318 . S
C922 C921 1.396 . S
H923 C918 0.929 . S
O924 Mn900 2.385 . S
O924 C902 1.234 . S
O925 Mn900 2.209 . S
O925 Mn901 2.215 . S
O925 C902 1.283 . S
O926 Mn900 2.094 . S
O926 C904 1.240 . S
O927 Mn901 2.117 . S
O927 C904 1.264 . S
C928 C921 1.403 . S
C928 C929 1.399 . S
C928 H934 0.929 . S
C929 C909 1.449 . S
C929 C928 1.399 . S
C929 H935 0.930 . S
H930 C910 0.931 . S
H931 C911 0.930 1_554 S
H932 C919 0.931 . S
H933 C920 0.929 . S
H934 C928 0.929 . S
H935 C929 0.930 . S
Mn936 O941 2.095 . S
Mn936 O951 2.162 . S
Mn936 O952 2.297 . S
Mn936 O960 2.385 . S
Mn936 O961 2.209 . S
Mn936 O962 2.094 . S
Mn937 O942 2.121 . S
Mn937 N944 2.257 . S
Mn937 N953 2.282 . S
Mn937 O961 2.215 . S
Mn937 O963 2.117 . S
C938 O960 1.234 . S
C938 O961 1.283 . S
C939 O951 1.281 . S
C939 O952 1.236 . S
C940 O962 1.240 . S
C940 O963 1.264 . S
O941 Mn936 2.095 . S
O941 C950 1.250 . S
O942 Mn937 2.121 . S
O942 C950 1.258 . S
C943 N944 1.326 . S
C943 C947 1.460 . S
C943 H949 0.929 . S
N944 Mn937 2.257 . S
N944 C943 1.326 . S
N944 C948 1.362 . S
C945 C946 1.258 . S
C945 C948 1.431 . S
C945 C965 1.449 . S
C946 C945 1.258 . S
C946 C947 1.477 . S
C946 H966 0.931 . S
C947 C943 1.460 . S
C947 C946 1.477 . S
C947 H967 0.930 . S
C948 N944 1.362 . S
C948 C945 1.431 . S
C948 C958 1.476 . S
H949 C943 0.929 . S
C950 O941 1.250 . S
C950 O942 1.258 . S
O951 Mn936 2.162 . S
O951 C939 1.281 . S
O952 Mn936 2.297 . S
O952 C939 1.236 . S
N953 Mn937 2.282 . S
N953 C954 1.328 . S
N953 C958 1.318 . S
C954 N953 1.328 . S
C954 C955 1.457 . S
C954 H959 0.929 . S
C955 C954 1.457 . S
C955 C956 1.291 . S
C955 H968 0.931 . S
C956 C955 1.291 . S
C956 C957 1.373 . S
C956 H969 0.929 . S
C957 C956 1.373 . S
C957 C958 1.396 . S
C957 C964 1.403 . S
C958 C948 1.476 . S
C958 N953 1.318 . S
C958 C957 1.396 . S
H959 C954 0.929 . S
O960 Mn936 2.385 . S
O960 C938 1.234 . S
O961 Mn936 2.209 . S
O961 Mn937 2.215 . S
O961 C938 1.283 . S
O962 Mn936 2.094 . S
O962 C940 1.240 . S
O963 Mn937 2.117 . S
O963 C940 1.264 . S
C964 C957 1.403 . S
C964 C965 1.399 . S
C964 H970 0.929 . S
C965 C945 1.449 . S
C965 C964 1.399 . S
C965 H971 0.930 . S
H966 C946 0.931 . S
H967 C947 0.930 . S
H968 C955 0.931 . S
H969 C956 0.929 . S
H970 C964 0.929 . S
H971 C965 0.930 . S
Mn972 O977 2.095 . S
Mn972 O987 2.162 1_455 S
Mn972 O988 2.297 1_455 S
Mn972 O996 2.385 . S
Mn972 O997 2.209 . S
Mn972 O998 2.094 . S
Mn973 O978 2.121 . S
Mn973 N980 2.257 . S
Mn973 N989 2.282 . S
Mn973 O997 2.215 . S
Mn973 O999 2.117 . S
C974 O996 1.234 . S
C974 O997 1.283 . S
C975 O987 1.281 . S
C975 O988 1.236 . S
C976 O998 1.240 . S
C976 O999 1.264 . S
O977 Mn972 2.095 . S
O977 C986 1.250 . S
O978 Mn973 2.121 . S
O978 C986 1.258 . S
C979 N980 1.326 . S
C979 C983 1.460 . S
C979 H985 0.929 . S
N980 Mn973 2.257 . S
N980 C979 1.326 . S
N980 C984 1.362 . S
C981 C982 1.258 . S
C981 C984 1.431 . S
C981 C1001 1.449 . S
C982 C981 1.258 . S
C982 C983 1.477 . S
C982 H1002 0.931 . S
C983 C979 1.460 . S
C983 C982 1.477 . S
C983 H1003 0.930 . S
C984 N980 1.362 . S
C984 C981 1.431 . S
C984 C994 1.476 . S
H985 C979 0.929 . S
C986 O977 1.250 . S
C986 O978 1.258 . S
O987 Mn972 2.162 1_655 S
O987 C975 1.281 . S
O988 Mn972 2.297 1_655 S
O988 C975 1.236 . S
N989 Mn973 2.282 . S
N989 C990 1.328 . S
N989 C994 1.318 . S
C990 N989 1.328 . S
C990 C991 1.457 . S
C990 H995 0.929 . S
C991 C990 1.457 . S
C991 C992 1.291 . S
C991 H1004 0.931 . S
C992 C991 1.291 . S
C992 C993 1.373 . S
C992 H1005 0.929 . S
C993 C992 1.373 . S
C993 C994 1.396 . S
C993 C1000 1.403 . S
C994 C984 1.476 . S
C994 N989 1.318 . S
C994 C993 1.396 . S
H995 C990 0.929 . S
O996 Mn972 2.385 . S
O996 C974 1.234 . S
O997 Mn972 2.209 . S
O997 Mn973 2.215 . S
O997 C974 1.283 . S
O998 Mn972 2.094 . S
O998 C976 1.240 . S
O999 Mn973 2.117 . S
O999 C976 1.264 . S
C1000 C993 1.403 . S
C1000 C1001 1.399 . S
C1000 H1006 0.929 . S
C1001 C981 1.449 . S
C1001 C1000 1.399 . S
C1001 H1007 0.930 . S
H1002 C982 0.931 . S
H1003 C983 0.930 . S
H1004 C991 0.931 . S
H1005 C992 0.929 . S
H1006 C1000 0.929 . S
H1007 C1001 0.930 . S
Mn1008 O1013 2.095 . S
Mn1008 O1023 2.162 . S
Mn1008 O1024 2.297 . S
Mn1008 O1032 2.385 . S
Mn1008 O1033 2.209 . S
Mn1008 O1034 2.094 . S
Mn1009 O1014 2.121 . S
Mn1009 N1016 2.257 . S
Mn1009 N1025 2.282 . S
Mn1009 O1033 2.215 . S
Mn1009 O1035 2.117 . S
C1010 O1032 1.234 . S
C1010 O1033 1.283 . S
C1011 O1023 1.281 . S
C1011 O1024 1.236 . S
C1012 O1034 1.240 . S
C1012 O1035 1.264 . S
O1013 Mn1008 2.095 . S
O1013 C1022 1.250 . S
O1014 Mn1009 2.121 . S
O1014 C1022 1.258 . S
C1015 N1016 1.326 . S
C1015 C1019 1.460 . S
C1015 H1021 0.929 . S
N1016 Mn1009 2.257 . S
N1016 C1015 1.326 . S
N1016 C1020 1.362 . S
C1017 C1018 1.258 . S
C1017 C1020 1.431 . S
C1017 C1037 1.449 . S
C1018 C1017 1.258 . S
C1018 C1019 1.477 . S
C1018 H1038 0.931 . S
C1019 C1015 1.460 . S
C1019 C1018 1.477 . S
C1019 H1039 0.930 . S
C1020 N1016 1.362 . S
C1020 C1017 1.431 . S
C1020 C1030 1.476 . S
H1021 C1015 0.929 . S
C1022 O1013 1.250 . S
C1022 O1014 1.258 . S
O1023 Mn1008 2.162 . S
O1023 C1011 1.281 . S
O1024 Mn1008 2.297 . S
O1024 C1011 1.236 . S
N1025 Mn1009 2.282 . S
N1025 C1026 1.328 . S
N1025 C1030 1.318 . S
C1026 N1025 1.328 . S
C1026 C1027 1.457 . S
C1026 H1031 0.929 . S
C1027 C1026 1.457 . S
C1027 C1028 1.291 . S
C1027 H1040 0.931 . S
C1028 C1027 1.291 . S
C1028 C1029 1.373 . S
C1028 H1041 0.929 . S
C1029 C1028 1.373 . S
C1029 C1030 1.396 . S
C1029 C1036 1.403 . S
C1030 C1020 1.476 . S
C1030 N1025 1.318 . S
C1030 C1029 1.396 . S
H1031 C1026 0.929 . S
O1032 Mn1008 2.385 . S
O1032 C1010 1.234 . S
O1033 Mn1008 2.209 . S
O1033 Mn1009 2.215 . S
O1033 C1010 1.283 . S
O1034 Mn1008 2.094 . S
O1034 C1012 1.240 . S
O1035 Mn1009 2.117 . S
O1035 C1012 1.264 . S
C1036 C1029 1.403 . S
C1036 C1037 1.399 . S
C1036 H1042 0.929 . S
C1037 C1017 1.449 . S
C1037 C1036 1.399 . S
C1037 H1043 0.930 . S
H1038 C1018 0.931 . S
H1039 C1019 0.930 . S
H1040 C1027 0.931 . S
H1041 C1028 0.929 . S
H1042 C1036 0.929 . S
H1043 C1037 0.930 . S
Mn1044 O1049 2.095 . S
Mn1044 O1059 2.162 1_455 S
Mn1044 O1060 2.297 1_455 S
Mn1044 O1068 2.385 . S
Mn1044 O1069 2.209 . S
Mn1044 O1070 2.094 . S
Mn1045 O1050 2.121 . S
Mn1045 N1052 2.257 . S
Mn1045 N1061 2.282 . S
Mn1045 O1069 2.215 . S
Mn1045 O1071 2.117 . S
C1046 O1068 1.234 . S
C1046 O1069 1.283 . S
C1047 O1059 1.281 . S
C1047 O1060 1.236 . S
C1048 O1070 1.240 . S
C1048 O1071 1.264 . S
O1049 Mn1044 2.095 . S
O1049 C1058 1.250 . S
O1050 Mn1045 2.121 . S
O1050 C1058 1.258 . S
C1051 N1052 1.326 . S
C1051 C1055 1.460 . S
C1051 H1057 0.929 . S
N1052 Mn1045 2.257 . S
N1052 C1051 1.326 . S
N1052 C1056 1.362 . S
C1053 C1054 1.258 . S
C1053 C1056 1.431 . S
C1053 C1073 1.449 . S
C1054 C1053 1.258 . S
C1054 C1055 1.477 . S
C1054 H1074 0.931 . S
C1055 C1051 1.460 . S
C1055 C1054 1.477 . S
C1055 H1075 0.930 1_554 S
C1056 N1052 1.362 . S
C1056 C1053 1.431 . S
C1056 C1066 1.476 . S
H1057 C1051 0.929 . S
C1058 O1049 1.250 . S
C1058 O1050 1.258 . S
O1059 Mn1044 2.162 1_655 S
O1059 C1047 1.281 . S
O1060 Mn1044 2.297 1_655 S
O1060 C1047 1.236 . S
N1061 Mn1045 2.282 . S
N1061 C1062 1.328 . S
N1061 C1066 1.318 . S
C1062 N1061 1.328 . S
C1062 C1063 1.457 . S
C1062 H1067 0.929 . S
C1063 C1062 1.457 . S
C1063 C1064 1.291 . S
C1063 H1076 0.931 . S
C1064 C1063 1.291 . S
C1064 C1065 1.373 . S
C1064 H1077 0.929 . S
C1065 C1064 1.373 . S
C1065 C1066 1.396 . S
C1065 C1072 1.403 . S
C1066 C1056 1.476 . S
C1066 N1061 1.318 . S
C1066 C1065 1.396 . S
H1067 C1062 0.929 . S
O1068 Mn1044 2.385 . S
O1068 C1046 1.234 . S
O1069 Mn1044 2.209 . S
O1069 Mn1045 2.215 . S
O1069 C1046 1.283 . S
O1070 Mn1044 2.094 . S
O1070 C1048 1.240 . S
O1071 Mn1045 2.117 . S
O1071 C1048 1.264 . S
C1072 C1065 1.403 . S
C1072 C1073 1.399 . S
C1072 H1078 0.929 . S
C1073 C1053 1.449 . S
C1073 C1072 1.399 . S
C1073 H1079 0.930 . S
H1074 C1054 0.931 . S
H1075 C1055 0.930 1_556 S
H1076 C1063 0.931 . S
H1077 C1064 0.929 . S
H1078 C1072 0.929 . S
H1079 C1073 0.930 . S
Mn1080 O1085 2.095 . S
Mn1080 O1095 2.162 . S
Mn1080 O1096 2.297 . S
Mn1080 O1104 2.385 . S
Mn1080 O1105 2.209 . S
Mn1080 O1106 2.094 . S
Mn1081 O1086 2.121 . S
Mn1081 N1088 2.257 . S
Mn1081 N1097 2.282 . S
Mn1081 O1105 2.215 . S
Mn1081 O1107 2.117 . S
C1082 O1104 1.234 . S
C1082 O1105 1.283 . S
C1083 O1095 1.281 . S
C1083 O1096 1.236 . S
C1084 O1106 1.240 . S
C1084 O1107 1.264 . S
O1085 Mn1080 2.095 . S
O1085 C1094 1.250 . S
O1086 Mn1081 2.121 . S
O1086 C1094 1.258 . S
C1087 N1088 1.326 . S
C1087 C1091 1.460 . S
C1087 H1093 0.929 . S
N1088 Mn1081 2.257 . S
N1088 C1087 1.326 . S
N1088 C1092 1.362 . S
C1089 C1090 1.258 . S
C1089 C1092 1.431 . S
C1089 C1109 1.449 . S
C1090 C1089 1.258 . S
C1090 C1091 1.477 . S
C1090 H1110 0.931 . S
C1091 C1087 1.460 . S
C1091 C1090 1.477 . S
C1091 H1111 0.930 . S
C1092 N1088 1.362 . S
C1092 C1089 1.431 . S
C1092 C1102 1.476 . S
H1093 C1087 0.929 . S
C1094 O1085 1.250 . S
C1094 O1086 1.258 . S
O1095 Mn1080 2.162 . S
O1095 C1083 1.281 . S
O1096 Mn1080 2.297 . S
O1096 C1083 1.236 . S
N1097 Mn1081 2.282 . S
N1097 C1098 1.328 . S
N1097 C1102 1.318 . S
C1098 N1097 1.328 . S
C1098 C1099 1.457 . S
C1098 H1103 0.929 . S
C1099 C1098 1.457 . S
C1099 C1100 1.291 . S
C1099 H1112 0.931 . S
C1100 C1099 1.291 . S
C1100 C1101 1.373 . S
C1100 H1113 0.929 . S
C1101 C1100 1.373 . S
C1101 C1102 1.396 . S
C1101 C1108 1.403 . S
C1102 C1092 1.476 . S
C1102 N1097 1.318 . S
C1102 C1101 1.396 . S
H1103 C1098 0.929 . S
O1104 Mn1080 2.385 . S
O1104 C1082 1.234 . S
O1105 Mn1080 2.209 . S
O1105 Mn1081 2.215 . S
O1105 C1082 1.283 . S
O1106 Mn1080 2.094 . S
O1106 C1084 1.240 . S
O1107 Mn1081 2.117 . S
O1107 C1084 1.264 . S
C1108 C1101 1.403 . S
C1108 C1109 1.399 . S
C1108 H1114 0.929 . S
C1109 C1089 1.449 . S
C1109 C1108 1.399 . S
C1109 H1115 0.930 . S
H1110 C1090 0.931 . S
H1111 C1091 0.930 . S
H1112 C1099 0.931 . S
H1113 C1100 0.929 . S
H1114 C1108 0.929 . S
H1115 C1109 0.930 . S
Mn1116 O1121 2.095 . S
Mn1116 O1131 2.162 . S
Mn1116 O1132 2.297 . S
Mn1116 O1140 2.385 . S
Mn1116 O1141 2.209 . S
Mn1116 O1142 2.094 . S
Mn1117 O1122 2.121 . S
Mn1117 N1124 2.257 . S
Mn1117 N1133 2.282 . S
Mn1117 O1141 2.215 . S
Mn1117 O1143 2.117 . S
C1118 O1140 1.234 . S
C1118 O1141 1.283 . S
C1119 O1131 1.281 . S
C1119 O1132 1.236 . S
C1120 O1142 1.240 . S
C1120 O1143 1.264 . S
O1121 Mn1116 2.095 . S
O1121 C1130 1.250 . S
O1122 Mn1117 2.121 . S
O1122 C1130 1.258 . S
C1123 N1124 1.326 . S
C1123 C1127 1.460 . S
C1123 H1129 0.929 . S
N1124 Mn1117 2.257 . S
N1124 C1123 1.326 . S
N1124 C1128 1.362 . S
C1125 C1126 1.258 . S
C1125 C1128 1.431 . S
C1125 C1145 1.449 . S
C1126 C1125 1.258 . S
C1126 C1127 1.477 . S
C1126 H1146 0.931 . S
C1127 C1123 1.460 . S
C1127 C1126 1.477 . S
C1127 H1147 0.930 . S
C1128 N1124 1.362 . S
C1128 C1125 1.431 . S
C1128 C1138 1.476 . S
H1129 C1123 0.929 . S
C1130 O1121 1.250 . S
C1130 O1122 1.258 . S
O1131 Mn1116 2.162 . S
O1131 C1119 1.281 . S
O1132 Mn1116 2.297 . S
O1132 C1119 1.236 . S
N1133 Mn1117 2.282 . S
N1133 C1134 1.328 . S
N1133 C1138 1.318 . S
C1134 N1133 1.328 . S
C1134 C1135 1.457 . S
C1134 H1139 0.929 . S
C1135 C1134 1.457 . S
C1135 C1136 1.291 . S
C1135 H1148 0.931 . S
C1136 C1135 1.291 . S
C1136 C1137 1.373 . S
C1136 H1149 0.929 . S
C1137 C1136 1.373 . S
C1137 C1138 1.396 . S
C1137 C1144 1.403 . S
C1138 C1128 1.476 . S
C1138 N1133 1.318 . S
C1138 C1137 1.396 . S
H1139 C1134 0.929 . S
O1140 Mn1116 2.385 . S
O1140 C1118 1.234 . S
O1141 Mn1116 2.209 . S
O1141 Mn1117 2.215 . S
O1141 C1118 1.283 . S
O1142 Mn1116 2.094 . S
O1142 C1120 1.240 . S
O1143 Mn1117 2.117 . S
O1143 C1120 1.264 . S
C1144 C1137 1.403 . S
C1144 C1145 1.399 . S
C1144 H1150 0.929 . S
C1145 C1125 1.449 . S
C1145 C1144 1.399 . S
C1145 H1151 0.930 . S
H1146 C1126 0.931 . S
H1147 C1127 0.930 . S
H1148 C1135 0.931 . S
H1149 C1136 0.929 . S
H1150 C1144 0.929 . S
H1151 C1145 0.930 . S
C1152 C1153 1.363 . S
C1152 C1158 1.379 . S
C1152 N1160 1.356 . S
C1153 C1152 1.363 . S
C1153 C1159 1.363 . S
C1154 C1155 1.363 . S
C1154 C1159 1.379 . S
C1154 N1161 1.356 . S
C1155 C1154 1.363 . S
C1155 C1158 1.363 . S
N1156 C1158 1.356 . S
N1156 H1168 0.984 . S
N1156 H1169 0.985 . S
N1157 C1159 1.356 . S
N1157 H1162 0.984 . S
N1157 H1163 0.985 . S
C1158 C1152 1.379 . S
C1158 C1155 1.363 . S
C1158 N1156 1.356 . S
C1159 C1153 1.363 . S
C1159 C1154 1.379 . S
C1159 N1157 1.356 . S
N1160 C1152 1.356 . S
N1160 H1166 0.984 . S
N1160 H1167 0.984 . S
N1161 C1154 1.356 . S
N1161 H1164 0.984 . S
N1161 H1165 0.985 . S
H1162 N1157 0.984 . S
H1163 N1157 0.985 . S
H1164 N1161 0.984 . S
H1165 N1161 0.985 . S
H1166 N1160 0.984 . S
H1167 N1160 0.984 . S
H1168 N1156 0.984 . S
H1169 N1156 0.985 . S
C1170 C1171 1.363 . S
C1170 C1176 1.379 . S
C1170 N1178 1.356 . S
C1171 C1170 1.363 . S
C1171 C1177 1.363 . S
C1172 C1173 1.363 . S
C1172 C1177 1.379 . S
C1172 N1179 1.356 . S
C1173 C1172 1.363 . S
C1173 C1176 1.363 . S
N1174 C1176 1.356 . S
N1174 H1186 0.984 . S
N1174 H1187 0.985 . S
N1175 C1177 1.356 . S
N1175 H1180 0.984 . S
N1175 H1181 0.985 . S
C1176 C1170 1.379 . S
C1176 C1173 1.363 . S
C1176 N1174 1.356 . S
C1177 C1171 1.363 . S
C1177 C1172 1.379 . S
C1177 N1175 1.356 . S
N1178 C1170 1.356 . S
N1178 H1184 0.984 . S
N1178 H1185 0.984 . S
N1179 C1172 1.356 . S
N1179 H1182 0.984 . S
N1179 H1183 0.985 . S
H1180 N1175 0.984 . S
H1181 N1175 0.985 . S
H1182 N1179 0.984 . S
H1183 N1179 0.985 . S
H1184 N1178 0.984 . S
H1185 N1178 0.984 . S
H1186 N1174 0.984 . S
H1187 N1174 0.985 . S
C1188 C1189 1.363 . S
C1188 C1194 1.379 . S
C1188 N1196 1.356 . S
C1189 C1188 1.363 . S
C1189 C1195 1.363 . S
C1190 C1191 1.363 . S
C1190 C1195 1.379 . S
C1190 N1197 1.356 . S
C1191 C1190 1.363 . S
C1191 C1194 1.363 . S
N1192 C1194 1.356 . S
N1192 H1204 0.984 . S
N1192 H1205 0.985 . S
N1193 C1195 1.356 . S
N1193 H1198 0.984 . S
N1193 H1199 0.985 . S
C1194 C1188 1.379 . S
C1194 C1191 1.363 . S
C1194 N1192 1.356 . S
C1195 C1189 1.363 . S
C1195 C1190 1.379 . S
C1195 N1193 1.356 . S
N1196 C1188 1.356 . S
N1196 H1202 0.984 . S
N1196 H1203 0.984 . S
N1197 C1190 1.356 . S
N1197 H1200 0.984 . S
N1197 H1201 0.985 . S
H1198 N1193 0.984 . S
H1199 N1193 0.985 . S
H1200 N1197 0.984 . S
H1201 N1197 0.985 . S
H1202 N1196 0.984 . S
H1203 N1196 0.984 . S
H1204 N1192 0.984 . S
H1205 N1192 0.985 . S
C1206 C1207 1.363 . S
C1206 C1212 1.379 . S
C1206 N1214 1.356 . S
C1207 C1206 1.363 . S
C1207 C1213 1.363 . S
C1208 C1209 1.363 . S
C1208 C1213 1.379 . S
C1208 N1215 1.356 . S
C1209 C1208 1.363 . S
C1209 C1212 1.363 . S
N1210 C1212 1.356 . S
N1210 H1222 0.984 . S
N1210 H1223 0.985 . S
N1211 C1213 1.356 . S
N1211 H1216 0.984 . S
N1211 H1217 0.985 . S
C1212 C1206 1.379 . S
C1212 C1209 1.363 . S
C1212 N1210 1.356 . S
C1213 C1207 1.363 . S
C1213 C1208 1.379 . S
C1213 N1211 1.356 . S
N1214 C1206 1.356 . S
N1214 H1220 0.984 . S
N1214 H1221 0.984 . S
N1215 C1208 1.356 . S
N1215 H1218 0.984 . S
N1215 H1219 0.985 . S
H1216 N1211 0.984 . S
H1217 N1211 0.985 . S
H1218 N1215 0.984 . S
H1219 N1215 0.985 . S
H1220 N1214 0.984 . S
H1221 N1214 0.984 . S
H1222 N1210 0.984 . S
H1223 N1210 0.985 . S
C1224 C1225 1.363 . S
C1224 C1230 1.379 . S
C1224 N1232 1.356 . S
C1225 C1224 1.363 . S
C1225 C1231 1.363 . S
C1226 C1227 1.363 . S
C1226 C1231 1.379 . S
C1226 N1233 1.356 . S
C1227 C1226 1.363 . S
C1227 C1230 1.363 . S
N1228 C1230 1.356 . S
N1228 H1240 0.984 . S
N1228 H1241 0.985 . S
N1229 C1231 1.356 . S
N1229 H1234 0.984 . S
N1229 H1235 0.985 . S
C1230 C1224 1.379 . S
C1230 C1227 1.363 . S
C1230 N1228 1.356 . S
C1231 C1225 1.363 . S
C1231 C1226 1.379 . S
C1231 N1229 1.356 . S
N1232 C1224 1.356 . S
N1232 H1238 0.984 . S
N1232 H1239 0.984 . S
N1233 C1226 1.356 . S
N1233 H1236 0.984 . S
N1233 H1237 0.985 . S
H1234 N1229 0.984 . S
H1235 N1229 0.985 . S
H1236 N1233 0.984 . S
H1237 N1233 0.985 . S
H1238 N1232 0.984 . S
H1239 N1232 0.984 . S
H1240 N1228 0.984 . S
H1241 N1228 0.985 . S
C1242 C1243 1.363 . S
C1242 C1248 1.379 . S
C1242 N1250 1.356 . S
C1243 C1242 1.363 . S
C1243 C1249 1.363 . S
C1244 C1245 1.363 . S
C1244 C1249 1.379 . S
C1244 N1251 1.356 . S
C1245 C1244 1.363 . S
C1245 C1248 1.363 . S
N1246 C1248 1.356 . S
N1246 H1258 0.984 . S
N1246 H1259 0.985 . S
N1247 C1249 1.356 . S
N1247 H1252 0.984 . S
N1247 H1253 0.985 . S
C1248 C1242 1.379 . S
C1248 C1245 1.363 . S
C1248 N1246 1.356 . S
C1249 C1243 1.363 . S
C1249 C1244 1.379 . S
C1249 N1247 1.356 . S
N1250 C1242 1.356 . S
N1250 H1256 0.984 . S
N1250 H1257 0.984 . S
N1251 C1244 1.356 . S
N1251 H1254 0.984 . S
N1251 H1255 0.985 . S
H1252 N1247 0.984 . S
H1253 N1247 0.985 . S
H1254 N1251 0.984 . S
H1255 N1251 0.985 . S
H1256 N1250 0.984 . S
H1257 N1250 0.984 . S
H1258 N1246 0.984 . S
H1259 N1246 0.985 . S
C1260 C1261 1.363 . S
C1260 C1266 1.379 . S
C1260 N1268 1.356 . S
C1261 C1260 1.363 . S
C1261 C1267 1.363 . S
C1262 C1263 1.363 . S
C1262 C1267 1.379 . S
C1262 N1269 1.356 . S
C1263 C1262 1.363 . S
C1263 C1266 1.363 . S
N1264 C1266 1.356 . S
N1264 H1276 0.984 . S
N1264 H1277 0.985 . S
N1265 C1267 1.356 . S
N1265 H1270 0.984 . S
N1265 H1271 0.985 . S
C1266 C1260 1.379 . S
C1266 C1263 1.363 . S
C1266 N1264 1.356 . S
C1267 C1261 1.363 . S
C1267 C1262 1.379 . S
C1267 N1265 1.356 . S
N1268 C1260 1.356 . S
N1268 H1274 0.984 . S
N1268 H1275 0.984 . S
N1269 C1262 1.356 . S
N1269 H1272 0.984 . S
N1269 H1273 0.985 . S
H1270 N1265 0.984 . S
H1271 N1265 0.985 . S
H1272 N1269 0.984 . S
H1273 N1269 0.985 . S
H1274 N1268 0.984 . S
H1275 N1268 0.984 . S
H1276 N1264 0.984 . S
H1277 N1264 0.985 . S
C1278 C1279 1.363 . S
C1278 C1284 1.379 . S
C1278 N1286 1.356 . S
C1279 C1278 1.363 . S
C1279 C1285 1.363 . S
C1280 C1281 1.363 . S
C1280 C1285 1.379 . S
C1280 N1287 1.356 . S
C1281 C1280 1.363 . S
C1281 C1284 1.363 . S
N1282 C1284 1.356 . S
N1282 H1294 0.984 . S
N1282 H1295 0.985 . S
N1283 C1285 1.356 . S
N1283 H1288 0.984 . S
N1283 H1289 0.985 . S
C1284 C1278 1.379 . S
C1284 C1281 1.363 . S
C1284 N1282 1.356 . S
C1285 C1279 1.363 . S
C1285 C1280 1.379 . S
C1285 N1283 1.356 . S
N1286 C1278 1.356 . S
N1286 H1292 0.984 . S
N1286 H1293 0.984 . S
N1287 C1280 1.356 . S
N1287 H1290 0.984 . S
N1287 H1291 0.985 . S
H1288 N1283 0.984 . S
H1289 N1283 0.985 . S
H1290 N1287 0.984 . S
H1291 N1287 0.985 . S
H1292 N1286 0.984 . S
H1293 N1286 0.984 . S
H1294 N1282 0.984 . S
H1295 N1282 0.985 . S
C1296 C1297 1.363 . S
C1296 C1302 1.379 . S
C1296 N1304 1.356 . S
C1297 C1296 1.363 . S
C1297 C1303 1.363 . S
C1298 C1299 1.363 . S
C1298 C1303 1.379 . S
C1298 N1305 1.356 . S
C1299 C1298 1.363 . S
C1299 C1302 1.363 . S
N1300 C1302 1.356 . S
N1300 H1312 0.984 . S
N1300 H1313 0.985 . S
N1301 C1303 1.356 . S
N1301 H1306 0.984 . S
N1301 H1307 0.985 . S
C1302 C1296 1.379 . S
C1302 C1299 1.363 . S
C1302 N1300 1.356 . S
C1303 C1297 1.363 . S
C1303 C1298 1.379 . S
C1303 N1301 1.356 . S
N1304 C1296 1.356 . S
N1304 H1310 0.984 . S
N1304 H1311 0.984 . S
N1305 C1298 1.356 . S
N1305 H1308 0.984 . S
N1305 H1309 0.985 . S
H1306 N1301 0.984 . S
H1307 N1301 0.985 . S
H1308 N1305 0.984 . S
H1309 N1305 0.985 . S
H1310 N1304 0.984 . S
H1311 N1304 0.984 . S
H1312 N1300 0.984 . S
H1313 N1300 0.985 . S
C1314 C1315 1.363 . S
C1314 C1320 1.379 . S
C1314 N1322 1.356 . S
C1315 C1314 1.363 . S
C1315 C1321 1.363 . S
C1316 C1317 1.363 . S
C1316 C1321 1.379 . S
C1316 N1323 1.356 . S
C1317 C1316 1.363 . S
C1317 C1320 1.363 . S
N1318 C1320 1.356 . S
N1318 H1330 0.984 . S
N1318 H1331 0.985 . S
N1319 C1321 1.356 . S
N1319 H1324 0.984 . S
N1319 H1325 0.985 . S
C1320 C1314 1.379 . S
C1320 C1317 1.363 . S
C1320 N1318 1.356 . S
C1321 C1315 1.363 . S
C1321 C1316 1.379 . S
C1321 N1319 1.356 . S
N1322 C1314 1.356 . S
N1322 H1328 0.984 . S
N1322 H1329 0.984 . S
N1323 C1316 1.356 . S
N1323 H1326 0.984 . S
N1323 H1327 0.985 . S
H1324 N1319 0.984 . S
H1325 N1319 0.985 . S
H1326 N1323 0.984 . S
H1327 N1323 0.985 . S
H1328 N1322 0.984 . S
H1329 N1322 0.984 . S
H1330 N1318 0.984 . S
H1331 N1318 0.985 . S
C1332 C1333 1.363 . S
C1332 C1338 1.379 . S
C1332 N1340 1.356 . S
C1333 C1332 1.363 . S
C1333 C1339 1.363 . S
C1334 C1335 1.363 . S
C1334 C1339 1.379 . S
C1334 N1341 1.356 . S
C1335 C1334 1.363 . S
C1335 C1338 1.363 . S
N1336 C1338 1.356 . S
N1336 H1348 0.984 . S
N1336 H1349 0.985 . S
N1337 C1339 1.356 . S
N1337 H1342 0.984 . S
N1337 H1343 0.985 . S
C1338 C1332 1.379 . S
C1338 C1335 1.363 . S
C1338 N1336 1.356 . S
C1339 C1333 1.363 . S
C1339 C1334 1.379 . S
C1339 N1337 1.356 . S
N1340 C1332 1.356 . S
N1340 H1346 0.984 . S
N1340 H1347 0.984 . S
N1341 C1334 1.356 . S
N1341 H1344 0.984 . S
N1341 H1345 0.985 . S
H1342 N1337 0.984 . S
H1343 N1337 0.985 . S
H1344 N1341 0.984 . S
H1345 N1341 0.985 . S
H1346 N1340 0.984 . S
H1347 N1340 0.984 . S
H1348 N1336 0.984 . S
H1349 N1336 0.985 . S
C1350 C1351 1.363 . S
C1350 C1356 1.379 . S
C1350 N1358 1.356 . S
C1351 C1350 1.363 . S
C1351 C1357 1.363 . S
C1352 C1353 1.363 . S
C1352 C1357 1.379 . S
C1352 N1359 1.356 . S
C1353 C1352 1.363 . S
C1353 C1356 1.363 . S
N1354 C1356 1.356 . S
N1354 H1366 0.984 . S
N1354 H1367 0.985 . S
N1355 C1357 1.356 . S
N1355 H1360 0.984 . S
N1355 H1361 0.985 . S
C1356 C1350 1.379 . S
C1356 C1353 1.363 . S
C1356 N1354 1.356 . S
C1357 C1351 1.363 . S
C1357 C1352 1.379 . S
C1357 N1355 1.356 . S
N1358 C1350 1.356 . S
N1358 H1364 0.984 . S
N1358 H1365 0.984 . S
N1359 C1352 1.356 . S
N1359 H1362 0.984 . S
N1359 H1363 0.985 . S
H1360 N1355 0.984 . S
H1361 N1355 0.985 . S
H1362 N1359 0.984 . S
H1363 N1359 0.985 . S
H1364 N1358 0.984 . S
H1365 N1358 0.984 . S
H1366 N1354 0.984 . S
H1367 N1354 0.985 . S
C1368 C1369 1.363 . S
C1368 C1374 1.379 . S
C1368 N1376 1.356 . S
C1369 C1368 1.363 . S
C1369 C1375 1.363 . S
C1370 C1371 1.363 . S
C1370 C1375 1.379 . S
C1370 N1377 1.356 . S
C1371 C1370 1.363 . S
C1371 C1374 1.363 . S
N1372 C1374 1.356 . S
N1372 H1384 0.984 . S
N1372 H1385 0.985 . S
N1373 C1375 1.356 . S
N1373 H1378 0.984 . S
N1373 H1379 0.985 . S
C1374 C1368 1.379 . S
C1374 C1371 1.363 . S
C1374 N1372 1.356 . S
C1375 C1369 1.363 . S
C1375 C1370 1.379 . S
C1375 N1373 1.356 . S
N1376 C1368 1.356 . S
N1376 H1382 0.984 . S
N1376 H1383 0.984 . S
N1377 C1370 1.356 . S
N1377 H1380 0.984 . S
N1377 H1381 0.985 . S
H1378 N1373 0.984 . S
H1379 N1373 0.985 . S
H1380 N1377 0.984 . S
H1381 N1377 0.985 . S
H1382 N1376 0.984 . S
H1383 N1376 0.984 . S
H1384 N1372 0.984 . S
H1385 N1372 0.985 . S
C1386 C1387 1.363 . S
C1386 C1392 1.379 . S
C1386 N1394 1.356 . S
C1387 C1386 1.363 . S
C1387 C1393 1.363 . S
C1388 C1389 1.363 . S
C1388 C1393 1.379 . S
C1388 N1395 1.356 . S
C1389 C1388 1.363 . S
C1389 C1392 1.363 . S
N1390 C1392 1.356 . S
N1390 H1402 0.984 . S
N1390 H1403 0.985 . S
N1391 C1393 1.356 . S
N1391 H1396 0.984 . S
N1391 H1397 0.985 . S
C1392 C1386 1.379 . S
C1392 C1389 1.363 . S
C1392 N1390 1.356 . S
C1393 C1387 1.363 . S
C1393 C1388 1.379 . S
C1393 N1391 1.356 . S
N1394 C1386 1.356 . S
N1394 H1400 0.984 . S
N1394 H1401 0.984 . S
N1395 C1388 1.356 . S
N1395 H1398 0.984 . S
N1395 H1399 0.985 . S
H1396 N1391 0.984 . S
H1397 N1391 0.985 . S
H1398 N1395 0.984 . S
H1399 N1395 0.985 . S
H1400 N1394 0.984 . S
H1401 N1394 0.984 . S
H1402 N1390 0.984 . S
H1403 N1390 0.985 . S
C1404 C1405 1.363 . S
C1404 C1410 1.379 . S
C1404 N1412 1.356 . S
C1405 C1404 1.363 . S
C1405 C1411 1.363 . S
C1406 C1407 1.363 . S
C1406 C1411 1.379 . S
C1406 N1413 1.356 . S
C1407 C1406 1.363 . S
C1407 C1410 1.363 . S
N1408 C1410 1.356 . S
N1408 H1420 0.984 . S
N1408 H1421 0.985 . S
N1409 C1411 1.356 . S
N1409 H1414 0.984 . S
N1409 H1415 0.985 . S
C1410 C1404 1.379 . S
C1410 C1407 1.363 . S
C1410 N1408 1.356 . S
C1411 C1405 1.363 . S
C1411 C1406 1.379 . S
C1411 N1409 1.356 . S
N1412 C1404 1.356 . S
N1412 H1418 0.984 . S
N1412 H1419 0.984 . S
N1413 C1406 1.356 . S
N1413 H1416 0.984 . S
N1413 H1417 0.985 . S
H1414 N1409 0.984 . S
H1415 N1409 0.985 . S
H1416 N1413 0.984 . S
H1417 N1413 0.985 . S
H1418 N1412 0.984 . S
H1419 N1412 0.984 . S
H1420 N1408 0.984 . S
H1421 N1408 0.985 . S
C1422 C1423 1.363 . S
C1422 C1428 1.379 . S
C1422 N1430 1.356 . S
C1423 C1422 1.363 . S
C1423 C1429 1.363 . S
C1424 C1425 1.363 . S
C1424 C1429 1.379 . S
C1424 N1431 1.356 . S
C1425 C1424 1.363 . S
C1425 C1428 1.363 . S
N1426 C1428 1.356 . S
N1426 H1438 0.984 . S
N1426 H1439 0.985 . S
N1427 C1429 1.356 . S
N1427 H1432 0.984 . S
N1427 H1433 0.985 . S
C1428 C1422 1.379 . S
C1428 C1425 1.363 . S
C1428 N1426 1.356 . S
C1429 C1423 1.363 . S
C1429 C1424 1.379 . S
C1429 N1427 1.356 . S
N1430 C1422 1.356 . S
N1430 H1436 0.984 . S
N1430 H1437 0.984 . S
N1431 C1424 1.356 . S
N1431 H1434 0.984 . S
N1431 H1435 0.985 . S
H1432 N1427 0.984 . S
H1433 N1427 0.985 . S
H1434 N1431 0.984 . S
H1435 N1431 0.985 . S
H1436 N1430 0.984 . S
H1437 N1430 0.984 . S
H1438 N1426 0.984 . S
H1439 N1426 0.985 . S
C1440 C1441 1.363 . S
C1440 C1446 1.379 . S
C1440 N1448 1.356 . S
C1441 C1440 1.363 . S
C1441 C1447 1.363 . S
C1442 C1443 1.363 . S
C1442 C1447 1.379 . S
C1442 N1449 1.356 . S
C1443 C1442 1.363 . S
C1443 C1446 1.363 . S
N1444 C1446 1.356 . S
N1444 H1456 0.984 . S
N1444 H1457 0.985 . S
N1445 C1447 1.356 . S
N1445 H1450 0.984 . S
N1445 H1451 0.985 . S
C1446 C1440 1.379 . S
C1446 C1443 1.363 . S
C1446 N1444 1.356 . S
C1447 C1441 1.363 . S
C1447 C1442 1.379 . S
C1447 N1445 1.356 . S
N1448 C1440 1.356 . S
N1448 H1454 0.984 . S
N1448 H1455 0.984 . S
N1449 C1442 1.356 . S
N1449 H1452 0.984 . S
N1449 H1453 0.985 . S
H1450 N1445 0.984 . S
H1451 N1445 0.985 . S
H1452 N1449 0.984 . S
H1453 N1449 0.985 . S
H1454 N1448 0.984 . S
H1455 N1448 0.984 . S
H1456 N1444 0.984 . S
H1457 N1444 0.985 . S
C1458 C1459 1.363 . S
C1458 C1464 1.379 . S
C1458 N1466 1.356 . S
C1459 C1458 1.363 . S
C1459 C1465 1.363 . S
C1460 C1461 1.363 . S
C1460 C1465 1.379 . S
C1460 N1467 1.356 . S
C1461 C1460 1.363 . S
C1461 C1464 1.363 . S
N1462 C1464 1.356 . S
N1462 H1474 0.984 . S
N1462 H1475 0.985 . S
N1463 C1465 1.356 . S
N1463 H1468 0.984 . S
N1463 H1469 0.985 . S
C1464 C1458 1.379 . S
C1464 C1461 1.363 . S
C1464 N1462 1.356 . S
C1465 C1459 1.363 . S
C1465 C1460 1.379 . S
C1465 N1463 1.356 . S
N1466 C1458 1.356 . S
N1466 H1472 0.984 . S
N1466 H1473 0.984 . S
N1467 C1460 1.356 . S
N1467 H1470 0.984 . S
N1467 H1471 0.985 . S
H1468 N1463 0.984 . S
H1469 N1463 0.985 . S
H1470 N1467 0.984 . S
H1471 N1467 0.985 . S
H1472 N1466 0.984 . S
H1473 N1466 0.984 . S
H1474 N1462 0.984 . S
H1475 N1462 0.985 . S
C1476 C1477 1.363 . S
C1476 C1482 1.379 . S
C1476 N1484 1.356 . S
C1477 C1476 1.363 . S
C1477 C1483 1.363 . S
C1478 C1479 1.363 . S
C1478 C1483 1.379 . S
C1478 N1485 1.356 . S
C1479 C1478 1.363 . S
C1479 C1482 1.363 . S
N1480 C1482 1.356 . S
N1480 H1492 0.984 . S
N1480 H1493 0.985 . S
N1481 C1483 1.356 . S
N1481 H1486 0.984 . S
N1481 H1487 0.985 . S
C1482 C1476 1.379 . S
C1482 C1479 1.363 . S
C1482 N1480 1.356 . S
C1483 C1477 1.363 . S
C1483 C1478 1.379 . S
C1483 N1481 1.356 . S
N1484 C1476 1.356 . S
N1484 H1490 0.984 . S
N1484 H1491 0.984 . S
N1485 C1478 1.356 . S
N1485 H1488 0.984 . S
N1485 H1489 0.985 . S
H1486 N1481 0.984 . S
H1487 N1481 0.985 . S
H1488 N1485 0.984 . S
H1489 N1485 0.985 . S
H1490 N1484 0.984 . S
H1491 N1484 0.984 . S
H1492 N1480 0.984 . S
H1493 N1480 0.985 . S
C1494 C1495 1.363 . S
C1494 C1500 1.379 . S
C1494 N1502 1.356 . S
C1495 C1494 1.363 . S
C1495 C1501 1.363 . S
C1496 C1497 1.363 . S
C1496 C1501 1.379 . S
C1496 N1503 1.356 . S
C1497 C1496 1.363 . S
C1497 C1500 1.363 . S
N1498 C1500 1.356 . S
N1498 H1510 0.984 . S
N1498 H1511 0.985 . S
N1499 C1501 1.356 . S
N1499 H1504 0.984 . S
N1499 H1505 0.985 . S
C1500 C1494 1.379 . S
C1500 C1497 1.363 . S
C1500 N1498 1.356 . S
C1501 C1495 1.363 . S
C1501 C1496 1.379 . S
C1501 N1499 1.356 . S
N1502 C1494 1.356 . S
N1502 H1508 0.984 . S
N1502 H1509 0.984 . S
N1503 C1496 1.356 . S
N1503 H1506 0.984 . S
N1503 H1507 0.985 . S
H1504 N1499 0.984 . S
H1505 N1499 0.985 . S
H1506 N1503 0.984 . S
H1507 N1503 0.985 . S
H1508 N1502 0.984 . S
H1509 N1502 0.984 . S
H1510 N1498 0.984 . S
H1511 N1498 0.985 . S
C1512 C1513 1.363 . S
C1512 C1518 1.379 . S
C1512 N1520 1.356 . S
C1513 C1512 1.363 . S
C1513 C1519 1.363 . S
C1514 C1515 1.363 . S
C1514 C1519 1.379 . S
C1514 N1521 1.356 . S
C1515 C1514 1.363 . S
C1515 C1518 1.363 . S
N1516 C1518 1.356 . S
N1516 H1528 0.984 . S
N1516 H1529 0.985 . S
N1517 C1519 1.356 . S
N1517 H1522 0.984 . S
N1517 H1523 0.985 . S
C1518 C1512 1.379 . S
C1518 C1515 1.363 . S
C1518 N1516 1.356 . S
C1519 C1513 1.363 . S
C1519 C1514 1.379 . S
C1519 N1517 1.356 . S
N1520 C1512 1.356 . S
N1520 H1526 0.984 . S
N1520 H1527 0.984 . S
N1521 C1514 1.356 . S
N1521 H1524 0.984 . S
N1521 H1525 0.985 . S
H1522 N1517 0.984 . S
H1523 N1517 0.985 . S
H1524 N1521 0.984 . S
H1525 N1521 0.985 . S
H1526 N1520 0.984 . S
H1527 N1520 0.984 . S
H1528 N1516 0.984 . S
H1529 N1516 0.985 . S
C1530 C1531 1.363 . S
C1530 C1536 1.379 . S
C1530 N1538 1.356 . S
C1531 C1530 1.363 . S
C1531 C1537 1.363 . S
C1532 C1533 1.363 . S
C1532 C1537 1.379 . S
C1532 N1539 1.356 . S
C1533 C1532 1.363 . S
C1533 C1536 1.363 . S
N1534 C1536 1.356 . S
N1534 H1546 0.984 . S
N1534 H1547 0.985 . S
N1535 C1537 1.356 . S
N1535 H1540 0.984 . S
N1535 H1541 0.985 . S
C1536 C1530 1.379 . S
C1536 C1533 1.363 . S
C1536 N1534 1.356 . S
C1537 C1531 1.363 . S
C1537 C1532 1.379 . S
C1537 N1535 1.356 . S
N1538 C1530 1.356 . S
N1538 H1544 0.984 . S
N1538 H1545 0.984 . S
N1539 C1532 1.356 . S
N1539 H1542 0.984 . S
N1539 H1543 0.985 . S
H1540 N1535 0.984 . S
H1541 N1535 0.985 . S
H1542 N1539 0.984 . S
H1543 N1539 0.985 . S
H1544 N1538 0.984 . S
H1545 N1538 0.984 . S
H1546 N1534 0.984 . S
H1547 N1534 0.985 . S
C1548 C1549 1.363 . S
C1548 C1554 1.379 . S
C1548 N1556 1.356 . S
C1549 C1548 1.363 . S
C1549 C1555 1.363 . S
C1550 C1551 1.363 . S
C1550 C1555 1.379 . S
C1550 N1557 1.356 . S
C1551 C1550 1.363 . S
C1551 C1554 1.363 . S
N1552 C1554 1.356 . S
N1552 H1564 0.984 . S
N1552 H1565 0.985 . S
N1553 C1555 1.356 . S
N1553 H1558 0.984 . S
N1553 H1559 0.985 . S
C1554 C1548 1.379 . S
C1554 C1551 1.363 . S
C1554 N1552 1.356 . S
C1555 C1549 1.363 . S
C1555 C1550 1.379 . S
C1555 N1553 1.356 . S
N1556 C1548 1.356 . S
N1556 H1562 0.984 . S
N1556 H1563 0.984 . S
N1557 C1550 1.356 . S
N1557 H1560 0.984 . S
N1557 H1561 0.985 . S
H1558 N1553 0.984 . S
H1559 N1553 0.985 . S
H1560 N1557 0.984 . S
H1561 N1557 0.985 . S
H1562 N1556 0.984 . S
H1563 N1556 0.984 . S
H1564 N1552 0.984 . S
H1565 N1552 0.985 . S
C1566 C1567 1.363 . S
C1566 C1572 1.379 . S
C1566 N1574 1.356 . S
C1567 C1566 1.363 . S
C1567 C1573 1.363 . S
C1568 C1569 1.363 . S
C1568 C1573 1.379 . S
C1568 N1575 1.356 . S
C1569 C1568 1.363 . S
C1569 C1572 1.363 . S
N1570 C1572 1.356 . S
N1570 H1582 0.984 . S
N1570 H1583 0.985 . S
N1571 C1573 1.356 . S
N1571 H1576 0.984 . S
N1571 H1577 0.985 . S
C1572 C1566 1.379 . S
C1572 C1569 1.363 . S
C1572 N1570 1.356 . S
C1573 C1567 1.363 . S
C1573 C1568 1.379 . S
C1573 N1571 1.356 . S
N1574 C1566 1.356 . S
N1574 H1580 0.984 . S
N1574 H1581 0.984 . S
N1575 C1568 1.356 . S
N1575 H1578 0.984 . S
N1575 H1579 0.985 . S
H1576 N1571 0.984 . S
H1577 N1571 0.985 . S
H1578 N1575 0.984 . S
H1579 N1575 0.985 . S
H1580 N1574 0.984 . S
H1581 N1574 0.984 . S
H1582 N1570 0.984 . S
H1583 N1570 0.985 . S
C1584 C1585 1.363 . S
C1584 C1590 1.379 . S
C1584 N1592 1.356 . S
C1585 C1584 1.363 . S
C1585 C1591 1.363 . S
C1586 C1587 1.363 . S
C1586 C1591 1.379 . S
C1586 N1593 1.356 . S
C1587 C1586 1.363 . S
C1587 C1590 1.363 . S
N1588 C1590 1.356 . S
N1588 H1600 0.984 . S
N1588 H1601 0.985 . S
N1589 C1591 1.356 . S
N1589 H1594 0.984 . S
N1589 H1595 0.985 . S
C1590 C1584 1.379 . S
C1590 C1587 1.363 . S
C1590 N1588 1.356 . S
C1591 C1585 1.363 . S
C1591 C1586 1.379 . S
C1591 N1589 1.356 . S
N1592 C1584 1.356 . S
N1592 H1598 0.984 . S
N1592 H1599 0.984 . S
N1593 C1586 1.356 . S
N1593 H1596 0.984 . S
N1593 H1597 0.985 . S
H1594 N1589 0.984 . S
H1595 N1589 0.985 . S
H1596 N1593 0.984 . S
H1597 N1593 0.985 . S
H1598 N1592 0.984 . S
H1599 N1592 0.984 . S
H1600 N1588 0.984 . S
H1601 N1588 0.985 . S
C1602 C1603 1.363 . S
C1602 C1608 1.379 . S
C1602 N1610 1.356 . S
C1603 C1602 1.363 . S
C1603 C1609 1.363 . S
C1604 C1605 1.363 . S
C1604 C1609 1.379 . S
C1604 N1611 1.356 . S
C1605 C1604 1.363 . S
C1605 C1608 1.363 . S
N1606 C1608 1.356 . S
N1606 H1618 0.984 . S
N1606 H1619 0.985 . S
N1607 C1609 1.356 . S
N1607 H1612 0.984 . S
N1607 H1613 0.985 . S
C1608 C1602 1.379 . S
C1608 C1605 1.363 . S
C1608 N1606 1.356 . S
C1609 C1603 1.363 . S
C1609 C1604 1.379 . S
C1609 N1607 1.356 . S
N1610 C1602 1.356 . S
N1610 H1616 0.984 . S
N1610 H1617 0.984 . S
N1611 C1604 1.356 . S
N1611 H1614 0.984 . S
N1611 H1615 0.985 . S
H1612 N1607 0.984 . S
H1613 N1607 0.985 . S
H1614 N1611 0.984 . S
H1615 N1611 0.985 . S
H1616 N1610 0.984 . S
H1617 N1610 0.984 . S
H1618 N1606 0.984 . S
H1619 N1606 0.985 . S
C1620 C1621 1.363 . S
C1620 C1626 1.379 . S
C1620 N1628 1.356 . S
C1621 C1620 1.363 . S
C1621 C1627 1.363 . S
C1622 C1623 1.363 . S
C1622 C1627 1.379 . S
C1622 N1629 1.356 . S
C1623 C1622 1.363 . S
C1623 C1626 1.363 . S
N1624 C1626 1.356 . S
N1624 H1636 0.984 . S
N1624 H1637 0.985 . S
N1625 C1627 1.356 . S
N1625 H1630 0.984 . S
N1625 H1631 0.985 . S
C1626 C1620 1.379 . S
C1626 C1623 1.363 . S
C1626 N1624 1.356 . S
C1627 C1621 1.363 . S
C1627 C1622 1.379 . S
C1627 N1625 1.356 . S
N1628 C1620 1.356 . S
N1628 H1634 0.984 . S
N1628 H1635 0.984 . S
N1629 C1622 1.356 . S
N1629 H1632 0.984 . S
N1629 H1633 0.985 . S
H1630 N1625 0.984 . S
H1631 N1625 0.985 . S
H1632 N1629 0.984 . S
H1633 N1629 0.985 . S
H1634 N1628 0.984 . S
H1635 N1628 0.984 . S
H1636 N1624 0.984 . S
H1637 N1624 0.985 . S
C1638 C1639 1.363 . S
C1638 C1644 1.379 . S
C1638 N1646 1.356 . S
C1639 C1638 1.363 . S
C1639 C1645 1.363 . S
C1640 C1641 1.363 . S
C1640 C1645 1.379 . S
C1640 N1647 1.356 . S
C1641 C1640 1.363 . S
C1641 C1644 1.363 . S
N1642 C1644 1.356 . S
N1642 H1654 0.984 . S
N1642 H1655 0.985 . S
N1643 C1645 1.356 . S
N1643 H1648 0.984 . S
N1643 H1649 0.985 . S
C1644 C1638 1.379 . S
C1644 C1641 1.363 . S
C1644 N1642 1.356 . S
C1645 C1639 1.363 . S
C1645 C1640 1.379 . S
C1645 N1643 1.356 . S
N1646 C1638 1.356 . S
N1646 H1652 0.984 . S
N1646 H1653 0.984 . S
N1647 C1640 1.356 . S
N1647 H1650 0.984 . S
N1647 H1651 0.985 . S
H1648 N1643 0.984 . S
H1649 N1643 0.985 . S
H1650 N1647 0.984 . S
H1651 N1647 0.985 . S
H1652 N1646 0.984 . S
H1653 N1646 0.984 . S
H1654 N1642 0.984 . S
H1655 N1642 0.985 . S
C1656 C1657 1.363 . S
C1656 C1662 1.379 . S
C1656 N1664 1.356 . S
C1657 C1656 1.363 . S
C1657 C1663 1.363 . S
C1658 C1659 1.363 . S
C1658 C1663 1.379 . S
C1658 N1665 1.356 . S
C1659 C1658 1.363 . S
C1659 C1662 1.363 . S
N1660 C1662 1.356 . S
N1660 H1672 0.984 . S
N1660 H1673 0.985 . S
N1661 C1663 1.356 . S
N1661 H1666 0.984 . S
N1661 H1667 0.985 . S
C1662 C1656 1.379 . S
C1662 C1659 1.363 . S
C1662 N1660 1.356 . S
C1663 C1657 1.363 . S
C1663 C1658 1.379 . S
C1663 N1661 1.356 . S
N1664 C1656 1.356 . S
N1664 H1670 0.984 . S
N1664 H1671 0.984 . S
N1665 C1658 1.356 . S
N1665 H1668 0.984 . S
N1665 H1669 0.985 . S
H1666 N1661 0.984 . S
H1667 N1661 0.985 . S
H1668 N1665 0.984 . S
H1669 N1665 0.985 . S
H1670 N1664 0.984 . S
H1671 N1664 0.984 . S
H1672 N1660 0.984 . S
H1673 N1660 0.985 . S
C1674 C1675 1.363 . S
C1674 C1680 1.379 . S
C1674 N1682 1.356 . S
C1675 C1674 1.363 . S
C1675 C1681 1.363 . S
C1676 C1677 1.363 . S
C1676 C1681 1.379 . S
C1676 N1683 1.356 . S
C1677 C1676 1.363 . S
C1677 C1680 1.363 . S
N1678 C1680 1.356 . S
N1678 H1690 0.984 . S
N1678 H1691 0.985 . S
N1679 C1681 1.356 . S
N1679 H1684 0.984 . S
N1679 H1685 0.985 . S
C1680 C1674 1.379 . S
C1680 C1677 1.363 . S
C1680 N1678 1.356 . S
C1681 C1675 1.363 . S
C1681 C1676 1.379 . S
C1681 N1679 1.356 . S
N1682 C1674 1.356 . S
N1682 H1688 0.984 . S
N1682 H1689 0.984 . S
N1683 C1676 1.356 . S
N1683 H1686 0.984 . S
N1683 H1687 0.985 . S
H1684 N1679 0.984 . S
H1685 N1679 0.985 . S
H1686 N1683 0.984 . S
H1687 N1683 0.985 . S
H1688 N1682 0.984 . S
H1689 N1682 0.984 . S
H1690 N1678 0.984 . S
H1691 N1678 0.985 . S
C1692 C1693 1.363 . S
C1692 C1698 1.379 . S
C1692 N1700 1.356 . S
C1693 C1692 1.363 . S
C1693 C1699 1.363 . S
C1694 C1695 1.363 . S
C1694 C1699 1.379 . S
C1694 N1701 1.356 . S
C1695 C1694 1.363 . S
C1695 C1698 1.363 . S
N1696 C1698 1.356 . S
N1696 H1708 0.984 . S
N1696 H1709 0.985 . S
N1697 C1699 1.356 . S
N1697 H1702 0.984 . S
N1697 H1703 0.985 . S
C1698 C1692 1.379 . S
C1698 C1695 1.363 . S
C1698 N1696 1.356 . S
C1699 C1693 1.363 . S
C1699 C1694 1.379 . S
C1699 N1697 1.356 . S
N1700 C1692 1.356 . S
N1700 H1706 0.984 . S
N1700 H1707 0.984 . S
N1701 C1694 1.356 . S
N1701 H1704 0.984 . S
N1701 H1705 0.985 . S
H1702 N1697 0.984 . S
H1703 N1697 0.985 . S
H1704 N1701 0.984 . S
H1705 N1701 0.985 . S
H1706 N1700 0.984 . S
H1707 N1700 0.984 . S
H1708 N1696 0.984 . S
H1709 N1696 0.985 . S
C1710 C1711 1.363 . S
C1710 C1716 1.379 . S
C1710 N1718 1.356 . S
C1711 C1710 1.363 . S
C1711 C1717 1.363 . S
C1712 C1713 1.363 . S
C1712 C1717 1.379 . S
C1712 N1719 1.356 . S
C1713 C1712 1.363 . S
C1713 C1716 1.363 . S
N1714 C1716 1.356 . S
N1714 H1726 0.984 . S
N1714 H1727 0.985 . S
N1715 C1717 1.356 . S
N1715 H1720 0.984 . S
N1715 H1721 0.985 . S
C1716 C1710 1.379 . S
C1716 C1713 1.363 . S
C1716 N1714 1.356 . S
C1717 C1711 1.363 . S
C1717 C1712 1.379 . S
C1717 N1715 1.356 . S
N1718 C1710 1.356 . S
N1718 H1724 0.984 . S
N1718 H1725 0.984 . S
N1719 C1712 1.356 . S
N1719 H1722 0.984 . S
N1719 H1723 0.985 . S
H1720 N1715 0.984 . S
H1721 N1715 0.985 . S
H1722 N1719 0.984 . S
H1723 N1719 0.985 . S
H1724 N1718 0.984 . S
H1725 N1718 0.984 . S
H1726 N1714 0.984 . S
H1727 N1714 0.985 . S
C1728 C1729 1.363 . S
C1728 C1734 1.379 . S
C1728 N1736 1.356 . S
C1729 C1728 1.363 . S
C1729 C1735 1.363 . S
C1730 C1731 1.363 . S
C1730 C1735 1.379 . S
C1730 N1737 1.356 . S
C1731 C1730 1.363 . S
C1731 C1734 1.363 . S
N1732 C1734 1.356 . S
N1732 H1744 0.984 . S
N1732 H1745 0.985 . S
N1733 C1735 1.356 . S
N1733 H1738 0.984 . S
N1733 H1739 0.985 . S
C1734 C1728 1.379 . S
C1734 C1731 1.363 . S
C1734 N1732 1.356 . S
C1735 C1729 1.363 . S
C1735 C1730 1.379 . S
C1735 N1733 1.356 . S
N1736 C1728 1.356 . S
N1736 H1742 0.984 . S
N1736 H1743 0.984 . S
N1737 C1730 1.356 . S
N1737 H1740 0.984 . S
N1737 H1741 0.985 . S
H1738 N1733 0.984 . S
H1739 N1733 0.985 . S
H1740 N1737 0.984 . S
H1741 N1737 0.985 . S
H1742 N1736 0.984 . S
H1743 N1736 0.984 . S
H1744 N1732 0.984 . S
H1745 N1732 0.985 . S
C1746 C1747 1.363 1_645 S
C1746 C1752 1.379 . S
C1746 N1754 1.356 . S
C1747 C1746 1.363 1_465 S
C1747 C1753 1.363 . S
C1748 C1749 1.363 1_465 S
C1748 C1753 1.379 . S
C1748 N1755 1.356 . S
C1749 C1748 1.363 1_645 S
C1749 C1752 1.363 . S
N1750 C1752 1.356 . S
N1750 H1762 0.984 . S
N1750 H1763 0.985 . S
N1751 C1753 1.356 . S
N1751 H1756 0.984 . S
N1751 H1757 0.985 . S
C1752 C1746 1.379 . S
C1752 C1749 1.363 . S
C1752 N1750 1.356 . S
C1753 C1747 1.363 . S
C1753 C1748 1.379 . S
C1753 N1751 1.356 . S
N1754 C1746 1.356 . S
N1754 H1760 0.984 . S
N1754 H1761 0.984 . S
N1755 C1748 1.356 . S
N1755 H1758 0.984 . S
N1755 H1759 0.985 . S
H1756 N1751 0.984 . S
H1757 N1751 0.985 . S
H1758 N1755 0.984 . S
H1759 N1755 0.985 . S
H1760 N1754 0.984 . S
H1761 N1754 0.984 . S
H1762 N1750 0.984 . S
H1763 N1750 0.985 . S
C1764 C1765 1.363 . S
C1764 C1770 1.379 . S
C1764 N1772 1.356 . S
C1765 C1764 1.363 . S
C1765 C1771 1.363 . S
C1766 C1767 1.363 . S
C1766 C1771 1.379 . S
C1766 N1773 1.356 . S
C1767 C1766 1.363 . S
C1767 C1770 1.363 . S
N1768 C1770 1.356 . S
N1768 H1780 0.984 . S
N1768 H1781 0.985 . S
N1769 C1771 1.356 . S
N1769 H1774 0.984 . S
N1769 H1775 0.985 . S
C1770 C1764 1.379 . S
C1770 C1767 1.363 . S
C1770 N1768 1.356 . S
C1771 C1765 1.363 . S
C1771 C1766 1.379 . S
C1771 N1769 1.356 . S
N1772 C1764 1.356 . S
N1772 H1778 0.984 . S
N1772 H1779 0.984 . S
N1773 C1766 1.356 . S
N1773 H1776 0.984 . S
N1773 H1777 0.985 . S
H1774 N1769 0.984 . S
H1775 N1769 0.985 . S
H1776 N1773 0.984 . S
H1777 N1773 0.985 . S
H1778 N1772 0.984 . S
H1779 N1772 0.984 . S
H1780 N1768 0.984 . S
H1781 N1768 0.985 . S
C1782 C1783 1.363 1_565 S
C1782 C1788 1.379 1_554 S
C1782 N1790 1.356 . S
C1783 C1782 1.363 1_545 S
C1783 C1789 1.363 . S
C1784 C1785 1.363 1_545 S
C1784 C1789 1.379 1_556 S
C1784 N1791 1.356 . S
C1785 C1784 1.363 1_565 S
C1785 C1788 1.363 . S
N1786 C1788 1.356 . S
N1786 H1798 0.984 . S
N1786 H1799 0.985 . S
N1787 C1789 1.356 . S
N1787 H1792 0.984 . S
N1787 H1793 0.985 . S
C1788 C1782 1.379 1_556 S
C1788 C1785 1.363 . S
C1788 N1786 1.356 . S
C1789 C1783 1.363 . S
C1789 C1784 1.379 1_554 S
C1789 N1787 1.356 . S
N1790 C1782 1.356 . S
N1790 H1796 0.984 . S
N1790 H1797 0.984 . S
N1791 C1784 1.356 . S
N1791 H1794 0.984 . S
N1791 H1795 0.985 . S
H1792 N1787 0.984 . S
H1793 N1787 0.985 . S
H1794 N1791 0.984 . S
H1795 N1791 0.985 . S
H1796 N1790 0.984 . S
H1797 N1790 0.984 . S
H1798 N1786 0.984 . S
H1799 N1786 0.985 . S
C1800 C1801 1.363 . S
C1800 C1806 1.379 . S
C1800 N1808 1.356 . S
C1801 C1800 1.363 . S
C1801 C1807 1.363 . S
C1802 C1803 1.363 . S
C1802 C1807 1.379 . S
C1802 N1809 1.356 . S
C1803 C1802 1.363 . S
C1803 C1806 1.363 . S
N1804 C1806 1.356 . S
N1804 H1816 0.984 . S
N1804 H1817 0.985 . S
N1805 C1807 1.356 . S
N1805 H1810 0.984 . S
N1805 H1811 0.985 . S
C1806 C1800 1.379 . S
C1806 C1803 1.363 . S
C1806 N1804 1.356 . S
C1807 C1801 1.363 . S
C1807 C1802 1.379 . S
C1807 N1805 1.356 . S
N1808 C1800 1.356 . S
N1808 H1814 0.984 . S
N1808 H1815 0.984 . S
N1809 C1802 1.356 . S
N1809 H1812 0.984 . S
N1809 H1813 0.985 . S
H1810 N1805 0.984 . S
H1811 N1805 0.985 . S
H1812 N1809 0.984 . S
H1813 N1809 0.985 . S
H1814 N1808 0.984 . S
H1815 N1808 0.984 . S
H1816 N1804 0.984 . S
H1817 N1804 0.985 . S
C1818 C1819 1.363 1_545 S
C1818 C1824 1.379 . S
C1818 N1826 1.356 . S
C1819 C1818 1.363 1_565 S
C1819 C1825 1.363 . S
C1820 C1821 1.363 1_565 S
C1820 C1825 1.379 . S
C1820 N1827 1.356 . S
C1821 C1820 1.363 1_545 S
C1821 C1824 1.363 . S
N1822 C1824 1.356 . S
N1822 H1834 0.984 . S
N1822 H1835 0.985 . S
N1823 C1825 1.356 . S
N1823 H1828 0.984 . S
N1823 H1829 0.985 . S
C1824 C1818 1.379 . S
C1824 C1821 1.363 . S
C1824 N1822 1.356 . S
C1825 C1819 1.363 . S
C1825 C1820 1.379 . S
C1825 N1823 1.356 . S
N1826 C1818 1.356 . S
N1826 H1832 0.984 . S
N1826 H1833 0.984 . S
N1827 C1820 1.356 . S
N1827 H1830 0.984 . S
N1827 H1831 0.985 . S
H1828 N1823 0.984 . S
H1829 N1823 0.985 . S
H1830 N1827 0.984 . S
H1831 N1827 0.985 . S
H1832 N1826 0.984 . S
H1833 N1826 0.984 . S
H1834 N1822 0.984 . S
H1835 N1822 0.985 . S
C1836 C1837 1.363 . S
C1836 C1842 1.379 . S
C1836 N1844 1.356 . S
C1837 C1836 1.363 . S
C1837 C1843 1.363 . S
C1838 C1839 1.363 . S
C1838 C1843 1.379 . S
C1838 N1845 1.356 . S
C1839 C1838 1.363 . S
C1839 C1842 1.363 . S
N1840 C1842 1.356 . S
N1840 H1852 0.984 . S
N1840 H1853 0.985 . S
N1841 C1843 1.356 . S
N1841 H1846 0.984 . S
N1841 H1847 0.985 . S
C1842 C1836 1.379 . S
C1842 C1839 1.363 . S
C1842 N1840 1.356 . S
C1843 C1837 1.363 . S
C1843 C1838 1.379 . S
C1843 N1841 1.356 . S
N1844 C1836 1.356 . S
N1844 H1850 0.984 . S
N1844 H1851 0.984 . S
N1845 C1838 1.356 . S
N1845 H1848 0.984 . S
N1845 H1849 0.985 . S
H1846 N1841 0.984 . S
H1847 N1841 0.985 . S
H1848 N1845 0.984 . S
H1849 N1845 0.985 . S
H1850 N1844 0.984 . S
H1851 N1844 0.984 . S
H1852 N1840 0.984 . S
H1853 N1840 0.985 . S
C1854 C1855 1.363 . S
C1854 C1860 1.379 1_556 S
C1854 N1862 1.356 . S
C1855 C1854 1.363 . S
C1855 C1861 1.363 1_445 S
C1856 C1857 1.363 . S
C1856 C1861 1.379 1_554 S
C1856 N1863 1.356 . S
C1857 C1856 1.363 . S
C1857 C1860 1.363 1_665 S
N1858 C1860 1.356 . S
N1858 H1870 0.984 . S
N1858 H1871 0.985 1_455 S
N1859 C1861 1.356 . S
N1859 H1864 0.984 1_655 S
N1859 H1865 0.985 . S
C1860 C1854 1.379 1_554 S
C1860 C1857 1.363 1_445 S
C1860 N1858 1.356 . S
C1861 C1855 1.363 1_665 S
C1861 C1856 1.379 1_556 S
C1861 N1859 1.356 . S
N1862 C1854 1.356 . S
N1862 H1868 0.984 . S
N1862 H1869 0.984 . S
N1863 C1856 1.356 . S
N1863 H1866 0.984 . S
N1863 H1867 0.985 . S
H1864 N1859 0.984 1_455 S
H1865 N1859 0.985 . S
H1866 N1863 0.984 . S
H1867 N1863 0.985 . S
H1868 N1862 0.984 . S
H1869 N1862 0.984 . S
H1870 N1858 0.984 . S
H1871 N1858 0.985 1_655 S
C1872 C1873 1.363 . S
C1872 C1878 1.379 . S
C1872 N1880 1.356 . S
C1873 C1872 1.363 . S
C1873 C1879 1.363 . S
C1874 C1875 1.363 . S
C1874 C1879 1.379 . S
C1874 N1881 1.356 . S
C1875 C1874 1.363 . S
C1875 C1878 1.363 . S
N1876 C1878 1.356 . S
N1876 H1888 0.984 . S
N1876 H1889 0.985 . S
N1877 C1879 1.356 . S
N1877 H1882 0.984 . S
N1877 H1883 0.985 . S
C1878 C1872 1.379 . S
C1878 C1875 1.363 . S
C1878 N1876 1.356 . S
C1879 C1873 1.363 . S
C1879 C1874 1.379 . S
C1879 N1877 1.356 . S
N1880 C1872 1.356 . S
N1880 H1886 0.984 . S
N1880 H1887 0.984 . S
N1881 C1874 1.356 . S
N1881 H1884 0.984 . S
N1881 H1885 0.985 . S
H1882 N1877 0.984 . S
H1883 N1877 0.985 . S
H1884 N1881 0.984 . S
H1885 N1881 0.985 . S
H1886 N1880 0.984 . S
H1887 N1880 0.984 . S
H1888 N1876 0.984 . S
H1889 N1876 0.985 . S
C1890 C1891 1.363 . S
C1890 C1896 1.379 . S
C1890 N1898 1.356 . S
C1891 C1890 1.363 . S
C1891 C1897 1.363 . S
C1892 C1893 1.363 . S
C1892 C1897 1.379 . S
C1892 N1899 1.356 . S
C1893 C1892 1.363 . S
C1893 C1896 1.363 . S
N1894 C1896 1.356 . S
N1894 H1906 0.984 . S
N1894 H1907 0.985 . S
N1895 C1897 1.356 . S
N1895 H1900 0.984 . S
N1895 H1901 0.985 . S
C1896 C1890 1.379 . S
C1896 C1893 1.363 . S
C1896 N1894 1.356 . S
C1897 C1891 1.363 . S
C1897 C1892 1.379 . S
C1897 N1895 1.356 . S
N1898 C1890 1.356 . S
N1898 H1904 0.984 . S
N1898 H1905 0.984 . S
N1899 C1892 1.356 . S
N1899 H1902 0.984 . S
N1899 H1903 0.985 . S
H1900 N1895 0.984 . S
H1901 N1895 0.985 . S
H1902 N1899 0.984 . S
H1903 N1899 0.985 . S
H1904 N1898 0.984 . S
H1905 N1898 0.984 . S
H1906 N1894 0.984 . S
H1907 N1894 0.985 . S
C1908 C1909 1.363 . S
C1908 C1914 1.379 . S
C1908 N1916 1.356 . S
C1909 C1908 1.363 . S
C1909 C1915 1.363 . S
C1910 C1911 1.363 . S
C1910 C1915 1.379 . S
C1910 N1917 1.356 . S
C1911 C1910 1.363 . S
C1911 C1914 1.363 . S
N1912 C1914 1.356 . S
N1912 H1924 0.984 . S
N1912 H1925 0.985 . S
N1913 C1915 1.356 . S
N1913 H1918 0.984 . S
N1913 H1919 0.985 . S
C1914 C1908 1.379 . S
C1914 C1911 1.363 . S
C1914 N1912 1.356 . S
C1915 C1909 1.363 . S
C1915 C1910 1.379 . S
C1915 N1913 1.356 . S
N1916 C1908 1.356 . S
N1916 H1922 0.984 . S
N1916 H1923 0.984 . S
N1917 C1910 1.356 . S
N1917 H1920 0.984 . S
N1917 H1921 0.985 . S
H1918 N1913 0.984 . S
H1919 N1913 0.985 . S
H1920 N1917 0.984 . S
H1921 N1917 0.985 . S
H1922 N1916 0.984 . S
H1923 N1916 0.984 . S
H1924 N1912 0.984 . S
H1925 N1912 0.985 . S
C1926 C1927 1.363 . S
C1926 C1932 1.379 . S
C1926 N1934 1.356 . S
C1927 C1926 1.363 . S
C1927 C1933 1.363 . S
C1928 C1929 1.363 . S
C1928 C1933 1.379 . S
C1928 N1935 1.356 . S
C1929 C1928 1.363 . S
C1929 C1932 1.363 . S
N1930 C1932 1.356 . S
N1930 H1942 0.984 . S
N1930 H1943 0.985 . S
N1931 C1933 1.356 . S
N1931 H1936 0.984 . S
N1931 H1937 0.985 . S
C1932 C1926 1.379 . S
C1932 C1929 1.363 . S
C1932 N1930 1.356 . S
C1933 C1927 1.363 . S
C1933 C1928 1.379 . S
C1933 N1931 1.356 . S
N1934 C1926 1.356 . S
N1934 H1940 0.984 . S
N1934 H1941 0.984 . S
N1935 C1928 1.356 . S
N1935 H1938 0.984 . S
N1935 H1939 0.985 . S
H1936 N1931 0.984 . S
H1937 N1931 0.985 . S
H1938 N1935 0.984 . S
H1939 N1935 0.985 . S
H1940 N1934 0.984 . S
H1941 N1934 0.984 . S
H1942 N1930 0.984 . S
H1943 N1930 0.985 . S
C1944 C1945 1.363 . S
C1944 C1950 1.379 1_554 S
C1944 N1952 1.356 . S
C1945 C1944 1.363 . S
C1945 C1951 1.363 . S
C1946 C1947 1.363 . S
C1946 C1951 1.379 1_556 S
C1946 N1953 1.356 . S
C1947 C1946 1.363 . S
C1947 C1950 1.363 . S
N1948 C1950 1.356 . S
N1948 H1960 0.984 . S
N1948 H1961 0.985 . S
N1949 C1951 1.356 . S
N1949 H1954 0.984 . S
N1949 H1955 0.985 . S
C1950 C1944 1.379 1_556 S
C1950 C1947 1.363 . S
C1950 N1948 1.356 . S
C1951 C1945 1.363 . S
C1951 C1946 1.379 1_554 S
C1951 N1949 1.356 . S
N1952 C1944 1.356 . S
N1952 H1958 0.984 . S
N1952 H1959 0.984 . S
N1953 C1946 1.356 . S
N1953 H1956 0.984 . S
N1953 H1957 0.985 . S
H1954 N1949 0.984 . S
H1955 N1949 0.985 . S
H1956 N1953 0.984 . S
H1957 N1953 0.985 . S
H1958 N1952 0.984 . S
H1959 N1952 0.984 . S
H1960 N1948 0.984 . S
H1961 N1948 0.985 . S
C1962 C1963 1.363 . S
C1962 C1968 1.379 . S
C1962 N1970 1.356 . S
C1963 C1962 1.363 . S
C1963 C1969 1.363 1_455 S
C1964 C1965 1.363 . S
C1964 C1969 1.379 . S
C1964 N1971 1.356 . S
C1965 C1964 1.363 . S
C1965 C1968 1.363 1_655 S
N1966 C1968 1.356 . S
N1966 H1978 0.984 . S
N1966 H1979 0.985 . S
N1967 C1969 1.356 . S
N1967 H1972 0.984 . S
N1967 H1973 0.985 . S
C1968 C1962 1.379 . S
C1968 C1965 1.363 1_455 S
C1968 N1966 1.356 . S
C1969 C1963 1.363 1_655 S
C1969 C1964 1.379 . S
C1969 N1967 1.356 . S
N1970 C1962 1.356 . S
N1970 H1976 0.984 . S
N1970 H1977 0.984 . S
N1971 C1964 1.356 . S
N1971 H1974 0.984 . S
N1971 H1975 0.985 . S
H1972 N1967 0.984 . S
H1973 N1967 0.985 . S
H1974 N1971 0.984 . S
H1975 N1971 0.985 . S
H1976 N1970 0.984 . S
H1977 N1970 0.984 . S
H1978 N1966 0.984 . S
H1979 N1966 0.985 . S
C1980 C1981 1.363 1_655 S
C1980 C1986 1.379 1_554 S
C1980 N1988 1.356 . S
C1981 C1980 1.363 1_455 S
C1981 C1987 1.363 . S
C1982 C1983 1.363 1_455 S
C1982 C1987 1.379 1_556 S
C1982 N1989 1.356 . S
C1983 C1982 1.363 1_655 S
C1983 C1986 1.363 . S
N1984 C1986 1.356 . S
N1984 H1996 0.984 . S
N1984 H1997 0.985 . S
N1985 C1987 1.356 . S
N1985 H1990 0.984 . S
N1985 H1991 0.985 . S
C1986 C1980 1.379 1_556 S
C1986 C1983 1.363 . S
C1986 N1984 1.356 . S
C1987 C1981 1.363 . S
C1987 C1982 1.379 1_554 S
C1987 N1985 1.356 . S
N1988 C1980 1.356 . S
N1988 H1994 0.984 . S
N1988 H1995 0.984 . S
N1989 C1982 1.356 . S
N1989 H1992 0.984 . S
N1989 H1993 0.985 . S
H1990 N1985 0.984 . S
H1991 N1985 0.985 . S
H1992 N1989 0.984 . S
H1993 N1989 0.985 . S
H1994 N1988 0.984 . S
H1995 N1988 0.984 . S
H1996 N1984 0.984 . S
H1997 N1984 0.985 . S
C1998 C1999 1.363 . S
C1998 C2004 1.379 . S
C1998 N2006 1.356 . S
C1999 C1998 1.363 . S
C1999 C2005 1.363 . S
C2000 C2001 1.363 . S
C2000 C2005 1.379 . S
C2000 N2007 1.356 . S
C2001 C2000 1.363 . S
C2001 C2004 1.363 . S
N2002 C2004 1.356 . S
N2002 H2014 0.984 . S
N2002 H2015 0.985 . S
N2003 C2005 1.356 . S
N2003 H2008 0.984 . S
N2003 H2009 0.985 . S
C2004 C1998 1.379 . S
C2004 C2001 1.363 . S
C2004 N2002 1.356 . S
C2005 C1999 1.363 . S
C2005 C2000 1.379 . S
C2005 N2003 1.356 . S
N2006 C1998 1.356 . S
N2006 H2012 0.984 . S
N2006 H2013 0.984 . S
N2007 C2000 1.356 . S
N2007 H2010 0.984 . S
N2007 H2011 0.985 . S
H2008 N2003 0.984 . S
H2009 N2003 0.985 . S
H2010 N2007 0.984 . S
H2011 N2007 0.985 . S
H2012 N2006 0.984 . S
H2013 N2006 0.984 . S
H2014 N2002 0.984 . S
H2015 N2002 0.985 . S
C2016 C2017 1.363 . S
C2016 C2022 1.379 . S
C2016 N2024 1.356 . S
C2017 C2016 1.363 . S
C2017 C2023 1.363 . S
C2018 C2019 1.363 . S
C2018 C2023 1.379 . S
C2018 N2025 1.356 . S
C2019 C2018 1.363 . S
C2019 C2022 1.363 . S
N2020 C2022 1.356 . S
N2020 H2032 0.984 1_545 S
N2020 H2033 0.985 . S
N2021 C2023 1.356 . S
N2021 H2026 0.984 . S
N2021 H2027 0.985 . S
C2022 C2016 1.379 . S
C2022 C2019 1.363 . S
C2022 N2020 1.356 . S
C2023 C2017 1.363 . S
C2023 C2018 1.379 . S
C2023 N2021 1.356 . S
N2024 C2016 1.356 . S
N2024 H2030 0.984 . S
N2024 H2031 0.984 . S
N2025 C2018 1.356 . S
N2025 H2028 0.984 . S
N2025 H2029 0.985 . S
H2026 N2021 0.984 . S
H2027 N2021 0.985 . S
H2028 N2025 0.984 . S
H2029 N2025 0.985 . S
H2030 N2024 0.984 . S
H2031 N2024 0.984 . S
H2032 N2020 0.984 1_565 S
H2033 N2020 0.985 . S
C2034 C2035 1.363 . S
C2034 C2040 1.379 . S
C2034 N2042 1.356 . S
C2035 C2034 1.363 . S
C2035 C2041 1.363 . S
C2036 C2037 1.363 . S
C2036 C2041 1.379 . S
C2036 N2043 1.356 . S
C2037 C2036 1.363 . S
C2037 C2040 1.363 . S
N2038 C2040 1.356 . S
N2038 H2050 0.984 . S
N2038 H2051 0.985 . S
N2039 C2041 1.356 . S
N2039 H2044 0.984 . S
N2039 H2045 0.985 . S
C2040 C2034 1.379 . S
C2040 C2037 1.363 . S
C2040 N2038 1.356 . S
C2041 C2035 1.363 . S
C2041 C2036 1.379 . S
C2041 N2039 1.356 . S
N2042 C2034 1.356 . S
N2042 H2048 0.984 . S
N2042 H2049 0.984 . S
N2043 C2036 1.356 . S
N2043 H2046 0.984 . S
N2043 H2047 0.985 . S
H2044 N2039 0.984 . S
H2045 N2039 0.985 . S
H2046 N2043 0.984 . S
H2047 N2043 0.985 . S
H2048 N2042 0.984 . S
H2049 N2042 0.984 . S
H2050 N2038 0.984 . S
H2051 N2038 0.985 . S
C2052 C2053 1.363 . S
C2052 C2058 1.379 . S
C2052 N2060 1.356 . S
C2053 C2052 1.363 . S
C2053 C2059 1.363 . S
C2054 C2055 1.363 . S
C2054 C2059 1.379 . S
C2054 N2061 1.356 . S
C2055 C2054 1.363 . S
C2055 C2058 1.363 . S
N2056 C2058 1.356 . S
N2056 H2068 0.984 . S
N2056 H2069 0.985 . S
N2057 C2059 1.356 . S
N2057 H2062 0.984 . S
N2057 H2063 0.985 . S
C2058 C2052 1.379 . S
C2058 C2055 1.363 . S
C2058 N2056 1.356 . S
C2059 C2053 1.363 . S
C2059 C2054 1.379 . S
C2059 N2057 1.356 . S
N2060 C2052 1.356 . S
N2060 H2066 0.984 . S
N2060 H2067 0.984 . S
N2061 C2054 1.356 . S
N2061 H2064 0.984 . S
N2061 H2065 0.985 . S
H2062 N2057 0.984 . S
H2063 N2057 0.985 . S
H2064 N2061 0.984 . S
H2065 N2061 0.985 . S
H2066 N2060 0.984 . S
H2067 N2060 0.984 . S
H2068 N2056 0.984 . S
H2069 N2056 0.985 . S
C2070 C2071 1.363 . S
C2070 C2076 1.379 . S
C2070 N2078 1.356 . S
C2071 C2070 1.363 . S
C2071 C2077 1.363 . S
C2072 C2073 1.363 . S
C2072 C2077 1.379 . S
C2072 N2079 1.356 . S
C2073 C2072 1.363 . S
C2073 C2076 1.363 . S
N2074 C2076 1.356 . S
N2074 H2086 0.976 1_565 S
N2074 H2087 0.985 . S
N2075 C2077 1.356 . S
N2075 H2080 0.984 . S
N2075 H2081 0.985 . S
C2076 C2070 1.379 . S
C2076 C2073 1.363 . S
C2076 N2074 1.356 . S
C2077 C2071 1.363 . S
C2077 C2072 1.379 . S
C2077 N2075 1.356 . S
N2078 C2070 1.356 . S
N2078 H2084 0.984 . S
N2078 H2085 0.984 . S
N2079 C2072 1.356 . S
N2079 H2082 0.984 . S
N2079 H2083 0.985 . S
H2080 N2075 0.984 . S
H2081 N2075 0.985 . S
H2082 N2079 0.984 . S
H2083 N2079 0.985 . S
H2084 N2078 0.984 . S
H2085 N2078 0.984 . S
H2086 N2074 0.976 1_545 S
H2087 N2074 0.985 . S
C2088 C2089 1.363 . S
C2088 C2094 1.379 . S
C2088 N2096 1.356 . S
C2089 C2088 1.363 . S
C2089 C2095 1.363 . S
C2090 C2091 1.363 . S
C2090 C2095 1.379 . S
C2090 N2097 1.356 . S
C2091 C2090 1.363 . S
C2091 C2094 1.363 . S
N2092 C2094 1.356 . S
N2092 H2104 0.984 . S
N2092 H2105 0.985 . S
N2093 C2095 1.356 . S
N2093 H2098 0.984 . S
N2093 H2099 0.985 . S
C2094 C2088 1.379 . S
C2094 C2091 1.363 . S
C2094 N2092 1.356 . S
C2095 C2089 1.363 . S
C2095 C2090 1.379 . S
C2095 N2093 1.356 . S
N2096 C2088 1.356 . S
N2096 H2102 0.984 . S
N2096 H2103 0.984 . S
N2097 C2090 1.356 . S
N2097 H2100 0.984 . S
N2097 H2101 0.985 . S
H2098 N2093 0.984 . S
H2099 N2093 0.985 . S
H2100 N2097 0.984 . S
H2101 N2097 0.985 . S
H2102 N2096 0.984 . S
H2103 N2096 0.984 . S
H2104 N2092 0.984 . S
H2105 N2092 0.985 . S
C2106 C2107 1.363 . S
C2106 C2112 1.379 . S
C2106 N2114 1.356 . S
C2107 C2106 1.363 . S
C2107 C2113 1.363 . S
C2108 C2109 1.363 . S
C2108 C2113 1.379 . S
C2108 N2115 1.356 . S
C2109 C2108 1.363 . S
C2109 C2112 1.363 . S
N2110 C2112 1.356 . S
N2110 H2122 0.984 . S
N2110 H2123 0.985 . S
N2111 C2113 1.356 . S
N2111 H2116 0.984 . S
N2111 H2117 0.985 . S
C2112 C2106 1.379 . S
C2112 C2109 1.363 . S
C2112 N2110 1.356 . S
C2113 C2107 1.363 . S
C2113 C2108 1.379 . S
C2113 N2111 1.356 . S
N2114 C2106 1.356 . S
N2114 H2120 0.984 . S
N2114 H2121 0.984 . S
N2115 C2108 1.356 . S
N2115 H2118 0.984 . S
N2115 H2119 0.985 . S
H2116 N2111 0.984 . S
H2117 N2111 0.985 . S
H2118 N2115 0.984 . S
H2119 N2115 0.985 . S
H2120 N2114 0.984 . S
H2121 N2114 0.984 . S
H2122 N2110 0.984 . S
H2123 N2110 0.985 . S
C2124 C2125 1.363 . S
C2124 C2130 1.379 . S
C2124 N2132 1.356 . S
C2125 C2124 1.363 . S
C2125 C2131 1.363 . S
C2126 C2127 1.363 . S
C2126 C2131 1.379 . S
C2126 N2133 1.356 . S
C2127 C2126 1.363 . S
C2127 C2130 1.363 . S
N2128 C2130 1.356 . S
N2128 H2140 0.984 . S
N2128 H2141 0.985 . S
N2129 C2131 1.356 . S
N2129 H2134 0.984 . S
N2129 H2135 0.985 . S
C2130 C2124 1.379 . S
C2130 C2127 1.363 . S
C2130 N2128 1.356 . S
C2131 C2125 1.363 . S
C2131 C2126 1.379 . S
C2131 N2129 1.356 . S
N2132 C2124 1.356 . S
N2132 H2138 0.984 . S
N2132 H2139 0.984 . S
N2133 C2126 1.356 . S
N2133 H2136 0.984 . S
N2133 H2137 0.985 . S
H2134 N2129 0.984 . S
H2135 N2129 0.985 . S
H2136 N2133 0.984 . S
H2137 N2133 0.985 . S
H2138 N2132 0.984 . S
H2139 N2132 0.984 . S
H2140 N2128 0.984 . S
H2141 N2128 0.985 . S
C2142 C2143 1.363 . S
C2142 C2148 1.379 . S
C2142 N2150 1.356 . S
C2143 C2142 1.363 . S
C2143 C2149 1.363 . S
C2144 C2145 1.363 . S
C2144 C2149 1.379 . S
C2144 N2151 1.356 . S
C2145 C2144 1.363 . S
C2145 C2148 1.363 . S
N2146 C2148 1.356 . S
N2146 H2158 0.984 . S
N2146 H2159 0.985 . S
N2147 C2149 1.356 . S
N2147 H2152 0.984 . S
N2147 H2153 0.985 . S
C2148 C2142 1.379 . S
C2148 C2145 1.363 . S
C2148 N2146 1.356 . S
C2149 C2143 1.363 . S
C2149 C2144 1.379 . S
C2149 N2147 1.356 . S
N2150 C2142 1.356 . S
N2150 H2156 0.984 . S
N2150 H2157 0.984 . S
N2151 C2144 1.356 . S
N2151 H2154 0.984 . S
N2151 H2155 0.985 . S
H2152 N2147 0.984 . S
H2153 N2147 0.985 . S
H2154 N2151 0.984 . S
H2155 N2151 0.985 . S
H2156 N2150 0.984 . S
H2157 N2150 0.984 . S
H2158 N2146 0.984 . S
H2159 N2146 0.985 . S
C2160 C2161 1.363 . S
C2160 C2166 1.379 . S
C2160 N2168 1.356 . S
C2161 C2160 1.363 . S
C2161 C2167 1.363 . S
C2162 C2163 1.363 . S
C2162 C2167 1.379 . S
C2162 N2169 1.356 . S
C2163 C2162 1.363 . S
C2163 C2166 1.363 . S
N2164 C2166 1.356 . S
N2164 H2176 0.984 . S
N2164 H2177 0.985 . S
N2165 C2167 1.356 . S
N2165 H2170 0.984 . S
N2165 H2171 0.985 . S
C2166 C2160 1.379 . S
C2166 C2163 1.363 . S
C2166 N2164 1.356 . S
C2167 C2161 1.363 . S
C2167 C2162 1.379 . S
C2167 N2165 1.356 . S
N2168 C2160 1.356 . S
N2168 H2174 0.984 . S
N2168 H2175 0.984 . S
N2169 C2162 1.356 . S
N2169 H2172 0.984 . S
N2169 H2173 0.985 . S
H2170 N2165 0.984 . S
H2171 N2165 0.985 . S
H2172 N2169 0.984 . S
H2173 N2169 0.985 . S
H2174 N2168 0.984 . S
H2175 N2168 0.984 . S
H2176 N2164 0.984 . S
H2177 N2164 0.985 . S
C2178 C2179 1.363 . S
C2178 C2184 1.379 . S
C2178 N2186 1.356 . S
C2179 C2178 1.363 . S
C2179 C2185 1.363 . S
C2180 C2181 1.363 . S
C2180 C2185 1.379 . S
C2180 N2187 1.356 . S
C2181 C2180 1.363 . S
C2181 C2184 1.363 . S
N2182 C2184 1.356 . S
N2182 H2194 0.984 . S
N2182 H2195 0.985 . S
N2183 C2185 1.356 . S
N2183 H2188 0.984 . S
N2183 H2189 0.985 . S
C2184 C2178 1.379 . S
C2184 C2181 1.363 . S
C2184 N2182 1.356 . S
C2185 C2179 1.363 . S
C2185 C2180 1.379 . S
C2185 N2183 1.356 . S
N2186 C2178 1.356 . S
N2186 H2192 0.984 . S
N2186 H2193 0.984 . S
N2187 C2180 1.356 . S
N2187 H2190 0.984 . S
N2187 H2191 0.985 . S
H2188 N2183 0.984 . S
H2189 N2183 0.985 . S
H2190 N2187 0.984 . S
H2191 N2187 0.985 . S
H2192 N2186 0.984 . S
H2193 N2186 0.984 . S
H2194 N2182 0.984 . S
H2195 N2182 0.985 . S
C2196 C2197 1.363 . S
C2196 C2202 1.379 . S
C2196 N2204 1.356 . S
C2197 C2196 1.363 . S
C2197 C2203 1.363 . S
C2198 C2199 1.363 . S
C2198 C2203 1.379 . S
C2198 N2205 1.356 . S
C2199 C2198 1.363 . S
C2199 C2202 1.363 . S
N2200 C2202 1.356 . S
N2200 H2212 0.984 . S
N2200 H2213 0.985 . S
N2201 C2203 1.356 . S
N2201 H2206 0.984 . S
N2201 H2207 0.985 . S
C2202 C2196 1.379 . S
C2202 C2199 1.363 . S
C2202 N2200 1.356 . S
C2203 C2197 1.363 . S
C2203 C2198 1.379 . S
C2203 N2201 1.356 . S
N2204 C2196 1.356 . S
N2204 H2210 0.984 . S
N2204 H2211 0.984 . S
N2205 C2198 1.356 . S
N2205 H2208 0.984 . S
N2205 H2209 0.985 . S
H2206 N2201 0.984 . S
H2207 N2201 0.985 . S
H2208 N2205 0.984 . S
H2209 N2205 0.985 . S
H2210 N2204 0.984 . S
H2211 N2204 0.984 . S
H2212 N2200 0.984 . S
H2213 N2200 0.985 . S
C2214 C2215 1.363 . S
C2214 C2220 1.379 . S
C2214 N2222 1.356 . S
C2215 C2214 1.363 . S
C2215 C2221 1.363 . S
C2216 C2217 1.363 . S
C2216 C2221 1.379 . S
C2216 N2223 1.356 . S
C2217 C2216 1.363 . S
C2217 C2220 1.363 . S
N2218 C2220 1.356 . S
N2218 H2230 0.984 . S
N2218 H2231 0.985 . S
N2219 C2221 1.356 . S
N2219 H2224 0.984 . S
N2219 H2225 0.985 . S
C2220 C2214 1.379 . S
C2220 C2217 1.363 . S
C2220 N2218 1.356 . S
C2221 C2215 1.363 . S
C2221 C2216 1.379 . S
C2221 N2219 1.356 . S
N2222 C2214 1.356 . S
N2222 H2228 0.984 . S
N2222 H2229 0.984 . S
N2223 C2216 1.356 . S
N2223 H2226 0.984 . S
N2223 H2227 0.985 . S
H2224 N2219 0.984 . S
H2225 N2219 0.985 . S
H2226 N2223 0.984 . S
H2227 N2223 0.985 . S
H2228 N2222 0.984 . S
H2229 N2222 0.984 . S
H2230 N2218 0.984 . S
H2231 N2218 0.985 . S
C2232 C2233 1.363 . S
C2232 C2238 1.379 . S
C2232 N2240 1.356 . S
C2233 C2232 1.363 . S
C2233 C2239 1.363 . S
C2234 C2235 1.363 . S
C2234 C2239 1.379 . S
C2234 N2241 1.356 . S
C2235 C2234 1.363 . S
C2235 C2238 1.363 . S
N2236 C2238 1.356 . S
N2236 H2248 0.984 . S
N2236 H2249 0.985 . S
N2237 C2239 1.356 . S
N2237 H2242 0.984 . S
N2237 H2243 0.985 . S
C2238 C2232 1.379 . S
C2238 C2235 1.363 . S
C2238 N2236 1.356 . S
C2239 C2233 1.363 . S
C2239 C2234 1.379 . S
C2239 N2237 1.356 . S
N2240 C2232 1.356 . S
N2240 H2246 0.984 . S
N2240 H2247 0.984 . S
N2241 C2234 1.356 . S
N2241 H2244 0.984 . S
N2241 H2245 0.985 . S
H2242 N2237 0.984 . S
H2243 N2237 0.985 . S
H2244 N2241 0.984 . S
H2245 N2241 0.985 . S
H2246 N2240 0.984 . S
H2247 N2240 0.984 . S
H2248 N2236 0.984 . S
H2249 N2236 0.985 . S
C2250 C2251 1.363 . S
C2250 C2256 1.379 . S
C2250 N2258 1.356 . S
C2251 C2250 1.363 . S
C2251 C2257 1.363 . S
C2252 C2253 1.363 . S
C2252 C2257 1.379 . S
C2252 N2259 1.356 . S
C2253 C2252 1.363 . S
C2253 C2256 1.363 . S
N2254 C2256 1.356 . S
N2254 H2266 0.984 . S
N2254 H2267 0.985 . S
N2255 C2257 1.356 . S
N2255 H2260 0.984 . S
N2255 H2261 0.985 . S
C2256 C2250 1.379 . S
C2256 C2253 1.363 . S
C2256 N2254 1.356 . S
C2257 C2251 1.363 . S
C2257 C2252 1.379 . S
C2257 N2255 1.356 . S
N2258 C2250 1.356 . S
N2258 H2264 0.984 . S
N2258 H2265 0.984 . S
N2259 C2252 1.356 . S
N2259 H2262 0.984 . S
N2259 H2263 0.985 . S
H2260 N2255 0.984 . S
H2261 N2255 0.985 . S
H2262 N2259 0.984 . S
H2263 N2259 0.985 . S
H2264 N2258 0.984 . S
H2265 N2258 0.984 . S
H2266 N2254 0.984 . S
H2267 N2254 0.985 . S
C2268 C2269 1.363 . S
C2268 C2274 1.379 . S
C2268 N2276 1.356 . S
C2269 C2268 1.363 . S
C2269 C2275 1.363 . S
C2270 C2271 1.363 . S
C2270 C2275 1.379 . S
C2270 N2277 1.356 . S
C2271 C2270 1.363 . S
C2271 C2274 1.363 . S
N2272 C2274 1.356 . S
N2272 H2284 0.984 . S
N2272 H2285 0.985 . S
N2273 C2275 1.356 . S
N2273 H2278 0.984 . S
N2273 H2279 0.985 . S
C2274 C2268 1.379 . S
C2274 C2271 1.363 . S
C2274 N2272 1.356 . S
C2275 C2269 1.363 . S
C2275 C2270 1.379 . S
C2275 N2273 1.356 . S
N2276 C2268 1.356 . S
N2276 H2282 0.984 . S
N2276 H2283 0.984 . S
N2277 C2270 1.356 . S
N2277 H2280 0.984 . S
N2277 H2281 0.985 . S
H2278 N2273 0.984 . S
H2279 N2273 0.985 . S
H2280 N2277 0.984 . S
H2281 N2277 0.985 . S
H2282 N2276 0.984 . S
H2283 N2276 0.984 . S
H2284 N2272 0.984 . S
H2285 N2272 0.985 . S
C2286 C2287 1.363 . S
C2286 C2292 1.379 . S
C2286 N2294 1.356 . S
C2287 C2286 1.363 . S
C2287 C2293 1.363 . S
C2288 C2289 1.363 . S
C2288 C2293 1.379 . S
C2288 N2295 1.356 . S
C2289 C2288 1.363 . S
C2289 C2292 1.363 . S
N2290 C2292 1.356 . S
N2290 H2302 0.984 . S
N2290 H2303 0.985 . S
N2291 C2293 1.356 . S
N2291 H2296 0.984 . S
N2291 H2297 0.985 . S
C2292 C2286 1.379 . S
C2292 C2289 1.363 . S
C2292 N2290 1.356 . S
C2293 C2287 1.363 . S
C2293 C2288 1.379 . S
C2293 N2291 1.356 . S
N2294 C2286 1.356 . S
N2294 H2300 0.984 . S
N2294 H2301 0.984 . S
N2295 C2288 1.356 . S
N2295 H2298 0.984 . S
N2295 H2299 0.985 . S
H2296 N2291 0.984 . S
H2297 N2291 0.985 . S
H2298 N2295 0.984 . S
H2299 N2295 0.985 . S
H2300 N2294 0.984 . S
H2301 N2294 0.984 . S
H2302 N2290 0.984 . S
H2303 N2290 0.985 . S
C1153 C974 1.398 . S
C1155 C4 1.358 . S
C1171 C40 1.358 . S
C1173 C290 1.398 . S
C1189 C902 1.398 . S
C1191 C76 1.358 . S
C1207 C112 1.358 . S
C1209 C362 1.398 . S
C1225 C148 1.358 . S
C1227 C1046 1.398 . S
C1243 C184 1.358 . S
C1245 C506 1.398 . S
C1261 C220 1.358 . S
C1263 C1118 1.398 . S
C1279 C256 1.358 . S
C1281 C434 1.398 . S
C1297 C686 1.354 . S
C1299 C291 1.349 . S
C1315 C2 1.354 . S
C1317 C327 1.349 . S
C1333 C614 1.354 . S
C1335 C363 1.348 . S
C1351 C399 1.349 . S
C1353 C74 1.354 . S
C1369 C758 1.354 . S
C1371 C435 1.349 . S
C1387 C218 1.354 . S
C1389 C471 1.348 . S
C1405 C507 1.349 . S
C1407 C830 1.354 . S
C1423 C146 1.354 . S
C1425 C543 1.349 . S
C1441 C580 1.358 . S
C1443 C398 1.398 . S
C1459 C616 1.358 . S
C1461 C866 1.398 . S
C1477 C326 1.398 . S
C1479 C652 1.358 . S
C1495 C938 1.398 . S
C1497 C688 1.358 . S
C1513 C470 1.398 . S
C1515 C724 1.358 . S
C1531 C1082 1.398 . S
C1533 C760 1.358 . S
C1549 C542 1.398 . S
C1551 C796 1.358 . S
C1567 C832 1.358 . S
C1569 C1010 1.398 . S
C1585 C110 1.354 . S
C1587 C867 1.348 . S
C1603 C903 1.349 . S
C1605 C578 1.354 . S
C1621 C939 1.349 . S
C1623 C38 1.354 . S
C1639 C975 1.349 . S
C1641 C650 1.354 . S
C1657 C1011 1.348 . S
C1659 C182 1.354 . S
C1675 C1047 1.349 . S
C1677 C794 1.354 . S
C1693 C1083 1.349 . S
C1695 C254 1.354 . S
C1711 C1119 1.349 . S
C1713 C722 1.354 . S
C1729 C878 1.497 . S
C1731 C14 1.436 . S
C1747 C50 1.436 . S
C1749 C338 1.497 . S
C1765 C950 1.497 . S
C1767 C86 1.435 . S
C1783 C122 1.436 . S
C1785 C410 1.497 . S
C1801 C1022 1.497 . S
C1803 C158 1.435 . S
C1819 C194 1.436 . S
C1821 C482 1.498 . S
C1837 C1094 1.497 . S
C1839 C230 1.436 . S
C1855 C266 1.435 . S
C1857 C554 1.497 . S
C1873 C302 1.497 . S
C1875 C590 1.435 . S
C1891 C374 1.498 . S
C1893 C662 1.436 . S
C1909 C446 1.497 . S
C1911 C734 1.436 . S
C1927 C518 1.497 . S
C1929 C806 1.436 . S
C1945 C626 1.436 . S
C1947 C914 1.497 . S
C1963 C986 1.497 . S
C1965 C698 1.435 . S
C1981 C1058 1.497 . S
C1983 C770 1.435 . S
C1999 C842 1.436 . S
C2001 C1130 1.497 . S
C2017 C3 1.491 . S
C2019 C183 1.491 . S
C2035 C39 1.491 . S
C2037 C219 1.491 . S
C2053 C75 1.491 . S
C2055 C255 1.491 . S
C2071 C147 1.491 . S
C2073 C111 1.491 . S
C2089 C292 1.389 . S
C2091 C472 1.389 . S
C2107 C328 1.389 . S
C2109 C508 1.389 . S
C2125 C364 1.389 . S
C2127 C544 1.389 . S
C2143 C400 1.389 . S
C2145 C436 1.389 . S
C2161 C579 1.491 . S
C2163 C759 1.491 . S
C2179 C795 1.491 . S
C2181 C615 1.491 . S
C2197 C651 1.491 . S
C2199 C831 1.491 . S
C2215 C687 1.491 . S
C2217 C723 1.491 . S
C2233 C1048 1.389 . S
C2235 C868 1.389 . S
C2251 C904 1.389 . S
C2253 C1084 1.389 . S
C2269 C1120 1.389 . S
C2271 C940 1.389 . S
C2287 C976 1.389 . S
C2289 C1012 1.389 . S
