# Generated by pormake.
# Topology wkb, (5)-cn, num edge types: 1
# Building blocks:
#     Node 0, Type 0, BuildingBlock: BEQFEK_clean_sbu_0, # of connection points: 5
#     Node 1, Type 0, BuildingBlock: BEQFEK_clean_sbu_0, # of connection points: 5
#     Node 2, Type 0, BuildingBlock: BEQFEK_clean_sbu_0, # of connection points: 5
#     Node 3, Type 0, BuildingBlock: BEQFEK_clean_sbu_0, # of connection points: 5
#     Node 4, Type 0, BuildingBlock: BEQFEK_clean_sbu_0, # of connection points: 5
#     Node 5, Type 0, BuildingBlock: BEQFEK_clean_sbu_0, # of connection points: 5
#     Node 6, Type 0, BuildingBlock: BEQFEK_clean_sbu_0, # of connection points: 5
#     Node 7, Type 0, BuildingBlock: BEQFEK_clean_sbu_0, # of connection points: 5
#     Node 8, Type 0, BuildingBlock: BEQFEK_clean_sbu_0, # of connection points: 5
#     Node 9, Type 0, BuildingBlock: BEQFEK_clean_sbu_0, # of connection points: 5
#     Node 10, Type 0, BuildingBlock: BEQFEK_clean_sbu_0, # of connection points: 5
#     Node 11, Type 0, BuildingBlock: BEQFEK_clean_sbu_0, # of connection points: 5
#     Edge 12, Type (0, 0), BuildingBlock: XUDNAN_clean_linker_2, # of connection points: 2
#     Edge 13, Type (0, 0), BuildingBlock: XUDNAN_clean_linker_2, # of connection points: 2
#     Edge 14, Type (0, 0), BuildingBlock: XUDNAN_clean_linker_2, # of connection points: 2
#     Edge 15, Type (0, 0), BuildingBlock: XUDNAN_clean_linker_2, # of connection points: 2
#     Edge 16, Type (0, 0), BuildingBlock: XUDNAN_clean_linker_2, # of connection points: 2
#     Edge 17, Type (0, 0), BuildingBlock: XUDNAN_clean_linker_2, # of connection points: 2
#     Edge 18, Type (0, 0), BuildingBlock: XUDNAN_clean_linker_2, # of connection points: 2
#     Edge 19, Type (0, 0), BuildingBlock: XUDNAN_clean_linker_2, # of connection points: 2
#     Edge 20, Type (0, 0), BuildingBlock: XUDNAN_clean_linker_2, # of connection points: 2
#     Edge 21, Type (0, 0), BuildingBlock: XUDNAN_clean_linker_2, # of connection points: 2
#     Edge 22, Type (0, 0), BuildingBlock: XUDNAN_clean_linker_2, # of connection points: 2
#     Edge 23, Type (0, 0), BuildingBlock: XUDNAN_clean_linker_2, # of connection points: 2
#     Edge 24, Type (0, 0), BuildingBlock: XUDNAN_clean_linker_2, # of connection points: 2
#     Edge 25, Type (0, 0), BuildingBlock: XUDNAN_clean_linker_2, # of connection points: 2
#     Edge 26, Type (0, 0), BuildingBlock: XUDNAN_clean_linker_2, # of connection points: 2
#     Edge 27, Type (0, 0), BuildingBlock: XUDNAN_clean_linker_2, # of connection points: 2
#     Edge 28, Type (0, 0), BuildingBlock: XUDNAN_clean_linker_2, # of connection points: 2
#     Edge 29, Type (0, 0), BuildingBlock: XUDNAN_clean_linker_2, # of connection points: 2
#     Edge 30, Type (0, 0), BuildingBlock: XUDNAN_clean_linker_2, # of connection points: 2
#     Edge 31, Type (0, 0), BuildingBlock: XUDNAN_clean_linker_2, # of connection points: 2
#     Edge 32, Type (0, 0), BuildingBlock: XUDNAN_clean_linker_2, # of connection points: 2
#     Edge 33, Type (0, 0), BuildingBlock: XUDNAN_clean_linker_2, # of connection points: 2
#     Edge 34, Type (0, 0), BuildingBlock: XUDNAN_clean_linker_2, # of connection points: 2
#     Edge 35, Type (0, 0), BuildingBlock: XUDNAN_clean_linker_2, # of connection points: 2
#     Edge 36, Type (0, 0), BuildingBlock: XUDNAN_clean_linker_2, # of connection points: 2
#     Edge 37, Type (0, 0), BuildingBlock: XUDNAN_clean_linker_2, # of connection points: 2
#     Edge 38, Type (0, 0), BuildingBlock: XUDNAN_clean_linker_2, # of connection points: 2
#     Edge 39, Type (0, 0), BuildingBlock: XUDNAN_clean_linker_2, # of connection points: 2
#     Edge 40, Type (0, 0), BuildingBlock: XUDNAN_clean_linker_2, # of connection points: 2
#     Edge 41, Type (0, 0), BuildingBlock: XUDNAN_clean_linker_2, # of connection points: 2
# Relax obj value: 0.115
# Max RMSD: 0.136
# Mean RMSD: 0.136
data_MOF--net-wkb--node1-BEQFEK_clean_sbu_0--edge1-XUDNAN_clean_linker_2
_symmetry_space_group_name_H-M    P1
_symmetry_Int_Tables_number       1
_symmetry_cell_setting            triclinic
loop_
_symmetry_equiv_pos_as_xyz
'x, y, z'
_cell_length_a     43.743233
_cell_length_b     43.803548
_cell_length_c     41.257786
_cell_angle_alpha  89.97709
_cell_angle_beta   89.959034
_cell_angle_gamma 120.17154
loop_
_atom_site_label
_atom_site_type_symbol
_atom_site_fract_x
_atom_site_fract_y
_atom_site_fract_z
_atom_type_partial_charge
Co0 Co 0.0409 0.36735 0.01953 0.0
Co1 Co 0.08704 0.3753 0.08049 0.0
C2 C 1.01387 0.31305 0.07351 0.0
O3 O 1.00836 0.32397 0.04651 0.0
O4 O 0.04324 0.33037 0.08843 0.0
C5 C 1.00468 0.34156 0.95613 0.0
O6 O 0.99678 0.30941 0.96429 0.0
C7 C 0.12338 0.36564 0.13697 0.0
C8 C 0.17387 0.4164 0.13572 0.0
C9 C 0.15612 0.38449 0.15207 0.0
N10 N 0.12242 0.38524 0.1123 0.0
N11 N 0.15248 0.41569 0.11203 0.0
C12 C 0.09238 0.33123 0.14728 0.0
H13 H 0.06776 0.33233 0.14451 0.0
H14 H 0.09056 0.30986 0.13152 0.0
H15 H 0.0946 0.32512 0.17295 0.0
C16 C 0.10178 0.36524 0.98727 0.0
N17 N 0.08607 0.3705 0.01328 0.0
N18 N 0.10469 0.37316 0.03925 0.0
C19 C 0.13184 0.36848 0.03081 0.0
C20 C 0.13111 0.3636 0.9976 0.0
C21 C 0.08733 0.35826 0.95357 0.0
H22 H 0.07878 0.37738 0.94708 0.0
H23 H 0.06431 0.33111 0.95227 0.0
H24 H 0.10745 0.36052 0.93581 0.0
O25 O 0.04581 0.41075 0.04104 0.0
O26 O 0.07666 0.4139 0.08468 0.0
H27 H 0.17406 0.39066 0.06508 0.0
H28 H 0.17169 0.35453 0.04272 0.0
C29 C 0.15562 0.36453 0.05444 0.0
H30 H 0.13965 0.34626 0.07419 0.0
H31 H 0.15855 0.43584 0.09531 0.0
O32 O 1.02094 0.36672 0.97616 0.0
C33 C 0.06043 0.42543 0.0677 0.0
Co34 Co 0.70459 0.03142 0.18121 0.0
Co35 Co 0.72409 0.07146 0.2478 0.0
C36 C 0.7047 0.99492 0.24238 0.0
O37 O 0.70138 0.99398 0.21161 0.0
O38 O 0.71303 0.02287 0.2584 0.0
C39 C 0.68651 0.02192 0.11326 0.0
O40 O 0.66791 0.03697 0.12051 0.0
C41 C 0.76708 0.10376 0.30645 0.0
C42 C 0.74944 0.14124 0.32006 0.0
C43 C 0.77278 0.12995 0.32871 0.0
N44 N 0.74203 0.10037 0.28542 0.0
N45 N 0.73143 0.12264 0.2939 0.0
C46 C 0.78395 0.08129 0.30578 0.0
H47 H 0.76654 0.0558 0.29364 0.0
H48 H 0.80906 0.095 0.29195 0.0
H49 H 0.78986 0.07635 0.33076 0.0
C50 C 0.77531 0.09249 0.16395 0.0
N51 N 0.74877 0.07434 0.1853 0.0
N52 N 0.75678 0.09159 0.21296 0.0
C53 C 0.78845 0.12148 0.20985 0.0
C54 C 0.80121 0.12298 0.17874 0.0
C55 C 0.77695 0.07985 0.1307 0.0
H56 H 0.75731 0.0816 0.11502 0.0
H57 H 0.77031 0.05191 0.13197 0.0
H58 H 0.80355 0.09581 0.11967 0.0
O59 O 0.66402 0.03984 0.18981 0.0
O60 O 0.6789 0.0685 0.23681 0.0
H61 H 0.82681 0.17435 0.22522 0.0
H62 H 0.81754 0.13987 0.254 0.0
C63 C 0.80564 0.14909 0.23554 0.0
H64 H 0.78567 0.15377 0.24746 0.0
H65 H 0.71227 0.12555 0.28149 0.0
O66 O 0.70204 1.01518 0.13582 0.0
C67 C 0.65754 0.05485 0.21321 0.0
Co68 Co 0.66666 0.68149 0.3505 0.0
Co69 Co 0.67406 0.71456 0.41883 0.0
C70 C 0.724 0.69206 0.40013 0.0
O71 O 0.70732 0.68065 0.37332 0.0
O72 O 0.71523 0.70801 0.42067 0.0
C73 C 0.69319 0.69059 0.28588 0.0
O74 O 0.72101 0.71803 0.29847 0.0
C75 C 0.68927 0.75606 0.48035 0.0
C76 C 0.63497 0.74486 0.49077 0.0
C77 C 0.6693 0.76292 0.50226 0.0
N78 N 0.66749 0.73506 0.45685 0.0
N79 N 0.63516 0.72844 0.46342 0.0
C80 C 0.72784 0.76803 0.48229 0.0
H81 H 0.73327 0.74835 0.47088 0.0
H82 H 0.7431 0.79335 0.46902 0.0
H83 H 0.73685 0.77225 0.50788 0.0
C84 C 0.66749 0.74861 0.33175 0.0
N85 N 0.66982 0.7267 0.35349 0.0
N86 N 0.6759 0.74144 0.38227 0.0
C87 C 0.67913 0.77357 0.37969 0.0
C88 C 0.67355 0.77922 0.3476 0.0
C89 C 0.656 0.73906 0.29728 0.0
H90 H 0.63945 0.71003 0.29458 0.0
H91 H 0.67969 0.74887 0.28156 0.0
H92 H 0.64071 0.75159 0.28906 0.0
O93 O 0.62139 0.64361 0.3693 0.0
O94 O 0.63093 0.66727 0.41818 0.0
H95 H 0.66515 0.792 0.42202 0.0
H96 H 0.70065 0.82654 0.39862 0.0
C97 C 0.68903 0.79894 0.40732 0.0
H98 H 0.70859 0.79707 0.42296 0.0
H99 H 0.61314 0.71281 0.44899 0.0
O100 O 0.66744 0.67057 0.30422 0.0
C101 C 0.61217 0.64222 0.39875 0.0
Co102 Co 1.00921 0.67039 0.50892 0.0
Co103 Co 0.97394 0.66666 0.57645 0.0
C104 C 0.04511 0.7264 0.56189 0.0
O105 O 0.04426 0.71345 0.53396 0.0
O106 O 1.01915 0.71143 0.58144 0.0
C107 C 0.03421 0.70865 0.45118 0.0
O108 O 0.03723 0.73331 0.47124 0.0
C109 C 0.93932 0.67731 0.63425 0.0
C110 C 0.90472 0.62164 0.64883 0.0
C111 C 0.91402 0.6559 0.65699 0.0
N112 N 0.94428 0.6564 0.61354 0.0
N113 N 0.92358 0.62324 0.62255 0.0
C114 C 0.95957 0.71681 0.63301 0.0
H115 H 0.98534 0.72649 0.62081 0.0
H116 H 0.94425 0.72621 0.619 0.0
H117 H 0.96398 0.72806 0.65781 0.0
C118 C 0.94023 0.66184 0.48627 0.0
N119 N 0.96296 0.66519 0.51005 0.0
N120 N 0.94903 0.66555 0.53822 0.0
C121 C 0.91737 0.66317 0.53322 0.0
C122 C 0.91072 0.66077 0.5001 0.0
C123 C 0.94741 0.66153 0.4508 0.0
H124 H 0.96131 0.64665 0.44635 0.0
H125 H 0.96409 0.68914 0.44245 0.0
H126 H 0.92302 0.6497 0.43607 0.0
O127 O 1.00828 0.62736 0.5276 0.0
O128 O 0.98588 0.62888 0.5755 0.0
H129 H 0.88661 0.63847 0.57556 0.0
H130 H 0.86825 0.65864 0.55012 0.0
C131 C 0.89318 0.66142 0.55973 0.0
H132 H 0.90686 0.68566 0.57467 0.0
H133 H 0.9222 0.6016 0.61058 0.0
O134 O 0.02479 0.67817 0.46261 0.0
C135 C 0.99851 0.61532 0.55626 0.0
Co136 Co 0.35999 0.997 0.68458 0.0
Co137 Co 0.31732 0.96485 0.74834 0.0
C138 C 0.3446 0.03979 0.73471 0.0
O139 O 0.35864 0.03627 0.70879 0.0
O140 O 0.32571 1.01347 0.75314 0.0
C141 C 0.36398 0.0243 0.62074 0.0
O142 O 0.33728 0.02758 0.63085 0.0
C143 C 0.27433 0.93642 0.80895 0.0
C144 C 0.26797 0.88301 0.80815 0.0
C145 C 0.26033 0.90493 0.82622 0.0
N146 N 0.28957 0.93302 0.78186 0.0
N147 N 0.28543 0.90099 0.78157 0.0
C148 C 0.27565 0.96986 0.81896 0.0
H149 H 0.30206 0.9928 0.81335 0.0
H150 H 0.25574 0.97287 0.80483 0.0
H151 H 0.26999 0.9697 0.8452 0.0
C152 C 0.29434 0.9374 0.65605 0.0
N153 N 0.31416 0.95636 0.68147 0.0
N154 N 0.29497 0.94523 0.70796 0.0
C155 C 0.26166 0.92029 0.70002 0.0
C156 C 0.26 0.91431 0.66668 0.0
C157 C 0.30881 0.93893 0.6228 0.0
H158 H 0.33736 0.94761 0.62407 0.0
H159 H 0.30531 0.95785 0.60766 0.0
H160 H 0.29453 0.91264 0.61097 0.0
O161 O 0.39308 0.986 0.70671 0.0
O162 O 0.3641 0.96719 0.75314 0.0
H163 H 0.22887 0.88056 0.73421 0.0
H164 H 0.20632 0.89839 0.71133 0.0
C165 C 0.2315 0.90503 0.72355 0.0
H166 H 0.23648 0.92405 0.74339 0.0
H167 H 0.29526 0.89167 0.76341 0.0
O168 O 0.37856 1.01314 0.64034 0.0
C169 C 0.39107 0.97511 0.73561 0.0
Co170 Co 0.37072 0.34707 0.85474 0.0
Co171 Co 0.37119 0.30948 0.91827 0.0
C172 C 0.31212 0.3227 0.90414 0.0
O173 O 0.32694 0.33913 0.87802 0.0
O174 O 0.32586 0.30888 0.92175 0.0
C175 C 0.34351 0.35083 0.79258 0.0
O176 O 0.31289 0.32689 0.80461 0.0
C177 C 0.35172 0.25574 0.96925 0.0
C178 C 0.4045 0.2717 0.98937 0.0
C179 C 0.36896 0.24661 0.99216 0.0
N180 N 0.37614 0.28473 0.95356 0.0
N181 N 0.40753 0.2943 0.96591 0.0
C182 C 0.31333 0.23607 0.96058 0.0
H183 H 0.29902 0.24537 0.97625 0.0
H184 H 0.30964 0.24124 0.93496 0.0
H185 H 0.30192 0.20729 0.96447 0.0
C186 C 0.37415 0.2856 0.82616 0.0
N187 N 0.37295 0.30446 0.85158 0.0
N188 N 0.37345 0.28874 0.87859 0.0
C189 C 0.37477 0.25936 0.87125 0.0
C190 C 0.37513 0.25629 0.83777 0.0
C191 C 0.37207 0.29424 0.7914 0.0
H192 H 0.39151 0.32242 0.78668 0.0
H193 H 0.34513 0.28951 0.78654 0.0
H194 H 0.3769 0.27761 0.77438 0.0
O195 O 0.41373 0.38524 0.87634 0.0
O196 O 0.4111 0.35864 0.92277 0.0
H197 H 0.39806 0.25136 0.91365 0.0
H198 H 0.38338 0.21631 0.88439 0.0
C199 C 0.37714 0.23546 0.89579 0.0
H200 H 0.35158 0.22074 0.90881 0.0
H201 H 0.43114 0.31588 0.95783 0.0
O202 O 0.37073 0.36387 0.81055 0.0
C203 C 0.42572 0.38571 0.90454 0.0
Co204 Co 0.68334 1.00337 0.82035 0.0
Co205 Co 0.66253 0.96161 0.75539 0.0
C206 C 0.72546 0.03558 0.76016 0.0
O207 O 0.7208 0.03893 0.79021 0.0
O208 O 0.70485 1.00728 0.745 0.0
C209 C 0.72387 0.03604 0.87818 0.0
O210 O 0.75137 0.04284 0.86017 0.0
C211 C 0.67519 0.92783 0.70031 0.0
C212 C 0.62113 0.89286 0.68185 0.0
C213 C 0.65624 0.9026 0.6769 0.0
N214 N 0.65229 0.93256 0.71829 0.0
N215 N 0.62006 0.91192 0.70693 0.0
C216 C 0.71382 0.94471 0.70769 0.0
H217 H 0.71932 0.95495 0.73288 0.0
H218 H 0.72304 0.92549 0.70426 0.0
H219 H 0.7288 0.96709 0.69081 0.0
C220 C 0.68822 0.93964 0.84095 0.0
N221 N 0.68123 0.95836 0.81903 0.0
N222 N 0.67095 0.94032 0.7918 0.0
C223 C 0.67071 0.90962 0.79565 0.0
C224 C 0.68209 0.90829 0.82671 0.0
C225 C 0.70278 0.95249 0.87412 0.0
H226 H 0.72992 0.97539 0.87189 0.0
H227 H 0.70409 0.93194 0.88871 0.0
H228 H 0.68603 0.96097 0.88697 0.0
O229 O 0.63575 0.9971 0.8098 0.0
O230 O 0.62177 0.96822 0.76303 0.0
H231 H 0.65116 0.85536 0.7818 0.0
H232 H 0.6807 0.88787 0.7533 0.0
C233 C 0.6588 0.88125 0.77053 0.0
H234 H 0.63584 0.87893 0.75708 0.0
H235 H 0.59729 0.91022 0.71681 0.0
O236 O 0.69329 0.02093 0.86549 0.0
C237 C 0.61452 0.98277 0.78612 0.0
Co238 Co 0.69682 0.67458 0.98498 0.0
Co239 Co 0.71776 0.65445 0.91951 0.0
C240 C 0.70924 0.71891 0.92639 0.0
O241 O 0.70091 0.71359 0.95638 0.0
O242 O 0.71605 0.6981 0.9104 0.0
C243 C 0.69681 0.70676 0.04873 0.0
O244 O 0.71856 0.73853 0.03745 0.0
C245 C 0.76247 0.66555 0.86253 0.0
C246 C 0.7433 0.61067 0.84673 0.0
C247 C 0.76769 0.64553 0.8395 0.0
N248 N 0.73624 0.64349 0.8824 0.0
N249 N 0.72471 0.61075 0.87268 0.0
C250 C 0.78385 0.70463 0.8674 0.0
H251 H 0.78124 0.71163 0.8927 0.0
H252 H 0.81211 0.71446 0.86172 0.0
H253 H 0.77408 0.71771 0.85075 0.0
C254 C 0.76456 0.67862 0.00564 0.0
N255 N 0.73892 0.67145 0.98363 0.0
N256 N 0.74696 0.6616 0.95631 0.0
C257 C 0.77776 0.66195 0.96017 0.0
C258 C 0.79018 0.67302 0.99145 0.0
C259 C 0.76612 0.69383 0.03847 0.0
H260 H 0.74211 0.6755 0.05242 0.0
H261 H 0.76664 0.71923 0.03564 0.0
H262 H 0.78988 0.6987 0.05226 0.0
O263 O 0.65495 0.62866 0.97242 0.0
O264 O 0.6692 0.61405 0.92581 0.0
H265 H 0.77513 0.62829 0.92125 0.0
H266 H 0.81507 0.64609 0.94501 0.0
C267 C 0.79522 0.65191 0.93444 0.0
H268 H 0.80876 0.67402 0.917 0.0
H269 H 0.70454 0.58842 0.88411 0.0
O270 O 0.68633 0.68003 0.03045 0.0
C271 C 0.64726 0.60753 0.94866 0.0
Co272 Co 0.03343 0.68804 0.15856 0.0
Co273 Co 0.07806 0.71256 0.0946 0.0
C274 C 1.00504 0.704 0.09904 0.0
O275 O 1.00033 0.69371 0.1285 0.0
O276 O 0.03369 0.71208 0.08423 0.0
C277 C 0.99898 0.69448 0.21527 0.0
O278 O 0.99126 0.71337 0.19577 0.0
C279 C 0.11576 0.76271 0.04236 0.0
C280 C 0.1455 0.73991 0.0196 0.0
C281 C 0.13915 0.76787 0.01723 0.0
N282 N 0.10877 0.7332 0.05847 0.0
N283 N 0.12654 0.71964 0.04472 0.0
C284 C 0.10176 0.78615 0.05255 0.0
H285 H 0.07859 0.78044 0.03735 0.0
H286 H 0.093 0.78106 0.07823 0.0
H287 H 0.12226 0.81434 0.04941 0.0
C288 C 0.09907 0.75093 0.18392 0.0
N289 N 0.07966 0.72939 0.15947 0.0
N290 N 0.09896 0.739 0.13289 0.0
C291 C 0.13127 0.76674 0.13969 0.0
C292 C 0.13238 0.77525 0.17225 0.0
C293 C 0.08554 0.74925 0.21759 0.0
H294 H 0.07652 0.72275 0.22808 0.0
H295 H 0.06287 0.75383 0.21649 0.0
H296 H 0.10568 0.76962 0.23371 0.0
O297 O 0.03746 0.64632 0.14529 0.0
O298 O 0.06823 0.66329 0.0994 0.0
H299 H 0.16158 0.76237 0.10092 0.0
H300 H 0.18714 0.798 0.12889 0.0
C301 C 0.1614 0.7831 0.11618 0.0
H302 H 0.15813 0.80161 0.10021 0.0
H303 H 0.12575 0.69659 0.05252 0.0
O304 O 1.0148 0.67925 0.20371 0.0
C305 C 0.05177 0.64007 0.12117 0.0
Co306 Co 0.386 0.03384 0.31992 0.0
Co307 Co 0.37445 0.06386 0.25573 0.0
C308 C 0.3263 0.98936 0.27194 0.0
O309 O 0.34392 0.99326 0.29789 0.0
O310 O 0.33447 1.01521 0.25284 0.0
C311 C 0.36267 1.00842 0.38368 0.0
O312 O 0.33262 1.00386 0.37223 0.0
C313 C 0.35146 0.08675 0.19767 0.0
C314 C 0.40022 0.13774 0.18826 0.0
C315 C 0.3666 0.11519 0.17652 0.0
N316 N 0.3753 0.09236 0.22089 0.0
N317 N 0.4042 0.12295 0.21522 0.0
C318 C 0.31641 0.05361 0.1947 0.0
H319 H 0.32081 0.0312 0.18983 0.0
H320 H 0.30191 0.04815 0.21802 0.0
H321 H 0.30028 0.05533 0.17483 0.0
C322 C 0.38073 0.09455 0.34689 0.0
N323 N 0.38116 0.07479 0.322 0.0
N324 N 0.37293 0.08522 0.29523 0.0
C325 C 0.36501 0.11053 0.30243 0.0
C326 C 0.36971 0.11746 0.33558 0.0
C327 C 0.39352 0.09371 0.38037 0.0
H328 H 0.41349 0.08523 0.3796 0.0
H329 H 0.37092 0.07494 0.39556 0.0
H330 H 0.40543 0.12019 0.3918 0.0
O331 O 0.42973 0.04395 0.29662 0.0
O332 O 0.41916 0.06252 0.25031 0.0
H333 H 0.37205 0.14786 0.26566 0.0
H334 H 0.33335 0.13422 0.29056 0.0
C335 C 0.35003 0.12516 0.27845 0.0
H336 H 0.33379 0.10475 0.26029 0.0
H337 H 0.42693 0.13339 0.2295 0.0
O338 O 0.3891 0.01964 0.36477 0.0
C339 C 0.43839 0.05475 0.26761 0.0
Co340 Co 0.35434 0.35514 0.49417 0.0
Co341 Co 0.32484 0.36219 0.42791 0.0
C342 C 0.34084 0.30447 0.43882 0.0
O343 O 0.34977 0.31472 0.46802 0.0
O344 O 0.331 0.32063 0.41948 0.0
C345 C 0.35187 0.32579 0.55787 0.0
O346 O 0.32466 0.29647 0.54717 0.0
C347 C 0.28941 0.35605 0.36458 0.0
C348 C 0.27963 0.40067 0.36989 0.0
C349 C 0.27455 0.37375 0.34906 0.0
N350 N 0.30203 0.37166 0.39343 0.0
N351 N 0.29633 0.39842 0.39624 0.0
C352 C 0.294 0.32672 0.35156 0.0
H353 H 0.31901 0.32925 0.36061 0.0
H354 H 0.27176 0.3011 0.36008 0.0
H355 H 0.29446 0.32697 0.32467 0.0
C356 C 0.28899 0.35247 0.51836 0.0
N357 N 0.31118 0.35531 0.49436 0.0
N358 N 0.29658 0.3542 0.46625 0.0
C359 C 0.26344 0.3482 0.47153 0.0
C360 C 0.25748 0.34699 0.50486 0.0
C361 C 0.299 0.3584 0.55347 0.0
H362 H 0.32784 0.37661 0.55609 0.0
H363 H 0.29175 0.33286 0.56515 0.0
H364 H 0.28475 0.36989 0.5662 0.0
O365 O 0.39247 0.40041 0.47825 0.0
O366 O 0.37244 0.40659 0.43094 0.0
H367 H 0.23805 0.36512 0.43768 0.0
H368 H 0.20967 0.3218 0.45415 0.0
C369 C 0.23683 0.34026 0.44532 0.0
H370 H 0.24249 0.32837 0.42409 0.0
H371 H 0.30372 0.41507 0.41636 0.0
O372 O 0.36788 0.35194 0.53886 0.0
C373 C 0.3963 0.4181 0.45268 0.0
Co374 Co 1.00646 0.34498 0.65763 0.0
Co375 Co 0.97546 0.32646 0.58711 0.0
C376 C 0.04564 0.33285 0.60414 0.0
O377 O 0.04299 0.33907 0.63396 0.0
O378 O 1.02189 0.32797 0.58346 0.0
C379 C 1.0227 0.37831 0.72048 0.0
O380 O 0.02811 0.40612 0.7038 0.0
C381 C 0.9449 0.28331 0.52832 0.0
C382 C 0.91249 0.30543 0.51019 0.0
C383 C 0.92092 0.27939 0.50432 0.0
N384 N 0.94997 0.31021 0.5476 0.0
N385 N 0.93094 0.32361 0.53633 0.0
C386 C 0.96022 0.26012 0.53479 0.0
H387 H 0.96858 0.2624 0.56049 0.0
H388 H 0.94071 0.2322 0.529 0.0
H389 H 0.98379 0.26863 0.51915 0.0
C390 C 0.94089 0.27773 0.67202 0.0
N391 N 0.9618 0.30395 0.65141 0.0
N392 N 0.94778 0.29654 0.62225 0.0
C393 C 0.91676 0.26571 0.62369 0.0
C394 C 0.91148 0.25249 0.6552 0.0
C395 C 0.95128 0.27512 0.70606 0.0
H396 H 0.9795 0.28241 0.70666 0.0
H397 H 0.93512 0.24814 0.71613 0.0
H398 H 0.9481 0.29402 0.72158 0.0
O399 O 1.00634 0.38834 0.64187 0.0
O400 O 0.98436 0.37504 0.59227 0.0
H401 H 0.86503 0.23012 0.60399 0.0
H402 H 0.90181 0.23516 0.58017 0.0
C403 C 0.89219 0.24927 0.59562 0.0
H404 H 0.89125 0.26996 0.58095 0.0
H405 H 0.9296 0.34443 0.54716 0.0
O406 O 1.01551 0.35014 0.70544 0.0
C407 C 0.99704 0.39674 0.61563 0.0
H408 H 0.27335 0.42253 0.30966 0.0
H409 H 0.23291 0.30986 0.31801 0.0
H410 H 0.20015 0.30017 0.26673 0.0
H411 H 0.19347 0.4149 0.28284 0.0
H412 H 0.21428 0.45245 0.25604 0.0
H413 H 0.23741 0.4507 0.2914 0.0
H414 H 0.28978 0.45916 0.25545 0.0
H415 H 0.26692 0.4612 0.21996 0.0
H416 H 0.28155 0.42944 0.22208 0.0
H417 H 0.17043 0.30323 0.21476 0.0
H418 H 0.14535 0.31849 0.16802 0.0
H419 H 0.20174 0.42843 0.1975 0.0
C420 C 0.258 0.39581 0.30053 0.0
C421 C 0.25661 0.36709 0.31734 0.0
C422 C 0.23568 0.33248 0.30488 0.0
C423 C 0.21661 0.32667 0.27595 0.0
C424 C 0.2185 0.3557 0.2601 0.0
C425 C 0.23864 0.38957 0.27207 0.0
C426 C 0.23481 0.41614 0.25175 0.0
C427 C 0.21905 0.43462 0.2717 0.0
C428 C 0.27038 0.44306 0.2364 0.0
C429 C 0.20908 0.39194 0.22653 0.0
C430 C 0.20013 0.35722 0.23149 0.0
C431 C 0.17691 0.33027 0.21091 0.0
C432 C 0.16238 0.33912 0.18471 0.0
C433 C 0.17062 0.37447 0.1798 0.0
C434 C 0.19459 0.4011 0.20085 0.0
H435 H 0.76555 0.15833 0.38458 0.0
H436 H 0.84022 0.13931 0.33187 0.0
H437 H 0.8846 0.16992 0.3746 0.0
H438 H 0.8263 0.24464 0.40566 0.0
H439 H 0.80751 0.24302 0.44497 0.0
H440 H 0.77991 0.21477 0.41298 0.0
H441 H 0.76081 0.15982 0.44941 0.0
H442 H 0.78828 0.18797 0.48165 0.0
H443 H 0.79409 0.15235 0.46728 0.0
H444 H 0.92287 0.20778 0.42107 0.0
H445 H 0.95154 0.25077 0.46569 0.0
H446 H 0.85229 0.24668 0.48596 0.0
C447 C 0.79098 0.15991 0.38233 0.0
C448 C 0.79887 0.14529 0.35535 0.0
C449 C 0.83279 0.14872 0.35294 0.0
C450 C 0.85841 0.16647 0.37701 0.0
C451 C 0.84977 0.18082 0.40318 0.0
C452 C 0.81682 0.17771 0.4059 0.0
C453 C 0.81497 0.19807 0.43466 0.0
C454 C 0.8067 0.22683 0.42391 0.0
C455 C 0.78794 0.17305 0.45974 0.0
C456 C 0.85232 0.21395 0.44724 0.0
C457 C 0.87193 0.20333 0.42916 0.0
C458 C 0.90761 0.21586 0.43566 0.0
C459 C 0.92364 0.2401 0.46112 0.0
C460 C 0.90399 0.25168 0.4794 0.0
C461 C 0.86789 0.23816 0.47241 0.0
H462 H 0.63199 0.75151 0.55747 0.0
H463 H 0.72961 0.82764 0.51045 0.0
H464 H 0.74106 0.87017 0.55464 0.0
H465 H 0.605 0.80938 0.57707 0.0
H466 H 0.58524 0.78992 0.61554 0.0
H467 H 0.58842 0.76306 0.58433 0.0
H468 H 0.62252 0.74425 0.62324 0.0
H469 H 0.61898 0.77068 0.65488 0.0
H470 H 0.66176 0.7776 0.64333 0.0
H471 H 0.73656 0.90734 0.59918 0.0
H472 H 0.71769 0.9349 0.64091 0.0
H473 H 0.62262 0.83418 0.65789 0.0
C474 C 0.65637 0.77673 0.55704 0.0
C475 C 0.68029 0.78605 0.53098 0.0
C476 C 0.71152 0.81952 0.53076 0.0
C477 C 0.71808 0.84394 0.55564 0.0
C478 C 0.69322 0.83428 0.58049 0.0
C479 C 0.66318 0.80124 0.58151 0.0
C480 C 0.63869 0.79837 0.60868 0.0
C481 C 0.60221 0.78969 0.59561 0.0
C482 C 0.63531 0.77111 0.63404 0.0
C483 C 0.65885 0.83542 0.62201 0.0
C484 C 0.6905 0.85566 0.60585 0.0
C485 C 0.7123 0.89148 0.61256 0.0
C486 C 0.70146 0.90688 0.63643 0.0
C487 C 0.66906 0.88646 0.65309 0.0
C488 C 0.6477 0.85032 0.64575 0.0
H489 H 0.89011 0.62053 0.71374 0.0
H490 H 0.89992 0.71074 0.66099 0.0
H491 H 0.86876 0.72188 0.70515 0.0
H492 H 0.80353 0.58878 0.73858 0.0
H493 H 0.80857 0.5734 0.77765 0.0
H494 H 0.83631 0.57585 0.74439 0.0
H495 H 0.89221 0.61575 0.77847 0.0
H496 H 0.8646 0.61327 0.81199 0.0
H497 H 0.89744 0.65567 0.7963 0.0
H498 H 0.83124 0.71949 0.75293 0.0
H499 H 0.79001 0.70305 0.79924 0.0
H500 H 0.80344 0.61331 0.81928 0.0
C501 C 0.88636 0.64309 0.71173 0.0
C502 C 0.89844 0.66537 0.68431 0.0
C503 C 0.89233 0.69415 0.68231 0.0
C504 C 0.87429 0.70049 0.70719 0.0
C505 C 0.86243 0.67771 0.73376 0.0
C506 C 0.86829 0.6496 0.73613 0.0
C507 C 0.8504 0.62718 0.76565 0.0
C508 C 0.82308 0.58907 0.75597 0.0
C509 C 0.8778 0.62804 0.78951 0.0
C510 C 0.83271 0.6465 0.77912 0.0
C511 C 0.84032 0.67587 0.76073 0.0
C512 C 0.82562 0.69691 0.76783 0.0
C513 C 0.80242 0.68752 0.79432 0.0
C514 C 0.79409 0.65729 0.81316 0.0
C515 C 0.80959 0.63672 0.80541 0.0
H516 H 0.27271 0.87143 0.87494 0.0
H517 H 0.20634 0.91457 0.84789 0.0
H518 H 0.1706 0.88899 0.89774 0.0
H519 H 0.2068 0.79129 0.90205 0.0
H520 H 0.23128 0.78725 0.93527 0.0
H521 H 0.2544 0.81327 0.9004 0.0
H522 H 0.29145 0.86767 0.93709 0.0
H523 H 0.26867 0.84167 0.97224 0.0
H524 H 0.26927 0.88244 0.9643 0.0
H525 H 0.13711 0.85055 0.94604 0.0
H526 H 0.11122 0.80657 0.98981 0.0
H527 H 0.20186 0.7914 0.98629 0.0
C528 C 0.2512 0.87627 0.87999 0.0
C529 C 0.2424 0.89524 0.85796 0.0
C530 C 0.21386 0.90071 0.86495 0.0
C531 C 0.19338 0.88613 0.89307 0.0
C532 C 0.20226 0.86669 0.91396 0.0
C533 C 0.23091 0.8623 0.90795 0.0
C534 C 0.23374 0.83846 0.93278 0.0
C535 C 0.23139 0.80564 0.91665 0.0
C536 C 0.2678 0.85878 0.95279 0.0
C537 C 0.2014 0.82888 0.95307 0.0
C538 C 0.18366 0.84556 0.9421 0.0
C539 C 0.15141 0.83827 0.95549 0.0
C540 C 0.13702 0.81338 0.9807 0.0
C541 C 0.15501 0.79624 0.99243 0.0
C542 C 0.18768 0.80442 0.97835 0.0
H543 H 0.40021 0.20959 0.00973 0.0
H544 H 0.30696 0.2178 0.02738 0.0
H545 H 0.28931 0.17396 0.07161 0.0
H546 H 0.3612 0.11376 0.03331 0.0
H547 H 0.40224 0.12298 0.05192 0.0
H548 H 0.40263 0.14809 0.01712 0.0
H549 H 0.43931 0.20614 0.04948 0.0
H550 H 0.43893 0.18134 0.08423 0.0
H551 H 0.42257 0.21165 0.08766 0.0
H552 H 0.28811 0.13797 0.12005 0.0
H553 H 0.30441 0.11505 0.16803 0.0
H554 H 0.39889 0.13183 0.11851 0.0
C555 C 0.37547 0.20129 0.02224 0.0
C556 C 0.35463 0.21653 0.01486 0.0
C557 C 0.32278 0.20564 0.03205 0.0
C558 C 0.31263 0.18083 0.05728 0.0
C559 C 0.33448 0.16705 0.06464 0.0
C560 C 0.36512 0.17676 0.04731 0.0
C561 C 0.38665 0.16225 0.06236 0.0
C562 C 0.38825 0.13515 0.03983 0.0
C563 C 0.42403 0.19212 0.07148 0.0
C564 C 0.36451 0.14461 0.092 0.0
C565 C 0.33401 0.14673 0.09261 0.0
C566 C 0.31138 0.13528 0.11939 0.0
C567 C 0.3207 0.1222 0.14645 0.0
C568 C 0.35251 0.12124 0.14643 0.0
C569 C 0.37408 0.13174 0.11866 0.0
H570 H 0.0603 0.4803 0.03456 0.0
H571 H 0.05264 0.43701 0.13079 0.0
H572 H 0.04701 0.48566 0.15438 0.0
H573 H 0.11471 0.57087 0.05884 0.0
H574 H 0.0948 0.58773 0.03123 0.0
H575 H 0.09564 0.54812 0.02133 0.0
H576 H 0.02756 0.51427 0.01445 0.0
H577 H 0.02652 0.5538 0.02433 0.0
H578 H 1.00008 0.5139 0.04721 0.0
H579 H 0.0415 0.53817 0.16776 0.0
H580 H 0.04194 0.59466 0.17069 0.0
H581 H 0.05786 0.60729 0.06657 0.0
C582 C 0.05709 0.48099 0.06053 0.0
C583 C 0.05664 0.45478 0.08087 0.0
C584 C 0.05308 0.45685 0.1148 0.0
C585 C 0.04972 0.48429 0.12843 0.0
C586 C 0.05049 0.50986 0.10786 0.0
C587 C 0.05452 0.50881 0.0747 0.0
C588 C 0.05672 0.54097 0.05847 0.0
C589 C 0.0926 0.56324 0.04147 0.0
C590 C 0.02588 0.53007 0.03471 0.0
C591 C 0.05328 0.5601 0.08769 0.0
C592 C 0.04918 0.54136 0.11585 0.0
C593 C 0.04485 0.55321 0.1459 0.0
C594 C 0.04503 0.58528 0.14731 0.0
C595 C 0.0501 0.60548 0.11893 0.0
C596 C 0.05421 0.59257 0.08873 0.0
H597 H 0.49553 0.05811 0.29894 0.0
H598 H 0.4533 0.05534 0.20313 0.0
H599 H 0.5047 0.05522 0.17846 0.0
H600 H 0.58748 0.11706 0.27737 0.0
H601 H 0.60364 0.09542 0.30367 0.0
H602 H 0.56346 0.09525 0.3137 0.0
H603 H 0.52988 0.02689 0.31664 0.0
H604 H 0.56991 0.02685 0.30653 0.0
H605 H 0.53078 1.00197 0.28225 0.0
H606 H 0.55932 0.05173 0.1643 0.0
H607 H 0.61539 0.05062 0.16196 0.0
H608 H 0.62338 0.05951 0.26674 0.0
C609 C 0.49715 0.0576 0.27277 0.0
C610 C 0.4703 0.05661 0.25299 0.0
C611 C 0.47358 0.05623 0.21881 0.0
C612 C 0.50263 0.05603 0.20455 0.0
C613 C 0.52848 0.05672 0.22474 0.0
C614 C 0.52626 0.05799 0.2581 0.0
C615 C 0.5579 0.05923 0.27434 0.0
C616 C 0.57939 0.0938 0.29339 0.0
C617 C 0.54642 0.0268 0.29622 0.0
C618 C 0.57807 0.0581 0.24494 0.0
C619 C 0.56056 0.05632 0.21653 0.0
C620 C 0.57347 0.05354 0.18638 0.0
C621 C 0.60524 0.05281 0.18526 0.0
C622 C 0.62394 0.05538 0.21408 0.0
C623 C 0.61002 0.05808 0.24421 0.0
H624 H 0.55796 0.58602 0.3651 0.0
H625 H 0.59365 0.62721 0.46213 0.0
H626 H 0.5421 0.57532 0.48527 0.0
H627 H 0.46378 0.5491 0.38198 0.0
H628 H 0.45008 0.51064 0.35698 0.0
H629 H 0.48985 0.55135 0.34723 0.0
H630 H 0.52568 0.51897 0.34869 0.0
H631 H 0.48604 0.47819 0.35846 0.0
H632 H 0.52418 0.49462 0.38448 0.0
H633 H 0.48945 0.51874 0.49874 0.0
H634 H 0.4354 0.46062 0.50191 0.0
H635 H 0.43002 0.45515 0.39679 0.0
C636 C 0.55482 0.58411 0.39118 0.0
C637 C 0.58006 0.61083 0.41172 0.0
C638 C 0.57483 0.60733 0.44576 0.0
C639 C 0.54559 0.57785 0.45925 0.0
C640 C 0.5214 0.55205 0.43848 0.0
C641 C 0.52533 0.55483 0.4052 0.0
C642 C 0.49493 0.52299 0.38871 0.0
C643 C 0.47338 0.5342 0.36747 0.0
C644 C 0.50853 0.50248 0.36892 0.0
C645 C 0.47372 0.50189 0.41802 0.0
C646 C 0.48978 0.51928 0.44639 0.0
C647 C 0.4764 0.50492 0.47673 0.0
C648 C 0.44573 0.4718 0.47825 0.0
C649 C 0.42841 0.45337 0.44963 0.0
C650 C 0.44249 0.4688 0.41906 0.0
H651 H 0.99297 0.5569 0.52424 0.0
H652 H 1.01433 0.60841 0.61806 0.0
H653 H 1.01875 0.55958 0.64253 0.0
H654 H 0.93754 0.4698 0.55459 0.0
H655 H 0.95261 0.44857 0.52659 0.0
H656 H 0.9541 0.489 0.51525 0.0
H657 H 1.02112 0.51799 0.50319 0.0
H658 H 1.01977 0.47755 0.51436 0.0
H659 H 0.05035 0.51833 0.53416 0.0
H660 H 1.01884 0.50491 0.65778 0.0
H661 H 1.0132 0.44629 0.66306 0.0
H662 H 0.98955 0.42781 0.56028 0.0
C663 C 0.99918 0.55806 0.54977 0.0
C664 C 1.00349 0.58655 0.56921 0.0
C665 C 1.01086 0.58683 0.6027 0.0
C666 C 1.01354 0.55927 0.61686 0.0
C667 C 1.00853 0.53128 0.59732 0.0
C668 C 1.00143 0.53028 0.56454 0.0
C669 C 0.99521 0.49588 0.5497 0.0
C670 C 0.95763 0.47456 0.53571 0.0
C671 C 1.02329 0.50286 0.52382 0.0
C672 C 0.99966 0.47783 0.57932 0.0
C673 C 1.00767 0.49895 0.60642 0.0
C674 C 1.01271 0.48812 0.63671 0.0
C675 C 1.00946 0.45472 0.63948 0.0
C676 C 1.00095 0.4323 0.61217 0.0
C677 C 0.99604 0.44421 0.58168 0.0
H678 H 0.44459 0.97237 0.70333 0.0
H679 H 0.40674 0.97545 0.79988 0.0
H680 H 0.45993 0.97812 0.82349 0.0
H681 H 0.48119 0.91653 0.72475 0.0
H682 H 0.51814 0.9388 0.6974 0.0
H683 H 0.47689 0.93678 0.6883 0.0
H684 H 0.5096 1.00503 0.68389 0.0
H685 H 0.55089 1.00728 0.69322 0.0
H686 H 0.53592 0.03144 0.7175 0.0
H687 H 0.51949 0.9846 0.83632 0.0
H688 H 0.57761 0.98781 0.8376 0.0
H689 H 0.57453 0.97687 0.73294 0.0
C690 C 0.44737 0.97338 0.72945 0.0
C691 C 0.42154 0.97382 0.74975 0.0
C692 C 0.42608 0.97493 0.78383 0.0
C693 C 0.45629 0.97662 0.79747 0.0
C694 C 0.48148 0.97666 0.77675 0.0
C695 C 0.47705 0.97449 0.74349 0.0
C696 C 0.50774 0.97435 0.72661 0.0
C697 C 0.49523 0.93954 0.70818 0.0
C698 C 0.52718 1.00644 0.70397 0.0
C699 C 0.53034 0.97722 0.75552 0.0
C700 C 0.51494 0.97887 0.78422 0.0
C701 C 0.53161 0.98294 0.81402 0.0
C702 C 0.56468 0.98492 0.81451 0.0
C703 C 0.58046 0.98235 0.78543 0.0
C704 C 0.56296 0.97852 0.75562 0.0
H705 H 0.48072 0.4385 0.8697 0.0
H706 H 0.44092 0.4062 0.96753 0.0
H707 H 0.49236 0.46006 0.9891 0.0
H708 H 0.5722 0.47253 0.89034 0.0
H709 H 0.58875 0.50861 0.86186 0.0
H710 H 0.54787 0.46843 0.85377 0.0
H711 H 0.5156 0.50411 0.84794 0.0
H712 H 0.55639 0.5444 0.856 0.0
H713 H 0.51787 0.53263 0.88049 0.0
H714 H 0.54714 0.51783 1.0001 0.0
H715 H 0.60444 0.57356 1.00029 0.0
H716 H 0.61138 0.56681 0.89582 0.0
C717 C 0.48276 0.44296 0.89562 0.0
C718 C 0.45669 0.41831 0.91695 0.0
C719 C 0.46058 0.42472 0.95077 0.0
C720 C 0.48963 0.45529 0.96324 0.0
C721 C 0.51491 0.47901 0.94164 0.0
C722 C 0.51205 0.47307 0.90859 0.0
C723 C 0.5439 0.50203 0.89091 0.0
C724 C 0.56439 0.48699 0.87318 0.0
C725 C 0.53276 0.52197 0.86745 0.0
C726 C 0.56495 0.52519 0.91919 0.0
C727 C 0.54749 0.5116 0.94817 0.0
C728 C 0.56118 0.52864 0.97758 0.0
C729 C 0.5937 0.56034 0.97743 0.0
C730 C 0.61249 0.57446 0.94812 0.0
C731 C 0.59781 0.55652 0.91865 0.0
H732 H 1.00977 0.32474 0.76348 0.0
H733 H 0.0311 0.43281 0.75869 0.0
H734 H 1.02423 0.43302 0.81788 0.0
H735 H 0.94409 0.29513 0.82699 0.0
H736 H 0.95875 0.26796 0.84659 0.0
H737 H 0.96476 0.27571 0.80354 0.0
H738 H 0.03201 0.29965 0.80979 0.0
H739 H 0.0261 0.29159 0.85277 0.0
H740 H 0.05717 0.33509 0.8379 0.0
H741 H 1.01535 0.42215 0.87709 0.0
H742 H 1.01008 0.40258 0.9338 0.0
H743 H 0.99488 0.30158 0.90129 0.0
C744 C 1.01313 0.34849 0.77489 0.0
C745 C 1.02094 0.37876 0.75634 0.0
C746 C 0.02515 0.4093 0.77227 0.0
C747 C 1.02111 0.40964 0.80592 0.0
C748 C 1.01291 0.37927 0.82339 0.0
C749 C 1.00931 0.34936 0.80858 0.0
C750 C 1.00154 0.32071 0.83333 0.0
C751 C 0.96512 0.28794 0.82724 0.0
C752 C 0.03096 0.31122 0.83345 0.0
C753 C 1.00166 0.33937 0.86436 0.0
C754 C 1.00795 0.37301 0.85791 0.0
C755 C 1.01033 0.39584 0.88249 0.0
C756 C 1.00722 0.38443 0.91464 0.0
C757 C 1.00192 0.3505 0.92204 0.0
C758 C 0.99837 0.32744 0.89644 0.0
H759 H 0.67983 0.04213 0.92142 0.0
H760 H 0.77329 0.03186 0.91529 0.0
H761 H 0.7723 0.02464 0.97475 0.0
H762 H 0.70514 0.09281 0.99719 0.0
H763 H 0.66018 0.07205 0.01162 0.0
H764 H 0.66911 0.07731 0.96874 0.0
H765 H 0.62749 1.01 0.96092 0.0
H766 H 0.61899 1.00441 0.00386 0.0
H767 H 0.63572 0.97949 0.98329 0.0
H768 H 0.75759 1.01277 0.03398 0.0
H769 H 0.73701 1.0079 0.09035 0.0
H770 H 0.65576 0.03043 0.05855 0.0
C771 C 0.70041 0.03895 0.9327 0.0
C772 C 0.72667 0.0376 0.91384 0.0
C773 C 0.75317 0.03337 0.92935 0.0
C774 C 0.75261 0.0289 0.96305 0.0
C775 C 0.72575 0.02935 0.98085 0.0
C776 C 0.70066 0.03515 0.96634 0.0
C777 C 0.67514 0.03527 0.99111 0.0
C778 C 0.67755 0.07152 0.99223 0.0
C779 C 0.63709 1.00552 0.98438 0.0
C780 C 0.68955 0.0282 0.02179 0.0
C781 C 0.7184 0.02433 0.01524 0.0
C782 C 0.73541 0.01637 0.03949 0.0
C783 C 0.7234 1.01351 0.07145 0.0
C784 C 0.69512 0.01937 0.07901 0.0
C785 C 0.67763 0.02613 0.05364 0.0
H786 H 0.73356 0.74984 0.10006 0.0
H787 H 0.64142 0.649 0.07605 0.0
H788 H 0.63067 0.63421 0.13408 0.0
H789 H 0.76391 0.71814 0.16357 0.0
H790 H 0.77869 0.75625 0.1893 0.0
H791 H 0.77782 0.76085 0.14599 0.0
H792 H 0.73801 0.78867 0.1524 0.0
H793 H 0.73922 0.78467 0.19578 0.0
H794 H 0.69735 0.76538 0.17505 0.0
H795 H 0.63145 0.62862 0.19388 0.0
H796 H 0.64197 0.63399 0.25283 0.0
H797 H 0.73426 0.73785 0.23868 0.0
C798 C 0.71068 0.72504 0.1071 0.0
C799 C 0.6882 0.70064 0.08359 0.0
C800 C 0.65895 0.6681 0.09368 0.0
C801 C 0.65263 0.65942 0.12657 0.0
C802 C 0.67582 0.68353 0.1491 0.0
C803 C 0.70408 0.7158 0.13995 0.0
C804 C 0.72566 0.73622 0.16918 0.0
C805 C 0.76377 0.74326 0.16686 0.0
C806 C 0.72501 0.77078 0.17334 0.0
C807 C 0.70528 0.71018 0.19602 0.0
C808 C 0.67658 0.68004 0.18385 0.0
C809 C 0.65375 0.65215 0.20378 0.0
C810 C 0.66003 0.6554 0.23721 0.0
C811 C 0.689 0.68625 0.25036 0.0
C812 C 0.71209 0.7138 0.22936 0.0
H813 H 0.03066 0.66502 0.40108 0.0
H814 H 0.03267 0.76333 0.4213 0.0
H815 H 1.02036 0.768 0.36395 0.0
H816 H 0.07428 0.69317 0.32169 0.0
H817 H 0.04847 0.64983 0.30418 0.0
H818 H 0.05799 0.65447 0.34695 0.0
H819 H 0.99088 0.61722 0.35915 0.0
H820 H 0.98112 0.61311 0.31643 0.0
H821 H 0.96146 0.63108 0.34309 0.0
H822 H 1.00322 0.76002 0.30569 0.0
H823 H 0.99308 0.74563 0.24756 0.0
H824 H 1.00599 0.65472 0.26333 0.0
C825 C 0.02907 0.6878 0.39332 0.0
C826 C 0.03254 0.71373 0.41581 0.0
C827 C 0.03026 0.74314 0.40464 0.0
C828 C 1.02297 0.74593 0.37209 0.0
C829 C 1.0186 0.71943 0.35079 0.0
C830 C 1.02243 0.69139 0.36066 0.0
C831 C 1.01752 0.6672 0.33238 0.0
C832 C 0.0516 0.66612 0.32592 0.0
C833 C 0.98586 0.62995 0.33812 0.0
C834 C 1.01004 0.68593 0.30524 0.0
C835 C 1.01023 0.71568 0.31659 0.0
C836 C 1.00331 0.73697 0.2964 0.0
C837 C 0.99725 0.72837 0.26343 0.0
C838 C 0.99874 0.69906 0.25083 0.0
C839 C 1.00463 0.67726 0.27223 0.0
H840 H 0.32318 0.02311 0.56986 0.0
H841 H 0.42226 0.0277 0.59268 0.0
H842 H 0.43227 0.02302 0.53441 0.0
H843 H 0.29696 0.95864 0.50838 0.0
H844 H 0.27721 0.97741 0.48282 0.0
H845 H 0.27895 0.98388 0.52603 0.0
H846 H 0.31176 0.05177 0.51792 0.0
H847 H 0.3096 0.04551 0.47466 0.0
H848 H 0.35169 0.07279 0.49403 0.0
H849 H 0.43066 1.01621 0.47383 0.0
H850 H 0.41859 1.01 0.41499 0.0
H851 H 0.31937 1.00737 0.43222 0.0
C852 C 0.34735 0.02388 0.56257 0.0
C853 C 0.37211 0.02608 0.58577 0.0
C854 C 0.40303 0.02622 0.57528 0.0
C855 C 0.40889 0.02347 0.54227 0.0
C856 C 0.38349 0.02039 0.52011 0.0
C857 C 0.35343 0.02077 0.52978 0.0
C858 C 0.32968 1.01588 0.5012 0.0
C859 C 0.29357 0.98193 0.50484 0.0
C860 C 0.32545 0.04843 0.49669 0.0
C861 C 0.35107 1.01265 0.47395 0.0
C862 C 0.38207 1.01542 0.48534 0.0
C863 C 0.40645 1.01395 0.46462 0.0
C864 C 0.3993 1.01029 0.43127 0.0
C865 C 0.36792 1.0079 0.41903 0.0
C866 C 0.34334 1.00858 0.44082 0.0
H867 H 0.30772 0.28849 0.60829 0.0
H868 H 0.41097 0.37852 0.58638 0.0
H869 H 0.41874 0.39595 0.6439 0.0
H870 H 0.28184 0.33174 0.6642 0.0
H871 H 0.25945 0.29485 0.69154 0.0
H872 H 0.26271 0.28724 0.64911 0.0
H873 H 0.29243 0.25042 0.66293 0.0
H874 H 0.28843 0.25716 0.70544 0.0
H875 H 0.33106 0.2693 0.68851 0.0
H876 H 0.41421 0.4056 0.70264 0.0
H877 H 0.40022 0.40339 0.76081 0.0
H878 H 0.29941 0.30786 0.74467 0.0
C879 C 0.33233 0.31133 0.61574 0.0
C880 C 0.35881 0.33209 0.59292 0.0
C881 C 0.39037 0.36221 0.60351 0.0
C882 C 0.39498 0.37243 0.63608 0.0
C883 C 0.36779 0.35224 0.65772 0.0
C884 C 0.3373 0.32205 0.64819 0.0
C885 C 0.31191 0.30557 0.67633 0.0
C886 C 0.27691 0.30482 0.6699 0.0
C887 C 0.3056 0.26841 0.68374 0.0
C888 C 0.33284 0.33139 0.70305 0.0
C889 C 0.36495 0.35811 0.69172 0.0
C890 C 0.38918 0.38478 0.71188 0.0
C891 C 0.38091 0.38341 0.74481 0.0
C892 C 0.34866 0.3556 0.75721 0.0
C893 C 0.32401 0.32976 0.73584 0.0
H894 H 0.29164 0.37232 0.89811 0.0
H895 H 0.25799 0.2677 0.93587 0.0
H896 H 0.20399 0.26443 0.9581 0.0
H897 H 0.26647 0.40134 0.9668 0.0
H898 H 0.2523 0.42783 0.94518 0.0
H899 H 0.28555 0.42004 0.92791 0.0
H900 H 0.24763 0.3948 0.87606 0.0
H901 H 0.21419 0.40252 0.89323 0.0
H902 H 0.20264 0.35897 0.87947 0.0
H903 H 0.1563 0.27389 0.97968 0.0
H904 H 0.12003 0.29733 0.00281 0.0
H905 H 0.1854 0.39704 0.95391 0.0
C906 C 0.27239 0.34842 0.91034 0.0
C907 C 0.27862 0.32001 0.9149 0.0
C908 C 0.25352 0.28961 0.93196 0.0
C909 C 0.22273 0.28746 0.94452 0.0
C910 C 0.21757 0.3161 0.94012 0.0
C911 C 0.24177 0.34613 0.92365 0.0
C912 C 0.23169 0.37459 0.92543 0.0
C913 C 0.26073 0.4079 0.94234 0.0
C914 C 0.22355 0.38322 0.89152 0.0
C915 C 0.19847 0.35609 0.94599 0.0
C916 C 0.19051 0.32212 0.95366 0.0
C917 C 0.16205 0.30028 0.97358 0.0
C918 C 0.14161 0.31373 0.98656 0.0
C919 C 0.14996 0.34873 0.97985 0.0
C920 C 0.17833 0.37 0.95891 0.0
H921 H 0.94125 0.27707 0.06242 0.0
H922 H 1.02281 0.27502 0.12076 0.0
H923 H 0.9774 0.22579 0.15259 0.0
H924 H 0.88018 0.259 0.12575 0.0
H925 H 0.84114 0.23036 0.10264 0.0
H926 H 0.8799 0.26427 0.08242 0.0
H927 H 0.88068 0.21741 0.04471 0.0
H928 H 0.84169 0.18336 0.06464 0.0
H929 H 0.88094 0.17982 0.06221 0.0
H930 H 0.92414 0.18096 0.18166 0.0
H931 H 0.86484 0.13844 0.20308 0.0
H932 H 0.81642 0.16585 0.12532 0.0
C933 C 0.94951 0.2658 0.08149 0.0
C934 C 0.98576 0.28038 0.08927 0.0
C935 C 0.99535 0.26491 0.11459 0.0
C936 C 0.96971 0.23673 0.13281 0.0
C937 C 0.93434 0.22374 0.12529 0.0
C938 C 0.92405 0.23725 0.09996 0.0
C939 C 0.88396 0.2185 0.09769 0.0
C940 C 0.87052 0.2446 0.10241 0.0
C941 C 0.87106 0.19859 0.06539 0.0
C942 C 0.87359 0.19304 0.12607 0.0
C943 C 0.90319 0.19668 0.14164 0.0
C944 C 0.90071 0.17745 0.16944 0.0
C945 C 0.86705 0.15356 0.18152 0.0
C946 C 0.83637 0.14891 0.1657 0.0
C947 C 0.83964 0.16881 0.13759 0.0
H948 H 0.70215 0.81579 0.29053 0.0
H949 H 0.64007 0.81133 0.37435 0.0
H950 H 0.64081 0.86511 0.3557 0.0
H951 H 0.75662 0.90862 0.28607 0.0
H952 H 0.75647 0.91139 0.24248 0.0
H953 H 0.75054 0.87183 0.26167 0.0
H954 H 0.69167 0.83462 0.23081 0.0
H955 H 0.69751 0.87403 0.21129 0.0
H956 H 0.65758 0.84616 0.23371 0.0
H957 H 0.65263 0.92162 0.33132 0.0
H958 H 0.66927 0.9751 0.29912 0.0
H959 H 0.719 0.94153 0.22752 0.0
C960 C 0.68824 0.82585 0.30462 0.0
C961 C 0.67165 0.80978 0.3343 0.0
C962 C 0.65382 0.82377 0.35209 0.0
C963 C 0.65385 0.85416 0.34155 0.0
C964 C 0.67117 0.8699 0.31272 0.0
C965 C 0.6875 0.856 0.29411 0.0
C966 C 0.70408 0.87836 0.26399 0.0
C967 C 0.74431 0.89344 0.26355 0.0
C968 C 0.68666 0.85701 0.23312 0.0
C969 C 0.69507 0.90732 0.26902 0.0
C970 C 0.67629 0.90188 0.29748 0.0
C971 C 0.6668 0.92592 0.30872 0.0
C972 C 0.67656 0.95631 0.29035 0.0
C973 C 0.69516 0.96229 0.26076 0.0
C974 C 0.7043 0.9373 0.24981 0.0
H975 H 0.77681 0.72536 0.44537 0.0
H976 H 0.73374 0.63948 0.37575 0.0
H977 H 0.7757 0.62128 0.39489 0.0
H978 H 0.86857 0.74664 0.43673 0.0
H979 H 0.87847 0.75738 0.47901 0.0
H980 H 0.84528 0.76377 0.45948 0.0
H981 H 0.79976 0.72452 0.50311 0.0
H982 H 0.83267 0.71759 0.52251 0.0
H983 H 0.79138 0.68026 0.50971 0.0
H984 H 0.8189 0.60944 0.42472 0.0
H985 H 0.86649 0.61004 0.45758 0.0
H986 H 0.88498 0.70627 0.50468 0.0
C987 C 0.77643 0.70292 0.43393 0.0
C988 C 0.75189 0.68378 0.40907 0.0
C989 C 0.75239 0.65468 0.39465 0.0
C990 C 0.77597 0.64399 0.40553 0.0
C991 C 0.79927 0.66296 0.43052 0.0
C992 C 0.80021 0.69225 0.4441 0.0
C993 C 0.82846 0.70852 0.47009 0.0
C994 C 0.85688 0.74632 0.46076 0.0
C995 C 0.81207 0.70766 0.50332 0.0
C996 C 0.84302 0.68359 0.46924 0.0
C997 C 0.82547 0.65724 0.44652 0.0
C998 C 0.83328 0.63035 0.44211 0.0
C999 C 0.86038 0.63095 0.46077 0.0
C1000 C 0.87987 0.65863 0.483 0.0
C1001 C 0.87062 0.68493 0.48765 0.0
H1002 H 0.20499 0.8472 0.68091 0.0
H1003 H 0.24295 0.92857 0.60684 0.0
H1004 H 0.19311 0.88921 0.57172 0.0
H1005 H 0.17077 0.77199 0.62963 0.0
H1006 H 0.13179 0.74546 0.6537 0.0
H1007 H 0.17143 0.77944 0.67267 0.0
H1008 H 0.13665 0.80802 0.69586 0.0
H1009 H 0.09683 0.77401 0.67711 0.0
H1010 H 0.11194 0.81982 0.66874 0.0
H1011 H 0.14097 0.83941 0.54313 0.0
H1012 H 0.08629 0.78539 0.52586 0.0
H1013 H 0.07738 0.73971 0.62108 0.0
C1014 C 0.20262 0.85698 0.65751 0.0
C1015 C 0.22858 0.89082 0.64642 0.0
C1016 C 0.22439 0.90233 0.61548 0.0
C1017 C 0.19584 0.88028 0.59543 0.0
C1018 C 0.17101 0.84701 0.60694 0.0
C1019 C 0.17367 0.83565 0.63752 0.0
C1020 C 0.1425 0.79922 0.64452 0.0
C1021 C 0.15487 0.77245 0.65047 0.0
C1022 C 0.12069 0.80035 0.67326 0.0
C1023 C 0.1222 0.79173 0.61295 0.0
C1024 C 0.13939 0.81945 0.59142 0.0
C1025 C 0.12694 0.81778 0.55996 0.0
C1026 C 0.09599 0.78704 0.55033 0.0
C1027 C 0.07746 0.75879 0.5723 0.0
C1028 C 0.0907 0.76131 0.60404 0.0
H1029 H 0.33038 0.18471 0.84245 0.0
H1030 H 0.42248 0.26426 0.79082 0.0
H1031 H 0.42303 0.21766 0.75738 0.0
H1032 H 0.35857 0.11996 0.84553 0.0
H1033 H 0.31459 0.08276 0.84045 0.0
H1034 H 0.32086 0.12249 0.85953 0.0
H1035 H 0.27873 0.12611 0.81761 0.0
H1036 H 0.27253 0.08653 0.79826 0.0
H1037 H 0.28782 0.12642 0.77495 0.0
H1038 H 0.41274 0.16278 0.72885 0.0
H1039 H 0.39587 0.10296 0.71009 0.0
H1040 H 0.31216 0.0581 0.78221 0.0
C1041 C 0.35069 0.19218 0.82415 0.0
C1042 C 0.37607 0.22805 0.81872 0.0
C1043 C 0.40239 0.23695 0.79478 0.0
C1044 C 0.40295 0.21068 0.77579 0.0
C1045 C 0.37725 0.17558 0.78136 0.0
C1046 C 0.35185 0.1662 0.8052 0.0
C1047 C 0.32793 0.12641 0.80681 0.0
C1048 C 0.33067 0.11206 0.84006 0.0
C1049 C 0.28948 0.11575 0.79893 0.0
C1050 C 0.34393 0.1149 0.78021 0.0
C1051 C 0.37209 0.14375 0.76563 0.0
C1052 C 0.39083 0.13998 0.74016 0.0
C1053 C 0.3809 0.10581 0.72958 0.0
C1054 C 0.35269 0.0757 0.74465 0.0
C1055 C 0.33388 0.0805 0.77021 0.0
H1056 H 0.67707 0.75779 0.94201 0.0
H1057 H 0.74623 0.74958 0.87142 0.0
H1058 H 0.74855 0.79851 0.84027 0.0
H1059 H 0.62651 0.77477 0.88457 0.0
H1060 H 0.62162 0.80577 0.9096 0.0
H1061 H 0.62711 0.7716 0.92812 0.0
H1062 H 0.68118 0.81882 0.96016 0.0
H1063 H 0.67582 0.85316 0.94175 0.0
H1064 H 0.71749 0.85434 0.93857 0.0
H1065 H 0.74216 0.84637 0.81543 0.0
H1066 H 0.72645 0.89057 0.79775 0.0
H1067 H 0.65987 0.86794 0.8826 0.0
C1068 C 0.69306 0.76666 0.92024 0.0
C1069 C 0.71155 0.7498 0.90922 0.0
C1070 C 0.73173 0.76187 0.88033 0.0
C1071 C 0.73335 0.78979 0.86248 0.0
C1072 C 0.71451 0.80549 0.87366 0.0
C1073 C 0.69469 0.79447 0.9018 0.0
C1074 C 0.67567 0.81507 0.90733 0.0
C1075 C 0.63534 0.79032 0.9074 0.0
C1076 C 0.6883 0.83663 0.93883 0.0
C1077 C 0.68771 0.83901 0.87776 0.0
C1078 C 0.71033 0.8331 0.85887 0.0
C1079 C 0.72458 0.85135 0.83004 0.0
C1080 C 0.7154 0.87626 0.82013 0.0
C1081 C 0.69209 0.88264 0.83884 0.0
C1082 C 0.67814 0.86384 0.8681 0.0
H1083 H 0.80708 0.65149 0.04822 0.0
H1084 H 0.85333 0.71724 0.96327 0.0
H1085 H 0.91304 0.73399 0.98296 0.0
H1086 H 0.87577 0.71011 0.10523 0.0
H1087 H 0.87468 0.67442 0.12796 0.0
H1088 H 0.83541 0.66807 0.1077 0.0
H1089 H 0.83065 0.61428 0.07701 0.0
H1090 H 0.86984 0.62043 0.09718 0.0
H1091 H 0.86778 0.61953 0.05354 0.0
H1092 H 0.96707 0.74205 0.0103 0.0
H1093 H 1.01308 0.74096 0.0436 0.0
H1094 H 0.93321 0.67133 0.11253 0.0
C1095 C 0.82989 0.66967 0.03403 0.0
C1096 C 0.82574 0.68309 0.00419 0.0
C1097 C 0.85603 0.70647 0.98602 0.0
C1098 C 0.89001 0.71628 0.9971 0.0
C1099 C 0.8933 0.70261 0.02654 0.0
C1100 C 0.86417 0.67987 0.04486 0.0
C1101 C 0.87534 0.66852 0.07532 0.0
C1102 C 0.86466 0.68103 0.10586 0.0
C1103 C 0.85999 0.6283 0.07577 0.0
C1104 C 0.91525 0.68811 0.071 0.0
C1105 C 0.92487 0.70765 0.04269 0.0
C1106 C 0.95992 0.72704 0.03263 0.0
C1107 C 0.98589 0.72619 0.05176 0.0
C1108 C 0.9769 0.70618 0.0808 0.0
C1109 C 0.94103 0.68722 0.0907 0.0
H1110 H 0.17126 0.84618 0.15935 0.0
H1111 H 0.16156 0.7661 0.22703 0.0
H1112 H 0.20946 0.81216 0.26052 0.0
H1113 H 0.26714 0.90101 0.16412 0.0
H1114 H 0.26667 0.94184 0.16116 0.0
H1115 H 0.2321 0.9024 0.14241 0.0
H1116 H 0.18516 0.90972 0.17435 0.0
H1117 H 0.21961 0.94899 0.1934 0.0
H1118 H 0.18781 0.91284 0.21794 0.0
H1119 H 0.25717 0.86715 0.2874 0.0
H1120 H 0.30359 0.92673 0.30428 0.0
H1121 H 0.28271 0.97111 0.21868 0.0
C1122 C 0.17954 0.83845 0.18108 0.0
C1123 C 0.16263 0.80276 0.19092 0.0
C1124 C 0.174 0.79345 0.21943 0.0
C1125 C 0.20116 0.81938 0.23852 0.0
C1126 C 0.21685 0.85449 0.22859 0.0
C1127 C 0.20669 0.86405 0.2004 0.0
C1128 C 0.22786 0.90367 0.19525 0.0
C1129 C 0.24975 0.91276 0.16388 0.0
C1130 C 0.20366 0.91974 0.19525 0.0
C1131 C 0.25137 0.91486 0.22499 0.0
C1132 C 0.24456 0.88611 0.24394 0.0
C1133 C 0.26284 0.88987 0.27269 0.0
C1134 C 0.28911 0.92387 0.28214 0.0
C1135 C 0.29696 0.95375 0.26286 0.0
C1136 C 0.2775 0.94896 0.23403 0.0
H1137 H 0.36199 0.29243 0.3796 0.0
H1138 H 0.32095 0.24474 0.4735 0.0
H1139 H 0.32177 0.19112 0.45633 0.0
H1140 H 0.31722 0.21267 0.33079 0.0
H1141 H 0.35466 0.22482 0.30465 0.0
H1142 H 0.34855 0.25861 0.32324 0.0
H1143 H 0.41123 0.28676 0.34826 0.0
H1144 H 0.41754 0.25311 0.32971 0.0
H1145 H 0.42278 0.26004 0.37289 0.0
H1146 H 0.32519 0.14222 0.42868 0.0
H1147 H 0.33673 0.10312 0.3945 0.0
H1148 H 0.3829 0.18474 0.32077 0.0
C1149 C 0.35286 0.27048 0.39633 0.0
C1150 C 0.34102 0.27245 0.42776 0.0
C1151 C 0.33001 0.24364 0.44931 0.0
C1152 C 0.33027 0.21307 0.43974 0.0
C1153 C 0.34227 0.21197 0.40871 0.0
C1154 C 0.35387 0.24004 0.38744 0.0
C1155 C 0.36769 0.23276 0.35632 0.0
C1156 C 0.34571 0.23218 0.32702 0.0
C1157 C 0.40715 0.25977 0.35153 0.0
C1158 C 0.36189 0.1962 0.36344 0.0
C1159 C 0.34668 0.18459 0.3936 0.0
C1160 C 0.33769 0.15128 0.40526 0.0
C1161 C 0.34478 0.12938 0.38577 0.0
C1162 C 0.36154 0.14104 0.35523 0.0
C1163 C 0.37001 0.17494 0.34394 0.0
H1164 H 0.08461 0.35921 0.54833 0.0
H1165 H 0.07668 0.30135 0.63623 0.0
H1166 H 0.12789 0.29604 0.61866 0.0
H1167 H 0.11321 0.31344 0.49387 0.0
H1168 H 0.14436 0.35281 0.47242 0.0
H1169 H 0.10561 0.35014 0.49059 0.0
H1170 H 0.14509 0.40734 0.52306 0.0
H1171 H 0.18391 0.41029 0.50483 0.0
H1172 H 0.17989 0.40985 0.54833 0.0
H1173 H 0.17804 0.29486 0.59067 0.0
H1174 H 0.22922 0.30462 0.55796 0.0
H1175 H 0.21025 0.37007 0.49141 0.0
C1176 C 0.09359 0.34522 0.56368 0.0
C1177 C 0.07657 0.33031 0.59348 0.0
C1178 C 0.08939 0.31286 0.61332 0.0
C1179 C 0.1183 0.30958 0.60346 0.0
C1180 C 0.13455 0.32454 0.57398 0.0
C1181 C 0.12313 0.34258 0.55462 0.0
C1182 C 0.147 0.35834 0.52523 0.0
C1183 C 0.1263 0.34274 0.49366 0.0
C1184 C 0.16504 0.39886 0.52539 0.0
C1185 C 0.17349 0.34619 0.53107 0.0
C1186 C 0.16534 0.3262 0.55904 0.0
C1187 C 0.18511 0.31106 0.56908 0.0
C1188 C 0.21443 0.31711 0.55047 0.0
C1189 C 0.22451 0.33894 0.52257 0.0
C1190 C 0.20335 0.35326 0.51258 0.0
H1191 H 0.87124 0.23467 0.71108 0.0
H1192 H 0.89104 0.18973 0.62547 0.0
H1193 H 0.8466 0.13003 0.64382 0.0
H1194 H 0.86045 0.16511 0.76628 0.0
H1195 H 0.82599 0.16581 0.78968 0.0
H1196 H 0.85899 0.20538 0.76971 0.0
H1197 H 0.80975 0.21075 0.74002 0.0
H1198 H 0.77662 0.17125 0.75992 0.0
H1199 H 0.77748 0.1741 0.71631 0.0
H1200 H 0.80002 0.07584 0.67031 0.0
H1201 H 0.7535 0.0292 0.70363 0.0
H1202 H 0.76432 0.10739 0.77441 0.0
C1203 C 0.86619 0.21217 0.69632 0.0
C1204 C 0.88426 0.21682 0.66661 0.0
C1205 C 0.87699 0.18684 0.64791 0.0
C1206 C 0.85201 0.15281 0.65829 0.0
C1207 C 0.83471 0.14909 0.68763 0.0
C1208 C 0.84144 0.17782 0.70652 0.0
C1209 C 0.81905 0.16611 0.73716 0.0
C1210 C 0.84253 0.17621 0.76751 0.0
C1211 C 0.79425 0.18147 0.73841 0.0
C1212 C 0.79846 0.12633 0.73231 0.0
C1213 C 0.80808 0.11731 0.70351 0.0
C1214 C 0.79237 0.08252 0.69298 0.0
C1215 C 0.76585 0.05617 0.71214 0.0
C1216 C 0.75517 0.06446 0.74175 0.0
C1217 C 0.77208 0.10011 0.7521 0.0
loop_
_geom_bond_atom_site_label_1
_geom_bond_atom_site_label_2
_geom_bond_distance
_geom_bond_site_symmetry_2
_ccdc_geom_bond_type
Co0 O3 1.970 . S
Co0 N17 1.989 . S
Co0 O25 1.967 . S
Co0 O32 1.920 1_554 S
Co1 O4 1.966 . S
Co1 N10 2.022 . S
Co1 N18 1.993 . S
Co1 O26 1.941 . S
C2 O3 1.258 . S
C2 O4 1.263 . S
O3 Co0 1.970 . S
O3 C2 1.258 . S
O4 Co1 1.966 . S
O4 C2 1.263 . S
C5 O6 1.235 . S
C5 O32 1.289 . S
O6 C5 1.235 . S
C7 C9 1.400 . S
C7 N10 1.351 . S
C7 C12 1.501 . S
C8 C9 1.387 . S
C8 N11 1.341 . S
C9 C7 1.400 . S
C9 C8 1.387 . S
N10 Co1 2.022 . S
N10 C7 1.351 . S
N10 N11 1.365 . S
N11 C8 1.341 . S
N11 N10 1.365 . S
N11 H31 0.862 . S
C12 C7 1.501 . S
C12 H13 0.961 . S
C12 H14 0.961 . S
C12 H15 0.960 . S
H13 C12 0.961 . S
H14 C12 0.961 . S
H15 C12 0.960 . S
C16 N17 1.342 1_556 S
C16 C20 1.401 1_556 S
C16 C21 1.499 . S
N17 Co0 1.989 . S
N17 C16 1.342 1_554 S
N17 N18 1.388 . S
N18 Co1 1.993 . S
N18 N17 1.388 . S
N18 C19 1.346 . S
C19 N18 1.346 . S
C19 C20 1.396 . S
C19 C29 1.510 . S
C20 C16 1.401 1_554 S
C20 C19 1.396 . S
C21 C16 1.499 . S
C21 H22 0.959 . S
C21 H23 0.960 . S
C21 H24 0.961 . S
H22 C21 0.959 . S
H23 C21 0.960 . S
H24 C21 0.961 . S
O25 Co0 1.967 . S
O25 C33 1.258 . S
O26 Co1 1.941 . S
O26 C33 1.266 . S
H27 C29 0.959 . S
H28 C29 0.961 . S
C29 C19 1.510 . S
C29 H27 0.959 . S
C29 H28 0.961 . S
C29 H30 0.960 . S
H30 C29 0.960 . S
H31 N11 0.862 . S
O32 Co0 1.920 1_556 S
O32 C5 1.289 . S
C33 O25 1.258 . S
C33 O26 1.266 . S
Co34 O37 1.970 . S
Co34 N51 1.989 . S
Co34 O59 1.967 . S
Co34 O66 1.920 . S
Co35 O38 1.966 . S
Co35 N44 2.022 . S
Co35 N52 1.993 . S
Co35 O60 1.941 . S
C36 O37 1.258 . S
C36 O38 1.263 . S
O37 Co34 1.970 . S
O37 C36 1.258 . S
O38 Co35 1.966 . S
O38 C36 1.263 . S
C39 O40 1.235 . S
C39 O66 1.289 . S
O40 C39 1.235 . S
C41 C43 1.400 . S
C41 N44 1.351 . S
C41 C46 1.501 . S
C42 C43 1.387 . S
C42 N45 1.341 . S
C43 C41 1.400 . S
C43 C42 1.387 . S
N44 Co35 2.022 . S
N44 C41 1.351 . S
N44 N45 1.365 . S
N45 C42 1.341 . S
N45 N44 1.365 . S
N45 H65 0.862 . S
C46 C41 1.501 . S
C46 H47 0.961 . S
C46 H48 0.961 . S
C46 H49 0.960 . S
H47 C46 0.961 . S
H48 C46 0.961 . S
H49 C46 0.960 . S
C50 N51 1.342 . S
C50 C54 1.401 . S
C50 C55 1.499 . S
N51 Co34 1.989 . S
N51 C50 1.342 . S
N51 N52 1.388 . S
N52 Co35 1.993 . S
N52 N51 1.388 . S
N52 C53 1.346 . S
C53 N52 1.346 . S
C53 C54 1.396 . S
C53 C63 1.510 . S
C54 C50 1.401 . S
C54 C53 1.396 . S
C55 C50 1.499 . S
C55 H56 0.959 . S
C55 H57 0.960 . S
C55 H58 0.961 . S
H56 C55 0.959 . S
H57 C55 0.960 . S
H58 C55 0.961 . S
O59 Co34 1.967 . S
O59 C67 1.258 . S
O60 Co35 1.941 . S
O60 C67 1.266 . S
H61 C63 0.959 . S
H62 C63 0.961 . S
C63 C53 1.510 . S
C63 H61 0.959 . S
C63 H62 0.961 . S
C63 H64 0.960 . S
H64 C63 0.960 . S
H65 N45 0.862 . S
O66 Co34 1.920 . S
O66 C39 1.289 . S
C67 O59 1.258 . S
C67 O60 1.266 . S
Co68 O71 1.970 . S
Co68 N85 1.989 . S
Co68 O93 1.967 . S
Co68 O100 1.920 . S
Co69 O72 1.966 . S
Co69 N78 2.022 . S
Co69 N86 1.993 . S
Co69 O94 1.941 . S
C70 O71 1.258 . S
C70 O72 1.263 . S
O71 Co68 1.970 . S
O71 C70 1.258 . S
O72 Co69 1.966 . S
O72 C70 1.263 . S
C73 O74 1.235 . S
C73 O100 1.289 . S
O74 C73 1.235 . S
C75 C77 1.400 . S
C75 N78 1.351 . S
C75 C80 1.501 . S
C76 C77 1.387 . S
C76 N79 1.341 . S
C77 C75 1.400 . S
C77 C76 1.387 . S
N78 Co69 2.022 . S
N78 C75 1.351 . S
N78 N79 1.365 . S
N79 C76 1.341 . S
N79 N78 1.365 . S
N79 H99 0.862 . S
C80 C75 1.501 . S
C80 H81 0.961 . S
C80 H82 0.961 . S
C80 H83 0.960 . S
H81 C80 0.961 . S
H82 C80 0.961 . S
H83 C80 0.960 . S
C84 N85 1.342 . S
C84 C88 1.401 . S
C84 C89 1.499 . S
N85 Co68 1.989 . S
N85 C84 1.342 . S
N85 N86 1.388 . S
N86 Co69 1.993 . S
N86 N85 1.388 . S
N86 C87 1.346 . S
C87 N86 1.346 . S
C87 C88 1.396 . S
C87 C97 1.510 . S
C88 C84 1.401 . S
C88 C87 1.396 . S
C89 C84 1.499 . S
C89 H90 0.959 . S
C89 H91 0.960 . S
C89 H92 0.961 . S
H90 C89 0.959 . S
H91 C89 0.960 . S
H92 C89 0.961 . S
O93 Co68 1.967 . S
O93 C101 1.258 . S
O94 Co69 1.941 . S
O94 C101 1.266 . S
H95 C97 0.959 . S
H96 C97 0.961 . S
C97 C87 1.510 . S
C97 H95 0.959 . S
C97 H96 0.961 . S
C97 H98 0.960 . S
H98 C97 0.960 . S
H99 N79 0.862 . S
O100 Co68 1.920 . S
O100 C73 1.289 . S
C101 O93 1.258 . S
C101 O94 1.266 . S
Co102 O105 1.970 . S
Co102 N119 1.989 . S
Co102 O127 1.967 . S
Co102 O134 1.920 . S
Co103 O106 1.966 . S
Co103 N112 2.022 . S
Co103 N120 1.993 . S
Co103 O128 1.941 . S
C104 O105 1.258 . S
C104 O106 1.263 . S
O105 Co102 1.970 . S
O105 C104 1.258 . S
O106 Co103 1.966 . S
O106 C104 1.263 . S
C107 O108 1.235 . S
C107 O134 1.289 . S
O108 C107 1.235 . S
C109 C111 1.400 . S
C109 N112 1.351 . S
C109 C114 1.501 . S
C110 C111 1.387 . S
C110 N113 1.341 . S
C111 C109 1.400 . S
C111 C110 1.387 . S
N112 Co103 2.022 . S
N112 C109 1.351 . S
N112 N113 1.365 . S
N113 C110 1.341 . S
N113 N112 1.365 . S
N113 H133 0.862 . S
C114 C109 1.501 . S
C114 H115 0.961 . S
C114 H116 0.961 . S
C114 H117 0.960 . S
H115 C114 0.961 . S
H116 C114 0.961 . S
H117 C114 0.960 . S
C118 N119 1.342 . S
C118 C122 1.401 . S
C118 C123 1.499 . S
N119 Co102 1.989 . S
N119 C118 1.342 . S
N119 N120 1.388 . S
N120 Co103 1.993 . S
N120 N119 1.388 . S
N120 C121 1.346 . S
C121 N120 1.346 . S
C121 C122 1.396 . S
C121 C131 1.510 . S
C122 C118 1.401 . S
C122 C121 1.396 . S
C123 C118 1.499 . S
C123 H124 0.959 . S
C123 H125 0.960 . S
C123 H126 0.961 . S
H124 C123 0.959 . S
H125 C123 0.960 . S
H126 C123 0.961 . S
O127 Co102 1.967 . S
O127 C135 1.258 . S
O128 Co103 1.941 . S
O128 C135 1.266 . S
H129 C131 0.959 . S
H130 C131 0.961 . S
C131 C121 1.510 . S
C131 H129 0.959 . S
C131 H130 0.961 . S
C131 H132 0.960 . S
H132 C131 0.960 . S
H133 N113 0.862 . S
O134 Co102 1.920 . S
O134 C107 1.289 . S
C135 O127 1.258 . S
C135 O128 1.266 . S
Co136 O139 1.970 . S
Co136 N153 1.989 . S
Co136 O161 1.967 . S
Co136 O168 1.920 . S
Co137 O140 1.966 . S
Co137 N146 2.022 . S
Co137 N154 1.993 . S
Co137 O162 1.941 . S
C138 O139 1.258 . S
C138 O140 1.263 . S
O139 Co136 1.970 . S
O139 C138 1.258 . S
O140 Co137 1.966 . S
O140 C138 1.263 . S
C141 O142 1.235 . S
C141 O168 1.289 . S
O142 C141 1.235 . S
C143 C145 1.400 . S
C143 N146 1.351 . S
C143 C148 1.501 . S
C144 C145 1.387 . S
C144 N147 1.341 . S
C145 C143 1.400 . S
C145 C144 1.387 . S
N146 Co137 2.022 . S
N146 C143 1.351 . S
N146 N147 1.365 . S
N147 C144 1.341 . S
N147 N146 1.365 . S
N147 H167 0.862 . S
C148 C143 1.501 . S
C148 H149 0.961 . S
C148 H150 0.961 . S
C148 H151 0.960 . S
H149 C148 0.961 . S
H150 C148 0.961 . S
H151 C148 0.960 . S
C152 N153 1.342 . S
C152 C156 1.401 . S
C152 C157 1.499 . S
N153 Co136 1.989 . S
N153 C152 1.342 . S
N153 N154 1.388 . S
N154 Co137 1.993 . S
N154 N153 1.388 . S
N154 C155 1.346 . S
C155 N154 1.346 . S
C155 C156 1.396 . S
C155 C165 1.510 . S
C156 C152 1.401 . S
C156 C155 1.396 . S
C157 C152 1.499 . S
C157 H158 0.959 . S
C157 H159 0.960 . S
C157 H160 0.961 . S
H158 C157 0.959 . S
H159 C157 0.960 . S
H160 C157 0.961 . S
O161 Co136 1.967 . S
O161 C169 1.258 . S
O162 Co137 1.941 . S
O162 C169 1.266 . S
H163 C165 0.959 . S
H164 C165 0.961 . S
C165 C155 1.510 . S
C165 H163 0.959 . S
C165 H164 0.961 . S
C165 H166 0.960 . S
H166 C165 0.960 . S
H167 N147 0.862 . S
O168 Co136 1.920 . S
O168 C141 1.289 . S
C169 O161 1.258 . S
C169 O162 1.266 . S
Co170 O173 1.970 . S
Co170 N187 1.989 . S
Co170 O195 1.967 . S
Co170 O202 1.920 . S
Co171 O174 1.966 . S
Co171 N180 2.022 . S
Co171 N188 1.993 . S
Co171 O196 1.941 . S
C172 O173 1.258 . S
C172 O174 1.263 . S
O173 Co170 1.970 . S
O173 C172 1.258 . S
O174 Co171 1.966 . S
O174 C172 1.263 . S
C175 O176 1.235 . S
C175 O202 1.289 . S
O176 C175 1.235 . S
C177 C179 1.400 . S
C177 N180 1.351 . S
C177 C182 1.501 . S
C178 C179 1.387 . S
C178 N181 1.341 . S
C179 C177 1.400 . S
C179 C178 1.387 . S
N180 Co171 2.022 . S
N180 C177 1.351 . S
N180 N181 1.365 . S
N181 C178 1.341 . S
N181 N180 1.365 . S
N181 H201 0.862 . S
C182 C177 1.501 . S
C182 H183 0.961 . S
C182 H184 0.961 . S
C182 H185 0.986 . S
H183 C182 0.961 . S
H184 C182 0.961 . S
H185 C182 0.986 . S
C186 N187 1.342 . S
C186 C190 1.401 . S
C186 C191 1.499 . S
N187 Co170 1.989 . S
N187 C186 1.342 . S
N187 N188 1.388 . S
N188 Co171 1.993 . S
N188 N187 1.388 . S
N188 C189 1.346 . S
C189 N188 1.346 . S
C189 C190 1.396 . S
C189 C199 1.510 . S
C190 C186 1.401 . S
C190 C189 1.396 . S
C191 C186 1.499 . S
C191 H192 0.959 . S
C191 H193 0.960 . S
C191 H194 0.961 . S
H192 C191 0.959 . S
H193 C191 0.960 . S
H194 C191 0.961 . S
O195 Co170 1.967 . S
O195 C203 1.258 . S
O196 Co171 1.941 . S
O196 C203 1.266 . S
H197 C199 0.959 . S
H198 C199 0.961 . S
C199 C189 1.510 . S
C199 H197 0.959 . S
C199 H198 0.961 . S
C199 H200 0.960 . S
H200 C199 0.960 . S
H201 N181 0.862 . S
O202 Co170 1.920 . S
O202 C175 1.289 . S
C203 O195 1.258 . S
C203 O196 1.266 . S
Co204 O207 1.970 . S
Co204 N221 1.989 . S
Co204 O229 1.967 . S
Co204 O236 1.920 . S
Co205 O208 1.966 . S
Co205 N214 2.022 . S
Co205 N222 1.993 . S
Co205 O230 1.941 . S
C206 O207 1.258 . S
C206 O208 1.263 . S
O207 Co204 1.970 . S
O207 C206 1.258 . S
O208 Co205 1.966 . S
O208 C206 1.263 . S
C209 O210 1.235 . S
C209 O236 1.289 . S
O210 C209 1.235 . S
C211 C213 1.400 . S
C211 N214 1.351 . S
C211 C216 1.501 . S
C212 C213 1.387 . S
C212 N215 1.341 . S
C213 C211 1.400 . S
C213 C212 1.387 . S
N214 Co205 2.022 . S
N214 C211 1.351 . S
N214 N215 1.365 . S
N215 C212 1.341 . S
N215 N214 1.365 . S
N215 H235 0.862 . S
C216 C211 1.501 . S
C216 H217 0.961 . S
C216 H218 0.961 . S
C216 H219 0.960 . S
H217 C216 0.961 . S
H218 C216 0.961 . S
H219 C216 0.960 . S
C220 N221 1.342 . S
C220 C224 1.401 . S
C220 C225 1.499 . S
N221 Co204 1.989 . S
N221 C220 1.342 . S
N221 N222 1.388 . S
N222 Co205 1.993 . S
N222 N221 1.388 . S
N222 C223 1.346 . S
C223 N222 1.346 . S
C223 C224 1.396 . S
C223 C233 1.510 . S
C224 C220 1.401 . S
C224 C223 1.396 . S
C225 C220 1.499 . S
C225 H226 0.959 . S
C225 H227 0.960 . S
C225 H228 0.961 . S
H226 C225 0.959 . S
H227 C225 0.960 . S
H228 C225 0.961 . S
O229 Co204 1.967 . S
O229 C237 1.258 . S
O230 Co205 1.941 . S
O230 C237 1.266 . S
H231 C233 0.959 . S
H232 C233 0.961 . S
C233 C223 1.510 . S
C233 H231 0.959 . S
C233 H232 0.961 . S
C233 H234 0.960 . S
H234 C233 0.960 . S
H235 N215 0.862 . S
O236 Co204 1.920 . S
O236 C209 1.289 . S
C237 O229 1.258 . S
C237 O230 1.266 . S
Co238 O241 1.970 . S
Co238 N255 1.989 . S
Co238 O263 1.967 . S
Co238 O270 1.920 1_556 S
Co239 O242 1.966 . S
Co239 N248 2.022 . S
Co239 N256 1.993 . S
Co239 O264 1.941 . S
C240 O241 1.258 . S
C240 O242 1.263 . S
O241 Co238 1.970 . S
O241 C240 1.258 . S
O242 Co239 1.966 . S
O242 C240 1.263 . S
C243 O244 1.235 . S
C243 O270 1.289 . S
O244 C243 1.235 . S
C245 C247 1.400 . S
C245 N248 1.351 . S
C245 C250 1.501 . S
C246 C247 1.387 . S
C246 N249 1.341 . S
C247 C245 1.400 . S
C247 C246 1.387 . S
N248 Co239 2.022 . S
N248 C245 1.351 . S
N248 N249 1.365 . S
N249 C246 1.341 . S
N249 N248 1.365 . S
N249 H269 0.862 . S
C250 C245 1.501 . S
C250 H251 0.961 . S
C250 H252 0.961 . S
C250 H253 0.960 . S
H251 C250 0.961 . S
H252 C250 0.961 . S
H253 C250 0.960 . S
C254 N255 1.342 1_554 S
C254 C258 1.401 1_554 S
C254 C259 1.499 . S
N255 Co238 1.989 . S
N255 C254 1.342 1_556 S
N255 N256 1.388 . S
N256 Co239 1.993 . S
N256 N255 1.388 . S
N256 C257 1.346 . S
C257 N256 1.346 . S
C257 C258 1.396 . S
C257 C267 1.510 . S
C258 C254 1.401 1_556 S
C258 C257 1.396 . S
C259 C254 1.499 . S
C259 H260 0.959 . S
C259 H261 0.960 . S
C259 H262 0.961 . S
H260 C259 0.959 . S
H261 C259 0.960 . S
H262 C259 0.961 . S
O263 Co238 1.967 . S
O263 C271 1.258 . S
O264 Co239 1.941 . S
O264 C271 1.266 . S
H265 C267 0.959 . S
H266 C267 0.961 . S
C267 C257 1.510 . S
C267 H265 0.959 . S
C267 H266 0.961 . S
C267 H268 0.960 . S
H268 C267 0.960 . S
H269 N249 0.862 . S
O270 Co238 1.920 1_554 S
O270 C243 1.289 . S
C271 O263 1.258 . S
C271 O264 1.266 . S
Co272 O275 1.970 . S
Co272 N289 1.989 . S
Co272 O297 1.967 . S
Co272 O304 1.920 . S
Co273 O276 1.966 . S
Co273 N282 2.022 . S
Co273 N290 1.993 . S
Co273 O298 1.941 . S
C274 O275 1.258 . S
C274 O276 1.263 . S
O275 Co272 1.970 . S
O275 C274 1.258 . S
O276 Co273 1.966 . S
O276 C274 1.263 . S
C277 O278 1.235 . S
C277 O304 1.289 . S
O278 C277 1.235 . S
C279 C281 1.400 . S
C279 N282 1.351 . S
C279 C284 1.501 . S
C280 C281 1.387 . S
C280 N283 1.341 . S
C281 C279 1.400 . S
C281 C280 1.387 . S
N282 Co273 2.022 . S
N282 C279 1.351 . S
N282 N283 1.365 . S
N283 C280 1.341 . S
N283 N282 1.365 . S
N283 H303 0.862 . S
C284 C279 1.501 . S
C284 H285 0.961 . S
C284 H286 0.961 . S
C284 H287 0.986 . S
H285 C284 0.961 . S
H286 C284 0.961 . S
H287 C284 0.986 . S
C288 N289 1.342 . S
C288 C292 1.401 . S
C288 C293 1.499 . S
N289 Co272 1.989 . S
N289 C288 1.342 . S
N289 N290 1.388 . S
N290 Co273 1.993 . S
N290 N289 1.388 . S
N290 C291 1.346 . S
C291 N290 1.346 . S
C291 C292 1.396 . S
C291 C301 1.510 . S
C292 C288 1.401 . S
C292 C291 1.396 . S
C293 C288 1.499 . S
C293 H294 0.959 . S
C293 H295 0.960 . S
C293 H296 0.961 . S
H294 C293 0.959 . S
H295 C293 0.960 . S
H296 C293 0.961 . S
O297 Co272 1.967 . S
O297 C305 1.258 . S
O298 Co273 1.941 . S
O298 C305 1.266 . S
H299 C301 0.959 . S
H300 C301 0.961 . S
C301 C291 1.510 . S
C301 H299 0.959 . S
C301 H300 0.961 . S
C301 H302 0.960 . S
H302 C301 0.960 . S
H303 N283 0.862 . S
O304 Co272 1.920 . S
O304 C277 1.289 . S
C305 O297 1.258 . S
C305 O298 1.266 . S
Co306 O309 1.970 . S
Co306 N323 1.989 . S
Co306 O331 1.967 . S
Co306 O338 1.920 . S
Co307 O310 1.966 . S
Co307 N316 2.022 . S
Co307 N324 1.993 . S
Co307 O332 1.941 . S
C308 O309 1.258 . S
C308 O310 1.263 . S
O309 Co306 1.970 . S
O309 C308 1.258 . S
O310 Co307 1.966 . S
O310 C308 1.263 . S
C311 O312 1.235 . S
C311 O338 1.289 . S
O312 C311 1.235 . S
C313 C315 1.400 . S
C313 N316 1.351 . S
C313 C318 1.501 . S
C314 C315 1.387 . S
C314 N317 1.341 . S
C315 C313 1.400 . S
C315 C314 1.387 . S
N316 Co307 2.022 . S
N316 C313 1.351 . S
N316 N317 1.365 . S
N317 C314 1.341 . S
N317 N316 1.365 . S
N317 H337 0.862 . S
C318 C313 1.501 . S
C318 H319 0.961 . S
C318 H320 0.961 . S
C318 H321 0.960 . S
H319 C318 0.961 . S
H320 C318 0.961 . S
H321 C318 0.960 . S
C322 N323 1.342 . S
C322 C326 1.401 . S
C322 C327 1.499 . S
N323 Co306 1.989 . S
N323 C322 1.342 . S
N323 N324 1.388 . S
N324 Co307 1.993 . S
N324 N323 1.388 . S
N324 C325 1.346 . S
C325 N324 1.346 . S
C325 C326 1.396 . S
C325 C335 1.510 . S
C326 C322 1.401 . S
C326 C325 1.396 . S
C327 C322 1.499 . S
C327 H328 0.959 . S
C327 H329 0.960 . S
C327 H330 0.961 . S
H328 C327 0.959 . S
H329 C327 0.960 . S
H330 C327 0.961 . S
O331 Co306 1.967 . S
O331 C339 1.258 . S
O332 Co307 1.941 . S
O332 C339 1.266 . S
H333 C335 0.959 . S
H334 C335 0.961 . S
C335 C325 1.510 . S
C335 H333 0.959 . S
C335 H334 0.961 . S
C335 H336 0.960 . S
H336 C335 0.960 . S
H337 N317 0.862 . S
O338 Co306 1.920 . S
O338 C311 1.289 . S
C339 O331 1.258 . S
C339 O332 1.266 . S
Co340 O343 1.970 . S
Co340 N357 1.989 . S
Co340 O365 1.967 . S
Co340 O372 1.920 . S
Co341 O344 1.966 . S
Co341 N350 2.022 . S
Co341 N358 1.993 . S
Co341 O366 1.941 . S
C342 O343 1.258 . S
C342 O344 1.263 . S
O343 Co340 1.970 . S
O343 C342 1.258 . S
O344 Co341 1.966 . S
O344 C342 1.263 . S
C345 O346 1.235 . S
C345 O372 1.289 . S
O346 C345 1.235 . S
C347 C349 1.400 . S
C347 N350 1.351 . S
C347 C352 1.501 . S
C348 C349 1.387 . S
C348 N351 1.341 . S
C349 C347 1.400 . S
C349 C348 1.387 . S
N350 Co341 2.022 . S
N350 C347 1.351 . S
N350 N351 1.365 . S
N351 C348 1.341 . S
N351 N350 1.365 . S
N351 H371 0.862 . S
C352 C347 1.501 . S
C352 H353 0.961 . S
C352 H354 0.961 . S
C352 H355 0.960 . S
H353 C352 0.961 . S
H354 C352 0.961 . S
H355 C352 0.960 . S
C356 N357 1.342 . S
C356 C360 1.401 . S
C356 C361 1.499 . S
N357 Co340 1.989 . S
N357 C356 1.342 . S
N357 N358 1.388 . S
N358 Co341 1.993 . S
N358 N357 1.388 . S
N358 C359 1.346 . S
C359 N358 1.346 . S
C359 C360 1.396 . S
C359 C369 1.510 . S
C360 C356 1.401 . S
C360 C359 1.396 . S
C361 C356 1.499 . S
C361 H362 0.959 . S
C361 H363 0.960 . S
C361 H364 0.961 . S
H362 C361 0.959 . S
H363 C361 0.960 . S
H364 C361 0.961 . S
O365 Co340 1.967 . S
O365 C373 1.258 . S
O366 Co341 1.941 . S
O366 C373 1.266 . S
H367 C369 0.959 . S
H368 C369 0.961 . S
C369 C359 1.510 . S
C369 H367 0.959 . S
C369 H368 0.961 . S
C369 H370 0.960 . S
H370 C369 0.960 . S
H371 N351 0.862 . S
O372 Co340 1.920 . S
O372 C345 1.289 . S
C373 O365 1.258 . S
C373 O366 1.266 . S
Co374 O377 1.970 . S
Co374 N391 1.989 . S
Co374 O399 1.967 . S
Co374 O406 1.920 . S
Co375 O378 1.966 . S
Co375 N384 2.022 . S
Co375 N392 1.993 . S
Co375 O400 1.941 . S
C376 O377 1.258 . S
C376 O378 1.263 . S
O377 Co374 1.970 . S
O377 C376 1.258 . S
O378 Co375 1.966 . S
O378 C376 1.263 . S
C379 O380 1.235 . S
C379 O406 1.289 . S
O380 C379 1.235 . S
C381 C383 1.400 . S
C381 N384 1.351 . S
C381 C386 1.501 . S
C382 C383 1.387 . S
C382 N385 1.341 . S
C383 C381 1.400 . S
C383 C382 1.387 . S
N384 Co375 2.022 . S
N384 C381 1.351 . S
N384 N385 1.365 . S
N385 C382 1.341 . S
N385 N384 1.365 . S
N385 H405 0.862 . S
C386 C381 1.501 . S
C386 H387 0.961 . S
C386 H388 0.961 . S
C386 H389 0.960 . S
H387 C386 0.961 . S
H388 C386 0.961 . S
H389 C386 0.960 . S
C390 N391 1.342 . S
C390 C394 1.401 . S
C390 C395 1.499 . S
N391 Co374 1.989 . S
N391 C390 1.342 . S
N391 N392 1.388 . S
N392 Co375 1.993 . S
N392 N391 1.388 . S
N392 C393 1.346 . S
C393 N392 1.346 . S
C393 C394 1.396 . S
C393 C403 1.510 . S
C394 C390 1.401 . S
C394 C393 1.396 . S
C395 C390 1.499 . S
C395 H396 0.959 . S
C395 H397 0.960 . S
C395 H398 0.961 . S
H396 C395 0.959 . S
H397 C395 0.960 . S
H398 C395 0.961 . S
O399 Co374 1.967 . S
O399 C407 1.258 . S
O400 Co375 1.941 . S
O400 C407 1.266 . S
H401 C403 0.959 . S
H402 C403 0.961 . S
C403 C393 1.510 . S
C403 H401 0.959 . S
C403 H402 0.961 . S
C403 H404 0.960 . S
H404 C403 0.960 . S
H405 N385 0.862 . S
O406 Co374 1.920 . S
O406 C379 1.289 . S
C407 O399 1.258 . S
C407 O400 1.266 . S
H408 C420 0.930 . S
H409 C422 0.930 . S
H410 C423 0.930 . S
H411 C427 0.959 . S
H412 C427 0.959 . S
H413 C427 0.961 . S
H414 C428 0.960 . S
H415 C428 0.961 . S
H416 C428 0.959 . S
H417 C431 0.929 . S
H418 C432 0.931 . S
H419 C434 0.930 . S
C420 H408 0.930 . S
C420 C421 1.399 . S
C420 C425 1.399 . S
C421 C420 1.399 . S
C421 C422 1.376 . S
C422 H409 0.930 . S
C422 C421 1.376 . S
C422 C423 1.388 . S
C423 H410 0.930 . S
C423 C422 1.388 . S
C423 C424 1.390 . S
C424 C423 1.390 . S
C424 C425 1.394 . S
C424 C430 1.465 . S
C425 C420 1.399 . S
C425 C424 1.394 . S
C425 C426 1.516 . S
C426 C425 1.516 . S
C426 C427 1.502 . S
C426 C428 1.561 . S
C426 C429 1.526 . S
C427 H411 0.959 . S
C427 H412 0.959 . S
C427 H413 0.961 . S
C427 C426 1.502 . S
C428 H414 0.960 . S
C428 H415 0.961 . S
C428 H416 0.959 . S
C428 C426 1.561 . S
C429 C426 1.526 . S
C429 C430 1.396 . S
C429 C434 1.390 . S
C430 C424 1.465 . S
C430 C429 1.396 . S
C430 C431 1.399 . S
C431 H417 0.929 . S
C431 C430 1.399 . S
C431 C432 1.385 . S
C432 H418 0.931 . S
C432 C431 1.385 . S
C432 C433 1.389 . S
C433 C432 1.389 . S
C433 C434 1.387 . S
C434 H419 0.930 . S
C434 C429 1.390 . S
C434 C433 1.387 . S
H435 C447 0.930 . S
H436 C449 0.930 . S
H437 C450 0.930 . S
H438 C454 0.959 . S
H439 C454 0.959 . S
H440 C454 0.961 . S
H441 C455 0.960 . S
H442 C455 0.961 . S
H443 C455 0.959 . S
H444 C458 0.929 . S
H445 C459 0.931 . S
H446 C461 0.930 . S
C447 H435 0.930 . S
C447 C448 1.399 . S
C447 C452 1.399 . S
C448 C447 1.399 . S
C448 C449 1.376 . S
C449 H436 0.930 . S
C449 C448 1.376 . S
C449 C450 1.388 . S
C450 H437 0.930 . S
C450 C449 1.388 . S
C450 C451 1.390 . S
C451 C450 1.390 . S
C451 C452 1.394 . S
C451 C457 1.465 . S
C452 C447 1.399 . S
C452 C451 1.394 . S
C452 C453 1.516 . S
C453 C452 1.516 . S
C453 C454 1.502 . S
C453 C455 1.561 . S
C453 C456 1.526 . S
C454 H438 0.959 . S
C454 H439 0.959 . S
C454 H440 0.961 . S
C454 C453 1.502 . S
C455 H441 0.960 . S
C455 H442 0.961 . S
C455 H443 0.959 . S
C455 C453 1.561 . S
C456 C453 1.526 . S
C456 C457 1.396 . S
C456 C461 1.390 . S
C457 C451 1.465 . S
C457 C456 1.396 . S
C457 C458 1.399 . S
C458 H444 0.929 . S
C458 C457 1.399 . S
C458 C459 1.385 . S
C459 H445 0.931 . S
C459 C458 1.385 . S
C459 C460 1.389 . S
C460 C459 1.389 . S
C460 C461 1.387 . S
C461 H446 0.930 . S
C461 C456 1.390 . S
C461 C460 1.387 . S
H462 C474 0.930 . S
H463 C476 0.930 . S
H464 C477 0.930 . S
H465 C481 0.959 . S
H466 C481 0.959 . S
H467 C481 0.961 . S
H468 C482 0.960 . S
H469 C482 0.961 . S
H470 C482 0.959 . S
H471 C485 0.929 . S
H472 C486 0.931 . S
H473 C488 0.930 . S
C474 H462 0.930 . S
C474 C475 1.399 . S
C474 C479 1.399 . S
C475 C474 1.399 . S
C475 C476 1.376 . S
C476 H463 0.930 . S
C476 C475 1.376 . S
C476 C477 1.388 . S
C477 H464 0.930 . S
C477 C476 1.388 . S
C477 C478 1.390 . S
C478 C477 1.390 . S
C478 C479 1.394 . S
C478 C484 1.465 . S
C479 C474 1.399 . S
C479 C478 1.394 . S
C479 C480 1.516 . S
C480 C479 1.516 . S
C480 C481 1.502 . S
C480 C482 1.561 . S
C480 C483 1.526 . S
C481 H465 0.959 . S
C481 H466 0.959 . S
C481 H467 0.961 . S
C481 C480 1.502 . S
C482 H468 0.960 . S
C482 H469 0.961 . S
C482 H470 0.959 . S
C482 C480 1.561 . S
C483 C480 1.526 . S
C483 C484 1.396 . S
C483 C488 1.390 . S
C484 C478 1.465 . S
C484 C483 1.396 . S
C484 C485 1.399 . S
C485 H471 0.929 . S
C485 C484 1.399 . S
C485 C486 1.385 . S
C486 H472 0.931 . S
C486 C485 1.385 . S
C486 C487 1.389 . S
C487 C486 1.389 . S
C487 C488 1.387 . S
C488 H473 0.930 . S
C488 C483 1.390 . S
C488 C487 1.387 . S
H489 C501 0.930 . S
H490 C503 0.930 . S
H491 C504 0.930 . S
H492 C508 0.959 . S
H493 C508 0.959 . S
H494 C508 0.961 . S
H495 C509 0.960 . S
H496 C509 0.961 . S
H497 C509 0.959 . S
H498 C512 0.929 . S
H499 C513 0.931 . S
H500 C515 0.930 . S
C501 H489 0.930 . S
C501 C502 1.399 . S
C501 C506 1.399 . S
C502 C501 1.399 . S
C502 C503 1.376 . S
C503 H490 0.930 . S
C503 C502 1.376 . S
C503 C504 1.388 . S
C504 H491 0.930 . S
C504 C503 1.388 . S
C504 C505 1.390 . S
C505 C504 1.390 . S
C505 C506 1.394 . S
C505 C511 1.465 . S
C506 C501 1.399 . S
C506 C505 1.394 . S
C506 C507 1.516 . S
C507 C506 1.516 . S
C507 C508 1.502 . S
C507 C509 1.561 . S
C507 C510 1.526 . S
C508 H492 0.959 . S
C508 H493 0.959 . S
C508 H494 0.961 . S
C508 C507 1.502 . S
C509 H495 0.960 . S
C509 H496 0.961 . S
C509 H497 0.959 . S
C509 C507 1.561 . S
C510 C507 1.526 . S
C510 C511 1.396 . S
C510 C515 1.390 . S
C511 C505 1.465 . S
C511 C510 1.396 . S
C511 C512 1.399 . S
C512 H498 0.929 . S
C512 C511 1.399 . S
C512 C513 1.385 . S
C513 H499 0.931 . S
C513 C512 1.385 . S
C513 C514 1.389 . S
C514 C513 1.389 . S
C514 C515 1.387 . S
C515 H500 0.930 . S
C515 C510 1.390 . S
C515 C514 1.387 . S
H516 C528 0.930 . S
H517 C530 0.930 . S
H518 C531 0.930 . S
H519 C535 0.959 . S
H520 C535 0.959 . S
H521 C535 0.961 . S
H522 C536 0.960 . S
H523 C536 0.961 . S
H524 C536 0.959 . S
H525 C539 0.929 . S
H526 C540 0.931 . S
H527 C542 0.930 . S
C528 H516 0.930 . S
C528 C529 1.399 . S
C528 C533 1.399 . S
C529 C528 1.399 . S
C529 C530 1.376 . S
C530 H517 0.930 . S
C530 C529 1.376 . S
C530 C531 1.388 . S
C531 H518 0.930 . S
C531 C530 1.388 . S
C531 C532 1.390 . S
C532 C531 1.390 . S
C532 C533 1.394 . S
C532 C538 1.465 . S
C533 C528 1.399 . S
C533 C532 1.394 . S
C533 C534 1.516 . S
C534 C533 1.516 . S
C534 C535 1.502 . S
C534 C536 1.561 . S
C534 C537 1.526 . S
C535 H519 0.959 . S
C535 H520 0.959 . S
C535 H521 0.961 . S
C535 C534 1.502 . S
C536 H522 0.960 . S
C536 H523 0.961 . S
C536 H524 0.959 . S
C536 C534 1.561 . S
C537 C534 1.526 . S
C537 C538 1.396 . S
C537 C542 1.390 . S
C538 C532 1.465 . S
C538 C537 1.396 . S
C538 C539 1.399 . S
C539 H525 0.929 . S
C539 C538 1.399 . S
C539 C540 1.385 . S
C540 H526 0.931 . S
C540 C539 1.385 . S
C540 C541 1.389 . S
C541 C540 1.389 . S
C541 C542 1.387 . S
C542 H527 0.930 . S
C542 C537 1.390 . S
C542 C541 1.387 . S
H543 C555 0.930 . S
H544 C557 0.930 . S
H545 C558 0.930 . S
H546 C562 0.959 . S
H547 C562 0.959 . S
H548 C562 0.961 . S
H549 C563 0.960 . S
H550 C563 0.961 . S
H551 C563 0.959 . S
H552 C566 0.929 . S
H553 C567 0.931 . S
H554 C569 0.930 . S
C555 H543 0.930 . S
C555 C556 1.399 . S
C555 C560 1.399 . S
C556 C555 1.399 . S
C556 C557 1.376 . S
C557 H544 0.930 . S
C557 C556 1.376 . S
C557 C558 1.388 . S
C558 H545 0.930 . S
C558 C557 1.388 . S
C558 C559 1.390 . S
C559 C558 1.390 . S
C559 C560 1.394 . S
C559 C565 1.465 . S
C560 C555 1.399 . S
C560 C559 1.394 . S
C560 C561 1.516 . S
C561 C560 1.516 . S
C561 C562 1.502 . S
C561 C563 1.561 . S
C561 C564 1.526 . S
C562 H546 0.959 . S
C562 H547 0.959 . S
C562 H548 0.961 . S
C562 C561 1.502 . S
C563 H549 0.960 . S
C563 H550 0.961 . S
C563 H551 0.959 . S
C563 C561 1.561 . S
C564 C561 1.526 . S
C564 C565 1.396 . S
C564 C569 1.390 . S
C565 C559 1.465 . S
C565 C564 1.396 . S
C565 C566 1.399 . S
C566 H552 0.929 . S
C566 C565 1.399 . S
C566 C567 1.385 . S
C567 H553 0.931 . S
C567 C566 1.385 . S
C567 C568 1.389 . S
C568 C567 1.389 . S
C568 C569 1.387 . S
C569 H554 0.930 . S
C569 C564 1.390 . S
C569 C568 1.387 . S
H570 C582 0.930 . S
H571 C584 0.930 . S
H572 C585 0.930 . S
H573 C589 0.959 . S
H574 C589 0.959 . S
H575 C589 0.961 . S
H576 C590 0.960 . S
H577 C590 0.961 . S
H578 C590 0.959 . S
H579 C593 0.929 . S
H580 C594 0.931 . S
H581 C596 0.930 . S
C582 H570 0.930 . S
C582 C583 1.399 . S
C582 C587 1.399 . S
C583 C582 1.399 . S
C583 C584 1.376 . S
C584 H571 0.930 . S
C584 C583 1.376 . S
C584 C585 1.388 . S
C585 H572 0.930 . S
C585 C584 1.388 . S
C585 C586 1.390 . S
C586 C585 1.390 . S
C586 C587 1.394 . S
C586 C592 1.465 . S
C587 C582 1.399 . S
C587 C586 1.394 . S
C587 C588 1.516 . S
C588 C587 1.516 . S
C588 C589 1.502 . S
C588 C590 1.561 . S
C588 C591 1.526 . S
C589 H573 0.959 . S
C589 H574 0.959 . S
C589 H575 0.961 . S
C589 C588 1.502 . S
C590 H576 0.960 . S
C590 H577 0.961 . S
C590 H578 0.959 . S
C590 C588 1.561 . S
C591 C588 1.526 . S
C591 C592 1.396 . S
C591 C596 1.390 . S
C592 C586 1.465 . S
C592 C591 1.396 . S
C592 C593 1.399 . S
C593 H579 0.929 . S
C593 C592 1.399 . S
C593 C594 1.385 . S
C594 H580 0.931 . S
C594 C593 1.385 . S
C594 C595 1.389 . S
C595 C594 1.389 . S
C595 C596 1.387 . S
C596 H581 0.930 . S
C596 C591 1.390 . S
C596 C595 1.387 . S
H597 C609 0.930 . S
H598 C611 0.930 . S
H599 C612 0.930 . S
H600 C616 0.959 . S
H601 C616 0.959 1_565 S
H602 C616 0.964 . S
H603 C617 0.960 . S
H604 C617 0.961 . S
H605 C617 0.959 . S
H606 C620 0.929 . S
H607 C621 0.931 . S
H608 C623 0.930 . S
C609 H597 0.930 . S
C609 C610 1.399 . S
C609 C614 1.399 . S
C610 C609 1.399 . S
C610 C611 1.376 . S
C611 H598 0.930 . S
C611 C610 1.376 . S
C611 C612 1.388 . S
C612 H599 0.930 . S
C612 C611 1.388 . S
C612 C613 1.390 . S
C613 C612 1.390 . S
C613 C614 1.394 . S
C613 C619 1.465 . S
C614 C609 1.399 . S
C614 C613 1.394 . S
C614 C615 1.516 . S
C615 C614 1.516 . S
C615 C616 1.502 . S
C615 C617 1.561 . S
C615 C618 1.526 . S
C616 H600 0.959 . S
C616 H601 0.959 1_545 S
C616 H602 0.964 . S
C616 C615 1.502 . S
C617 H603 0.960 . S
C617 H604 0.961 . S
C617 H605 0.959 . S
C617 C615 1.561 . S
C618 C615 1.526 . S
C618 C619 1.396 . S
C618 C623 1.390 . S
C619 C613 1.465 . S
C619 C618 1.396 . S
C619 C620 1.399 . S
C620 H606 0.929 . S
C620 C619 1.399 . S
C620 C621 1.385 . S
C621 H607 0.931 . S
C621 C620 1.385 . S
C621 C622 1.389 . S
C622 C621 1.389 . S
C622 C623 1.387 . S
C623 H608 0.930 . S
C623 C618 1.390 . S
C623 C622 1.387 . S
H624 C636 0.930 . S
H625 C638 0.930 . S
H626 C639 0.930 . S
H627 C643 0.959 . S
H628 C643 0.959 . S
H629 C643 0.961 . S
H630 C644 0.960 . S
H631 C644 0.961 . S
H632 C644 0.959 . S
H633 C647 0.929 . S
H634 C648 0.931 . S
H635 C650 0.930 . S
C636 H624 0.930 . S
C636 C637 1.399 . S
C636 C641 1.399 . S
C637 C636 1.399 . S
C637 C638 1.376 . S
C638 H625 0.930 . S
C638 C637 1.376 . S
C638 C639 1.388 . S
C639 H626 0.930 . S
C639 C638 1.388 . S
C639 C640 1.390 . S
C640 C639 1.390 . S
C640 C641 1.394 . S
C640 C646 1.465 . S
C641 C636 1.399 . S
C641 C640 1.394 . S
C641 C642 1.516 . S
C642 C641 1.516 . S
C642 C643 1.502 . S
C642 C644 1.561 . S
C642 C645 1.526 . S
C643 H627 0.959 . S
C643 H628 0.959 . S
C643 H629 0.961 . S
C643 C642 1.502 . S
C644 H630 0.960 . S
C644 H631 0.961 . S
C644 H632 0.959 . S
C644 C642 1.561 . S
C645 C642 1.526 . S
C645 C646 1.396 . S
C645 C650 1.390 . S
C646 C640 1.465 . S
C646 C645 1.396 . S
C646 C647 1.399 . S
C647 H633 0.929 . S
C647 C646 1.399 . S
C647 C648 1.385 . S
C648 H634 0.931 . S
C648 C647 1.385 . S
C648 C649 1.389 . S
C649 C648 1.389 . S
C649 C650 1.387 . S
C650 H635 0.930 . S
C650 C645 1.390 . S
C650 C649 1.387 . S
H651 C663 0.930 . S
H652 C665 0.930 . S
H653 C666 0.930 . S
H654 C670 0.959 . S
H655 C670 0.959 . S
H656 C670 0.961 . S
H657 C671 0.960 . S
H658 C671 0.961 . S
H659 C671 0.959 . S
H660 C674 0.929 . S
H661 C675 0.931 . S
H662 C677 0.930 . S
C663 H651 0.930 . S
C663 C664 1.399 . S
C663 C668 1.399 . S
C664 C663 1.399 . S
C664 C665 1.376 . S
C665 H652 0.930 . S
C665 C664 1.376 . S
C665 C666 1.388 . S
C666 H653 0.930 . S
C666 C665 1.388 . S
C666 C667 1.390 . S
C667 C666 1.390 . S
C667 C668 1.394 . S
C667 C673 1.465 . S
C668 C663 1.399 . S
C668 C667 1.394 . S
C668 C669 1.516 . S
C669 C668 1.516 . S
C669 C670 1.502 . S
C669 C671 1.561 . S
C669 C672 1.526 . S
C670 H654 0.959 . S
C670 H655 0.959 . S
C670 H656 0.961 . S
C670 C669 1.502 . S
C671 H657 0.960 . S
C671 H658 0.961 . S
C671 H659 0.959 . S
C671 C669 1.561 . S
C672 C669 1.526 . S
C672 C673 1.396 . S
C672 C677 1.390 . S
C673 C667 1.465 . S
C673 C672 1.396 . S
C673 C674 1.399 . S
C674 H660 0.929 . S
C674 C673 1.399 . S
C674 C675 1.385 . S
C675 H661 0.931 . S
C675 C674 1.385 . S
C675 C676 1.389 . S
C676 C675 1.389 . S
C676 C677 1.387 . S
C677 H662 0.930 . S
C677 C672 1.390 . S
C677 C676 1.387 . S
H678 C690 0.930 . S
H679 C692 0.930 . S
H680 C693 0.930 . S
H681 C697 0.959 . S
H682 C697 0.959 . S
H683 C697 0.961 . S
H684 C698 0.960 . S
H685 C698 0.961 . S
H686 C698 0.959 . S
H687 C701 0.929 . S
H688 C702 0.931 . S
H689 C704 0.930 . S
C690 H678 0.930 . S
C690 C691 1.399 . S
C690 C695 1.399 . S
C691 C690 1.399 . S
C691 C692 1.376 . S
C692 H679 0.930 . S
C692 C691 1.376 . S
C692 C693 1.388 . S
C693 H680 0.930 . S
C693 C692 1.388 . S
C693 C694 1.390 . S
C694 C693 1.390 . S
C694 C695 1.394 . S
C694 C700 1.465 . S
C695 C690 1.399 . S
C695 C694 1.394 . S
C695 C696 1.516 . S
C696 C695 1.516 . S
C696 C697 1.502 . S
C696 C698 1.561 . S
C696 C699 1.526 . S
C697 H681 0.959 . S
C697 H682 0.959 . S
C697 H683 0.961 . S
C697 C696 1.502 . S
C698 H684 0.960 . S
C698 H685 0.961 . S
C698 H686 0.959 . S
C698 C696 1.561 . S
C699 C696 1.526 . S
C699 C700 1.396 . S
C699 C704 1.390 . S
C700 C694 1.465 . S
C700 C699 1.396 . S
C700 C701 1.399 . S
C701 H687 0.929 . S
C701 C700 1.399 . S
C701 C702 1.385 . S
C702 H688 0.931 . S
C702 C701 1.385 . S
C702 C703 1.389 . S
C703 C702 1.389 . S
C703 C704 1.387 . S
C704 H689 0.930 . S
C704 C699 1.390 . S
C704 C703 1.387 . S
H705 C717 0.930 . S
H706 C719 0.930 . S
H707 C720 0.930 . S
H708 C724 0.959 . S
H709 C724 0.959 . S
H710 C724 0.961 . S
H711 C725 0.960 . S
H712 C725 0.961 . S
H713 C725 0.959 . S
H714 C728 0.929 . S
H715 C729 0.931 . S
H716 C731 0.930 . S
C717 H705 0.930 . S
C717 C718 1.399 . S
C717 C722 1.399 . S
C718 C717 1.399 . S
C718 C719 1.376 . S
C719 H706 0.930 . S
C719 C718 1.376 . S
C719 C720 1.388 . S
C720 H707 0.930 . S
C720 C719 1.388 . S
C720 C721 1.390 . S
C721 C720 1.390 . S
C721 C722 1.394 . S
C721 C727 1.465 . S
C722 C717 1.399 . S
C722 C721 1.394 . S
C722 C723 1.516 . S
C723 C722 1.516 . S
C723 C724 1.502 . S
C723 C725 1.561 . S
C723 C726 1.526 . S
C724 H708 0.959 . S
C724 H709 0.959 . S
C724 H710 0.961 . S
C724 C723 1.502 . S
C725 H711 0.960 . S
C725 H712 0.961 . S
C725 H713 0.959 . S
C725 C723 1.561 . S
C726 C723 1.526 . S
C726 C727 1.396 . S
C726 C731 1.390 . S
C727 C721 1.465 . S
C727 C726 1.396 . S
C727 C728 1.399 . S
C728 H714 0.929 . S
C728 C727 1.399 . S
C728 C729 1.385 . S
C729 H715 0.931 . S
C729 C728 1.385 . S
C729 C730 1.389 . S
C730 C729 1.389 . S
C730 C731 1.387 . S
C731 H716 0.930 . S
C731 C726 1.390 . S
C731 C730 1.387 . S
H732 C744 0.930 . S
H733 C746 0.930 . S
H734 C747 0.930 . S
H735 C751 0.959 . S
H736 C751 0.959 . S
H737 C751 0.961 . S
H738 C752 0.960 . S
H739 C752 0.961 . S
H740 C752 0.959 . S
H741 C755 0.929 . S
H742 C756 0.931 . S
H743 C758 0.930 . S
C744 H732 0.930 . S
C744 C745 1.399 . S
C744 C749 1.399 . S
C745 C744 1.399 . S
C745 C746 1.376 1_655 S
C746 H733 0.930 . S
C746 C745 1.376 1_455 S
C746 C747 1.388 . S
C747 H734 0.930 . S
C747 C746 1.388 . S
C747 C748 1.390 . S
C748 C747 1.390 . S
C748 C749 1.394 1_455 S
C748 C754 1.465 . S
C749 C744 1.399 . S
C749 C748 1.394 1_655 S
C749 C750 1.516 . S
C750 C749 1.516 . S
C750 C751 1.502 . S
C750 C752 1.561 . S
C750 C753 1.526 . S
C751 H735 0.959 . S
C751 H736 0.959 . S
C751 H737 0.961 . S
C751 C750 1.502 . S
C752 H738 0.960 . S
C752 H739 0.961 . S
C752 H740 0.959 . S
C752 C750 1.561 . S
C753 C750 1.526 . S
C753 C754 1.396 1_655 S
C753 C758 1.390 . S
C754 C748 1.465 . S
C754 C753 1.396 1_455 S
C754 C755 1.399 . S
C755 H741 0.929 . S
C755 C754 1.399 . S
C755 C756 1.385 . S
C756 H742 0.931 . S
C756 C755 1.385 . S
C756 C757 1.389 . S
C757 C756 1.389 . S
C757 C758 1.387 1_455 S
C758 H743 0.930 . S
C758 C753 1.390 . S
C758 C757 1.387 1_655 S
H759 C771 0.930 . S
H760 C773 0.930 . S
H761 C774 0.930 . S
H762 C778 0.959 . S
H763 C778 0.959 . S
H764 C778 0.961 1_556 S
H765 C779 0.960 1_556 S
H766 C779 0.961 . S
H767 C779 0.959 . S
H768 C782 0.929 . S
H769 C783 0.931 . S
H770 C785 0.930 . S
C771 H759 0.930 . S
C771 C772 1.399 . S
C771 C776 1.399 . S
C772 C771 1.399 . S
C772 C773 1.376 1_565 S
C773 H760 0.930 . S
C773 C772 1.376 1_545 S
C773 C774 1.388 . S
C774 H761 0.930 . S
C774 C773 1.388 . S
C774 C775 1.390 . S
C775 C774 1.390 . S
C775 C776 1.394 1_545 S
C775 C781 1.465 1_556 S
C776 C771 1.399 . S
C776 C775 1.394 1_565 S
C776 C777 1.516 1_556 S
C777 C776 1.516 1_554 S
C777 C778 1.502 . S
C777 C779 1.561 . S
C777 C780 1.526 . S
C778 H762 0.959 . S
C778 H763 0.959 . S
C778 H764 0.961 1_554 S
C778 C777 1.502 . S
C779 H765 0.960 1_554 S
C779 H766 0.961 . S
C779 H767 0.959 . S
C779 C777 1.561 . S
C780 C777 1.526 . S
C780 C781 1.396 1_565 S
C780 C785 1.390 . S
C781 C775 1.465 1_554 S
C781 C780 1.396 1_545 S
C781 C782 1.399 . S
C782 H768 0.929 . S
C782 C781 1.399 . S
C782 C783 1.385 . S
C783 H769 0.931 . S
C783 C782 1.385 . S
C783 C784 1.389 . S
C784 C783 1.389 . S
C784 C785 1.387 1_545 S
C785 H770 0.930 . S
C785 C780 1.390 . S
C785 C784 1.387 1_565 S
H786 C798 0.930 . S
H787 C800 0.930 . S
H788 C801 0.930 . S
H789 C805 0.959 . S
H790 C805 0.959 . S
H791 C805 0.961 . S
H792 C806 0.960 . S
H793 C806 0.961 . S
H794 C806 0.959 . S
H795 C809 0.929 . S
H796 C810 0.931 . S
H797 C812 0.930 . S
C798 H786 0.930 . S
C798 C799 1.399 . S
C798 C803 1.399 . S
C799 C798 1.399 . S
C799 C800 1.376 . S
C800 H787 0.930 . S
C800 C799 1.376 . S
C800 C801 1.388 . S
C801 H788 0.930 . S
C801 C800 1.388 . S
C801 C802 1.390 . S
C802 C801 1.390 . S
C802 C803 1.394 . S
C802 C808 1.465 . S
C803 C798 1.399 . S
C803 C802 1.394 . S
C803 C804 1.516 . S
C804 C803 1.516 . S
C804 C805 1.502 . S
C804 C806 1.561 . S
C804 C807 1.526 . S
C805 H789 0.959 . S
C805 H790 0.959 . S
C805 H791 0.961 . S
C805 C804 1.502 . S
C806 H792 0.960 . S
C806 H793 0.961 . S
C806 H794 0.959 . S
C806 C804 1.561 . S
C807 C804 1.526 . S
C807 C808 1.396 . S
C807 C812 1.390 . S
C808 C802 1.465 . S
C808 C807 1.396 . S
C808 C809 1.399 . S
C809 H795 0.929 . S
C809 C808 1.399 . S
C809 C810 1.385 . S
C810 H796 0.931 . S
C810 C809 1.385 . S
C810 C811 1.389 . S
C811 C810 1.389 . S
C811 C812 1.387 . S
C812 H797 0.930 . S
C812 C807 1.390 . S
C812 C811 1.387 . S
H813 C825 0.930 . S
H814 C827 0.930 . S
H815 C828 0.930 . S
H816 C832 0.959 . S
H817 C832 0.959 . S
H818 C832 0.961 . S
H819 C833 0.960 . S
H820 C833 0.961 . S
H821 C833 0.959 . S
H822 C836 0.929 . S
H823 C837 0.931 . S
H824 C839 0.930 . S
C825 H813 0.930 . S
C825 C826 1.399 . S
C825 C830 1.399 . S
C826 C825 1.399 . S
C826 C827 1.376 . S
C827 H814 0.930 . S
C827 C826 1.376 . S
C827 C828 1.388 . S
C828 H815 0.930 . S
C828 C827 1.388 . S
C828 C829 1.390 . S
C829 C828 1.390 . S
C829 C830 1.394 . S
C829 C835 1.465 1_655 S
C830 C825 1.399 . S
C830 C829 1.394 . S
C830 C831 1.516 . S
C831 C830 1.516 . S
C831 C832 1.502 1_655 S
C831 C833 1.561 . S
C831 C834 1.526 1_655 S
C832 H816 0.959 . S
C832 H817 0.959 . S
C832 H818 0.961 . S
C832 C831 1.502 1_455 S
C833 H819 0.960 . S
C833 H820 0.961 . S
C833 H821 0.959 . S
C833 C831 1.561 . S
C834 C831 1.526 1_455 S
C834 C835 1.396 . S
C834 C839 1.390 . S
C835 C829 1.465 1_455 S
C835 C834 1.396 . S
C835 C836 1.399 . S
C836 H822 0.929 . S
C836 C835 1.399 . S
C836 C837 1.385 . S
C837 H823 0.931 . S
C837 C836 1.385 . S
C837 C838 1.389 . S
C838 C837 1.389 . S
C838 C839 1.387 . S
C839 H824 0.930 . S
C839 C834 1.390 . S
C839 C838 1.387 . S
H840 C852 0.930 . S
H841 C854 0.930 . S
H842 C855 0.930 . S
H843 C859 0.959 . S
H844 C859 0.959 . S
H845 C859 0.961 . S
H846 C860 0.960 . S
H847 C860 0.961 . S
H848 C860 0.959 . S
H849 C863 0.929 . S
H850 C864 0.931 . S
H851 C866 0.930 . S
C852 H840 0.930 . S
C852 C853 1.399 1_545 S
C852 C857 1.399 . S
C853 C852 1.399 1_565 S
C853 C854 1.376 . S
C854 H841 0.930 . S
C854 C853 1.376 . S
C854 C855 1.388 . S
C855 H842 0.930 . S
C855 C854 1.388 . S
C855 C856 1.390 . S
C856 C855 1.390 . S
C856 C857 1.394 1_565 S
C856 C862 1.465 . S
C857 C852 1.399 . S
C857 C856 1.394 1_545 S
C857 C858 1.516 . S
C858 C857 1.516 . S
C858 C859 1.502 . S
C858 C860 1.561 . S
C858 C861 1.526 . S
C859 H843 0.959 . S
C859 H844 0.959 . S
C859 H845 0.961 . S
C859 C858 1.502 . S
C860 H846 0.960 . S
C860 H847 0.961 . S
C860 H848 0.959 . S
C860 C858 1.561 . S
C861 C858 1.526 . S
C861 C862 1.396 1_545 S
C861 C866 1.390 . S
C862 C856 1.465 . S
C862 C861 1.396 1_565 S
C862 C863 1.399 . S
C863 H849 0.929 . S
C863 C862 1.399 . S
C863 C864 1.385 . S
C864 H850 0.931 . S
C864 C863 1.385 . S
C864 C865 1.389 1_565 S
C865 C864 1.389 1_545 S
C865 C866 1.387 . S
C866 H851 0.930 . S
C866 C861 1.390 . S
C866 C865 1.387 . S
H867 C879 0.930 . S
H868 C881 0.930 . S
H869 C882 0.930 . S
H870 C886 0.959 . S
H871 C886 0.959 . S
H872 C886 0.961 . S
H873 C887 0.960 . S
H874 C887 0.961 . S
H875 C887 0.959 . S
H876 C890 0.929 . S
H877 C891 0.931 . S
H878 C893 0.930 . S
C879 H867 0.930 . S
C879 C880 1.399 . S
C879 C884 1.399 . S
C880 C879 1.399 . S
C880 C881 1.376 . S
C881 H868 0.930 . S
C881 C880 1.376 . S
C881 C882 1.388 . S
C882 H869 0.930 . S
C882 C881 1.388 . S
C882 C883 1.390 . S
C883 C882 1.390 . S
C883 C884 1.394 . S
C883 C889 1.465 . S
C884 C879 1.399 . S
C884 C883 1.394 . S
C884 C885 1.516 . S
C885 C884 1.516 . S
C885 C886 1.502 . S
C885 C887 1.561 . S
C885 C888 1.526 . S
C886 H870 0.959 . S
C886 H871 0.959 . S
C886 H872 0.961 . S
C886 C885 1.502 . S
C887 H873 0.960 . S
C887 H874 0.961 . S
C887 H875 0.959 . S
C887 C885 1.561 . S
C888 C885 1.526 . S
C888 C889 1.396 . S
C888 C893 1.390 . S
C889 C883 1.465 . S
C889 C888 1.396 . S
C889 C890 1.399 . S
C890 H876 0.929 . S
C890 C889 1.399 . S
C890 C891 1.385 . S
C891 H877 0.931 . S
C891 C890 1.385 . S
C891 C892 1.389 . S
C892 C891 1.389 . S
C892 C893 1.387 . S
C893 H878 0.930 . S
C893 C888 1.390 . S
C893 C892 1.387 . S
H894 C906 0.930 . S
H895 C908 0.930 . S
H896 C909 0.930 . S
H897 C913 0.959 . S
H898 C913 0.959 . S
H899 C913 0.961 . S
H900 C914 0.960 . S
H901 C914 0.961 . S
H902 C914 0.959 . S
H903 C917 0.929 . S
H904 C918 0.931 1_554 S
H905 C920 0.930 . S
C906 H894 0.930 . S
C906 C907 1.399 . S
C906 C911 1.399 . S
C907 C906 1.399 . S
C907 C908 1.376 . S
C908 H895 0.930 . S
C908 C907 1.376 . S
C908 C909 1.388 . S
C909 H896 0.930 . S
C909 C908 1.388 . S
C909 C910 1.390 . S
C910 C909 1.390 . S
C910 C911 1.394 . S
C910 C916 1.465 . S
C911 C906 1.399 . S
C911 C910 1.394 . S
C911 C912 1.516 . S
C912 C911 1.516 . S
C912 C913 1.502 . S
C912 C914 1.561 . S
C912 C915 1.526 . S
C913 H897 0.959 . S
C913 H898 0.959 . S
C913 H899 0.961 . S
C913 C912 1.502 . S
C914 H900 0.960 . S
C914 H901 0.961 . S
C914 H902 0.959 . S
C914 C912 1.561 . S
C915 C912 1.526 . S
C915 C916 1.396 . S
C915 C920 1.390 . S
C916 C910 1.465 . S
C916 C915 1.396 . S
C916 C917 1.399 . S
C917 H903 0.929 . S
C917 C916 1.399 . S
C917 C918 1.385 . S
C918 H904 0.931 1_556 S
C918 C917 1.385 . S
C918 C919 1.389 . S
C919 C918 1.389 . S
C919 C920 1.387 . S
C920 H905 0.930 . S
C920 C915 1.390 . S
C920 C919 1.387 . S
H921 C933 0.930 . S
H922 C935 0.930 1_455 S
H923 C936 0.930 . S
H924 C940 0.959 . S
H925 C940 0.959 . S
H926 C940 0.961 . S
H927 C941 0.960 . S
H928 C941 0.961 . S
H929 C941 0.959 . S
H930 C944 0.929 . S
H931 C945 0.931 . S
H932 C947 0.930 . S
C933 H921 0.930 . S
C933 C934 1.399 . S
C933 C938 1.399 . S
C934 C933 1.399 . S
C934 C935 1.376 . S
C935 H922 0.930 1_655 S
C935 C934 1.376 . S
C935 C936 1.388 . S
C936 H923 0.930 . S
C936 C935 1.388 . S
C936 C937 1.390 . S
C937 C936 1.390 . S
C937 C938 1.394 . S
C937 C943 1.465 . S
C938 C933 1.399 . S
C938 C937 1.394 . S
C938 C939 1.516 . S
C939 C938 1.516 . S
C939 C940 1.502 . S
C939 C941 1.561 . S
C939 C942 1.526 . S
C940 H924 0.959 . S
C940 H925 0.959 . S
C940 H926 0.961 . S
C940 C939 1.502 . S
C941 H927 0.960 . S
C941 H928 0.961 . S
C941 H929 0.959 . S
C941 C939 1.561 . S
C942 C939 1.526 . S
C942 C943 1.396 . S
C942 C947 1.390 . S
C943 C937 1.465 . S
C943 C942 1.396 . S
C943 C944 1.399 . S
C944 H930 0.929 . S
C944 C943 1.399 . S
C944 C945 1.385 . S
C945 H931 0.931 . S
C945 C944 1.385 . S
C945 C946 1.389 . S
C946 C945 1.389 . S
C946 C947 1.387 . S
C947 H932 0.930 . S
C947 C942 1.390 . S
C947 C946 1.387 . S
H948 C960 0.930 . S
H949 C962 0.930 . S
H950 C963 0.930 . S
H951 C967 0.959 . S
H952 C967 0.959 . S
H953 C967 0.961 . S
H954 C968 0.960 . S
H955 C968 0.961 . S
H956 C968 0.959 . S
H957 C971 0.929 . S
H958 C972 0.931 . S
H959 C974 0.930 . S
C960 H948 0.930 . S
C960 C961 1.399 . S
C960 C965 1.399 . S
C961 C960 1.399 . S
C961 C962 1.376 . S
C962 H949 0.930 . S
C962 C961 1.376 . S
C962 C963 1.388 . S
C963 H950 0.930 . S
C963 C962 1.388 . S
C963 C964 1.390 . S
C964 C963 1.390 . S
C964 C965 1.394 . S
C964 C970 1.465 . S
C965 C960 1.399 . S
C965 C964 1.394 . S
C965 C966 1.516 . S
C966 C965 1.516 . S
C966 C967 1.502 . S
C966 C968 1.561 . S
C966 C969 1.526 . S
C967 H951 0.959 . S
C967 H952 0.959 . S
C967 H953 0.961 . S
C967 C966 1.502 . S
C968 H954 0.960 . S
C968 H955 0.961 . S
C968 H956 0.959 . S
C968 C966 1.561 . S
C969 C966 1.526 . S
C969 C970 1.396 . S
C969 C974 1.390 . S
C970 C964 1.465 . S
C970 C969 1.396 . S
C970 C971 1.399 . S
C971 H957 0.929 . S
C971 C970 1.399 . S
C971 C972 1.385 . S
C972 H958 0.931 . S
C972 C971 1.385 . S
C972 C973 1.389 . S
C973 C972 1.389 . S
C973 C974 1.387 . S
C974 H959 0.930 . S
C974 C969 1.390 . S
C974 C973 1.387 . S
H975 C987 0.930 . S
H976 C989 0.930 . S
H977 C990 0.930 . S
H978 C994 0.959 . S
H979 C994 0.959 . S
H980 C994 0.961 . S
H981 C995 0.960 . S
H982 C995 0.961 . S
H983 C995 0.959 . S
H984 C998 0.929 . S
H985 C999 0.931 . S
H986 C1001 0.930 . S
C987 H975 0.930 . S
C987 C988 1.399 . S
C987 C992 1.399 . S
C988 C987 1.399 . S
C988 C989 1.376 . S
C989 H976 0.930 . S
C989 C988 1.376 . S
C989 C990 1.388 . S
C990 H977 0.930 . S
C990 C989 1.388 . S
C990 C991 1.390 . S
C991 C990 1.390 . S
C991 C992 1.394 . S
C991 C997 1.465 . S
C992 C987 1.399 . S
C992 C991 1.394 . S
C992 C993 1.516 . S
C993 C992 1.516 . S
C993 C994 1.502 . S
C993 C995 1.561 . S
C993 C996 1.526 . S
C994 H978 0.959 . S
C994 H979 0.959 . S
C994 H980 0.961 . S
C994 C993 1.502 . S
C995 H981 0.960 . S
C995 H982 0.961 . S
C995 H983 0.959 . S
C995 C993 1.561 . S
C996 C993 1.526 . S
C996 C997 1.396 . S
C996 C1001 1.390 . S
C997 C991 1.465 . S
C997 C996 1.396 . S
C997 C998 1.399 . S
C998 H984 0.929 . S
C998 C997 1.399 . S
C998 C999 1.385 . S
C999 H985 0.931 . S
C999 C998 1.385 . S
C999 C1000 1.389 . S
C1000 C999 1.389 . S
C1000 C1001 1.387 . S
C1001 H986 0.930 . S
C1001 C996 1.390 . S
C1001 C1000 1.387 . S
H1002 C1014 0.930 . S
H1003 C1016 0.930 . S
H1004 C1017 0.930 . S
H1005 C1021 0.959 . S
H1006 C1021 0.959 . S
H1007 C1021 0.961 . S
H1008 C1022 0.960 . S
H1009 C1022 0.961 . S
H1010 C1022 0.959 . S
H1011 C1025 0.929 . S
H1012 C1026 0.931 . S
H1013 C1028 0.930 . S
C1014 H1002 0.930 . S
C1014 C1015 1.399 . S
C1014 C1019 1.399 . S
C1015 C1014 1.399 . S
C1015 C1016 1.376 . S
C1016 H1003 0.930 . S
C1016 C1015 1.376 . S
C1016 C1017 1.388 . S
C1017 H1004 0.930 . S
C1017 C1016 1.388 . S
C1017 C1018 1.390 . S
C1018 C1017 1.390 . S
C1018 C1019 1.394 . S
C1018 C1024 1.465 . S
C1019 C1014 1.399 . S
C1019 C1018 1.394 . S
C1019 C1020 1.516 . S
C1020 C1019 1.516 . S
C1020 C1021 1.502 . S
C1020 C1022 1.561 . S
C1020 C1023 1.526 . S
C1021 H1005 0.959 . S
C1021 H1006 0.959 . S
C1021 H1007 0.961 . S
C1021 C1020 1.502 . S
C1022 H1008 0.960 . S
C1022 H1009 0.961 . S
C1022 H1010 0.959 . S
C1022 C1020 1.561 . S
C1023 C1020 1.526 . S
C1023 C1024 1.396 . S
C1023 C1028 1.390 . S
C1024 C1018 1.465 . S
C1024 C1023 1.396 . S
C1024 C1025 1.399 . S
C1025 H1011 0.929 . S
C1025 C1024 1.399 . S
C1025 C1026 1.385 . S
C1026 H1012 0.931 . S
C1026 C1025 1.385 . S
C1026 C1027 1.389 . S
C1027 C1026 1.389 . S
C1027 C1028 1.387 . S
C1028 H1013 0.930 . S
C1028 C1023 1.390 . S
C1028 C1027 1.387 . S
H1029 C1041 0.930 . S
H1030 C1043 0.930 . S
H1031 C1044 0.930 . S
H1032 C1048 0.959 . S
H1033 C1048 0.959 . S
H1034 C1048 0.961 . S
H1035 C1049 0.960 . S
H1036 C1049 0.961 . S
H1037 C1049 0.959 . S
H1038 C1052 0.929 . S
H1039 C1053 0.931 . S
H1040 C1055 0.930 . S
C1041 H1029 0.930 . S
C1041 C1042 1.399 . S
C1041 C1046 1.399 . S
C1042 C1041 1.399 . S
C1042 C1043 1.376 . S
C1043 H1030 0.930 . S
C1043 C1042 1.376 . S
C1043 C1044 1.388 . S
C1044 H1031 0.930 . S
C1044 C1043 1.388 . S
C1044 C1045 1.390 . S
C1045 C1044 1.390 . S
C1045 C1046 1.394 . S
C1045 C1051 1.465 . S
C1046 C1041 1.399 . S
C1046 C1045 1.394 . S
C1046 C1047 1.516 . S
C1047 C1046 1.516 . S
C1047 C1048 1.502 . S
C1047 C1049 1.561 . S
C1047 C1050 1.526 . S
C1048 H1032 0.959 . S
C1048 H1033 0.959 . S
C1048 H1034 0.961 . S
C1048 C1047 1.502 . S
C1049 H1035 0.960 . S
C1049 H1036 0.961 . S
C1049 H1037 0.959 . S
C1049 C1047 1.561 . S
C1050 C1047 1.526 . S
C1050 C1051 1.396 . S
C1050 C1055 1.390 . S
C1051 C1045 1.465 . S
C1051 C1050 1.396 . S
C1051 C1052 1.399 . S
C1052 H1038 0.929 . S
C1052 C1051 1.399 . S
C1052 C1053 1.385 . S
C1053 H1039 0.931 . S
C1053 C1052 1.385 . S
C1053 C1054 1.389 . S
C1054 C1053 1.389 . S
C1054 C1055 1.387 . S
C1055 H1040 0.930 . S
C1055 C1050 1.390 . S
C1055 C1054 1.387 . S
H1056 C1068 0.930 . S
H1057 C1070 0.930 . S
H1058 C1071 0.930 . S
H1059 C1075 0.959 . S
H1060 C1075 0.959 . S
H1061 C1075 0.961 . S
H1062 C1076 0.960 . S
H1063 C1076 0.961 . S
H1064 C1076 0.959 . S
H1065 C1079 0.929 . S
H1066 C1080 0.931 . S
H1067 C1082 0.930 . S
C1068 H1056 0.930 . S
C1068 C1069 1.399 . S
C1068 C1073 1.399 . S
C1069 C1068 1.399 . S
C1069 C1070 1.376 . S
C1070 H1057 0.930 . S
C1070 C1069 1.376 . S
C1070 C1071 1.388 . S
C1071 H1058 0.930 . S
C1071 C1070 1.388 . S
C1071 C1072 1.390 . S
C1072 C1071 1.390 . S
C1072 C1073 1.394 . S
C1072 C1078 1.465 . S
C1073 C1068 1.399 . S
C1073 C1072 1.394 . S
C1073 C1074 1.516 . S
C1074 C1073 1.516 . S
C1074 C1075 1.502 . S
C1074 C1076 1.561 . S
C1074 C1077 1.526 . S
C1075 H1059 0.959 . S
C1075 H1060 0.959 . S
C1075 H1061 0.961 . S
C1075 C1074 1.502 . S
C1076 H1062 0.960 . S
C1076 H1063 0.961 . S
C1076 H1064 0.959 . S
C1076 C1074 1.561 . S
C1077 C1074 1.526 . S
C1077 C1078 1.396 . S
C1077 C1082 1.390 . S
C1078 C1072 1.465 . S
C1078 C1077 1.396 . S
C1078 C1079 1.399 . S
C1079 H1065 0.929 . S
C1079 C1078 1.399 . S
C1079 C1080 1.385 . S
C1080 H1066 0.931 . S
C1080 C1079 1.385 . S
C1080 C1081 1.389 . S
C1081 C1080 1.389 . S
C1081 C1082 1.387 . S
C1082 H1067 0.930 . S
C1082 C1077 1.390 . S
C1082 C1081 1.387 . S
H1083 C1095 0.930 . S
H1084 C1097 0.930 . S
H1085 C1098 0.930 . S
H1086 C1102 0.959 . S
H1087 C1102 0.959 . S
H1088 C1102 0.961 . S
H1089 C1103 0.960 . S
H1090 C1103 0.961 . S
H1091 C1103 0.959 . S
H1092 C1106 0.929 . S
H1093 C1107 0.931 1_455 S
H1094 C1109 0.930 . S
C1095 H1083 0.930 . S
C1095 C1096 1.399 . S
C1095 C1100 1.399 . S
C1096 C1095 1.399 . S
C1096 C1097 1.376 1_554 S
C1097 H1084 0.930 . S
C1097 C1096 1.376 1_556 S
C1097 C1098 1.388 . S
C1098 H1085 0.930 . S
C1098 C1097 1.388 . S
C1098 C1099 1.390 1_556 S
C1099 C1098 1.390 1_554 S
C1099 C1100 1.394 . S
C1099 C1105 1.465 . S
C1100 C1095 1.399 . S
C1100 C1099 1.394 . S
C1100 C1101 1.516 . S
C1101 C1100 1.516 . S
C1101 C1102 1.502 . S
C1101 C1103 1.561 . S
C1101 C1104 1.526 . S
C1102 H1086 0.959 . S
C1102 H1087 0.959 . S
C1102 H1088 0.961 . S
C1102 C1101 1.502 . S
C1103 H1089 0.960 . S
C1103 H1090 0.961 . S
C1103 H1091 0.959 . S
C1103 C1101 1.561 . S
C1104 C1101 1.526 . S
C1104 C1105 1.396 . S
C1104 C1109 1.390 . S
C1105 C1099 1.465 . S
C1105 C1104 1.396 . S
C1105 C1106 1.399 . S
C1106 H1092 0.929 . S
C1106 C1105 1.399 . S
C1106 C1107 1.385 . S
C1107 H1093 0.931 1_655 S
C1107 C1106 1.385 . S
C1107 C1108 1.389 . S
C1108 C1107 1.389 . S
C1108 C1109 1.387 . S
C1109 H1094 0.930 . S
C1109 C1104 1.390 . S
C1109 C1108 1.387 . S
H1110 C1122 0.930 . S
H1111 C1124 0.930 . S
H1112 C1125 0.930 . S
H1113 C1129 0.959 . S
H1114 C1129 0.959 . S
H1115 C1129 0.961 . S
H1116 C1130 0.960 . S
H1117 C1130 0.961 . S
H1118 C1130 0.959 . S
H1119 C1133 0.929 . S
H1120 C1134 0.931 . S
H1121 C1136 0.930 . S
C1122 H1110 0.930 . S
C1122 C1123 1.399 . S
C1122 C1127 1.399 . S
C1123 C1122 1.399 . S
C1123 C1124 1.376 . S
C1124 H1111 0.930 . S
C1124 C1123 1.376 . S
C1124 C1125 1.388 . S
C1125 H1112 0.930 . S
C1125 C1124 1.388 . S
C1125 C1126 1.390 . S
C1126 C1125 1.390 . S
C1126 C1127 1.394 . S
C1126 C1132 1.465 . S
C1127 C1122 1.399 . S
C1127 C1126 1.394 . S
C1127 C1128 1.516 . S
C1128 C1127 1.516 . S
C1128 C1129 1.502 . S
C1128 C1130 1.561 . S
C1128 C1131 1.526 . S
C1129 H1113 0.959 . S
C1129 H1114 0.959 . S
C1129 H1115 0.961 . S
C1129 C1128 1.502 . S
C1130 H1116 0.960 . S
C1130 H1117 0.961 . S
C1130 H1118 0.959 . S
C1130 C1128 1.561 . S
C1131 C1128 1.526 . S
C1131 C1132 1.396 . S
C1131 C1136 1.390 . S
C1132 C1126 1.465 . S
C1132 C1131 1.396 . S
C1132 C1133 1.399 . S
C1133 H1119 0.929 . S
C1133 C1132 1.399 . S
C1133 C1134 1.385 . S
C1134 H1120 0.931 . S
C1134 C1133 1.385 . S
C1134 C1135 1.389 . S
C1135 C1134 1.389 . S
C1135 C1136 1.387 . S
C1136 H1121 0.930 . S
C1136 C1131 1.390 . S
C1136 C1135 1.387 . S
H1137 C1149 0.930 . S
H1138 C1151 0.930 . S
H1139 C1152 0.930 . S
H1140 C1156 0.959 . S
H1141 C1156 0.959 . S
H1142 C1156 0.961 . S
H1143 C1157 0.960 . S
H1144 C1157 0.961 . S
H1145 C1157 0.959 . S
H1146 C1160 0.929 . S
H1147 C1161 0.931 . S
H1148 C1163 0.930 . S
C1149 H1137 0.930 . S
C1149 C1150 1.399 . S
C1149 C1154 1.399 . S
C1150 C1149 1.399 . S
C1150 C1151 1.376 . S
C1151 H1138 0.930 . S
C1151 C1150 1.376 . S
C1151 C1152 1.388 . S
C1152 H1139 0.930 . S
C1152 C1151 1.388 . S
C1152 C1153 1.390 . S
C1153 C1152 1.390 . S
C1153 C1154 1.394 . S
C1153 C1159 1.465 . S
C1154 C1149 1.399 . S
C1154 C1153 1.394 . S
C1154 C1155 1.516 . S
C1155 C1154 1.516 . S
C1155 C1156 1.502 . S
C1155 C1157 1.561 . S
C1155 C1158 1.526 . S
C1156 H1140 0.959 . S
C1156 H1141 0.959 . S
C1156 H1142 0.961 . S
C1156 C1155 1.502 . S
C1157 H1143 0.960 . S
C1157 H1144 0.961 . S
C1157 H1145 0.959 . S
C1157 C1155 1.561 . S
C1158 C1155 1.526 . S
C1158 C1159 1.396 . S
C1158 C1163 1.390 . S
C1159 C1153 1.465 . S
C1159 C1158 1.396 . S
C1159 C1160 1.399 . S
C1160 H1146 0.929 . S
C1160 C1159 1.399 . S
C1160 C1161 1.385 . S
C1161 H1147 0.931 . S
C1161 C1160 1.385 . S
C1161 C1162 1.389 . S
C1162 C1161 1.389 . S
C1162 C1163 1.387 . S
C1163 H1148 0.930 . S
C1163 C1158 1.390 . S
C1163 C1162 1.387 . S
H1164 C1176 0.930 . S
H1165 C1178 0.930 . S
H1166 C1179 0.930 . S
H1167 C1183 0.959 . S
H1168 C1183 0.959 . S
H1169 C1183 0.961 . S
H1170 C1184 0.960 . S
H1171 C1184 0.961 . S
H1172 C1184 0.959 . S
H1173 C1187 0.929 . S
H1174 C1188 0.931 . S
H1175 C1190 0.930 . S
C1176 H1164 0.930 . S
C1176 C1177 1.399 . S
C1176 C1181 1.399 . S
C1177 C1176 1.399 . S
C1177 C1178 1.376 . S
C1178 H1165 0.930 . S
C1178 C1177 1.376 . S
C1178 C1179 1.388 . S
C1179 H1166 0.930 . S
C1179 C1178 1.388 . S
C1179 C1180 1.390 . S
C1180 C1179 1.390 . S
C1180 C1181 1.394 . S
C1180 C1186 1.465 . S
C1181 C1176 1.399 . S
C1181 C1180 1.394 . S
C1181 C1182 1.516 . S
C1182 C1181 1.516 . S
C1182 C1183 1.502 . S
C1182 C1184 1.561 . S
C1182 C1185 1.526 . S
C1183 H1167 0.959 . S
C1183 H1168 0.959 . S
C1183 H1169 0.961 . S
C1183 C1182 1.502 . S
C1184 H1170 0.960 . S
C1184 H1171 0.961 . S
C1184 H1172 0.959 . S
C1184 C1182 1.561 . S
C1185 C1182 1.526 . S
C1185 C1186 1.396 . S
C1185 C1190 1.390 . S
C1186 C1180 1.465 . S
C1186 C1185 1.396 . S
C1186 C1187 1.399 . S
C1187 H1173 0.929 . S
C1187 C1186 1.399 . S
C1187 C1188 1.385 . S
C1188 H1174 0.931 . S
C1188 C1187 1.385 . S
C1188 C1189 1.389 . S
C1189 C1188 1.389 . S
C1189 C1190 1.387 . S
C1190 H1175 0.930 . S
C1190 C1185 1.390 . S
C1190 C1189 1.387 . S
H1191 C1203 0.930 . S
H1192 C1205 0.930 . S
H1193 C1206 0.930 . S
H1194 C1210 0.959 . S
H1195 C1210 0.959 . S
H1196 C1210 0.961 . S
H1197 C1211 0.960 . S
H1198 C1211 0.961 . S
H1199 C1211 0.959 . S
H1200 C1214 0.929 . S
H1201 C1215 0.912 1_565 S
H1202 C1217 0.930 . S
C1203 H1191 0.930 . S
C1203 C1204 1.399 . S
C1203 C1208 1.399 . S
C1204 C1203 1.399 . S
C1204 C1205 1.376 . S
C1205 H1192 0.930 . S
C1205 C1204 1.376 . S
C1205 C1206 1.388 . S
C1206 H1193 0.930 . S
C1206 C1205 1.388 . S
C1206 C1207 1.390 . S
C1207 C1206 1.390 . S
C1207 C1208 1.394 . S
C1207 C1213 1.465 . S
C1208 C1203 1.399 . S
C1208 C1207 1.394 . S
C1208 C1209 1.516 . S
C1209 C1208 1.516 . S
C1209 C1210 1.502 . S
C1209 C1211 1.561 . S
C1209 C1212 1.526 . S
C1210 H1194 0.959 . S
C1210 H1195 0.959 . S
C1210 H1196 0.961 . S
C1210 C1209 1.502 . S
C1211 H1197 0.960 . S
C1211 H1198 0.961 . S
C1211 H1199 0.959 . S
C1211 C1209 1.561 . S
C1212 C1209 1.526 . S
C1212 C1213 1.396 . S
C1212 C1217 1.390 . S
C1213 C1207 1.465 . S
C1213 C1212 1.396 . S
C1213 C1214 1.399 . S
C1214 H1200 0.929 . S
C1214 C1213 1.399 . S
C1214 C1215 1.385 . S
C1215 H1201 0.912 1_545 S
C1215 C1214 1.385 . S
C1215 C1216 1.389 . S
C1216 C1215 1.389 . S
C1216 C1217 1.387 . S
C1217 H1202 0.930 . S
C1217 C1212 1.390 . S
C1217 C1216 1.387 . S
C421 C349 0.955 . S
C433 C9 0.963 . S
C448 C43 0.916 . S
C460 C383 0.897 . S
C475 C77 0.958 . S
C487 C213 0.965 . S
C502 C111 0.850 . S
C514 C247 0.839 . S
C529 C145 0.855 . S
C541 C281 0.843 1_556 S
C556 C179 0.830 1_554 S
C568 C315 0.839 . S
C583 C33 1.286 . S
C595 C305 1.339 . S
C610 C339 1.302 . S
C622 C67 1.320 . S
C637 C101 1.289 . S
C649 C373 1.340 . S
C664 C135 1.303 . S
C676 C407 1.330 . S
C691 C169 1.334 . S
C703 C237 1.298 . S
C718 C203 1.287 . S
C730 C271 1.341 . S
C745 C379 1.558 . S
C757 C5 1.547 . S
C772 C209 1.552 . S
C784 C39 1.543 . S
C799 C243 1.583 . S
C811 C73 1.575 . S
C826 C107 1.539 . S
C838 C277 1.543 . S
C853 C141 1.573 . S
C865 C311 1.582 . S
C880 C345 1.585 . S
C892 C175 1.583 . S
C907 C172 2.054 . S
C919 C20 2.029 1_556 S
C934 C2 2.059 1_655 S
C946 C54 2.038 . S
C961 C88 2.054 . S
C973 C36 2.065 1_565 S
C988 C70 2.065 . S
C1000 C122 2.055 . S
C1015 C156 2.032 . S
C1027 C104 2.054 1_455 S
C1042 C190 2.051 . S
C1054 C138 2.064 1_545 S
C1069 C240 2.059 . S
C1081 C224 2.037 . S
C1096 C258 2.039 1_554 S
C1108 C274 2.060 1_655 S
C1123 C292 2.056 . S
C1135 C308 2.065 1_565 S
C1150 C342 2.057 . S
C1162 C326 2.042 . S
C1177 C376 2.053 1_455 S
C1189 C360 2.029 . S
C1204 C394 2.047 . S
C1216 C206 2.063 1_545 S
