# Generated by pormake.
# Topology crs, (6)-cn, num edge types: 1
# Building blocks:
#     Node 0, Type 0, BuildingBlock: BETDEL_clean_sbu_0, # of connection points: 6
#     Node 1, Type 0, BuildingBlock: BETDEL_clean_sbu_0, # of connection points: 6
#     Node 2, Type 0, BuildingBlock: BETDEL_clean_sbu_0, # of connection points: 6
#     Node 3, Type 0, BuildingBlock: BETDEL_clean_sbu_0, # of connection points: 6
#     Node 4, Type 0, BuildingBlock: BETDEL_clean_sbu_0, # of connection points: 6
#     Node 5, Type 0, BuildingBlock: BETDEL_clean_sbu_0, # of connection points: 6
#     Node 6, Type 0, BuildingBlock: BETDEL_clean_sbu_0, # of connection points: 6
#     Node 7, Type 0, BuildingBlock: BETDEL_clean_sbu_0, # of connection points: 6
#     Node 8, Type 0, BuildingBlock: BETDEL_clean_sbu_0, # of connection points: 6
#     Node 9, Type 0, BuildingBlock: BETDEL_clean_sbu_0, # of connection points: 6
#     Node 10, Type 0, BuildingBlock: BETDEL_clean_sbu_0, # of connection points: 6
#     Node 11, Type 0, BuildingBlock: BETDEL_clean_sbu_0, # of connection points: 6
#     Node 12, Type 0, BuildingBlock: BETDEL_clean_sbu_0, # of connection points: 6
#     Node 13, Type 0, BuildingBlock: BETDEL_clean_sbu_0, # of connection points: 6
#     Node 14, Type 0, BuildingBlock: BETDEL_clean_sbu_0, # of connection points: 6
#     Node 15, Type 0, BuildingBlock: BETDEL_clean_sbu_0, # of connection points: 6
#     Edge 16, Type (0, 0), BuildingBlock: AJUNOK_clean_linker_0, # of connection points: 2
#     Edge 17, Type (0, 0), BuildingBlock: AJUNOK_clean_linker_0, # of connection points: 2
#     Edge 18, Type (0, 0), BuildingBlock: AJUNOK_clean_linker_0, # of connection points: 2
#     Edge 19, Type (0, 0), BuildingBlock: AJUNOK_clean_linker_0, # of connection points: 2
#     Edge 20, Type (0, 0), BuildingBlock: AJUNOK_clean_linker_0, # of connection points: 2
#     Edge 21, Type (0, 0), BuildingBlock: AJUNOK_clean_linker_0, # of connection points: 2
#     Edge 22, Type (0, 0), BuildingBlock: AJUNOK_clean_linker_0, # of connection points: 2
#     Edge 23, Type (0, 0), BuildingBlock: AJUNOK_clean_linker_0, # of connection points: 2
#     Edge 24, Type (0, 0), BuildingBlock: AJUNOK_clean_linker_0, # of connection points: 2
#     Edge 25, Type (0, 0), BuildingBlock: AJUNOK_clean_linker_0, # of connection points: 2
#     Edge 26, Type (0, 0), BuildingBlock: AJUNOK_clean_linker_0, # of connection points: 2
#     Edge 27, Type (0, 0), BuildingBlock: AJUNOK_clean_linker_0, # of connection points: 2
#     Edge 28, Type (0, 0), BuildingBlock: AJUNOK_clean_linker_0, # of connection points: 2
#     Edge 29, Type (0, 0), BuildingBlock: AJUNOK_clean_linker_0, # of connection points: 2
#     Edge 30, Type (0, 0), BuildingBlock: AJUNOK_clean_linker_0, # of connection points: 2
#     Edge 31, Type (0, 0), BuildingBlock: AJUNOK_clean_linker_0, # of connection points: 2
#     Edge 32, Type (0, 0), BuildingBlock: AJUNOK_clean_linker_0, # of connection points: 2
#     Edge 33, Type (0, 0), BuildingBlock: AJUNOK_clean_linker_0, # of connection points: 2
#     Edge 34, Type (0, 0), BuildingBlock: AJUNOK_clean_linker_0, # of connection points: 2
#     Edge 35, Type (0, 0), BuildingBlock: AJUNOK_clean_linker_0, # of connection points: 2
#     Edge 36, Type (0, 0), BuildingBlock: AJUNOK_clean_linker_0, # of connection points: 2
#     Edge 37, Type (0, 0), BuildingBlock: AJUNOK_clean_linker_0, # of connection points: 2
#     Edge 38, Type (0, 0), BuildingBlock: AJUNOK_clean_linker_0, # of connection points: 2
#     Edge 39, Type (0, 0), BuildingBlock: AJUNOK_clean_linker_0, # of connection points: 2
#     Edge 40, Type (0, 0), BuildingBlock: AJUNOK_clean_linker_0, # of connection points: 2
#     Edge 41, Type (0, 0), BuildingBlock: AJUNOK_clean_linker_0, # of connection points: 2
#     Edge 42, Type (0, 0), BuildingBlock: AJUNOK_clean_linker_0, # of connection points: 2
#     Edge 43, Type (0, 0), BuildingBlock: AJUNOK_clean_linker_0, # of connection points: 2
#     Edge 44, Type (0, 0), BuildingBlock: AJUNOK_clean_linker_0, # of connection points: 2
#     Edge 45, Type (0, 0), BuildingBlock: AJUNOK_clean_linker_0, # of connection points: 2
#     Edge 46, Type (0, 0), BuildingBlock: AJUNOK_clean_linker_0, # of connection points: 2
#     Edge 47, Type (0, 0), BuildingBlock: AJUNOK_clean_linker_0, # of connection points: 2
#     Edge 48, Type (0, 0), BuildingBlock: AJUNOK_clean_linker_0, # of connection points: 2
#     Edge 49, Type (0, 0), BuildingBlock: AJUNOK_clean_linker_0, # of connection points: 2
#     Edge 50, Type (0, 0), BuildingBlock: AJUNOK_clean_linker_0, # of connection points: 2
#     Edge 51, Type (0, 0), BuildingBlock: AJUNOK_clean_linker_0, # of connection points: 2
#     Edge 52, Type (0, 0), BuildingBlock: AJUNOK_clean_linker_0, # of connection points: 2
#     Edge 53, Type (0, 0), BuildingBlock: AJUNOK_clean_linker_0, # of connection points: 2
#     Edge 54, Type (0, 0), BuildingBlock: AJUNOK_clean_linker_0, # of connection points: 2
#     Edge 55, Type (0, 0), BuildingBlock: AJUNOK_clean_linker_0, # of connection points: 2
#     Edge 56, Type (0, 0), BuildingBlock: AJUNOK_clean_linker_0, # of connection points: 2
#     Edge 57, Type (0, 0), BuildingBlock: AJUNOK_clean_linker_0, # of connection points: 2
#     Edge 58, Type (0, 0), BuildingBlock: AJUNOK_clean_linker_0, # of connection points: 2
#     Edge 59, Type (0, 0), BuildingBlock: AJUNOK_clean_linker_0, # of connection points: 2
#     Edge 60, Type (0, 0), BuildingBlock: AJUNOK_clean_linker_0, # of connection points: 2
#     Edge 61, Type (0, 0), BuildingBlock: AJUNOK_clean_linker_0, # of connection points: 2
#     Edge 62, Type (0, 0), BuildingBlock: AJUNOK_clean_linker_0, # of connection points: 2
#     Edge 63, Type (0, 0), BuildingBlock: AJUNOK_clean_linker_0, # of connection points: 2
# Relax obj value: 0.369
# Max RMSD: 0.316
# Mean RMSD: 0.260
data_MOF--net-crs--node1-BETDEL_clean_sbu_0--edge1-AJUNOK_clean_linker_0
_symmetry_space_group_name_H-M    P1
_symmetry_Int_Tables_number       1
_symmetry_cell_setting            triclinic
loop_
_symmetry_equiv_pos_as_xyz
'x, y, z'
_cell_length_a     33.811662
_cell_length_b     34.292171
_cell_length_c     31.615048
_cell_angle_alpha  81.090185
_cell_angle_beta   85.224055
_cell_angle_gamma 74.489252
loop_
_atom_site_label
_atom_site_type_symbol
_atom_site_fract_x
_atom_site_fract_y
_atom_site_fract_z
_atom_type_partial_charge
Dy0 Dy 0.94861 0.96568 0.03126 0.0
C1 C 0.07913 0.03908 0.96261 0.0
C2 C 0.88492 0.93054 0.05037 0.0
Dy3 Dy 0.01703 0.00219 0.98407 0.0
O4 O 0.922 0.91488 0.06333 0.0
O5 O 0.88238 0.96601 0.02758 0.0
O6 O 0.97608 0.95927 0.09448 0.0
O7 O 0.01448 0.95551 0.03854 0.0
C8 C 0.01297 0.95786 0.07828 0.0
C9 C 0.95262 0.00943 0.93719 0.0
O10 O 0.03692 0.94161 0.96039 0.0
O11 O 0.97636 0.9231 0.98315 0.0
O12 O 0.04169 0.05362 0.95045 0.0
O13 O 0.08295 0.00372 0.98606 0.0
O14 O -0.01043 0.00756 0.92103 0.0
O15 O 0.95117 0.01229 0.97679 0.0
O16 O 0.92986 0.02588 0.05624 0.0
O17 O -0.00985 0.04457 0.0323 0.0
C18 C 0.01194 0.9176 0.9608 0.0
C19 C 0.9548 0.05012 0.05493 0.0
Dy20 Dy -0.00162 0.26223 0.28014 0.0
C21 C 0.95519 0.15906 0.17689 0.0
C22 C 0.01001 0.31468 0.33226 0.0
Dy23 Dy 0.96851 0.20725 0.23276 0.0
O24 O 0.01653 0.27544 0.3422 0.0
O25 O -0.00323 0.32556 0.29362 0.0
O26 O 0.06337 0.22806 0.2707 0.0
O27 O 0.01796 0.1956 0.27728 0.0
C28 C 0.05573 0.1933 0.26889 0.0
C29 C 0.91171 0.27666 0.24401 0.0
O30 O 0.94745 0.18463 0.29845 0.0
O31 O 0.95125 0.24214 0.32597 0.0
O32 O 0.95253 0.19781 0.16837 0.0
O33 O 0.96536 0.14607 0.21641 0.0
O34 O 0.90372 0.24196 0.24293 0.0
O35 O 0.94945 0.27379 0.23521 0.0
O36 O 0.02003 0.28385 0.21427 0.0
O37 O 0.0169 0.22572 0.18771 0.0
C38 C 0.93896 0.20821 0.32916 0.0
C39 C 0.02895 0.25979 0.184 0.0
Dy40 Dy 0.71688 0.20743 0.48676 0.0
C41 C 0.79483 0.31598 0.55626 0.0
C42 C 0.6881 0.14302 0.47611 0.0
Dy43 Dy 0.7552 0.26463 0.53143 0.0
O44 O 0.70376 0.1649 0.44532 0.0
O45 O 0.68786 0.15663 0.51224 0.0
O46 O 0.69158 0.25402 0.42926 0.0
O47 O 0.72166 0.26914 0.47577 0.0
C48 C 0.70507 0.28288 0.44061 0.0
C49 C 0.75202 0.1934 0.57879 0.0
O50 O 0.68882 0.28831 0.54979 0.0
O51 O 0.66656 0.23414 0.53252 0.0
O52 O 0.80913 0.27669 0.55822 0.0
O53 O 0.75876 0.32758 0.53994 0.0
O54 O 0.74899 0.227 0.59426 0.0
O55 O 0.75941 0.19871 0.53864 0.0
O56 O 0.78203 0.18898 0.46219 0.0
O57 O 0.80196 0.24459 0.4792 0.0
C58 C 0.66066 0.26761 0.55094 0.0
C59 C 0.80831 0.21202 0.45907 0.0
Dy60 Dy 0.70141 0.97682 0.72733 0.0
C61 C 0.82221 -0.00827 0.83826 0.0
C62 C 0.64153 0.97699 0.67451 0.0
Dy63 Dy 0.76086 -0.00667 0.78632 0.0
O64 O 0.68067 0.96288 0.66679 0.0
O65 O 0.63526 -0.00865 0.71089 0.0
O66 O 0.7375 0.91195 0.73034 0.0
O67 O 0.76827 0.95721 0.73394 0.0
C68 C 0.77204 0.91924 0.73686 0.0
C69 C 0.69011 0.05115 0.77699 0.0
O70 O 0.77748 0.02897 0.72518 0.0
O71 O 0.72098 0.02931 0.68769 0.0
O72 O 0.78317 0.00439 0.84768 0.0
O73 O 0.82748 0.97969 0.8007 0.0
O74 O 0.72463 0.05806 0.78441 0.0
O75 O 0.69397 0.01317 0.77953 0.0
O76 O 0.68404 0.94202 0.7888 0.0
O77 O 0.74139 0.94062 0.82527 0.0
C78 C 0.75356 0.04267 0.69201 0.0
C79 C 0.70834 0.92776 0.82161 0.0
Dy80 Dy 0.4985 0.76307 0.27826 0.0
C81 C 0.46502 0.6427 0.18783 0.0
C82 C 0.51246 0.81075 0.33314 0.0
Dy83 Dy 0.46708 0.70503 0.23019 0.0
O84 O 0.50361 0.82355 0.29321 0.0
O85 O 0.51316 0.77245 0.34285 0.0
O86 O 0.56234 0.72697 0.26839 0.0
O87 O 0.51539 0.69644 0.27578 0.0
C88 C 0.55339 0.69276 0.26709 0.0
C89 C 0.41515 0.78058 0.21991 0.0
O90 O 0.44239 0.68859 0.2963 0.0
O91 O 0.44786 0.74703 0.32153 0.0
O92 O 0.43373 0.66335 0.20879 0.0
O93 O 0.49741 0.65527 0.19147 0.0
O94 O 0.41016 0.75027 0.20281 0.0
O95 O 0.4477 0.76829 0.23989 0.0
O96 O 0.51579 0.7859 0.21102 0.0
O97 O 0.51016 0.72919 0.18222 0.0
C98 C 0.43437 0.7137 0.32564 0.0
C99 C 0.52229 0.76323 0.17942 0.0
Dy100 Dy 0.21436 0.71234 0.48399 0.0
C101 C 0.2814 0.8297 0.54179 0.0
C102 C 0.17676 0.65709 0.4632 0.0
Dy103 Dy 0.24685 0.77087 0.52432 0.0
O104 O 0.16305 0.69646 0.45557 0.0
O105 O 0.21119 0.64774 0.48241 0.0
O106 O 0.21828 0.74831 0.41948 0.0
O107 O 0.20418 0.77906 0.47368 0.0
C108 C 0.21197 0.78309 0.43361 0.0
C109 C 0.25122 0.69938 0.57443 0.0
O110 O 0.18212 0.78942 0.54962 0.0
O111 O 0.16722 0.7304 0.53656 0.0
O112 O 0.29044 0.79195 0.55966 0.0
O113 O 0.25338 0.83537 0.51425 0.0
O114 O 0.24459 0.73415 0.58879 0.0
O115 O 0.25789 0.70398 0.53417 0.0
O116 O 0.27903 0.69317 0.45855 0.0
O117 O 0.2965 0.74982 0.47513 0.0
C118 C 0.1579 0.76434 0.55456 0.0
C119 C 0.30478 0.71658 0.45605 0.0
Dy120 Dy 0.20835 0.48229 0.72441 0.0
C121 C 0.32634 0.49801 0.83704 0.0
C122 C 0.14941 0.48307 0.6699 0.0
Dy123 Dy 0.26683 0.49748 0.78382 0.0
O124 O 0.18871 0.47116 0.662 0.0
O125 O 0.14229 0.49495 0.70755 0.0
O126 O 0.24534 0.41846 0.72334 0.0
O127 O 0.27586 0.46318 0.72937 0.0
C128 C 0.2801 0.42527 0.72983 0.0
C129 C 0.19536 0.55438 0.77746 0.0
O130 O 0.28178 0.53683 0.72439 0.0
O131 O 0.22583 0.53642 0.68659 0.0
O132 O 0.28731 0.50573 0.84724 0.0
O133 O 0.33278 0.48956 0.79803 0.0
O134 O 0.2298 0.5615 0.78453 0.0
O135 O 0.19973 0.51649 0.77847 0.0
O136 O 0.19194 0.44486 0.7841 0.0
O137 O 0.24948 0.44238 0.82078 0.0
C138 C 0.25789 0.55032 0.69122 0.0
C139 C 0.21658 0.42948 0.81639 0.0
Dy140 Dy 0.95383 0.46517 0.53112 0.0
C141 C 0.07275 0.55013 0.45606 0.0
C142 C 0.89834 0.42209 0.56293 0.0
Dy143 Dy 0.01363 0.50945 0.47903 0.0
O144 O 0.93792 0.40749 0.56081 0.0
O145 O 0.88884 0.46067 0.5474 0.0
O146 O -0.0146 0.46114 0.59141 0.0
O147 O 0.01949 0.46052 0.53272 0.0
C148 C 0.02052 0.46234 0.57224 0.0
C149 C 0.94864 0.51222 0.4354 0.0
O150 O 0.03415 0.45106 0.45072 0.0
O151 O 0.97886 0.42563 0.47967 0.0
O152 O 0.03385 0.56504 0.44953 0.0
O153 O 0.07951 0.51245 0.47442 0.0
O154 O 0.98338 0.51683 0.41747 0.0
O155 O 0.948 0.51304 0.47561 0.0
O156 O 0.93188 0.52452 0.55742 0.0
O157 O -0.01246 0.54947 0.52967 0.0
C158 C 0.01164 0.4244 0.45335 0.0
C159 C 0.95421 0.55123 0.55518 0.0
Dy160 Dy 0.21278 0.20968 0.97913 0.0
C161 C 0.2804 0.32556 0.04003 0.0
C162 C 0.18013 0.14982 0.96152 0.0
Dy163 Dy 0.24565 0.26839 0.01964 0.0
O164 O 0.16289 0.1887 0.95441 0.0
O165 O 0.21555 0.14351 0.97799 0.0
O166 O 0.20955 0.24796 0.91506 0.0
O167 O 0.20122 0.27657 0.97063 0.0
C168 C 0.20545 0.28201 0.93009 0.0
C169 C 0.25212 0.19591 0.06837 0.0
O170 O 0.18169 0.28503 0.04709 0.0
O171 O 0.16642 0.22651 0.03285 0.0
O172 O 0.29713 0.28654 0.04471 0.0
O173 O 0.24443 0.33353 0.0243 0.0
O174 O 0.24711 0.22995 0.0836 0.0
O175 O 0.25734 0.20148 0.02798 0.0
O176 O 0.27579 0.1963 0.94796 0.0
O177 O 0.28914 0.25543 0.96324 0.0
C178 C 0.15768 0.25978 0.05202 0.0
C179 C 0.29773 0.22351 0.9421 0.0
Dy180 Dy 0.20637 0.97959 0.22335 0.0
C181 C 0.32942 -0.00171 0.32889 0.0
C182 C 0.14341 0.9798 0.17418 0.0
Dy183 Dy 0.26846 -0.00372 0.27814 0.0
O184 O 0.18209 0.97028 0.16235 0.0
O185 O 0.13923 -0.01032 0.21268 0.0
O186 O 0.24266 0.91538 0.22181 0.0
O187 O 0.27404 0.95985 0.22599 0.0
C188 C 0.27768 0.9219 0.22781 0.0
C189 C 0.19717 0.05378 0.27265 0.0
O190 O 0.28217 0.03214 0.21583 0.0
O191 O 0.22259 0.03357 0.18337 0.0
O192 O 0.29058 0.00596 0.33998 0.0
O193 O 0.33503 -0.01092 0.29009 0.0
O194 O 0.23222 0.06085 0.27728 0.0
O195 O 0.20106 0.01577 0.27548 0.0
O196 O 0.1929 0.94316 0.28522 0.0
O197 O 0.25227 0.94216 0.31808 0.0
C198 C 0.25583 0.04671 0.18483 0.0
C199 C 0.21882 0.92939 0.3166 0.0
Dy200 Dy 0.50001 0.26557 0.77283 0.0
C201 C 0.46561 0.15497 0.6696 0.0
C202 C 0.51307 0.30932 0.8324 0.0
Dy203 Dy 0.46889 0.2122 0.71868 0.0
O204 O 0.50822 0.3234 0.79197 0.0
O205 O 0.5107 0.27172 0.83995 0.0
O206 O 0.56335 0.22728 0.76455 0.0
O207 O 0.51477 0.19926 0.76775 0.0
C208 C 0.55318 0.19415 0.76108 0.0
C209 C 0.41962 0.28892 0.70886 0.0
O210 O 0.43814 0.19682 0.78221 0.0
O211 O 0.44368 0.25447 0.80897 0.0
O212 O 0.43589 0.171 0.69547 0.0
O213 O 0.49752 0.16845 0.67268 0.0
O214 O 0.41443 0.25987 0.68983 0.0
O215 O 0.45113 0.27484 0.73036 0.0
O216 O 0.5193 0.2917 0.70801 0.0
O217 O 0.51506 0.23683 0.67519 0.0
C218 C 0.42721 0.22336 0.81009 0.0
C219 C 0.52738 0.27047 0.67529 0.0
Dy220 Dy -0.00192 0.76338 0.78039 0.0
C221 C 0.95415 0.65977 0.67808 0.0
C222 C 0.01259 0.81051 0.83665 0.0
Dy223 Dy 0.96709 0.70999 0.73208 0.0
O224 O 0.01105 0.77282 0.84597 0.0
O225 O 0.00551 0.82314 0.79634 0.0
O226 O 0.06255 0.72848 0.77063 0.0
O227 O 0.01665 0.6968 0.77673 0.0
C228 C 0.05446 0.6941 0.76828 0.0
C229 C 0.91108 0.77951 0.74393 0.0
O230 O 0.94394 0.68894 0.79779 0.0
O231 O 0.9487 0.74634 0.8247 0.0
O232 O 0.9647 0.64801 0.71761 0.0
O233 O 0.95115 0.69853 0.66829 0.0
O234 O 0.90238 0.74543 0.74133 0.0
O235 O 0.9489 0.7764 0.73545 0.0
O236 O 0.01834 0.78712 0.71489 0.0
O237 O 0.01509 0.72971 0.68698 0.0
C238 C 0.93584 0.7128 0.8283 0.0
C239 C 0.02725 0.76372 0.68406 0.0
Dy240 Dy 0.70072 0.47557 0.22678 0.0
C241 C 0.82608 0.49476 0.32657 0.0
C242 C 0.642 0.47085 0.17517 0.0
Dy243 Dy 0.76449 0.49357 0.27643 0.0
O244 O 0.68105 0.46292 0.16542 0.0
O245 O 0.63474 0.48215 0.21312 0.0
O246 O 0.73629 0.4108 0.22897 0.0
O247 O 0.76864 0.45572 0.22621 0.0
C248 C 0.77189 0.41773 0.23055 0.0
C249 C 0.69307 0.55108 0.2749 0.0
O250 O 0.77622 0.52729 0.21176 0.0
O251 O 0.7124 0.53165 0.18721 0.0
O252 O 0.82854 0.49879 0.28497 0.0
O253 O 0.79044 0.48964 0.34051 0.0
O254 O 0.72849 0.55775 0.27843 0.0
O255 O 0.69666 0.51314 0.27763 0.0
O256 O 0.68745 0.4423 0.29085 0.0
O257 O 0.75056 0.43839 0.31681 0.0
C258 C 0.74679 0.54343 0.18418 0.0
C259 C 0.71586 0.42691 0.31972 0.0
Dy260 Dy 0.71466 0.70637 0.98498 0.0
C261 C 0.77892 0.82492 0.04703 0.0
C262 C 0.68663 0.64143 0.97358 0.0
Dy263 Dy 0.74493 0.76691 0.02668 0.0
O264 O 0.68083 0.67566 0.94785 0.0
O265 O 0.70791 0.64269 0.00541 0.0
O266 O 0.71248 0.74431 0.92062 0.0
O267 O 0.70243 0.7731 0.97638 0.0
C268 C 0.7078 0.77839 0.93598 0.0
C269 C 0.75041 0.6941 0.07383 0.0
O270 O 0.67994 0.78414 0.05161 0.0
O271 O 0.66236 0.72879 0.03143 0.0
O272 O 0.79347 0.78578 0.05673 0.0
O273 O 0.74534 0.83246 0.02669 0.0
O274 O 0.74132 0.72805 0.09011 0.0
O275 O 0.75804 0.70044 0.03402 0.0
O276 O 0.7795 0.69056 0.95958 0.0
O277 O 0.79262 0.75018 0.97397 0.0
C278 C 0.65396 0.76124 0.05195 0.0
C279 C 0.80288 0.71641 0.9555 0.0
Dy280 Dy 0.45158 0.9697 0.52199 0.0
C281 C 0.59267 0.0301 0.46309 0.0
C282 C 0.38723 0.93567 0.54276 0.0
Dy283 Dy 0.52559 -0.00057 0.47686 0.0
O284 O 0.42353 0.92156 0.55799 0.0
O285 O 0.3858 0.969 0.51627 0.0
O286 O 0.47632 0.96472 0.58609 0.0
O287 O 0.51722 0.95555 0.53231 0.0
C288 C 0.51418 0.95977 0.5717 0.0
C289 C 0.46121 0.01167 0.42828 0.0
O290 O 0.54298 0.93806 0.45637 0.0
O291 O 0.47892 0.92544 0.47533 0.0
O292 O 0.55903 0.04439 0.44243 0.0
O293 O 0.59007 -0.00182 0.49013 0.0
O294 O 0.4989 0.006 0.41281 0.0
O295 O 0.45976 0.01461 0.46779 0.0
O296 O 0.43443 0.03195 0.54243 0.0
O297 O 0.49815 0.04427 0.52178 0.0
C298 C 0.51577 0.91677 0.45558 0.0
C299 C 0.46163 0.05376 0.54178 0.0
Dy300 Dy 0.45099 0.46314 0.02785 0.0
C301 C 0.5894 0.52818 0.96755 0.0
C302 C 0.38564 0.4305 0.04606 0.0
Dy303 Dy 0.52402 0.49504 0.9832 0.0
O304 O 0.42212 0.41439 0.06033 0.0
O305 O 0.38452 0.46519 0.02211 0.0
O306 O 0.47897 0.45156 0.09134 0.0
O307 O 0.51709 0.44727 0.03508 0.0
C308 C 0.51627 0.44728 0.07523 0.0
C309 C 0.45786 0.51076 0.93666 0.0
O310 O 0.54056 0.43528 0.95858 0.0
O311 O 0.47687 0.42188 0.97818 0.0
O312 O 0.58895 0.49509 0.99365 0.0
O313 O 0.5546 0.54228 0.94902 0.0
O314 O 0.49508 0.5056 0.92005 0.0
O315 O 0.45771 0.51125 0.97659 0.0
O316 O 0.43674 0.52158 0.05568 0.0
O317 O 0.49983 0.53489 0.03375 0.0
C318 C 0.51335 0.41394 0.95761 0.0
C319 C 0.46499 0.54169 0.05718 0.0
C320 C 0.93504 0.07238 0.12718 0.0
C321 C 0.9468 0.08163 0.08381 0.0
C322 C 0.9375 0.09767 0.15742 0.0
C323 C 0.95049 0.13361 0.1449 0.0
H324 H 0.92629 0.04423 0.13827 0.0
H325 H 0.92978 0.08874 0.19082 0.0
S326 S 0.98098 0.17321 0.03452 0.0
N327 N 0.96979 0.13017 0.0296 0.0
N328 N 0.97271 0.17842 0.0858 0.0
C329 C 0.95992 0.14435 0.10123 0.0
C330 C 0.95843 0.1182 0.07081 0.0
C331 C 0.87715 0.22161 0.4332 0.0
C332 C 0.84518 0.20333 0.42968 0.0
C333 C 0.90906 0.22024 0.40197 0.0
C334 C 0.91042 0.2006 0.36576 0.0
H335 H 0.87679 0.23861 0.45947 0.0
H336 H 0.93189 0.23639 0.40536 0.0
S337 S 0.83679 0.14395 0.34353 0.0
N338 N 0.81888 0.16163 0.38897 0.0
N339 N 0.87902 0.15924 0.33003 0.0
C340 C 0.88037 0.17961 0.36327 0.0
C341 C 0.84769 0.18096 0.39527 0.0
C342 C 0.75304 0.08219 0.61808 0.0
C343 C 0.75939 0.07861 0.66211 0.0
C344 C 0.75287 0.11868 0.59054 0.0
C345 C 0.75696 0.1534 0.60655 0.0
H346 H 0.74786 0.05671 0.60496 0.0
H347 H 0.74843 0.11998 0.55686 0.0
S348 S 0.77717 0.15868 0.7191 0.0
N349 N 0.77327 0.11166 0.71975 0.0
N350 N 0.77049 0.18066 0.66905 0.0
C351 C 0.76467 0.14959 0.65036 0.0
C352 C 0.76641 0.11212 0.67788 0.0
C353 C 0.87827 0.01334 0.92819 0.0
C354 C 0.9195 0.00342 0.91292 0.0
C355 C 0.84684 0.00877 0.90431 0.0
C356 C 0.85568 -0.00615 0.86455 0.0
H357 H 0.87011 0.02556 0.95825 0.0
H358 H 0.81539 0.01754 0.9168 0.0
S359 S 0.95888 0.96144 0.81151 0.0
N360 N 0.96744 0.9768 0.85604 0.0
N361 N 0.90879 0.96765 0.81196 0.0
C362 C 0.89686 0.98287 0.84957 0.0
C363 C 0.92866 -0.01214 0.87352 0.0
C364 C 0.08665 0.9573 0.08553 0.0
C365 C 0.04598 0.9642 0.10247 0.0
C366 C 0.11798 0.96319 0.10852 0.0
C367 C 0.10965 0.97632 0.14918 0.0
H368 H 0.0945 0.94657 0.0547 0.0
H369 H 0.149 0.9569 0.09456 0.0
S370 S 0.00802 -0.00015 0.20726 0.0
N371 N -0.00089 0.98543 0.16231 0.0
N372 N 0.0576 -0.00294 0.20483 0.0
C373 C 0.06902 0.98395 0.16611 0.0
C374 C 0.03731 0.97765 0.14298 0.0
C375 C 0.01876 0.35461 0.43549 0.0
C376 C 0.01873 0.39557 0.42172 0.0
C377 C 0.01753 0.32833 0.40603 0.0
C378 C 0.01481 0.34245 0.36185 0.0
H379 H 0.01863 0.3431 0.46941 0.0
H380 H 0.01704 0.29713 0.4182 0.0
S381 S 0.01312 0.44741 0.30959 0.0
N382 N 0.01645 0.449 0.3611 0.0
N383 N 0.01265 0.40003 0.30576 0.0
C384 C 0.01529 0.38324 0.34761 0.0
C385 C 0.01762 0.40971 0.37756 0.0
C386 C 0.5889 0.26394 0.57068 0.0
C387 C 0.62236 0.27889 0.57768 0.0
C388 C 0.5563 0.26472 0.60101 0.0
C389 C 0.55578 0.2805 0.6396 0.0
H390 H 0.58893 0.2493 0.54265 0.0
H391 H 0.53253 0.25059 0.59521 0.0
S392 S 0.63282 0.3291 0.67055 0.0
N393 N 0.65059 0.31449 0.6237 0.0
N394 N 0.58909 0.31597 0.68089 0.0
C395 C 0.58701 0.29911 0.64524 0.0
C396 C 0.6204 0.2983 0.6142 0.0
C397 C 0.71999 0.88424 0.89298 0.0
C398 C 0.7018 0.89276 0.85293 0.0
C399 C 0.72029 0.8479 0.92047 0.0
C400 C 0.70289 0.81848 0.9089 0.0
H401 H 0.73535 0.9052 0.90265 0.0
H402 H 0.7363 0.84185 0.94981 0.0
S403 S 0.65026 0.82599 0.80851 0.0
N404 N 0.66447 0.86898 0.80392 0.0
N405 N 0.66579 0.8005 0.85547 0.0
C406 C 0.68364 0.82693 0.86959 0.0
C407 C 0.68269 0.86421 0.84177 0.0
C408 C 0.0911 0.24588 0.08013 0.0
C409 C 0.12141 0.26659 0.0823 0.0
C410 C 0.05971 0.2463 0.11183 0.0
C411 C 0.05731 0.26732 0.14721 0.0
H412 H 0.09232 0.22795 0.05445 0.0
H413 H 0.03807 0.22856 0.10933 0.0
S414 S 0.12674 0.32978 0.16601 0.0
N415 N 0.14519 0.31157 0.12096 0.0
N416 N 0.08608 0.31214 0.18085 0.0
C417 C 0.0858 0.29039 0.14847 0.0
C418 C 0.1179 0.29004 0.11596 0.0
C419 C 0.68118 0.37168 0.35034 0.0
C420 C 0.71091 0.39292 0.3537 0.0
C421 C 0.67889 0.33678 0.37933 0.0
C422 C 0.70578 0.322 0.41322 0.0
H423 H 0.66031 0.38117 0.32429 0.0
H424 H 0.65625 0.32083 0.37469 0.0
S425 S 0.78841 0.36672 0.43738 0.0
N426 N 0.76721 0.39688 0.39486 0.0
N427 N 0.76265 0.33151 0.44885 0.0
C428 C 0.73482 0.34349 0.41777 0.0
C429 C 0.73745 0.37885 0.38814 0.0
C430 C 0.58838 0.95027 0.58577 0.0
C431 C 0.54661 0.96553 0.59693 0.0
C432 C 0.61908 0.95448 0.61078 0.0
C433 C 0.60896 0.97453 0.6474 0.0
H434 H 0.59739 0.93424 0.55813 0.0
H435 H 0.65094 0.94163 0.60155 0.0
S436 S 0.50408 0.02164 0.68909 0.0
N437 N 0.49677 0.00236 0.64658 0.0
N438 N 0.55433 0.01095 0.69265 0.0
C439 C 0.56734 -0.00934 0.65828 0.0
C440 C 0.53619 -0.01402 0.63327 0.0
C441 C 0.00274 0.85316 0.94124 0.0
C442 C 0.02015 0.88661 0.93114 0.0
C443 C 0.00201 0.82786 0.91075 0.0
C444 C 0.01761 0.83569 0.86863 0.0
H445 H -0.01173 0.84725 0.97262 0.0
H446 H -0.0126 0.80308 0.91973 0.0
S447 S 0.07098 0.91602 0.82693 0.0
N448 N 0.05742 0.92346 0.87708 0.0
N449 N 0.05443 0.87659 0.81919 0.0
C450 C 0.03687 0.86768 0.85848 0.0
C451 C 0.03869 0.89289 0.88996 0.0
C452 C 0.10017 0.10185 0.93219 0.0
C453 C 0.10976 0.06314 0.95706 0.0
C454 C 0.12453 0.12894 0.93219 0.0
C455 C 0.15951 0.11815 0.95678 0.0
H456 H 0.07258 0.11212 0.91405 0.0
H457 H 0.11501 0.15912 0.91399 0.0
S458 S 0.19976 0.01921 0.02487 0.0
N459 N 0.158 0.01429 0.00492 0.0
N460 N 0.20419 0.0653 0.00456 0.0
C461 C 0.17093 0.07865 0.97981 0.0
C462 C 0.1459 0.05106 0.98003 0.0
C463 C 0.6601 0.62448 0.25833 0.0
C464 C 0.65521 0.58474 0.26926 0.0
C465 C 0.62651 0.65846 0.25582 0.0
C466 C 0.58623 0.65457 0.26479 0.0
H467 H 0.69041 0.6297 0.25212 0.0
H468 H 0.63257 0.68827 0.2479 0.0
S469 S 0.55594 0.557 0.29013 0.0
N470 N 0.60667 0.54279 0.2853 0.0
N471 N 0.54273 0.60753 0.28139 0.0
C472 C 0.58032 0.61495 0.27365 0.0
C473 C 0.61503 0.57982 0.27576 0.0
C474 C 0.29817 0.89662 0.51918 0.0
C475 C 0.30381 0.8598 0.54743 0.0
C476 C 0.32374 0.92269 0.51962 0.0
C477 C 0.35568 0.91266 0.54832 0.0
H478 H 0.27518 0.90442 0.49521 0.0
H479 H 0.31982 0.94968 0.49585 0.0
S480 S 0.37912 0.82286 0.63295 0.0
N481 N 0.3406 0.81694 0.60793 0.0
N482 N 0.3886 0.86587 0.60878 0.0
C483 C 0.35972 0.8774 0.57865 0.0
C484 C 0.33377 0.85093 0.5782 0.0
C485 C 0.12767 0.66092 0.75588 0.0
C486 C 0.08773 0.6564 0.76574 0.0
C487 C 0.16164 0.6273 0.75846 0.0
C488 C 0.15735 0.58745 0.77033 0.0
H489 H 0.13314 0.69095 0.74741 0.0
H490 H 0.19173 0.63289 0.75213 0.0
S491 S 0.05909 0.55817 0.79405 0.0
N492 N 0.04515 0.60864 0.78424 0.0
N493 N 0.10979 0.54464 0.78838 0.0
C494 C 0.11747 0.58189 0.77758 0.0
C495 C 0.08243 0.6166 0.77539 0.0
C496 C 0.8034 0.38604 0.55622 0.0
C497 C 0.81836 0.3435 0.56654 0.0
C498 C 0.82836 0.41218 0.55907 0.0
C499 C 0.86918 0.39638 0.57152 0.0
H500 H 0.77309 0.39907 0.54374 0.0
H501 H 0.8166 0.44454 0.54841 0.0
S502 S 0.91971 0.28815 0.6104 0.0
N503 N 0.87396 0.28747 0.59641 0.0
N504 N 0.92107 0.33649 0.60085 0.0
C505 C 0.88302 0.35437 0.58574 0.0
C506 C 0.85756 0.32787 0.58329 0.0
C507 C 0.31934 0.86409 0.19225 0.0
C508 C 0.31659 0.89052 0.22277 0.0
C509 C 0.35264 0.82986 0.19038 0.0
C510 C 0.38441 0.82044 0.21921 0.0
H511 H 0.29489 0.86925 0.17032 0.0
H512 H 0.35271 0.80982 0.16702 0.0
S513 S 0.39178 0.87995 0.30535 0.0
N514 N 0.34848 0.90533 0.2823 0.0
N515 N 0.41155 0.84082 0.27875 0.0
C516 C 0.38289 0.84735 0.24901 0.0
C517 C 0.34878 0.88247 0.25083 0.0
C518 C 0.3204 0.36977 0.69034 0.0
C519 C 0.3192 0.3953 0.72138 0.0
C520 C 0.35438 0.33701 0.68498 0.0
C521 C 0.38843 0.32813 0.71074 0.0
H522 H 0.2943 0.37442 0.67071 0.0
H523 H 0.35312 0.31748 0.66153 0.0
S524 S 0.40147 0.38687 0.79532 0.0
N525 N 0.35557 0.41065 0.77711 0.0
N526 N 0.42002 0.34891 0.76685 0.0
C527 C 0.38866 0.35456 0.7405 0.0
C528 C 0.35381 0.3882 0.74592 0.0
C529 C 0.09048 0.75139 0.58058 0.0
C530 C 0.12091 0.77168 0.58386 0.0
C531 C 0.05866 0.75151 0.61176 0.0
C532 C 0.05591 0.77184 0.64771 0.0
H533 H 0.09201 0.73386 0.55448 0.0
H534 H 0.03704 0.73397 0.60848 0.0
S535 S 0.12541 0.83324 0.66928 0.0
N536 N 0.14438 0.81568 0.62405 0.0
N537 N 0.08445 0.81579 0.68297 0.0
C538 C 0.08446 0.79465 0.64999 0.0
C539 C 0.11702 0.79458 0.618 0.0
C540 C 0.22461 0.85532 0.33297 0.0
C541 C 0.2142 0.89372 0.34705 0.0
C542 C 0.22349 0.82 0.36143 0.0
C543 C 0.21147 0.82179 0.40499 0.0
H544 H 0.23459 0.85244 0.29985 0.0
H545 H 0.23258 0.79096 0.34913 0.0
S546 S 0.17856 0.91601 0.45676 0.0
N547 N 0.19067 0.93224 0.40661 0.0
N548 N 0.1864 0.86597 0.46 0.0
C549 C 0.19987 0.86036 0.41918 0.0
C550 C 0.20184 0.89633 0.3902 0.0
C551 C 0.95504 0.64522 0.60321 0.0
C552 C 0.94919 0.63314 0.64736 0.0
C553 C 0.95415 0.61937 0.57322 0.0
C554 C 0.94606 0.58103 0.58609 0.0
H555 H 0.96218 0.67412 0.59181 0.0
H556 H 0.9611 0.62896 0.53977 0.0
S557 S 0.92498 0.53669 0.69765 0.0
N558 N 0.93307 0.58121 0.70243 0.0
N559 N 0.9295 0.53332 0.64582 0.0
C560 C 0.93776 0.56959 0.62993 0.0
C561 C 0.9399 0.59544 0.66066 0.0
C562 C 0.34322 0.6887 0.39145 0.0
C563 C 0.34217 0.70842 0.42758 0.0
C564 C 0.37482 0.68803 0.35957 0.0
C565 C 0.40627 0.70708 0.36285 0.0
H566 H 0.31824 0.67591 0.38642 0.0
H567 H 0.37315 0.67473 0.33105 0.0
S568 S 0.4218 0.75558 0.45517 0.0
N569 N 0.3785 0.74209 0.46769 0.0
N570 N 0.43764 0.74085 0.40798 0.0
C571 C 0.40732 0.72383 0.40051 0.0
C572 C 0.37531 0.72449 0.43284 0.0
C573 C 0.24354 0.08892 0.11275 0.0
C574 C 0.26067 0.08208 0.15321 0.0
C575 C 0.24264 0.125 0.08447 0.0
C576 C 0.25816 0.15585 0.09582 0.0
H577 H 0.22972 0.06669 0.10326 0.0
H578 H 0.2277 0.12963 0.05464 0.0
S579 S 0.30706 0.1529 0.19749 0.0
N580 N 0.29464 0.10896 0.20259 0.0
N581 N 0.29226 0.17686 0.14974 0.0
C582 C 0.27618 0.14906 0.13573 0.0
C583 C 0.27773 0.11211 0.16427 0.0
C584 C 0.84266 0.68901 0.89115 0.0
C585 C 0.84044 0.70925 0.92714 0.0
C586 C 0.87535 0.68753 0.8604 0.0
C587 C 0.90689 0.70613 0.8648 0.0
H588 H 0.81788 0.67622 0.88543 0.0
H589 H 0.87453 0.67396 0.83185 0.0
S590 S 0.91901 0.75635 0.9572 0.0
N591 N 0.87518 0.74356 0.96812 0.0
N592 N 0.9366 0.7405 0.91086 0.0
C593 C 0.90652 0.72363 0.90234 0.0
C594 C 0.87327 0.72531 0.93336 0.0
C595 C 0.2582 0.62343 0.67626 0.0
C596 C 0.26317 0.58604 0.66104 0.0
C597 C 0.25488 0.65972 0.64781 0.0
C598 C 0.25759 0.65978 0.60306 0.0
H599 H 0.25497 0.62494 0.71037 0.0
H600 H 0.24943 0.68806 0.66113 0.0
S601 S 0.27792 0.56818 0.54766 0.0
N602 N 0.27426 0.55019 0.59901 0.0
N603 N 0.27113 0.618 0.54534 0.0
C604 C 0.26552 0.622 0.58761 0.0
C605 C 0.26751 0.5852 0.61666 0.0
C606 C 0.40355 -0.01196 0.34171 0.0
C607 C 0.36217 0.00136 0.3555 0.0
C608 C 0.43523 -0.00824 0.36547 0.0
C609 C 0.42676 0.00894 0.40393 0.0
H610 H 0.41161 0.97463 0.31229 0.0
H611 H 0.46663 0.98087 0.35363 0.0
S612 S 0.32348 0.05047 0.45287 0.0
N613 N 0.3143 0.03323 0.40968 0.0
N614 N 0.37395 0.04109 0.45371 0.0
C615 C 0.38554 0.02273 0.41792 0.0
C616 C 0.35322 0.01868 0.39387 0.0
C617 C 0.83529 0.84318 0.07838 0.0
C618 C 0.80102 0.85528 0.05266 0.0
C619 C 0.86091 0.86895 0.07937 0.0
C620 C 0.85326 0.90767 0.05451 0.0
H621 H 0.84332 0.81295 0.09673 0.0
H622 H 0.88788 0.85768 0.0984 0.0
S623 S 0.76589 0.95483 0.9838 0.0
N624 N 0.75924 0.90943 1.0036 0.0
N625 N 0.80764 0.95794 0.00529 0.0
C626 C 0.81787 0.92106 0.03033 0.0
C627 C 0.79164 0.8948 0.02943 0.0
C628 C 0.65199 0.10997 0.43217 0.0
C629 C 0.66972 0.10986 0.47085 0.0
C630 C 0.62865 0.08241 0.42903 0.0
C631 C 0.62343 0.05323 0.46405 0.0
H632 H 0.65419 0.13293 0.40501 0.0
H633 H 0.61342 0.08487 0.39954 0.0
S634 S 0.66727 0.03809 0.57093 0.0
N635 N 0.6828 0.07687 0.54385 0.0
N636 N 0.64029 0.02414 0.53754 0.0
C637 C 0.64332 0.05119 0.50193 0.0
C638 C 0.66613 0.07983 0.50544 0.0
C639 C 0.80488 0.3449 0.25251 0.0
C640 C 0.8096 0.38429 0.23801 0.0
C641 C 0.83858 0.31094 0.25607 0.0
C642 C 0.87861 0.31473 0.24507 0.0
H643 H 0.77463 0.33992 0.26041 0.0
H644 H 0.8329 0.28121 0.26646 0.0
S645 S 0.90838 0.41176 0.21057 0.0
N646 N 0.85773 0.42599 0.2165 0.0
N647 N 0.92177 0.36147 0.22292 0.0
C648 C 0.88433 0.35418 0.23295 0.0
C649 C 0.84962 0.38917 0.22947 0.0
C650 C 0.0891 0.61727 0.43742 0.0
C651 C 0.1026 0.57511 0.45129 0.0
C652 C 0.11421 0.64328 0.43957 0.0
C653 C 0.15373 0.62806 0.45565 0.0
H654 H 0.05821 0.63065 0.42656 0.0
H655 H 0.10185 0.67577 0.43013 0.0
S656 S 0.20559 0.51933 0.49064 0.0
N657 N 0.15948 0.5187 0.47764 0.0
N658 N 0.20684 0.56773 0.48154 0.0
C659 C 0.16863 0.58567 0.46703 0.0
C660 C 0.143 0.55911 0.46486 0.0
C661 C 0.65841 0.12343 0.75107 0.0
C662 C 0.65286 0.08458 0.76672 0.0
C663 C 0.62525 0.15788 0.74679 0.0
C664 C 0.58491 0.15526 0.7584 0.0
H665 H 0.68894 0.12764 0.74335 0.0
H666 H 0.63168 0.18722 0.73593 0.0
S667 S 0.5529 0.05977 0.79504 0.0
N668 N 0.60352 0.04441 0.78918 0.0
N669 N 0.54049 0.10996 0.78155 0.0
C670 C 0.57827 0.11624 0.77104 0.0
C671 C 0.61246 0.08067 0.77514 0.0
C672 C 0.71392 0.61401 0.15088 0.0
C673 C 0.74859 0.58024 0.15361 0.0
C674 C 0.71479 0.65065 0.12462 0.0
C675 C 0.74974 0.65426 0.09873 0.0
H676 H 0.68622 0.61253 0.17019 0.0
H677 H 0.68789 0.67636 0.12453 0.0
S678 S 0.84738 0.5741 0.0915 0.0
N679 N 0.81847 0.55243 0.12732 0.0
N680 N 0.81921 0.62077 0.07573 0.0
C681 C 0.78403 0.62032 0.09966 0.0
C682 C 0.7837 0.5834 0.12772 0.0
C683 C 0.91099 0.53003 0.36779 0.0
C684 C 0.91512 0.50901 0.40985 0.0
C685 C 0.88268 0.5248 0.34047 0.0
C686 C 0.85754 0.49828 0.35431 0.0
H687 H 0.92997 0.55063 0.35577 0.0
H688 H 0.88007 0.54201 0.30861 0.0
S689 S 0.86172 0.43028 0.4575 0.0
N690 N 0.89517 0.45677 0.46133 0.0
N691 N 0.84148 0.44753 0.4104 0.0
C692 C 0.86212 0.47622 0.39556 0.0
C693 C 0.89103 0.48143 0.42328 0.0
C694 C 0.07599 0.49255 0.6557 0.0
C695 C 0.11749 0.48017 0.64217 0.0
C696 C 0.04507 0.4871 0.63225 0.0
C697 C 0.05432 0.4695 0.59409 0.0
H698 H 0.06728 0.50578 0.68517 0.0
H699 H 0.01361 0.49644 0.64446 0.0
S700 S 0.15809 0.4318 0.54471 0.0
N701 N 0.16638 0.44961 0.58791 0.0
N702 N 0.10778 0.43969 0.54369 0.0
C703 C 0.09553 0.45782 0.57953 0.0
C704 C 0.12725 0.46308 0.60364 0.0
C705 C 0.58112 0.7905 0.14645 0.0
C706 C 0.54962 0.77185 0.14205 0.0
C707 C 0.61359 0.78944 0.11554 0.0
C708 C 0.61567 0.76961 0.07927 0.0
H709 H 0.58235 0.80344 0.17532 0.0
H710 H 0.6385 0.8019 0.12161 0.0
S711 S 0.53638 0.72363 0.04862 0.0
N712 N 0.51924 0.73867 0.09542 0.0
N713 N 0.58018 0.7365 0.03763 0.0
C714 C 0.58246 0.75414 0.07271 0.0
C715 C 0.54943 0.75535 0.10401 0.0
C716 C 0.56906 0.47881 0.16005 0.0
C717 C 0.61087 0.46527 0.14826 0.0
C718 C 0.53888 0.47251 0.13617 0.0
C719 C 0.54936 0.45281 0.09938 0.0
H720 H 0.55951 0.49429 0.18803 0.0
H721 H 0.50699 0.48361 0.14647 0.0
S722 S 0.65451 0.40964 0.05615 0.0
N723 N 0.66143 0.42992 0.09818 0.0
N724 N 0.60428 0.41838 0.05318 0.0
C725 C 0.59098 0.43898 0.08724 0.0
C726 C 0.62186 0.44518 0.11171 0.0
C727 C 0.3612 0.36932 0.0745 0.0
C728 C 0.35361 0.40821 0.04999 0.0
C729 C 0.33588 0.34353 0.07269 0.0
C730 C 0.30183 0.35593 0.04673 0.0
H731 H 0.38807 0.3578 0.09366 0.0
H732 H 0.34393 0.31307 0.09056 0.0
S733 S 0.26648 0.45611 0.97924 0.0
N734 N 0.30809 0.45902 1.00117 0.0
N735 N 0.25992 0.4105 0.99826 0.0
C736 C 0.29222 0.39569 0.02421 0.0
C737 C 0.31831 0.42192 0.02573 0.0
C738 C 0.12879 0.16049 0.25359 0.0
C739 C 0.08915 0.15579 0.26533 0.0
C740 C 0.16287 0.12688 0.25454 0.0
C741 C 0.15894 0.08694 0.26711 0.0
H742 H 0.13391 0.19062 0.24461 0.0
H743 H 0.19282 0.13249 0.24626 0.0
S744 S 0.06136 0.0573 0.29569 0.0
N745 N 0.04717 0.10776 0.28609 0.0
N746 N 0.11188 0.04397 0.28785 0.0
C747 C 0.11926 0.08128 0.27638 0.0
C748 C 0.08417 0.1159 0.2755 0.0
C749 C 0.2158 0.35295 0.91726 0.0
C750 C 0.2038 0.32147 0.90237 0.0
C751 C 0.21927 0.38828 0.88955 0.0
C752 C 0.20954 0.3939 0.84622 0.0
H753 H 0.22425 0.34957 0.94997 0.0
H754 H 0.23006 0.41111 0.90201 0.0
S755 S 0.17461 0.32147 0.79174 0.0
N756 N 0.18114 0.29878 0.84159 0.0
N757 N 0.1863 0.36544 0.79002 0.0
C758 C 0.19599 0.36333 0.83134 0.0
C759 C 0.19345 0.32706 0.85926 0.0
C760 C 0.35593 0.18533 0.89691 0.0
C761 C 0.3292 0.22232 0.90671 0.0
C762 C 0.38721 0.18521 0.86448 0.0
C763 C 0.39228 0.22208 0.84106 0.0
H764 H 0.35343 0.15658 0.91519 0.0
H765 H 0.40825 0.15642 0.85869 0.0
S766 S 0.32509 0.32607 0.84893 0.0
N767 N 0.30662 0.29594 0.88663 0.0
N768 N 0.36458 0.29569 0.82604 0.0
C769 C 0.36411 0.25882 0.849 0.0
C770 C 0.33274 0.25896 0.88177 0.0
C771 C 0.43178 0.48902 0.8754 0.0
C772 C 0.42328 0.50747 0.91304 0.0
C773 C 0.40014 0.48558 0.85156 0.0
C774 C 0.35873 0.50042 0.86443 0.0
H775 H 0.46323 0.47701 0.86418 0.0
H776 H 0.40827 0.47136 0.82265 0.0
S777 S 0.32006 0.5533 0.95938 0.0
N778 N 0.37058 0.54209 0.96137 0.0
N779 N 0.31077 0.53527 0.91674 0.0
C780 C 0.34969 0.51888 0.9021 0.0
C781 C 0.38207 0.52249 0.92638 0.0
C782 C 0.64362 0.61158 0.93446 0.0
C783 C 0.6674 0.60837 0.96985 0.0
C784 C 0.62026 0.5838 0.93281 0.0
C785 C 0.62017 0.55171 0.9663 0.0
H786 H 0.64171 0.63666 0.9086 0.0
H787 H 0.60093 0.58843 0.90585 0.0
S788 S 0.67898 0.52871 0.06511 0.0
N789 N 0.69104 0.56953 0.03828 0.0
N790 N 0.64721 0.51718 0.03505 0.0
C791 C 0.64546 0.54688 1.00086 0.0
C792 C 0.66908 0.57532 1.00268 0.0
C793 C 0.88258 0.85587 0.72933 0.0
C794 C 0.8789 0.81727 0.74931 0.0
C795 C 0.84837 0.8902 0.7277 0.0
C796 C 0.80986 0.88646 0.74579 0.0
H797 H 0.91115 0.85904 0.71277 0.0
H798 H 0.85143 0.919 0.70997 0.0
S799 S 0.78712 0.79412 0.80961 0.0
N800 N 0.83582 0.77907 0.79354 0.0
N801 N 0.77186 0.84284 0.78961 0.0
C802 C 0.80703 0.84884 0.76882 0.0
C803 C 0.84157 0.81436 0.77083 0.0
C804 C 0.43248 0.10871 0.63931 0.0
C805 C 0.46125 0.13219 0.63524 0.0
C806 C 0.42993 0.08552 0.6071 0.0
C807 C 0.45553 0.08596 0.56965 0.0
H808 H 0.41325 0.10675 0.66831 0.0
H809 H 0.40965 0.06539 0.61277 0.0
S810 S 0.52951 0.14988 0.54012 0.0
N811 N 0.51168 0.15894 0.58878 0.0
N812 N 0.50562 0.11738 0.52765 0.0
C813 C 0.48156 0.11253 0.56378 0.0
C814 C 0.48488 0.13504 0.59682 0.0
C815 C 0.53179 0.36861 0.85445 0.0
C816 C 0.51778 0.33314 0.86565 0.0
C817 C 0.53364 0.39316 0.88543 0.0
C818 C 0.52066 0.38335 0.92822 0.0
H819 H 0.54055 0.37787 0.82145 0.0
H820 H 0.54288 0.42122 0.87534 0.0
S821 S 0.48292 0.2931 0.9741 0.0
N822 N 0.49265 0.28843 0.92281 0.0
N823 N 0.49493 0.33534 0.98062 0.0
C824 C 0.50782 0.34738 0.93999 0.0
C825 C 0.50668 0.32202 0.90876 0.0
C826 C 0.50827 0.82544 0.40786 0.0
C827 C 0.51819 0.83608 0.3643 0.0
C828 C 0.50994 0.85068 0.43804 0.0
C829 C 0.52299 0.88652 0.42583 0.0
H830 H 0.49732 0.79843 0.41841 0.0
H831 H 0.49971 0.8428 0.4709 0.0
S832 S 0.55571 0.92586 0.31629 0.0
N833 N 0.54325 0.8836 0.31061 0.0
N834 N 0.54828 0.93027 0.36783 0.0
C835 C 0.53528 0.89625 0.38279 0.0
C836 C 0.53232 0.87121 0.35181 0.0
C837 C 0.49872 0.57635 0.10101 0.0
C838 C 0.46225 0.56804 0.09076 0.0
C839 C 0.49922 0.59895 0.13374 0.0
C840 C 0.46326 0.61481 0.1575 0.0
H841 H 0.52771 0.56489 0.08408 0.0
H842 H 0.52813 0.60461 0.13985 0.0
S843 S 0.35971 0.60158 0.14476 0.0
N844 N 0.38923 0.57666 0.10806 0.0
N845 N 0.39004 0.62041 0.1696 0.0
C846 C 0.42651 0.60656 0.14835 0.0
C847 C 0.42604 0.58291 0.11495 0.0
loop_
_geom_bond_atom_site_label_1
_geom_bond_atom_site_label_2
_geom_bond_distance
_geom_bond_site_symmetry_2
_ccdc_geom_bond_type
Dy0 O4 2.398 . S
Dy0 O5 2.491 . S
Dy0 O6 2.403 1_655 S
Dy0 O7 2.664 1_655 S
Dy0 O11 2.326 1_654 S
Dy0 O15 2.310 1_564 S
Dy0 O16 2.351 1_565 S
C1 O12 1.185 . S
C1 O13 1.355 . S
C2 O4 1.185 . S
C2 O5 1.355 . S
Dy3 O7 2.310 1_546 S
Dy3 O10 2.351 1_545 S
Dy3 O12 2.398 . S
Dy3 O13 2.491 . S
Dy3 O14 2.403 1_455 S
Dy3 O15 2.664 1_455 S
Dy3 O17 2.326 1_456 S
O4 Dy0 2.398 . S
O4 C2 1.185 . S
O5 Dy0 2.491 . S
O5 C2 1.355 . S
O6 Dy0 2.403 1_455 S
O6 C8 1.254 . S
O7 Dy0 2.664 1_455 S
O7 Dy3 2.310 1_564 S
O7 C8 1.268 . S
C8 O6 1.254 . S
C8 O7 1.268 . S
C9 O14 1.254 . S
C9 O15 1.268 . S
O10 Dy3 2.351 1_565 S
O10 C18 1.249 . S
O11 Dy0 2.326 1_456 S
O11 C18 1.267 . S
O12 C1 1.185 . S
O12 Dy3 2.398 . S
O13 C1 1.355 . S
O13 Dy3 2.491 . S
O14 Dy3 2.403 1_655 S
O14 C9 1.254 . S
O15 Dy0 2.310 1_546 S
O15 Dy3 2.664 1_655 S
O15 C9 1.268 . S
O16 Dy0 2.351 1_545 S
O16 C19 1.249 . S
O17 Dy3 2.326 1_654 S
O17 C19 1.267 . S
C18 O10 1.249 . S
C18 O11 1.267 . S
C19 O16 1.249 . S
C19 O17 1.267 . S
Dy20 O24 2.398 . S
Dy20 O25 2.491 1_455 S
Dy20 O26 2.403 . S
Dy20 O27 2.664 . S
Dy20 O31 2.326 1_455 S
Dy20 O35 2.310 1_455 S
Dy20 O36 2.351 . S
C21 O32 1.185 . S
C21 O33 1.355 1_655 S
C22 O24 1.185 . S
C22 O25 1.355 1_455 S
Dy23 O27 2.310 1_655 S
Dy23 O30 2.351 . S
Dy23 O32 2.398 . S
Dy23 O33 2.491 1_655 S
Dy23 O34 2.403 . S
Dy23 O35 2.664 . S
Dy23 O37 2.326 1_655 S
O24 Dy20 2.398 . S
O24 C22 1.185 . S
O25 Dy20 2.491 1_655 S
O25 C22 1.355 1_655 S
O26 Dy20 2.403 . S
O26 C28 1.254 . S
O27 Dy20 2.664 . S
O27 Dy23 2.310 1_455 S
O27 C28 1.268 . S
C28 O26 1.254 . S
C28 O27 1.268 . S
C29 O34 1.254 . S
C29 O35 1.268 . S
O30 Dy23 2.351 . S
O30 C38 1.249 . S
O31 Dy20 2.326 1_655 S
O31 C38 1.267 . S
O32 C21 1.185 . S
O32 Dy23 2.398 . S
O33 C21 1.355 1_455 S
O33 Dy23 2.491 1_455 S
O34 Dy23 2.403 . S
O34 C29 1.254 . S
O35 Dy20 2.310 1_655 S
O35 Dy23 2.664 . S
O35 C29 1.268 . S
O36 Dy20 2.351 . S
O36 C39 1.249 . S
O37 Dy23 2.326 1_455 S
O37 C39 1.267 . S
C38 O30 1.249 . S
C38 O31 1.267 . S
C39 O36 1.249 . S
C39 O37 1.267 . S
Dy40 O44 2.398 . S
Dy40 O45 2.491 . S
Dy40 O46 2.403 . S
Dy40 O47 2.664 . S
Dy40 O51 2.326 . S
Dy40 O55 2.310 . S
Dy40 O56 2.351 . S
C41 O52 1.185 . S
C41 O53 1.355 . S
C42 O44 1.185 . S
C42 O45 1.355 . S
Dy43 O47 2.310 . S
Dy43 O50 2.351 . S
Dy43 O52 2.398 . S
Dy43 O53 2.491 . S
Dy43 O54 2.403 . S
Dy43 O55 2.664 . S
Dy43 O57 2.326 . S
O44 Dy40 2.398 . S
O44 C42 1.185 . S
O45 Dy40 2.491 . S
O45 C42 1.355 . S
O46 Dy40 2.403 . S
O46 C48 1.254 . S
O47 Dy40 2.664 . S
O47 Dy43 2.310 . S
O47 C48 1.268 . S
C48 O46 1.254 . S
C48 O47 1.268 . S
C49 O54 1.254 . S
C49 O55 1.268 . S
O50 Dy43 2.351 . S
O50 C58 1.249 . S
O51 Dy40 2.326 . S
O51 C58 1.267 . S
O52 C41 1.185 . S
O52 Dy43 2.398 . S
O53 C41 1.355 . S
O53 Dy43 2.491 . S
O54 Dy43 2.403 . S
O54 C49 1.254 . S
O55 Dy40 2.310 . S
O55 Dy43 2.664 . S
O55 C49 1.268 . S
O56 Dy40 2.351 . S
O56 C59 1.249 . S
O57 Dy43 2.326 . S
O57 C59 1.267 . S
C58 O50 1.249 . S
C58 O51 1.267 . S
C59 O56 1.249 . S
C59 O57 1.267 . S
Dy60 O64 2.398 . S
Dy60 O65 2.491 1_565 S
Dy60 O66 2.403 . S
Dy60 O67 2.664 . S
Dy60 O71 2.326 1_565 S
Dy60 O75 2.310 1_565 S
Dy60 O76 2.351 . S
C61 O72 1.185 . S
C61 O73 1.355 1_545 S
C62 O64 1.185 . S
C62 O65 1.355 1_565 S
Dy63 O67 2.310 1_545 S
Dy63 O70 2.351 . S
Dy63 O72 2.398 . S
Dy63 O73 2.491 1_545 S
Dy63 O74 2.403 . S
Dy63 O75 2.664 . S
Dy63 O77 2.326 1_545 S
O64 Dy60 2.398 . S
O64 C62 1.185 . S
O65 Dy60 2.491 1_545 S
O65 C62 1.355 1_545 S
O66 Dy60 2.403 . S
O66 C68 1.254 . S
O67 Dy60 2.664 . S
O67 Dy63 2.310 1_565 S
O67 C68 1.268 . S
C68 O66 1.254 . S
C68 O67 1.268 . S
C69 O74 1.254 . S
C69 O75 1.268 . S
O70 Dy63 2.351 . S
O70 C78 1.249 . S
O71 Dy60 2.326 1_545 S
O71 C78 1.267 . S
O72 C61 1.185 . S
O72 Dy63 2.398 . S
O73 C61 1.355 1_565 S
O73 Dy63 2.491 1_565 S
O74 Dy63 2.403 . S
O74 C69 1.254 . S
O75 Dy60 2.310 1_545 S
O75 Dy63 2.664 . S
O75 C69 1.268 . S
O76 Dy60 2.351 . S
O76 C79 1.249 . S
O77 Dy63 2.326 1_565 S
O77 C79 1.267 . S
C78 O70 1.249 . S
C78 O71 1.267 . S
C79 O76 1.249 . S
C79 O77 1.267 . S
Dy80 O84 2.398 . S
Dy80 O85 2.491 . S
Dy80 O86 2.403 . S
Dy80 O87 2.664 . S
Dy80 O91 2.326 . S
Dy80 O95 2.310 . S
Dy80 O96 2.351 . S
C81 O92 1.185 . S
C81 O93 1.355 . S
C82 O84 1.185 . S
C82 O85 1.355 . S
Dy83 O87 2.310 . S
Dy83 O90 2.351 . S
Dy83 O92 2.398 . S
Dy83 O93 2.491 . S
Dy83 O94 2.403 . S
Dy83 O95 2.664 . S
Dy83 O97 2.326 . S
O84 Dy80 2.398 . S
O84 C82 1.185 . S
O85 Dy80 2.491 . S
O85 C82 1.355 . S
O86 Dy80 2.403 . S
O86 C88 1.254 . S
O87 Dy80 2.664 . S
O87 Dy83 2.310 . S
O87 C88 1.268 . S
C88 O86 1.254 . S
C88 O87 1.268 . S
C89 O94 1.254 . S
C89 O95 1.268 . S
O90 Dy83 2.351 . S
O90 C98 1.249 . S
O91 Dy80 2.326 . S
O91 C98 1.267 . S
O92 C81 1.185 . S
O92 Dy83 2.398 . S
O93 C81 1.355 . S
O93 Dy83 2.491 . S
O94 Dy83 2.403 . S
O94 C89 1.254 . S
O95 Dy80 2.310 . S
O95 Dy83 2.664 . S
O95 C89 1.268 . S
O96 Dy80 2.351 . S
O96 C99 1.249 . S
O97 Dy83 2.326 . S
O97 C99 1.267 . S
C98 O90 1.249 . S
C98 O91 1.267 . S
C99 O96 1.249 . S
C99 O97 1.267 . S
Dy100 O104 2.398 . S
Dy100 O105 2.491 . S
Dy100 O106 2.403 . S
Dy100 O107 2.664 . S
Dy100 O111 2.326 . S
Dy100 O115 2.310 . S
Dy100 O116 2.351 . S
C101 O112 1.185 . S
C101 O113 1.355 . S
C102 O104 1.185 . S
C102 O105 1.355 . S
Dy103 O107 2.310 . S
Dy103 O110 2.351 . S
Dy103 O112 2.398 . S
Dy103 O113 2.491 . S
Dy103 O114 2.403 . S
Dy103 O115 2.664 . S
Dy103 O117 2.326 . S
O104 Dy100 2.398 . S
O104 C102 1.185 . S
O105 Dy100 2.491 . S
O105 C102 1.355 . S
O106 Dy100 2.403 . S
O106 C108 1.254 . S
O107 Dy100 2.664 . S
O107 Dy103 2.310 . S
O107 C108 1.268 . S
C108 O106 1.254 . S
C108 O107 1.268 . S
C109 O114 1.254 . S
C109 O115 1.268 . S
O110 Dy103 2.351 . S
O110 C118 1.249 . S
O111 Dy100 2.326 . S
O111 C118 1.267 . S
O112 C101 1.185 . S
O112 Dy103 2.398 . S
O113 C101 1.355 . S
O113 Dy103 2.491 . S
O114 Dy103 2.403 . S
O114 C109 1.254 . S
O115 Dy100 2.310 . S
O115 Dy103 2.664 . S
O115 C109 1.268 . S
O116 Dy100 2.351 . S
O116 C119 1.249 . S
O117 Dy103 2.326 . S
O117 C119 1.267 . S
C118 O110 1.249 . S
C118 O111 1.267 . S
C119 O116 1.249 . S
C119 O117 1.267 . S
Dy120 O124 2.398 . S
Dy120 O125 2.491 . S
Dy120 O126 2.403 . S
Dy120 O127 2.664 . S
Dy120 O131 2.326 . S
Dy120 O135 2.310 . S
Dy120 O136 2.351 . S
C121 O132 1.185 . S
C121 O133 1.355 . S
C122 O124 1.185 . S
C122 O125 1.355 . S
Dy123 O127 2.310 . S
Dy123 O130 2.351 . S
Dy123 O132 2.398 . S
Dy123 O133 2.491 . S
Dy123 O134 2.403 . S
Dy123 O135 2.664 . S
Dy123 O137 2.326 . S
O124 Dy120 2.398 . S
O124 C122 1.185 . S
O125 Dy120 2.491 . S
O125 C122 1.355 . S
O126 Dy120 2.403 . S
O126 C128 1.254 . S
O127 Dy120 2.664 . S
O127 Dy123 2.310 . S
O127 C128 1.268 . S
C128 O126 1.254 . S
C128 O127 1.268 . S
C129 O134 1.254 . S
C129 O135 1.268 . S
O130 Dy123 2.351 . S
O130 C138 1.249 . S
O131 Dy120 2.326 . S
O131 C138 1.267 . S
O132 C121 1.185 . S
O132 Dy123 2.398 . S
O133 C121 1.355 . S
O133 Dy123 2.491 . S
O134 Dy123 2.403 . S
O134 C129 1.254 . S
O135 Dy120 2.310 . S
O135 Dy123 2.664 . S
O135 C129 1.268 . S
O136 Dy120 2.351 . S
O136 C139 1.249 . S
O137 Dy123 2.326 . S
O137 C139 1.267 . S
C138 O130 1.249 . S
C138 O131 1.267 . S
C139 O136 1.249 . S
C139 O137 1.267 . S
Dy140 O144 2.398 . S
Dy140 O145 2.491 . S
Dy140 O146 2.403 1_655 S
Dy140 O147 2.664 1_655 S
Dy140 O151 2.326 1_655 S
Dy140 O155 2.310 . S
Dy140 O156 2.351 . S
C141 O152 1.185 . S
C141 O153 1.355 . S
C142 O144 1.185 . S
C142 O145 1.355 . S
Dy143 O147 2.310 . S
Dy143 O150 2.351 . S
Dy143 O152 2.398 . S
Dy143 O153 2.491 . S
Dy143 O154 2.403 1_455 S
Dy143 O155 2.664 1_455 S
Dy143 O157 2.326 1_455 S
O144 Dy140 2.398 . S
O144 C142 1.185 . S
O145 Dy140 2.491 . S
O145 C142 1.355 . S
O146 Dy140 2.403 1_455 S
O146 C148 1.254 . S
O147 Dy140 2.664 1_455 S
O147 Dy143 2.310 . S
O147 C148 1.268 . S
C148 O146 1.254 . S
C148 O147 1.268 . S
C149 O154 1.254 . S
C149 O155 1.268 . S
O150 Dy143 2.351 . S
O150 C158 1.249 . S
O151 Dy140 2.326 1_455 S
O151 C158 1.267 . S
O152 C141 1.185 . S
O152 Dy143 2.398 . S
O153 C141 1.355 . S
O153 Dy143 2.491 . S
O154 Dy143 2.403 1_655 S
O154 C149 1.254 . S
O155 Dy140 2.310 . S
O155 Dy143 2.664 1_655 S
O155 C149 1.268 . S
O156 Dy140 2.351 . S
O156 C159 1.249 . S
O157 Dy143 2.326 1_655 S
O157 C159 1.267 . S
C158 O150 1.249 . S
C158 O151 1.267 . S
C159 O156 1.249 . S
C159 O157 1.267 . S
Dy160 O164 2.398 . S
Dy160 O165 2.491 1_556 S
Dy160 O166 2.403 . S
Dy160 O167 2.664 . S
Dy160 O171 2.326 1_556 S
Dy160 O175 2.310 1_556 S
Dy160 O176 2.351 . S
C161 O172 1.185 . S
C161 O173 1.355 1_554 S
C162 O164 1.185 . S
C162 O165 1.355 1_556 S
Dy163 O167 2.310 1_554 S
Dy163 O170 2.351 . S
Dy163 O172 2.398 . S
Dy163 O173 2.491 1_554 S
Dy163 O174 2.403 . S
Dy163 O175 2.664 . S
Dy163 O177 2.326 1_554 S
O164 Dy160 2.398 . S
O164 C162 1.185 . S
O165 Dy160 2.491 1_554 S
O165 C162 1.355 1_554 S
O166 Dy160 2.403 . S
O166 C168 1.254 . S
O167 Dy160 2.664 . S
O167 Dy163 2.310 1_556 S
O167 C168 1.268 . S
C168 O166 1.254 . S
C168 O167 1.268 . S
C169 O174 1.254 . S
C169 O175 1.268 . S
O170 Dy163 2.351 . S
O170 C178 1.249 . S
O171 Dy160 2.326 1_554 S
O171 C178 1.267 . S
O172 C161 1.185 . S
O172 Dy163 2.398 . S
O173 C161 1.355 1_556 S
O173 Dy163 2.491 1_556 S
O174 Dy163 2.403 . S
O174 C169 1.254 . S
O175 Dy160 2.310 1_554 S
O175 Dy163 2.664 . S
O175 C169 1.268 . S
O176 Dy160 2.351 . S
O176 C179 1.249 . S
O177 Dy163 2.326 1_556 S
O177 C179 1.267 . S
C178 O170 1.249 . S
C178 O171 1.267 . S
C179 O176 1.249 . S
C179 O177 1.267 . S
Dy180 O184 2.398 . S
Dy180 O185 2.491 1_565 S
Dy180 O186 2.403 . S
Dy180 O187 2.664 . S
Dy180 O191 2.326 1_565 S
Dy180 O195 2.310 1_565 S
Dy180 O196 2.351 . S
C181 O192 1.185 . S
C181 O193 1.355 1_545 S
C182 O184 1.185 . S
C182 O185 1.355 1_565 S
Dy183 O187 2.310 1_545 S
Dy183 O190 2.351 . S
Dy183 O192 2.398 . S
Dy183 O193 2.491 1_545 S
Dy183 O194 2.403 . S
Dy183 O195 2.664 . S
Dy183 O197 2.326 1_545 S
O184 Dy180 2.398 . S
O184 C182 1.185 . S
O185 Dy180 2.491 1_545 S
O185 C182 1.355 1_545 S
O186 Dy180 2.403 . S
O186 C188 1.254 . S
O187 Dy180 2.664 . S
O187 Dy183 2.310 1_565 S
O187 C188 1.268 . S
C188 O186 1.254 . S
C188 O187 1.268 . S
C189 O194 1.254 . S
C189 O195 1.268 . S
O190 Dy183 2.351 . S
O190 C198 1.249 . S
O191 Dy180 2.326 1_545 S
O191 C198 1.267 . S
O192 C181 1.185 . S
O192 Dy183 2.398 . S
O193 C181 1.355 1_565 S
O193 Dy183 2.491 1_565 S
O194 Dy183 2.403 . S
O194 C189 1.254 . S
O195 Dy180 2.310 1_545 S
O195 Dy183 2.664 . S
O195 C189 1.268 . S
O196 Dy180 2.351 . S
O196 C199 1.249 . S
O197 Dy183 2.326 1_565 S
O197 C199 1.267 . S
C198 O190 1.249 . S
C198 O191 1.267 . S
C199 O196 1.249 . S
C199 O197 1.267 . S
Dy200 O204 2.398 . S
Dy200 O205 2.491 . S
Dy200 O206 2.403 . S
Dy200 O207 2.664 . S
Dy200 O211 2.326 . S
Dy200 O215 2.310 . S
Dy200 O216 2.351 . S
C201 O212 1.185 . S
C201 O213 1.355 . S
C202 O204 1.185 . S
C202 O205 1.355 . S
Dy203 O207 2.310 . S
Dy203 O210 2.351 . S
Dy203 O212 2.398 . S
Dy203 O213 2.491 . S
Dy203 O214 2.403 . S
Dy203 O215 2.664 . S
Dy203 O217 2.326 . S
O204 Dy200 2.398 . S
O204 C202 1.185 . S
O205 Dy200 2.491 . S
O205 C202 1.355 . S
O206 Dy200 2.403 . S
O206 C208 1.254 . S
O207 Dy200 2.664 . S
O207 Dy203 2.310 . S
O207 C208 1.268 . S
C208 O206 1.254 . S
C208 O207 1.268 . S
C209 O214 1.254 . S
C209 O215 1.268 . S
O210 Dy203 2.351 . S
O210 C218 1.249 . S
O211 Dy200 2.326 . S
O211 C218 1.267 . S
O212 C201 1.185 . S
O212 Dy203 2.398 . S
O213 C201 1.355 . S
O213 Dy203 2.491 . S
O214 Dy203 2.403 . S
O214 C209 1.254 . S
O215 Dy200 2.310 . S
O215 Dy203 2.664 . S
O215 C209 1.268 . S
O216 Dy200 2.351 . S
O216 C219 1.249 . S
O217 Dy203 2.326 . S
O217 C219 1.267 . S
C218 O210 1.249 . S
C218 O211 1.267 . S
C219 O216 1.249 . S
C219 O217 1.267 . S
Dy220 O224 2.398 . S
Dy220 O225 2.491 1_455 S
Dy220 O226 2.403 . S
Dy220 O227 2.664 . S
Dy220 O231 2.326 1_455 S
Dy220 O235 2.310 1_455 S
Dy220 O236 2.351 . S
C221 O232 1.185 . S
C221 O233 1.355 1_655 S
C222 O224 1.185 . S
C222 O225 1.355 1_455 S
Dy223 O227 2.310 1_655 S
Dy223 O230 2.351 . S
Dy223 O232 2.398 . S
Dy223 O233 2.491 1_655 S
Dy223 O234 2.403 . S
Dy223 O235 2.664 . S
Dy223 O237 2.326 1_655 S
O224 Dy220 2.398 . S
O224 C222 1.185 . S
O225 Dy220 2.491 1_655 S
O225 C222 1.355 1_655 S
O226 Dy220 2.403 . S
O226 C228 1.254 . S
O227 Dy220 2.664 . S
O227 Dy223 2.310 1_455 S
O227 C228 1.268 . S
C228 O226 1.254 . S
C228 O227 1.268 . S
C229 O234 1.254 . S
C229 O235 1.268 . S
O230 Dy223 2.351 . S
O230 C238 1.249 . S
O231 Dy220 2.326 1_655 S
O231 C238 1.267 . S
O232 C221 1.185 . S
O232 Dy223 2.398 . S
O233 C221 1.355 1_455 S
O233 Dy223 2.491 1_455 S
O234 Dy223 2.403 . S
O234 C229 1.254 . S
O235 Dy220 2.310 1_655 S
O235 Dy223 2.664 . S
O235 C229 1.268 . S
O236 Dy220 2.351 . S
O236 C239 1.249 . S
O237 Dy223 2.326 1_455 S
O237 C239 1.267 . S
C238 O230 1.249 . S
C238 O231 1.267 . S
C239 O236 1.249 . S
C239 O237 1.267 . S
Dy240 O244 2.398 . S
Dy240 O245 2.491 . S
Dy240 O246 2.403 . S
Dy240 O247 2.664 . S
Dy240 O251 2.326 . S
Dy240 O255 2.310 . S
Dy240 O256 2.351 . S
C241 O252 1.185 . S
C241 O253 1.355 . S
C242 O244 1.185 . S
C242 O245 1.355 . S
Dy243 O247 2.310 . S
Dy243 O250 2.351 . S
Dy243 O252 2.398 . S
Dy243 O253 2.491 . S
Dy243 O254 2.403 . S
Dy243 O255 2.664 . S
Dy243 O257 2.326 . S
O244 Dy240 2.398 . S
O244 C242 1.185 . S
O245 Dy240 2.491 . S
O245 C242 1.355 . S
O246 Dy240 2.403 . S
O246 C248 1.254 . S
O247 Dy240 2.664 . S
O247 Dy243 2.310 . S
O247 C248 1.268 . S
C248 O246 1.254 . S
C248 O247 1.268 . S
C249 O254 1.254 . S
C249 O255 1.268 . S
O250 Dy243 2.351 . S
O250 C258 1.249 . S
O251 Dy240 2.326 . S
O251 C258 1.267 . S
O252 C241 1.185 . S
O252 Dy243 2.398 . S
O253 C241 1.355 . S
O253 Dy243 2.491 . S
O254 Dy243 2.403 . S
O254 C249 1.254 . S
O255 Dy240 2.310 . S
O255 Dy243 2.664 . S
O255 C249 1.268 . S
O256 Dy240 2.351 . S
O256 C259 1.249 . S
O257 Dy243 2.326 . S
O257 C259 1.267 . S
C258 O250 1.249 . S
C258 O251 1.267 . S
C259 O256 1.249 . S
C259 O257 1.267 . S
Dy260 O264 2.398 . S
Dy260 O265 2.491 1_556 S
Dy260 O266 2.403 . S
Dy260 O267 2.664 . S
Dy260 O271 2.326 1_556 S
Dy260 O275 2.310 1_556 S
Dy260 O276 2.351 . S
C261 O272 1.185 . S
C261 O273 1.355 1_554 S
C262 O264 1.185 . S
C262 O265 1.355 1_556 S
Dy263 O267 2.310 1_554 S
Dy263 O270 2.351 . S
Dy263 O272 2.398 . S
Dy263 O273 2.491 1_554 S
Dy263 O274 2.403 . S
Dy263 O275 2.664 . S
Dy263 O277 2.326 1_554 S
O264 Dy260 2.398 . S
O264 C262 1.185 . S
O265 Dy260 2.491 1_554 S
O265 C262 1.355 1_554 S
O266 Dy260 2.403 . S
O266 C268 1.254 . S
O267 Dy260 2.664 . S
O267 Dy263 2.310 1_556 S
O267 C268 1.268 . S
C268 O266 1.254 . S
C268 O267 1.268 . S
C269 O274 1.254 . S
C269 O275 1.268 . S
O270 Dy263 2.351 . S
O270 C278 1.249 . S
O271 Dy260 2.326 1_554 S
O271 C278 1.267 . S
O272 C261 1.185 . S
O272 Dy263 2.398 . S
O273 C261 1.355 1_556 S
O273 Dy263 2.491 1_556 S
O274 Dy263 2.403 . S
O274 C269 1.254 . S
O275 Dy260 2.310 1_554 S
O275 Dy263 2.664 . S
O275 C269 1.268 . S
O276 Dy260 2.351 . S
O276 C279 1.249 . S
O277 Dy263 2.326 1_556 S
O277 C279 1.267 . S
C278 O270 1.249 . S
C278 O271 1.267 . S
C279 O276 1.249 . S
C279 O277 1.267 . S
Dy280 O284 2.398 . S
Dy280 O285 2.491 . S
Dy280 O286 2.403 . S
Dy280 O287 2.664 . S
Dy280 O291 2.326 . S
Dy280 O295 2.310 1_565 S
Dy280 O296 2.351 1_565 S
C281 O292 1.185 . S
C281 O293 1.355 . S
C282 O284 1.185 . S
C282 O285 1.355 . S
Dy283 O287 2.310 1_545 S
Dy283 O290 2.351 1_545 S
Dy283 O292 2.398 . S
Dy283 O293 2.491 . S
Dy283 O294 2.403 . S
Dy283 O295 2.664 . S
Dy283 O297 2.326 . S
O284 Dy280 2.398 . S
O284 C282 1.185 . S
O285 Dy280 2.491 . S
O285 C282 1.355 . S
O286 Dy280 2.403 . S
O286 C288 1.254 . S
O287 Dy280 2.664 . S
O287 Dy283 2.310 1_565 S
O287 C288 1.268 . S
C288 O286 1.254 . S
C288 O287 1.268 . S
C289 O294 1.254 . S
C289 O295 1.268 . S
O290 Dy283 2.351 1_565 S
O290 C298 1.249 . S
O291 Dy280 2.326 . S
O291 C298 1.267 . S
O292 C281 1.185 . S
O292 Dy283 2.398 . S
O293 C281 1.355 . S
O293 Dy283 2.491 . S
O294 Dy283 2.403 . S
O294 C289 1.254 . S
O295 Dy280 2.310 1_545 S
O295 Dy283 2.664 . S
O295 C289 1.268 . S
O296 Dy280 2.351 1_545 S
O296 C299 1.249 . S
O297 Dy283 2.326 . S
O297 C299 1.267 . S
C298 O290 1.249 . S
C298 O291 1.267 . S
C299 O296 1.249 . S
C299 O297 1.267 . S
Dy300 O304 2.398 . S
Dy300 O305 2.491 . S
Dy300 O306 2.403 . S
Dy300 O307 2.664 . S
Dy300 O311 2.326 1_554 S
Dy300 O315 2.310 1_554 S
Dy300 O316 2.351 . S
C301 O312 1.185 . S
C301 O313 1.355 . S
C302 O304 1.185 . S
C302 O305 1.355 . S
Dy303 O307 2.310 1_556 S
Dy303 O310 2.351 . S
Dy303 O312 2.398 . S
Dy303 O313 2.491 . S
Dy303 O314 2.403 . S
Dy303 O315 2.664 . S
Dy303 O317 2.326 1_556 S
O304 Dy300 2.398 . S
O304 C302 1.185 . S
O305 Dy300 2.491 . S
O305 C302 1.355 . S
O306 Dy300 2.403 . S
O306 C308 1.254 . S
O307 Dy300 2.664 . S
O307 Dy303 2.310 1_554 S
O307 C308 1.268 . S
C308 O306 1.254 . S
C308 O307 1.268 . S
C309 O314 1.254 . S
C309 O315 1.268 . S
O310 Dy303 2.351 . S
O310 C318 1.249 . S
O311 Dy300 2.326 1_556 S
O311 C318 1.267 . S
O312 C301 1.185 . S
O312 Dy303 2.398 . S
O313 C301 1.355 . S
O313 Dy303 2.491 . S
O314 Dy303 2.403 . S
O314 C309 1.254 . S
O315 Dy300 2.310 1_556 S
O315 Dy303 2.664 . S
O315 C309 1.268 . S
O316 Dy300 2.351 . S
O316 C319 1.249 . S
O317 Dy303 2.326 1_554 S
O317 C319 1.267 . S
C318 O310 1.249 . S
C318 O311 1.267 . S
C319 O316 1.249 . S
C319 O317 1.267 . S
C320 C321 1.369 . S
C320 C322 1.419 . S
C320 H324 0.930 . S
C321 C320 1.369 . S
C321 C330 1.429 . S
C322 C320 1.419 . S
C322 C323 1.363 . S
C322 H325 0.929 . S
C323 C322 1.363 . S
C323 C329 1.428 . S
H324 C320 0.930 . S
H325 C322 0.929 . S
S326 N327 1.613 1_556 S
S326 N328 1.607 1_556 S
N327 S326 1.613 1_554 S
N327 C330 1.350 . S
N328 S326 1.607 1_554 S
N328 C329 1.351 . S
C329 C323 1.428 . S
C329 N328 1.351 . S
C329 C330 1.434 . S
C330 C321 1.429 . S
C330 N327 1.350 . S
C330 C329 1.434 . S
C331 C332 1.369 . S
C331 C333 1.419 . S
C331 H335 0.930 . S
C332 C331 1.369 . S
C332 C341 1.429 . S
C333 C331 1.419 . S
C333 C334 1.363 . S
C333 H336 0.929 . S
C334 C333 1.363 . S
C334 C340 1.428 . S
H335 C331 0.930 . S
H336 C333 0.929 . S
S337 N338 1.613 . S
S337 N339 1.610 . S
N338 S337 1.613 . S
N338 C341 1.350 . S
N339 S337 1.610 . S
N339 C340 1.351 . S
C340 C334 1.428 . S
C340 N339 1.351 . S
C340 C341 1.434 . S
C341 C332 1.429 . S
C341 N338 1.350 . S
C341 C340 1.434 . S
C342 C343 1.369 . S
C342 C344 1.419 . S
C342 H346 0.930 . S
C343 C342 1.369 . S
C343 C352 1.429 . S
C344 C342 1.419 . S
C344 C345 1.363 . S
C344 H347 0.929 . S
C345 C344 1.363 . S
C345 C351 1.428 . S
H346 C342 0.930 . S
H347 C344 0.929 . S
S348 N349 1.613 . S
S348 N350 1.610 . S
N349 S348 1.613 . S
N349 C352 1.350 . S
N350 S348 1.610 . S
N350 C351 1.351 . S
C351 C345 1.428 . S
C351 N350 1.351 . S
C351 C352 1.434 . S
C352 C343 1.429 . S
C352 N349 1.350 . S
C352 C351 1.434 . S
C353 C354 1.369 . S
C353 C355 1.419 . S
C353 H357 0.930 . S
C354 C353 1.369 . S
C354 C363 1.429 1_545 S
C355 C353 1.419 . S
C355 C356 1.363 . S
C355 H358 0.929 . S
C356 C355 1.363 . S
C356 C362 1.428 1_545 S
H357 C353 0.930 . S
H358 C355 0.929 . S
S359 N360 1.613 . S
S359 N361 1.610 . S
N360 S359 1.613 . S
N360 C363 1.350 . S
N361 S359 1.610 . S
N361 C362 1.351 . S
C362 C356 1.428 1_565 S
C362 N361 1.351 . S
C362 C363 1.434 . S
C363 C354 1.429 1_565 S
C363 N360 1.350 . S
C363 C362 1.434 . S
C364 C365 1.369 . S
C364 C366 1.419 . S
C364 H368 0.930 . S
C365 C364 1.369 . S
C365 C374 1.429 . S
C366 C364 1.419 . S
C366 C367 1.363 . S
C366 H369 0.929 1_565 S
C367 C366 1.363 . S
C367 C373 1.428 . S
H368 C364 0.930 . S
H369 C366 0.929 1_545 S
S370 N371 1.613 . S
S370 N372 1.610 . S
N371 S370 1.613 . S
N371 C374 1.350 . S
N372 S370 1.610 . S
N372 C373 1.351 . S
C373 C367 1.428 . S
C373 N372 1.351 . S
C373 C374 1.434 . S
C374 C365 1.429 . S
C374 N371 1.350 . S
C374 C373 1.434 . S
C375 C376 1.369 . S
C375 C377 1.419 . S
C375 H379 0.930 . S
C376 C375 1.369 . S
C376 C385 1.429 1_455 S
C377 C375 1.419 . S
C377 C378 1.363 . S
C377 H380 0.929 . S
C378 C377 1.363 . S
C378 C384 1.428 1_455 S
H379 C375 0.930 . S
H380 C377 0.929 . S
S381 N382 1.613 . S
S381 N383 1.610 . S
N382 S381 1.613 . S
N382 C385 1.350 . S
N383 S381 1.610 . S
N383 C384 1.351 . S
C384 C378 1.428 1_655 S
C384 N383 1.351 . S
C384 C385 1.434 . S
C385 C376 1.429 1_655 S
C385 N382 1.350 . S
C385 C384 1.434 . S
C386 C387 1.369 . S
C386 C388 1.419 . S
C386 H390 0.930 . S
C387 C386 1.369 . S
C387 C396 1.429 . S
C388 C386 1.419 . S
C388 C389 1.363 . S
C388 H391 0.929 . S
C389 C388 1.363 . S
C389 C395 1.428 . S
H390 C386 0.930 . S
H391 C388 0.929 . S
S392 N393 1.613 . S
S392 N394 1.610 . S
N393 S392 1.613 . S
N393 C396 1.350 . S
N394 S392 1.610 . S
N394 C395 1.351 . S
C395 C389 1.428 . S
C395 N394 1.351 . S
C395 C396 1.434 . S
C396 C387 1.429 . S
C396 N393 1.350 . S
C396 C395 1.434 . S
C397 C398 1.369 . S
C397 C399 1.419 . S
C397 H401 0.930 . S
C398 C397 1.369 . S
C398 C407 1.429 . S
C399 C397 1.419 . S
C399 C400 1.363 . S
C399 H402 0.929 . S
C400 C399 1.363 . S
C400 C406 1.428 . S
H401 C397 0.930 . S
H402 C399 0.929 . S
S403 N404 1.613 . S
S403 N405 1.610 . S
N404 S403 1.613 . S
N404 C407 1.350 . S
N405 S403 1.610 . S
N405 C406 1.351 . S
C406 C400 1.428 . S
C406 N405 1.351 . S
C406 C407 1.434 . S
C407 C398 1.429 . S
C407 N404 1.350 . S
C407 C406 1.434 . S
C408 C409 1.369 . S
C408 C410 1.419 . S
C408 H412 0.930 . S
C409 C408 1.369 . S
C409 C418 1.429 . S
C410 C408 1.419 . S
C410 C411 1.363 . S
C410 H413 0.929 . S
C411 C410 1.363 . S
C411 C417 1.428 . S
H412 C408 0.930 . S
H413 C410 0.929 . S
S414 N415 1.613 . S
S414 N416 1.610 . S
N415 S414 1.613 . S
N415 C418 1.350 . S
N416 S414 1.610 . S
N416 C417 1.351 . S
C417 C411 1.428 . S
C417 N416 1.351 . S
C417 C418 1.434 . S
C418 C409 1.429 . S
C418 N415 1.350 . S
C418 C417 1.434 . S
C419 C420 1.369 . S
C419 C421 1.419 . S
C419 H423 0.930 . S
C420 C419 1.369 . S
C420 C429 1.429 . S
C421 C419 1.419 . S
C421 C422 1.363 . S
C421 H424 0.929 . S
C422 C421 1.363 . S
C422 C428 1.428 . S
H423 C419 0.930 . S
H424 C421 0.929 . S
S425 N426 1.613 . S
S425 N427 1.610 . S
N426 S425 1.613 . S
N426 C429 1.350 . S
N427 S425 1.610 . S
N427 C428 1.351 . S
C428 C422 1.428 . S
C428 N427 1.351 . S
C428 C429 1.434 . S
C429 C420 1.429 . S
C429 N426 1.350 . S
C429 C428 1.434 . S
C430 C431 1.369 . S
C430 C432 1.419 . S
C430 H434 0.930 . S
C431 C430 1.369 . S
C431 C440 1.429 1_565 S
C432 C430 1.419 . S
C432 C433 1.363 . S
C432 H435 0.929 . S
C433 C432 1.363 . S
C433 C439 1.428 1_565 S
H434 C430 0.930 . S
H435 C432 0.929 . S
S436 N437 1.613 . S
S436 N438 1.610 . S
N437 S436 1.613 . S
N437 C440 1.350 . S
N438 S436 1.610 . S
N438 C439 1.351 . S
C439 C433 1.428 1_545 S
C439 N438 1.351 . S
C439 C440 1.434 . S
C440 C431 1.429 1_545 S
C440 N437 1.350 . S
C440 C439 1.434 . S
C441 C442 1.369 . S
C441 C443 1.419 . S
C441 H445 0.930 . S
C442 C441 1.369 . S
C442 C451 1.429 . S
C443 C441 1.419 . S
C443 C444 1.363 . S
C443 H446 0.929 . S
C444 C443 1.363 . S
C444 C450 1.428 . S
H445 C441 0.930 . S
H446 C443 0.929 . S
S447 N448 1.613 . S
S447 N449 1.610 . S
N448 S447 1.613 . S
N448 C451 1.350 . S
N449 S447 1.610 . S
N449 C450 1.351 . S
C450 C444 1.428 . S
C450 N449 1.351 . S
C450 C451 1.434 . S
C451 C442 1.429 . S
C451 N448 1.350 . S
C451 C450 1.434 . S
C452 C453 1.369 . S
C452 C454 1.419 . S
C452 H456 0.930 . S
C453 C452 1.369 . S
C453 C462 1.429 . S
C454 C452 1.419 . S
C454 C455 1.363 . S
C454 H457 0.929 . S
C455 C454 1.363 . S
C455 C461 1.428 . S
H456 C452 0.930 . S
H457 C454 0.929 . S
S458 N459 1.615 . S
S458 N460 1.610 . S
N459 S458 1.615 . S
N459 C462 1.350 . S
N460 S458 1.610 . S
N460 C461 1.351 . S
C461 C455 1.428 . S
C461 N460 1.351 . S
C461 C462 1.434 . S
C462 C453 1.429 . S
C462 N459 1.350 . S
C462 C461 1.434 . S
C463 C464 1.369 . S
C463 C465 1.419 . S
C463 H467 0.930 . S
C464 C463 1.369 . S
C464 C473 1.429 . S
C465 C463 1.419 . S
C465 C466 1.363 . S
C465 H468 0.929 . S
C466 C465 1.363 . S
C466 C472 1.428 . S
H467 C463 0.930 . S
H468 C465 0.929 . S
S469 N470 1.613 . S
S469 N471 1.610 . S
N470 S469 1.613 . S
N470 C473 1.350 . S
N471 S469 1.610 . S
N471 C472 1.351 . S
C472 C466 1.428 . S
C472 N471 1.351 . S
C472 C473 1.434 . S
C473 C464 1.429 . S
C473 N470 1.350 . S
C473 C472 1.434 . S
C474 C475 1.369 . S
C474 C476 1.419 . S
C474 H478 0.930 . S
C475 C474 1.369 . S
C475 C484 1.429 . S
C476 C474 1.419 . S
C476 C477 1.363 . S
C476 H479 0.929 . S
C477 C476 1.363 . S
C477 C483 1.428 . S
H478 C474 0.930 . S
H479 C476 0.929 . S
S480 N481 1.613 . S
S480 N482 1.610 . S
N481 S480 1.613 . S
N481 C484 1.350 . S
N482 S480 1.610 . S
N482 C483 1.351 . S
C483 C477 1.428 . S
C483 N482 1.351 . S
C483 C484 1.434 . S
C484 C475 1.429 . S
C484 N481 1.350 . S
C484 C483 1.434 . S
C485 C486 1.369 . S
C485 C487 1.419 . S
C485 H489 0.930 . S
C486 C485 1.369 . S
C486 C495 1.429 . S
C487 C485 1.419 . S
C487 C488 1.363 . S
C487 H490 0.929 . S
C488 C487 1.363 . S
C488 C494 1.428 . S
H489 C485 0.930 . S
H490 C487 0.929 . S
S491 N492 1.613 . S
S491 N493 1.610 . S
N492 S491 1.613 . S
N492 C495 1.350 . S
N493 S491 1.610 . S
N493 C494 1.351 . S
C494 C488 1.428 . S
C494 N493 1.351 . S
C494 C495 1.434 . S
C495 C486 1.429 . S
C495 N492 1.350 . S
C495 C494 1.434 . S
C496 C497 1.369 . S
C496 C498 1.419 . S
C496 H500 0.930 . S
C497 C496 1.369 . S
C497 C506 1.429 . S
C498 C496 1.419 . S
C498 C499 1.363 . S
C498 H501 0.929 . S
C499 C498 1.363 . S
C499 C505 1.428 . S
H500 C496 0.930 . S
H501 C498 0.929 . S
S502 N503 1.613 . S
S502 N504 1.610 . S
N503 S502 1.613 . S
N503 C506 1.350 . S
N504 S502 1.610 . S
N504 C505 1.351 . S
C505 C499 1.428 . S
C505 N504 1.351 . S
C505 C506 1.434 . S
C506 C497 1.429 . S
C506 N503 1.350 . S
C506 C505 1.434 . S
C507 C508 1.369 . S
C507 C509 1.419 . S
C507 H511 0.930 . S
C508 C507 1.369 . S
C508 C517 1.429 . S
C509 C507 1.419 . S
C509 C510 1.363 . S
C509 H512 0.929 . S
C510 C509 1.363 . S
C510 C516 1.428 . S
H511 C507 0.930 . S
H512 C509 0.929 . S
S513 N514 1.613 . S
S513 N515 1.610 . S
N514 S513 1.613 . S
N514 C517 1.350 . S
N515 S513 1.610 . S
N515 C516 1.351 . S
C516 C510 1.428 . S
C516 N515 1.351 . S
C516 C517 1.434 . S
C517 C508 1.429 . S
C517 N514 1.350 . S
C517 C516 1.434 . S
C518 C519 1.369 . S
C518 C520 1.419 . S
C518 H522 0.930 . S
C519 C518 1.369 . S
C519 C528 1.429 . S
C520 C518 1.419 . S
C520 C521 1.363 . S
C520 H523 0.929 . S
C521 C520 1.363 . S
C521 C527 1.428 . S
H522 C518 0.930 . S
H523 C520 0.929 . S
S524 N525 1.613 . S
S524 N526 1.610 . S
N525 S524 1.613 . S
N525 C528 1.350 . S
N526 S524 1.610 . S
N526 C527 1.351 . S
C527 C521 1.428 . S
C527 N526 1.351 . S
C527 C528 1.434 . S
C528 C519 1.429 . S
C528 N525 1.350 . S
C528 C527 1.434 . S
C529 C530 1.369 . S
C529 C531 1.419 . S
C529 H533 0.930 . S
C530 C529 1.369 . S
C530 C539 1.429 . S
C531 C529 1.419 . S
C531 C532 1.363 . S
C531 H534 0.929 . S
C532 C531 1.363 . S
C532 C538 1.428 . S
H533 C529 0.930 . S
H534 C531 0.929 . S
S535 N536 1.613 . S
S535 N537 1.610 . S
N536 S535 1.613 . S
N536 C539 1.350 . S
N537 S535 1.610 . S
N537 C538 1.351 . S
C538 C532 1.428 . S
C538 N537 1.351 . S
C538 C539 1.434 . S
C539 C530 1.429 . S
C539 N536 1.350 . S
C539 C538 1.434 . S
C540 C541 1.369 . S
C540 C542 1.419 . S
C540 H544 0.930 . S
C541 C540 1.369 . S
C541 C550 1.429 . S
C542 C540 1.419 . S
C542 C543 1.363 . S
C542 H545 0.929 . S
C543 C542 1.363 . S
C543 C549 1.428 . S
H544 C540 0.930 . S
H545 C542 0.929 . S
S546 N547 1.613 . S
S546 N548 1.610 . S
N547 S546 1.613 . S
N547 C550 1.350 . S
N548 S546 1.610 . S
N548 C549 1.351 . S
C549 C543 1.428 . S
C549 N548 1.351 . S
C549 C550 1.434 . S
C550 C541 1.429 . S
C550 N547 1.350 . S
C550 C549 1.434 . S
C551 C552 1.369 1_455 S
C551 C553 1.419 1_455 S
C551 H555 0.930 . S
C552 C551 1.369 1_655 S
C552 C561 1.429 . S
C553 C551 1.419 1_655 S
C553 C554 1.363 . S
C553 H556 0.929 1_655 S
C554 C553 1.363 . S
C554 C560 1.428 . S
H555 C551 0.930 . S
H556 C553 0.929 1_455 S
S557 N558 1.613 . S
S557 N559 1.610 . S
N558 S557 1.613 . S
N558 C561 1.350 . S
N559 S557 1.610 . S
N559 C560 1.351 . S
C560 C554 1.428 . S
C560 N559 1.351 . S
C560 C561 1.434 . S
C561 C552 1.429 . S
C561 N558 1.350 . S
C561 C560 1.434 . S
C562 C563 1.369 . S
C562 C564 1.419 . S
C562 H566 0.930 . S
C563 C562 1.369 . S
C563 C572 1.429 . S
C564 C562 1.419 . S
C564 C565 1.363 . S
C564 H567 0.929 . S
C565 C564 1.363 . S
C565 C571 1.428 . S
H566 C562 0.930 . S
H567 C564 0.929 . S
S568 N569 1.613 . S
S568 N570 1.610 . S
N569 S568 1.613 . S
N569 C572 1.350 . S
N570 S568 1.610 . S
N570 C571 1.351 . S
C571 C565 1.428 . S
C571 N570 1.351 . S
C571 C572 1.434 . S
C572 C563 1.429 . S
C572 N569 1.350 . S
C572 C571 1.434 . S
C573 C574 1.369 . S
C573 C575 1.419 . S
C573 H577 0.930 . S
C574 C573 1.369 . S
C574 C583 1.429 . S
C575 C573 1.419 . S
C575 C576 1.363 . S
C575 H578 0.929 . S
C576 C575 1.363 . S
C576 C582 1.428 . S
H577 C573 0.930 . S
H578 C575 0.929 . S
S579 N580 1.613 . S
S579 N581 1.610 . S
N580 S579 1.613 . S
N580 C583 1.350 . S
N581 S579 1.610 . S
N581 C582 1.351 . S
C582 C576 1.428 . S
C582 N581 1.351 . S
C582 C583 1.434 . S
C583 C574 1.429 . S
C583 N580 1.350 . S
C583 C582 1.434 . S
C584 C585 1.369 . S
C584 C586 1.419 . S
C584 H588 0.930 . S
C585 C584 1.369 . S
C585 C594 1.429 . S
C586 C584 1.419 . S
C586 C587 1.363 . S
C586 H589 0.929 . S
C587 C586 1.363 . S
C587 C593 1.428 . S
H588 C584 0.930 . S
H589 C586 0.929 . S
S590 N591 1.613 . S
S590 N592 1.610 . S
N591 S590 1.613 . S
N591 C594 1.350 . S
N592 S590 1.610 . S
N592 C593 1.351 . S
C593 C587 1.428 . S
C593 N592 1.351 . S
C593 C594 1.434 . S
C594 C585 1.429 . S
C594 N591 1.350 . S
C594 C593 1.434 . S
C595 C596 1.369 . S
C595 C597 1.419 . S
C595 H599 0.930 . S
C596 C595 1.369 . S
C596 C605 1.429 . S
C597 C595 1.419 . S
C597 C598 1.363 . S
C597 H600 0.929 . S
C598 C597 1.363 . S
C598 C604 1.428 . S
H599 C595 0.930 . S
H600 C597 0.929 . S
S601 N602 1.613 . S
S601 N603 1.610 . S
N602 S601 1.613 . S
N602 C605 1.350 . S
N603 S601 1.610 . S
N603 C604 1.351 . S
C604 C598 1.428 . S
C604 N603 1.351 . S
C604 C605 1.434 . S
C605 C596 1.429 . S
C605 N602 1.350 . S
C605 C604 1.434 . S
C606 C607 1.369 . S
C606 C608 1.419 . S
C606 H610 0.930 . S
C607 C606 1.369 . S
C607 C616 1.429 . S
C608 C606 1.419 . S
C608 C609 1.363 . S
C608 H611 0.929 . S
C609 C608 1.363 . S
C609 C615 1.428 . S
H610 C606 0.930 . S
H611 C608 0.929 . S
S612 N613 1.613 . S
S612 N614 1.610 . S
N613 S612 1.613 . S
N613 C616 1.350 . S
N614 S612 1.610 . S
N614 C615 1.351 . S
C615 C609 1.428 . S
C615 N614 1.351 . S
C615 C616 1.434 . S
C616 C607 1.429 . S
C616 N613 1.350 . S
C616 C615 1.434 . S
C617 C618 1.369 . S
C617 C619 1.419 . S
C617 H621 0.930 . S
C618 C617 1.369 . S
C618 C627 1.429 1_554 S
C619 C617 1.419 . S
C619 C620 1.363 . S
C619 H622 0.929 . S
C620 C619 1.363 . S
C620 C626 1.428 1_554 S
H621 C617 0.930 . S
H622 C619 0.929 . S
S623 N624 1.613 . S
S623 N625 1.610 . S
N624 S623 1.613 . S
N624 C627 1.350 . S
N625 S623 1.610 . S
N625 C626 1.351 . S
C626 C620 1.428 1_556 S
C626 N625 1.351 . S
C626 C627 1.434 . S
C627 C618 1.429 1_556 S
C627 N624 1.350 . S
C627 C626 1.434 . S
C628 C629 1.369 . S
C628 C630 1.419 . S
C628 H632 0.930 . S
C629 C628 1.369 . S
C629 C638 1.429 . S
C630 C628 1.419 . S
C630 C631 1.363 . S
C630 H633 0.929 . S
C631 C630 1.363 . S
C631 C637 1.428 . S
H632 C628 0.930 . S
H633 C630 0.929 . S
S634 N635 1.613 . S
S634 N636 1.610 . S
N635 S634 1.613 . S
N635 C638 1.350 . S
N636 S634 1.610 . S
N636 C637 1.351 . S
C637 C631 1.428 . S
C637 N636 1.351 . S
C637 C638 1.434 . S
C638 C629 1.429 . S
C638 N635 1.350 . S
C638 C637 1.434 . S
C639 C640 1.369 . S
C639 C641 1.419 . S
C639 H643 0.930 . S
C640 C639 1.369 . S
C640 C649 1.429 . S
C641 C639 1.419 . S
C641 C642 1.363 . S
C641 H644 0.929 . S
C642 C641 1.363 . S
C642 C648 1.428 . S
H643 C639 0.930 . S
H644 C641 0.929 . S
S645 N646 1.613 . S
S645 N647 1.610 . S
N646 S645 1.613 . S
N646 C649 1.350 . S
N647 S645 1.610 . S
N647 C648 1.351 . S
C648 C642 1.428 . S
C648 N647 1.351 . S
C648 C649 1.434 . S
C649 C640 1.429 . S
C649 N646 1.350 . S
C649 C648 1.434 . S
C650 C651 1.369 . S
C650 C652 1.419 . S
C650 H654 0.930 . S
C651 C650 1.369 . S
C651 C660 1.429 . S
C652 C650 1.419 . S
C652 C653 1.363 . S
C652 H655 0.929 . S
C653 C652 1.363 . S
C653 C659 1.428 . S
H654 C650 0.930 . S
H655 C652 0.929 . S
S656 N657 1.613 . S
S656 N658 1.610 . S
N657 S656 1.613 . S
N657 C660 1.350 . S
N658 S656 1.610 . S
N658 C659 1.351 . S
C659 C653 1.428 . S
C659 N658 1.351 . S
C659 C660 1.434 . S
C660 C651 1.429 . S
C660 N657 1.350 . S
C660 C659 1.434 . S
C661 C662 1.369 . S
C661 C663 1.419 . S
C661 H665 0.930 . S
C662 C661 1.369 . S
C662 C671 1.429 . S
C663 C661 1.419 . S
C663 C664 1.363 . S
C663 H666 0.929 . S
C664 C663 1.363 . S
C664 C670 1.428 . S
H665 C661 0.930 . S
H666 C663 0.929 . S
S667 N668 1.613 . S
S667 N669 1.610 . S
N668 S667 1.613 . S
N668 C671 1.350 . S
N669 S667 1.610 . S
N669 C670 1.351 . S
C670 C664 1.428 . S
C670 N669 1.351 . S
C670 C671 1.434 . S
C671 C662 1.429 . S
C671 N668 1.350 . S
C671 C670 1.434 . S
C672 C673 1.369 . S
C672 C674 1.419 . S
C672 H676 0.930 . S
C673 C672 1.369 . S
C673 C682 1.429 . S
C674 C672 1.419 . S
C674 C675 1.363 . S
C674 H677 0.929 . S
C675 C674 1.363 . S
C675 C681 1.428 . S
H676 C672 0.930 . S
H677 C674 0.929 . S
S678 N679 1.613 . S
S678 N680 1.610 . S
N679 S678 1.613 . S
N679 C682 1.350 . S
N680 S678 1.610 . S
N680 C681 1.351 . S
C681 C675 1.428 . S
C681 N680 1.351 . S
C681 C682 1.434 . S
C682 C673 1.429 . S
C682 N679 1.350 . S
C682 C681 1.434 . S
C683 C684 1.369 . S
C683 C685 1.419 . S
C683 H687 0.930 . S
C684 C683 1.369 . S
C684 C693 1.429 . S
C685 C683 1.419 . S
C685 C686 1.363 . S
C685 H688 0.929 . S
C686 C685 1.363 . S
C686 C692 1.428 . S
H687 C683 0.930 . S
H688 C685 0.929 . S
S689 N690 1.613 . S
S689 N691 1.610 . S
N690 S689 1.613 . S
N690 C693 1.350 . S
N691 S689 1.610 . S
N691 C692 1.351 . S
C692 C686 1.428 . S
C692 N691 1.351 . S
C692 C693 1.434 . S
C693 C684 1.429 . S
C693 N690 1.350 . S
C693 C692 1.434 . S
C694 C695 1.369 . S
C694 C696 1.419 . S
C694 H698 0.930 . S
C695 C694 1.369 . S
C695 C704 1.429 . S
C696 C694 1.419 . S
C696 C697 1.363 . S
C696 H699 0.929 . S
C697 C696 1.363 . S
C697 C703 1.428 . S
H698 C694 0.930 . S
H699 C696 0.929 . S
S700 N701 1.613 . S
S700 N702 1.610 . S
N701 S700 1.613 . S
N701 C704 1.350 . S
N702 S700 1.610 . S
N702 C703 1.351 . S
C703 C697 1.428 . S
C703 N702 1.351 . S
C703 C704 1.434 . S
C704 C695 1.429 . S
C704 N701 1.350 . S
C704 C703 1.434 . S
C705 C706 1.369 . S
C705 C707 1.419 . S
C705 H709 0.930 . S
C706 C705 1.369 . S
C706 C715 1.429 . S
C707 C705 1.419 . S
C707 C708 1.363 . S
C707 H710 0.929 . S
C708 C707 1.363 . S
C708 C714 1.428 . S
H709 C705 0.930 . S
H710 C707 0.929 . S
S711 N712 1.613 . S
S711 N713 1.610 . S
N712 S711 1.613 . S
N712 C715 1.350 . S
N713 S711 1.610 . S
N713 C714 1.351 . S
C714 C708 1.428 . S
C714 N713 1.351 . S
C714 C715 1.434 . S
C715 C706 1.429 . S
C715 N712 1.350 . S
C715 C714 1.434 . S
C716 C717 1.369 . S
C716 C718 1.419 . S
C716 H720 0.930 . S
C717 C716 1.369 . S
C717 C726 1.429 . S
C718 C716 1.419 . S
C718 C719 1.363 . S
C718 H721 0.929 . S
C719 C718 1.363 . S
C719 C725 1.428 . S
H720 C716 0.930 . S
H721 C718 0.929 . S
S722 N723 1.613 . S
S722 N724 1.610 . S
N723 S722 1.613 . S
N723 C726 1.350 . S
N724 S722 1.610 . S
N724 C725 1.351 . S
C725 C719 1.428 . S
C725 N724 1.351 . S
C725 C726 1.434 . S
C726 C717 1.429 . S
C726 N723 1.350 . S
C726 C725 1.434 . S
C727 C728 1.369 . S
C727 C729 1.419 . S
C727 H731 0.930 . S
C728 C727 1.369 . S
C728 C737 1.429 . S
C729 C727 1.419 . S
C729 C730 1.363 . S
C729 H732 0.929 . S
C730 C729 1.363 . S
C730 C736 1.428 . S
H731 C727 0.930 . S
H732 C729 0.929 . S
S733 N734 1.613 . S
S733 N735 1.610 . S
N734 S733 1.613 . S
N734 C737 1.350 . S
N735 S733 1.610 . S
N735 C736 1.351 . S
C736 C730 1.428 . S
C736 N735 1.351 . S
C736 C737 1.434 . S
C737 C728 1.429 . S
C737 N734 1.350 . S
C737 C736 1.434 . S
C738 C739 1.369 . S
C738 C740 1.419 . S
C738 H742 0.930 . S
C739 C738 1.369 . S
C739 C748 1.429 . S
C740 C738 1.419 . S
C740 C741 1.363 . S
C740 H743 0.929 . S
C741 C740 1.363 . S
C741 C747 1.428 . S
H742 C738 0.930 . S
H743 C740 0.929 . S
S744 N745 1.613 . S
S744 N746 1.610 . S
N745 S744 1.613 . S
N745 C748 1.350 . S
N746 S744 1.610 . S
N746 C747 1.351 . S
C747 C741 1.428 . S
C747 N746 1.351 . S
C747 C748 1.434 . S
C748 C739 1.429 . S
C748 N745 1.350 . S
C748 C747 1.434 . S
C749 C750 1.369 . S
C749 C751 1.419 . S
C749 H753 0.930 . S
C750 C749 1.369 . S
C750 C759 1.429 . S
C751 C749 1.419 . S
C751 C752 1.363 . S
C751 H754 0.929 . S
C752 C751 1.363 . S
C752 C758 1.428 . S
H753 C749 0.930 . S
H754 C751 0.929 . S
S755 N756 1.613 . S
S755 N757 1.610 . S
N756 S755 1.613 . S
N756 C759 1.350 . S
N757 S755 1.610 . S
N757 C758 1.351 . S
C758 C752 1.428 . S
C758 N757 1.351 . S
C758 C759 1.434 . S
C759 C750 1.429 . S
C759 N756 1.350 . S
C759 C758 1.434 . S
C760 C761 1.369 . S
C760 C762 1.419 . S
C760 H764 0.930 . S
C761 C760 1.369 . S
C761 C770 1.429 . S
C762 C760 1.419 . S
C762 C763 1.363 . S
C762 H765 0.929 . S
C763 C762 1.363 . S
C763 C769 1.428 . S
H764 C760 0.930 . S
H765 C762 0.929 . S
S766 N767 1.613 . S
S766 N768 1.610 . S
N767 S766 1.613 . S
N767 C770 1.350 . S
N768 S766 1.610 . S
N768 C769 1.351 . S
C769 C763 1.428 . S
C769 N768 1.351 . S
C769 C770 1.434 . S
C770 C761 1.429 . S
C770 N767 1.350 . S
C770 C769 1.434 . S
C771 C772 1.369 . S
C771 C773 1.419 . S
C771 H775 0.930 . S
C772 C771 1.369 . S
C772 C781 1.429 . S
C773 C771 1.419 . S
C773 C774 1.363 . S
C773 H776 0.929 . S
C774 C773 1.363 . S
C774 C780 1.428 . S
H775 C771 0.930 . S
H776 C773 0.929 . S
S777 N778 1.613 . S
S777 N779 1.610 . S
N778 S777 1.613 . S
N778 C781 1.350 . S
N779 S777 1.610 . S
N779 C780 1.351 . S
C780 C774 1.428 . S
C780 N779 1.351 . S
C780 C781 1.434 . S
C781 C772 1.429 . S
C781 N778 1.350 . S
C781 C780 1.434 . S
C782 C783 1.369 . S
C782 C784 1.419 . S
C782 H786 0.930 . S
C783 C782 1.369 . S
C783 C792 1.429 1_556 S
C784 C782 1.419 . S
C784 C785 1.363 . S
C784 H787 0.929 . S
C785 C784 1.363 . S
C785 C791 1.428 . S
H786 C782 0.930 . S
H787 C784 0.929 . S
S788 N789 1.613 . S
S788 N790 1.610 . S
N789 S788 1.613 . S
N789 C792 1.350 . S
N790 S788 1.610 . S
N790 C791 1.351 1_554 S
C791 C785 1.428 . S
C791 N790 1.351 1_556 S
C791 C792 1.434 1_556 S
C792 C783 1.429 1_554 S
C792 N789 1.350 . S
C792 C791 1.434 1_554 S
C793 C794 1.369 . S
C793 C795 1.419 . S
C793 H797 0.930 . S
C794 C793 1.369 . S
C794 C803 1.429 . S
C795 C793 1.419 . S
C795 C796 1.363 . S
C795 H798 0.929 . S
C796 C795 1.363 . S
C796 C802 1.428 . S
H797 C793 0.930 . S
H798 C795 0.929 . S
S799 N800 1.613 . S
S799 N801 1.610 . S
N800 S799 1.613 . S
N800 C803 1.350 . S
N801 S799 1.610 . S
N801 C802 1.351 . S
C802 C796 1.428 . S
C802 N801 1.351 . S
C802 C803 1.434 . S
C803 C794 1.429 . S
C803 N800 1.350 . S
C803 C802 1.434 . S
C804 C805 1.369 . S
C804 C806 1.419 . S
C804 H808 0.930 . S
C805 C804 1.369 . S
C805 C814 1.429 . S
C806 C804 1.419 . S
C806 C807 1.363 . S
C806 H809 0.929 . S
C807 C806 1.363 . S
C807 C813 1.428 . S
H808 C804 0.930 . S
H809 C806 0.929 . S
S810 N811 1.613 . S
S810 N812 1.610 . S
N811 S810 1.613 . S
N811 C814 1.350 . S
N812 S810 1.610 . S
N812 C813 1.351 . S
C813 C807 1.428 . S
C813 N812 1.351 . S
C813 C814 1.434 . S
C814 C805 1.429 . S
C814 N811 1.350 . S
C814 C813 1.434 . S
C815 C816 1.369 . S
C815 C817 1.419 . S
C815 H819 0.930 . S
C816 C815 1.369 . S
C816 C825 1.429 . S
C817 C815 1.419 . S
C817 C818 1.363 . S
C817 H820 0.929 . S
C818 C817 1.363 . S
C818 C824 1.428 . S
H819 C815 0.930 . S
H820 C817 0.929 . S
S821 N822 1.613 . S
S821 N823 1.610 . S
N822 S821 1.613 . S
N822 C825 1.350 . S
N823 S821 1.610 . S
N823 C824 1.351 . S
C824 C818 1.428 . S
C824 N823 1.351 . S
C824 C825 1.434 . S
C825 C816 1.429 . S
C825 N822 1.350 . S
C825 C824 1.434 . S
C826 C827 1.369 . S
C826 C828 1.419 . S
C826 H830 0.930 . S
C827 C826 1.369 . S
C827 C836 1.429 . S
C828 C826 1.419 . S
C828 C829 1.363 . S
C828 H831 0.929 . S
C829 C828 1.363 . S
C829 C835 1.428 . S
H830 C826 0.930 . S
H831 C828 0.929 . S
S832 N833 1.613 . S
S832 N834 1.610 . S
N833 S832 1.613 . S
N833 C836 1.350 . S
N834 S832 1.610 . S
N834 C835 1.351 . S
C835 C829 1.428 . S
C835 N834 1.351 . S
C835 C836 1.434 . S
C836 C827 1.429 . S
C836 N833 1.350 . S
C836 C835 1.434 . S
C837 C838 1.369 . S
C837 C839 1.419 . S
C837 H841 0.930 . S
C838 C837 1.369 . S
C838 C847 1.429 . S
C839 C837 1.419 . S
C839 C840 1.363 . S
C839 H842 0.929 . S
C840 C839 1.363 . S
C840 C846 1.428 . S
H841 C837 0.930 . S
H842 C839 0.929 . S
S843 N844 1.613 . S
S843 N845 1.610 . S
N844 S843 1.613 . S
N844 C847 1.350 . S
N845 S843 1.610 . S
N845 C846 1.351 . S
C846 C840 1.428 . S
C846 N845 1.351 . S
C846 C847 1.434 . S
C847 C838 1.429 . S
C847 N844 1.350 . S
C847 C846 1.434 . S
C321 C19 1.118 . S
C323 C21 1.090 . S
C332 C59 1.405 . S
C334 C38 1.398 . S
C343 C78 1.567 . S
C345 C49 1.557 . S
C354 C9 1.260 . S
C356 C61 1.223 . S
C365 C8 1.263 . S
C367 C182 1.218 . S
C376 C158 1.118 . S
C378 C22 1.087 . S
C387 C58 1.405 . S
C389 C219 1.399 . S
C398 C79 1.565 . S
C400 C268 1.558 . S
C409 C178 1.405 . S
C411 C39 1.397 . S
C420 C259 1.569 . S
C422 C48 1.557 . S
C431 C288 1.261 . S
C433 C62 1.228 . S
C442 C18 1.119 . S
C444 C222 1.084 . S
C453 C1 0.617 . S
C455 C162 0.631 . S
C464 C249 1.319 . S
C466 C88 1.321 . S
C475 C101 0.624 . S
C477 C282 0.621 . S
C486 C228 1.320 . S
C488 C129 1.318 . S
C497 C41 0.624 . S
C499 C142 0.622 . S
C508 C188 1.320 . S
C510 C89 1.321 . S
C519 C128 1.321 . S
C521 C209 1.322 . S
C530 C118 1.405 . S
C532 C239 1.397 . S
C541 C199 1.569 . S
C543 C108 1.562 . S
C552 C221 1.081 . S
C554 C159 1.120 . S
C563 C119 1.405 . S
C565 C98 1.400 . S
C574 C198 1.565 . S
C576 C169 1.559 . S
C585 C279 1.406 . S
C587 C238 1.401 . S
C596 C138 1.566 . S
C598 C109 1.562 . S
C607 C181 1.227 . S
C609 C289 1.267 . S
C618 C261 0.638 . S
C620 C2 0.620 . S
C629 C42 0.628 . S
C631 C281 0.618 . S
C640 C248 1.321 . S
C642 C29 1.322 . S
C651 C141 0.617 . S
C653 C102 0.630 . S
C662 C69 1.320 . S
C664 C208 1.322 . S
C673 C258 1.566 . S
C675 C269 1.561 . S
C684 C149 1.260 . S
C686 C241 1.224 . S
C695 C122 1.219 . S
C697 C148 1.268 . S
C706 C99 1.400 . S
C708 C278 1.405 . S
C717 C242 1.230 . S
C719 C308 1.262 . S
C728 C302 0.618 . S
C730 C161 0.627 . S
C739 C28 1.323 . S
C741 C189 1.320 . S
C750 C168 1.556 . S
C752 C139 1.567 . S
C761 C179 1.405 . S
C763 C218 1.399 . S
C772 C309 1.269 . S
C774 C121 1.224 . S
C783 C262 0.642 . S
C785 C301 0.624 . S
C794 C229 1.315 . S
C796 C68 1.314 . S
C805 C201 1.092 . S
C807 C299 1.118 . S
C816 C202 1.087 . S
C818 C318 1.119 . S
C827 C82 1.080 . S
C829 C298 1.120 . S
C838 C319 1.120 . S
C840 C81 1.086 . S
