# Generated by pormake.
# Topology wip, (6)-cn, num edge types: 1
# Building blocks:
#     Node 0, Type 0, BuildingBlock: KUMBOL_clean_sbu_1, # of connection points: 6
#     Node 1, Type 0, BuildingBlock: KUMBOL_clean_sbu_1, # of connection points: 6
#     Node 2, Type 0, BuildingBlock: KUMBOL_clean_sbu_1, # of connection points: 6
#     Node 3, Type 0, BuildingBlock: KUMBOL_clean_sbu_1, # of connection points: 6
#     Node 4, Type 0, BuildingBlock: KUMBOL_clean_sbu_1, # of connection points: 6
#     Node 5, Type 0, BuildingBlock: KUMBOL_clean_sbu_1, # of connection points: 6
#     Node 6, Type 0, BuildingBlock: KUMBOL_clean_sbu_1, # of connection points: 6
#     Node 7, Type 0, BuildingBlock: KUMBOL_clean_sbu_1, # of connection points: 6
#     Node 8, Type 0, BuildingBlock: KUMBOL_clean_sbu_1, # of connection points: 6
#     Node 9, Type 0, BuildingBlock: KUMBOL_clean_sbu_1, # of connection points: 6
#     Node 10, Type 0, BuildingBlock: KUMBOL_clean_sbu_1, # of connection points: 6
#     Node 11, Type 0, BuildingBlock: KUMBOL_clean_sbu_1, # of connection points: 6
#     Node 12, Type 0, BuildingBlock: KUMBOL_clean_sbu_1, # of connection points: 6
#     Node 13, Type 0, BuildingBlock: KUMBOL_clean_sbu_1, # of connection points: 6
#     Node 14, Type 0, BuildingBlock: KUMBOL_clean_sbu_1, # of connection points: 6
#     Node 15, Type 0, BuildingBlock: KUMBOL_clean_sbu_1, # of connection points: 6
#     Node 16, Type 0, BuildingBlock: KUMBOL_clean_sbu_1, # of connection points: 6
#     Node 17, Type 0, BuildingBlock: KUMBOL_clean_sbu_1, # of connection points: 6
#     Node 18, Type 0, BuildingBlock: KUMBOL_clean_sbu_1, # of connection points: 6
#     Node 19, Type 0, BuildingBlock: KUMBOL_clean_sbu_1, # of connection points: 6
#     Node 20, Type 0, BuildingBlock: KUMBOL_clean_sbu_1, # of connection points: 6
#     Node 21, Type 0, BuildingBlock: KUMBOL_clean_sbu_1, # of connection points: 6
#     Node 22, Type 0, BuildingBlock: KUMBOL_clean_sbu_1, # of connection points: 6
#     Node 23, Type 0, BuildingBlock: KUMBOL_clean_sbu_1, # of connection points: 6
#     Node 24, Type 0, BuildingBlock: KUMBOL_clean_sbu_1, # of connection points: 6
#     Node 25, Type 0, BuildingBlock: KUMBOL_clean_sbu_1, # of connection points: 6
#     Node 26, Type 0, BuildingBlock: KUMBOL_clean_sbu_1, # of connection points: 6
#     Node 27, Type 0, BuildingBlock: KUMBOL_clean_sbu_1, # of connection points: 6
#     Node 28, Type 0, BuildingBlock: KUMBOL_clean_sbu_1, # of connection points: 6
#     Node 29, Type 0, BuildingBlock: KUMBOL_clean_sbu_1, # of connection points: 6
#     Node 30, Type 0, BuildingBlock: KUMBOL_clean_sbu_1, # of connection points: 6
#     Node 31, Type 0, BuildingBlock: KUMBOL_clean_sbu_1, # of connection points: 6
#     Edge 32, Type (0, 0), BuildingBlock: CIFDUS_clean_linker_0, # of connection points: 2
#     Edge 33, Type (0, 0), BuildingBlock: CIFDUS_clean_linker_0, # of connection points: 2
#     Edge 34, Type (0, 0), BuildingBlock: CIFDUS_clean_linker_0, # of connection points: 2
#     Edge 35, Type (0, 0), BuildingBlock: CIFDUS_clean_linker_0, # of connection points: 2
#     Edge 36, Type (0, 0), BuildingBlock: CIFDUS_clean_linker_0, # of connection points: 2
#     Edge 37, Type (0, 0), BuildingBlock: CIFDUS_clean_linker_0, # of connection points: 2
#     Edge 38, Type (0, 0), BuildingBlock: CIFDUS_clean_linker_0, # of connection points: 2
#     Edge 39, Type (0, 0), BuildingBlock: CIFDUS_clean_linker_0, # of connection points: 2
#     Edge 40, Type (0, 0), BuildingBlock: CIFDUS_clean_linker_0, # of connection points: 2
#     Edge 41, Type (0, 0), BuildingBlock: CIFDUS_clean_linker_0, # of connection points: 2
#     Edge 42, Type (0, 0), BuildingBlock: CIFDUS_clean_linker_0, # of connection points: 2
#     Edge 43, Type (0, 0), BuildingBlock: CIFDUS_clean_linker_0, # of connection points: 2
#     Edge 44, Type (0, 0), BuildingBlock: CIFDUS_clean_linker_0, # of connection points: 2
#     Edge 45, Type (0, 0), BuildingBlock: CIFDUS_clean_linker_0, # of connection points: 2
#     Edge 46, Type (0, 0), BuildingBlock: CIFDUS_clean_linker_0, # of connection points: 2
#     Edge 47, Type (0, 0), BuildingBlock: CIFDUS_clean_linker_0, # of connection points: 2
#     Edge 48, Type (0, 0), BuildingBlock: CIFDUS_clean_linker_0, # of connection points: 2
#     Edge 49, Type (0, 0), BuildingBlock: CIFDUS_clean_linker_0, # of connection points: 2
#     Edge 50, Type (0, 0), BuildingBlock: CIFDUS_clean_linker_0, # of connection points: 2
#     Edge 51, Type (0, 0), BuildingBlock: CIFDUS_clean_linker_0, # of connection points: 2
#     Edge 52, Type (0, 0), BuildingBlock: CIFDUS_clean_linker_0, # of connection points: 2
#     Edge 53, Type (0, 0), BuildingBlock: CIFDUS_clean_linker_0, # of connection points: 2
#     Edge 54, Type (0, 0), BuildingBlock: CIFDUS_clean_linker_0, # of connection points: 2
#     Edge 55, Type (0, 0), BuildingBlock: CIFDUS_clean_linker_0, # of connection points: 2
#     Edge 56, Type (0, 0), BuildingBlock: CIFDUS_clean_linker_0, # of connection points: 2
#     Edge 57, Type (0, 0), BuildingBlock: CIFDUS_clean_linker_0, # of connection points: 2
#     Edge 58, Type (0, 0), BuildingBlock: CIFDUS_clean_linker_0, # of connection points: 2
#     Edge 59, Type (0, 0), BuildingBlock: CIFDUS_clean_linker_0, # of connection points: 2
#     Edge 60, Type (0, 0), BuildingBlock: CIFDUS_clean_linker_0, # of connection points: 2
#     Edge 61, Type (0, 0), BuildingBlock: CIFDUS_clean_linker_0, # of connection points: 2
#     Edge 62, Type (0, 0), BuildingBlock: CIFDUS_clean_linker_0, # of connection points: 2
#     Edge 63, Type (0, 0), BuildingBlock: CIFDUS_clean_linker_0, # of connection points: 2
#     Edge 64, Type (0, 0), BuildingBlock: CIFDUS_clean_linker_0, # of connection points: 2
#     Edge 65, Type (0, 0), BuildingBlock: CIFDUS_clean_linker_0, # of connection points: 2
#     Edge 66, Type (0, 0), BuildingBlock: CIFDUS_clean_linker_0, # of connection points: 2
#     Edge 67, Type (0, 0), BuildingBlock: CIFDUS_clean_linker_0, # of connection points: 2
#     Edge 68, Type (0, 0), BuildingBlock: CIFDUS_clean_linker_0, # of connection points: 2
#     Edge 69, Type (0, 0), BuildingBlock: CIFDUS_clean_linker_0, # of connection points: 2
#     Edge 70, Type (0, 0), BuildingBlock: CIFDUS_clean_linker_0, # of connection points: 2
#     Edge 71, Type (0, 0), BuildingBlock: CIFDUS_clean_linker_0, # of connection points: 2
#     Edge 72, Type (0, 0), BuildingBlock: CIFDUS_clean_linker_0, # of connection points: 2
#     Edge 73, Type (0, 0), BuildingBlock: CIFDUS_clean_linker_0, # of connection points: 2
#     Edge 74, Type (0, 0), BuildingBlock: CIFDUS_clean_linker_0, # of connection points: 2
#     Edge 75, Type (0, 0), BuildingBlock: CIFDUS_clean_linker_0, # of connection points: 2
#     Edge 76, Type (0, 0), BuildingBlock: CIFDUS_clean_linker_0, # of connection points: 2
#     Edge 77, Type (0, 0), BuildingBlock: CIFDUS_clean_linker_0, # of connection points: 2
#     Edge 78, Type (0, 0), BuildingBlock: CIFDUS_clean_linker_0, # of connection points: 2
#     Edge 79, Type (0, 0), BuildingBlock: CIFDUS_clean_linker_0, # of connection points: 2
#     Edge 80, Type (0, 0), BuildingBlock: CIFDUS_clean_linker_0, # of connection points: 2
#     Edge 81, Type (0, 0), BuildingBlock: CIFDUS_clean_linker_0, # of connection points: 2
#     Edge 82, Type (0, 0), BuildingBlock: CIFDUS_clean_linker_0, # of connection points: 2
#     Edge 83, Type (0, 0), BuildingBlock: CIFDUS_clean_linker_0, # of connection points: 2
#     Edge 84, Type (0, 0), BuildingBlock: CIFDUS_clean_linker_0, # of connection points: 2
#     Edge 85, Type (0, 0), BuildingBlock: CIFDUS_clean_linker_0, # of connection points: 2
#     Edge 86, Type (0, 0), BuildingBlock: CIFDUS_clean_linker_0, # of connection points: 2
#     Edge 87, Type (0, 0), BuildingBlock: CIFDUS_clean_linker_0, # of connection points: 2
#     Edge 88, Type (0, 0), BuildingBlock: CIFDUS_clean_linker_0, # of connection points: 2
#     Edge 89, Type (0, 0), BuildingBlock: CIFDUS_clean_linker_0, # of connection points: 2
#     Edge 90, Type (0, 0), BuildingBlock: CIFDUS_clean_linker_0, # of connection points: 2
#     Edge 91, Type (0, 0), BuildingBlock: CIFDUS_clean_linker_0, # of connection points: 2
#     Edge 92, Type (0, 0), BuildingBlock: CIFDUS_clean_linker_0, # of connection points: 2
#     Edge 93, Type (0, 0), BuildingBlock: CIFDUS_clean_linker_0, # of connection points: 2
#     Edge 94, Type (0, 0), BuildingBlock: CIFDUS_clean_linker_0, # of connection points: 2
#     Edge 95, Type (0, 0), BuildingBlock: CIFDUS_clean_linker_0, # of connection points: 2
#     Edge 96, Type (0, 0), BuildingBlock: CIFDUS_clean_linker_0, # of connection points: 2
#     Edge 97, Type (0, 0), BuildingBlock: CIFDUS_clean_linker_0, # of connection points: 2
#     Edge 98, Type (0, 0), BuildingBlock: CIFDUS_clean_linker_0, # of connection points: 2
#     Edge 99, Type (0, 0), BuildingBlock: CIFDUS_clean_linker_0, # of connection points: 2
#     Edge 100, Type (0, 0), BuildingBlock: CIFDUS_clean_linker_0, # of connection points: 2
#     Edge 101, Type (0, 0), BuildingBlock: CIFDUS_clean_linker_0, # of connection points: 2
#     Edge 102, Type (0, 0), BuildingBlock: CIFDUS_clean_linker_0, # of connection points: 2
#     Edge 103, Type (0, 0), BuildingBlock: CIFDUS_clean_linker_0, # of connection points: 2
#     Edge 104, Type (0, 0), BuildingBlock: CIFDUS_clean_linker_0, # of connection points: 2
#     Edge 105, Type (0, 0), BuildingBlock: CIFDUS_clean_linker_0, # of connection points: 2
#     Edge 106, Type (0, 0), BuildingBlock: CIFDUS_clean_linker_0, # of connection points: 2
#     Edge 107, Type (0, 0), BuildingBlock: CIFDUS_clean_linker_0, # of connection points: 2
#     Edge 108, Type (0, 0), BuildingBlock: CIFDUS_clean_linker_0, # of connection points: 2
#     Edge 109, Type (0, 0), BuildingBlock: CIFDUS_clean_linker_0, # of connection points: 2
#     Edge 110, Type (0, 0), BuildingBlock: CIFDUS_clean_linker_0, # of connection points: 2
#     Edge 111, Type (0, 0), BuildingBlock: CIFDUS_clean_linker_0, # of connection points: 2
#     Edge 112, Type (0, 0), BuildingBlock: CIFDUS_clean_linker_0, # of connection points: 2
#     Edge 113, Type (0, 0), BuildingBlock: CIFDUS_clean_linker_0, # of connection points: 2
#     Edge 114, Type (0, 0), BuildingBlock: CIFDUS_clean_linker_0, # of connection points: 2
#     Edge 115, Type (0, 0), BuildingBlock: CIFDUS_clean_linker_0, # of connection points: 2
#     Edge 116, Type (0, 0), BuildingBlock: CIFDUS_clean_linker_0, # of connection points: 2
#     Edge 117, Type (0, 0), BuildingBlock: CIFDUS_clean_linker_0, # of connection points: 2
#     Edge 118, Type (0, 0), BuildingBlock: CIFDUS_clean_linker_0, # of connection points: 2
#     Edge 119, Type (0, 0), BuildingBlock: CIFDUS_clean_linker_0, # of connection points: 2
#     Edge 120, Type (0, 0), BuildingBlock: CIFDUS_clean_linker_0, # of connection points: 2
#     Edge 121, Type (0, 0), BuildingBlock: CIFDUS_clean_linker_0, # of connection points: 2
#     Edge 122, Type (0, 0), BuildingBlock: CIFDUS_clean_linker_0, # of connection points: 2
#     Edge 123, Type (0, 0), BuildingBlock: CIFDUS_clean_linker_0, # of connection points: 2
#     Edge 124, Type (0, 0), BuildingBlock: CIFDUS_clean_linker_0, # of connection points: 2
#     Edge 125, Type (0, 0), BuildingBlock: CIFDUS_clean_linker_0, # of connection points: 2
#     Edge 126, Type (0, 0), BuildingBlock: CIFDUS_clean_linker_0, # of connection points: 2
#     Edge 127, Type (0, 0), BuildingBlock: CIFDUS_clean_linker_0, # of connection points: 2
# Relax obj value: 0.351
# Max RMSD: 0.262
# Mean RMSD: 0.242
data_MOF--net-wip--node1-KUMBOL_clean_sbu_1--edge1-CIFDUS_clean_linker_0
_symmetry_space_group_name_H-M    P1
_symmetry_Int_Tables_number       1
_symmetry_cell_setting            triclinic
loop_
_symmetry_equiv_pos_as_xyz
'x, y, z'
_cell_length_a     60.93062
_cell_length_b     53.04844
_cell_length_c     30.821875
_cell_angle_alpha  77.104843
_cell_angle_beta   86.530113
_cell_angle_gamma 87.584686
loop_
_atom_site_label
_atom_site_type_symbol
_atom_site_fract_x
_atom_site_fract_y
_atom_site_fract_z
_atom_type_partial_charge
C0 C 0.07414 0.3582 0.10071 0.0
C1 C 0.03874 0.34451 0.13666 0.0
C2 C 0.05216 0.36363 0.11013 0.0
C3 C 0.04808 0.32016 0.15545 0.0
C4 C 0.08334 0.33342 0.11767 0.0
C5 C 0.07035 0.31461 0.14595 0.0
N6 N 0.08617 0.37671 0.07283 0.0
C7 C 0.10706 0.3715 0.05854 0.0
C8 C 0.10513 0.32815 0.10461 0.0
C9 C 0.11684 0.34717 0.07443 0.0
Gd10 Gd 0.08792 0.48462 0.06954 0.0
Gd11 Gd 0.06865 0.41704 0.05117 0.0
N12 N 0.0436 0.38714 0.09093 0.0
C13 C 0.01622 0.35021 0.14229 0.0
C14 C 0.02149 0.39231 0.09382 0.0
C15 C 0.0075 0.37409 0.12016 0.0
H16 H 0.01465 0.41055 0.07615 0.0
H17 H 0.99003 0.37843 0.1232 0.0
H18 H 0.13042 0.43901 0.06287 0.0
H19 H 0.11618 0.38633 0.03555 0.0
H20 H 0.16923 0.43913 0.03988 0.0
H21 H 0.00534 0.33606 0.16249 0.0
H22 H 0.03811 0.30527 0.17637 0.0
H23 H 0.06681 0.53959 0.01385 0.0
H24 H 0.11287 0.30932 0.11668 0.0
H25 H 0.13333 0.34313 0.06327 0.0
H26 H 0.1813 0.52614 0.96076 0.0
H27 H 0.0772 0.29553 0.15972 0.0
H28 H 0.11854 0.58401 0.93736 0.0
H29 H 0.07925 0.5797 0.96246 0.0
N30 N 0.09865 0.52163 0.01778 0.0
C31 C 0.12012 0.5233 1.00402 0.0
C32 C 0.08394 0.54133 1.00293 0.0
C33 C 0.11313 0.56642 0.96 0.0
C34 C 0.09094 0.56406 0.97396 0.0
C35 C 0.128 0.54584 0.97468 0.0
H36 H 0.15667 0.5641 0.93788 0.0
N37 N 0.12522 0.47989 0.04328 0.0
C38 C 0.13389 0.50188 0.01737 0.0
C39 C 0.16913 0.47994 0.01103 0.0
C40 C 0.15607 0.50253 1.00095 0.0
C41 C 0.13748 0.4573 0.04904 0.0
C42 C 0.15964 0.4571 0.03429 0.0
O43 O 0.05226 0.42533 0.11634 0.0
O44 O 0.06807 0.4621 0.12992 0.0
O45 O 0.10005 0.51453 0.09892 0.0
O46 O 0.06499 0.51141 0.09281 0.0
O47 O 0.04236 0.44531 0.05947 0.0
O48 O 0.05951 0.48219 0.02734 0.0
O49 O 0.08202 0.48017 1.00138 0.0
O50 O 0.0956 0.43926 1.00468 0.0
O51 O 0.05306 0.43242 0.98551 0.0
O52 O 0.05985 0.39133 1.01037 0.0
O53 O 0.10284 0.45222 0.12043 0.0
O54 O 0.09721 0.41267 0.10117 0.0
C55 C 0.05525 0.44188 0.1421 0.0
C56 C 0.04153 0.47004 0.0426 0.0
C57 C 0.07552 0.52894 0.15195 0.0
C58 C 0.0876 0.53676 0.22124 0.0
C59 C 0.0491 0.54319 0.20432 0.0
C60 C 0.05391 0.53618 0.16381 0.0
C61 C 0.06585 0.54357 0.2329 0.0
C62 C 0.09237 0.52903 0.1811 0.0
C63 C 0.08028 0.52307 0.10794 0.0
C64 C 0.16428 0.5253 0.97331 0.0
C65 C 0.15026 0.5469 0.96015 0.0
H66 H 0.1862 0.47962 0.99901 0.0
C67 C 0.09234 0.46329 0.98191 0.0
C68 C 0.10527 0.42677 0.12772 0.0
C69 C 0.04201 0.4014 0.93901 0.0
C70 C 0.01905 0.40657 0.87224 0.0
C71 C 0.03762 0.36546 0.90291 0.0
C72 C 0.04637 0.3756 0.93573 0.0
C73 C 0.02414 0.38056 0.87195 0.0
C74 C 0.02832 0.41729 0.90613 0.0
C75 C 0.05123 0.40907 0.97912 0.0
H76 H 0.03238 0.54847 0.21345 0.0
H77 H 0.04072 0.53655 0.14162 0.0
H78 H 0.06178 0.54887 0.26448 0.0
H79 H 0.10915 0.52356 0.17255 0.0
H80 H 0.04131 0.3455 0.90156 0.0
H81 H 0.0566 0.36273 0.95913 0.0
H82 H 0.01782 0.37177 0.84687 0.0
H83 H 0.02454 0.43723 0.9075 0.0
C84 C 0.8817 0.70278 0.48676 0.0
C85 C 0.85916 0.66487 0.50909 0.0
C86 C 0.86305 0.68948 0.4814 0.0
C87 C 0.87376 0.65418 0.54235 0.0
C88 C 0.89667 0.69173 0.51929 0.0
C89 C 0.89248 0.66751 0.5473 0.0
N90 N 0.88514 0.72665 0.46029 0.0
C91 C 0.90407 0.73921 0.4612 0.0
C92 C 0.91558 0.70527 0.52235 0.0
C93 C 0.91943 0.72895 0.49276 0.0
Gd94 Gd 0.81434 0.79313 0.44312 0.0
Gd95 Gd 0.85969 0.74145 0.40675 0.0
N96 N 0.84911 0.70027 0.44869 0.0
C97 C 0.84091 0.65143 0.50215 0.0
C98 C 0.83226 0.68618 0.43981 0.0
C99 C 0.8276 0.66198 0.467 0.0
H100 H 0.82257 0.69278 0.41117 0.0
H101 H 0.81397 0.65123 0.46026 0.0
H102 H 0.85679 0.83591 0.41184 0.0
H103 H 0.90748 0.75683 0.43693 0.0
H104 H 0.8636 0.87648 0.35969 0.0
H105 H 0.83734 0.63255 0.52286 0.0
H106 H 0.87092 0.63538 0.564 0.0
H107 H 0.76031 0.78386 0.43975 0.0
H108 H 0.92753 0.69734 0.54679 0.0
H109 H 0.93432 0.73915 0.49391 0.0
H110 H 0.79393 0.90294 0.29894 0.0
H111 H 0.90374 0.65878 0.57269 0.0
H112 H 0.73247 0.84943 0.35098 0.0
H113 H 0.7279 0.80761 0.40417 0.0
N114 N 0.78284 0.8124 0.40765 0.0
C115 C 0.78557 0.83608 0.38004 0.0
C116 C 0.76251 0.80195 0.41592 0.0
C117 C 0.74672 0.83922 0.3666 0.0
C118 C 0.74413 0.8154 0.39618 0.0
C119 C 0.76757 0.84985 0.35813 0.0
H120 H 0.75718 0.88461 0.31158 0.0
N121 N 0.82367 0.83306 0.39493 0.0
C122 C 0.80647 0.84655 0.37318 0.0
C123 C 0.8305 0.88132 0.33813 0.0
C124 C 0.80958 0.87089 0.34387 0.0
C125 C 0.84371 0.84424 0.39149 0.0
C126 C 0.84754 0.86808 0.36248 0.0
O127 O 0.85401 0.74406 0.47956 0.0
O128 O 0.81699 0.75213 0.48402 0.0
O129 O 0.81826 0.81315 0.49657 0.0
O130 O 0.78651 0.79953 0.48691 0.0
O131 O 0.82632 0.73745 0.3872 0.0
O132 O 0.80493 0.75233 0.44137 0.0
O133 O 0.81452 0.79559 0.36829 0.0
O134 O 0.8415 0.76715 0.34685 0.0
O135 O 0.87334 0.70942 0.38118 0.0
O136 O 0.88834 0.7467 0.35984 0.0
O137 O 0.84941 0.79435 0.46181 0.0
O138 O 0.87029 0.78157 0.40551 0.0
C139 C 0.83502 0.74144 0.50212 0.0
C140 C 0.80734 0.74082 0.40742 0.0
C141 C 0.79492 0.79853 0.5602 0.0
C142 C 0.78807 0.80377 0.63628 0.0
C143 C 0.79347 0.76081 0.62156 0.0
C144 C 0.79574 0.77159 0.57606 0.0
C145 C 0.78981 0.77679 0.65164 0.0
C146 C 0.79069 0.81464 0.59038 0.0
C147 C 0.79799 0.80972 0.51226 0.0
C148 C 0.79174 0.8843 0.32156 0.0
C149 C 0.77081 0.87387 0.32878 0.0
H150 H 0.83352 0.89992 0.31593 0.0
C151 C 0.82553 0.78555 0.33757 0.0
C152 C 0.86852 0.79116 0.44127 0.0
C153 C 0.89199 0.71709 0.31233 0.0
C154 C 0.87698 0.70926 0.24596 0.0
C155 C 0.91494 0.69707 0.26168 0.0
C156 C 0.91231 0.70639 0.30061 0.0
C157 C 0.89729 0.69837 0.23447 0.0
C158 C 0.87428 0.71872 0.28479 0.0
C159 C 0.88869 0.72264 0.3564 0.0
H160 H 0.79416 0.74001 0.63348 0.0
H161 H 0.79775 0.75883 0.55332 0.0
H162 H 0.78756 0.76804 0.68684 0.0
H163 H 0.78932 0.83545 0.57828 0.0
H164 H 0.93058 0.68863 0.25281 0.0
H165 H 0.92593 0.70458 0.32224 0.0
H166 H 0.89952 0.69117 0.20421 0.0
H167 H 0.85844 0.72671 0.294 0.0
C168 C 0.47349 0.63331 0.49979 0.0
C169 C 0.4525 0.67367 0.49107 0.0
C170 C 0.45384 0.64646 0.50577 0.0
C171 C 0.47067 0.68702 0.46816 0.0
C172 C 0.49215 0.64681 0.4788 0.0
C173 C 0.49045 0.6736 0.46197 0.0
N174 N 0.47486 0.60756 0.51727 0.0
C175 C 0.49461 0.5945 0.51776 0.0
C176 C 0.51222 0.63313 0.47698 0.0
C177 C 0.51352 0.60689 0.49724 0.0
Gd178 Gd 0.40269 0.54065 0.49142 0.0
Gd179 Gd 0.44285 0.58749 0.55158 0.0
N180 N 0.43666 0.63303 0.52894 0.0
C181 C 0.43332 0.68687 0.50159 0.0
C182 C 0.41827 0.64624 0.54063 0.0
C183 C 0.41618 0.67311 0.52661 0.0
H184 H 0.40507 0.63649 0.56115 0.0
H185 H 0.40146 0.68324 0.53589 0.0
H186 H 0.4166 0.47806 0.52464 0.0
H187 H 0.49588 0.57468 0.53473 0.0
H188 H 0.39845 0.43678 0.55688 0.0
H189 H 0.43195 0.70774 0.4923 0.0
H190 H 0.46979 0.70785 0.45627 0.0
H191 H 0.36323 0.58339 0.45242 0.0
H192 H 0.52693 0.64282 0.46141 0.0
H193 H 0.5291 0.59627 0.49758 0.0
H194 H 0.32135 0.4602 0.5589 0.0
H195 H 0.50453 0.68424 0.44542 0.0
H196 H 0.30088 0.548 0.49133 0.0
H197 H 0.32238 0.58626 0.45465 0.0
N198 N 0.36436 0.54426 0.48789 0.0
C199 C 0.35289 0.52297 0.5075 0.0
C200 C 0.35379 0.56667 0.46815 0.0
C201 C 0.31869 0.54671 0.49052 0.0
C202 C 0.33078 0.56833 0.4696 0.0
C203 C 0.32974 0.52352 0.50931 0.0
H204 H 0.30063 0.5009 0.53083 0.0
N205 N 0.38668 0.50041 0.51921 0.0
C206 C 0.36447 0.50024 0.52378 0.0
C207 C 0.36579 0.45415 0.55441 0.0
C208 C 0.35334 0.47715 0.54167 0.0
C209 C 0.39892 0.47794 0.52981 0.0
C210 C 0.38868 0.45451 0.54795 0.0
O211 O 0.45194 0.585 0.48171 0.0
O212 O 0.41667 0.58014 0.46649 0.0
O213 O 0.42464 0.52113 0.44957 0.0
O214 O 0.39569 0.542 0.4225 0.0
O215 O 0.40779 0.59754 0.53395 0.0
O216 O 0.38323 0.56615 0.53359 0.0
O217 O 0.40674 0.5253 0.564 0.0
O218 O 0.42129 0.55684 0.59718 0.0
O219 O 0.4482 0.60426 0.60827 0.0
O220 O 0.46585 0.56911 0.6 0.0
O221 O 0.43179 0.52034 0.52807 0.0
O222 O 0.45483 0.55395 0.52136 0.0
C223 C 0.43735 0.58361 0.45282 0.0
C224 C 0.39002 0.58517 0.55069 0.0
C225 C 0.40553 0.50291 0.39914 0.0
C226 C 0.41253 0.47057 0.3529 0.0
C227 C 0.37911 0.46953 0.40053 0.0
C228 C 0.38549 0.4911 0.41474 0.0
C229 C 0.39243 0.45938 0.37 0.0
C230 C 0.41909 0.49265 0.3675 0.0
C231 C 0.41168 0.52574 0.41638 0.0
C232 C 0.33024 0.47768 0.54493 0.0
C233 C 0.31845 0.50085 0.52887 0.0
H234 H 0.35788 0.43597 0.56823 0.0
C235 C 0.41049 0.5353 0.59843 0.0
C236 C 0.45035 0.52957 0.53649 0.0
C237 C 0.45808 0.57403 0.67362 0.0
C238 C 0.45473 0.58004 0.74975 0.0
C239 C 0.45749 0.53673 0.73571 0.0
C240 C 0.45847 0.54709 0.68999 0.0
C241 C 0.45544 0.55306 0.76554 0.0
C242 C 0.45618 0.59042 0.70366 0.0
C243 C 0.46148 0.58526 0.62574 0.0
H244 H 0.3636 0.46074 0.41302 0.0
H245 H 0.37447 0.49879 0.4376 0.0
H246 H 0.3868 0.44279 0.35913 0.0
H247 H 0.43455 0.50155 0.35477 0.0
H248 H 0.45825 0.51596 0.74803 0.0
H249 H 0.45979 0.534 0.66759 0.0
H250 H 0.4549 0.54462 0.80098 0.0
H251 H 0.45617 0.61124 0.69123 0.0
C252 C 0.62981 0.22379 0.81026 0.0
C253 C 0.59859 0.19625 0.83198 0.0
C254 C 0.62113 0.20073 0.83372 0.0
C255 C 0.58535 0.2147 0.80436 0.0
C256 C 0.61648 0.24289 0.78405 0.0
C257 C 0.59428 0.238 0.78048 0.0
N258 N 0.65126 0.22792 0.81438 0.0
C259 C 0.66025 0.25121 0.79575 0.0
C260 C 0.6258 0.26651 0.76304 0.0
C261 C 0.64773 0.27082 0.76945 0.0
Gd262 Gd 0.71186 0.13992 0.78732 0.0
Gd263 Gd 0.67189 0.19404 0.85585 0.0
N264 N 0.63436 0.18361 0.86076 0.0
C265 C 0.58984 0.17392 0.85949 0.0
C266 C 0.62533 0.16331 0.89088 0.0
C267 C 0.60318 0.15769 0.8898 0.0
H268 H 0.63485 0.15177 0.91678 0.0
H269 H 0.5963 0.14115 0.91303 0.0
H270 H 0.76289 0.16369 0.77847 0.0
H271 H 0.67716 0.25444 0.80075 0.0
H272 H 0.80018 0.14853 0.79996 0.0
H273 H 0.57261 0.16973 0.85915 0.0
H274 H 0.56804 0.21148 0.80229 0.0
H275 H 0.68327 0.08647 0.79422 0.0
H276 H 0.61615 0.28165 0.74248 0.0
H277 H 0.655 0.28914 0.754 0.0
H278 H 0.79312 0.0576 0.8612 0.0
H279 H 0.58377 0.25233 0.76021 0.0
H280 H 0.7236 0.02091 0.85172 0.0
H281 H 0.68887 0.03882 0.82032 0.0
N282 N 0.71532 0.09465 0.80967 0.0
C283 C 0.7352 0.08482 0.82444 0.0
C284 C 0.69871 0.07859 0.80767 0.0
C285 C 0.72156 0.04157 0.83992 0.0
C286 C 0.70167 0.05179 0.82261 0.0
C287 C 0.7388 0.05801 0.84027 0.0
H288 H 0.76261 0.02785 0.8671 0.0
N289 N 0.74845 0.1271 0.80463 0.0
C290 C 0.75234 0.1015 0.82156 0.0
C291 C 0.79081 0.10919 0.82686 0.0
C292 C 0.77356 0.0919 0.83377 0.0
C293 C 0.7655 0.14375 0.79523 0.0
C294 C 0.78682 0.13515 0.80683 0.0
O295 O 0.66807 0.19809 0.7836 0.0
O296 O 0.677 0.15671 0.77735 0.0
O297 O 0.7231 0.16187 0.72125 0.0
O298 O 0.71344 0.12242 0.72964 0.0
O299 O 0.67144 0.15131 0.88541 0.0
O300 O 0.68003 0.12486 0.83294 0.0
O301 O 0.72615 0.13736 0.85379 0.0
O302 O 0.69963 0.16535 0.85923 0.0
O303 O 0.66099 0.20359 0.91903 0.0
O304 O 0.68833 0.22328 0.88001 0.0
O305 O 0.72627 0.17834 0.79221 0.0
O306 O 0.697 0.20658 0.7982 0.0
C307 C 0.67147 0.18092 0.75886 0.0
C308 C 0.67084 0.12924 0.87188 0.0
C309 C 0.74343 0.13586 0.67735 0.0
C310 C 0.7673 0.14003 0.60814 0.0
C311 C 0.7776 0.11048 0.67698 0.0
C312 C 0.75857 0.11742 0.69922 0.0
C313 C 0.78185 0.1214 0.63206 0.0
C314 C 0.74786 0.14722 0.63137 0.0
C315 C 0.72288 0.14201 0.70276 0.0
C316 C 0.777 0.06532 0.85118 0.0
C317 C 0.75963 0.0484 0.85453 0.0
H318 H 0.80737 0.10256 0.83562 0.0
C319 C 0.71597 0.15137 0.87853 0.0
C320 C 0.71823 0.2011 0.79748 0.0
C321 C 0.68501 0.22469 0.95726 0.0
C322 C 0.6806 0.22691 0.03584 0.0
C323 C 0.71422 0.2413 0.99222 0.0
C324 C 0.70579 0.23532 0.95502 0.0
C325 C 0.70168 0.23747 0.03216 0.0
C326 C 0.6725 0.22025 0.99802 0.0
C327 C 0.67553 0.22123 0.91595 0.0
H328 H 0.78894 0.09602 0.69449 0.0
H329 H 0.75544 0.10768 0.73345 0.0
H330 H 0.79638 0.11446 0.61583 0.0
H331 H 0.73624 0.16136 0.61398 0.0
H332 H 0.73026 0.24969 0.98972 0.0
H333 H 0.71531 0.23945 0.92415 0.0
H334 H 0.70834 0.2438 0.05955 0.0
H335 H 0.65633 0.21223 0.99982 0.0
C336 C 0.05925 0.64131 0.63514 0.0
C337 C 0.02575 0.65334 0.5955 0.0
C338 C 0.04008 0.63431 0.61911 0.0
C339 C 0.03148 0.67944 0.58633 0.0
C340 C 0.06454 0.66758 0.62776 0.0
C341 C 0.05083 0.68655 0.60239 0.0
N342 N 0.07213 0.62252 0.65976 0.0
C343 C 0.08963 0.62863 0.6805 0.0
C344 C 0.08305 0.67402 0.64738 0.0
C345 C 0.09533 0.65451 0.67459 0.0
Gd346 Gd 0.09828 0.51697 0.62967 0.0
Gd347 Gd 0.06102 0.58022 0.66589 0.0
N348 N 0.03481 0.60901 0.62894 0.0
C349 C 0.0058 0.64559 0.58292 0.0
C350 C 0.01501 0.6014 0.61876 0.0
C351 C 0.0003 0.61954 0.59512 0.0
H352 H 0.01072 0.58127 0.62858 0.0
H353 H 0.98473 0.61344 0.58643 0.0
H354 H 0.13945 0.56001 0.62295 0.0
H355 H 0.0992 0.61347 0.70118 0.0
H356 H 0.17666 0.55937 0.64884 0.0
H357 H 0.99433 0.65963 0.56477 0.0
H358 H 0.0208 0.69434 0.56782 0.0
H359 H 0.07666 0.46101 0.68214 0.0
H360 H 0.0876 0.69401 0.64284 0.0
H361 H 0.10902 0.65942 0.69136 0.0
H362 H 0.18597 0.47469 0.74173 0.0
H363 H 0.05475 0.70683 0.59598 0.0
H364 H 0.1255 0.41757 0.76408 0.0
H365 H 0.08825 0.42127 0.73507 0.0
N366 N 0.10704 0.47959 0.68163 0.0
C367 C 0.1276 0.47799 0.69649 0.0
C368 C 0.09294 0.45961 0.69479 0.0
C369 C 0.12051 0.43505 0.74077 0.0
C370 C 0.09945 0.43706 0.72461 0.0
C371 C 0.13486 0.45563 0.72684 0.0
H372 H 0.16192 0.43753 0.76591 0.0
N373 N 0.13356 0.52072 0.65381 0.0
C374 C 0.1412 0.49908 0.68236 0.0
C375 C 0.17534 0.51992 0.68598 0.0
C376 C 0.16235 0.49813 0.699 0.0
C377 C 0.14581 0.54237 0.64279 0.0
C378 C 0.16694 0.5422 0.65813 0.0
O379 O 0.05078 0.56947 0.60031 0.0
O380 O 0.0773 0.54158 0.57389 0.0
O381 O 0.11914 0.50515 0.57707 0.0
O382 O 0.08943 0.48478 0.60364 0.0
O383 O 0.04459 0.54667 0.6518 0.0
O384 O 0.06644 0.50906 0.66891 0.0
O385 O 0.08941 0.51524 0.70149 0.0
O386 O 0.09036 0.55865 0.70375 0.0
O387 O 0.05073 0.55864 0.73286 0.0
O388 O 0.03691 0.59649 0.70848 0.0
O389 O 0.09606 0.55865 0.62156 0.0
O390 O 0.08901 0.59865 0.61561 0.0
C391 C 0.05956 0.55766 0.56869 0.0
C392 C 0.04766 0.52141 0.66051 0.0
C393 C 0.09832 0.48824 0.52766 0.0
C394 C 0.10625 0.49516 0.44822 0.0
C395 C 0.06996 0.48193 0.47915 0.0
C396 C 0.07707 0.48048 0.52162 0.0
C397 C 0.08446 0.48936 0.44246 0.0
C398 C 0.11305 0.49537 0.49056 0.0
C399 C 0.10515 0.48797 0.57265 0.0
C400 C 0.16974 0.47572 0.72876 0.0
C401 C 0.15604 0.45456 0.74262 0.0
H402 H 0.19167 0.51993 0.69806 0.0
C403 C 0.09103 0.53356 0.72364 0.0
C404 C 0.10081 0.58158 0.59918 0.0
C405 C 0.03759 0.58211 0.78744 0.0
C406 C 0.02136 0.57964 0.86423 0.0
C407 C 0.05573 0.60187 0.83877 0.0
C408 C 0.05475 0.59644 0.79679 0.0
C409 C 0.03941 0.59352 0.87203 0.0
C410 C 0.02078 0.57362 0.82138 0.0
C411 C 0.03727 0.57665 0.742 0.0
H412 H 0.0534 0.47666 0.47477 0.0
H413 H 0.06592 0.47291 0.54963 0.0
H414 H 0.0789 0.48989 0.40951 0.0
H415 H 0.12974 0.50049 0.49458 0.0
H416 H 0.0693 0.61264 0.84568 0.0
H417 H 0.06758 0.60331 0.77152 0.0
H418 H 0.04116 0.59783 0.90434 0.0
H419 H 0.00724 0.56288 0.81417 0.0
C420 C 0.64528 0.77431 0.92866 0.0
C421 C 0.60991 0.79024 0.95407 0.0
C422 C 0.62998 0.79474 0.92855 0.0
C423 C 0.60555 0.76541 0.97977 0.0
C424 C 0.64069 0.74926 0.95395 0.0
C425 C 0.62086 0.74502 0.97971 0.0
N426 N 0.66459 0.77882 0.90407 0.0
C427 C 0.6793 0.75905 0.9011 0.0
C428 C 0.65611 0.7291 0.95243 0.0
C429 C 0.67538 0.73398 0.92548 0.0
Gd430 Gd 0.71393 0.86273 0.92208 0.0
Gd431 Gd 0.66956 0.82174 0.8665 0.0
N432 N 0.63463 0.81885 0.90384 0.0
C433 C 0.59471 0.81082 0.95314 0.0
C434 C 0.61965 0.83888 0.9026 0.0
C435 C 0.59957 0.83517 0.92712 0.0
H436 H 0.62289 0.85796 0.88342 0.0
H437 H 0.58787 0.8512 0.92612 0.0
H438 H 0.76144 0.82945 0.91529 0.0
H439 H 0.69387 0.76235 0.87923 0.0
H440 H 0.80016 0.83861 0.88932 0.0
H441 H 0.57915 0.80811 0.97229 0.0
H442 H 0.59027 0.76174 0.9997 0.0
H443 H 0.68823 0.91955 0.92075 0.0
H444 H 0.65314 0.70963 0.97135 0.0
H445 H 0.68716 0.71843 0.9232 0.0
H446 H 0.80081 0.93126 0.84253 0.0
H447 H 0.61715 0.72595 0.99954 0.0
H448 H 0.73425 0.97885 0.86548 0.0
H449 H 0.69678 0.96618 0.8964 0.0
N450 N 0.72028 0.90686 0.9028 0.0
C451 C 0.74091 0.91342 0.88586 0.0
C452 C 0.70452 0.92525 0.90711 0.0
C453 C 0.73044 0.95863 0.87578 0.0
C454 C 0.70932 0.95149 0.89337 0.0
C455 C 0.74659 0.93955 0.87214 0.0
H456 H 0.77282 0.96583 0.84497 0.0
N457 N 0.75078 0.86892 0.89791 0.0
C458 C 0.75663 0.89391 0.88356 0.0
C459 C 0.7942 0.87985 0.87016 0.0
C460 C 0.77851 0.90007 0.86878 0.0
C461 C 0.76618 0.84917 0.90173 0.0
C462 C 0.78806 0.85431 0.88721 0.0
O463 O 0.67399 0.81447 0.93977 0.0
O464 O 0.67887 0.85573 0.9461 0.0
O465 O 0.72402 0.83777 0.98513 0.0
O466 O 0.72101 0.8787 0.97975 0.0
O467 O 0.66109 0.862 0.87222 0.0
O468 O 0.69202 0.88547 0.86252 0.0
O469 O 0.7283 0.85437 0.85758 0.0
O470 O 0.69864 0.84153 0.8234 0.0
O471 O 0.65892 0.83537 0.79883 0.0
O472 O 0.65891 0.79471 0.829 0.0
O473 O 0.71937 0.81934 0.93077 0.0
O474 O 0.70395 0.80737 0.87136 0.0
C475 C 0.67347 0.83182 0.96419 0.0
C476 C 0.67226 0.88112 0.84854 0.0
C477 C 0.74832 0.85509 0.02958 0.0
C478 C 0.77153 0.84064 0.09627 0.0
C479 C 0.78683 0.86637 0.0259 0.0
C480 C 0.76677 0.86736 1.00613 0.0
C481 C 0.78919 0.85333 0.06997 0.0
C482 C 0.75074 0.84175 0.07552 0.0
C483 C 0.72714 0.8565 1.005 0.0
C484 C 0.78412 0.92612 0.85431 0.0
C485 C 0.76819 0.94581 0.85582 0.0
H486 H 0.81119 0.8838 0.85915 0.0
C487 C 0.71848 0.85126 0.82225 0.0
C488 C 0.71778 0.80404 0.90306 0.0
C489 C 0.67616 0.80685 0.758 0.0
C490 C 0.68865 0.80794 0.68132 0.0
C491 C 0.71318 0.79167 0.74031 0.0
C492 C 0.69681 0.79596 0.77148 0.0
C493 C 0.70915 0.79749 0.69541 0.0
C494 C 0.67219 0.81312 0.71253 0.0
C495 C 0.65948 0.81204 0.79188 0.0
H496 H 0.80076 0.87611 1.00687 0.0
H497 H 0.76571 0.87811 0.97221 0.0
H498 H 0.80504 0.85382 0.08386 0.0
H499 H 0.73673 0.83223 0.09461 0.0
H500 H 0.72892 0.78344 0.75083 0.0
H501 H 0.70034 0.79045 0.80614 0.0
H502 H 0.7219 0.79342 0.67163 0.0
H503 H 0.65623 0.82103 0.70169 0.0
C504 C 0.51599 0.32681 0.08458 0.0
C505 C 0.55378 0.34043 0.06846 0.0
C506 C 0.53174 0.34544 0.08159 0.0
C507 C 0.55977 0.31654 0.05805 0.0
C508 C 0.52213 0.30253 0.07527 0.0
C509 C 0.544 0.29764 0.0615 0.0
N510 N 0.49493 0.33202 0.09826 0.0
C511 C 0.47972 0.3131 0.10636 0.0
C512 C 0.50622 0.28365 0.08099 0.0
C513 C 0.485 0.28887 0.09709 0.0
Gd514 Gd 0.45025 0.42621 0.02982 0.0
Gd515 Gd 0.48802 0.3737 0.11192 0.0
N516 N 0.52547 0.36851 0.09155 0.0
C517 C 0.56922 0.35951 0.06654 0.0
C518 C 0.54065 0.38677 0.09147 0.0
C519 C 0.56264 0.38268 0.07844 0.0
H520 H 0.53598 0.4045 0.10162 0.0
H521 H 0.57455 0.39735 0.07786 0.0
H522 H 0.41483 0.37694 0.06875 0.0
H523 H 0.46352 0.31648 0.12055 0.0
H524 H 0.38066 0.36993 0.1149 0.0
H525 H 0.5863 0.3564 0.05657 0.0
H526 H 0.57661 0.31238 0.04778 0.0
H527 H 0.46264 0.48777 0.02179 0.0
H528 H 0.51029 0.26477 0.0742 0.0
H529 H 0.47276 0.27411 0.10288 0.0
H530 H 0.36188 0.45273 0.14667 0.0
H531 H 0.54896 0.27914 0.05402 0.0
H532 H 0.40996 0.52282 0.0884 0.0
H533 H 0.44561 0.52635 0.0448 0.0
N534 N 0.43692 0.46308 0.05262 0.0
C535 C 0.41726 0.46059 0.07628 0.0
C536 C 0.4471 0.48623 0.04092 0.0
C537 C 0.41732 0.50593 0.0783 0.0
C538 C 0.43747 0.50802 0.05374 0.0
C539 C 0.40699 0.48205 0.08999 0.0
H540 H 0.37889 0.49522 0.1263 0.0
N541 N 0.41822 0.41553 0.07538 0.0
C542 C 0.40784 0.4362 0.08844 0.0
C543 C 0.37813 0.40899 0.12422 0.0
C544 C 0.38764 0.43329 0.11371 0.0
C545 C 0.40823 0.39232 0.08319 0.0
C546 C 0.38834 0.38853 0.10845 0.0
O547 O 0.50183 0.381 0.04043 0.0
O548 O 0.48006 0.41198 0.99437 0.0
O549 O 0.42401 0.42868 0.98516 0.0
O550 O 0.44936 0.45742 0.97131 0.0
O551 O 0.49744 0.41543 0.09619 0.0
O552 O 0.48489 0.43883 0.02844 0.0
O553 O 0.45664 0.43441 0.09599 0.0
O554 O 0.45796 0.39375 0.13996 0.0
O555 O 0.50256 0.38034 0.17073 0.0
O556 O 0.4866 0.34418 0.17292 0.0
O557 O 0.45123 0.38582 0.02063 0.0
O558 O 0.45596 0.3625 0.09078 0.0
C559 C 0.49688 0.39534 1.00146 0.0
C560 C 0.49803 0.43543 0.06176 0.0
C561 C 0.43577 0.44412 0.91182 0.0
C562 C 0.42716 0.45744 0.83488 0.0
C563 C 0.4533 0.42172 0.85807 0.0
C564 C 0.45019 0.42461 0.90182 0.0
C565 C 0.44197 0.43819 0.82452 0.0
C566 C 0.42411 0.46016 0.87875 0.0
C567 C 0.43265 0.44803 0.95663 0.0
C568 C 0.37737 0.45471 0.12719 0.0
C569 C 0.38701 0.47896 0.11543 0.0
H570 H 0.36261 0.406 0.14349 0.0
C571 C 0.45539 0.41905 0.13551 0.0
C572 C 0.45342 0.36358 0.04852 0.0
C573 C 0.51591 0.34315 0.21987 0.0
C574 C 0.53562 0.33547 0.28769 0.0
C575 C 0.54449 0.30945 0.23339 0.0
C576 C 0.52842 0.32316 0.20622 0.0
C577 C 0.54804 0.31548 0.27425 0.0
C578 C 0.51974 0.34938 0.26035 0.0
C579 C 0.49818 0.35724 0.19392 0.0
H580 H 0.4646 0.40691 0.8501 0.0
H581 H 0.45896 0.41167 0.92762 0.0
H582 H 0.4451 0.43617 0.79049 0.0
H583 H 0.41269 0.47477 0.8873 0.0
H584 H 0.55403 0.29394 0.22301 0.0
H585 H 0.52559 0.31791 0.17515 0.0
H586 H 0.56032 0.30456 0.2954 0.0
H587 H 0.51004 0.36476 0.27107 0.0
C588 C 0.89656 0.22986 0.23624 0.0
C589 C 0.88659 0.27479 0.20458 0.0
C590 C 0.88087 0.25006 0.22972 0.0
C591 C 0.9081 0.27892 0.18603 0.0
C592 C 0.9182 0.23406 0.21766 0.0
C593 C 0.92384 0.25862 0.1925 0.0
N594 N 0.89078 0.20622 0.2608 0.0
C595 C 0.90588 0.18619 0.26888 0.0
C596 C 0.93364 0.21344 0.22509 0.0
C597 C 0.92746 0.18944 0.25092 0.0
Gd598 Gd 0.79878 0.17687 0.25413 0.0
Gd599 Gd 0.85458 0.20364 0.29117 0.0
N600 N 0.85996 0.24545 0.24711 0.0
C601 C 0.8705 0.29469 0.19857 0.0
C602 C 0.84439 0.26505 0.24233 0.0
C603 C 0.84935 0.2898 0.2177 0.0
H604 H 0.82813 0.26193 0.25742 0.0
H605 H 0.83687 0.30516 0.21372 0.0
H606 H 0.83108 0.12314 0.29572 0.0
H607 H 0.90138 0.16774 0.28981 0.0
H608 H 0.82672 0.08117 0.34637 0.0
H609 H 0.87426 0.31391 0.17946 0.0
H610 H 0.91273 0.29776 0.16657 0.0
H611 H 0.74949 0.20731 0.25761 0.0
H612 H 0.9504 0.21592 0.21137 0.0
H613 H 0.93936 0.17349 0.25731 0.0
H614 H 0.75145 0.08148 0.40011 0.0
H615 H 0.94037 0.26215 0.17799 0.0
H616 H 0.70641 0.15707 0.34932 0.0
H617 H 0.71293 0.19881 0.29652 0.0
N618 N 0.7635 0.17105 0.28899 0.0
C619 C 0.76021 0.14774 0.31739 0.0
C620 C 0.74691 0.18936 0.28164 0.0
C621 C 0.7225 0.16077 0.33261 0.0
C622 C 0.72616 0.18445 0.30309 0.0
C623 C 0.73957 0.14206 0.34009 0.0
H624 H 0.72082 0.11338 0.3873 0.0
N625 N 0.79771 0.13585 0.30366 0.0
C626 C 0.77766 0.12964 0.32472 0.0
C627 C 0.79245 0.08798 0.36231 0.0
C628 C 0.77462 0.10558 0.3548 0.0
C629 C 0.81513 0.11864 0.31121 0.0
C630 C 0.81277 0.09458 0.34048 0.0
O631 O 0.84953 0.21231 0.21758 0.0
O632 O 0.81185 0.215 0.21539 0.0
O633 O 0.80303 0.16176 0.19483 0.0
O634 O 0.77111 0.17732 0.21247 0.0
O635 O 0.82195 0.21932 0.31239 0.0
O636 O 0.7967 0.21843 0.26016 0.0
O637 O 0.8002 0.1738 0.32778 0.0
O638 O 0.83735 0.16932 0.33708 0.0
O639 O 0.85566 0.22938 0.33566 0.0
O640 O 0.87913 0.196 0.3421 0.0
O641 O 0.8309 0.16025 0.23344 0.0
O642 O 0.86271 0.1665 0.26708 0.0
C643 C 0.8316 0.21849 0.19563 0.0
C644 C 0.80273 0.22584 0.29564 0.0
C645 C 0.77242 0.14234 0.17681 0.0
C646 C 0.75925 0.12147 0.12156 0.0
C647 C 0.7624 0.0973 0.19768 0.0
C648 C 0.77018 0.11922 0.20916 0.0
C649 C 0.75699 0.09835 0.15394 0.0
C650 C 0.767 0.14337 0.13328 0.0
C651 C 0.78233 0.16491 0.18623 0.0
C652 C 0.75402 0.09986 0.37694 0.0
C653 C 0.73657 0.11805 0.36966 0.0
H654 H 0.79076 0.06934 0.38518 0.0
C655 C 0.81679 0.1695 0.35386 0.0
C656 C 0.85201 0.15632 0.23928 0.0
C657 C 0.88084 0.22465 0.39351 0.0
C658 C 0.87392 0.2418 0.45987 0.0
C659 C 0.91118 0.2392 0.42783 0.0
C660 C 0.90338 0.22841 0.3946 0.0
C661 C 0.89654 0.24599 0.46024 0.0
C662 C 0.86611 0.23125 0.4262 0.0
C663 C 0.87244 0.21688 0.35543 0.0
H664 H 0.76071 0.07945 0.22259 0.0
H665 H 0.77479 0.11796 0.24283 0.0
H666 H 0.75083 0.08128 0.14554 0.0
H667 H 0.76935 0.16114 0.10822 0.0
H668 H 0.92858 0.24231 0.42846 0.0
H669 H 0.91481 0.22377 0.369 0.0
H670 H 0.90296 0.25383 0.48633 0.0
H671 H 0.84863 0.22832 0.42532 0.0
C672 C 0.88039 0.46758 0.21749 0.0
C673 C 0.84328 0.48553 0.21885 0.0
C674 C 0.86567 0.4881 0.20401 0.0
C675 C 0.83596 0.46196 0.24529 0.0
C676 C 0.87325 0.44414 0.24528 0.0
C677 C 0.85091 0.44133 0.25851 0.0
N678 N 0.90192 0.47088 0.20514 0.0
C679 C 0.91731 0.4519 0.21958 0.0
C680 C 0.88887 0.42438 0.25972 0.0
C681 C 0.91104 0.42834 0.24692 0.0
Gd682 Gd 0.92661 0.57633 0.18744 0.0
Gd683 Gd 0.9117 0.5096 0.1569 0.0
N684 N 0.87343 0.51096 0.17923 0.0
C685 C 0.829 0.507 0.20827 0.0
C686 C 0.85969 0.5324 0.17259 0.0
C687 C 0.83735 0.53064 0.18579 0.0
H688 H 0.86552 0.5513 0.15924 0.0
H689 H 0.82667 0.54775 0.17959 0.0
H690 H 0.98137 0.58311 0.17161 0.0
H691 H 0.93442 0.45482 0.20945 0.0
H692 H 0.00724 0.61658 0.1346 0.0
H693 H 0.81175 0.50583 0.21908 0.0
H694 H 0.81883 0.45971 0.25668 0.0
H695 H 0.87759 0.60573 0.19196 0.0
H696 H 0.88404 0.40615 0.28115 0.0
H697 H 0.92329 0.41328 0.25806 0.0
H698 H 0.96085 0.69135 0.08198 0.0
H699 H 0.8451 0.42346 0.27969 0.0
H700 H 0.88314 0.68404 0.11743 0.0
H701 H 0.86041 0.648 0.15911 0.0
N702 N 0.90957 0.61709 0.16618 0.0
C703 C 0.92251 0.63639 0.14335 0.0
C704 C 0.88765 0.62134 0.17369 0.0
C705 C 0.89082 0.66541 0.13124 0.0
C706 C 0.8779 0.64532 0.15529 0.0
C707 C 0.91355 0.66121 0.12564 0.0
H708 H 0.92089 0.70005 0.08893 0.0
N709 N 0.95279 0.60727 0.15594 0.0
C710 C 0.94487 0.63138 0.13846 0.0
C711 C 0.98175 0.64564 0.11516 0.0
C712 C 0.95908 0.65119 0.11706 0.0
C713 C 0.97495 0.60191 0.15553 0.0
C714 C 0.98973 0.62095 0.13498 0.0
O715 O 0.91436 0.51099 0.22803 0.0
O716 O 0.89922 0.55101 0.22674 0.0
O717 O 0.94188 0.55834 0.25079 0.0
O718 O 0.92947 0.59756 0.24 0.0
O719 O 0.89743 0.54305 0.1065 0.0
O720 O 0.89896 0.58055 0.13472 0.0
O721 O 0.94457 0.57129 0.12223 0.0
O722 O 0.93204 0.53521 0.09975 0.0
O723 O 0.90232 0.47949 0.1253 0.0
O724 O 0.93686 0.48566 0.13202 0.0
O725 O 0.9546 0.55037 0.17707 0.0
O726 O 0.93777 0.51288 0.20381 0.0
C727 C 0.90296 0.52678 0.24832 0.0
C728 C 0.89353 0.56812 0.10317 0.0
C729 C 0.96067 0.58716 0.28685 0.0
C730 C 0.98684 0.58423 0.34809 0.0
C731 C 0.99092 0.61684 0.27865 0.0
C732 C 0.97245 0.60832 0.26231 0.0
C733 C 0.99803 0.60501 0.32058 0.0
C734 C 0.96782 0.57525 0.33083 0.0
C735 C 0.94051 0.57929 0.2665 0.0
C736 C 0.95023 0.67591 0.0989 0.0
C737 C 0.92749 0.68087 0.10296 0.0
H738 H 0.99323 0.66036 0.0992 0.0
C739 C 0.94365 0.55653 0.09264 0.0
C740 C 0.95575 0.52544 0.19122 0.0
C741 C 0.92799 0.46898 0.07097 0.0
C742 C 0.91715 0.46863 0.99674 0.0
C743 C 0.9546 0.4563 0.01754 0.0
C744 C 0.94929 0.46049 0.06 0.0
C745 C 0.93867 0.4604 0.98594 0.0
C746 C 0.91193 0.47291 0.03928 0.0
C747 C 0.92266 0.47299 0.11588 0.0
H748 H -0.00036 0.6332 0.2588 0.0
H749 H 0.96711 0.61894 0.23045 0.0
H750 H 0.01218 0.61281 0.33214 0.0
H751 H 0.95874 0.55936 0.3512 0.0
H752 H 0.97113 0.45004 1.00903 0.0
H753 H 0.96181 0.4571 0.0843 0.0
H754 H 0.94334 0.45771 0.95276 0.0
H755 H 0.89537 0.4793 0.0475 0.0
C756 C 0.21563 0.15175 0.8356 0.0
C757 C 0.1941 0.11325 0.86184 0.0
C758 C 0.19578 0.13926 0.83878 0.0
C759 C 0.21254 0.10011 0.88236 0.0
C760 C 0.2342 0.13857 0.85592 0.0
C761 C 0.2325 0.11277 0.87958 0.0
N762 N 0.21694 0.1765 0.81167 0.0
C763 C 0.23644 0.1888 0.80489 0.0
C764 C 0.25405 0.15157 0.85109 0.0
C765 C 0.25521 0.17675 0.82517 0.0
Gd766 Gd 0.14699 0.24908 0.81906 0.0
Gd767 Gd 0.18496 0.19382 0.77719 0.0
N768 N 0.17806 0.15259 0.81947 0.0
C769 C 0.17388 0.10128 0.86364 0.0
C770 C 0.15851 0.14093 0.81989 0.0
C771 C 0.15604 0.11517 0.84244 0.0
H772 H 0.14491 0.15146 0.80255 0.0
H773 H 0.14046 0.10596 0.84313 0.0
H774 H 0.18821 0.2931 0.80432 0.0
H775 H 0.23774 0.20743 0.78241 0.0
H776 H 0.19628 0.3353 0.75618 0.0
H777 H 0.17192 0.08131 0.88102 0.0
H778 H 0.21155 0.08015 0.90042 0.0
H779 H 0.09525 0.23783 0.80202 0.0
H780 H 0.26869 0.14213 0.86629 0.0
H781 H 0.27064 0.18665 0.82001 0.0
H782 H 0.13152 0.35934 0.6741 0.0
H783 H 0.2466 0.10232 0.89543 0.0
H784 H 0.07145 0.3015 0.7033 0.0
H785 H 0.06555 0.25894 0.75448 0.0
N786 N 0.1182 0.26701 0.77499 0.0
C787 C 0.12142 0.29115 0.7494 0.0
C788 C 0.09824 0.25589 0.77849 0.0
C789 C 0.08464 0.29212 0.72361 0.0
C790 C 0.08127 0.26803 0.75225 0.0
C791 C 0.10478 0.30415 0.72232 0.0
H792 H 0.09613 0.33885 0.67377 0.0
N793 N 0.15733 0.29003 0.77688 0.0
C794 C 0.14153 0.30286 0.74999 0.0
C795 C 0.16539 0.3391 0.72456 0.0
C796 C 0.14528 0.32766 0.72293 0.0
C797 C 0.17647 0.30182 0.78035 0.0
C798 C 0.18095 0.32624 0.7537 0.0
O799 O 0.17125 0.18528 0.85001 0.0
O800 O 0.16795 0.22359 0.87336 0.0
O801 O 0.13833 0.2813 0.84865 0.0
O802 O 0.1217 0.24506 0.87347 0.0
O803 O 0.15067 0.1998 0.75584 0.0
O804 O 0.13069 0.21223 0.81361 0.0
O805 O 0.15179 0.25142 0.74395 0.0
O806 O 0.18678 0.23473 0.73825 0.0
O807 O 0.17553 0.17946 0.72057 0.0
O808 O 0.21004 0.18162 0.73257 0.0
O809 O 0.18228 0.24802 0.83453 0.0
O810 O 0.20118 0.23087 0.77944 0.0
C811 C 0.17373 0.19865 0.88082 0.0
C812 C 0.13191 0.20369 0.77649 0.0
C813 C 0.12334 0.27461 0.92135 0.0
C814 C 0.14197 0.28677 0.98088 0.0
C815 C 0.10209 0.29075 0.97888 0.0
C816 C 0.10304 0.28133 0.94009 0.0
C817 C 0.1214 0.29356 0.99912 0.0
C818 C 0.14286 0.2771 0.94195 0.0
C819 C 0.12378 0.26891 0.8771 0.0
C820 C 0.12885 0.34035 0.69527 0.0
C821 C 0.10867 0.32868 0.69506 0.0
H822 H 0.16889 0.35808 0.70415 0.0
C823 C 0.17039 0.24949 0.72076 0.0
C824 C 0.20014 0.24441 0.81046 0.0
C825 C 0.2005 0.15057 0.69351 0.0
C826 C 0.21274 0.12926 0.63348 0.0
C827 C 0.20534 0.10394 0.70879 0.0
C828 C 0.19972 0.12652 0.72355 0.0
C829 C 0.21203 0.10525 0.66421 0.0
C830 C 0.20653 0.15181 0.64862 0.0
C831 C 0.19579 0.17487 0.70779 0.0
H832 H 0.08636 0.29599 0.9932 0.0
H833 H 0.08795 0.27994 0.92401 0.0
H834 H 0.12017 0.30038 0.0298 0.0
H835 H 0.15862 0.27207 0.92729 0.0
H836 H 0.20488 0.08539 0.73214 0.0
H837 H 0.19493 0.12516 0.75824 0.0
H838 H 0.21713 0.08749 0.65424 0.0
H839 H 0.20646 0.17056 0.62567 0.0
C840 C 0.64083 0.47253 0.68281 0.0
C841 C 0.63974 0.51573 0.63531 0.0
C842 C 0.62909 0.49491 0.66435 0.0
C843 C 0.66218 0.51317 0.62335 0.0
C844 C 0.66363 0.47048 0.67286 0.0
C845 C 0.67411 0.49058 0.64209 0.0
N846 N 0.63026 0.45355 0.71275 0.0
C847 C 0.64187 0.43328 0.73726 0.0
C848 C 0.67535 0.44867 0.6953 0.0
C849 C 0.66449 0.43023 0.72822 0.0
Gd850 Gd 0.54907 0.41192 0.67616 0.0
Gd851 Gd 0.59187 0.45929 0.72046 0.0
N852 N 0.60752 0.49692 0.67692 0.0
C853 C 0.62765 0.53876 0.62025 0.0
C854 C 0.59595 0.51977 0.6644 0.0
C855 C 0.60574 0.54092 0.63547 0.0
H856 H 0.57911 0.52151 0.67646 0.0
H857 H 0.5964 0.55884 0.62499 0.0
H858 H 0.58702 0.36343 0.68417 0.0
H859 H 0.63345 0.41899 0.76268 0.0
H860 H 0.59003 0.3172 0.72095 0.0
H861 H 0.63524 0.55519 0.59793 0.0
H862 H 0.67061 0.52881 0.60067 0.0
H863 H 0.49576 0.42921 0.68858 0.0
H864 H 0.69289 0.44632 0.68853 0.0
H865 H 0.67354 0.41368 0.74664 0.0
H866 H 0.51958 0.299 0.79733 0.0
H867 H 0.69157 0.48919 0.63358 0.0
H868 H 0.46396 0.36642 0.77805 0.0
H869 H 0.46247 0.41102 0.73201 0.0
N870 N 0.51639 0.39698 0.71496 0.0
C871 C 0.51726 0.37174 0.73709 0.0
C872 C 0.49686 0.41063 0.71126 0.0
C873 C 0.47876 0.37473 0.76028 0.0
C874 C 0.47787 0.39998 0.73464 0.0
C875 C 0.49844 0.36004 0.76081 0.0
H876 H 0.48534 0.32471 0.80177 0.0
N877 N 0.55471 0.36858 0.71121 0.0
C878 C 0.53669 0.35705 0.73434 0.0
C879 C 0.55717 0.31628 0.75127 0.0
C880 C 0.53761 0.33058 0.75559 0.0
C881 C 0.57339 0.35443 0.70482 0.0
C882 C 0.57504 0.32821 0.72538 0.0
O883 O 0.584 0.47303 0.64802 0.0
O884 O 0.55357 0.45185 0.63 0.0
O885 O 0.55639 0.3919 0.62244 0.0
O886 O 0.52337 0.4067 0.63396 0.0
O887 O 0.55805 0.47632 0.70329 0.0
O888 O 0.53234 0.4443 0.70479 0.0
O889 O 0.56543 0.39661 0.74138 0.0
O890 O 0.56472 0.43554 0.75731 0.0
O891 O 0.58864 0.49085 0.75583 0.0
O892 O 0.59715 0.45205 0.79152 0.0
O893 O 0.58214 0.42318 0.64725 0.0
O894 O 0.60604 0.42151 0.70053 0.0
C895 C 0.56851 0.47019 0.62126 0.0
C896 C 0.5377 0.46856 0.70278 0.0
C897 C 0.53603 0.40896 0.55983 0.0
C898 C 0.54315 0.4069 0.48239 0.0
C899 C 0.52799 0.44638 0.50102 0.0
C900 C 0.52817 0.43462 0.54613 0.0
C901 C 0.53561 0.43271 0.46923 0.0
C902 C 0.54338 0.39503 0.52783 0.0
C903 C 0.5368 0.3968 0.60731 0.0
C904 C 0.51909 0.31924 0.78043 0.0
C905 C 0.4996 0.33391 0.78309 0.0
H906 H 0.55853 0.29593 0.7672 0.0
C907 C 0.56531 0.41059 0.7713 0.0
C908 C 0.60031 0.41399 0.66461 0.0
C909 C 0.60141 0.48661 0.82943 0.0
C910 C 0.5965 0.51052 0.88964 0.0
C911 C 0.63108 0.48752 0.87795 0.0
C912 C 0.62289 0.47955 0.84204 0.0
C913 C 0.618 0.50261 0.90176 0.0
C914 C 0.58827 0.50255 0.85294 0.0
C915 C 0.59197 0.47582 0.79443 0.0
H916 H 0.52158 0.46598 0.49062 0.0
H917 H 0.52195 0.44549 0.5703 0.0
H918 H 0.5349 0.44202 0.43426 0.0
H919 H 0.54919 0.37509 0.53818 0.0
H920 H 0.64762 0.48171 0.88776 0.0
H921 H 0.63321 0.46746 0.82461 0.0
H922 H 0.62476 0.50825 0.92978 0.0
H923 H 0.57155 0.50794 0.84371 0.0
C924 C 0.26759 0.91138 0.40171 0.0
C925 C 0.23052 0.91021 0.3778 0.0
C926 C 0.25003 0.89745 0.39451 0.0
C927 C 0.22936 0.93738 0.36669 0.0
C928 C 0.26613 0.93861 0.39281 0.0
C929 C 0.24712 0.95157 0.37427 0.0
N930 N 0.28551 0.89819 0.42036 0.0
C931 C 0.30204 0.91089 0.4335 0.0
C932 C 0.28347 0.9519 0.40439 0.0
C933 C 0.30131 0.93794 0.42554 0.0
Gd934 Gd 0.33393 0.80706 0.36999 0.0
Gd935 Gd 0.28543 0.85296 0.43133 0.0
N936 N 0.25144 0.87134 0.4072 0.0
C937 C 0.21258 0.89528 0.37416 0.0
C938 C 0.23376 0.85667 0.40557 0.0
C939 C 0.21414 0.86838 0.38857 0.0
H940 H 0.23493 0.83586 0.4165 0.0
H941 H 0.20028 0.85666 0.3865 0.0
H942 H 0.36956 0.85679 0.38 0.0
H943 H 0.31589 0.90004 0.44951 0.0
H944 H 0.40777 0.86057 0.39123 0.0
H945 H 0.19732 0.90432 0.36126 0.0
H946 H 0.21459 0.94758 0.35344 0.0
H947 H 0.32591 0.74432 0.4052 0.0
H948 H 0.28296 0.97283 0.39835 0.0
H949 H 0.31442 0.94799 0.43596 0.0
H950 H 0.43753 0.77419 0.41733 0.0
H951 H 0.24575 0.97251 0.36678 0.0
H952 H 0.3879 0.70512 0.43144 0.0
H953 H 0.34765 0.7037 0.42593 0.0
N954 N 0.3532 0.76851 0.3991 0.0
C955 C 0.37507 0.76979 0.40279 0.0
C956 C 0.34329 0.74519 0.40799 0.0
C957 C 0.3783 0.723 0.42244 0.0
C958 C 0.35562 0.72211 0.41957 0.0
C959 C 0.38827 0.74701 0.41445 0.0
H960 H 0.42142 0.73167 0.42525 0.0
N961 N 0.37081 0.81541 0.38588 0.0
C962 C 0.38416 0.79388 0.39635 0.0
C963 C 0.41533 0.81993 0.4003 0.0
C964 C 0.40676 0.79564 0.40302 0.0
C965 C 0.37922 0.8391 0.38585 0.0
C966 C 0.40141 0.84167 0.39239 0.0
O967 O 0.27697 0.84624 0.36542 0.0
O968 O 0.30833 0.83236 0.32706 0.0
O969 O 0.3486 0.80949 0.30253 0.0
O970 O 0.32607 0.77921 0.33261 0.0
O971 O 0.27416 0.81682 0.41054 0.0
O972 O 0.30416 0.78879 0.40992 0.0
O973 O 0.32589 0.79355 0.44296 0.0
O974 O 0.31766 0.83389 0.45591 0.0
O975 O 0.26213 0.83399 0.48386 0.0
O976 O 0.28548 0.85968 0.49878 0.0
O977 O 0.33387 0.84724 0.38111 0.0
O978 O 0.30769 0.87802 0.37532 0.0
C979 C 0.28864 0.8441 0.32878 0.0
C980 C 0.2835 0.79511 0.40263 0.0
C981 C 0.32573 0.79341 0.25525 0.0
C982 C 0.32592 0.79279 0.1766 0.0
C983 C 0.29143 0.79835 0.21733 0.0
C984 C 0.3027 0.79667 0.25591 0.0
C985 C 0.30298 0.79665 0.1777 0.0
C986 C 0.33732 0.79112 0.21546 0.0
C987 C 0.33737 0.79015 0.29672 0.0
C988 C 0.4201 0.7731 0.41299 0.0
C989 C 0.41092 0.74886 0.41809 0.0
H990 H 0.43255 0.82204 0.40535 0.0
C991 C 0.32062 0.80882 0.47049 0.0
C992 C 0.3258 0.86881 0.3578 0.0
C993 C 0.25039 0.85795 0.53804 0.0
C994 C 0.22625 0.85894 0.60512 0.0
C995 C 0.22268 0.89232 0.53708 0.0
C996 C 0.23992 0.88084 0.51604 0.0
C997 C 0.2158 0.88146 0.58088 0.0
C998 C 0.24348 0.84691 0.58291 0.0
C999 C 0.26828 0.84583 0.51361 0.0
H1000 H 0.2737 0.80095 0.2182 0.0
H1001 H 0.29336 0.79783 0.28631 0.0
H1002 H 0.29399 0.79787 0.14799 0.0
H1003 H 0.35502 0.78789 0.21477 0.0
H1004 H 0.21458 0.90981 0.51929 0.0
H1005 H 0.24506 0.88998 0.48246 0.0
H1006 H 0.20205 0.89078 0.59562 0.0
H1007 H 0.2517 0.82942 0.60045 0.0
C1008 C 0.86825 0.50472 0.52698 0.0
C1009 C 0.83507 0.48042 0.53225 0.0
C1010 C 0.85641 0.48276 0.54615 0.0
C1011 C 0.82614 0.5 0.49891 0.0
C1012 C 0.85926 0.52452 0.49378 0.0
C1013 C 0.83818 0.52198 0.47979 0.0
N1014 N 0.88859 0.50684 0.5408 0.0
C1015 C 0.90092 0.52803 0.52326 0.0
C1016 C 0.8717 0.54641 0.47574 0.0
C1017 C 0.89264 0.54816 0.4906 0.0
Gd1018 Gd 0.938 0.41322 0.56618 0.0
Gd1019 Gd 0.90053 0.47393 0.59823 0.0
N1020 N 0.86535 0.46423 0.57905 0.0
C1021 C 0.82308 0.45872 0.55288 0.0
C1022 C 0.85307 0.44378 0.60077 0.0
C1023 C 0.83206 0.44045 0.58747 0.0
H1024 H 0.85869 0.43033 0.62941 0.0
H1025 H 0.82258 0.42403 0.60465 0.0
H1026 H 0.98936 0.41461 0.59608 0.0
H1027 H 0.91734 0.52925 0.534 0.0
H1028 H 0.01713 0.38448 0.63689 0.0
H1029 H 0.80666 0.45624 0.54313 0.0
H1030 H 0.80978 0.49846 0.48798 0.0
H1031 H 0.89891 0.37679 0.54274 0.0
H1032 H 0.86532 0.56199 0.4502 0.0
H1033 H 0.90247 0.56486 0.47667 0.0
H1034 H 0.98211 0.30231 0.67144 0.0
H1035 H 0.831 0.53698 0.45434 0.0
H1036 H 0.91215 0.2981 0.60991 0.0
H1037 H 0.88876 0.33085 0.56206 0.0
N1038 N 0.9275 0.37006 0.58016 0.0
C1039 C 0.94103 0.35236 0.60519 0.0
C1040 C 0.90921 0.36257 0.56364 0.0
C1041 C 0.91668 0.31822 0.60173 0.0
C1042 C 0.9034 0.33661 0.57465 0.0
C1043 C 0.93601 0.32593 0.61675 0.0
H1044 H 0.94706 0.28769 0.6512 0.0
N1045 N 0.96529 0.3859 0.60337 0.0
C1046 C 0.96061 0.36055 0.61705 0.0
C1047 C 0.99632 0.3515 0.64808 0.0
C1048 C 0.97593 0.34261 0.64015 0.0
C1049 C 0.98549 0.39452 0.60899 0.0
C1050 C 0.00123 0.37753 0.6319 0.0
O1051 O 0.90971 0.47196 0.52738 0.0
O1052 O 0.90802 0.42931 0.52605 0.0
O1053 O 0.94962 0.43454 0.49965 0.0
O1054 O 0.95947 0.39469 0.52242 0.0
O1055 O 0.89618 0.436 0.64533 0.0
O1056 O 0.90588 0.40196 0.61047 0.0
O1057 O 0.94822 0.42254 0.63181 0.0
O1058 O 0.92374 0.45344 0.6546 0.0
O1059 O 0.87825 0.49382 0.63829 0.0
O1060 O 0.90969 0.50969 0.6131 0.0
O1061 O 0.95583 0.44677 0.57762 0.0
O1062 O 0.93057 0.47854 0.55366 0.0
C1063 C 0.90533 0.45401 0.50637 0.0
C1064 C 0.89707 0.4113 0.64472 0.0
C1065 C 0.95986 0.41041 0.44366 0.0
C1066 C 0.97591 0.40982 0.36766 0.0
C1067 C 0.93908 0.39406 0.39163 0.0
C1068 C 0.94107 0.39898 0.43371 0.0
C1069 C 0.95617 0.39946 0.35907 0.0
C1070 C 0.97757 0.41579 0.41035 0.0
C1071 C 0.96102 0.415 0.4897 0.0
C1072 C 0.97066 0.31638 0.65327 0.0
C1073 C 0.9507 0.30806 0.6417 0.0
H1074 H 0.00858 0.33833 0.66561 0.0
C1075 C 0.94078 0.43632 0.66126 0.0
C1076 C 0.94978 0.47117 0.56774 0.0
C1077 C 0.89568 0.51984 0.67884 0.0
C1078 C 0.89215 0.51283 0.75908 0.0
C1079 C 0.91187 0.54978 0.71589 0.0
C1080 C 0.90765 0.54215 0.67692 0.0
C1081 C 0.90417 0.53522 0.75688 0.0
C1082 C 0.88798 0.50517 0.71997 0.0
C1083 C 0.89207 0.51207 0.63745 0.0
H1084 H 0.92428 0.38555 0.38438 0.0
H1085 H 0.92788 0.39367 0.45888 0.0
H1086 H 0.95411 0.39492 0.327 0.0
H1087 H 0.99261 0.42365 0.41808 0.0
H1088 H 0.92135 0.56679 0.71437 0.0
H1089 H 0.9139 0.55352 0.64522 0.0
H1090 H 0.90822 0.54102 0.78693 0.0
H1091 H 0.87905 0.48767 0.72177 0.0
C1092 C 0.25829 0.08137 0.33439 0.0
C1093 C 0.22024 0.08893 0.35744 0.0
C1094 C 0.24108 0.0983 0.34059 0.0
C1095 C 0.21714 0.06212 0.36884 0.0
C1096 C 0.25522 0.05447 0.34516 0.0
C1097 C 0.23459 0.04492 0.36273 0.0
N1098 N 0.27791 0.09126 0.31689 0.0
C1099 C 0.29516 0.07549 0.30871 0.0
C1100 C 0.27293 0.03803 0.3375 0.0
C1101 C 0.29298 0.04859 0.31914 0.0
Gd1102 Gd 0.32649 0.18054 0.34764 0.0
Gd1103 Gd 0.27998 0.13632 0.30086 0.0
N1104 N 0.24457 0.12402 0.32898 0.0
C1105 C 0.20309 0.10681 0.36167 0.0
C1106 C 0.2278 0.14162 0.33157 0.0
C1107 C 0.20687 0.1333 0.34842 0.0
H1108 H 0.23071 0.16211 0.32113 0.0
H1109 H 0.19368 0.14729 0.35104 0.0
H1110 H 0.36818 0.13605 0.37325 0.0
H1111 H 0.3106 0.08377 0.29443 0.0
H1112 H 0.40531 0.12777 0.3423 0.0
H1113 H 0.18684 0.1004 0.37453 0.0
H1114 H 0.20127 0.0545 0.38197 0.0
H1115 H 0.31215 0.24112 0.2977 0.0
H1116 H 0.27126 0.01723 0.34533 0.0
H1117 H 0.30672 0.03603 0.31295 0.0
H1118 H 0.41821 0.20144 0.22262 0.0
H1119 H 0.23191 0.0243 0.37131 0.0
H1120 H 0.36374 0.27026 0.20132 0.0
H1121 H 0.32747 0.27648 0.2387 0.0
N1122 N 0.33931 0.21522 0.29271 0.0
C1123 C 0.35963 0.21164 0.27402 0.0
C1124 C 0.3279 0.23827 0.28115 0.0
C1125 C 0.35707 0.25469 0.22706 0.0
C1126 C 0.33656 0.25828 0.24797 0.0
C1127 C 0.36896 0.23129 0.24026 0.0
H1128 H 0.39736 0.24198 0.19513 0.0
N1129 N 0.36222 0.17017 0.32323 0.0
C1130 C 0.3713 0.18847 0.28942 0.0
C1131 C 0.40479 0.16233 0.29004 0.0
C1132 C 0.39276 0.18483 0.27159 0.0
C1133 C 0.37455 0.14924 0.34363 0.0
C1134 C 0.39578 0.14469 0.32669 0.0
O1135 O 0.2682 0.14598 0.36563 0.0
O1136 O 0.29684 0.16558 0.39341 0.0
O1137 O 0.34017 0.17596 0.4127 0.0
O1138 O 0.33527 0.21401 0.37124 0.0
O1139 O 0.27178 0.17931 0.29574 0.0
O1140 O 0.29326 0.19897 0.33942 0.0
O1141 O 0.31862 0.1882 0.27634 0.0
O1142 O 0.3144 0.1464 0.27381 0.0
O1143 O 0.25866 0.1556 0.24798 0.0
O1144 O 0.28055 0.12455 0.23673 0.0
O1145 O 0.33078 0.13807 0.35153 0.0
O1146 O 0.30023 0.11393 0.36147 0.0
C1147 C 0.27737 0.15469 0.39687 0.0
C1148 C 0.27668 0.19848 0.31425 0.0
C1149 C 0.32526 0.20881 0.44692 0.0
C1150 C 0.31821 0.20706 0.52549 0.0
C1151 C 0.29256 0.23025 0.47301 0.0
C1152 C 0.30584 0.22406 0.43809 0.0
C1153 C 0.29864 0.22158 0.51678 0.0
C1154 C 0.33146 0.20058 0.49072 0.0
C1155 C 0.33865 0.20071 0.41099 0.0
C1156 C 0.40182 0.20405 0.23694 0.0
C1157 C 0.38996 0.22718 0.22133 0.0
H1158 H 0.42134 0.15884 0.27726 0.0
C1159 C 0.31879 0.17028 0.25363 0.0
C1160 C 0.31867 0.12042 0.37723 0.0
C1161 C 0.24839 0.1339 0.19192 0.0
C1162 C 0.22657 0.14153 0.12339 0.0
C1163 C 0.22222 0.10247 0.18277 0.0
C1164 C 0.2379 0.1104 0.20762 0.0
C1165 C 0.21659 0.11771 0.14165 0.0
C1166 C 0.2425 0.1497 0.14961 0.0
C1167 C 0.26539 0.14158 0.21979 0.0
H1168 H 0.27751 0.24165 0.46612 0.0
H1169 H 0.30052 0.23061 0.40442 0.0
H1170 H 0.28853 0.22693 0.54366 0.0
H1171 H 0.3467 0.18945 0.49776 0.0
H1172 H 0.21421 0.08429 0.19563 0.0
H1173 H 0.24183 0.09807 0.23939 0.0
H1174 H 0.20389 0.11079 0.12457 0.0
H1175 H 0.25052 0.16792 0.13708 0.0
C1176 C 0.57877 0.52673 0.17334 0.0
C1177 C 0.61202 0.54671 0.13568 0.0
C1178 C 0.59106 0.54884 0.15674 0.0
C1179 C 0.62043 0.52232 0.13114 0.0
C1180 C 0.58705 0.50232 0.16803 0.0
C1181 C 0.60796 0.50024 0.14706 0.0
N1182 N 0.5583 0.52928 0.1925 0.0
C1183 C 0.54544 0.50842 0.20766 0.0
C1184 C 0.57383 0.48079 0.18296 0.0
C1185 C 0.55294 0.48386 0.20282 0.0
Gd1186 Gd 0.51145 0.62447 0.1109 0.0
Gd1187 Gd 0.54733 0.57123 0.19712 0.0
N1188 N 0.58209 0.5725 0.15969 0.0
C1189 C 0.62386 0.56923 0.11937 0.0
C1190 C 0.59378 0.59438 0.14486 0.0
C1191 C 0.61475 0.59311 0.12425 0.0
H1192 H 0.58719 0.61283 0.14898 0.0
H1193 H 0.62391 0.61056 0.1122 0.0
H1194 H 0.46661 0.5884 0.11597 0.0
H1195 H 0.52948 0.51073 0.22376 0.0
H1196 H 0.42688 0.59203 0.13366 0.0
H1197 H 0.64005 0.56839 0.10308 0.0
H1198 H 0.63648 0.52036 0.11488 0.0
H1199 H 0.53251 0.68081 0.12479 0.0
H1200 H 0.57954 0.46175 0.17912 0.0
H1201 H 0.54263 0.46732 0.21447 0.0
H1202 H 0.41662 0.67473 0.17139 0.0
H1203 H 0.61457 0.48164 0.14264 0.0
H1204 H 0.47978 0.72542 0.16993 0.0
H1205 H 0.51919 0.71969 0.14947 0.0
N1206 N 0.50142 0.66263 0.13554 0.0
C1207 C 0.4794 0.66607 0.14431 0.0
C1208 C 0.51549 0.682 0.13589 0.0
C1209 C 0.4856 0.70782 0.16011 0.0
C1210 C 0.50788 0.70458 0.14888 0.0
C1211 C 0.47101 0.68865 0.15738 0.0
H1212 H 0.44169 0.70875 0.17717 0.0
N1213 N 0.47355 0.62479 0.12963 0.0
C1214 C 0.46507 0.6469 0.14049 0.0
C1215 C 0.42851 0.62977 0.14804 0.0
C1216 C 0.4423 0.64982 0.15041 0.0
C1217 C 0.46009 0.60539 0.12652 0.0
C1218 C 0.43745 0.60751 0.13599 0.0
O1219 O 0.55273 0.56906 0.12542 0.0
O1220 O 0.53571 0.60128 0.07331 0.0
O1221 O 0.49225 0.62737 0.05242 0.0
O1222 O 0.51513 0.65775 0.05614 0.0
O1223 O 0.53855 0.61207 0.19324 0.0
O1224 O 0.54434 0.63781 0.12754 0.0
O1225 O 0.49757 0.61541 0.18344 0.0
O1226 O 0.51244 0.57605 0.22261 0.0
O1227 O 0.56722 0.58341 0.24397 0.0
O1228 O 0.54995 0.54703 0.26306 0.0
O1229 O 0.5064 0.582 0.11523 0.0
O1230 O 0.51509 0.5568 0.18495 0.0
C1231 C 0.54848 0.5802 0.0842 0.0
C1232 C 0.54948 0.63066 0.16906 0.0
C1233 C 0.49385 0.66496 0.99091 0.0
C1234 C 0.48203 0.66724 0.91637 0.0
C1235 C 0.48653 0.70665 0.94209 0.0
C1236 C 0.49297 0.69204 0.98302 0.0
C1237 C 0.48126 0.69434 0.90868 0.0
C1238 C 0.488 0.65254 0.95786 0.0
C1239 C 0.5002 0.64985 0.03413 0.0
C1240 C 0.43405 0.67224 0.16352 0.0
C1241 C 0.44834 0.69157 0.167 0.0
H1242 H 0.41097 0.63127 0.15556 0.0
C1243 C 0.49793 0.5956 0.21824 0.0
C1244 C 0.50527 0.56071 0.14705 0.0
C1245 C 0.58254 0.54977 0.29786 0.0
C1246 C 0.59821 0.53099 0.3688 0.0
C1247 C 0.61818 0.52776 0.29938 0.0
C1248 C 0.60112 0.54142 0.27533 0.0
C1249 C 0.61668 0.52229 0.34589 0.0
C1250 C 0.58135 0.54506 0.34419 0.0
C1251 C 0.56359 0.56239 0.27455 0.0
H1252 H 0.48581 0.72755 0.93612 0.0
H1253 H 0.49706 0.70186 1.00862 0.0
H1254 H 0.4767 0.70594 0.87675 0.0
H1255 H 0.48881 0.63158 0.96379 0.0
H1256 H 0.63244 0.52106 0.28198 0.0
H1257 H 0.60245 0.54532 0.23948 0.0
H1258 H 0.62977 0.51083 0.36375 0.0
H1259 H 0.56707 0.55231 0.36089 0.0
C1260 C 0.23819 0.85406 0.88881 0.0
C1261 C 0.2274 0.89641 0.84561 0.0
C1262 C 0.2226 0.87419 0.87895 0.0
C1263 C 0.24775 0.89778 0.82135 0.0
C1264 C 0.25879 0.85559 0.86514 0.0
C1265 C 0.26337 0.8774 0.831 0.0
N1266 N 0.2333 0.83315 0.92189 0.0
C1267 C 0.24865 0.81388 0.93491 0.0
C1268 C 0.27424 0.83522 0.87673 0.0
C1269 C 0.26922 0.81441 0.91209 0.0
Gd1270 Gd 0.14834 0.78978 0.92381 0.0
Gd1271 Gd 0.19764 0.83332 0.95452 0.0
N1272 N 0.20275 0.87202 0.90198 0.0
C1273 C 0.21164 0.91669 0.83789 0.0
C1274 C 0.18766 0.89204 0.89591 0.0
C1275 C 0.19183 0.91464 0.86362 0.0
H1276 H 0.17242 0.89077 0.91589 0.0
H1277 H 0.17973 0.9304 0.85841 0.0
H1278 H 0.17556 0.73203 0.94234 0.0
H1279 H 0.24512 0.79814 0.9631 0.0
H1280 H 0.16847 0.68702 0.98264 0.0
H1281 H 0.21471 0.93412 0.81259 0.0
H1282 H 0.25164 0.91461 0.79528 0.0
H1283 H 0.1009 0.82364 0.93083 0.0
H1284 H 0.29021 0.83561 0.85915 0.0
H1285 H 0.28122 0.79885 0.92192 0.0
H1286 H 0.09443 0.69095 0.04385 0.0
H1287 H 0.27905 0.87885 0.8122 0.0
H1288 H 0.05432 0.77194 1.01024 0.0
H1289 H 0.06346 0.81555 0.96618 0.0
N1290 N 0.11263 0.78516 0.95581 0.0
C1291 C 0.10786 0.76081 0.97894 0.0
C1292 C 0.09696 0.80462 0.95039 0.0
C1293 C 0.07074 0.7754 0.99502 0.0
C1294 C 0.07583 0.80007 0.97018 0.0
C1295 C 0.08675 0.75536 0.99942 0.0
H1296 H 0.06605 0.72564 0.03926 0.0
N1297 N 0.14415 0.74656 0.96096 0.0
C1298 C 0.12394 0.74102 0.98141 0.0
C1299 C 0.13555 0.69611 1.00539 0.0
C1300 C 0.11921 0.7156 1.00457 0.0
C1301 C 0.15987 0.72747 0.96003 0.0
C1302 C 0.15589 0.70204 0.98272 0.0
O1303 O 0.19584 0.83193 0.88236 0.0
O1304 O 0.15873 0.82785 0.87803 0.0
O1305 O 0.15093 0.7654 0.87628 0.0
O1306 O 0.12326 0.79396 0.87504 0.0
O1307 O 0.16238 0.84673 0.94864 0.0
O1308 O 0.1385 0.81467 0.97348 0.0
O1309 O 0.15926 0.77174 0.99132 0.0
O1310 O 0.18675 0.79758 1.00576 0.0
O1311 O 0.19008 0.85533 1.0052 0.0
O1312 O 0.22358 0.84232 0.99312 0.0
O1313 O 0.18409 0.78163 0.90629 0.0
O1314 O 0.20551 0.79128 0.9597 0.0
C1315 C 0.17869 0.83145 0.85888 0.0
C1316 C 0.14697 0.8363 0.97756 0.0
C1317 C 0.124 0.76624 0.82206 0.0
C1318 C 0.13075 0.74591 0.75939 0.0
C1319 C 0.09335 0.75213 0.78793 0.0
C1320 C 0.1013 0.7638 0.81991 0.0
C1321 C 0.108 0.74305 0.75791 0.0
C1322 C 0.13871 0.75748 0.79155 0.0
C1323 C 0.13245 0.77488 0.85929 0.0
C1324 C 0.09833 0.71034 0.02574 0.0
C1325 C 0.08216 0.73012 0.02314 0.0
H1326 H 0.13252 0.67636 0.0229 0.0
C1327 C 0.17341 0.77784 0.01707 0.0
C1328 C 0.20193 0.77842 0.92924 0.0
C1329 C 0.21105 0.83967 0.06681 0.0
C1330 C 0.21318 0.84273 0.14322 0.0
C1331 C 0.20945 0.80087 0.12604 0.0
C1332 C 0.21063 0.81264 0.08093 0.0
C1333 C 0.21056 0.81591 0.15732 0.0
C1334 C 0.21275 0.85475 0.09802 0.0
C1335 C 0.20988 0.85189 0.01965 0.0
H1336 H 0.07583 0.75005 0.78648 0.0
H1337 H 0.08981 0.77015 0.84381 0.0
H1338 H 0.10156 0.73439 0.73281 0.0
H1339 H 0.1563 0.75941 0.79301 0.0
H1340 H 0.20878 0.78004 0.13669 0.0
H1341 H 0.21208 0.80061 0.05718 0.0
H1342 H 0.21126 0.80638 0.19222 0.0
H1343 H 0.21482 0.87546 0.08718 0.0
C1344 C 0.56813 0.86241 0.57535 0.0
C1345 C 0.5301 0.8539 0.5999 0.0
C1346 C 0.54666 0.87109 0.57953 0.0
C1347 C 0.53575 0.82782 0.6174 0.0
C1348 C 0.57384 0.83617 0.59199 0.0
C1349 C 0.55762 0.81897 0.61353 0.0
N1350 N 0.58337 0.87957 0.55426 0.0
C1351 C 0.60445 0.87152 0.54647 0.0
C1352 C 0.59567 0.82802 0.5862 0.0
C1353 C 0.61086 0.84567 0.56271 0.0
Gd1354 Gd 0.60298 0.98065 0.58134 0.0
Gd1355 Gd 0.57172 0.92317 0.53637 0.0
N1356 N 0.5419 0.89635 0.56258 0.0
C1357 C 0.50837 0.86344 0.60166 0.0
C1358 C 0.52068 0.9056 0.56278 0.0
C1359 C 0.50361 0.88939 0.58255 0.0
H1360 H 0.51693 0.9255 0.54772 0.0
H1361 H 0.48683 0.89692 0.58308 0.0
H1362 H 0.65359 0.94853 0.57162 0.0
H1363 H 0.61639 0.88531 0.52929 0.0
H1364 H 0.68916 0.9578 0.53366 0.0
H1365 H 0.49515 0.85089 0.61705 0.0
H1366 H 0.52332 0.81433 0.63353 0.0
H1367 H 0.57469 0.0375 0.55489 0.0
H1368 H 0.60088 0.80811 0.59907 0.0
H1369 H 0.62747 0.8393 0.55751 0.0
H1370 H 0.68283 0.04556 0.45362 0.0
H1371 H 0.56177 0.79876 0.62677 0.0
H1372 H 0.61524 0.09244 0.46807 0.0
H1373 H 0.57983 0.08117 0.50981 0.0
N1374 N 0.60655 0.02318 0.53874 0.0
C1375 C 0.62617 0.02897 0.51625 0.0
C1376 C 0.59008 0.04168 0.53658 0.0
C1377 C 0.61298 0.07297 0.4877 0.0
C1378 C 0.59299 0.0667 0.5111 0.0
C1379 C 0.62988 0.05412 0.49013 0.0
H1380 H 0.65342 0.07899 0.44736 0.0
N1381 N 0.63873 0.98572 0.54501 0.0
C1382 C 0.64266 0.00983 0.51942 0.0
C1383 C 0.68011 -0.00321 0.50191 0.0
C1384 C 0.66339 0.01584 0.49701 0.0
C1385 C 0.65547 0.96736 0.5505 0.0
C1386 C 0.67616 0.97255 0.52899 0.0
O1387 O 0.55659 0.92924 0.60232 0.0
O1388 O 0.57871 0.95567 0.63327 0.0
O1389 O 0.626 0.98785 0.62757 0.0
O1390 O 0.59185 0.00191 0.63099 0.0
O1391 O 0.55044 0.95602 0.55099 0.0
O1392 O 0.57048 0.9923 0.55106 0.0
O1393 O 0.59354 0.98994 0.51161 0.0
O1394 O 0.59918 0.9492 0.50084 0.0
O1395 O 0.54773 0.93684 0.48496 0.0
O1396 O 0.57564 0.91292 0.47154 0.0
O1397 O 0.61716 0.94087 0.5833 0.0
O1398 O 0.59395 0.90813 0.59719 0.0
C1399 C 0.56235 0.93925 0.63575 0.0
C1400 C 0.55201 0.98001 0.55533 0.0
C1401 C 0.61885 0.02503 0.65699 0.0
C1402 C 0.63208 0.03989 0.71896 0.0
C1403 C 0.61394 0.07016 0.65981 0.0
C1404 C 0.61038 0.04991 0.63906 0.0
C1405 C 0.62393 0.06503 0.70066 0.0
C1406 C 0.63174 0.02111 0.69351 0.0
C1407 C 0.61145 0.00157 0.64575 0.0
C1408 C 0.66703 0.04076 0.47096 0.0
C1409 C 0.65031 0.05982 0.46745 0.0
H1410 H 0.69622 0.00072 0.48546 0.0
C1411 C 0.59543 0.9742 0.4846 0.0
C1412 C 0.61028 0.91995 0.61052 0.0
C1413 C 0.54336 0.91107 0.43054 0.0
C1414 C 0.52011 0.91055 0.36663 0.0
C1415 C 0.53268 0.87034 0.41539 0.0
C1416 C 0.54347 0.88394 0.44116 0.0
C1417 C 0.52133 0.88337 0.37863 0.0
C1418 C 0.5312 0.92449 0.39328 0.0
C1419 C 0.55741 0.92472 0.45633 0.0
H1420 H 0.60739 0.08938 0.64616 0.0
H1421 H 0.60035 0.05356 0.61063 0.0
H1422 H 0.62403 0.08037 0.71856 0.0
H1423 H 0.63934 0.00211 0.70479 0.0
H1424 H 0.53323 0.84939 0.42384 0.0
H1425 H 0.55233 0.87309 0.46913 0.0
H1426 H 0.51315 0.87196 0.35968 0.0
H1427 H 0.53093 0.94543 0.38439 0.0
C1428 C 0.38772 0.20981 0.95595 0.0
C1429 C 0.36998 0.16864 0.96559 0.0
C1430 C 0.37015 0.19563 0.94825 0.0
C1431 C 0.38681 0.1565 0.9927 0.0
C1432 C 0.40502 0.19748 0.98188 0.0
C1433 C 0.40425 0.17088 1.00087 0.0
N1434 N 0.38811 0.2356 0.93734 0.0
C1435 C 0.40585 0.2497 0.94061 0.0
C1436 C 0.42278 0.2122 0.98736 0.0
C1437 C 0.42333 0.23835 0.96611 0.0
Gd1438 Gd 0.3096 0.29626 0.94935 0.0
Gd1439 Gd 0.35735 0.25329 0.89836 0.0
N1440 N 0.35404 0.20789 0.92174 0.0
C1441 C 0.35333 0.15444 0.9539 0.0
C1442 C 0.33911 0.19362 0.9068 0.0
C1443 C 0.33813 0.16691 0.92363 0.0
H1444 H 0.32802 0.2025 0.88138 0.0
H1445 H 0.32586 0.15589 0.91263 0.0
H1446 H 0.35072 0.34048 0.92057 0.0
H1447 H 0.40673 0.26948 0.92245 0.0
H1448 H 0.3567 0.38137 0.86744 0.0
H1449 H 0.35266 0.13369 0.9665 0.0
H1450 H 0.38679 0.13585 1.00662 0.0
H1451 H 0.25915 0.27932 0.93432 0.0
H1452 H 0.4364 0.20342 1.007 0.0
H1453 H 0.4373 0.24972 0.96898 0.0
H1454 H 0.28845 0.40115 0.7964 0.0
H1455 H 0.41732 0.16113 0.02116 0.0
H1456 H 0.23039 0.34092 0.8381 0.0
H1457 H 0.22746 0.29806 0.88983 0.0
N1458 N 0.27941 0.31121 0.90743 0.0
C1459 C 0.28146 0.33491 0.87967 0.0
C1460 C 0.26042 0.29797 0.91156 0.0
C1461 C 0.24423 0.33285 0.85766 0.0
C1462 C 0.24252 0.30858 0.88667 0.0
C1463 C 0.26387 0.34626 0.8537 0.0
H1464 H 0.25326 0.37923 0.80354 0.0
N1465 N 0.31874 0.3354 0.89987 0.0
C1466 C 0.30168 0.3471 0.87528 0.0
C1467 C 0.32446 0.38331 0.84182 0.0
C1468 C 0.30427 0.37123 0.84524 0.0
C1469 C 0.33799 0.34793 0.89836 0.0
C1470 C 0.34128 0.37173 0.8688 0.0
O1471 O 0.35447 0.243 0.97365 0.0
O1472 O 0.32053 0.2592 0.99628 0.0
O1473 O 0.30721 0.32296 0.99376 0.0
O1474 O 0.28045 0.29783 0.99286 0.0
O1475 O 0.3224 0.24295 0.90004 0.0
O1476 O 0.30172 0.2545 0.95836 0.0
O1477 O 0.30561 0.29091 0.87897 0.0
O1478 O 0.34192 0.29079 0.85786 0.0
O1479 O 0.35502 0.24871 0.83136 0.0
O1480 O 0.38721 0.24927 0.85754 0.0
O1481 O 0.34393 0.29769 0.97045 0.0
O1482 O 0.36793 0.29026 0.91361 0.0
C1483 C 0.33817 0.24371 1.0032 0.0
C1484 C 0.30569 0.23982 0.92942 0.0
C1485 C 0.28939 0.30467 0.06204 0.0
C1486 C 0.28736 0.31306 0.13649 0.0
C1487 C 0.29758 0.27018 0.12575 0.0
C1488 C 0.29505 0.27874 0.08027 0.0
C1489 C 0.29376 0.28719 0.1538 0.0
C1490 C 0.28531 0.32187 0.09032 0.0
C1491 C 0.28888 0.31365 0.01352 0.0
C1492 C 0.28667 0.38266 0.81967 0.0
C1493 C 0.26657 0.37023 0.82386 0.0
H1494 H 0.32707 0.40184 0.81912 0.0
C1495 C 0.32108 0.29318 0.84702 0.0
C1496 C 0.36393 0.29565 0.953 0.0
C1497 C 0.3819 0.22206 0.80773 0.0
C1498 C 0.37725 0.20079 0.74756 0.0
C1499 C 0.3919 0.17647 0.81622 0.0
C1500 C 0.39023 0.19877 0.83363 0.0
C1501 C 0.38516 0.17735 0.77329 0.0
C1502 C 0.37577 0.22293 0.76479 0.0
C1503 C 0.3761 0.2449 0.82541 0.0
H1504 H 0.30216 0.25027 0.13952 0.0
H1505 H 0.29731 0.26507 0.05935 0.0
H1506 H 0.2949 0.27983 0.18934 0.0
H1507 H 0.28046 0.34184 0.07665 0.0
H1508 H 0.39812 0.15845 0.83618 0.0
H1509 H 0.39498 0.19767 0.86723 0.0
H1510 H 0.38623 0.16001 0.7601 0.0
H1511 H 0.36882 0.24078 0.74523 0.0
C1512 C 0.97135 0.12932 0.9937 0.0
C1513 C 0.94776 0.16772 0.97923 0.0
C1514 C 0.95079 0.14097 0.99707 0.0
C1515 C 0.96569 0.18243 0.95855 0.0
C1516 C 0.98948 0.14396 0.97305 0.0
C1517 C 0.98651 0.17058 0.95547 0.0
N1518 N 0.97366 0.10361 1.01062 0.0
C1519 C 0.99375 0.09136 1.00971 0.0
C1520 C 0.01006 0.1314 0.97084 0.0
C1521 C 0.01222 0.10496 0.98949 0.0
Gd1522 Gd 0.89833 0.03251 1.00329 0.0
Gd1523 Gd 0.94272 0.08227 0.04734 0.0
N1524 N 0.9337 0.12616 0.01698 0.0
C1525 C 0.92675 0.17889 0.98243 0.0
C1526 C 0.91304 0.13694 0.0179 0.0
C1527 C 0.90932 0.16339 1.00179 0.0
H1528 H 0.89915 0.12552 0.0302 0.0
H1529 H 0.8929 0.17163 1.00426 0.0
H1530 H 0.91031 0.97203 0.05717 0.0
H1531 H 0.9956 0.07118 0.02519 0.0
H1532 H 0.89083 0.93529 0.10579 0.0
H1533 H 0.92383 0.19934 0.96953 0.0
H1534 H 0.96359 0.20298 0.94466 0.0
H1535 H 0.8599 0.07084 0.94491 0.0
H1536 H 0.02436 0.14195 0.9552 0.0
H1537 H 0.02811 0.0951 0.9886 0.0
H1538 H 0.81485 0.96364 0.10277 0.0
H1539 H 0.00019 0.18215 0.93939 0.0
H1540 H 0.79674 0.04315 1.00053 0.0
H1541 H 0.81906 0.0751 0.94685 0.0
N1542 N 0.86016 0.03723 0.99728 0.0
C1543 C 0.84819 0.0187 0.02544 0.0
C1544 C 0.85009 0.05672 0.9679 0.0
C1545 C 0.81453 0.04116 0.99969 0.0
C1546 C 0.82709 0.05922 0.9692 0.0
C1547 C 0.82503 0.02028 0.02769 0.0
H1548 H 0.79534 0.00171 0.05941 0.0
N1549 N 0.88137 0.99576 0.04556 0.0
C1550 C 0.85915 -0.00267 0.05035 0.0
C1551 C 0.85895 0.95457 0.09853 0.0
C1552 C 0.8473 0.97687 0.0775 0.0
C1553 C 0.89272 0.97352 0.06344 0.0
C1554 C 0.88173 0.9527 0.09075 0.0
O1555 O 0.94708 0.07556 0.97893 0.0
O1556 O 0.91099 0.07101 0.96063 0.0
O1557 O 0.91863 0.02704 0.94482 0.0
O1558 O 0.89054 0.00354 0.96704 0.0
O1559 O 0.90806 0.07658 0.03843 0.0
O1560 O 0.87644 0.06235 0.0322 0.0
O1561 O 0.90879 0.02137 0.07492 0.0
O1562 O 0.92029 0.05737 0.09983 0.0
O1563 O 0.9506 0.09979 0.10149 0.0
O1564 O 0.96635 0.06305 0.09377 0.0
O1565 O 0.92907 0.01619 0.03774 0.0
O1566 O 0.95476 0.04818 0.01878 0.0
C1567 C 0.93205 0.07608 0.94956 0.0
C1568 C 0.88724 0.07809 0.04951 0.0
C1569 C 0.90261 0.00808 0.89158 0.0
C1570 C 0.90872 0.98945 0.8254 0.0
C1571 C 0.88189 0.02482 0.82614 0.0
C1572 C 0.88679 0.02536 0.86951 0.0
C1573 C 0.8928 0.00718 0.80419 0.0
C1574 C 0.91349 0.98986 0.86963 0.0
C1575 C 0.90706 0.00834 0.93805 0.0
C1576 C 0.82426 0.97898 0.08156 0.0
C1577 C 0.81315 0.00066 0.05679 0.0
H1578 H 0.85045 0.93841 0.11964 0.0
C1579 C 0.91123 0.03442 0.10634 0.0
C1580 C 0.94945 0.02403 0.03527 0.0
C1581 C 0.96156 0.07032 0.16696 0.0
C1582 C 0.96476 0.07841 0.24121 0.0
C1583 C 0.96007 0.03466 0.23173 0.0
C1584 C 0.95961 0.04379 0.18572 0.0
C1585 C 0.96263 0.05177 0.25937 0.0
C1586 C 0.96373 0.08753 0.19486 0.0
C1587 C 0.96358 0.08019 0.11843 0.0
H1588 H 0.86956 0.03816 0.80939 0.0
H1589 H 0.87813 0.03917 0.886 0.0
H1590 H 0.88866 0.00725 0.77047 0.0
H1591 H 0.92569 0.97635 0.88661 0.0
H1592 H 0.95894 0.01415 0.24593 0.0
H1593 H 0.95807 0.03003 0.16494 0.0
H1594 H 0.96381 0.04394 0.29475 0.0
H1595 H 0.96528 0.10799 0.18015 0.0
C1596 C 0.15201 0.75228 0.3138 0.0
C1597 C 0.11368 0.74338 0.30836 0.0
C1598 C 0.13542 0.73445 0.31839 0.0
C1599 C 0.10894 0.76996 0.29435 0.0
C1600 C 0.14721 0.77905 0.29929 0.0
C1601 C 0.12565 0.78772 0.28955 0.0
N1602 N 0.17278 0.74368 0.32371 0.0
C1603 C 0.18931 0.76062 0.32109 0.0
C1604 C 0.16419 0.79648 0.29549 0.0
C1605 C 0.18529 0.78724 0.30681 0.0
Gd1606 Gd 0.21345 0.63884 0.29126 0.0
Gd1607 Gd 0.17818 0.69911 0.3486 0.0
N1608 N 0.1404 0.70865 0.33218 0.0
C1609 C 0.09719 0.72543 0.31236 0.0
C1610 C 0.12409 0.69113 0.33447 0.0
C1611 C 0.10247 0.69924 0.3252 0.0
H1612 H 0.12685 0.67058 0.34351 0.0
H1613 H 0.08985 0.68513 0.32781 0.0
H1614 H 0.26719 0.64974 0.28017 0.0
H1615 H 0.20544 0.75361 0.33155 0.0
H1616 H 0.30207 0.62596 0.30215 0.0
H1617 H 0.08037 0.73159 0.30505 0.0
H1618 H 0.09232 0.77697 0.28716 0.0
H1619 H 0.17488 0.59411 0.30215 0.0
H1620 H 0.16111 0.81713 0.28454 0.0
H1621 H 0.19828 0.80072 0.30518 0.0
H1622 H 0.27942 0.54008 0.37228 0.0
H1623 H 0.12168 0.80818 0.27853 0.0
H1624 H 0.20308 0.52151 0.36893 0.0
H1625 H 0.17111 0.54738 0.33612 0.0
N1626 N 0.20846 0.59432 0.31694 0.0
C1627 C 0.22651 0.58021 0.33304 0.0
C1628 C 0.18893 0.58275 0.31631 0.0
C1629 C 0.20493 0.54181 0.35389 0.0
C1630 C 0.18677 0.55641 0.33545 0.0
C1631 C 0.22528 0.5535 0.35183 0.0
H1632 H 0.24379 0.51886 0.38212 0.0
N1633 N 0.24725 0.61782 0.30918 0.0
C1634 C 0.24656 0.59227 0.32862 0.0
C1635 C 0.28611 0.59035 0.33268 0.0
C1636 C 0.26597 0.57787 0.34153 0.0
C1637 C 0.26685 0.62977 0.29805 0.0
C1638 C 0.28656 0.61633 0.31022 0.0
O1639 O 0.18183 0.70664 0.27515 0.0
O1640 O 0.18317 0.66384 0.27161 0.0
O1641 O 0.22873 0.65475 0.2255 0.0
O1642 O 0.21039 0.61988 0.23603 0.0
O1643 O 0.16326 0.66242 0.34223 0.0
O1644 O 0.18587 0.62632 0.35035 0.0
O1645 O 0.23131 0.64174 0.35106 0.0
O1646 O 0.2039 0.66898 0.34865 0.0
O1647 O 0.17912 0.68019 0.41867 0.0
O1648 O 0.18196 0.72149 0.39852 0.0
O1649 O 0.23128 0.67775 0.28214 0.0
O1650 O 0.21171 0.70944 0.31492 0.0
C1651 C 0.18399 0.68856 0.25206 0.0
C1652 C 0.16865 0.63937 0.36514 0.0
C1653 C 0.24262 0.62307 0.18675 0.0
C1654 C 0.27057 0.62356 0.12493 0.0
C1655 C 0.26902 0.5872 0.1892 0.0
C1656 C 0.25133 0.59895 0.20846 0.0
C1657 C 0.27841 0.59918 0.14789 0.0
C1658 C 0.25235 0.63544 0.14464 0.0
C1659 C 0.2239 0.63528 0.20898 0.0
C1660 C 0.26472 0.55143 0.3616 0.0
C1661 C 0.24441 0.53932 0.36705 0.0
H1662 H 0.30141 0.57994 0.34196 0.0
C1663 C 0.22094 0.6583 0.37026 0.0
C1664 C 0.2287 0.70113 0.29186 0.0
C1665 C 0.16271 0.70514 0.46582 0.0
C1666 C 0.15287 0.70512 0.54273 0.0
C1667 C 0.12476 0.71322 0.48846 0.0
C1668 C 0.14071 0.71084 0.45514 0.0
C1669 C 0.13079 0.71028 0.53224 0.0
C1670 C 0.16886 0.70254 0.50954 0.0
C1671 C 0.17934 0.70179 0.43163 0.0
H1672 H 0.27541 0.5685 0.20627 0.0
H1673 H 0.24432 0.58891 0.24034 0.0
H1674 H 0.29172 0.58896 0.13357 0.0
H1675 H 0.24595 0.6542 0.12775 0.0
H1676 H 0.10777 0.71742 0.48035 0.0
H1677 H 0.13588 0.71323 0.42121 0.0
H1678 H 0.11832 0.71245 0.55787 0.0
H1679 H 0.18593 0.69858 0.5177 0.0
C1680 C 0.56137 0.13639 0.13651 0.0
C1681 C 0.52489 0.15217 0.11378 0.0
C1682 C 0.53954 0.13161 0.1311 0.0
C1683 C 0.53264 0.17746 0.10072 0.0
C1684 C 0.56912 0.16179 0.12421 0.0
C1685 C 0.5547 0.18225 0.10583 0.0
N1686 N 0.57483 0.11631 0.15507 0.0
C1687 C 0.59604 0.12013 0.16319 0.0
C1688 C 0.59106 0.16588 0.13135 0.0
C1689 C 0.60455 0.14497 0.15107 0.0
Gd1690 Gd 0.5909 0.01444 0.11969 0.0
Gd1691 Gd 0.55915 0.07572 0.17194 0.0
N1692 N 0.53246 0.10702 0.14428 0.0
C1693 C 0.50279 0.14672 0.11083 0.0
C1694 C 0.51087 0.10163 0.14276 0.0
C1695 C 0.49573 0.12137 0.12568 0.0
H1696 H 0.50529 0.08215 0.15488 0.0
H1697 H 0.47863 0.11704 0.12419 0.0
H1698 H 0.63991 0.03876 0.07423 0.0
H1699 H 0.60638 0.10386 0.17836 0.0
H1700 H 0.67916 0.02963 0.08707 0.0
H1701 H 0.491 0.16199 0.09779 0.0
H1702 H 0.52165 0.19349 0.08713 0.0
H1703 H 0.56426 0.96092 0.17902 0.0
H1704 H 0.59767 0.18511 0.12221 0.0
H1705 H 0.62147 0.14801 0.15696 0.0
H1706 H 0.68041 0.95084 0.19795 0.0
H1707 H 0.56036 0.2019 0.09602 0.0
H1708 H 0.61294 0.90774 0.24235 0.0
H1709 H 0.57418 0.91878 0.22533 0.0
N1710 N 0.59722 0.97403 0.16767 0.0
C1711 C 0.61873 0.96842 0.17668 0.0
C1712 C 0.58132 0.95646 0.18479 0.0
C1713 C 0.60873 0.9264 0.22146 0.0
C1714 C 0.58685 0.93248 0.21174 0.0
C1715 C 0.62496 0.94434 0.20396 0.0
H1716 H 0.65216 0.92021 0.23329 0.0
N1717 N 0.62891 0.00858 0.12821 0.0
C1718 C 0.63485 0.98612 0.15686 0.0
C1719 C 0.67328 0.99601 0.13966 0.0
C1720 C 0.6573 0.9795 0.16364 0.0
C1721 C 0.64455 0.02307 0.10121 0.0
C1722 C 0.66688 0.01758 0.10762 0.0
O1723 O 0.54421 0.07086 0.1061 0.0
O1724 O 0.56332 0.03778 0.07631 0.0
O1725 O 0.59801 0.01747 0.04935 0.0
O1726 O 0.58671 0.98102 0.09145 0.0
O1727 O 0.53325 0.04634 0.17782 0.0
O1728 O 0.56244 0.02969 0.15372 0.0
O1729 O 0.58396 0.00748 0.19364 0.0
O1730 O 0.58823 0.04912 0.20284 0.0
O1731 O 0.54498 0.05781 0.23829 0.0
O1732 O 0.55553 0.09723 0.22457 0.0
O1733 O 0.60849 0.05027 0.11902 0.0
O1734 O 0.58442 0.08516 0.11138 0.0
C1735 C 0.54792 0.05691 0.07459 0.0
C1736 C 0.54187 0.0261 0.16638 0.0
C1737 C 0.61437 0.97898 0.03596 0.0
C1738 C 0.63855 0.97461 0.97301 0.0
C1739 C 0.64432 0.94671 0.04504 0.0
C1740 C 0.62629 0.95879 0.06316 0.0
C1741 C 0.65034 0.9544 0.99975 0.0
C1742 C 0.62076 0.98692 0.99119 0.0
C1743 C 0.59562 0.99262 0.05316 0.0
C1744 C 0.66327 0.95603 0.19224 0.0
C1745 C 0.64718 0.93853 0.21225 0.0
H1746 H 0.69064 0.99153 0.14398 0.0
C1747 C 0.58752 0.02358 0.21946 0.0
C1748 C 0.60157 0.07265 0.09649 0.0
C1749 C 0.52499 0.08672 0.2772 0.0
C1750 C 0.49989 0.08332 0.34439 0.0
C1751 C 0.49225 0.11475 0.27596 0.0
C1752 C 0.51125 0.10674 0.25479 0.0
C1753 C 0.48661 0.10321 0.32012 0.0
C1754 C 0.51931 0.07511 0.32264 0.0
C1755 C 0.54543 0.07893 0.2533 0.0
H1756 H 0.65339 0.93111 0.06592 0.0
H1757 H 0.62163 0.95212 0.09807 0.0
H1758 H 0.66391 0.94452 0.98548 0.0
H1759 H 0.61139 0.00224 0.97004 0.0
H1760 H 0.48192 0.13026 0.25812 0.0
H1761 H 0.51537 0.11669 0.22096 0.0
H1762 H 0.47188 0.11026 0.3357 0.0
H1763 H 0.52981 0.05984 0.34072 0.0
C1764 C 0.13486 0.28041 0.4154 0.0
C1765 C 0.09937 0.30274 0.4101 0.0
C1766 C 0.12249 0.30302 0.40263 0.0
C1767 C 0.08921 0.27974 0.43202 0.0
C1768 C 0.12465 0.25696 0.43548 0.0
C1769 C 0.10182 0.25688 0.44461 0.0
N1770 N 0.15681 0.28099 0.40595 0.0
C1771 C 0.1694 0.25883 0.41286 0.0
C1772 C 0.13766 0.23418 0.44461 0.0
C1773 C 0.16012 0.23507 0.43256 0.0
Gd1774 Gd 0.21469 0.36536 0.42584 0.0
Gd1775 Gd 0.17204 0.32109 0.37625 0.0
N1776 N 0.13287 0.32485 0.38085 0.0
C1777 C 0.08705 0.32536 0.39426 0.0
C1778 C 0.12057 0.3466 0.36358 0.0
C1779 C 0.0977 0.34727 0.37038 0.0
H1780 H 0.12794 0.36385 0.34476 0.0
H1781 H 0.08827 0.36474 0.35703 0.0
H1782 H 0.26528 0.33936 0.41734 0.0
H1783 H 0.18654 0.25956 0.40251 0.0
H1784 H 0.30236 0.3533 0.38738 0.0
H1785 H 0.0693 0.32594 0.3993 0.0
H1786 H 0.07152 0.27929 0.43836 0.0
H1787 H 0.18501 0.41925 0.43004 0.0
H1788 H 0.13043 0.21577 0.45981 0.0
H1789 H 0.17027 0.21752 0.43824 0.0
H1790 H 0.29389 0.44552 0.33747 0.0
H1791 H 0.09369 0.23914 0.46045 0.0
H1792 H 0.22354 0.48427 0.36556 0.0
H1793 H 0.18858 0.46675 0.40339 0.0
N1794 N 0.21726 0.41059 0.40637 0.0
C1795 C 0.23677 0.41997 0.38721 0.0
C1796 C 0.20028 0.42699 0.41373 0.0
C1797 C 0.222 0.46364 0.3774 0.0
C1798 C 0.20226 0.45376 0.39869 0.0
C1799 C 0.23973 0.44676 0.37228 0.0
H1800 H 0.26287 0.47636 0.34163 0.0
N1801 N 0.25069 0.3772 0.40027 0.0
C1802 C 0.25409 0.40271 0.38426 0.0
C1803 C 0.29249 0.39354 0.36763 0.0
C1804 C 0.27504 0.41163 0.36713 0.0
C1805 C 0.26781 0.35954 0.40253 0.0
C1806 C 0.28889 0.36739 0.3859 0.0
O1807 O 0.17484 0.31424 0.44981 0.0
O1808 O 0.17984 0.35616 0.45386 0.0
O1809 O 0.22489 0.3388 0.4875 0.0
O1810 O 0.22184 0.3793 0.48509 0.0
O1811 O 0.16162 0.36215 0.37843 0.0
O1812 O 0.19097 0.38855 0.37097 0.0
O1813 O 0.22756 0.35232 0.36424 0.0
O1814 O 0.1951 0.34928 0.33045 0.0
O1815 O 0.16162 0.31057 0.31644 0.0
O1816 O 0.19604 0.30531 0.33487 0.0
O1817 O 0.22735 0.3268 0.41132 0.0
O1818 O 0.19654 0.30273 0.42668 0.0
C1819 C 0.17373 0.33249 0.47254 0.0
C1820 C 0.1714 0.38333 0.3576 0.0
C1821 C 0.24901 0.35572 0.53326 0.0
C1822 C 0.2717 0.34338 0.60072 0.0
C1823 C 0.28628 0.37086 0.53122 0.0
C1824 C 0.26681 0.36977 0.51056 0.0
C1825 C 0.28862 0.35825 0.57543 0.0
C1826 C 0.25151 0.3424 0.57901 0.0
C1827 C 0.22791 0.35682 0.50897 0.0
C1828 C 0.27797 0.43827 0.35109 0.0
C1829 C 0.26031 0.45582 0.3535 0.0
H1830 H 0.30885 0.3996 0.35491 0.0
C1831 C 0.21652 0.35247 0.32873 0.0
C1832 C 0.2178 0.30433 0.41896 0.0
C1833 C 0.18624 0.28604 0.27718 0.0
C1834 C 0.19183 0.27992 0.20122 0.0
C1835 C 0.19326 0.24305 0.26529 0.0
C1836 C 0.1892 0.25954 0.29438 0.0
C1837 C 0.19408 0.25294 0.21925 0.0
C1838 C 0.18839 0.29617 0.2314 0.0
C1839 C 0.18189 0.30439 0.30537 0.0
H1840 H 0.29961 0.38219 0.51298 0.0
H1841 H 0.2655 0.3808 0.47685 0.0
H1842 H 0.30381 0.36097 0.59001 0.0
H1843 H 0.23793 0.33156 0.59731 0.0
H1844 H 0.19528 0.22243 0.27837 0.0
H1845 H 0.18832 0.25161 0.32987 0.0
H1846 H 0.19587 0.23893 0.19866 0.0
H1847 H 0.1872 0.31693 0.22017 0.0
C1848 C 0.00933 0.81878 0.59423 0.0
C1849 C 0.0478 0.82724 0.57228 0.0
C1850 C 0.02692 0.83532 0.58733 0.0
C1851 C 0.0508 0.80226 0.56425 0.0
C1852 C 0.01247 0.79344 0.58726 0.0
C1853 C 0.0332 0.78538 0.57186 0.0
N1854 N 0.98937 0.82718 0.60882 0.0
C1855 C 0.97243 0.81056 0.62027 0.0
C1856 C 0.99475 0.7768 0.59659 0.0
C1857 C 0.97472 0.78531 0.61365 0.0
Gd1858 Gd 0.95426 0.92543 0.52672 0.0
Gd1859 Gd 0.98721 0.87033 0.61697 0.0
N1860 N 0.02346 0.85957 0.59472 0.0
C1861 C 0.06509 0.84449 0.56582 0.0
C1862 C 0.04056 0.87596 0.59072 0.0
C1863 C 0.06148 0.86886 0.57545 0.0
H1864 H 0.03817 0.89467 0.5987 0.0
H1865 H 0.07483 0.88217 0.57127 0.0
H1866 H 0.91152 0.88417 0.54342 0.0
H1867 H 0.95719 0.81664 0.63512 0.0
H1868 H 0.87656 0.87813 0.58738 0.0
H1869 H 0.08133 0.83905 0.55401 0.0
H1870 H 0.0667 0.79574 0.55255 0.0
H1871 H 0.96796 0.98652 0.51908 0.0
H1872 H 0.99649 0.7572 0.59169 0.0
H1873 H 0.96111 0.77235 0.62211 0.0
H1874 H 0.86525 0.95667 0.63866 0.0
H1875 H 0.03586 0.76604 0.56609 0.0
H1876 H 0.91779 0.023 0.58908 0.0
H1877 H 0.953 0.02521 0.5443 0.0
N1878 N 0.94163 0.96281 0.54972 0.0
C1879 C 0.92187 0.96137 0.57284 0.0
C1880 C 0.95265 0.98542 0.53877 0.0
C1881 C 0.92427 0.00602 0.57801 0.0
C1882 C 0.94419 0.00734 0.55284 0.0
C1883 C 0.91279 0.98292 0.58813 0.0
H1884 H 0.88538 -0.00288 0.62492 0.0
N1885 N 0.91946 0.9181 0.56428 0.0
C1886 C 0.91068 0.93828 0.58104 0.0
C1887 C 0.87803 0.91409 0.60828 0.0
C1888 C 0.88988 0.9366 0.60409 0.0
C1889 C 0.90673 0.89763 0.56373 0.0
C1890 C 0.88627 0.89479 0.58706 0.0
O1891 O 0.00156 0.87477 0.54614 0.0
O1892 O 0.98193 0.90557 0.49566 0.0
O1893 O 0.93198 0.93 0.47301 0.0
O1894 O 0.95795 0.95708 0.46928 0.0
O1895 O 0.00025 0.91011 0.59832 0.0
O1896 O 0.98971 0.93523 0.53014 0.0
O1897 O 0.96066 0.93323 0.59315 0.0
O1898 O 0.95757 0.89337 0.63963 0.0
O1899 O 0.00147 0.88021 0.6735 0.0
O1900 O 0.98711 0.84269 0.68036 0.0
O1901 O 0.95189 0.88341 0.52564 0.0
O1902 O 0.95319 0.86355 0.59912 0.0
C1903 C 0.99784 0.88822 0.50592 0.0
C1904 C 0.00269 0.9299 0.56408 0.0
C1905 C 0.95016 0.94506 0.40384 0.0
C1906 C 0.94202 0.9479 0.32724 0.0
C1907 C 0.97794 0.93201 0.35272 0.0
C1908 C 0.9715 0.93557 0.39509 0.0
C1909 C 0.96333 0.93836 0.31873 0.0
C1910 C 0.93544 0.95107 0.36996 0.0
C1911 C 0.94306 0.94878 0.44802 0.0
C1912 C 0.88112 0.95775 0.62061 0.0
C1913 C 0.89253 0.98084 0.61262 0.0
H1914 H 0.86199 0.91206 0.62569 0.0
C1915 C 0.95687 0.91888 0.6331 0.0
C1916 C 0.94953 0.86284 0.55801 0.0
C1917 C 0.01611 0.84559 0.72628 0.0
C1918 C 0.03495 0.8407 0.79491 0.0
C1919 C 0.04767 0.81602 0.74042 0.0
C1920 C 0.0309 0.82744 0.71281 0.0
C1921 C 0.04969 0.82257 0.78149 0.0
C1922 C 0.0183 0.85227 0.76714 0.0
C1923 C 0.99794 0.85758 0.69927 0.0
H1924 H 0.99446 0.92508 0.34587 0.0
H1925 H 0.98341 0.93157 0.4204 0.0
H1926 H 0.96897 0.9369 0.28536 0.0
H1927 H 0.91907 0.9587 0.37657 0.0
H1928 H 0.059 0.80191 0.73017 0.0
H1929 H 0.02938 0.82193 0.68142 0.0
H1930 H 0.06257 0.8134 0.80287 0.0
H1931 H 0.00684 0.86624 0.77768 0.0
C1932 C 0.39192 0.71966 0.75561 0.0
C1933 C 0.38721 0.76643 0.73328 0.0
C1934 C 0.37902 0.74203 0.75472 0.0
C1935 C 0.40809 0.76795 0.71114 0.0
C1936 C 0.41334 0.72133 0.73519 0.0
C1937 C 0.42111 0.74547 0.7121 0.0
N1938 N 0.38413 0.69655 0.77873 0.0
C1939 C 0.39748 0.67487 0.78558 0.0
C1940 C 0.4266 0.6988 0.73979 0.0
C1941 C 0.41876 0.67556 0.76568 0.0
Gd1942 Gd 0.29241 0.67383 0.76589 0.0
Gd1943 Gd 0.3479 0.69751 0.80917 0.0
N1944 N 0.35887 0.74002 0.77659 0.0
C1945 C 0.37447 0.78867 0.7358 0.0
C1946 C 0.34711 0.76183 0.78176 0.0
C1947 C 0.35451 0.78636 0.76078 0.0
H1948 H 0.3321 0.76068 0.80228 0.0
H1949 H 0.34492 0.8035 0.76434 0.0
H1950 H 0.32442 0.61749 0.78896 0.0
H1951 H 0.39168 0.65699 0.80655 0.0
H1952 H 0.32238 0.57518 0.83942 0.0
H1953 H 0.38022 0.80774 0.71985 0.0
H1954 H 0.41454 0.7865 0.69416 0.0
H1955 H 0.24863 0.70751 0.79426 0.0
H1956 H 0.44314 0.69929 0.72465 0.0
H1957 H 0.42913 0.65819 0.77049 0.0
H1958 H 0.25303 0.57737 0.92023 0.0
H1959 H 0.43743 0.74705 0.69587 0.0
H1960 H 0.20951 0.65599 0.89282 0.0
H1961 H 0.21508 0.69936 0.84414 0.0
N1962 N 0.26171 0.66924 0.81514 0.0
C1963 C 0.25903 0.64517 0.84124 0.0
C1964 C 0.24627 0.68859 0.81563 0.0
C1965 C 0.22419 0.65944 0.87093 0.0
C1966 C 0.22728 0.68399 0.84361 0.0
C1967 C 0.24019 0.63973 0.87023 0.0
H1968 H 0.22373 0.61056 0.92071 0.0
N1969 N 0.29416 0.63224 0.81312 0.0
C1970 C 0.27579 0.62635 0.84076 0.0
C1971 C 0.29083 0.58333 0.86932 0.0
C1972 C 0.27375 0.60174 0.86961 0.0
C1973 C 0.3105 0.61394 0.81195 0.0
C1974 C 0.30924 0.58946 0.84035 0.0
O1975 O 0.34058 0.71946 0.74015 0.0
O1976 O 0.31201 0.70073 0.71199 0.0
O1977 O 0.27921 0.64885 0.72759 0.0
O1978 O 0.26365 0.68713 0.72783 0.0
O1979 O 0.31604 0.71977 0.81541 0.0
O1980 O 0.29177 0.71645 0.76185 0.0
O1981 O 0.29334 0.67886 0.83549 0.0
O1982 O 0.32809 0.66436 0.85141 0.0
O1983 O 0.34179 0.70801 0.87299 0.0
O1984 O 0.3741 0.69379 0.85545 0.0
O1985 O 0.32353 0.66042 0.73535 0.0
O1986 O 0.35321 0.66146 0.77907 0.0
C1987 C 0.32821 0.717 0.70798 0.0
C1988 C 0.29902 0.72815 0.79122 0.0
C1989 C 0.24657 0.66053 0.68695 0.0
C1990 C 0.2371 0.654 0.61594 0.0
C1991 C 0.20853 0.65489 0.67372 0.0
C1992 C 0.22439 0.65906 0.70197 0.0
C1993 C 0.21484 0.65256 0.63053 0.0
C1994 C 0.253 0.65774 0.64413 0.0
C1995 C 0.26311 0.66533 0.71545 0.0
C1996 C 0.25483 0.59621 0.89802 0.0
C1997 C 0.23811 0.6151 0.89826 0.0
H1998 H 0.2899 0.56426 0.89111 0.0
C1999 C 0.30761 0.66901 0.86488 0.0
C2000 C 0.3442 0.65527 0.74465 0.0
C2001 C 0.37163 0.72552 0.89934 0.0
C2002 C 0.37272 0.75018 0.95713 0.0
C2003 C 0.39365 0.76386 0.88675 0.0
C2004 C 0.38612 0.7429 0.87194 0.0
C2005 C 0.38696 0.76756 0.92904 0.0
C2006 C 0.36505 0.72921 0.94196 0.0
C2007 C 0.36218 0.70429 0.88358 0.0
H2008 H 0.19141 0.65362 0.68517 0.0
H2009 H 0.21941 0.66108 0.73541 0.0
H2010 H 0.20242 0.64976 0.60844 0.0
H2011 H 0.27019 0.65909 0.63246 0.0
H2012 H 0.40474 0.77725 0.86542 0.0
H2013 H 0.39161 0.74036 0.83919 0.0
H2014 H 0.39317 0.78381 0.94005 0.0
H2015 H 0.35363 0.71603 0.96297 0.0
C2016 C 0.36455 0.97036 0.7207 0.0
C2017 C 0.32759 0.98581 0.7024 0.0
C2018 C 0.35059 0.98772 0.69401 0.0
C2019 C 0.31911 0.96793 0.73979 0.0
C2020 C 0.35604 0.95117 0.75639 0.0
C2021 C 0.33331 0.95067 0.76677 0.0
N2022 N 0.38628 0.97039 0.70879 0.0
C2023 C 0.40019 0.95088 0.72838 0.0
C2024 C 0.37048 0.9321 0.77892 0.0
C2025 C 0.3926 0.93165 0.76423 0.0
Gd2026 Gd 0.4267 0.06671 0.67609 0.0
Gd2027 Gd 0.39843 0.0028 0.64938 0.0
N2028 N 0.35931 0.00398 0.65681 0.0
C2029 C 0.31372 0.00049 0.67125 0.0
C2030 C 0.34567 0.01595 0.62418 0.0
C2031 C 0.32281 0.01509 0.63147 0.0
H2032 H 0.35206 0.02546 0.59164 0.0
H2033 H 0.31221 0.02508 0.60575 0.0
H2034 H 0.47883 0.07317 0.6374 0.0
H2035 H 0.41726 0.95045 0.71673 0.0
H2036 H 0.50207 0.10722 0.59052 0.0
H2037 H 0.296 -0.00063 0.67628 0.0
H2038 H 0.30151 0.96641 0.74685 0.0
H2039 H 0.38006 0.09624 0.7044 0.0
H2040 H 0.36456 0.91705 0.80648 0.0
H2041 H 0.40378 0.91657 0.78048 0.0
H2042 H 0.45292 0.18163 0.55723 0.0
H2043 H 0.32648 0.93622 0.79427 0.0
H2044 H 0.37996 0.17323 0.62362 0.0
H2045 H 0.36088 0.13859 0.67897 0.0
N2046 N 0.40899 0.10733 0.66382 0.0
C2047 C 0.41996 0.12658 0.6353 0.0
C2048 C 0.38847 0.11168 0.6814 0.0
C2049 C 0.38834 0.15511 0.63597 0.0
C2050 C 0.37761 0.13554 0.66695 0.0
C2051 C 0.40999 0.15113 0.62093 0.0
H2052 H 0.41434 0.18984 0.58043 0.0
N2053 N 0.45024 0.09765 0.63448 0.0
C2054 C 0.44134 0.1217 0.62071 0.0
C2055 C 0.4758 0.13618 0.5822 0.0
C2056 C 0.45374 0.14158 0.59341 0.0
C2057 C 0.47184 0.09231 0.62485 0.0
C2058 C 0.48497 0.1115 0.59847 0.0
O2059 O 0.40396 0.00621 0.71925 0.0
O2060 O 0.39696 0.04878 0.71789 0.0
O2061 O 0.43753 0.04805 0.74327 0.0
O2062 O 0.44694 0.08665 0.71356 0.0
O2063 O 0.38461 0.04053 0.61027 0.0
O2064 O 0.39786 0.07793 0.62697 0.0
O2065 O 0.44204 0.05429 0.61385 0.0
O2066 O 0.4162 0.02936 0.59011 0.0
O2067 O 0.41986 0.98267 0.60798 0.0
O2068 O 0.38769 0.96853 0.63155 0.0
O2069 O 0.44765 0.03354 0.66379 0.0
O2070 O 0.42701 -0.00166 0.69353 0.0
C2071 C 0.39745 0.02447 0.73998 0.0
C2072 C 0.38516 0.06591 0.60419 0.0
C2073 C 0.44913 0.07396 0.79322 0.0
C2074 C 0.46701 0.0748 0.86456 0.0
C2075 C 0.43185 0.09781 0.84521 0.0
C2076 C 0.43181 0.08943 0.80559 0.0
C2077 C 0.44914 0.09107 0.87365 0.0
C2078 C 0.46686 0.06652 0.823 0.0
C2079 C 0.44893 0.06744 0.74793 0.0
C2080 C 0.44378 0.16614 0.57869 0.0
C2081 C 0.42185 0.17082 0.592 0.0
H2082 H 0.48594 0.15098 0.56152 0.0
C2083 C 0.43349 0.0445 0.58269 0.0
C2084 C 0.44603 0.00896 0.68246 0.0
C2085 C 0.40181 0.95747 0.56707 0.0
C2086 C 0.38795 0.96684 0.4929 0.0
C2087 C 0.39666 0.92246 0.53036 0.0
C2088 C 0.40293 0.93105 0.56713 0.0
C2089 C 0.38927 0.94019 0.49337 0.0
C2090 C 0.39426 0.97544 0.53007 0.0
C2091 C 0.40554 0.96507 0.60847 0.0
H2092 H 0.41844 0.11018 0.85369 0.0
H2093 H 0.41833 0.09558 0.78389 0.0
H2094 H 0.44843 0.0995 0.90252 0.0
H2095 H 0.48033 0.05451 0.81367 0.0
H2096 H 0.39747 0.90201 0.53056 0.0
H2097 H 0.40819 0.91699 0.59611 0.0
H2098 H 0.38497 0.93304 0.4648 0.0
H2099 H 0.39282 0.99581 0.53072 0.0
C2100 C 0.71551 0.65903 0.33774 0.0
C2101 C 0.69085 0.62442 0.37167 0.0
C2102 C 0.69448 0.64879 0.34293 0.0
C2103 C 0.70822 0.61086 0.39547 0.0
C2104 C 0.73297 0.64532 0.36157 0.0
C2105 C 0.72918 0.62126 0.39043 0.0
N2106 N 0.7187 0.68282 0.31082 0.0
C2107 C 0.73888 0.69368 0.30542 0.0
C2108 C 0.75373 0.65632 0.35608 0.0
C2109 C 0.75673 0.68051 0.32767 0.0
Gd2110 Gd 0.64265 0.75095 0.31759 0.0
Gd2111 Gd 0.68806 0.70229 0.27315 0.0
N2112 N 0.67767 0.66258 0.32017 0.0
C2113 C 0.6699 0.61413 0.37541 0.0
C2114 C 0.65769 0.65156 0.32145 0.0
C2115 C 0.65337 0.6276 0.34968 0.0
H2116 H 0.64512 0.66017 0.29981 0.0
H2117 H 0.63736 0.61927 0.35083 0.0
H2118 H 0.67718 0.80262 0.30354 0.0
H2119 H 0.74126 0.71221 0.28294 0.0
H2120 H 0.68004 0.84584 0.25567 0.0
H2121 H 0.66649 0.59548 0.39707 0.0
H2122 H 0.70563 0.5922 0.41777 0.0
H2123 H 0.59328 0.73122 0.3025 0.0
H2124 H 0.76754 0.6463 0.37369 0.0
H2125 H 0.77278 0.68897 0.3229 0.0
H2126 H 0.61508 0.85747 0.17277 0.0
H2127 H 0.74239 0.61053 0.40911 0.0
H2128 H 0.56311 0.78969 0.20324 0.0
H2129 H 0.5619 0.74686 0.25546 0.0
N2130 N 0.61261 0.76373 0.27402 0.0
C2131 C 0.61315 0.78808 0.24786 0.0
C2132 C 0.59422 0.74946 0.27853 0.0
C2133 C 0.57705 0.78271 0.22324 0.0
C2134 C 0.57632 0.75848 0.25254 0.0
C2135 C 0.59545 0.79801 0.2211 0.0
H2136 H 0.58306 0.83083 0.17272 0.0
N2137 N 0.64804 0.79352 0.27547 0.0
C2138 C 0.63135 0.80327 0.24825 0.0
C2139 C 0.65005 0.84372 0.22343 0.0
C2140 C 0.63207 0.82856 0.22136 0.0
C2141 C 0.66497 0.80891 0.27933 0.0
C2142 C 0.66643 0.83393 0.25284 0.0
O2143 O 0.68922 0.70067 0.34709 0.0
O2144 O 0.6637 0.72768 0.37567 0.0
O2145 O 0.62924 0.78167 0.34676 0.0
O2146 O 0.61736 0.7428 0.37174 0.0
O2147 O 0.65367 0.7029 0.25154 0.0
O2148 O 0.63253 0.71176 0.31065 0.0
O2149 O 0.64782 0.75396 0.24267 0.0
O2150 O 0.68431 0.74276 0.23102 0.0
O2151 O 0.68588 0.68056 0.22151 0.0
O2152 O 0.71669 0.69659 0.23108 0.0
O2153 O 0.67689 0.75728 0.32853 0.0
O2154 O 0.69868 0.74263 0.27399 0.0
C2155 C 0.68024 0.70993 0.38058 0.0
C2156 C 0.63446 0.70556 0.27163 0.0
C2157 C 0.61561 0.77215 0.41993 0.0
C2158 C 0.63385 0.78539 0.47849 0.0
C2159 C 0.59395 0.78715 0.47809 0.0
C2160 C 0.59513 0.77781 0.43922 0.0
C2161 C 0.61321 0.79103 0.49753 0.0
C2162 C 0.63506 0.77557 0.4399 0.0
C2163 C 0.61631 0.76686 0.37558 0.0
C2164 C 0.61471 0.83814 0.19375 0.0
C2165 C 0.59646 0.82295 0.1937 0.0
H2166 H 0.65118 0.86321 0.20323 0.0
C2167 C 0.66597 0.75498 0.21719 0.0
C2168 C 0.69548 0.75585 0.30563 0.0
C2169 C 0.709 0.69587 0.15822 0.0
C2170 C 0.71278 0.68953 0.0825 0.0
C2171 C 0.71281 0.73291 0.09614 0.0
C2172 C 0.71058 0.72269 0.14182 0.0
C2173 C 0.71374 0.71648 0.06656 0.0
C2174 C 0.71038 0.67928 0.12855 0.0
C2175 C 0.70604 0.68519 0.20615 0.0
H2176 H 0.57812 0.79161 0.49296 0.0
H2177 H 0.58009 0.7757 0.42349 0.0
H2178 H 0.61204 0.79791 0.52803 0.0
H2179 H 0.65097 0.77143 0.42479 0.0
H2180 H 0.71391 0.7536 0.08366 0.0
H2181 H 0.71002 0.73577 0.16425 0.0
H2182 H 0.71598 0.72476 0.03122 0.0
H2183 H 0.70973 0.65852 0.1412 0.0
C2184 C 0.14574 0.96721 0.20215 0.0
C2185 C 0.15076 0.0092 0.15206 0.0
C2186 C 0.13695 0.99012 0.17751 0.0
C2187 C 0.17361 0.00445 0.15046 0.0
C2188 C 0.16866 0.96251 0.20125 0.0
C2189 C 0.18253 0.98113 0.17487 0.0
N2190 N 0.13186 0.94965 0.22735 0.0
C2191 C 0.13972 0.92724 0.25326 0.0
C2192 C 0.17691 0.93927 0.22702 0.0
C2193 C 0.16239 0.92164 0.2533 0.0
Gd2194 Gd 0.0529 0.90921 0.17932 0.0
Gd2195 Gd 0.0944 0.95943 0.21953 0.0
N2196 N 0.11485 0.99401 0.17945 0.0
C2197 C 0.14117 0.03256 0.12944 0.0
C2198 C 0.10535 0.01692 0.15856 0.0
C2199 C 0.11836 0.03653 0.1331 0.0
H2200 H 0.08771 0.01993 0.16142 0.0
H2201 H 0.11081 0.05462 0.11626 0.0
H2202 H 0.08165 0.86395 0.13775 0.0
H2203 H 0.12846 0.91347 0.27298 0.0
H2204 H 0.08953 0.81656 0.15856 0.0
H2205 H 0.15122 0.04774 0.10959 0.0
H2206 H 0.18452 0.01876 0.13078 0.0
H2207 H 0.00286 0.91864 0.22204 0.0
H2208 H 0.19443 0.93484 0.22709 0.0
H2209 H 0.16865 0.90367 0.27336 0.0
H2210 H 0.03839 0.78695 0.28196 0.0
H2211 H 0.2002 0.9778 0.17352 0.0
H2212 H 0.98141 0.84787 0.30711 0.0
H2213 H 0.97449 0.89408 0.27324 0.0
N2214 N 0.02544 0.88687 0.22736 0.0
C2215 C 0.02901 0.86123 0.24344 0.0
C2216 C 0.00596 0.89861 0.23682 0.0
C2217 C 0.99386 0.8586 0.28472 0.0
C2218 C 0.98992 0.88473 0.26577 0.0
C2219 C 0.01347 0.8464 0.27314 0.0
H2220 H 0.00602 0.80811 0.31204 0.0
N2221 N 0.06014 0.86415 0.19417 0.0
C2222 C 0.04721 0.84948 0.22674 0.0
C2223 C 0.06664 0.81065 0.21555 0.0
C2224 C 0.05033 0.82237 0.23895 0.0
C2225 C 0.07407 0.85249 0.16782 0.0
C2226 C 0.0781 0.8257 0.17893 0.0
O2227 O 0.08335 0.97181 0.14898 0.0
O2228 O 0.07434 0.93438 0.12583 0.0
O2229 O 0.03811 0.89088 0.13192 0.0
O2230 O 0.02875 0.93009 0.13528 0.0
O2231 O 0.06379 0.97695 0.18908 0.0
O2232 O 0.04149 0.94266 0.21079 0.0
O2233 O 0.04993 0.91458 0.2493 0.0
O2234 O 0.08606 0.91987 0.26275 0.0
O2235 O 0.07438 0.96489 0.27855 0.0
O2236 O 0.10204 0.98908 0.25427 0.0
O2237 O 0.08921 0.89697 0.18705 0.0
O2238 O 0.11157 0.93237 0.1786 0.0
C2239 C 0.07966 0.95891 0.11819 0.0
C2240 C 0.04426 0.96722 0.19251 0.0
C2241 C 0.02471 0.91882 0.06624 0.0
C2242 C 0.03243 0.91242 0.99082 0.0
C2243 C 0.00953 0.94897 1.00309 0.0
C2244 C 0.01154 0.94069 0.0488 0.0
C2245 C 0.02002 0.93504 0.97419 0.0
C2246 C 0.03484 0.90424 0.03702 0.0
C2247 C 0.02643 0.91141 0.11504 0.0
C2248 C 0.03601 0.80774 0.27153 0.0
C2249 C 0.01754 0.81976 0.28855 0.0
H2250 H 0.06935 0.78985 0.22336 0.0
C2251 C 0.06593 0.91238 0.27681 0.0
C2252 C 0.10733 0.90943 0.17105 0.0
C2253 C 0.09101 0.98504 0.33027 0.0
C2254 C 0.08584 0.0042 0.3966 0.0
C2255 C 0.11472 0.9713 0.39197 0.0
C2256 C 0.10851 0.96967 0.35001 0.0
C2257 C 0.10364 0.98833 0.41491 0.0
C2258 C 0.0797 0.00255 0.35349 0.0
C2259 C 0.08586 0.98407 0.28422 0.0
H2260 H -0.00031 0.96615 0.99008 0.0
H2261 H 0.00306 0.95171 0.07062 0.0
H2262 H 0.01792 0.94153 0.93873 0.0
H2263 H 0.04439 0.88674 0.04985 0.0
H2264 H 0.12842 0.95947 0.40669 0.0
H2265 H 0.11759 0.95657 0.33258 0.0
H2266 H 0.10941 0.98937 0.44699 0.0
H2267 H 0.06629 0.0147 0.33812 0.0
C2268 C 0.75341 0.4144 0.89458 0.0
C2269 C 0.71629 0.40538 0.87891 0.0
C2270 C 0.7372 0.3968 0.89457 0.0
C2271 C 0.71211 0.43187 0.86208 0.0
C2272 C 0.74883 0.44112 0.87996 0.0
C2273 C 0.72832 0.44971 0.86277 0.0
N2274 N 0.77311 0.40554 0.91144 0.0
C2275 C 0.78811 0.42245 0.91848 0.0
C2276 C 0.76473 0.45847 0.88443 0.0
C2277 C 0.78432 0.44914 0.90435 0.0
Gd2278 Gd 0.82071 0.30706 0.8643 0.0
Gd2279 Gd 0.77789 0.36027 0.93112 0.0
N2280 N 0.74158 0.37139 0.91165 0.0
C2281 C 0.70003 0.38712 0.88163 0.0
C2282 C 0.72546 0.35367 0.91654 0.0
C2283 C 0.70456 0.36119 0.90109 0.0
H2284 H 0.72864 0.33368 0.93246 0.0
H2285 H 0.69196 0.347 0.90439 0.0
H2286 H 0.86659 0.33961 0.86371 0.0
H2287 H 0.80307 0.41538 0.93486 0.0
H2288 H 0.90421 0.32997 0.89041 0.0
H2289 H 0.68378 0.39293 0.86986 0.0
H2290 H 0.69621 0.43881 0.84955 0.0
H2291 H 0.79938 0.25029 0.86357 0.0
H2292 H 0.76166 0.47908 0.87405 0.0
H2293 H 0.79642 0.4625 0.90916 0.0
H2294 H 0.90552 0.23853 0.95013 0.0
H2295 H 0.72464 0.47018 0.85088 0.0
H2296 H 0.84327 0.19094 0.93008 0.0
H2297 H 0.80868 0.20371 0.892 0.0
N2298 N 0.82675 0.26305 0.89107 0.0
C2299 C 0.84689 0.2566 0.90775 0.0
C2300 C 0.81367 0.24463 0.88287 0.0
C2301 C 0.83885 0.21127 0.91906 0.0
C2302 C 0.8192 0.2184 0.89785 0.0
C2303 C 0.85329 0.23043 0.92299 0.0
H2304 H 0.87944 0.20418 0.95069 0.0
N2305 N 0.85658 0.30083 0.88586 0.0
C2306 C 0.86214 0.27598 0.90521 0.0
C2307 C 0.89859 0.28932 0.91542 0.0
C2308 C 0.88345 0.26957 0.92023 0.0
C2309 C 0.87133 0.32009 0.87972 0.0
C2310 C 0.89254 0.31466 0.89481 0.0
O2311 O 0.76836 0.36036 0.86172 0.0
O2312 O 0.79309 0.33293 0.82979 0.0
O2313 O 0.84404 0.31274 0.80695 0.0
O2314 O 0.81133 0.29848 0.80291 0.0
O2315 O 0.76702 0.32222 0.91527 0.0
O2316 O 0.79281 0.28858 0.90782 0.0
O2317 O 0.83018 0.31843 0.92681 0.0
O2318 O 0.79756 0.32546 0.96466 0.0
O2319 O 0.75487 0.34956 0.98856 0.0
O2320 O 0.78422 0.36964 0.99467 0.0
O2321 O 0.81203 0.34432 0.87773 0.0
O2322 O 0.80832 0.38136 0.89201 0.0
C2323 C 0.77642 0.3501 0.82861 0.0
C2324 C 0.77261 0.29822 0.91103 0.0
C2325 C 0.83969 0.28384 0.75977 0.0
C2326 C 0.84348 0.26721 0.69218 0.0
C2327 C 0.85619 0.24122 0.76196 0.0
C2328 C 0.84958 0.26096 0.78346 0.0
C2329 C 0.8532 0.24427 0.71662 0.0
C2330 C 0.83675 0.287 0.71408 0.0
C2331 C 0.83068 0.30356 0.78293 0.0
C2332 C 0.88924 0.24366 0.93825 0.0
C2333 C 0.87432 0.22415 0.93909 0.0
H2334 H 0.91511 0.28511 0.92671 0.0
C2335 C 0.81686 0.31368 0.96277 0.0
C2336 C 0.81911 0.36752 0.86744 0.0
C2337 C 0.75272 0.37477 0.04314 0.0
C2338 C 0.72924 0.37667 0.11069 0.0
C2339 C 0.73803 0.41599 0.05521 0.0
C2340 C 0.75025 0.40168 0.02897 0.0
C2341 C 0.72776 0.40373 0.09558 0.0
C2342 C 0.74215 0.36219 0.08431 0.0
C2343 C 0.76588 0.35987 0.01463 0.0
H2344 H 0.86377 0.22356 0.78041 0.0
H2345 H 0.85212 0.25827 0.81851 0.0
H2346 H 0.85901 0.2289 0.70047 0.0
H2347 H 0.82895 0.30463 0.69584 0.0
H2348 H 0.73647 0.43681 0.04416 0.0
H2349 H 0.75787 0.41171 0.99761 0.0
H2350 H 0.71862 0.4156 0.11523 0.0
H2351 H 0.74366 0.34133 0.09521 0.0
C2352 C 0.38019 0.02044 0.03042 0.0
C2353 C 0.34116 0.01288 0.04688 0.0
C2354 C 0.36334 0.0052 0.05432 0.0
C2355 C 0.33613 0.03435 0.01278 0.0
C2356 C 0.37503 0.04279 0.99772 0.0
C2357 C 0.353 0.04922 0.98827 0.0
N2358 N 0.40148 0.01426 0.04065 0.0
C2359 C 0.41825 0.02956 0.01975 0.0
C2360 C 0.39214 0.05843 0.97607 0.0
C2361 C 0.41379 0.05184 0.98728 0.0
Gd2362 Gd 0.43929 0.91383 0.05035 0.0
Gd2363 Gd 0.40598 0.97658 0.09618 0.0
N2364 N 0.36846 0.98478 0.08805 0.0
C2365 C 0.32469 -0.00012 0.07602 0.0
C2366 C 0.35283 0.97506 0.12018 0.0
C2367 C 0.3306 0.98147 0.11375 0.0
H2368 H 0.35772 0.96329 0.15149 0.0
H2369 H 0.31815 0.97295 0.13859 0.0
H2370 H 0.49167 0.90262 0.07351 0.0
H2371 H 0.43508 0.02434 0.02722 0.0
H2372 H 0.51555 0.8658 0.10962 0.0
H2373 H 0.30749 0.00528 0.07153 0.0
H2374 H 0.31918 0.04027 1.00633 0.0
H2375 H 0.39192 0.88945 0.03189 0.0
H2376 H 0.38879 0.07574 0.95083 0.0
H2377 H 0.42703 0.06384 0.97064 0.0
H2378 H 0.46738 0.79359 0.14308 0.0
H2379 H 0.3488 0.06619 0.963 0.0
H2380 H 0.39396 0.80825 0.09201 0.0
H2381 H 0.37395 0.84717 0.05109 0.0
N2382 N 0.42159 0.87453 0.06175 0.0
C2383 C 0.43297 0.85347 0.08395 0.0
C2384 C 0.40078 0.87251 0.0494 0.0
C2385 C 0.40192 0.82673 0.08366 0.0
C2386 C 0.39057 0.84861 0.06042 0.0
C2387 C 0.42351 0.82894 0.09536 0.0
H2388 H 0.42893 0.78848 0.12679 0.0
N2389 N 0.46311 0.88017 0.08174 0.0
C2390 C 0.45445 0.85638 0.09407 0.0
C2391 C 0.48948 0.83841 0.1209 0.0
C2392 C 0.46733 0.83482 0.11454 0.0
C2393 C 0.48487 0.88366 0.08549 0.0
C2394 C 0.49836 0.8629 0.10573 0.0
O2395 O 0.41066 0.97839 0.02199 0.0
O2396 O 0.40812 0.93532 0.02104 0.0
O2397 O 0.44846 0.93456 0.98225 0.0
O2398 O 0.45647 0.89358 1.00387 0.0
O2399 O 0.3866 0.94029 0.10881 0.0
O2400 O 0.41246 0.90621 0.10824 0.0
O2401 O 0.45287 0.92075 0.11484 0.0
O2402 O 0.43302 0.95404 0.1422 0.0
O2403 O 0.40397 0.97896 0.16561 0.0
O2404 O 0.40782 0.01394 0.11392 0.0
O2405 O 0.4644 0.94374 0.04713 0.0
O2406 O 0.43435 0.96213 0.06151 0.0
C2407 C 0.40704 0.96015 1.00049 0.0
C2408 C 0.39394 0.91635 0.12386 0.0
C2409 C 0.45863 0.91101 0.92548 0.0
C2410 C 0.47713 0.91495 0.85077 0.0
C2411 C 0.44219 0.89309 0.86988 0.0
C2412 C 0.4418 0.89745 0.91285 0.0
C2413 C 0.45957 0.90171 0.83922 0.0
C2414 C 0.47634 0.91987 0.8943 0.0
C2415 C 0.45862 0.9143 0.97196 0.0
C2416 C 0.45784 0.8104 0.1269 0.0
C2417 C 0.43595 0.80748 0.11751 0.0
H2418 H 0.49996 0.82234 0.1365 0.0
C2419 C 0.44866 0.93513 0.14523 0.0
C2420 C 0.45525 0.96508 0.05307 0.0
C2421 C 0.38505 0.01671 0.1772 0.0
C2422 C 0.36432 0.02132 0.24471 0.0
C2423 C 0.35139 0.04339 0.17321 0.0
C2424 C 0.36942 0.0331 0.15196 0.0
C2425 C 0.34873 0.03739 0.2196 0.0
C2426 C 0.38246 0.0111 0.22363 0.0
C2427 C 0.40345 0.00423 0.15598 0.0
H2428 H 0.42899 0.88278 0.86031 0.0
H2429 H 0.42841 0.89007 0.93638 0.0
H2430 H 0.45915 0.89805 0.8061 0.0
H2431 H 0.48968 0.92981 0.90434 0.0
H2432 H 0.33936 0.05583 0.15367 0.0
H2433 H 0.37096 0.03782 0.11594 0.0
H2434 H 0.33459 0.04516 0.23588 0.0
H2435 H 0.39426 -0.00174 0.24341 0.0
C2436 C 0.76321 0.58488 0.82974 0.0
C2437 C 0.72502 0.59526 0.84808 0.0
C2438 C 0.7465 0.60311 0.83297 0.0
C2439 C 0.7208 0.56875 0.86172 0.0
C2440 C 0.75893 0.55828 0.84244 0.0
C2441 C 0.73773 0.55031 0.85904 0.0
N2442 N 0.78349 0.59313 0.81307 0.0
C2443 C 0.80007 0.57601 0.80706 0.0
C2444 C 0.77606 0.54052 0.83761 0.0
C2445 C 0.79667 0.5494 0.81964 0.0
Gd2446 Gd 0.82745 0.67795 0.86421 0.0
Gd2447 Gd 0.78782 0.63778 0.79749 0.0
N2448 N 0.75111 0.62857 0.82008 0.0
C2449 C 0.70837 0.61429 0.84825 0.0
C2450 C 0.73477 0.6472 0.81773 0.0
C2451 C 0.71322 0.64037 0.83246 0.0
H2452 H 0.73857 0.66736 0.80569 0.0
H2453 H 0.70039 0.65519 0.83172 0.0
H2454 H 0.87588 0.64332 0.87197 0.0
H2455 H 0.81602 0.583 0.79337 0.0
H2456 H 0.91384 0.64945 0.84023 0.0
H2457 H 0.69166 0.60904 0.85964 0.0
H2458 H 0.70446 0.56231 0.87381 0.0
H2459 H 0.80233 0.73644 0.8402 0.0
H2460 H 0.77351 0.51996 0.84712 0.0
H2461 H 0.80992 0.53574 0.81557 0.0
H2462 H 0.91425 0.73773 0.7589 0.0
H2463 H 0.73417 0.52993 0.86924 0.0
H2464 H 0.84813 0.78954 0.76276 0.0
H2465 H 0.81086 0.78045 0.79797 0.0
N2466 N 0.83378 0.72047 0.82638 0.0
C2467 C 0.85471 0.7252 0.80964 0.0
C2468 C 0.81827 0.74001 0.8234 0.0
C2469 C 0.84435 0.77011 0.78084 0.0
C2470 C 0.82324 0.76505 0.80032 0.0
C2471 C 0.86044 0.75015 0.78566 0.0
H2472 H 0.88659 0.77335 0.74826 0.0
N2473 N 0.86456 0.68102 0.83959 0.0
C2474 C 0.87039 0.7049 0.8158 0.0
C2475 C 0.9077 0.68895 0.806 0.0
C2476 C 0.89211 0.70937 0.79794 0.0
C2477 C 0.88004 0.66157 0.85002 0.0
C2478 C 0.90171 0.66508 0.83268 0.0
O2479 O 0.77207 0.64156 0.86347 0.0
O2480 O 0.8002 0.65208 0.90443 0.0
O2481 O 0.84065 0.66693 0.93014 0.0
O2482 O 0.82963 0.70631 0.90426 0.0
O2483 O 0.78248 0.68091 0.79341 0.0
O2484 O 0.79244 0.68916 0.85983 0.0
O2485 O 0.82537 0.68967 0.78964 0.0
O2486 O 0.82225 0.65002 0.77276 0.0
O2487 O 0.77104 0.6612 0.74017 0.0
O2488 O 0.78641 0.62466 0.73503 0.0
O2489 O 0.83895 0.63979 0.85199 0.0
O2490 O 0.81028 0.61335 0.85467 0.0
C2491 C 0.78079 0.64205 0.90128 0.0
C2492 C 0.7794 0.6924 0.82689 0.0
C2493 C 0.81795 0.68791 0.977 0.0
C2494 C 0.80904 0.68622 0.05507 0.0
C2495 C 0.77983 0.6915 1.00417 0.0
C2496 C 0.79534 0.69108 0.96925 0.0
C2497 C 0.78661 0.68881 0.04724 0.0
C2498 C 0.82475 0.68551 0.02011 0.0
C2499 C 0.83422 0.68893 0.93956 0.0
C2500 C 0.89769 0.73406 0.77315 0.0
C2501 C 0.88194 0.75438 0.76714 0.0
H2502 H 0.92452 0.6916 0.79272 0.0
C2503 C 0.82714 0.67469 0.7608 0.0
C2504 C 0.82904 0.61869 0.87132 0.0
C2505 C 0.75568 0.63989 0.68755 0.0
C2506 C 0.73141 0.6523 0.62258 0.0
C2507 C 0.72883 0.61015 0.67404 0.0
C2508 C 0.74522 0.61609 0.69955 0.0
C2509 C 0.7221 0.62787 0.63623 0.0
C2510 C 0.74857 0.65828 0.64852 0.0
C2511 C 0.77438 0.64451 0.71507 0.0
H2512 H 0.76258 0.69449 0.99767 0.0
H2513 H 0.78957 0.69396 0.93615 0.0
H2514 H 0.77449 0.6899 0.07404 0.0
H2515 H 0.84216 0.68403 0.02625 0.0
H2516 H 0.72119 0.59154 0.68377 0.0
H2517 H 0.7499 0.60177 0.72869 0.0
H2518 H 0.70922 0.62247 0.61757 0.0
H2519 H 0.75618 0.67692 0.63869 0.0
C2520 C 0.08471 0.03067 0.66169 0.0
C2521 C 0.11669 0.0559 0.63151 0.0
C2522 C 0.0949 0.05438 0.64992 0.0
C2523 C 0.1277 0.03353 0.6232 0.0
C2524 C 0.09588 0.0081 0.65406 0.0
C2525 C 0.1173 0.00973 0.63429 0.0
N2526 N 0.06403 0.02957 0.68116 0.0
C2527 C 0.05386 0.00649 0.69489 0.0
C2528 C 0.08537 0.98445 0.66728 0.0
C2529 C 0.06442 0.98361 0.68834 0.0
Gd2530 Gd 0.00797 0.1234 0.61856 0.0
Gd2531 Gd 0.04841 0.06896 0.69193 0.0
N2532 N 0.08388 0.07577 0.65838 0.0
C2533 C 0.12699 0.07973 0.62311 0.0
C2534 C 0.09433 0.09865 0.65287 0.0
C2535 C 0.11584 0.10112 0.63433 0.0
H2536 H 0.08603 0.11506 0.66235 0.0
H2537 H 0.12388 0.11944 0.62909 0.0
H2538 H 0.96513 0.08352 0.62093 0.0
H2539 H 0.03793 0.00568 0.71241 0.0
H2540 H 0.92658 0.08074 0.64859 0.0
H2541 H 0.14373 0.08166 0.60906 0.0
H2542 H 0.14439 0.03436 0.60882 0.0
H2543 H 0.02506 0.17905 0.6369 0.0
H2544 H 0.09348 0.96668 0.66226 0.0
H2545 H 0.05659 0.96524 0.70015 0.0
H2546 H 0.91319 0.15561 0.71025 0.0
H2547 H 0.1261 0.99259 0.62811 0.0
H2548 H 0.97226 0.2133 0.70381 0.0
H2549 H 0.01057 0.21418 0.67211 0.0
N2550 N 0.99605 0.1572 0.65249 0.0
C2551 C 0.97453 0.15709 0.66711 0.0
C2552 C 0.00869 0.17782 0.65249 0.0
C2553 C 0.9787 0.19754 0.6892 0.0
C2554 C 0.00037 0.19805 0.67157 0.0
C2555 C 0.96539 0.1771 0.68658 0.0
H2556 H 0.936 0.19142 0.71753 0.0
N2557 N 0.9708 0.11781 0.64344 0.0
C2558 C 0.96155 0.13693 0.66241 0.0
C2559 C 0.92667 0.11568 0.67308 0.0
C2560 C 0.93924 0.13629 0.67779 0.0
C2561 C 0.95838 0.09805 0.63774 0.0
C2562 C 0.93627 0.09656 0.65288 0.0
O2563 O 0.05781 0.08453 0.61796 0.0
O2564 O 0.02709 0.0976 0.57785 0.0
O2565 O 0.98523 0.13936 0.56795 0.0
O2566 O 0.01746 0.15616 0.56551 0.0
O2567 O 0.04428 0.10813 0.7065 0.0
O2568 O 0.04104 0.13473 0.63775 0.0
O2569 O 0.00186 0.11309 0.69363 0.0
O2570 O 0.01227 0.07008 0.7109 0.0
O2571 O 0.06205 0.07885 0.74922 0.0
O2572 O 0.05248 0.03954 0.7524 0.0
O2573 O 0.0039 0.08273 0.61017 0.0
O2574 O 0.01756 0.05313 0.67173 0.0
C2575 C 0.04635 0.08513 0.58268 0.0
C2576 C 0.04579 0.13088 0.67987 0.0
C2577 C 0.99845 0.16407 0.49834 0.0
C2578 C 0.98925 0.15587 0.42685 0.0
C2579 C 0.00015 0.19868 0.43228 0.0
C2580 C 0.0028 0.18976 0.47764 0.0
C2581 C 0.99319 0.18204 0.40714 0.0
C2582 C 0.99186 0.14695 0.47295 0.0
C2583 C 0.99864 0.15703 0.54699 0.0
C2584 C 0.93024 0.15594 0.69796 0.0
C2585 C 0.94325 0.17629 0.70225 0.0
H2586 H 0.90953 0.11441 0.68477 0.0
C2587 C 0.00123 0.09007 0.7203 0.0
C2588 C 0.00675 0.05903 0.6345 0.0
C2589 C 0.08185 0.04496 0.79485 0.0
C2590 C 0.09968 0.02706 0.86403 0.0
C2591 C 0.12009 0.03061 0.79277 0.0
C2592 C 0.10151 0.04148 0.77066 0.0
C2593 C 0.11919 0.02324 0.83916 0.0
C2594 C 0.08102 0.03803 0.84137 0.0
C2595 C 0.06182 0.05505 0.7724 0.0
H2596 H 0.00313 0.21871 0.41669 0.0
H2597 H 0.00763 0.20318 0.49693 0.0
H2598 H 0.99063 0.18988 0.3722 0.0
H2599 H 0.98873 0.12699 0.48903 0.0
H2600 H 0.13518 0.02768 0.77389 0.0
H2601 H 0.10254 0.04708 0.73489 0.0
H2602 H 0.13368 0.01418 0.85541 0.0
H2603 H 0.06581 0.04128 0.85974 0.0
C2604 C 0.73249 0.3497 0.38699 0.0
C2605 C 0.71499 0.3923 0.36971 0.0
C2606 C 0.71588 0.36682 0.39582 0.0
C2607 C 0.73028 0.39972 0.33353 0.0
C2608 C 0.74841 0.35732 0.3519 0.0
C2609 C 0.74698 0.38229 0.32471 0.0
N2610 N 0.73291 0.32534 0.41254 0.0
C2611 C 0.74964 0.30819 0.40733 0.0
C2612 C 0.76525 0.33953 0.34519 0.0
C2613 C 0.76601 0.31496 0.37343 0.0
Gd2614 Gd 0.64803 0.29286 0.42191 0.0
Gd2615 Gd 0.70403 0.31429 0.46589 0.0
N2616 N 0.70125 0.35891 0.431 0.0
C2617 C 0.69918 0.40978 0.38152 0.0
C2618 C 0.68761 0.37683 0.44543 0.0
C2619 C 0.68583 0.40219 0.42024 0.0
H2620 H 0.67866 0.37231 0.47708 0.0
H2621 H 0.6745 0.41602 0.43129 0.0
H2622 H 0.65901 0.22997 0.42089 0.0
H2623 H 0.75011 0.28916 0.42889 0.0
H2624 H 0.64563 0.1873 0.46031 0.0
H2625 H 0.69791 0.42951 0.36228 0.0
H2626 H 0.72963 0.41911 0.31278 0.0
H2627 H 0.60624 0.33525 0.43301 0.0
H2628 H 0.77779 0.34464 0.31855 0.0
H2629 H 0.77905 0.30114 0.36883 0.0
H2630 H 0.5831 0.20704 0.55034 0.0
H2631 H 0.75886 0.38842 0.29715 0.0
H2632 H 0.55884 0.29574 0.52972 0.0
H2633 H 0.57213 0.3361 0.48014 0.0
N2634 N 0.61391 0.29567 0.46063 0.0
C2635 C 0.60618 0.27291 0.48531 0.0
C2636 C 0.60127 0.31786 0.45648 0.0
C2637 C 0.57423 0.29542 0.51028 0.0
C2638 C 0.58163 0.31825 0.48224 0.0
C2639 C 0.5862 0.27223 0.51113 0.0
H2640 H 0.56317 0.24757 0.55594 0.0
N2641 N 0.63577 0.25109 0.45461 0.0
C2642 C 0.61732 0.24995 0.48194 0.0
C2643 C 0.61962 0.20318 0.49759 0.0
C2644 C 0.6089 0.22591 0.50461 0.0
C2645 C 0.6453 0.229 0.44499 0.0
C2646 C 0.63767 0.20475 0.46706 0.0
O2647 O 0.70262 0.31151 0.39514 0.0
O2648 O 0.66781 0.32646 0.3805 0.0
O2649 O 0.65233 0.28792 0.354 0.0
O2650 O 0.6197 0.29412 0.38153 0.0
O2651 O 0.67261 0.32666 0.49892 0.0
O2652 O 0.64517 0.33025 0.44885 0.0
O2653 O 0.66087 0.26606 0.48386 0.0
O2654 O 0.67853 0.29417 0.51609 0.0
O2655 O 0.72219 0.33201 0.50899 0.0
O2656 O 0.73037 0.29279 0.50294 0.0
O2657 O 0.67873 0.27014 0.40974 0.0
O2658 O 0.70508 0.27254 0.45989 0.0
C2659 C 0.6883 0.32233 0.36649 0.0
C2660 C 0.65279 0.3346 0.48591 0.0
C2661 C 0.62388 0.26681 0.32935 0.0
C2662 C 0.62857 0.24156 0.27196 0.0
C2663 C 0.59748 0.23431 0.32586 0.0
C2664 C 0.60475 0.25327 0.34623 0.0
C2665 C 0.60919 0.22861 0.28871 0.0
C2666 C 0.63584 0.26061 0.29247 0.0
C2667 C 0.63138 0.28794 0.34849 0.0
C2668 C 0.58969 0.22531 0.53232 0.0
C2669 C 0.57836 0.2484 0.53555 0.0
H2670 H 0.61367 0.18436 0.51442 0.0
C2671 C 0.66875 0.27231 0.51851 0.0
C2672 C 0.69729 0.26228 0.42892 0.0
C2673 C 0.72625 0.30053 0.5748 0.0
C2674 C 0.71862 0.31033 0.64754 0.0
C2675 C 0.71231 0.26731 0.63681 0.0
C2676 C 0.71947 0.27502 0.59219 0.0
C2677 C 0.71186 0.28483 0.6645 0.0
C2678 C 0.72547 0.31808 0.6025 0.0
C2679 C 0.73149 0.30987 0.527 0.0
H2680 H 0.58265 0.22408 0.33879 0.0
H2681 H 0.59529 0.25742 0.37484 0.0
H2682 H 0.60327 0.21389 0.27335 0.0
H2683 H 0.65058 0.27103 0.27906 0.0
H2684 H 0.70732 0.24763 0.65007 0.0
H2685 H 0.71932 0.2611 0.57132 0.0
H2686 H 0.70708 0.27811 0.69947 0.0
H2687 H 0.7303 0.33785 0.58893 0.0
H2688 H 0.11244 0.49553 0.2596 0.0
H2689 H 0.10014 0.57664 0.25473 0.0
H2690 H 0.11502 0.57181 0.32798 0.0
H2691 H 0.11767 0.54176 0.40042 0.0
H2692 H 0.12653 0.46018 0.40713 0.0
H2693 H 0.12782 0.46771 0.32616 0.0
C2694 C 0.11415 0.51232 0.27369 0.0
C2695 C 0.10465 0.53619 0.25316 0.0
C2696 C 0.12178 0.50909 0.31658 0.0
C2697 C 0.10698 0.55798 0.27102 0.0
C2698 C 0.11536 0.55518 0.31289 0.0
C2699 C 0.12148 0.52597 0.38379 0.0
C2700 C 0.12126 0.5005 0.40877 0.0
C2701 C 0.12085 0.53042 0.33742 0.0
C2702 C 0.12638 0.47994 0.3878 0.0
C2703 C 0.1267 0.48423 0.34154 0.0
H2704 H 0.76254 0.84201 0.81001 0.0
H2705 H 0.70343 0.86482 0.73926 0.0
H2706 H 0.72198 0.85714 0.67089 0.0
H2707 H 0.75211 0.83515 0.63608 0.0
H2708 H 0.80946 0.80709 0.70943 0.0
H2709 H 0.79463 0.82529 0.77191 0.0
C2710 C 0.75392 0.8459 0.77935 0.0
C2711 C 0.73152 0.85336 0.7798 0.0
C2712 C 0.76427 0.83979 0.74088 0.0
C2713 C 0.72061 0.85863 0.73978 0.0
C2714 C 0.73117 0.8541 0.70075 0.0
C2715 C 0.76162 0.83383 0.66521 0.0
C2716 C 0.78174 0.81986 0.66854 0.0
C2717 C 0.75255 0.84329 0.70158 0.0
C2718 C 0.79386 0.81778 0.70654 0.0
C2719 C 0.78536 0.82805 0.74221 0.0
H2720 H 0.40798 0.54881 0.67858 0.0
H2721 H 0.3983 0.48496 0.61651 0.0
H2722 H 0.39845 0.45496 0.68797 0.0
H2723 H 0.40876 0.4461 0.76485 0.0
H2724 H 0.4196 0.50957 0.82689 0.0
H2725 H 0.40895 0.54044 0.75996 0.0
C2726 C 0.40543 0.52843 0.68084 0.0
C2727 C 0.40455 0.51894 0.64215 0.0
C2728 C 0.40531 0.51115 0.72222 0.0
C2729 C 0.40002 0.49272 0.64564 0.0
C2730 C 0.40003 0.47542 0.68657 0.0
C2731 C 0.40875 0.4667 0.76367 0.0
C2732 C 0.41595 0.4756 0.79956 0.0
C2733 C 0.40402 0.48431 0.72453 0.0
C2734 C 0.41453 0.50222 0.79911 0.0
C2735 C 0.40869 0.51993 0.76073 0.0
H2736 H 0.73549 0.15969 0.07143 0.0
H2737 H 0.76993 0.08716 0.06911 0.0
H2738 H 0.75967 0.09033 0.99248 0.0
H2739 H 0.74044 0.11355 0.9273 0.0
H2740 H 0.70702 0.18598 0.92912 0.0
H2741 H 0.71739 0.18336 1.00574 0.0
C2742 C 0.74091 0.14469 0.05398 0.0
C2743 C 0.75329 0.12317 0.07558 0.0
C2744 C 0.73507 0.14669 1.01037 0.0
C2745 C 0.76006 0.10369 0.05305 0.0
C2746 C 0.75433 0.10557 1.00935 0.0
C2747 C 0.73548 0.12879 0.94452 0.0
C2748 C 0.7225 0.14999 0.92366 0.0
C2749 C 0.74174 0.12693 0.9879 0.0
C2750 C 0.7163 0.16953 0.94579 0.0
C2751 C 0.72248 0.16802 0.98899 0.0
H2752 H 0.90868 0.44049 0.93718 0.0
H2753 H 0.88898 0.51074 0.97948 0.0
H2754 H 0.87119 0.52717 0.90948 0.0
H2755 H 0.87271 0.52755 0.8304 0.0
H2756 H 0.89908 0.46077 0.78466 0.0
H2757 H 0.90237 0.4369 0.86138 0.0
C2758 C 0.90012 0.4592 0.93129 0.0
C2759 C 0.90089 0.47483 0.96225 0.0
C2760 C 0.89155 0.46942 0.88992 0.0
C2761 C 0.88897 0.49854 0.9556 0.0
C2762 C 0.87904 0.50812 0.91549 0.0
C2763 C 0.8785 0.50748 0.83753 0.0
C2764 C 0.88635 0.49612 0.80258 0.0
C2765 C 0.88195 0.49468 0.8813 0.0
C2766 C 0.89319 0.46994 0.81142 0.0
C2767 C 0.89534 0.45641 0.85522 0.0
H2768 H 0.23623 0.16802 0.58053 0.0
H2769 H 0.20842 0.09442 0.5803 0.0
H2770 H 0.22542 0.09585 0.50604 0.0
H2771 H 0.24988 0.11735 0.44241 0.0
H2772 H 0.27388 0.19241 0.44151 0.0
H2773 H 0.25581 0.19172 0.51451 0.0
C2774 C 0.23319 0.15254 0.56411 0.0
C2775 C 0.22115 0.13102 0.58656 0.0
C2776 C 0.24245 0.15376 0.52118 0.0
C2777 C 0.21808 0.11096 0.5645 0.0
C2778 C 0.22763 0.11184 0.52179 0.0
C2779 C 0.25098 0.13352 0.45832 0.0
C2780 C 0.26411 0.15451 0.4382 0.0
C2781 C 0.24016 0.13298 0.50009 0.0
C2782 C 0.26505 0.17557 0.45827 0.0
C2783 C 0.25444 0.17527 0.49947 0.0
H2784 H 0.56053 0.52004 0.42061 0.0
H2785 H 0.6306 0.52695 0.42813 0.0
H2786 H 0.62719 0.51087 0.50869 0.0
H2787 H 0.60477 0.49118 0.57521 0.0
H2788 H 0.53465 0.48662 0.56749 0.0
H2789 H 0.53747 0.50769 0.4885 0.0
C2790 C 0.57506 0.51893 0.43967 0.0
C2791 C 0.59589 0.52429 0.41806 0.0
C2792 C 0.57293 0.51035 0.48586 0.0
C2793 C 0.61446 0.52215 0.44371 0.0
C2794 C 0.61251 0.51322 0.48981 0.0
C2795 C 0.59005 0.4952 0.5564 0.0
C2796 C 0.56955 0.48685 0.57652 0.0
C2797 C 0.5919 0.50665 0.51098 0.0
C2798 C 0.55063 0.49228 0.55209 0.0
C2799 C 0.55226 0.50421 0.50706 0.0
H2800 H 0.24532 0.85587 0.31913 0.0
H2801 H 0.30737 0.85483 0.24411 0.0
H2802 H 0.28804 0.86277 0.17504 0.0
H2803 H 0.2537 0.85952 0.13968 0.0
H2804 H 0.19222 0.85323 0.21754 0.0
H2805 H 0.21101 0.85887 0.28252 0.0
C2806 C 0.25472 0.85754 0.28783 0.0
C2807 C 0.27765 0.85338 0.28685 0.0
C2808 C 0.24347 0.86072 0.24898 0.0
C2809 C 0.2896 0.85691 0.24573 0.0
C2810 C 0.27857 0.86156 0.20631 0.0
C2811 C 0.24438 0.86071 0.17037 0.0
C2812 C 0.22178 0.85619 0.17449 0.0
C2813 C 0.25551 0.86199 0.20795 0.0
C2814 C 0.20965 0.85702 0.21419 0.0
C2815 C 0.22044 0.85986 0.25122 0.0
H2816 H 0.64901 0.0213 0.92355 0.0
H2817 H 0.63506 0.9433 0.91668 0.0
H2818 H 0.6317 0.95701 0.83626 0.0
H2819 H 0.62784 0.99165 0.77256 0.0
H2820 H 0.64645 0.0693 0.77502 0.0
H2821 H 0.6508 0.05538 0.85489 0.0
C2822 C 0.64598 0.0073 0.9039 0.0
C2823 C 0.64259 0.98139 0.92501 0.0
C2824 C 0.64383 0.01537 0.85812 0.0
C2825 C 0.63821 0.96321 0.90029 0.0
C2826 C 0.63594 0.97113 0.85474 0.0
C2827 C 0.63423 0.00561 0.78896 0.0
C2828 C 0.63733 0.03158 0.76654 0.0
C2829 C 0.63824 -0.00275 0.83373 0.0
C2830 C 0.64365 0.04929 0.7909 0.0
C2831 C 0.64627 0.04136 0.83661 0.0
H2832 H 0.24874 0.33903 0.13975 0.0
H2833 H 0.30999 0.32196 0.20472 0.0
H2834 H 0.29399 0.3369 0.2696 0.0
H2835 H 0.26078 0.34744 0.31202 0.0
H2836 H 0.19907 0.36184 0.2475 0.0
H2837 H 0.21715 0.35597 0.17794 0.0
C2838 C 0.2588 0.3396 0.16739 0.0
C2839 C 0.28035 0.3293 0.16799 0.0
C2840 C 0.24929 0.34733 0.20494 0.0
C2841 C 0.29325 0.32972 0.20406 0.0
C2842 C 0.28408 0.33809 0.24114 0.0
C2843 C 0.25139 0.34987 0.2825 0.0
C2844 C 0.22851 0.35432 0.28525 0.0
C2845 C 0.2618 0.34577 0.24274 0.0
C2846 C 0.21663 0.35777 0.24657 0.0
C2847 C 0.22695 0.35445 0.20667 0.0
H2848 H 0.90879 0.98278 0.13832 0.0
H2849 H 0.90399 0.05563 0.17883 0.0
H2850 H 0.90765 0.03311 0.25619 0.0
H2851 H 0.92174 0.99461 0.30728 0.0
H2852 H 0.93143 0.92282 0.26408 0.0
H2853 H 0.91683 0.94306 0.19202 0.0
C2854 C 0.90825 0.99373 0.16397 0.0
C2855 C 0.90721 0.02081 0.15278 0.0
C2856 C 0.9118 0.98084 0.20761 0.0
C2857 C 0.9055 0.03471 0.18667 0.0
C2858 C 0.90762 0.02187 0.23084 0.0
C2859 C 0.91978 0.98318 0.2827 0.0
C2860 C 0.92784 0.95752 0.29012 0.0
C2861 C 0.91229 0.99518 0.24108 0.0
C2862 C 0.92554 0.94279 0.25825 0.0
C2863 C 0.91726 0.95433 0.21726 0.0
H2864 H 0.23865 0.62412 0.43514 0.0
H2865 H 0.22344 0.7056 0.3922 0.0
H2866 H 0.23144 0.71239 0.46542 0.0
H2867 H 0.23602 0.6931 0.5449 0.0
H2868 H 0.25142 0.61161 0.58694 0.0
H2869 H 0.25106 0.60669 0.50984 0.0
C2870 C 0.23742 0.64342 0.44176 0.0
C2871 C 0.22893 0.66408 0.41022 0.0
C2872 C 0.24227 0.64701 0.48336 0.0
C2873 C 0.22841 0.68919 0.41759 0.0
C2874 C 0.23332 0.6931 0.45908 0.0
C2875 C 0.23999 0.67454 0.53657 0.0
C2876 C 0.24332 0.65259 0.57044 0.0
C2877 C 0.23913 0.67187 0.49281 0.0
C2878 C 0.24864 0.62853 0.56054 0.0
C2879 C 0.24828 0.62575 0.51683 0.0
H2880 H 0.35447 0.96204 0.44213 0.0
H2881 H 0.40614 0.01301 0.4532 0.0
H2882 H 0.40067 0.03771 0.37747 0.0
H2883 H 0.38614 0.03917 0.30404 0.0
H2884 H 0.33685 0.98569 0.29169 0.0
H2885 H 0.33707 0.96666 0.37148 0.0
C2886 C 0.36436 0.97873 0.42805 0.0
C2887 C 0.38108 0.98532 0.45246 0.0
C2888 C 0.36187 0.99189 0.38405 0.0
C2889 C 0.39326 0.00752 0.43476 0.0
C2890 C 0.39032 0.02143 0.39135 0.0
C2891 C 0.375 0.0239 0.31948 0.0
C2892 C 0.36137 0.01378 0.29304 0.0
C2893 C 0.37544 0.01297 0.36508 0.0
C2894 C 0.34718 0.9938 0.31225 0.0
C2895 C 0.34734 0.98296 0.35767 0.0
H2896 H 0.73728 0.65446 0.90771 0.0
H2897 H 0.79071 0.61823 0.98637 0.0
H2898 H 0.77057 0.6242 0.05414 0.0
H2899 H 0.74281 0.65027 0.08699 0.0
H2900 H 0.69176 0.69151 1.00649 0.0
H2901 H 0.7057 0.67331 0.94355 0.0
C2902 C 0.74431 0.64738 0.93978 0.0
C2903 C 0.76605 0.63742 0.94189 0.0
C2904 C 0.73311 0.65237 0.97823 0.0
C2905 C 0.77457 0.62737 0.9837 0.0
C2906 C 0.76294 0.63061 0.02254 0.0
C2907 C 0.73421 0.65435 0.05625 0.0
C2908 C 0.71661 0.67252 0.05074 0.0
C2909 C 0.74296 0.64481 0.01975 0.0
C2910 C 0.70561 0.67787 1.01084 0.0
C2911 C 0.71361 0.66753 0.97495 0.0
H2912 H 0.11259 0.98681 0.06984 0.0
H2913 H 0.04588 0.9649 0.06591 0.0
H2914 H 0.04534 0.98538 0.98658 0.0
H2915 H 0.06525 0.00545 0.91772 0.0
H2916 H 0.13174 0.02992 0.9212 0.0
H2917 H 0.13133 0.01187 1.0013 0.0
C2918 C 0.09803 0.98667 0.0513 0.0
C2919 C 0.0795 0.97347 0.07223 0.0
C2920 C 0.09801 -0.00151 1.00583 0.0
C2921 C 0.0605 0.97378 0.04895 0.0
C2922 C 0.06018 0.98572 1.00407 0.0
C2923 C 0.07951 0.00748 0.93594 0.0
C2924 C 0.09862 0.01868 0.91326 0.0
C2925 C 0.07907 -0.00253 0.98189 0.0
C2926 C 0.11701 0.02073 0.93765 0.0
C2927 C 0.11675 0.01062 0.98351 0.0
H2928 H 0.7531 0.34039 0.64568 0.0
H2929 H 0.69143 0.31839 0.71786 0.0
H2930 H 0.70223 0.33713 0.77889 0.0
H2931 H 0.73266 0.35065 0.81701 0.0
H2932 H 0.79551 0.3661 0.74636 0.0
H2933 H 0.7803 0.36123 0.67785 0.0
C2934 C 0.74155 0.34059 0.67381 0.0
C2935 C 0.72174 0.32754 0.67794 0.0
C2936 C 0.74821 0.35031 0.70903 0.0
C2937 C 0.70706 0.32781 0.71476 0.0
C2938 C 0.7132 0.33854 0.74948 0.0
C2939 C 0.74285 0.3531 0.78647 0.0
C2940 C 0.76542 0.35697 0.78684 0.0
C2941 C 0.73433 0.34831 0.74806 0.0
C2942 C 0.77831 0.36189 0.74688 0.0
C2943 C 0.76961 0.35907 0.7078 0.0
H2944 H 0.1591 0.36069 0.29056 0.0
H2945 H 0.1637 0.43567 0.32076 0.0
H2946 H 0.14455 0.45527 0.25263 0.0
H2947 H 0.1241 0.45077 0.18727 0.0
H2948 H 0.11901 0.3753 0.15828 0.0
H2949 H 0.1406 0.35638 0.22306 0.0
C2950 C 0.15629 0.38141 0.28221 0.0
C2951 C 0.16293 0.39647 0.31197 0.0
C2952 C 0.14477 0.39245 0.24321 0.0
C2953 C 0.15897 0.42336 0.29941 0.0
C2954 C 0.14776 0.43455 0.26038 0.0
C2955 C 0.1277 0.43012 0.19457 0.0
C2956 C 0.11953 0.41464 0.16683 0.0
C2957 C 0.14015 0.41924 0.23245 0.0
C2958 C 0.12474 0.38794 0.1781 0.0
C2959 C 0.13718 0.37706 0.21547 0.0
H2960 H 0.9508 0.848 0.48022 0.0
H2961 H 0.91926 0.83183 0.6121 0.0
H2962 H 0.89236 0.80556 0.58781 0.0
H2963 H 0.87491 0.79277 0.52634 0.0
H2964 H 0.90557 0.81095 0.39364 0.0
H2965 H 0.93582 0.83107 0.42088 0.0
C2966 C 0.93831 0.83825 0.50386 0.0
C2967 C 0.93688 0.84195 0.54772 0.0
C2968 C 0.92254 0.82407 0.48923 0.0
C2969 C 0.9208 0.82908 0.57826 0.0
C2970 C 0.90525 0.81438 0.5642 0.0
C2971 C 0.88832 0.80103 0.50348 0.0
C2972 C 0.88792 0.80089 0.45793 0.0
C2973 C 0.90547 0.81267 0.51933 0.0
C2974 C 0.90552 0.81106 0.42875 0.0
C2975 C 0.92276 0.82254 0.44432 0.0
H2976 H 0.32678 0.63233 0.68385 0.0
H2977 H 0.38857 0.64021 0.74045 0.0
H2978 H 0.40758 0.61753 0.6877 0.0
H2979 H 0.40682 0.59791 0.62242 0.0
H2980 H 0.34526 0.59063 0.56521 0.0
H2981 H 0.32576 0.60997 0.62255 0.0
C2982 C 0.34444 0.62918 0.68518 0.0
C2983 C 0.3562 0.63885 0.71617 0.0
C2984 C 0.35522 0.61602 0.65465 0.0
C2985 C 0.379 0.63374 0.71705 0.0
C2986 C 0.38989 0.62058 0.68677 0.0
C2987 C 0.38912 0.60041 0.62253 0.0
C2988 C 0.37758 0.59348 0.58865 0.0
C2989 C 0.3782 0.61206 0.65495 0.0
C2990 C 0.35458 0.59616 0.59028 0.0
C2991 C 0.34349 0.60737 0.62295 0.0
H2992 H 0.67828 0.1186 0.95875 0.0
H2993 H 0.6366 0.09748 0.86546 0.0
H2994 H 0.6108 0.07821 0.92755 0.0
H2995 H 0.59809 0.07202 1.0084 0.0
H2996 H 0.63822 0.09938 0.09774 0.0
H2997 H 0.66587 0.11323 0.03694 0.0
C2998 C 0.66384 0.1091 0.95196 0.0
C2999 C 0.6598 0.10895 0.9072 0.0
C3000 C 0.64812 0.10062 0.98708 0.0
C3001 C 0.64072 0.09702 0.89931 0.0
C3002 C 0.6256 0.08675 0.93486 0.0
C3003 C 0.61272 0.08149 0.01417 0.0
C3004 C 0.61584 0.08533 0.05741 0.0
C3005 C 0.6287 0.08938 0.9787 0.0
C3006 C 0.63515 0.0969 0.0647 0.0
C3007 C 0.65111 0.10442 0.03005 0.0
H3008 H 0.10702 0.6284 0.54222 0.0
H3009 H 0.12652 0.54852 0.55939 0.0
H3010 H 0.14969 0.55761 0.49063 0.0
H3011 H 0.16494 0.58967 0.42338 0.0
H3012 H 0.14213 0.66913 0.40828 0.0
H3013 H 0.12032 0.65897 0.47602 0.0
C3014 C 0.11634 0.61293 0.53106 0.0
C3015 C 0.11503 0.58758 0.55666 0.0
C3016 C 0.12937 0.61843 0.49075 0.0
C3017 C 0.12707 0.56801 0.54062 0.0
C3018 C 0.14051 0.57335 0.50111 0.0
C3019 C 0.15527 0.60475 0.4349 0.0
C3020 C 0.1556 0.6304 0.40909 0.0
C3021 C 0.14191 0.59869 0.47547 0.0
C3022 C 0.14244 0.6492 0.42551 0.0
C3023 C 0.12984 0.64353 0.4653 0.0
H3024 H 0.65014 0.93209 0.64366 0.0
H3025 H 0.59195 0.88737 0.6845 0.0
H3026 H 0.60488 0.87422 0.76 0.0
H3027 H 0.63233 0.87481 0.81459 0.0
H3028 H 0.69274 0.91492 0.77474 0.0
H3029 H 0.67929 0.93055 0.69922 0.0
C3030 C 0.64025 0.91925 0.66854 0.0
C3031 C 0.61977 0.91081 0.65684 0.0
C3032 C 0.64819 0.91107 0.71264 0.0
C3033 C 0.60763 0.89422 0.69114 0.0
C3034 C 0.61505 0.88674 0.73482 0.0
C3035 C 0.64275 0.88714 0.79012 0.0
C3036 C 0.66377 0.89357 0.80213 0.0
C3037 C 0.63525 0.89504 0.74608 0.0
C3038 C 0.67655 0.90957 0.76799 0.0
C3039 C 0.66883 0.91836 0.72428 0.0
H3040 H 0.42275 0.32885 0.08909 0.0
H3041 H 0.46504 0.35103 0.97061 0.0
H3042 H 0.44155 0.32965 0.92939 0.0
H3043 H 0.40485 0.3136 0.92325 0.0
H3044 H 0.363 0.29005 0.04236 0.0
H3045 H 0.38997 0.30382 0.08665 0.0
C3046 C 0.42727 0.32799 0.05485 0.0
C3047 C 0.44515 0.34192 0.03243 0.0
C3048 C 0.41323 0.31649 0.03089 0.0
C3049 C 0.45104 0.34061 0.98817 0.0
C3050 C 0.43747 0.32875 0.96441 0.0
C3051 C 0.40196 0.31074 0.95906 0.0
C3052 C 0.38184 0.30128 0.97924 0.0
C3053 C 0.41779 0.31809 0.98471 0.0
C3054 C 0.3782 0.29794 0.02573 0.0
C3055 C 0.39369 0.30554 0.05129 0.0
H3056 H 0.83252 0.12462 0.19578 0.0
H3057 H 0.89661 0.1494 0.21861 0.0
H3058 H 0.91318 0.12638 0.16336 0.0
H3059 H 0.90879 0.10241 0.10446 0.0
H3060 H 0.84422 0.08059 0.07891 0.0
H3061 H 0.82829 0.10035 0.13859 0.0
C3062 C 0.85016 0.12527 0.18888 0.0
C3063 C 0.86322 0.13921 0.21146 0.0
C3064 C 0.85937 0.11291 0.15592 0.0
C3065 C 0.88609 0.1389 0.2023 0.0
C3066 C 0.89552 0.12592 0.17026 0.0
C3067 C 0.89128 0.10169 0.11203 0.0
C3068 C 0.87778 0.09001 0.08666 0.0
C3069 C 0.88223 0.11335 0.14621 0.0
C3070 C 0.85505 0.08952 0.09734 0.0
C3071 C 0.84594 0.10078 0.1316 0.0
H3072 H 0.89362 0.55733 0.01949 0.0
H3073 H 0.86089 0.60741 0.09714 0.0
H3074 H 0.83641 0.62425 0.03586 0.0
H3075 H 0.82458 0.62527 0.95915 0.0
H3076 H 0.85946 0.57825 0.87927 0.0
H3077 H 0.88273 0.56012 0.94188 0.0
C3078 C 0.88121 0.57205 0.02326 0.0
C3079 C 0.87949 0.58094 0.0639 0.0
C3080 C 0.86721 0.58197 0.98725 0.0
C3081 C 0.86314 0.60019 0.06693 0.0
C3082 C 0.84889 0.6097 0.03168 0.0
C3083 C 0.83672 0.61056 0.95534 0.0
C3084 C 0.83921 0.60273 0.91376 0.0
C3085 C 0.85066 0.60067 0.9916 0.0
C3086 C 0.85607 0.58411 0.91055 0.0
C3087 C 0.86963 0.57383 0.94654 0.0
H3088 H 0.07318 0.17063 0.64218 0.0
H3089 H 0.03696 0.13627 0.764 0.0
H3090 H 0.05831 0.15946 0.80594 0.0
H3091 H 0.09237 0.18242 0.81015 0.0
H3092 H 0.12786 0.21778 0.68799 0.0
H3093 H 0.10173 0.20194 0.64446 0.0
C3094 C 0.06949 0.16899 0.67756 0.0
C3095 C 0.05402 0.15122 0.70014 0.0
C3096 C 0.08206 0.18223 0.70183 0.0
C3097 C 0.04926 0.1494 0.74603 0.0
C3098 C 0.06149 0.1626 0.77019 0.0
C3099 C 0.09387 0.18735 0.77402 0.0
C3100 C 0.11231 0.20053 0.75241 0.0
C3101 C 0.07877 0.17798 0.74888 0.0
C3102 C 0.11403 0.207 0.70546 0.0
C3103 C 0.09911 0.19794 0.68041 0.0
H3104 H 0.66116 0.33863 0.57057 0.0
H3105 H 0.61686 0.36805 0.4654 0.0
H3106 H 0.59798 0.39514 0.51131 0.0
H3107 H 0.59464 0.41131 0.57927 0.0
H3108 H 0.63814 0.38264 0.68612 0.0
H3109 H 0.65762 0.35525 0.64015 0.0
C3110 C 0.64731 0.35088 0.55748 0.0
C3111 C 0.64025 0.35068 0.51428 0.0
C3112 C 0.63681 0.36698 0.58392 0.0
C3113 C 0.62236 0.36696 0.49847 0.0
C3114 C 0.61175 0.38281 0.52464 0.0
C3115 C 0.60831 0.39905 0.59324 0.0
C3116 C 0.61467 0.39905 0.63691 0.0
C3117 C 0.61891 0.38305 0.56718 0.0
C3118 C 0.63283 0.38327 0.65298 0.0
C3119 C 0.64381 0.36744 0.6267 0.0
H3120 H 0.36141 0.85163 0.31226 0.0
H3121 H 0.30865 0.90884 0.29392 0.0
H3122 H 0.32291 0.92521 0.21683 0.0
H3123 H 0.35117 0.9233 0.15561 0.0
H3124 H 0.40832 0.87286 0.18297 0.0
H3125 H 0.39111 0.85254 0.25537 0.0
C3126 C 0.35338 0.86828 0.29279 0.0
C3127 C 0.33437 0.87942 0.3105 0.0
C3128 C 0.36237 0.87836 0.24957 0.0
C3129 C 0.32355 0.90006 0.28213 0.0
C3130 C 0.33168 0.90935 0.23787 0.0
C3131 C 0.36048 0.90896 0.17817 0.0
C3132 C 0.38171 0.90089 0.16425 0.0
C3133 C 0.35133 0.89889 0.22151 0.0
C3134 C 0.39218 0.87989 0.19243 0.0
C3135 C 0.38242 0.86843 0.2342 0.0
H3136 H 0.89348 0.42018 0.72754 0.0
H3137 H 0.87022 0.36888 0.65082 0.0
H3138 H 0.84353 0.35173 0.71274 0.0
H3139 H 0.82518 0.35436 0.78654 0.0
H3140 H 0.85005 0.40437 0.86291 0.0
H3141 H 0.87757 0.41978 0.80235 0.0
C3142 C 0.88317 0.40456 0.72456 0.0
C3143 C 0.88437 0.39555 0.68436 0.0
C3144 C 0.86787 0.39509 0.75998 0.0
C3145 C 0.87022 0.37584 0.6813 0.0
C3146 C 0.85472 0.36632 0.71662 0.0
C3147 C 0.83712 0.3678 0.79073 0.0
C3148 C 0.83594 0.37725 0.83035 0.0
C3149 C 0.85321 0.37613 0.75586 0.0
C3150 C 0.85063 0.39635 0.83346 0.0
C3151 C 0.86644 0.40509 0.7988 0.0
H3152 H 0.32449 0.13628 0.45565 0.0
H3153 H 0.33565 0.07041 0.39624 0.0
H3154 H 0.35701 0.04871 0.45983 0.0
H3155 H 0.37437 0.04916 0.53013 0.0
H3156 H 0.36564 0.11592 0.58827 0.0
H3157 H 0.34268 0.13706 0.52651 0.0
C3158 C 0.33191 0.1174 0.45604 0.0
C3159 C 0.32844 0.10531 0.42013 0.0
C3160 C 0.345 0.10532 0.49244 0.0
C3161 C 0.33756 0.08023 0.423 0.0
C3162 C 0.35009 0.06792 0.45935 0.0
C3163 C 0.36741 0.06832 0.52989 0.0
C3164 C 0.37185 0.08056 0.56518 0.0
C3165 C 0.3542 0.08038 0.49397 0.0
C3166 C 0.3628 0.10572 0.56248 0.0
C3167 C 0.34948 0.1178 0.52697 0.0
H3168 H 0.57583 0.67262 0.13576 0.0
H3169 H 0.54748 0.62644 0.2583 0.0
H3170 H 0.56939 0.64725 0.30171 0.0
H3171 H 0.6001 0.67486 0.3058 0.0
H3172 H 0.62617 0.72436 0.18557 0.0
H3173 H 0.60155 0.70679 0.14094 0.0
C3174 C 0.57425 0.66745 0.17186 0.0
C3175 C 0.56075 0.64716 0.19328 0.0
C3176 C 0.5866 0.68011 0.19746 0.0
C3177 C 0.55847 0.6412 0.24036 0.0
C3178 C 0.57086 0.65326 0.26567 0.0
C3179 C 0.59989 0.68223 0.27003 0.0
C3180 C 0.61541 0.70005 0.24855 0.0
C3181 C 0.58551 0.67216 0.24468 0.0
C3182 C 0.61493 0.70973 0.20228 0.0
C3183 C 0.60077 0.69979 0.17682 0.0
H3184 H 0.14604 0.88677 0.98766 0.0
H3185 H 0.13528 0.80844 0.06016 0.0
H3186 H 0.12646 0.82363 0.12843 0.0
H3187 H 0.11893 0.8594 0.16711 0.0
H3188 H 0.12592 0.93803 0.09364 0.0
H3189 H 0.13962 0.92274 0.02744 0.0
C3190 C 0.14166 0.87308 0.0184 0.0
C3191 C 0.14113 0.84646 0.01846 0.0
C3192 C 0.1359 0.88207 0.05772 0.0
C3193 C 0.13549 0.82902 0.05876 0.0
C3194 C 0.13048 0.83771 0.09801 0.0
C3195 C 0.12344 0.87318 0.13658 0.0
C3196 C 0.12074 0.89985 0.13524 0.0
C3197 C 0.13022 0.86421 0.09783 0.0
C3198 C 0.1276 0.91739 0.09582 0.0
C3199 C 0.1352 0.90863 0.05762 0.0
H3200 H 0.9872 0.54635 0.13069 0.0
H3201 H 0.96666 0.47446 0.21706 0.0
H3202 H 0.98803 0.45023 0.16955 0.0
H3203 H 0.00962 0.45027 0.10221 0.0
H3204 H 0.03193 0.52182 0.01725 0.0
H3205 H 0.00989 0.54628 0.06367 0.0
C3206 C 0.98753 0.52538 0.13947 0.0
C3207 C 0.97443 0.51188 0.1753 0.0
C3208 C 0.99889 0.51195 0.11134 0.0
C3209 C 0.97593 0.48489 0.18801 0.0
C3210 C 0.98776 0.4712 0.16071 0.0
C3211 C 0.00968 0.47122 0.0934 0.0
C3212 C 0.02317 0.48443 0.05804 0.0
C3213 C 0.99851 0.48468 0.12154 0.0
C3214 C 0.02218 0.51148 0.04565 0.0
C3215 C 0.00997 0.52531 0.07241 0.0
H3216 H 0.76579 0.73973 0.44002 0.0
H3217 H 0.8064 0.73442 0.32243 0.0
H3218 H 0.77518 0.74646 0.27627 0.0
H3219 H 0.73676 0.75995 0.26945 0.0
H3220 H 0.69685 0.76715 0.38716 0.0
H3221 H 0.72803 0.75512 0.43274 0.0
C3222 C 0.76767 0.74113 0.40431 0.0
C3223 C 0.78821 0.73773 0.38415 0.0
C3224 C 0.75017 0.74948 0.37782 0.0
C3225 C 0.79058 0.73784 0.33844 0.0
C3226 C 0.77296 0.74529 0.31183 0.0
C3227 C 0.73515 0.75964 0.30485 0.0
C3228 C 0.71459 0.76266 0.3255 0.0
C3229 C 0.7529 0.75201 0.33109 0.0
C3230 C 0.71258 0.76374 0.37076 0.0
C3231 C 0.73021 0.7563 0.39716 0.0
H3232 H 0.49291 0.46644 0.7091 0.0
H3233 H 0.54588 0.51669 0.65205 0.0
H3234 H 0.52361 0.53802 0.59163 0.0
H3235 H 0.49304 0.53466 0.54586 0.0
H3236 H 0.43897 0.48659 0.60081 0.0
H3237 H 0.45938 0.46785 0.66711 0.0
C3238 C 0.49951 0.48189 0.68314 0.0
C3239 C 0.52152 0.48853 0.68314 0.0
C3240 C 0.48718 0.49277 0.64648 0.0
C3241 C 0.52922 0.51053 0.65238 0.0
C3242 C 0.5167 0.52237 0.61697 0.0
C3243 C 0.48525 0.52148 0.57363 0.0
C3244 C 0.46393 0.51389 0.57067 0.0
C3245 C 0.49638 0.51236 0.61226 0.0
C3246 C 0.455 0.49376 0.60375 0.0
C3247 C 0.46656 0.48324 0.64167 0.0
H3248 H 0.71454 0.25222 0.79298 0.0
H3249 H 0.75266 0.18374 0.84992 0.0
H3250 H 0.76907 0.20672 0.89921 0.0
H3251 H 0.77221 0.24616 0.92673 0.0
H3252 H 0.7348 0.31467 0.86929 0.0
H3253 H 0.71658 0.29113 0.82282 0.0
C3254 C 0.72656 0.2425 0.81596 0.0
C3255 C 0.73202 0.21634 0.81855 0.0
C3256 C 0.73571 0.25568 0.84455 0.0
C3257 C 0.74813 0.20394 0.84738 0.0
C3258 C 0.75742 0.21697 0.87583 0.0
C3259 C 0.76015 0.25591 0.90374 0.0
C3260 C 0.75572 0.28247 0.8992 0.0
C3261 C 0.75116 0.24275 0.87494 0.0
C3262 C 0.73895 0.2945 0.87208 0.0
C3263 C 0.72895 0.2812 0.8448 0.0
H3264 H 0.98882 0.48468 0.53371 0.0
H3265 H 0.94162 0.49298 0.63939 0.0
H3266 H 0.96737 0.51274 0.67469 0.0
H3267 H 0.00571 0.51817 0.68534 0.0
H3268 H 0.05456 0.50243 0.58839 0.0
H3269 H 0.02697 0.49194 0.5427 0.0
C3270 C 0.98422 0.49166 0.56368 0.0
C3271 C 0.96298 0.48906 0.58214 0.0
C3272 C 0.00011 0.49912 0.58786 0.0
C3273 C 0.95694 0.49733 0.62148 0.0
C3274 C 0.97221 0.50748 0.64333 0.0
C3275 C 0.0101 0.51164 0.65486 0.0
C3276 C 0.03193 0.50891 0.64124 0.0
C3277 C 0.99407 0.50667 0.62844 0.0
C3278 C 0.03788 0.50184 0.60103 0.0
C3279 C 0.02207 0.49708 0.57408 0.0
H3280 H 0.75171 0.69561 0.89425 0.0
H3281 H 0.774 0.73605 0.76306 0.0
H3282 H 0.76247 0.77725 0.78174 0.0
H3283 H 0.74519 0.80078 0.83512 0.0
H3284 H 0.72321 0.76031 0.96635 0.0
H3285 H 0.73589 0.71911 0.94855 0.0
C3286 C 0.75261 0.71326 0.86883 0.0
C3287 C 0.76308 0.71298 0.82712 0.0
C3288 C 0.74685 0.73651 0.88055 0.0
C3289 C 0.76519 0.73594 0.79471 0.0
C3290 C 0.75918 0.75942 0.8059 0.0
C3291 C 0.74426 0.78307 0.86039 0.0
C3292 C 0.73378 0.78327 0.90205 0.0
C3293 C 0.75033 0.75982 0.84889 0.0
C3294 C 0.73187 0.76035 0.93459 0.0
C3295 C 0.73845 0.73691 0.92386 0.0
H3296 H 0.4985 0.44691 0.14115 0.0
H3297 H 0.51343 0.47755 1.00092 0.0
H3298 H 0.51395 0.52131 0.01447 0.0
H3299 H 0.50754 0.55029 0.06575 0.0
H3300 H 0.48825 0.51898 0.20386 0.0
H3301 H 0.49039 0.47539 0.19066 0.0
C3302 C 0.50237 0.46301 0.11351 0.0
C3303 C 0.50597 0.45922 0.07015 0.0
C3304 C 0.50056 0.48781 0.12073 0.0
C3305 C 0.51083 0.48022 0.03469 0.0
C3306 C 0.51056 0.50515 0.04221 0.0
C3307 C 0.5031 0.53399 0.09254 0.0
C3308 C 0.49818 0.53743 0.13578 0.0
C3309 C 0.50462 0.50914 0.08484 0.0
C3310 C 0.49227 0.51641 0.17034 0.0
C3311 C 0.49386 0.4916 0.16303 0.0
H3312 H 0.7612 0.24254 0.27633 0.0
H3313 H 0.8067 0.22981 0.3816 0.0
H3314 H 0.77699 0.2354 0.43505 0.0
H3315 H 0.73796 0.24308 0.45211 0.0
H3316 H 0.69212 0.25161 0.34766 0.0
H3317 H 0.72183 0.24573 0.2948 0.0
C3318 C 0.76447 0.24033 0.31114 0.0
C3319 C 0.78584 0.23478 0.32511 0.0
C3320 C 0.74719 0.24182 0.34229 0.0
C3321 C 0.79025 0.2338 0.36982 0.0
C3322 C 0.77325 0.23654 0.40071 0.0
C3323 C 0.7344 0.24299 0.41807 0.0
C3324 C 0.71306 0.24875 0.40357 0.0
C3325 C 0.7516 0.24001 0.38744 0.0
C3326 C 0.70853 0.24775 0.35971 0.0
C3327 C 0.72555 0.24479 0.3291 0.0
H3328 H 0.29749 0.23875 0.84609 0.0
H3329 H 0.27057 0.21901 0.98207 0.0
H3330 H 0.23347 0.22345 0.95497 0.0
H3331 H 0.20957 0.2386 0.89406 0.0
H3332 H 0.23654 0.26176 0.75935 0.0
H3333 H 0.27384 0.25391 0.7857 0.0
C3334 C 0.28357 0.23464 0.87002 0.0
C3335 C 0.28643 0.22932 0.91593 0.0
C3336 C 0.26272 0.23991 0.85485 0.0
C3337 C 0.26844 0.2233 0.94648 0.0
C3338 C 0.24737 0.22647 0.9312 0.0
C3339 C 0.22364 0.24212 0.87081 0.0
C3340 C 0.22081 0.24996 0.82535 0.0
C3341 C 0.24447 0.23615 0.88581 0.0
C3342 C 0.23883 0.25558 0.7948 0.0
C3343 C 0.2599 0.25045 0.80961 0.0
H3344 H 0.23117 0.75278 0.2658 0.0
H3345 H 0.26907 0.68383 0.3199 0.0
H3346 H 0.29015 0.70784 0.36103 0.0
H3347 H 0.29118 0.74535 0.39518 0.0
H3348 H 0.2487 0.81172 0.35067 0.0
H3349 H 0.2353 0.79179 0.29388 0.0
C3350 C 0.24475 0.74339 0.28507 0.0
C3351 C 0.24825 0.71656 0.29062 0.0
C3352 C 0.25495 0.75654 0.31262 0.0
C3353 C 0.26607 0.7045 0.31487 0.0
C3354 C 0.2776 0.71804 0.33976 0.0
C3355 C 0.27939 0.75565 0.37246 0.0
C3356 C 0.27193 0.78061 0.37557 0.0
C3357 C 0.27103 0.7435 0.34128 0.0
C3358 C 0.25531 0.79291 0.34809 0.0
C3359 C 0.24752 0.78144 0.31573 0.0
H3360 H 0.24463 0.19736 0.37623 0.0
H3361 H 0.27461 0.24612 0.25912 0.0
H3362 H 0.26028 0.28478 0.28397 0.0
H3363 H 0.2432 0.30406 0.3441 0.0
H3364 H 0.217 0.2547 0.46484 0.0
H3365 H 0.22768 0.21644 0.43571 0.0
C3366 C 0.24747 0.21649 0.35576 0.0
C3367 C 0.2604 0.21913 0.31601 0.0
C3368 C 0.24117 0.23827 0.37244 0.0
C3369 C 0.26419 0.24383 0.28943 0.0
C3370 C 0.25659 0.26583 0.30429 0.0
C3371 C 0.24027 0.28493 0.36422 0.0
C3372 C 0.22933 0.28203 0.40634 0.0
C3373 C 0.24599 0.26319 0.34675 0.0
C3374 C 0.22559 0.25719 0.4324 0.0
C3375 C 0.23129 0.23543 0.41544 0.0
H3376 H 0.28998 0.72581 0.87761 0.0
H3377 H 0.27142 0.7651 0.74611 0.0
H3378 H 0.23924 0.78477 0.77883 0.0
H3379 H 0.21541 0.7875 0.84411 0.0
H3380 H 0.23197 0.74491 0.97444 0.0
H3381 H 0.26622 0.72879 0.94271 0.0
C3382 C 0.27913 0.73911 0.85615 0.0
C3383 C 0.2829 0.74433 0.80973 0.0
C3384 C 0.2602 0.7488 0.87481 0.0
C3385 C 0.26869 0.76116 0.78203 0.0
C3386 C 0.25028 0.77204 0.8006 0.0
C3387 C 0.22626 0.7742 0.86516 0.0
C3388 C 0.22119 0.7667 0.9109 0.0
C3389 C 0.24558 0.76526 0.84673 0.0
C3390 C 0.23567 0.75044 0.93884 0.0
C3391 C 0.25518 0.74149 0.92083 0.0
H3392 H 0.48735 0.01992 0.69081 0.0
H3393 H 0.44754 0.96146 0.66084 0.0
H3394 H 0.4769 0.9502 0.6104 0.0
H3395 H 0.51065 0.96312 0.56585 0.0
H3396 H 0.55266 0.01667 0.6051 0.0
H3397 H 0.52447 0.02601 0.65789 0.0
C3398 C 0.48551 0.00403 0.67447 0.0
C3399 C 0.46513 0.99274 0.67635 0.0
C3400 C 0.50204 -0.00169 0.64504 0.0
C3401 C 0.46287 0.97141 0.65732 0.0
C3402 C 0.47946 0.96523 0.62817 0.0
C3403 C 0.51379 0.97662 0.5861 0.0
C3404 C 0.53357 0.98976 0.58008 0.0
C3405 C 0.49846 0.97986 0.61971 0.0
C3406 C 0.53721 0.00746 0.60653 0.0
C3407 C 0.52138 0.01208 0.6382 0.0
H3408 H 0.00053 0.95964 0.1934 0.0
H3409 H 0.05195 0.00946 0.12539 0.0
H3410 H 0.02776 0.0286 0.06691 0.0
H3411 H 0.99302 0.02917 0.03253 0.0
H3412 H 0.9412 0.98016 0.09945 0.0
H3413 H 0.9653 0.9604 0.15872 0.0
C3414 C 0.00649 0.97422 0.16542 0.0
C3415 C 0.02824 0.98192 0.16258 0.0
C3416 C 0.9927 0.98475 0.13118 0.0
C3417 C 0.03539 0.00247 0.12788 0.0
C3418 C 0.02168 0.01335 0.09405 0.0
C3419 C 0.98692 0.01462 0.0606 0.0
C3420 C 0.96507 0.00746 0.06354 0.0
C3421 C 0.00054 0.00416 0.09491 0.0
C3422 C 0.95774 0.9869 0.09782 0.0
C3423 C 0.97144 0.97571 0.13177 0.0
H3424 H 0.49884 0.96716 0.04567 0.0
H3425 H 0.44129 0.0011 0.09687 0.0
H3426 H 0.46247 0.0211 0.14375 0.0
H3427 H 0.49787 0.02532 0.17335 0.0
H3428 H 0.55511 0.9905 0.12296 0.0
H3429 H 0.53395 0.97102 0.0755 0.0
C3430 C 0.49103 0.9793 0.0666 0.0
C3431 C 0.46829 0.98301 0.06876 0.0
C3432 C 0.50339 0.98861 0.09536 0.0
C3433 C 0.4585 -0.0011 0.09501 0.0
C3434 C 0.47068 0.00948 0.12246 0.0
C3435 C 0.50555 0.01292 0.15277 0.0
C3436 C 0.52825 0.00861 0.15114 0.0
C3437 C 0.4931 0.0036 0.12399 0.0
C3438 C 0.5379 0.99276 0.12476 0.0
C3439 C 0.52575 0.98258 0.09691 0.0
H3440 H 0.00658 0.97929 0.5136 0.0
H3441 H 0.02569 0.92957 0.63742 0.0
H3442 H 0.02129 0.96515 0.67417 0.0
H3443 H 0.00777 0.0086 0.67367 0.0
H3444 H 0.99581 0.0615 0.54865 0.0
H3445 H -0.00029 0.02582 0.5103 0.0
C3446 C 0.01061 0.97651 0.54817 0.0
C3447 C 0.01429 0.9515 0.57389 0.0
C3448 C 0.00842 -0.00272 0.56923 0.0
C3449 C 0.02143 0.94845 0.61741 0.0
C3450 C 0.01871 0.96873 0.63885 0.0
C3451 C 0.00659 0.01251 0.63789 0.0
C3452 C 0.00233 0.03762 0.61395 0.0
C3453 C 0.01116 0.9928 0.61555 0.0
C3454 C 0.99921 0.04217 0.56797 0.0
C3455 C 0.00203 0.02199 0.54578 0.0
H3456 H 0.97753 0.3946 0.85517 0.0
H3457 H 0.0288 0.44804 0.8024 0.0
H3458 H 0.00973 0.46195 0.73248 0.0
H3459 H 0.97957 0.45606 0.68325 0.0
H3460 H 0.9289 0.4022 0.73767 0.0
H3461 H 0.94653 0.3911 0.80875 0.0
C3462 C 0.98421 0.40998 0.82903 0.0
C3463 C 0.0045 0.42067 0.83527 0.0
C3464 C 0.97325 0.41755 0.7884 0.0
C3465 C 0.01302 0.43997 0.79983 0.0
C3466 C 0.0022 0.44762 0.75928 0.0
C3467 C 0.97194 0.44263 0.71111 0.0
C3468 C 0.95196 0.4311 0.70525 0.0
C3469 C 0.98244 0.43625 0.75271 0.0
C3470 C 0.94339 0.41241 0.74134 0.0
C3471 C 0.95372 0.40582 0.78215 0.0
H3472 H 0.82709 0.72697 0.07345 0.0
H3473 H 0.80627 0.64973 0.13226 0.0
H3474 H 0.82175 0.65203 0.20305 0.0
H3475 H 0.84777 0.67321 0.24146 0.0
H3476 H 0.86747 0.75092 0.18235 0.0
H3477 H 0.84589 0.75152 0.11776 0.0
C3478 C 0.82588 0.71082 0.1021 0.0
C3479 C 0.81629 0.68801 0.0983 0.0
C3480 C 0.83486 0.71231 0.14188 0.0
C3481 C 0.81401 0.66727 0.13515 0.0
C3482 C 0.82269 0.66869 0.17536 0.0
C3483 C 0.84658 0.69049 0.21504 0.0
C3484 C 0.85923 0.71187 0.21551 0.0
C3485 C 0.8342 0.69061 0.17823 0.0
C3486 C 0.85785 0.7343 0.18175 0.0
C3487 C 0.8457 0.73455 0.14492 0.0
H3488 H 0.49679 0.56035 0.29606 0.0
H3489 H 0.46361 0.63 0.22735 0.0
H3490 H 0.43865 0.62923 0.2922 0.0
H3491 H 0.42904 0.61122 0.37162 0.0
H3492 H 0.46659 0.54568 0.44185 0.0
H3493 H 0.48731 0.54243 0.37329 0.0
C3494 C 0.48398 0.5753 0.29468 0.0
C3495 C 0.48183 0.59497 0.25613 0.0
C3496 C 0.47056 0.57545 0.33276 0.0
C3497 C 0.46529 0.61425 0.25578 0.0
C3498 C 0.45114 0.61396 0.29319 0.0
C3499 C 0.44123 0.59575 0.37119 0.0
C3500 C 0.44589 0.5782 0.41081 0.0
C3501 C 0.45388 0.59488 0.33212 0.0
C3502 C 0.46241 0.55893 0.41114 0.0
C3503 C 0.47437 0.55721 0.37214 0.0
H3504 H 0.65692 0.22848 0.72129 0.0
H3505 H 0.67968 0.15703 0.68678 0.0
H3506 H 0.67931 0.17867 0.6071 0.0
H3507 H 0.67486 0.21973 0.54799 0.0
H3508 H 0.65292 0.28973 0.589 0.0
H3509 H 0.65042 0.26654 0.66631 0.0
C3510 C 0.66187 0.21722 0.69695 0.0
C3511 C 0.66913 0.19124 0.71038 0.0
C3512 C 0.66155 0.22965 0.65233 0.0
C3513 C 0.67474 0.17724 0.67748 0.0
C3514 C 0.67437 0.18962 0.632 0.0
C3515 C 0.66911 0.22956 0.57403 0.0
C3516 C 0.66409 0.25637 0.56321 0.0
C3517 C 0.66817 0.21606 0.61906 0.0
C3518 C 0.6569 0.26917 0.59682 0.0
C3519 C 0.65549 0.25593 0.64094 0.0
H3520 H 0.95469 0.52872 0.0268 0.0
H3521 H 0.96395 0.60228 0.06038 0.0
H3522 H 0.98692 0.6159 0.99281 0.0
H3523 H 0.00497 0.60759 0.92441 0.0
H3524 H 0.99804 0.53409 0.88966 0.0
H3525 H 0.97316 0.52044 0.95592 0.0
C3526 C 0.9616 0.5478 0.01923 0.0
C3527 C 0.95737 0.56432 0.0495 0.0
C3528 C 0.97518 0.55576 0.97955 0.0
C3529 C 0.96679 0.58889 0.03865 0.0
C3530 C 0.97998 0.59685 0.99958 0.0
C3531 C 0.99825 0.58843 0.93118 0.0
C3532 C 0.00389 0.57188 0.90171 0.0
C3533 C 0.9844 0.58048 0.9699 0.0
C3534 C 0.99415 0.54747 0.91109 0.0
C3535 C 0.98 0.53953 0.94942 0.0
H3536 H 0.67121 0.80522 0.17518 0.0
H3537 H 0.66059 0.72952 0.15276 0.0
H3538 H 0.66034 0.74708 0.07257 0.0
H3539 H 0.66509 0.78316 1.00928 0.0
H3540 H 0.67735 0.85925 0.02922 0.0
H3541 H 0.67542 0.84234 0.11013 0.0
C3542 C 0.66849 0.79283 0.15255 0.0
C3543 C 0.66507 0.76637 0.16947 0.0
C3544 C 0.66911 0.80301 0.10627 0.0
C3545 C 0.66226 0.75014 0.14025 0.0
C3546 C 0.66243 0.76011 0.09447 0.0
C3547 C 0.66723 0.79623 0.0311 0.0
C3548 C 0.67147 0.82246 0.01315 0.0
C3549 C 0.66608 0.78643 0.07716 0.0
C3550 C 0.67415 0.83896 0.04219 0.0
C3551 C 0.67304 0.8293 0.08842 0.0
H3552 H 0.52595 0.36202 0.47555 0.0
H3553 H 0.57256 0.41947 0.41208 0.0
H3554 H 0.57592 0.40064 0.34634 0.0
H3555 H 0.56186 0.37132 0.30365 0.0
H3556 H 0.51482 0.31439 0.36632 0.0
H3557 H 0.51532 0.32926 0.4361 0.0
C3558 C 0.53726 0.3699 0.44773 0.0
C3559 C 0.54887 0.39213 0.44804 0.0
C3560 C 0.53877 0.35925 0.40994 0.0
C3561 C 0.5634 0.40241 0.412 0.0
C3562 C 0.56524 0.39174 0.37451 0.0
C3563 C 0.5522 0.36188 0.33309 0.0
C3564 C 0.53852 0.34177 0.33074 0.0
C3565 C 0.55244 0.37073 0.37255 0.0
C3566 C 0.52562 0.32977 0.36823 0.0
C3567 C 0.52585 0.33833 0.40781 0.0
H3568 H 0.82971 0.23234 0.64834 0.0
H3569 H 0.85315 0.31003 0.62672 0.0
H3570 H 0.85933 0.31123 0.54699 0.0
H3571 H 0.86842 0.28589 0.4902 0.0
H3572 H 0.84634 0.20767 0.5125 0.0
H3573 H 0.83022 0.21067 0.58579 0.0
C3574 C 0.83608 0.24961 0.62611 0.0
C3575 C 0.84181 0.27062 0.64354 0.0
C3576 C 0.84089 0.24969 0.58114 0.0
C3577 C 0.84904 0.29337 0.61426 0.0
C3578 C 0.85303 0.29393 0.56897 0.0
C3579 C 0.85953 0.26982 0.51074 0.0
C3580 C 0.85906 0.24637 0.49698 0.0
C3581 C 0.85061 0.27155 0.55295 0.0
C3582 C 0.84711 0.22579 0.52298 0.0
C3583 C 0.83804 0.22744 0.56492 0.0
H3584 H 0.01455 0.56548 0.5514 0.0
H3585 H 0.07842 0.55671 0.48699 0.0
H3586 H 0.06166 0.56152 0.41569 0.0
H3587 H 0.02933 0.56987 0.36975 0.0
H3588 H 0.96486 0.57736 0.43166 0.0
H3589 H 0.98107 0.57076 0.50485 0.0
C3590 C 0.02484 0.5648 0.52171 0.0
C3591 C 0.04807 0.5611 0.52515 0.0
C3592 C 0.01484 0.56699 0.48 0.0
C3593 C 0.06073 0.55964 0.48602 0.0
C3594 C 0.05107 0.56236 0.44491 0.0
C3595 C 0.01865 0.56961 0.39928 0.0
C3596 C 0.99566 0.57403 0.3944 0.0
C3597 C 0.0282 0.56613 0.44128 0.0
C3598 C 0.98242 0.57363 0.4337 0.0
C3599 C 0.99183 0.57022 0.47574 0.0
H3600 H 0.20505 0.25653 0.13198 0.0
H3601 H 0.17795 0.32971 0.15467 0.0
H3602 H 0.16852 0.34202 0.07865 0.0
H3603 H 0.15527 0.32613 0.01495 0.0
H3604 H 0.17322 0.24862 1.00256 0.0
H3605 H 0.19654 0.24333 0.06612 0.0
C3606 C 0.19617 0.27475 0.12173 0.0
C3607 C 0.19073 0.29067 0.15193 0.0
C3608 C 0.1878 0.28064 0.07934 0.0
C3609 C 0.18175 0.31573 0.13456 0.0
C3610 C 0.17572 0.3229 0.09049 0.0
C3611 C 0.16465 0.30828 0.02586 0.0
C3612 C 0.16185 0.28744 1.00571 0.0
C3613 C 0.1767 0.30454 0.06417 0.0
C3614 C 0.17494 0.26485 0.01792 0.0
C3615 C 0.18815 0.2617 0.05424 0.0
H3616 H 0.50942 0.36168 0.94809 0.0
H3617 H 0.52172 0.43644 0.97328 0.0
H3618 H 0.54529 0.44694 0.90557 0.0
H3619 H 0.55919 0.43688 0.83639 0.0
H3620 H 0.55029 0.36151 0.8109 0.0
H3621 H 0.52812 0.3493 0.88085 0.0
C3622 C 0.51768 0.37998 0.93891 0.0
C3623 C 0.51382 0.39843 0.96506 0.0
C3624 C 0.53124 0.38599 0.89947 0.0
C3625 C 0.52442 0.42212 0.95324 0.0
C3626 C 0.53784 0.42815 0.91454 0.0
C3627 C 0.55274 0.41759 0.84607 0.0
C3628 C 0.55552 0.40057 0.81699 0.0
C3629 C 0.54086 0.41053 0.88689 0.0
C3630 C 0.54736 0.37552 0.83114 0.0
C3631 C 0.53496 0.36841 0.87162 0.0
H3632 H 0.35258 0.79519 0.5274 0.0
H3633 H 0.28288 0.79187 0.51486 0.0
H3634 H 0.27885 0.76407 0.58939 0.0
H3635 H 0.29572 0.73805 0.65513 0.0
H3636 H 0.36582 0.73922 0.66703 0.0
H3637 H 0.36938 0.7705 0.59555 0.0
C3638 C 0.33649 0.78899 0.54195 0.0
C3639 C 0.31779 0.79661 0.51745 0.0
C3640 C 0.33456 0.77218 0.58394 0.0
C3641 C 0.29714 0.7875 0.53477 0.0
C3642 C 0.29496 0.77116 0.57682 0.0
C3643 C 0.31178 0.7451 0.64197 0.0
C3644 C 0.33055 0.73616 0.66568 0.0
C3645 C 0.31363 0.763 0.60125 0.0
C3646 C 0.35119 0.74588 0.64908 0.0
C3647 C 0.35322 0.76369 0.60829 0.0
H3648 H 0.03726 0.39828 0.19807 0.0
H3649 H 0.04315 0.48031 0.18557 0.0
H3650 H 0.02116 0.47809 0.25503 0.0
H3651 H 0.99815 0.45308 0.31896 0.0
H3652 H 0.99438 0.37068 0.33349 0.0
H3653 H 0.01753 0.37279 0.26541 0.0
C3654 C 0.03384 0.41566 0.21061 0.0
C3655 C 0.04202 0.43946 0.18591 0.0
C3656 C 0.02147 0.41418 0.25178 0.0
C3657 C 0.03741 0.46163 0.20351 0.0
C3658 C 0.0247 0.4604 0.24354 0.0
C3659 C 0.0029 0.4355 0.30794 0.0
C3660 C 0.99439 0.41167 0.33196 0.0
C3661 C 0.01646 0.43681 0.26811 0.0
C3662 C 0.00061 0.38927 0.31616 0.0
C3663 C 0.01378 0.39047 0.2768 0.0
H3664 H 0.30358 0.22253 0.05482 0.0
H3665 H 0.37441 0.22355 0.04891 0.0
H3666 H 0.37475 0.19747 0.12545 0.0
H3667 H 0.35436 0.17815 0.19658 0.0
H3668 H 0.28401 0.18734 0.20467 0.0
H3669 H 0.28361 0.20509 0.12498 0.0
C3670 C 0.31911 0.21731 0.07042 0.0
C3671 C 0.3389 0.22557 0.04695 0.0
C3672 C 0.31908 0.20349 0.11464 0.0
C3673 C 0.35894 0.21758 0.06666 0.0
C3674 C 0.35912 0.20282 0.11042 0.0
C3675 C 0.33901 0.18336 0.18026 0.0
C3676 C 0.31892 0.17886 0.20516 0.0
C3677 C 0.33924 0.19618 0.13509 0.0
C3678 C 0.29924 0.18762 0.18501 0.0
C3679 C 0.29916 0.19862 0.13967 0.0
H3680 H 0.45058 0.63291 0.91381 0.0
H3681 H 0.50539 0.67303 0.83808 0.0
H3682 H 0.50055 0.65123 0.77744 0.0
H3683 H 0.48205 0.61904 0.74802 0.0
H3684 H 0.42701 0.57886 0.82282 0.0
H3685 H 0.43012 0.60285 0.8814 0.0
C3686 C 0.46129 0.63688 0.8838 0.0
C3687 C 0.47826 0.65445 0.87992 0.0
C3688 C 0.45826 0.62444 0.849 0.0
C3689 C 0.49213 0.65965 0.84121 0.0
C3690 C 0.48938 0.6472 0.80671 0.0
C3691 C 0.4705 0.61591 0.77679 0.0
C3692 C 0.45449 0.5971 0.7816 0.0
C3693 C 0.47263 0.62943 0.8104 0.0
C3694 C 0.43966 0.59305 0.819 0.0
C3695 C 0.44147 0.6067 0.85241 0.0
H3696 H 0.13701 0.69864 0.74117 0.0
H3697 H 0.15767 0.77747 0.7003 0.0
H3698 H 0.17247 0.76945 0.62889 0.0
H3699 H 0.17009 0.74318 0.57274 0.0
H3700 H 0.14817 0.66491 0.61348 0.0
H3701 H 0.1452 0.66866 0.69146 0.0
C3702 C 0.14551 0.71368 0.71716 0.0
C3703 C 0.14574 0.73873 0.72476 0.0
C3704 C 0.15364 0.70901 0.67622 0.0
C3705 C 0.15707 0.75814 0.69431 0.0
C3706 C 0.16539 0.75361 0.65352 0.0
C3707 C 0.1654 0.72675 0.59911 0.0
C3708 C 0.15889 0.70403 0.58819 0.0
C3709 C 0.16237 0.72962 0.64311 0.0
C3710 C 0.15291 0.68265 0.62181 0.0
C3711 C 0.15078 0.68498 0.66597 0.0
H3712 H 0.44754 0.95487 0.22359 0.0
H3713 H 0.487 0.90641 0.15213 0.0
H3714 H 0.51272 0.89699 0.21023 0.0
H3715 H 0.52394 0.9 0.2837 0.0
H3716 H 0.48597 0.94763 0.35852 0.0
H3717 H 0.4606 0.9601 0.29748 0.0
C3718 C 0.46174 0.94226 0.22064 0.0
C3719 C 0.46456 0.93093 0.18281 0.0
C3720 C 0.47715 0.93681 0.25521 0.0
C3721 C 0.48354 0.91501 0.18033 0.0
C3722 C 0.49863 0.90967 0.21386 0.0
C3723 C 0.5103 0.91345 0.28661 0.0
C3724 C 0.50712 0.92281 0.32617 0.0
C3725 C 0.49554 0.92013 0.25172 0.0
C3726 C 0.48923 0.94028 0.32862 0.0
C3727 C 0.47448 0.94719 0.29371 0.0
H3728 H 0.35194 0.22968 0.54913 0.0
H3729 H 0.30247 0.17342 0.59968 0.0
H3730 H 0.31663 0.16612 0.67469 0.0
H3731 H 0.34358 0.17597 0.72487 0.0
H3732 H 0.39315 0.23197 0.67239 0.0
H3733 H 0.37822 0.23986 0.59865 0.0
C3734 C 0.34433 0.21591 0.57681 0.0
C3735 C 0.32646 0.20194 0.56991 0.0
C3736 C 0.3523 0.21225 0.61911 0.0
C3737 C 0.31638 0.18418 0.60518 0.0
C3738 C 0.32438 0.18015 0.6477 0.0
C3739 C 0.35118 0.18954 0.69692 0.0
C3740 C 0.36966 0.20291 0.70297 0.0
C3741 C 0.34242 0.19401 0.65493 0.0
C3742 C 0.37917 0.22114 0.6675 0.0
C3743 C 0.37053 0.22584 0.62575 0.0
H3744 H 0.97311 0.06521 0.92253 0.0
H3745 H 0.91026 0.09521 0.87305 0.0
H3746 H 0.92653 0.10376 0.79631 0.0
H3747 H 0.95903 0.10198 0.74426 0.0
H3748 H 0.02075 0.07063 0.79644 0.0
H3749 H 0.00454 0.0633 0.8721 0.0
C3750 C 0.96286 0.07372 0.89508 0.0
C3751 C 0.94055 0.07981 0.90313 0.0
C3752 C 0.97221 0.07836 0.85192 0.0
C3753 C 0.92747 0.09033 0.86728 0.0
C3754 C 0.93679 0.09532 0.82367 0.0
C3755 C 0.96887 0.09404 0.77228 0.0
C3756 C 0.99106 0.0871 0.76519 0.0
C3757 C 0.9592 0.08946 0.81568 0.0
C3758 C 0.00366 0.07601 0.80146 0.0
C3759 C 0.99439 0.07185 0.84458 0.0
H3760 H 0.14458 0.75198 0.0793 0.0
H3761 H 0.21365 0.75847 0.0406 0.0
H3762 H 0.22299 0.72733 0.10826 0.0
H3763 H 0.21172 0.70248 0.18221 0.0
H3764 H 0.14301 0.69669 0.22316 0.0
H3765 H 0.13305 0.72325 0.15081 0.0
C3766 C 0.1616 0.74639 0.08592 0.0
C3767 C 0.1785 0.75813 0.05656 0.0
C3768 C 0.16682 0.72856 0.12495 0.0
C3769 C 0.2005 0.75037 0.0641 0.0
C3770 C 0.20584 0.73242 0.10241 0.0
C3771 C 0.1946 0.70614 0.17424 0.0
C3772 C 0.17802 0.69715 0.20641 0.0
C3773 C 0.18918 0.72195 0.13356 0.0
C3774 C 0.15585 0.70284 0.1975 0.0
C3775 C 0.15023 0.71828 0.15664 0.0
H3776 H 0.45976 0.06553 0.37622 0.0
H3777 H 0.52346 0.07748 0.42019 0.0
H3778 H 0.50888 0.06721 0.49824 0.0
H3779 H 0.47682 0.05691 0.5541 0.0
H3780 H 0.41371 0.04481 0.50655 0.0
H3781 H 0.42906 0.0537 0.43035 0.0
C3782 C 0.47058 0.06557 0.40289 0.0
C3783 C 0.49272 0.07224 0.39215 0.0
C3784 C 0.462 0.06004 0.44734 0.0
C3785 C 0.50645 0.07209 0.42733 0.0
C3786 C 0.498 0.06653 0.47201 0.0
C3787 C 0.46646 0.05621 0.52702 0.0
C3788 C 0.44396 0.05018 0.53644 0.0
C3789 C 0.47562 0.06088 0.48248 0.0
C3790 C 0.43097 0.04921 0.50074 0.0
C3791 C 0.43977 0.05425 0.45692 0.0
H3792 H 0.20181 0.30189 0.52501 0.0
H3793 H 0.13837 0.34055 0.52635 0.0
H3794 H 0.13098 0.31769 0.60425 0.0
H3795 H 0.14218 0.28437 0.66981 0.0
H3796 H 0.20785 0.25023 0.66846 0.0
H3797 H 0.21498 0.27413 0.59273 0.0
C3798 C 0.18689 0.30643 0.54306 0.0
C3799 C 0.17108 0.32376 0.52102 0.0
C3800 C 0.18306 0.29371 0.58753 0.0
C3801 C 0.15108 0.32802 0.5436 0.0
C3802 C 0.14679 0.31472 0.5878 0.0
C3803 C 0.1582 0.28266 0.65347 0.0
C3804 C 0.17434 0.26545 0.6752 0.0
C3805 C 0.1626 0.29723 0.60995 0.0
C3806 C 0.19492 0.26311 0.65279 0.0
C3807 C 0.19914 0.27685 0.60934 0.0
H3808 H 0.01936 0.86556 0.98398 0.0
H3809 H 0.06378 0.92628 0.92476 0.0
H3810 H 0.0702 0.90775 0.85899 0.0
H3811 H 0.05888 0.87793 0.81415 0.0
H3812 H 0.01302 0.81855 0.87165 0.0
H3813 H 0.01128 0.83269 0.94233 0.0
C3814 C 0.03104 0.87408 0.9573 0.0
C3815 C 0.04122 0.89708 0.95894 0.0
C3816 C 0.03396 0.86386 0.91899 0.0
C3817 C 0.05598 0.90841 0.92401 0.0
C3818 C 0.05944 0.898 0.88631 0.0
C3819 C 0.04895 0.86784 0.84266 0.0
C3820 C 0.03623 0.84721 0.83848 0.0
C3821 C 0.04785 0.87633 0.88272 0.0
C3822 C 0.02303 0.83438 0.87484 0.0
C3823 C 0.02202 0.8425 0.91501 0.0
H3824 H 0.34618 0.7496 0.15882 0.0
H3825 H 0.32991 0.82928 0.10047 0.0
H3826 H 0.34311 0.82313 0.02687 0.0
H3827 H 0.35762 0.79467 0.97885 0.0
H3828 H 0.37221 0.71428 0.03585 0.0
H3829 H 0.36129 0.72095 0.11034 0.0
C3830 C 0.34608 0.76566 0.13 0.0
C3831 C 0.3374 0.78991 0.13459 0.0
C3832 C 0.35317 0.76177 0.08771 0.0
C3833 C 0.33676 0.81055 0.09728 0.0
C3834 C 0.34416 0.80699 0.05535 0.0
C3835 C 0.3586 0.77869 1.00768 0.0
C3836 C 0.36579 0.75408 1.00207 0.0
C3837 C 0.35213 0.78263 0.0501 0.0
C3838 C 0.36658 0.73338 0.03947 0.0
C3839 C 0.36048 0.73722 0.08202 0.0
H3840 H 0.46434 0.07356 0.95589 0.0
H3841 H 0.51161 0.05939 0.8533 0.0
H3842 H 0.54029 0.05162 0.90788 0.0
H3843 H 0.55266 0.05081 0.98559 0.0
H3844 H 0.50437 0.06939 0.08279 0.0
H3845 H 0.47607 0.07448 0.02913 0.0
C3846 C 0.48085 0.06952 0.94405 0.0
C3847 C 0.48518 0.06789 0.89872 0.0
C3848 C 0.49755 0.06612 0.97526 0.0
C3849 C 0.50708 0.06098 0.88708 0.0
C3850 C 0.52375 0.0567 0.91858 0.0
C3851 C 0.53597 0.05613 0.99496 0.0
C3852 C 0.5311 0.0602 0.03884 0.0
C3853 C 0.51931 0.05953 0.96288 0.0
C3854 C 0.50914 0.06683 0.04966 0.0
C3855 C 0.49271 0.06951 0.01881 0.0
H3856 H 0.64874 0.82922 0.49539 0.0
H3857 H 0.66265 0.74737 0.51418 0.0
H3858 H 0.68489 0.74825 0.57717 0.0
H3859 H 0.69189 0.77013 0.63675 0.0
H3860 H 0.6751 0.8512 0.62238 0.0
H3861 H 0.66349 0.85344 0.54678 0.0
C3862 C 0.65731 0.81186 0.51259 0.0
C3863 C 0.65363 0.78812 0.50176 0.0
C3864 C 0.66908 0.81238 0.54997 0.0
C3865 C 0.66513 0.76572 0.52276 0.0
C3866 C 0.67754 0.76619 0.55906 0.0
C3867 C 0.68589 0.78832 0.61666 0.0
C3868 C 0.68379 0.81037 0.63471 0.0
C3869 C 0.67818 0.789 0.57474 0.0
C3870 C 0.67627 0.83395 0.60894 0.0
C3871 C 0.66969 0.83515 0.56598 0.0
H3872 H 0.03181 0.88356 0.31486 0.0
H3873 H 0.08566 0.92466 0.34721 0.0
H3874 H 0.07048 0.91862 0.42436 0.0
H3875 H 0.03926 0.9051 0.4803 0.0
H3876 H 0.98646 0.86318 0.44522 0.0
H3877 H 0.00408 0.8653 0.37149 0.0
C3878 C 0.04048 0.89084 0.33873 0.0
C3879 C 0.05958 0.90502 0.325 0.0
C3880 C 0.03185 0.88685 0.38267 0.0
C3881 C 0.07075 0.91401 0.35681 0.0
C3882 C 0.06205 0.91051 0.4009 0.0
C3883 C 0.03217 0.89567 0.45686 0.0
C3884 C 0.01181 0.88361 0.46798 0.0
C3885 C 0.0423 0.8974 0.41398 0.0
C3886 C 0.00231 0.87207 0.43732 0.0
C3887 C 0.01227 0.87353 0.39508 0.0
H3888 H 0.85273 0.29584 0.0112 0.0
H3889 H 0.78536 0.27918 0.99507 0.0
H3890 H 0.7843 0.24765 0.06476 0.0
H3891 H 0.80056 0.22862 0.13495 0.0
H3892 H 0.86838 0.24243 0.15189 0.0
H3893 H 0.87094 0.27166 0.07879 0.0
C3894 C 0.83815 0.28466 0.0224 0.0
C3895 C 0.81926 0.28989 0.99775 0.0
C3896 C 0.83734 0.26675 0.06376 0.0
C3897 C 0.80029 0.27547 0.01292 0.0
C3898 C 0.79948 0.25758 0.05331 0.0
C3899 C 0.81594 0.23792 0.1226 0.0
C3900 C 0.83391 0.23423 0.1497 0.0
C3901 C 0.8176 0.25379 0.07977 0.0
C3902 C 0.85394 0.24579 0.13259 0.0
C3903 C 0.85554 0.26228 0.09037 0.0
H3904 H 0.54887 0.96704 0.7003 0.0
H3905 H 0.54414 0.89285 0.6663 0.0
H3906 H 0.519 0.87861 0.73037 0.0
H3907 H 0.49715 0.88701 0.79464 0.0
H3908 H 0.4995 0.96102 0.82969 0.0
H3909 H 0.52691 0.97513 0.76799 0.0
C3910 C 0.54257 0.94766 0.70741 0.0
C3911 C 0.54859 0.93107 0.6782 0.0
C3912 C 0.52759 0.93945 0.74472 0.0
C3913 C 0.53987 0.90615 0.68774 0.0
C3914 C 0.52544 0.89789 0.7246 0.0
C3915 C 0.50356 0.9063 0.78893 0.0
C3916 C 0.49589 0.92296 0.8168 0.0
C3917 C 0.51897 0.9144 0.75302 0.0
C3918 C 0.50502 0.94764 0.80915 0.0
C3919 C 0.52063 0.9558 0.77353 0.0
H3920 H 0.85498 0.74674 0.57486 0.0
H3921 H 0.81028 0.69883 0.52911 0.0
H3922 H 0.80573 0.67165 0.60459 0.0
H3923 H 0.8136 0.66277 0.68452 0.0
H3924 H 0.85399 0.71499 0.73042 0.0
H3925 H 0.86123 0.73914 0.65477 0.0
C3926 C 0.84451 0.73011 0.58154 0.0
C3927 C 0.83335 0.72432 0.54678 0.0
C3928 C 0.84112 0.71548 0.62524 0.0
C3929 C 0.81924 0.7033 0.55562 0.0
C3930 C 0.81661 0.68785 0.59868 0.0
C3931 C 0.82391 0.67939 0.67796 0.0
C3932 C 0.83301 0.68713 0.71359 0.0
C3933 C 0.82733 0.69389 0.63395 0.0
C3934 C 0.84653 0.70871 0.70414 0.0
C3935 C 0.85078 0.72254 0.6606 0.0
H3936 H 0.00365 0.1557 0.34214 0.0
H3937 H 0.95949 0.11651 0.44834 0.0
H3938 H 0.94736 0.08972 0.39967 0.0
H3939 H 0.94886 0.07823 0.32625 0.0
H3940 H 0.99307 0.1185 0.22094 0.0
H3941 H 0.00431 0.14544 0.2693 0.0
C3942 C 0.99106 0.14166 0.35463 0.0
C3943 C 0.98237 0.13843 0.39875 0.0
C3944 C 0.98376 0.12692 0.3263 0.0
C3945 C 0.96665 0.11937 0.41465 0.0
C3946 C 0.95952 0.10421 0.38669 0.0
C3947 C 0.96104 0.0928 0.31395 0.0
C3948 C 0.97009 0.09617 0.26994 0.0
C3949 C 0.96792 0.10793 0.34235 0.0
C3950 C 0.9855 0.1156 0.25431 0.0
C3951 C 0.9922 0.13086 0.28214 0.0
H3952 H 0.69438 0.2171 0.12075 0.0
H3953 H 0.63539 0.2324 0.04669 0.0
H3954 H 0.61393 0.2357 0.11447 0.0
H3955 H 0.61256 0.23952 0.19278 0.0
H3956 H 0.67244 0.23045 0.26328 0.0
H3957 H 0.69318 0.22118 0.19791 0.0
C3958 C 0.6769 0.22161 0.11893 0.0
C3959 C 0.6668 0.22506 0.07802 0.0
C3960 C 0.66488 0.22532 0.15724 0.0
C3961 C 0.64383 0.22948 0.0774 0.0
C3962 C 0.63151 0.23179 0.11613 0.0
C3963 C 0.63011 0.23524 0.19383 0.0
C3964 C 0.64099 0.23554 0.23264 0.0
C3965 C 0.64198 0.23055 0.15586 0.0
C3966 C 0.66378 0.23041 0.2336 0.0
C3967 C 0.67559 0.225 0.19639 0.0
H3968 H 0.0943 0.48379 0.77187 0.0
H3969 H 0.09197 0.56299 0.78627 0.0
H3970 H 0.09279 0.54782 0.86724 0.0
H3971 H 0.09367 0.51227 0.93306 0.0
H3972 H 0.09665 0.43299 0.91933 0.0
H3973 H 0.09674 0.44813 0.83789 0.0
C3974 C 0.09418 0.49789 0.79241 0.0
C3975 C 0.09289 0.5247 0.77269 0.0
C3976 C 0.09506 0.48896 0.83879 0.0
C3977 C 0.09273 0.5424 0.80036 0.0
C3978 C 0.0933 0.53368 0.84664 0.0
C3979 C 0.09461 0.49815 0.91249 0.0
C3980 C 0.09535 0.47139 0.93252 0.0
C3981 C 0.09442 0.50703 0.8661 0.0
C3982 C 0.09643 0.45357 0.90496 0.0
C3983 C 0.09627 0.46228 0.85845 0.0
H3984 H 0.80786 0.81107 0.12914 0.0
H3985 H 0.74611 0.84147 0.17452 0.0
H3986 H 0.75705 0.82767 0.2521 0.0
H3987 H 0.78548 0.80908 0.3074 0.0
H3988 H 0.84689 0.77868 0.25991 0.0
H3989 H 0.83491 0.79068 0.18366 0.0
C3990 C 0.79659 0.81467 0.1558 0.0
C3991 C 0.77604 0.82772 0.14486 0.0
C3992 C 0.80321 0.80701 0.20049 0.0
C3993 C 0.76184 0.83147 0.18092 0.0
C3994 C 0.76829 0.82379 0.22558 0.0
C3995 C 0.79643 0.80529 0.28044 0.0
C3996 C 0.81755 0.79329 0.29027 0.0
C3997 C 0.78918 0.81201 0.23586 0.0
C3998 C 0.83084 0.78798 0.25424 0.0
C3999 C 0.82389 0.79484 0.21027 0.0
H4000 H 0.42639 0.4928 0.26699 0.0
H4001 H 0.42663 0.42035 0.36364 0.0
H4002 H 0.4398 0.39745 0.30605 0.0
H4003 H 0.44853 0.39732 0.22624 0.0
H4004 H 0.45069 0.47071 0.13184 0.0
H4005 H 0.43877 0.49327 0.18911 0.0
C4006 C 0.42992 0.47213 0.27566 0.0
C4007 C 0.4256 0.45841 0.31975 0.0
C4008 C 0.43721 0.45888 0.2421 0.0
C4009 C 0.42992 0.43146 0.33002 0.0
C4010 C 0.43727 0.41826 0.29696 0.0
C4011 C 0.44647 0.41821 0.21826 0.0
C4012 C 0.44961 0.43188 0.17373 0.0
C4013 C 0.44048 0.43162 0.2525 0.0
C4014 C 0.44728 0.45915 0.16482 0.0
C4015 C 0.4408 0.47238 0.19803 0.0
H4016 H 0.77583 0.16738 0.39635 0.0
H4017 H 0.84495 0.16189 0.42235 0.0
H4018 H 0.8355 0.15524 0.50236 0.0
H4019 H 0.80789 0.15002 0.56476 0.0
H4020 H 0.73878 0.153 0.53942 0.0
H4021 H 0.74805 0.16293 0.4591 0.0
C4022 C 0.78895 0.16454 0.41936 0.0
C4023 C 0.81125 0.16468 0.40297 0.0
C4024 C 0.78337 0.16073 0.46546 0.0
C4025 C 0.82777 0.16146 0.4337 0.0
C4026 C 0.82233 0.15781 0.47953 0.0
C4027 C 0.79472 0.15252 0.54195 0.0
C4028 C 0.77255 0.15014 0.5589 0.0
C4029 C 0.80021 0.15721 0.49579 0.0
C4030 C 0.75593 0.15468 0.52803 0.0
C4031 C 0.76126 0.16006 0.4819 0.0
H4032 H 0.90483 0.50351 0.45734 0.0
H4033 H 0.89996 0.42505 0.44324 0.0
H4034 H 0.89919 0.44075 0.36201 0.0
H4035 H 0.90007 0.47713 0.29564 0.0
H4036 H 0.89998 0.55575 0.31243 0.0
H4037 H 0.90133 0.53966 0.3932 0.0
C4038 C 0.90297 0.48967 0.43721 0.0
C4039 C 0.90279 0.46288 0.45708 0.0
C4040 C 0.90125 0.49905 0.39112 0.0
C4041 C 0.90083 0.44558 0.42921 0.0
C4042 C 0.90009 0.45466 0.38276 0.0
C4043 C 0.89993 0.49085 0.31692 0.0
C4044 C 0.89991 0.5178 0.29769 0.0
C4045 C 0.90033 0.4814 0.3634 0.0
C4046 C 0.89982 0.5351 0.32604 0.0
C4047 C 0.90074 0.52583 0.37225 0.0
H4048 H 0.18784 0.2191 0.95118 0.0
H4049 H 0.17838 0.14655 0.91549 0.0
H4050 H 0.19625 0.12347 0.98178 0.0
H4051 H 0.21418 0.1232 0.05114 0.0
H4052 H 0.22277 0.19512 0.09057 0.0
H4053 H 0.20763 0.21865 0.0201 0.0
C4054 C 0.19011 0.1983 0.95711 0.0
C4055 C 0.18283 0.18497 0.92551 0.0
C4056 C 0.20032 0.18479 0.99669 0.0
C4057 C 0.18495 0.15778 0.93651 0.0
C4058 C 0.19492 0.1444 0.97531 0.0
C4059 C 0.21239 0.14407 0.04543 0.0
C4060 C 0.21938 0.15694 0.0779 0.0
C4061 C 0.20273 0.15765 1.00572 0.0
C4062 C 0.21759 0.18421 0.06739 0.0
C4063 C 0.20836 0.1978 0.02741 0.0
H4064 H 0.58391 0.49626 0.97705 0.0
H4065 H 0.5802 0.56069 0.86456 0.0
H4066 H 0.56483 0.58857 0.91369 0.0
H4067 H 0.55477 0.59526 0.99088 0.0
H4068 H 0.55669 0.52852 0.10034 0.0
H4069 H 0.5707 0.50157 0.05106 0.0
C4070 C 0.57939 0.51631 0.96314 0.0
C4071 C 0.58319 0.52631 0.91716 0.0
C4072 C 0.57075 0.53219 0.99157 0.0
C4073 C 0.57724 0.55238 0.89974 0.0
C4074 C 0.56865 0.5684 0.928 0.0
C4075 C 0.55829 0.57487 1.00386 0.0
C4076 C 0.55584 0.56459 0.05031 0.0
C4077 C 0.56573 0.5587 0.97434 0.0
C4078 C 0.55989 0.53776 0.06578 0.0
C4079 C 0.56748 0.52195 0.03723 0.0
H4080 H 0.18813 0.80159 0.79789 0.0
H4081 H 0.17929 0.88053 0.81087 0.0
H4082 H 0.19505 0.89581 0.73519 0.0
H4083 H 0.21297 0.88682 0.66711 0.0
H4084 H 0.22209 0.80807 0.65191 0.0
H4085 H 0.20588 0.79249 0.72755 0.0
C4086 C 0.18959 0.82212 0.78392 0.0
C4087 C 0.18254 0.84001 0.80998 0.0
C4088 C 0.19926 0.83069 0.74047 0.0
C4089 C 0.18436 0.8665 0.79137 0.0
C4090 C 0.1936 0.87518 0.74825 0.0
C4091 C 0.21122 0.8662 0.67981 0.0
C4092 C 0.21854 0.84875 0.65301 0.0
C4093 C 0.20141 0.85746 0.72277 0.0
C4094 C 0.21677 0.82207 0.67139 0.0
C4095 C 0.20724 0.81315 0.71459 0.0
H4096 H 0.59831 0.95166 0.41159 0.0
H4097 H 0.59016 0.02558 0.44839 0.0
H4098 H 0.58774 0.04755 0.3713 0.0
H4099 H 0.58721 0.04647 0.29183 0.0
H4100 H 0.59447 0.97255 0.25579 0.0
H4101 H 0.59768 0.9506 0.33235 0.0
C4102 C 0.59597 0.97251 0.40278 0.0
C4103 C 0.59442 0.9866 0.43631 0.0
C4104 C 0.59436 0.98544 0.35773 0.0
C4105 C 0.59148 0.01383 0.42377 0.0
C4106 C 0.59005 0.02668 0.37933 0.0
C4107 C 0.5897 0.02564 0.3007 0.0
C4108 C 0.59068 0.01142 0.2673 0.0
C4109 C 0.59142 0.01275 0.34581 0.0
C4110 C 0.59366 0.98429 0.28002 0.0
C4111 C 0.59551 0.97149 0.32432 0.0
H4112 H 0.31101 0.32338 0.63683 0.0
H4113 H 0.24263 0.33362 0.67636 0.0
H4114 H 0.25147 0.31837 0.75493 0.0
H4115 H 0.27936 0.30406 0.81311 0.0
H4116 H 0.34792 0.29879 0.77107 0.0
H4117 H 0.33826 0.31078 0.69331 0.0
C4118 C 0.29785 0.32289 0.66221 0.0
C4119 C 0.27604 0.3305 0.64938 0.0
C4120 C 0.30323 0.31517 0.7075 0.0
C4121 C 0.2595 0.32808 0.68405 0.0
C4122 C 0.26465 0.31957 0.72937 0.0
C4123 C 0.2923 0.30592 0.78709 0.0
C4124 C 0.31461 0.30074 0.79887 0.0
C4125 C 0.28658 0.31349 0.74165 0.0
C4126 C 0.33078 0.30268 0.76388 0.0
C4127 C 0.3252 0.30955 0.71909 0.0
H4128 H 0.93218 0.00231 0.74713 0.0
H4129 H 0.91032 0.93596 0.84552 0.0
H4130 H 0.92364 0.90731 0.79604 0.0
H4131 H 0.93903 0.90178 0.72076 0.0
H4132 H 0.96362 0.96947 0.62792 0.0
H4133 H 0.95129 -0.00347 0.67813 0.0
C4134 C 0.93061 0.98152 0.75804 0.0
C4135 C 0.92015 0.97135 0.79981 0.0
C4136 C 0.93834 0.9653 0.72964 0.0
C4137 C 0.91839 0.94433 0.81357 0.0
C4138 C 0.92585 0.92796 0.78506 0.0
C4139 C 0.94191 0.92236 0.71184 0.0
C4140 C 0.95151 0.93342 0.66927 0.0
C4141 C 0.93548 0.93826 0.74238 0.0
C4142 C 0.95543 0.96021 0.65915 0.0
C4143 C 0.94859 0.97592 0.68826 0.0
H4144 H 0.25161 0.6504 0.04861 0.0
H4145 H 0.31462 0.62322 0.10019 0.0
H4146 H 0.332 0.63396 0.02535 0.0
H4147 H 0.32902 0.64837 0.94325 0.0
H4148 H 0.26673 0.68135 0.89531 0.0
H4149 H 0.24979 0.6708 0.96912 0.0
C4150 C 0.26921 0.64728 0.04378 0.0
C4151 C 0.28151 0.63522 0.08028 0.0
C4152 C 0.27936 0.65396 1.00048 0.0
C4153 C 0.30443 0.63164 0.07276 0.0
C4154 C 0.31451 0.63785 0.0298 0.0
C4155 C 0.31181 0.65329 0.94902 0.0
C4156 C 0.2991 0.66434 0.9126 0.0
C4157 C 0.30207 0.64842 0.99302 0.0
C4158 C 0.2769 0.67138 0.92155 0.0
C4159 C 0.26707 0.66576 0.96437 0.0
H4160 H 0.40211 0.00918 0.94948 0.0
H4161 H 0.40599 0.92914 0.94066 0.0
H4162 H 0.40391 0.9423 0.85976 0.0
H4163 H 0.40114 0.97633 0.79258 0.0
H4164 H 0.39435 0.05636 0.8003 0.0
H4165 H 0.39738 0.0435 0.88145 0.0
C4166 C 0.40236 0.99456 0.93011 0.0
C4167 C 0.40445 0.96809 0.95145 0.0
C4168 C 0.40054 0.00234 0.88366 0.0
C4169 C 0.40464 0.94954 0.92534 0.0
C4170 C 0.40337 0.9571 0.87906 0.0
C4171 C 0.39997 0.99108 0.81161 0.0
C4172 C 0.39746 0.01737 0.7898 0.0
C4173 C 0.40129 0.98342 0.85799 0.0
C4174 C 0.39627 0.03604 0.81585 0.0
C4175 C 0.39802 0.02864 0.86229 0.0
H4176 H 0.74745 0.66555 0.53419 0.0
H4177 H 0.69129 0.67726 0.61965 0.0
H4178 H 0.6702 0.69645 0.55455 0.0
H4179 H 0.66633 0.7071 0.47148 0.0
H4180 H 0.72364 0.69693 0.38783 0.0
H4181 H 0.74487 0.68018 0.45216 0.0
C4182 C 0.73087 0.67312 0.53874 0.0
C4183 C 0.72141 0.67046 0.5826 0.0
C4184 C 0.71849 0.68388 0.50062 0.0
C4185 C 0.69944 0.67962 0.58683 0.0
C4186 C 0.68715 0.69035 0.54929 0.0
C4187 C 0.68346 0.70139 0.46724 0.0
C4188 C 0.69273 0.70232 0.42353 0.0
C4189 C 0.69625 0.69217 0.50567 0.0
C4190 C 0.71527 0.69506 0.42004 0.0
C4191 C 0.72779 0.68584 0.45737 0.0
H4192 H 0.07544 0.99432 0.48604 0.0
H4193 H 0.07086 0.0552 0.36786 0.0
H4194 H 0.05787 0.08571 0.414 0.0
H4195 H 0.05044 0.09591 0.48975 0.0
H4196 H 0.05344 0.03348 0.60479 0.0
H4197 H 0.06562 0.00336 0.55911 0.0
C4198 C 0.07178 0.0143 0.47008 0.0
C4199 C 0.0747 0.02234 0.42325 0.0
C4200 C 0.06487 0.03185 0.49683 0.0
C4201 C 0.06892 0.04823 0.40363 0.0
C4202 C 0.06169 0.06583 0.43018 0.0
C4203 C 0.05407 0.07578 0.5047 0.0
C4204 C 0.05306 0.06748 0.55176 0.0
C4205 C 0.06009 0.05804 0.47707 0.0
C4206 C 0.05664 0.04103 0.5699 0.0
C4207 C 0.06279 0.02354 0.54325 0.0
H4208 H 0.66985 0.35298 0.29117 0.0
H4209 H 0.72553 0.30225 0.33295 0.0
H4210 H 0.74264 0.31288 0.25872 0.0
H4211 H 0.74346 0.33893 0.18146 0.0
H4212 H 0.68713 0.38779 0.13748 0.0
H4213 H 0.66889 0.37528 0.21134 0.0
C4214 C 0.68554 0.34401 0.28385 0.0
C4215 C 0.69639 0.32728 0.31847 0.0
C4216 C 0.69545 0.34992 0.24 0.0
C4217 C 0.71678 0.31575 0.30777 0.0
C4218 C 0.72671 0.32169 0.26487 0.0
C4219 C 0.72702 0.34643 0.18772 0.0
C4220 C 0.71697 0.36472 0.15378 0.0
C4221 C 0.71643 0.3391 0.23067 0.0
C4222 C 0.69558 0.37412 0.16301 0.0
C4223 C 0.68504 0.36696 0.20541 0.0
loop_
_geom_bond_atom_site_label_1
_geom_bond_atom_site_label_2
_geom_bond_distance
_geom_bond_site_symmetry_2
_ccdc_geom_bond_type
C0 C2 1.422 . S
C0 C4 1.415 . S
C0 N6 1.369 . S
C1 C2 1.421 . S
C1 C3 1.417 . S
C1 C13 1.450 . S
C2 C0 1.422 . S
C2 C1 1.421 . S
C2 N12 1.359 . S
C3 C1 1.417 . S
C3 C5 1.329 . S
C3 H22 0.930 . S
C4 C0 1.415 . S
C4 C5 1.437 . S
C4 C8 1.413 . S
C5 C3 1.329 . S
C5 C4 1.437 . S
C5 H27 0.929 . S
N6 C0 1.369 . S
N6 C7 1.338 . S
N6 Gd11 2.622 . S
C7 N6 1.338 . S
C7 C9 1.378 . S
C7 H19 0.929 . S
C8 C4 1.413 . S
C8 C9 1.348 . S
C8 H24 0.931 . S
C9 C7 1.378 . S
C9 C8 1.348 . S
C9 H25 0.930 . S
Gd10 N30 2.622 . S
Gd10 N37 2.570 . S
Gd10 O44 2.353 . S
Gd10 O45 2.468 . S
Gd10 O46 2.427 . S
Gd10 O48 2.388 . S
Gd10 O49 2.386 . S
Gd10 O53 2.307 . S
Gd10 C63 2.805 . S
Gd11 N6 2.622 . S
Gd11 N12 2.570 . S
Gd11 O43 2.386 . S
Gd11 O47 2.307 . S
Gd11 O50 2.364 . S
Gd11 O51 2.468 1_554 S
Gd11 O52 2.404 1_554 S
Gd11 O54 2.388 . S
Gd11 C75 2.805 1_554 S
N12 C2 1.359 . S
N12 Gd11 2.570 . S
N12 C14 1.343 . S
C13 C1 1.450 . S
C13 C15 1.319 1_455 S
C13 H21 0.905 1_455 S
C14 N12 1.343 . S
C14 C15 1.365 1_455 S
C14 H16 0.931 . S
C15 C13 1.319 1_655 S
C15 C14 1.365 1_655 S
C15 H17 0.958 . S
H16 C14 0.931 . S
H17 C15 0.958 . S
H18 C41 0.931 . S
H19 C7 0.929 . S
H20 C42 0.930 . S
H21 C13 0.905 1_655 S
H22 C3 0.930 . S
H23 C32 0.929 . S
H24 C8 0.931 . S
H25 C9 0.930 . S
H26 C64 0.930 . S
H27 C5 0.929 . S
H28 C33 0.931 1_556 S
H29 C34 0.930 . S
N30 Gd10 2.622 . S
N30 C31 1.369 . S
N30 C32 1.338 . S
C31 N30 1.369 . S
C31 C35 1.415 . S
C31 C38 1.422 . S
C32 H23 0.929 . S
C32 N30 1.338 . S
C32 C34 1.378 . S
C33 H28 0.931 1_554 S
C33 C34 1.348 . S
C33 C35 1.413 . S
C34 H29 0.930 . S
C34 C32 1.378 . S
C34 C33 1.348 . S
C35 C31 1.415 . S
C35 C33 1.413 . S
C35 C65 1.437 1_554 S
H36 C65 0.929 . S
N37 Gd10 2.570 . S
N37 C38 1.359 . S
N37 C41 1.343 . S
C38 C31 1.422 . S
C38 N37 1.359 . S
C38 C40 1.421 . S
C39 C40 1.422 . S
C39 C42 1.321 . S
C39 H66 0.931 . S
C40 C38 1.421 . S
C40 C39 1.422 . S
C40 C64 1.417 1_554 S
C41 H18 0.931 . S
C41 N37 1.343 . S
C41 C42 1.390 . S
C42 H20 0.930 . S
C42 C39 1.321 . S
C42 C41 1.390 . S
O43 Gd11 2.386 . S
O43 C55 1.265 . S
O44 Gd10 2.353 . S
O44 C55 1.242 . S
O45 Gd10 2.468 . S
O45 C63 1.263 . S
O46 Gd10 2.427 . S
O46 C63 1.252 . S
O47 Gd11 2.307 . S
O47 C56 1.261 . S
O48 Gd10 2.388 . S
O48 C56 1.252 . S
O49 Gd10 2.386 . S
O49 C67 1.265 1_554 S
O50 Gd11 2.364 . S
O50 C67 1.243 1_554 S
O51 Gd11 2.468 1_556 S
O51 C75 1.263 . S
O52 Gd11 2.404 1_556 S
O52 C75 1.266 . S
O53 Gd10 2.307 . S
O53 C68 1.261 . S
O54 Gd11 2.388 . S
O54 C68 1.252 . S
C55 O43 1.265 . S
C55 O44 1.242 . S
C56 O47 1.261 . S
C56 O48 1.252 . S
C57 C60 1.394 . S
C57 C62 1.370 . S
C57 C63 1.500 . S
C58 C61 1.383 . S
C58 C62 1.395 . S
C59 C60 1.396 . S
C59 C61 1.365 . S
C59 H76 0.929 . S
C60 C57 1.394 . S
C60 C59 1.396 . S
C60 H77 0.930 . S
C61 C58 1.383 . S
C61 C59 1.365 . S
C61 H78 0.931 . S
C62 C57 1.370 . S
C62 C58 1.395 . S
C62 H79 0.930 . S
C63 Gd10 2.805 . S
C63 O45 1.263 . S
C63 O46 1.252 . S
C63 C57 1.500 . S
C64 H26 0.930 . S
C64 C40 1.417 1_556 S
C64 C65 1.329 . S
C65 C35 1.437 1_556 S
C65 H36 0.929 . S
C65 C64 1.329 . S
H66 C39 0.931 . S
C67 O49 1.265 1_556 S
C67 O50 1.243 1_556 S
C68 O53 1.261 . S
C68 O54 1.252 . S
C69 C72 1.394 . S
C69 C74 1.370 . S
C69 C75 1.500 . S
C70 C73 1.383 . S
C70 C74 1.395 . S
C71 C72 1.396 . S
C71 C73 1.365 . S
C71 H80 0.929 . S
C72 C69 1.394 . S
C72 C71 1.396 . S
C72 H81 0.930 . S
C73 C70 1.383 . S
C73 C71 1.365 . S
C73 H82 0.931 . S
C74 C69 1.370 . S
C74 C70 1.395 . S
C74 H83 0.930 . S
C75 Gd11 2.805 1_556 S
C75 O51 1.263 . S
C75 O52 1.266 . S
C75 C69 1.500 . S
H76 C59 0.929 . S
H77 C60 0.930 . S
H78 C61 0.931 . S
H79 C62 0.930 . S
H80 C71 0.929 . S
H81 C72 0.930 . S
H82 C73 0.931 . S
H83 C74 0.930 . S
C84 C86 1.422 . S
C84 C88 1.415 . S
C84 N90 1.369 . S
C85 C86 1.421 . S
C85 C87 1.417 . S
C85 C97 1.422 . S
C86 C84 1.422 . S
C86 C85 1.421 . S
C86 N96 1.359 . S
C87 C85 1.417 . S
C87 C89 1.329 . S
C87 H106 0.930 . S
C88 C84 1.415 . S
C88 C89 1.437 . S
C88 C92 1.413 . S
C89 C87 1.329 . S
C89 C88 1.437 . S
C89 H111 0.929 . S
N90 C84 1.369 . S
N90 C91 1.338 . S
N90 Gd95 2.622 . S
C91 N90 1.338 . S
C91 C93 1.378 . S
C91 H103 0.929 . S
C92 C88 1.413 . S
C92 C93 1.348 . S
C92 H108 0.931 . S
C93 C91 1.378 . S
C93 C92 1.348 . S
C93 H109 0.930 . S
Gd94 N114 2.622 . S
Gd94 N121 2.570 . S
Gd94 O128 2.353 . S
Gd94 O129 2.468 . S
Gd94 O130 2.427 . S
Gd94 O132 2.388 . S
Gd94 O133 2.386 . S
Gd94 O137 2.307 . S
Gd94 C147 2.805 . S
Gd95 N90 2.622 . S
Gd95 N96 2.570 . S
Gd95 O127 2.386 . S
Gd95 O131 2.307 . S
Gd95 O134 2.353 . S
Gd95 O135 2.468 . S
Gd95 O136 2.427 . S
Gd95 O138 2.388 . S
Gd95 C159 2.805 . S
N96 C86 1.359 . S
N96 Gd95 2.570 . S
N96 C98 1.343 . S
C97 C85 1.422 . S
C97 C99 1.321 . S
C97 H105 0.931 . S
C98 N96 1.343 . S
C98 C99 1.390 . S
C98 H100 0.931 . S
C99 C97 1.321 . S
C99 C98 1.390 . S
C99 H101 0.930 . S
H100 C98 0.931 . S
H101 C99 0.930 . S
H102 C125 0.931 . S
H103 C91 0.929 . S
H104 C126 0.930 . S
H105 C97 0.931 . S
H106 C87 0.930 . S
H107 C116 0.929 . S
H108 C92 0.931 . S
H109 C93 0.930 . S
H110 C148 0.930 . S
H111 C89 0.929 . S
H112 C117 0.931 . S
H113 C118 0.930 . S
N114 Gd94 2.622 . S
N114 C115 1.369 . S
N114 C116 1.338 . S
C115 N114 1.369 . S
C115 C119 1.415 . S
C115 C122 1.422 . S
C116 H107 0.929 . S
C116 N114 1.338 . S
C116 C118 1.378 . S
C117 H112 0.931 . S
C117 C118 1.348 . S
C117 C119 1.413 . S
C118 H113 0.930 . S
C118 C116 1.378 . S
C118 C117 1.348 . S
C119 C115 1.415 . S
C119 C117 1.413 . S
C119 C149 1.437 . S
H120 C149 0.929 . S
N121 Gd94 2.570 . S
N121 C122 1.359 . S
N121 C125 1.343 . S
C122 C115 1.422 . S
C122 N121 1.359 . S
C122 C124 1.421 . S
C123 C124 1.422 . S
C123 C126 1.321 . S
C123 H150 0.931 . S
C124 C122 1.421 . S
C124 C123 1.422 . S
C124 C148 1.417 . S
C125 H102 0.931 . S
C125 N121 1.343 . S
C125 C126 1.390 . S
C126 H104 0.930 . S
C126 C123 1.321 . S
C126 C125 1.390 . S
O127 Gd95 2.386 . S
O127 C139 1.265 . S
O128 Gd94 2.353 . S
O128 C139 1.242 . S
O129 Gd94 2.468 . S
O129 C147 1.263 . S
O130 Gd94 2.427 . S
O130 C147 1.252 . S
O131 Gd95 2.307 . S
O131 C140 1.261 . S
O132 Gd94 2.388 . S
O132 C140 1.252 . S
O133 Gd94 2.386 . S
O133 C151 1.265 . S
O134 Gd95 2.353 . S
O134 C151 1.242 . S
O135 Gd95 2.468 . S
O135 C159 1.263 . S
O136 Gd95 2.427 . S
O136 C159 1.252 . S
O137 Gd94 2.307 . S
O137 C152 1.261 . S
O138 Gd95 2.388 . S
O138 C152 1.252 . S
C139 O127 1.265 . S
C139 O128 1.242 . S
C140 O131 1.261 . S
C140 O132 1.252 . S
C141 C144 1.394 . S
C141 C146 1.370 . S
C141 C147 1.500 . S
C142 C145 1.383 . S
C142 C146 1.395 . S
C143 C144 1.396 . S
C143 C145 1.365 . S
C143 H160 0.929 . S
C144 C141 1.394 . S
C144 C143 1.396 . S
C144 H161 0.930 . S
C145 C142 1.383 . S
C145 C143 1.365 . S
C145 H162 0.931 . S
C146 C141 1.370 . S
C146 C142 1.395 . S
C146 H163 0.930 . S
C147 Gd94 2.805 . S
C147 O129 1.263 . S
C147 O130 1.252 . S
C147 C141 1.500 . S
C148 H110 0.930 . S
C148 C124 1.417 . S
C148 C149 1.329 . S
C149 C119 1.437 . S
C149 H120 0.929 . S
C149 C148 1.329 . S
H150 C123 0.931 . S
C151 O133 1.265 . S
C151 O134 1.242 . S
C152 O137 1.261 . S
C152 O138 1.252 . S
C153 C156 1.394 . S
C153 C158 1.370 . S
C153 C159 1.500 . S
C154 C157 1.383 . S
C154 C158 1.395 . S
C155 C156 1.396 . S
C155 C157 1.365 . S
C155 H164 0.929 . S
C156 C153 1.394 . S
C156 C155 1.396 . S
C156 H165 0.930 . S
C157 C154 1.383 . S
C157 C155 1.365 . S
C157 H166 0.931 . S
C158 C153 1.370 . S
C158 C154 1.395 . S
C158 H167 0.930 . S
C159 Gd95 2.805 . S
C159 O135 1.263 . S
C159 O136 1.252 . S
C159 C153 1.500 . S
H160 C143 0.929 . S
H161 C144 0.930 . S
H162 C145 0.931 . S
H163 C146 0.930 . S
H164 C155 0.929 . S
H165 C156 0.930 . S
H166 C157 0.931 . S
H167 C158 0.930 . S
C168 C170 1.422 . S
C168 C172 1.415 . S
C168 N174 1.369 . S
C169 C170 1.421 . S
C169 C171 1.417 . S
C169 C181 1.422 . S
C170 C168 1.422 . S
C170 C169 1.421 . S
C170 N180 1.359 . S
C171 C169 1.417 . S
C171 C173 1.329 . S
C171 H190 0.930 . S
C172 C168 1.415 . S
C172 C173 1.437 . S
C172 C176 1.413 . S
C173 C171 1.329 . S
C173 C172 1.437 . S
C173 H195 0.929 . S
N174 C168 1.369 . S
N174 C175 1.338 . S
N174 Gd179 2.622 . S
C175 N174 1.338 . S
C175 C177 1.378 . S
C175 H187 0.929 . S
C176 C172 1.413 . S
C176 C177 1.348 . S
C176 H192 0.931 . S
C177 C175 1.378 . S
C177 C176 1.348 . S
C177 H193 0.930 . S
Gd178 N198 2.622 . S
Gd178 N205 2.570 . S
Gd178 O212 2.353 . S
Gd178 O213 2.468 . S
Gd178 O214 2.427 . S
Gd178 O216 2.388 . S
Gd178 O217 2.386 . S
Gd178 O221 2.307 . S
Gd178 C231 2.805 . S
Gd179 N174 2.622 . S
Gd179 N180 2.570 . S
Gd179 O211 2.386 . S
Gd179 O215 2.307 . S
Gd179 O218 2.353 . S
Gd179 O219 2.468 . S
Gd179 O220 2.427 . S
Gd179 O222 2.388 . S
Gd179 C243 2.805 . S
N180 C170 1.359 . S
N180 Gd179 2.570 . S
N180 C182 1.343 . S
C181 C169 1.422 . S
C181 C183 1.321 . S
C181 H189 0.931 . S
C182 N180 1.343 . S
C182 C183 1.390 . S
C182 H184 0.931 . S
C183 C181 1.321 . S
C183 C182 1.390 . S
C183 H185 0.930 . S
H184 C182 0.931 . S
H185 C183 0.930 . S
H186 C209 0.931 . S
H187 C175 0.929 . S
H188 C210 0.930 . S
H189 C181 0.931 . S
H190 C171 0.930 . S
H191 C200 0.929 . S
H192 C176 0.931 . S
H193 C177 0.930 . S
H194 C232 0.930 . S
H195 C173 0.929 . S
H196 C201 0.931 . S
H197 C202 0.930 . S
N198 Gd178 2.622 . S
N198 C199 1.369 . S
N198 C200 1.338 . S
C199 N198 1.369 . S
C199 C203 1.415 . S
C199 C206 1.422 . S
C200 H191 0.929 . S
C200 N198 1.338 . S
C200 C202 1.378 . S
C201 H196 0.931 . S
C201 C202 1.348 . S
C201 C203 1.413 . S
C202 H197 0.930 . S
C202 C200 1.378 . S
C202 C201 1.348 . S
C203 C199 1.415 . S
C203 C201 1.413 . S
C203 C233 1.437 . S
H204 C233 0.929 . S
N205 Gd178 2.570 . S
N205 C206 1.359 . S
N205 C209 1.343 . S
C206 C199 1.422 . S
C206 N205 1.359 . S
C206 C208 1.421 . S
C207 C208 1.422 . S
C207 C210 1.321 . S
C207 H234 0.931 . S
C208 C206 1.421 . S
C208 C207 1.422 . S
C208 C232 1.417 . S
C209 H186 0.931 . S
C209 N205 1.343 . S
C209 C210 1.390 . S
C210 H188 0.930 . S
C210 C207 1.321 . S
C210 C209 1.390 . S
O211 Gd179 2.386 . S
O211 C223 1.265 . S
O212 Gd178 2.353 . S
O212 C223 1.242 . S
O213 Gd178 2.468 . S
O213 C231 1.263 . S
O214 Gd178 2.427 . S
O214 C231 1.252 . S
O215 Gd179 2.307 . S
O215 C224 1.261 . S
O216 Gd178 2.388 . S
O216 C224 1.252 . S
O217 Gd178 2.386 . S
O217 C235 1.265 . S
O218 Gd179 2.353 . S
O218 C235 1.242 . S
O219 Gd179 2.468 . S
O219 C243 1.263 . S
O220 Gd179 2.427 . S
O220 C243 1.252 . S
O221 Gd178 2.307 . S
O221 C236 1.261 . S
O222 Gd179 2.388 . S
O222 C236 1.252 . S
C223 O211 1.265 . S
C223 O212 1.242 . S
C224 O215 1.261 . S
C224 O216 1.252 . S
C225 C228 1.394 . S
C225 C230 1.370 . S
C225 C231 1.500 . S
C226 C229 1.383 . S
C226 C230 1.395 . S
C227 C228 1.396 . S
C227 C229 1.365 . S
C227 H244 0.929 . S
C228 C225 1.394 . S
C228 C227 1.396 . S
C228 H245 0.930 . S
C229 C226 1.383 . S
C229 C227 1.365 . S
C229 H246 0.931 . S
C230 C225 1.370 . S
C230 C226 1.395 . S
C230 H247 0.930 . S
C231 Gd178 2.805 . S
C231 O213 1.263 . S
C231 O214 1.252 . S
C231 C225 1.500 . S
C232 H194 0.930 . S
C232 C208 1.417 . S
C232 C233 1.329 . S
C233 C203 1.437 . S
C233 H204 0.929 . S
C233 C232 1.329 . S
H234 C207 0.931 . S
C235 O217 1.265 . S
C235 O218 1.242 . S
C236 O221 1.261 . S
C236 O222 1.252 . S
C237 C240 1.394 . S
C237 C242 1.370 . S
C237 C243 1.500 . S
C238 C241 1.383 . S
C238 C242 1.395 . S
C239 C240 1.396 . S
C239 C241 1.365 . S
C239 H248 0.929 . S
C240 C237 1.394 . S
C240 C239 1.396 . S
C240 H249 0.930 . S
C241 C238 1.383 . S
C241 C239 1.365 . S
C241 H250 0.931 . S
C242 C237 1.370 . S
C242 C238 1.395 . S
C242 H251 0.930 . S
C243 Gd179 2.805 . S
C243 O219 1.263 . S
C243 O220 1.252 . S
C243 C237 1.500 . S
H244 C227 0.929 . S
H245 C228 0.930 . S
H246 C229 0.931 . S
H247 C230 0.930 . S
H248 C239 0.929 . S
H249 C240 0.930 . S
H250 C241 0.931 . S
H251 C242 0.930 . S
C252 C254 1.422 . S
C252 C256 1.415 . S
C252 N258 1.369 . S
C253 C254 1.421 . S
C253 C255 1.417 . S
C253 C265 1.422 . S
C254 C252 1.422 . S
C254 C253 1.421 . S
C254 N264 1.359 . S
C255 C253 1.417 . S
C255 C257 1.329 . S
C255 H274 0.930 . S
C256 C252 1.415 . S
C256 C257 1.437 . S
C256 C260 1.413 . S
C257 C255 1.329 . S
C257 C256 1.437 . S
C257 H279 0.929 . S
N258 C252 1.369 . S
N258 C259 1.338 . S
N258 Gd263 2.622 . S
C259 N258 1.338 . S
C259 C261 1.378 . S
C259 H271 0.929 . S
C260 C256 1.413 . S
C260 C261 1.348 . S
C260 H276 0.931 . S
C261 C259 1.378 . S
C261 C260 1.348 . S
C261 H277 0.930 . S
Gd262 N282 2.622 . S
Gd262 N289 2.570 . S
Gd262 O296 2.353 . S
Gd262 O297 2.468 . S
Gd262 O298 2.427 . S
Gd262 O300 2.388 . S
Gd262 O301 2.386 . S
Gd262 O305 2.307 . S
Gd262 C315 2.805 . S
Gd263 N258 2.622 . S
Gd263 N264 2.570 . S
Gd263 O295 2.386 . S
Gd263 O299 2.307 . S
Gd263 O302 2.353 . S
Gd263 O303 2.468 . S
Gd263 O304 2.427 . S
Gd263 O306 2.388 . S
Gd263 C327 2.805 . S
N264 C254 1.359 . S
N264 Gd263 2.570 . S
N264 C266 1.343 . S
C265 C253 1.422 . S
C265 C267 1.321 . S
C265 H273 0.931 . S
C266 N264 1.343 . S
C266 C267 1.390 . S
C266 H268 0.931 . S
C267 C265 1.321 . S
C267 C266 1.390 . S
C267 H269 0.930 . S
H268 C266 0.931 . S
H269 C267 0.930 . S
H270 C293 0.931 . S
H271 C259 0.929 . S
H272 C294 0.930 . S
H273 C265 0.931 . S
H274 C255 0.930 . S
H275 C284 0.929 . S
H276 C260 0.931 . S
H277 C261 0.930 . S
H278 C316 0.930 . S
H279 C257 0.929 . S
H280 C285 0.931 . S
H281 C286 0.930 . S
N282 Gd262 2.622 . S
N282 C283 1.369 . S
N282 C284 1.338 . S
C283 N282 1.369 . S
C283 C287 1.415 . S
C283 C290 1.422 . S
C284 H275 0.929 . S
C284 N282 1.338 . S
C284 C286 1.378 . S
C285 H280 0.931 . S
C285 C286 1.348 . S
C285 C287 1.413 . S
C286 H281 0.930 . S
C286 C284 1.378 . S
C286 C285 1.348 . S
C287 C283 1.415 . S
C287 C285 1.413 . S
C287 C317 1.437 . S
H288 C317 0.929 . S
N289 Gd262 2.570 . S
N289 C290 1.359 . S
N289 C293 1.343 . S
C290 C283 1.422 . S
C290 N289 1.359 . S
C290 C292 1.421 . S
C291 C292 1.422 . S
C291 C294 1.321 . S
C291 H318 0.931 . S
C292 C290 1.421 . S
C292 C291 1.422 . S
C292 C316 1.417 . S
C293 H270 0.931 . S
C293 N289 1.343 . S
C293 C294 1.390 . S
C294 H272 0.930 . S
C294 C291 1.321 . S
C294 C293 1.390 . S
O295 Gd263 2.386 . S
O295 C307 1.265 . S
O296 Gd262 2.353 . S
O296 C307 1.242 . S
O297 Gd262 2.468 . S
O297 C315 1.263 . S
O298 Gd262 2.427 . S
O298 C315 1.252 . S
O299 Gd263 2.307 . S
O299 C308 1.261 . S
O300 Gd262 2.388 . S
O300 C308 1.252 . S
O301 Gd262 2.386 . S
O301 C319 1.265 . S
O302 Gd263 2.353 . S
O302 C319 1.242 . S
O303 Gd263 2.468 . S
O303 C327 1.263 . S
O304 Gd263 2.427 . S
O304 C327 1.252 . S
O305 Gd262 2.307 . S
O305 C320 1.261 . S
O306 Gd263 2.388 . S
O306 C320 1.252 . S
C307 O295 1.265 . S
C307 O296 1.242 . S
C308 O299 1.261 . S
C308 O300 1.252 . S
C309 C312 1.394 . S
C309 C314 1.370 . S
C309 C315 1.500 . S
C310 C313 1.383 . S
C310 C314 1.395 . S
C311 C312 1.396 . S
C311 C313 1.365 . S
C311 H328 0.929 . S
C312 C309 1.394 . S
C312 C311 1.396 . S
C312 H329 0.930 . S
C313 C310 1.383 . S
C313 C311 1.365 . S
C313 H330 0.931 . S
C314 C309 1.370 . S
C314 C310 1.395 . S
C314 H331 0.930 . S
C315 Gd262 2.805 . S
C315 O297 1.263 . S
C315 O298 1.252 . S
C315 C309 1.500 . S
C316 H278 0.930 . S
C316 C292 1.417 . S
C316 C317 1.329 . S
C317 C287 1.437 . S
C317 H288 0.929 . S
C317 C316 1.329 . S
H318 C291 0.931 . S
C319 O301 1.265 . S
C319 O302 1.242 . S
C320 O305 1.261 . S
C320 O306 1.252 . S
C321 C324 1.394 . S
C321 C326 1.370 . S
C321 C327 1.500 1_554 S
C322 C325 1.383 . S
C322 C326 1.395 . S
C323 C324 1.396 . S
C323 C325 1.365 . S
C323 H332 0.929 . S
C324 C321 1.394 . S
C324 C323 1.396 . S
C324 H333 0.930 1_554 S
C325 C322 1.383 . S
C325 C323 1.365 . S
C325 H334 0.931 . S
C326 C321 1.370 . S
C326 C322 1.395 . S
C326 H335 0.930 . S
C327 Gd263 2.805 . S
C327 O303 1.263 . S
C327 O304 1.252 . S
C327 C321 1.500 1_556 S
H328 C311 0.929 . S
H329 C312 0.930 . S
H330 C313 0.931 . S
H331 C314 0.930 . S
H332 C323 0.929 . S
H333 C324 0.930 1_556 S
H334 C325 0.931 . S
H335 C326 0.930 . S
C336 C338 1.422 . S
C336 C340 1.415 . S
C336 N342 1.369 . S
C337 C338 1.421 1_655 S
C337 C339 1.417 . S
C337 C349 1.422 . S
C338 C336 1.422 . S
C338 C337 1.421 1_455 S
C338 N348 1.359 . S
C339 C337 1.417 . S
C339 C341 1.329 1_655 S
C339 H358 0.930 . S
C340 C336 1.415 . S
C340 C341 1.437 . S
C340 C344 1.413 . S
C341 C339 1.329 1_455 S
C341 C340 1.437 . S
C341 H363 0.929 . S
N342 C336 1.369 . S
N342 C343 1.338 . S
N342 Gd347 2.622 . S
C343 N342 1.338 . S
C343 C345 1.378 . S
C343 H355 0.929 . S
C344 C340 1.413 . S
C344 C345 1.348 . S
C344 H360 0.931 . S
C345 C343 1.378 . S
C345 C344 1.348 . S
C345 H361 0.930 . S
Gd346 N366 2.622 . S
Gd346 N373 2.570 . S
Gd346 O380 2.353 . S
Gd346 O381 2.468 . S
Gd346 O382 2.427 . S
Gd346 O384 2.388 . S
Gd346 O385 2.386 . S
Gd346 O389 2.307 . S
Gd346 C399 2.805 . S
Gd347 N342 2.622 . S
Gd347 N348 2.570 . S
Gd347 O379 2.386 . S
Gd347 O383 2.307 . S
Gd347 O386 2.353 . S
Gd347 O387 2.468 . S
Gd347 O388 2.427 . S
Gd347 O390 2.388 . S
Gd347 C411 2.805 . S
N348 C338 1.359 . S
N348 Gd347 2.570 . S
N348 C350 1.343 1_455 S
C349 C337 1.422 . S
C349 C351 1.321 . S
C349 H357 0.931 . S
C350 N348 1.343 1_655 S
C350 C351 1.390 . S
C350 H352 0.931 . S
C351 C349 1.321 . S
C351 C350 1.390 . S
C351 H353 0.930 . S
H352 C350 0.931 . S
H353 C351 0.930 . S
H354 C377 0.931 . S
H355 C343 0.929 . S
H356 C378 0.930 . S
H357 C349 0.931 . S
H358 C339 0.930 . S
H359 C368 0.929 . S
H360 C344 0.931 . S
H361 C345 0.930 . S
H362 C400 0.930 . S
H363 C341 0.929 . S
H364 C369 0.931 . S
H365 C370 0.930 . S
N366 Gd346 2.622 . S
N366 C367 1.369 . S
N366 C368 1.338 . S
C367 N366 1.369 . S
C367 C371 1.415 . S
C367 C374 1.422 . S
C368 H359 0.929 . S
C368 N366 1.338 . S
C368 C370 1.378 . S
C369 H364 0.931 . S
C369 C370 1.348 . S
C369 C371 1.413 . S
C370 H365 0.930 . S
C370 C368 1.378 . S
C370 C369 1.348 . S
C371 C367 1.415 . S
C371 C369 1.413 . S
C371 C401 1.437 . S
H372 C401 0.929 . S
N373 Gd346 2.570 . S
N373 C374 1.359 . S
N373 C377 1.343 . S
C374 C367 1.422 . S
C374 N373 1.359 . S
C374 C376 1.421 . S
C375 C376 1.422 . S
C375 C378 1.321 . S
C375 H402 0.931 . S
C376 C374 1.421 . S
C376 C375 1.422 . S
C376 C400 1.417 . S
C377 H354 0.931 . S
C377 N373 1.343 . S
C377 C378 1.390 . S
C378 H356 0.930 . S
C378 C375 1.321 . S
C378 C377 1.390 . S
O379 Gd347 2.386 . S
O379 C391 1.265 . S
O380 Gd346 2.353 . S
O380 C391 1.242 . S
O381 Gd346 2.468 . S
O381 C399 1.263 . S
O382 Gd346 2.427 . S
O382 C399 1.252 . S
O383 Gd347 2.307 . S
O383 C392 1.261 . S
O384 Gd346 2.388 . S
O384 C392 1.252 . S
O385 Gd346 2.386 . S
O385 C403 1.265 . S
O386 Gd347 2.353 . S
O386 C403 1.242 . S
O387 Gd347 2.468 . S
O387 C411 1.263 . S
O388 Gd347 2.427 . S
O388 C411 1.252 . S
O389 Gd346 2.307 . S
O389 C404 1.261 . S
O390 Gd347 2.388 . S
O390 C404 1.252 . S
C391 O379 1.265 . S
C391 O380 1.242 . S
C392 O383 1.261 . S
C392 O384 1.252 . S
C393 C396 1.394 . S
C393 C398 1.370 . S
C393 C399 1.500 . S
C394 C397 1.383 . S
C394 C398 1.395 . S
C395 C396 1.396 . S
C395 C397 1.365 . S
C395 H412 0.929 . S
C396 C393 1.394 . S
C396 C395 1.396 . S
C396 H413 0.930 . S
C397 C394 1.383 . S
C397 C395 1.365 . S
C397 H414 0.931 . S
C398 C393 1.370 . S
C398 C394 1.395 . S
C398 H415 0.930 . S
C399 Gd346 2.805 . S
C399 O381 1.263 . S
C399 O382 1.252 . S
C399 C393 1.500 . S
C400 H362 0.930 . S
C400 C376 1.417 . S
C400 C401 1.329 . S
C401 C371 1.437 . S
C401 H372 0.929 . S
C401 C400 1.329 . S
H402 C375 0.931 . S
C403 O385 1.265 . S
C403 O386 1.242 . S
C404 O389 1.261 . S
C404 O390 1.252 . S
C405 C408 1.394 . S
C405 C410 1.370 . S
C405 C411 1.500 . S
C406 C409 1.383 . S
C406 C410 1.395 . S
C407 C408 1.396 . S
C407 C409 1.365 . S
C407 H416 0.929 . S
C408 C405 1.394 . S
C408 C407 1.396 . S
C408 H417 0.930 . S
C409 C406 1.383 . S
C409 C407 1.365 . S
C409 H418 0.931 . S
C410 C405 1.370 . S
C410 C406 1.395 . S
C410 H419 0.930 . S
C411 Gd347 2.805 . S
C411 O387 1.263 . S
C411 O388 1.252 . S
C411 C405 1.500 . S
H412 C395 0.929 . S
H413 C396 0.930 . S
H414 C397 0.931 . S
H415 C398 0.930 . S
H416 C407 0.929 . S
H417 C408 0.930 . S
H418 C409 0.931 . S
H419 C410 0.930 . S
C420 C422 1.422 . S
C420 C424 1.415 . S
C420 N426 1.369 . S
C421 C422 1.421 . S
C421 C423 1.417 . S
C421 C433 1.422 . S
C422 C420 1.422 . S
C422 C421 1.421 . S
C422 N432 1.359 . S
C423 C421 1.417 . S
C423 C425 1.329 . S
C423 H442 0.930 . S
C424 C420 1.415 . S
C424 C425 1.437 . S
C424 C428 1.413 . S
C425 C423 1.329 . S
C425 C424 1.437 . S
C425 H447 0.929 . S
N426 C420 1.369 . S
N426 C427 1.338 . S
N426 Gd431 2.622 . S
C427 N426 1.338 . S
C427 C429 1.378 . S
C427 H439 0.929 . S
C428 C424 1.413 . S
C428 C429 1.348 . S
C428 H444 0.931 . S
C429 C427 1.378 . S
C429 C428 1.348 . S
C429 H445 0.930 . S
Gd430 N450 2.622 . S
Gd430 N457 2.570 . S
Gd430 O464 2.353 . S
Gd430 O465 2.468 . S
Gd430 O466 2.427 . S
Gd430 O468 2.388 . S
Gd430 O469 2.386 . S
Gd430 O473 2.307 . S
Gd430 C483 2.805 . S
Gd431 N426 2.622 . S
Gd431 N432 2.570 . S
Gd431 O463 2.386 . S
Gd431 O467 2.307 . S
Gd431 O470 2.353 . S
Gd431 O471 2.468 . S
Gd431 O472 2.427 . S
Gd431 O474 2.388 . S
Gd431 C495 2.805 . S
N432 C422 1.359 . S
N432 Gd431 2.570 . S
N432 C434 1.343 . S
C433 C421 1.422 . S
C433 C435 1.321 . S
C433 H441 0.931 . S
C434 N432 1.343 . S
C434 C435 1.390 . S
C434 H436 0.931 . S
C435 C433 1.321 . S
C435 C434 1.390 . S
C435 H437 0.930 . S
H436 C434 0.931 . S
H437 C435 0.930 . S
H438 C461 0.931 . S
H439 C427 0.929 . S
H440 C462 0.930 . S
H441 C433 0.931 . S
H442 C423 0.930 . S
H443 C452 0.929 . S
H444 C428 0.931 . S
H445 C429 0.930 . S
H446 C484 0.930 . S
H447 C425 0.929 . S
H448 C453 0.931 . S
H449 C454 0.930 . S
N450 Gd430 2.622 . S
N450 C451 1.369 . S
N450 C452 1.338 . S
C451 N450 1.369 . S
C451 C455 1.415 . S
C451 C458 1.422 . S
C452 H443 0.929 . S
C452 N450 1.338 . S
C452 C454 1.378 . S
C453 H448 0.931 . S
C453 C454 1.348 . S
C453 C455 1.413 . S
C454 H449 0.930 . S
C454 C452 1.378 . S
C454 C453 1.348 . S
C455 C451 1.415 . S
C455 C453 1.413 . S
C455 C485 1.437 . S
H456 C485 0.929 . S
N457 Gd430 2.570 . S
N457 C458 1.359 . S
N457 C461 1.343 . S
C458 C451 1.422 . S
C458 N457 1.359 . S
C458 C460 1.421 . S
C459 C460 1.422 . S
C459 C462 1.321 . S
C459 H486 0.931 . S
C460 C458 1.421 . S
C460 C459 1.422 . S
C460 C484 1.417 . S
C461 H438 0.931 . S
C461 N457 1.343 . S
C461 C462 1.390 . S
C462 H440 0.930 . S
C462 C459 1.321 . S
C462 C461 1.390 . S
O463 Gd431 2.386 . S
O463 C475 1.265 . S
O464 Gd430 2.353 . S
O464 C475 1.242 . S
O465 Gd430 2.468 . S
O465 C483 1.263 . S
O466 Gd430 2.427 . S
O466 C483 1.252 . S
O467 Gd431 2.307 . S
O467 C476 1.261 . S
O468 Gd430 2.388 . S
O468 C476 1.252 . S
O469 Gd430 2.386 . S
O469 C487 1.265 . S
O470 Gd431 2.353 . S
O470 C487 1.242 . S
O471 Gd431 2.468 . S
O471 C495 1.263 . S
O472 Gd431 2.427 . S
O472 C495 1.252 . S
O473 Gd430 2.307 . S
O473 C488 1.261 . S
O474 Gd431 2.388 . S
O474 C488 1.252 . S
C475 O463 1.265 . S
C475 O464 1.242 . S
C476 O467 1.261 . S
C476 O468 1.252 . S
C477 C480 1.394 . S
C477 C482 1.370 1_556 S
C477 C483 1.500 . S
C478 C481 1.383 . S
C478 C482 1.395 . S
C479 C480 1.396 1_554 S
C479 C481 1.365 . S
C479 H496 0.929 . S
C480 C477 1.394 . S
C480 C479 1.396 1_556 S
C480 H497 0.930 . S
C481 C478 1.383 . S
C481 C479 1.365 . S
C481 H498 0.931 . S
C482 C477 1.370 1_554 S
C482 C478 1.395 . S
C482 H499 0.930 . S
C483 Gd430 2.805 . S
C483 O465 1.263 . S
C483 O466 1.252 . S
C483 C477 1.500 . S
C484 H446 0.930 . S
C484 C460 1.417 . S
C484 C485 1.329 . S
C485 C455 1.437 . S
C485 H456 0.929 . S
C485 C484 1.329 . S
H486 C459 0.931 . S
C487 O469 1.265 . S
C487 O470 1.242 . S
C488 O473 1.261 . S
C488 O474 1.252 . S
C489 C492 1.394 . S
C489 C494 1.370 . S
C489 C495 1.500 . S
C490 C493 1.383 . S
C490 C494 1.395 . S
C491 C492 1.396 . S
C491 C493 1.365 . S
C491 H500 0.929 . S
C492 C489 1.394 . S
C492 C491 1.396 . S
C492 H501 0.930 . S
C493 C490 1.383 . S
C493 C491 1.365 . S
C493 H502 0.931 . S
C494 C489 1.370 . S
C494 C490 1.395 . S
C494 H503 0.930 . S
C495 Gd431 2.805 . S
C495 O471 1.263 . S
C495 O472 1.252 . S
C495 C489 1.500 . S
H496 C479 0.929 . S
H497 C480 0.930 . S
H498 C481 0.931 . S
H499 C482 0.930 . S
H500 C491 0.929 . S
H501 C492 0.930 . S
H502 C493 0.931 . S
H503 C494 0.930 . S
C504 C506 1.422 . S
C504 C508 1.415 . S
C504 N510 1.369 . S
C505 C506 1.421 . S
C505 C507 1.417 . S
C505 C517 1.422 . S
C506 C504 1.422 . S
C506 C505 1.421 . S
C506 N516 1.359 . S
C507 C505 1.417 . S
C507 C509 1.329 . S
C507 H526 0.930 . S
C508 C504 1.415 . S
C508 C509 1.437 . S
C508 C512 1.413 . S
C509 C507 1.329 . S
C509 C508 1.437 . S
C509 H531 0.929 . S
N510 C504 1.369 . S
N510 C511 1.338 . S
N510 Gd515 2.622 . S
C511 N510 1.338 . S
C511 C513 1.378 . S
C511 H523 0.929 . S
C512 C508 1.413 . S
C512 C513 1.348 . S
C512 H528 0.931 . S
C513 C511 1.378 . S
C513 C512 1.348 . S
C513 H529 0.930 . S
Gd514 N534 2.622 . S
Gd514 N541 2.570 . S
Gd514 O548 2.353 1_554 S
Gd514 O549 2.468 1_554 S
Gd514 O550 2.427 1_554 S
Gd514 O552 2.388 . S
Gd514 O553 2.386 . S
Gd514 O557 2.307 . S
Gd514 C567 2.805 1_554 S
Gd515 N510 2.622 . S
Gd515 N516 2.570 . S
Gd515 O547 2.386 . S
Gd515 O551 2.307 . S
Gd515 O554 2.353 . S
Gd515 O555 2.468 . S
Gd515 O556 2.427 . S
Gd515 O558 2.388 . S
Gd515 C579 2.805 . S
N516 C506 1.359 . S
N516 Gd515 2.570 . S
N516 C518 1.343 . S
C517 C505 1.422 . S
C517 C519 1.321 . S
C517 H525 0.931 . S
C518 N516 1.343 . S
C518 C519 1.390 . S
C518 H520 0.931 . S
C519 C517 1.321 . S
C519 C518 1.390 . S
C519 H521 0.930 . S
H520 C518 0.931 . S
H521 C519 0.930 . S
H522 C545 0.931 . S
H523 C511 0.929 . S
H524 C546 0.930 . S
H525 C517 0.931 . S
H526 C507 0.930 . S
H527 C536 0.929 . S
H528 C512 0.931 . S
H529 C513 0.930 . S
H530 C568 0.930 . S
H531 C509 0.929 . S
H532 C537 0.931 . S
H533 C538 0.930 . S
N534 Gd514 2.622 . S
N534 C535 1.369 . S
N534 C536 1.338 . S
C535 N534 1.369 . S
C535 C539 1.415 . S
C535 C542 1.422 . S
C536 H527 0.929 . S
C536 N534 1.338 . S
C536 C538 1.378 . S
C537 H532 0.931 . S
C537 C538 1.348 . S
C537 C539 1.413 . S
C538 H533 0.930 . S
C538 C536 1.378 . S
C538 C537 1.348 . S
C539 C535 1.415 . S
C539 C537 1.413 . S
C539 C569 1.437 . S
H540 C569 0.929 . S
N541 Gd514 2.570 . S
N541 C542 1.359 . S
N541 C545 1.343 . S
C542 C535 1.422 . S
C542 N541 1.359 . S
C542 C544 1.421 . S
C543 C544 1.422 . S
C543 C546 1.321 . S
C543 H570 0.931 . S
C544 C542 1.421 . S
C544 C543 1.422 . S
C544 C568 1.417 . S
C545 H522 0.931 . S
C545 N541 1.343 . S
C545 C546 1.390 . S
C546 H524 0.930 . S
C546 C543 1.321 . S
C546 C545 1.390 . S
O547 Gd515 2.386 . S
O547 C559 1.265 1_554 S
O548 Gd514 2.353 1_556 S
O548 C559 1.242 . S
O549 Gd514 2.468 1_556 S
O549 C567 1.263 . S
O550 Gd514 2.427 1_556 S
O550 C567 1.252 . S
O551 Gd515 2.307 . S
O551 C560 1.261 . S
O552 Gd514 2.388 . S
O552 C560 1.252 . S
O553 Gd514 2.386 . S
O553 C571 1.265 . S
O554 Gd515 2.353 . S
O554 C571 1.242 . S
O555 Gd515 2.468 . S
O555 C579 1.263 . S
O556 Gd515 2.427 . S
O556 C579 1.252 . S
O557 Gd514 2.307 . S
O557 C572 1.261 . S
O558 Gd515 2.388 . S
O558 C572 1.252 . S
C559 O547 1.265 1_556 S
C559 O548 1.242 . S
C560 O551 1.261 . S
C560 O552 1.252 . S
C561 C564 1.394 . S
C561 C566 1.370 . S
C561 C567 1.500 . S
C562 C565 1.383 . S
C562 C566 1.395 . S
C563 C564 1.396 . S
C563 C565 1.365 . S
C563 H580 0.929 . S
C564 C561 1.394 . S
C564 C563 1.396 . S
C564 H581 0.930 . S
C565 C562 1.383 . S
C565 C563 1.365 . S
C565 H582 0.931 . S
C566 C561 1.370 . S
C566 C562 1.395 . S
C566 H583 0.930 . S
C567 Gd514 2.805 1_556 S
C567 O549 1.263 . S
C567 O550 1.252 . S
C567 C561 1.500 . S
C568 H530 0.930 . S
C568 C544 1.417 . S
C568 C569 1.329 . S
C569 C539 1.437 . S
C569 H540 0.929 . S
C569 C568 1.329 . S
H570 C543 0.931 . S
C571 O553 1.265 . S
C571 O554 1.242 . S
C572 O557 1.261 . S
C572 O558 1.252 . S
C573 C576 1.394 . S
C573 C578 1.370 . S
C573 C579 1.500 . S
C574 C577 1.383 . S
C574 C578 1.395 . S
C575 C576 1.396 . S
C575 C577 1.365 . S
C575 H584 0.929 . S
C576 C573 1.394 . S
C576 C575 1.396 . S
C576 H585 0.930 . S
C577 C574 1.383 . S
C577 C575 1.365 . S
C577 H586 0.931 . S
C578 C573 1.370 . S
C578 C574 1.395 . S
C578 H587 0.930 . S
C579 Gd515 2.805 . S
C579 O555 1.263 . S
C579 O556 1.252 . S
C579 C573 1.500 . S
H580 C563 0.929 . S
H581 C564 0.930 . S
H582 C565 0.931 . S
H583 C566 0.930 . S
H584 C575 0.929 . S
H585 C576 0.930 . S
H586 C577 0.931 . S
H587 C578 0.930 . S
C588 C590 1.422 . S
C588 C592 1.415 . S
C588 N594 1.369 . S
C589 C590 1.421 . S
C589 C591 1.417 . S
C589 C601 1.422 . S
C590 C588 1.422 . S
C590 C589 1.421 . S
C590 N600 1.359 . S
C591 C589 1.417 . S
C591 C593 1.329 . S
C591 H610 0.930 . S
C592 C588 1.415 . S
C592 C593 1.437 . S
C592 C596 1.413 . S
C593 C591 1.329 . S
C593 C592 1.437 . S
C593 H615 0.929 . S
N594 C588 1.369 . S
N594 C595 1.338 . S
N594 Gd599 2.622 . S
C595 N594 1.338 . S
C595 C597 1.378 . S
C595 H607 0.929 . S
C596 C592 1.413 . S
C596 C597 1.348 . S
C596 H612 0.931 . S
C597 C595 1.378 . S
C597 C596 1.348 . S
C597 H613 0.930 . S
Gd598 N618 2.622 . S
Gd598 N625 2.570 . S
Gd598 O632 2.353 . S
Gd598 O633 2.468 . S
Gd598 O634 2.427 . S
Gd598 O636 2.388 . S
Gd598 O637 2.386 . S
Gd598 O641 2.307 . S
Gd598 C651 2.805 . S
Gd599 N594 2.622 . S
Gd599 N600 2.570 . S
Gd599 O631 2.386 . S
Gd599 O635 2.307 . S
Gd599 O638 2.353 . S
Gd599 O639 2.468 . S
Gd599 O640 2.427 . S
Gd599 O642 2.388 . S
Gd599 C663 2.805 . S
N600 C590 1.359 . S
N600 Gd599 2.570 . S
N600 C602 1.343 . S
C601 C589 1.422 . S
C601 C603 1.321 . S
C601 H609 0.931 . S
C602 N600 1.343 . S
C602 C603 1.390 . S
C602 H604 0.931 . S
C603 C601 1.321 . S
C603 C602 1.390 . S
C603 H605 0.930 . S
H604 C602 0.931 . S
H605 C603 0.930 . S
H606 C629 0.931 . S
H607 C595 0.929 . S
H608 C630 0.930 . S
H609 C601 0.931 . S
H610 C591 0.930 . S
H611 C620 0.929 . S
H612 C596 0.931 . S
H613 C597 0.930 . S
H614 C652 0.930 . S
H615 C593 0.929 . S
H616 C621 0.931 . S
H617 C622 0.930 . S
N618 Gd598 2.622 . S
N618 C619 1.369 . S
N618 C620 1.338 . S
C619 N618 1.369 . S
C619 C623 1.415 . S
C619 C626 1.422 . S
C620 H611 0.929 . S
C620 N618 1.338 . S
C620 C622 1.378 . S
C621 H616 0.931 . S
C621 C622 1.348 . S
C621 C623 1.413 . S
C622 H617 0.930 . S
C622 C620 1.378 . S
C622 C621 1.348 . S
C623 C619 1.415 . S
C623 C621 1.413 . S
C623 C653 1.437 . S
H624 C653 0.929 . S
N625 Gd598 2.570 . S
N625 C626 1.359 . S
N625 C629 1.343 . S
C626 C619 1.422 . S
C626 N625 1.359 . S
C626 C628 1.421 . S
C627 C628 1.422 . S
C627 C630 1.321 . S
C627 H654 0.931 . S
C628 C626 1.421 . S
C628 C627 1.422 . S
C628 C652 1.417 . S
C629 H606 0.931 . S
C629 N625 1.343 . S
C629 C630 1.390 . S
C630 H608 0.930 . S
C630 C627 1.321 . S
C630 C629 1.390 . S
O631 Gd599 2.386 . S
O631 C643 1.265 . S
O632 Gd598 2.353 . S
O632 C643 1.242 . S
O633 Gd598 2.468 . S
O633 C651 1.263 . S
O634 Gd598 2.427 . S
O634 C651 1.252 . S
O635 Gd599 2.307 . S
O635 C644 1.261 . S
O636 Gd598 2.388 . S
O636 C644 1.252 . S
O637 Gd598 2.386 . S
O637 C655 1.265 . S
O638 Gd599 2.353 . S
O638 C655 1.242 . S
O639 Gd599 2.468 . S
O639 C663 1.263 . S
O640 Gd599 2.427 . S
O640 C663 1.252 . S
O641 Gd598 2.307 . S
O641 C656 1.261 . S
O642 Gd599 2.388 . S
O642 C656 1.252 . S
C643 O631 1.265 . S
C643 O632 1.242 . S
C644 O635 1.261 . S
C644 O636 1.252 . S
C645 C648 1.394 . S
C645 C650 1.370 . S
C645 C651 1.500 . S
C646 C649 1.383 . S
C646 C650 1.395 . S
C647 C648 1.396 . S
C647 C649 1.365 . S
C647 H664 0.929 . S
C648 C645 1.394 . S
C648 C647 1.396 . S
C648 H665 0.930 . S
C649 C646 1.383 . S
C649 C647 1.365 . S
C649 H666 0.931 . S
C650 C645 1.370 . S
C650 C646 1.395 . S
C650 H667 0.930 . S
C651 Gd598 2.805 . S
C651 O633 1.263 . S
C651 O634 1.252 . S
C651 C645 1.500 . S
C652 H614 0.930 . S
C652 C628 1.417 . S
C652 C653 1.329 . S
C653 C623 1.437 . S
C653 H624 0.929 . S
C653 C652 1.329 . S
H654 C627 0.931 . S
C655 O637 1.265 . S
C655 O638 1.242 . S
C656 O641 1.261 . S
C656 O642 1.252 . S
C657 C660 1.394 . S
C657 C662 1.370 . S
C657 C663 1.500 . S
C658 C661 1.383 . S
C658 C662 1.395 . S
C659 C660 1.396 . S
C659 C661 1.365 . S
C659 H668 0.929 . S
C660 C657 1.394 . S
C660 C659 1.396 . S
C660 H669 0.930 . S
C661 C658 1.383 . S
C661 C659 1.365 . S
C661 H670 0.931 . S
C662 C657 1.370 . S
C662 C658 1.395 . S
C662 H671 0.930 . S
C663 Gd599 2.805 . S
C663 O639 1.263 . S
C663 O640 1.252 . S
C663 C657 1.500 . S
H664 C647 0.929 . S
H665 C648 0.930 . S
H666 C649 0.931 . S
H667 C650 0.930 . S
H668 C659 0.929 . S
H669 C660 0.930 . S
H670 C661 0.931 . S
H671 C662 0.930 . S
C672 C674 1.422 . S
C672 C676 1.415 . S
C672 N678 1.369 . S
C673 C674 1.421 . S
C673 C675 1.417 . S
C673 C685 1.422 . S
C674 C672 1.422 . S
C674 C673 1.421 . S
C674 N684 1.359 . S
C675 C673 1.417 . S
C675 C677 1.329 . S
C675 H694 0.930 . S
C676 C672 1.415 . S
C676 C677 1.437 . S
C676 C680 1.413 . S
C677 C675 1.329 . S
C677 C676 1.437 . S
C677 H699 0.929 . S
N678 C672 1.369 . S
N678 C679 1.338 . S
N678 Gd683 2.622 . S
C679 N678 1.338 . S
C679 C681 1.378 . S
C679 H691 0.929 . S
C680 C676 1.413 . S
C680 C681 1.348 . S
C680 H696 0.931 . S
C681 C679 1.378 . S
C681 C680 1.348 . S
C681 H697 0.930 . S
Gd682 N702 2.622 . S
Gd682 N709 2.570 . S
Gd682 O716 2.353 . S
Gd682 O717 2.468 . S
Gd682 O718 2.427 . S
Gd682 O720 2.388 . S
Gd682 O721 2.386 . S
Gd682 O725 2.307 . S
Gd682 C735 2.805 . S
Gd683 N678 2.622 . S
Gd683 N684 2.570 . S
Gd683 O715 2.386 . S
Gd683 O719 2.307 . S
Gd683 O722 2.353 . S
Gd683 O723 2.468 . S
Gd683 O724 2.427 . S
Gd683 O726 2.388 . S
Gd683 C747 2.805 . S
N684 C674 1.359 . S
N684 Gd683 2.570 . S
N684 C686 1.343 . S
C685 C673 1.422 . S
C685 C687 1.321 . S
C685 H693 0.931 . S
C686 N684 1.343 . S
C686 C687 1.390 . S
C686 H688 0.931 . S
C687 C685 1.321 . S
C687 C686 1.390 . S
C687 H689 0.930 . S
H688 C686 0.931 . S
H689 C687 0.930 . S
H690 C713 0.931 . S
H691 C679 0.929 . S
H692 C714 0.959 . S
H693 C685 0.931 . S
H694 C675 0.930 . S
H695 C704 0.929 . S
H696 C680 0.931 . S
H697 C681 0.930 . S
H698 C736 0.930 . S
H699 C677 0.929 . S
H700 C705 0.931 . S
H701 C706 0.930 . S
N702 Gd682 2.622 . S
N702 C703 1.369 . S
N702 C704 1.338 . S
C703 N702 1.369 . S
C703 C707 1.415 . S
C703 C710 1.422 . S
C704 H695 0.929 . S
C704 N702 1.338 . S
C704 C706 1.378 . S
C705 H700 0.931 . S
C705 C706 1.348 . S
C705 C707 1.413 . S
C706 H701 0.930 . S
C706 C704 1.378 . S
C706 C705 1.348 . S
C707 C703 1.415 . S
C707 C705 1.413 . S
C707 C737 1.437 . S
H708 C737 0.929 . S
N709 Gd682 2.570 . S
N709 C710 1.359 . S
N709 C713 1.343 . S
C710 C703 1.422 . S
C710 N709 1.359 . S
C710 C712 1.421 . S
C711 C712 1.448 . S
C711 C714 1.319 1_655 S
C711 H738 0.907 1_655 S
C712 C710 1.421 . S
C712 C711 1.448 . S
C712 C736 1.417 . S
C713 H690 0.931 . S
C713 N709 1.343 . S
C713 C714 1.363 1_655 S
C714 H692 0.959 . S
C714 C711 1.319 1_455 S
C714 C713 1.363 1_455 S
O715 Gd683 2.386 . S
O715 C727 1.265 . S
O716 Gd682 2.353 . S
O716 C727 1.242 . S
O717 Gd682 2.468 . S
O717 C735 1.263 . S
O718 Gd682 2.427 . S
O718 C735 1.252 . S
O719 Gd683 2.307 . S
O719 C728 1.261 . S
O720 Gd682 2.388 . S
O720 C728 1.252 . S
O721 Gd682 2.386 . S
O721 C739 1.265 . S
O722 Gd683 2.353 . S
O722 C739 1.242 . S
O723 Gd683 2.468 . S
O723 C747 1.263 . S
O724 Gd683 2.427 . S
O724 C747 1.252 . S
O725 Gd682 2.307 . S
O725 C740 1.261 . S
O726 Gd683 2.388 . S
O726 C740 1.252 . S
C727 O715 1.265 . S
C727 O716 1.242 . S
C728 O719 1.261 . S
C728 O720 1.252 . S
C729 C732 1.394 . S
C729 C734 1.370 . S
C729 C735 1.500 . S
C730 C733 1.383 . S
C730 C734 1.395 . S
C731 C732 1.396 . S
C731 C733 1.365 . S
C731 H748 0.929 . S
C732 C729 1.394 . S
C732 C731 1.396 . S
C732 H749 0.930 . S
C733 C730 1.383 . S
C733 C731 1.365 . S
C733 H750 0.931 . S
C734 C729 1.370 . S
C734 C730 1.395 . S
C734 H751 0.930 . S
C735 Gd682 2.805 . S
C735 O717 1.263 . S
C735 O718 1.252 . S
C735 C729 1.500 . S
C736 H698 0.930 . S
C736 C712 1.417 . S
C736 C737 1.329 . S
C737 C707 1.437 . S
C737 H708 0.929 . S
C737 C736 1.329 . S
H738 C711 0.907 1_455 S
C739 O721 1.265 . S
C739 O722 1.242 . S
C740 O725 1.261 . S
C740 O726 1.252 . S
C741 C744 1.394 . S
C741 C746 1.370 . S
C741 C747 1.500 1_556 S
C742 C745 1.383 . S
C742 C746 1.395 . S
C743 C744 1.396 . S
C743 C745 1.365 . S
C743 H752 0.929 . S
C744 C741 1.394 . S
C744 C743 1.396 . S
C744 H753 0.930 . S
C745 C742 1.383 . S
C745 C743 1.365 . S
C745 H754 0.931 . S
C746 C741 1.370 . S
C746 C742 1.395 . S
C746 H755 0.930 . S
C747 Gd683 2.805 . S
C747 O723 1.263 . S
C747 O724 1.252 . S
C747 C741 1.500 1_554 S
H748 C731 0.929 . S
H749 C732 0.930 . S
H750 C733 0.931 . S
H751 C734 0.930 . S
H752 C743 0.929 . S
H753 C744 0.930 . S
H754 C745 0.931 . S
H755 C746 0.930 . S
C756 C758 1.422 . S
C756 C760 1.415 . S
C756 N762 1.369 . S
C757 C758 1.421 . S
C757 C759 1.417 . S
C757 C769 1.422 . S
C758 C756 1.422 . S
C758 C757 1.421 . S
C758 N768 1.359 . S
C759 C757 1.417 . S
C759 C761 1.329 . S
C759 H778 0.930 . S
C760 C756 1.415 . S
C760 C761 1.437 . S
C760 C764 1.413 . S
C761 C759 1.329 . S
C761 C760 1.437 . S
C761 H783 0.929 . S
N762 C756 1.369 . S
N762 C763 1.338 . S
N762 Gd767 2.622 . S
C763 N762 1.338 . S
C763 C765 1.378 . S
C763 H775 0.929 . S
C764 C760 1.413 . S
C764 C765 1.348 . S
C764 H780 0.931 . S
C765 C763 1.378 . S
C765 C764 1.348 . S
C765 H781 0.930 . S
Gd766 N786 2.622 . S
Gd766 N793 2.570 . S
Gd766 O800 2.353 . S
Gd766 O801 2.468 . S
Gd766 O802 2.427 . S
Gd766 O804 2.388 . S
Gd766 O805 2.386 . S
Gd766 O809 2.307 . S
Gd766 C819 2.805 . S
Gd767 N762 2.622 . S
Gd767 N768 2.570 . S
Gd767 O799 2.386 . S
Gd767 O803 2.307 . S
Gd767 O806 2.353 . S
Gd767 O807 2.468 . S
Gd767 O808 2.427 . S
Gd767 O810 2.388 . S
Gd767 C831 2.805 . S
N768 C758 1.359 . S
N768 Gd767 2.570 . S
N768 C770 1.343 . S
C769 C757 1.422 . S
C769 C771 1.321 . S
C769 H777 0.931 . S
C770 N768 1.343 . S
C770 C771 1.390 . S
C770 H772 0.931 . S
C771 C769 1.321 . S
C771 C770 1.390 . S
C771 H773 0.930 . S
H772 C770 0.931 . S
H773 C771 0.930 . S
H774 C797 0.931 . S
H775 C763 0.929 . S
H776 C798 0.930 . S
H777 C769 0.931 . S
H778 C759 0.930 . S
H779 C788 0.929 . S
H780 C764 0.931 . S
H781 C765 0.930 . S
H782 C820 0.930 . S
H783 C761 0.929 . S
H784 C789 0.931 . S
H785 C790 0.930 . S
N786 Gd766 2.622 . S
N786 C787 1.369 . S
N786 C788 1.338 . S
C787 N786 1.369 . S
C787 C791 1.415 . S
C787 C794 1.422 . S
C788 H779 0.929 . S
C788 N786 1.338 . S
C788 C790 1.378 . S
C789 H784 0.931 . S
C789 C790 1.348 . S
C789 C791 1.413 . S
C790 H785 0.930 . S
C790 C788 1.378 . S
C790 C789 1.348 . S
C791 C787 1.415 . S
C791 C789 1.413 . S
C791 C821 1.437 . S
H792 C821 0.929 . S
N793 Gd766 2.570 . S
N793 C794 1.359 . S
N793 C797 1.343 . S
C794 C787 1.422 . S
C794 N793 1.359 . S
C794 C796 1.421 . S
C795 C796 1.422 . S
C795 C798 1.321 . S
C795 H822 0.931 . S
C796 C794 1.421 . S
C796 C795 1.422 . S
C796 C820 1.417 . S
C797 H774 0.931 . S
C797 N793 1.343 . S
C797 C798 1.390 . S
C798 H776 0.930 . S
C798 C795 1.321 . S
C798 C797 1.390 . S
O799 Gd767 2.386 . S
O799 C811 1.265 . S
O800 Gd766 2.353 . S
O800 C811 1.242 . S
O801 Gd766 2.468 . S
O801 C819 1.263 . S
O802 Gd766 2.427 . S
O802 C819 1.252 . S
O803 Gd767 2.307 . S
O803 C812 1.261 . S
O804 Gd766 2.388 . S
O804 C812 1.252 . S
O805 Gd766 2.386 . S
O805 C823 1.265 . S
O806 Gd767 2.353 . S
O806 C823 1.242 . S
O807 Gd767 2.468 . S
O807 C831 1.263 . S
O808 Gd767 2.427 . S
O808 C831 1.252 . S
O809 Gd766 2.307 . S
O809 C824 1.261 . S
O810 Gd767 2.388 . S
O810 C824 1.252 . S
C811 O799 1.265 . S
C811 O800 1.242 . S
C812 O803 1.261 . S
C812 O804 1.252 . S
C813 C816 1.394 . S
C813 C818 1.370 . S
C813 C819 1.500 . S
C814 C817 1.383 . S
C814 C818 1.395 . S
C815 C816 1.396 . S
C815 C817 1.365 . S
C815 H832 0.929 . S
C816 C813 1.394 . S
C816 C815 1.396 . S
C816 H833 0.930 . S
C817 C814 1.383 . S
C817 C815 1.365 . S
C817 H834 0.931 1_556 S
C818 C813 1.370 . S
C818 C814 1.395 . S
C818 H835 0.930 . S
C819 Gd766 2.805 . S
C819 O801 1.263 . S
C819 O802 1.252 . S
C819 C813 1.500 . S
C820 H782 0.930 . S
C820 C796 1.417 . S
C820 C821 1.329 . S
C821 C791 1.437 . S
C821 H792 0.929 . S
C821 C820 1.329 . S
H822 C795 0.931 . S
C823 O805 1.265 . S
C823 O806 1.242 . S
C824 O809 1.261 . S
C824 O810 1.252 . S
C825 C828 1.394 . S
C825 C830 1.370 . S
C825 C831 1.500 . S
C826 C829 1.383 . S
C826 C830 1.395 . S
C827 C828 1.396 . S
C827 C829 1.365 . S
C827 H836 0.929 . S
C828 C825 1.394 . S
C828 C827 1.396 . S
C828 H837 0.930 . S
C829 C826 1.383 . S
C829 C827 1.365 . S
C829 H838 0.931 . S
C830 C825 1.370 . S
C830 C826 1.395 . S
C830 H839 0.930 . S
C831 Gd767 2.805 . S
C831 O807 1.263 . S
C831 O808 1.252 . S
C831 C825 1.500 . S
H832 C815 0.929 . S
H833 C816 0.930 . S
H834 C817 0.931 1_554 S
H835 C818 0.930 . S
H836 C827 0.929 . S
H837 C828 0.930 . S
H838 C829 0.931 . S
H839 C830 0.930 . S
C840 C842 1.422 . S
C840 C844 1.415 . S
C840 N846 1.369 . S
C841 C842 1.421 . S
C841 C843 1.417 . S
C841 C853 1.422 . S
C842 C840 1.422 . S
C842 C841 1.421 . S
C842 N852 1.359 . S
C843 C841 1.417 . S
C843 C845 1.329 . S
C843 H862 0.930 . S
C844 C840 1.415 . S
C844 C845 1.437 . S
C844 C848 1.413 . S
C845 C843 1.329 . S
C845 C844 1.437 . S
C845 H867 0.929 . S
N846 C840 1.369 . S
N846 C847 1.338 . S
N846 Gd851 2.622 . S
C847 N846 1.338 . S
C847 C849 1.378 . S
C847 H859 0.929 . S
C848 C844 1.413 . S
C848 C849 1.348 . S
C848 H864 0.931 . S
C849 C847 1.378 . S
C849 C848 1.348 . S
C849 H865 0.930 . S
Gd850 N870 2.622 . S
Gd850 N877 2.570 . S
Gd850 O884 2.353 . S
Gd850 O885 2.468 . S
Gd850 O886 2.427 . S
Gd850 O888 2.388 . S
Gd850 O889 2.386 . S
Gd850 O893 2.307 . S
Gd850 C903 2.805 . S
Gd851 N846 2.622 . S
Gd851 N852 2.570 . S
Gd851 O883 2.386 . S
Gd851 O887 2.307 . S
Gd851 O890 2.353 . S
Gd851 O891 2.468 . S
Gd851 O892 2.427 . S
Gd851 O894 2.388 . S
Gd851 C915 2.805 . S
N852 C842 1.359 . S
N852 Gd851 2.570 . S
N852 C854 1.343 . S
C853 C841 1.422 . S
C853 C855 1.321 . S
C853 H861 0.931 . S
C854 N852 1.343 . S
C854 C855 1.390 . S
C854 H856 0.931 . S
C855 C853 1.321 . S
C855 C854 1.390 . S
C855 H857 0.930 . S
H856 C854 0.931 . S
H857 C855 0.930 . S
H858 C881 0.931 . S
H859 C847 0.929 . S
H860 C882 0.930 . S
H861 C853 0.931 . S
H862 C843 0.930 . S
H863 C872 0.929 . S
H864 C848 0.931 . S
H865 C849 0.930 . S
H866 C904 0.930 . S
H867 C845 0.929 . S
H868 C873 0.931 . S
H869 C874 0.930 . S
N870 Gd850 2.622 . S
N870 C871 1.369 . S
N870 C872 1.338 . S
C871 N870 1.369 . S
C871 C875 1.415 . S
C871 C878 1.422 . S
C872 H863 0.929 . S
C872 N870 1.338 . S
C872 C874 1.378 . S
C873 H868 0.931 . S
C873 C874 1.348 . S
C873 C875 1.413 . S
C874 H869 0.930 . S
C874 C872 1.378 . S
C874 C873 1.348 . S
C875 C871 1.415 . S
C875 C873 1.413 . S
C875 C905 1.437 . S
H876 C905 0.929 . S
N877 Gd850 2.570 . S
N877 C878 1.359 . S
N877 C881 1.343 . S
C878 C871 1.422 . S
C878 N877 1.359 . S
C878 C880 1.421 . S
C879 C880 1.422 . S
C879 C882 1.321 . S
C879 H906 0.931 . S
C880 C878 1.421 . S
C880 C879 1.422 . S
C880 C904 1.417 . S
C881 H858 0.931 . S
C881 N877 1.343 . S
C881 C882 1.390 . S
C882 H860 0.930 . S
C882 C879 1.321 . S
C882 C881 1.390 . S
O883 Gd851 2.386 . S
O883 C895 1.265 . S
O884 Gd850 2.353 . S
O884 C895 1.242 . S
O885 Gd850 2.468 . S
O885 C903 1.263 . S
O886 Gd850 2.427 . S
O886 C903 1.252 . S
O887 Gd851 2.307 . S
O887 C896 1.261 . S
O888 Gd850 2.388 . S
O888 C896 1.252 . S
O889 Gd850 2.386 . S
O889 C907 1.265 . S
O890 Gd851 2.353 . S
O890 C907 1.242 . S
O891 Gd851 2.468 . S
O891 C915 1.263 . S
O892 Gd851 2.427 . S
O892 C915 1.252 . S
O893 Gd850 2.307 . S
O893 C908 1.261 . S
O894 Gd851 2.388 . S
O894 C908 1.252 . S
C895 O883 1.265 . S
C895 O884 1.242 . S
C896 O887 1.261 . S
C896 O888 1.252 . S
C897 C900 1.394 . S
C897 C902 1.370 . S
C897 C903 1.500 . S
C898 C901 1.383 . S
C898 C902 1.395 . S
C899 C900 1.396 . S
C899 C901 1.365 . S
C899 H916 0.929 . S
C900 C897 1.394 . S
C900 C899 1.396 . S
C900 H917 0.930 . S
C901 C898 1.383 . S
C901 C899 1.365 . S
C901 H918 0.931 . S
C902 C897 1.370 . S
C902 C898 1.395 . S
C902 H919 0.930 . S
C903 Gd850 2.805 . S
C903 O885 1.263 . S
C903 O886 1.252 . S
C903 C897 1.500 . S
C904 H866 0.930 . S
C904 C880 1.417 . S
C904 C905 1.329 . S
C905 C875 1.437 . S
C905 H876 0.929 . S
C905 C904 1.329 . S
H906 C879 0.931 . S
C907 O889 1.265 . S
C907 O890 1.242 . S
C908 O893 1.261 . S
C908 O894 1.252 . S
C909 C912 1.394 . S
C909 C914 1.370 . S
C909 C915 1.500 . S
C910 C913 1.383 . S
C910 C914 1.395 . S
C911 C912 1.396 . S
C911 C913 1.365 . S
C911 H920 0.929 . S
C912 C909 1.394 . S
C912 C911 1.396 . S
C912 H921 0.930 . S
C913 C910 1.383 . S
C913 C911 1.365 . S
C913 H922 0.931 . S
C914 C909 1.370 . S
C914 C910 1.395 . S
C914 H923 0.930 . S
C915 Gd851 2.805 . S
C915 O891 1.263 . S
C915 O892 1.252 . S
C915 C909 1.500 . S
H916 C899 0.929 . S
H917 C900 0.930 . S
H918 C901 0.931 . S
H919 C902 0.930 . S
H920 C911 0.929 . S
H921 C912 0.930 . S
H922 C913 0.931 . S
H923 C914 0.930 . S
C924 C926 1.422 . S
C924 C928 1.415 . S
C924 N930 1.369 . S
C925 C926 1.421 . S
C925 C927 1.417 . S
C925 C937 1.422 . S
C926 C924 1.422 . S
C926 C925 1.421 . S
C926 N936 1.359 . S
C927 C925 1.417 . S
C927 C929 1.329 . S
C927 H946 0.930 . S
C928 C924 1.415 . S
C928 C929 1.437 . S
C928 C932 1.413 . S
C929 C927 1.329 . S
C929 C928 1.437 . S
C929 H951 0.929 . S
N930 C924 1.369 . S
N930 C931 1.338 . S
N930 Gd935 2.622 . S
C931 N930 1.338 . S
C931 C933 1.378 . S
C931 H943 0.929 . S
C932 C928 1.413 . S
C932 C933 1.348 . S
C932 H948 0.931 . S
C933 C931 1.378 . S
C933 C932 1.348 . S
C933 H949 0.930 . S
Gd934 N954 2.622 . S
Gd934 N961 2.570 . S
Gd934 O968 2.353 . S
Gd934 O969 2.468 . S
Gd934 O970 2.427 . S
Gd934 O972 2.388 . S
Gd934 O973 2.386 . S
Gd934 O977 2.307 . S
Gd934 C987 2.805 . S
Gd935 N930 2.622 . S
Gd935 N936 2.570 . S
Gd935 O967 2.386 . S
Gd935 O971 2.307 . S
Gd935 O974 2.353 . S
Gd935 O975 2.468 . S
Gd935 O976 2.427 . S
Gd935 O978 2.388 . S
Gd935 C999 2.805 . S
N936 C926 1.359 . S
N936 Gd935 2.570 . S
N936 C938 1.343 . S
C937 C925 1.422 . S
C937 C939 1.321 . S
C937 H945 0.931 . S
C938 N936 1.343 . S
C938 C939 1.390 . S
C938 H940 0.931 . S
C939 C937 1.321 . S
C939 C938 1.390 . S
C939 H941 0.930 . S
H940 C938 0.931 . S
H941 C939 0.930 . S
H942 C965 0.931 . S
H943 C931 0.929 . S
H944 C966 0.930 . S
H945 C937 0.931 . S
H946 C927 0.930 . S
H947 C956 0.929 . S
H948 C932 0.931 . S
H949 C933 0.930 . S
H950 C988 0.930 . S
H951 C929 0.929 . S
H952 C957 0.931 . S
H953 C958 0.930 . S
N954 Gd934 2.622 . S
N954 C955 1.369 . S
N954 C956 1.338 . S
C955 N954 1.369 . S
C955 C959 1.415 . S
C955 C962 1.422 . S
C956 H947 0.929 . S
C956 N954 1.338 . S
C956 C958 1.378 . S
C957 H952 0.931 . S
C957 C958 1.348 . S
C957 C959 1.413 . S
C958 H953 0.930 . S
C958 C956 1.378 . S
C958 C957 1.348 . S
C959 C955 1.415 . S
C959 C957 1.413 . S
C959 C989 1.437 . S
H960 C989 0.929 . S
N961 Gd934 2.570 . S
N961 C962 1.359 . S
N961 C965 1.343 . S
C962 C955 1.422 . S
C962 N961 1.359 . S
C962 C964 1.421 . S
C963 C964 1.422 . S
C963 C966 1.321 . S
C963 H990 0.931 . S
C964 C962 1.421 . S
C964 C963 1.422 . S
C964 C988 1.417 . S
C965 H942 0.931 . S
C965 N961 1.343 . S
C965 C966 1.390 . S
C966 H944 0.930 . S
C966 C963 1.321 . S
C966 C965 1.390 . S
O967 Gd935 2.386 . S
O967 C979 1.265 . S
O968 Gd934 2.353 . S
O968 C979 1.242 . S
O969 Gd934 2.468 . S
O969 C987 1.263 . S
O970 Gd934 2.427 . S
O970 C987 1.252 . S
O971 Gd935 2.307 . S
O971 C980 1.261 . S
O972 Gd934 2.388 . S
O972 C980 1.252 . S
O973 Gd934 2.386 . S
O973 C991 1.265 . S
O974 Gd935 2.353 . S
O974 C991 1.242 . S
O975 Gd935 2.468 . S
O975 C999 1.263 . S
O976 Gd935 2.427 . S
O976 C999 1.252 . S
O977 Gd934 2.307 . S
O977 C992 1.261 . S
O978 Gd935 2.388 . S
O978 C992 1.252 . S
C979 O967 1.265 . S
C979 O968 1.242 . S
C980 O971 1.261 . S
C980 O972 1.252 . S
C981 C984 1.394 . S
C981 C986 1.370 . S
C981 C987 1.500 . S
C982 C985 1.383 . S
C982 C986 1.395 . S
C983 C984 1.396 . S
C983 C985 1.365 . S
C983 H1000 0.929 . S
C984 C981 1.394 . S
C984 C983 1.396 . S
C984 H1001 0.930 . S
C985 C982 1.383 . S
C985 C983 1.365 . S
C985 H1002 0.931 . S
C986 C981 1.370 . S
C986 C982 1.395 . S
C986 H1003 0.930 . S
C987 Gd934 2.805 . S
C987 O969 1.263 . S
C987 O970 1.252 . S
C987 C981 1.500 . S
C988 H950 0.930 . S
C988 C964 1.417 . S
C988 C989 1.329 . S
C989 C959 1.437 . S
C989 H960 0.929 . S
C989 C988 1.329 . S
H990 C963 0.931 . S
C991 O973 1.265 . S
C991 O974 1.242 . S
C992 O977 1.261 . S
C992 O978 1.252 . S
C993 C996 1.394 . S
C993 C998 1.370 . S
C993 C999 1.500 . S
C994 C997 1.383 . S
C994 C998 1.395 . S
C995 C996 1.396 . S
C995 C997 1.365 . S
C995 H1004 0.929 . S
C996 C993 1.394 . S
C996 C995 1.396 . S
C996 H1005 0.930 . S
C997 C994 1.383 . S
C997 C995 1.365 . S
C997 H1006 0.931 . S
C998 C993 1.370 . S
C998 C994 1.395 . S
C998 H1007 0.930 . S
C999 Gd935 2.805 . S
C999 O975 1.263 . S
C999 O976 1.252 . S
C999 C993 1.500 . S
H1000 C983 0.929 . S
H1001 C984 0.930 . S
H1002 C985 0.931 . S
H1003 C986 0.930 . S
H1004 C995 0.929 . S
H1005 C996 0.930 . S
H1006 C997 0.931 . S
H1007 C998 0.930 . S
C1008 C1010 1.422 . S
C1008 C1012 1.415 . S
C1008 N1014 1.369 . S
C1009 C1010 1.421 . S
C1009 C1011 1.417 . S
C1009 C1021 1.422 . S
C1010 C1008 1.422 . S
C1010 C1009 1.421 . S
C1010 N1020 1.359 . S
C1011 C1009 1.417 . S
C1011 C1013 1.329 . S
C1011 H1030 0.930 . S
C1012 C1008 1.415 . S
C1012 C1013 1.437 . S
C1012 C1016 1.413 . S
C1013 C1011 1.329 . S
C1013 C1012 1.437 . S
C1013 H1035 0.929 . S
N1014 C1008 1.369 . S
N1014 C1015 1.338 . S
N1014 Gd1019 2.622 . S
C1015 N1014 1.338 . S
C1015 C1017 1.378 . S
C1015 H1027 0.929 . S
C1016 C1012 1.413 . S
C1016 C1017 1.348 . S
C1016 H1032 0.931 . S
C1017 C1015 1.378 . S
C1017 C1016 1.348 . S
C1017 H1033 0.930 . S
Gd1018 N1038 2.622 . S
Gd1018 N1045 2.570 . S
Gd1018 O1052 2.353 . S
Gd1018 O1053 2.468 . S
Gd1018 O1054 2.427 . S
Gd1018 O1056 2.388 . S
Gd1018 O1057 2.386 . S
Gd1018 O1061 2.307 . S
Gd1018 C1071 2.805 . S
Gd1019 N1014 2.622 . S
Gd1019 N1020 2.570 . S
Gd1019 O1051 2.386 . S
Gd1019 O1055 2.307 . S
Gd1019 O1058 2.353 . S
Gd1019 O1059 2.468 . S
Gd1019 O1060 2.427 . S
Gd1019 O1062 2.388 . S
Gd1019 C1083 2.805 . S
N1020 C1010 1.359 . S
N1020 Gd1019 2.570 . S
N1020 C1022 1.343 . S
C1021 C1009 1.422 . S
C1021 C1023 1.321 . S
C1021 H1029 0.931 . S
C1022 N1020 1.343 . S
C1022 C1023 1.390 . S
C1022 H1024 0.931 . S
C1023 C1021 1.321 . S
C1023 C1022 1.390 . S
C1023 H1025 0.930 . S
H1024 C1022 0.931 . S
H1025 C1023 0.930 . S
H1026 C1049 0.931 . S
H1027 C1015 0.929 . S
H1028 C1050 0.930 . S
H1029 C1021 0.931 . S
H1030 C1011 0.930 . S
H1031 C1040 0.929 . S
H1032 C1016 0.931 . S
H1033 C1017 0.930 . S
H1034 C1072 0.930 . S
H1035 C1013 0.929 . S
H1036 C1041 0.931 . S
H1037 C1042 0.930 . S
N1038 Gd1018 2.622 . S
N1038 C1039 1.369 . S
N1038 C1040 1.338 . S
C1039 N1038 1.369 . S
C1039 C1043 1.415 . S
C1039 C1046 1.422 . S
C1040 H1031 0.929 . S
C1040 N1038 1.338 . S
C1040 C1042 1.378 . S
C1041 H1036 0.931 . S
C1041 C1042 1.348 . S
C1041 C1043 1.413 . S
C1042 H1037 0.930 . S
C1042 C1040 1.378 . S
C1042 C1041 1.348 . S
C1043 C1039 1.415 . S
C1043 C1041 1.413 . S
C1043 C1073 1.437 . S
H1044 C1073 0.929 . S
N1045 Gd1018 2.570 . S
N1045 C1046 1.359 . S
N1045 C1049 1.343 1_655 S
C1046 C1039 1.422 . S
C1046 N1045 1.359 . S
C1046 C1048 1.421 1_655 S
C1047 C1048 1.422 . S
C1047 C1050 1.321 . S
C1047 H1074 0.931 . S
C1048 C1046 1.421 1_455 S
C1048 C1047 1.422 . S
C1048 C1072 1.417 . S
C1049 H1026 0.931 . S
C1049 N1045 1.343 1_455 S
C1049 C1050 1.390 . S
C1050 H1028 0.930 . S
C1050 C1047 1.321 . S
C1050 C1049 1.390 . S
O1051 Gd1019 2.386 . S
O1051 C1063 1.265 . S
O1052 Gd1018 2.353 . S
O1052 C1063 1.242 . S
O1053 Gd1018 2.468 . S
O1053 C1071 1.263 . S
O1054 Gd1018 2.427 . S
O1054 C1071 1.252 . S
O1055 Gd1019 2.307 . S
O1055 C1064 1.261 . S
O1056 Gd1018 2.388 . S
O1056 C1064 1.252 . S
O1057 Gd1018 2.386 . S
O1057 C1075 1.265 . S
O1058 Gd1019 2.353 . S
O1058 C1075 1.242 . S
O1059 Gd1019 2.468 . S
O1059 C1083 1.263 . S
O1060 Gd1019 2.427 . S
O1060 C1083 1.252 . S
O1061 Gd1018 2.307 . S
O1061 C1076 1.261 . S
O1062 Gd1019 2.388 . S
O1062 C1076 1.252 . S
C1063 O1051 1.265 . S
C1063 O1052 1.242 . S
C1064 O1055 1.261 . S
C1064 O1056 1.252 . S
C1065 C1068 1.394 . S
C1065 C1070 1.370 . S
C1065 C1071 1.500 . S
C1066 C1069 1.383 . S
C1066 C1070 1.395 . S
C1067 C1068 1.396 . S
C1067 C1069 1.365 . S
C1067 H1084 0.929 . S
C1068 C1065 1.394 . S
C1068 C1067 1.396 . S
C1068 H1085 0.930 . S
C1069 C1066 1.383 . S
C1069 C1067 1.365 . S
C1069 H1086 0.931 . S
C1070 C1065 1.370 . S
C1070 C1066 1.395 . S
C1070 H1087 0.930 . S
C1071 Gd1018 2.805 . S
C1071 O1053 1.263 . S
C1071 O1054 1.252 . S
C1071 C1065 1.500 . S
C1072 H1034 0.930 . S
C1072 C1048 1.417 . S
C1072 C1073 1.329 1_455 S
C1073 C1043 1.437 . S
C1073 H1044 0.929 . S
C1073 C1072 1.329 1_655 S
H1074 C1047 0.931 . S
C1075 O1057 1.265 . S
C1075 O1058 1.242 . S
C1076 O1061 1.261 . S
C1076 O1062 1.252 . S
C1077 C1080 1.394 . S
C1077 C1082 1.370 . S
C1077 C1083 1.500 . S
C1078 C1081 1.383 . S
C1078 C1082 1.395 . S
C1079 C1080 1.396 . S
C1079 C1081 1.365 . S
C1079 H1088 0.929 . S
C1080 C1077 1.394 . S
C1080 C1079 1.396 . S
C1080 H1089 0.930 . S
C1081 C1078 1.383 . S
C1081 C1079 1.365 . S
C1081 H1090 0.931 . S
C1082 C1077 1.370 . S
C1082 C1078 1.395 . S
C1082 H1091 0.930 . S
C1083 Gd1019 2.805 . S
C1083 O1059 1.263 . S
C1083 O1060 1.252 . S
C1083 C1077 1.500 . S
H1084 C1067 0.929 . S
H1085 C1068 0.930 . S
H1086 C1069 0.931 . S
H1087 C1070 0.930 . S
H1088 C1079 0.929 . S
H1089 C1080 0.930 . S
H1090 C1081 0.931 . S
H1091 C1082 0.930 . S
C1092 C1094 1.422 . S
C1092 C1096 1.415 . S
C1092 N1098 1.369 . S
C1093 C1094 1.421 . S
C1093 C1095 1.417 . S
C1093 C1105 1.422 . S
C1094 C1092 1.422 . S
C1094 C1093 1.421 . S
C1094 N1104 1.359 . S
C1095 C1093 1.417 . S
C1095 C1097 1.329 . S
C1095 H1114 0.930 . S
C1096 C1092 1.415 . S
C1096 C1097 1.437 . S
C1096 C1100 1.413 . S
C1097 C1095 1.329 . S
C1097 C1096 1.437 . S
C1097 H1119 0.929 . S
N1098 C1092 1.369 . S
N1098 C1099 1.338 . S
N1098 Gd1103 2.622 . S
C1099 N1098 1.338 . S
C1099 C1101 1.378 . S
C1099 H1111 0.929 . S
C1100 C1096 1.413 . S
C1100 C1101 1.348 . S
C1100 H1116 0.931 . S
C1101 C1099 1.378 . S
C1101 C1100 1.348 . S
C1101 H1117 0.930 . S
Gd1102 N1122 2.622 . S
Gd1102 N1129 2.570 . S
Gd1102 O1136 2.353 . S
Gd1102 O1137 2.468 . S
Gd1102 O1138 2.427 . S
Gd1102 O1140 2.388 . S
Gd1102 O1141 2.386 . S
Gd1102 O1145 2.307 . S
Gd1102 C1155 2.805 . S
Gd1103 N1098 2.622 . S
Gd1103 N1104 2.570 . S
Gd1103 O1135 2.386 . S
Gd1103 O1139 2.307 . S
Gd1103 O1142 2.353 . S
Gd1103 O1143 2.468 . S
Gd1103 O1144 2.427 . S
Gd1103 O1146 2.388 . S
Gd1103 C1167 2.805 . S
N1104 C1094 1.359 . S
N1104 Gd1103 2.570 . S
N1104 C1106 1.343 . S
C1105 C1093 1.422 . S
C1105 C1107 1.321 . S
C1105 H1113 0.931 . S
C1106 N1104 1.343 . S
C1106 C1107 1.390 . S
C1106 H1108 0.931 . S
C1107 C1105 1.321 . S
C1107 C1106 1.390 . S
C1107 H1109 0.930 . S
H1108 C1106 0.931 . S
H1109 C1107 0.930 . S
H1110 C1133 0.931 . S
H1111 C1099 0.929 . S
H1112 C1134 0.930 . S
H1113 C1105 0.931 . S
H1114 C1095 0.930 . S
H1115 C1124 0.929 . S
H1116 C1100 0.931 . S
H1117 C1101 0.930 . S
H1118 C1156 0.930 . S
H1119 C1097 0.929 . S
H1120 C1125 0.931 . S
H1121 C1126 0.930 . S
N1122 Gd1102 2.622 . S
N1122 C1123 1.369 . S
N1122 C1124 1.338 . S
C1123 N1122 1.369 . S
C1123 C1127 1.415 . S
C1123 C1130 1.422 . S
C1124 H1115 0.929 . S
C1124 N1122 1.338 . S
C1124 C1126 1.378 . S
C1125 H1120 0.931 . S
C1125 C1126 1.348 . S
C1125 C1127 1.413 . S
C1126 H1121 0.930 . S
C1126 C1124 1.378 . S
C1126 C1125 1.348 . S
C1127 C1123 1.415 . S
C1127 C1125 1.413 . S
C1127 C1157 1.437 . S
H1128 C1157 0.929 . S
N1129 Gd1102 2.570 . S
N1129 C1130 1.359 . S
N1129 C1133 1.343 . S
C1130 C1123 1.422 . S
C1130 N1129 1.359 . S
C1130 C1132 1.421 . S
C1131 C1132 1.422 . S
C1131 C1134 1.321 . S
C1131 H1158 0.931 . S
C1132 C1130 1.421 . S
C1132 C1131 1.422 . S
C1132 C1156 1.417 . S
C1133 H1110 0.931 . S
C1133 N1129 1.343 . S
C1133 C1134 1.390 . S
C1134 H1112 0.930 . S
C1134 C1131 1.321 . S
C1134 C1133 1.390 . S
O1135 Gd1103 2.386 . S
O1135 C1147 1.265 . S
O1136 Gd1102 2.353 . S
O1136 C1147 1.242 . S
O1137 Gd1102 2.468 . S
O1137 C1155 1.263 . S
O1138 Gd1102 2.427 . S
O1138 C1155 1.252 . S
O1139 Gd1103 2.307 . S
O1139 C1148 1.261 . S
O1140 Gd1102 2.388 . S
O1140 C1148 1.252 . S
O1141 Gd1102 2.386 . S
O1141 C1159 1.265 . S
O1142 Gd1103 2.353 . S
O1142 C1159 1.242 . S
O1143 Gd1103 2.468 . S
O1143 C1167 1.263 . S
O1144 Gd1103 2.427 . S
O1144 C1167 1.252 . S
O1145 Gd1102 2.307 . S
O1145 C1160 1.261 . S
O1146 Gd1103 2.388 . S
O1146 C1160 1.252 . S
C1147 O1135 1.265 . S
C1147 O1136 1.242 . S
C1148 O1139 1.261 . S
C1148 O1140 1.252 . S
C1149 C1152 1.394 . S
C1149 C1154 1.370 . S
C1149 C1155 1.500 . S
C1150 C1153 1.383 . S
C1150 C1154 1.395 . S
C1151 C1152 1.396 . S
C1151 C1153 1.365 . S
C1151 H1168 0.929 . S
C1152 C1149 1.394 . S
C1152 C1151 1.396 . S
C1152 H1169 0.930 . S
C1153 C1150 1.383 . S
C1153 C1151 1.365 . S
C1153 H1170 0.931 . S
C1154 C1149 1.370 . S
C1154 C1150 1.395 . S
C1154 H1171 0.930 . S
C1155 Gd1102 2.805 . S
C1155 O1137 1.263 . S
C1155 O1138 1.252 . S
C1155 C1149 1.500 . S
C1156 H1118 0.930 . S
C1156 C1132 1.417 . S
C1156 C1157 1.329 . S
C1157 C1127 1.437 . S
C1157 H1128 0.929 . S
C1157 C1156 1.329 . S
H1158 C1131 0.931 . S
C1159 O1141 1.265 . S
C1159 O1142 1.242 . S
C1160 O1145 1.261 . S
C1160 O1146 1.252 . S
C1161 C1164 1.394 . S
C1161 C1166 1.370 . S
C1161 C1167 1.500 . S
C1162 C1165 1.383 . S
C1162 C1166 1.395 . S
C1163 C1164 1.396 . S
C1163 C1165 1.365 . S
C1163 H1172 0.929 . S
C1164 C1161 1.394 . S
C1164 C1163 1.396 . S
C1164 H1173 0.930 . S
C1165 C1162 1.383 . S
C1165 C1163 1.365 . S
C1165 H1174 0.931 . S
C1166 C1161 1.370 . S
C1166 C1162 1.395 . S
C1166 H1175 0.930 . S
C1167 Gd1103 2.805 . S
C1167 O1143 1.263 . S
C1167 O1144 1.252 . S
C1167 C1161 1.500 . S
H1168 C1151 0.929 . S
H1169 C1152 0.930 . S
H1170 C1153 0.931 . S
H1171 C1154 0.930 . S
H1172 C1163 0.929 . S
H1173 C1164 0.930 . S
H1174 C1165 0.931 . S
H1175 C1166 0.930 . S
C1176 C1178 1.422 . S
C1176 C1180 1.415 . S
C1176 N1182 1.369 . S
C1177 C1178 1.421 . S
C1177 C1179 1.417 . S
C1177 C1189 1.422 . S
C1178 C1176 1.422 . S
C1178 C1177 1.421 . S
C1178 N1188 1.359 . S
C1179 C1177 1.417 . S
C1179 C1181 1.329 . S
C1179 H1198 0.930 . S
C1180 C1176 1.415 . S
C1180 C1181 1.437 . S
C1180 C1184 1.413 . S
C1181 C1179 1.329 . S
C1181 C1180 1.437 . S
C1181 H1203 0.929 . S
N1182 C1176 1.369 . S
N1182 C1183 1.338 . S
N1182 Gd1187 2.622 . S
C1183 N1182 1.338 . S
C1183 C1185 1.378 . S
C1183 H1195 0.929 . S
C1184 C1180 1.413 . S
C1184 C1185 1.348 . S
C1184 H1200 0.931 . S
C1185 C1183 1.378 . S
C1185 C1184 1.348 . S
C1185 H1201 0.930 . S
Gd1186 N1206 2.622 . S
Gd1186 N1213 2.570 . S
Gd1186 O1220 2.353 . S
Gd1186 O1221 2.468 . S
Gd1186 O1222 2.427 . S
Gd1186 O1224 2.388 . S
Gd1186 O1225 2.386 . S
Gd1186 O1229 2.307 . S
Gd1186 C1239 2.805 . S
Gd1187 N1182 2.622 . S
Gd1187 N1188 2.570 . S
Gd1187 O1219 2.386 . S
Gd1187 O1223 2.307 . S
Gd1187 O1226 2.353 . S
Gd1187 O1227 2.468 . S
Gd1187 O1228 2.427 . S
Gd1187 O1230 2.388 . S
Gd1187 C1251 2.805 . S
N1188 C1178 1.359 . S
N1188 Gd1187 2.570 . S
N1188 C1190 1.343 . S
C1189 C1177 1.422 . S
C1189 C1191 1.321 . S
C1189 H1197 0.931 . S
C1190 N1188 1.343 . S
C1190 C1191 1.390 . S
C1190 H1192 0.931 . S
C1191 C1189 1.321 . S
C1191 C1190 1.390 . S
C1191 H1193 0.930 . S
H1192 C1190 0.931 . S
H1193 C1191 0.930 . S
H1194 C1217 0.931 . S
H1195 C1183 0.929 . S
H1196 C1218 0.930 . S
H1197 C1189 0.931 . S
H1198 C1179 0.930 . S
H1199 C1208 0.929 . S
H1200 C1184 0.931 . S
H1201 C1185 0.930 . S
H1202 C1240 0.930 . S
H1203 C1181 0.929 . S
H1204 C1209 0.931 . S
H1205 C1210 0.930 . S
N1206 Gd1186 2.622 . S
N1206 C1207 1.369 . S
N1206 C1208 1.338 . S
C1207 N1206 1.369 . S
C1207 C1211 1.415 . S
C1207 C1214 1.422 . S
C1208 H1199 0.929 . S
C1208 N1206 1.338 . S
C1208 C1210 1.378 . S
C1209 H1204 0.931 . S
C1209 C1210 1.348 . S
C1209 C1211 1.413 . S
C1210 H1205 0.930 . S
C1210 C1208 1.378 . S
C1210 C1209 1.348 . S
C1211 C1207 1.415 . S
C1211 C1209 1.413 . S
C1211 C1241 1.437 . S
H1212 C1241 0.929 . S
N1213 Gd1186 2.570 . S
N1213 C1214 1.359 . S
N1213 C1217 1.343 . S
C1214 C1207 1.422 . S
C1214 N1213 1.359 . S
C1214 C1216 1.421 . S
C1215 C1216 1.422 . S
C1215 C1218 1.321 . S
C1215 H1242 0.931 . S
C1216 C1214 1.421 . S
C1216 C1215 1.422 . S
C1216 C1240 1.417 . S
C1217 H1194 0.931 . S
C1217 N1213 1.343 . S
C1217 C1218 1.390 . S
C1218 H1196 0.930 . S
C1218 C1215 1.321 . S
C1218 C1217 1.390 . S
O1219 Gd1187 2.386 . S
O1219 C1231 1.265 . S
O1220 Gd1186 2.353 . S
O1220 C1231 1.242 . S
O1221 Gd1186 2.468 . S
O1221 C1239 1.263 . S
O1222 Gd1186 2.427 . S
O1222 C1239 1.252 . S
O1223 Gd1187 2.307 . S
O1223 C1232 1.261 . S
O1224 Gd1186 2.388 . S
O1224 C1232 1.252 . S
O1225 Gd1186 2.386 . S
O1225 C1243 1.265 . S
O1226 Gd1187 2.353 . S
O1226 C1243 1.242 . S
O1227 Gd1187 2.468 . S
O1227 C1251 1.263 . S
O1228 Gd1187 2.427 . S
O1228 C1251 1.252 . S
O1229 Gd1186 2.307 . S
O1229 C1244 1.261 . S
O1230 Gd1187 2.388 . S
O1230 C1244 1.252 . S
C1231 O1219 1.265 . S
C1231 O1220 1.242 . S
C1232 O1223 1.261 . S
C1232 O1224 1.252 . S
C1233 C1236 1.394 . S
C1233 C1238 1.370 . S
C1233 C1239 1.500 1_556 S
C1234 C1237 1.383 . S
C1234 C1238 1.395 . S
C1235 C1236 1.396 . S
C1235 C1237 1.365 . S
C1235 H1252 0.929 . S
C1236 C1233 1.394 . S
C1236 C1235 1.396 . S
C1236 H1253 0.930 . S
C1237 C1234 1.383 . S
C1237 C1235 1.365 . S
C1237 H1254 0.931 . S
C1238 C1233 1.370 . S
C1238 C1234 1.395 . S
C1238 H1255 0.930 . S
C1239 Gd1186 2.805 . S
C1239 O1221 1.263 . S
C1239 O1222 1.252 . S
C1239 C1233 1.500 1_554 S
C1240 H1202 0.930 . S
C1240 C1216 1.417 . S
C1240 C1241 1.329 . S
C1241 C1211 1.437 . S
C1241 H1212 0.929 . S
C1241 C1240 1.329 . S
H1242 C1215 0.931 . S
C1243 O1225 1.265 . S
C1243 O1226 1.242 . S
C1244 O1229 1.261 . S
C1244 O1230 1.252 . S
C1245 C1248 1.394 . S
C1245 C1250 1.370 . S
C1245 C1251 1.500 . S
C1246 C1249 1.383 . S
C1246 C1250 1.395 . S
C1247 C1248 1.396 . S
C1247 C1249 1.365 . S
C1247 H1256 0.929 . S
C1248 C1245 1.394 . S
C1248 C1247 1.396 . S
C1248 H1257 0.930 . S
C1249 C1246 1.383 . S
C1249 C1247 1.365 . S
C1249 H1258 0.931 . S
C1250 C1245 1.370 . S
C1250 C1246 1.395 . S
C1250 H1259 0.930 . S
C1251 Gd1187 2.805 . S
C1251 O1227 1.263 . S
C1251 O1228 1.252 . S
C1251 C1245 1.500 . S
H1252 C1235 0.929 . S
H1253 C1236 0.930 . S
H1254 C1237 0.931 . S
H1255 C1238 0.930 . S
H1256 C1247 0.929 . S
H1257 C1248 0.930 . S
H1258 C1249 0.931 . S
H1259 C1250 0.930 . S
C1260 C1262 1.422 . S
C1260 C1264 1.415 . S
C1260 N1266 1.369 . S
C1261 C1262 1.421 . S
C1261 C1263 1.417 . S
C1261 C1273 1.422 . S
C1262 C1260 1.422 . S
C1262 C1261 1.421 . S
C1262 N1272 1.359 . S
C1263 C1261 1.417 . S
C1263 C1265 1.329 . S
C1263 H1282 0.930 . S
C1264 C1260 1.415 . S
C1264 C1265 1.437 . S
C1264 C1268 1.413 . S
C1265 C1263 1.329 . S
C1265 C1264 1.437 . S
C1265 H1287 0.929 . S
N1266 C1260 1.369 . S
N1266 C1267 1.338 . S
N1266 Gd1271 2.622 . S
C1267 N1266 1.338 . S
C1267 C1269 1.378 . S
C1267 H1279 0.929 . S
C1268 C1264 1.413 . S
C1268 C1269 1.348 . S
C1268 H1284 0.931 . S
C1269 C1267 1.378 . S
C1269 C1268 1.348 . S
C1269 H1285 0.930 . S
Gd1270 N1290 2.622 . S
Gd1270 N1297 2.570 . S
Gd1270 O1304 2.353 . S
Gd1270 O1305 2.468 . S
Gd1270 O1306 2.427 . S
Gd1270 O1308 2.388 . S
Gd1270 O1309 2.386 1_556 S
Gd1270 O1313 2.307 . S
Gd1270 C1323 2.805 . S
Gd1271 N1266 2.622 . S
Gd1271 N1272 2.570 . S
Gd1271 O1303 2.386 . S
Gd1271 O1307 2.307 . S
Gd1271 O1310 2.353 1_556 S
Gd1271 O1311 2.468 1_556 S
Gd1271 O1312 2.427 1_556 S
Gd1271 O1314 2.388 . S
Gd1271 C1335 2.805 1_556 S
N1272 C1262 1.359 . S
N1272 Gd1271 2.570 . S
N1272 C1274 1.343 . S
C1273 C1261 1.422 . S
C1273 C1275 1.321 . S
C1273 H1281 0.931 . S
C1274 N1272 1.343 . S
C1274 C1275 1.390 . S
C1274 H1276 0.931 . S
C1275 C1273 1.321 . S
C1275 C1274 1.390 . S
C1275 H1277 0.930 . S
H1276 C1274 0.931 . S
H1277 C1275 0.930 . S
H1278 C1301 0.931 . S
H1279 C1267 0.929 . S
H1280 C1302 0.930 . S
H1281 C1273 0.931 . S
H1282 C1263 0.930 . S
H1283 C1292 0.929 . S
H1284 C1268 0.931 . S
H1285 C1269 0.930 . S
H1286 C1324 0.930 . S
H1287 C1265 0.929 . S
H1288 C1293 0.931 . S
H1289 C1294 0.930 . S
N1290 Gd1270 2.622 . S
N1290 C1291 1.369 . S
N1290 C1292 1.338 . S
C1291 N1290 1.369 . S
C1291 C1295 1.415 1_556 S
C1291 C1298 1.422 . S
C1292 H1283 0.929 . S
C1292 N1290 1.338 . S
C1292 C1294 1.378 1_556 S
C1293 H1288 0.931 . S
C1293 C1294 1.348 . S
C1293 C1295 1.413 . S
C1294 H1289 0.930 . S
C1294 C1292 1.378 1_554 S
C1294 C1293 1.348 . S
C1295 C1291 1.415 1_554 S
C1295 C1293 1.413 . S
C1295 C1325 1.437 . S
H1296 C1325 0.929 . S
N1297 Gd1270 2.570 . S
N1297 C1298 1.359 . S
N1297 C1301 1.343 . S
C1298 C1291 1.422 . S
C1298 N1297 1.359 . S
C1298 C1300 1.421 1_556 S
C1299 C1300 1.422 . S
C1299 C1302 1.321 1_554 S
C1299 H1326 0.931 . S
C1300 C1298 1.421 1_554 S
C1300 C1299 1.422 . S
C1300 C1324 1.417 . S
C1301 H1278 0.931 . S
C1301 N1297 1.343 . S
C1301 C1302 1.390 . S
C1302 H1280 0.930 . S
C1302 C1299 1.321 1_556 S
C1302 C1301 1.390 . S
O1303 Gd1271 2.386 . S
O1303 C1315 1.265 . S
O1304 Gd1270 2.353 . S
O1304 C1315 1.242 . S
O1305 Gd1270 2.468 . S
O1305 C1323 1.263 . S
O1306 Gd1270 2.427 . S
O1306 C1323 1.252 . S
O1307 Gd1271 2.307 . S
O1307 C1316 1.261 . S
O1308 Gd1270 2.388 . S
O1308 C1316 1.252 . S
O1309 Gd1270 2.386 1_554 S
O1309 C1327 1.265 . S
O1310 Gd1271 2.353 1_554 S
O1310 C1327 1.242 . S
O1311 Gd1271 2.468 1_554 S
O1311 C1335 1.263 . S
O1312 Gd1271 2.427 1_554 S
O1312 C1335 1.252 . S
O1313 Gd1270 2.307 . S
O1313 C1328 1.261 . S
O1314 Gd1271 2.388 . S
O1314 C1328 1.252 . S
C1315 O1303 1.265 . S
C1315 O1304 1.242 . S
C1316 O1307 1.261 . S
C1316 O1308 1.252 . S
C1317 C1320 1.394 . S
C1317 C1322 1.370 . S
C1317 C1323 1.500 . S
C1318 C1321 1.383 . S
C1318 C1322 1.395 . S
C1319 C1320 1.396 . S
C1319 C1321 1.365 . S
C1319 H1336 0.929 . S
C1320 C1317 1.394 . S
C1320 C1319 1.396 . S
C1320 H1337 0.930 . S
C1321 C1318 1.383 . S
C1321 C1319 1.365 . S
C1321 H1338 0.931 . S
C1322 C1317 1.370 . S
C1322 C1318 1.395 . S
C1322 H1339 0.930 . S
C1323 Gd1270 2.805 . S
C1323 O1305 1.263 . S
C1323 O1306 1.252 . S
C1323 C1317 1.500 . S
C1324 H1286 0.930 . S
C1324 C1300 1.417 . S
C1324 C1325 1.329 . S
C1325 C1295 1.437 . S
C1325 H1296 0.929 . S
C1325 C1324 1.329 . S
H1326 C1299 0.931 . S
C1327 O1309 1.265 . S
C1327 O1310 1.242 . S
C1328 O1313 1.261 . S
C1328 O1314 1.252 . S
C1329 C1332 1.394 . S
C1329 C1334 1.370 . S
C1329 C1335 1.500 . S
C1330 C1333 1.383 . S
C1330 C1334 1.395 . S
C1331 C1332 1.396 . S
C1331 C1333 1.365 . S
C1331 H1340 0.929 . S
C1332 C1329 1.394 . S
C1332 C1331 1.396 . S
C1332 H1341 0.930 . S
C1333 C1330 1.383 . S
C1333 C1331 1.365 . S
C1333 H1342 0.931 . S
C1334 C1329 1.370 . S
C1334 C1330 1.395 . S
C1334 H1343 0.930 . S
C1335 Gd1271 2.805 1_554 S
C1335 O1311 1.263 . S
C1335 O1312 1.252 . S
C1335 C1329 1.500 . S
H1336 C1319 0.929 . S
H1337 C1320 0.930 . S
H1338 C1321 0.931 . S
H1339 C1322 0.930 . S
H1340 C1331 0.929 . S
H1341 C1332 0.930 . S
H1342 C1333 0.931 . S
H1343 C1334 0.930 . S
C1344 C1346 1.422 . S
C1344 C1348 1.415 . S
C1344 N1350 1.369 . S
C1345 C1346 1.421 . S
C1345 C1347 1.417 . S
C1345 C1357 1.422 . S
C1346 C1344 1.422 . S
C1346 C1345 1.421 . S
C1346 N1356 1.359 . S
C1347 C1345 1.417 . S
C1347 C1349 1.329 . S
C1347 H1366 0.930 . S
C1348 C1344 1.415 . S
C1348 C1349 1.437 . S
C1348 C1352 1.413 . S
C1349 C1347 1.329 . S
C1349 C1348 1.437 . S
C1349 H1371 0.929 . S
N1350 C1344 1.369 . S
N1350 C1351 1.338 . S
N1350 Gd1355 2.622 . S
C1351 N1350 1.338 . S
C1351 C1353 1.378 . S
C1351 H1363 0.929 . S
C1352 C1348 1.413 . S
C1352 C1353 1.348 . S
C1352 H1368 0.931 . S
C1353 C1351 1.378 . S
C1353 C1352 1.348 . S
C1353 H1369 0.930 . S
Gd1354 N1374 2.622 1_565 S
Gd1354 N1381 2.570 1_565 S
Gd1354 O1388 2.353 . S
Gd1354 O1389 2.468 . S
Gd1354 O1390 2.427 1_565 S
Gd1354 O1392 2.388 . S
Gd1354 O1393 2.386 . S
Gd1354 O1397 2.307 . S
Gd1354 C1407 2.805 . S
Gd1355 N1350 2.622 . S
Gd1355 N1356 2.570 . S
Gd1355 O1387 2.386 . S
Gd1355 O1391 2.307 . S
Gd1355 O1394 2.353 . S
Gd1355 O1395 2.468 . S
Gd1355 O1396 2.427 . S
Gd1355 O1398 2.388 . S
Gd1355 C1419 2.805 . S
N1356 C1346 1.359 . S
N1356 Gd1355 2.570 . S
N1356 C1358 1.343 . S
C1357 C1345 1.422 . S
C1357 C1359 1.321 . S
C1357 H1365 0.931 . S
C1358 N1356 1.343 . S
C1358 C1359 1.390 . S
C1358 H1360 0.931 . S
C1359 C1357 1.321 . S
C1359 C1358 1.390 . S
C1359 H1361 0.930 . S
H1360 C1358 0.931 . S
H1361 C1359 0.930 . S
H1362 C1385 0.931 . S
H1363 C1351 0.929 . S
H1364 C1386 0.930 1_565 S
H1365 C1357 0.931 . S
H1366 C1347 0.930 . S
H1367 C1376 0.929 . S
H1368 C1352 0.931 . S
H1369 C1353 0.930 . S
H1370 C1408 0.930 . S
H1371 C1349 0.929 . S
H1372 C1377 0.931 . S
H1373 C1378 0.930 . S
N1374 Gd1354 2.622 1_545 S
N1374 C1375 1.369 . S
N1374 C1376 1.338 . S
C1375 N1374 1.369 . S
C1375 C1379 1.415 . S
C1375 C1382 1.422 . S
C1376 H1367 0.929 . S
C1376 N1374 1.338 . S
C1376 C1378 1.378 . S
C1377 H1372 0.931 . S
C1377 C1378 1.348 . S
C1377 C1379 1.413 . S
C1378 H1373 0.930 . S
C1378 C1376 1.378 . S
C1378 C1377 1.348 . S
C1379 C1375 1.415 . S
C1379 C1377 1.413 . S
C1379 C1409 1.437 . S
H1380 C1409 0.929 . S
N1381 Gd1354 2.570 1_545 S
N1381 C1382 1.359 . S
N1381 C1385 1.343 1_545 S
C1382 C1375 1.422 . S
C1382 N1381 1.359 . S
C1382 C1384 1.421 . S
C1383 C1384 1.422 . S
C1383 C1386 1.321 . S
C1383 H1410 0.931 . S
C1384 C1382 1.421 . S
C1384 C1383 1.422 . S
C1384 C1408 1.417 . S
C1385 H1362 0.931 . S
C1385 N1381 1.343 1_565 S
C1385 C1386 1.390 1_565 S
C1386 H1364 0.930 1_545 S
C1386 C1383 1.321 . S
C1386 C1385 1.390 1_545 S
O1387 Gd1355 2.386 . S
O1387 C1399 1.265 . S
O1388 Gd1354 2.353 . S
O1388 C1399 1.242 . S
O1389 Gd1354 2.468 . S
O1389 C1407 1.263 . S
O1390 Gd1354 2.427 1_545 S
O1390 C1407 1.252 1_545 S
O1391 Gd1355 2.307 . S
O1391 C1400 1.261 . S
O1392 Gd1354 2.388 . S
O1392 C1400 1.252 . S
O1393 Gd1354 2.386 . S
O1393 C1411 1.265 . S
O1394 Gd1355 2.353 . S
O1394 C1411 1.242 . S
O1395 Gd1355 2.468 . S
O1395 C1419 1.263 . S
O1396 Gd1355 2.427 . S
O1396 C1419 1.252 . S
O1397 Gd1354 2.307 . S
O1397 C1412 1.261 . S
O1398 Gd1355 2.388 . S
O1398 C1412 1.252 . S
C1399 O1387 1.265 . S
C1399 O1388 1.242 . S
C1400 O1391 1.261 . S
C1400 O1392 1.252 . S
C1401 C1404 1.394 . S
C1401 C1406 1.370 1_545 S
C1401 C1407 1.500 1_545 S
C1402 C1405 1.383 . S
C1402 C1406 1.395 1_545 S
C1403 C1404 1.396 . S
C1403 C1405 1.365 . S
C1403 H1420 0.929 . S
C1404 C1401 1.394 . S
C1404 C1403 1.396 . S
C1404 H1421 0.930 . S
C1405 C1402 1.383 . S
C1405 C1403 1.365 . S
C1405 H1422 0.931 . S
C1406 C1401 1.370 1_565 S
C1406 C1402 1.395 1_565 S
C1406 H1423 0.930 . S
C1407 Gd1354 2.805 . S
C1407 O1389 1.263 . S
C1407 O1390 1.252 1_565 S
C1407 C1401 1.500 1_565 S
C1408 H1370 0.930 . S
C1408 C1384 1.417 . S
C1408 C1409 1.329 . S
C1409 C1379 1.437 . S
C1409 H1380 0.929 . S
C1409 C1408 1.329 . S
H1410 C1383 0.931 . S
C1411 O1393 1.265 . S
C1411 O1394 1.242 . S
C1412 O1397 1.261 . S
C1412 O1398 1.252 . S
C1413 C1416 1.394 . S
C1413 C1418 1.370 . S
C1413 C1419 1.500 . S
C1414 C1417 1.383 . S
C1414 C1418 1.395 . S
C1415 C1416 1.396 . S
C1415 C1417 1.365 . S
C1415 H1424 0.929 . S
C1416 C1413 1.394 . S
C1416 C1415 1.396 . S
C1416 H1425 0.930 . S
C1417 C1414 1.383 . S
C1417 C1415 1.365 . S
C1417 H1426 0.931 . S
C1418 C1413 1.370 . S
C1418 C1414 1.395 . S
C1418 H1427 0.930 . S
C1419 Gd1355 2.805 . S
C1419 O1395 1.263 . S
C1419 O1396 1.252 . S
C1419 C1413 1.500 . S
H1420 C1403 0.929 . S
H1421 C1404 0.930 . S
H1422 C1405 0.931 . S
H1423 C1406 0.930 . S
H1424 C1415 0.929 . S
H1425 C1416 0.930 . S
H1426 C1417 0.931 . S
H1427 C1418 0.930 . S
C1428 C1430 1.422 . S
C1428 C1432 1.415 . S
C1428 N1434 1.369 . S
C1429 C1430 1.421 . S
C1429 C1431 1.417 1_556 S
C1429 C1441 1.422 . S
C1430 C1428 1.422 . S
C1430 C1429 1.421 . S
C1430 N1440 1.359 . S
C1431 C1429 1.417 1_554 S
C1431 C1433 1.329 . S
C1431 H1450 0.930 . S
C1432 C1428 1.415 . S
C1432 C1433 1.437 1_556 S
C1432 C1436 1.413 . S
C1433 C1431 1.329 . S
C1433 C1432 1.437 1_554 S
C1433 H1455 0.929 . S
N1434 C1428 1.369 . S
N1434 C1435 1.338 . S
N1434 Gd1439 2.622 . S
C1435 N1434 1.338 . S
C1435 C1437 1.378 . S
C1435 H1447 0.929 . S
C1436 C1432 1.413 . S
C1436 C1437 1.348 . S
C1436 H1452 0.931 . S
C1437 C1435 1.378 . S
C1437 C1436 1.348 . S
C1437 H1453 0.930 . S
Gd1438 N1458 2.622 . S
Gd1438 N1465 2.570 . S
Gd1438 O1472 2.353 1_556 S
Gd1438 O1473 2.468 1_556 S
Gd1438 O1474 2.427 1_556 S
Gd1438 O1476 2.388 . S
Gd1438 O1477 2.386 . S
Gd1438 O1481 2.307 . S
Gd1438 C1491 2.805 1_556 S
Gd1439 N1434 2.622 . S
Gd1439 N1440 2.570 . S
Gd1439 O1471 2.386 . S
Gd1439 O1475 2.307 . S
Gd1439 O1478 2.353 . S
Gd1439 O1479 2.468 . S
Gd1439 O1480 2.427 . S
Gd1439 O1482 2.388 . S
Gd1439 C1503 2.805 . S
N1440 C1430 1.359 . S
N1440 Gd1439 2.570 . S
N1440 C1442 1.343 . S
C1441 C1429 1.422 . S
C1441 C1443 1.321 . S
C1441 H1449 0.931 . S
C1442 N1440 1.343 . S
C1442 C1443 1.390 . S
C1442 H1444 0.931 . S
C1443 C1441 1.321 . S
C1443 C1442 1.390 . S
C1443 H1445 0.930 . S
H1444 C1442 0.931 . S
H1445 C1443 0.930 . S
H1446 C1469 0.931 . S
H1447 C1435 0.929 . S
H1448 C1470 0.930 . S
H1449 C1441 0.931 . S
H1450 C1431 0.930 . S
H1451 C1460 0.929 . S
H1452 C1436 0.931 . S
H1453 C1437 0.930 . S
H1454 C1492 0.930 . S
H1455 C1433 0.929 . S
H1456 C1461 0.931 . S
H1457 C1462 0.930 . S
N1458 Gd1438 2.622 . S
N1458 C1459 1.369 . S
N1458 C1460 1.338 . S
C1459 N1458 1.369 . S
C1459 C1463 1.415 . S
C1459 C1466 1.422 . S
C1460 H1451 0.929 . S
C1460 N1458 1.338 . S
C1460 C1462 1.378 . S
C1461 H1456 0.931 . S
C1461 C1462 1.348 . S
C1461 C1463 1.413 . S
C1462 H1457 0.930 . S
C1462 C1460 1.378 . S
C1462 C1461 1.348 . S
C1463 C1459 1.415 . S
C1463 C1461 1.413 . S
C1463 C1493 1.437 . S
H1464 C1493 0.929 . S
N1465 Gd1438 2.570 . S
N1465 C1466 1.359 . S
N1465 C1469 1.343 . S
C1466 C1459 1.422 . S
C1466 N1465 1.359 . S
C1466 C1468 1.421 . S
C1467 C1468 1.422 . S
C1467 C1470 1.321 . S
C1467 H1494 0.931 . S
C1468 C1466 1.421 . S
C1468 C1467 1.422 . S
C1468 C1492 1.417 . S
C1469 H1446 0.931 . S
C1469 N1465 1.343 . S
C1469 C1470 1.390 . S
C1470 H1448 0.930 . S
C1470 C1467 1.321 . S
C1470 C1469 1.390 . S
O1471 Gd1439 2.386 . S
O1471 C1483 1.265 1_556 S
O1472 Gd1438 2.353 1_554 S
O1472 C1483 1.242 . S
O1473 Gd1438 2.468 1_554 S
O1473 C1491 1.263 . S
O1474 Gd1438 2.427 1_554 S
O1474 C1491 1.252 . S
O1475 Gd1439 2.307 . S
O1475 C1484 1.261 . S
O1476 Gd1438 2.388 . S
O1476 C1484 1.252 . S
O1477 Gd1438 2.386 . S
O1477 C1495 1.265 . S
O1478 Gd1439 2.353 . S
O1478 C1495 1.242 . S
O1479 Gd1439 2.468 . S
O1479 C1503 1.263 . S
O1480 Gd1439 2.427 . S
O1480 C1503 1.252 . S
O1481 Gd1438 2.307 . S
O1481 C1496 1.261 . S
O1482 Gd1439 2.388 . S
O1482 C1496 1.252 . S
C1483 O1471 1.265 1_554 S
C1483 O1472 1.242 . S
C1484 O1475 1.261 . S
C1484 O1476 1.252 . S
C1485 C1488 1.394 . S
C1485 C1490 1.370 . S
C1485 C1491 1.500 . S
C1486 C1489 1.383 . S
C1486 C1490 1.395 . S
C1487 C1488 1.396 . S
C1487 C1489 1.365 . S
C1487 H1504 0.929 . S
C1488 C1485 1.394 . S
C1488 C1487 1.396 . S
C1488 H1505 0.930 . S
C1489 C1486 1.383 . S
C1489 C1487 1.365 . S
C1489 H1506 0.931 . S
C1490 C1485 1.370 . S
C1490 C1486 1.395 . S
C1490 H1507 0.930 . S
C1491 Gd1438 2.805 1_554 S
C1491 O1473 1.263 . S
C1491 O1474 1.252 . S
C1491 C1485 1.500 . S
C1492 H1454 0.930 . S
C1492 C1468 1.417 . S
C1492 C1493 1.329 . S
C1493 C1463 1.437 . S
C1493 H1464 0.929 . S
C1493 C1492 1.329 . S
H1494 C1467 0.931 . S
C1495 O1477 1.265 . S
C1495 O1478 1.242 . S
C1496 O1481 1.261 . S
C1496 O1482 1.252 . S
C1497 C1500 1.394 . S
C1497 C1502 1.370 . S
C1497 C1503 1.500 . S
C1498 C1501 1.383 . S
C1498 C1502 1.395 . S
C1499 C1500 1.396 . S
C1499 C1501 1.365 . S
C1499 H1508 0.929 . S
C1500 C1497 1.394 . S
C1500 C1499 1.396 . S
C1500 H1509 0.930 . S
C1501 C1498 1.383 . S
C1501 C1499 1.365 . S
C1501 H1510 0.931 . S
C1502 C1497 1.370 . S
C1502 C1498 1.395 . S
C1502 H1511 0.930 . S
C1503 Gd1439 2.805 . S
C1503 O1479 1.263 . S
C1503 O1480 1.252 . S
C1503 C1497 1.500 . S
H1504 C1487 0.929 . S
H1505 C1488 0.930 . S
H1506 C1489 0.931 . S
H1507 C1490 0.930 . S
H1508 C1499 0.929 . S
H1509 C1500 0.930 . S
H1510 C1501 0.931 . S
H1511 C1502 0.930 . S
C1512 C1514 1.422 . S
C1512 C1516 1.415 . S
C1512 N1518 1.369 . S
C1513 C1514 1.421 . S
C1513 C1515 1.417 1_554 S
C1513 C1525 1.422 . S
C1514 C1512 1.422 . S
C1514 C1513 1.421 . S
C1514 N1524 1.359 . S
C1515 C1513 1.417 1_556 S
C1515 C1517 1.329 . S
C1515 H1534 0.930 . S
C1516 C1512 1.415 . S
C1516 C1517 1.437 1_554 S
C1516 C1520 1.413 1_655 S
C1517 C1515 1.329 . S
C1517 C1516 1.437 1_556 S
C1517 H1539 0.929 1_655 S
N1518 C1512 1.369 . S
N1518 C1519 1.338 . S
N1518 Gd1523 2.622 . S
C1519 N1518 1.338 . S
C1519 C1521 1.378 1_655 S
C1519 H1531 0.929 . S
C1520 C1516 1.413 1_455 S
C1520 C1521 1.348 . S
C1520 H1536 0.938 . S
C1521 C1519 1.378 1_455 S
C1521 C1520 1.348 . S
C1521 H1537 0.930 . S
Gd1522 N1542 2.622 1_545 S
Gd1522 N1549 2.570 1_545 S
Gd1522 O1556 2.353 1_554 S
Gd1522 O1557 2.468 1_544 S
Gd1522 O1558 2.427 1_554 S
Gd1522 O1560 2.388 . S
Gd1522 O1561 2.386 . S
Gd1522 O1565 2.307 . S
Gd1522 C1575 2.805 1_544 S
Gd1523 N1518 2.622 . S
Gd1523 N1524 2.570 . S
Gd1523 O1555 2.386 . S
Gd1523 O1559 2.307 . S
Gd1523 O1562 2.353 . S
Gd1523 O1563 2.468 . S
Gd1523 O1564 2.427 . S
Gd1523 O1566 2.388 . S
Gd1523 C1587 2.805 . S
N1524 C1514 1.359 . S
N1524 Gd1523 2.570 . S
N1524 C1526 1.343 . S
C1525 C1513 1.422 . S
C1525 C1527 1.321 . S
C1525 H1533 0.931 1_554 S
C1526 N1524 1.343 . S
C1526 C1527 1.390 . S
C1526 H1528 0.931 . S
C1527 C1525 1.321 . S
C1527 C1526 1.390 . S
C1527 H1529 0.930 . S
H1528 C1526 0.931 . S
H1529 C1527 0.930 . S
H1530 C1553 0.931 . S
H1531 C1519 0.929 . S
H1532 C1554 0.930 . S
H1533 C1525 0.931 1_556 S
H1534 C1515 0.930 . S
H1535 C1544 0.929 . S
H1536 C1520 0.938 . S
H1537 C1521 0.930 . S
H1538 C1576 0.930 . S
H1539 C1517 0.929 1_455 S
H1540 C1545 0.931 . S
H1541 C1546 0.930 . S
N1542 Gd1522 2.622 1_565 S
N1542 C1543 1.369 . S
N1542 C1544 1.338 1_565 S
C1543 N1542 1.369 . S
C1543 C1547 1.415 . S
C1543 C1550 1.422 . S
C1544 H1535 0.929 . S
C1544 N1542 1.338 1_545 S
C1544 C1546 1.378 . S
C1545 H1540 0.931 . S
C1545 C1546 1.348 1_565 S
C1545 C1547 1.413 . S
C1546 H1541 0.930 . S
C1546 C1544 1.378 . S
C1546 C1545 1.348 1_545 S
C1547 C1543 1.415 . S
C1547 C1545 1.413 . S
C1547 C1577 1.437 . S
H1548 C1577 0.929 . S
N1549 Gd1522 2.570 1_565 S
N1549 C1550 1.359 . S
N1549 C1553 1.343 . S
C1550 C1543 1.422 . S
C1550 N1549 1.359 . S
C1550 C1552 1.421 . S
C1551 C1552 1.422 . S
C1551 C1554 1.321 . S
C1551 H1578 0.931 . S
C1552 C1550 1.421 . S
C1552 C1551 1.422 . S
C1552 C1576 1.417 . S
C1553 H1530 0.931 . S
C1553 N1549 1.343 . S
C1553 C1554 1.390 . S
C1554 H1532 0.930 . S
C1554 C1551 1.321 . S
C1554 C1553 1.390 . S
O1555 Gd1523 2.386 . S
O1555 C1567 1.265 1_554 S
O1556 Gd1522 2.353 1_556 S
O1556 C1567 1.242 . S
O1557 Gd1522 2.468 1_566 S
O1557 C1575 1.263 . S
O1558 Gd1522 2.427 1_556 S
O1558 C1575 1.252 1_545 S
O1559 Gd1523 2.307 . S
O1559 C1568 1.261 . S
O1560 Gd1522 2.388 . S
O1560 C1568 1.252 . S
O1561 Gd1522 2.386 . S
O1561 C1579 1.265 . S
O1562 Gd1523 2.353 . S
O1562 C1579 1.242 . S
O1563 Gd1523 2.468 . S
O1563 C1587 1.263 . S
O1564 Gd1523 2.427 . S
O1564 C1587 1.252 . S
O1565 Gd1522 2.307 . S
O1565 C1580 1.261 . S
O1566 Gd1523 2.388 . S
O1566 C1580 1.252 . S
C1567 O1555 1.265 1_556 S
C1567 O1556 1.242 . S
C1568 O1559 1.261 . S
C1568 O1560 1.252 . S
C1569 C1572 1.394 . S
C1569 C1574 1.370 . S
C1569 C1575 1.500 . S
C1570 C1573 1.383 . S
C1570 C1574 1.395 . S
C1571 C1572 1.396 . S
C1571 C1573 1.365 . S
C1571 H1588 0.929 . S
C1572 C1569 1.394 . S
C1572 C1571 1.396 . S
C1572 H1589 0.930 1_565 S
C1573 C1570 1.383 . S
C1573 C1571 1.365 . S
C1573 H1590 0.931 . S
C1574 C1569 1.370 . S
C1574 C1570 1.395 . S
C1574 H1591 0.930 . S
C1575 Gd1522 2.805 1_566 S
C1575 O1557 1.263 . S
C1575 O1558 1.252 1_565 S
C1575 C1569 1.500 . S
C1576 H1538 0.930 . S
C1576 C1552 1.417 . S
C1576 C1577 1.329 . S
C1577 C1547 1.437 . S
C1577 H1548 0.929 . S
C1577 C1576 1.329 . S
H1578 C1551 0.931 . S
C1579 O1561 1.265 . S
C1579 O1562 1.242 . S
C1580 O1565 1.261 . S
C1580 O1566 1.252 . S
C1581 C1584 1.394 . S
C1581 C1586 1.370 . S
C1581 C1587 1.500 . S
C1582 C1585 1.383 . S
C1582 C1586 1.395 . S
C1583 C1584 1.396 . S
C1583 C1585 1.365 . S
C1583 H1592 0.929 . S
C1584 C1581 1.394 . S
C1584 C1583 1.396 . S
C1584 H1593 0.930 . S
C1585 C1582 1.383 . S
C1585 C1583 1.365 . S
C1585 H1594 0.931 . S
C1586 C1581 1.370 . S
C1586 C1582 1.395 . S
C1586 H1595 0.930 . S
C1587 Gd1523 2.805 . S
C1587 O1563 1.263 . S
C1587 O1564 1.252 . S
C1587 C1581 1.500 . S
H1588 C1571 0.929 . S
H1589 C1572 0.930 1_545 S
H1590 C1573 0.931 . S
H1591 C1574 0.930 . S
H1592 C1583 0.929 . S
H1593 C1584 0.930 . S
H1594 C1585 0.931 . S
H1595 C1586 0.930 . S
C1596 C1598 1.422 . S
C1596 C1600 1.415 . S
C1596 N1602 1.369 . S
C1597 C1598 1.421 . S
C1597 C1599 1.417 . S
C1597 C1609 1.422 . S
C1598 C1596 1.422 . S
C1598 C1597 1.421 . S
C1598 N1608 1.359 . S
C1599 C1597 1.417 . S
C1599 C1601 1.329 . S
C1599 H1618 0.930 . S
C1600 C1596 1.415 . S
C1600 C1601 1.437 . S
C1600 C1604 1.413 . S
C1601 C1599 1.329 . S
C1601 C1600 1.437 . S
C1601 H1623 0.929 . S
N1602 C1596 1.369 . S
N1602 C1603 1.338 . S
N1602 Gd1607 2.622 . S
C1603 N1602 1.338 . S
C1603 C1605 1.378 . S
C1603 H1615 0.929 . S
C1604 C1600 1.413 . S
C1604 C1605 1.348 . S
C1604 H1620 0.931 . S
C1605 C1603 1.378 . S
C1605 C1604 1.348 . S
C1605 H1621 0.930 . S
Gd1606 N1626 2.622 . S
Gd1606 N1633 2.570 . S
Gd1606 O1640 2.353 . S
Gd1606 O1641 2.468 . S
Gd1606 O1642 2.427 . S
Gd1606 O1644 2.388 . S
Gd1606 O1645 2.386 . S
Gd1606 O1649 2.307 . S
Gd1606 C1659 2.805 . S
Gd1607 N1602 2.622 . S
Gd1607 N1608 2.570 . S
Gd1607 O1639 2.386 . S
Gd1607 O1643 2.307 . S
Gd1607 O1646 2.353 . S
Gd1607 O1647 2.468 . S
Gd1607 O1648 2.427 . S
Gd1607 O1650 2.388 . S
Gd1607 C1671 2.805 . S
N1608 C1598 1.359 . S
N1608 Gd1607 2.570 . S
N1608 C1610 1.343 . S
C1609 C1597 1.422 . S
C1609 C1611 1.321 . S
C1609 H1617 0.931 . S
C1610 N1608 1.343 . S
C1610 C1611 1.390 . S
C1610 H1612 0.931 . S
C1611 C1609 1.321 . S
C1611 C1610 1.390 . S
C1611 H1613 0.930 . S
H1612 C1610 0.931 . S
H1613 C1611 0.930 . S
H1614 C1637 0.931 . S
H1615 C1603 0.929 . S
H1616 C1638 0.930 . S
H1617 C1609 0.931 . S
H1618 C1599 0.930 . S
H1619 C1628 0.929 . S
H1620 C1604 0.931 . S
H1621 C1605 0.930 . S
H1622 C1660 0.930 . S
H1623 C1601 0.929 . S
H1624 C1629 0.931 . S
H1625 C1630 0.930 . S
N1626 Gd1606 2.622 . S
N1626 C1627 1.369 . S
N1626 C1628 1.338 . S
C1627 N1626 1.369 . S
C1627 C1631 1.415 . S
C1627 C1634 1.422 . S
C1628 H1619 0.929 . S
C1628 N1626 1.338 . S
C1628 C1630 1.378 . S
C1629 H1624 0.931 . S
C1629 C1630 1.348 . S
C1629 C1631 1.413 . S
C1630 H1625 0.930 . S
C1630 C1628 1.378 . S
C1630 C1629 1.348 . S
C1631 C1627 1.415 . S
C1631 C1629 1.413 . S
C1631 C1661 1.437 . S
H1632 C1661 0.929 . S
N1633 Gd1606 2.570 . S
N1633 C1634 1.359 . S
N1633 C1637 1.343 . S
C1634 C1627 1.422 . S
C1634 N1633 1.359 . S
C1634 C1636 1.421 . S
C1635 C1636 1.422 . S
C1635 C1638 1.321 . S
C1635 H1662 0.931 . S
C1636 C1634 1.421 . S
C1636 C1635 1.422 . S
C1636 C1660 1.417 . S
C1637 H1614 0.931 . S
C1637 N1633 1.343 . S
C1637 C1638 1.390 . S
C1638 H1616 0.930 . S
C1638 C1635 1.321 . S
C1638 C1637 1.390 . S
O1639 Gd1607 2.386 . S
O1639 C1651 1.265 . S
O1640 Gd1606 2.353 . S
O1640 C1651 1.242 . S
O1641 Gd1606 2.468 . S
O1641 C1659 1.263 . S
O1642 Gd1606 2.427 . S
O1642 C1659 1.252 . S
O1643 Gd1607 2.307 . S
O1643 C1652 1.261 . S
O1644 Gd1606 2.388 . S
O1644 C1652 1.252 . S
O1645 Gd1606 2.386 . S
O1645 C1663 1.265 . S
O1646 Gd1607 2.353 . S
O1646 C1663 1.242 . S
O1647 Gd1607 2.468 . S
O1647 C1671 1.263 . S
O1648 Gd1607 2.427 . S
O1648 C1671 1.252 . S
O1649 Gd1606 2.307 . S
O1649 C1664 1.261 . S
O1650 Gd1607 2.388 . S
O1650 C1664 1.252 . S
C1651 O1639 1.265 . S
C1651 O1640 1.242 . S
C1652 O1643 1.261 . S
C1652 O1644 1.252 . S
C1653 C1656 1.394 . S
C1653 C1658 1.370 . S
C1653 C1659 1.500 . S
C1654 C1657 1.383 . S
C1654 C1658 1.395 . S
C1655 C1656 1.396 . S
C1655 C1657 1.365 . S
C1655 H1672 0.929 . S
C1656 C1653 1.394 . S
C1656 C1655 1.396 . S
C1656 H1673 0.930 . S
C1657 C1654 1.383 . S
C1657 C1655 1.365 . S
C1657 H1674 0.931 . S
C1658 C1653 1.370 . S
C1658 C1654 1.395 . S
C1658 H1675 0.930 . S
C1659 Gd1606 2.805 . S
C1659 O1641 1.263 . S
C1659 O1642 1.252 . S
C1659 C1653 1.500 . S
C1660 H1622 0.930 . S
C1660 C1636 1.417 . S
C1660 C1661 1.329 . S
C1661 C1631 1.437 . S
C1661 H1632 0.929 . S
C1661 C1660 1.329 . S
H1662 C1635 0.931 . S
C1663 O1645 1.265 . S
C1663 O1646 1.242 . S
C1664 O1649 1.261 . S
C1664 O1650 1.252 . S
C1665 C1668 1.394 . S
C1665 C1670 1.370 . S
C1665 C1671 1.500 . S
C1666 C1669 1.383 . S
C1666 C1670 1.395 . S
C1667 C1668 1.396 . S
C1667 C1669 1.365 . S
C1667 H1676 0.929 . S
C1668 C1665 1.394 . S
C1668 C1667 1.396 . S
C1668 H1677 0.930 . S
C1669 C1666 1.383 . S
C1669 C1667 1.365 . S
C1669 H1678 0.931 . S
C1670 C1665 1.370 . S
C1670 C1666 1.395 . S
C1670 H1679 0.930 . S
C1671 Gd1607 2.805 . S
C1671 O1647 1.263 . S
C1671 O1648 1.252 . S
C1671 C1665 1.500 . S
H1672 C1655 0.929 . S
H1673 C1656 0.930 . S
H1674 C1657 0.931 . S
H1675 C1658 0.930 . S
H1676 C1667 0.929 . S
H1677 C1668 0.930 . S
H1678 C1669 0.931 . S
H1679 C1670 0.930 . S
C1680 C1682 1.422 . S
C1680 C1684 1.415 . S
C1680 N1686 1.369 . S
C1681 C1682 1.421 . S
C1681 C1683 1.417 . S
C1681 C1693 1.422 . S
C1682 C1680 1.422 . S
C1682 C1681 1.421 . S
C1682 N1692 1.359 . S
C1683 C1681 1.417 . S
C1683 C1685 1.329 . S
C1683 H1702 0.930 . S
C1684 C1680 1.415 . S
C1684 C1685 1.437 . S
C1684 C1688 1.413 . S
C1685 C1683 1.329 . S
C1685 C1684 1.437 . S
C1685 H1707 0.929 . S
N1686 C1680 1.369 . S
N1686 C1687 1.338 . S
N1686 Gd1691 2.622 . S
C1687 N1686 1.338 . S
C1687 C1689 1.378 . S
C1687 H1699 0.929 . S
C1688 C1684 1.413 . S
C1688 C1689 1.348 . S
C1688 H1704 0.931 . S
C1689 C1687 1.378 . S
C1689 C1688 1.348 . S
C1689 H1705 0.930 . S
Gd1690 N1710 2.622 1_545 S
Gd1690 N1717 2.570 . S
Gd1690 O1724 2.353 . S
Gd1690 O1725 2.468 . S
Gd1690 O1726 2.427 . S
Gd1690 O1728 2.388 . S
Gd1690 O1729 2.386 . S
Gd1690 O1733 2.307 . S
Gd1690 C1743 2.805 . S
Gd1691 N1686 2.622 . S
Gd1691 N1692 2.570 . S
Gd1691 O1723 2.386 . S
Gd1691 O1727 2.307 . S
Gd1691 O1730 2.353 . S
Gd1691 O1731 2.468 . S
Gd1691 O1732 2.427 . S
Gd1691 O1734 2.388 . S
Gd1691 C1755 2.805 . S
N1692 C1682 1.359 . S
N1692 Gd1691 2.570 . S
N1692 C1694 1.343 . S
C1693 C1681 1.422 . S
C1693 C1695 1.321 . S
C1693 H1701 0.931 . S
C1694 N1692 1.343 . S
C1694 C1695 1.390 . S
C1694 H1696 0.931 . S
C1695 C1693 1.321 . S
C1695 C1694 1.390 . S
C1695 H1697 0.930 . S
H1696 C1694 0.931 . S
H1697 C1695 0.930 . S
H1698 C1721 0.931 . S
H1699 C1687 0.929 . S
H1700 C1722 0.930 . S
H1701 C1693 0.931 . S
H1702 C1683 0.930 . S
H1703 C1712 0.929 . S
H1704 C1688 0.931 . S
H1705 C1689 0.930 . S
H1706 C1744 0.930 . S
H1707 C1685 0.929 . S
H1708 C1713 0.931 . S
H1709 C1714 0.930 . S
N1710 Gd1690 2.622 1_565 S
N1710 C1711 1.369 . S
N1710 C1712 1.338 . S
C1711 N1710 1.369 . S
C1711 C1715 1.415 . S
C1711 C1718 1.422 . S
C1712 H1703 0.929 . S
C1712 N1710 1.338 . S
C1712 C1714 1.378 . S
C1713 H1708 0.931 . S
C1713 C1714 1.348 . S
C1713 C1715 1.413 . S
C1714 H1709 0.930 . S
C1714 C1712 1.378 . S
C1714 C1713 1.348 . S
C1715 C1711 1.415 . S
C1715 C1713 1.413 . S
C1715 C1745 1.437 . S
H1716 C1745 0.929 . S
N1717 Gd1690 2.570 . S
N1717 C1718 1.359 1_545 S
N1717 C1721 1.343 . S
C1718 C1711 1.422 . S
C1718 N1717 1.359 1_565 S
C1718 C1720 1.421 . S
C1719 C1720 1.422 . S
C1719 C1722 1.321 1_565 S
C1719 H1746 0.931 . S
C1720 C1718 1.421 . S
C1720 C1719 1.422 . S
C1720 C1744 1.417 . S
C1721 H1698 0.931 . S
C1721 N1717 1.343 . S
C1721 C1722 1.390 . S
C1722 H1700 0.930 . S
C1722 C1719 1.321 1_545 S
C1722 C1721 1.390 . S
O1723 Gd1691 2.386 . S
O1723 C1735 1.265 . S
O1724 Gd1690 2.353 . S
O1724 C1735 1.242 . S
O1725 Gd1690 2.468 . S
O1725 C1743 1.263 . S
O1726 Gd1690 2.427 . S
O1726 C1743 1.252 . S
O1727 Gd1691 2.307 . S
O1727 C1736 1.261 . S
O1728 Gd1690 2.388 . S
O1728 C1736 1.252 . S
O1729 Gd1690 2.386 . S
O1729 C1747 1.265 . S
O1730 Gd1691 2.353 . S
O1730 C1747 1.242 . S
O1731 Gd1691 2.468 . S
O1731 C1755 1.263 . S
O1732 Gd1691 2.427 . S
O1732 C1755 1.252 . S
O1733 Gd1690 2.307 . S
O1733 C1748 1.261 . S
O1734 Gd1691 2.388 . S
O1734 C1748 1.252 . S
C1735 O1723 1.265 . S
C1735 O1724 1.242 . S
C1736 O1727 1.261 . S
C1736 O1728 1.252 . S
C1737 C1740 1.394 1_545 S
C1737 C1742 1.370 . S
C1737 C1743 1.500 1_556 S
C1738 C1741 1.383 1_545 S
C1738 C1742 1.395 . S
C1739 C1740 1.396 . S
C1739 C1741 1.365 . S
C1739 H1756 0.929 . S
C1740 C1737 1.394 1_565 S
C1740 C1739 1.396 . S
C1740 H1757 0.930 . S
C1741 C1738 1.383 1_565 S
C1741 C1739 1.365 . S
C1741 H1758 0.931 . S
C1742 C1737 1.370 . S
C1742 C1738 1.395 . S
C1742 H1759 0.930 . S
C1743 Gd1690 2.805 . S
C1743 O1725 1.263 . S
C1743 O1726 1.252 . S
C1743 C1737 1.500 1_554 S
C1744 H1706 0.930 . S
C1744 C1720 1.417 . S
C1744 C1745 1.329 . S
C1745 C1715 1.437 . S
C1745 H1716 0.929 . S
C1745 C1744 1.329 . S
H1746 C1719 0.931 . S
C1747 O1729 1.265 . S
C1747 O1730 1.242 . S
C1748 O1733 1.261 . S
C1748 O1734 1.252 . S
C1749 C1752 1.394 . S
C1749 C1754 1.370 . S
C1749 C1755 1.500 . S
C1750 C1753 1.383 . S
C1750 C1754 1.395 . S
C1751 C1752 1.396 . S
C1751 C1753 1.365 . S
C1751 H1760 0.929 . S
C1752 C1749 1.394 . S
C1752 C1751 1.396 . S
C1752 H1761 0.930 . S
C1753 C1750 1.383 . S
C1753 C1751 1.365 . S
C1753 H1762 0.931 . S
C1754 C1749 1.370 . S
C1754 C1750 1.395 . S
C1754 H1763 0.930 . S
C1755 Gd1691 2.805 . S
C1755 O1731 1.263 . S
C1755 O1732 1.252 . S
C1755 C1749 1.500 . S
H1756 C1739 0.929 . S
H1757 C1740 0.930 . S
H1758 C1741 0.931 . S
H1759 C1742 0.930 . S
H1760 C1751 0.929 . S
H1761 C1752 0.930 . S
H1762 C1753 0.931 . S
H1763 C1754 0.930 . S
C1764 C1766 1.422 . S
C1764 C1768 1.415 . S
C1764 N1770 1.369 . S
C1765 C1766 1.421 . S
C1765 C1767 1.417 . S
C1765 C1777 1.422 . S
C1766 C1764 1.422 . S
C1766 C1765 1.421 . S
C1766 N1776 1.359 . S
C1767 C1765 1.417 . S
C1767 C1769 1.329 . S
C1767 H1786 0.930 . S
C1768 C1764 1.415 . S
C1768 C1769 1.437 . S
C1768 C1772 1.413 . S
C1769 C1767 1.329 . S
C1769 C1768 1.437 . S
C1769 H1791 0.929 . S
N1770 C1764 1.369 . S
N1770 C1771 1.338 . S
N1770 Gd1775 2.622 . S
C1771 N1770 1.338 . S
C1771 C1773 1.378 . S
C1771 H1783 0.929 . S
C1772 C1768 1.413 . S
C1772 C1773 1.348 . S
C1772 H1788 0.931 . S
C1773 C1771 1.378 . S
C1773 C1772 1.348 . S
C1773 H1789 0.930 . S
Gd1774 N1794 2.622 . S
Gd1774 N1801 2.570 . S
Gd1774 O1808 2.353 . S
Gd1774 O1809 2.468 . S
Gd1774 O1810 2.427 . S
Gd1774 O1812 2.388 . S
Gd1774 O1813 2.386 . S
Gd1774 O1817 2.307 . S
Gd1774 C1827 2.805 . S
Gd1775 N1770 2.622 . S
Gd1775 N1776 2.570 . S
Gd1775 O1807 2.386 . S
Gd1775 O1811 2.307 . S
Gd1775 O1814 2.353 . S
Gd1775 O1815 2.468 . S
Gd1775 O1816 2.427 . S
Gd1775 O1818 2.388 . S
Gd1775 C1839 2.805 . S
N1776 C1766 1.359 . S
N1776 Gd1775 2.570 . S
N1776 C1778 1.343 . S
C1777 C1765 1.422 . S
C1777 C1779 1.321 . S
C1777 H1785 0.931 . S
C1778 N1776 1.343 . S
C1778 C1779 1.390 . S
C1778 H1780 0.931 . S
C1779 C1777 1.321 . S
C1779 C1778 1.390 . S
C1779 H1781 0.930 . S
H1780 C1778 0.931 . S
H1781 C1779 0.930 . S
H1782 C1805 0.931 . S
H1783 C1771 0.929 . S
H1784 C1806 0.930 . S
H1785 C1777 0.931 . S
H1786 C1767 0.930 . S
H1787 C1796 0.929 . S
H1788 C1772 0.931 . S
H1789 C1773 0.930 . S
H1790 C1828 0.930 . S
H1791 C1769 0.929 . S
H1792 C1797 0.931 . S
H1793 C1798 0.930 . S
N1794 Gd1774 2.622 . S
N1794 C1795 1.369 . S
N1794 C1796 1.338 . S
C1795 N1794 1.369 . S
C1795 C1799 1.415 . S
C1795 C1802 1.422 . S
C1796 H1787 0.929 . S
C1796 N1794 1.338 . S
C1796 C1798 1.378 . S
C1797 H1792 0.931 . S
C1797 C1798 1.348 . S
C1797 C1799 1.413 . S
C1798 H1793 0.930 . S
C1798 C1796 1.378 . S
C1798 C1797 1.348 . S
C1799 C1795 1.415 . S
C1799 C1797 1.413 . S
C1799 C1829 1.437 . S
H1800 C1829 0.929 . S
N1801 Gd1774 2.570 . S
N1801 C1802 1.359 . S
N1801 C1805 1.343 . S
C1802 C1795 1.422 . S
C1802 N1801 1.359 . S
C1802 C1804 1.421 . S
C1803 C1804 1.422 . S
C1803 C1806 1.321 . S
C1803 H1830 0.931 . S
C1804 C1802 1.421 . S
C1804 C1803 1.422 . S
C1804 C1828 1.417 . S
C1805 H1782 0.931 . S
C1805 N1801 1.343 . S
C1805 C1806 1.390 . S
C1806 H1784 0.930 . S
C1806 C1803 1.321 . S
C1806 C1805 1.390 . S
O1807 Gd1775 2.386 . S
O1807 C1819 1.265 . S
O1808 Gd1774 2.353 . S
O1808 C1819 1.242 . S
O1809 Gd1774 2.468 . S
O1809 C1827 1.263 . S
O1810 Gd1774 2.427 . S
O1810 C1827 1.252 . S
O1811 Gd1775 2.307 . S
O1811 C1820 1.261 . S
O1812 Gd1774 2.388 . S
O1812 C1820 1.252 . S
O1813 Gd1774 2.386 . S
O1813 C1831 1.265 . S
O1814 Gd1775 2.353 . S
O1814 C1831 1.242 . S
O1815 Gd1775 2.468 . S
O1815 C1839 1.263 . S
O1816 Gd1775 2.427 . S
O1816 C1839 1.252 . S
O1817 Gd1774 2.307 . S
O1817 C1832 1.261 . S
O1818 Gd1775 2.388 . S
O1818 C1832 1.252 . S
C1819 O1807 1.265 . S
C1819 O1808 1.242 . S
C1820 O1811 1.261 . S
C1820 O1812 1.252 . S
C1821 C1824 1.394 . S
C1821 C1826 1.370 . S
C1821 C1827 1.500 . S
C1822 C1825 1.383 . S
C1822 C1826 1.395 . S
C1823 C1824 1.396 . S
C1823 C1825 1.365 . S
C1823 H1840 0.929 . S
C1824 C1821 1.394 . S
C1824 C1823 1.396 . S
C1824 H1841 0.930 . S
C1825 C1822 1.383 . S
C1825 C1823 1.365 . S
C1825 H1842 0.931 . S
C1826 C1821 1.370 . S
C1826 C1822 1.395 . S
C1826 H1843 0.930 . S
C1827 Gd1774 2.805 . S
C1827 O1809 1.263 . S
C1827 O1810 1.252 . S
C1827 C1821 1.500 . S
C1828 H1790 0.930 . S
C1828 C1804 1.417 . S
C1828 C1829 1.329 . S
C1829 C1799 1.437 . S
C1829 H1800 0.929 . S
C1829 C1828 1.329 . S
H1830 C1803 0.931 . S
C1831 O1813 1.265 . S
C1831 O1814 1.242 . S
C1832 O1817 1.261 . S
C1832 O1818 1.252 . S
C1833 C1836 1.394 . S
C1833 C1838 1.370 . S
C1833 C1839 1.500 . S
C1834 C1837 1.383 . S
C1834 C1838 1.395 . S
C1835 C1836 1.396 . S
C1835 C1837 1.365 . S
C1835 H1844 0.929 . S
C1836 C1833 1.394 . S
C1836 C1835 1.396 . S
C1836 H1845 0.930 . S
C1837 C1834 1.383 . S
C1837 C1835 1.365 . S
C1837 H1846 0.931 . S
C1838 C1833 1.370 . S
C1838 C1834 1.395 . S
C1838 H1847 0.930 . S
C1839 Gd1775 2.805 . S
C1839 O1815 1.263 . S
C1839 O1816 1.252 . S
C1839 C1833 1.500 . S
H1840 C1823 0.929 . S
H1841 C1824 0.930 . S
H1842 C1825 0.931 . S
H1843 C1826 0.930 . S
H1844 C1835 0.929 . S
H1845 C1836 0.930 . S
H1846 C1837 0.931 . S
H1847 C1838 0.930 . S
C1848 C1850 1.422 . S
C1848 C1852 1.415 . S
C1848 N1854 1.369 . S
C1849 C1850 1.421 . S
C1849 C1851 1.417 . S
C1849 C1861 1.422 . S
C1850 C1848 1.422 . S
C1850 C1849 1.421 . S
C1850 N1860 1.359 . S
C1851 C1849 1.417 . S
C1851 C1853 1.329 . S
C1851 H1870 0.930 . S
C1852 C1848 1.415 . S
C1852 C1853 1.437 . S
C1852 C1856 1.413 . S
C1853 C1851 1.329 . S
C1853 C1852 1.437 . S
C1853 H1875 0.929 . S
N1854 C1848 1.369 . S
N1854 C1855 1.338 . S
N1854 Gd1859 2.622 1_455 S
C1855 N1854 1.338 . S
C1855 C1857 1.378 . S
C1855 H1867 0.929 1_455 S
C1856 C1852 1.413 . S
C1856 C1857 1.348 . S
C1856 H1872 0.931 . S
C1857 C1855 1.378 . S
C1857 C1856 1.348 . S
C1857 H1873 0.930 . S
Gd1858 N1878 2.622 . S
Gd1858 N1885 2.570 . S
Gd1858 O1892 2.353 . S
Gd1858 O1893 2.468 . S
Gd1858 O1894 2.427 . S
Gd1858 O1896 2.388 . S
Gd1858 O1897 2.386 . S
Gd1858 O1901 2.307 . S
Gd1858 C1911 2.805 . S
Gd1859 N1854 2.622 1_655 S
Gd1859 N1860 2.570 1_655 S
Gd1859 O1891 2.386 1_655 S
Gd1859 O1895 2.307 1_655 S
Gd1859 O1898 2.353 . S
Gd1859 O1899 2.468 1_655 S
Gd1859 O1900 2.426 1_655 S
Gd1859 O1902 2.388 . S
Gd1859 C1923 2.805 1_655 S
N1860 C1850 1.359 . S
N1860 Gd1859 2.570 1_455 S
N1860 C1862 1.343 . S
C1861 C1849 1.422 . S
C1861 C1863 1.321 . S
C1861 H1869 0.931 . S
C1862 N1860 1.343 . S
C1862 C1863 1.390 . S
C1862 H1864 0.931 . S
C1863 C1861 1.321 . S
C1863 C1862 1.390 . S
C1863 H1865 0.930 . S
H1864 C1862 0.931 . S
H1865 C1863 0.930 . S
H1866 C1889 0.931 . S
H1867 C1855 0.929 1_655 S
H1868 C1890 0.930 . S
H1869 C1861 0.931 . S
H1870 C1851 0.930 . S
H1871 C1880 0.929 . S
H1872 C1856 0.931 . S
H1873 C1857 0.930 . S
H1874 C1912 0.930 . S
H1875 C1853 0.929 . S
H1876 C1881 0.931 . S
H1877 C1882 0.930 . S
N1878 Gd1858 2.622 . S
N1878 C1879 1.369 . S
N1878 C1880 1.338 . S
C1879 N1878 1.369 . S
C1879 C1883 1.415 1_565 S
C1879 C1886 1.422 . S
C1880 H1871 0.929 . S
C1880 N1878 1.338 . S
C1880 C1882 1.378 1_565 S
C1881 H1876 0.931 . S
C1881 C1882 1.348 . S
C1881 C1883 1.413 . S
C1882 H1877 0.930 . S
C1882 C1880 1.378 1_545 S
C1882 C1881 1.348 . S
C1883 C1879 1.415 1_545 S
C1883 C1881 1.413 . S
C1883 C1913 1.437 . S
H1884 C1913 0.929 . S
N1885 Gd1858 2.570 . S
N1885 C1886 1.359 . S
N1885 C1889 1.343 . S
C1886 C1879 1.422 . S
C1886 N1885 1.359 . S
C1886 C1888 1.421 . S
C1887 C1888 1.422 . S
C1887 C1890 1.321 . S
C1887 H1914 0.931 . S
C1888 C1886 1.421 . S
C1888 C1887 1.422 . S
C1888 C1912 1.417 . S
C1889 H1866 0.931 . S
C1889 N1885 1.343 . S
C1889 C1890 1.390 . S
C1890 H1868 0.930 . S
C1890 C1887 1.321 . S
C1890 C1889 1.390 . S
O1891 Gd1859 2.386 1_455 S
O1891 C1903 1.265 . S
O1892 Gd1858 2.353 . S
O1892 C1903 1.242 1_655 S
O1893 Gd1858 2.468 . S
O1893 C1911 1.263 . S
O1894 Gd1858 2.427 . S
O1894 C1911 1.252 . S
O1895 Gd1859 2.307 1_455 S
O1895 C1904 1.257 1_455 S
O1896 Gd1858 2.388 . S
O1896 C1904 1.278 . S
O1897 Gd1858 2.386 . S
O1897 C1915 1.265 . S
O1898 Gd1859 2.353 . S
O1898 C1915 1.242 . S
O1899 Gd1859 2.468 1_455 S
O1899 C1923 1.263 . S
O1900 Gd1859 2.426 1_455 S
O1900 C1923 1.257 . S
O1901 Gd1858 2.307 . S
O1901 C1916 1.261 . S
O1902 Gd1859 2.388 . S
O1902 C1916 1.252 . S
C1903 O1891 1.265 . S
C1903 O1892 1.242 1_455 S
C1904 O1895 1.257 1_655 S
C1904 O1896 1.278 . S
C1905 C1908 1.394 . S
C1905 C1910 1.370 . S
C1905 C1911 1.500 . S
C1906 C1909 1.383 . S
C1906 C1910 1.395 . S
C1907 C1908 1.396 . S
C1907 C1909 1.365 . S
C1907 H1924 0.929 1_565 S
C1908 C1905 1.394 . S
C1908 C1907 1.396 . S
C1908 H1925 0.930 . S
C1909 C1906 1.383 . S
C1909 C1907 1.365 . S
C1909 H1926 0.931 . S
C1910 C1905 1.370 . S
C1910 C1906 1.395 . S
C1910 H1927 0.930 . S
C1911 Gd1858 2.805 . S
C1911 O1893 1.263 . S
C1911 O1894 1.252 . S
C1911 C1905 1.500 . S
C1912 H1874 0.930 . S
C1912 C1888 1.417 . S
C1912 C1913 1.329 1_565 S
C1913 C1883 1.437 . S
C1913 H1884 0.929 . S
C1913 C1912 1.329 1_545 S
H1914 C1887 0.931 . S
C1915 O1897 1.265 . S
C1915 O1898 1.242 . S
C1916 O1901 1.261 . S
C1916 O1902 1.252 . S
C1917 C1920 1.394 . S
C1917 C1922 1.370 . S
C1917 C1923 1.500 . S
C1918 C1921 1.383 . S
C1918 C1922 1.395 . S
C1919 C1920 1.396 . S
C1919 C1921 1.365 . S
C1919 H1928 0.929 . S
C1920 C1917 1.394 . S
C1920 C1919 1.396 . S
C1920 H1929 0.930 . S
C1921 C1918 1.383 . S
C1921 C1919 1.365 . S
C1921 H1930 0.931 . S
C1922 C1917 1.370 . S
C1922 C1918 1.395 . S
C1922 H1931 0.930 . S
C1923 Gd1859 2.805 1_455 S
C1923 O1899 1.263 . S
C1923 O1900 1.257 . S
C1923 C1917 1.500 . S
H1924 C1907 0.929 1_545 S
H1925 C1908 0.930 . S
H1926 C1909 0.931 . S
H1927 C1910 0.930 . S
H1928 C1919 0.929 . S
H1929 C1920 0.930 . S
H1930 C1921 0.931 . S
H1931 C1922 0.930 . S
C1932 C1934 1.422 . S
C1932 C1936 1.415 . S
C1932 N1938 1.369 . S
C1933 C1934 1.421 . S
C1933 C1935 1.417 . S
C1933 C1945 1.422 . S
C1934 C1932 1.422 . S
C1934 C1933 1.421 . S
C1934 N1944 1.359 . S
C1935 C1933 1.417 . S
C1935 C1937 1.329 . S
C1935 H1954 0.930 . S
C1936 C1932 1.415 . S
C1936 C1937 1.437 . S
C1936 C1940 1.413 . S
C1937 C1935 1.329 . S
C1937 C1936 1.437 . S
C1937 H1959 0.929 . S
N1938 C1932 1.369 . S
N1938 C1939 1.338 . S
N1938 Gd1943 2.622 . S
C1939 N1938 1.338 . S
C1939 C1941 1.378 . S
C1939 H1951 0.929 . S
C1940 C1936 1.413 . S
C1940 C1941 1.348 . S
C1940 H1956 0.931 . S
C1941 C1939 1.378 . S
C1941 C1940 1.348 . S
C1941 H1957 0.930 . S
Gd1942 N1962 2.622 . S
Gd1942 N1969 2.570 . S
Gd1942 O1976 2.353 . S
Gd1942 O1977 2.468 . S
Gd1942 O1978 2.427 . S
Gd1942 O1980 2.388 . S
Gd1942 O1981 2.386 . S
Gd1942 O1985 2.307 . S
Gd1942 C1995 2.805 . S
Gd1943 N1938 2.622 . S
Gd1943 N1944 2.570 . S
Gd1943 O1975 2.386 . S
Gd1943 O1979 2.307 . S
Gd1943 O1982 2.353 . S
Gd1943 O1983 2.468 . S
Gd1943 O1984 2.427 . S
Gd1943 O1986 2.388 . S
Gd1943 C2007 2.805 . S
N1944 C1934 1.359 . S
N1944 Gd1943 2.570 . S
N1944 C1946 1.343 . S
C1945 C1933 1.422 . S
C1945 C1947 1.321 . S
C1945 H1953 0.931 . S
C1946 N1944 1.343 . S
C1946 C1947 1.390 . S
C1946 H1948 0.931 . S
C1947 C1945 1.321 . S
C1947 C1946 1.390 . S
C1947 H1949 0.930 . S
H1948 C1946 0.931 . S
H1949 C1947 0.930 . S
H1950 C1973 0.931 . S
H1951 C1939 0.929 . S
H1952 C1974 0.930 . S
H1953 C1945 0.931 . S
H1954 C1935 0.930 . S
H1955 C1964 0.929 . S
H1956 C1940 0.931 . S
H1957 C1941 0.930 . S
H1958 C1996 0.930 . S
H1959 C1937 0.929 . S
H1960 C1965 0.931 . S
H1961 C1966 0.930 . S
N1962 Gd1942 2.622 . S
N1962 C1963 1.369 . S
N1962 C1964 1.338 . S
C1963 N1962 1.369 . S
C1963 C1967 1.415 . S
C1963 C1970 1.422 . S
C1964 H1955 0.929 . S
C1964 N1962 1.338 . S
C1964 C1966 1.378 . S
C1965 H1960 0.931 . S
C1965 C1966 1.348 . S
C1965 C1967 1.413 . S
C1966 H1961 0.930 . S
C1966 C1964 1.378 . S
C1966 C1965 1.348 . S
C1967 C1963 1.415 . S
C1967 C1965 1.413 . S
C1967 C1997 1.437 . S
H1968 C1997 0.929 . S
N1969 Gd1942 2.570 . S
N1969 C1970 1.359 . S
N1969 C1973 1.343 . S
C1970 C1963 1.422 . S
C1970 N1969 1.359 . S
C1970 C1972 1.421 . S
C1971 C1972 1.422 . S
C1971 C1974 1.321 . S
C1971 H1998 0.931 . S
C1972 C1970 1.421 . S
C1972 C1971 1.422 . S
C1972 C1996 1.417 . S
C1973 H1950 0.931 . S
C1973 N1969 1.343 . S
C1973 C1974 1.390 . S
C1974 H1952 0.930 . S
C1974 C1971 1.321 . S
C1974 C1973 1.390 . S
O1975 Gd1943 2.386 . S
O1975 C1987 1.265 . S
O1976 Gd1942 2.353 . S
O1976 C1987 1.242 . S
O1977 Gd1942 2.468 . S
O1977 C1995 1.263 . S
O1978 Gd1942 2.427 . S
O1978 C1995 1.252 . S
O1979 Gd1943 2.307 . S
O1979 C1988 1.261 . S
O1980 Gd1942 2.388 . S
O1980 C1988 1.252 . S
O1981 Gd1942 2.386 . S
O1981 C1999 1.265 . S
O1982 Gd1943 2.353 . S
O1982 C1999 1.242 . S
O1983 Gd1943 2.468 . S
O1983 C2007 1.263 . S
O1984 Gd1943 2.427 . S
O1984 C2007 1.252 . S
O1985 Gd1942 2.307 . S
O1985 C2000 1.261 . S
O1986 Gd1943 2.388 . S
O1986 C2000 1.252 . S
C1987 O1975 1.265 . S
C1987 O1976 1.242 . S
C1988 O1979 1.261 . S
C1988 O1980 1.252 . S
C1989 C1992 1.394 . S
C1989 C1994 1.370 . S
C1989 C1995 1.500 . S
C1990 C1993 1.383 . S
C1990 C1994 1.395 . S
C1991 C1992 1.396 . S
C1991 C1993 1.365 . S
C1991 H2008 0.929 . S
C1992 C1989 1.394 . S
C1992 C1991 1.396 . S
C1992 H2009 0.930 . S
C1993 C1990 1.383 . S
C1993 C1991 1.365 . S
C1993 H2010 0.931 . S
C1994 C1989 1.370 . S
C1994 C1990 1.395 . S
C1994 H2011 0.930 . S
C1995 Gd1942 2.805 . S
C1995 O1977 1.263 . S
C1995 O1978 1.252 . S
C1995 C1989 1.500 . S
C1996 H1958 0.930 . S
C1996 C1972 1.417 . S
C1996 C1997 1.329 . S
C1997 C1967 1.437 . S
C1997 H1968 0.929 . S
C1997 C1996 1.329 . S
H1998 C1971 0.931 . S
C1999 O1981 1.265 . S
C1999 O1982 1.242 . S
C2000 O1985 1.261 . S
C2000 O1986 1.252 . S
C2001 C2004 1.394 . S
C2001 C2006 1.370 . S
C2001 C2007 1.500 . S
C2002 C2005 1.383 . S
C2002 C2006 1.395 . S
C2003 C2004 1.396 . S
C2003 C2005 1.365 . S
C2003 H2012 0.929 . S
C2004 C2001 1.394 . S
C2004 C2003 1.396 . S
C2004 H2013 0.930 . S
C2005 C2002 1.383 . S
C2005 C2003 1.365 . S
C2005 H2014 0.931 . S
C2006 C2001 1.370 . S
C2006 C2002 1.395 . S
C2006 H2015 0.930 . S
C2007 Gd1943 2.805 . S
C2007 O1983 1.263 . S
C2007 O1984 1.252 . S
C2007 C2001 1.500 . S
H2008 C1991 0.929 . S
H2009 C1992 0.930 . S
H2010 C1993 0.931 . S
H2011 C1994 0.930 . S
H2012 C2003 0.929 . S
H2013 C2004 0.930 . S
H2014 C2005 0.931 . S
H2015 C2006 0.930 . S
C2016 C2018 1.422 . S
C2016 C2020 1.415 . S
C2016 N2022 1.369 . S
C2017 C2018 1.421 . S
C2017 C2019 1.417 . S
C2017 C2029 1.422 . S
C2018 C2016 1.422 . S
C2018 C2017 1.421 . S
C2018 N2028 1.359 . S
C2019 C2017 1.417 . S
C2019 C2021 1.329 . S
C2019 H2038 0.930 . S
C2020 C2016 1.415 . S
C2020 C2021 1.437 . S
C2020 C2024 1.413 . S
C2021 C2019 1.329 . S
C2021 C2020 1.437 . S
C2021 H2043 0.929 . S
N2022 C2016 1.369 . S
N2022 C2023 1.338 . S
N2022 Gd2027 2.622 1_565 S
C2023 N2022 1.338 . S
C2023 C2025 1.378 . S
C2023 H2035 0.929 . S
C2024 C2020 1.413 . S
C2024 C2025 1.348 . S
C2024 H2040 0.931 . S
C2025 C2023 1.378 . S
C2025 C2024 1.348 . S
C2025 H2041 0.930 . S
Gd2026 N2046 2.622 . S
Gd2026 N2053 2.570 . S
Gd2026 O2060 2.353 . S
Gd2026 O2061 2.468 . S
Gd2026 O2062 2.427 . S
Gd2026 O2064 2.388 . S
Gd2026 O2065 2.386 . S
Gd2026 O2069 2.307 . S
Gd2026 C2079 2.805 . S
Gd2027 N2022 2.622 1_545 S
Gd2027 N2028 2.570 1_545 S
Gd2027 O2059 2.386 . S
Gd2027 O2063 2.307 . S
Gd2027 O2066 2.353 . S
Gd2027 O2067 2.468 . S
Gd2027 O2068 2.427 1_545 S
Gd2027 O2070 2.388 . S
Gd2027 C2091 2.805 . S
N2028 C2018 1.359 . S
N2028 Gd2027 2.570 1_565 S
N2028 C2030 1.343 1_565 S
C2029 C2017 1.422 . S
C2029 C2031 1.321 . S
C2029 H2037 0.931 . S
C2030 N2028 1.343 1_545 S
C2030 C2031 1.390 1_545 S
C2030 H2032 0.931 . S
C2031 C2029 1.321 . S
C2031 C2030 1.390 1_565 S
C2031 H2033 0.930 1_565 S
H2032 C2030 0.931 . S
H2033 C2031 0.930 1_545 S
H2034 C2057 0.931 . S
H2035 C2023 0.929 . S
H2036 C2058 0.930 . S
H2037 C2029 0.931 . S
H2038 C2019 0.930 . S
H2039 C2048 0.929 . S
H2040 C2024 0.931 . S
H2041 C2025 0.930 . S
H2042 C2080 0.930 . S
H2043 C2021 0.929 . S
H2044 C2049 0.931 . S
H2045 C2050 0.930 . S
N2046 Gd2026 2.622 . S
N2046 C2047 1.369 . S
N2046 C2048 1.338 . S
C2047 N2046 1.369 . S
C2047 C2051 1.415 . S
C2047 C2054 1.422 . S
C2048 H2039 0.929 . S
C2048 N2046 1.338 . S
C2048 C2050 1.378 . S
C2049 H2044 0.931 . S
C2049 C2050 1.348 . S
C2049 C2051 1.413 . S
C2050 H2045 0.930 . S
C2050 C2048 1.378 . S
C2050 C2049 1.348 . S
C2051 C2047 1.415 . S
C2051 C2049 1.413 . S
C2051 C2081 1.437 . S
H2052 C2081 0.929 . S
N2053 Gd2026 2.570 . S
N2053 C2054 1.359 . S
N2053 C2057 1.343 . S
C2054 C2047 1.422 . S
C2054 N2053 1.359 . S
C2054 C2056 1.421 . S
C2055 C2056 1.422 . S
C2055 C2058 1.321 . S
C2055 H2082 0.931 . S
C2056 C2054 1.421 . S
C2056 C2055 1.422 . S
C2056 C2080 1.417 . S
C2057 H2034 0.931 . S
C2057 N2053 1.343 . S
C2057 C2058 1.390 . S
C2058 H2036 0.930 . S
C2058 C2055 1.321 . S
C2058 C2057 1.390 . S
O2059 Gd2027 2.386 . S
O2059 C2071 1.265 . S
O2060 Gd2026 2.353 . S
O2060 C2071 1.242 . S
O2061 Gd2026 2.468 . S
O2061 C2079 1.263 . S
O2062 Gd2026 2.427 . S
O2062 C2079 1.252 . S
O2063 Gd2027 2.307 . S
O2063 C2072 1.261 . S
O2064 Gd2026 2.388 . S
O2064 C2072 1.252 . S
O2065 Gd2026 2.386 . S
O2065 C2083 1.265 . S
O2066 Gd2027 2.353 . S
O2066 C2083 1.242 . S
O2067 Gd2027 2.468 . S
O2067 C2091 1.263 . S
O2068 Gd2027 2.427 1_565 S
O2068 C2091 1.252 1_565 S
O2069 Gd2026 2.307 . S
O2069 C2084 1.261 . S
O2070 Gd2027 2.388 . S
O2070 C2084 1.252 . S
C2071 O2059 1.265 . S
C2071 O2060 1.242 . S
C2072 O2063 1.261 . S
C2072 O2064 1.252 . S
C2073 C2076 1.394 . S
C2073 C2078 1.370 . S
C2073 C2079 1.500 . S
C2074 C2077 1.383 . S
C2074 C2078 1.395 . S
C2075 C2076 1.396 . S
C2075 C2077 1.365 . S
C2075 H2092 0.929 . S
C2076 C2073 1.394 . S
C2076 C2075 1.396 . S
C2076 H2093 0.930 . S
C2077 C2074 1.383 . S
C2077 C2075 1.365 . S
C2077 H2094 0.931 . S
C2078 C2073 1.370 . S
C2078 C2074 1.395 . S
C2078 H2095 0.930 . S
C2079 Gd2026 2.805 . S
C2079 O2061 1.263 . S
C2079 O2062 1.252 . S
C2079 C2073 1.500 . S
C2080 H2042 0.930 . S
C2080 C2056 1.417 . S
C2080 C2081 1.329 . S
C2081 C2051 1.437 . S
C2081 H2052 0.929 . S
C2081 C2080 1.329 . S
H2082 C2055 0.931 . S
C2083 O2065 1.265 . S
C2083 O2066 1.242 . S
C2084 O2069 1.261 . S
C2084 O2070 1.252 . S
C2085 C2088 1.394 . S
C2085 C2090 1.370 1_565 S
C2085 C2091 1.500 1_565 S
C2086 C2089 1.383 . S
C2086 C2090 1.395 1_565 S
C2087 C2088 1.396 . S
C2087 C2089 1.365 . S
C2087 H2096 0.929 . S
C2088 C2085 1.394 . S
C2088 C2087 1.396 . S
C2088 H2097 0.930 . S
C2089 C2086 1.383 . S
C2089 C2087 1.365 . S
C2089 H2098 0.931 . S
C2090 C2085 1.370 1_545 S
C2090 C2086 1.395 1_545 S
C2090 H2099 0.930 . S
C2091 Gd2027 2.805 . S
C2091 O2067 1.263 . S
C2091 O2068 1.252 1_545 S
C2091 C2085 1.500 1_545 S
H2092 C2075 0.929 . S
H2093 C2076 0.930 . S
H2094 C2077 0.931 . S
H2095 C2078 0.930 . S
H2096 C2087 0.929 . S
H2097 C2088 0.930 . S
H2098 C2089 0.931 . S
H2099 C2090 0.930 . S
C2100 C2102 1.422 . S
C2100 C2104 1.415 . S
C2100 N2106 1.369 . S
C2101 C2102 1.421 . S
C2101 C2103 1.417 . S
C2101 C2113 1.422 . S
C2102 C2100 1.422 . S
C2102 C2101 1.421 . S
C2102 N2112 1.359 . S
C2103 C2101 1.417 . S
C2103 C2105 1.329 . S
C2103 H2122 0.930 . S
C2104 C2100 1.415 . S
C2104 C2105 1.437 . S
C2104 C2108 1.413 . S
C2105 C2103 1.329 . S
C2105 C2104 1.437 . S
C2105 H2127 0.929 . S
N2106 C2100 1.369 . S
N2106 C2107 1.338 . S
N2106 Gd2111 2.622 . S
C2107 N2106 1.338 . S
C2107 C2109 1.378 . S
C2107 H2119 0.929 . S
C2108 C2104 1.413 . S
C2108 C2109 1.348 . S
C2108 H2124 0.931 . S
C2109 C2107 1.378 . S
C2109 C2108 1.348 . S
C2109 H2125 0.930 . S
Gd2110 N2130 2.622 . S
Gd2110 N2137 2.570 . S
Gd2110 O2144 2.353 . S
Gd2110 O2145 2.468 . S
Gd2110 O2146 2.427 . S
Gd2110 O2148 2.388 . S
Gd2110 O2149 2.386 . S
Gd2110 O2153 2.307 . S
Gd2110 C2163 2.805 . S
Gd2111 N2106 2.622 . S
Gd2111 N2112 2.570 . S
Gd2111 O2143 2.386 . S
Gd2111 O2147 2.307 . S
Gd2111 O2150 2.353 . S
Gd2111 O2151 2.468 . S
Gd2111 O2152 2.427 . S
Gd2111 O2154 2.388 . S
Gd2111 C2175 2.805 . S
N2112 C2102 1.359 . S
N2112 Gd2111 2.570 . S
N2112 C2114 1.343 . S
C2113 C2101 1.422 . S
C2113 C2115 1.321 . S
C2113 H2121 0.931 . S
C2114 N2112 1.343 . S
C2114 C2115 1.390 . S
C2114 H2116 0.931 . S
C2115 C2113 1.321 . S
C2115 C2114 1.390 . S
C2115 H2117 0.930 . S
H2116 C2114 0.931 . S
H2117 C2115 0.930 . S
H2118 C2141 0.931 . S
H2119 C2107 0.929 . S
H2120 C2142 0.930 . S
H2121 C2113 0.931 . S
H2122 C2103 0.930 . S
H2123 C2132 0.929 . S
H2124 C2108 0.931 . S
H2125 C2109 0.930 . S
H2126 C2164 0.930 . S
H2127 C2105 0.929 . S
H2128 C2133 0.931 . S
H2129 C2134 0.930 . S
N2130 Gd2110 2.622 . S
N2130 C2131 1.369 . S
N2130 C2132 1.338 . S
C2131 N2130 1.369 . S
C2131 C2135 1.415 . S
C2131 C2138 1.422 . S
C2132 H2123 0.929 . S
C2132 N2130 1.338 . S
C2132 C2134 1.378 . S
C2133 H2128 0.931 . S
C2133 C2134 1.348 . S
C2133 C2135 1.413 . S
C2134 H2129 0.930 . S
C2134 C2132 1.378 . S
C2134 C2133 1.348 . S
C2135 C2131 1.415 . S
C2135 C2133 1.413 . S
C2135 C2165 1.437 . S
H2136 C2165 0.929 . S
N2137 Gd2110 2.570 . S
N2137 C2138 1.359 . S
N2137 C2141 1.343 . S
C2138 C2131 1.422 . S
C2138 N2137 1.359 . S
C2138 C2140 1.421 . S
C2139 C2140 1.422 . S
C2139 C2142 1.321 . S
C2139 H2166 0.931 . S
C2140 C2138 1.421 . S
C2140 C2139 1.422 . S
C2140 C2164 1.417 . S
C2141 H2118 0.931 . S
C2141 N2137 1.343 . S
C2141 C2142 1.390 . S
C2142 H2120 0.930 . S
C2142 C2139 1.321 . S
C2142 C2141 1.390 . S
O2143 Gd2111 2.386 . S
O2143 C2155 1.265 . S
O2144 Gd2110 2.353 . S
O2144 C2155 1.242 . S
O2145 Gd2110 2.468 . S
O2145 C2163 1.263 . S
O2146 Gd2110 2.427 . S
O2146 C2163 1.252 . S
O2147 Gd2111 2.307 . S
O2147 C2156 1.261 . S
O2148 Gd2110 2.388 . S
O2148 C2156 1.252 . S
O2149 Gd2110 2.386 . S
O2149 C2167 1.265 . S
O2150 Gd2111 2.353 . S
O2150 C2167 1.242 . S
O2151 Gd2111 2.468 . S
O2151 C2175 1.263 . S
O2152 Gd2111 2.427 . S
O2152 C2175 1.252 . S
O2153 Gd2110 2.307 . S
O2153 C2168 1.261 . S
O2154 Gd2111 2.388 . S
O2154 C2168 1.252 . S
C2155 O2143 1.265 . S
C2155 O2144 1.242 . S
C2156 O2147 1.261 . S
C2156 O2148 1.252 . S
C2157 C2160 1.394 . S
C2157 C2162 1.370 . S
C2157 C2163 1.500 . S
C2158 C2161 1.383 . S
C2158 C2162 1.395 . S
C2159 C2160 1.396 . S
C2159 C2161 1.365 . S
C2159 H2176 0.929 . S
C2160 C2157 1.394 . S
C2160 C2159 1.396 . S
C2160 H2177 0.930 . S
C2161 C2158 1.383 . S
C2161 C2159 1.365 . S
C2161 H2178 0.931 . S
C2162 C2157 1.370 . S
C2162 C2158 1.395 . S
C2162 H2179 0.930 . S
C2163 Gd2110 2.805 . S
C2163 O2145 1.263 . S
C2163 O2146 1.252 . S
C2163 C2157 1.500 . S
C2164 H2126 0.930 . S
C2164 C2140 1.417 . S
C2164 C2165 1.329 . S
C2165 C2135 1.437 . S
C2165 H2136 0.929 . S
C2165 C2164 1.329 . S
H2166 C2139 0.931 . S
C2167 O2149 1.265 . S
C2167 O2150 1.242 . S
C2168 O2153 1.261 . S
C2168 O2154 1.252 . S
C2169 C2172 1.394 . S
C2169 C2174 1.370 . S
C2169 C2175 1.500 . S
C2170 C2173 1.383 . S
C2170 C2174 1.395 . S
C2171 C2172 1.396 . S
C2171 C2173 1.365 . S
C2171 H2180 0.929 . S
C2172 C2169 1.394 . S
C2172 C2171 1.396 . S
C2172 H2181 0.930 . S
C2173 C2170 1.383 . S
C2173 C2171 1.365 . S
C2173 H2182 0.931 . S
C2174 C2169 1.370 . S
C2174 C2170 1.395 . S
C2174 H2183 0.930 . S
C2175 Gd2111 2.805 . S
C2175 O2151 1.263 . S
C2175 O2152 1.252 . S
C2175 C2169 1.500 . S
H2176 C2159 0.929 . S
H2177 C2160 0.930 . S
H2178 C2161 0.931 . S
H2179 C2162 0.930 . S
H2180 C2171 0.929 . S
H2181 C2172 0.930 . S
H2182 C2173 0.931 . S
H2183 C2174 0.930 . S
C2184 C2186 1.422 . S
C2184 C2188 1.415 . S
C2184 N2190 1.369 . S
C2185 C2186 1.421 . S
C2185 C2187 1.417 . S
C2185 C2197 1.422 . S
C2186 C2184 1.422 . S
C2186 C2185 1.421 . S
C2186 N2196 1.359 . S
C2187 C2185 1.417 . S
C2187 C2189 1.329 . S
C2187 H2206 0.930 . S
C2188 C2184 1.415 . S
C2188 C2189 1.437 . S
C2188 C2192 1.413 . S
C2189 C2187 1.329 . S
C2189 C2188 1.437 . S
C2189 H2211 0.929 . S
N2190 C2184 1.369 . S
N2190 C2191 1.338 1_545 S
N2190 Gd2195 2.622 1_545 S
C2191 N2190 1.338 1_565 S
C2191 C2193 1.378 . S
C2191 H2203 0.929 . S
C2192 C2188 1.413 . S
C2192 C2193 1.348 1_545 S
C2192 H2208 0.931 . S
C2193 C2191 1.378 . S
C2193 C2192 1.348 1_565 S
C2193 H2209 0.930 . S
Gd2194 N2214 2.622 . S
Gd2194 N2221 2.570 . S
Gd2194 O2228 2.353 . S
Gd2194 O2229 2.468 . S
Gd2194 O2230 2.427 . S
Gd2194 O2232 2.388 . S
Gd2194 O2233 2.386 . S
Gd2194 O2237 2.307 . S
Gd2194 C2247 2.805 . S
Gd2195 N2190 2.622 1_565 S
Gd2195 N2196 2.570 1_565 S
Gd2195 O2227 2.386 . S
Gd2195 O2231 2.307 . S
Gd2195 O2234 2.353 . S
Gd2195 O2235 2.468 1_565 S
Gd2195 O2236 2.427 . S
Gd2195 O2238 2.388 . S
Gd2195 C2259 2.805 1_565 S
N2196 C2186 1.359 . S
N2196 Gd2195 2.570 1_545 S
N2196 C2198 1.343 . S
C2197 C2185 1.422 . S
C2197 C2199 1.321 . S
C2197 H2205 0.931 . S
C2198 N2196 1.343 . S
C2198 C2199 1.390 . S
C2198 H2200 0.931 . S
C2199 C2197 1.321 . S
C2199 C2198 1.390 . S
C2199 H2201 0.930 . S
H2200 C2198 0.931 . S
H2201 C2199 0.930 . S
H2202 C2225 0.931 . S
H2203 C2191 0.929 . S
H2204 C2226 0.930 . S
H2205 C2197 0.931 . S
H2206 C2187 0.930 . S
H2207 C2216 0.929 . S
H2208 C2192 0.931 . S
H2209 C2193 0.930 . S
H2210 C2248 0.930 . S
H2211 C2189 0.929 . S
H2212 C2217 0.931 . S
H2213 C2218 0.930 . S
N2214 Gd2194 2.622 . S
N2214 C2215 1.369 . S
N2214 C2216 1.338 . S
C2215 N2214 1.369 . S
C2215 C2219 1.415 . S
C2215 C2222 1.422 . S
C2216 H2207 0.929 . S
C2216 N2214 1.338 . S
C2216 C2218 1.378 1_455 S
C2217 H2212 0.931 . S
C2217 C2218 1.348 . S
C2217 C2219 1.413 1_655 S
C2218 H2213 0.930 . S
C2218 C2216 1.378 1_655 S
C2218 C2217 1.348 . S
C2219 C2215 1.415 . S
C2219 C2217 1.413 1_455 S
C2219 C2249 1.437 . S
H2220 C2249 0.929 1_655 S
N2221 Gd2194 2.570 . S
N2221 C2222 1.359 . S
N2221 C2225 1.343 . S
C2222 C2215 1.422 . S
C2222 N2221 1.359 . S
C2222 C2224 1.421 . S
C2223 C2224 1.422 . S
C2223 C2226 1.321 . S
C2223 H2250 0.931 . S
C2224 C2222 1.421 . S
C2224 C2223 1.422 . S
C2224 C2248 1.417 . S
C2225 H2202 0.931 . S
C2225 N2221 1.343 . S
C2225 C2226 1.390 . S
C2226 H2204 0.930 . S
C2226 C2223 1.321 . S
C2226 C2225 1.390 . S
O2227 Gd2195 2.386 . S
O2227 C2239 1.265 . S
O2228 Gd2194 2.353 . S
O2228 C2239 1.242 . S
O2229 Gd2194 2.468 . S
O2229 C2247 1.263 . S
O2230 Gd2194 2.427 . S
O2230 C2247 1.252 . S
O2231 Gd2195 2.307 . S
O2231 C2240 1.261 . S
O2232 Gd2194 2.388 . S
O2232 C2240 1.252 . S
O2233 Gd2194 2.386 . S
O2233 C2251 1.265 . S
O2234 Gd2195 2.353 . S
O2234 C2251 1.242 . S
O2235 Gd2195 2.468 1_545 S
O2235 C2259 1.263 . S
O2236 Gd2195 2.427 . S
O2236 C2259 1.252 1_565 S
O2237 Gd2194 2.307 . S
O2237 C2252 1.261 . S
O2238 Gd2195 2.388 . S
O2238 C2252 1.252 . S
C2239 O2227 1.265 . S
C2239 O2228 1.242 . S
C2240 O2231 1.261 . S
C2240 O2232 1.252 . S
C2241 C2244 1.394 . S
C2241 C2246 1.370 . S
C2241 C2247 1.500 1_556 S
C2242 C2245 1.383 . S
C2242 C2246 1.395 . S
C2243 C2244 1.396 . S
C2243 C2245 1.365 . S
C2243 H2260 0.929 . S
C2244 C2241 1.394 . S
C2244 C2243 1.396 . S
C2244 H2261 0.930 . S
C2245 C2242 1.383 . S
C2245 C2243 1.365 . S
C2245 H2262 0.931 . S
C2246 C2241 1.370 . S
C2246 C2242 1.395 . S
C2246 H2263 0.930 . S
C2247 Gd2194 2.805 . S
C2247 O2229 1.263 . S
C2247 O2230 1.252 . S
C2247 C2241 1.500 1_554 S
C2248 H2210 0.930 . S
C2248 C2224 1.417 . S
C2248 C2249 1.329 . S
C2249 C2219 1.437 . S
C2249 H2220 0.929 1_455 S
C2249 C2248 1.329 . S
H2250 C2223 0.931 . S
C2251 O2233 1.265 . S
C2251 O2234 1.242 . S
C2252 O2237 1.261 . S
C2252 O2238 1.252 . S
C2253 C2256 1.394 . S
C2253 C2258 1.370 . S
C2253 C2259 1.500 . S
C2254 C2257 1.383 . S
C2254 C2258 1.395 . S
C2255 C2256 1.396 . S
C2255 C2257 1.365 . S
C2255 H2264 0.929 . S
C2256 C2253 1.394 . S
C2256 C2255 1.396 . S
C2256 H2265 0.930 1_545 S
C2257 C2254 1.383 . S
C2257 C2255 1.365 . S
C2257 H2266 0.931 . S
C2258 C2253 1.370 . S
C2258 C2254 1.395 . S
C2258 H2267 0.930 . S
C2259 Gd2195 2.805 1_545 S
C2259 O2235 1.263 . S
C2259 O2236 1.252 1_545 S
C2259 C2253 1.500 . S
H2260 C2243 0.929 . S
H2261 C2244 0.930 . S
H2262 C2245 0.931 . S
H2263 C2246 0.930 . S
H2264 C2255 0.929 . S
H2265 C2256 0.930 1_565 S
H2266 C2257 0.931 . S
H2267 C2258 0.930 . S
C2268 C2270 1.422 . S
C2268 C2272 1.415 . S
C2268 N2274 1.369 . S
C2269 C2270 1.421 . S
C2269 C2271 1.417 . S
C2269 C2281 1.422 . S
C2270 C2268 1.422 . S
C2270 C2269 1.421 . S
C2270 N2280 1.359 . S
C2271 C2269 1.417 . S
C2271 C2273 1.329 . S
C2271 H2290 0.930 . S
C2272 C2268 1.415 . S
C2272 C2273 1.437 . S
C2272 C2276 1.413 . S
C2273 C2271 1.329 . S
C2273 C2272 1.437 . S
C2273 H2295 0.929 . S
N2274 C2268 1.369 . S
N2274 C2275 1.338 . S
N2274 Gd2279 2.622 . S
C2275 N2274 1.338 . S
C2275 C2277 1.378 . S
C2275 H2287 0.929 . S
C2276 C2272 1.413 . S
C2276 C2277 1.348 . S
C2276 H2292 0.931 . S
C2277 C2275 1.378 . S
C2277 C2276 1.348 . S
C2277 H2293 0.930 . S
Gd2278 N2298 2.622 . S
Gd2278 N2305 2.570 . S
Gd2278 O2312 2.353 . S
Gd2278 O2313 2.468 . S
Gd2278 O2314 2.427 . S
Gd2278 O2316 2.388 . S
Gd2278 O2317 2.386 . S
Gd2278 O2321 2.307 . S
Gd2278 C2331 2.805 . S
Gd2279 N2274 2.622 . S
Gd2279 N2280 2.570 . S
Gd2279 O2311 2.386 . S
Gd2279 O2315 2.307 . S
Gd2279 O2318 2.353 . S
Gd2279 O2319 2.468 . S
Gd2279 O2320 2.427 . S
Gd2279 O2322 2.388 . S
Gd2279 C2343 2.805 . S
N2280 C2270 1.359 . S
N2280 Gd2279 2.570 . S
N2280 C2282 1.343 . S
C2281 C2269 1.422 . S
C2281 C2283 1.321 . S
C2281 H2289 0.931 . S
C2282 N2280 1.343 . S
C2282 C2283 1.390 . S
C2282 H2284 0.931 . S
C2283 C2281 1.321 . S
C2283 C2282 1.390 . S
C2283 H2285 0.930 . S
H2284 C2282 0.931 . S
H2285 C2283 0.930 . S
H2286 C2309 0.931 . S
H2287 C2275 0.929 . S
H2288 C2310 0.930 . S
H2289 C2281 0.931 . S
H2290 C2271 0.930 . S
H2291 C2300 0.929 . S
H2292 C2276 0.931 . S
H2293 C2277 0.930 . S
H2294 C2332 0.930 . S
H2295 C2273 0.929 . S
H2296 C2301 0.931 . S
H2297 C2302 0.930 . S
N2298 Gd2278 2.622 . S
N2298 C2299 1.369 . S
N2298 C2300 1.338 . S
C2299 N2298 1.369 . S
C2299 C2303 1.415 . S
C2299 C2306 1.422 . S
C2300 H2291 0.929 . S
C2300 N2298 1.338 . S
C2300 C2302 1.378 . S
C2301 H2296 0.931 . S
C2301 C2302 1.348 . S
C2301 C2303 1.413 . S
C2302 H2297 0.930 . S
C2302 C2300 1.378 . S
C2302 C2301 1.348 . S
C2303 C2299 1.415 . S
C2303 C2301 1.413 . S
C2303 C2333 1.437 . S
H2304 C2333 0.929 . S
N2305 Gd2278 2.570 . S
N2305 C2306 1.359 . S
N2305 C2309 1.343 . S
C2306 C2299 1.422 . S
C2306 N2305 1.359 . S
C2306 C2308 1.421 . S
C2307 C2308 1.422 . S
C2307 C2310 1.321 . S
C2307 H2334 0.931 . S
C2308 C2306 1.421 . S
C2308 C2307 1.422 . S
C2308 C2332 1.417 . S
C2309 H2286 0.931 . S
C2309 N2305 1.343 . S
C2309 C2310 1.390 . S
C2310 H2288 0.930 . S
C2310 C2307 1.321 . S
C2310 C2309 1.390 . S
O2311 Gd2279 2.386 . S
O2311 C2323 1.265 . S
O2312 Gd2278 2.353 . S
O2312 C2323 1.242 . S
O2313 Gd2278 2.468 . S
O2313 C2331 1.263 . S
O2314 Gd2278 2.427 . S
O2314 C2331 1.252 . S
O2315 Gd2279 2.307 . S
O2315 C2324 1.261 . S
O2316 Gd2278 2.388 . S
O2316 C2324 1.252 . S
O2317 Gd2278 2.386 . S
O2317 C2335 1.265 . S
O2318 Gd2279 2.353 . S
O2318 C2335 1.242 . S
O2319 Gd2279 2.468 . S
O2319 C2343 1.263 . S
O2320 Gd2279 2.427 . S
O2320 C2343 1.252 . S
O2321 Gd2278 2.307 . S
O2321 C2336 1.261 . S
O2322 Gd2279 2.388 . S
O2322 C2336 1.252 . S
C2323 O2311 1.265 . S
C2323 O2312 1.242 . S
C2324 O2315 1.261 . S
C2324 O2316 1.252 . S
C2325 C2328 1.394 . S
C2325 C2330 1.370 . S
C2325 C2331 1.500 . S
C2326 C2329 1.383 . S
C2326 C2330 1.395 . S
C2327 C2328 1.396 . S
C2327 C2329 1.365 . S
C2327 H2344 0.929 . S
C2328 C2325 1.394 . S
C2328 C2327 1.396 . S
C2328 H2345 0.930 . S
C2329 C2326 1.383 . S
C2329 C2327 1.365 . S
C2329 H2346 0.931 . S
C2330 C2325 1.370 . S
C2330 C2326 1.395 . S
C2330 H2347 0.930 . S
C2331 Gd2278 2.805 . S
C2331 O2313 1.263 . S
C2331 O2314 1.252 . S
C2331 C2325 1.500 . S
C2332 H2294 0.930 . S
C2332 C2308 1.417 . S
C2332 C2333 1.329 . S
C2333 C2303 1.437 . S
C2333 H2304 0.929 . S
C2333 C2332 1.329 . S
H2334 C2307 0.931 . S
C2335 O2317 1.265 . S
C2335 O2318 1.242 . S
C2336 O2321 1.261 . S
C2336 O2322 1.252 . S
C2337 C2340 1.394 . S
C2337 C2342 1.370 . S
C2337 C2343 1.500 1_554 S
C2338 C2341 1.383 . S
C2338 C2342 1.395 . S
C2339 C2340 1.396 . S
C2339 C2341 1.365 . S
C2339 H2348 0.929 . S
C2340 C2337 1.394 . S
C2340 C2339 1.396 . S
C2340 H2349 0.930 1_554 S
C2341 C2338 1.383 . S
C2341 C2339 1.365 . S
C2341 H2350 0.931 . S
C2342 C2337 1.370 . S
C2342 C2338 1.395 . S
C2342 H2351 0.930 . S
C2343 Gd2279 2.805 . S
C2343 O2319 1.263 . S
C2343 O2320 1.252 . S
C2343 C2337 1.500 1_556 S
H2344 C2327 0.929 . S
H2345 C2328 0.930 . S
H2346 C2329 0.931 . S
H2347 C2330 0.930 . S
H2348 C2339 0.929 . S
H2349 C2340 0.930 1_556 S
H2350 C2341 0.931 . S
H2351 C2342 0.930 . S
C2352 C2354 1.422 . S
C2352 C2356 1.415 . S
C2352 N2358 1.369 . S
C2353 C2354 1.421 . S
C2353 C2355 1.417 . S
C2353 C2365 1.422 . S
C2354 C2352 1.422 . S
C2354 C2353 1.421 . S
C2354 N2364 1.359 1_545 S
C2355 C2353 1.417 . S
C2355 C2357 1.329 . S
C2355 H2374 0.930 . S
C2356 C2352 1.415 . S
C2356 C2357 1.437 . S
C2356 C2360 1.413 . S
C2357 C2355 1.329 . S
C2357 C2356 1.437 . S
C2357 H2379 0.929 1_554 S
N2358 C2352 1.369 . S
N2358 C2359 1.338 . S
N2358 Gd2363 2.622 1_545 S
C2359 N2358 1.338 . S
C2359 C2361 1.378 . S
C2359 H2371 0.929 . S
C2360 C2356 1.413 . S
C2360 C2361 1.348 . S
C2360 H2376 0.931 . S
C2361 C2359 1.378 . S
C2361 C2360 1.348 . S
C2361 H2377 0.930 . S
Gd2362 N2382 2.622 . S
Gd2362 N2389 2.570 . S
Gd2362 O2396 2.353 . S
Gd2362 O2397 2.473 . S
Gd2362 O2398 2.427 . S
Gd2362 O2400 2.388 . S
Gd2362 O2401 2.386 . S
Gd2362 O2405 2.307 . S
Gd2362 C2415 2.805 1_554 S
Gd2363 N2358 2.622 1_565 S
Gd2363 N2364 2.570 . S
Gd2363 O2395 2.386 . S
Gd2363 O2399 2.307 . S
Gd2363 O2402 2.353 . S
Gd2363 O2403 2.468 . S
Gd2363 O2404 2.427 . S
Gd2363 O2406 2.388 . S
Gd2363 C2427 2.805 . S
N2364 C2354 1.359 1_565 S
N2364 Gd2363 2.570 . S
N2364 C2366 1.343 . S
C2365 C2353 1.422 . S
C2365 C2367 1.321 1_545 S
C2365 H2373 0.931 . S
C2366 N2364 1.343 . S
C2366 C2367 1.390 . S
C2366 H2368 0.931 . S
C2367 C2365 1.321 1_565 S
C2367 C2366 1.390 . S
C2367 H2369 0.930 . S
H2368 C2366 0.931 . S
H2369 C2367 0.930 . S
H2370 C2393 0.931 . S
H2371 C2359 0.929 . S
H2372 C2394 0.930 . S
H2373 C2365 0.931 . S
H2374 C2355 0.930 . S
H2375 C2384 0.929 . S
H2376 C2360 0.931 . S
H2377 C2361 0.930 . S
H2378 C2416 0.930 . S
H2379 C2357 0.929 1_556 S
H2380 C2385 0.931 . S
H2381 C2386 0.930 . S
N2382 Gd2362 2.622 . S
N2382 C2383 1.369 . S
N2382 C2384 1.338 . S
C2383 N2382 1.369 . S
C2383 C2387 1.415 . S
C2383 C2390 1.422 . S
C2384 H2375 0.929 . S
C2384 N2382 1.338 . S
C2384 C2386 1.378 . S
C2385 H2380 0.931 . S
C2385 C2386 1.348 . S
C2385 C2387 1.413 . S
C2386 H2381 0.930 . S
C2386 C2384 1.378 . S
C2386 C2385 1.348 . S
C2387 C2383 1.415 . S
C2387 C2385 1.413 . S
C2387 C2417 1.437 . S
H2388 C2417 0.929 . S
N2389 Gd2362 2.570 . S
N2389 C2390 1.359 . S
N2389 C2393 1.343 . S
C2390 C2383 1.422 . S
C2390 N2389 1.359 . S
C2390 C2392 1.421 . S
C2391 C2392 1.422 . S
C2391 C2394 1.321 . S
C2391 H2418 0.931 . S
C2392 C2390 1.421 . S
C2392 C2391 1.422 . S
C2392 C2416 1.417 . S
C2393 H2370 0.931 . S
C2393 N2389 1.343 . S
C2393 C2394 1.390 . S
C2394 H2372 0.930 . S
C2394 C2391 1.321 . S
C2394 C2393 1.390 . S
O2395 Gd2363 2.386 . S
O2395 C2407 1.265 . S
O2396 Gd2362 2.353 . S
O2396 C2407 1.242 . S
O2397 Gd2362 2.473 . S
O2397 C2415 1.261 1_554 S
O2398 Gd2362 2.427 . S
O2398 C2415 1.252 1_554 S
O2399 Gd2363 2.307 . S
O2399 C2408 1.261 . S
O2400 Gd2362 2.388 . S
O2400 C2408 1.252 . S
O2401 Gd2362 2.386 . S
O2401 C2419 1.265 . S
O2402 Gd2363 2.353 . S
O2402 C2419 1.242 . S
O2403 Gd2363 2.468 . S
O2403 C2427 1.263 . S
O2404 Gd2363 2.427 . S
O2404 C2427 1.252 . S
O2405 Gd2362 2.307 . S
O2405 C2420 1.261 . S
O2406 Gd2363 2.388 . S
O2406 C2420 1.252 . S
C2407 O2395 1.265 . S
C2407 O2396 1.242 . S
C2408 O2399 1.261 . S
C2408 O2400 1.252 . S
C2409 C2412 1.394 . S
C2409 C2414 1.370 . S
C2409 C2415 1.500 . S
C2410 C2413 1.383 . S
C2410 C2414 1.395 . S
C2411 C2412 1.396 . S
C2411 C2413 1.365 . S
C2411 H2428 0.929 . S
C2412 C2409 1.394 . S
C2412 C2411 1.396 . S
C2412 H2429 0.930 . S
C2413 C2410 1.383 . S
C2413 C2411 1.365 . S
C2413 H2430 0.931 . S
C2414 C2409 1.370 . S
C2414 C2410 1.395 . S
C2414 H2431 0.930 . S
C2415 Gd2362 2.805 1_556 S
C2415 O2397 1.261 1_556 S
C2415 O2398 1.252 1_556 S
C2415 C2409 1.500 . S
C2416 H2378 0.930 . S
C2416 C2392 1.417 . S
C2416 C2417 1.329 . S
C2417 C2387 1.437 . S
C2417 H2388 0.929 . S
C2417 C2416 1.329 . S
H2418 C2391 0.931 . S
C2419 O2401 1.265 . S
C2419 O2402 1.242 . S
C2420 O2405 1.261 . S
C2420 O2406 1.252 . S
C2421 C2424 1.394 1_565 S
C2421 C2426 1.370 . S
C2421 C2427 1.500 . S
C2422 C2425 1.383 1_565 S
C2422 C2426 1.395 . S
C2423 C2424 1.396 . S
C2423 C2425 1.365 . S
C2423 H2432 0.929 . S
C2424 C2421 1.394 1_545 S
C2424 C2423 1.396 . S
C2424 H2433 0.930 . S
C2425 C2422 1.383 1_545 S
C2425 C2423 1.365 . S
C2425 H2434 0.931 . S
C2426 C2421 1.370 . S
C2426 C2422 1.395 . S
C2426 H2435 0.930 . S
C2427 Gd2363 2.805 . S
C2427 O2403 1.263 . S
C2427 O2404 1.252 . S
C2427 C2421 1.500 . S
H2428 C2411 0.929 . S
H2429 C2412 0.930 . S
H2430 C2413 0.931 . S
H2431 C2414 0.930 . S
H2432 C2423 0.929 . S
H2433 C2424 0.930 . S
H2434 C2425 0.931 . S
H2435 C2426 0.930 . S
C2436 C2438 1.422 . S
C2436 C2440 1.415 . S
C2436 N2442 1.369 . S
C2437 C2438 1.421 . S
C2437 C2439 1.417 . S
C2437 C2449 1.422 . S
C2438 C2436 1.422 . S
C2438 C2437 1.421 . S
C2438 N2448 1.359 . S
C2439 C2437 1.417 . S
C2439 C2441 1.329 . S
C2439 H2458 0.930 . S
C2440 C2436 1.415 . S
C2440 C2441 1.437 . S
C2440 C2444 1.413 . S
C2441 C2439 1.329 . S
C2441 C2440 1.437 . S
C2441 H2463 0.929 . S
N2442 C2436 1.369 . S
N2442 C2443 1.338 . S
N2442 Gd2447 2.622 . S
C2443 N2442 1.338 . S
C2443 C2445 1.378 . S
C2443 H2455 0.929 . S
C2444 C2440 1.413 . S
C2444 C2445 1.348 . S
C2444 H2460 0.931 . S
C2445 C2443 1.378 . S
C2445 C2444 1.348 . S
C2445 H2461 0.930 . S
Gd2446 N2466 2.622 . S
Gd2446 N2473 2.570 . S
Gd2446 O2480 2.353 . S
Gd2446 O2481 2.468 . S
Gd2446 O2482 2.427 . S
Gd2446 O2484 2.388 . S
Gd2446 O2485 2.386 . S
Gd2446 O2489 2.307 . S
Gd2446 C2499 2.805 . S
Gd2447 N2442 2.622 . S
Gd2447 N2448 2.570 . S
Gd2447 O2479 2.386 . S
Gd2447 O2483 2.307 . S
Gd2447 O2486 2.353 . S
Gd2447 O2487 2.468 . S
Gd2447 O2488 2.427 . S
Gd2447 O2490 2.388 . S
Gd2447 C2511 2.805 . S
N2448 C2438 1.359 . S
N2448 Gd2447 2.570 . S
N2448 C2450 1.343 . S
C2449 C2437 1.422 . S
C2449 C2451 1.321 . S
C2449 H2457 0.931 . S
C2450 N2448 1.343 . S
C2450 C2451 1.390 . S
C2450 H2452 0.931 . S
C2451 C2449 1.321 . S
C2451 C2450 1.390 . S
C2451 H2453 0.930 . S
H2452 C2450 0.931 . S
H2453 C2451 0.930 . S
H2454 C2477 0.931 . S
H2455 C2443 0.929 . S
H2456 C2478 0.930 . S
H2457 C2449 0.931 . S
H2458 C2439 0.930 . S
H2459 C2468 0.929 . S
H2460 C2444 0.931 . S
H2461 C2445 0.930 . S
H2462 C2500 0.930 . S
H2463 C2441 0.929 . S
H2464 C2469 0.931 . S
H2465 C2470 0.930 . S
N2466 Gd2446 2.622 . S
N2466 C2467 1.369 . S
N2466 C2468 1.338 . S
C2467 N2466 1.369 . S
C2467 C2471 1.415 . S
C2467 C2474 1.422 . S
C2468 H2459 0.929 . S
C2468 N2466 1.338 . S
C2468 C2470 1.378 . S
C2469 H2464 0.931 . S
C2469 C2470 1.348 . S
C2469 C2471 1.413 . S
C2470 H2465 0.930 . S
C2470 C2468 1.378 . S
C2470 C2469 1.348 . S
C2471 C2467 1.415 . S
C2471 C2469 1.413 . S
C2471 C2501 1.437 . S
H2472 C2501 0.929 . S
N2473 Gd2446 2.570 . S
N2473 C2474 1.359 . S
N2473 C2477 1.343 . S
C2474 C2467 1.422 . S
C2474 N2473 1.359 . S
C2474 C2476 1.421 . S
C2475 C2476 1.422 . S
C2475 C2478 1.321 . S
C2475 H2502 0.931 . S
C2476 C2474 1.421 . S
C2476 C2475 1.422 . S
C2476 C2500 1.417 . S
C2477 H2454 0.931 . S
C2477 N2473 1.343 . S
C2477 C2478 1.390 . S
C2478 H2456 0.930 . S
C2478 C2475 1.321 . S
C2478 C2477 1.390 . S
O2479 Gd2447 2.386 . S
O2479 C2491 1.265 . S
O2480 Gd2446 2.353 . S
O2480 C2491 1.242 . S
O2481 Gd2446 2.468 . S
O2481 C2499 1.263 . S
O2482 Gd2446 2.427 . S
O2482 C2499 1.252 . S
O2483 Gd2447 2.307 . S
O2483 C2492 1.261 . S
O2484 Gd2446 2.388 . S
O2484 C2492 1.252 . S
O2485 Gd2446 2.386 . S
O2485 C2503 1.265 . S
O2486 Gd2447 2.353 . S
O2486 C2503 1.242 . S
O2487 Gd2447 2.468 . S
O2487 C2511 1.263 . S
O2488 Gd2447 2.427 . S
O2488 C2511 1.252 . S
O2489 Gd2446 2.307 . S
O2489 C2504 1.261 . S
O2490 Gd2447 2.388 . S
O2490 C2504 1.252 . S
C2491 O2479 1.265 . S
C2491 O2480 1.242 . S
C2492 O2483 1.261 . S
C2492 O2484 1.252 . S
C2493 C2496 1.394 . S
C2493 C2498 1.370 . S
C2493 C2499 1.500 1_554 S
C2494 C2497 1.383 . S
C2494 C2498 1.395 . S
C2495 C2496 1.396 . S
C2495 C2497 1.365 . S
C2495 H2512 0.929 . S
C2496 C2493 1.394 . S
C2496 C2495 1.396 . S
C2496 H2513 0.930 1_554 S
C2497 C2494 1.383 . S
C2497 C2495 1.365 . S
C2497 H2514 0.931 . S
C2498 C2493 1.370 . S
C2498 C2494 1.395 . S
C2498 H2515 0.930 . S
C2499 Gd2446 2.805 . S
C2499 O2481 1.263 . S
C2499 O2482 1.252 . S
C2499 C2493 1.500 1_556 S
C2500 H2462 0.930 . S
C2500 C2476 1.417 . S
C2500 C2501 1.329 . S
C2501 C2471 1.437 . S
C2501 H2472 0.929 . S
C2501 C2500 1.329 . S
H2502 C2475 0.931 . S
C2503 O2485 1.265 . S
C2503 O2486 1.242 . S
C2504 O2489 1.261 . S
C2504 O2490 1.252 . S
C2505 C2508 1.394 . S
C2505 C2510 1.370 . S
C2505 C2511 1.500 . S
C2506 C2509 1.383 . S
C2506 C2510 1.395 . S
C2507 C2508 1.396 . S
C2507 C2509 1.365 . S
C2507 H2516 0.929 . S
C2508 C2505 1.394 . S
C2508 C2507 1.396 . S
C2508 H2517 0.930 . S
C2509 C2506 1.383 . S
C2509 C2507 1.365 . S
C2509 H2518 0.931 . S
C2510 C2505 1.370 . S
C2510 C2506 1.395 . S
C2510 H2519 0.930 . S
C2511 Gd2447 2.805 . S
C2511 O2487 1.263 . S
C2511 O2488 1.252 . S
C2511 C2505 1.500 . S
H2512 C2495 0.929 . S
H2513 C2496 0.930 1_556 S
H2514 C2497 0.931 . S
H2515 C2498 0.930 . S
H2516 C2507 0.929 . S
H2517 C2508 0.930 . S
H2518 C2509 0.931 . S
H2519 C2510 0.930 . S
C2520 C2522 1.422 . S
C2520 C2524 1.415 1_545 S
C2520 N2526 1.369 . S
C2521 C2522 1.421 . S
C2521 C2523 1.417 . S
C2521 C2533 1.422 . S
C2522 C2520 1.422 . S
C2522 C2521 1.421 . S
C2522 N2532 1.359 . S
C2523 C2521 1.417 . S
C2523 C2525 1.329 1_545 S
C2523 H2542 0.930 . S
C2524 C2520 1.415 1_565 S
C2524 C2525 1.437 . S
C2524 C2528 1.413 . S
C2525 C2523 1.329 1_565 S
C2525 C2524 1.437 . S
C2525 H2547 0.929 . S
N2526 C2520 1.369 . S
N2526 C2527 1.338 . S
N2526 Gd2531 2.622 . S
C2527 N2526 1.338 . S
C2527 C2529 1.378 1_545 S
C2527 H2539 0.929 . S
C2528 C2524 1.413 . S
C2528 C2529 1.348 . S
C2528 H2544 0.931 . S
C2529 C2527 1.378 1_565 S
C2529 C2528 1.348 . S
C2529 H2545 0.930 . S
Gd2530 N2550 2.622 1_455 S
Gd2530 N2557 2.570 1_455 S
Gd2530 O2564 2.353 . S
Gd2530 O2565 2.468 1_455 S
Gd2530 O2566 2.426 1_455 S
Gd2530 O2568 2.388 . S
Gd2530 O2569 2.386 1_455 S
Gd2530 O2573 2.307 1_455 S
Gd2530 C2583 2.805 1_455 S
Gd2531 N2526 2.622 . S
Gd2531 N2532 2.570 . S
Gd2531 O2563 2.386 . S
Gd2531 O2567 2.307 . S
Gd2531 O2570 2.353 . S
Gd2531 O2571 2.468 . S
Gd2531 O2572 2.427 . S
Gd2531 O2574 2.388 . S
Gd2531 C2595 2.805 . S
N2532 C2522 1.359 . S
N2532 Gd2531 2.570 . S
N2532 C2534 1.343 . S
C2533 C2521 1.422 . S
C2533 C2535 1.321 . S
C2533 H2541 0.931 . S
C2534 N2532 1.343 . S
C2534 C2535 1.390 . S
C2534 H2536 0.931 . S
C2535 C2533 1.321 . S
C2535 C2534 1.390 . S
C2535 H2537 0.930 . S
H2536 C2534 0.931 . S
H2537 C2535 0.930 . S
H2538 C2561 0.931 . S
H2539 C2527 0.929 . S
H2540 C2562 0.930 . S
H2541 C2533 0.931 . S
H2542 C2523 0.930 . S
H2543 C2552 0.929 1_455 S
H2544 C2528 0.931 . S
H2545 C2529 0.930 . S
H2546 C2584 0.930 . S
H2547 C2525 0.929 . S
H2548 C2553 0.931 . S
H2549 C2554 0.930 . S
N2550 Gd2530 2.622 1_655 S
N2550 C2551 1.369 . S
N2550 C2552 1.338 . S
C2551 N2550 1.369 . S
C2551 C2555 1.415 . S
C2551 C2558 1.422 . S
C2552 H2543 0.929 1_655 S
C2552 N2550 1.338 . S
C2552 C2554 1.378 . S
C2553 H2548 0.931 . S
C2553 C2554 1.348 . S
C2553 C2555 1.413 . S
C2554 H2549 0.930 . S
C2554 C2552 1.378 . S
C2554 C2553 1.348 . S
C2555 C2551 1.415 . S
C2555 C2553 1.413 . S
C2555 C2585 1.437 . S
H2556 C2585 0.929 . S
N2557 Gd2530 2.570 1_655 S
N2557 C2558 1.359 . S
N2557 C2561 1.343 . S
C2558 C2551 1.422 . S
C2558 N2557 1.359 . S
C2558 C2560 1.421 . S
C2559 C2560 1.422 . S
C2559 C2562 1.321 . S
C2559 H2586 0.931 . S
C2560 C2558 1.421 . S
C2560 C2559 1.422 . S
C2560 C2584 1.417 . S
C2561 H2538 0.931 . S
C2561 N2557 1.343 . S
C2561 C2562 1.390 . S
C2562 H2540 0.930 . S
C2562 C2559 1.321 . S
C2562 C2561 1.390 . S
O2563 Gd2531 2.386 . S
O2563 C2575 1.265 . S
O2564 Gd2530 2.353 . S
O2564 C2575 1.242 . S
O2565 Gd2530 2.468 1_655 S
O2565 C2583 1.263 . S
O2566 Gd2530 2.426 1_655 S
O2566 C2583 1.258 . S
O2567 Gd2531 2.307 . S
O2567 C2576 1.261 . S
O2568 Gd2530 2.388 . S
O2568 C2576 1.252 . S
O2569 Gd2530 2.386 1_655 S
O2569 C2587 1.265 . S
O2570 Gd2531 2.353 . S
O2570 C2587 1.242 1_455 S
O2571 Gd2531 2.468 . S
O2571 C2595 1.263 . S
O2572 Gd2531 2.427 . S
O2572 C2595 1.252 . S
O2573 Gd2530 2.307 1_655 S
O2573 C2588 1.258 1_655 S
O2574 Gd2531 2.388 . S
O2574 C2588 1.276 . S
C2575 O2563 1.265 . S
C2575 O2564 1.242 . S
C2576 O2567 1.261 . S
C2576 O2568 1.252 . S
C2577 C2580 1.394 . S
C2577 C2582 1.370 . S
C2577 C2583 1.500 . S
C2578 C2581 1.383 . S
C2578 C2582 1.395 . S
C2579 C2580 1.396 . S
C2579 C2581 1.365 . S
C2579 H2596 0.929 . S
C2580 C2577 1.394 . S
C2580 C2579 1.396 . S
C2580 H2597 0.930 . S
C2581 C2578 1.383 . S
C2581 C2579 1.365 . S
C2581 H2598 0.931 . S
C2582 C2577 1.370 . S
C2582 C2578 1.395 . S
C2582 H2599 0.930 . S
C2583 Gd2530 2.805 1_655 S
C2583 O2565 1.263 . S
C2583 O2566 1.258 . S
C2583 C2577 1.500 . S
C2584 H2546 0.930 . S
C2584 C2560 1.417 . S
C2584 C2585 1.329 . S
C2585 C2555 1.437 . S
C2585 H2556 0.929 . S
C2585 C2584 1.329 . S
H2586 C2559 0.931 . S
C2587 O2569 1.265 . S
C2587 O2570 1.242 1_655 S
C2588 O2573 1.258 1_455 S
C2588 O2574 1.276 . S
C2589 C2592 1.394 . S
C2589 C2594 1.370 . S
C2589 C2595 1.500 . S
C2590 C2593 1.383 . S
C2590 C2594 1.395 . S
C2591 C2592 1.396 . S
C2591 C2593 1.365 . S
C2591 H2600 0.929 1_545 S
C2592 C2589 1.394 . S
C2592 C2591 1.396 . S
C2592 H2601 0.930 . S
C2593 C2590 1.383 . S
C2593 C2591 1.365 . S
C2593 H2602 0.931 . S
C2594 C2589 1.370 . S
C2594 C2590 1.395 . S
C2594 H2603 0.930 . S
C2595 Gd2531 2.805 . S
C2595 O2571 1.263 . S
C2595 O2572 1.252 . S
C2595 C2589 1.500 . S
H2596 C2579 0.929 . S
H2597 C2580 0.930 . S
H2598 C2581 0.931 . S
H2599 C2582 0.930 . S
H2600 C2591 0.929 1_565 S
H2601 C2592 0.930 . S
H2602 C2593 0.931 . S
H2603 C2594 0.930 . S
C2604 C2606 1.422 . S
C2604 C2608 1.415 . S
C2604 N2610 1.369 . S
C2605 C2606 1.421 . S
C2605 C2607 1.417 . S
C2605 C2617 1.422 . S
C2606 C2604 1.422 . S
C2606 C2605 1.421 . S
C2606 N2616 1.359 . S
C2607 C2605 1.417 . S
C2607 C2609 1.329 . S
C2607 H2626 0.930 . S
C2608 C2604 1.415 . S
C2608 C2609 1.437 . S
C2608 C2612 1.413 . S
C2609 C2607 1.329 . S
C2609 C2608 1.437 . S
C2609 H2631 0.929 . S
N2610 C2604 1.369 . S
N2610 C2611 1.338 . S
N2610 Gd2615 2.622 . S
C2611 N2610 1.338 . S
C2611 C2613 1.378 . S
C2611 H2623 0.929 . S
C2612 C2608 1.413 . S
C2612 C2613 1.348 . S
C2612 H2628 0.931 . S
C2613 C2611 1.378 . S
C2613 C2612 1.348 . S
C2613 H2629 0.930 . S
Gd2614 N2634 2.622 . S
Gd2614 N2641 2.570 . S
Gd2614 O2648 2.353 . S
Gd2614 O2649 2.468 . S
Gd2614 O2650 2.427 . S
Gd2614 O2652 2.388 . S
Gd2614 O2653 2.386 . S
Gd2614 O2657 2.307 . S
Gd2614 C2667 2.805 . S
Gd2615 N2610 2.622 . S
Gd2615 N2616 2.570 . S
Gd2615 O2647 2.386 . S
Gd2615 O2651 2.307 . S
Gd2615 O2654 2.353 . S
Gd2615 O2655 2.468 . S
Gd2615 O2656 2.427 . S
Gd2615 O2658 2.388 . S
Gd2615 C2679 2.805 . S
N2616 C2606 1.359 . S
N2616 Gd2615 2.570 . S
N2616 C2618 1.343 . S
C2617 C2605 1.422 . S
C2617 C2619 1.321 . S
C2617 H2625 0.931 . S
C2618 N2616 1.343 . S
C2618 C2619 1.390 . S
C2618 H2620 0.931 . S
C2619 C2617 1.321 . S
C2619 C2618 1.390 . S
C2619 H2621 0.930 . S
H2620 C2618 0.931 . S
H2621 C2619 0.930 . S
H2622 C2645 0.931 . S
H2623 C2611 0.929 . S
H2624 C2646 0.930 . S
H2625 C2617 0.931 . S
H2626 C2607 0.930 . S
H2627 C2636 0.929 . S
H2628 C2612 0.931 . S
H2629 C2613 0.930 . S
H2630 C2668 0.930 . S
H2631 C2609 0.929 . S
H2632 C2637 0.931 . S
H2633 C2638 0.930 . S
N2634 Gd2614 2.622 . S
N2634 C2635 1.369 . S
N2634 C2636 1.338 . S
C2635 N2634 1.369 . S
C2635 C2639 1.415 . S
C2635 C2642 1.422 . S
C2636 H2627 0.929 . S
C2636 N2634 1.338 . S
C2636 C2638 1.378 . S
C2637 H2632 0.931 . S
C2637 C2638 1.348 . S
C2637 C2639 1.413 . S
C2638 H2633 0.930 . S
C2638 C2636 1.378 . S
C2638 C2637 1.348 . S
C2639 C2635 1.415 . S
C2639 C2637 1.413 . S
C2639 C2669 1.437 . S
H2640 C2669 0.929 . S
N2641 Gd2614 2.570 . S
N2641 C2642 1.359 . S
N2641 C2645 1.343 . S
C2642 C2635 1.422 . S
C2642 N2641 1.359 . S
C2642 C2644 1.421 . S
C2643 C2644 1.422 . S
C2643 C2646 1.321 . S
C2643 H2670 0.931 . S
C2644 C2642 1.421 . S
C2644 C2643 1.422 . S
C2644 C2668 1.417 . S
C2645 H2622 0.931 . S
C2645 N2641 1.343 . S
C2645 C2646 1.390 . S
C2646 H2624 0.930 . S
C2646 C2643 1.321 . S
C2646 C2645 1.390 . S
O2647 Gd2615 2.386 . S
O2647 C2659 1.265 . S
O2648 Gd2614 2.353 . S
O2648 C2659 1.242 . S
O2649 Gd2614 2.468 . S
O2649 C2667 1.263 . S
O2650 Gd2614 2.427 . S
O2650 C2667 1.252 . S
O2651 Gd2615 2.307 . S
O2651 C2660 1.261 . S
O2652 Gd2614 2.388 . S
O2652 C2660 1.252 . S
O2653 Gd2614 2.386 . S
O2653 C2671 1.265 . S
O2654 Gd2615 2.353 . S
O2654 C2671 1.242 . S
O2655 Gd2615 2.468 . S
O2655 C2679 1.263 . S
O2656 Gd2615 2.427 . S
O2656 C2679 1.252 . S
O2657 Gd2614 2.307 . S
O2657 C2672 1.261 . S
O2658 Gd2615 2.388 . S
O2658 C2672 1.252 . S
C2659 O2647 1.265 . S
C2659 O2648 1.242 . S
C2660 O2651 1.261 . S
C2660 O2652 1.252 . S
C2661 C2664 1.394 . S
C2661 C2666 1.370 . S
C2661 C2667 1.500 . S
C2662 C2665 1.383 . S
C2662 C2666 1.395 . S
C2663 C2664 1.396 . S
C2663 C2665 1.365 . S
C2663 H2680 0.929 . S
C2664 C2661 1.394 . S
C2664 C2663 1.396 . S
C2664 H2681 0.930 . S
C2665 C2662 1.383 . S
C2665 C2663 1.365 . S
C2665 H2682 0.931 . S
C2666 C2661 1.370 . S
C2666 C2662 1.395 . S
C2666 H2683 0.930 . S
C2667 Gd2614 2.805 . S
C2667 O2649 1.263 . S
C2667 O2650 1.252 . S
C2667 C2661 1.500 . S
C2668 H2630 0.930 . S
C2668 C2644 1.417 . S
C2668 C2669 1.329 . S
C2669 C2639 1.437 . S
C2669 H2640 0.929 . S
C2669 C2668 1.329 . S
H2670 C2643 0.931 . S
C2671 O2653 1.265 . S
C2671 O2654 1.242 . S
C2672 O2657 1.261 . S
C2672 O2658 1.252 . S
C2673 C2676 1.394 . S
C2673 C2678 1.370 . S
C2673 C2679 1.500 . S
C2674 C2677 1.383 . S
C2674 C2678 1.395 . S
C2675 C2676 1.396 . S
C2675 C2677 1.365 . S
C2675 H2684 0.929 . S
C2676 C2673 1.394 . S
C2676 C2675 1.396 . S
C2676 H2685 0.930 . S
C2677 C2674 1.383 . S
C2677 C2675 1.365 . S
C2677 H2686 0.931 . S
C2678 C2673 1.370 . S
C2678 C2674 1.395 . S
C2678 H2687 0.930 . S
C2679 Gd2615 2.805 . S
C2679 O2655 1.263 . S
C2679 O2656 1.252 . S
C2679 C2673 1.500 . S
H2680 C2663 0.929 . S
H2681 C2664 0.930 . S
H2682 C2665 0.931 . S
H2683 C2666 0.930 . S
H2684 C2675 0.929 . S
H2685 C2676 0.930 . S
H2686 C2677 0.931 . S
H2687 C2678 0.930 . S
H2688 C2694 0.930 . S
H2689 C2697 0.930 . S
H2690 C2698 0.930 . S
H2691 C2699 0.930 . S
H2692 C2702 0.930 . S
H2693 C2703 0.930 . S
C2694 H2688 0.930 . S
C2694 C2695 1.355 . S
C2694 C2696 1.415 . S
C2695 C2694 1.355 . S
C2695 C2697 1.419 . S
C2696 C2694 1.415 . S
C2696 C2701 1.425 . S
C2696 C2703 1.409 . S
C2697 H2689 0.930 . S
C2697 C2695 1.419 . S
C2697 C2698 1.362 . S
C2698 H2690 0.930 . S
C2698 C2697 1.362 . S
C2698 C2701 1.409 . S
C2699 H2691 0.930 . S
C2699 C2700 1.355 . S
C2699 C2701 1.415 . S
C2700 C2699 1.355 . S
C2700 C2702 1.419 . S
C2701 C2696 1.425 . S
C2701 C2698 1.409 . S
C2701 C2699 1.415 . S
C2702 H2692 0.930 . S
C2702 C2700 1.419 . S
C2702 C2703 1.362 . S
C2703 H2693 0.930 . S
C2703 C2696 1.409 . S
C2703 C2702 1.362 . S
H2704 C2710 0.930 . S
H2705 C2713 0.930 . S
H2706 C2714 0.930 . S
H2707 C2715 0.930 . S
H2708 C2718 0.930 . S
H2709 C2719 0.930 . S
C2710 H2704 0.930 . S
C2710 C2711 1.355 . S
C2710 C2712 1.415 . S
C2711 C2710 1.355 . S
C2711 C2713 1.419 . S
C2712 C2710 1.415 . S
C2712 C2717 1.425 . S
C2712 C2719 1.409 . S
C2713 H2705 0.930 . S
C2713 C2711 1.419 . S
C2713 C2714 1.362 . S
C2714 H2706 0.930 . S
C2714 C2713 1.362 . S
C2714 C2717 1.409 . S
C2715 H2707 0.930 . S
C2715 C2716 1.355 . S
C2715 C2717 1.415 . S
C2716 C2715 1.355 . S
C2716 C2718 1.419 . S
C2717 C2712 1.425 . S
C2717 C2714 1.409 . S
C2717 C2715 1.415 . S
C2718 H2708 0.930 . S
C2718 C2716 1.419 . S
C2718 C2719 1.362 . S
C2719 H2709 0.930 . S
C2719 C2712 1.409 . S
C2719 C2718 1.362 . S
H2720 C2726 0.930 . S
H2721 C2729 0.930 . S
H2722 C2730 0.930 . S
H2723 C2731 0.930 . S
H2724 C2734 0.930 . S
H2725 C2735 0.930 . S
C2726 H2720 0.930 . S
C2726 C2727 1.355 . S
C2726 C2728 1.415 . S
C2727 C2726 1.355 . S
C2727 C2729 1.419 . S
C2728 C2726 1.415 . S
C2728 C2733 1.425 . S
C2728 C2735 1.409 . S
C2729 H2721 0.930 . S
C2729 C2727 1.419 . S
C2729 C2730 1.362 . S
C2730 H2722 0.930 . S
C2730 C2729 1.362 . S
C2730 C2733 1.409 . S
C2731 H2723 0.930 . S
C2731 C2732 1.355 . S
C2731 C2733 1.415 . S
C2732 C2731 1.355 . S
C2732 C2734 1.419 . S
C2733 C2728 1.425 . S
C2733 C2730 1.409 . S
C2733 C2731 1.415 . S
C2734 H2724 0.930 . S
C2734 C2732 1.419 . S
C2734 C2735 1.362 . S
C2735 H2725 0.930 . S
C2735 C2728 1.409 . S
C2735 C2734 1.362 . S
H2736 C2742 0.930 . S
H2737 C2745 0.930 . S
H2738 C2746 0.930 . S
H2739 C2747 0.930 . S
H2740 C2750 0.930 . S
H2741 C2751 0.930 . S
C2742 H2736 0.930 . S
C2742 C2743 1.355 . S
C2742 C2744 1.415 1_554 S
C2743 C2742 1.355 . S
C2743 C2745 1.419 . S
C2744 C2742 1.415 1_556 S
C2744 C2749 1.425 . S
C2744 C2751 1.409 . S
C2745 H2737 0.930 . S
C2745 C2743 1.419 . S
C2745 C2746 1.362 . S
C2746 H2738 0.930 . S
C2746 C2745 1.362 . S
C2746 C2749 1.409 1_554 S
C2747 H2739 0.930 . S
C2747 C2748 1.355 . S
C2747 C2749 1.415 . S
C2748 C2747 1.355 . S
C2748 C2750 1.419 . S
C2749 C2744 1.425 . S
C2749 C2746 1.409 1_556 S
C2749 C2747 1.415 . S
C2750 H2740 0.930 . S
C2750 C2748 1.419 . S
C2750 C2751 1.362 . S
C2751 H2741 0.930 . S
C2751 C2744 1.409 . S
C2751 C2750 1.362 . S
H2752 C2758 0.930 . S
H2753 C2761 0.930 . S
H2754 C2762 0.930 . S
H2755 C2763 0.930 . S
H2756 C2766 0.930 . S
H2757 C2767 0.930 . S
C2758 H2752 0.930 . S
C2758 C2759 1.355 . S
C2758 C2760 1.415 . S
C2759 C2758 1.355 . S
C2759 C2761 1.419 . S
C2760 C2758 1.415 . S
C2760 C2765 1.425 . S
C2760 C2767 1.409 . S
C2761 H2753 0.930 . S
C2761 C2759 1.419 . S
C2761 C2762 1.362 . S
C2762 H2754 0.930 . S
C2762 C2761 1.362 . S
C2762 C2765 1.409 . S
C2763 H2755 0.930 . S
C2763 C2764 1.355 . S
C2763 C2765 1.415 . S
C2764 C2763 1.355 . S
C2764 C2766 1.419 . S
C2765 C2760 1.425 . S
C2765 C2762 1.409 . S
C2765 C2763 1.415 . S
C2766 H2756 0.930 . S
C2766 C2764 1.419 . S
C2766 C2767 1.362 . S
C2767 H2757 0.930 . S
C2767 C2760 1.409 . S
C2767 C2766 1.362 . S
H2768 C2774 0.930 . S
H2769 C2777 0.930 . S
H2770 C2778 0.930 . S
H2771 C2779 0.930 . S
H2772 C2782 0.930 . S
H2773 C2783 0.930 . S
C2774 H2768 0.930 . S
C2774 C2775 1.355 . S
C2774 C2776 1.415 . S
C2775 C2774 1.355 . S
C2775 C2777 1.419 . S
C2776 C2774 1.415 . S
C2776 C2781 1.425 . S
C2776 C2783 1.409 . S
C2777 H2769 0.930 . S
C2777 C2775 1.419 . S
C2777 C2778 1.362 . S
C2778 H2770 0.930 . S
C2778 C2777 1.362 . S
C2778 C2781 1.409 . S
C2779 H2771 0.930 . S
C2779 C2780 1.355 . S
C2779 C2781 1.415 . S
C2780 C2779 1.355 . S
C2780 C2782 1.419 . S
C2781 C2776 1.425 . S
C2781 C2778 1.409 . S
C2781 C2779 1.415 . S
C2782 H2772 0.930 . S
C2782 C2780 1.419 . S
C2782 C2783 1.362 . S
C2783 H2773 0.930 . S
C2783 C2776 1.409 . S
C2783 C2782 1.362 . S
H2784 C2790 0.930 . S
H2785 C2793 0.930 . S
H2786 C2794 0.930 . S
H2787 C2795 0.930 . S
H2788 C2798 0.930 . S
H2789 C2799 0.930 . S
C2790 H2784 0.930 . S
C2790 C2791 1.355 . S
C2790 C2792 1.415 . S
C2791 C2790 1.355 . S
C2791 C2793 1.419 . S
C2792 C2790 1.415 . S
C2792 C2797 1.425 . S
C2792 C2799 1.409 . S
C2793 H2785 0.930 . S
C2793 C2791 1.419 . S
C2793 C2794 1.362 . S
C2794 H2786 0.930 . S
C2794 C2793 1.362 . S
C2794 C2797 1.409 . S
C2795 H2787 0.930 . S
C2795 C2796 1.355 . S
C2795 C2797 1.415 . S
C2796 C2795 1.355 . S
C2796 C2798 1.419 . S
C2797 C2792 1.425 . S
C2797 C2794 1.409 . S
C2797 C2795 1.415 . S
C2798 H2788 0.930 . S
C2798 C2796 1.419 . S
C2798 C2799 1.362 . S
C2799 H2789 0.930 . S
C2799 C2792 1.409 . S
C2799 C2798 1.362 . S
H2800 C2806 0.930 . S
H2801 C2809 0.930 . S
H2802 C2810 0.930 . S
H2803 C2811 0.930 . S
H2804 C2814 0.930 . S
H2805 C2815 0.930 . S
C2806 H2800 0.930 . S
C2806 C2807 1.355 . S
C2806 C2808 1.415 . S
C2807 C2806 1.355 . S
C2807 C2809 1.419 . S
C2808 C2806 1.415 . S
C2808 C2813 1.425 . S
C2808 C2815 1.409 . S
C2809 H2801 0.930 . S
C2809 C2807 1.419 . S
C2809 C2810 1.362 . S
C2810 H2802 0.930 . S
C2810 C2809 1.362 . S
C2810 C2813 1.409 . S
C2811 H2803 0.930 . S
C2811 C2812 1.355 . S
C2811 C2813 1.415 . S
C2812 C2811 1.355 . S
C2812 C2814 1.419 . S
C2813 C2808 1.425 . S
C2813 C2810 1.409 . S
C2813 C2811 1.415 . S
C2814 H2804 0.930 . S
C2814 C2812 1.419 . S
C2814 C2815 1.362 . S
C2815 H2805 0.930 . S
C2815 C2808 1.409 . S
C2815 C2814 1.362 . S
H2816 C2822 0.930 . S
H2817 C2825 0.930 . S
H2818 C2826 0.930 . S
H2819 C2827 0.930 . S
H2820 C2830 0.930 . S
H2821 C2831 0.930 . S
C2822 H2816 0.930 . S
C2822 C2823 1.355 . S
C2822 C2824 1.415 . S
C2823 C2822 1.355 . S
C2823 C2825 1.419 . S
C2824 C2822 1.415 . S
C2824 C2829 1.425 . S
C2824 C2831 1.409 . S
C2825 H2817 0.930 . S
C2825 C2823 1.419 . S
C2825 C2826 1.362 1_545 S
C2826 H2818 0.930 . S
C2826 C2825 1.362 1_565 S
C2826 C2829 1.409 1_565 S
C2827 H2819 0.930 . S
C2827 C2828 1.355 . S
C2827 C2829 1.415 1_565 S
C2828 C2827 1.355 . S
C2828 C2830 1.419 1_565 S
C2829 C2824 1.425 . S
C2829 C2826 1.409 1_545 S
C2829 C2827 1.415 1_545 S
C2830 H2820 0.930 . S
C2830 C2828 1.419 1_545 S
C2830 C2831 1.362 . S
C2831 H2821 0.930 . S
C2831 C2824 1.409 . S
C2831 C2830 1.362 . S
H2832 C2838 0.930 . S
H2833 C2841 0.930 . S
H2834 C2842 0.930 . S
H2835 C2843 0.930 . S
H2836 C2846 0.930 . S
H2837 C2847 0.930 . S
C2838 H2832 0.930 . S
C2838 C2839 1.355 . S
C2838 C2840 1.415 . S
C2839 C2838 1.355 . S
C2839 C2841 1.419 . S
C2840 C2838 1.415 . S
C2840 C2845 1.425 . S
C2840 C2847 1.409 . S
C2841 H2833 0.930 . S
C2841 C2839 1.419 . S
C2841 C2842 1.362 . S
C2842 H2834 0.930 . S
C2842 C2841 1.362 . S
C2842 C2845 1.409 . S
C2843 H2835 0.930 . S
C2843 C2844 1.355 . S
C2843 C2845 1.415 . S
C2844 C2843 1.355 . S
C2844 C2846 1.419 . S
C2845 C2840 1.425 . S
C2845 C2842 1.409 . S
C2845 C2843 1.415 . S
C2846 H2836 0.930 . S
C2846 C2844 1.419 . S
C2846 C2847 1.362 . S
C2847 H2837 0.930 . S
C2847 C2840 1.409 . S
C2847 C2846 1.362 . S
H2848 C2854 0.930 . S
H2849 C2857 0.930 . S
H2850 C2858 0.930 1_545 S
H2851 C2859 0.930 . S
H2852 C2862 0.930 . S
H2853 C2863 0.930 . S
C2854 H2848 0.930 . S
C2854 C2855 1.328 1_565 S
C2854 C2856 1.415 . S
C2855 C2854 1.328 1_545 S
C2855 C2857 1.436 . S
C2856 C2854 1.415 . S
C2856 C2861 1.425 . S
C2856 C2863 1.409 . S
C2857 H2849 0.930 . S
C2857 C2855 1.436 . S
C2857 C2858 1.362 1_545 S
C2858 H2850 0.930 1_565 S
C2858 C2857 1.362 1_565 S
C2858 C2861 1.409 . S
C2859 H2851 0.930 . S
C2859 C2860 1.355 . S
C2859 C2861 1.415 . S
C2860 C2859 1.355 . S
C2860 C2862 1.419 . S
C2861 C2856 1.425 . S
C2861 C2858 1.409 . S
C2861 C2859 1.415 . S
C2862 H2852 0.930 . S
C2862 C2860 1.419 . S
C2862 C2863 1.362 . S
C2863 H2853 0.930 . S
C2863 C2856 1.409 . S
C2863 C2862 1.362 . S
H2864 C2870 0.930 . S
H2865 C2873 0.930 . S
H2866 C2874 0.930 . S
H2867 C2875 0.930 . S
H2868 C2878 0.930 . S
H2869 C2879 0.930 . S
C2870 H2864 0.930 . S
C2870 C2871 1.355 . S
C2870 C2872 1.415 . S
C2871 C2870 1.355 . S
C2871 C2873 1.419 . S
C2872 C2870 1.415 . S
C2872 C2877 1.425 . S
C2872 C2879 1.409 . S
C2873 H2865 0.930 . S
C2873 C2871 1.419 . S
C2873 C2874 1.362 . S
C2874 H2866 0.930 . S
C2874 C2873 1.362 . S
C2874 C2877 1.409 . S
C2875 H2867 0.930 . S
C2875 C2876 1.355 . S
C2875 C2877 1.415 . S
C2876 C2875 1.355 . S
C2876 C2878 1.419 . S
C2877 C2872 1.425 . S
C2877 C2874 1.409 . S
C2877 C2875 1.415 . S
C2878 H2868 0.930 . S
C2878 C2876 1.419 . S
C2878 C2879 1.362 . S
C2879 H2869 0.930 . S
C2879 C2872 1.409 . S
C2879 C2878 1.362 . S
H2880 C2886 0.930 . S
H2881 C2889 0.930 . S
H2882 C2890 0.930 . S
H2883 C2891 0.930 . S
H2884 C2894 0.930 . S
H2885 C2895 0.930 . S
C2886 H2880 0.930 . S
C2886 C2887 1.355 1_565 S
C2886 C2888 1.415 . S
C2887 C2886 1.355 1_545 S
C2887 C2889 1.419 . S
C2888 C2886 1.415 . S
C2888 C2893 1.425 . S
C2888 C2895 1.409 . S
C2889 H2881 0.930 . S
C2889 C2887 1.419 . S
C2889 C2890 1.362 . S
C2890 H2882 0.930 . S
C2890 C2889 1.362 . S
C2890 C2893 1.409 1_545 S
C2891 H2883 0.930 . S
C2891 C2892 1.355 . S
C2891 C2893 1.415 . S
C2892 C2891 1.355 . S
C2892 C2894 1.419 . S
C2893 C2888 1.425 . S
C2893 C2890 1.409 1_565 S
C2893 C2891 1.415 . S
C2894 H2884 0.930 . S
C2894 C2892 1.419 . S
C2894 C2895 1.362 . S
C2895 H2885 0.930 . S
C2895 C2888 1.409 . S
C2895 C2894 1.362 . S
H2896 C2902 0.930 . S
H2897 C2905 0.930 . S
H2898 C2906 0.930 . S
H2899 C2907 0.930 . S
H2900 C2910 0.930 . S
H2901 C2911 0.930 . S
C2902 H2896 0.930 . S
C2902 C2903 1.355 . S
C2902 C2904 1.415 . S
C2903 C2902 1.355 . S
C2903 C2905 1.419 . S
C2904 C2902 1.415 . S
C2904 C2909 1.425 1_556 S
C2904 C2911 1.409 . S
C2905 H2897 0.930 . S
C2905 C2903 1.419 . S
C2905 C2906 1.362 1_556 S
C2906 H2898 0.930 . S
C2906 C2905 1.362 1_554 S
C2906 C2909 1.409 . S
C2907 H2899 0.930 . S
C2907 C2908 1.355 . S
C2907 C2909 1.415 . S
C2908 C2907 1.355 . S
C2908 C2910 1.419 . S
C2909 C2904 1.425 1_554 S
C2909 C2906 1.409 . S
C2909 C2907 1.415 . S
C2910 H2900 0.930 . S
C2910 C2908 1.419 . S
C2910 C2911 1.362 1_554 S
C2911 H2901 0.930 . S
C2911 C2904 1.409 . S
C2911 C2910 1.362 1_556 S
H2912 C2918 0.930 . S
H2913 C2921 0.930 1_565 S
H2914 C2922 0.930 . S
H2915 C2923 0.930 . S
H2916 C2926 0.930 . S
H2917 C2927 0.930 . S
C2918 H2912 0.930 . S
C2918 C2919 1.355 . S
C2918 C2920 1.415 1_554 S
C2919 C2918 1.355 . S
C2919 C2921 1.419 . S
C2920 C2918 1.415 1_556 S
C2920 C2925 1.425 . S
C2920 C2927 1.409 . S
C2921 H2913 0.930 1_545 S
C2921 C2919 1.419 . S
C2921 C2922 1.362 1_554 S
C2922 H2914 0.930 . S
C2922 C2921 1.362 1_556 S
C2922 C2925 1.409 . S
C2923 H2915 0.930 . S
C2923 C2924 1.355 . S
C2923 C2925 1.415 . S
C2924 C2923 1.355 . S
C2924 C2926 1.419 . S
C2925 C2920 1.425 . S
C2925 C2922 1.409 . S
C2925 C2923 1.415 . S
C2926 H2916 0.930 . S
C2926 C2924 1.419 . S
C2926 C2927 1.362 . S
C2927 H2917 0.930 . S
C2927 C2920 1.409 . S
C2927 C2926 1.362 . S
H2928 C2934 0.930 . S
H2929 C2937 0.930 . S
H2930 C2938 0.930 . S
H2931 C2939 0.930 . S
H2932 C2942 0.930 . S
H2933 C2943 0.930 . S
C2934 H2928 0.930 . S
C2934 C2935 1.355 . S
C2934 C2936 1.415 . S
C2935 C2934 1.355 . S
C2935 C2937 1.419 . S
C2936 C2934 1.415 . S
C2936 C2941 1.425 . S
C2936 C2943 1.409 . S
C2937 H2929 0.930 . S
C2937 C2935 1.419 . S
C2937 C2938 1.362 . S
C2938 H2930 0.930 . S
C2938 C2937 1.362 . S
C2938 C2941 1.409 . S
C2939 H2931 0.930 . S
C2939 C2940 1.355 . S
C2939 C2941 1.415 . S
C2940 C2939 1.355 . S
C2940 C2942 1.419 . S
C2941 C2936 1.425 . S
C2941 C2938 1.409 . S
C2941 C2939 1.415 . S
C2942 H2932 0.930 . S
C2942 C2940 1.419 . S
C2942 C2943 1.362 . S
C2943 H2933 0.930 . S
C2943 C2936 1.409 . S
C2943 C2942 1.362 . S
H2944 C2950 0.930 . S
H2945 C2953 0.930 . S
H2946 C2954 0.930 . S
H2947 C2955 0.930 . S
H2948 C2958 0.930 . S
H2949 C2959 0.930 . S
C2950 H2944 0.930 . S
C2950 C2951 1.355 . S
C2950 C2952 1.415 . S
C2951 C2950 1.355 . S
C2951 C2953 1.419 . S
C2952 C2950 1.415 . S
C2952 C2957 1.425 . S
C2952 C2959 1.409 . S
C2953 H2945 0.930 . S
C2953 C2951 1.419 . S
C2953 C2954 1.362 . S
C2954 H2946 0.930 . S
C2954 C2953 1.362 . S
C2954 C2957 1.409 . S
C2955 H2947 0.930 . S
C2955 C2956 1.355 . S
C2955 C2957 1.415 . S
C2956 C2955 1.355 . S
C2956 C2958 1.419 . S
C2957 C2952 1.425 . S
C2957 C2954 1.409 . S
C2957 C2955 1.415 . S
C2958 H2948 0.930 . S
C2958 C2956 1.419 . S
C2958 C2959 1.362 . S
C2959 H2949 0.930 . S
C2959 C2952 1.409 . S
C2959 C2958 1.362 . S
H2960 C2966 0.930 . S
H2961 C2969 0.930 . S
H2962 C2970 0.930 . S
H2963 C2971 0.930 . S
H2964 C2974 0.930 . S
H2965 C2975 0.930 . S
C2966 H2960 0.930 . S
C2966 C2967 1.355 . S
C2966 C2968 1.415 . S
C2967 C2966 1.355 . S
C2967 C2969 1.419 . S
C2968 C2966 1.415 . S
C2968 C2973 1.425 . S
C2968 C2975 1.409 . S
C2969 H2961 0.930 . S
C2969 C2967 1.419 . S
C2969 C2970 1.362 . S
C2970 H2962 0.930 . S
C2970 C2969 1.362 . S
C2970 C2973 1.409 . S
C2971 H2963 0.930 . S
C2971 C2972 1.355 . S
C2971 C2973 1.415 . S
C2972 C2971 1.355 . S
C2972 C2974 1.419 . S
C2973 C2968 1.425 . S
C2973 C2970 1.409 . S
C2973 C2971 1.415 . S
C2974 H2964 0.930 . S
C2974 C2972 1.419 . S
C2974 C2975 1.362 . S
C2975 H2965 0.930 . S
C2975 C2968 1.409 . S
C2975 C2974 1.362 . S
H2976 C2982 0.930 . S
H2977 C2985 0.930 . S
H2978 C2986 0.930 . S
H2979 C2987 0.930 . S
H2980 C2990 0.930 . S
H2981 C2991 0.930 . S
C2982 H2976 0.930 . S
C2982 C2983 1.355 . S
C2982 C2984 1.415 . S
C2983 C2982 1.355 . S
C2983 C2985 1.419 . S
C2984 C2982 1.415 . S
C2984 C2989 1.425 . S
C2984 C2991 1.409 . S
C2985 H2977 0.930 . S
C2985 C2983 1.419 . S
C2985 C2986 1.362 . S
C2986 H2978 0.930 . S
C2986 C2985 1.362 . S
C2986 C2989 1.409 . S
C2987 H2979 0.930 . S
C2987 C2988 1.355 . S
C2987 C2989 1.415 . S
C2988 C2987 1.355 . S
C2988 C2990 1.419 . S
C2989 C2984 1.425 . S
C2989 C2986 1.409 . S
C2989 C2987 1.415 . S
C2990 H2980 0.930 . S
C2990 C2988 1.419 . S
C2990 C2991 1.362 . S
C2991 H2981 0.930 . S
C2991 C2984 1.409 . S
C2991 C2990 1.362 . S
H2992 C2998 0.930 . S
H2993 C3001 0.930 . S
H2994 C3002 0.930 . S
H2995 C3003 0.930 1_556 S
H2996 C3006 0.930 . S
H2997 C3007 0.930 . S
C2998 H2992 0.930 . S
C2998 C2999 1.355 . S
C2998 C3000 1.415 . S
C2999 C2998 1.355 . S
C2999 C3001 1.419 . S
C3000 C2998 1.415 . S
C3000 C3005 1.425 . S
C3000 C3007 1.409 1_556 S
C3001 H2993 0.930 . S
C3001 C2999 1.419 . S
C3001 C3002 1.362 . S
C3002 H2994 0.930 . S
C3002 C3001 1.362 . S
C3002 C3005 1.409 . S
C3003 H2995 0.930 1_554 S
C3003 C3004 1.355 . S
C3003 C3005 1.415 1_554 S
C3004 C3003 1.355 . S
C3004 C3006 1.419 . S
C3005 C3000 1.425 . S
C3005 C3002 1.409 . S
C3005 C3003 1.415 1_556 S
C3006 H2996 0.930 . S
C3006 C3004 1.419 . S
C3006 C3007 1.362 . S
C3007 H2997 0.930 . S
C3007 C3000 1.409 1_554 S
C3007 C3006 1.362 . S
H3008 C3014 0.930 . S
H3009 C3017 0.930 . S
H3010 C3018 0.930 . S
H3011 C3019 0.930 . S
H3012 C3022 0.930 . S
H3013 C3023 0.930 . S
C3014 H3008 0.930 . S
C3014 C3015 1.355 . S
C3014 C3016 1.415 . S
C3015 C3014 1.355 . S
C3015 C3017 1.419 . S
C3016 C3014 1.415 . S
C3016 C3021 1.425 . S
C3016 C3023 1.409 . S
C3017 H3009 0.930 . S
C3017 C3015 1.419 . S
C3017 C3018 1.362 . S
C3018 H3010 0.930 . S
C3018 C3017 1.362 . S
C3018 C3021 1.409 . S
C3019 H3011 0.930 . S
C3019 C3020 1.355 . S
C3019 C3021 1.415 . S
C3020 C3019 1.355 . S
C3020 C3022 1.419 . S
C3021 C3016 1.425 . S
C3021 C3018 1.409 . S
C3021 C3019 1.415 . S
C3022 H3012 0.930 . S
C3022 C3020 1.419 . S
C3022 C3023 1.362 . S
C3023 H3013 0.930 . S
C3023 C3016 1.409 . S
C3023 C3022 1.362 . S
H3024 C3030 0.930 . S
H3025 C3033 0.930 . S
H3026 C3034 0.930 . S
H3027 C3035 0.930 . S
H3028 C3038 0.930 . S
H3029 C3039 0.930 . S
C3030 H3024 0.930 . S
C3030 C3031 1.355 . S
C3030 C3032 1.415 . S
C3031 C3030 1.355 . S
C3031 C3033 1.419 . S
C3032 C3030 1.415 . S
C3032 C3037 1.425 . S
C3032 C3039 1.409 . S
C3033 H3025 0.930 . S
C3033 C3031 1.419 . S
C3033 C3034 1.362 . S
C3034 H3026 0.930 . S
C3034 C3033 1.362 . S
C3034 C3037 1.409 . S
C3035 H3027 0.930 . S
C3035 C3036 1.355 . S
C3035 C3037 1.415 . S
C3036 C3035 1.355 . S
C3036 C3038 1.419 . S
C3037 C3032 1.425 . S
C3037 C3034 1.409 . S
C3037 C3035 1.415 . S
C3038 H3028 0.930 . S
C3038 C3036 1.419 . S
C3038 C3039 1.362 . S
C3039 H3029 0.930 . S
C3039 C3032 1.409 . S
C3039 C3038 1.362 . S
H3040 C3046 0.930 . S
H3041 C3049 0.930 . S
H3042 C3050 0.930 . S
H3043 C3051 0.930 . S
H3044 C3054 0.930 . S
H3045 C3055 0.930 1_554 S
C3046 H3040 0.930 . S
C3046 C3047 1.355 . S
C3046 C3048 1.398 1_554 S
C3047 C3046 1.355 . S
C3047 C3049 1.419 . S
C3048 C3046 1.398 1_556 S
C3048 C3053 1.439 . S
C3048 C3055 1.413 . S
C3049 H3041 0.930 . S
C3049 C3047 1.419 . S
C3049 C3050 1.362 1_554 S
C3050 H3042 0.930 . S
C3050 C3049 1.362 1_556 S
C3050 C3053 1.409 . S
C3051 H3043 0.930 . S
C3051 C3052 1.355 . S
C3051 C3053 1.415 . S
C3052 C3051 1.355 . S
C3052 C3054 1.419 . S
C3053 C3048 1.439 . S
C3053 C3050 1.409 . S
C3053 C3051 1.415 . S
C3054 H3044 0.930 . S
C3054 C3052 1.419 . S
C3054 C3055 1.362 . S
C3055 H3045 0.930 1_556 S
C3055 C3048 1.413 . S
C3055 C3054 1.362 . S
H3056 C3062 0.930 . S
H3057 C3065 0.930 . S
H3058 C3066 0.930 . S
H3059 C3067 0.930 . S
H3060 C3070 0.930 . S
H3061 C3071 0.930 . S
C3062 H3056 0.930 . S
C3062 C3063 1.355 . S
C3062 C3064 1.415 . S
C3063 C3062 1.355 . S
C3063 C3065 1.419 . S
C3064 C3062 1.415 . S
C3064 C3069 1.425 . S
C3064 C3071 1.409 . S
C3065 H3057 0.930 . S
C3065 C3063 1.419 . S
C3065 C3066 1.362 . S
C3066 H3058 0.930 . S
C3066 C3065 1.362 . S
C3066 C3069 1.409 . S
C3067 H3059 0.930 . S
C3067 C3068 1.355 . S
C3067 C3069 1.415 . S
C3068 C3067 1.355 . S
C3068 C3070 1.419 . S
C3069 C3064 1.425 . S
C3069 C3066 1.409 . S
C3069 C3067 1.415 . S
C3070 H3060 0.930 . S
C3070 C3068 1.419 . S
C3070 C3071 1.362 . S
C3071 H3061 0.930 . S
C3071 C3064 1.409 . S
C3071 C3070 1.362 . S
H3072 C3078 0.930 . S
H3073 C3081 0.930 . S
H3074 C3082 0.930 . S
H3075 C3083 0.930 . S
H3076 C3086 0.930 . S
H3077 C3087 0.930 . S
C3078 H3072 0.930 . S
C3078 C3079 1.355 . S
C3078 C3080 1.415 1_554 S
C3079 C3078 1.355 . S
C3079 C3081 1.419 . S
C3080 C3078 1.415 1_556 S
C3080 C3085 1.425 1_556 S
C3080 C3087 1.409 . S
C3081 H3073 0.930 . S
C3081 C3079 1.419 . S
C3081 C3082 1.362 . S
C3082 H3074 0.930 . S
C3082 C3081 1.362 . S
C3082 C3085 1.409 . S
C3083 H3075 0.930 . S
C3083 C3084 1.355 . S
C3083 C3085 1.415 1_556 S
C3084 C3083 1.355 . S
C3084 C3086 1.419 . S
C3085 C3080 1.425 1_554 S
C3085 C3082 1.409 . S
C3085 C3083 1.415 1_554 S
C3086 H3076 0.930 . S
C3086 C3084 1.419 . S
C3086 C3087 1.362 . S
C3087 H3077 0.930 . S
C3087 C3080 1.409 . S
C3087 C3086 1.362 . S
H3088 C3094 0.930 . S
H3089 C3097 0.930 . S
H3090 C3098 0.930 . S
H3091 C3099 0.930 . S
H3092 C3102 0.930 . S
H3093 C3103 0.930 . S
C3094 H3088 0.930 . S
C3094 C3095 1.355 . S
C3094 C3096 1.415 . S
C3095 C3094 1.355 . S
C3095 C3097 1.419 . S
C3096 C3094 1.415 . S
C3096 C3101 1.425 . S
C3096 C3103 1.409 . S
C3097 H3089 0.930 . S
C3097 C3095 1.419 . S
C3097 C3098 1.362 . S
C3098 H3090 0.930 . S
C3098 C3097 1.362 . S
C3098 C3101 1.409 . S
C3099 H3091 0.930 . S
C3099 C3100 1.355 . S
C3099 C3101 1.415 . S
C3100 C3099 1.355 . S
C3100 C3102 1.419 . S
C3101 C3096 1.425 . S
C3101 C3098 1.409 . S
C3101 C3099 1.415 . S
C3102 H3092 0.930 . S
C3102 C3100 1.419 . S
C3102 C3103 1.362 . S
C3103 H3093 0.930 . S
C3103 C3096 1.409 . S
C3103 C3102 1.362 . S
H3104 C3110 0.930 . S
H3105 C3113 0.930 . S
H3106 C3114 0.930 . S
H3107 C3115 0.930 . S
H3108 C3118 0.930 . S
H3109 C3119 0.930 . S
C3110 H3104 0.930 . S
C3110 C3111 1.355 . S
C3110 C3112 1.415 . S
C3111 C3110 1.355 . S
C3111 C3113 1.419 . S
C3112 C3110 1.415 . S
C3112 C3117 1.425 . S
C3112 C3119 1.409 . S
C3113 H3105 0.930 . S
C3113 C3111 1.419 . S
C3113 C3114 1.362 . S
C3114 H3106 0.930 . S
C3114 C3113 1.362 . S
C3114 C3117 1.409 . S
C3115 H3107 0.930 . S
C3115 C3116 1.355 . S
C3115 C3117 1.415 . S
C3116 C3115 1.355 . S
C3116 C3118 1.419 . S
C3117 C3112 1.425 . S
C3117 C3114 1.409 . S
C3117 C3115 1.415 . S
C3118 H3108 0.930 . S
C3118 C3116 1.419 . S
C3118 C3119 1.362 . S
C3119 H3109 0.930 . S
C3119 C3112 1.409 . S
C3119 C3118 1.362 . S
H3120 C3126 0.930 . S
H3121 C3129 0.930 . S
H3122 C3130 0.930 . S
H3123 C3131 0.930 . S
H3124 C3134 0.930 . S
H3125 C3135 0.930 . S
C3126 H3120 0.930 . S
C3126 C3127 1.355 . S
C3126 C3128 1.415 . S
C3127 C3126 1.355 . S
C3127 C3129 1.419 . S
C3128 C3126 1.415 . S
C3128 C3133 1.425 . S
C3128 C3135 1.409 . S
C3129 H3121 0.930 . S
C3129 C3127 1.419 . S
C3129 C3130 1.362 . S
C3130 H3122 0.930 . S
C3130 C3129 1.362 . S
C3130 C3133 1.409 . S
C3131 H3123 0.930 . S
C3131 C3132 1.355 . S
C3131 C3133 1.415 . S
C3132 C3131 1.355 . S
C3132 C3134 1.419 . S
C3133 C3128 1.425 . S
C3133 C3130 1.409 . S
C3133 C3131 1.415 . S
C3134 H3124 0.930 . S
C3134 C3132 1.419 . S
C3134 C3135 1.362 . S
C3135 H3125 0.930 . S
C3135 C3128 1.409 . S
C3135 C3134 1.362 . S
H3136 C3142 0.930 . S
H3137 C3145 0.930 . S
H3138 C3146 0.930 . S
H3139 C3147 0.930 . S
H3140 C3150 0.930 . S
H3141 C3151 0.930 . S
C3142 H3136 0.930 . S
C3142 C3143 1.355 . S
C3142 C3144 1.415 . S
C3143 C3142 1.355 . S
C3143 C3145 1.419 . S
C3144 C3142 1.415 . S
C3144 C3149 1.425 . S
C3144 C3151 1.409 . S
C3145 H3137 0.930 . S
C3145 C3143 1.419 . S
C3145 C3146 1.362 . S
C3146 H3138 0.930 . S
C3146 C3145 1.362 . S
C3146 C3149 1.409 . S
C3147 H3139 0.930 . S
C3147 C3148 1.355 . S
C3147 C3149 1.415 . S
C3148 C3147 1.355 . S
C3148 C3150 1.419 . S
C3149 C3144 1.425 . S
C3149 C3146 1.409 . S
C3149 C3147 1.415 . S
C3150 H3140 0.930 . S
C3150 C3148 1.419 . S
C3150 C3151 1.362 . S
C3151 H3141 0.930 . S
C3151 C3144 1.409 . S
C3151 C3150 1.362 . S
H3152 C3158 0.930 . S
H3153 C3161 0.930 . S
H3154 C3162 0.930 . S
H3155 C3163 0.930 . S
H3156 C3166 0.930 . S
H3157 C3167 0.930 . S
C3158 H3152 0.930 . S
C3158 C3159 1.355 . S
C3158 C3160 1.415 . S
C3159 C3158 1.355 . S
C3159 C3161 1.419 . S
C3160 C3158 1.415 . S
C3160 C3165 1.425 . S
C3160 C3167 1.409 . S
C3161 H3153 0.930 . S
C3161 C3159 1.419 . S
C3161 C3162 1.362 . S
C3162 H3154 0.930 . S
C3162 C3161 1.362 . S
C3162 C3165 1.409 . S
C3163 H3155 0.930 . S
C3163 C3164 1.355 . S
C3163 C3165 1.415 . S
C3164 C3163 1.355 . S
C3164 C3166 1.419 . S
C3165 C3160 1.425 . S
C3165 C3162 1.409 . S
C3165 C3163 1.415 . S
C3166 H3156 0.930 . S
C3166 C3164 1.419 . S
C3166 C3167 1.362 . S
C3167 H3157 0.930 . S
C3167 C3160 1.409 . S
C3167 C3166 1.362 . S
H3168 C3174 0.930 . S
H3169 C3177 0.930 . S
H3170 C3178 0.930 . S
H3171 C3179 0.930 . S
H3172 C3182 0.930 . S
H3173 C3183 0.930 . S
C3174 H3168 0.930 . S
C3174 C3175 1.355 . S
C3174 C3176 1.415 . S
C3175 C3174 1.355 . S
C3175 C3177 1.419 . S
C3176 C3174 1.415 . S
C3176 C3181 1.425 . S
C3176 C3183 1.409 . S
C3177 H3169 0.930 . S
C3177 C3175 1.419 . S
C3177 C3178 1.362 . S
C3178 H3170 0.930 . S
C3178 C3177 1.362 . S
C3178 C3181 1.409 . S
C3179 H3171 0.930 . S
C3179 C3180 1.355 . S
C3179 C3181 1.415 . S
C3180 C3179 1.355 . S
C3180 C3182 1.419 . S
C3181 C3176 1.425 . S
C3181 C3178 1.409 . S
C3181 C3179 1.415 . S
C3182 H3172 0.930 . S
C3182 C3180 1.419 . S
C3182 C3183 1.362 . S
C3183 H3173 0.930 . S
C3183 C3176 1.409 . S
C3183 C3182 1.362 . S
H3184 C3190 0.930 1_556 S
H3185 C3193 0.930 . S
H3186 C3194 0.930 . S
H3187 C3195 0.930 . S
H3188 C3198 0.930 . S
H3189 C3199 0.930 1_556 S
C3190 H3184 0.930 1_554 S
C3190 C3191 1.355 . S
C3190 C3192 1.415 . S
C3191 C3190 1.355 . S
C3191 C3193 1.419 . S
C3192 C3190 1.415 . S
C3192 C3197 1.425 . S
C3192 C3199 1.409 . S
C3193 H3185 0.930 . S
C3193 C3191 1.419 . S
C3193 C3194 1.362 . S
C3194 H3186 0.930 . S
C3194 C3193 1.362 . S
C3194 C3197 1.409 . S
C3195 H3187 0.930 . S
C3195 C3196 1.355 . S
C3195 C3197 1.415 . S
C3196 C3195 1.355 . S
C3196 C3198 1.419 . S
C3197 C3192 1.425 . S
C3197 C3194 1.409 . S
C3197 C3195 1.415 . S
C3198 H3188 0.930 . S
C3198 C3196 1.419 . S
C3198 C3199 1.362 . S
C3199 H3189 0.930 1_554 S
C3199 C3192 1.409 . S
C3199 C3198 1.362 . S
H3200 C3206 0.930 . S
H3201 C3209 0.930 . S
H3202 C3210 0.930 1_455 S
H3203 C3211 0.930 . S
H3204 C3214 0.930 1_556 S
H3205 C3215 0.930 1_655 S
C3206 H3200 0.930 . S
C3206 C3207 1.355 . S
C3206 C3208 1.415 . S
C3207 C3206 1.355 . S
C3207 C3209 1.419 . S
C3208 C3206 1.415 . S
C3208 C3213 1.425 1_655 S
C3208 C3215 1.409 1_655 S
C3209 H3201 0.930 . S
C3209 C3207 1.419 . S
C3209 C3210 1.362 . S
C3210 H3202 0.930 1_655 S
C3210 C3209 1.362 . S
C3210 C3213 1.409 1_655 S
C3211 H3203 0.930 . S
C3211 C3212 1.355 . S
C3211 C3213 1.415 . S
C3212 C3211 1.355 . S
C3212 C3214 1.419 . S
C3213 C3208 1.425 1_455 S
C3213 C3210 1.409 1_455 S
C3213 C3211 1.415 . S
C3214 H3204 0.930 1_554 S
C3214 C3212 1.419 . S
C3214 C3215 1.362 . S
C3215 H3205 0.930 1_455 S
C3215 C3208 1.409 1_455 S
C3215 C3214 1.362 . S
H3216 C3222 0.930 . S
H3217 C3225 0.930 . S
H3218 C3226 0.930 . S
H3219 C3227 0.930 . S
H3220 C3230 0.930 . S
H3221 C3231 0.930 . S
C3222 H3216 0.930 . S
C3222 C3223 1.355 . S
C3222 C3224 1.415 . S
C3223 C3222 1.355 . S
C3223 C3225 1.419 . S
C3224 C3222 1.415 . S
C3224 C3229 1.425 . S
C3224 C3231 1.409 . S
C3225 H3217 0.930 . S
C3225 C3223 1.419 . S
C3225 C3226 1.362 . S
C3226 H3218 0.930 . S
C3226 C3225 1.362 . S
C3226 C3229 1.409 . S
C3227 H3219 0.930 . S
C3227 C3228 1.355 . S
C3227 C3229 1.415 . S
C3228 C3227 1.355 . S
C3228 C3230 1.419 . S
C3229 C3224 1.425 . S
C3229 C3226 1.409 . S
C3229 C3227 1.415 . S
C3230 H3220 0.930 . S
C3230 C3228 1.419 . S
C3230 C3231 1.362 . S
C3231 H3221 0.930 . S
C3231 C3224 1.409 . S
C3231 C3230 1.362 . S
H3232 C3238 0.930 . S
H3233 C3241 0.930 . S
H3234 C3242 0.930 . S
H3235 C3243 0.930 . S
H3236 C3246 0.930 . S
H3237 C3247 0.930 . S
C3238 H3232 0.930 . S
C3238 C3239 1.355 . S
C3238 C3240 1.415 . S
C3239 C3238 1.355 . S
C3239 C3241 1.419 . S
C3240 C3238 1.415 . S
C3240 C3245 1.425 . S
C3240 C3247 1.409 . S
C3241 H3233 0.930 . S
C3241 C3239 1.419 . S
C3241 C3242 1.362 . S
C3242 H3234 0.930 . S
C3242 C3241 1.362 . S
C3242 C3245 1.409 . S
C3243 H3235 0.930 . S
C3243 C3244 1.355 . S
C3243 C3245 1.415 . S
C3244 C3243 1.355 . S
C3244 C3246 1.419 . S
C3245 C3240 1.425 . S
C3245 C3242 1.409 . S
C3245 C3243 1.415 . S
C3246 H3236 0.930 . S
C3246 C3244 1.419 . S
C3246 C3247 1.362 . S
C3247 H3237 0.930 . S
C3247 C3240 1.409 . S
C3247 C3246 1.362 . S
H3248 C3254 0.930 . S
H3249 C3257 0.930 . S
H3250 C3258 0.930 . S
H3251 C3259 0.930 . S
H3252 C3262 0.930 . S
H3253 C3263 0.930 . S
C3254 H3248 0.930 . S
C3254 C3255 1.355 . S
C3254 C3256 1.415 . S
C3255 C3254 1.355 . S
C3255 C3257 1.419 . S
C3256 C3254 1.415 . S
C3256 C3261 1.425 . S
C3256 C3263 1.409 . S
C3257 H3249 0.930 . S
C3257 C3255 1.419 . S
C3257 C3258 1.362 . S
C3258 H3250 0.930 . S
C3258 C3257 1.362 . S
C3258 C3261 1.409 . S
C3259 H3251 0.930 . S
C3259 C3260 1.355 . S
C3259 C3261 1.415 . S
C3260 C3259 1.355 . S
C3260 C3262 1.419 . S
C3261 C3256 1.425 . S
C3261 C3258 1.409 . S
C3261 C3259 1.415 . S
C3262 H3252 0.930 . S
C3262 C3260 1.419 . S
C3262 C3263 1.362 . S
C3263 H3253 0.930 . S
C3263 C3256 1.409 . S
C3263 C3262 1.362 . S
H3264 C3270 0.930 1_455 S
H3265 C3273 0.930 . S
H3266 C3274 0.930 . S
H3267 C3275 0.930 1_655 S
H3268 C3278 0.930 . S
H3269 C3279 0.930 . S
C3270 H3264 0.930 1_655 S
C3270 C3271 1.355 . S
C3270 C3272 1.415 1_655 S
C3271 C3270 1.355 . S
C3271 C3273 1.419 . S
C3272 C3270 1.415 1_455 S
C3272 C3277 1.425 1_455 S
C3272 C3279 1.409 . S
C3273 H3265 0.930 . S
C3273 C3271 1.419 . S
C3273 C3274 1.362 . S
C3274 H3266 0.930 . S
C3274 C3273 1.362 . S
C3274 C3277 1.409 . S
C3275 H3267 0.930 1_455 S
C3275 C3276 1.355 . S
C3275 C3277 1.415 1_455 S
C3276 C3275 1.355 . S
C3276 C3278 1.419 . S
C3277 C3272 1.425 1_655 S
C3277 C3274 1.409 . S
C3277 C3275 1.415 1_655 S
C3278 H3268 0.930 . S
C3278 C3276 1.419 . S
C3278 C3279 1.362 . S
C3279 H3269 0.930 . S
C3279 C3272 1.409 . S
C3279 C3278 1.362 . S
H3280 C3286 0.930 . S
H3281 C3289 0.930 . S
H3282 C3290 0.930 . S
H3283 C3291 0.930 . S
H3284 C3294 0.930 . S
H3285 C3295 0.930 . S
C3286 H3280 0.930 . S
C3286 C3287 1.355 . S
C3286 C3288 1.415 . S
C3287 C3286 1.355 . S
C3287 C3289 1.419 . S
C3288 C3286 1.415 . S
C3288 C3293 1.425 . S
C3288 C3295 1.409 . S
C3289 H3281 0.930 . S
C3289 C3287 1.419 . S
C3289 C3290 1.362 . S
C3290 H3282 0.930 . S
C3290 C3289 1.362 . S
C3290 C3293 1.409 . S
C3291 H3283 0.930 . S
C3291 C3292 1.355 . S
C3291 C3293 1.415 . S
C3292 C3291 1.355 . S
C3292 C3294 1.419 . S
C3293 C3288 1.425 . S
C3293 C3290 1.409 . S
C3293 C3291 1.415 . S
C3294 H3284 0.930 . S
C3294 C3292 1.419 . S
C3294 C3295 1.362 . S
C3295 H3285 0.930 . S
C3295 C3288 1.409 . S
C3295 C3294 1.362 . S
H3296 C3302 0.930 . S
H3297 C3305 0.930 . S
H3298 C3306 0.930 . S
H3299 C3307 0.930 . S
H3300 C3310 0.930 . S
H3301 C3311 0.930 . S
C3302 H3296 0.930 . S
C3302 C3303 1.355 . S
C3302 C3304 1.415 . S
C3303 C3302 1.355 . S
C3303 C3305 1.419 . S
C3304 C3302 1.415 . S
C3304 C3309 1.425 . S
C3304 C3311 1.409 . S
C3305 H3297 0.930 . S
C3305 C3303 1.419 . S
C3305 C3306 1.362 . S
C3306 H3298 0.930 . S
C3306 C3305 1.362 . S
C3306 C3309 1.409 . S
C3307 H3299 0.930 . S
C3307 C3308 1.355 . S
C3307 C3309 1.415 . S
C3308 C3307 1.355 . S
C3308 C3310 1.419 . S
C3309 C3304 1.425 . S
C3309 C3306 1.409 . S
C3309 C3307 1.415 . S
C3310 H3300 0.930 . S
C3310 C3308 1.419 . S
C3310 C3311 1.362 . S
C3311 H3301 0.930 . S
C3311 C3304 1.409 . S
C3311 C3310 1.362 . S
H3312 C3318 0.930 . S
H3313 C3321 0.930 . S
H3314 C3322 0.930 . S
H3315 C3323 0.930 . S
H3316 C3326 0.930 . S
H3317 C3327 0.930 . S
C3318 H3312 0.930 . S
C3318 C3319 1.355 . S
C3318 C3320 1.415 . S
C3319 C3318 1.355 . S
C3319 C3321 1.419 . S
C3320 C3318 1.415 . S
C3320 C3325 1.425 . S
C3320 C3327 1.409 . S
C3321 H3313 0.930 . S
C3321 C3319 1.419 . S
C3321 C3322 1.362 . S
C3322 H3314 0.930 . S
C3322 C3321 1.362 . S
C3322 C3325 1.409 . S
C3323 H3315 0.930 . S
C3323 C3324 1.355 . S
C3323 C3325 1.415 . S
C3324 C3323 1.355 . S
C3324 C3326 1.419 . S
C3325 C3320 1.425 . S
C3325 C3322 1.409 . S
C3325 C3323 1.415 . S
C3326 H3316 0.930 . S
C3326 C3324 1.419 . S
C3326 C3327 1.362 . S
C3327 H3317 0.930 . S
C3327 C3320 1.409 . S
C3327 C3326 1.362 . S
H3328 C3334 0.930 . S
H3329 C3337 0.930 . S
H3330 C3338 0.930 . S
H3331 C3339 0.930 . S
H3332 C3342 0.930 . S
H3333 C3343 0.930 . S
C3334 H3328 0.930 . S
C3334 C3335 1.355 . S
C3334 C3336 1.415 . S
C3335 C3334 1.355 . S
C3335 C3337 1.419 . S
C3336 C3334 1.415 . S
C3336 C3341 1.425 . S
C3336 C3343 1.409 . S
C3337 H3329 0.930 . S
C3337 C3335 1.419 . S
C3337 C3338 1.362 . S
C3338 H3330 0.930 . S
C3338 C3337 1.362 . S
C3338 C3341 1.409 . S
C3339 H3331 0.930 . S
C3339 C3340 1.355 . S
C3339 C3341 1.415 . S
C3340 C3339 1.355 . S
C3340 C3342 1.419 . S
C3341 C3336 1.425 . S
C3341 C3338 1.409 . S
C3341 C3339 1.415 . S
C3342 H3332 0.930 . S
C3342 C3340 1.419 . S
C3342 C3343 1.362 . S
C3343 H3333 0.930 . S
C3343 C3336 1.409 . S
C3343 C3342 1.362 . S
H3344 C3350 0.930 . S
H3345 C3353 0.930 . S
H3346 C3354 0.930 . S
H3347 C3355 0.930 . S
H3348 C3358 0.930 . S
H3349 C3359 0.930 . S
C3350 H3344 0.930 . S
C3350 C3351 1.355 . S
C3350 C3352 1.415 . S
C3351 C3350 1.355 . S
C3351 C3353 1.419 . S
C3352 C3350 1.415 . S
C3352 C3357 1.425 . S
C3352 C3359 1.409 . S
C3353 H3345 0.930 . S
C3353 C3351 1.419 . S
C3353 C3354 1.362 . S
C3354 H3346 0.930 . S
C3354 C3353 1.362 . S
C3354 C3357 1.409 . S
C3355 H3347 0.930 . S
C3355 C3356 1.355 . S
C3355 C3357 1.415 . S
C3356 C3355 1.355 . S
C3356 C3358 1.419 . S
C3357 C3352 1.425 . S
C3357 C3354 1.409 . S
C3357 C3355 1.415 . S
C3358 H3348 0.930 . S
C3358 C3356 1.419 . S
C3358 C3359 1.362 . S
C3359 H3349 0.930 . S
C3359 C3352 1.409 . S
C3359 C3358 1.362 . S
H3360 C3366 0.930 . S
H3361 C3369 0.930 . S
H3362 C3370 0.930 . S
H3363 C3371 0.930 . S
H3364 C3374 0.930 . S
H3365 C3375 0.930 . S
C3366 H3360 0.930 . S
C3366 C3367 1.355 . S
C3366 C3368 1.415 . S
C3367 C3366 1.355 . S
C3367 C3369 1.419 . S
C3368 C3366 1.415 . S
C3368 C3373 1.425 . S
C3368 C3375 1.409 . S
C3369 H3361 0.930 . S
C3369 C3367 1.419 . S
C3369 C3370 1.362 . S
C3370 H3362 0.930 . S
C3370 C3369 1.362 . S
C3370 C3373 1.409 . S
C3371 H3363 0.930 . S
C3371 C3372 1.355 . S
C3371 C3373 1.415 . S
C3372 C3371 1.355 . S
C3372 C3374 1.419 . S
C3373 C3368 1.425 . S
C3373 C3370 1.409 . S
C3373 C3371 1.415 . S
C3374 H3364 0.930 . S
C3374 C3372 1.419 . S
C3374 C3375 1.362 . S
C3375 H3365 0.930 . S
C3375 C3368 1.409 . S
C3375 C3374 1.362 . S
H3376 C3382 0.930 . S
H3377 C3385 0.930 . S
H3378 C3386 0.930 . S
H3379 C3387 0.930 . S
H3380 C3390 0.930 . S
H3381 C3391 0.930 . S
C3382 H3376 0.930 . S
C3382 C3383 1.355 . S
C3382 C3384 1.415 . S
C3383 C3382 1.355 . S
C3383 C3385 1.419 . S
C3384 C3382 1.415 . S
C3384 C3389 1.425 . S
C3384 C3391 1.409 . S
C3385 H3377 0.930 . S
C3385 C3383 1.419 . S
C3385 C3386 1.362 . S
C3386 H3378 0.930 . S
C3386 C3385 1.362 . S
C3386 C3389 1.409 . S
C3387 H3379 0.930 . S
C3387 C3388 1.355 . S
C3387 C3389 1.415 . S
C3388 C3387 1.355 . S
C3388 C3390 1.419 . S
C3389 C3384 1.425 . S
C3389 C3386 1.409 . S
C3389 C3387 1.415 . S
C3390 H3380 0.930 . S
C3390 C3388 1.419 . S
C3390 C3391 1.362 . S
C3391 H3381 0.930 . S
C3391 C3384 1.409 . S
C3391 C3390 1.362 . S
H3392 C3398 0.930 . S
H3393 C3401 0.930 . S
H3394 C3402 0.930 . S
H3395 C3403 0.930 . S
H3396 C3406 0.930 . S
H3397 C3407 0.930 . S
C3398 H3392 0.930 . S
C3398 C3399 1.355 . S
C3398 C3400 1.415 . S
C3399 C3398 1.355 . S
C3399 C3401 1.419 . S
C3400 C3398 1.415 . S
C3400 C3405 1.425 1_545 S
C3400 C3407 1.409 . S
C3401 H3393 0.930 . S
C3401 C3399 1.419 . S
C3401 C3402 1.362 1_545 S
C3402 H3394 0.930 . S
C3402 C3401 1.362 1_565 S
C3402 C3405 1.409 . S
C3403 H3395 0.930 . S
C3403 C3404 1.355 . S
C3403 C3405 1.415 . S
C3404 C3403 1.355 . S
C3404 C3406 1.419 . S
C3405 C3400 1.425 1_565 S
C3405 C3402 1.409 . S
C3405 C3403 1.415 . S
C3406 H3396 0.930 . S
C3406 C3404 1.419 . S
C3406 C3407 1.362 1_565 S
C3407 H3397 0.930 . S
C3407 C3400 1.409 . S
C3407 C3406 1.362 1_545 S
H3408 C3414 0.930 . S
H3409 C3417 0.930 . S
H3410 C3418 0.930 . S
H3411 C3419 0.930 . S
H3412 C3422 0.930 . S
H3413 C3423 0.930 . S
C3414 H3408 0.930 . S
C3414 C3415 1.365 . S
C3414 C3416 1.415 1_455 S
C3415 C3414 1.365 . S
C3415 C3417 1.399 1_545 S
C3416 C3414 1.415 1_655 S
C3416 C3421 1.425 1_645 S
C3416 C3423 1.409 . S
C3417 H3409 0.930 . S
C3417 C3415 1.399 1_565 S
C3417 C3418 1.362 . S
C3418 H3410 0.930 . S
C3418 C3417 1.362 . S
C3418 C3421 1.409 . S
C3419 H3411 0.930 . S
C3419 C3420 1.365 . S
C3419 C3421 1.415 1_655 S
C3420 C3419 1.365 . S
C3420 C3422 1.399 1_565 S
C3421 C3416 1.425 1_465 S
C3421 C3418 1.409 . S
C3421 C3419 1.415 1_455 S
C3422 H3412 0.930 . S
C3422 C3420 1.399 1_545 S
C3422 C3423 1.362 . S
C3423 H3413 0.930 . S
C3423 C3416 1.409 . S
C3423 C3422 1.362 . S
H3424 C3430 0.930 . S
H3425 C3433 0.930 . S
H3426 C3434 0.930 . S
H3427 C3435 0.930 . S
H3428 C3438 0.930 . S
H3429 C3439 0.930 . S
C3430 H3424 0.930 . S
C3430 C3431 1.355 . S
C3430 C3432 1.415 . S
C3431 C3430 1.355 . S
C3431 C3433 1.419 . S
C3432 C3430 1.415 . S
C3432 C3437 1.425 1_565 S
C3432 C3439 1.409 1_565 S
C3433 H3425 0.930 . S
C3433 C3431 1.419 . S
C3433 C3434 1.362 . S
C3434 H3426 0.930 . S
C3434 C3433 1.362 . S
C3434 C3437 1.409 1_565 S
C3435 H3427 0.930 . S
C3435 C3436 1.355 . S
C3435 C3437 1.415 . S
C3436 C3435 1.355 . S
C3436 C3438 1.419 . S
C3437 C3432 1.425 1_545 S
C3437 C3434 1.409 1_545 S
C3437 C3435 1.415 . S
C3438 H3428 0.930 . S
C3438 C3436 1.419 . S
C3438 C3439 1.362 . S
C3439 H3429 0.930 . S
C3439 C3432 1.409 1_545 S
C3439 C3438 1.362 . S
H3440 C3446 0.930 . S
H3441 C3449 0.930 . S
H3442 C3450 0.930 . S
H3443 C3451 0.930 . S
H3444 C3454 0.930 . S
H3445 C3455 0.930 . S
C3446 H3440 0.930 . S
C3446 C3447 1.355 1_655 S
C3446 C3448 1.415 1_565 S
C3447 C3446 1.355 1_455 S
C3447 C3449 1.419 . S
C3448 C3446 1.415 1_545 S
C3448 C3453 1.425 1_645 S
C3448 C3455 1.409 . S
C3449 H3441 0.930 . S
C3449 C3447 1.419 . S
C3449 C3450 1.362 . S
C3450 H3442 0.930 . S
C3450 C3449 1.362 . S
C3450 C3453 1.409 . S
C3451 H3443 0.930 . S
C3451 C3452 1.355 1_455 S
C3451 C3453 1.415 1_545 S
C3452 C3451 1.355 1_655 S
C3452 C3454 1.419 . S
C3453 C3448 1.425 1_465 S
C3453 C3450 1.409 . S
C3453 C3451 1.415 1_565 S
C3454 H3444 0.930 . S
C3454 C3452 1.419 . S
C3454 C3455 1.362 . S
C3455 H3445 0.930 . S
C3455 C3448 1.409 . S
C3455 C3454 1.362 . S
H3456 C3462 0.929 . S
H3457 C3465 0.930 . S
H3458 C3466 0.930 . S
H3459 C3467 0.930 . S
H3460 C3470 0.930 . S
H3461 C3471 0.930 . S
C3462 H3456 0.929 . S
C3462 C3463 1.357 1_655 S
C3462 C3464 1.413 . S
C3463 C3462 1.357 1_455 S
C3463 C3465 1.419 . S
C3464 C3462 1.413 . S
C3464 C3469 1.425 . S
C3464 C3471 1.409 . S
C3465 H3457 0.930 . S
C3465 C3463 1.419 . S
C3465 C3466 1.362 . S
C3466 H3458 0.930 . S
C3466 C3465 1.362 . S
C3466 C3469 1.409 1_455 S
C3467 H3459 0.930 . S
C3467 C3468 1.355 . S
C3467 C3469 1.415 . S
C3468 C3467 1.355 . S
C3468 C3470 1.419 . S
C3469 C3464 1.425 . S
C3469 C3466 1.409 1_655 S
C3469 C3467 1.415 . S
C3470 H3460 0.930 . S
C3470 C3468 1.419 . S
C3470 C3471 1.362 . S
C3471 H3461 0.930 . S
C3471 C3464 1.409 . S
C3471 C3470 1.362 . S
H3472 C3478 0.930 . S
H3473 C3481 0.930 . S
H3474 C3482 0.930 . S
H3475 C3483 0.930 . S
H3476 C3486 0.930 . S
H3477 C3487 0.930 . S
C3478 H3472 0.930 . S
C3478 C3479 1.355 . S
C3478 C3480 1.415 . S
C3479 C3478 1.355 . S
C3479 C3481 1.419 . S
C3480 C3478 1.415 . S
C3480 C3485 1.425 . S
C3480 C3487 1.409 . S
C3481 H3473 0.930 . S
C3481 C3479 1.419 . S
C3481 C3482 1.362 . S
C3482 H3474 0.930 . S
C3482 C3481 1.362 . S
C3482 C3485 1.409 . S
C3483 H3475 0.930 . S
C3483 C3484 1.355 . S
C3483 C3485 1.415 . S
C3484 C3483 1.355 . S
C3484 C3486 1.419 . S
C3485 C3480 1.425 . S
C3485 C3482 1.409 . S
C3485 C3483 1.415 . S
C3486 H3476 0.930 . S
C3486 C3484 1.419 . S
C3486 C3487 1.362 . S
C3487 H3477 0.930 . S
C3487 C3480 1.409 . S
C3487 C3486 1.362 . S
H3488 C3494 0.930 . S
H3489 C3497 0.930 . S
H3490 C3498 0.930 . S
H3491 C3499 0.930 . S
H3492 C3502 0.930 . S
H3493 C3503 0.930 . S
C3494 H3488 0.930 . S
C3494 C3495 1.355 . S
C3494 C3496 1.415 . S
C3495 C3494 1.355 . S
C3495 C3497 1.419 . S
C3496 C3494 1.415 . S
C3496 C3501 1.425 . S
C3496 C3503 1.409 . S
C3497 H3489 0.930 . S
C3497 C3495 1.419 . S
C3497 C3498 1.362 . S
C3498 H3490 0.930 . S
C3498 C3497 1.362 . S
C3498 C3501 1.409 . S
C3499 H3491 0.930 . S
C3499 C3500 1.355 . S
C3499 C3501 1.415 . S
C3500 C3499 1.355 . S
C3500 C3502 1.419 . S
C3501 C3496 1.425 . S
C3501 C3498 1.409 . S
C3501 C3499 1.415 . S
C3502 H3492 0.930 . S
C3502 C3500 1.419 . S
C3502 C3503 1.362 . S
C3503 H3493 0.930 . S
C3503 C3496 1.409 . S
C3503 C3502 1.362 . S
H3504 C3510 0.930 . S
H3505 C3513 0.930 . S
H3506 C3514 0.930 . S
H3507 C3515 0.930 . S
H3508 C3518 0.930 . S
H3509 C3519 0.930 . S
C3510 H3504 0.930 . S
C3510 C3511 1.355 . S
C3510 C3512 1.415 . S
C3511 C3510 1.355 . S
C3511 C3513 1.419 . S
C3512 C3510 1.415 . S
C3512 C3517 1.425 . S
C3512 C3519 1.409 . S
C3513 H3505 0.930 . S
C3513 C3511 1.419 . S
C3513 C3514 1.362 . S
C3514 H3506 0.930 . S
C3514 C3513 1.362 . S
C3514 C3517 1.409 . S
C3515 H3507 0.930 . S
C3515 C3516 1.355 . S
C3515 C3517 1.415 . S
C3516 C3515 1.355 . S
C3516 C3518 1.419 . S
C3517 C3512 1.425 . S
C3517 C3514 1.409 . S
C3517 C3515 1.415 . S
C3518 H3508 0.930 . S
C3518 C3516 1.419 . S
C3518 C3519 1.362 . S
C3519 H3509 0.930 . S
C3519 C3512 1.409 . S
C3519 C3518 1.362 . S
H3520 C3526 0.930 . S
H3521 C3529 0.930 1_554 S
H3522 C3530 0.930 . S
H3523 C3531 0.930 . S
H3524 C3534 0.930 . S
H3525 C3535 0.930 . S
C3526 H3520 0.930 . S
C3526 C3527 1.355 1_556 S
C3526 C3528 1.415 . S
C3527 C3526 1.355 1_554 S
C3527 C3529 1.419 1_554 S
C3528 C3526 1.415 . S
C3528 C3533 1.425 . S
C3528 C3535 1.409 . S
C3529 H3521 0.930 1_556 S
C3529 C3527 1.419 1_556 S
C3529 C3530 1.362 . S
C3530 H3522 0.930 . S
C3530 C3529 1.362 . S
C3530 C3533 1.409 . S
C3531 H3523 0.930 . S
C3531 C3532 1.355 . S
C3531 C3533 1.415 . S
C3532 C3531 1.355 . S
C3532 C3534 1.419 . S
C3533 C3528 1.425 . S
C3533 C3530 1.409 . S
C3533 C3531 1.415 . S
C3534 H3524 0.930 . S
C3534 C3532 1.419 . S
C3534 C3535 1.362 . S
C3535 H3525 0.930 . S
C3535 C3528 1.409 . S
C3535 C3534 1.362 . S
H3536 C3542 0.930 . S
H3537 C3545 0.930 . S
H3538 C3546 0.930 . S
H3539 C3547 0.930 . S
H3540 C3550 0.930 . S
H3541 C3551 0.930 . S
C3542 H3536 0.930 . S
C3542 C3543 1.355 . S
C3542 C3544 1.415 . S
C3543 C3542 1.355 . S
C3543 C3545 1.419 . S
C3544 C3542 1.415 . S
C3544 C3549 1.425 . S
C3544 C3551 1.409 . S
C3545 H3537 0.930 . S
C3545 C3543 1.419 . S
C3545 C3546 1.362 . S
C3546 H3538 0.930 . S
C3546 C3545 1.362 . S
C3546 C3549 1.409 . S
C3547 H3539 0.930 . S
C3547 C3548 1.355 . S
C3547 C3549 1.415 1_556 S
C3548 C3547 1.355 . S
C3548 C3550 1.419 1_556 S
C3549 C3544 1.425 . S
C3549 C3546 1.409 . S
C3549 C3547 1.415 1_554 S
C3550 H3540 0.930 . S
C3550 C3548 1.419 1_554 S
C3550 C3551 1.362 . S
C3551 H3541 0.930 . S
C3551 C3544 1.409 . S
C3551 C3550 1.362 . S
H3552 C3558 0.930 . S
H3553 C3561 0.930 . S
H3554 C3562 0.930 . S
H3555 C3563 0.930 . S
H3556 C3566 0.930 . S
H3557 C3567 0.930 . S
C3558 H3552 0.930 . S
C3558 C3559 1.355 . S
C3558 C3560 1.415 . S
C3559 C3558 1.355 . S
C3559 C3561 1.419 . S
C3560 C3558 1.415 . S
C3560 C3565 1.425 . S
C3560 C3567 1.409 . S
C3561 H3553 0.930 . S
C3561 C3559 1.419 . S
C3561 C3562 1.362 . S
C3562 H3554 0.930 . S
C3562 C3561 1.362 . S
C3562 C3565 1.409 . S
C3563 H3555 0.930 . S
C3563 C3564 1.355 . S
C3563 C3565 1.415 . S
C3564 C3563 1.355 . S
C3564 C3566 1.419 . S
C3565 C3560 1.425 . S
C3565 C3562 1.409 . S
C3565 C3563 1.415 . S
C3566 H3556 0.930 . S
C3566 C3564 1.419 . S
C3566 C3567 1.362 . S
C3567 H3557 0.930 . S
C3567 C3560 1.409 . S
C3567 C3566 1.362 . S
H3568 C3574 0.930 . S
H3569 C3577 0.930 . S
H3570 C3578 0.930 . S
H3571 C3579 0.930 . S
H3572 C3582 0.930 . S
H3573 C3583 0.930 . S
C3574 H3568 0.930 . S
C3574 C3575 1.355 . S
C3574 C3576 1.415 . S
C3575 C3574 1.355 . S
C3575 C3577 1.419 . S
C3576 C3574 1.415 . S
C3576 C3581 1.425 . S
C3576 C3583 1.409 . S
C3577 H3569 0.930 . S
C3577 C3575 1.419 . S
C3577 C3578 1.362 . S
C3578 H3570 0.930 . S
C3578 C3577 1.362 . S
C3578 C3581 1.409 . S
C3579 H3571 0.930 . S
C3579 C3580 1.355 . S
C3579 C3581 1.415 . S
C3580 C3579 1.355 . S
C3580 C3582 1.419 . S
C3581 C3576 1.425 . S
C3581 C3578 1.409 . S
C3581 C3579 1.415 . S
C3582 H3572 0.930 . S
C3582 C3580 1.419 . S
C3582 C3583 1.362 . S
C3583 H3573 0.930 . S
C3583 C3576 1.409 . S
C3583 C3582 1.362 . S
H3584 C3590 0.930 . S
H3585 C3593 0.930 . S
H3586 C3594 0.930 . S
H3587 C3595 0.930 . S
H3588 C3598 0.930 . S
H3589 C3599 0.930 . S
C3590 H3584 0.930 . S
C3590 C3591 1.355 . S
C3590 C3592 1.415 . S
C3591 C3590 1.355 . S
C3591 C3593 1.419 . S
C3592 C3590 1.415 . S
C3592 C3597 1.425 . S
C3592 C3599 1.409 1_455 S
C3593 H3585 0.930 . S
C3593 C3591 1.419 . S
C3593 C3594 1.362 . S
C3594 H3586 0.930 . S
C3594 C3593 1.362 . S
C3594 C3597 1.409 . S
C3595 H3587 0.930 . S
C3595 C3596 1.355 1_455 S
C3595 C3597 1.415 . S
C3596 C3595 1.355 1_655 S
C3596 C3598 1.419 . S
C3597 C3592 1.425 . S
C3597 C3594 1.409 . S
C3597 C3595 1.415 . S
C3598 H3588 0.930 . S
C3598 C3596 1.419 . S
C3598 C3599 1.362 . S
C3599 H3589 0.930 . S
C3599 C3592 1.409 1_655 S
C3599 C3598 1.362 . S
H3600 C3606 0.930 . S
H3601 C3609 0.930 . S
H3602 C3610 0.930 . S
H3603 C3611 0.930 1_556 S
H3604 C3614 0.930 1_556 S
H3605 C3615 0.930 . S
C3606 H3600 0.930 . S
C3606 C3607 1.355 . S
C3606 C3608 1.415 . S
C3607 C3606 1.355 . S
C3607 C3609 1.419 . S
C3608 C3606 1.415 . S
C3608 C3613 1.425 . S
C3608 C3615 1.409 . S
C3609 H3601 0.930 . S
C3609 C3607 1.419 . S
C3609 C3610 1.362 . S
C3610 H3602 0.930 . S
C3610 C3609 1.362 . S
C3610 C3613 1.409 . S
C3611 H3603 0.930 1_554 S
C3611 C3612 1.355 1_554 S
C3611 C3613 1.415 . S
C3612 C3611 1.355 1_556 S
C3612 C3614 1.419 1_556 S
C3613 C3608 1.425 . S
C3613 C3610 1.409 . S
C3613 C3611 1.415 . S
C3614 H3604 0.930 1_554 S
C3614 C3612 1.419 1_554 S
C3614 C3615 1.362 . S
C3615 H3605 0.930 . S
C3615 C3608 1.409 . S
C3615 C3614 1.362 . S
H3616 C3622 0.930 . S
H3617 C3625 0.930 . S
H3618 C3626 0.930 . S
H3619 C3627 0.930 . S
H3620 C3630 0.930 . S
H3621 C3631 0.930 . S
C3622 H3616 0.930 . S
C3622 C3623 1.355 . S
C3622 C3624 1.415 . S
C3623 C3622 1.355 . S
C3623 C3625 1.419 . S
C3624 C3622 1.415 . S
C3624 C3629 1.425 . S
C3624 C3631 1.409 . S
C3625 H3617 0.930 . S
C3625 C3623 1.419 . S
C3625 C3626 1.362 . S
C3626 H3618 0.930 . S
C3626 C3625 1.362 . S
C3626 C3629 1.409 . S
C3627 H3619 0.930 . S
C3627 C3628 1.355 . S
C3627 C3629 1.415 . S
C3628 C3627 1.355 . S
C3628 C3630 1.419 . S
C3629 C3624 1.425 . S
C3629 C3626 1.409 . S
C3629 C3627 1.415 . S
C3630 H3620 0.930 . S
C3630 C3628 1.419 . S
C3630 C3631 1.362 . S
C3631 H3621 0.930 . S
C3631 C3624 1.409 . S
C3631 C3630 1.362 . S
H3632 C3638 0.930 . S
H3633 C3641 0.930 . S
H3634 C3642 0.930 . S
H3635 C3643 0.930 . S
H3636 C3646 0.930 . S
H3637 C3647 0.930 . S
C3638 H3632 0.930 . S
C3638 C3639 1.355 . S
C3638 C3640 1.415 . S
C3639 C3638 1.355 . S
C3639 C3641 1.419 . S
C3640 C3638 1.415 . S
C3640 C3645 1.425 . S
C3640 C3647 1.409 . S
C3641 H3633 0.930 . S
C3641 C3639 1.419 . S
C3641 C3642 1.362 . S
C3642 H3634 0.930 . S
C3642 C3641 1.362 . S
C3642 C3645 1.409 . S
C3643 H3635 0.930 . S
C3643 C3644 1.355 . S
C3643 C3645 1.415 . S
C3644 C3643 1.355 . S
C3644 C3646 1.419 . S
C3645 C3640 1.425 . S
C3645 C3642 1.409 . S
C3645 C3643 1.415 . S
C3646 H3636 0.930 . S
C3646 C3644 1.419 . S
C3646 C3647 1.362 . S
C3647 H3637 0.930 . S
C3647 C3640 1.409 . S
C3647 C3646 1.362 . S
H3648 C3654 0.930 . S
H3649 C3657 0.930 . S
H3650 C3658 0.930 . S
H3651 C3659 0.930 . S
H3652 C3662 0.930 . S
H3653 C3663 0.930 . S
C3654 H3648 0.930 . S
C3654 C3655 1.355 . S
C3654 C3656 1.415 . S
C3655 C3654 1.355 . S
C3655 C3657 1.419 . S
C3656 C3654 1.415 . S
C3656 C3661 1.425 . S
C3656 C3663 1.409 . S
C3657 H3649 0.930 . S
C3657 C3655 1.419 . S
C3657 C3658 1.362 . S
C3658 H3650 0.930 . S
C3658 C3657 1.362 . S
C3658 C3661 1.409 . S
C3659 H3651 0.930 . S
C3659 C3660 1.355 . S
C3659 C3661 1.415 . S
C3660 C3659 1.355 . S
C3660 C3662 1.419 . S
C3661 C3656 1.425 . S
C3661 C3658 1.409 . S
C3661 C3659 1.415 . S
C3662 H3652 0.930 . S
C3662 C3660 1.419 . S
C3662 C3663 1.362 . S
C3663 H3653 0.930 . S
C3663 C3656 1.409 . S
C3663 C3662 1.362 . S
H3664 C3670 0.930 . S
H3665 C3673 0.930 . S
H3666 C3674 0.930 . S
H3667 C3675 0.930 . S
H3668 C3678 0.930 . S
H3669 C3679 0.930 . S
C3670 H3664 0.930 . S
C3670 C3671 1.355 . S
C3670 C3672 1.415 . S
C3671 C3670 1.355 . S
C3671 C3673 1.419 . S
C3672 C3670 1.415 . S
C3672 C3677 1.425 . S
C3672 C3679 1.409 . S
C3673 H3665 0.930 . S
C3673 C3671 1.419 . S
C3673 C3674 1.362 . S
C3674 H3666 0.930 . S
C3674 C3673 1.362 . S
C3674 C3677 1.409 . S
C3675 H3667 0.930 . S
C3675 C3676 1.355 . S
C3675 C3677 1.415 . S
C3676 C3675 1.355 . S
C3676 C3678 1.419 . S
C3677 C3672 1.425 . S
C3677 C3674 1.409 . S
C3677 C3675 1.415 . S
C3678 H3668 0.930 . S
C3678 C3676 1.419 . S
C3678 C3679 1.362 . S
C3679 H3669 0.930 . S
C3679 C3672 1.409 . S
C3679 C3678 1.362 . S
H3680 C3686 0.930 . S
H3681 C3689 0.930 . S
H3682 C3690 0.930 . S
H3683 C3691 0.930 . S
H3684 C3694 0.930 . S
H3685 C3695 0.930 . S
C3686 H3680 0.930 . S
C3686 C3687 1.355 . S
C3686 C3688 1.415 . S
C3687 C3686 1.355 . S
C3687 C3689 1.419 . S
C3688 C3686 1.415 . S
C3688 C3693 1.425 . S
C3688 C3695 1.409 . S
C3689 H3681 0.930 . S
C3689 C3687 1.419 . S
C3689 C3690 1.362 . S
C3690 H3682 0.930 . S
C3690 C3689 1.362 . S
C3690 C3693 1.409 . S
C3691 H3683 0.930 . S
C3691 C3692 1.355 . S
C3691 C3693 1.415 . S
C3692 C3691 1.355 . S
C3692 C3694 1.419 . S
C3693 C3688 1.425 . S
C3693 C3690 1.409 . S
C3693 C3691 1.415 . S
C3694 H3684 0.930 . S
C3694 C3692 1.419 . S
C3694 C3695 1.362 . S
C3695 H3685 0.930 . S
C3695 C3688 1.409 . S
C3695 C3694 1.362 . S
H3696 C3702 0.930 . S
H3697 C3705 0.930 . S
H3698 C3706 0.930 . S
H3699 C3707 0.930 . S
H3700 C3710 0.930 . S
H3701 C3711 0.930 . S
C3702 H3696 0.930 . S
C3702 C3703 1.355 . S
C3702 C3704 1.415 . S
C3703 C3702 1.355 . S
C3703 C3705 1.419 . S
C3704 C3702 1.415 . S
C3704 C3709 1.425 . S
C3704 C3711 1.409 . S
C3705 H3697 0.930 . S
C3705 C3703 1.419 . S
C3705 C3706 1.362 . S
C3706 H3698 0.930 . S
C3706 C3705 1.362 . S
C3706 C3709 1.409 . S
C3707 H3699 0.930 . S
C3707 C3708 1.355 . S
C3707 C3709 1.415 . S
C3708 C3707 1.355 . S
C3708 C3710 1.419 . S
C3709 C3704 1.425 . S
C3709 C3706 1.409 . S
C3709 C3707 1.415 . S
C3710 H3700 0.930 . S
C3710 C3708 1.419 . S
C3710 C3711 1.362 . S
C3711 H3701 0.930 . S
C3711 C3704 1.409 . S
C3711 C3710 1.362 . S
H3712 C3718 0.930 . S
H3713 C3721 0.930 . S
H3714 C3722 0.930 . S
H3715 C3723 0.930 . S
H3716 C3726 0.930 . S
H3717 C3727 0.930 . S
C3718 H3712 0.930 . S
C3718 C3719 1.355 . S
C3718 C3720 1.415 . S
C3719 C3718 1.355 . S
C3719 C3721 1.419 . S
C3720 C3718 1.415 . S
C3720 C3725 1.425 . S
C3720 C3727 1.409 . S
C3721 H3713 0.930 . S
C3721 C3719 1.419 . S
C3721 C3722 1.362 . S
C3722 H3714 0.930 . S
C3722 C3721 1.362 . S
C3722 C3725 1.409 . S
C3723 H3715 0.930 . S
C3723 C3724 1.355 . S
C3723 C3725 1.415 . S
C3724 C3723 1.355 . S
C3724 C3726 1.419 . S
C3725 C3720 1.425 . S
C3725 C3722 1.409 . S
C3725 C3723 1.415 . S
C3726 H3716 0.930 . S
C3726 C3724 1.419 . S
C3726 C3727 1.362 . S
C3727 H3717 0.930 . S
C3727 C3720 1.409 . S
C3727 C3726 1.362 . S
H3728 C3734 0.930 . S
H3729 C3737 0.930 . S
H3730 C3738 0.930 . S
H3731 C3739 0.930 . S
H3732 C3742 0.930 . S
H3733 C3743 0.930 . S
C3734 H3728 0.930 . S
C3734 C3735 1.355 . S
C3734 C3736 1.415 . S
C3735 C3734 1.355 . S
C3735 C3737 1.419 . S
C3736 C3734 1.415 . S
C3736 C3741 1.425 . S
C3736 C3743 1.409 . S
C3737 H3729 0.930 . S
C3737 C3735 1.419 . S
C3737 C3738 1.362 . S
C3738 H3730 0.930 . S
C3738 C3737 1.362 . S
C3738 C3741 1.409 . S
C3739 H3731 0.930 . S
C3739 C3740 1.355 . S
C3739 C3741 1.415 . S
C3740 C3739 1.355 . S
C3740 C3742 1.419 . S
C3741 C3736 1.425 . S
C3741 C3738 1.409 . S
C3741 C3739 1.415 . S
C3742 H3732 0.930 . S
C3742 C3740 1.419 . S
C3742 C3743 1.362 . S
C3743 H3733 0.930 . S
C3743 C3736 1.409 . S
C3743 C3742 1.362 . S
H3744 C3750 0.930 . S
H3745 C3753 0.930 . S
H3746 C3754 0.930 . S
H3747 C3755 0.930 . S
H3748 C3758 0.903 1_455 S
H3749 C3759 0.930 . S
C3750 H3744 0.930 . S
C3750 C3751 1.355 . S
C3750 C3752 1.415 . S
C3751 C3750 1.355 . S
C3751 C3753 1.419 . S
C3752 C3750 1.415 . S
C3752 C3757 1.425 . S
C3752 C3759 1.409 . S
C3753 H3745 0.930 . S
C3753 C3751 1.419 . S
C3753 C3754 1.362 . S
C3754 H3746 0.930 . S
C3754 C3753 1.362 . S
C3754 C3757 1.409 . S
C3755 H3747 0.930 . S
C3755 C3756 1.355 . S
C3755 C3757 1.415 . S
C3756 C3755 1.355 . S
C3756 C3758 1.419 . S
C3757 C3752 1.425 . S
C3757 C3754 1.409 . S
C3757 C3755 1.415 . S
C3758 H3748 0.903 1_655 S
C3758 C3756 1.419 . S
C3758 C3759 1.362 . S
C3759 H3749 0.930 . S
C3759 C3752 1.409 . S
C3759 C3758 1.362 . S
H3760 C3766 0.930 . S
H3761 C3769 0.930 . S
H3762 C3770 0.930 . S
H3763 C3771 0.930 . S
H3764 C3774 0.930 . S
H3765 C3775 0.930 . S
C3766 H3760 0.930 . S
C3766 C3767 1.355 . S
C3766 C3768 1.415 . S
C3767 C3766 1.355 . S
C3767 C3769 1.419 . S
C3768 C3766 1.415 . S
C3768 C3773 1.425 . S
C3768 C3775 1.409 . S
C3769 H3761 0.930 . S
C3769 C3767 1.419 . S
C3769 C3770 1.362 . S
C3770 H3762 0.930 . S
C3770 C3769 1.362 . S
C3770 C3773 1.409 . S
C3771 H3763 0.930 . S
C3771 C3772 1.355 . S
C3771 C3773 1.415 . S
C3772 C3771 1.355 . S
C3772 C3774 1.419 . S
C3773 C3768 1.425 . S
C3773 C3770 1.409 . S
C3773 C3771 1.415 . S
C3774 H3764 0.930 . S
C3774 C3772 1.419 . S
C3774 C3775 1.362 . S
C3775 H3765 0.930 . S
C3775 C3768 1.409 . S
C3775 C3774 1.362 . S
H3776 C3782 0.930 . S
H3777 C3785 0.930 . S
H3778 C3786 0.930 . S
H3779 C3787 0.930 . S
H3780 C3790 0.930 . S
H3781 C3791 0.930 . S
C3782 H3776 0.930 . S
C3782 C3783 1.355 . S
C3782 C3784 1.415 . S
C3783 C3782 1.355 . S
C3783 C3785 1.419 . S
C3784 C3782 1.415 . S
C3784 C3789 1.425 . S
C3784 C3791 1.409 . S
C3785 H3777 0.930 . S
C3785 C3783 1.419 . S
C3785 C3786 1.362 . S
C3786 H3778 0.930 . S
C3786 C3785 1.362 . S
C3786 C3789 1.409 . S
C3787 H3779 0.930 . S
C3787 C3788 1.355 . S
C3787 C3789 1.415 . S
C3788 C3787 1.355 . S
C3788 C3790 1.419 . S
C3789 C3784 1.425 . S
C3789 C3786 1.409 . S
C3789 C3787 1.415 . S
C3790 H3780 0.930 . S
C3790 C3788 1.419 . S
C3790 C3791 1.362 . S
C3791 H3781 0.930 . S
C3791 C3784 1.409 . S
C3791 C3790 1.362 . S
H3792 C3798 0.930 . S
H3793 C3801 0.930 . S
H3794 C3802 0.930 . S
H3795 C3803 0.930 . S
H3796 C3806 0.930 . S
H3797 C3807 0.930 . S
C3798 H3792 0.930 . S
C3798 C3799 1.355 . S
C3798 C3800 1.415 . S
C3799 C3798 1.355 . S
C3799 C3801 1.419 . S
C3800 C3798 1.415 . S
C3800 C3805 1.425 . S
C3800 C3807 1.409 . S
C3801 H3793 0.930 . S
C3801 C3799 1.419 . S
C3801 C3802 1.362 . S
C3802 H3794 0.930 . S
C3802 C3801 1.362 . S
C3802 C3805 1.409 . S
C3803 H3795 0.930 . S
C3803 C3804 1.355 . S
C3803 C3805 1.415 . S
C3804 C3803 1.355 . S
C3804 C3806 1.419 . S
C3805 C3800 1.425 . S
C3805 C3802 1.409 . S
C3805 C3803 1.415 . S
C3806 H3796 0.930 . S
C3806 C3804 1.419 . S
C3806 C3807 1.362 . S
C3807 H3797 0.930 . S
C3807 C3800 1.409 . S
C3807 C3806 1.362 . S
H3808 C3814 0.930 . S
H3809 C3817 0.930 . S
H3810 C3818 0.930 . S
H3811 C3819 0.930 . S
H3812 C3822 0.930 . S
H3813 C3823 0.930 . S
C3814 H3808 0.930 . S
C3814 C3815 1.355 . S
C3814 C3816 1.415 . S
C3815 C3814 1.355 . S
C3815 C3817 1.419 . S
C3816 C3814 1.415 . S
C3816 C3821 1.425 . S
C3816 C3823 1.409 . S
C3817 H3809 0.930 . S
C3817 C3815 1.419 . S
C3817 C3818 1.362 . S
C3818 H3810 0.930 . S
C3818 C3817 1.362 . S
C3818 C3821 1.409 . S
C3819 H3811 0.930 . S
C3819 C3820 1.355 . S
C3819 C3821 1.415 . S
C3820 C3819 1.355 . S
C3820 C3822 1.419 . S
C3821 C3816 1.425 . S
C3821 C3818 1.409 . S
C3821 C3819 1.415 . S
C3822 H3812 0.930 . S
C3822 C3820 1.419 . S
C3822 C3823 1.362 . S
C3823 H3813 0.930 . S
C3823 C3816 1.409 . S
C3823 C3822 1.362 . S
H3824 C3830 0.930 . S
H3825 C3833 0.930 . S
H3826 C3834 0.930 1_556 S
H3827 C3835 0.930 . S
H3828 C3838 0.930 . S
H3829 C3839 0.930 . S
C3830 H3824 0.930 . S
C3830 C3831 1.355 . S
C3830 C3832 1.415 . S
C3831 C3830 1.355 . S
C3831 C3833 1.419 . S
C3832 C3830 1.415 . S
C3832 C3837 1.425 . S
C3832 C3839 1.409 . S
C3833 H3825 0.930 . S
C3833 C3831 1.419 . S
C3833 C3834 1.362 . S
C3834 H3826 0.930 1_554 S
C3834 C3833 1.362 . S
C3834 C3837 1.409 . S
C3835 H3827 0.930 . S
C3835 C3836 1.355 . S
C3835 C3837 1.415 1_556 S
C3836 C3835 1.355 . S
C3836 C3838 1.419 1_556 S
C3837 C3832 1.425 . S
C3837 C3834 1.409 . S
C3837 C3835 1.415 1_554 S
C3838 H3828 0.930 . S
C3838 C3836 1.419 1_554 S
C3838 C3839 1.362 . S
C3839 H3829 0.930 . S
C3839 C3832 1.409 . S
C3839 C3838 1.362 . S
H3840 C3846 0.930 . S
H3841 C3849 0.930 . S
H3842 C3850 0.930 . S
H3843 C3851 0.930 . S
H3844 C3854 0.930 . S
H3845 C3855 0.930 . S
C3846 H3840 0.930 . S
C3846 C3847 1.355 . S
C3846 C3848 1.415 . S
C3847 C3846 1.355 . S
C3847 C3849 1.419 . S
C3848 C3846 1.415 . S
C3848 C3853 1.425 . S
C3848 C3855 1.409 . S
C3849 H3841 0.930 . S
C3849 C3847 1.419 . S
C3849 C3850 1.362 . S
C3850 H3842 0.930 . S
C3850 C3849 1.362 . S
C3850 C3853 1.409 . S
C3851 H3843 0.930 . S
C3851 C3852 1.355 . S
C3851 C3853 1.415 . S
C3852 C3851 1.355 . S
C3852 C3854 1.419 1_556 S
C3853 C3848 1.425 . S
C3853 C3850 1.409 . S
C3853 C3851 1.415 . S
C3854 H3844 0.930 . S
C3854 C3852 1.419 1_554 S
C3854 C3855 1.362 1_554 S
C3855 H3845 0.930 . S
C3855 C3848 1.409 . S
C3855 C3854 1.362 1_556 S
H3856 C3862 0.930 . S
H3857 C3865 0.930 . S
H3858 C3866 0.930 . S
H3859 C3867 0.930 . S
H3860 C3870 0.930 . S
H3861 C3871 0.930 . S
C3862 H3856 0.930 . S
C3862 C3863 1.355 . S
C3862 C3864 1.415 . S
C3863 C3862 1.355 . S
C3863 C3865 1.419 . S
C3864 C3862 1.415 . S
C3864 C3869 1.425 . S
C3864 C3871 1.409 . S
C3865 H3857 0.930 . S
C3865 C3863 1.419 . S
C3865 C3866 1.362 . S
C3866 H3858 0.930 . S
C3866 C3865 1.362 . S
C3866 C3869 1.409 . S
C3867 H3859 0.930 . S
C3867 C3868 1.355 . S
C3867 C3869 1.415 . S
C3868 C3867 1.355 . S
C3868 C3870 1.419 . S
C3869 C3864 1.425 . S
C3869 C3866 1.409 . S
C3869 C3867 1.415 . S
C3870 H3860 0.930 . S
C3870 C3868 1.419 . S
C3870 C3871 1.362 . S
C3871 H3861 0.930 . S
C3871 C3864 1.409 . S
C3871 C3870 1.362 . S
H3872 C3878 0.930 . S
H3873 C3881 0.930 . S
H3874 C3882 0.930 . S
H3875 C3883 0.930 . S
H3876 C3886 0.930 1_655 S
H3877 C3887 0.930 . S
C3878 H3872 0.930 . S
C3878 C3879 1.355 . S
C3878 C3880 1.415 . S
C3879 C3878 1.355 . S
C3879 C3881 1.419 . S
C3880 C3878 1.415 . S
C3880 C3885 1.425 . S
C3880 C3887 1.409 . S
C3881 H3873 0.930 . S
C3881 C3879 1.419 . S
C3881 C3882 1.362 . S
C3882 H3874 0.930 . S
C3882 C3881 1.362 . S
C3882 C3885 1.409 . S
C3883 H3875 0.930 . S
C3883 C3884 1.355 . S
C3883 C3885 1.415 . S
C3884 C3883 1.355 . S
C3884 C3886 1.419 . S
C3885 C3880 1.425 . S
C3885 C3882 1.409 . S
C3885 C3883 1.415 . S
C3886 H3876 0.930 1_455 S
C3886 C3884 1.419 . S
C3886 C3887 1.362 . S
C3887 H3877 0.930 . S
C3887 C3880 1.409 . S
C3887 C3886 1.362 . S
H3888 C3894 0.930 . S
H3889 C3897 0.930 . S
H3890 C3898 0.930 . S
H3891 C3899 0.930 . S
H3892 C3902 0.930 . S
H3893 C3903 0.930 . S
C3894 H3888 0.930 . S
C3894 C3895 1.355 . S
C3894 C3896 1.415 1_556 S
C3895 C3894 1.355 . S
C3895 C3897 1.419 . S
C3896 C3894 1.415 1_554 S
C3896 C3901 1.425 . S
C3896 C3903 1.409 . S
C3897 H3889 0.930 . S
C3897 C3895 1.419 . S
C3897 C3898 1.362 1_556 S
C3898 H3890 0.930 . S
C3898 C3897 1.362 1_554 S
C3898 C3901 1.409 . S
C3899 H3891 0.930 . S
C3899 C3900 1.355 . S
C3899 C3901 1.415 . S
C3900 C3899 1.355 . S
C3900 C3902 1.419 . S
C3901 C3896 1.425 . S
C3901 C3898 1.409 . S
C3901 C3899 1.415 . S
C3902 H3892 0.930 . S
C3902 C3900 1.419 . S
C3902 C3903 1.362 . S
C3903 H3893 0.930 . S
C3903 C3896 1.409 . S
C3903 C3902 1.362 . S
H3904 C3910 0.930 . S
H3905 C3913 0.930 . S
H3906 C3914 0.930 . S
H3907 C3915 0.930 . S
H3908 C3918 0.930 . S
H3909 C3919 0.930 . S
C3910 H3904 0.930 . S
C3910 C3911 1.355 . S
C3910 C3912 1.415 . S
C3911 C3910 1.355 . S
C3911 C3913 1.419 . S
C3912 C3910 1.415 . S
C3912 C3917 1.425 . S
C3912 C3919 1.409 . S
C3913 H3905 0.930 . S
C3913 C3911 1.419 . S
C3913 C3914 1.362 . S
C3914 H3906 0.930 . S
C3914 C3913 1.362 . S
C3914 C3917 1.409 . S
C3915 H3907 0.930 . S
C3915 C3916 1.355 . S
C3915 C3917 1.415 . S
C3916 C3915 1.355 . S
C3916 C3918 1.419 . S
C3917 C3912 1.425 . S
C3917 C3914 1.409 . S
C3917 C3915 1.415 . S
C3918 H3908 0.930 . S
C3918 C3916 1.419 . S
C3918 C3919 1.362 . S
C3919 H3909 0.930 . S
C3919 C3912 1.409 . S
C3919 C3918 1.362 . S
H3920 C3926 0.930 . S
H3921 C3929 0.930 . S
H3922 C3930 0.930 . S
H3923 C3931 0.930 . S
H3924 C3934 0.930 . S
H3925 C3935 0.930 . S
C3926 H3920 0.930 . S
C3926 C3927 1.355 . S
C3926 C3928 1.415 . S
C3927 C3926 1.355 . S
C3927 C3929 1.419 . S
C3928 C3926 1.415 . S
C3928 C3933 1.425 . S
C3928 C3935 1.409 . S
C3929 H3921 0.930 . S
C3929 C3927 1.419 . S
C3929 C3930 1.362 . S
C3930 H3922 0.930 . S
C3930 C3929 1.362 . S
C3930 C3933 1.409 . S
C3931 H3923 0.930 . S
C3931 C3932 1.355 . S
C3931 C3933 1.415 . S
C3932 C3931 1.355 . S
C3932 C3934 1.419 . S
C3933 C3928 1.425 . S
C3933 C3930 1.409 . S
C3933 C3931 1.415 . S
C3934 H3924 0.930 . S
C3934 C3932 1.419 . S
C3934 C3935 1.362 . S
C3935 H3925 0.930 . S
C3935 C3928 1.409 . S
C3935 C3934 1.362 . S
H3936 C3942 0.930 . S
H3937 C3945 0.930 . S
H3938 C3946 0.930 . S
H3939 C3947 0.930 . S
H3940 C3950 0.930 . S
H3941 C3951 0.930 . S
C3942 H3936 0.930 . S
C3942 C3943 1.355 . S
C3942 C3944 1.415 . S
C3943 C3942 1.355 . S
C3943 C3945 1.419 . S
C3944 C3942 1.415 . S
C3944 C3949 1.425 . S
C3944 C3951 1.409 . S
C3945 H3937 0.930 . S
C3945 C3943 1.419 . S
C3945 C3946 1.362 . S
C3946 H3938 0.930 . S
C3946 C3945 1.362 . S
C3946 C3949 1.409 . S
C3947 H3939 0.930 . S
C3947 C3948 1.355 . S
C3947 C3949 1.415 . S
C3948 C3947 1.355 . S
C3948 C3950 1.419 . S
C3949 C3944 1.425 . S
C3949 C3946 1.409 . S
C3949 C3947 1.415 . S
C3950 H3940 0.930 . S
C3950 C3948 1.419 . S
C3950 C3951 1.362 . S
C3951 H3941 0.930 . S
C3951 C3944 1.409 . S
C3951 C3950 1.362 . S
H3952 C3958 0.930 . S
H3953 C3961 0.930 . S
H3954 C3962 0.930 . S
H3955 C3963 0.930 . S
H3956 C3966 0.930 . S
H3957 C3967 0.930 . S
C3958 H3952 0.930 . S
C3958 C3959 1.355 . S
C3958 C3960 1.415 . S
C3959 C3958 1.355 . S
C3959 C3961 1.419 . S
C3960 C3958 1.415 . S
C3960 C3965 1.425 . S
C3960 C3967 1.409 . S
C3961 H3953 0.930 . S
C3961 C3959 1.419 . S
C3961 C3962 1.362 . S
C3962 H3954 0.930 . S
C3962 C3961 1.362 . S
C3962 C3965 1.409 . S
C3963 H3955 0.930 . S
C3963 C3964 1.355 . S
C3963 C3965 1.415 . S
C3964 C3963 1.355 . S
C3964 C3966 1.419 . S
C3965 C3960 1.425 . S
C3965 C3962 1.409 . S
C3965 C3963 1.415 . S
C3966 H3956 0.930 . S
C3966 C3964 1.419 . S
C3966 C3967 1.362 . S
C3967 H3957 0.930 . S
C3967 C3960 1.409 . S
C3967 C3966 1.362 . S
H3968 C3974 0.930 . S
H3969 C3977 0.930 . S
H3970 C3978 0.930 . S
H3971 C3979 0.930 . S
H3972 C3982 0.930 . S
H3973 C3983 0.930 . S
C3974 H3968 0.930 . S
C3974 C3975 1.355 . S
C3974 C3976 1.415 . S
C3975 C3974 1.355 . S
C3975 C3977 1.419 . S
C3976 C3974 1.415 . S
C3976 C3981 1.425 . S
C3976 C3983 1.409 . S
C3977 H3969 0.930 . S
C3977 C3975 1.419 . S
C3977 C3978 1.362 . S
C3978 H3970 0.930 . S
C3978 C3977 1.362 . S
C3978 C3981 1.409 . S
C3979 H3971 0.930 . S
C3979 C3980 1.355 . S
C3979 C3981 1.415 . S
C3980 C3979 1.355 . S
C3980 C3982 1.419 . S
C3981 C3976 1.425 . S
C3981 C3978 1.409 . S
C3981 C3979 1.415 . S
C3982 H3972 0.930 . S
C3982 C3980 1.419 . S
C3982 C3983 1.362 . S
C3983 H3973 0.930 . S
C3983 C3976 1.409 . S
C3983 C3982 1.362 . S
H3984 C3990 0.930 . S
H3985 C3993 0.930 . S
H3986 C3994 0.930 . S
H3987 C3995 0.930 . S
H3988 C3998 0.930 . S
H3989 C3999 0.930 . S
C3990 H3984 0.930 . S
C3990 C3991 1.355 . S
C3990 C3992 1.415 . S
C3991 C3990 1.355 . S
C3991 C3993 1.419 . S
C3992 C3990 1.415 . S
C3992 C3997 1.425 . S
C3992 C3999 1.409 . S
C3993 H3985 0.930 . S
C3993 C3991 1.419 . S
C3993 C3994 1.362 . S
C3994 H3986 0.930 . S
C3994 C3993 1.362 . S
C3994 C3997 1.409 . S
C3995 H3987 0.930 . S
C3995 C3996 1.355 . S
C3995 C3997 1.415 . S
C3996 C3995 1.355 . S
C3996 C3998 1.419 . S
C3997 C3992 1.425 . S
C3997 C3994 1.409 . S
C3997 C3995 1.415 . S
C3998 H3988 0.930 . S
C3998 C3996 1.419 . S
C3998 C3999 1.362 . S
C3999 H3989 0.930 . S
C3999 C3992 1.409 . S
C3999 C3998 1.362 . S
H4000 C4006 0.930 . S
H4001 C4009 0.930 . S
H4002 C4010 0.930 . S
H4003 C4011 0.930 . S
H4004 C4014 0.930 . S
H4005 C4015 0.930 . S
C4006 H4000 0.930 . S
C4006 C4007 1.355 . S
C4006 C4008 1.415 . S
C4007 C4006 1.355 . S
C4007 C4009 1.419 . S
C4008 C4006 1.415 . S
C4008 C4013 1.425 . S
C4008 C4015 1.409 . S
C4009 H4001 0.930 . S
C4009 C4007 1.419 . S
C4009 C4010 1.362 . S
C4010 H4002 0.930 . S
C4010 C4009 1.362 . S
C4010 C4013 1.409 . S
C4011 H4003 0.930 . S
C4011 C4012 1.355 . S
C4011 C4013 1.415 . S
C4012 C4011 1.355 . S
C4012 C4014 1.419 . S
C4013 C4008 1.425 . S
C4013 C4010 1.409 . S
C4013 C4011 1.415 . S
C4014 H4004 0.930 . S
C4014 C4012 1.419 . S
C4014 C4015 1.362 . S
C4015 H4005 0.930 . S
C4015 C4008 1.409 . S
C4015 C4014 1.362 . S
H4016 C4022 0.930 . S
H4017 C4025 0.930 . S
H4018 C4026 0.930 . S
H4019 C4027 0.930 . S
H4020 C4030 0.930 . S
H4021 C4031 0.930 . S
C4022 H4016 0.930 . S
C4022 C4023 1.355 . S
C4022 C4024 1.415 . S
C4023 C4022 1.355 . S
C4023 C4025 1.419 . S
C4024 C4022 1.415 . S
C4024 C4029 1.425 . S
C4024 C4031 1.409 . S
C4025 H4017 0.930 . S
C4025 C4023 1.419 . S
C4025 C4026 1.362 . S
C4026 H4018 0.930 . S
C4026 C4025 1.362 . S
C4026 C4029 1.409 . S
C4027 H4019 0.930 . S
C4027 C4028 1.355 . S
C4027 C4029 1.415 . S
C4028 C4027 1.355 . S
C4028 C4030 1.419 . S
C4029 C4024 1.425 . S
C4029 C4026 1.409 . S
C4029 C4027 1.415 . S
C4030 H4020 0.930 . S
C4030 C4028 1.419 . S
C4030 C4031 1.362 . S
C4031 H4021 0.930 . S
C4031 C4024 1.409 . S
C4031 C4030 1.362 . S
H4032 C4038 0.930 . S
H4033 C4041 0.930 . S
H4034 C4042 0.930 . S
H4035 C4043 0.930 . S
H4036 C4046 0.930 . S
H4037 C4047 0.930 . S
C4038 H4032 0.930 . S
C4038 C4039 1.355 . S
C4038 C4040 1.415 . S
C4039 C4038 1.355 . S
C4039 C4041 1.419 . S
C4040 C4038 1.415 . S
C4040 C4045 1.425 . S
C4040 C4047 1.409 . S
C4041 H4033 0.930 . S
C4041 C4039 1.419 . S
C4041 C4042 1.362 . S
C4042 H4034 0.930 . S
C4042 C4041 1.362 . S
C4042 C4045 1.409 . S
C4043 H4035 0.930 . S
C4043 C4044 1.355 . S
C4043 C4045 1.415 . S
C4044 C4043 1.355 . S
C4044 C4046 1.419 . S
C4045 C4040 1.425 . S
C4045 C4042 1.409 . S
C4045 C4043 1.415 . S
C4046 H4036 0.930 . S
C4046 C4044 1.419 . S
C4046 C4047 1.362 . S
C4047 H4037 0.930 . S
C4047 C4040 1.409 . S
C4047 C4046 1.362 . S
H4048 C4054 0.930 . S
H4049 C4057 0.930 . S
H4050 C4058 0.930 . S
H4051 C4059 0.930 . S
H4052 C4062 0.930 . S
H4053 C4063 0.930 . S
C4054 H4048 0.930 . S
C4054 C4055 1.355 . S
C4054 C4056 1.415 1_556 S
C4055 C4054 1.355 . S
C4055 C4057 1.419 . S
C4056 C4054 1.415 1_554 S
C4056 C4061 1.425 . S
C4056 C4063 1.409 . S
C4057 H4049 0.930 . S
C4057 C4055 1.419 . S
C4057 C4058 1.362 . S
C4058 H4050 0.930 . S
C4058 C4057 1.362 . S
C4058 C4061 1.409 1_556 S
C4059 H4051 0.930 . S
C4059 C4060 1.355 . S
C4059 C4061 1.415 . S
C4060 C4059 1.355 . S
C4060 C4062 1.419 . S
C4061 C4056 1.425 . S
C4061 C4058 1.409 1_554 S
C4061 C4059 1.415 . S
C4062 H4052 0.930 . S
C4062 C4060 1.419 . S
C4062 C4063 1.362 . S
C4063 H4053 0.930 . S
C4063 C4056 1.409 . S
C4063 C4062 1.362 . S
H4064 C4070 0.930 . S
H4065 C4073 0.930 . S
H4066 C4074 0.930 . S
H4067 C4075 0.924 1_554 S
H4068 C4078 0.930 . S
H4069 C4079 0.930 . S
C4070 H4064 0.930 . S
C4070 C4071 1.355 . S
C4070 C4072 1.415 . S
C4071 C4070 1.355 . S
C4071 C4073 1.419 . S
C4072 C4070 1.415 . S
C4072 C4077 1.425 . S
C4072 C4079 1.409 . S
C4073 H4065 0.930 . S
C4073 C4071 1.419 . S
C4073 C4074 1.362 . S
C4074 H4066 0.930 . S
C4074 C4073 1.362 . S
C4074 C4077 1.409 . S
C4075 H4067 0.924 1_556 S
C4075 C4076 1.355 1_556 S
C4075 C4077 1.415 . S
C4076 C4075 1.355 1_554 S
C4076 C4078 1.419 . S
C4077 C4072 1.425 . S
C4077 C4074 1.409 . S
C4077 C4075 1.415 . S
C4078 H4068 0.930 . S
C4078 C4076 1.419 . S
C4078 C4079 1.362 1_554 S
C4079 H4069 0.930 . S
C4079 C4072 1.409 . S
C4079 C4078 1.362 1_556 S
H4080 C4086 0.930 . S
H4081 C4089 0.930 . S
H4082 C4090 0.930 . S
H4083 C4091 0.930 . S
H4084 C4094 0.930 . S
H4085 C4095 0.930 . S
C4086 H4080 0.930 . S
C4086 C4087 1.355 . S
C4086 C4088 1.415 . S
C4087 C4086 1.355 . S
C4087 C4089 1.419 . S
C4088 C4086 1.415 . S
C4088 C4093 1.425 . S
C4088 C4095 1.409 . S
C4089 H4081 0.930 . S
C4089 C4087 1.419 . S
C4089 C4090 1.362 . S
C4090 H4082 0.930 . S
C4090 C4089 1.362 . S
C4090 C4093 1.409 . S
C4091 H4083 0.930 . S
C4091 C4092 1.355 . S
C4091 C4093 1.415 . S
C4092 C4091 1.355 . S
C4092 C4094 1.419 . S
C4093 C4088 1.425 . S
C4093 C4090 1.409 . S
C4093 C4091 1.415 . S
C4094 H4084 0.930 . S
C4094 C4092 1.419 . S
C4094 C4095 1.362 . S
C4095 H4085 0.930 . S
C4095 C4088 1.409 . S
C4095 C4094 1.362 . S
H4096 C4102 0.930 . S
H4097 C4105 0.930 . S
H4098 C4106 0.930 . S
H4099 C4107 0.930 . S
H4100 C4110 0.917 1_565 S
H4101 C4111 0.930 . S
C4102 H4096 0.930 . S
C4102 C4103 1.355 . S
C4102 C4104 1.415 . S
C4103 C4102 1.355 . S
C4103 C4105 1.419 1_565 S
C4104 C4102 1.415 . S
C4104 C4109 1.425 1_565 S
C4104 C4111 1.409 . S
C4105 H4097 0.930 . S
C4105 C4103 1.419 1_545 S
C4105 C4106 1.362 . S
C4106 H4098 0.930 . S
C4106 C4105 1.362 . S
C4106 C4109 1.409 . S
C4107 H4099 0.930 . S
C4107 C4108 1.355 . S
C4107 C4109 1.415 . S
C4108 C4107 1.355 . S
C4108 C4110 1.419 . S
C4109 C4104 1.425 1_545 S
C4109 C4106 1.409 . S
C4109 C4107 1.415 . S
C4110 H4100 0.917 1_545 S
C4110 C4108 1.419 . S
C4110 C4111 1.362 1_545 S
C4111 H4101 0.930 . S
C4111 C4104 1.409 . S
C4111 C4110 1.362 1_565 S
H4112 C4118 0.930 . S
H4113 C4121 0.930 . S
H4114 C4122 0.930 . S
H4115 C4123 0.930 . S
H4116 C4126 0.930 . S
H4117 C4127 0.930 . S
C4118 H4112 0.930 . S
C4118 C4119 1.355 . S
C4118 C4120 1.415 . S
C4119 C4118 1.355 . S
C4119 C4121 1.419 . S
C4120 C4118 1.415 . S
C4120 C4125 1.425 . S
C4120 C4127 1.409 . S
C4121 H4113 0.930 . S
C4121 C4119 1.419 . S
C4121 C4122 1.362 . S
C4122 H4114 0.930 . S
C4122 C4121 1.362 . S
C4122 C4125 1.409 . S
C4123 H4115 0.930 . S
C4123 C4124 1.355 . S
C4123 C4125 1.415 . S
C4124 C4123 1.355 . S
C4124 C4126 1.419 . S
C4125 C4120 1.425 . S
C4125 C4122 1.409 . S
C4125 C4123 1.415 . S
C4126 H4116 0.930 . S
C4126 C4124 1.419 . S
C4126 C4127 1.362 . S
C4127 H4117 0.930 . S
C4127 C4120 1.409 . S
C4127 C4126 1.362 . S
H4128 C4134 0.930 . S
H4129 C4137 0.930 . S
H4130 C4138 0.930 . S
H4131 C4139 0.930 . S
H4132 C4142 0.930 . S
H4133 C4143 0.930 . S
C4134 H4128 0.930 . S
C4134 C4135 1.355 . S
C4134 C4136 1.415 . S
C4135 C4134 1.355 . S
C4135 C4137 1.419 . S
C4136 C4134 1.415 . S
C4136 C4141 1.425 . S
C4136 C4143 1.409 . S
C4137 H4129 0.930 . S
C4137 C4135 1.419 . S
C4137 C4138 1.362 . S
C4138 H4130 0.930 . S
C4138 C4137 1.362 . S
C4138 C4141 1.409 . S
C4139 H4131 0.930 . S
C4139 C4140 1.355 . S
C4139 C4141 1.415 . S
C4140 C4139 1.355 . S
C4140 C4142 1.419 . S
C4141 C4136 1.425 . S
C4141 C4138 1.409 . S
C4141 C4139 1.415 . S
C4142 H4132 0.930 . S
C4142 C4140 1.419 . S
C4142 C4143 1.362 . S
C4143 H4133 0.930 . S
C4143 C4136 1.409 . S
C4143 C4142 1.362 . S
H4144 C4150 0.930 . S
H4145 C4153 0.930 . S
H4146 C4154 0.930 . S
H4147 C4155 0.930 . S
H4148 C4158 0.930 . S
H4149 C4159 0.930 . S
C4150 H4144 0.930 . S
C4150 C4151 1.355 . S
C4150 C4152 1.415 1_554 S
C4151 C4150 1.355 . S
C4151 C4153 1.419 . S
C4152 C4150 1.415 1_556 S
C4152 C4157 1.425 . S
C4152 C4159 1.409 . S
C4153 H4145 0.930 . S
C4153 C4151 1.419 . S
C4153 C4154 1.362 . S
C4154 H4146 0.930 . S
C4154 C4153 1.362 . S
C4154 C4157 1.409 1_554 S
C4155 H4147 0.930 . S
C4155 C4156 1.355 . S
C4155 C4157 1.415 . S
C4156 C4155 1.355 . S
C4156 C4158 1.419 . S
C4157 C4152 1.425 . S
C4157 C4154 1.409 1_556 S
C4157 C4155 1.415 . S
C4158 H4148 0.930 . S
C4158 C4156 1.419 . S
C4158 C4159 1.362 . S
C4159 H4149 0.930 . S
C4159 C4152 1.409 . S
C4159 C4158 1.362 . S
H4160 C4166 0.930 1_545 S
H4161 C4169 0.930 . S
H4162 C4170 0.930 . S
H4163 C4171 0.930 . S
H4164 C4174 0.930 . S
H4165 C4175 0.930 . S
C4166 H4160 0.930 1_565 S
C4166 C4167 1.355 . S
C4166 C4168 1.412 1_565 S
C4167 C4166 1.355 . S
C4167 C4169 1.419 . S
C4168 C4166 1.412 1_545 S
C4168 C4173 1.405 1_545 S
C4168 C4175 1.431 . S
C4169 H4161 0.930 . S
C4169 C4167 1.419 . S
C4169 C4170 1.362 . S
C4170 H4162 0.930 . S
C4170 C4169 1.362 . S
C4170 C4173 1.409 . S
C4171 H4163 0.930 . S
C4171 C4172 1.355 1_565 S
C4171 C4173 1.415 . S
C4172 C4171 1.355 1_545 S
C4172 C4174 1.419 . S
C4173 C4168 1.405 1_565 S
C4173 C4170 1.409 . S
C4173 C4171 1.415 . S
C4174 H4164 0.930 . S
C4174 C4172 1.419 . S
C4174 C4175 1.362 . S
C4175 H4165 0.930 . S
C4175 C4168 1.431 . S
C4175 C4174 1.362 . S
H4176 C4182 0.930 . S
H4177 C4185 0.930 . S
H4178 C4186 0.930 . S
H4179 C4187 0.930 . S
H4180 C4190 0.930 . S
H4181 C4191 0.930 . S
C4182 H4176 0.930 . S
C4182 C4183 1.355 . S
C4182 C4184 1.415 . S
C4183 C4182 1.355 . S
C4183 C4185 1.419 . S
C4184 C4182 1.415 . S
C4184 C4189 1.425 . S
C4184 C4191 1.409 . S
C4185 H4177 0.930 . S
C4185 C4183 1.419 . S
C4185 C4186 1.362 . S
C4186 H4178 0.930 . S
C4186 C4185 1.362 . S
C4186 C4189 1.409 . S
C4187 H4179 0.930 . S
C4187 C4188 1.355 . S
C4187 C4189 1.415 . S
C4188 C4187 1.355 . S
C4188 C4190 1.419 . S
C4189 C4184 1.425 . S
C4189 C4186 1.409 . S
C4189 C4187 1.415 . S
C4190 H4180 0.930 . S
C4190 C4188 1.419 . S
C4190 C4191 1.362 . S
C4191 H4181 0.930 . S
C4191 C4184 1.409 . S
C4191 C4190 1.362 . S
H4192 C4198 0.930 . S
H4193 C4201 0.930 . S
H4194 C4202 0.930 . S
H4195 C4203 0.930 . S
H4196 C4206 0.930 . S
H4197 C4207 0.930 . S
C4198 H4192 0.930 . S
C4198 C4199 1.355 . S
C4198 C4200 1.415 . S
C4199 C4198 1.355 . S
C4199 C4201 1.419 . S
C4200 C4198 1.415 . S
C4200 C4205 1.425 . S
C4200 C4207 1.409 . S
C4201 H4193 0.930 . S
C4201 C4199 1.419 . S
C4201 C4202 1.362 . S
C4202 H4194 0.930 . S
C4202 C4201 1.362 . S
C4202 C4205 1.409 . S
C4203 H4195 0.930 . S
C4203 C4204 1.355 . S
C4203 C4205 1.415 . S
C4204 C4203 1.355 . S
C4204 C4206 1.419 . S
C4205 C4200 1.425 . S
C4205 C4202 1.409 . S
C4205 C4203 1.415 . S
C4206 H4196 0.930 . S
C4206 C4204 1.419 . S
C4206 C4207 1.362 . S
C4207 H4197 0.930 . S
C4207 C4200 1.409 . S
C4207 C4206 1.362 . S
H4208 C4214 0.930 . S
H4209 C4217 0.930 . S
H4210 C4218 0.930 . S
H4211 C4219 0.930 . S
H4212 C4222 0.930 . S
H4213 C4223 0.930 . S
C4214 H4208 0.930 . S
C4214 C4215 1.355 . S
C4214 C4216 1.415 . S
C4215 C4214 1.355 . S
C4215 C4217 1.419 . S
C4216 C4214 1.415 . S
C4216 C4221 1.425 . S
C4216 C4223 1.409 . S
C4217 H4209 0.930 . S
C4217 C4215 1.419 . S
C4217 C4218 1.362 . S
C4218 H4210 0.930 . S
C4218 C4217 1.362 . S
C4218 C4221 1.409 . S
C4219 H4211 0.930 . S
C4219 C4220 1.355 . S
C4219 C4221 1.415 . S
C4220 C4219 1.355 . S
C4220 C4222 1.419 . S
C4221 C4216 1.425 . S
C4221 C4218 1.409 . S
C4221 C4219 1.415 . S
C4222 H4212 0.930 . S
C4222 C4220 1.419 . S
C4222 C4223 1.362 . S
C4223 H4213 0.930 . S
C4223 C4216 1.409 . S
C4223 C4222 1.362 . S
C2695 C58 0.818 . S
C2700 C394 0.705 . S
C2711 C487 0.758 . S
C2716 C142 0.727 . S
C2727 C235 0.683 . S
C2732 C562 0.744 . S
C2743 C646 0.811 . S
C2748 C319 0.513 . S
C2759 C742 0.864 . S
C2764 C1078 0.918 . S
C2775 C826 0.871 . S
C2780 C1147 0.702 . S
C2791 C1246 0.882 . S
C2796 C895 0.707 . S
C2807 C979 0.535 . S
C2812 C1330 0.853 . S
C2823 C1738 0.703 . S
C2828 C1402 0.899 1_565 S
C2839 C1486 0.871 . S
C2844 C1831 0.732 . S
C2855 C1579 0.752 . S
C2860 C1906 0.802 . S
C2871 C1663 0.526 . S
C2876 C1990 0.847 . S
C2887 C2086 0.753 1_545 S
C2892 C2422 0.920 . S
C2903 C2491 0.716 . S
C2908 C2170 0.883 . S
C2919 C2239 0.681 1_545 S
C2924 C2590 0.768 . S
C2935 C2674 0.733 . S
C2940 C2323 0.625 . S
C2951 C1820 2.084 . S
C2956 C68 2.152 . S
C2967 C1916 1.547 . S
C2972 C152 1.551 . S
C2983 C2000 2.270 . S
C2988 C224 2.246 . S
C2999 C308 1.738 . S
C3004 C1748 1.808 . S
C3015 C404 1.766 . S
C3020 C1652 1.694 . S
C3031 C1412 2.134 . S
C3036 C476 2.072 . S
C3047 C572 1.565 . S
C3052 C1496 1.551 . S
C3063 C656 2.225 . S
C3068 C1568 2.200 . S
C3079 C728 2.138 . S
C3084 C2504 2.035 . S
C3095 C2576 1.557 . S
C3100 C812 1.566 . S
C3111 C2660 2.248 . S
C3116 C908 2.226 . S
C3127 C992 1.769 . S
C3132 C2408 1.820 . S
C3143 C1064 1.785 . S
C3148 C2336 1.705 . S
C3159 C1160 2.055 . S
C3164 C2072 2.149 . S
C3175 C1232 1.547 . S
C3180 C2156 1.565 . S
C3191 C1316 2.226 1_554 S
C3196 C2252 2.192 . S
C3207 C740 1.138 . S
C3212 C56 1.138 . S
C3223 C140 1.081 . S
C3228 C2168 1.081 . S
C3239 C896 1.380 . S
C3244 C236 1.380 . S
C3255 C320 1.292 . S
C3260 C2324 1.292 . S
C3271 C1076 0.982 . S
C3276 C392 0.982 . S
C3287 C2492 1.507 . S
C3292 C488 1.507 . S
C3303 C560 1.021 . S
C3308 C1244 1.021 . S
C3319 C644 1.304 . S
C3324 C2672 1.304 . S
C3335 C1484 1.098 . S
C3340 C824 1.098 . S
C3351 C1664 1.316 . S
C3356 C980 1.316 . S
C3367 C1148 1.531 . S
C3372 C1832 1.531 . S
C3383 C1988 1.253 . S
C3388 C1328 1.253 . S
C3399 C2084 0.999 . S
C3404 C1400 0.999 . S
C3415 C2240 1.375 1_545 S
C3420 C1580 1.375 1_565 S
C3431 C2420 0.976 . S
C3436 C1736 0.976 . S
C3447 C1904 1.113 1_455 S
C3452 C2588 1.113 1_655 S
C3463 C70 1.735 . S
C3468 C1075 1.783 . S
C3479 C2494 0.875 . S
C3484 C154 0.757 . S
C3495 C1243 2.155 . S
C3500 C223 2.023 . S
C3511 C307 1.840 . S
C3516 C2671 1.871 . S
C3527 C739 1.603 . S
C3532 C406 1.593 1_655 S
C3543 C2167 2.137 . S
C3548 C475 2.033 . S
C3559 C898 0.852 . S
C3564 C574 0.767 . S
C3575 C2326 0.923 . S
C3580 C658 1.073 . S
C3591 C391 1.775 . S
C3596 C730 1.718 . S
C3607 C1834 0.874 . S
C3612 C814 0.777 . S
C3623 C559 2.149 . S
C3628 C907 2.048 . S
C3639 C991 1.785 . S
C3644 C1987 1.892 . S
C3655 C55 1.599 . S
C3660 C1066 1.562 1_455 S
C3671 C1483 2.144 . S
C3676 C1159 2.005 . S
C3687 C1234 0.823 . S
C3692 C238 0.895 . S
C3703 C1318 1.065 . S
C3708 C1666 0.963 . S
C3719 C2419 1.777 . S
C3724 C1414 1.763 . S
C3735 C1150 0.841 . S
C3740 C1498 0.704 . S
C3751 C1567 2.070 . S
C3756 C2587 2.144 . S
C3767 C1327 1.876 . S
C3772 C1651 1.826 . S
C3783 C1750 1.544 . S
C3788 C2083 1.600 . S
C3799 C1819 2.053 . S
C3804 C823 2.134 . S
C3815 C2242 0.833 . S
C3820 C1918 0.756 . S
C3831 C982 0.978 . S
C3836 C2002 1.015 . S
C3847 C2074 1.739 . S
C3852 C1735 1.769 1_556 S
C3863 C2158 0.819 . S
C3868 C490 0.773 . S
C3879 C2251 2.054 . S
C3884 C1903 2.148 . S
C3895 C2335 1.776 . S
C3900 C643 1.895 . S
C3911 C1399 1.605 . S
C3916 C2410 1.584 . S
C3927 C139 2.143 . S
C3932 C2503 2.014 . S
C3943 C2578 0.794 . S
C3948 C1582 0.637 . S
C3959 C322 0.872 . S
C3964 C2662 1.072 . S
C3975 C403 2.381 . S
C3980 C67 2.386 . S
C3991 C478 2.304 . S
C3996 C151 2.336 . S
C4007 C226 2.272 . S
C4012 C571 2.255 . S
C4023 C655 2.265 . S
C4028 C310 2.215 . S
C4039 C1063 2.389 . S
C4044 C727 2.381 . S
C4055 C811 2.308 . S
C4060 C1162 2.334 . S
C4071 C910 2.263 . S
C4076 C1231 2.250 . S
C4087 C1315 2.276 . S
C4092 C994 2.254 . S
C4103 C1411 2.352 . S
C4108 C1747 2.394 . S
C4119 C1822 2.302 . S
C4124 C1495 2.332 . S
C4135 C1570 2.267 . S
C4140 C1915 2.252 . S
C4151 C1654 2.248 . S
C4156 C1999 2.243 . S
C4167 C2407 2.408 1_556 S
C4172 C2071 2.361 . S
C4183 C2506 2.320 . S
C4188 C2155 2.304 . S
C4199 C2254 2.281 . S
C4204 C2575 2.270 . S
C4215 C2659 2.243 . S
C4220 C2338 2.214 . S
