# Generated by pormake.
# Topology yfy, (5)-cn, num edge types: 1
# Building blocks:
#     Node 0, Type 0, BuildingBlock: XOMCOT_clean_sbu_0, # of connection points: 5
#     Node 1, Type 0, BuildingBlock: XOMCOT_clean_sbu_0, # of connection points: 5
#     Node 2, Type 0, BuildingBlock: XOMCOT_clean_sbu_0, # of connection points: 5
#     Node 3, Type 0, BuildingBlock: XOMCOT_clean_sbu_0, # of connection points: 5
#     Node 4, Type 0, BuildingBlock: XOMCOT_clean_sbu_0, # of connection points: 5
#     Node 5, Type 0, BuildingBlock: XOMCOT_clean_sbu_0, # of connection points: 5
#     Node 6, Type 0, BuildingBlock: XOMCOT_clean_sbu_0, # of connection points: 5
#     Node 7, Type 0, BuildingBlock: XOMCOT_clean_sbu_0, # of connection points: 5
#     Node 8, Type 0, BuildingBlock: XOMCOT_clean_sbu_0, # of connection points: 5
#     Node 9, Type 0, BuildingBlock: XOMCOT_clean_sbu_0, # of connection points: 5
#     Node 10, Type 0, BuildingBlock: XOMCOT_clean_sbu_0, # of connection points: 5
#     Node 11, Type 0, BuildingBlock: XOMCOT_clean_sbu_0, # of connection points: 5
#     Node 12, Type 0, BuildingBlock: XOMCOT_clean_sbu_0, # of connection points: 5
#     Node 13, Type 0, BuildingBlock: XOMCOT_clean_sbu_0, # of connection points: 5
#     Node 14, Type 0, BuildingBlock: XOMCOT_clean_sbu_0, # of connection points: 5
#     Node 15, Type 0, BuildingBlock: XOMCOT_clean_sbu_0, # of connection points: 5
#     Edge 16, Type (0, 0), BuildingBlock: CIFDUS_clean_linker_0, # of connection points: 2
#     Edge 17, Type (0, 0), BuildingBlock: CIFDUS_clean_linker_0, # of connection points: 2
#     Edge 18, Type (0, 0), BuildingBlock: CIFDUS_clean_linker_0, # of connection points: 2
#     Edge 19, Type (0, 0), BuildingBlock: CIFDUS_clean_linker_0, # of connection points: 2
#     Edge 20, Type (0, 0), BuildingBlock: CIFDUS_clean_linker_0, # of connection points: 2
#     Edge 21, Type (0, 0), BuildingBlock: CIFDUS_clean_linker_0, # of connection points: 2
#     Edge 22, Type (0, 0), BuildingBlock: CIFDUS_clean_linker_0, # of connection points: 2
#     Edge 23, Type (0, 0), BuildingBlock: CIFDUS_clean_linker_0, # of connection points: 2
#     Edge 24, Type (0, 0), BuildingBlock: CIFDUS_clean_linker_0, # of connection points: 2
#     Edge 25, Type (0, 0), BuildingBlock: CIFDUS_clean_linker_0, # of connection points: 2
#     Edge 26, Type (0, 0), BuildingBlock: CIFDUS_clean_linker_0, # of connection points: 2
#     Edge 27, Type (0, 0), BuildingBlock: CIFDUS_clean_linker_0, # of connection points: 2
#     Edge 28, Type (0, 0), BuildingBlock: CIFDUS_clean_linker_0, # of connection points: 2
#     Edge 29, Type (0, 0), BuildingBlock: CIFDUS_clean_linker_0, # of connection points: 2
#     Edge 30, Type (0, 0), BuildingBlock: CIFDUS_clean_linker_0, # of connection points: 2
#     Edge 31, Type (0, 0), BuildingBlock: CIFDUS_clean_linker_0, # of connection points: 2
#     Edge 32, Type (0, 0), BuildingBlock: CIFDUS_clean_linker_0, # of connection points: 2
#     Edge 33, Type (0, 0), BuildingBlock: CIFDUS_clean_linker_0, # of connection points: 2
#     Edge 34, Type (0, 0), BuildingBlock: CIFDUS_clean_linker_0, # of connection points: 2
#     Edge 35, Type (0, 0), BuildingBlock: CIFDUS_clean_linker_0, # of connection points: 2
#     Edge 36, Type (0, 0), BuildingBlock: CIFDUS_clean_linker_0, # of connection points: 2
#     Edge 37, Type (0, 0), BuildingBlock: CIFDUS_clean_linker_0, # of connection points: 2
#     Edge 38, Type (0, 0), BuildingBlock: CIFDUS_clean_linker_0, # of connection points: 2
#     Edge 39, Type (0, 0), BuildingBlock: CIFDUS_clean_linker_0, # of connection points: 2
#     Edge 40, Type (0, 0), BuildingBlock: CIFDUS_clean_linker_0, # of connection points: 2
#     Edge 41, Type (0, 0), BuildingBlock: CIFDUS_clean_linker_0, # of connection points: 2
#     Edge 42, Type (0, 0), BuildingBlock: CIFDUS_clean_linker_0, # of connection points: 2
#     Edge 43, Type (0, 0), BuildingBlock: CIFDUS_clean_linker_0, # of connection points: 2
#     Edge 44, Type (0, 0), BuildingBlock: CIFDUS_clean_linker_0, # of connection points: 2
#     Edge 45, Type (0, 0), BuildingBlock: CIFDUS_clean_linker_0, # of connection points: 2
#     Edge 46, Type (0, 0), BuildingBlock: CIFDUS_clean_linker_0, # of connection points: 2
#     Edge 47, Type (0, 0), BuildingBlock: CIFDUS_clean_linker_0, # of connection points: 2
#     Edge 48, Type (0, 0), BuildingBlock: CIFDUS_clean_linker_0, # of connection points: 2
#     Edge 49, Type (0, 0), BuildingBlock: CIFDUS_clean_linker_0, # of connection points: 2
#     Edge 50, Type (0, 0), BuildingBlock: CIFDUS_clean_linker_0, # of connection points: 2
#     Edge 51, Type (0, 0), BuildingBlock: CIFDUS_clean_linker_0, # of connection points: 2
#     Edge 52, Type (0, 0), BuildingBlock: CIFDUS_clean_linker_0, # of connection points: 2
#     Edge 53, Type (0, 0), BuildingBlock: CIFDUS_clean_linker_0, # of connection points: 2
#     Edge 54, Type (0, 0), BuildingBlock: CIFDUS_clean_linker_0, # of connection points: 2
#     Edge 55, Type (0, 0), BuildingBlock: CIFDUS_clean_linker_0, # of connection points: 2
# Relax obj value: 0.250
# Max RMSD: 0.241
# Mean RMSD: 0.241
data_MOF--net-yfy--node1-XOMCOT_clean_sbu_0--edge1-CIFDUS_clean_linker_0
_symmetry_space_group_name_H-M    P1
_symmetry_Int_Tables_number       1
_symmetry_cell_setting            triclinic
loop_
_symmetry_equiv_pos_as_xyz
'x, y, z'
_cell_length_a     38.996514
_cell_length_b     38.966453
_cell_length_c     44.146088
_cell_angle_alpha  89.974385
_cell_angle_beta   89.902029
_cell_angle_gamma 89.832484
loop_
_atom_site_label
_atom_site_type_symbol
_atom_site_fract_x
_atom_site_fract_y
_atom_site_fract_z
_atom_type_partial_charge
Co0 Co 0.0279 0.30888 0.31959 0.0
C1 C 0.98471 0.24567 0.31139 0.0
C2 C 0.95442 0.29158 0.31398 0.0
C3 C 0.93284 0.26423 0.309 0.0
N4 N 0.9871 0.28016 0.31513 0.0
N5 N 0.95188 0.2354 0.30739 0.0
H6 H 1.00633 0.22825 0.31154 0.0
H7 H 0.94654 0.31797 0.31692 0.0
C8 C 1.00426 0.38071 0.29872 0.0
O9 O 0.03148 0.39556 0.31008 0.0
N10 N 0.06917 0.33674 0.32317 0.0
C11 C 0.08985 0.33874 0.34751 0.0
C12 C 0.11801 0.35828 0.3402 0.0
C13 C 0.08623 0.35342 0.30083 0.0
N14 N 0.11563 0.36793 0.31089 0.0
C15 C 1.01047 0.29268 0.3798 0.0
C16 C 0.0232 0.35646 0.40458 0.0
C17 C 0.02482 0.32741 0.42329 0.0
C18 C 0.01592 0.29562 0.41088 0.0
C19 C 0.01753 0.35235 0.37335 0.0
N20 N 0.01413 0.32031 0.36104 0.0
H21 H 1.0074 0.26727 0.37046 0.0
H22 H 0.02006 0.37451 0.35919 0.0
H23 H 0.08525 0.32618 0.36898 0.0
H24 H 0.07667 0.35563 0.27791 0.0
O25 O 0.05519 0.26989 0.33029 0.0
O26 O 0.04794 0.28829 0.28324 0.0
O27 O 1.00021 0.34815 0.30087 0.0
C28 C 0.06262 0.26664 0.30184 0.0
H29 H 0.90514 0.2653 0.3076 0.0
H30 H 0.13895 0.3643 0.35531 0.0
H31 H 0.02955 0.38159 0.41336 0.0
H32 H 0.01602 0.27262 0.42469 0.0
Co33 Co 0.80049 0.02894 0.31517 0.0
C34 C 0.86528 0.98875 0.30612 0.0
C35 C 0.82058 0.95681 0.30567 0.0
C36 C 0.8489 0.93646 0.30072 0.0
N37 N 0.83069 0.98973 0.30871 0.0
N38 N 0.87692 0.95655 0.30104 0.0
H39 H 0.88179 1.01087 0.30816 0.0
H40 H 0.7945 0.94781 0.30761 0.0
C41 C 0.72932 1.00343 0.29399 0.0
O42 O 0.71359 0.03035 0.30526 0.0
N43 N 0.77108 0.06853 0.32107 0.0
C44 C 0.7685 0.08793 0.34624 0.0
C45 C 0.74938 0.1167 0.33967 0.0
C46 C 0.75503 0.08667 0.29921 0.0
N47 N 0.74074 0.11581 0.31007 0.0
C48 C 0.8178 1.01031 0.37485 0.0
C49 C 0.75279 0.01693 0.39924 0.0
C50 C 0.78131 0.02033 0.41823 0.0
C51 C 0.81396 0.01441 0.40602 0.0
C52 C 0.75782 0.01276 0.36797 0.0
N53 N 0.7902 0.01252 0.35597 0.0
H54 H 0.84347 1.00961 0.36563 0.0
H55 H 0.73575 0.01405 0.35362 0.0
H56 H 0.78082 0.08233 0.36761 0.0
H57 H 0.75368 0.07832 0.27587 0.0
O58 O 0.83864 0.05762 0.32619 0.0
O59 O 0.81931 0.05196 0.27937 0.0
O60 O 0.76202 1.00046 0.296 0.0
C61 C 0.84053 0.06691 0.29806 0.0
H62 H 0.84904 0.90881 0.2983 0.0
H63 H 0.7433 0.13718 0.35533 0.0
H64 H 0.72711 0.02108 0.40791 0.0
H65 H 0.83662 0.01619 0.4201 0.0
Co66 Co 0.08066 0.8045 0.31915 0.0
C67 C 0.12197 0.86807 0.30819 0.0
C68 C 0.15331 0.82402 0.3176 0.0
C69 C 0.17444 0.85122 0.31096 0.0
N70 N 0.12035 0.83441 0.31563 0.0
N71 N 0.15469 0.87882 0.30501 0.0
H72 H 0.0999 0.88444 0.30474 0.0
H73 H 0.16153 0.7983 0.32334 0.0
C74 C 0.10898 0.73466 0.29665 0.0
O75 O 0.08322 0.71665 0.30721 0.0
N76 N 0.04103 0.77487 0.32135 0.0
C77 C 0.01781 0.77263 0.34388 0.0
C78 C 0.98944 0.75537 0.33322 0.0
C79 C 0.02612 0.75995 0.29723 0.0
N80 N 0.99467 0.74749 0.30375 0.0
C81 C 0.09925 0.81975 0.37948 0.0
C82 C 0.09174 0.75478 0.40364 0.0
C83 C 0.09541 0.78273 0.42341 0.0
C84 C 0.1003 0.81537 0.41079 0.0
C85 C 0.09135 0.76026 0.37219 0.0
N86 N 0.09392 0.79266 0.3605 0.0
H87 H 0.10038 0.84555 0.37055 0.0
H88 H 0.0863 0.73877 0.3577 0.0
H89 H 0.0204 0.78449 0.3659 0.0
H90 H 0.038 0.75928 0.2751 0.0
O91 O 0.0514 0.84247 0.32956 0.0
O92 O 0.06099 0.82446 0.28261 0.0
O93 O 0.11019 0.76724 0.30024 0.0
C94 C 0.04462 0.84519 0.30088 0.0
H95 H 0.2022 0.85094 0.31109 0.0
H96 H 0.96616 0.75067 0.34589 0.0
H97 H 0.08804 0.72908 0.41238 0.0
H98 H 0.10271 0.83786 0.42503 0.0
Co99 Co 0.30497 0.07845 0.31432 0.0
C100 C 0.24105 0.12211 0.31404 0.0
C101 C 0.28181 0.1432 0.28758 0.0
C102 C 0.25329 0.1632 0.28346 0.0
N103 N 0.2748 0.11781 0.30746 0.0
N104 N 0.2275 0.14993 0.29994 0.0
H105 H 0.22599 0.10413 0.32707 0.0
H106 H 0.30509 0.14573 0.27466 0.0
C107 C 0.37711 0.10652 0.29675 0.0
O108 O 0.39401 0.07869 0.30441 0.0
N109 N 0.33445 0.03869 0.31873 0.0
C110 C 0.33555 0.01577 0.34159 0.0
C111 C 0.35311 0.98696 0.33182 0.0
C112 C 0.35029 0.02311 0.29531 0.0
N113 N 0.36217 0.9916 0.30256 0.0
C114 C 0.28467 0.0909 0.37519 0.0
C115 C 0.34913 0.08569 0.40063 0.0
C116 C 0.32025 0.08151 0.41924 0.0
C117 C 0.28783 0.08631 0.40636 0.0
C118 C 0.3448 0.09056 0.36929 0.0
N119 N 0.31274 0.09105 0.35668 0.0
H120 H 0.25928 0.09052 0.36585 0.0
H121 H 0.36726 0.09008 0.35516 0.0
H122 H 0.32264 0.01878 0.36314 0.0
H123 H 0.35209 0.03455 0.27305 0.0
O124 O 0.26632 0.0494 0.32144 0.0
O125 O 0.28885 0.05899 0.27609 0.0
O126 O 0.34447 0.10841 0.2999 0.0
C127 C 0.26601 0.04319 0.29265 0.0
H128 H 0.2516 0.18537 0.26876 0.0
H129 H 0.3571 0.96371 0.34478 0.0
H130 H 0.37471 0.08225 0.40969 0.0
H131 H 0.26481 0.08393 0.41997 0.0
Co132 Co 0.04371 0.80422 0.69704 0.0
C133 C 0.9954 0.86484 0.69482 0.0
C134 C 0.98287 0.82884 0.7296 0.0
C135 C 0.96183 0.85688 0.73276 0.0
N136 N 1.00339 0.83297 0.70518 0.0
N137 N 0.96974 0.87972 0.711 0.0
H138 H 1.00972 0.87822 0.67755 0.0
H139 H 0.98443 0.80789 0.74557 0.0
C140 C 0.99063 0.75191 0.71107 0.0
O141 O 0.97164 0.76711 0.69044 0.0
N142 N 0.08419 0.77615 0.69141 0.0
C143 C 0.10642 0.77622 0.66804 0.0
C144 C 0.13291 0.75389 0.67467 0.0
C145 C 0.09755 0.75437 0.71202 0.0
N146 N 0.12734 0.74027 0.7024 0.0
C147 C 0.02472 0.81599 0.63551 0.0
C148 C 0.03187 0.74871 0.6166 0.0
C149 C 0.03156 0.77495 0.59491 0.0
C150 C 0.02644 0.80871 0.60463 0.0
C151 C 0.03034 0.75715 0.64749 0.0
N152 N 0.02802 0.79068 0.65671 0.0
H153 H 0.02449 0.84248 0.64209 0.0
H154 H 0.03455 0.73698 0.66389 0.0
H155 H 0.10384 0.79181 0.64788 0.0
H156 H 0.08575 0.74923 0.73374 0.0
O157 O 0.06905 0.84367 0.68447 0.0
O158 O 0.06593 0.82522 0.73189 0.0
O159 O 0.02051 0.76358 0.71701 0.0
C160 C 0.07832 0.84727 0.71245 0.0
H161 H 0.9428 0.86043 0.75035 0.0
H162 H 0.15506 0.7489 0.66052 0.0
H163 H 0.03616 0.72231 0.60991 0.0
H164 H 0.02614 0.82969 0.58851 0.0
Co165 Co 0.31173 0.04539 0.69979 0.0
C166 C 0.25275 0.99588 0.69791 0.0
C167 C 0.29092 0.98259 0.73058 0.0
C168 C 0.26386 0.96069 0.7341 0.0
N169 N 0.28482 1.00409 0.70717 0.0
N170 N 0.23964 0.96913 0.71374 0.0
H171 H 0.23804 1.01075 0.68187 0.0
H172 H 0.31248 0.98407 0.74582 0.0
C173 C 0.36593 0.99231 0.70945 0.0
O174 O 0.35052 0.97427 0.68835 0.0
N175 N 0.33835 0.08655 0.69547 0.0
C176 C 0.33651 0.11182 0.67467 0.0
C177 C 0.35598 0.13915 0.68483 0.0
C178 C 0.35831 0.09866 0.71774 0.0
N179 N 0.36921 0.13076 0.71211 0.0
C180 C 0.29777 0.0291 0.63787 0.0
C181 C 0.36392 0.03859 0.61702 0.0
C182 C 0.3371 0.03729 0.59584 0.0
C183 C 0.30386 0.03121 0.60675 0.0
C184 C 0.3567 0.03629 0.64809 0.0
N185 N 0.32374 0.03251 0.65829 0.0
H186 H 0.27159 0.02809 0.64534 0.0
H187 H 0.37733 0.04047 0.66397 0.0
H188 H 0.32085 0.11109 0.65449 0.0
H189 H 0.36337 0.08464 0.73843 0.0
O190 O 0.27084 0.0707 0.69023 0.0
O191 O 0.2921 0.0652 0.73652 0.0
O192 O 0.35393 0.02174 0.71696 0.0
C193 C 0.26883 0.07847 0.71872 0.0
H194 H 0.2619 0.94077 0.75109 0.0
H195 H 0.35857 0.16387 0.67387 0.0
H196 H 0.39008 0.04302 0.60979 0.0
H197 H 0.28207 0.0308 0.59159 0.0
Co198 Co 0.07152 0.31181 0.69875 0.0
C199 C 0.11547 0.24899 0.70768 0.0
C200 C 0.14477 0.29519 0.70329 0.0
C201 C 0.16701 0.26843 0.70863 0.0
N202 N 0.11233 0.28321 0.70301 0.0
N203 N 0.14856 0.23946 0.71138 0.0
H204 H 0.09428 0.2313 0.70858 0.0
H205 H 0.15196 0.32167 0.6997 0.0
C206 C 0.09743 0.38098 0.7262 0.0
O207 O 0.07287 0.40047 0.71533 0.0
N208 N 0.0309 0.34029 0.69486 0.0
C209 C 0.01095 0.34283 0.67009 0.0
C210 C 0.98339 0.36361 0.67667 0.0
C211 C 0.0144 0.35833 0.71658 0.0
N212 N 0.98565 0.37368 0.70588 0.0
C213 C 0.09126 0.30084 0.63804 0.0
C214 C 0.08346 0.36763 0.61826 0.0
C215 C 0.0832 0.34108 0.59671 0.0
C216 C 0.08906 0.30748 0.60704 0.0
C217 C 0.08557 0.35978 0.64922 0.0
N218 N 0.08723 0.32647 0.6588 0.0
H219 H 0.09267 0.27443 0.64544 0.0
H220 H 0.0823 0.38027 0.66514 0.0
H221 H 0.01589 0.33008 0.64875 0.0
H222 H 0.02371 0.36055 0.73956 0.0
O223 O 0.04489 0.27334 0.68514 0.0
O224 O 0.04992 0.28895 0.73325 0.0
O225 O 0.09822 0.34866 0.72103 0.0
C226 C 0.03655 0.26831 0.71321 0.0
H227 H 0.19471 0.26996 0.70959 0.0
H228 H 0.96301 0.37025 0.66114 0.0
H229 H 0.07996 0.39411 0.61148 0.0
H230 H 0.089 0.28587 0.59165 0.0
Co231 Co 0.80613 0.0778 0.69203 0.0
C232 C 0.85862 0.12991 0.71006 0.0
C233 C 0.82861 0.14784 0.67263 0.0
C234 C 0.85091 0.17335 0.68077 0.0
N235 N 0.83293 0.12041 0.69111 0.0
N236 N 0.86965 0.16209 0.70423 0.0
H237 H 0.86897 0.11399 0.72792 0.0
H238 H 0.8107 0.14973 0.65412 0.0
C239 C 0.7506 0.12969 0.70657 0.0
O240 O 0.75637 0.14449 0.68042 0.0
N241 N 0.77991 0.03588 0.69398 0.0
C242 C 0.77982 1.00992 0.67386 0.0
C243 C 0.75965 0.9839 0.68515 0.0
C244 C 0.76028 0.02529 0.7173 0.0
N245 N 0.74744 0.99357 0.71252 0.0
C246 C 0.81128 0.08816 0.62903 0.0
C247 C 0.74353 0.07561 0.61468 0.0
C248 C 0.76804 0.07635 0.59128 0.0
C249 C 0.8021 0.08372 0.5989 0.0
C250 C 0.75385 0.08059 0.64485 0.0
N251 N 0.78758 0.08619 0.65173 0.0
H252 H 0.83814 0.09119 0.63433 0.0
H253 H 0.73524 0.07738 0.6628 0.0
H254 H 0.79394 1.00971 0.65274 0.0
H255 H 0.75583 0.04046 0.73744 0.0
O256 O 0.84533 0.05189 0.67862 0.0
O257 O 0.83247 0.06096 0.72672 0.0
O258 O 0.7674 0.10271 0.71414 0.0
C259 C 0.85235 0.046 0.70679 0.0
H260 H 0.85376 0.19808 0.66987 0.0
H261 H 0.75524 0.95935 0.67441 0.0
H262 H 0.71694 0.06987 0.60989 0.0
H263 H 0.82223 0.08366 0.58198 0.0
Co264 Co 0.53719 0.8092 0.81693 0.0
C265 C 0.49475 0.74561 0.80878 0.0
C266 C 0.4644 0.79088 0.81618 0.0
C267 C 0.44266 0.76384 0.81101 0.0
N268 N 0.49712 0.77968 0.81446 0.0
N269 N 0.46174 0.7355 0.80634 0.0
H270 H 0.51644 0.7285 0.80622 0.0
H271 H 0.4567 0.81701 0.82092 0.0
C272 C 0.50854 0.87888 0.79401 0.0
O273 O 0.53371 0.89741 0.80489 0.0
N274 N 0.57705 0.83869 0.81821 0.0
C275 C 0.59982 0.84258 0.84089 0.0
C276 C 0.62675 0.86227 0.83053 0.0
C277 C 0.59112 0.85468 0.79414 0.0
N278 N 0.62119 0.8698 0.80109 0.0
C279 C 0.52115 0.79433 0.87763 0.0
C280 C 0.53335 0.85878 0.90129 0.0
C281 C 0.53428 0.83021 0.92061 0.0
C282 C 0.52589 0.79808 0.90869 0.0
C283 C 0.52831 0.85388 0.87005 0.0
N284 N 0.5247 0.82156 0.8584 0.0
H285 H 0.5184 0.76867 0.86874 0.0
H286 H 0.53134 0.87557 0.85534 0.0
H287 H 0.59763 0.83096 0.86306 0.0
H288 H 0.57943 0.85508 0.77193 0.0
O289 O 0.56623 0.77117 0.82749 0.0
O290 O 0.55627 0.78841 0.78041 0.0
O291 O 0.50781 0.84631 0.79772 0.0
C292 C 0.5725 0.76772 0.79879 0.0
H293 H 0.4149 0.76473 0.81137 0.0
H294 H 0.64927 0.86936 0.84336 0.0
H295 H 0.53959 0.88409 0.90971 0.0
H296 H 0.52578 0.77544 0.92296 0.0
Co297 Co 0.3008 0.54074 0.81801 0.0
C298 C 0.36148 0.49268 0.81786 0.0
C299 C 0.3232 0.47834 0.78577 0.0
C300 C 0.35086 0.45675 0.7823 0.0
N301 N 0.32906 0.5003 0.80886 0.0
N302 N 0.37504 0.46575 0.80249 0.0
H303 H 0.37612 0.50798 0.83353 0.0
H304 H 0.30111 0.47895 0.77106 0.0
C305 C 0.24709 0.48741 0.80766 0.0
O306 O 0.26333 0.46831 0.82759 0.0
N307 N 0.27317 0.58129 0.82474 0.0
C308 C 0.27474 0.60384 0.84779 0.0
C309 C 0.253 0.63093 0.84147 0.0
C310 C 0.25108 0.59504 0.80462 0.0
N311 N 0.23829 0.62542 0.81421 0.0
C312 C 0.31742 0.52083 0.87868 0.0
C313 C 0.25196 0.52649 0.90225 0.0
C314 C 0.27963 0.52239 0.92224 0.0
C315 C 0.31252 0.51867 0.90989 0.0
C316 C 0.25796 0.52782 0.87085 0.0
N317 N 0.29055 0.52553 0.85935 0.0
H318 H 0.34329 0.52165 0.87059 0.0
H319 H 0.2366 0.53318 0.85599 0.0
H320 H 0.29122 0.60123 0.86735 0.0
H321 H 0.24508 0.58325 0.78309 0.0
O322 O 0.34127 0.5665 0.82737 0.0
O323 O 0.3185 0.56246 0.7815 0.0
O324 O 0.25869 0.51717 0.80095 0.0
C325 C 0.34214 0.5753 0.79905 0.0
H326 H 0.35313 0.43642 0.76573 0.0
H327 H 0.24937 0.65355 0.85534 0.0
H328 H 0.22611 0.52969 0.91081 0.0
H329 H 0.33482 0.51649 0.92437 0.0
Co330 Co 0.57945 0.30726 0.82281 0.0
C331 C 0.62099 0.3712 0.81412 0.0
C332 C 0.65188 0.32627 0.82144 0.0
C333 C 0.67329 0.35342 0.8157 0.0
N334 N 0.61905 0.33722 0.82019 0.0
N335 N 0.65385 0.38153 0.81107 0.0
H336 H 0.59912 0.38805 0.81156 0.0
H337 H 0.65981 0.30018 0.82608 0.0
C338 C 0.60914 0.23895 0.79749 0.0
O339 O 0.58531 0.21949 0.80945 0.0
N340 N 0.54017 0.27733 0.82383 0.0
C341 C 0.51668 0.2739 0.84603 0.0
C342 C 0.48914 0.25589 0.83473 0.0
C343 C 0.52623 0.26248 0.79925 0.0
N344 N 0.49519 0.24889 0.80523 0.0
C345 C 0.60095 0.31878 0.88301 0.0
C346 C 0.58977 0.25371 0.90569 0.0
C347 C 0.59568 0.2807 0.92603 0.0
C348 C 0.60246 0.31329 0.91415 0.0
C349 C 0.58915 0.26021 0.87438 0.0
N350 N 0.59362 0.29273 0.86337 0.0
H351 H 0.60308 0.34484 0.87492 0.0
H352 H 0.58207 0.2396 0.85963 0.0
H353 H 0.51865 0.2852 0.86833 0.0
H354 H 0.53842 0.26251 0.77722 0.0
O355 O 0.55026 0.34421 0.83606 0.0
O356 O 0.55861 0.33024 0.78801 0.0
O357 O 0.6087 0.27159 0.80104 0.0
C358 C 0.54255 0.34936 0.80785 0.0
H359 H 0.70105 0.35276 0.81552 0.0
H360 H 0.46581 0.24994 0.84693 0.0
H361 H 0.58437 0.2281 0.91392 0.0
H362 H 0.60651 0.33511 0.9289 0.0
Co363 Co 0.81201 0.57858 0.81814 0.0
C364 C 0.74779 0.61966 0.8077 0.0
C365 C 0.79292 0.65096 0.80859 0.0
C366 C 0.76514 0.67171 0.80281 0.0
N367 N 0.78226 0.61817 0.81132 0.0
N368 N 0.73684 0.65204 0.80227 0.0
H369 H 0.73087 0.59779 0.80921 0.0
H370 H 0.81907 0.65958 0.81116 0.0
C371 C 0.88252 0.60591 0.79576 0.0
O372 O 0.90145 0.58208 0.80853 0.0
N373 N 0.84142 0.53891 0.82424 0.0
C374 C 0.8421 0.51851 0.84888 0.0
C375 C 0.86267 0.49057 0.84291 0.0
C376 C 0.86038 0.52232 0.80319 0.0
N377 N 0.8743 0.49298 0.81416 0.0
C378 C 0.79394 0.59933 0.87709 0.0
C379 C 0.85744 0.58834 0.90311 0.0
C380 C 0.82809 0.5875 0.92149 0.0
C381 C 0.79643 0.59564 0.90839 0.0
C382 C 0.85382 0.59241 0.87167 0.0
N383 N 0.82197 0.59498 0.85892 0.0
H384 H 0.76868 0.60147 0.86729 0.0
H385 H 0.87612 0.58895 0.85773 0.0
H386 H 0.82767 0.52301 0.86945 0.0
H387 H 0.86368 0.53162 0.78028 0.0
O388 O 0.77356 0.55056 0.82893 0.0
O389 O 0.79389 0.55633 0.78216 0.0
O390 O 0.84991 0.60615 0.79864 0.0
C391 C 0.77193 0.542 0.80057 0.0
H392 H 0.76551 0.69936 0.80034 0.0
H393 H 0.86758 0.4695 0.85828 0.0
H394 H 0.88245 0.58242 0.91242 0.0
H395 H 0.77321 0.59604 0.92191 0.0
Co396 Co 0.54924 0.29736 0.20072 0.0
C397 C 0.49654 0.35474 0.20117 0.0
C398 C 0.49583 0.32297 0.24067 0.0
C399 C 0.47215 0.34866 0.24453 0.0
N400 N 0.51064 0.32601 0.21318 0.0
N401 N 0.47257 0.36888 0.21974 0.0
H402 H 0.50458 0.36616 0.18016 0.0
H403 H 0.50235 0.30358 0.25724 0.0
C404 C 0.4935 0.24834 0.21545 0.0
O405 O 0.47368 0.26785 0.19859 0.0
N406 N 0.58808 0.26887 0.19084 0.0
C407 C 0.60967 0.27088 0.16707 0.0
C408 C 0.63679 0.24872 0.17214 0.0
C409 C 0.60218 0.246 0.20993 0.0
N410 N 0.6321 0.23336 0.19928 0.0
C411 C 0.53203 0.31512 0.13993 0.0
C412 C 0.52874 0.24861 0.11841 0.0
C413 C 0.53241 0.27561 0.09773 0.0
C414 C 0.53258 0.30922 0.10879 0.0
C415 C 0.52853 0.25561 0.1496 0.0
N416 N 0.53107 0.2886 0.16017 0.0
H417 H 0.53657 0.34094 0.14741 0.0
H418 H 0.53017 0.23415 0.165 0.0
H419 H 0.60666 0.28821 0.1481 0.0
H420 H 0.59111 0.23969 0.23171 0.0
O421 O 0.57537 0.33752 0.19081 0.0
O422 O 0.57433 0.31339 0.23622 0.0
O423 O 0.52529 0.2557 0.21848 0.0
C424 C 0.58639 0.3373 0.21845 0.0
H425 H 0.45606 0.35206 0.26427 0.0
H426 H 0.65901 0.24549 0.15768 0.0
H427 H 0.52913 0.22222 0.11072 0.0
H428 H 0.53566 0.33076 0.0935 0.0
Co429 Co 0.81241 0.54172 0.19932 0.0
C430 C 0.75321 0.49373 0.20634 0.0
C431 C 0.80116 0.46717 0.20152 0.0
C432 C 0.77571 0.44328 0.20608 0.0
N433 N 0.78717 0.49887 0.20201 0.0
N434 N 0.74565 0.46005 0.20911 0.0
H435 H 0.73428 0.514 0.20773 0.0
H436 H 0.82804 0.46164 0.19795 0.0
C437 C 0.88452 0.52526 0.22342 0.0
O438 O 0.89648 0.55436 0.21294 0.0
N439 N 0.83691 0.58488 0.19744 0.0
C440 C 0.84275 0.60545 0.17344 0.0
C441 C 0.85883 0.63484 0.18348 0.0
C442 C 0.84769 0.60279 0.22173 0.0
N443 N 0.86206 0.63296 0.2139 0.0
C444 C 0.80107 0.52669 0.1377 0.0
C445 C 0.86775 0.5334 0.1175 0.0
C446 C 0.84106 0.53428 0.09618 0.0
C447 C 0.80747 0.52921 0.1067 0.0
C448 C 0.86014 0.53098 0.14848 0.0
N449 N 0.82691 0.52976 0.1583 0.0
H450 H 0.77477 0.52504 0.14527 0.0
H451 H 0.88095 0.53271 0.16417 0.0
H452 H 0.83554 0.59981 0.15034 0.0
H453 H 0.84654 0.5929 0.24461 0.0
O454 O 0.77167 0.56656 0.18807 0.0
O455 O 0.78906 0.55926 0.23536 0.0
O456 O 0.85309 0.51686 0.21912 0.0
C457 C 0.76737 0.57339 0.21655 0.0
H458 H 0.7789 0.41568 0.2064 0.0
H459 H 0.86733 0.65595 0.16944 0.0
H460 H 0.89422 0.53619 0.11049 0.0
H461 H 0.78578 0.52971 0.09144 0.0
Co462 Co 0.56885 0.80609 0.19834 0.0
C463 C 0.61489 0.74465 0.20296 0.0
C464 C 0.64296 0.7919 0.20248 0.0
C465 C 0.66578 0.76528 0.20668 0.0
N466 N 0.61093 0.7791 0.2005 0.0
N467 N 0.64807 0.73567 0.207 0.0
H468 H 0.5941 0.72638 0.20229 0.0
H469 H 0.64946 0.81879 0.20108 0.0
C470 C 0.58683 0.87658 0.22573 0.0
O471 O 0.55814 0.88978 0.21552 0.0
N472 N 0.52639 0.83206 0.19716 0.0
C473 C 0.50614 0.83914 0.17326 0.0
C474 C 0.4771 0.85577 0.18358 0.0
C475 C 0.5085 0.84258 0.22167 0.0
N476 N 0.47879 0.85824 0.21409 0.0
C477 C 0.58668 0.79803 0.13682 0.0
C478 C 0.57945 0.86554 0.11891 0.0
C479 C 0.58034 0.83987 0.09658 0.0
C480 C 0.5856 0.80588 0.10602 0.0
C481 C 0.58063 0.8565 0.14966 0.0
N482 N 0.58224 0.82284 0.15829 0.0
H483 H 0.58828 0.77137 0.14342 0.0
H484 H 0.57755 0.87652 0.16601 0.0
H485 H 0.51179 0.83238 0.15002 0.0
H486 H 0.51821 0.84028 0.24452 0.0
O487 O 0.54318 0.76713 0.18424 0.0
O488 O 0.54966 0.7803 0.23255 0.0
O489 O 0.59445 0.84496 0.22055 0.0
C490 C 0.5355 0.76052 0.21218 0.0
H491 H 0.69335 0.76743 0.20881 0.0
H492 H 0.45636 0.86515 0.16956 0.0
H493 H 0.57625 0.89226 0.11277 0.0
H494 H 0.58633 0.78495 0.08991 0.0
Co495 Co 0.29908 0.5618 0.19843 0.0
C496 C 0.35981 0.61089 0.19722 0.0
C497 C 0.3253 0.61877 0.23422 0.0
C498 C 0.3526 0.64042 0.23782 0.0
N499 N 0.32883 0.60081 0.20824 0.0
N500 N 0.37457 0.6355 0.21468 0.0
H501 H 0.37262 0.59903 0.17825 0.0
H502 H 0.30494 0.61527 0.25055 0.0
C503 C 0.24964 0.61754 0.21301 0.0
O504 O 0.26681 0.63607 0.19328 0.0
N505 N 0.26975 0.52255 0.19139 0.0
C506 C 0.26986 0.50096 0.1676 0.0
C507 C 0.24701 0.47475 0.1734 0.0
C508 C 0.24729 0.50908 0.21141 0.0
N509 N 0.2329 0.47978 0.20104 0.0
C510 C 0.31292 0.5808 0.1372 0.0
C511 C 0.24571 0.57905 0.11749 0.0
C512 C 0.27221 0.57796 0.09602 0.0
C513 C 0.30604 0.58032 0.10622 0.0
C514 C 0.25374 0.57929 0.14851 0.0
N515 N 0.28716 0.57912 0.15812 0.0
H516 H 0.33923 0.57864 0.144 0.0
H517 H 0.2331 0.57613 0.16462 0.0
H518 H 0.286 0.50363 0.14779 0.0
H519 H 0.24208 0.52038 0.23332 0.0
O520 O 0.33797 0.53526 0.18604 0.0
O521 O 0.31864 0.53758 0.23316 0.0
O522 O 0.25881 0.58646 0.21809 0.0
C523 C 0.34071 0.52493 0.21379 0.0
H524 H 0.35609 0.65803 0.25649 0.0
H525 H 0.24219 0.45302 0.15878 0.0
H526 H 0.2192 0.57686 0.11048 0.0
H527 H 0.32725 0.57946 0.09033 0.0
H528 H 1.00981 0.37048 0.47097 0.0
H529 H 0.07675 0.28773 0.44374 0.0
H530 H 0.10331 0.28725 0.49364 0.0
H531 H 0.10594 0.30813 0.54565 0.0
H532 H 0.03624 0.38781 0.57492 0.0
H533 H 0.01358 0.39259 0.52365 0.0
C534 C 0.03029 0.35251 0.47604 0.0
C535 C 0.04084 0.32878 0.45384 0.0
C536 C 0.04529 0.352 0.50514 0.0
C537 C 0.06759 0.30574 0.46064 0.0
C538 C 0.08299 0.30558 0.48912 0.0
C539 C 0.08572 0.32652 0.54099 0.0
C540 C 0.07287 0.34737 0.56449 0.0
C541 C 0.07172 0.3282 0.5117 0.0
C542 C 0.0472 0.37165 0.55746 0.0
C543 C 0.0338 0.37414 0.52809 0.0
H544 H 0.79261 0.10446 0.53932 0.0
H545 H 0.72563 0.02454 0.57173 0.0
H546 H 0.72134 1.00124 0.52039 0.0
H547 H 0.74203 0.99994 0.46691 0.0
H548 H 0.81299 0.07766 0.43702 0.0
H549 H 0.811 0.10481 0.48667 0.0
C550 C 0.77696 0.08197 0.53522 0.0
C551 C 0.75986 0.0661 0.55953 0.0
C552 C 0.77591 0.06782 0.50604 0.0
C553 C 0.73894 0.03752 0.55351 0.0
C554 C 0.73683 0.02387 0.52416 0.0
C555 C 0.75686 0.02288 0.47139 0.0
C556 C 0.77816 0.03641 0.44857 0.0
C557 C 0.75606 0.03819 0.50038 0.0
C558 C 0.79704 0.06634 0.45447 0.0
C559 C 0.79574 0.08203 0.48278 0.0
H560 H 0.08513 0.80178 0.56487 0.0
H561 H 0.99975 0.73319 0.55355 0.0
H562 H 0.01376 0.72688 0.49948 0.0
H563 H 0.04783 0.74502 0.45473 0.0
H564 H 0.13396 0.81281 0.46743 0.0
H565 H 0.1223 0.81513 0.52167 0.0
C566 C 0.06972 0.78532 0.55052 0.0
C567 C 0.04117 0.76838 0.56289 0.0
C568 C 0.07807 0.78176 0.51974 0.0
C569 C 0.02173 0.7466 0.54437 0.0
C570 C 0.02973 0.74308 0.51351 0.0
C571 C 0.0645 0.75966 0.46946 0.0
C572 C 0.09152 0.77907 0.45688 0.0
C573 C 0.05754 0.76103 0.50081 0.0
C574 C 0.11268 0.79811 0.47637 0.0
C575 C 0.10605 0.79946 0.50742 0.0
H576 H 0.30588 1.00901 0.5465 0.0
H577 H 0.3804 0.08559 0.57136 0.0
H578 H 0.38384 0.10467 0.51874 0.0
H579 H 0.36186 0.10293 0.46593 0.0
H580 H 0.28507 0.02798 0.44273 0.0
H581 H 0.28589 1.00564 0.49423 0.0
C582 C 0.3229 0.0299 0.54051 0.0
C583 C 0.34265 0.04584 0.56314 0.0
C584 C 0.32398 0.04151 0.51037 0.0
C585 C 0.36513 0.0724 0.55456 0.0
C586 C 0.36685 0.08367 0.52443 0.0
C587 C 0.34553 0.08158 0.47219 0.0
C588 C 0.32297 0.06761 0.45061 0.0
C589 C 0.34585 0.06891 0.50219 0.0
C590 C 0.30208 0.03978 0.45904 0.0
C591 C 0.30267 0.02681 0.48847 0.0
H592 H 0.51501 0.87181 0.96808 0.0
H593 H 0.58737 0.7932 0.94219 0.0
H594 H 0.61073 0.7921 0.99334 0.0
H595 H 0.60832 0.81043 0.04611 0.0
H596 H 0.53357 0.88606 0.07383 0.0
H597 H 0.51444 0.89224 0.02146 0.0
C598 C 0.53605 0.85472 0.97372 0.0
C599 C 0.54909 0.83224 0.95155 0.0
C600 C 0.54913 0.85379 1.00353 0.0
C601 C 0.57648 0.81028 0.95904 0.0
C602 C 0.58997 0.80973 0.98825 0.0
C603 C 0.58783 0.8283 0.0408 0.0
C604 C 0.57233 0.84747 0.06414 0.0
C605 C 0.57607 0.83084 0.01082 0.0
C606 C 0.54637 0.87114 0.05646 0.0
C607 C 0.53507 0.87444 0.02647 0.0
H608 H 0.24218 0.56907 0.95519 0.0
H609 H 0.30867 0.48103 0.9648 0.0
H610 H 0.31092 0.48988 0.01942 0.0
H611 H 0.29807 0.52515 0.06392 0.0
H612 H 0.23107 0.61269 0.05575 0.0
H613 H 0.22456 0.60142 1.00124 0.0
C614 C 0.25649 0.55139 0.96934 0.0
C615 C 0.27553 0.5246 0.9558 0.0
C616 C 0.25792 0.55681 1.00095 0.0
C617 C 0.29418 0.5021 0.97452 0.0
C618 C 0.29552 0.50715 1.00578 0.0
C619 C 0.28192 0.54167 0.05018 0.0
C620 C 0.26551 0.57003 0.06362 0.0
C621 C 0.27827 0.53491 0.01911 0.0
C622 C 0.2441 0.59084 0.0458 0.0
C623 C 0.24046 0.5844 0.01467 0.0
H624 H 0.54486 0.24715 0.95693 0.0
H625 H 0.63748 0.30556 0.97019 0.0
H626 H 0.6264 0.30795 0.02454 0.0
H627 H 0.58827 0.29761 0.0677 0.0
H628 H 0.49607 0.23862 0.05574 0.0
H629 H 0.50917 0.23192 1.00155 0.0
C630 C 0.56301 0.25969 0.97182 0.0
C631 C 0.59184 0.27643 0.95942 0.0
C632 C 0.5563 0.26124 1.0032 0.0
C633 C 0.61491 0.29285 0.97906 0.0
C634 C 0.60858 0.29428 0.01015 0.0
C635 C 0.5711 0.28322 0.05318 0.0
C636 C 0.54095 0.26914 0.06544 0.0
C637 C 0.57893 0.27938 0.02233 0.0
C638 C 0.51928 0.24988 0.04667 0.0
C639 C 0.52678 0.24611 0.01574 0.0
H640 H 0.80796 0.5106 0.04587 0.0
H641 H 0.88796 0.5802 0.07341 0.0
H642 H 0.89284 0.60144 0.02158 0.0
H643 H 0.87084 0.60384 0.96884 0.0
H644 H 0.78796 0.53678 0.9433 0.0
H645 H 0.78715 0.51188 0.99387 0.0
C646 C 0.82642 0.53051 0.04069 0.0
C647 C 0.84732 0.5438 0.06381 0.0
C648 C 0.82818 0.54364 0.0111 0.0
C649 C 0.87174 0.569 0.0562 0.0
C650 C 0.87428 0.58156 0.02653 0.0
C651 C 0.85274 0.58372 0.97444 0.0
C652 C 0.82906 0.57267 0.95251 0.0
C653 C 0.85211 0.56962 1.00389 0.0
C654 C 0.80589 0.54636 0.95998 0.0
C655 C 0.80556 0.53189 0.98884 0.0
H656 H 0.08595 0.21371 0.33522 0.0
H657 H 0.09898 0.26312 0.2485 0.0
H658 H 0.15005 0.22782 0.23879 0.0
H659 H 0.19418 0.18792 0.25774 0.0
H660 H 0.18255 0.142 0.34617 0.0
H661 H 0.12721 0.1706 0.35223 0.0
C662 C 0.09965 0.21649 0.31395 0.0
C663 C 0.08895 0.24128 0.2927 0.0
C664 C 0.12934 0.19694 0.30902 0.0
C665 C 0.1067 0.24422 0.26516 0.0
C666 C 0.13603 0.22424 0.25976 0.0
C667 C 0.17963 0.18414 0.27838 0.0
C668 C 0.19295 0.16325 0.30175 0.0
C669 C 0.14819 0.20137 0.282 0.0
C670 C 0.17304 0.15783 0.32785 0.0
C671 C 0.14147 0.17438 0.3314 0.0
H672 H 0.90151 0.08381 0.32275 0.0
H673 H 0.82789 0.11705 0.25615 0.0
H674 H 0.85726 0.17245 0.2519 0.0
H675 H 0.9003 0.21364 0.27158 0.0
H676 H 0.97456 0.17933 0.33715 0.0
H677 H 0.9488 0.12212 0.3373 0.0
C678 C 0.89241 0.10291 0.30675 0.0
C679 C 0.86259 0.09637 0.28976 0.0
C680 C 0.90931 0.13468 0.30462 0.0
C681 C 0.85104 0.12128 0.26915 0.0
C682 C 0.8676 0.15312 0.26702 0.0
C683 C 0.91096 0.19346 0.28564 0.0
C684 C 0.93907 0.20079 0.30462 0.0
C685 C 0.89614 0.16048 0.28534 0.0
C686 C 0.95305 0.17431 0.32235 0.0
C687 C 0.9382 0.14166 0.32252 0.0
H688 H 0.90264 0.90791 0.26429 0.0
H689 H 0.92959 0.97871 0.33521 0.0
H690 H 0.98674 0.95287 0.33871 0.0
H691 H 0.02605 0.90555 0.32591 0.0
H692 H 0.99978 0.83504 0.25448 0.0
H693 H 0.94555 0.86562 0.24634 0.0
C694 C 0.9213 0.91787 0.28018 0.0
C695 C 0.91192 0.94483 0.29975 0.0
C696 C 0.95408 0.9029 0.28195 0.0
C697 C 0.93633 0.95803 0.31993 0.0
C698 C 0.96888 0.94313 0.32203 0.0
C699 C 1.00877 0.89743 0.30808 0.0
C700 C 0.01667 0.86808 0.29089 0.0
C701 C 0.97765 0.91494 0.30376 0.0
C702 C 0.99431 0.85779 0.26777 0.0
C703 C 0.96316 0.87503 0.26337 0.0
H704 H 0.20062 0.03177 0.3083 0.0
H705 H 0.28346 0.99108 0.25444 0.0
H706 H 0.25402 0.93566 0.25118 0.0
H707 H 0.20911 0.89666 0.27088 0.0
H708 H 0.12683 0.93789 0.32517 0.0
H709 H 0.15135 0.99538 0.32093 0.0
C710 C 0.21155 1.01108 0.29492 0.0
C711 C 0.24399 0.01532 0.28154 0.0
C712 C 0.1949 0.97925 0.29385 0.0
C713 C 0.2582 0.98847 0.26444 0.0
C714 C 0.24163 0.95665 0.26305 0.0
C715 C 0.19642 0.91839 0.28141 0.0
C716 C 0.16654 0.91307 0.29875 0.0
C717 C 0.21072 0.95136 0.27882 0.0
C718 C 0.14984 0.94141 0.31179 0.0
C719 C 0.16394 0.97421 0.30945 0.0
H720 H 0.20443 0.93391 0.75659 0.0
H721 H 0.19953 0.96852 0.66375 0.0
H722 H 0.14622 0.93696 0.6567 0.0
H723 H 0.10457 0.89531 0.67518 0.0
H724 H 0.1113 0.85699 0.76674 0.0
H725 H 0.16061 0.89441 0.77607 0.0
C726 C 0.1919 0.93449 0.73474 0.0
C727 C 0.20644 0.95323 0.71056 0.0
C728 C 0.1617 0.91556 0.73063 0.0
C729 C 0.18902 0.95448 0.68275 0.0
C730 C 0.15862 0.93623 0.67865 0.0
C731 C 0.11653 0.89533 0.69735 0.0
C732 C 0.10449 0.87316 0.72019 0.0
C733 C 0.14523 0.91609 0.7022 0.0
C734 C 0.12011 0.87378 0.7488 0.0
C735 C 0.14839 0.89502 0.75405 0.0
H736 H 0.20053 0.22008 0.74756 0.0
H737 H 0.12726 0.18226 0.68286 0.0
H738 H 0.15571 0.12616 0.68279 0.0
H739 H 0.20577 0.0907 0.69618 0.0
H740 H 0.27875 0.12786 0.76152 0.0
H741 H 0.24579 0.18117 0.76693 0.0
C742 C 0.19063 0.19932 0.73381 0.0
C743 C 0.16219 0.2053 0.7149 0.0
C744 C 0.20707 0.16713 0.73405 0.0
C745 C 0.1491 0.17817 0.69755 0.0
C746 C 0.16547 0.1462 0.69742 0.0
C747 C 0.21388 0.11013 0.71223 0.0
C748 C 0.24462 0.10552 0.72838 0.0
C749 C 0.19503 0.14074 0.71491 0.0
C750 C 0.25495 0.13072 0.74913 0.0
C751 C 0.23634 0.16137 0.7519 0.0
H752 H 0.9359 0.14498 0.70202 0.0
H753 H 0.86543 0.22168 0.73427 0.0
H754 H 0.91321 0.2601 0.74643 0.0
H755 H 0.97422 0.27523 0.73951 0.0
H756 H 0.04311 0.2008 0.70046 0.0
H757 H 0.99764 0.15798 0.69988 0.0
C758 C 0.93137 0.16964 0.7127 0.0
C759 C 0.89753 0.18055 0.71767 0.0
C760 C 0.95887 0.19211 0.7181 0.0
C761 C 0.89148 0.21288 0.73065 0.0
C762 C 0.91875 0.23484 0.73735 0.0
C763 C 0.97942 0.2492 0.73203 0.0
C764 C 0.01206 0.24087 0.72069 0.0
C765 C 0.95249 0.22527 0.73007 0.0
C766 C 0.01836 0.20754 0.7099 0.0
C767 C 0.99223 0.18313 0.70925 0.0
H768 H 0.93805 0.91919 0.75342 0.0
H769 H 0.96644 0.91628 0.65889 0.0
H770 H 0.93593 0.97019 0.65036 0.0
H771 H 0.89694 0.01503 0.66851 0.0
H772 H 0.86574 0.01687 0.76231 0.0
H773 H 0.90181 0.9665 0.77241 0.0
C774 C 0.93755 0.9302 0.73091 0.0
C775 C 0.95429 0.91322 0.70672 0.0
C776 C 0.91942 0.96102 0.72605 0.0
C777 C 0.95402 0.92864 0.67794 0.0
C778 C 0.93637 0.95943 0.67301 0.0
C779 C 0.89834 1.00478 0.69132 0.0
C780 C 0.87847 0.01966 0.71463 0.0
C781 C 0.91842 0.97543 0.69674 0.0
C782 C 0.8808 1.00605 0.74401 0.0
C783 C 0.90123 0.97707 0.74971 0.0
H784 H 0.58825 0.70655 0.82362 0.0
H785 H 0.61859 0.77654 0.75295 0.0
H786 H 0.67215 0.7444 0.74576 0.0
H787 H 0.71345 0.70106 0.76471 0.0
H788 H 0.6824 0.63085 0.8349 0.0
H789 H 0.62577 0.65804 0.83704 0.0
C790 C 0.60625 0.71419 0.80612 0.0
C791 C 0.59972 0.74387 0.78891 0.0
C792 C 0.63697 0.6958 0.80238 0.0
C793 C 0.623 0.75356 0.76622 0.0
C794 C 0.65377 0.73542 0.76239 0.0
C795 C 0.69401 0.6915 0.78011 0.0
C796 C 0.70209 0.66435 0.79992 0.0
C797 C 0.66154 0.70726 0.78111 0.0
C798 C 0.67667 0.65168 0.81946 0.0
C799 C 0.64441 0.66735 0.82078 0.0
H800 H 0.4094 0.71697 0.77061 0.0
H801 H 0.48472 0.67763 0.83291 0.0
H802 H 0.45648 0.62153 0.83271 0.0
H803 H 0.40588 0.58669 0.82021 0.0
H804 H 0.33086 0.62553 0.75723 0.0
H805 H 0.36374 0.67867 0.75164 0.0
C806 C 0.41982 0.69584 0.7837 0.0
C807 C 0.44871 0.70135 0.80211 0.0
C808 C 0.40347 0.66375 0.78335 0.0
C809 C 0.4625 0.67384 0.81863 0.0
C810 C 0.44625 0.6419 0.81863 0.0
C811 C 0.39727 0.60647 0.80464 0.0
C812 C 0.36597 0.60245 0.78928 0.0
C813 C 0.41612 0.63695 0.80183 0.0
C814 C 0.35504 0.62802 0.76907 0.0
C815 C 0.37363 0.65853 0.76617 0.0
H816 H 0.51154 0.39517 0.84495 0.0
H817 H 0.51012 0.35756 0.75308 0.0
H818 H 0.45879 0.39211 0.7427 0.0
H819 H 0.41216 0.42987 0.76099 0.0
H820 H 0.41328 0.46542 0.85358 0.0
H821 H 0.46716 0.43514 0.86226 0.0
C822 C 0.50028 0.39476 0.82251 0.0
C823 C 0.51461 0.37366 0.79984 0.0
C824 C 0.47058 0.41422 0.8169 0.0
C825 C 0.49972 0.37364 0.77089 0.0
C826 C 0.47024 0.39324 0.76503 0.0
C827 C 0.42409 0.43099 0.7831 0.0
C828 C 0.4083 0.44982 0.80668 0.0
C829 C 0.45502 0.41307 0.78807 0.0
C830 C 0.42477 0.45146 0.83495 0.0
C831 C 0.45555 0.43393 0.84 0.0
H832 H 0.7086 0.53069 0.82242 0.0
H833 H 0.78323 0.49151 0.75908 0.0
H834 H 0.75053 0.43815 0.75428 0.0
H835 H 0.70536 0.39986 0.77425 0.0
H836 H 0.63061 0.43954 0.83712 0.0
H837 H 0.65834 0.49585 0.83581 0.0
C838 C 0.71714 0.51077 0.80695 0.0
C839 C 0.74827 0.51468 0.79127 0.0
C840 C 0.69844 0.48022 0.80462 0.0
C841 C 0.75916 0.48901 0.77116 0.0
C842 C 0.74069 0.45841 0.76871 0.0
C843 C 0.69495 0.42111 0.78722 0.0
C844 C 0.66642 0.41568 0.80613 0.0
C845 C 0.71105 0.45327 0.78627 0.0
C846 C 0.65258 0.44331 0.82248 0.0
C847 C 0.66854 0.47535 0.82184 0.0
H848 H 0.59753 0.40093 0.19701 0.0
H849 H 0.63903 0.32494 0.25781 0.0
H850 H 0.69238 0.35785 0.2618 0.0
H851 H 0.7294 0.4049 0.24296 0.0
H852 H 0.68697 0.48093 0.18272 0.0
H853 H 0.63164 0.45154 0.18358 0.0
C854 C 0.618 0.39201 0.21169 0.0
C855 C 0.61453 0.36057 0.22702 0.0
C856 C 0.64853 0.41084 0.21356 0.0
C857 C 0.64105 0.34926 0.24605 0.0
C858 C 0.67167 0.36787 0.24802 0.0
C859 C 0.70788 0.41508 0.23027 0.0
C860 C 0.71228 0.44475 0.21247 0.0
C861 C 0.67608 0.39811 0.23107 0.0
C862 C 0.68413 0.45817 0.19657 0.0
C863 C 0.65258 0.4413 0.19697 0.0
H864 H 0.70649 0.58726 0.19027 0.0
H865 H 0.77416 0.62124 0.26119 0.0
H866 H 0.74148 0.67482 0.26581 0.0
H867 H 0.698 0.71487 0.24489 0.0
H868 H 0.62978 0.67999 0.17482 0.0
H869 H 0.65811 0.62381 0.17461 0.0
C870 C 0.71346 0.60603 0.20732 0.0
C871 C 0.74264 0.6004 0.22537 0.0
C872 C 0.69479 0.63683 0.20956 0.0
C873 C 0.75151 0.62482 0.24735 0.0
C874 C 0.7331 0.65566 0.24968 0.0
C875 C 0.68923 0.69475 0.22986 0.0
C876 C 0.66221 0.70158 0.20957 0.0
C877 C 0.70545 0.66242 0.23014 0.0
C878 C 0.65053 0.67525 0.19056 0.0
C879 C 0.6668 0.64322 0.19039 0.0
H880 H 0.50434 0.71789 0.17241 0.0
H881 H 0.50703 0.74394 0.26736 0.0
H882 H 0.4587 0.70522 0.27682 0.0
H883 H 0.4135 0.66714 0.25742 0.0
H884 H 0.40928 0.64397 0.16185 0.0
H885 H 0.46091 0.67797 0.15347 0.0
C886 C 0.49467 0.71489 0.1953 0.0
C887 C 0.50932 0.73396 0.21917 0.0
C888 C 0.4665 0.69318 0.2004 0.0
C889 C 0.49638 0.72958 0.24862 0.0
C890 C 0.46861 0.70756 0.25397 0.0
C891 C 0.42362 0.66955 0.23467 0.0
C892 C 0.40693 0.65313 0.21021 0.0
C893 C 0.45303 0.68979 0.22991 0.0
C894 C 0.42139 0.656 0.18113 0.0
C895 C 0.45087 0.67569 0.17629 0.0
H896 H 0.43696 0.40612 0.2616 0.0
H897 H 0.46048 0.4006 0.16595 0.0
H898 H 0.42379 0.44994 0.15666 0.0
H899 H 0.38296 0.49254 0.17479 0.0
H900 H 0.35568 0.49661 0.26951 0.0
H901 H 0.39584 0.44942 0.27997 0.0
C902 C 0.43402 0.41534 0.23863 0.0
C903 C 0.45172 0.39914 0.21453 0.0
C904 C 0.41208 0.4434 0.23325 0.0
C905 C 0.44777 0.4124 0.18509 0.0
C906 C 0.4265 0.4406 0.17967 0.0
C907 C 0.38584 0.48337 0.19785 0.0
C908 C 0.3663 0.49811 0.22138 0.0
C909 C 0.40832 0.45601 0.2035 0.0
C910 C 0.37041 0.48574 0.25102 0.0
C911 C 0.39331 0.45873 0.25695 0.0
H912 H 0.22333 0.47429 0.26166 0.0
H913 H 0.18829 0.4345 0.17599 0.0
H914 H 0.14903 0.39591 0.2023 0.0
H915 H 0.12468 0.37304 0.24988 0.0
H916 H 0.15897 0.41471 0.3352 0.0
H917 H 0.19819 0.45272 0.30878 0.0
C918 C 0.20689 0.45755 0.24862 0.0
C919 C 0.209 0.45751 0.21674 0.0
C920 C 0.18419 0.43543 0.26391 0.0
C921 C 0.1877 0.43496 0.20048 0.0
C922 C 0.16503 0.41291 0.21555 0.0
C923 C 0.14052 0.39055 0.26273 0.0
C924 C 0.13881 0.3905 0.29467 0.0
C925 C 0.16308 0.41284 0.2473 0.0
C926 C 0.15997 0.41339 0.31075 0.0
C927 C 0.18236 0.43548 0.29561 0.0
H928 H 0.73913 0.12673 0.24936 0.0
H929 H 0.6946 0.1603 0.33402 0.0
H930 H 0.65804 0.20056 0.30704 0.0
H931 H 0.63778 0.22547 0.25973 0.0
H932 H 0.6794 0.19043 0.17455 0.0
H933 H 0.71813 0.15151 0.20151 0.0
C934 C 0.72128 0.14259 0.26196 0.0
C935 C 0.71981 0.14029 0.29382 0.0
C936 C 0.69976 0.16544 0.24621 0.0
C937 C 0.69683 0.16169 0.30963 0.0
C938 C 0.67563 0.18462 0.29418 0.0
C939 C 0.6549 0.20904 0.24691 0.0
C940 C 0.65533 0.21068 0.21506 0.0
C941 C 0.67672 0.18653 0.26251 0.0
C942 C 0.6786 0.18985 0.19904 0.0
C943 C 0.70064 0.16747 0.21446 0.0
H944 H 0.91307 0.67644 0.19864 0.0
H945 H 0.85255 0.64114 0.27436 0.0
H946 H 0.88821 0.67397 0.30906 0.0
H947 H 0.93864 0.70981 0.3182 0.0
H948 H 0.99707 0.74766 0.24196 0.0
H949 H 0.96016 0.71668 0.20741 0.0
C950 C 0.9072 0.67639 0.22263 0.0
C951 C 0.8804 0.65585 0.23379 0.0
C952 C 0.92774 0.69549 0.24253 0.0
C953 C 0.87347 0.65602 0.2651 0.0
C954 C 0.89379 0.67494 0.28501 0.0
C955 C 0.94317 0.7118 0.29407 0.0
C956 C 0.97125 0.7308 0.28308 0.0
C957 C 0.9214 0.69427 0.27403 0.0
C958 C 0.97645 0.73267 0.25151 0.0
C959 C 0.95507 0.71512 0.23152 0.0
H960 H 0.4023 0.93756 0.31817 0.0
H961 H 0.35963 0.9907 0.24099 0.0
H962 H 0.39112 0.95331 0.20689 0.0
H963 H 0.43296 0.90753 0.19868 0.0
H964 H 0.47322 0.8517 0.27536 0.0
H965 H 0.44024 0.88789 0.30967 0.0
C966 C 0.39949 0.94074 0.29393 0.0
C967 C 0.37903 0.96759 0.28243 0.0
C968 C 0.41738 0.91867 0.27417 0.0
C969 C 0.37589 0.97114 0.25079 0.0
C970 C 0.39371 0.94947 0.2311 0.0
C971 C 0.43419 0.9027 0.2228 0.0
C972 C 0.45616 0.87704 0.23418 0.0
C973 C 0.41489 0.92346 0.24253 0.0
C974 C 0.4573 0.87165 0.26573 0.0
C975 C 0.43825 0.8923 0.28549 0.0
H976 H 0.2314 0.63121 0.75348 0.0
H977 H 0.19365 0.67128 0.83831 0.0
H978 H 0.1556 0.71049 0.81111 0.0
H979 H 0.13345 0.73383 0.76318 0.0
H980 H 0.17088 0.6933 0.67839 0.0
H981 H 0.20858 0.65384 0.70561 0.0
C982 C 0.21458 0.64819 0.76607 0.0
C983 C 0.21541 0.64815 0.79798 0.0
C984 C 0.19276 0.67073 0.75025 0.0
C985 C 0.19385 0.67095 0.8138 0.0
C986 C 0.17194 0.69329 0.79824 0.0
C987 C 0.14954 0.71613 0.75062 0.0
C988 C 0.14921 0.71662 0.71869 0.0
C989 C 0.17122 0.69346 0.76645 0.0
C990 C 0.17082 0.69384 0.7029 0.0
C991 C 0.19229 0.67111 0.71847 0.0
H992 H 0.41445 0.18047 0.69796 0.0
H993 H 0.36564 0.12941 0.77317 0.0
H994 H 0.40013 0.16205 0.80877 0.0
H995 H 0.44588 0.20317 0.81866 0.0
H996 H 0.49396 0.25594 0.74394 0.0
H997 H 0.45827 0.2246 0.70819 0.0
C998 C 0.41118 0.17685 0.72213 0.0
C999 C 0.38795 0.15215 0.73283 0.0
C1000 C 0.43117 0.19582 0.74263 0.0
C1001 C 0.38397 0.14762 0.76427 0.0
C1002 C 0.40354 0.16644 0.7847 0.0
C1003 C 0.44827 0.20822 0.79461 0.0
C1004 C 0.47286 0.23167 0.78414 0.0
C1005 C 0.42752 0.19027 0.77414 0.0
C1006 C 0.4758 0.23752 0.75275 0.0
C1007 C 0.45519 0.21977 0.73222 0.0
H1008 H 0.97764 0.38097 0.76664 0.0
H1009 H 0.94212 0.42014 0.68066 0.0
H1010 H 0.90398 0.45985 0.70658 0.0
H1011 H 0.88076 0.48405 0.75354 0.0
H1012 H 0.91834 0.44723 0.83957 0.0
H1013 H 0.95543 0.40627 0.8137 0.0
C1014 C 0.96183 0.3983 0.75348 0.0
C1015 C 0.96288 0.39712 0.72159 0.0
C1016 C 0.94012 0.42165 0.76856 0.0
C1017 C 0.94165 0.41973 0.70514 0.0
C1018 C 0.91989 0.44279 0.71997 0.0
C1019 C 0.89725 0.46739 0.76672 0.0
C1020 C 0.89646 0.46889 0.79858 0.0
C1021 C 0.91895 0.44405 0.75167 0.0
C1022 C 0.91781 0.44648 0.81509 0.0
C1023 C 0.9393 0.42309 0.80028 0.0
H1024 H 0.66488 0.92041 0.81645 0.0
H1025 H 0.62666 0.86296 0.74019 0.0
H1026 H 0.66214 0.89673 0.70588 0.0
H1027 H 0.70374 0.94282 0.69739 0.0
H1028 H 0.74328 0.99931 0.77373 0.0
H1029 H 0.70753 0.96582 0.80803 0.0
C1030 C 0.66458 0.91504 0.79238 0.0
C1031 C 0.64298 0.88922 0.78099 0.0
C1032 C 0.68518 0.93453 0.77271 0.0
C1033 C 0.64257 0.88298 0.74961 0.0
C1034 C 0.66303 0.90218 0.72994 0.0
C1035 C 0.70485 0.94762 0.72153 0.0
C1036 C 0.72625 0.97367 0.73282 0.0
C1037 C 0.68438 0.92806 0.74122 0.0
C1038 C 0.72677 0.97984 0.76423 0.0
C1039 C 0.70647 0.9605 0.78395 0.0
H1040 H 0.92492 0.72948 0.71139 0.0
H1041 H 0.02433 0.70849 0.75006 0.0
H1042 H 1.00015 0.66071 0.77908 0.0
H1043 H 0.95016 0.62535 0.79409 0.0
H1044 H 0.85087 0.6486 0.75586 0.0
H1045 H 0.87568 0.69484 0.72614 0.0
C1046 C 0.94143 0.71442 0.72605 0.0
C1047 C 0.97642 0.72259 0.72847 0.0
C1048 C 0.92732 0.68731 0.74287 0.0
C1049 C 0.99728 0.70285 0.7478 0.0
C1050 C 0.98346 0.67548 0.76439 0.0
C1051 C 0.93402 0.64044 0.77915 0.0
C1052 C 0.89865 0.63341 0.77733 0.0
C1053 C 0.94843 0.66752 0.76219 0.0
C1054 C 0.87811 0.65344 0.75795 0.0
C1055 C 0.89227 0.67994 0.74083 0.0
H1056 H 0.38396 0.92508 0.71201 0.0
H1057 H 0.4128 0.02481 0.74565 0.0
H1058 H 0.45991 0.99882 0.77436 0.0
H1059 H 0.49265 0.94738 0.7903 0.0
H1060 H 0.46128 0.8477 0.75801 0.0
H1061 H 0.41553 0.87408 0.72854 0.0
C1062 C 0.40065 0.94123 0.72547 0.0
C1063 C 0.39496 0.97689 0.72649 0.0
C1064 C 0.42724 0.92606 0.74231 0.0
C1065 C 0.4166 0.99729 0.74442 0.0
C1066 C 0.44356 0.98243 0.76085 0.0
C1067 C 0.47586 0.93145 0.77676 0.0
C1068 C 0.4806 0.89555 0.77639 0.0
C1069 C 0.4491 0.94679 0.76004 0.0
C1070 C 0.45832 0.87534 0.75887 0.0
C1071 C 0.43211 0.89041 0.7419 0.0
H1072 H 0.11574 0.44877 0.73027 0.0
H1073 H 0.14318 0.34774 0.7625 0.0
H1074 H 0.1908 0.37181 0.79102 0.0
H1075 H 0.22562 0.4211 0.80615 0.0
H1076 H 0.20039 0.52206 0.77263 0.0
H1077 H 0.15113 0.49851 0.74542 0.0
C1078 C 0.132 0.43206 0.74368 0.0
C1079 C 0.12569 0.39644 0.7442 0.0
C1080 C 0.1599 0.44605 0.75979 0.0
C1081 C 0.14734 0.37519 0.76153 0.0
C1082 C 0.17465 0.38894 0.77792 0.0
C1083 C 0.20928 0.43806 0.79303 0.0
C1084 C 0.21674 0.47335 0.79154 0.0
C1085 C 0.1813 0.42427 0.7771 0.0
C1086 C 0.19536 0.49479 0.77416 0.0
C1087 C 0.16713 0.48133 0.7586 0.0
H1088 H 0.63193 0.17226 0.79797 0.0
H1089 H 0.64897 0.27032 0.75505 0.0
H1090 H 0.69378 0.24514 0.72345 0.0
H1091 H 0.72781 0.19541 0.70738 0.0
H1092 H 0.71392 0.09779 0.75171 0.0
H1093 H 0.66846 0.12263 0.78343 0.0
C1094 C 0.64542 0.18808 0.78165 0.0
C1095 C 0.63679 0.22314 0.77877 0.0
C1096 C 0.67181 0.17352 0.76382 0.0
C1097 C 0.65494 0.24333 0.7578 0.0
C1098 C 0.68061 0.22892 0.73964 0.0
C1099 C 0.71485 0.17949 0.72396 0.0
C1100 C 0.7241 0.14468 0.72696 0.0
C1101 C 0.68918 0.19407 0.74237 0.0
C1102 C 0.70735 0.12464 0.74893 0.0
C1103 C 0.68127 0.13884 0.767 0.0
H1104 H 1.00596 0.44962 0.29015 0.0
H1105 H 0.94242 0.36106 0.27394 0.0
H1106 H 0.89888 0.39777 0.25039 0.0
H1107 H 0.87916 0.45556 0.23366 0.0
H1108 H 0.94474 0.54285 0.2494 0.0
H1109 H 0.98681 0.50613 0.27391 0.0
C1110 C 0.98262 0.43816 0.28153 0.0
C1111 C 0.9776 0.40251 0.28398 0.0
C1112 C 0.95786 0.45933 0.26788 0.0
C1113 C 0.94708 0.38838 0.27251 0.0
C1114 C 0.9221 0.40941 0.259 0.0
C1115 C 0.90256 0.46651 0.24262 0.0
C1116 C 0.90869 0.50201 0.23953 0.0
C1117 C 0.92721 0.445 0.25652 0.0
C1118 C 0.93932 0.51567 0.25117 0.0
C1119 C 0.96349 0.49468 0.26527 0.0
H1120 H 0.65787 0.87586 0.22926 0.0
H1121 H 0.56793 0.93053 0.26006 0.0
H1122 H 0.60372 0.97375 0.2838 0.0
H1123 H 0.65993 0.99788 0.29414 0.0
H1124 H 0.75108 0.94533 0.2635 0.0
H1125 H 0.71567 0.89981 0.2415 0.0
C1126 C 0.64622 0.89697 0.24154 0.0
C1127 C 0.61013 0.89986 0.24274 0.0
C1128 C 0.66718 0.92247 0.25494 0.0
C1129 C 0.59553 0.92767 0.25853 0.0
C1130 C 0.616 0.95253 0.27214 0.0
C1131 C 0.67225 0.97655 0.28266 0.0
C1132 C 0.70827 0.97533 0.28045 0.0
C1133 C 0.65178 0.95054 0.27009 0.0
C1134 C 0.72347 0.94712 0.26561 0.0
C1135 C 0.70317 0.92101 0.253 0.0
H1136 H 0.12229 0.66565 0.29208 0.0
H1137 H 0.1593 0.76474 0.26303 0.0
H1138 H 0.20527 0.73722 0.23456 0.0
H1139 H 0.23513 0.68541 0.21769 0.0
H1140 H 0.20028 0.58602 0.2476 0.0
H1141 H 0.15341 0.61326 0.2759 0.0
C1142 C 0.14038 0.68122 0.27949 0.0
C1143 C 0.13712 0.7173 0.2797 0.0
C1144 C 0.16719 0.66519 0.26328 0.0
C1145 C 0.16105 0.73699 0.2634 0.0
C1146 C 0.18741 0.72127 0.24701 0.0
C1147 C 0.21725 0.6696 0.23029 0.0
C1148 C 0.22115 0.63367 0.23034 0.0
C1149 C 0.1907 0.68543 0.24675 0.0
C1150 C 0.19791 0.61372 0.24715 0.0
C1151 C 0.17107 0.6293 0.26331 0.0
H1152 H 0.44394 0.11001 0.27683 0.0
H1153 H 0.35322 0.17199 0.29011 0.0
H1154 H 0.38068 0.22021 0.26532 0.0
H1155 H 0.42976 0.24489 0.23866 0.0
H1156 H 0.52308 0.18637 0.22945 0.0
H1157 H 0.49569 0.13703 0.25425 0.0
C1158 C 0.43023 0.1341 0.27443 0.0
C1159 C 0.39584 0.13667 0.28424 0.0
C1160 C 0.44675 0.16248 0.26094 0.0
C1161 C 0.37891 0.16845 0.28148 0.0
C1162 C 0.39481 0.19636 0.26762 0.0
C1163 C 0.4441 0.22131 0.24208 0.0
C1164 C 0.47817 0.21902 0.23189 0.0
C1165 C 0.42848 0.19353 0.25687 0.0
C1166 C 0.49674 0.18863 0.23705 0.0
C1167 C 0.48105 0.16044 0.25115 0.0
loop_
_geom_bond_atom_site_label_1
_geom_bond_atom_site_label_2
_geom_bond_distance
_geom_bond_site_symmetry_2
_ccdc_geom_bond_type
Co0 N4 2.148 1_455 S
Co0 N10 2.128 . S
Co0 N20 2.194 . S
Co0 O25 2.351 . S
Co0 O26 2.155 . S
Co0 O27 2.096 . S
C1 N4 1.301 . S
C1 N5 1.328 . S
C1 H6 0.930 1_655 S
C2 C3 1.333 . S
C2 N4 1.317 . S
C2 H7 0.930 . S
C3 C2 1.333 . S
C3 N5 1.350 . S
C3 H29 0.931 . S
N4 Co0 2.148 1_655 S
N4 C1 1.301 . S
N4 C2 1.317 . S
N5 C1 1.328 . S
N5 C3 1.350 . S
H6 C1 0.930 1_455 S
H7 C2 0.930 . S
C8 O9 1.224 . S
C8 O27 1.247 1_655 S
O9 C8 1.224 . S
N10 Co0 2.128 . S
N10 C11 1.355 . S
N10 C13 1.311 . S
C11 N10 1.355 . S
C11 C12 1.363 . S
C11 H23 0.929 . S
C12 C11 1.363 . S
C12 N14 1.375 . S
C12 H30 0.931 . S
C13 N10 1.311 . S
C13 N14 1.347 . S
C13 H24 0.929 . S
N14 C12 1.375 . S
N14 C13 1.347 . S
C15 C18 1.365 . S
C15 N20 1.328 . S
C15 H21 0.929 . S
C16 C17 1.362 . S
C16 C19 1.378 . S
C16 H31 0.929 1_455 S
C17 C16 1.362 . S
C17 C18 1.366 . S
C18 C15 1.365 . S
C18 C17 1.366 . S
C18 H32 0.930 . S
C19 C16 1.378 . S
C19 N20 1.315 . S
C19 H22 0.930 1_455 S
N20 Co0 2.194 . S
N20 C15 1.328 . S
N20 C19 1.315 . S
H21 C15 0.929 . S
H22 C19 0.930 1_655 S
H23 C11 0.929 . S
H24 C13 0.929 . S
O25 Co0 2.351 . S
O25 C28 1.244 . S
O26 Co0 2.155 . S
O26 C28 1.240 . S
O27 Co0 2.096 . S
O27 C8 1.247 1_455 S
C28 O25 1.244 . S
C28 O26 1.240 . S
H29 C3 0.931 . S
H30 C12 0.931 . S
H31 C16 0.929 1_655 S
H32 C18 0.930 . S
Co33 N37 2.148 1_545 S
Co33 N43 2.128 . S
Co33 N53 2.194 . S
Co33 O58 2.351 . S
Co33 O59 2.155 . S
Co33 O60 2.096 . S
C34 N37 1.301 . S
C34 N38 1.328 . S
C34 H39 0.930 1_565 S
C35 C36 1.333 . S
C35 N37 1.317 . S
C35 H40 0.930 . S
C36 C35 1.333 . S
C36 N38 1.350 . S
C36 H62 0.931 . S
N37 Co33 2.148 1_565 S
N37 C34 1.301 . S
N37 C35 1.317 . S
N38 C34 1.328 . S
N38 C36 1.350 . S
H39 C34 0.930 1_545 S
H40 C35 0.930 . S
C41 O42 1.224 . S
C41 O60 1.247 1_565 S
O42 C41 1.224 . S
N43 Co33 2.128 . S
N43 C44 1.355 . S
N43 C46 1.311 . S
C44 N43 1.355 . S
C44 C45 1.363 . S
C44 H56 0.929 . S
C45 C44 1.363 . S
C45 N47 1.375 . S
C45 H63 0.931 . S
C46 N43 1.311 . S
C46 N47 1.347 . S
C46 H57 0.929 . S
N47 C45 1.375 . S
N47 C46 1.347 . S
C48 C51 1.365 . S
C48 N53 1.328 . S
C48 H54 0.929 . S
C49 C50 1.362 . S
C49 C52 1.378 . S
C49 H64 0.929 1_545 S
C50 C49 1.362 . S
C50 C51 1.366 . S
C51 C48 1.365 . S
C51 C50 1.366 . S
C51 H65 0.930 . S
C52 C49 1.378 . S
C52 N53 1.315 . S
C52 H55 0.930 1_545 S
N53 Co33 2.194 . S
N53 C48 1.328 . S
N53 C52 1.315 . S
H54 C48 0.929 . S
H55 C52 0.930 1_565 S
H56 C44 0.929 . S
H57 C46 0.929 . S
O58 Co33 2.351 . S
O58 C61 1.244 . S
O59 Co33 2.155 . S
O59 C61 1.240 . S
O60 Co33 2.096 . S
O60 C41 1.247 1_545 S
C61 O58 1.244 . S
C61 O59 1.240 . S
H62 C36 0.931 . S
H63 C45 0.931 . S
H64 C49 0.929 1_565 S
H65 C51 0.930 . S
Co66 N70 2.148 . S
Co66 N76 2.128 . S
Co66 N86 2.194 . S
Co66 O91 2.351 . S
Co66 O92 2.155 . S
Co66 O93 2.096 . S
C67 N70 1.301 . S
C67 N71 1.328 . S
C67 H72 0.930 . S
C68 C69 1.333 . S
C68 N70 1.317 . S
C68 H73 0.930 . S
C69 C68 1.333 . S
C69 N71 1.350 . S
C69 H95 0.931 . S
N70 Co66 2.148 . S
N70 C67 1.301 . S
N70 C68 1.317 . S
N71 C67 1.328 . S
N71 C69 1.350 . S
H72 C67 0.930 . S
H73 C68 0.930 . S
C74 O75 1.224 . S
C74 O93 1.247 . S
O75 C74 1.224 . S
N76 Co66 2.128 . S
N76 C77 1.355 . S
N76 C79 1.311 . S
C77 N76 1.355 . S
C77 C78 1.363 1_455 S
C77 H89 0.929 1_455 S
C78 C77 1.363 1_655 S
C78 N80 1.375 . S
C78 H96 0.931 . S
C79 N76 1.311 . S
C79 N80 1.347 1_455 S
C79 H90 0.929 . S
N80 C78 1.375 . S
N80 C79 1.347 1_655 S
C81 C84 1.365 . S
C81 N86 1.328 . S
C81 H87 0.929 . S
C82 C83 1.362 . S
C82 C85 1.378 . S
C82 H97 0.929 . S
C83 C82 1.362 . S
C83 C84 1.366 . S
C84 C81 1.365 . S
C84 C83 1.366 . S
C84 H98 0.930 . S
C85 C82 1.378 . S
C85 N86 1.315 . S
C85 H88 0.930 . S
N86 Co66 2.194 . S
N86 C81 1.328 . S
N86 C85 1.315 . S
H87 C81 0.929 . S
H88 C85 0.930 . S
H89 C77 0.929 1_655 S
H90 C79 0.929 . S
O91 Co66 2.351 . S
O91 C94 1.244 . S
O92 Co66 2.155 . S
O92 C94 1.240 . S
O93 Co66 2.096 . S
O93 C74 1.247 . S
C94 O91 1.244 . S
C94 O92 1.240 . S
H95 C69 0.931 . S
H96 C78 0.931 . S
H97 C82 0.929 . S
H98 C84 0.930 . S
Co99 N103 2.148 . S
Co99 N109 2.128 . S
Co99 N119 2.194 . S
Co99 O124 2.351 . S
Co99 O125 2.155 . S
Co99 O126 2.096 . S
C100 N103 1.301 . S
C100 N104 1.328 . S
C100 H105 0.930 . S
C101 C102 1.333 . S
C101 N103 1.317 . S
C101 H106 0.930 . S
C102 C101 1.333 . S
C102 N104 1.350 . S
C102 H128 0.931 . S
N103 Co99 2.148 . S
N103 C100 1.301 . S
N103 C101 1.317 . S
N104 C100 1.328 . S
N104 C102 1.350 . S
H105 C100 0.930 . S
H106 C101 0.930 . S
C107 O108 1.224 . S
C107 O126 1.247 . S
O108 C107 1.224 . S
N109 Co99 2.128 . S
N109 C110 1.355 . S
N109 C112 1.311 . S
C110 N109 1.355 . S
C110 C111 1.363 1_545 S
C110 H122 0.929 1_545 S
C111 C110 1.363 1_565 S
C111 N113 1.375 . S
C111 H129 0.931 . S
C112 N109 1.311 . S
C112 N113 1.347 1_545 S
C112 H123 0.929 . S
N113 C111 1.375 . S
N113 C112 1.347 1_565 S
C114 C117 1.365 . S
C114 N119 1.328 . S
C114 H120 0.929 . S
C115 C116 1.362 . S
C115 C118 1.378 . S
C115 H130 0.929 . S
C116 C115 1.362 . S
C116 C117 1.366 . S
C117 C114 1.365 . S
C117 C116 1.366 . S
C117 H131 0.930 . S
C118 C115 1.378 . S
C118 N119 1.315 . S
C118 H121 0.930 . S
N119 Co99 2.194 . S
N119 C114 1.328 . S
N119 C118 1.315 . S
H120 C114 0.929 . S
H121 C118 0.930 . S
H122 C110 0.929 1_565 S
H123 C112 0.929 . S
O124 Co99 2.351 . S
O124 C127 1.244 . S
O125 Co99 2.155 . S
O125 C127 1.240 . S
O126 Co99 2.096 . S
O126 C107 1.247 . S
C127 O124 1.244 . S
C127 O125 1.240 . S
H128 C102 0.931 . S
H129 C111 0.931 . S
H130 C115 0.929 . S
H131 C117 0.930 . S
Co132 N136 2.148 1_455 S
Co132 N142 2.128 . S
Co132 N152 2.194 . S
Co132 O157 2.351 . S
Co132 O158 2.155 . S
Co132 O159 2.096 . S
C133 N136 1.301 . S
C133 N137 1.328 . S
C133 H138 0.930 1_655 S
C134 C135 1.333 . S
C134 N136 1.317 . S
C134 H139 0.930 . S
C135 C134 1.333 . S
C135 N137 1.350 . S
C135 H161 0.931 . S
N136 Co132 2.148 1_655 S
N136 C133 1.301 . S
N136 C134 1.317 . S
N137 C133 1.328 . S
N137 C135 1.350 . S
H138 C133 0.930 1_455 S
H139 C134 0.930 . S
C140 O141 1.224 . S
C140 O159 1.247 1_655 S
O141 C140 1.224 . S
N142 Co132 2.128 . S
N142 C143 1.355 . S
N142 C145 1.311 . S
C143 N142 1.355 . S
C143 C144 1.363 . S
C143 H155 0.929 . S
C144 C143 1.363 . S
C144 N146 1.375 . S
C144 H162 0.931 . S
C145 N142 1.311 . S
C145 N146 1.347 . S
C145 H156 0.929 . S
N146 C144 1.375 . S
N146 C145 1.347 . S
C147 C150 1.365 . S
C147 N152 1.328 . S
C147 H153 0.929 . S
C148 C149 1.362 . S
C148 C151 1.378 . S
C148 H163 0.929 1_455 S
C149 C148 1.362 . S
C149 C150 1.366 . S
C150 C147 1.365 . S
C150 C149 1.366 . S
C150 H164 0.930 . S
C151 C148 1.378 . S
C151 N152 1.315 . S
C151 H154 0.930 1_455 S
N152 Co132 2.194 . S
N152 C147 1.328 . S
N152 C151 1.315 . S
H153 C147 0.929 . S
H154 C151 0.930 1_655 S
H155 C143 0.929 . S
H156 C145 0.929 . S
O157 Co132 2.351 . S
O157 C160 1.244 . S
O158 Co132 2.155 . S
O158 C160 1.240 . S
O159 Co132 2.096 . S
O159 C140 1.247 1_455 S
C160 O157 1.244 . S
C160 O158 1.240 . S
H161 C135 0.931 . S
H162 C144 0.931 . S
H163 C148 0.929 1_655 S
H164 C150 0.930 . S
Co165 N169 2.148 1_545 S
Co165 N175 2.128 . S
Co165 N185 2.194 . S
Co165 O190 2.351 . S
Co165 O191 2.155 . S
Co165 O192 2.096 . S
C166 N169 1.301 . S
C166 N170 1.328 . S
C166 H171 0.930 1_565 S
C167 C168 1.333 . S
C167 N169 1.317 . S
C167 H172 0.930 . S
C168 C167 1.333 . S
C168 N170 1.350 . S
C168 H194 0.931 . S
N169 Co165 2.148 1_565 S
N169 C166 1.301 . S
N169 C167 1.317 . S
N170 C166 1.328 . S
N170 C168 1.350 . S
H171 C166 0.930 1_545 S
H172 C167 0.930 . S
C173 O174 1.224 . S
C173 O192 1.247 1_565 S
O174 C173 1.224 . S
N175 Co165 2.128 . S
N175 C176 1.355 . S
N175 C178 1.311 . S
C176 N175 1.355 . S
C176 C177 1.363 . S
C176 H188 0.929 . S
C177 C176 1.363 . S
C177 N179 1.375 . S
C177 H195 0.931 . S
C178 N175 1.311 . S
C178 N179 1.347 . S
C178 H189 0.929 . S
N179 C177 1.375 . S
N179 C178 1.347 . S
C180 C183 1.365 . S
C180 N185 1.328 . S
C180 H186 0.929 . S
C181 C182 1.362 . S
C181 C184 1.378 . S
C181 H196 0.929 1_545 S
C182 C181 1.362 . S
C182 C183 1.366 . S
C183 C180 1.365 . S
C183 C182 1.366 . S
C183 H197 0.930 . S
C184 C181 1.378 . S
C184 N185 1.315 . S
C184 H187 0.930 1_545 S
N185 Co165 2.194 . S
N185 C180 1.328 . S
N185 C184 1.315 . S
H186 C180 0.929 . S
H187 C184 0.930 1_565 S
H188 C176 0.929 . S
H189 C178 0.929 . S
O190 Co165 2.351 . S
O190 C193 1.244 . S
O191 Co165 2.155 . S
O191 C193 1.240 . S
O192 Co165 2.096 . S
O192 C173 1.247 1_545 S
C193 O190 1.244 . S
C193 O191 1.240 . S
H194 C168 0.931 . S
H195 C177 0.931 . S
H196 C181 0.929 1_565 S
H197 C183 0.930 . S
Co198 N202 2.148 . S
Co198 N208 2.128 . S
Co198 N218 2.194 . S
Co198 O223 2.351 . S
Co198 O224 2.155 . S
Co198 O225 2.096 . S
C199 N202 1.301 . S
C199 N203 1.328 . S
C199 H204 0.930 . S
C200 C201 1.333 . S
C200 N202 1.317 . S
C200 H205 0.930 . S
C201 C200 1.333 . S
C201 N203 1.350 . S
C201 H227 0.931 . S
N202 Co198 2.148 . S
N202 C199 1.301 . S
N202 C200 1.317 . S
N203 C199 1.328 . S
N203 C201 1.350 . S
H204 C199 0.930 . S
H205 C200 0.930 . S
C206 O207 1.224 . S
C206 O225 1.247 . S
O207 C206 1.224 . S
N208 Co198 2.128 . S
N208 C209 1.355 . S
N208 C211 1.311 . S
C209 N208 1.355 . S
C209 C210 1.363 1_455 S
C209 H221 0.929 1_455 S
C210 C209 1.363 1_655 S
C210 N212 1.375 . S
C210 H228 0.931 . S
C211 N208 1.311 . S
C211 N212 1.347 1_455 S
C211 H222 0.929 . S
N212 C210 1.375 . S
N212 C211 1.347 1_655 S
C213 C216 1.365 . S
C213 N218 1.328 . S
C213 H219 0.929 . S
C214 C215 1.362 . S
C214 C217 1.378 . S
C214 H229 0.929 . S
C215 C214 1.362 . S
C215 C216 1.366 . S
C216 C213 1.365 . S
C216 C215 1.366 . S
C216 H230 0.930 . S
C217 C214 1.378 . S
C217 N218 1.315 . S
C217 H220 0.930 . S
N218 Co198 2.194 . S
N218 C213 1.328 . S
N218 C217 1.315 . S
H219 C213 0.929 . S
H220 C217 0.930 . S
H221 C209 0.929 1_655 S
H222 C211 0.929 . S
O223 Co198 2.351 . S
O223 C226 1.244 . S
O224 Co198 2.155 . S
O224 C226 1.240 . S
O225 Co198 2.096 . S
O225 C206 1.247 . S
C226 O223 1.244 . S
C226 O224 1.240 . S
H227 C201 0.931 . S
H228 C210 0.931 . S
H229 C214 0.929 . S
H230 C216 0.930 . S
Co231 N235 2.148 . S
Co231 N241 2.128 . S
Co231 N251 2.194 . S
Co231 O256 2.351 . S
Co231 O257 2.155 . S
Co231 O258 2.096 . S
C232 N235 1.301 . S
C232 N236 1.328 . S
C232 H237 0.930 . S
C233 C234 1.333 . S
C233 N235 1.317 . S
C233 H238 0.930 . S
C234 C233 1.333 . S
C234 N236 1.350 . S
C234 H260 0.931 . S
N235 Co231 2.148 . S
N235 C232 1.301 . S
N235 C233 1.317 . S
N236 C232 1.328 . S
N236 C234 1.350 . S
H237 C232 0.930 . S
H238 C233 0.930 . S
C239 O240 1.224 . S
C239 O258 1.247 . S
O240 C239 1.224 . S
N241 Co231 2.128 . S
N241 C242 1.355 . S
N241 C244 1.311 . S
C242 N241 1.355 . S
C242 C243 1.363 1_545 S
C242 H254 0.929 1_545 S
C243 C242 1.363 1_565 S
C243 N245 1.375 . S
C243 H261 0.931 . S
C244 N241 1.311 . S
C244 N245 1.347 1_545 S
C244 H255 0.929 . S
N245 C243 1.375 . S
N245 C244 1.347 1_565 S
C246 C249 1.365 . S
C246 N251 1.328 . S
C246 H252 0.929 . S
C247 C248 1.362 . S
C247 C250 1.378 . S
C247 H262 0.929 . S
C248 C247 1.362 . S
C248 C249 1.366 . S
C249 C246 1.365 . S
C249 C248 1.366 . S
C249 H263 0.930 . S
C250 C247 1.378 . S
C250 N251 1.315 . S
C250 H253 0.930 . S
N251 Co231 2.194 . S
N251 C246 1.328 . S
N251 C250 1.315 . S
H252 C246 0.929 . S
H253 C250 0.930 . S
H254 C242 0.929 1_565 S
H255 C244 0.929 . S
O256 Co231 2.351 . S
O256 C259 1.244 . S
O257 Co231 2.155 . S
O257 C259 1.240 . S
O258 Co231 2.096 . S
O258 C239 1.247 . S
C259 O256 1.244 . S
C259 O257 1.240 . S
H260 C234 0.931 . S
H261 C243 0.931 . S
H262 C247 0.929 . S
H263 C249 0.930 . S
Co264 N268 2.148 . S
Co264 N274 2.128 . S
Co264 N284 2.194 . S
Co264 O289 2.351 . S
Co264 O290 2.155 . S
Co264 O291 2.096 . S
C265 N268 1.301 . S
C265 N269 1.328 . S
C265 H270 0.930 . S
C266 C267 1.333 . S
C266 N268 1.317 . S
C266 H271 0.930 . S
C267 C266 1.333 . S
C267 N269 1.350 . S
C267 H293 0.931 . S
N268 Co264 2.148 . S
N268 C265 1.301 . S
N268 C266 1.317 . S
N269 C265 1.328 . S
N269 C267 1.350 . S
H270 C265 0.930 . S
H271 C266 0.930 . S
C272 O273 1.224 . S
C272 O291 1.247 . S
O273 C272 1.224 . S
N274 Co264 2.128 . S
N274 C275 1.355 . S
N274 C277 1.311 . S
C275 N274 1.355 . S
C275 C276 1.363 . S
C275 H287 0.929 . S
C276 C275 1.363 . S
C276 N278 1.375 . S
C276 H294 0.931 . S
C277 N274 1.311 . S
C277 N278 1.347 . S
C277 H288 0.929 . S
N278 C276 1.375 . S
N278 C277 1.347 . S
C279 C282 1.365 . S
C279 N284 1.328 . S
C279 H285 0.929 . S
C280 C281 1.362 . S
C280 C283 1.378 . S
C280 H295 0.929 . S
C281 C280 1.362 . S
C281 C282 1.366 . S
C282 C279 1.365 . S
C282 C281 1.366 . S
C282 H296 0.930 . S
C283 C280 1.378 . S
C283 N284 1.315 . S
C283 H286 0.930 . S
N284 Co264 2.194 . S
N284 C279 1.328 . S
N284 C283 1.315 . S
H285 C279 0.929 . S
H286 C283 0.930 . S
H287 C275 0.929 . S
H288 C277 0.929 . S
O289 Co264 2.351 . S
O289 C292 1.244 . S
O290 Co264 2.155 . S
O290 C292 1.240 . S
O291 Co264 2.096 . S
O291 C272 1.247 . S
C292 O289 1.244 . S
C292 O290 1.240 . S
H293 C267 0.931 . S
H294 C276 0.931 . S
H295 C280 0.929 . S
H296 C282 0.930 . S
Co297 N301 2.148 . S
Co297 N307 2.128 . S
Co297 N317 2.194 . S
Co297 O322 2.351 . S
Co297 O323 2.155 . S
Co297 O324 2.096 . S
C298 N301 1.301 . S
C298 N302 1.328 . S
C298 H303 0.930 . S
C299 C300 1.333 . S
C299 N301 1.317 . S
C299 H304 0.930 . S
C300 C299 1.333 . S
C300 N302 1.350 . S
C300 H326 0.931 . S
N301 Co297 2.148 . S
N301 C298 1.301 . S
N301 C299 1.317 . S
N302 C298 1.328 . S
N302 C300 1.350 . S
H303 C298 0.930 . S
H304 C299 0.930 . S
C305 O306 1.224 . S
C305 O324 1.247 . S
O306 C305 1.224 . S
N307 Co297 2.128 . S
N307 C308 1.355 . S
N307 C310 1.311 . S
C308 N307 1.355 . S
C308 C309 1.363 . S
C308 H320 0.929 . S
C309 C308 1.363 . S
C309 N311 1.375 . S
C309 H327 0.931 . S
C310 N307 1.311 . S
C310 N311 1.347 . S
C310 H321 0.929 . S
N311 C309 1.375 . S
N311 C310 1.347 . S
C312 C315 1.365 . S
C312 N317 1.328 . S
C312 H318 0.929 . S
C313 C314 1.362 . S
C313 C316 1.378 . S
C313 H328 0.929 . S
C314 C313 1.362 . S
C314 C315 1.366 . S
C315 C312 1.365 . S
C315 C314 1.366 . S
C315 H329 0.930 . S
C316 C313 1.378 . S
C316 N317 1.315 . S
C316 H319 0.930 . S
N317 Co297 2.194 . S
N317 C312 1.328 . S
N317 C316 1.315 . S
H318 C312 0.929 . S
H319 C316 0.930 . S
H320 C308 0.929 . S
H321 C310 0.929 . S
O322 Co297 2.351 . S
O322 C325 1.244 . S
O323 Co297 2.155 . S
O323 C325 1.240 . S
O324 Co297 2.096 . S
O324 C305 1.247 . S
C325 O322 1.244 . S
C325 O323 1.240 . S
H326 C300 0.931 . S
H327 C309 0.931 . S
H328 C313 0.929 . S
H329 C315 0.930 . S
Co330 N334 2.148 . S
Co330 N340 2.128 . S
Co330 N350 2.194 . S
Co330 O355 2.351 . S
Co330 O356 2.155 . S
Co330 O357 2.096 . S
C331 N334 1.301 . S
C331 N335 1.328 . S
C331 H336 0.930 . S
C332 C333 1.333 . S
C332 N334 1.317 . S
C332 H337 0.930 . S
C333 C332 1.333 . S
C333 N335 1.350 . S
C333 H359 0.931 . S
N334 Co330 2.148 . S
N334 C331 1.301 . S
N334 C332 1.317 . S
N335 C331 1.328 . S
N335 C333 1.350 . S
H336 C331 0.930 . S
H337 C332 0.930 . S
C338 O339 1.224 . S
C338 O357 1.247 . S
O339 C338 1.224 . S
N340 Co330 2.128 . S
N340 C341 1.355 . S
N340 C343 1.311 . S
C341 N340 1.355 . S
C341 C342 1.363 . S
C341 H353 0.929 . S
C342 C341 1.363 . S
C342 N344 1.375 . S
C342 H360 0.931 . S
C343 N340 1.311 . S
C343 N344 1.347 . S
C343 H354 0.929 . S
N344 C342 1.375 . S
N344 C343 1.347 . S
C345 C348 1.365 . S
C345 N350 1.328 . S
C345 H351 0.929 . S
C346 C347 1.362 . S
C346 C349 1.378 . S
C346 H361 0.929 . S
C347 C346 1.362 . S
C347 C348 1.366 . S
C348 C345 1.365 . S
C348 C347 1.366 . S
C348 H362 0.930 . S
C349 C346 1.378 . S
C349 N350 1.315 . S
C349 H352 0.930 . S
N350 Co330 2.194 . S
N350 C345 1.328 . S
N350 C349 1.315 . S
H351 C345 0.929 . S
H352 C349 0.930 . S
H353 C341 0.929 . S
H354 C343 0.929 . S
O355 Co330 2.351 . S
O355 C358 1.244 . S
O356 Co330 2.155 . S
O356 C358 1.240 . S
O357 Co330 2.096 . S
O357 C338 1.247 . S
C358 O355 1.244 . S
C358 O356 1.240 . S
H359 C333 0.931 . S
H360 C342 0.931 . S
H361 C346 0.929 . S
H362 C348 0.930 . S
Co363 N367 2.148 . S
Co363 N373 2.128 . S
Co363 N383 2.194 . S
Co363 O388 2.351 . S
Co363 O389 2.155 . S
Co363 O390 2.096 . S
C364 N367 1.301 . S
C364 N368 1.328 . S
C364 H369 0.930 . S
C365 C366 1.333 . S
C365 N367 1.317 . S
C365 H370 0.930 . S
C366 C365 1.333 . S
C366 N368 1.350 . S
C366 H392 0.931 . S
N367 Co363 2.148 . S
N367 C364 1.301 . S
N367 C365 1.317 . S
N368 C364 1.328 . S
N368 C366 1.350 . S
H369 C364 0.930 . S
H370 C365 0.930 . S
C371 O372 1.224 . S
C371 O390 1.247 . S
O372 C371 1.224 . S
N373 Co363 2.128 . S
N373 C374 1.355 . S
N373 C376 1.311 . S
C374 N373 1.355 . S
C374 C375 1.363 . S
C374 H386 0.929 . S
C375 C374 1.363 . S
C375 N377 1.375 . S
C375 H393 0.931 . S
C376 N373 1.311 . S
C376 N377 1.347 . S
C376 H387 0.929 . S
N377 C375 1.375 . S
N377 C376 1.347 . S
C378 C381 1.365 . S
C378 N383 1.328 . S
C378 H384 0.929 . S
C379 C380 1.362 . S
C379 C382 1.378 . S
C379 H394 0.929 . S
C380 C379 1.362 . S
C380 C381 1.366 . S
C381 C378 1.365 . S
C381 C380 1.366 . S
C381 H395 0.930 . S
C382 C379 1.378 . S
C382 N383 1.315 . S
C382 H385 0.930 . S
N383 Co363 2.194 . S
N383 C378 1.328 . S
N383 C382 1.315 . S
H384 C378 0.929 . S
H385 C382 0.930 . S
H386 C374 0.929 . S
H387 C376 0.929 . S
O388 Co363 2.351 . S
O388 C391 1.244 . S
O389 Co363 2.155 . S
O389 C391 1.240 . S
O390 Co363 2.096 . S
O390 C371 1.247 . S
C391 O388 1.244 . S
C391 O389 1.240 . S
H392 C366 0.931 . S
H393 C375 0.931 . S
H394 C379 0.929 . S
H395 C381 0.930 . S
Co396 N400 2.148 . S
Co396 N406 2.128 . S
Co396 N416 2.194 . S
Co396 O421 2.351 . S
Co396 O422 2.155 . S
Co396 O423 2.096 . S
C397 N400 1.301 . S
C397 N401 1.328 . S
C397 H402 0.930 . S
C398 C399 1.333 . S
C398 N400 1.317 . S
C398 H403 0.930 . S
C399 C398 1.333 . S
C399 N401 1.350 . S
C399 H425 0.931 . S
N400 Co396 2.148 . S
N400 C397 1.301 . S
N400 C398 1.317 . S
N401 C397 1.328 . S
N401 C399 1.350 . S
H402 C397 0.930 . S
H403 C398 0.930 . S
C404 O405 1.224 . S
C404 O423 1.247 . S
O405 C404 1.224 . S
N406 Co396 2.128 . S
N406 C407 1.355 . S
N406 C409 1.311 . S
C407 N406 1.355 . S
C407 C408 1.363 . S
C407 H419 0.929 . S
C408 C407 1.363 . S
C408 N410 1.375 . S
C408 H426 0.931 . S
C409 N406 1.311 . S
C409 N410 1.347 . S
C409 H420 0.929 . S
N410 C408 1.375 . S
N410 C409 1.347 . S
C411 C414 1.365 . S
C411 N416 1.328 . S
C411 H417 0.929 . S
C412 C413 1.362 . S
C412 C415 1.378 . S
C412 H427 0.929 . S
C413 C412 1.362 . S
C413 C414 1.366 . S
C414 C411 1.365 . S
C414 C413 1.366 . S
C414 H428 0.930 . S
C415 C412 1.378 . S
C415 N416 1.315 . S
C415 H418 0.930 . S
N416 Co396 2.194 . S
N416 C411 1.328 . S
N416 C415 1.315 . S
H417 C411 0.929 . S
H418 C415 0.930 . S
H419 C407 0.929 . S
H420 C409 0.929 . S
O421 Co396 2.351 . S
O421 C424 1.244 . S
O422 Co396 2.155 . S
O422 C424 1.240 . S
O423 Co396 2.096 . S
O423 C404 1.247 . S
C424 O421 1.244 . S
C424 O422 1.240 . S
H425 C399 0.931 . S
H426 C408 0.931 . S
H427 C412 0.929 . S
H428 C414 0.930 . S
Co429 N433 2.148 . S
Co429 N439 2.128 . S
Co429 N449 2.194 . S
Co429 O454 2.351 . S
Co429 O455 2.155 . S
Co429 O456 2.096 . S
C430 N433 1.301 . S
C430 N434 1.328 . S
C430 H435 0.930 . S
C431 C432 1.333 . S
C431 N433 1.317 . S
C431 H436 0.930 . S
C432 C431 1.333 . S
C432 N434 1.350 . S
C432 H458 0.931 . S
N433 Co429 2.148 . S
N433 C430 1.301 . S
N433 C431 1.317 . S
N434 C430 1.328 . S
N434 C432 1.350 . S
H435 C430 0.930 . S
H436 C431 0.930 . S
C437 O438 1.224 . S
C437 O456 1.247 . S
O438 C437 1.224 . S
N439 Co429 2.128 . S
N439 C440 1.355 . S
N439 C442 1.311 . S
C440 N439 1.355 . S
C440 C441 1.363 . S
C440 H452 0.929 . S
C441 C440 1.363 . S
C441 N443 1.375 . S
C441 H459 0.931 . S
C442 N439 1.311 . S
C442 N443 1.347 . S
C442 H453 0.929 . S
N443 C441 1.375 . S
N443 C442 1.347 . S
C444 C447 1.365 . S
C444 N449 1.328 . S
C444 H450 0.929 . S
C445 C446 1.362 . S
C445 C448 1.378 . S
C445 H460 0.929 . S
C446 C445 1.362 . S
C446 C447 1.366 . S
C447 C444 1.365 . S
C447 C446 1.366 . S
C447 H461 0.930 . S
C448 C445 1.378 . S
C448 N449 1.315 . S
C448 H451 0.930 . S
N449 Co429 2.194 . S
N449 C444 1.328 . S
N449 C448 1.315 . S
H450 C444 0.929 . S
H451 C448 0.930 . S
H452 C440 0.929 . S
H453 C442 0.929 . S
O454 Co429 2.351 . S
O454 C457 1.244 . S
O455 Co429 2.155 . S
O455 C457 1.240 . S
O456 Co429 2.096 . S
O456 C437 1.247 . S
C457 O454 1.244 . S
C457 O455 1.240 . S
H458 C432 0.931 . S
H459 C441 0.931 . S
H460 C445 0.929 . S
H461 C447 0.930 . S
Co462 N466 2.148 . S
Co462 N472 2.128 . S
Co462 N482 2.194 . S
Co462 O487 2.351 . S
Co462 O488 2.155 . S
Co462 O489 2.096 . S
C463 N466 1.301 . S
C463 N467 1.328 . S
C463 H468 0.930 . S
C464 C465 1.333 . S
C464 N466 1.317 . S
C464 H469 0.930 . S
C465 C464 1.333 . S
C465 N467 1.350 . S
C465 H491 0.931 . S
N466 Co462 2.148 . S
N466 C463 1.301 . S
N466 C464 1.317 . S
N467 C463 1.328 . S
N467 C465 1.350 . S
H468 C463 0.930 . S
H469 C464 0.930 . S
C470 O471 1.224 . S
C470 O489 1.247 . S
O471 C470 1.224 . S
N472 Co462 2.128 . S
N472 C473 1.355 . S
N472 C475 1.311 . S
C473 N472 1.355 . S
C473 C474 1.363 . S
C473 H485 0.929 . S
C474 C473 1.363 . S
C474 N476 1.375 . S
C474 H492 0.931 . S
C475 N472 1.311 . S
C475 N476 1.347 . S
C475 H486 0.929 . S
N476 C474 1.375 . S
N476 C475 1.347 . S
C477 C480 1.365 . S
C477 N482 1.328 . S
C477 H483 0.929 . S
C478 C479 1.362 . S
C478 C481 1.378 . S
C478 H493 0.929 . S
C479 C478 1.362 . S
C479 C480 1.366 . S
C480 C477 1.365 . S
C480 C479 1.366 . S
C480 H494 0.930 . S
C481 C478 1.378 . S
C481 N482 1.315 . S
C481 H484 0.930 . S
N482 Co462 2.194 . S
N482 C477 1.328 . S
N482 C481 1.315 . S
H483 C477 0.929 . S
H484 C481 0.930 . S
H485 C473 0.929 . S
H486 C475 0.929 . S
O487 Co462 2.351 . S
O487 C490 1.244 . S
O488 Co462 2.155 . S
O488 C490 1.240 . S
O489 Co462 2.096 . S
O489 C470 1.247 . S
C490 O487 1.244 . S
C490 O488 1.240 . S
H491 C465 0.931 . S
H492 C474 0.931 . S
H493 C478 0.929 . S
H494 C480 0.930 . S
Co495 N499 2.148 . S
Co495 N505 2.128 . S
Co495 N515 2.194 . S
Co495 O520 2.351 . S
Co495 O521 2.155 . S
Co495 O522 2.096 . S
C496 N499 1.301 . S
C496 N500 1.328 . S
C496 H501 0.930 . S
C497 C498 1.333 . S
C497 N499 1.317 . S
C497 H502 0.930 . S
C498 C497 1.333 . S
C498 N500 1.350 . S
C498 H524 0.931 . S
N499 Co495 2.148 . S
N499 C496 1.301 . S
N499 C497 1.317 . S
N500 C496 1.328 . S
N500 C498 1.350 . S
H501 C496 0.930 . S
H502 C497 0.930 . S
C503 O504 1.224 . S
C503 O522 1.247 . S
O504 C503 1.224 . S
N505 Co495 2.128 . S
N505 C506 1.355 . S
N505 C508 1.311 . S
C506 N505 1.355 . S
C506 C507 1.363 . S
C506 H518 0.929 . S
C507 C506 1.363 . S
C507 N509 1.375 . S
C507 H525 0.931 . S
C508 N505 1.311 . S
C508 N509 1.347 . S
C508 H519 0.929 . S
N509 C507 1.375 . S
N509 C508 1.347 . S
C510 C513 1.365 . S
C510 N515 1.328 . S
C510 H516 0.929 . S
C511 C512 1.362 . S
C511 C514 1.378 . S
C511 H526 0.929 . S
C512 C511 1.362 . S
C512 C513 1.366 . S
C513 C510 1.365 . S
C513 C512 1.366 . S
C513 H527 0.930 . S
C514 C511 1.378 . S
C514 N515 1.315 . S
C514 H517 0.930 . S
N515 Co495 2.194 . S
N515 C510 1.328 . S
N515 C514 1.315 . S
H516 C510 0.929 . S
H517 C514 0.930 . S
H518 C506 0.929 . S
H519 C508 0.929 . S
O520 Co495 2.351 . S
O520 C523 1.244 . S
O521 Co495 2.155 . S
O521 C523 1.240 . S
O522 Co495 2.096 . S
O522 C503 1.247 . S
C523 O520 1.244 . S
C523 O521 1.240 . S
H524 C498 0.931 . S
H525 C507 0.931 . S
H526 C511 0.929 . S
H527 C513 0.930 . S
H528 C534 0.930 1_655 S
H529 C537 0.930 . S
H530 C538 0.930 . S
H531 C539 0.930 . S
H532 C542 0.930 . S
H533 C543 0.930 1_655 S
C534 H528 0.930 1_455 S
C534 C535 1.355 . S
C534 C536 1.415 . S
C535 C534 1.355 . S
C535 C537 1.419 . S
C536 C534 1.415 . S
C536 C541 1.425 . S
C536 C543 1.409 . S
C537 H529 0.930 . S
C537 C535 1.419 . S
C537 C538 1.362 . S
C538 H530 0.930 . S
C538 C537 1.362 . S
C538 C541 1.409 . S
C539 H531 0.930 . S
C539 C540 1.355 . S
C539 C541 1.415 . S
C540 C539 1.355 . S
C540 C542 1.419 . S
C541 C536 1.425 . S
C541 C538 1.409 . S
C541 C539 1.415 . S
C542 H532 0.930 . S
C542 C540 1.419 . S
C542 C543 1.362 . S
C543 H533 0.930 1_455 S
C543 C536 1.409 . S
C543 C542 1.362 . S
H544 C550 0.930 . S
H545 C553 0.930 . S
H546 C554 0.930 1_565 S
H547 C555 0.930 1_565 S
H548 C558 0.930 . S
H549 C559 0.930 . S
C550 H544 0.930 . S
C550 C551 1.355 . S
C550 C552 1.415 . S
C551 C550 1.355 . S
C551 C553 1.419 . S
C552 C550 1.415 . S
C552 C557 1.425 . S
C552 C559 1.409 . S
C553 H545 0.930 . S
C553 C551 1.419 . S
C553 C554 1.362 . S
C554 H546 0.930 1_545 S
C554 C553 1.362 . S
C554 C557 1.409 . S
C555 H547 0.930 1_545 S
C555 C556 1.355 . S
C555 C557 1.415 . S
C556 C555 1.355 . S
C556 C558 1.419 . S
C557 C552 1.425 . S
C557 C554 1.409 . S
C557 C555 1.415 . S
C558 H548 0.930 . S
C558 C556 1.419 . S
C558 C559 1.362 . S
C559 H549 0.930 . S
C559 C552 1.409 . S
C559 C558 1.362 . S
H560 C566 0.930 . S
H561 C569 0.930 . S
H562 C570 0.933 . S
H563 C571 0.930 . S
H564 C574 0.930 . S
H565 C575 0.930 . S
C566 H560 0.930 . S
C566 C567 1.355 . S
C566 C568 1.415 . S
C567 C566 1.355 . S
C567 C569 1.419 1_455 S
C568 C566 1.415 . S
C568 C573 1.425 . S
C568 C575 1.409 . S
C569 H561 0.930 . S
C569 C567 1.419 1_655 S
C569 C570 1.363 . S
C570 H562 0.933 . S
C570 C569 1.363 . S
C570 C573 1.406 1_655 S
C571 H563 0.930 . S
C571 C572 1.355 . S
C571 C573 1.415 . S
C572 C571 1.355 . S
C572 C574 1.419 . S
C573 C568 1.425 . S
C573 C570 1.406 1_455 S
C573 C571 1.415 . S
C574 H564 0.930 . S
C574 C572 1.419 . S
C574 C575 1.362 . S
C575 H565 0.930 . S
C575 C568 1.409 . S
C575 C574 1.362 . S
H576 C582 0.930 1_565 S
H577 C585 0.930 . S
H578 C586 0.930 . S
H579 C587 0.930 . S
H580 C590 0.930 . S
H581 C591 0.930 1_565 S
C582 H576 0.930 1_545 S
C582 C583 1.355 . S
C582 C584 1.415 . S
C583 C582 1.355 . S
C583 C585 1.419 . S
C584 C582 1.415 . S
C584 C589 1.425 . S
C584 C591 1.409 . S
C585 H577 0.930 . S
C585 C583 1.419 . S
C585 C586 1.362 . S
C586 H578 0.930 . S
C586 C585 1.362 . S
C586 C589 1.409 . S
C587 H579 0.930 . S
C587 C588 1.355 . S
C587 C589 1.415 . S
C588 C587 1.355 . S
C588 C590 1.419 . S
C589 C584 1.425 . S
C589 C586 1.409 . S
C589 C587 1.415 . S
C590 H580 0.930 . S
C590 C588 1.419 . S
C590 C591 1.362 . S
C591 H581 0.930 1_545 S
C591 C584 1.409 . S
C591 C590 1.362 . S
H592 C598 0.930 . S
H593 C601 0.930 . S
H594 C602 0.930 . S
H595 C603 0.930 . S
H596 C606 0.930 . S
H597 C607 0.930 . S
C598 H592 0.930 . S
C598 C599 1.355 . S
C598 C600 1.415 . S
C599 C598 1.355 . S
C599 C601 1.419 . S
C600 C598 1.415 . S
C600 C605 1.425 1_556 S
C600 C607 1.409 1_556 S
C601 H593 0.930 . S
C601 C599 1.419 . S
C601 C602 1.362 . S
C602 H594 0.930 . S
C602 C601 1.362 . S
C602 C605 1.409 1_556 S
C603 H595 0.930 . S
C603 C604 1.355 . S
C603 C605 1.415 . S
C604 C603 1.355 . S
C604 C606 1.419 . S
C605 C600 1.425 1_554 S
C605 C602 1.409 1_554 S
C605 C603 1.415 . S
C606 H596 0.930 . S
C606 C604 1.419 . S
C606 C607 1.362 . S
C607 H597 0.930 . S
C607 C600 1.409 1_554 S
C607 C606 1.362 . S
H608 C614 0.930 . S
H609 C617 0.930 . S
H610 C618 0.930 1_554 S
H611 C619 0.930 . S
H612 C622 0.930 . S
H613 C623 0.930 1_556 S
C614 H608 0.930 . S
C614 C615 1.355 . S
C614 C616 1.415 . S
C615 C614 1.355 . S
C615 C617 1.419 . S
C616 C614 1.415 . S
C616 C621 1.425 1_556 S
C616 C623 1.409 1_556 S
C617 H609 0.930 . S
C617 C615 1.419 . S
C617 C618 1.362 . S
C618 H610 0.930 1_556 S
C618 C617 1.362 . S
C618 C621 1.409 1_556 S
C619 H611 0.930 . S
C619 C620 1.355 . S
C619 C621 1.415 . S
C620 C619 1.355 . S
C620 C622 1.419 . S
C621 C616 1.425 1_554 S
C621 C618 1.409 1_554 S
C621 C619 1.415 . S
C622 H612 0.930 . S
C622 C620 1.419 . S
C622 C623 1.362 . S
C623 H613 0.930 1_554 S
C623 C616 1.409 1_554 S
C623 C622 1.362 . S
H624 C630 0.930 . S
H625 C633 0.930 . S
H626 C634 0.930 . S
H627 C635 0.930 . S
H628 C638 0.930 . S
H629 C639 0.930 . S
C630 H624 0.930 . S
C630 C631 1.355 . S
C630 C632 1.415 . S
C631 C630 1.355 . S
C631 C633 1.419 . S
C632 C630 1.415 . S
C632 C637 1.425 1_556 S
C632 C639 1.409 1_556 S
C633 H625 0.930 . S
C633 C631 1.419 . S
C633 C634 1.362 . S
C634 H626 0.930 . S
C634 C633 1.362 . S
C634 C637 1.409 1_556 S
C635 H627 0.930 . S
C635 C636 1.355 . S
C635 C637 1.415 . S
C636 C635 1.355 . S
C636 C638 1.419 . S
C637 C632 1.425 1_554 S
C637 C634 1.409 1_554 S
C637 C635 1.415 . S
C638 H628 0.930 . S
C638 C636 1.419 . S
C638 C639 1.362 . S
C639 H629 0.930 . S
C639 C632 1.409 1_554 S
C639 C638 1.362 . S
H640 C646 0.930 . S
H641 C649 0.930 . S
H642 C650 0.930 . S
H643 C651 0.930 . S
H644 C654 0.930 . S
H645 C655 0.930 . S
C646 H640 0.930 . S
C646 C647 1.355 . S
C646 C648 1.415 . S
C647 C646 1.355 . S
C647 C649 1.419 . S
C648 C646 1.415 . S
C648 C653 1.425 1_554 S
C648 C655 1.409 1_554 S
C649 H641 0.930 . S
C649 C647 1.419 . S
C649 C650 1.362 . S
C650 H642 0.930 . S
C650 C649 1.362 . S
C650 C653 1.409 1_554 S
C651 H643 0.930 . S
C651 C652 1.355 . S
C651 C653 1.415 . S
C652 C651 1.355 . S
C652 C654 1.419 . S
C653 C648 1.425 1_556 S
C653 C650 1.409 1_556 S
C653 C651 1.415 . S
C654 H644 0.930 . S
C654 C652 1.419 . S
C654 C655 1.362 . S
C655 H645 0.930 . S
C655 C648 1.409 1_556 S
C655 C654 1.362 . S
H656 C662 0.930 . S
H657 C665 0.930 . S
H658 C666 0.930 . S
H659 C667 0.930 . S
H660 C670 0.930 . S
H661 C671 0.930 . S
C662 H656 0.930 . S
C662 C663 1.355 . S
C662 C664 1.415 . S
C663 C662 1.355 . S
C663 C665 1.419 . S
C664 C662 1.415 . S
C664 C669 1.425 . S
C664 C671 1.409 . S
C665 H657 0.930 . S
C665 C663 1.419 . S
C665 C666 1.362 . S
C666 H658 0.930 . S
C666 C665 1.362 . S
C666 C669 1.409 . S
C667 H659 0.930 . S
C667 C668 1.355 . S
C667 C669 1.415 . S
C668 C667 1.355 . S
C668 C670 1.419 . S
C669 C664 1.425 . S
C669 C666 1.409 . S
C669 C667 1.415 . S
C670 H660 0.930 . S
C670 C668 1.419 . S
C670 C671 1.362 . S
C671 H661 0.930 . S
C671 C664 1.409 . S
C671 C670 1.362 . S
H672 C678 0.930 . S
H673 C681 0.930 . S
H674 C682 0.930 . S
H675 C683 0.930 . S
H676 C686 0.930 . S
H677 C687 0.930 . S
C678 H672 0.930 . S
C678 C679 1.355 . S
C678 C680 1.415 . S
C679 C678 1.355 . S
C679 C681 1.419 . S
C680 C678 1.415 . S
C680 C685 1.425 . S
C680 C687 1.409 . S
C681 H673 0.930 . S
C681 C679 1.419 . S
C681 C682 1.362 . S
C682 H674 0.930 . S
C682 C681 1.362 . S
C682 C685 1.409 . S
C683 H675 0.930 . S
C683 C684 1.355 . S
C683 C685 1.415 . S
C684 C683 1.355 . S
C684 C686 1.419 . S
C685 C680 1.425 . S
C685 C682 1.409 . S
C685 C683 1.415 . S
C686 H676 0.930 . S
C686 C684 1.419 . S
C686 C687 1.362 . S
C687 H677 0.930 . S
C687 C680 1.409 . S
C687 C686 1.362 . S
H688 C694 0.930 . S
H689 C697 0.930 . S
H690 C698 0.930 . S
H691 C699 0.930 . S
H692 C702 0.930 . S
H693 C703 0.930 . S
C694 H688 0.930 . S
C694 C695 1.355 . S
C694 C696 1.415 . S
C695 C694 1.355 . S
C695 C697 1.419 . S
C696 C694 1.415 . S
C696 C701 1.425 . S
C696 C703 1.409 . S
C697 H689 0.930 . S
C697 C695 1.419 . S
C697 C698 1.362 . S
C698 H690 0.930 . S
C698 C697 1.362 . S
C698 C701 1.409 . S
C699 H691 0.930 . S
C699 C700 1.355 . S
C699 C701 1.415 . S
C700 C699 1.355 . S
C700 C702 1.419 1_655 S
C701 C696 1.425 . S
C701 C698 1.409 . S
C701 C699 1.415 . S
C702 H692 0.930 . S
C702 C700 1.419 1_455 S
C702 C703 1.362 1_455 S
C703 H693 0.930 . S
C703 C696 1.409 . S
C703 C702 1.362 1_655 S
H704 C710 0.930 1_545 S
H705 C713 0.930 . S
H706 C714 0.930 . S
H707 C715 0.930 . S
H708 C718 0.930 . S
H709 C719 0.930 . S
C710 H704 0.930 1_565 S
C710 C711 1.355 . S
C710 C712 1.415 . S
C711 C710 1.355 . S
C711 C713 1.419 . S
C712 C710 1.415 . S
C712 C717 1.425 . S
C712 C719 1.409 . S
C713 H705 0.930 . S
C713 C711 1.419 . S
C713 C714 1.362 . S
C714 H706 0.930 . S
C714 C713 1.362 . S
C714 C717 1.409 . S
C715 H707 0.930 . S
C715 C716 1.355 . S
C715 C717 1.415 . S
C716 C715 1.355 . S
C716 C718 1.419 . S
C717 C712 1.425 . S
C717 C714 1.409 . S
C717 C715 1.415 . S
C718 H708 0.930 . S
C718 C716 1.419 . S
C718 C719 1.362 . S
C719 H709 0.930 . S
C719 C712 1.409 . S
C719 C718 1.362 . S
H720 C726 0.930 . S
H721 C729 0.930 . S
H722 C730 0.930 . S
H723 C731 0.930 . S
H724 C734 0.930 . S
H725 C735 0.930 . S
C726 H720 0.930 . S
C726 C727 1.355 . S
C726 C728 1.415 . S
C727 C726 1.355 . S
C727 C729 1.419 . S
C728 C726 1.415 . S
C728 C733 1.425 . S
C728 C735 1.409 . S
C729 H721 0.930 . S
C729 C727 1.419 . S
C729 C730 1.362 . S
C730 H722 0.930 . S
C730 C729 1.362 . S
C730 C733 1.409 . S
C731 H723 0.930 . S
C731 C732 1.355 . S
C731 C733 1.415 . S
C732 C731 1.355 . S
C732 C734 1.419 . S
C733 C728 1.425 . S
C733 C730 1.409 . S
C733 C731 1.415 . S
C734 H724 0.930 . S
C734 C732 1.419 . S
C734 C735 1.362 . S
C735 H725 0.930 . S
C735 C728 1.409 . S
C735 C734 1.362 . S
H736 C742 0.930 . S
H737 C745 0.930 . S
H738 C746 0.930 . S
H739 C747 0.930 . S
H740 C750 0.930 . S
H741 C751 0.930 . S
C742 H736 0.930 . S
C742 C743 1.355 . S
C742 C744 1.415 . S
C743 C742 1.355 . S
C743 C745 1.419 . S
C744 C742 1.415 . S
C744 C749 1.425 . S
C744 C751 1.409 . S
C745 H737 0.930 . S
C745 C743 1.419 . S
C745 C746 1.362 . S
C746 H738 0.930 . S
C746 C745 1.362 . S
C746 C749 1.409 . S
C747 H739 0.930 . S
C747 C748 1.355 . S
C747 C749 1.415 . S
C748 C747 1.355 . S
C748 C750 1.419 . S
C749 C744 1.425 . S
C749 C746 1.409 . S
C749 C747 1.415 . S
C750 H740 0.930 . S
C750 C748 1.419 . S
C750 C751 1.362 . S
C751 H741 0.930 . S
C751 C744 1.409 . S
C751 C750 1.362 . S
H752 C758 0.930 . S
H753 C761 0.930 . S
H754 C762 0.930 . S
H755 C763 0.930 . S
H756 C766 0.930 . S
H757 C767 0.930 . S
C758 H752 0.930 . S
C758 C759 1.355 . S
C758 C760 1.415 . S
C759 C758 1.355 . S
C759 C761 1.419 . S
C760 C758 1.415 . S
C760 C765 1.425 . S
C760 C767 1.409 . S
C761 H753 0.930 . S
C761 C759 1.419 . S
C761 C762 1.362 . S
C762 H754 0.930 . S
C762 C761 1.362 . S
C762 C765 1.409 . S
C763 H755 0.930 . S
C763 C764 1.355 . S
C763 C765 1.415 . S
C764 C763 1.355 . S
C764 C766 1.419 1_655 S
C765 C760 1.425 . S
C765 C762 1.409 . S
C765 C763 1.415 . S
C766 H756 0.930 . S
C766 C764 1.419 1_455 S
C766 C767 1.362 1_455 S
C767 H757 0.930 . S
C767 C760 1.409 . S
C767 C766 1.362 1_655 S
H768 C774 0.930 . S
H769 C777 0.930 . S
H770 C778 0.930 . S
H771 C779 0.930 . S
H772 C782 0.930 . S
H773 C783 0.930 . S
C774 H768 0.930 . S
C774 C775 1.355 . S
C774 C776 1.415 . S
C775 C774 1.355 . S
C775 C777 1.419 . S
C776 C774 1.415 . S
C776 C781 1.425 . S
C776 C783 1.409 . S
C777 H769 0.930 . S
C777 C775 1.419 . S
C777 C778 1.362 . S
C778 H770 0.930 . S
C778 C777 1.362 . S
C778 C781 1.409 . S
C779 H771 0.930 . S
C779 C780 1.355 . S
C779 C781 1.415 . S
C780 C779 1.355 . S
C780 C782 1.419 1_565 S
C781 C776 1.425 . S
C781 C778 1.409 . S
C781 C779 1.415 . S
C782 H772 0.930 . S
C782 C780 1.419 1_545 S
C782 C783 1.362 1_545 S
C783 H773 0.930 . S
C783 C776 1.409 . S
C783 C782 1.362 1_565 S
H784 C790 0.930 . S
H785 C793 0.930 . S
H786 C794 0.930 . S
H787 C795 0.930 . S
H788 C798 0.930 . S
H789 C799 0.930 . S
C790 H784 0.930 . S
C790 C791 1.355 . S
C790 C792 1.415 . S
C791 C790 1.355 . S
C791 C793 1.419 . S
C792 C790 1.415 . S
C792 C797 1.425 . S
C792 C799 1.409 . S
C793 H785 0.930 . S
C793 C791 1.419 . S
C793 C794 1.362 . S
C794 H786 0.930 . S
C794 C793 1.362 . S
C794 C797 1.409 . S
C795 H787 0.930 . S
C795 C796 1.355 . S
C795 C797 1.415 . S
C796 C795 1.355 . S
C796 C798 1.419 . S
C797 C792 1.425 . S
C797 C794 1.409 . S
C797 C795 1.415 . S
C798 H788 0.930 . S
C798 C796 1.419 . S
C798 C799 1.362 . S
C799 H789 0.930 . S
C799 C792 1.409 . S
C799 C798 1.362 . S
H800 C806 0.930 . S
H801 C809 0.930 . S
H802 C810 0.930 . S
H803 C811 0.930 . S
H804 C814 0.930 . S
H805 C815 0.930 . S
C806 H800 0.930 . S
C806 C807 1.355 . S
C806 C808 1.415 . S
C807 C806 1.355 . S
C807 C809 1.419 . S
C808 C806 1.415 . S
C808 C813 1.425 . S
C808 C815 1.409 . S
C809 H801 0.930 . S
C809 C807 1.419 . S
C809 C810 1.362 . S
C810 H802 0.930 . S
C810 C809 1.362 . S
C810 C813 1.409 . S
C811 H803 0.930 . S
C811 C812 1.355 . S
C811 C813 1.415 . S
C812 C811 1.355 . S
C812 C814 1.419 . S
C813 C808 1.425 . S
C813 C810 1.409 . S
C813 C811 1.415 . S
C814 H804 0.930 . S
C814 C812 1.419 . S
C814 C815 1.362 . S
C815 H805 0.930 . S
C815 C808 1.409 . S
C815 C814 1.362 . S
H816 C822 0.930 . S
H817 C825 0.930 . S
H818 C826 0.930 . S
H819 C827 0.930 . S
H820 C830 0.930 . S
H821 C831 0.930 . S
C822 H816 0.930 . S
C822 C823 1.355 . S
C822 C824 1.415 . S
C823 C822 1.355 . S
C823 C825 1.419 . S
C824 C822 1.415 . S
C824 C829 1.425 . S
C824 C831 1.409 . S
C825 H817 0.930 . S
C825 C823 1.419 . S
C825 C826 1.362 . S
C826 H818 0.930 . S
C826 C825 1.362 . S
C826 C829 1.409 . S
C827 H819 0.930 . S
C827 C828 1.355 . S
C827 C829 1.415 . S
C828 C827 1.355 . S
C828 C830 1.419 . S
C829 C824 1.425 . S
C829 C826 1.409 . S
C829 C827 1.415 . S
C830 H820 0.930 . S
C830 C828 1.419 . S
C830 C831 1.362 . S
C831 H821 0.930 . S
C831 C824 1.409 . S
C831 C830 1.362 . S
H832 C838 0.930 . S
H833 C841 0.930 . S
H834 C842 0.930 . S
H835 C843 0.930 . S
H836 C846 0.930 . S
H837 C847 0.930 . S
C838 H832 0.930 . S
C838 C839 1.355 . S
C838 C840 1.415 . S
C839 C838 1.355 . S
C839 C841 1.419 . S
C840 C838 1.415 . S
C840 C845 1.425 . S
C840 C847 1.409 . S
C841 H833 0.930 . S
C841 C839 1.419 . S
C841 C842 1.362 . S
C842 H834 0.930 . S
C842 C841 1.362 . S
C842 C845 1.409 . S
C843 H835 0.930 . S
C843 C844 1.355 . S
C843 C845 1.415 . S
C844 C843 1.355 . S
C844 C846 1.419 . S
C845 C840 1.425 . S
C845 C842 1.409 . S
C845 C843 1.415 . S
C846 H836 0.930 . S
C846 C844 1.419 . S
C846 C847 1.362 . S
C847 H837 0.930 . S
C847 C840 1.409 . S
C847 C846 1.362 . S
H848 C854 0.930 . S
H849 C857 0.930 . S
H850 C858 0.930 . S
H851 C859 0.930 . S
H852 C862 0.930 . S
H853 C863 0.930 . S
C854 H848 0.930 . S
C854 C855 1.355 . S
C854 C856 1.415 . S
C855 C854 1.355 . S
C855 C857 1.419 . S
C856 C854 1.415 . S
C856 C861 1.425 . S
C856 C863 1.409 . S
C857 H849 0.930 . S
C857 C855 1.419 . S
C857 C858 1.362 . S
C858 H850 0.930 . S
C858 C857 1.362 . S
C858 C861 1.409 . S
C859 H851 0.930 . S
C859 C860 1.355 . S
C859 C861 1.415 . S
C860 C859 1.355 . S
C860 C862 1.419 . S
C861 C856 1.425 . S
C861 C858 1.409 . S
C861 C859 1.415 . S
C862 H852 0.930 . S
C862 C860 1.419 . S
C862 C863 1.362 . S
C863 H853 0.930 . S
C863 C856 1.409 . S
C863 C862 1.362 . S
H864 C870 0.930 . S
H865 C873 0.930 . S
H866 C874 0.930 . S
H867 C875 0.930 . S
H868 C878 0.930 . S
H869 C879 0.930 . S
C870 H864 0.930 . S
C870 C871 1.355 . S
C870 C872 1.415 . S
C871 C870 1.355 . S
C871 C873 1.419 . S
C872 C870 1.415 . S
C872 C877 1.425 . S
C872 C879 1.409 . S
C873 H865 0.930 . S
C873 C871 1.419 . S
C873 C874 1.362 . S
C874 H866 0.930 . S
C874 C873 1.362 . S
C874 C877 1.409 . S
C875 H867 0.930 . S
C875 C876 1.355 . S
C875 C877 1.415 . S
C876 C875 1.355 . S
C876 C878 1.419 . S
C877 C872 1.425 . S
C877 C874 1.409 . S
C877 C875 1.415 . S
C878 H868 0.930 . S
C878 C876 1.419 . S
C878 C879 1.362 . S
C879 H869 0.930 . S
C879 C872 1.409 . S
C879 C878 1.362 . S
H880 C886 0.930 . S
H881 C889 0.930 . S
H882 C890 0.930 . S
H883 C891 0.930 . S
H884 C894 0.930 . S
H885 C895 0.930 . S
C886 H880 0.930 . S
C886 C887 1.355 . S
C886 C888 1.415 . S
C887 C886 1.355 . S
C887 C889 1.419 . S
C888 C886 1.415 . S
C888 C893 1.425 . S
C888 C895 1.409 . S
C889 H881 0.930 . S
C889 C887 1.419 . S
C889 C890 1.362 . S
C890 H882 0.930 . S
C890 C889 1.362 . S
C890 C893 1.409 . S
C891 H883 0.930 . S
C891 C892 1.355 . S
C891 C893 1.415 . S
C892 C891 1.355 . S
C892 C894 1.419 . S
C893 C888 1.425 . S
C893 C890 1.409 . S
C893 C891 1.415 . S
C894 H884 0.930 . S
C894 C892 1.419 . S
C894 C895 1.362 . S
C895 H885 0.930 . S
C895 C888 1.409 . S
C895 C894 1.362 . S
H896 C902 0.930 . S
H897 C905 0.930 . S
H898 C906 0.930 . S
H899 C907 0.930 . S
H900 C910 0.930 . S
H901 C911 0.930 . S
C902 H896 0.930 . S
C902 C903 1.355 . S
C902 C904 1.415 . S
C903 C902 1.355 . S
C903 C905 1.419 . S
C904 C902 1.415 . S
C904 C909 1.425 . S
C904 C911 1.409 . S
C905 H897 0.930 . S
C905 C903 1.419 . S
C905 C906 1.362 . S
C906 H898 0.930 . S
C906 C905 1.362 . S
C906 C909 1.409 . S
C907 H899 0.930 . S
C907 C908 1.355 . S
C907 C909 1.415 . S
C908 C907 1.355 . S
C908 C910 1.419 . S
C909 C904 1.425 . S
C909 C906 1.409 . S
C909 C907 1.415 . S
C910 H900 0.930 . S
C910 C908 1.419 . S
C910 C911 1.362 . S
C911 H901 0.930 . S
C911 C904 1.409 . S
C911 C910 1.362 . S
H912 C918 0.930 . S
H913 C921 0.930 . S
H914 C922 0.930 . S
H915 C923 0.930 . S
H916 C926 0.930 . S
H917 C927 0.930 . S
C918 H912 0.930 . S
C918 C919 1.355 . S
C918 C920 1.415 . S
C919 C918 1.355 . S
C919 C921 1.419 . S
C920 C918 1.415 . S
C920 C925 1.425 . S
C920 C927 1.409 . S
C921 H913 0.930 . S
C921 C919 1.419 . S
C921 C922 1.362 . S
C922 H914 0.930 . S
C922 C921 1.362 . S
C922 C925 1.409 . S
C923 H915 0.930 . S
C923 C924 1.355 . S
C923 C925 1.415 . S
C924 C923 1.355 . S
C924 C926 1.419 . S
C925 C920 1.425 . S
C925 C922 1.409 . S
C925 C923 1.415 . S
C926 H916 0.930 . S
C926 C924 1.419 . S
C926 C927 1.362 . S
C927 H917 0.930 . S
C927 C920 1.409 . S
C927 C926 1.362 . S
H928 C934 0.930 . S
H929 C937 0.930 . S
H930 C938 0.930 . S
H931 C939 0.930 . S
H932 C942 0.930 . S
H933 C943 0.930 . S
C934 H928 0.930 . S
C934 C935 1.355 . S
C934 C936 1.415 . S
C935 C934 1.355 . S
C935 C937 1.419 . S
C936 C934 1.415 . S
C936 C941 1.425 . S
C936 C943 1.409 . S
C937 H929 0.930 . S
C937 C935 1.419 . S
C937 C938 1.362 . S
C938 H930 0.930 . S
C938 C937 1.362 . S
C938 C941 1.409 . S
C939 H931 0.930 . S
C939 C940 1.355 . S
C939 C941 1.415 . S
C940 C939 1.355 . S
C940 C942 1.419 . S
C941 C936 1.425 . S
C941 C938 1.409 . S
C941 C939 1.415 . S
C942 H932 0.930 . S
C942 C940 1.419 . S
C942 C943 1.362 . S
C943 H933 0.930 . S
C943 C936 1.409 . S
C943 C942 1.362 . S
H944 C950 0.930 . S
H945 C953 0.930 . S
H946 C954 0.930 . S
H947 C955 0.930 . S
H948 C958 0.930 1_455 S
H949 C959 0.930 . S
C950 H944 0.930 . S
C950 C951 1.355 . S
C950 C952 1.415 . S
C951 C950 1.355 . S
C951 C953 1.419 . S
C952 C950 1.415 . S
C952 C957 1.425 . S
C952 C959 1.409 . S
C953 H945 0.930 . S
C953 C951 1.419 . S
C953 C954 1.362 . S
C954 H946 0.930 . S
C954 C953 1.362 . S
C954 C957 1.409 . S
C955 H947 0.930 . S
C955 C956 1.355 . S
C955 C957 1.415 . S
C956 C955 1.355 . S
C956 C958 1.419 . S
C957 C952 1.425 . S
C957 C954 1.409 . S
C957 C955 1.415 . S
C958 H948 0.930 1_655 S
C958 C956 1.419 . S
C958 C959 1.362 . S
C959 H949 0.930 . S
C959 C952 1.409 . S
C959 C958 1.362 . S
H960 C966 0.930 1_545 S
H961 C969 0.930 . S
H962 C970 0.930 . S
H963 C971 0.930 . S
H964 C974 0.930 . S
H965 C975 0.930 . S
C966 H960 0.930 1_565 S
C966 C967 1.355 . S
C966 C968 1.415 . S
C967 C966 1.355 . S
C967 C969 1.419 . S
C968 C966 1.415 . S
C968 C973 1.425 . S
C968 C975 1.409 . S
C969 H961 0.930 . S
C969 C967 1.419 . S
C969 C970 1.362 . S
C970 H962 0.930 . S
C970 C969 1.362 . S
C970 C973 1.409 . S
C971 H963 0.930 . S
C971 C972 1.355 . S
C971 C973 1.415 . S
C972 C971 1.355 . S
C972 C974 1.419 . S
C973 C968 1.425 . S
C973 C970 1.409 . S
C973 C971 1.415 . S
C974 H964 0.930 . S
C974 C972 1.419 . S
C974 C975 1.362 . S
C975 H965 0.930 . S
C975 C968 1.409 . S
C975 C974 1.362 . S
H976 C982 0.930 . S
H977 C985 0.930 . S
H978 C986 0.930 . S
H979 C987 0.930 . S
H980 C990 0.930 . S
H981 C991 0.930 . S
C982 H976 0.930 . S
C982 C983 1.355 . S
C982 C984 1.415 . S
C983 C982 1.355 . S
C983 C985 1.419 . S
C984 C982 1.415 . S
C984 C989 1.425 . S
C984 C991 1.409 . S
C985 H977 0.930 . S
C985 C983 1.419 . S
C985 C986 1.362 . S
C986 H978 0.930 . S
C986 C985 1.362 . S
C986 C989 1.409 . S
C987 H979 0.930 . S
C987 C988 1.355 . S
C987 C989 1.415 . S
C988 C987 1.355 . S
C988 C990 1.419 . S
C989 C984 1.425 . S
C989 C986 1.409 . S
C989 C987 1.415 . S
C990 H980 0.930 . S
C990 C988 1.419 . S
C990 C991 1.362 . S
C991 H981 0.930 . S
C991 C984 1.409 . S
C991 C990 1.362 . S
H992 C998 0.930 . S
H993 C1001 0.930 . S
H994 C1002 0.930 . S
H995 C1003 0.930 . S
H996 C1006 0.930 . S
H997 C1007 0.930 . S
C998 H992 0.930 . S
C998 C999 1.355 . S
C998 C1000 1.415 . S
C999 C998 1.355 . S
C999 C1001 1.419 . S
C1000 C998 1.415 . S
C1000 C1005 1.425 . S
C1000 C1007 1.409 . S
C1001 H993 0.930 . S
C1001 C999 1.419 . S
C1001 C1002 1.362 . S
C1002 H994 0.930 . S
C1002 C1001 1.362 . S
C1002 C1005 1.409 . S
C1003 H995 0.930 . S
C1003 C1004 1.355 . S
C1003 C1005 1.415 . S
C1004 C1003 1.355 . S
C1004 C1006 1.419 . S
C1005 C1000 1.425 . S
C1005 C1002 1.409 . S
C1005 C1003 1.415 . S
C1006 H996 0.930 . S
C1006 C1004 1.419 . S
C1006 C1007 1.362 . S
C1007 H997 0.930 . S
C1007 C1000 1.409 . S
C1007 C1006 1.362 . S
H1008 C1014 0.930 . S
H1009 C1017 0.930 . S
H1010 C1018 0.930 . S
H1011 C1019 0.930 . S
H1012 C1022 0.930 . S
H1013 C1023 0.930 . S
C1014 H1008 0.930 . S
C1014 C1015 1.355 . S
C1014 C1016 1.415 . S
C1015 C1014 1.355 . S
C1015 C1017 1.419 . S
C1016 C1014 1.415 . S
C1016 C1021 1.425 . S
C1016 C1023 1.409 . S
C1017 H1009 0.930 . S
C1017 C1015 1.419 . S
C1017 C1018 1.362 . S
C1018 H1010 0.930 . S
C1018 C1017 1.362 . S
C1018 C1021 1.409 . S
C1019 H1011 0.930 . S
C1019 C1020 1.355 . S
C1019 C1021 1.415 . S
C1020 C1019 1.355 . S
C1020 C1022 1.419 . S
C1021 C1016 1.425 . S
C1021 C1018 1.409 . S
C1021 C1019 1.415 . S
C1022 H1012 0.930 . S
C1022 C1020 1.419 . S
C1022 C1023 1.362 . S
C1023 H1013 0.930 . S
C1023 C1016 1.409 . S
C1023 C1022 1.362 . S
H1024 C1030 0.930 . S
H1025 C1033 0.930 . S
H1026 C1034 0.930 . S
H1027 C1035 0.930 . S
H1028 C1038 0.930 1_545 S
H1029 C1039 0.930 . S
C1030 H1024 0.930 . S
C1030 C1031 1.355 . S
C1030 C1032 1.415 . S
C1031 C1030 1.355 . S
C1031 C1033 1.419 . S
C1032 C1030 1.415 . S
C1032 C1037 1.425 . S
C1032 C1039 1.409 . S
C1033 H1025 0.930 . S
C1033 C1031 1.419 . S
C1033 C1034 1.362 . S
C1034 H1026 0.930 . S
C1034 C1033 1.362 . S
C1034 C1037 1.409 . S
C1035 H1027 0.930 . S
C1035 C1036 1.355 . S
C1035 C1037 1.415 . S
C1036 C1035 1.355 . S
C1036 C1038 1.419 . S
C1037 C1032 1.425 . S
C1037 C1034 1.409 . S
C1037 C1035 1.415 . S
C1038 H1028 0.930 1_565 S
C1038 C1036 1.419 . S
C1038 C1039 1.362 . S
C1039 H1029 0.930 . S
C1039 C1032 1.409 . S
C1039 C1038 1.362 . S
H1040 C1046 0.930 . S
H1041 C1049 0.930 1_455 S
H1042 C1050 0.930 . S
H1043 C1051 0.930 . S
H1044 C1054 0.930 . S
H1045 C1055 0.930 . S
C1046 H1040 0.930 . S
C1046 C1047 1.355 . S
C1046 C1048 1.415 . S
C1047 C1046 1.355 . S
C1047 C1049 1.419 . S
C1048 C1046 1.415 . S
C1048 C1053 1.425 . S
C1048 C1055 1.409 . S
C1049 H1041 0.930 1_655 S
C1049 C1047 1.419 . S
C1049 C1050 1.362 . S
C1050 H1042 0.930 . S
C1050 C1049 1.362 . S
C1050 C1053 1.409 . S
C1051 H1043 0.930 . S
C1051 C1052 1.355 . S
C1051 C1053 1.415 . S
C1052 C1051 1.355 . S
C1052 C1054 1.419 . S
C1053 C1048 1.425 . S
C1053 C1050 1.409 . S
C1053 C1051 1.415 . S
C1054 H1044 0.930 . S
C1054 C1052 1.419 . S
C1054 C1055 1.362 . S
C1055 H1045 0.930 . S
C1055 C1048 1.409 . S
C1055 C1054 1.362 . S
H1056 C1062 0.930 . S
H1057 C1065 0.930 . S
H1058 C1066 0.930 . S
H1059 C1067 0.930 . S
H1060 C1070 0.930 . S
H1061 C1071 0.930 . S
C1062 H1056 0.930 . S
C1062 C1063 1.355 . S
C1062 C1064 1.415 . S
C1063 C1062 1.355 . S
C1063 C1065 1.419 . S
C1064 C1062 1.415 . S
C1064 C1069 1.425 . S
C1064 C1071 1.409 . S
C1065 H1057 0.930 . S
C1065 C1063 1.419 . S
C1065 C1066 1.362 . S
C1066 H1058 0.930 . S
C1066 C1065 1.362 . S
C1066 C1069 1.409 . S
C1067 H1059 0.930 . S
C1067 C1068 1.355 . S
C1067 C1069 1.415 . S
C1068 C1067 1.355 . S
C1068 C1070 1.419 . S
C1069 C1064 1.425 . S
C1069 C1066 1.409 . S
C1069 C1067 1.415 . S
C1070 H1060 0.930 . S
C1070 C1068 1.419 . S
C1070 C1071 1.362 . S
C1071 H1061 0.930 . S
C1071 C1064 1.409 . S
C1071 C1070 1.362 . S
H1072 C1078 0.930 . S
H1073 C1081 0.930 . S
H1074 C1082 0.930 . S
H1075 C1083 0.930 . S
H1076 C1086 0.930 . S
H1077 C1087 0.930 . S
C1078 H1072 0.930 . S
C1078 C1079 1.355 . S
C1078 C1080 1.415 . S
C1079 C1078 1.355 . S
C1079 C1081 1.419 . S
C1080 C1078 1.415 . S
C1080 C1085 1.425 . S
C1080 C1087 1.409 . S
C1081 H1073 0.930 . S
C1081 C1079 1.419 . S
C1081 C1082 1.362 . S
C1082 H1074 0.930 . S
C1082 C1081 1.362 . S
C1082 C1085 1.409 . S
C1083 H1075 0.930 . S
C1083 C1084 1.355 . S
C1083 C1085 1.415 . S
C1084 C1083 1.355 . S
C1084 C1086 1.419 . S
C1085 C1080 1.425 . S
C1085 C1082 1.409 . S
C1085 C1083 1.415 . S
C1086 H1076 0.930 . S
C1086 C1084 1.419 . S
C1086 C1087 1.362 . S
C1087 H1077 0.930 . S
C1087 C1080 1.409 . S
C1087 C1086 1.362 . S
H1088 C1094 0.930 . S
H1089 C1097 0.930 . S
H1090 C1098 0.930 . S
H1091 C1099 0.930 . S
H1092 C1102 0.930 . S
H1093 C1103 0.930 . S
C1094 H1088 0.930 . S
C1094 C1095 1.355 . S
C1094 C1096 1.415 . S
C1095 C1094 1.355 . S
C1095 C1097 1.419 . S
C1096 C1094 1.415 . S
C1096 C1101 1.425 . S
C1096 C1103 1.409 . S
C1097 H1089 0.930 . S
C1097 C1095 1.419 . S
C1097 C1098 1.362 . S
C1098 H1090 0.930 . S
C1098 C1097 1.362 . S
C1098 C1101 1.409 . S
C1099 H1091 0.930 . S
C1099 C1100 1.355 . S
C1099 C1101 1.415 . S
C1100 C1099 1.355 . S
C1100 C1102 1.419 . S
C1101 C1096 1.425 . S
C1101 C1098 1.409 . S
C1101 C1099 1.415 . S
C1102 H1092 0.930 . S
C1102 C1100 1.419 . S
C1102 C1103 1.362 . S
C1103 H1093 0.930 . S
C1103 C1096 1.409 . S
C1103 C1102 1.362 . S
H1104 C1110 0.930 . S
H1105 C1113 0.930 . S
H1106 C1114 0.930 . S
H1107 C1115 0.930 . S
H1108 C1118 0.930 . S
H1109 C1119 0.930 . S
C1110 H1104 0.930 . S
C1110 C1111 1.355 . S
C1110 C1112 1.415 . S
C1111 C1110 1.355 . S
C1111 C1113 1.419 . S
C1112 C1110 1.415 . S
C1112 C1117 1.425 . S
C1112 C1119 1.409 . S
C1113 H1105 0.930 . S
C1113 C1111 1.419 . S
C1113 C1114 1.362 . S
C1114 H1106 0.930 . S
C1114 C1113 1.362 . S
C1114 C1117 1.409 . S
C1115 H1107 0.930 . S
C1115 C1116 1.355 . S
C1115 C1117 1.415 . S
C1116 C1115 1.355 . S
C1116 C1118 1.419 . S
C1117 C1112 1.425 . S
C1117 C1114 1.409 . S
C1117 C1115 1.415 . S
C1118 H1108 0.930 . S
C1118 C1116 1.419 . S
C1118 C1119 1.362 . S
C1119 H1109 0.930 . S
C1119 C1112 1.409 . S
C1119 C1118 1.362 . S
H1120 C1126 0.930 . S
H1121 C1129 0.930 . S
H1122 C1130 0.930 . S
H1123 C1131 0.930 . S
H1124 C1134 0.930 . S
H1125 C1135 0.930 . S
C1126 H1120 0.930 . S
C1126 C1127 1.355 . S
C1126 C1128 1.415 . S
C1127 C1126 1.355 . S
C1127 C1129 1.419 . S
C1128 C1126 1.415 . S
C1128 C1133 1.425 . S
C1128 C1135 1.409 . S
C1129 H1121 0.930 . S
C1129 C1127 1.419 . S
C1129 C1130 1.362 . S
C1130 H1122 0.930 . S
C1130 C1129 1.362 . S
C1130 C1133 1.409 . S
C1131 H1123 0.930 . S
C1131 C1132 1.355 . S
C1131 C1133 1.415 . S
C1132 C1131 1.355 . S
C1132 C1134 1.419 . S
C1133 C1128 1.425 . S
C1133 C1130 1.409 . S
C1133 C1131 1.415 . S
C1134 H1124 0.930 . S
C1134 C1132 1.419 . S
C1134 C1135 1.362 . S
C1135 H1125 0.930 . S
C1135 C1128 1.409 . S
C1135 C1134 1.362 . S
H1136 C1142 0.930 . S
H1137 C1145 0.930 . S
H1138 C1146 0.930 . S
H1139 C1147 0.930 . S
H1140 C1150 0.930 . S
H1141 C1151 0.930 . S
C1142 H1136 0.930 . S
C1142 C1143 1.355 . S
C1142 C1144 1.415 . S
C1143 C1142 1.355 . S
C1143 C1145 1.419 . S
C1144 C1142 1.415 . S
C1144 C1149 1.425 . S
C1144 C1151 1.409 . S
C1145 H1137 0.930 . S
C1145 C1143 1.419 . S
C1145 C1146 1.362 . S
C1146 H1138 0.930 . S
C1146 C1145 1.362 . S
C1146 C1149 1.409 . S
C1147 H1139 0.930 . S
C1147 C1148 1.355 . S
C1147 C1149 1.415 . S
C1148 C1147 1.355 . S
C1148 C1150 1.419 . S
C1149 C1144 1.425 . S
C1149 C1146 1.409 . S
C1149 C1147 1.415 . S
C1150 H1140 0.930 . S
C1150 C1148 1.419 . S
C1150 C1151 1.362 . S
C1151 H1141 0.930 . S
C1151 C1144 1.409 . S
C1151 C1150 1.362 . S
H1152 C1158 0.930 . S
H1153 C1161 0.930 . S
H1154 C1162 0.930 . S
H1155 C1163 0.930 . S
H1156 C1166 0.930 . S
H1157 C1167 0.930 . S
C1158 H1152 0.930 . S
C1158 C1159 1.355 . S
C1158 C1160 1.415 . S
C1159 C1158 1.355 . S
C1159 C1161 1.419 . S
C1160 C1158 1.415 . S
C1160 C1165 1.425 . S
C1160 C1167 1.409 . S
C1161 H1153 0.930 . S
C1161 C1159 1.419 . S
C1161 C1162 1.362 . S
C1162 H1154 0.930 . S
C1162 C1161 1.362 . S
C1162 C1165 1.409 . S
C1163 H1155 0.930 . S
C1163 C1164 1.355 . S
C1163 C1165 1.415 . S
C1164 C1163 1.355 . S
C1164 C1166 1.419 . S
C1165 C1160 1.425 . S
C1165 C1162 1.409 . S
C1165 C1163 1.415 . S
C1166 H1156 0.930 . S
C1166 C1164 1.419 . S
C1166 C1167 1.362 . S
C1167 H1157 0.930 . S
C1167 C1160 1.409 . S
C1167 C1166 1.362 . S
C535 C17 1.518 . S
C540 C215 1.521 . S
C551 C248 1.528 . S
C556 C50 1.513 . S
C567 C149 1.548 . S
C572 C83 1.553 . S
C583 C182 1.541 . S
C588 C116 1.511 . S
C599 C281 1.516 . S
C604 C479 1.524 . S
C615 C314 1.538 . S
C620 C512 1.558 . S
C631 C347 1.516 . S
C636 C413 1.553 . S
C647 C446 1.543 . S
C652 C380 1.511 . S
C663 C28 1.546 . S
C668 N104 1.491 . S
C679 C61 1.545 . S
C684 N5 1.490 . S
C695 N38 1.459 . S
C700 C94 1.518 1_655 S
C711 C127 1.505 1_565 S
C716 N71 1.525 . S
C727 N170 1.455 . S
C732 C160 1.511 . S
C743 N203 1.495 . S
C748 C193 1.481 . S
C759 N236 1.451 . S
C764 C226 1.485 1_655 S
C775 N137 1.477 . S
C780 C259 1.537 1_565 S
C791 C292 1.480 . S
C796 N368 1.493 . S
C807 N269 1.539 . S
C812 C325 1.534 . S
C823 C358 1.545 . S
C828 N302 1.490 . S
C839 C391 1.504 . S
C844 N335 1.524 . S
C855 C424 1.489 . S
C860 N434 1.508 . S
C871 C457 1.530 . S
C876 N467 1.470 . S
C887 C490 1.534 . S
C892 N500 1.474 . S
C903 N401 1.534 . S
C908 C523 1.518 . S
C919 N509 1.282 . S
C924 N14 1.241 . S
C935 N47 1.280 . S
C940 N410 1.245 . S
C951 N443 1.245 . S
C956 N80 1.243 . S
C967 N113 1.217 . S
C972 N476 1.280 . S
C983 N311 1.255 . S
C988 N146 1.273 . S
C999 N179 1.275 . S
C1004 N344 1.220 . S
C1015 N212 1.247 . S
C1020 N377 1.278 . S
C1031 N278 1.258 . S
C1036 N245 1.231 . S
C1047 C140 1.542 . S
C1052 C371 1.546 . S
C1063 C173 1.533 . S
C1068 C272 1.536 . S
C1079 C206 1.524 . S
C1084 C305 1.521 . S
C1095 C338 1.516 . S
C1100 C239 1.513 . S
C1111 C8 1.559 . S
C1116 C437 1.556 . S
C1127 C470 1.562 . S
C1132 C41 1.561 . S
C1143 C74 1.516 . S
C1148 C503 1.513 . S
C1159 C107 1.509 . S
C1164 C404 1.506 . S
