# Generated by pormake.
# Topology sml, (6)-cn, num edge types: 1
# Building blocks:
#     Node 0, Type 0, BuildingBlock: KUMBOL_clean_sbu_0, # of connection points: 6
#     Node 1, Type 0, BuildingBlock: KUMBOL_clean_sbu_0, # of connection points: 6
#     Node 2, Type 0, BuildingBlock: KUMBOL_clean_sbu_0, # of connection points: 6
#     Node 3, Type 0, BuildingBlock: KUMBOL_clean_sbu_0, # of connection points: 6
#     Node 4, Type 0, BuildingBlock: KUMBOL_clean_sbu_0, # of connection points: 6
#     Node 5, Type 0, BuildingBlock: KUMBOL_clean_sbu_0, # of connection points: 6
#     Edge 6, Type (0, 0), BuildingBlock: MIFKUJ_clean_linker_0, # of connection points: 2
#     Edge 7, Type (0, 0), BuildingBlock: MIFKUJ_clean_linker_0, # of connection points: 2
#     Edge 8, Type (0, 0), BuildingBlock: MIFKUJ_clean_linker_0, # of connection points: 2
#     Edge 9, Type (0, 0), BuildingBlock: MIFKUJ_clean_linker_0, # of connection points: 2
#     Edge 10, Type (0, 0), BuildingBlock: MIFKUJ_clean_linker_0, # of connection points: 2
#     Edge 11, Type (0, 0), BuildingBlock: MIFKUJ_clean_linker_0, # of connection points: 2
#     Edge 12, Type (0, 0), BuildingBlock: MIFKUJ_clean_linker_0, # of connection points: 2
#     Edge 13, Type (0, 0), BuildingBlock: MIFKUJ_clean_linker_0, # of connection points: 2
#     Edge 14, Type (0, 0), BuildingBlock: MIFKUJ_clean_linker_0, # of connection points: 2
#     Edge 15, Type (0, 0), BuildingBlock: MIFKUJ_clean_linker_0, # of connection points: 2
#     Edge 16, Type (0, 0), BuildingBlock: MIFKUJ_clean_linker_0, # of connection points: 2
#     Edge 17, Type (0, 0), BuildingBlock: MIFKUJ_clean_linker_0, # of connection points: 2
#     Edge 18, Type (0, 0), BuildingBlock: MIFKUJ_clean_linker_0, # of connection points: 2
#     Edge 19, Type (0, 0), BuildingBlock: MIFKUJ_clean_linker_0, # of connection points: 2
#     Edge 20, Type (0, 0), BuildingBlock: MIFKUJ_clean_linker_0, # of connection points: 2
#     Edge 21, Type (0, 0), BuildingBlock: MIFKUJ_clean_linker_0, # of connection points: 2
#     Edge 22, Type (0, 0), BuildingBlock: MIFKUJ_clean_linker_0, # of connection points: 2
#     Edge 23, Type (0, 0), BuildingBlock: MIFKUJ_clean_linker_0, # of connection points: 2
# Relax obj value: 0.025
# Max RMSD: 0.145
# Mean RMSD: 0.145
data_MOF--net-sml--node1-KUMBOL_clean_sbu_0--edge1-MIFKUJ_clean_linker_0
_symmetry_space_group_name_H-M    P1
_symmetry_Int_Tables_number       1
_symmetry_cell_setting            triclinic
loop_
_symmetry_equiv_pos_as_xyz
'x, y, z'
_cell_length_a     44.691916
_cell_length_b     44.718637
_cell_length_c     28.986219
_cell_angle_alpha  89.856569
_cell_angle_beta   90.120189
_cell_angle_gamma 120.00323
loop_
_atom_site_label
_atom_site_type_symbol
_atom_site_fract_x
_atom_site_fract_y
_atom_site_fract_z
_atom_type_partial_charge
Gd0 Gd 0.22764 0.41751 0.06158 0.0
Gd1 Gd 0.18307 0.42157 0.95637 0.0
C2 C 0.1361 0.49141 0.96318 0.0
C3 C 0.07464 0.45021 0.95676 0.0
C4 C 0.11636 0.43045 0.95503 0.0
C5 C 0.14304 0.464 0.96041 0.0
C6 C 0.08193 0.42326 0.95157 0.0
C7 C 0.10169 0.48423 0.96268 0.0
C8 C 0.16398 0.52526 0.9647 0.0
C9 C 0.19768 0.53109 0.96163 0.0
N10 N 0.17595 0.47003 0.9599 0.0
C11 C 0.20321 0.50298 0.95875 0.0
H12 H 0.22931 0.50766 0.95679 0.0
C13 C 0.09971 0.37272 0.93635 0.0
N14 N 0.12439 0.40516 0.94969 0.0
C15 C 0.06513 0.36425 0.93267 0.0
C16 C 0.0561 0.3895 0.94111 0.0
H17 H 0.10673 0.35321 0.92995 0.0
H18 H 0.09579 0.50491 0.96529 0.0
H19 H 0.17234 0.33121 0.08747 0.0
H20 H 0.15976 0.54706 0.96695 0.0
H21 H 0.2194 0.55718 0.96182 0.0
H22 H 0.0483 0.44516 0.9548 0.0
H23 H 0.31412 0.47625 0.06612 0.0
H24 H 0.22189 0.27481 0.05074 0.0
H25 H 0.17061 0.27651 0.0785 0.0
H26 H 0.33754 0.36207 0.01651 0.0
H27 H 0.04549 0.33831 0.92338 0.0
H28 H 0.02933 0.38293 0.93806 0.0
H29 H 0.28374 0.30683 0.02665 0.0
H30 H 0.36873 0.47931 0.04575 0.0
N31 N 0.22382 0.36224 0.06148 0.0
C32 C 0.22285 0.29941 0.05407 0.0
C33 C 0.19386 0.30027 0.06953 0.0
C34 C 0.25311 0.33036 0.04463 0.0
C35 C 0.25301 0.36181 0.04941 0.0
C36 C 0.19492 0.33191 0.07374 0.0
N37 N 0.28276 0.4226 0.05025 0.0
C38 C 0.28323 0.39287 0.04314 0.0
C39 C 0.34482 0.45487 0.04388 0.0
C40 C 0.34516 0.42496 0.03168 0.0
C41 C 0.31347 0.45304 0.05446 0.0
C42 C 0.31435 0.3933 0.03269 0.0
H43 H 0.36953 0.42636 0.02381 0.0
O44 O 0.25912 0.45385 0.11511 0.0
O45 O 0.20769 0.44766 0.02283 0.0
O46 O 0.24021 0.45717 0.94798 0.0
O47 O 0.26557 0.46539 0.02062 0.0
O48 O 0.19495 0.43755 0.09184 0.0
O49 O 0.21972 0.40173 0.13338 0.0
O50 O 0.17263 0.39463 0.8906 0.0
O51 O 0.21481 0.4017 0.98849 0.0
O52 O 0.16994 0.37881 0.06702 0.0
O53 O 0.14176 0.39269 1.00994 0.0
O54 O 0.17193 0.3665 0.95212 0.0
O55 O 0.20193 0.45025 0.89223 0.0
C56 C 0.192 0.45253 0.05574 0.0
C57 C 0.31404 0.36215 0.02536 0.0
C58 C 0.28345 0.33072 0.0313 0.0
C59 C 0.24396 0.43157 0.14838 0.0
C60 C 0.26545 0.43088 0.18648 0.0
C61 C 0.2947 0.42787 0.17822 0.0
C62 C 0.2557 0.43233 0.23221 0.0
C63 C 0.27514 0.43104 0.26977 0.0
C64 C 0.31429 0.42687 0.21516 0.0
C65 C 0.30469 0.42847 0.26057 0.0
C66 C 0.26708 0.47248 0.97588 0.0
C67 C 0.19929 0.37117 0.97351 0.0
C68 C 0.188 0.42287 0.86629 0.0
C69 C 0.1698 0.42437 0.82469 0.0
C70 C 0.14059 0.4281 0.82844 0.0
C71 C 0.18199 0.42239 0.78065 0.0
C72 C 0.16489 0.42388 0.74045 0.0
C73 C 0.1235 0.42953 0.78892 0.0
C74 C 0.13547 0.42744 0.74527 0.0
C75 C 0.14164 0.37613 0.04793 0.0
H76 H 0.30226 0.42603 0.14344 0.0
H77 H 0.23301 0.43458 0.23847 0.0
H78 H 0.33685 0.4245 0.20859 0.0
H79 H 0.32001 0.42692 0.28848 0.0
H80 H 0.13108 0.43011 0.86182 0.0
H81 H 0.20455 0.41943 0.77779 0.0
H82 H 0.10101 0.43251 0.79212 0.0
H83 H 0.12202 0.42925 0.71522 0.0
Gd84 Gd 0.80768 0.23375 0.39163 0.0
Gd85 Gd 0.75352 0.18098 0.294 0.0
C86 C 0.63581 0.11989 0.29823 0.0
C87 C 0.62395 0.06059 0.29774 0.0
C88 C 0.68314 0.10826 0.29511 0.0
C89 C 0.67152 0.13164 0.29712 0.0
C90 C 0.65952 0.07247 0.29462 0.0
C91 C 0.61211 0.08427 0.29954 0.0
C92 C 0.62496 0.14427 0.29646 0.0
C93 C 0.64942 0.17928 0.29221 0.0
N94 N 0.69506 0.16586 0.29516 0.0
C95 C 0.68457 0.18963 0.2908 0.0
H96 H 0.7033 0.21673 0.28736 0.0
C97 C 0.73027 0.09873 0.2855 0.0
N98 N 0.71765 0.12066 0.29183 0.0
C99 C 0.70787 0.06298 0.28505 0.0
C100 C 0.67235 0.04977 0.29005 0.0
H101 H 0.7577 0.10878 0.28184 0.0
H102 H 0.58457 0.07477 0.30084 0.0
H103 H 0.84856 0.18806 0.39956 0.0
H104 H 0.59778 0.13618 0.29693 0.0
H105 H 0.64124 0.19829 0.28991 0.0
H106 H 0.60537 0.03317 0.29779 0.0
H107 H 0.81457 0.3113 0.39946 0.0
H108 H 0.9574 0.25812 0.39816 0.0
H109 H 0.90796 0.19854 0.40295 0.0
H110 H 0.96583 0.36909 0.39644 0.0
H111 H 0.718 0.04566 0.28089 0.0
H112 H 0.65505 0.02208 0.28958 0.0
H113 H 0.97875 0.32171 0.3954 0.0
H114 H 0.86035 0.37275 0.4012 0.0
N115 N 0.8637 0.24116 0.39165 0.0
C116 C 0.93127 0.25368 0.39635 0.0
C117 C 0.90345 0.22005 0.39927 0.0
C118 C 0.92502 0.28128 0.39291 0.0
C119 C 0.8905 0.2741 0.39071 0.0
C120 C 0.86967 0.21424 0.39722 0.0
N121 N 0.84977 0.29271 0.3922 0.0
C122 C 0.88329 0.30075 0.39096 0.0
C123 C 0.86717 0.35277 0.39832 0.0
C124 C 0.90182 0.36151 0.39625 0.0
C125 C 0.84135 0.318 0.39725 0.0
C126 C 0.91028 0.33535 0.3935 0.0
H127 H 0.92182 0.38843 0.39781 0.0
O128 O 0.79586 0.25055 0.45599 0.0
O129 O 0.75444 0.20244 0.36375 0.0
O130 O 0.76649 0.23696 0.28929 0.0
O131 O 0.8181 0.26904 0.32998 0.0
O132 O 0.76574 0.24749 0.39751 0.0
O133 O 0.81222 0.21248 0.45708 0.0
O134 O 0.76755 0.16932 0.2274 0.0
O135 O 0.80586 0.21325 0.32225 0.0
O136 O 0.7902 0.17626 0.39982 0.0
O137 O 0.74059 0.14555 0.35501 0.0
O138 O 0.79946 0.17262 0.28446 0.0
O139 O 0.74383 0.20125 0.23099 0.0
C140 C 0.74168 0.22056 0.37714 0.0
C141 C 0.94472 0.34267 0.39455 0.0
C142 C 0.95209 0.3157 0.39386 0.0
C143 C 0.804 0.23169 0.48167 0.0
C144 C 0.82597 0.24878 0.52218 0.0
C145 C 0.85981 0.27616 0.51636 0.0
C146 C 0.81299 0.23786 0.56711 0.0
C147 C 0.83361 0.25468 0.60604 0.0
C148 C 0.88041 0.2927 0.55463 0.0
C149 C 0.86746 0.28217 0.59914 0.0
C150 C 0.79553 0.26625 0.29798 0.0
C151 C 0.82221 0.19956 0.30625 0.0
C152 C 0.75521 0.18576 0.2041 0.0
C153 C 0.73365 0.16765 0.16371 0.0
C154 C 0.70013 0.13974 0.16971 0.0
C155 C 0.74676 0.17805 0.11871 0.0
C156 C 0.72653 0.16036 0.07986 0.0
C157 C 0.67992 0.12229 0.13154 0.0
C158 C 0.69294 0.13241 0.08698 0.0
C159 C 0.76093 0.14755 0.38951 0.0
H160 H 0.87031 0.28481 0.4823 0.0
H161 H 0.78676 0.21679 0.57171 0.0
H162 H 0.90654 0.3138 0.54979 0.0
H163 H 0.88412 0.29532 0.62823 0.0
H164 H 0.68956 0.13143 0.20384 0.0
H165 H 0.77279 0.19948 0.11405 0.0
H166 H 0.65401 0.10081 0.13651 0.0
H167 H 0.67651 0.11858 0.05801 0.0
Gd168 Gd 0.58126 0.82041 0.74042 0.0
Gd169 Gd 0.57608 0.76421 0.64284 0.0
C170 C 0.51733 0.64668 0.65752 0.0
C171 C 0.56346 0.6331 0.65106 0.0
C172 C 0.57609 0.6925 0.64472 0.0
C173 C 0.54173 0.68202 0.65193 0.0
C174 C 0.58727 0.66812 0.64291 0.0
C175 C 0.52853 0.62239 0.65842 0.0
C176 C 0.4823 0.6367 0.66009 0.0
C177 C 0.47233 0.66152 0.65473 0.0
N178 N 0.53182 0.70613 0.64985 0.0
C179 C 0.49754 0.69621 0.64868 0.0
H180 H 0.48943 0.71507 0.6447 0.0
C181 C 0.63129 0.73743 0.62241 0.0
N182 N 0.59821 0.72644 0.63649 0.0
C183 C 0.64368 0.71426 0.6203 0.0
C184 C 0.62173 0.67953 0.63135 0.0
H185 H 0.64842 0.76432 0.61422 0.0
H186 H 0.51022 0.59517 0.6632 0.0
H187 H 0.6675 0.85102 0.74155 0.0
H188 H 0.46273 0.60983 0.66454 0.0
H189 H 0.44525 0.65399 0.65535 0.0
H190 H 0.5716 0.61398 0.65033 0.0
H191 H 0.51885 0.83993 0.753 0.0
H192 H 0.71917 0.96046 0.72436 0.0
H193 H 0.72122 0.90656 0.73424 0.0
H194 H 0.62672 0.98553 0.72322 0.0
H195 H 0.67016 0.72322 0.6103 0.0
H196 H 0.63134 0.66162 0.62955 0.0
H197 H 0.68368 0.98964 0.7195 0.0
H198 H 0.51175 0.89137 0.74947 0.0
N199 N 0.63458 0.87266 0.73602 0.0
C200 C 0.69534 0.93606 0.72799 0.0
C201 C 0.69659 0.9057 0.73361 0.0
C202 C 0.66336 0.93461 0.72785 0.0
C203 C 0.63308 0.90215 0.73247 0.0
C204 C 0.66586 0.87412 0.73798 0.0
N205 N 0.57278 0.86828 0.73938 0.0
C206 C 0.60113 0.89985 0.73388 0.0
C207 C 0.53702 0.89412 0.74474 0.0
C208 C 0.56573 0.92662 0.73646 0.0
C209 C 0.54112 0.86513 0.74682 0.0
C210 C 0.59839 0.92989 0.73161 0.0
H211 H 0.56252 0.94907 0.73493 0.0
O212 O 0.55267 0.81417 0.80381 0.0
O213 O 0.55889 0.76664 0.7146 0.0
O214 O 0.53245 0.77634 0.64004 0.0
O215 O 0.54995 0.82661 0.68308 0.0
O216 O 0.52581 0.77922 0.74856 0.0
O217 O 0.60493 0.82317 0.80696 0.0
O218 O 0.59976 0.77903 0.57483 0.0
O219 O 0.59641 0.81729 0.66903 0.0
O220 O 0.61616 0.79739 0.75329 0.0
O221 O 0.60684 0.75559 0.69752 0.0
O222 O 0.62986 0.80949 0.62972 0.0
O223 O 0.54421 0.75291 0.58148 0.0
C224 C 0.52842 0.75451 0.72972 0.0
C225 C 0.62832 0.96218 0.72559 0.0
C226 C 0.66075 0.96453 0.7236 0.0
C227 C 0.57825 0.81901 0.83045 0.0
C228 C 0.58559 0.84201 0.87036 0.0
C229 C 0.59685 0.87711 0.86387 0.0
C230 C 0.58163 0.82876 0.91549 0.0
C231 C 0.58865 0.85044 0.95418 0.0
C232 C 0.60397 0.89876 0.90184 0.0
C233 C 0.59996 0.88564 0.9466 0.0
C234 C 0.53036 0.804 0.65111 0.0
C235 C 0.62592 0.83256 0.65093 0.0
C236 C 0.57033 0.76537 0.55313 0.0
C237 C 0.5669 0.74418 0.51244 0.0
C238 C 0.55791 0.70953 0.51778 0.0
C239 C 0.57251 0.75864 0.46782 0.0
C240 C 0.56892 0.73848 0.42846 0.0
C241 C 0.55428 0.68942 0.4792 0.0
C242 C 0.55956 0.70362 0.43496 0.0
C243 C 0.62105 0.77261 0.73611 0.0
H244 H 0.60028 0.88781 0.82954 0.0
H245 H 0.57281 0.80157 0.92034 0.0
H246 H 0.61282 0.92589 0.89657 0.0
H247 H 0.6063 0.90327 0.97528 0.0
H248 H 0.55346 0.69796 0.55172 0.0
H249 H 0.5799 0.78557 0.46395 0.0
H250 H 0.54705 0.66259 0.48357 0.0
H251 H 0.5557 0.68699 0.40579 0.0
Gd252 Gd 0.76932 0.57857 0.06147 0.0
Gd253 Gd 0.82286 0.57906 0.96344 0.0
C254 C 0.88719 0.52576 0.96495 0.0
C255 C 0.94582 0.57448 0.96786 0.0
C256 C 0.89689 0.58407 0.9653 0.0
C257 C 0.87435 0.54884 0.96515 0.0
C258 C 0.93289 0.59734 0.96592 0.0
C259 C 0.923 0.53874 0.9673 0.0
C260 C 0.86371 0.49041 0.96085 0.0
C261 C 0.82853 0.47899 0.95587 0.0
N262 N 0.83994 0.5372 0.96247 0.0
C263 C 0.81709 0.50291 0.95619 0.0
H264 H 0.78986 0.49373 0.95235 0.0
C265 C 0.9047 0.64026 0.95851 0.0
N266 N 0.8835 0.60538 0.96292 0.0
C267 C 0.9406 0.65465 0.95919 0.0
C268 C 0.95478 0.63314 0.96342 0.0
H269 H 0.89395 0.65707 0.95551 0.0
H270 H 0.93333 0.52138 0.96761 0.0
H271 H 0.81102 0.66518 0.06727 0.0
H272 H 0.87264 0.47194 0.96021 0.0
H273 H 0.81013 0.45182 0.95165 0.0
H274 H 0.97341 0.58416 0.96871 0.0
H275 H 0.69344 0.50627 0.07592 0.0
H276 H 0.73723 0.69867 0.05015 0.0
H277 H 0.79764 0.71221 0.06132 0.0
H278 H 0.62888 0.59249 0.04727 0.0
H279 H 0.95726 0.6823 0.95625 0.0
H280 H 0.98259 0.64432 0.9637 0.0
H281 H 0.67426 0.65374 0.04428 0.0
H282 H 0.63112 0.48741 0.07288 0.0
N283 N 0.75879 0.62518 0.05887 0.0
C284 C 0.74294 0.67786 0.05297 0.0
C285 C 0.77705 0.6856 0.05935 0.0
C286 C 0.7165 0.64333 0.05152 0.0
C287 C 0.72538 0.61727 0.05505 0.0
C288 C 0.78452 0.65879 0.06279 0.0
N289 N 0.70964 0.55893 0.06207 0.0
C290 C 0.69995 0.58297 0.05641 0.0
C291 C 0.65021 0.51436 0.06804 0.0
C292 C 0.63981 0.53862 0.05978 0.0
C293 C 0.68545 0.52512 0.06988 0.0
C294 C 0.66478 0.57352 0.05467 0.0
H295 H 0.6125 0.53027 0.05855 0.0
O296 O 0.7549 0.55092 0.12681 0.0
O297 O 0.80167 0.55823 0.03302 0.0
O298 O 0.76774 0.53417 0.95867 0.0
O299 O 0.73325 0.54932 1.00209 0.0
O300 O 0.75857 0.52392 0.0702 0.0
O301 O 0.78938 0.60619 0.12608 0.0
O302 O 0.83471 0.60583 0.89753 0.0
O303 O 0.78867 0.59725 0.99117 0.0
O304 O 0.8267 0.62027 0.06837 0.0
O305 O 0.85737 0.60053 0.0255 0.0
O306 O 0.83017 0.63289 0.95436 0.0
O307 O 0.80317 0.55008 0.89972 0.0
C308 C 0.78506 0.52755 0.04781 0.0
C309 C 0.65575 0.59923 0.04919 0.0
C310 C 0.68158 0.6341 0.04756 0.0
C311 C 0.77195 0.57875 0.15157 0.0
C312 C 0.75346 0.58227 0.19137 0.0
C313 C 0.72442 0.58593 0.1845 0.0
C314 C 0.76475 0.58176 0.23665 0.0
C315 C 0.74701 0.58479 0.27507 0.0
C316 C 0.70662 0.58873 0.22216 0.0
C317 C 0.71767 0.58807 0.26704 0.0
C318 C 0.73736 0.5309 0.96942 0.0
C319 C 0.80257 0.62749 0.97544 0.0
C320 C 0.81864 0.57743 0.87353 0.0
C321 C 0.83721 0.57494 0.83309 0.0
C322 C 0.86744 0.57324 0.83894 0.0
C323 C 0.82479 0.57447 0.7882 0.0
C324 C 0.84253 0.57227 0.74921 0.0
C325 C 0.8852 0.57122 0.8007 0.0
C326 C 0.87297 0.57081 0.75622 0.0
C327 C 0.8555 0.61957 0.05895 0.0
H328 H 0.71542 0.5865 0.1501 0.0
H329 H 0.7875 0.5794 0.24181 0.0
H330 H 0.68404 0.59128 0.21654 0.0
H331 H 0.70288 0.58968 0.29549 0.0
H332 H 0.87741 0.57364 0.87301 0.0
H333 H 0.8012 0.57545 0.78379 0.0
H334 H 0.90867 0.57014 0.80554 0.0
H335 H 0.88773 0.56985 0.72725 0.0
Gd336 Gd 0.19175 0.76476 0.39458 0.0
Gd337 Gd 0.24416 0.81898 0.29726 0.0
C338 C 0.36187 0.88164 0.30411 0.0
C339 C 0.37261 0.94055 0.30697 0.0
C340 C 0.31386 0.89234 0.30129 0.0
C341 C 0.32605 0.86938 0.3019 0.0
C342 C 0.33699 0.92821 0.30313 0.0
C343 C 0.38503 0.91731 0.30747 0.0
C344 C 0.37334 0.85774 0.30183 0.0
C345 C 0.34935 0.82275 0.29594 0.0
N346 N 0.30297 0.83512 0.29836 0.0
C347 C 0.31411 0.8119 0.29359 0.0
H348 H 0.29584 0.78478 0.28927 0.0
C349 C 0.26618 0.90119 0.2928 0.0
N350 N 0.27928 0.8795 0.29755 0.0
C351 C 0.28809 0.93698 0.29468 0.0
C352 C 0.32362 0.95057 0.30031 0.0
H353 H 0.23873 0.89085 0.28878 0.0
H354 H 0.41262 0.92721 0.30957 0.0
H355 H 0.1467 0.8061 0.40239 0.0
H356 H 0.40063 0.86609 0.30357 0.0
H357 H 0.35798 0.8041 0.29334 0.0
H358 H 0.3908 0.96803 0.30877 0.0
H359 H 0.18974 0.68928 0.40466 0.0
H360 H 0.0393 0.73113 0.39972 0.0
H361 H 0.08596 0.79199 0.40399 0.0
H362 H 0.03769 0.62347 0.39287 0.0
H363 H 0.27755 0.95407 0.29186 0.0
H364 H 0.34052 0.97831 0.30169 0.0
H365 H 0.02124 0.66844 0.3934 0.0
H366 H 0.14661 0.62696 0.40461 0.0
N367 N 0.13455 0.7538 0.39543 0.0
C368 C 0.06583 0.73723 0.39807 0.0
C369 C 0.09217 0.77158 0.40092 0.0
C370 C 0.07405 0.71101 0.39476 0.0
C371 C 0.10915 0.72023 0.39407 0.0
C372 C 0.12661 0.77944 0.40007 0.0
N373 N 0.15235 0.70501 0.39589 0.0
C374 C 0.11834 0.69502 0.39386 0.0
C375 C 0.1383 0.64582 0.40134 0.0
C376 C 0.10321 0.63508 0.3972 0.0
C377 C 0.16263 0.6811 0.40142 0.0
C378 C 0.09277 0.65978 0.39422 0.0
H379 H 0.08438 0.60774 0.39749 0.0
O380 O 0.20725 0.75108 0.45868 0.0
O381 O 0.24455 0.79775 0.36661 0.0
O382 O 0.23319 0.76376 0.29092 0.0
O383 O 0.18321 0.72943 0.3338 0.0
O384 O 0.23523 0.75318 0.39998 0.0
O385 O 0.18456 0.78393 0.46018 0.0
O386 O 0.22933 0.83128 0.23162 0.0
O387 O 0.19151 0.78461 0.3248 0.0
O388 O 0.20691 0.82181 0.4027 0.0
O389 O 0.25699 0.85306 0.35937 0.0
O390 O 0.19788 0.82695 0.2895 0.0
O391 O 0.25527 0.80133 0.23306 0.0
C392 C 0.25856 0.78064 0.37966 0.0
C393 C 0.05773 0.6504 0.39297 0.0
C394 C 0.04837 0.67599 0.39332 0.0
C395 C 0.19624 0.76739 0.48452 0.0
C396 C 0.1759 0.74862 0.5254 0.0
C397 C 0.1463 0.71606 0.5207 0.0
C398 C 0.18662 0.763 0.56969 0.0
C399 C 0.16823 0.74463 0.60934 0.0
C400 C 0.12785 0.69782 0.55957 0.0
C401 C 0.13876 0.71179 0.60353 0.0
C402 C 0.20576 0.73352 0.30116 0.0
C403 C 0.17546 0.79921 0.31023 0.0
C404 C 0.24285 0.81653 0.20724 0.0
C405 C 0.26396 0.83635 0.1674 0.0
C406 C 0.29462 0.86772 0.1741 0.0
C407 C 0.25305 0.82418 0.12219 0.0
C408 C 0.27258 0.84345 0.08364 0.0
C409 C 0.31402 0.88696 0.13635 0.0
C410 C 0.3031 0.87511 0.09154 0.0
C411 C 0.23637 0.85065 0.39351 0.0
H412 H 0.13761 0.70457 0.48709 0.0
H413 H 0.20917 0.78845 0.57316 0.0
H414 H 0.10519 0.67253 0.55567 0.0
H415 H 0.12436 0.69649 0.63303 0.0
H416 H 0.30343 0.87749 0.20842 0.0
H417 H 0.22954 0.79967 0.11723 0.0
H418 H 0.33751 0.91135 0.14184 0.0
H419 H 0.3184 0.89114 0.06305 0.0
Gd420 Gd 0.42198 0.18328 0.73582 0.0
Gd421 Gd 0.42359 0.23713 0.63678 0.0
C422 C 0.4783 0.3549 0.64214 0.0
C423 C 0.43019 0.36572 0.63836 0.0
C424 C 0.4199 0.30697 0.63593 0.0
C425 C 0.45483 0.31909 0.6404 0.0
C426 C 0.40717 0.33012 0.63377 0.0
C427 C 0.46574 0.3781 0.64247 0.0
C428 C 0.51368 0.36634 0.64129 0.0
C429 C 0.52479 0.34233 0.63696 0.0
N430 N 0.46604 0.29598 0.63909 0.0
C431 C 0.50047 0.30712 0.63511 0.0
H432 H 0.50944 0.2889 0.63162 0.0
C433 C 0.36456 0.25967 0.6196 0.0
N434 N 0.39859 0.27253 0.63062 0.0
C435 C 0.35061 0.28153 0.61759 0.0
C436 C 0.37191 0.31687 0.62537 0.0
H437 H 0.34793 0.23235 0.61378 0.0
H438 H 0.48336 0.4057 0.64434 0.0
H439 H 0.33541 0.14861 0.74433 0.0
H440 H 0.53244 0.39364 0.64218 0.0
H441 H 0.55203 0.35079 0.63489 0.0
H442 H 0.4209 0.38393 0.63724 0.0
H443 H 0.48724 0.16747 0.74649 0.0
H444 H 0.28786 0.0397 0.72417 0.0
H445 H 0.28312 0.09166 0.73862 0.0
H446 H 0.38406 0.02069 0.71381 0.0
H447 H 0.32346 0.2711 0.61005 0.0
H448 H 0.36109 0.33378 0.62351 0.0
H449 H 0.32575 0.01355 0.71372 0.0
H450 H 0.49726 0.11794 0.74004 0.0
N451 N 0.37012 0.12961 0.73343 0.0
C452 C 0.31108 0.06471 0.72708 0.0
C453 C 0.30831 0.09397 0.73532 0.0
C454 C 0.3438 0.06799 0.72371 0.0
C455 C 0.37319 0.10117 0.72765 0.0
C456 C 0.33822 0.12635 0.73866 0.0
N457 N 0.43331 0.13725 0.73342 0.0
C458 C 0.40588 0.10516 0.72732 0.0
C459 C 0.47144 0.11399 0.73617 0.0
C460 C 0.44366 0.08103 0.72719 0.0
C461 C 0.46569 0.14189 0.74 0.0
C462 C 0.41028 0.07616 0.72349 0.0
H463 H 0.44814 0.05943 0.72439 0.0
O464 O 0.45105 0.18988 0.79899 0.0
O465 O 0.44323 0.23664 0.70799 0.0
O466 O 0.46838 0.2268 0.63442 0.0
O467 O 0.45103 0.17621 0.67666 0.0
O468 O 0.47719 0.22573 0.74319 0.0
O469 O 0.39863 0.18038 0.80252 0.0
O470 O 0.39933 0.22227 0.56907 0.0
O471 O 0.4043 0.18475 0.66525 0.0
O472 O 0.38544 0.20431 0.74807 0.0
O473 O 0.39509 0.24688 0.69314 0.0
O474 O 0.36998 0.19073 0.62551 0.0
O475 O 0.45477 0.24618 0.57535 0.0
C476 C 0.47398 0.2496 0.72267 0.0
C477 C 0.38121 0.04325 0.71742 0.0
C478 C 0.34801 0.03917 0.71746 0.0
C479 C 0.42544 0.18453 0.82582 0.0
C480 C 0.41825 0.16101 0.86525 0.0
C481 C 0.40715 0.12604 0.8579 0.0
C482 C 0.42176 0.17346 0.91073 0.0
C483 C 0.41404 0.15099 0.94882 0.0
C484 C 0.39972 0.10373 0.8953 0.0
C485 C 0.40309 0.11601 0.94038 0.0
C486 C 0.47035 0.19894 0.6447 0.0
C487 C 0.37446 0.16851 0.64821 0.0
C488 C 0.42857 0.23447 0.54718 0.0
C489 C 0.43305 0.25575 0.50607 0.0
C490 C 0.4388 0.2894 0.51087 0.0
C491 C 0.43246 0.24271 0.46165 0.0
C492 C 0.43807 0.26342 0.42216 0.0
C493 C 0.44404 0.30989 0.47201 0.0
C494 C 0.44378 0.29712 0.42801 0.0
C495 C 0.38069 0.2293 0.73128 0.0
H496 H 0.40412 0.11596 0.8233 0.0
H497 H 0.42988 0.20042 0.91634 0.0
H498 H 0.39127 0.07677 0.88934 0.0
H499 H 0.39747 0.09812 0.96869 0.0
H500 H 0.43941 0.29988 0.54462 0.0
H501 H 0.42835 0.21681 0.45796 0.0
H502 H 0.44842 0.33584 0.476 0.0
H503 H 0.44769 0.31354 0.39844 0.0
H504 H 0.38854 0.24717 0.82182 0.0
H505 H 0.35737 0.26972 0.86581 0.0
H506 H 0.29388 0.25679 0.74657 0.0
H507 H 0.32637 0.23601 0.70223 0.0
H508 H 0.30874 0.31347 0.78158 0.0
H509 H 0.2668 0.2012 0.84847 0.0
H510 H 0.27157 0.15428 0.88629 0.0
H511 H 0.32104 0.2195 1.00313 0.0
H512 H 0.31717 0.26705 0.96566 0.0
H513 H 0.17417 0.30253 0.95869 0.0
H514 H 0.20393 0.27547 0.92096 0.0
H515 H 0.29575 0.37535 0.90746 0.0
H516 H 0.26611 0.40232 0.94453 0.0
H517 H 0.26323 0.27266 0.93917 0.0
H518 H 0.3296 0.3791 0.79921 0.0
H519 H 0.31973 0.42227 0.75936 0.0
H520 H 0.21074 0.36024 0.78384 0.0
H521 H 0.21979 0.3163 0.82271 0.0
C522 C 0.36771 0.24893 0.8053 0.0
C523 C 0.35982 0.23996 0.75869 0.0
C524 C 0.34976 0.26169 0.83047 0.0
C525 C 0.32272 0.26459 0.80995 0.0
C526 C 0.31463 0.25506 0.76338 0.0
C527 C 0.33317 0.24314 0.73796 0.0
C528 C 0.30346 0.27838 0.83634 0.0
C529 C 0.2988 0.30437 0.81598 0.0
C530 C 0.28994 0.26646 0.88121 0.0
C531 C 0.29198 0.23779 0.90403 0.0
C532 C 0.27891 0.20561 0.88209 0.0
C533 C 0.28147 0.17892 0.90347 0.0
C534 C 0.29674 0.18397 0.947 0.0
C535 C 0.30936 0.21569 0.96934 0.0
C536 C 0.30696 0.24251 0.94806 0.0
C537 C 0.20084 0.31851 0.94813 0.0
C538 C 0.21804 0.35434 0.95525 0.0
C539 C 0.21784 0.30309 0.92677 0.0
C540 C 0.25201 0.3234 0.91117 0.0
C541 C 0.26934 0.35917 0.91892 0.0
C542 C 0.25243 0.37453 0.94036 0.0
C543 C 0.26895 0.30764 0.88436 0.0
C544 C 0.27322 0.28151 0.9047 0.0
C545 C 0.28132 0.31874 0.83902 0.0
C546 C 0.27549 0.34462 0.81447 0.0
C547 C 0.30353 0.37461 0.79592 0.0
C548 C 0.29807 0.39922 0.77351 0.0
C549 C 0.26468 0.39412 0.76935 0.0
C550 C 0.23661 0.36425 0.78727 0.0
C551 C 0.2419 0.33947 0.80947 0.0
H552 H 0.26054 0.41325 0.75209 0.0
H553 H 0.29871 0.16327 0.96349 0.0
H554 H 0.12741 0.33404 0.12409 0.0
H555 H 0.07365 0.30444 0.16778 0.0
H556 H 0.02676 0.34457 0.0748 0.0
H557 H 0.08052 0.37478 0.03159 0.0
H558 H 0.01312 0.3522 0.16117 0.0
H559 H 0.00566 0.25938 0.07118 0.0
H560 H 0.02573 0.22124 0.03984 0.0
H561 H 0.03115 0.18742 0.1768 0.0
H562 H 0.01156 0.22574 0.20903 0.0
H563 H 0.84216 0.25335 0.2477 0.0
H564 H 0.89494 0.28289 0.2031 0.0
H565 H 0.93363 0.22326 0.27232 0.0
H566 H 0.87786 0.18969 0.31091 0.0
H567 H 0.95251 0.22691 0.19575 0.0
H568 H 0.96328 0.32686 0.28527 0.0
H569 H 0.94596 0.36898 0.31027 0.0
H570 H 0.93244 0.38917 0.16963 0.0
H571 H 0.95045 0.3481 0.1434 0.0
C572 C 0.10559 0.33619 0.1123 0.0
C573 C 0.10831 0.3562 0.07325 0.0
C574 C 0.07475 0.31919 0.13748 0.0
C575 C 0.04586 0.32182 0.12431 0.0
C576 C 0.04853 0.34189 0.08556 0.0
C577 C 0.07931 0.35886 0.06041 0.0
C578 C 0.01324 0.30461 0.1517 0.0
C579 C 0.99971 0.32474 0.16869 0.0
C580 C 0.99587 0.2689 0.16185 0.0
C581 C 0.00747 0.24568 0.14255 0.0
C582 C 0.01138 0.244 0.09465 0.0
C583 C 0.02263 0.22232 0.07672 0.0
C584 C 0.0298 0.20199 0.10632 0.0
C585 C 0.02564 0.20322 0.15392 0.0
C586 C 0.01443 0.2249 0.17203 0.0
C587 C 0.86232 0.24719 0.25422 0.0
C588 C 0.85669 0.22054 0.28495 0.0
C589 C 0.89298 0.2645 0.22888 0.0
C590 C 0.91977 0.25697 0.23536 0.0
C591 C 0.91397 0.23025 0.2665 0.0
C592 C 0.88231 0.21143 0.28956 0.0
C593 C 0.95248 0.27465 0.20732 0.0
C594 C 0.96602 0.25452 0.18951 0.0
C595 C 0.96979 0.31046 0.1962 0.0
C596 C 0.958 0.33426 0.21244 0.0
C597 C 0.95643 0.34015 0.25972 0.0
C598 C 0.94656 0.36382 0.27411 0.0
C599 C 0.93793 0.38143 0.24174 0.0
C600 C 0.93916 0.37552 0.19471 0.0
C601 C 0.94939 0.35224 0.18003 0.0
H602 H 0.93051 0.39983 0.25314 0.0
H603 H 0.03851 0.18522 0.09237 0.0
H604 H 0.70053 0.08584 0.38341 0.0
H605 H 0.68073 0.0349 0.43172 0.0
H606 H 0.77443 0.08693 0.51188 0.0
H607 H 0.79492 0.13827 0.46285 0.0
H608 H 0.70595 0.99263 0.44781 0.0
H609 H 0.75157 0.05875 0.62671 0.0
H610 H 0.76256 0.1123 0.66588 0.0
H611 H 0.69215 0.12134 0.57373 0.0
H612 H 0.68036 0.06767 0.53451 0.0
H613 H 0.6916 0.87087 0.61891 0.0
H614 H 0.71738 0.927 0.57937 0.0
H615 H 0.62416 0.93096 0.60191 0.0
H616 H 0.59779 0.8744 0.63888 0.0
H617 H 0.6925 0.99752 0.61715 0.0
H618 H 0.62449 0.90768 0.50822 0.0
H619 H 0.6054 0.85205 0.4693 0.0
H620 H 0.70837 0.88889 0.41923 0.0
H621 H 0.72825 0.9446 0.4587 0.0
C622 C 0.71734 0.08649 0.41073 0.0
C623 C 0.74962 0.11623 0.41865 0.0
C624 C 0.70583 0.05723 0.43856 0.0
C625 C 0.72598 0.057 0.47557 0.0
C626 C 0.75828 0.08655 0.48371 0.0
C627 C 0.77001 0.11587 0.45553 0.0
C628 C 0.7128 0.02581 0.50554 0.0
C629 C 0.70333 0.99389 0.48485 0.0
C630 C 0.70855 0.0271 0.55384 0.0
C631 C 0.71547 0.05942 0.57728 0.0
C632 C 0.73842 0.07215 0.61486 0.0
C633 C 0.74476 0.10251 0.63708 0.0
C634 C 0.72814 0.12025 0.62221 0.0
C635 C 0.70512 0.10766 0.5851 0.0
C636 C 0.69865 0.07731 0.56281 0.0
C637 C 0.67685 0.88401 0.61603 0.0
C638 C 0.64293 0.86852 0.63313 0.0
C639 C 0.69161 0.91605 0.5936 0.0
C640 C 0.67278 0.93325 0.58815 0.0
C641 C 0.63931 0.91836 0.60636 0.0
C642 C 0.62429 0.88599 0.62773 0.0
C643 C 0.68654 0.96488 0.55935 0.0
C644 C 0.69584 0.99665 0.58021 0.0
C645 C 0.68979 0.96341 0.51103 0.0
C646 C 0.67795 0.93012 0.48692 0.0
C647 C 0.64315 0.90379 0.48933 0.0
C648 C 0.63216 0.87228 0.46709 0.0
C649 C 0.65566 0.86689 0.4419 0.0
C650 C 0.69021 0.89307 0.43884 0.0
C651 C 0.70136 0.92463 0.46114 0.0
H652 H 0.64708 0.84246 0.42468 0.0
H653 H 0.73295 0.14365 0.63954 0.0
H654 H 0.61961 0.76342 0.82929 0.0
H655 H 0.64979 0.7401 0.87423 0.0
H656 H 0.69994 0.73413 0.75026 0.0
H657 H 0.66854 0.75593 0.70533 0.0
H658 H 0.68174 0.67944 0.79443 0.0
H659 H 0.74049 0.79889 0.84215 0.0
H660 H 0.74455 0.85184 0.87429 0.0
H661 H 0.70061 0.79908 1.00182 0.0
H662 H 0.69588 0.74569 0.97022 0.0
H663 H 0.82848 0.69525 0.95357 0.0
H664 H 0.79784 0.72218 0.9178 0.0
H665 H 0.70254 0.6247 0.92365 0.0
H666 H 0.73319 0.59768 0.95736 0.0
H667 H 0.74459 0.73205 0.93997 0.0
H668 H 0.65634 0.61406 0.82807 0.0
H669 H 0.65601 0.56297 0.79537 0.0
H670 H 0.76691 0.61852 0.79102 0.0
H671 H 0.76787 0.67004 0.82316 0.0
C672 C 0.63736 0.75742 0.81181 0.0
C673 C 0.64167 0.76141 0.76374 0.0
C674 C 0.65476 0.74417 0.83756 0.0
C675 C 0.67772 0.73564 0.81602 0.0
C676 C 0.68234 0.74022 0.76797 0.0
C677 C 0.66436 0.75271 0.74215 0.0
C678 C 0.6962 0.72102 0.8429 0.0
C679 C 0.69548 0.69114 0.82618 0.0
C680 C 0.71438 0.73601 0.8845 0.0
C681 C 0.71754 0.76821 0.90365 0.0
C682 C 0.73151 0.79853 0.87695 0.0
C683 C 0.73395 0.82863 0.89508 0.0
C684 C 0.72277 0.8288 0.94002 0.0
C685 C 0.70922 0.7989 0.96699 0.0
C686 C 0.70668 0.76873 0.949 0.0
C687 C 0.80091 0.67975 0.94762 0.0
C688 C 0.78319 0.64447 0.95907 0.0
C689 C 0.78339 0.69516 0.92739 0.0
C690 C 0.74788 0.67546 0.91757 0.0
C691 C 0.72999 0.64043 0.9303 0.0
C692 C 0.74753 0.62502 0.95011 0.0
C693 C 0.73008 0.69082 0.89123 0.0
C694 C 0.73082 0.72059 0.90815 0.0
C695 C 0.71245 0.67618 0.84935 0.0
C696 C 0.71214 0.64579 0.82834 0.0
C697 C 0.68063 0.61543 0.81983 0.0
C698 C 0.68034 0.58639 0.80148 0.0
C699 C 0.71142 0.58748 0.79124 0.0
C700 C 0.74286 0.61769 0.79907 0.0
C701 C 0.74329 0.6468 0.81737 0.0
H702 H 0.71114 0.56494 0.77718 0.0
H703 H 0.72466 0.85211 0.95399 0.0
H704 H 0.13658 0.8283 0.28738 0.0
H705 H 0.07896 0.80025 0.25193 0.0
H706 H 0.07344 0.70156 0.26302 0.0
H707 H 0.13153 0.7296 0.29631 0.0
H708 H 0.06833 0.73919 0.16549 0.0
H709 H 0.97151 0.6687 0.30927 0.0
H710 H 0.95433 0.67504 0.38791 0.0
H711 H 0.00736 0.78523 0.37117 0.0
H712 H 0.02419 0.7794 0.29222 0.0
H713 H 0.91269 0.61255 0.06413 0.0
H714 H 0.96428 0.64507 0.1108 0.0
H715 H 0.92261 0.70644 0.16501 0.0
H716 H 0.86999 0.67297 0.11901 0.0
H717 H 0.9511 0.69241 0.23178 0.0
H718 H 0.99186 0.73888 0.08148 0.0
H719 H 0.00277 0.73887 0.99812 0.0
H720 H 0.05988 0.6867 0.0236 0.0
H721 H 0.04927 0.6864 0.10717 0.0
C722 C 0.12273 0.8005 0.28325 0.0
C723 C 0.13847 0.78116 0.29572 0.0
C724 C 0.08964 0.78445 0.26338 0.0
C725 C 0.07132 0.74861 0.25607 0.0
C726 C 0.08664 0.72911 0.26941 0.0
C727 C 0.11993 0.74521 0.28863 0.0
C728 C 0.03928 0.73242 0.2275 0.0
C729 C 0.04266 0.72885 0.18001 0.0
C730 C 0.00581 0.71964 0.2461 0.0
C731 C 0.99984 0.72367 0.2953 0.0
C732 C 0.97989 0.6943 0.32268 0.0
C733 C 0.96985 0.69776 0.36708 0.0
C734 C 0.97957 0.73051 0.38444 0.0
C735 C 0.99983 0.75988 0.35769 0.0
C736 C 0.00985 0.75651 0.31321 0.0
C737 C 0.91446 0.63316 0.08559 0.0
C738 C 0.88716 0.64031 0.08731 0.0
C739 C 0.94425 0.65195 0.11228 0.0
C740 C 0.94799 0.6789 0.14096 0.0
C741 C 0.92061 0.68594 0.1431 0.0
C742 C 0.8905 0.66681 0.11667 0.0
C743 C 0.97999 0.69887 0.16954 0.0
C744 C 0.9767 0.7028 0.21704 0.0
C745 C 0.01366 0.71284 0.15074 0.0
C746 C 0.01959 0.71243 0.1005 0.0
C747 C 0.00656 0.72722 0.06926 0.0
C748 C 0.01279 0.72738 0.022 0.0
C749 C 0.032 0.71279 1.00557 0.0
C750 C 0.04505 0.69804 0.03637 0.0
C751 C 0.03903 0.69796 0.08369 0.0
H752 H 0.03672 0.71287 0.96894 0.0
H753 H 0.97168 0.73315 0.41876 0.0
H754 H 0.40581 0.13169 0.62378 0.0
H755 H 0.37941 0.07499 0.58724 0.0
H756 H 0.27948 0.06716 0.59573 0.0
H757 H 0.30607 0.12448 0.63214 0.0
H758 H 0.28618 0.0018 0.61884 0.0
H759 H 0.31215 0.09205 0.50274 0.0
H760 H 0.35181 0.14696 0.4637 0.0
H761 H 0.41987 0.10839 0.43037 0.0
H762 H 0.38088 0.05345 0.46976 0.0
H763 H 0.19821 0.86577 0.45416 0.0
H764 H 0.21898 0.91752 0.50235 0.0
H765 H 0.32225 0.95589 0.45012 0.0
H766 H 0.30158 0.90542 0.40117 0.0
H767 H 0.31246 0.00606 0.45193 0.0
H768 H 0.29422 0.91961 0.56156 0.0
H769 H 0.26235 0.86418 0.60306 0.0
H770 H 0.19043 0.89347 0.65361 0.0
H771 H 0.2215 0.94885 0.61167 0.0
C772 C 0.37814 0.11761 0.61917 0.0
C773 C 0.3579 0.13224 0.63193 0.0
C774 C 0.36307 0.0852 0.598 0.0
C775 C 0.32746 0.06678 0.58896 0.0
C776 C 0.30696 0.08081 0.60282 0.0
C777 C 0.32215 0.11353 0.62344 0.0
C778 C 0.31243 0.03469 0.56092 0.0
C779 C 0.29137 0.00258 0.58218 0.0
C780 C 0.3205 0.03575 0.51358 0.0
C781 C 0.34373 0.06875 0.48958 0.0
C782 C 0.33572 0.09539 0.48744 0.0
C783 C 0.35804 0.12649 0.46514 0.0
C784 C 0.38833 0.13114 0.44454 0.0
C785 C 0.39637 0.10472 0.44623 0.0
C786 C 0.37417 0.07361 0.46852 0.0
C787 C 0.22531 0.88532 0.45299 0.0
C788 C 0.2481 0.8815 0.42346 0.0
C789 C 0.23726 0.91484 0.48079 0.0
C790 C 0.27238 0.94075 0.48039 0.0
C791 C 0.29504 0.93664 0.45106 0.0
C792 C 0.28308 0.90758 0.42293 0.0
C793 C 0.28578 0.97255 0.50947 0.0
C794 C 0.30678 0.00484 0.48848 0.0
C795 C 0.27863 0.97143 0.55737 0.0
C796 C 0.25996 0.93824 0.58296 0.0
C797 C 0.27144 0.91413 0.58119 0.0
C798 C 0.25353 0.88272 0.60483 0.0
C799 C 0.22432 0.87526 0.63084 0.0
C800 C 0.21302 0.89925 0.63335 0.0
C801 C 0.23077 0.93066 0.60964 0.0
H802 H 0.2105 0.85093 0.64912 0.0
H803 H 0.40554 0.15515 0.42718 0.0
H804 H 0.23194 0.45597 0.70921 0.0
H805 H 0.25204 0.45667 0.6304 0.0
H806 H 0.14687 0.38985 0.58634 0.0
H807 H 0.12673 0.38838 0.66505 0.0
H808 H 0.18931 0.3707 0.54768 0.0
H809 H 0.1871 0.47622 0.5662 0.0
H810 H 0.20138 0.53142 0.6031 0.0
H811 H 0.30935 0.56971 0.57926 0.0
H812 H 0.29573 0.51451 0.54276 0.0
H813 H 0.20957 0.39755 0.30588 0.0
H814 H 0.19224 0.39656 0.3861 0.0
H815 H 0.29872 0.46368 0.42437 0.0
H816 H 0.31617 0.46557 0.34396 0.0
H817 H 0.25726 0.48284 0.46671 0.0
H818 H 0.25881 0.37721 0.44607 0.0
H819 H 0.24381 0.32199 0.4086 0.0
H820 H 0.1363 0.28385 0.43601 0.0
H821 H 0.15063 0.33905 0.4731 0.0
C822 C 0.21314 0.44103 0.68289 0.0
C823 C 0.17766 0.42238 0.69344 0.0
C824 C 0.22464 0.44171 0.63772 0.0
C825 C 0.20093 0.42374 0.60217 0.0
C826 C 0.16567 0.40409 0.61302 0.0
C827 C 0.15416 0.40349 0.65803 0.0
C828 C 0.21259 0.42589 0.55349 0.0
C829 C 0.20387 0.39521 0.52986 0.0
C830 C 0.23215 0.45788 0.53034 0.0
C831 C 0.24042 0.4911 0.55222 0.0
C832 C 0.21391 0.49631 0.56918 0.0
C833 C 0.22188 0.52761 0.58996 0.0
C834 C 0.25626 0.55402 0.59365 0.0
C835 C 0.28274 0.54921 0.57645 0.0
C836 C 0.27491 0.51792 0.55569 0.0
C837 C 0.2293 0.41247 0.33121 0.0
C838 C 0.26432 0.43151 0.31837 0.0
C839 C 0.21937 0.41159 0.37722 0.0
C840 C 0.24421 0.42963 0.41153 0.0
C841 C 0.27908 0.44938 0.39865 0.0
C842 C 0.28904 0.45022 0.35266 0.0
C843 C 0.23389 0.42763 0.46085 0.0
C844 C 0.24284 0.45834 0.48459 0.0
C845 C 0.21445 0.39565 0.48408 0.0
C846 C 0.20577 0.36239 0.46197 0.0
C847 C 0.23195 0.35714 0.4438 0.0
C848 C 0.22357 0.32583 0.42268 0.0
C849 C 0.18912 0.29946 0.41982 0.0
C850 C 0.16297 0.30432 0.43819 0.0
C851 C 0.17121 0.3356 0.4593 0.0
H852 H 0.18268 0.27524 0.40346 0.0
H853 H 0.26238 0.57825 0.60973 0.0
H854 H 0.72033 0.11821 1.00782 0.0
H855 H 0.73861 0.13437 0.92791 0.0
H856 H 0.78158 0.24185 0.96282 0.0
H857 H 0.76269 0.22572 0.04301 0.0
H858 H 0.7433 0.22548 0.88383 0.0
H859 H 0.83404 0.20885 0.94305 0.0
H860 H 0.85925 0.17779 0.98279 0.0
H861 H 0.81296 0.09604 0.88321 0.0
H862 H 0.78706 0.12641 0.84321 0.0
H863 H 0.83991 0.2963 0.67865 0.0
H864 H 0.82136 0.27954 0.75838 0.0
H865 H 0.77847 0.17231 0.72197 0.0
H866 H 0.79779 0.18913 0.64199 0.0
H867 H 0.81625 0.18812 0.80148 0.0
H868 H 0.72678 0.20538 0.74096 0.0
H869 H 0.70251 0.23683 0.70025 0.0
H870 H 0.74577 0.31709 0.8022 0.0
H871 H 0.77117 0.28653 0.84293 0.0
C872 C 0.73365 0.14531 0.99856 0.0
C873 C 0.73995 0.17066 0.03188 0.0
C874 C 0.74433 0.15454 0.95285 0.0
C875 C 0.76169 0.18936 0.93925 0.0
C876 C 0.76827 0.21481 0.97245 0.0
C877 C 0.75772 0.20559 0.01837 0.0
C878 C 0.7722 0.19897 0.89017 0.0
C879 C 0.75969 0.21777 0.86604 0.0
C880 C 0.79277 0.18808 0.86644 0.0
C881 C 0.80832 0.16975 0.8904 0.0
C882 C 0.82899 0.18411 0.92984 0.0
C883 C 0.84345 0.16666 0.95238 0.0
C884 C 0.83764 0.13492 0.93561 0.0
C885 C 0.81741 0.12061 0.8962 0.0
C886 C 0.80286 0.13795 0.87355 0.0
C887 C 0.82654 0.26913 0.68757 0.0
C888 C 0.82026 0.24402 0.65392 0.0
C889 C 0.81573 0.25957 0.73316 0.0
C890 C 0.79827 0.22464 0.74626 0.0
C891 C 0.79184 0.19943 0.71273 0.0
C892 C 0.80256 0.20902 0.66695 0.0
C893 C 0.78743 0.2147 0.79517 0.0
C894 C 0.79985 0.19583 0.81926 0.0
C895 C 0.76675 0.2255 0.81884 0.0
C896 C 0.7512 0.24381 0.79475 0.0
C897 C 0.7314 0.22989 0.75451 0.0
C898 C 0.71739 0.24755 0.73144 0.0
C899 C 0.72259 0.27897 0.7486 0.0
C900 C 0.7418 0.29277 0.78891 0.0
C901 C 0.75604 0.2753 0.81199 0.0
H902 H 0.7117 0.29259 0.7307 0.0
H903 H 0.84887 0.12145 0.9531 0.0
H904 H 0.55165 0.78548 0.39393 0.0
H905 H 0.5565 0.80569 0.31439 0.0
H906 H 0.60127 0.74371 0.27437 0.0
H907 H 0.5983 0.72493 0.35406 0.0
H908 H 0.63259 0.8017 0.22967 0.0
H909 H 0.5137 0.71748 0.25572 0.0
H910 H 0.45739 0.69122 0.29536 0.0
H911 H 0.45019 0.78181 0.26784 0.0
H912 H 0.50671 0.80881 0.22852 0.0
H913 H 0.6049 0.80267 0.98812 0.0
H914 H 0.60105 0.78307 0.0679 0.0
H915 H 0.56095 0.84877 0.10961 0.0
H916 H 0.56323 0.86727 0.02978 0.0
H917 H 0.52733 0.78856 0.15298 0.0
H918 H 0.64775 0.87211 0.12596 0.0
H919 H 0.70252 0.89533 0.08299 0.0
H920 H 0.70525 0.80223 0.10974 0.0
H921 H 0.65029 0.77833 0.15253 0.0
C922 C 0.56309 0.77657 0.36846 0.0
C923 C 0.57408 0.75306 0.38063 0.0
C924 C 0.56547 0.78785 0.3227 0.0
C925 C 0.5785 0.77563 0.28787 0.0
C926 C 0.5908 0.75333 0.3003 0.0
C927 C 0.5887 0.74228 0.346 0.0
C928 C 0.57864 0.78529 0.23837 0.0
C929 C 0.60944 0.79847 0.21289 0.0
C930 C 0.54863 0.78149 0.21616 0.0
C931 C 0.51459 0.76529 0.2396 0.0
C932 C 0.50022 0.73189 0.25841 0.0
C933 C 0.46825 0.71686 0.28077 0.0
C934 C 0.45027 0.73487 0.28423 0.0
C935 C 0.46418 0.76792 0.2652 0.0
C936 C 0.49616 0.78308 0.24284 0.0
C937 C 0.59476 0.81258 0.01409 0.0
C938 C 0.58471 0.83687 1.00236 0.0
C939 C 0.59294 0.80162 0.0599 0.0
C940 C 0.58135 0.81493 0.09515 0.0
C941 C 0.57025 0.83829 0.08327 0.0
C942 C 0.5719 0.84911 0.03753 0.0
C943 C 0.58127 0.80512 0.14449 0.0
C944 C 0.55048 0.79187 0.16989 0.0
C945 C 0.61118 0.80854 0.16647 0.0
C946 C 0.64481 0.82335 0.14215 0.0
C947 C 0.66001 0.85658 0.12259 0.0
C948 C 0.69107 0.86985 0.09827 0.0
C949 C 0.70731 0.85023 0.09355 0.0
C950 C 0.69263 0.81739 0.11342 0.0
C951 C 0.66156 0.80399 0.13778 0.0
H952 H 0.73128 0.86049 0.07454 0.0
H953 H 0.42552 0.72319 0.30155 0.0
H954 H 0.84225 0.53367 0.67569 0.0
H955 H 0.82615 0.53615 0.59588 0.0
H956 H 0.79757 0.61172 0.63358 0.0
H957 H 0.81413 0.60977 0.71372 0.0
H958 H 0.75074 0.56385 0.57478 0.0
H959 H 0.87362 0.63636 0.57995 0.0
H960 H 0.9338 0.65173 0.59626 0.0
H961 H 0.92382 0.57184 0.50482 0.0
H962 H 0.86336 0.55562 0.48849 0.0
H963 H 0.74744 0.62343 0.34877 0.0
H964 H 0.76256 0.62017 0.42881 0.0
H965 H 0.78873 0.54275 0.39171 0.0
H966 H 0.77288 0.54526 0.3114 0.0
H967 H 0.83673 0.59159 0.45012 0.0
H968 H 0.71363 0.51923 0.44506 0.0
H969 H 0.65369 0.50455 0.42837 0.0
H970 H 0.66445 0.58498 0.51937 0.0
H971 H 0.72467 0.6005 0.53609 0.0
C972 C 0.83277 0.55104 0.6671 0.0
C973 C 0.82997 0.57188 0.70123 0.0
C974 C 0.82349 0.55236 0.62135 0.0
C975 C 0.81122 0.57458 0.60843 0.0
C976 C 0.80712 0.59448 0.64263 0.0
C977 C 0.81648 0.59322 0.68853 0.0
C978 C 0.80305 0.5772 0.55918 0.0
C979 C 0.7697 0.57039 0.54762 0.0
C980 C 0.82752 0.58497 0.52346 0.0
C981 C 0.86382 0.59453 0.53339 0.0
C982 C 0.88414 0.62185 0.56365 0.0
C983 C 0.91833 0.63076 0.57284 0.0
C984 C 0.9326 0.61271 0.55169 0.0
C985 C 0.91272 0.58576 0.52124 0.0
C986 C 0.87849 0.5767 0.51199 0.0
C987 C 0.75609 0.60542 0.35753 0.0
C988 C 0.75852 0.58432 0.32345 0.0
C989 C 0.76484 0.60369 0.40342 0.0
C990 C 0.77631 0.58085 0.41651 0.0
C991 C 0.77985 0.56051 0.38247 0.0
C992 C 0.77093 0.56211 0.33647 0.0
C993 C 0.78443 0.5782 0.46575 0.0
C994 C 0.81777 0.58502 0.47729 0.0
C995 C 0.75999 0.57051 0.50145 0.0
C996 C 0.72379 0.56126 0.49145 0.0
C997 C 0.70333 0.534 0.4612 0.0
C998 C 0.66928 0.52548 0.45179 0.0
C999 C 0.6553 0.54388 0.4727 0.0
C1000 C 0.67533 0.57079 0.50314 0.0
C1001 C 0.70942 0.57944 0.51262 0.0
H1002 H 0.62893 0.53723 0.46539 0.0
H1003 H 0.95909 0.61968 0.5588 0.0
H1004 H 0.23478 0.78225 0.64269 0.0
H1005 H 0.25307 0.80114 0.72202 0.0
H1006 H 0.14652 0.75664 0.76336 0.0
H1007 H 0.12816 0.73939 0.68392 0.0
H1008 H 0.18347 0.81493 0.80684 0.0
H1009 H 0.19444 0.71447 0.78001 0.0
H1010 H 0.21545 0.68024 0.73908 0.0
H1011 H 0.32033 0.75793 0.76762 0.0
H1012 H 0.29994 0.79285 0.80823 0.0
H1013 H 0.20636 0.80901 0.04824 0.0
H1014 H 0.18875 0.79205 0.96828 0.0
H1015 H 0.29547 0.83489 0.92879 0.0
H1016 H 0.3131 0.84993 1.00888 0.0
H1017 H 0.25885 0.77797 0.884 0.0
H1018 H 0.2478 0.87835 0.91121 0.0
H1019 H 0.22667 0.91268 0.95163 0.0
H1020 H 0.12188 0.83512 0.92228 0.0
H1021 H 0.14239 0.80014 0.88212 0.0
C1022 C 0.21523 0.77702 0.66843 0.0
C1023 C 0.17989 0.75879 0.65679 0.0
C1024 C 0.22573 0.78749 0.71401 0.0
C1025 C 0.20116 0.77961 0.7491 0.0
C1026 C 0.16602 0.76277 0.73716 0.0
C1027 C 0.15553 0.75258 0.69165 0.0
C1028 C 0.21176 0.78797 0.79842 0.0
C1029 C 0.19966 0.80651 0.8238 0.0
C1030 C 0.2334 0.77759 0.82061 0.0
C1031 C 0.24567 0.75641 0.79678 0.0
C1032 C 0.22199 0.72434 0.77733 0.0
C1033 C 0.23378 0.70481 0.75421 0.0
C1034 C 0.26921 0.71695 0.75064 0.0
C1035 C 0.2929 0.74859 0.77035 0.0
C1036 C 0.28124 0.76824 0.79346 0.0
C1037 C 0.2261 0.81433 0.02277 0.0
C1038 C 0.26127 0.83129 0.03527 0.0
C1039 C 0.21599 0.80502 0.97678 0.0
C1040 C 0.2408 0.81289 0.94203 0.0
C1041 C 0.27578 0.82877 0.95468 0.0
C1042 C 0.28587 0.83773 1.00062 0.0
C1043 C 0.23058 0.80497 0.89249 0.0
C1044 C 0.24272 0.78646 0.86706 0.0
C1045 C 0.20897 0.81537 0.87026 0.0
C1046 C 0.19662 0.83651 0.89403 0.0
C1047 C 0.22025 0.86854 0.91361 0.0
C1048 C 0.20838 0.88812 0.93644 0.0
C1049 C 0.17295 0.87605 0.93961 0.0
C1050 C 0.14931 0.84442 0.91983 0.0
C1051 C 0.16104 0.82473 0.89699 0.0
H1052 H 0.16381 0.89124 0.95732 0.0
H1053 H 0.27829 0.70181 0.73269 0.0
H1054 H 0.39225 0.20039 0.38474 0.0
H1055 H 0.39015 0.18115 0.30513 0.0
H1056 H 0.48189 0.27776 0.27305 0.0
H1057 H 0.48374 0.29719 0.35223 0.0
H1058 H 0.43753 0.26382 0.20779 0.0
H1059 H 0.48201 0.19966 0.28399 0.0
H1060 H 0.48429 0.16055 0.34221 0.0
H1061 H 0.38677 0.07808 0.29453 0.0
H1062 H 0.3836 0.11687 0.23648 0.0
H1063 H 0.46552 0.21131 0.98665 0.0
H1064 H 0.47156 0.23037 0.067 0.0
H1065 H 0.37596 0.13825 0.10114 0.0
H1066 H 0.36982 0.11906 0.02109 0.0
H1067 H 0.42432 0.15053 0.16505 0.0
H1068 H 0.38169 0.2185 0.08841 0.0
H1069 H 0.38345 0.25922 0.0294 0.0
H1070 H 0.48339 0.33662 0.07776 0.0
H1071 H 0.48241 0.29624 0.13674 0.0
C1072 C 0.41223 0.2173 0.36086 0.0
C1073 C 0.43809 0.25037 0.37483 0.0
C1074 C 0.41104 0.20629 0.31527 0.0
C1075 C 0.43599 0.22789 0.28283 0.0
C1076 C 0.46219 0.26064 0.29711 0.0
C1077 C 0.46322 0.27174 0.34248 0.0
C1078 C 0.43419 0.21701 0.23368 0.0
C1079 C 0.43513 0.23922 0.19855 0.0
C1080 C 0.43063 0.18475 0.22126 0.0
C1081 C 0.43243 0.16129 0.25611 0.0
C1082 C 0.46091 0.17326 0.28614 0.0
C1083 C 0.4624 0.15114 0.31907 0.0
C1084 C 0.4357 0.11686 0.32205 0.0
C1085 C 0.40743 0.10464 0.29216 0.0
C1086 C 0.40579 0.12669 0.25921 0.0
C1087 C 0.44558 0.19529 1.01115 0.0
C1088 C 0.41721 0.1636 0.99729 0.0
C1089 C 0.4491 0.20619 0.05717 0.0
C1090 C 0.4241 0.18587 0.09029 0.0
C1091 C 0.3957 0.15433 0.07645 0.0
C1092 C 0.39225 0.14337 0.03057 0.0
C1093 C 0.42743 0.19725 0.13938 0.0
C1094 C 0.42677 0.17512 0.17444 0.0
C1095 C 0.43179 0.22982 0.15175 0.0
C1096 C 0.43209 0.25425 0.11674 0.0
C1097 C 0.40411 0.24414 0.08631 0.0
C1098 C 0.40495 0.26716 0.0529 0.0
C1099 C 0.43352 0.30044 0.04979 0.0
C1100 C 0.46128 0.31082 0.0802 0.0
C1101 C 0.46057 0.2879 0.11367 0.0
H1102 H 0.43414 0.31821 0.02387 0.0
H1103 H 0.43696 0.09974 0.34745 0.0
H1104 H 0.24249 0.51939 0.05417 0.0
H1105 H 0.23955 0.56775 0.08883 0.0
H1106 H 0.13044 0.50141 0.11295 0.0
H1107 H 0.13339 0.45302 0.07765 0.0
H1108 H 0.1492 0.57166 0.09381 0.0
H1109 H 0.18066 0.50656 0.19412 0.0
H1110 H 0.21381 0.4781 0.21538 0.0
H1111 H 0.30789 0.57598 0.2131 0.0
H1112 H 0.27532 0.60498 0.19084 0.0
H1113 H 0.14633 0.67081 0.28966 0.0
H1114 H 0.13897 0.62195 0.24243 0.0
H1115 H 0.247 0.6786 0.20646 0.0
H1116 H 0.25448 0.72728 0.25271 0.0
H1117 H 0.22397 0.61007 0.23313 0.0
H1118 H 0.19146 0.67463 0.13114 0.0
H1119 H 0.15767 0.70203 0.10786 0.0
H1120 H 0.06406 0.60391 0.11502 0.0
H1121 H 0.09728 0.57598 0.13904 0.0
C1122 C 0.21763 0.51564 0.06494 0.0
C1123 C 0.18798 0.48287 0.06233 0.0
C1124 C 0.21598 0.54314 0.08505 0.0
C1125 C 0.18485 0.53806 0.10397 0.0
C1126 C 0.15467 0.50593 0.09841 0.0
C1127 C 0.15633 0.47837 0.07823 0.0
C1128 C 0.18512 0.56446 0.13531 0.0
C1129 C 0.16516 0.57978 0.12459 0.0
C1130 C 0.20598 0.57503 0.1755 0.0
C1131 C 0.22558 0.55791 0.19043 0.0
C1132 C 0.20844 0.52201 0.19791 0.0
C1133 C 0.22713 0.50577 0.21012 0.0
C1134 C 0.26295 0.5252 0.21551 0.0
C1135 C 0.28014 0.56095 0.20886 0.0
C1136 C 0.26157 0.57731 0.19646 0.0
C1137 C 0.16851 0.67273 0.27186 0.0
C1138 C 0.20096 0.70301 0.27486 0.0
C1139 C 0.16424 0.64489 0.24474 0.0
C1140 C 0.19243 0.64675 0.22073 0.0
C1141 C 0.22491 0.67661 0.22462 0.0
C1142 C 0.22908 0.7045 0.25104 0.0
C1143 C 0.18854 0.61784 0.19129 0.0
C1144 C 0.20779 0.60186 0.20254 0.0
C1145 C 0.16681 0.60656 0.15193 0.0
C1146 C 0.14681 0.62329 0.13744 0.0
C1147 C 0.16363 0.65894 0.12821 0.0
C1148 C 0.14459 0.67456 0.11478 0.0
C1149 C 0.10873 0.65474 0.1101 0.0
C1150 C 0.09184 0.61924 0.11875 0.0
C1151 C 0.11076 0.6035 0.13225 0.0
H1152 H 0.09405 0.66686 0.09961 0.0
H1153 H 0.27738 0.51257 0.22491 0.0
H1154 H 0.69113 0.15458 0.40057 0.0
H1155 H 0.63627 0.13879 0.43952 0.0
H1156 H 0.65712 0.2434 0.42447 0.0
H1157 H 0.71131 0.25906 0.38505 0.0
H1158 H 0.65198 0.20554 0.52328 0.0
H1159 H 0.59792 0.21037 0.37903 0.0
H1160 H 0.57324 0.1938 0.30087 0.0
H1161 H 0.50836 0.08917 0.3461 0.0
H1162 H 0.53285 0.10516 0.42457 0.0
H1163 H 0.52957 0.24794 0.60431 0.0
H1164 H 0.56969 0.23946 0.55678 0.0
H1165 H 0.50838 0.12938 0.57697 0.0
H1166 H 0.46811 0.13771 0.62578 0.0
H1167 H 0.52918 0.15714 0.47832 0.0
H1168 H 0.57595 0.15962 0.6284 0.0
H1169 H 0.59488 0.18316 0.70662 0.0
H1170 H 0.67287 0.27943 0.64919 0.0
H1171 H 0.65402 0.25667 0.57055 0.0
C1172 C 0.68322 0.17375 0.40384 0.0
C1173 C 0.70527 0.20801 0.38954 0.0
C1174 C 0.65195 0.16474 0.42615 0.0
C1175 C 0.64257 0.18991 0.43449 0.0
C1176 C 0.66365 0.22351 0.41775 0.0
C1177 C 0.69462 0.23244 0.39538 0.0
C1178 C 0.615 0.18358 0.46795 0.0
C1179 C 0.62507 0.19469 0.51354 0.0
C1180 C 0.5799 0.16913 0.45532 0.0
C1181 C 0.56778 0.15879 0.40735 0.0
C1182 C 0.57898 0.18368 0.37206 0.0
C1183 C 0.56472 0.17448 0.32784 0.0
C1184 C 0.53925 0.14045 0.31852 0.0
C1185 C 0.52814 0.1155 0.35334 0.0
C1186 C 0.5422 0.12462 0.39767 0.0
C1187 C 0.52465 0.22191 0.59897 0.0
C1188 C 0.49568 0.19349 0.61878 0.0
C1189 C 0.54762 0.21712 0.5718 0.0
C1190 C 0.54193 0.18382 0.56334 0.0
C1191 C 0.51313 0.15527 0.58312 0.0
C1192 C 0.49035 0.1601 0.61118 0.0
C1193 C 0.56632 0.17956 0.53329 0.0
C1194 C 0.55584 0.16678 0.48845 0.0
C1195 C 0.60121 0.19301 0.54632 0.0
C1196 C 0.61339 0.20649 0.59354 0.0
C1197 C 0.59701 0.18588 0.63242 0.0
C1198 C 0.60772 0.19909 0.67684 0.0
C1199 C 0.63494 0.23282 0.68286 0.0
C1200 C 0.65171 0.25333 0.64446 0.0
C1201 C 0.64106 0.24026 0.59994 0.0
H1202 H 0.64312 0.24303 0.71728 0.0
H1203 H 0.52815 0.13341 0.28432 0.0
H1204 H 0.28246 0.48191 0.88448 0.0
H1205 H 0.3346 0.52583 0.84747 0.0
H1206 H 0.37965 0.56698 0.98054 0.0
H1207 H 0.32619 0.52371 0.01822 0.0
H1208 H 0.39197 0.61739 0.92701 0.0
H1209 H 0.40787 0.52211 0.91066 0.0
H1210 H 0.39409 0.46264 0.89334 0.0
H1211 H 0.38014 0.47783 0.75034 0.0
H1212 H 0.39287 0.53707 0.76691 0.0
H1213 H 0.54611 0.70657 0.75837 0.0
H1214 H 0.50904 0.65388 0.8032 0.0
H1215 H 0.42302 0.67107 0.78458 0.0
H1216 H 0.4598 0.72348 0.74068 0.0
H1217 H 0.44504 0.59183 0.79359 0.0
H1218 H 0.38831 0.66765 0.88778 0.0
H1219 H 0.40758 0.72803 0.90887 0.0
H1220 H 0.51329 0.7518 0.90662 0.0
H1221 H 0.49467 0.69149 0.88645 0.0
C1222 C 0.30334 0.5002 0.90621 0.0
C1223 C 0.30003 0.49902 0.95459 0.0
C1224 C 0.3335 0.52514 0.88481 0.0
C1225 C 0.36156 0.54938 0.91106 0.0
C1226 C 0.35852 0.54833 0.95946 0.0
C1227 C 0.32803 0.52339 0.98105 0.0
C1228 C 0.39271 0.57712 0.88722 0.0
C1229 C 0.40374 0.61165 0.89825 0.0
C1230 C 0.40909 0.5699 0.85042 0.0
C1231 C 0.40121 0.53412 0.84013 0.0
C1232 C 0.40155 0.51271 0.87557 0.0
C1233 C 0.39391 0.479 0.86588 0.0
C1234 C 0.38622 0.46646 0.82078 0.0
C1235 C 0.38608 0.48758 0.78528 0.0
C1236 C 0.3935 0.52124 0.79481 0.0
C1237 C 0.51903 0.6984 0.7628 0.0
C1238 C 0.50567 0.71897 0.74627 0.0
C1239 C 0.49794 0.66843 0.78847 0.0
C1240 C 0.46349 0.65903 0.79806 0.0
C1241 C 0.44967 0.67818 0.77831 0.0
C1242 C 0.47062 0.70801 0.75309 0.0
C1243 C 0.44245 0.6315 0.83203 0.0
C1244 C 0.4335 0.59725 0.82294 0.0
C1245 C 0.42876 0.63892 0.87158 0.0
C1246 C 0.44005 0.67503 0.8853 0.0
C1247 C 0.41564 0.68568 0.89217 0.0
C1248 C 0.42648 0.71993 0.90391 0.0
C1249 C 0.46165 0.74376 0.90899 0.0
C1250 C 0.48607 0.73336 0.90259 0.0
C1251 C 0.47538 0.69914 0.891 0.0
H1252 H 0.46999 0.77028 0.91795 0.0
H1253 H 0.38048 0.44042 0.81332 0.0
H1254 H 0.85702 0.32746 0.28779 0.0
H1255 H 0.86844 0.37578 0.23632 0.0
H1256 H 0.76201 0.32183 0.1923 0.0
H1257 H 0.75046 0.27376 0.24268 0.0
H1258 H 0.80389 0.3473 0.11991 0.0
H1259 H 0.79538 0.39032 0.27172 0.0
H1260 H 0.81437 0.40585 0.35245 0.0
H1261 H 0.91675 0.47888 0.30642 0.0
H1262 H 0.89844 0.4634 0.22541 0.0
H1263 H 0.74722 0.45848 0.04719 0.0
H1264 H 0.7632 0.41772 0.07797 0.0
H1265 H 0.8675 0.50098 0.0998 0.0
H1266 H 0.85103 0.5422 0.06958 0.0
H1267 H 0.84375 0.46599 0.17621 0.0
H1268 H 0.85266 0.42737 0.0251 0.0
H1269 H 0.83739 0.40811 0.94427 0.0
H1270 H 0.73786 0.32682 0.98777 0.0
H1271 H 0.75279 0.34517 0.0688 0.0
C1272 C 0.83602 0.32608 0.26742 0.0
C1273 C 0.80279 0.29672 0.26946 0.0
C1274 C 0.84263 0.35367 0.23794 0.0
C1275 C 0.81612 0.35246 0.21038 0.0
C1276 C 0.78298 0.3233 0.21287 0.0
C1277 C 0.77639 0.29582 0.24196 0.0
C1278 C 0.82213 0.38117 0.17866 0.0
C1279 C 0.81257 0.37327 0.13223 0.0
C1280 C 0.83499 0.41546 0.19407 0.0
C1281 C 0.84563 0.42552 0.24261 0.0
C1282 C 0.82196 0.40961 0.27886 0.0
C1283 C 0.8326 0.41838 0.32464 0.0
C1284 C 0.86676 0.44327 0.33456 0.0
C1285 C 0.89031 0.45957 0.29869 0.0
C1286 C 0.87981 0.45083 0.25284 0.0
C1287 C 0.77385 0.46791 0.05714 0.0
C1288 C 0.79797 0.50334 0.05544 0.0
C1289 C 0.78311 0.44454 0.07449 0.0
C1290 C 0.81675 0.45601 0.09082 0.0
C1291 C 0.84145 0.49137 0.08715 0.0
C1292 C 0.83214 0.5149 0.06957 0.0
C1293 C 0.82388 0.43171 0.11768 0.0
C1294 C 0.83592 0.44035 0.16335 0.0
C1295 C 0.81349 0.39803 0.10156 0.0
C1296 C 0.80372 0.38789 0.05282 0.0
C1297 C 0.82742 0.4056 0.01728 0.0
C1298 C 0.81893 0.39467 0.97153 0.0
C1299 C 0.78662 0.36642 0.96088 0.0
C1300 C 0.76284 0.34878 0.99602 0.0
C1301 C 0.77138 0.35927 0.04188 0.0
H1302 H 0.78007 0.35813 0.92542 0.0
H1303 H 0.87497 0.44997 0.37003 0.0
H1304 H 0.29214 0.74528 0.38839 0.0
H1305 H 0.34516 0.76255 0.43187 0.0
H1306 H 0.35969 0.8647 0.4489 0.0
H1307 H 0.30601 0.84726 0.40571 0.0
H1308 H 0.42566 0.8524 0.43501 0.0
H1309 H 0.32878 0.83061 0.53147 0.0
H1310 H 0.26719 0.79897 0.55262 0.0
H1311 H 0.27145 0.7057 0.56892 0.0
H1312 H 0.33307 0.73676 0.54693 0.0
H1313 H 0.53015 0.86465 0.63539 0.0
H1314 H 0.48882 0.87249 0.58788 0.0
H1315 H 0.43077 0.7628 0.563 0.0
H1316 H 0.47174 0.75486 0.60947 0.0
H1317 H 0.3891 0.79145 0.58561 0.0
H1318 H 0.48364 0.81204 0.48268 0.0
H1319 H 0.54497 0.84246 0.45974 0.0
H1320 H 0.54555 0.93878 0.45722 0.0
H1321 H 0.48419 0.90887 0.48052 0.0
C1322 C 0.30726 0.77178 0.40001 0.0
C1323 C 0.29501 0.79491 0.39362 0.0
C1324 C 0.33755 0.78162 0.4248 0.0
C1325 C 0.35619 0.81479 0.44384 0.0
C1326 C 0.34574 0.83903 0.43423 0.0
C1327 C 0.31512 0.82907 0.40945 0.0
C1328 C 0.38258 0.82133 0.47962 0.0
C1329 C 0.41784 0.83994 0.46845 0.0
C1330 C 0.3723 0.80468 0.52301 0.0
C1331 C 0.33545 0.78595 0.53715 0.0
C1332 C 0.31651 0.80329 0.53918 0.0
C1333 C 0.28159 0.78546 0.55137 0.0
C1334 C 0.26534 0.75029 0.56203 0.0
C1335 C 0.28405 0.73293 0.56062 0.0
C1336 C 0.319 0.75065 0.54832 0.0
C1337 C 0.50833 0.84222 0.62017 0.0
C1338 C 0.50427 0.80914 0.62612 0.0
C1339 C 0.48488 0.84675 0.59288 0.0
C1340 C 0.45678 0.81821 0.57175 0.0
C1341 C 0.4522 0.78517 0.57897 0.0
C1342 C 0.47578 0.7807 0.60548 0.0
C1343 C 0.43232 0.82219 0.54099 0.0
C1344 C 0.39719 0.80504 0.55291 0.0
C1345 C 0.44287 0.84044 0.49862 0.0
C1346 C 0.47949 0.85831 0.48381 0.0
C1347 C 0.49692 0.83974 0.47751 0.0
C1348 C 0.53168 0.85688 0.46441 0.0
C1349 C 0.54922 0.89257 0.45723 0.0
C1350 C 0.53196 0.91115 0.46289 0.0
C1351 C 0.49718 0.89411 0.47597 0.0
H1352 H 0.57613 0.90581 0.44714 0.0
H1353 H 0.23829 0.73652 0.57149 0.0
H1354 H 0.67262 0.52412 0.9632 0.0
H1355 H 0.62377 0.48278 0.91582 0.0
H1356 H 0.68425 0.43791 0.86919 0.0
H1357 H 0.73281 0.47897 0.91546 0.0
H1358 H 0.65437 0.44882 0.79854 0.0
H1359 H 0.61839 0.39937 0.95077 0.0
H1360 H 0.60259 0.39883 0.03234 0.0
H1361 H 0.51972 0.41567 0.99173 0.0
H1362 H 0.53544 0.41696 0.90988 0.0
H1363 H 0.54305 0.27968 0.725 0.0
H1364 H 0.58412 0.33534 0.75822 0.0
H1365 H 0.50178 0.3576 0.78045 0.0
H1366 H 0.46019 0.30103 0.74733 0.0
H1367 H 0.53763 0.36634 0.85822 0.0
H1368 H 0.57677 0.41975 0.70632 0.0
H1369 H 0.59593 0.42415 0.62534 0.0
H1370 H 0.6727 0.39864 0.66705 0.0
H1371 H 0.65457 0.39501 0.74826 0.0
C1372 C 0.67532 0.50518 0.94322 0.0
C1373 C 0.70671 0.50492 0.94325 0.0
C1374 C 0.64737 0.48156 0.9161 0.0
C1375 C 0.65022 0.45709 0.88886 0.0
C1376 C 0.68138 0.45661 0.88954 0.0
C1377 C 0.70921 0.48017 0.91625 0.0
C1378 C 0.62151 0.43232 0.85847 0.0
C1379 C 0.62887 0.43075 0.81178 0.0
C1380 C 0.58778 0.40942 0.87503 0.0
C1381 C 0.5784 0.40875 0.92423 0.0
C1382 C 0.59703 0.40333 0.95924 0.0
C1383 C 0.58805 0.40283 1.00553 0.0
C1384 C 0.56025 0.40734 0.01723 0.0
C1385 C 0.54132 0.41229 0.98263 0.0
C1386 C 0.55026 0.41293 0.93629 0.0
C1387 C 0.53387 0.29689 0.73571 0.0
C1388 C 0.49858 0.28626 0.73309 0.0
C1389 C 0.55744 0.32891 0.75447 0.0
C1390 C 0.54634 0.35113 0.77144 0.0
C1391 C 0.51111 0.3411 0.7673 0.0
C1392 C 0.48739 0.30892 0.74813 0.0
C1393 C 0.5709 0.38222 0.79862 0.0
C1394 C 0.56284 0.38496 0.84477 0.0
C1395 C 0.60417 0.40618 0.78182 0.0
C1396 C 0.61399 0.40663 0.73303 0.0
C1397 C 0.59751 0.41479 0.69802 0.0
C1398 C 0.6084 0.41746 0.65222 0.0
C1399 C 0.63531 0.41141 0.64104 0.0
C1400 C 0.65174 0.40315 0.67571 0.0
C1401 C 0.64136 0.40104 0.72163 0.0
H1402 H 0.64353 0.41329 0.60553 0.0
H1403 H 0.5533 0.40688 0.05307 0.0
loop_
_geom_bond_atom_site_label_1
_geom_bond_atom_site_label_2
_geom_bond_distance
_geom_bond_site_symmetry_2
_ccdc_geom_bond_type
Gd0 N31 2.661 . S
Gd0 N37 2.601 . S
Gd0 O44 2.545 . S
Gd0 O45 2.606 . S
Gd0 O47 2.429 . S
Gd0 O48 2.545 . S
Gd0 O49 2.412 . S
Gd0 O51 2.362 1_554 S
Gd0 O52 2.324 . S
Gd0 C59 2.828 . S
Gd1 N10 2.661 . S
Gd1 N14 2.601 . S
Gd1 O45 2.362 1_556 S
Gd1 O46 2.324 . S
Gd1 O50 2.545 . S
Gd1 O51 2.606 . S
Gd1 O53 2.419 1_556 S
Gd1 O54 2.545 . S
Gd1 O55 2.412 . S
Gd1 C68 2.828 . S
C2 C5 1.417 . S
C2 C7 1.431 . S
C2 C8 1.412 . S
C3 C6 1.437 . S
C3 C7 1.317 . S
C3 H22 0.929 . S
C4 C5 1.426 . S
C4 C6 1.413 . S
C4 N14 1.359 . S
C5 C2 1.417 . S
C5 C4 1.426 . S
C5 N10 1.350 . S
C6 C3 1.437 . S
C6 C4 1.413 . S
C6 C16 1.391 . S
C7 C2 1.431 . S
C7 C3 1.317 . S
C7 H18 0.930 . S
C8 C2 1.412 . S
C8 C9 1.355 . S
C8 H20 0.930 . S
C9 C8 1.355 . S
C9 C11 1.402 . S
C9 H21 0.930 . S
N10 Gd1 2.661 . S
N10 C5 1.350 . S
N10 C11 1.307 . S
C11 C9 1.402 . S
C11 N10 1.307 . S
C11 H12 0.930 . S
H12 C11 0.930 . S
C13 N14 1.334 . S
C13 C15 1.394 . S
C13 H17 0.930 . S
N14 Gd1 2.601 . S
N14 C4 1.359 . S
N14 C13 1.334 . S
C15 C13 1.394 . S
C15 C16 1.359 . S
C15 H27 0.930 . S
C16 C6 1.391 . S
C16 C15 1.359 . S
C16 H28 0.929 . S
H17 C13 0.930 . S
H18 C7 0.930 . S
H19 C36 0.930 . S
H20 C8 0.930 . S
H21 C9 0.930 . S
H22 C3 0.929 . S
H23 C41 0.930 . S
H24 C32 0.930 . S
H25 C33 0.930 . S
H26 C57 0.929 . S
H27 C15 0.930 . S
H28 C16 0.929 . S
H29 C58 0.930 . S
H30 C39 0.930 . S
N31 Gd0 2.661 . S
N31 C35 1.350 . S
N31 C36 1.307 . S
C32 H24 0.930 . S
C32 C33 1.355 . S
C32 C34 1.412 . S
C33 H25 0.930 . S
C33 C32 1.355 . S
C33 C36 1.402 . S
C34 C32 1.412 . S
C34 C35 1.417 . S
C34 C58 1.431 . S
C35 N31 1.350 . S
C35 C34 1.417 . S
C35 C38 1.426 . S
C36 H19 0.930 . S
C36 N31 1.307 . S
C36 C33 1.402 . S
N37 Gd0 2.601 . S
N37 C38 1.359 . S
N37 C41 1.334 . S
C38 C35 1.426 . S
C38 N37 1.359 . S
C38 C42 1.413 . S
C39 H30 0.930 . S
C39 C40 1.359 . S
C39 C41 1.394 . S
C40 C39 1.359 . S
C40 C42 1.391 . S
C40 H43 0.929 . S
C41 H23 0.930 . S
C41 N37 1.334 . S
C41 C39 1.394 . S
C42 C38 1.413 . S
C42 C40 1.391 . S
C42 C57 1.437 . S
H43 C40 0.929 . S
O44 Gd0 2.545 . S
O44 C59 1.258 . S
O45 Gd0 2.606 . S
O45 Gd1 2.362 1_554 S
O45 C56 1.284 . S
O46 Gd1 2.324 . S
O46 C66 1.254 . S
O47 Gd0 2.429 . S
O47 C66 1.268 1_554 S
O48 Gd0 2.545 . S
O48 C56 1.250 . S
O49 Gd0 2.412 . S
O49 C59 1.252 . S
O50 Gd1 2.545 . S
O50 C68 1.258 . S
O51 Gd0 2.362 1_556 S
O51 Gd1 2.606 . S
O51 C67 1.284 . S
O52 Gd0 2.324 . S
O52 C75 1.254 . S
O53 Gd1 2.419 1_554 S
O53 C75 1.283 . S
O54 Gd1 2.545 . S
O54 C67 1.250 . S
O55 Gd1 2.412 . S
O55 C68 1.252 . S
C56 O45 1.284 . S
C56 O48 1.250 . S
C57 H26 0.929 . S
C57 C42 1.437 . S
C57 C58 1.317 . S
C58 H29 0.930 . S
C58 C34 1.431 . S
C58 C57 1.317 . S
C59 Gd0 2.828 . S
C59 O44 1.258 . S
C59 O49 1.252 . S
C59 C60 1.497 . S
C60 C59 1.497 . S
C60 C61 1.395 . S
C60 C62 1.380 . S
C61 C60 1.395 . S
C61 C64 1.398 . S
C61 H76 0.930 . S
C62 C60 1.380 . S
C62 C63 1.391 . S
C62 H77 0.930 . S
C63 C62 1.391 . S
C63 C65 1.387 . S
C64 C61 1.398 . S
C64 C65 1.380 . S
C64 H78 0.930 . S
C65 C63 1.387 . S
C65 C64 1.380 . S
C65 H79 0.930 . S
C66 O46 1.254 . S
C66 O47 1.268 1_556 S
C67 O51 1.284 . S
C67 O54 1.250 . S
C68 Gd1 2.828 . S
C68 O50 1.258 . S
C68 O55 1.252 . S
C68 C69 1.497 . S
C69 C68 1.497 . S
C69 C70 1.395 . S
C69 C71 1.380 . S
C70 C69 1.395 . S
C70 C73 1.398 . S
C70 H80 0.930 . S
C71 C69 1.380 . S
C71 C72 1.391 . S
C71 H81 0.930 . S
C72 C71 1.391 . S
C72 C74 1.387 . S
C73 C70 1.398 . S
C73 C74 1.380 . S
C73 H82 0.930 . S
C74 C72 1.387 . S
C74 C73 1.380 . S
C74 H83 0.930 . S
C75 O52 1.254 . S
C75 O53 1.283 . S
H76 C61 0.930 . S
H77 C62 0.930 . S
H78 C64 0.930 . S
H79 C65 0.930 . S
H80 C70 0.930 . S
H81 C71 0.930 . S
H82 C73 0.930 . S
H83 C74 0.930 . S
Gd84 N115 2.661 . S
Gd84 N121 2.601 . S
Gd84 O128 2.545 . S
Gd84 O129 2.606 . S
Gd84 O131 2.429 . S
Gd84 O132 2.545 . S
Gd84 O133 2.412 . S
Gd84 O135 2.362 . S
Gd84 O136 2.324 . S
Gd84 C143 2.828 . S
Gd85 N94 2.661 . S
Gd85 N98 2.601 . S
Gd85 O129 2.362 . S
Gd85 O130 2.324 . S
Gd85 O134 2.545 . S
Gd85 O135 2.606 . S
Gd85 O137 2.429 . S
Gd85 O138 2.545 . S
Gd85 O139 2.412 . S
Gd85 C152 2.828 . S
C86 C89 1.417 . S
C86 C91 1.431 . S
C86 C92 1.412 . S
C87 C90 1.437 . S
C87 C91 1.317 . S
C87 H106 0.929 . S
C88 C89 1.426 . S
C88 C90 1.413 . S
C88 N98 1.359 . S
C89 C86 1.417 . S
C89 C88 1.426 . S
C89 N94 1.350 . S
C90 C87 1.437 . S
C90 C88 1.413 . S
C90 C100 1.391 . S
C91 C86 1.431 . S
C91 C87 1.317 . S
C91 H102 0.930 . S
C92 C86 1.412 . S
C92 C93 1.355 . S
C92 H104 0.930 . S
C93 C92 1.355 . S
C93 C95 1.402 . S
C93 H105 0.930 . S
N94 Gd85 2.661 . S
N94 C89 1.350 . S
N94 C95 1.307 . S
C95 C93 1.402 . S
C95 N94 1.307 . S
C95 H96 0.930 . S
H96 C95 0.930 . S
C97 N98 1.334 . S
C97 C99 1.394 . S
C97 H101 0.930 . S
N98 Gd85 2.601 . S
N98 C88 1.359 . S
N98 C97 1.334 . S
C99 C97 1.394 . S
C99 C100 1.359 . S
C99 H111 0.930 . S
C100 C90 1.391 . S
C100 C99 1.359 . S
C100 H112 0.929 . S
H101 C97 0.930 . S
H102 C91 0.930 . S
H103 C120 0.930 . S
H104 C92 0.930 . S
H105 C93 0.930 . S
H106 C87 0.929 . S
H107 C125 0.930 . S
H108 C116 0.930 . S
H109 C117 0.930 . S
H110 C141 0.929 . S
H111 C99 0.930 . S
H112 C100 0.929 . S
H113 C142 0.930 . S
H114 C123 0.930 . S
N115 Gd84 2.661 . S
N115 C119 1.350 . S
N115 C120 1.307 . S
C116 H108 0.930 . S
C116 C117 1.355 . S
C116 C118 1.412 . S
C117 H109 0.930 . S
C117 C116 1.355 . S
C117 C120 1.402 . S
C118 C116 1.412 . S
C118 C119 1.417 . S
C118 C142 1.431 . S
C119 N115 1.350 . S
C119 C118 1.417 . S
C119 C122 1.426 . S
C120 H103 0.930 . S
C120 N115 1.307 . S
C120 C117 1.402 . S
N121 Gd84 2.601 . S
N121 C122 1.359 . S
N121 C125 1.334 . S
C122 C119 1.426 . S
C122 N121 1.359 . S
C122 C126 1.413 . S
C123 H114 0.930 . S
C123 C124 1.359 . S
C123 C125 1.394 . S
C124 C123 1.359 . S
C124 C126 1.391 . S
C124 H127 0.929 . S
C125 H107 0.930 . S
C125 N121 1.334 . S
C125 C123 1.394 . S
C126 C122 1.413 . S
C126 C124 1.391 . S
C126 C141 1.437 . S
H127 C124 0.929 . S
O128 Gd84 2.545 . S
O128 C143 1.258 . S
O129 Gd84 2.606 . S
O129 Gd85 2.362 . S
O129 C140 1.284 . S
O130 Gd85 2.324 . S
O130 C150 1.254 . S
O131 Gd84 2.429 . S
O131 C150 1.268 . S
O132 Gd84 2.545 . S
O132 C140 1.250 . S
O133 Gd84 2.412 . S
O133 C143 1.252 . S
O134 Gd85 2.545 . S
O134 C152 1.258 . S
O135 Gd84 2.362 . S
O135 Gd85 2.606 . S
O135 C151 1.284 . S
O136 Gd84 2.324 . S
O136 C159 1.254 . S
O137 Gd85 2.429 . S
O137 C159 1.268 . S
O138 Gd85 2.545 . S
O138 C151 1.250 . S
O139 Gd85 2.412 . S
O139 C152 1.252 . S
C140 O129 1.284 . S
C140 O132 1.250 . S
C141 H110 0.929 . S
C141 C126 1.437 . S
C141 C142 1.317 . S
C142 H113 0.930 . S
C142 C118 1.431 . S
C142 C141 1.317 . S
C143 Gd84 2.828 . S
C143 O128 1.258 . S
C143 O133 1.252 . S
C143 C144 1.497 . S
C144 C143 1.497 . S
C144 C145 1.395 . S
C144 C146 1.380 . S
C145 C144 1.395 . S
C145 C148 1.398 . S
C145 H160 0.930 . S
C146 C144 1.380 . S
C146 C147 1.391 . S
C146 H161 0.930 . S
C147 C146 1.391 . S
C147 C149 1.387 . S
C148 C145 1.398 . S
C148 C149 1.380 . S
C148 H162 0.930 . S
C149 C147 1.387 . S
C149 C148 1.380 . S
C149 H163 0.930 . S
C150 O130 1.254 . S
C150 O131 1.268 . S
C151 O135 1.284 . S
C151 O138 1.250 . S
C152 Gd85 2.828 . S
C152 O134 1.258 . S
C152 O139 1.252 . S
C152 C153 1.497 . S
C153 C152 1.497 . S
C153 C154 1.395 . S
C153 C155 1.380 . S
C154 C153 1.395 . S
C154 C157 1.398 . S
C154 H164 0.930 . S
C155 C153 1.380 . S
C155 C156 1.391 . S
C155 H165 0.930 . S
C156 C155 1.391 . S
C156 C158 1.387 . S
C157 C154 1.398 . S
C157 C158 1.380 . S
C157 H166 0.930 . S
C158 C156 1.387 . S
C158 C157 1.380 . S
C158 H167 0.930 . S
C159 O136 1.254 . S
C159 O137 1.268 . S
H160 C145 0.930 . S
H161 C146 0.930 . S
H162 C148 0.930 . S
H163 C149 0.930 . S
H164 C154 0.930 . S
H165 C155 0.930 . S
H166 C157 0.930 . S
H167 C158 0.930 . S
Gd168 N199 2.661 . S
Gd168 N205 2.601 . S
Gd168 O212 2.545 . S
Gd168 O213 2.606 . S
Gd168 O215 2.429 . S
Gd168 O216 2.545 . S
Gd168 O217 2.412 . S
Gd168 O219 2.362 . S
Gd168 O220 2.324 . S
Gd168 C227 2.828 . S
Gd169 N178 2.661 . S
Gd169 N182 2.601 . S
Gd169 O213 2.362 . S
Gd169 O214 2.324 . S
Gd169 O218 2.545 . S
Gd169 O219 2.606 . S
Gd169 O221 2.429 . S
Gd169 O222 2.545 . S
Gd169 O223 2.412 . S
Gd169 C236 2.828 . S
C170 C173 1.417 . S
C170 C175 1.431 . S
C170 C176 1.412 . S
C171 C174 1.437 . S
C171 C175 1.317 . S
C171 H190 0.929 . S
C172 C173 1.426 . S
C172 C174 1.413 . S
C172 N182 1.359 . S
C173 C170 1.417 . S
C173 C172 1.426 . S
C173 N178 1.350 . S
C174 C171 1.437 . S
C174 C172 1.413 . S
C174 C184 1.391 . S
C175 C170 1.431 . S
C175 C171 1.317 . S
C175 H186 0.930 . S
C176 C170 1.412 . S
C176 C177 1.355 . S
C176 H188 0.930 . S
C177 C176 1.355 . S
C177 C179 1.402 . S
C177 H189 0.930 . S
N178 Gd169 2.661 . S
N178 C173 1.350 . S
N178 C179 1.307 . S
C179 C177 1.402 . S
C179 N178 1.307 . S
C179 H180 0.930 . S
H180 C179 0.930 . S
C181 N182 1.334 . S
C181 C183 1.394 . S
C181 H185 0.930 . S
N182 Gd169 2.601 . S
N182 C172 1.359 . S
N182 C181 1.334 . S
C183 C181 1.394 . S
C183 C184 1.359 . S
C183 H195 0.930 . S
C184 C174 1.391 . S
C184 C183 1.359 . S
C184 H196 0.929 . S
H185 C181 0.930 . S
H186 C175 0.930 . S
H187 C204 0.930 . S
H188 C176 0.930 . S
H189 C177 0.930 . S
H190 C171 0.929 . S
H191 C209 0.930 . S
H192 C200 0.930 . S
H193 C201 0.930 . S
H194 C225 0.929 . S
H195 C183 0.930 . S
H196 C184 0.929 . S
H197 C226 0.930 . S
H198 C207 0.930 . S
N199 Gd168 2.661 . S
N199 C203 1.350 . S
N199 C204 1.307 . S
C200 H192 0.930 . S
C200 C201 1.355 . S
C200 C202 1.412 . S
C201 H193 0.930 . S
C201 C200 1.355 . S
C201 C204 1.402 . S
C202 C200 1.412 . S
C202 C203 1.417 . S
C202 C226 1.431 . S
C203 N199 1.350 . S
C203 C202 1.417 . S
C203 C206 1.426 . S
C204 H187 0.930 . S
C204 N199 1.307 . S
C204 C201 1.402 . S
N205 Gd168 2.601 . S
N205 C206 1.359 . S
N205 C209 1.334 . S
C206 C203 1.426 . S
C206 N205 1.359 . S
C206 C210 1.413 . S
C207 H198 0.930 . S
C207 C208 1.359 . S
C207 C209 1.394 . S
C208 C207 1.359 . S
C208 C210 1.391 . S
C208 H211 0.929 . S
C209 H191 0.930 . S
C209 N205 1.334 . S
C209 C207 1.394 . S
C210 C206 1.413 . S
C210 C208 1.391 . S
C210 C225 1.437 . S
H211 C208 0.929 . S
O212 Gd168 2.545 . S
O212 C227 1.258 . S
O213 Gd168 2.606 . S
O213 Gd169 2.362 . S
O213 C224 1.284 . S
O214 Gd169 2.324 . S
O214 C234 1.254 . S
O215 Gd168 2.429 . S
O215 C234 1.268 . S
O216 Gd168 2.545 . S
O216 C224 1.250 . S
O217 Gd168 2.412 . S
O217 C227 1.252 . S
O218 Gd169 2.545 . S
O218 C236 1.258 . S
O219 Gd168 2.362 . S
O219 Gd169 2.606 . S
O219 C235 1.284 . S
O220 Gd168 2.324 . S
O220 C243 1.254 . S
O221 Gd169 2.429 . S
O221 C243 1.268 . S
O222 Gd169 2.545 . S
O222 C235 1.250 . S
O223 Gd169 2.412 . S
O223 C236 1.252 . S
C224 O213 1.284 . S
C224 O216 1.250 . S
C225 H194 0.929 . S
C225 C210 1.437 . S
C225 C226 1.317 . S
C226 H197 0.930 . S
C226 C202 1.431 . S
C226 C225 1.317 . S
C227 Gd168 2.828 . S
C227 O212 1.258 . S
C227 O217 1.252 . S
C227 C228 1.497 . S
C228 C227 1.497 . S
C228 C229 1.395 . S
C228 C230 1.380 . S
C229 C228 1.395 . S
C229 C232 1.398 . S
C229 H244 0.930 . S
C230 C228 1.380 . S
C230 C231 1.391 . S
C230 H245 0.930 . S
C231 C230 1.391 . S
C231 C233 1.387 . S
C232 C229 1.398 . S
C232 C233 1.380 . S
C232 H246 0.930 . S
C233 C231 1.387 . S
C233 C232 1.380 . S
C233 H247 0.930 . S
C234 O214 1.254 . S
C234 O215 1.268 . S
C235 O219 1.284 . S
C235 O222 1.250 . S
C236 Gd169 2.828 . S
C236 O218 1.258 . S
C236 O223 1.252 . S
C236 C237 1.497 . S
C237 C236 1.497 . S
C237 C238 1.395 . S
C237 C239 1.380 . S
C238 C237 1.395 . S
C238 C241 1.398 . S
C238 H248 0.930 . S
C239 C237 1.380 . S
C239 C240 1.391 . S
C239 H249 0.930 . S
C240 C239 1.391 . S
C240 C242 1.387 . S
C241 C238 1.398 . S
C241 C242 1.380 . S
C241 H250 0.930 . S
C242 C240 1.387 . S
C242 C241 1.380 . S
C242 H251 0.930 . S
C243 O220 1.254 . S
C243 O221 1.268 . S
H244 C229 0.930 . S
H245 C230 0.930 . S
H246 C232 0.930 . S
H247 C233 0.930 . S
H248 C238 0.930 . S
H249 C239 0.930 . S
H250 C241 0.930 . S
H251 C242 0.930 . S
Gd252 N283 2.661 . S
Gd252 N289 2.601 . S
Gd252 O296 2.545 . S
Gd252 O297 2.606 . S
Gd252 O299 2.429 . S
Gd252 O300 2.545 . S
Gd252 O301 2.412 . S
Gd252 O303 2.362 1_554 S
Gd252 O304 2.324 . S
Gd252 C311 2.828 . S
Gd253 N262 2.661 . S
Gd253 N266 2.601 . S
Gd253 O297 2.362 1_556 S
Gd253 O298 2.324 . S
Gd253 O302 2.545 . S
Gd253 O303 2.606 . S
Gd253 O305 2.419 1_556 S
Gd253 O306 2.545 . S
Gd253 O307 2.412 . S
Gd253 C320 2.828 . S
C254 C257 1.417 . S
C254 C259 1.431 . S
C254 C260 1.412 . S
C255 C258 1.437 . S
C255 C259 1.317 . S
C255 H274 0.929 . S
C256 C257 1.426 . S
C256 C258 1.413 . S
C256 N266 1.359 . S
C257 C254 1.417 . S
C257 C256 1.426 . S
C257 N262 1.350 . S
C258 C255 1.437 . S
C258 C256 1.413 . S
C258 C268 1.391 . S
C259 C254 1.431 . S
C259 C255 1.317 . S
C259 H270 0.930 . S
C260 C254 1.412 . S
C260 C261 1.355 . S
C260 H272 0.930 . S
C261 C260 1.355 . S
C261 C263 1.402 . S
C261 H273 0.930 . S
N262 Gd253 2.661 . S
N262 C257 1.350 . S
N262 C263 1.307 . S
C263 C261 1.402 . S
C263 N262 1.307 . S
C263 H264 0.930 . S
H264 C263 0.930 . S
C265 N266 1.334 . S
C265 C267 1.394 . S
C265 H269 0.930 . S
N266 Gd253 2.601 . S
N266 C256 1.359 . S
N266 C265 1.334 . S
C267 C265 1.394 . S
C267 C268 1.359 . S
C267 H279 0.930 . S
C268 C258 1.391 . S
C268 C267 1.359 . S
C268 H280 0.929 . S
H269 C265 0.930 . S
H270 C259 0.930 . S
H271 C288 0.930 . S
H272 C260 0.930 . S
H273 C261 0.930 . S
H274 C255 0.929 . S
H275 C293 0.930 . S
H276 C284 0.930 . S
H277 C285 0.930 . S
H278 C309 0.929 . S
H279 C267 0.930 . S
H280 C268 0.929 . S
H281 C310 0.930 . S
H282 C291 0.930 . S
N283 Gd252 2.661 . S
N283 C287 1.350 . S
N283 C288 1.307 . S
C284 H276 0.930 . S
C284 C285 1.355 . S
C284 C286 1.412 . S
C285 H277 0.930 . S
C285 C284 1.355 . S
C285 C288 1.402 . S
C286 C284 1.412 . S
C286 C287 1.417 . S
C286 C310 1.431 . S
C287 N283 1.350 . S
C287 C286 1.417 . S
C287 C290 1.426 . S
C288 H271 0.930 . S
C288 N283 1.307 . S
C288 C285 1.402 . S
N289 Gd252 2.601 . S
N289 C290 1.359 . S
N289 C293 1.334 . S
C290 C287 1.426 . S
C290 N289 1.359 . S
C290 C294 1.413 . S
C291 H282 0.930 . S
C291 C292 1.359 . S
C291 C293 1.394 . S
C292 C291 1.359 . S
C292 C294 1.391 . S
C292 H295 0.929 . S
C293 H275 0.930 . S
C293 N289 1.334 . S
C293 C291 1.394 . S
C294 C290 1.413 . S
C294 C292 1.391 . S
C294 C309 1.437 . S
H295 C292 0.929 . S
O296 Gd252 2.545 . S
O296 C311 1.258 . S
O297 Gd252 2.606 . S
O297 Gd253 2.362 1_554 S
O297 C308 1.284 . S
O298 Gd253 2.324 . S
O298 C318 1.254 . S
O299 Gd252 2.429 . S
O299 C318 1.268 1_554 S
O300 Gd252 2.545 . S
O300 C308 1.250 . S
O301 Gd252 2.412 . S
O301 C311 1.252 . S
O302 Gd253 2.545 . S
O302 C320 1.258 . S
O303 Gd252 2.362 1_556 S
O303 Gd253 2.606 . S
O303 C319 1.284 . S
O304 Gd252 2.324 . S
O304 C327 1.254 . S
O305 Gd253 2.419 1_554 S
O305 C327 1.283 . S
O306 Gd253 2.545 . S
O306 C319 1.250 . S
O307 Gd253 2.412 . S
O307 C320 1.252 . S
C308 O297 1.284 . S
C308 O300 1.250 . S
C309 H278 0.929 . S
C309 C294 1.437 . S
C309 C310 1.317 . S
C310 H281 0.930 . S
C310 C286 1.431 . S
C310 C309 1.317 . S
C311 Gd252 2.828 . S
C311 O296 1.258 . S
C311 O301 1.252 . S
C311 C312 1.497 . S
C312 C311 1.497 . S
C312 C313 1.395 . S
C312 C314 1.380 . S
C313 C312 1.395 . S
C313 C316 1.398 . S
C313 H328 0.930 . S
C314 C312 1.380 . S
C314 C315 1.391 . S
C314 H329 0.930 . S
C315 C314 1.391 . S
C315 C317 1.387 . S
C316 C313 1.398 . S
C316 C317 1.380 . S
C316 H330 0.930 . S
C317 C315 1.387 . S
C317 C316 1.380 . S
C317 H331 0.930 . S
C318 O298 1.254 . S
C318 O299 1.268 1_556 S
C319 O303 1.284 . S
C319 O306 1.250 . S
C320 Gd253 2.828 . S
C320 O302 1.258 . S
C320 O307 1.252 . S
C320 C321 1.497 . S
C321 C320 1.497 . S
C321 C322 1.395 . S
C321 C323 1.380 . S
C322 C321 1.395 . S
C322 C325 1.398 . S
C322 H332 0.930 . S
C323 C321 1.380 . S
C323 C324 1.391 . S
C323 H333 0.930 . S
C324 C323 1.391 . S
C324 C326 1.387 . S
C325 C322 1.398 . S
C325 C326 1.380 . S
C325 H334 0.930 . S
C326 C324 1.387 . S
C326 C325 1.380 . S
C326 H335 0.930 . S
C327 O304 1.254 . S
C327 O305 1.283 . S
H328 C313 0.930 . S
H329 C314 0.930 . S
H330 C316 0.930 . S
H331 C317 0.930 . S
H332 C322 0.930 . S
H333 C323 0.930 . S
H334 C325 0.930 . S
H335 C326 0.930 . S
Gd336 N367 2.661 . S
Gd336 N373 2.601 . S
Gd336 O380 2.545 . S
Gd336 O381 2.606 . S
Gd336 O383 2.429 . S
Gd336 O384 2.545 . S
Gd336 O385 2.412 . S
Gd336 O387 2.362 . S
Gd336 O388 2.324 . S
Gd336 C395 2.828 . S
Gd337 N346 2.661 . S
Gd337 N350 2.601 . S
Gd337 O381 2.362 . S
Gd337 O382 2.324 . S
Gd337 O386 2.545 . S
Gd337 O387 2.606 . S
Gd337 O389 2.429 . S
Gd337 O390 2.545 . S
Gd337 O391 2.412 . S
Gd337 C404 2.828 . S
C338 C341 1.417 . S
C338 C343 1.431 . S
C338 C344 1.412 . S
C339 C342 1.437 . S
C339 C343 1.317 . S
C339 H358 0.929 . S
C340 C341 1.426 . S
C340 C342 1.413 . S
C340 N350 1.359 . S
C341 C338 1.417 . S
C341 C340 1.426 . S
C341 N346 1.350 . S
C342 C339 1.437 . S
C342 C340 1.413 . S
C342 C352 1.391 . S
C343 C338 1.431 . S
C343 C339 1.317 . S
C343 H354 0.930 . S
C344 C338 1.412 . S
C344 C345 1.355 . S
C344 H356 0.930 . S
C345 C344 1.355 . S
C345 C347 1.402 . S
C345 H357 0.930 . S
N346 Gd337 2.661 . S
N346 C341 1.350 . S
N346 C347 1.307 . S
C347 C345 1.402 . S
C347 N346 1.307 . S
C347 H348 0.930 . S
H348 C347 0.930 . S
C349 N350 1.334 . S
C349 C351 1.394 . S
C349 H353 0.930 . S
N350 Gd337 2.601 . S
N350 C340 1.359 . S
N350 C349 1.334 . S
C351 C349 1.394 . S
C351 C352 1.359 . S
C351 H363 0.930 . S
C352 C342 1.391 . S
C352 C351 1.359 . S
C352 H364 0.929 . S
H353 C349 0.930 . S
H354 C343 0.930 . S
H355 C372 0.930 . S
H356 C344 0.930 . S
H357 C345 0.930 . S
H358 C339 0.929 . S
H359 C377 0.930 . S
H360 C368 0.930 . S
H361 C369 0.930 . S
H362 C393 0.929 . S
H363 C351 0.930 . S
H364 C352 0.929 . S
H365 C394 0.930 . S
H366 C375 0.930 . S
N367 Gd336 2.661 . S
N367 C371 1.350 . S
N367 C372 1.307 . S
C368 H360 0.930 . S
C368 C369 1.355 . S
C368 C370 1.412 . S
C369 H361 0.930 . S
C369 C368 1.355 . S
C369 C372 1.402 . S
C370 C368 1.412 . S
C370 C371 1.417 . S
C370 C394 1.431 . S
C371 N367 1.350 . S
C371 C370 1.417 . S
C371 C374 1.426 . S
C372 H355 0.930 . S
C372 N367 1.307 . S
C372 C369 1.402 . S
N373 Gd336 2.601 . S
N373 C374 1.359 . S
N373 C377 1.334 . S
C374 C371 1.426 . S
C374 N373 1.359 . S
C374 C378 1.413 . S
C375 H366 0.930 . S
C375 C376 1.359 . S
C375 C377 1.394 . S
C376 C375 1.359 . S
C376 C378 1.391 . S
C376 H379 0.929 . S
C377 H359 0.930 . S
C377 N373 1.334 . S
C377 C375 1.394 . S
C378 C374 1.413 . S
C378 C376 1.391 . S
C378 C393 1.437 . S
H379 C376 0.929 . S
O380 Gd336 2.545 . S
O380 C395 1.258 . S
O381 Gd336 2.606 . S
O381 Gd337 2.362 . S
O381 C392 1.284 . S
O382 Gd337 2.324 . S
O382 C402 1.254 . S
O383 Gd336 2.429 . S
O383 C402 1.268 . S
O384 Gd336 2.545 . S
O384 C392 1.250 . S
O385 Gd336 2.412 . S
O385 C395 1.252 . S
O386 Gd337 2.545 . S
O386 C404 1.258 . S
O387 Gd336 2.362 . S
O387 Gd337 2.606 . S
O387 C403 1.284 . S
O388 Gd336 2.324 . S
O388 C411 1.254 . S
O389 Gd337 2.429 . S
O389 C411 1.268 . S
O390 Gd337 2.545 . S
O390 C403 1.250 . S
O391 Gd337 2.412 . S
O391 C404 1.252 . S
C392 O381 1.284 . S
C392 O384 1.250 . S
C393 H362 0.929 . S
C393 C378 1.437 . S
C393 C394 1.317 . S
C394 H365 0.930 . S
C394 C370 1.431 . S
C394 C393 1.317 . S
C395 Gd336 2.828 . S
C395 O380 1.258 . S
C395 O385 1.252 . S
C395 C396 1.497 . S
C396 C395 1.497 . S
C396 C397 1.395 . S
C396 C398 1.380 . S
C397 C396 1.395 . S
C397 C400 1.398 . S
C397 H412 0.930 . S
C398 C396 1.380 . S
C398 C399 1.391 . S
C398 H413 0.930 . S
C399 C398 1.391 . S
C399 C401 1.387 . S
C400 C397 1.398 . S
C400 C401 1.380 . S
C400 H414 0.930 . S
C401 C399 1.387 . S
C401 C400 1.380 . S
C401 H415 0.930 . S
C402 O382 1.254 . S
C402 O383 1.268 . S
C403 O387 1.284 . S
C403 O390 1.250 . S
C404 Gd337 2.828 . S
C404 O386 1.258 . S
C404 O391 1.252 . S
C404 C405 1.497 . S
C405 C404 1.497 . S
C405 C406 1.395 . S
C405 C407 1.380 . S
C406 C405 1.395 . S
C406 C409 1.398 . S
C406 H416 0.930 . S
C407 C405 1.380 . S
C407 C408 1.391 . S
C407 H417 0.930 . S
C408 C407 1.391 . S
C408 C410 1.387 . S
C409 C406 1.398 . S
C409 C410 1.380 . S
C409 H418 0.930 . S
C410 C408 1.387 . S
C410 C409 1.380 . S
C410 H419 0.930 . S
C411 O388 1.254 . S
C411 O389 1.268 . S
H412 C397 0.930 . S
H413 C398 0.930 . S
H414 C400 0.930 . S
H415 C401 0.930 . S
H416 C406 0.930 . S
H417 C407 0.930 . S
H418 C409 0.930 . S
H419 C410 0.930 . S
Gd420 N451 2.661 . S
Gd420 N457 2.601 . S
Gd420 O464 2.545 . S
Gd420 O465 2.606 . S
Gd420 O467 2.429 . S
Gd420 O468 2.545 . S
Gd420 O469 2.412 . S
Gd420 O471 2.362 . S
Gd420 O472 2.324 . S
Gd420 C479 2.828 . S
Gd421 N430 2.661 . S
Gd421 N434 2.601 . S
Gd421 O465 2.362 . S
Gd421 O466 2.324 . S
Gd421 O470 2.545 . S
Gd421 O471 2.606 . S
Gd421 O473 2.429 . S
Gd421 O474 2.545 . S
Gd421 O475 2.412 . S
Gd421 C488 2.828 . S
C422 C425 1.417 . S
C422 C427 1.431 . S
C422 C428 1.412 . S
C423 C426 1.437 . S
C423 C427 1.317 . S
C423 H442 0.929 . S
C424 C425 1.426 . S
C424 C426 1.413 . S
C424 N434 1.359 . S
C425 C422 1.417 . S
C425 C424 1.426 . S
C425 N430 1.350 . S
C426 C423 1.437 . S
C426 C424 1.413 . S
C426 C436 1.391 . S
C427 C422 1.431 . S
C427 C423 1.317 . S
C427 H438 0.930 . S
C428 C422 1.412 . S
C428 C429 1.355 . S
C428 H440 0.930 . S
C429 C428 1.355 . S
C429 C431 1.402 . S
C429 H441 0.930 . S
N430 Gd421 2.661 . S
N430 C425 1.350 . S
N430 C431 1.307 . S
C431 C429 1.402 . S
C431 N430 1.307 . S
C431 H432 0.930 . S
H432 C431 0.930 . S
C433 N434 1.334 . S
C433 C435 1.394 . S
C433 H437 0.930 . S
N434 Gd421 2.601 . S
N434 C424 1.359 . S
N434 C433 1.334 . S
C435 C433 1.394 . S
C435 C436 1.359 . S
C435 H447 0.930 . S
C436 C426 1.391 . S
C436 C435 1.359 . S
C436 H448 0.929 . S
H437 C433 0.930 . S
H438 C427 0.930 . S
H439 C456 0.930 . S
H440 C428 0.930 . S
H441 C429 0.930 . S
H442 C423 0.929 . S
H443 C461 0.930 . S
H444 C452 0.930 . S
H445 C453 0.930 . S
H446 C477 0.929 . S
H447 C435 0.930 . S
H448 C436 0.929 . S
H449 C478 0.930 . S
H450 C459 0.930 . S
N451 Gd420 2.661 . S
N451 C455 1.350 . S
N451 C456 1.307 . S
C452 H444 0.930 . S
C452 C453 1.355 . S
C452 C454 1.412 . S
C453 H445 0.930 . S
C453 C452 1.355 . S
C453 C456 1.402 . S
C454 C452 1.412 . S
C454 C455 1.417 . S
C454 C478 1.431 . S
C455 N451 1.350 . S
C455 C454 1.417 . S
C455 C458 1.426 . S
C456 H439 0.930 . S
C456 N451 1.307 . S
C456 C453 1.402 . S
N457 Gd420 2.601 . S
N457 C458 1.359 . S
N457 C461 1.334 . S
C458 C455 1.426 . S
C458 N457 1.359 . S
C458 C462 1.413 . S
C459 H450 0.930 . S
C459 C460 1.359 . S
C459 C461 1.394 . S
C460 C459 1.359 . S
C460 C462 1.391 . S
C460 H463 0.929 . S
C461 H443 0.930 . S
C461 N457 1.334 . S
C461 C459 1.394 . S
C462 C458 1.413 . S
C462 C460 1.391 . S
C462 C477 1.437 . S
H463 C460 0.929 . S
O464 Gd420 2.545 . S
O464 C479 1.258 . S
O465 Gd420 2.606 . S
O465 Gd421 2.362 . S
O465 C476 1.284 . S
O466 Gd421 2.324 . S
O466 C486 1.254 . S
O467 Gd420 2.429 . S
O467 C486 1.268 . S
O468 Gd420 2.545 . S
O468 C476 1.250 . S
O469 Gd420 2.412 . S
O469 C479 1.252 . S
O470 Gd421 2.545 . S
O470 C488 1.258 . S
O471 Gd420 2.362 . S
O471 Gd421 2.606 . S
O471 C487 1.284 . S
O472 Gd420 2.324 . S
O472 C495 1.254 . S
O473 Gd421 2.429 . S
O473 C495 1.268 . S
O474 Gd421 2.545 . S
O474 C487 1.250 . S
O475 Gd421 2.412 . S
O475 C488 1.252 . S
C476 O465 1.284 . S
C476 O468 1.250 . S
C477 H446 0.929 . S
C477 C462 1.437 . S
C477 C478 1.317 . S
C478 H449 0.930 . S
C478 C454 1.431 . S
C478 C477 1.317 . S
C479 Gd420 2.828 . S
C479 O464 1.258 . S
C479 O469 1.252 . S
C479 C480 1.497 . S
C480 C479 1.497 . S
C480 C481 1.395 . S
C480 C482 1.380 . S
C481 C480 1.395 . S
C481 C484 1.398 . S
C481 H496 0.930 . S
C482 C480 1.380 . S
C482 C483 1.391 . S
C482 H497 0.930 . S
C483 C482 1.391 . S
C483 C485 1.387 . S
C484 C481 1.398 . S
C484 C485 1.380 . S
C484 H498 0.930 . S
C485 C483 1.387 . S
C485 C484 1.380 . S
C485 H499 0.930 . S
C486 O466 1.254 . S
C486 O467 1.268 . S
C487 O471 1.284 . S
C487 O474 1.250 . S
C488 Gd421 2.828 . S
C488 O470 1.258 . S
C488 O475 1.252 . S
C488 C489 1.497 . S
C489 C488 1.497 . S
C489 C490 1.395 . S
C489 C491 1.380 . S
C490 C489 1.395 . S
C490 C493 1.398 . S
C490 H500 0.930 . S
C491 C489 1.380 . S
C491 C492 1.391 . S
C491 H501 0.930 . S
C492 C491 1.391 . S
C492 C494 1.387 . S
C493 C490 1.398 . S
C493 C494 1.380 . S
C493 H502 0.930 . S
C494 C492 1.387 . S
C494 C493 1.380 . S
C494 H503 0.930 . S
C495 O472 1.254 . S
C495 O473 1.268 . S
H496 C481 0.930 . S
H497 C482 0.930 . S
H498 C484 0.930 . S
H499 C485 0.930 . S
H500 C490 0.930 . S
H501 C491 0.930 . S
H502 C493 0.930 . S
H503 C494 0.930 . S
H504 C522 0.951 . S
H505 C524 0.951 . S
H506 C526 0.950 . S
H507 C527 0.950 . S
H508 C529 0.950 . S
H509 C532 0.950 . S
H510 C533 0.950 . S
H511 C535 0.950 . S
H512 C536 0.950 . S
H513 C537 0.951 . S
H514 C539 0.951 . S
H515 C541 0.950 . S
H516 C542 0.950 . S
H517 C544 0.950 . S
H518 C547 0.950 . S
H519 C548 0.950 . S
H520 C550 0.950 . S
H521 C551 0.950 . S
C522 H504 0.951 . S
C522 C523 1.366 . S
C522 C524 1.388 . S
C523 C522 1.366 . S
C523 C527 1.385 . S
C524 H505 0.951 . S
C524 C522 1.388 . S
C524 C525 1.366 . S
C525 C524 1.366 . S
C525 C526 1.414 . S
C525 C528 1.499 . S
C526 H506 0.950 . S
C526 C525 1.414 . S
C526 C527 1.374 . S
C527 H507 0.950 . S
C527 C523 1.385 . S
C527 C526 1.374 . S
C528 C525 1.499 . S
C528 C529 1.373 . S
C528 C530 1.389 . S
C529 H508 0.950 . S
C529 C528 1.373 . S
C529 C545 1.377 . S
C530 C528 1.389 . S
C530 C531 1.524 . S
C530 C544 1.377 . S
C531 C530 1.524 . S
C531 C532 1.397 . S
C531 C536 1.363 . S
C532 H509 0.950 . S
C532 C531 1.397 . S
C532 C533 1.334 . S
C533 H510 0.950 . S
C533 C532 1.334 . S
C533 C534 1.287 . S
C534 C533 1.287 . S
C534 C535 1.524 . S
C534 H553 0.913 . S
C535 H511 0.950 . S
C535 C534 1.524 . S
C535 C536 1.415 . S
C536 H512 0.950 . S
C536 C531 1.363 . S
C536 C535 1.415 . S
C537 H513 0.951 . S
C537 C538 1.366 . S
C537 C539 1.388 . S
C538 C537 1.366 . S
C538 C542 1.385 . S
C539 H514 0.951 . S
C539 C537 1.388 . S
C539 C540 1.366 . S
C540 C539 1.366 . S
C540 C541 1.414 . S
C540 C543 1.499 . S
C541 H515 0.950 . S
C541 C540 1.414 . S
C541 C542 1.374 . S
C542 H516 0.950 . S
C542 C538 1.385 . S
C542 C541 1.374 . S
C543 C540 1.499 . S
C543 C544 1.373 . S
C543 C545 1.389 . S
C544 H517 0.950 . S
C544 C530 1.377 . S
C544 C543 1.373 . S
C545 C529 1.377 . S
C545 C543 1.389 . S
C545 C546 1.524 . S
C546 C545 1.524 . S
C546 C547 1.397 . S
C546 C551 1.363 . S
C547 H518 0.950 . S
C547 C546 1.397 . S
C547 C548 1.334 . S
C548 H519 0.950 . S
C548 C547 1.334 . S
C548 C549 1.287 . S
C549 C548 1.287 . S
C549 C550 1.524 . S
C549 H552 0.999 . S
C550 H520 0.950 . S
C550 C549 1.524 . S
C550 C551 1.415 . S
C551 H521 0.950 . S
C551 C546 1.363 . S
C551 C550 1.415 . S
H552 C549 0.999 . S
H553 C534 0.913 . S
H554 C572 0.951 . S
H555 C574 0.951 . S
H556 C576 0.950 . S
H557 C577 0.950 . S
H558 C579 0.950 . S
H559 C582 0.950 . S
H560 C583 0.953 1_556 S
H561 C585 0.950 . S
H562 C586 0.950 1_655 S
H563 C587 0.951 . S
H564 C589 0.951 . S
H565 C591 0.950 . S
H566 C592 0.950 . S
H567 C594 0.950 . S
H568 C597 0.950 . S
H569 C598 0.950 . S
H570 C600 0.950 . S
H571 C601 0.950 . S
C572 H554 0.951 . S
C572 C573 1.366 . S
C572 C574 1.388 . S
C573 C572 1.366 . S
C573 C577 1.385 . S
C574 H555 0.951 . S
C574 C572 1.388 . S
C574 C575 1.366 . S
C575 C574 1.366 . S
C575 C576 1.414 . S
C575 C578 1.499 . S
C576 H556 0.950 . S
C576 C575 1.414 . S
C576 C577 1.374 . S
C577 H557 0.950 . S
C577 C573 1.385 . S
C577 C576 1.374 . S
C578 C575 1.499 . S
C578 C579 1.373 . S
C578 C580 1.389 . S
C579 H558 0.950 . S
C579 C578 1.373 . S
C579 C595 1.377 1_455 S
C580 C578 1.389 . S
C580 C581 1.524 . S
C580 C594 1.377 1_455 S
C581 C580 1.524 . S
C581 C582 1.397 . S
C581 C586 1.363 . S
C582 H559 0.950 . S
C582 C581 1.397 . S
C582 C583 1.334 . S
C583 H560 0.953 1_554 S
C583 C582 1.334 . S
C583 C584 1.287 . S
C584 C583 1.287 . S
C584 C585 1.524 . S
C584 H603 0.913 . S
C585 H561 0.950 . S
C585 C584 1.524 . S
C585 C586 1.415 . S
C586 H562 0.950 1_455 S
C586 C581 1.363 . S
C586 C585 1.415 . S
C587 H563 0.951 . S
C587 C588 1.366 . S
C587 C589 1.388 . S
C588 C587 1.366 . S
C588 C592 1.385 . S
C589 H564 0.951 . S
C589 C587 1.388 . S
C589 C590 1.366 . S
C590 C589 1.366 . S
C590 C591 1.414 . S
C590 C593 1.499 . S
C591 H565 0.950 . S
C591 C590 1.414 . S
C591 C592 1.374 . S
C592 H566 0.950 . S
C592 C588 1.385 . S
C592 C591 1.374 . S
C593 C590 1.499 . S
C593 C594 1.373 . S
C593 C595 1.389 . S
C594 H567 0.950 . S
C594 C580 1.377 1_655 S
C594 C593 1.373 . S
C595 C579 1.377 1_655 S
C595 C593 1.389 . S
C595 C596 1.524 . S
C596 C595 1.524 . S
C596 C597 1.397 . S
C596 C601 1.363 . S
C597 H568 0.950 . S
C597 C596 1.397 . S
C597 C598 1.334 . S
C598 H569 0.950 . S
C598 C597 1.334 . S
C598 C599 1.287 . S
C599 C598 1.287 . S
C599 C600 1.524 . S
C599 H602 0.999 . S
C600 H570 0.950 . S
C600 C599 1.524 . S
C600 C601 1.415 . S
C601 H571 0.950 . S
C601 C596 1.363 . S
C601 C600 1.415 . S
H602 C599 0.999 . S
H603 C584 0.913 . S
H604 C622 0.951 . S
H605 C624 0.951 . S
H606 C626 0.950 . S
H607 C627 0.950 . S
H608 C629 0.950 . S
H609 C632 0.950 . S
H610 C633 0.950 . S
H611 C635 0.950 . S
H612 C636 0.950 . S
H613 C637 0.951 . S
H614 C639 0.951 . S
H615 C641 0.950 . S
H616 C642 0.950 . S
H617 C644 0.950 . S
H618 C647 0.950 . S
H619 C648 0.950 . S
H620 C650 0.950 . S
H621 C651 0.950 . S
C622 H604 0.951 . S
C622 C623 1.366 . S
C622 C624 1.388 . S
C623 C622 1.366 . S
C623 C627 1.385 . S
C624 H605 0.951 . S
C624 C622 1.388 . S
C624 C625 1.366 . S
C625 C624 1.366 . S
C625 C626 1.414 . S
C625 C628 1.499 . S
C626 H606 0.950 . S
C626 C625 1.414 . S
C626 C627 1.374 . S
C627 H607 0.950 . S
C627 C623 1.385 . S
C627 C626 1.374 . S
C628 C625 1.499 . S
C628 C629 1.373 1_545 S
C628 C630 1.389 . S
C629 H608 0.950 . S
C629 C628 1.373 1_565 S
C629 C645 1.377 . S
C630 C628 1.389 . S
C630 C631 1.524 . S
C630 C644 1.377 1_545 S
C631 C630 1.524 . S
C631 C632 1.397 . S
C631 C636 1.363 . S
C632 H609 0.950 . S
C632 C631 1.397 . S
C632 C633 1.334 . S
C633 H610 0.950 . S
C633 C632 1.334 . S
C633 C634 1.287 . S
C634 C633 1.287 . S
C634 C635 1.524 . S
C634 H653 0.913 . S
C635 H611 0.950 . S
C635 C634 1.524 . S
C635 C636 1.415 . S
C636 H612 0.950 . S
C636 C631 1.363 . S
C636 C635 1.415 . S
C637 H613 0.951 . S
C637 C638 1.366 . S
C637 C639 1.388 . S
C638 C637 1.366 . S
C638 C642 1.385 . S
C639 H614 0.951 . S
C639 C637 1.388 . S
C639 C640 1.366 . S
C640 C639 1.366 . S
C640 C641 1.414 . S
C640 C643 1.499 . S
C641 H615 0.950 . S
C641 C640 1.414 . S
C641 C642 1.374 . S
C642 H616 0.950 . S
C642 C638 1.385 . S
C642 C641 1.374 . S
C643 C640 1.499 . S
C643 C644 1.373 . S
C643 C645 1.389 . S
C644 H617 0.950 . S
C644 C630 1.377 1_565 S
C644 C643 1.373 . S
C645 C629 1.377 . S
C645 C643 1.389 . S
C645 C646 1.524 . S
C646 C645 1.524 . S
C646 C647 1.397 . S
C646 C651 1.363 . S
C647 H618 0.950 . S
C647 C646 1.397 . S
C647 C648 1.334 . S
C648 H619 0.950 . S
C648 C647 1.334 . S
C648 C649 1.287 . S
C649 C648 1.287 . S
C649 C650 1.524 . S
C649 H652 0.999 . S
C650 H620 0.950 . S
C650 C649 1.524 . S
C650 C651 1.415 . S
C651 H621 0.950 . S
C651 C646 1.363 . S
C651 C650 1.415 . S
H652 C649 0.999 . S
H653 C634 0.913 . S
H654 C672 0.951 . S
H655 C674 0.951 . S
H656 C676 0.950 . S
H657 C677 0.950 . S
H658 C679 0.950 . S
H659 C682 0.950 . S
H660 C683 0.950 . S
H661 C685 0.950 . S
H662 C686 0.950 . S
H663 C687 0.951 . S
H664 C689 0.951 . S
H665 C691 0.950 . S
H666 C692 0.950 . S
H667 C694 0.950 . S
H668 C697 0.950 . S
H669 C698 0.950 . S
H670 C700 0.950 . S
H671 C701 0.950 . S
C672 H654 0.951 . S
C672 C673 1.366 . S
C672 C674 1.388 . S
C673 C672 1.366 . S
C673 C677 1.385 . S
C674 H655 0.951 . S
C674 C672 1.388 . S
C674 C675 1.366 . S
C675 C674 1.366 . S
C675 C676 1.414 . S
C675 C678 1.499 . S
C676 H656 0.950 . S
C676 C675 1.414 . S
C676 C677 1.374 . S
C677 H657 0.950 . S
C677 C673 1.385 . S
C677 C676 1.374 . S
C678 C675 1.499 . S
C678 C679 1.373 . S
C678 C680 1.389 . S
C679 H658 0.950 . S
C679 C678 1.373 . S
C679 C695 1.377 . S
C680 C678 1.389 . S
C680 C681 1.524 . S
C680 C694 1.377 . S
C681 C680 1.524 . S
C681 C682 1.397 . S
C681 C686 1.363 . S
C682 H659 0.950 . S
C682 C681 1.397 . S
C682 C683 1.334 . S
C683 H660 0.950 . S
C683 C682 1.334 . S
C683 C684 1.287 . S
C684 C683 1.287 . S
C684 C685 1.524 . S
C684 H703 0.913 . S
C685 H661 0.950 . S
C685 C684 1.524 . S
C685 C686 1.415 . S
C686 H662 0.950 . S
C686 C681 1.363 . S
C686 C685 1.415 . S
C687 H663 0.951 . S
C687 C688 1.366 . S
C687 C689 1.388 . S
C688 C687 1.366 . S
C688 C692 1.385 . S
C689 H664 0.951 . S
C689 C687 1.388 . S
C689 C690 1.366 . S
C690 C689 1.366 . S
C690 C691 1.414 . S
C690 C693 1.499 . S
C691 H665 0.950 . S
C691 C690 1.414 . S
C691 C692 1.374 . S
C692 H666 0.950 . S
C692 C688 1.385 . S
C692 C691 1.374 . S
C693 C690 1.499 . S
C693 C694 1.373 . S
C693 C695 1.389 . S
C694 H667 0.950 . S
C694 C680 1.377 . S
C694 C693 1.373 . S
C695 C679 1.377 . S
C695 C693 1.389 . S
C695 C696 1.524 . S
C696 C695 1.524 . S
C696 C697 1.397 . S
C696 C701 1.363 . S
C697 H668 0.950 . S
C697 C696 1.397 . S
C697 C698 1.334 . S
C698 H669 0.950 . S
C698 C697 1.334 . S
C698 C699 1.287 . S
C699 C698 1.287 . S
C699 C700 1.524 . S
C699 H702 0.999 . S
C700 H670 0.950 . S
C700 C699 1.524 . S
C700 C701 1.415 . S
C701 H671 0.950 . S
C701 C696 1.363 . S
C701 C700 1.415 . S
H702 C699 0.999 . S
H703 C684 0.913 . S
H704 C722 0.951 . S
H705 C724 0.951 . S
H706 C726 0.950 . S
H707 C727 0.950 . S
H708 C729 0.950 . S
H709 C732 0.950 . S
H710 C733 0.950 . S
H711 C735 0.950 . S
H712 C736 0.950 . S
H713 C737 0.951 . S
H714 C739 0.951 . S
H715 C741 0.950 . S
H716 C742 0.950 . S
H717 C744 0.950 . S
H718 C747 0.950 . S
H719 C748 0.950 . S
H720 C750 0.950 1_556 S
H721 C751 0.950 . S
C722 H704 0.951 . S
C722 C723 1.366 . S
C722 C724 1.388 . S
C723 C722 1.366 . S
C723 C727 1.385 . S
C724 H705 0.951 . S
C724 C722 1.388 . S
C724 C725 1.366 . S
C725 C724 1.366 . S
C725 C726 1.414 . S
C725 C728 1.499 . S
C726 H706 0.950 . S
C726 C725 1.414 . S
C726 C727 1.374 . S
C727 H707 0.950 . S
C727 C723 1.385 . S
C727 C726 1.374 . S
C728 C725 1.499 . S
C728 C729 1.373 . S
C728 C730 1.389 . S
C729 H708 0.950 . S
C729 C728 1.373 . S
C729 C745 1.377 . S
C730 C728 1.389 . S
C730 C731 1.529 1_455 S
C730 C744 1.377 1_455 S
C731 C730 1.529 1_655 S
C731 C732 1.363 1_655 S
C731 C736 1.393 . S
C732 H709 0.950 . S
C732 C731 1.363 1_455 S
C732 C733 1.334 . S
C733 H710 0.950 . S
C733 C732 1.334 . S
C733 C734 1.287 1_455 S
C734 C733 1.287 1_655 S
C734 C735 1.524 . S
C734 H753 0.913 . S
C735 H711 0.950 . S
C735 C734 1.524 . S
C735 C736 1.415 . S
C736 H712 0.950 . S
C736 C731 1.393 . S
C736 C735 1.415 . S
C737 H713 0.951 . S
C737 C738 1.366 . S
C737 C739 1.388 . S
C738 C737 1.366 . S
C738 C742 1.385 . S
C739 H714 0.951 . S
C739 C737 1.388 . S
C739 C740 1.366 . S
C740 C739 1.366 . S
C740 C741 1.414 . S
C740 C743 1.499 . S
C741 H715 0.950 . S
C741 C740 1.414 . S
C741 C742 1.374 . S
C742 H716 0.950 . S
C742 C738 1.385 . S
C742 C741 1.374 . S
C743 C740 1.499 . S
C743 C744 1.373 . S
C743 C745 1.389 1_655 S
C744 H717 0.950 . S
C744 C730 1.377 1_655 S
C744 C743 1.373 . S
C745 C729 1.377 . S
C745 C743 1.389 1_455 S
C745 C746 1.524 . S
C746 C745 1.524 . S
C746 C747 1.397 1_455 S
C746 C751 1.363 . S
C747 H718 0.950 . S
C747 C746 1.397 1_655 S
C747 C748 1.334 . S
C748 H719 0.950 . S
C748 C747 1.334 . S
C748 C749 1.275 1_654 S
C749 C748 1.275 1_456 S
C749 C750 1.522 1_556 S
C749 H752 1.015 . S
C750 H720 0.950 1_554 S
C750 C749 1.522 1_554 S
C750 C751 1.415 . S
C751 H721 0.950 . S
C751 C746 1.363 . S
C751 C750 1.415 . S
H752 C749 1.015 . S
H753 C734 0.913 . S
H754 C772 0.951 . S
H755 C774 0.951 . S
H756 C776 0.950 . S
H757 C777 0.950 . S
H758 C779 0.950 . S
H759 C782 0.950 . S
H760 C783 0.950 . S
H761 C785 0.950 . S
H762 C786 0.950 . S
H763 C787 0.951 . S
H764 C789 0.951 . S
H765 C791 0.950 . S
H766 C792 0.950 . S
H767 C794 0.950 . S
H768 C797 0.950 . S
H769 C798 0.950 . S
H770 C800 0.950 . S
H771 C801 0.950 . S
C772 H754 0.951 . S
C772 C773 1.366 . S
C772 C774 1.388 . S
C773 C772 1.366 . S
C773 C777 1.385 . S
C774 H755 0.951 . S
C774 C772 1.388 . S
C774 C775 1.366 . S
C775 C774 1.366 . S
C775 C776 1.414 . S
C775 C778 1.499 . S
C776 H756 0.950 . S
C776 C775 1.414 . S
C776 C777 1.374 . S
C777 H757 0.950 . S
C777 C773 1.385 . S
C777 C776 1.374 . S
C778 C775 1.499 . S
C778 C779 1.373 . S
C778 C780 1.389 . S
C779 H758 0.950 . S
C779 C778 1.373 . S
C779 C795 1.377 1_545 S
C780 C778 1.389 . S
C780 C781 1.524 . S
C780 C794 1.377 1_545 S
C781 C780 1.524 . S
C781 C782 1.397 . S
C781 C786 1.363 . S
C782 H759 0.950 . S
C782 C781 1.397 . S
C782 C783 1.334 . S
C783 H760 0.950 . S
C783 C782 1.334 . S
C783 C784 1.287 . S
C784 C783 1.287 . S
C784 C785 1.524 . S
C784 H803 0.913 . S
C785 H761 0.950 . S
C785 C784 1.524 . S
C785 C786 1.415 . S
C786 H762 0.950 . S
C786 C781 1.363 . S
C786 C785 1.415 . S
C787 H763 0.951 . S
C787 C788 1.366 . S
C787 C789 1.388 . S
C788 C787 1.366 . S
C788 C792 1.385 . S
C789 H764 0.951 . S
C789 C787 1.388 . S
C789 C790 1.366 . S
C790 C789 1.366 . S
C790 C791 1.414 . S
C790 C793 1.499 . S
C791 H765 0.950 . S
C791 C790 1.414 . S
C791 C792 1.374 . S
C792 H766 0.950 . S
C792 C788 1.385 . S
C792 C791 1.374 . S
C793 C790 1.499 . S
C793 C794 1.373 . S
C793 C795 1.389 . S
C794 H767 0.950 . S
C794 C780 1.377 1_565 S
C794 C793 1.373 . S
C795 C779 1.377 1_565 S
C795 C793 1.389 . S
C795 C796 1.524 . S
C796 C795 1.524 . S
C796 C797 1.397 . S
C796 C801 1.363 . S
C797 H768 0.950 . S
C797 C796 1.397 . S
C797 C798 1.334 . S
C798 H769 0.950 . S
C798 C797 1.334 . S
C798 C799 1.287 . S
C799 C798 1.287 . S
C799 C800 1.524 . S
C799 H802 0.999 . S
C800 H770 0.950 . S
C800 C799 1.524 . S
C800 C801 1.415 . S
C801 H771 0.950 . S
C801 C796 1.363 . S
C801 C800 1.415 . S
H802 C799 0.999 . S
H803 C784 0.913 . S
H804 C822 0.951 . S
H805 C824 0.951 . S
H806 C826 0.950 . S
H807 C827 0.950 . S
H808 C829 0.950 . S
H809 C832 0.950 . S
H810 C833 0.950 . S
H811 C835 0.950 . S
H812 C836 0.950 . S
H813 C837 0.951 . S
H814 C839 0.951 . S
H815 C841 0.950 . S
H816 C842 0.950 . S
H817 C844 0.950 . S
H818 C847 0.950 . S
H819 C848 0.950 . S
H820 C850 0.950 . S
H821 C851 0.950 . S
C822 H804 0.951 . S
C822 C823 1.366 . S
C822 C824 1.388 . S
C823 C822 1.366 . S
C823 C827 1.385 . S
C824 H805 0.951 . S
C824 C822 1.388 . S
C824 C825 1.366 . S
C825 C824 1.366 . S
C825 C826 1.414 . S
C825 C828 1.499 . S
C826 H806 0.950 . S
C826 C825 1.414 . S
C826 C827 1.374 . S
C827 H807 0.950 . S
C827 C823 1.385 . S
C827 C826 1.374 . S
C828 C825 1.499 . S
C828 C829 1.373 . S
C828 C830 1.389 . S
C829 H808 0.950 . S
C829 C828 1.373 . S
C829 C845 1.377 . S
C830 C828 1.389 . S
C830 C831 1.524 . S
C830 C844 1.377 . S
C831 C830 1.524 . S
C831 C832 1.397 . S
C831 C836 1.363 . S
C832 H809 0.950 . S
C832 C831 1.397 . S
C832 C833 1.334 . S
C833 H810 0.950 . S
C833 C832 1.334 . S
C833 C834 1.287 . S
C834 C833 1.287 . S
C834 C835 1.524 . S
C834 H853 0.913 . S
C835 H811 0.950 . S
C835 C834 1.524 . S
C835 C836 1.415 . S
C836 H812 0.950 . S
C836 C831 1.363 . S
C836 C835 1.415 . S
C837 H813 0.951 . S
C837 C838 1.366 . S
C837 C839 1.388 . S
C838 C837 1.366 . S
C838 C842 1.385 . S
C839 H814 0.951 . S
C839 C837 1.388 . S
C839 C840 1.366 . S
C840 C839 1.366 . S
C840 C841 1.414 . S
C840 C843 1.499 . S
C841 H815 0.950 . S
C841 C840 1.414 . S
C841 C842 1.374 . S
C842 H816 0.950 . S
C842 C838 1.385 . S
C842 C841 1.374 . S
C843 C840 1.499 . S
C843 C844 1.373 . S
C843 C845 1.389 . S
C844 H817 0.950 . S
C844 C830 1.377 . S
C844 C843 1.373 . S
C845 C829 1.377 . S
C845 C843 1.389 . S
C845 C846 1.524 . S
C846 C845 1.524 . S
C846 C847 1.397 . S
C846 C851 1.363 . S
C847 H818 0.950 . S
C847 C846 1.397 . S
C847 C848 1.334 . S
C848 H819 0.950 . S
C848 C847 1.334 . S
C848 C849 1.287 . S
C849 C848 1.287 . S
C849 C850 1.524 . S
C849 H852 0.999 . S
C850 H820 0.950 . S
C850 C849 1.524 . S
C850 C851 1.415 . S
C851 H821 0.950 . S
C851 C846 1.363 . S
C851 C850 1.415 . S
H852 C849 0.999 . S
H853 C834 0.913 . S
H854 C872 0.947 1_554 S
H855 C874 0.951 . S
H856 C876 0.950 . S
H857 C877 0.950 . S
H858 C879 0.950 . S
H859 C882 0.950 . S
H860 C883 0.950 . S
H861 C885 0.950 . S
H862 C886 0.950 . S
H863 C887 0.951 . S
H864 C889 0.951 . S
H865 C891 0.950 . S
H866 C892 0.950 . S
H867 C894 0.950 . S
H868 C897 0.950 . S
H869 C898 0.950 . S
H870 C900 0.950 . S
H871 C901 0.950 . S
C872 H854 0.947 1_556 S
C872 C873 1.360 1_556 S
C872 C874 1.398 . S
C873 C872 1.360 1_554 S
C873 C877 1.385 . S
C874 H855 0.951 . S
C874 C872 1.398 . S
C874 C875 1.366 . S
C875 C874 1.366 . S
C875 C876 1.414 . S
C875 C878 1.499 . S
C876 H856 0.950 . S
C876 C875 1.414 . S
C876 C877 1.374 1_556 S
C877 H857 0.950 . S
C877 C873 1.385 . S
C877 C876 1.374 1_554 S
C878 C875 1.499 . S
C878 C879 1.373 . S
C878 C880 1.389 . S
C879 H858 0.950 . S
C879 C878 1.373 . S
C879 C895 1.377 . S
C880 C878 1.389 . S
C880 C881 1.524 . S
C880 C894 1.377 . S
C881 C880 1.524 . S
C881 C882 1.397 . S
C881 C886 1.363 . S
C882 H859 0.950 . S
C882 C881 1.397 . S
C882 C883 1.334 . S
C883 H860 0.950 . S
C883 C882 1.334 . S
C883 C884 1.287 . S
C884 C883 1.287 . S
C884 C885 1.524 . S
C884 H903 0.913 . S
C885 H861 0.950 . S
C885 C884 1.524 . S
C885 C886 1.415 . S
C886 H862 0.950 . S
C886 C881 1.363 . S
C886 C885 1.415 . S
C887 H863 0.951 . S
C887 C888 1.366 . S
C887 C889 1.388 . S
C888 C887 1.366 . S
C888 C892 1.385 . S
C889 H864 0.951 . S
C889 C887 1.388 . S
C889 C890 1.366 . S
C890 C889 1.366 . S
C890 C891 1.414 . S
C890 C893 1.499 . S
C891 H865 0.950 . S
C891 C890 1.414 . S
C891 C892 1.374 . S
C892 H866 0.950 . S
C892 C888 1.385 . S
C892 C891 1.374 . S
C893 C890 1.499 . S
C893 C894 1.373 . S
C893 C895 1.389 . S
C894 H867 0.950 . S
C894 C880 1.377 . S
C894 C893 1.373 . S
C895 C879 1.377 . S
C895 C893 1.389 . S
C895 C896 1.524 . S
C896 C895 1.524 . S
C896 C897 1.397 . S
C896 C901 1.363 . S
C897 H868 0.950 . S
C897 C896 1.397 . S
C897 C898 1.334 . S
C898 H869 0.950 . S
C898 C897 1.334 . S
C898 C899 1.287 . S
C899 C898 1.287 . S
C899 C900 1.524 . S
C899 H902 0.999 . S
C900 H870 0.950 . S
C900 C899 1.524 . S
C900 C901 1.415 . S
C901 H871 0.950 . S
C901 C896 1.363 . S
C901 C900 1.415 . S
H902 C899 0.999 . S
H903 C884 0.913 . S
H904 C922 0.951 . S
H905 C924 0.951 . S
H906 C926 0.950 . S
H907 C927 0.950 . S
H908 C929 0.950 . S
H909 C932 0.950 . S
H910 C933 0.950 . S
H911 C935 0.950 . S
H912 C936 0.950 . S
H913 C937 0.951 . S
H914 C939 0.951 . S
H915 C941 0.950 . S
H916 C942 0.950 1_556 S
H917 C944 0.950 . S
H918 C947 0.950 . S
H919 C948 0.950 . S
H920 C950 0.950 . S
H921 C951 0.950 . S
C922 H904 0.951 . S
C922 C923 1.366 . S
C922 C924 1.388 . S
C923 C922 1.366 . S
C923 C927 1.385 . S
C924 H905 0.951 . S
C924 C922 1.388 . S
C924 C925 1.366 . S
C925 C924 1.366 . S
C925 C926 1.414 . S
C925 C928 1.499 . S
C926 H906 0.950 . S
C926 C925 1.414 . S
C926 C927 1.374 . S
C927 H907 0.950 . S
C927 C923 1.385 . S
C927 C926 1.374 . S
C928 C925 1.499 . S
C928 C929 1.373 . S
C928 C930 1.389 . S
C929 H908 0.950 . S
C929 C928 1.373 . S
C929 C945 1.377 . S
C930 C928 1.389 . S
C930 C931 1.524 . S
C930 C944 1.377 . S
C931 C930 1.524 . S
C931 C932 1.397 . S
C931 C936 1.363 . S
C932 H909 0.950 . S
C932 C931 1.397 . S
C932 C933 1.334 . S
C933 H910 0.950 . S
C933 C932 1.334 . S
C933 C934 1.287 . S
C934 C933 1.287 . S
C934 C935 1.524 . S
C934 H953 0.913 . S
C935 H911 0.950 . S
C935 C934 1.524 . S
C935 C936 1.415 . S
C936 H912 0.950 . S
C936 C931 1.363 . S
C936 C935 1.415 . S
C937 H913 0.951 . S
C937 C938 1.366 . S
C937 C939 1.388 1_556 S
C938 C937 1.366 . S
C938 C942 1.385 1_556 S
C939 H914 0.951 . S
C939 C937 1.388 1_554 S
C939 C940 1.366 . S
C940 C939 1.366 . S
C940 C941 1.414 . S
C940 C943 1.499 . S
C941 H915 0.950 . S
C941 C940 1.414 . S
C941 C942 1.374 . S
C942 H916 0.950 1_554 S
C942 C938 1.385 1_554 S
C942 C941 1.374 . S
C943 C940 1.499 . S
C943 C944 1.373 . S
C943 C945 1.389 . S
C944 H917 0.950 . S
C944 C930 1.377 . S
C944 C943 1.373 . S
C945 C929 1.377 . S
C945 C943 1.389 . S
C945 C946 1.524 . S
C946 C945 1.524 . S
C946 C947 1.397 . S
C946 C951 1.363 . S
C947 H918 0.950 . S
C947 C946 1.397 . S
C947 C948 1.334 . S
C948 H919 0.950 . S
C948 C947 1.334 . S
C948 C949 1.287 . S
C949 C948 1.287 . S
C949 C950 1.524 . S
C949 H952 0.999 . S
C950 H920 0.950 . S
C950 C949 1.524 . S
C950 C951 1.415 . S
C951 H921 0.950 . S
C951 C946 1.363 . S
C951 C950 1.415 . S
H952 C949 0.999 . S
H953 C934 0.913 . S
H954 C972 0.951 . S
H955 C974 0.951 . S
H956 C976 0.950 . S
H957 C977 0.950 . S
H958 C979 0.950 . S
H959 C982 0.950 . S
H960 C983 0.950 . S
H961 C985 0.950 . S
H962 C986 0.950 . S
H963 C987 0.951 . S
H964 C989 0.951 . S
H965 C991 0.950 . S
H966 C992 0.950 . S
H967 C994 0.950 . S
H968 C997 0.950 . S
H969 C998 0.950 . S
H970 C1000 0.950 . S
H971 C1001 0.950 . S
C972 H954 0.951 . S
C972 C973 1.366 . S
C972 C974 1.388 . S
C973 C972 1.366 . S
C973 C977 1.385 . S
C974 H955 0.951 . S
C974 C972 1.388 . S
C974 C975 1.366 . S
C975 C974 1.366 . S
C975 C976 1.414 . S
C975 C978 1.499 . S
C976 H956 0.950 . S
C976 C975 1.414 . S
C976 C977 1.374 . S
C977 H957 0.950 . S
C977 C973 1.385 . S
C977 C976 1.374 . S
C978 C975 1.499 . S
C978 C979 1.373 . S
C978 C980 1.389 . S
C979 H958 0.950 . S
C979 C978 1.373 . S
C979 C995 1.377 . S
C980 C978 1.389 . S
C980 C981 1.524 . S
C980 C994 1.377 . S
C981 C980 1.524 . S
C981 C982 1.397 . S
C981 C986 1.363 . S
C982 H959 0.950 . S
C982 C981 1.397 . S
C982 C983 1.334 . S
C983 H960 0.950 . S
C983 C982 1.334 . S
C983 C984 1.287 . S
C984 C983 1.287 . S
C984 C985 1.524 . S
C984 H1003 0.913 . S
C985 H961 0.950 . S
C985 C984 1.524 . S
C985 C986 1.415 . S
C986 H962 0.950 . S
C986 C981 1.363 . S
C986 C985 1.415 . S
C987 H963 0.951 . S
C987 C988 1.366 . S
C987 C989 1.388 . S
C988 C987 1.366 . S
C988 C992 1.385 . S
C989 H964 0.951 . S
C989 C987 1.388 . S
C989 C990 1.366 . S
C990 C989 1.366 . S
C990 C991 1.414 . S
C990 C993 1.499 . S
C991 H965 0.950 . S
C991 C990 1.414 . S
C991 C992 1.374 . S
C992 H966 0.950 . S
C992 C988 1.385 . S
C992 C991 1.374 . S
C993 C990 1.499 . S
C993 C994 1.373 . S
C993 C995 1.389 . S
C994 H967 0.950 . S
C994 C980 1.377 . S
C994 C993 1.373 . S
C995 C979 1.377 . S
C995 C993 1.389 . S
C995 C996 1.524 . S
C996 C995 1.524 . S
C996 C997 1.397 . S
C996 C1001 1.363 . S
C997 H968 0.950 . S
C997 C996 1.397 . S
C997 C998 1.334 . S
C998 H969 0.950 . S
C998 C997 1.334 . S
C998 C999 1.287 . S
C999 C998 1.287 . S
C999 C1000 1.524 . S
C999 H1002 0.999 . S
C1000 H970 0.950 . S
C1000 C999 1.524 . S
C1000 C1001 1.415 . S
C1001 H971 0.950 . S
C1001 C996 1.363 . S
C1001 C1000 1.415 . S
H1002 C999 0.999 . S
H1003 C984 0.913 . S
H1004 C1022 0.951 . S
H1005 C1024 0.951 . S
H1006 C1026 0.950 . S
H1007 C1027 0.950 . S
H1008 C1029 0.950 . S
H1009 C1032 0.950 . S
H1010 C1033 0.950 . S
H1011 C1035 0.950 . S
H1012 C1036 0.950 . S
H1013 C1037 0.951 . S
H1014 C1039 0.951 . S
H1015 C1041 0.950 . S
H1016 C1042 0.953 . S
H1017 C1044 0.950 . S
H1018 C1047 0.950 . S
H1019 C1048 0.950 . S
H1020 C1050 0.950 . S
H1021 C1051 0.950 . S
C1022 H1004 0.951 . S
C1022 C1023 1.366 . S
C1022 C1024 1.388 . S
C1023 C1022 1.366 . S
C1023 C1027 1.385 . S
C1024 H1005 0.951 . S
C1024 C1022 1.388 . S
C1024 C1025 1.366 . S
C1025 C1024 1.366 . S
C1025 C1026 1.414 . S
C1025 C1028 1.499 . S
C1026 H1006 0.950 . S
C1026 C1025 1.414 . S
C1026 C1027 1.374 . S
C1027 H1007 0.950 . S
C1027 C1023 1.385 . S
C1027 C1026 1.374 . S
C1028 C1025 1.499 . S
C1028 C1029 1.373 . S
C1028 C1030 1.389 . S
C1029 H1008 0.950 . S
C1029 C1028 1.373 . S
C1029 C1045 1.377 . S
C1030 C1028 1.389 . S
C1030 C1031 1.524 . S
C1030 C1044 1.377 . S
C1031 C1030 1.524 . S
C1031 C1032 1.397 . S
C1031 C1036 1.363 . S
C1032 H1009 0.950 . S
C1032 C1031 1.397 . S
C1032 C1033 1.334 . S
C1033 H1010 0.950 . S
C1033 C1032 1.334 . S
C1033 C1034 1.287 . S
C1034 C1033 1.287 . S
C1034 C1035 1.524 . S
C1034 H1053 0.913 . S
C1035 H1011 0.950 . S
C1035 C1034 1.524 . S
C1035 C1036 1.415 . S
C1036 H1012 0.950 . S
C1036 C1031 1.363 . S
C1036 C1035 1.415 . S
C1037 H1013 0.951 . S
C1037 C1038 1.366 . S
C1037 C1039 1.388 1_554 S
C1038 C1037 1.366 . S
C1038 C1042 1.389 . S
C1039 H1014 0.951 . S
C1039 C1037 1.388 1_556 S
C1039 C1040 1.366 . S
C1040 C1039 1.366 . S
C1040 C1041 1.414 . S
C1040 C1043 1.499 . S
C1041 H1015 0.950 . S
C1041 C1040 1.414 . S
C1041 C1042 1.367 1_556 S
C1042 H1016 0.953 . S
C1042 C1038 1.389 . S
C1042 C1041 1.367 1_554 S
C1043 C1040 1.499 . S
C1043 C1044 1.373 . S
C1043 C1045 1.389 . S
C1044 H1017 0.950 . S
C1044 C1030 1.377 . S
C1044 C1043 1.373 . S
C1045 C1029 1.377 . S
C1045 C1043 1.389 . S
C1045 C1046 1.524 . S
C1046 C1045 1.524 . S
C1046 C1047 1.397 . S
C1046 C1051 1.363 . S
C1047 H1018 0.950 . S
C1047 C1046 1.397 . S
C1047 C1048 1.334 . S
C1048 H1019 0.950 . S
C1048 C1047 1.334 . S
C1048 C1049 1.287 . S
C1049 C1048 1.287 . S
C1049 C1050 1.524 . S
C1049 H1052 0.999 . S
C1050 H1020 0.950 . S
C1050 C1049 1.524 . S
C1050 C1051 1.415 . S
C1051 H1021 0.950 . S
C1051 C1046 1.363 . S
C1051 C1050 1.415 . S
H1052 C1049 0.999 . S
H1053 C1034 0.913 . S
H1054 C1072 0.951 . S
H1055 C1074 0.951 . S
H1056 C1076 0.950 . S
H1057 C1077 0.950 . S
H1058 C1079 0.950 . S
H1059 C1082 0.950 . S
H1060 C1083 0.950 . S
H1061 C1085 0.950 . S
H1062 C1086 0.950 . S
H1063 C1087 0.951 1_556 S
H1064 C1089 0.951 . S
H1065 C1091 0.950 . S
H1066 C1092 0.950 1_556 S
H1067 C1094 0.950 . S
H1068 C1097 0.950 . S
H1069 C1098 0.950 . S
H1070 C1100 0.950 . S
H1071 C1101 0.950 . S
C1072 H1054 0.951 . S
C1072 C1073 1.366 . S
C1072 C1074 1.388 . S
C1073 C1072 1.366 . S
C1073 C1077 1.385 . S
C1074 H1055 0.951 . S
C1074 C1072 1.388 . S
C1074 C1075 1.366 . S
C1075 C1074 1.366 . S
C1075 C1076 1.414 . S
C1075 C1078 1.499 . S
C1076 H1056 0.950 . S
C1076 C1075 1.414 . S
C1076 C1077 1.374 . S
C1077 H1057 0.950 . S
C1077 C1073 1.385 . S
C1077 C1076 1.374 . S
C1078 C1075 1.499 . S
C1078 C1079 1.373 . S
C1078 C1080 1.389 . S
C1079 H1058 0.950 . S
C1079 C1078 1.373 . S
C1079 C1095 1.377 . S
C1080 C1078 1.389 . S
C1080 C1081 1.524 . S
C1080 C1094 1.377 . S
C1081 C1080 1.524 . S
C1081 C1082 1.397 . S
C1081 C1086 1.363 . S
C1082 H1059 0.950 . S
C1082 C1081 1.397 . S
C1082 C1083 1.334 . S
C1083 H1060 0.950 . S
C1083 C1082 1.334 . S
C1083 C1084 1.287 . S
C1084 C1083 1.287 . S
C1084 C1085 1.524 . S
C1084 H1103 0.913 . S
C1085 H1061 0.950 . S
C1085 C1084 1.524 . S
C1085 C1086 1.415 . S
C1086 H1062 0.950 . S
C1086 C1081 1.363 . S
C1086 C1085 1.415 . S
C1087 H1063 0.951 1_554 S
C1087 C1088 1.366 1_554 S
C1087 C1089 1.388 . S
C1088 C1087 1.366 1_556 S
C1088 C1092 1.385 1_556 S
C1089 H1064 0.951 . S
C1089 C1087 1.388 . S
C1089 C1090 1.366 . S
C1090 C1089 1.366 . S
C1090 C1091 1.414 . S
C1090 C1093 1.499 . S
C1091 H1065 0.950 . S
C1091 C1090 1.414 . S
C1091 C1092 1.374 . S
C1092 H1066 0.950 1_554 S
C1092 C1088 1.385 1_554 S
C1092 C1091 1.374 . S
C1093 C1090 1.499 . S
C1093 C1094 1.373 . S
C1093 C1095 1.389 . S
C1094 H1067 0.950 . S
C1094 C1080 1.377 . S
C1094 C1093 1.373 . S
C1095 C1079 1.377 . S
C1095 C1093 1.389 . S
C1095 C1096 1.524 . S
C1096 C1095 1.524 . S
C1096 C1097 1.397 . S
C1096 C1101 1.363 . S
C1097 H1068 0.950 . S
C1097 C1096 1.397 . S
C1097 C1098 1.334 . S
C1098 H1069 0.950 . S
C1098 C1097 1.334 . S
C1098 C1099 1.287 . S
C1099 C1098 1.287 . S
C1099 C1100 1.524 . S
C1099 H1102 0.999 . S
C1100 H1070 0.950 . S
C1100 C1099 1.524 . S
C1100 C1101 1.415 . S
C1101 H1071 0.950 . S
C1101 C1096 1.363 . S
C1101 C1100 1.415 . S
H1102 C1099 0.999 . S
H1103 C1084 0.913 . S
H1104 C1122 0.951 . S
H1105 C1124 0.951 . S
H1106 C1126 0.950 . S
H1107 C1127 0.950 . S
H1108 C1129 0.950 . S
H1109 C1132 0.950 . S
H1110 C1133 0.950 . S
H1111 C1135 0.950 . S
H1112 C1136 0.950 . S
H1113 C1137 0.951 . S
H1114 C1139 0.951 . S
H1115 C1141 0.950 . S
H1116 C1142 0.950 . S
H1117 C1144 0.950 . S
H1118 C1147 0.950 . S
H1119 C1148 0.950 . S
H1120 C1150 0.950 . S
H1121 C1151 0.950 . S
C1122 H1104 0.951 . S
C1122 C1123 1.366 . S
C1122 C1124 1.388 . S
C1123 C1122 1.366 . S
C1123 C1127 1.385 . S
C1124 H1105 0.951 . S
C1124 C1122 1.388 . S
C1124 C1125 1.366 . S
C1125 C1124 1.366 . S
C1125 C1126 1.414 . S
C1125 C1128 1.499 . S
C1126 H1106 0.950 . S
C1126 C1125 1.414 . S
C1126 C1127 1.374 . S
C1127 H1107 0.950 . S
C1127 C1123 1.385 . S
C1127 C1126 1.374 . S
C1128 C1125 1.499 . S
C1128 C1129 1.373 . S
C1128 C1130 1.389 . S
C1129 H1108 0.950 . S
C1129 C1128 1.373 . S
C1129 C1145 1.377 . S
C1130 C1128 1.389 . S
C1130 C1131 1.524 . S
C1130 C1144 1.377 . S
C1131 C1130 1.524 . S
C1131 C1132 1.397 . S
C1131 C1136 1.363 . S
C1132 H1109 0.950 . S
C1132 C1131 1.397 . S
C1132 C1133 1.334 . S
C1133 H1110 0.950 . S
C1133 C1132 1.334 . S
C1133 C1134 1.287 . S
C1134 C1133 1.287 . S
C1134 C1135 1.524 . S
C1134 H1153 0.913 . S
C1135 H1111 0.950 . S
C1135 C1134 1.524 . S
C1135 C1136 1.415 . S
C1136 H1112 0.950 . S
C1136 C1131 1.363 . S
C1136 C1135 1.415 . S
C1137 H1113 0.951 . S
C1137 C1138 1.366 . S
C1137 C1139 1.388 . S
C1138 C1137 1.366 . S
C1138 C1142 1.385 . S
C1139 H1114 0.951 . S
C1139 C1137 1.388 . S
C1139 C1140 1.366 . S
C1140 C1139 1.366 . S
C1140 C1141 1.414 . S
C1140 C1143 1.499 . S
C1141 H1115 0.950 . S
C1141 C1140 1.414 . S
C1141 C1142 1.374 . S
C1142 H1116 0.950 . S
C1142 C1138 1.385 . S
C1142 C1141 1.374 . S
C1143 C1140 1.499 . S
C1143 C1144 1.373 . S
C1143 C1145 1.389 . S
C1144 H1117 0.950 . S
C1144 C1130 1.377 . S
C1144 C1143 1.373 . S
C1145 C1129 1.377 . S
C1145 C1143 1.389 . S
C1145 C1146 1.524 . S
C1146 C1145 1.524 . S
C1146 C1147 1.397 . S
C1146 C1151 1.363 . S
C1147 H1118 0.950 . S
C1147 C1146 1.397 . S
C1147 C1148 1.334 . S
C1148 H1119 0.950 . S
C1148 C1147 1.334 . S
C1148 C1149 1.287 . S
C1149 C1148 1.287 . S
C1149 C1150 1.524 . S
C1149 H1152 0.999 . S
C1150 H1120 0.950 . S
C1150 C1149 1.524 . S
C1150 C1151 1.415 . S
C1151 H1121 0.950 . S
C1151 C1146 1.363 . S
C1151 C1150 1.415 . S
H1152 C1149 0.999 . S
H1153 C1134 0.913 . S
H1154 C1172 0.951 . S
H1155 C1174 0.951 . S
H1156 C1176 0.950 . S
H1157 C1177 0.950 . S
H1158 C1179 0.950 . S
H1159 C1182 0.950 . S
H1160 C1183 0.950 . S
H1161 C1185 0.950 . S
H1162 C1186 0.950 . S
H1163 C1187 0.951 . S
H1164 C1189 0.951 . S
H1165 C1191 0.950 . S
H1166 C1192 0.950 . S
H1167 C1194 0.950 . S
H1168 C1197 0.950 . S
H1169 C1198 0.950 . S
H1170 C1200 0.950 . S
H1171 C1201 0.950 . S
C1172 H1154 0.951 . S
C1172 C1173 1.366 . S
C1172 C1174 1.388 . S
C1173 C1172 1.366 . S
C1173 C1177 1.385 . S
C1174 H1155 0.951 . S
C1174 C1172 1.388 . S
C1174 C1175 1.366 . S
C1175 C1174 1.366 . S
C1175 C1176 1.414 . S
C1175 C1178 1.499 . S
C1176 H1156 0.950 . S
C1176 C1175 1.414 . S
C1176 C1177 1.374 . S
C1177 H1157 0.950 . S
C1177 C1173 1.385 . S
C1177 C1176 1.374 . S
C1178 C1175 1.499 . S
C1178 C1179 1.373 . S
C1178 C1180 1.389 . S
C1179 H1158 0.950 . S
C1179 C1178 1.373 . S
C1179 C1195 1.377 . S
C1180 C1178 1.389 . S
C1180 C1181 1.524 . S
C1180 C1194 1.377 . S
C1181 C1180 1.524 . S
C1181 C1182 1.397 . S
C1181 C1186 1.363 . S
C1182 H1159 0.950 . S
C1182 C1181 1.397 . S
C1182 C1183 1.334 . S
C1183 H1160 0.950 . S
C1183 C1182 1.334 . S
C1183 C1184 1.287 . S
C1184 C1183 1.287 . S
C1184 C1185 1.524 . S
C1184 H1203 0.913 . S
C1185 H1161 0.950 . S
C1185 C1184 1.524 . S
C1185 C1186 1.415 . S
C1186 H1162 0.950 . S
C1186 C1181 1.363 . S
C1186 C1185 1.415 . S
C1187 H1163 0.951 . S
C1187 C1188 1.366 . S
C1187 C1189 1.388 . S
C1188 C1187 1.366 . S
C1188 C1192 1.385 . S
C1189 H1164 0.951 . S
C1189 C1187 1.388 . S
C1189 C1190 1.366 . S
C1190 C1189 1.366 . S
C1190 C1191 1.414 . S
C1190 C1193 1.499 . S
C1191 H1165 0.950 . S
C1191 C1190 1.414 . S
C1191 C1192 1.374 . S
C1192 H1166 0.950 . S
C1192 C1188 1.385 . S
C1192 C1191 1.374 . S
C1193 C1190 1.499 . S
C1193 C1194 1.373 . S
C1193 C1195 1.389 . S
C1194 H1167 0.950 . S
C1194 C1180 1.377 . S
C1194 C1193 1.373 . S
C1195 C1179 1.377 . S
C1195 C1193 1.389 . S
C1195 C1196 1.524 . S
C1196 C1195 1.524 . S
C1196 C1197 1.397 . S
C1196 C1201 1.363 . S
C1197 H1168 0.950 . S
C1197 C1196 1.397 . S
C1197 C1198 1.334 . S
C1198 H1169 0.950 . S
C1198 C1197 1.334 . S
C1198 C1199 1.287 . S
C1199 C1198 1.287 . S
C1199 C1200 1.524 . S
C1199 H1202 0.999 . S
C1200 H1170 0.950 . S
C1200 C1199 1.524 . S
C1200 C1201 1.415 . S
C1201 H1171 0.950 . S
C1201 C1196 1.363 . S
C1201 C1200 1.415 . S
H1202 C1199 0.999 . S
H1203 C1184 0.913 . S
H1204 C1222 0.951 . S
H1205 C1224 0.951 . S
H1206 C1226 0.950 . S
H1207 C1227 0.950 . S
H1208 C1229 0.950 . S
H1209 C1232 0.950 . S
H1210 C1233 0.950 . S
H1211 C1235 0.950 . S
H1212 C1236 0.950 . S
H1213 C1237 0.951 . S
H1214 C1239 0.951 . S
H1215 C1241 0.950 . S
H1216 C1242 0.950 . S
H1217 C1244 0.950 . S
H1218 C1247 0.950 . S
H1219 C1248 0.950 . S
H1220 C1250 0.950 . S
H1221 C1251 0.950 . S
C1222 H1204 0.951 . S
C1222 C1223 1.366 . S
C1222 C1224 1.388 . S
C1223 C1222 1.366 . S
C1223 C1227 1.385 . S
C1224 H1205 0.951 . S
C1224 C1222 1.388 . S
C1224 C1225 1.366 . S
C1225 C1224 1.366 . S
C1225 C1226 1.414 . S
C1225 C1228 1.499 . S
C1226 H1206 0.950 . S
C1226 C1225 1.414 . S
C1226 C1227 1.374 . S
C1227 H1207 0.950 . S
C1227 C1223 1.385 . S
C1227 C1226 1.374 . S
C1228 C1225 1.499 . S
C1228 C1229 1.373 . S
C1228 C1230 1.389 . S
C1229 H1208 0.950 . S
C1229 C1228 1.373 . S
C1229 C1245 1.377 . S
C1230 C1228 1.389 . S
C1230 C1231 1.524 . S
C1230 C1244 1.377 . S
C1231 C1230 1.524 . S
C1231 C1232 1.397 . S
C1231 C1236 1.363 . S
C1232 H1209 0.950 . S
C1232 C1231 1.397 . S
C1232 C1233 1.334 . S
C1233 H1210 0.950 . S
C1233 C1232 1.334 . S
C1233 C1234 1.287 . S
C1234 C1233 1.287 . S
C1234 C1235 1.524 . S
C1234 H1253 0.913 . S
C1235 H1211 0.950 . S
C1235 C1234 1.524 . S
C1235 C1236 1.415 . S
C1236 H1212 0.950 . S
C1236 C1231 1.363 . S
C1236 C1235 1.415 . S
C1237 H1213 0.951 . S
C1237 C1238 1.366 . S
C1237 C1239 1.388 . S
C1238 C1237 1.366 . S
C1238 C1242 1.385 . S
C1239 H1214 0.951 . S
C1239 C1237 1.388 . S
C1239 C1240 1.366 . S
C1240 C1239 1.366 . S
C1240 C1241 1.414 . S
C1240 C1243 1.499 . S
C1241 H1215 0.950 . S
C1241 C1240 1.414 . S
C1241 C1242 1.374 . S
C1242 H1216 0.950 . S
C1242 C1238 1.385 . S
C1242 C1241 1.374 . S
C1243 C1240 1.499 . S
C1243 C1244 1.373 . S
C1243 C1245 1.389 . S
C1244 H1217 0.950 . S
C1244 C1230 1.377 . S
C1244 C1243 1.373 . S
C1245 C1229 1.377 . S
C1245 C1243 1.389 . S
C1245 C1246 1.524 . S
C1246 C1245 1.524 . S
C1246 C1247 1.397 . S
C1246 C1251 1.363 . S
C1247 H1218 0.950 . S
C1247 C1246 1.397 . S
C1247 C1248 1.334 . S
C1248 H1219 0.950 . S
C1248 C1247 1.334 . S
C1248 C1249 1.287 . S
C1249 C1248 1.287 . S
C1249 C1250 1.524 . S
C1249 H1252 0.999 . S
C1250 H1220 0.950 . S
C1250 C1249 1.524 . S
C1250 C1251 1.415 . S
C1251 H1221 0.950 . S
C1251 C1246 1.363 . S
C1251 C1250 1.415 . S
H1252 C1249 0.999 . S
H1253 C1234 0.913 . S
H1254 C1272 0.951 . S
H1255 C1274 0.951 . S
H1256 C1276 0.950 . S
H1257 C1277 0.950 . S
H1258 C1279 0.950 . S
H1259 C1282 0.950 . S
H1260 C1283 0.950 . S
H1261 C1285 0.950 . S
H1262 C1286 0.950 . S
H1263 C1287 0.951 . S
H1264 C1289 0.951 . S
H1265 C1291 0.950 . S
H1266 C1292 0.950 . S
H1267 C1294 0.950 . S
H1268 C1297 0.950 . S
H1269 C1298 0.950 1_556 S
H1270 C1300 0.950 1_556 S
H1271 C1301 0.950 . S
C1272 H1254 0.951 . S
C1272 C1273 1.366 . S
C1272 C1274 1.388 . S
C1273 C1272 1.366 . S
C1273 C1277 1.385 . S
C1274 H1255 0.951 . S
C1274 C1272 1.388 . S
C1274 C1275 1.366 . S
C1275 C1274 1.366 . S
C1275 C1276 1.414 . S
C1275 C1278 1.499 . S
C1276 H1256 0.950 . S
C1276 C1275 1.414 . S
C1276 C1277 1.374 . S
C1277 H1257 0.950 . S
C1277 C1273 1.385 . S
C1277 C1276 1.374 . S
C1278 C1275 1.499 . S
C1278 C1279 1.373 . S
C1278 C1280 1.389 . S
C1279 H1258 0.950 . S
C1279 C1278 1.373 . S
C1279 C1295 1.377 . S
C1280 C1278 1.389 . S
C1280 C1281 1.524 . S
C1280 C1294 1.377 . S
C1281 C1280 1.524 . S
C1281 C1282 1.397 . S
C1281 C1286 1.363 . S
C1282 H1259 0.950 . S
C1282 C1281 1.397 . S
C1282 C1283 1.334 . S
C1283 H1260 0.950 . S
C1283 C1282 1.334 . S
C1283 C1284 1.287 . S
C1284 C1283 1.287 . S
C1284 C1285 1.524 . S
C1284 H1303 0.913 . S
C1285 H1261 0.950 . S
C1285 C1284 1.524 . S
C1285 C1286 1.415 . S
C1286 H1262 0.950 . S
C1286 C1281 1.363 . S
C1286 C1285 1.415 . S
C1287 H1263 0.951 . S
C1287 C1288 1.366 . S
C1287 C1289 1.388 . S
C1288 C1287 1.366 . S
C1288 C1292 1.385 . S
C1289 H1264 0.951 . S
C1289 C1287 1.388 . S
C1289 C1290 1.366 . S
C1290 C1289 1.366 . S
C1290 C1291 1.414 . S
C1290 C1293 1.499 . S
C1291 H1265 0.950 . S
C1291 C1290 1.414 . S
C1291 C1292 1.374 . S
C1292 H1266 0.950 . S
C1292 C1288 1.385 . S
C1292 C1291 1.374 . S
C1293 C1290 1.499 . S
C1293 C1294 1.373 . S
C1293 C1295 1.389 . S
C1294 H1267 0.950 . S
C1294 C1280 1.377 . S
C1294 C1293 1.373 . S
C1295 C1279 1.377 . S
C1295 C1293 1.389 . S
C1295 C1296 1.524 . S
C1296 C1295 1.524 . S
C1296 C1297 1.397 . S
C1296 C1301 1.363 . S
C1297 H1268 0.950 . S
C1297 C1296 1.397 . S
C1297 C1298 1.334 . S
C1298 H1269 0.950 1_554 S
C1298 C1297 1.334 . S
C1298 C1299 1.287 1_554 S
C1299 C1298 1.287 1_556 S
C1299 C1300 1.524 1_556 S
C1299 H1302 0.999 . S
C1300 H1270 0.950 1_554 S
C1300 C1299 1.524 1_554 S
C1300 C1301 1.415 . S
C1301 H1271 0.950 . S
C1301 C1296 1.363 . S
C1301 C1300 1.415 . S
H1302 C1299 0.999 . S
H1303 C1284 0.913 . S
H1304 C1322 0.951 . S
H1305 C1324 0.951 . S
H1306 C1326 0.950 . S
H1307 C1327 0.950 . S
H1308 C1329 0.950 . S
H1309 C1332 0.950 . S
H1310 C1333 0.950 . S
H1311 C1335 0.950 . S
H1312 C1336 0.950 . S
H1313 C1337 0.951 . S
H1314 C1339 0.951 . S
H1315 C1341 0.950 . S
H1316 C1342 0.950 . S
H1317 C1344 0.950 . S
H1318 C1347 0.950 . S
H1319 C1348 0.950 . S
H1320 C1350 0.950 . S
H1321 C1351 0.950 . S
C1322 H1304 0.951 . S
C1322 C1323 1.366 . S
C1322 C1324 1.388 . S
C1323 C1322 1.366 . S
C1323 C1327 1.385 . S
C1324 H1305 0.951 . S
C1324 C1322 1.388 . S
C1324 C1325 1.366 . S
C1325 C1324 1.366 . S
C1325 C1326 1.414 . S
C1325 C1328 1.499 . S
C1326 H1306 0.950 . S
C1326 C1325 1.414 . S
C1326 C1327 1.374 . S
C1327 H1307 0.950 . S
C1327 C1323 1.385 . S
C1327 C1326 1.374 . S
C1328 C1325 1.499 . S
C1328 C1329 1.373 . S
C1328 C1330 1.389 . S
C1329 H1308 0.950 . S
C1329 C1328 1.373 . S
C1329 C1345 1.377 . S
C1330 C1328 1.389 . S
C1330 C1331 1.524 . S
C1330 C1344 1.377 . S
C1331 C1330 1.524 . S
C1331 C1332 1.397 . S
C1331 C1336 1.363 . S
C1332 H1309 0.950 . S
C1332 C1331 1.397 . S
C1332 C1333 1.334 . S
C1333 H1310 0.950 . S
C1333 C1332 1.334 . S
C1333 C1334 1.287 . S
C1334 C1333 1.287 . S
C1334 C1335 1.524 . S
C1334 H1353 0.913 . S
C1335 H1311 0.950 . S
C1335 C1334 1.524 . S
C1335 C1336 1.415 . S
C1336 H1312 0.950 . S
C1336 C1331 1.363 . S
C1336 C1335 1.415 . S
C1337 H1313 0.951 . S
C1337 C1338 1.366 . S
C1337 C1339 1.388 . S
C1338 C1337 1.366 . S
C1338 C1342 1.385 . S
C1339 H1314 0.951 . S
C1339 C1337 1.388 . S
C1339 C1340 1.366 . S
C1340 C1339 1.366 . S
C1340 C1341 1.414 . S
C1340 C1343 1.499 . S
C1341 H1315 0.950 . S
C1341 C1340 1.414 . S
C1341 C1342 1.374 . S
C1342 H1316 0.950 . S
C1342 C1338 1.385 . S
C1342 C1341 1.374 . S
C1343 C1340 1.499 . S
C1343 C1344 1.373 . S
C1343 C1345 1.389 . S
C1344 H1317 0.950 . S
C1344 C1330 1.377 . S
C1344 C1343 1.373 . S
C1345 C1329 1.377 . S
C1345 C1343 1.389 . S
C1345 C1346 1.524 . S
C1346 C1345 1.524 . S
C1346 C1347 1.397 . S
C1346 C1351 1.363 . S
C1347 H1318 0.950 . S
C1347 C1346 1.397 . S
C1347 C1348 1.334 . S
C1348 H1319 0.950 . S
C1348 C1347 1.334 . S
C1348 C1349 1.287 . S
C1349 C1348 1.287 . S
C1349 C1350 1.524 . S
C1349 H1352 0.999 . S
C1350 H1320 0.950 . S
C1350 C1349 1.524 . S
C1350 C1351 1.415 . S
C1351 H1321 0.950 . S
C1351 C1346 1.363 . S
C1351 C1350 1.415 . S
H1352 C1349 0.999 . S
H1353 C1334 0.913 . S
H1354 C1372 0.951 . S
H1355 C1374 0.951 . S
H1356 C1376 0.950 . S
H1357 C1377 0.950 . S
H1358 C1379 0.950 . S
H1359 C1382 0.950 . S
H1360 C1383 0.950 . S
H1361 C1385 0.950 . S
H1362 C1386 0.950 . S
H1363 C1387 0.951 . S
H1364 C1389 0.951 . S
H1365 C1391 0.950 . S
H1366 C1392 0.950 . S
H1367 C1394 0.950 . S
H1368 C1397 0.950 . S
H1369 C1398 0.950 . S
H1370 C1400 0.950 . S
H1371 C1401 0.950 . S
C1372 H1354 0.951 . S
C1372 C1373 1.366 . S
C1372 C1374 1.388 . S
C1373 C1372 1.366 . S
C1373 C1377 1.385 . S
C1374 H1355 0.951 . S
C1374 C1372 1.388 . S
C1374 C1375 1.366 . S
C1375 C1374 1.366 . S
C1375 C1376 1.414 . S
C1375 C1378 1.499 . S
C1376 H1356 0.950 . S
C1376 C1375 1.414 . S
C1376 C1377 1.374 . S
C1377 H1357 0.950 . S
C1377 C1373 1.385 . S
C1377 C1376 1.374 . S
C1378 C1375 1.499 . S
C1378 C1379 1.373 . S
C1378 C1380 1.389 . S
C1379 H1358 0.950 . S
C1379 C1378 1.373 . S
C1379 C1395 1.377 . S
C1380 C1378 1.389 . S
C1380 C1381 1.524 . S
C1380 C1394 1.377 . S
C1381 C1380 1.524 . S
C1381 C1382 1.397 . S
C1381 C1386 1.363 . S
C1382 H1359 0.950 . S
C1382 C1381 1.397 . S
C1382 C1383 1.334 1_556 S
C1383 H1360 0.950 . S
C1383 C1382 1.334 1_554 S
C1383 C1384 1.287 . S
C1384 C1383 1.287 . S
C1384 C1385 1.524 1_554 S
C1384 H1403 0.913 . S
C1385 H1361 0.950 . S
C1385 C1384 1.524 1_556 S
C1385 C1386 1.415 . S
C1386 H1362 0.950 . S
C1386 C1381 1.363 . S
C1386 C1385 1.415 . S
C1387 H1363 0.951 . S
C1387 C1388 1.366 . S
C1387 C1389 1.388 . S
C1388 C1387 1.366 . S
C1388 C1392 1.385 . S
C1389 H1364 0.951 . S
C1389 C1387 1.388 . S
C1389 C1390 1.366 . S
C1390 C1389 1.366 . S
C1390 C1391 1.414 . S
C1390 C1393 1.499 . S
C1391 H1365 0.950 . S
C1391 C1390 1.414 . S
C1391 C1392 1.374 . S
C1392 H1366 0.950 . S
C1392 C1388 1.385 . S
C1392 C1391 1.374 . S
C1393 C1390 1.499 . S
C1393 C1394 1.373 . S
C1393 C1395 1.389 . S
C1394 H1367 0.950 . S
C1394 C1380 1.377 . S
C1394 C1393 1.373 . S
C1395 C1379 1.377 . S
C1395 C1393 1.389 . S
C1395 C1396 1.524 . S
C1396 C1395 1.524 . S
C1396 C1397 1.397 . S
C1396 C1401 1.363 . S
C1397 H1368 0.950 . S
C1397 C1396 1.397 . S
C1397 C1398 1.334 . S
C1398 H1369 0.950 . S
C1398 C1397 1.334 . S
C1398 C1399 1.287 . S
C1399 C1398 1.287 . S
C1399 C1400 1.524 . S
C1399 H1402 0.999 . S
C1400 H1370 0.950 . S
C1400 C1399 1.524 . S
C1400 C1401 1.415 . S
C1401 H1371 0.950 . S
C1401 C1396 1.363 . S
C1401 C1400 1.415 . S
H1402 C1399 0.999 . S
H1403 C1384 0.913 . S
C523 C495 1.431 . S
C538 C67 1.394 . S
C573 C75 1.431 . S
C588 C151 1.393 . S
C623 C159 1.431 . S
C638 C235 1.394 . S
C673 C243 1.431 . S
C688 C319 1.394 . S
C723 C403 1.393 . S
C738 C327 1.431 . S
C773 C487 1.394 . S
C788 C411 1.431 . S
C823 C72 1.317 . S
C838 C63 1.317 . S
C873 C156 1.316 . S
C888 C147 1.316 . S
C923 C240 1.316 . S
C938 C231 1.316 . S
C973 C324 1.317 . S
C988 C315 1.317 . S
C1023 C399 1.316 . S
C1038 C408 1.316 . S
C1073 C492 1.315 . S
C1088 C483 1.315 . S
C1123 C56 1.306 . S
C1138 C402 1.345 . S
C1173 C140 1.305 . S
C1188 C486 1.346 . S
C1223 C66 1.345 . S
C1238 C224 1.306 . S
C1273 C150 1.346 . S
C1288 C308 1.305 . S
C1323 C392 1.306 . S
C1338 C234 1.345 . S
C1373 C318 1.346 . S
C1388 C476 1.305 . S
