# Generated by pormake.
# Topology ukm, (4)-cn, num edge types: 1
# Building blocks:
#     Node 0, Type 0, BuildingBlock: QUQFOY_clean_sbu_1, # of connection points: 4
#     Node 1, Type 0, BuildingBlock: QUQFOY_clean_sbu_1, # of connection points: 4
#     Node 2, Type 0, BuildingBlock: QUQFOY_clean_sbu_1, # of connection points: 4
#     Node 3, Type 0, BuildingBlock: QUQFOY_clean_sbu_1, # of connection points: 4
#     Node 4, Type 0, BuildingBlock: QUQFOY_clean_sbu_1, # of connection points: 4
#     Node 5, Type 0, BuildingBlock: QUQFOY_clean_sbu_1, # of connection points: 4
#     Node 6, Type 0, BuildingBlock: QUQFOY_clean_sbu_1, # of connection points: 4
#     Node 7, Type 0, BuildingBlock: QUQFOY_clean_sbu_1, # of connection points: 4
#     Node 8, Type 0, BuildingBlock: QUQFOY_clean_sbu_1, # of connection points: 4
#     Node 9, Type 0, BuildingBlock: QUQFOY_clean_sbu_1, # of connection points: 4
#     Node 10, Type 0, BuildingBlock: QUQFOY_clean_sbu_1, # of connection points: 4
#     Node 11, Type 0, BuildingBlock: QUQFOY_clean_sbu_1, # of connection points: 4
#     Node 12, Type 0, BuildingBlock: QUQFOY_clean_sbu_1, # of connection points: 4
#     Node 13, Type 0, BuildingBlock: QUQFOY_clean_sbu_1, # of connection points: 4
#     Node 14, Type 0, BuildingBlock: QUQFOY_clean_sbu_1, # of connection points: 4
#     Node 15, Type 0, BuildingBlock: QUQFOY_clean_sbu_1, # of connection points: 4
#     Node 16, Type 0, BuildingBlock: QUQFOY_clean_sbu_1, # of connection points: 4
#     Node 17, Type 0, BuildingBlock: QUQFOY_clean_sbu_1, # of connection points: 4
#     Node 18, Type 0, BuildingBlock: QUQFOY_clean_sbu_1, # of connection points: 4
#     Node 19, Type 0, BuildingBlock: QUQFOY_clean_sbu_1, # of connection points: 4
#     Node 20, Type 0, BuildingBlock: QUQFOY_clean_sbu_1, # of connection points: 4
#     Node 21, Type 0, BuildingBlock: QUQFOY_clean_sbu_1, # of connection points: 4
#     Node 22, Type 0, BuildingBlock: QUQFOY_clean_sbu_1, # of connection points: 4
#     Node 23, Type 0, BuildingBlock: QUQFOY_clean_sbu_1, # of connection points: 4
#     Node 24, Type 0, BuildingBlock: QUQFOY_clean_sbu_1, # of connection points: 4
#     Node 25, Type 0, BuildingBlock: QUQFOY_clean_sbu_1, # of connection points: 4
#     Node 26, Type 0, BuildingBlock: QUQFOY_clean_sbu_1, # of connection points: 4
#     Node 27, Type 0, BuildingBlock: QUQFOY_clean_sbu_1, # of connection points: 4
#     Node 28, Type 0, BuildingBlock: QUQFOY_clean_sbu_1, # of connection points: 4
#     Node 29, Type 0, BuildingBlock: QUQFOY_clean_sbu_1, # of connection points: 4
#     Node 30, Type 0, BuildingBlock: QUQFOY_clean_sbu_1, # of connection points: 4
#     Node 31, Type 0, BuildingBlock: QUQFOY_clean_sbu_1, # of connection points: 4
#     Edge 32, Type (0, 0), BuildingBlock: MIFKUJ_clean_linker_0, # of connection points: 2
#     Edge 33, Type (0, 0), BuildingBlock: MIFKUJ_clean_linker_0, # of connection points: 2
#     Edge 34, Type (0, 0), BuildingBlock: MIFKUJ_clean_linker_0, # of connection points: 2
#     Edge 35, Type (0, 0), BuildingBlock: MIFKUJ_clean_linker_0, # of connection points: 2
#     Edge 36, Type (0, 0), BuildingBlock: MIFKUJ_clean_linker_0, # of connection points: 2
#     Edge 37, Type (0, 0), BuildingBlock: MIFKUJ_clean_linker_0, # of connection points: 2
#     Edge 38, Type (0, 0), BuildingBlock: MIFKUJ_clean_linker_0, # of connection points: 2
#     Edge 39, Type (0, 0), BuildingBlock: MIFKUJ_clean_linker_0, # of connection points: 2
#     Edge 40, Type (0, 0), BuildingBlock: MIFKUJ_clean_linker_0, # of connection points: 2
#     Edge 41, Type (0, 0), BuildingBlock: MIFKUJ_clean_linker_0, # of connection points: 2
#     Edge 42, Type (0, 0), BuildingBlock: MIFKUJ_clean_linker_0, # of connection points: 2
#     Edge 43, Type (0, 0), BuildingBlock: MIFKUJ_clean_linker_0, # of connection points: 2
#     Edge 44, Type (0, 0), BuildingBlock: MIFKUJ_clean_linker_0, # of connection points: 2
#     Edge 45, Type (0, 0), BuildingBlock: MIFKUJ_clean_linker_0, # of connection points: 2
#     Edge 46, Type (0, 0), BuildingBlock: MIFKUJ_clean_linker_0, # of connection points: 2
#     Edge 47, Type (0, 0), BuildingBlock: MIFKUJ_clean_linker_0, # of connection points: 2
#     Edge 48, Type (0, 0), BuildingBlock: MIFKUJ_clean_linker_0, # of connection points: 2
#     Edge 49, Type (0, 0), BuildingBlock: MIFKUJ_clean_linker_0, # of connection points: 2
#     Edge 50, Type (0, 0), BuildingBlock: MIFKUJ_clean_linker_0, # of connection points: 2
#     Edge 51, Type (0, 0), BuildingBlock: MIFKUJ_clean_linker_0, # of connection points: 2
#     Edge 52, Type (0, 0), BuildingBlock: MIFKUJ_clean_linker_0, # of connection points: 2
#     Edge 53, Type (0, 0), BuildingBlock: MIFKUJ_clean_linker_0, # of connection points: 2
#     Edge 54, Type (0, 0), BuildingBlock: MIFKUJ_clean_linker_0, # of connection points: 2
#     Edge 55, Type (0, 0), BuildingBlock: MIFKUJ_clean_linker_0, # of connection points: 2
#     Edge 56, Type (0, 0), BuildingBlock: MIFKUJ_clean_linker_0, # of connection points: 2
#     Edge 57, Type (0, 0), BuildingBlock: MIFKUJ_clean_linker_0, # of connection points: 2
#     Edge 58, Type (0, 0), BuildingBlock: MIFKUJ_clean_linker_0, # of connection points: 2
#     Edge 59, Type (0, 0), BuildingBlock: MIFKUJ_clean_linker_0, # of connection points: 2
#     Edge 60, Type (0, 0), BuildingBlock: MIFKUJ_clean_linker_0, # of connection points: 2
#     Edge 61, Type (0, 0), BuildingBlock: MIFKUJ_clean_linker_0, # of connection points: 2
#     Edge 62, Type (0, 0), BuildingBlock: MIFKUJ_clean_linker_0, # of connection points: 2
#     Edge 63, Type (0, 0), BuildingBlock: MIFKUJ_clean_linker_0, # of connection points: 2
#     Edge 64, Type (0, 0), BuildingBlock: MIFKUJ_clean_linker_0, # of connection points: 2
#     Edge 65, Type (0, 0), BuildingBlock: MIFKUJ_clean_linker_0, # of connection points: 2
#     Edge 66, Type (0, 0), BuildingBlock: MIFKUJ_clean_linker_0, # of connection points: 2
#     Edge 67, Type (0, 0), BuildingBlock: MIFKUJ_clean_linker_0, # of connection points: 2
#     Edge 68, Type (0, 0), BuildingBlock: MIFKUJ_clean_linker_0, # of connection points: 2
#     Edge 69, Type (0, 0), BuildingBlock: MIFKUJ_clean_linker_0, # of connection points: 2
#     Edge 70, Type (0, 0), BuildingBlock: MIFKUJ_clean_linker_0, # of connection points: 2
#     Edge 71, Type (0, 0), BuildingBlock: MIFKUJ_clean_linker_0, # of connection points: 2
#     Edge 72, Type (0, 0), BuildingBlock: MIFKUJ_clean_linker_0, # of connection points: 2
#     Edge 73, Type (0, 0), BuildingBlock: MIFKUJ_clean_linker_0, # of connection points: 2
#     Edge 74, Type (0, 0), BuildingBlock: MIFKUJ_clean_linker_0, # of connection points: 2
#     Edge 75, Type (0, 0), BuildingBlock: MIFKUJ_clean_linker_0, # of connection points: 2
#     Edge 76, Type (0, 0), BuildingBlock: MIFKUJ_clean_linker_0, # of connection points: 2
#     Edge 77, Type (0, 0), BuildingBlock: MIFKUJ_clean_linker_0, # of connection points: 2
#     Edge 78, Type (0, 0), BuildingBlock: MIFKUJ_clean_linker_0, # of connection points: 2
#     Edge 79, Type (0, 0), BuildingBlock: MIFKUJ_clean_linker_0, # of connection points: 2
#     Edge 80, Type (0, 0), BuildingBlock: MIFKUJ_clean_linker_0, # of connection points: 2
#     Edge 81, Type (0, 0), BuildingBlock: MIFKUJ_clean_linker_0, # of connection points: 2
#     Edge 82, Type (0, 0), BuildingBlock: MIFKUJ_clean_linker_0, # of connection points: 2
#     Edge 83, Type (0, 0), BuildingBlock: MIFKUJ_clean_linker_0, # of connection points: 2
#     Edge 84, Type (0, 0), BuildingBlock: MIFKUJ_clean_linker_0, # of connection points: 2
#     Edge 85, Type (0, 0), BuildingBlock: MIFKUJ_clean_linker_0, # of connection points: 2
#     Edge 86, Type (0, 0), BuildingBlock: MIFKUJ_clean_linker_0, # of connection points: 2
#     Edge 87, Type (0, 0), BuildingBlock: MIFKUJ_clean_linker_0, # of connection points: 2
#     Edge 88, Type (0, 0), BuildingBlock: MIFKUJ_clean_linker_0, # of connection points: 2
#     Edge 89, Type (0, 0), BuildingBlock: MIFKUJ_clean_linker_0, # of connection points: 2
#     Edge 90, Type (0, 0), BuildingBlock: MIFKUJ_clean_linker_0, # of connection points: 2
#     Edge 91, Type (0, 0), BuildingBlock: MIFKUJ_clean_linker_0, # of connection points: 2
#     Edge 92, Type (0, 0), BuildingBlock: MIFKUJ_clean_linker_0, # of connection points: 2
#     Edge 93, Type (0, 0), BuildingBlock: MIFKUJ_clean_linker_0, # of connection points: 2
#     Edge 94, Type (0, 0), BuildingBlock: MIFKUJ_clean_linker_0, # of connection points: 2
#     Edge 95, Type (0, 0), BuildingBlock: MIFKUJ_clean_linker_0, # of connection points: 2
# Relax obj value: 0.235
# Max RMSD: 0.210
# Mean RMSD: 0.210
data_MOF--net-ukm--node1-QUQFOY_clean_sbu_1--edge1-MIFKUJ_clean_linker_0
_symmetry_space_group_name_H-M    P1
_symmetry_Int_Tables_number       1
_symmetry_cell_setting            triclinic
loop_
_symmetry_equiv_pos_as_xyz
'x, y, z'
_cell_length_a     39.454787
_cell_length_b     137.04212
_cell_length_c     51.037604
_cell_angle_alpha  90.031351
_cell_angle_beta   90.012037
_cell_angle_gamma 89.988779
loop_
_atom_site_label
_atom_site_type_symbol
_atom_site_fract_x
_atom_site_fract_y
_atom_site_fract_z
_atom_type_partial_charge
O0 O 0.13424 0.32399 0.33996 0.0
Cd1 Cd 0.15403 0.31178 0.32166 0.0
Cd2 Cd 0.08419 0.30817 0.32175 0.0
O3 O 0.08071 0.31998 0.34652 0.0
O4 O 0.20277 0.31544 0.31957 0.0
O5 O 0.18535 0.30246 0.34114 0.0
C6 C 0.21009 0.30789 0.33335 0.0
C7 C 0.05904 0.29298 0.3263 0.0
C8 C 0.10504 0.32599 0.34909 0.0
C9 C 0.11693 0.31114 0.27024 0.0
O10 O 0.08936 0.31146 0.28293 0.0
O11 O 0.14501 0.31028 0.28214 0.0
O12 O 0.04113 0.30071 0.32217 0.0
O13 O 0.09109 0.29407 0.33085 0.0
O14 O 0.11542 0.93069 0.33046 0.0
Cd15 Cd 0.1004 0.9442 0.31594 0.0
Cd16 Cd 0.16852 0.94479 0.31285 0.0
O17 O 0.16925 0.9335 0.3392 0.0
O18 O 0.05015 0.94292 0.31508 0.0
O19 O 0.07629 0.95359 0.34039 0.0
C20 C 0.04831 0.9498 0.33213 0.0
C21 C 0.19266 0.96011 0.31524 0.0
C22 C 0.14348 0.92796 0.34041 0.0
C23 C 0.13344 0.94441 0.26349 0.0
O24 O 0.15946 0.94098 0.27474 0.0
O25 O 0.10889 0.94762 0.27705 0.0
O26 O 0.21121 0.95242 0.31202 0.0
O27 O 0.16074 0.95892 0.32021 0.0
O28 O 0.14098 0.93066 0.91469 0.0
Cd29 Cd 0.15381 0.94422 0.93029 0.0
Cd30 Cd 0.08542 0.94366 0.93441 0.0
O31 O 0.08637 0.9327 0.90724 0.0
O32 O 0.20411 0.94351 0.93223 0.0
O33 O 0.17743 0.95399 0.90661 0.0
C34 C 0.20554 0.95052 0.91555 0.0
C35 C 0.05827 0.95857 0.93339 0.0
C36 C 0.11315 0.92761 0.90501 0.0
C37 C 0.12113 0.94363 0.98303 0.0
O38 O 0.09599 0.93962 0.97201 0.0
O39 O 0.14438 0.94744 0.96925 0.0
O40 O 0.04135 0.95057 0.93641 0.0
O41 O 0.09023 0.95795 0.92786 0.0
O42 O 0.1121 0.32354 0.91588 0.0
Cd43 Cd 0.09587 0.31152 0.93696 0.0
Cd44 Cd 0.166 0.31013 0.9417 0.0
O45 O 0.16744 0.32111 0.91419 0.0
O46 O 0.04575 0.3131 0.93641 0.0
O47 O 0.07139 0.30048 0.91823 0.0
C48 C 0.04364 0.30497 0.92401 0.0
C49 C 0.19319 0.29512 0.94052 0.0
C50 C 0.14142 0.32609 0.90802 0.0
C51 C 0.12819 0.31366 0.99042 0.0
O52 O 0.15682 0.31446 0.97937 0.0
O53 O 0.10202 0.31159 0.97707 0.0
O54 O 0.21001 0.30311 0.94375 0.0
O55 O 0.16118 0.29576 0.93526 0.0
O56 O 0.9182 0.68984 0.71639 0.0
Cd57 Cd 0.92688 0.69477 0.67924 0.0
Cd58 Cd 0.85727 0.69159 0.67449 0.0
O59 O 0.86269 0.69143 0.7147 0.0
O60 O 0.96917 0.70245 0.68311 0.0
O61 O 0.91926 0.70912 0.67431 0.0
C62 C 0.95082 0.7102 0.68058 0.0
C63 C 0.80284 0.69608 0.66004 0.0
C64 C 0.88962 0.68991 0.72772 0.0
C65 C 0.90852 0.67854 0.64503 0.0
O66 O 0.87867 0.68031 0.65318 0.0
O67 O 0.93288 0.68418 0.65107 0.0
O68 O 0.80871 0.68786 0.67127 0.0
O69 O 0.82807 0.70196 0.65697 0.0
O70 O 0.84238 0.06386 0.72331 0.0
Cd71 Cd 0.83451 0.05953 0.6855 0.0
Cd72 Cd 0.90416 0.06098 0.68203 0.0
O73 O 0.89719 0.06088 0.72206 0.0
O74 O 0.79185 0.05187 0.68664 0.0
O75 O 0.84235 0.04531 0.67918 0.0
C76 C 0.81035 0.04416 0.68388 0.0
C77 C 0.95756 0.05514 0.66913 0.0
C78 C 0.87062 0.06298 0.73491 0.0
C79 C 0.85891 0.07559 0.65273 0.0
O80 O 0.88792 0.07306 0.66124 0.0
O81 O 0.83282 0.07052 0.65805 0.0
O82 O 0.95395 0.06315 0.68189 0.0
O83 O 0.93057 0.0503 0.66328 0.0
O84 O 0.91158 0.06394 0.02712 0.0
Cd85 Cd 0.91751 0.05928 0.06488 0.0
Cd86 Cd 0.84941 0.06239 0.06712 0.0
O87 O 0.85625 0.06197 0.02713 0.0
O88 O 0.9595 0.05133 0.06346 0.0
O89 O 0.90853 0.04504 0.07041 0.0
C90 C 0.94043 0.04372 0.06568 0.0
C91 C 0.79668 0.0565 0.08117 0.0
C92 C 0.88366 0.0636 0.01487 0.0
C93 C 0.89736 0.07611 0.09645 0.0
O94 O 0.86808 0.07441 0.08702 0.0
O95 O 0.92153 0.07014 0.09257 0.0
O96 O 0.79952 0.06449 0.0682 0.0
O97 O 0.82405 0.05176 0.08669 0.0
O98 O 0.84724 0.68921 0.01946 0.0
Cd99 Cd 0.84077 0.69383 0.05722 0.0
Cd100 Cd 0.90993 0.69052 0.06012 0.0
O101 O 0.90291 0.69033 0.02009 0.0
O102 O 0.79874 0.70178 0.05585 0.0
O103 O 0.84969 0.70806 0.06303 0.0
C104 C 0.81776 0.70939 0.05844 0.0
C105 C 0.964 0.69575 0.07327 0.0
C106 C 0.87545 0.68906 0.00758 0.0
C107 C 0.86094 0.67735 0.09053 0.0
O108 O 0.89053 0.67906 0.08176 0.0
O109 O 0.83646 0.68303 0.08504 0.0
O110 O 0.95927 0.6876 0.06136 0.0
O111 O 0.93775 0.70109 0.07801 0.0
O112 O 0.14292 0.82365 0.82724 0.0
Cd113 Cd 0.15434 0.8109 0.8074 0.0
Cd114 Cd 0.08687 0.80906 0.81373 0.0
O115 O 0.09053 0.82049 0.83977 0.0
O116 O 0.20443 0.81159 0.80294 0.0
O117 O 0.17951 0.80022 0.82679 0.0
C118 C 0.20701 0.80404 0.81772 0.0
C119 C 0.06482 0.79362 0.81961 0.0
C120 C 0.11639 0.82603 0.8399 0.0
C121 C 0.11007 0.81163 0.75963 0.0
O122 O 0.08514 0.81277 0.77498 0.0
O123 O 0.13935 0.8098 0.76874 0.0
O124 O 0.04532 0.8012 0.81902 0.0
O125 O 0.09728 0.795 0.82016 0.0
O126 O 0.1141 0.42929 0.82075 0.0
Cd127 Cd 0.10174 0.44269 0.80417 0.0
Cd128 Cd 0.16865 0.44349 0.80914 0.0
O129 O 0.16516 0.43244 0.83599 0.0
O130 O 0.05183 0.44135 0.79964 0.0
O131 O 0.07457 0.45227 0.82606 0.0
C132 C 0.04773 0.44826 0.81639 0.0
C133 C 0.18998 0.4591 0.81395 0.0
C134 C 0.13979 0.42677 0.83424 0.0
C135 C 0.14387 0.44233 0.75608 0.0
O136 O 0.16747 0.43921 0.77068 0.0
O137 O 0.11682 0.44568 0.76612 0.0
O138 O 0.20992 0.45162 0.81292 0.0
O139 O 0.15763 0.45755 0.8151 0.0
O140 O 0.13331 0.42921 0.40154 0.0
Cd141 Cd 0.15778 0.4406 0.42054 0.0
Cd142 Cd 0.08913 0.44299 0.43358 0.0
O143 O 0.07895 0.4327 0.40549 0.0
O144 O 0.20532 0.43708 0.41165 0.0
O145 O 0.18294 0.45123 0.40061 0.0
C146 C 0.2087 0.44543 0.40053 0.0
C147 C 0.06282 0.45806 0.43845 0.0
C148 C 0.1024 0.42728 0.39661 0.0
C149 C 0.13635 0.43833 0.47667 0.0
O150 O 0.10604 0.43767 0.46861 0.0
O151 O 0.1601 0.44055 0.46099 0.0
O152 O 0.04675 0.45003 0.44296 0.0
O153 O 0.09309 0.45748 0.42884 0.0
O154 O 0.10862 0.82431 0.40578 0.0
Cd155 Cd 0.08663 0.81298 0.4264 0.0
Cd156 Cd 0.15478 0.81049 0.43715 0.0
O157 O 0.16332 0.82152 0.41056 0.0
O158 O 0.03856 0.81497 0.41605 0.0
O159 O 0.06557 0.8011 0.40907 0.0
C160 C 0.03819 0.8062 0.40716 0.0
C161 C 0.18181 0.79543 0.4381 0.0
C162 C 0.13928 0.82663 0.40124 0.0
C163 C 0.10927 0.81537 0.48211 0.0
O164 O 0.13946 0.81481 0.47367 0.0
O165 O 0.08438 0.81425 0.46662 0.0
O166 O 0.19782 0.80336 0.44375 0.0
O167 O 0.151 0.79615 0.42964 0.0
O168 O 0.89126 0.18395 0.22368 0.0
Cd169 Cd 0.91406 0.19069 0.19266 0.0
Cd170 Cd 0.84804 0.18906 0.17231 0.0
O171 O 0.83862 0.18698 0.21168 0.0
O172 O 0.95453 0.19702 0.20866 0.0
O173 O 0.91188 0.20533 0.19145 0.0
C174 C 0.94012 0.20531 0.20434 0.0
C175 C 0.80047 0.19501 0.14974 0.0
C176 C 0.8598 0.18404 0.22865 0.0
C177 C 0.9072 0.17655 0.15051 0.0
O178 O 0.87576 0.17849 0.15261 0.0
O179 O 0.92899 0.18147 0.16321 0.0
O180 O 0.80256 0.18611 0.1575 0.0
O181 O 0.82583 0.20069 0.15439 0.0
O182 O 0.83334 0.56242 0.22182 0.0
Cd183 Cd 0.82782 0.55934 0.18286 0.0
Cd184 Cd 0.89773 0.56126 0.18317 0.0
O185 O 0.88834 0.55974 0.22266 0.0
O186 O 0.78325 0.55267 0.18178 0.0
O187 O 0.83195 0.54517 0.17383 0.0
C188 C 0.79964 0.54464 0.17801 0.0
C189 C 0.95073 0.55524 0.16998 0.0
C190 C 0.86059 0.56125 0.23458 0.0
C191 C 0.85389 0.5766 0.1555 0.0
O192 O 0.88232 0.57403 0.16506 0.0
O193 O 0.82805 0.57113 0.15788 0.0
O194 O 0.94787 0.56288 0.18445 0.0
O195 O 0.92327 0.55095 0.16249 0.0
O196 O 0.90568 0.56396 0.5239 0.0
Cd197 Cd 0.91806 0.56028 0.56152 0.0
Cd198 Cd 0.84873 0.56344 0.56923 0.0
O199 O 0.85045 0.56261 0.52894 0.0
O200 O 0.96094 0.55283 0.55737 0.0
O201 O 0.91273 0.5461 0.57033 0.0
C202 C 0.9439 0.54506 0.56294 0.0
C203 C 0.79573 0.55885 0.58639 0.0
C204 C 0.87609 0.5637 0.51423 0.0
C205 C 0.90141 0.57756 0.5928 0.0
O206 O 0.87094 0.57545 0.58686 0.0
O207 O 0.92544 0.5718 0.58674 0.0
O208 O 0.80007 0.56685 0.5737 0.0
O209 O 0.82189 0.55336 0.58991 0.0
O210 O 0.8349 0.18834 0.52013 0.0
Cd211 Cd 0.83601 0.19315 0.55807 0.0
Cd212 Cd 0.90182 0.19197 0.55157 0.0
O213 O 0.88582 0.19432 0.51338 0.0
O214 O 0.79574 0.20166 0.5621 0.0
O215 O 0.8487 0.20716 0.56246 0.0
C216 C 0.81649 0.20896 0.56191 0.0
C217 C 0.95433 0.19858 0.56347 0.0
C218 C 0.85806 0.19099 0.5045 0.0
C219 C 0.86492 0.17653 0.58379 0.0
O220 O 0.89027 0.17875 0.56953 0.0
O221 O 0.84003 0.18238 0.58566 0.0
O222 O 0.95198 0.19147 0.54708 0.0
O223 O 0.92667 0.20211 0.5731 0.0
O224 O 0.64215 0.32354 0.83057 0.0
Cd225 Cd 0.6588 0.31059 0.81407 0.0
Cd226 Cd 0.58982 0.30897 0.80923 0.0
O227 O 0.5874 0.32062 0.83471 0.0
O228 O 0.70897 0.3118 0.81623 0.0
O229 O 0.68068 0.30028 0.83706 0.0
C230 C 0.7093 0.30427 0.83123 0.0
C231 C 0.56252 0.29404 0.81171 0.0
C232 C 0.6129 0.32613 0.83849 0.0
C233 C 0.62836 0.31076 0.76025 0.0
O234 O 0.5999 0.31231 0.771 0.0
O235 O 0.65421 0.30887 0.77413 0.0
O236 O 0.5458 0.30198 0.80739 0.0
O237 O 0.59432 0.29476 0.81765 0.0
O238 O 0.60695 0.9301 0.83286 0.0
Cd239 Cd 0.59356 0.94279 0.81315 0.0
Cd240 Cd 0.66147 0.94286 0.81064 0.0
O241 O 0.66129 0.93271 0.84012 0.0
O242 O 0.54322 0.94191 0.81277 0.0
O243 O 0.57052 0.95368 0.8334 0.0
C244 C 0.54215 0.94969 0.82679 0.0
C245 C 0.68547 0.95824 0.80952 0.0
C246 C 0.63485 0.92756 0.8434 0.0
C247 C 0.6269 0.93978 0.76138 0.0
O248 O 0.65322 0.93734 0.77399 0.0
O249 O 0.60194 0.9436 0.77325 0.0
O250 O 0.70411 0.95049 0.80834 0.0
O251 O 0.65339 0.95719 0.81407 0.0
O252 O 0.64258 0.92889 0.41304 0.0
Cd253 Cd 0.65623 0.94184 0.43152 0.0
Cd254 Cd 0.58847 0.94236 0.43204 0.0
O255 O 0.5893 0.93201 0.40306 0.0
O256 O 0.7064 0.94064 0.43424 0.0
O257 O 0.68169 0.95214 0.41073 0.0
C258 C 0.70914 0.94813 0.41928 0.0
C259 C 0.56562 0.95789 0.4324 0.0
C260 C 0.61513 0.92649 0.40157 0.0
C261 C 0.6201 0.93969 0.48229 0.0
O262 O 0.59469 0.93696 0.46903 0.0
O263 O 0.64546 0.9435 0.47092 0.0
O264 O 0.54635 0.95027 0.43314 0.0
O265 O 0.59777 0.95663 0.42857 0.0
O266 O 0.6294 0.32402 0.41095 0.0
Cd267 Cd 0.6114 0.31133 0.42808 0.0
Cd268 Cd 0.68141 0.3094 0.42983 0.0
O269 O 0.6833 0.32073 0.40356 0.0
O270 O 0.56214 0.31437 0.43001 0.0
O271 O 0.58188 0.30204 0.40691 0.0
C272 C 0.55623 0.30705 0.41497 0.0
C273 C 0.70769 0.29435 0.42853 0.0
C274 C 0.65799 0.32641 0.40135 0.0
C275 C 0.64667 0.31128 0.48008 0.0
O276 O 0.67388 0.31323 0.46801 0.0
O277 O 0.62002 0.30909 0.46744 0.0
O278 O 0.72504 0.30227 0.43138 0.0
O279 O 0.67579 0.29512 0.42292 0.0
O280 O 0.41797 0.68717 0.21852 0.0
Cd281 Cd 0.42561 0.69192 0.18108 0.0
Cd282 Cd 0.35694 0.69162 0.17913 0.0
O283 O 0.36792 0.69419 0.21822 0.0
O284 O 0.46735 0.69997 0.18224 0.0
O285 O 0.41576 0.70608 0.17621 0.0
C286 C 0.4477 0.70751 0.18068 0.0
C287 C 0.30251 0.6969 0.16714 0.0
C288 C 0.39264 0.69054 0.23077 0.0
C289 C 0.3993 0.67599 0.15063 0.0
O290 O 0.37151 0.67861 0.16123 0.0
O291 O 0.42553 0.6813 0.15287 0.0
O292 O 0.30722 0.6896 0.18248 0.0
O293 O 0.32894 0.70132 0.15814 0.0
O294 O 0.33766 0.062 0.21473 0.0
Cd295 Cd 0.33236 0.05821 0.17629 0.0
Cd296 Cd 0.40098 0.05932 0.17622 0.0
O297 O 0.39018 0.05667 0.21511 0.0
O298 O 0.29016 0.05041 0.17532 0.0
O299 O 0.34158 0.04412 0.16981 0.0
C300 C 0.30944 0.0428 0.17361 0.0
C301 C 0.45511 0.05396 0.16378 0.0
C302 C 0.36376 0.05937 0.22733 0.0
C303 C 0.35852 0.07514 0.14925 0.0
O304 O 0.38624 0.07252 0.15992 0.0
O305 O 0.33281 0.06955 0.15005 0.0
O306 O 0.45082 0.0611 0.17977 0.0
O307 O 0.42849 0.0498 0.15426 0.0
O308 O 0.41024 0.06342 0.51812 0.0
Cd309 Cd 0.41957 0.05967 0.55616 0.0
Cd310 Cd 0.34904 0.06159 0.56087 0.0
O311 O 0.35521 0.06092 0.52085 0.0
O312 O 0.4627 0.05222 0.55447 0.0
O313 O 0.41304 0.04546 0.56367 0.0
C314 C 0.44486 0.04444 0.55814 0.0
C315 C 0.29477 0.0565 0.57397 0.0
C316 C 0.38152 0.06256 0.50725 0.0
C317 C 0.39665 0.07624 0.58814 0.0
O318 O 0.3672 0.0737 0.58059 0.0
O319 O 0.42236 0.07104 0.58253 0.0
O320 O 0.29962 0.06442 0.56108 0.0
O321 O 0.32103 0.05137 0.58011 0.0
O322 O 0.349 0.68785 0.5206 0.0
Cd323 Cd 0.33425 0.69256 0.55683 0.0
Cd324 Cd 0.40445 0.69107 0.56653 0.0
O325 O 0.40227 0.69221 0.52615 0.0
O326 O 0.29097 0.69956 0.55038 0.0
O327 O 0.33822 0.70695 0.56303 0.0
C328 C 0.30719 0.70757 0.55497 0.0
C329 C 0.45821 0.69522 0.5831 0.0
C330 C 0.37815 0.68957 0.51128 0.0
C331 C 0.35281 0.67664 0.59135 0.0
O332 O 0.38288 0.67908 0.58508 0.0
O333 O 0.32781 0.68186 0.58436 0.0
O334 O 0.4528 0.68725 0.57056 0.0
O335 O 0.43284 0.70102 0.58658 0.0
O336 O 0.63186 0.82165 0.3352 0.0
Cd337 Cd 0.6469 0.80863 0.31767 0.0
Cd338 Cd 0.57794 0.80821 0.31492 0.0
O339 O 0.57716 0.81938 0.34158 0.0
O340 O 0.69655 0.81093 0.31586 0.0
O341 O 0.67464 0.79872 0.33823 0.0
C342 C 0.70117 0.80341 0.33045 0.0
C343 C 0.55618 0.79263 0.31741 0.0
C344 C 0.60364 0.82453 0.34452 0.0
C345 C 0.61207 0.80909 0.26522 0.0
O346 O 0.58576 0.81215 0.27684 0.0
O347 O 0.63734 0.8061 0.27836 0.0
O348 O 0.5364 0.80008 0.3147 0.0
O349 O 0.58804 0.79419 0.3219 0.0
O350 O 0.62764 0.42938 0.33922 0.0
Cd351 Cd 0.60689 0.44016 0.31595 0.0
Cd352 Cd 0.67531 0.44395 0.31219 0.0
O353 O 0.68184 0.43332 0.34024 0.0
O354 O 0.55828 0.43642 0.31802 0.0
O355 O 0.57654 0.45084 0.33081 0.0
C356 C 0.55156 0.44489 0.32751 0.0
C357 C 0.69009 0.46023 0.31325 0.0
C358 C 0.65768 0.42775 0.34712 0.0
C359 C 0.64162 0.43833 0.26313 0.0
O360 O 0.67006 0.43916 0.27451 0.0
O361 O 0.61422 0.43916 0.276 0.0
O362 O 0.71302 0.45352 0.31159 0.0
O363 O 0.659 0.4576 0.31727 0.0
O364 O 0.63744 0.42955 0.91263 0.0
Cd365 Cd 0.6559 0.44201 0.93085 0.0
Cd366 Cd 0.58554 0.44437 0.93319 0.0
O367 O 0.58305 0.43283 0.90753 0.0
O368 O 0.70529 0.43902 0.93164 0.0
O369 O 0.68465 0.45156 0.90992 0.0
C370 C 0.71062 0.44648 0.91699 0.0
C371 C 0.56082 0.45962 0.92934 0.0
C372 C 0.60832 0.42724 0.90386 0.0
C373 C 0.62094 0.4424 0.98349 0.0
O374 O 0.59307 0.44097 0.97174 0.0
O375 O 0.64784 0.44401 0.97053 0.0
O376 O 0.54261 0.45192 0.9332 0.0
O377 O 0.59283 0.45846 0.92471 0.0
O378 O 0.60494 0.82315 0.91685 0.0
Cd379 Cd 0.59104 0.80954 0.93138 0.0
Cd380 Cd 0.659 0.80968 0.93646 0.0
O381 O 0.65943 0.82079 0.9097 0.0
O382 O 0.54065 0.81017 0.93045 0.0
O383 O 0.56993 0.7998 0.90626 0.0
C384 C 0.54093 0.80325 0.91341 0.0
C385 C 0.6864 0.79478 0.93515 0.0
C386 C 0.63312 0.82608 0.90755 0.0
C387 C 0.62147 0.80989 0.9847 0.0
O388 O 0.64744 0.81359 0.97404 0.0
O389 O 0.59807 0.8063 0.97061 0.0
O390 O 0.70312 0.80278 0.93884 0.0
O391 O 0.65452 0.79541 0.92934 0.0
O392 O 0.39581 0.18963 0.7248 0.0
Cd393 Cd 0.40493 0.19383 0.68703 0.0
Cd394 Cd 0.33627 0.19165 0.68294 0.0
O395 O 0.34116 0.19275 0.72306 0.0
O396 O 0.44848 0.20105 0.68946 0.0
O397 O 0.39937 0.20816 0.68048 0.0
C398 C 0.43122 0.20896 0.68616 0.0
C399 C 0.2857 0.19794 0.66575 0.0
C400 C 0.36755 0.19075 0.73623 0.0
C401 C 0.38328 0.17697 0.65612 0.0
O402 O 0.35402 0.17909 0.66496 0.0
O403 O 0.40814 0.18271 0.65997 0.0
O404 O 0.28615 0.19025 0.68019 0.0
O405 O 0.31421 0.20216 0.66076 0.0
O406 O 0.3364 0.56211 0.72522 0.0
Cd407 Cd 0.33097 0.55875 0.68639 0.0
Cd408 Cd 0.40103 0.56147 0.68608 0.0
O409 O 0.39178 0.5601 0.72565 0.0
O410 O 0.28777 0.55139 0.68571 0.0
O411 O 0.33786 0.5446 0.67822 0.0
C412 C 0.30571 0.5436 0.68244 0.0
C413 C 0.4557 0.55651 0.67357 0.0
C414 C 0.36397 0.56128 0.73776 0.0
C415 C 0.35439 0.57589 0.6572 0.0
O416 O 0.38323 0.5737 0.66668 0.0
O417 O 0.32917 0.57025 0.66053 0.0
O418 O 0.45047 0.56429 0.68703 0.0
O419 O 0.4296 0.55141 0.66685 0.0
O420 O 0.40311 0.56017 0.02904 0.0
Cd421 Cd 0.41252 0.55672 0.06726 0.0
Cd422 Cd 0.34331 0.5581 0.07118 0.0
O423 O 0.34981 0.5556 0.03164 0.0
O424 O 0.45634 0.54962 0.0659 0.0
O425 O 0.40723 0.54252 0.07511 0.0
C426 C 0.43911 0.54171 0.0695 0.0
C427 C 0.29122 0.5524 0.08698 0.0
C428 C 0.37544 0.55792 0.01798 0.0
C429 C 0.38856 0.57392 0.09527 0.0
O430 O 0.35967 0.57129 0.08667 0.0
O431 O 0.41411 0.56834 0.09273 0.0
O432 O 0.29313 0.55963 0.07104 0.0
O433 O 0.31905 0.54837 0.09466 0.0
O434 O 0.3392 0.18923 0.02955 0.0
Cd435 Cd 0.33493 0.19373 0.06747 0.0
Cd436 Cd 0.40439 0.19073 0.06776 0.0
O437 O 0.39474 0.1907 0.02798 0.0
O438 O 0.2931 0.20175 0.06705 0.0
O439 O 0.34448 0.20793 0.07291 0.0
C440 C 0.31248 0.20931 0.06873 0.0
C441 C 0.45969 0.19577 0.0784 0.0
C442 C 0.36654 0.18935 0.01654 0.0
C443 C 0.35718 0.17723 0.09936 0.0
O444 O 0.3862 0.1792 0.08986 0.0
O445 O 0.33203 0.18279 0.09491 0.0
O446 O 0.45355 0.18752 0.06739 0.0
O447 O 0.43415 0.2013 0.08379 0.0
H448 H 0.04058 0.41809 0.39393 0.0
H449 H 0.03045 0.40098 0.38247 0.0
H450 H 0.13565 0.39779 0.36107 0.0
H451 H 0.14579 0.41484 0.37188 0.0
H452 H 0.09712 0.38714 0.32956 0.0
H453 H 0.10671 0.39249 0.42339 0.0
H454 H 0.08986 0.3998 0.4656 0.0
H455 H 0.99052 0.38731 0.45791 0.0
H456 H 0.0067 0.38004 0.41544 0.0
H457 H 0.15158 0.34033 0.3576 0.0
H458 H 0.1406 0.35766 0.36378 0.0
H459 H 0.0333 0.352 0.36818 0.0
H460 H 0.04394 0.33451 0.36168 0.0
H461 H 0.06058 0.36684 0.405 0.0
H462 H 0.05682 0.3591 0.31349 0.0
H463 H 0.07733 0.35147 0.27271 0.0
H464 H 0.16899 0.36827 0.2771 0.0
H465 H 0.14927 0.37589 0.31816 0.0
C466 C 0.06132 0.41382 0.38607 0.0
C467 C 0.09412 0.4178 0.38418 0.0
C468 C 0.05554 0.40402 0.37972 0.0
C469 C 0.08248 0.39805 0.3715 0.0
C470 C 0.11451 0.40223 0.36753 0.0
C471 C 0.12029 0.412 0.37381 0.0
C472 C 0.0786 0.3873 0.36925 0.0
C473 C 0.08903 0.38271 0.34603 0.0
C474 C 0.06743 0.3815 0.39058 0.0
C475 C 0.05776 0.38583 0.41612 0.0
C476 C 0.0812 0.39136 0.43062 0.0
C477 C 0.07179 0.39549 0.45459 0.0
C478 C 0.0391 0.39405 0.46439 0.0
C479 C 0.0158 0.38845 0.45026 0.0
C480 C 0.02507 0.38432 0.42625 0.0
C481 C 0.12563 0.34269 0.36038 0.0
C482 C 0.0986 0.33602 0.35879 0.0
C483 C 0.11943 0.35262 0.36382 0.0
C484 C 0.08614 0.3561 0.36588 0.0
C485 C 0.05917 0.34943 0.36641 0.0
C486 C 0.06534 0.33945 0.36278 0.0
C487 C 0.07996 0.36675 0.36561 0.0
C488 C 0.06776 0.37129 0.38832 0.0
C489 C 0.08982 0.37251 0.34391 0.0
C490 C 0.10163 0.36803 0.31902 0.0
C491 C 0.08146 0.36112 0.30588 0.0
C492 C 0.09293 0.3568 0.28269 0.0
C493 C 0.12446 0.35937 0.27234 0.0
C494 C 0.14456 0.36628 0.28514 0.0
C495 C 0.13323 0.37062 0.30836 0.0
H496 H 0.1333 0.35602 0.25438 0.0
H497 H 0.03186 0.39725 0.48296 0.0
H498 H 0.09347 0.91436 0.34506 0.0
H499 H 0.09931 0.89723 0.35647 0.0
H500 H 0.20622 0.90137 0.37033 0.0
H501 H 0.20073 0.91862 0.35824 0.0
H502 H 0.19582 0.88543 0.34128 0.0
H503 H 0.1517 0.89746 0.42159 0.0
H504 H 0.11353 0.90669 0.45073 0.0
H505 H 0.02904 0.88952 0.42455 0.0
H506 H 0.0666 0.88026 0.39497 0.0
H507 H 0.19938 0.83677 0.39982 0.0
H508 H 0.20646 0.85406 0.38879 0.0
H509 H 0.10189 0.85549 0.36453 0.0
H510 H 0.09457 0.83831 0.37538 0.0
H511 H 0.11813 0.86882 0.40324 0.0
H512 H 0.16355 0.85767 0.32037 0.0
H513 H 0.20303 0.84847 0.29222 0.0
H514 H 0.28723 0.86398 0.32553 0.0
H515 H 0.24824 0.87319 0.35416 0.0
C516 C 0.1182 0.9117 0.35085 0.0
C517 C 0.14663 0.91789 0.35073 0.0
C518 C 0.12149 0.90188 0.35748 0.0
C519 C 0.15316 0.89801 0.3645 0.0
C520 C 0.18153 0.9042 0.36499 0.0
C521 C 0.17828 0.91406 0.35825 0.0
C522 C 0.15646 0.88741 0.37011 0.0
C523 C 0.1793 0.88182 0.35522 0.0
C524 C 0.13471 0.88267 0.3881 0.0
C525 C 0.11197 0.88821 0.40592 0.0
C526 C 0.12494 0.89569 0.4219 0.0
C527 C 0.10341 0.90092 0.43853 0.0
C528 C 0.06888 0.8987 0.43946 0.0
C529 C 0.0558 0.89123 0.42381 0.0
C530 C 0.07721 0.88598 0.40713 0.0
C531 C 0.17818 0.84069 0.3914 0.0
C532 C 0.14628 0.83618 0.38879 0.0
C533 C 0.18226 0.85058 0.38518 0.0
C534 C 0.15457 0.85607 0.37616 0.0
C535 C 0.12348 0.8514 0.37173 0.0
C536 C 0.11939 0.84156 0.37786 0.0
C537 C 0.15662 0.86684 0.37382 0.0
C538 C 0.13487 0.87246 0.3895 0.0
C539 C 0.1796 0.87158 0.3568 0.0
C540 C 0.20301 0.86603 0.33963 0.0
C541 C 0.19051 0.85905 0.32189 0.0
C542 C 0.21279 0.85385 0.30579 0.0
C543 C 0.24763 0.85562 0.30715 0.0
C544 C 0.26024 0.86261 0.32454 0.0
C545 C 0.23806 0.86782 0.34069 0.0
H546 H 0.26484 0.85159 0.29466 0.0
H547 H 0.05225 0.90276 0.45234 0.0
H548 H 0.05644 0.91684 0.89377 0.0
H549 H 0.05408 0.89953 0.8821 0.0
H550 H 0.16329 0.89838 0.88049 0.0
H551 H 0.16594 0.91566 0.89209 0.0
H552 H 0.13414 0.88805 0.83993 0.0
H553 H 0.12212 0.89106 0.93383 0.0
H554 H 0.09561 0.89715 0.97441 0.0
H555 H 0.00109 0.884 0.95223 0.0
H556 H 0.02694 0.87794 0.91129 0.0
H557 H 0.1688 0.8384 0.85036 0.0
H558 H 0.16524 0.85563 0.86198 0.0
H559 H 0.05637 0.85342 0.86677 0.0
H560 H 0.05974 0.83606 0.8556 0.0
H561 H 0.08106 0.86554 0.90413 0.0
H562 H 0.09295 0.86183 0.81145 0.0
H563 H 0.11873 0.85572 0.77061 0.0
H564 H 0.21195 0.87026 0.7896 0.0
H565 H 0.18687 0.87634 0.83078 0.0
C566 C 0.07996 0.91296 0.89048 0.0
C567 C 0.1114 0.91762 0.89405 0.0
C568 C 0.07855 0.90305 0.88398 0.0
C569 C 0.10852 0.89765 0.88085 0.0
C570 C 0.13987 0.90241 0.88295 0.0
C571 C 0.14133 0.91228 0.88962 0.0
C572 C 0.10746 0.88696 0.87658 0.0
C573 C 0.12279 0.88312 0.85405 0.0
C574 C 0.09187 0.88056 0.89472 0.0
C575 C 0.07636 0.88415 0.91937 0.0
C576 C 0.09561 0.88954 0.9375 0.0
C577 C 0.08072 0.89297 0.96058 0.0
C578 C 0.04666 0.89099 0.96586 0.0
C579 C 0.02745 0.88554 0.94809 0.0
C580 C 0.04221 0.88211 0.92495 0.0
C581 C 0.14412 0.84152 0.85434 0.0
C582 C 0.11452 0.83588 0.85174 0.0
C583 C 0.14211 0.85139 0.86084 0.0
C584 C 0.11048 0.85586 0.86453 0.0
C585 C 0.08102 0.85012 0.86377 0.0
C586 C 0.08301 0.8402 0.85744 0.0
C587 C 0.10822 0.86661 0.86765 0.0
C588 C 0.09221 0.87047 0.88991 0.0
C589 C 0.12302 0.87304 0.84917 0.0
C590 C 0.13811 0.86947 0.82431 0.0
C591 C 0.11902 0.86367 0.80701 0.0
C592 C 0.1335 0.86022 0.78379 0.0
C593 C 0.16698 0.86258 0.77754 0.0
C594 C 0.18603 0.86843 0.79448 0.0
C595 C 0.17168 0.87189 0.81775 0.0
H596 H 0.17815 0.8599 0.75955 0.0
H597 H 0.03518 0.89365 0.98375 0.0
H598 H 0.08921 0.41322 0.83508 0.0
H599 H 0.09307 0.39618 0.84812 0.0
H600 H 0.19715 0.40046 0.87133 0.0
H601 H 0.19371 0.4176 0.85782 0.0
H602 H 0.18992 0.38428 0.84125 0.0
H603 H 0.13564 0.39736 0.91744 0.0
H604 H 0.09295 0.40691 0.9417 0.0
H605 H 0.01367 0.38892 0.91025 0.0
H606 H 0.05584 0.37933 0.88554 0.0
H607 H 0.1987 0.33727 0.90377 0.0
H608 H 0.20168 0.35439 0.89043 0.0
H609 H 0.09575 0.35368 0.86946 0.0
H610 H 0.0924 0.33668 0.88339 0.0
H611 H 0.10749 0.36837 0.90083 0.0
H612 H 0.16084 0.35576 0.82312 0.0
H613 H 0.20295 0.34636 0.79786 0.0
H614 H 0.28333 0.36342 0.83134 0.0
H615 H 0.24171 0.37285 0.85706 0.0
C616 C 0.11285 0.4106 0.84326 0.0
C617 C 0.14116 0.41679 0.84538 0.0
C618 C 0.11498 0.40084 0.85078 0.0
C619 C 0.14534 0.39705 0.86085 0.0
C620 C 0.17348 0.40324 0.86359 0.0
C621 C 0.17138 0.41304 0.85603 0.0
C622 C 0.14781 0.38653 0.86743 0.0
C623 C 0.1723 0.38081 0.85464 0.0
C624 C 0.12432 0.38198 0.88442 0.0
C625 C 0.09891 0.38767 0.89949 0.0
C626 C 0.10908 0.39548 0.91557 0.0
C627 C 0.08498 0.40089 0.92942 0.0
C628 C 0.05061 0.39854 0.92747 0.0
C629 C 0.04029 0.39074 0.91173 0.0
C630 C 0.0643 0.3853 0.89783 0.0
C631 C 0.17625 0.34069 0.8957 0.0
C632 C 0.14524 0.33564 0.89481 0.0
C633 C 0.17799 0.35049 0.88808 0.0
C634 C 0.14889 0.35535 0.87903 0.0
C635 C 0.11846 0.35012 0.8766 0.0
C636 C 0.11662 0.34038 0.88445 0.0
C637 C 0.14918 0.36605 0.87424 0.0
C638 C 0.12525 0.37182 0.88751 0.0
C639 C 0.17313 0.37062 0.85764 0.0
C640 C 0.19818 0.36494 0.84223 0.0
C641 C 0.18752 0.35745 0.82527 0.0
C642 C 0.21129 0.35213 0.81083 0.0
C643 C 0.2458 0.35427 0.81305 0.0
C644 C 0.25659 0.36176 0.82967 0.0
C645 C 0.23292 0.3671 0.84416 0.0
H646 H 0.26416 0.35014 0.80185 0.0
H647 H 0.03199 0.40274 0.9382 0.0
H648 H 0.96358 0.58635 0.5996 0.0
H649 H 0.97409 0.6038 0.60677 0.0
H650 H 0.86667 0.60875 0.61452 0.0
H651 H 0.85589 0.59144 0.60775 0.0
H652 H 0.89927 0.62008 0.57497 0.0
H653 H 0.91354 0.6107 0.66626 0.0
H654 H 0.94055 0.6016 0.70234 0.0
H655 H 0.03693 0.61417 0.68269 0.0
H656 H 0.01053 0.62324 0.64624 0.0
H657 H 0.86182 0.66591 0.62534 0.0
H658 H 0.87068 0.64903 0.61281 0.0
H659 H 0.97861 0.65254 0.62268 0.0
H660 H 0.96978 0.66954 0.63609 0.0
H661 H 0.95799 0.63692 0.64804 0.0
H662 H 0.94353 0.64819 0.56128 0.0
H663 H 0.91809 0.65735 0.52466 0.0
H664 H 0.82541 0.64127 0.5335 0.0
H665 H 0.85009 0.63211 0.57042 0.0
C666 C 0.94227 0.59111 0.60352 0.0
C667 C 0.90885 0.5875 0.6028 0.0
C668 C 0.94834 0.60108 0.60751 0.0
C669 C 0.92109 0.60756 0.61079 0.0
C670 C 0.88799 0.60387 0.61173 0.0
C671 C 0.88192 0.59395 0.60796 0.0
C672 C 0.92634 0.61825 0.61124 0.0
C673 C 0.91198 0.6238 0.59098 0.0
C674 C 0.94434 0.62301 0.63147 0.0
C675 C 0.96016 0.61754 0.65332 0.0
C676 C 0.94055 0.61144 0.66946 0.0
C677 C 0.95573 0.60631 0.69001 0.0
C678 C 0.99046 0.60727 0.69474 0.0
C679 C 0.01005 0.6134 0.67896 0.0
C680 C 0.995 0.61855 0.65837 0.0
C681 C 0.88756 0.6632 0.62432 0.0
C682 C 0.91506 0.66908 0.63188 0.0
C683 C 0.89263 0.65351 0.61699 0.0
C684 C 0.92536 0.64949 0.61663 0.0
C685 C 0.95313 0.65548 0.62281 0.0
C686 C 0.94805 0.66522 0.63026 0.0
C687 C 0.92964 0.63884 0.61225 0.0
C688 C 0.94589 0.63326 0.63168 0.0
C689 C 0.91369 0.63402 0.59103 0.0
C690 C 0.89867 0.63949 0.56873 0.0
C691 C 0.91765 0.64665 0.55553 0.0
C692 C 0.90337 0.65184 0.5347 0.0
C693 C 0.87014 0.6499 0.52677 0.0
C694 C 0.85115 0.64276 0.53965 0.0
C695 C 0.8653 0.63756 0.56051 0.0
H696 H 0.85913 0.65393 0.51064 0.0
H697 H 0.00216 0.6033 0.71067 0.0
H698 H 0.80143 0.08664 0.64677 0.0
H699 H 0.79879 0.1039 0.63461 0.0
H700 H 0.90607 0.10368 0.61822 0.0
H701 H 0.90901 0.08653 0.63075 0.0
H702 H 0.89066 0.11792 0.65126 0.0
H703 H 0.84596 0.1061 0.56936 0.0
H704 H 0.80673 0.09691 0.54096 0.0
H705 H 0.72283 0.1135 0.57079 0.0
H706 H 0.76153 0.12271 0.59963 0.0
H707 H 0.91552 0.16304 0.5876 0.0
H708 H 0.91048 0.146 0.60063 0.0
H709 H 0.80478 0.15039 0.61867 0.0
H710 H 0.80952 0.16752 0.60544 0.0
H711 H 0.8148 0.13437 0.58763 0.0
H712 H 0.86006 0.14682 0.66759 0.0
H713 H 0.8994 0.1561 0.69568 0.0
H714 H 0.98228 0.13829 0.66948 0.0
H715 H 0.94352 0.12898 0.64094 0.0
C716 C 0.82428 0.0902 0.63991 0.0
C717 C 0.85549 0.08524 0.63993 0.0
C718 C 0.82274 0.10008 0.633 0.0
C719 C 0.8523 0.10511 0.62568 0.0
C720 C 0.883 0.09998 0.62406 0.0
C721 C 0.88461 0.09015 0.63111 0.0
C722 C 0.85208 0.11585 0.62187 0.0
C723 C 0.87436 0.12149 0.63709 0.0
C724 C 0.82989 0.12056 0.60415 0.0
C725 C 0.80659 0.11501 0.58687 0.0
C726 C 0.8191 0.10773 0.57004 0.0
C727 C 0.79698 0.10253 0.55382 0.0
C728 C 0.7623 0.1046 0.55413 0.0
C729 C 0.74969 0.11189 0.5706 0.0
C730 C 0.77171 0.11711 0.58688 0.0
C731 C 0.8913 0.16045 0.59472 0.0
C732 C 0.86292 0.16665 0.59544 0.0
C733 C 0.88847 0.15069 0.60222 0.0
C734 C 0.85726 0.14693 0.61067 0.0
C735 C 0.82908 0.15316 0.61217 0.0
C736 C 0.83193 0.16295 0.60479 0.0
C737 C 0.85394 0.13637 0.61658 0.0
C738 C 0.83093 0.13078 0.60189 0.0
C739 C 0.87548 0.13168 0.63479 0.0
C740 C 0.8989 0.13726 0.65196 0.0
C741 C 0.88672 0.14493 0.66766 0.0
C742 C 0.90891 0.15019 0.68369 0.0
C743 C 0.94333 0.1478 0.68433 0.0
C744 C 0.95562 0.14013 0.66896 0.0
C745 C 0.93354 0.13486 0.65287 0.0
H746 H 0.96047 0.15188 0.69676 0.0
H747 H 0.74521 0.10056 0.54155 0.0
H748 H 0.868 0.16495 0.11947 0.0
H749 H 0.87725 0.14769 0.11056 0.0
H750 H 0.97727 0.14955 0.14409 0.0
H751 H 0.96819 0.1669 0.15349 0.0
H752 H 0.96388 0.13555 0.09576 0.0
H753 H 0.93042 0.14324 0.18504 0.0
H754 H 0.89564 0.15219 0.21724 0.0
H755 H 0.80526 0.13973 0.18438 0.0
H756 H 0.8395 0.13087 0.15164 0.0
H757 H 0.95858 0.08393 0.1115 0.0
H758 H 0.96989 0.10097 0.12312 0.0
H759 H 0.86289 0.10728 0.11862 0.0
H760 H 0.85135 0.09033 0.10782 0.0
H761 H 0.88939 0.11724 0.15685 0.0
H762 H 0.91861 0.11108 0.06609 0.0
H763 H 0.94964 0.10292 0.0303 0.0
H764 H 0.04419 0.11271 0.06267 0.0
H765 H 0.01368 0.12083 0.09885 0.0
C766 C 0.89243 0.16181 0.12422 0.0
C767 C 0.91709 0.16727 0.13769 0.0
C768 C 0.89765 0.15193 0.11908 0.0
C769 C 0.92767 0.14736 0.12709 0.0
C770 C 0.9539 0.15298 0.13784 0.0
C771 C 0.94864 0.1629 0.14316 0.0
C772 C 0.92896 0.13658 0.12798 0.0
C773 C 0.94826 0.13149 0.10945 0.0
C774 C 0.90808 0.13137 0.14561 0.0
C775 C 0.88751 0.13646 0.16578 0.0
C776 C 0.90312 0.14247 0.18457 0.0
C777 C 0.88351 0.14752 0.20293 0.0
C778 C 0.84826 0.14654 0.20283 0.0
C779 C 0.83256 0.14049 0.18443 0.0
C780 C 0.85206 0.13544 0.16598 0.0
C781 C 0.9374 0.0889 0.1136 0.0
C782 C 0.90407 0.08578 0.10843 0.0
C783 C 0.94395 0.09866 0.12002 0.0
C784 C 0.91732 0.10546 0.12114 0.0
C785 C 0.88391 0.10219 0.11773 0.0
C786 C 0.87733 0.09247 0.1115 0.0
C787 C 0.92384 0.11608 0.12422 0.0
C788 C 0.90581 0.1212 0.14353 0.0
C789 C 0.94561 0.1213 0.10708 0.0
C790 C 0.96392 0.11645 0.08533 0.0
C791 C 0.94603 0.11143 0.06567 0.0
C792 C 0.96351 0.10682 0.04531 0.0
C793 C 0.99887 0.10727 0.04426 0.0
C794 C 0.01681 0.11235 0.06354 0.0
C795 C 0.99944 0.11696 0.08397 0.0
H796 H 0.01237 0.1037 0.02848 0.0
H797 H 0.83312 0.15047 0.21704 0.0
H798 H 0.90427 0.58971 0.1456 0.0
H799 H 0.89813 0.60704 0.13618 0.0
H800 H 0.78957 0.60374 0.13248 0.0
H801 H 0.7954 0.58627 0.1419 0.0
H802 H 0.81594 0.61666 0.09436 0.0
H803 H 0.82104 0.61186 0.18705 0.0
H804 H 0.8443 0.60525 0.22821 0.0
H805 H 0.93798 0.62036 0.21464 0.0
H806 H 0.91547 0.62694 0.17316 0.0
H807 H 0.79995 0.66829 0.0994 0.0
H808 H 0.79137 0.65138 0.11345 0.0
H809 H 0.89909 0.64816 0.1251 0.0
H810 H 0.90783 0.66501 0.11144 0.0
H811 H 0.86397 0.63859 0.16237 0.0
H812 H 0.86217 0.64149 0.0677 0.0
H813 H 0.84073 0.64782 0.02562 0.0
H814 H 0.74209 0.63617 0.0425 0.0
H815 H 0.76288 0.62988 0.08487 0.0
C816 C 0.87907 0.5926 0.14237 0.0
C817 C 0.85029 0.58661 0.14484 0.0
C818 C 0.87561 0.60253 0.13709 0.0
C819 C 0.84336 0.6067 0.13424 0.0
C820 C 0.81466 0.60065 0.13484 0.0
C821 C 0.81808 0.59068 0.14016 0.0
C822 C 0.83992 0.61744 0.13219 0.0
C823 C 0.82579 0.62147 0.10944 0.0
C824 C 0.85311 0.62369 0.15179 0.0
C825 C 0.86663 0.61984 0.1769 0.0
C826 C 0.84668 0.61372 0.19275 0.0
C827 C 0.85973 0.60998 0.21615 0.0
C828 C 0.89262 0.61237 0.22402 0.0
C829 C 0.91251 0.61852 0.20852 0.0
C830 C 0.89961 0.62226 0.18507 0.0
C831 C 0.82171 0.66406 0.1056 0.0
C832 C 0.85463 0.66796 0.10403 0.0
C833 C 0.81678 0.65437 0.11343 0.0
C834 C 0.84467 0.64846 0.11982 0.0
C835 C 0.87722 0.65257 0.12012 0.0
C836 C 0.88217 0.66221 0.11224 0.0
C837 C 0.84072 0.63783 0.12426 0.0
C838 C 0.8535 0.6338 0.14749 0.0
C839 C 0.82641 0.63158 0.10506 0.0
C840 C 0.81395 0.63532 0.07957 0.0
C841 C 0.83584 0.64035 0.06252 0.0
C842 C 0.82382 0.64392 0.03861 0.0
C843 C 0.79004 0.64243 0.03143 0.0
C844 C 0.76823 0.63734 0.04811 0.0
C845 C 0.78012 0.63377 0.07207 0.0
H846 H 0.78078 0.6452 0.0129 0.0
H847 H 0.90268 0.60946 0.24214 0.0
H848 H 0.65746 0.41483 0.88659 0.0
H849 H 0.65089 0.39791 0.87302 0.0
H850 H 0.54238 0.40039 0.88083 0.0
H851 H 0.54876 0.41743 0.89472 0.0
H852 H 0.56656 0.38435 0.90592 0.0
H853 H 0.57656 0.39791 0.82079 0.0
H854 H 0.60037 0.40812 0.78556 0.0
H855 H 0.69426 0.39236 0.78992 0.0
H856 H 0.6712 0.38214 0.82546 0.0
H857 H 0.55337 0.33554 0.85083 0.0
H858 H 0.54624 0.3529 0.86105 0.0
H859 H 0.65468 0.35676 0.85939 0.0
H860 H 0.6621 0.33952 0.84924 0.0
H861 H 0.62146 0.36978 0.82772 0.0
H862 H 0.6124 0.3575 0.91632 0.0
H863 H 0.588 0.34737 0.95149 0.0
H864 H 0.49082 0.36077 0.93965 0.0
H865 H 0.51456 0.3709 0.90414 0.0
C866 C 0.63211 0.41186 0.88503 0.0
C867 C 0.60364 0.41749 0.8918 0.0
C868 C 0.62839 0.40217 0.87717 0.0
C869 C 0.59613 0.39788 0.8758 0.0
C870 C 0.5675 0.40356 0.88174 0.0
C871 C 0.5712 0.41331 0.8895 0.0
C872 C 0.59294 0.38732 0.86981 0.0
C873 C 0.57789 0.38118 0.88852 0.0
C874 C 0.60813 0.38316 0.84731 0.0
C875 C 0.62219 0.3893 0.82594 0.0
C876 C 0.60238 0.39667 0.81439 0.0
C877 C 0.61573 0.40245 0.79433 0.0
C878 C 0.64883 0.4009 0.78553 0.0
C879 C 0.66863 0.39355 0.79676 0.0
C880 C 0.65541 0.38776 0.81684 0.0
C881 C 0.57573 0.34004 0.85315 0.0
C882 C 0.60831 0.33613 0.84902 0.0
C883 C 0.57158 0.34997 0.85895 0.0
C884 C 0.59993 0.35613 0.86076 0.0
C885 C 0.63245 0.35215 0.85784 0.0
C886 C 0.63663 0.34226 0.85215 0.0
C887 C 0.59605 0.36682 0.86419 0.0
C888 C 0.60969 0.37298 0.84492 0.0
C889 C 0.57943 0.37097 0.88608 0.0
C890 C 0.56515 0.36487 0.90736 0.0
C891 C 0.58575 0.35822 0.92104 0.0
C892 C 0.57206 0.35249 0.94107 0.0
C893 C 0.53785 0.3534 0.94774 0.0
C894 C 0.51729 0.36006 0.93443 0.0
C895 C 0.53085 0.3658 0.91436 0.0
H896 H 0.5273 0.34896 0.96326 0.0
H897 H 0.65911 0.40538 0.77 0.0
H898 H 0.58152 0.8388 0.89751 0.0
H899 H 0.58592 0.856 0.88599 0.0
H900 H 0.69481 0.85349 0.88261 0.0
H901 H 0.69069 0.83621 0.89448 0.0
H902 H 0.67521 0.86909 0.91169 0.0
H903 H 0.64996 0.85644 0.82685 0.0
H904 H 0.61902 0.84674 0.79393 0.0
H905 H 0.52833 0.86306 0.80955 0.0
H906 H 0.55861 0.87278 0.84284 0.0
H907 H 0.69217 0.91718 0.85563 0.0
H908 H 0.69522 0.89991 0.86749 0.0
H909 H 0.58605 0.8986 0.87076 0.0
H910 H 0.58277 0.91577 0.85854 0.0
H911 H 0.6107 0.88472 0.83963 0.0
H912 H 0.63553 0.89678 0.92621 0.0
H913 H 0.66665 0.90641 0.95919 0.0
H914 H 0.75855 0.89122 0.93998 0.0
H915 H 0.72805 0.88158 0.90663 0.0
C916 C 0.60641 0.84184 0.89396 0.0
C917 C 0.63575 0.83612 0.89697 0.0
C918 C 0.60888 0.85169 0.8873 0.0
C919 C 0.64069 0.85602 0.88335 0.0
C920 C 0.67002 0.85029 0.88561 0.0
C921 C 0.66758 0.8404 0.89222 0.0
C922 C 0.64311 0.86665 0.87816 0.0
C923 C 0.66161 0.87251 0.89565 0.0
C924 C 0.62483 0.87111 0.85755 0.0
C925 C 0.60652 0.86529 0.8375 0.0
C926 C 0.62335 0.85791 0.82342 0.0
C927 C 0.60594 0.85242 0.80466 0.0
C928 C 0.57171 0.85427 0.79969 0.0
C929 C 0.55484 0.86163 0.81343 0.0
C930 C 0.57213 0.86714 0.83222 0.0
C931 C 0.66883 0.91328 0.85952 0.0
C932 C 0.63721 0.91784 0.85593 0.0
C933 C 0.67063 0.9034 0.86627 0.0
C934 C 0.64084 0.89794 0.86986 0.0
C935 C 0.60935 0.90264 0.86786 0.0
C936 C 0.60753 0.91248 0.86099 0.0
C937 C 0.64216 0.8872 0.8735 0.0
C938 C 0.62445 0.88131 0.85561 0.0
C939 C 0.66121 0.88274 0.8937 0.0
C940 C 0.67958 0.88854 0.91372 0.0
C941 C 0.66243 0.89556 0.92885 0.0
C942 C 0.67995 0.901 0.94765 0.0
C943 C 0.71457 0.89945 0.95162 0.0
C944 C 0.73174 0.89243 0.93685 0.0
C945 C 0.71434 0.88697 0.91802 0.0
H946 H 0.72808 0.90368 0.96619 0.0
H947 H 0.55828 0.85001 0.78516 0.0
H948 H 0.65575 0.83636 0.35943 0.0
H949 H 0.65296 0.85363 0.37053 0.0
H950 H 0.5439 0.85277 0.36518 0.0
H951 H 0.54646 0.83541 0.3538 0.0
H952 H 0.57064 0.86772 0.33666 0.0
H953 H 0.58106 0.85581 0.42398 0.0
H954 H 0.605 0.84608 0.46014 0.0
H955 H 0.70053 0.86072 0.45139 0.0
H956 H 0.67731 0.87044 0.41491 0.0
H957 H 0.55732 0.91692 0.38617 0.0
H958 H 0.55174 0.89953 0.37623 0.0
H959 H 0.66017 0.89613 0.38206 0.0
H960 H 0.66595 0.91343 0.3923 0.0
H961 H 0.62799 0.88324 0.41244 0.0
H962 H 0.61864 0.89433 0.32323 0.0
H963 H 0.59489 0.90398 0.28683 0.0
H964 H 0.49732 0.8909 0.29923 0.0
H965 H 0.5204 0.88126 0.33595 0.0
C966 C 0.63109 0.83978 0.36107 0.0
C967 C 0.60133 0.8345 0.35567 0.0
C968 C 0.62954 0.84967 0.36749 0.0
C969 C 0.59821 0.8545 0.36872 0.0
C970 C 0.56833 0.84918 0.3643 0.0
C971 C 0.56985 0.83924 0.358 0.0
C972 C 0.59716 0.86521 0.37295 0.0
C973 C 0.58259 0.87112 0.35349 0.0
C974 C 0.61339 0.86964 0.39461 0.0
C975 C 0.62749 0.8638 0.41656 0.0
C976 C 0.60725 0.8569 0.42961 0.0
C977 C 0.62068 0.85139 0.4502 0.0
C978 C 0.65429 0.85276 0.45802 0.0
C979 C 0.67451 0.85966 0.4453 0.0
C980 C 0.66121 0.86518 0.42469 0.0
C981 C 0.58007 0.91253 0.38472 0.0
C982 C 0.61208 0.91657 0.39024 0.0
C983 C 0.57681 0.90257 0.37906 0.0
C984 C 0.60552 0.89651 0.37857 0.0
C985 C 0.63763 0.90065 0.38258 0.0
C986 C 0.64091 0.91057 0.3883 0.0
C987 C 0.60214 0.88577 0.37587 0.0
C988 C 0.6158 0.87985 0.3957 0.0
C989 C 0.58508 0.88135 0.35456 0.0
C990 C 0.57116 0.88715 0.33253 0.0
C991 C 0.59205 0.89357 0.31835 0.0
C992 C 0.57872 0.89903 0.29763 0.0
C993 C 0.5446 0.89808 0.29078 0.0
C994 C 0.52374 0.89164 0.30459 0.0
C995 C 0.53693 0.88618 0.32535 0.0
H996 H 0.53433 0.9023 0.27472 0.0
H997 H 0.66464 0.8485 0.47397 0.0
H998 H 0.60897 0.34015 0.39455 0.0
H999 H 0.61637 0.35729 0.38423 0.0
H1000 H 0.72374 0.35274 0.3738 0.0
H1001 H 0.71668 0.33545 0.38507 0.0
H1002 H 0.71312 0.36834 0.40333 0.0
H1003 H 0.67134 0.35775 0.32086 0.0
H1004 H 0.63384 0.34908 0.29 0.0
H1005 H 0.5491 0.36612 0.31633 0.0
H1006 H 0.58598 0.37481 0.34761 0.0
H1007 H 0.71831 0.41801 0.35068 0.0
H1008 H 0.72555 0.40064 0.36072 0.0
H1009 H 0.61998 0.3987 0.38195 0.0
H1010 H 0.6125 0.41595 0.37192 0.0
H1011 H 0.63786 0.38619 0.34204 0.0
H1012 H 0.68075 0.39573 0.42729 0.0
H1013 H 0.71957 0.40433 0.45732 0.0
H1014 H 0.80445 0.38932 0.42343 0.0
H1015 H 0.76616 0.38072 0.39294 0.0
C1016 C 0.63416 0.34271 0.38967 0.0
C1017 C 0.66224 0.3364 0.39069 0.0
C1018 C 0.63834 0.35254 0.38364 0.0
C1019 C 0.67058 0.35631 0.37797 0.0
C1020 C 0.69862 0.34999 0.37809 0.0
C1021 C 0.69448 0.3401 0.38433 0.0
C1022 C 0.67472 0.36696 0.37347 0.0
C1023 C 0.69717 0.37223 0.38952 0.0
C1024 C 0.65374 0.37206 0.35564 0.0
C1025 C 0.63144 0.3669 0.33669 0.0
C1026 C 0.64467 0.35961 0.32019 0.0
C1027 C 0.62352 0.3547 0.3026 0.0
C1028 C 0.5891 0.35704 0.30123 0.0
C1029 C 0.57577 0.36432 0.31741 0.0
C1030 C 0.5968 0.36925 0.33504 0.0
C1031 C 0.69693 0.41396 0.35837 0.0
C1032 C 0.6647 0.41832 0.36017 0.0
C1033 C 0.7011 0.40403 0.364 0.0
C1034 C 0.67317 0.39836 0.37171 0.0
C1035 C 0.64176 0.40292 0.37574 0.0
C1036 C 0.63757 0.4128 0.3701 0.0
C1037 C 0.67523 0.38757 0.37257 0.0
C1038 C 0.65408 0.38228 0.35562 0.0
C1039 C 0.69765 0.38249 0.38933 0.0
C1040 C 0.72064 0.38767 0.40762 0.0
C1041 C 0.70773 0.39434 0.42606 0.0
C1042 C 0.72963 0.39919 0.44321 0.0
C1043 C 0.76447 0.3974 0.44222 0.0
C1044 C 0.77747 0.39072 0.42414 0.0
C1045 C 0.75568 0.38585 0.40694 0.0
H1046 H 0.78138 0.40116 0.45552 0.0
H1047 H 0.57277 0.35323 0.28761 0.0
H1048 H 0.3391 0.58734 0.10525 0.0
H1049 H 0.34626 0.60476 0.11314 0.0
H1050 H 0.45482 0.60113 0.11402 0.0
H1051 H 0.44794 0.58359 0.10627 0.0
H1052 H 0.43282 0.61436 0.15125 0.0
H1053 H 0.41883 0.60902 0.05955 0.0
H1054 H 0.3919 0.60239 0.01974 0.0
H1055 H 0.30056 0.61813 0.03725 0.0
H1056 H 0.32678 0.62475 0.0774 0.0
H1057 H 0.45672 0.66561 0.13862 0.0
H1058 H 0.46003 0.64833 0.12662 0.0
H1059 H 0.35089 0.64673 0.12479 0.0
H1060 H 0.34731 0.66395 0.13663 0.0
H1061 H 0.38006 0.63614 0.08505 0.0
H1062 H 0.39302 0.64013 0.17889 0.0
H1063 H 0.42018 0.6467 0.21868 0.0
H1064 H 0.51457 0.63348 0.19642 0.0
H1065 H 0.48804 0.62694 0.15628 0.0
C1066 C 0.36453 0.59018 0.10753 0.0
C1067 C 0.39296 0.58407 0.10483 0.0
C1068 C 0.36858 0.60017 0.1119 0.0
C1069 C 0.40109 0.60427 0.11353 0.0
C1070 C 0.42951 0.59811 0.11259 0.0
C1071 C 0.4255 0.58809 0.10822 0.0
C1072 C 0.4051 0.61502 0.11495 0.0
C1073 C 0.42183 0.61913 0.13654 0.0
C1074 C 0.39053 0.62123 0.09583 0.0
C1075 C 0.3747 0.61732 0.07161 0.0
C1076 C 0.39291 0.61101 0.05502 0.0
C1077 C 0.37779 0.60726 0.03238 0.0
C1078 C 0.34452 0.60982 0.026 0.0
C1079 C 0.32632 0.61615 0.04223 0.0
C1080 C 0.34132 0.61991 0.06492 0.0
C1081 C 0.43342 0.66164 0.1351 0.0
C1082 C 0.40173 0.66614 0.13881 0.0
C1083 C 0.43538 0.65175 0.12841 0.0
C1084 C 0.40569 0.64621 0.12525 0.0
C1085 C 0.37411 0.65085 0.12725 0.0
C1086 C 0.37212 0.6607 0.13408 0.0
C1087 C 0.40716 0.63548 0.12161 0.0
C1088 C 0.39145 0.63137 0.09957 0.0
C1089 C 0.42278 0.62928 0.14025 0.0
C1090 C 0.43866 0.63315 0.16445 0.0
C1091 C 0.41963 0.63869 0.18238 0.0
C1092 C 0.4349 0.6424 0.20501 0.0
C1093 C 0.46911 0.64054 0.21003 0.0
C1094 C 0.48809 0.63493 0.19247 0.0
C1095 C 0.47296 0.63122 0.16979 0.0
H1096 H 0.48089 0.64341 0.22757 0.0
H1097 H 0.33286 0.60691 0.00846 0.0
H1098 H 0.29794 0.16695 0.10452 0.0
H1099 H 0.29284 0.14948 0.11367 0.0
H1100 H 0.39999 0.14805 0.13006 0.0
H1101 H 0.40537 0.16542 0.12059 0.0
H1102 H 0.38209 0.13532 0.09272 0.0
H1103 H 0.33971 0.14465 0.17805 0.0
H1104 H 0.30123 0.15312 0.20859 0.0
H1105 H 0.21608 0.13806 0.17527 0.0
H1106 H 0.25403 0.12958 0.14429 0.0
H1107 H 0.40877 0.08863 0.14415 0.0
H1108 H 0.4028 0.10591 0.13461 0.0
H1109 H 0.29548 0.10205 0.12218 0.0
H1110 H 0.3011 0.08464 0.13241 0.0
H1111 H 0.30698 0.11727 0.15364 0.0
H1112 H 0.34872 0.10708 0.07061 0.0
H1113 H 0.38629 0.09854 0.03954 0.0
H1114 H 0.47116 0.11526 0.06706 0.0
H1115 H 0.4342 0.12382 0.09856 0.0
C1116 C 0.32021 0.16298 0.1109 0.0
C1117 C 0.35214 0.16755 0.11158 0.0
C1118 C 0.31726 0.15298 0.11605 0.0
C1119 C 0.34612 0.14744 0.12228 0.0
C1120 C 0.37746 0.15216 0.12501 0.0
C1121 C 0.38046 0.16211 0.11972 0.0
C1122 C 0.34469 0.13662 0.12327 0.0
C1123 C 0.36595 0.13137 0.10628 0.0
C1124 C 0.32246 0.13147 0.14005 0.0
C1125 C 0.29967 0.13657 0.15866 0.0
C1126 C 0.31275 0.14321 0.17708 0.0
C1127 C 0.29104 0.148 0.1945 0.0
C1128 C 0.25622 0.14615 0.19382 0.0
C1129 C 0.24305 0.13949 0.17575 0.0
C1130 C 0.26465 0.13469 0.15827 0.0
C1131 C 0.38393 0.09138 0.13898 0.0
C1132 C 0.3554 0.08523 0.1391 0.0
C1133 C 0.38057 0.1013 0.13343 0.0
C1134 C 0.34872 0.10529 0.1275 0.0
C1135 C 0.3203 0.09912 0.12671 0.0
C1136 C 0.32362 0.08917 0.13237 0.0
C1137 C 0.34523 0.11599 0.12368 0.0
C1138 C 0.32292 0.12121 0.13995 0.0
C1139 C 0.36635 0.12115 0.10609 0.0
C1140 C 0.38869 0.11605 0.08708 0.0
C1141 C 0.37544 0.10889 0.07017 0.0
C1142 C 0.39662 0.10405 0.05246 0.0
C1143 C 0.4311 0.10635 0.05136 0.0
C1144 C 0.44445 0.11349 0.06794 0.0
C1145 C 0.42338 0.11835 0.08569 0.0
H1146 H 0.44746 0.10259 0.03764 0.0
H1147 H 0.23946 0.14987 0.20733 0.0
H1148 H 0.45525 0.08688 0.59418 0.0
H1149 H 0.45939 0.10425 0.60524 0.0
H1150 H 0.35169 0.10514 0.61948 0.0
H1151 H 0.34728 0.0879 0.60841 0.0
H1152 H 0.37177 0.11883 0.5841 0.0
H1153 H 0.40794 0.10721 0.66927 0.0
H1154 H 0.44457 0.098 0.69961 0.0
H1155 H 0.53126 0.11419 0.67326 0.0
H1156 H 0.49518 0.12342 0.6425 0.0
H1157 H 0.33554 0.1632 0.64517 0.0
H1158 H 0.34463 0.1464 0.63169 0.0
H1159 H 0.45222 0.15166 0.62634 0.0
H1160 H 0.44339 0.16856 0.64062 0.0
H1161 H 0.44029 0.13525 0.65262 0.0
H1162 H 0.40402 0.14801 0.57071 0.0
H1163 H 0.36806 0.15735 0.54019 0.0
H1164 H 0.28305 0.13909 0.55899 0.0
H1165 H 0.31838 0.12971 0.58989 0.0
C1166 C 0.43261 0.09071 0.60033 0.0
C1167 C 0.40087 0.08602 0.60016 0.0
C1168 C 0.43501 0.10065 0.60657 0.0
C1169 C 0.40577 0.10601 0.61291 0.0
C1170 C 0.37451 0.10117 0.61437 0.0
C1171 C 0.37208 0.09129 0.60813 0.0
C1172 C 0.40683 0.11677 0.61597 0.0
C1173 C 0.38653 0.12242 0.59924 0.0
C1174 C 0.42726 0.12148 0.63492 0.0
C1175 C 0.44893 0.11592 0.65336 0.0
C1176 C 0.43486 0.10874 0.66976 0.0
C1177 C 0.45551 0.10353 0.68708 0.0
C1178 C 0.49024 0.10548 0.6883 0.0
C1179 C 0.50437 0.11267 0.67225 0.0
C1180 C 0.48383 0.1179 0.65489 0.0
C1181 C 0.36114 0.16087 0.64077 0.0
C1182 C 0.38874 0.16725 0.64403 0.0
C1183 C 0.3663 0.15124 0.63293 0.0
C1184 C 0.3991 0.14777 0.62776 0.0
C1185 C 0.42669 0.15418 0.63021 0.0
C1186 C 0.42155 0.16386 0.63819 0.0
C1187 C 0.40428 0.13729 0.62131 0.0
C1188 C 0.42586 0.13169 0.63725 0.0
C1189 C 0.38518 0.13261 0.60148 0.0
C1190 C 0.36385 0.13819 0.58274 0.0
C1191 C 0.37761 0.14602 0.56846 0.0
C1192 C 0.35734 0.15131 0.55107 0.0
C1193 C 0.32328 0.14882 0.54768 0.0
C1194 C 0.30944 0.14101 0.56163 0.0
C1195 C 0.3296 0.13569 0.57905 0.0
H1196 H 0.30762 0.15294 0.53423 0.0
H1197 H 0.50618 0.10144 0.70172 0.0
H1198 H 0.29284 0.66661 0.59636 0.0
H1199 H 0.28632 0.64926 0.60679 0.0
H1200 H 0.39348 0.64721 0.62251 0.0
H1201 H 0.40028 0.66444 0.61211 0.0
H1202 H 0.37194 0.63395 0.5858 0.0
H1203 H 0.33637 0.64547 0.67139 0.0
H1204 H 0.30041 0.65488 0.7018 0.0
H1205 H 0.21226 0.63968 0.67408 0.0
H1206 H 0.24766 0.63026 0.64325 0.0
H1207 H 0.40339 0.58925 0.64604 0.0
H1208 H 0.39584 0.60607 0.63239 0.0
H1209 H 0.28782 0.60161 0.62689 0.0
H1210 H 0.2951 0.58467 0.64133 0.0
H1211 H 0.30112 0.61785 0.6534 0.0
H1212 H 0.33611 0.60511 0.57137 0.0
H1213 H 0.37081 0.59561 0.54033 0.0
H1214 H 0.45783 0.61305 0.55931 0.0
H1215 H 0.42379 0.62257 0.59075 0.0
C1216 C 0.31486 0.66252 0.60271 0.0
C1217 C 0.34716 0.66689 0.60313 0.0
C1218 C 0.31109 0.6526 0.60859 0.0
C1219 C 0.3395 0.64693 0.61514 0.0
C1220 C 0.37129 0.65143 0.61723 0.0
C1221 C 0.37509 0.66131 0.61138 0.0
C1222 C 0.33703 0.63618 0.61768 0.0
C1223 C 0.35668 0.63042 0.60073 0.0
C1224 C 0.31585 0.63158 0.63629 0.0
C1225 C 0.2946 0.63725 0.65479 0.0
C1226 C 0.30928 0.6442 0.6716 0.0
C1227 C 0.289 0.64952 0.68895 0.0
C1228 C 0.25406 0.6479 0.68981 0.0
C1229 C 0.23932 0.64094 0.67336 0.0
C1230 C 0.25948 0.6356 0.65596 0.0
C1231 C 0.37801 0.59176 0.64156 0.0
C1232 C 0.34984 0.58559 0.64486 0.0
C1233 C 0.37375 0.6014 0.6336 0.0
C1234 C 0.34128 0.60511 0.62838 0.0
C1235 C 0.31312 0.59891 0.63079 0.0
C1236 C 0.31736 0.58921 0.63887 0.0
C1237 C 0.33707 0.61563 0.62214 0.0
C1238 C 0.31605 0.62135 0.63822 0.0
C1239 C 0.35676 0.62022 0.60253 0.0
C1240 C 0.37739 0.61453 0.58355 0.0
C1241 C 0.3627 0.60688 0.56906 0.0
C1242 C 0.38225 0.6015 0.55137 0.0
C1243 C 0.41651 0.60372 0.54788 0.0
C1244 C 0.43128 0.61134 0.56204 0.0
C1245 C 0.41185 0.61674 0.57976 0.0
H1246 H 0.43161 0.59954 0.53418 0.0
H1247 H 0.23841 0.65202 0.70326 0.0
H1248 H 0.53426 0.29563 0.37398 0.0
H1249 H 0.47551 0.29371 0.35867 0.0
H1250 H 0.44045 0.31126 0.42339 0.0
H1251 H 0.49859 0.31339 0.43831 0.0
H1252 H 0.41476 0.28688 0.37864 0.0
H1253 H 0.38321 0.32724 0.40221 0.0
H1254 H 0.41267 0.34308 0.40563 0.0
H1255 H 0.48926 0.33303 0.35228 0.0
H1256 H 0.46001 0.3172 0.34826 0.0
H1257 H 0.23527 0.29605 0.37229 0.0
H1258 H 0.29503 0.29386 0.38444 0.0
H1259 H 0.32498 0.31242 0.3202 0.0
H1260 H 0.26577 0.31488 0.30867 0.0
H1261 H 0.35531 0.31814 0.36139 0.0
H1262 H 0.33869 0.28713 0.32055 0.0
H1263 H 0.31116 0.27125 0.31268 0.0
H1264 H 0.33356 0.26244 0.39153 0.0
H1265 H 0.36083 0.27833 0.39999 0.0
C1266 C 0.51392 0.29897 0.38506 0.0
C1267 C 0.52104 0.30479 0.40707 0.0
C1268 C 0.48041 0.29784 0.37636 0.0
C1269 C 0.45371 0.30249 0.38965 0.0
C1270 C 0.46071 0.30777 0.41255 0.0
C1271 C 0.494 0.30898 0.42104 0.0
C1272 C 0.41885 0.30255 0.37873 0.0
C1273 C 0.40168 0.29369 0.3748 0.0
C1274 C 0.40208 0.31144 0.37318 0.0
C1275 C 0.41956 0.32101 0.37514 0.0
C1276 C 0.40625 0.32843 0.39112 0.0
C1277 C 0.42292 0.3374 0.39318 0.0
C1278 C 0.45287 0.33905 0.37924 0.0
C1279 C 0.46613 0.33174 0.36314 0.0
C1280 C 0.44953 0.32276 0.36098 0.0
C1281 C 0.25471 0.29957 0.36067 0.0
C1282 C 0.24586 0.30572 0.33971 0.0
C1283 C 0.28884 0.29828 0.36753 0.0
C1284 C 0.3146 0.30296 0.3532 0.0
C1285 C 0.30565 0.30879 0.33169 0.0
C1286 C 0.27173 0.31019 0.32512 0.0
C1287 C 0.3507 0.30246 0.36151 0.0
C1288 C 0.3682 0.31128 0.36509 0.0
C1289 C 0.36786 0.29353 0.36599 0.0
C1290 C 0.35152 0.28396 0.36098 0.0
C1291 C 0.3375 0.28184 0.33628 0.0
C1292 C 0.32199 0.27283 0.3317 0.0
C1293 C 0.32053 0.26585 0.35161 0.0
C1294 C 0.33467 0.26786 0.37613 0.0
C1295 C 0.35019 0.27686 0.38082 0.0
H1296 H 0.30852 0.25888 0.34802 0.0
H1297 H 0.46576 0.34599 0.38089 0.0
H1298 H 0.98851 0.94931 0.30606 0.0
H1299 H 0.93197 0.95268 0.32348 0.0
H1300 H 0.97566 0.96025 0.39821 0.0
H1301 H 0.03273 0.95717 0.38056 0.0
H1302 H 0.92291 0.94431 0.39583 0.0
H1303 H 0.94248 0.97765 0.37108 0.0
H1304 H 0.95898 0.99081 0.34077 0.0
H1305 H 0.87891 0.98258 0.28823 0.0
H1306 H 0.86223 0.96926 0.31805 0.0
H1307 H 0.76311 0.95012 0.4514 0.0
H1308 H 0.82146 0.95394 0.43918 0.0
H1309 H 0.79047 0.95726 0.35851 0.0
H1310 H 0.73144 0.95412 0.37122 0.0
H1311 H 0.83945 0.96916 0.36689 0.0
H1312 H 0.8242 0.93513 0.38462 0.0
H1313 H 0.80761 0.92066 0.41032 0.0
H1314 H 0.87917 0.92842 0.47021 0.0
H1315 H 0.89589 0.94301 0.44499 0.0
C1316 C 0.98613 0.95187 0.32607 0.0
C1317 C 0.01492 0.95296 0.34203 0.0
C1318 C 0.95386 0.95382 0.33593 0.0
C1319 C 0.94974 0.95674 0.36205 0.0
C1320 C 0.97846 0.95807 0.37792 0.0
C1321 C 0.01094 0.95633 0.36784 0.0
C1322 C 0.91521 0.95735 0.37322 0.0
C1323 C 0.90481 0.94987 0.39007 0.0
C1324 C 0.89142 0.96437 0.36465 0.0
C1325 C 0.90128 0.9724 0.34673 0.0
C1326 C 0.92857 0.97859 0.35296 0.0
C1327 C 0.93791 0.98609 0.33588 0.0
C1328 C 0.92005 0.98752 0.31256 0.0
C1329 C 0.89274 0.98146 0.3063 0.0
C1330 C 0.8833 0.97394 0.3233 0.0
C1331 C 0.76873 0.95186 0.43115 0.0
C1332 C 0.74302 0.95175 0.41216 0.0
C1333 C 0.8021 0.95397 0.42413 0.0
C1334 C 0.81069 0.95556 0.39776 0.0
C1335 C 0.78461 0.95599 0.37896 0.0
C1336 C 0.75092 0.95419 0.38618 0.0
C1337 C 0.84691 0.95608 0.38964 0.0
C1338 C 0.8576 0.96369 0.37313 0.0
C1339 C 0.87089 0.949 0.3979 0.0
C1340 C 0.86101 0.94021 0.41306 0.0
C1341 C 0.83623 0.93378 0.40335 0.0
C1342 C 0.82683 0.92556 0.41782 0.0
C1343 C 0.84225 0.92364 0.44192 0.0
C1344 C 0.8672 0.92993 0.45156 0.0
C1345 C 0.87666 0.93817 0.43718 0.0
H1346 H 0.83493 0.91727 0.45309 0.0
H1347 H 0.92732 0.99333 0.29937 0.0
H1348 H 0.48234 0.94848 0.80097 0.0
H1349 H 0.42607 0.95277 0.81741 0.0
H1350 H 0.47063 0.96341 0.88908 0.0
H1351 H 0.52744 0.95939 0.87232 0.0
H1352 H 0.41877 0.94751 0.8922 0.0
H1353 H 0.436 0.97953 0.85666 0.0
H1354 H 0.45127 0.99134 0.82223 0.0
H1355 H 0.37078 0.98055 0.77355 0.0
H1356 H 0.35534 0.96856 0.80754 0.0
H1357 H 0.25917 0.95459 0.94649 0.0
H1358 H 0.31695 0.95844 0.93279 0.0
H1359 H 0.28525 0.95777 0.85181 0.0
H1360 H 0.2267 0.9546 0.86579 0.0
H1361 H 0.33324 0.97041 0.8561 0.0
H1362 H 0.32086 0.9373 0.8845 0.0
H1363 H 0.30559 0.92394 0.91464 0.0
H1364 H 0.37674 0.93474 0.97135 0.0
H1365 H 0.39213 0.94824 0.94164 0.0
C1366 C 0.48022 0.95193 0.82001 0.0
C1367 C 0.50914 0.95358 0.83546 0.0
C1368 C 0.44811 0.95441 0.8293 0.0
C1369 C 0.4443 0.95843 0.85438 0.0
C1370 C 0.4732 0.96038 0.86957 0.0
C1371 C 0.50553 0.9581 0.85999 0.0
C1372 C 0.40993 0.95941 0.86562 0.0
C1373 C 0.40023 0.95268 0.88484 0.0
C1374 C 0.38556 0.96586 0.85503 0.0
C1375 C 0.39468 0.97309 0.83459 0.0
C1376 C 0.42174 0.97961 0.83852 0.0
C1377 C 0.43039 0.98636 0.8191 0.0
C1378 C 0.41205 0.98669 0.7957 0.0
C1379 C 0.38497 0.98029 0.79169 0.0
C1380 C 0.37623 0.97352 0.81105 0.0
C1381 C 0.26449 0.95548 0.9258 0.0
C1382 C 0.23877 0.95423 0.90713 0.0
C1383 C 0.29752 0.95761 0.91796 0.0
C1384 C 0.30579 0.95807 0.89121 0.0
C1385 C 0.27962 0.95738 0.87256 0.0
C1386 C 0.24621 0.95556 0.8805 0.0
C1387 C 0.34189 0.95848 0.8828 0.0
C1388 C 0.35186 0.96536 0.86392 0.0
C1389 C 0.36646 0.95196 0.89311 0.0
C1390 C 0.35736 0.94383 0.91098 0.0
C1391 C 0.33308 0.93686 0.90347 0.0
C1392 C 0.32443 0.92926 0.92046 0.0
C1393 C 0.34011 0.92851 0.94493 0.0
C1394 C 0.36457 0.93534 0.95242 0.0
C1395 C 0.37328 0.94296 0.93551 0.0
H1396 H 0.33338 0.92262 0.95806 0.0
H1397 H 0.41879 0.99191 0.78068 0.0
H1398 H 0.72229 0.29628 0.87933 0.0
H1399 H 0.77847 0.29266 0.89796 0.0
H1400 H 0.82527 0.30026 0.82442 0.0
H1401 H 0.76963 0.30421 0.80611 0.0
H1402 H 0.85306 0.28235 0.85496 0.0
H1403 H 0.82462 0.31737 0.86026 0.0
H1404 H 0.78671 0.33083 0.87342 0.0
H1405 H 0.79046 0.32107 0.95331 0.0
H1406 H 0.82802 0.30746 0.9405 0.0
H1407 H 0.02319 0.29739 0.87707 0.0
H1408 H 0.9648 0.29376 0.86389 0.0
H1409 H 0.93068 0.29986 0.94267 0.0
H1410 H 0.9885 0.30418 0.95511 0.0
H1411 H 0.89294 0.30894 0.91329 0.0
H1412 H 0.92927 0.27591 0.91158 0.0
H1413 H 0.96535 0.2618 0.90062 0.0
H1414 H 0.94536 0.26615 0.81876 0.0
H1415 H 0.90952 0.28038 0.82919 0.0
C1416 C 0.74455 0.29697 0.86706 0.0
C1417 C 0.74181 0.30059 0.84141 0.0
C1418 C 0.77651 0.29489 0.87766 0.0
C1419 C 0.80586 0.29617 0.86247 0.0
C1420 C 0.80286 0.29916 0.83633 0.0
C1421 C 0.77114 0.30147 0.82599 0.0
C1422 C 0.83988 0.29572 0.87453 0.0
C1423 C 0.86202 0.28812 0.86776 0.0
C1424 C 0.85099 0.30313 0.89169 0.0
C1425 C 0.82871 0.31134 0.89938 0.0
C1426 C 0.81708 0.31805 0.88058 0.0
C1427 C 0.79572 0.32571 0.88798 0.0
C1428 C 0.78608 0.32678 0.91417 0.0
C1429 C 0.79788 0.32021 0.93303 0.0
C1430 C 0.8192 0.31253 0.92571 0.0
C1431 C 0.00319 0.29776 0.89158 0.0
C1432 C 0.01008 0.30109 0.91701 0.0
C1433 C 0.96981 0.29562 0.88414 0.0
C1434 C 0.94307 0.29646 0.90231 0.0
C1435 C 0.95061 0.29923 0.92817 0.0
C1436 C 0.98367 0.30165 0.93533 0.0
C1437 C 0.90703 0.29551 0.89387 0.0
C1438 C 0.8843 0.30295 0.90108 0.0
C1439 C 0.89535 0.28782 0.87759 0.0
C1440 C 0.9169 0.27927 0.87118 0.0
C1441 C 0.93276 0.27391 0.89123 0.0
C1442 C 0.95314 0.26588 0.88511 0.0
C1443 C 0.9577 0.26309 0.85901 0.0
C1444 C 0.94182 0.26832 0.83897 0.0
C1445 C 0.92143 0.27636 0.84498 0.0
H1446 H 0.97349 0.25687 0.85431 0.0
H1447 H 0.76956 0.33272 0.91987 0.0
H1448 H 0.75018 0.68353 0.65504 0.0
H1449 H 0.69298 0.68697 0.63978 0.0
H1450 H 0.71893 0.71726 0.62921 0.0
H1451 H 0.77712 0.71384 0.64428 0.0
H1452 H 0.65216 0.7122 0.65754 0.0
H1453 H 0.71253 0.70709 0.57716 0.0
H1454 H 0.75287 0.69867 0.54799 0.0
H1455 H 0.69382 0.67243 0.55303 0.0
H1456 H 0.65339 0.68065 0.58256 0.0
H1457 H 0.48533 0.71312 0.596 0.0
H1458 H 0.54473 0.71662 0.60731 0.0
H1459 H 0.56766 0.68586 0.60305 0.0
H1460 H 0.50928 0.68241 0.59107 0.0
H1461 H 0.61272 0.69554 0.57679 0.0
H1462 H 0.55956 0.69907 0.66238 0.0
H1463 H 0.51987 0.70644 0.69407 0.0
H1464 H 0.5649 0.73457 0.6813 0.0
H1465 H 0.60461 0.72737 0.6493 0.0
C1466 C 0.74388 0.69094 0.64954 0.0
C1467 C 0.76823 0.69842 0.65081 0.0
C1468 C 0.71114 0.69289 0.64081 0.0
C1469 C 0.70184 0.70235 0.63335 0.0
C1470 C 0.72575 0.70991 0.63494 0.0
C1471 C 0.75891 0.70794 0.6434 0.0
C1472 C 0.66709 0.70403 0.62341 0.0
C1473 C 0.64352 0.7088 0.63954 0.0
C1474 C 0.65595 0.69944 0.60018 0.0
C1475 C 0.68001 0.69449 0.58218 0.0
C1476 C 0.70827 0.69951 0.57219 0.0
C1477 C 0.73113 0.69477 0.55557 0.0
C1478 C 0.72593 0.68502 0.54868 0.0
C1479 C 0.69781 0.67998 0.55837 0.0
C1480 C 0.67488 0.68468 0.57502 0.0
C1481 C 0.50309 0.70713 0.59775 0.0
C1482 C 0.49276 0.69751 0.59249 0.0
C1483 C 0.53698 0.70913 0.60421 0.0
C1484 C 0.56076 0.70151 0.60594 0.0
C1485 C 0.54997 0.69189 0.60153 0.0
C1486 C 0.51649 0.68992 0.59477 0.0
C1487 C 0.59723 0.70332 0.6115 0.0
C1488 C 0.62124 0.6992 0.59445 0.0
C1489 C 0.6086 0.7084 0.63404 0.0
C1490 C 0.58472 0.71271 0.65321 0.0
C1491 C 0.56079 0.70684 0.66617 0.0
C1492 C 0.53834 0.71099 0.68422 0.0
C1493 C 0.53978 0.72098 0.68962 0.0
C1494 C 0.56375 0.72684 0.67704 0.0
C1495 C 0.58624 0.72273 0.65896 0.0
H1496 H 0.52238 0.72417 0.7036 0.0
H1497 H 0.74367 0.68136 0.53582 0.0
H1498 H 0.01704 0.06001 0.69201 0.0
H1499 H 0.07404 0.05717 0.67533 0.0
H1500 H 0.03291 0.04065 0.61076 0.0
H1501 H 0.97533 0.04328 0.6279 0.0
H1502 H 0.09607 0.03338 0.62813 0.0
H1503 H 0.04727 0.06381 0.60098 0.0
H1504 H 0.01784 0.0795 0.60749 0.0
H1505 H 0.09834 0.08931 0.65762 0.0
H1506 H 0.12801 0.07361 0.65171 0.0
H1507 H 0.23649 0.06253 0.55126 0.0
H1508 H 0.17864 0.05929 0.56522 0.0
H1509 H 0.21597 0.04104 0.62779 0.0
H1510 H 0.27441 0.04404 0.61322 0.0
H1511 H 0.15248 0.06491 0.60855 0.0
H1512 H 0.15211 0.02495 0.64624 0.0
H1513 H 0.17927 0.00919 0.63593 0.0
H1514 H 0.19439 0.01837 0.55636 0.0
H1515 H 0.16691 0.03412 0.56609 0.0
C1516 C 0.0201 0.05562 0.67452 0.0
C1517 C 0.99176 0.052 0.66098 0.0
C1518 C 0.0527 0.05398 0.66505 0.0
C1519 C 0.05763 0.04887 0.64155 0.0
C1520 C 0.02959 0.04464 0.62892 0.0
C1521 C 0.99677 0.04617 0.63865 0.0
C1522 C 0.09143 0.04903 0.6289 0.0
C1523 C 0.10851 0.04025 0.62378 0.0
C1524 C 0.10727 0.058 0.62272 0.0
C1525 C 0.08971 0.06751 0.62607 0.0
C1526 C 0.05858 0.06929 0.61352 0.0
C1527 C 0.04187 0.07819 0.61709 0.0
C1528 C 0.05618 0.08539 0.633 0.0
C1529 C 0.08728 0.08372 0.64532 0.0
C1530 C 0.10407 0.07483 0.64185 0.0
C1531 C 0.23244 0.05772 0.56781 0.0
C1532 C 0.25997 0.05362 0.58134 0.0
C1533 C 0.19931 0.05587 0.57576 0.0
C1534 C 0.19285 0.04995 0.59762 0.0
C1535 C 0.22026 0.04554 0.61068 0.0
C1536 C 0.25363 0.04729 0.60244 0.0
C1537 C 0.1577 0.04925 0.6079 0.0
C1538 C 0.14026 0.05799 0.61273 0.0
C1539 C 0.14144 0.04024 0.61312 0.0
C1540 C 0.15777 0.03076 0.607 0.0
C1541 C 0.16113 0.02359 0.62653 0.0
C1542 C 0.1766 0.01466 0.62079 0.0
C1543 C 0.18866 0.0128 0.59553 0.0
C1544 C 0.18517 0.01984 0.57594 0.0
C1545 C 0.1697 0.02878 0.58158 0.0
H1546 H 0.20063 0.00588 0.59113 0.0
H1547 H 0.0432 0.09228 0.63575 0.0
H1548 H 0.51007 0.0538 0.19534 0.0
H1549 H 0.56895 0.0509 0.18298 0.0
H1550 H 0.53761 0.04503 0.10348 0.0
H1551 H 0.47813 0.04737 0.11632 0.0
H1552 H 0.59012 0.03416 0.11415 0.0
H1553 H 0.56548 0.0681 0.12357 0.0
H1554 H 0.54477 0.083 0.14547 0.0
H1555 H 0.61818 0.07917 0.20673 0.0
H1556 H 0.63904 0.06417 0.18535 0.0
H1557 H 0.737 0.05978 0.05653 0.0
H1558 H 0.68003 0.05579 0.07204 0.0
H1559 H 0.72256 0.04208 0.14055 0.0
H1560 H 0.78006 0.04574 0.12459 0.0
H1561 H 0.66665 0.06161 0.13704 0.0
H1562 H 0.69132 0.02694 0.12242 0.0
H1563 H 0.71129 0.0133 0.09492 0.0
H1564 H 0.63664 0.02034 0.03667 0.0
H1565 H 0.61661 0.03412 0.06369 0.0
C1566 C 0.51572 0.05172 0.17533 0.0
C1567 C 0.48973 0.05092 0.15668 0.0
C1568 C 0.54938 0.05011 0.16824 0.0
C1569 C 0.55789 0.04804 0.14211 0.0
C1570 C 0.53173 0.04668 0.12373 0.0
C1571 C 0.49779 0.04803 0.13103 0.0
C1572 C 0.59402 0.04807 0.13375 0.0
C1573 C 0.60678 0.04017 0.11918 0.0
C1574 C 0.61595 0.05592 0.14014 0.0
C1575 C 0.60357 0.06496 0.15301 0.0
C1576 C 0.57704 0.0704 0.1418 0.0
C1577 C 0.5653 0.07887 0.15411 0.0
C1578 C 0.58009 0.08201 0.17752 0.0
C1579 C 0.60672 0.07671 0.18863 0.0
C1580 C 0.61852 0.06823 0.17642 0.0
C1581 C 0.73427 0.05574 0.07465 0.0
C1582 C 0.76287 0.05309 0.08943 0.0
C1583 C 0.70176 0.05343 0.08339 0.0
C1584 C 0.69723 0.04856 0.10724 0.0
C1585 C 0.7257 0.0457 0.12186 0.0
C1586 C 0.75841 0.04781 0.11278 0.0
C1587 C 0.66267 0.04765 0.11807 0.0
C1588 C 0.65008 0.0555 0.13266 0.0
C1589 C 0.64085 0.03991 0.11112 0.0
C1590 C 0.6528 0.03163 0.09491 0.0
C1591 C 0.67947 0.02565 0.1036 0.0
C1592 C 0.69071 0.01788 0.08814 0.0
C1593 C 0.67532 0.01597 0.06401 0.0
C1594 C 0.64858 0.02183 0.05534 0.0
C1595 C 0.63726 0.02962 0.07073 0.0
H1596 H 0.68405 0.00995 0.05208 0.0
H1597 H 0.57096 0.08857 0.18702 0.0
H1598 H 0.02335 0.68815 0.05597 0.0
H1599 H 0.0801 0.69119 0.07281 0.0
H1600 H 0.04009 0.71254 0.12668 0.0
H1601 H 0.98274 0.70965 0.1094 0.0
H1602 H 0.10395 0.71782 0.10655 0.0
H1603 H 0.05233 0.69044 0.14893 0.0
H1604 H 0.02149 0.67481 0.15097 0.0
H1605 H 0.10121 0.6608 0.10779 0.0
H1606 H 0.13231 0.67638 0.10517 0.0
H1607 H 0.24512 0.69327 0.19448 0.0
H1608 H 0.1868 0.69615 0.18091 0.0
H1609 H 0.22235 0.7095 0.10944 0.0
H1610 H 0.28119 0.70693 0.12352 0.0
H1611 H 0.1578 0.68793 0.14223 0.0
H1612 H 0.15979 0.72436 0.08405 0.0
H1613 H 0.18855 0.74034 0.08552 0.0
H1614 H 0.20547 0.73696 0.16813 0.0
H1615 H 0.17641 0.72104 0.16723 0.0
C1616 C 0.02656 0.69359 0.07118 0.0
C1617 C 0.99851 0.69856 0.08166 0.0
C1618 C 0.05907 0.69533 0.08075 0.0
C1619 C 0.06422 0.70196 0.10129 0.0
C1620 C 0.0366 0.70737 0.11084 0.0
C1621 C 0.00389 0.70569 0.10104 0.0
C1622 C 0.09789 0.70247 0.11412 0.0
C1623 C 0.11581 0.71132 0.11445 0.0
C1624 C 0.11297 0.69402 0.12493 0.0
C1625 C 0.09452 0.6846 0.12669 0.0
C1626 C 0.06318 0.68404 0.13973 0.0
C1627 C 0.04566 0.67519 0.14101 0.0
C1628 C 0.05935 0.66682 0.12948 0.0
C1629 C 0.09063 0.66728 0.1167 0.0
C1630 C 0.10823 0.67612 0.11534 0.0
C1631 C 0.24056 0.69697 0.17605 0.0
C1632 C 0.26767 0.69979 0.15992 0.0
C1633 C 0.20718 0.69861 0.16831 0.0
C1634 C 0.20005 0.70301 0.14411 0.0
C1635 C 0.22713 0.70621 0.12837 0.0
C1636 C 0.26074 0.7047 0.13635 0.0
C1637 C 0.16449 0.70327 0.13446 0.0
C1638 C 0.14612 0.6945 0.13457 0.0
C1639 C 0.14891 0.71185 0.1247 0.0
C1640 C 0.16621 0.72146 0.12549 0.0
C1641 C 0.16954 0.72704 0.10254 0.0
C1642 C 0.18591 0.73609 0.10328 0.0
C1643 C 0.19893 0.73964 0.12689 0.0
C1644 C 0.1955 0.73418 0.14983 0.0
C1645 C 0.17913 0.72514 0.14921 0.0
H1646 H 0.21161 0.74665 0.12741 0.0
H1647 H 0.04575 0.65997 0.13048 0.0
H1648 H 0.47972 0.8027 0.93736 0.0
H1649 H 0.42478 0.79894 0.91758 0.0
H1650 H 0.47394 0.79269 0.84403 0.0
H1651 H 0.52942 0.79616 0.86405 0.0
H1652 H 0.41933 0.80828 0.84623 0.0
H1653 H 0.4409 0.77472 0.8674 0.0
H1654 H 0.45707 0.76115 0.89654 0.0
H1655 H 0.37336 0.76779 0.94726 0.0
H1656 H 0.35697 0.78149 0.91863 0.0
H1657 H 0.26197 0.80278 0.78614 0.0
H1658 H 0.32013 0.7989 0.79887 0.0
H1659 H 0.28692 0.79383 0.87831 0.0
H1660 H 0.2282 0.79705 0.86505 0.0
H1661 H 0.33681 0.78235 0.8693 0.0
H1662 H 0.31974 0.81662 0.85596 0.0
H1663 H 0.3032 0.83149 0.8319 0.0
H1664 H 0.37762 0.82526 0.77282 0.0
H1665 H 0.39431 0.81029 0.79638 0.0
C1666 C 0.47889 0.80033 0.91711 0.0
C1667 C 0.50872 0.79974 0.90217 0.0
C1668 C 0.44755 0.79815 0.9059 0.0
C1669 C 0.44541 0.79551 0.87942 0.0
C1670 C 0.47522 0.79465 0.86457 0.0
C1671 C 0.50679 0.7966 0.876 0.0
C1672 C 0.4117 0.7948 0.86689 0.0
C1673 C 0.40148 0.80249 0.85067 0.0
C1674 C 0.38818 0.78746 0.87375 0.0
C1675 C 0.39787 0.77919 0.89095 0.0
C1676 C 0.42611 0.77334 0.88489 0.0
C1677 C 0.43528 0.76561 0.90129 0.0
C1678 C 0.41629 0.76362 0.92376 0.0
C1679 C 0.38805 0.76934 0.92985 0.0
C1680 C 0.37878 0.77708 0.91352 0.0
C1681 C 0.26706 0.80063 0.80619 0.0
C1682 C 0.24081 0.80029 0.82471 0.0
C1683 C 0.30032 0.79848 0.81351 0.0
C1684 C 0.30821 0.79639 0.83977 0.0
C1685 C 0.28161 0.79549 0.85797 0.0
C1686 C 0.24808 0.79734 0.85043 0.0
C1687 C 0.34417 0.79589 0.84857 0.0
C1688 C 0.35475 0.78805 0.86432 0.0
C1689 C 0.36791 0.80327 0.84194 0.0
C1690 C 0.35798 0.81228 0.82776 0.0
C1691 C 0.33241 0.81839 0.83774 0.0
C1692 C 0.32303 0.82684 0.82421 0.0
C1693 C 0.33928 0.8293 0.80081 0.0
C1694 C 0.36501 0.82333 0.79092 0.0
C1695 C 0.37445 0.81487 0.80436 0.0
H1696 H 0.33199 0.83584 0.79036 0.0
H1697 H 0.42343 0.75763 0.93644 0.0
H1698 H 0.76927 0.43929 0.93693 0.0
H1699 H 0.82677 0.44198 0.9213 0.0
H1700 H 0.78892 0.46142 0.86158 0.0
H1701 H 0.73093 0.45893 0.87771 0.0
H1702 H 0.85167 0.43696 0.87668 0.0
H1703 H 0.85291 0.4775 0.84422 0.0
H1704 H 0.8267 0.49316 0.85692 0.0
H1705 H 0.81352 0.48268 0.93553 0.0
H1706 H 0.84005 0.46703 0.92341 0.0
H1707 H 0.98811 0.44342 0.79312 0.0
H1708 H 0.93107 0.44557 0.81051 0.0
H1709 H 0.97164 0.46098 0.8772 0.0
H1710 H 0.02918 0.45899 0.85959 0.0
H1711 H 0.9093 0.46859 0.8608 0.0
H1712 H 0.95692 0.43756 0.88366 0.0
H1713 H 0.98551 0.42187 0.8752 0.0
H1714 H 0.90425 0.41323 0.82424 0.0
H1715 H 0.8754 0.42893 0.83213 0.0
C1716 C 0.77312 0.44422 0.92062 0.0
C1717 C 0.7455 0.44885 0.90843 0.0
C1718 C 0.80607 0.44575 0.91169 0.0
C1719 C 0.81228 0.45189 0.89024 0.0
C1720 C 0.78485 0.45674 0.87837 0.0
C1721 C 0.75171 0.45528 0.88752 0.0
C1722 C 0.84721 0.45261 0.87944 0.0
C1723 C 0.86414 0.4439 0.87324 0.0
C1724 C 0.86384 0.46164 0.87524 0.0
C1725 C 0.84813 0.47106 0.88281 0.0
C1726 C 0.84451 0.47856 0.86423 0.0
C1727 C 0.82959 0.48743 0.87133 0.0
C1728 C 0.81834 0.4889 0.89699 0.0
C1729 C 0.8221 0.48152 0.91564 0.0
C1730 C 0.83703 0.47264 0.90865 0.0
C1731 C 0.98495 0.44741 0.81128 0.0
C1732 C 0.0132 0.45092 0.82518 0.0
C1733 C 0.95229 0.44864 0.82118 0.0
C1734 C 0.94717 0.45328 0.84536 0.0
C1735 C 0.97507 0.45736 0.85852 0.0
C1736 C 0.0079 0.45619 0.84848 0.0
C1737 C 0.91324 0.45296 0.85788 0.0
C1738 C 0.8966 0.4617 0.86429 0.0
C1739 C 0.89702 0.44395 0.86294 0.0
C1740 C 0.91416 0.43446 0.8583 0.0
C1741 C 0.94527 0.43234 0.87051 0.0
C1742 C 0.9615 0.42344 0.86584 0.0
C1743 C 0.94674 0.41656 0.84914 0.0
C1744 C 0.91567 0.41856 0.83714 0.0
C1745 C 0.89935 0.42746 0.84173 0.0
H1746 H 0.95935 0.40968 0.84555 0.0
H1747 H 0.80678 0.49577 0.90244 0.0
H1748 H 0.49707 0.43284 0.32762 0.0
H1749 H 0.43822 0.43692 0.33607 0.0
H1750 H 0.46588 0.46694 0.34985 0.0
H1751 H 0.52574 0.46283 0.34177 0.0
H1752 H 0.41965 0.46053 0.38562 0.0
H1753 H 0.42637 0.46113 0.29327 0.0
H1754 H 0.44268 0.45557 0.2491 0.0
H1755 H 0.38349 0.42955 0.25912 0.0
H1756 H 0.36721 0.43488 0.30351 0.0
H1757 H 0.23513 0.46374 0.39203 0.0
H1758 H 0.29226 0.46765 0.37552 0.0
H1759 H 0.31248 0.43695 0.3653 0.0
H1760 H 0.2563 0.43303 0.38206 0.0
H1761 H 0.33301 0.44901 0.32224 0.0
H1762 H 0.33923 0.44735 0.41836 0.0
H1763 H 0.32353 0.45301 0.46262 0.0
H1764 H 0.35815 0.48188 0.44385 0.0
H1765 H 0.37364 0.47641 0.39932 0.0
C1766 C 0.49083 0.44033 0.33243 0.0
C1767 C 0.5161 0.44754 0.33381 0.0
C1768 C 0.45704 0.44266 0.33712 0.0
C1769 C 0.44749 0.45228 0.34296 0.0
C1770 C 0.47268 0.45949 0.3451 0.0
C1771 C 0.5068 0.45713 0.34049 0.0
C1772 C 0.41106 0.45454 0.34714 0.0
C1773 C 0.40069 0.45828 0.37146 0.0
C1774 C 0.38625 0.45163 0.32864 0.0
C1775 C 0.39562 0.44841 0.30179 0.0
C1776 C 0.41695 0.4542 0.28612 0.0
C1777 C 0.42619 0.45109 0.26103 0.0
C1778 C 0.41414 0.44221 0.25132 0.0
C1779 C 0.39277 0.43643 0.26666 0.0
C1780 C 0.38348 0.43951 0.29178 0.0
C1781 C 0.25172 0.45787 0.38594 0.0
C1782 C 0.24141 0.44809 0.38843 0.0
C1783 C 0.28427 0.4601 0.37662 0.0
C1784 C 0.30652 0.45258 0.36925 0.0
C1785 C 0.29566 0.44286 0.37081 0.0
C1786 C 0.2636 0.44063 0.38051 0.0
C1787 C 0.34187 0.45455 0.36107 0.0
C1788 C 0.35199 0.45159 0.33597 0.0
C1789 C 0.36634 0.45826 0.37871 0.0
C1790 C 0.35713 0.46151 0.40545 0.0
C1791 C 0.34319 0.45493 0.42361 0.0
C1792 C 0.33439 0.4581 0.44874 0.0
C1793 C 0.33972 0.46781 0.45601 0.0
C1794 C 0.35395 0.47437 0.43817 0.0
C1795 C 0.36274 0.47124 0.41299 0.0
H1796 H 0.3329 0.47025 0.47548 0.0
H1797 H 0.42134 0.43981 0.23189 0.0
H1798 H 0.75965 0.81256 0.31736 0.0
H1799 H 0.81721 0.80802 0.3286 0.0
H1800 H 0.78026 0.7829 0.37075 0.0
H1801 H 0.72167 0.78755 0.3598 0.0
H1802 H 0.82859 0.79231 0.39829 0.0
H1803 H 0.82169 0.77946 0.31307 0.0
H1804 H 0.80701 0.77877 0.26616 0.0
H1805 H 0.87321 0.80296 0.25077 0.0
H1806 H 0.88792 0.8039 0.29764 0.0
H1807 H 0.0125 0.78765 0.41076 0.0
H1808 H 0.9561 0.78216 0.39592 0.0
H1809 H 0.93777 0.81054 0.36232 0.0
H1810 H 0.99306 0.81611 0.37776 0.0
H1811 H 0.91818 0.7931 0.33005 0.0
H1812 H 0.909 0.80791 0.41825 0.0
H1813 H 0.92331 0.80834 0.46529 0.0
H1814 H 0.8874 0.77894 0.47409 0.0
H1815 H 0.87333 0.77831 0.42696 0.0
C1816 C 0.76355 0.80603 0.32893 0.0
C1817 C 0.73601 0.80039 0.33759 0.0
C1818 C 0.79663 0.8034 0.33518 0.0
C1819 C 0.80317 0.79499 0.35 0.0
C1820 C 0.77579 0.78936 0.35904 0.0
C1821 C 0.74239 0.79203 0.35278 0.0
C1822 C 0.83879 0.79256 0.35679 0.0
C1823 C 0.84809 0.79216 0.38331 0.0
C1824 C 0.86436 0.79231 0.3373 0.0
C1825 C 0.85588 0.79175 0.30895 0.0
C1826 C 0.833 0.78467 0.29972 0.0
C1827 C 0.82468 0.78423 0.27312 0.0
C1828 C 0.83916 0.79081 0.2555 0.0
C1829 C 0.86204 0.79785 0.26444 0.0
C1830 C 0.87044 0.79833 0.29103 0.0
C1831 C 0.99654 0.79262 0.39981 0.0
C1832 C 0.0069 0.8023 0.39542 0.0
C1833 C 0.96445 0.7895 0.39144 0.0
C1834 C 0.94293 0.79596 0.37804 0.0
C1835 C 0.95411 0.80545 0.37252 0.0
C1836 C 0.9856 0.80862 0.38142 0.0
C1837 C 0.90764 0.79333 0.37136 0.0
C1838 C 0.89851 0.79282 0.34488 0.0
C1839 C 0.88229 0.7926 0.39082 0.0
C1840 C 0.89058 0.79302 0.41908 0.0
C1841 C 0.90447 0.80151 0.43018 0.0
C1842 C 0.91247 0.8018 0.45685 0.0
C1843 C 0.90639 0.79366 0.47265 0.0
C1844 C 0.89219 0.78523 0.46182 0.0
C1845 C 0.8842 0.7849 0.43513 0.0
H1846 H 0.91258 0.79389 0.4933 0.0
H1847 H 0.83267 0.79047 0.23492 0.0
H1848 H 0.77317 0.21345 0.14998 0.0
H1849 H 0.71656 0.21818 0.13403 0.0
H1850 H 0.70094 0.18894 0.10509 0.0
H1851 H 0.7567 0.18419 0.12121 0.0
H1852 H 0.67763 0.20366 0.07058 0.0
H1853 H 0.67294 0.19454 0.16365 0.0
H1854 H 0.68877 0.19675 0.21003 0.0
H1855 H 0.65117 0.22615 0.20805 0.0
H1856 H 0.63553 0.22414 0.1615 0.0
H1857 H 0.51634 0.18499 0.07011 0.0
H1858 H 0.57484 0.1894 0.07871 0.0
H1859 H 0.54277 0.21743 0.10816 0.0
H1860 H 0.48329 0.21296 0.09985 0.0
H1861 H 0.59087 0.20912 0.13946 0.0
H1862 H 0.58166 0.21643 0.04934 0.0
H1863 H 0.5651 0.214 0.00322 0.0
H1864 H 0.62863 0.18862 -0.00128 0.0
H1865 H 0.6452 0.1908 0.04492 0.0
C1866 C 0.75783 0.20812 0.13974 0.0
C1867 C 0.76914 0.19844 0.13693 0.0
C1868 C 0.72555 0.21081 0.13075 0.0
C1869 C 0.70457 0.20389 0.1185 0.0
C1870 C 0.71675 0.1944 0.11442 0.0
C1871 C 0.74856 0.19168 0.12374 0.0
C1872 C 0.66887 0.20607 0.11167 0.0
C1873 C 0.65861 0.20494 0.08554 0.0
C1874 C 0.64427 0.20806 0.13112 0.0
C1875 C 0.65351 0.20924 0.15906 0.0
C1876 C 0.66833 0.2015 0.17306 0.0
C1877 C 0.67721 0.20271 0.19938 0.0
C1878 C 0.6711 0.2116 0.21196 0.0
C1879 C 0.65598 0.21928 0.19826 0.0
C1880 C 0.6471 0.21811 0.17192 0.0
C1881 C 0.52153 0.19212 0.07836 0.0
C1882 C 0.4951 0.19864 0.08417 0.0
C1883 C 0.55512 0.19466 0.0831 0.0
C1884 C 0.56329 0.20383 0.09353 0.0
C1885 C 0.53702 0.21035 0.09985 0.0
C1886 C 0.50312 0.20779 0.0951 0.0
C1887 C 0.59942 0.20626 0.09846 0.0
C1888 C 0.60981 0.20823 0.12423 0.0
C1889 C 0.6242 0.20509 0.07862 0.0
C1890 C 0.61463 0.20378 0.05067 0.0
C1891 C 0.59198 0.2103 0.03857 0.0
C1892 C 0.5826 0.20897 0.0124 0.0
C1893 C 0.5958 0.20116 -0.00195 0.0
C1894 C 0.61846 0.19467 0.00984 0.0
C1895 C 0.62791 0.19597 0.03602 0.0
H1896 H 0.58849 0.20014 0.9778 0.0
H1897 H 0.67798 0.21252 0.23234 0.0
H1898 H 0.26872 0.54986 0.13703 0.0
H1899 H 0.21 0.54706 0.15073 0.0
H1900 H 0.18027 0.54405 0.06962 0.0
H1901 H 0.23835 0.54762 0.05612 0.0
H1902 H 0.13939 0.55526 0.08965 0.0
H1903 H 0.18023 0.52437 0.11824 0.0
H1904 H 0.21753 0.51268 0.14099 0.0
H1905 H 0.19138 0.52551 0.21506 0.0
H1906 H 0.15427 0.53736 0.19273 0.0
H1907 H 0.9683 0.54463 0.12647 0.0
H1908 H 0.02603 0.54065 0.1117 0.0
H1909 H 0.06704 0.55392 0.18145 0.0
H1910 H 0.00983 0.5581 0.19595 0.0
H1911 H 0.09943 0.53543 0.16479 0.0
H1912 H 0.06449 0.56754 0.13249 0.0
H1913 H 0.02597 0.57851 0.10838 0.0
H1914 H 0.04039 0.56161 0.03839 0.0
H1915 H 0.07864 0.55045 0.06224 0.0
C1916 C 0.24963 0.5484 0.12228 0.0
C1917 C 0.25778 0.54894 0.0956 0.0
C1918 C 0.21607 0.54674 0.13006 0.0
C1919 C 0.19043 0.54524 0.11125 0.0
C1920 C 0.19931 0.54524 0.08457 0.0
C1921 C 0.23252 0.54723 0.07684 0.0
C1922 C 0.15402 0.54471 0.11902 0.0
C1923 C 0.13076 0.5507 0.10569 0.0
C1924 C 0.14235 0.53893 0.14023 0.0
C1925 C 0.16465 0.53181 0.15377 0.0
C1926 C 0.18261 0.52474 0.13936 0.0
C1927 C 0.2037 0.51808 0.15219 0.0
C1928 C 0.20687 0.51836 0.17945 0.0
C1929 C 0.18891 0.5253 0.19394 0.0
C1930 C 0.16781 0.53199 0.18121 0.0
C1931 C 0.98964 0.54655 0.13879 0.0
C1932 C 0.98469 0.55175 0.16221 0.0
C1933 C 0.02251 0.54427 0.13037 0.0
C1934 C 0.05069 0.547 0.14553 0.0
C1935 C 0.0456 0.55171 0.16957 0.0
C1936 C 0.01293 0.55416 0.17771 0.0
C1937 C 0.08561 0.54592 0.13534 0.0
C1938 C 0.10839 0.53974 0.14836 0.0
C1939 C 0.09683 0.55136 0.11354 0.0
C1940 C 0.07404 0.5581 0.09921 0.0
C1941 C 0.05919 0.56612 0.11203 0.0
C1942 C 0.03746 0.57237 0.0984 0.0
C1943 C 0.03064 0.57074 0.07189 0.0
C1944 C 0.04563 0.56285 0.05893 0.0
C1945 C 0.06734 0.55656 0.07249 0.0
H1946 H 0.01382 0.57559 0.06137 0.0
H1947 H 0.22321 0.5132 0.18934 0.0
H1948 H 0.73817 0.56955 0.58195 0.0
H1949 H 0.6815 0.56546 0.59684 0.0
H1950 H 0.71814 0.538 0.62695 0.0
H1951 H 0.77572 0.54215 0.61224 0.0
H1952 H 0.6394 0.55117 0.5837 0.0
H1953 H 0.66763 0.53264 0.68169 0.0
H1954 H 0.71236 0.53192 0.71548 0.0
H1955 H 0.74332 0.56108 0.69605 0.0
H1956 H 0.69855 0.56199 0.66239 0.0
H1957 H 0.47649 0.54176 0.64057 0.0
H1958 H 0.53477 0.53821 0.62646 0.0
H1959 H 0.57162 0.56162 0.67531 0.0
H1960 H 0.51411 0.5651 0.68958 0.0
H1961 H 0.61362 0.54634 0.67791 0.0
H1962 H 0.55581 0.56505 0.61002 0.0
H1963 H 0.51112 0.56782 0.57703 0.0
H1964 H 0.53981 0.54147 0.53723 0.0
H1965 H 0.58444 0.53849 0.57021 0.0
C1966 C 0.73436 0.56263 0.59174 0.0
C1967 C 0.76154 0.55618 0.59596 0.0
C1968 C 0.7018 0.56027 0.60011 0.0
C1969 C 0.69548 0.55142 0.61295 0.0
C1970 C 0.72247 0.5449 0.61718 0.0
C1971 C 0.75532 0.54728 0.60879 0.0
C1972 C 0.66059 0.54934 0.62231 0.0
C1973 C 0.6338 0.54995 0.60426 0.0
C1974 C 0.65319 0.54776 0.6491 0.0
C1975 C 0.6801 0.54732 0.66931 0.0
C1976 C 0.684 0.53889 0.68467 0.0
C1977 C 0.70933 0.53845 0.70379 0.0
C1978 C 0.73076 0.54643 0.70783 0.0
C1979 C 0.72681 0.55488 0.69282 0.0
C1980 C 0.7015 0.55536 0.67369 0.0
C1981 C 0.49711 0.54606 0.64848 0.0
C1982 C 0.49065 0.55377 0.666 0.0
C1983 C 0.53036 0.54403 0.64041 0.0
C1984 C 0.55755 0.54969 0.64975 0.0
C1985 C 0.55113 0.55713 0.66794 0.0
C1986 C 0.51811 0.55916 0.67593 0.0
C1987 C 0.59248 0.5485 0.63941 0.0
C1988 C 0.61925 0.54723 0.65724 0.0
C1989 C 0.59991 0.5497 0.61249 0.0
C1990 C 0.57309 0.55148 0.59274 0.0
C1991 C 0.55238 0.55981 0.59435 0.0
C1992 C 0.52711 0.56142 0.57564 0.0
C1993 C 0.52254 0.5548 0.5551 0.0
C1994 C 0.54331 0.54657 0.55319 0.0
C1995 C 0.56859 0.54492 0.57188 0.0
H1996 H 0.50298 0.55607 0.54063 0.0
H1997 H 0.75037 0.54608 0.72264 0.0
H1998 H 0.97362 0.20496 0.61186 0.0
H1999 H 0.03146 0.2081 0.6269 0.0
H2000 H 0.06854 0.20361 0.54816 0.0
H2001 H 0.01106 0.19978 0.53367 0.0
H2002 H 0.10566 0.19404 0.57704 0.0
H2003 H 0.06869 0.22693 0.58282 0.0
H2004 H 0.03194 0.24078 0.59486 0.0
H2005 H 0.04801 0.23471 0.67645 0.0
H2006 H 0.08449 0.22074 0.66492 0.0
H2007 H 0.27433 0.2067 0.61837 0.0
H2008 H 0.21885 0.21024 0.59843 0.0
H2009 H 0.16896 0.2008 0.66916 0.0
H2010 H 0.22397 0.19693 0.68873 0.0
H2011 H 0.14212 0.21934 0.64061 0.0
H2012 H 0.17195 0.18459 0.63073 0.0
H2013 H 0.2109 0.17152 0.61659 0.0
H2014 H 0.21016 0.18291 0.53821 0.0
H2015 H 0.17157 0.19613 0.55204 0.0
C2016 C 0.99412 0.20483 0.59775 0.0
C2017 C 0.98801 0.20211 0.57166 0.0
C2018 C 0.02723 0.20669 0.60629 0.0
C2019 C 0.05466 0.20619 0.58867 0.0
C2020 C 0.04805 0.20398 0.56225 0.0
C2021 C 0.01517 0.20184 0.55393 0.0
C2022 C 0.09035 0.207 0.59813 0.0
C2023 C 0.11357 0.19975 0.59043 0.0
C2024 C 0.1011 0.21434 0.61591 0.0
C2025 C 0.07915 0.22273 0.62298 0.0
C2026 C 0.0642 0.2285 0.60334 0.0
C2027 C 0.04344 0.23638 0.61007 0.0
C2028 C 0.03759 0.23861 0.6364 0.0
C2029 C 0.05255 0.23297 0.65606 0.0
C2030 C 0.07331 0.22508 0.64943 0.0
C2031 C 0.25151 0.20557 0.62977 0.0
C2032 C 0.25329 0.20149 0.65498 0.0
C2033 C 0.21995 0.20759 0.61841 0.0
C2034 C 0.18995 0.20579 0.63242 0.0
C2035 C 0.19187 0.20229 0.65816 0.0
C2036 C 0.22324 0.20004 0.66922 0.0
C2037 C 0.1565 0.20643 0.61945 0.0
C2038 C 0.1339 0.21385 0.62669 0.0
C2039 C 0.14641 0.1994 0.60081 0.0
C2040 C 0.16929 0.1914 0.59248 0.0
C2041 C 0.18037 0.18435 0.61055 0.0
C2042 C 0.20232 0.17691 0.60258 0.0
C2043 C 0.2131 0.1764 0.57653 0.0
C2044 C 0.20185 0.18332 0.55839 0.0
C2045 C 0.17995 0.19079 0.56628 0.0
H2046 H 0.23008 0.17064 0.5704 0.0
H2047 H 0.02151 0.24471 0.64157 0.0
H2048 H 0.99578 0.20711 0.23579 0.0
H2049 H 0.01547 0.22165 0.25883 0.0
H2050 H 0.93521 0.23851 0.22354 0.0
H2051 H 0.91549 0.22397 0.20013 0.0
H2052 H 0.99291 0.2486 0.22341 0.0
H2053 H 0.92875 0.23139 0.28823 0.0
H2054 H 0.91054 0.21777 0.31648 0.0
H2055 H 0.01107 0.21551 0.34814 0.0
H2056 H 0.02982 0.22918 0.32018 0.0
H2057 H 0.99542 0.28882 0.3088 0.0
H2058 H 0.97569 0.2734 0.29044 0.0
H2059 H 0.06935 0.25958 0.31305 0.0
H2060 H 0.08977 0.27509 0.33118 0.0
H2061 H 0.0061 0.24796 0.32014 0.0
H2062 H 0.06779 0.26655 0.25565 0.0
H2063 H 0.08097 0.28144 0.23055 0.0
H2064 H 0.98017 0.28161 0.19885 0.0
H2065 H 0.96615 0.26682 0.22421 0.0
C2066 C 0.98249 0.21393 0.23265 0.0
C2067 C 0.95404 0.21437 0.21606 0.0
C2068 C 0.99362 0.22222 0.24607 0.0
C2069 C 0.97649 0.23114 0.2433 0.0
C2070 C 0.94875 0.23169 0.22609 0.0
C2071 C 0.93754 0.22338 0.21267 0.0
C2072 C 0.98762 0.23988 0.25831 0.0
C2073 C 0.99541 0.24847 0.24457 0.0
C2074 C 0.99147 0.23971 0.28593 0.0
C2075 C 0.98075 0.23123 0.30194 0.0
C2076 C 0.94704 0.22792 0.30104 0.0
C2077 C 0.93658 0.22024 0.31712 0.0
C2078 C 0.95965 0.21578 0.33409 0.0
C2079 C 0.99324 0.21899 0.335 0.0
C2080 C 0.00376 0.22672 0.31911 0.0
C2081 C 0.01161 0.28246 0.3105 0.0
C2082 C 0.04434 0.28321 0.32128 0.0
C2083 C 1.00029 0.27367 0.29986 0.0
C2084 C 0.0213 0.26542 0.30004 0.0
C2085 C 0.05287 0.2659 0.31264 0.0
C2086 C 0.06444 0.27475 0.32304 0.0
C2087 C 0.01126 0.25659 0.28521 0.0
C2088 C 0.00374 0.24802 0.29896 0.0
C2089 C 0.00728 0.25681 0.25765 0.0
C2090 C 0.0158 0.26563 0.24207 0.0
C2091 C 0.04832 0.26981 0.24352 0.0
C2092 C 0.05597 0.27822 0.22922 0.0
C2093 C 0.0314 0.28248 0.21316 0.0
C2094 C 0.99916 0.27831 0.21133 0.0
C2095 C 0.99135 0.26991 0.22566 0.0
H2096 H 0.03738 0.289 0.20211 0.0
H2097 H 0.95149 0.20983 0.34653 0.0
H2098 H 0.15751 0.97714 0.30852 0.0
H2099 H 0.17763 0.99175 0.28583 0.0
H2100 H 0.27838 0.97962 0.28252 0.0
H2101 H 0.25857 0.96501 0.30529 0.0
H2102 H 0.2778 1.00003 0.28991 0.0
H2103 H 0.22461 0.97561 0.23425 0.0
H2104 H 0.17714 0.96504 0.2207 0.0
H2105 H 0.11457 0.99025 0.2083 0.0
H2106 H 0.16127 1.00096 0.22261 0.0
H2107 H 0.34552 0.02625 0.18442 0.0
H2108 H 0.32524 0.01209 0.20894 0.0
H2109 H 0.2234 0.02348 0.2064 0.0
H2110 H 0.24338 0.03763 0.18176 0.0
H2111 H 0.22372 0.00374 0.20261 0.0
H2112 H 0.27056 0.02812 0.25833 0.0
H2113 H 0.31362 0.03981 0.27384 0.0
H2114 H 0.38312 0.01627 0.28777 0.0
H2115 H 0.3406 0.00443 0.27196 0.0
C2116 C 0.18418 0.9777 0.30374 0.0
C2117 C 0.20635 0.96985 0.30844 0.0
C2118 C 0.19559 0.98604 0.2906 0.0
C2119 C 0.22932 0.98666 0.28197 0.0
C2120 C 0.2522 0.97925 0.28884 0.0
C2121 C 0.2408 0.9709 0.30188 0.0
C2122 C 0.23993 0.99444 0.26349 0.0
C2123 C 0.26625 1.00078 0.27072 0.0
C2124 C 0.22423 0.99557 0.23869 0.0
C2125 C 0.19636 0.98909 0.22978 0.0
C2126 C 0.20063 0.9789 0.22888 0.0
C2127 C 0.17385 0.97288 0.22107 0.0
C2128 C 0.14289 0.97698 0.21363 0.0
C2129 C 0.13858 0.98709 0.21408 0.0
C2130 C 0.16516 0.99314 0.2221 0.0
C2131 C 0.31863 0.0256 0.18832 0.0
C2132 C 0.29612 0.03313 0.18135 0.0
C2133 C 0.30714 0.01755 0.20259 0.0
C2134 C 0.27297 0.01687 0.21006 0.0
C2135 C 0.24993 0.0239 0.20105 0.0
C2136 C 0.26141 0.03198 0.18688 0.0
C2137 C 0.26175 0.00928 0.22893 0.0
C2138 C 0.23534 0.00298 0.22177 0.0
C2139 C 0.27688 0.00832 0.25399 0.0
C2140 C 0.30252 0.0154 0.26367 0.0
C2141 C 0.29513 0.02544 0.26449 0.0
C2142 C 0.31942 0.0321 0.27337 0.0
C2143 C 0.35113 0.02879 0.28171 0.0
C2144 C 0.35856 0.01882 0.28126 0.0
C2145 C 0.33437 0.01213 0.27235 0.0
H2146 H 0.36989 0.03396 0.28858 0.0
H2147 H 0.12221 0.97235 0.20747 0.0
H2148 H 0.9054 0.02652 0.06095 0.0
H2149 H 0.92498 0.01165 0.0391 0.0
H2150 H 0.02478 0.02412 0.03106 0.0
H2151 H 0.0055 0.03897 0.05281 0.0
H2152 H 0.99943 0.01798 0.98432 0.0
H2153 H 0.01172 0.00505 0.07114 0.0
H2154 H 0.99371 1.00067 0.11585 0.0
H2155 H 0.9166 0.98189 0.08446 0.0
H2156 H 0.93382 0.98628 0.03953 0.0
H2157 H 0.08937 0.97636 0.93733 0.0
H2158 H 0.06719 0.99087 0.95918 0.0
H2159 H 0.97037 0.9767 0.96876 0.0
H2160 H 0.99249 0.96211 0.94722 0.0
H2161 H 0.99242 0.98364 0.01434 0.0
H2162 H 0.97978 0.99633 0.92775 0.0
H2163 H 0.99712 1.00066 0.88283 0.0
H2164 H 0.07366 0.01982 0.91336 0.0
H2165 H 0.05708 0.0155 0.95849 0.0
C2166 C 0.93176 0.02599 0.05521 0.0
C2167 C 0.95381 0.03397 0.05849 0.0
C2168 C 0.9429 0.01749 0.04265 0.0
C2169 C 0.97628 0.01681 0.03324 0.0
C2170 C 0.99885 0.02452 0.03798 0.0
C2171 C 0.9878 0.03299 0.05059 0.0
C2172 C 0.98691 0.00848 0.01652 0.0
C2173 C 0.99836 0.01047 0.99101 0.0
C2174 C 0.9844 0.99867 0.02493 0.0
C2175 C 0.97381 0.99609 0.05195 0.0
C2176 C 0.99068 1.00007 0.07376 0.0
C2177 C 0.98067 0.99757 0.09915 0.0
C2178 C 0.95395 0.99103 0.103 0.0
C2179 C 0.93724 0.98697 0.08146 0.0
C2180 C 0.94713 0.98946 0.05602 0.0
C2181 C 0.06308 0.97642 0.9434 0.0
C2182 C 0.04277 0.96805 0.9406 0.0
C2183 C 0.05041 0.98473 0.95596 0.0
C2184 C 0.01712 0.98487 0.96573 0.0
C2185 C 0.9962 0.97673 0.96154 0.0
C2186 C 0.00884 0.96842 0.94903 0.0
C2187 C 0.00511 0.99314 0.98215 0.0
C2188 C 0.99339 0.99114 0.0076 0.0
C2189 C 0.00721 0.00294 0.97364 0.0
C2190 C 0.01738 0.00552 0.94652 0.0
C2191 C 1.00051 0.0014 0.9249 0.0
C2192 C 0.01016 0.00387 0.89939 0.0
C2193 C 0.03653 0.01049 0.89524 0.0
C2194 C 0.05326 0.01468 0.9166 0.0
C2195 C 0.04372 0.01223 0.94215 0.0
H2196 H 0.04395 0.01239 0.87548 0.0
H2197 H 0.94626 0.98909 0.12267 0.0
H2198 H 0.34766 0.2265 0.06427 0.0
H2199 H 0.32846 0.24136 0.04221 0.0
H2200 H 0.22886 0.22888 0.03297 0.0
H2201 H 0.24769 0.21404 0.05501 0.0
H2202 H 0.25607 0.23531 0.98626 0.0
H2203 H 0.24008 0.24755 0.07383 0.0
H2204 H 0.25742 0.25146 0.11905 0.0
H2205 H 0.33523 0.27047 0.08986 0.0
H2206 H 0.31863 0.26657 0.04443 0.0
H2207 H 0.16304 0.2771 0.94249 0.0
H2208 H 0.18625 0.26233 0.96252 0.0
H2209 H 0.28206 0.27687 0.97393 0.0
H2210 H 0.25906 0.29166 0.95408 0.0
H2211 H 0.25945 0.26939 0.01884 0.0
H2212 H 0.27517 0.25786 0.93174 0.0
H2213 H 0.2608 0.2536 0.88616 0.0
H2214 H 0.18663 0.23306 0.91346 0.0
H2215 H 0.20016 0.23732 0.95924 0.0
C2216 C 0.32141 0.22702 0.05822 0.0
C2217 C 0.29927 0.21905 0.06132 0.0
C2218 C 0.31051 0.23551 0.04551 0.0
C2219 C 0.2773 0.23618 0.03574 0.0
C2220 C 0.25466 0.22848 0.04017 0.0
C2221 C 0.26544 0.22002 0.05297 0.0
C2222 C 0.2668 0.24459 0.0193 0.0
C2223 C 0.25628 0.24277 0.99347 0.0
C2224 C 0.26837 0.25431 0.02843 0.0
C2225 C 0.27834 0.25668 0.05573 0.0
C2226 C 0.26108 0.2525 0.07705 0.0
C2227 C 0.27073 0.25472 0.10272 0.0
C2228 C 0.29748 0.26118 0.10733 0.0
C2229 C 0.31455 0.26545 0.08626 0.0
C2230 C 0.30501 0.26324 0.06055 0.0
C2231 C 0.18934 0.27708 0.94859 0.0
C2232 C 0.2091 0.28559 0.94683 0.0
C2233 C 0.20259 0.26862 0.96006 0.0
C2234 C 0.23587 0.26851 0.96989 0.0
C2235 C 0.25626 0.27681 0.96665 0.0
C2236 C 0.24309 0.28525 0.95515 0.0
C2237 C 0.24824 0.26013 0.98576 0.0
C2238 C 0.2592 0.26195 0.01153 0.0
C2239 C 0.24726 0.2504 0.97649 0.0
C2240 C 0.2384 0.24801 0.94896 0.0
C2241 C 0.25548 0.25253 0.92805 0.0
C2242 C 0.24756 0.25009 0.90216 0.0
C2243 C 0.22274 0.24308 0.89692 0.0
C2244 C 0.2058 0.2385 0.91755 0.0
C2245 C 0.21359 0.24093 0.94348 0.0
H2246 H 0.2167 0.24119 0.87686 0.0
H2247 H 0.30491 0.2629 0.12721 0.0
H2248 H 0.01491 0.71434 0.69721 0.0
H2249 H 0.03302 0.72869 0.72175 0.0
H2250 H 0.93535 0.74201 0.70929 0.0
H2251 H 0.91679 0.7276 0.68471 0.0
H2252 H 0.98992 0.75547 0.70758 0.0
H2253 H 0.9452 0.7307 0.76318 0.0
H2254 H 0.93894 0.71401 0.78051 0.0
H2255 H 0.04277 0.71423 0.80568 0.0
H2256 H 0.04992 0.73085 0.78792 0.0
H2257 H 0.99855 0.7889 0.81104 0.0
H2258 H 0.9777 0.77422 0.78934 0.0
H2259 H 0.0775 0.76151 0.7933 0.0
H2260 H 0.09886 0.77626 0.8148 0.0
H2261 H 0.01961 0.74785 0.79996 0.0
H2262 H 0.06196 0.77344 0.74291 0.0
H2263 H 0.06364 0.79053 0.72793 0.0
H2264 H 0.95847 0.78898 0.70673 0.0
H2265 H 0.95588 0.77196 0.72239 0.0
C2266 C 0.99748 0.72041 0.69906 0.0
C2267 C 0.96424 0.71977 0.68923 0.0
C2268 C 0.00786 0.72859 0.71323 0.0
C2269 C 0.98528 0.73631 0.71778 0.0
C2270 C 0.95307 0.73609 0.70611 0.0
C2271 C 0.94255 0.72786 0.69201 0.0
C2272 C 0.99438 0.74414 0.7366 0.0
C2273 C 0.99606 0.75382 0.72782 0.0
C2274 C 0.00243 0.74197 0.76303 0.0
C2275 C 0.99821 0.73199 0.77395 0.0
C2276 C 0.96681 0.72716 0.77218 0.0
C2277 C 0.96307 0.71772 0.78213 0.0
C2278 C 0.99043 0.71306 0.79417 0.0
C2279 C 0.0216 0.71784 0.79631 0.0
C2280 C 0.02552 0.72728 0.7863 0.0
C2281 C 0.01593 0.78288 0.8081 0.0
C2282 C 0.05054 0.78382 0.8143 0.0
C2283 C 0.00392 0.7745 0.79561 0.0
C2284 C 0.02622 0.76689 0.7893 0.0
C2285 C 0.05996 0.76735 0.79791 0.0
C2286 C 0.0721 0.77578 0.81023 0.0
C2287 C 0.0155 0.75913 0.77084 0.0
C2288 C 0.01349 0.74948 0.7797 0.0
C2289 C 0.00666 0.76135 0.74459 0.0
C2290 C 0.0086 0.77146 0.73419 0.0
C2291 C 0.03908 0.77677 0.73534 0.0
C2292 C 0.04017 0.78646 0.72682 0.0
C2293 C 0.01109 0.79086 0.71661 0.0
C2294 C 0.98091 0.78557 0.71481 0.0
C2295 C 0.97961 0.77591 0.72354 0.0
H2296 H 0.012 0.79834 0.70982 0.0
H2297 H 0.98746 0.70575 0.80188 0.0
H2298 H 0.75135 0.96262 0.79794 0.0
H2299 H 0.77252 0.97735 0.77672 0.0
H2300 H 0.67304 0.99028 0.78162 0.0
H2301 H 0.65148 0.97547 0.80258 0.0
H2302 H 0.69743 0.99139 0.73279 0.0
H2303 H 0.73937 0.99886 0.81848 0.0
H2304 H 0.77001 0.99592 0.85984 0.0
H2305 H 0.86311 0.99237 0.81735 0.0
H2306 H 0.83294 0.99514 0.77568 0.0
H2307 H 0.74444 0.03953 0.69446 0.0
H2308 H 0.72351 0.02457 0.71462 0.0
H2309 H 0.82325 0.01185 0.70899 0.0
H2310 H 0.84457 0.02688 0.68908 0.0
H2311 H 0.79901 0.01054 0.75791 0.0
H2312 H 0.75704 0.0032 0.6722 0.0
H2313 H 0.72636 0.00623 0.63091 0.0
H2314 H 0.63327 0.00965 0.67351 0.0
H2315 H 0.66348 0.00676 0.71511 0.0
C2316 C 0.73409 0.96867 0.79508 0.0
C2317 C 0.69967 0.96785 0.80192 0.0
C2318 C 0.74628 0.97711 0.78292 0.0
C2319 C 0.72438 0.98493 0.77752 0.0
C2320 C 0.69037 0.98432 0.78549 0.0
C2321 C 0.67815 0.97588 0.79767 0.0
C2322 C 0.73639 0.9934 0.76189 0.0
C2323 C 0.71933 0.99568 0.73851 0.0
C2324 C 0.7656 0.99881 0.76888 0.0
C2325 C 0.78381 0.99711 0.79392 0.0
C2326 C 0.76632 0.99736 0.81793 0.0
C2327 C 0.78362 0.99574 0.84144 0.0
C2328 C 0.81847 0.99393 0.84122 0.0
C2329 C 0.83611 0.99376 0.81749 0.0
C2330 C 0.81892 0.99536 0.79392 0.0
C2331 C 0.76179 0.03347 0.69688 0.0
C2332 C 0.79624 0.03442 0.69024 0.0
C2333 C 0.74974 0.0249 0.70843 0.0
C2334 C 0.7718 0.01708 0.7134 0.0
C2335 C 0.80579 0.01781 0.70544 0.0
C2336 C 0.81788 0.02638 0.69385 0.0
C2337 C 0.76004 0.00852 0.72882 0.0
C2338 C 0.77714 0.00624 0.75217 0.0
C2339 C 0.73086 0.00312 0.72181 0.0
C2340 C 0.71261 0.00485 0.69681 0.0
C2341 C 0.73008 0.00468 0.67279 0.0
C2342 C 0.71276 0.00635 0.64932 0.0
C2343 C 0.67791 0.00815 0.64959 0.0
C2344 C 0.66028 0.00826 0.67333 0.0
C2345 C 0.67748 0.00659 0.69686 0.0
H2346 H 0.66454 0.00945 0.6314 0.0
H2347 H 0.83182 0.99269 0.85944 0.0
H2348 H 0.75319 0.79098 0.94506 0.0
H2349 H 0.7766 0.77636 0.96562 0.0
H2350 H 0.67841 0.7626 0.96221 0.0
H2351 H 0.65474 0.7772 0.94164 0.0
H2352 H 0.70544 0.76247 0.01176 0.0
H2353 H 0.74179 0.75418 0.92491 0.0
H2354 H 0.76987 0.75683 0.88236 0.0
H2355 H 0.86536 0.7608 0.9213 0.0
H2356 H 0.83776 0.75831 0.96415 0.0
H2357 H 0.75176 0.71443 0.04994 0.0
H2358 H 0.73086 0.72946 0.03012 0.0
H2359 H 0.83186 0.74149 0.03174 0.0
H2360 H 0.85312 0.72638 0.05136 0.0
H2361 H 0.80473 0.74288 0.98375 0.0
H2362 H 0.76924 0.75088 0.07042 0.0
H2363 H 0.7416 0.7484 0.11322 0.0
H2364 H 0.64515 0.74524 0.07517 0.0
H2365 H 0.67228 0.74757 0.03209 0.0
C2366 C 0.73674 0.78475 0.94804 0.0
C2367 C 0.70206 0.78527 0.94177 0.0
C2368 C 0.75018 0.7764 0.95984 0.0
C2369 C 0.72921 0.76841 0.96558 0.0
C2370 C 0.695 0.7687 0.95805 0.0
C2371 C 0.68158 0.77703 0.94608 0.0
C2372 C 0.74231 0.76011 0.9813 0.0
C2373 C 0.72683 0.75808 0.00546 0.0
C2374 C 0.77098 0.75463 0.97351 0.0
C2375 C 0.78763 0.75616 0.94777 0.0
C2376 C 0.76872 0.75571 0.92443 0.0
C2377 C 0.78456 0.75716 0.90025 0.0
C2378 C 0.81936 0.75901 0.89913 0.0
C2379 C 0.8384 0.75939 0.92219 0.0
C2380 C 0.82267 0.75795 0.94643 0.0
C2381 C 0.76944 0.72036 0.0467 0.0
C2382 C 0.80415 0.71919 0.05216 0.0
C2383 C 0.75742 0.72896 0.03536 0.0
C2384 C 0.77979 0.73661 0.02937 0.0
C2385 C 0.81416 0.73567 0.0361 0.0
C2386 C 0.82622 0.72706 0.04752 0.0
C2387 C 0.76771 0.74518 0.01418 0.0
C2388 C 0.78339 0.74728 0.99011 0.0
C2389 C 0.73929 0.75075 0.02211 0.0
C2390 C 0.72287 0.74931 0.04799 0.0
C2391 C 0.74218 0.74957 0.07115 0.0
C2392 C 0.7266 0.74821 0.09547 0.0
C2393 C 0.69166 0.74664 0.09691 0.0
C2394 C 0.67222 0.74645 0.07402 0.0
C2395 C 0.68769 0.7478 0.04965 0.0
H2396 H 0.67964 0.74559 0.11576 0.0
H2397 H 0.83158 0.76013 0.88038 0.0
H2398 H 0.24022 0.53952 0.69561 0.0
H2399 H 0.22015 0.52496 0.71829 0.0
H2400 H 0.31757 0.51132 0.70734 0.0
H2401 H 0.33811 0.52591 0.68471 0.0
H2402 H 0.26101 0.49815 0.70416 0.0
H2403 H 0.30622 0.52331 0.75908 0.0
H2404 H 0.31106 0.54008 0.77574 0.0
H2405 H 0.20868 0.53884 0.80403 0.0
H2406 H 0.20278 0.52213 0.78664 0.0
H2407 H 0.25582 0.46425 0.80532 0.0
H2408 H 0.2757 0.47931 0.78505 0.0
H2409 H 0.17515 0.49145 0.79022 0.0
H2410 H 0.15476 0.47632 0.81033 0.0
H2411 H 0.23395 0.50547 0.79725 0.0
H2412 H 0.18624 0.48172 0.7377 0.0
H2413 H 0.17993 0.46476 0.72274 0.0
H2414 H 0.28619 0.46345 0.70494 0.0
H2415 H 0.29323 0.48042 0.7203 0.0
C2416 C 0.25715 0.53332 0.69727 0.0
C2417 C 0.29098 0.53394 0.68869 0.0
C2418 C 0.24562 0.52502 0.71036 0.0
C2419 C 0.26764 0.51718 0.715 0.0
C2420 C 0.30029 0.51734 0.7041 0.0
C2421 C 0.31195 0.52569 0.69112 0.0
C2422 C 0.25786 0.50937 0.73361 0.0
C2423 C 0.25545 0.49975 0.72453 0.0
C2424 C 0.2502 0.51149 0.7602 0.0
C2425 C 0.25387 0.52149 0.77114 0.0
C2426 C 0.2845 0.52665 0.76843 0.0
C2427 C 0.28743 0.53617 0.77798 0.0
C2428 C 0.26011 0.54056 0.79079 0.0
C2429 C 0.22979 0.53544 0.79403 0.0
C2430 C 0.22662 0.52594 0.78426 0.0
C2431 C 0.23807 0.47022 0.80298 0.0
C2432 C 0.20355 0.46902 0.80909 0.0
C2433 C 0.24953 0.47883 0.79136 0.0
C2434 C 0.22679 0.48642 0.78586 0.0
C2435 C 0.19308 0.48566 0.79435 0.0
C2436 C 0.18147 0.47699 0.8058 0.0
C2437 C 0.23693 0.49432 0.76767 0.0
C2438 C 0.23952 0.50393 0.77685 0.0
C2439 C 0.24463 0.49224 0.74117 0.0
C2440 C 0.2403 0.48229 0.73034 0.0
C2441 C 0.20827 0.47781 0.73061 0.0
C2442 C 0.20455 0.46819 0.72208 0.0
C2443 C 0.23261 0.46299 0.71296 0.0
C2444 C 0.26444 0.46747 0.71205 0.0
C2445 C 0.26833 0.4771 0.72065 0.0
H2446 H 0.22963 0.4555 0.70671 0.0
H2447 H 0.26248 0.54791 0.79834 0.0
H2448 H 0.99937 0.4615 0.45769 0.0
H2449 H 0.97913 0.47624 0.4795 0.0
H2450 H 0.0737 0.49064 0.46219 0.0
H2451 H 0.09432 0.47585 0.44048 0.0
H2452 H 0.05689 0.49234 0.51357 0.0
H2453 H 0.0014 0.49731 0.43111 0.0
H2454 H 0.96553 0.49293 0.39332 0.0
H2455 H 0.88023 0.48897 0.44446 0.0
H2456 H 0.91572 0.49319 0.48262 0.0
H2457 H 0.00843 0.54074 0.54755 0.0
H2458 H 0.02842 0.52549 0.52844 0.0
H2459 H 0.9318 0.51207 0.54467 0.0
H2460 H 0.91134 0.5274 0.56353 0.0
H2461 H 0.94913 0.50959 0.49458 0.0
H2462 H 0.0042 0.50495 0.57701 0.0
H2463 H 0.03999 0.50934 0.61483 0.0
H2464 H 0.12595 0.51265 0.56402 0.0
H2465 H 0.09055 0.50842 0.52582 0.0
C2466 C 0.01566 0.46786 0.45803 0.0
C2467 C 0.04849 0.46749 0.44732 0.0
C2468 C 0.00402 0.47629 0.47053 0.0
C2469 C 0.02489 0.48455 0.47249 0.0
C2470 C 0.0572 0.48434 0.46097 0.0
C2471 C 0.06885 0.4759 0.44837 0.0
C2472 C 0.01368 0.49318 0.48786 0.0
C2473 C 0.03358 0.49622 0.50918 0.0
C2474 C 0.98273 0.49802 0.48267 0.0
C2475 C 0.96132 0.49547 0.45976 0.0
C2476 C 0.97507 0.49542 0.43433 0.0
C2477 C 0.95478 0.49299 0.41284 0.0
C2478 C 0.92064 0.49065 0.4165 0.0
C2479 C 0.90669 0.49077 0.44166 0.0
C2480 C 0.92687 0.49319 0.46322 0.0
C2481 C 0.99164 0.53448 0.54767 0.0
C2482 C 0.95821 0.53531 0.557 0.0
C2483 C 0.00317 0.52574 0.53673 0.0
C2484 C 0.98162 0.51761 0.53507 0.0
C2485 C 0.94883 0.51826 0.54566 0.0
C2486 C 0.93726 0.52701 0.55663 0.0
C2487 C 0.99237 0.50879 0.52029 0.0
C2488 C 0.9724 0.50571 0.49905 0.0
C2489 C 0.02324 0.5039 0.52558 0.0
C2490 C 0.04462 0.50645 0.54851 0.0
C2491 C 0.03066 0.5067 0.57386 0.0
C2492 C 0.0509 0.50914 0.59538 0.0
C2493 C 0.0852 0.51129 0.59182 0.0
C2494 C 0.09936 0.51099 0.56674 0.0
C2495 C 0.07923 0.50856 0.54516 0.0
H2496 H 0.10083 0.51318 0.6085 0.0
H2497 H 0.90498 0.48877 0.39983 0.0
H2498 H 0.3378 0.7255 0.55427 0.0
H2499 H 0.31585 0.74046 0.53446 0.0
H2500 H 0.22076 0.72608 0.51866 0.0
H2501 H 0.24266 0.71107 0.53807 0.0
H2502 H 0.24393 0.73486 0.47573 0.0
H2503 H 0.22735 0.74403 0.56546 0.0
H2504 H 0.24378 0.74668 0.61153 0.0
H2505 H 0.31875 0.76753 0.5874 0.0
H2506 H 0.30307 0.7649 0.54113 0.0
H2507 H 0.15101 0.7775 0.4378 0.0
H2508 H 0.17287 0.76239 0.45684 0.0
H2509 H 0.26825 0.77656 0.47294 0.0
H2510 H 0.24645 0.79171 0.4543 0.0
H2511 H 0.24466 0.76784 0.51571 0.0
H2512 H 0.26103 0.75869 0.42591 0.0
H2513 H 0.24464 0.75599 0.37986 0.0
H2514 H 0.16996 0.73507 0.4041 0.0
H2515 H 0.18559 0.73775 0.45036 0.0
C2516 C 0.31195 0.72558 0.54712 0.0
C2517 C 0.29201 0.71708 0.54773 0.0
C2518 C 0.29943 0.73415 0.53576 0.0
C2519 C 0.26663 0.7344 0.52502 0.0
C2520 C 0.24619 0.72605 0.52667 0.0
C2521 C 0.2587 0.71748 0.53795 0.0
C2522 C 0.25439 0.74316 0.51068 0.0
C2523 C 0.2436 0.74205 0.48461 0.0
C2524 C 0.25482 0.75259 0.52199 0.0
C2525 C 0.26425 0.7542 0.54981 0.0
C2526 C 0.24753 0.74912 0.56996 0.0
C2527 C 0.25667 0.75063 0.59612 0.0
C2528 C 0.28235 0.75725 0.60239 0.0
C2529 C 0.29889 0.76239 0.58251 0.0
C2530 C 0.28986 0.76091 0.55632 0.0
C2531 C 0.17691 0.77734 0.44482 0.0
C2532 C 0.19693 0.78583 0.44461 0.0
C2533 C 0.18938 0.76869 0.45574 0.0
C2534 C 0.22221 0.76834 0.46641 0.0
C2535 C 0.24279 0.77667 0.465 0.0
C2536 C 0.23033 0.78532 0.45417 0.0
C2537 C 0.23425 0.75955 0.48073 0.0
C2538 C 0.24499 0.76065 0.50682 0.0
C2539 C 0.23373 0.75012 0.46943 0.0
C2540 C 0.22425 0.7485 0.44163 0.0
C2541 C 0.24091 0.75358 0.42145 0.0
C2542 C 0.23179 0.75204 0.3953 0.0
C2543 C 0.20621 0.74538 0.38906 0.0
C2544 C 0.18974 0.74024 0.40896 0.0
C2545 C 0.19873 0.74176 0.43515 0.0
H2546 H 0.1992 0.74419 0.36881 0.0
H2547 H 0.28939 0.75841 0.62265 0.0
H2548 H 0.64758 0.47388 0.29276 0.0
H2549 H 0.66421 0.48869 0.26925 0.0
H2550 H 0.76813 0.48419 0.29225 0.0
H2551 H 0.75192 0.46918 0.31515 0.0
H2552 H 0.73573 0.50563 0.29187 0.0
H2553 H 0.7595 0.47589 0.24081 0.0
H2554 H 0.74183 0.46007 0.22216 0.0
H2555 H 0.66101 0.4742 0.1805 0.0
H2556 H 0.67783 0.49007 0.19934 0.0
H2557 H 0.82768 0.52633 0.17607 0.0
H2558 H 0.80536 0.5117 0.19752 0.0
H2559 H 0.71284 0.52699 0.21565 0.0
H2560 H 0.73455 0.54157 0.194 0.0
H2561 H 0.74038 0.50005 0.1957 0.0
H2562 H 0.70521 0.52331 0.28435 0.0
H2563 H 0.71687 0.53975 0.30184 0.0
H2564 H 0.81613 0.53917 0.26744 0.0
H2565 H 0.80548 0.5226 0.25046 0.0
C2566 C 0.6738 0.47621 0.29357 0.0
C2567 C 0.69849 0.47036 0.30574 0.0
C2568 C 0.68325 0.48464 0.28 0.0
C2569 C 0.71738 0.48745 0.27889 0.0
C2570 C 0.74166 0.48211 0.29293 0.0
C2571 C 0.73236 0.47356 0.30602 0.0
C2572 C 0.7282 0.49525 0.26075 0.0
C2573 C 0.73681 0.50443 0.27087 0.0
C2574 C 0.72938 0.49365 0.23336 0.0
C2575 C 0.7197 0.48414 0.2217 0.0
C2576 C 0.73777 0.4756 0.22788 0.0
C2577 C 0.72794 0.46663 0.21725 0.0
C2578 C 0.70026 0.46613 0.20021 0.0
C2579 C 0.68241 0.4746 0.19373 0.0
C2580 C 0.69208 0.48358 0.20438 0.0
C2581 C 0.80211 0.52648 0.18376 0.0
C2582 C 0.7831 0.53517 0.18363 0.0
C2583 C 0.78941 0.51811 0.19603 0.0
C2584 C 0.75775 0.51835 0.20853 0.0
C2585 C 0.73747 0.52671 0.20629 0.0
C2586 C 0.74995 0.53503 0.19383 0.0
C2587 C 0.74793 0.51045 0.22679 0.0
C2588 C 0.73943 0.50126 0.2167 0.0
C2589 C 0.74654 0.51208 0.2542 0.0
C2590 C 0.75431 0.52177 0.26579 0.0
C2591 C 0.72963 0.52665 0.2807 0.0
C2592 C 0.73604 0.536 0.29049 0.0
C2593 C 0.76706 0.54054 0.2855 0.0
C2594 C 0.79196 0.53569 0.27103 0.0
C2595 C 0.7858 0.5263 0.26141 0.0
H2596 H 0.77187 0.54777 0.29311 0.0
H2597 H 0.69272 0.45919 0.19196 0.0
H2598 H 0.75179 0.21433 0.54995 0.0
H2599 H 0.734 0.22954 0.52934 0.0
H2600 H 0.83424 0.24139 0.53983 0.0
H2601 H 0.85268 0.22606 0.56008 0.0
H2602 H 0.77194 0.25516 0.54662 0.0
H2603 H 0.82896 0.2331 0.48704 0.0
H2604 H 0.839 0.21666 0.46918 0.0
H2605 H 0.73547 0.21512 0.44353 0.0
H2606 H 0.72465 0.23151 0.4618 0.0
H2607 H 0.77092 0.29103 0.44819 0.0
H2608 H 0.78973 0.27662 0.47218 0.0
H2609 H 0.69666 0.26187 0.4525 0.0
H2610 H 0.67726 0.27634 0.42863 0.0
H2611 H 0.75544 0.24966 0.45121 0.0
H2612 H 0.69927 0.27231 0.50812 0.0
H2613 H 0.6879 0.28824 0.52885 0.0
H2614 H 0.78858 0.28861 0.56078 0.0
H2615 H 0.80078 0.27276 0.53982 0.0
C2616 C 0.76989 0.22025 0.54865 0.0
C2617 C 0.80381 0.21893 0.5564 0.0
C2618 C 0.75962 0.22894 0.53682 0.0
C2619 C 0.78292 0.23652 0.53286 0.0
C2620 C 0.81593 0.23561 0.54277 0.0
C2621 C 0.8264 0.22684 0.55431 0.0
C2622 C 0.77401 0.2447 0.51524 0.0
C2623 C 0.76878 0.25403 0.52573 0.0
C2624 C 0.76925 0.24312 0.48809 0.0
C2625 C 0.77591 0.23346 0.47605 0.0
C2626 C 0.80828 0.22922 0.47774 0.0
C2627 C 0.81412 0.21991 0.46755 0.0
C2628 C 0.78785 0.2148 0.45538 0.0
C2629 C 0.75577 0.21905 0.45309 0.0
C2630 C 0.74977 0.22836 0.46335 0.0
C2631 C 0.75472 0.28465 0.44834 0.0
C2632 C 0.7224 0.28488 0.43667 0.0
C2633 C 0.76547 0.27644 0.46224 0.0
C2634 C 0.74428 0.26828 0.46455 0.0
C2635 C 0.71326 0.26814 0.45109 0.0
C2636 C 0.70229 0.27641 0.43736 0.0
C2637 C 0.75354 0.26021 0.48249 0.0
C2638 C 0.75873 0.25086 0.47207 0.0
C2639 C 0.75824 0.2618 0.50972 0.0
C2640 C 0.75109 0.27139 0.52212 0.0
C2641 C 0.71913 0.27584 0.51929 0.0
C2642 C 0.7125 0.28484 0.53114 0.0
C2643 C 0.73753 0.28944 0.54607 0.0
C2644 C 0.76924 0.28504 0.54917 0.0
C2645 C 0.77603 0.27605 0.53731 0.0
H2646 H 0.73234 0.29639 0.55531 0.0
H2647 H 0.79241 0.20756 0.44775 0.0
H2648 H 0.4964 0.29025 0.79953 0.0
H2649 H 0.474 0.27551 0.77908 0.0
H2650 H 0.57117 0.26147 0.78797 0.0
H2651 H 0.59395 0.27627 0.80823 0.0
H2652 H 0.54913 0.26044 0.73818 0.0
H2653 H 0.50208 0.2538 0.82272 0.0
H2654 H 0.4699 0.25729 0.86306 0.0
H2655 H 0.37952 0.26174 0.81773 0.0
H2656 H 0.41128 0.25841 0.77706 0.0
H2657 H 0.49718 0.21285 0.69858 0.0
H2658 H 0.51924 0.22756 0.71936 0.0
H2659 H 0.42161 0.2414 0.71118 0.0
H2660 H 0.39914 0.22662 0.69064 0.0
H2661 H 0.44381 0.24257 0.76061 0.0
H2662 H 0.49064 0.24919 0.6761 0.0
H2663 H 0.52274 0.24582 0.63566 0.0
H2664 H 0.61343 0.24153 0.68073 0.0
H2665 H 0.58175 0.24473 0.7215 0.0
C2666 C 0.51281 0.28395 0.79779 0.0
C2667 C 0.54703 0.28446 0.80545 0.0
C2668 C 0.49993 0.27551 0.78607 0.0
C2669 C 0.52092 0.26738 0.78188 0.0
C2670 C 0.55455 0.26767 0.79089 0.0
C2671 C 0.56746 0.27611 0.80269 0.0
C2672 C 0.50859 0.25896 0.76617 0.0
C2673 C 0.52641 0.25642 0.74333 0.0
C2674 C 0.47832 0.25393 0.77238 0.0
C2675 C 0.45916 0.25595 0.79681 0.0
C2676 C 0.47541 0.2556 0.82132 0.0
C2677 C 0.45723 0.25754 0.84426 0.0
C2678 C 0.42271 0.25976 0.84295 0.0
C2679 C 0.40628 0.26003 0.81871 0.0
C2680 C 0.42435 0.25811 0.79571 0.0
C2681 C 0.48056 0.2191 0.70058 0.0
C2682 C 0.44633 0.21854 0.693 0.0
C2683 C 0.49326 0.22753 0.71249 0.0
C2684 C 0.47209 0.2356 0.71692 0.0
C2685 C 0.43838 0.23525 0.70808 0.0
C2686 C 0.42565 0.22682 0.69612 0.0
C2687 C 0.48437 0.24404 0.73262 0.0
C2688 C 0.46654 0.24658 0.75545 0.0
C2689 C 0.51461 0.24908 0.72639 0.0
C2690 C 0.53372 0.24711 0.7019 0.0
C2691 C 0.51735 0.24744 0.67742 0.0
C2692 C 0.53549 0.24558 0.65443 0.0
C2693 C 0.57008 0.24344 0.65563 0.0
C2694 C 0.58662 0.24317 0.67983 0.0
C2695 C 0.56859 0.24502 0.70289 0.0
H2696 H 0.58408 0.242 0.6378 0.0
H2697 H 0.40868 0.26125 0.86073 0.0
H2698 H 0.41116 0.02709 0.55277 0.0
H2699 H 0.43263 0.01222 0.53224 0.0
H2700 H 0.53236 0.025 0.52744 0.0
H2701 H 0.51092 0.03996 0.54751 0.0
H2702 H 0.51382 0.01816 0.48118 0.0
H2703 H 0.51472 0.0056 0.56872 0.0
H2704 H 0.49119 0.00174 0.61225 0.0
H2705 H 0.41531 0.98361 0.57662 0.0
H2706 H 0.43811 0.98746 0.53282 0.0
H2707 H 0.60066 0.97493 0.43983 0.0
H2708 H 0.57992 0.98976 0.46108 0.0
H2709 H 0.47926 0.97754 0.46422 0.0
H2710 H 0.49984 0.96266 0.44324 0.0
H2711 H 0.49862 0.98407 0.51144 0.0
H2712 H 0.49774 0.99673 0.42389 0.0
H2713 H 0.52145 1.00058 0.38042 0.0
H2714 H 0.59769 0.01852 0.41627 0.0
H2715 H 0.5747 0.01467 0.46002 0.0
C2716 C 0.43787 0.02665 0.54802 0.0
C2717 C 0.45929 0.03474 0.55172 0.0
C2718 C 0.45013 0.01813 0.53621 0.0
C2719 C 0.48414 0.01749 0.52818 0.0
C2720 C 0.50599 0.02534 0.53328 0.0
C2721 C 0.49373 0.03387 0.54496 0.0
C2722 C 0.49625 0.00897 0.51265 0.0
C2723 C 0.511 0.01071 0.48801 0.0
C2724 C 0.49169 0.99924 0.52115 0.0
C2725 C 0.47794 0.9969 0.54747 0.0
C2726 C 0.49285 1.00085 0.57014 0.0
C2727 C 0.47967 0.99865 0.59487 0.0
C2728 C 0.45172 0.99245 0.59719 0.0
C2729 C 0.43694 0.98842 0.57479 0.0
C2730 C 0.45 0.9906 0.55001 0.0
C2731 C 0.57393 0.97549 0.44443 0.0
C2732 C 0.55195 0.96758 0.43988 0.0
C2733 C 0.5621 0.98398 0.45664 0.0
C2734 C 0.52802 0.98476 0.46436 0.0
C2735 C 0.50569 0.97708 0.4586 0.0
C2736 C 0.51748 0.9686 0.44642 0.0
C2737 C 0.51619 0.99326 0.48001 0.0
C2738 C 0.50148 0.99152 0.50465 0.0
C2739 C 0.52083 0.003 0.47154 0.0
C2740 C 0.53469 0.00533 0.44525 0.0
C2741 C 0.51974 0.00143 0.42253 0.0
C2742 C 0.53301 0.00362 0.39783 0.0
C2743 C 0.56112 0.00977 0.39559 0.0
C2744 C 0.57595 0.01375 0.41804 0.0
C2745 C 0.56278 0.01157 0.44279 0.0
H2746 H 0.57136 0.01146 0.37645 0.0
H2747 H 0.44156 0.99076 0.61636 0.0
H2748 H 0.59359 0.77601 0.31044 0.0
H2749 H 0.57518 0.76113 0.28811 0.0
H2750 H 0.47286 0.77214 0.28525 0.0
H2751 H 0.49093 0.78699 0.30773 0.0
H2752 H 0.47473 0.75228 0.29318 0.0
H2753 H 0.52542 0.77602 0.23576 0.0
H2754 H 0.57104 0.78701 0.22104 0.0
H2755 H 0.63737 0.76249 0.21038 0.0
H2756 H 0.59254 0.75137 0.22593 0.0
H2757 H 0.41084 0.72411 0.18935 0.0
H2758 H 0.42987 0.73874 0.21252 0.0
H2759 H 0.53187 0.72746 0.21425 0.0
H2760 H 0.51316 0.71284 0.19093 0.0
H2761 H 0.53068 0.74735 0.20705 0.0
H2762 H 0.48096 0.72367 0.26504 0.0
H2763 H 0.43603 0.71258 0.28057 0.0
H2764 H 0.36845 0.73689 0.29013 0.0
H2765 H 0.41271 0.74809 0.27404 0.0
C2766 C 0.56697 0.77515 0.3058 0.0
C2767 C 0.54379 0.78274 0.31062 0.0
C2768 C 0.55655 0.76667 0.29284 0.0
C2769 C 0.52282 0.76564 0.28446 0.0
C2770 C 0.49906 0.77282 0.29134 0.0
C2771 C 0.50945 0.7813 0.30424 0.0
C2772 C 0.51287 0.75758 0.26662 0.0
C2773 C 0.48674 0.75125 0.27426 0.0
C2774 C 0.52889 0.75617 0.24204 0.0
C2775 C 0.5557 0.76286 0.23231 0.0
C2776 C 0.54982 0.77297 0.23053 0.0
C2777 C 0.57555 0.77923 0.22202 0.0
C2778 C 0.60705 0.77545 0.21475 0.0
C2779 C 0.61294 0.76541 0.21604 0.0
C2780 C 0.58742 0.75913 0.22476 0.0
C2781 C 0.43751 0.72485 0.19397 0.0
C2782 C 0.46042 0.71726 0.1885 0.0
C2783 C 0.44829 0.73319 0.20742 0.0
C2784 C 0.48213 0.73408 0.21563 0.0
C2785 C 0.50559 0.72689 0.20827 0.0
C2786 C 0.49483 0.71854 0.1949 0.0
C2787 C 0.4925 0.74206 0.23361 0.0
C2788 C 0.5187 0.74837 0.22599 0.0
C2789 C 0.47661 0.74345 0.25823 0.0
C2790 C 0.45005 0.73671 0.26807 0.0
C2791 C 0.45643 0.72664 0.27024 0.0
C2792 C 0.4311 0.72033 0.27918 0.0
C2793 C 0.39942 0.72403 0.28633 0.0
C2794 C 0.393 0.73404 0.28455 0.0
C2795 C 0.41818 0.74037 0.2755 0.0
H2796 H 0.37983 0.71917 0.2933 0.0
H2797 H 0.62691 0.78028 0.20808 0.0
H2798 H 0.59518 0.47681 0.9353 0.0
H2799 H 0.57417 0.49143 0.95743 0.0
H2800 H 0.47379 0.47906 0.96002 0.0
H2801 H 0.49448 0.46442 0.93783 0.0
H2802 H 0.4742 0.49969 0.95361 0.0
H2803 H 0.52321 0.47475 0.00876 0.0
H2804 H 0.56941 0.46333 0.0197 0.0
H2805 H 0.63706 0.48743 0.03207 0.0
H2806 H 0.59149 0.499 0.02043 0.0
H2807 H 0.40581 0.52452 0.06104 0.0
H2808 H 0.42759 0.51041 0.03704 0.0
H2809 H 0.52727 0.52328 0.03601 0.0
H2810 H 0.5057 0.53745 0.05991 0.0
H2811 H 0.52804 0.50259 0.04129 0.0
H2812 H 0.48018 0.52751 0.98641 0.0
H2813 H 0.43595 0.53909 0.9723 0.0
H2814 H 0.36742 0.5153 0.95852 0.0
H2815 H 0.4111 0.50358 0.973 0.0
C2816 C 0.56839 0.47733 0.93972 0.0
C2817 C 0.5466 0.46938 0.93516 0.0
C2818 C 0.55646 0.48568 0.95249 0.0
C2819 C 0.5226 0.48622 0.96085 0.0
C2820 C 0.50005 0.47875 0.95387 0.0
C2821 C 0.51197 0.47038 0.9412 0.0
C2822 C 0.51184 0.49384 0.97977 0.0
C2823 C 0.48571 0.50028 0.97285 0.0
C2824 C 0.52721 0.49464 0.00479 0.0
C2825 C 0.55403 0.48774 0.01341 0.0
C2826 C 0.54799 0.47762 0.01365 0.0
C2827 C 0.5741 0.47111 0.01983 0.0
C2828 C 0.60623 0.47465 0.02635 0.0
C2829 C 0.61221 0.4847 0.02688 0.0
C2830 C 0.58625 0.49124 0.02045 0.0
C2831 C 0.43261 0.52422 0.0565 0.0
C2832 C 0.45395 0.53216 0.06216 0.0
C2833 C 0.44496 0.51617 0.04262 0.0
C2834 C 0.47888 0.5159 0.03431 0.0
C2835 C 0.50097 0.52337 0.04211 0.0
C2836 C 0.48858 0.53147 0.0558 0.0
C2837 C 0.49027 0.50843 0.01516 0.0
C2838 C 0.51649 0.50201 0.02207 0.0
C2839 C 0.47504 0.50765 0.99009 0.0
C2840 C 0.44881 0.51467 0.98107 0.0
C2841 C 0.45559 0.52475 0.98058 0.0
C2842 C 0.43063 0.53134 0.97249 0.0
C2843 C 0.39886 0.52794 0.96459 0.0
C2844 C 0.39203 0.51793 0.96469 0.0
C2845 C 0.41688 0.51131 0.97283 0.0
H2846 H 0.37959 0.53306 0.95832 0.0
H2847 H 0.62637 0.4696 0.03123 0.0
H2848 H 0.17072 0.31397 0.23753 0.0
H2849 H 0.16965 0.31542 0.18987 0.0
H2850 H 0.06117 0.31145 0.19013 0.0
H2851 H 0.06194 0.30993 0.23787 0.0
H2852 H 0.09316 0.30028 0.15304 0.0
H2853 H 0.09205 0.33357 0.18085 0.0
H2854 H 0.11175 0.34786 0.20596 0.0
H2855 H 0.20824 0.34647 0.16724 0.0
H2856 H 0.18932 0.33206 0.1422 0.0
H2857 H 0.07075 0.31279 0.02016 0.0
H2858 H 0.06658 0.31353 0.06782 0.0
H2859 H 0.17474 0.31766 0.07331 0.0
H2860 H 0.1792 0.31705 0.02557 0.0
H2861 H 0.13975 0.32937 0.10764 0.0
H2862 H 0.14206 0.2955 0.0822 0.0
H2863 H 0.12295 0.28097 0.0578 0.0
H2864 H 0.02427 0.28342 0.09268 0.0
H2865 H 0.04268 0.29806 0.11701 0.0
C2866 C 0.14662 0.3134 0.22747 0.0
C2867 C 0.11639 0.31189 0.24144 0.0
C2868 C 0.14605 0.31428 0.20028 0.0
C2869 C 0.11528 0.31367 0.18663 0.0
C2870 C 0.08512 0.312 0.20042 0.0
C2871 C 0.08562 0.31117 0.22765 0.0
C2872 C 0.11479 0.3146 0.15785 0.0
C2873 C 0.10279 0.30671 0.14308 0.0
C2874 C 0.12801 0.32292 0.14504 0.0
C2875 C 0.13935 0.33167 0.15981 0.0
C2876 C 0.11756 0.33627 0.17782 0.0
C2877 C 0.12857 0.34439 0.19203 0.0
C2878 C 0.16125 0.34806 0.18825 0.0
C2879 C 0.18294 0.34361 0.17017 0.0
C2880 C 0.17207 0.33547 0.15595 0.0
C2881 C 0.09366 0.31393 0.03146 0.0
C2882 C 0.12537 0.31477 0.0191 0.0
C2883 C 0.0912 0.31434 0.05868 0.0
C2884 C 0.12041 0.31552 0.074 0.0
C2885 C 0.15193 0.31673 0.06175 0.0
C2886 C 0.15443 0.31634 0.0345 0.0
C2887 C 0.11831 0.31502 0.10284 0.0
C2888 C 0.12986 0.32299 0.11762 0.0
C2889 C 0.10469 0.30676 0.1157 0.0
C2890 C 0.09363 0.29794 0.10119 0.0
C2891 C 0.11621 0.29299 0.0845 0.0
C2892 C 0.10552 0.28473 0.07071 0.0
C2893 C 0.07239 0.28129 0.07362 0.0
C2894 C 0.04991 0.2861 0.0904 0.0
C2895 C 0.06046 0.29437 0.1042 0.0
H2896 H 0.06416 0.27489 0.06294 0.0
H2897 H 0.16973 0.35435 0.19928 0.0
H2898 H 0.08844 0.93218 0.01861 0.0
H2899 H 0.09073 0.93343 0.06631 0.0
H2900 H 0.15813 0.95814 0.05986 0.0
H2901 H 0.15719 0.95661 0.01221 0.0
H2902 H 0.17957 0.94756 0.09652 0.0
H2903 H 0.07232 0.96078 0.07631 0.0
H2904 H 0.01563 0.96191 0.0562 0.0
H2905 H 0.984 0.93633 0.09816 0.0
H2906 H 0.04066 0.93499 0.1183 0.0
H2907 H 0.09305 0.95611 0.23378 0.0
H2908 H 0.09177 0.95735 0.18611 0.0
H2909 H 0.16784 0.93478 0.18063 0.0
H2910 H 0.17046 0.93389 0.22833 0.0
H2911 H 0.07445 0.94654 0.14975 0.0
H2912 H 0.21572 0.9366 0.12894 0.0
H2913 H 0.27191 0.93915 0.14905 0.0
H2914 H 0.23486 0.96464 0.18871 0.0
H2915 H 0.17851 0.96229 0.16866 0.0
C2916 C 0.10376 0.93787 0.02741 0.0
C2917 C 0.12262 0.9443 0.01178 0.0
C2918 C 0.10489 0.93862 0.05464 0.0
C2919 C 0.12414 0.94599 0.06667 0.0
C2920 C 0.14312 0.95239 0.05103 0.0
C2921 C 0.14254 0.95152 0.02382 0.0
C2922 C 0.12498 0.94689 0.09558 0.0
C2923 C 0.15657 0.94738 0.10815 0.0
C2924 C 0.09498 0.947 0.11077 0.0
C2925 C 0.06085 0.94773 0.09864 0.0
C2926 C 0.05336 0.95535 0.08109 0.0
C2927 C 0.02121 0.95604 0.06972 0.0
C2928 C 0.99626 0.94918 0.07585 0.0
C2929 C 0.00337 0.94163 0.09341 0.0
C2930 C 0.03549 0.94091 0.10485 0.0
C2931 C 0.10957 0.95143 0.22238 0.0
C2932 C 0.13202 0.94494 0.23471 0.0
C2933 C 0.10879 0.95214 0.19513 0.0
C2934 C 0.13015 0.9463 0.17972 0.0
C2935 C 0.1519 0.9396 0.19206 0.0
C2936 C 0.15321 0.93904 0.21932 0.0
C2937 C 0.12909 0.94703 0.15074 0.0
C2938 C 0.09745 0.94681 0.13814 0.0
C2939 C 0.15897 0.94772 0.13551 0.0
C2940 C 0.19283 0.9492 0.14753 0.0
C2941 C 0.2196 0.94276 0.1419 0.0
C2942 C 0.25145 0.94417 0.15332 0.0
C2943 C 0.25689 0.95203 0.17025 0.0
C2944 C 0.23053 0.95852 0.17574 0.0
C2945 C 0.19862 0.95715 0.1644 0.0
H2946 H 0.28157 0.95311 0.17905 0.0
H2947 H 0.97138 0.94972 0.06703 0.0
H2948 H 0.83299 0.68957 0.75851 0.0
H2949 H 0.83049 0.68834 0.8062 0.0
H2950 H 0.93951 0.68626 0.80954 0.0
H2951 H 0.94235 0.68742 0.76183 0.0
H2952 H 0.9077 0.67316 0.84262 0.0
H2953 H 0.90466 0.70732 0.82313 0.0
H2954 H 0.88414 0.72223 0.80119 0.0
H2955 H 0.78537 0.71798 0.83462 0.0
H2956 H 0.80521 0.70298 0.85651 0.0
H2957 H 0.9311 0.68673 0.97634 0.0
H2958 H 0.93245 0.68557 0.92858 0.0
H2959 H 0.82334 0.68736 0.92616 0.0
H2960 H 0.82165 0.68855 0.97391 0.0
H2961 H 0.85485 0.70027 0.89256 0.0
H2962 H 0.86047 0.66617 0.91399 0.0
H2963 H 0.88323 0.65162 0.93631 0.0
H2964 H 0.97993 0.65615 0.89969 0.0
H2965 H 0.95788 0.67081 0.87743 0.0
C2966 C 0.85644 0.68879 0.76934 0.0
C2967 C 0.88787 0.68862 0.75639 0.0
C2968 C 0.85495 0.68811 0.79657 0.0
C2969 C 0.88484 0.6873 0.81128 0.0
C2970 C 0.91619 0.68687 0.79844 0.0
C2971 C 0.91772 0.68756 0.7712 0.0
C2972 C 0.88339 0.6872 0.84016 0.0
C2973 C 0.89648 0.67912 0.85361 0.0
C2974 C 0.86832 0.69494 0.85431 0.0
C2975 C 0.85632 0.70397 0.84122 0.0
C2976 C 0.87849 0.70952 0.82561 0.0
C2977 C 0.867 0.71799 0.81322 0.0
C2978 C 0.83345 0.72103 0.81644 0.0
C2979 C 0.81134 0.71561 0.83211 0.0
C2980 C 0.8227 0.70713 0.84454 0.0
C2981 C 0.90736 0.68681 0.96568 0.0
C2982 C 0.87627 0.68776 0.97889 0.0
C2983 C 0.90819 0.6861 0.93842 0.0
C2984 C 0.87798 0.68633 0.92397 0.0
C2985 C 0.8469 0.68716 0.93707 0.0
C2986 C 0.84601 0.68782 0.96433 0.0
C2987 C 0.87894 0.68619 0.89508 0.0
C2988 C 0.86588 0.69427 0.8816 0.0
C2989 C 0.89433 0.67849 0.88097 0.0
C2990 C 0.9076 0.66964 0.89423 0.0
C2991 C 0.88667 0.66411 0.91086 0.0
C2992 C 0.89943 0.65583 0.92347 0.0
C2993 C 0.93303 0.65298 0.91947 0.0
C2994 C 0.95392 0.65838 0.90279 0.0
C2995 C 0.94129 0.66667 0.89015 0.0
H2996 H 0.94286 0.64657 0.92925 0.0
H2997 H 0.8246 0.72759 0.80683 0.0
H2998 H 0.92758 0.0637 0.7652 0.0
H2999 H 0.93074 0.06497 0.81283 0.0
H3000 H 0.82157 0.06598 0.81718 0.0
H3001 H 0.81814 0.06492 0.76946 0.0
H3002 H 0.84949 0.0789 0.85001 0.0
H3003 H 0.86435 0.04496 0.82976 0.0
H3004 H 0.89015 0.0307 0.80805 0.0
H3005 H 0.98634 0.03758 0.84281 0.0
H3006 H 0.96122 0.05198 0.86443 0.0
H3007 H 0.82827 0.06452 0.98285 0.0
H3008 H 0.82765 0.06573 0.93513 0.0
H3009 H 0.93695 0.06661 0.93421 0.0
H3010 H 0.9379 0.06534 0.98195 0.0
H3011 H 0.91056 0.05324 0.89978 0.0
H3012 H 0.89353 0.08692 0.92195 0.0
H3013 H 0.86591 0.10073 0.94437 0.0
H3014 H 0.77161 0.0938 0.90671 0.0
H3015 H 0.79855 0.07985 0.88433 0.0
C3016 C 0.90422 0.06423 0.77627 0.0
C3017 C 0.87258 0.06414 0.76359 0.0
C3018 C 0.90609 0.06493 0.80347 0.0
C3019 C 0.87637 0.06542 0.81849 0.0
C3020 C 0.84479 0.06559 0.80589 0.0
C3021 C 0.84288 0.06496 0.77865 0.0
C3022 C 0.8782 0.06555 0.84739 0.0
C3023 C 0.86253 0.07324 0.86094 0.0
C3024 C 0.89579 0.05825 0.86152 0.0
C3025 C 0.91098 0.04961 0.84848 0.0
C3026 C 0.89108 0.04349 0.83258 0.0
C3027 C 0.90556 0.03537 0.82033 0.0
C3028 C 0.93989 0.03325 0.82399 0.0
C3029 C 0.95978 0.03924 0.83996 0.0
C3030 C 0.94542 0.04738 0.85222 0.0
C3031 C 0.85219 0.06503 0.97253 0.0
C3032 C 0.88315 0.06481 0.98617 0.0
C3033 C 0.85176 0.06577 0.94529 0.0
C3034 C 0.88225 0.06633 0.93127 0.0
C3035 C 0.91318 0.0662 0.94478 0.0
C3036 C 0.91364 0.0655 0.97203 0.0
C3037 C 0.88186 0.06657 0.90238 0.0
C3038 C 0.89774 0.05893 0.88884 0.0
C3039 C 0.86423 0.07386 0.88831 0.0
C3040 C 0.848 0.08228 0.90164 0.0
C3041 C 0.86684 0.08829 0.9186 0.0
C3042 C 0.85132 0.09615 0.93128 0.0
C3043 C 0.81701 0.09813 0.92702 0.0
C3044 C 0.79818 0.09225 0.91001 0.0
C3045 C 0.81357 0.08437 0.8973 0.0
H3046 H 0.80504 0.10422 0.93685 0.0
H3047 H 0.95105 0.02696 0.8145 0.0
H3048 H 0.05015 0.81201 0.73269 0.0
H3049 H 0.04234 0.81366 0.68527 0.0
H3050 H 0.15072 0.81497 0.67489 0.0
H3051 H 0.15884 0.81322 0.72208 0.0
H3052 H 0.11431 0.82996 0.64913 0.0
H3053 H 0.11321 0.79484 0.65981 0.0
H3054 H 0.09318 0.77896 0.67635 0.0
H3055 H 0.99402 0.78463 0.64523 0.0
H3056 H 0.0134 0.80061 0.62869 0.0
H3057 H 0.15655 0.81902 0.51976 0.0
H3058 H 0.14782 0.82007 0.56684 0.0
H3059 H 0.04023 0.81614 0.55597 0.0
H3060 H 0.04877 0.81495 0.50853 0.0
H3061 H 0.06539 0.80399 0.59288 0.0
H3062 H 0.0698 0.83801 0.57587 0.0
H3063 H 0.09171 0.85331 0.55697 0.0
H3064 H 0.18488 0.84972 0.59936 0.0
H3065 H 0.16376 0.83432 0.61824 0.0
C3066 C 0.07231 0.81264 0.72029 0.0
C3067 C 0.10512 0.8125 0.73109 0.0
C3068 C 0.06778 0.81354 0.69326 0.0
C3069 C 0.09597 0.81443 0.67674 0.0
C3070 C 0.12869 0.81431 0.68744 0.0
C3071 C 0.13326 0.81328 0.71436 0.0
C3072 C 0.09167 0.81567 0.64824 0.0
C3073 C 0.10371 0.82428 0.63675 0.0
C3074 C 0.07669 0.80839 0.63241 0.0
C3075 C 0.06465 0.79897 0.64329 0.0
C3076 C 0.08703 0.79276 0.65676 0.0
C3077 C 0.07586 0.78371 0.66597 0.0
C3078 C 0.0424 0.78077 0.66172 0.0
C3079 C 0.01998 0.7869 0.64839 0.0
C3080 C 0.03103 0.79596 0.63911 0.0
C3081 C 0.13094 0.81848 0.52727 0.0
C3082 C 0.10336 0.81687 0.51039 0.0
C3083 C 0.12598 0.81915 0.55421 0.0
C3084 C 0.09334 0.81829 0.56484 0.0
C3085 C 0.0656 0.81686 0.54808 0.0
C3086 C 0.07053 0.81621 0.52101 0.0
C3087 C 0.08898 0.81818 0.59359 0.0
C3088 C 0.07524 0.80979 0.60523 0.0
C3089 C 0.10239 0.82567 0.60959 0.0
C3090 C 0.11521 0.83497 0.59838 0.0
C3091 C 0.09505 0.84044 0.58104 0.0
C3092 C 0.10732 0.84914 0.57034 0.0
C3093 C 0.13968 0.85248 0.57693 0.0
C3094 C 0.15981 0.84713 0.59428 0.0
C3095 C 0.14768 0.83842 0.60502 0.0
H3096 H 0.14913 0.85921 0.56863 0.0
H3097 H 0.03378 0.77377 0.66893 0.0
H3098 H 0.17495 0.42837 0.72683 0.0
H3099 H 0.1784 0.42753 0.67911 0.0
H3100 H 0.12806 0.45548 0.67364 0.0
H3101 H 0.12142 0.45574 0.72115 0.0
H3102 H 0.1026 0.44559 0.6403 0.0
H3103 H 0.22092 0.45075 0.65855 0.0
H3104 H 0.2767 0.4478 0.6791 0.0
H3105 H 0.27755 0.41862 0.64856 0.0
H3106 H 0.22189 0.42139 0.6278 0.0
H3107 H 0.18931 0.44596 0.50426 0.0
H3108 H 0.19554 0.44643 0.55193 0.0
H3109 H 0.10588 0.42865 0.56019 0.0
H3110 H 0.09874 0.4285 0.51268 0.0
H3111 H 0.20386 0.43449 0.59101 0.0
H3112 H 0.05847 0.4364 0.60982 0.0
H3113 H 0.00694 0.44216 0.5872 0.0
H3114 H 0.06647 0.46236 0.54232 0.0
H3115 H 0.11825 0.45682 0.56493 0.0
C3116 C 0.16472 0.43432 0.71531 0.0
C3117 C 0.14787 0.44211 0.72749 0.0
C3118 C 0.1671 0.43392 0.68803 0.0
C3119 C 0.15411 0.44153 0.67254 0.0
C3120 C 0.13811 0.44946 0.68497 0.0
C3121 C 0.13437 0.44963 0.71212 0.0
C3122 C 0.15479 0.44095 0.64343 0.0
C3123 C 0.12495 0.44323 0.62967 0.0
C3124 C 0.18389 0.43798 0.62918 0.0
C3125 C 0.21712 0.43625 0.64191 0.0
C3126 C 0.23291 0.44369 0.65642 0.0
C3127 C 0.26451 0.44205 0.66804 0.0
C3128 C 0.28053 0.43302 0.66527 0.0
C3129 C 0.26508 0.42561 0.65074 0.0
C3130 C 0.23357 0.42721 0.63898 0.0
C3131 C 0.17122 0.44204 0.51626 0.0
C3132 C 0.14324 0.43732 0.50487 0.0
C3133 C 0.17483 0.44231 0.54347 0.0
C3134 C 0.15073 0.43777 0.55959 0.0
C3135 C 0.12425 0.43242 0.54811 0.0
C3136 C 0.12027 0.43231 0.52099 0.0
C3137 C 0.15187 0.43915 0.58833 0.0
C3138 C 0.18181 0.43694 0.60188 0.0
C3139 C 0.12342 0.44264 0.60233 0.0
C3140 C 0.09227 0.44612 0.5889 0.0
C3141 C 0.06053 0.4421 0.59521 0.0
C3142 C 0.03129 0.44532 0.58237 0.0
C3143 C 0.03345 0.4526 0.56327 0.0
C3144 C 0.06485 0.4567 0.55705 0.0
C3145 C 0.09415 0.45352 0.56985 0.0
H3146 H 0.01079 0.45508 0.55334 0.0
H3147 H 0.30497 0.43177 0.67431 0.0
H3148 H 0.8069 0.19215 0.25503 0.0
H3149 H 0.79865 0.19189 0.30251 0.0
H3150 H 0.87893 0.17068 0.31006 0.0
H3151 H 0.88824 0.17124 0.26274 0.0
H3152 H 0.78712 0.18027 0.34355 0.0
H3153 H 0.93353 0.17869 0.3581 0.0
H3154 H 0.98511 0.1817 0.33201 0.0
H3155 H 0.93002 0.20144 0.28251 0.0
H3156 H 0.87857 0.19891 0.30901 0.0
H3157 H 0.82306 0.17686 0.47885 0.0
H3158 H 0.81715 0.17479 0.43158 0.0
H3159 H 0.87323 0.20149 0.41915 0.0
H3160 H 0.88189 0.20299 0.46639 0.0
H3161 H 0.89457 0.18989 0.38704 0.0
H3162 H 0.78011 0.19864 0.40821 0.0
H3163 H 0.72609 0.19768 0.43255 0.0
H3164 H 0.71319 0.16799 0.40768 0.0
H3165 H 0.7674 0.16873 0.38364 0.0
C3166 C 0.82208 0.18722 0.26677 0.0
C3167 C 0.84872 0.18189 0.25548 0.0
C3168 C 0.81728 0.18706 0.29386 0.0
C3169 C 0.83884 0.18147 0.30977 0.0
C3170 C 0.86259 0.17521 0.2981 0.0
C3171 C 0.8679 0.17553 0.27114 0.0
C3172 C 0.84016 0.18334 0.33827 0.0
C3173 C 0.81057 0.18235 0.35318 0.0
C3174 C 0.87055 0.18643 0.3505 0.0
C3175 C 0.90199 0.18847 0.33534 0.0
C3176 C 0.9325 0.18375 0.34183 0.0
C3177 C 0.96174 0.18539 0.32699 0.0
C3178 C 0.96079 0.19172 0.30554 0.0
C3179 C 0.93068 0.1965 0.29905 0.0
C3180 C 0.90152 0.19502 0.31409 0.0
C3181 C 0.83399 0.18228 0.46594 0.0
C3182 C 0.85288 0.19008 0.47611 0.0
C3183 C 0.83028 0.18117 0.43891 0.0
C3184 C 0.84411 0.18809 0.42162 0.0
C3185 C 0.86239 0.19601 0.43196 0.0
C3186 C 0.86724 0.19691 0.45893 0.0
C3187 C 0.84146 0.18675 0.39278 0.0
C3188 C 0.87096 0.18784 0.37765 0.0
C3189 C 0.81066 0.18418 0.38022 0.0
C3190 C 0.77797 0.18371 0.39447 0.0
C3191 C 0.76589 0.19189 0.40822 0.0
C3192 C 0.73523 0.19139 0.42189 0.0
C3193 C 0.7163 0.18277 0.42174 0.0
C3194 C 0.72792 0.17465 0.40783 0.0
C3195 C 0.75859 0.17511 0.39417 0.0
H3196 H 0.69257 0.1824 0.43233 0.0
H3197 H 0.9834 0.19295 0.294 0.0
H3198 H 0.92516 0.56641 0.47725 0.0
H3199 H 0.91811 0.56682 0.42981 0.0
H3200 H 0.81019 0.563 0.43877 0.0
H3201 H 0.81697 0.56249 0.48638 0.0
H3202 H 0.83657 0.55068 0.40261 0.0
H3203 H 0.84066 0.58478 0.42062 0.0
H3204 H 0.8631 0.6 0.43969 0.0
H3205 H 0.95546 0.59644 0.39623 0.0
H3206 H 0.93377 0.58112 0.37717 0.0
H3207 H 0.8052 0.56127 0.2667 0.0
H3208 H 0.80461 0.56193 0.31463 0.0
H3209 H 0.91385 0.56282 0.31553 0.0
H3210 H 0.91481 0.56208 0.2677 0.0
H3211 H 0.88175 0.57727 0.34667 0.0
H3212 H 0.8787 0.54267 0.33097 0.0
H3213 H 0.85743 0.52699 0.31391 0.0
H3214 H 0.76284 0.53143 0.35372 0.0
H3215 H 0.78333 0.54723 0.37068 0.0
C3216 C 0.89986 0.56572 0.46919 0.0
C3217 C 0.87161 0.56441 0.48559 0.0
C3218 C 0.89588 0.566 0.44208 0.0
C3219 C 0.8636 0.56504 0.43087 0.0
C3220 C 0.8353 0.56379 0.44712 0.0
C3221 C 0.83923 0.56351 0.47429 0.0
C3222 C 0.8598 0.5649 0.4021 0.0
C3223 C 0.84577 0.55658 0.39034 0.0
C3224 C 0.87251 0.57253 0.38624 0.0
C3225 C 0.88567 0.58175 0.39762 0.0
C3226 C 0.86586 0.5872 0.41528 0.0
C3227 C 0.87843 0.59585 0.42606 0.0
C3228 C 0.91071 0.59917 0.41922 0.0
C3229 C 0.93046 0.59386 0.40153 0.0
C3230 C 0.91803 0.58519 0.39071 0.0
C3231 C 0.8291 0.56159 0.2771 0.0
C3232 C 0.86007 0.56162 0.26345 0.0
C3233 C 0.82869 0.56192 0.30443 0.0
C3234 C 0.85918 0.56236 0.31844 0.0
C3235 C 0.89009 0.56246 0.30493 0.0
C3236 C 0.89056 0.56202 0.27764 0.0
C3237 C 0.85893 0.56299 0.34725 0.0
C3238 C 0.87215 0.57143 0.35897 0.0
C3239 C 0.84536 0.55548 0.36305 0.0
C3240 C 0.83243 0.5462 0.35185 0.0
C3241 C 0.85319 0.54038 0.33579 0.0
C3242 C 0.84136 0.53143 0.32628 0.0
C3243 C 0.80888 0.52819 0.33284 0.0
C3244 C 0.78806 0.53393 0.34877 0.0
C3245 C 0.79975 0.54288 0.35829 0.0
H3246 H 0.79974 0.52128 0.32542 0.0
H3247 H 0.9204 0.60588 0.42758 0.0
H3248 H 0.59132 0.31025 0.51194 0.0
H3249 H 0.59041 0.31038 0.55979 0.0
H3250 H 0.69943 0.31262 0.56132 0.0
H3251 H 0.70072 0.31243 0.5134 0.0
H3252 H 0.67279 0.29851 0.59577 0.0
H3253 H 0.65634 0.33224 0.57341 0.0
H3254 H 0.62914 0.34597 0.55038 0.0
H3255 H 0.53383 0.3389 0.58626 0.0
H3256 H 0.56038 0.32503 0.60922 0.0
H3257 H 0.68625 0.31006 0.73096 0.0
H3258 H 0.69088 0.31024 0.68325 0.0
H3259 H 0.58195 0.31186 0.67681 0.0
H3260 H 0.5771 0.31191 0.72448 0.0
H3261 H 0.61086 0.32431 0.64445 0.0
H3262 H 0.62534 0.29051 0.66591 0.0
H3263 H 0.65066 0.27627 0.68802 0.0
H3264 H 0.74717 0.2828 0.65334 0.0
H3265 H 0.72252 0.29717 0.63129 0.0
C3266 C 0.61512 0.31077 0.52243 0.0
C3267 C 0.64608 0.3114 0.50893 0.0
C3268 C 0.61453 0.31087 0.54972 0.0
C3269 C 0.64484 0.31158 0.56391 0.0
C3270 C 0.67582 0.31208 0.55057 0.0
C3271 C 0.67646 0.31203 0.52326 0.0
C3272 C 0.64407 0.31181 0.59275 0.0
C3273 C 0.65973 0.30421 0.60653 0.0
C3274 C 0.62627 0.31915 0.60649 0.0
C3275 C 0.6103 0.32754 0.59285 0.0
C3276 C 0.62953 0.33356 0.57623 0.0
C3277 C 0.61423 0.34138 0.56321 0.0
C3278 C 0.57976 0.3433 0.5668 0.0
C3279 C 0.56053 0.33741 0.58347 0.0
C3280 C 0.57569 0.32957 0.59652 0.0
C3281 C 0.66327 0.31046 0.71939 0.0
C3282 C 0.6313 0.31096 0.73146 0.0
C3283 C 0.66597 0.31051 0.69214 0.0
C3284 C 0.63673 0.31093 0.67654 0.0
C3285 C 0.60482 0.31152 0.68854 0.0
C3286 C 0.6021 0.31154 0.71576 0.0
C3287 C 0.63935 0.31093 0.64767 0.0
C3288 C 0.62406 0.3186 0.63381 0.0
C3289 C 0.65725 0.3036 0.63386 0.0
C3290 C 0.67217 0.29499 0.64721 0.0
C3291 C 0.65204 0.28897 0.6632 0.0
C3292 C 0.66625 0.28086 0.67568 0.0
C3293 C 0.70053 0.27866 0.67217 0.0
C3294 C 0.72064 0.28454 0.6561 0.0
C3295 C 0.70656 0.29266 0.6436 0.0
H3296 H 0.71148 0.27237 0.68183 0.0
H3297 H 0.56796 0.34935 0.5567 0.0
H3298 H 0.65527 0.95036 0.51799 0.0
H3299 H 0.65562 0.94836 0.56547 0.0
H3300 H 0.58717 0.92391 0.55842 0.0
H3301 H 0.5853 0.92626 0.51093 0.0
H3302 H 0.56833 0.93396 0.59703 0.0
H3303 H 0.67462 0.92105 0.57181 0.0
H3304 H 0.72992 0.92044 0.54939 0.0
H3305 H 0.76339 0.94547 0.5929 0.0
H3306 H 0.70811 0.94632 0.61533 0.0
H3307 H 0.66242 0.9266 0.73233 0.0
H3308 H 0.65957 0.92412 0.68492 0.0
H3309 H 0.58668 0.94753 0.67883 0.0
H3310 H 0.58813 0.94966 0.72625 0.0
H3311 H 0.67638 0.93461 0.64672 0.0
H3312 H 0.53439 0.94493 0.62886 0.0
H3313 H 0.47932 0.94307 0.65115 0.0
H3314 H 0.51757 0.9184 0.69373 0.0
H3315 H 0.57272 0.92002 0.67144 0.0
C3316 C 0.64034 0.94456 0.5266 0.0
C3317 C 0.62035 0.93844 0.51088 0.0
C3318 C 0.64073 0.94337 0.55371 0.0
C3319 C 0.62202 0.93584 0.56549 0.0
C3320 C 0.60188 0.92975 0.54977 0.0
C3321 C 0.60085 0.93109 0.52268 0.0
C3322 C 0.62281 0.93453 0.59428 0.0
C3323 C 0.59196 0.93403 0.60789 0.0
C3324 C 0.65367 0.93429 0.60844 0.0
C3325 C 0.6871 0.93378 0.59514 0.0
C3326 C 0.69369 0.92646 0.57649 0.0
C3327 C 0.72505 0.92607 0.56379 0.0
C3328 C 0.75013 0.93292 0.56968 0.0
C3329 C 0.74394 0.94017 0.58834 0.0
C3330 C 0.7126 0.9406 0.60109 0.0
C3331 C 0.64562 0.93115 0.72083 0.0
C3332 C 0.62536 0.93828 0.73288 0.0
C3333 C 0.64402 0.92974 0.69378 0.0
C3334 C 0.62252 0.93553 0.67833 0.0
C3335 C 0.6027 0.94277 0.69038 0.0
C3336 C 0.60372 0.94403 0.71746 0.0
C3337 C 0.62186 0.93434 0.64949 0.0
C3338 C 0.65275 0.93439 0.63587 0.0
C3339 C 0.59108 0.93374 0.63532 0.0
C3340 C 0.5578 0.93265 0.64859 0.0
C3341 C 0.53101 0.93907 0.64287 0.0
C3342 C 0.49978 0.93807 0.65554 0.0
C3343 C 0.49498 0.93064 0.6739 0.0
C3344 C 0.52136 0.92417 0.67957 0.0
C3345 C 0.55262 0.92514 0.66695 0.0
H3346 H 0.4708 0.92988 0.68369 0.0
H3347 H 0.77439 0.93261 0.55981 0.0
H3348 H 0.42311 0.70002 0.4822 0.0
H3349 H 0.42723 0.70058 0.43444 0.0
H3350 H 0.35026 0.67828 0.42857 0.0
H3351 H 0.3447 0.67813 0.47624 0.0
H3352 H 0.44375 0.68953 0.39727 0.0
H3353 H 0.30056 0.68141 0.37702 0.0
H3354 H 0.24516 0.68438 0.398 0.0
H3355 H 0.2869 0.70869 0.44017 0.0
H3356 H 0.34238 0.70595 0.41919 0.0
H3357 H 0.42669 0.67832 0.26365 0.0
H3358 H 0.42561 0.67835 0.31151 0.0
H3359 H 0.35808 0.70316 0.31053 0.0
H3360 H 0.35775 0.70282 0.26274 0.0
H3361 H 0.33771 0.69222 0.3455 0.0
H3362 H 0.44597 0.70501 0.32614 0.0
H3363 H 0.50197 0.70591 0.30483 0.0
H3364 H 0.53151 0.67914 0.34217 0.0
H3365 H 0.47543 0.67802 0.36337 0.0
C3366 C 0.40724 0.6952 0.47067 0.0
C3367 C 0.38331 0.68911 0.48278 0.0
C3368 C 0.40964 0.69552 0.4434 0.0
C3369 C 0.38855 0.68963 0.42788 0.0
C3370 C 0.36607 0.68311 0.4401 0.0
C3371 C 0.36304 0.68298 0.46731 0.0
C3372 C 0.38925 0.69049 0.39894 0.0
C3373 C 0.42058 0.69013 0.38595 0.0
C3374 C 0.35914 0.69167 0.38417 0.0
C3375 C 0.32572 0.6934 0.39673 0.0
C3376 C 0.29788 0.68741 0.3907 0.0
C3377 C 0.26647 0.68905 0.4026 0.0
C3378 C 0.26255 0.69669 0.42047 0.0
C3379 C 0.29 0.70274 0.42641 0.0
C3380 C 0.32144 0.70114 0.41454 0.0
C3381 C 0.41166 0.68378 0.27371 0.0
C3382 C 0.39232 0.69057 0.25958 0.0
C3383 C 0.41122 0.68384 0.30104 0.0
C3384 C 0.3923 0.69089 0.31469 0.0
C3385 C 0.3729 0.69765 0.30049 0.0
C3386 C 0.37273 0.69746 0.27319 0.0
C3387 C 0.39219 0.69111 0.34374 0.0
C3388 C 0.36094 0.69166 0.35678 0.0
C3389 C 0.4225 0.69071 0.35857 0.0
C3390 C 0.4564 0.69138 0.34611 0.0
C3391 C 0.46433 0.69928 0.32963 0.0
C3392 C 0.49609 0.69984 0.3176 0.0
C3393 C 0.52026 0.69257 0.32209 0.0
C3394 C 0.51274 0.68476 0.33868 0.0
C3395 C 0.48098 0.68416 0.35073 0.0
H3396 H 0.54485 0.69301 0.31276 0.0
H3397 H 0.23822 0.69795 0.42967 0.0
H3398 H 0.32392 0.06444 0.4781 0.0
H3399 H 0.31911 0.06436 0.43041 0.0
H3400 H 0.42768 0.06137 0.42378 0.0
H3401 H 0.43281 0.06173 0.47145 0.0
H3402 H 0.40502 0.07391 0.38895 0.0
H3403 H 0.37372 0.04165 0.41685 0.0
H3404 H 0.34143 0.02946 0.44213 0.0
H3405 H 0.24885 0.03939 0.40681 0.0
H3406 H 0.28056 0.05173 0.38157 0.0
H3407 H 0.41716 0.05592 0.25994 0.0
H3408 H 0.41769 0.05673 0.30769 0.0
H3409 H 0.31113 0.06376 0.30788 0.0
H3410 H 0.31024 0.06297 0.25997 0.0
H3411 H 0.33042 0.04962 0.3455 0.0
H3412 H 0.36373 0.08158 0.31624 0.0
H3413 H 0.3976 0.09325 0.29045 0.0
H3414 H 0.48844 0.08321 0.32814 0.0
H3415 H 0.45516 0.07137 0.35389 0.0
C3416 C 0.34679 0.06381 0.46648 0.0
C3417 C 0.37873 0.06304 0.47849 0.0
C3418 C 0.34398 0.06372 0.43925 0.0
C3419 C 0.37298 0.06268 0.42361 0.0
C3420 C 0.40498 0.06215 0.43554 0.0
C3421 C 0.40785 0.06236 0.46276 0.0
C3422 C 0.37005 0.06202 0.39481 0.0
C3423 C 0.38898 0.06853 0.37947 0.0
C3424 C 0.34857 0.05513 0.38248 0.0
C3425 C 0.32948 0.04768 0.39754 0.0
C3426 C 0.34645 0.04128 0.41462 0.0
C3427 C 0.32826 0.03434 0.42892 0.0
C3428 C 0.2931 0.03367 0.42613 0.0
C3429 C 0.27608 0.03992 0.40898 0.0
C3430 C 0.29415 0.04689 0.39466 0.0
C3431 C 0.39378 0.05762 0.27009 0.0
C3432 C 0.36372 0.05949 0.25619 0.0
C3433 C 0.39417 0.05808 0.29734 0.0
C3434 C 0.36455 0.06042 0.31113 0.0
C3435 C 0.33425 0.06199 0.29745 0.0
C3436 C 0.33385 0.06158 0.27013 0.0
C3437 C 0.36557 0.06144 0.33984 0.0
C3438 C 0.34629 0.05502 0.35509 0.0
C3439 C 0.38694 0.06835 0.3521 0.0
C3440 C 0.40698 0.07553 0.33682 0.0
C3441 C 0.39096 0.08181 0.31888 0.0
C3442 C 0.41005 0.08846 0.3043 0.0
C3443 C 0.44516 0.08896 0.30761 0.0
C3444 C 0.46125 0.08281 0.32557 0.0
C3445 C 0.44228 0.07614 0.34019 0.0
H3446 H 0.4599 0.09411 0.29629 0.0
H3447 H 0.27906 0.02829 0.43722 0.0
H3448 H 0.65193 0.82182 0.02024 0.0
H3449 H 0.64921 0.8207 0.06794 0.0
H3450 H 0.58471 0.79535 0.06151 0.0
H3451 H 0.58588 0.79678 0.01379 0.0
H3452 H 0.56262 0.80554 0.09872 0.0
H3453 H 0.67159 0.79371 0.077 0.0
H3454 H 0.72794 0.79348 0.05615 0.0
H3455 H 0.75616 0.81926 0.09876 0.0
H3456 H 0.69977 0.81972 0.11961 0.0
H3457 H 0.6524 0.79759 0.23492 0.0
H3458 H 0.65257 0.79632 0.18724 0.0
H3459 H 0.5748 0.81844 0.18285 0.0
H3460 H 0.57342 0.81939 0.23061 0.0
H3461 H 0.66844 0.8076 0.15094 0.0
H3462 H 0.52558 0.816 0.1317 0.0
H3463 H 0.47023 0.81283 0.15254 0.0
H3464 H 0.51155 0.78777 0.1916 0.0
H3465 H 0.56704 0.79073 0.17075 0.0
C3466 C 0.63709 0.81603 0.02906 0.0
C3467 C 0.6192 0.80937 0.01342 0.0
C3468 C 0.63572 0.81536 0.05629 0.0
C3469 C 0.61734 0.80781 0.06833 0.0
C3470 C 0.59908 0.80122 0.05268 0.0
C3471 C 0.5998 0.80204 0.02544 0.0
C3472 C 0.61705 0.80685 0.09724 0.0
C3473 C 0.58578 0.80595 0.11012 0.0
C3474 C 0.64732 0.80703 0.11215 0.0
C3475 C 0.68133 0.80679 0.0997 0.0
C3476 C 0.68972 0.79937 0.08179 0.0
C3477 C 0.72169 0.79919 0.06999 0.0
C3478 C 0.74559 0.80637 0.07608 0.0
C3479 C 0.7376 0.81372 0.09404 0.0
C3480 C 0.70565 0.81393 0.10588 0.0
C3481 C 0.63532 0.80218 0.22376 0.0
C3482 C 0.61284 0.80858 0.23642 0.0
C3483 C 0.63543 0.80144 0.19652 0.0
C3484 C 0.61335 0.80717 0.18142 0.0
C3485 C 0.5914 0.81374 0.19407 0.0
C3486 C 0.5908 0.81433 0.22135 0.0
C3487 C 0.61396 0.8065 0.15244 0.0
C3488 C 0.6453 0.8071 0.13954 0.0
C3489 C 0.58391 0.80552 0.13751 0.0
C3490 C 0.55052 0.80366 0.1499 0.0
C3491 C 0.52281 0.8098 0.14467 0.0
C3492 C 0.49143 0.80805 0.1565 0.0
C3493 C 0.48743 0.80013 0.17347 0.0
C3494 C 0.51475 0.79393 0.17857 0.0
C3495 C 0.54617 0.79565 0.1668 0.0
H3496 H 0.46312 0.79879 0.18261 0.0
H3497 H 0.77033 0.80622 0.06693 0.0
H3498 H 0.56953 0.43792 0.01732 0.0
H3499 H 0.57246 0.4368 0.06498 0.0
H3500 H 0.67765 0.44537 0.06283 0.0
H3501 H 0.67519 0.44631 0.0151 0.0
H3502 H 0.66878 0.42972 0.09322 0.0
H3503 H 0.617 0.46239 0.09052 0.0
H3504 H 0.5745 0.47468 0.07725 0.0
H3505 H 0.49425 0.45555 0.10134 0.0
H3506 H 0.53632 0.44333 0.11583 0.0
H3507 H 0.69297 0.44075 0.22784 0.0
H3508 H 0.68884 0.44031 0.18016 0.0
H3509 H 0.5831 0.43253 0.18593 0.0
H3510 H 0.58683 0.43316 0.23365 0.0
H3511 H 0.59086 0.44712 0.15351 0.0
H3512 H 0.64416 0.41605 0.16473 0.0
H3513 H 0.68707 0.40446 0.18103 0.0
H3514 H 0.76498 0.4201 0.14 0.0
H3515 H 0.7226 0.43186 0.12374 0.0
C3516 C 0.59326 0.43962 0.02698 0.0
C3517 C 0.6222 0.44214 0.01241 0.0
C3518 C 0.59481 0.43905 0.05424 0.0
C3519 C 0.62519 0.44109 0.06744 0.0
C3520 C 0.65396 0.44375 0.05299 0.0
C3521 C 0.6525 0.44429 0.02572 0.0
C3522 C 0.62747 0.43995 0.09619 0.0
C3523 C 0.65205 0.43361 0.10647 0.0
C3524 C 0.60496 0.44478 0.11336 0.0
C3525 C 0.57969 0.45194 0.10395 0.0
C3526 C 0.59027 0.4608 0.09283 0.0
C3527 C 0.5663 0.46776 0.08522 0.0
C3528 C 0.53172 0.46584 0.08808 0.0
C3529 C 0.52103 0.45701 0.099 0.0
C3530 C 0.54491 0.45011 0.10715 0.0
C3531 C 0.66898 0.43879 0.21897 0.0
C3532 C 0.64019 0.43702 0.23448 0.0
C3533 C 0.66668 0.4385 0.19171 0.0
C3534 C 0.63571 0.43632 0.1795 0.0
C3535 C 0.60722 0.43425 0.19497 0.0
C3536 C 0.60942 0.43461 0.22222 0.0
C3537 C 0.63238 0.43693 0.15068 0.0
C3538 C 0.60755 0.44317 0.14035 0.0
C3539 C 0.65467 0.43198 0.13352 0.0
C3540 C 0.68022 0.42488 0.14319 0.0
C3541 C 0.67048 0.41706 0.15934 0.0
C3542 C 0.6947 0.41045 0.16855 0.0
C3543 C 0.72874 0.41155 0.16161 0.0
C3544 C 0.73861 0.41925 0.14538 0.0
C3545 C 0.71449 0.42589 0.13613 0.0
H3546 H 0.74746 0.40643 0.16876 0.0
H3547 H 0.51323 0.47121 0.08198 0.0
H3548 H 0.41957 0.18759 0.77045 0.0
H3549 H 0.41651 0.18654 0.81807 0.0
H3550 H 0.30824 0.19082 0.81488 0.0
H3551 H 0.31108 0.19205 0.76714 0.0
H3552 H 0.33661 0.20202 0.85188 0.0
H3553 H 0.34065 0.16844 0.82738 0.0
H3554 H 0.36241 0.15384 0.8047 0.0
H3555 H 0.4573 0.15663 0.84521 0.0
H3556 H 0.43628 0.17134 0.86787 0.0
H3557 H 0.31037 0.18924 0.9853 0.0
H3558 H 0.30847 0.18879 0.9375 0.0
H3559 H 0.41757 0.18703 0.93482 0.0
H3560 H 0.41982 0.18747 0.98269 0.0
H3561 H 0.38543 0.17408 0.9009 0.0
H3562 H 0.38054 0.20814 0.92446 0.0
H3563 H 0.35754 0.22262 0.94698 0.0
H3564 H 0.26206 0.21867 0.90804 0.0
H3565 H 0.2843 0.20405 0.88562 0.0
C3566 C 0.39505 0.18827 0.77982 0.0
C3567 C 0.36554 0.18988 0.76501 0.0
C3568 C 0.39335 0.18763 0.80704 0.0
C3569 C 0.36209 0.18849 0.81992 0.0
C3570 C 0.33258 0.19012 0.80524 0.0
C3571 C 0.33426 0.1908 0.77799 0.0
C3572 C 0.36046 0.18791 0.8488 0.0
C3573 C 0.34674 0.19584 0.86262 0.0
C3574 C 0.37424 0.17991 0.8627 0.0
C3575 C 0.38698 0.17105 0.84915 0.0
C3576 C 0.36625 0.16599 0.8313 0.0
C3577 C 0.37844 0.15768 0.81847 0.0
C3578 C 0.41124 0.15432 0.82346 0.0
C3579 C 0.43191 0.15925 0.84134 0.0
C3580 C 0.41986 0.16757 0.8542 0.0
C3581 C 0.33397 0.18869 0.97458 0.0
C3582 C 0.36528 0.18844 0.98776 0.0
C3583 C 0.33281 0.18847 0.94729 0.0
C3584 C 0.3629 0.18799 0.93276 0.0
C3585 C 0.39412 0.18743 0.9458 0.0
C3586 C 0.39533 0.18771 0.97311 0.0
C3587 C 0.36188 0.18821 0.9039 0.0
C3588 C 0.3751 0.18022 0.89012 0.0
C3589 C 0.34741 0.19612 0.89005 0.0
C3590 C 0.33397 0.20491 0.9036 0.0
C3591 C 0.35452 0.21029 0.9209 0.0
C3592 C 0.34164 0.21854 0.93361 0.0
C3593 C 0.30832 0.22155 0.92901 0.0
C3594 C 0.28784 0.21632 0.91163 0.0
C3595 C 0.30057 0.20805 0.89892 0.0
H3596 H 0.2984 0.22794 0.93885 0.0
H3597 H 0.42063 0.14789 0.81351 0.0
H3598 H 0.42595 0.56155 0.98274 0.0
H3599 H 0.42135 0.56211 0.93509 0.0
H3600 H 0.31489 0.55518 0.94032 0.0
H3601 H 0.3193 0.55447 0.98803 0.0
H3602 H 0.3457 0.54488 0.90218 0.0
H3603 H 0.33896 0.5782 0.92865 0.0
H3604 H 0.35658 0.59312 0.95194 0.0
H3605 H 0.45023 0.59342 0.9091 0.0
H3606 H 0.43341 0.57839 0.88584 0.0
H3607 H 0.30899 0.5598 0.77011 0.0
H3608 H 0.30902 0.55891 0.81802 0.0
H3609 H 0.41782 0.56185 0.81857 0.0
H3610 H 0.41821 0.5626 0.77073 0.0
H3611 H 0.38226 0.57445 0.85377 0.0
H3612 H 0.38864 0.54057 0.82871 0.0
H3613 H 0.37159 0.52507 0.80803 0.0
H3614 H 0.27654 0.52598 0.84887 0.0
H3615 H 0.29281 0.54157 0.86954 0.0
C3616 C 0.40153 0.56015 0.97378 0.0
C3617 C 0.37291 0.55805 0.98916 0.0
C3618 C 0.39895 0.5605 0.94657 0.0
C3619 C 0.36766 0.55884 0.93429 0.0
C3620 C 0.33921 0.55653 0.9495 0.0
C3621 C 0.34178 0.55615 0.97674 0.0
C3622 C 0.36471 0.55955 0.90553 0.0
C3623 C 0.3531 0.5514 0.89157 0.0
C3624 C 0.3749 0.56803 0.89184 0.0
C3625 C 0.38504 0.57711 0.90567 0.0
C3626 C 0.36343 0.5814 0.92434 0.0
C3627 C 0.37326 0.58988 0.93752 0.0
C3628 C 0.40454 0.5942 0.93205 0.0
C3629 C 0.42602 0.59006 0.91334 0.0
C3630 C 0.41634 0.58156 0.90013 0.0
C3631 C 0.33292 0.56029 0.78042 0.0
C3632 C 0.36363 0.56125 0.76666 0.0
C3633 C 0.33287 0.55972 0.80772 0.0
C3634 C 0.36343 0.56023 0.82163 0.0
C3635 C 0.39402 0.5614 0.80804 0.0
C3636 C 0.39417 0.56183 0.78076 0.0
C3637 C 0.36358 0.55974 0.85045 0.0
C3638 C 0.37458 0.56797 0.8644 0.0
C3639 C 0.35248 0.55136 0.86412 0.0
C3640 C 0.34183 0.5423 0.85048 0.0
C3641 C 0.3639 0.53755 0.833 0.0
C3642 C 0.35448 0.5287 0.82142 0.0
C3643 C 0.32313 0.5245 0.82732 0.0
C3644 C 0.30093 0.5292 0.8445 0.0
C3645 C 0.31021 0.53805 0.85611 0.0
H3646 H 0.31592 0.51764 0.8184 0.0
H3647 H 0.4121 0.60077 0.94227 0.0
loop_
_geom_bond_atom_site_label_1
_geom_bond_atom_site_label_2
_geom_bond_distance
_geom_bond_site_symmetry_2
_ccdc_geom_bond_type
O0 Cd1 2.223 . S
O0 C8 1.315 . S
Cd1 O0 2.223 . S
Cd1 O4 2.297 . S
Cd1 O5 2.439 . S
Cd1 O11 2.240 . S
Cd2 O3 2.240 . S
Cd2 O10 2.223 . S
Cd2 O12 2.297 . S
Cd2 O13 2.439 . S
O3 Cd2 2.240 . S
O3 C8 1.279 . S
O4 Cd1 2.297 . S
O4 C6 1.247 . S
O5 Cd1 2.439 . S
O5 C6 1.208 . S
C6 O4 1.247 . S
C6 O5 1.208 . S
C7 O12 1.247 . S
C7 O13 1.208 . S
C8 O0 1.315 . S
C8 O3 1.279 . S
C9 O10 1.315 . S
C9 O11 1.279 . S
O10 Cd2 2.223 . S
O10 C9 1.315 . S
O11 Cd1 2.240 . S
O11 C9 1.279 . S
O12 Cd2 2.297 . S
O12 C7 1.247 . S
O13 Cd2 2.439 . S
O13 C7 1.208 . S
O14 Cd15 2.223 . S
O14 C22 1.315 . S
Cd15 O14 2.223 . S
Cd15 O18 2.297 . S
Cd15 O19 2.439 . S
Cd15 O25 2.240 . S
Cd16 O17 2.240 . S
Cd16 O24 2.223 . S
Cd16 O26 2.297 . S
Cd16 O27 2.439 . S
O17 Cd16 2.240 . S
O17 C22 1.279 . S
O18 Cd15 2.297 . S
O18 C20 1.247 . S
O19 Cd15 2.439 . S
O19 C20 1.208 . S
C20 O18 1.247 . S
C20 O19 1.208 . S
C21 O26 1.247 . S
C21 O27 1.208 . S
C22 O14 1.315 . S
C22 O17 1.279 . S
C23 O24 1.315 . S
C23 O25 1.279 . S
O24 Cd16 2.223 . S
O24 C23 1.315 . S
O25 Cd15 2.240 . S
O25 C23 1.279 . S
O26 Cd16 2.297 . S
O26 C21 1.247 . S
O27 Cd16 2.439 . S
O27 C21 1.208 . S
O28 Cd29 2.223 . S
O28 C36 1.315 . S
Cd29 O28 2.223 . S
Cd29 O32 2.297 . S
Cd29 O33 2.439 . S
Cd29 O39 2.240 . S
Cd30 O31 2.240 . S
Cd30 O38 2.223 . S
Cd30 O40 2.297 . S
Cd30 O41 2.439 . S
O31 Cd30 2.240 . S
O31 C36 1.279 . S
O32 Cd29 2.297 . S
O32 C34 1.247 . S
O33 Cd29 2.439 . S
O33 C34 1.208 . S
C34 O32 1.247 . S
C34 O33 1.208 . S
C35 O40 1.247 . S
C35 O41 1.208 . S
C36 O28 1.315 . S
C36 O31 1.279 . S
C37 O38 1.315 . S
C37 O39 1.279 . S
O38 Cd30 2.223 . S
O38 C37 1.315 . S
O39 Cd29 2.240 . S
O39 C37 1.279 . S
O40 Cd30 2.297 . S
O40 C35 1.247 . S
O41 Cd30 2.439 . S
O41 C35 1.208 . S
O42 Cd43 2.223 . S
O42 C50 1.315 . S
Cd43 O42 2.223 . S
Cd43 O46 2.297 . S
Cd43 O47 2.439 . S
Cd43 O53 2.240 . S
Cd44 O45 2.240 . S
Cd44 O52 2.223 . S
Cd44 O54 2.297 . S
Cd44 O55 2.439 . S
O45 Cd44 2.240 . S
O45 C50 1.279 . S
O46 Cd43 2.297 . S
O46 C48 1.247 . S
O47 Cd43 2.439 . S
O47 C48 1.208 . S
C48 O46 1.247 . S
C48 O47 1.208 . S
C49 O54 1.247 . S
C49 O55 1.208 . S
C50 O42 1.315 . S
C50 O45 1.279 . S
C51 O52 1.315 . S
C51 O53 1.279 . S
O52 Cd44 2.223 . S
O52 C51 1.315 . S
O53 Cd43 2.240 . S
O53 C51 1.279 . S
O54 Cd44 2.297 . S
O54 C49 1.247 . S
O55 Cd44 2.439 . S
O55 C49 1.208 . S
O56 Cd57 2.223 . S
O56 C64 1.315 . S
Cd57 O56 2.223 . S
Cd57 O60 2.297 . S
Cd57 O61 2.439 . S
Cd57 O67 2.240 . S
Cd58 O59 2.240 . S
Cd58 O66 2.223 . S
Cd58 O68 2.297 . S
Cd58 O69 2.439 . S
O59 Cd58 2.240 . S
O59 C64 1.279 . S
O60 Cd57 2.297 . S
O60 C62 1.247 . S
O61 Cd57 2.439 . S
O61 C62 1.208 . S
C62 O60 1.247 . S
C62 O61 1.208 . S
C63 O68 1.247 . S
C63 O69 1.208 . S
C64 O56 1.315 . S
C64 O59 1.279 . S
C65 O66 1.315 . S
C65 O67 1.279 . S
O66 Cd58 2.223 . S
O66 C65 1.315 . S
O67 Cd57 2.240 . S
O67 C65 1.279 . S
O68 Cd58 2.297 . S
O68 C63 1.247 . S
O69 Cd58 2.439 . S
O69 C63 1.208 . S
O70 Cd71 2.223 . S
O70 C78 1.315 . S
Cd71 O70 2.223 . S
Cd71 O74 2.297 . S
Cd71 O75 2.439 . S
Cd71 O81 2.240 . S
Cd72 O73 2.240 . S
Cd72 O80 2.223 . S
Cd72 O82 2.297 . S
Cd72 O83 2.439 . S
O73 Cd72 2.240 . S
O73 C78 1.279 . S
O74 Cd71 2.297 . S
O74 C76 1.247 . S
O75 Cd71 2.439 . S
O75 C76 1.208 . S
C76 O74 1.247 . S
C76 O75 1.208 . S
C77 O82 1.247 . S
C77 O83 1.208 . S
C78 O70 1.315 . S
C78 O73 1.279 . S
C79 O80 1.315 . S
C79 O81 1.279 . S
O80 Cd72 2.223 . S
O80 C79 1.315 . S
O81 Cd71 2.240 . S
O81 C79 1.279 . S
O82 Cd72 2.297 . S
O82 C77 1.247 . S
O83 Cd72 2.439 . S
O83 C77 1.208 . S
O84 Cd85 2.223 . S
O84 C92 1.315 . S
Cd85 O84 2.223 . S
Cd85 O88 2.297 . S
Cd85 O89 2.439 . S
Cd85 O95 2.240 . S
Cd86 O87 2.240 . S
Cd86 O94 2.223 . S
Cd86 O96 2.297 . S
Cd86 O97 2.439 . S
O87 Cd86 2.240 . S
O87 C92 1.279 . S
O88 Cd85 2.297 . S
O88 C90 1.247 . S
O89 Cd85 2.439 . S
O89 C90 1.208 . S
C90 O88 1.247 . S
C90 O89 1.208 . S
C91 O96 1.247 . S
C91 O97 1.208 . S
C92 O84 1.315 . S
C92 O87 1.279 . S
C93 O94 1.315 . S
C93 O95 1.279 . S
O94 Cd86 2.223 . S
O94 C93 1.315 . S
O95 Cd85 2.240 . S
O95 C93 1.279 . S
O96 Cd86 2.297 . S
O96 C91 1.247 . S
O97 Cd86 2.439 . S
O97 C91 1.208 . S
O98 Cd99 2.223 . S
O98 C106 1.315 . S
Cd99 O98 2.223 . S
Cd99 O102 2.297 . S
Cd99 O103 2.439 . S
Cd99 O109 2.240 . S
Cd100 O101 2.240 . S
Cd100 O108 2.223 . S
Cd100 O110 2.297 . S
Cd100 O111 2.439 . S
O101 Cd100 2.240 . S
O101 C106 1.279 . S
O102 Cd99 2.297 . S
O102 C104 1.247 . S
O103 Cd99 2.439 . S
O103 C104 1.208 . S
C104 O102 1.247 . S
C104 O103 1.208 . S
C105 O110 1.247 . S
C105 O111 1.208 . S
C106 O98 1.315 . S
C106 O101 1.279 . S
C107 O108 1.315 . S
C107 O109 1.279 . S
O108 Cd100 2.223 . S
O108 C107 1.315 . S
O109 Cd99 2.240 . S
O109 C107 1.279 . S
O110 Cd100 2.297 . S
O110 C105 1.247 . S
O111 Cd100 2.439 . S
O111 C105 1.208 . S
O112 Cd113 2.223 . S
O112 C120 1.315 . S
Cd113 O112 2.223 . S
Cd113 O116 2.297 . S
Cd113 O117 2.439 . S
Cd113 O123 2.240 . S
Cd114 O115 2.240 . S
Cd114 O122 2.223 . S
Cd114 O124 2.297 . S
Cd114 O125 2.439 . S
O115 Cd114 2.240 . S
O115 C120 1.279 . S
O116 Cd113 2.297 . S
O116 C118 1.247 . S
O117 Cd113 2.439 . S
O117 C118 1.208 . S
C118 O116 1.247 . S
C118 O117 1.208 . S
C119 O124 1.247 . S
C119 O125 1.208 . S
C120 O112 1.315 . S
C120 O115 1.279 . S
C121 O122 1.315 . S
C121 O123 1.279 . S
O122 Cd114 2.223 . S
O122 C121 1.315 . S
O123 Cd113 2.240 . S
O123 C121 1.279 . S
O124 Cd114 2.297 . S
O124 C119 1.247 . S
O125 Cd114 2.439 . S
O125 C119 1.208 . S
O126 Cd127 2.223 . S
O126 C134 1.315 . S
Cd127 O126 2.223 . S
Cd127 O130 2.297 . S
Cd127 O131 2.439 . S
Cd127 O137 2.240 . S
Cd128 O129 2.240 . S
Cd128 O136 2.223 . S
Cd128 O138 2.297 . S
Cd128 O139 2.439 . S
O129 Cd128 2.240 . S
O129 C134 1.279 . S
O130 Cd127 2.297 . S
O130 C132 1.247 . S
O131 Cd127 2.439 . S
O131 C132 1.208 . S
C132 O130 1.247 . S
C132 O131 1.208 . S
C133 O138 1.247 . S
C133 O139 1.208 . S
C134 O126 1.315 . S
C134 O129 1.279 . S
C135 O136 1.315 . S
C135 O137 1.279 . S
O136 Cd128 2.223 . S
O136 C135 1.315 . S
O137 Cd127 2.240 . S
O137 C135 1.279 . S
O138 Cd128 2.297 . S
O138 C133 1.247 . S
O139 Cd128 2.439 . S
O139 C133 1.208 . S
O140 Cd141 2.223 . S
O140 C148 1.315 . S
Cd141 O140 2.223 . S
Cd141 O144 2.297 . S
Cd141 O145 2.439 . S
Cd141 O151 2.240 . S
Cd142 O143 2.240 . S
Cd142 O150 2.223 . S
Cd142 O152 2.297 . S
Cd142 O153 2.439 . S
O143 Cd142 2.240 . S
O143 C148 1.279 . S
O144 Cd141 2.297 . S
O144 C146 1.247 . S
O145 Cd141 2.439 . S
O145 C146 1.208 . S
C146 O144 1.247 . S
C146 O145 1.208 . S
C147 O152 1.247 . S
C147 O153 1.208 . S
C148 O140 1.315 . S
C148 O143 1.279 . S
C149 O150 1.315 . S
C149 O151 1.279 . S
O150 Cd142 2.223 . S
O150 C149 1.315 . S
O151 Cd141 2.240 . S
O151 C149 1.279 . S
O152 Cd142 2.297 . S
O152 C147 1.247 . S
O153 Cd142 2.439 . S
O153 C147 1.208 . S
O154 Cd155 2.223 . S
O154 C162 1.315 . S
Cd155 O154 2.223 . S
Cd155 O158 2.297 . S
Cd155 O159 2.439 . S
Cd155 O165 2.240 . S
Cd156 O157 2.240 . S
Cd156 O164 2.223 . S
Cd156 O166 2.297 . S
Cd156 O167 2.439 . S
O157 Cd156 2.240 . S
O157 C162 1.279 . S
O158 Cd155 2.297 . S
O158 C160 1.247 . S
O159 Cd155 2.439 . S
O159 C160 1.208 . S
C160 O158 1.247 . S
C160 O159 1.208 . S
C161 O166 1.247 . S
C161 O167 1.208 . S
C162 O154 1.315 . S
C162 O157 1.279 . S
C163 O164 1.315 . S
C163 O165 1.279 . S
O164 Cd156 2.223 . S
O164 C163 1.315 . S
O165 Cd155 2.240 . S
O165 C163 1.279 . S
O166 Cd156 2.297 . S
O166 C161 1.247 . S
O167 Cd156 2.439 . S
O167 C161 1.208 . S
O168 Cd169 2.223 . S
O168 C176 1.315 . S
Cd169 O168 2.223 . S
Cd169 O172 2.297 . S
Cd169 O173 2.439 . S
Cd169 O179 2.240 . S
Cd170 O171 2.240 . S
Cd170 O178 2.223 . S
Cd170 O180 2.297 . S
Cd170 O181 2.439 . S
O171 Cd170 2.240 . S
O171 C176 1.279 . S
O172 Cd169 2.297 . S
O172 C174 1.247 . S
O173 Cd169 2.439 . S
O173 C174 1.208 . S
C174 O172 1.247 . S
C174 O173 1.208 . S
C175 O180 1.247 . S
C175 O181 1.208 . S
C176 O168 1.315 . S
C176 O171 1.279 . S
C177 O178 1.315 . S
C177 O179 1.279 . S
O178 Cd170 2.223 . S
O178 C177 1.315 . S
O179 Cd169 2.240 . S
O179 C177 1.279 . S
O180 Cd170 2.297 . S
O180 C175 1.247 . S
O181 Cd170 2.439 . S
O181 C175 1.208 . S
O182 Cd183 2.223 . S
O182 C190 1.315 . S
Cd183 O182 2.223 . S
Cd183 O186 2.297 . S
Cd183 O187 2.439 . S
Cd183 O193 2.240 . S
Cd184 O185 2.240 . S
Cd184 O192 2.223 . S
Cd184 O194 2.297 . S
Cd184 O195 2.439 . S
O185 Cd184 2.240 . S
O185 C190 1.279 . S
O186 Cd183 2.297 . S
O186 C188 1.247 . S
O187 Cd183 2.439 . S
O187 C188 1.208 . S
C188 O186 1.247 . S
C188 O187 1.208 . S
C189 O194 1.247 . S
C189 O195 1.208 . S
C190 O182 1.315 . S
C190 O185 1.279 . S
C191 O192 1.315 . S
C191 O193 1.279 . S
O192 Cd184 2.223 . S
O192 C191 1.315 . S
O193 Cd183 2.240 . S
O193 C191 1.279 . S
O194 Cd184 2.297 . S
O194 C189 1.247 . S
O195 Cd184 2.439 . S
O195 C189 1.208 . S
O196 Cd197 2.223 . S
O196 C204 1.315 . S
Cd197 O196 2.223 . S
Cd197 O200 2.297 . S
Cd197 O201 2.439 . S
Cd197 O207 2.240 . S
Cd198 O199 2.240 . S
Cd198 O206 2.223 . S
Cd198 O208 2.297 . S
Cd198 O209 2.439 . S
O199 Cd198 2.240 . S
O199 C204 1.279 . S
O200 Cd197 2.297 . S
O200 C202 1.247 . S
O201 Cd197 2.439 . S
O201 C202 1.208 . S
C202 O200 1.247 . S
C202 O201 1.208 . S
C203 O208 1.247 . S
C203 O209 1.208 . S
C204 O196 1.315 . S
C204 O199 1.279 . S
C205 O206 1.315 . S
C205 O207 1.279 . S
O206 Cd198 2.223 . S
O206 C205 1.315 . S
O207 Cd197 2.240 . S
O207 C205 1.279 . S
O208 Cd198 2.297 . S
O208 C203 1.247 . S
O209 Cd198 2.439 . S
O209 C203 1.208 . S
O210 Cd211 2.223 . S
O210 C218 1.315 . S
Cd211 O210 2.223 . S
Cd211 O214 2.297 . S
Cd211 O215 2.439 . S
Cd211 O221 2.240 . S
Cd212 O213 2.240 . S
Cd212 O220 2.223 . S
Cd212 O222 2.297 . S
Cd212 O223 2.439 . S
O213 Cd212 2.240 . S
O213 C218 1.279 . S
O214 Cd211 2.297 . S
O214 C216 1.247 . S
O215 Cd211 2.439 . S
O215 C216 1.208 . S
C216 O214 1.247 . S
C216 O215 1.208 . S
C217 O222 1.247 . S
C217 O223 1.208 . S
C218 O210 1.315 . S
C218 O213 1.279 . S
C219 O220 1.315 . S
C219 O221 1.279 . S
O220 Cd212 2.223 . S
O220 C219 1.315 . S
O221 Cd211 2.240 . S
O221 C219 1.279 . S
O222 Cd212 2.297 . S
O222 C217 1.247 . S
O223 Cd212 2.439 . S
O223 C217 1.208 . S
O224 Cd225 2.223 . S
O224 C232 1.315 . S
Cd225 O224 2.223 . S
Cd225 O228 2.297 . S
Cd225 O229 2.439 . S
Cd225 O235 2.240 . S
Cd226 O227 2.240 . S
Cd226 O234 2.223 . S
Cd226 O236 2.297 . S
Cd226 O237 2.439 . S
O227 Cd226 2.240 . S
O227 C232 1.279 . S
O228 Cd225 2.297 . S
O228 C230 1.247 . S
O229 Cd225 2.439 . S
O229 C230 1.208 . S
C230 O228 1.247 . S
C230 O229 1.208 . S
C231 O236 1.247 . S
C231 O237 1.208 . S
C232 O224 1.315 . S
C232 O227 1.279 . S
C233 O234 1.315 . S
C233 O235 1.279 . S
O234 Cd226 2.223 . S
O234 C233 1.315 . S
O235 Cd225 2.240 . S
O235 C233 1.279 . S
O236 Cd226 2.297 . S
O236 C231 1.247 . S
O237 Cd226 2.439 . S
O237 C231 1.208 . S
O238 Cd239 2.223 . S
O238 C246 1.315 . S
Cd239 O238 2.223 . S
Cd239 O242 2.297 . S
Cd239 O243 2.439 . S
Cd239 O249 2.240 . S
Cd240 O241 2.240 . S
Cd240 O248 2.223 . S
Cd240 O250 2.297 . S
Cd240 O251 2.439 . S
O241 Cd240 2.240 . S
O241 C246 1.279 . S
O242 Cd239 2.297 . S
O242 C244 1.247 . S
O243 Cd239 2.439 . S
O243 C244 1.208 . S
C244 O242 1.247 . S
C244 O243 1.208 . S
C245 O250 1.247 . S
C245 O251 1.208 . S
C246 O238 1.315 . S
C246 O241 1.279 . S
C247 O248 1.315 . S
C247 O249 1.279 . S
O248 Cd240 2.223 . S
O248 C247 1.315 . S
O249 Cd239 2.240 . S
O249 C247 1.279 . S
O250 Cd240 2.297 . S
O250 C245 1.247 . S
O251 Cd240 2.439 . S
O251 C245 1.208 . S
O252 Cd253 2.223 . S
O252 C260 1.315 . S
Cd253 O252 2.223 . S
Cd253 O256 2.297 . S
Cd253 O257 2.439 . S
Cd253 O263 2.240 . S
Cd254 O255 2.240 . S
Cd254 O262 2.223 . S
Cd254 O264 2.297 . S
Cd254 O265 2.439 . S
O255 Cd254 2.240 . S
O255 C260 1.279 . S
O256 Cd253 2.297 . S
O256 C258 1.247 . S
O257 Cd253 2.439 . S
O257 C258 1.208 . S
C258 O256 1.247 . S
C258 O257 1.208 . S
C259 O264 1.247 . S
C259 O265 1.208 . S
C260 O252 1.315 . S
C260 O255 1.279 . S
C261 O262 1.315 . S
C261 O263 1.279 . S
O262 Cd254 2.223 . S
O262 C261 1.315 . S
O263 Cd253 2.240 . S
O263 C261 1.279 . S
O264 Cd254 2.297 . S
O264 C259 1.247 . S
O265 Cd254 2.439 . S
O265 C259 1.208 . S
O266 Cd267 2.223 . S
O266 C274 1.315 . S
Cd267 O266 2.223 . S
Cd267 O270 2.297 . S
Cd267 O271 2.439 . S
Cd267 O277 2.240 . S
Cd268 O269 2.240 . S
Cd268 O276 2.223 . S
Cd268 O278 2.297 . S
Cd268 O279 2.439 . S
O269 Cd268 2.240 . S
O269 C274 1.279 . S
O270 Cd267 2.297 . S
O270 C272 1.247 . S
O271 Cd267 2.439 . S
O271 C272 1.208 . S
C272 O270 1.247 . S
C272 O271 1.208 . S
C273 O278 1.247 . S
C273 O279 1.208 . S
C274 O266 1.315 . S
C274 O269 1.279 . S
C275 O276 1.315 . S
C275 O277 1.279 . S
O276 Cd268 2.223 . S
O276 C275 1.315 . S
O277 Cd267 2.240 . S
O277 C275 1.279 . S
O278 Cd268 2.297 . S
O278 C273 1.247 . S
O279 Cd268 2.439 . S
O279 C273 1.208 . S
O280 Cd281 2.223 . S
O280 C288 1.315 . S
Cd281 O280 2.223 . S
Cd281 O284 2.297 . S
Cd281 O285 2.439 . S
Cd281 O291 2.240 . S
Cd282 O283 2.240 . S
Cd282 O290 2.223 . S
Cd282 O292 2.297 . S
Cd282 O293 2.439 . S
O283 Cd282 2.240 . S
O283 C288 1.279 . S
O284 Cd281 2.297 . S
O284 C286 1.247 . S
O285 Cd281 2.439 . S
O285 C286 1.208 . S
C286 O284 1.247 . S
C286 O285 1.208 . S
C287 O292 1.247 . S
C287 O293 1.208 . S
C288 O280 1.315 . S
C288 O283 1.279 . S
C289 O290 1.315 . S
C289 O291 1.279 . S
O290 Cd282 2.223 . S
O290 C289 1.315 . S
O291 Cd281 2.240 . S
O291 C289 1.279 . S
O292 Cd282 2.297 . S
O292 C287 1.247 . S
O293 Cd282 2.439 . S
O293 C287 1.208 . S
O294 Cd295 2.223 . S
O294 C302 1.315 . S
Cd295 O294 2.223 . S
Cd295 O298 2.297 . S
Cd295 O299 2.439 . S
Cd295 O305 2.240 . S
Cd296 O297 2.240 . S
Cd296 O304 2.223 . S
Cd296 O306 2.297 . S
Cd296 O307 2.439 . S
O297 Cd296 2.240 . S
O297 C302 1.279 . S
O298 Cd295 2.297 . S
O298 C300 1.247 . S
O299 Cd295 2.439 . S
O299 C300 1.208 . S
C300 O298 1.247 . S
C300 O299 1.208 . S
C301 O306 1.247 . S
C301 O307 1.208 . S
C302 O294 1.315 . S
C302 O297 1.279 . S
C303 O304 1.315 . S
C303 O305 1.279 . S
O304 Cd296 2.223 . S
O304 C303 1.315 . S
O305 Cd295 2.240 . S
O305 C303 1.279 . S
O306 Cd296 2.297 . S
O306 C301 1.247 . S
O307 Cd296 2.439 . S
O307 C301 1.208 . S
O308 Cd309 2.223 . S
O308 C316 1.315 . S
Cd309 O308 2.223 . S
Cd309 O312 2.297 . S
Cd309 O313 2.439 . S
Cd309 O319 2.240 . S
Cd310 O311 2.240 . S
Cd310 O318 2.223 . S
Cd310 O320 2.297 . S
Cd310 O321 2.439 . S
O311 Cd310 2.240 . S
O311 C316 1.279 . S
O312 Cd309 2.297 . S
O312 C314 1.247 . S
O313 Cd309 2.439 . S
O313 C314 1.208 . S
C314 O312 1.247 . S
C314 O313 1.208 . S
C315 O320 1.247 . S
C315 O321 1.208 . S
C316 O308 1.315 . S
C316 O311 1.279 . S
C317 O318 1.315 . S
C317 O319 1.279 . S
O318 Cd310 2.223 . S
O318 C317 1.315 . S
O319 Cd309 2.240 . S
O319 C317 1.279 . S
O320 Cd310 2.297 . S
O320 C315 1.247 . S
O321 Cd310 2.439 . S
O321 C315 1.208 . S
O322 Cd323 2.223 . S
O322 C330 1.315 . S
Cd323 O322 2.223 . S
Cd323 O326 2.297 . S
Cd323 O327 2.439 . S
Cd323 O333 2.240 . S
Cd324 O325 2.240 . S
Cd324 O332 2.223 . S
Cd324 O334 2.297 . S
Cd324 O335 2.439 . S
O325 Cd324 2.240 . S
O325 C330 1.279 . S
O326 Cd323 2.297 . S
O326 C328 1.247 . S
O327 Cd323 2.439 . S
O327 C328 1.208 . S
C328 O326 1.247 . S
C328 O327 1.208 . S
C329 O334 1.247 . S
C329 O335 1.208 . S
C330 O322 1.315 . S
C330 O325 1.279 . S
C331 O332 1.315 . S
C331 O333 1.279 . S
O332 Cd324 2.223 . S
O332 C331 1.315 . S
O333 Cd323 2.240 . S
O333 C331 1.279 . S
O334 Cd324 2.297 . S
O334 C329 1.247 . S
O335 Cd324 2.439 . S
O335 C329 1.208 . S
O336 Cd337 2.223 . S
O336 C344 1.315 . S
Cd337 O336 2.223 . S
Cd337 O340 2.297 . S
Cd337 O341 2.439 . S
Cd337 O347 2.240 . S
Cd338 O339 2.240 . S
Cd338 O346 2.223 . S
Cd338 O348 2.297 . S
Cd338 O349 2.439 . S
O339 Cd338 2.240 . S
O339 C344 1.279 . S
O340 Cd337 2.297 . S
O340 C342 1.247 . S
O341 Cd337 2.439 . S
O341 C342 1.208 . S
C342 O340 1.247 . S
C342 O341 1.208 . S
C343 O348 1.247 . S
C343 O349 1.208 . S
C344 O336 1.315 . S
C344 O339 1.279 . S
C345 O346 1.315 . S
C345 O347 1.279 . S
O346 Cd338 2.223 . S
O346 C345 1.315 . S
O347 Cd337 2.240 . S
O347 C345 1.279 . S
O348 Cd338 2.297 . S
O348 C343 1.247 . S
O349 Cd338 2.439 . S
O349 C343 1.208 . S
O350 Cd351 2.223 . S
O350 C358 1.315 . S
Cd351 O350 2.223 . S
Cd351 O354 2.297 . S
Cd351 O355 2.439 . S
Cd351 O361 2.240 . S
Cd352 O353 2.240 . S
Cd352 O360 2.223 . S
Cd352 O362 2.297 . S
Cd352 O363 2.439 . S
O353 Cd352 2.240 . S
O353 C358 1.279 . S
O354 Cd351 2.297 . S
O354 C356 1.247 . S
O355 Cd351 2.439 . S
O355 C356 1.208 . S
C356 O354 1.247 . S
C356 O355 1.208 . S
C357 O362 1.247 . S
C357 O363 1.208 . S
C358 O350 1.315 . S
C358 O353 1.279 . S
C359 O360 1.315 . S
C359 O361 1.279 . S
O360 Cd352 2.223 . S
O360 C359 1.315 . S
O361 Cd351 2.240 . S
O361 C359 1.279 . S
O362 Cd352 2.297 . S
O362 C357 1.247 . S
O363 Cd352 2.439 . S
O363 C357 1.208 . S
O364 Cd365 2.223 . S
O364 C372 1.315 . S
Cd365 O364 2.223 . S
Cd365 O368 2.297 . S
Cd365 O369 2.439 . S
Cd365 O375 2.240 . S
Cd366 O367 2.240 . S
Cd366 O374 2.223 . S
Cd366 O376 2.297 . S
Cd366 O377 2.439 . S
O367 Cd366 2.240 . S
O367 C372 1.279 . S
O368 Cd365 2.297 . S
O368 C370 1.247 . S
O369 Cd365 2.439 . S
O369 C370 1.208 . S
C370 O368 1.247 . S
C370 O369 1.208 . S
C371 O376 1.247 . S
C371 O377 1.208 . S
C372 O364 1.315 . S
C372 O367 1.279 . S
C373 O374 1.315 . S
C373 O375 1.279 . S
O374 Cd366 2.223 . S
O374 C373 1.315 . S
O375 Cd365 2.240 . S
O375 C373 1.279 . S
O376 Cd366 2.297 . S
O376 C371 1.247 . S
O377 Cd366 2.439 . S
O377 C371 1.208 . S
O378 Cd379 2.223 . S
O378 C386 1.315 . S
Cd379 O378 2.223 . S
Cd379 O382 2.297 . S
Cd379 O383 2.439 . S
Cd379 O389 2.240 . S
Cd380 O381 2.240 . S
Cd380 O388 2.223 . S
Cd380 O390 2.297 . S
Cd380 O391 2.439 . S
O381 Cd380 2.240 . S
O381 C386 1.279 . S
O382 Cd379 2.297 . S
O382 C384 1.247 . S
O383 Cd379 2.439 . S
O383 C384 1.208 . S
C384 O382 1.247 . S
C384 O383 1.208 . S
C385 O390 1.247 . S
C385 O391 1.208 . S
C386 O378 1.315 . S
C386 O381 1.279 . S
C387 O388 1.315 . S
C387 O389 1.279 . S
O388 Cd380 2.223 . S
O388 C387 1.315 . S
O389 Cd379 2.240 . S
O389 C387 1.279 . S
O390 Cd380 2.297 . S
O390 C385 1.247 . S
O391 Cd380 2.439 . S
O391 C385 1.208 . S
O392 Cd393 2.223 . S
O392 C400 1.315 . S
Cd393 O392 2.223 . S
Cd393 O396 2.297 . S
Cd393 O397 2.439 . S
Cd393 O403 2.240 . S
Cd394 O395 2.240 . S
Cd394 O402 2.223 . S
Cd394 O404 2.297 . S
Cd394 O405 2.439 . S
O395 Cd394 2.240 . S
O395 C400 1.279 . S
O396 Cd393 2.297 . S
O396 C398 1.247 . S
O397 Cd393 2.439 . S
O397 C398 1.208 . S
C398 O396 1.247 . S
C398 O397 1.208 . S
C399 O404 1.247 . S
C399 O405 1.208 . S
C400 O392 1.315 . S
C400 O395 1.279 . S
C401 O402 1.315 . S
C401 O403 1.279 . S
O402 Cd394 2.223 . S
O402 C401 1.315 . S
O403 Cd393 2.240 . S
O403 C401 1.279 . S
O404 Cd394 2.297 . S
O404 C399 1.247 . S
O405 Cd394 2.439 . S
O405 C399 1.208 . S
O406 Cd407 2.223 . S
O406 C414 1.315 . S
Cd407 O406 2.223 . S
Cd407 O410 2.297 . S
Cd407 O411 2.439 . S
Cd407 O417 2.240 . S
Cd408 O409 2.240 . S
Cd408 O416 2.223 . S
Cd408 O418 2.297 . S
Cd408 O419 2.439 . S
O409 Cd408 2.240 . S
O409 C414 1.279 . S
O410 Cd407 2.297 . S
O410 C412 1.247 . S
O411 Cd407 2.439 . S
O411 C412 1.208 . S
C412 O410 1.247 . S
C412 O411 1.208 . S
C413 O418 1.247 . S
C413 O419 1.208 . S
C414 O406 1.315 . S
C414 O409 1.279 . S
C415 O416 1.315 . S
C415 O417 1.279 . S
O416 Cd408 2.223 . S
O416 C415 1.315 . S
O417 Cd407 2.240 . S
O417 C415 1.279 . S
O418 Cd408 2.297 . S
O418 C413 1.247 . S
O419 Cd408 2.439 . S
O419 C413 1.208 . S
O420 Cd421 2.223 . S
O420 C428 1.315 . S
Cd421 O420 2.223 . S
Cd421 O424 2.297 . S
Cd421 O425 2.439 . S
Cd421 O431 2.240 . S
Cd422 O423 2.240 . S
Cd422 O430 2.223 . S
Cd422 O432 2.297 . S
Cd422 O433 2.439 . S
O423 Cd422 2.240 . S
O423 C428 1.279 . S
O424 Cd421 2.297 . S
O424 C426 1.247 . S
O425 Cd421 2.439 . S
O425 C426 1.208 . S
C426 O424 1.247 . S
C426 O425 1.208 . S
C427 O432 1.247 . S
C427 O433 1.208 . S
C428 O420 1.315 . S
C428 O423 1.279 . S
C429 O430 1.315 . S
C429 O431 1.279 . S
O430 Cd422 2.223 . S
O430 C429 1.315 . S
O431 Cd421 2.240 . S
O431 C429 1.279 . S
O432 Cd422 2.297 . S
O432 C427 1.247 . S
O433 Cd422 2.439 . S
O433 C427 1.208 . S
O434 Cd435 2.223 . S
O434 C442 1.315 . S
Cd435 O434 2.223 . S
Cd435 O438 2.297 . S
Cd435 O439 2.439 . S
Cd435 O445 2.240 . S
Cd436 O437 2.240 . S
Cd436 O444 2.223 . S
Cd436 O446 2.297 . S
Cd436 O447 2.439 . S
O437 Cd436 2.240 . S
O437 C442 1.279 . S
O438 Cd435 2.297 . S
O438 C440 1.247 . S
O439 Cd435 2.439 . S
O439 C440 1.208 . S
C440 O438 1.247 . S
C440 O439 1.208 . S
C441 O446 1.247 . S
C441 O447 1.208 . S
C442 O434 1.315 . S
C442 O437 1.279 . S
C443 O444 1.315 . S
C443 O445 1.279 . S
O444 Cd436 2.223 . S
O444 C443 1.315 . S
O445 Cd435 2.240 . S
O445 C443 1.279 . S
O446 Cd436 2.297 . S
O446 C441 1.247 . S
O447 Cd436 2.439 . S
O447 C441 1.208 . S
H448 C466 0.951 . S
H449 C468 0.951 . S
H450 C470 0.950 . S
H451 C471 0.950 . S
H452 C473 0.950 . S
H453 C476 0.950 . S
H454 C477 0.950 . S
H455 C479 0.950 1_655 S
H456 C480 0.950 . S
H457 C481 0.951 . S
H458 C483 0.951 . S
H459 C485 0.950 . S
H460 C486 0.950 . S
H461 C488 0.950 . S
H462 C491 0.950 . S
H463 C492 0.950 . S
H464 C494 0.950 . S
H465 C495 0.950 . S
C466 H448 0.951 . S
C466 C467 1.366 . S
C466 C468 1.388 . S
C467 C466 1.366 . S
C467 C471 1.385 . S
C468 H449 0.951 . S
C468 C466 1.388 . S
C468 C469 1.366 . S
C469 C468 1.366 . S
C469 C470 1.414 . S
C469 C472 1.499 . S
C470 H450 0.950 . S
C470 C469 1.414 . S
C470 C471 1.374 . S
C471 H451 0.950 . S
C471 C467 1.385 . S
C471 C470 1.374 . S
C472 C469 1.499 . S
C472 C473 1.373 . S
C472 C474 1.389 . S
C473 H452 0.950 . S
C473 C472 1.373 . S
C473 C489 1.377 . S
C474 C472 1.389 . S
C474 C475 1.524 . S
C474 C488 1.377 . S
C475 C474 1.524 . S
C475 C476 1.397 . S
C475 C480 1.363 . S
C476 H453 0.950 . S
C476 C475 1.397 . S
C476 C477 1.334 . S
C477 H454 0.950 . S
C477 C476 1.334 . S
C477 C478 1.287 . S
C478 C477 1.287 . S
C478 C479 1.524 . S
C478 H497 0.913 . S
C479 H455 0.950 1_455 S
C479 C478 1.524 . S
C479 C480 1.415 . S
C480 H456 0.950 . S
C480 C475 1.363 . S
C480 C479 1.415 . S
C481 H457 0.951 . S
C481 C482 1.366 . S
C481 C483 1.388 . S
C482 C481 1.366 . S
C482 C486 1.385 . S
C483 H458 0.951 . S
C483 C481 1.388 . S
C483 C484 1.366 . S
C484 C483 1.366 . S
C484 C485 1.414 . S
C484 C487 1.499 . S
C485 H459 0.950 . S
C485 C484 1.414 . S
C485 C486 1.374 . S
C486 H460 0.950 . S
C486 C482 1.385 . S
C486 C485 1.374 . S
C487 C484 1.499 . S
C487 C488 1.373 . S
C487 C489 1.389 . S
C488 H461 0.950 . S
C488 C474 1.377 . S
C488 C487 1.373 . S
C489 C473 1.377 . S
C489 C487 1.389 . S
C489 C490 1.524 . S
C490 C489 1.524 . S
C490 C491 1.397 . S
C490 C495 1.363 . S
C491 H462 0.950 . S
C491 C490 1.397 . S
C491 C492 1.334 . S
C492 H463 0.950 . S
C492 C491 1.334 . S
C492 C493 1.287 . S
C493 C492 1.287 . S
C493 C494 1.524 . S
C493 H496 0.999 . S
C494 H464 0.950 . S
C494 C493 1.524 . S
C494 C495 1.415 . S
C495 H465 0.950 . S
C495 C490 1.363 . S
C495 C494 1.415 . S
H496 C493 0.999 . S
H497 C478 0.913 . S
H498 C516 0.951 . S
H499 C518 0.951 . S
H500 C520 0.950 . S
H501 C521 0.950 . S
H502 C523 0.950 . S
H503 C526 0.950 . S
H504 C527 0.950 . S
H505 C529 0.950 1_655 S
H506 C530 0.950 . S
H507 C531 0.951 . S
H508 C533 0.951 . S
H509 C535 0.950 . S
H510 C536 0.950 . S
H511 C538 0.950 . S
H512 C541 0.950 . S
H513 C542 0.950 . S
H514 C544 0.950 . S
H515 C545 0.950 . S
C516 H498 0.951 . S
C516 C517 1.366 . S
C516 C518 1.388 . S
C517 C516 1.366 . S
C517 C521 1.385 . S
C518 H499 0.951 . S
C518 C516 1.388 . S
C518 C519 1.366 . S
C519 C518 1.366 . S
C519 C520 1.414 . S
C519 C522 1.499 . S
C520 H500 0.950 . S
C520 C519 1.414 . S
C520 C521 1.374 . S
C521 H501 0.950 . S
C521 C517 1.385 . S
C521 C520 1.374 . S
C522 C519 1.499 . S
C522 C523 1.373 . S
C522 C524 1.389 . S
C523 H502 0.950 . S
C523 C522 1.373 . S
C523 C539 1.377 . S
C524 C522 1.389 . S
C524 C525 1.524 . S
C524 C538 1.377 . S
C525 C524 1.524 . S
C525 C526 1.397 . S
C525 C530 1.363 . S
C526 H503 0.950 . S
C526 C525 1.397 . S
C526 C527 1.334 . S
C527 H504 0.950 . S
C527 C526 1.334 . S
C527 C528 1.287 . S
C528 C527 1.287 . S
C528 C529 1.524 . S
C528 H547 0.913 . S
C529 H505 0.950 1_455 S
C529 C528 1.524 . S
C529 C530 1.415 . S
C530 H506 0.950 . S
C530 C525 1.363 . S
C530 C529 1.415 . S
C531 H507 0.951 . S
C531 C532 1.366 . S
C531 C533 1.388 . S
C532 C531 1.366 . S
C532 C536 1.385 . S
C533 H508 0.951 . S
C533 C531 1.388 . S
C533 C534 1.366 . S
C534 C533 1.366 . S
C534 C535 1.414 . S
C534 C537 1.499 . S
C535 H509 0.950 . S
C535 C534 1.414 . S
C535 C536 1.374 . S
C536 H510 0.950 . S
C536 C532 1.385 . S
C536 C535 1.374 . S
C537 C534 1.499 . S
C537 C538 1.373 . S
C537 C539 1.389 . S
C538 H511 0.950 . S
C538 C524 1.377 . S
C538 C537 1.373 . S
C539 C523 1.377 . S
C539 C537 1.389 . S
C539 C540 1.524 . S
C540 C539 1.524 . S
C540 C541 1.397 . S
C540 C545 1.363 . S
C541 H512 0.950 . S
C541 C540 1.397 . S
C541 C542 1.334 . S
C542 H513 0.950 . S
C542 C541 1.334 . S
C542 C543 1.287 . S
C543 C542 1.287 . S
C543 C544 1.524 . S
C543 H546 0.999 . S
C544 H514 0.950 . S
C544 C543 1.524 . S
C544 C545 1.415 . S
C545 H515 0.950 . S
C545 C540 1.363 . S
C545 C544 1.415 . S
H546 C543 0.999 . S
H547 C528 0.913 . S
H548 C566 0.951 . S
H549 C568 0.951 . S
H550 C570 0.950 . S
H551 C571 0.950 . S
H552 C573 0.950 . S
H553 C576 0.950 . S
H554 C577 0.950 . S
H555 C579 0.950 . S
H556 C580 0.950 . S
H557 C581 0.951 . S
H558 C583 0.951 . S
H559 C585 0.950 . S
H560 C586 0.950 . S
H561 C588 0.950 . S
H562 C591 0.950 . S
H563 C592 0.950 . S
H564 C594 0.950 . S
H565 C595 0.950 . S
C566 H548 0.951 . S
C566 C567 1.366 . S
C566 C568 1.388 . S
C567 C566 1.366 . S
C567 C571 1.385 . S
C568 H549 0.951 . S
C568 C566 1.388 . S
C568 C569 1.366 . S
C569 C568 1.366 . S
C569 C570 1.414 . S
C569 C572 1.499 . S
C570 H550 0.950 . S
C570 C569 1.414 . S
C570 C571 1.374 . S
C571 H551 0.950 . S
C571 C567 1.385 . S
C571 C570 1.374 . S
C572 C569 1.499 . S
C572 C573 1.373 . S
C572 C574 1.389 . S
C573 H552 0.950 . S
C573 C572 1.373 . S
C573 C589 1.377 . S
C574 C572 1.389 . S
C574 C575 1.524 . S
C574 C588 1.377 . S
C575 C574 1.524 . S
C575 C576 1.397 . S
C575 C580 1.363 . S
C576 H553 0.950 . S
C576 C575 1.397 . S
C576 C577 1.334 . S
C577 H554 0.950 . S
C577 C576 1.334 . S
C577 C578 1.287 . S
C578 C577 1.287 . S
C578 C579 1.524 . S
C578 H597 0.913 . S
C579 H555 0.950 . S
C579 C578 1.524 . S
C579 C580 1.415 . S
C580 H556 0.950 . S
C580 C575 1.363 . S
C580 C579 1.415 . S
C581 H557 0.951 . S
C581 C582 1.366 . S
C581 C583 1.388 . S
C582 C581 1.366 . S
C582 C586 1.385 . S
C583 H558 0.951 . S
C583 C581 1.388 . S
C583 C584 1.366 . S
C584 C583 1.366 . S
C584 C585 1.414 . S
C584 C587 1.499 . S
C585 H559 0.950 . S
C585 C584 1.414 . S
C585 C586 1.374 . S
C586 H560 0.950 . S
C586 C582 1.385 . S
C586 C585 1.374 . S
C587 C584 1.499 . S
C587 C588 1.373 . S
C587 C589 1.389 . S
C588 H561 0.950 . S
C588 C574 1.377 . S
C588 C587 1.373 . S
C589 C573 1.377 . S
C589 C587 1.389 . S
C589 C590 1.524 . S
C590 C589 1.524 . S
C590 C591 1.397 . S
C590 C595 1.363 . S
C591 H562 0.950 . S
C591 C590 1.397 . S
C591 C592 1.334 . S
C592 H563 0.950 . S
C592 C591 1.334 . S
C592 C593 1.287 . S
C593 C592 1.287 . S
C593 C594 1.524 . S
C593 H596 0.999 . S
C594 H564 0.950 . S
C594 C593 1.524 . S
C594 C595 1.415 . S
C595 H565 0.950 . S
C595 C590 1.363 . S
C595 C594 1.415 . S
H596 C593 0.999 . S
H597 C578 0.913 . S
H598 C616 0.951 . S
H599 C618 0.951 . S
H600 C620 0.950 . S
H601 C621 0.950 . S
H602 C623 0.950 . S
H603 C626 0.950 . S
H604 C627 0.950 . S
H605 C629 0.950 . S
H606 C630 0.950 . S
H607 C631 0.951 . S
H608 C633 0.951 . S
H609 C635 0.950 . S
H610 C636 0.950 . S
H611 C638 0.950 . S
H612 C641 0.950 . S
H613 C642 0.950 . S
H614 C644 0.950 . S
H615 C645 0.950 . S
C616 H598 0.951 . S
C616 C617 1.366 . S
C616 C618 1.388 . S
C617 C616 1.366 . S
C617 C621 1.385 . S
C618 H599 0.951 . S
C618 C616 1.388 . S
C618 C619 1.366 . S
C619 C618 1.366 . S
C619 C620 1.414 . S
C619 C622 1.499 . S
C620 H600 0.950 . S
C620 C619 1.414 . S
C620 C621 1.374 . S
C621 H601 0.950 . S
C621 C617 1.385 . S
C621 C620 1.374 . S
C622 C619 1.499 . S
C622 C623 1.373 . S
C622 C624 1.389 . S
C623 H602 0.950 . S
C623 C622 1.373 . S
C623 C639 1.377 . S
C624 C622 1.389 . S
C624 C625 1.524 . S
C624 C638 1.377 . S
C625 C624 1.524 . S
C625 C626 1.397 . S
C625 C630 1.363 . S
C626 H603 0.950 . S
C626 C625 1.397 . S
C626 C627 1.334 . S
C627 H604 0.950 . S
C627 C626 1.334 . S
C627 C628 1.287 . S
C628 C627 1.287 . S
C628 C629 1.524 . S
C628 H647 0.913 1_455 S
C629 H605 0.950 . S
C629 C628 1.524 . S
C629 C630 1.415 . S
C630 H606 0.950 . S
C630 C625 1.363 . S
C630 C629 1.415 . S
C631 H607 0.951 . S
C631 C632 1.366 . S
C631 C633 1.388 . S
C632 C631 1.366 . S
C632 C636 1.385 . S
C633 H608 0.951 . S
C633 C631 1.388 . S
C633 C634 1.366 . S
C634 C633 1.366 . S
C634 C635 1.414 . S
C634 C637 1.499 . S
C635 H609 0.950 . S
C635 C634 1.414 . S
C635 C636 1.374 . S
C636 H610 0.950 . S
C636 C632 1.385 . S
C636 C635 1.374 . S
C637 C634 1.499 . S
C637 C638 1.373 . S
C637 C639 1.389 . S
C638 H611 0.950 . S
C638 C624 1.377 . S
C638 C637 1.373 . S
C639 C623 1.377 . S
C639 C637 1.389 . S
C639 C640 1.524 . S
C640 C639 1.524 . S
C640 C641 1.397 . S
C640 C645 1.363 . S
C641 H612 0.950 . S
C641 C640 1.397 . S
C641 C642 1.334 . S
C642 H613 0.950 . S
C642 C641 1.334 . S
C642 C643 1.287 . S
C643 C642 1.287 . S
C643 C644 1.524 . S
C643 H646 0.999 . S
C644 H614 0.950 . S
C644 C643 1.524 . S
C644 C645 1.415 . S
C645 H615 0.950 . S
C645 C640 1.363 . S
C645 C644 1.415 . S
H646 C643 0.999 . S
H647 C628 0.913 1_655 S
H648 C666 0.951 . S
H649 C668 0.951 . S
H650 C670 0.950 . S
H651 C671 0.950 . S
H652 C673 0.950 . S
H653 C676 0.950 . S
H654 C677 0.950 . S
H655 C679 0.950 1_455 S
H656 C680 0.950 . S
H657 C681 0.951 . S
H658 C683 0.951 . S
H659 C685 0.950 . S
H660 C686 0.950 . S
H661 C688 0.950 . S
H662 C691 0.950 . S
H663 C692 0.950 . S
H664 C694 0.950 . S
H665 C695 0.950 . S
C666 H648 0.951 . S
C666 C667 1.366 . S
C666 C668 1.388 . S
C667 C666 1.366 . S
C667 C671 1.385 . S
C668 H649 0.951 . S
C668 C666 1.388 . S
C668 C669 1.366 . S
C669 C668 1.366 . S
C669 C670 1.414 . S
C669 C672 1.499 . S
C670 H650 0.950 . S
C670 C669 1.414 . S
C670 C671 1.374 . S
C671 H651 0.950 . S
C671 C667 1.385 . S
C671 C670 1.374 . S
C672 C669 1.499 . S
C672 C673 1.373 . S
C672 C674 1.389 . S
C673 H652 0.950 . S
C673 C672 1.373 . S
C673 C689 1.377 . S
C674 C672 1.389 . S
C674 C675 1.524 . S
C674 C688 1.377 . S
C675 C674 1.524 . S
C675 C676 1.397 . S
C675 C680 1.363 . S
C676 H653 0.950 . S
C676 C675 1.397 . S
C676 C677 1.334 . S
C677 H654 0.950 . S
C677 C676 1.334 . S
C677 C678 1.287 . S
C678 C677 1.287 . S
C678 C679 1.524 . S
C678 H697 0.913 . S
C679 H655 0.950 1_655 S
C679 C678 1.524 . S
C679 C680 1.415 . S
C680 H656 0.950 . S
C680 C675 1.363 . S
C680 C679 1.415 . S
C681 H657 0.951 . S
C681 C682 1.366 . S
C681 C683 1.388 . S
C682 C681 1.366 . S
C682 C686 1.385 . S
C683 H658 0.951 . S
C683 C681 1.388 . S
C683 C684 1.366 . S
C684 C683 1.366 . S
C684 C685 1.414 . S
C684 C687 1.499 . S
C685 H659 0.950 . S
C685 C684 1.414 . S
C685 C686 1.374 . S
C686 H660 0.950 . S
C686 C682 1.385 . S
C686 C685 1.374 . S
C687 C684 1.499 . S
C687 C688 1.373 . S
C687 C689 1.389 . S
C688 H661 0.950 . S
C688 C674 1.377 . S
C688 C687 1.373 . S
C689 C673 1.377 . S
C689 C687 1.389 . S
C689 C690 1.524 . S
C690 C689 1.524 . S
C690 C691 1.397 . S
C690 C695 1.363 . S
C691 H662 0.950 . S
C691 C690 1.397 . S
C691 C692 1.334 . S
C692 H663 0.950 . S
C692 C691 1.334 . S
C692 C693 1.287 . S
C693 C692 1.287 . S
C693 C694 1.524 . S
C693 H696 0.999 . S
C694 H664 0.950 . S
C694 C693 1.524 . S
C694 C695 1.415 . S
C695 H665 0.950 . S
C695 C690 1.363 . S
C695 C694 1.415 . S
H696 C693 0.999 . S
H697 C678 0.913 . S
H698 C716 0.951 . S
H699 C718 0.951 . S
H700 C720 0.950 . S
H701 C721 0.950 . S
H702 C723 0.950 . S
H703 C726 0.950 . S
H704 C727 0.950 . S
H705 C729 0.950 . S
H706 C730 0.950 . S
H707 C731 0.951 . S
H708 C733 0.951 . S
H709 C735 0.950 . S
H710 C736 0.950 . S
H711 C738 0.950 . S
H712 C741 0.950 . S
H713 C742 0.950 . S
H714 C744 0.950 1_455 S
H715 C745 0.950 . S
C716 H698 0.951 . S
C716 C717 1.366 . S
C716 C718 1.388 . S
C717 C716 1.366 . S
C717 C721 1.385 . S
C718 H699 0.951 . S
C718 C716 1.388 . S
C718 C719 1.366 . S
C719 C718 1.366 . S
C719 C720 1.414 . S
C719 C722 1.499 . S
C720 H700 0.950 . S
C720 C719 1.414 . S
C720 C721 1.374 . S
C721 H701 0.950 . S
C721 C717 1.385 . S
C721 C720 1.374 . S
C722 C719 1.499 . S
C722 C723 1.373 . S
C722 C724 1.389 . S
C723 H702 0.950 . S
C723 C722 1.373 . S
C723 C739 1.377 . S
C724 C722 1.389 . S
C724 C725 1.524 . S
C724 C738 1.377 . S
C725 C724 1.524 . S
C725 C726 1.397 . S
C725 C730 1.363 . S
C726 H703 0.950 . S
C726 C725 1.397 . S
C726 C727 1.334 . S
C727 H704 0.950 . S
C727 C726 1.334 . S
C727 C728 1.287 . S
C728 C727 1.287 . S
C728 C729 1.524 . S
C728 H747 0.913 . S
C729 H705 0.950 . S
C729 C728 1.524 . S
C729 C730 1.415 . S
C730 H706 0.950 . S
C730 C725 1.363 . S
C730 C729 1.415 . S
C731 H707 0.951 . S
C731 C732 1.366 . S
C731 C733 1.388 . S
C732 C731 1.366 . S
C732 C736 1.385 . S
C733 H708 0.951 . S
C733 C731 1.388 . S
C733 C734 1.366 . S
C734 C733 1.366 . S
C734 C735 1.414 . S
C734 C737 1.499 . S
C735 H709 0.950 . S
C735 C734 1.414 . S
C735 C736 1.374 . S
C736 H710 0.950 . S
C736 C732 1.385 . S
C736 C735 1.374 . S
C737 C734 1.499 . S
C737 C738 1.373 . S
C737 C739 1.389 . S
C738 H711 0.950 . S
C738 C724 1.377 . S
C738 C737 1.373 . S
C739 C723 1.377 . S
C739 C737 1.389 . S
C739 C740 1.524 . S
C740 C739 1.524 . S
C740 C741 1.397 . S
C740 C745 1.363 . S
C741 H712 0.950 . S
C741 C740 1.397 . S
C741 C742 1.334 . S
C742 H713 0.950 . S
C742 C741 1.334 . S
C742 C743 1.287 . S
C743 C742 1.287 . S
C743 C744 1.524 . S
C743 H746 0.999 . S
C744 H714 0.950 1_655 S
C744 C743 1.524 . S
C744 C745 1.415 . S
C745 H715 0.950 . S
C745 C740 1.363 . S
C745 C744 1.415 . S
H746 C743 0.999 . S
H747 C728 0.913 . S
H748 C766 0.951 . S
H749 C768 0.951 . S
H750 C770 0.950 . S
H751 C771 0.950 . S
H752 C773 0.950 . S
H753 C776 0.950 . S
H754 C777 0.950 . S
H755 C779 0.950 . S
H756 C780 0.950 . S
H757 C781 0.951 . S
H758 C783 0.951 . S
H759 C785 0.950 . S
H760 C786 0.950 . S
H761 C788 0.950 . S
H762 C791 0.950 . S
H763 C792 0.950 . S
H764 C794 0.950 . S
H765 C795 0.950 . S
C766 H748 0.951 . S
C766 C767 1.366 . S
C766 C768 1.388 . S
C767 C766 1.366 . S
C767 C771 1.385 . S
C768 H749 0.951 . S
C768 C766 1.388 . S
C768 C769 1.366 . S
C769 C768 1.366 . S
C769 C770 1.414 . S
C769 C772 1.499 . S
C770 H750 0.950 . S
C770 C769 1.414 . S
C770 C771 1.374 . S
C771 H751 0.950 . S
C771 C767 1.385 . S
C771 C770 1.374 . S
C772 C769 1.499 . S
C772 C773 1.373 . S
C772 C774 1.389 . S
C773 H752 0.950 . S
C773 C772 1.373 . S
C773 C789 1.377 . S
C774 C772 1.389 . S
C774 C775 1.524 . S
C774 C788 1.377 . S
C775 C774 1.524 . S
C775 C776 1.397 . S
C775 C780 1.363 . S
C776 H753 0.950 . S
C776 C775 1.397 . S
C776 C777 1.334 . S
C777 H754 0.950 . S
C777 C776 1.334 . S
C777 C778 1.287 . S
C778 C777 1.287 . S
C778 C779 1.524 . S
C778 H797 0.913 . S
C779 H755 0.950 . S
C779 C778 1.524 . S
C779 C780 1.415 . S
C780 H756 0.950 . S
C780 C775 1.363 . S
C780 C779 1.415 . S
C781 H757 0.951 . S
C781 C782 1.366 . S
C781 C783 1.388 . S
C782 C781 1.366 . S
C782 C786 1.385 . S
C783 H758 0.951 . S
C783 C781 1.388 . S
C783 C784 1.366 . S
C784 C783 1.366 . S
C784 C785 1.414 . S
C784 C787 1.499 . S
C785 H759 0.950 . S
C785 C784 1.414 . S
C785 C786 1.374 . S
C786 H760 0.950 . S
C786 C782 1.385 . S
C786 C785 1.374 . S
C787 C784 1.499 . S
C787 C788 1.373 . S
C787 C789 1.389 . S
C788 H761 0.950 . S
C788 C774 1.377 . S
C788 C787 1.373 . S
C789 C773 1.377 . S
C789 C787 1.389 . S
C789 C790 1.524 . S
C790 C789 1.524 . S
C790 C791 1.397 . S
C790 C795 1.363 . S
C791 H762 0.950 . S
C791 C790 1.397 . S
C791 C792 1.334 . S
C792 H763 0.950 . S
C792 C791 1.334 . S
C792 C793 1.287 . S
C793 C792 1.287 . S
C793 C794 1.524 . S
C793 H796 0.999 1_655 S
C794 H764 0.950 . S
C794 C793 1.524 . S
C794 C795 1.415 . S
C795 H765 0.950 . S
C795 C790 1.363 . S
C795 C794 1.415 . S
H796 C793 0.999 1_455 S
H797 C778 0.913 . S
H798 C816 0.951 . S
H799 C818 0.951 . S
H800 C820 0.950 . S
H801 C821 0.950 . S
H802 C823 0.950 . S
H803 C826 0.950 . S
H804 C827 0.950 . S
H805 C829 0.950 . S
H806 C830 0.950 . S
H807 C831 0.951 . S
H808 C833 0.951 . S
H809 C835 0.950 . S
H810 C836 0.950 . S
H811 C838 0.950 . S
H812 C841 0.950 . S
H813 C842 0.950 . S
H814 C844 0.950 . S
H815 C845 0.950 . S
C816 H798 0.951 . S
C816 C817 1.366 . S
C816 C818 1.388 . S
C817 C816 1.366 . S
C817 C821 1.385 . S
C818 H799 0.951 . S
C818 C816 1.388 . S
C818 C819 1.366 . S
C819 C818 1.366 . S
C819 C820 1.414 . S
C819 C822 1.499 . S
C820 H800 0.950 . S
C820 C819 1.414 . S
C820 C821 1.374 . S
C821 H801 0.950 . S
C821 C817 1.385 . S
C821 C820 1.374 . S
C822 C819 1.499 . S
C822 C823 1.373 . S
C822 C824 1.389 . S
C823 H802 0.950 . S
C823 C822 1.373 . S
C823 C839 1.377 . S
C824 C822 1.389 . S
C824 C825 1.524 . S
C824 C838 1.377 . S
C825 C824 1.524 . S
C825 C826 1.397 . S
C825 C830 1.363 . S
C826 H803 0.950 . S
C826 C825 1.397 . S
C826 C827 1.334 . S
C827 H804 0.950 . S
C827 C826 1.334 . S
C827 C828 1.287 . S
C828 C827 1.287 . S
C828 C829 1.524 . S
C828 H847 0.913 . S
C829 H805 0.950 . S
C829 C828 1.524 . S
C829 C830 1.415 . S
C830 H806 0.950 . S
C830 C825 1.363 . S
C830 C829 1.415 . S
C831 H807 0.951 . S
C831 C832 1.366 . S
C831 C833 1.388 . S
C832 C831 1.366 . S
C832 C836 1.385 . S
C833 H808 0.951 . S
C833 C831 1.388 . S
C833 C834 1.366 . S
C834 C833 1.366 . S
C834 C835 1.414 . S
C834 C837 1.499 . S
C835 H809 0.950 . S
C835 C834 1.414 . S
C835 C836 1.374 . S
C836 H810 0.950 . S
C836 C832 1.385 . S
C836 C835 1.374 . S
C837 C834 1.499 . S
C837 C838 1.373 . S
C837 C839 1.389 . S
C838 H811 0.950 . S
C838 C824 1.377 . S
C838 C837 1.373 . S
C839 C823 1.377 . S
C839 C837 1.389 . S
C839 C840 1.524 . S
C840 C839 1.524 . S
C840 C841 1.397 . S
C840 C845 1.363 . S
C841 H812 0.950 . S
C841 C840 1.397 . S
C841 C842 1.334 . S
C842 H813 0.950 . S
C842 C841 1.334 . S
C842 C843 1.287 . S
C843 C842 1.287 . S
C843 C844 1.524 . S
C843 H846 0.991 1_554 S
C844 H814 0.950 . S
C844 C843 1.524 . S
C844 C845 1.415 . S
C845 H815 0.950 . S
C845 C840 1.363 . S
C845 C844 1.415 . S
H846 C843 0.991 1_556 S
H847 C828 0.913 . S
H848 C866 0.951 . S
H849 C868 0.951 . S
H850 C870 0.950 . S
H851 C871 0.950 . S
H852 C873 0.950 . S
H853 C876 0.950 . S
H854 C877 0.950 . S
H855 C879 0.950 . S
H856 C880 0.950 . S
H857 C881 0.951 . S
H858 C883 0.951 . S
H859 C885 0.950 . S
H860 C886 0.950 . S
H861 C888 0.950 . S
H862 C891 0.950 . S
H863 C892 0.950 . S
H864 C894 0.950 . S
H865 C895 0.950 . S
C866 H848 0.951 . S
C866 C867 1.366 . S
C866 C868 1.388 . S
C867 C866 1.366 . S
C867 C871 1.385 . S
C868 H849 0.951 . S
C868 C866 1.388 . S
C868 C869 1.366 . S
C869 C868 1.366 . S
C869 C870 1.414 . S
C869 C872 1.499 . S
C870 H850 0.950 . S
C870 C869 1.414 . S
C870 C871 1.374 . S
C871 H851 0.950 . S
C871 C867 1.385 . S
C871 C870 1.374 . S
C872 C869 1.499 . S
C872 C873 1.373 . S
C872 C874 1.389 . S
C873 H852 0.950 . S
C873 C872 1.373 . S
C873 C889 1.377 . S
C874 C872 1.389 . S
C874 C875 1.524 . S
C874 C888 1.377 . S
C875 C874 1.524 . S
C875 C876 1.397 . S
C875 C880 1.363 . S
C876 H853 0.950 . S
C876 C875 1.397 . S
C876 C877 1.334 . S
C877 H854 0.950 . S
C877 C876 1.334 . S
C877 C878 1.287 . S
C878 C877 1.287 . S
C878 C879 1.524 . S
C878 H897 0.913 . S
C879 H855 0.950 . S
C879 C878 1.524 . S
C879 C880 1.415 . S
C880 H856 0.950 . S
C880 C875 1.363 . S
C880 C879 1.415 . S
C881 H857 0.951 . S
C881 C882 1.366 . S
C881 C883 1.388 . S
C882 C881 1.366 . S
C882 C886 1.385 . S
C883 H858 0.951 . S
C883 C881 1.388 . S
C883 C884 1.366 . S
C884 C883 1.366 . S
C884 C885 1.414 . S
C884 C887 1.499 . S
C885 H859 0.950 . S
C885 C884 1.414 . S
C885 C886 1.374 . S
C886 H860 0.950 . S
C886 C882 1.385 . S
C886 C885 1.374 . S
C887 C884 1.499 . S
C887 C888 1.373 . S
C887 C889 1.389 . S
C888 H861 0.950 . S
C888 C874 1.377 . S
C888 C887 1.373 . S
C889 C873 1.377 . S
C889 C887 1.389 . S
C889 C890 1.524 . S
C890 C889 1.524 . S
C890 C891 1.397 . S
C890 C895 1.363 . S
C891 H862 0.950 . S
C891 C890 1.397 . S
C891 C892 1.334 . S
C892 H863 0.950 . S
C892 C891 1.334 . S
C892 C893 1.287 . S
C893 C892 1.287 . S
C893 C894 1.524 . S
C893 H896 0.999 . S
C894 H864 0.950 . S
C894 C893 1.524 . S
C894 C895 1.415 . S
C895 H865 0.950 . S
C895 C890 1.363 . S
C895 C894 1.415 . S
H896 C893 0.999 . S
H897 C878 0.913 . S
H898 C916 0.951 . S
H899 C918 0.951 . S
H900 C920 0.950 . S
H901 C921 0.950 . S
H902 C923 0.950 . S
H903 C926 0.950 . S
H904 C927 0.950 . S
H905 C929 0.950 . S
H906 C930 0.950 . S
H907 C931 0.951 . S
H908 C933 0.951 . S
H909 C935 0.950 . S
H910 C936 0.950 . S
H911 C938 0.950 . S
H912 C941 0.950 . S
H913 C942 0.950 . S
H914 C944 0.950 . S
H915 C945 0.950 . S
C916 H898 0.951 . S
C916 C917 1.366 . S
C916 C918 1.388 . S
C917 C916 1.366 . S
C917 C921 1.385 . S
C918 H899 0.951 . S
C918 C916 1.388 . S
C918 C919 1.366 . S
C919 C918 1.366 . S
C919 C920 1.414 . S
C919 C922 1.499 . S
C920 H900 0.950 . S
C920 C919 1.414 . S
C920 C921 1.374 . S
C921 H901 0.950 . S
C921 C917 1.385 . S
C921 C920 1.374 . S
C922 C919 1.499 . S
C922 C923 1.373 . S
C922 C924 1.389 . S
C923 H902 0.950 . S
C923 C922 1.373 . S
C923 C939 1.377 . S
C924 C922 1.389 . S
C924 C925 1.524 . S
C924 C938 1.377 . S
C925 C924 1.524 . S
C925 C926 1.397 . S
C925 C930 1.363 . S
C926 H903 0.950 . S
C926 C925 1.397 . S
C926 C927 1.334 . S
C927 H904 0.950 . S
C927 C926 1.334 . S
C927 C928 1.287 . S
C928 C927 1.287 . S
C928 C929 1.524 . S
C928 H947 0.913 . S
C929 H905 0.950 . S
C929 C928 1.524 . S
C929 C930 1.415 . S
C930 H906 0.950 . S
C930 C925 1.363 . S
C930 C929 1.415 . S
C931 H907 0.951 . S
C931 C932 1.366 . S
C931 C933 1.388 . S
C932 C931 1.366 . S
C932 C936 1.385 . S
C933 H908 0.951 . S
C933 C931 1.388 . S
C933 C934 1.366 . S
C934 C933 1.366 . S
C934 C935 1.414 . S
C934 C937 1.499 . S
C935 H909 0.950 . S
C935 C934 1.414 . S
C935 C936 1.374 . S
C936 H910 0.950 . S
C936 C932 1.385 . S
C936 C935 1.374 . S
C937 C934 1.499 . S
C937 C938 1.373 . S
C937 C939 1.389 . S
C938 H911 0.950 . S
C938 C924 1.377 . S
C938 C937 1.373 . S
C939 C923 1.377 . S
C939 C937 1.389 . S
C939 C940 1.524 . S
C940 C939 1.524 . S
C940 C941 1.397 . S
C940 C945 1.363 . S
C941 H912 0.950 . S
C941 C940 1.397 . S
C941 C942 1.334 . S
C942 H913 0.950 . S
C942 C941 1.334 . S
C942 C943 1.287 . S
C943 C942 1.287 . S
C943 C944 1.524 . S
C943 H946 0.999 . S
C944 H914 0.950 . S
C944 C943 1.524 . S
C944 C945 1.415 . S
C945 H915 0.950 . S
C945 C940 1.363 . S
C945 C944 1.415 . S
H946 C943 0.999 . S
H947 C928 0.913 . S
H948 C966 0.951 . S
H949 C968 0.951 . S
H950 C970 0.950 . S
H951 C971 0.950 . S
H952 C973 0.950 . S
H953 C976 0.950 . S
H954 C977 0.950 . S
H955 C979 0.950 . S
H956 C980 0.950 . S
H957 C981 0.951 . S
H958 C983 0.951 . S
H959 C985 0.950 . S
H960 C986 0.950 . S
H961 C988 0.950 . S
H962 C991 0.950 . S
H963 C992 0.950 . S
H964 C994 0.950 . S
H965 C995 0.950 . S
C966 H948 0.951 . S
C966 C967 1.366 . S
C966 C968 1.388 . S
C967 C966 1.366 . S
C967 C971 1.385 . S
C968 H949 0.951 . S
C968 C966 1.388 . S
C968 C969 1.366 . S
C969 C968 1.366 . S
C969 C970 1.414 . S
C969 C972 1.499 . S
C970 H950 0.950 . S
C970 C969 1.414 . S
C970 C971 1.374 . S
C971 H951 0.950 . S
C971 C967 1.385 . S
C971 C970 1.374 . S
C972 C969 1.499 . S
C972 C973 1.373 . S
C972 C974 1.389 . S
C973 H952 0.950 . S
C973 C972 1.373 . S
C973 C989 1.377 . S
C974 C972 1.389 . S
C974 C975 1.524 . S
C974 C988 1.377 . S
C975 C974 1.524 . S
C975 C976 1.397 . S
C975 C980 1.363 . S
C976 H953 0.950 . S
C976 C975 1.397 . S
C976 C977 1.334 . S
C977 H954 0.950 . S
C977 C976 1.334 . S
C977 C978 1.287 . S
C978 C977 1.287 . S
C978 C979 1.524 . S
C978 H997 0.913 . S
C979 H955 0.950 . S
C979 C978 1.524 . S
C979 C980 1.415 . S
C980 H956 0.950 . S
C980 C975 1.363 . S
C980 C979 1.415 . S
C981 H957 0.951 . S
C981 C982 1.366 . S
C981 C983 1.388 . S
C982 C981 1.366 . S
C982 C986 1.385 . S
C983 H958 0.951 . S
C983 C981 1.388 . S
C983 C984 1.366 . S
C984 C983 1.366 . S
C984 C985 1.414 . S
C984 C987 1.499 . S
C985 H959 0.950 . S
C985 C984 1.414 . S
C985 C986 1.374 . S
C986 H960 0.950 . S
C986 C982 1.385 . S
C986 C985 1.374 . S
C987 C984 1.499 . S
C987 C988 1.373 . S
C987 C989 1.389 . S
C988 H961 0.950 . S
C988 C974 1.377 . S
C988 C987 1.373 . S
C989 C973 1.377 . S
C989 C987 1.389 . S
C989 C990 1.524 . S
C990 C989 1.524 . S
C990 C991 1.397 . S
C990 C995 1.363 . S
C991 H962 0.950 . S
C991 C990 1.397 . S
C991 C992 1.334 . S
C992 H963 0.950 . S
C992 C991 1.334 . S
C992 C993 1.287 . S
C993 C992 1.287 . S
C993 C994 1.524 . S
C993 H996 0.999 . S
C994 H964 0.950 . S
C994 C993 1.524 . S
C994 C995 1.415 . S
C995 H965 0.950 . S
C995 C990 1.363 . S
C995 C994 1.415 . S
H996 C993 0.999 . S
H997 C978 0.913 . S
H998 C1016 0.951 . S
H999 C1018 0.951 . S
H1000 C1020 0.950 . S
H1001 C1021 0.950 . S
H1002 C1023 0.950 . S
H1003 C1026 0.950 . S
H1004 C1027 0.950 . S
H1005 C1029 0.950 . S
H1006 C1030 0.950 . S
H1007 C1031 0.951 . S
H1008 C1033 0.951 . S
H1009 C1035 0.950 . S
H1010 C1036 0.950 . S
H1011 C1038 0.950 . S
H1012 C1041 0.950 . S
H1013 C1042 0.950 . S
H1014 C1044 0.950 . S
H1015 C1045 0.950 . S
C1016 H998 0.951 . S
C1016 C1017 1.366 . S
C1016 C1018 1.388 . S
C1017 C1016 1.366 . S
C1017 C1021 1.385 . S
C1018 H999 0.951 . S
C1018 C1016 1.388 . S
C1018 C1019 1.366 . S
C1019 C1018 1.366 . S
C1019 C1020 1.414 . S
C1019 C1022 1.499 . S
C1020 H1000 0.950 . S
C1020 C1019 1.414 . S
C1020 C1021 1.374 . S
C1021 H1001 0.950 . S
C1021 C1017 1.385 . S
C1021 C1020 1.374 . S
C1022 C1019 1.499 . S
C1022 C1023 1.373 . S
C1022 C1024 1.389 . S
C1023 H1002 0.950 . S
C1023 C1022 1.373 . S
C1023 C1039 1.377 . S
C1024 C1022 1.389 . S
C1024 C1025 1.524 . S
C1024 C1038 1.377 . S
C1025 C1024 1.524 . S
C1025 C1026 1.397 . S
C1025 C1030 1.363 . S
C1026 H1003 0.950 . S
C1026 C1025 1.397 . S
C1026 C1027 1.334 . S
C1027 H1004 0.950 . S
C1027 C1026 1.334 . S
C1027 C1028 1.287 . S
C1028 C1027 1.287 . S
C1028 C1029 1.524 . S
C1028 H1047 0.913 . S
C1029 H1005 0.950 . S
C1029 C1028 1.524 . S
C1029 C1030 1.415 . S
C1030 H1006 0.950 . S
C1030 C1025 1.363 . S
C1030 C1029 1.415 . S
C1031 H1007 0.951 . S
C1031 C1032 1.366 . S
C1031 C1033 1.388 . S
C1032 C1031 1.366 . S
C1032 C1036 1.385 . S
C1033 H1008 0.951 . S
C1033 C1031 1.388 . S
C1033 C1034 1.366 . S
C1034 C1033 1.366 . S
C1034 C1035 1.414 . S
C1034 C1037 1.499 . S
C1035 H1009 0.950 . S
C1035 C1034 1.414 . S
C1035 C1036 1.374 . S
C1036 H1010 0.950 . S
C1036 C1032 1.385 . S
C1036 C1035 1.374 . S
C1037 C1034 1.499 . S
C1037 C1038 1.373 . S
C1037 C1039 1.389 . S
C1038 H1011 0.950 . S
C1038 C1024 1.377 . S
C1038 C1037 1.373 . S
C1039 C1023 1.377 . S
C1039 C1037 1.389 . S
C1039 C1040 1.524 . S
C1040 C1039 1.524 . S
C1040 C1041 1.397 . S
C1040 C1045 1.363 . S
C1041 H1012 0.950 . S
C1041 C1040 1.397 . S
C1041 C1042 1.334 . S
C1042 H1013 0.950 . S
C1042 C1041 1.334 . S
C1042 C1043 1.287 . S
C1043 C1042 1.287 . S
C1043 C1044 1.524 . S
C1043 H1046 0.999 . S
C1044 H1014 0.950 . S
C1044 C1043 1.524 . S
C1044 C1045 1.415 . S
C1045 H1015 0.950 . S
C1045 C1040 1.363 . S
C1045 C1044 1.415 . S
H1046 C1043 0.999 . S
H1047 C1028 0.913 . S
H1048 C1066 0.951 . S
H1049 C1068 0.951 . S
H1050 C1070 0.950 . S
H1051 C1071 0.950 . S
H1052 C1073 0.950 . S
H1053 C1076 0.950 . S
H1054 C1077 0.950 . S
H1055 C1079 0.950 . S
H1056 C1080 0.950 . S
H1057 C1081 0.951 . S
H1058 C1083 0.951 . S
H1059 C1085 0.950 . S
H1060 C1086 0.950 . S
H1061 C1088 0.950 . S
H1062 C1091 0.950 . S
H1063 C1092 0.950 . S
H1064 C1094 0.950 . S
H1065 C1095 0.950 . S
C1066 H1048 0.951 . S
C1066 C1067 1.366 . S
C1066 C1068 1.388 . S
C1067 C1066 1.366 . S
C1067 C1071 1.385 . S
C1068 H1049 0.951 . S
C1068 C1066 1.388 . S
C1068 C1069 1.366 . S
C1069 C1068 1.366 . S
C1069 C1070 1.414 . S
C1069 C1072 1.499 . S
C1070 H1050 0.950 . S
C1070 C1069 1.414 . S
C1070 C1071 1.374 . S
C1071 H1051 0.950 . S
C1071 C1067 1.385 . S
C1071 C1070 1.374 . S
C1072 C1069 1.499 . S
C1072 C1073 1.373 . S
C1072 C1074 1.389 . S
C1073 H1052 0.950 . S
C1073 C1072 1.373 . S
C1073 C1089 1.377 . S
C1074 C1072 1.389 . S
C1074 C1075 1.524 . S
C1074 C1088 1.377 . S
C1075 C1074 1.524 . S
C1075 C1076 1.397 . S
C1075 C1080 1.363 . S
C1076 H1053 0.950 . S
C1076 C1075 1.397 . S
C1076 C1077 1.334 . S
C1077 H1054 0.950 . S
C1077 C1076 1.334 . S
C1077 C1078 1.287 . S
C1078 C1077 1.287 . S
C1078 C1079 1.524 . S
C1078 H1097 0.913 . S
C1079 H1055 0.950 . S
C1079 C1078 1.524 . S
C1079 C1080 1.415 . S
C1080 H1056 0.950 . S
C1080 C1075 1.363 . S
C1080 C1079 1.415 . S
C1081 H1057 0.951 . S
C1081 C1082 1.366 . S
C1081 C1083 1.388 . S
C1082 C1081 1.366 . S
C1082 C1086 1.385 . S
C1083 H1058 0.951 . S
C1083 C1081 1.388 . S
C1083 C1084 1.366 . S
C1084 C1083 1.366 . S
C1084 C1085 1.414 . S
C1084 C1087 1.499 . S
C1085 H1059 0.950 . S
C1085 C1084 1.414 . S
C1085 C1086 1.374 . S
C1086 H1060 0.950 . S
C1086 C1082 1.385 . S
C1086 C1085 1.374 . S
C1087 C1084 1.499 . S
C1087 C1088 1.373 . S
C1087 C1089 1.389 . S
C1088 H1061 0.950 . S
C1088 C1074 1.377 . S
C1088 C1087 1.373 . S
C1089 C1073 1.377 . S
C1089 C1087 1.389 . S
C1089 C1090 1.524 . S
C1090 C1089 1.524 . S
C1090 C1091 1.397 . S
C1090 C1095 1.363 . S
C1091 H1062 0.950 . S
C1091 C1090 1.397 . S
C1091 C1092 1.334 . S
C1092 H1063 0.950 . S
C1092 C1091 1.334 . S
C1092 C1093 1.287 . S
C1093 C1092 1.287 . S
C1093 C1094 1.524 . S
C1093 H1096 0.999 . S
C1094 H1064 0.950 . S
C1094 C1093 1.524 . S
C1094 C1095 1.415 . S
C1095 H1065 0.950 . S
C1095 C1090 1.363 . S
C1095 C1094 1.415 . S
H1096 C1093 0.999 . S
H1097 C1078 0.913 . S
H1098 C1116 0.951 . S
H1099 C1118 0.951 . S
H1100 C1120 0.950 . S
H1101 C1121 0.950 . S
H1102 C1123 0.950 . S
H1103 C1126 0.950 . S
H1104 C1127 0.950 . S
H1105 C1129 0.950 . S
H1106 C1130 0.950 . S
H1107 C1131 0.951 . S
H1108 C1133 0.951 . S
H1109 C1135 0.950 . S
H1110 C1136 0.950 . S
H1111 C1138 0.950 . S
H1112 C1141 0.950 . S
H1113 C1142 0.950 . S
H1114 C1144 0.950 . S
H1115 C1145 0.950 . S
C1116 H1098 0.951 . S
C1116 C1117 1.366 . S
C1116 C1118 1.388 . S
C1117 C1116 1.366 . S
C1117 C1121 1.385 . S
C1118 H1099 0.951 . S
C1118 C1116 1.388 . S
C1118 C1119 1.366 . S
C1119 C1118 1.366 . S
C1119 C1120 1.414 . S
C1119 C1122 1.499 . S
C1120 H1100 0.950 . S
C1120 C1119 1.414 . S
C1120 C1121 1.374 . S
C1121 H1101 0.950 . S
C1121 C1117 1.385 . S
C1121 C1120 1.374 . S
C1122 C1119 1.499 . S
C1122 C1123 1.373 . S
C1122 C1124 1.389 . S
C1123 H1102 0.950 . S
C1123 C1122 1.373 . S
C1123 C1139 1.377 . S
C1124 C1122 1.389 . S
C1124 C1125 1.524 . S
C1124 C1138 1.377 . S
C1125 C1124 1.524 . S
C1125 C1126 1.397 . S
C1125 C1130 1.363 . S
C1126 H1103 0.950 . S
C1126 C1125 1.397 . S
C1126 C1127 1.334 . S
C1127 H1104 0.950 . S
C1127 C1126 1.334 . S
C1127 C1128 1.287 . S
C1128 C1127 1.287 . S
C1128 C1129 1.524 . S
C1128 H1147 0.913 . S
C1129 H1105 0.950 . S
C1129 C1128 1.524 . S
C1129 C1130 1.415 . S
C1130 H1106 0.950 . S
C1130 C1125 1.363 . S
C1130 C1129 1.415 . S
C1131 H1107 0.951 . S
C1131 C1132 1.366 . S
C1131 C1133 1.388 . S
C1132 C1131 1.366 . S
C1132 C1136 1.385 . S
C1133 H1108 0.951 . S
C1133 C1131 1.388 . S
C1133 C1134 1.366 . S
C1134 C1133 1.366 . S
C1134 C1135 1.414 . S
C1134 C1137 1.499 . S
C1135 H1109 0.950 . S
C1135 C1134 1.414 . S
C1135 C1136 1.374 . S
C1136 H1110 0.950 . S
C1136 C1132 1.385 . S
C1136 C1135 1.374 . S
C1137 C1134 1.499 . S
C1137 C1138 1.373 . S
C1137 C1139 1.389 . S
C1138 H1111 0.950 . S
C1138 C1124 1.377 . S
C1138 C1137 1.373 . S
C1139 C1123 1.377 . S
C1139 C1137 1.389 . S
C1139 C1140 1.524 . S
C1140 C1139 1.524 . S
C1140 C1141 1.397 . S
C1140 C1145 1.363 . S
C1141 H1112 0.950 . S
C1141 C1140 1.397 . S
C1141 C1142 1.334 . S
C1142 H1113 0.950 . S
C1142 C1141 1.334 . S
C1142 C1143 1.287 . S
C1143 C1142 1.287 . S
C1143 C1144 1.524 . S
C1143 H1146 0.999 . S
C1144 H1114 0.950 . S
C1144 C1143 1.524 . S
C1144 C1145 1.415 . S
C1145 H1115 0.950 . S
C1145 C1140 1.363 . S
C1145 C1144 1.415 . S
H1146 C1143 0.999 . S
H1147 C1128 0.913 . S
H1148 C1166 0.951 . S
H1149 C1168 0.951 . S
H1150 C1170 0.950 . S
H1151 C1171 0.950 . S
H1152 C1173 0.950 . S
H1153 C1176 0.950 . S
H1154 C1177 0.950 . S
H1155 C1179 0.950 . S
H1156 C1180 0.950 . S
H1157 C1181 0.951 . S
H1158 C1183 0.951 . S
H1159 C1185 0.950 . S
H1160 C1186 0.950 . S
H1161 C1188 0.950 . S
H1162 C1191 0.950 . S
H1163 C1192 0.950 . S
H1164 C1194 0.950 . S
H1165 C1195 0.950 . S
C1166 H1148 0.951 . S
C1166 C1167 1.366 . S
C1166 C1168 1.388 . S
C1167 C1166 1.366 . S
C1167 C1171 1.385 . S
C1168 H1149 0.951 . S
C1168 C1166 1.388 . S
C1168 C1169 1.366 . S
C1169 C1168 1.366 . S
C1169 C1170 1.414 . S
C1169 C1172 1.499 . S
C1170 H1150 0.950 . S
C1170 C1169 1.414 . S
C1170 C1171 1.374 . S
C1171 H1151 0.950 . S
C1171 C1167 1.385 . S
C1171 C1170 1.374 . S
C1172 C1169 1.499 . S
C1172 C1173 1.373 . S
C1172 C1174 1.389 . S
C1173 H1152 0.950 . S
C1173 C1172 1.373 . S
C1173 C1189 1.377 . S
C1174 C1172 1.389 . S
C1174 C1175 1.524 . S
C1174 C1188 1.377 . S
C1175 C1174 1.524 . S
C1175 C1176 1.397 . S
C1175 C1180 1.363 . S
C1176 H1153 0.950 . S
C1176 C1175 1.397 . S
C1176 C1177 1.334 . S
C1177 H1154 0.950 . S
C1177 C1176 1.334 . S
C1177 C1178 1.287 . S
C1178 C1177 1.287 . S
C1178 C1179 1.524 . S
C1178 H1197 0.913 . S
C1179 H1155 0.950 . S
C1179 C1178 1.524 . S
C1179 C1180 1.415 . S
C1180 H1156 0.950 . S
C1180 C1175 1.363 . S
C1180 C1179 1.415 . S
C1181 H1157 0.951 . S
C1181 C1182 1.366 . S
C1181 C1183 1.388 . S
C1182 C1181 1.366 . S
C1182 C1186 1.385 . S
C1183 H1158 0.951 . S
C1183 C1181 1.388 . S
C1183 C1184 1.366 . S
C1184 C1183 1.366 . S
C1184 C1185 1.414 . S
C1184 C1187 1.499 . S
C1185 H1159 0.950 . S
C1185 C1184 1.414 . S
C1185 C1186 1.374 . S
C1186 H1160 0.950 . S
C1186 C1182 1.385 . S
C1186 C1185 1.374 . S
C1187 C1184 1.499 . S
C1187 C1188 1.373 . S
C1187 C1189 1.389 . S
C1188 H1161 0.950 . S
C1188 C1174 1.377 . S
C1188 C1187 1.373 . S
C1189 C1173 1.377 . S
C1189 C1187 1.389 . S
C1189 C1190 1.524 . S
C1190 C1189 1.524 . S
C1190 C1191 1.397 . S
C1190 C1195 1.363 . S
C1191 H1162 0.950 . S
C1191 C1190 1.397 . S
C1191 C1192 1.334 . S
C1192 H1163 0.950 . S
C1192 C1191 1.334 . S
C1192 C1193 1.287 . S
C1193 C1192 1.287 . S
C1193 C1194 1.524 . S
C1193 H1196 0.999 . S
C1194 H1164 0.950 . S
C1194 C1193 1.524 . S
C1194 C1195 1.415 . S
C1195 H1165 0.950 . S
C1195 C1190 1.363 . S
C1195 C1194 1.415 . S
H1196 C1193 0.999 . S
H1197 C1178 0.913 . S
H1198 C1216 0.951 . S
H1199 C1218 0.951 . S
H1200 C1220 0.950 . S
H1201 C1221 0.950 . S
H1202 C1223 0.950 . S
H1203 C1226 0.950 . S
H1204 C1227 0.950 . S
H1205 C1229 0.950 . S
H1206 C1230 0.950 . S
H1207 C1231 0.951 . S
H1208 C1233 0.951 . S
H1209 C1235 0.950 . S
H1210 C1236 0.950 . S
H1211 C1238 0.950 . S
H1212 C1241 0.950 . S
H1213 C1242 0.950 . S
H1214 C1244 0.950 . S
H1215 C1245 0.950 . S
C1216 H1198 0.951 . S
C1216 C1217 1.366 . S
C1216 C1218 1.388 . S
C1217 C1216 1.366 . S
C1217 C1221 1.385 . S
C1218 H1199 0.951 . S
C1218 C1216 1.388 . S
C1218 C1219 1.366 . S
C1219 C1218 1.366 . S
C1219 C1220 1.414 . S
C1219 C1222 1.499 . S
C1220 H1200 0.950 . S
C1220 C1219 1.414 . S
C1220 C1221 1.374 . S
C1221 H1201 0.950 . S
C1221 C1217 1.385 . S
C1221 C1220 1.374 . S
C1222 C1219 1.499 . S
C1222 C1223 1.373 . S
C1222 C1224 1.389 . S
C1223 H1202 0.950 . S
C1223 C1222 1.373 . S
C1223 C1239 1.377 . S
C1224 C1222 1.389 . S
C1224 C1225 1.524 . S
C1224 C1238 1.377 . S
C1225 C1224 1.524 . S
C1225 C1226 1.397 . S
C1225 C1230 1.363 . S
C1226 H1203 0.950 . S
C1226 C1225 1.397 . S
C1226 C1227 1.334 . S
C1227 H1204 0.950 . S
C1227 C1226 1.334 . S
C1227 C1228 1.287 . S
C1228 C1227 1.287 . S
C1228 C1229 1.524 . S
C1228 H1247 0.913 . S
C1229 H1205 0.950 . S
C1229 C1228 1.524 . S
C1229 C1230 1.415 . S
C1230 H1206 0.950 . S
C1230 C1225 1.363 . S
C1230 C1229 1.415 . S
C1231 H1207 0.951 . S
C1231 C1232 1.366 . S
C1231 C1233 1.388 . S
C1232 C1231 1.366 . S
C1232 C1236 1.385 . S
C1233 H1208 0.951 . S
C1233 C1231 1.388 . S
C1233 C1234 1.366 . S
C1234 C1233 1.366 . S
C1234 C1235 1.414 . S
C1234 C1237 1.499 . S
C1235 H1209 0.950 . S
C1235 C1234 1.414 . S
C1235 C1236 1.374 . S
C1236 H1210 0.950 . S
C1236 C1232 1.385 . S
C1236 C1235 1.374 . S
C1237 C1234 1.499 . S
C1237 C1238 1.373 . S
C1237 C1239 1.389 . S
C1238 H1211 0.950 . S
C1238 C1224 1.377 . S
C1238 C1237 1.373 . S
C1239 C1223 1.377 . S
C1239 C1237 1.389 . S
C1239 C1240 1.524 . S
C1240 C1239 1.524 . S
C1240 C1241 1.397 . S
C1240 C1245 1.363 . S
C1241 H1212 0.950 . S
C1241 C1240 1.397 . S
C1241 C1242 1.334 . S
C1242 H1213 0.950 . S
C1242 C1241 1.334 . S
C1242 C1243 1.287 . S
C1243 C1242 1.287 . S
C1243 C1244 1.524 . S
C1243 H1246 0.999 . S
C1244 H1214 0.950 . S
C1244 C1243 1.524 . S
C1244 C1245 1.415 . S
C1245 H1215 0.950 . S
C1245 C1240 1.363 . S
C1245 C1244 1.415 . S
H1246 C1243 0.999 . S
H1247 C1228 0.913 . S
H1248 C1266 0.951 . S
H1249 C1268 0.951 . S
H1250 C1270 0.950 . S
H1251 C1271 0.950 . S
H1252 C1273 0.950 . S
H1253 C1276 0.950 . S
H1254 C1277 0.950 . S
H1255 C1279 0.950 . S
H1256 C1280 0.950 . S
H1257 C1281 0.951 . S
H1258 C1283 0.951 . S
H1259 C1285 0.950 . S
H1260 C1286 0.950 . S
H1261 C1288 0.950 . S
H1262 C1291 0.950 . S
H1263 C1292 0.950 . S
H1264 C1294 0.950 . S
H1265 C1295 0.950 . S
C1266 H1248 0.951 . S
C1266 C1267 1.366 . S
C1266 C1268 1.388 . S
C1267 C1266 1.366 . S
C1267 C1271 1.385 . S
C1268 H1249 0.951 . S
C1268 C1266 1.388 . S
C1268 C1269 1.366 . S
C1269 C1268 1.366 . S
C1269 C1270 1.414 . S
C1269 C1272 1.499 . S
C1270 H1250 0.950 . S
C1270 C1269 1.414 . S
C1270 C1271 1.374 . S
C1271 H1251 0.950 . S
C1271 C1267 1.385 . S
C1271 C1270 1.374 . S
C1272 C1269 1.499 . S
C1272 C1273 1.373 . S
C1272 C1274 1.389 . S
C1273 H1252 0.950 . S
C1273 C1272 1.373 . S
C1273 C1289 1.377 . S
C1274 C1272 1.389 . S
C1274 C1275 1.524 . S
C1274 C1288 1.377 . S
C1275 C1274 1.524 . S
C1275 C1276 1.397 . S
C1275 C1280 1.363 . S
C1276 H1253 0.950 . S
C1276 C1275 1.397 . S
C1276 C1277 1.334 . S
C1277 H1254 0.950 . S
C1277 C1276 1.334 . S
C1277 C1278 1.287 . S
C1278 C1277 1.287 . S
C1278 C1279 1.524 . S
C1278 H1297 0.913 . S
C1279 H1255 0.950 . S
C1279 C1278 1.524 . S
C1279 C1280 1.415 . S
C1280 H1256 0.950 . S
C1280 C1275 1.363 . S
C1280 C1279 1.415 . S
C1281 H1257 0.951 . S
C1281 C1282 1.366 . S
C1281 C1283 1.388 . S
C1282 C1281 1.366 . S
C1282 C1286 1.385 . S
C1283 H1258 0.951 . S
C1283 C1281 1.388 . S
C1283 C1284 1.366 . S
C1284 C1283 1.366 . S
C1284 C1285 1.414 . S
C1284 C1287 1.499 . S
C1285 H1259 0.950 . S
C1285 C1284 1.414 . S
C1285 C1286 1.374 . S
C1286 H1260 0.950 . S
C1286 C1282 1.385 . S
C1286 C1285 1.374 . S
C1287 C1284 1.499 . S
C1287 C1288 1.373 . S
C1287 C1289 1.389 . S
C1288 H1261 0.950 . S
C1288 C1274 1.377 . S
C1288 C1287 1.373 . S
C1289 C1273 1.377 . S
C1289 C1287 1.389 . S
C1289 C1290 1.524 . S
C1290 C1289 1.524 . S
C1290 C1291 1.397 . S
C1290 C1295 1.363 . S
C1291 H1262 0.950 . S
C1291 C1290 1.397 . S
C1291 C1292 1.334 . S
C1292 H1263 0.950 . S
C1292 C1291 1.334 . S
C1292 C1293 1.287 . S
C1293 C1292 1.287 . S
C1293 C1294 1.524 . S
C1293 H1296 0.999 . S
C1294 H1264 0.950 . S
C1294 C1293 1.524 . S
C1294 C1295 1.415 . S
C1295 H1265 0.950 . S
C1295 C1290 1.363 . S
C1295 C1294 1.415 . S
H1296 C1293 0.999 . S
H1297 C1278 0.913 . S
H1298 C1316 0.951 . S
H1299 C1318 0.951 . S
H1300 C1320 0.950 . S
H1301 C1321 0.950 . S
H1302 C1323 0.950 . S
H1303 C1326 0.950 . S
H1304 C1327 0.950 . S
H1305 C1329 0.950 . S
H1306 C1330 0.950 . S
H1307 C1331 0.951 . S
H1308 C1333 0.951 . S
H1309 C1335 0.950 . S
H1310 C1336 0.950 . S
H1311 C1338 0.950 . S
H1312 C1341 0.950 . S
H1313 C1342 0.950 . S
H1314 C1344 0.950 . S
H1315 C1345 0.950 . S
C1316 H1298 0.951 . S
C1316 C1317 1.366 1_655 S
C1316 C1318 1.388 . S
C1317 C1316 1.366 1_455 S
C1317 C1321 1.385 . S
C1318 H1299 0.951 . S
C1318 C1316 1.388 . S
C1318 C1319 1.366 . S
C1319 C1318 1.366 . S
C1319 C1320 1.414 . S
C1319 C1322 1.499 . S
C1320 H1300 0.950 . S
C1320 C1319 1.414 . S
C1320 C1321 1.374 1_655 S
C1321 H1301 0.950 . S
C1321 C1317 1.385 . S
C1321 C1320 1.374 1_455 S
C1322 C1319 1.499 . S
C1322 C1323 1.373 . S
C1322 C1324 1.389 . S
C1323 H1302 0.950 . S
C1323 C1322 1.373 . S
C1323 C1339 1.377 . S
C1324 C1322 1.389 . S
C1324 C1325 1.524 . S
C1324 C1338 1.377 . S
C1325 C1324 1.524 . S
C1325 C1326 1.397 . S
C1325 C1330 1.363 . S
C1326 H1303 0.950 . S
C1326 C1325 1.397 . S
C1326 C1327 1.334 . S
C1327 H1304 0.950 . S
C1327 C1326 1.334 . S
C1327 C1328 1.287 . S
C1328 C1327 1.287 . S
C1328 C1329 1.524 . S
C1328 H1347 0.913 . S
C1329 H1305 0.950 . S
C1329 C1328 1.524 . S
C1329 C1330 1.415 . S
C1330 H1306 0.950 . S
C1330 C1325 1.363 . S
C1330 C1329 1.415 . S
C1331 H1307 0.951 . S
C1331 C1332 1.366 . S
C1331 C1333 1.388 . S
C1332 C1331 1.366 . S
C1332 C1336 1.385 . S
C1333 H1308 0.951 . S
C1333 C1331 1.388 . S
C1333 C1334 1.366 . S
C1334 C1333 1.366 . S
C1334 C1335 1.414 . S
C1334 C1337 1.499 . S
C1335 H1309 0.950 . S
C1335 C1334 1.414 . S
C1335 C1336 1.374 . S
C1336 H1310 0.950 . S
C1336 C1332 1.385 . S
C1336 C1335 1.374 . S
C1337 C1334 1.499 . S
C1337 C1338 1.373 . S
C1337 C1339 1.389 . S
C1338 H1311 0.950 . S
C1338 C1324 1.377 . S
C1338 C1337 1.373 . S
C1339 C1323 1.377 . S
C1339 C1337 1.389 . S
C1339 C1340 1.524 . S
C1340 C1339 1.524 . S
C1340 C1341 1.397 . S
C1340 C1345 1.363 . S
C1341 H1312 0.950 . S
C1341 C1340 1.397 . S
C1341 C1342 1.334 . S
C1342 H1313 0.950 . S
C1342 C1341 1.334 . S
C1342 C1343 1.287 . S
C1343 C1342 1.287 . S
C1343 C1344 1.524 . S
C1343 H1346 0.999 . S
C1344 H1314 0.950 . S
C1344 C1343 1.524 . S
C1344 C1345 1.415 . S
C1345 H1315 0.950 . S
C1345 C1340 1.363 . S
C1345 C1344 1.415 . S
H1346 C1343 0.999 . S
H1347 C1328 0.913 . S
H1348 C1366 0.951 . S
H1349 C1368 0.951 . S
H1350 C1370 0.950 . S
H1351 C1371 0.950 . S
H1352 C1373 0.950 . S
H1353 C1376 0.950 . S
H1354 C1377 0.950 . S
H1355 C1379 0.950 . S
H1356 C1380 0.950 . S
H1357 C1381 0.951 . S
H1358 C1383 0.951 . S
H1359 C1385 0.950 . S
H1360 C1386 0.950 . S
H1361 C1388 0.950 . S
H1362 C1391 0.950 . S
H1363 C1392 0.950 . S
H1364 C1394 0.950 . S
H1365 C1395 0.950 . S
C1366 H1348 0.951 . S
C1366 C1367 1.366 . S
C1366 C1368 1.388 . S
C1367 C1366 1.366 . S
C1367 C1371 1.385 . S
C1368 H1349 0.951 . S
C1368 C1366 1.388 . S
C1368 C1369 1.366 . S
C1369 C1368 1.366 . S
C1369 C1370 1.414 . S
C1369 C1372 1.499 . S
C1370 H1350 0.950 . S
C1370 C1369 1.414 . S
C1370 C1371 1.374 . S
C1371 H1351 0.950 . S
C1371 C1367 1.385 . S
C1371 C1370 1.374 . S
C1372 C1369 1.499 . S
C1372 C1373 1.373 . S
C1372 C1374 1.389 . S
C1373 H1352 0.950 . S
C1373 C1372 1.373 . S
C1373 C1389 1.377 . S
C1374 C1372 1.389 . S
C1374 C1375 1.524 . S
C1374 C1388 1.377 . S
C1375 C1374 1.524 . S
C1375 C1376 1.397 . S
C1375 C1380 1.363 . S
C1376 H1353 0.950 . S
C1376 C1375 1.397 . S
C1376 C1377 1.334 . S
C1377 H1354 0.950 . S
C1377 C1376 1.334 . S
C1377 C1378 1.287 . S
C1378 C1377 1.287 . S
C1378 C1379 1.524 . S
C1378 H1397 0.913 . S
C1379 H1355 0.950 . S
C1379 C1378 1.524 . S
C1379 C1380 1.415 . S
C1380 H1356 0.950 . S
C1380 C1375 1.363 . S
C1380 C1379 1.415 . S
C1381 H1357 0.951 . S
C1381 C1382 1.366 . S
C1381 C1383 1.388 . S
C1382 C1381 1.366 . S
C1382 C1386 1.385 . S
C1383 H1358 0.951 . S
C1383 C1381 1.388 . S
C1383 C1384 1.366 . S
C1384 C1383 1.366 . S
C1384 C1385 1.414 . S
C1384 C1387 1.499 . S
C1385 H1359 0.950 . S
C1385 C1384 1.414 . S
C1385 C1386 1.374 . S
C1386 H1360 0.950 . S
C1386 C1382 1.385 . S
C1386 C1385 1.374 . S
C1387 C1384 1.499 . S
C1387 C1388 1.373 . S
C1387 C1389 1.389 . S
C1388 H1361 0.950 . S
C1388 C1374 1.377 . S
C1388 C1387 1.373 . S
C1389 C1373 1.377 . S
C1389 C1387 1.389 . S
C1389 C1390 1.524 . S
C1390 C1389 1.524 . S
C1390 C1391 1.397 . S
C1390 C1395 1.363 . S
C1391 H1362 0.950 . S
C1391 C1390 1.397 . S
C1391 C1392 1.334 . S
C1392 H1363 0.950 . S
C1392 C1391 1.334 . S
C1392 C1393 1.287 . S
C1393 C1392 1.287 . S
C1393 C1394 1.524 . S
C1393 H1396 0.999 . S
C1394 H1364 0.950 . S
C1394 C1393 1.524 . S
C1394 C1395 1.415 . S
C1395 H1365 0.950 . S
C1395 C1390 1.363 . S
C1395 C1394 1.415 . S
H1396 C1393 0.999 . S
H1397 C1378 0.913 . S
H1398 C1416 0.951 . S
H1399 C1418 0.951 . S
H1400 C1420 0.950 . S
H1401 C1421 0.950 . S
H1402 C1423 0.950 . S
H1403 C1426 0.950 . S
H1404 C1427 0.950 . S
H1405 C1429 0.950 . S
H1406 C1430 0.950 . S
H1407 C1431 0.951 . S
H1408 C1433 0.951 . S
H1409 C1435 0.950 . S
H1410 C1436 0.950 . S
H1411 C1438 0.950 . S
H1412 C1441 0.950 . S
H1413 C1442 0.950 . S
H1414 C1444 0.950 . S
H1415 C1445 0.950 . S
C1416 H1398 0.951 . S
C1416 C1417 1.366 . S
C1416 C1418 1.388 . S
C1417 C1416 1.366 . S
C1417 C1421 1.385 . S
C1418 H1399 0.951 . S
C1418 C1416 1.388 . S
C1418 C1419 1.366 . S
C1419 C1418 1.366 . S
C1419 C1420 1.414 . S
C1419 C1422 1.499 . S
C1420 H1400 0.950 . S
C1420 C1419 1.414 . S
C1420 C1421 1.374 . S
C1421 H1401 0.950 . S
C1421 C1417 1.385 . S
C1421 C1420 1.374 . S
C1422 C1419 1.499 . S
C1422 C1423 1.373 . S
C1422 C1424 1.389 . S
C1423 H1402 0.950 . S
C1423 C1422 1.373 . S
C1423 C1439 1.377 . S
C1424 C1422 1.389 . S
C1424 C1425 1.524 . S
C1424 C1438 1.377 . S
C1425 C1424 1.524 . S
C1425 C1426 1.397 . S
C1425 C1430 1.363 . S
C1426 H1403 0.950 . S
C1426 C1425 1.397 . S
C1426 C1427 1.334 . S
C1427 H1404 0.950 . S
C1427 C1426 1.334 . S
C1427 C1428 1.287 . S
C1428 C1427 1.287 . S
C1428 C1429 1.524 . S
C1428 H1447 0.913 . S
C1429 H1405 0.950 . S
C1429 C1428 1.524 . S
C1429 C1430 1.415 . S
C1430 H1406 0.950 . S
C1430 C1425 1.363 . S
C1430 C1429 1.415 . S
C1431 H1407 0.951 . S
C1431 C1432 1.366 . S
C1431 C1433 1.388 1_455 S
C1432 C1431 1.366 . S
C1432 C1436 1.385 1_455 S
C1433 H1408 0.951 . S
C1433 C1431 1.388 1_655 S
C1433 C1434 1.366 . S
C1434 C1433 1.366 . S
C1434 C1435 1.414 . S
C1434 C1437 1.499 . S
C1435 H1409 0.950 . S
C1435 C1434 1.414 . S
C1435 C1436 1.374 . S
C1436 H1410 0.950 . S
C1436 C1432 1.385 1_655 S
C1436 C1435 1.374 . S
C1437 C1434 1.499 . S
C1437 C1438 1.373 . S
C1437 C1439 1.389 . S
C1438 H1411 0.950 . S
C1438 C1424 1.377 . S
C1438 C1437 1.373 . S
C1439 C1423 1.377 . S
C1439 C1437 1.389 . S
C1439 C1440 1.524 . S
C1440 C1439 1.524 . S
C1440 C1441 1.397 . S
C1440 C1445 1.363 . S
C1441 H1412 0.950 . S
C1441 C1440 1.397 . S
C1441 C1442 1.334 . S
C1442 H1413 0.950 . S
C1442 C1441 1.334 . S
C1442 C1443 1.287 . S
C1443 C1442 1.287 . S
C1443 C1444 1.524 . S
C1443 H1446 0.999 . S
C1444 H1414 0.950 . S
C1444 C1443 1.524 . S
C1444 C1445 1.415 . S
C1445 H1415 0.950 . S
C1445 C1440 1.363 . S
C1445 C1444 1.415 . S
H1446 C1443 0.999 . S
H1447 C1428 0.913 . S
H1448 C1466 0.951 . S
H1449 C1468 0.951 . S
H1450 C1470 0.950 . S
H1451 C1471 0.950 . S
H1452 C1473 0.950 . S
H1453 C1476 0.950 . S
H1454 C1477 0.950 . S
H1455 C1479 0.950 . S
H1456 C1480 0.950 . S
H1457 C1481 0.951 . S
H1458 C1483 0.951 . S
H1459 C1485 0.950 . S
H1460 C1486 0.950 . S
H1461 C1488 0.950 . S
H1462 C1491 0.950 . S
H1463 C1492 0.950 . S
H1464 C1494 0.950 . S
H1465 C1495 0.950 . S
C1466 H1448 0.951 . S
C1466 C1467 1.366 . S
C1466 C1468 1.388 . S
C1467 C1466 1.366 . S
C1467 C1471 1.385 . S
C1468 H1449 0.951 . S
C1468 C1466 1.388 . S
C1468 C1469 1.366 . S
C1469 C1468 1.366 . S
C1469 C1470 1.414 . S
C1469 C1472 1.499 . S
C1470 H1450 0.950 . S
C1470 C1469 1.414 . S
C1470 C1471 1.374 . S
C1471 H1451 0.950 . S
C1471 C1467 1.385 . S
C1471 C1470 1.374 . S
C1472 C1469 1.499 . S
C1472 C1473 1.373 . S
C1472 C1474 1.389 . S
C1473 H1452 0.950 . S
C1473 C1472 1.373 . S
C1473 C1489 1.377 . S
C1474 C1472 1.389 . S
C1474 C1475 1.524 . S
C1474 C1488 1.377 . S
C1475 C1474 1.524 . S
C1475 C1476 1.397 . S
C1475 C1480 1.363 . S
C1476 H1453 0.950 . S
C1476 C1475 1.397 . S
C1476 C1477 1.334 . S
C1477 H1454 0.950 . S
C1477 C1476 1.334 . S
C1477 C1478 1.287 . S
C1478 C1477 1.287 . S
C1478 C1479 1.524 . S
C1478 H1497 0.913 . S
C1479 H1455 0.950 . S
C1479 C1478 1.524 . S
C1479 C1480 1.415 . S
C1480 H1456 0.950 . S
C1480 C1475 1.363 . S
C1480 C1479 1.415 . S
C1481 H1457 0.951 . S
C1481 C1482 1.366 . S
C1481 C1483 1.388 . S
C1482 C1481 1.366 . S
C1482 C1486 1.385 . S
C1483 H1458 0.951 . S
C1483 C1481 1.388 . S
C1483 C1484 1.366 . S
C1484 C1483 1.366 . S
C1484 C1485 1.414 . S
C1484 C1487 1.499 . S
C1485 H1459 0.950 . S
C1485 C1484 1.414 . S
C1485 C1486 1.374 . S
C1486 H1460 0.950 . S
C1486 C1482 1.385 . S
C1486 C1485 1.374 . S
C1487 C1484 1.499 . S
C1487 C1488 1.373 . S
C1487 C1489 1.389 . S
C1488 H1461 0.950 . S
C1488 C1474 1.377 . S
C1488 C1487 1.373 . S
C1489 C1473 1.377 . S
C1489 C1487 1.389 . S
C1489 C1490 1.524 . S
C1490 C1489 1.524 . S
C1490 C1491 1.397 . S
C1490 C1495 1.363 . S
C1491 H1462 0.950 . S
C1491 C1490 1.397 . S
C1491 C1492 1.334 . S
C1492 H1463 0.950 . S
C1492 C1491 1.334 . S
C1492 C1493 1.287 . S
C1493 C1492 1.287 . S
C1493 C1494 1.524 . S
C1493 H1496 0.999 . S
C1494 H1464 0.950 . S
C1494 C1493 1.524 . S
C1494 C1495 1.415 . S
C1495 H1465 0.950 . S
C1495 C1490 1.363 . S
C1495 C1494 1.415 . S
H1496 C1493 0.999 . S
H1497 C1478 0.913 . S
H1498 C1516 0.951 . S
H1499 C1518 0.951 . S
H1500 C1520 0.950 . S
H1501 C1521 0.950 . S
H1502 C1523 0.950 . S
H1503 C1526 0.950 . S
H1504 C1527 0.950 . S
H1505 C1529 0.950 . S
H1506 C1530 0.950 . S
H1507 C1531 0.951 . S
H1508 C1533 0.951 . S
H1509 C1535 0.950 . S
H1510 C1536 0.950 . S
H1511 C1538 0.950 . S
H1512 C1541 0.950 . S
H1513 C1542 0.950 . S
H1514 C1544 0.950 . S
H1515 C1545 0.950 . S
C1516 H1498 0.951 . S
C1516 C1517 1.366 1_455 S
C1516 C1518 1.388 . S
C1517 C1516 1.366 1_655 S
C1517 C1521 1.385 . S
C1518 H1499 0.951 . S
C1518 C1516 1.388 . S
C1518 C1519 1.366 . S
C1519 C1518 1.366 . S
C1519 C1520 1.414 . S
C1519 C1522 1.499 . S
C1520 H1500 0.950 . S
C1520 C1519 1.414 . S
C1520 C1521 1.374 1_455 S
C1521 H1501 0.950 . S
C1521 C1517 1.385 . S
C1521 C1520 1.374 1_655 S
C1522 C1519 1.499 . S
C1522 C1523 1.373 . S
C1522 C1524 1.389 . S
C1523 H1502 0.950 . S
C1523 C1522 1.373 . S
C1523 C1539 1.377 . S
C1524 C1522 1.389 . S
C1524 C1525 1.524 . S
C1524 C1538 1.377 . S
C1525 C1524 1.524 . S
C1525 C1526 1.397 . S
C1525 C1530 1.363 . S
C1526 H1503 0.950 . S
C1526 C1525 1.397 . S
C1526 C1527 1.334 . S
C1527 H1504 0.950 . S
C1527 C1526 1.334 . S
C1527 C1528 1.287 . S
C1528 C1527 1.287 . S
C1528 C1529 1.524 . S
C1528 H1547 0.913 . S
C1529 H1505 0.950 . S
C1529 C1528 1.524 . S
C1529 C1530 1.415 . S
C1530 H1506 0.950 . S
C1530 C1525 1.363 . S
C1530 C1529 1.415 . S
C1531 H1507 0.951 . S
C1531 C1532 1.366 . S
C1531 C1533 1.388 . S
C1532 C1531 1.366 . S
C1532 C1536 1.385 . S
C1533 H1508 0.951 . S
C1533 C1531 1.388 . S
C1533 C1534 1.366 . S
C1534 C1533 1.366 . S
C1534 C1535 1.414 . S
C1534 C1537 1.499 . S
C1535 H1509 0.950 . S
C1535 C1534 1.414 . S
C1535 C1536 1.374 . S
C1536 H1510 0.950 . S
C1536 C1532 1.385 . S
C1536 C1535 1.374 . S
C1537 C1534 1.499 . S
C1537 C1538 1.373 . S
C1537 C1539 1.389 . S
C1538 H1511 0.950 . S
C1538 C1524 1.377 . S
C1538 C1537 1.373 . S
C1539 C1523 1.377 . S
C1539 C1537 1.389 . S
C1539 C1540 1.524 . S
C1540 C1539 1.524 . S
C1540 C1541 1.397 . S
C1540 C1545 1.363 . S
C1541 H1512 0.950 . S
C1541 C1540 1.397 . S
C1541 C1542 1.334 . S
C1542 H1513 0.950 . S
C1542 C1541 1.334 . S
C1542 C1543 1.287 . S
C1543 C1542 1.287 . S
C1543 C1544 1.524 . S
C1543 H1546 0.999 . S
C1544 H1514 0.950 . S
C1544 C1543 1.524 . S
C1544 C1545 1.415 . S
C1545 H1515 0.950 . S
C1545 C1540 1.363 . S
C1545 C1544 1.415 . S
H1546 C1543 0.999 . S
H1547 C1528 0.913 . S
H1548 C1566 0.951 . S
H1549 C1568 0.951 . S
H1550 C1570 0.950 . S
H1551 C1571 0.950 . S
H1552 C1573 0.950 . S
H1553 C1576 0.950 . S
H1554 C1577 0.950 . S
H1555 C1579 0.950 . S
H1556 C1580 0.950 . S
H1557 C1581 0.951 . S
H1558 C1583 0.951 . S
H1559 C1585 0.950 . S
H1560 C1586 0.950 . S
H1561 C1588 0.950 . S
H1562 C1591 0.950 . S
H1563 C1592 0.950 . S
H1564 C1594 0.950 . S
H1565 C1595 0.950 . S
C1566 H1548 0.951 . S
C1566 C1567 1.366 . S
C1566 C1568 1.388 . S
C1567 C1566 1.366 . S
C1567 C1571 1.385 . S
C1568 H1549 0.951 . S
C1568 C1566 1.388 . S
C1568 C1569 1.366 . S
C1569 C1568 1.366 . S
C1569 C1570 1.414 . S
C1569 C1572 1.499 . S
C1570 H1550 0.950 . S
C1570 C1569 1.414 . S
C1570 C1571 1.374 . S
C1571 H1551 0.950 . S
C1571 C1567 1.385 . S
C1571 C1570 1.374 . S
C1572 C1569 1.499 . S
C1572 C1573 1.373 . S
C1572 C1574 1.389 . S
C1573 H1552 0.950 . S
C1573 C1572 1.373 . S
C1573 C1589 1.377 . S
C1574 C1572 1.389 . S
C1574 C1575 1.524 . S
C1574 C1588 1.377 . S
C1575 C1574 1.524 . S
C1575 C1576 1.397 . S
C1575 C1580 1.363 . S
C1576 H1553 0.950 . S
C1576 C1575 1.397 . S
C1576 C1577 1.334 . S
C1577 H1554 0.950 . S
C1577 C1576 1.334 . S
C1577 C1578 1.287 . S
C1578 C1577 1.287 . S
C1578 C1579 1.524 . S
C1578 H1597 0.913 . S
C1579 H1555 0.950 . S
C1579 C1578 1.524 . S
C1579 C1580 1.415 . S
C1580 H1556 0.950 . S
C1580 C1575 1.363 . S
C1580 C1579 1.415 . S
C1581 H1557 0.951 . S
C1581 C1582 1.366 . S
C1581 C1583 1.388 . S
C1582 C1581 1.366 . S
C1582 C1586 1.385 . S
C1583 H1558 0.951 . S
C1583 C1581 1.388 . S
C1583 C1584 1.366 . S
C1584 C1583 1.366 . S
C1584 C1585 1.414 . S
C1584 C1587 1.499 . S
C1585 H1559 0.950 . S
C1585 C1584 1.414 . S
C1585 C1586 1.374 . S
C1586 H1560 0.950 . S
C1586 C1582 1.385 . S
C1586 C1585 1.374 . S
C1587 C1584 1.499 . S
C1587 C1588 1.373 . S
C1587 C1589 1.389 . S
C1588 H1561 0.950 . S
C1588 C1574 1.377 . S
C1588 C1587 1.373 . S
C1589 C1573 1.377 . S
C1589 C1587 1.389 . S
C1589 C1590 1.524 . S
C1590 C1589 1.524 . S
C1590 C1591 1.397 . S
C1590 C1595 1.363 . S
C1591 H1562 0.950 . S
C1591 C1590 1.397 . S
C1591 C1592 1.334 . S
C1592 H1563 0.950 . S
C1592 C1591 1.334 . S
C1592 C1593 1.287 . S
C1593 C1592 1.287 . S
C1593 C1594 1.524 . S
C1593 H1596 0.999 . S
C1594 H1564 0.950 . S
C1594 C1593 1.524 . S
C1594 C1595 1.415 . S
C1595 H1565 0.950 . S
C1595 C1590 1.363 . S
C1595 C1594 1.415 . S
H1596 C1593 0.999 . S
H1597 C1578 0.913 . S
H1598 C1616 0.951 . S
H1599 C1618 0.951 . S
H1600 C1620 0.950 . S
H1601 C1621 0.950 . S
H1602 C1623 0.950 . S
H1603 C1626 0.950 . S
H1604 C1627 0.950 . S
H1605 C1629 0.950 . S
H1606 C1630 0.950 . S
H1607 C1631 0.951 . S
H1608 C1633 0.951 . S
H1609 C1635 0.950 . S
H1610 C1636 0.950 . S
H1611 C1638 0.950 . S
H1612 C1641 0.950 . S
H1613 C1642 0.950 . S
H1614 C1644 0.950 . S
H1615 C1645 0.950 . S
C1616 H1598 0.951 . S
C1616 C1617 1.366 1_455 S
C1616 C1618 1.388 . S
C1617 C1616 1.366 1_655 S
C1617 C1621 1.385 . S
C1618 H1599 0.951 . S
C1618 C1616 1.388 . S
C1618 C1619 1.366 . S
C1619 C1618 1.366 . S
C1619 C1620 1.414 . S
C1619 C1622 1.499 . S
C1620 H1600 0.950 . S
C1620 C1619 1.414 . S
C1620 C1621 1.374 1_455 S
C1621 H1601 0.950 . S
C1621 C1617 1.385 . S
C1621 C1620 1.374 1_655 S
C1622 C1619 1.499 . S
C1622 C1623 1.373 . S
C1622 C1624 1.389 . S
C1623 H1602 0.950 . S
C1623 C1622 1.373 . S
C1623 C1639 1.377 . S
C1624 C1622 1.389 . S
C1624 C1625 1.524 . S
C1624 C1638 1.377 . S
C1625 C1624 1.524 . S
C1625 C1626 1.397 . S
C1625 C1630 1.363 . S
C1626 H1603 0.950 . S
C1626 C1625 1.397 . S
C1626 C1627 1.334 . S
C1627 H1604 0.950 . S
C1627 C1626 1.334 . S
C1627 C1628 1.287 . S
C1628 C1627 1.287 . S
C1628 C1629 1.524 . S
C1628 H1647 0.913 . S
C1629 H1605 0.950 . S
C1629 C1628 1.524 . S
C1629 C1630 1.415 . S
C1630 H1606 0.950 . S
C1630 C1625 1.363 . S
C1630 C1629 1.415 . S
C1631 H1607 0.951 . S
C1631 C1632 1.366 . S
C1631 C1633 1.388 . S
C1632 C1631 1.366 . S
C1632 C1636 1.385 . S
C1633 H1608 0.951 . S
C1633 C1631 1.388 . S
C1633 C1634 1.366 . S
C1634 C1633 1.366 . S
C1634 C1635 1.414 . S
C1634 C1637 1.499 . S
C1635 H1609 0.950 . S
C1635 C1634 1.414 . S
C1635 C1636 1.374 . S
C1636 H1610 0.950 . S
C1636 C1632 1.385 . S
C1636 C1635 1.374 . S
C1637 C1634 1.499 . S
C1637 C1638 1.373 . S
C1637 C1639 1.389 . S
C1638 H1611 0.950 . S
C1638 C1624 1.377 . S
C1638 C1637 1.373 . S
C1639 C1623 1.377 . S
C1639 C1637 1.389 . S
C1639 C1640 1.524 . S
C1640 C1639 1.524 . S
C1640 C1641 1.397 . S
C1640 C1645 1.363 . S
C1641 H1612 0.950 . S
C1641 C1640 1.397 . S
C1641 C1642 1.334 . S
C1642 H1613 0.950 . S
C1642 C1641 1.334 . S
C1642 C1643 1.287 . S
C1643 C1642 1.287 . S
C1643 C1644 1.524 . S
C1643 H1646 0.999 . S
C1644 H1614 0.950 . S
C1644 C1643 1.524 . S
C1644 C1645 1.415 . S
C1645 H1615 0.950 . S
C1645 C1640 1.363 . S
C1645 C1644 1.415 . S
H1646 C1643 0.999 . S
H1647 C1628 0.913 . S
H1648 C1666 0.951 . S
H1649 C1668 0.951 . S
H1650 C1670 0.950 . S
H1651 C1671 0.950 . S
H1652 C1673 0.950 . S
H1653 C1676 0.950 . S
H1654 C1677 0.950 . S
H1655 C1679 0.950 . S
H1656 C1680 0.950 . S
H1657 C1681 0.951 . S
H1658 C1683 0.951 . S
H1659 C1685 0.950 . S
H1660 C1686 0.950 . S
H1661 C1688 0.950 . S
H1662 C1691 0.950 . S
H1663 C1692 0.950 . S
H1664 C1694 0.950 . S
H1665 C1695 0.950 . S
C1666 H1648 0.951 . S
C1666 C1667 1.366 . S
C1666 C1668 1.388 . S
C1667 C1666 1.366 . S
C1667 C1671 1.385 . S
C1668 H1649 0.951 . S
C1668 C1666 1.388 . S
C1668 C1669 1.366 . S
C1669 C1668 1.366 . S
C1669 C1670 1.414 . S
C1669 C1672 1.499 . S
C1670 H1650 0.950 . S
C1670 C1669 1.414 . S
C1670 C1671 1.374 . S
C1671 H1651 0.950 . S
C1671 C1667 1.385 . S
C1671 C1670 1.374 . S
C1672 C1669 1.499 . S
C1672 C1673 1.373 . S
C1672 C1674 1.389 . S
C1673 H1652 0.950 . S
C1673 C1672 1.373 . S
C1673 C1689 1.377 . S
C1674 C1672 1.389 . S
C1674 C1675 1.524 . S
C1674 C1688 1.377 . S
C1675 C1674 1.524 . S
C1675 C1676 1.397 . S
C1675 C1680 1.363 . S
C1676 H1653 0.950 . S
C1676 C1675 1.397 . S
C1676 C1677 1.334 . S
C1677 H1654 0.950 . S
C1677 C1676 1.334 . S
C1677 C1678 1.287 . S
C1678 C1677 1.287 . S
C1678 C1679 1.524 . S
C1678 H1697 0.913 . S
C1679 H1655 0.950 . S
C1679 C1678 1.524 . S
C1679 C1680 1.415 . S
C1680 H1656 0.950 . S
C1680 C1675 1.363 . S
C1680 C1679 1.415 . S
C1681 H1657 0.951 . S
C1681 C1682 1.366 . S
C1681 C1683 1.388 . S
C1682 C1681 1.366 . S
C1682 C1686 1.385 . S
C1683 H1658 0.951 . S
C1683 C1681 1.388 . S
C1683 C1684 1.366 . S
C1684 C1683 1.366 . S
C1684 C1685 1.414 . S
C1684 C1687 1.499 . S
C1685 H1659 0.950 . S
C1685 C1684 1.414 . S
C1685 C1686 1.374 . S
C1686 H1660 0.950 . S
C1686 C1682 1.385 . S
C1686 C1685 1.374 . S
C1687 C1684 1.499 . S
C1687 C1688 1.373 . S
C1687 C1689 1.389 . S
C1688 H1661 0.950 . S
C1688 C1674 1.377 . S
C1688 C1687 1.373 . S
C1689 C1673 1.377 . S
C1689 C1687 1.389 . S
C1689 C1690 1.524 . S
C1690 C1689 1.524 . S
C1690 C1691 1.397 . S
C1690 C1695 1.363 . S
C1691 H1662 0.950 . S
C1691 C1690 1.397 . S
C1691 C1692 1.334 . S
C1692 H1663 0.950 . S
C1692 C1691 1.334 . S
C1692 C1693 1.287 . S
C1693 C1692 1.287 . S
C1693 C1694 1.524 . S
C1693 H1696 0.999 . S
C1694 H1664 0.950 . S
C1694 C1693 1.524 . S
C1694 C1695 1.415 . S
C1695 H1665 0.950 . S
C1695 C1690 1.363 . S
C1695 C1694 1.415 . S
H1696 C1693 0.999 . S
H1697 C1678 0.913 . S
H1698 C1716 0.951 . S
H1699 C1718 0.951 . S
H1700 C1720 0.950 . S
H1701 C1721 0.950 . S
H1702 C1723 0.950 . S
H1703 C1726 0.950 . S
H1704 C1727 0.950 . S
H1705 C1729 0.950 . S
H1706 C1730 0.950 . S
H1707 C1731 0.951 . S
H1708 C1733 0.951 . S
H1709 C1735 0.950 . S
H1710 C1736 0.950 . S
H1711 C1738 0.950 . S
H1712 C1741 0.950 . S
H1713 C1742 0.950 . S
H1714 C1744 0.950 . S
H1715 C1745 0.950 . S
C1716 H1698 0.951 . S
C1716 C1717 1.366 . S
C1716 C1718 1.388 . S
C1717 C1716 1.366 . S
C1717 C1721 1.385 . S
C1718 H1699 0.951 . S
C1718 C1716 1.388 . S
C1718 C1719 1.366 . S
C1719 C1718 1.366 . S
C1719 C1720 1.414 . S
C1719 C1722 1.499 . S
C1720 H1700 0.950 . S
C1720 C1719 1.414 . S
C1720 C1721 1.374 . S
C1721 H1701 0.950 . S
C1721 C1717 1.385 . S
C1721 C1720 1.374 . S
C1722 C1719 1.499 . S
C1722 C1723 1.373 . S
C1722 C1724 1.389 . S
C1723 H1702 0.950 . S
C1723 C1722 1.373 . S
C1723 C1739 1.377 . S
C1724 C1722 1.389 . S
C1724 C1725 1.524 . S
C1724 C1738 1.377 . S
C1725 C1724 1.524 . S
C1725 C1726 1.397 . S
C1725 C1730 1.363 . S
C1726 H1703 0.950 . S
C1726 C1725 1.397 . S
C1726 C1727 1.334 . S
C1727 H1704 0.950 . S
C1727 C1726 1.334 . S
C1727 C1728 1.287 . S
C1728 C1727 1.287 . S
C1728 C1729 1.524 . S
C1728 H1747 0.913 . S
C1729 H1705 0.950 . S
C1729 C1728 1.524 . S
C1729 C1730 1.415 . S
C1730 H1706 0.950 . S
C1730 C1725 1.363 . S
C1730 C1729 1.415 . S
C1731 H1707 0.951 . S
C1731 C1732 1.366 1_655 S
C1731 C1733 1.388 . S
C1732 C1731 1.366 1_455 S
C1732 C1736 1.385 . S
C1733 H1708 0.951 . S
C1733 C1731 1.388 . S
C1733 C1734 1.366 . S
C1734 C1733 1.366 . S
C1734 C1735 1.414 . S
C1734 C1737 1.499 . S
C1735 H1709 0.950 . S
C1735 C1734 1.414 . S
C1735 C1736 1.374 1_655 S
C1736 H1710 0.950 . S
C1736 C1732 1.385 . S
C1736 C1735 1.374 1_455 S
C1737 C1734 1.499 . S
C1737 C1738 1.373 . S
C1737 C1739 1.389 . S
C1738 H1711 0.950 . S
C1738 C1724 1.377 . S
C1738 C1737 1.373 . S
C1739 C1723 1.377 . S
C1739 C1737 1.389 . S
C1739 C1740 1.524 . S
C1740 C1739 1.524 . S
C1740 C1741 1.397 . S
C1740 C1745 1.363 . S
C1741 H1712 0.950 . S
C1741 C1740 1.397 . S
C1741 C1742 1.334 . S
C1742 H1713 0.950 . S
C1742 C1741 1.334 . S
C1742 C1743 1.287 . S
C1743 C1742 1.287 . S
C1743 C1744 1.524 . S
C1743 H1746 0.999 . S
C1744 H1714 0.950 . S
C1744 C1743 1.524 . S
C1744 C1745 1.415 . S
C1745 H1715 0.950 . S
C1745 C1740 1.363 . S
C1745 C1744 1.415 . S
H1746 C1743 0.999 . S
H1747 C1728 0.913 . S
H1748 C1766 0.951 . S
H1749 C1768 0.951 . S
H1750 C1770 0.950 . S
H1751 C1771 0.950 . S
H1752 C1773 0.950 . S
H1753 C1776 0.950 . S
H1754 C1777 0.950 . S
H1755 C1779 0.950 . S
H1756 C1780 0.950 . S
H1757 C1781 0.951 . S
H1758 C1783 0.951 . S
H1759 C1785 0.950 . S
H1760 C1786 0.950 . S
H1761 C1788 0.950 . S
H1762 C1791 0.950 . S
H1763 C1792 0.950 . S
H1764 C1794 0.950 . S
H1765 C1795 0.950 . S
C1766 H1748 0.951 . S
C1766 C1767 1.366 . S
C1766 C1768 1.388 . S
C1767 C1766 1.366 . S
C1767 C1771 1.385 . S
C1768 H1749 0.951 . S
C1768 C1766 1.388 . S
C1768 C1769 1.366 . S
C1769 C1768 1.366 . S
C1769 C1770 1.414 . S
C1769 C1772 1.499 . S
C1770 H1750 0.950 . S
C1770 C1769 1.414 . S
C1770 C1771 1.374 . S
C1771 H1751 0.950 . S
C1771 C1767 1.385 . S
C1771 C1770 1.374 . S
C1772 C1769 1.499 . S
C1772 C1773 1.373 . S
C1772 C1774 1.389 . S
C1773 H1752 0.950 . S
C1773 C1772 1.373 . S
C1773 C1789 1.377 . S
C1774 C1772 1.389 . S
C1774 C1775 1.524 . S
C1774 C1788 1.377 . S
C1775 C1774 1.524 . S
C1775 C1776 1.397 . S
C1775 C1780 1.363 . S
C1776 H1753 0.950 . S
C1776 C1775 1.397 . S
C1776 C1777 1.334 . S
C1777 H1754 0.950 . S
C1777 C1776 1.334 . S
C1777 C1778 1.287 . S
C1778 C1777 1.287 . S
C1778 C1779 1.524 . S
C1778 H1797 0.913 . S
C1779 H1755 0.950 . S
C1779 C1778 1.524 . S
C1779 C1780 1.415 . S
C1780 H1756 0.950 . S
C1780 C1775 1.363 . S
C1780 C1779 1.415 . S
C1781 H1757 0.951 . S
C1781 C1782 1.366 . S
C1781 C1783 1.388 . S
C1782 C1781 1.366 . S
C1782 C1786 1.385 . S
C1783 H1758 0.951 . S
C1783 C1781 1.388 . S
C1783 C1784 1.366 . S
C1784 C1783 1.366 . S
C1784 C1785 1.414 . S
C1784 C1787 1.499 . S
C1785 H1759 0.950 . S
C1785 C1784 1.414 . S
C1785 C1786 1.374 . S
C1786 H1760 0.950 . S
C1786 C1782 1.385 . S
C1786 C1785 1.374 . S
C1787 C1784 1.499 . S
C1787 C1788 1.373 . S
C1787 C1789 1.389 . S
C1788 H1761 0.950 . S
C1788 C1774 1.377 . S
C1788 C1787 1.373 . S
C1789 C1773 1.377 . S
C1789 C1787 1.389 . S
C1789 C1790 1.524 . S
C1790 C1789 1.524 . S
C1790 C1791 1.397 . S
C1790 C1795 1.363 . S
C1791 H1762 0.950 . S
C1791 C1790 1.397 . S
C1791 C1792 1.334 . S
C1792 H1763 0.950 . S
C1792 C1791 1.334 . S
C1792 C1793 1.287 . S
C1793 C1792 1.287 . S
C1793 C1794 1.524 . S
C1793 H1796 0.999 . S
C1794 H1764 0.950 . S
C1794 C1793 1.524 . S
C1794 C1795 1.415 . S
C1795 H1765 0.950 . S
C1795 C1790 1.363 . S
C1795 C1794 1.415 . S
H1796 C1793 0.999 . S
H1797 C1778 0.913 . S
H1798 C1816 0.951 . S
H1799 C1818 0.951 . S
H1800 C1820 0.950 . S
H1801 C1821 0.950 . S
H1802 C1823 0.950 . S
H1803 C1826 0.950 . S
H1804 C1827 0.950 . S
H1805 C1829 0.950 . S
H1806 C1830 0.950 . S
H1807 C1831 0.951 . S
H1808 C1833 0.951 . S
H1809 C1835 0.950 . S
H1810 C1836 0.950 . S
H1811 C1838 0.950 . S
H1812 C1841 0.950 . S
H1813 C1842 0.950 . S
H1814 C1844 0.950 . S
H1815 C1845 0.950 . S
C1816 H1798 0.951 . S
C1816 C1817 1.366 . S
C1816 C1818 1.388 . S
C1817 C1816 1.366 . S
C1817 C1821 1.385 . S
C1818 H1799 0.951 . S
C1818 C1816 1.388 . S
C1818 C1819 1.366 . S
C1819 C1818 1.366 . S
C1819 C1820 1.414 . S
C1819 C1822 1.499 . S
C1820 H1800 0.950 . S
C1820 C1819 1.414 . S
C1820 C1821 1.374 . S
C1821 H1801 0.950 . S
C1821 C1817 1.385 . S
C1821 C1820 1.374 . S
C1822 C1819 1.499 . S
C1822 C1823 1.373 . S
C1822 C1824 1.389 . S
C1823 H1802 0.950 . S
C1823 C1822 1.373 . S
C1823 C1839 1.377 . S
C1824 C1822 1.389 . S
C1824 C1825 1.524 . S
C1824 C1838 1.377 . S
C1825 C1824 1.524 . S
C1825 C1826 1.397 . S
C1825 C1830 1.363 . S
C1826 H1803 0.950 . S
C1826 C1825 1.397 . S
C1826 C1827 1.334 . S
C1827 H1804 0.950 . S
C1827 C1826 1.334 . S
C1827 C1828 1.287 . S
C1828 C1827 1.287 . S
C1828 C1829 1.524 . S
C1828 H1847 0.913 . S
C1829 H1805 0.950 . S
C1829 C1828 1.524 . S
C1829 C1830 1.415 . S
C1830 H1806 0.950 . S
C1830 C1825 1.363 . S
C1830 C1829 1.415 . S
C1831 H1807 0.951 . S
C1831 C1832 1.366 1_655 S
C1831 C1833 1.388 . S
C1832 C1831 1.366 1_455 S
C1832 C1836 1.385 . S
C1833 H1808 0.951 . S
C1833 C1831 1.388 . S
C1833 C1834 1.366 . S
C1834 C1833 1.366 . S
C1834 C1835 1.414 . S
C1834 C1837 1.499 . S
C1835 H1809 0.950 . S
C1835 C1834 1.414 . S
C1835 C1836 1.374 1_655 S
C1836 H1810 0.950 . S
C1836 C1832 1.385 . S
C1836 C1835 1.374 1_455 S
C1837 C1834 1.499 . S
C1837 C1838 1.373 . S
C1837 C1839 1.389 . S
C1838 H1811 0.950 . S
C1838 C1824 1.377 . S
C1838 C1837 1.373 . S
C1839 C1823 1.377 . S
C1839 C1837 1.389 . S
C1839 C1840 1.524 . S
C1840 C1839 1.524 . S
C1840 C1841 1.397 . S
C1840 C1845 1.363 . S
C1841 H1812 0.950 . S
C1841 C1840 1.397 . S
C1841 C1842 1.334 . S
C1842 H1813 0.950 . S
C1842 C1841 1.334 . S
C1842 C1843 1.287 . S
C1843 C1842 1.287 . S
C1843 C1844 1.524 . S
C1843 H1846 0.999 . S
C1844 H1814 0.950 . S
C1844 C1843 1.524 . S
C1844 C1845 1.415 . S
C1845 H1815 0.950 . S
C1845 C1840 1.363 . S
C1845 C1844 1.415 . S
H1846 C1843 0.999 . S
H1847 C1828 0.913 . S
H1848 C1866 0.951 . S
H1849 C1868 0.951 . S
H1850 C1870 0.950 . S
H1851 C1871 0.950 . S
H1852 C1873 0.950 . S
H1853 C1876 0.950 . S
H1854 C1877 0.950 . S
H1855 C1879 0.950 . S
H1856 C1880 0.950 . S
H1857 C1881 0.951 . S
H1858 C1883 0.951 . S
H1859 C1885 0.950 . S
H1860 C1886 0.950 . S
H1861 C1888 0.950 . S
H1862 C1891 0.950 . S
H1863 C1892 0.950 . S
H1864 C1894 0.950 . S
H1865 C1895 0.950 . S
C1866 H1848 0.951 . S
C1866 C1867 1.366 . S
C1866 C1868 1.388 . S
C1867 C1866 1.366 . S
C1867 C1871 1.385 . S
C1868 H1849 0.951 . S
C1868 C1866 1.388 . S
C1868 C1869 1.366 . S
C1869 C1868 1.366 . S
C1869 C1870 1.414 . S
C1869 C1872 1.499 . S
C1870 H1850 0.950 . S
C1870 C1869 1.414 . S
C1870 C1871 1.374 . S
C1871 H1851 0.950 . S
C1871 C1867 1.385 . S
C1871 C1870 1.374 . S
C1872 C1869 1.499 . S
C1872 C1873 1.373 . S
C1872 C1874 1.389 . S
C1873 H1852 0.950 . S
C1873 C1872 1.373 . S
C1873 C1889 1.377 . S
C1874 C1872 1.389 . S
C1874 C1875 1.524 . S
C1874 C1888 1.377 . S
C1875 C1874 1.524 . S
C1875 C1876 1.397 . S
C1875 C1880 1.363 . S
C1876 H1853 0.950 . S
C1876 C1875 1.397 . S
C1876 C1877 1.334 . S
C1877 H1854 0.950 . S
C1877 C1876 1.334 . S
C1877 C1878 1.287 . S
C1878 C1877 1.287 . S
C1878 C1879 1.524 . S
C1878 H1897 0.913 . S
C1879 H1855 0.950 . S
C1879 C1878 1.524 . S
C1879 C1880 1.415 . S
C1880 H1856 0.950 . S
C1880 C1875 1.363 . S
C1880 C1879 1.415 . S
C1881 H1857 0.951 . S
C1881 C1882 1.366 . S
C1881 C1883 1.388 . S
C1882 C1881 1.366 . S
C1882 C1886 1.385 . S
C1883 H1858 0.951 . S
C1883 C1881 1.388 . S
C1883 C1884 1.366 . S
C1884 C1883 1.366 . S
C1884 C1885 1.414 . S
C1884 C1887 1.499 . S
C1885 H1859 0.950 . S
C1885 C1884 1.414 . S
C1885 C1886 1.374 . S
C1886 H1860 0.950 . S
C1886 C1882 1.385 . S
C1886 C1885 1.374 . S
C1887 C1884 1.499 . S
C1887 C1888 1.373 . S
C1887 C1889 1.389 . S
C1888 H1861 0.950 . S
C1888 C1874 1.377 . S
C1888 C1887 1.373 . S
C1889 C1873 1.377 . S
C1889 C1887 1.389 . S
C1889 C1890 1.524 . S
C1890 C1889 1.524 . S
C1890 C1891 1.397 . S
C1890 C1895 1.363 . S
C1891 H1862 0.950 . S
C1891 C1890 1.397 . S
C1891 C1892 1.334 . S
C1892 H1863 0.950 . S
C1892 C1891 1.334 . S
C1892 C1893 1.287 . S
C1893 C1892 1.287 . S
C1893 C1894 1.524 . S
C1893 H1896 0.999 1_554 S
C1894 H1864 0.950 . S
C1894 C1893 1.524 . S
C1894 C1895 1.415 . S
C1895 H1865 0.950 . S
C1895 C1890 1.363 . S
C1895 C1894 1.415 . S
H1896 C1893 0.999 1_556 S
H1897 C1878 0.913 . S
H1898 C1916 0.951 . S
H1899 C1918 0.951 . S
H1900 C1920 0.950 . S
H1901 C1921 0.950 . S
H1902 C1923 0.950 . S
H1903 C1926 0.950 . S
H1904 C1927 0.950 . S
H1905 C1929 0.950 . S
H1906 C1930 0.950 . S
H1907 C1931 0.951 . S
H1908 C1933 0.951 . S
H1909 C1935 0.950 . S
H1910 C1936 0.950 . S
H1911 C1938 0.950 . S
H1912 C1941 0.950 . S
H1913 C1942 0.950 . S
H1914 C1944 0.950 . S
H1915 C1945 0.950 . S
C1916 H1898 0.951 . S
C1916 C1917 1.366 . S
C1916 C1918 1.388 . S
C1917 C1916 1.366 . S
C1917 C1921 1.385 . S
C1918 H1899 0.951 . S
C1918 C1916 1.388 . S
C1918 C1919 1.366 . S
C1919 C1918 1.366 . S
C1919 C1920 1.414 . S
C1919 C1922 1.499 . S
C1920 H1900 0.950 . S
C1920 C1919 1.414 . S
C1920 C1921 1.374 . S
C1921 H1901 0.950 . S
C1921 C1917 1.385 . S
C1921 C1920 1.374 . S
C1922 C1919 1.499 . S
C1922 C1923 1.373 . S
C1922 C1924 1.389 . S
C1923 H1902 0.950 . S
C1923 C1922 1.373 . S
C1923 C1939 1.377 . S
C1924 C1922 1.389 . S
C1924 C1925 1.524 . S
C1924 C1938 1.377 . S
C1925 C1924 1.524 . S
C1925 C1926 1.397 . S
C1925 C1930 1.363 . S
C1926 H1903 0.950 . S
C1926 C1925 1.397 . S
C1926 C1927 1.334 . S
C1927 H1904 0.950 . S
C1927 C1926 1.334 . S
C1927 C1928 1.287 . S
C1928 C1927 1.287 . S
C1928 C1929 1.524 . S
C1928 H1947 0.913 . S
C1929 H1905 0.950 . S
C1929 C1928 1.524 . S
C1929 C1930 1.415 . S
C1930 H1906 0.950 . S
C1930 C1925 1.363 . S
C1930 C1929 1.415 . S
C1931 H1907 0.951 . S
C1931 C1932 1.366 . S
C1931 C1933 1.388 1_655 S
C1932 C1931 1.366 . S
C1932 C1936 1.385 1_655 S
C1933 H1908 0.951 . S
C1933 C1931 1.388 1_455 S
C1933 C1934 1.366 . S
C1934 C1933 1.366 . S
C1934 C1935 1.414 . S
C1934 C1937 1.499 . S
C1935 H1909 0.950 . S
C1935 C1934 1.414 . S
C1935 C1936 1.374 . S
C1936 H1910 0.950 . S
C1936 C1932 1.385 1_455 S
C1936 C1935 1.374 . S
C1937 C1934 1.499 . S
C1937 C1938 1.373 . S
C1937 C1939 1.389 . S
C1938 H1911 0.950 . S
C1938 C1924 1.377 . S
C1938 C1937 1.373 . S
C1939 C1923 1.377 . S
C1939 C1937 1.389 . S
C1939 C1940 1.524 . S
C1940 C1939 1.524 . S
C1940 C1941 1.397 . S
C1940 C1945 1.363 . S
C1941 H1912 0.950 . S
C1941 C1940 1.397 . S
C1941 C1942 1.334 . S
C1942 H1913 0.950 . S
C1942 C1941 1.334 . S
C1942 C1943 1.287 . S
C1943 C1942 1.287 . S
C1943 C1944 1.524 . S
C1943 H1946 0.999 . S
C1944 H1914 0.950 . S
C1944 C1943 1.524 . S
C1944 C1945 1.415 . S
C1945 H1915 0.950 . S
C1945 C1940 1.363 . S
C1945 C1944 1.415 . S
H1946 C1943 0.999 . S
H1947 C1928 0.913 . S
H1948 C1966 0.951 . S
H1949 C1968 0.951 . S
H1950 C1970 0.950 . S
H1951 C1971 0.950 . S
H1952 C1973 0.950 . S
H1953 C1976 0.950 . S
H1954 C1977 0.950 . S
H1955 C1979 0.950 . S
H1956 C1980 0.950 . S
H1957 C1981 0.951 . S
H1958 C1983 0.951 . S
H1959 C1985 0.950 . S
H1960 C1986 0.950 . S
H1961 C1988 0.950 . S
H1962 C1991 0.950 . S
H1963 C1992 0.950 . S
H1964 C1994 0.950 . S
H1965 C1995 0.950 . S
C1966 H1948 0.951 . S
C1966 C1967 1.366 . S
C1966 C1968 1.388 . S
C1967 C1966 1.366 . S
C1967 C1971 1.385 . S
C1968 H1949 0.951 . S
C1968 C1966 1.388 . S
C1968 C1969 1.366 . S
C1969 C1968 1.366 . S
C1969 C1970 1.414 . S
C1969 C1972 1.499 . S
C1970 H1950 0.950 . S
C1970 C1969 1.414 . S
C1970 C1971 1.374 . S
C1971 H1951 0.950 . S
C1971 C1967 1.385 . S
C1971 C1970 1.374 . S
C1972 C1969 1.499 . S
C1972 C1973 1.373 . S
C1972 C1974 1.389 . S
C1973 H1952 0.950 . S
C1973 C1972 1.373 . S
C1973 C1989 1.377 . S
C1974 C1972 1.389 . S
C1974 C1975 1.524 . S
C1974 C1988 1.377 . S
C1975 C1974 1.524 . S
C1975 C1976 1.397 . S
C1975 C1980 1.363 . S
C1976 H1953 0.950 . S
C1976 C1975 1.397 . S
C1976 C1977 1.334 . S
C1977 H1954 0.950 . S
C1977 C1976 1.334 . S
C1977 C1978 1.287 . S
C1978 C1977 1.287 . S
C1978 C1979 1.524 . S
C1978 H1997 0.913 . S
C1979 H1955 0.950 . S
C1979 C1978 1.524 . S
C1979 C1980 1.415 . S
C1980 H1956 0.950 . S
C1980 C1975 1.363 . S
C1980 C1979 1.415 . S
C1981 H1957 0.951 . S
C1981 C1982 1.366 . S
C1981 C1983 1.388 . S
C1982 C1981 1.366 . S
C1982 C1986 1.385 . S
C1983 H1958 0.951 . S
C1983 C1981 1.388 . S
C1983 C1984 1.366 . S
C1984 C1983 1.366 . S
C1984 C1985 1.414 . S
C1984 C1987 1.499 . S
C1985 H1959 0.950 . S
C1985 C1984 1.414 . S
C1985 C1986 1.374 . S
C1986 H1960 0.950 . S
C1986 C1982 1.385 . S
C1986 C1985 1.374 . S
C1987 C1984 1.499 . S
C1987 C1988 1.373 . S
C1987 C1989 1.389 . S
C1988 H1961 0.950 . S
C1988 C1974 1.377 . S
C1988 C1987 1.373 . S
C1989 C1973 1.377 . S
C1989 C1987 1.389 . S
C1989 C1990 1.524 . S
C1990 C1989 1.524 . S
C1990 C1991 1.397 . S
C1990 C1995 1.363 . S
C1991 H1962 0.950 . S
C1991 C1990 1.397 . S
C1991 C1992 1.334 . S
C1992 H1963 0.950 . S
C1992 C1991 1.334 . S
C1992 C1993 1.287 . S
C1993 C1992 1.287 . S
C1993 C1994 1.524 . S
C1993 H1996 0.999 . S
C1994 H1964 0.950 . S
C1994 C1993 1.524 . S
C1994 C1995 1.415 . S
C1995 H1965 0.950 . S
C1995 C1990 1.363 . S
C1995 C1994 1.415 . S
H1996 C1993 0.999 . S
H1997 C1978 0.913 . S
H1998 C2016 0.951 . S
H1999 C2018 0.951 . S
H2000 C2020 0.950 . S
H2001 C2021 0.950 . S
H2002 C2023 0.950 . S
H2003 C2026 0.950 . S
H2004 C2027 0.950 . S
H2005 C2029 0.950 . S
H2006 C2030 0.950 . S
H2007 C2031 0.951 . S
H2008 C2033 0.951 . S
H2009 C2035 0.950 . S
H2010 C2036 0.950 . S
H2011 C2038 0.950 . S
H2012 C2041 0.950 . S
H2013 C2042 0.950 . S
H2014 C2044 0.950 . S
H2015 C2045 0.950 . S
C2016 H1998 0.951 . S
C2016 C2017 1.366 . S
C2016 C2018 1.388 1_655 S
C2017 C2016 1.366 . S
C2017 C2021 1.385 1_655 S
C2018 H1999 0.951 . S
C2018 C2016 1.388 1_455 S
C2018 C2019 1.366 . S
C2019 C2018 1.366 . S
C2019 C2020 1.414 . S
C2019 C2022 1.499 . S
C2020 H2000 0.950 . S
C2020 C2019 1.414 . S
C2020 C2021 1.374 . S
C2021 H2001 0.950 . S
C2021 C2017 1.385 1_455 S
C2021 C2020 1.374 . S
C2022 C2019 1.499 . S
C2022 C2023 1.373 . S
C2022 C2024 1.389 . S
C2023 H2002 0.950 . S
C2023 C2022 1.373 . S
C2023 C2039 1.377 . S
C2024 C2022 1.389 . S
C2024 C2025 1.524 . S
C2024 C2038 1.377 . S
C2025 C2024 1.524 . S
C2025 C2026 1.397 . S
C2025 C2030 1.363 . S
C2026 H2003 0.950 . S
C2026 C2025 1.397 . S
C2026 C2027 1.334 . S
C2027 H2004 0.950 . S
C2027 C2026 1.334 . S
C2027 C2028 1.287 . S
C2028 C2027 1.287 . S
C2028 C2029 1.524 . S
C2028 H2047 0.913 . S
C2029 H2005 0.950 . S
C2029 C2028 1.524 . S
C2029 C2030 1.415 . S
C2030 H2006 0.950 . S
C2030 C2025 1.363 . S
C2030 C2029 1.415 . S
C2031 H2007 0.951 . S
C2031 C2032 1.366 . S
C2031 C2033 1.388 . S
C2032 C2031 1.366 . S
C2032 C2036 1.385 . S
C2033 H2008 0.951 . S
C2033 C2031 1.388 . S
C2033 C2034 1.366 . S
C2034 C2033 1.366 . S
C2034 C2035 1.414 . S
C2034 C2037 1.499 . S
C2035 H2009 0.950 . S
C2035 C2034 1.414 . S
C2035 C2036 1.374 . S
C2036 H2010 0.950 . S
C2036 C2032 1.385 . S
C2036 C2035 1.374 . S
C2037 C2034 1.499 . S
C2037 C2038 1.373 . S
C2037 C2039 1.389 . S
C2038 H2011 0.950 . S
C2038 C2024 1.377 . S
C2038 C2037 1.373 . S
C2039 C2023 1.377 . S
C2039 C2037 1.389 . S
C2039 C2040 1.524 . S
C2040 C2039 1.524 . S
C2040 C2041 1.397 . S
C2040 C2045 1.363 . S
C2041 H2012 0.950 . S
C2041 C2040 1.397 . S
C2041 C2042 1.334 . S
C2042 H2013 0.950 . S
C2042 C2041 1.334 . S
C2042 C2043 1.287 . S
C2043 C2042 1.287 . S
C2043 C2044 1.524 . S
C2043 H2046 0.999 . S
C2044 H2014 0.950 . S
C2044 C2043 1.524 . S
C2044 C2045 1.415 . S
C2045 H2015 0.950 . S
C2045 C2040 1.363 . S
C2045 C2044 1.415 . S
H2046 C2043 0.999 . S
H2047 C2028 0.913 . S
H2048 C2066 0.951 . S
H2049 C2068 0.951 . S
H2050 C2070 0.950 . S
H2051 C2071 0.950 . S
H2052 C2073 0.950 . S
H2053 C2076 0.950 . S
H2054 C2077 0.950 . S
H2055 C2079 0.950 . S
H2056 C2080 0.950 . S
H2057 C2081 0.951 . S
H2058 C2083 0.951 . S
H2059 C2085 0.950 . S
H2060 C2086 0.950 . S
H2061 C2088 0.950 . S
H2062 C2091 0.950 . S
H2063 C2092 0.950 . S
H2064 C2094 0.950 . S
H2065 C2095 0.950 . S
C2066 H2048 0.951 . S
C2066 C2067 1.366 . S
C2066 C2068 1.388 . S
C2067 C2066 1.366 . S
C2067 C2071 1.385 . S
C2068 H2049 0.951 . S
C2068 C2066 1.388 . S
C2068 C2069 1.366 . S
C2069 C2068 1.366 . S
C2069 C2070 1.414 . S
C2069 C2072 1.499 . S
C2070 H2050 0.950 . S
C2070 C2069 1.414 . S
C2070 C2071 1.374 . S
C2071 H2051 0.950 . S
C2071 C2067 1.385 . S
C2071 C2070 1.374 . S
C2072 C2069 1.499 . S
C2072 C2073 1.373 . S
C2072 C2074 1.389 . S
C2073 H2052 0.950 . S
C2073 C2072 1.373 . S
C2073 C2089 1.377 1_655 S
C2074 C2072 1.389 . S
C2074 C2075 1.524 . S
C2074 C2088 1.377 1_655 S
C2075 C2074 1.524 . S
C2075 C2076 1.397 . S
C2075 C2080 1.363 . S
C2076 H2053 0.950 . S
C2076 C2075 1.397 . S
C2076 C2077 1.334 . S
C2077 H2054 0.950 . S
C2077 C2076 1.334 . S
C2077 C2078 1.287 . S
C2078 C2077 1.287 . S
C2078 C2079 1.524 . S
C2078 H2097 0.913 . S
C2079 H2055 0.950 . S
C2079 C2078 1.524 . S
C2079 C2080 1.415 . S
C2080 H2056 0.950 . S
C2080 C2075 1.363 . S
C2080 C2079 1.415 . S
C2081 H2057 0.951 . S
C2081 C2082 1.366 . S
C2081 C2083 1.388 . S
C2082 C2081 1.366 . S
C2082 C2086 1.385 . S
C2083 H2058 0.951 . S
C2083 C2081 1.388 . S
C2083 C2084 1.366 . S
C2084 C2083 1.366 . S
C2084 C2085 1.414 . S
C2084 C2087 1.499 . S
C2085 H2059 0.950 . S
C2085 C2084 1.414 . S
C2085 C2086 1.374 . S
C2086 H2060 0.950 . S
C2086 C2082 1.385 . S
C2086 C2085 1.374 . S
C2087 C2084 1.499 . S
C2087 C2088 1.373 . S
C2087 C2089 1.389 . S
C2088 H2061 0.950 . S
C2088 C2074 1.377 1_455 S
C2088 C2087 1.373 . S
C2089 C2073 1.377 1_455 S
C2089 C2087 1.389 . S
C2089 C2090 1.524 . S
C2090 C2089 1.524 . S
C2090 C2091 1.397 . S
C2090 C2095 1.363 . S
C2091 H2062 0.950 . S
C2091 C2090 1.397 . S
C2091 C2092 1.334 . S
C2092 H2063 0.950 . S
C2092 C2091 1.334 . S
C2092 C2093 1.287 . S
C2093 C2092 1.287 . S
C2093 C2094 1.524 . S
C2093 H2096 0.999 . S
C2094 H2064 0.950 . S
C2094 C2093 1.524 . S
C2094 C2095 1.415 . S
C2095 H2065 0.950 . S
C2095 C2090 1.363 . S
C2095 C2094 1.415 . S
H2096 C2093 0.999 . S
H2097 C2078 0.913 . S
H2098 C2116 0.951 . S
H2099 C2118 0.951 . S
H2100 C2120 0.950 . S
H2101 C2121 0.950 . S
H2102 C2123 0.950 . S
H2103 C2126 0.955 1_565 S
H2104 C2127 0.950 1_565 S
H2105 C2129 0.950 . S
H2106 C2130 0.950 . S
H2107 C2131 0.951 . S
H2108 C2133 0.951 . S
H2109 C2135 0.950 . S
H2110 C2136 0.950 . S
H2111 C2138 0.950 . S
H2112 C2141 0.955 1_545 S
H2113 C2142 0.950 1_545 S
H2114 C2144 0.950 . S
H2115 C2145 0.950 . S
C2116 H2098 0.951 . S
C2116 C2117 1.366 . S
C2116 C2118 1.388 . S
C2117 C2116 1.366 . S
C2117 C2121 1.385 . S
C2118 H2099 0.951 . S
C2118 C2116 1.388 . S
C2118 C2119 1.366 . S
C2119 C2118 1.366 . S
C2119 C2120 1.414 . S
C2119 C2122 1.499 . S
C2120 H2100 0.950 . S
C2120 C2119 1.414 . S
C2120 C2121 1.374 . S
C2121 H2101 0.950 . S
C2121 C2117 1.385 . S
C2121 C2120 1.374 . S
C2122 C2119 1.499 . S
C2122 C2123 1.373 . S
C2122 C2124 1.389 1_565 S
C2123 H2102 0.950 . S
C2123 C2122 1.373 . S
C2123 C2139 1.377 . S
C2124 C2122 1.389 1_545 S
C2124 C2125 1.524 . S
C2124 C2138 1.377 . S
C2125 C2124 1.524 . S
C2125 C2126 1.393 . S
C2125 C2130 1.363 . S
C2126 H2103 0.955 1_545 S
C2126 C2125 1.393 . S
C2126 C2127 1.332 . S
C2127 H2104 0.950 1_545 S
C2127 C2126 1.332 . S
C2127 C2128 1.287 . S
C2128 C2127 1.287 . S
C2128 C2129 1.524 . S
C2128 H2147 0.913 . S
C2129 H2105 0.950 . S
C2129 C2128 1.524 . S
C2129 C2130 1.415 . S
C2130 H2106 0.950 . S
C2130 C2125 1.363 . S
C2130 C2129 1.415 . S
C2131 H2107 0.951 . S
C2131 C2132 1.366 . S
C2131 C2133 1.388 . S
C2132 C2131 1.366 . S
C2132 C2136 1.385 . S
C2133 H2108 0.951 . S
C2133 C2131 1.388 . S
C2133 C2134 1.366 . S
C2134 C2133 1.366 . S
C2134 C2135 1.414 . S
C2134 C2137 1.499 . S
C2135 H2109 0.950 . S
C2135 C2134 1.414 . S
C2135 C2136 1.374 . S
C2136 H2110 0.950 . S
C2136 C2132 1.385 . S
C2136 C2135 1.374 . S
C2137 C2134 1.499 . S
C2137 C2138 1.373 . S
C2137 C2139 1.389 1_545 S
C2138 H2111 0.950 . S
C2138 C2124 1.377 . S
C2138 C2137 1.373 . S
C2139 C2123 1.377 . S
C2139 C2137 1.389 1_565 S
C2139 C2140 1.524 . S
C2140 C2139 1.524 . S
C2140 C2141 1.393 . S
C2140 C2145 1.363 . S
C2141 H2112 0.955 1_565 S
C2141 C2140 1.393 . S
C2141 C2142 1.332 . S
C2142 H2113 0.950 1_565 S
C2142 C2141 1.332 . S
C2142 C2143 1.287 . S
C2143 C2142 1.287 . S
C2143 C2144 1.524 . S
C2143 H2146 0.999 . S
C2144 H2114 0.950 . S
C2144 C2143 1.524 . S
C2144 C2145 1.415 . S
C2145 H2115 0.950 . S
C2145 C2140 1.363 . S
C2145 C2144 1.415 . S
H2146 C2143 0.999 . S
H2147 C2128 0.913 . S
H2148 C2166 0.951 . S
H2149 C2168 0.951 . S
H2150 C2170 0.966 . S
H2151 C2171 0.950 . S
H2152 C2173 0.950 . S
H2153 C2176 0.950 1_455 S
H2154 C2177 0.950 . S
H2155 C2179 0.950 . S
H2156 C2180 0.950 . S
H2157 C2181 0.951 . S
H2158 C2183 0.951 . S
H2159 C2185 0.966 . S
H2160 C2186 0.950 . S
H2161 C2188 0.950 . S
H2162 C2191 0.950 1_655 S
H2163 C2192 0.950 . S
H2164 C2194 0.950 . S
H2165 C2195 0.950 . S
C2166 H2148 0.951 . S
C2166 C2167 1.366 . S
C2166 C2168 1.388 . S
C2167 C2166 1.366 . S
C2167 C2171 1.385 . S
C2168 H2149 0.951 . S
C2168 C2166 1.388 . S
C2168 C2169 1.366 . S
C2169 C2168 1.366 . S
C2169 C2170 1.414 . S
C2169 C2172 1.499 . S
C2170 H2150 0.966 . S
C2170 C2169 1.414 . S
C2170 C2171 1.374 . S
C2171 H2151 0.950 . S
C2171 C2167 1.385 . S
C2171 C2170 1.374 . S
C2172 C2169 1.499 . S
C2172 C2173 1.373 1_554 S
C2172 C2174 1.367 1_545 S
C2173 H2152 0.950 . S
C2173 C2172 1.373 1_556 S
C2173 C2189 1.399 1_655 S
C2174 C2172 1.367 1_565 S
C2174 C2175 1.527 . S
C2174 C2188 1.399 1_655 S
C2175 C2174 1.527 . S
C2175 C2176 1.397 1_565 S
C2175 C2180 1.363 . S
C2176 H2153 0.950 1_655 S
C2176 C2175 1.397 1_545 S
C2176 C2177 1.334 . S
C2177 H2154 0.950 . S
C2177 C2176 1.334 . S
C2177 C2178 1.287 1_545 S
C2178 C2177 1.287 1_565 S
C2178 C2179 1.524 . S
C2178 H2197 0.913 . S
C2179 H2155 0.950 . S
C2179 C2178 1.524 . S
C2179 C2180 1.415 . S
C2180 H2156 0.950 . S
C2180 C2175 1.363 . S
C2180 C2179 1.415 . S
C2181 H2157 0.951 . S
C2181 C2182 1.366 . S
C2181 C2183 1.388 . S
C2182 C2181 1.366 . S
C2182 C2186 1.385 . S
C2183 H2158 0.951 . S
C2183 C2181 1.388 . S
C2183 C2184 1.366 . S
C2184 C2183 1.366 . S
C2184 C2185 1.414 . S
C2184 C2187 1.499 . S
C2185 H2159 0.966 . S
C2185 C2184 1.414 . S
C2185 C2186 1.374 . S
C2186 H2160 0.950 . S
C2186 C2182 1.385 . S
C2186 C2185 1.374 . S
C2187 C2184 1.499 . S
C2187 C2188 1.373 1_556 S
C2187 C2189 1.366 1_565 S
C2188 H2161 0.950 . S
C2188 C2174 1.399 1_455 S
C2188 C2187 1.373 1_554 S
C2189 C2173 1.399 1_455 S
C2189 C2187 1.366 1_545 S
C2189 C2190 1.527 . S
C2190 C2189 1.527 . S
C2190 C2191 1.397 1_545 S
C2190 C2195 1.363 . S
C2191 H2162 0.950 1_455 S
C2191 C2190 1.397 1_565 S
C2191 C2192 1.334 . S
C2192 H2163 0.950 . S
C2192 C2191 1.334 . S
C2192 C2193 1.287 1_565 S
C2193 C2192 1.287 1_545 S
C2193 C2194 1.524 . S
C2193 H2196 0.999 . S
C2194 H2164 0.950 . S
C2194 C2193 1.524 . S
C2194 C2195 1.415 . S
C2195 H2165 0.950 . S
C2195 C2190 1.363 . S
C2195 C2194 1.415 . S
H2196 C2193 0.999 . S
H2197 C2178 0.913 . S
H2198 C2216 0.951 . S
H2199 C2218 0.951 . S
H2200 C2220 0.950 . S
H2201 C2221 0.950 . S
H2202 C2223 0.950 . S
H2203 C2226 0.950 . S
H2204 C2227 0.950 . S
H2205 C2229 0.950 . S
H2206 C2230 0.950 . S
H2207 C2231 0.951 . S
H2208 C2233 0.951 . S
H2209 C2235 0.950 . S
H2210 C2236 0.950 . S
H2211 C2238 0.950 . S
H2212 C2241 0.950 . S
H2213 C2242 0.950 . S
H2214 C2244 0.950 . S
H2215 C2245 0.950 . S
C2216 H2198 0.951 . S
C2216 C2217 1.366 . S
C2216 C2218 1.388 . S
C2217 C2216 1.366 . S
C2217 C2221 1.385 . S
C2218 H2199 0.951 . S
C2218 C2216 1.388 . S
C2218 C2219 1.366 . S
C2219 C2218 1.366 . S
C2219 C2220 1.414 . S
C2219 C2222 1.499 . S
C2220 H2200 0.950 . S
C2220 C2219 1.414 . S
C2220 C2221 1.374 . S
C2221 H2201 0.950 . S
C2221 C2217 1.385 . S
C2221 C2220 1.374 . S
C2222 C2219 1.499 . S
C2222 C2223 1.373 1_554 S
C2222 C2224 1.389 . S
C2223 H2202 0.950 . S
C2223 C2222 1.373 1_556 S
C2223 C2239 1.377 . S
C2224 C2222 1.389 . S
C2224 C2225 1.524 . S
C2224 C2238 1.377 . S
C2225 C2224 1.524 . S
C2225 C2226 1.397 . S
C2225 C2230 1.363 . S
C2226 H2203 0.950 . S
C2226 C2225 1.397 . S
C2226 C2227 1.334 . S
C2227 H2204 0.950 . S
C2227 C2226 1.334 . S
C2227 C2228 1.287 . S
C2228 C2227 1.287 . S
C2228 C2229 1.524 . S
C2228 H2247 0.913 . S
C2229 H2205 0.950 . S
C2229 C2228 1.524 . S
C2229 C2230 1.415 . S
C2230 H2206 0.950 . S
C2230 C2225 1.363 . S
C2230 C2229 1.415 . S
C2231 H2207 0.951 . S
C2231 C2232 1.366 . S
C2231 C2233 1.388 . S
C2232 C2231 1.366 . S
C2232 C2236 1.385 . S
C2233 H2208 0.951 . S
C2233 C2231 1.388 . S
C2233 C2234 1.366 . S
C2234 C2233 1.366 . S
C2234 C2235 1.414 . S
C2234 C2237 1.499 . S
C2235 H2209 0.950 . S
C2235 C2234 1.414 . S
C2235 C2236 1.374 . S
C2236 H2210 0.950 . S
C2236 C2232 1.385 . S
C2236 C2235 1.374 . S
C2237 C2234 1.499 . S
C2237 C2238 1.373 1_556 S
C2237 C2239 1.389 . S
C2238 H2211 0.950 . S
C2238 C2224 1.377 . S
C2238 C2237 1.373 1_554 S
C2239 C2223 1.377 . S
C2239 C2237 1.389 . S
C2239 C2240 1.524 . S
C2240 C2239 1.524 . S
C2240 C2241 1.397 . S
C2240 C2245 1.363 . S
C2241 H2212 0.950 . S
C2241 C2240 1.397 . S
C2241 C2242 1.334 . S
C2242 H2213 0.950 . S
C2242 C2241 1.334 . S
C2242 C2243 1.287 . S
C2243 C2242 1.287 . S
C2243 C2244 1.524 . S
C2243 H2246 0.999 . S
C2244 H2214 0.950 . S
C2244 C2243 1.524 . S
C2244 C2245 1.415 . S
C2245 H2215 0.950 . S
C2245 C2240 1.363 . S
C2245 C2244 1.415 . S
H2246 C2243 0.999 . S
H2247 C2228 0.913 . S
H2248 C2266 0.951 . S
H2249 C2268 0.951 . S
H2250 C2270 0.950 . S
H2251 C2271 0.950 . S
H2252 C2273 0.950 . S
H2253 C2276 0.950 . S
H2254 C2277 0.950 . S
H2255 C2279 0.950 . S
H2256 C2280 0.950 . S
H2257 C2281 0.951 . S
H2258 C2283 0.951 . S
H2259 C2285 0.950 . S
H2260 C2286 0.950 . S
H2261 C2288 0.950 . S
H2262 C2291 0.950 . S
H2263 C2292 0.950 . S
H2264 C2294 0.950 . S
H2265 C2295 0.950 . S
C2266 H2248 0.951 . S
C2266 C2267 1.366 . S
C2266 C2268 1.388 . S
C2267 C2266 1.366 . S
C2267 C2271 1.385 . S
C2268 H2249 0.951 . S
C2268 C2266 1.388 . S
C2268 C2269 1.366 . S
C2269 C2268 1.366 . S
C2269 C2270 1.414 . S
C2269 C2272 1.499 . S
C2270 H2250 0.950 . S
C2270 C2269 1.414 . S
C2270 C2271 1.374 . S
C2271 H2251 0.950 . S
C2271 C2267 1.385 . S
C2271 C2270 1.374 . S
C2272 C2269 1.499 . S
C2272 C2273 1.373 . S
C2272 C2274 1.389 1_655 S
C2273 H2252 0.950 . S
C2273 C2272 1.373 . S
C2273 C2289 1.377 . S
C2274 C2272 1.389 1_455 S
C2274 C2275 1.524 . S
C2274 C2288 1.377 . S
C2275 C2274 1.524 . S
C2275 C2276 1.397 . S
C2275 C2280 1.363 . S
C2276 H2253 0.950 . S
C2276 C2275 1.397 . S
C2276 C2277 1.334 . S
C2277 H2254 0.950 . S
C2277 C2276 1.334 . S
C2277 C2278 1.287 . S
C2278 C2277 1.287 . S
C2278 C2279 1.524 . S
C2278 H2297 0.913 . S
C2279 H2255 0.950 . S
C2279 C2278 1.524 . S
C2279 C2280 1.415 . S
C2280 H2256 0.950 . S
C2280 C2275 1.363 . S
C2280 C2279 1.415 . S
C2281 H2257 0.951 . S
C2281 C2282 1.366 . S
C2281 C2283 1.388 . S
C2282 C2281 1.366 . S
C2282 C2286 1.385 . S
C2283 H2258 0.951 . S
C2283 C2281 1.388 . S
C2283 C2284 1.366 . S
C2284 C2283 1.366 . S
C2284 C2285 1.414 . S
C2284 C2287 1.499 . S
C2285 H2259 0.950 . S
C2285 C2284 1.414 . S
C2285 C2286 1.374 . S
C2286 H2260 0.950 . S
C2286 C2282 1.385 . S
C2286 C2285 1.374 . S
C2287 C2284 1.499 . S
C2287 C2288 1.373 . S
C2287 C2289 1.389 1_455 S
C2288 H2261 0.950 . S
C2288 C2274 1.377 . S
C2288 C2287 1.373 . S
C2289 C2273 1.377 . S
C2289 C2287 1.389 1_655 S
C2289 C2290 1.524 . S
C2290 C2289 1.524 . S
C2290 C2291 1.397 . S
C2290 C2295 1.363 . S
C2291 H2262 0.950 . S
C2291 C2290 1.397 . S
C2291 C2292 1.334 . S
C2292 H2263 0.950 . S
C2292 C2291 1.334 . S
C2292 C2293 1.287 . S
C2293 C2292 1.287 . S
C2293 C2294 1.524 . S
C2293 H2296 0.999 . S
C2294 H2264 0.950 . S
C2294 C2293 1.524 . S
C2294 C2295 1.415 . S
C2295 H2265 0.950 . S
C2295 C2290 1.363 . S
C2295 C2294 1.415 . S
H2296 C2293 0.999 . S
H2297 C2278 0.913 . S
H2298 C2316 0.951 . S
H2299 C2318 0.951 . S
H2300 C2320 0.950 . S
H2301 C2321 0.950 . S
H2302 C2323 0.950 . S
H2303 C2326 0.950 . S
H2304 C2327 0.950 . S
H2305 C2329 0.950 . S
H2306 C2330 0.950 . S
H2307 C2331 0.951 . S
H2308 C2333 0.951 . S
H2309 C2335 0.950 . S
H2310 C2336 0.950 . S
H2311 C2338 0.950 . S
H2312 C2341 0.950 . S
H2313 C2342 0.950 . S
H2314 C2344 0.950 . S
H2315 C2345 0.950 . S
C2316 H2298 0.951 . S
C2316 C2317 1.366 . S
C2316 C2318 1.388 . S
C2317 C2316 1.366 . S
C2317 C2321 1.385 . S
C2318 H2299 0.951 . S
C2318 C2316 1.388 . S
C2318 C2319 1.366 . S
C2319 C2318 1.366 . S
C2319 C2320 1.414 . S
C2319 C2322 1.499 . S
C2320 H2300 0.950 . S
C2320 C2319 1.414 . S
C2320 C2321 1.374 . S
C2321 H2301 0.950 . S
C2321 C2317 1.385 . S
C2321 C2320 1.374 . S
C2322 C2319 1.499 . S
C2322 C2323 1.373 . S
C2322 C2324 1.389 . S
C2323 H2302 0.950 . S
C2323 C2322 1.373 . S
C2323 C2339 1.377 1_565 S
C2324 C2322 1.389 . S
C2324 C2325 1.524 . S
C2324 C2338 1.377 1_565 S
C2325 C2324 1.524 . S
C2325 C2326 1.397 . S
C2325 C2330 1.363 . S
C2326 H2303 0.950 . S
C2326 C2325 1.397 . S
C2326 C2327 1.334 . S
C2327 H2304 0.950 . S
C2327 C2326 1.334 . S
C2327 C2328 1.287 . S
C2328 C2327 1.287 . S
C2328 C2329 1.524 . S
C2328 H2347 0.913 . S
C2329 H2305 0.950 . S
C2329 C2328 1.524 . S
C2329 C2330 1.415 . S
C2330 H2306 0.950 . S
C2330 C2325 1.363 . S
C2330 C2329 1.415 . S
C2331 H2307 0.951 . S
C2331 C2332 1.366 . S
C2331 C2333 1.388 . S
C2332 C2331 1.366 . S
C2332 C2336 1.385 . S
C2333 H2308 0.951 . S
C2333 C2331 1.388 . S
C2333 C2334 1.366 . S
C2334 C2333 1.366 . S
C2334 C2335 1.414 . S
C2334 C2337 1.499 . S
C2335 H2309 0.950 . S
C2335 C2334 1.414 . S
C2335 C2336 1.374 . S
C2336 H2310 0.950 . S
C2336 C2332 1.385 . S
C2336 C2335 1.374 . S
C2337 C2334 1.499 . S
C2337 C2338 1.373 . S
C2337 C2339 1.389 . S
C2338 H2311 0.950 . S
C2338 C2324 1.377 1_545 S
C2338 C2337 1.373 . S
C2339 C2323 1.377 1_545 S
C2339 C2337 1.389 . S
C2339 C2340 1.524 . S
C2340 C2339 1.524 . S
C2340 C2341 1.397 . S
C2340 C2345 1.363 . S
C2341 H2312 0.950 . S
C2341 C2340 1.397 . S
C2341 C2342 1.334 . S
C2342 H2313 0.950 . S
C2342 C2341 1.334 . S
C2342 C2343 1.287 . S
C2343 C2342 1.287 . S
C2343 C2344 1.524 . S
C2343 H2346 0.999 . S
C2344 H2314 0.950 . S
C2344 C2343 1.524 . S
C2344 C2345 1.415 . S
C2345 H2315 0.950 . S
C2345 C2340 1.363 . S
C2345 C2344 1.415 . S
H2346 C2343 0.999 . S
H2347 C2328 0.913 . S
H2348 C2366 0.951 . S
H2349 C2368 0.951 . S
H2350 C2370 0.950 1_554 S
H2351 C2371 0.950 . S
H2352 C2373 0.950 . S
H2353 C2376 0.950 . S
H2354 C2377 0.950 . S
H2355 C2379 0.950 . S
H2356 C2380 0.950 . S
H2357 C2381 0.951 . S
H2358 C2383 0.951 . S
H2359 C2385 0.950 1_556 S
H2360 C2386 0.950 . S
H2361 C2388 0.950 . S
H2362 C2391 0.950 . S
H2363 C2392 0.950 . S
H2364 C2394 0.950 . S
H2365 C2395 0.950 . S
C2366 H2348 0.951 . S
C2366 C2367 1.366 . S
C2366 C2368 1.388 . S
C2367 C2366 1.366 . S
C2367 C2371 1.385 . S
C2368 H2349 0.951 . S
C2368 C2366 1.388 . S
C2368 C2369 1.366 . S
C2369 C2368 1.366 . S
C2369 C2370 1.414 . S
C2369 C2372 1.499 . S
C2370 H2350 0.950 1_556 S
C2370 C2369 1.414 . S
C2370 C2371 1.374 . S
C2371 H2351 0.950 . S
C2371 C2367 1.385 . S
C2371 C2370 1.374 . S
C2372 C2369 1.499 . S
C2372 C2373 1.373 1_556 S
C2372 C2374 1.389 . S
C2373 H2352 0.950 . S
C2373 C2372 1.373 1_554 S
C2373 C2389 1.377 . S
C2374 C2372 1.389 . S
C2374 C2375 1.524 . S
C2374 C2388 1.377 . S
C2375 C2374 1.524 . S
C2375 C2376 1.397 . S
C2375 C2380 1.363 . S
C2376 H2353 0.950 . S
C2376 C2375 1.397 . S
C2376 C2377 1.334 . S
C2377 H2354 0.950 . S
C2377 C2376 1.334 . S
C2377 C2378 1.287 . S
C2378 C2377 1.287 . S
C2378 C2379 1.524 . S
C2378 H2397 0.913 . S
C2379 H2355 0.950 . S
C2379 C2378 1.524 . S
C2379 C2380 1.415 . S
C2380 H2356 0.950 . S
C2380 C2375 1.363 . S
C2380 C2379 1.415 . S
C2381 H2357 0.951 . S
C2381 C2382 1.366 . S
C2381 C2383 1.388 . S
C2382 C2381 1.366 . S
C2382 C2386 1.385 . S
C2383 H2358 0.951 . S
C2383 C2381 1.388 . S
C2383 C2384 1.366 . S
C2384 C2383 1.366 . S
C2384 C2385 1.414 . S
C2384 C2387 1.499 . S
C2385 H2359 0.950 1_554 S
C2385 C2384 1.414 . S
C2385 C2386 1.374 . S
C2386 H2360 0.950 . S
C2386 C2382 1.385 . S
C2386 C2385 1.374 . S
C2387 C2384 1.499 . S
C2387 C2388 1.373 1_554 S
C2387 C2389 1.389 . S
C2388 H2361 0.950 . S
C2388 C2374 1.377 . S
C2388 C2387 1.373 1_556 S
C2389 C2373 1.377 . S
C2389 C2387 1.389 . S
C2389 C2390 1.524 . S
C2390 C2389 1.524 . S
C2390 C2391 1.397 . S
C2390 C2395 1.363 . S
C2391 H2362 0.950 . S
C2391 C2390 1.397 . S
C2391 C2392 1.334 . S
C2392 H2363 0.950 . S
C2392 C2391 1.334 . S
C2392 C2393 1.287 . S
C2393 C2392 1.287 . S
C2393 C2394 1.524 . S
C2393 H2396 0.999 . S
C2394 H2364 0.950 . S
C2394 C2393 1.524 . S
C2394 C2395 1.415 . S
C2395 H2365 0.950 . S
C2395 C2390 1.363 . S
C2395 C2394 1.415 . S
H2396 C2393 0.999 . S
H2397 C2378 0.913 . S
H2398 C2416 0.951 . S
H2399 C2418 0.951 . S
H2400 C2420 0.950 . S
H2401 C2421 0.950 . S
H2402 C2423 0.950 . S
H2403 C2426 0.950 . S
H2404 C2427 0.950 . S
H2405 C2429 0.950 . S
H2406 C2430 0.950 . S
H2407 C2431 0.951 . S
H2408 C2433 0.951 . S
H2409 C2435 0.950 . S
H2410 C2436 0.950 . S
H2411 C2438 0.950 . S
H2412 C2441 0.950 . S
H2413 C2442 0.950 . S
H2414 C2444 0.950 . S
H2415 C2445 0.950 . S
C2416 H2398 0.951 . S
C2416 C2417 1.366 . S
C2416 C2418 1.388 . S
C2417 C2416 1.366 . S
C2417 C2421 1.385 . S
C2418 H2399 0.951 . S
C2418 C2416 1.388 . S
C2418 C2419 1.366 . S
C2419 C2418 1.366 . S
C2419 C2420 1.414 . S
C2419 C2422 1.499 . S
C2420 H2400 0.950 . S
C2420 C2419 1.414 . S
C2420 C2421 1.374 . S
C2421 H2401 0.950 . S
C2421 C2417 1.385 . S
C2421 C2420 1.374 . S
C2422 C2419 1.499 . S
C2422 C2423 1.373 . S
C2422 C2424 1.389 . S
C2423 H2402 0.950 . S
C2423 C2422 1.373 . S
C2423 C2439 1.377 . S
C2424 C2422 1.389 . S
C2424 C2425 1.524 . S
C2424 C2438 1.377 . S
C2425 C2424 1.524 . S
C2425 C2426 1.397 . S
C2425 C2430 1.363 . S
C2426 H2403 0.950 . S
C2426 C2425 1.397 . S
C2426 C2427 1.334 . S
C2427 H2404 0.950 . S
C2427 C2426 1.334 . S
C2427 C2428 1.287 . S
C2428 C2427 1.287 . S
C2428 C2429 1.524 . S
C2428 H2447 0.913 . S
C2429 H2405 0.950 . S
C2429 C2428 1.524 . S
C2429 C2430 1.415 . S
C2430 H2406 0.950 . S
C2430 C2425 1.363 . S
C2430 C2429 1.415 . S
C2431 H2407 0.951 . S
C2431 C2432 1.366 . S
C2431 C2433 1.388 . S
C2432 C2431 1.366 . S
C2432 C2436 1.385 . S
C2433 H2408 0.951 . S
C2433 C2431 1.388 . S
C2433 C2434 1.366 . S
C2434 C2433 1.366 . S
C2434 C2435 1.414 . S
C2434 C2437 1.499 . S
C2435 H2409 0.950 . S
C2435 C2434 1.414 . S
C2435 C2436 1.374 . S
C2436 H2410 0.950 . S
C2436 C2432 1.385 . S
C2436 C2435 1.374 . S
C2437 C2434 1.499 . S
C2437 C2438 1.373 . S
C2437 C2439 1.389 . S
C2438 H2411 0.950 . S
C2438 C2424 1.377 . S
C2438 C2437 1.373 . S
C2439 C2423 1.377 . S
C2439 C2437 1.389 . S
C2439 C2440 1.524 . S
C2440 C2439 1.524 . S
C2440 C2441 1.397 . S
C2440 C2445 1.363 . S
C2441 H2412 0.950 . S
C2441 C2440 1.397 . S
C2441 C2442 1.334 . S
C2442 H2413 0.950 . S
C2442 C2441 1.334 . S
C2442 C2443 1.287 . S
C2443 C2442 1.287 . S
C2443 C2444 1.524 . S
C2443 H2446 0.999 . S
C2444 H2414 0.950 . S
C2444 C2443 1.524 . S
C2444 C2445 1.415 . S
C2445 H2415 0.950 . S
C2445 C2440 1.363 . S
C2445 C2444 1.415 . S
H2446 C2443 0.999 . S
H2447 C2428 0.913 . S
H2448 C2466 0.951 . S
H2449 C2468 0.938 1_655 S
H2450 C2470 0.950 . S
H2451 C2471 0.950 . S
H2452 C2473 0.950 . S
H2453 C2476 0.950 1_455 S
H2454 C2477 0.950 . S
H2455 C2479 0.950 . S
H2456 C2480 0.950 . S
H2457 C2481 0.951 . S
H2458 C2483 0.938 1_455 S
H2459 C2485 0.950 . S
H2460 C2486 0.950 . S
H2461 C2488 0.950 . S
H2462 C2491 0.950 1_655 S
H2463 C2492 0.950 . S
H2464 C2494 0.950 . S
H2465 C2495 0.950 . S
C2466 H2448 0.951 . S
C2466 C2467 1.366 . S
C2466 C2468 1.388 . S
C2467 C2466 1.366 . S
C2467 C2471 1.385 . S
C2468 H2449 0.938 1_455 S
C2468 C2466 1.388 . S
C2468 C2469 1.366 . S
C2469 C2468 1.366 . S
C2469 C2470 1.414 . S
C2469 C2472 1.499 . S
C2470 H2450 0.950 . S
C2470 C2469 1.414 . S
C2470 C2471 1.374 . S
C2471 H2451 0.950 . S
C2471 C2467 1.385 . S
C2471 C2470 1.374 . S
C2472 C2469 1.499 . S
C2472 C2473 1.373 . S
C2472 C2474 1.389 1_455 S
C2473 H2452 0.950 . S
C2473 C2472 1.373 . S
C2473 C2489 1.377 . S
C2474 C2472 1.389 1_655 S
C2474 C2475 1.524 . S
C2474 C2488 1.377 . S
C2475 C2474 1.524 . S
C2475 C2476 1.397 . S
C2475 C2480 1.363 . S
C2476 H2453 0.950 1_655 S
C2476 C2475 1.397 . S
C2476 C2477 1.334 . S
C2477 H2454 0.950 . S
C2477 C2476 1.334 . S
C2477 C2478 1.287 . S
C2478 C2477 1.287 . S
C2478 C2479 1.524 . S
C2478 H2497 0.913 . S
C2479 H2455 0.950 . S
C2479 C2478 1.524 . S
C2479 C2480 1.415 . S
C2480 H2456 0.950 . S
C2480 C2475 1.363 . S
C2480 C2479 1.415 . S
C2481 H2457 0.951 . S
C2481 C2482 1.366 . S
C2481 C2483 1.388 . S
C2482 C2481 1.366 . S
C2482 C2486 1.385 . S
C2483 H2458 0.938 1_655 S
C2483 C2481 1.388 . S
C2483 C2484 1.366 . S
C2484 C2483 1.366 . S
C2484 C2485 1.414 . S
C2484 C2487 1.499 . S
C2485 H2459 0.950 . S
C2485 C2484 1.414 . S
C2485 C2486 1.374 . S
C2486 H2460 0.950 . S
C2486 C2482 1.385 . S
C2486 C2485 1.374 . S
C2487 C2484 1.499 . S
C2487 C2488 1.373 . S
C2487 C2489 1.389 1_655 S
C2488 H2461 0.950 . S
C2488 C2474 1.377 . S
C2488 C2487 1.373 . S
C2489 C2473 1.377 . S
C2489 C2487 1.389 1_455 S
C2489 C2490 1.524 . S
C2490 C2489 1.524 . S
C2490 C2491 1.397 . S
C2490 C2495 1.363 . S
C2491 H2462 0.950 1_455 S
C2491 C2490 1.397 . S
C2491 C2492 1.334 . S
C2492 H2463 0.950 . S
C2492 C2491 1.334 . S
C2492 C2493 1.287 . S
C2493 C2492 1.287 . S
C2493 C2494 1.524 . S
C2493 H2496 0.999 . S
C2494 H2464 0.950 . S
C2494 C2493 1.524 . S
C2494 C2495 1.415 . S
C2495 H2465 0.950 . S
C2495 C2490 1.363 . S
C2495 C2494 1.415 . S
H2496 C2493 0.999 . S
H2497 C2478 0.913 . S
H2498 C2516 0.951 . S
H2499 C2518 0.951 . S
H2500 C2520 0.950 . S
H2501 C2521 0.950 . S
H2502 C2523 0.950 . S
H2503 C2526 0.950 . S
H2504 C2527 0.950 . S
H2505 C2529 0.950 . S
H2506 C2530 0.950 . S
H2507 C2531 0.951 . S
H2508 C2533 0.951 . S
H2509 C2535 0.950 . S
H2510 C2536 0.950 . S
H2511 C2538 0.950 . S
H2512 C2541 0.950 . S
H2513 C2542 0.950 . S
H2514 C2544 0.950 . S
H2515 C2545 0.950 . S
C2516 H2498 0.951 . S
C2516 C2517 1.366 . S
C2516 C2518 1.388 . S
C2517 C2516 1.366 . S
C2517 C2521 1.385 . S
C2518 H2499 0.951 . S
C2518 C2516 1.388 . S
C2518 C2519 1.366 . S
C2519 C2518 1.366 . S
C2519 C2520 1.414 . S
C2519 C2522 1.499 . S
C2520 H2500 0.950 . S
C2520 C2519 1.414 . S
C2520 C2521 1.374 . S
C2521 H2501 0.950 . S
C2521 C2517 1.385 . S
C2521 C2520 1.374 . S
C2522 C2519 1.499 . S
C2522 C2523 1.373 . S
C2522 C2524 1.389 . S
C2523 H2502 0.950 . S
C2523 C2522 1.373 . S
C2523 C2539 1.377 . S
C2524 C2522 1.389 . S
C2524 C2525 1.524 . S
C2524 C2538 1.377 . S
C2525 C2524 1.524 . S
C2525 C2526 1.397 . S
C2525 C2530 1.363 . S
C2526 H2503 0.950 . S
C2526 C2525 1.397 . S
C2526 C2527 1.334 . S
C2527 H2504 0.950 . S
C2527 C2526 1.334 . S
C2527 C2528 1.287 . S
C2528 C2527 1.287 . S
C2528 C2529 1.524 . S
C2528 H2547 0.913 . S
C2529 H2505 0.950 . S
C2529 C2528 1.524 . S
C2529 C2530 1.415 . S
C2530 H2506 0.950 . S
C2530 C2525 1.363 . S
C2530 C2529 1.415 . S
C2531 H2507 0.951 . S
C2531 C2532 1.366 . S
C2531 C2533 1.388 . S
C2532 C2531 1.366 . S
C2532 C2536 1.385 . S
C2533 H2508 0.951 . S
C2533 C2531 1.388 . S
C2533 C2534 1.366 . S
C2534 C2533 1.366 . S
C2534 C2535 1.414 . S
C2534 C2537 1.499 . S
C2535 H2509 0.950 . S
C2535 C2534 1.414 . S
C2535 C2536 1.374 . S
C2536 H2510 0.950 . S
C2536 C2532 1.385 . S
C2536 C2535 1.374 . S
C2537 C2534 1.499 . S
C2537 C2538 1.373 . S
C2537 C2539 1.389 . S
C2538 H2511 0.950 . S
C2538 C2524 1.377 . S
C2538 C2537 1.373 . S
C2539 C2523 1.377 . S
C2539 C2537 1.389 . S
C2539 C2540 1.524 . S
C2540 C2539 1.524 . S
C2540 C2541 1.397 . S
C2540 C2545 1.363 . S
C2541 H2512 0.950 . S
C2541 C2540 1.397 . S
C2541 C2542 1.334 . S
C2542 H2513 0.950 . S
C2542 C2541 1.334 . S
C2542 C2543 1.287 . S
C2543 C2542 1.287 . S
C2543 C2544 1.524 . S
C2543 H2546 0.999 . S
C2544 H2514 0.950 . S
C2544 C2543 1.524 . S
C2544 C2545 1.415 . S
C2545 H2515 0.950 . S
C2545 C2540 1.363 . S
C2545 C2544 1.415 . S
H2546 C2543 0.999 . S
H2547 C2528 0.913 . S
H2548 C2566 0.951 . S
H2549 C2568 0.951 . S
H2550 C2570 0.950 . S
H2551 C2571 0.950 . S
H2552 C2573 0.950 . S
H2553 C2576 0.950 . S
H2554 C2577 0.950 . S
H2555 C2579 0.950 . S
H2556 C2580 0.950 . S
H2557 C2581 0.951 . S
H2558 C2583 0.951 . S
H2559 C2585 0.950 . S
H2560 C2586 0.950 . S
H2561 C2588 0.950 . S
H2562 C2591 0.950 . S
H2563 C2592 0.950 . S
H2564 C2594 0.950 . S
H2565 C2595 0.950 . S
C2566 H2548 0.951 . S
C2566 C2567 1.366 . S
C2566 C2568 1.388 . S
C2567 C2566 1.366 . S
C2567 C2571 1.385 . S
C2568 H2549 0.951 . S
C2568 C2566 1.388 . S
C2568 C2569 1.366 . S
C2569 C2568 1.366 . S
C2569 C2570 1.414 . S
C2569 C2572 1.499 . S
C2570 H2550 0.950 . S
C2570 C2569 1.414 . S
C2570 C2571 1.374 . S
C2571 H2551 0.950 . S
C2571 C2567 1.385 . S
C2571 C2570 1.374 . S
C2572 C2569 1.499 . S
C2572 C2573 1.373 . S
C2572 C2574 1.389 . S
C2573 H2552 0.950 . S
C2573 C2572 1.373 . S
C2573 C2589 1.377 . S
C2574 C2572 1.389 . S
C2574 C2575 1.524 . S
C2574 C2588 1.377 . S
C2575 C2574 1.524 . S
C2575 C2576 1.397 . S
C2575 C2580 1.363 . S
C2576 H2553 0.950 . S
C2576 C2575 1.397 . S
C2576 C2577 1.334 . S
C2577 H2554 0.950 . S
C2577 C2576 1.334 . S
C2577 C2578 1.287 . S
C2578 C2577 1.287 . S
C2578 C2579 1.524 . S
C2578 H2597 0.913 . S
C2579 H2555 0.950 . S
C2579 C2578 1.524 . S
C2579 C2580 1.415 . S
C2580 H2556 0.950 . S
C2580 C2575 1.363 . S
C2580 C2579 1.415 . S
C2581 H2557 0.951 . S
C2581 C2582 1.366 . S
C2581 C2583 1.388 . S
C2582 C2581 1.366 . S
C2582 C2586 1.385 . S
C2583 H2558 0.951 . S
C2583 C2581 1.388 . S
C2583 C2584 1.366 . S
C2584 C2583 1.366 . S
C2584 C2585 1.414 . S
C2584 C2587 1.499 . S
C2585 H2559 0.950 . S
C2585 C2584 1.414 . S
C2585 C2586 1.374 . S
C2586 H2560 0.950 . S
C2586 C2582 1.385 . S
C2586 C2585 1.374 . S
C2587 C2584 1.499 . S
C2587 C2588 1.373 . S
C2587 C2589 1.389 . S
C2588 H2561 0.950 . S
C2588 C2574 1.377 . S
C2588 C2587 1.373 . S
C2589 C2573 1.377 . S
C2589 C2587 1.389 . S
C2589 C2590 1.524 . S
C2590 C2589 1.524 . S
C2590 C2591 1.397 . S
C2590 C2595 1.363 . S
C2591 H2562 0.950 . S
C2591 C2590 1.397 . S
C2591 C2592 1.334 . S
C2592 H2563 0.950 . S
C2592 C2591 1.334 . S
C2592 C2593 1.287 . S
C2593 C2592 1.287 . S
C2593 C2594 1.524 . S
C2593 H2596 0.999 . S
C2594 H2564 0.950 . S
C2594 C2593 1.524 . S
C2594 C2595 1.415 . S
C2595 H2565 0.950 . S
C2595 C2590 1.363 . S
C2595 C2594 1.415 . S
H2596 C2593 0.999 . S
H2597 C2578 0.913 . S
H2598 C2616 0.951 . S
H2599 C2618 0.951 . S
H2600 C2620 0.950 . S
H2601 C2621 0.950 . S
H2602 C2623 0.950 . S
H2603 C2626 0.950 . S
H2604 C2627 0.950 . S
H2605 C2629 0.950 . S
H2606 C2630 0.950 . S
H2607 C2631 0.951 . S
H2608 C2633 0.951 . S
H2609 C2635 0.950 . S
H2610 C2636 0.950 . S
H2611 C2638 0.950 . S
H2612 C2641 0.950 . S
H2613 C2642 0.950 . S
H2614 C2644 0.950 . S
H2615 C2645 0.950 . S
C2616 H2598 0.951 . S
C2616 C2617 1.366 . S
C2616 C2618 1.388 . S
C2617 C2616 1.366 . S
C2617 C2621 1.385 . S
C2618 H2599 0.951 . S
C2618 C2616 1.388 . S
C2618 C2619 1.366 . S
C2619 C2618 1.366 . S
C2619 C2620 1.414 . S
C2619 C2622 1.499 . S
C2620 H2600 0.950 . S
C2620 C2619 1.414 . S
C2620 C2621 1.374 . S
C2621 H2601 0.950 . S
C2621 C2617 1.385 . S
C2621 C2620 1.374 . S
C2622 C2619 1.499 . S
C2622 C2623 1.373 . S
C2622 C2624 1.389 . S
C2623 H2602 0.950 . S
C2623 C2622 1.373 . S
C2623 C2639 1.377 . S
C2624 C2622 1.389 . S
C2624 C2625 1.524 . S
C2624 C2638 1.377 . S
C2625 C2624 1.524 . S
C2625 C2626 1.397 . S
C2625 C2630 1.363 . S
C2626 H2603 0.950 . S
C2626 C2625 1.397 . S
C2626 C2627 1.334 . S
C2627 H2604 0.950 . S
C2627 C2626 1.334 . S
C2627 C2628 1.287 . S
C2628 C2627 1.287 . S
C2628 C2629 1.524 . S
C2628 H2647 0.913 . S
C2629 H2605 0.950 . S
C2629 C2628 1.524 . S
C2629 C2630 1.415 . S
C2630 H2606 0.950 . S
C2630 C2625 1.363 . S
C2630 C2629 1.415 . S
C2631 H2607 0.951 . S
C2631 C2632 1.366 . S
C2631 C2633 1.388 . S
C2632 C2631 1.366 . S
C2632 C2636 1.385 . S
C2633 H2608 0.951 . S
C2633 C2631 1.388 . S
C2633 C2634 1.366 . S
C2634 C2633 1.366 . S
C2634 C2635 1.414 . S
C2634 C2637 1.499 . S
C2635 H2609 0.950 . S
C2635 C2634 1.414 . S
C2635 C2636 1.374 . S
C2636 H2610 0.950 . S
C2636 C2632 1.385 . S
C2636 C2635 1.374 . S
C2637 C2634 1.499 . S
C2637 C2638 1.373 . S
C2637 C2639 1.389 . S
C2638 H2611 0.950 . S
C2638 C2624 1.377 . S
C2638 C2637 1.373 . S
C2639 C2623 1.377 . S
C2639 C2637 1.389 . S
C2639 C2640 1.524 . S
C2640 C2639 1.524 . S
C2640 C2641 1.397 . S
C2640 C2645 1.363 . S
C2641 H2612 0.950 . S
C2641 C2640 1.397 . S
C2641 C2642 1.334 . S
C2642 H2613 0.950 . S
C2642 C2641 1.334 . S
C2642 C2643 1.287 . S
C2643 C2642 1.287 . S
C2643 C2644 1.524 . S
C2643 H2646 0.999 . S
C2644 H2614 0.950 . S
C2644 C2643 1.524 . S
C2644 C2645 1.415 . S
C2645 H2615 0.950 . S
C2645 C2640 1.363 . S
C2645 C2644 1.415 . S
H2646 C2643 0.999 . S
H2647 C2628 0.913 . S
H2648 C2666 0.951 . S
H2649 C2668 0.951 . S
H2650 C2670 0.950 . S
H2651 C2671 0.950 . S
H2652 C2673 0.950 . S
H2653 C2676 0.950 . S
H2654 C2677 0.950 . S
H2655 C2679 0.950 . S
H2656 C2680 0.950 . S
H2657 C2681 0.951 . S
H2658 C2683 0.951 . S
H2659 C2685 0.950 . S
H2660 C2686 0.950 . S
H2661 C2688 0.950 . S
H2662 C2691 0.950 . S
H2663 C2692 0.950 . S
H2664 C2694 0.950 . S
H2665 C2695 0.950 . S
C2666 H2648 0.951 . S
C2666 C2667 1.366 . S
C2666 C2668 1.388 . S
C2667 C2666 1.366 . S
C2667 C2671 1.385 . S
C2668 H2649 0.951 . S
C2668 C2666 1.388 . S
C2668 C2669 1.366 . S
C2669 C2668 1.366 . S
C2669 C2670 1.414 . S
C2669 C2672 1.499 . S
C2670 H2650 0.950 . S
C2670 C2669 1.414 . S
C2670 C2671 1.374 . S
C2671 H2651 0.950 . S
C2671 C2667 1.385 . S
C2671 C2670 1.374 . S
C2672 C2669 1.499 . S
C2672 C2673 1.373 . S
C2672 C2674 1.389 . S
C2673 H2652 0.950 . S
C2673 C2672 1.373 . S
C2673 C2689 1.377 . S
C2674 C2672 1.389 . S
C2674 C2675 1.524 . S
C2674 C2688 1.377 . S
C2675 C2674 1.524 . S
C2675 C2676 1.397 . S
C2675 C2680 1.363 . S
C2676 H2653 0.950 . S
C2676 C2675 1.397 . S
C2676 C2677 1.334 . S
C2677 H2654 0.950 . S
C2677 C2676 1.334 . S
C2677 C2678 1.287 . S
C2678 C2677 1.287 . S
C2678 C2679 1.524 . S
C2678 H2697 0.913 . S
C2679 H2655 0.950 . S
C2679 C2678 1.524 . S
C2679 C2680 1.415 . S
C2680 H2656 0.950 . S
C2680 C2675 1.363 . S
C2680 C2679 1.415 . S
C2681 H2657 0.951 . S
C2681 C2682 1.366 . S
C2681 C2683 1.388 . S
C2682 C2681 1.366 . S
C2682 C2686 1.385 . S
C2683 H2658 0.951 . S
C2683 C2681 1.388 . S
C2683 C2684 1.366 . S
C2684 C2683 1.366 . S
C2684 C2685 1.414 . S
C2684 C2687 1.499 . S
C2685 H2659 0.950 . S
C2685 C2684 1.414 . S
C2685 C2686 1.374 . S
C2686 H2660 0.950 . S
C2686 C2682 1.385 . S
C2686 C2685 1.374 . S
C2687 C2684 1.499 . S
C2687 C2688 1.373 . S
C2687 C2689 1.389 . S
C2688 H2661 0.950 . S
C2688 C2674 1.377 . S
C2688 C2687 1.373 . S
C2689 C2673 1.377 . S
C2689 C2687 1.389 . S
C2689 C2690 1.524 . S
C2690 C2689 1.524 . S
C2690 C2691 1.397 . S
C2690 C2695 1.363 . S
C2691 H2662 0.950 . S
C2691 C2690 1.397 . S
C2691 C2692 1.334 . S
C2692 H2663 0.950 . S
C2692 C2691 1.334 . S
C2692 C2693 1.287 . S
C2693 C2692 1.287 . S
C2693 C2694 1.524 . S
C2693 H2696 0.999 . S
C2694 H2664 0.950 . S
C2694 C2693 1.524 . S
C2694 C2695 1.415 . S
C2695 H2665 0.950 . S
C2695 C2690 1.363 . S
C2695 C2694 1.415 . S
H2696 C2693 0.999 . S
H2697 C2678 0.913 . S
H2698 C2716 0.951 . S
H2699 C2718 0.951 . S
H2700 C2720 0.950 . S
H2701 C2721 0.950 . S
H2702 C2723 0.950 . S
H2703 C2726 0.950 . S
H2704 C2727 0.952 . S
H2705 C2729 0.950 . S
H2706 C2730 0.950 . S
H2707 C2731 0.951 . S
H2708 C2733 0.951 . S
H2709 C2735 0.950 . S
H2710 C2736 0.950 . S
H2711 C2738 0.950 . S
H2712 C2741 0.950 . S
H2713 C2742 0.952 . S
H2714 C2744 0.950 . S
H2715 C2745 0.950 . S
C2716 H2698 0.951 . S
C2716 C2717 1.366 . S
C2716 C2718 1.388 . S
C2717 C2716 1.366 . S
C2717 C2721 1.385 . S
C2718 H2699 0.951 . S
C2718 C2716 1.388 . S
C2718 C2719 1.366 . S
C2719 C2718 1.366 . S
C2719 C2720 1.414 . S
C2719 C2722 1.499 . S
C2720 H2700 0.950 . S
C2720 C2719 1.414 . S
C2720 C2721 1.374 . S
C2721 H2701 0.950 . S
C2721 C2717 1.385 . S
C2721 C2720 1.374 . S
C2722 C2719 1.499 . S
C2722 C2723 1.373 . S
C2722 C2724 1.389 1_545 S
C2723 H2702 0.950 . S
C2723 C2722 1.373 . S
C2723 C2739 1.377 . S
C2724 C2722 1.389 1_565 S
C2724 C2725 1.524 . S
C2724 C2738 1.377 . S
C2725 C2724 1.524 . S
C2725 C2726 1.397 1_565 S
C2725 C2730 1.363 . S
C2726 H2703 0.950 . S
C2726 C2725 1.397 1_545 S
C2726 C2727 1.335 . S
C2727 H2704 0.952 . S
C2727 C2726 1.335 . S
C2727 C2728 1.284 1_545 S
C2728 C2727 1.284 1_565 S
C2728 C2729 1.524 . S
C2728 H2747 0.913 . S
C2729 H2705 0.950 . S
C2729 C2728 1.524 . S
C2729 C2730 1.415 . S
C2730 H2706 0.950 . S
C2730 C2725 1.363 . S
C2730 C2729 1.415 . S
C2731 H2707 0.951 . S
C2731 C2732 1.366 . S
C2731 C2733 1.388 . S
C2732 C2731 1.366 . S
C2732 C2736 1.385 . S
C2733 H2708 0.951 . S
C2733 C2731 1.388 . S
C2733 C2734 1.366 . S
C2734 C2733 1.366 . S
C2734 C2735 1.414 . S
C2734 C2737 1.499 . S
C2735 H2709 0.950 . S
C2735 C2734 1.414 . S
C2735 C2736 1.374 . S
C2736 H2710 0.950 . S
C2736 C2732 1.385 . S
C2736 C2735 1.374 . S
C2737 C2734 1.499 . S
C2737 C2738 1.373 . S
C2737 C2739 1.389 1_565 S
C2738 H2711 0.950 . S
C2738 C2724 1.377 . S
C2738 C2737 1.373 . S
C2739 C2723 1.377 . S
C2739 C2737 1.389 1_545 S
C2739 C2740 1.524 . S
C2740 C2739 1.524 . S
C2740 C2741 1.397 1_545 S
C2740 C2745 1.363 . S
C2741 H2712 0.950 . S
C2741 C2740 1.397 1_565 S
C2741 C2742 1.335 . S
C2742 H2713 0.952 . S
C2742 C2741 1.335 . S
C2742 C2743 1.285 1_565 S
C2743 C2742 1.285 1_545 S
C2743 C2744 1.524 . S
C2743 H2746 0.999 . S
C2744 H2714 0.950 . S
C2744 C2743 1.524 . S
C2744 C2745 1.415 . S
C2745 H2715 0.950 . S
C2745 C2740 1.363 . S
C2745 C2744 1.415 . S
H2746 C2743 0.999 . S
H2747 C2728 0.913 . S
H2748 C2766 0.951 . S
H2749 C2768 0.951 . S
H2750 C2770 0.950 . S
H2751 C2771 0.950 . S
H2752 C2773 0.950 . S
H2753 C2776 0.950 . S
H2754 C2777 0.950 . S
H2755 C2779 0.950 . S
H2756 C2780 0.950 . S
H2757 C2781 0.951 . S
H2758 C2783 0.951 . S
H2759 C2785 0.950 . S
H2760 C2786 0.950 . S
H2761 C2788 0.950 . S
H2762 C2791 0.950 . S
H2763 C2792 0.950 . S
H2764 C2794 0.950 . S
H2765 C2795 0.950 . S
C2766 H2748 0.951 . S
C2766 C2767 1.366 . S
C2766 C2768 1.388 . S
C2767 C2766 1.366 . S
C2767 C2771 1.385 . S
C2768 H2749 0.951 . S
C2768 C2766 1.388 . S
C2768 C2769 1.366 . S
C2769 C2768 1.366 . S
C2769 C2770 1.414 . S
C2769 C2772 1.499 . S
C2770 H2750 0.950 . S
C2770 C2769 1.414 . S
C2770 C2771 1.374 . S
C2771 H2751 0.950 . S
C2771 C2767 1.385 . S
C2771 C2770 1.374 . S
C2772 C2769 1.499 . S
C2772 C2773 1.373 . S
C2772 C2774 1.389 . S
C2773 H2752 0.950 . S
C2773 C2772 1.373 . S
C2773 C2789 1.377 . S
C2774 C2772 1.389 . S
C2774 C2775 1.524 . S
C2774 C2788 1.377 . S
C2775 C2774 1.524 . S
C2775 C2776 1.397 . S
C2775 C2780 1.363 . S
C2776 H2753 0.950 . S
C2776 C2775 1.397 . S
C2776 C2777 1.334 . S
C2777 H2754 0.950 . S
C2777 C2776 1.334 . S
C2777 C2778 1.287 . S
C2778 C2777 1.287 . S
C2778 C2779 1.524 . S
C2778 H2797 0.913 . S
C2779 H2755 0.950 . S
C2779 C2778 1.524 . S
C2779 C2780 1.415 . S
C2780 H2756 0.950 . S
C2780 C2775 1.363 . S
C2780 C2779 1.415 . S
C2781 H2757 0.951 . S
C2781 C2782 1.366 . S
C2781 C2783 1.388 . S
C2782 C2781 1.366 . S
C2782 C2786 1.385 . S
C2783 H2758 0.951 . S
C2783 C2781 1.388 . S
C2783 C2784 1.366 . S
C2784 C2783 1.366 . S
C2784 C2785 1.414 . S
C2784 C2787 1.499 . S
C2785 H2759 0.950 . S
C2785 C2784 1.414 . S
C2785 C2786 1.374 . S
C2786 H2760 0.950 . S
C2786 C2782 1.385 . S
C2786 C2785 1.374 . S
C2787 C2784 1.499 . S
C2787 C2788 1.373 . S
C2787 C2789 1.389 . S
C2788 H2761 0.950 . S
C2788 C2774 1.377 . S
C2788 C2787 1.373 . S
C2789 C2773 1.377 . S
C2789 C2787 1.389 . S
C2789 C2790 1.524 . S
C2790 C2789 1.524 . S
C2790 C2791 1.397 . S
C2790 C2795 1.363 . S
C2791 H2762 0.950 . S
C2791 C2790 1.397 . S
C2791 C2792 1.334 . S
C2792 H2763 0.950 . S
C2792 C2791 1.334 . S
C2792 C2793 1.287 . S
C2793 C2792 1.287 . S
C2793 C2794 1.524 . S
C2793 H2796 0.999 . S
C2794 H2764 0.950 . S
C2794 C2793 1.524 . S
C2794 C2795 1.415 . S
C2795 H2765 0.950 . S
C2795 C2790 1.363 . S
C2795 C2794 1.415 . S
H2796 C2793 0.999 . S
H2797 C2778 0.913 . S
H2798 C2816 0.951 . S
H2799 C2818 0.951 . S
H2800 C2820 0.950 . S
H2801 C2821 0.950 . S
H2802 C2823 0.950 . S
H2803 C2826 0.950 . S
H2804 C2827 0.950 . S
H2805 C2829 0.955 . S
H2806 C2830 0.953 1_556 S
H2807 C2831 0.951 . S
H2808 C2833 0.951 . S
H2809 C2835 0.950 . S
H2810 C2836 0.950 . S
H2811 C2838 0.950 . S
H2812 C2841 0.950 . S
H2813 C2842 0.950 . S
H2814 C2844 0.955 . S
H2815 C2845 0.953 1_554 S
C2816 H2798 0.951 . S
C2816 C2817 1.366 . S
C2816 C2818 1.388 . S
C2817 C2816 1.366 . S
C2817 C2821 1.385 . S
C2818 H2799 0.951 . S
C2818 C2816 1.388 . S
C2818 C2819 1.366 . S
C2819 C2818 1.366 . S
C2819 C2820 1.414 . S
C2819 C2822 1.499 . S
C2820 H2800 0.950 . S
C2820 C2819 1.414 . S
C2820 C2821 1.374 . S
C2821 H2801 0.950 . S
C2821 C2817 1.385 . S
C2821 C2820 1.374 . S
C2822 C2819 1.499 . S
C2822 C2823 1.373 . S
C2822 C2824 1.389 1_556 S
C2823 H2802 0.950 . S
C2823 C2822 1.373 . S
C2823 C2839 1.377 . S
C2824 C2822 1.389 1_554 S
C2824 C2825 1.524 . S
C2824 C2838 1.377 . S
C2825 C2824 1.524 . S
C2825 C2826 1.397 . S
C2825 C2830 1.361 . S
C2826 H2803 0.950 . S
C2826 C2825 1.397 . S
C2826 C2827 1.334 . S
C2827 H2804 0.950 . S
C2827 C2826 1.334 . S
C2827 C2828 1.287 . S
C2828 C2827 1.287 . S
C2828 C2829 1.524 . S
C2828 H2847 0.913 . S
C2829 H2805 0.955 . S
C2829 C2828 1.524 . S
C2829 C2830 1.414 . S
C2830 H2806 0.953 1_554 S
C2830 C2825 1.361 . S
C2830 C2829 1.414 . S
C2831 H2807 0.951 . S
C2831 C2832 1.366 . S
C2831 C2833 1.388 . S
C2832 C2831 1.366 . S
C2832 C2836 1.385 . S
C2833 H2808 0.951 . S
C2833 C2831 1.388 . S
C2833 C2834 1.366 . S
C2834 C2833 1.366 . S
C2834 C2835 1.414 . S
C2834 C2837 1.499 . S
C2835 H2809 0.950 . S
C2835 C2834 1.414 . S
C2835 C2836 1.374 . S
C2836 H2810 0.950 . S
C2836 C2832 1.385 . S
C2836 C2835 1.374 . S
C2837 C2834 1.499 . S
C2837 C2838 1.373 . S
C2837 C2839 1.389 1_554 S
C2838 H2811 0.950 . S
C2838 C2824 1.377 . S
C2838 C2837 1.373 . S
C2839 C2823 1.377 . S
C2839 C2837 1.389 1_556 S
C2839 C2840 1.524 . S
C2840 C2839 1.524 . S
C2840 C2841 1.397 . S
C2840 C2845 1.361 . S
C2841 H2812 0.950 . S
C2841 C2840 1.397 . S
C2841 C2842 1.334 . S
C2842 H2813 0.950 . S
C2842 C2841 1.334 . S
C2842 C2843 1.287 . S
C2843 C2842 1.287 . S
C2843 C2844 1.524 . S
C2843 H2846 0.999 . S
C2844 H2814 0.955 . S
C2844 C2843 1.524 . S
C2844 C2845 1.414 . S
C2845 H2815 0.953 1_556 S
C2845 C2840 1.361 . S
C2845 C2844 1.414 . S
H2846 C2843 0.999 . S
H2847 C2828 0.913 . S
H2848 C2866 0.951 . S
H2849 C2868 0.951 . S
H2850 C2870 0.950 . S
H2851 C2871 0.950 . S
H2852 C2873 0.950 . S
H2853 C2876 0.950 . S
H2854 C2877 0.950 . S
H2855 C2879 0.950 . S
H2856 C2880 0.950 . S
H2857 C2881 0.951 . S
H2858 C2883 0.951 . S
H2859 C2885 0.950 . S
H2860 C2886 0.950 . S
H2861 C2888 0.950 . S
H2862 C2891 0.950 . S
H2863 C2892 0.950 . S
H2864 C2894 0.950 . S
H2865 C2895 0.950 . S
C2866 H2848 0.951 . S
C2866 C2867 1.366 . S
C2866 C2868 1.388 . S
C2867 C2866 1.366 . S
C2867 C2871 1.385 . S
C2868 H2849 0.951 . S
C2868 C2866 1.388 . S
C2868 C2869 1.366 . S
C2869 C2868 1.366 . S
C2869 C2870 1.414 . S
C2869 C2872 1.499 . S
C2870 H2850 0.950 . S
C2870 C2869 1.414 . S
C2870 C2871 1.374 . S
C2871 H2851 0.950 . S
C2871 C2867 1.385 . S
C2871 C2870 1.374 . S
C2872 C2869 1.499 . S
C2872 C2873 1.373 . S
C2872 C2874 1.389 . S
C2873 H2852 0.950 . S
C2873 C2872 1.373 . S
C2873 C2889 1.377 . S
C2874 C2872 1.389 . S
C2874 C2875 1.524 . S
C2874 C2888 1.377 . S
C2875 C2874 1.524 . S
C2875 C2876 1.397 . S
C2875 C2880 1.363 . S
C2876 H2853 0.950 . S
C2876 C2875 1.397 . S
C2876 C2877 1.334 . S
C2877 H2854 0.950 . S
C2877 C2876 1.334 . S
C2877 C2878 1.287 . S
C2878 C2877 1.287 . S
C2878 C2879 1.524 . S
C2878 H2897 0.913 . S
C2879 H2855 0.950 . S
C2879 C2878 1.524 . S
C2879 C2880 1.415 . S
C2880 H2856 0.950 . S
C2880 C2875 1.363 . S
C2880 C2879 1.415 . S
C2881 H2857 0.951 . S
C2881 C2882 1.366 . S
C2881 C2883 1.388 . S
C2882 C2881 1.366 . S
C2882 C2886 1.385 . S
C2883 H2858 0.951 . S
C2883 C2881 1.388 . S
C2883 C2884 1.366 . S
C2884 C2883 1.366 . S
C2884 C2885 1.414 . S
C2884 C2887 1.499 . S
C2885 H2859 0.950 . S
C2885 C2884 1.414 . S
C2885 C2886 1.374 . S
C2886 H2860 0.950 . S
C2886 C2882 1.385 . S
C2886 C2885 1.374 . S
C2887 C2884 1.499 . S
C2887 C2888 1.373 . S
C2887 C2889 1.389 . S
C2888 H2861 0.950 . S
C2888 C2874 1.377 . S
C2888 C2887 1.373 . S
C2889 C2873 1.377 . S
C2889 C2887 1.389 . S
C2889 C2890 1.524 . S
C2890 C2889 1.524 . S
C2890 C2891 1.397 . S
C2890 C2895 1.363 . S
C2891 H2862 0.950 . S
C2891 C2890 1.397 . S
C2891 C2892 1.334 . S
C2892 H2863 0.950 . S
C2892 C2891 1.334 . S
C2892 C2893 1.287 . S
C2893 C2892 1.287 . S
C2893 C2894 1.524 . S
C2893 H2896 0.999 . S
C2894 H2864 0.950 . S
C2894 C2893 1.524 . S
C2894 C2895 1.415 . S
C2895 H2865 0.950 . S
C2895 C2890 1.363 . S
C2895 C2894 1.415 . S
H2896 C2893 0.999 . S
H2897 C2878 0.913 . S
H2898 C2916 0.951 . S
H2899 C2918 0.951 . S
H2900 C2920 0.950 . S
H2901 C2921 0.950 . S
H2902 C2923 0.950 . S
H2903 C2926 0.950 . S
H2904 C2927 0.950 . S
H2905 C2929 0.950 1_655 S
H2906 C2930 0.950 . S
H2907 C2931 0.951 . S
H2908 C2933 0.951 . S
H2909 C2935 0.950 . S
H2910 C2936 0.950 . S
H2911 C2938 0.950 . S
H2912 C2941 0.950 . S
H2913 C2942 0.950 . S
H2914 C2944 0.950 . S
H2915 C2945 0.950 . S
C2916 H2898 0.951 . S
C2916 C2917 1.366 . S
C2916 C2918 1.388 . S
C2917 C2916 1.366 . S
C2917 C2921 1.385 . S
C2918 H2899 0.951 . S
C2918 C2916 1.388 . S
C2918 C2919 1.366 . S
C2919 C2918 1.366 . S
C2919 C2920 1.414 . S
C2919 C2922 1.499 . S
C2920 H2900 0.950 . S
C2920 C2919 1.414 . S
C2920 C2921 1.374 . S
C2921 H2901 0.950 . S
C2921 C2917 1.385 . S
C2921 C2920 1.374 . S
C2922 C2919 1.499 . S
C2922 C2923 1.373 . S
C2922 C2924 1.389 . S
C2923 H2902 0.950 . S
C2923 C2922 1.373 . S
C2923 C2939 1.377 . S
C2924 C2922 1.389 . S
C2924 C2925 1.524 . S
C2924 C2938 1.377 . S
C2925 C2924 1.524 . S
C2925 C2926 1.397 . S
C2925 C2930 1.363 . S
C2926 H2903 0.950 . S
C2926 C2925 1.397 . S
C2926 C2927 1.334 . S
C2927 H2904 0.950 . S
C2927 C2926 1.334 . S
C2927 C2928 1.287 1_455 S
C2928 C2927 1.287 1_655 S
C2928 C2929 1.524 1_655 S
C2928 H2947 0.913 . S
C2929 H2905 0.950 1_455 S
C2929 C2928 1.524 1_455 S
C2929 C2930 1.415 . S
C2930 H2906 0.950 . S
C2930 C2925 1.363 . S
C2930 C2929 1.415 . S
C2931 H2907 0.951 . S
C2931 C2932 1.366 . S
C2931 C2933 1.388 . S
C2932 C2931 1.366 . S
C2932 C2936 1.385 . S
C2933 H2908 0.951 . S
C2933 C2931 1.388 . S
C2933 C2934 1.366 . S
C2934 C2933 1.366 . S
C2934 C2935 1.414 . S
C2934 C2937 1.499 . S
C2935 H2909 0.950 . S
C2935 C2934 1.414 . S
C2935 C2936 1.374 . S
C2936 H2910 0.950 . S
C2936 C2932 1.385 . S
C2936 C2935 1.374 . S
C2937 C2934 1.499 . S
C2937 C2938 1.373 . S
C2937 C2939 1.389 . S
C2938 H2911 0.950 . S
C2938 C2924 1.377 . S
C2938 C2937 1.373 . S
C2939 C2923 1.377 . S
C2939 C2937 1.389 . S
C2939 C2940 1.524 . S
C2940 C2939 1.524 . S
C2940 C2941 1.397 . S
C2940 C2945 1.363 . S
C2941 H2912 0.950 . S
C2941 C2940 1.397 . S
C2941 C2942 1.334 . S
C2942 H2913 0.950 . S
C2942 C2941 1.334 . S
C2942 C2943 1.287 . S
C2943 C2942 1.287 . S
C2943 C2944 1.524 . S
C2943 H2946 0.999 . S
C2944 H2914 0.950 . S
C2944 C2943 1.524 . S
C2944 C2945 1.415 . S
C2945 H2915 0.950 . S
C2945 C2940 1.363 . S
C2945 C2944 1.415 . S
H2946 C2943 0.999 . S
H2947 C2928 0.913 . S
H2948 C2966 0.951 . S
H2949 C2968 0.951 . S
H2950 C2970 0.950 . S
H2951 C2971 0.950 . S
H2952 C2973 0.950 . S
H2953 C2976 0.950 . S
H2954 C2977 0.950 . S
H2955 C2979 0.950 . S
H2956 C2980 0.950 . S
H2957 C2981 0.951 . S
H2958 C2983 0.951 . S
H2959 C2985 0.950 . S
H2960 C2986 0.950 . S
H2961 C2988 0.950 . S
H2962 C2991 0.950 . S
H2963 C2992 0.950 . S
H2964 C2994 0.950 . S
H2965 C2995 0.950 . S
C2966 H2948 0.951 . S
C2966 C2967 1.366 . S
C2966 C2968 1.388 . S
C2967 C2966 1.366 . S
C2967 C2971 1.385 . S
C2968 H2949 0.951 . S
C2968 C2966 1.388 . S
C2968 C2969 1.366 . S
C2969 C2968 1.366 . S
C2969 C2970 1.414 . S
C2969 C2972 1.499 . S
C2970 H2950 0.950 . S
C2970 C2969 1.414 . S
C2970 C2971 1.374 . S
C2971 H2951 0.950 . S
C2971 C2967 1.385 . S
C2971 C2970 1.374 . S
C2972 C2969 1.499 . S
C2972 C2973 1.373 . S
C2972 C2974 1.389 . S
C2973 H2952 0.950 . S
C2973 C2972 1.373 . S
C2973 C2989 1.377 . S
C2974 C2972 1.389 . S
C2974 C2975 1.524 . S
C2974 C2988 1.377 . S
C2975 C2974 1.524 . S
C2975 C2976 1.397 . S
C2975 C2980 1.363 . S
C2976 H2953 0.950 . S
C2976 C2975 1.397 . S
C2976 C2977 1.334 . S
C2977 H2954 0.950 . S
C2977 C2976 1.334 . S
C2977 C2978 1.287 . S
C2978 C2977 1.287 . S
C2978 C2979 1.524 . S
C2978 H2997 0.913 . S
C2979 H2955 0.950 . S
C2979 C2978 1.524 . S
C2979 C2980 1.415 . S
C2980 H2956 0.950 . S
C2980 C2975 1.363 . S
C2980 C2979 1.415 . S
C2981 H2957 0.951 . S
C2981 C2982 1.366 . S
C2981 C2983 1.388 . S
C2982 C2981 1.366 . S
C2982 C2986 1.385 . S
C2983 H2958 0.951 . S
C2983 C2981 1.388 . S
C2983 C2984 1.366 . S
C2984 C2983 1.366 . S
C2984 C2985 1.414 . S
C2984 C2987 1.499 . S
C2985 H2959 0.950 . S
C2985 C2984 1.414 . S
C2985 C2986 1.374 . S
C2986 H2960 0.950 . S
C2986 C2982 1.385 . S
C2986 C2985 1.374 . S
C2987 C2984 1.499 . S
C2987 C2988 1.373 . S
C2987 C2989 1.389 . S
C2988 H2961 0.950 . S
C2988 C2974 1.377 . S
C2988 C2987 1.373 . S
C2989 C2973 1.377 . S
C2989 C2987 1.389 . S
C2989 C2990 1.524 . S
C2990 C2989 1.524 . S
C2990 C2991 1.397 . S
C2990 C2995 1.363 . S
C2991 H2962 0.950 . S
C2991 C2990 1.397 . S
C2991 C2992 1.334 . S
C2992 H2963 0.950 . S
C2992 C2991 1.334 . S
C2992 C2993 1.287 . S
C2993 C2992 1.287 . S
C2993 C2994 1.524 . S
C2993 H2996 0.999 . S
C2994 H2964 0.950 . S
C2994 C2993 1.524 . S
C2994 C2995 1.415 . S
C2995 H2965 0.950 . S
C2995 C2990 1.363 . S
C2995 C2994 1.415 . S
H2996 C2993 0.999 . S
H2997 C2978 0.913 . S
H2998 C3016 0.951 . S
H2999 C3018 0.951 . S
H3000 C3020 0.950 . S
H3001 C3021 0.950 . S
H3002 C3023 0.950 . S
H3003 C3026 0.950 . S
H3004 C3027 0.950 . S
H3005 C3029 0.950 1_455 S
H3006 C3030 0.950 . S
H3007 C3031 0.951 . S
H3008 C3033 0.951 . S
H3009 C3035 0.950 . S
H3010 C3036 0.950 . S
H3011 C3038 0.950 . S
H3012 C3041 0.950 . S
H3013 C3042 0.950 . S
H3014 C3044 0.950 . S
H3015 C3045 0.950 . S
C3016 H2998 0.951 . S
C3016 C3017 1.366 . S
C3016 C3018 1.388 . S
C3017 C3016 1.366 . S
C3017 C3021 1.385 . S
C3018 H2999 0.951 . S
C3018 C3016 1.388 . S
C3018 C3019 1.366 . S
C3019 C3018 1.366 . S
C3019 C3020 1.414 . S
C3019 C3022 1.499 . S
C3020 H3000 0.950 . S
C3020 C3019 1.414 . S
C3020 C3021 1.374 . S
C3021 H3001 0.950 . S
C3021 C3017 1.385 . S
C3021 C3020 1.374 . S
C3022 C3019 1.499 . S
C3022 C3023 1.373 . S
C3022 C3024 1.389 . S
C3023 H3002 0.950 . S
C3023 C3022 1.373 . S
C3023 C3039 1.377 . S
C3024 C3022 1.389 . S
C3024 C3025 1.524 . S
C3024 C3038 1.377 . S
C3025 C3024 1.524 . S
C3025 C3026 1.397 . S
C3025 C3030 1.363 . S
C3026 H3003 0.950 . S
C3026 C3025 1.397 . S
C3026 C3027 1.334 . S
C3027 H3004 0.950 . S
C3027 C3026 1.334 . S
C3027 C3028 1.287 . S
C3028 C3027 1.287 . S
C3028 C3029 1.524 . S
C3028 H3047 0.913 . S
C3029 H3005 0.950 1_655 S
C3029 C3028 1.524 . S
C3029 C3030 1.415 . S
C3030 H3006 0.950 . S
C3030 C3025 1.363 . S
C3030 C3029 1.415 . S
C3031 H3007 0.951 . S
C3031 C3032 1.366 . S
C3031 C3033 1.388 . S
C3032 C3031 1.366 . S
C3032 C3036 1.385 . S
C3033 H3008 0.951 . S
C3033 C3031 1.388 . S
C3033 C3034 1.366 . S
C3034 C3033 1.366 . S
C3034 C3035 1.414 . S
C3034 C3037 1.499 . S
C3035 H3009 0.950 . S
C3035 C3034 1.414 . S
C3035 C3036 1.374 . S
C3036 H3010 0.950 . S
C3036 C3032 1.385 . S
C3036 C3035 1.374 . S
C3037 C3034 1.499 . S
C3037 C3038 1.373 . S
C3037 C3039 1.389 . S
C3038 H3011 0.950 . S
C3038 C3024 1.377 . S
C3038 C3037 1.373 . S
C3039 C3023 1.377 . S
C3039 C3037 1.389 . S
C3039 C3040 1.524 . S
C3040 C3039 1.524 . S
C3040 C3041 1.397 . S
C3040 C3045 1.363 . S
C3041 H3012 0.950 . S
C3041 C3040 1.397 . S
C3041 C3042 1.334 . S
C3042 H3013 0.950 . S
C3042 C3041 1.334 . S
C3042 C3043 1.287 . S
C3043 C3042 1.287 . S
C3043 C3044 1.524 . S
C3043 H3046 0.999 . S
C3044 H3014 0.950 . S
C3044 C3043 1.524 . S
C3044 C3045 1.415 . S
C3045 H3015 0.950 . S
C3045 C3040 1.363 . S
C3045 C3044 1.415 . S
H3046 C3043 0.999 . S
H3047 C3028 0.913 . S
H3048 C3066 0.951 . S
H3049 C3068 0.951 . S
H3050 C3070 0.950 . S
H3051 C3071 0.950 . S
H3052 C3073 0.950 . S
H3053 C3076 0.950 . S
H3054 C3077 0.950 . S
H3055 C3079 0.950 1_655 S
H3056 C3080 0.950 . S
H3057 C3081 0.951 . S
H3058 C3083 0.951 . S
H3059 C3085 0.950 . S
H3060 C3086 0.950 . S
H3061 C3088 0.950 . S
H3062 C3091 0.950 . S
H3063 C3092 0.950 . S
H3064 C3094 0.950 . S
H3065 C3095 0.950 . S
C3066 H3048 0.951 . S
C3066 C3067 1.366 . S
C3066 C3068 1.388 . S
C3067 C3066 1.366 . S
C3067 C3071 1.385 . S
C3068 H3049 0.951 . S
C3068 C3066 1.388 . S
C3068 C3069 1.366 . S
C3069 C3068 1.366 . S
C3069 C3070 1.414 . S
C3069 C3072 1.499 . S
C3070 H3050 0.950 . S
C3070 C3069 1.414 . S
C3070 C3071 1.374 . S
C3071 H3051 0.950 . S
C3071 C3067 1.385 . S
C3071 C3070 1.374 . S
C3072 C3069 1.499 . S
C3072 C3073 1.373 . S
C3072 C3074 1.389 . S
C3073 H3052 0.950 . S
C3073 C3072 1.373 . S
C3073 C3089 1.377 . S
C3074 C3072 1.389 . S
C3074 C3075 1.524 . S
C3074 C3088 1.377 . S
C3075 C3074 1.524 . S
C3075 C3076 1.397 . S
C3075 C3080 1.363 . S
C3076 H3053 0.950 . S
C3076 C3075 1.397 . S
C3076 C3077 1.334 . S
C3077 H3054 0.950 . S
C3077 C3076 1.334 . S
C3077 C3078 1.287 . S
C3078 C3077 1.287 . S
C3078 C3079 1.524 . S
C3078 H3097 0.913 . S
C3079 H3055 0.950 1_455 S
C3079 C3078 1.524 . S
C3079 C3080 1.415 . S
C3080 H3056 0.950 . S
C3080 C3075 1.363 . S
C3080 C3079 1.415 . S
C3081 H3057 0.951 . S
C3081 C3082 1.366 . S
C3081 C3083 1.388 . S
C3082 C3081 1.366 . S
C3082 C3086 1.385 . S
C3083 H3058 0.951 . S
C3083 C3081 1.388 . S
C3083 C3084 1.366 . S
C3084 C3083 1.366 . S
C3084 C3085 1.414 . S
C3084 C3087 1.499 . S
C3085 H3059 0.950 . S
C3085 C3084 1.414 . S
C3085 C3086 1.374 . S
C3086 H3060 0.950 . S
C3086 C3082 1.385 . S
C3086 C3085 1.374 . S
C3087 C3084 1.499 . S
C3087 C3088 1.373 . S
C3087 C3089 1.389 . S
C3088 H3061 0.950 . S
C3088 C3074 1.377 . S
C3088 C3087 1.373 . S
C3089 C3073 1.377 . S
C3089 C3087 1.389 . S
C3089 C3090 1.524 . S
C3090 C3089 1.524 . S
C3090 C3091 1.397 . S
C3090 C3095 1.363 . S
C3091 H3062 0.950 . S
C3091 C3090 1.397 . S
C3091 C3092 1.334 . S
C3092 H3063 0.950 . S
C3092 C3091 1.334 . S
C3092 C3093 1.287 . S
C3093 C3092 1.287 . S
C3093 C3094 1.524 . S
C3093 H3096 0.999 . S
C3094 H3064 0.950 . S
C3094 C3093 1.524 . S
C3094 C3095 1.415 . S
C3095 H3065 0.950 . S
C3095 C3090 1.363 . S
C3095 C3094 1.415 . S
H3096 C3093 0.999 . S
H3097 C3078 0.913 . S
H3098 C3116 0.951 . S
H3099 C3118 0.951 . S
H3100 C3120 0.950 . S
H3101 C3121 0.950 . S
H3102 C3123 0.950 . S
H3103 C3126 0.950 . S
H3104 C3127 0.950 . S
H3105 C3129 0.950 . S
H3106 C3130 0.950 . S
H3107 C3131 0.951 . S
H3108 C3133 0.951 . S
H3109 C3135 0.950 . S
H3110 C3136 0.950 . S
H3111 C3138 0.950 . S
H3112 C3141 0.950 . S
H3113 C3142 0.950 . S
H3114 C3144 0.950 . S
H3115 C3145 0.950 . S
C3116 H3098 0.951 . S
C3116 C3117 1.366 . S
C3116 C3118 1.388 . S
C3117 C3116 1.366 . S
C3117 C3121 1.385 . S
C3118 H3099 0.951 . S
C3118 C3116 1.388 . S
C3118 C3119 1.366 . S
C3119 C3118 1.366 . S
C3119 C3120 1.414 . S
C3119 C3122 1.499 . S
C3120 H3100 0.950 . S
C3120 C3119 1.414 . S
C3120 C3121 1.374 . S
C3121 H3101 0.950 . S
C3121 C3117 1.385 . S
C3121 C3120 1.374 . S
C3122 C3119 1.499 . S
C3122 C3123 1.373 . S
C3122 C3124 1.389 . S
C3123 H3102 0.950 . S
C3123 C3122 1.373 . S
C3123 C3139 1.377 . S
C3124 C3122 1.389 . S
C3124 C3125 1.524 . S
C3124 C3138 1.377 . S
C3125 C3124 1.524 . S
C3125 C3126 1.397 . S
C3125 C3130 1.363 . S
C3126 H3103 0.950 . S
C3126 C3125 1.397 . S
C3126 C3127 1.334 . S
C3127 H3104 0.950 . S
C3127 C3126 1.334 . S
C3127 C3128 1.287 . S
C3128 C3127 1.287 . S
C3128 C3129 1.524 . S
C3128 H3147 0.913 . S
C3129 H3105 0.950 . S
C3129 C3128 1.524 . S
C3129 C3130 1.415 . S
C3130 H3106 0.950 . S
C3130 C3125 1.363 . S
C3130 C3129 1.415 . S
C3131 H3107 0.951 . S
C3131 C3132 1.366 . S
C3131 C3133 1.388 . S
C3132 C3131 1.366 . S
C3132 C3136 1.385 . S
C3133 H3108 0.951 . S
C3133 C3131 1.388 . S
C3133 C3134 1.366 . S
C3134 C3133 1.366 . S
C3134 C3135 1.414 . S
C3134 C3137 1.499 . S
C3135 H3109 0.950 . S
C3135 C3134 1.414 . S
C3135 C3136 1.374 . S
C3136 H3110 0.950 . S
C3136 C3132 1.385 . S
C3136 C3135 1.374 . S
C3137 C3134 1.499 . S
C3137 C3138 1.373 . S
C3137 C3139 1.389 . S
C3138 H3111 0.950 . S
C3138 C3124 1.377 . S
C3138 C3137 1.373 . S
C3139 C3123 1.377 . S
C3139 C3137 1.389 . S
C3139 C3140 1.524 . S
C3140 C3139 1.524 . S
C3140 C3141 1.397 . S
C3140 C3145 1.363 . S
C3141 H3112 0.950 . S
C3141 C3140 1.397 . S
C3141 C3142 1.334 . S
C3142 H3113 0.950 . S
C3142 C3141 1.334 . S
C3142 C3143 1.287 . S
C3143 C3142 1.287 . S
C3143 C3144 1.524 . S
C3143 H3146 0.999 1_455 S
C3144 H3114 0.950 . S
C3144 C3143 1.524 . S
C3144 C3145 1.415 . S
C3145 H3115 0.950 . S
C3145 C3140 1.363 . S
C3145 C3144 1.415 . S
H3146 C3143 0.999 1_655 S
H3147 C3128 0.913 . S
H3148 C3166 0.951 . S
H3149 C3168 0.951 . S
H3150 C3170 0.950 . S
H3151 C3171 0.950 . S
H3152 C3173 0.950 . S
H3153 C3176 0.950 . S
H3154 C3177 0.950 . S
H3155 C3179 0.950 . S
H3156 C3180 0.950 . S
H3157 C3181 0.951 . S
H3158 C3183 0.951 . S
H3159 C3185 0.950 . S
H3160 C3186 0.950 . S
H3161 C3188 0.950 . S
H3162 C3191 0.950 . S
H3163 C3192 0.950 . S
H3164 C3194 0.950 . S
H3165 C3195 0.950 . S
C3166 H3148 0.951 . S
C3166 C3167 1.366 . S
C3166 C3168 1.388 . S
C3167 C3166 1.366 . S
C3167 C3171 1.385 . S
C3168 H3149 0.951 . S
C3168 C3166 1.388 . S
C3168 C3169 1.366 . S
C3169 C3168 1.366 . S
C3169 C3170 1.414 . S
C3169 C3172 1.499 . S
C3170 H3150 0.950 . S
C3170 C3169 1.414 . S
C3170 C3171 1.374 . S
C3171 H3151 0.950 . S
C3171 C3167 1.385 . S
C3171 C3170 1.374 . S
C3172 C3169 1.499 . S
C3172 C3173 1.373 . S
C3172 C3174 1.389 . S
C3173 H3152 0.950 . S
C3173 C3172 1.373 . S
C3173 C3189 1.377 . S
C3174 C3172 1.389 . S
C3174 C3175 1.524 . S
C3174 C3188 1.377 . S
C3175 C3174 1.524 . S
C3175 C3176 1.397 . S
C3175 C3180 1.363 . S
C3176 H3153 0.950 . S
C3176 C3175 1.397 . S
C3176 C3177 1.334 . S
C3177 H3154 0.950 . S
C3177 C3176 1.334 . S
C3177 C3178 1.287 . S
C3178 C3177 1.287 . S
C3178 C3179 1.524 . S
C3178 H3197 0.913 . S
C3179 H3155 0.950 . S
C3179 C3178 1.524 . S
C3179 C3180 1.415 . S
C3180 H3156 0.950 . S
C3180 C3175 1.363 . S
C3180 C3179 1.415 . S
C3181 H3157 0.951 . S
C3181 C3182 1.366 . S
C3181 C3183 1.388 . S
C3182 C3181 1.366 . S
C3182 C3186 1.385 . S
C3183 H3158 0.951 . S
C3183 C3181 1.388 . S
C3183 C3184 1.366 . S
C3184 C3183 1.366 . S
C3184 C3185 1.414 . S
C3184 C3187 1.499 . S
C3185 H3159 0.950 . S
C3185 C3184 1.414 . S
C3185 C3186 1.374 . S
C3186 H3160 0.950 . S
C3186 C3182 1.385 . S
C3186 C3185 1.374 . S
C3187 C3184 1.499 . S
C3187 C3188 1.373 . S
C3187 C3189 1.389 . S
C3188 H3161 0.950 . S
C3188 C3174 1.377 . S
C3188 C3187 1.373 . S
C3189 C3173 1.377 . S
C3189 C3187 1.389 . S
C3189 C3190 1.524 . S
C3190 C3189 1.524 . S
C3190 C3191 1.397 . S
C3190 C3195 1.363 . S
C3191 H3162 0.950 . S
C3191 C3190 1.397 . S
C3191 C3192 1.334 . S
C3192 H3163 0.950 . S
C3192 C3191 1.334 . S
C3192 C3193 1.287 . S
C3193 C3192 1.287 . S
C3193 C3194 1.524 . S
C3193 H3196 0.999 . S
C3194 H3164 0.950 . S
C3194 C3193 1.524 . S
C3194 C3195 1.415 . S
C3195 H3165 0.950 . S
C3195 C3190 1.363 . S
C3195 C3194 1.415 . S
H3196 C3193 0.999 . S
H3197 C3178 0.913 . S
H3198 C3216 0.951 . S
H3199 C3218 0.951 . S
H3200 C3220 0.950 . S
H3201 C3221 0.950 . S
H3202 C3223 0.950 . S
H3203 C3226 0.950 . S
H3204 C3227 0.950 . S
H3205 C3229 0.950 . S
H3206 C3230 0.950 . S
H3207 C3231 0.951 . S
H3208 C3233 0.951 . S
H3209 C3235 0.950 . S
H3210 C3236 0.950 . S
H3211 C3238 0.950 . S
H3212 C3241 0.950 . S
H3213 C3242 0.950 . S
H3214 C3244 0.950 . S
H3215 C3245 0.950 . S
C3216 H3198 0.951 . S
C3216 C3217 1.366 . S
C3216 C3218 1.388 . S
C3217 C3216 1.366 . S
C3217 C3221 1.385 . S
C3218 H3199 0.951 . S
C3218 C3216 1.388 . S
C3218 C3219 1.366 . S
C3219 C3218 1.366 . S
C3219 C3220 1.414 . S
C3219 C3222 1.499 . S
C3220 H3200 0.950 . S
C3220 C3219 1.414 . S
C3220 C3221 1.374 . S
C3221 H3201 0.950 . S
C3221 C3217 1.385 . S
C3221 C3220 1.374 . S
C3222 C3219 1.499 . S
C3222 C3223 1.373 . S
C3222 C3224 1.389 . S
C3223 H3202 0.950 . S
C3223 C3222 1.373 . S
C3223 C3239 1.377 . S
C3224 C3222 1.389 . S
C3224 C3225 1.524 . S
C3224 C3238 1.377 . S
C3225 C3224 1.524 . S
C3225 C3226 1.397 . S
C3225 C3230 1.363 . S
C3226 H3203 0.950 . S
C3226 C3225 1.397 . S
C3226 C3227 1.334 . S
C3227 H3204 0.950 . S
C3227 C3226 1.334 . S
C3227 C3228 1.287 . S
C3228 C3227 1.287 . S
C3228 C3229 1.524 . S
C3228 H3247 0.913 . S
C3229 H3205 0.950 . S
C3229 C3228 1.524 . S
C3229 C3230 1.415 . S
C3230 H3206 0.950 . S
C3230 C3225 1.363 . S
C3230 C3229 1.415 . S
C3231 H3207 0.951 . S
C3231 C3232 1.366 . S
C3231 C3233 1.388 . S
C3232 C3231 1.366 . S
C3232 C3236 1.385 . S
C3233 H3208 0.951 . S
C3233 C3231 1.388 . S
C3233 C3234 1.366 . S
C3234 C3233 1.366 . S
C3234 C3235 1.414 . S
C3234 C3237 1.499 . S
C3235 H3209 0.950 . S
C3235 C3234 1.414 . S
C3235 C3236 1.374 . S
C3236 H3210 0.950 . S
C3236 C3232 1.385 . S
C3236 C3235 1.374 . S
C3237 C3234 1.499 . S
C3237 C3238 1.373 . S
C3237 C3239 1.389 . S
C3238 H3211 0.950 . S
C3238 C3224 1.377 . S
C3238 C3237 1.373 . S
C3239 C3223 1.377 . S
C3239 C3237 1.389 . S
C3239 C3240 1.524 . S
C3240 C3239 1.524 . S
C3240 C3241 1.397 . S
C3240 C3245 1.363 . S
C3241 H3212 0.950 . S
C3241 C3240 1.397 . S
C3241 C3242 1.334 . S
C3242 H3213 0.950 . S
C3242 C3241 1.334 . S
C3242 C3243 1.287 . S
C3243 C3242 1.287 . S
C3243 C3244 1.524 . S
C3243 H3246 0.999 . S
C3244 H3214 0.950 . S
C3244 C3243 1.524 . S
C3244 C3245 1.415 . S
C3245 H3215 0.950 . S
C3245 C3240 1.363 . S
C3245 C3244 1.415 . S
H3246 C3243 0.999 . S
H3247 C3228 0.913 . S
H3248 C3266 0.951 . S
H3249 C3268 0.951 . S
H3250 C3270 0.950 . S
H3251 C3271 0.950 . S
H3252 C3273 0.950 . S
H3253 C3276 0.950 . S
H3254 C3277 0.950 . S
H3255 C3279 0.950 . S
H3256 C3280 0.950 . S
H3257 C3281 0.951 . S
H3258 C3283 0.951 . S
H3259 C3285 0.950 . S
H3260 C3286 0.950 . S
H3261 C3288 0.950 . S
H3262 C3291 0.950 . S
H3263 C3292 0.950 . S
H3264 C3294 0.950 . S
H3265 C3295 0.950 . S
C3266 H3248 0.951 . S
C3266 C3267 1.366 . S
C3266 C3268 1.388 . S
C3267 C3266 1.366 . S
C3267 C3271 1.385 . S
C3268 H3249 0.951 . S
C3268 C3266 1.388 . S
C3268 C3269 1.366 . S
C3269 C3268 1.366 . S
C3269 C3270 1.414 . S
C3269 C3272 1.499 . S
C3270 H3250 0.950 . S
C3270 C3269 1.414 . S
C3270 C3271 1.374 . S
C3271 H3251 0.950 . S
C3271 C3267 1.385 . S
C3271 C3270 1.374 . S
C3272 C3269 1.499 . S
C3272 C3273 1.373 . S
C3272 C3274 1.389 . S
C3273 H3252 0.950 . S
C3273 C3272 1.373 . S
C3273 C3289 1.377 . S
C3274 C3272 1.389 . S
C3274 C3275 1.524 . S
C3274 C3288 1.377 . S
C3275 C3274 1.524 . S
C3275 C3276 1.397 . S
C3275 C3280 1.363 . S
C3276 H3253 0.950 . S
C3276 C3275 1.397 . S
C3276 C3277 1.334 . S
C3277 H3254 0.950 . S
C3277 C3276 1.334 . S
C3277 C3278 1.287 . S
C3278 C3277 1.287 . S
C3278 C3279 1.524 . S
C3278 H3297 0.913 . S
C3279 H3255 0.950 . S
C3279 C3278 1.524 . S
C3279 C3280 1.415 . S
C3280 H3256 0.950 . S
C3280 C3275 1.363 . S
C3280 C3279 1.415 . S
C3281 H3257 0.951 . S
C3281 C3282 1.366 . S
C3281 C3283 1.388 . S
C3282 C3281 1.366 . S
C3282 C3286 1.385 . S
C3283 H3258 0.951 . S
C3283 C3281 1.388 . S
C3283 C3284 1.366 . S
C3284 C3283 1.366 . S
C3284 C3285 1.414 . S
C3284 C3287 1.499 . S
C3285 H3259 0.950 . S
C3285 C3284 1.414 . S
C3285 C3286 1.374 . S
C3286 H3260 0.950 . S
C3286 C3282 1.385 . S
C3286 C3285 1.374 . S
C3287 C3284 1.499 . S
C3287 C3288 1.373 . S
C3287 C3289 1.389 . S
C3288 H3261 0.950 . S
C3288 C3274 1.377 . S
C3288 C3287 1.373 . S
C3289 C3273 1.377 . S
C3289 C3287 1.389 . S
C3289 C3290 1.524 . S
C3290 C3289 1.524 . S
C3290 C3291 1.397 . S
C3290 C3295 1.363 . S
C3291 H3262 0.950 . S
C3291 C3290 1.397 . S
C3291 C3292 1.334 . S
C3292 H3263 0.950 . S
C3292 C3291 1.334 . S
C3292 C3293 1.287 . S
C3293 C3292 1.287 . S
C3293 C3294 1.524 . S
C3293 H3296 0.999 . S
C3294 H3264 0.950 . S
C3294 C3293 1.524 . S
C3294 C3295 1.415 . S
C3295 H3265 0.950 . S
C3295 C3290 1.363 . S
C3295 C3294 1.415 . S
H3296 C3293 0.999 . S
H3297 C3278 0.913 . S
H3298 C3316 0.951 . S
H3299 C3318 0.951 . S
H3300 C3320 0.950 . S
H3301 C3321 0.950 . S
H3302 C3323 0.950 . S
H3303 C3326 0.950 . S
H3304 C3327 0.950 . S
H3305 C3329 0.950 . S
H3306 C3330 0.950 . S
H3307 C3331 0.951 . S
H3308 C3333 0.951 . S
H3309 C3335 0.950 . S
H3310 C3336 0.950 . S
H3311 C3338 0.950 . S
H3312 C3341 0.950 . S
H3313 C3342 0.950 . S
H3314 C3344 0.950 . S
H3315 C3345 0.950 . S
C3316 H3298 0.951 . S
C3316 C3317 1.366 . S
C3316 C3318 1.388 . S
C3317 C3316 1.366 . S
C3317 C3321 1.385 . S
C3318 H3299 0.951 . S
C3318 C3316 1.388 . S
C3318 C3319 1.366 . S
C3319 C3318 1.366 . S
C3319 C3320 1.414 . S
C3319 C3322 1.499 . S
C3320 H3300 0.950 . S
C3320 C3319 1.414 . S
C3320 C3321 1.374 . S
C3321 H3301 0.950 . S
C3321 C3317 1.385 . S
C3321 C3320 1.374 . S
C3322 C3319 1.499 . S
C3322 C3323 1.373 . S
C3322 C3324 1.389 . S
C3323 H3302 0.950 . S
C3323 C3322 1.373 . S
C3323 C3339 1.377 . S
C3324 C3322 1.389 . S
C3324 C3325 1.524 . S
C3324 C3338 1.377 . S
C3325 C3324 1.524 . S
C3325 C3326 1.397 . S
C3325 C3330 1.363 . S
C3326 H3303 0.950 . S
C3326 C3325 1.397 . S
C3326 C3327 1.334 . S
C3327 H3304 0.950 . S
C3327 C3326 1.334 . S
C3327 C3328 1.287 . S
C3328 C3327 1.287 . S
C3328 C3329 1.524 . S
C3328 H3347 0.913 . S
C3329 H3305 0.950 . S
C3329 C3328 1.524 . S
C3329 C3330 1.415 . S
C3330 H3306 0.950 . S
C3330 C3325 1.363 . S
C3330 C3329 1.415 . S
C3331 H3307 0.951 . S
C3331 C3332 1.366 . S
C3331 C3333 1.388 . S
C3332 C3331 1.366 . S
C3332 C3336 1.385 . S
C3333 H3308 0.951 . S
C3333 C3331 1.388 . S
C3333 C3334 1.366 . S
C3334 C3333 1.366 . S
C3334 C3335 1.414 . S
C3334 C3337 1.499 . S
C3335 H3309 0.950 . S
C3335 C3334 1.414 . S
C3335 C3336 1.374 . S
C3336 H3310 0.950 . S
C3336 C3332 1.385 . S
C3336 C3335 1.374 . S
C3337 C3334 1.499 . S
C3337 C3338 1.373 . S
C3337 C3339 1.389 . S
C3338 H3311 0.950 . S
C3338 C3324 1.377 . S
C3338 C3337 1.373 . S
C3339 C3323 1.377 . S
C3339 C3337 1.389 . S
C3339 C3340 1.524 . S
C3340 C3339 1.524 . S
C3340 C3341 1.397 . S
C3340 C3345 1.363 . S
C3341 H3312 0.950 . S
C3341 C3340 1.397 . S
C3341 C3342 1.334 . S
C3342 H3313 0.950 . S
C3342 C3341 1.334 . S
C3342 C3343 1.287 . S
C3343 C3342 1.287 . S
C3343 C3344 1.524 . S
C3343 H3346 0.999 . S
C3344 H3314 0.950 . S
C3344 C3343 1.524 . S
C3344 C3345 1.415 . S
C3345 H3315 0.950 . S
C3345 C3340 1.363 . S
C3345 C3344 1.415 . S
H3346 C3343 0.999 . S
H3347 C3328 0.913 . S
H3348 C3366 0.951 . S
H3349 C3368 0.951 . S
H3350 C3370 0.950 . S
H3351 C3371 0.950 . S
H3352 C3373 0.950 . S
H3353 C3376 0.950 . S
H3354 C3377 0.950 . S
H3355 C3379 0.950 . S
H3356 C3380 0.950 . S
H3357 C3381 0.951 . S
H3358 C3383 0.951 . S
H3359 C3385 0.950 . S
H3360 C3386 0.950 . S
H3361 C3388 0.950 . S
H3362 C3391 0.950 . S
H3363 C3392 0.950 . S
H3364 C3394 0.950 . S
H3365 C3395 0.950 . S
C3366 H3348 0.951 . S
C3366 C3367 1.366 . S
C3366 C3368 1.388 . S
C3367 C3366 1.366 . S
C3367 C3371 1.385 . S
C3368 H3349 0.951 . S
C3368 C3366 1.388 . S
C3368 C3369 1.366 . S
C3369 C3368 1.366 . S
C3369 C3370 1.414 . S
C3369 C3372 1.499 . S
C3370 H3350 0.950 . S
C3370 C3369 1.414 . S
C3370 C3371 1.374 . S
C3371 H3351 0.950 . S
C3371 C3367 1.385 . S
C3371 C3370 1.374 . S
C3372 C3369 1.499 . S
C3372 C3373 1.373 . S
C3372 C3374 1.389 . S
C3373 H3352 0.950 . S
C3373 C3372 1.373 . S
C3373 C3389 1.377 . S
C3374 C3372 1.389 . S
C3374 C3375 1.524 . S
C3374 C3388 1.377 . S
C3375 C3374 1.524 . S
C3375 C3376 1.397 . S
C3375 C3380 1.363 . S
C3376 H3353 0.950 . S
C3376 C3375 1.397 . S
C3376 C3377 1.334 . S
C3377 H3354 0.950 . S
C3377 C3376 1.334 . S
C3377 C3378 1.287 . S
C3378 C3377 1.287 . S
C3378 C3379 1.524 . S
C3378 H3397 0.913 . S
C3379 H3355 0.950 . S
C3379 C3378 1.524 . S
C3379 C3380 1.415 . S
C3380 H3356 0.950 . S
C3380 C3375 1.363 . S
C3380 C3379 1.415 . S
C3381 H3357 0.951 . S
C3381 C3382 1.366 . S
C3381 C3383 1.388 . S
C3382 C3381 1.366 . S
C3382 C3386 1.385 . S
C3383 H3358 0.951 . S
C3383 C3381 1.388 . S
C3383 C3384 1.366 . S
C3384 C3383 1.366 . S
C3384 C3385 1.414 . S
C3384 C3387 1.499 . S
C3385 H3359 0.950 . S
C3385 C3384 1.414 . S
C3385 C3386 1.374 . S
C3386 H3360 0.950 . S
C3386 C3382 1.385 . S
C3386 C3385 1.374 . S
C3387 C3384 1.499 . S
C3387 C3388 1.373 . S
C3387 C3389 1.389 . S
C3388 H3361 0.950 . S
C3388 C3374 1.377 . S
C3388 C3387 1.373 . S
C3389 C3373 1.377 . S
C3389 C3387 1.389 . S
C3389 C3390 1.524 . S
C3390 C3389 1.524 . S
C3390 C3391 1.397 . S
C3390 C3395 1.363 . S
C3391 H3362 0.950 . S
C3391 C3390 1.397 . S
C3391 C3392 1.334 . S
C3392 H3363 0.950 . S
C3392 C3391 1.334 . S
C3392 C3393 1.287 . S
C3393 C3392 1.287 . S
C3393 C3394 1.524 . S
C3393 H3396 0.999 . S
C3394 H3364 0.950 . S
C3394 C3393 1.524 . S
C3394 C3395 1.415 . S
C3395 H3365 0.950 . S
C3395 C3390 1.363 . S
C3395 C3394 1.415 . S
H3396 C3393 0.999 . S
H3397 C3378 0.913 . S
H3398 C3416 0.951 . S
H3399 C3418 0.951 . S
H3400 C3420 0.950 . S
H3401 C3421 0.950 . S
H3402 C3423 0.950 . S
H3403 C3426 0.950 . S
H3404 C3427 0.950 . S
H3405 C3429 0.950 . S
H3406 C3430 0.950 . S
H3407 C3431 0.951 . S
H3408 C3433 0.951 . S
H3409 C3435 0.950 . S
H3410 C3436 0.950 . S
H3411 C3438 0.950 . S
H3412 C3441 0.950 . S
H3413 C3442 0.950 . S
H3414 C3444 0.950 . S
H3415 C3445 0.950 . S
C3416 H3398 0.951 . S
C3416 C3417 1.366 . S
C3416 C3418 1.388 . S
C3417 C3416 1.366 . S
C3417 C3421 1.385 . S
C3418 H3399 0.951 . S
C3418 C3416 1.388 . S
C3418 C3419 1.366 . S
C3419 C3418 1.366 . S
C3419 C3420 1.414 . S
C3419 C3422 1.499 . S
C3420 H3400 0.950 . S
C3420 C3419 1.414 . S
C3420 C3421 1.374 . S
C3421 H3401 0.950 . S
C3421 C3417 1.385 . S
C3421 C3420 1.374 . S
C3422 C3419 1.499 . S
C3422 C3423 1.373 . S
C3422 C3424 1.389 . S
C3423 H3402 0.950 . S
C3423 C3422 1.373 . S
C3423 C3439 1.377 . S
C3424 C3422 1.389 . S
C3424 C3425 1.524 . S
C3424 C3438 1.377 . S
C3425 C3424 1.524 . S
C3425 C3426 1.397 . S
C3425 C3430 1.363 . S
C3426 H3403 0.950 . S
C3426 C3425 1.397 . S
C3426 C3427 1.334 . S
C3427 H3404 0.950 . S
C3427 C3426 1.334 . S
C3427 C3428 1.287 . S
C3428 C3427 1.287 . S
C3428 C3429 1.524 . S
C3428 H3447 0.913 . S
C3429 H3405 0.950 . S
C3429 C3428 1.524 . S
C3429 C3430 1.415 . S
C3430 H3406 0.950 . S
C3430 C3425 1.363 . S
C3430 C3429 1.415 . S
C3431 H3407 0.951 . S
C3431 C3432 1.366 . S
C3431 C3433 1.388 . S
C3432 C3431 1.366 . S
C3432 C3436 1.385 . S
C3433 H3408 0.951 . S
C3433 C3431 1.388 . S
C3433 C3434 1.366 . S
C3434 C3433 1.366 . S
C3434 C3435 1.414 . S
C3434 C3437 1.499 . S
C3435 H3409 0.950 . S
C3435 C3434 1.414 . S
C3435 C3436 1.374 . S
C3436 H3410 0.950 . S
C3436 C3432 1.385 . S
C3436 C3435 1.374 . S
C3437 C3434 1.499 . S
C3437 C3438 1.373 . S
C3437 C3439 1.389 . S
C3438 H3411 0.950 . S
C3438 C3424 1.377 . S
C3438 C3437 1.373 . S
C3439 C3423 1.377 . S
C3439 C3437 1.389 . S
C3439 C3440 1.524 . S
C3440 C3439 1.524 . S
C3440 C3441 1.397 . S
C3440 C3445 1.363 . S
C3441 H3412 0.950 . S
C3441 C3440 1.397 . S
C3441 C3442 1.334 . S
C3442 H3413 0.950 . S
C3442 C3441 1.334 . S
C3442 C3443 1.287 . S
C3443 C3442 1.287 . S
C3443 C3444 1.524 . S
C3443 H3446 0.999 . S
C3444 H3414 0.950 . S
C3444 C3443 1.524 . S
C3444 C3445 1.415 . S
C3445 H3415 0.950 . S
C3445 C3440 1.363 . S
C3445 C3444 1.415 . S
H3446 C3443 0.999 . S
H3447 C3428 0.913 . S
H3448 C3466 0.951 . S
H3449 C3468 0.951 . S
H3450 C3470 0.950 . S
H3451 C3471 0.950 . S
H3452 C3473 0.950 . S
H3453 C3476 0.950 . S
H3454 C3477 0.950 . S
H3455 C3479 0.950 . S
H3456 C3480 0.950 . S
H3457 C3481 0.951 . S
H3458 C3483 0.951 . S
H3459 C3485 0.950 . S
H3460 C3486 0.950 . S
H3461 C3488 0.950 . S
H3462 C3491 0.950 . S
H3463 C3492 0.950 . S
H3464 C3494 0.950 . S
H3465 C3495 0.950 . S
C3466 H3448 0.951 . S
C3466 C3467 1.366 . S
C3466 C3468 1.388 . S
C3467 C3466 1.366 . S
C3467 C3471 1.385 . S
C3468 H3449 0.951 . S
C3468 C3466 1.388 . S
C3468 C3469 1.366 . S
C3469 C3468 1.366 . S
C3469 C3470 1.414 . S
C3469 C3472 1.499 . S
C3470 H3450 0.950 . S
C3470 C3469 1.414 . S
C3470 C3471 1.374 . S
C3471 H3451 0.950 . S
C3471 C3467 1.385 . S
C3471 C3470 1.374 . S
C3472 C3469 1.499 . S
C3472 C3473 1.373 . S
C3472 C3474 1.389 . S
C3473 H3452 0.950 . S
C3473 C3472 1.373 . S
C3473 C3489 1.377 . S
C3474 C3472 1.389 . S
C3474 C3475 1.524 . S
C3474 C3488 1.377 . S
C3475 C3474 1.524 . S
C3475 C3476 1.397 . S
C3475 C3480 1.363 . S
C3476 H3453 0.950 . S
C3476 C3475 1.397 . S
C3476 C3477 1.334 . S
C3477 H3454 0.950 . S
C3477 C3476 1.334 . S
C3477 C3478 1.287 . S
C3478 C3477 1.287 . S
C3478 C3479 1.524 . S
C3478 H3497 0.913 . S
C3479 H3455 0.950 . S
C3479 C3478 1.524 . S
C3479 C3480 1.415 . S
C3480 H3456 0.950 . S
C3480 C3475 1.363 . S
C3480 C3479 1.415 . S
C3481 H3457 0.951 . S
C3481 C3482 1.366 . S
C3481 C3483 1.388 . S
C3482 C3481 1.366 . S
C3482 C3486 1.385 . S
C3483 H3458 0.951 . S
C3483 C3481 1.388 . S
C3483 C3484 1.366 . S
C3484 C3483 1.366 . S
C3484 C3485 1.414 . S
C3484 C3487 1.499 . S
C3485 H3459 0.950 . S
C3485 C3484 1.414 . S
C3485 C3486 1.374 . S
C3486 H3460 0.950 . S
C3486 C3482 1.385 . S
C3486 C3485 1.374 . S
C3487 C3484 1.499 . S
C3487 C3488 1.373 . S
C3487 C3489 1.389 . S
C3488 H3461 0.950 . S
C3488 C3474 1.377 . S
C3488 C3487 1.373 . S
C3489 C3473 1.377 . S
C3489 C3487 1.389 . S
C3489 C3490 1.524 . S
C3490 C3489 1.524 . S
C3490 C3491 1.397 . S
C3490 C3495 1.363 . S
C3491 H3462 0.950 . S
C3491 C3490 1.397 . S
C3491 C3492 1.334 . S
C3492 H3463 0.950 . S
C3492 C3491 1.334 . S
C3492 C3493 1.287 . S
C3493 C3492 1.287 . S
C3493 C3494 1.524 . S
C3493 H3496 0.999 . S
C3494 H3464 0.950 . S
C3494 C3493 1.524 . S
C3494 C3495 1.415 . S
C3495 H3465 0.950 . S
C3495 C3490 1.363 . S
C3495 C3494 1.415 . S
H3496 C3493 0.999 . S
H3497 C3478 0.913 . S
H3498 C3516 0.951 . S
H3499 C3518 0.951 . S
H3500 C3520 0.950 . S
H3501 C3521 0.950 . S
H3502 C3523 0.950 . S
H3503 C3526 0.950 . S
H3504 C3527 0.950 . S
H3505 C3529 0.950 . S
H3506 C3530 0.950 . S
H3507 C3531 0.951 . S
H3508 C3533 0.951 . S
H3509 C3535 0.950 . S
H3510 C3536 0.950 . S
H3511 C3538 0.950 . S
H3512 C3541 0.950 . S
H3513 C3542 0.950 . S
H3514 C3544 0.950 . S
H3515 C3545 0.950 . S
C3516 H3498 0.951 . S
C3516 C3517 1.366 . S
C3516 C3518 1.388 . S
C3517 C3516 1.366 . S
C3517 C3521 1.385 . S
C3518 H3499 0.951 . S
C3518 C3516 1.388 . S
C3518 C3519 1.366 . S
C3519 C3518 1.366 . S
C3519 C3520 1.414 . S
C3519 C3522 1.499 . S
C3520 H3500 0.950 . S
C3520 C3519 1.414 . S
C3520 C3521 1.374 . S
C3521 H3501 0.950 . S
C3521 C3517 1.385 . S
C3521 C3520 1.374 . S
C3522 C3519 1.499 . S
C3522 C3523 1.373 . S
C3522 C3524 1.389 . S
C3523 H3502 0.950 . S
C3523 C3522 1.373 . S
C3523 C3539 1.377 . S
C3524 C3522 1.389 . S
C3524 C3525 1.524 . S
C3524 C3538 1.377 . S
C3525 C3524 1.524 . S
C3525 C3526 1.397 . S
C3525 C3530 1.363 . S
C3526 H3503 0.950 . S
C3526 C3525 1.397 . S
C3526 C3527 1.334 . S
C3527 H3504 0.950 . S
C3527 C3526 1.334 . S
C3527 C3528 1.287 . S
C3528 C3527 1.287 . S
C3528 C3529 1.524 . S
C3528 H3547 0.913 . S
C3529 H3505 0.950 . S
C3529 C3528 1.524 . S
C3529 C3530 1.415 . S
C3530 H3506 0.950 . S
C3530 C3525 1.363 . S
C3530 C3529 1.415 . S
C3531 H3507 0.951 . S
C3531 C3532 1.366 . S
C3531 C3533 1.388 . S
C3532 C3531 1.366 . S
C3532 C3536 1.385 . S
C3533 H3508 0.951 . S
C3533 C3531 1.388 . S
C3533 C3534 1.366 . S
C3534 C3533 1.366 . S
C3534 C3535 1.414 . S
C3534 C3537 1.499 . S
C3535 H3509 0.950 . S
C3535 C3534 1.414 . S
C3535 C3536 1.374 . S
C3536 H3510 0.950 . S
C3536 C3532 1.385 . S
C3536 C3535 1.374 . S
C3537 C3534 1.499 . S
C3537 C3538 1.373 . S
C3537 C3539 1.389 . S
C3538 H3511 0.950 . S
C3538 C3524 1.377 . S
C3538 C3537 1.373 . S
C3539 C3523 1.377 . S
C3539 C3537 1.389 . S
C3539 C3540 1.524 . S
C3540 C3539 1.524 . S
C3540 C3541 1.397 . S
C3540 C3545 1.363 . S
C3541 H3512 0.950 . S
C3541 C3540 1.397 . S
C3541 C3542 1.334 . S
C3542 H3513 0.950 . S
C3542 C3541 1.334 . S
C3542 C3543 1.287 . S
C3543 C3542 1.287 . S
C3543 C3544 1.524 . S
C3543 H3546 0.999 . S
C3544 H3514 0.950 . S
C3544 C3543 1.524 . S
C3544 C3545 1.415 . S
C3545 H3515 0.950 . S
C3545 C3540 1.363 . S
C3545 C3544 1.415 . S
H3546 C3543 0.999 . S
H3547 C3528 0.913 . S
H3548 C3566 0.951 . S
H3549 C3568 0.951 . S
H3550 C3570 0.950 . S
H3551 C3571 0.950 . S
H3552 C3573 0.950 . S
H3553 C3576 0.950 . S
H3554 C3577 0.950 . S
H3555 C3579 0.950 . S
H3556 C3580 0.950 . S
H3557 C3581 0.951 . S
H3558 C3583 0.951 . S
H3559 C3585 0.950 . S
H3560 C3586 0.950 . S
H3561 C3588 0.950 . S
H3562 C3591 0.950 . S
H3563 C3592 0.950 . S
H3564 C3594 0.950 . S
H3565 C3595 0.950 . S
C3566 H3548 0.951 . S
C3566 C3567 1.366 . S
C3566 C3568 1.388 . S
C3567 C3566 1.366 . S
C3567 C3571 1.385 . S
C3568 H3549 0.951 . S
C3568 C3566 1.388 . S
C3568 C3569 1.366 . S
C3569 C3568 1.366 . S
C3569 C3570 1.414 . S
C3569 C3572 1.499 . S
C3570 H3550 0.950 . S
C3570 C3569 1.414 . S
C3570 C3571 1.374 . S
C3571 H3551 0.950 . S
C3571 C3567 1.385 . S
C3571 C3570 1.374 . S
C3572 C3569 1.499 . S
C3572 C3573 1.373 . S
C3572 C3574 1.389 . S
C3573 H3552 0.950 . S
C3573 C3572 1.373 . S
C3573 C3589 1.377 . S
C3574 C3572 1.389 . S
C3574 C3575 1.524 . S
C3574 C3588 1.377 . S
C3575 C3574 1.524 . S
C3575 C3576 1.397 . S
C3575 C3580 1.363 . S
C3576 H3553 0.950 . S
C3576 C3575 1.397 . S
C3576 C3577 1.334 . S
C3577 H3554 0.950 . S
C3577 C3576 1.334 . S
C3577 C3578 1.287 . S
C3578 C3577 1.287 . S
C3578 C3579 1.524 . S
C3578 H3597 0.913 . S
C3579 H3555 0.950 . S
C3579 C3578 1.524 . S
C3579 C3580 1.415 . S
C3580 H3556 0.950 . S
C3580 C3575 1.363 . S
C3580 C3579 1.415 . S
C3581 H3557 0.951 . S
C3581 C3582 1.366 . S
C3581 C3583 1.388 . S
C3582 C3581 1.366 . S
C3582 C3586 1.385 . S
C3583 H3558 0.951 . S
C3583 C3581 1.388 . S
C3583 C3584 1.366 . S
C3584 C3583 1.366 . S
C3584 C3585 1.414 . S
C3584 C3587 1.499 . S
C3585 H3559 0.950 . S
C3585 C3584 1.414 . S
C3585 C3586 1.374 . S
C3586 H3560 0.950 . S
C3586 C3582 1.385 . S
C3586 C3585 1.374 . S
C3587 C3584 1.499 . S
C3587 C3588 1.373 . S
C3587 C3589 1.389 . S
C3588 H3561 0.950 . S
C3588 C3574 1.377 . S
C3588 C3587 1.373 . S
C3589 C3573 1.377 . S
C3589 C3587 1.389 . S
C3589 C3590 1.524 . S
C3590 C3589 1.524 . S
C3590 C3591 1.397 . S
C3590 C3595 1.363 . S
C3591 H3562 0.950 . S
C3591 C3590 1.397 . S
C3591 C3592 1.334 . S
C3592 H3563 0.950 . S
C3592 C3591 1.334 . S
C3592 C3593 1.287 . S
C3593 C3592 1.287 . S
C3593 C3594 1.524 . S
C3593 H3596 0.999 . S
C3594 H3564 0.950 . S
C3594 C3593 1.524 . S
C3594 C3595 1.415 . S
C3595 H3565 0.950 . S
C3595 C3590 1.363 . S
C3595 C3594 1.415 . S
H3596 C3593 0.999 . S
H3597 C3578 0.913 . S
H3598 C3616 0.951 . S
H3599 C3618 0.951 . S
H3600 C3620 0.950 . S
H3601 C3621 0.950 . S
H3602 C3623 0.950 . S
H3603 C3626 0.950 . S
H3604 C3627 0.950 . S
H3605 C3629 0.950 . S
H3606 C3630 0.950 . S
H3607 C3631 0.951 . S
H3608 C3633 0.951 . S
H3609 C3635 0.950 . S
H3610 C3636 0.950 . S
H3611 C3638 0.950 . S
H3612 C3641 0.950 . S
H3613 C3642 0.950 . S
H3614 C3644 0.950 . S
H3615 C3645 0.950 . S
C3616 H3598 0.951 . S
C3616 C3617 1.366 . S
C3616 C3618 1.388 . S
C3617 C3616 1.366 . S
C3617 C3621 1.385 . S
C3618 H3599 0.951 . S
C3618 C3616 1.388 . S
C3618 C3619 1.366 . S
C3619 C3618 1.366 . S
C3619 C3620 1.414 . S
C3619 C3622 1.499 . S
C3620 H3600 0.950 . S
C3620 C3619 1.414 . S
C3620 C3621 1.374 . S
C3621 H3601 0.950 . S
C3621 C3617 1.385 . S
C3621 C3620 1.374 . S
C3622 C3619 1.499 . S
C3622 C3623 1.373 . S
C3622 C3624 1.389 . S
C3623 H3602 0.950 . S
C3623 C3622 1.373 . S
C3623 C3639 1.377 . S
C3624 C3622 1.389 . S
C3624 C3625 1.524 . S
C3624 C3638 1.377 . S
C3625 C3624 1.524 . S
C3625 C3626 1.397 . S
C3625 C3630 1.363 . S
C3626 H3603 0.950 . S
C3626 C3625 1.397 . S
C3626 C3627 1.334 . S
C3627 H3604 0.950 . S
C3627 C3626 1.334 . S
C3627 C3628 1.287 . S
C3628 C3627 1.287 . S
C3628 C3629 1.524 . S
C3628 H3647 0.913 . S
C3629 H3605 0.950 . S
C3629 C3628 1.524 . S
C3629 C3630 1.415 . S
C3630 H3606 0.950 . S
C3630 C3625 1.363 . S
C3630 C3629 1.415 . S
C3631 H3607 0.951 . S
C3631 C3632 1.366 . S
C3631 C3633 1.388 . S
C3632 C3631 1.366 . S
C3632 C3636 1.385 . S
C3633 H3608 0.951 . S
C3633 C3631 1.388 . S
C3633 C3634 1.366 . S
C3634 C3633 1.366 . S
C3634 C3635 1.414 . S
C3634 C3637 1.499 . S
C3635 H3609 0.950 . S
C3635 C3634 1.414 . S
C3635 C3636 1.374 . S
C3636 H3610 0.950 . S
C3636 C3632 1.385 . S
C3636 C3635 1.374 . S
C3637 C3634 1.499 . S
C3637 C3638 1.373 . S
C3637 C3639 1.389 . S
C3638 H3611 0.950 . S
C3638 C3624 1.377 . S
C3638 C3637 1.373 . S
C3639 C3623 1.377 . S
C3639 C3637 1.389 . S
C3639 C3640 1.524 . S
C3640 C3639 1.524 . S
C3640 C3641 1.397 . S
C3640 C3645 1.363 . S
C3641 H3612 0.950 . S
C3641 C3640 1.397 . S
C3641 C3642 1.334 . S
C3642 H3613 0.950 . S
C3642 C3641 1.334 . S
C3642 C3643 1.287 . S
C3643 C3642 1.287 . S
C3643 C3644 1.524 . S
C3643 H3646 0.999 . S
C3644 H3614 0.950 . S
C3644 C3643 1.524 . S
C3644 C3645 1.415 . S
C3645 H3615 0.950 . S
C3645 C3640 1.363 . S
C3645 C3644 1.415 . S
H3646 C3643 0.999 . S
H3647 C3628 0.913 . S
C467 C148 1.325 . S
C482 C8 1.326 . S
C517 C22 1.326 . S
C532 C162 1.325 . S
C567 C36 1.326 . S
C582 C120 1.326 . S
C617 C134 1.326 . S
C632 C50 1.325 . S
C667 C205 1.325 . S
C682 C65 1.326 . S
C717 C79 1.325 . S
C732 C219 1.326 . S
C767 C177 1.326 . S
C782 C93 1.325 . S
C817 C191 1.325 . S
C832 C107 1.325 . S
C867 C372 1.326 . S
C882 C232 1.326 . S
C917 C386 1.326 . S
C932 C246 1.325 . S
C967 C344 1.326 . S
C982 C260 1.326 . S
C1017 C274 1.326 . S
C1032 C358 1.325 . S
C1067 C429 1.326 . S
C1082 C289 1.325 . S
C1117 C443 1.325 . S
C1132 C303 1.326 . S
C1167 C317 1.325 . S
C1182 C401 1.326 . S
C1217 C331 1.325 . S
C1232 C415 1.326 . S
C1267 C272 1.217 . S
C1282 C6 1.216 . S
C1317 C20 1.216 . S
C1332 C258 1.216 . S
C1367 C244 1.216 . S
C1382 C34 1.217 . S
C1417 C230 1.216 . S
C1432 C48 1.215 . S
C1467 C63 1.216 . S
C1482 C329 1.215 . S
C1517 C77 1.216 . S
C1532 C315 1.216 . S
C1567 C301 1.216 . S
C1582 C91 1.216 . S
C1617 C105 1.216 . S
C1632 C287 1.215 . S
C1667 C384 1.216 . S
C1682 C118 1.217 . S
C1717 C370 1.215 . S
C1732 C132 1.216 . S
C1767 C356 1.217 . S
C1782 C146 1.216 . S
C1817 C342 1.216 . S
C1832 C160 1.217 . S
C1867 C175 1.217 . S
C1882 C441 1.217 . S
C1917 C427 1.215 . S
C1932 C189 1.216 . S
C1967 C203 1.215 . S
C1982 C413 1.216 . S
C2017 C217 1.215 . S
C2032 C399 1.216 . S
C2067 C174 1.391 . S
C2082 C7 1.391 . S
C2117 C21 1.390 . S
C2132 C300 1.390 . S
C2167 C90 1.390 . S
C2182 C35 1.390 . S
C2217 C440 1.390 . S
C2232 C49 1.390 . S
C2267 C62 1.391 . S
C2282 C119 1.391 . S
C2317 C245 1.390 . S
C2332 C76 1.390 . S
C2367 C385 1.390 . S
C2382 C104 1.390 . S
C2417 C412 1.391 . S
C2432 C133 1.391 . S
C2467 C147 1.390 . S
C2482 C202 1.390 . S
C2517 C328 1.390 . S
C2532 C161 1.390 . S
C2567 C357 1.391 . S
C2582 C188 1.391 . S
C2617 C216 1.391 . S
C2632 C273 1.391 . S
C2667 C231 1.391 . S
C2682 C398 1.391 . S
C2717 C314 1.390 . S
C2732 C259 1.390 . S
C2767 C343 1.391 . S
C2782 C286 1.391 . S
C2817 C371 1.390 . S
C2832 C426 1.390 . S
C2867 C9 0.891 . S
C2882 C51 0.892 1_554 S
C2917 C37 0.891 1_554 S
C2932 C23 0.891 . S
C2967 C64 0.892 . S
C2982 C106 0.890 1_556 S
C3017 C78 0.891 . S
C3032 C92 0.890 1_556 S
C3067 C121 0.892 . S
C3082 C163 0.891 . S
C3117 C135 0.891 . S
C3132 C149 0.892 . S
C3167 C176 0.891 . S
C3182 C218 0.891 . S
C3217 C204 0.890 . S
C3232 C190 0.892 . S
C3267 C275 0.891 . S
C3282 C233 0.892 . S
C3317 C261 0.891 . S
C3332 C247 0.891 . S
C3367 C330 0.892 . S
C3382 C288 0.891 . S
C3417 C316 0.891 . S
C3432 C302 0.891 . S
C3467 C387 0.891 1_554 S
C3482 C345 0.891 . S
C3517 C373 0.892 1_554 S
C3532 C359 0.891 . S
C3567 C400 0.891 . S
C3582 C442 0.891 1_556 S
C3617 C428 0.890 1_556 S
C3632 C414 0.892 . S
