# Generated by pormake.
# Topology npo, (4)-cn, num edge types: 1
# Building blocks:
#     Node 0, Type 0, BuildingBlock: CEKHIL_clean_sbu_0, # of connection points: 4
#     Node 1, Type 0, BuildingBlock: CEKHIL_clean_sbu_0, # of connection points: 4
#     Node 2, Type 0, BuildingBlock: CEKHIL_clean_sbu_0, # of connection points: 4
#     Node 3, Type 0, BuildingBlock: CEKHIL_clean_sbu_0, # of connection points: 4
#     Node 4, Type 0, BuildingBlock: CEKHIL_clean_sbu_0, # of connection points: 4
#     Node 5, Type 0, BuildingBlock: CEKHIL_clean_sbu_0, # of connection points: 4
#     Edge 6, Type (0, 0), BuildingBlock: TEMPAE_clean_linker_10, # of connection points: 2
#     Edge 7, Type (0, 0), BuildingBlock: TEMPAE_clean_linker_10, # of connection points: 2
#     Edge 8, Type (0, 0), BuildingBlock: TEMPAE_clean_linker_10, # of connection points: 2
#     Edge 9, Type (0, 0), BuildingBlock: TEMPAE_clean_linker_10, # of connection points: 2
#     Edge 10, Type (0, 0), BuildingBlock: TEMPAE_clean_linker_10, # of connection points: 2
#     Edge 11, Type (0, 0), BuildingBlock: TEMPAE_clean_linker_10, # of connection points: 2
#     Edge 12, Type (0, 0), BuildingBlock: TEMPAE_clean_linker_10, # of connection points: 2
#     Edge 13, Type (0, 0), BuildingBlock: TEMPAE_clean_linker_10, # of connection points: 2
#     Edge 14, Type (0, 0), BuildingBlock: TEMPAE_clean_linker_10, # of connection points: 2
#     Edge 15, Type (0, 0), BuildingBlock: TEMPAE_clean_linker_10, # of connection points: 2
#     Edge 16, Type (0, 0), BuildingBlock: TEMPAE_clean_linker_10, # of connection points: 2
#     Edge 17, Type (0, 0), BuildingBlock: TEMPAE_clean_linker_10, # of connection points: 2
# Relax obj value: 0.296
# Max RMSD: 0.247
# Mean RMSD: 0.243
data_MOF--net-npo--node1-CEKHIL_clean_sbu_0--edge1-TEMPAE_clean_linker_10
_symmetry_space_group_name_H-M    P1
_symmetry_Int_Tables_number       1
_symmetry_cell_setting            triclinic
loop_
_symmetry_equiv_pos_as_xyz
'x, y, z'
_cell_length_a     45.373064
_cell_length_b     44.644029
_cell_length_c     23.981289
_cell_angle_alpha  91.238317
_cell_angle_beta   89.962574
_cell_angle_gamma 120.36938
loop_
_atom_site_label
_atom_site_type_symbol
_atom_site_fract_x
_atom_site_fract_y
_atom_site_fract_z
_atom_type_partial_charge
Co0 Co 0.53166 0.09688 0.25964 0.0
O1 O 0.49466 0.05607 0.29254 0.0
O2 O 0.54948 0.08002 0.31544 0.0
C3 C 0.5075 0.13002 0.26337 0.0
O4 O 0.57677 0.13915 0.24001 0.0
Co5 Co 0.52684 0.12979 0.14976 0.0
O6 O 0.56859 0.17154 0.17881 0.0
C7 C 0.53588 0.06845 0.14592 0.0
C8 C 0.51801 0.05648 0.32459 0.0
C9 C 0.58707 0.16775 0.21459 0.0
O10 O 0.53687 0.06767 0.19947 0.0
O11 O 0.53105 0.09012 0.11913 0.0
O12 O 0.52194 0.12646 0.30752 0.0
O13 O 0.50525 0.11102 0.22038 0.0
Co14 Co 0.43902 0.55501 0.75565 0.0
O15 O 0.4779 0.55543 0.72252 0.0
O16 O 0.42433 0.51291 0.71151 0.0
C17 C 0.45292 0.609 0.73218 0.0
O18 O 0.39199 0.54701 0.77833 0.0
Co19 Co 0.44728 0.60676 0.85195 0.0
O20 O 0.40055 0.59407 0.82824 0.0
C21 C 0.45279 0.54527 0.87707 0.0
C22 C 0.45623 0.5263 0.69775 0.0
C23 C 0.38117 0.56641 0.79997 0.0
O24 O 0.44425 0.53332 0.82638 0.0
O25 O 0.45744 0.57483 0.89341 0.0
O26 O 0.43853 0.58359 0.69575 0.0
O27 O 0.46202 0.60169 0.77855 0.0
Co28 Co 0.86921 0.41453 0.22448 0.0
O29 O 0.90775 0.41376 0.25615 0.0
O30 O 0.89725 0.45677 0.26785 0.0
C31 C 0.82948 0.3609 0.24939 0.0
O32 O 0.83014 0.42283 0.20316 0.0
Co33 Co 0.82476 0.36236 0.12951 0.0
O34 O 0.79129 0.37579 0.15384 0.0
C35 C 0.89152 0.42321 0.10246 0.0
C36 C 0.91562 0.44303 0.28092 0.0
C37 C 0.79987 0.40361 0.18196 0.0
O38 O 0.89529 0.4356 0.15292 0.0
O39 O 0.86651 0.3936 0.08692 0.0
O40 O 0.84094 0.38657 0.28539 0.0
O41 O 0.84521 0.36774 0.20239 0.0
Co42 Co 0.41629 0.87189 0.732 0.0
O43 O 0.4206 0.91309 0.69951 0.0
O44 O 0.45262 0.88989 0.67914 0.0
C45 C 0.35936 0.83857 0.7236 0.0
O46 O 0.41902 0.82955 0.75181 0.0
Co47 Co 0.37525 0.83725 0.8388 0.0
O48 O 0.37756 0.79629 0.811 0.0
C49 C 0.44367 0.90054 0.84778 0.0
C50 C 0.44461 0.91339 0.66934 0.0
C51 C 0.40069 0.80071 0.7765 0.0
O52 O 0.44846 0.90022 0.79494 0.0
O53 O 0.4159 0.8794 0.87201 0.0
O54 O 0.37871 0.84284 0.68098 0.0
O55 O 0.37463 0.85693 0.76782 0.0
Co56 Co 0.52502 0.40705 0.25047 0.0
O57 O 0.48705 0.40868 0.21764 0.0
O58 O 0.54144 0.44825 0.20667 0.0
C59 C 0.50566 0.35113 0.22658 0.0
O60 O 0.57145 0.41327 0.27245 0.0
Co61 Co 0.51745 0.35675 0.34437 0.0
O62 O 0.56256 0.36599 0.31772 0.0
C63 C 0.51547 0.42086 0.37224 0.0
C64 C 0.50964 0.43658 0.19318 0.0
C65 C 0.58201 0.39343 0.29124 0.0
O66 O 0.52264 0.43158 0.32161 0.0
O67 O 0.51064 0.39142 0.38748 0.0
O68 O 0.52195 0.3752 0.19045 0.0
O69 O 0.49977 0.36127 0.27381 0.0
Co70 Co 0.10154 0.56061 0.72879 0.0
O71 O 0.06152 0.55861 0.76066 0.0
O72 O 0.07717 0.51963 0.77306 0.0
C73 C 0.13722 0.61676 0.75193 0.0
O74 O 0.1422 0.55482 0.70807 0.0
Co75 Co 0.14422 0.61056 0.63454 0.0
O76 O 0.18026 0.60178 0.66199 0.0
C77 C 0.0789 0.54592 0.60688 0.0
C78 C 0.05658 0.53096 0.78572 0.0
C79 C 0.1725 0.57461 0.68917 0.0
O80 O 0.07524 0.53551 0.6577 0.0
O81 O 0.10327 0.57535 0.5914 0.0
O82 O 0.12961 0.593 0.78862 0.0
O83 O 0.12151 0.60617 0.70458 0.0
C84 C 0.51978 0.18902 0.2934 0.0
C85 C 0.50288 0.16012 0.25716 0.0
C86 C 0.51898 0.21944 0.28375 0.0
C87 C 0.50037 0.22063 0.2373 0.0
C88 C 0.48261 0.19123 0.20133 0.0
C89 C 0.48426 0.16133 0.21153 0.0
C90 C 0.53853 0.25051 0.32268 0.0
C91 C 0.46222 0.19152 0.15182 0.0
C92 C 0.47543 0.28925 0.25099 0.0
C93 C 0.50107 0.31625 0.22055 0.0
C94 C 0.47386 0.25725 0.25436 0.0
C95 C 0.49897 0.25251 0.22739 0.0
C96 C 0.5241 0.27921 0.1945 0.0
C97 C 0.52468 0.31084 0.19106 0.0
C98 C 0.44643 0.22923 0.28922 0.0
C99 C 0.55155 0.27514 0.16577 0.0
H100 H 0.53459 0.18831 0.32827 0.0
H101 H 0.47128 0.13898 0.18337 0.0
H102 H 0.55762 0.27309 0.29892 0.0
H103 H 0.52083 0.25794 0.34194 0.0
H104 H 0.55206 0.24543 0.35647 0.0
H105 H 0.44939 0.16625 0.12846 0.0
H106 H 0.44251 0.19765 0.16586 0.0
H107 H 0.47923 0.21212 0.12293 0.0
H108 H 0.45718 0.29357 0.27373 0.0
H109 H 0.54479 0.33198 0.16816 0.0
H110 H 0.45823 0.22535 0.32683 0.0
H111 H 0.43341 0.20418 0.2654 0.0
H112 H 0.42696 0.23584 0.30291 0.0
H113 H 0.5687 0.27399 0.19755 0.0
H114 H 0.56723 0.297 0.13778 0.0
H115 H 0.54003 0.25046 0.14099 0.0
C116 C 0.32694 0.53713 0.74257 0.0
C117 C 0.3458 0.5586 0.78809 0.0
C118 C 0.29611 0.53471 0.72542 0.0
C119 C 0.28386 0.55411 0.75462 0.0
C120 C 0.30183 0.57426 0.8024 0.0
C121 C 0.33248 0.57626 0.81848 0.0
C122 C 0.27776 0.51306 0.67414 0.0
C123 C 0.28967 0.59527 0.83492 0.0
C124 C 0.23305 0.5881 0.68098 0.0
C125 C 0.19992 0.56654 0.70105 0.0
C126 C 0.2602 0.5833 0.69624 0.0
C127 C 0.25428 0.55628 0.73258 0.0
C128 C 0.22072 0.53354 0.75129 0.0
C129 C 0.19393 0.53893 0.73533 0.0
C130 C 0.29561 0.60832 0.67557 0.0
C131 C 0.21338 0.50446 0.79009 0.0
H132 H 0.33709 0.52358 0.71857 0.0
H133 H 0.3467 0.5928 0.85391 0.0
H134 H 0.25006 0.49635 0.68218 0.0
H135 H 0.28043 0.53042 0.63966 0.0
H136 H 0.28812 0.49634 0.66016 0.0
H137 H 0.30515 0.60754 0.87338 0.0
H138 H 0.29114 0.61607 0.80849 0.0
H139 H 0.26256 0.57856 0.84674 0.0
H140 H 0.23813 0.6095 0.65444 0.0
H141 H 0.1685 0.5221 0.75113 0.0
H142 H 0.30768 0.59399 0.65791 0.0
H143 H 0.31186 0.62466 0.71106 0.0
H144 H 0.29543 0.62571 0.64329 0.0
H145 H 0.22441 0.48887 0.77361 0.0
H146 H 0.18555 0.48695 0.79631 0.0
H147 H 0.22563 0.51552 0.83129 0.0
C148 C 0.64342 0.19224 0.26342 0.0
C149 C 0.62213 0.19667 0.22621 0.0
C150 C 0.67716 0.21872 0.27337 0.0
C151 C 0.68989 0.25038 0.24542 0.0
C152 C 0.66827 0.25564 0.20945 0.0
C153 C 0.63459 0.22864 0.20015 0.0
C154 C 0.6995 0.21242 0.31236 0.0
C155 C 0.68103 0.28929 0.17921 0.0
C156 C 0.77222 0.33011 0.2935 0.0
C157 C 0.79525 0.33021 0.25439 0.0
C158 C 0.73777 0.30385 0.29184 0.0
C159 C 0.72648 0.27706 0.25059 0.0
C160 C 0.74999 0.27625 0.21271 0.0
C161 C 0.78415 0.3029 0.21509 0.0
C162 C 0.71331 0.30533 0.33301 0.0
C163 C 0.7388 0.248 0.1682 0.0
H164 H 0.63396 0.16778 0.28425 0.0
H165 H 0.61822 0.23246 0.17186 0.0
H166 H 0.72043 0.21233 0.28854 0.0
H167 H 0.71153 0.23367 0.34431 0.0
H168 H 0.685 0.18731 0.33386 0.0
H169 H 0.65988 0.29115 0.1595 0.0
H170 H 0.69531 0.31193 0.20814 0.0
H171 H 0.69897 0.29117 0.14615 0.0
H172 H 0.78072 0.35134 0.32375 0.0
H173 H 0.80198 0.30298 0.18488 0.0
H174 H 0.70342 0.2828 0.36083 0.0
H175 H 0.69101 0.30351 0.31079 0.0
H176 H 0.72556 0.32955 0.35912 0.0
H177 H 0.72549 0.22209 0.18736 0.0
H178 H 0.7606 0.25033 0.14365 0.0
H179 H 0.72039 0.24919 0.13918 0.0
C180 C 0.3881 0.7398 0.78962 0.0
C181 C 0.40748 0.77213 0.76464 0.0
C182 C 0.39514 0.713 0.77929 0.0
C183 C 0.42218 0.71881 0.74329 0.0
C184 C 0.44108 0.7509 0.7166 0.0
C185 C 0.43353 0.77718 0.72763 0.0
C186 C 0.37422 0.6788 0.80793 0.0
C187 C 0.46988 0.75782 0.67757 0.0
C188 C 0.46473 0.66628 0.7694 0.0
C189 C 0.44894 0.63963 0.72892 0.0
C190 C 0.45664 0.69257 0.77378 0.0
C191 C 0.43225 0.69219 0.7366 0.0
C192 C 0.41719 0.66612 0.69417 0.0
C193 C 0.4259 0.64016 0.6906 0.0
C194 C 0.47322 0.72001 0.81956 0.0
C195 C 0.3914 0.66523 0.65337 0.0
H196 H 0.36766 0.7355 0.81768 0.0
H197 H 0.44845 0.80191 0.70759 0.0
H198 H 0.36428 0.65692 0.777 0.0
H199 H 0.39064 0.67505 0.83789 0.0
H200 H 0.35232 0.67744 0.83091 0.0
H201 H 0.48065 0.78339 0.65744 0.0
H202 H 0.49067 0.75724 0.70095 0.0
H203 H 0.46081 0.73721 0.64451 0.0
H204 H 0.48258 0.6659 0.79902 0.0
H205 H 0.41352 0.61947 0.65939 0.0
H206 H 0.45342 0.71831 0.84864 0.0
H207 H 0.48584 0.74628 0.80163 0.0
H208 H 0.49252 0.71723 0.84381 0.0
H209 H 0.37143 0.66796 0.67564 0.0
H210 H 0.37884 0.64083 0.62767 0.0
H211 H 0.40435 0.68747 0.62508 0.0
C212 C 0.62866 0.37913 0.29747 0.0
C213 C 0.61762 0.40175 0.28006 0.0
C214 C 0.66081 0.38435 0.28273 0.0
C215 C 0.68271 0.41291 0.24965 0.0
C216 C 0.67242 0.43665 0.23372 0.0
C217 C 0.63998 0.43078 0.24903 0.0
C218 C 0.67058 0.3582 0.30034 0.0
C219 C 0.69505 0.46743 0.19852 0.0
C220 C 0.77433 0.43147 0.24178 0.0
C221 C 0.77256 0.41177 0.19416 0.0
C222 C 0.74575 0.43359 0.25908 0.0
C223 C 0.71483 0.41578 0.22783 0.0
C224 C 0.71362 0.39763 0.17797 0.0
C225 C 0.74239 0.39581 0.16185 0.0
C226 C 0.748 0.45302 0.31266 0.0
C227 C 0.68128 0.37834 0.1432 0.0
H228 H 0.61174 0.35658 0.32138 0.0
H229 H 0.63183 0.44847 0.23536 0.0
H230 H 0.67068 0.34302 0.26319 0.0
H231 H 0.69671 0.37151 0.31877 0.0
H232 H 0.65257 0.33978 0.3311 0.0
H233 H 0.68495 0.48535 0.19439 0.0
H234 H 0.7212 0.4821 0.21677 0.0
H235 H 0.6972 0.4582 0.1562 0.0
H236 H 0.79739 0.44362 0.26727 0.0
H237 H 0.74078 0.38067 0.12482 0.0
H238 H 0.73266 0.43418 0.34507 0.0
H239 H 0.73719 0.47016 0.30675 0.0
H240 H 0.77473 0.469 0.3283 0.0
H241 H 0.66164 0.35597 0.16666 0.0
H242 H 0.68549 0.36837 0.10294 0.0
H243 H 0.67081 0.39549 0.13442 0.0
C244 C 0.30301 0.8075 0.76969 0.0
C245 C 0.32462 0.80849 0.7271 0.0
C246 C 0.27132 0.77756 0.778 0.0
C247 C 0.26141 0.74789 0.74334 0.0
C248 C 0.28297 0.74889 0.69981 0.0
C249 C 0.31428 0.77938 0.69187 0.0
C250 C 0.24871 0.7775 0.82428 0.0
C251 C 0.2733 0.71751 0.66242 0.0
C252 C 0.19532 0.65811 0.79027 0.0
C253 C 0.1671 0.65184 0.7577 0.0
C254 C 0.22613 0.68988 0.78744 0.0
C255 C 0.22824 0.71582 0.75188 0.0
C256 C 0.19912 0.71021 0.72149 0.0
C257 C 0.16893 0.67813 0.72449 0.0
C258 C 0.25686 0.69493 0.81999 0.0
C259 C 0.20032 0.73743 0.68368 0.0
H260 H 0.3111 0.83004 0.79703 0.0
H261 H 0.3312 0.77996 0.65944 0.0
H262 H 0.22327 0.77058 0.80715 0.0
H263 H 0.2446 0.75754 0.85496 0.0
H264 H 0.25981 0.80309 0.84649 0.0
H265 H 0.29304 0.72257 0.63069 0.0
H266 H 0.26952 0.69539 0.68785 0.0
H267 H 0.24875 0.70941 0.64059 0.0
H268 H 0.19396 0.63756 0.81543 0.0
H269 H 0.14697 0.67318 0.6994 0.0
H270 H 0.26859 0.71979 0.8443 0.0
H271 H 0.27644 0.69635 0.79068 0.0
H272 H 0.25026 0.67343 0.84905 0.0
H273 H 0.2111 0.76278 0.70639 0.0
H274 H 0.17466 0.73017 0.66698 0.0
H275 H 0.21732 0.74107 0.64801 0.0
C276 C 0.46739 0.9572 0.89568 0.0
C277 C 0.47011 0.92807 0.88304 0.0
C278 C 0.48605 0.97968 0.94009 0.0
C279 C 0.50812 0.97279 0.97219 0.0
C280 C 0.51287 0.94474 0.95671 0.0
C281 C 0.49328 0.92225 0.91253 0.0
C282 C 0.48016 0.0093 0.95506 0.0
C283 C 0.53683 0.93709 0.98871 0.0
C284 C 0.55856 0.05058 0.06624 0.0
C285 C 0.53688 0.04124 0.11221 0.0
C286 C 0.55234 0.02653 0.02281 0.0
C287 C 0.52296 -0.00691 0.0248 0.0
C288 C 0.50337 0.98248 0.07414 0.0
C289 C 0.51089 0.00676 0.11781 0.0
C290 C 0.57488 0.03816 0.97224 0.0
C291 C 0.47186 0.947 0.078 0.0
H292 H 0.44896 0.96111 0.87301 0.0
H293 H 0.49482 0.89924 0.90286 0.0
H294 H 0.46868 0.00538 -0.00292 0.0
H295 H 0.50478 0.03423 0.9566 0.0
H296 H 0.46291 0.01156 0.92477 0.0
H297 H 0.54498 0.92168 0.9628 0.0
H298 H 0.55986 0.96135 0.00357 0.0
H299 H 0.52356 0.92172 0.02575 0.0
H300 H 0.57886 0.07734 0.06237 0.0
H301 H 0.49412 -0.00023 0.15344 0.0
H302 H 0.56282 0.04572 0.93944 0.0
H303 H 0.57816 0.0168 0.95481 0.0
H304 H 0.60044 0.06092 0.98235 0.0
H305 H 0.45136 0.94569 0.05099 0.0
H306 H 0.46224 0.94122 0.12134 0.0
H307 H 0.47716 0.92656 0.06296 0.0
C308 C 0.51864 0.43794 0.47227 0.0
C309 C 0.51215 0.44253 0.41676 0.0
C310 C 0.51105 0.4535 0.51692 0.0
C311 C 0.49663 0.47443 0.50616 0.0
C312 C 0.49153 0.48068 0.45016 0.0
C313 C 0.49945 0.46467 0.40592 0.0
C314 C 0.51724 0.44634 0.57579 0.0
C315 C 0.47649 0.50314 0.43709 0.0
C316 C 0.4435 0.48043 0.62411 0.0
C317 C 0.46687 0.51202 0.65053 0.0
C318 C 0.4526 0.46829 0.5763 0.0
C319 C 0.48578 0.48838 0.55402 0.0
C320 C 0.5094 0.52039 0.58033 0.0
C321 C 0.49975 0.5317 0.6284 0.0
C322 C 0.42683 0.43376 0.54993 0.0
C323 C 0.54494 0.54264 0.55781 0.0
H324 H 0.52893 0.42125 0.48103 0.0
H325 H 0.49428 0.46823 0.36319 0.0
H326 H 0.53328 0.47108 0.59936 0.0
H327 H 0.49255 0.43206 0.59778 0.0
H328 H 0.53003 0.43072 0.57694 0.0
H329 H 0.47688 0.50792 0.39175 0.0
H330 H 0.44964 0.49033 0.45133 0.0
H331 H 0.49072 0.52849 0.45989 0.0
H332 H 0.41798 0.46523 0.64064 0.0
H333 H 0.51787 0.55639 0.64805 0.0
H334 H 0.4366 0.41548 0.55167 0.0
H335 H 0.42295 0.43703 0.5053 0.0
H336 H 0.40173 0.42189 0.57104 0.0
H337 H 0.5592 0.52855 0.56008 0.0
H338 H 0.55962 0.56775 0.58124 0.0
H339 H 0.54356 0.54804 0.51324 0.0
C340 C 0.01483 0.53297 0.85183 0.0
C341 C 0.03174 0.51596 0.83171 0.0
C342 C -0.00643 0.52094 0.89856 0.0
C343 C -0.01118 0.49096 0.92564 0.0
C344 C 0.00576 0.47363 0.90546 0.0
C345 C 0.02707 0.48638 0.85888 0.0
C346 C 0.97601 0.54017 0.91874 0.0
C347 C 0.00107 0.44136 0.93274 0.0
C348 C 0.95037 0.46879 0.07134 0.0
C349 C 0.91648 0.44341 0.05857 0.0
C350 C 0.97426 0.4851 0.02852 0.0
C351 C 0.96385 0.47593 0.9719 0.0
C352 C 0.9294 0.45129 0.95901 0.0
C353 C 0.90627 0.43544 0.00228 0.0
C354 C 0.0108 0.51141 0.04383 0.0
C355 C 0.91703 0.44092 0.89935 0.0
H356 H 0.0186 0.5561 0.83156 0.0
H357 H 0.04024 0.47324 0.84392 0.0
H358 H 0.94791 0.52308 0.91455 0.0
H359 H 0.98186 0.54737 0.96362 0.0
H360 H -0.01616 0.56413 0.89507 0.0
H361 H 0.01719 0.4318 0.9136 0.0
H362 H 0.00748 0.44662 0.97785 0.0
H363 H 0.97392 0.4204 0.92915 0.0
H364 H 0.95847 0.47508 0.11462 0.0
H365 H 0.88002 0.41628 0.99178 0.0
H366 H 0.01911 0.5359 0.02157 0.0
H367 H 0.02773 0.50142 0.0305 0.0
H368 H 0.01438 0.51728 0.0894 0.0
H369 H 0.92281 0.46419 0.87533 0.0
H370 H 0.88913 0.42221 0.89637 0.0
H371 H 0.93065 0.42888 0.8791 0.0
C372 C 0.53317 0.04267 0.41643 0.0
C373 C 0.50915 0.03389 0.37319 0.0
C374 C 0.52436 0.02395 0.46577 0.0
C375 C 0.49094 -0.00467 0.4715 0.0
C376 C 0.4669 -0.01441 0.42723 0.0
C377 C 0.47621 0.00526 0.37873 0.0
C378 C 0.55052 0.03541 0.51237 0.0
C379 C 0.43123 0.95471 0.43145 0.0
C380 C 0.47586 0.92848 0.57959 0.0
C381 C 0.45934 0.93657 0.62165 0.0
C382 C 0.48645 0.94751 0.53059 0.0
C383 C 0.481 0.97575 0.52406 0.0
C384 C 0.46553 0.98492 0.56731 0.0
C385 C 0.45453 0.96495 0.61545 0.0
C386 C 0.50243 0.93666 0.48507 0.0
C387 C 0.46005 0.01542 0.56228 0.0
H388 H 0.55861 0.065 0.41257 0.0
H389 H 0.45762 -0.00161 0.34534 0.0
H390 H 0.54105 0.04261 0.55007 0.0
H391 H 0.5545 0.01375 0.52375 0.0
H392 H 0.57554 0.05799 0.50098 0.0
H393 H 0.41617 0.94959 0.3923 0.0
H394 H 0.43239 0.93115 0.44132 0.0
H395 H 0.41752 0.9592 0.46596 0.0
H396 H 0.4794 0.90637 0.58396 0.0
H397 H 0.44182 0.9713 0.64794 0.0
H398 H 0.52787 0.95875 0.47441 0.0
H399 H 0.4863 0.92906 0.44675 0.0
H400 H 0.50548 0.9145 0.4972 0.0
H401 H 0.48454 0.03921 0.55283 0.0
H402 H 0.44948 0.02032 0.60094 0.0
H403 H 0.44215 0.01059 0.52719 0.0
C404 C 0.45385 0.53147 0.97677 0.0
C405 C 0.45731 0.52458 0.92041 0.0
C406 C 0.46111 0.51543 0.01982 0.0
C407 C 0.47218 0.49171 0.00661 0.0
C408 C 0.4746 0.48355 0.94985 0.0
C409 C 0.46699 0.50003 0.90725 0.0
C410 C 0.45782 0.52469 0.0796 0.0
C411 C 0.48616 0.45823 0.93421 0.0
C412 C 0.52452 0.48171 0.12094 0.0
C413 C 0.49987 0.45153 0.14694 0.0
C414 C 0.51606 0.49452 0.07428 0.0
C415 C 0.48217 0.47661 0.05277 0.0
C416 C 0.45725 0.44598 0.07859 0.0
C417 C 0.46634 0.43392 0.12547 0.0
C418 C 0.5433 0.52751 0.04839 0.0
C419 C 0.42088 0.42609 0.05695 0.0
H420 H 0.44584 0.54997 0.98749 0.0
H421 H 0.46975 0.49459 0.8639 0.0
H422 H 0.44057 0.50088 0.1026 0.0
H423 H 0.48315 0.53711 0.1008 0.0
H424 H 0.44773 0.54273 0.08277 0.0
H425 H 0.48456 0.45292 0.8885 0.0
H426 H 0.513 0.46881 0.94823 0.0
H427 H 0.4704 0.43334 0.95564 0.0
H428 H 0.55053 0.49531 0.13694 0.0
H429 H 0.4472 0.41032 0.14481 0.0
H430 H 0.53621 0.54789 0.05226 0.0
H431 H 0.54528 0.52297 0.00324 0.0
H432 H 0.56876 0.53746 0.06838 0.0
H433 H 0.40896 0.44243 0.06129 0.0
H434 H 0.40506 0.40164 0.07958 0.0
H435 H 0.42046 0.41966 0.01191 0.0
C436 C 0.06567 0.52777 0.50722 0.0
C437 C 0.05421 0.52401 0.56244 0.0
C438 C 0.04281 0.51253 0.46229 0.0
C439 C 0.00738 0.4928 0.47253 0.0
C440 C -0.00437 0.48721 0.52834 0.0
C441 C 0.01927 0.50287 0.57285 0.0
C442 C 0.05656 0.51893 0.40364 0.0
C443 C 0.95803 0.46596 0.54085 0.0
C444 C 0.94987 0.48896 0.35373 0.0
C445 C 0.94065 0.45691 0.32783 0.0
C446 C 0.97106 0.50065 0.40151 0.0
C447 C 0.98296 0.47959 0.42434 0.0
C448 C 0.97359 0.44715 0.3985 0.0
C449 C 0.95279 0.43634 0.35038 0.0
C450 C 0.98094 0.53567 0.42734 0.0
C451 C -0.01446 0.42385 0.42169 0.0
H452 H 0.09274 0.54371 0.49891 0.0
H453 H 0.01029 0.5 0.61538 0.0
H454 H 0.04709 0.49394 0.38035 0.0
H455 H 0.0473 0.5341 0.38107 0.0
H456 H 0.08493 0.5334 0.40297 0.0
H457 H 0.95327 0.46127 0.58615 0.0
H458 H 0.94496 0.47974 0.52628 0.0
H459 H 0.94631 0.44057 0.51804 0.0
H460 H 0.94037 0.50485 0.33683 0.0
H461 H 0.94542 0.41129 0.33114 0.0
H462 H 0.00909 0.55294 0.42607 0.0
H463 H 0.97347 0.53284 0.47182 0.0
H464 H 0.96879 0.54846 0.40555 0.0
H465 H 0.0138 0.43698 0.42003 0.0
H466 H 0.97458 0.39864 0.39836 0.0
H467 H 0.97831 0.41866 0.46615 0.0
loop_
_geom_bond_atom_site_label_1
_geom_bond_atom_site_label_2
_geom_bond_distance
_geom_bond_site_symmetry_2
_ccdc_geom_bond_type
Co0 O1 2.216 . S
Co0 O2 2.091 . S
Co0 O4 2.004 . S
Co0 O10 2.021 . S
Co0 O12 2.137 . S
Co0 O13 2.244 . S
O1 Co0 2.216 . S
O1 C8 1.247 . S
O2 Co0 2.091 . S
O2 C8 1.261 . S
C3 O12 1.247 . S
C3 O13 1.272 . S
O4 Co0 2.004 . S
O4 C9 1.259 . S
Co5 O6 2.061 . S
Co5 O11 2.052 . S
Co5 O13 2.135 . S
O6 Co5 2.061 . S
O6 C9 1.235 . S
C7 O10 1.238 . S
C7 O11 1.241 . S
C8 O1 1.247 . S
C8 O2 1.261 . S
C9 O4 1.259 . S
C9 O6 1.235 . S
O10 Co0 2.021 . S
O10 C7 1.238 . S
O11 Co5 2.052 . S
O11 C7 1.241 . S
O12 Co0 2.137 . S
O12 C3 1.247 . S
O13 Co0 2.244 . S
O13 C3 1.272 . S
O13 Co5 2.135 . S
Co14 O15 2.216 . S
Co14 O16 2.091 . S
Co14 O18 2.004 . S
Co14 O24 2.021 . S
Co14 O26 2.137 . S
Co14 O27 2.244 . S
O15 Co14 2.216 . S
O15 C22 1.247 . S
O16 Co14 2.091 . S
O16 C22 1.261 . S
C17 O26 1.247 . S
C17 O27 1.272 . S
O18 Co14 2.004 . S
O18 C23 1.259 . S
Co19 O20 2.061 . S
Co19 O25 2.052 . S
Co19 O27 2.135 . S
O20 Co19 2.061 . S
O20 C23 1.235 . S
C21 O24 1.238 . S
C21 O25 1.241 . S
C22 O15 1.247 . S
C22 O16 1.261 . S
C23 O18 1.259 . S
C23 O20 1.235 . S
O24 Co14 2.021 . S
O24 C21 1.238 . S
O25 Co19 2.052 . S
O25 C21 1.241 . S
O26 Co14 2.137 . S
O26 C17 1.247 . S
O27 Co14 2.244 . S
O27 C17 1.272 . S
O27 Co19 2.135 . S
Co28 O29 2.216 . S
Co28 O30 2.091 . S
Co28 O32 2.004 . S
Co28 O38 2.021 . S
Co28 O40 2.137 . S
Co28 O41 2.244 . S
O29 Co28 2.216 . S
O29 C36 1.247 . S
O30 Co28 2.091 . S
O30 C36 1.261 . S
C31 O40 1.247 . S
C31 O41 1.272 . S
O32 Co28 2.004 . S
O32 C37 1.259 . S
Co33 O34 2.061 . S
Co33 O39 2.052 . S
Co33 O41 2.135 . S
O34 Co33 2.061 . S
O34 C37 1.235 . S
C35 O38 1.238 . S
C35 O39 1.241 . S
C36 O29 1.247 . S
C36 O30 1.261 . S
C37 O32 1.259 . S
C37 O34 1.235 . S
O38 Co28 2.021 . S
O38 C35 1.238 . S
O39 Co33 2.052 . S
O39 C35 1.241 . S
O40 Co28 2.137 . S
O40 C31 1.247 . S
O41 Co28 2.244 . S
O41 C31 1.272 . S
O41 Co33 2.135 . S
Co42 O43 2.216 . S
Co42 O44 2.091 . S
Co42 O46 2.004 . S
Co42 O52 2.021 . S
Co42 O54 2.137 . S
Co42 O55 2.244 . S
O43 Co42 2.216 . S
O43 C50 1.247 . S
O44 Co42 2.091 . S
O44 C50 1.261 . S
C45 O54 1.247 . S
C45 O55 1.272 . S
O46 Co42 2.004 . S
O46 C51 1.259 . S
Co47 O48 2.061 . S
Co47 O53 2.052 . S
Co47 O55 2.135 . S
O48 Co47 2.061 . S
O48 C51 1.235 . S
C49 O52 1.238 . S
C49 O53 1.241 . S
C50 O43 1.247 . S
C50 O44 1.261 . S
C51 O46 1.259 . S
C51 O48 1.235 . S
O52 Co42 2.021 . S
O52 C49 1.238 . S
O53 Co47 2.052 . S
O53 C49 1.241 . S
O54 Co42 2.137 . S
O54 C45 1.247 . S
O55 Co42 2.244 . S
O55 C45 1.272 . S
O55 Co47 2.135 . S
Co56 O57 2.216 . S
Co56 O58 2.091 . S
Co56 O60 2.004 . S
Co56 O66 2.021 . S
Co56 O68 2.137 . S
Co56 O69 2.244 . S
O57 Co56 2.216 . S
O57 C64 1.247 . S
O58 Co56 2.091 . S
O58 C64 1.261 . S
C59 O68 1.247 . S
C59 O69 1.272 . S
O60 Co56 2.004 . S
O60 C65 1.259 . S
Co61 O62 2.061 . S
Co61 O67 2.052 . S
Co61 O69 2.135 . S
O62 Co61 2.061 . S
O62 C65 1.235 . S
C63 O66 1.238 . S
C63 O67 1.241 . S
C64 O57 1.247 . S
C64 O58 1.261 . S
C65 O60 1.259 . S
C65 O62 1.235 . S
O66 Co56 2.021 . S
O66 C63 1.238 . S
O67 Co61 2.052 . S
O67 C63 1.241 . S
O68 Co56 2.137 . S
O68 C59 1.247 . S
O69 Co56 2.244 . S
O69 C59 1.272 . S
O69 Co61 2.135 . S
Co70 O71 2.216 . S
Co70 O72 2.091 . S
Co70 O74 2.004 . S
Co70 O80 2.021 . S
Co70 O82 2.137 . S
Co70 O83 2.244 . S
O71 Co70 2.216 . S
O71 C78 1.247 . S
O72 Co70 2.091 . S
O72 C78 1.261 . S
C73 O82 1.247 . S
C73 O83 1.272 . S
O74 Co70 2.004 . S
O74 C79 1.259 . S
Co75 O76 2.061 . S
Co75 O81 2.052 . S
Co75 O83 2.135 . S
O76 Co75 2.061 . S
O76 C79 1.235 . S
C77 O80 1.238 . S
C77 O81 1.241 . S
C78 O71 1.247 . S
C78 O72 1.261 . S
C79 O74 1.259 . S
C79 O76 1.235 . S
O80 Co70 2.021 . S
O80 C77 1.238 . S
O81 Co75 2.052 . S
O81 C77 1.241 . S
O82 Co70 2.137 . S
O82 C73 1.247 . S
O83 Co70 2.244 . S
O83 C73 1.272 . S
O83 Co75 2.135 . S
C84 C85 1.391 . S
C84 C86 1.394 . S
C84 H100 0.931 . S
C85 C84 1.391 . S
C85 C89 1.376 . S
C86 C84 1.394 . S
C86 C87 1.369 . S
C86 C90 1.531 . S
C87 C86 1.369 . S
C87 C88 1.410 . S
C87 C95 1.503 . S
C88 C87 1.410 . S
C88 C89 1.392 . S
C88 C91 1.511 . S
C89 C85 1.376 . S
C89 C88 1.392 . S
C89 H101 0.929 . S
C90 C86 1.531 . S
C90 H102 0.960 . S
C90 H103 0.962 . S
C90 H104 0.960 . S
C91 C88 1.511 . S
C91 H105 0.961 . S
C91 H106 0.961 . S
C91 H107 0.961 . S
C92 C93 1.370 . S
C92 C94 1.363 . S
C92 H108 0.931 . S
C93 C92 1.370 . S
C93 C97 1.408 . S
C94 C92 1.363 . S
C94 C95 1.370 . S
C94 C98 1.524 . S
C95 C87 1.503 . S
C95 C94 1.370 . S
C95 C96 1.403 . S
C96 C95 1.403 . S
C96 C97 1.404 . S
C96 C99 1.539 . S
C97 C93 1.408 . S
C97 C96 1.404 . S
C97 H109 0.930 . S
C98 C94 1.524 . S
C98 H110 0.956 . S
C98 H111 0.961 . S
C98 H112 0.961 . S
C99 C96 1.539 . S
C99 H113 0.958 . S
C99 H114 0.961 . S
C99 H115 0.960 . S
H100 C84 0.931 . S
H101 C89 0.929 . S
H102 C90 0.960 . S
H103 C90 0.962 . S
H104 C90 0.960 . S
H105 C91 0.961 . S
H106 C91 0.961 . S
H107 C91 0.961 . S
H108 C92 0.931 . S
H109 C97 0.930 . S
H110 C98 0.956 . S
H111 C98 0.961 . S
H112 C98 0.961 . S
H113 C99 0.958 . S
H114 C99 0.961 . S
H115 C99 0.960 . S
C116 C117 1.391 . S
C116 C118 1.394 . S
C116 H132 0.931 . S
C117 C116 1.391 . S
C117 C121 1.376 . S
C118 C116 1.394 . S
C118 C119 1.369 . S
C118 C122 1.531 . S
C119 C118 1.369 . S
C119 C120 1.410 . S
C119 C127 1.503 . S
C120 C119 1.410 . S
C120 C121 1.392 . S
C120 C123 1.511 . S
C121 C117 1.376 . S
C121 C120 1.392 . S
C121 H133 0.929 . S
C122 C118 1.531 . S
C122 H134 0.960 . S
C122 H135 0.962 . S
C122 H136 0.960 . S
C123 C120 1.511 . S
C123 H137 0.961 . S
C123 H138 0.961 . S
C123 H139 0.961 . S
C124 C125 1.370 . S
C124 C126 1.363 . S
C124 H140 0.931 . S
C125 C124 1.370 . S
C125 C129 1.408 . S
C126 C124 1.363 . S
C126 C127 1.370 . S
C126 C130 1.524 . S
C127 C119 1.503 . S
C127 C126 1.370 . S
C127 C128 1.403 . S
C128 C127 1.403 . S
C128 C129 1.404 . S
C128 C131 1.539 . S
C129 C125 1.408 . S
C129 C128 1.404 . S
C129 H141 0.930 . S
C130 C126 1.524 . S
C130 H142 0.956 . S
C130 H143 0.961 . S
C130 H144 0.961 . S
C131 C128 1.539 . S
C131 H145 0.958 . S
C131 H146 0.961 . S
C131 H147 0.960 . S
H132 C116 0.931 . S
H133 C121 0.929 . S
H134 C122 0.960 . S
H135 C122 0.962 . S
H136 C122 0.960 . S
H137 C123 0.961 . S
H138 C123 0.961 . S
H139 C123 0.961 . S
H140 C124 0.931 . S
H141 C129 0.930 . S
H142 C130 0.956 . S
H143 C130 0.961 . S
H144 C130 0.961 . S
H145 C131 0.958 . S
H146 C131 0.961 . S
H147 C131 0.960 . S
C148 C149 1.391 . S
C148 C150 1.394 . S
C148 H164 0.931 . S
C149 C148 1.391 . S
C149 C153 1.376 . S
C150 C148 1.394 . S
C150 C151 1.369 . S
C150 C154 1.531 . S
C151 C150 1.369 . S
C151 C152 1.410 . S
C151 C159 1.503 . S
C152 C151 1.410 . S
C152 C153 1.392 . S
C152 C155 1.511 . S
C153 C149 1.376 . S
C153 C152 1.392 . S
C153 H165 0.929 . S
C154 C150 1.531 . S
C154 H166 0.960 . S
C154 H167 0.962 . S
C154 H168 0.960 . S
C155 C152 1.511 . S
C155 H169 0.961 . S
C155 H170 0.961 . S
C155 H171 0.961 . S
C156 C157 1.370 . S
C156 C158 1.363 . S
C156 H172 0.931 . S
C157 C156 1.370 . S
C157 C161 1.408 . S
C158 C156 1.363 . S
C158 C159 1.370 . S
C158 C162 1.524 . S
C159 C151 1.503 . S
C159 C158 1.370 . S
C159 C160 1.403 . S
C160 C159 1.403 . S
C160 C161 1.404 . S
C160 C163 1.539 . S
C161 C157 1.408 . S
C161 C160 1.404 . S
C161 H173 0.930 . S
C162 C158 1.524 . S
C162 H174 0.956 . S
C162 H175 0.961 . S
C162 H176 0.961 . S
C163 C160 1.539 . S
C163 H177 0.958 . S
C163 H178 0.961 . S
C163 H179 0.960 . S
H164 C148 0.931 . S
H165 C153 0.929 . S
H166 C154 0.960 . S
H167 C154 0.962 . S
H168 C154 0.960 . S
H169 C155 0.961 . S
H170 C155 0.961 . S
H171 C155 0.961 . S
H172 C156 0.931 . S
H173 C161 0.930 . S
H174 C162 0.956 . S
H175 C162 0.961 . S
H176 C162 0.961 . S
H177 C163 0.958 . S
H178 C163 0.961 . S
H179 C163 0.960 . S
C180 C181 1.391 . S
C180 C182 1.394 . S
C180 H196 0.931 . S
C181 C180 1.391 . S
C181 C185 1.376 . S
C182 C180 1.394 . S
C182 C183 1.369 . S
C182 C186 1.531 . S
C183 C182 1.369 . S
C183 C184 1.410 . S
C183 C191 1.503 . S
C184 C183 1.410 . S
C184 C185 1.392 . S
C184 C187 1.511 . S
C185 C181 1.376 . S
C185 C184 1.392 . S
C185 H197 0.929 . S
C186 C182 1.531 . S
C186 H198 0.960 . S
C186 H199 0.962 . S
C186 H200 0.960 . S
C187 C184 1.511 . S
C187 H201 0.961 . S
C187 H202 0.961 . S
C187 H203 0.961 . S
C188 C189 1.370 . S
C188 C190 1.363 . S
C188 H204 0.931 . S
C189 C188 1.370 . S
C189 C193 1.408 . S
C190 C188 1.363 . S
C190 C191 1.370 . S
C190 C194 1.524 . S
C191 C183 1.503 . S
C191 C190 1.370 . S
C191 C192 1.403 . S
C192 C191 1.403 . S
C192 C193 1.404 . S
C192 C195 1.539 . S
C193 C189 1.408 . S
C193 C192 1.404 . S
C193 H205 0.930 . S
C194 C190 1.524 . S
C194 H206 0.956 . S
C194 H207 0.961 . S
C194 H208 0.961 . S
C195 C192 1.539 . S
C195 H209 0.958 . S
C195 H210 0.961 . S
C195 H211 0.960 . S
H196 C180 0.931 . S
H197 C185 0.929 . S
H198 C186 0.960 . S
H199 C186 0.962 . S
H200 C186 0.960 . S
H201 C187 0.961 . S
H202 C187 0.961 . S
H203 C187 0.961 . S
H204 C188 0.931 . S
H205 C193 0.930 . S
H206 C194 0.956 . S
H207 C194 0.961 . S
H208 C194 0.961 . S
H209 C195 0.958 . S
H210 C195 0.961 . S
H211 C195 0.960 . S
C212 C213 1.391 . S
C212 C214 1.394 . S
C212 H228 0.931 . S
C213 C212 1.391 . S
C213 C217 1.376 . S
C214 C212 1.394 . S
C214 C215 1.369 . S
C214 C218 1.531 . S
C215 C214 1.369 . S
C215 C216 1.410 . S
C215 C223 1.503 . S
C216 C215 1.410 . S
C216 C217 1.392 . S
C216 C219 1.511 . S
C217 C213 1.376 . S
C217 C216 1.392 . S
C217 H229 0.929 . S
C218 C214 1.531 . S
C218 H230 0.960 . S
C218 H231 0.962 . S
C218 H232 0.960 . S
C219 C216 1.511 . S
C219 H233 0.961 . S
C219 H234 0.961 . S
C219 H235 0.961 . S
C220 C221 1.370 . S
C220 C222 1.363 . S
C220 H236 0.931 . S
C221 C220 1.370 . S
C221 C225 1.408 . S
C222 C220 1.363 . S
C222 C223 1.370 . S
C222 C226 1.524 . S
C223 C215 1.503 . S
C223 C222 1.370 . S
C223 C224 1.403 . S
C224 C223 1.403 . S
C224 C225 1.404 . S
C224 C227 1.539 . S
C225 C221 1.408 . S
C225 C224 1.404 . S
C225 H237 0.930 . S
C226 C222 1.524 . S
C226 H238 0.956 . S
C226 H239 0.961 . S
C226 H240 0.961 . S
C227 C224 1.539 . S
C227 H241 0.958 . S
C227 H242 0.961 . S
C227 H243 0.960 . S
H228 C212 0.931 . S
H229 C217 0.929 . S
H230 C218 0.960 . S
H231 C218 0.962 . S
H232 C218 0.960 . S
H233 C219 0.961 . S
H234 C219 0.961 . S
H235 C219 0.961 . S
H236 C220 0.931 . S
H237 C225 0.930 . S
H238 C226 0.956 . S
H239 C226 0.961 . S
H240 C226 0.961 . S
H241 C227 0.958 . S
H242 C227 0.961 . S
H243 C227 0.960 . S
C244 C245 1.391 . S
C244 C246 1.394 . S
C244 H260 0.931 . S
C245 C244 1.391 . S
C245 C249 1.376 . S
C246 C244 1.394 . S
C246 C247 1.369 . S
C246 C250 1.531 . S
C247 C246 1.369 . S
C247 C248 1.410 . S
C247 C255 1.503 . S
C248 C247 1.410 . S
C248 C249 1.392 . S
C248 C251 1.511 . S
C249 C245 1.376 . S
C249 C248 1.392 . S
C249 H261 0.929 . S
C250 C246 1.531 . S
C250 H262 0.960 . S
C250 H263 0.962 . S
C250 H264 0.960 . S
C251 C248 1.511 . S
C251 H265 0.961 . S
C251 H266 0.961 . S
C251 H267 0.961 . S
C252 C253 1.370 . S
C252 C254 1.363 . S
C252 H268 0.931 . S
C253 C252 1.370 . S
C253 C257 1.408 . S
C254 C252 1.363 . S
C254 C255 1.370 . S
C254 C258 1.524 . S
C255 C247 1.503 . S
C255 C254 1.370 . S
C255 C256 1.403 . S
C256 C255 1.403 . S
C256 C257 1.404 . S
C256 C259 1.539 . S
C257 C253 1.408 . S
C257 C256 1.404 . S
C257 H269 0.930 . S
C258 C254 1.524 . S
C258 H270 0.956 . S
C258 H271 0.961 . S
C258 H272 0.961 . S
C259 C256 1.539 . S
C259 H273 0.958 . S
C259 H274 0.961 . S
C259 H275 0.960 . S
H260 C244 0.931 . S
H261 C249 0.929 . S
H262 C250 0.960 . S
H263 C250 0.962 . S
H264 C250 0.960 . S
H265 C251 0.961 . S
H266 C251 0.961 . S
H267 C251 0.961 . S
H268 C252 0.931 . S
H269 C257 0.930 . S
H270 C258 0.956 . S
H271 C258 0.961 . S
H272 C258 0.961 . S
H273 C259 0.958 . S
H274 C259 0.961 . S
H275 C259 0.960 . S
C276 C277 1.391 . S
C276 C278 1.394 . S
C276 H292 0.931 . S
C277 C276 1.391 . S
C277 C281 1.376 . S
C278 C276 1.394 . S
C278 C279 1.369 . S
C278 C282 1.531 1_565 S
C279 C278 1.369 . S
C279 C280 1.410 . S
C279 C287 1.503 1_566 S
C280 C279 1.410 . S
C280 C281 1.392 . S
C280 C283 1.511 1_556 S
C281 C277 1.376 . S
C281 C280 1.392 . S
C281 H293 0.929 . S
C282 C278 1.531 1_545 S
C282 H294 0.960 . S
C282 H295 0.962 . S
C282 H296 0.960 . S
C283 C280 1.511 1_554 S
C283 H297 0.961 . S
C283 H298 0.961 . S
C283 H299 0.961 . S
C284 C285 1.370 . S
C284 C286 1.363 . S
C284 H300 0.931 . S
C285 C284 1.370 . S
C285 C289 1.408 . S
C286 C284 1.363 . S
C286 C287 1.370 . S
C286 C290 1.524 1_554 S
C287 C279 1.503 1_544 S
C287 C286 1.370 . S
C287 C288 1.403 . S
C288 C287 1.403 . S
C288 C289 1.404 . S
C288 C291 1.539 1_545 S
C289 C285 1.408 . S
C289 C288 1.404 . S
C289 H301 0.930 . S
C290 C286 1.524 1_556 S
C290 H302 0.956 . S
C290 H303 0.961 . S
C290 H304 0.961 . S
C291 C288 1.539 1_565 S
C291 H305 0.958 . S
C291 H306 0.961 . S
C291 H307 0.960 . S
H292 C276 0.931 . S
H293 C281 0.929 . S
H294 C282 0.960 . S
H295 C282 0.962 . S
H296 C282 0.960 . S
H297 C283 0.961 . S
H298 C283 0.961 . S
H299 C283 0.961 . S
H300 C284 0.931 . S
H301 C289 0.930 . S
H302 C290 0.956 . S
H303 C290 0.961 . S
H304 C290 0.961 . S
H305 C291 0.958 . S
H306 C291 0.961 . S
H307 C291 0.960 . S
C308 C309 1.391 . S
C308 C310 1.394 . S
C308 H324 0.931 . S
C309 C308 1.391 . S
C309 C313 1.376 . S
C310 C308 1.394 . S
C310 C311 1.369 . S
C310 C314 1.531 . S
C311 C310 1.369 . S
C311 C312 1.410 . S
C311 C319 1.503 . S
C312 C311 1.410 . S
C312 C313 1.392 . S
C312 C315 1.511 . S
C313 C309 1.376 . S
C313 C312 1.392 . S
C313 H325 0.929 . S
C314 C310 1.531 . S
C314 H326 0.960 . S
C314 H327 0.962 . S
C314 H328 0.960 . S
C315 C312 1.511 . S
C315 H329 0.961 . S
C315 H330 0.961 . S
C315 H331 0.961 . S
C316 C317 1.370 . S
C316 C318 1.363 . S
C316 H332 0.931 . S
C317 C316 1.370 . S
C317 C321 1.408 . S
C318 C316 1.363 . S
C318 C319 1.370 . S
C318 C322 1.524 . S
C319 C311 1.503 . S
C319 C318 1.370 . S
C319 C320 1.403 . S
C320 C319 1.403 . S
C320 C321 1.404 . S
C320 C323 1.539 . S
C321 C317 1.408 . S
C321 C320 1.404 . S
C321 H333 0.930 . S
C322 C318 1.524 . S
C322 H334 0.956 . S
C322 H335 0.961 . S
C322 H336 0.961 . S
C323 C320 1.539 . S
C323 H337 0.958 . S
C323 H338 0.961 . S
C323 H339 0.960 . S
H324 C308 0.931 . S
H325 C313 0.929 . S
H326 C314 0.960 . S
H327 C314 0.962 . S
H328 C314 0.960 . S
H329 C315 0.961 . S
H330 C315 0.961 . S
H331 C315 0.961 . S
H332 C316 0.931 . S
H333 C321 0.930 . S
H334 C322 0.956 . S
H335 C322 0.961 . S
H336 C322 0.961 . S
H337 C323 0.958 . S
H338 C323 0.961 . S
H339 C323 0.960 . S
C340 C341 1.391 . S
C340 C342 1.394 . S
C340 H356 0.931 . S
C341 C340 1.391 . S
C341 C345 1.376 . S
C342 C340 1.394 . S
C342 C343 1.369 . S
C342 C346 1.531 1_556 S
C343 C342 1.369 . S
C343 C344 1.410 1_455 S
C343 C351 1.503 1_456 S
C344 C343 1.410 1_655 S
C344 C345 1.392 1_655 S
C344 C347 1.511 . S
C345 C341 1.376 . S
C345 C344 1.392 1_455 S
C345 H357 0.929 . S
C346 C342 1.531 1_554 S
C346 H358 0.960 . S
C346 H359 0.962 . S
C346 H360 0.960 . S
C347 C344 1.511 . S
C347 H361 0.961 . S
C347 H362 0.961 . S
C347 H363 0.961 . S
C348 C349 1.370 . S
C348 C350 1.363 . S
C348 H364 0.931 . S
C349 C348 1.370 . S
C349 C353 1.408 . S
C350 C348 1.363 . S
C350 C351 1.370 . S
C350 C354 1.524 1_655 S
C351 C343 1.503 1_654 S
C351 C350 1.370 . S
C351 C352 1.403 . S
C352 C351 1.403 . S
C352 C353 1.404 . S
C352 C355 1.539 . S
C353 C349 1.408 . S
C353 C352 1.404 . S
C353 H365 0.930 . S
C354 C350 1.524 1_455 S
C354 H366 0.956 . S
C354 H367 0.961 . S
C354 H368 0.961 . S
C355 C352 1.539 . S
C355 H369 0.958 . S
C355 H370 0.961 . S
C355 H371 0.960 1_554 S
H356 C340 0.931 . S
H357 C345 0.929 . S
H358 C346 0.960 . S
H359 C346 0.962 . S
H360 C346 0.960 . S
H361 C347 0.961 . S
H362 C347 0.961 . S
H363 C347 0.961 . S
H364 C348 0.931 . S
H365 C353 0.930 . S
H366 C354 0.956 . S
H367 C354 0.961 . S
H368 C354 0.961 . S
H369 C355 0.958 . S
H370 C355 0.961 . S
H371 C355 0.960 1_556 S
C372 C373 1.391 . S
C372 C374 1.394 . S
C372 H388 0.931 . S
C373 C372 1.391 . S
C373 C377 1.376 . S
C374 C372 1.394 . S
C374 C375 1.369 . S
C374 C378 1.531 . S
C375 C374 1.369 . S
C375 C376 1.410 . S
C375 C383 1.503 1_545 S
C376 C375 1.410 . S
C376 C377 1.392 . S
C376 C379 1.511 1_545 S
C377 C373 1.376 . S
C377 C376 1.392 . S
C377 H389 0.929 . S
C378 C374 1.531 . S
C378 H390 0.960 . S
C378 H391 0.962 . S
C378 H392 0.960 . S
C379 C376 1.511 1_565 S
C379 H393 0.961 . S
C379 H394 0.961 . S
C379 H395 0.961 1_565 S
C380 C381 1.370 . S
C380 C382 1.363 . S
C380 H396 0.931 . S
C381 C380 1.370 . S
C381 C385 1.408 . S
C382 C380 1.363 . S
C382 C383 1.370 . S
C382 C386 1.524 . S
C383 C375 1.503 1_565 S
C383 C382 1.370 . S
C383 C384 1.403 1_565 S
C384 C383 1.403 1_545 S
C384 C385 1.404 1_545 S
C384 C387 1.539 . S
C385 C381 1.408 . S
C385 C384 1.404 1_565 S
C385 H397 0.930 . S
C386 C382 1.524 . S
C386 H398 0.956 . S
C386 H399 0.961 . S
C386 H400 0.961 . S
C387 C384 1.539 . S
C387 H401 0.958 . S
C387 H402 0.961 . S
C387 H403 0.960 . S
H388 C372 0.931 . S
H389 C377 0.929 . S
H390 C378 0.960 . S
H391 C378 0.962 . S
H392 C378 0.960 . S
H393 C379 0.961 . S
H394 C379 0.961 . S
H395 C379 0.961 1_545 S
H396 C380 0.931 . S
H397 C385 0.930 . S
H398 C386 0.956 . S
H399 C386 0.961 . S
H400 C386 0.961 . S
H401 C387 0.958 . S
H402 C387 0.961 . S
H403 C387 0.960 . S
C404 C405 1.391 . S
C404 C406 1.394 . S
C404 H420 0.931 . S
C405 C404 1.391 . S
C405 C409 1.376 . S
C406 C404 1.394 . S
C406 C407 1.369 . S
C406 C410 1.531 . S
C407 C406 1.369 . S
C407 C408 1.410 . S
C407 C415 1.503 1_556 S
C408 C407 1.410 . S
C408 C409 1.392 . S
C408 C411 1.511 . S
C409 C405 1.376 . S
C409 C408 1.392 . S
C409 H421 0.929 . S
C410 C406 1.531 . S
C410 H422 0.960 1_556 S
C410 H423 0.962 1_556 S
C410 H424 0.960 . S
C411 C408 1.511 . S
C411 H425 0.961 . S
C411 H426 0.961 . S
C411 H427 0.961 . S
C412 C413 1.370 . S
C412 C414 1.363 . S
C412 H428 0.931 . S
C413 C412 1.370 . S
C413 C417 1.408 . S
C414 C412 1.363 . S
C414 C415 1.370 . S
C414 C418 1.524 . S
C415 C407 1.503 1_554 S
C415 C414 1.370 . S
C415 C416 1.403 . S
C416 C415 1.403 . S
C416 C417 1.404 . S
C416 C419 1.539 1_554 S
C417 C413 1.408 . S
C417 C416 1.404 . S
C417 H429 0.930 . S
C418 C414 1.524 . S
C418 H430 0.956 . S
C418 H431 0.961 . S
C418 H432 0.961 . S
C419 C416 1.539 1_556 S
C419 H433 0.958 . S
C419 H434 0.961 . S
C419 H435 0.960 . S
H420 C404 0.931 . S
H421 C409 0.929 . S
H422 C410 0.960 1_554 S
H423 C410 0.962 1_554 S
H424 C410 0.960 . S
H425 C411 0.961 . S
H426 C411 0.961 . S
H427 C411 0.961 . S
H428 C412 0.931 . S
H429 C417 0.930 . S
H430 C418 0.956 . S
H431 C418 0.961 . S
H432 C418 0.961 . S
H433 C419 0.958 . S
H434 C419 0.961 . S
H435 C419 0.960 . S
C436 C437 1.391 . S
C436 C438 1.394 . S
C436 H452 0.931 . S
C437 C436 1.391 . S
C437 C441 1.376 . S
C438 C436 1.394 . S
C438 C439 1.369 . S
C438 C442 1.531 . S
C439 C438 1.369 . S
C439 C440 1.411 . S
C439 C447 1.503 1_455 S
C440 C439 1.411 . S
C440 C441 1.394 . S
C440 C443 1.508 1_455 S
C441 C437 1.376 . S
C441 C440 1.394 . S
C441 H453 0.929 . S
C442 C438 1.531 . S
C442 H454 0.960 . S
C442 H455 0.962 . S
C442 H456 0.960 . S
C443 C440 1.508 1_655 S
C443 H457 0.961 . S
C443 H458 0.961 . S
C443 H459 0.961 . S
C444 C445 1.370 . S
C444 C446 1.363 . S
C444 H460 0.931 . S
C445 C444 1.370 . S
C445 C449 1.408 . S
C446 C444 1.363 . S
C446 C447 1.370 . S
C446 C450 1.524 1_655 S
C447 C439 1.503 1_655 S
C447 C446 1.370 . S
C447 C448 1.403 . S
C448 C447 1.403 . S
C448 C449 1.404 . S
C448 C451 1.539 . S
C449 C445 1.408 . S
C449 C448 1.404 . S
C449 H461 0.930 . S
C450 C446 1.524 1_455 S
C450 H462 0.956 . S
C450 H463 0.961 . S
C450 H464 0.961 . S
C451 C448 1.539 . S
C451 H465 0.958 . S
C451 H466 0.961 . S
C451 H467 0.960 . S
H452 C436 0.931 . S
H453 C441 0.929 . S
H454 C442 0.960 . S
H455 C442 0.962 . S
H456 C442 0.960 . S
H457 C443 0.961 . S
H458 C443 0.961 . S
H459 C443 0.961 . S
H460 C444 0.931 . S
H461 C449 0.930 . S
H462 C450 0.956 . S
H463 C450 0.961 . S
H464 C450 0.961 . S
H465 C451 0.958 . S
H466 C451 0.961 . S
H467 C451 0.960 . S
C85 C3 1.084 . S
C93 C59 1.100 . S
C117 C23 1.078 . S
C125 C79 1.061 . S
C149 C9 1.090 . S
C157 C31 1.094 . S
C181 C51 1.023 . S
C189 C17 1.075 . S
C213 C65 1.063 . S
C221 C37 1.055 . S
C245 C45 1.079 . S
C253 C73 1.074 . S
C277 C49 1.330 . S
C285 C7 1.368 . S
C309 C63 1.368 . S
C317 C22 1.392 . S
C341 C78 1.400 . S
C349 C35 1.354 . S
C373 C8 1.408 . S
C381 C50 1.423 . S
C405 C21 1.383 . S
C413 C64 1.388 . S
C437 C77 1.372 . S
C445 C36 1.391 . S
