# Generated by pormake.
# Topology snp, (6)-cn, num edge types: 1
# Building blocks:
#     Node 0, Type 0, BuildingBlock: KUMBOL_clean_sbu_0, # of connection points: 6
#     Node 1, Type 0, BuildingBlock: KUMBOL_clean_sbu_0, # of connection points: 6
#     Node 2, Type 0, BuildingBlock: KUMBOL_clean_sbu_0, # of connection points: 6
#     Node 3, Type 0, BuildingBlock: KUMBOL_clean_sbu_0, # of connection points: 6
#     Edge 4, Type (0, 0), BuildingBlock: TEMPAE_clean_linker_10, # of connection points: 2
#     Edge 5, Type (0, 0), BuildingBlock: TEMPAE_clean_linker_10, # of connection points: 2
#     Edge 6, Type (0, 0), BuildingBlock: TEMPAE_clean_linker_10, # of connection points: 2
#     Edge 7, Type (0, 0), BuildingBlock: TEMPAE_clean_linker_10, # of connection points: 2
#     Edge 8, Type (0, 0), BuildingBlock: TEMPAE_clean_linker_10, # of connection points: 2
#     Edge 9, Type (0, 0), BuildingBlock: TEMPAE_clean_linker_10, # of connection points: 2
#     Edge 10, Type (0, 0), BuildingBlock: TEMPAE_clean_linker_10, # of connection points: 2
#     Edge 11, Type (0, 0), BuildingBlock: TEMPAE_clean_linker_10, # of connection points: 2
#     Edge 12, Type (0, 0), BuildingBlock: TEMPAE_clean_linker_10, # of connection points: 2
#     Edge 13, Type (0, 0), BuildingBlock: TEMPAE_clean_linker_10, # of connection points: 2
#     Edge 14, Type (0, 0), BuildingBlock: TEMPAE_clean_linker_10, # of connection points: 2
#     Edge 15, Type (0, 0), BuildingBlock: TEMPAE_clean_linker_10, # of connection points: 2
# Relax obj value: 0.232
# Max RMSD: 0.259
# Mean RMSD: 0.235
data_MOF--net-snp--node1-KUMBOL_clean_sbu_0--edge1-TEMPAE_clean_linker_10
_symmetry_space_group_name_H-M    P1
_symmetry_Int_Tables_number       1
_symmetry_cell_setting            triclinic
loop_
_symmetry_equiv_pos_as_xyz
'x, y, z'
_cell_length_a     24.864831
_cell_length_b     26.411358
_cell_length_c     33.644021
_cell_angle_alpha  116.61345
_cell_angle_beta   97.97126
_cell_angle_gamma 94.790682
loop_
_atom_site_label
_atom_site_type_symbol
_atom_site_fract_x
_atom_site_fract_y
_atom_site_fract_z
_atom_type_partial_charge
Gd0 Gd 0.36872 0.05895 0.26752 0.0
Gd1 Gd 0.35609 0.18439 0.24569 0.0
C2 C 0.42648 0.34612 0.38103 0.0
C3 C 0.34409 0.3862 0.40114 0.0
C4 C 0.33836 0.29914 0.33012 0.0
C5 C 0.3949 0.3012 0.33998 0.0
C6 C 0.31272 0.34233 0.36033 0.0
C7 C 0.40075 0.38803 0.4115 0.0
C8 C 0.48309 0.34752 0.39086 0.0
C9 C 0.50724 0.30501 0.36034 0.0
N10 N 0.41882 0.25901 0.3104 0.0
C11 C 0.47475 0.2611 0.3204 0.0
H12 H 0.49628 0.22949 0.29896 0.0
C13 C 0.25372 0.25619 0.27807 0.0
N14 N 0.30828 0.25542 0.29109 0.0
C15 C 0.22677 0.29789 0.30685 0.0
C16 C 0.25619 0.34062 0.34855 0.0
H17 H 0.23044 0.22451 0.24528 0.0
H18 H 0.42445 0.42227 0.44319 0.0
H19 H 0.27589 0.95859 0.17949 0.0
H20 H 0.50851 0.38115 0.42198 0.0
H21 H 0.55117 0.30569 0.36772 0.0
H22 H 0.32494 0.41924 0.42481 0.0
H23 H 0.49621 0.0928 0.33127 0.0
H24 H 0.35463 0.81689 0.10524 0.0
H25 H 0.27127 0.86271 0.11524 0.0
H26 H 0.53861 0.87191 0.19238 0.0
H27 H 0.18337 0.29722 0.29665 0.0
H28 H 0.23518 0.37289 0.37091 0.0
H29 H 0.45451 0.82093 0.13409 0.0
H30 H 0.58153 0.05122 0.3294 0.0
N31 N 0.36102 0.96769 0.20523 0.0
C32 C 0.3568 0.85897 0.13361 0.0
C33 C 0.30966 0.88464 0.13915 0.0
C34 C 0.40599 0.88753 0.16513 0.0
C35 C 0.40663 0.94231 0.20136 0.0
C36 C 0.31245 0.93912 0.17556 0.0
N37 N 0.45286 0.02366 0.26854 0.0
C38 C 0.45388 0.97083 0.2342 0.0
C39 C 0.546 0.02834 0.30229 0.0
C40 C 0.54843 0.97535 0.26615 0.0
C41 C 0.49748 0.05175 0.30326 0.0
C42 C 0.50194 0.94569 0.23168 0.0
H43 H 0.58616 0.95745 0.26547 0.0
O44 O 0.36564 0.06115 0.33263 0.0
O45 O 0.35719 0.15 0.29452 0.0
O46 O 0.44042 0.162 0.23634 0.0
O47 O 0.44157 0.0745 0.2387 0.0
O48 O 0.41074 0.13235 0.33634 0.0
O49 O 0.31426 0.99324 0.27239 0.0
O50 O 0.29999 0.19272 0.19377 0.0
O51 O 0.33971 0.08822 0.21634 0.0
O52 O 0.27907 0.05642 0.24191 0.0
O53 O 0.27315 0.14891 0.25168 0.0
O54 O 0.36511 0.12042 0.1757 0.0
O55 O 0.38278 0.24151 0.21917 0.0
C56 C 0.38585 0.172 0.33385 0.0
C57 C 0.50196 0.89177 0.19508 0.0
C58 C 0.45409 0.86277 0.16187 0.0
C59 C 0.33105 0.01356 0.31588 0.0
C60 C 0.34591 0.97236 0.33269 0.0
C61 C 0.39482 0.95006 0.32523 0.0
C62 C 0.31325 0.95759 0.35844 0.0
C63 C 0.33 0.92131 0.37713 0.0
C64 C 0.41189 0.91493 0.34368 0.0
C65 C 0.38035 0.90119 0.36972 0.0
C66 C 0.46272 0.11594 0.23063 0.0
C67 C 0.35033 0.07365 0.17725 0.0
C68 C 0.33614 0.22917 0.19092 0.0
C69 C 0.31653 0.27651 0.18394 0.0
C70 C 0.3031 0.32394 0.21972 0.0
C71 C 0.3134 0.27524 0.14118 0.0
C72 C 0.29633 0.3209 0.13409 0.0
C73 C 0.28446 0.36818 0.2127 0.0
C74 C 0.28071 0.36662 0.17036 0.0
C75 C 0.2507 0.09824 0.2461 0.0
H76 H 0.42051 0.96066 0.30585 0.0
H77 H 0.27508 0.97429 0.36369 0.0
H78 H 0.45029 0.89883 0.33827 0.0
H79 H 0.39624 0.87533 0.38462 0.0
H80 H 0.30752 0.3273 0.2532 0.0
H81 H 0.3258 0.23954 0.11402 0.0
H82 H 0.27335 0.40424 0.24039 0.0
H83 H 0.26573 0.40162 0.16619 0.0
Gd84 Gd 0.17225 0.36013 0.6701 0.0
Gd85 Gd 0.06253 0.25953 0.57119 0.0
C86 C 0.92062 0.16422 0.59682 0.0
C87 C 0.9381 0.06612 0.56037 0.0
C88 C 0.99736 0.14237 0.55814 0.0
C89 C 0.96706 0.18235 0.58374 0.0
C90 C 0.98225 0.08367 0.54513 0.0
C91 C 0.90718 0.10622 0.58599 0.0
C92 C 0.88816 0.20459 0.61935 0.0
C93 C 0.90172 0.2612 0.62774 0.0
N94 N 0.98132 0.23831 0.59395 0.0
C95 C 0.94821 0.27732 0.61436 0.0
H96 H 0.9569 0.32126 0.62104 0.0
C97 C 0.06465 0.12163 0.51221 0.0
N98 N 0.03952 0.16034 0.54355 0.0
C99 C 0.05126 0.063 0.49845 0.0
C100 C 0.01079 0.04413 0.51587 0.0
H101 H 0.09654 0.13642 0.49925 0.0
H102 H 0.87215 0.09169 0.59631 0.0
H103 H 0.28977 0.32289 0.63357 0.0
H104 H 0.85169 0.19219 0.62924 0.0
H105 H 0.87624 0.29253 0.64443 0.0
H106 H 0.92649 0.02145 0.55133 0.0
H107 H 0.11877 0.47044 0.74119 0.0
H108 H 0.38439 0.4695 0.63953 0.0
H109 H 0.37084 0.36623 0.61884 0.0
H110 H 0.28881 0.62259 0.72091 0.0
H111 H 0.07252 0.03254 0.47486 0.0
H112 H 0.00087 0.9989 0.50547 0.0
H113 H 0.35321 0.56516 0.67752 0.0
H114 H 0.13246 0.57584 0.77467 0.0
N115 N 0.25463 0.39954 0.65941 0.0
C116 C 0.34813 0.45047 0.64558 0.0
C117 C 0.3407 0.39226 0.63398 0.0
C118 C 0.30994 0.48394 0.6668 0.0
C119 C 0.26329 0.45688 0.67363 0.0
C120 C 0.29412 0.36769 0.64208 0.0
N121 N 0.18492 0.46143 0.70577 0.0
C122 C 0.22743 0.48905 0.698 0.0
C123 C 0.1594 0.55195 0.75304 0.0
C124 C 0.20152 0.58073 0.74362 0.0
C125 C 0.15188 0.49204 0.73402 0.0
C126 C 0.23665 0.54935 0.71626 0.0
H127 H 0.2072 0.62711 0.7583 0.0
O128 O 0.17623 0.37444 0.73979 0.0
O129 O 0.09563 0.29437 0.64483 0.0
O130 O 0.04115 0.34806 0.60936 0.0
O131 O 0.12556 0.40943 0.64129 0.0
O132 O 0.09967 0.36666 0.70494 0.0
O133 O 0.23709 0.33299 0.7024 0.0
O134 O 0.01356 0.21338 0.50251 0.0
O135 O 0.14402 0.31458 0.59464 0.0
O136 O 0.20136 0.27714 0.63087 0.0
O137 O 0.12152 0.20946 0.59102 0.0
O138 O 0.12815 0.24726 0.52946 0.0
O139 O 0.03958 0.30488 0.5328 0.0
C140 C 0.07084 0.31724 0.67721 0.0
C141 C 0.28137 0.57637 0.70761 0.0
C142 C 0.31796 0.54367 0.68286 0.0
C143 C 0.2194 0.35 0.74024 0.0
C144 C 0.26102 0.3752 0.78263 0.0
C145 C 0.3059 0.41634 0.79017 0.0
C146 C 0.25685 0.35587 0.81519 0.0
C147 C 0.29785 0.37691 0.8549 0.0
C148 C 0.34645 0.43755 0.82944 0.0
C149 C 0.34267 0.41796 0.86146 0.0
C150 C 0.07215 0.39867 0.6242 0.0
C151 C 0.16339 0.29158 0.55861 0.0
C152 C 0.01186 0.25927 0.49746 0.0
C153 C 0.9587 0.26533 0.47597 0.0
C154 C 0.91705 0.28427 0.50064 0.0
C155 C 0.95006 0.25321 0.43017 0.0
C156 C 0.90074 0.26151 0.40939 0.0
C157 C 0.86835 0.2933 0.48039 0.0
C158 C 0.86033 0.28251 0.43516 0.0
C159 C 0.17458 0.22402 0.61063 0.0
H160 H 0.30974 0.43165 0.76554 0.0
H161 H 0.22235 0.32366 0.80915 0.0
H162 H 0.38108 0.46929 0.8351 0.0
H163 H 0.37454 0.43563 0.89177 0.0
H164 H 0.92238 0.2925 0.53556 0.0
H165 H 0.98182 0.23765 0.41075 0.0
H166 H 0.83659 0.30852 0.49978 0.0
H167 H 0.82194 0.28896 0.4199 0.0
Gd168 Gd 0.82279 0.95834 1.01173 0.0
Gd169 Gd 0.81759 0.08734 0.99283 0.0
C170 C 0.76855 0.25389 0.09265 0.0
C171 C 0.67488 0.2474 0.05628 0.0
C172 C 0.72888 0.17304 0.01948 0.0
C173 C 0.77236 0.20116 0.05586 0.0
C174 C 0.67998 0.19637 1.0188 0.0
C175 C 0.71911 0.27612 0.09318 0.0
C176 C 0.81508 0.28354 0.12706 0.0
C177 C 0.86441 0.2618 0.12307 0.0
N178 N 0.81955 0.17863 0.05403 0.0
C179 C 0.86613 0.20954 0.08571 0.0
H180 H 0.90477 0.19374 0.08272 0.0
C181 C 0.69552 0.09764 0.94525 0.0
N182 N 0.73509 0.12341 0.98409 0.0
C183 C 0.64638 0.11931 0.94291 0.0
C184 C 0.63818 0.16835 0.9801 0.0
H185 H 0.7009 0.05963 0.91621 0.0
H186 H 0.71517 0.31622 0.12137 0.0
H187 H 0.72512 0.90732 0.05048 0.0
H188 H 0.81385 0.32408 0.15596 0.0
H189 H 0.90116 0.28522 0.14875 0.0
H190 H 0.63742 0.26568 0.05662 0.0
H191 H 0.91254 0.89013 0.94846 0.0
H192 H 0.6128 0.77172 0.93697 0.0
H193 H 0.63748 0.83888 0.01929 0.0
H194 H 0.721 0.71824 0.82152 0.0
H195 H 0.61474 0.09799 0.91245 0.0
H196 H 0.59999 0.18491 0.97822 0.0
H197 H 0.64414 0.72734 0.86203 0.0
H198 H 0.91054 0.80866 0.87331 0.0
N199 N 0.74418 0.88639 0.98587 0.0
C200 C 0.64996 0.80339 0.95038 0.0
C201 C 0.66374 0.84119 0.99685 0.0
C202 C 0.68728 0.80317 0.92277 0.0
C203 C 0.73504 0.84528 0.94214 0.0
C204 C 0.71258 0.88097 1.01435 0.0
N205 N 0.82581 0.87626 0.94333 0.0
C206 C 0.77795 0.83997 0.91981 0.0
C207 C 0.8727 0.81734 0.88571 0.0
C208 C 0.82263 0.78292 0.85913 0.0
C209 C 0.87364 0.86347 0.92835 0.0
C210 C 0.77465 0.79266 0.87687 0.0
H211 H 0.82202 0.74703 0.82629 0.0
O212 O 0.88817 0.91515 0.0261 0.0
O213 O 0.83176 0.05407 0.0427 0.0
O214 O 0.90029 0.09108 0.03376 0.0
O215 O 0.90382 0.99486 1.00316 0.0
O216 O 0.80395 0.01717 0.07979 0.0
O217 O 0.83636 0.95189 0.07442 0.0
O218 O 0.83515 0.08071 0.92916 0.0
O219 O 0.8329 0.99673 0.96588 0.0
O220 O 0.73385 0.96868 0.99458 0.0
O221 O 0.73691 0.06496 1.00995 0.0
O222 O 0.77712 0.01399 0.9247 0.0
O223 O 0.87751 0.15193 0.99154 0.0
C224 C 0.81491 0.06514 0.07904 0.0
C225 C 0.7248 0.75425 0.85492 0.0
C226 C 0.68101 0.75947 0.87796 0.0
C227 C 0.87477 0.9208 0.06365 0.0
C228 C 0.86981 0.87024 0.07142 0.0
C229 C 0.85322 0.81452 0.03537 0.0
C230 C 0.87927 0.87856 0.11624 0.0
C231 C 0.8721 0.83172 0.12544 0.0
C232 C 0.84661 0.76769 0.04417 0.0
C233 C 0.85585 0.77609 0.08883 0.0
C234 C 0.92869 0.04874 0.02766 0.0
C235 C 0.80523 0.97576 0.92605 0.0
C236 C 0.8693 0.12848 0.94754 0.0
C237 C 0.86037 0.16592 0.92608 0.0
C238 C 0.81943 0.20061 0.93651 0.0
C239 C 0.88946 0.16345 0.89213 0.0
C240 C 0.8767 0.19472 0.86824 0.0
C241 C 0.80714 0.23201 0.91332 0.0
C242 C 0.83522 0.22888 0.87931 0.0
C243 C 0.71171 0.01627 1.0062 0.0
H244 H 0.84493 0.80727 1.00059 0.0
H245 H 0.89064 0.92182 0.14403 0.0
H246 H 0.8339 0.72473 1.01628 0.0
H247 H 0.85046 0.73905 0.09471 0.0
H248 H 0.79642 0.20276 0.96214 0.0
H249 H 0.92071 0.13618 0.88351 0.0
H250 H 0.77536 0.25856 0.92149 0.0
H251 H 0.82486 0.25375 0.86186 0.0
Gd252 Gd 0.13365 0.82015 0.66719 0.0
Gd253 Gd 0.02521 0.85764 0.60479 0.0
C254 C 0.88355 0.93267 0.673 0.0
C255 C 0.80737 0.85356 0.63209 0.0
C256 C 0.89822 0.8431 0.61318 0.0
C257 C 0.91903 0.89799 0.64745 0.0
C258 C 0.84162 0.82116 0.60402 0.0
C259 C 0.82823 0.90946 0.6663 0.0
C260 C 0.90389 0.99056 0.7027 0.0
C261 C 0.95807 0.01278 0.70594 0.0
N262 N 0.9725 0.91959 0.65255 0.0
C263 C 0.99183 0.97667 0.68034 0.0
H264 H 0.03302 0.99506 0.68264 0.0
C265 C 0.90942 0.76743 0.54424 0.0
N266 N 0.93171 0.81421 0.58524 0.0
C267 C 0.85407 0.74306 0.53435 0.0
C268 C 0.82026 0.7693 0.56496 0.0
H269 H 0.93534 0.74752 0.52009 0.0
H270 H 0.80066 0.93525 0.68604 0.0
H271 H 0.13637 0.69407 0.56957 0.0
H272 H 0.8778 0.01874 0.7225 0.0
H273 H 0.97392 0.05774 0.72833 0.0
H274 H 0.76401 0.83709 0.62597 0.0
H275 H 0.21687 0.92684 0.76194 0.0
H276 H 0.29105 0.70928 0.53309 0.0
H277 H 0.19799 0.65596 0.51771 0.0
H278 H 0.3945 0.88051 0.65755 0.0
H279 H 0.83738 0.70454 0.50287 0.0
H280 H 0.77708 0.75103 0.55681 0.0
H281 H 0.36346 0.79311 0.58492 0.0
H282 H 0.31206 0.97743 0.78591 0.0
N283 N 0.1914 0.77243 0.61549 0.0
C284 C 0.26374 0.72716 0.55653 0.0
C285 C 0.2113 0.697 0.54775 0.0
C286 C 0.28101 0.77906 0.59615 0.0
C287 C 0.24371 0.80087 0.62557 0.0
C288 C 0.17593 0.71969 0.57787 0.0
N289 N 0.22494 0.87116 0.69414 0.0
C290 C 0.26094 0.85126 0.66599 0.0
C291 C 0.2981 0.94264 0.75184 0.0
C292 C 0.33408 0.92625 0.72173 0.0
C293 C 0.24391 0.91381 0.73783 0.0
C294 C 0.31616 0.87938 0.67863 0.0
H295 H 0.37611 0.94872 0.73265 0.0
O296 O 0.14519 0.83963 0.73804 0.0
O297 O 0.05737 0.86085 0.67103 0.0
O298 O 0.0946 0.93351 0.64463 0.0
O299 O 0.14501 0.91591 0.69955 0.0
O300 O 0.05914 0.79576 0.68982 0.0
O301 O 0.16619 0.76052 0.6888 0.0
O302 O 0.01047 0.84178 0.53468 0.0
O303 O 0.11281 0.84236 0.60989 0.0
O304 O 0.07829 0.73943 0.61409 0.0
O305 O 0.99664 0.76931 0.59659 0.0
O306 O 0.05872 0.79172 0.54921 0.0
O307 O 0.01375 0.92734 0.58819 0.0
C308 C 0.03177 0.83397 0.68761 0.0
C309 C 0.35236 0.85886 0.64866 0.0
C310 C 0.33473 0.80902 0.6074 0.0
C311 C 0.16796 0.79468 0.73181 0.0
C312 C 0.21937 0.80548 0.76457 0.0
C313 C 0.26942 0.79485 0.74995 0.0
C314 C 0.219 0.8298 0.81146 0.0
C315 C 0.26839 0.84492 0.84338 0.0
C316 C 0.31826 0.80921 0.78145 0.0
C317 C 0.31792 0.83445 0.82781 0.0
C318 C 0.13213 0.94972 0.68196 0.0
C319 C 0.11021 0.8087 0.56811 0.0
C320 C 0.0027 0.89369 0.54462 0.0
C321 C 0.95251 0.89815 0.51827 0.0
C322 C 0.9044 0.90816 0.53605 0.0
C323 C 0.95216 0.89019 0.47403 0.0
C324 C 0.9046 0.89404 0.44802 0.0
C325 C 0.8568 0.91083 0.5102 0.0
C326 C 0.85683 0.90411 0.46661 0.0
C327 C 0.02587 0.72913 0.5946 0.0
H328 H 0.27106 0.77644 0.71427 0.0
H329 H 0.1807 0.83864 0.82317 0.0
H330 H 0.3567 0.80134 0.7699 0.0
H331 H 0.35644 0.84574 0.85163 0.0
H332 H 0.90365 0.9144 0.56994 0.0
H333 H 0.98948 0.88265 0.46048 0.0
H334 H 0.81982 0.91853 0.52414 0.0
H335 H 0.81921 0.90614 0.44726 0.0
C336 C 0.95715 0.04486 0.09845 0.0
C337 C 0.97168 0.05953 0.06589 0.0
C338 C 0.99602 0.05092 0.13479 0.0
C339 C 0.05084 0.07394 0.13912 0.0
C340 C 0.06547 0.09295 0.10806 0.0
C341 C 0.02524 0.08524 0.07129 0.0
C342 C 0.97854 0.03055 0.1672 0.0
C343 C 0.12315 0.12172 0.11373 0.0
C344 C 0.15963 0.12725 0.24419 0.0
C345 C 0.19144 0.08353 0.22969 0.0
C346 C 0.11089 0.1233 0.21616 0.0
C347 C 0.09373 0.07384 0.17373 0.0
C348 C 0.12154 0.02614 0.16225 0.0
C349 C 0.17031 0.03146 0.19085 0.0
C350 C 0.08028 0.17352 0.2303 0.0
C351 C 0.1032 0.97201 0.11763 0.0
H352 H 0.91482 0.02947 0.09583 0.0
H353 H 0.03565 0.09854 0.04676 0.0
H354 H 0.99219 0.98884 0.1597 0.0
H355 H 0.99779 0.06124 0.20284 0.0
H356 H 0.93311 0.02428 0.16399 0.0
H357 H 0.13077 0.12148 0.08188 0.0
H358 H 0.12887 0.16705 0.14037 0.0
H359 H 0.15466 0.101 0.12491 0.0
H360 H 0.1756 0.16666 0.27528 0.0
H361 H 0.19474 0.99738 0.17999 0.0
H362 H 0.03711 0.15866 0.22978 0.0
H363 H 0.07972 0.19115 0.20591 0.0
H364 H 0.09882 0.20846 0.26485 0.0
H365 H 0.05969 0.95429 0.11385 0.0
H366 H 0.12889 0.93846 0.11452 0.0
H367 H 0.10545 0.98204 0.08915 0.0
C368 C 0.22264 0.99685 0.68517 0.0
C369 C 0.17096 1.00205 0.69727 0.0
C370 C 0.25291 0.042 0.68291 0.0
C371 C 0.22881 0.09099 0.69071 0.0
C372 C 0.18374 0.10128 0.7132 0.0
C373 C 0.15376 0.05543 0.71502 0.0
C374 C 0.30493 0.0334 0.66422 0.0
C375 C 0.16157 0.15694 0.72742 0.0
C376 C 0.25188 0.20025 0.65076 0.0
C377 C 0.20377 0.18141 0.61717 0.0
C378 C 0.26532 0.16848 0.67343 0.0
C379 C 0.23229 0.11512 0.65921 0.0
C380 C 0.19215 0.09044 0.61829 0.0
C381 C 0.17765 0.1247 0.59823 0.0
C382 C 0.30991 0.19607 0.71561 0.0
C383 C 0.15865 0.03118 0.59928 0.0
H384 H 0.23618 0.95567 0.6719 0.0
H385 H 0.11487 0.05999 0.72631 0.0
H386 H 0.29603 0.02501 0.62841 0.0
H387 H 0.33621 0.07285 0.68326 0.0
H388 H 0.32244 0.99697 0.66602 0.0
H389 H 0.1361 0.15644 0.69738 0.0
H390 H 0.13565 0.16327 0.75308 0.0
H391 H 0.19577 0.19383 0.74169 0.0
H392 H 0.27536 0.24261 0.66332 0.0
H393 H 0.14251 0.10881 0.57069 0.0
H394 H 0.31998 0.1666 0.72979 0.0
H395 H 0.29659 0.23383 0.74194 0.0
H396 H 0.34784 0.21225 0.70805 0.0
H397 H 0.18559 0.99958 0.59879 0.0
H398 H 0.13542 0.01608 0.56423 0.0
H399 H 0.12823 0.03197 0.62066 0.0
C400 C 0.62178 0.04832 0.02501 0.0
C401 C 0.66641 0.02184 0.03118 0.0
C402 C 0.58527 0.06296 0.05555 0.0
C403 C 0.59676 0.05516 0.09487 0.0
C404 C 0.64268 0.02981 0.10143 0.0
C405 C 0.67468 0.01111 0.06843 0.0
C406 C 0.53585 0.08825 0.04623 0.0
C407 C 0.66101 0.02444 0.14411 0.0
C408 C 0.53553 0.14498 0.19681 0.0
C409 C 0.5038 0.10197 0.20114 0.0
C410 C 0.56603 0.13088 0.16218 0.0
C411 C 0.56159 0.07255 0.12943 0.0
C412 C 0.52876 0.02929 0.13338 0.0
C413 C 0.50274 0.04437 0.17037 0.0
C414 C 0.60182 0.17905 0.16094 0.0
C415 C 0.51977 0.96701 0.09791 0.0
H416 H 0.61566 0.05785 0.99671 0.0
H417 H 0.70994 0.99348 0.07495 0.0
H418 H 0.50054 0.07657 0.05909 0.0
H419 H 0.54688 0.1357 0.06333 0.0
H420 H 0.52274 0.07368 1.00932 0.0
H421 H 0.70664 0.03402 0.1543 0.0
H422 H 0.64397 0.0534 0.17336 0.0
H423 H 0.64871 0.97948 0.13719 0.0
H424 H 0.53619 0.18971 0.22025 0.0
H425 H 0.47856 0.01076 0.17331 0.0
H426 H 0.57564 0.19973 0.14508 0.0
H427 H 0.63496 0.16436 0.14158 0.0
H428 H 0.62098 0.21251 0.19591 0.0
H429 H 0.50912 0.96338 0.06347 0.0
H430 H 0.48665 0.94055 0.10263 0.0
H431 H 0.55779 0.94852 0.09965 0.0
C432 C 0.07567 0.49933 0.63651 0.0
C433 C 0.0464 0.44366 0.61796 0.0
C434 C 0.0543 0.54068 0.62679 0.0
C435 C 0.00343 0.52511 0.59593 0.0
C436 C 0.97263 0.46962 0.57829 0.0
C437 C 0.99412 0.42991 0.59028 0.0
C438 C 0.08782 0.60024 0.64782 0.0
C439 C 0.91897 0.4501 0.54448 0.0
C440 C 0.96112 0.66015 0.60212 0.0
C441 C 0.99785 0.67055 0.57774 0.0
C442 C 0.95613 0.60826 0.60427 0.0
C443 C 0.98672 0.566 0.57958 0.0
C444 C 0.01392 0.57216 0.54738 0.0
C445 C 0.02039 0.62538 0.54763 0.0
C446 C 0.9253 0.60251 0.63798 0.0
C447 C 0.04324 0.52593 0.51777 0.0
H448 H 0.1161 0.51038 0.65763 0.0
H449 H 0.97091 0.3872 0.5761 0.0
H450 H 0.10587 0.60642 0.62163 0.0
H451 H 0.06134 0.63342 0.6614 0.0
H452 H 0.12201 0.60746 0.67579 0.0
H453 H 0.89898 0.48626 0.54489 0.0
H454 H 0.92702 0.42441 0.50992 0.0
H455 H 0.88981 0.42183 0.55105 0.0
H456 H 0.94215 0.69488 0.62397 0.0
H457 H 0.04751 0.63331 0.5277 0.0
H458 H 0.95518 0.61196 0.66916 0.0
H459 H 0.90301 0.5581 0.62417 0.0
H460 H 0.89544 0.63294 0.64753 0.0
H461 H 0.08354 0.52798 0.5378 0.0
H462 H 0.05097 0.5315 0.4881 0.0
H463 H 0.01884 0.48275 0.50552 0.0
C464 C 0.23596 0.34465 0.54082 0.0
C465 C 0.21922 0.2998 0.55018 0.0
C466 C 0.27579 0.33952 0.51368 0.0
C467 C 0.29746 0.28761 0.49437 0.0
C468 C 0.28489 0.24516 0.508 0.0
C469 C 0.24603 0.25188 0.53565 0.0
C470 C 0.29049 0.38732 0.50227 0.0
C471 C 0.30682 0.1891 0.4887 0.0
C472 C 0.30923 0.21421 0.37113 0.0
C473 C 0.36575 0.21248 0.37407 0.0
C474 C 0.28719 0.24326 0.40991 0.0
C475 C 0.32247 0.27134 0.4532 0.0
C476 C 0.38017 0.27377 0.4561 0.0
C477 C 0.40109 0.24332 0.41654 0.0
C478 C 0.22543 0.23965 0.4046 0.0
C479 C 0.41967 0.3055 0.50108 0.0
H480 H 0.21478 0.38144 0.5514 0.0
H481 H 0.23239 0.21657 0.54198 0.0
H482 H 0.3337 0.39014 0.49743 0.0
H483 H 0.2632 0.37896 0.47022 0.0
H484 H 0.28489 0.42931 0.52934 0.0
H485 H 0.29757 0.16322 0.50615 0.0
H486 H 0.28794 0.16337 0.45214 0.0
H487 H 0.352 0.197 0.49154 0.0
H488 H 0.28148 0.19005 0.33869 0.0
H489 H 0.44488 0.24226 0.41901 0.0
H490 H 0.21457 0.2831 0.42228 0.0
H491 H 0.20939 0.21393 0.42027 0.0
H492 H 0.20424 0.21955 0.36847 0.0
H493 H 0.40401 0.3434 0.52503 0.0
H494 H 0.46073 0.31992 0.49676 0.0
H495 H 0.42508 0.27643 0.51648 0.0
C496 C 0.03732 0.22878 0.6839 0.0
C497 C 0.03601 0.28652 0.69478 0.0
C498 C 0.01029 0.203 0.70619 0.0
C499 C 0.98295 0.23632 0.74122 0.0
C500 C 0.98076 0.29425 0.75142 0.0
C501 C 0.00708 0.31838 0.72808 0.0
C502 C 0.01193 0.1406 0.6929 0.0
C503 C 0.95208 0.33162 0.7882 0.0
C504 C 0.87591 0.18158 0.78956 0.0
C505 C 0.9061 0.19323 0.83202 0.0
C506 C 0.90134 0.19048 0.75784 0.0
C507 C 0.95833 0.21258 0.76898 0.0
C508 C 0.98971 0.22045 0.81056 0.0
C509 C 0.96328 0.21036 0.84145 0.0
C510 C 0.86637 0.17991 0.71367 0.0
C511 C 0.05049 0.24404 0.82416 0.0
H512 H 0.06058 0.20421 0.65883 0.0
H513 H 0.00643 0.36314 0.73689 0.0
H514 H 0.03306 0.13646 0.72231 0.0
H515 H 0.96945 0.11662 0.68297 0.0
H516 H 0.03338 0.12014 0.66416 0.0
H517 H 0.95307 0.3754 0.79132 0.0
H518 H 0.90848 0.31165 0.78112 0.0
H519 H 0.97204 0.33555 0.8213 0.0
H520 H 0.83177 0.16763 0.78188 0.0
H521 H 0.9868 0.21954 0.87424 0.0
H522 H 0.88609 0.1545 0.685 0.0
H523 H 0.86272 0.22156 0.71379 0.0
H524 H 0.82433 0.15673 0.7078 0.0
H525 H 0.07138 0.2228 0.79528 0.0
H526 H 0.07068 0.23853 0.85324 0.0
H527 H 0.05637 0.29056 0.83406 0.0
C528 C 0.93015 0.84532 0.37133 0.0
C529 C 0.90445 0.88749 0.40162 0.0
C530 C 0.92804 0.83713 0.32684 0.0
C531 C 0.89926 0.8717 0.31211 0.0
C532 C 0.87433 0.91521 0.34282 0.0
C533 C 0.87741 0.92271 0.38717 0.0
C534 C 0.95551 0.79056 0.29526 0.0
C535 C 0.84341 0.95312 0.32856 0.0
C536 C 0.92474 0.88021 0.20601 0.0
C537 C 0.87998 0.84116 0.17311 0.0
C538 C 0.93188 0.89025 0.25128 0.0
C539 C 0.89317 0.8608 0.26407 0.0
C540 C 0.84796 0.82132 0.23102 0.0
C541 C 0.842 0.8119 0.18599 0.0
C542 C 0.98079 0.93244 0.28544 0.0
C543 C 0.80542 0.78953 0.24333 0.0
H544 H 0.95077 0.8176 0.382 0.0
H545 H 0.85845 0.95622 0.4106 0.0
H546 H 0.92392 0.75707 0.26686 0.0
H547 H 0.98381 0.80851 0.28027 0.0
H548 H 0.97922 0.76992 0.31273 0.0
H549 H 0.82781 0.98614 0.3569 0.0
H550 H 0.87046 0.97511 0.31545 0.0
H551 H 0.80793 0.9265 0.3006 0.0
H552 H 0.95453 0.9026 0.19623 0.0
H553 H 0.80684 0.78237 0.16096 0.0
H554 H 0.00583 0.91085 0.30116 0.0
H555 H 0.96655 0.96778 0.31309 0.0
H556 H 0.0075 0.9513 0.26994 0.0
H557 H 0.82549 0.76434 0.25829 0.0
H558 H 0.77299 0.75986 0.21357 0.0
H559 H 0.78548 0.82065 0.26935 0.0
C560 C 0.24071 0.8465 0.91315 0.0
C561 C 0.26957 0.87366 0.89307 0.0
C562 C 0.24638 0.87138 0.96073 0.0
C563 C 0.28066 0.92526 0.9887 0.0
C564 C 0.30831 0.95356 0.96823 0.0
C565 C 0.30289 0.92716 0.92085 0.0
C566 C 0.2176 0.83904 0.98118 0.0
C567 C 0.34475 0.01132 0.99648 0.0
C568 C 0.27323 0.02491 0.11107 0.0
C569 C 0.32364 0.02262 0.13431 0.0
C570 C 0.25638 0.99037 0.06383 0.0
C571 C 0.29015 0.95161 0.03941 0.0
C572 C 0.33806 0.94497 0.06362 0.0
C573 C 0.35516 0.98194 0.11037 0.0
C574 C 0.20566 1.00004 0.03962 0.0
C575 C 0.37404 0.90224 0.03977 0.0
H576 H 0.21539 0.80482 0.89172 0.0
H577 H 0.32512 0.94826 0.90536 0.0
H578 H 0.2487 0.82829 1.00197 0.0
H579 H 0.19213 0.86627 1.00418 0.0
H580 H 0.19084 0.79868 0.95493 0.0
H581 H 0.3594 0.02985 0.9753 0.0
H582 H 0.3222 0.04197 0.02031 0.0
H583 H 0.38121 1.00689 1.01707 0.0
H584 H 0.24951 0.05763 0.12912 0.0
H585 H 0.39437 0.98043 0.12775 0.0
H586 H 0.18206 0.95905 1.0117 0.0
H587 H 0.2183 0.02775 0.02451 0.0
H588 H 0.17815 0.02158 0.0631 0.0
H589 H 0.34969 0.86356 1.00984 0.0
H590 H 0.39672 0.88839 0.06302 0.0
H591 H 0.4046 0.9226 0.02797 0.0
C592 C 0.88759 0.94547 0.89237 0.0
C593 C 0.83062 0.94497 0.88631 0.0
C594 C 0.9133 0.91965 0.85559 0.0
C595 C 0.8833 0.90139 0.81132 0.0
C596 C 0.82605 0.90333 0.80457 0.0
C597 C 0.8001 0.92364 0.84218 0.0
C598 C 0.97292 0.91281 0.86467 0.0
C599 C 0.7921 0.88744 0.75864 0.0
C600 C 0.98699 0.9098 0.74148 0.0
C601 C 0.98728 0.85175 0.71306 0.0
C602 C 0.94922 0.92664 0.77052 0.0
C603 C 0.91376 0.88412 0.77353 0.0
C604 C 0.91468 0.82534 0.74549 0.0
C605 C 0.95118 0.80998 0.71537 0.0
C606 C 0.94848 0.98991 0.79919 0.0
C607 C 0.88058 0.7788 0.74998 0.0
H608 H 0.9127 0.96528 0.92595 0.0
H609 H 0.75644 0.92563 0.83724 0.0
H610 H 0.98095 0.87185 0.83798 0.0
H611 H 0.0003 0.94849 0.86516 0.0
H612 H 0.9845 0.91349 0.89804 0.0
H613 H 0.75093 0.86345 0.75408 0.0
H614 H 0.78548 0.92748 0.75687 0.0
H615 H 0.81179 0.8614 0.73015 0.0
H616 H 0.0179 0.94195 0.7425 0.0
H617 H 0.95382 0.76516 0.69559 0.0
H618 H 0.96067 1.00272 0.83572 0.0
H619 H 0.906 0.99892 0.79375 0.0
H620 H 0.97688 0.01744 0.79143 0.0
H621 H 0.89382 0.78315 0.78441 0.0
H622 H 0.88468 0.73507 0.72456 0.0
H623 H 0.83649 0.7833 0.746 0.0
C624 C 0.29764 0.85087 0.40421 0.0
C625 C 0.2966 0.90447 0.40479 0.0
C626 C 0.27062 0.83563 0.43231 0.0
C627 C 0.23917 0.87353 0.46056 0.0
C628 C 0.23626 0.92694 0.46045 0.0
C629 C 0.26554 0.94208 0.43319 0.0
C630 C 0.27603 0.77879 0.43181 0.0
C631 C 0.2027 0.96856 0.48952 0.0
C632 C 0.12676 0.80232 0.49427 0.0
C633 C 0.14691 0.8214 0.54077 0.0
C634 C 0.15511 0.82095 0.46861 0.0
C635 C 0.20751 0.85586 0.48851 0.0
C636 C 0.22966 0.87269 0.53463 0.0
C637 C 0.19795 0.85779 0.5607 0.0
C638 C 0.12808 0.80455 0.42048 0.0
C639 C 0.28721 0.90557 0.55612 0.0
H640 H 0.31975 0.82025 0.38165 0.0
H641 H 0.26468 0.98388 0.4348 0.0
H642 H 0.28797 0.78503 0.46694 0.0
H643 H 0.23585 0.74967 0.41657 0.0
H644 H 0.30704 0.75726 0.4121 0.0
H645 H 0.16128 0.94604 0.48616 0.0
H646 H 0.22356 0.98785 0.5256 0.0
H647 H 0.19769 1.00386 0.4806 0.0
H648 H 0.08708 0.77482 0.4781 0.0
H649 H 0.21299 0.8751 0.59666 0.0
H650 H 0.1523 0.77693 0.39645 0.0
H651 H 0.12701 0.84366 0.41601 0.0
H652 H 0.0853 0.78121 0.4112 0.0
H653 H 0.31688 0.8807 0.53673 0.0
H654 H 0.29906 0.91395 0.59181 0.0
H655 H 0.29094 0.94684 0.55476 0.0
C656 C 0.24525 0.35516 0.90597 0.0
C657 C 0.29422 0.35731 0.89003 0.0
C658 C 0.24339 0.34331 0.94274 0.0
C659 C 0.29149 0.33269 0.9639 0.0
C660 C 0.34014 0.33163 0.94621 0.0
C661 C 0.341 0.34425 0.90982 0.0
C662 C 0.19066 0.34521 0.96044 0.0
C663 C 0.3921 0.31939 0.96689 0.0
C664 C 0.31082 0.37518 0.08993 0.0
C665 C 0.29604 0.3226 0.08995 0.0
C666 C 0.30884 0.37885 0.04935 0.0
C667 C 0.29268 0.32856 1.00712 0.0
C668 C 0.27879 0.27505 1.00664 0.0
C669 C 0.28039 0.27271 0.04794 0.0
C670 C 0.32407 0.43688 0.05176 0.0
C671 C 0.26208 0.22027 0.96246 0.0
H672 H 0.20895 0.36535 0.89104 0.0
H673 H 0.37877 0.34479 0.89723 0.0
H674 H 0.18017 0.30666 0.96489 0.0
H675 H 0.19626 0.38329 0.99423 0.0
H676 H 0.15549 0.34778 0.93749 0.0
H677 H 0.42447 0.31386 0.94627 0.0
H678 H 0.4086 0.3554 1.00133 0.0
H679 H 0.38318 0.28002 0.97059 0.0
H680 H 0.32445 0.41392 0.12189 0.0
H681 H 0.2685 0.23186 0.04723 0.0
H682 H 0.28955 0.44603 0.0326 0.0
H683 H 0.36019 0.43692 0.03576 0.0
H684 H 0.33415 0.47214 0.08719 0.0
H685 H 0.22453 0.22296 0.94192 0.0
H686 H 0.25376 0.18194 0.96772 0.0
H687 H 0.29504 0.2143 0.94242 0.0
C688 C 0.78171 0.13128 0.14633 0.0
C689 C 0.82377 0.11985 0.12138 0.0
C690 C 0.79338 0.16512 0.19366 0.0
C691 C 0.84846 0.19024 0.21638 0.0
C692 C 0.88984 0.18554 0.19051 0.0
C693 C 0.87735 0.14883 0.14352 0.0
C694 C 0.74779 0.16827 0.21958 0.0
C695 C 0.94792 0.21659 0.21279 0.0
C696 C 0.87444 0.28415 0.34486 0.0
C697 C 0.88999 0.24513 0.36029 0.0
C698 C 0.86218 0.26773 0.29813 0.0
C699 C 0.86413 0.21061 0.26627 0.0
C700 C 0.8801 0.17131 0.28194 0.0
C701 C 0.89339 0.18924 0.32866 0.0
C702 C 0.84794 0.31155 0.2829 0.0
C703 C 0.883 0.11004 0.24925 0.0
H704 H 0.74023 0.10951 0.12943 0.0
H705 H 0.9102 0.14054 0.12472 0.0
H706 H 0.75318 0.14086 0.23654 0.0
H707 H 0.74925 0.21276 0.24634 0.0
H708 H 0.70653 0.15313 0.19706 0.0
H709 H 0.94835 0.26341 0.22604 0.0
H710 H 0.96316 0.20945 0.24213 0.0
H711 H 0.9766 0.20318 0.18874 0.0
H712 H 0.87234 0.32761 0.36941 0.0
H713 H 0.90509 0.15898 0.34056 0.0
H714 H 0.80863 0.29521 0.25777 0.0
H715 H 0.88036 0.31946 0.26583 0.0
H716 H 0.84446 0.35302 0.3117 0.0
H717 H 0.84268 0.08885 0.22579 0.0
H718 H 0.89451 0.08437 0.2668 0.0
H719 H 0.91396 0.10982 0.22846 0.0
loop_
_geom_bond_atom_site_label_1
_geom_bond_atom_site_label_2
_geom_bond_distance
_geom_bond_site_symmetry_2
_ccdc_geom_bond_type
Gd0 N31 2.661 . S
Gd0 N37 2.601 . S
Gd0 O44 2.545 . S
Gd0 O45 2.606 1_565 S
Gd0 O47 2.429 . S
Gd0 O48 2.545 1_565 S
Gd0 O49 2.412 . S
Gd0 O51 2.362 . S
Gd0 O52 2.324 . S
Gd0 C59 2.828 . S
Gd1 N10 2.661 . S
Gd1 N14 2.601 . S
Gd1 O45 2.362 . S
Gd1 O46 2.324 . S
Gd1 O50 2.545 . S
Gd1 O51 2.606 1_545 S
Gd1 O53 2.429 . S
Gd1 O54 2.545 . S
Gd1 O55 2.412 . S
Gd1 C68 2.828 . S
C2 C5 1.417 . S
C2 C7 1.431 . S
C2 C8 1.412 . S
C3 C6 1.437 . S
C3 C7 1.317 . S
C3 H22 0.929 . S
C4 C5 1.426 . S
C4 C6 1.413 . S
C4 N14 1.359 . S
C5 C2 1.417 . S
C5 C4 1.426 . S
C5 N10 1.350 . S
C6 C3 1.437 . S
C6 C4 1.413 . S
C6 C16 1.391 . S
C7 C2 1.431 . S
C7 C3 1.317 . S
C7 H18 0.930 . S
C8 C2 1.412 . S
C8 C9 1.355 . S
C8 H20 0.930 . S
C9 C8 1.355 . S
C9 C11 1.402 . S
C9 H21 0.930 . S
N10 Gd1 2.661 . S
N10 C5 1.350 . S
N10 C11 1.307 . S
C11 C9 1.402 . S
C11 N10 1.307 . S
C11 H12 0.930 . S
H12 C11 0.930 . S
C13 N14 1.334 . S
C13 C15 1.394 . S
C13 H17 0.930 . S
N14 Gd1 2.601 . S
N14 C4 1.359 . S
N14 C13 1.334 . S
C15 C13 1.394 . S
C15 C16 1.359 . S
C15 H27 0.930 . S
C16 C6 1.391 . S
C16 C15 1.359 . S
C16 H28 0.929 . S
H17 C13 0.930 . S
H18 C7 0.930 . S
H19 C36 0.930 . S
H20 C8 0.930 . S
H21 C9 0.930 . S
H22 C3 0.929 . S
H23 C41 0.930 . S
H24 C32 0.930 1_556 S
H25 C33 0.930 . S
H26 C57 0.929 . S
H27 C15 0.930 . S
H28 C16 0.929 . S
H29 C58 0.930 1_556 S
H30 C39 0.930 . S
N31 Gd0 2.661 . S
N31 C35 1.350 . S
N31 C36 1.307 . S
C32 H24 0.930 1_554 S
C32 C33 1.355 . S
C32 C34 1.412 . S
C33 H25 0.930 . S
C33 C32 1.355 . S
C33 C36 1.402 . S
C34 C32 1.412 . S
C34 C35 1.417 . S
C34 C58 1.431 . S
C35 N31 1.350 . S
C35 C34 1.417 . S
C35 C38 1.426 . S
C36 H19 0.930 . S
C36 N31 1.307 . S
C36 C33 1.402 . S
N37 Gd0 2.601 . S
N37 C38 1.359 . S
N37 C41 1.334 . S
C38 C35 1.426 . S
C38 N37 1.359 . S
C38 C42 1.413 . S
C39 H30 0.930 . S
C39 C40 1.359 . S
C39 C41 1.394 . S
C40 C39 1.359 . S
C40 C42 1.391 . S
C40 H43 0.929 . S
C41 H23 0.930 . S
C41 N37 1.334 . S
C41 C39 1.394 . S
C42 C38 1.413 . S
C42 C40 1.391 . S
C42 C57 1.437 . S
H43 C40 0.929 . S
O44 Gd0 2.545 . S
O44 C59 1.258 . S
O45 Gd0 2.606 1_545 S
O45 Gd1 2.362 . S
O45 C56 1.284 . S
O46 Gd1 2.324 . S
O46 C66 1.254 . S
O47 Gd0 2.429 . S
O47 C66 1.268 1_565 S
O48 Gd0 2.545 1_545 S
O48 C56 1.250 . S
O49 Gd0 2.412 . S
O49 C59 1.252 . S
O50 Gd1 2.545 . S
O50 C68 1.258 . S
O51 Gd0 2.362 . S
O51 Gd1 2.606 1_565 S
O51 C67 1.284 . S
O52 Gd0 2.324 . S
O52 C75 1.254 1_565 S
O53 Gd1 2.429 . S
O53 C75 1.268 . S
O54 Gd1 2.545 . S
O54 C67 1.250 1_545 S
O55 Gd1 2.412 . S
O55 C68 1.252 . S
C56 O45 1.284 . S
C56 O48 1.250 . S
C57 H26 0.929 . S
C57 C42 1.437 . S
C57 C58 1.317 . S
C58 H29 0.930 1_554 S
C58 C34 1.431 . S
C58 C57 1.317 . S
C59 Gd0 2.828 . S
C59 O44 1.258 . S
C59 O49 1.252 . S
C59 C60 1.497 . S
C60 C59 1.497 . S
C60 C61 1.395 . S
C60 C62 1.380 . S
C61 C60 1.395 . S
C61 C64 1.398 . S
C61 H76 0.930 . S
C62 C60 1.380 . S
C62 C63 1.391 . S
C62 H77 0.930 . S
C63 C62 1.391 . S
C63 C65 1.387 . S
C64 C61 1.398 . S
C64 C65 1.380 . S
C64 H78 0.930 . S
C65 C63 1.387 . S
C65 C64 1.380 . S
C65 H79 0.930 . S
C66 O46 1.254 . S
C66 O47 1.268 1_545 S
C67 O51 1.284 . S
C67 O54 1.250 1_565 S
C68 Gd1 2.828 . S
C68 O50 1.258 . S
C68 O55 1.252 . S
C68 C69 1.497 . S
C69 C68 1.497 . S
C69 C70 1.395 . S
C69 C71 1.380 . S
C70 C69 1.395 . S
C70 C73 1.398 . S
C70 H80 0.930 . S
C71 C69 1.380 . S
C71 C72 1.391 . S
C71 H81 0.930 . S
C72 C71 1.391 . S
C72 C74 1.387 . S
C73 C70 1.398 . S
C73 C74 1.380 . S
C73 H82 0.930 . S
C74 C72 1.387 . S
C74 C73 1.380 . S
C74 H83 0.930 . S
C75 O52 1.254 1_545 S
C75 O53 1.268 . S
H76 C61 0.930 . S
H77 C62 0.930 . S
H78 C64 0.930 . S
H79 C65 0.930 . S
H80 C70 0.930 . S
H81 C71 0.930 . S
H82 C73 0.930 . S
H83 C74 0.930 . S
Gd84 N115 2.661 . S
Gd84 N121 2.601 . S
Gd84 O128 2.545 . S
Gd84 O129 2.606 . S
Gd84 O131 2.429 . S
Gd84 O132 2.545 . S
Gd84 O133 2.412 . S
Gd84 O135 2.362 . S
Gd84 O136 2.324 . S
Gd84 C143 2.828 . S
Gd85 N94 2.661 . S
Gd85 N98 2.601 . S
Gd85 O129 2.362 . S
Gd85 O130 2.324 . S
Gd85 O134 2.545 . S
Gd85 O135 2.606 . S
Gd85 O137 2.429 . S
Gd85 O138 2.545 . S
Gd85 O139 2.412 . S
Gd85 C152 2.828 . S
C86 C89 1.417 . S
C86 C91 1.431 . S
C86 C92 1.412 . S
C87 C90 1.437 . S
C87 C91 1.317 . S
C87 H106 0.929 . S
C88 C89 1.426 . S
C88 C90 1.413 . S
C88 N98 1.359 1_655 S
C89 C86 1.417 . S
C89 C88 1.426 . S
C89 N94 1.350 1_655 S
C90 C87 1.437 . S
C90 C88 1.413 . S
C90 C100 1.391 . S
C91 C86 1.431 . S
C91 C87 1.317 . S
C91 H102 0.930 . S
C92 C86 1.412 . S
C92 C93 1.355 . S
C92 H104 0.930 . S
C93 C92 1.355 . S
C93 C95 1.402 1_655 S
C93 H105 0.930 . S
N94 Gd85 2.661 . S
N94 C89 1.350 1_455 S
N94 C95 1.307 . S
C95 C93 1.402 1_455 S
C95 N94 1.307 . S
C95 H96 0.930 . S
H96 C95 0.930 . S
C97 N98 1.334 . S
C97 C99 1.394 1_455 S
C97 H101 0.930 . S
N98 Gd85 2.601 . S
N98 C88 1.359 1_455 S
N98 C97 1.334 . S
C99 C97 1.394 1_655 S
C99 C100 1.359 . S
C99 H111 0.930 . S
C100 C90 1.391 . S
C100 C99 1.359 . S
C100 H112 0.929 . S
H101 C97 0.930 . S
H102 C91 0.930 . S
H103 C120 0.930 . S
H104 C92 0.930 . S
H105 C93 0.930 . S
H106 C87 0.929 . S
H107 C125 0.930 . S
H108 C116 0.930 . S
H109 C117 0.930 . S
H110 C141 0.929 . S
H111 C99 0.930 . S
H112 C100 0.929 . S
H113 C142 0.930 . S
H114 C123 0.930 . S
N115 Gd84 2.661 . S
N115 C119 1.350 . S
N115 C120 1.307 . S
C116 H108 0.930 . S
C116 C117 1.355 . S
C116 C118 1.412 . S
C117 H109 0.930 . S
C117 C116 1.355 . S
C117 C120 1.402 . S
C118 C116 1.412 . S
C118 C119 1.417 . S
C118 C142 1.431 . S
C119 N115 1.350 . S
C119 C118 1.417 . S
C119 C122 1.426 . S
C120 H103 0.930 . S
C120 N115 1.307 . S
C120 C117 1.402 . S
N121 Gd84 2.601 . S
N121 C122 1.359 . S
N121 C125 1.334 . S
C122 C119 1.426 . S
C122 N121 1.359 . S
C122 C126 1.413 . S
C123 H114 0.930 . S
C123 C124 1.359 . S
C123 C125 1.394 . S
C124 C123 1.359 . S
C124 C126 1.391 . S
C124 H127 0.929 . S
C125 H107 0.930 . S
C125 N121 1.334 . S
C125 C123 1.394 . S
C126 C122 1.413 . S
C126 C124 1.391 . S
C126 C141 1.437 . S
H127 C124 0.929 . S
O128 Gd84 2.545 . S
O128 C143 1.258 . S
O129 Gd84 2.606 . S
O129 Gd85 2.362 . S
O129 C140 1.284 . S
O130 Gd85 2.324 . S
O130 C150 1.254 . S
O131 Gd84 2.429 . S
O131 C150 1.268 . S
O132 Gd84 2.545 . S
O132 C140 1.250 . S
O133 Gd84 2.412 . S
O133 C143 1.252 . S
O134 Gd85 2.545 . S
O134 C152 1.258 . S
O135 Gd84 2.362 . S
O135 Gd85 2.606 . S
O135 C151 1.284 . S
O136 Gd84 2.324 . S
O136 C159 1.254 . S
O137 Gd85 2.429 . S
O137 C159 1.268 . S
O138 Gd85 2.545 . S
O138 C151 1.250 . S
O139 Gd85 2.412 . S
O139 C152 1.252 . S
C140 O129 1.284 . S
C140 O132 1.250 . S
C141 H110 0.929 . S
C141 C126 1.437 . S
C141 C142 1.317 . S
C142 H113 0.930 . S
C142 C118 1.431 . S
C142 C141 1.317 . S
C143 Gd84 2.828 . S
C143 O128 1.258 . S
C143 O133 1.252 . S
C143 C144 1.497 . S
C144 C143 1.497 . S
C144 C145 1.395 . S
C144 C146 1.380 . S
C145 C144 1.395 . S
C145 C148 1.398 . S
C145 H160 0.930 . S
C146 C144 1.380 . S
C146 C147 1.391 . S
C146 H161 0.930 . S
C147 C146 1.391 . S
C147 C149 1.387 . S
C148 C145 1.398 . S
C148 C149 1.380 . S
C148 H162 0.930 . S
C149 C147 1.387 . S
C149 C148 1.380 . S
C149 H163 0.930 . S
C150 O130 1.254 . S
C150 O131 1.268 . S
C151 O135 1.284 . S
C151 O138 1.250 . S
C152 Gd85 2.828 . S
C152 O134 1.258 . S
C152 O139 1.252 . S
C152 C153 1.497 . S
C153 C152 1.497 . S
C153 C154 1.395 1_455 S
C153 C155 1.380 . S
C154 C153 1.395 1_655 S
C154 C157 1.398 . S
C154 H164 0.930 . S
C155 C153 1.380 . S
C155 C156 1.391 . S
C155 H165 0.930 . S
C156 C155 1.391 . S
C156 C158 1.387 1_455 S
C157 C154 1.398 . S
C157 C158 1.380 . S
C157 H166 0.930 . S
C158 C156 1.387 1_655 S
C158 C157 1.380 . S
C158 H167 0.930 . S
C159 O136 1.254 . S
C159 O137 1.268 . S
H160 C145 0.930 . S
H161 C146 0.930 . S
H162 C148 0.930 . S
H163 C149 0.930 . S
H164 C154 0.930 . S
H165 C155 0.930 . S
H166 C157 0.930 . S
H167 C158 0.930 . S
Gd168 N199 2.661 1_545 S
Gd168 N205 2.601 1_545 S
Gd168 O212 2.545 1_545 S
Gd168 O213 2.606 . S
Gd168 O215 2.429 . S
Gd168 O216 2.545 . S
Gd168 O217 2.412 1_545 S
Gd168 O219 2.362 . S
Gd168 O220 2.324 . S
Gd168 C227 2.828 1_545 S
Gd169 N178 2.661 . S
Gd169 N182 2.601 . S
Gd169 O213 2.362 . S
Gd169 O214 2.324 . S
Gd169 O218 2.545 . S
Gd169 O219 2.606 . S
Gd169 O221 2.429 . S
Gd169 O222 2.545 1_554 S
Gd169 O223 2.412 . S
Gd169 C236 2.828 . S
C170 C173 1.417 . S
C170 C175 1.431 . S
C170 C176 1.412 . S
C171 C174 1.437 . S
C171 C175 1.317 . S
C171 H190 0.929 . S
C172 C173 1.426 . S
C172 C174 1.413 . S
C172 N182 1.359 . S
C173 C170 1.417 . S
C173 C172 1.426 . S
C173 N178 1.350 . S
C174 C171 1.437 . S
C174 C172 1.413 . S
C174 C184 1.391 . S
C175 C170 1.431 . S
C175 C171 1.317 . S
C175 H186 0.930 . S
C176 C170 1.412 . S
C176 C177 1.355 1_655 S
C176 H188 0.930 1_655 S
C177 C176 1.355 1_455 S
C177 C179 1.402 1_455 S
C177 H189 0.930 . S
N178 Gd169 2.661 . S
N178 C173 1.350 . S
N178 C179 1.307 . S
C179 C177 1.402 1_655 S
C179 N178 1.307 . S
C179 H180 0.930 . S
H180 C179 0.930 . S
C181 N182 1.334 . S
C181 C183 1.394 . S
C181 H185 0.930 . S
N182 Gd169 2.601 . S
N182 C172 1.359 . S
N182 C181 1.334 . S
C183 C181 1.394 . S
C183 C184 1.359 . S
C183 H195 0.930 . S
C184 C174 1.391 . S
C184 C183 1.359 . S
C184 H196 0.929 . S
H185 C181 0.930 . S
H186 C175 0.930 . S
H187 C204 0.928 1_554 S
H188 C176 0.930 1_455 S
H189 C177 0.930 . S
H190 C171 0.929 . S
H191 C209 0.930 . S
H192 C200 0.930 . S
H193 C201 0.930 . S
H194 C225 0.929 . S
H195 C183 0.930 . S
H196 C184 0.929 . S
H197 C226 0.930 . S
H198 C207 0.930 1_455 S
N199 Gd168 2.661 1_565 S
N199 C203 1.350 1_554 S
N199 C204 1.307 1_554 S
C200 H192 0.930 . S
C200 C201 1.355 . S
C200 C202 1.412 . S
C201 H193 0.930 . S
C201 C200 1.355 . S
C201 C204 1.402 . S
C202 C200 1.412 . S
C202 C203 1.417 . S
C202 C226 1.431 . S
C203 N199 1.350 1_556 S
C203 C202 1.417 . S
C203 C206 1.426 . S
C204 H187 0.928 1_556 S
C204 N199 1.307 1_556 S
C204 C201 1.402 . S
N205 Gd168 2.601 1_565 S
N205 C206 1.359 1_554 S
N205 C209 1.334 . S
C206 C203 1.426 . S
C206 N205 1.359 1_556 S
C206 C210 1.413 . S
C207 H198 0.930 1_655 S
C207 C208 1.359 1_554 S
C207 C209 1.394 . S
C208 C207 1.359 1_556 S
C208 C210 1.391 . S
C208 H211 0.929 . S
C209 H191 0.930 . S
C209 N205 1.334 . S
C209 C207 1.394 . S
C210 C206 1.413 . S
C210 C208 1.391 . S
C210 C225 1.437 . S
H211 C208 0.929 . S
O212 Gd168 2.545 1_565 S
O212 C227 1.258 . S
O213 Gd168 2.606 . S
O213 Gd169 2.362 . S
O213 C224 1.284 . S
O214 Gd169 2.324 . S
O214 C234 1.254 . S
O215 Gd168 2.429 . S
O215 C234 1.268 . S
O216 Gd168 2.545 . S
O216 C224 1.250 . S
O217 Gd168 2.412 1_565 S
O217 C227 1.252 . S
O218 Gd169 2.545 . S
O218 C236 1.258 . S
O219 Gd168 2.362 . S
O219 Gd169 2.606 . S
O219 C235 1.284 1_554 S
O220 Gd168 2.324 . S
O220 C243 1.254 . S
O221 Gd169 2.429 . S
O221 C243 1.268 . S
O222 Gd169 2.545 1_556 S
O222 C235 1.250 . S
O223 Gd169 2.412 . S
O223 C236 1.252 . S
C224 O213 1.284 . S
C224 O216 1.250 . S
C225 H194 0.929 . S
C225 C210 1.437 . S
C225 C226 1.317 . S
C226 H197 0.930 . S
C226 C202 1.431 . S
C226 C225 1.317 . S
C227 Gd168 2.828 1_565 S
C227 O212 1.258 . S
C227 O217 1.252 . S
C227 C228 1.497 . S
C228 C227 1.497 . S
C228 C229 1.395 . S
C228 C230 1.380 . S
C229 C228 1.395 . S
C229 C232 1.398 . S
C229 H244 0.930 . S
C230 C228 1.380 . S
C230 C231 1.391 . S
C230 H245 0.930 . S
C231 C230 1.391 . S
C231 C233 1.387 . S
C232 C229 1.398 . S
C232 C233 1.380 . S
C232 H246 0.930 . S
C233 C231 1.387 . S
C233 C232 1.380 . S
C233 H247 0.930 . S
C234 O214 1.254 . S
C234 O215 1.268 . S
C235 O219 1.284 1_556 S
C235 O222 1.250 . S
C236 Gd169 2.828 . S
C236 O218 1.258 . S
C236 O223 1.252 . S
C236 C237 1.497 1_554 S
C237 C236 1.497 1_556 S
C237 C238 1.395 . S
C237 C239 1.380 . S
C238 C237 1.395 . S
C238 C241 1.398 . S
C238 H248 0.930 . S
C239 C237 1.380 . S
C239 C240 1.391 . S
C239 H249 0.930 . S
C240 C239 1.391 . S
C240 C242 1.387 . S
C241 C238 1.398 . S
C241 C242 1.380 . S
C241 H250 0.930 . S
C242 C240 1.387 . S
C242 C241 1.380 . S
C242 H251 0.930 . S
C243 O220 1.254 . S
C243 O221 1.268 . S
H244 C229 0.930 . S
H245 C230 0.930 . S
H246 C232 0.930 . S
H247 C233 0.930 . S
H248 C238 0.930 . S
H249 C239 0.930 . S
H250 C241 0.930 . S
H251 C242 0.930 . S
Gd252 N283 2.661 . S
Gd252 N289 2.601 . S
Gd252 O296 2.545 . S
Gd252 O297 2.606 1_455 S
Gd252 O299 2.429 . S
Gd252 O300 2.545 . S
Gd252 O301 2.412 . S
Gd252 O303 2.362 . S
Gd252 O304 2.324 . S
Gd252 C311 2.828 . S
Gd253 N262 2.661 . S
Gd253 N266 2.601 . S
Gd253 O297 2.362 . S
Gd253 O298 2.324 . S
Gd253 O302 2.545 . S
Gd253 O303 2.606 1_655 S
Gd253 O305 2.429 . S
Gd253 O306 2.545 1_655 S
Gd253 O307 2.412 . S
Gd253 C320 2.828 . S
C254 C257 1.417 . S
C254 C259 1.431 . S
C254 C260 1.412 . S
C255 C258 1.437 . S
C255 C259 1.317 . S
C255 H274 0.929 . S
C256 C257 1.426 . S
C256 C258 1.413 . S
C256 N266 1.359 . S
C257 C254 1.417 . S
C257 C256 1.426 . S
C257 N262 1.350 . S
C258 C255 1.437 . S
C258 C256 1.413 . S
C258 C268 1.391 . S
C259 C254 1.431 . S
C259 C255 1.317 . S
C259 H270 0.930 . S
C260 C254 1.412 . S
C260 C261 1.355 . S
C260 H272 0.930 . S
C261 C260 1.355 . S
C261 C263 1.402 . S
C261 H273 0.930 . S
N262 Gd253 2.661 . S
N262 C257 1.350 . S
N262 C263 1.307 . S
C263 C261 1.402 . S
C263 N262 1.307 . S
C263 H264 0.930 . S
H264 C263 0.930 . S
C265 N266 1.334 . S
C265 C267 1.394 . S
C265 H269 0.930 . S
N266 Gd253 2.601 . S
N266 C256 1.359 . S
N266 C265 1.334 . S
C267 C265 1.394 . S
C267 C268 1.359 . S
C267 H279 0.930 . S
C268 C258 1.391 . S
C268 C267 1.359 . S
C268 H280 0.929 . S
H269 C265 0.930 . S
H270 C259 0.930 . S
H271 C288 0.930 . S
H272 C260 0.930 . S
H273 C261 0.930 . S
H274 C255 0.929 . S
H275 C293 0.930 . S
H276 C284 0.930 . S
H277 C285 0.930 . S
H278 C309 0.929 . S
H279 C267 0.930 . S
H280 C268 0.929 . S
H281 C310 0.930 . S
H282 C291 0.930 . S
N283 Gd252 2.661 . S
N283 C287 1.350 . S
N283 C288 1.307 . S
C284 H276 0.930 . S
C284 C285 1.355 . S
C284 C286 1.412 . S
C285 H277 0.930 . S
C285 C284 1.355 . S
C285 C288 1.402 . S
C286 C284 1.412 . S
C286 C287 1.417 . S
C286 C310 1.431 . S
C287 N283 1.350 . S
C287 C286 1.417 . S
C287 C290 1.426 . S
C288 H271 0.930 . S
C288 N283 1.307 . S
C288 C285 1.402 . S
N289 Gd252 2.601 . S
N289 C290 1.359 . S
N289 C293 1.334 . S
C290 C287 1.426 . S
C290 N289 1.359 . S
C290 C294 1.413 . S
C291 H282 0.930 . S
C291 C292 1.359 1_545 S
C291 C293 1.394 1_545 S
C292 C291 1.359 1_565 S
C292 C294 1.391 . S
C292 H295 0.929 1_565 S
C293 H275 0.930 . S
C293 N289 1.334 . S
C293 C291 1.394 1_565 S
C294 C290 1.413 . S
C294 C292 1.391 . S
C294 C309 1.437 . S
H295 C292 0.929 1_545 S
O296 Gd252 2.545 . S
O296 C311 1.258 . S
O297 Gd252 2.606 1_655 S
O297 Gd253 2.362 . S
O297 C308 1.284 . S
O298 Gd253 2.324 . S
O298 C318 1.254 1_655 S
O299 Gd252 2.429 . S
O299 C318 1.268 . S
O300 Gd252 2.545 . S
O300 C308 1.250 1_455 S
O301 Gd252 2.412 . S
O301 C311 1.252 . S
O302 Gd253 2.545 . S
O302 C320 1.258 . S
O303 Gd252 2.362 . S
O303 Gd253 2.606 1_455 S
O303 C319 1.284 . S
O304 Gd252 2.324 . S
O304 C327 1.254 . S
O305 Gd253 2.429 . S
O305 C327 1.268 1_655 S
O306 Gd253 2.545 1_455 S
O306 C319 1.250 . S
O307 Gd253 2.412 . S
O307 C320 1.252 . S
C308 O297 1.284 . S
C308 O300 1.250 1_655 S
C309 H278 0.929 . S
C309 C294 1.437 . S
C309 C310 1.317 . S
C310 H281 0.930 . S
C310 C286 1.431 . S
C310 C309 1.317 . S
C311 Gd252 2.828 . S
C311 O296 1.258 . S
C311 O301 1.252 . S
C311 C312 1.497 . S
C312 C311 1.497 . S
C312 C313 1.395 . S
C312 C314 1.380 . S
C313 C312 1.395 . S
C313 C316 1.398 . S
C313 H328 0.930 . S
C314 C312 1.380 . S
C314 C315 1.391 . S
C314 H329 0.930 . S
C315 C314 1.391 . S
C315 C317 1.387 . S
C316 C313 1.398 . S
C316 C317 1.380 . S
C316 H330 0.930 . S
C317 C315 1.387 . S
C317 C316 1.380 . S
C317 H331 0.930 . S
C318 O298 1.254 1_455 S
C318 O299 1.268 . S
C319 O303 1.284 . S
C319 O306 1.250 . S
C320 Gd253 2.828 . S
C320 O302 1.258 . S
C320 O307 1.252 . S
C320 C321 1.497 . S
C321 C320 1.497 . S
C321 C322 1.395 . S
C321 C323 1.380 . S
C322 C321 1.395 . S
C322 C325 1.398 . S
C322 H332 0.930 . S
C323 C321 1.380 . S
C323 C324 1.391 . S
C323 H333 0.930 . S
C324 C323 1.391 . S
C324 C326 1.387 . S
C325 C322 1.398 . S
C325 C326 1.380 . S
C325 H334 0.930 . S
C326 C324 1.387 . S
C326 C325 1.380 . S
C326 H335 0.930 . S
C327 O304 1.254 . S
C327 O305 1.268 1_455 S
H328 C313 0.930 . S
H329 C314 0.930 . S
H330 C316 0.930 . S
H331 C317 0.930 . S
H332 C322 0.930 . S
H333 C323 0.930 . S
H334 C325 0.930 . S
H335 C326 0.930 . S
C336 C337 1.391 . S
C336 C338 1.394 1_655 S
C336 H352 0.931 . S
C337 C336 1.391 . S
C337 C341 1.376 1_655 S
C338 C336 1.394 1_455 S
C338 C339 1.369 . S
C338 C342 1.531 . S
C339 C338 1.369 . S
C339 C340 1.410 . S
C339 C347 1.503 . S
C340 C339 1.410 . S
C340 C341 1.392 . S
C340 C343 1.511 . S
C341 C337 1.376 1_455 S
C341 C340 1.392 . S
C341 H353 0.929 . S
C342 C338 1.531 . S
C342 H354 0.960 . S
C342 H355 0.962 . S
C342 H356 0.960 1_455 S
C343 C340 1.511 . S
C343 H357 0.961 . S
C343 H358 0.961 . S
C343 H359 0.961 1_545 S
C344 C345 1.370 . S
C344 C346 1.363 . S
C344 H360 0.931 . S
C345 C344 1.370 . S
C345 C349 1.408 1_545 S
C346 C344 1.363 . S
C346 C347 1.370 . S
C346 C350 1.524 . S
C347 C339 1.503 . S
C347 C346 1.370 . S
C347 C348 1.403 1_545 S
C348 C347 1.403 1_565 S
C348 C349 1.404 . S
C348 C351 1.539 . S
C349 C345 1.408 1_565 S
C349 C348 1.404 . S
C349 H361 0.930 . S
C350 C346 1.524 . S
C350 H362 0.956 . S
C350 H363 0.961 . S
C350 H364 0.961 . S
C351 C348 1.539 . S
C351 H365 0.958 . S
C351 H366 0.961 . S
C351 H367 0.960 . S
H352 C336 0.931 . S
H353 C341 0.929 . S
H354 C342 0.960 . S
H355 C342 0.962 . S
H356 C342 0.960 1_655 S
H357 C343 0.961 . S
H358 C343 0.961 . S
H359 C343 0.961 1_565 S
H360 C344 0.931 . S
H361 C349 0.930 . S
H362 C350 0.956 . S
H363 C350 0.961 . S
H364 C350 0.961 . S
H365 C351 0.958 . S
H366 C351 0.961 . S
H367 C351 0.960 . S
C368 C369 1.391 . S
C368 C370 1.394 . S
C368 H384 0.931 . S
C369 C368 1.391 . S
C369 C373 1.376 1_455 S
C370 C368 1.394 . S
C370 C371 1.369 1_565 S
C370 C374 1.531 1_565 S
C371 C370 1.369 1_545 S
C371 C372 1.410 . S
C371 C379 1.503 . S
C372 C371 1.410 . S
C372 C373 1.392 1_445 S
C372 C375 1.511 1_455 S
C373 C369 1.376 1_655 S
C373 C372 1.392 1_665 S
C373 H385 0.929 . S
C374 C370 1.531 1_545 S
C374 H386 0.960 . S
C374 H387 0.962 . S
C374 H388 0.960 1_545 S
C375 C372 1.511 1_655 S
C375 H389 0.961 . S
C375 H390 0.961 1_655 S
C375 H391 0.961 . S
C376 C377 1.370 . S
C376 C378 1.363 . S
C376 H392 0.931 . S
C377 C376 1.370 . S
C377 C381 1.408 . S
C378 C376 1.363 . S
C378 C379 1.370 . S
C378 C382 1.524 . S
C379 C371 1.503 . S
C379 C378 1.370 . S
C379 C380 1.403 . S
C380 C379 1.403 . S
C380 C381 1.404 . S
C380 C383 1.539 . S
C381 C377 1.408 . S
C381 C380 1.404 . S
C381 H393 0.930 . S
C382 C378 1.524 . S
C382 H394 0.956 . S
C382 H395 0.961 . S
C382 H396 0.961 . S
C383 C380 1.539 . S
C383 H397 0.958 . S
C383 H398 0.961 . S
C383 H399 0.960 . S
H384 C368 0.931 . S
H385 C373 0.929 . S
H386 C374 0.960 . S
H387 C374 0.962 . S
H388 C374 0.960 1_565 S
H389 C375 0.961 . S
H390 C375 0.961 1_455 S
H391 C375 0.961 . S
H392 C376 0.931 . S
H393 C381 0.930 . S
H394 C382 0.956 . S
H395 C382 0.961 . S
H396 C382 0.961 . S
H397 C383 0.958 . S
H398 C383 0.961 . S
H399 C383 0.960 . S
C400 C401 1.391 . S
C400 C402 1.394 . S
C400 H416 0.931 . S
C401 C400 1.391 . S
C401 C405 1.376 . S
C402 C400 1.394 . S
C402 C403 1.369 . S
C402 C406 1.531 . S
C403 C402 1.369 . S
C403 C404 1.410 . S
C403 C411 1.503 . S
C404 C403 1.410 . S
C404 C405 1.392 . S
C404 C407 1.511 1_545 S
C405 C401 1.376 . S
C405 C404 1.392 . S
C405 H417 0.929 . S
C406 C402 1.531 . S
C406 H418 0.960 . S
C406 H419 0.962 . S
C406 H420 0.960 . S
C407 C404 1.511 1_565 S
C407 H421 0.961 . S
C407 H422 0.961 . S
C407 H423 0.961 . S
C408 C409 1.370 . S
C408 C410 1.363 . S
C408 H424 0.931 . S
C409 C408 1.370 . S
C409 C413 1.408 1_545 S
C410 C408 1.363 . S
C410 C411 1.370 . S
C410 C414 1.524 . S
C411 C403 1.503 . S
C411 C410 1.370 . S
C411 C412 1.403 . S
C412 C411 1.403 . S
C412 C413 1.404 1_545 S
C412 C415 1.539 1_545 S
C413 C409 1.408 1_565 S
C413 C412 1.404 1_565 S
C413 H425 0.930 . S
C414 C410 1.524 . S
C414 H426 0.956 . S
C414 H427 0.961 . S
C414 H428 0.961 . S
C415 C412 1.539 1_565 S
C415 H429 0.958 . S
C415 H430 0.961 . S
C415 H431 0.960 . S
H416 C400 0.931 . S
H417 C405 0.929 . S
H418 C406 0.960 . S
H419 C406 0.962 . S
H420 C406 0.960 . S
H421 C407 0.961 . S
H422 C407 0.961 . S
H423 C407 0.961 . S
H424 C408 0.931 . S
H425 C413 0.930 . S
H426 C414 0.956 . S
H427 C414 0.961 . S
H428 C414 0.961 . S
H429 C415 0.958 . S
H430 C415 0.961 . S
H431 C415 0.960 . S
C432 C433 1.391 . S
C432 C434 1.394 . S
C432 H448 0.931 . S
C433 C432 1.391 . S
C433 C437 1.376 . S
C434 C432 1.394 . S
C434 C435 1.369 . S
C434 C438 1.531 . S
C435 C434 1.369 . S
C435 C436 1.410 . S
C435 C443 1.503 . S
C436 C435 1.410 . S
C436 C437 1.392 . S
C436 C439 1.511 . S
C437 C433 1.376 . S
C437 C436 1.392 . S
C437 H449 0.929 . S
C438 C434 1.531 . S
C438 H450 0.960 . S
C438 H451 0.962 . S
C438 H452 0.960 . S
C439 C436 1.511 . S
C439 H453 0.961 . S
C439 H454 0.961 . S
C439 H455 0.961 1_455 S
C440 C441 1.370 . S
C440 C442 1.363 . S
C440 H456 0.931 . S
C441 C440 1.370 . S
C441 C445 1.408 1_455 S
C442 C440 1.363 . S
C442 C443 1.370 . S
C442 C446 1.524 . S
C443 C435 1.503 . S
C443 C442 1.370 . S
C443 C444 1.403 . S
C444 C443 1.403 . S
C444 C445 1.404 1_455 S
C444 C447 1.539 . S
C445 C441 1.408 1_655 S
C445 C444 1.404 1_655 S
C445 H457 0.930 . S
C446 C442 1.524 . S
C446 H458 0.956 . S
C446 H459 0.961 . S
C446 H460 0.961 . S
C447 C444 1.539 . S
C447 H461 0.958 . S
C447 H462 0.961 1_455 S
C447 H463 0.960 . S
H448 C432 0.931 . S
H449 C437 0.929 . S
H450 C438 0.960 . S
H451 C438 0.962 . S
H452 C438 0.960 . S
H453 C439 0.961 . S
H454 C439 0.961 . S
H455 C439 0.961 1_655 S
H456 C440 0.931 . S
H457 C445 0.930 . S
H458 C446 0.956 . S
H459 C446 0.961 . S
H460 C446 0.961 . S
H461 C447 0.958 . S
H462 C447 0.961 1_655 S
H463 C447 0.960 . S
C464 C465 1.391 . S
C464 C466 1.394 . S
C464 H480 0.931 . S
C465 C464 1.391 . S
C465 C469 1.376 . S
C466 C464 1.394 . S
C466 C467 1.369 . S
C466 C470 1.531 . S
C467 C466 1.369 . S
C467 C468 1.410 . S
C467 C475 1.503 . S
C468 C467 1.410 . S
C468 C469 1.392 . S
C468 C471 1.511 . S
C469 C465 1.376 . S
C469 C468 1.392 . S
C469 H481 0.929 . S
C470 C466 1.531 . S
C470 H482 0.960 . S
C470 H483 0.962 . S
C470 H484 0.960 . S
C471 C468 1.511 . S
C471 H485 0.961 . S
C471 H486 0.961 . S
C471 H487 0.961 . S
C472 C473 1.370 . S
C472 C474 1.363 . S
C472 H488 0.931 . S
C473 C472 1.370 . S
C473 C477 1.408 . S
C474 C472 1.363 . S
C474 C475 1.370 . S
C474 C478 1.524 . S
C475 C467 1.503 . S
C475 C474 1.370 . S
C475 C476 1.403 . S
C476 C475 1.403 . S
C476 C477 1.404 . S
C476 C479 1.539 . S
C477 C473 1.408 . S
C477 C476 1.404 . S
C477 H489 0.930 . S
C478 C474 1.524 . S
C478 H490 0.956 . S
C478 H491 0.961 . S
C478 H492 0.961 . S
C479 C476 1.539 . S
C479 H493 0.958 . S
C479 H494 0.961 . S
C479 H495 0.960 . S
H480 C464 0.931 . S
H481 C469 0.929 . S
H482 C470 0.960 . S
H483 C470 0.962 . S
H484 C470 0.960 . S
H485 C471 0.961 . S
H486 C471 0.961 . S
H487 C471 0.961 . S
H488 C472 0.931 . S
H489 C477 0.930 . S
H490 C478 0.956 . S
H491 C478 0.961 . S
H492 C478 0.961 . S
H493 C479 0.958 . S
H494 C479 0.961 . S
H495 C479 0.960 . S
C496 C497 1.391 . S
C496 C498 1.394 . S
C496 H512 0.931 . S
C497 C496 1.391 . S
C497 C501 1.376 . S
C498 C496 1.394 . S
C498 C499 1.369 . S
C498 C502 1.531 1_455 S
C499 C498 1.369 . S
C499 C500 1.410 . S
C499 C507 1.503 . S
C500 C499 1.410 . S
C500 C501 1.392 . S
C500 C503 1.511 . S
C501 C497 1.376 . S
C501 C500 1.392 . S
C501 H513 0.929 . S
C502 C498 1.531 1_655 S
C502 H514 0.960 . S
C502 H515 0.962 . S
C502 H516 0.960 . S
C503 C500 1.511 . S
C503 H517 0.961 . S
C503 H518 0.961 . S
C503 H519 0.961 . S
C504 C505 1.370 . S
C504 C506 1.363 . S
C504 H520 0.931 . S
C505 C504 1.370 . S
C505 C509 1.408 1_655 S
C506 C504 1.363 . S
C506 C507 1.370 1_655 S
C506 C510 1.524 . S
C507 C499 1.503 . S
C507 C506 1.370 1_455 S
C507 C508 1.403 . S
C508 C507 1.403 . S
C508 C509 1.404 . S
C508 C511 1.539 . S
C509 C505 1.408 1_455 S
C509 C508 1.404 . S
C509 H521 0.930 . S
C510 C506 1.524 . S
C510 H522 0.956 . S
C510 H523 0.961 . S
C510 H524 0.961 . S
C511 C508 1.539 . S
C511 H525 0.958 . S
C511 H526 0.961 . S
C511 H527 0.960 . S
H512 C496 0.931 . S
H513 C501 0.929 . S
H514 C502 0.960 . S
H515 C502 0.962 . S
H516 C502 0.960 . S
H517 C503 0.961 . S
H518 C503 0.961 . S
H519 C503 0.961 . S
H520 C504 0.931 . S
H521 C509 0.930 . S
H522 C510 0.956 . S
H523 C510 0.961 . S
H524 C510 0.961 . S
H525 C511 0.958 . S
H526 C511 0.961 . S
H527 C511 0.960 . S
C528 C529 1.391 . S
C528 C530 1.394 . S
C528 H544 0.931 . S
C529 C528 1.391 . S
C529 C533 1.376 . S
C530 C528 1.394 . S
C530 C531 1.369 . S
C530 C534 1.531 . S
C531 C530 1.369 . S
C531 C532 1.410 . S
C531 C539 1.503 . S
C532 C531 1.410 . S
C532 C533 1.392 . S
C532 C535 1.511 . S
C533 C529 1.376 . S
C533 C532 1.392 . S
C533 H545 0.929 . S
C534 C530 1.531 . S
C534 H546 0.960 . S
C534 H547 0.962 . S
C534 H548 0.960 . S
C535 C532 1.511 . S
C535 H549 0.961 . S
C535 H550 0.961 . S
C535 H551 0.961 . S
C536 C537 1.370 . S
C536 C538 1.363 . S
C536 H552 0.931 1_565 S
C537 C536 1.370 . S
C537 C541 1.408 . S
C538 C536 1.363 . S
C538 C539 1.370 . S
C538 C542 1.524 . S
C539 C531 1.503 . S
C539 C538 1.370 . S
C539 C540 1.403 . S
C540 C539 1.403 . S
C540 C541 1.404 . S
C540 C543 1.539 . S
C541 C537 1.408 . S
C541 C540 1.404 . S
C541 H553 0.930 . S
C542 C538 1.524 . S
C542 H554 0.956 . S
C542 H555 0.961 . S
C542 H556 0.961 1_565 S
C543 C540 1.539 . S
C543 H557 0.958 . S
C543 H558 0.961 . S
C543 H559 0.960 . S
H544 C528 0.931 . S
H545 C533 0.929 . S
H546 C534 0.960 . S
H547 C534 0.962 . S
H548 C534 0.960 . S
H549 C535 0.961 . S
H550 C535 0.961 . S
H551 C535 0.961 . S
H552 C536 0.931 1_545 S
H553 C541 0.930 . S
H554 C542 0.956 . S
H555 C542 0.961 . S
H556 C542 0.961 1_545 S
H557 C543 0.958 . S
H558 C543 0.961 . S
H559 C543 0.960 . S
C560 C561 1.391 . S
C560 C562 1.394 . S
C560 H576 0.931 . S
C561 C560 1.391 . S
C561 C565 1.376 . S
C562 C560 1.394 . S
C562 C563 1.369 . S
C562 C566 1.531 . S
C563 C562 1.369 . S
C563 C564 1.410 . S
C563 C571 1.503 . S
C564 C563 1.410 . S
C564 C565 1.392 . S
C564 C567 1.511 . S
C565 C561 1.376 . S
C565 C564 1.392 . S
C565 H577 0.929 . S
C566 C562 1.531 . S
C566 H578 0.960 . S
C566 H579 0.962 . S
C566 H580 0.960 . S
C567 C564 1.511 . S
C567 H581 0.961 . S
C567 H582 0.961 . S
C567 H583 0.961 . S
C568 C569 1.370 . S
C568 C570 1.363 1_554 S
C568 H584 0.931 . S
C569 C568 1.370 . S
C569 C573 1.408 . S
C570 C568 1.363 1_556 S
C570 C571 1.370 . S
C570 C574 1.524 . S
C571 C563 1.503 . S
C571 C570 1.370 . S
C571 C572 1.403 . S
C572 C571 1.403 . S
C572 C573 1.404 1_556 S
C572 C575 1.539 . S
C573 C569 1.408 . S
C573 C572 1.404 1_554 S
C573 H585 0.930 . S
C574 C570 1.524 . S
C574 H586 0.956 . S
C574 H587 0.961 . S
C574 H588 0.961 1_556 S
C575 C572 1.539 . S
C575 H589 0.958 . S
C575 H590 0.961 . S
C575 H591 0.960 . S
H576 C560 0.931 . S
H577 C565 0.929 . S
H578 C566 0.960 . S
H579 C566 0.962 . S
H580 C566 0.960 . S
H581 C567 0.961 . S
H582 C567 0.961 . S
H583 C567 0.961 . S
H584 C568 0.931 . S
H585 C573 0.930 . S
H586 C574 0.956 . S
H587 C574 0.961 . S
H588 C574 0.961 1_554 S
H589 C575 0.958 . S
H590 C575 0.961 . S
H591 C575 0.960 . S
C592 C593 1.391 1_565 S
C592 C594 1.394 . S
C592 H608 0.931 . S
C593 C592 1.391 1_545 S
C593 C597 1.376 . S
C594 C592 1.394 . S
C594 C595 1.369 . S
C594 C598 1.531 . S
C595 C594 1.369 . S
C595 C596 1.410 . S
C595 C603 1.503 . S
C596 C595 1.410 . S
C596 C597 1.392 1_565 S
C596 C599 1.511 . S
C597 C593 1.376 . S
C597 C596 1.392 1_545 S
C597 H609 0.929 . S
C598 C594 1.531 . S
C598 H610 0.960 . S
C598 H611 0.962 . S
C598 H612 0.960 . S
C599 C596 1.511 . S
C599 H613 0.961 1_565 S
C599 H614 0.961 . S
C599 H615 0.961 . S
C600 C601 1.370 . S
C600 C602 1.363 . S
C600 H616 0.931 . S
C601 C600 1.370 . S
C601 C605 1.408 . S
C602 C600 1.363 . S
C602 C603 1.370 . S
C602 C606 1.524 1_565 S
C603 C595 1.503 . S
C603 C602 1.370 . S
C603 C604 1.403 . S
C604 C603 1.403 . S
C604 C605 1.404 . S
C604 C607 1.539 . S
C605 C601 1.408 . S
C605 C604 1.404 . S
C605 H617 0.930 . S
C606 C602 1.524 1_545 S
C606 H618 0.956 . S
C606 H619 0.961 . S
C606 H620 0.961 . S
C607 C604 1.539 . S
C607 H621 0.958 . S
C607 H622 0.961 . S
C607 H623 0.960 . S
H608 C592 0.931 . S
H609 C597 0.929 . S
H610 C598 0.960 . S
H611 C598 0.962 . S
H612 C598 0.960 . S
H613 C599 0.961 1_545 S
H614 C599 0.961 . S
H615 C599 0.961 . S
H616 C600 0.931 . S
H617 C605 0.930 . S
H618 C606 0.956 . S
H619 C606 0.961 . S
H620 C606 0.961 . S
H621 C607 0.958 . S
H622 C607 0.961 . S
H623 C607 0.960 . S
C624 C625 1.391 . S
C624 C626 1.394 . S
C624 H640 0.931 . S
C625 C624 1.391 . S
C625 C629 1.376 . S
C626 C624 1.394 . S
C626 C627 1.369 . S
C626 C630 1.531 . S
C627 C626 1.369 . S
C627 C628 1.410 . S
C627 C635 1.503 . S
C628 C627 1.410 . S
C628 C629 1.392 . S
C628 C631 1.511 . S
C629 C625 1.376 . S
C629 C628 1.392 . S
C629 H641 0.929 . S
C630 C626 1.531 . S
C630 H642 0.960 . S
C630 H643 0.962 . S
C630 H644 0.960 . S
C631 C628 1.511 . S
C631 H645 0.961 . S
C631 H646 0.961 . S
C631 H647 0.961 . S
C632 C633 1.370 . S
C632 C634 1.363 . S
C632 H648 0.931 . S
C633 C632 1.370 . S
C633 C637 1.408 . S
C634 C632 1.363 . S
C634 C635 1.370 . S
C634 C638 1.524 . S
C635 C627 1.503 . S
C635 C634 1.370 . S
C635 C636 1.403 . S
C636 C635 1.403 . S
C636 C637 1.404 . S
C636 C639 1.539 . S
C637 C633 1.408 . S
C637 C636 1.404 . S
C637 H649 0.930 . S
C638 C634 1.524 . S
C638 H650 0.956 . S
C638 H651 0.961 . S
C638 H652 0.961 . S
C639 C636 1.539 . S
C639 H653 0.958 . S
C639 H654 0.961 . S
C639 H655 0.960 . S
H640 C624 0.931 . S
H641 C629 0.929 . S
H642 C630 0.960 . S
H643 C630 0.962 . S
H644 C630 0.960 . S
H645 C631 0.961 . S
H646 C631 0.961 . S
H647 C631 0.961 . S
H648 C632 0.931 . S
H649 C637 0.930 . S
H650 C638 0.956 . S
H651 C638 0.961 . S
H652 C638 0.961 . S
H653 C639 0.958 . S
H654 C639 0.961 . S
H655 C639 0.960 . S
C656 C657 1.391 . S
C656 C658 1.394 . S
C656 H672 0.931 . S
C657 C656 1.391 . S
C657 C661 1.376 . S
C658 C656 1.394 . S
C658 C659 1.369 . S
C658 C662 1.531 . S
C659 C658 1.369 . S
C659 C660 1.410 . S
C659 C667 1.503 . S
C660 C659 1.410 . S
C660 C661 1.392 . S
C660 C663 1.511 . S
C661 C657 1.376 . S
C661 C660 1.392 . S
C661 H673 0.929 . S
C662 C658 1.531 . S
C662 H674 0.960 . S
C662 H675 0.962 . S
C662 H676 0.960 . S
C663 C660 1.511 . S
C663 H677 0.961 . S
C663 H678 0.961 . S
C663 H679 0.961 . S
C664 C665 1.370 . S
C664 C666 1.363 1_554 S
C664 H680 0.931 . S
C665 C664 1.370 . S
C665 C669 1.408 1_554 S
C666 C664 1.363 1_556 S
C666 C667 1.370 . S
C666 C670 1.528 1_556 S
C667 C659 1.503 . S
C667 C666 1.370 . S
C667 C668 1.403 . S
C668 C667 1.403 . S
C668 C669 1.404 . S
C668 C671 1.539 . S
C669 C665 1.408 1_556 S
C669 C668 1.404 . S
C669 H681 0.930 . S
C670 C666 1.528 1_554 S
C670 H682 0.946 1_554 S
C670 H683 0.943 1_554 S
C670 H684 0.985 . S
C671 C668 1.539 . S
C671 H685 0.958 . S
C671 H686 0.961 . S
C671 H687 0.960 . S
H672 C656 0.931 . S
H673 C661 0.929 . S
H674 C662 0.960 . S
H675 C662 0.962 . S
H676 C662 0.960 . S
H677 C663 0.961 . S
H678 C663 0.961 . S
H679 C663 0.961 . S
H680 C664 0.931 . S
H681 C669 0.930 . S
H682 C670 0.946 1_556 S
H683 C670 0.943 1_556 S
H684 C670 0.985 . S
H685 C671 0.958 . S
H686 C671 0.961 . S
H687 C671 0.960 . S
C688 C689 1.391 . S
C688 C690 1.394 . S
C688 H704 0.931 . S
C689 C688 1.391 . S
C689 C693 1.376 . S
C690 C688 1.394 . S
C690 C691 1.369 . S
C690 C694 1.531 . S
C691 C690 1.369 . S
C691 C692 1.410 . S
C691 C699 1.503 . S
C692 C691 1.410 . S
C692 C693 1.392 . S
C692 C695 1.511 . S
C693 C689 1.376 . S
C693 C692 1.392 . S
C693 H705 0.929 . S
C694 C690 1.531 . S
C694 H706 0.960 . S
C694 H707 0.962 . S
C694 H708 0.960 . S
C695 C692 1.511 . S
C695 H709 0.961 . S
C695 H710 0.961 . S
C695 H711 0.961 1_655 S
C696 C697 1.370 1_655 S
C696 C698 1.363 . S
C696 H712 0.931 . S
C697 C696 1.370 1_455 S
C697 C701 1.408 . S
C698 C696 1.363 . S
C698 C699 1.370 . S
C698 C702 1.524 . S
C699 C691 1.503 . S
C699 C698 1.370 . S
C699 C700 1.403 1_655 S
C700 C699 1.403 1_455 S
C700 C701 1.404 . S
C700 C703 1.539 . S
C701 C697 1.408 . S
C701 C700 1.404 . S
C701 H713 0.930 . S
C702 C698 1.524 . S
C702 H714 0.956 . S
C702 H715 0.961 . S
C702 H716 0.961 . S
C703 C700 1.539 . S
C703 H717 0.958 . S
C703 H718 0.961 . S
C703 H719 0.960 . S
H704 C688 0.931 . S
H705 C693 0.929 . S
H706 C694 0.960 . S
H707 C694 0.962 . S
H708 C694 0.960 . S
H709 C695 0.961 . S
H710 C695 0.961 . S
H711 C695 0.961 1_455 S
H712 C696 0.931 . S
H713 C701 0.930 . S
H714 C702 0.956 . S
H715 C702 0.961 . S
H716 C702 0.961 . S
H717 C703 0.958 . S
H718 C703 0.961 . S
H719 C703 0.960 . S
C337 C234 0.759 . S
C345 C75 0.761 . S
C369 C318 0.602 . S
C377 C159 0.525 . S
C401 C243 1.243 . S
C409 C66 1.283 . S
C433 C150 1.345 . S
C441 C327 1.363 . S
C465 C151 1.965 . S
C473 C56 2.095 . S
C497 C140 2.056 . S
C505 C240 2.107 . S
C529 C324 1.065 . S
C537 C231 0.940 . S
C561 C315 0.778 . S
C569 C67 0.872 . S
C593 C235 2.103 . S
C601 C308 1.952 . S
C625 C63 2.067 . S
C633 C319 2.089 . S
C657 C147 1.123 . S
C665 C72 0.970 . S
C689 C224 0.782 . S
C697 C156 0.796 . S
