# Generated by pormake.
# Topology unx, (4)-cn, num edge types: 1
# Building blocks:
#     Node 0, Type 0, BuildingBlock: CEKHIL_clean_sbu_0, # of connection points: 4
#     Node 1, Type 0, BuildingBlock: CEKHIL_clean_sbu_0, # of connection points: 4
#     Node 2, Type 0, BuildingBlock: CEKHIL_clean_sbu_0, # of connection points: 4
#     Node 3, Type 0, BuildingBlock: CEKHIL_clean_sbu_0, # of connection points: 4
#     Node 4, Type 0, BuildingBlock: CEKHIL_clean_sbu_0, # of connection points: 4
#     Node 5, Type 0, BuildingBlock: CEKHIL_clean_sbu_0, # of connection points: 4
#     Node 6, Type 0, BuildingBlock: CEKHIL_clean_sbu_0, # of connection points: 4
#     Node 7, Type 0, BuildingBlock: CEKHIL_clean_sbu_0, # of connection points: 4
#     Node 8, Type 0, BuildingBlock: CEKHIL_clean_sbu_0, # of connection points: 4
#     Node 9, Type 0, BuildingBlock: CEKHIL_clean_sbu_0, # of connection points: 4
#     Node 10, Type 0, BuildingBlock: CEKHIL_clean_sbu_0, # of connection points: 4
#     Node 11, Type 0, BuildingBlock: CEKHIL_clean_sbu_0, # of connection points: 4
#     Node 12, Type 0, BuildingBlock: CEKHIL_clean_sbu_0, # of connection points: 4
#     Node 13, Type 0, BuildingBlock: CEKHIL_clean_sbu_0, # of connection points: 4
#     Node 14, Type 0, BuildingBlock: CEKHIL_clean_sbu_0, # of connection points: 4
#     Node 15, Type 0, BuildingBlock: CEKHIL_clean_sbu_0, # of connection points: 4
#     Node 16, Type 0, BuildingBlock: CEKHIL_clean_sbu_0, # of connection points: 4
#     Node 17, Type 0, BuildingBlock: CEKHIL_clean_sbu_0, # of connection points: 4
#     Node 18, Type 0, BuildingBlock: CEKHIL_clean_sbu_0, # of connection points: 4
#     Node 19, Type 0, BuildingBlock: CEKHIL_clean_sbu_0, # of connection points: 4
#     Node 20, Type 0, BuildingBlock: CEKHIL_clean_sbu_0, # of connection points: 4
#     Node 21, Type 0, BuildingBlock: CEKHIL_clean_sbu_0, # of connection points: 4
#     Node 22, Type 0, BuildingBlock: CEKHIL_clean_sbu_0, # of connection points: 4
#     Node 23, Type 0, BuildingBlock: CEKHIL_clean_sbu_0, # of connection points: 4
#     Node 24, Type 0, BuildingBlock: CEKHIL_clean_sbu_0, # of connection points: 4
#     Node 25, Type 0, BuildingBlock: CEKHIL_clean_sbu_0, # of connection points: 4
#     Node 26, Type 0, BuildingBlock: CEKHIL_clean_sbu_0, # of connection points: 4
#     Node 27, Type 0, BuildingBlock: CEKHIL_clean_sbu_0, # of connection points: 4
#     Node 28, Type 0, BuildingBlock: CEKHIL_clean_sbu_0, # of connection points: 4
#     Node 29, Type 0, BuildingBlock: CEKHIL_clean_sbu_0, # of connection points: 4
#     Node 30, Type 0, BuildingBlock: CEKHIL_clean_sbu_0, # of connection points: 4
#     Node 31, Type 0, BuildingBlock: CEKHIL_clean_sbu_0, # of connection points: 4
#     Node 32, Type 0, BuildingBlock: CEKHIL_clean_sbu_0, # of connection points: 4
#     Node 33, Type 0, BuildingBlock: CEKHIL_clean_sbu_0, # of connection points: 4
#     Node 34, Type 0, BuildingBlock: CEKHIL_clean_sbu_0, # of connection points: 4
#     Node 35, Type 0, BuildingBlock: CEKHIL_clean_sbu_0, # of connection points: 4
#     Node 36, Type 0, BuildingBlock: CEKHIL_clean_sbu_0, # of connection points: 4
#     Node 37, Type 0, BuildingBlock: CEKHIL_clean_sbu_0, # of connection points: 4
#     Node 38, Type 0, BuildingBlock: CEKHIL_clean_sbu_0, # of connection points: 4
#     Node 39, Type 0, BuildingBlock: CEKHIL_clean_sbu_0, # of connection points: 4
#     Node 40, Type 0, BuildingBlock: CEKHIL_clean_sbu_0, # of connection points: 4
#     Node 41, Type 0, BuildingBlock: CEKHIL_clean_sbu_0, # of connection points: 4
#     Node 42, Type 0, BuildingBlock: CEKHIL_clean_sbu_0, # of connection points: 4
#     Node 43, Type 0, BuildingBlock: CEKHIL_clean_sbu_0, # of connection points: 4
#     Node 44, Type 0, BuildingBlock: CEKHIL_clean_sbu_0, # of connection points: 4
#     Node 45, Type 0, BuildingBlock: CEKHIL_clean_sbu_0, # of connection points: 4
#     Node 46, Type 0, BuildingBlock: CEKHIL_clean_sbu_0, # of connection points: 4
#     Node 47, Type 0, BuildingBlock: CEKHIL_clean_sbu_0, # of connection points: 4
#     Edge 48, Type (0, 0), BuildingBlock: TEMPAE_clean_linker_10, # of connection points: 2
#     Edge 49, Type (0, 0), BuildingBlock: TEMPAE_clean_linker_10, # of connection points: 2
#     Edge 50, Type (0, 0), BuildingBlock: TEMPAE_clean_linker_10, # of connection points: 2
#     Edge 51, Type (0, 0), BuildingBlock: TEMPAE_clean_linker_10, # of connection points: 2
#     Edge 52, Type (0, 0), BuildingBlock: TEMPAE_clean_linker_10, # of connection points: 2
#     Edge 53, Type (0, 0), BuildingBlock: TEMPAE_clean_linker_10, # of connection points: 2
#     Edge 54, Type (0, 0), BuildingBlock: TEMPAE_clean_linker_10, # of connection points: 2
#     Edge 55, Type (0, 0), BuildingBlock: TEMPAE_clean_linker_10, # of connection points: 2
#     Edge 56, Type (0, 0), BuildingBlock: TEMPAE_clean_linker_10, # of connection points: 2
#     Edge 57, Type (0, 0), BuildingBlock: TEMPAE_clean_linker_10, # of connection points: 2
#     Edge 58, Type (0, 0), BuildingBlock: TEMPAE_clean_linker_10, # of connection points: 2
#     Edge 59, Type (0, 0), BuildingBlock: TEMPAE_clean_linker_10, # of connection points: 2
#     Edge 60, Type (0, 0), BuildingBlock: TEMPAE_clean_linker_10, # of connection points: 2
#     Edge 61, Type (0, 0), BuildingBlock: TEMPAE_clean_linker_10, # of connection points: 2
#     Edge 62, Type (0, 0), BuildingBlock: TEMPAE_clean_linker_10, # of connection points: 2
#     Edge 63, Type (0, 0), BuildingBlock: TEMPAE_clean_linker_10, # of connection points: 2
#     Edge 64, Type (0, 0), BuildingBlock: TEMPAE_clean_linker_10, # of connection points: 2
#     Edge 65, Type (0, 0), BuildingBlock: TEMPAE_clean_linker_10, # of connection points: 2
#     Edge 66, Type (0, 0), BuildingBlock: TEMPAE_clean_linker_10, # of connection points: 2
#     Edge 67, Type (0, 0), BuildingBlock: TEMPAE_clean_linker_10, # of connection points: 2
#     Edge 68, Type (0, 0), BuildingBlock: TEMPAE_clean_linker_10, # of connection points: 2
#     Edge 69, Type (0, 0), BuildingBlock: TEMPAE_clean_linker_10, # of connection points: 2
#     Edge 70, Type (0, 0), BuildingBlock: TEMPAE_clean_linker_10, # of connection points: 2
#     Edge 71, Type (0, 0), BuildingBlock: TEMPAE_clean_linker_10, # of connection points: 2
#     Edge 72, Type (0, 0), BuildingBlock: TEMPAE_clean_linker_10, # of connection points: 2
#     Edge 73, Type (0, 0), BuildingBlock: TEMPAE_clean_linker_10, # of connection points: 2
#     Edge 74, Type (0, 0), BuildingBlock: TEMPAE_clean_linker_10, # of connection points: 2
#     Edge 75, Type (0, 0), BuildingBlock: TEMPAE_clean_linker_10, # of connection points: 2
#     Edge 76, Type (0, 0), BuildingBlock: TEMPAE_clean_linker_10, # of connection points: 2
#     Edge 77, Type (0, 0), BuildingBlock: TEMPAE_clean_linker_10, # of connection points: 2
#     Edge 78, Type (0, 0), BuildingBlock: TEMPAE_clean_linker_10, # of connection points: 2
#     Edge 79, Type (0, 0), BuildingBlock: TEMPAE_clean_linker_10, # of connection points: 2
#     Edge 80, Type (0, 0), BuildingBlock: TEMPAE_clean_linker_10, # of connection points: 2
#     Edge 81, Type (0, 0), BuildingBlock: TEMPAE_clean_linker_10, # of connection points: 2
#     Edge 82, Type (0, 0), BuildingBlock: TEMPAE_clean_linker_10, # of connection points: 2
#     Edge 83, Type (0, 0), BuildingBlock: TEMPAE_clean_linker_10, # of connection points: 2
#     Edge 84, Type (0, 0), BuildingBlock: TEMPAE_clean_linker_10, # of connection points: 2
#     Edge 85, Type (0, 0), BuildingBlock: TEMPAE_clean_linker_10, # of connection points: 2
#     Edge 86, Type (0, 0), BuildingBlock: TEMPAE_clean_linker_10, # of connection points: 2
#     Edge 87, Type (0, 0), BuildingBlock: TEMPAE_clean_linker_10, # of connection points: 2
#     Edge 88, Type (0, 0), BuildingBlock: TEMPAE_clean_linker_10, # of connection points: 2
#     Edge 89, Type (0, 0), BuildingBlock: TEMPAE_clean_linker_10, # of connection points: 2
#     Edge 90, Type (0, 0), BuildingBlock: TEMPAE_clean_linker_10, # of connection points: 2
#     Edge 91, Type (0, 0), BuildingBlock: TEMPAE_clean_linker_10, # of connection points: 2
#     Edge 92, Type (0, 0), BuildingBlock: TEMPAE_clean_linker_10, # of connection points: 2
#     Edge 93, Type (0, 0), BuildingBlock: TEMPAE_clean_linker_10, # of connection points: 2
#     Edge 94, Type (0, 0), BuildingBlock: TEMPAE_clean_linker_10, # of connection points: 2
#     Edge 95, Type (0, 0), BuildingBlock: TEMPAE_clean_linker_10, # of connection points: 2
#     Edge 96, Type (0, 0), BuildingBlock: TEMPAE_clean_linker_10, # of connection points: 2
#     Edge 97, Type (0, 0), BuildingBlock: TEMPAE_clean_linker_10, # of connection points: 2
#     Edge 98, Type (0, 0), BuildingBlock: TEMPAE_clean_linker_10, # of connection points: 2
#     Edge 99, Type (0, 0), BuildingBlock: TEMPAE_clean_linker_10, # of connection points: 2
#     Edge 100, Type (0, 0), BuildingBlock: TEMPAE_clean_linker_10, # of connection points: 2
#     Edge 101, Type (0, 0), BuildingBlock: TEMPAE_clean_linker_10, # of connection points: 2
#     Edge 102, Type (0, 0), BuildingBlock: TEMPAE_clean_linker_10, # of connection points: 2
#     Edge 103, Type (0, 0), BuildingBlock: TEMPAE_clean_linker_10, # of connection points: 2
#     Edge 104, Type (0, 0), BuildingBlock: TEMPAE_clean_linker_10, # of connection points: 2
#     Edge 105, Type (0, 0), BuildingBlock: TEMPAE_clean_linker_10, # of connection points: 2
#     Edge 106, Type (0, 0), BuildingBlock: TEMPAE_clean_linker_10, # of connection points: 2
#     Edge 107, Type (0, 0), BuildingBlock: TEMPAE_clean_linker_10, # of connection points: 2
#     Edge 108, Type (0, 0), BuildingBlock: TEMPAE_clean_linker_10, # of connection points: 2
#     Edge 109, Type (0, 0), BuildingBlock: TEMPAE_clean_linker_10, # of connection points: 2
#     Edge 110, Type (0, 0), BuildingBlock: TEMPAE_clean_linker_10, # of connection points: 2
#     Edge 111, Type (0, 0), BuildingBlock: TEMPAE_clean_linker_10, # of connection points: 2
#     Edge 112, Type (0, 0), BuildingBlock: TEMPAE_clean_linker_10, # of connection points: 2
#     Edge 113, Type (0, 0), BuildingBlock: TEMPAE_clean_linker_10, # of connection points: 2
#     Edge 114, Type (0, 0), BuildingBlock: TEMPAE_clean_linker_10, # of connection points: 2
#     Edge 115, Type (0, 0), BuildingBlock: TEMPAE_clean_linker_10, # of connection points: 2
#     Edge 116, Type (0, 0), BuildingBlock: TEMPAE_clean_linker_10, # of connection points: 2
#     Edge 117, Type (0, 0), BuildingBlock: TEMPAE_clean_linker_10, # of connection points: 2
#     Edge 118, Type (0, 0), BuildingBlock: TEMPAE_clean_linker_10, # of connection points: 2
#     Edge 119, Type (0, 0), BuildingBlock: TEMPAE_clean_linker_10, # of connection points: 2
#     Edge 120, Type (0, 0), BuildingBlock: TEMPAE_clean_linker_10, # of connection points: 2
#     Edge 121, Type (0, 0), BuildingBlock: TEMPAE_clean_linker_10, # of connection points: 2
#     Edge 122, Type (0, 0), BuildingBlock: TEMPAE_clean_linker_10, # of connection points: 2
#     Edge 123, Type (0, 0), BuildingBlock: TEMPAE_clean_linker_10, # of connection points: 2
#     Edge 124, Type (0, 0), BuildingBlock: TEMPAE_clean_linker_10, # of connection points: 2
#     Edge 125, Type (0, 0), BuildingBlock: TEMPAE_clean_linker_10, # of connection points: 2
#     Edge 126, Type (0, 0), BuildingBlock: TEMPAE_clean_linker_10, # of connection points: 2
#     Edge 127, Type (0, 0), BuildingBlock: TEMPAE_clean_linker_10, # of connection points: 2
#     Edge 128, Type (0, 0), BuildingBlock: TEMPAE_clean_linker_10, # of connection points: 2
#     Edge 129, Type (0, 0), BuildingBlock: TEMPAE_clean_linker_10, # of connection points: 2
#     Edge 130, Type (0, 0), BuildingBlock: TEMPAE_clean_linker_10, # of connection points: 2
#     Edge 131, Type (0, 0), BuildingBlock: TEMPAE_clean_linker_10, # of connection points: 2
#     Edge 132, Type (0, 0), BuildingBlock: TEMPAE_clean_linker_10, # of connection points: 2
#     Edge 133, Type (0, 0), BuildingBlock: TEMPAE_clean_linker_10, # of connection points: 2
#     Edge 134, Type (0, 0), BuildingBlock: TEMPAE_clean_linker_10, # of connection points: 2
#     Edge 135, Type (0, 0), BuildingBlock: TEMPAE_clean_linker_10, # of connection points: 2
#     Edge 136, Type (0, 0), BuildingBlock: TEMPAE_clean_linker_10, # of connection points: 2
#     Edge 137, Type (0, 0), BuildingBlock: TEMPAE_clean_linker_10, # of connection points: 2
#     Edge 138, Type (0, 0), BuildingBlock: TEMPAE_clean_linker_10, # of connection points: 2
#     Edge 139, Type (0, 0), BuildingBlock: TEMPAE_clean_linker_10, # of connection points: 2
#     Edge 140, Type (0, 0), BuildingBlock: TEMPAE_clean_linker_10, # of connection points: 2
#     Edge 141, Type (0, 0), BuildingBlock: TEMPAE_clean_linker_10, # of connection points: 2
#     Edge 142, Type (0, 0), BuildingBlock: TEMPAE_clean_linker_10, # of connection points: 2
#     Edge 143, Type (0, 0), BuildingBlock: TEMPAE_clean_linker_10, # of connection points: 2
# Relax obj value: 0.549
# Max RMSD: 0.348
# Mean RMSD: 0.245
data_MOF--net-unx--node1-CEKHIL_clean_sbu_0--edge1-TEMPAE_clean_linker_10
_symmetry_space_group_name_H-M    P1
_symmetry_Int_Tables_number       1
_symmetry_cell_setting            triclinic
loop_
_symmetry_equiv_pos_as_xyz
'x, y, z'
_cell_length_a     53.276262
_cell_length_b     51.551237
_cell_length_c     53.68748
_cell_angle_alpha  89.99716
_cell_angle_beta   90.000693
_cell_angle_gamma 91.108489
loop_
_atom_site_label
_atom_site_type_symbol
_atom_site_fract_x
_atom_site_fract_y
_atom_site_fract_z
_atom_type_partial_charge
Co0 Co 0.12566 0.50176 0.30118 0.0
O1 O 0.15105 0.48909 0.32319 0.0
O2 O 0.15138 0.528 0.30543 0.0
C3 C 0.09157 0.48968 0.32298 0.0
O4 O 0.10282 0.52162 0.27797 0.0
Co5 Co 0.08972 0.46297 0.2743 0.0
O6 O 0.07292 0.49486 0.26239 0.0
C7 C 0.14168 0.4681 0.25742 0.0
C8 C 0.16248 0.51128 0.3196 0.0
C9 C 0.08289 0.5174 0.26489 0.0
O10 O 0.14436 0.48781 0.2718 0.0
O11 O 0.12198 0.45351 0.25719 0.0
O12 O 0.1043 0.51048 0.32908 0.0
O13 O 0.10196 0.47506 0.30645 0.0
Co14 Co 0.66769 0.19703 0.49895 0.0
O15 O 0.69983 0.21031 0.50987 0.0
O16 O 0.66297 0.22485 0.52234 0.0
C17 C 0.67597 0.15456 0.50166 0.0
O18 O 0.63093 0.1889 0.49184 0.0
Co19 Co 0.66207 0.16528 0.45027 0.0
O20 O 0.62661 0.15989 0.46088 0.0
C21 C 0.67021 0.22187 0.44743 0.0
C22 C 0.6873 0.2275 0.5222 0.0
C23 C 0.61731 0.17408 0.47783 0.0
O24 O 0.66851 0.22311 0.47123 0.0
O25 O 0.66941 0.20048 0.4353 0.0
O26 O 0.66905 0.16714 0.52145 0.0
O27 O 0.67966 0.1683 0.48186 0.0
Co28 Co 0.87308 0.96165 0.59185 0.0
O29 O 0.84529 0.98214 0.5806 0.0
O30 O 0.8487 0.9644 0.61802 0.0
C31 C 0.90524 0.98716 0.57801 0.0
O32 O 0.89842 0.93998 0.61061 0.0
Co33 Co 0.91028 0.93727 0.55428 0.0
O34 O 0.93069 0.93242 0.58481 0.0
C35 C 0.86064 0.9123 0.56226 0.0
C36 C 0.83556 0.97789 0.60247 0.0
C37 C 0.92079 0.9322 0.60641 0.0
O38 O 0.85569 0.92885 0.57946 0.0
O39 O 0.88057 0.91363 0.54896 0.0
O40 O 0.89363 0.99285 0.59856 0.0
O41 O 0.89478 0.9688 0.56513 0.0
Co42 Co 0.2267 0.96921 0.92413 0.0
O43 O 0.21739 0.93304 0.92769 0.0
O44 O 0.25646 0.94845 0.92495 0.0
C45 C 0.20248 0.98666 0.95415 0.0
O46 O 0.24345 0.00497 0.92085 0.0
Co47 Co 0.18656 0.00819 0.90628 0.0
O48 O 0.21355 0.03419 0.91311 0.0
C49 C 0.21257 0.97661 0.86913 0.0
C50 C 0.2413 0.92855 0.92735 0.0
C51 C 0.23633 0.02845 0.91736 0.0
O52 O 0.2255 0.96618 0.88659 0.0
O53 O 0.19495 0.99257 0.87325 0.0
O54 O 0.22316 0.97511 0.95983 0.0
O55 O 0.19502 0.98299 0.93144 0.0
Co56 Co 0.12203 0.45207 0.86328 0.0
O57 O 0.10081 0.48167 0.86216 0.0
O58 O 0.09676 0.44897 0.88881 0.0
C59 C 0.15863 0.47356 0.85983 0.0
O60 O 0.14035 0.41866 0.87057 0.0
Co61 Co 0.15504 0.43673 0.81843 0.0
O62 O 0.17083 0.41257 0.84237 0.0
C63 C 0.10117 0.42365 0.81763 0.0
C64 C 0.08832 0.47075 0.88025 0.0
C65 C 0.15948 0.40636 0.86245 0.0
O66 O 0.09916 0.43338 0.8395 0.0
O67 O 0.12177 0.42328 0.80538 0.0
O68 O 0.1477 0.47155 0.88143 0.0
O69 O 0.1461 0.46473 0.84091 0.0
Co70 Co 0.73351 0.52938 0.06638 0.0
O71 O 0.71792 0.56274 0.06368 0.0
O72 O 0.75834 0.55551 0.05757 0.0
C73 C 0.70587 0.50494 0.04451 0.0
O74 O 0.75617 0.49787 0.06694 0.0
Co75 Co 0.70682 0.48432 0.09501 0.0
O76 O 0.73269 0.46311 0.07848 0.0
C77 C 0.73453 0.52458 0.12325 0.0
C78 C 0.74017 0.57197 0.05843 0.0
C79 C 0.75293 0.47322 0.06989 0.0
O80 O 0.74062 0.53584 0.10271 0.0
O81 O 0.72023 0.50436 0.12435 0.0
O82 O 0.7225 0.51939 0.03311 0.0
O83 O 0.70381 0.50917 0.06817 0.0
Co84 Co 0.87458 0.05822 0.18961 0.0
O85 O 0.90183 0.06053 0.16611 0.0
O86 O 0.89413 0.02742 0.19155 0.0
C87 C 0.84289 0.07162 0.1655 0.0
O88 O 0.84806 0.04816 0.21549 0.0
Co89 Co 0.84734 0.10759 0.20696 0.0
O90 O 0.82501 0.08288 0.22522 0.0
C91 C 0.89843 0.09856 0.22408 0.0
C92 C 0.90847 0.03808 0.17468 0.0
C93 C 0.82963 0.05877 0.2269 0.0
O94 O 0.8967 0.07516 0.21584 0.0
O95 O 0.88182 0.11552 0.21965 0.0
O96 O 0.85078 0.04795 0.16359 0.0
O97 O 0.85705 0.087 0.17853 0.0
Co98 Co 0.19889 0.29461 0.48945 0.0
O99 O 0.22877 0.28235 0.47334 0.0
O100 O 0.18985 0.26917 0.46465 0.0
C101 C 0.20743 0.33745 0.48944 0.0
O102 O 0.16366 0.30219 0.50168 0.0
Co103 Co 0.2011 0.32095 0.54128 0.0
O104 O 0.16552 0.32945 0.53431 0.0
C105 C 0.20624 0.26449 0.53792 0.0
C106 C 0.21382 0.26655 0.46123 0.0
C107 C 0.15313 0.31695 0.51776 0.0
O108 O 0.20206 0.26602 0.51446 0.0
O109 O 0.20743 0.28424 0.55235 0.0
O110 O 0.19854 0.32623 0.46949 0.0
O111 O 0.21379 0.32204 0.50728 0.0
Co112 Co 0.26516 0.04097 0.418 0.0
O113 O 0.27772 0.07624 0.41685 0.0
O114 O 0.2377 0.06473 0.42155 0.0
C115 C 0.29298 0.02441 0.44517 0.0
O116 O 0.24557 0.00663 0.42037 0.0
Co117 Co 0.29904 0.99714 0.39781 0.0
O118 O 0.27201 0.97431 0.41162 0.0
C119 C 0.2705 0.02841 0.36234 0.0
C120 C 0.25463 0.08318 0.41982 0.0
C121 C 0.25052 0.98233 0.41831 0.0
O122 O 0.2604 0.04047 0.38067 0.0
O123 O 0.28805 0.01204 0.36515 0.0
O124 O 0.27419 0.0378 0.45311 0.0
O125 O 0.29648 0.02527 0.42134 0.0
Co126 Co 0.37299 0.5071 0.79214 0.0
O127 O 0.35193 0.52209 0.81728 0.0
O128 O 0.34298 0.48645 0.79549 0.0
C129 C 0.40931 0.50876 0.81298 0.0
O130 O 0.3898 0.48517 0.76561 0.0
Co131 Co 0.41608 0.53797 0.76653 0.0
O132 O 0.42687 0.50337 0.7548 0.0
C133 C 0.36403 0.54591 0.7502 0.0
C134 C 0.33647 0.50289 0.81253 0.0
C135 C 0.41112 0.48449 0.75438 0.0
O136 O 0.35653 0.52867 0.7659 0.0
O137 O 0.38704 0.55312 0.74779 0.0
O138 O 0.39286 0.49043 0.81743 0.0
O139 O 0.40198 0.52724 0.79845 0.0
Co140 Co 0.80586 0.78581 0.99616 0.0
O141 O 0.7736 0.77288 0.00736 0.0
O142 O 0.81046 0.7596 0.02116 0.0
C143 C 0.79799 0.82857 0.99645 0.0
O144 O 0.84268 0.79383 0.98922 0.0
Co145 Co 0.81188 0.81466 0.94577 0.0
O146 O 0.84694 0.82147 0.95708 0.0
C147 C 0.80477 0.75781 0.946 0.0
C148 C 0.78616 0.75682 0.02105 0.0
C149 C 0.85621 0.80831 0.97482 0.0
O150 O 0.8058 0.75809 0.96988 0.0
O151 O 0.80546 0.77847 0.93272 0.0
O152 O 0.80404 0.81686 0.01702 0.0
O153 O 0.79425 0.81369 0.97741 0.0
Co154 Co 0.61921 0.06162 0.17235 0.0
O155 O 0.65176 0.04758 0.1781 0.0
O156 O 0.64135 0.08855 0.1848 0.0
C157 C 0.59539 0.02981 0.18916 0.0
O158 O 0.58744 0.08279 0.16916 0.0
Co159 Co 0.58237 0.03362 0.13631 0.0
O160 O 0.55775 0.05715 0.15159 0.0
C161 C 0.62053 0.06931 0.11577 0.0
C162 C 0.65856 0.071 0.18437 0.0
C163 C 0.56456 0.07796 0.16267 0.0
O164 O 0.62943 0.07231 0.13778 0.0
O165 O 0.60168 0.05446 0.11079 0.0
O166 O 0.60629 0.0471 0.20337 0.0
O167 O 0.60261 0.0299 0.16614 0.0
Co168 Co 0.41405 0.257 0.11384 0.0
O169 O 0.39147 0.24981 0.14079 0.0
O170 O 0.42683 0.27311 0.14373 0.0
C171 C 0.38499 0.2673 0.08559 0.0
O172 O 0.44173 0.26862 0.08997 0.0
Co173 Co 0.41224 0.22382 0.06568 0.0
O174 O 0.43441 0.2518 0.05196 0.0
C175 C 0.43705 0.20342 0.11064 0.0
C176 C 0.40733 0.26262 0.15468 0.0
C177 C 0.44664 0.26688 0.06655 0.0
O178 O 0.43309 0.22487 0.12199 0.0
O179 O 0.42904 0.19859 0.08858 0.0
O180 O 0.3929 0.2847 0.10145 0.0
O181 O 0.39297 0.2441 0.08896 0.0
Co182 Co 0.10606 0.7956 0.37353 0.0
O183 O 0.09721 0.76683 0.35227 0.0
O184 O 0.12784 0.79565 0.34506 0.0
C185 C 0.1048 0.77387 0.40966 0.0
O186 O 0.12131 0.82735 0.39052 0.0
Co187 Co 0.06987 0.81749 0.41264 0.0
O188 O 0.09898 0.83917 0.42396 0.0
C189 C 0.06245 0.83037 0.35997 0.0
C190 C 0.11488 0.77551 0.33758 0.0
C191 C 0.11803 0.84167 0.40979 0.0
O192 O 0.08235 0.8179 0.35486 0.0
O193 O 0.05342 0.83233 0.38196 0.0
O194 O 0.12457 0.77305 0.3955 0.0
O195 O 0.08571 0.78595 0.40065 0.0
Co196 Co 0.376 0.30338 0.62059 0.0
O197 O 0.37968 0.27882 0.64705 0.0
O198 O 0.35068 0.30917 0.64529 0.0
C199 C 0.37968 0.27571 0.58882 0.0
O200 O 0.36575 0.33148 0.59633 0.0
Co201 Co 0.41961 0.31631 0.58462 0.0
O202 O 0.39536 0.33867 0.56717 0.0
C203 C 0.42015 0.33954 0.63444 0.0
C204 C 0.36083 0.29025 0.65745 0.0
C205 C 0.37392 0.34299 0.57659 0.0
O206 O 0.39884 0.32841 0.63858 0.0
O207 O 0.43242 0.33681 0.61416 0.0
O208 O 0.35845 0.27777 0.60051 0.0
O209 O 0.3987 0.28825 0.5984 0.0
Co210 Co 0.05718 0.74083 0.87882 0.0
O211 O 0.08037 0.73425 0.85228 0.0
O212 O 0.04778 0.76031 0.84987 0.0
C213 C 0.08519 0.74631 0.90961 0.0
O214 O 0.02955 0.75282 0.90204 0.0
Co215 Co 0.05206 0.70427 0.92453 0.0
O216 O 0.03324 0.73345 0.93933 0.0
C217 C 0.02902 0.68899 0.87653 0.0
C218 C 0.06646 0.74922 0.8388 0.0
C219 C 0.02365 0.75044 0.92517 0.0
O220 O 0.0355 0.71097 0.86705 0.0
O221 O 0.03482 0.68207 0.89869 0.0
O222 O 0.08044 0.76553 0.89472 0.0
O223 O 0.07504 0.72424 0.90375 0.0
Co224 Co 0.10046 0.69375 0.12421 0.0
O225 O 0.08906 0.71855 0.14822 0.0
O226 O 0.12323 0.69494 0.15198 0.0
C227 C 0.09566 0.71823 0.09006 0.0
O228 O 0.11874 0.66703 0.10348 0.0
Co229 Co 0.06519 0.67052 0.08394 0.0
O230 O 0.09614 0.65551 0.06984 0.0
C231 C 0.06262 0.64984 0.13493 0.0
C232 C 0.10847 0.71218 0.16139 0.0
C233 C 0.11617 0.6547 0.08276 0.0
O234 O 0.08052 0.66547 0.14124 0.0
O235 O 0.05309 0.64897 0.11307 0.0
O236 O 0.11536 0.72126 0.10412 0.0
O237 O 0.07831 0.70261 0.09851 0.0
Co238 Co 0.57435 0.74871 0.12638 0.0
O239 O 0.59813 0.75493 0.1524 0.0
O240 O 0.56485 0.72849 0.15518 0.0
C241 C 0.60233 0.7439 0.09572 0.0
O242 O 0.54622 0.73728 0.10287 0.0
Co243 Co 0.57093 0.78691 0.08187 0.0
O244 O 0.55139 0.75796 0.06627 0.0
C245 C 0.5481 0.80054 0.13026 0.0
C246 C 0.58442 0.73924 0.1658 0.0
C247 C 0.5408 0.74056 0.07971 0.0
O248 O 0.55352 0.7781 0.13889 0.0
O249 O 0.55475 0.80833 0.10852 0.0
O250 O 0.59678 0.72442 0.11022 0.0
O251 O 0.59281 0.76582 0.10182 0.0
Co252 Co 0.36434 0.22794 0.87083 0.0
O253 O 0.37111 0.25722 0.84961 0.0
O254 O 0.34044 0.22797 0.84422 0.0
C255 C 0.36752 0.24909 0.90706 0.0
O256 O 0.35102 0.19557 0.88821 0.0
Co257 Co 0.4032 0.20636 0.90758 0.0
O258 O 0.37525 0.18415 0.92046 0.0
C259 C 0.40575 0.19168 0.85456 0.0
C260 C 0.35229 0.24864 0.83633 0.0
C261 C 0.35565 0.18124 0.90716 0.0
O262 O 0.38693 0.20611 0.8502 0.0
O263 O 0.41552 0.18909 0.87619 0.0
O264 O 0.34689 0.24969 0.89418 0.0
O265 O 0.38631 0.23763 0.89673 0.0
Co266 Co 0.42034 0.2526 0.38061 0.0
O267 O 0.39728 0.26181 0.35491 0.0
O268 O 0.42849 0.23423 0.35058 0.0
C269 C 0.39213 0.24687 0.41104 0.0
O270 O 0.44744 0.23805 0.40308 0.0
Co271 Co 0.42722 0.28675 0.42772 0.0
O272 O 0.44409 0.25567 0.44121 0.0
C273 C 0.45092 0.30316 0.38041 0.0
C274 C 0.41012 0.2468 0.3405 0.0
C275 C 0.45306 0.23892 0.4264 0.0
O276 O 0.44331 0.28196 0.37009 0.0
O277 O 0.44557 0.30934 0.40288 0.0
O278 O 0.39607 0.22819 0.39531 0.0
O279 O 0.40335 0.26872 0.40633 0.0
Co280 Co 0.12526 0.04161 0.59161 0.0
O281 O 0.15223 0.01923 0.58199 0.0
O282 O 0.14893 0.03896 0.61849 0.0
C283 C 0.09222 0.01713 0.57834 0.0
O284 O 0.10043 0.0654 0.60859 0.0
Co285 Co 0.09089 0.06595 0.55136 0.0
O286 O 0.07009 0.0743 0.58086 0.0
C287 C 0.14133 0.0885 0.5599 0.0
C288 C 0.16171 0.02406 0.60386 0.0
C289 C 0.07891 0.07457 0.60291 0.0
O290 O 0.14447 0.07286 0.57828 0.0
O291 O 0.12207 0.08738 0.54564 0.0
O292 O 0.10323 0.01185 0.59932 0.0
O293 O 0.10385 0.03415 0.56473 0.0
Co294 Co 0.76857 0.0335 0.92079 0.0
O295 O 0.7782 0.06969 0.92359 0.0
O296 O 0.73904 0.05447 0.92079 0.0
C297 C 0.7918 0.01581 0.95122 0.0
O298 O 0.75138 0.99803 0.91848 0.0
Co299 Co 0.80823 0.99349 0.90403 0.0
O300 O 0.78059 0.96807 0.91042 0.0
C301 C 0.78326 0.02476 0.86607 0.0
C302 C 0.7543 0.07431 0.92292 0.0
C303 C 0.75808 0.97443 0.91515 0.0
O304 O 0.77012 0.03552 0.88317 0.0
O305 O 0.80078 0.00885 0.87071 0.0
O306 O 0.7716 0.02837 0.95659 0.0
O307 O 0.79993 0.0193 0.9287 0.0
Co308 Co 0.87284 0.50165 0.29575 0.0
O309 O 0.84835 0.51363 0.31927 0.0
O310 O 0.84492 0.47765 0.29664 0.0
C311 C 0.9074 0.50716 0.31898 0.0
O312 O 0.89394 0.4825 0.27029 0.0
Co313 Co 0.91358 0.53833 0.27342 0.0
O314 O 0.92887 0.50581 0.2614 0.0
C315 C 0.86205 0.54065 0.25438 0.0
C316 C 0.83521 0.49315 0.31293 0.0
C317 C 0.91571 0.48498 0.26005 0.0
O318 O 0.85591 0.5217 0.26874 0.0
O319 O 0.88408 0.55095 0.25364 0.0
O320 O 0.89273 0.48701 0.32225 0.0
O321 O 0.89895 0.5249 0.30422 0.0
Co322 Co 0.32845 0.80359 0.50106 0.0
O323 O 0.29571 0.79141 0.51142 0.0
O324 O 0.33186 0.77672 0.52567 0.0
C325 C 0.32074 0.8463 0.50208 0.0
O326 O 0.36556 0.81064 0.49498 0.0
Co327 Co 0.33655 0.83375 0.45176 0.0
O328 O 0.37188 0.83816 0.46311 0.0
C329 C 0.32725 0.77716 0.45028 0.0
C330 C 0.3075 0.77472 0.52505 0.0
C331 C 0.38012 0.82435 0.48089 0.0
O332 O 0.32814 0.77651 0.47417 0.0
O333 O 0.3287 0.79827 0.43772 0.0
O334 O 0.32684 0.83431 0.52247 0.0
O335 O 0.31761 0.83194 0.48261 0.0
Co336 Co 0.12391 0.96519 0.18525 0.0
O337 O 0.09629 0.96395 0.16212 0.0
O338 O 0.09853 0.98872 0.19586 0.0
C339 C 0.1563 0.96788 0.1589 0.0
O340 O 0.14964 0.97268 0.21259 0.0
Co341 Co 0.16152 0.91999 0.18718 0.0
O342 O 0.18013 0.94298 0.21072 0.0
C343 C 0.11207 0.91281 0.2102 0.0
C344 C 0.08586 0.98097 0.17645 0.0
C345 C 0.17089 0.96365 0.21958 0.0
O346 O 0.10746 0.93675 0.20575 0.0
O347 O 0.13188 0.9017 0.20251 0.0
O348 O 0.14318 0.98831 0.16366 0.0
O349 O 0.14643 0.94607 0.16621 0.0
Co350 Co 0.80056 0.70969 0.48288 0.0
O351 O 0.77147 0.72239 0.46574 0.0
O352 O 0.81071 0.73579 0.45906 0.0
C353 C 0.79185 0.6669 0.48147 0.0
O354 O 0.83517 0.70172 0.49654 0.0
Co355 Co 0.7959 0.68208 0.5339 0.0
O356 O 0.83176 0.67362 0.52841 0.0
C357 C 0.79132 0.73868 0.53173 0.0
C358 C 0.78691 0.73849 0.45465 0.0
C359 C 0.84491 0.68653 0.51274 0.0
O360 O 0.79632 0.73766 0.50839 0.0
O361 O 0.78943 0.71855 0.54562 0.0
O362 O 0.80187 0.67856 0.46227 0.0
O363 O 0.78472 0.68186 0.49936 0.0
Co364 Co 0.8775 0.54196 0.8645 0.0
O365 O 0.8992 0.5129 0.86183 0.0
O366 O 0.90255 0.54387 0.89038 0.0
C367 C 0.84124 0.52018 0.8596 0.0
O368 O 0.85836 0.57449 0.87341 0.0
Co369 Co 0.84496 0.55899 0.8198 0.0
O370 O 0.82846 0.5814 0.84478 0.0
C371 C 0.89852 0.57326 0.82056 0.0
C372 C 0.91138 0.52282 0.88062 0.0
C373 C 0.8391 0.58675 0.86546 0.0
O374 O 0.90029 0.56251 0.84202 0.0
O375 O 0.87817 0.5737 0.80792 0.0
O376 O 0.85204 0.52094 0.88133 0.0
O377 O 0.85387 0.53022 0.8413 0.0
Co378 Co 0.26919 0.46799 0.06207 0.0
O379 O 0.28541 0.43485 0.06159 0.0
O380 O 0.24551 0.44136 0.05188 0.0
C381 C 0.29792 0.49278 0.04203 0.0
O382 O 0.24614 0.49906 0.06025 0.0
Co383 Co 0.29296 0.51324 0.09265 0.0
O384 O 0.26783 0.53403 0.07436 0.0
C385 C 0.26474 0.47225 0.11891 0.0
C386 C 0.26372 0.42521 0.05492 0.0
C387 C 0.24867 0.52367 0.06381 0.0
O388 O 0.25906 0.46216 0.09773 0.0
O389 O 0.27981 0.49174 0.12127 0.0
O390 O 0.28275 0.47755 0.02961 0.0
O391 O 0.29829 0.48879 0.06583 0.0
Co392 Co 0.18925 0.21302 0.00124 0.0
O393 O 0.22127 0.22514 0.01387 0.0
O394 O 0.18436 0.24075 0.02466 0.0
C395 C 0.19555 0.17007 0.00417 0.0
O396 O 0.15265 0.2061 0.99248 0.0
Co397 Co 0.18509 0.18163 0.95215 0.0
O398 O 0.14908 0.17722 0.9613 0.0
C399 C 0.19345 0.23828 0.94977 0.0
C400 C 0.20871 0.24235 0.02613 0.0
C401 C 0.13937 0.19164 0.97784 0.0
O402 O 0.19173 0.23928 0.97362 0.0
O403 O 0.19277 0.21692 0.93757 0.0
O404 O 0.18855 0.18305 0.02368 0.0
O405 O 0.20092 0.18373 0.98465 0.0
Co406 Co 0.38461 0.95596 0.16771 0.0
O407 O 0.35807 0.97871 0.15939 0.0
O408 O 0.354 0.94442 0.18416 0.0
C409 C 0.41439 0.98597 0.17604 0.0
O410 O 0.4089 0.92856 0.18 0.0
Co411 Co 0.43111 0.95629 0.1328 0.0
O412 O 0.44601 0.93884 0.16205 0.0
C413 C 0.38635 0.92563 0.11852 0.0
C414 C 0.34356 0.96368 0.17261 0.0
C415 C 0.43287 0.9262 0.17796 0.0
O416 O 0.37553 0.93316 0.13855 0.0
O417 O 0.40839 0.9334 0.11208 0.0
O418 O 0.39778 0.97984 0.19287 0.0
O419 O 0.40998 0.97689 0.154 0.0
Co420 Co 0.73218 0.96375 0.41524 0.0
O421 O 0.72069 0.92818 0.41247 0.0
O422 O 0.76025 0.94074 0.41845 0.0
C423 C 0.70332 0.97838 0.44245 0.0
O424 O 0.75075 0.99847 0.41936 0.0
Co425 Co 0.69756 0.00748 0.39612 0.0
O426 O 0.72393 0.03052 0.41085 0.0
C427 C 0.72752 0.97849 0.36003 0.0
C428 C 0.74394 0.92185 0.41566 0.0
C429 C 0.74539 0.02271 0.41785 0.0
O430 O 0.73774 0.96603 0.37806 0.0
O431 O 0.70938 0.99408 0.36316 0.0
O432 O 0.72227 0.96515 0.45026 0.0
O433 O 0.70036 0.97841 0.41855 0.0
Co434 Co 0.62742 0.48275 0.79205 0.0
O435 O 0.64997 0.46632 0.81487 0.0
O436 O 0.65525 0.50572 0.79867 0.0
C437 C 0.59141 0.4739 0.8121 0.0
O438 O 0.60838 0.50642 0.76876 0.0
Co439 Co 0.58782 0.451 0.76203 0.0
O440 O 0.57419 0.48559 0.75359 0.0
C441 C 0.64068 0.45061 0.74638 0.0
C442 C 0.66345 0.48754 0.81314 0.0
C443 C 0.58763 0.50607 0.75651 0.0
O444 O 0.64589 0.46775 0.76299 0.0
O445 O 0.61891 0.44003 0.7437 0.0
O446 O 0.606 0.49291 0.81932 0.0
O447 O 0.60058 0.45885 0.79516 0.0
Co448 Co 0.61793 0.69163 0.63438 0.0
O449 O 0.61634 0.71759 0.6599 0.0
O450 O 0.64304 0.68505 0.65906 0.0
C451 C 0.61612 0.71853 0.60175 0.0
O452 O 0.62598 0.66163 0.61152 0.0
Co453 Co 0.57486 0.68042 0.5972 0.0
O454 O 0.59949 0.65901 0.57903 0.0
C455 C 0.57239 0.65776 0.6477 0.0
C456 C 0.63477 0.70547 0.67033 0.0
C457 C 0.61899 0.65181 0.5906 0.0
O458 O 0.59342 0.66898 0.65299 0.0
O459 O 0.5614 0.66006 0.62661 0.0
O460 O 0.63717 0.7151 0.61338 0.0
O461 O 0.59637 0.70753 0.61155 0.0
Co462 Co 0.93968 0.26266 0.87756 0.0
O463 O 0.91599 0.26866 0.85131 0.0
O464 O 0.94877 0.2429 0.84868 0.0
C465 C 0.91238 0.25725 0.90903 0.0
O466 O 0.96782 0.25122 0.90046 0.0
Co467 Co 0.94524 0.30008 0.92258 0.0
O468 O 0.96448 0.27124 0.93748 0.0
C469 C 0.96716 0.31486 0.87398 0.0
C470 C 0.92982 0.25367 0.83778 0.0
C471 C 0.97396 0.25404 0.92349 0.0
O472 O 0.9609 0.29256 0.86506 0.0
O473 O 0.96155 0.32215 0.89607 0.0
O474 O 0.91695 0.23795 0.89417 0.0
O475 O 0.9221 0.27937 0.90265 0.0
Co476 Co 0.90254 0.20086 0.37889 0.0
O477 O 0.91692 0.22566 0.35582 0.0
O478 O 0.88438 0.19942 0.34806 0.0
C479 C 0.90186 0.22687 0.41237 0.0
O480 O 0.88195 0.17329 0.39695 0.0
Co481 Co 0.93082 0.18068 0.425 0.0
O482 O 0.89879 0.16227 0.43366 0.0
C483 C 0.94327 0.16018 0.37569 0.0
C484 C 0.89998 0.21725 0.34016 0.0
C485 C 0.88145 0.16039 0.41741 0.0
O486 O 0.92558 0.17367 0.36641 0.0
O487 O 0.94952 0.16074 0.39869 0.0
O488 O 0.88424 0.22808 0.39566 0.0
O489 O 0.9203 0.21173 0.40728 0.0
Co490 Co 0.94302 0.26295 0.61018 0.0
O491 O 0.92036 0.25321 0.63652 0.0
O492 O 0.95531 0.27675 0.64134 0.0
C493 C 0.91339 0.27485 0.5828 0.0
O494 O 0.97082 0.27717 0.58773 0.0
Co495 Co 0.94164 0.23557 0.55856 0.0
O496 O 0.96502 0.26406 0.54822 0.0
C497 C 0.96564 0.21013 0.60181 0.0
C498 C 0.93581 0.26533 0.6514 0.0
C499 C 0.97666 0.27765 0.56447 0.0
O500 O 0.96243 0.23024 0.61555 0.0
O501 O 0.9571 0.20803 0.57957 0.0
O502 O 0.92122 0.2913 0.5996 0.0
O503 O 0.92228 0.2519 0.5843 0.0
Co504 Co 0.57779 0.73932 0.39046 0.0
O505 O 0.6016 0.73048 0.36528 0.0
O506 O 0.57121 0.75906 0.36097 0.0
C507 C 0.60474 0.74312 0.42217 0.0
O508 O 0.55015 0.75376 0.41227 0.0
Co509 Co 0.56787 0.70365 0.43596 0.0
O510 O 0.55113 0.73464 0.44987 0.0
C511 C 0.54643 0.68944 0.38701 0.0
C512 C 0.58954 0.74635 0.35102 0.0
C513 C 0.54337 0.75221 0.43523 0.0
O514 O 0.55465 0.71102 0.37796 0.0
O515 O 0.55066 0.6822 0.40943 0.0
O516 O 0.60199 0.76245 0.40689 0.0
O517 O 0.59322 0.72173 0.41628 0.0
Co518 Co 0.63847 0.77334 0.87876 0.0
O519 O 0.63434 0.74352 0.85785 0.0
O520 O 0.66433 0.77375 0.8538 0.0
C521 C 0.63336 0.7531 0.91525 0.0
O522 O 0.64906 0.80633 0.89685 0.0
Co523 Co 0.59471 0.79299 0.91114 0.0
O524 O 0.61968 0.81838 0.92444 0.0
C525 C 0.59658 0.80693 0.85807 0.0
C526 C 0.65364 0.75253 0.84557 0.0
C527 C 0.64111 0.82119 0.91423 0.0
O528 O 0.61673 0.79392 0.85589 0.0
O529 O 0.58436 0.80889 0.87848 0.0
O530 O 0.65492 0.75288 0.90393 0.0
O531 O 0.61495 0.76307 0.90296 0.0
Co532 Co 0.61596 0.44149 0.36099 0.0
O533 O 0.59707 0.47266 0.35852 0.0
O534 O 0.59234 0.44297 0.38813 0.0
C535 C 0.65396 0.45897 0.35367 0.0
O536 O 0.63218 0.40735 0.36999 0.0
Co537 Co 0.64376 0.41949 0.31531 0.0
O538 O 0.6592 0.39598 0.33999 0.0
C539 C 0.58948 0.41006 0.32003 0.0
C540 C 0.58499 0.46452 0.37814 0.0
C541 C 0.64937 0.3926 0.3614 0.0
O542 O 0.58999 0.42261 0.34063 0.0
O543 O 0.60888 0.40669 0.30644 0.0
O544 O 0.64415 0.46015 0.37582 0.0
O545 O 0.63947 0.44995 0.33621 0.0
Co546 Co 0.24388 0.54834 0.55735 0.0
O547 O 0.22951 0.58235 0.55553 0.0
O548 O 0.26999 0.5739 0.55138 0.0
C549 C 0.21728 0.52565 0.5327 0.0
O550 O 0.26558 0.51623 0.55753 0.0
Co551 Co 0.21398 0.50299 0.58247 0.0
O552 O 0.24161 0.48178 0.5692 0.0
C553 C 0.24117 0.54069 0.61399 0.0
C554 C 0.25236 0.59096 0.55213 0.0
C555 C 0.26206 0.49175 0.56103 0.0
O556 O 0.249 0.55258 0.59435 0.0
O557 O 0.22602 0.52114 0.6134 0.0
O558 O 0.2347 0.54051 0.52303 0.0
O559 O 0.21366 0.5289 0.55633 0.0
Co560 Co 0.36389 0.01933 0.69347 0.0
O561 O 0.39417 0.02493 0.67453 0.0
O562 O 0.39076 0.9997 0.70782 0.0
C563 C 0.33757 0.0131 0.66112 0.0
O564 O 0.3359 0.00824 0.71734 0.0
Co565 Co 0.31866 0.05617 0.68929 0.0
O566 O 0.30006 0.02673 0.70516 0.0
C567 C 0.36261 0.07157 0.72005 0.0
C568 C 0.40489 0.00964 0.69036 0.0
C569 C 0.31186 0.01029 0.71816 0.0
O570 O 0.37301 0.04977 0.71547 0.0
O571 O 0.34159 0.07819 0.71062 0.0
O572 O 0.3511 0.99409 0.66913 0.0
O573 O 0.34234 0.03543 0.67109 0.0
Co574 Co 0.67022 0.27494 0.99578 0.0
O575 O 0.70222 0.26264 0.98506 0.0
O576 O 0.66576 0.25193 0.9676 0.0
C577 C 0.68084 0.31705 0.00072 0.0
O578 O 0.63367 0.28388 0.00209 0.0
Co579 Co 0.66477 0.29647 0.04935 0.0
O580 O 0.63214 0.30882 0.03644 0.0
C581 C 0.66612 0.23999 0.04186 0.0
C582 C 0.6899 0.24862 0.96891 0.0
C583 C 0.6218 0.29855 0.01733 0.0
O584 O 0.66662 0.24406 0.01831 0.0
O585 O 0.66673 0.25842 0.05789 0.0
O586 O 0.67529 0.30804 0.97872 0.0
O587 O 0.68282 0.29985 0.01811 0.0
Co588 Co 0.90645 0.30285 0.12683 0.0
O589 O 0.91929 0.27693 0.14899 0.0
O590 O 0.8854 0.30022 0.15586 0.0
C591 C 0.90935 0.28029 0.09126 0.0
O592 O 0.88699 0.33052 0.10838 0.0
Co593 Co 0.93971 0.32829 0.08612 0.0
O594 O 0.9079 0.34327 0.07404 0.0
C595 C 0.94442 0.34674 0.13773 0.0
C596 C 0.90082 0.28273 0.16366 0.0
C597 C 0.88853 0.34356 0.08795 0.0
O598 O 0.92718 0.33032 0.14406 0.0
O599 O 0.95287 0.3488 0.11548 0.0
O600 O 0.89051 0.27633 0.10625 0.0
O601 O 0.92716 0.29544 0.09957 0.0
Co602 Co 0.05178 0.74204 0.61135 0.0
O603 O 0.07395 0.75242 0.63782 0.0
O604 O 0.04074 0.72619 0.6421 0.0
C605 C 0.08212 0.73362 0.58361 0.0
O606 O 0.02484 0.72677 0.58841 0.0
Co607 Co 0.05092 0.77115 0.56057 0.0
O608 O 0.03042 0.74087 0.54915 0.0
C609 C 0.02502 0.79286 0.60477 0.0
C610 C 0.05954 0.73864 0.65239 0.0
C611 C 0.01938 0.72627 0.56504 0.0
O612 O 0.03022 0.77292 0.61806 0.0
O613 O 0.03282 0.79619 0.5824 0.0
O614 O 0.07549 0.71593 0.59972 0.0
O615 O 0.07153 0.75569 0.58585 0.0
Co616 Co 0.63346 0.97556 0.69143 0.0
O617 O 0.60291 0.96886 0.67318 0.0
O618 O 0.60643 0.9947 0.70604 0.0
C619 C 0.65906 0.98202 0.65851 0.0
O620 O 0.66156 0.98784 0.71462 0.0
Co621 Co 0.67965 0.94006 0.68702 0.0
O622 O 0.69774 0.97015 0.70233 0.0
C623 C 0.63667 0.92386 0.71877 0.0
C624 C 0.59218 0.98415 0.68901 0.0
C625 C 0.68565 0.98645 0.71523 0.0
O626 O 0.62559 0.94525 0.71406 0.0
O627 O 0.6577 0.9177 0.70904 0.0
O628 O 0.64511 0.00073 0.66648 0.0
O629 O 0.65507 0.95974 0.66889 0.0
Co630 Co 0.32154 0.72501 0.00107 0.0
O631 O 0.29 0.73794 0.98942 0.0
O632 O 0.32733 0.74989 0.97467 0.0
C633 C 0.31144 0.68249 0.00292 0.0
O634 O 0.35782 0.71613 0.00854 0.0
Co635 Co 0.32499 0.69942 0.05324 0.0
O636 O 0.35863 0.68894 0.04129 0.0
C637 C 0.32369 0.75634 0.04955 0.0
C638 C 0.30315 0.75302 0.97481 0.0
C639 C 0.36948 0.70085 0.02337 0.0
O640 O 0.32364 0.75416 0.02575 0.0
O641 O 0.32298 0.73674 0.06423 0.0
O642 O 0.31778 0.69306 0.98176 0.0
O643 O 0.30826 0.69844 0.02116 0.0
Co644 Co 0.3836 0.55812 0.36227 0.0
O645 O 0.40177 0.52644 0.35982 0.0
O646 O 0.40782 0.55652 0.38885 0.0
C647 C 0.34504 0.54162 0.35619 0.0
O648 O 0.36832 0.59275 0.37121 0.0
Co649 Co 0.35511 0.58012 0.31696 0.0
O650 O 0.34021 0.60363 0.34201 0.0
C651 C 0.40966 0.58814 0.3201 0.0
C652 C 0.41446 0.53462 0.37904 0.0
C653 C 0.35077 0.6073 0.36304 0.0
O654 O 0.40939 0.57604 0.34096 0.0
O655 O 0.39001 0.59178 0.30694 0.0
O656 O 0.35542 0.54038 0.37808 0.0
O657 O 0.35929 0.54991 0.33823 0.0
Co658 Co 0.75445 0.45463 0.54906 0.0
O659 O 0.76718 0.42037 0.54394 0.0
O660 O 0.72696 0.43069 0.54248 0.0
C661 C 0.78073 0.47847 0.52509 0.0
O662 O 0.73475 0.48788 0.55323 0.0
Co663 Co 0.78839 0.49391 0.57782 0.0
O664 O 0.76169 0.51825 0.56823 0.0
C665 C 0.76047 0.45471 0.60625 0.0
C666 C 0.74389 0.41287 0.54144 0.0
C667 C 0.74019 0.51139 0.55978 0.0
O668 O 0.75057 0.44714 0.58564 0.0
O669 O 0.7777 0.47232 0.60729 0.0
O670 O 0.7624 0.46509 0.51511 0.0
O671 O 0.78545 0.47264 0.5481 0.0
C672 C 0.2587 0.4685 0.16516 0.0
C673 C 0.25016 0.46341 0.14091 0.0
C674 C 0.2428 0.46455 0.18576 0.0
C675 C 0.2176 0.45623 0.18185 0.0
C676 C 0.20946 0.44945 0.15759 0.0
C677 C 0.22597 0.45275 0.13748 0.0
C678 C 0.25245 0.47104 0.21149 0.0
C679 C 0.18259 0.4412 0.15242 0.0
C680 C 0.17214 0.4402 0.23471 0.0
C681 C 0.16115 0.46434 0.23844 0.0
C682 C 0.19132 0.43733 0.21694 0.0
C683 C 0.19876 0.45887 0.20207 0.0
C684 C 0.18732 0.48316 0.20568 0.0
C685 C 0.16901 0.48567 0.22414 0.0
C686 C 0.20374 0.41143 0.21419 0.0
C687 C 0.19405 0.50644 0.18973 0.0
H688 H 0.27748 0.47644 0.16796 0.0
H689 H 0.21916 0.44882 0.1188 0.0
H690 H 0.24521 0.49012 0.21737 0.0
H691 H 0.24575 0.45638 0.22523 0.0
H692 H 0.27329 0.4721 0.21204 0.0
H693 H 0.18008 0.43359 0.13321 0.0
H694 H 0.17617 0.42609 0.16579 0.0
H695 H 0.17026 0.45814 0.15479 0.0
H696 H 0.16615 0.42382 0.24605 0.0
H697 H 0.16033 0.50429 0.22704 0.0
H698 H 0.22436 0.41385 0.21646 0.0
H699 H 0.20038 0.40356 0.19523 0.0
H700 H 0.1967 0.39701 0.22803 0.0
H701 H 0.21418 0.51172 0.19213 0.0
H702 H 0.18272 0.52364 0.19442 0.0
H703 H 0.19108 0.5017 0.16977 0.0
C704 C 0.68278 0.26863 0.44493 0.0
C705 C 0.67184 0.24662 0.43365 0.0
C706 C 0.68217 0.29295 0.43329 0.0
C707 C 0.66972 0.2954 0.41016 0.0
C708 C 0.65935 0.2731 0.39831 0.0
C709 C 0.6608 0.24887 0.4101 0.0
C710 C 0.69402 0.31614 0.44617 0.0
C711 C 0.64564 0.27501 0.37378 0.0
C712 C 0.63994 0.3595 0.39424 0.0
C713 C 0.65618 0.36925 0.37577 0.0
C714 C 0.64443 0.33571 0.4059 0.0
C715 C 0.66588 0.32149 0.39921 0.0
C716 C 0.68296 0.33176 0.38142 0.0
C717 C 0.67781 0.35544 0.36976 0.0
C718 C 0.62569 0.32532 0.42472 0.0
C719 C 0.70633 0.31742 0.37427 0.0
H720 H 0.69155 0.2669 0.46307 0.0
H721 H 0.65219 0.23191 0.40142 0.0
H722 H 0.70574 0.32763 0.43295 0.0
H723 H 0.67911 0.32899 0.45314 0.0
H724 H 0.7059 0.31037 0.46215 0.0
H725 H 0.63977 0.25568 0.36643 0.0
H726 H 0.62865 0.28689 0.37619 0.0
H727 H 0.6577 0.28489 0.35972 0.0
H728 H 0.62313 0.36996 0.39893 0.0
H729 H 0.69055 0.36295 0.35564 0.0
H730 H 0.63521 0.32134 0.44265 0.0
H731 H 0.61743 0.30668 0.41798 0.0
H732 H 0.61023 0.33901 0.42821 0.0
H733 H 0.71712 0.31222 0.39117 0.0
H734 H 0.71873 0.32902 0.36169 0.0
H735 H 0.70102 0.29904 0.36471 0.0
C736 C 0.82194 0.8857 0.57321 0.0
C737 C 0.84387 0.88919 0.55894 0.0
C738 C 0.80765 0.86248 0.57181 0.0
C739 C 0.81579 0.84218 0.55618 0.0
C740 C 0.83744 0.84595 0.54121 0.0
C741 C 0.85102 0.86939 0.54263 0.0
C742 C 0.78438 0.85946 0.58765 0.0
C743 C 0.84672 0.82495 0.52401 0.0
C744 C 0.80467 0.77028 0.56436 0.0
C745 C 0.79066 0.76476 0.54289 0.0
C746 C 0.81093 0.79605 0.57068 0.0
C747 C 0.80251 0.81654 0.55538 0.0
C748 C 0.78563 0.81106 0.53565 0.0
C749 C 0.78019 0.78516 0.52938 0.0
C750 C 0.82895 0.80105 0.5919 0.0
C751 C 0.77524 0.83249 0.51978 0.0
H752 H 0.81617 0.90088 0.58582 0.0
H753 H 0.8678 0.87179 0.53139 0.0
H754 H 0.76908 0.84934 0.57726 0.0
H755 H 0.78872 0.84754 0.60424 0.0
H756 H 0.77753 0.87851 0.59418 0.0
H757 H 0.8642 0.83082 0.51404 0.0
H758 H 0.85044 0.80706 0.5348 0.0
H759 H 0.83213 0.82004 0.50995 0.0
H760 H 0.8128 0.7545 0.57477 0.0
H761 H 0.76904 0.78083 0.51294 0.0
H762 H 0.82305 0.81794 0.6031 0.0
H763 H 0.84787 0.80568 0.58423 0.0
H764 H 0.83044 0.78393 0.60434 0.0
H765 H 0.76603 0.84703 0.53176 0.0
H766 H 0.76145 0.82508 0.50588 0.0
H767 H 0.79075 0.84269 0.50981 0.0
C768 C 0.30644 0.99719 0.76226 0.0
C769 C 0.2977 0.99632 0.7377 0.0
C770 C 0.29102 0.98905 0.78204 0.0
C771 C 0.26665 0.97882 0.77698 0.0
C772 C 0.25871 0.97565 0.75195 0.0
C773 C 0.2741 0.9851 0.73258 0.0
C774 C 0.30003 0.99352 0.80841 0.0
C775 C 0.23346 0.96362 0.74566 0.0
C776 C 0.23557 0.95256 0.83569 0.0
C777 C 0.22161 0.974 0.84318 0.0
C778 C 0.24856 0.95275 0.81287 0.0
C779 C 0.2485 0.97537 0.79787 0.0
C780 C 0.23328 0.99643 0.80473 0.0
C781 C 0.21965 0.99524 0.82702 0.0
C782 C 0.26345 0.92935 0.80555 0.0
C783 C 0.23307 0.02123 0.7897 0.0
H784 H 0.32463 0.00611 0.76616 0.0
H785 H 0.26746 0.98427 0.71349 0.0
H786 H 0.28805 0.00808 0.8176 0.0
H787 H 0.29842 0.97535 0.81936 0.0
H788 H 0.31984 1.00062 0.80913 0.0
H789 H 0.23267 0.95697 0.72599 0.0
H790 H 0.22912 0.94691 0.75807 0.0
H791 H 0.21861 0.97814 0.74838 0.0
H792 H 0.23701 0.936 0.84803 0.0
H793 H 0.20908 0.01199 0.83273 0.0
H794 H 0.28351 0.93275 0.81027 0.0
H795 H 0.26221 0.92585 0.78519 0.0
H796 H 0.2568 0.91164 0.81554 0.0
H797 H 0.25212 0.03037 0.7898 0.0
H798 H 0.21958 0.03544 0.79715 0.0
H799 H 0.22812 0.01706 0.77005 0.0
C800 C 0.18896 0.26375 0.91022 0.0
C801 C 0.19387 0.2632 0.9359 0.0
C802 C 0.18562 0.28736 0.89769 0.0
C803 C 0.18728 0.31097 0.91112 0.0
C804 C 0.19335 0.3106 0.93679 0.0
C805 C 0.19681 0.28676 0.94878 0.0
C806 C 0.17895 0.28694 0.87036 0.0
C807 C 0.19583 0.33515 0.952 0.0
C808 C 0.19199 0.37425 0.87472 0.0
C809 C 0.16713 0.38266 0.87573 0.0
C810 C 0.19899 0.35111 0.88648 0.0
C811 C 0.18053 0.33575 0.89884 0.0
C812 C 0.15544 0.34424 0.89993 0.0
C813 C 0.1491 0.36772 0.8886 0.0
C814 C 0.2261 0.34322 0.88593 0.0
C815 C 0.13528 0.32857 0.91323 0.0
H816 H 0.18667 0.24569 0.90006 0.0
H817 H 0.20103 0.28666 0.96854 0.0
H818 H 0.15953 0.2939 0.86785 0.0
H819 H 0.19163 0.30026 0.85981 0.0
H820 H 0.18014 0.2672 0.86219 0.0
H821 H 0.19037 0.33148 0.97166 0.0
H822 H 0.21575 0.34186 0.95174 0.0
H823 H 0.1842 0.35107 0.94478 0.0
H824 H 0.206 0.38589 0.86495 0.0
H825 H 0.12982 0.37404 0.88928 0.0
H826 H 0.22772 0.32379 0.87727 0.0
H827 H 0.23331 0.34174 0.90527 0.0
H828 H 0.23817 0.35725 0.87546 0.0
H829 H 0.13421 0.30861 0.9055 0.0
H830 H 0.11649 0.33739 0.91161 0.0
H831 H 0.1401 0.32693 0.93328 0.0
C832 C 0.75428 0.51447 0.16394 0.0
C833 C 0.74787 0.53302 0.14608 0.0
C834 C 0.77168 0.5204 0.18276 0.0
C835 C 0.78229 0.54576 0.18425 0.0
C836 C 0.77421 0.56519 0.16761 0.0
C837 C 0.75742 0.55847 0.14837 0.0
C838 C 0.78007 0.49893 0.19985 0.0
C839 C 0.78419 0.59273 0.16935 0.0
C840 C 0.81876 0.55415 0.24422 0.0
C841 C 0.8431 0.54865 0.23622 0.0
C842 C 0.79899 0.55596 0.22707 0.0
C843 C 0.8036 0.55083 0.20159 0.0
C844 C 0.8285 0.54671 0.19333 0.0
C845 C 0.84807 0.54613 0.21079 0.0
C846 C 0.77297 0.56155 0.23649 0.0
C847 C 0.83416 0.54046 0.16645 0.0
H848 H 0.74713 0.49473 0.16215 0.0
H849 H 0.75237 0.57292 0.13468 0.0
H850 H 0.80036 0.49544 0.19695 0.0
H851 H 0.77758 0.50463 0.21959 0.0
H852 H 0.76952 0.48044 0.19661 0.0
H853 H 0.77265 0.60633 0.15836 0.0
H854 H 0.7847 0.5993 0.18904 0.0
H855 H 0.80368 0.59374 0.16212 0.0
H856 H 0.81501 0.55603 0.26399 0.0
H857 H 0.86689 0.54148 0.20477 0.0
H858 H 0.76201 0.54313 0.23818 0.0
H859 H 0.76288 0.57427 0.22333 0.0
H860 H 0.77354 0.57098 0.2551 0.0
H861 H 0.82545 0.52139 0.16157 0.0
H862 H 0.85465 0.53959 0.16278 0.0
H863 H 0.82599 0.55516 0.15392 0.0
C864 C 0.76653 0.97579 0.33461 0.0
C865 C 0.74047 0.97921 0.33559 0.0
C866 C 0.78063 0.98451 0.31407 0.0
C867 C 0.76829 0.99632 0.29377 0.0
C868 C 0.74172 0.99678 0.29334 0.0
C869 C 0.72812 0.98852 0.3144 0.0
C870 C 0.80891 0.98374 0.31545 0.0
C871 C 0.7277 0.00835 0.27174 0.0
C872 C 0.80255 0.05377 0.26442 0.0
C873 C 0.81343 0.04264 0.24333 0.0
C874 C 0.78777 0.03885 0.28082 0.0
C875 C 0.78313 0.01223 0.27565 0.0
C876 C 0.79339 0.00103 0.25391 0.0
C877 C 0.80876 0.01631 0.23816 0.0
C878 C 0.77756 0.05154 0.30399 0.0
C879 C 0.7881 0.973 0.24734 0.0
H880 H 0.77628 0.96861 0.35087 0.0
H881 H 0.70796 0.99092 0.31487 0.0
H882 H 0.81698 0.97744 0.29746 0.0
H883 H 0.81645 0.00354 0.31941 0.0
H884 H 0.81541 0.97052 0.33036 0.0
H885 H 0.70789 0.00124 0.27114 0.0
H886 H 0.72763 0.02976 0.2738 0.0
H887 H 0.73686 0.00377 0.25375 0.0
H888 H 0.80615 0.0741 0.26851 0.0
H889 H 0.81685 0.00776 0.22163 0.0
H890 H 0.78421 0.04121 0.32081 0.0
H891 H 0.75675 0.05025 0.30397 0.0
H892 H 0.78335 0.0723 0.3055 0.0
H893 H 0.79563 0.96018 0.26203 0.0
H894 H 0.79654 0.96755 0.2292 0.0
H895 H 0.76753 0.9693 0.24645 0.0
C896 C 0.22142 0.21933 0.53694 0.0
C897 C 0.20681 0.23822 0.54844 0.0
C898 C 0.21704 0.19287 0.5417 0.0
C899 C 0.19679 0.18529 0.5573 0.0
C900 C 0.18351 0.20442 0.57063 0.0
C901 C 0.18896 0.23077 0.56627 0.0
C902 C 0.23259 0.17308 0.52835 0.0
C903 C 0.16173 0.19718 0.5874 0.0
C904 C 0.15502 0.12889 0.53765 0.0
C905 C 0.15909 0.11082 0.55671 0.0
C906 C 0.16816 0.15265 0.53702 0.0
C907 C 0.18616 0.15845 0.55572 0.0
C908 C 0.19197 0.13947 0.57376 0.0
C909 C 0.17821 0.1159 0.57418 0.0
C910 C 0.16146 0.17224 0.51725 0.0
C911 C 0.21163 0.14449 0.5935 0.0
H912 H 0.23531 0.22521 0.52318 0.0
H913 H 0.17756 0.24545 0.57495 0.0
H914 H 0.2371 0.15676 0.54095 0.0
H915 H 0.22178 0.16491 0.51245 0.0
H916 H 0.25038 0.18178 0.52111 0.0
H917 H 0.15533 0.21394 0.59858 0.0
H918 H 0.14576 0.18999 0.57587 0.0
H919 H 0.16692 0.18134 0.60025 0.0
H920 H 0.14059 0.12509 0.52382 0.0
H921 H 0.18175 0.10201 0.58885 0.0
H922 H 0.17858 0.17931 0.50744 0.0
H923 H 0.1527 0.18927 0.52614 0.0
H924 H 0.14819 0.16409 0.5032 0.0
H925 H 0.22771 0.15605 0.58601 0.0
H926 H 0.21874 0.12607 0.60131 0.0
H927 H 0.20326 0.15567 0.60896 0.0
C928 C 0.02049 0.29229 0.57328 0.0
C929 C 8e-05 0.29126 0.55683 0.0
C930 C 0.0444 0.30025 0.56511 0.0
C931 C 0.04782 0.30819 0.54005 0.0
C932 C 0.02683 0.30928 0.52392 0.0
C933 C 0.00324 0.30031 0.53237 0.0
C934 C 0.06633 0.29823 0.58281 0.0
C935 C 0.02949 0.31866 0.49741 0.0
C936 C 0.11254 0.33794 0.52857 0.0
C937 C 0.12546 0.31649 0.51946 0.0
C938 C 0.08665 0.33621 0.53354 0.0
C939 C 0.07374 0.31217 0.53026 0.0
C940 C 0.08656 0.29081 0.52007 0.0
C941 C 0.11216 0.29338 0.51441 0.0
C942 C 0.07343 0.35972 0.54336 0.0
C943 C 0.0737 0.26464 0.51679 0.0
H944 H 0.01817 0.28513 0.59215 0.0
H945 H 0.98741 0.29974 0.51967 0.0
H946 H 0.07934 0.28324 0.57597 0.0
H947 H 0.07703 0.31687 0.58359 0.0
H948 H 0.06032 0.29295 0.60199 0.0
H949 H 0.01101 0.32301 0.48896 0.0
H950 H 0.04168 0.33634 0.49654 0.0
H951 H 0.03849 0.3035 0.486 0.0
H952 H 0.12277 0.35592 0.53227 0.0
H953 H 0.12214 0.27669 0.50754 0.0
H954 H 0.07006 0.35744 0.56363 0.0
H955 H 0.05489 0.36177 0.53422 0.0
H956 H 0.08469 0.37783 0.54039 0.0
H957 H 0.06794 0.25689 0.53525 0.0
H958 H 0.08605 0.25033 0.50768 0.0
H959 H 0.05646 0.26651 0.50543 0.0
C960 C 0.98258 0.33081 0.83252 0.0
C961 C 0.98323 0.33215 0.85863 0.0
C962 C 0.99907 0.34607 0.81796 0.0
C963 C 0.01722 0.36216 0.82991 0.0
C964 C 0.01769 0.36373 0.8563 0.0
C965 C 0.00043 0.34903 0.87026 0.0
C966 C 0.99727 0.34429 0.78995 0.0
C967 C 0.03693 0.38038 0.86997 0.0
C968 C 0.08142 0.3815 0.80761 0.0
C969 C 0.0794 0.40847 0.80886 0.0
C970 C 0.06021 0.36541 0.81127 0.0
C971 C 0.03664 0.37684 0.81559 0.0
C972 C 0.03402 0.40389 0.81239 0.0
C973 C 0.05563 0.41956 0.80966 0.0
C974 C 0.06377 0.33662 0.81426 0.0
C975 C 0.00888 0.41651 0.81517 0.0
H976 H 0.96918 0.31782 0.82344 0.0
H977 H 0.00111 0.34996 0.89043 0.0
H978 H 0.00352 0.36257 0.78075 0.0
H979 H 0.00934 0.32843 0.78328 0.0
H980 H 0.97773 0.33958 0.78399 0.0
H981 H 0.0356 0.37818 0.89051 0.0
H982 H 0.05617 0.37521 0.86409 0.0
H983 H 0.03431 0.40113 0.86535 0.0
H984 H 0.09989 0.37302 0.80711 0.0
H985 H 0.05416 0.4405 0.81051 0.0
H986 H 0.04863 0.32556 0.80458 0.0
H987 H 0.06281 0.33152 0.83434 0.0
H988 H 0.08218 0.33042 0.80686 0.0
H989 H 0.99405 0.40487 0.80555 0.0
H990 H 0.00913 0.43657 0.80757 0.0
H991 H 0.00381 0.41744 0.83519 0.0
C992 C 0.76924 0.43032 0.05716 0.0
C993 C 0.77402 0.45571 0.06543 0.0
C994 C 0.78822 0.41186 0.05703 0.0
C995 C 0.81241 0.41889 0.06594 0.0
C996 C 0.81774 0.44497 0.07283 0.0
C997 C 0.79847 0.46318 0.07227 0.0
C998 C 0.7818 0.38449 0.04894 0.0
C999 C 0.84328 0.45323 0.08248 0.0
C1000 C 0.84949 0.36714 0.09908 0.0
C1001 C 0.86792 0.36128 0.0814 0.0
C1002 C 0.83122 0.38566 0.09411 0.0
C1003 C 0.83117 0.3985 0.07079 0.0
C1004 C 0.84917 0.39211 0.05253 0.0
C1005 C 0.86742 0.37366 0.05809 0.0
C1006 C 0.8123 0.39192 0.11408 0.0
C1007 C 0.84933 0.405 0.02728 0.0
H1008 H 0.75041 0.42467 0.05151 0.0
H1009 H 0.80216 0.48281 0.07874 0.0
H1010 H 0.79753 0.37581 0.03851 0.0
H1011 H 0.77818 0.37234 0.06567 0.0
H1012 H 0.76474 0.38372 0.03705 0.0
H1013 H 0.84512 0.47462 0.08461 0.0
H1014 H 0.8465 0.44411 0.1009 0.0
H1015 H 0.85824 0.44654 0.06977 0.0
H1016 H 0.84972 0.35779 0.11715 0.0
H1017 H 0.88147 0.36915 0.04423 0.0
H1018 H 0.79298 0.38841 0.10696 0.0
H1019 H 0.81396 0.41276 0.11914 0.0
H1020 H 0.81484 0.38014 0.13119 0.0
H1021 H 0.83068 0.40253 0.01829 0.0
H1022 H 0.86384 0.397 0.01473 0.0
H1023 H 0.85294 0.42615 0.02943 0.0
C1024 C 0.97266 0.14699 0.34253 0.0
C1025 C 0.95331 0.14042 0.35913 0.0
C1026 C 0.97403 0.13471 0.31921 0.0
C1027 C 0.95468 0.11697 0.31219 0.0
C1028 C 0.9377 0.10744 0.3305 0.0
C1029 C 0.9375 0.11915 0.354 0.0
C1030 C 0.99413 0.14319 0.30105 0.0
C1031 C 0.91707 0.08803 0.32419 0.0
C1032 C 0.91764 0.12973 0.25421 0.0
C1033 C 0.91827 0.10549 0.24241 0.0
C1034 C 0.93136 0.13459 0.27594 0.0
C1035 C 0.94695 0.115 0.28565 0.0
C1036 C 0.95047 0.09196 0.27182 0.0
C1037 C 0.93572 0.08724 0.25051 0.0
C1038 C 0.92696 0.15973 0.28972 0.0
C1039 C 0.9684 0.07143 0.28019 0.0
H1040 H 0.98504 0.16338 0.34663 0.0
H1041 H 0.9226 0.11416 0.36703 0.0
H1042 H 0.99801 0.12768 0.2873 0.0
H1043 H 0.98796 0.16061 0.29078 0.0
H1044 H 0.01177 0.14846 0.31102 0.0
H1045 H 0.9066 0.08135 0.34098 0.0
H1046 H 0.90356 0.09696 0.31115 0.0
H1047 H 0.92499 0.07087 0.31484 0.0
H1048 H 0.90486 0.14435 0.24766 0.0
H1049 H 0.93701 0.06873 0.24104 0.0
H1050 H 0.94498 0.17029 0.29288 0.0
H1051 H 0.91843 0.15561 0.3082 0.0
H1052 H 0.91434 0.17284 0.27938 0.0
H1053 H 0.98247 0.07901 0.29373 0.0
H1054 H 0.97841 0.06335 0.26386 0.0
H1055 H 0.95768 0.05516 0.28892 0.0
C1056 C 0.2353 0.93616 0.41889 0.0
C1057 C 0.23014 0.96258 0.42192 0.0
C1058 C 0.21625 0.91713 0.42012 0.0
C1059 C 0.1911 0.92465 0.4235 0.0
C1060 C 0.18565 0.95119 0.42701 0.0
C1061 C 0.20529 0.96985 0.42643 0.0
C1062 C 0.22295 0.88899 0.41674 0.0
C1063 C 0.15898 0.96003 0.43 0.0
C1064 C 0.14501 0.87749 0.3934 0.0
C1065 C 0.13584 0.8635 0.41395 0.0
C1066 C 0.16195 0.89836 0.39647 0.0
C1067 C 0.17058 0.90488 0.42066 0.0
C1068 C 0.16113 0.89102 0.44156 0.0
C1069 C 0.14349 0.87069 0.43798 0.0
C1070 C 0.17105 0.91301 0.37371 0.0
C1071 C 0.17036 0.89703 0.46754 0.0
H1072 H 0.25424 0.93023 0.41483 0.0
H1073 H 0.20099 0.99019 0.42856 0.0
H1074 H 0.21496 0.87713 0.43216 0.0
H1075 H 0.21474 0.88146 0.39912 0.0
H1076 H 0.24357 0.88619 0.41614 0.0
H1077 H 0.15806 0.9809 0.43501 0.0
H1078 H 0.14866 0.95691 0.41225 0.0
H1079 H 0.14911 0.94843 0.44452 0.0
H1080 H 0.13871 0.87224 0.37483 0.0
H1081 H 0.13631 0.85988 0.45386 0.0
H1082 H 0.19126 0.90932 0.37064 0.0
H1083 H 0.16909 0.9342 0.37652 0.0
H1084 H 0.16058 0.90724 0.35663 0.0
H1085 H 0.19063 0.89265 0.46891 0.0
H1086 H 0.16005 0.88558 0.48194 0.0
H1087 H 0.16838 0.91796 0.47168 0.0
C1088 C 0.42554 0.35296 0.67855 0.0
C1089 C 0.42887 0.35851 0.6532 0.0
C1090 C 0.42739 0.37265 0.69652 0.0
C1091 C 0.43181 0.39859 0.68878 0.0
C1092 C 0.437 0.40395 0.66337 0.0
C1093 C 0.43579 0.3837 0.64587 0.0
C1094 C 0.42249 0.36593 0.72348 0.0
C1095 C 0.44127 0.43139 0.65424 0.0
C1096 C 0.39711 0.44941 0.72555 0.0
C1097 C 0.41662 0.46186 0.73862 0.0
C1098 C 0.40195 0.42899 0.70913 0.0
C1099 C 0.42685 0.42024 0.70631 0.0
C1100 C 0.44658 0.43229 0.72002 0.0
C1101 C 0.44127 0.45329 0.73575 0.0
C1102 C 0.38042 0.4171 0.69446 0.0
C1103 C 0.47317 0.42291 0.71817 0.0
H1104 H 0.4202 0.33342 0.68419 0.0
H1105 H 0.43802 0.38803 0.62621 0.0
H1106 H 0.4357 0.37671 0.73587 0.0
H1107 H 0.40318 0.3716 0.72858 0.0
H1108 H 0.42424 0.34481 0.72703 0.0
H1109 H 0.44838 0.43196 0.63479 0.0
H1110 H 0.42327 0.44186 0.65493 0.0
H1111 H 0.45479 0.442 0.66639 0.0
H1112 H 0.37808 0.45621 0.72756 0.0
H1113 H 0.45633 0.46285 0.74601 0.0
H1114 H 0.37807 0.39627 0.69927 0.0
H1115 H 0.38451 0.41827 0.67422 0.0
H1116 H 0.36238 0.42687 0.69809 0.0
H1117 H 0.47381 0.40218 0.72367 0.0
H1118 H 0.48631 0.43425 0.73023 0.0
H1119 H 0.47984 0.42424 0.69864 0.0
C1120 C 0.00223 0.77422 0.95955 0.0
C1121 C 0.00252 0.76549 0.93483 0.0
C1122 C 0.98082 0.78595 0.96948 0.0
C1123 C 0.95896 0.78783 0.95461 0.0
C1124 C 0.95957 0.7798 0.92937 0.0
C1125 C 0.98151 0.76918 0.91969 0.0
C1126 C 0.98135 0.79536 0.99608 0.0
C1127 C 0.93654 0.78083 0.91297 0.0
C1128 C 0.8937 0.78136 0.98155 0.0
C1129 C 0.88376 0.80557 0.9756 0.0
C1130 C 0.9188 0.77583 0.97633 0.0
C1131 C 0.93457 0.79531 0.96574 0.0
C1132 C 0.92534 0.82064 0.96227 0.0
C1133 C 0.89984 0.82535 0.96674 0.0
C1134 C 0.92762 0.7484 0.97985 0.0
C1135 C 0.94192 0.84228 0.95225 0.0
H1136 H 0.01863 0.77161 0.97117 0.0
H1137 H 0.98169 0.76228 0.90061 0.0
H1138 H 0.97141 0.81398 0.99791 0.0
H1139 H 0.97162 0.78094 0.00821 0.0
H1140 H 0.00088 0.79804 0.00302 0.0
H1141 H 0.9403 0.77416 0.89368 0.0
H1142 H 0.92135 0.76838 0.921 0.0
H1143 H 0.92949 0.8009 0.91211 0.0
H1144 H 0.88133 0.76595 0.98829 0.0
H1145 H 0.89226 0.84419 0.96237 0.0
H1146 H 0.94558 0.74829 0.99025 0.0
H1147 H 0.93105 0.73949 0.96136 0.0
H1148 H 0.91367 0.73608 0.99 0.0
H1149 H 0.96098 0.84156 0.96054 0.0
H1150 H 0.9339 0.86162 0.95605 0.0
H1151 H 0.94391 0.84011 0.9318 0.0
C1152 C 0.45867 0.18628 0.14854 0.0
C1153 C 0.4533 0.1843 0.12298 0.0
C1154 C 0.47595 0.16978 0.1599 0.0
C1155 C 0.48837 0.15119 0.14525 0.0
C1156 C 0.48259 0.14871 0.11959 0.0
C1157 C 0.465 0.16516 0.10883 0.0
C1158 C 0.48129 0.17261 0.18739 0.0
C1159 C 0.49553 0.12916 0.10328 0.0
C1160 C 0.5522 0.12414 0.15954 0.0
C1161 C 0.5457 0.09832 0.16497 0.0
C1162 C 0.53352 0.14237 0.15496 0.0
C1163 C 0.5079 0.1345 0.15622 0.0
C1164 C 0.50138 0.10913 0.16428 0.0
C1165 C 0.52042 0.09129 0.16839 0.0
C1166 C 0.54125 0.16925 0.14641 0.0
C1167 C 0.47435 0.10006 0.16638 0.0
H1168 H 0.44959 0.20094 0.15966 0.0
H1169 H 0.4611 0.16358 0.08906 0.0
H1170 H 0.47928 0.15353 0.19683 0.0
H1171 H 0.50095 0.17948 0.19016 0.0
H1172 H 0.46857 0.18654 0.19654 0.0
H1173 H 0.48877 0.12961 0.08372 0.0
H1174 H 0.51609 0.13306 0.10332 0.0
H1175 H 0.49236 0.1093 0.11075 0.0
H1176 H 0.57177 0.12958 0.15682 0.0
H1177 H 0.51547 0.07143 0.17299 0.0
H1178 H 0.52996 0.18416 0.1559 0.0
H1179 H 0.53775 0.171 0.1261 0.0
H1180 H 0.56147 0.17348 0.14994 0.0
H1181 H 0.46277 0.11508 0.17535 0.0
H1182 H 0.47247 0.08175 0.17721 0.0
H1183 H 0.46664 0.09652 0.14746 0.0
C1184 C 0.04268 0.83363 0.31857 0.0
C1185 C 0.05273 0.8461 0.33959 0.0
C1186 C 0.04419 0.8454 0.29502 0.0
C1187 C 0.05716 0.86948 0.29256 0.0
C1188 C 0.06459 0.88339 0.31421 0.0
C1189 C 0.06191 0.87159 0.3376 0.0
C1190 C 0.03455 0.83068 0.27259 0.0
C1191 C 0.0787 0.90902 0.31252 0.0
C1192 C 0.10489 0.87733 0.24102 0.0
C1193 C 0.09547 0.89846 0.22777 0.0
C1194 C 0.09182 0.86676 0.26135 0.0
C1195 C 0.06831 0.87708 0.26818 0.0
C1196 C 0.05751 0.89662 0.25334 0.0
C1197 C 0.07144 0.90745 0.23354 0.0
C1198 C 0.10412 0.84578 0.27654 0.0
C1199 C 0.0319 0.90711 0.25903 0.0
H1200 H 0.03577 0.81377 0.32015 0.0
H1201 H 0.07005 0.88096 0.35388 0.0
H1202 H 0.02801 0.84412 0.2579 0.0
H1203 H 0.04985 0.81894 0.26465 0.0
H1204 H 0.01887 0.81722 0.27776 0.0
H1205 H 0.08075 0.91855 0.33099 0.0
H1206 H 0.09775 0.90577 0.30486 0.0
H1207 H 0.06903 0.92243 0.29975 0.0
H1208 H 0.12334 0.87012 0.23661 0.0
H1209 H 0.06382 0.92349 0.2231 0.0
H1210 H 0.09186 0.82818 0.27722 0.0
H1211 H 0.10697 0.85253 0.29599 0.0
H1212 H 0.12259 0.84019 0.26882 0.0
H1213 H 0.01923 0.89187 0.26691 0.0
H1214 H 0.02308 0.91524 0.24205 0.0
H1215 H 0.03375 0.92298 0.2729 0.0
C1216 C 0.37064 0.38645 0.55657 0.0
C1217 C 0.35881 0.36407 0.5662 0.0
C1218 C 0.35679 0.40868 0.55128 0.0
C1219 C 0.33054 0.40823 0.55535 0.0
C1220 C 0.31831 0.38491 0.56294 0.0
C1221 C 0.33265 0.36318 0.56858 0.0
C1222 C 0.37042 0.43314 0.54304 0.0
C1223 C 0.29019 0.38328 0.56619 0.0
C1224 C 0.29661 0.46696 0.57901 0.0
C1225 C 0.28311 0.47428 0.55795 0.0
C1226 C 0.31341 0.44645 0.5779 0.0
C1227 C 0.31632 0.43273 0.55523 0.0
C1228 C 0.30372 0.44112 0.53351 0.0
C1229 C 0.28723 0.462 0.53515 0.0
C1230 C 0.32673 0.43839 0.60142 0.0
C1231 C 0.30606 0.42704 0.50902 0.0
H1232 H 0.3909 0.3872 0.55473 0.0
H1233 H 0.32346 0.34571 0.57561 0.0
H1234 H 0.36066 0.44199 0.52698 0.0
H1235 H 0.37042 0.44748 0.55845 0.0
H1236 H 0.39019 0.42947 0.53772 0.0
H1237 H 0.28097 0.38849 0.54841 0.0
H1238 H 0.28353 0.36357 0.57177 0.0
H1239 H 0.28414 0.39736 0.58052 0.0
H1240 H 0.29314 0.47655 0.59663 0.0
H1241 H 0.27653 0.46775 0.51899 0.0
H1242 H 0.34708 0.43614 0.59783 0.0
H1243 H 0.31912 0.41931 0.60774 0.0
H1244 H 0.32439 0.45264 0.61674 0.0
H1245 H 0.32516 0.41932 0.50637 0.0
H1246 H 0.30163 0.43992 0.49309 0.0
H1247 H 0.29252 0.41042 0.50872 0.0
C1248 C 0.91706 0.61598 0.8099 0.0
C1249 C 0.92017 0.58928 0.81279 0.0
C1250 C 0.93735 0.63328 0.81368 0.0
C1251 C 0.96118 0.62333 0.81983 0.0
C1252 C 0.96507 0.59628 0.81861 0.0
C1253 C 0.94433 0.57947 0.81558 0.0
C1254 C 0.93228 0.66196 0.81489 0.0
C1255 C 0.99041 0.58494 0.82396 0.0
C1256 C 0.01412 0.67119 0.8356 0.0
C1257 C 0.01268 0.67151 0.8617 0.0
C1258 C 0.99782 0.65525 0.82148 0.0
C1259 C 0.97936 0.63991 0.83384 0.0
C1260 C 0.97782 0.64036 0.86022 0.0
C1261 C 0.99474 0.65586 0.87379 0.0
C1262 C 0.00064 0.65453 0.79352 0.0
C1263 C 0.95804 0.62476 0.8742 0.0
H1264 H 0.89829 0.6235 0.80789 0.0
H1265 H 0.94667 0.55873 0.81771 0.0
H1266 H 0.92994 0.66772 0.83467 0.0
H1267 H 0.94817 0.67356 0.80712 0.0
H1268 H 0.91487 0.66688 0.80467 0.0
H1269 H 0.99173 0.56487 0.81661 0.0
H1270 H 0.00568 0.59711 0.81574 0.0
H1271 H 0.99342 0.58427 0.84441 0.0
H1272 H 0.02815 0.68321 0.82626 0.0
H1273 H 0.99342 0.65633 0.89394 0.0
H1274 H 0.98223 0.65684 0.78422 0.0
H1275 H 0.00784 0.63534 0.78789 0.0
H1276 H 0.01385 0.66984 0.7866 0.0
H1277 H 0.93906 0.6294 0.86717 0.0
H1278 H 0.95853 0.62854 0.89457 0.0
H1279 H 0.96085 0.60373 0.87118 0.0
C1280 C 0.23237 0.56527 0.04767 0.0
C1281 C 0.22764 0.54074 0.05802 0.0
C1282 C 0.21363 0.58396 0.04693 0.0
C1283 C 0.18982 0.57808 0.05742 0.0
C1284 C 0.18443 0.55265 0.06624 0.0
C1285 C 0.20341 0.53414 0.06619 0.0
C1286 C 0.21991 0.61055 0.03662 0.0
C1287 C 0.15934 0.54562 0.07772 0.0
C1288 C 0.15627 0.63188 0.09109 0.0
C1289 C 0.13634 0.63703 0.07486 0.0
C1290 C 0.17402 0.61311 0.08531 0.0
C1291 C 0.17202 0.59927 0.06259 0.0
C1292 C 0.15264 0.6051 0.0456 0.0
C1293 C 0.13492 0.62384 0.05198 0.0
C1294 C 0.19448 0.60749 0.10395 0.0
C1295 C 0.1502 0.59107 0.02101 0.0
H1296 H 0.25102 0.57013 0.04099 0.0
H1297 H 0.19983 0.51516 0.0743 0.0
H1298 H 0.20427 0.61776 0.02505 0.0
H1299 H 0.22273 0.62439 0.05224 0.0
H1300 H 0.23729 0.61055 0.02519 0.0
H1301 H 0.15712 0.52441 0.08094 0.0
H1302 H 0.15751 0.55572 0.09587 0.0
H1303 H 0.14379 0.5521 0.06563 0.0
H1304 H 0.15762 0.64193 0.10879 0.0
H1305 H 0.1197 0.62776 0.03923 0.0
H1306 H 0.21319 0.61008 0.09513 0.0
H1307 H 0.19281 0.58702 0.11022 0.0
H1308 H 0.19365 0.62028 0.12057 0.0
H1309 H 0.16845 0.5913 0.01106 0.0
H1310 H 0.13581 0.59978 0.00877 0.0
H1311 H 0.14486 0.57046 0.02436 0.0
C1312 C 0.52656 0.81153 0.17053 0.0
C1313 C 0.53214 0.8176 0.14557 0.0
C1314 C 0.51014 0.8268 0.18455 0.0
C1315 C 0.49867 0.8483 0.17315 0.0
C1316 C 0.50462 0.85476 0.14812 0.0
C1317 C 0.52135 0.83947 0.13476 0.0
C1318 C 0.50466 0.8194 0.21122 0.0
C1319 C 0.49292 0.8776 0.13513 0.0
C1320 C 0.437 0.87925 0.18457 0.0
C1321 C 0.44563 0.90446 0.18984 0.0
C1322 C 0.45404 0.8589 0.1827 0.0
C1323 C 0.47996 0.86419 0.18651 0.0
C1324 C 0.48772 0.88839 0.19661 0.0
C1325 C 0.47038 0.90843 0.19801 0.0
C1326 C 0.44484 0.8331 0.17268 0.0
C1327 C 0.51497 0.89448 0.20208 0.0
H1328 H 0.53486 0.7947 0.17912 0.0
H1329 H 0.52545 0.84434 0.11553 0.0
H1330 H 0.50215 0.83678 0.22309 0.0
H1331 H 0.487 0.80768 0.21193 0.0
H1332 H 0.51989 0.80755 0.21923 0.0
H1333 H 0.4994 0.87977 0.11556 0.0
H1334 H 0.47217 0.87527 0.13504 0.0
H1335 H 0.49763 0.89581 0.14526 0.0
H1336 H 0.41779 0.87615 0.17837 0.0
H1337 H 0.47691 0.92794 0.20245 0.0
H1338 H 0.45485 0.81691 0.18165 0.0
H1339 H 0.44865 0.83226 0.15237 0.0
H1340 H 0.42433 0.83025 0.1756 0.0
H1341 H 0.52437 0.87739 0.21014 0.0
H1342 H 0.51705 0.91112 0.21513 0.0
H1343 H 0.52474 0.8997 0.18447 0.0
C1344 C 0.33604 0.14119 0.89047 0.0
C1345 C 0.33986 0.15791 0.91071 0.0
C1346 C 0.32111 0.11871 0.89282 0.0
C1347 C 0.30903 0.11333 0.91578 0.0
C1348 C 0.31316 0.13001 0.93646 0.0
C1349 C 0.32894 0.15201 0.93376 0.0
C1350 C 0.3178 0.10107 0.87053 0.0
C1351 C 0.29996 0.12545 0.96099 0.0
C1352 C 0.2484 0.07465 0.90905 0.0
C1353 C 0.25522 0.04994 0.91739 0.0
C1354 C 0.26552 0.09556 0.90935 0.0
C1355 C 0.29044 0.09155 0.91725 0.0
C1356 C 0.29773 0.06659 0.92516 0.0
C1357 C 0.27995 0.04608 0.92535 0.0
C1358 C 0.2568 0.12203 0.90138 0.0
C1359 C 0.32438 0.06153 0.93307 0.0
H1360 H 0.34496 0.14566 0.87277 0.0
H1361 H 0.33204 0.16506 0.94935 0.0
H1362 H 0.32123 0.08065 0.87587 0.0
H1363 H 0.29821 0.102 0.86363 0.0
H1364 H 0.33067 0.1065 0.85501 0.0
H1365 H 0.30876 0.13692 0.9763 0.0
H1366 H 0.28012 0.13133 0.95922 0.0
H1367 H 0.2999 0.10462 0.96617 0.0
H1368 H 0.22945 0.07786 0.90257 0.0
H1369 H 0.28546 0.02704 0.93162 0.0
H1370 H 0.26691 0.12827 0.88428 0.0
H1371 H 0.26118 0.13653 0.91611 0.0
H1372 H 0.23631 0.12225 0.89759 0.0
H1373 H 0.33742 0.06615 0.9175 0.0
H1374 H 0.32704 0.04104 0.93876 0.0
H1375 H 0.32969 0.07436 0.94887 0.0
C1376 C 0.49444 0.21848 0.42082 0.0
C1377 C 0.47328 0.22238 0.43569 0.0
C1378 C 0.51581 0.20674 0.43056 0.0
C1379 C 0.51563 0.19782 0.45555 0.0
C1380 C 0.49352 0.19984 0.47001 0.0
C1381 C 0.47273 0.21265 0.46007 0.0
C1382 C 0.53914 0.20556 0.41462 0.0
C1383 C 0.49214 0.18956 0.4963 0.0
C1384 C 0.57349 0.15841 0.46828 0.0
C1385 C 0.58981 0.17754 0.478 0.0
C1386 C 0.54827 0.16393 0.46319 0.0
C1387 C 0.53957 0.18941 0.46701 0.0
C1388 C 0.55549 0.20818 0.47851 0.0
C1389 C 0.58028 0.20185 0.48426 0.0
C1390 C 0.53147 0.14301 0.45217 0.0
C1391 C 0.5472 0.23573 0.48253 0.0
H1392 H 0.49491 0.22617 0.40202 0.0
H1393 H 0.4562 0.21541 0.47147 0.0
H1394 H 0.55438 0.21752 0.42321 0.0
H1395 H 0.54582 0.18537 0.41351 0.0
H1396 H 0.53593 0.21274 0.39539 0.0
H1397 H 0.4724 0.18716 0.50272 0.0
H1398 H 0.50159 0.17061 0.49777 0.0
H1399 H 0.50191 0.20332 0.50906 0.0
H1400 H 0.58069 0.13947 0.46369 0.0
H1401 H 0.59278 0.21677 0.49172 0.0
H1402 H 0.52999 0.14591 0.43176 0.0
H1403 H 0.51225 0.14393 0.46007 0.0
H1404 H 0.53897 0.12336 0.45556 0.0
H1405 H 0.54438 0.24523 0.46421 0.0
H1406 H 0.56118 0.24743 0.49329 0.0
H1407 H 0.52903 0.23598 0.49256 0.0
C1408 C 0.69065 0.00098 0.75897 0.0
C1409 C 0.69961 0.0011 0.73447 0.0
C1410 C 0.70583 0.00989 0.77863 0.0
C1411 C 0.73018 0.02012 0.77348 0.0
C1412 C 0.73832 0.02255 0.74845 0.0
C1413 C 0.72315 0.01238 0.72923 0.0
C1414 C 0.69661 0.00623 0.80503 0.0
C1415 C 0.76355 0.03456 0.74203 0.0
C1416 C 0.76062 0.04798 0.83184 0.0
C1417 C 0.77454 0.02677 0.83997 0.0
C1418 C 0.74788 0.04719 0.80887 0.0
C1419 C 0.74817 0.0242 0.79441 0.0
C1420 C 0.76337 0.00337 0.80191 0.0
C1421 C 0.77675 0.00515 0.8243 0.0
C1422 C 0.73303 0.07036 0.80086 0.0
C1423 C 0.76378 0.97819 0.78749 0.0
H1424 H 0.67249 0.99207 0.76298 0.0
H1425 H 0.72993 0.01268 0.71019 0.0
H1426 H 0.70858 0.99205 0.81477 0.0
H1427 H 0.69802 0.02475 0.81545 0.0
H1428 H 0.67683 0.99904 0.80578 0.0
H1429 H 0.76449 0.04054 0.72216 0.0
H1430 H 0.76763 0.05172 0.75395 0.0
H1431 H 0.77847 0.02027 0.74537 0.0
H1432 H 0.75898 0.06482 0.84379 0.0
H1433 H 0.7873 0.98858 0.83051 0.0
H1434 H 0.71298 0.06718 0.80574 0.0
H1435 H 0.73421 0.0732 0.78039 0.0
H1436 H 0.73975 0.08838 0.81029 0.0
H1437 H 0.74476 0.969 0.78763 0.0
H1438 H 0.77723 0.96421 0.79541 0.0
H1439 H 0.76891 0.98186 0.76779 0.0
C1440 C 0.36158 0.6418 0.39404 0.0
C1441 C 0.34411 0.63056 0.37754 0.0
C1442 C 0.35667 0.66532 0.40604 0.0
C1443 C 0.33357 0.67767 0.40174 0.0
C1444 C 0.3154 0.66586 0.38596 0.0
C1445 C 0.32099 0.64255 0.37382 0.0
C1446 C 0.3765 0.67732 0.42278 0.0
C1447 C 0.29021 0.67801 0.38173 0.0
C1448 C 0.31783 0.72945 0.44912 0.0
C1449 C 0.32602 0.75211 0.43682 0.0
C1450 C 0.31888 0.70516 0.43744 0.0
C1451 C 0.32895 0.70342 0.41312 0.0
C1452 C 0.33634 0.72631 0.40026 0.0
C1453 C 0.33459 0.75042 0.41219 0.0
C1454 C 0.31026 0.68142 0.45176 0.0
C1455 C 0.3472 0.72524 0.3743 0.0
H1456 H 0.37954 0.63271 0.3969 0.0
H1457 H 0.30731 0.63378 0.36129 0.0
H1458 H 0.38221 0.69673 0.41557 0.0
H1459 H 0.36873 0.68012 0.44175 0.0
H1460 H 0.39346 0.66521 0.4242 0.0
H1461 H 0.2777 0.66576 0.36983 0.0
H1462 H 0.28076 0.68126 0.39986 0.0
H1463 H 0.2928 0.69723 0.3727 0.0
H1464 H 0.31093 0.7306 0.46809 0.0
H1465 H 0.34098 0.76782 0.40258 0.0
H1466 H 0.3027 0.66597 0.43932 0.0
H1467 H 0.29554 0.68634 0.46553 0.0
H1468 H 0.32646 0.6735 0.46208 0.0
H1469 H 0.36522 0.7148 0.37471 0.0
H1470 H 0.35069 0.74487 0.36632 0.0
H1471 H 0.33432 0.7143 0.36172 0.0
C1472 C 0.19444 0.96409 0.25934 0.0
C1473 C 0.18543 0.97764 0.23876 0.0
C1474 C 0.20878 0.97677 0.27769 0.0
C1475 C 0.21511 0.00345 0.2748 0.0
C1476 C 0.2065 0.01709 0.25365 0.0
C1477 C 0.19128 0.00408 0.23606 0.0
C1478 C 0.21699 0.96161 0.30026 0.0
C1479 C 0.21377 0.04516 0.24936 0.0
C1480 C 0.23235 0.03465 0.3363 0.0
C1481 C 0.25808 0.02942 0.33764 0.0
C1482 C 0.21829 0.02812 0.31503 0.0
C1483 C 0.23039 0.01673 0.29438 0.0
C1484 C 0.25681 0.01427 0.29452 0.0
C1485 C 0.27033 0.02034 0.31629 0.0
C1486 C 0.19013 0.03084 0.31579 0.0
C1487 C 0.27053 0.0031 0.2725 0.0
H1488 H 0.18987 0.94359 0.26128 0.0
H1489 H 0.18456 0.01437 0.21985 0.0
H1490 H 0.23777 0.96101 0.30096 0.0
H1491 H 0.21059 0.97131 0.31753 0.0
H1492 H 0.20946 0.94136 0.30019 0.0
H1493 H 0.20494 0.05315 0.23232 0.0
H1494 H 0.20831 0.05712 0.26557 0.0
H1495 H 0.23447 0.04704 0.24744 0.0
H1496 H 0.22267 0.04164 0.35267 0.0
H1497 H 0.29026 0.01654 0.31706 0.0
H1498 H 0.18119 0.01135 0.31805 0.0
H1499 H 0.18309 0.03914 0.29813 0.0
H1500 H 0.18406 0.04329 0.33148 0.0
H1501 H 0.26757 0.98174 0.2721 0.0
H1502 H 0.29105 0.00726 0.27348 0.0
H1503 H 0.26317 0.01096 0.25475 0.0
C1504 C 0.84666 0.62229 0.8964 0.0
C1505 C 0.83045 0.60959 0.87959 0.0
C1506 C 0.84 0.64574 0.90762 0.0
C1507 C 0.81641 0.65659 0.90219 0.0
C1508 C 0.79943 0.64322 0.88626 0.0
C1509 C 0.80672 0.61997 0.87497 0.0
C1510 C 0.85861 0.6594 0.92459 0.0
C1511 C 0.77378 0.65377 0.88074 0.0
C1512 C 0.79687 0.70984 0.94656 0.0
C1513 C 0.80455 0.73221 0.9335 0.0
C1514 C 0.79929 0.68509 0.93607 0.0
C1515 C 0.81024 0.68262 0.91219 0.0
C1516 C 0.81705 0.70518 0.8985 0.0
C1517 C 0.81392 0.72972 0.90924 0.0
C1518 C 0.79122 0.66168 0.95118 0.0
C1519 C 0.82883 0.70336 0.87298 0.0
H1520 H 0.86505 0.61446 0.90003 0.0
H1521 H 0.79396 0.61011 0.86222 0.0
H1522 H 0.86389 0.67863 0.91666 0.0
H1523 H 0.84993 0.66285 0.94305 0.0
H1524 H 0.87596 0.64813 0.92732 0.0
H1525 H 0.76213 0.64015 0.86937 0.0
H1526 H 0.76374 0.65779 0.89839 0.0
H1527 H 0.77575 0.67242 0.87055 0.0
H1528 H 0.78936 0.7116 0.96526 0.0
H1529 H 0.81995 0.74691 0.89906 0.0
H1530 H 0.78373 0.64582 0.93919 0.0
H1531 H 0.77662 0.66674 0.96504 0.0
H1532 H 0.80768 0.65425 0.96143 0.0
H1533 H 0.84729 0.69387 0.87448 0.0
H1534 H 0.83171 0.7227 0.8642 0.0
H1535 H 0.81687 0.69119 0.86054 0.0
C1536 C 0.8859 0.71028 0.51214 0.0
C1537 C 0.87247 0.68695 0.51572 0.0
C1538 C 0.91126 0.71261 0.51883 0.0
C1539 C 0.92376 0.6908 0.52855 0.0
C1540 C 0.91075 0.66665 0.53047 0.0
C1541 C 0.88506 0.66514 0.52452 0.0
C1542 C 0.92418 0.7389 0.51702 0.0
C1543 C 0.92365 0.64271 0.53975 0.0
C1544 C 0.99402 0.70334 0.53218 0.0
C1545 C 0.99663 0.71175 0.55691 0.0
C1546 C 0.97074 0.69412 0.52316 0.0
C1547 C 0.94948 0.69431 0.53899 0.0
C1548 C 0.95241 0.70134 0.56435 0.0
C1549 C 0.97605 0.70957 0.57308 0.0
C1550 C 0.96862 0.68567 0.49632 0.0
C1551 C 0.93019 0.70236 0.58178 0.0
H1552 H 0.87616 0.72724 0.50556 0.0
H1553 H 0.87471 0.64702 0.52712 0.0
H1554 H 0.92971 0.74565 0.53591 0.0
H1555 H 0.94157 0.73759 0.50579 0.0
H1556 H 0.912 0.75371 0.50848 0.0
H1557 H 0.91256 0.62476 0.5356 0.0
H1558 H 0.94253 0.64111 0.53122 0.0
H1559 H 0.92624 0.64402 0.56021 0.0
H1560 H 0.00998 0.70476 0.51969 0.0
H1561 H 0.97793 0.71621 0.59217 0.0
H1562 H 0.95974 0.70117 0.48525 0.0
H1563 H 0.95656 0.66796 0.49467 0.0
H1564 H 0.98729 0.68174 0.48807 0.0
H1565 H 0.91731 0.71774 0.57553 0.0
H1566 H 0.93589 0.70656 0.6013 0.0
H1567 H 0.91946 0.68373 0.58145 0.0
C1568 C 0.01623 0.23539 0.91847 0.0
C1569 C 0.99498 0.23894 0.9333 0.0
C1570 C 0.03792 0.2244 0.92838 0.0
C1571 C 0.038 0.21595 0.9535 0.0
C1572 C 0.01593 0.21786 0.96804 0.0
C1573 C 0.99478 0.22985 0.95789 0.0
C1574 C 0.0612 0.22333 0.91236 0.0
C1575 C 0.01492 0.20813 0.99454 0.0
C1576 C 0.09567 0.17646 0.96723 0.0
C1577 C 0.11197 0.19559 0.97696 0.0
C1578 C 0.07059 0.18212 0.96161 0.0
C1579 C 0.06203 0.20773 0.96492 0.0
C1580 C 0.07799 0.22663 0.97617 0.0
C1581 C 0.10262 0.22019 0.98243 0.0
C1582 C 0.05379 0.16114 0.9507 0.0
C1583 C 0.06987 0.25434 0.97953 0.0
H1584 H 0.0164 0.24258 0.89949 0.0
H1585 H 0.97816 0.2323 0.96921 0.0
H1586 H 0.07633 0.23562 0.92072 0.0
H1587 H 0.06814 0.20322 0.9115 0.0
H1588 H 0.05781 0.23017 0.89305 0.0
H1589 H 0.99535 0.20679 0.00166 0.0
H1590 H 0.02352 0.18875 0.99595 0.0
H1591 H 0.02581 0.22154 0.00676 0.0
H1592 H 0.10276 0.15734 0.96318 0.0
H1593 H 0.11515 0.23513 0.9898 0.0
H1594 H 0.05225 0.16397 0.93028 0.0
H1595 H 0.03459 0.16208 0.95863 0.0
H1596 H 0.06129 0.1415 0.95414 0.0
H1597 H 0.06735 0.26346 0.96099 0.0
H1598 H 0.08382 0.26615 0.99021 0.0
H1599 H 0.05158 0.25496 0.98932 0.0
C1600 C 0.85267 0.12703 0.39931 0.0
C1601 C 0.86149 0.14034 0.42043 0.0
C1602 C 0.83455 0.10711 0.4013 0.0
C1603 C 0.82442 0.10078 0.42495 0.0
C1604 C 0.83313 0.11423 0.4464 0.0
C1605 C 0.85194 0.13363 0.44393 0.0
C1606 C 0.8262 0.0929 0.378 0.0
C1607 C 0.82224 0.10848 0.47179 0.0
C1608 C 0.76011 0.06906 0.41937 0.0
C1609 C 0.76533 0.04267 0.42257 0.0
C1610 C 0.77887 0.08827 0.42194 0.0
C1611 C 0.80384 0.08095 0.4267 0.0
C1612 C 0.80933 0.05442 0.4303 0.0
C1613 C 0.78994 0.03561 0.42848 0.0
C1614 C 0.77208 0.11637 0.41849 0.0
C1615 C 0.83587 0.04579 0.43469 0.0
H1616 H 0.86037 0.13183 0.38115 0.0
H1617 H 0.8588 0.14389 0.46027 0.0
H1618 H 0.82803 0.07166 0.38057 0.0
H1619 H 0.80612 0.09667 0.37429 0.0
H1620 H 0.83727 0.09891 0.36137 0.0
H1621 H 0.83119 0.12049 0.48663 0.0
H1622 H 0.80178 0.11215 0.4717 0.0
H1623 H 0.82459 0.08771 0.47646 0.0
H1624 H 0.74137 0.07486 0.41428 0.0
H1625 H 0.79429 0.01529 0.43077 0.0
H1626 H 0.78016 0.12377 0.40076 0.0
H1627 H 0.78011 0.12839 0.43379 0.0
H1628 H 0.75145 0.11905 0.41801 0.0
H1629 H 0.84725 0.04953 0.41771 0.0
H1630 H 0.83673 0.02481 0.43926 0.0
H1631 H 0.84466 0.05709 0.45007 0.0
C1632 C 0.55626 0.61335 0.65698 0.0
C1633 C 0.56309 0.63813 0.66559 0.0
C1634 C 0.55546 0.59208 0.67331 0.0
C1635 C 0.56092 0.59599 0.69889 0.0
C1636 C 0.5648 0.6215 0.70806 0.0
C1637 C 0.5663 0.64226 0.6912 0.0
C1638 C 0.55174 0.56519 0.66262 0.0
C1639 C 0.56979 0.62663 0.73531 0.0
C1640 C 0.55539 0.5371 0.74153 0.0
C1641 C 0.58051 0.52974 0.74311 0.0
C1642 C 0.54864 0.55919 0.72789 0.0
C1643 C 0.56739 0.57345 0.71477 0.0
C1644 C 0.59279 0.56585 0.71623 0.0
C1645 C 0.59906 0.54439 0.73078 0.0
C1646 C 0.52159 0.56733 0.72763 0.0
C1647 C 0.61332 0.57998 0.70193 0.0
H1648 H 0.55405 0.61009 0.63713 0.0
H1649 H 0.57151 0.66148 0.69787 0.0
H1650 H 0.57011 0.55541 0.66196 0.0
H1651 H 0.53903 0.55326 0.67452 0.0
H1652 H 0.54392 0.56569 0.64345 0.0
H1653 H 0.56699 0.64732 0.74016 0.0
H1654 H 0.55737 0.61432 0.74719 0.0
H1655 H 0.58949 0.62178 0.73974 0.0
H1656 H 0.54111 0.52571 0.75115 0.0
H1657 H 0.61846 0.53845 0.73175 0.0
H1658 H 0.51451 0.56822 0.70823 0.0
H1659 H 0.52017 0.58712 0.73559 0.0
H1660 H 0.50924 0.5539 0.7385 0.0
H1661 H 0.60867 0.58029 0.68178 0.0
H1662 H 0.6319 0.57086 0.70426 0.0
H1663 H 0.6149 0.60041 0.70829 0.0
C1664 C 0.49732 0.72304 0.08385 0.0
C1665 C 0.51882 0.72666 0.06918 0.0
C1666 C 0.47448 0.715 0.07313 0.0
C1667 C 0.47339 0.70955 0.04726 0.0
C1668 C 0.49561 0.71096 0.03281 0.0
C1669 C 0.51801 0.72008 0.04385 0.0
C1670 C 0.45116 0.71433 0.08916 0.0
C1671 C 0.4955 0.7041 0.00549 0.0
C1672 C 0.41041 0.67917 0.03043 0.0
C1673 C 0.39715 0.70112 0.02309 0.0
C1674 C 0.43616 0.68102 0.03595 0.0
C1675 C 0.44848 0.70559 0.03519 0.0
C1676 C 0.4355 0.72742 0.02618 0.0
C1677 C 0.41007 0.72477 0.01979 0.0
C1678 C 0.44965 0.65705 0.04424 0.0
C1679 C 0.44768 0.75412 0.0256 0.0
H1680 H 0.49789 0.72833 0.10339 0.0
H1681 H 0.53473 0.7227 0.03254 0.0
H1682 H 0.43781 0.72903 0.0824 0.0
H1683 H 0.44157 0.69511 0.08782 0.0
H1684 H 0.45537 0.71835 0.10907 0.0
H1685 H 0.51478 0.70098 0.99834 0.0
H1686 H 0.48392 0.68632 0.00208 0.0
H1687 H 0.48714 0.72009 0.99467 0.0
H1688 H 0.40042 0.66081 0.03283 0.0
H1689 H 0.39979 0.74182 0.01434 0.0
H1690 H 0.45107 0.65688 0.06484 0.0
H1691 H 0.46902 0.65687 0.03662 0.0
H1692 H 0.43951 0.63905 0.03831 0.0
H1693 H 0.45172 0.76061 0.04493 0.0
H1694 H 0.43555 0.76868 0.01657 0.0
H1695 H 0.46581 0.7537 0.0155 0.0
C1696 C 0.50254 0.77334 0.42858 0.0
C1697 C 0.5232 0.76907 0.44403 0.0
C1698 C 0.48132 0.78594 0.43758 0.0
C1699 C 0.48119 0.7954 0.46238 0.0
C1700 C 0.50281 0.79279 0.47748 0.0
C1701 C 0.5234 0.77908 0.4683 0.0
C1702 C 0.45847 0.78762 0.42102 0.0
C1703 C 0.50387 0.8036 0.50358 0.0
C1704 C 0.42481 0.8378 0.47228 0.0
C1705 C 0.40742 0.81972 0.48204 0.0
C1706 C 0.4499 0.83098 0.46815 0.0
C1707 C 0.45736 0.80524 0.47294 0.0
C1708 C 0.44033 0.78755 0.48444 0.0
C1709 C 0.41571 0.79518 0.48926 0.0
C1710 C 0.46788 0.85079 0.45709 0.0
C1711 C 0.44725 0.75973 0.48938 0.0
H1712 H 0.50236 0.76542 0.40987 0.0
H1713 H 0.53956 0.77598 0.48013 0.0
H1714 H 0.44252 0.77669 0.42958 0.0
H1715 H 0.45274 0.80807 0.41908 0.0
H1716 H 0.46182 0.77962 0.40212 0.0
H1717 H 0.52346 0.80507 0.51062 0.0
H1718 H 0.49539 0.82308 0.50433 0.0
H1719 H 0.49298 0.79071 0.5163 0.0
H1720 H 0.41857 0.8569 0.46692 0.0
H1721 H 0.40238 0.78105 0.49672 0.0
H1722 H 0.46982 0.84723 0.43682 0.0
H1723 H 0.48679 0.84923 0.46559 0.0
H1724 H 0.46116 0.87088 0.45973 0.0
H1725 H 0.44999 0.74956 0.47138 0.0
H1726 H 0.43253 0.74904 0.50013 0.0
H1727 H 0.46516 0.75887 0.49981 0.0
C1728 C 0.74113 0.93176 0.90117 0.0
C1729 C 0.739 0.9535 0.91659 0.0
C1730 C 0.72407 0.91088 0.90297 0.0
C1731 C 0.7045 0.91175 0.92075 0.0
C1732 C 0.70218 0.93372 0.93634 0.0
C1733 C 0.71941 0.95454 0.93393 0.0
C1734 C 0.72713 0.88781 0.88596 0.0
C1735 C 0.68177 0.93503 0.95577 0.0
C1736 C 0.64942 0.86732 0.90551 0.0
C1737 C 0.6554 0.84512 0.91905 0.0
C1738 C 0.66464 0.8897 0.90684 0.0
C1739 C 0.68617 0.88979 0.92231 0.0
C1740 C 0.69149 0.86774 0.93707 0.0
C1741 C 0.67612 0.8454 0.93499 0.0
C1742 C 0.65854 0.91261 0.89053 0.0
C1743 C 0.71417 0.86707 0.95389 0.0
H1744 H 0.75628 0.93103 0.88771 0.0
H1745 H 0.71799 0.97127 0.94604 0.0
H1746 H 0.73024 0.8701 0.8972 0.0
H1747 H 0.70975 0.88446 0.87494 0.0
H1748 H 0.74315 0.89043 0.8729 0.0
H1749 H 0.68261 0.95345 0.96649 0.0
H1750 H 0.66308 0.93316 0.94678 0.0
H1751 H 0.68346 0.91856 0.96894 0.0
H1752 H 0.6334 0.86674 0.89302 0.0
H1753 H 0.68064 0.828 0.94528 0.0
H1754 H 0.67329 0.91514 0.87608 0.0
H1755 H 0.65835 0.93069 0.90173 0.0
H1756 H 0.6401 0.91015 0.88107 0.0
H1757 H 0.73097 0.86267 0.94259 0.0
H1758 H 0.7121 0.85183 0.96842 0.0
H1759 H 0.71757 0.88607 0.96314 0.0
C1760 C 0.75582 0.4556 0.65286 0.0
C1761 C 0.74842 0.44544 0.62968 0.0
C1762 C 0.74066 0.452 0.67406 0.0
C1763 C 0.71747 0.43826 0.67189 0.0
C1764 C 0.71119 0.42583 0.64919 0.0
C1765 C 0.72686 0.42934 0.62845 0.0
C1766 C 0.74841 0.46488 0.69818 0.0
C1767 C 0.68663 0.41107 0.64598 0.0
C1768 C 0.67561 0.42498 0.72828 0.0
C1769 C 0.65973 0.44625 0.72722 0.0
C1770 C 0.69486 0.42213 0.71058 0.0
C1771 C 0.69792 0.44092 0.69147 0.0
C1772 C 0.6817 0.46237 0.69048 0.0
C1773 C 0.66292 0.46482 0.70849 0.0
C1774 C 0.71202 0.39926 0.71241 0.0
C1775 C 0.68413 0.48277 0.67035 0.0
H1776 H 0.77262 0.4677 0.65418 0.0
H1777 H 0.72109 0.42097 0.61078 0.0
H1778 H 0.73765 0.48291 0.70067 0.0
H1779 H 0.74418 0.45206 0.7143 0.0
H1780 H 0.76875 0.47009 0.69834 0.0
H1781 H 0.68635 0.39921 0.6287 0.0
H1782 H 0.68289 0.39813 0.66211 0.0
H1783 H 0.67108 0.42504 0.64497 0.0
H1784 H 0.6732 0.41088 0.74312 0.0
H1785 H 0.65065 0.48138 0.70802 0.0
H1786 H 0.73177 0.4062 0.71432 0.0
H1787 H 0.71088 0.38755 0.6951 0.0
H1788 H 0.70729 0.38653 0.7285 0.0
H1789 H 0.703 0.49221 0.67118 0.0
H1790 H 0.66978 0.49802 0.6721 0.0
H1791 H 0.68218 0.47359 0.65173 0.0
C1792 C 0.34821 0.89888 0.10765 0.0
C1793 C 0.37389 0.90445 0.10422 0.0
C1794 C 0.33709 0.87615 0.0979 0.0
C1795 C 0.35208 0.85843 0.08474 0.0
C1796 C 0.3777 0.86457 0.08015 0.0
C1797 C 0.38825 0.8876 0.08979 0.0
C1798 C 0.30958 0.87058 0.10262 0.0
C1799 C 0.39427 0.84621 0.06602 0.0
C1800 C 0.33583 0.78641 0.08442 0.0
C1801 C 0.32717 0.7828 0.05998 0.0
C1802 C 0.3431 0.81116 0.09303 0.0
C1803 C 0.34154 0.8328 0.07686 0.0
C1804 C 0.33163 0.82948 0.05261 0.0
C1805 C 0.32443 0.80456 0.04452 0.0
C1806 C 0.35372 0.81392 0.119 0.0
C1807 C 0.32926 0.85207 0.03491 0.0
H1808 H 0.33693 0.9119 0.11865 0.0
H1809 H 0.40812 0.89165 0.08716 0.0
H1810 H 0.29989 0.86563 0.08491 0.0
H1811 H 0.30745 0.85356 0.11515 0.0
H1812 H 0.30007 0.8873 0.11132 0.0
H1813 H 0.39567 0.82768 0.07641 0.0
H1814 H 0.3859 0.84163 0.04758 0.0
H1815 H 0.41351 0.85434 0.06312 0.0
H1816 H 0.33806 0.76975 0.09648 0.0
H1817 H 0.31738 0.80204 0.02571 0.0
H1818 H 0.34383 0.82931 0.12933 0.0
H1819 H 0.37382 0.81986 0.11791 0.0
H1820 H 0.35217 0.79556 0.12978 0.0
H1821 H 0.31408 0.86484 0.04144 0.0
H1822 H 0.32482 0.84558 0.01568 0.0
H1823 H 0.34687 0.8639 0.03439 0.0
C1824 C 0.32069 0.5597 0.73978 0.0
C1825 C 0.34538 0.55515 0.73216 0.0
C1826 C 0.3015 0.563 0.72221 0.0
C1827 C 0.30702 0.56047 0.69654 0.0
C1828 C 0.33224 0.55745 0.68879 0.0
C1829 C 0.35121 0.55529 0.70675 0.0
C1830 C 0.27509 0.56744 0.73121 0.0
C1831 C 0.33891 0.55402 0.66166 0.0
C1832 C 0.25958 0.52722 0.65428 0.0
C1833 C 0.25356 0.54726 0.63784 0.0
C1834 C 0.27622 0.53156 0.6741 0.0
C1835 C 0.28638 0.55682 0.67814 0.0
C1836 C 0.27863 0.57761 0.6629 0.0
C1837 C 0.26271 0.57248 0.64253 0.0
C1838 C 0.28438 0.50867 0.68951 0.0
C1839 C 0.28808 0.605 0.66733 0.0
H1840 H 0.31623 0.55971 0.75949 0.0
H1841 H 0.37027 0.5515 0.70088 0.0
H1842 H 0.26545 0.58152 0.71904 0.0
H1843 H 0.26418 0.54891 0.73058 0.0
H1844 H 0.27486 0.57473 0.75068 0.0
H1845 H 0.35952 0.5537 0.65861 0.0
H1846 H 0.33057 0.53547 0.65474 0.0
H1847 H 0.33102 0.56985 0.6503 0.0
H1848 H 0.25278 0.50764 0.65055 0.0
H1849 H 0.258 0.58804 0.62988 0.0
H1850 H 0.28114 0.51241 0.70957 0.0
H1851 H 0.30482 0.50576 0.68697 0.0
H1852 H 0.27425 0.49043 0.68431 0.0
H1853 H 0.28826 0.60958 0.68754 0.0
H1854 H 0.2764 0.61942 0.65752 0.0
H1855 H 0.30762 0.60712 0.66041 0.0
C1856 C 0.61188 0.10301 0.0843 0.0
C1857 C 0.6295 0.08802 0.09689 0.0
C1858 C 0.61917 0.12628 0.07257 0.0
C1859 C 0.64476 0.13423 0.07284 0.0
C1860 C 0.66292 0.11767 0.08313 0.0
C1861 C 0.65502 0.09503 0.09564 0.0
C1862 C 0.59925 0.14333 0.06163 0.0
C1863 C 0.69049 0.12474 0.08225 0.0
C1864 C 0.66366 0.1923 0.03295 0.0
C1865 C 0.66299 0.21269 0.05034 0.0
C1866 C 0.65806 0.16661 0.03996 0.0
C1867 C 0.65204 0.16104 0.06506 0.0
C1868 C 0.65216 0.18135 0.08288 0.0
C1869 C 0.65764 0.20691 0.07532 0.0
C1870 C 0.65855 0.14558 0.02039 0.0
C1871 C 0.64581 0.17616 0.10987 0.0
H1872 H 0.5921 0.09781 0.08558 0.0
H1873 H 0.66864 0.08345 0.10544 0.0
H1874 H 0.59757 0.1611 0.07314 0.0
H1875 H 0.60459 0.14955 0.04254 0.0
H1876 H 0.58059 0.13335 0.06087 0.0
H1877 H 0.70234 0.10828 0.08793 0.0
H1878 H 0.69599 0.13081 0.06316 0.0
H1879 H 0.69435 0.14146 0.09477 0.0
H1880 H 0.66811 0.19641 0.01363 0.0
H1881 H 0.65707 0.22245 0.0889 0.0
H1882 H 0.6427 0.13153 0.02275 0.0
H1883 H 0.67622 0.1347 0.02222 0.0
H1884 H 0.65771 0.15373 0.00127 0.0
H1885 H 0.6265 0.16781 0.11132 0.0
H1886 H 0.64698 0.19401 0.12144 0.0
H1887 H 0.65881 0.16171 0.11771 0.0
C1888 C 0.47177 0.2872 0.03202 0.0
C1889 C 0.46986 0.27938 0.05697 0.0
C1890 C 0.49503 0.29506 0.02186 0.0
C1891 C 0.51689 0.29403 0.0368 0.0
C1892 C 0.51478 0.28725 0.06231 0.0
C1893 C 0.49121 0.28045 0.07216 0.0
C1894 C 0.49631 0.30331 0.99492 0.0
C1895 C 0.53764 0.2854 0.07885 0.0
C1896 C 0.58034 0.27698 0.01066 0.0
C1897 C 0.59422 0.29971 0.01573 0.0
C1898 C 0.55457 0.27537 0.01589 0.0
C1899 C 0.5423 0.29733 0.0256 0.0
C1900 C 0.55574 0.32115 0.02812 0.0
C1901 C 0.58171 0.32192 0.02365 0.0
C1902 C 0.54113 0.24943 0.01338 0.0
C1903 C 0.54312 0.3453 0.03728 0.0
H1904 H 0.4552 0.28664 0.02031 0.0
H1905 H 0.48982 0.27421 0.09142 0.0
H1906 H 0.50907 0.32042 0.99264 0.0
H1907 H 0.50392 0.28734 0.98353 0.0
H1908 H 0.4775 0.30813 0.9875 0.0
H1909 H 0.53268 0.28038 0.09839 0.0
H1910 H 0.55029 0.27034 0.07151 0.0
H1911 H 0.54833 0.30407 0.07888 0.0
H1912 H 0.59004 0.25972 0.00476 0.0
H1913 H 0.59244 0.33958 0.02742 0.0
H1914 H 0.52326 0.25152 0.00307 0.0
H1915 H 0.53641 0.24183 0.03219 0.0
H1916 H 0.55272 0.23491 0.00362 0.0
H1917 H 0.52419 0.34707 0.0289 0.0
H1918 H 0.55441 0.36307 0.0329 0.0
H1919 H 0.54074 0.3442 0.05778 0.0
C1920 C 0.48658 0.33492 0.37852 0.0
C1921 C 0.46799 0.32041 0.36608 0.0
C1922 C 0.50447 0.34959 0.36526 0.0
C1923 C 0.50328 0.35038 0.33888 0.0
C1924 C 0.48394 0.33656 0.32622 0.0
C1925 C 0.46673 0.32135 0.33998 0.0
C1926 C 0.52506 0.36368 0.37953 0.0
C1927 C 0.48157 0.33768 0.29822 0.0
C1928 C 0.54308 0.40737 0.31845 0.0
C1929 C 0.56617 0.39541 0.3148 0.0
C1930 C 0.52126 0.39252 0.32307 0.0
C1931 C 0.52296 0.36523 0.32502 0.0
C1932 C 0.5457 0.35301 0.31866 0.0
C1933 C 0.56704 0.36835 0.31323 0.0
C1934 C 0.49715 0.40625 0.32874 0.0
C1935 C 0.54852 0.32403 0.32093 0.0
H1936 H 0.48773 0.33403 0.39867 0.0
H1937 H 0.45223 0.31023 0.33034 0.0
H1938 H 0.54371 0.3573 0.37297 0.0
H1939 H 0.52407 0.38486 0.37616 0.0
H1940 H 0.5238 0.36023 0.39992 0.0
H1941 H 0.46432 0.32748 0.29142 0.0
H1942 H 0.48126 0.35817 0.29191 0.0
H1943 H 0.49808 0.32865 0.28942 0.0
H1944 H 0.54248 0.42836 0.31968 0.0
H1945 H 0.58501 0.35915 0.31073 0.0
H1946 H 0.49471 0.40762 0.34921 0.0
H1947 H 0.48073 0.39531 0.32113 0.0
H1948 H 0.49732 0.42623 0.32097 0.0
H1949 H 0.55012 0.31882 0.34093 0.0
H1950 H 0.56556 0.31724 0.31115 0.0
H1951 H 0.53188 0.31349 0.31334 0.0
C1952 C 0.41271 0.18326 0.80964 0.0
C1953 C 0.41294 0.17417 0.83423 0.0
C1954 C 0.41047 0.16596 0.78958 0.0
C1955 C 0.40762 0.13906 0.7944 0.0
C1956 C 0.41042 0.12968 0.81905 0.0
C1957 C 0.41337 0.14743 0.83872 0.0
C1958 C 0.4083 0.17676 0.76355 0.0
C1959 C 0.40704 0.10124 0.82514 0.0
C1960 C 0.35956 0.10461 0.75357 0.0
C1961 C 0.37461 0.08924 0.73837 0.0
C1962 C 0.37018 0.12057 0.77201 0.0
C1963 C 0.39661 0.1218 0.77489 0.0
C1964 C 0.412 0.10669 0.7593 0.0
C1965 C 0.40077 0.09022 0.74142 0.0
C1966 C 0.35298 0.13588 0.78865 0.0
C1967 C 0.44024 0.10804 0.76142 0.0
H1968 H 0.41235 0.20399 0.8062 0.0
H1969 H 0.41319 0.14041 0.85776 0.0
H1970 H 0.41802 0.16428 0.74992 0.0
H1971 H 0.38821 0.17734 0.75817 0.0
H1972 H 0.41626 0.1968 0.76228 0.0
H1973 H 0.41453 0.09656 0.84389 0.0
H1974 H 0.38671 0.09609 0.82487 0.0
H1975 H 0.4164 0.08895 0.81113 0.0
H1976 H 0.33932 0.10363 0.7515 0.0
H1977 H 0.41244 0.07838 0.72962 0.0
H1978 H 0.35675 0.15696 0.7862 0.0
H1979 H 0.35659 0.13115 0.80848 0.0
H1980 H 0.33282 0.13187 0.78462 0.0
H1981 H 0.44701 0.12831 0.75852 0.0
H1982 H 0.44956 0.09532 0.74766 0.0
H1983 H 0.44612 0.10223 0.78041 0.0
C1984 C 0.95072 0.46017 0.24075 0.0
C1985 C 0.92491 0.46362 0.24437 0.0
C1986 C 0.95944 0.44071 0.22476 0.0
C1987 C 0.94189 0.42501 0.21153 0.0
C1988 C 0.91582 0.42838 0.2153 0.0
C1989 C 0.90769 0.44738 0.23194 0.0
C1990 C 0.98734 0.43717 0.22185 0.0
C1991 C 0.89642 0.41233 0.20129 0.0
C1992 C 0.95381 0.39252 0.14969 0.0
C1993 C 0.95171 0.36635 0.15653 0.0
C1994 C 0.95281 0.41216 0.16776 0.0
C1995 C 0.95025 0.40532 0.19322 0.0
C1996 C 0.95116 0.37892 0.20033 0.0
C1997 C 0.9515 0.3597 0.18186 0.0
C1998 C 0.95164 0.44005 0.15933 0.0
C1999 C 0.94936 0.37081 0.2273 0.0
H2000 H 0.96408 0.47264 0.25047 0.0
H2001 H 0.88773 0.45015 0.23452 0.0
H2002 H 0.99207 0.41645 0.22422 0.0
H2003 H 0.99323 0.44297 0.2028 0.0
H2004 H 0.99836 0.44893 0.23549 0.0
H2005 H 0.87691 0.41783 0.20595 0.0
H2006 H 0.8992 0.41474 0.18092 0.0
H2007 H 0.8986 0.39147 0.20564 0.0
H2008 H 0.9538 0.39772 0.13011 0.0
H2009 H 0.95007 0.33943 0.18718 0.0
H2010 H 0.96361 0.45277 0.17123 0.0
H2011 H 0.93205 0.44678 0.16107 0.0
H2012 H 0.95763 0.44244 0.13963 0.0
H2013 H 0.96095 0.38386 0.23927 0.0
H2014 H 0.95547 0.35052 0.23006 0.0
H2015 H 0.9296 0.37213 0.23362 0.0
C2016 C 0.04037 0.0841 0.62642 0.0
C2017 C 0.06544 0.09034 0.621 0.0
C2018 C 0.02382 0.10351 0.63367 0.0
C2019 C 0.03245 0.12964 0.63396 0.0
C2020 C 0.05856 0.13518 0.63258 0.0
C2021 C 0.07491 0.11523 0.62623 0.0
C2022 C 0.99642 0.09657 0.6369 0.0
C2023 C 0.06872 0.16268 0.63338 0.0
C2024 C 0.99291 0.17265 0.59359 0.0
C2025 C 0.98173 0.18909 0.61096 0.0
C2026 C 0.0094 0.15346 0.60105 0.0
C2027 C 0.01469 0.15017 0.62672 0.0
C2028 C 0.00324 0.1664 0.64453 0.0
C2029 C 0.98694 0.18587 0.6364 0.0
C2030 C 0.02134 0.13686 0.5812 0.0
C2031 C 0.00763 0.16293 0.67208 0.0
H2032 H 0.03318 0.06468 0.6226 0.0
H2033 H 0.0944 0.11993 0.62205 0.0
H2034 H 0.98694 0.11054 0.64931 0.0
H2035 H 0.98701 0.09692 0.61846 0.0
H2036 H 0.99408 0.07676 0.6448 0.0
H2037 H 0.08905 0.1633 0.638 0.0
H2038 H 0.06625 0.17175 0.61481 0.0
H2039 H 0.05846 0.17444 0.6472 0.0
H2040 H 0.98924 0.17515 0.57388 0.0
H2041 H 0.9782 0.19842 0.64993 0.0
H2042 H 0.0153 0.1163 0.5836 0.0
H2043 H 0.04209 0.13786 0.58284 0.0
H2044 H 0.01619 0.14297 0.56205 0.0
H2045 H 0.9957 0.14652 0.67887 0.0
H2046 H 0.00263 0.18055 0.68277 0.0
H2047 H 0.02743 0.15818 0.6761 0.0
C2048 C 0.64128 0.89124 0.75251 0.0
C2049 C 0.62552 0.90617 0.73761 0.0
C2050 C 0.63152 0.87547 0.77156 0.0
C2051 C 0.60521 0.87399 0.7754 0.0
C2052 C 0.58909 0.88852 0.76002 0.0
C2053 C 0.59949 0.90481 0.74152 0.0
C2054 C 0.64947 0.86073 0.78786 0.0
C2055 C 0.56095 0.88679 0.76308 0.0
C2056 C 0.59056 0.81363 0.81268 0.0
C2057 C 0.59024 0.82367 0.8369 0.0
C2058 C 0.59237 0.8302 0.792 0.0
C2059 C 0.59511 0.85729 0.79582 0.0
C2060 C 0.59277 0.86757 0.82018 0.0
C2061 C 0.58996 0.85057 0.84046 0.0
C2062 C 0.5938 0.8185 0.76629 0.0
C2063 C 0.59625 0.89622 0.82525 0.0
H2064 H 0.66143 0.89246 0.74976 0.0
H2065 H 0.58725 0.91627 0.72993 0.0
H2066 H 0.64643 0.86572 0.80773 0.0
H2067 H 0.64595 0.83955 0.78583 0.0
H2068 H 0.66943 0.86498 0.78313 0.0
H2069 H 0.55099 0.89865 0.74906 0.0
H2070 H 0.55443 0.8663 0.76131 0.0
H2071 H 0.55559 0.89345 0.78195 0.0
H2072 H 0.59092 0.79278 0.81 0.0
H2073 H 0.59019 0.85828 0.85926 0.0
H2074 H 0.6137 0.81799 0.76027 0.0
H2075 H 0.58348 0.83039 0.75259 0.0
H2076 H 0.58597 0.79838 0.76594 0.0
H2077 H 0.61649 0.90151 0.82372 0.0
H2078 H 0.58974 0.90152 0.8442 0.0
H2079 H 0.58603 0.90794 0.81137 0.0
C2080 C 0.43276 0.62934 0.31325 0.0
C2081 C 0.4331 0.60223 0.31418 0.0
C2082 C 0.45437 0.64406 0.31915 0.0
C2083 C 0.47675 0.63115 0.32539 0.0
C2084 C 0.47806 0.60397 0.32225 0.0
C2085 C 0.45599 0.58969 0.31719 0.0
C2086 C 0.45221 0.67303 0.32213 0.0
C2087 C 0.50201 0.58972 0.32722 0.0
C2088 C 0.53248 0.67366 0.34505 0.0
C2089 C 0.5301 0.67299 0.37109 0.0
C2090 C 0.51597 0.6593 0.32973 0.0
C2091 C 0.49607 0.6448 0.34077 0.0
C2092 C 0.49382 0.64386 0.3671 0.0
C2093 C 0.5111 0.65765 0.3819 0.0
C2094 C 0.51961 0.66029 0.30186 0.0
C2095 C 0.47268 0.6289 0.37972 0.0
H2096 H 0.41497 0.63899 0.31107 0.0
H2097 H 0.4562 0.56866 0.31781 0.0
H2098 H 0.45162 0.67789 0.34227 0.0
H2099 H 0.46876 0.68325 0.31398 0.0
H2100 H 0.43496 0.68043 0.3132 0.0
H2101 H 0.50134 0.56983 0.31924 0.0
H2102 H 0.51837 0.60052 0.3193 0.0
H2103 H 0.50496 0.58814 0.34761 0.0
H2104 H 0.54729 0.68543 0.33661 0.0
H2105 H 0.50911 0.65725 0.402 0.0
H2106 H 0.50797 0.67588 0.29396 0.0
H2107 H 0.51388 0.64172 0.29287 0.0
H2108 H 0.53949 0.66477 0.29697 0.0
H2109 H 0.4543 0.63562 0.37277 0.0
H2110 H 0.47305 0.63112 0.4003 0.0
H2111 H 0.47392 0.60795 0.37527 0.0
C2112 C 0.72611 0.55634 0.56822 0.0
C2113 C 0.72061 0.53142 0.55894 0.0
C2114 C 0.70782 0.57535 0.5693 0.0
C2115 C 0.68306 0.5692 0.56156 0.0
C2116 C 0.67735 0.54435 0.55156 0.0
C2117 C 0.69627 0.52573 0.55024 0.0
C2118 C 0.71483 0.6017 0.57986 0.0
C2119 C 0.65104 0.53703 0.54347 0.0
C2120 C 0.63757 0.60912 0.59818 0.0
C2121 C 0.63262 0.62924 0.58151 0.0
C2122 C 0.6523 0.58823 0.59109 0.0
C2123 C 0.66296 0.58791 0.56694 0.0
C2124 C 0.65709 0.60766 0.54962 0.0
C2125 C 0.64161 0.62805 0.55706 0.0
C2126 C 0.6577 0.56737 0.61002 0.0
C2127 C 0.66848 0.60816 0.52389 0.0
H2128 H 0.74473 0.561 0.57523 0.0
H2129 H 0.69179 0.50653 0.54309 0.0
H2130 H 0.70811 0.61731 0.56745 0.0
H2131 H 0.70566 0.60419 0.59824 0.0
H2132 H 0.73543 0.60428 0.58235 0.0
H2133 H 0.65033 0.51832 0.5332 0.0
H2134 H 0.63878 0.53522 0.56012 0.0
H2135 H 0.64315 0.55237 0.53146 0.0
H2136 H 0.63018 0.60997 0.61699 0.0
H2137 H 0.63764 0.64371 0.54424 0.0
H2138 H 0.67749 0.56931 0.61631 0.0
H2139 H 0.65526 0.54784 0.60158 0.0
H2140 H 0.64533 0.56861 0.62662 0.0
H2141 H 0.68884 0.6129 0.52531 0.0
H2142 H 0.65962 0.6228 0.51169 0.0
H2143 H 0.66662 0.58882 0.51496 0.0
C2144 C 0.00677 0.81785 0.64052 0.0
C2145 C 0.00809 0.81254 0.61492 0.0
C2146 C 0.99154 0.83784 0.64949 0.0
C2147 C 0.97735 0.8525 0.6324 0.0
C2148 C 0.97774 0.84614 0.60669 0.0
C2149 C 0.99317 0.8264 0.59836 0.0
C2150 C 0.99173 0.84387 0.67698 0.0
C2151 C 0.96246 0.86067 0.58765 0.0
C2152 C 0.92243 0.89503 0.63528 0.0
C2153 C 0.93401 0.91745 0.62557 0.0
C2154 C 0.93703 0.87398 0.64265 0.0
C2155 C 0.96345 0.87587 0.64009 0.0
C2156 C 0.97493 0.90043 0.63569 0.0
C2157 C 0.95998 0.92097 0.62798 0.0
C2158 C 0.92408 0.84851 0.64871 0.0
C2159 C 0.00306 0.90391 0.63451 0.0
H2160 H 0.01821 0.80701 0.6534 0.0
H2161 H 0.99365 0.82189 0.57863 0.0
H2162 H 0.00669 0.8586 0.68084 0.0
H2163 H 0.97361 0.85183 0.6833 0.0
H2164 H 0.99588 0.82631 0.68814 0.0
H2165 H 0.96402 0.85228 0.56866 0.0
H2166 H 0.94235 0.86035 0.59297 0.0
H2167 H 0.96893 0.88124 0.5868 0.0
H2168 H 0.90223 0.89247 0.6338 0.0
H2169 H 0.9688 0.93866 0.62107 0.0
H2170 H 0.93537 0.83696 0.66189 0.0
H2171 H 0.92165 0.83707 0.63132 0.0
H2172 H 0.9052 0.85161 0.65684 0.0
H2173 H 0.01279 0.88947 0.64617 0.0
H2174 H 0.00871 0.92366 0.64085 0.0
H2175 H 0.00934 0.90165 0.61492 0.0
C2176 C 0.04379 0.63539 0.17517 0.0
C2177 C 0.05597 0.62939 0.15287 0.0
C2178 C 0.04252 0.61728 0.19474 0.0
C2179 C 0.05479 0.59328 0.19218 0.0
C2180 C 0.06612 0.58682 0.16917 0.0
C2181 C 0.06626 0.60489 0.14966 0.0
C2182 C 0.02945 0.62452 0.21861 0.0
C2183 C 0.07997 0.56177 0.1658 0.0
C2184 C 0.08716 0.56195 0.24683 0.0
C2185 C 0.07288 0.539 0.24981 0.0
C2186 C 0.08056 0.58057 0.22911 0.0
C2187 C 0.05891 0.57637 0.21422 0.0
C2188 C 0.04322 0.55438 0.21861 0.0
C2189 C 0.05048 0.53583 0.23625 0.0
C2190 C 0.09783 0.60378 0.22508 0.0
C2191 C 0.01956 0.54966 0.20369 0.0
H2192 H 0.03611 0.65455 0.17763 0.0
H2193 H 0.07611 0.60061 0.1325 0.0
H2194 H 0.01881 0.60765 0.22636 0.0
H2195 H 0.04363 0.63066 0.23266 0.0
H2196 H 0.01636 0.64076 0.21575 0.0
H2197 H 0.08641 0.55901 0.14631 0.0
H2198 H 0.09664 0.56173 0.17821 0.0
H2199 H 0.06781 0.54497 0.17111 0.0
H2200 H 0.10437 0.56475 0.25734 0.0
H2201 H 0.03906 0.51838 0.2387 0.0
H2202 H 0.08707 0.62197 0.22551 0.0
H2203 H 0.10673 0.60245 0.20644 0.0
H2204 H 0.1129 0.60514 0.23935 0.0
H2205 H 0.00884 0.56781 0.20187 0.0
H2206 H 0.00725 0.53448 0.21228 0.0
H2207 H 0.02455 0.54323 0.18464 0.0
C2208 C 0.20281 0.49554 0.33674 0.0
C2209 C 0.18802 0.51629 0.32916 0.0
C2210 C 0.22818 0.49947 0.34281 0.0
C2211 C 0.23877 0.52483 0.34169 0.0
C2212 C 0.22357 0.54604 0.33531 0.0
C2213 C 0.19838 0.54148 0.32886 0.0
C2214 C 0.24391 0.47634 0.34923 0.0
C2215 C 0.23414 0.57342 0.33445 0.0
C2216 C 0.30164 0.53695 0.37307 0.0
C2217 C 0.31799 0.5367 0.35263 0.0
C2218 C 0.2757 0.53335 0.36981 0.0
C2219 C 0.26609 0.5289 0.34559 0.0
C2220 C 0.28259 0.52828 0.32493 0.0
C2221 C 0.30837 0.53248 0.32868 0.0
C2222 C 0.25858 0.53463 0.39217 0.0
C2223 C 0.27302 0.52314 0.29886 0.0
H2224 H 0.19488 0.47602 0.33687 0.0
H2225 H 0.18691 0.55757 0.32315 0.0
H2226 H 0.25844 0.47373 0.33468 0.0
H2227 H 0.25384 0.4796 0.36714 0.0
H2228 H 0.23249 0.45814 0.35066 0.0
H2229 H 0.21931 0.58797 0.33151 0.0
H2230 H 0.24421 0.5781 0.35202 0.0
H2231 H 0.24796 0.57524 0.31906 0.0
H2232 H 0.30907 0.54049 0.39159 0.0
H2233 H 0.32104 0.53224 0.31288 0.0
H2234 H 0.2479 0.51607 0.39425 0.0
H2235 H 0.24468 0.55013 0.38946 0.0
H2236 H 0.26905 0.53855 0.40971 0.0
H2237 H 0.26253 0.50434 0.2983 0.0
H2238 H 0.28843 0.52259 0.28494 0.0
H2239 H 0.25978 0.53844 0.29332 0.0
C2240 C 0.68867 0.26747 0.54861 0.0
C2241 C 0.69937 0.25219 0.52999 0.0
C2242 C 0.69724 0.29307 0.55271 0.0
C2243 C 0.71613 0.30392 0.53707 0.0
C2244 C 0.72736 0.28831 0.51862 0.0
C2245 C 0.71925 0.26244 0.51574 0.0
C2246 C 0.68535 0.30881 0.57309 0.0
C2247 C 0.74699 0.29924 0.50099 0.0
C2248 C 0.71522 0.37699 0.52715 0.0
C2249 C 0.73693 0.38509 0.53983 0.0
C2250 C 0.7083 0.35059 0.52592 0.0
C2251 C 0.7229 0.33203 0.53865 0.0
C2252 C 0.74441 0.34032 0.55216 0.0
C2253 C 0.75147 0.3667 0.55214 0.0
C2254 C 0.68514 0.34291 0.51122 0.0
C2255 C 0.75964 0.32143 0.56711 0.0
H2256 H 0.67319 0.2596 0.55954 0.0
H2257 H 0.72728 0.25083 0.50102 0.0
H2258 H 0.69987 0.31998 0.58362 0.0
H2259 H 0.67237 0.32293 0.5647 0.0
H2260 H 0.67449 0.29639 0.58631 0.0
H2261 H 0.75101 0.28575 0.48542 0.0
H2262 H 0.74081 0.31794 0.49302 0.0
H2263 H 0.76471 0.30315 0.51124 0.0
H2264 H 0.70383 0.39125 0.51783 0.0
H2265 H 0.76798 0.37305 0.56243 0.0
H2266 H 0.66865 0.34273 0.52384 0.0
H2267 H 0.68662 0.32332 0.50289 0.0
H2268 H 0.68149 0.35705 0.49609 0.0
H2269 H 0.74715 0.31005 0.57975 0.0
H2270 H 0.77441 0.33134 0.57842 0.0
H2271 H 0.76878 0.30747 0.55449 0.0
C2272 C 0.80098 0.98305 0.63323 0.0
C2273 C 0.80981 0.98588 0.60878 0.0
C2274 C 0.77568 0.98691 0.63903 0.0
C2275 C 0.75873 0.99358 0.61985 0.0
C2276 C 0.76781 0.99808 0.59541 0.0
C2277 C 0.79332 0.99421 0.59016 0.0
C2278 C 0.76683 0.98232 0.66543 0.0
C2279 C 0.75036 0.00544 0.57453 0.0
C2280 C 0.69402 0.96566 0.63283 0.0
C2281 C 0.68215 0.98675 0.64389 0.0
C2282 C 0.71839 0.96819 0.62327 0.0
C2283 C 0.73129 0.99239 0.62498 0.0
C2284 C 0.71873 0.01425 0.63449 0.0
C2285 C 0.69418 0.01118 0.64382 0.0
C2286 C 0.73096 0.94442 0.61303 0.0
C2287 C 0.73178 0.0404 0.63652 0.0
H2288 H 0.81369 0.97693 0.64776 0.0
H2289 H 0.80005 0.99654 0.57122 0.0
H2290 H 0.75566 0.99891 0.67198 0.0
H2291 H 0.75444 0.96477 0.66608 0.0
H2292 H 0.78268 0.97954 0.67855 0.0
H2293 H 0.76078 0.01217 0.55774 0.0
H2294 H 0.73852 0.98836 0.56929 0.0
H2295 H 0.73756 0.02095 0.58059 0.0
H2296 H 0.68466 0.9468 0.63271 0.0
H2297 H 0.68509 0.02752 0.65247 0.0
H2298 H 0.74601 0.93838 0.62597 0.0
H2299 H 0.73988 0.94882 0.59481 0.0
H2300 H 0.71755 0.92785 0.61058 0.0
H2301 H 0.74492 0.04025 0.65255 0.0
H2302 H 0.71822 0.05621 0.63948 0.0
H2303 H 0.74297 0.04474 0.61955 0.0
C2304 C 0.27147 0.89784 0.94597 0.0
C2305 C 0.25078 0.90208 0.93054 0.0
C2306 C 0.27945 0.87258 0.95099 0.0
C2307 C 0.26709 0.85115 0.93946 0.0
C2308 C 0.2469 0.8555 0.9229 0.0
C2309 C 0.2386 0.88092 0.91908 0.0
C2310 C 0.30025 0.86878 0.96965 0.0
C2311 C 0.23384 0.8333 0.90953 0.0
C2312 C 0.30358 0.78848 0.94282 0.0
C2313 C 0.29177 0.77582 0.96286 0.0
C2314 C 0.29481 0.81234 0.93395 0.0
C2315 C 0.27436 0.82421 0.94606 0.0
C2316 C 0.26197 0.81111 0.96586 0.0
C2317 C 0.27057 0.78689 0.97372 0.0
C2318 C 0.30798 0.82529 0.91226 0.0
C2319 C 0.2406 0.82334 0.97981 0.0
H2320 H 0.28069 0.91425 0.95501 0.0
H2321 H 0.2227 0.88429 0.90699 0.0
H2322 H 0.29267 0.85798 0.98596 0.0
H2323 H 0.31536 0.857 0.96146 0.0
H2324 H 0.30857 0.88747 0.97628 0.0
H2325 H 0.22036 0.84016 0.8953 0.0
H2326 H 0.24786 0.82089 0.90028 0.0
H2327 H 0.22346 0.82096 0.92313 0.0
H2328 H 0.31998 0.77997 0.93439 0.0
H2329 H 0.26157 0.77737 0.98947 0.0
H2330 H 0.31863 0.84266 0.91888 0.0
H2331 H 0.29407 0.83196 0.89839 0.0
H2332 H 0.32128 0.81212 0.90289 0.0
H2333 H 0.24745 0.84135 0.98913 0.0
H2334 H 0.23236 0.81018 0.99415 0.0
H2335 H 0.22554 0.82891 0.96672 0.0
C2336 C 0.19318 0.49161 0.83394 0.0
C2337 C 0.18474 0.4827 0.85713 0.0
C2338 C 0.21855 0.49773 0.83002 0.0
C2339 C 0.23587 0.49428 0.84967 0.0
C2340 C 0.22727 0.48647 0.87351 0.0
C2341 C 0.20163 0.48094 0.87703 0.0
C2342 C 0.22696 0.5065 0.80444 0.0
C2343 C 0.24527 0.48235 0.89479 0.0
C2344 C 0.29917 0.47626 0.82455 0.0
C2345 C 0.31209 0.50015 0.82517 0.0
C2346 C 0.27484 0.47373 0.8341 0.0
C2347 C 0.26306 0.49578 0.84411 0.0
C2348 C 0.27647 0.51967 0.84595 0.0
C2349 C 0.30101 0.52154 0.83655 0.0
C2350 C 0.26127 0.44779 0.83222 0.0
C2351 C 0.26441 0.54358 0.85641 0.0
H2352 H 0.18 0.49325 0.81865 0.0
H2353 H 0.19503 0.47399 0.89498 0.0
H2354 H 0.23935 0.52399 0.80585 0.0
H2355 H 0.23797 0.49099 0.79552 0.0
H2356 H 0.21087 0.51103 0.79212 0.0
H2357 H 0.23534 0.48008 0.91289 0.0
H2358 H 0.25611 0.46455 0.89129 0.0
H2359 H 0.25893 0.49878 0.89624 0.0
H2360 H 0.30788 0.4596 0.81607 0.0
H2361 H 0.31105 0.54003 0.83707 0.0
H2362 H 0.24596 0.449 0.81828 0.0
H2363 H 0.25255 0.44251 0.85033 0.0
H2364 H 0.27399 0.43202 0.82654 0.0
H2365 H 0.25018 0.55062 0.84306 0.0
H2366 H 0.27835 0.55949 0.85982 0.0
H2367 H 0.25453 0.53903 0.87412 0.0
C2368 C 0.76573 0.60869 0.04086 0.0
C2369 C 0.74473 0.60003 0.0544 0.0
C2370 C 0.77037 0.63527 0.03691 0.0
C2371 C 0.75405 0.65368 0.0475 0.0
C2372 C 0.73303 0.64503 0.06157 0.0
C2373 C 0.7284 0.61827 0.06453 0.0
C2374 C 0.79293 0.64349 0.02158 0.0
C2375 C 0.71574 0.66402 0.07388 0.0
C2376 C 0.78444 0.72072 0.052 0.0
C2377 C 0.77423 0.73303 0.03119 0.0
C2378 C 0.7766 0.69548 0.05867 0.0
C2379 C 0.759 0.68191 0.04349 0.0
C2380 C 0.74803 0.69465 0.02293 0.0
C2381 C 0.75537 0.7203 0.01738 0.0
C2382 C 0.78816 0.6829 0.0812 0.0
C2383 C 0.72994 0.6806 0.0057 0.0
H2384 H 0.77841 0.59465 0.03303 0.0
H2385 H 0.7123 0.61162 0.07529 0.0
H2386 H 0.78855 0.66005 0.00924 0.0
H2387 H 0.80832 0.64986 0.03421 0.0
H2388 H 0.79991 0.62734 0.00993 0.0
H2389 H 0.70087 0.65416 0.08511 0.0
H2390 H 0.72673 0.67728 0.0862 0.0
H2391 H 0.70662 0.67618 0.05958 0.0
H2392 H 0.7991 0.73054 0.06261 0.0
H2393 H 0.74777 0.72964 0.001 0.0
H2394 H 0.80196 0.66838 0.07507 0.0
H2395 H 0.77358 0.67253 0.09236 0.0
H2396 H 0.798 0.6973 0.09332 0.0
H2397 H 0.73859 0.66268 0.99848 0.0
H2398 H 0.72441 0.69273 0.98959 0.0
H2399 H 0.71276 0.67466 0.01604 0.0
C2400 C 0.80635 0.10003 0.17265 0.0
C2401 C 0.81604 0.07738 0.16214 0.0
C2402 C 0.7806 0.10229 0.17704 0.0
C2403 C 0.764 0.08241 0.16876 0.0
C2404 C 0.7734 0.06113 0.15518 0.0
C2405 C 0.79942 0.05853 0.15252 0.0
C2406 C 0.77145 0.12486 0.19228 0.0
C2407 C 0.75606 0.04042 0.14458 0.0
C2408 C 0.70209 0.0653 0.19975 0.0
C2409 C 0.68524 0.0782 0.18437 0.0
C2410 C 0.72806 0.06817 0.19602 0.0
C2411 C 0.73704 0.08299 0.17551 0.0
C2412 C 0.72002 0.09682 0.16056 0.0
C2413 C 0.69425 0.09455 0.16545 0.0
C2414 C 0.74576 0.0544 0.21334 0.0
C2415 C 0.7286 0.11218 0.1381 0.0
H2416 H 0.81898 0.11521 0.17923 0.0
H2417 H 0.80674 0.04123 0.1439 0.0
H2418 H 0.7559 0.13471 0.18263 0.0
H2419 H 0.76395 0.11753 0.2103 0.0
H2420 H 0.78662 0.13938 0.19618 0.0
H2421 H 0.7659 0.02756 0.13132 0.0
H2422 H 0.74828 0.0283 0.15992 0.0
H2423 H 0.74002 0.04939 0.13483 0.0
H2424 H 0.69494 0.05248 0.21423 0.0
H2425 H 0.68103 0.10398 0.1532 0.0
H2426 H 0.76251 0.06677 0.21757 0.0
H2427 H 0.75236 0.03641 0.20433 0.0
H2428 H 0.73644 0.04899 0.23113 0.0
H2429 H 0.74684 0.12232 0.1413 0.0
H2430 H 0.71457 0.12679 0.13272 0.0
H2431 H 0.73114 0.09864 0.12227 0.0
C2432 C 0.20958 0.23081 0.43002 0.0
C2433 C 0.22329 0.24297 0.44914 0.0
C2434 C 0.21551 0.20572 0.42196 0.0
C2435 C 0.23487 0.19212 0.43409 0.0
C2436 C 0.24926 0.2047 0.4529 0.0
C2437 C 0.24362 0.23019 0.45981 0.0
C2438 C 0.20025 0.19334 0.40132 0.0
C2439 C 0.26945 0.19063 0.46696 0.0
C2440 C 0.2285 0.11853 0.43726 0.0
C2441 C 0.24826 0.11085 0.42193 0.0
C2442 C 0.22383 0.14492 0.44132 0.0
C2443 C 0.23865 0.16407 0.42884 0.0
C2444 C 0.25779 0.1563 0.41229 0.0
C2445 C 0.26273 0.12979 0.40947 0.0
C2446 C 0.20311 0.15207 0.45912 0.0
C2447 C 0.27306 0.17596 0.39761 0.0
H2448 H 0.19375 0.24063 0.42186 0.0
H2449 H 0.25393 0.23936 0.47495 0.0
H2450 H 0.21256 0.18289 0.38818 0.0
H2451 H 0.1868 0.17896 0.40938 0.0
H2452 H 0.18941 0.2079 0.39076 0.0
H2453 H 0.27794 0.2027 0.48203 0.0
H2454 H 0.26147 0.17259 0.47533 0.0
H2455 H 0.28456 0.18486 0.45403 0.0
H2456 H 0.21727 0.1039 0.44689 0.0
H2457 H 0.27784 0.12383 0.39734 0.0
H2458 H 0.18563 0.1552 0.4484 0.0
H2459 H 0.20764 0.17018 0.46945 0.0
H2460 H 0.19924 0.13634 0.47282 0.0
H2461 H 0.26046 0.18968 0.38806 0.0
H2462 H 0.28516 0.16667 0.38345 0.0
H2463 H 0.28524 0.18751 0.41035 0.0
C2464 C 0.19349 0.38173 0.47672 0.0
C2465 C 0.2068 0.36588 0.49313 0.0
C2466 C 0.1919 0.40859 0.48088 0.0
C2467 C 0.20421 0.41985 0.50173 0.0
C2468 C 0.21748 0.40384 0.51844 0.0
C2469 C 0.21864 0.3771 0.5139 0.0
C2470 C 0.17682 0.42485 0.46318 0.0
C2471 C 0.23114 0.4149 0.5408 0.0
C2472 C 0.2259 0.49031 0.50235 0.0
C2473 C 0.21018 0.50076 0.5206 0.0
C2474 C 0.22343 0.46422 0.49514 0.0
C2475 C 0.20421 0.44845 0.50578 0.0
C2476 C 0.18687 0.45956 0.5225 0.0
C2477 C 0.1903 0.48551 0.53003 0.0
C2478 C 0.24247 0.45308 0.47746 0.0
C2479 C 0.16579 0.44354 0.53383 0.0
H2480 H 0.184 0.37309 0.46081 0.0
H2481 H 0.22898 0.36498 0.52665 0.0
H2482 H 0.18919 0.43955 0.45404 0.0
H2483 H 0.16742 0.41297 0.44851 0.0
H2484 H 0.16232 0.43553 0.47364 0.0
H2485 H 0.24871 0.42458 0.53441 0.0
H2486 H 0.21984 0.42963 0.55051 0.0
H2487 H 0.23602 0.39962 0.55445 0.0
H2488 H 0.24141 0.50192 0.49506 0.0
H2489 H 0.17809 0.49351 0.5441 0.0
H2490 H 0.23288 0.44479 0.46087 0.0
H2491 H 0.25247 0.43703 0.4867 0.0
H2492 H 0.25656 0.46782 0.47115 0.0
H2493 H 0.15617 0.43162 0.51936 0.0
H2494 H 0.15172 0.45582 0.54321 0.0
H2495 H 0.17357 0.43003 0.54781 0.0
C2496 C 0.054 0.50246 0.87607 0.0
C2497 C 0.06385 0.48084 0.88819 0.0
C2498 C 0.029 0.50944 0.87964 0.0
C2499 C 0.0136 0.4946 0.89598 0.0
C2500 C 0.02399 0.47404 0.9098 0.0
C2501 C 0.04903 0.46727 0.90562 0.0
C2502 C 0.0186 0.53145 0.86443 0.0
C2503 C 0.00826 0.45812 0.92775 0.0
C2504 C 0.95022 0.52464 0.90684 0.0
C2505 C 0.93588 0.51248 0.88813 0.0
C2506 C 0.97524 0.51772 0.91097 0.0
C2507 C 0.9861 0.49853 0.89577 0.0
C2508 C 0.9712 0.48507 0.87797 0.0
C2509 C 0.94621 0.4921 0.87451 0.0
C2510 C 0.99043 0.53201 0.93052 0.0
C2511 C 0.9821 0.46452 0.8613 0.0
H2512 H 0.06541 0.51314 0.86269 0.0
H2513 H 0.05659 0.45061 0.91516 0.0
H2514 H 0.00487 0.5236 0.85068 0.0
H2515 H 0.0085 0.54516 0.87657 0.0
H2516 H 0.03351 0.54239 0.85418 0.0
H2517 H 0.02005 0.44648 0.94045 0.0
H2518 H 0.99607 0.47075 0.93907 0.0
H2519 H 0.99584 0.44459 0.91713 0.0
H2520 H 0.94226 0.54031 0.91754 0.0
H2521 H 0.93519 0.48249 0.86012 0.0
H2522 H 0.00348 0.54605 0.92135 0.0
H2523 H 0.00195 0.51832 0.94138 0.0
H2524 H 0.9783 0.54287 0.94356 0.0
H2525 H 0.9963 0.47355 0.8487 0.0
H2526 H 0.96756 0.4546 0.8497 0.0
H2527 H 0.99178 0.44971 0.87256 0.0
C2528 C 0.71398 0.46682 0.01751 0.0
C2529 C 0.69791 0.47964 0.0339 0.0
C2530 C 0.7099 0.44061 0.01146 0.0
C2531 C 0.68854 0.42725 0.02106 0.0
C2532 C 0.67141 0.44058 0.03641 0.0
C2533 C 0.67657 0.46652 0.04305 0.0
C2534 C 0.72935 0.42679 0.99619 0.0
C2535 C 0.64841 0.42702 0.04691 0.0
C2536 C 0.67318 0.36318 0.98893 0.0
C2537 C 0.6824 0.34518 0.00605 0.0
C2538 C 0.67416 0.38991 0.99405 0.0
C2539 C 0.68528 0.39888 0.01649 0.0
C2540 C 0.69423 0.38067 0.03405 0.0
C2541 C 0.69252 0.35407 0.02864 0.0
C2542 C 0.66297 0.40853 0.9756 0.0
C2543 C 0.7055 0.38857 0.0588 0.0
H2544 H 0.73082 0.47671 0.01083 0.0
H2545 H 0.66429 0.47633 0.05594 0.0
H2546 H 0.72083 0.4193 0.97872 0.0
H2547 H 0.74561 0.43963 0.99133 0.0
H2548 H 0.73635 0.40985 0.00669 0.0
H2549 H 0.63521 0.44087 0.05544 0.0
H2550 H 0.63841 0.41589 0.03211 0.0
H2551 H 0.6542 0.413 0.06141 0.0
H2552 H 0.66485 0.35636 0.97165 0.0
H2553 H 0.6994 0.34024 0.04211 0.0
H2554 H 0.67791 0.4213 0.96764 0.0
H2555 H 0.6494 0.42121 0.98518 0.0
H2556 H 0.65317 0.39833 0.96007 0.0
H2557 H 0.70828 0.40977 0.06108 0.0
H2558 H 0.72383 0.37904 0.06137 0.0
H2559 H 0.69301 0.38145 0.07399 0.0
C2560 C 0.94995 0.04065 0.15303 0.0
C2561 C 0.93288 0.02683 0.16814 0.0
C2562 C 0.97483 0.03258 0.15051 0.0
C2563 C 0.9827 0.01024 0.16344 0.0
C2564 C 0.96506 0.99519 0.1772 0.0
C2565 C 0.94033 0.00367 0.17937 0.0
C2566 C 0.99305 0.04895 0.13543 0.0
C2567 C 0.9727 0.97112 0.1911 0.0
C2568 C 0.04606 0.98003 0.15169 0.0
C2569 C 0.06016 0.99001 0.17171 0.0
C2570 C 0.02096 0.98703 0.14822 0.0
C2571 C 0.0098 0.00433 0.1652 0.0
C2572 C 0.0242 0.01507 0.18497 0.0
C2573 C 0.04921 0.00778 0.18797 0.0
C2574 C 0.00618 0.97529 0.12688 0.0
C2575 C 0.01297 0.03367 0.20346 0.0
H2576 H 0.94426 0.05849 0.14417 0.0
H2577 H 0.92717 0.99278 0.1909 0.0
H2578 H 0.00599 0.0596 0.14819 0.0
H2579 H 0.00466 0.03657 0.12329 0.0
H2580 H 0.9833 0.06333 0.12364 0.0
H2581 H 0.95625 0.96005 0.19855 0.0
H2582 H 0.98354 0.95818 0.17878 0.0
H2583 H 0.98507 0.9767 0.20692 0.0
H2584 H 0.05445 0.96632 0.13902 0.0
H2585 H 0.06003 0.01564 0.20342 0.0
H2586 H 0.99678 0.99068 0.1161 0.0
H2587 H 0.99126 0.96212 0.13429 0.0
H2588 H 0.01821 0.96407 0.11405 0.0
H2589 H 0.00475 0.05038 0.19355 0.0
H2590 H 0.02702 0.04117 0.21708 0.0
H2591 H 0.99753 0.02378 0.21386 0.0
C2592 C 0.29255 0.99691 0.48355 0.0
C2593 C 0.30361 0.0035 0.46062 0.0
C2594 C 0.29802 0.97341 0.49545 0.0
C2595 C 0.31506 0.95624 0.48418 0.0
C2596 C 0.32828 0.96417 0.46248 0.0
C2597 C 0.32231 0.98767 0.4509 0.0
C2598 C 0.28357 0.96587 0.51861 0.0
C2599 C 0.34694 0.94668 0.45009 0.0
C2600 C 0.33345 0.89192 0.51366 0.0
C2601 C 0.31785 0.8746 0.5004 0.0
C2602 C 0.33242 0.91884 0.50927 0.0
C2603 C 0.31508 0.9284 0.49162 0.0
C2604 C 0.29839 0.9109 0.47941 0.0
C2605 C 0.30023 0.88426 0.48369 0.0
C2606 C 0.35059 0.93685 0.52257 0.0
C2607 C 0.27921 0.92015 0.46094 0.0
H2608 H 0.27823 0.00916 0.49135 0.0
H2609 H 0.33121 0.99283 0.43338 0.0
H2610 H 0.26792 0.9524 0.51345 0.0
H2611 H 0.29569 0.95567 0.53208 0.0
H2612 H 0.27547 0.98305 0.52791 0.0
H2613 H 0.35872 0.95732 0.43624 0.0
H2614 H 0.35938 0.93775 0.46412 0.0
H2615 H 0.33669 0.93074 0.44031 0.0
H2616 H 0.34718 0.88436 0.52652 0.0
H2617 H 0.28801 0.87085 0.47362 0.0
H2618 H 0.34081 0.95406 0.52987 0.0
H2619 H 0.36504 0.94396 0.5092 0.0
H2620 H 0.3602 0.92703 0.53822 0.0
H2621 H 0.26794 0.93591 0.46909 0.0
H2622 H 0.2662 0.90429 0.45488 0.0
H2623 H 0.28899 0.92814 0.4443 0.0
C2624 C 0.44286 0.48427 0.83432 0.0
C2625 C 0.43595 0.50501 0.81903 0.0
C2626 C 0.4681 0.47769 0.83703 0.0
C2627 C 0.48669 0.49203 0.82388 0.0
C2628 C 0.47992 0.51382 0.80947 0.0
C2629 C 0.45459 0.52023 0.80744 0.0
C2630 C 0.47473 0.4547 0.85299 0.0
C2631 C 0.49923 0.5294 0.79495 0.0
C2632 C 0.55609 0.4899 0.83765 0.0
C2633 C 0.56449 0.47405 0.81827 0.0
C2634 C 0.53049 0.4946 0.84079 0.0
C2635 C 0.51305 0.48349 0.82385 0.0
C2636 C 0.52126 0.46605 0.80531 0.0
C2637 C 0.54695 0.46124 0.80297 0.0
C2638 C 0.52232 0.51277 0.86117 0.0
C2639 C 0.50318 0.45401 0.78675 0.0
H2640 H 0.42848 0.4726 0.84353 0.0
H2641 H 0.44934 0.53637 0.79575 0.0
H2642 H 0.49042 0.45985 0.86577 0.0
H2643 H 0.45851 0.44751 0.8642 0.0
H2644 H 0.48115 0.43865 0.84094 0.0
H2645 H 0.49119 0.54694 0.78625 0.0
H2646 H 0.51505 0.53552 0.80717 0.0
H2647 H 0.50702 0.51708 0.78 0.0
H2648 H 0.56962 0.49955 0.84976 0.0
H2649 H 0.55333 0.44873 0.78816 0.0
H2650 H 0.50581 0.50456 0.87123 0.0
H2651 H 0.51662 0.53145 0.85283 0.0
H2652 H 0.53758 0.5168 0.87482 0.0
H2653 H 0.48663 0.44533 0.79638 0.0
H2654 H 0.5121 0.43878 0.77529 0.0
H2655 H 0.49624 0.4693 0.77409 0.0
C2656 C 0.80991 0.87332 0.01154 0.0
C2657 C 0.79819 0.85715 0.99384 0.0
C2658 C 0.81132 0.9004 0.00803 0.0
C2659 C 0.80049 0.91146 0.98648 0.0
C2660 C 0.78835 0.89512 0.96883 0.0
C2661 C 0.78742 0.86825 0.97268 0.0
C2662 C 0.82459 0.91714 0.02716 0.0
C2663 C 0.7759 0.90601 0.94599 0.0
C2664 C 0.77991 0.9813 0.98193 0.0
C2665 C 0.79761 0.99175 0.96511 0.0
C2666 C 0.78145 0.95558 0.99031 0.0
C2667 C 0.80146 0.94006 0.98214 0.0
C2668 C 0.82058 0.95123 0.96697 0.0
C2669 C 0.81834 0.9769 0.95849 0.0
C2670 C 0.76042 0.94445 0.00612 0.0
C2671 C 0.84234 0.93541 0.958 0.0
H2672 H 0.81842 0.86479 0.02787 0.0
H2673 H 0.77815 0.85587 0.95903 0.0
H2674 H 0.81153 0.93171 0.03466 0.0
H2675 H 0.83201 0.90559 0.0429 0.0
H2676 H 0.84041 0.92797 0.01828 0.0
H2677 H 0.7594 0.91725 0.95187 0.0
H2678 H 0.7889 0.9194 0.93592 0.0
H2679 H 0.76948 0.8906 0.93287 0.0
H2680 H 0.76374 0.99253 0.98713 0.0
H2681 H 0.8321 0.98485 0.94556 0.0
H2682 H 0.7679 0.93242 0.02145 0.0
H2683 H 0.74819 0.93172 0.99444 0.0
H2684 H 0.74866 0.95986 0.01427 0.0
H2685 H 0.85046 0.9242 0.97358 0.0
H2686 H 0.85738 0.94775 0.94951 0.0
H2687 H 0.83558 0.92127 0.9438 0.0
C2688 C 0.45505 0.00714 0.16525 0.0
C2689 C 0.4399 0.99466 0.18295 0.0
C2690 C 0.48068 0.0115 0.1696 0.0
C2691 C 0.49151 0.00268 0.19217 0.0
C2692 C 0.47618 0.9901 0.2102 0.0
C2693 C 0.45039 0.98672 0.20558 0.0
C2694 C 0.49575 0.02452 0.14914 0.0
C2695 C 0.48724 0.97881 0.23361 0.0
C2696 C 0.56155 0.99636 0.18392 0.0
C2697 C 0.57049 0.01893 0.19569 0.0
C2698 C 0.53597 0.98944 0.18473 0.0
C2699 C 0.51889 0.00624 0.19651 0.0
C2700 C 0.52808 0.02825 0.20969 0.0
C2701 C 0.55394 0.03389 0.2097 0.0
C2702 C 0.527 0.96528 0.17128 0.0
C2703 C 0.51066 0.04691 0.22238 0.0
H2704 H 0.44699 0.0129 0.14758 0.0
H2705 H 0.43877 0.97633 0.21899 0.0
H2706 H 0.51548 0.02892 0.15423 0.0
H2707 H 0.49567 0.01175 0.13248 0.0
H2708 H 0.48666 0.04285 0.14358 0.0
H2709 H 0.47313 0.96755 0.24462 0.0
H2710 H 0.50292 0.96585 0.22877 0.0
H2711 H 0.49506 0.99455 0.24551 0.0
H2712 H 0.57438 0.98477 0.17313 0.0
H2713 H 0.56082 0.05145 0.21872 0.0
H2714 H 0.51878 0.97078 0.15309 0.0
H2715 H 0.51218 0.95496 0.18217 0.0
H2716 H 0.54259 0.95175 0.16775 0.0
H2717 H 0.49365 0.05031 0.21099 0.0
H2718 H 0.52003 0.06595 0.22612 0.0
H2719 H 0.50447 0.03864 0.24046 0.0
C2720 C 0.38652 0.24615 0.19316 0.0
C2721 C 0.40471 0.2624 0.182 0.0
C2722 C 0.38563 0.24301 0.21904 0.0
C2723 C 0.40314 0.25673 0.23407 0.0
C2724 C 0.42092 0.27397 0.22303 0.0
C2725 C 0.42159 0.27649 0.19703 0.0
C2726 C 0.36653 0.22435 0.2302 0.0
C2727 C 0.43962 0.28921 0.23863 0.0
C2728 C 0.38992 0.26504 0.30279 0.0
C2729 C 0.40609 0.24692 0.31336 0.0
C2730 C 0.38846 0.26816 0.27694 0.0
C2731 C 0.4033 0.25256 0.26135 0.0
C2732 C 0.41883 0.23344 0.27184 0.0
C2733 C 0.42014 0.23093 0.2978 0.0
C2734 C 0.37179 0.28884 0.26638 0.0
C2735 C 0.43461 0.21618 0.25566 0.0
H2736 H 0.37348 0.23511 0.18162 0.0
H2737 H 0.43565 0.28908 0.18846 0.0
H2738 H 0.37631 0.20825 0.23959 0.0
H2739 H 0.35524 0.23428 0.24456 0.0
H2740 H 0.3536 0.21596 0.21597 0.0
H2741 H 0.45128 0.30284 0.22727 0.0
H2742 H 0.42972 0.30046 0.25311 0.0
H2743 H 0.45225 0.27571 0.24841 0.0
H2744 H 0.37907 0.27754 0.31474 0.0
H2745 H 0.43264 0.21689 0.30591 0.0
H2746 H 0.35878 0.28032 0.25233 0.0
H2747 H 0.38348 0.3038 0.25675 0.0
H2748 H 0.36055 0.29849 0.281 0.0
H2749 H 0.42269 0.20627 0.24148 0.0
H2750 H 0.4445 0.20125 0.26666 0.0
H2751 H 0.44883 0.22812 0.24551 0.0
C2752 C 0.10468 0.74252 0.30504 0.0
C2753 C 0.11819 0.76481 0.31236 0.0
C2754 C 0.10525 0.73391 0.2803 0.0
C2755 C 0.1196 0.74803 0.26252 0.0
C2756 C 0.13398 0.77004 0.26998 0.0
C2757 C 0.13314 0.77815 0.29488 0.0
C2758 C 0.08971 0.71029 0.27299 0.0
C2759 C 0.14941 0.78563 0.2515 0.0
C2760 C 0.13211 0.7136 0.20153 0.0
C2761 C 0.11274 0.72297 0.18652 0.0
C2762 C 0.13508 0.72218 0.22616 0.0
C2763 C 0.1183 0.74054 0.23589 0.0
C2764 C 0.09927 0.75075 0.22055 0.0
C2765 C 0.0967 0.74179 0.19603 0.0
C2766 C 0.15566 0.71101 0.24199 0.0
C2767 C 0.08114 0.77054 0.23029 0.0
H2768 H 0.09311 0.73215 0.3185 0.0
H2769 H 0.1435 0.79552 0.30042 0.0
H2770 H 0.07475 0.71601 0.25982 0.0
H2771 H 0.10157 0.69603 0.26327 0.0
H2772 H 0.08076 0.70064 0.28932 0.0
H2773 H 0.16142 0.80064 0.26074 0.0
H2774 H 0.16155 0.77271 0.24046 0.0
H2775 H 0.13674 0.79545 0.23826 0.0
H2776 H 0.1446 0.69909 0.19425 0.0
H2777 H 0.08178 0.74919 0.18445 0.0
H2778 H 0.14725 0.69955 0.25749 0.0
H2779 H 0.16718 0.72685 0.25046 0.0
H2780 H 0.16817 0.69824 0.23114 0.0
H2781 H 0.06968 0.76187 0.24553 0.0
H2782 H 0.06828 0.77755 0.21557 0.0
H2783 H 0.09155 0.78746 0.23821 0.0
C2784 C 0.3883 0.22008 0.44939 0.0
C2785 C 0.38192 0.24231 0.43601 0.0
C2786 C 0.38577 0.21945 0.47542 0.0
C2787 C 0.37658 0.24152 0.48791 0.0
C2788 C 0.36767 0.26281 0.47405 0.0
C2789 C 0.37058 0.26296 0.44821 0.0
C2790 C 0.3951 0.19627 0.48958 0.0
C2791 C 0.3574 0.2866 0.48661 0.0
C2792 C 0.35995 0.24829 0.55575 0.0
C2793 C 0.38085 0.26255 0.56452 0.0
C2794 C 0.35913 0.23903 0.53123 0.0
C2795 C 0.37957 0.24449 0.51518 0.0
C2796 C 0.40152 0.25704 0.52455 0.0
C2797 C 0.40192 0.26586 0.54923 0.0
C2798 C 0.33567 0.22518 0.52204 0.0
C2799 C 0.4238 0.26305 0.50799 0.0
H2800 H 0.39732 0.2042 0.43989 0.0
H2801 H 0.36562 0.28008 0.43768 0.0
H2802 H 0.41422 0.20064 0.49681 0.0
H2803 H 0.38283 0.19174 0.50576 0.0
H2804 H 0.3961 0.17884 0.47747 0.0
H2805 H 0.34897 0.30021 0.47307 0.0
H2806 H 0.34293 0.28102 0.50056 0.0
H2807 H 0.37279 0.29702 0.49663 0.0
H2808 H 0.34376 0.24527 0.56771 0.0
H2809 H 0.4182 0.2766 0.55606 0.0
H2810 H 0.34044 0.20872 0.50972 0.0
H2811 H 0.3243 0.23883 0.51097 0.0
H2812 H 0.32393 0.21777 0.53769 0.0
H2813 H 0.42925 0.24553 0.49748 0.0
H2814 H 0.44032 0.2703 0.51873 0.0
H2815 H 0.41867 0.27807 0.49417 0.0
C2816 C 0.08148 0.75577 0.69011 0.0
C2817 C 0.06332 0.73899 0.67963 0.0
C2818 C 0.08397 0.7582 0.71598 0.0
C2819 C 0.06804 0.74333 0.73174 0.0
C2820 C 0.05017 0.72575 0.72131 0.0
C2821 C 0.04795 0.72388 0.69533 0.0
C2822 C 0.10316 0.77721 0.72645 0.0
C2823 C 0.03305 0.70936 0.73761 0.0
C2824 C 0.08557 0.73327 0.79944 0.0
C2825 C 0.06944 0.75041 0.81149 0.0
C2826 C 0.08571 0.73113 0.77341 0.0
C2827 C 0.06952 0.74669 0.75915 0.0
C2828 C 0.05405 0.7649 0.77115 0.0
C2829 C 0.05412 0.76647 0.79722 0.0
C2830 C 0.10241 0.71146 0.76124 0.0
C2831 C 0.03677 0.78206 0.75649 0.0
H2832 H 0.0934 0.76757 0.67808 0.0
H2833 H 0.03391 0.71086 0.68732 0.0
H2834 H 0.09351 0.79258 0.73704 0.0
H2835 H 0.11576 0.76724 0.73965 0.0
H2836 H 0.11478 0.78655 0.71166 0.0
H2837 H 0.02098 0.6958 0.72661 0.0
H2838 H 0.0443 0.69791 0.75092 0.0
H2839 H 0.02079 0.72206 0.74877 0.0
H2840 H 0.09737 0.7207 0.81037 0.0
H2841 H 0.04163 0.77975 0.80645 0.0
H2842 H 0.11408 0.72083 0.74655 0.0
H2843 H 0.09065 0.69623 0.75208 0.0
H2844 H 0.115 0.70199 0.77485 0.0
H2845 H 0.04747 0.79277 0.7419 0.0
H2846 H 0.02715 0.79632 0.76851 0.0
H2847 H 0.0223 0.76994 0.7469 0.0
C2848 C 0.08655 0.77131 0.94927 0.0
C2849 C 0.0944 0.75011 0.93514 0.0
C2850 C 0.08843 0.77091 0.97538 0.0
C2851 C 0.0986 0.74894 0.98727 0.0
C2852 C 0.10864 0.72867 0.9728 0.0
C2853 C 0.10627 0.72947 0.94688 0.0
C2854 C 0.0776 0.7929 0.9902 0.0
C2855 C 0.11985 0.705 0.98471 0.0
C2856 C 0.11516 0.74416 0.05563 0.0
C2857 C 0.09484 0.72924 0.06471 0.0
C2858 C 0.11597 0.75229 0.0307 0.0
C2859 C 0.09602 0.74522 0.01456 0.0
C2860 C 0.07478 0.73149 0.02402 0.0
C2861 C 0.07446 0.72365 0.04902 0.0
C2862 C 0.1388 0.7671 0.02133 0.0
C2863 C 0.05302 0.72375 0.00739 0.0
H2864 H 0.077 0.78709 0.94017 0.0
H2865 H 0.11225 0.71308 0.93584 0.0
H2866 H 0.05926 0.78659 0.99817 0.0
H2867 H 0.0901 0.79833 0.00596 0.0
H2868 H 0.07455 0.81031 0.97846 0.0
H2869 H 0.1292 0.6924 0.97087 0.0
H2870 H 0.13377 0.71078 -0.00086 0.0
H2871 H 0.10481 0.69342 0.99407 0.0
H2872 H 0.13089 0.74877 0.06776 0.0
H2873 H 0.05861 0.71234 0.05601 0.0
H2874 H 0.13315 0.7838 0.00971 0.0
H2875 H 0.15015 0.75423 0.00942 0.0
H2876 H 0.15083 0.77437 0.03683 0.0
H2877 H 0.04639 0.74077 0.9968 0.0
H2878 H 0.03697 0.71533 0.01808 0.0
H2879 H 0.05924 0.70916 0.99362 0.0
C2880 C 0.58061 0.76385 0.30881 0.0
C2881 C 0.59388 0.74677 0.32396 0.0
C2882 C 0.58142 0.76164 0.28284 0.0
C2883 C 0.59571 0.74177 0.2719 0.0
C2884 C 0.60998 0.72516 0.28705 0.0
C2885 C 0.60899 0.72795 0.31297 0.0
C2886 C 0.56626 0.77995 0.26714 0.0
C2887 C 0.62535 0.70373 0.27595 0.0
C2888 C 0.57314 0.72183 0.20781 0.0
C2889 C 0.58947 0.73639 0.19261 0.0
C2890 C 0.57573 0.72237 0.23379 0.0
C2891 C 0.59498 0.73799 0.24461 0.0
C2892 C 0.61233 0.75158 0.2293 0.0
C2893 C 0.60942 0.75052 0.20344 0.0
C2894 C 0.55715 0.70729 0.24967 0.0
C2895 C 0.63307 0.76842 0.24024 0.0
H2896 H 0.56895 0.77843 0.31726 0.0
H2897 H 0.6192 0.71461 0.32462 0.0
H2898 H 0.57841 0.78946 0.25291 0.0
H2899 H 0.55132 0.76891 0.25708 0.0
H2900 H 0.5573 0.79524 0.27848 0.0
H2901 H 0.63687 0.69378 0.29018 0.0
H2902 H 0.61268 0.68914 0.26705 0.0
H2903 H 0.638 0.71154 0.26123 0.0
H2904 H 0.55777 0.7108 0.19949 0.0
H2905 H 0.62221 0.76172 0.19176 0.0
H2906 H 0.54512 0.72097 0.25998 0.0
H2907 H 0.56713 0.69552 0.26369 0.0
H2908 H 0.54485 0.6942 0.23839 0.0
H2909 H 0.6248 0.78534 0.24976 0.0
H2910 H 0.64639 0.7757 0.2258 0.0
H2911 H 0.64372 0.7575 0.25441 0.0
C2912 C 0.38258 0.29588 0.04846 0.0
C2913 C 0.37377 0.2741 0.06162 0.0
C2914 C 0.37856 0.29776 0.0227 0.0
C2915 C 0.36543 0.27744 0.01027 0.0
C2916 C 0.35372 0.25729 0.02417 0.0
C2917 C 0.35828 0.25572 0.04975 0.0
C2918 C 0.39039 0.32007 0.0085 0.0
C2919 C 0.33859 0.23591 0.01169 0.0
C2920 C 0.34935 0.2748 0.94168 0.0
C2921 C 0.36863 0.25924 0.93264 0.0
C2922 C 0.3489 0.28267 0.96665 0.0
C2923 C 0.3679 0.27425 0.98297 0.0
C2924 C 0.38812 0.25965 0.97358 0.0
C2925 C 0.38831 0.25247 0.94844 0.0
C2926 C 0.32722 0.29866 0.97546 0.0
C2927 C 0.40881 0.25027 0.99039 0.0
H2928 H 0.39457 0.31011 0.05774 0.0
H2929 H 0.35124 0.23907 0.06015 0.0
H2930 H 0.37749 0.32698 0.99379 0.0
H2931 H 0.39545 0.33655 0.02098 0.0
H2932 H 0.40775 0.31346 -0.00078 0.0
H2933 H 0.32859 0.22329 0.0254 0.0
H2934 H 0.32458 0.24426 -0.00115 0.0
H2935 H 0.35125 0.22368 0.00046 0.0
H2936 H 0.33425 0.28042 0.92938 0.0
H2937 H 0.40334 0.24061 0.94144 0.0
H2938 H 0.33143 0.30923 0.99301 0.0
H2939 H 0.31071 0.28562 0.97852 0.0
H2940 H 0.32192 0.31295 0.96098 0.0
H2941 H 0.41698 0.26669 0.00119 0.0
H2942 H 0.42411 0.24089 0.97984 0.0
H2943 H 0.40095 0.23602 0.00394 0.0
C2944 C 0.30344 0.03002 0.63476 0.0
C2945 C 0.31419 0.0089 0.64687 0.0
C2946 C 0.27895 0.02839 0.62539 0.0
C2947 C 0.26474 0.00511 0.62846 0.0
C2948 C 0.27608 0.98313 0.6392 0.0
C2949 C 0.30082 0.98526 0.64824 0.0
C2950 C 0.2677 0.05221 0.61379 0.0
C2951 C 0.26159 0.95799 0.64281 0.0
C2952 C 0.19568 0.01901 0.63535 0.0
C2953 C 0.18692 0.01509 0.61101 0.0
C2954 C 0.22067 0.01407 0.64168 0.0
C2955 C 0.23735 0.00518 0.62314 0.0
C2956 C 0.22823 0.99962 0.59892 0.0
C2957 C 0.20305 0.00461 0.59313 0.0
C2958 C 0.22956 0.01987 0.66786 0.0
C2959 C 0.2454 0.98993 0.57872 0.0
H2960 H 0.31385 0.04827 0.63358 0.0
H2961 H 0.30903 0.96895 0.65778 0.0
H2962 H 0.25861 0.04724 0.59578 0.0
H2963 H 0.25299 0.05987 0.62628 0.0
H2964 H 0.28197 0.06784 0.61052 0.0
H2965 H 0.27421 0.94158 0.64675 0.0
H2966 H 0.24856 0.96 0.65879 0.0
H2967 H 0.25011 0.95322 0.62613 0.0
H2968 H 0.18323 0.02683 0.64932 0.0
H2969 H 0.19636 0.00142 0.57429 0.0
H2970 H 0.24269 0.03685 0.66759 0.0
H2971 H 0.23995 0.00321 0.67547 0.0
H2972 H 0.21379 0.02422 0.68063 0.0
H2973 H 0.25828 0.00591 0.57273 0.0
H2974 H 0.23478 0.98287 0.56217 0.0
H2975 H 0.25716 0.97401 0.5858 0.0
C2976 C 0.72311 0.21551 0.96785 0.0
C2977 C 0.70198 0.2264 0.95667 0.0
C2978 C 0.73225 0.19159 0.95989 0.0
C2979 C 0.72052 0.17862 0.93964 0.0
C2980 C 0.70029 0.19043 0.92711 0.0
C2981 C 0.69092 0.21399 0.93609 0.0
C2982 C 0.75332 0.17938 0.97431 0.0
C2983 C 0.68788 0.17765 0.90489 0.0
C2984 C 0.7573 0.12188 0.9143 0.0
C2985 C 0.74482 0.10081 0.9256 0.0
C2986 C 0.74874 0.14729 0.91752 0.0
C2987 C 0.72796 0.15171 0.93331 0.0
C2988 C 0.7153 0.13037 0.94468 0.0
C2989 C 0.72357 0.10512 0.94023 0.0
C2990 C 0.76216 0.16941 0.90436 0.0
C2991 C 0.69374 0.13427 0.96246 0.0
H2992 H 0.73158 0.22484 0.98397 0.0
H2993 H 0.6746 0.22237 0.92738 0.0
H2994 H 0.74628 0.16138 0.9835 0.0
H2995 H 0.7687 0.17383 0.96159 0.0
H2996 H 0.7612 0.19255 0.98884 0.0
H2997 H 0.67518 0.19103 0.89499 0.0
H2998 H 0.70224 0.17074 0.89161 0.0
H2999 H 0.67669 0.16047 0.9111 0.0
H3000 H 0.77362 0.11844 0.90278 0.0
H3001 H 0.71407 0.08878 0.9491 0.0
H3002 H 0.77223 0.18178 0.91815 0.0
H3003 H 0.7484 0.18181 0.89472 0.0
H3004 H 0.77597 0.16245 0.89051 0.0
H3005 H 0.70019 0.14636 0.97841 0.0
H3006 H 0.68595 0.11564 0.96981 0.0
H3007 H 0.67845 0.1448 0.95309 0.0
C3008 C 0.79495 0.50932 0.32991 0.0
C3009 C 0.80961 0.48847 0.32236 0.0
C3010 C 0.76961 0.50544 0.33625 0.0
C3011 C 0.75904 0.48004 0.33557 0.0
C3012 C 0.77412 0.4588 0.32903 0.0
C3013 C 0.79919 0.46333 0.32217 0.0
C3014 C 0.75394 0.5286 0.34266 0.0
C3015 C 0.76363 0.43137 0.32866 0.0
C3016 C 0.69761 0.46627 0.36912 0.0
C3017 C 0.68062 0.46535 0.3492 0.0
C3018 C 0.72325 0.47117 0.36501 0.0
C3019 C 0.73189 0.47576 0.34045 0.0
C3020 C 0.71469 0.47546 0.32034 0.0
C3021 C 0.68925 0.46995 0.32494 0.0
C3022 C 0.74114 0.47082 0.38682 0.0
C3023 C 0.72319 0.48075 0.29395 0.0
H3024 H 0.80297 0.5288 0.32982 0.0
H3025 H 0.81061 0.4472 0.31645 0.0
H3026 H 0.73894 0.53079 0.32851 0.0
H3027 H 0.74457 0.52565 0.36092 0.0
H3028 H 0.76528 0.54689 0.3434 0.0
H3029 H 0.77836 0.41686 0.32513 0.0
H3030 H 0.75436 0.42673 0.34667 0.0
H3031 H 0.74914 0.42944 0.31389 0.0
H3032 H 0.69096 0.46252 0.38789 0.0
H3033 H 0.67608 0.46936 0.30955 0.0
H3034 H 0.7517 0.48953 0.38803 0.0
H3035 H 0.75511 0.45539 0.38406 0.0
H3036 H 0.73133 0.46732 0.4048 0.0
H3037 H 0.73357 0.49959 0.293 0.0
H3038 H 0.70723 0.48122 0.28065 0.0
H3039 H 0.73626 0.46551 0.28785 0.0
C3040 C 0.24326 0.63714 0.56216 0.0
C3041 C 0.25825 0.61895 0.55011 0.0
C3042 C 0.2494 0.66375 0.56127 0.0
C3043 C 0.27048 0.67235 0.54724 0.0
C3044 C 0.28548 0.65398 0.5348 0.0
C3045 C 0.27943 0.62747 0.5368 0.0
C3046 C 0.23366 0.68262 0.57568 0.0
C3047 C 0.30822 0.66205 0.51964 0.0
C3048 C 0.27443 0.74048 0.52095 0.0
C3049 C 0.29456 0.75118 0.53454 0.0
C3050 C 0.26564 0.71513 0.52558 0.0
C3051 C 0.27664 0.70052 0.54492 0.0
C3052 C 0.29558 0.71206 0.56003 0.0
C3053 C 0.30469 0.73712 0.55434 0.0
C3054 C 0.24625 0.70321 0.50829 0.0
C3055 C 0.30726 0.69742 0.58129 0.0
H3056 H 0.2271 0.63049 0.57284 0.0
H3057 H 0.29112 0.6134 0.52759 0.0
H3058 H 0.24576 0.69403 0.58864 0.0
H3059 H 0.2249 0.69657 0.56276 0.0
H3060 H 0.21858 0.67269 0.58659 0.0
H3061 H 0.31302 0.64707 0.50563 0.0
H3062 H 0.30536 0.68069 0.50984 0.0
H3063 H 0.32455 0.66465 0.53226 0.0
H3064 H 0.26687 0.75113 0.50532 0.0
H3065 H 0.3203 0.74537 0.56482 0.0
H3066 H 0.23077 0.69388 0.51904 0.0
H3067 H 0.25511 0.68785 0.49698 0.0
H3068 H 0.23815 0.71773 0.49545 0.0
H3069 H 0.29266 0.68676 0.59217 0.0
H3070 H 0.31792 0.71056 0.59403 0.0
H3071 H 0.32038 0.68294 0.57375 0.0
C3072 C 0.19639 0.99223 0.16586 0.0
C3073 C 0.18376 0.9703 0.15624 0.0
C3074 C 0.22244 0.99234 0.16938 0.0
C3075 C 0.23622 0.97037 0.16224 0.0
C3076 C 0.22373 0.9488 0.15113 0.0
C3077 C 0.19754 0.94889 0.14858 0.0
C3078 C 0.23501 0.01541 0.18189 0.0
C3079 C 0.23794 0.92532 0.14267 0.0
C3080 C 0.30581 0.97853 0.15035 0.0
C3081 C 0.31615 0.96669 0.17142 0.0
C3082 C 0.27983 0.98002 0.14726 0.0
C3083 C 0.26377 0.97001 0.16602 0.0
C3084 C 0.27405 0.95891 0.18784 0.0
C3085 C 0.30024 0.95696 0.1901 0.0
C3086 C 0.26958 0.99164 0.1236 0.0
C3087 C 0.25736 0.94891 0.2086 0.0
H3088 H 0.18575 0.00867 0.17221 0.0
H3089 H 0.18774 0.93188 0.14132 0.0
H3090 H 0.24273 0.00941 0.20016 0.0
H3091 H 0.25097 0.02279 0.17049 0.0
H3092 H 0.22182 0.03151 0.18507 0.0
H3093 H 0.2256 0.9108 0.13315 0.0
H3094 H 0.25325 0.93126 0.12973 0.0
H3095 H 0.24679 0.9159 0.15895 0.0
H3096 H 0.31807 0.98586 0.13573 0.0
H3097 H 0.30826 0.94793 0.20643 0.0
H3098 H 0.25711 0.00798 0.12809 0.0
H3099 H 0.2581 0.97687 0.11349 0.0
H3100 H 0.28469 0.99887 0.11097 0.0
H3101 H 0.24456 0.96436 0.21485 0.0
H3102 H 0.26831 0.94218 0.2249 0.0
H3103 H 0.24545 0.93253 0.20174 0.0
C3104 C 0.73749 0.87539 0.40368 0.0
C3105 C 0.75113 0.89435 0.41697 0.0
C3106 C 0.74317 0.84898 0.40586 0.0
C3107 C 0.76213 0.84127 0.42265 0.0
C3108 C 0.77619 0.86047 0.43586 0.0
C3109 C 0.77086 0.88681 0.43242 0.0
C3110 C 0.72874 0.82935 0.39035 0.0
C3111 C 0.79668 0.85339 0.45394 0.0
C3112 C 0.75694 0.77467 0.45264 0.0
C3113 C 0.77786 0.76232 0.44264 0.0
C3114 C 0.75125 0.80018 0.44585 0.0
C3115 C 0.76617 0.81322 0.42773 0.0
C3116 C 0.78619 0.80005 0.41621 0.0
C3117 C 0.79218 0.77496 0.42425 0.0
C3118 C 0.73019 0.81364 0.45919 0.0
C3119 C 0.80195 0.81282 0.39616 0.0
H3120 H 0.72243 0.88124 0.39144 0.0
H3121 H 0.78147 0.90146 0.44267 0.0
H3122 H 0.74174 0.81533 0.38179 0.0
H3123 H 0.71551 0.81817 0.40235 0.0
H3124 H 0.71778 0.8387 0.37533 0.0
H3125 H 0.8004 0.86914 0.46765 0.0
H3126 H 0.79196 0.8353 0.46425 0.0
H3127 H 0.81429 0.85018 0.44347 0.0
H3128 H 0.74608 0.7651 0.46718 0.0
H3129 H 0.80844 0.76546 0.41658 0.0
H3130 H 0.71466 0.81727 0.446 0.0
H3131 H 0.73679 0.83274 0.46646 0.0
H3132 H 0.72259 0.80197 0.47498 0.0
H3133 H 0.79 0.82366 0.38297 0.0
H3134 H 0.81292 0.79843 0.38553 0.0
H3135 H 0.81532 0.82689 0.40479 0.0
C3136 C 0.79889 0.50917 0.8768 0.0
C3137 C 0.81513 0.51119 0.85634 0.0
C3138 C 0.77331 0.50326 0.87337 0.0
C3139 C 0.76409 0.49903 0.84897 0.0
C3140 C 0.78074 0.49975 0.82843 0.0
C3141 C 0.80606 0.50603 0.83236 0.0
C3142 C 0.75602 0.50287 0.89565 0.0
C3143 C 0.77163 0.49497 0.80213 0.0
C3144 C 0.70077 0.46872 0.83387 0.0
C3145 C 0.68771 0.49055 0.82594 0.0
C3146 C 0.72538 0.47124 0.84293 0.0
C3147 C 0.73683 0.49619 0.84429 0.0
C3148 C 0.723 0.51842 0.83803 0.0
C3149 C 0.69862 0.5153 0.8287 0.0
C3150 C 0.73964 0.44713 0.84937 0.0
C3151 C 0.73445 0.54541 0.83971 0.0
H3152 H 0.80593 0.51323 0.89537 0.0
H3153 H 0.8187 0.50736 0.81656 0.0
H3154 H 0.74378 0.52003 0.89499 0.0
H3155 H 0.74359 0.48536 0.89531 0.0
H3156 H 0.76654 0.50328 0.91352 0.0
H3157 H 0.78734 0.49403 0.78857 0.0
H3158 H 0.76057 0.47654 0.80116 0.0
H3159 H 0.75907 0.51082 0.79639 0.0
H3160 H 0.69227 0.44956 0.83181 0.0
H3161 H 0.68836 0.53223 0.82292 0.0
H3162 H 0.74984 0.44967 0.86724 0.0
H3163 H 0.75385 0.44354 0.83471 0.0
H3164 H 0.72707 0.42974 0.85078 0.0
H3165 H 0.74373 0.54836 0.85802 0.0
H3166 H 0.72027 0.56069 0.83713 0.0
H3167 H 0.74906 0.54789 0.82512 0.0
C3168 C 0.24543 0.27298 0.02909 0.0
C3169 C 0.2213 0.26548 0.03712 0.0
C3170 C 0.25535 0.29779 0.03446 0.0
C3171 C 0.24089 0.31537 0.04845 0.0
C3172 C 0.21762 0.30692 0.05867 0.0
C3173 C 0.20794 0.28218 0.05261 0.0
C3174 C 0.28026 0.30563 0.02309 0.0
C3175 C 0.20214 0.32461 0.07467 0.0
C3176 C 0.2702 0.3798 0.06932 0.0
C3177 C 0.25941 0.39703 0.05237 0.0
C3178 C 0.2644 0.35308 0.06839 0.0
C3179 C 0.2482 0.3434 0.04952 0.0
C3180 C 0.23817 0.36072 0.03177 0.0
C3181 C 0.24345 0.3874 0.03375 0.0
C3182 C 0.27509 0.33533 0.08789 0.0
C3183 C 0.22172 0.3511 0.01072 0.0
H3184 H 0.2559 0.2602 0.01707 0.0
H3185 H 0.1894 0.27638 0.05911 0.0
H3186 H 0.2903 0.32077 0.03409 0.0
H3187 H 0.29261 0.28861 0.02129 0.0
H3188 H 0.27694 0.31351 0.00416 0.0
H3189 H 0.18684 0.31386 0.08453 0.0
H3190 H 0.21416 0.3347 0.08866 0.0
H3191 H 0.19356 0.33968 0.06281 0.0
H3192 H 0.2824 0.38737 0.08388 0.0
H3193 H 0.23527 0.40076 0.02058 0.0
H3194 H 0.28616 0.31993 0.07887 0.0
H3195 H 0.25957 0.32556 0.09827 0.0
H3196 H 0.28734 0.34592 0.10138 0.0
H3197 H 0.23131 0.33551 0.00036 0.0
H3198 H 0.21699 0.36682 0.99746 0.0
H3199 H 0.20398 0.34268 0.01829 0.0
C3200 C 0.32485 0.53309 0.04267 0.0
C3201 C 0.3054 0.51841 0.03173 0.0
C3202 C 0.3288 0.55931 0.03627 0.0
C3203 C 0.31211 0.57139 0.01948 0.0
C3204 C 0.29294 0.55634 0.0078 0.0
C3205 C 0.2903 0.52989 0.01356 0.0
C3206 C 0.34995 0.57443 0.0485 0.0
C3207 C 0.27422 0.56823 0.99021 0.0
C3208 C 0.30141 0.6435 0.02882 0.0
C3209 C 0.31159 0.65409 0.00694 0.0
C3210 C 0.30192 0.61674 0.03346 0.0
C3211 C 0.3132 0.60007 0.01582 0.0
C3212 C 0.32437 0.61084 0.99411 0.0
C3213 C 0.32304 0.63767 0.98971 0.0
C3214 C 0.29059 0.6071 0.05763 0.0
C3215 C 0.33806 0.59416 0.97563 0.0
H3216 H 0.33652 0.52428 0.05675 0.0
H3217 H 0.27507 0.5187 0.00519 0.0
H3218 H 0.35961 0.58728 0.03478 0.0
H3219 H 0.34222 0.58688 0.06339 0.0
H3220 H 0.36396 0.56143 0.05702 0.0
H3221 H 0.25686 0.55606 0.98852 0.0
H3222 H 0.26884 0.5879 0.99637 0.0
H3223 H 0.2827 0.56999 0.97142 0.0
H3224 H 0.29286 0.65613 0.04242 0.0
H3225 H 0.33145 0.64583 0.973 0.0
H3226 H 0.2892 0.58571 0.05914 0.0
H3227 H 0.27158 0.61517 0.0601 0.0
H3228 H 0.30221 0.61448 0.07336 0.0
H3229 H 0.34954 0.57955 0.98537 0.0
H3230 H 0.35053 0.60594 0.96327 0.0
H3231 H 0.32426 0.58359 0.96377 0.0
C3232 C 0.77658 0.51259 0.49239 0.0
C3233 C 0.78854 0.50378 0.51403 0.0
C3234 C 0.77917 0.53848 0.48457 0.0
C3235 C 0.79438 0.55599 0.4985 0.0
C3236 C 0.80811 0.54671 0.51918 0.0
C3237 C 0.80498 0.52071 0.52675 0.0
C3238 C 0.76402 0.54752 0.46254 0.0
C3239 C 0.82486 0.56464 0.53431 0.0
C3240 C 0.80906 0.62314 0.47162 0.0
C3241 C 0.79178 0.63839 0.48444 0.0
C3242 C 0.81031 0.59626 0.47603 0.0
C3243 C 0.79353 0.5844 0.49325 0.0
C3244 C 0.77561 0.59972 0.50564 0.0
C3245 C 0.7752 0.62654 0.50135 0.0
C3246 C 0.82987 0.58068 0.46268 0.0
C3247 C 0.75713 0.58791 0.52384 0.0
H3248 H 0.76391 0.49966 0.48232 0.0
H3249 H 0.81442 0.51404 0.54337 0.0
H3250 H 0.74863 0.55996 0.46922 0.0
H3251 H 0.77585 0.55941 0.44975 0.0
H3252 H 0.7556 0.53104 0.4519 0.0
H3253 H 0.83702 0.55381 0.54733 0.0
H3254 H 0.83693 0.57677 0.52193 0.0
H3255 H 0.81311 0.57793 0.54537 0.0
H3256 H 0.8221 0.63232 0.4587 0.0
H3257 H 0.76181 0.63828 0.51128 0.0
H3258 H 0.82075 0.56458 0.45213 0.0
H3259 H 0.84261 0.57181 0.47649 0.0
H3260 H 0.84127 0.59272 0.44958 0.0
H3261 H 0.74712 0.57103 0.51535 0.0
H3262 H 0.743 0.60204 0.53017 0.0
H3263 H 0.76746 0.5808 0.54033 0.0
C3264 C 0.21064 0.12915 0.98589 0.0
C3265 C 0.1951 0.14145 0.00303 0.0
C3266 C 0.20925 0.10225 0.98245 0.0
C3267 C 0.19147 0.08719 0.99604 0.0
C3268 C 0.17619 0.09939 0.01401 0.0
C3269 C 0.17831 0.12647 0.01744 0.0
C3270 C 0.2263 0.09009 0.96355 0.0
C3271 C 0.15705 0.08405 0.02892 0.0
C3272 C 0.17619 0.02605 0.9597 0.0
C3273 C 0.19424 0.0092 0.9691 0.0
C3274 C 0.17329 0.05092 0.96993 0.0
C3275 C 0.1886 0.05898 0.99021 0.0
C3276 C 0.20471 0.04093 0.00153 0.0
C3277 C 0.20736 0.01626 0.99083 0.0
C3278 C 0.1557 0.06943 0.95737 0.0
C3279 C 0.22107 0.04847 0.02341 0.0
H3280 H 0.22379 0.14067 0.97489 0.0
H3281 H 0.16617 0.13601 0.03064 0.0
H3282 H 0.21475 0.08133 0.94845 0.0
H3283 H 0.23968 0.10443 0.9553 0.0
H3284 H 0.23718 0.07435 0.97223 0.0
H3285 H 0.14155 0.07749 0.01649 0.0
H3286 H 0.16557 0.06643 0.03692 0.0
H3287 H 0.14897 0.09569 0.04427 0.0
H3288 H 0.1656 0.02061 0.94322 0.0
H3289 H 0.22107 0.00323 0.99852 0.0
H3290 H 0.16681 0.08354 0.94604 0.0
H3291 H 0.14507 0.0806 0.97137 0.0
H3292 H 0.14217 0.05916 0.94489 0.0
H3293 H 0.23729 0.06036 0.01671 0.0
H3294 H 0.22842 0.03118 0.03315 0.0
H3295 H 0.21059 0.06035 0.03697 0.0
C3296 C 0.66168 0.10926 0.51256 0.0
C3297 C 0.67882 0.12623 0.50083 0.0
C3298 C 0.66245 0.08232 0.50813 0.0
C3299 C 0.68099 0.07241 0.49195 0.0
C3300 C 0.69932 0.08951 0.48163 0.0
C3301 C 0.69779 0.11617 0.48591 0.0
C3302 C 0.64269 0.06475 0.51964 0.0
C3303 C 0.71981 0.07984 0.46485 0.0
C3304 C 0.70162 0.00348 0.48233 0.0
C3305 C 0.69201 0.99852 0.45841 0.0
C3306 C 0.69593 0.02646 0.49505 0.0
C3307 C 0.68035 0.04487 0.48349 0.0
C3308 C 0.6684 0.03853 0.46064 0.0
C3309 C 0.67436 0.0154 0.44839 0.0
C3310 C 0.70868 0.03209 0.51961 0.0
C3311 C 0.6514 0.05741 0.44777 0.0
H3312 H 0.64692 0.11713 0.52405 0.0
H3313 H 0.71119 0.12933 0.47706 0.0
H3314 H 0.62867 0.05913 0.50525 0.0
H3315 H 0.65112 0.04667 0.52672 0.0
H3316 H 0.63273 0.07442 0.53516 0.0
H3317 H 0.73351 0.09547 0.45974 0.0
H3318 H 0.73012 0.06398 0.47402 0.0
H3319 H 0.71128 0.07184 0.44757 0.0
H3320 H 0.71502 0.99035 0.49043 0.0
H3321 H 0.66649 0.01148 0.43012 0.0
H3322 H 0.69629 0.04302 0.53228 0.0
H3323 H 0.72583 0.04416 0.51625 0.0
H3324 H 0.71439 0.01394 0.52902 0.0
H3325 H 0.63821 0.06609 0.46124 0.0
H3326 H 0.64041 0.04802 0.43255 0.0
H3327 H 0.66294 0.07344 0.43961 0.0
C3328 C 0.67741 0.7545 0.80558 0.0
C3329 C 0.66042 0.74139 0.82131 0.0
C3330 C 0.67925 0.74771 0.78037 0.0
C3331 C 0.66358 0.72756 0.77091 0.0
C3332 C 0.64833 0.71261 0.7873 0.0
C3333 C 0.64705 0.71966 0.81239 0.0
C3334 C 0.69622 0.7636 0.76354 0.0
C3335 C 0.63143 0.69085 0.77792 0.0
C3336 C 0.63319 0.73344 0.70791 0.0
C3337 C 0.64479 0.71358 0.69471 0.0
C3338 C 0.64027 0.73922 0.73239 0.0
C3339 C 0.65956 0.72489 0.74378 0.0
C3340 C 0.67257 0.70607 0.72996 0.0
C3341 C 0.66488 0.70048 0.70554 0.0
C3342 C 0.626 0.75955 0.74653 0.0
C3343 C 0.69362 0.69089 0.74135 0.0
H3344 H 0.68803 0.77115 0.81248 0.0
H3345 H 0.63418 0.70921 0.8246 0.0
H3346 H 0.70522 0.7512 0.74935 0.0
H3347 H 0.68494 0.77818 0.75354 0.0
H3348 H 0.71109 0.77409 0.77426 0.0
H3349 H 0.62305 0.67928 0.79339 0.0
H3350 H 0.61595 0.69909 0.76678 0.0
H3351 H 0.64194 0.67766 0.7656 0.0
H3352 H 0.61781 0.74378 0.69952 0.0
H3353 H 0.67412 0.6853 0.69524 0.0
H3354 H 0.63919 0.77378 0.75522 0.0
H3355 H 0.61502 0.75018 0.76175 0.0
H3356 H 0.61285 0.77021 0.73436 0.0
H3357 H 0.70629 0.70378 0.75238 0.0
H3358 H 0.70485 0.68085 0.72696 0.0
H3359 H 0.68567 0.67603 0.75422 0.0
C3360 C 0.91395 0.24764 0.68897 0.0
C3361 C 0.93228 0.26434 0.67866 0.0
C3362 C 0.91159 0.24479 0.71483 0.0
C3363 C 0.92777 0.25921 0.73074 0.0
C3364 C 0.94587 0.27663 0.72047 0.0
C3365 C 0.94801 0.27888 0.69451 0.0
C3366 C 0.8922 0.22591 0.72512 0.0
C3367 C 0.96326 0.29257 0.73692 0.0
C3368 C 0.91048 0.26948 0.79846 0.0
C3369 C 0.92653 0.25224 0.8105 0.0
C3370 C 0.91022 0.27151 0.77242 0.0
C3371 C 0.92618 0.25571 0.75814 0.0
C3372 C 0.94146 0.23734 0.77012 0.0
C3373 C 0.94154 0.23591 0.79621 0.0
C3374 C 0.89376 0.29141 0.76029 0.0
C3375 C 0.95847 0.2199 0.75544 0.0
H3376 H 0.90181 0.23625 0.67681 0.0
H3377 H 0.96217 0.29183 0.68662 0.0
H3378 H 0.90165 0.21041 0.73572 0.0
H3379 H 0.8796 0.23594 0.73828 0.0
H3380 H 0.88059 0.21672 0.71024 0.0
H3381 H 0.97559 0.30599 0.72603 0.0
H3382 H 0.9522 0.30412 0.75029 0.0
H3383 H 0.97527 0.27954 0.748 0.0
H3384 H 0.89892 0.28227 0.80941 0.0
H3385 H 0.95396 0.22253 0.80543 0.0
H3386 H 0.88202 0.28223 0.74555 0.0
H3387 H 0.9057 0.30654 0.7512 0.0
H3388 H 0.88125 0.30098 0.7739 0.0
H3389 H 0.94765 0.20953 0.74072 0.0
H3390 H 0.96772 0.20535 0.76743 0.0
H3391 H 0.97323 0.23179 0.74603 0.0
C3392 C 0.62181 0.76254 0.05785 0.0
C3393 C 0.61371 0.74053 0.07106 0.0
C3394 C 0.62796 0.76093 0.03263 0.0
C3395 C 0.62589 0.73667 0.0204 0.0
C3396 C 0.61965 0.714 0.0341 0.0
C3397 C 0.61361 0.71619 0.05944 0.0
C3398 C 0.63484 0.78554 0.0187 0.0
C3399 C 0.6175 0.68779 0.02167 0.0
C3400 C 0.6075 0.74578 0.95327 0.0
C3401 C 0.63091 0.74522 0.94148 0.0
C3402 C 0.60538 0.74114 0.97888 0.0
C3403 C 0.62725 0.73603 0.99291 0.0
C3404 C 0.6507 0.73393 0.98085 0.0
C3405 C 0.65224 0.73849 0.95517 0.0
C3406 C 0.57997 0.74329 0.99114 0.0
C3407 C 0.67433 0.72829 0.99527 0.0
H3408 H 0.62218 0.78132 0.06695 0.0
H3409 H 0.60735 0.69914 0.06969 0.0
H3410 H 0.65206 0.78282 0.00746 0.0
H3411 H 0.61948 0.7904 0.00564 0.0
H3412 H 0.63802 0.80228 0.03143 0.0
H3413 H 0.61745 0.67174 0.03548 0.0
H3414 H 0.5997 0.68657 0.01097 0.0
H3415 H 0.63313 0.68498 0.00835 0.0
H3416 H 0.59094 0.75067 0.94266 0.0
H3417 H 0.67035 0.73777 0.94602 0.0
H3418 H 0.57983 0.76072 0.00328 0.0
H3419 H 0.57608 0.72617 0.00314 0.0
H3420 H 0.56455 0.74487 0.97732 0.0
H3421 H 0.67845 0.74432 0.00853 0.0
H3422 H 0.69084 0.72604 0.98288 0.0
H3423 H 0.6717 0.71031 0.0064 0.0
C3424 C 0.88131 0.21611 0.29754 0.0
C3425 C 0.89902 0.22668 0.31422 0.0
C3426 C 0.8806 0.22422 0.27263 0.0
C3427 C 0.89794 0.24344 0.26427 0.0
C3428 C 0.91581 0.25424 0.28102 0.0
C3429 C 0.91616 0.24569 0.30582 0.0
C3430 C 0.86141 0.21213 0.25524 0.0
C3431 C 0.93461 0.27477 0.27272 0.0
C3432 C 0.91293 0.24994 0.19547 0.0
C3433 C 0.89857 0.27136 0.1888 0.0
C3434 C 0.91239 0.24017 0.21986 0.0
C3435 C 0.89738 0.25238 0.238 0.0
C3436 C 0.88246 0.27368 0.23124 0.0
C3437 C 0.88313 0.28283 0.20665 0.0
C3438 C 0.92824 0.21714 0.22635 0.0
C3439 C 0.86633 0.28725 0.25014 0.0
H3440 H 0.8681 0.20128 0.30388 0.0
H3441 H 0.92994 0.25385 0.31861 0.0
H3442 H 0.84951 0.22739 0.24711 0.0
H3443 H 0.87104 0.20243 0.23957 0.0
H3444 H 0.84908 0.19761 0.26477 0.0
H3445 H 0.94718 0.28129 0.2881 0.0
H3446 H 0.94632 0.26714 0.25739 0.0
H3447 H 0.92467 0.29186 0.26534 0.0
H3448 H 0.92481 0.24094 0.18168 0.0
H3449 H 0.87209 0.29948 0.20161 0.0
H3450 H 0.91636 0.20146 0.2346 0.0
H3451 H 0.94245 0.22284 0.24054 0.0
H3452 H 0.93811 0.20926 0.20985 0.0
H3453 H 0.85326 0.27311 0.25916 0.0
H3454 H 0.85519 0.30297 0.24168 0.0
H3455 H 0.87837 0.29578 0.26502 0.0
C3456 C 0.88222 0.26563 0.55046 0.0
C3457 C 0.90112 0.28229 0.55952 0.0
C3458 C 0.87825 0.2628 0.52483 0.0
C3459 C 0.89371 0.277 0.50804 0.0
C3460 C 0.91011 0.29674 0.51726 0.0
C3461 C 0.91367 0.29918 0.54312 0.0
C3462 C 0.86037 0.24168 0.51594 0.0
C3463 C 0.92624 0.31297 0.49996 0.0
C3464 C 0.91704 0.23507 0.45542 0.0
C3465 C 0.90056 0.24117 0.43612 0.0
C3466 C 0.91545 0.24731 0.4786 0.0
C3467 C 0.89722 0.2666 0.48247 0.0
C3468 C 0.88128 0.27377 0.46265 0.0
C3469 C 0.88291 0.26068 0.43974 0.0
C3470 C 0.93308 0.23915 0.49906 0.0
C3471 C 0.86212 0.2947 0.46576 0.0
H3472 H 0.8726 0.25254 0.56328 0.0
H3473 H 0.92845 0.31195 0.55015 0.0
H3474 H 0.84966 0.24812 0.49944 0.0
H3475 H 0.87127 0.22448 0.51037 0.0
H3476 H 0.84689 0.23564 0.53073 0.0
H3477 H 0.93276 0.33124 0.50907 0.0
H3478 H 0.94305 0.30188 0.49459 0.0
H3479 H 0.9159 0.31777 0.48267 0.0
H3480 H 0.93086 0.22019 0.45264 0.0
H3481 H 0.87032 0.26569 0.4247 0.0
H3482 H 0.92236 0.23346 0.51598 0.0
H3483 H 0.94563 0.25574 0.50401 0.0
H3484 H 0.94493 0.22263 0.49348 0.0
H3485 H 0.84558 0.28672 0.47592 0.0
H3486 H 0.8556 0.30213 0.44749 0.0
H3487 H 0.86991 0.31116 0.47682 0.0
C3488 C 0.36425 0.26304 0.69539 0.0
C3489 C 0.35311 0.28377 0.68304 0.0
C3490 C 0.35998 0.25877 0.72076 0.0
C3491 C 0.34417 0.27569 0.734 0.0
C3492 C 0.33178 0.29581 0.72136 0.0
C3493 C 0.33641 0.29964 0.69592 0.0
C3494 C 0.37339 0.23693 0.73364 0.0
C3495 C 0.31467 0.31406 0.73493 0.0
C3496 C 0.32721 0.24906 0.79724 0.0
C3497 C 0.34667 0.25976 0.81177 0.0
C3498 C 0.32483 0.25569 0.77208 0.0
C3499 C 0.34241 0.27328 0.76137 0.0
C3500 C 0.36075 0.28579 0.77646 0.0
C3501 C 0.36262 0.2789 0.8016 0.0
C3502 C 0.30479 0.2423 0.75659 0.0
C3503 C 0.37974 0.30481 0.76565 0.0
H3504 H 0.37703 0.25062 0.68544 0.0
H3505 H 0.32774 0.3157 0.6864 0.0
H3506 H 0.3869 0.24505 0.74746 0.0
H3507 H 0.35976 0.22441 0.74393 0.0
H3508 H 0.38384 0.22463 0.72036 0.0
H3509 H 0.30383 0.32626 0.72188 0.0
H3510 H 0.30133 0.30307 0.74701 0.0
H3511 H 0.32603 0.32704 0.74718 0.0
H3512 H 0.31464 0.23446 0.80514 0.0
H3513 H 0.37755 0.2874 0.81284 0.0
H3514 H 0.3135 0.22716 0.74492 0.0
H3515 H 0.29575 0.25625 0.74385 0.0
H3516 H 0.29008 0.23287 0.76836 0.0
H3517 H 0.39305 0.29426 0.7536 0.0
H3518 H 0.39067 0.31515 0.78035 0.0
H3519 H 0.37034 0.31937 0.75385 0.0
C3520 C 0.6377 0.742 0.56706 0.0
C3521 C 0.6157 0.73071 0.57696 0.0
C3522 C 0.63874 0.75004 0.54215 0.0
C3523 C 0.61735 0.74641 0.5269 0.0
C3524 C 0.59452 0.73701 0.53735 0.0
C3525 C 0.59395 0.72931 0.56236 0.0
C3526 C 0.6632 0.76059 0.53174 0.0
C3527 C 0.5712 0.73314 0.52166 0.0
C3528 C 0.61044 0.76978 0.46048 0.0
C3529 C 0.61424 0.74657 0.44759 0.0
C3530 C 0.61308 0.77075 0.48648 0.0
C3531 C 0.61974 0.74801 0.49949 0.0
C3532 C 0.6258 0.72527 0.48616 0.0
C3533 C 0.62287 0.72484 0.46033 0.0
C3534 C 0.60665 0.79538 0.50003 0.0
C3535 C 0.63328 0.70066 0.49932 0.0
H3536 H 0.65446 0.74356 0.57845 0.0
H3537 H 0.57682 0.72094 0.57006 0.0
H3538 H 0.67221 0.74542 0.52035 0.0
H3539 H 0.65989 0.77746 0.51941 0.0
H3540 H 0.67647 0.7666 0.54673 0.0
H3541 H 0.55438 0.7284 0.53313 0.0
H3542 H 0.56747 0.75083 0.51063 0.0
H3543 H 0.57409 0.71703 0.50831 0.0
H3544 H 0.60353 0.78653 0.45058 0.0
H3545 H 0.6259 0.70696 0.45021 0.0
H3546 H 0.61904 0.79858 0.51639 0.0
H3547 H 0.58702 0.79385 0.50687 0.0
H3548 H 0.60816 0.81256 0.48757 0.0
H3549 H 0.64865 0.70475 0.51278 0.0
H3550 H 0.63956 0.68553 0.48611 0.0
H3551 H 0.61703 0.69273 0.51002 0.0
C3552 C 0.44547 0.49954 0.37397 0.0
C3553 C 0.43756 0.52152 0.38692 0.0
C3554 C 0.46958 0.48985 0.3775 0.0
C3555 C 0.48607 0.50232 0.39459 0.0
C3556 C 0.47746 0.52316 0.40924 0.0
C3557 C 0.45327 0.53264 0.40514 0.0
C3558 C 0.47803 0.46753 0.3615 0.0
C3559 C 0.49433 0.53659 0.428 0.0
C3560 C 0.5463 0.46579 0.4045 0.0
C3561 C 0.56176 0.47721 0.38624 0.0
C3562 C 0.52202 0.47493 0.40882 0.0
C3563 C 0.51307 0.49575 0.39434 0.0
C3564 C 0.52927 0.50847 0.37715 0.0
C3565 C 0.55346 0.49911 0.37341 0.0
C3566 C 0.50545 0.46124 0.42767 0.0
C3567 C 0.52046 0.53078 0.36135 0.0
H3568 H 0.43335 0.49072 0.36 0.0
H3569 H 0.4472 0.54955 0.41533 0.0
H3570 H 0.49243 0.4746 0.34805 0.0
H3571 H 0.4868 0.45242 0.37314 0.0
H3572 H 0.46228 0.45844 0.35087 0.0
H3573 H 0.48353 0.54882 0.44106 0.0
H3574 H 0.50504 0.52224 0.43889 0.0
H3575 H 0.50812 0.54926 0.41809 0.0
H3576 H 0.55265 0.44892 0.41458 0.0
H3577 H 0.56539 0.50817 0.35941 0.0
H3578 H 0.49164 0.44854 0.41783 0.0
H3579 H 0.49475 0.47543 0.43877 0.0
H3580 H 0.51647 0.44901 0.44054 0.0
H3581 H 0.5058 0.5237 0.34817 0.0
H3582 H 0.53598 0.53991 0.35042 0.0
H3583 H 0.51191 0.54584 0.37319 0.0
C3584 C 0.44329 0.98723 0.70548 0.0
C3585 C 0.43218 0.00496 0.68924 0.0
C3586 C 0.46934 0.9835 0.70521 0.0
C3587 C 0.48461 0.99801 0.68846 0.0
C3588 C 0.47346 0.0158 0.67193 0.0
C3589 C 0.44737 0.01898 0.67245 0.0
C3590 C 0.48054 0.96418 0.72297 0.0
C3591 C 0.48914 0.03174 0.65392 0.0
C3592 C 0.55385 0.00664 0.70408 0.0
C3593 C 0.56479 0.98833 0.68835 0.0
C3594 C 0.52777 0.01013 0.70418 0.0
C3595 C 0.51229 0.99475 0.68836 0.0
C3596 C 0.52325 0.97628 0.6724 0.0
C3597 C 0.54939 0.97338 0.67251 0.0
C3598 C 0.51678 0.03021 0.72127 0.0
C3599 C 0.50734 0.9594 0.65538 0.0
H3600 H 0.43165 0.97633 0.71849 0.0
H3601 H 0.43893 0.0328 0.65992 0.0
H3602 H 0.49122 0.94952 0.71244 0.0
H3603 H 0.49398 0.97423 0.73566 0.0
H3604 H 0.46603 0.95398 0.73438 0.0
H3605 H 0.47755 0.04461 0.64217 0.0
H3606 H 0.50297 0.04391 0.66433 0.0
H3607 H 0.4999 0.01879 0.64155 0.0
H3608 H 0.56566 0.01827 0.71635 0.0
H3609 H 0.55771 0.95909 0.66039 0.0
H3610 H 0.50347 0.02075 0.73449 0.0
H3611 H 0.506 0.04441 0.71027 0.0
H3612 H 0.53142 0.04089 0.73212 0.0
H3613 H 0.49365 0.94781 0.66654 0.0
H3614 H 0.51878 0.94593 0.64414 0.0
H3615 H 0.49642 0.97169 0.64253 0.0
C3616 C 0.05482 0.50298 0.34816 0.0
C3617 C 0.06474 0.48726 0.32941 0.0
C3618 C 0.02882 0.50524 0.35107 0.0
C3619 C 0.01253 0.49191 0.33445 0.0
C3620 C 0.02241 0.47455 0.31669 0.0
C3621 C 0.04847 0.47211 0.31468 0.0
C3622 C 0.0189 0.52326 0.37076 0.0
C3623 C 0.00562 0.4602 0.29842 0.0
C3624 C 0.94206 0.48686 0.3427 0.0
C3625 C 0.934 0.50629 0.32642 0.0
C3626 C 0.96769 0.48281 0.34666 0.0
C3627 C 0.98554 0.49824 0.33362 0.0
C3628 C 0.97751 0.51876 0.31818 0.0
C3629 C 0.95177 0.52281 0.31511 0.0
C3630 C 0.97561 0.46123 0.36378 0.0
C3631 C 0.99604 0.53546 0.30374 0.0
H3632 H 0.06737 0.51442 0.35987 0.0
H3633 H 0.05603 0.45965 0.3004 0.0
H3634 H 0.01224 0.54126 0.36182 0.0
H3635 H 0.00267 0.51417 0.38061 0.0
H3636 H 0.03352 0.52868 0.38468 0.0
H3637 H 0.016 0.44568 0.28737 0.0
H3638 H 0.98993 0.45017 0.30827 0.0
H3639 H 0.99726 0.47431 0.28536 0.0
H3640 H 0.92833 0.47422 0.35173 0.0
H3641 H 0.94565 0.53802 0.30273 0.0
H3642 H 0.99078 0.46809 0.37647 0.0
H3643 H 0.98317 0.44507 0.35259 0.0
H3644 H 0.95971 0.45354 0.37515 0.0
H3645 H 0.01018 0.54426 0.3165 0.0
H3646 H 0.98676 0.55126 0.29334 0.0
H3647 H 0.00628 0.52328 0.29021 0.0
C3648 C 0.05152 0.02371 0.55607 0.0
C3649 C 0.06532 0.01049 0.57421 0.0
C3650 C 0.02524 0.02145 0.55505 0.0
C3651 C 0.01253 0.00438 0.5716 0.0
C3652 C 0.02653 0.98953 0.58872 0.0
C3653 C 0.05271 0.99308 0.5901 0.0
C3654 C 0.01104 0.03828 0.53707 0.0
C3655 C 0.01384 0.97008 0.60576 0.0
C3656 C 0.94405 0.01275 0.5896 0.0
C3657 C 0.93191 0.99486 0.57383 0.0
C3658 C 0.97018 0.01697 0.58822 0.0
C3659 C 0.98458 0.00226 0.57132 0.0
C3660 C 0.97229 0.98488 0.55476 0.0
C3661 C 0.94607 0.982 0.55572 0.0
C3662 C 0.98246 0.03663 0.60534 0.0
C3663 C 0.98691 0.96824 0.53695 0.0
H3664 H 0.06108 0.03684 0.54336 0.0
H3665 H 0.06326 0.98251 0.60392 0.0
H3666 H 0.9987 0.02618 0.52495 0.0
H3667 H 0.99876 0.0515 0.54764 0.0
H3668 H 0.02377 0.05017 0.52508 0.0
H3669 H 0.02743 0.96033 0.61815 0.0
H3670 H -0.00037 0.97972 0.61747 0.0
H3671 H 0.00387 0.9551 0.59444 0.0
H3672 H 0.93324 0.02303 0.60341 0.0
H3673 H 0.93687 0.96856 0.54304 0.0
H3674 H 0.99439 0.05037 0.59442 0.0
H3675 H 0.99486 0.0267 0.61876 0.0
H3676 H 0.96843 0.04782 0.61596 0.0
H3677 H -0.00066 0.98048 0.52504 0.0
H3678 H 0.97447 0.95626 0.52474 0.0
H3679 H 0.99914 0.9551 0.54767 0.0
C3680 C 0.89304 0.27419 0.94728 0.0
C3681 C 0.90423 0.25349 0.93494 0.0
C3682 C 0.89154 0.27475 0.97329 0.0
C3683 C 0.90181 0.25421 0.98724 0.0
C3684 C 0.9114 0.23228 0.97479 0.0
C3685 C 0.91235 0.2321 0.94863 0.0
C3686 C 0.8809 0.29837 0.98581 0.0
C3687 C 0.92252 0.21006 0.98907 0.0
C3688 C 0.92838 0.27726 0.04893 0.0
C3689 C 0.90874 0.2709 0.06528 0.0
C3690 C 0.92687 0.27069 0.02363 0.0
C3691 C 0.90519 0.25746 0.01452 0.0
C3692 C 0.88584 0.24989 0.03117 0.0
C3693 C 0.88784 0.25673 0.0564 0.0
C3694 C 0.94797 0.27906 0.00643 0.0
C3695 C 0.86248 0.23575 0.02215 0.0
H3696 H 0.88684 0.29074 0.93661 0.0
H3697 H 0.92136 0.21626 0.93908 0.0
H3698 H 0.8675 0.29254 0.00069 0.0
H3699 H 0.89633 0.30979 0.9947 0.0
H3700 H 0.87112 0.31113 0.97242 0.0
H3701 H 0.92635 0.19319 0.97686 0.0
H3702 H 0.94043 0.21657 0.99781 0.0
H3703 H 0.90972 0.2037 0.00429 0.0
H3704 H 0.94463 0.28806 0.05572 0.0
H3705 H 0.87264 0.25163 0.06901 0.0
H3706 H 0.94123 0.29414 0.99343 0.0
H3707 H 0.95413 0.26244 0.99502 0.0
H3708 H 0.96444 0.28707 0.01676 0.0
H3709 H 0.85108 0.2491 0.01077 0.0
H3710 H 0.85072 0.22839 0.0378 0.0
H3711 H 0.86749 0.21919 0.01005 0.0
C3712 C 0.12319 0.74481 0.44187 0.0
C3713 C 0.10417 0.76164 0.4345 0.0
C3714 C 0.12317 0.73376 0.46577 0.0
C3715 C 0.10398 0.74016 0.48275 0.0
C3716 C 0.08431 0.7565 0.47509 0.0
C3717 C 0.08457 0.76689 0.45098 0.0
C3718 C 0.14404 0.71589 0.47308 0.0
C3719 C 0.06346 0.76386 0.49267 0.0
C3720 C 0.08644 0.70915 0.54416 0.0
C3721 C 0.09559 0.72826 0.56047 0.0
C3722 C 0.09135 0.71102 0.51849 0.0
C3723 C 0.1056 0.7325 0.50935 0.0
C3724 C 0.11745 0.74984 0.52629 0.0
C3725 C 0.11225 0.74747 0.55171 0.0
C3726 C 0.07888 0.69177 0.50108 0.0
C3727 C 0.13282 0.77299 0.51746 0.0
H3728 H 0.13821 0.74041 0.42901 0.0
H3729 H 0.06976 0.77974 0.4453 0.0
H3730 H 0.15674 0.72587 0.48653 0.0
H3731 H 0.13628 0.69831 0.48246 0.0
H3732 H 0.15533 0.70984 0.45676 0.0
H3733 H 0.04933 0.77632 0.4836 0.0
H3734 H 0.05374 0.74616 0.49982 0.0
H3735 H 0.07141 0.77446 0.50894 0.0
H3736 H 0.07327 0.69448 0.55096 0.0
H3737 H 0.11918 0.76227 0.56447 0.0
H3738 H 0.09082 0.68803 0.48458 0.0
H3739 H 0.06089 0.69975 0.49439 0.0
H3740 H 0.07464 0.67309 0.51066 0.0
H3741 H 0.14608 0.76736 0.50259 0.0
H3742 H 0.14366 0.78222 0.53287 0.0
H3743 H 0.1201 0.78765 0.50951 0.0
loop_
_geom_bond_atom_site_label_1
_geom_bond_atom_site_label_2
_geom_bond_distance
_geom_bond_site_symmetry_2
_ccdc_geom_bond_type
Co0 O1 2.216 . S
Co0 O2 2.091 . S
Co0 O4 2.004 . S
Co0 O10 2.021 . S
Co0 O12 2.137 . S
Co0 O13 2.244 . S
O1 Co0 2.216 . S
O1 C8 1.247 . S
O2 Co0 2.091 . S
O2 C8 1.261 . S
C3 O12 1.247 . S
C3 O13 1.272 . S
O4 Co0 2.004 . S
O4 C9 1.259 . S
Co5 O6 2.061 . S
Co5 O11 2.052 . S
Co5 O13 2.135 . S
O6 Co5 2.061 . S
O6 C9 1.235 . S
C7 O10 1.238 . S
C7 O11 1.241 . S
C8 O1 1.247 . S
C8 O2 1.261 . S
C9 O4 1.259 . S
C9 O6 1.235 . S
O10 Co0 2.021 . S
O10 C7 1.238 . S
O11 Co5 2.052 . S
O11 C7 1.241 . S
O12 Co0 2.137 . S
O12 C3 1.247 . S
O13 Co0 2.244 . S
O13 C3 1.272 . S
O13 Co5 2.135 . S
Co14 O15 2.216 . S
Co14 O16 2.091 . S
Co14 O18 2.004 . S
Co14 O24 2.021 . S
Co14 O26 2.137 . S
Co14 O27 2.244 . S
O15 Co14 2.216 . S
O15 C22 1.247 . S
O16 Co14 2.091 . S
O16 C22 1.261 . S
C17 O26 1.247 . S
C17 O27 1.272 . S
O18 Co14 2.004 . S
O18 C23 1.259 . S
Co19 O20 2.061 . S
Co19 O25 2.052 . S
Co19 O27 2.135 . S
O20 Co19 2.061 . S
O20 C23 1.235 . S
C21 O24 1.238 . S
C21 O25 1.241 . S
C22 O15 1.247 . S
C22 O16 1.261 . S
C23 O18 1.259 . S
C23 O20 1.235 . S
O24 Co14 2.021 . S
O24 C21 1.238 . S
O25 Co19 2.052 . S
O25 C21 1.241 . S
O26 Co14 2.137 . S
O26 C17 1.247 . S
O27 Co14 2.244 . S
O27 C17 1.272 . S
O27 Co19 2.135 . S
Co28 O29 2.216 . S
Co28 O30 2.091 . S
Co28 O32 2.004 . S
Co28 O38 2.021 . S
Co28 O40 2.137 . S
Co28 O41 2.244 . S
O29 Co28 2.216 . S
O29 C36 1.247 . S
O30 Co28 2.091 . S
O30 C36 1.261 . S
C31 O40 1.247 . S
C31 O41 1.272 . S
O32 Co28 2.004 . S
O32 C37 1.259 . S
Co33 O34 2.061 . S
Co33 O39 2.052 . S
Co33 O41 2.135 . S
O34 Co33 2.061 . S
O34 C37 1.235 . S
C35 O38 1.238 . S
C35 O39 1.241 . S
C36 O29 1.247 . S
C36 O30 1.261 . S
C37 O32 1.259 . S
C37 O34 1.235 . S
O38 Co28 2.021 . S
O38 C35 1.238 . S
O39 Co33 2.052 . S
O39 C35 1.241 . S
O40 Co28 2.137 . S
O40 C31 1.247 . S
O41 Co28 2.244 . S
O41 C31 1.272 . S
O41 Co33 2.135 . S
Co42 O43 2.216 . S
Co42 O44 2.091 . S
Co42 O46 2.004 1_565 S
Co42 O52 2.021 . S
Co42 O54 2.137 1_565 S
Co42 O55 2.244 1_565 S
O43 Co42 2.216 . S
O43 C50 1.247 . S
O44 Co42 2.091 . S
O44 C50 1.261 . S
C45 O54 1.247 . S
C45 O55 1.272 . S
O46 Co42 2.004 1_545 S
O46 C51 1.259 . S
Co47 O48 2.061 . S
Co47 O53 2.052 . S
Co47 O55 2.135 . S
O48 Co47 2.061 . S
O48 C51 1.235 . S
C49 O52 1.238 . S
C49 O53 1.241 1_565 S
C50 O43 1.247 . S
C50 O44 1.261 . S
C51 O46 1.259 . S
C51 O48 1.235 . S
O52 Co42 2.021 . S
O52 C49 1.238 . S
O53 Co47 2.052 . S
O53 C49 1.241 1_545 S
O54 Co42 2.137 1_545 S
O54 C45 1.247 . S
O55 Co42 2.244 1_545 S
O55 C45 1.272 . S
O55 Co47 2.135 . S
Co56 O57 2.216 . S
Co56 O58 2.091 . S
Co56 O60 2.004 . S
Co56 O66 2.021 . S
Co56 O68 2.137 . S
Co56 O69 2.244 . S
O57 Co56 2.216 . S
O57 C64 1.247 . S
O58 Co56 2.091 . S
O58 C64 1.261 . S
C59 O68 1.247 . S
C59 O69 1.272 . S
O60 Co56 2.004 . S
O60 C65 1.259 . S
Co61 O62 2.061 . S
Co61 O67 2.052 . S
Co61 O69 2.135 . S
O62 Co61 2.061 . S
O62 C65 1.235 . S
C63 O66 1.238 . S
C63 O67 1.241 . S
C64 O57 1.247 . S
C64 O58 1.261 . S
C65 O60 1.259 . S
C65 O62 1.235 . S
O66 Co56 2.021 . S
O66 C63 1.238 . S
O67 Co61 2.052 . S
O67 C63 1.241 . S
O68 Co56 2.137 . S
O68 C59 1.247 . S
O69 Co56 2.244 . S
O69 C59 1.272 . S
O69 Co61 2.135 . S
Co70 O71 2.216 . S
Co70 O72 2.091 . S
Co70 O74 2.004 . S
Co70 O80 2.021 . S
Co70 O82 2.137 . S
Co70 O83 2.244 . S
O71 Co70 2.216 . S
O71 C78 1.247 . S
O72 Co70 2.091 . S
O72 C78 1.261 . S
C73 O82 1.247 . S
C73 O83 1.272 . S
O74 Co70 2.004 . S
O74 C79 1.259 . S
Co75 O76 2.061 . S
Co75 O81 2.052 . S
Co75 O83 2.135 . S
O76 Co75 2.061 . S
O76 C79 1.235 . S
C77 O80 1.238 . S
C77 O81 1.241 . S
C78 O71 1.247 . S
C78 O72 1.261 . S
C79 O74 1.259 . S
C79 O76 1.235 . S
O80 Co70 2.021 . S
O80 C77 1.238 . S
O81 Co75 2.052 . S
O81 C77 1.241 . S
O82 Co70 2.137 . S
O82 C73 1.247 . S
O83 Co70 2.244 . S
O83 C73 1.272 . S
O83 Co75 2.135 . S
Co84 O85 2.216 1_565 S
Co84 O86 2.091 . S
Co84 O88 2.004 . S
Co84 O94 2.021 1_565 S
Co84 O96 2.137 . S
Co84 O97 2.244 1_565 S
O85 Co84 2.216 1_545 S
O85 C92 1.247 1_545 S
O86 Co84 2.091 . S
O86 C92 1.261 . S
C87 O96 1.248 1_545 S
C87 O97 1.271 . S
O88 Co84 2.004 . S
O88 C93 1.259 . S
Co89 O90 2.061 . S
Co89 O95 2.052 . S
Co89 O97 2.135 . S
O90 Co89 2.061 . S
O90 C93 1.235 1_545 S
C91 O94 1.238 . S
C91 O95 1.241 . S
C92 O85 1.247 1_565 S
C92 O86 1.261 . S
C93 O88 1.259 . S
C93 O90 1.235 1_565 S
O94 Co84 2.021 1_545 S
O94 C91 1.238 . S
O95 Co89 2.052 . S
O95 C91 1.241 . S
O96 Co84 2.137 . S
O96 C87 1.248 1_565 S
O97 Co84 2.244 1_545 S
O97 C87 1.271 . S
O97 Co89 2.135 . S
Co98 O99 2.216 . S
Co98 O100 2.091 . S
Co98 O102 2.004 . S
Co98 O108 2.021 . S
Co98 O110 2.137 . S
Co98 O111 2.244 . S
O99 Co98 2.216 . S
O99 C106 1.247 . S
O100 Co98 2.091 . S
O100 C106 1.261 . S
C101 O110 1.247 . S
C101 O111 1.272 . S
O102 Co98 2.004 . S
O102 C107 1.259 . S
Co103 O104 2.061 . S
Co103 O109 2.052 . S
Co103 O111 2.135 . S
O104 Co103 2.061 . S
O104 C107 1.235 . S
C105 O108 1.238 . S
C105 O109 1.241 . S
C106 O99 1.247 . S
C106 O100 1.261 . S
C107 O102 1.259 . S
C107 O104 1.235 . S
O108 Co98 2.021 . S
O108 C105 1.238 . S
O109 Co103 2.052 . S
O109 C105 1.241 . S
O110 Co98 2.137 . S
O110 C101 1.247 . S
O111 Co98 2.244 . S
O111 C101 1.272 . S
O111 Co103 2.135 . S
Co112 O113 2.216 . S
Co112 O114 2.091 . S
Co112 O116 2.004 1_545 S
Co112 O122 2.021 . S
Co112 O124 2.137 1_545 S
Co112 O125 2.244 1_545 S
O113 Co112 2.216 . S
O113 C120 1.247 . S
O114 Co112 2.091 . S
O114 C120 1.261 . S
C115 O124 1.247 . S
C115 O125 1.272 . S
O116 Co112 2.004 1_565 S
O116 C121 1.259 . S
Co117 O118 2.061 . S
Co117 O123 2.052 . S
Co117 O125 2.135 . S
O118 Co117 2.061 . S
O118 C121 1.235 . S
C119 O122 1.238 . S
C119 O123 1.241 1_545 S
C120 O113 1.247 . S
C120 O114 1.261 . S
C121 O116 1.259 . S
C121 O118 1.235 . S
O122 Co112 2.021 . S
O122 C119 1.238 . S
O123 Co117 2.052 . S
O123 C119 1.241 1_565 S
O124 Co112 2.137 1_565 S
O124 C115 1.247 . S
O125 Co112 2.244 1_565 S
O125 C115 1.272 . S
O125 Co117 2.135 . S
Co126 O127 2.216 . S
Co126 O128 2.091 . S
Co126 O130 2.004 . S
Co126 O136 2.021 . S
Co126 O138 2.137 . S
Co126 O139 2.244 . S
O127 Co126 2.216 . S
O127 C134 1.247 . S
O128 Co126 2.091 . S
O128 C134 1.261 . S
C129 O138 1.247 . S
C129 O139 1.272 . S
O130 Co126 2.004 . S
O130 C135 1.259 . S
Co131 O132 2.061 . S
Co131 O137 2.052 . S
Co131 O139 2.135 . S
O132 Co131 2.061 . S
O132 C135 1.235 . S
C133 O136 1.238 . S
C133 O137 1.241 . S
C134 O127 1.247 . S
C134 O128 1.261 . S
C135 O130 1.259 . S
C135 O132 1.235 . S
O136 Co126 2.021 . S
O136 C133 1.238 . S
O137 Co131 2.052 . S
O137 C133 1.241 . S
O138 Co126 2.137 . S
O138 C129 1.247 . S
O139 Co126 2.244 . S
O139 C129 1.272 . S
O139 Co131 2.135 . S
Co140 O141 2.216 . S
Co140 O142 2.091 . S
Co140 O144 2.004 . S
Co140 O150 2.021 1_554 S
Co140 O152 2.137 . S
Co140 O153 2.244 1_554 S
O141 Co140 2.216 . S
O141 C148 1.247 . S
O142 Co140 2.091 . S
O142 C148 1.261 . S
C143 O152 1.247 1_556 S
C143 O153 1.272 . S
O144 Co140 2.004 . S
O144 C149 1.259 1_554 S
Co145 O146 2.061 . S
Co145 O151 2.052 . S
Co145 O153 2.135 . S
O146 Co145 2.061 . S
O146 C149 1.235 . S
C147 O150 1.238 . S
C147 O151 1.241 . S
C148 O141 1.247 . S
C148 O142 1.261 . S
C149 O144 1.259 1_556 S
C149 O146 1.235 . S
O150 Co140 2.021 1_556 S
O150 C147 1.238 . S
O151 Co145 2.052 . S
O151 C147 1.241 . S
O152 Co140 2.137 . S
O152 C143 1.247 1_554 S
O153 Co140 2.244 1_556 S
O153 C143 1.272 . S
O153 Co145 2.135 . S
Co154 O155 2.216 . S
Co154 O156 2.091 . S
Co154 O158 2.004 . S
Co154 O164 2.021 . S
Co154 O166 2.137 . S
Co154 O167 2.244 . S
O155 Co154 2.216 . S
O155 C162 1.247 . S
O156 Co154 2.091 . S
O156 C162 1.261 . S
C157 O166 1.247 . S
C157 O167 1.272 . S
O158 Co154 2.004 . S
O158 C163 1.259 . S
Co159 O160 2.061 . S
Co159 O165 2.052 . S
Co159 O167 2.135 . S
O160 Co159 2.061 . S
O160 C163 1.235 . S
C161 O164 1.238 . S
C161 O165 1.241 . S
C162 O155 1.247 . S
C162 O156 1.261 . S
C163 O158 1.259 . S
C163 O160 1.235 . S
O164 Co154 2.021 . S
O164 C161 1.238 . S
O165 Co159 2.052 . S
O165 C161 1.241 . S
O166 Co154 2.137 . S
O166 C157 1.247 . S
O167 Co154 2.244 . S
O167 C157 1.272 . S
O167 Co159 2.135 . S
Co168 O169 2.216 . S
Co168 O170 2.091 . S
Co168 O172 2.004 . S
Co168 O178 2.021 . S
Co168 O180 2.137 . S
Co168 O181 2.244 . S
O169 Co168 2.216 . S
O169 C176 1.247 . S
O170 Co168 2.091 . S
O170 C176 1.261 . S
C171 O180 1.247 . S
C171 O181 1.272 . S
O172 Co168 2.004 . S
O172 C177 1.259 . S
Co173 O174 2.061 . S
Co173 O179 2.052 . S
Co173 O181 2.135 . S
O174 Co173 2.061 . S
O174 C177 1.235 . S
C175 O178 1.238 . S
C175 O179 1.241 . S
C176 O169 1.247 . S
C176 O170 1.261 . S
C177 O172 1.259 . S
C177 O174 1.235 . S
O178 Co168 2.021 . S
O178 C175 1.238 . S
O179 Co173 2.052 . S
O179 C175 1.241 . S
O180 Co168 2.137 . S
O180 C171 1.247 . S
O181 Co168 2.244 . S
O181 C171 1.272 . S
O181 Co173 2.135 . S
Co182 O183 2.216 . S
Co182 O184 2.091 . S
Co182 O186 2.004 . S
Co182 O192 2.021 . S
Co182 O194 2.137 . S
Co182 O195 2.244 . S
O183 Co182 2.216 . S
O183 C190 1.247 . S
O184 Co182 2.091 . S
O184 C190 1.261 . S
C185 O194 1.247 . S
C185 O195 1.272 . S
O186 Co182 2.004 . S
O186 C191 1.259 . S
Co187 O188 2.061 . S
Co187 O193 2.052 . S
Co187 O195 2.135 . S
O188 Co187 2.061 . S
O188 C191 1.235 . S
C189 O192 1.238 . S
C189 O193 1.241 . S
C190 O183 1.247 . S
C190 O184 1.261 . S
C191 O186 1.259 . S
C191 O188 1.235 . S
O192 Co182 2.021 . S
O192 C189 1.238 . S
O193 Co187 2.052 . S
O193 C189 1.241 . S
O194 Co182 2.137 . S
O194 C185 1.247 . S
O195 Co182 2.244 . S
O195 C185 1.272 . S
O195 Co187 2.135 . S
Co196 O197 2.216 . S
Co196 O198 2.091 . S
Co196 O200 2.004 . S
Co196 O206 2.021 . S
Co196 O208 2.137 . S
Co196 O209 2.244 . S
O197 Co196 2.216 . S
O197 C204 1.247 . S
O198 Co196 2.091 . S
O198 C204 1.261 . S
C199 O208 1.247 . S
C199 O209 1.272 . S
O200 Co196 2.004 . S
O200 C205 1.259 . S
Co201 O202 2.061 . S
Co201 O207 2.052 . S
Co201 O209 2.135 . S
O202 Co201 2.061 . S
O202 C205 1.235 . S
C203 O206 1.238 . S
C203 O207 1.241 . S
C204 O197 1.247 . S
C204 O198 1.261 . S
C205 O200 1.259 . S
C205 O202 1.235 . S
O206 Co196 2.021 . S
O206 C203 1.238 . S
O207 Co201 2.052 . S
O207 C203 1.241 . S
O208 Co196 2.137 . S
O208 C199 1.247 . S
O209 Co196 2.244 . S
O209 C199 1.272 . S
O209 Co201 2.135 . S
Co210 O211 2.216 . S
Co210 O212 2.091 . S
Co210 O214 2.004 1_455 S
Co210 O220 2.021 1_455 S
Co210 O222 2.137 . S
Co210 O223 2.244 . S
O211 Co210 2.216 . S
O211 C218 1.247 . S
O212 Co210 2.091 . S
O212 C218 1.261 . S
C213 O222 1.247 . S
C213 O223 1.272 . S
O214 Co210 2.004 1_655 S
O214 C219 1.259 . S
Co215 O216 2.061 . S
Co215 O221 2.052 . S
Co215 O223 2.135 1_655 S
O216 Co215 2.061 . S
O216 C219 1.235 . S
C217 O220 1.238 . S
C217 O221 1.241 . S
C218 O211 1.247 . S
C218 O212 1.261 . S
C219 O214 1.259 . S
C219 O216 1.235 . S
O220 Co210 2.021 1_655 S
O220 C217 1.238 . S
O221 Co215 2.052 . S
O221 C217 1.241 . S
O222 Co210 2.137 . S
O222 C213 1.247 . S
O223 Co210 2.244 . S
O223 C213 1.272 . S
O223 Co215 2.135 1_455 S
Co224 O225 2.216 . S
Co224 O226 2.091 . S
Co224 O228 2.004 . S
Co224 O234 2.021 . S
Co224 O236 2.137 . S
Co224 O237 2.244 . S
O225 Co224 2.216 . S
O225 C232 1.247 . S
O226 Co224 2.091 . S
O226 C232 1.261 . S
C227 O236 1.247 . S
C227 O237 1.272 . S
O228 Co224 2.004 . S
O228 C233 1.259 . S
Co229 O230 2.061 . S
Co229 O235 2.052 . S
Co229 O237 2.135 . S
O230 Co229 2.061 . S
O230 C233 1.235 . S
C231 O234 1.238 . S
C231 O235 1.241 . S
C232 O225 1.247 . S
C232 O226 1.261 . S
C233 O228 1.259 . S
C233 O230 1.235 . S
O234 Co224 2.021 . S
O234 C231 1.238 . S
O235 Co229 2.052 . S
O235 C231 1.241 . S
O236 Co224 2.137 . S
O236 C227 1.247 . S
O237 Co224 2.244 . S
O237 C227 1.272 . S
O237 Co229 2.135 . S
Co238 O239 2.216 . S
Co238 O240 2.091 . S
Co238 O242 2.004 . S
Co238 O248 2.021 . S
Co238 O250 2.137 . S
Co238 O251 2.244 . S
O239 Co238 2.216 . S
O239 C246 1.247 . S
O240 Co238 2.091 . S
O240 C246 1.261 . S
C241 O250 1.247 . S
C241 O251 1.272 . S
O242 Co238 2.004 . S
O242 C247 1.259 . S
Co243 O244 2.061 . S
Co243 O249 2.052 . S
Co243 O251 2.135 . S
O244 Co243 2.061 . S
O244 C247 1.235 . S
C245 O248 1.238 . S
C245 O249 1.241 . S
C246 O239 1.247 . S
C246 O240 1.261 . S
C247 O242 1.259 . S
C247 O244 1.235 . S
O248 Co238 2.021 . S
O248 C245 1.238 . S
O249 Co243 2.052 . S
O249 C245 1.241 . S
O250 Co238 2.137 . S
O250 C241 1.247 . S
O251 Co238 2.244 . S
O251 C241 1.272 . S
O251 Co243 2.135 . S
Co252 O253 2.216 . S
Co252 O254 2.091 . S
Co252 O256 2.004 . S
Co252 O262 2.021 . S
Co252 O264 2.137 . S
Co252 O265 2.244 . S
O253 Co252 2.216 . S
O253 C260 1.247 . S
O254 Co252 2.091 . S
O254 C260 1.261 . S
C255 O264 1.247 . S
C255 O265 1.272 . S
O256 Co252 2.004 . S
O256 C261 1.259 . S
Co257 O258 2.061 . S
Co257 O263 2.052 . S
Co257 O265 2.135 . S
O258 Co257 2.061 . S
O258 C261 1.235 . S
C259 O262 1.238 . S
C259 O263 1.241 . S
C260 O253 1.247 . S
C260 O254 1.261 . S
C261 O256 1.259 . S
C261 O258 1.235 . S
O262 Co252 2.021 . S
O262 C259 1.238 . S
O263 Co257 2.052 . S
O263 C259 1.241 . S
O264 Co252 2.137 . S
O264 C255 1.247 . S
O265 Co252 2.244 . S
O265 C255 1.272 . S
O265 Co257 2.135 . S
Co266 O267 2.216 . S
Co266 O268 2.091 . S
Co266 O270 2.004 . S
Co266 O276 2.021 . S
Co266 O278 2.137 . S
Co266 O279 2.244 . S
O267 Co266 2.216 . S
O267 C274 1.247 . S
O268 Co266 2.091 . S
O268 C274 1.261 . S
C269 O278 1.247 . S
C269 O279 1.272 . S
O270 Co266 2.004 . S
O270 C275 1.259 . S
Co271 O272 2.061 . S
Co271 O277 2.052 . S
Co271 O279 2.135 . S
O272 Co271 2.061 . S
O272 C275 1.235 . S
C273 O276 1.238 . S
C273 O277 1.241 . S
C274 O267 1.247 . S
C274 O268 1.261 . S
C275 O270 1.259 . S
C275 O272 1.235 . S
O276 Co266 2.021 . S
O276 C273 1.238 . S
O277 Co271 2.052 . S
O277 C273 1.241 . S
O278 Co266 2.137 . S
O278 C269 1.247 . S
O279 Co266 2.244 . S
O279 C269 1.272 . S
O279 Co271 2.135 . S
Co280 O281 2.216 . S
Co280 O282 2.091 . S
Co280 O284 2.004 . S
Co280 O290 2.021 . S
Co280 O292 2.137 . S
Co280 O293 2.244 . S
O281 Co280 2.216 . S
O281 C288 1.247 . S
O282 Co280 2.091 . S
O282 C288 1.261 . S
C283 O292 1.247 . S
C283 O293 1.272 . S
O284 Co280 2.004 . S
O284 C289 1.259 . S
Co285 O286 2.061 . S
Co285 O291 2.052 . S
Co285 O293 2.135 . S
O286 Co285 2.061 . S
O286 C289 1.235 . S
C287 O290 1.238 . S
C287 O291 1.241 . S
C288 O281 1.247 . S
C288 O282 1.261 . S
C289 O284 1.259 . S
C289 O286 1.235 . S
O290 Co280 2.021 . S
O290 C287 1.238 . S
O291 Co285 2.052 . S
O291 C287 1.241 . S
O292 Co280 2.137 . S
O292 C283 1.247 . S
O293 Co280 2.244 . S
O293 C283 1.272 . S
O293 Co285 2.135 . S
Co294 O295 2.216 . S
Co294 O296 2.091 . S
Co294 O298 2.004 1_545 S
Co294 O304 2.021 . S
Co294 O306 2.137 1_545 S
Co294 O307 2.244 1_545 S
O295 Co294 2.216 . S
O295 C302 1.247 . S
O296 Co294 2.091 . S
O296 C302 1.261 . S
C297 O306 1.247 . S
C297 O307 1.272 . S
O298 Co294 2.004 1_565 S
O298 C303 1.259 . S
Co299 O300 2.061 . S
Co299 O305 2.052 . S
Co299 O307 2.135 . S
O300 Co299 2.061 . S
O300 C303 1.235 . S
C301 O304 1.238 . S
C301 O305 1.241 1_545 S
C302 O295 1.247 . S
C302 O296 1.261 . S
C303 O298 1.259 . S
C303 O300 1.235 . S
O304 Co294 2.021 . S
O304 C301 1.238 . S
O305 Co299 2.052 . S
O305 C301 1.241 1_565 S
O306 Co294 2.137 1_565 S
O306 C297 1.247 . S
O307 Co294 2.244 1_565 S
O307 C297 1.272 . S
O307 Co299 2.135 . S
Co308 O309 2.216 . S
Co308 O310 2.091 . S
Co308 O312 2.004 . S
Co308 O318 2.021 . S
Co308 O320 2.137 . S
Co308 O321 2.244 . S
O309 Co308 2.216 . S
O309 C316 1.247 . S
O310 Co308 2.091 . S
O310 C316 1.261 . S
C311 O320 1.247 . S
C311 O321 1.272 . S
O312 Co308 2.004 . S
O312 C317 1.259 . S
Co313 O314 2.061 . S
Co313 O319 2.052 . S
Co313 O321 2.135 . S
O314 Co313 2.061 . S
O314 C317 1.235 . S
C315 O318 1.238 . S
C315 O319 1.241 . S
C316 O309 1.247 . S
C316 O310 1.261 . S
C317 O312 1.259 . S
C317 O314 1.235 . S
O318 Co308 2.021 . S
O318 C315 1.238 . S
O319 Co313 2.052 . S
O319 C315 1.241 . S
O320 Co308 2.137 . S
O320 C311 1.247 . S
O321 Co308 2.244 . S
O321 C311 1.272 . S
O321 Co313 2.135 . S
Co322 O323 2.216 . S
Co322 O324 2.091 . S
Co322 O326 2.004 . S
Co322 O332 2.021 . S
Co322 O334 2.137 . S
Co322 O335 2.244 . S
O323 Co322 2.216 . S
O323 C330 1.247 . S
O324 Co322 2.091 . S
O324 C330 1.261 . S
C325 O334 1.247 . S
C325 O335 1.272 . S
O326 Co322 2.004 . S
O326 C331 1.259 . S
Co327 O328 2.061 . S
Co327 O333 2.052 . S
Co327 O335 2.135 . S
O328 Co327 2.061 . S
O328 C331 1.235 . S
C329 O332 1.238 . S
C329 O333 1.241 . S
C330 O323 1.247 . S
C330 O324 1.261 . S
C331 O326 1.259 . S
C331 O328 1.235 . S
O332 Co322 2.021 . S
O332 C329 1.238 . S
O333 Co327 2.052 . S
O333 C329 1.241 . S
O334 Co322 2.137 . S
O334 C325 1.247 . S
O335 Co322 2.244 . S
O335 C325 1.272 . S
O335 Co327 2.135 . S
Co336 O337 2.216 1_545 S
Co336 O338 2.091 . S
Co336 O340 2.004 . S
Co336 O346 2.021 1_545 S
Co336 O348 2.137 . S
Co336 O349 2.244 1_545 S
O337 Co336 2.216 1_565 S
O337 C344 1.247 1_565 S
O338 Co336 2.091 . S
O338 C344 1.261 . S
C339 O348 1.248 1_565 S
C339 O349 1.271 . S
O340 Co336 2.004 . S
O340 C345 1.259 . S
Co341 O342 2.061 . S
Co341 O347 2.052 . S
Co341 O349 2.135 . S
O342 Co341 2.061 . S
O342 C345 1.235 1_565 S
C343 O346 1.238 . S
C343 O347 1.241 . S
C344 O337 1.247 1_545 S
C344 O338 1.261 . S
C345 O340 1.259 . S
C345 O342 1.235 1_545 S
O346 Co336 2.021 1_565 S
O346 C343 1.238 . S
O347 Co341 2.052 . S
O347 C343 1.241 . S
O348 Co336 2.137 . S
O348 C339 1.248 1_545 S
O349 Co336 2.244 1_565 S
O349 C339 1.271 . S
O349 Co341 2.135 . S
Co350 O351 2.216 . S
Co350 O352 2.091 . S
Co350 O354 2.004 . S
Co350 O360 2.021 . S
Co350 O362 2.137 . S
Co350 O363 2.244 . S
O351 Co350 2.216 . S
O351 C358 1.247 . S
O352 Co350 2.091 . S
O352 C358 1.261 . S
C353 O362 1.247 . S
C353 O363 1.272 . S
O354 Co350 2.004 . S
O354 C359 1.259 . S
Co355 O356 2.061 . S
Co355 O361 2.052 . S
Co355 O363 2.135 . S
O356 Co355 2.061 . S
O356 C359 1.235 . S
C357 O360 1.238 . S
C357 O361 1.241 . S
C358 O351 1.247 . S
C358 O352 1.261 . S
C359 O354 1.259 . S
C359 O356 1.235 . S
O360 Co350 2.021 . S
O360 C357 1.238 . S
O361 Co355 2.052 . S
O361 C357 1.241 . S
O362 Co350 2.137 . S
O362 C353 1.247 . S
O363 Co350 2.244 . S
O363 C353 1.272 . S
O363 Co355 2.135 . S
Co364 O365 2.216 . S
Co364 O366 2.091 . S
Co364 O368 2.004 . S
Co364 O374 2.021 . S
Co364 O376 2.137 . S
Co364 O377 2.244 . S
O365 Co364 2.216 . S
O365 C372 1.247 . S
O366 Co364 2.091 . S
O366 C372 1.261 . S
C367 O376 1.247 . S
C367 O377 1.272 . S
O368 Co364 2.004 . S
O368 C373 1.259 . S
Co369 O370 2.061 . S
Co369 O375 2.052 . S
Co369 O377 2.135 . S
O370 Co369 2.061 . S
O370 C373 1.235 . S
C371 O374 1.238 . S
C371 O375 1.241 . S
C372 O365 1.247 . S
C372 O366 1.261 . S
C373 O368 1.259 . S
C373 O370 1.235 . S
O374 Co364 2.021 . S
O374 C371 1.238 . S
O375 Co369 2.052 . S
O375 C371 1.241 . S
O376 Co364 2.137 . S
O376 C367 1.247 . S
O377 Co364 2.244 . S
O377 C367 1.272 . S
O377 Co369 2.135 . S
Co378 O379 2.216 . S
Co378 O380 2.091 . S
Co378 O382 2.004 . S
Co378 O388 2.021 . S
Co378 O390 2.137 . S
Co378 O391 2.244 . S
O379 Co378 2.216 . S
O379 C386 1.247 . S
O380 Co378 2.091 . S
O380 C386 1.261 . S
C381 O390 1.247 . S
C381 O391 1.272 . S
O382 Co378 2.004 . S
O382 C387 1.259 . S
Co383 O384 2.061 . S
Co383 O389 2.052 . S
Co383 O391 2.135 . S
O384 Co383 2.061 . S
O384 C387 1.235 . S
C385 O388 1.238 . S
C385 O389 1.241 . S
C386 O379 1.247 . S
C386 O380 1.261 . S
C387 O382 1.259 . S
C387 O384 1.235 . S
O388 Co378 2.021 . S
O388 C385 1.238 . S
O389 Co383 2.052 . S
O389 C385 1.241 . S
O390 Co378 2.137 . S
O390 C381 1.247 . S
O391 Co378 2.244 . S
O391 C381 1.272 . S
O391 Co383 2.135 . S
Co392 O393 2.216 . S
Co392 O394 2.091 . S
Co392 O396 2.004 . S
Co392 O402 2.021 1_554 S
Co392 O404 2.137 . S
Co392 O405 2.244 1_554 S
O393 Co392 2.216 . S
O393 C400 1.247 . S
O394 Co392 2.091 . S
O394 C400 1.261 . S
C395 O404 1.247 1_556 S
C395 O405 1.272 . S
O396 Co392 2.004 . S
O396 C401 1.259 1_554 S
Co397 O398 2.061 . S
Co397 O403 2.052 . S
Co397 O405 2.135 . S
O398 Co397 2.061 . S
O398 C401 1.235 . S
C399 O402 1.238 . S
C399 O403 1.241 . S
C400 O393 1.247 . S
C400 O394 1.261 . S
C401 O396 1.259 1_556 S
C401 O398 1.235 . S
O402 Co392 2.021 1_556 S
O402 C399 1.238 . S
O403 Co397 2.052 . S
O403 C399 1.241 . S
O404 Co392 2.137 . S
O404 C395 1.247 1_554 S
O405 Co392 2.244 1_556 S
O405 C395 1.272 . S
O405 Co397 2.135 . S
Co406 O407 2.216 . S
Co406 O408 2.091 . S
Co406 O410 2.004 . S
Co406 O416 2.021 . S
Co406 O418 2.137 . S
Co406 O419 2.244 . S
O407 Co406 2.216 . S
O407 C414 1.247 . S
O408 Co406 2.091 . S
O408 C414 1.261 . S
C409 O418 1.247 . S
C409 O419 1.272 . S
O410 Co406 2.004 . S
O410 C415 1.259 . S
Co411 O412 2.061 . S
Co411 O417 2.052 . S
Co411 O419 2.135 . S
O412 Co411 2.061 . S
O412 C415 1.235 . S
C413 O416 1.238 . S
C413 O417 1.241 . S
C414 O407 1.247 . S
C414 O408 1.261 . S
C415 O410 1.259 . S
C415 O412 1.235 . S
O416 Co406 2.021 . S
O416 C413 1.238 . S
O417 Co411 2.052 . S
O417 C413 1.241 . S
O418 Co406 2.137 . S
O418 C409 1.247 . S
O419 Co406 2.244 . S
O419 C409 1.272 . S
O419 Co411 2.135 . S
Co420 O421 2.216 . S
Co420 O422 2.091 . S
Co420 O424 2.004 1_565 S
Co420 O430 2.021 . S
Co420 O432 2.137 1_565 S
Co420 O433 2.244 1_565 S
O421 Co420 2.216 . S
O421 C428 1.247 . S
O422 Co420 2.091 . S
O422 C428 1.261 . S
C423 O432 1.247 . S
C423 O433 1.272 . S
O424 Co420 2.004 1_545 S
O424 C429 1.259 . S
Co425 O426 2.061 . S
Co425 O431 2.052 . S
Co425 O433 2.135 . S
O426 Co425 2.061 . S
O426 C429 1.235 . S
C427 O430 1.238 . S
C427 O431 1.241 1_565 S
C428 O421 1.247 . S
C428 O422 1.261 . S
C429 O424 1.259 . S
C429 O426 1.235 . S
O430 Co420 2.021 . S
O430 C427 1.238 . S
O431 Co425 2.052 . S
O431 C427 1.241 1_545 S
O432 Co420 2.137 1_545 S
O432 C423 1.247 . S
O433 Co420 2.244 1_545 S
O433 C423 1.272 . S
O433 Co425 2.135 . S
Co434 O435 2.216 . S
Co434 O436 2.091 . S
Co434 O438 2.004 . S
Co434 O444 2.021 . S
Co434 O446 2.137 . S
Co434 O447 2.244 . S
O435 Co434 2.216 . S
O435 C442 1.247 . S
O436 Co434 2.091 . S
O436 C442 1.261 . S
C437 O446 1.247 . S
C437 O447 1.272 . S
O438 Co434 2.004 . S
O438 C443 1.259 . S
Co439 O440 2.061 . S
Co439 O445 2.052 . S
Co439 O447 2.135 . S
O440 Co439 2.061 . S
O440 C443 1.235 . S
C441 O444 1.238 . S
C441 O445 1.241 . S
C442 O435 1.247 . S
C442 O436 1.261 . S
C443 O438 1.259 . S
C443 O440 1.235 . S
O444 Co434 2.021 . S
O444 C441 1.238 . S
O445 Co439 2.052 . S
O445 C441 1.241 . S
O446 Co434 2.137 . S
O446 C437 1.247 . S
O447 Co434 2.244 . S
O447 C437 1.272 . S
O447 Co439 2.135 . S
Co448 O449 2.216 . S
Co448 O450 2.091 . S
Co448 O452 2.004 . S
Co448 O458 2.021 . S
Co448 O460 2.137 . S
Co448 O461 2.244 . S
O449 Co448 2.216 . S
O449 C456 1.247 . S
O450 Co448 2.091 . S
O450 C456 1.261 . S
C451 O460 1.247 . S
C451 O461 1.272 . S
O452 Co448 2.004 . S
O452 C457 1.259 . S
Co453 O454 2.061 . S
Co453 O459 2.052 . S
Co453 O461 2.135 . S
O454 Co453 2.061 . S
O454 C457 1.235 . S
C455 O458 1.238 . S
C455 O459 1.241 . S
C456 O449 1.247 . S
C456 O450 1.261 . S
C457 O452 1.259 . S
C457 O454 1.235 . S
O458 Co448 2.021 . S
O458 C455 1.238 . S
O459 Co453 2.052 . S
O459 C455 1.241 . S
O460 Co448 2.137 . S
O460 C451 1.247 . S
O461 Co448 2.244 . S
O461 C451 1.272 . S
O461 Co453 2.135 . S
Co462 O463 2.216 . S
Co462 O464 2.091 . S
Co462 O466 2.004 1_655 S
Co462 O472 2.021 1_655 S
Co462 O474 2.137 . S
Co462 O475 2.244 . S
O463 Co462 2.216 . S
O463 C470 1.247 . S
O464 Co462 2.091 . S
O464 C470 1.261 . S
C465 O474 1.247 . S
C465 O475 1.272 . S
O466 Co462 2.004 1_455 S
O466 C471 1.259 . S
Co467 O468 2.061 . S
Co467 O473 2.052 . S
Co467 O475 2.135 1_455 S
O468 Co467 2.061 . S
O468 C471 1.235 . S
C469 O472 1.238 . S
C469 O473 1.241 . S
C470 O463 1.247 . S
C470 O464 1.261 . S
C471 O466 1.259 . S
C471 O468 1.235 . S
O472 Co462 2.021 1_455 S
O472 C469 1.238 . S
O473 Co467 2.052 . S
O473 C469 1.241 . S
O474 Co462 2.137 . S
O474 C465 1.247 . S
O475 Co462 2.244 . S
O475 C465 1.272 . S
O475 Co467 2.135 1_655 S
Co476 O477 2.216 . S
Co476 O478 2.091 . S
Co476 O480 2.004 . S
Co476 O486 2.021 . S
Co476 O488 2.137 . S
Co476 O489 2.244 . S
O477 Co476 2.216 . S
O477 C484 1.247 . S
O478 Co476 2.091 . S
O478 C484 1.261 . S
C479 O488 1.247 . S
C479 O489 1.272 . S
O480 Co476 2.004 . S
O480 C485 1.259 . S
Co481 O482 2.061 . S
Co481 O487 2.052 . S
Co481 O489 2.135 . S
O482 Co481 2.061 . S
O482 C485 1.235 . S
C483 O486 1.238 . S
C483 O487 1.241 . S
C484 O477 1.247 . S
C484 O478 1.261 . S
C485 O480 1.259 . S
C485 O482 1.235 . S
O486 Co476 2.021 . S
O486 C483 1.238 . S
O487 Co481 2.052 . S
O487 C483 1.241 . S
O488 Co476 2.137 . S
O488 C479 1.247 . S
O489 Co476 2.244 . S
O489 C479 1.272 . S
O489 Co481 2.135 . S
Co490 O491 2.216 . S
Co490 O492 2.091 . S
Co490 O494 2.004 1_655 S
Co490 O500 2.021 1_655 S
Co490 O502 2.137 . S
Co490 O503 2.244 . S
O491 Co490 2.216 . S
O491 C498 1.247 . S
O492 Co490 2.091 . S
O492 C498 1.261 . S
C493 O502 1.247 . S
C493 O503 1.272 . S
O494 Co490 2.004 1_455 S
O494 C499 1.259 . S
Co495 O496 2.061 . S
Co495 O501 2.052 . S
Co495 O503 2.135 1_455 S
O496 Co495 2.061 . S
O496 C499 1.235 . S
C497 O500 1.238 . S
C497 O501 1.241 . S
C498 O491 1.247 . S
C498 O492 1.261 . S
C499 O494 1.259 . S
C499 O496 1.235 . S
O500 Co490 2.021 1_455 S
O500 C497 1.238 . S
O501 Co495 2.052 . S
O501 C497 1.241 . S
O502 Co490 2.137 . S
O502 C493 1.247 . S
O503 Co490 2.244 . S
O503 C493 1.272 . S
O503 Co495 2.135 1_655 S
Co504 O505 2.216 . S
Co504 O506 2.091 . S
Co504 O508 2.004 . S
Co504 O514 2.021 . S
Co504 O516 2.137 . S
Co504 O517 2.244 . S
O505 Co504 2.216 . S
O505 C512 1.247 . S
O506 Co504 2.091 . S
O506 C512 1.261 . S
C507 O516 1.247 . S
C507 O517 1.272 . S
O508 Co504 2.004 . S
O508 C513 1.259 . S
Co509 O510 2.061 . S
Co509 O515 2.052 . S
Co509 O517 2.135 . S
O510 Co509 2.061 . S
O510 C513 1.235 . S
C511 O514 1.238 . S
C511 O515 1.241 . S
C512 O505 1.247 . S
C512 O506 1.261 . S
C513 O508 1.259 . S
C513 O510 1.235 . S
O514 Co504 2.021 . S
O514 C511 1.238 . S
O515 Co509 2.052 . S
O515 C511 1.241 . S
O516 Co504 2.137 . S
O516 C507 1.247 . S
O517 Co504 2.244 . S
O517 C507 1.272 . S
O517 Co509 2.135 . S
Co518 O519 2.216 . S
Co518 O520 2.091 . S
Co518 O522 2.004 . S
Co518 O528 2.021 . S
Co518 O530 2.137 . S
Co518 O531 2.244 . S
O519 Co518 2.216 . S
O519 C526 1.247 . S
O520 Co518 2.091 . S
O520 C526 1.261 . S
C521 O530 1.247 . S
C521 O531 1.272 . S
O522 Co518 2.004 . S
O522 C527 1.259 . S
Co523 O524 2.061 . S
Co523 O529 2.052 . S
Co523 O531 2.135 . S
O524 Co523 2.061 . S
O524 C527 1.235 . S
C525 O528 1.238 . S
C525 O529 1.241 . S
C526 O519 1.247 . S
C526 O520 1.261 . S
C527 O522 1.259 . S
C527 O524 1.235 . S
O528 Co518 2.021 . S
O528 C525 1.238 . S
O529 Co523 2.052 . S
O529 C525 1.241 . S
O530 Co518 2.137 . S
O530 C521 1.247 . S
O531 Co518 2.244 . S
O531 C521 1.272 . S
O531 Co523 2.135 . S
Co532 O533 2.216 . S
Co532 O534 2.091 . S
Co532 O536 2.004 . S
Co532 O542 2.021 . S
Co532 O544 2.137 . S
Co532 O545 2.244 . S
O533 Co532 2.216 . S
O533 C540 1.247 . S
O534 Co532 2.091 . S
O534 C540 1.261 . S
C535 O544 1.247 . S
C535 O545 1.272 . S
O536 Co532 2.004 . S
O536 C541 1.259 . S
Co537 O538 2.061 . S
Co537 O543 2.052 . S
Co537 O545 2.135 . S
O538 Co537 2.061 . S
O538 C541 1.235 . S
C539 O542 1.238 . S
C539 O543 1.241 . S
C540 O533 1.247 . S
C540 O534 1.261 . S
C541 O536 1.259 . S
C541 O538 1.235 . S
O542 Co532 2.021 . S
O542 C539 1.238 . S
O543 Co537 2.052 . S
O543 C539 1.241 . S
O544 Co532 2.137 . S
O544 C535 1.247 . S
O545 Co532 2.244 . S
O545 C535 1.272 . S
O545 Co537 2.135 . S
Co546 O547 2.216 . S
Co546 O548 2.091 . S
Co546 O550 2.004 . S
Co546 O556 2.021 . S
Co546 O558 2.137 . S
Co546 O559 2.244 . S
O547 Co546 2.216 . S
O547 C554 1.247 . S
O548 Co546 2.091 . S
O548 C554 1.261 . S
C549 O558 1.247 . S
C549 O559 1.272 . S
O550 Co546 2.004 . S
O550 C555 1.259 . S
Co551 O552 2.061 . S
Co551 O557 2.052 . S
Co551 O559 2.135 . S
O552 Co551 2.061 . S
O552 C555 1.235 . S
C553 O556 1.238 . S
C553 O557 1.241 . S
C554 O547 1.247 . S
C554 O548 1.261 . S
C555 O550 1.259 . S
C555 O552 1.235 . S
O556 Co546 2.021 . S
O556 C553 1.238 . S
O557 Co551 2.052 . S
O557 C553 1.241 . S
O558 Co546 2.137 . S
O558 C549 1.247 . S
O559 Co546 2.244 . S
O559 C549 1.272 . S
O559 Co551 2.135 . S
Co560 O561 2.216 1_565 S
Co560 O562 2.091 . S
Co560 O564 2.004 . S
Co560 O570 2.021 1_565 S
Co560 O572 2.137 . S
Co560 O573 2.244 1_565 S
O561 Co560 2.216 1_545 S
O561 C568 1.247 1_545 S
O562 Co560 2.091 . S
O562 C568 1.261 . S
C563 O572 1.247 . S
C563 O573 1.272 1_565 S
O564 Co560 2.004 . S
O564 C569 1.259 . S
Co565 O566 2.037 1_545 S
Co565 O571 2.052 . S
Co565 O573 2.135 . S
O566 Co565 2.037 1_565 S
O566 C569 1.261 . S
C567 O570 1.238 . S
C567 O571 1.241 . S
C568 O561 1.247 1_565 S
C568 O562 1.261 . S
C569 O564 1.259 . S
C569 O566 1.261 . S
O570 Co560 2.021 1_545 S
O570 C567 1.238 . S
O571 Co565 2.052 . S
O571 C567 1.241 . S
O572 Co560 2.137 . S
O572 C563 1.247 . S
O573 Co560 2.244 1_545 S
O573 C563 1.272 1_545 S
O573 Co565 2.135 . S
Co574 O575 2.216 . S
Co574 O576 2.091 . S
Co574 O578 2.004 . S
Co574 O584 2.021 1_556 S
Co574 O586 2.137 . S
Co574 O587 2.244 1_556 S
O575 Co574 2.216 . S
O575 C582 1.247 . S
O576 Co574 2.091 . S
O576 C582 1.261 . S
C577 O586 1.252 . S
C577 O587 1.268 1_556 S
O578 Co574 2.004 . S
O578 C583 1.259 1_556 S
Co579 O580 2.061 . S
Co579 O585 2.052 . S
Co579 O587 2.135 . S
O580 Co579 2.061 . S
O580 C583 1.235 . S
C581 O584 1.238 . S
C581 O585 1.241 . S
C582 O575 1.247 . S
C582 O576 1.261 . S
C583 O578 1.259 1_554 S
C583 O580 1.235 . S
O584 Co574 2.021 1_554 S
O584 C581 1.238 . S
O585 Co579 2.052 . S
O585 C581 1.241 . S
O586 Co574 2.137 . S
O586 C577 1.252 . S
O587 Co574 2.244 1_554 S
O587 C577 1.268 1_554 S
O587 Co579 2.135 . S
Co588 O589 2.216 . S
Co588 O590 2.091 . S
Co588 O592 2.004 . S
Co588 O598 2.021 . S
Co588 O600 2.137 . S
Co588 O601 2.244 . S
O589 Co588 2.216 . S
O589 C596 1.247 . S
O590 Co588 2.091 . S
O590 C596 1.261 . S
C591 O600 1.247 . S
C591 O601 1.272 . S
O592 Co588 2.004 . S
O592 C597 1.259 . S
Co593 O594 2.061 . S
Co593 O599 2.052 . S
Co593 O601 2.135 . S
O594 Co593 2.061 . S
O594 C597 1.235 . S
C595 O598 1.238 . S
C595 O599 1.241 . S
C596 O589 1.247 . S
C596 O590 1.261 . S
C597 O592 1.259 . S
C597 O594 1.235 . S
O598 Co588 2.021 . S
O598 C595 1.238 . S
O599 Co593 2.052 . S
O599 C595 1.241 . S
O600 Co588 2.137 . S
O600 C591 1.247 . S
O601 Co588 2.244 . S
O601 C591 1.272 . S
O601 Co593 2.135 . S
Co602 O603 2.216 . S
Co602 O604 2.091 . S
Co602 O606 2.004 1_455 S
Co602 O612 2.021 1_455 S
Co602 O614 2.137 . S
Co602 O615 2.244 . S
O603 Co602 2.216 . S
O603 C610 1.247 . S
O604 Co602 2.091 . S
O604 C610 1.261 . S
C605 O614 1.247 . S
C605 O615 1.272 . S
O606 Co602 2.004 1_655 S
O606 C611 1.259 . S
Co607 O608 2.061 . S
Co607 O613 2.052 . S
Co607 O615 2.135 1_655 S
O608 Co607 2.061 . S
O608 C611 1.235 . S
C609 O612 1.238 . S
C609 O613 1.241 . S
C610 O603 1.247 . S
C610 O604 1.261 . S
C611 O606 1.259 . S
C611 O608 1.235 . S
O612 Co602 2.021 1_655 S
O612 C609 1.238 . S
O613 Co607 2.052 . S
O613 C609 1.241 . S
O614 Co602 2.137 . S
O614 C605 1.247 . S
O615 Co602 2.244 . S
O615 C605 1.272 . S
O615 Co607 2.135 1_455 S
Co616 O617 2.216 1_545 S
Co616 O618 2.091 . S
Co616 O620 2.004 . S
Co616 O626 2.021 1_545 S
Co616 O628 2.137 . S
Co616 O629 2.244 1_545 S
O617 Co616 2.216 1_565 S
O617 C624 1.247 1_565 S
O618 Co616 2.091 . S
O618 C624 1.261 . S
C619 O628 1.247 . S
C619 O629 1.272 1_545 S
O620 Co616 2.004 . S
O620 C625 1.259 . S
Co621 O622 2.037 1_565 S
Co621 O627 2.052 . S
Co621 O629 2.135 . S
O622 Co621 2.037 1_545 S
O622 C625 1.261 . S
C623 O626 1.238 . S
C623 O627 1.241 . S
C624 O617 1.247 1_545 S
C624 O618 1.261 . S
C625 O620 1.259 . S
C625 O622 1.261 . S
O626 Co616 2.021 1_565 S
O626 C623 1.238 . S
O627 Co621 2.052 . S
O627 C623 1.241 . S
O628 Co616 2.137 . S
O628 C619 1.247 . S
O629 Co616 2.244 1_565 S
O629 C619 1.272 1_565 S
O629 Co621 2.135 . S
Co630 O631 2.216 . S
Co630 O632 2.091 . S
Co630 O634 2.004 . S
Co630 O640 2.021 1_556 S
Co630 O642 2.137 . S
Co630 O643 2.244 1_556 S
O631 Co630 2.216 . S
O631 C638 1.247 . S
O632 Co630 2.091 . S
O632 C638 1.261 . S
C633 O642 1.252 . S
C633 O643 1.268 1_556 S
O634 Co630 2.004 . S
O634 C639 1.259 1_556 S
Co635 O636 2.061 . S
Co635 O641 2.052 . S
Co635 O643 2.135 . S
O636 Co635 2.061 . S
O636 C639 1.235 . S
C637 O640 1.238 . S
C637 O641 1.241 . S
C638 O631 1.247 . S
C638 O632 1.261 . S
C639 O634 1.259 1_554 S
C639 O636 1.235 . S
O640 Co630 2.021 1_554 S
O640 C637 1.238 . S
O641 Co635 2.052 . S
O641 C637 1.241 . S
O642 Co630 2.137 . S
O642 C633 1.252 . S
O643 Co630 2.244 1_554 S
O643 C633 1.268 1_554 S
O643 Co635 2.135 . S
Co644 O645 2.216 . S
Co644 O646 2.091 . S
Co644 O648 2.004 . S
Co644 O654 2.021 . S
Co644 O656 2.137 . S
Co644 O657 2.244 . S
O645 Co644 2.216 . S
O645 C652 1.247 . S
O646 Co644 2.091 . S
O646 C652 1.261 . S
C647 O656 1.247 . S
C647 O657 1.272 . S
O648 Co644 2.004 . S
O648 C653 1.259 . S
Co649 O650 2.061 . S
Co649 O655 2.052 . S
Co649 O657 2.135 . S
O650 Co649 2.061 . S
O650 C653 1.235 . S
C651 O654 1.238 . S
C651 O655 1.241 . S
C652 O645 1.247 . S
C652 O646 1.261 . S
C653 O648 1.259 . S
C653 O650 1.235 . S
O654 Co644 2.021 . S
O654 C651 1.238 . S
O655 Co649 2.052 . S
O655 C651 1.241 . S
O656 Co644 2.137 . S
O656 C647 1.247 . S
O657 Co644 2.244 . S
O657 C647 1.272 . S
O657 Co649 2.135 . S
Co658 O659 2.216 . S
Co658 O660 2.091 . S
Co658 O662 2.004 . S
Co658 O668 2.021 . S
Co658 O670 2.137 . S
Co658 O671 2.244 . S
O659 Co658 2.216 . S
O659 C666 1.247 . S
O660 Co658 2.091 . S
O660 C666 1.261 . S
C661 O670 1.247 . S
C661 O671 1.272 . S
O662 Co658 2.004 . S
O662 C667 1.259 . S
Co663 O664 2.061 . S
Co663 O669 2.052 . S
Co663 O671 2.135 . S
O664 Co663 2.061 . S
O664 C667 1.235 . S
C665 O668 1.238 . S
C665 O669 1.241 . S
C666 O659 1.247 . S
C666 O660 1.261 . S
C667 O662 1.259 . S
C667 O664 1.235 . S
O668 Co658 2.021 . S
O668 C665 1.238 . S
O669 Co663 2.052 . S
O669 C665 1.241 . S
O670 Co658 2.137 . S
O670 C661 1.247 . S
O671 Co658 2.244 . S
O671 C661 1.272 . S
O671 Co663 2.135 . S
C672 C673 1.391 . S
C672 C674 1.394 . S
C672 H688 0.931 . S
C673 C672 1.391 . S
C673 C677 1.376 . S
C674 C672 1.394 . S
C674 C675 1.369 . S
C674 C678 1.531 . S
C675 C674 1.369 . S
C675 C676 1.410 . S
C675 C683 1.503 . S
C676 C675 1.410 . S
C676 C677 1.392 . S
C676 C679 1.511 . S
C677 C673 1.376 . S
C677 C676 1.392 . S
C677 H689 0.929 . S
C678 C674 1.531 . S
C678 H690 0.960 . S
C678 H691 0.962 . S
C678 H692 0.960 . S
C679 C676 1.511 . S
C679 H693 0.961 . S
C679 H694 0.961 . S
C679 H695 0.961 . S
C680 C681 1.370 . S
C680 C682 1.363 . S
C680 H696 0.931 . S
C681 C680 1.370 . S
C681 C685 1.408 . S
C682 C680 1.363 . S
C682 C683 1.370 . S
C682 C686 1.524 . S
C683 C675 1.503 . S
C683 C682 1.370 . S
C683 C684 1.403 . S
C684 C683 1.403 . S
C684 C685 1.404 . S
C684 C687 1.539 . S
C685 C681 1.408 . S
C685 C684 1.404 . S
C685 H697 0.930 . S
C686 C682 1.524 . S
C686 H698 0.956 . S
C686 H699 0.961 . S
C686 H700 0.961 . S
C687 C684 1.539 . S
C687 H701 0.958 . S
C687 H702 0.961 . S
C687 H703 0.960 . S
H688 C672 0.931 . S
H689 C677 0.929 . S
H690 C678 0.960 . S
H691 C678 0.962 . S
H692 C678 0.960 . S
H693 C679 0.961 . S
H694 C679 0.961 . S
H695 C679 0.961 . S
H696 C680 0.931 . S
H697 C685 0.930 . S
H698 C686 0.956 . S
H699 C686 0.961 . S
H700 C686 0.961 . S
H701 C687 0.958 . S
H702 C687 0.961 . S
H703 C687 0.960 . S
C704 C705 1.391 . S
C704 C706 1.394 . S
C704 H720 0.931 . S
C705 C704 1.391 . S
C705 C709 1.376 . S
C706 C704 1.394 . S
C706 C707 1.369 . S
C706 C710 1.531 . S
C707 C706 1.369 . S
C707 C708 1.410 . S
C707 C715 1.503 . S
C708 C707 1.410 . S
C708 C709 1.392 . S
C708 C711 1.511 . S
C709 C705 1.376 . S
C709 C708 1.392 . S
C709 H721 0.929 . S
C710 C706 1.531 . S
C710 H722 0.960 . S
C710 H723 0.962 . S
C710 H724 0.960 . S
C711 C708 1.511 . S
C711 H725 0.961 . S
C711 H726 0.961 . S
C711 H727 0.961 . S
C712 C713 1.370 . S
C712 C714 1.363 . S
C712 H728 0.931 . S
C713 C712 1.370 . S
C713 C717 1.408 . S
C714 C712 1.363 . S
C714 C715 1.370 . S
C714 C718 1.524 . S
C715 C707 1.503 . S
C715 C714 1.370 . S
C715 C716 1.403 . S
C716 C715 1.403 . S
C716 C717 1.404 . S
C716 C719 1.539 . S
C717 C713 1.408 . S
C717 C716 1.404 . S
C717 H729 0.930 . S
C718 C714 1.524 . S
C718 H730 0.956 . S
C718 H731 0.961 . S
C718 H732 0.961 . S
C719 C716 1.539 . S
C719 H733 0.958 . S
C719 H734 0.961 . S
C719 H735 0.960 . S
H720 C704 0.931 . S
H721 C709 0.929 . S
H722 C710 0.960 . S
H723 C710 0.962 . S
H724 C710 0.960 . S
H725 C711 0.961 . S
H726 C711 0.961 . S
H727 C711 0.961 . S
H728 C712 0.931 . S
H729 C717 0.930 . S
H730 C718 0.956 . S
H731 C718 0.961 . S
H732 C718 0.961 . S
H733 C719 0.958 . S
H734 C719 0.961 . S
H735 C719 0.960 . S
C736 C737 1.391 . S
C736 C738 1.394 . S
C736 H752 0.931 . S
C737 C736 1.391 . S
C737 C741 1.376 . S
C738 C736 1.394 . S
C738 C739 1.369 . S
C738 C742 1.531 . S
C739 C738 1.369 . S
C739 C740 1.410 . S
C739 C747 1.503 . S
C740 C739 1.410 . S
C740 C741 1.392 . S
C740 C743 1.511 . S
C741 C737 1.376 . S
C741 C740 1.392 . S
C741 H753 0.929 . S
C742 C738 1.531 . S
C742 H754 0.960 . S
C742 H755 0.962 . S
C742 H756 0.960 . S
C743 C740 1.511 . S
C743 H757 0.961 . S
C743 H758 0.961 . S
C743 H759 0.961 . S
C744 C745 1.370 . S
C744 C746 1.363 . S
C744 H760 0.931 . S
C745 C744 1.370 . S
C745 C749 1.408 . S
C746 C744 1.363 . S
C746 C747 1.370 . S
C746 C750 1.524 . S
C747 C739 1.503 . S
C747 C746 1.370 . S
C747 C748 1.403 . S
C748 C747 1.403 . S
C748 C749 1.404 . S
C748 C751 1.539 . S
C749 C745 1.408 . S
C749 C748 1.404 . S
C749 H761 0.930 . S
C750 C746 1.524 . S
C750 H762 0.956 . S
C750 H763 0.961 . S
C750 H764 0.961 . S
C751 C748 1.539 . S
C751 H765 0.958 . S
C751 H766 0.961 . S
C751 H767 0.960 . S
H752 C736 0.931 . S
H753 C741 0.929 . S
H754 C742 0.960 . S
H755 C742 0.962 . S
H756 C742 0.960 . S
H757 C743 0.961 . S
H758 C743 0.961 . S
H759 C743 0.961 . S
H760 C744 0.931 . S
H761 C749 0.930 . S
H762 C750 0.956 . S
H763 C750 0.961 . S
H764 C750 0.961 . S
H765 C751 0.958 . S
H766 C751 0.961 . S
H767 C751 0.960 . S
C768 C769 1.391 . S
C768 C770 1.394 . S
C768 H784 0.931 . S
C769 C768 1.391 . S
C769 C773 1.376 . S
C770 C768 1.394 . S
C770 C771 1.369 . S
C770 C774 1.531 . S
C771 C770 1.369 . S
C771 C772 1.410 . S
C771 C779 1.503 . S
C772 C771 1.410 . S
C772 C773 1.392 . S
C772 C775 1.511 . S
C773 C769 1.376 . S
C773 C772 1.392 . S
C773 H785 0.929 . S
C774 C770 1.531 . S
C774 H786 0.960 1_565 S
C774 H787 0.962 . S
C774 H788 0.960 1_565 S
C775 C772 1.511 . S
C775 H789 0.961 . S
C775 H790 0.961 . S
C775 H791 0.961 . S
C776 C777 1.370 . S
C776 C778 1.363 . S
C776 H792 0.931 . S
C777 C776 1.370 . S
C777 C781 1.408 1_565 S
C778 C776 1.363 . S
C778 C779 1.370 . S
C778 C782 1.524 . S
C779 C771 1.503 . S
C779 C778 1.370 . S
C779 C780 1.403 1_565 S
C780 C779 1.403 1_545 S
C780 C781 1.404 . S
C780 C783 1.539 . S
C781 C777 1.408 1_545 S
C781 C780 1.404 . S
C781 H793 0.930 . S
C782 C778 1.524 . S
C782 H794 0.956 . S
C782 H795 0.961 . S
C782 H796 0.961 . S
C783 C780 1.539 . S
C783 H797 0.958 . S
C783 H798 0.961 . S
C783 H799 0.960 . S
H784 C768 0.931 . S
H785 C773 0.929 . S
H786 C774 0.960 1_545 S
H787 C774 0.962 . S
H788 C774 0.960 1_545 S
H789 C775 0.961 . S
H790 C775 0.961 . S
H791 C775 0.961 . S
H792 C776 0.931 . S
H793 C781 0.930 . S
H794 C782 0.956 . S
H795 C782 0.961 . S
H796 C782 0.961 . S
H797 C783 0.958 . S
H798 C783 0.961 . S
H799 C783 0.960 . S
C800 C801 1.391 . S
C800 C802 1.394 . S
C800 H816 0.931 . S
C801 C800 1.391 . S
C801 C805 1.376 . S
C802 C800 1.394 . S
C802 C803 1.369 . S
C802 C806 1.531 . S
C803 C802 1.369 . S
C803 C804 1.410 . S
C803 C811 1.503 . S
C804 C803 1.410 . S
C804 C805 1.392 . S
C804 C807 1.511 . S
C805 C801 1.376 . S
C805 C804 1.392 . S
C805 H817 0.929 . S
C806 C802 1.531 . S
C806 H818 0.960 . S
C806 H819 0.962 . S
C806 H820 0.960 . S
C807 C804 1.511 . S
C807 H821 0.961 . S
C807 H822 0.961 . S
C807 H823 0.961 . S
C808 C809 1.370 . S
C808 C810 1.363 . S
C808 H824 0.931 . S
C809 C808 1.370 . S
C809 C813 1.408 . S
C810 C808 1.363 . S
C810 C811 1.370 . S
C810 C814 1.524 . S
C811 C803 1.503 . S
C811 C810 1.370 . S
C811 C812 1.403 . S
C812 C811 1.403 . S
C812 C813 1.404 . S
C812 C815 1.539 . S
C813 C809 1.408 . S
C813 C812 1.404 . S
C813 H825 0.930 . S
C814 C810 1.524 . S
C814 H826 0.956 . S
C814 H827 0.961 . S
C814 H828 0.961 . S
C815 C812 1.539 . S
C815 H829 0.958 . S
C815 H830 0.961 . S
C815 H831 0.960 . S
H816 C800 0.931 . S
H817 C805 0.929 . S
H818 C806 0.960 . S
H819 C806 0.962 . S
H820 C806 0.960 . S
H821 C807 0.961 . S
H822 C807 0.961 . S
H823 C807 0.961 . S
H824 C808 0.931 . S
H825 C813 0.930 . S
H826 C814 0.956 . S
H827 C814 0.961 . S
H828 C814 0.961 . S
H829 C815 0.958 . S
H830 C815 0.961 . S
H831 C815 0.960 . S
C832 C833 1.391 . S
C832 C834 1.394 . S
C832 H848 0.931 . S
C833 C832 1.391 . S
C833 C837 1.376 . S
C834 C832 1.394 . S
C834 C835 1.369 . S
C834 C838 1.531 . S
C835 C834 1.369 . S
C835 C836 1.410 . S
C835 C843 1.503 . S
C836 C835 1.410 . S
C836 C837 1.392 . S
C836 C839 1.511 . S
C837 C833 1.376 . S
C837 C836 1.392 . S
C837 H849 0.929 . S
C838 C834 1.531 . S
C838 H850 0.960 . S
C838 H851 0.962 . S
C838 H852 0.960 . S
C839 C836 1.511 . S
C839 H853 0.961 . S
C839 H854 0.961 . S
C839 H855 0.961 . S
C840 C841 1.370 . S
C840 C842 1.363 . S
C840 H856 0.931 . S
C841 C840 1.370 . S
C841 C845 1.408 . S
C842 C840 1.363 . S
C842 C843 1.370 . S
C842 C846 1.524 . S
C843 C835 1.503 . S
C843 C842 1.370 . S
C843 C844 1.403 . S
C844 C843 1.403 . S
C844 C845 1.404 . S
C844 C847 1.539 . S
C845 C841 1.408 . S
C845 C844 1.404 . S
C845 H857 0.930 . S
C846 C842 1.524 . S
C846 H858 0.956 . S
C846 H859 0.961 . S
C846 H860 0.961 . S
C847 C844 1.539 . S
C847 H861 0.958 . S
C847 H862 0.961 . S
C847 H863 0.960 . S
H848 C832 0.931 . S
H849 C837 0.929 . S
H850 C838 0.960 . S
H851 C838 0.962 . S
H852 C838 0.960 . S
H853 C839 0.961 . S
H854 C839 0.961 . S
H855 C839 0.961 . S
H856 C840 0.931 . S
H857 C845 0.930 . S
H858 C846 0.956 . S
H859 C846 0.961 . S
H860 C846 0.961 . S
H861 C847 0.958 . S
H862 C847 0.961 . S
H863 C847 0.960 . S
C864 C865 1.391 . S
C864 C866 1.394 . S
C864 H880 0.931 . S
C865 C864 1.391 . S
C865 C869 1.376 . S
C866 C864 1.394 . S
C866 C867 1.369 . S
C866 C870 1.531 . S
C867 C866 1.369 . S
C867 C868 1.410 . S
C867 C875 1.503 . S
C868 C867 1.410 . S
C868 C869 1.392 . S
C868 C871 1.511 . S
C869 C865 1.376 . S
C869 C868 1.392 . S
C869 H881 0.929 . S
C870 C866 1.531 . S
C870 H882 0.960 . S
C870 H883 0.962 . S
C870 H884 0.960 . S
C871 C868 1.511 . S
C871 H885 0.961 . S
C871 H886 0.961 . S
C871 H887 0.961 . S
C872 C873 1.370 . S
C872 C874 1.363 . S
C872 H888 0.931 1_565 S
C873 C872 1.370 . S
C873 C877 1.408 . S
C874 C872 1.363 . S
C874 C875 1.370 . S
C874 C878 1.524 1_565 S
C875 C867 1.503 . S
C875 C874 1.370 . S
C875 C876 1.403 . S
C876 C875 1.403 . S
C876 C877 1.404 . S
C876 C879 1.539 . S
C877 C873 1.408 . S
C877 C876 1.404 . S
C877 H889 0.930 . S
C878 C874 1.524 1_545 S
C878 H890 0.956 . S
C878 H891 0.961 . S
C878 H892 0.961 . S
C879 C876 1.539 . S
C879 H893 0.958 . S
C879 H894 0.961 . S
C879 H895 0.960 . S
H880 C864 0.931 . S
H881 C869 0.929 . S
H882 C870 0.960 . S
H883 C870 0.962 . S
H884 C870 0.960 . S
H885 C871 0.961 . S
H886 C871 0.961 . S
H887 C871 0.961 . S
H888 C872 0.931 1_545 S
H889 C877 0.930 . S
H890 C878 0.956 . S
H891 C878 0.961 . S
H892 C878 0.961 . S
H893 C879 0.958 . S
H894 C879 0.961 . S
H895 C879 0.960 . S
C896 C897 1.391 . S
C896 C898 1.394 . S
C896 H912 0.931 . S
C897 C896 1.391 . S
C897 C901 1.376 . S
C898 C896 1.394 . S
C898 C899 1.369 . S
C898 C902 1.531 . S
C899 C898 1.369 . S
C899 C900 1.410 . S
C899 C907 1.503 . S
C900 C899 1.410 . S
C900 C901 1.392 . S
C900 C903 1.511 . S
C901 C897 1.376 . S
C901 C900 1.392 . S
C901 H913 0.929 . S
C902 C898 1.531 . S
C902 H914 0.960 . S
C902 H915 0.962 . S
C902 H916 0.960 . S
C903 C900 1.511 . S
C903 H917 0.961 . S
C903 H918 0.961 . S
C903 H919 0.961 . S
C904 C905 1.370 . S
C904 C906 1.363 . S
C904 H920 0.931 . S
C905 C904 1.370 . S
C905 C909 1.408 . S
C906 C904 1.363 . S
C906 C907 1.370 . S
C906 C910 1.524 . S
C907 C899 1.503 . S
C907 C906 1.370 . S
C907 C908 1.403 . S
C908 C907 1.403 . S
C908 C909 1.404 . S
C908 C911 1.539 . S
C909 C905 1.408 . S
C909 C908 1.404 . S
C909 H921 0.930 . S
C910 C906 1.524 . S
C910 H922 0.956 . S
C910 H923 0.961 . S
C910 H924 0.961 . S
C911 C908 1.539 . S
C911 H925 0.958 . S
C911 H926 0.961 . S
C911 H927 0.960 . S
H912 C896 0.931 . S
H913 C901 0.929 . S
H914 C902 0.960 . S
H915 C902 0.962 . S
H916 C902 0.960 . S
H917 C903 0.961 . S
H918 C903 0.961 . S
H919 C903 0.961 . S
H920 C904 0.931 . S
H921 C909 0.930 . S
H922 C910 0.956 . S
H923 C910 0.961 . S
H924 C910 0.961 . S
H925 C911 0.958 . S
H926 C911 0.961 . S
H927 C911 0.960 . S
C928 C929 1.391 . S
C928 C930 1.394 . S
C928 H944 0.931 . S
C929 C928 1.391 . S
C929 C933 1.376 . S
C930 C928 1.394 . S
C930 C931 1.369 . S
C930 C934 1.531 . S
C931 C930 1.369 . S
C931 C932 1.410 . S
C931 C939 1.503 . S
C932 C931 1.410 . S
C932 C933 1.392 . S
C932 C935 1.511 . S
C933 C929 1.376 . S
C933 C932 1.392 . S
C933 H945 0.929 . S
C934 C930 1.531 . S
C934 H946 0.960 . S
C934 H947 0.962 . S
C934 H948 0.960 . S
C935 C932 1.511 . S
C935 H949 0.961 . S
C935 H950 0.961 . S
C935 H951 0.961 . S
C936 C937 1.370 . S
C936 C938 1.363 . S
C936 H952 0.931 . S
C937 C936 1.370 . S
C937 C941 1.408 . S
C938 C936 1.363 . S
C938 C939 1.370 . S
C938 C942 1.524 . S
C939 C931 1.503 . S
C939 C938 1.370 . S
C939 C940 1.403 . S
C940 C939 1.403 . S
C940 C941 1.404 . S
C940 C943 1.539 . S
C941 C937 1.408 . S
C941 C940 1.404 . S
C941 H953 0.930 . S
C942 C938 1.524 . S
C942 H954 0.956 . S
C942 H955 0.961 . S
C942 H956 0.961 . S
C943 C940 1.539 . S
C943 H957 0.958 . S
C943 H958 0.961 . S
C943 H959 0.960 . S
H944 C928 0.931 . S
H945 C933 0.929 . S
H946 C934 0.960 . S
H947 C934 0.962 . S
H948 C934 0.960 . S
H949 C935 0.961 . S
H950 C935 0.961 . S
H951 C935 0.961 . S
H952 C936 0.931 . S
H953 C941 0.930 . S
H954 C942 0.956 . S
H955 C942 0.961 . S
H956 C942 0.961 . S
H957 C943 0.958 . S
H958 C943 0.961 . S
H959 C943 0.960 . S
C960 C961 1.391 . S
C960 C962 1.394 . S
C960 H976 0.931 . S
C961 C960 1.391 . S
C961 C965 1.376 . S
C962 C960 1.394 . S
C962 C963 1.369 . S
C962 C966 1.531 . S
C963 C962 1.369 . S
C963 C964 1.410 . S
C963 C971 1.503 . S
C964 C963 1.410 . S
C964 C965 1.392 . S
C964 C967 1.511 . S
C965 C961 1.376 . S
C965 C964 1.392 . S
C965 H977 0.929 . S
C966 C962 1.531 . S
C966 H978 0.960 . S
C966 H979 0.962 . S
C966 H980 0.960 . S
C967 C964 1.511 . S
C967 H981 0.961 . S
C967 H982 0.961 . S
C967 H983 0.961 . S
C968 C969 1.370 . S
C968 C970 1.363 . S
C968 H984 0.931 . S
C969 C968 1.370 . S
C969 C973 1.408 . S
C970 C968 1.363 . S
C970 C971 1.370 . S
C970 C974 1.524 . S
C971 C963 1.503 . S
C971 C970 1.370 . S
C971 C972 1.403 . S
C972 C971 1.403 . S
C972 C973 1.404 . S
C972 C975 1.539 . S
C973 C969 1.408 . S
C973 C972 1.404 . S
C973 H985 0.930 . S
C974 C970 1.524 . S
C974 H986 0.956 . S
C974 H987 0.961 . S
C974 H988 0.961 . S
C975 C972 1.539 . S
C975 H989 0.958 . S
C975 H990 0.961 . S
C975 H991 0.960 . S
H976 C960 0.931 . S
H977 C965 0.929 . S
H978 C966 0.960 . S
H979 C966 0.962 . S
H980 C966 0.960 . S
H981 C967 0.961 . S
H982 C967 0.961 . S
H983 C967 0.961 . S
H984 C968 0.931 . S
H985 C973 0.930 . S
H986 C974 0.956 . S
H987 C974 0.961 . S
H988 C974 0.961 . S
H989 C975 0.958 . S
H990 C975 0.961 . S
H991 C975 0.960 . S
C992 C993 1.391 . S
C992 C994 1.394 . S
C992 H1008 0.931 . S
C993 C992 1.391 . S
C993 C997 1.376 . S
C994 C992 1.394 . S
C994 C995 1.369 . S
C994 C998 1.531 . S
C995 C994 1.369 . S
C995 C996 1.410 . S
C995 C1003 1.503 . S
C996 C995 1.410 . S
C996 C997 1.392 . S
C996 C999 1.511 . S
C997 C993 1.376 . S
C997 C996 1.392 . S
C997 H1009 0.929 . S
C998 C994 1.531 . S
C998 H1010 0.960 . S
C998 H1011 0.962 . S
C998 H1012 0.960 . S
C999 C996 1.511 . S
C999 H1013 0.961 . S
C999 H1014 0.961 . S
C999 H1015 0.961 . S
C1000 C1001 1.370 . S
C1000 C1002 1.363 . S
C1000 H1016 0.931 . S
C1001 C1000 1.370 . S
C1001 C1005 1.408 . S
C1002 C1000 1.363 . S
C1002 C1003 1.370 . S
C1002 C1006 1.524 . S
C1003 C995 1.503 . S
C1003 C1002 1.370 . S
C1003 C1004 1.403 . S
C1004 C1003 1.403 . S
C1004 C1005 1.404 . S
C1004 C1007 1.539 . S
C1005 C1001 1.408 . S
C1005 C1004 1.404 . S
C1005 H1017 0.930 . S
C1006 C1002 1.524 . S
C1006 H1018 0.956 . S
C1006 H1019 0.961 . S
C1006 H1020 0.961 . S
C1007 C1004 1.539 . S
C1007 H1021 0.958 . S
C1007 H1022 0.961 . S
C1007 H1023 0.960 . S
H1008 C992 0.931 . S
H1009 C997 0.929 . S
H1010 C998 0.960 . S
H1011 C998 0.962 . S
H1012 C998 0.960 . S
H1013 C999 0.961 . S
H1014 C999 0.961 . S
H1015 C999 0.961 . S
H1016 C1000 0.931 . S
H1017 C1005 0.930 . S
H1018 C1006 0.956 . S
H1019 C1006 0.961 . S
H1020 C1006 0.961 . S
H1021 C1007 0.958 . S
H1022 C1007 0.961 . S
H1023 C1007 0.960 . S
C1024 C1025 1.391 . S
C1024 C1026 1.394 . S
C1024 H1040 0.931 . S
C1025 C1024 1.391 . S
C1025 C1029 1.376 . S
C1026 C1024 1.394 . S
C1026 C1027 1.369 . S
C1026 C1030 1.531 . S
C1027 C1026 1.369 . S
C1027 C1028 1.410 . S
C1027 C1035 1.503 . S
C1028 C1027 1.410 . S
C1028 C1029 1.392 . S
C1028 C1031 1.511 . S
C1029 C1025 1.376 . S
C1029 C1028 1.392 . S
C1029 H1041 0.929 . S
C1030 C1026 1.531 . S
C1030 H1042 0.960 . S
C1030 H1043 0.962 . S
C1030 H1044 0.960 . S
C1031 C1028 1.511 . S
C1031 H1045 0.961 . S
C1031 H1046 0.961 . S
C1031 H1047 0.961 . S
C1032 C1033 1.370 . S
C1032 C1034 1.363 . S
C1032 H1048 0.931 . S
C1033 C1032 1.370 . S
C1033 C1037 1.408 . S
C1034 C1032 1.363 . S
C1034 C1035 1.370 . S
C1034 C1038 1.524 . S
C1035 C1027 1.503 . S
C1035 C1034 1.370 . S
C1035 C1036 1.403 . S
C1036 C1035 1.403 . S
C1036 C1037 1.404 . S
C1036 C1039 1.539 . S
C1037 C1033 1.408 . S
C1037 C1036 1.404 . S
C1037 H1049 0.930 . S
C1038 C1034 1.524 . S
C1038 H1050 0.956 . S
C1038 H1051 0.961 . S
C1038 H1052 0.961 . S
C1039 C1036 1.539 . S
C1039 H1053 0.958 . S
C1039 H1054 0.961 . S
C1039 H1055 0.960 . S
H1040 C1024 0.931 . S
H1041 C1029 0.929 . S
H1042 C1030 0.960 . S
H1043 C1030 0.962 . S
H1044 C1030 0.960 . S
H1045 C1031 0.961 . S
H1046 C1031 0.961 . S
H1047 C1031 0.961 . S
H1048 C1032 0.931 . S
H1049 C1037 0.930 . S
H1050 C1038 0.956 . S
H1051 C1038 0.961 . S
H1052 C1038 0.961 . S
H1053 C1039 0.958 . S
H1054 C1039 0.961 . S
H1055 C1039 0.960 . S
C1056 C1057 1.391 . S
C1056 C1058 1.394 . S
C1056 H1072 0.931 . S
C1057 C1056 1.391 . S
C1057 C1061 1.376 . S
C1058 C1056 1.394 . S
C1058 C1059 1.369 . S
C1058 C1062 1.531 . S
C1059 C1058 1.369 . S
C1059 C1060 1.410 . S
C1059 C1067 1.503 . S
C1060 C1059 1.410 . S
C1060 C1061 1.392 . S
C1060 C1063 1.511 . S
C1061 C1057 1.376 . S
C1061 C1060 1.392 . S
C1061 H1073 0.929 . S
C1062 C1058 1.531 . S
C1062 H1074 0.960 . S
C1062 H1075 0.962 . S
C1062 H1076 0.960 . S
C1063 C1060 1.511 . S
C1063 H1077 0.961 . S
C1063 H1078 0.961 . S
C1063 H1079 0.961 . S
C1064 C1065 1.370 . S
C1064 C1066 1.363 . S
C1064 H1080 0.931 . S
C1065 C1064 1.370 . S
C1065 C1069 1.408 . S
C1066 C1064 1.363 . S
C1066 C1067 1.370 . S
C1066 C1070 1.524 . S
C1067 C1059 1.503 . S
C1067 C1066 1.370 . S
C1067 C1068 1.403 . S
C1068 C1067 1.403 . S
C1068 C1069 1.404 . S
C1068 C1071 1.539 . S
C1069 C1065 1.408 . S
C1069 C1068 1.404 . S
C1069 H1081 0.930 . S
C1070 C1066 1.524 . S
C1070 H1082 0.956 . S
C1070 H1083 0.961 . S
C1070 H1084 0.961 . S
C1071 C1068 1.539 . S
C1071 H1085 0.958 . S
C1071 H1086 0.961 . S
C1071 H1087 0.960 . S
H1072 C1056 0.931 . S
H1073 C1061 0.929 . S
H1074 C1062 0.960 . S
H1075 C1062 0.962 . S
H1076 C1062 0.960 . S
H1077 C1063 0.961 . S
H1078 C1063 0.961 . S
H1079 C1063 0.961 . S
H1080 C1064 0.931 . S
H1081 C1069 0.930 . S
H1082 C1070 0.956 . S
H1083 C1070 0.961 . S
H1084 C1070 0.961 . S
H1085 C1071 0.958 . S
H1086 C1071 0.961 . S
H1087 C1071 0.960 . S
C1088 C1089 1.391 . S
C1088 C1090 1.394 . S
C1088 H1104 0.931 . S
C1089 C1088 1.391 . S
C1089 C1093 1.376 . S
C1090 C1088 1.394 . S
C1090 C1091 1.369 . S
C1090 C1094 1.531 . S
C1091 C1090 1.369 . S
C1091 C1092 1.410 . S
C1091 C1099 1.503 . S
C1092 C1091 1.410 . S
C1092 C1093 1.392 . S
C1092 C1095 1.511 . S
C1093 C1089 1.376 . S
C1093 C1092 1.392 . S
C1093 H1105 0.929 . S
C1094 C1090 1.531 . S
C1094 H1106 0.960 . S
C1094 H1107 0.962 . S
C1094 H1108 0.960 . S
C1095 C1092 1.511 . S
C1095 H1109 0.961 . S
C1095 H1110 0.961 . S
C1095 H1111 0.961 . S
C1096 C1097 1.370 . S
C1096 C1098 1.363 . S
C1096 H1112 0.931 . S
C1097 C1096 1.370 . S
C1097 C1101 1.408 . S
C1098 C1096 1.363 . S
C1098 C1099 1.370 . S
C1098 C1102 1.524 . S
C1099 C1091 1.503 . S
C1099 C1098 1.370 . S
C1099 C1100 1.403 . S
C1100 C1099 1.403 . S
C1100 C1101 1.404 . S
C1100 C1103 1.539 . S
C1101 C1097 1.408 . S
C1101 C1100 1.404 . S
C1101 H1113 0.930 . S
C1102 C1098 1.524 . S
C1102 H1114 0.956 . S
C1102 H1115 0.961 . S
C1102 H1116 0.961 . S
C1103 C1100 1.539 . S
C1103 H1117 0.958 . S
C1103 H1118 0.961 . S
C1103 H1119 0.960 . S
H1104 C1088 0.931 . S
H1105 C1093 0.929 . S
H1106 C1094 0.960 . S
H1107 C1094 0.962 . S
H1108 C1094 0.960 . S
H1109 C1095 0.961 . S
H1110 C1095 0.961 . S
H1111 C1095 0.961 . S
H1112 C1096 0.931 . S
H1113 C1101 0.930 . S
H1114 C1102 0.956 . S
H1115 C1102 0.961 . S
H1116 C1102 0.961 . S
H1117 C1103 0.958 . S
H1118 C1103 0.961 . S
H1119 C1103 0.960 . S
C1120 C1121 1.391 . S
C1120 C1122 1.394 . S
C1120 H1136 0.931 . S
C1121 C1120 1.391 . S
C1121 C1125 1.376 . S
C1122 C1120 1.394 . S
C1122 C1123 1.369 . S
C1122 C1126 1.531 . S
C1123 C1122 1.369 . S
C1123 C1124 1.410 . S
C1123 C1131 1.503 . S
C1124 C1123 1.410 . S
C1124 C1125 1.392 . S
C1124 C1127 1.511 . S
C1125 C1121 1.376 . S
C1125 C1124 1.392 . S
C1125 H1137 0.929 . S
C1126 C1122 1.531 . S
C1126 H1138 0.960 . S
C1126 H1139 0.962 . S
C1126 H1140 0.960 . S
C1127 C1124 1.511 . S
C1127 H1141 0.961 . S
C1127 H1142 0.961 . S
C1127 H1143 0.961 . S
C1128 C1129 1.370 . S
C1128 C1130 1.363 . S
C1128 H1144 0.931 . S
C1129 C1128 1.370 . S
C1129 C1133 1.408 . S
C1130 C1128 1.363 . S
C1130 C1131 1.370 . S
C1130 C1134 1.524 . S
C1131 C1123 1.503 . S
C1131 C1130 1.370 . S
C1131 C1132 1.403 . S
C1132 C1131 1.403 . S
C1132 C1133 1.404 . S
C1132 C1135 1.539 . S
C1133 C1129 1.408 . S
C1133 C1132 1.404 . S
C1133 H1145 0.930 1_556 S
C1134 C1130 1.524 . S
C1134 H1146 0.956 . S
C1134 H1147 0.961 . S
C1134 H1148 0.961 . S
C1135 C1132 1.539 . S
C1135 H1149 0.958 . S
C1135 H1150 0.961 . S
C1135 H1151 0.960 . S
H1136 C1120 0.931 . S
H1137 C1125 0.929 . S
H1138 C1126 0.960 . S
H1139 C1126 0.962 . S
H1140 C1126 0.960 . S
H1141 C1127 0.961 . S
H1142 C1127 0.961 . S
H1143 C1127 0.961 . S
H1144 C1128 0.931 . S
H1145 C1133 0.930 1_554 S
H1146 C1134 0.956 . S
H1147 C1134 0.961 . S
H1148 C1134 0.961 . S
H1149 C1135 0.958 . S
H1150 C1135 0.961 . S
H1151 C1135 0.960 . S
C1152 C1153 1.391 . S
C1152 C1154 1.394 . S
C1152 H1168 0.931 . S
C1153 C1152 1.391 . S
C1153 C1157 1.376 . S
C1154 C1152 1.394 . S
C1154 C1155 1.369 . S
C1154 C1158 1.531 . S
C1155 C1154 1.369 . S
C1155 C1156 1.410 . S
C1155 C1163 1.503 . S
C1156 C1155 1.410 . S
C1156 C1157 1.392 . S
C1156 C1159 1.511 . S
C1157 C1153 1.376 . S
C1157 C1156 1.392 . S
C1157 H1169 0.929 . S
C1158 C1154 1.531 . S
C1158 H1170 0.960 . S
C1158 H1171 0.962 . S
C1158 H1172 0.960 . S
C1159 C1156 1.511 . S
C1159 H1173 0.961 . S
C1159 H1174 0.961 . S
C1159 H1175 0.961 . S
C1160 C1161 1.370 . S
C1160 C1162 1.363 . S
C1160 H1176 0.931 . S
C1161 C1160 1.370 . S
C1161 C1165 1.408 . S
C1162 C1160 1.363 . S
C1162 C1163 1.370 . S
C1162 C1166 1.524 . S
C1163 C1155 1.503 . S
C1163 C1162 1.370 . S
C1163 C1164 1.403 . S
C1164 C1163 1.403 . S
C1164 C1165 1.404 . S
C1164 C1167 1.539 . S
C1165 C1161 1.408 . S
C1165 C1164 1.404 . S
C1165 H1177 0.930 . S
C1166 C1162 1.524 . S
C1166 H1178 0.956 . S
C1166 H1179 0.961 . S
C1166 H1180 0.961 . S
C1167 C1164 1.539 . S
C1167 H1181 0.958 . S
C1167 H1182 0.961 . S
C1167 H1183 0.960 . S
H1168 C1152 0.931 . S
H1169 C1157 0.929 . S
H1170 C1158 0.960 . S
H1171 C1158 0.962 . S
H1172 C1158 0.960 . S
H1173 C1159 0.961 . S
H1174 C1159 0.961 . S
H1175 C1159 0.961 . S
H1176 C1160 0.931 . S
H1177 C1165 0.930 . S
H1178 C1166 0.956 . S
H1179 C1166 0.961 . S
H1180 C1166 0.961 . S
H1181 C1167 0.958 . S
H1182 C1167 0.961 . S
H1183 C1167 0.960 . S
C1184 C1185 1.391 . S
C1184 C1186 1.394 . S
C1184 H1200 0.931 . S
C1185 C1184 1.391 . S
C1185 C1189 1.376 . S
C1186 C1184 1.394 . S
C1186 C1187 1.369 . S
C1186 C1190 1.531 . S
C1187 C1186 1.369 . S
C1187 C1188 1.410 . S
C1187 C1195 1.503 . S
C1188 C1187 1.410 . S
C1188 C1189 1.392 . S
C1188 C1191 1.511 . S
C1189 C1185 1.376 . S
C1189 C1188 1.392 . S
C1189 H1201 0.929 . S
C1190 C1186 1.531 . S
C1190 H1202 0.960 . S
C1190 H1203 0.962 . S
C1190 H1204 0.960 . S
C1191 C1188 1.511 . S
C1191 H1205 0.961 . S
C1191 H1206 0.961 . S
C1191 H1207 0.961 . S
C1192 C1193 1.370 . S
C1192 C1194 1.363 . S
C1192 H1208 0.931 . S
C1193 C1192 1.370 . S
C1193 C1197 1.408 . S
C1194 C1192 1.363 . S
C1194 C1195 1.370 . S
C1194 C1198 1.524 . S
C1195 C1187 1.503 . S
C1195 C1194 1.370 . S
C1195 C1196 1.403 . S
C1196 C1195 1.403 . S
C1196 C1197 1.404 . S
C1196 C1199 1.539 . S
C1197 C1193 1.408 . S
C1197 C1196 1.404 . S
C1197 H1209 0.930 . S
C1198 C1194 1.524 . S
C1198 H1210 0.956 . S
C1198 H1211 0.961 . S
C1198 H1212 0.961 . S
C1199 C1196 1.539 . S
C1199 H1213 0.958 . S
C1199 H1214 0.961 . S
C1199 H1215 0.960 . S
H1200 C1184 0.931 . S
H1201 C1189 0.929 . S
H1202 C1190 0.960 . S
H1203 C1190 0.962 . S
H1204 C1190 0.960 . S
H1205 C1191 0.961 . S
H1206 C1191 0.961 . S
H1207 C1191 0.961 . S
H1208 C1192 0.931 . S
H1209 C1197 0.930 . S
H1210 C1198 0.956 . S
H1211 C1198 0.961 . S
H1212 C1198 0.961 . S
H1213 C1199 0.958 . S
H1214 C1199 0.961 . S
H1215 C1199 0.960 . S
C1216 C1217 1.391 . S
C1216 C1218 1.394 . S
C1216 H1232 0.931 . S
C1217 C1216 1.391 . S
C1217 C1221 1.376 . S
C1218 C1216 1.394 . S
C1218 C1219 1.369 . S
C1218 C1222 1.531 . S
C1219 C1218 1.369 . S
C1219 C1220 1.410 . S
C1219 C1227 1.503 . S
C1220 C1219 1.410 . S
C1220 C1221 1.392 . S
C1220 C1223 1.511 . S
C1221 C1217 1.376 . S
C1221 C1220 1.392 . S
C1221 H1233 0.929 . S
C1222 C1218 1.531 . S
C1222 H1234 0.960 . S
C1222 H1235 0.962 . S
C1222 H1236 0.960 . S
C1223 C1220 1.511 . S
C1223 H1237 0.961 . S
C1223 H1238 0.961 . S
C1223 H1239 0.961 . S
C1224 C1225 1.370 . S
C1224 C1226 1.363 . S
C1224 H1240 0.931 . S
C1225 C1224 1.370 . S
C1225 C1229 1.408 . S
C1226 C1224 1.363 . S
C1226 C1227 1.370 . S
C1226 C1230 1.524 . S
C1227 C1219 1.503 . S
C1227 C1226 1.370 . S
C1227 C1228 1.403 . S
C1228 C1227 1.403 . S
C1228 C1229 1.404 . S
C1228 C1231 1.539 . S
C1229 C1225 1.408 . S
C1229 C1228 1.404 . S
C1229 H1241 0.930 . S
C1230 C1226 1.524 . S
C1230 H1242 0.956 . S
C1230 H1243 0.961 . S
C1230 H1244 0.961 . S
C1231 C1228 1.539 . S
C1231 H1245 0.958 . S
C1231 H1246 0.961 . S
C1231 H1247 0.960 . S
H1232 C1216 0.931 . S
H1233 C1221 0.929 . S
H1234 C1222 0.960 . S
H1235 C1222 0.962 . S
H1236 C1222 0.960 . S
H1237 C1223 0.961 . S
H1238 C1223 0.961 . S
H1239 C1223 0.961 . S
H1240 C1224 0.931 . S
H1241 C1229 0.930 . S
H1242 C1230 0.956 . S
H1243 C1230 0.961 . S
H1244 C1230 0.961 . S
H1245 C1231 0.958 . S
H1246 C1231 0.961 . S
H1247 C1231 0.960 . S
C1248 C1249 1.391 . S
C1248 C1250 1.394 . S
C1248 H1264 0.931 . S
C1249 C1248 1.391 . S
C1249 C1253 1.376 . S
C1250 C1248 1.394 . S
C1250 C1251 1.369 . S
C1250 C1254 1.531 . S
C1251 C1250 1.369 . S
C1251 C1252 1.410 . S
C1251 C1259 1.503 . S
C1252 C1251 1.410 . S
C1252 C1253 1.392 . S
C1252 C1255 1.511 . S
C1253 C1249 1.376 . S
C1253 C1252 1.392 . S
C1253 H1265 0.929 . S
C1254 C1250 1.531 . S
C1254 H1266 0.960 . S
C1254 H1267 0.962 . S
C1254 H1268 0.960 . S
C1255 C1252 1.511 . S
C1255 H1269 0.961 . S
C1255 H1270 0.961 . S
C1255 H1271 0.961 . S
C1256 C1257 1.370 . S
C1256 C1258 1.363 . S
C1256 H1272 0.931 . S
C1257 C1256 1.370 . S
C1257 C1261 1.408 . S
C1258 C1256 1.363 . S
C1258 C1259 1.370 . S
C1258 C1262 1.524 . S
C1259 C1251 1.503 . S
C1259 C1258 1.370 . S
C1259 C1260 1.403 . S
C1260 C1259 1.403 . S
C1260 C1261 1.404 . S
C1260 C1263 1.539 . S
C1261 C1257 1.408 . S
C1261 C1260 1.404 . S
C1261 H1273 0.930 . S
C1262 C1258 1.524 . S
C1262 H1274 0.956 . S
C1262 H1275 0.961 . S
C1262 H1276 0.961 . S
C1263 C1260 1.539 . S
C1263 H1277 0.958 . S
C1263 H1278 0.961 . S
C1263 H1279 0.960 . S
H1264 C1248 0.931 . S
H1265 C1253 0.929 . S
H1266 C1254 0.960 . S
H1267 C1254 0.962 . S
H1268 C1254 0.960 . S
H1269 C1255 0.961 . S
H1270 C1255 0.961 . S
H1271 C1255 0.961 . S
H1272 C1256 0.931 . S
H1273 C1261 0.930 . S
H1274 C1262 0.956 . S
H1275 C1262 0.961 . S
H1276 C1262 0.961 . S
H1277 C1263 0.958 . S
H1278 C1263 0.961 . S
H1279 C1263 0.960 . S
C1280 C1281 1.391 . S
C1280 C1282 1.394 . S
C1280 H1296 0.931 . S
C1281 C1280 1.391 . S
C1281 C1285 1.376 . S
C1282 C1280 1.394 . S
C1282 C1283 1.369 . S
C1282 C1286 1.531 . S
C1283 C1282 1.369 . S
C1283 C1284 1.410 . S
C1283 C1291 1.503 . S
C1284 C1283 1.410 . S
C1284 C1285 1.392 . S
C1284 C1287 1.511 . S
C1285 C1281 1.376 . S
C1285 C1284 1.392 . S
C1285 H1297 0.929 . S
C1286 C1282 1.531 . S
C1286 H1298 0.960 . S
C1286 H1299 0.962 . S
C1286 H1300 0.960 . S
C1287 C1284 1.511 . S
C1287 H1301 0.961 . S
C1287 H1302 0.961 . S
C1287 H1303 0.961 . S
C1288 C1289 1.370 . S
C1288 C1290 1.363 . S
C1288 H1304 0.931 . S
C1289 C1288 1.370 . S
C1289 C1293 1.408 . S
C1290 C1288 1.363 . S
C1290 C1291 1.370 . S
C1290 C1294 1.524 . S
C1291 C1283 1.503 . S
C1291 C1290 1.370 . S
C1291 C1292 1.403 . S
C1292 C1291 1.403 . S
C1292 C1293 1.404 . S
C1292 C1295 1.539 . S
C1293 C1289 1.408 . S
C1293 C1292 1.404 . S
C1293 H1305 0.930 . S
C1294 C1290 1.524 . S
C1294 H1306 0.956 . S
C1294 H1307 0.961 . S
C1294 H1308 0.961 . S
C1295 C1292 1.539 . S
C1295 H1309 0.958 . S
C1295 H1310 0.961 . S
C1295 H1311 0.960 . S
H1296 C1280 0.931 . S
H1297 C1285 0.929 . S
H1298 C1286 0.960 . S
H1299 C1286 0.962 . S
H1300 C1286 0.960 . S
H1301 C1287 0.961 . S
H1302 C1287 0.961 . S
H1303 C1287 0.961 . S
H1304 C1288 0.931 . S
H1305 C1293 0.930 . S
H1306 C1294 0.956 . S
H1307 C1294 0.961 . S
H1308 C1294 0.961 . S
H1309 C1295 0.958 . S
H1310 C1295 0.961 . S
H1311 C1295 0.960 . S
C1312 C1313 1.391 . S
C1312 C1314 1.394 . S
C1312 H1328 0.931 . S
C1313 C1312 1.391 . S
C1313 C1317 1.376 . S
C1314 C1312 1.394 . S
C1314 C1315 1.369 . S
C1314 C1318 1.531 . S
C1315 C1314 1.369 . S
C1315 C1316 1.410 . S
C1315 C1323 1.503 . S
C1316 C1315 1.410 . S
C1316 C1317 1.392 . S
C1316 C1319 1.511 . S
C1317 C1313 1.376 . S
C1317 C1316 1.392 . S
C1317 H1329 0.929 . S
C1318 C1314 1.531 . S
C1318 H1330 0.960 . S
C1318 H1331 0.962 . S
C1318 H1332 0.960 . S
C1319 C1316 1.511 . S
C1319 H1333 0.961 . S
C1319 H1334 0.961 . S
C1319 H1335 0.961 . S
C1320 C1321 1.370 . S
C1320 C1322 1.363 . S
C1320 H1336 0.931 . S
C1321 C1320 1.370 . S
C1321 C1325 1.408 . S
C1322 C1320 1.363 . S
C1322 C1323 1.370 . S
C1322 C1326 1.524 . S
C1323 C1315 1.503 . S
C1323 C1322 1.370 . S
C1323 C1324 1.403 . S
C1324 C1323 1.403 . S
C1324 C1325 1.404 . S
C1324 C1327 1.539 . S
C1325 C1321 1.408 . S
C1325 C1324 1.404 . S
C1325 H1337 0.930 . S
C1326 C1322 1.524 . S
C1326 H1338 0.956 . S
C1326 H1339 0.961 . S
C1326 H1340 0.961 . S
C1327 C1324 1.539 . S
C1327 H1341 0.958 . S
C1327 H1342 0.961 . S
C1327 H1343 0.960 . S
H1328 C1312 0.931 . S
H1329 C1317 0.929 . S
H1330 C1318 0.960 . S
H1331 C1318 0.962 . S
H1332 C1318 0.960 . S
H1333 C1319 0.961 . S
H1334 C1319 0.961 . S
H1335 C1319 0.961 . S
H1336 C1320 0.931 . S
H1337 C1325 0.930 . S
H1338 C1326 0.956 . S
H1339 C1326 0.961 . S
H1340 C1326 0.961 . S
H1341 C1327 0.958 . S
H1342 C1327 0.961 . S
H1343 C1327 0.960 . S
C1344 C1345 1.391 . S
C1344 C1346 1.394 . S
C1344 H1360 0.931 . S
C1345 C1344 1.391 . S
C1345 C1349 1.376 . S
C1346 C1344 1.394 . S
C1346 C1347 1.369 . S
C1346 C1350 1.531 . S
C1347 C1346 1.369 . S
C1347 C1348 1.410 . S
C1347 C1355 1.503 . S
C1348 C1347 1.410 . S
C1348 C1349 1.392 . S
C1348 C1351 1.511 . S
C1349 C1345 1.376 . S
C1349 C1348 1.392 . S
C1349 H1361 0.929 . S
C1350 C1346 1.531 . S
C1350 H1362 0.960 . S
C1350 H1363 0.962 . S
C1350 H1364 0.960 . S
C1351 C1348 1.511 . S
C1351 H1365 0.961 . S
C1351 H1366 0.961 . S
C1351 H1367 0.961 . S
C1352 C1353 1.370 . S
C1352 C1354 1.363 . S
C1352 H1368 0.931 . S
C1353 C1352 1.370 . S
C1353 C1357 1.408 . S
C1354 C1352 1.363 . S
C1354 C1355 1.370 . S
C1354 C1358 1.524 . S
C1355 C1347 1.503 . S
C1355 C1354 1.370 . S
C1355 C1356 1.403 . S
C1356 C1355 1.403 . S
C1356 C1357 1.404 . S
C1356 C1359 1.539 . S
C1357 C1353 1.408 . S
C1357 C1356 1.404 . S
C1357 H1369 0.930 . S
C1358 C1354 1.524 . S
C1358 H1370 0.956 . S
C1358 H1371 0.961 . S
C1358 H1372 0.961 . S
C1359 C1356 1.539 . S
C1359 H1373 0.958 . S
C1359 H1374 0.961 . S
C1359 H1375 0.960 . S
H1360 C1344 0.931 . S
H1361 C1349 0.929 . S
H1362 C1350 0.960 . S
H1363 C1350 0.962 . S
H1364 C1350 0.960 . S
H1365 C1351 0.961 . S
H1366 C1351 0.961 . S
H1367 C1351 0.961 . S
H1368 C1352 0.931 . S
H1369 C1357 0.930 . S
H1370 C1358 0.956 . S
H1371 C1358 0.961 . S
H1372 C1358 0.961 . S
H1373 C1359 0.958 . S
H1374 C1359 0.961 . S
H1375 C1359 0.960 . S
C1376 C1377 1.391 . S
C1376 C1378 1.394 . S
C1376 H1392 0.931 . S
C1377 C1376 1.391 . S
C1377 C1381 1.376 . S
C1378 C1376 1.394 . S
C1378 C1379 1.369 . S
C1378 C1382 1.531 . S
C1379 C1378 1.369 . S
C1379 C1380 1.410 . S
C1379 C1387 1.503 . S
C1380 C1379 1.410 . S
C1380 C1381 1.392 . S
C1380 C1383 1.511 . S
C1381 C1377 1.376 . S
C1381 C1380 1.392 . S
C1381 H1393 0.929 . S
C1382 C1378 1.531 . S
C1382 H1394 0.960 . S
C1382 H1395 0.962 . S
C1382 H1396 0.960 . S
C1383 C1380 1.511 . S
C1383 H1397 0.961 . S
C1383 H1398 0.961 . S
C1383 H1399 0.961 . S
C1384 C1385 1.370 . S
C1384 C1386 1.363 . S
C1384 H1400 0.931 . S
C1385 C1384 1.370 . S
C1385 C1389 1.408 . S
C1386 C1384 1.363 . S
C1386 C1387 1.370 . S
C1386 C1390 1.524 . S
C1387 C1379 1.503 . S
C1387 C1386 1.370 . S
C1387 C1388 1.403 . S
C1388 C1387 1.403 . S
C1388 C1389 1.404 . S
C1388 C1391 1.539 . S
C1389 C1385 1.408 . S
C1389 C1388 1.404 . S
C1389 H1401 0.930 . S
C1390 C1386 1.524 . S
C1390 H1402 0.956 . S
C1390 H1403 0.961 . S
C1390 H1404 0.961 . S
C1391 C1388 1.539 . S
C1391 H1405 0.958 . S
C1391 H1406 0.961 . S
C1391 H1407 0.960 . S
H1392 C1376 0.931 . S
H1393 C1381 0.929 . S
H1394 C1382 0.960 . S
H1395 C1382 0.962 . S
H1396 C1382 0.960 . S
H1397 C1383 0.961 . S
H1398 C1383 0.961 . S
H1399 C1383 0.961 . S
H1400 C1384 0.931 . S
H1401 C1389 0.930 . S
H1402 C1390 0.956 . S
H1403 C1390 0.961 . S
H1404 C1390 0.961 . S
H1405 C1391 0.958 . S
H1406 C1391 0.961 . S
H1407 C1391 0.960 . S
C1408 C1409 1.391 . S
C1408 C1410 1.394 . S
C1408 H1424 0.931 . S
C1409 C1408 1.391 . S
C1409 C1413 1.376 . S
C1410 C1408 1.394 . S
C1410 C1411 1.369 . S
C1410 C1414 1.531 . S
C1411 C1410 1.369 . S
C1411 C1412 1.410 . S
C1411 C1419 1.503 . S
C1412 C1411 1.410 . S
C1412 C1413 1.392 . S
C1412 C1415 1.511 . S
C1413 C1409 1.376 . S
C1413 C1412 1.392 . S
C1413 H1425 0.929 . S
C1414 C1410 1.531 . S
C1414 H1426 0.960 1_545 S
C1414 H1427 0.962 . S
C1414 H1428 0.960 1_545 S
C1415 C1412 1.511 . S
C1415 H1429 0.961 . S
C1415 H1430 0.961 . S
C1415 H1431 0.961 . S
C1416 C1417 1.370 . S
C1416 C1418 1.363 . S
C1416 H1432 0.931 . S
C1417 C1416 1.370 . S
C1417 C1421 1.408 1_545 S
C1418 C1416 1.363 . S
C1418 C1419 1.370 . S
C1418 C1422 1.524 . S
C1419 C1411 1.503 . S
C1419 C1418 1.370 . S
C1419 C1420 1.403 1_545 S
C1420 C1419 1.403 1_565 S
C1420 C1421 1.404 . S
C1420 C1423 1.539 . S
C1421 C1417 1.408 1_565 S
C1421 C1420 1.404 . S
C1421 H1433 0.930 . S
C1422 C1418 1.524 . S
C1422 H1434 0.956 . S
C1422 H1435 0.961 . S
C1422 H1436 0.961 . S
C1423 C1420 1.539 . S
C1423 H1437 0.958 . S
C1423 H1438 0.961 . S
C1423 H1439 0.960 . S
H1424 C1408 0.931 . S
H1425 C1413 0.929 . S
H1426 C1414 0.960 1_565 S
H1427 C1414 0.962 . S
H1428 C1414 0.960 1_565 S
H1429 C1415 0.961 . S
H1430 C1415 0.961 . S
H1431 C1415 0.961 . S
H1432 C1416 0.931 . S
H1433 C1421 0.930 . S
H1434 C1422 0.956 . S
H1435 C1422 0.961 . S
H1436 C1422 0.961 . S
H1437 C1423 0.958 . S
H1438 C1423 0.961 . S
H1439 C1423 0.960 . S
C1440 C1441 1.391 . S
C1440 C1442 1.394 . S
C1440 H1456 0.931 . S
C1441 C1440 1.391 . S
C1441 C1445 1.376 . S
C1442 C1440 1.394 . S
C1442 C1443 1.369 . S
C1442 C1446 1.531 . S
C1443 C1442 1.369 . S
C1443 C1444 1.410 . S
C1443 C1451 1.503 . S
C1444 C1443 1.410 . S
C1444 C1445 1.392 . S
C1444 C1447 1.511 . S
C1445 C1441 1.376 . S
C1445 C1444 1.392 . S
C1445 H1457 0.929 . S
C1446 C1442 1.531 . S
C1446 H1458 0.960 . S
C1446 H1459 0.962 . S
C1446 H1460 0.960 . S
C1447 C1444 1.511 . S
C1447 H1461 0.961 . S
C1447 H1462 0.961 . S
C1447 H1463 0.961 . S
C1448 C1449 1.370 . S
C1448 C1450 1.363 . S
C1448 H1464 0.931 . S
C1449 C1448 1.370 . S
C1449 C1453 1.408 . S
C1450 C1448 1.363 . S
C1450 C1451 1.370 . S
C1450 C1454 1.524 . S
C1451 C1443 1.503 . S
C1451 C1450 1.370 . S
C1451 C1452 1.403 . S
C1452 C1451 1.403 . S
C1452 C1453 1.404 . S
C1452 C1455 1.539 . S
C1453 C1449 1.408 . S
C1453 C1452 1.404 . S
C1453 H1465 0.930 . S
C1454 C1450 1.524 . S
C1454 H1466 0.956 . S
C1454 H1467 0.961 . S
C1454 H1468 0.961 . S
C1455 C1452 1.539 . S
C1455 H1469 0.958 . S
C1455 H1470 0.961 . S
C1455 H1471 0.960 . S
H1456 C1440 0.931 . S
H1457 C1445 0.929 . S
H1458 C1446 0.960 . S
H1459 C1446 0.962 . S
H1460 C1446 0.960 . S
H1461 C1447 0.961 . S
H1462 C1447 0.961 . S
H1463 C1447 0.961 . S
H1464 C1448 0.931 . S
H1465 C1453 0.930 . S
H1466 C1454 0.956 . S
H1467 C1454 0.961 . S
H1468 C1454 0.961 . S
H1469 C1455 0.958 . S
H1470 C1455 0.961 . S
H1471 C1455 0.960 . S
C1472 C1473 1.391 . S
C1472 C1474 1.394 . S
C1472 H1488 0.931 1_545 S
C1473 C1472 1.391 . S
C1473 C1477 1.376 . S
C1474 C1472 1.394 . S
C1474 C1475 1.369 . S
C1474 C1478 1.531 1_545 S
C1475 C1474 1.369 . S
C1475 C1476 1.410 . S
C1475 C1483 1.503 . S
C1476 C1475 1.410 . S
C1476 C1477 1.392 . S
C1476 C1479 1.511 . S
C1477 C1473 1.376 . S
C1477 C1476 1.392 . S
C1477 H1489 0.929 . S
C1478 C1474 1.531 1_565 S
C1478 H1490 0.960 . S
C1478 H1491 0.962 . S
C1478 H1492 0.960 . S
C1479 C1476 1.511 . S
C1479 H1493 0.961 . S
C1479 H1494 0.961 . S
C1479 H1495 0.961 . S
C1480 C1481 1.370 . S
C1480 C1482 1.363 . S
C1480 H1496 0.931 . S
C1481 C1480 1.370 . S
C1481 C1485 1.408 . S
C1482 C1480 1.363 . S
C1482 C1483 1.370 . S
C1482 C1486 1.524 . S
C1483 C1475 1.503 . S
C1483 C1482 1.370 . S
C1483 C1484 1.403 . S
C1484 C1483 1.403 . S
C1484 C1485 1.404 . S
C1484 C1487 1.539 1_545 S
C1485 C1481 1.408 . S
C1485 C1484 1.404 . S
C1485 H1497 0.930 1_545 S
C1486 C1482 1.524 . S
C1486 H1498 0.956 . S
C1486 H1499 0.961 . S
C1486 H1500 0.961 . S
C1487 C1484 1.539 1_565 S
C1487 H1501 0.958 . S
C1487 H1502 0.961 . S
C1487 H1503 0.960 1_565 S
H1488 C1472 0.931 1_565 S
H1489 C1477 0.929 . S
H1490 C1478 0.960 . S
H1491 C1478 0.962 . S
H1492 C1478 0.960 . S
H1493 C1479 0.961 . S
H1494 C1479 0.961 . S
H1495 C1479 0.961 . S
H1496 C1480 0.931 . S
H1497 C1485 0.930 1_565 S
H1498 C1486 0.956 . S
H1499 C1486 0.961 . S
H1500 C1486 0.961 . S
H1501 C1487 0.958 . S
H1502 C1487 0.961 . S
H1503 C1487 0.960 1_545 S
C1504 C1505 1.391 . S
C1504 C1506 1.394 . S
C1504 H1520 0.931 . S
C1505 C1504 1.391 . S
C1505 C1509 1.376 . S
C1506 C1504 1.394 . S
C1506 C1507 1.369 . S
C1506 C1510 1.531 . S
C1507 C1506 1.369 . S
C1507 C1508 1.410 . S
C1507 C1515 1.503 . S
C1508 C1507 1.410 . S
C1508 C1509 1.392 . S
C1508 C1511 1.511 . S
C1509 C1505 1.376 . S
C1509 C1508 1.392 . S
C1509 H1521 0.929 . S
C1510 C1506 1.531 . S
C1510 H1522 0.960 . S
C1510 H1523 0.962 . S
C1510 H1524 0.960 . S
C1511 C1508 1.511 . S
C1511 H1525 0.961 . S
C1511 H1526 0.961 . S
C1511 H1527 0.961 . S
C1512 C1513 1.370 . S
C1512 C1514 1.363 . S
C1512 H1528 0.931 . S
C1513 C1512 1.370 . S
C1513 C1517 1.408 . S
C1514 C1512 1.363 . S
C1514 C1515 1.370 . S
C1514 C1518 1.524 . S
C1515 C1507 1.503 . S
C1515 C1514 1.370 . S
C1515 C1516 1.403 . S
C1516 C1515 1.403 . S
C1516 C1517 1.404 . S
C1516 C1519 1.539 . S
C1517 C1513 1.408 . S
C1517 C1516 1.404 . S
C1517 H1529 0.930 . S
C1518 C1514 1.524 . S
C1518 H1530 0.956 . S
C1518 H1531 0.961 . S
C1518 H1532 0.961 . S
C1519 C1516 1.539 . S
C1519 H1533 0.958 . S
C1519 H1534 0.961 . S
C1519 H1535 0.960 . S
H1520 C1504 0.931 . S
H1521 C1509 0.929 . S
H1522 C1510 0.960 . S
H1523 C1510 0.962 . S
H1524 C1510 0.960 . S
H1525 C1511 0.961 . S
H1526 C1511 0.961 . S
H1527 C1511 0.961 . S
H1528 C1512 0.931 . S
H1529 C1517 0.930 . S
H1530 C1518 0.956 . S
H1531 C1518 0.961 . S
H1532 C1518 0.961 . S
H1533 C1519 0.958 . S
H1534 C1519 0.961 . S
H1535 C1519 0.960 . S
C1536 C1537 1.391 . S
C1536 C1538 1.394 . S
C1536 H1552 0.931 . S
C1537 C1536 1.391 . S
C1537 C1541 1.376 . S
C1538 C1536 1.394 . S
C1538 C1539 1.369 . S
C1538 C1542 1.531 . S
C1539 C1538 1.369 . S
C1539 C1540 1.410 . S
C1539 C1547 1.503 . S
C1540 C1539 1.410 . S
C1540 C1541 1.392 . S
C1540 C1543 1.511 . S
C1541 C1537 1.376 . S
C1541 C1540 1.392 . S
C1541 H1553 0.929 . S
C1542 C1538 1.531 . S
C1542 H1554 0.960 . S
C1542 H1555 0.962 . S
C1542 H1556 0.960 . S
C1543 C1540 1.511 . S
C1543 H1557 0.961 . S
C1543 H1558 0.961 . S
C1543 H1559 0.961 . S
C1544 C1545 1.370 . S
C1544 C1546 1.363 . S
C1544 H1560 0.931 . S
C1545 C1544 1.370 . S
C1545 C1549 1.408 . S
C1546 C1544 1.363 . S
C1546 C1547 1.370 . S
C1546 C1550 1.524 . S
C1547 C1539 1.503 . S
C1547 C1546 1.370 . S
C1547 C1548 1.403 . S
C1548 C1547 1.403 . S
C1548 C1549 1.404 . S
C1548 C1551 1.539 . S
C1549 C1545 1.408 . S
C1549 C1548 1.404 . S
C1549 H1561 0.930 . S
C1550 C1546 1.524 . S
C1550 H1562 0.956 . S
C1550 H1563 0.961 . S
C1550 H1564 0.961 . S
C1551 C1548 1.539 . S
C1551 H1565 0.958 . S
C1551 H1566 0.961 . S
C1551 H1567 0.960 . S
H1552 C1536 0.931 . S
H1553 C1541 0.929 . S
H1554 C1542 0.960 . S
H1555 C1542 0.962 . S
H1556 C1542 0.960 . S
H1557 C1543 0.961 . S
H1558 C1543 0.961 . S
H1559 C1543 0.961 . S
H1560 C1544 0.931 . S
H1561 C1549 0.930 . S
H1562 C1550 0.956 . S
H1563 C1550 0.961 . S
H1564 C1550 0.961 . S
H1565 C1551 0.958 . S
H1566 C1551 0.961 . S
H1567 C1551 0.960 . S
C1568 C1569 1.391 . S
C1568 C1570 1.394 . S
C1568 H1584 0.931 . S
C1569 C1568 1.391 . S
C1569 C1573 1.376 . S
C1570 C1568 1.394 . S
C1570 C1571 1.369 . S
C1570 C1574 1.531 . S
C1571 C1570 1.369 . S
C1571 C1572 1.410 . S
C1571 C1579 1.503 . S
C1572 C1571 1.410 . S
C1572 C1573 1.392 . S
C1572 C1575 1.511 . S
C1573 C1569 1.376 . S
C1573 C1572 1.392 . S
C1573 H1585 0.929 . S
C1574 C1570 1.531 . S
C1574 H1586 0.960 . S
C1574 H1587 0.962 . S
C1574 H1588 0.960 . S
C1575 C1572 1.511 . S
C1575 H1589 0.961 . S
C1575 H1590 0.961 . S
C1575 H1591 0.961 . S
C1576 C1577 1.370 . S
C1576 C1578 1.363 . S
C1576 H1592 0.931 . S
C1577 C1576 1.370 . S
C1577 C1581 1.408 1_556 S
C1578 C1576 1.363 . S
C1578 C1579 1.370 . S
C1578 C1582 1.524 . S
C1579 C1571 1.503 . S
C1579 C1578 1.370 . S
C1579 C1580 1.403 . S
C1580 C1579 1.403 . S
C1580 C1581 1.404 1_556 S
C1580 C1583 1.539 1_556 S
C1581 C1577 1.408 1_554 S
C1581 C1580 1.404 1_554 S
C1581 H1593 0.930 . S
C1582 C1578 1.524 . S
C1582 H1594 0.956 . S
C1582 H1595 0.961 . S
C1582 H1596 0.961 . S
C1583 C1580 1.539 1_554 S
C1583 H1597 0.958 . S
C1583 H1598 0.961 . S
C1583 H1599 0.960 1_554 S
H1584 C1568 0.931 . S
H1585 C1573 0.929 . S
H1586 C1574 0.960 . S
H1587 C1574 0.962 . S
H1588 C1574 0.960 . S
H1589 C1575 0.961 . S
H1590 C1575 0.961 . S
H1591 C1575 0.961 . S
H1592 C1576 0.931 . S
H1593 C1581 0.930 . S
H1594 C1582 0.956 . S
H1595 C1582 0.961 . S
H1596 C1582 0.961 . S
H1597 C1583 0.958 . S
H1598 C1583 0.961 . S
H1599 C1583 0.960 1_556 S
C1600 C1601 1.391 . S
C1600 C1602 1.394 . S
C1600 H1616 0.931 . S
C1601 C1600 1.391 . S
C1601 C1605 1.376 . S
C1602 C1600 1.394 . S
C1602 C1603 1.369 . S
C1602 C1606 1.531 . S
C1603 C1602 1.369 . S
C1603 C1604 1.410 . S
C1603 C1611 1.503 . S
C1604 C1603 1.410 . S
C1604 C1605 1.392 . S
C1604 C1607 1.511 . S
C1605 C1601 1.376 . S
C1605 C1604 1.392 . S
C1605 H1617 0.929 . S
C1606 C1602 1.531 . S
C1606 H1618 0.960 . S
C1606 H1619 0.962 . S
C1606 H1620 0.960 . S
C1607 C1604 1.511 . S
C1607 H1621 0.961 . S
C1607 H1622 0.961 . S
C1607 H1623 0.961 . S
C1608 C1609 1.370 . S
C1608 C1610 1.363 . S
C1608 H1624 0.931 . S
C1609 C1608 1.370 . S
C1609 C1613 1.408 . S
C1610 C1608 1.363 . S
C1610 C1611 1.370 . S
C1610 C1614 1.524 . S
C1611 C1603 1.503 . S
C1611 C1610 1.370 . S
C1611 C1612 1.403 . S
C1612 C1611 1.403 . S
C1612 C1613 1.404 . S
C1612 C1615 1.539 . S
C1613 C1609 1.408 . S
C1613 C1612 1.404 . S
C1613 H1625 0.930 . S
C1614 C1610 1.524 . S
C1614 H1626 0.956 . S
C1614 H1627 0.961 . S
C1614 H1628 0.961 . S
C1615 C1612 1.539 . S
C1615 H1629 0.958 . S
C1615 H1630 0.961 . S
C1615 H1631 0.960 . S
H1616 C1600 0.931 . S
H1617 C1605 0.929 . S
H1618 C1606 0.960 . S
H1619 C1606 0.962 . S
H1620 C1606 0.960 . S
H1621 C1607 0.961 . S
H1622 C1607 0.961 . S
H1623 C1607 0.961 . S
H1624 C1608 0.931 . S
H1625 C1613 0.930 . S
H1626 C1614 0.956 . S
H1627 C1614 0.961 . S
H1628 C1614 0.961 . S
H1629 C1615 0.958 . S
H1630 C1615 0.961 . S
H1631 C1615 0.960 . S
C1632 C1633 1.391 . S
C1632 C1634 1.394 . S
C1632 H1648 0.931 . S
C1633 C1632 1.391 . S
C1633 C1637 1.376 . S
C1634 C1632 1.394 . S
C1634 C1635 1.369 . S
C1634 C1638 1.531 . S
C1635 C1634 1.369 . S
C1635 C1636 1.410 . S
C1635 C1643 1.503 . S
C1636 C1635 1.410 . S
C1636 C1637 1.392 . S
C1636 C1639 1.511 . S
C1637 C1633 1.376 . S
C1637 C1636 1.392 . S
C1637 H1649 0.929 . S
C1638 C1634 1.531 . S
C1638 H1650 0.960 . S
C1638 H1651 0.962 . S
C1638 H1652 0.960 . S
C1639 C1636 1.511 . S
C1639 H1653 0.961 . S
C1639 H1654 0.961 . S
C1639 H1655 0.961 . S
C1640 C1641 1.370 . S
C1640 C1642 1.363 . S
C1640 H1656 0.931 . S
C1641 C1640 1.370 . S
C1641 C1645 1.408 . S
C1642 C1640 1.363 . S
C1642 C1643 1.370 . S
C1642 C1646 1.524 . S
C1643 C1635 1.503 . S
C1643 C1642 1.370 . S
C1643 C1644 1.403 . S
C1644 C1643 1.403 . S
C1644 C1645 1.404 . S
C1644 C1647 1.539 . S
C1645 C1641 1.408 . S
C1645 C1644 1.404 . S
C1645 H1657 0.930 . S
C1646 C1642 1.524 . S
C1646 H1658 0.956 . S
C1646 H1659 0.961 . S
C1646 H1660 0.961 . S
C1647 C1644 1.539 . S
C1647 H1661 0.958 . S
C1647 H1662 0.961 . S
C1647 H1663 0.960 . S
H1648 C1632 0.931 . S
H1649 C1637 0.929 . S
H1650 C1638 0.960 . S
H1651 C1638 0.962 . S
H1652 C1638 0.960 . S
H1653 C1639 0.961 . S
H1654 C1639 0.961 . S
H1655 C1639 0.961 . S
H1656 C1640 0.931 . S
H1657 C1645 0.930 . S
H1658 C1646 0.956 . S
H1659 C1646 0.961 . S
H1660 C1646 0.961 . S
H1661 C1647 0.958 . S
H1662 C1647 0.961 . S
H1663 C1647 0.960 . S
C1664 C1665 1.391 . S
C1664 C1666 1.394 . S
C1664 H1680 0.931 . S
C1665 C1664 1.391 . S
C1665 C1669 1.376 . S
C1666 C1664 1.394 . S
C1666 C1667 1.369 . S
C1666 C1670 1.531 . S
C1667 C1666 1.369 . S
C1667 C1668 1.410 . S
C1667 C1675 1.503 . S
C1668 C1667 1.410 . S
C1668 C1669 1.392 . S
C1668 C1671 1.511 . S
C1669 C1665 1.376 . S
C1669 C1668 1.392 . S
C1669 H1681 0.929 . S
C1670 C1666 1.531 . S
C1670 H1682 0.960 . S
C1670 H1683 0.962 . S
C1670 H1684 0.960 . S
C1671 C1668 1.511 . S
C1671 H1685 0.961 . S
C1671 H1686 0.961 . S
C1671 H1687 0.961 . S
C1672 C1673 1.370 . S
C1672 C1674 1.363 . S
C1672 H1688 0.931 . S
C1673 C1672 1.370 . S
C1673 C1677 1.408 1_554 S
C1674 C1672 1.363 . S
C1674 C1675 1.370 . S
C1674 C1678 1.524 . S
C1675 C1667 1.503 . S
C1675 C1674 1.370 . S
C1675 C1676 1.403 . S
C1676 C1675 1.403 . S
C1676 C1677 1.404 1_554 S
C1676 C1679 1.539 1_554 S
C1677 C1673 1.408 1_556 S
C1677 C1676 1.404 1_556 S
C1677 H1689 0.930 . S
C1678 C1674 1.524 . S
C1678 H1690 0.956 . S
C1678 H1691 0.961 . S
C1678 H1692 0.961 . S
C1679 C1676 1.539 1_556 S
C1679 H1693 0.958 . S
C1679 H1694 0.961 . S
C1679 H1695 0.960 . S
H1680 C1664 0.931 . S
H1681 C1669 0.929 . S
H1682 C1670 0.960 . S
H1683 C1670 0.962 . S
H1684 C1670 0.960 . S
H1685 C1671 0.961 . S
H1686 C1671 0.961 . S
H1687 C1671 0.961 . S
H1688 C1672 0.931 . S
H1689 C1677 0.930 . S
H1690 C1678 0.956 . S
H1691 C1678 0.961 . S
H1692 C1678 0.961 . S
H1693 C1679 0.958 . S
H1694 C1679 0.961 . S
H1695 C1679 0.960 . S
C1696 C1697 1.391 . S
C1696 C1698 1.394 . S
C1696 H1712 0.931 . S
C1697 C1696 1.391 . S
C1697 C1701 1.376 . S
C1698 C1696 1.394 . S
C1698 C1699 1.369 . S
C1698 C1702 1.531 . S
C1699 C1698 1.369 . S
C1699 C1700 1.410 . S
C1699 C1707 1.503 . S
C1700 C1699 1.410 . S
C1700 C1701 1.392 . S
C1700 C1703 1.511 . S
C1701 C1697 1.376 . S
C1701 C1700 1.392 . S
C1701 H1713 0.929 . S
C1702 C1698 1.531 . S
C1702 H1714 0.960 . S
C1702 H1715 0.962 . S
C1702 H1716 0.960 . S
C1703 C1700 1.511 . S
C1703 H1717 0.961 . S
C1703 H1718 0.961 . S
C1703 H1719 0.961 . S
C1704 C1705 1.370 . S
C1704 C1706 1.363 . S
C1704 H1720 0.931 . S
C1705 C1704 1.370 . S
C1705 C1709 1.408 . S
C1706 C1704 1.363 . S
C1706 C1707 1.370 . S
C1706 C1710 1.524 . S
C1707 C1699 1.503 . S
C1707 C1706 1.370 . S
C1707 C1708 1.403 . S
C1708 C1707 1.403 . S
C1708 C1709 1.404 . S
C1708 C1711 1.539 . S
C1709 C1705 1.408 . S
C1709 C1708 1.404 . S
C1709 H1721 0.930 . S
C1710 C1706 1.524 . S
C1710 H1722 0.956 . S
C1710 H1723 0.961 . S
C1710 H1724 0.961 . S
C1711 C1708 1.539 . S
C1711 H1725 0.958 . S
C1711 H1726 0.961 . S
C1711 H1727 0.960 . S
H1712 C1696 0.931 . S
H1713 C1701 0.929 . S
H1714 C1702 0.960 . S
H1715 C1702 0.962 . S
H1716 C1702 0.960 . S
H1717 C1703 0.961 . S
H1718 C1703 0.961 . S
H1719 C1703 0.961 . S
H1720 C1704 0.931 . S
H1721 C1709 0.930 . S
H1722 C1710 0.956 . S
H1723 C1710 0.961 . S
H1724 C1710 0.961 . S
H1725 C1711 0.958 . S
H1726 C1711 0.961 . S
H1727 C1711 0.960 . S
C1728 C1729 1.391 . S
C1728 C1730 1.394 . S
C1728 H1744 0.931 . S
C1729 C1728 1.391 . S
C1729 C1733 1.376 . S
C1730 C1728 1.394 . S
C1730 C1731 1.369 . S
C1730 C1734 1.531 . S
C1731 C1730 1.369 . S
C1731 C1732 1.410 . S
C1731 C1739 1.503 . S
C1732 C1731 1.410 . S
C1732 C1733 1.392 . S
C1732 C1735 1.511 . S
C1733 C1729 1.376 . S
C1733 C1732 1.392 . S
C1733 H1745 0.929 . S
C1734 C1730 1.531 . S
C1734 H1746 0.960 . S
C1734 H1747 0.962 . S
C1734 H1748 0.960 . S
C1735 C1732 1.511 . S
C1735 H1749 0.961 . S
C1735 H1750 0.961 . S
C1735 H1751 0.961 . S
C1736 C1737 1.370 . S
C1736 C1738 1.363 . S
C1736 H1752 0.931 . S
C1737 C1736 1.370 . S
C1737 C1741 1.408 . S
C1738 C1736 1.363 . S
C1738 C1739 1.370 . S
C1738 C1742 1.524 . S
C1739 C1731 1.503 . S
C1739 C1738 1.370 . S
C1739 C1740 1.403 . S
C1740 C1739 1.403 . S
C1740 C1741 1.404 . S
C1740 C1743 1.539 . S
C1741 C1737 1.408 . S
C1741 C1740 1.404 . S
C1741 H1753 0.930 . S
C1742 C1738 1.524 . S
C1742 H1754 0.956 . S
C1742 H1755 0.961 . S
C1742 H1756 0.961 . S
C1743 C1740 1.539 . S
C1743 H1757 0.958 . S
C1743 H1758 0.961 . S
C1743 H1759 0.960 . S
H1744 C1728 0.931 . S
H1745 C1733 0.929 . S
H1746 C1734 0.960 . S
H1747 C1734 0.962 . S
H1748 C1734 0.960 . S
H1749 C1735 0.961 . S
H1750 C1735 0.961 . S
H1751 C1735 0.961 . S
H1752 C1736 0.931 . S
H1753 C1741 0.930 . S
H1754 C1742 0.956 . S
H1755 C1742 0.961 . S
H1756 C1742 0.961 . S
H1757 C1743 0.958 . S
H1758 C1743 0.961 . S
H1759 C1743 0.960 . S
C1760 C1761 1.391 . S
C1760 C1762 1.394 . S
C1760 H1776 0.931 . S
C1761 C1760 1.391 . S
C1761 C1765 1.376 . S
C1762 C1760 1.394 . S
C1762 C1763 1.369 . S
C1762 C1766 1.531 . S
C1763 C1762 1.369 . S
C1763 C1764 1.410 . S
C1763 C1771 1.503 . S
C1764 C1763 1.410 . S
C1764 C1765 1.392 . S
C1764 C1767 1.511 . S
C1765 C1761 1.376 . S
C1765 C1764 1.392 . S
C1765 H1777 0.929 . S
C1766 C1762 1.531 . S
C1766 H1778 0.960 . S
C1766 H1779 0.962 . S
C1766 H1780 0.960 . S
C1767 C1764 1.511 . S
C1767 H1781 0.961 . S
C1767 H1782 0.961 . S
C1767 H1783 0.961 . S
C1768 C1769 1.370 . S
C1768 C1770 1.363 . S
C1768 H1784 0.931 . S
C1769 C1768 1.370 . S
C1769 C1773 1.408 . S
C1770 C1768 1.363 . S
C1770 C1771 1.370 . S
C1770 C1774 1.524 . S
C1771 C1763 1.503 . S
C1771 C1770 1.370 . S
C1771 C1772 1.403 . S
C1772 C1771 1.403 . S
C1772 C1773 1.404 . S
C1772 C1775 1.539 . S
C1773 C1769 1.408 . S
C1773 C1772 1.404 . S
C1773 H1785 0.930 . S
C1774 C1770 1.524 . S
C1774 H1786 0.956 . S
C1774 H1787 0.961 . S
C1774 H1788 0.961 . S
C1775 C1772 1.539 . S
C1775 H1789 0.958 . S
C1775 H1790 0.961 . S
C1775 H1791 0.960 . S
H1776 C1760 0.931 . S
H1777 C1765 0.929 . S
H1778 C1766 0.960 . S
H1779 C1766 0.962 . S
H1780 C1766 0.960 . S
H1781 C1767 0.961 . S
H1782 C1767 0.961 . S
H1783 C1767 0.961 . S
H1784 C1768 0.931 . S
H1785 C1773 0.930 . S
H1786 C1774 0.956 . S
H1787 C1774 0.961 . S
H1788 C1774 0.961 . S
H1789 C1775 0.958 . S
H1790 C1775 0.961 . S
H1791 C1775 0.960 . S
C1792 C1793 1.391 . S
C1792 C1794 1.394 . S
C1792 H1808 0.931 . S
C1793 C1792 1.391 . S
C1793 C1797 1.376 . S
C1794 C1792 1.394 . S
C1794 C1795 1.369 . S
C1794 C1798 1.531 . S
C1795 C1794 1.369 . S
C1795 C1796 1.410 . S
C1795 C1803 1.503 . S
C1796 C1795 1.410 . S
C1796 C1797 1.392 . S
C1796 C1799 1.511 . S
C1797 C1793 1.376 . S
C1797 C1796 1.392 . S
C1797 H1809 0.929 . S
C1798 C1794 1.531 . S
C1798 H1810 0.960 . S
C1798 H1811 0.962 . S
C1798 H1812 0.960 . S
C1799 C1796 1.511 . S
C1799 H1813 0.961 . S
C1799 H1814 0.961 . S
C1799 H1815 0.961 . S
C1800 C1801 1.370 . S
C1800 C1802 1.363 . S
C1800 H1816 0.931 . S
C1801 C1800 1.370 . S
C1801 C1805 1.408 . S
C1802 C1800 1.363 . S
C1802 C1803 1.370 . S
C1802 C1806 1.524 . S
C1803 C1795 1.503 . S
C1803 C1802 1.370 . S
C1803 C1804 1.403 . S
C1804 C1803 1.403 . S
C1804 C1805 1.404 . S
C1804 C1807 1.539 . S
C1805 C1801 1.408 . S
C1805 C1804 1.404 . S
C1805 H1817 0.930 . S
C1806 C1802 1.524 . S
C1806 H1818 0.956 . S
C1806 H1819 0.961 . S
C1806 H1820 0.961 . S
C1807 C1804 1.539 . S
C1807 H1821 0.958 . S
C1807 H1822 0.961 . S
C1807 H1823 0.960 . S
H1808 C1792 0.931 . S
H1809 C1797 0.929 . S
H1810 C1798 0.960 . S
H1811 C1798 0.962 . S
H1812 C1798 0.960 . S
H1813 C1799 0.961 . S
H1814 C1799 0.961 . S
H1815 C1799 0.961 . S
H1816 C1800 0.931 . S
H1817 C1805 0.930 . S
H1818 C1806 0.956 . S
H1819 C1806 0.961 . S
H1820 C1806 0.961 . S
H1821 C1807 0.958 . S
H1822 C1807 0.961 . S
H1823 C1807 0.960 . S
C1824 C1825 1.391 . S
C1824 C1826 1.394 . S
C1824 H1840 0.931 . S
C1825 C1824 1.391 . S
C1825 C1829 1.376 . S
C1826 C1824 1.394 . S
C1826 C1827 1.369 . S
C1826 C1830 1.531 . S
C1827 C1826 1.369 . S
C1827 C1828 1.410 . S
C1827 C1835 1.503 . S
C1828 C1827 1.410 . S
C1828 C1829 1.392 . S
C1828 C1831 1.511 . S
C1829 C1825 1.376 . S
C1829 C1828 1.392 . S
C1829 H1841 0.929 . S
C1830 C1826 1.531 . S
C1830 H1842 0.960 . S
C1830 H1843 0.962 . S
C1830 H1844 0.960 . S
C1831 C1828 1.511 . S
C1831 H1845 0.961 . S
C1831 H1846 0.961 . S
C1831 H1847 0.961 . S
C1832 C1833 1.370 . S
C1832 C1834 1.363 . S
C1832 H1848 0.931 . S
C1833 C1832 1.370 . S
C1833 C1837 1.408 . S
C1834 C1832 1.363 . S
C1834 C1835 1.370 . S
C1834 C1838 1.524 . S
C1835 C1827 1.503 . S
C1835 C1834 1.370 . S
C1835 C1836 1.403 . S
C1836 C1835 1.403 . S
C1836 C1837 1.404 . S
C1836 C1839 1.539 . S
C1837 C1833 1.408 . S
C1837 C1836 1.404 . S
C1837 H1849 0.930 . S
C1838 C1834 1.524 . S
C1838 H1850 0.956 . S
C1838 H1851 0.961 . S
C1838 H1852 0.961 . S
C1839 C1836 1.539 . S
C1839 H1853 0.958 . S
C1839 H1854 0.961 . S
C1839 H1855 0.960 . S
H1840 C1824 0.931 . S
H1841 C1829 0.929 . S
H1842 C1830 0.960 . S
H1843 C1830 0.962 . S
H1844 C1830 0.960 . S
H1845 C1831 0.961 . S
H1846 C1831 0.961 . S
H1847 C1831 0.961 . S
H1848 C1832 0.931 . S
H1849 C1837 0.930 . S
H1850 C1838 0.956 . S
H1851 C1838 0.961 . S
H1852 C1838 0.961 . S
H1853 C1839 0.958 . S
H1854 C1839 0.961 . S
H1855 C1839 0.960 . S
C1856 C1857 1.391 . S
C1856 C1858 1.394 . S
C1856 H1872 0.931 . S
C1857 C1856 1.391 . S
C1857 C1861 1.376 . S
C1858 C1856 1.394 . S
C1858 C1859 1.369 . S
C1858 C1862 1.531 . S
C1859 C1858 1.369 . S
C1859 C1860 1.410 . S
C1859 C1867 1.503 . S
C1860 C1859 1.410 . S
C1860 C1861 1.392 . S
C1860 C1863 1.511 . S
C1861 C1857 1.376 . S
C1861 C1860 1.392 . S
C1861 H1873 0.929 . S
C1862 C1858 1.531 . S
C1862 H1874 0.960 . S
C1862 H1875 0.962 . S
C1862 H1876 0.960 . S
C1863 C1860 1.511 . S
C1863 H1877 0.961 . S
C1863 H1878 0.961 . S
C1863 H1879 0.961 . S
C1864 C1865 1.370 . S
C1864 C1866 1.363 . S
C1864 H1880 0.931 . S
C1865 C1864 1.370 . S
C1865 C1869 1.408 . S
C1866 C1864 1.363 . S
C1866 C1867 1.370 . S
C1866 C1870 1.524 . S
C1867 C1859 1.503 . S
C1867 C1866 1.370 . S
C1867 C1868 1.403 . S
C1868 C1867 1.403 . S
C1868 C1869 1.404 . S
C1868 C1871 1.539 . S
C1869 C1865 1.408 . S
C1869 C1868 1.404 . S
C1869 H1881 0.930 . S
C1870 C1866 1.524 . S
C1870 H1882 0.956 . S
C1870 H1883 0.961 . S
C1870 H1884 0.961 . S
C1871 C1868 1.539 . S
C1871 H1885 0.958 . S
C1871 H1886 0.961 . S
C1871 H1887 0.960 . S
H1872 C1856 0.931 . S
H1873 C1861 0.929 . S
H1874 C1862 0.960 . S
H1875 C1862 0.962 . S
H1876 C1862 0.960 . S
H1877 C1863 0.961 . S
H1878 C1863 0.961 . S
H1879 C1863 0.961 . S
H1880 C1864 0.931 . S
H1881 C1869 0.930 . S
H1882 C1870 0.956 . S
H1883 C1870 0.961 . S
H1884 C1870 0.961 . S
H1885 C1871 0.958 . S
H1886 C1871 0.961 . S
H1887 C1871 0.960 . S
C1888 C1889 1.391 . S
C1888 C1890 1.394 . S
C1888 H1904 0.931 . S
C1889 C1888 1.391 . S
C1889 C1893 1.376 . S
C1890 C1888 1.394 . S
C1890 C1891 1.369 . S
C1890 C1894 1.531 . S
C1891 C1890 1.369 . S
C1891 C1892 1.410 . S
C1891 C1899 1.503 . S
C1892 C1891 1.410 . S
C1892 C1893 1.392 . S
C1892 C1895 1.511 . S
C1893 C1889 1.376 . S
C1893 C1892 1.392 . S
C1893 H1905 0.929 . S
C1894 C1890 1.531 . S
C1894 H1906 0.959 . S
C1894 H1907 0.962 . S
C1894 H1908 0.960 . S
C1895 C1892 1.511 . S
C1895 H1909 0.961 . S
C1895 H1910 0.961 . S
C1895 H1911 0.961 . S
C1896 C1897 1.370 . S
C1896 C1898 1.363 . S
C1896 H1912 0.931 . S
C1897 C1896 1.370 . S
C1897 C1901 1.408 . S
C1898 C1896 1.363 . S
C1898 C1899 1.370 . S
C1898 C1902 1.524 . S
C1899 C1891 1.503 . S
C1899 C1898 1.370 . S
C1899 C1900 1.403 . S
C1900 C1899 1.403 . S
C1900 C1901 1.404 . S
C1900 C1903 1.539 . S
C1901 C1897 1.408 . S
C1901 C1900 1.404 . S
C1901 H1913 0.930 1_554 S
C1902 C1898 1.524 . S
C1902 H1914 0.956 . S
C1902 H1915 0.961 . S
C1902 H1916 0.961 . S
C1903 C1900 1.539 . S
C1903 H1917 0.970 . S
C1903 H1918 0.961 . S
C1903 H1919 0.960 . S
H1904 C1888 0.931 . S
H1905 C1893 0.929 . S
H1906 C1894 0.959 . S
H1907 C1894 0.962 . S
H1908 C1894 0.960 . S
H1909 C1895 0.961 . S
H1910 C1895 0.961 . S
H1911 C1895 0.961 . S
H1912 C1896 0.931 . S
H1913 C1901 0.930 1_556 S
H1914 C1902 0.956 . S
H1915 C1902 0.961 . S
H1916 C1902 0.961 . S
H1917 C1903 0.970 . S
H1918 C1903 0.961 . S
H1919 C1903 0.960 . S
C1920 C1921 1.391 . S
C1920 C1922 1.394 . S
C1920 H1936 0.931 . S
C1921 C1920 1.391 . S
C1921 C1925 1.376 . S
C1922 C1920 1.394 . S
C1922 C1923 1.369 . S
C1922 C1926 1.531 . S
C1923 C1922 1.369 . S
C1923 C1924 1.410 . S
C1923 C1931 1.503 . S
C1924 C1923 1.410 . S
C1924 C1925 1.392 . S
C1924 C1927 1.511 . S
C1925 C1921 1.376 . S
C1925 C1924 1.392 . S
C1925 H1937 0.929 . S
C1926 C1922 1.531 . S
C1926 H1938 0.960 . S
C1926 H1939 0.962 . S
C1926 H1940 0.960 . S
C1927 C1924 1.511 . S
C1927 H1941 0.961 . S
C1927 H1942 0.961 . S
C1927 H1943 0.961 . S
C1928 C1929 1.370 . S
C1928 C1930 1.363 . S
C1928 H1944 0.931 . S
C1929 C1928 1.370 . S
C1929 C1933 1.408 . S
C1930 C1928 1.363 . S
C1930 C1931 1.370 . S
C1930 C1934 1.524 . S
C1931 C1923 1.503 . S
C1931 C1930 1.370 . S
C1931 C1932 1.403 . S
C1932 C1931 1.403 . S
C1932 C1933 1.404 . S
C1932 C1935 1.539 . S
C1933 C1929 1.408 . S
C1933 C1932 1.404 . S
C1933 H1945 0.930 . S
C1934 C1930 1.524 . S
C1934 H1946 0.956 . S
C1934 H1947 0.961 . S
C1934 H1948 0.961 . S
C1935 C1932 1.539 . S
C1935 H1949 0.958 . S
C1935 H1950 0.961 . S
C1935 H1951 0.960 . S
H1936 C1920 0.931 . S
H1937 C1925 0.929 . S
H1938 C1926 0.960 . S
H1939 C1926 0.962 . S
H1940 C1926 0.960 . S
H1941 C1927 0.961 . S
H1942 C1927 0.961 . S
H1943 C1927 0.961 . S
H1944 C1928 0.931 . S
H1945 C1933 0.930 . S
H1946 C1934 0.956 . S
H1947 C1934 0.961 . S
H1948 C1934 0.961 . S
H1949 C1935 0.958 . S
H1950 C1935 0.961 . S
H1951 C1935 0.960 . S
C1952 C1953 1.391 . S
C1952 C1954 1.394 . S
C1952 H1968 0.931 . S
C1953 C1952 1.391 . S
C1953 C1957 1.376 . S
C1954 C1952 1.394 . S
C1954 C1955 1.369 . S
C1954 C1958 1.531 . S
C1955 C1954 1.369 . S
C1955 C1956 1.410 . S
C1955 C1963 1.503 . S
C1956 C1955 1.410 . S
C1956 C1957 1.392 . S
C1956 C1959 1.511 . S
C1957 C1953 1.376 . S
C1957 C1956 1.392 . S
C1957 H1969 0.929 . S
C1958 C1954 1.531 . S
C1958 H1970 0.960 . S
C1958 H1971 0.962 . S
C1958 H1972 0.960 . S
C1959 C1956 1.511 . S
C1959 H1973 0.961 . S
C1959 H1974 0.961 . S
C1959 H1975 0.961 . S
C1960 C1961 1.370 . S
C1960 C1962 1.363 . S
C1960 H1976 0.931 . S
C1961 C1960 1.370 . S
C1961 C1965 1.408 . S
C1962 C1960 1.363 . S
C1962 C1963 1.370 . S
C1962 C1966 1.524 . S
C1963 C1955 1.503 . S
C1963 C1962 1.370 . S
C1963 C1964 1.403 . S
C1964 C1963 1.403 . S
C1964 C1965 1.404 . S
C1964 C1967 1.539 . S
C1965 C1961 1.408 . S
C1965 C1964 1.404 . S
C1965 H1977 0.930 . S
C1966 C1962 1.524 . S
C1966 H1978 0.956 . S
C1966 H1979 0.961 . S
C1966 H1980 0.961 . S
C1967 C1964 1.539 . S
C1967 H1981 0.958 . S
C1967 H1982 0.961 . S
C1967 H1983 0.960 . S
H1968 C1952 0.931 . S
H1969 C1957 0.929 . S
H1970 C1958 0.960 . S
H1971 C1958 0.962 . S
H1972 C1958 0.960 . S
H1973 C1959 0.961 . S
H1974 C1959 0.961 . S
H1975 C1959 0.961 . S
H1976 C1960 0.931 . S
H1977 C1965 0.930 . S
H1978 C1966 0.956 . S
H1979 C1966 0.961 . S
H1980 C1966 0.961 . S
H1981 C1967 0.958 . S
H1982 C1967 0.961 . S
H1983 C1967 0.960 . S
C1984 C1985 1.391 . S
C1984 C1986 1.394 . S
C1984 H2000 0.931 . S
C1985 C1984 1.391 . S
C1985 C1989 1.376 . S
C1986 C1984 1.394 . S
C1986 C1987 1.369 . S
C1986 C1990 1.531 . S
C1987 C1986 1.369 . S
C1987 C1988 1.410 . S
C1987 C1995 1.503 . S
C1988 C1987 1.410 . S
C1988 C1989 1.392 . S
C1988 C1991 1.511 . S
C1989 C1985 1.376 . S
C1989 C1988 1.392 . S
C1989 H2001 0.929 . S
C1990 C1986 1.531 . S
C1990 H2002 0.960 . S
C1990 H2003 0.962 . S
C1990 H2004 0.960 . S
C1991 C1988 1.511 . S
C1991 H2005 0.961 . S
C1991 H2006 0.961 . S
C1991 H2007 0.961 . S
C1992 C1993 1.370 . S
C1992 C1994 1.363 . S
C1992 H2008 0.931 . S
C1993 C1992 1.370 . S
C1993 C1997 1.408 . S
C1994 C1992 1.363 . S
C1994 C1995 1.370 . S
C1994 C1998 1.524 . S
C1995 C1987 1.503 . S
C1995 C1994 1.370 . S
C1995 C1996 1.403 . S
C1996 C1995 1.403 . S
C1996 C1997 1.404 . S
C1996 C1999 1.539 . S
C1997 C1993 1.408 . S
C1997 C1996 1.404 . S
C1997 H2009 0.930 . S
C1998 C1994 1.524 . S
C1998 H2010 0.956 . S
C1998 H2011 0.961 . S
C1998 H2012 0.961 . S
C1999 C1996 1.539 . S
C1999 H2013 0.958 . S
C1999 H2014 0.961 . S
C1999 H2015 0.960 . S
H2000 C1984 0.931 . S
H2001 C1989 0.929 . S
H2002 C1990 0.960 . S
H2003 C1990 0.962 . S
H2004 C1990 0.960 . S
H2005 C1991 0.961 . S
H2006 C1991 0.961 . S
H2007 C1991 0.961 . S
H2008 C1992 0.931 . S
H2009 C1997 0.930 . S
H2010 C1998 0.956 . S
H2011 C1998 0.961 . S
H2012 C1998 0.961 . S
H2013 C1999 0.958 . S
H2014 C1999 0.961 . S
H2015 C1999 0.960 . S
C2016 C2017 1.391 . S
C2016 C2018 1.394 . S
C2016 H2032 0.931 . S
C2017 C2016 1.391 . S
C2017 C2021 1.376 . S
C2018 C2016 1.394 . S
C2018 C2019 1.369 . S
C2018 C2022 1.531 . S
C2019 C2018 1.369 . S
C2019 C2020 1.410 . S
C2019 C2027 1.503 . S
C2020 C2019 1.410 . S
C2020 C2021 1.392 . S
C2020 C2023 1.511 . S
C2021 C2017 1.376 . S
C2021 C2020 1.392 . S
C2021 H2033 0.929 . S
C2022 C2018 1.531 . S
C2022 H2034 0.960 . S
C2022 H2035 0.962 . S
C2022 H2036 0.960 . S
C2023 C2020 1.511 . S
C2023 H2037 0.961 . S
C2023 H2038 0.961 . S
C2023 H2039 0.961 . S
C2024 C2025 1.370 . S
C2024 C2026 1.363 . S
C2024 H2040 0.931 . S
C2025 C2024 1.370 . S
C2025 C2029 1.408 . S
C2026 C2024 1.363 . S
C2026 C2027 1.370 . S
C2026 C2030 1.524 . S
C2027 C2019 1.503 . S
C2027 C2026 1.370 . S
C2027 C2028 1.403 . S
C2028 C2027 1.403 . S
C2028 C2029 1.404 . S
C2028 C2031 1.539 . S
C2029 C2025 1.408 . S
C2029 C2028 1.404 . S
C2029 H2041 0.930 . S
C2030 C2026 1.524 . S
C2030 H2042 0.956 . S
C2030 H2043 0.961 . S
C2030 H2044 0.961 . S
C2031 C2028 1.539 . S
C2031 H2045 0.958 . S
C2031 H2046 0.961 . S
C2031 H2047 0.960 . S
H2032 C2016 0.931 . S
H2033 C2021 0.929 . S
H2034 C2022 0.960 . S
H2035 C2022 0.962 . S
H2036 C2022 0.960 . S
H2037 C2023 0.961 . S
H2038 C2023 0.961 . S
H2039 C2023 0.961 . S
H2040 C2024 0.931 . S
H2041 C2029 0.930 . S
H2042 C2030 0.956 . S
H2043 C2030 0.961 . S
H2044 C2030 0.961 . S
H2045 C2031 0.958 . S
H2046 C2031 0.961 . S
H2047 C2031 0.960 . S
C2048 C2049 1.391 . S
C2048 C2050 1.394 . S
C2048 H2064 0.931 . S
C2049 C2048 1.391 . S
C2049 C2053 1.376 . S
C2050 C2048 1.394 . S
C2050 C2051 1.369 . S
C2050 C2054 1.531 . S
C2051 C2050 1.369 . S
C2051 C2052 1.410 . S
C2051 C2059 1.503 . S
C2052 C2051 1.410 . S
C2052 C2053 1.392 . S
C2052 C2055 1.511 . S
C2053 C2049 1.376 . S
C2053 C2052 1.392 . S
C2053 H2065 0.929 . S
C2054 C2050 1.531 . S
C2054 H2066 0.960 . S
C2054 H2067 0.962 . S
C2054 H2068 0.960 . S
C2055 C2052 1.511 . S
C2055 H2069 0.961 . S
C2055 H2070 0.961 . S
C2055 H2071 0.961 . S
C2056 C2057 1.370 . S
C2056 C2058 1.363 . S
C2056 H2072 0.931 . S
C2057 C2056 1.370 . S
C2057 C2061 1.408 . S
C2058 C2056 1.363 . S
C2058 C2059 1.370 . S
C2058 C2062 1.524 . S
C2059 C2051 1.503 . S
C2059 C2058 1.370 . S
C2059 C2060 1.403 . S
C2060 C2059 1.403 . S
C2060 C2061 1.404 . S
C2060 C2063 1.539 . S
C2061 C2057 1.408 . S
C2061 C2060 1.404 . S
C2061 H2073 0.930 . S
C2062 C2058 1.524 . S
C2062 H2074 0.956 . S
C2062 H2075 0.961 . S
C2062 H2076 0.961 . S
C2063 C2060 1.539 . S
C2063 H2077 0.958 . S
C2063 H2078 0.961 . S
C2063 H2079 0.960 . S
H2064 C2048 0.931 . S
H2065 C2053 0.929 . S
H2066 C2054 0.960 . S
H2067 C2054 0.962 . S
H2068 C2054 0.960 . S
H2069 C2055 0.961 . S
H2070 C2055 0.961 . S
H2071 C2055 0.961 . S
H2072 C2056 0.931 . S
H2073 C2061 0.930 . S
H2074 C2062 0.956 . S
H2075 C2062 0.961 . S
H2076 C2062 0.961 . S
H2077 C2063 0.958 . S
H2078 C2063 0.961 . S
H2079 C2063 0.960 . S
C2080 C2081 1.391 . S
C2080 C2082 1.394 . S
C2080 H2096 0.931 . S
C2081 C2080 1.391 . S
C2081 C2085 1.376 . S
C2082 C2080 1.394 . S
C2082 C2083 1.369 . S
C2082 C2086 1.531 . S
C2083 C2082 1.369 . S
C2083 C2084 1.410 . S
C2083 C2091 1.503 . S
C2084 C2083 1.410 . S
C2084 C2085 1.392 . S
C2084 C2087 1.511 . S
C2085 C2081 1.376 . S
C2085 C2084 1.392 . S
C2085 H2097 0.929 . S
C2086 C2082 1.531 . S
C2086 H2098 0.960 . S
C2086 H2099 0.962 . S
C2086 H2100 0.960 . S
C2087 C2084 1.511 . S
C2087 H2101 0.961 . S
C2087 H2102 0.961 . S
C2087 H2103 0.961 . S
C2088 C2089 1.370 . S
C2088 C2090 1.363 . S
C2088 H2104 0.931 . S
C2089 C2088 1.370 . S
C2089 C2093 1.408 . S
C2090 C2088 1.363 . S
C2090 C2091 1.370 . S
C2090 C2094 1.524 . S
C2091 C2083 1.503 . S
C2091 C2090 1.370 . S
C2091 C2092 1.403 . S
C2092 C2091 1.403 . S
C2092 C2093 1.404 . S
C2092 C2095 1.539 . S
C2093 C2089 1.408 . S
C2093 C2092 1.404 . S
C2093 H2105 0.930 . S
C2094 C2090 1.524 . S
C2094 H2106 0.956 . S
C2094 H2107 0.961 . S
C2094 H2108 0.961 . S
C2095 C2092 1.539 . S
C2095 H2109 0.958 . S
C2095 H2110 0.961 . S
C2095 H2111 0.960 . S
H2096 C2080 0.931 . S
H2097 C2085 0.929 . S
H2098 C2086 0.960 . S
H2099 C2086 0.962 . S
H2100 C2086 0.960 . S
H2101 C2087 0.961 . S
H2102 C2087 0.961 . S
H2103 C2087 0.961 . S
H2104 C2088 0.931 . S
H2105 C2093 0.930 . S
H2106 C2094 0.956 . S
H2107 C2094 0.961 . S
H2108 C2094 0.961 . S
H2109 C2095 0.958 . S
H2110 C2095 0.961 . S
H2111 C2095 0.960 . S
C2112 C2113 1.391 . S
C2112 C2114 1.394 . S
C2112 H2128 0.931 . S
C2113 C2112 1.391 . S
C2113 C2117 1.376 . S
C2114 C2112 1.394 . S
C2114 C2115 1.369 . S
C2114 C2118 1.531 . S
C2115 C2114 1.369 . S
C2115 C2116 1.410 . S
C2115 C2123 1.503 . S
C2116 C2115 1.410 . S
C2116 C2117 1.392 . S
C2116 C2119 1.511 . S
C2117 C2113 1.376 . S
C2117 C2116 1.392 . S
C2117 H2129 0.929 . S
C2118 C2114 1.531 . S
C2118 H2130 0.960 . S
C2118 H2131 0.962 . S
C2118 H2132 0.960 . S
C2119 C2116 1.511 . S
C2119 H2133 0.961 . S
C2119 H2134 0.961 . S
C2119 H2135 0.961 . S
C2120 C2121 1.370 . S
C2120 C2122 1.363 . S
C2120 H2136 0.931 . S
C2121 C2120 1.370 . S
C2121 C2125 1.408 . S
C2122 C2120 1.363 . S
C2122 C2123 1.370 . S
C2122 C2126 1.524 . S
C2123 C2115 1.503 . S
C2123 C2122 1.370 . S
C2123 C2124 1.403 . S
C2124 C2123 1.403 . S
C2124 C2125 1.404 . S
C2124 C2127 1.539 . S
C2125 C2121 1.408 . S
C2125 C2124 1.404 . S
C2125 H2137 0.930 . S
C2126 C2122 1.524 . S
C2126 H2138 0.956 . S
C2126 H2139 0.961 . S
C2126 H2140 0.961 . S
C2127 C2124 1.539 . S
C2127 H2141 0.958 . S
C2127 H2142 0.961 . S
C2127 H2143 0.960 . S
H2128 C2112 0.931 . S
H2129 C2117 0.929 . S
H2130 C2118 0.960 . S
H2131 C2118 0.962 . S
H2132 C2118 0.960 . S
H2133 C2119 0.961 . S
H2134 C2119 0.961 . S
H2135 C2119 0.961 . S
H2136 C2120 0.931 . S
H2137 C2125 0.930 . S
H2138 C2126 0.956 . S
H2139 C2126 0.961 . S
H2140 C2126 0.961 . S
H2141 C2127 0.958 . S
H2142 C2127 0.961 . S
H2143 C2127 0.960 . S
C2144 C2145 1.391 . S
C2144 C2146 1.394 . S
C2144 H2160 0.931 1_655 S
C2145 C2144 1.391 . S
C2145 C2149 1.376 . S
C2146 C2144 1.394 . S
C2146 C2147 1.369 . S
C2146 C2150 1.531 . S
C2147 C2146 1.369 . S
C2147 C2148 1.410 . S
C2147 C2155 1.503 . S
C2148 C2147 1.410 . S
C2148 C2149 1.392 . S
C2148 C2151 1.511 . S
C2149 C2145 1.376 . S
C2149 C2148 1.392 . S
C2149 H2161 0.929 . S
C2150 C2146 1.531 . S
C2150 H2162 0.960 . S
C2150 H2163 0.962 . S
C2150 H2164 0.960 1_655 S
C2151 C2148 1.511 . S
C2151 H2165 0.961 . S
C2151 H2166 0.961 . S
C2151 H2167 0.961 . S
C2152 C2153 1.370 . S
C2152 C2154 1.363 . S
C2152 H2168 0.931 . S
C2153 C2152 1.370 . S
C2153 C2157 1.408 . S
C2154 C2152 1.363 . S
C2154 C2155 1.370 . S
C2154 C2158 1.524 . S
C2155 C2147 1.503 . S
C2155 C2154 1.370 . S
C2155 C2156 1.403 . S
C2156 C2155 1.403 . S
C2156 C2157 1.404 . S
C2156 C2159 1.539 . S
C2157 C2153 1.408 . S
C2157 C2156 1.404 . S
C2157 H2169 0.930 . S
C2158 C2154 1.524 . S
C2158 H2170 0.956 . S
C2158 H2171 0.961 . S
C2158 H2172 0.961 . S
C2159 C2156 1.539 . S
C2159 H2173 0.958 . S
C2159 H2174 0.961 . S
C2159 H2175 0.960 . S
H2160 C2144 0.931 1_455 S
H2161 C2149 0.929 . S
H2162 C2150 0.960 . S
H2163 C2150 0.962 . S
H2164 C2150 0.960 1_455 S
H2165 C2151 0.961 . S
H2166 C2151 0.961 . S
H2167 C2151 0.961 . S
H2168 C2152 0.931 . S
H2169 C2157 0.930 . S
H2170 C2158 0.956 . S
H2171 C2158 0.961 . S
H2172 C2158 0.961 . S
H2173 C2159 0.958 . S
H2174 C2159 0.961 . S
H2175 C2159 0.960 . S
C2176 C2177 1.391 . S
C2176 C2178 1.394 . S
C2176 H2192 0.931 . S
C2177 C2176 1.391 . S
C2177 C2181 1.376 . S
C2178 C2176 1.394 . S
C2178 C2179 1.369 . S
C2178 C2182 1.531 . S
C2179 C2178 1.369 . S
C2179 C2180 1.410 . S
C2179 C2187 1.503 . S
C2180 C2179 1.410 . S
C2180 C2181 1.392 . S
C2180 C2183 1.511 . S
C2181 C2177 1.376 . S
C2181 C2180 1.392 . S
C2181 H2193 0.929 . S
C2182 C2178 1.531 . S
C2182 H2194 0.960 . S
C2182 H2195 0.962 . S
C2182 H2196 0.960 . S
C2183 C2180 1.511 . S
C2183 H2197 0.961 . S
C2183 H2198 0.961 . S
C2183 H2199 0.961 . S
C2184 C2185 1.370 . S
C2184 C2186 1.363 . S
C2184 H2200 0.931 . S
C2185 C2184 1.370 . S
C2185 C2189 1.408 . S
C2186 C2184 1.363 . S
C2186 C2187 1.370 . S
C2186 C2190 1.524 . S
C2187 C2179 1.503 . S
C2187 C2186 1.370 . S
C2187 C2188 1.403 . S
C2188 C2187 1.403 . S
C2188 C2189 1.404 . S
C2188 C2191 1.539 . S
C2189 C2185 1.408 . S
C2189 C2188 1.404 . S
C2189 H2201 0.930 . S
C2190 C2186 1.524 . S
C2190 H2202 0.956 . S
C2190 H2203 0.961 . S
C2190 H2204 0.961 . S
C2191 C2188 1.539 . S
C2191 H2205 0.958 . S
C2191 H2206 0.961 . S
C2191 H2207 0.960 . S
H2192 C2176 0.931 . S
H2193 C2181 0.929 . S
H2194 C2182 0.960 . S
H2195 C2182 0.962 . S
H2196 C2182 0.960 . S
H2197 C2183 0.961 . S
H2198 C2183 0.961 . S
H2199 C2183 0.961 . S
H2200 C2184 0.931 . S
H2201 C2189 0.930 . S
H2202 C2190 0.956 . S
H2203 C2190 0.961 . S
H2204 C2190 0.961 . S
H2205 C2191 0.958 . S
H2206 C2191 0.961 . S
H2207 C2191 0.960 . S
C2208 C2209 1.391 . S
C2208 C2210 1.394 . S
C2208 H2224 0.931 . S
C2209 C2208 1.391 . S
C2209 C2213 1.376 . S
C2210 C2208 1.394 . S
C2210 C2211 1.369 . S
C2210 C2214 1.531 . S
C2211 C2210 1.369 . S
C2211 C2212 1.410 . S
C2211 C2219 1.503 . S
C2212 C2211 1.410 . S
C2212 C2213 1.392 . S
C2212 C2215 1.511 . S
C2213 C2209 1.376 . S
C2213 C2212 1.392 . S
C2213 H2225 0.929 . S
C2214 C2210 1.531 . S
C2214 H2226 0.960 . S
C2214 H2227 0.962 . S
C2214 H2228 0.960 . S
C2215 C2212 1.511 . S
C2215 H2229 0.961 . S
C2215 H2230 0.961 . S
C2215 H2231 0.961 . S
C2216 C2217 1.370 . S
C2216 C2218 1.363 . S
C2216 H2232 0.931 . S
C2217 C2216 1.370 . S
C2217 C2221 1.408 . S
C2218 C2216 1.363 . S
C2218 C2219 1.370 . S
C2218 C2222 1.524 . S
C2219 C2211 1.503 . S
C2219 C2218 1.370 . S
C2219 C2220 1.403 . S
C2220 C2219 1.403 . S
C2220 C2221 1.404 . S
C2220 C2223 1.539 . S
C2221 C2217 1.408 . S
C2221 C2220 1.404 . S
C2221 H2233 0.930 . S
C2222 C2218 1.524 . S
C2222 H2234 0.956 . S
C2222 H2235 0.961 . S
C2222 H2236 0.961 . S
C2223 C2220 1.539 . S
C2223 H2237 0.958 . S
C2223 H2238 0.961 . S
C2223 H2239 0.960 . S
H2224 C2208 0.931 . S
H2225 C2213 0.929 . S
H2226 C2214 0.960 . S
H2227 C2214 0.962 . S
H2228 C2214 0.960 . S
H2229 C2215 0.961 . S
H2230 C2215 0.961 . S
H2231 C2215 0.961 . S
H2232 C2216 0.931 . S
H2233 C2221 0.930 . S
H2234 C2222 0.956 . S
H2235 C2222 0.961 . S
H2236 C2222 0.961 . S
H2237 C2223 0.958 . S
H2238 C2223 0.961 . S
H2239 C2223 0.960 . S
C2240 C2241 1.391 . S
C2240 C2242 1.394 . S
C2240 H2256 0.931 . S
C2241 C2240 1.391 . S
C2241 C2245 1.376 . S
C2242 C2240 1.394 . S
C2242 C2243 1.369 . S
C2242 C2246 1.531 . S
C2243 C2242 1.369 . S
C2243 C2244 1.410 . S
C2243 C2251 1.503 . S
C2244 C2243 1.410 . S
C2244 C2245 1.392 . S
C2244 C2247 1.511 . S
C2245 C2241 1.376 . S
C2245 C2244 1.392 . S
C2245 H2257 0.929 . S
C2246 C2242 1.531 . S
C2246 H2258 0.960 . S
C2246 H2259 0.962 . S
C2246 H2260 0.960 . S
C2247 C2244 1.511 . S
C2247 H2261 0.961 . S
C2247 H2262 0.961 . S
C2247 H2263 0.961 . S
C2248 C2249 1.370 . S
C2248 C2250 1.363 . S
C2248 H2264 0.931 . S
C2249 C2248 1.370 . S
C2249 C2253 1.408 . S
C2250 C2248 1.363 . S
C2250 C2251 1.370 . S
C2250 C2254 1.524 . S
C2251 C2243 1.503 . S
C2251 C2250 1.370 . S
C2251 C2252 1.403 . S
C2252 C2251 1.403 . S
C2252 C2253 1.404 . S
C2252 C2255 1.539 . S
C2253 C2249 1.408 . S
C2253 C2252 1.404 . S
C2253 H2265 0.930 . S
C2254 C2250 1.524 . S
C2254 H2266 0.956 . S
C2254 H2267 0.961 . S
C2254 H2268 0.961 . S
C2255 C2252 1.539 . S
C2255 H2269 0.958 . S
C2255 H2270 0.961 . S
C2255 H2271 0.960 . S
H2256 C2240 0.931 . S
H2257 C2245 0.929 . S
H2258 C2246 0.960 . S
H2259 C2246 0.962 . S
H2260 C2246 0.960 . S
H2261 C2247 0.961 . S
H2262 C2247 0.961 . S
H2263 C2247 0.961 . S
H2264 C2248 0.931 . S
H2265 C2253 0.930 . S
H2266 C2254 0.956 . S
H2267 C2254 0.961 . S
H2268 C2254 0.961 . S
H2269 C2255 0.958 . S
H2270 C2255 0.961 . S
H2271 C2255 0.960 . S
C2272 C2273 1.391 . S
C2272 C2274 1.394 . S
C2272 H2288 0.931 . S
C2273 C2272 1.391 . S
C2273 C2277 1.376 . S
C2274 C2272 1.394 . S
C2274 C2275 1.369 . S
C2274 C2278 1.531 1_565 S
C2275 C2274 1.369 . S
C2275 C2276 1.410 . S
C2275 C2283 1.503 . S
C2276 C2275 1.410 . S
C2276 C2277 1.392 . S
C2276 C2279 1.511 . S
C2277 C2273 1.376 . S
C2277 C2276 1.392 . S
C2277 H2289 0.929 . S
C2278 C2274 1.531 1_545 S
C2278 H2290 0.960 . S
C2278 H2291 0.962 1_545 S
C2278 H2292 0.960 . S
C2279 C2276 1.511 . S
C2279 H2293 0.961 . S
C2279 H2294 0.961 . S
C2279 H2295 0.961 . S
C2280 C2281 1.370 . S
C2280 C2282 1.363 . S
C2280 H2296 0.931 . S
C2281 C2280 1.370 . S
C2281 C2285 1.408 1_565 S
C2282 C2280 1.363 . S
C2282 C2283 1.370 . S
C2282 C2286 1.524 . S
C2283 C2275 1.503 . S
C2283 C2282 1.370 . S
C2283 C2284 1.403 1_565 S
C2284 C2283 1.403 1_545 S
C2284 C2285 1.404 . S
C2284 C2287 1.539 . S
C2285 C2281 1.408 1_545 S
C2285 C2284 1.404 . S
C2285 H2297 0.930 . S
C2286 C2282 1.524 . S
C2286 H2298 0.956 . S
C2286 H2299 0.961 . S
C2286 H2300 0.961 . S
C2287 C2284 1.539 . S
C2287 H2301 0.958 . S
C2287 H2302 0.961 . S
C2287 H2303 0.960 . S
H2288 C2272 0.931 . S
H2289 C2277 0.929 . S
H2290 C2278 0.960 . S
H2291 C2278 0.962 1_565 S
H2292 C2278 0.960 . S
H2293 C2279 0.961 . S
H2294 C2279 0.961 . S
H2295 C2279 0.961 . S
H2296 C2280 0.931 . S
H2297 C2285 0.930 . S
H2298 C2286 0.956 . S
H2299 C2286 0.961 . S
H2300 C2286 0.961 . S
H2301 C2287 0.958 . S
H2302 C2287 0.961 . S
H2303 C2287 0.960 . S
C2304 C2305 1.391 . S
C2304 C2306 1.394 . S
C2304 H2320 0.931 . S
C2305 C2304 1.391 . S
C2305 C2309 1.376 . S
C2306 C2304 1.394 . S
C2306 C2307 1.369 . S
C2306 C2310 1.531 . S
C2307 C2306 1.369 . S
C2307 C2308 1.410 . S
C2307 C2315 1.503 . S
C2308 C2307 1.410 . S
C2308 C2309 1.392 . S
C2308 C2311 1.511 . S
C2309 C2305 1.376 . S
C2309 C2308 1.392 . S
C2309 H2321 0.929 . S
C2310 C2306 1.531 . S
C2310 H2322 0.960 . S
C2310 H2323 0.962 . S
C2310 H2324 0.960 1_556 S
C2311 C2308 1.511 . S
C2311 H2325 0.961 . S
C2311 H2326 0.961 . S
C2311 H2327 0.961 . S
C2312 C2313 1.370 . S
C2312 C2314 1.363 . S
C2312 H2328 0.931 . S
C2313 C2312 1.370 . S
C2313 C2317 1.408 . S
C2314 C2312 1.363 . S
C2314 C2315 1.370 . S
C2314 C2318 1.524 . S
C2315 C2307 1.503 . S
C2315 C2314 1.370 . S
C2315 C2316 1.403 . S
C2316 C2315 1.403 . S
C2316 C2317 1.404 . S
C2316 C2319 1.539 . S
C2317 C2313 1.408 . S
C2317 C2316 1.404 . S
C2317 H2329 0.930 . S
C2318 C2314 1.524 . S
C2318 H2330 0.956 . S
C2318 H2331 0.961 . S
C2318 H2332 0.961 . S
C2319 C2316 1.539 . S
C2319 H2333 0.958 1_556 S
C2319 H2334 0.961 . S
C2319 H2335 0.960 . S
H2320 C2304 0.931 . S
H2321 C2309 0.929 . S
H2322 C2310 0.960 . S
H2323 C2310 0.962 . S
H2324 C2310 0.960 1_554 S
H2325 C2311 0.961 . S
H2326 C2311 0.961 . S
H2327 C2311 0.961 . S
H2328 C2312 0.931 . S
H2329 C2317 0.930 . S
H2330 C2318 0.956 . S
H2331 C2318 0.961 . S
H2332 C2318 0.961 . S
H2333 C2319 0.958 1_554 S
H2334 C2319 0.961 . S
H2335 C2319 0.960 . S
C2336 C2337 1.391 . S
C2336 C2338 1.394 . S
C2336 H2352 0.931 . S
C2337 C2336 1.391 . S
C2337 C2341 1.376 . S
C2338 C2336 1.394 . S
C2338 C2339 1.369 . S
C2338 C2342 1.531 . S
C2339 C2338 1.369 . S
C2339 C2340 1.410 . S
C2339 C2347 1.503 . S
C2340 C2339 1.410 . S
C2340 C2341 1.392 . S
C2340 C2343 1.511 . S
C2341 C2337 1.376 . S
C2341 C2340 1.392 . S
C2341 H2353 0.929 . S
C2342 C2338 1.531 . S
C2342 H2354 0.960 . S
C2342 H2355 0.962 . S
C2342 H2356 0.960 . S
C2343 C2340 1.511 . S
C2343 H2357 0.961 . S
C2343 H2358 0.961 . S
C2343 H2359 0.961 . S
C2344 C2345 1.370 . S
C2344 C2346 1.363 . S
C2344 H2360 0.931 . S
C2345 C2344 1.370 . S
C2345 C2349 1.408 . S
C2346 C2344 1.363 . S
C2346 C2347 1.370 . S
C2346 C2350 1.524 . S
C2347 C2339 1.503 . S
C2347 C2346 1.370 . S
C2347 C2348 1.403 . S
C2348 C2347 1.403 . S
C2348 C2349 1.404 . S
C2348 C2351 1.539 . S
C2349 C2345 1.408 . S
C2349 C2348 1.404 . S
C2349 H2361 0.930 . S
C2350 C2346 1.524 . S
C2350 H2362 0.956 . S
C2350 H2363 0.961 . S
C2350 H2364 0.961 . S
C2351 C2348 1.539 . S
C2351 H2365 0.958 . S
C2351 H2366 0.961 . S
C2351 H2367 0.960 . S
H2352 C2336 0.931 . S
H2353 C2341 0.929 . S
H2354 C2342 0.960 . S
H2355 C2342 0.962 . S
H2356 C2342 0.960 . S
H2357 C2343 0.961 . S
H2358 C2343 0.961 . S
H2359 C2343 0.961 . S
H2360 C2344 0.931 . S
H2361 C2349 0.930 . S
H2362 C2350 0.956 . S
H2363 C2350 0.961 . S
H2364 C2350 0.961 . S
H2365 C2351 0.958 . S
H2366 C2351 0.961 . S
H2367 C2351 0.960 . S
C2368 C2369 1.391 . S
C2368 C2370 1.394 . S
C2368 H2384 0.931 . S
C2369 C2368 1.391 . S
C2369 C2373 1.376 . S
C2370 C2368 1.394 . S
C2370 C2371 1.369 . S
C2370 C2374 1.531 . S
C2371 C2370 1.369 . S
C2371 C2372 1.410 . S
C2371 C2379 1.503 . S
C2372 C2371 1.410 . S
C2372 C2373 1.392 . S
C2372 C2375 1.511 . S
C2373 C2369 1.376 . S
C2373 C2372 1.392 . S
C2373 H2385 0.929 . S
C2374 C2370 1.531 . S
C2374 H2386 0.960 . S
C2374 H2387 0.962 . S
C2374 H2388 0.960 . S
C2375 C2372 1.511 . S
C2375 H2389 0.961 . S
C2375 H2390 0.961 . S
C2375 H2391 0.961 . S
C2376 C2377 1.370 . S
C2376 C2378 1.363 . S
C2376 H2392 0.931 . S
C2377 C2376 1.370 . S
C2377 C2381 1.408 . S
C2378 C2376 1.363 . S
C2378 C2379 1.370 . S
C2378 C2382 1.524 . S
C2379 C2371 1.503 . S
C2379 C2378 1.370 . S
C2379 C2380 1.403 . S
C2380 C2379 1.403 . S
C2380 C2381 1.404 . S
C2380 C2383 1.539 1_554 S
C2381 C2377 1.408 . S
C2381 C2380 1.404 . S
C2381 H2393 0.930 . S
C2382 C2378 1.524 . S
C2382 H2394 0.956 . S
C2382 H2395 0.961 . S
C2382 H2396 0.961 . S
C2383 C2380 1.539 1_556 S
C2383 H2397 0.958 . S
C2383 H2398 0.961 . S
C2383 H2399 0.964 . S
H2384 C2368 0.931 . S
H2385 C2373 0.929 . S
H2386 C2374 0.960 . S
H2387 C2374 0.962 . S
H2388 C2374 0.960 . S
H2389 C2375 0.961 . S
H2390 C2375 0.961 . S
H2391 C2375 0.961 . S
H2392 C2376 0.931 . S
H2393 C2381 0.930 . S
H2394 C2382 0.956 . S
H2395 C2382 0.961 . S
H2396 C2382 0.961 . S
H2397 C2383 0.958 . S
H2398 C2383 0.961 . S
H2399 C2383 0.964 . S
C2400 C2401 1.391 . S
C2400 C2402 1.394 . S
C2400 H2416 0.931 . S
C2401 C2400 1.391 . S
C2401 C2405 1.376 . S
C2402 C2400 1.394 . S
C2402 C2403 1.369 . S
C2402 C2406 1.531 . S
C2403 C2402 1.369 . S
C2403 C2404 1.410 . S
C2403 C2411 1.503 . S
C2404 C2403 1.410 . S
C2404 C2405 1.392 . S
C2404 C2407 1.511 . S
C2405 C2401 1.376 . S
C2405 C2404 1.392 . S
C2405 H2417 0.929 . S
C2406 C2402 1.531 . S
C2406 H2418 0.960 . S
C2406 H2419 0.962 . S
C2406 H2420 0.960 . S
C2407 C2404 1.511 . S
C2407 H2421 0.961 . S
C2407 H2422 0.961 . S
C2407 H2423 0.961 . S
C2408 C2409 1.370 . S
C2408 C2410 1.363 . S
C2408 H2424 0.931 . S
C2409 C2408 1.370 . S
C2409 C2413 1.408 . S
C2410 C2408 1.363 . S
C2410 C2411 1.370 . S
C2410 C2414 1.524 . S
C2411 C2403 1.503 . S
C2411 C2410 1.370 . S
C2411 C2412 1.403 . S
C2412 C2411 1.403 . S
C2412 C2413 1.404 . S
C2412 C2415 1.539 . S
C2413 C2409 1.408 . S
C2413 C2412 1.404 . S
C2413 H2425 0.930 . S
C2414 C2410 1.524 . S
C2414 H2426 0.957 . S
C2414 H2427 0.961 1_545 S
C2414 H2428 0.961 1_545 S
C2415 C2412 1.539 . S
C2415 H2429 0.958 . S
C2415 H2430 0.961 . S
C2415 H2431 0.960 . S
H2416 C2400 0.931 . S
H2417 C2405 0.929 . S
H2418 C2406 0.960 . S
H2419 C2406 0.962 . S
H2420 C2406 0.960 . S
H2421 C2407 0.961 . S
H2422 C2407 0.961 . S
H2423 C2407 0.961 . S
H2424 C2408 0.931 . S
H2425 C2413 0.930 . S
H2426 C2414 0.957 . S
H2427 C2414 0.961 1_565 S
H2428 C2414 0.961 1_565 S
H2429 C2415 0.958 . S
H2430 C2415 0.961 . S
H2431 C2415 0.960 . S
C2432 C2433 1.391 . S
C2432 C2434 1.394 . S
C2432 H2448 0.931 . S
C2433 C2432 1.391 . S
C2433 C2437 1.376 . S
C2434 C2432 1.394 . S
C2434 C2435 1.369 . S
C2434 C2438 1.531 . S
C2435 C2434 1.369 . S
C2435 C2436 1.410 . S
C2435 C2443 1.503 . S
C2436 C2435 1.410 . S
C2436 C2437 1.392 . S
C2436 C2439 1.511 . S
C2437 C2433 1.376 . S
C2437 C2436 1.392 . S
C2437 H2449 0.929 . S
C2438 C2434 1.531 . S
C2438 H2450 0.960 . S
C2438 H2451 0.962 . S
C2438 H2452 0.960 . S
C2439 C2436 1.511 . S
C2439 H2453 0.961 . S
C2439 H2454 0.961 . S
C2439 H2455 0.961 . S
C2440 C2441 1.370 . S
C2440 C2442 1.363 . S
C2440 H2456 0.931 . S
C2441 C2440 1.370 . S
C2441 C2445 1.408 . S
C2442 C2440 1.363 . S
C2442 C2443 1.370 . S
C2442 C2446 1.524 . S
C2443 C2435 1.503 . S
C2443 C2442 1.370 . S
C2443 C2444 1.403 . S
C2444 C2443 1.403 . S
C2444 C2445 1.404 . S
C2444 C2447 1.539 . S
C2445 C2441 1.408 . S
C2445 C2444 1.404 . S
C2445 H2457 0.930 . S
C2446 C2442 1.524 . S
C2446 H2458 0.956 . S
C2446 H2459 0.961 . S
C2446 H2460 0.961 . S
C2447 C2444 1.539 . S
C2447 H2461 0.958 . S
C2447 H2462 0.961 . S
C2447 H2463 0.960 . S
H2448 C2432 0.931 . S
H2449 C2437 0.929 . S
H2450 C2438 0.960 . S
H2451 C2438 0.962 . S
H2452 C2438 0.960 . S
H2453 C2439 0.961 . S
H2454 C2439 0.961 . S
H2455 C2439 0.961 . S
H2456 C2440 0.931 . S
H2457 C2445 0.930 . S
H2458 C2446 0.956 . S
H2459 C2446 0.961 . S
H2460 C2446 0.961 . S
H2461 C2447 0.958 . S
H2462 C2447 0.961 . S
H2463 C2447 0.960 . S
C2464 C2465 1.391 . S
C2464 C2466 1.394 . S
C2464 H2480 0.931 . S
C2465 C2464 1.391 . S
C2465 C2469 1.376 . S
C2466 C2464 1.394 . S
C2466 C2467 1.369 . S
C2466 C2470 1.531 . S
C2467 C2466 1.369 . S
C2467 C2468 1.410 . S
C2467 C2475 1.503 . S
C2468 C2467 1.410 . S
C2468 C2469 1.392 . S
C2468 C2471 1.511 . S
C2469 C2465 1.376 . S
C2469 C2468 1.392 . S
C2469 H2481 0.929 . S
C2470 C2466 1.531 . S
C2470 H2482 0.960 . S
C2470 H2483 0.962 . S
C2470 H2484 0.960 . S
C2471 C2468 1.511 . S
C2471 H2485 0.961 . S
C2471 H2486 0.961 . S
C2471 H2487 0.961 . S
C2472 C2473 1.370 . S
C2472 C2474 1.363 . S
C2472 H2488 0.931 . S
C2473 C2472 1.370 . S
C2473 C2477 1.408 . S
C2474 C2472 1.363 . S
C2474 C2475 1.370 . S
C2474 C2478 1.524 . S
C2475 C2467 1.503 . S
C2475 C2474 1.370 . S
C2475 C2476 1.403 . S
C2476 C2475 1.403 . S
C2476 C2477 1.404 . S
C2476 C2479 1.539 . S
C2477 C2473 1.408 . S
C2477 C2476 1.404 . S
C2477 H2489 0.930 . S
C2478 C2474 1.524 . S
C2478 H2490 0.956 . S
C2478 H2491 0.961 . S
C2478 H2492 0.961 . S
C2479 C2476 1.539 . S
C2479 H2493 0.958 . S
C2479 H2494 0.961 . S
C2479 H2495 0.960 . S
H2480 C2464 0.931 . S
H2481 C2469 0.929 . S
H2482 C2470 0.960 . S
H2483 C2470 0.962 . S
H2484 C2470 0.960 . S
H2485 C2471 0.961 . S
H2486 C2471 0.961 . S
H2487 C2471 0.961 . S
H2488 C2472 0.931 . S
H2489 C2477 0.930 . S
H2490 C2478 0.956 . S
H2491 C2478 0.961 . S
H2492 C2478 0.961 . S
H2493 C2479 0.958 . S
H2494 C2479 0.961 . S
H2495 C2479 0.960 . S
C2496 C2497 1.391 . S
C2496 C2498 1.394 . S
C2496 H2512 0.931 . S
C2497 C2496 1.391 . S
C2497 C2501 1.376 . S
C2498 C2496 1.394 . S
C2498 C2499 1.369 . S
C2498 C2502 1.531 . S
C2499 C2498 1.369 . S
C2499 C2500 1.410 . S
C2499 C2507 1.503 1_455 S
C2500 C2499 1.410 . S
C2500 C2501 1.392 . S
C2500 C2503 1.511 1_455 S
C2501 C2497 1.376 . S
C2501 C2500 1.392 . S
C2501 H2513 0.929 . S
C2502 C2498 1.531 . S
C2502 H2514 0.960 . S
C2502 H2515 0.962 . S
C2502 H2516 0.960 . S
C2503 C2500 1.511 1_655 S
C2503 H2517 0.961 1_655 S
C2503 H2518 0.961 . S
C2503 H2519 0.961 . S
C2504 C2505 1.370 . S
C2504 C2506 1.363 . S
C2504 H2520 0.931 . S
C2505 C2504 1.370 . S
C2505 C2509 1.408 . S
C2506 C2504 1.363 . S
C2506 C2507 1.370 . S
C2506 C2510 1.524 . S
C2507 C2499 1.503 1_655 S
C2507 C2506 1.370 . S
C2507 C2508 1.403 . S
C2508 C2507 1.403 . S
C2508 C2509 1.404 . S
C2508 C2511 1.539 . S
C2509 C2505 1.408 . S
C2509 C2508 1.404 . S
C2509 H2521 0.930 . S
C2510 C2506 1.524 . S
C2510 H2522 0.956 1_655 S
C2510 H2523 0.961 1_655 S
C2510 H2524 0.961 . S
C2511 C2508 1.539 . S
C2511 H2525 0.958 . S
C2511 H2526 0.961 . S
C2511 H2527 0.960 . S
H2512 C2496 0.931 . S
H2513 C2501 0.929 . S
H2514 C2502 0.960 . S
H2515 C2502 0.962 . S
H2516 C2502 0.960 . S
H2517 C2503 0.961 1_455 S
H2518 C2503 0.961 . S
H2519 C2503 0.961 . S
H2520 C2504 0.931 . S
H2521 C2509 0.930 . S
H2522 C2510 0.956 1_455 S
H2523 C2510 0.961 1_455 S
H2524 C2510 0.961 . S
H2525 C2511 0.958 . S
H2526 C2511 0.961 . S
H2527 C2511 0.960 . S
C2528 C2529 1.391 . S
C2528 C2530 1.394 . S
C2528 H2544 0.931 . S
C2529 C2528 1.391 . S
C2529 C2533 1.376 . S
C2530 C2528 1.394 . S
C2530 C2531 1.369 . S
C2530 C2534 1.531 . S
C2531 C2530 1.369 . S
C2531 C2532 1.410 . S
C2531 C2539 1.503 . S
C2532 C2531 1.410 . S
C2532 C2533 1.392 . S
C2532 C2535 1.511 . S
C2533 C2529 1.376 . S
C2533 C2532 1.392 . S
C2533 H2545 0.929 . S
C2534 C2530 1.531 . S
C2534 H2546 0.960 . S
C2534 H2547 0.962 . S
C2534 H2548 0.960 . S
C2535 C2532 1.511 . S
C2535 H2549 0.961 . S
C2535 H2550 0.961 . S
C2535 H2551 0.961 . S
C2536 C2537 1.370 1_556 S
C2536 C2538 1.363 1_556 S
C2536 H2552 0.931 . S
C2537 C2536 1.370 1_554 S
C2537 C2541 1.408 . S
C2538 C2536 1.363 1_554 S
C2538 C2539 1.370 . S
C2538 C2542 1.524 1_554 S
C2539 C2531 1.503 . S
C2539 C2538 1.370 . S
C2539 C2540 1.403 . S
C2540 C2539 1.403 . S
C2540 C2541 1.404 . S
C2540 C2543 1.539 . S
C2541 C2537 1.408 . S
C2541 C2540 1.404 . S
C2541 H2553 0.930 . S
C2542 C2538 1.524 1_556 S
C2542 H2554 0.956 . S
C2542 H2555 0.961 . S
C2542 H2556 0.961 . S
C2543 C2540 1.539 . S
C2543 H2557 0.958 . S
C2543 H2558 0.961 . S
C2543 H2559 0.960 . S
H2544 C2528 0.931 . S
H2545 C2533 0.929 . S
H2546 C2534 0.960 . S
H2547 C2534 0.962 . S
H2548 C2534 0.960 . S
H2549 C2535 0.961 . S
H2550 C2535 0.961 . S
H2551 C2535 0.961 . S
H2552 C2536 0.931 . S
H2553 C2541 0.930 . S
H2554 C2542 0.956 . S
H2555 C2542 0.961 . S
H2556 C2542 0.961 . S
H2557 C2543 0.958 . S
H2558 C2543 0.961 . S
H2559 C2543 0.960 . S
C2560 C2561 1.391 1_545 S
C2560 C2562 1.394 . S
C2560 H2576 0.931 . S
C2561 C2560 1.391 1_565 S
C2561 C2565 1.376 . S
C2562 C2560 1.394 . S
C2562 C2563 1.369 . S
C2562 C2566 1.531 . S
C2563 C2562 1.369 . S
C2563 C2564 1.410 1_545 S
C2563 C2571 1.503 1_655 S
C2564 C2563 1.410 1_565 S
C2564 C2565 1.392 . S
C2564 C2567 1.511 . S
C2565 C2561 1.376 . S
C2565 C2564 1.392 . S
C2565 H2577 0.929 . S
C2566 C2562 1.531 . S
C2566 H2578 0.960 . S
C2566 H2579 0.962 . S
C2566 H2580 0.960 . S
C2567 C2564 1.511 . S
C2567 H2581 0.961 . S
C2567 H2582 0.961 1_655 S
C2567 H2583 0.961 . S
C2568 C2569 1.370 1_565 S
C2568 C2570 1.363 . S
C2568 H2584 0.931 . S
C2569 C2568 1.370 1_545 S
C2569 C2573 1.408 . S
C2570 C2568 1.363 . S
C2570 C2571 1.370 1_565 S
C2570 C2574 1.524 . S
C2571 C2563 1.503 1_455 S
C2571 C2570 1.370 1_545 S
C2571 C2572 1.403 . S
C2572 C2571 1.403 . S
C2572 C2573 1.404 . S
C2572 C2575 1.539 . S
C2573 C2569 1.408 . S
C2573 C2572 1.404 . S
C2573 H2585 0.930 . S
C2574 C2570 1.524 . S
C2574 H2586 0.956 . S
C2574 H2587 0.961 . S
C2574 H2588 0.961 . S
C2575 C2572 1.539 . S
C2575 H2589 0.958 . S
C2575 H2590 0.961 . S
C2575 H2591 0.960 1_455 S
H2576 C2560 0.931 . S
H2577 C2565 0.929 . S
H2578 C2566 0.960 . S
H2579 C2566 0.962 . S
H2580 C2566 0.960 . S
H2581 C2567 0.961 . S
H2582 C2567 0.961 1_455 S
H2583 C2567 0.961 . S
H2584 C2568 0.931 . S
H2585 C2573 0.930 . S
H2586 C2574 0.956 . S
H2587 C2574 0.961 . S
H2588 C2574 0.961 . S
H2589 C2575 0.958 . S
H2590 C2575 0.961 . S
H2591 C2575 0.960 1_655 S
C2592 C2593 1.391 . S
C2592 C2594 1.394 . S
C2592 H2608 0.931 . S
C2593 C2592 1.391 . S
C2593 C2597 1.376 . S
C2594 C2592 1.394 . S
C2594 C2595 1.369 . S
C2594 C2598 1.531 . S
C2595 C2594 1.369 . S
C2595 C2596 1.410 . S
C2595 C2603 1.503 . S
C2596 C2595 1.410 . S
C2596 C2597 1.392 . S
C2596 C2599 1.511 . S
C2597 C2593 1.376 . S
C2597 C2596 1.392 . S
C2597 H2609 0.929 . S
C2598 C2594 1.531 . S
C2598 H2610 0.960 . S
C2598 H2611 0.962 . S
C2598 H2612 0.960 . S
C2599 C2596 1.511 . S
C2599 H2613 0.961 . S
C2599 H2614 0.961 . S
C2599 H2615 0.961 . S
C2600 C2601 1.370 . S
C2600 C2602 1.363 . S
C2600 H2616 0.931 . S
C2601 C2600 1.370 . S
C2601 C2605 1.408 . S
C2602 C2600 1.363 . S
C2602 C2603 1.370 . S
C2602 C2606 1.524 . S
C2603 C2595 1.503 . S
C2603 C2602 1.370 . S
C2603 C2604 1.403 . S
C2604 C2603 1.403 . S
C2604 C2605 1.404 . S
C2604 C2607 1.539 . S
C2605 C2601 1.408 . S
C2605 C2604 1.404 . S
C2605 H2617 0.930 . S
C2606 C2602 1.524 . S
C2606 H2618 0.956 . S
C2606 H2619 0.961 . S
C2606 H2620 0.961 . S
C2607 C2604 1.539 . S
C2607 H2621 0.958 . S
C2607 H2622 0.961 . S
C2607 H2623 0.960 . S
H2608 C2592 0.931 . S
H2609 C2597 0.929 . S
H2610 C2598 0.960 . S
H2611 C2598 0.962 . S
H2612 C2598 0.960 . S
H2613 C2599 0.961 . S
H2614 C2599 0.961 . S
H2615 C2599 0.961 . S
H2616 C2600 0.931 . S
H2617 C2605 0.930 . S
H2618 C2606 0.956 . S
H2619 C2606 0.961 . S
H2620 C2606 0.961 . S
H2621 C2607 0.958 . S
H2622 C2607 0.961 . S
H2623 C2607 0.960 . S
C2624 C2625 1.391 . S
C2624 C2626 1.394 . S
C2624 H2640 0.931 . S
C2625 C2624 1.391 . S
C2625 C2629 1.376 . S
C2626 C2624 1.394 . S
C2626 C2627 1.369 . S
C2626 C2630 1.531 . S
C2627 C2626 1.369 . S
C2627 C2628 1.410 . S
C2627 C2635 1.503 . S
C2628 C2627 1.410 . S
C2628 C2629 1.392 . S
C2628 C2631 1.511 . S
C2629 C2625 1.376 . S
C2629 C2628 1.392 . S
C2629 H2641 0.929 . S
C2630 C2626 1.531 . S
C2630 H2642 0.960 . S
C2630 H2643 0.962 . S
C2630 H2644 0.960 . S
C2631 C2628 1.511 . S
C2631 H2645 0.961 . S
C2631 H2646 0.961 . S
C2631 H2647 0.961 . S
C2632 C2633 1.370 . S
C2632 C2634 1.363 . S
C2632 H2648 0.931 . S
C2633 C2632 1.370 . S
C2633 C2637 1.408 . S
C2634 C2632 1.363 . S
C2634 C2635 1.370 . S
C2634 C2638 1.524 . S
C2635 C2627 1.503 . S
C2635 C2634 1.370 . S
C2635 C2636 1.403 . S
C2636 C2635 1.403 . S
C2636 C2637 1.404 . S
C2636 C2639 1.539 . S
C2637 C2633 1.408 . S
C2637 C2636 1.404 . S
C2637 H2649 0.930 . S
C2638 C2634 1.524 . S
C2638 H2650 0.956 . S
C2638 H2651 0.961 . S
C2638 H2652 0.961 . S
C2639 C2636 1.539 . S
C2639 H2653 0.958 . S
C2639 H2654 0.961 . S
C2639 H2655 0.960 . S
H2640 C2624 0.931 . S
H2641 C2629 0.929 . S
H2642 C2630 0.960 . S
H2643 C2630 0.962 . S
H2644 C2630 0.960 . S
H2645 C2631 0.961 . S
H2646 C2631 0.961 . S
H2647 C2631 0.961 . S
H2648 C2632 0.931 . S
H2649 C2637 0.930 . S
H2650 C2638 0.956 . S
H2651 C2638 0.961 . S
H2652 C2638 0.961 . S
H2653 C2639 0.958 . S
H2654 C2639 0.961 . S
H2655 C2639 0.960 . S
C2656 C2657 1.391 . S
C2656 C2658 1.394 . S
C2656 H2672 0.931 . S
C2657 C2656 1.391 . S
C2657 C2661 1.376 . S
C2658 C2656 1.394 . S
C2658 C2659 1.369 . S
C2658 C2662 1.531 . S
C2659 C2658 1.369 . S
C2659 C2660 1.410 . S
C2659 C2667 1.503 . S
C2660 C2659 1.410 . S
C2660 C2661 1.392 . S
C2660 C2663 1.511 . S
C2661 C2657 1.376 . S
C2661 C2660 1.392 . S
C2661 H2673 0.909 1_556 S
C2662 C2658 1.531 . S
C2662 H2674 0.960 . S
C2662 H2675 0.962 . S
C2662 H2676 0.960 . S
C2663 C2660 1.511 . S
C2663 H2677 0.961 1_556 S
C2663 H2678 0.961 . S
C2663 H2679 0.961 . S
C2664 C2665 1.370 . S
C2664 C2666 1.363 . S
C2664 H2680 0.931 . S
C2665 C2664 1.370 . S
C2665 C2669 1.408 . S
C2666 C2664 1.363 . S
C2666 C2667 1.370 . S
C2666 C2670 1.524 1_556 S
C2667 C2659 1.503 . S
C2667 C2666 1.370 . S
C2667 C2668 1.403 . S
C2668 C2667 1.403 . S
C2668 C2669 1.404 . S
C2668 C2671 1.539 . S
C2669 C2665 1.408 . S
C2669 C2668 1.404 . S
C2669 H2681 0.930 . S
C2670 C2666 1.524 1_554 S
C2670 H2682 0.956 . S
C2670 H2683 0.961 . S
C2670 H2684 0.961 . S
C2671 C2668 1.539 . S
C2671 H2685 0.958 . S
C2671 H2686 0.961 . S
C2671 H2687 0.960 . S
H2672 C2656 0.931 . S
H2673 C2661 0.909 1_554 S
H2674 C2662 0.960 . S
H2675 C2662 0.962 . S
H2676 C2662 0.960 . S
H2677 C2663 0.961 1_554 S
H2678 C2663 0.961 . S
H2679 C2663 0.961 . S
H2680 C2664 0.931 . S
H2681 C2669 0.930 . S
H2682 C2670 0.956 . S
H2683 C2670 0.961 . S
H2684 C2670 0.961 . S
H2685 C2671 0.958 . S
H2686 C2671 0.961 . S
H2687 C2671 0.960 . S
C2688 C2689 1.391 . S
C2688 C2690 1.394 1_565 S
C2688 H2704 0.931 . S
C2689 C2688 1.391 . S
C2689 C2693 1.376 . S
C2690 C2688 1.394 1_545 S
C2690 C2691 1.369 1_545 S
C2690 C2694 1.531 . S
C2691 C2690 1.369 1_565 S
C2691 C2692 1.410 . S
C2691 C2699 1.503 1_565 S
C2692 C2691 1.410 . S
C2692 C2693 1.392 . S
C2692 C2695 1.511 . S
C2693 C2689 1.376 . S
C2693 C2692 1.392 . S
C2693 H2705 0.929 . S
C2694 C2690 1.531 . S
C2694 H2706 0.960 . S
C2694 H2707 0.962 . S
C2694 H2708 0.960 . S
C2695 C2692 1.511 . S
C2695 H2709 0.961 . S
C2695 H2710 0.961 . S
C2695 H2711 0.961 . S
C2696 C2697 1.370 . S
C2696 C2698 1.363 . S
C2696 H2712 0.931 . S
C2697 C2696 1.370 . S
C2697 C2701 1.408 . S
C2698 C2696 1.363 . S
C2698 C2699 1.370 . S
C2698 C2702 1.524 . S
C2699 C2691 1.503 1_545 S
C2699 C2698 1.370 . S
C2699 C2700 1.403 . S
C2700 C2699 1.403 . S
C2700 C2701 1.404 . S
C2700 C2703 1.539 1_545 S
C2701 C2697 1.408 . S
C2701 C2700 1.404 . S
C2701 H2713 0.930 . S
C2702 C2698 1.524 . S
C2702 H2714 0.956 . S
C2702 H2715 0.995 . S
C2702 H2716 0.961 . S
C2703 C2700 1.539 1_565 S
C2703 H2717 0.958 1_565 S
C2703 H2718 0.961 . S
C2703 H2719 0.960 . S
H2704 C2688 0.931 . S
H2705 C2693 0.929 . S
H2706 C2694 0.960 . S
H2707 C2694 0.962 . S
H2708 C2694 0.960 . S
H2709 C2695 0.961 . S
H2710 C2695 0.961 . S
H2711 C2695 0.961 . S
H2712 C2696 0.931 . S
H2713 C2701 0.930 . S
H2714 C2702 0.956 . S
H2715 C2702 0.995 . S
H2716 C2702 0.961 . S
H2717 C2703 0.958 1_545 S
H2718 C2703 0.961 . S
H2719 C2703 0.960 . S
C2720 C2721 1.391 . S
C2720 C2722 1.394 . S
C2720 H2736 0.931 . S
C2721 C2720 1.391 . S
C2721 C2725 1.376 . S
C2722 C2720 1.394 . S
C2722 C2723 1.369 . S
C2722 C2726 1.531 . S
C2723 C2722 1.369 . S
C2723 C2724 1.410 . S
C2723 C2731 1.503 . S
C2724 C2723 1.410 . S
C2724 C2725 1.392 . S
C2724 C2727 1.511 . S
C2725 C2721 1.376 . S
C2725 C2724 1.392 . S
C2725 H2737 0.929 . S
C2726 C2722 1.531 . S
C2726 H2738 0.960 . S
C2726 H2739 0.962 . S
C2726 H2740 0.960 . S
C2727 C2724 1.511 . S
C2727 H2741 0.961 . S
C2727 H2742 0.961 . S
C2727 H2743 0.961 . S
C2728 C2729 1.370 . S
C2728 C2730 1.363 . S
C2728 H2744 0.931 . S
C2729 C2728 1.370 . S
C2729 C2733 1.408 . S
C2730 C2728 1.363 . S
C2730 C2731 1.370 . S
C2730 C2734 1.524 . S
C2731 C2723 1.503 . S
C2731 C2730 1.370 . S
C2731 C2732 1.403 . S
C2732 C2731 1.403 . S
C2732 C2733 1.404 . S
C2732 C2735 1.539 . S
C2733 C2729 1.408 . S
C2733 C2732 1.404 . S
C2733 H2745 0.930 . S
C2734 C2730 1.524 . S
C2734 H2746 0.956 . S
C2734 H2747 0.961 . S
C2734 H2748 0.961 . S
C2735 C2732 1.539 . S
C2735 H2749 0.958 . S
C2735 H2750 0.961 . S
C2735 H2751 0.960 . S
H2736 C2720 0.931 . S
H2737 C2725 0.929 . S
H2738 C2726 0.960 . S
H2739 C2726 0.962 . S
H2740 C2726 0.960 . S
H2741 C2727 0.961 . S
H2742 C2727 0.961 . S
H2743 C2727 0.961 . S
H2744 C2728 0.931 . S
H2745 C2733 0.930 . S
H2746 C2734 0.956 . S
H2747 C2734 0.961 . S
H2748 C2734 0.961 . S
H2749 C2735 0.958 . S
H2750 C2735 0.961 . S
H2751 C2735 0.960 . S
C2752 C2753 1.391 . S
C2752 C2754 1.394 . S
C2752 H2768 0.931 . S
C2753 C2752 1.391 . S
C2753 C2757 1.376 . S
C2754 C2752 1.394 . S
C2754 C2755 1.369 . S
C2754 C2758 1.531 . S
C2755 C2754 1.369 . S
C2755 C2756 1.410 . S
C2755 C2763 1.503 . S
C2756 C2755 1.410 . S
C2756 C2757 1.392 . S
C2756 C2759 1.511 . S
C2757 C2753 1.376 . S
C2757 C2756 1.392 . S
C2757 H2769 0.929 . S
C2758 C2754 1.531 . S
C2758 H2770 0.960 . S
C2758 H2771 0.962 . S
C2758 H2772 0.960 . S
C2759 C2756 1.511 . S
C2759 H2773 0.961 . S
C2759 H2774 0.961 . S
C2759 H2775 0.961 . S
C2760 C2761 1.370 . S
C2760 C2762 1.363 . S
C2760 H2776 0.931 . S
C2761 C2760 1.370 . S
C2761 C2765 1.408 . S
C2762 C2760 1.363 . S
C2762 C2763 1.370 . S
C2762 C2766 1.524 . S
C2763 C2755 1.503 . S
C2763 C2762 1.370 . S
C2763 C2764 1.403 . S
C2764 C2763 1.403 . S
C2764 C2765 1.404 . S
C2764 C2767 1.539 . S
C2765 C2761 1.408 . S
C2765 C2764 1.404 . S
C2765 H2777 0.930 . S
C2766 C2762 1.524 . S
C2766 H2778 0.956 . S
C2766 H2779 0.961 . S
C2766 H2780 0.961 . S
C2767 C2764 1.539 . S
C2767 H2781 0.958 . S
C2767 H2782 0.961 . S
C2767 H2783 0.960 . S
H2768 C2752 0.931 . S
H2769 C2757 0.929 . S
H2770 C2758 0.960 . S
H2771 C2758 0.962 . S
H2772 C2758 0.960 . S
H2773 C2759 0.961 . S
H2774 C2759 0.961 . S
H2775 C2759 0.961 . S
H2776 C2760 0.931 . S
H2777 C2765 0.930 . S
H2778 C2766 0.956 . S
H2779 C2766 0.961 . S
H2780 C2766 0.961 . S
H2781 C2767 0.958 . S
H2782 C2767 0.961 . S
H2783 C2767 0.960 . S
C2784 C2785 1.391 . S
C2784 C2786 1.394 . S
C2784 H2800 0.931 . S
C2785 C2784 1.391 . S
C2785 C2789 1.376 . S
C2786 C2784 1.394 . S
C2786 C2787 1.369 . S
C2786 C2790 1.531 . S
C2787 C2786 1.369 . S
C2787 C2788 1.410 . S
C2787 C2795 1.503 . S
C2788 C2787 1.410 . S
C2788 C2789 1.392 . S
C2788 C2791 1.511 . S
C2789 C2785 1.376 . S
C2789 C2788 1.392 . S
C2789 H2801 0.929 . S
C2790 C2786 1.531 . S
C2790 H2802 0.960 . S
C2790 H2803 0.962 . S
C2790 H2804 0.960 . S
C2791 C2788 1.511 . S
C2791 H2805 0.961 . S
C2791 H2806 0.961 . S
C2791 H2807 0.961 . S
C2792 C2793 1.370 . S
C2792 C2794 1.363 . S
C2792 H2808 0.931 . S
C2793 C2792 1.370 . S
C2793 C2797 1.408 . S
C2794 C2792 1.363 . S
C2794 C2795 1.370 . S
C2794 C2798 1.524 . S
C2795 C2787 1.503 . S
C2795 C2794 1.370 . S
C2795 C2796 1.403 . S
C2796 C2795 1.403 . S
C2796 C2797 1.404 . S
C2796 C2799 1.539 . S
C2797 C2793 1.408 . S
C2797 C2796 1.404 . S
C2797 H2809 0.930 . S
C2798 C2794 1.524 . S
C2798 H2810 0.956 . S
C2798 H2811 0.961 . S
C2798 H2812 0.961 . S
C2799 C2796 1.539 . S
C2799 H2813 0.958 . S
C2799 H2814 0.961 . S
C2799 H2815 0.960 . S
H2800 C2784 0.931 . S
H2801 C2789 0.929 . S
H2802 C2790 0.960 . S
H2803 C2790 0.962 . S
H2804 C2790 0.960 . S
H2805 C2791 0.961 . S
H2806 C2791 0.961 . S
H2807 C2791 0.961 . S
H2808 C2792 0.931 . S
H2809 C2797 0.930 . S
H2810 C2798 0.956 . S
H2811 C2798 0.961 . S
H2812 C2798 0.961 . S
H2813 C2799 0.958 . S
H2814 C2799 0.961 . S
H2815 C2799 0.960 . S
C2816 C2817 1.391 . S
C2816 C2818 1.394 . S
C2816 H2832 0.931 . S
C2817 C2816 1.391 . S
C2817 C2821 1.376 . S
C2818 C2816 1.394 . S
C2818 C2819 1.369 . S
C2818 C2822 1.531 . S
C2819 C2818 1.369 . S
C2819 C2820 1.410 . S
C2819 C2827 1.503 . S
C2820 C2819 1.410 . S
C2820 C2821 1.392 . S
C2820 C2823 1.511 1_455 S
C2821 C2817 1.376 . S
C2821 C2820 1.392 . S
C2821 H2833 0.929 1_455 S
C2822 C2818 1.531 . S
C2822 H2834 0.960 . S
C2822 H2835 0.962 . S
C2822 H2836 0.960 . S
C2823 C2820 1.511 1_655 S
C2823 H2837 0.961 . S
C2823 H2838 0.961 . S
C2823 H2839 0.961 . S
C2824 C2825 1.370 . S
C2824 C2826 1.363 . S
C2824 H2840 0.931 . S
C2825 C2824 1.370 . S
C2825 C2829 1.408 . S
C2826 C2824 1.363 . S
C2826 C2827 1.370 . S
C2826 C2830 1.524 . S
C2827 C2819 1.503 . S
C2827 C2826 1.370 . S
C2827 C2828 1.403 . S
C2828 C2827 1.403 . S
C2828 C2829 1.404 . S
C2828 C2831 1.539 . S
C2829 C2825 1.408 . S
C2829 C2828 1.404 . S
C2829 H2841 0.930 . S
C2830 C2826 1.524 . S
C2830 H2842 0.956 . S
C2830 H2843 0.961 . S
C2830 H2844 0.961 . S
C2831 C2828 1.539 . S
C2831 H2845 0.958 . S
C2831 H2846 0.961 1_455 S
C2831 H2847 0.960 . S
H2832 C2816 0.931 . S
H2833 C2821 0.929 1_655 S
H2834 C2822 0.960 . S
H2835 C2822 0.962 . S
H2836 C2822 0.960 . S
H2837 C2823 0.961 . S
H2838 C2823 0.961 . S
H2839 C2823 0.961 . S
H2840 C2824 0.931 . S
H2841 C2829 0.930 . S
H2842 C2830 0.956 . S
H2843 C2830 0.961 . S
H2844 C2830 0.961 . S
H2845 C2831 0.958 . S
H2846 C2831 0.961 1_655 S
H2847 C2831 0.960 . S
C2848 C2849 1.391 . S
C2848 C2850 1.394 . S
C2848 H2864 0.931 . S
C2849 C2848 1.391 . S
C2849 C2853 1.376 . S
C2850 C2848 1.394 . S
C2850 C2851 1.369 . S
C2850 C2854 1.531 1_556 S
C2851 C2850 1.369 . S
C2851 C2852 1.410 . S
C2851 C2859 1.503 1_556 S
C2852 C2851 1.410 . S
C2852 C2853 1.392 . S
C2852 C2855 1.511 . S
C2853 C2849 1.376 . S
C2853 C2852 1.392 . S
C2853 H2865 0.929 . S
C2854 C2850 1.531 1_554 S
C2854 H2866 0.960 . S
C2854 H2867 0.962 . S
C2854 H2868 0.960 . S
C2855 C2852 1.511 . S
C2855 H2869 0.961 . S
C2855 H2870 0.961 . S
C2855 H2871 0.961 1_455 S
C2856 C2857 1.370 . S
C2856 C2858 1.363 . S
C2856 H2872 0.931 . S
C2857 C2856 1.370 . S
C2857 C2861 1.408 . S
C2858 C2856 1.363 . S
C2858 C2859 1.370 . S
C2858 C2862 1.524 1_554 S
C2859 C2851 1.503 1_554 S
C2859 C2858 1.370 . S
C2859 C2860 1.403 . S
C2860 C2859 1.403 . S
C2860 C2861 1.404 . S
C2860 C2863 1.570 . S
C2861 C2857 1.408 . S
C2861 C2860 1.404 . S
C2861 H2873 0.930 . S
C2862 C2858 1.524 1_556 S
C2862 H2874 0.956 . S
C2862 H2875 0.961 . S
C2862 H2876 0.961 . S
C2863 C2860 1.570 . S
C2863 H2877 0.966 . S
C2863 H2878 0.931 1_455 S
C2863 H2879 0.953 1_455 S
H2864 C2848 0.931 . S
H2865 C2853 0.929 . S
H2866 C2854 0.960 . S
H2867 C2854 0.962 . S
H2868 C2854 0.960 . S
H2869 C2855 0.961 . S
H2870 C2855 0.961 . S
H2871 C2855 0.961 1_655 S
H2872 C2856 0.931 . S
H2873 C2861 0.930 . S
H2874 C2862 0.956 . S
H2875 C2862 0.961 . S
H2876 C2862 0.961 . S
H2877 C2863 0.966 . S
H2878 C2863 0.931 1_655 S
H2879 C2863 0.953 1_655 S
C2880 C2881 1.391 . S
C2880 C2882 1.394 . S
C2880 H2896 0.931 . S
C2881 C2880 1.391 . S
C2881 C2885 1.376 . S
C2882 C2880 1.394 . S
C2882 C2883 1.369 . S
C2882 C2886 1.531 . S
C2883 C2882 1.369 . S
C2883 C2884 1.410 . S
C2883 C2891 1.503 . S
C2884 C2883 1.410 . S
C2884 C2885 1.392 . S
C2884 C2887 1.511 . S
C2885 C2881 1.376 . S
C2885 C2884 1.392 . S
C2885 H2897 0.929 . S
C2886 C2882 1.531 . S
C2886 H2898 0.960 . S
C2886 H2899 0.962 . S
C2886 H2900 0.960 . S
C2887 C2884 1.511 . S
C2887 H2901 0.961 . S
C2887 H2902 0.961 . S
C2887 H2903 0.961 . S
C2888 C2889 1.370 . S
C2888 C2890 1.363 . S
C2888 H2904 0.931 . S
C2889 C2888 1.370 . S
C2889 C2893 1.408 . S
C2890 C2888 1.363 . S
C2890 C2891 1.370 . S
C2890 C2894 1.524 . S
C2891 C2883 1.503 . S
C2891 C2890 1.370 . S
C2891 C2892 1.403 . S
C2892 C2891 1.403 . S
C2892 C2893 1.404 . S
C2892 C2895 1.539 . S
C2893 C2889 1.408 . S
C2893 C2892 1.404 . S
C2893 H2905 0.930 . S
C2894 C2890 1.524 . S
C2894 H2906 0.956 . S
C2894 H2907 0.961 . S
C2894 H2908 0.961 . S
C2895 C2892 1.539 . S
C2895 H2909 0.958 . S
C2895 H2910 0.961 . S
C2895 H2911 0.960 . S
H2896 C2880 0.931 . S
H2897 C2885 0.929 . S
H2898 C2886 0.960 . S
H2899 C2886 0.962 . S
H2900 C2886 0.960 . S
H2901 C2887 0.961 . S
H2902 C2887 0.961 . S
H2903 C2887 0.961 . S
H2904 C2888 0.931 . S
H2905 C2893 0.930 . S
H2906 C2894 0.956 . S
H2907 C2894 0.961 . S
H2908 C2894 0.961 . S
H2909 C2895 0.958 . S
H2910 C2895 0.961 . S
H2911 C2895 0.960 . S
C2912 C2913 1.391 . S
C2912 C2914 1.394 . S
C2912 H2928 0.931 . S
C2913 C2912 1.391 . S
C2913 C2917 1.376 . S
C2914 C2912 1.394 . S
C2914 C2915 1.369 . S
C2914 C2918 1.531 . S
C2915 C2914 1.369 . S
C2915 C2916 1.410 . S
C2915 C2923 1.503 1_554 S
C2916 C2915 1.410 . S
C2916 C2917 1.392 . S
C2916 C2919 1.511 . S
C2917 C2913 1.376 . S
C2917 C2916 1.392 . S
C2917 H2929 0.929 . S
C2918 C2914 1.531 . S
C2918 H2930 0.949 1_554 S
C2918 H2931 0.961 1_554 S
C2918 H2932 0.960 . S
C2919 C2916 1.511 . S
C2919 H2933 0.961 . S
C2919 H2934 0.961 1_554 S
C2919 H2935 0.961 . S
C2920 C2921 1.370 . S
C2920 C2922 1.363 . S
C2920 H2936 0.931 . S
C2921 C2920 1.370 . S
C2921 C2925 1.408 . S
C2922 C2920 1.363 . S
C2922 C2923 1.370 . S
C2922 C2926 1.524 . S
C2923 C2915 1.503 1_556 S
C2923 C2922 1.370 . S
C2923 C2924 1.403 . S
C2924 C2923 1.403 . S
C2924 C2925 1.404 . S
C2924 C2927 1.514 1_556 S
C2925 C2921 1.408 . S
C2925 C2924 1.404 . S
C2925 H2937 0.930 . S
C2926 C2922 1.524 . S
C2926 H2938 0.956 . S
C2926 H2939 0.961 . S
C2926 H2940 0.961 . S
C2927 C2924 1.514 1_554 S
C2927 H2941 0.968 . S
C2927 H2942 0.951 1_554 S
C2927 H2943 0.988 . S
H2928 C2912 0.931 . S
H2929 C2917 0.929 . S
H2930 C2918 0.949 1_556 S
H2931 C2918 0.961 1_556 S
H2932 C2918 0.960 . S
H2933 C2919 0.961 . S
H2934 C2919 0.961 1_556 S
H2935 C2919 0.961 . S
H2936 C2920 0.931 . S
H2937 C2925 0.930 . S
H2938 C2926 0.956 . S
H2939 C2926 0.961 . S
H2940 C2926 0.961 . S
H2941 C2927 0.968 . S
H2942 C2927 0.951 1_556 S
H2943 C2927 0.988 . S
C2944 C2945 1.390 1_565 S
C2944 C2946 1.394 1_565 S
C2944 H2960 0.931 . S
C2945 C2944 1.390 1_545 S
C2945 C2949 1.378 . S
C2946 C2944 1.394 1_545 S
C2946 C2947 1.369 . S
C2946 C2950 1.531 . S
C2947 C2946 1.369 . S
C2947 C2948 1.410 . S
C2947 C2955 1.503 . S
C2948 C2947 1.410 . S
C2948 C2949 1.392 . S
C2948 C2951 1.511 . S
C2949 C2945 1.378 . S
C2949 C2948 1.392 . S
C2949 H2961 0.929 . S
C2950 C2946 1.531 . S
C2950 H2962 0.955 1_545 S
C2950 H2963 0.962 . S
C2950 H2964 0.960 1_545 S
C2951 C2948 1.511 . S
C2951 H2965 0.961 . S
C2951 H2966 0.961 . S
C2951 H2967 0.961 . S
C2952 C2953 1.370 . S
C2952 C2954 1.363 . S
C2952 H2968 0.931 . S
C2953 C2952 1.370 . S
C2953 C2957 1.408 . S
C2954 C2952 1.363 . S
C2954 C2955 1.370 . S
C2954 C2958 1.524 . S
C2955 C2947 1.503 . S
C2955 C2954 1.370 . S
C2955 C2956 1.403 . S
C2956 C2955 1.403 . S
C2956 C2957 1.404 . S
C2956 C2959 1.539 1_545 S
C2957 C2953 1.408 . S
C2957 C2956 1.404 . S
C2957 H2969 0.930 . S
C2958 C2954 1.524 . S
C2958 H2970 0.956 . S
C2958 H2971 0.961 . S
C2958 H2972 0.961 . S
C2959 C2956 1.539 1_565 S
C2959 H2973 0.958 . S
C2959 H2974 0.961 . S
C2959 H2975 0.960 . S
H2960 C2944 0.931 . S
H2961 C2949 0.929 . S
H2962 C2950 0.955 1_565 S
H2963 C2950 0.962 . S
H2964 C2950 0.960 1_565 S
H2965 C2951 0.961 . S
H2966 C2951 0.961 . S
H2967 C2951 0.961 . S
H2968 C2952 0.931 . S
H2969 C2957 0.930 . S
H2970 C2958 0.956 . S
H2971 C2958 0.961 . S
H2972 C2958 0.961 . S
H2973 C2959 0.958 . S
H2974 C2959 0.961 . S
H2975 C2959 0.960 . S
C2976 C2977 1.391 . S
C2976 C2978 1.394 . S
C2976 H2992 0.931 . S
C2977 C2976 1.391 . S
C2977 C2981 1.376 . S
C2978 C2976 1.394 . S
C2978 C2979 1.369 . S
C2978 C2982 1.531 . S
C2979 C2978 1.369 . S
C2979 C2980 1.410 . S
C2979 C2987 1.503 . S
C2980 C2979 1.410 . S
C2980 C2981 1.392 . S
C2980 C2983 1.511 . S
C2981 C2977 1.376 . S
C2981 C2980 1.392 . S
C2981 H2993 0.929 . S
C2982 C2978 1.531 . S
C2982 H2994 0.967 . S
C2982 H2995 0.962 . S
C2982 H2996 0.960 1_556 S
C2983 C2980 1.511 . S
C2983 H2997 0.961 . S
C2983 H2998 0.961 . S
C2983 H2999 0.961 . S
C2984 C2985 1.370 . S
C2984 C2986 1.363 . S
C2984 H3000 0.931 . S
C2985 C2984 1.370 . S
C2985 C2989 1.408 . S
C2986 C2984 1.363 . S
C2986 C2987 1.370 . S
C2986 C2990 1.524 . S
C2987 C2979 1.503 . S
C2987 C2986 1.370 . S
C2987 C2988 1.403 . S
C2988 C2987 1.403 . S
C2988 C2989 1.404 . S
C2988 C2991 1.539 . S
C2989 C2985 1.408 . S
C2989 C2988 1.404 . S
C2989 H3001 0.930 . S
C2990 C2986 1.524 . S
C2990 H3002 0.956 . S
C2990 H3003 0.961 . S
C2990 H3004 0.961 . S
C2991 C2988 1.539 . S
C2991 H3005 0.958 1_556 S
C2991 H3006 0.961 . S
C2991 H3007 0.960 . S
H2992 C2976 0.931 . S
H2993 C2981 0.929 . S
H2994 C2982 0.967 . S
H2995 C2982 0.962 . S
H2996 C2982 0.960 1_554 S
H2997 C2983 0.961 . S
H2998 C2983 0.961 . S
H2999 C2983 0.961 . S
H3000 C2984 0.931 . S
H3001 C2989 0.930 . S
H3002 C2990 0.956 . S
H3003 C2990 0.961 . S
H3004 C2990 0.961 . S
H3005 C2991 0.958 1_554 S
H3006 C2991 0.961 . S
H3007 C2991 0.960 . S
C3008 C3009 1.391 . S
C3008 C3010 1.394 . S
C3008 H3024 0.931 . S
C3009 C3008 1.391 . S
C3009 C3013 1.376 . S
C3010 C3008 1.394 . S
C3010 C3011 1.369 . S
C3010 C3014 1.531 . S
C3011 C3010 1.369 . S
C3011 C3012 1.410 . S
C3011 C3019 1.503 . S
C3012 C3011 1.410 . S
C3012 C3013 1.392 . S
C3012 C3015 1.511 . S
C3013 C3009 1.376 . S
C3013 C3012 1.392 . S
C3013 H3025 0.929 . S
C3014 C3010 1.531 . S
C3014 H3026 0.960 . S
C3014 H3027 0.962 . S
C3014 H3028 0.960 . S
C3015 C3012 1.511 . S
C3015 H3029 0.961 . S
C3015 H3030 0.961 . S
C3015 H3031 0.961 . S
C3016 C3017 1.370 . S
C3016 C3018 1.363 . S
C3016 H3032 0.931 . S
C3017 C3016 1.370 . S
C3017 C3021 1.408 . S
C3018 C3016 1.363 . S
C3018 C3019 1.370 . S
C3018 C3022 1.524 . S
C3019 C3011 1.503 . S
C3019 C3018 1.370 . S
C3019 C3020 1.403 . S
C3020 C3019 1.403 . S
C3020 C3021 1.404 . S
C3020 C3023 1.539 . S
C3021 C3017 1.408 . S
C3021 C3020 1.404 . S
C3021 H3033 0.930 . S
C3022 C3018 1.524 . S
C3022 H3034 0.956 . S
C3022 H3035 0.961 . S
C3022 H3036 0.961 . S
C3023 C3020 1.539 . S
C3023 H3037 0.958 . S
C3023 H3038 0.961 . S
C3023 H3039 0.960 . S
H3024 C3008 0.931 . S
H3025 C3013 0.929 . S
H3026 C3014 0.960 . S
H3027 C3014 0.962 . S
H3028 C3014 0.960 . S
H3029 C3015 0.961 . S
H3030 C3015 0.961 . S
H3031 C3015 0.961 . S
H3032 C3016 0.931 . S
H3033 C3021 0.930 . S
H3034 C3022 0.956 . S
H3035 C3022 0.961 . S
H3036 C3022 0.961 . S
H3037 C3023 0.958 . S
H3038 C3023 0.961 . S
H3039 C3023 0.960 . S
C3040 C3041 1.391 . S
C3040 C3042 1.394 . S
C3040 H3056 0.931 . S
C3041 C3040 1.391 . S
C3041 C3045 1.376 . S
C3042 C3040 1.394 . S
C3042 C3043 1.369 . S
C3042 C3046 1.531 . S
C3043 C3042 1.369 . S
C3043 C3044 1.410 . S
C3043 C3051 1.503 . S
C3044 C3043 1.410 . S
C3044 C3045 1.392 . S
C3044 C3047 1.511 . S
C3045 C3041 1.376 . S
C3045 C3044 1.392 . S
C3045 H3057 0.929 . S
C3046 C3042 1.531 . S
C3046 H3058 0.960 . S
C3046 H3059 0.962 . S
C3046 H3060 0.960 . S
C3047 C3044 1.511 . S
C3047 H3061 0.961 . S
C3047 H3062 0.961 . S
C3047 H3063 0.961 . S
C3048 C3049 1.370 . S
C3048 C3050 1.363 . S
C3048 H3064 0.931 . S
C3049 C3048 1.370 . S
C3049 C3053 1.408 . S
C3050 C3048 1.363 . S
C3050 C3051 1.370 . S
C3050 C3054 1.524 . S
C3051 C3043 1.503 . S
C3051 C3050 1.370 . S
C3051 C3052 1.403 . S
C3052 C3051 1.403 . S
C3052 C3053 1.404 . S
C3052 C3055 1.539 . S
C3053 C3049 1.408 . S
C3053 C3052 1.404 . S
C3053 H3065 0.930 . S
C3054 C3050 1.524 . S
C3054 H3066 0.956 . S
C3054 H3067 0.961 . S
C3054 H3068 0.961 . S
C3055 C3052 1.539 . S
C3055 H3069 0.958 . S
C3055 H3070 0.961 . S
C3055 H3071 0.960 . S
H3056 C3040 0.931 . S
H3057 C3045 0.929 . S
H3058 C3046 0.960 . S
H3059 C3046 0.962 . S
H3060 C3046 0.960 . S
H3061 C3047 0.961 . S
H3062 C3047 0.961 . S
H3063 C3047 0.961 . S
H3064 C3048 0.931 . S
H3065 C3053 0.930 . S
H3066 C3054 0.956 . S
H3067 C3054 0.961 . S
H3068 C3054 0.961 . S
H3069 C3055 0.958 . S
H3070 C3055 0.961 . S
H3071 C3055 0.960 . S
C3072 C3073 1.389 . S
C3072 C3074 1.392 . S
C3072 H3088 0.934 1_565 S
C3073 C3072 1.389 . S
C3073 C3077 1.376 . S
C3074 C3072 1.392 . S
C3074 C3075 1.369 . S
C3074 C3078 1.531 1_565 S
C3075 C3074 1.369 . S
C3075 C3076 1.410 . S
C3075 C3083 1.503 . S
C3076 C3075 1.410 . S
C3076 C3077 1.392 . S
C3076 C3079 1.511 . S
C3077 C3073 1.376 . S
C3077 C3076 1.392 . S
C3077 H3089 0.929 . S
C3078 C3074 1.531 1_545 S
C3078 H3090 0.960 1_545 S
C3078 H3091 0.962 . S
C3078 H3092 0.960 . S
C3079 C3076 1.511 . S
C3079 H3093 0.961 . S
C3079 H3094 0.961 . S
C3079 H3095 0.961 . S
C3080 C3081 1.370 . S
C3080 C3082 1.363 . S
C3080 H3096 0.931 . S
C3081 C3080 1.370 . S
C3081 C3085 1.408 . S
C3082 C3080 1.363 . S
C3082 C3083 1.370 . S
C3082 C3086 1.524 . S
C3083 C3075 1.503 . S
C3083 C3082 1.370 . S
C3083 C3084 1.403 . S
C3084 C3083 1.403 . S
C3084 C3085 1.404 . S
C3084 C3087 1.539 . S
C3085 C3081 1.408 . S
C3085 C3084 1.404 . S
C3085 H3097 0.930 . S
C3086 C3082 1.524 . S
C3086 H3098 0.957 . S
C3086 H3099 0.961 . S
C3086 H3100 0.961 . S
C3087 C3084 1.539 . S
C3087 H3101 0.958 . S
C3087 H3102 0.961 . S
C3087 H3103 0.960 . S
H3088 C3072 0.934 1_545 S
H3089 C3077 0.929 . S
H3090 C3078 0.960 1_565 S
H3091 C3078 0.962 . S
H3092 C3078 0.960 . S
H3093 C3079 0.961 . S
H3094 C3079 0.961 . S
H3095 C3079 0.961 . S
H3096 C3080 0.931 . S
H3097 C3085 0.930 . S
H3098 C3086 0.957 . S
H3099 C3086 0.961 . S
H3100 C3086 0.961 . S
H3101 C3087 0.958 . S
H3102 C3087 0.961 . S
H3103 C3087 0.960 . S
C3104 C3105 1.391 . S
C3104 C3106 1.394 . S
C3104 H3120 0.931 . S
C3105 C3104 1.391 . S
C3105 C3109 1.376 . S
C3106 C3104 1.394 . S
C3106 C3107 1.369 . S
C3106 C3110 1.531 . S
C3107 C3106 1.369 . S
C3107 C3108 1.410 . S
C3107 C3115 1.503 . S
C3108 C3107 1.410 . S
C3108 C3109 1.392 . S
C3108 C3111 1.511 . S
C3109 C3105 1.376 . S
C3109 C3108 1.392 . S
C3109 H3121 0.929 . S
C3110 C3106 1.531 . S
C3110 H3122 0.960 . S
C3110 H3123 0.962 . S
C3110 H3124 0.960 . S
C3111 C3108 1.511 . S
C3111 H3125 0.961 . S
C3111 H3126 0.961 . S
C3111 H3127 0.961 . S
C3112 C3113 1.370 . S
C3112 C3114 1.363 . S
C3112 H3128 0.931 . S
C3113 C3112 1.370 . S
C3113 C3117 1.408 . S
C3114 C3112 1.363 . S
C3114 C3115 1.370 . S
C3114 C3118 1.524 . S
C3115 C3107 1.503 . S
C3115 C3114 1.370 . S
C3115 C3116 1.403 . S
C3116 C3115 1.403 . S
C3116 C3117 1.404 . S
C3116 C3119 1.539 . S
C3117 C3113 1.408 . S
C3117 C3116 1.404 . S
C3117 H3129 0.930 . S
C3118 C3114 1.524 . S
C3118 H3130 0.956 . S
C3118 H3131 0.961 . S
C3118 H3132 0.961 . S
C3119 C3116 1.539 . S
C3119 H3133 0.958 . S
C3119 H3134 0.961 . S
C3119 H3135 0.960 . S
H3120 C3104 0.931 . S
H3121 C3109 0.929 . S
H3122 C3110 0.960 . S
H3123 C3110 0.962 . S
H3124 C3110 0.960 . S
H3125 C3111 0.961 . S
H3126 C3111 0.961 . S
H3127 C3111 0.961 . S
H3128 C3112 0.931 . S
H3129 C3117 0.930 . S
H3130 C3118 0.956 . S
H3131 C3118 0.961 . S
H3132 C3118 0.961 . S
H3133 C3119 0.958 . S
H3134 C3119 0.961 . S
H3135 C3119 0.960 . S
C3136 C3137 1.391 . S
C3136 C3138 1.394 . S
C3136 H3152 0.931 . S
C3137 C3136 1.391 . S
C3137 C3141 1.376 . S
C3138 C3136 1.394 . S
C3138 C3139 1.369 . S
C3138 C3142 1.531 . S
C3139 C3138 1.369 . S
C3139 C3140 1.410 . S
C3139 C3147 1.503 . S
C3140 C3139 1.410 . S
C3140 C3141 1.392 . S
C3140 C3143 1.511 . S
C3141 C3137 1.376 . S
C3141 C3140 1.392 . S
C3141 H3153 0.929 . S
C3142 C3138 1.531 . S
C3142 H3154 0.960 . S
C3142 H3155 0.962 . S
C3142 H3156 0.960 . S
C3143 C3140 1.511 . S
C3143 H3157 0.961 . S
C3143 H3158 0.961 . S
C3143 H3159 0.961 . S
C3144 C3145 1.370 . S
C3144 C3146 1.363 . S
C3144 H3160 0.931 . S
C3145 C3144 1.370 . S
C3145 C3149 1.408 . S
C3146 C3144 1.363 . S
C3146 C3147 1.370 . S
C3146 C3150 1.524 . S
C3147 C3139 1.503 . S
C3147 C3146 1.370 . S
C3147 C3148 1.403 . S
C3148 C3147 1.403 . S
C3148 C3149 1.404 . S
C3148 C3151 1.539 . S
C3149 C3145 1.408 . S
C3149 C3148 1.404 . S
C3149 H3161 0.930 . S
C3150 C3146 1.524 . S
C3150 H3162 0.956 . S
C3150 H3163 0.961 . S
C3150 H3164 0.961 . S
C3151 C3148 1.539 . S
C3151 H3165 0.958 . S
C3151 H3166 0.961 . S
C3151 H3167 0.960 . S
H3152 C3136 0.931 . S
H3153 C3141 0.929 . S
H3154 C3142 0.960 . S
H3155 C3142 0.962 . S
H3156 C3142 0.960 . S
H3157 C3143 0.961 . S
H3158 C3143 0.961 . S
H3159 C3143 0.961 . S
H3160 C3144 0.931 . S
H3161 C3149 0.930 . S
H3162 C3150 0.956 . S
H3163 C3150 0.961 . S
H3164 C3150 0.961 . S
H3165 C3151 0.958 . S
H3166 C3151 0.961 . S
H3167 C3151 0.960 . S
C3168 C3169 1.391 . S
C3168 C3170 1.394 . S
C3168 H3184 0.931 . S
C3169 C3168 1.391 . S
C3169 C3173 1.376 . S
C3170 C3168 1.394 . S
C3170 C3171 1.369 . S
C3170 C3174 1.531 . S
C3171 C3170 1.369 . S
C3171 C3172 1.410 . S
C3171 C3179 1.503 . S
C3172 C3171 1.410 . S
C3172 C3173 1.392 . S
C3172 C3175 1.511 . S
C3173 C3169 1.376 . S
C3173 C3172 1.392 . S
C3173 H3185 0.929 . S
C3174 C3170 1.531 . S
C3174 H3186 0.960 . S
C3174 H3187 0.962 . S
C3174 H3188 0.960 . S
C3175 C3172 1.511 . S
C3175 H3189 0.961 . S
C3175 H3190 0.961 . S
C3175 H3191 0.961 . S
C3176 C3177 1.370 . S
C3176 C3178 1.363 . S
C3176 H3192 0.931 . S
C3177 C3176 1.370 . S
C3177 C3181 1.408 . S
C3178 C3176 1.363 . S
C3178 C3179 1.370 . S
C3178 C3182 1.524 . S
C3179 C3171 1.503 . S
C3179 C3178 1.370 . S
C3179 C3180 1.403 . S
C3180 C3179 1.403 . S
C3180 C3181 1.404 . S
C3180 C3183 1.539 1_554 S
C3181 C3177 1.408 . S
C3181 C3180 1.404 . S
C3181 H3193 0.930 . S
C3182 C3178 1.524 . S
C3182 H3194 0.956 . S
C3182 H3195 0.961 . S
C3182 H3196 0.961 . S
C3183 C3180 1.539 1_556 S
C3183 H3197 0.958 . S
C3183 H3198 0.961 . S
C3183 H3199 0.960 1_556 S
H3184 C3168 0.931 . S
H3185 C3173 0.929 . S
H3186 C3174 0.960 . S
H3187 C3174 0.962 . S
H3188 C3174 0.960 . S
H3189 C3175 0.961 . S
H3190 C3175 0.961 . S
H3191 C3175 0.961 . S
H3192 C3176 0.931 . S
H3193 C3181 0.930 . S
H3194 C3182 0.956 . S
H3195 C3182 0.961 . S
H3196 C3182 0.961 . S
H3197 C3183 0.958 . S
H3198 C3183 0.961 . S
H3199 C3183 0.960 1_554 S
C3200 C3201 1.391 . S
C3200 C3202 1.394 . S
C3200 H3216 0.931 . S
C3201 C3200 1.391 . S
C3201 C3205 1.376 . S
C3202 C3200 1.394 . S
C3202 C3203 1.369 . S
C3202 C3206 1.531 . S
C3203 C3202 1.369 . S
C3203 C3204 1.410 . S
C3203 C3211 1.503 . S
C3204 C3203 1.410 . S
C3204 C3205 1.392 . S
C3204 C3207 1.511 . S
C3205 C3201 1.376 . S
C3205 C3204 1.392 . S
C3205 H3217 0.929 . S
C3206 C3202 1.531 . S
C3206 H3218 0.960 . S
C3206 H3219 0.962 . S
C3206 H3220 0.960 . S
C3207 C3204 1.511 . S
C3207 H3221 0.961 . S
C3207 H3222 0.961 . S
C3207 H3223 0.961 1_554 S
C3208 C3209 1.370 . S
C3208 C3210 1.363 . S
C3208 H3224 0.931 . S
C3209 C3208 1.370 . S
C3209 C3213 1.408 1_554 S
C3210 C3208 1.363 . S
C3210 C3211 1.370 . S
C3210 C3214 1.524 . S
C3211 C3203 1.503 . S
C3211 C3210 1.370 . S
C3211 C3212 1.403 1_554 S
C3212 C3211 1.403 1_556 S
C3212 C3213 1.404 . S
C3212 C3215 1.539 . S
C3213 C3209 1.408 1_556 S
C3213 C3212 1.404 . S
C3213 H3225 0.930 . S
C3214 C3210 1.524 . S
C3214 H3226 0.956 . S
C3214 H3227 0.961 . S
C3214 H3228 0.961 . S
C3215 C3212 1.539 . S
C3215 H3229 0.958 . S
C3215 H3230 0.961 . S
C3215 H3231 0.960 . S
H3216 C3200 0.931 . S
H3217 C3205 0.929 . S
H3218 C3206 0.960 . S
H3219 C3206 0.962 . S
H3220 C3206 0.960 . S
H3221 C3207 0.961 . S
H3222 C3207 0.961 . S
H3223 C3207 0.961 1_556 S
H3224 C3208 0.931 . S
H3225 C3213 0.930 . S
H3226 C3214 0.956 . S
H3227 C3214 0.961 . S
H3228 C3214 0.961 . S
H3229 C3215 0.958 . S
H3230 C3215 0.961 . S
H3231 C3215 0.960 . S
C3232 C3233 1.391 . S
C3232 C3234 1.394 . S
C3232 H3248 0.931 . S
C3233 C3232 1.391 . S
C3233 C3237 1.376 . S
C3234 C3232 1.394 . S
C3234 C3235 1.369 . S
C3234 C3238 1.531 . S
C3235 C3234 1.369 . S
C3235 C3236 1.410 . S
C3235 C3243 1.503 . S
C3236 C3235 1.410 . S
C3236 C3237 1.392 . S
C3236 C3239 1.511 . S
C3237 C3233 1.376 . S
C3237 C3236 1.392 . S
C3237 H3249 0.929 . S
C3238 C3234 1.531 . S
C3238 H3250 0.960 . S
C3238 H3251 0.962 . S
C3238 H3252 0.960 . S
C3239 C3236 1.511 . S
C3239 H3253 0.961 . S
C3239 H3254 0.961 . S
C3239 H3255 0.961 . S
C3240 C3241 1.370 . S
C3240 C3242 1.363 . S
C3240 H3256 0.931 . S
C3241 C3240 1.370 . S
C3241 C3245 1.408 . S
C3242 C3240 1.363 . S
C3242 C3243 1.370 . S
C3242 C3246 1.524 . S
C3243 C3235 1.503 . S
C3243 C3242 1.370 . S
C3243 C3244 1.403 . S
C3244 C3243 1.403 . S
C3244 C3245 1.404 . S
C3244 C3247 1.539 . S
C3245 C3241 1.408 . S
C3245 C3244 1.404 . S
C3245 H3257 0.930 . S
C3246 C3242 1.524 . S
C3246 H3258 0.956 . S
C3246 H3259 0.961 . S
C3246 H3260 0.961 . S
C3247 C3244 1.539 . S
C3247 H3261 0.958 . S
C3247 H3262 0.961 . S
C3247 H3263 0.960 . S
H3248 C3232 0.931 . S
H3249 C3237 0.929 . S
H3250 C3238 0.960 . S
H3251 C3238 0.962 . S
H3252 C3238 0.960 . S
H3253 C3239 0.961 . S
H3254 C3239 0.961 . S
H3255 C3239 0.961 . S
H3256 C3240 0.931 . S
H3257 C3245 0.930 . S
H3258 C3246 0.956 . S
H3259 C3246 0.961 . S
H3260 C3246 0.961 . S
H3261 C3247 0.958 . S
H3262 C3247 0.961 . S
H3263 C3247 0.960 . S
C3264 C3265 1.391 1_554 S
C3264 C3266 1.394 1_554 S
C3264 H3280 0.930 . S
C3265 C3264 1.391 1_556 S
C3265 C3269 1.376 . S
C3266 C3264 1.394 1_556 S
C3266 C3267 1.369 . S
C3266 C3270 1.531 1_556 S
C3267 C3266 1.369 . S
C3267 C3268 1.410 . S
C3267 C3275 1.503 . S
C3268 C3267 1.410 . S
C3268 C3269 1.392 . S
C3268 C3271 1.511 . S
C3269 C3265 1.376 . S
C3269 C3268 1.392 . S
C3269 H3281 0.929 . S
C3270 C3266 1.531 1_554 S
C3270 H3282 0.960 . S
C3270 H3283 0.962 1_554 S
C3270 H3284 0.960 . S
C3271 C3268 1.511 . S
C3271 H3285 0.961 . S
C3271 H3286 0.961 . S
C3271 H3287 0.961 . S
C3272 C3273 1.370 . S
C3272 C3274 1.363 . S
C3272 H3288 0.931 . S
C3273 C3272 1.370 . S
C3273 C3277 1.408 . S
C3274 C3272 1.363 . S
C3274 C3275 1.370 . S
C3274 C3278 1.524 . S
C3275 C3267 1.503 . S
C3275 C3274 1.370 . S
C3275 C3276 1.403 . S
C3276 C3275 1.403 . S
C3276 C3277 1.404 . S
C3276 C3279 1.539 1_556 S
C3277 C3273 1.408 . S
C3277 C3276 1.404 . S
C3277 H3289 0.930 . S
C3278 C3274 1.524 . S
C3278 H3290 0.956 . S
C3278 H3291 0.961 . S
C3278 H3292 0.961 . S
C3279 C3276 1.539 1_554 S
C3279 H3293 0.958 . S
C3279 H3294 0.961 . S
C3279 H3295 0.960 . S
H3280 C3264 0.930 . S
H3281 C3269 0.929 . S
H3282 C3270 0.960 . S
H3283 C3270 0.962 1_556 S
H3284 C3270 0.960 . S
H3285 C3271 0.961 . S
H3286 C3271 0.961 . S
H3287 C3271 0.961 . S
H3288 C3272 0.931 . S
H3289 C3277 0.930 . S
H3290 C3278 0.956 . S
H3291 C3278 0.961 . S
H3292 C3278 0.961 . S
H3293 C3279 0.958 . S
H3294 C3279 0.961 . S
H3295 C3279 0.960 . S
C3296 C3297 1.391 . S
C3296 C3298 1.394 . S
C3296 H3312 0.931 . S
C3297 C3296 1.391 . S
C3297 C3301 1.376 . S
C3298 C3296 1.394 . S
C3298 C3299 1.369 . S
C3298 C3302 1.531 . S
C3299 C3298 1.369 . S
C3299 C3300 1.410 . S
C3299 C3307 1.503 . S
C3300 C3299 1.410 . S
C3300 C3301 1.392 . S
C3300 C3303 1.511 . S
C3301 C3297 1.376 . S
C3301 C3300 1.392 . S
C3301 H3313 0.929 . S
C3302 C3298 1.531 . S
C3302 H3314 0.960 . S
C3302 H3315 0.962 . S
C3302 H3316 0.960 . S
C3303 C3300 1.511 . S
C3303 H3317 0.961 . S
C3303 H3318 0.961 . S
C3303 H3319 0.961 . S
C3304 C3305 1.370 . S
C3304 C3306 1.363 . S
C3304 H3320 0.931 . S
C3305 C3304 1.370 . S
C3305 C3309 1.408 . S
C3306 C3304 1.363 . S
C3306 C3307 1.370 . S
C3306 C3310 1.524 . S
C3307 C3299 1.503 . S
C3307 C3306 1.370 . S
C3307 C3308 1.403 . S
C3308 C3307 1.403 . S
C3308 C3309 1.404 . S
C3308 C3311 1.539 . S
C3309 C3305 1.408 . S
C3309 C3308 1.404 . S
C3309 H3321 0.930 . S
C3310 C3306 1.524 . S
C3310 H3322 0.956 . S
C3310 H3323 0.961 . S
C3310 H3324 0.961 . S
C3311 C3308 1.539 . S
C3311 H3325 0.958 . S
C3311 H3326 0.961 . S
C3311 H3327 0.960 . S
H3312 C3296 0.931 . S
H3313 C3301 0.929 . S
H3314 C3302 0.960 . S
H3315 C3302 0.962 . S
H3316 C3302 0.960 . S
H3317 C3303 0.961 . S
H3318 C3303 0.961 . S
H3319 C3303 0.961 . S
H3320 C3304 0.931 . S
H3321 C3309 0.930 . S
H3322 C3310 0.956 . S
H3323 C3310 0.961 . S
H3324 C3310 0.961 . S
H3325 C3311 0.958 . S
H3326 C3311 0.961 . S
H3327 C3311 0.960 . S
C3328 C3329 1.391 . S
C3328 C3330 1.394 . S
C3328 H3344 0.931 . S
C3329 C3328 1.391 . S
C3329 C3333 1.376 . S
C3330 C3328 1.394 . S
C3330 C3331 1.369 . S
C3330 C3334 1.531 . S
C3331 C3330 1.369 . S
C3331 C3332 1.410 . S
C3331 C3339 1.503 . S
C3332 C3331 1.410 . S
C3332 C3333 1.392 . S
C3332 C3335 1.511 . S
C3333 C3329 1.376 . S
C3333 C3332 1.392 . S
C3333 H3345 0.929 . S
C3334 C3330 1.531 . S
C3334 H3346 0.960 . S
C3334 H3347 0.962 . S
C3334 H3348 0.960 . S
C3335 C3332 1.511 . S
C3335 H3349 0.961 . S
C3335 H3350 0.961 . S
C3335 H3351 0.961 . S
C3336 C3337 1.370 . S
C3336 C3338 1.363 . S
C3336 H3352 0.931 . S
C3337 C3336 1.370 . S
C3337 C3341 1.408 . S
C3338 C3336 1.363 . S
C3338 C3339 1.370 . S
C3338 C3342 1.524 . S
C3339 C3331 1.503 . S
C3339 C3338 1.370 . S
C3339 C3340 1.403 . S
C3340 C3339 1.403 . S
C3340 C3341 1.404 . S
C3340 C3343 1.539 . S
C3341 C3337 1.408 . S
C3341 C3340 1.404 . S
C3341 H3353 0.930 . S
C3342 C3338 1.524 . S
C3342 H3354 0.956 . S
C3342 H3355 0.961 . S
C3342 H3356 0.961 . S
C3343 C3340 1.539 . S
C3343 H3357 0.958 . S
C3343 H3358 0.961 . S
C3343 H3359 0.960 . S
H3344 C3328 0.931 . S
H3345 C3333 0.929 . S
H3346 C3334 0.960 . S
H3347 C3334 0.962 . S
H3348 C3334 0.960 . S
H3349 C3335 0.961 . S
H3350 C3335 0.961 . S
H3351 C3335 0.961 . S
H3352 C3336 0.931 . S
H3353 C3341 0.930 . S
H3354 C3342 0.956 . S
H3355 C3342 0.961 . S
H3356 C3342 0.961 . S
H3357 C3343 0.958 . S
H3358 C3343 0.961 . S
H3359 C3343 0.960 . S
C3360 C3361 1.391 . S
C3360 C3362 1.394 . S
C3360 H3376 0.931 . S
C3361 C3360 1.391 . S
C3361 C3365 1.376 . S
C3362 C3360 1.394 . S
C3362 C3363 1.369 . S
C3362 C3366 1.531 . S
C3363 C3362 1.369 . S
C3363 C3364 1.410 . S
C3363 C3371 1.503 . S
C3364 C3363 1.410 . S
C3364 C3365 1.392 . S
C3364 C3367 1.511 1_655 S
C3365 C3361 1.376 . S
C3365 C3364 1.392 . S
C3365 H3377 0.929 1_655 S
C3366 C3362 1.531 . S
C3366 H3378 0.960 . S
C3366 H3379 0.962 . S
C3366 H3380 0.960 . S
C3367 C3364 1.511 1_455 S
C3367 H3381 0.961 . S
C3367 H3382 0.961 . S
C3367 H3383 0.961 . S
C3368 C3369 1.370 . S
C3368 C3370 1.363 . S
C3368 H3384 0.931 . S
C3369 C3368 1.370 . S
C3369 C3373 1.408 . S
C3370 C3368 1.363 . S
C3370 C3371 1.370 . S
C3370 C3374 1.524 . S
C3371 C3363 1.503 . S
C3371 C3370 1.370 . S
C3371 C3372 1.403 . S
C3372 C3371 1.403 . S
C3372 C3373 1.404 . S
C3372 C3375 1.539 . S
C3373 C3369 1.408 . S
C3373 C3372 1.404 . S
C3373 H3385 0.930 . S
C3374 C3370 1.524 . S
C3374 H3386 0.956 . S
C3374 H3387 0.961 . S
C3374 H3388 0.961 . S
C3375 C3372 1.539 . S
C3375 H3389 0.958 . S
C3375 H3390 0.961 . S
C3375 H3391 0.960 . S
H3376 C3360 0.931 . S
H3377 C3365 0.929 1_455 S
H3378 C3366 0.960 . S
H3379 C3366 0.962 . S
H3380 C3366 0.960 . S
H3381 C3367 0.961 . S
H3382 C3367 0.961 . S
H3383 C3367 0.961 . S
H3384 C3368 0.931 . S
H3385 C3373 0.930 . S
H3386 C3374 0.956 . S
H3387 C3374 0.961 . S
H3388 C3374 0.961 . S
H3389 C3375 0.958 . S
H3390 C3375 0.961 . S
H3391 C3375 0.960 . S
C3392 C3393 1.391 . S
C3392 C3394 1.394 . S
C3392 H3408 0.931 . S
C3393 C3392 1.391 . S
C3393 C3397 1.376 . S
C3394 C3392 1.394 . S
C3394 C3395 1.369 . S
C3394 C3398 1.531 . S
C3395 C3394 1.369 . S
C3395 C3396 1.410 . S
C3395 C3403 1.503 1_554 S
C3396 C3395 1.410 . S
C3396 C3397 1.392 . S
C3396 C3399 1.511 . S
C3397 C3393 1.376 . S
C3397 C3396 1.392 . S
C3397 H3409 0.929 . S
C3398 C3394 1.531 . S
C3398 H3410 0.960 . S
C3398 H3411 0.962 . S
C3398 H3412 0.960 . S
C3399 C3396 1.511 . S
C3399 H3413 0.961 . S
C3399 H3414 0.961 1_554 S
C3399 H3415 0.961 . S
C3400 C3401 1.370 . S
C3400 C3402 1.363 . S
C3400 H3416 0.931 . S
C3401 C3400 1.370 . S
C3401 C3405 1.408 . S
C3402 C3400 1.363 . S
C3402 C3403 1.370 . S
C3402 C3406 1.524 . S
C3403 C3395 1.503 1_556 S
C3403 C3402 1.370 . S
C3403 C3404 1.403 . S
C3404 C3403 1.403 . S
C3404 C3405 1.404 . S
C3404 C3407 1.543 . S
C3405 C3401 1.408 . S
C3405 C3404 1.404 . S
C3405 H3417 0.930 . S
C3406 C3402 1.524 . S
C3406 H3418 0.956 . S
C3406 H3419 0.961 . S
C3406 H3420 0.961 . S
C3407 C3404 1.543 . S
C3407 H3421 0.956 1_556 S
C3407 H3422 0.963 . S
C3407 H3423 0.956 1_556 S
H3408 C3392 0.931 . S
H3409 C3397 0.929 . S
H3410 C3398 0.960 . S
H3411 C3398 0.962 . S
H3412 C3398 0.960 . S
H3413 C3399 0.961 . S
H3414 C3399 0.961 1_556 S
H3415 C3399 0.961 . S
H3416 C3400 0.931 . S
H3417 C3405 0.930 . S
H3418 C3406 0.956 . S
H3419 C3406 0.961 . S
H3420 C3406 0.961 . S
H3421 C3407 0.956 1_554 S
H3422 C3407 0.963 . S
H3423 C3407 0.956 1_554 S
C3424 C3425 1.391 . S
C3424 C3426 1.394 . S
C3424 H3440 0.931 . S
C3425 C3424 1.391 . S
C3425 C3429 1.376 . S
C3426 C3424 1.394 . S
C3426 C3427 1.369 . S
C3426 C3430 1.531 . S
C3427 C3426 1.369 . S
C3427 C3428 1.410 . S
C3427 C3435 1.503 . S
C3428 C3427 1.410 . S
C3428 C3429 1.392 . S
C3428 C3431 1.511 . S
C3429 C3425 1.376 . S
C3429 C3428 1.392 . S
C3429 H3441 0.929 . S
C3430 C3426 1.531 . S
C3430 H3442 0.960 . S
C3430 H3443 0.962 . S
C3430 H3444 0.960 . S
C3431 C3428 1.511 . S
C3431 H3445 0.961 . S
C3431 H3446 0.961 . S
C3431 H3447 0.961 . S
C3432 C3433 1.370 . S
C3432 C3434 1.363 . S
C3432 H3448 0.931 . S
C3433 C3432 1.370 . S
C3433 C3437 1.408 . S
C3434 C3432 1.363 . S
C3434 C3435 1.370 . S
C3434 C3438 1.524 . S
C3435 C3427 1.503 . S
C3435 C3434 1.370 . S
C3435 C3436 1.403 . S
C3436 C3435 1.403 . S
C3436 C3437 1.404 . S
C3436 C3439 1.539 . S
C3437 C3433 1.408 . S
C3437 C3436 1.404 . S
C3437 H3449 0.930 . S
C3438 C3434 1.524 . S
C3438 H3450 0.956 . S
C3438 H3451 0.961 . S
C3438 H3452 0.961 . S
C3439 C3436 1.539 . S
C3439 H3453 0.958 . S
C3439 H3454 0.961 . S
C3439 H3455 0.960 . S
H3440 C3424 0.931 . S
H3441 C3429 0.929 . S
H3442 C3430 0.960 . S
H3443 C3430 0.962 . S
H3444 C3430 0.960 . S
H3445 C3431 0.961 . S
H3446 C3431 0.961 . S
H3447 C3431 0.961 . S
H3448 C3432 0.931 . S
H3449 C3437 0.930 . S
H3450 C3438 0.956 . S
H3451 C3438 0.961 . S
H3452 C3438 0.961 . S
H3453 C3439 0.958 . S
H3454 C3439 0.961 . S
H3455 C3439 0.960 . S
C3456 C3457 1.391 . S
C3456 C3458 1.394 . S
C3456 H3472 0.931 . S
C3457 C3456 1.391 . S
C3457 C3461 1.376 . S
C3458 C3456 1.394 . S
C3458 C3459 1.369 . S
C3458 C3462 1.531 . S
C3459 C3458 1.369 . S
C3459 C3460 1.410 . S
C3459 C3467 1.503 . S
C3460 C3459 1.410 . S
C3460 C3461 1.392 . S
C3460 C3463 1.511 . S
C3461 C3457 1.376 . S
C3461 C3460 1.392 . S
C3461 H3473 0.929 . S
C3462 C3458 1.531 . S
C3462 H3474 0.960 . S
C3462 H3475 0.962 . S
C3462 H3476 0.960 . S
C3463 C3460 1.511 . S
C3463 H3477 0.961 . S
C3463 H3478 0.961 . S
C3463 H3479 0.961 . S
C3464 C3465 1.370 . S
C3464 C3466 1.363 . S
C3464 H3480 0.931 . S
C3465 C3464 1.370 . S
C3465 C3469 1.408 . S
C3466 C3464 1.363 . S
C3466 C3467 1.370 . S
C3466 C3470 1.524 . S
C3467 C3459 1.503 . S
C3467 C3466 1.370 . S
C3467 C3468 1.403 . S
C3468 C3467 1.403 . S
C3468 C3469 1.404 . S
C3468 C3471 1.539 . S
C3469 C3465 1.408 . S
C3469 C3468 1.404 . S
C3469 H3481 0.930 . S
C3470 C3466 1.524 . S
C3470 H3482 0.956 . S
C3470 H3483 0.961 . S
C3470 H3484 0.961 . S
C3471 C3468 1.539 . S
C3471 H3485 0.958 . S
C3471 H3486 0.961 . S
C3471 H3487 0.960 . S
H3472 C3456 0.931 . S
H3473 C3461 0.929 . S
H3474 C3462 0.960 . S
H3475 C3462 0.962 . S
H3476 C3462 0.960 . S
H3477 C3463 0.961 . S
H3478 C3463 0.961 . S
H3479 C3463 0.961 . S
H3480 C3464 0.931 . S
H3481 C3469 0.930 . S
H3482 C3470 0.956 . S
H3483 C3470 0.961 . S
H3484 C3470 0.961 . S
H3485 C3471 0.958 . S
H3486 C3471 0.961 . S
H3487 C3471 0.960 . S
C3488 C3489 1.391 . S
C3488 C3490 1.394 . S
C3488 H3504 0.931 . S
C3489 C3488 1.391 . S
C3489 C3493 1.376 . S
C3490 C3488 1.394 . S
C3490 C3491 1.369 . S
C3490 C3494 1.531 . S
C3491 C3490 1.369 . S
C3491 C3492 1.410 . S
C3491 C3499 1.503 . S
C3492 C3491 1.410 . S
C3492 C3493 1.392 . S
C3492 C3495 1.511 . S
C3493 C3489 1.376 . S
C3493 C3492 1.392 . S
C3493 H3505 0.929 . S
C3494 C3490 1.531 . S
C3494 H3506 0.960 . S
C3494 H3507 0.962 . S
C3494 H3508 0.960 . S
C3495 C3492 1.511 . S
C3495 H3509 0.961 . S
C3495 H3510 0.961 . S
C3495 H3511 0.961 . S
C3496 C3497 1.370 . S
C3496 C3498 1.363 . S
C3496 H3512 0.931 . S
C3497 C3496 1.370 . S
C3497 C3501 1.408 . S
C3498 C3496 1.363 . S
C3498 C3499 1.370 . S
C3498 C3502 1.524 . S
C3499 C3491 1.503 . S
C3499 C3498 1.370 . S
C3499 C3500 1.403 . S
C3500 C3499 1.403 . S
C3500 C3501 1.404 . S
C3500 C3503 1.539 . S
C3501 C3497 1.408 . S
C3501 C3500 1.404 . S
C3501 H3513 0.930 . S
C3502 C3498 1.524 . S
C3502 H3514 0.956 . S
C3502 H3515 0.961 . S
C3502 H3516 0.961 . S
C3503 C3500 1.539 . S
C3503 H3517 0.958 . S
C3503 H3518 0.961 . S
C3503 H3519 0.960 . S
H3504 C3488 0.931 . S
H3505 C3493 0.929 . S
H3506 C3494 0.960 . S
H3507 C3494 0.962 . S
H3508 C3494 0.960 . S
H3509 C3495 0.961 . S
H3510 C3495 0.961 . S
H3511 C3495 0.961 . S
H3512 C3496 0.931 . S
H3513 C3501 0.930 . S
H3514 C3502 0.956 . S
H3515 C3502 0.961 . S
H3516 C3502 0.961 . S
H3517 C3503 0.958 . S
H3518 C3503 0.961 . S
H3519 C3503 0.960 . S
C3520 C3521 1.391 . S
C3520 C3522 1.394 . S
C3520 H3536 0.931 . S
C3521 C3520 1.391 . S
C3521 C3525 1.376 . S
C3522 C3520 1.394 . S
C3522 C3523 1.369 . S
C3522 C3526 1.531 . S
C3523 C3522 1.369 . S
C3523 C3524 1.410 . S
C3523 C3531 1.503 . S
C3524 C3523 1.410 . S
C3524 C3525 1.392 . S
C3524 C3527 1.511 . S
C3525 C3521 1.376 . S
C3525 C3524 1.392 . S
C3525 H3537 0.929 . S
C3526 C3522 1.531 . S
C3526 H3538 0.960 . S
C3526 H3539 0.962 . S
C3526 H3540 0.960 . S
C3527 C3524 1.511 . S
C3527 H3541 0.961 . S
C3527 H3542 0.961 . S
C3527 H3543 0.961 . S
C3528 C3529 1.370 . S
C3528 C3530 1.363 . S
C3528 H3544 0.931 . S
C3529 C3528 1.370 . S
C3529 C3533 1.408 . S
C3530 C3528 1.363 . S
C3530 C3531 1.370 . S
C3530 C3534 1.524 . S
C3531 C3523 1.503 . S
C3531 C3530 1.370 . S
C3531 C3532 1.403 . S
C3532 C3531 1.403 . S
C3532 C3533 1.404 . S
C3532 C3535 1.539 . S
C3533 C3529 1.408 . S
C3533 C3532 1.404 . S
C3533 H3545 0.930 . S
C3534 C3530 1.524 . S
C3534 H3546 0.956 . S
C3534 H3547 0.961 . S
C3534 H3548 0.961 . S
C3535 C3532 1.539 . S
C3535 H3549 0.958 . S
C3535 H3550 0.961 . S
C3535 H3551 0.960 . S
H3536 C3520 0.931 . S
H3537 C3525 0.929 . S
H3538 C3526 0.960 . S
H3539 C3526 0.962 . S
H3540 C3526 0.960 . S
H3541 C3527 0.961 . S
H3542 C3527 0.961 . S
H3543 C3527 0.961 . S
H3544 C3528 0.931 . S
H3545 C3533 0.930 . S
H3546 C3534 0.956 . S
H3547 C3534 0.961 . S
H3548 C3534 0.961 . S
H3549 C3535 0.958 . S
H3550 C3535 0.961 . S
H3551 C3535 0.960 . S
C3552 C3553 1.391 . S
C3552 C3554 1.394 . S
C3552 H3568 0.931 . S
C3553 C3552 1.391 . S
C3553 C3557 1.376 . S
C3554 C3552 1.394 . S
C3554 C3555 1.369 . S
C3554 C3558 1.531 . S
C3555 C3554 1.369 . S
C3555 C3556 1.410 . S
C3555 C3563 1.503 . S
C3556 C3555 1.410 . S
C3556 C3557 1.392 . S
C3556 C3559 1.511 . S
C3557 C3553 1.376 . S
C3557 C3556 1.392 . S
C3557 H3569 0.929 . S
C3558 C3554 1.531 . S
C3558 H3570 0.960 . S
C3558 H3571 0.962 . S
C3558 H3572 0.960 . S
C3559 C3556 1.511 . S
C3559 H3573 0.961 . S
C3559 H3574 0.961 . S
C3559 H3575 0.961 . S
C3560 C3561 1.370 . S
C3560 C3562 1.363 . S
C3560 H3576 0.931 . S
C3561 C3560 1.370 . S
C3561 C3565 1.408 . S
C3562 C3560 1.363 . S
C3562 C3563 1.370 . S
C3562 C3566 1.524 . S
C3563 C3555 1.503 . S
C3563 C3562 1.370 . S
C3563 C3564 1.403 . S
C3564 C3563 1.403 . S
C3564 C3565 1.404 . S
C3564 C3567 1.539 . S
C3565 C3561 1.408 . S
C3565 C3564 1.404 . S
C3565 H3577 0.930 . S
C3566 C3562 1.524 . S
C3566 H3578 0.956 . S
C3566 H3579 0.961 . S
C3566 H3580 0.961 . S
C3567 C3564 1.539 . S
C3567 H3581 0.958 . S
C3567 H3582 0.961 . S
C3567 H3583 0.960 . S
H3568 C3552 0.931 . S
H3569 C3557 0.929 . S
H3570 C3558 0.960 . S
H3571 C3558 0.962 . S
H3572 C3558 0.960 . S
H3573 C3559 0.961 . S
H3574 C3559 0.961 . S
H3575 C3559 0.961 . S
H3576 C3560 0.931 . S
H3577 C3565 0.930 . S
H3578 C3566 0.956 . S
H3579 C3566 0.961 . S
H3580 C3566 0.961 . S
H3581 C3567 0.958 . S
H3582 C3567 0.961 . S
H3583 C3567 0.960 . S
C3584 C3585 1.391 1_545 S
C3584 C3586 1.394 . S
C3584 H3600 0.931 . S
C3585 C3584 1.391 1_565 S
C3585 C3589 1.376 . S
C3586 C3584 1.394 . S
C3586 C3587 1.369 1_545 S
C3586 C3590 1.531 . S
C3587 C3586 1.369 1_565 S
C3587 C3588 1.410 . S
C3587 C3595 1.507 . S
C3588 C3587 1.410 . S
C3588 C3589 1.392 . S
C3588 C3591 1.511 . S
C3589 C3585 1.376 . S
C3589 C3588 1.392 . S
C3589 H3601 0.929 . S
C3590 C3586 1.531 . S
C3590 H3602 0.960 . S
C3590 H3603 0.962 . S
C3590 H3604 0.960 . S
C3591 C3588 1.511 . S
C3591 H3605 0.961 . S
C3591 H3606 0.961 . S
C3591 H3607 0.961 . S
C3592 C3593 1.370 . S
C3592 C3594 1.363 . S
C3592 H3608 0.931 . S
C3593 C3592 1.370 . S
C3593 C3597 1.408 1_545 S
C3594 C3592 1.363 . S
C3594 C3595 1.357 1_545 S
C3594 C3598 1.524 . S
C3595 C3587 1.507 . S
C3595 C3594 1.357 1_565 S
C3595 C3596 1.412 . S
C3596 C3595 1.412 . S
C3596 C3597 1.404 . S
C3596 C3599 1.539 . S
C3597 C3593 1.408 1_565 S
C3597 C3596 1.404 . S
C3597 H3609 0.930 . S
C3598 C3594 1.524 . S
C3598 H3610 0.956 . S
C3598 H3611 0.961 . S
C3598 H3612 0.961 . S
C3599 C3596 1.539 . S
C3599 H3613 0.958 . S
C3599 H3614 0.961 . S
C3599 H3615 0.960 . S
H3600 C3584 0.931 . S
H3601 C3589 0.929 . S
H3602 C3590 0.960 . S
H3603 C3590 0.962 . S
H3604 C3590 0.960 . S
H3605 C3591 0.961 . S
H3606 C3591 0.961 . S
H3607 C3591 0.961 . S
H3608 C3592 0.931 . S
H3609 C3597 0.930 . S
H3610 C3598 0.956 . S
H3611 C3598 0.961 . S
H3612 C3598 0.961 . S
H3613 C3599 0.958 . S
H3614 C3599 0.961 . S
H3615 C3599 0.960 . S
C3616 C3617 1.391 . S
C3616 C3618 1.394 . S
C3616 H3632 0.931 . S
C3617 C3616 1.391 . S
C3617 C3621 1.376 . S
C3618 C3616 1.394 . S
C3618 C3619 1.369 . S
C3618 C3622 1.531 . S
C3619 C3618 1.369 . S
C3619 C3620 1.410 . S
C3619 C3627 1.503 1_455 S
C3620 C3619 1.410 . S
C3620 C3621 1.392 . S
C3620 C3623 1.511 1_455 S
C3621 C3617 1.376 . S
C3621 C3620 1.392 . S
C3621 H3633 0.929 . S
C3622 C3618 1.531 . S
C3622 H3634 0.960 . S
C3622 H3635 0.962 . S
C3622 H3636 0.960 . S
C3623 C3620 1.511 1_655 S
C3623 H3637 0.965 . S
C3623 H3638 0.961 . S
C3623 H3639 0.961 . S
C3624 C3625 1.370 . S
C3624 C3626 1.363 . S
C3624 H3640 0.931 . S
C3625 C3624 1.370 . S
C3625 C3629 1.408 . S
C3626 C3624 1.363 . S
C3626 C3627 1.370 . S
C3626 C3630 1.524 . S
C3627 C3619 1.503 1_655 S
C3627 C3626 1.370 . S
C3627 C3628 1.403 . S
C3628 C3627 1.403 . S
C3628 C3629 1.404 . S
C3628 C3631 1.539 . S
C3629 C3625 1.408 . S
C3629 C3628 1.404 . S
C3629 H3641 0.930 . S
C3630 C3626 1.524 . S
C3630 H3642 0.956 1_655 S
C3630 H3643 0.961 . S
C3630 H3644 0.961 . S
C3631 C3628 1.539 . S
C3631 H3645 0.958 . S
C3631 H3646 0.961 . S
C3631 H3647 0.977 . S
H3632 C3616 0.931 . S
H3633 C3621 0.929 . S
H3634 C3622 0.960 . S
H3635 C3622 0.962 . S
H3636 C3622 0.960 . S
H3637 C3623 0.965 . S
H3638 C3623 0.961 . S
H3639 C3623 0.961 . S
H3640 C3624 0.931 . S
H3641 C3629 0.930 . S
H3642 C3630 0.956 1_455 S
H3643 C3630 0.961 . S
H3644 C3630 0.961 . S
H3645 C3631 0.958 . S
H3646 C3631 0.961 . S
H3647 C3631 0.977 . S
C3648 C3649 1.391 . S
C3648 C3650 1.394 . S
C3648 H3664 0.931 . S
C3649 C3648 1.391 . S
C3649 C3653 1.376 . S
C3650 C3648 1.394 . S
C3650 C3651 1.369 . S
C3650 C3654 1.531 . S
C3651 C3650 1.369 . S
C3651 C3652 1.410 1_545 S
C3651 C3659 1.503 1_445 S
C3652 C3651 1.410 1_565 S
C3652 C3653 1.392 1_565 S
C3652 C3655 1.511 . S
C3653 C3649 1.376 . S
C3653 C3652 1.392 1_545 S
C3653 H3665 0.935 . S
C3654 C3650 1.531 . S
C3654 H3666 0.960 1_455 S
C3654 H3667 0.962 1_455 S
C3654 H3668 0.960 . S
C3655 C3652 1.511 . S
C3655 H3669 0.961 . S
C3655 H3670 0.961 . S
C3655 H3671 0.961 . S
C3656 C3657 1.370 . S
C3656 C3658 1.363 1_565 S
C3656 H3672 0.931 1_565 S
C3657 C3656 1.370 . S
C3657 C3661 1.408 . S
C3658 C3656 1.363 1_545 S
C3658 C3659 1.370 1_545 S
C3658 C3662 1.524 . S
C3659 C3651 1.503 1_665 S
C3659 C3658 1.370 1_565 S
C3659 C3660 1.403 . S
C3660 C3659 1.403 . S
C3660 C3661 1.404 . S
C3660 C3663 1.523 1_655 S
C3661 C3657 1.408 . S
C3661 C3660 1.404 . S
C3661 H3673 0.930 . S
C3662 C3658 1.524 . S
C3662 H3674 0.956 . S
C3662 H3675 0.961 . S
C3662 H3676 0.961 . S
C3663 C3660 1.523 1_455 S
C3663 H3677 0.958 . S
C3663 H3678 0.957 1_455 S
C3663 H3679 0.981 . S
H3664 C3648 0.931 . S
H3665 C3653 0.935 . S
H3666 C3654 0.960 1_655 S
H3667 C3654 0.962 1_655 S
H3668 C3654 0.960 . S
H3669 C3655 0.961 . S
H3670 C3655 0.961 . S
H3671 C3655 0.961 . S
H3672 C3656 0.931 1_545 S
H3673 C3661 0.930 . S
H3674 C3662 0.956 . S
H3675 C3662 0.961 . S
H3676 C3662 0.961 . S
H3677 C3663 0.958 . S
H3678 C3663 0.957 1_655 S
H3679 C3663 0.981 . S
C3680 C3681 1.391 . S
C3680 C3682 1.394 . S
C3680 H3696 0.931 . S
C3681 C3680 1.391 . S
C3681 C3685 1.376 . S
C3682 C3680 1.394 . S
C3682 C3683 1.369 . S
C3682 C3686 1.531 . S
C3683 C3682 1.369 . S
C3683 C3684 1.410 . S
C3683 C3691 1.503 1_556 S
C3684 C3683 1.410 . S
C3684 C3685 1.392 . S
C3684 C3687 1.511 . S
C3685 C3681 1.376 . S
C3685 C3684 1.392 . S
C3685 H3697 0.929 . S
C3686 C3682 1.531 . S
C3686 H3698 0.960 . S
C3686 H3699 0.962 1_655 S
C3686 H3700 0.962 1_655 S
C3687 C3684 1.511 . S
C3687 H3701 0.961 . S
C3687 H3702 0.961 1_556 S
C3687 H3703 0.961 . S
C3688 C3689 1.370 . S
C3688 C3690 1.363 . S
C3688 H3704 0.931 . S
C3689 C3688 1.370 . S
C3689 C3693 1.408 . S
C3690 C3688 1.363 . S
C3690 C3691 1.370 . S
C3690 C3694 1.524 . S
C3691 C3683 1.503 1_554 S
C3691 C3690 1.370 . S
C3691 C3692 1.403 . S
C3692 C3691 1.403 . S
C3692 C3693 1.404 . S
C3692 C3695 1.539 1_554 S
C3693 C3689 1.408 . S
C3693 C3692 1.404 . S
C3693 H3705 0.930 . S
C3694 C3690 1.524 . S
C3694 H3706 0.956 . S
C3694 H3707 0.961 . S
C3694 H3708 0.961 . S
C3695 C3692 1.539 1_556 S
C3695 H3709 0.958 . S
C3695 H3710 0.961 . S
C3695 H3711 0.960 . S
H3696 C3680 0.931 . S
H3697 C3685 0.929 . S
H3698 C3686 0.960 . S
H3699 C3686 0.962 1_455 S
H3700 C3686 0.962 1_455 S
H3701 C3687 0.961 . S
H3702 C3687 0.961 1_554 S
H3703 C3687 0.961 . S
H3704 C3688 0.931 . S
H3705 C3693 0.930 . S
H3706 C3694 0.956 . S
H3707 C3694 0.961 . S
H3708 C3694 0.961 . S
H3709 C3695 0.958 . S
H3710 C3695 0.961 . S
H3711 C3695 0.960 . S
C3712 C3713 1.391 . S
C3712 C3714 1.394 . S
C3712 H3728 0.931 . S
C3713 C3712 1.391 . S
C3713 C3717 1.376 . S
C3714 C3712 1.394 . S
C3714 C3715 1.369 . S
C3714 C3718 1.531 . S
C3715 C3714 1.369 . S
C3715 C3716 1.410 . S
C3715 C3723 1.503 . S
C3716 C3715 1.410 . S
C3716 C3717 1.392 . S
C3716 C3719 1.511 . S
C3717 C3713 1.376 . S
C3717 C3716 1.392 . S
C3717 H3729 0.929 . S
C3718 C3714 1.531 . S
C3718 H3730 0.960 . S
C3718 H3731 0.962 . S
C3718 H3732 0.960 . S
C3719 C3716 1.511 . S
C3719 H3733 0.946 1_455 S
C3719 H3734 0.961 . S
C3719 H3735 0.961 1_455 S
C3720 C3721 1.370 . S
C3720 C3722 1.363 . S
C3720 H3736 0.931 . S
C3721 C3720 1.370 . S
C3721 C3725 1.408 . S
C3722 C3720 1.363 . S
C3722 C3723 1.370 . S
C3722 C3726 1.524 . S
C3723 C3715 1.503 . S
C3723 C3722 1.370 . S
C3723 C3724 1.403 . S
C3724 C3723 1.403 . S
C3724 C3725 1.404 . S
C3724 C3727 1.539 . S
C3725 C3721 1.408 . S
C3725 C3724 1.404 . S
C3725 H3737 0.930 . S
C3726 C3722 1.524 . S
C3726 H3738 0.956 . S
C3726 H3739 0.961 . S
C3726 H3740 0.961 . S
C3727 C3724 1.539 . S
C3727 H3741 0.958 . S
C3727 H3742 0.961 . S
C3727 H3743 0.960 . S
H3728 C3712 0.931 . S
H3729 C3717 0.929 . S
H3730 C3718 0.960 . S
H3731 C3718 0.962 . S
H3732 C3718 0.960 . S
H3733 C3719 0.946 1_655 S
H3734 C3719 0.961 . S
H3735 C3719 0.961 1_655 S
H3736 C3720 0.931 . S
H3737 C3725 0.930 . S
H3738 C3726 0.956 . S
H3739 C3726 0.961 . S
H3740 C3726 0.961 . S
H3741 C3727 0.958 . S
H3742 C3727 0.961 . S
H3743 C3727 0.960 . S
C673 C385 1.026 . S
C681 C7 1.065 . S
C705 C21 0.419 . S
C713 C541 0.484 . S
C737 C35 0.728 . S
C745 C357 0.707 . S
C769 C569 1.075 . S
C777 C49 1.123 . S
C801 C399 0.552 . S
C809 C65 0.599 . S
C833 C77 1.016 . S
C841 C315 1.061 . S
C865 C427 0.924 . S
C873 C93 0.890 . S
C897 C105 0.687 . S
C905 C287 0.691 . S
C929 C499 0.806 . S
C937 C107 0.891 . S
C961 C469 0.488 . S
C969 C63 0.444 . S
C993 C79 0.653 . S
C1001 C597 0.638 . S
C1025 C483 0.568 . S
C1033 C91 0.594 . S
C1057 C121 0.778 . S
C1065 C191 0.722 . S
C1089 C203 0.558 . S
C1097 C135 0.371 . S
C1121 C219 0.832 . S
C1129 C149 0.777 . S
C1153 C175 0.709 . S
C1161 C163 0.709 . S
C1185 C189 0.561 . S
C1193 C343 0.592 . S
C1217 C205 0.402 . S
C1225 C555 0.348 . S
C1249 C371 0.283 . S
C1257 C217 0.379 . S
C1281 C387 0.679 . S
C1289 C233 0.603 . S
C1313 C245 0.798 . S
C1321 C415 0.776 . S
C1345 C261 0.367 . S
C1353 C51 0.388 . S
C1377 C275 1.098 . S
C1385 C23 1.143 . S
C1409 C625 1.074 . S
C1417 C301 1.122 . S
C1441 C653 0.490 . S
C1449 C329 0.461 . S
C1473 C345 0.815 . S
C1481 C119 0.880 . S
C1505 C373 0.570 . S
C1513 C147 0.616 . S
C1537 C359 0.825 . S
C1545 C611 0.901 . S
C1569 C471 0.743 . S
C1577 C401 0.793 . S
C1601 C485 0.664 . S
C1609 C429 0.744 . S
C1633 C455 0.359 . S
C1641 C443 0.357 . S
C1665 C247 0.989 . S
C1673 C639 1.060 . S
C1697 C513 1.078 . S
C1705 C331 1.122 . S
C1729 C303 0.382 . S
C1737 C527 0.494 . S
C1761 C665 1.324 . S
C1769 C441 1.361 . S
C1793 C413 0.462 . S
C1801 C637 0.356 . S
C1825 C133 1.419 . S
C1833 C553 1.385 . S
C1857 C161 0.535 . S
C1865 C581 0.377 . S
C1889 C177 1.074 . S
C1897 C583 1.042 . S
C1921 C273 0.643 . S
C1929 C539 0.627 . S
C1953 C259 0.712 . S
C1961 C567 0.686 . S
C1985 C317 0.697 . S
C1993 C595 0.659 . S
C2017 C289 0.508 . S
C2025 C497 0.512 . S
C2049 C623 0.649 . S
C2057 C525 0.635 . S
C2081 C651 0.660 . S
C2089 C511 0.631 . S
C2113 C667 0.389 . S
C2121 C457 0.405 . S
C2145 C609 0.355 . S
C2153 C37 0.364 . S
C2177 C231 0.638 . S
C2185 C9 0.629 . S
C2209 C8 1.876 . S
C2217 C647 2.007 . S
C2241 C22 1.662 . S
C2249 C666 1.707 . S
C2273 C36 1.474 . S
C2281 C619 1.423 1_565 S
C2305 C50 2.071 . S
C2313 C638 2.000 . S
C2337 C59 1.654 . S
C2345 C134 1.564 . S
C2369 C78 1.485 . S
C2377 C148 1.318 . S
C2401 C87 1.662 . S
C2409 C162 1.775 . S
C2433 C106 1.920 . S
C2441 C120 2.098 . S
C2465 C101 2.103 . S
C2473 C549 1.925 . S
C2497 C64 1.717 . S
C2505 C372 1.737 . S
C2529 C73 1.345 . S
C2537 C577 1.401 1_554 S
C2561 C92 1.873 . S
C2569 C344 1.905 . S
C2593 C115 1.058 . S
C2601 C325 1.110 . S
C2625 C129 2.318 . S
C2633 C437 2.305 . S
C2657 C143 1.464 . S
C2665 C297 1.228 . S
C2689 C409 1.419 . S
C2697 C157 1.438 . S
C2721 C176 2.095 . S
C2729 C274 2.118 . S
C2753 C190 1.467 . S
C2761 C232 1.498 . S
C2785 C269 1.708 . S
C2793 C199 1.841 . S
C2817 C610 2.302 . S
C2825 C218 2.322 . S
C2849 C213 1.939 . S
C2857 C227 2.074 . S
C2881 C512 2.140 . S
C2889 C246 2.134 . S
C2913 C171 1.650 . S
C2921 C255 1.729 . S
C2945 C563 1.408 1_545 S
C2953 C288 1.481 . S
C2977 C582 1.967 . S
C2985 C302 2.057 . S
C3009 C316 1.877 . S
C3017 C535 2.004 . S
C3041 C554 1.676 . S
C3049 C330 1.631 . S
C3073 C339 1.619 . S
C3081 C414 1.786 . S
C3105 C428 2.075 . S
C3113 C358 1.903 . S
C3137 C367 1.648 . S
C3145 C442 1.554 . S
C3169 C400 1.274 . S
C3177 C386 1.470 . S
C3201 C381 1.356 . S
C3209 C633 1.412 1_554 S
C3233 C661 1.901 . S
C3241 C353 2.112 . S
C3265 C395 1.422 . S
C3273 C45 1.276 . S
C3297 C17 1.095 . S
C3305 C423 1.068 . S
C3329 C526 1.437 . S
C3337 C456 1.416 . S
C3361 C498 2.310 . S
C3369 C470 2.327 . S
C3393 C241 1.661 . S
C3401 C521 1.726 . S
C3425 C484 1.511 . S
C3433 C596 1.487 . S
C3457 C493 1.769 . S
C3465 C479 1.838 . S
C3489 C204 1.443 . S
C3497 C260 1.412 . S
C3521 C451 1.845 . S
C3529 C507 1.735 . S
C3553 C652 1.504 . S
C3561 C540 1.514 . S
C3585 C568 1.870 . S
C3593 C624 1.864 . S
C3617 C3 2.044 . S
C3625 C311 2.063 . S
C3649 C283 1.964 . S
C3657 C31 1.945 . S
C3681 C465 1.960 . S
C3689 C591 2.064 . S
C3713 C185 1.862 . S
C3721 C605 1.722 . S
