# Generated by pormake.
# Topology yft, (5)-cn, num edge types: 1
# Building blocks:
#     Node 0, Type 0, BuildingBlock: BEQFEK_clean_sbu_0, # of connection points: 5
#     Node 1, Type 0, BuildingBlock: BEQFEK_clean_sbu_0, # of connection points: 5
#     Node 2, Type 0, BuildingBlock: BEQFEK_clean_sbu_0, # of connection points: 5
#     Node 3, Type 0, BuildingBlock: BEQFEK_clean_sbu_0, # of connection points: 5
#     Node 4, Type 0, BuildingBlock: BEQFEK_clean_sbu_0, # of connection points: 5
#     Node 5, Type 0, BuildingBlock: BEQFEK_clean_sbu_0, # of connection points: 5
#     Node 6, Type 0, BuildingBlock: BEQFEK_clean_sbu_0, # of connection points: 5
#     Node 7, Type 0, BuildingBlock: BEQFEK_clean_sbu_0, # of connection points: 5
#     Node 8, Type 0, BuildingBlock: BEQFEK_clean_sbu_0, # of connection points: 5
#     Node 9, Type 0, BuildingBlock: BEQFEK_clean_sbu_0, # of connection points: 5
#     Node 10, Type 0, BuildingBlock: BEQFEK_clean_sbu_0, # of connection points: 5
#     Node 11, Type 0, BuildingBlock: BEQFEK_clean_sbu_0, # of connection points: 5
#     Node 12, Type 0, BuildingBlock: BEQFEK_clean_sbu_0, # of connection points: 5
#     Node 13, Type 0, BuildingBlock: BEQFEK_clean_sbu_0, # of connection points: 5
#     Node 14, Type 0, BuildingBlock: BEQFEK_clean_sbu_0, # of connection points: 5
#     Node 15, Type 0, BuildingBlock: BEQFEK_clean_sbu_0, # of connection points: 5
#     Node 16, Type 0, BuildingBlock: BEQFEK_clean_sbu_0, # of connection points: 5
#     Node 17, Type 0, BuildingBlock: BEQFEK_clean_sbu_0, # of connection points: 5
#     Node 18, Type 0, BuildingBlock: BEQFEK_clean_sbu_0, # of connection points: 5
#     Node 19, Type 0, BuildingBlock: BEQFEK_clean_sbu_0, # of connection points: 5
#     Node 20, Type 0, BuildingBlock: BEQFEK_clean_sbu_0, # of connection points: 5
#     Node 21, Type 0, BuildingBlock: BEQFEK_clean_sbu_0, # of connection points: 5
#     Node 22, Type 0, BuildingBlock: BEQFEK_clean_sbu_0, # of connection points: 5
#     Node 23, Type 0, BuildingBlock: BEQFEK_clean_sbu_0, # of connection points: 5
#     Node 24, Type 0, BuildingBlock: BEQFEK_clean_sbu_0, # of connection points: 5
#     Node 25, Type 0, BuildingBlock: BEQFEK_clean_sbu_0, # of connection points: 5
#     Node 26, Type 0, BuildingBlock: BEQFEK_clean_sbu_0, # of connection points: 5
#     Node 27, Type 0, BuildingBlock: BEQFEK_clean_sbu_0, # of connection points: 5
#     Node 28, Type 0, BuildingBlock: BEQFEK_clean_sbu_0, # of connection points: 5
#     Node 29, Type 0, BuildingBlock: BEQFEK_clean_sbu_0, # of connection points: 5
#     Node 30, Type 0, BuildingBlock: BEQFEK_clean_sbu_0, # of connection points: 5
#     Node 31, Type 0, BuildingBlock: BEQFEK_clean_sbu_0, # of connection points: 5
#     Edge 32, Type (0, 0), BuildingBlock: OJICUG_clean_linker_0, # of connection points: 2
#     Edge 33, Type (0, 0), BuildingBlock: OJICUG_clean_linker_0, # of connection points: 2
#     Edge 34, Type (0, 0), BuildingBlock: OJICUG_clean_linker_0, # of connection points: 2
#     Edge 35, Type (0, 0), BuildingBlock: OJICUG_clean_linker_0, # of connection points: 2
#     Edge 36, Type (0, 0), BuildingBlock: OJICUG_clean_linker_0, # of connection points: 2
#     Edge 37, Type (0, 0), BuildingBlock: OJICUG_clean_linker_0, # of connection points: 2
#     Edge 38, Type (0, 0), BuildingBlock: OJICUG_clean_linker_0, # of connection points: 2
#     Edge 39, Type (0, 0), BuildingBlock: OJICUG_clean_linker_0, # of connection points: 2
#     Edge 40, Type (0, 0), BuildingBlock: OJICUG_clean_linker_0, # of connection points: 2
#     Edge 41, Type (0, 0), BuildingBlock: OJICUG_clean_linker_0, # of connection points: 2
#     Edge 42, Type (0, 0), BuildingBlock: OJICUG_clean_linker_0, # of connection points: 2
#     Edge 43, Type (0, 0), BuildingBlock: OJICUG_clean_linker_0, # of connection points: 2
#     Edge 44, Type (0, 0), BuildingBlock: OJICUG_clean_linker_0, # of connection points: 2
#     Edge 45, Type (0, 0), BuildingBlock: OJICUG_clean_linker_0, # of connection points: 2
#     Edge 46, Type (0, 0), BuildingBlock: OJICUG_clean_linker_0, # of connection points: 2
#     Edge 47, Type (0, 0), BuildingBlock: OJICUG_clean_linker_0, # of connection points: 2
#     Edge 48, Type (0, 0), BuildingBlock: OJICUG_clean_linker_0, # of connection points: 2
#     Edge 49, Type (0, 0), BuildingBlock: OJICUG_clean_linker_0, # of connection points: 2
#     Edge 50, Type (0, 0), BuildingBlock: OJICUG_clean_linker_0, # of connection points: 2
#     Edge 51, Type (0, 0), BuildingBlock: OJICUG_clean_linker_0, # of connection points: 2
#     Edge 52, Type (0, 0), BuildingBlock: OJICUG_clean_linker_0, # of connection points: 2
#     Edge 53, Type (0, 0), BuildingBlock: OJICUG_clean_linker_0, # of connection points: 2
#     Edge 54, Type (0, 0), BuildingBlock: OJICUG_clean_linker_0, # of connection points: 2
#     Edge 55, Type (0, 0), BuildingBlock: OJICUG_clean_linker_0, # of connection points: 2
#     Edge 56, Type (0, 0), BuildingBlock: OJICUG_clean_linker_0, # of connection points: 2
#     Edge 57, Type (0, 0), BuildingBlock: OJICUG_clean_linker_0, # of connection points: 2
#     Edge 58, Type (0, 0), BuildingBlock: OJICUG_clean_linker_0, # of connection points: 2
#     Edge 59, Type (0, 0), BuildingBlock: OJICUG_clean_linker_0, # of connection points: 2
#     Edge 60, Type (0, 0), BuildingBlock: OJICUG_clean_linker_0, # of connection points: 2
#     Edge 61, Type (0, 0), BuildingBlock: OJICUG_clean_linker_0, # of connection points: 2
#     Edge 62, Type (0, 0), BuildingBlock: OJICUG_clean_linker_0, # of connection points: 2
#     Edge 63, Type (0, 0), BuildingBlock: OJICUG_clean_linker_0, # of connection points: 2
#     Edge 64, Type (0, 0), BuildingBlock: OJICUG_clean_linker_0, # of connection points: 2
#     Edge 65, Type (0, 0), BuildingBlock: OJICUG_clean_linker_0, # of connection points: 2
#     Edge 66, Type (0, 0), BuildingBlock: OJICUG_clean_linker_0, # of connection points: 2
#     Edge 67, Type (0, 0), BuildingBlock: OJICUG_clean_linker_0, # of connection points: 2
#     Edge 68, Type (0, 0), BuildingBlock: OJICUG_clean_linker_0, # of connection points: 2
#     Edge 69, Type (0, 0), BuildingBlock: OJICUG_clean_linker_0, # of connection points: 2
#     Edge 70, Type (0, 0), BuildingBlock: OJICUG_clean_linker_0, # of connection points: 2
#     Edge 71, Type (0, 0), BuildingBlock: OJICUG_clean_linker_0, # of connection points: 2
#     Edge 72, Type (0, 0), BuildingBlock: OJICUG_clean_linker_0, # of connection points: 2
#     Edge 73, Type (0, 0), BuildingBlock: OJICUG_clean_linker_0, # of connection points: 2
#     Edge 74, Type (0, 0), BuildingBlock: OJICUG_clean_linker_0, # of connection points: 2
#     Edge 75, Type (0, 0), BuildingBlock: OJICUG_clean_linker_0, # of connection points: 2
#     Edge 76, Type (0, 0), BuildingBlock: OJICUG_clean_linker_0, # of connection points: 2
#     Edge 77, Type (0, 0), BuildingBlock: OJICUG_clean_linker_0, # of connection points: 2
#     Edge 78, Type (0, 0), BuildingBlock: OJICUG_clean_linker_0, # of connection points: 2
#     Edge 79, Type (0, 0), BuildingBlock: OJICUG_clean_linker_0, # of connection points: 2
#     Edge 80, Type (0, 0), BuildingBlock: OJICUG_clean_linker_0, # of connection points: 2
#     Edge 81, Type (0, 0), BuildingBlock: OJICUG_clean_linker_0, # of connection points: 2
#     Edge 82, Type (0, 0), BuildingBlock: OJICUG_clean_linker_0, # of connection points: 2
#     Edge 83, Type (0, 0), BuildingBlock: OJICUG_clean_linker_0, # of connection points: 2
#     Edge 84, Type (0, 0), BuildingBlock: OJICUG_clean_linker_0, # of connection points: 2
#     Edge 85, Type (0, 0), BuildingBlock: OJICUG_clean_linker_0, # of connection points: 2
#     Edge 86, Type (0, 0), BuildingBlock: OJICUG_clean_linker_0, # of connection points: 2
#     Edge 87, Type (0, 0), BuildingBlock: OJICUG_clean_linker_0, # of connection points: 2
#     Edge 88, Type (0, 0), BuildingBlock: OJICUG_clean_linker_0, # of connection points: 2
#     Edge 89, Type (0, 0), BuildingBlock: OJICUG_clean_linker_0, # of connection points: 2
#     Edge 90, Type (0, 0), BuildingBlock: OJICUG_clean_linker_0, # of connection points: 2
#     Edge 91, Type (0, 0), BuildingBlock: OJICUG_clean_linker_0, # of connection points: 2
#     Edge 92, Type (0, 0), BuildingBlock: OJICUG_clean_linker_0, # of connection points: 2
#     Edge 93, Type (0, 0), BuildingBlock: OJICUG_clean_linker_0, # of connection points: 2
#     Edge 94, Type (0, 0), BuildingBlock: OJICUG_clean_linker_0, # of connection points: 2
#     Edge 95, Type (0, 0), BuildingBlock: OJICUG_clean_linker_0, # of connection points: 2
#     Edge 96, Type (0, 0), BuildingBlock: OJICUG_clean_linker_0, # of connection points: 2
#     Edge 97, Type (0, 0), BuildingBlock: OJICUG_clean_linker_0, # of connection points: 2
#     Edge 98, Type (0, 0), BuildingBlock: OJICUG_clean_linker_0, # of connection points: 2
#     Edge 99, Type (0, 0), BuildingBlock: OJICUG_clean_linker_0, # of connection points: 2
#     Edge 100, Type (0, 0), BuildingBlock: OJICUG_clean_linker_0, # of connection points: 2
#     Edge 101, Type (0, 0), BuildingBlock: OJICUG_clean_linker_0, # of connection points: 2
#     Edge 102, Type (0, 0), BuildingBlock: OJICUG_clean_linker_0, # of connection points: 2
#     Edge 103, Type (0, 0), BuildingBlock: OJICUG_clean_linker_0, # of connection points: 2
#     Edge 104, Type (0, 0), BuildingBlock: OJICUG_clean_linker_0, # of connection points: 2
#     Edge 105, Type (0, 0), BuildingBlock: OJICUG_clean_linker_0, # of connection points: 2
#     Edge 106, Type (0, 0), BuildingBlock: OJICUG_clean_linker_0, # of connection points: 2
#     Edge 107, Type (0, 0), BuildingBlock: OJICUG_clean_linker_0, # of connection points: 2
#     Edge 108, Type (0, 0), BuildingBlock: OJICUG_clean_linker_0, # of connection points: 2
#     Edge 109, Type (0, 0), BuildingBlock: OJICUG_clean_linker_0, # of connection points: 2
#     Edge 110, Type (0, 0), BuildingBlock: OJICUG_clean_linker_0, # of connection points: 2
#     Edge 111, Type (0, 0), BuildingBlock: OJICUG_clean_linker_0, # of connection points: 2
# Relax obj value: 0.360
# Max RMSD: 0.226
# Mean RMSD: 0.226
data_MOF--net-yft--node1-BEQFEK_clean_sbu_0--edge1-OJICUG_clean_linker_0
_symmetry_space_group_name_H-M    P1
_symmetry_Int_Tables_number       1
_symmetry_cell_setting            triclinic
loop_
_symmetry_equiv_pos_as_xyz
'x, y, z'
_cell_length_a     38.31062
_cell_length_b     38.314406
_cell_length_c     58.654296
_cell_angle_alpha  90.006488
_cell_angle_beta   90.006963
_cell_angle_gamma 90.007657
loop_
_atom_site_label
_atom_site_type_symbol
_atom_site_fract_x
_atom_site_fract_y
_atom_site_fract_z
_atom_type_partial_charge
Co0 Co 0.37478 0.2063 0.18252 0.0
Co1 Co 0.31263 0.1791 0.15252 0.0
C2 C 0.38414 0.14581 0.15177 0.0
O3 O 0.39582 0.16645 0.16689 0.0
O4 O 0.35279 0.14796 0.14462 0.0
C5 C 0.43563 0.21005 0.21134 0.0
O6 O 0.43695 0.17605 0.20854 0.0
C7 C 0.25656 0.12867 0.14285 0.0
C8 C 0.22837 0.15463 0.11471 0.0
C9 C 0.22873 0.12462 0.12788 0.0
N10 N 0.27172 0.15971 0.13878 0.0
N11 N 0.25471 0.17509 0.12194 0.0
C12 C 0.27009 0.10273 0.15974 0.0
H13 H 0.29775 0.1084 0.16399 0.0
H14 H 0.25452 0.10447 0.17563 0.0
H15 H 0.26757 0.07582 0.15292 0.0
C16 C 0.32273 0.20461 0.21793 0.0
N17 N 0.33346 0.19407 0.19727 0.0
N18 N 0.30631 0.18565 0.18466 0.0
C19 C 0.27711 0.19191 0.19681 0.0
C20 C 0.2866 0.20419 0.21829 0.0
C21 C 0.3461 0.22264 0.23467 0.0
H22 H 0.35377 0.24848 0.22773 0.0
H23 H 0.37007 0.20692 0.23724 0.0
H24 H 0.33311 0.22654 0.25137 0.0
O25 O 0.36435 0.24386 0.16042 0.0
O26 O 0.32135 0.22506 0.13812 0.0
H27 H 0.24151 0.20776 0.17062 0.0
H28 H 0.22172 0.20347 0.19861 0.0
C29 C 0.24125 0.19241 0.18666 0.0
H30 H 0.23335 0.16539 0.18238 0.0
H31 H 0.26137 0.19938 0.11517 0.0
O32 O 0.41012 0.22693 0.20302 0.0
C33 C 0.34319 0.24845 0.14396 0.0
Co34 Co 0.04082 0.12534 0.43213 0.0
Co35 Co 0.06796 0.06382 0.4015 0.0
C36 C 0.10161 0.13528 0.40178 0.0
O37 O 0.08099 0.14667 0.417 0.0
O38 O 0.09925 0.10416 0.39424 0.0
C39 C 0.03587 0.18603 0.46106 0.0
O40 O 0.06986 0.18799 0.45836 0.0
C41 C 0.1186 0.00804 0.39159 0.0
C42 C 0.0929 0.98012 0.36323 0.0
C43 C 0.12281 0.98035 0.37652 0.0
N44 N 0.08757 0.0232 0.38748 0.0
N45 N 0.07235 0.00636 0.37051 0.0
C46 C 0.14436 0.02139 0.40866 0.0
H47 H 0.13871 0.04902 0.41296 0.0
H48 H 0.14237 0.00572 0.42451 0.0
H49 H 0.17136 0.01886 0.40199 0.0
C50 C 0.04186 0.07231 0.46693 0.0
N51 N 0.05258 0.08354 0.44643 0.0
N52 N 0.06104 0.05671 0.43355 0.0
C53 C 0.0547 0.02722 0.44537 0.0
C54 C 0.04226 0.03617 0.46689 0.0
C55 C 0.02377 0.09533 0.48385 0.0
H56 H 0.99789 0.103 0.47698 0.0
H57 H 0.0394 0.11933 0.48656 0.0
H58 H 0.01995 0.08208 0.50046 0.0
O59 O 0.00364 0.11565 0.4097 0.0
O60 O 0.0221 0.07305 0.38697 0.0
H61 H 0.03924 0.99202 0.41883 0.0
H62 H 0.04368 0.97167 0.44664 0.0
C63 C 0.05456 0.99157 0.43489 0.0
H64 H 0.08167 0.98402 0.43057 0.0
H65 H 0.04809 0.01304 0.36369 0.0
O66 O 0.01956 0.16013 0.45276 0.0
C67 C -0.0011 0.09496 0.39301 0.0
Co68 Co 0.12111 0.79135 0.6835 0.0
Co69 Co 0.18331 0.81786 0.65317 0.0
C70 C 0.11194 0.85156 0.6525 0.0
O71 O 0.10023 0.83119 0.66777 0.0
O72 O 0.14323 0.84911 0.64529 0.0
C73 C 0.05961 0.78739 0.71176 0.0
O74 O 0.05786 0.82129 0.70858 0.0
C75 C 0.23973 0.8679 0.64309 0.0
C76 C 0.2674 0.84149 0.61491 0.0
C77 C 0.26743 0.87163 0.62797 0.0
N78 N 0.22428 0.83693 0.63921 0.0
N79 N 0.24099 0.82129 0.62235 0.0
C80 C 0.22661 0.89409 0.65995 0.0
H81 H 0.19896 0.88867 0.66436 0.0
H82 H 0.24236 0.89236 0.67578 0.0
H83 H 0.22925 0.92093 0.65303 0.0
C84 C 0.17353 0.79278 0.71868 0.0
N85 N 0.16267 0.80338 0.69806 0.0
N86 N 0.18976 0.81153 0.68533 0.0
C87 C 0.21903 0.80507 0.69736 0.0
C88 C 0.20966 0.79287 0.71887 0.0
C89 C 0.15018 0.77494 0.73551 0.0
H90 H 0.14262 0.74897 0.72874 0.0
H91 H 0.12614 0.79061 0.73795 0.0
H92 H 0.16318 0.77136 0.75224 0.0
O93 O 0.13117 0.75362 0.6615 0.0
O94 O 0.17417 0.77175 0.63898 0.0
H95 H 0.25427 0.78868 0.6711 0.0
H96 H 0.27439 0.79326 0.69898 0.0
C97 C 0.25478 0.80425 0.68705 0.0
H98 H 0.26277 0.83117 0.68258 0.0
H99 H 0.23407 0.797 0.61569 0.0
O100 O 0.08572 0.77075 0.70402 0.0
C101 C 0.15216 0.74863 0.64501 0.0
Co102 Co 0.45609 0.87108 0.93267 0.0
Co103 Co 0.42896 0.93274 0.90215 0.0
C104 C 0.39579 0.86113 0.90183 0.0
O105 O 0.41638 0.84971 0.91707 0.0
O106 O 0.39797 0.89235 0.89447 0.0
C107 C 0.46048 0.81004 0.9613 0.0
O108 O 0.42656 0.80815 0.95825 0.0
C109 C 0.37837 0.98859 0.89221 0.0
C110 C 0.40429 0.01664 0.864 0.0
C111 C 0.3743 0.01636 0.8772 0.0
N112 N 0.40941 0.97341 0.88815 0.0
N113 N 0.42475 0.99032 0.87127 0.0
C114 C 0.35246 0.97517 0.90916 0.0
H115 H 0.35808 0.94751 0.91343 0.0
H116 H 0.35431 0.99077 0.92504 0.0
H117 H 0.32552 0.97773 0.90239 0.0
C118 C 0.4539 0.9237 0.96771 0.0
N119 N 0.44358 0.91259 0.9471 0.0
N120 N 0.43518 0.9395 0.93427 0.0
C121 C 0.44122 0.96891 0.94623 0.0
C122 C 0.45336 0.95983 0.9678 0.0
C123 C 0.47191 0.90069 0.98467 0.0
H124 H 0.49799 0.89334 0.97797 0.0
H125 H 0.45647 0.8765 0.98716 0.0
H126 H 0.47528 0.91386 0.00136 0.0
O127 O 0.49375 0.88141 0.91067 0.0
O128 O 0.47519 0.92403 0.88801 0.0
H129 H 0.45706 0.00407 0.91977 0.0
H130 H 0.45285 0.02434 0.94762 0.0
C131 C 0.44175 0.0046 0.93583 0.0
H132 H 0.41472 0.01248 0.93153 0.0
H133 H 0.44905 0.98366 0.86451 0.0
O134 O 0.47699 0.83607 0.95333 0.0
C135 C 0.49857 0.90236 0.89413 0.0
Co136 Co 0.37466 0.79311 0.31236 0.0
Co137 Co 0.31313 0.82008 0.34305 0.0
C138 C 0.38471 0.85349 0.34307 0.0
O139 O 0.39607 0.833 0.32776 0.0
O140 O 0.35355 0.85117 0.35054 0.0
C141 C 0.43562 0.78817 0.28366 0.0
O142 O 0.43781 0.8221 0.2866 0.0
C143 C 0.25711 0.87049 0.35297 0.0
C144 C 0.22951 0.84475 0.38144 0.0
C145 C 0.22946 0.87458 0.36809 0.0
N146 N 0.27251 0.83958 0.35712 0.0
N147 N 0.25586 0.82435 0.37416 0.0
C148 C 0.27019 0.89624 0.33582 0.0
H149 H 0.29788 0.8908 0.33152 0.0
H150 H 0.25453 0.89397 0.31998 0.0
H151 H 0.26743 0.92326 0.3424 0.0
C152 C 0.32168 0.7945 0.27756 0.0
N153 N 0.33293 0.80523 0.29805 0.0
N154 N 0.30609 0.8135 0.31097 0.0
C155 C 0.27659 0.80695 0.2992 0.0
C156 C 0.28554 0.79459 0.27766 0.0
C157 C 0.34469 0.77651 0.26059 0.0
H158 H 0.35215 0.75049 0.26731 0.0
H159 H 0.3688 0.79203 0.25801 0.0
H160 H 0.33144 0.77301 0.24394 0.0
O161 O 0.36473 0.75566 0.33458 0.0
O162 O 0.32214 0.77404 0.35733 0.0
H163 H 0.24192 0.79095 0.3259 0.0
H164 H 0.22125 0.79484 0.29815 0.0
C165 C 0.24104 0.80617 0.30981 0.0
H166 H 0.233 0.83315 0.31409 0.0
H167 H 0.26274 0.80018 0.38101 0.0
O168 O 0.40948 0.77194 0.2917 0.0
C169 C 0.34396 0.75081 0.35121 0.0
Co170 Co 0.4543 0.12329 0.56271 0.0
Co171 Co 0.42813 0.06115 0.59309 0.0
C172 C 0.39436 0.13258 0.5938 0.0
O173 O 0.41461 0.14429 0.57848 0.0
O174 O 0.39694 0.10132 0.60106 0.0
C175 C 0.45824 0.18432 0.534 0.0
O176 O 0.42432 0.18616 0.53708 0.0
C177 C 0.37797 0.00486 0.60309 0.0
C178 C 0.40395 0.97739 0.63152 0.0
C179 C 0.37397 0.97733 0.6183 0.0
N180 N 0.40894 0.02025 0.60707 0.0
N181 N 0.42434 0.00365 0.62407 0.0
C182 C 0.35201 0.01795 0.58607 0.0
H183 H 0.35756 0.04555 0.58161 0.0
H184 H 0.35388 0.00209 0.57029 0.0
H185 H 0.32508 0.01543 0.59287 0.0
C186 C 0.45222 0.07113 0.52744 0.0
N187 N 0.44196 0.08185 0.54815 0.0
N188 N 0.43418 0.05468 0.56091 0.0
C189 C 0.44069 0.0255 0.5488 0.0
C190 C 0.45242 0.03501 0.5272 0.0
C191 C 0.46954 0.09465 0.51047 0.0
H192 H 0.49568 0.10224 0.51696 0.0
H193 H 0.45372 0.11864 0.50826 0.0
H194 H 0.47272 0.08179 0.49367 0.0
O195 O 0.49226 0.11313 0.58455 0.0
O196 O 0.47439 0.07012 0.60714 0.0
H197 H 0.45766 0.99046 0.57502 0.0
H198 H 0.45321 0.97032 0.54713 0.0
C199 C 0.44202 0.98976 0.55909 0.0
H200 H 0.41522 0.98143 0.56363 0.0
H201 H 0.44856 0.01058 0.63084 0.0
O202 O 0.47485 0.15845 0.54207 0.0
C203 C 0.49747 0.09211 0.601 0.0
Co204 Co 0.122 0.20316 0.81351 0.0
Co205 Co 0.184 0.17669 0.84398 0.0
C206 C 0.11261 0.14296 0.84442 0.0
O207 O 0.101 0.16331 0.82912 0.0
O208 O 0.14384 0.14545 0.85175 0.0
C209 C 0.06112 0.20691 0.78468 0.0
O210 O 0.05958 0.17295 0.78767 0.0
C211 C 0.24023 0.12649 0.85376 0.0
C212 C 0.26805 0.15235 0.88209 0.0
C213 C 0.26799 0.12246 0.86879 0.0
N214 N 0.22485 0.1574 0.8579 0.0
N215 N 0.24165 0.17273 0.87485 0.0
C216 C 0.22698 0.10063 0.83671 0.0
H217 H 0.1993 0.10613 0.83243 0.0
H218 H 0.24261 0.10266 0.82086 0.0
H219 H 0.22967 0.07366 0.84341 0.0
C220 C 0.17452 0.20155 0.77841 0.0
N221 N 0.16359 0.19111 0.79904 0.0
N222 N 0.19064 0.18306 0.81185 0.0
C223 C 0.21995 0.18948 0.79985 0.0
C224 C 0.21065 0.20148 0.77828 0.0
C225 C 0.15122 0.2192 0.76146 0.0
H226 H 0.1435 0.24517 0.76816 0.0
H227 H 0.12727 0.20341 0.75898 0.0
H228 H 0.1643 0.22277 0.74477 0.0
O229 O 0.13196 0.24085 0.83559 0.0
O230 O 0.17486 0.22275 0.85821 0.0
H231 H 0.25501 0.20571 0.82628 0.0
H232 H 0.27523 0.20171 0.7984 0.0
C233 C 0.25566 0.1904 0.81022 0.0
H234 H 0.26384 0.16347 0.81451 0.0
H235 H 0.2348 0.19692 0.88169 0.0
O236 O 0.08682 0.22371 0.79285 0.0
C237 C 0.15286 0.24584 0.85214 0.0
Co238 Co 0.04269 0.87217 0.06356 0.0
Co239 Co 0.06912 0.93408 0.09409 0.0
C240 C 0.10247 0.86261 0.09481 0.0
O241 O 0.08225 0.85105 0.07941 0.0
O242 O 0.10007 0.89385 0.1021 0.0
C243 C 0.03901 0.81112 0.03486 0.0
O244 O 0.0729 0.80937 0.0381 0.0
C245 C 0.11926 0.99022 0.10414 0.0
C246 C 0.09309 0.01801 0.13236 0.0
C247 C 0.12312 0.01795 0.11921 0.0
N248 N 0.08829 0.97485 0.10813 0.0
N249 N 0.07279 0.99161 0.12502 0.0
C250 C 0.14529 0.97701 0.0872 0.0
H251 H 0.13988 0.94931 0.08292 0.0
H252 H 0.14334 0.9926 0.07133 0.0
H253 H 0.1722 0.97977 0.09399 0.0
C254 C 0.04451 0.92466 0.02851 0.0
N255 N 0.05506 0.91369 0.04911 0.0
N256 N 0.06311 0.94071 0.06194 0.0
C257 C 0.0566 0.97004 0.04999 0.0
C258 C 0.04446 0.96079 0.02844 0.0
C259 C 0.02673 0.90137 0.01161 0.0
H260 H 0.00074 0.89375 0.01834 0.0
H261 H 0.04244 0.87737 0.00913 0.0
H262 H 0.02316 0.91439 0.9949 0.0
O263 O 0.00477 0.88236 0.08541 0.0
O264 O 0.02288 0.92521 0.10806 0.0
H265 H 0.03998 0.00504 0.07634 0.0
H266 H 0.04467 0.02539 0.04854 0.0
C267 C 0.05564 0.00571 0.06042 0.0
H268 H 0.08251 0.01374 0.06498 0.0
H269 H 0.04852 0.98476 0.13174 0.0
O270 O 0.02225 0.83698 0.04285 0.0
C271 C -0.00029 0.90335 0.1019 0.0
Co272 Co 0.62165 0.79243 0.81231 0.0
Co273 Co 0.68458 0.8186 0.84216 0.0
C274 C 0.61387 0.8531 0.84337 0.0
O275 O 0.60177 0.83249 0.82836 0.0
O276 O 0.6453 0.8507 0.85038 0.0
C277 C 0.55956 0.78901 0.78438 0.0
O278 O 0.5575 0.82281 0.78793 0.0
C279 C 0.74106 0.86777 0.85427 0.0
C280 C 0.77538 0.8342 0.87511 0.0
C281 C 0.77228 0.86775 0.86647 0.0
N282 N 0.72666 0.83581 0.85574 0.0
N283 N 0.74722 0.81598 0.86835 0.0
C284 C 0.72631 0.89643 0.8399 0.0
H285 H 0.70792 0.88563 0.82708 0.0
H286 H 0.74754 0.91098 0.83122 0.0
H287 H 0.71173 0.91484 0.85097 0.0
C288 C 0.67339 0.79368 0.7767 0.0
N289 N 0.66297 0.80408 0.79745 0.0
N290 N 0.69029 0.81251 0.8099 0.0
C291 C 0.71927 0.80671 0.79745 0.0
C292 C 0.7095 0.79435 0.77606 0.0
C293 C 0.6498 0.77561 0.7601 0.0
H294 H 0.64215 0.74983 0.76713 0.0
H295 H 0.62582 0.79136 0.75763 0.0
H296 H 0.66259 0.77162 0.74335 0.0
O297 O 0.63159 0.75439 0.83401 0.0
O298 O 0.6748 0.77254 0.85632 0.0
H299 H 0.75664 0.78899 0.82196 0.0
H300 H 0.77513 0.79909 0.79427 0.0
C301 C 0.75541 0.80695 0.80714 0.0
H302 H 0.7617 0.83359 0.81324 0.0
H303 H 0.74227 0.78981 0.87207 0.0
O304 O 0.58581 0.7724 0.7919 0.0
C305 C 0.65272 0.74942 0.85042 0.0
Co306 Co 0.95481 0.87065 0.56264 0.0
Co307 Co 0.92806 0.93317 0.59263 0.0
C308 C 0.89363 0.86239 0.59325 0.0
O309 O 0.91451 0.85051 0.57832 0.0
O310 O 0.89588 0.89374 0.60043 0.0
C311 C 0.95852 0.809 0.5344 0.0
O312 O 0.92464 0.80712 0.53764 0.0
C313 C 0.87848 0.98926 0.60465 0.0
C314 C 0.91164 0.02372 0.62568 0.0
C315 C 0.87821 0.02045 0.61687 0.0
N316 N 0.91051 0.97504 0.60627 0.0
N317 N 0.93009 0.99566 0.61901 0.0
C318 C 0.85008 0.97441 0.5901 0.0
H319 H 0.86112 0.95608 0.57734 0.0
H320 H 0.83556 0.9956 0.58134 0.0
H321 H 0.83156 0.95976 0.60105 0.0
C322 C 0.95376 0.9228 0.52723 0.0
N323 N 0.94334 0.91212 0.54792 0.0
N324 N 0.93458 0.93926 0.56043 0.0
C325 C 0.94012 0.96839 0.54808 0.0
C326 C 0.95266 0.9589 0.52668 0.0
C327 C 0.9721 0.89949 0.51059 0.0
H328 H 0.99778 0.89176 0.51773 0.0
H329 H 0.95641 0.87552 0.50788 0.0
H330 H 0.9763 0.91251 0.49394 0.0
O331 O 0.99247 0.88038 0.58465 0.0
O332 O 0.97393 0.92329 0.60706 0.0
H333 H 0.95698 0.0059 0.57276 0.0
H334 H 0.94703 0.02436 0.54504 0.0
C335 C 0.93926 0.00448 0.55783 0.0
H336 H 0.91245 0.01038 0.56377 0.0
H337 H 0.95625 0.99086 0.62284 0.0
O338 O 0.97514 0.83508 0.54219 0.0
C339 C 0.99716 0.90131 0.6012 0.0
Co340 Co 0.87522 0.20695 0.31149 0.0
Co341 Co 0.81304 0.18021 0.34173 0.0
C342 C 0.88437 0.14648 0.34228 0.0
O343 O 0.8961 0.16702 0.32711 0.0
O344 O 0.8531 0.1489 0.34952 0.0
C345 C 0.93664 0.21092 0.28316 0.0
O346 O 0.93828 0.17699 0.28624 0.0
C347 C 0.75683 0.12992 0.35167 0.0
C348 C 0.72888 0.15612 0.37981 0.0
C349 C 0.72907 0.12602 0.36673 0.0
N350 N 0.77209 0.16097 0.35562 0.0
N351 N 0.75521 0.17649 0.37245 0.0
C352 C 0.77018 0.10384 0.33481 0.0
H353 H 0.79782 0.10943 0.33046 0.0
H354 H 0.7545 0.10552 0.31896 0.0
H355 H 0.76766 0.07698 0.34171 0.0
C356 C 0.82284 0.20554 0.27628 0.0
N357 N 0.83371 0.1949 0.29689 0.0
N358 N 0.80663 0.1866 0.30959 0.0
C359 C 0.77736 0.19298 0.29755 0.0
C360 C 0.78671 0.2053 0.27607 0.0
C361 C 0.84614 0.22355 0.25949 0.0
H362 H 0.8537 0.24946 0.26637 0.0
H363 H 0.87019 0.20792 0.25698 0.0
H364 H 0.83311 0.22728 0.24279 0.0
O365 O 0.86504 0.24464 0.3335 0.0
O366 O 0.82205 0.22635 0.35596 0.0
H367 H 0.742 0.20916 0.3238 0.0
H368 H 0.72195 0.20454 0.29591 0.0
C369 C 0.74159 0.19361 0.30784 0.0
H370 H 0.73371 0.16665 0.31228 0.0
H371 H 0.76196 0.20081 0.37914 0.0
O372 O 0.91062 0.22759 0.29099 0.0
C373 C 0.84398 0.24957 0.34996 0.0
Co374 Co 0.54175 0.12566 0.06225 0.0
Co375 Co 0.56833 0.06398 0.09295 0.0
C376 C 0.6021 0.13531 0.09303 0.0
O377 O 0.58169 0.14681 0.07772 0.0
O378 O 0.59961 0.10415 0.10048 0.0
C379 C 0.53727 0.18669 0.03355 0.0
O380 O 0.57114 0.18891 0.03675 0.0
C381 C 0.61859 0.00796 0.10304 0.0
C382 C 0.59254 0.98021 0.13133 0.0
C383 C 0.62253 0.98028 0.11814 0.0
N384 N 0.58761 0.02329 0.10705 0.0
N385 N 0.57218 0.00655 0.12398 0.0
C386 C 0.64455 0.02116 0.08606 0.0
H387 H 0.63905 0.04881 0.08171 0.0
H388 H 0.64264 0.00546 0.07022 0.0
H389 H 0.67148 0.01853 0.09284 0.0
C390 C 0.54338 0.07272 0.02738 0.0
N391 N 0.55376 0.0839 0.04796 0.0
N392 N 0.56194 0.05701 0.06087 0.0
C393 C 0.5557 0.02756 0.04899 0.0
C394 C 0.54366 0.03659 0.02739 0.0
C395 C 0.52565 0.09578 0.01032 0.0
H396 H 0.49958 0.10333 0.01693 0.0
H397 H 0.54127 0.11984 0.00782 0.0
H398 H 0.52229 0.08255 0.99365 0.0
O399 O 0.50416 0.11595 0.08443 0.0
O400 O 0.52231 0.07327 0.10719 0.0
H401 H 0.53967 0.99261 0.07552 0.0
H402 H 0.54389 0.97217 0.04772 0.0
C403 C 0.55503 0.99193 0.05948 0.0
H404 H 0.58201 0.98399 0.06382 0.0
H405 H 0.54791 0.01338 0.13071 0.0
O406 O 0.52091 0.16056 0.04149 0.0
C407 C 0.4992 0.09523 0.10106 0.0
Co408 Co 0.62168 0.20243 0.68238 0.0
Co409 Co 0.68416 0.17605 0.65223 0.0
C410 C 0.61326 0.14185 0.65127 0.0
O411 O 0.60142 0.16247 0.66637 0.0
O412 O 0.64463 0.14415 0.64413 0.0
C413 C 0.56012 0.20577 0.71076 0.0
O414 O 0.55824 0.17192 0.70737 0.0
C415 C 0.74039 0.12668 0.6401 0.0
C416 C 0.77457 0.15994 0.61895 0.0
C417 C 0.77153 0.12652 0.62782 0.0
N418 N 0.726 0.15862 0.63848 0.0
N419 N 0.74645 0.17826 0.62567 0.0
C420 C 0.72577 0.09825 0.65472 0.0
H421 H 0.70739 0.10923 0.66748 0.0
H422 H 0.74708 0.08394 0.6635 0.0
H423 H 0.71123 0.07957 0.64382 0.0
C424 C 0.67385 0.20101 0.71774 0.0
N425 N 0.66313 0.19063 0.69705 0.0
N426 N 0.69026 0.18208 0.68446 0.0
C427 C 0.71942 0.18775 0.69677 0.0
C428 C 0.70996 0.20017 0.71821 0.0
C429 C 0.65054 0.21922 0.73444 0.0
H430 H 0.64281 0.24496 0.72737 0.0
H431 H 0.62657 0.20352 0.73709 0.0
H432 H 0.66357 0.22331 0.7511 0.0
O433 O 0.63156 0.24047 0.66067 0.0
O434 O 0.67447 0.22219 0.63816 0.0
H435 H 0.75658 0.20509 0.67201 0.0
H436 H 0.77535 0.19524 0.69966 0.0
C437 C 0.75545 0.18731 0.68692 0.0
H438 H 0.7616 0.16058 0.68092 0.0
H439 H 0.7415 0.20438 0.62182 0.0
O440 O 0.58612 0.22249 0.70296 0.0
C441 C 0.65256 0.2454 0.64419 0.0
Co442 Co 0.54335 0.87334 0.43179 0.0
Co443 Co 0.56955 0.93533 0.40126 0.0
C444 C 0.60345 0.86394 0.40086 0.0
O445 O 0.58317 0.85232 0.41621 0.0
O446 O 0.60086 0.89514 0.39349 0.0
C447 C 0.5392 0.81245 0.46065 0.0
O448 O 0.57312 0.81048 0.45761 0.0
C449 C 0.61948 0.99185 0.39129 0.0
C450 C 0.59348 0.01908 0.36277 0.0
C451 C 0.62337 0.0194 0.37606 0.0
N452 N 0.58865 0.97622 0.38722 0.0
N453 N 0.57325 0.99267 0.37017 0.0
C454 C 0.64542 0.979 0.4084 0.0
H455 H 0.64006 0.95136 0.41285 0.0
H456 H 0.64329 0.99486 0.42416 0.0
H457 H 0.67237 0.98175 0.40169 0.0
C458 C 0.54509 0.92575 0.4669 0.0
N459 N 0.55545 0.91492 0.44623 0.0
N460 N 0.5632 0.94203 0.4334 0.0
C461 C 0.55656 0.97127 0.44541 0.0
C462 C 0.54478 0.96188 0.46703 0.0
C463 C 0.5278 0.90229 0.48392 0.0
H464 H 0.50169 0.89461 0.47743 0.0
H465 H 0.54368 0.87836 0.48619 0.0
H466 H 0.52457 0.91524 0.50068 0.0
O467 O 0.50559 0.88319 0.40976 0.0
O468 O 0.52347 0.92607 0.38707 0.0
H469 H 0.53975 0.0061 0.41902 0.0
H470 H 0.54377 0.02641 0.44688 0.0
C471 C 0.55519 0.00695 0.43503 0.0
H472 H 0.58201 0.01538 0.43062 0.0
H473 H 0.54911 0.98557 0.36335 0.0
O474 O 0.52268 0.83831 0.45248 0.0
C475 C 0.50045 0.90402 0.3932 0.0
Co476 Co 0.87427 0.79301 0.18254 0.0
Co477 Co 0.81253 0.81994 0.152 0.0
C478 C 0.8839 0.85364 0.15202 0.0
O479 O 0.89541 0.83308 0.16724 0.0
O480 O 0.85273 0.85125 0.14457 0.0
C481 C 0.93513 0.78834 0.21146 0.0
O482 O 0.93723 0.82228 0.20855 0.0
C483 C 0.75641 0.8702 0.14205 0.0
C484 C 0.72872 0.84424 0.11369 0.0
C485 C 0.72873 0.87417 0.12695 0.0
N486 N 0.77179 0.83926 0.13798 0.0
N487 N 0.75508 0.82389 0.12101 0.0
C488 C 0.76956 0.89609 0.1591 0.0
H489 H 0.79723 0.89063 0.16343 0.0
H490 H 0.75387 0.89403 0.17494 0.0
H491 H 0.76686 0.92305 0.1524 0.0
C492 C 0.82143 0.79409 0.21741 0.0
N493 N 0.83255 0.80488 0.1969 0.0
N494 N 0.80562 0.81317 0.18405 0.0
C495 C 0.7762 0.8066 0.19589 0.0
C496 C 0.78529 0.79419 0.21739 0.0
C497 C 0.84458 0.77612 0.23431 0.0
H498 H 0.85226 0.75023 0.22747 0.0
H499 H 0.86856 0.79181 0.23695 0.0
H500 H 0.83141 0.77234 0.25095 0.0
O501 O 0.86448 0.75566 0.16022 0.0
O502 O 0.82177 0.77409 0.13756 0.0
H503 H 0.74121 0.79065 0.16936 0.0
H504 H 0.72078 0.79492 0.19716 0.0
C505 C 0.74056 0.80601 0.1854 0.0
H506 H 0.73269 0.83301 0.18105 0.0
H507 H 0.76195 0.79967 0.11423 0.0
O508 O 0.90921 0.77199 0.2032 0.0
C509 C 0.8437 0.7509 0.14357 0.0
Co510 Co 0.95399 0.12397 0.93321 0.0
Co511 Co 0.92804 0.06122 0.90313 0.0
C512 C 0.89341 0.13189 0.90209 0.0
O513 O 0.91394 0.14393 0.91717 0.0
O514 O 0.89591 0.10052 0.895 0.0
C515 C 0.95712 0.18578 0.96138 0.0
O516 O 0.92329 0.18761 0.95789 0.0
C517 C 0.87881 0.00494 0.89084 0.0
C518 C 0.91229 0.97071 0.86987 0.0
C519 C 0.87874 0.97383 0.87853 0.0
N520 N 0.91082 0.01926 0.88941 0.0
N521 N 0.93059 -0.00123 0.87673 0.0
C522 C 0.8502 0.01966 0.90527 0.0
H523 H 0.86107 0.0379 0.91815 0.0
H524 H 0.83559 -0.0016 0.91388 0.0
H525 H 0.83183 0.03438 0.89426 0.0
C526 C 0.95283 0.07196 0.96864 0.0
N527 N 0.94239 0.08252 0.94792 0.0
N528 N 0.93408 0.05528 0.93537 0.0
C529 C 0.93999 0.02621 0.94771 0.0
C530 C 0.9523 0.03584 0.96913 0.0
C531 C 0.97084 0.09546 0.98531 0.0
H532 H 0.9966 0.10325 0.9783 0.0
H533 H 0.95501 0.11937 0.98787 0.0
H534 H 0.97487 0.08255 0.00202 0.0
O535 O 0.99209 0.11425 0.91151 0.0
O536 O 0.97411 0.07116 0.88904 0.0
H537 H 0.95792 0.98916 0.92306 0.0
H538 H 0.94784 0.97036 0.95067 0.0
C539 C 0.93992 0.99017 0.93787 0.0
H540 H 0.91332 0.98382 0.93171 0.0
H541 H 0.95677 0.00368 0.87302 0.0
O542 O 0.9739 0.15971 0.95373 0.0
C543 C 0.99716 0.09324 0.89505 0.0
Co544 Co 0.87396 0.70412 0.68192 0.0
Co545 Co 0.81228 0.67739 0.65121 0.0
C546 C 0.88371 0.64373 0.65118 0.0
O547 O 0.89514 0.66423 0.66646 0.0
O548 O 0.85257 0.64615 0.64367 0.0
C549 C 0.93483 0.70821 0.7108 0.0
O550 O 0.93661 0.67428 0.70777 0.0
C551 C 0.7563 0.62696 0.64109 0.0
C552 C 0.72835 0.65305 0.61291 0.0
C553 C 0.72853 0.62299 0.62603 0.0
N554 N 0.77155 0.658 0.63711 0.0
N555 N 0.75468 0.67345 0.62024 0.0
C556 C 0.76965 0.601 0.65802 0.0
H557 H 0.79739 0.60639 0.66217 0.0
H558 H 0.75424 0.60309 0.67397 0.0
H559 H 0.76678 0.57405 0.65132 0.0
C560 C 0.82109 0.70268 0.71674 0.0
N561 N 0.83224 0.69202 0.69621 0.0
N562 N 0.80534 0.68382 0.68331 0.0
C563 C 0.7759 0.69031 0.69514 0.0
C564 C 0.78495 0.7026 0.7167 0.0
C565 C 0.84422 0.72059 0.73369 0.0
H566 H 0.8519 0.74652 0.72691 0.0
H567 H 0.8682 0.7049 0.7363 0.0
H568 H 0.83105 0.72428 0.75034 0.0
O569 O 0.86404 0.74178 0.65985 0.0
O570 O 0.82142 0.72355 0.63704 0.0
H571 H 0.74094 0.70654 0.66868 0.0
H572 H 0.72046 0.70185 0.69643 0.0
C573 C 0.74029 0.69096 0.68463 0.0
H574 H 0.73248 0.66401 0.6801 0.0
H575 H 0.76141 0.69777 0.61354 0.0
O576 O 0.90899 0.72484 0.70267 0.0
C577 C 0.84324 0.74675 0.64324 0.0
Co578 Co 0.54389 0.62431 0.93239 0.0
Co579 Co 0.57034 0.56238 0.90185 0.0
C580 C 0.60391 0.63383 0.90133 0.0
O581 O 0.58364 0.64539 0.91669 0.0
O582 O 0.60146 0.6026 0.89401 0.0
C583 C 0.53995 0.68549 0.96097 0.0
O584 O 0.57385 0.68732 0.95779 0.0
C585 C 0.62046 0.50606 0.8919 0.0
C586 C 0.59441 0.47848 0.86353 0.0
C587 C 0.62435 0.47837 0.87679 0.0
N588 N 0.58957 0.52155 0.88783 0.0
N589 N 0.57415 0.50491 0.87086 0.0
C590 C 0.6464 0.51912 0.90895 0.0
H591 H 0.64106 0.54682 0.91325 0.0
H592 H 0.64426 0.50348 0.92479 0.0
H593 H 0.67336 0.51629 0.90225 0.0
C594 C 0.54529 0.57168 0.96739 0.0
N595 N 0.556 0.58269 0.94684 0.0
N596 N 0.56404 0.55568 0.93399 0.0
C597 C 0.55735 0.52633 0.94589 0.0
C598 C 0.54512 0.53554 0.96742 0.0
C599 C 0.5275 0.59496 0.98429 0.0
H600 H 0.50153 0.60258 0.97755 0.0
H601 H 0.54322 0.61897 0.98678 0.0
H602 H 0.52393 0.5819 0.00099 0.0
O603 O 0.50612 0.6143 0.91039 0.0
O604 O 0.52419 0.57145 0.88772 0.0
H605 H 0.54082 0.49151 0.91941 0.0
H606 H 0.54508 0.47105 0.9472 0.0
C607 C 0.5563 0.49071 0.9354 0.0
H608 H 0.58318 0.48254 0.93096 0.0
H609 H 0.54995 0.51186 0.86406 0.0
O610 O 0.5233 0.65951 0.95305 0.0
C611 C 0.50108 0.5934 0.89384 0.0
Co612 Co 0.62072 0.29297 0.18232 0.0
Co613 Co 0.68176 0.32043 0.15149 0.0
C614 C 0.60987 0.35288 0.15134 0.0
O615 O 0.59874 0.33236 0.16671 0.0
O616 O 0.64108 0.35095 0.14393 0.0
C617 C 0.56058 0.28856 0.21168 0.0
O618 O 0.55899 0.32257 0.209 0.0
C619 C 0.73701 0.3714 0.14119 0.0
C620 C 0.76489 0.34563 0.11284 0.0
C621 C 0.76456 0.37564 0.12603 0.0
N622 N 0.72202 0.34024 0.13723 0.0
N623 N 0.73881 0.325 0.12026 0.0
C624 C 0.72361 0.39723 0.1582 0.0
H625 H 0.69597 0.39156 0.16249 0.0
H626 H 0.73924 0.39532 0.17407 0.0
H627 H 0.72612 0.4242 0.15148 0.0
C628 C 0.67377 0.29551 0.21707 0.0
N629 N 0.66231 0.30581 0.19654 0.0
N630 N 0.689 0.31437 0.18356 0.0
C631 C 0.71862 0.30849 0.19534 0.0
C632 C 0.7099 0.29624 0.21696 0.0
C633 C 0.65109 0.27727 0.23412 0.0
H634 H 0.64369 0.25124 0.22737 0.0
H635 H 0.62692 0.29263 0.23686 0.0
H636 H 0.66453 0.27377 0.2507 0.0
O637 O 0.631 0.25534 0.16028 0.0
O638 O 0.67322 0.2742 0.1374 0.0
H639 H 0.75351 0.29278 0.1687 0.0
H640 H 0.77415 0.29729 0.19642 0.0
C641 C 0.75416 0.30818 0.18472 0.0
H642 H 0.76178 0.33524 0.18033 0.0
H643 H 0.73223 0.30064 0.11356 0.0
O644 O 0.58613 0.27194 0.20319 0.0
C645 C 0.65176 0.2507 0.14362 0.0
Co646 Co 0.95358 0.37243 0.43231 0.0
Co647 Co 0.92781 0.43541 0.40239 0.0
C648 C 0.89323 0.36469 0.401 0.0
O649 O 0.91363 0.35257 0.41612 0.0
O650 O 0.89578 0.39611 0.39401 0.0
C651 C 0.95642 0.31052 0.46038 0.0
O652 O 0.92259 0.30883 0.45686 0.0
C653 C 0.87849 0.49175 0.39041 0.0
C654 C 0.91184 0.52626 0.36955 0.0
C655 C 0.87834 0.52301 0.37826 0.0
N656 N 0.9105 0.47747 0.38885 0.0
N657 N 0.9302 0.49814 0.37622 0.0
C658 C 0.84997 0.47685 0.40483 0.0
H659 H 0.8609 0.45845 0.41759 0.0
H660 H 0.83541 0.498 0.4136 0.0
H661 H 0.83152 0.46227 0.39379 0.0
C662 C 0.95227 0.42414 0.46792 0.0
N663 N 0.9419 0.41374 0.44716 0.0
N664 N 0.9337 0.44109 0.43467 0.0
C665 C 0.93963 0.47006 0.44712 0.0
C666 C 0.95184 0.46025 0.46854 0.0
C667 C 0.97017 0.40048 0.48455 0.0
H668 H 0.99594 0.3927 0.47756 0.0
H669 H 0.95429 0.37658 0.48701 0.0
H670 H 0.97416 0.41326 0.50131 0.0
O671 O 0.99179 0.38237 0.41074 0.0
O672 O 0.974 0.42566 0.38837 0.0
H673 H 0.9577 0.5072 0.42258 0.0
H674 H 0.94774 0.52585 0.45025 0.0
C675 C 0.93972 0.50616 0.43739 0.0
H676 H 0.91314 0.51266 0.43126 0.0
H677 H 0.95637 0.4933 0.37244 0.0
O678 O 0.97333 0.33653 0.45276 0.0
C679 C 0.997 0.40351 0.39437 0.0
Co680 Co 0.87509 0.28955 0.81275 0.0
Co681 Co 0.81322 0.31652 0.84312 0.0
C682 C 0.88473 0.34997 0.8435 0.0
O683 O 0.89628 0.32943 0.82829 0.0
O684 O 0.85349 0.34765 0.85082 0.0
C685 C 0.93608 0.28547 0.78406 0.0
O686 O 0.93763 0.31944 0.78695 0.0
C687 C 0.75741 0.36717 0.85299 0.0
C688 C 0.72937 0.34141 0.88127 0.0
C689 C 0.72971 0.37138 0.86805 0.0
N690 N 0.77249 0.33607 0.85705 0.0
N691 N 0.75557 0.32082 0.87397 0.0
C692 C 0.77088 0.39299 0.83601 0.0
H693 H 0.7985 0.38726 0.8317 0.0
H694 H 0.75521 0.39117 0.82015 0.0
H695 H 0.76845 0.41995 0.84276 0.0
C696 C 0.82251 0.29092 0.77769 0.0
N697 N 0.83354 0.30166 0.79823 0.0
N698 N 0.80655 0.31005 0.81101 0.0
C699 C 0.77719 0.30364 0.79907 0.0
C700 C 0.78637 0.29118 0.77759 0.0
C701 C 0.84569 0.27278 0.76088 0.0
H702 H 0.85332 0.24693 0.76782 0.0
H703 H 0.86971 0.28842 0.75825 0.0
H704 H 0.83259 0.26891 0.74423 0.0
O705 O 0.8649 0.25196 0.83482 0.0
O706 O 0.82207 0.27039 0.85737 0.0
H707 H 0.7419 0.28768 0.82542 0.0
H708 H 0.72169 0.29239 0.79758 0.0
C709 C 0.74148 0.30321 0.80945 0.0
H710 H 0.73378 0.33022 0.8139 0.0
H711 H 0.76219 0.29653 0.88075 0.0
O712 O 0.91028 0.26878 0.79217 0.0
C713 C 0.8439 0.24711 0.85133 0.0
Co714 Co 0.95459 0.62571 0.06242 0.0
Co715 Co 0.92692 0.56408 0.0927 0.0
C716 C 0.8939 0.63573 0.09287 0.0
O717 O 0.91464 0.64716 0.07773 0.0
O718 O 0.89596 0.60448 0.1002 0.0
C719 C 0.95953 0.68663 0.03376 0.0
O720 O 0.92554 0.68847 0.03649 0.0
C721 C 0.87586 0.50867 0.10244 0.0
C722 C 0.90123 0.48057 0.13084 0.0
C723 C 0.87136 0.48108 0.11753 0.0
N724 N 0.90703 0.52355 0.10658 0.0
N725 N 0.92205 0.5066 0.12357 0.0
C726 C 0.85025 0.52226 0.08535 0.0
H727 H 0.85618 0.54983 0.08104 0.0
H728 H 0.8521 0.50656 0.06951 0.0
H729 H 0.82322 0.52 0.09202 0.0
C730 C 0.95305 0.57308 0.02734 0.0
N731 N 0.94239 0.58419 0.04788 0.0
N732 N 0.93371 0.55729 0.06063 0.0
C733 C 0.93985 0.52787 0.04869 0.0
C734 C 0.95239 0.53695 0.02721 0.0
C735 C 0.97139 0.59608 0.01053 0.0
H736 H 0.99732 0.60347 0.01745 0.0
H737 H 0.95598 0.62025 0.00789 0.0
H738 H 0.97512 0.5829 0.99388 0.0
O739 O 0.99176 0.61546 0.08479 0.0
O740 O 0.9728 0.57278 0.10727 0.0
H741 H 0.95518 0.4925 0.07515 0.0
H742 H 0.9509 0.47235 0.04726 0.0
C743 C 0.93994 0.49216 0.05906 0.0
H744 H 0.91281 0.48456 0.06329 0.0
H745 H 0.94633 0.5131 0.13042 0.0
O746 O 0.9759 0.66067 0.04193 0.0
C747 C 0.99623 0.59453 0.10138 0.0
Co748 Co 0.62161 0.7048 0.31251 0.0
Co749 Co 0.68429 0.67867 0.34263 0.0
C750 C 0.6134 0.64449 0.34381 0.0
O751 O 0.60147 0.66499 0.32868 0.0
O752 O 0.64479 0.64685 0.35089 0.0
C753 C 0.55973 0.70803 0.2844 0.0
O754 O 0.55775 0.67423 0.28799 0.0
C755 C 0.74058 0.6293 0.35475 0.0
C756 C 0.77485 0.66264 0.37579 0.0
C757 C 0.77176 0.62918 0.367 0.0
N758 N 0.72621 0.66127 0.35633 0.0
N759 N 0.74673 0.68096 0.36907 0.0
C760 C 0.72588 0.60081 0.34021 0.0
H761 H 0.70747 0.61174 0.32745 0.0
H762 H 0.74714 0.58642 0.33144 0.0
H763 H 0.71134 0.58222 0.35117 0.0
C764 C 0.67353 0.70303 0.27705 0.0
N765 N 0.66294 0.6928 0.2978 0.0
N766 N 0.69016 0.68441 0.31036 0.0
C767 C 0.71924 0.69006 0.29797 0.0
C768 C 0.70965 0.70231 0.27653 0.0
C769 C 0.65011 0.7211 0.26036 0.0
H770 H 0.64253 0.74695 0.26731 0.0
H771 H 0.62607 0.70543 0.25787 0.0
H772 H 0.663 0.72493 0.24362 0.0
O773 O 0.63165 0.743 0.33407 0.0
O774 O 0.67468 0.72495 0.35656 0.0
H775 H 0.75638 0.7078 0.32265 0.0
H776 H 0.77511 0.69785 0.295 0.0
C777 C 0.7553 0.6899 0.30779 0.0
H778 H 0.76162 0.66325 0.31387 0.0
H779 H 0.74181 0.7071 0.37288 0.0
O780 O 0.5859 0.72474 0.29197 0.0
C781 C 0.65273 0.74809 0.35049 0.0
Co782 Co 0.54227 0.36937 0.56291 0.0
Co783 Co 0.5686 0.43183 0.59304 0.0
C784 C 0.60288 0.3606 0.59345 0.0
O785 O 0.58249 0.34872 0.57826 0.0
O786 O 0.60018 0.39184 0.60073 0.0
C787 C 0.53797 0.30847 0.53407 0.0
O788 O 0.57195 0.30666 0.53688 0.0
C789 C 0.61814 0.48908 0.6021 0.0
C790 C 0.59344 0.51535 0.63149 0.0
C791 C 0.62253 0.51639 0.61746 0.0
N792 N 0.58783 0.47288 0.60681 0.0
N793 N 0.57318 0.48879 0.62436 0.0
C794 C 0.64329 0.47681 0.58432 0.0
H795 H 0.63804 0.44916 0.57982 0.0
H796 H 0.6401 0.49286 0.56872 0.0
H797 H 0.67056 0.47979 0.59042 0.0
C798 C 0.54241 0.42156 0.52783 0.0
N799 N 0.55367 0.41094 0.54832 0.0
N800 N 0.5616 0.43822 0.56096 0.0
C801 C 0.55434 0.46736 0.54897 0.0
C802 C 0.54166 0.45764 0.52764 0.0
C803 C 0.52693 0.39768 0.51034 0.0
H804 H 0.50084 0.38883 0.5162 0.0
H805 H 0.54384 0.37441 0.50826 0.0
H806 H 0.52411 0.41102 0.49364 0.0
O807 O 0.50484 0.37921 0.58517 0.0
O808 O 0.52277 0.42251 0.60753 0.0
H809 H 0.54047 0.50106 0.57675 0.0
H810 H 0.53651 0.52115 0.54891 0.0
C811 C 0.55215 0.50293 0.55948 0.0
H812 H 0.57885 0.51371 0.5613 0.0
H813 H 0.54959 0.48117 0.63173 0.0
O814 O 0.52146 0.33422 0.54238 0.0
C815 C 0.49981 0.40025 0.60164 0.0
Co816 Co 0.12239 0.29366 0.31322 0.0
Co817 Co 0.18423 0.32 0.34393 0.0
C818 C 0.11286 0.35385 0.34412 0.0
O819 O 0.10134 0.33355 0.32876 0.0
O820 O 0.14402 0.35129 0.35157 0.0
C821 C 0.06157 0.2898 0.28428 0.0
O822 O 0.05988 0.32373 0.28732 0.0
C823 C 0.24046 0.37017 0.35409 0.0
C824 C 0.26819 0.34393 0.38231 0.0
C825 C 0.26818 0.37401 0.3692 0.0
N826 N 0.22506 0.33919 0.35803 0.0
N827 N 0.2418 0.32365 0.37492 0.0
C828 C 0.22727 0.39621 0.33716 0.0
H829 H 0.19954 0.39089 0.33293 0.0
H830 H 0.24279 0.39416 0.32125 0.0
H831 H 0.23015 0.42313 0.34391 0.0
C832 C 0.17519 0.29514 0.27831 0.0
N833 N 0.16414 0.30562 0.29891 0.0
N834 N 0.19111 0.31362 0.3118 0.0
C835 C 0.22049 0.30714 0.29989 0.0
C836 C 0.21132 0.29514 0.27829 0.0
C837 C 0.15195 0.27754 0.26129 0.0
H838 H 0.14417 0.25156 0.26795 0.0
H839 H 0.12803 0.29336 0.25877 0.0
H840 H 0.1651 0.27399 0.24462 0.0
O841 O 0.1321 0.25597 0.3353 0.0
O842 O 0.17486 0.27391 0.3581 0.0
H843 H 0.25544 0.29072 0.32631 0.0
H844 H 0.27584 0.29521 0.29852 0.0
C845 C 0.25613 0.30626 0.31035 0.0
H846 H 0.26414 0.33318 0.31484 0.0
H847 H 0.23494 0.29936 0.38161 0.0
O848 O 0.08732 0.27308 0.29245 0.0
C849 C 0.15285 0.25088 0.35192 0.0
Co850 Co 0.45225 0.37208 0.06158 0.0
Co851 Co 0.42583 0.4344 0.0918 0.0
C852 C 0.3917 0.36323 0.0923 0.0
O853 O 0.41207 0.35139 0.07708 0.0
O854 O 0.3943 0.3945 0.09952 0.0
C855 C 0.45668 0.31052 0.0333 0.0
O856 O 0.42279 0.30838 0.03646 0.0
C857 C 0.37602 0.49093 0.10187 0.0
C858 C 0.40235 0.51824 0.13023 0.0
C859 C 0.37228 0.51845 0.11711 0.0
N860 N 0.40693 0.47539 0.10575 0.0
N861 N 0.42255 0.4919 0.1227 0.0
C862 C 0.34988 0.47801 0.0849 0.0
H863 H 0.35531 0.45042 0.08034 0.0
H864 H 0.35167 0.49396 0.06917 0.0
H865 H 0.32301 0.48056 0.0918 0.0
C866 C 0.45179 0.42459 0.02646 0.0
N867 N 0.44076 0.41376 0.04699 0.0
N868 N 0.43266 0.44089 0.05971 0.0
C869 C 0.43958 0.47013 0.04776 0.0
C870 C 0.45204 0.46072 0.02632 0.0
C871 C 0.46967 0.40112 0.00971 0.0
H872 H 0.4955 0.39338 0.01662 0.0
H873 H 0.45385 0.3772 0.00717 0.0
H874 H 0.47357 0.4141 0.99301 0.0
O875 O 0.4897 0.38179 0.08386 0.0
O876 O 0.47158 0.42491 0.10629 0.0
H877 H 0.45605 0.50523 0.07407 0.0
H878 H 0.45158 0.52544 0.04622 0.0
C879 C 0.4405 0.50584 0.05811 0.0
H880 H 0.41359 0.51389 0.06259 0.0
H881 H 0.44678 0.48485 0.12939 0.0
O882 O 0.47305 0.33674 0.04112 0.0
C883 C 0.49458 0.4027 0.10041 0.0
Co884 Co 0.37494 0.70329 0.81283 0.0
Co885 Co 0.31353 0.67654 0.84371 0.0
C886 C 0.38512 0.64309 0.84361 0.0
O887 O 0.39643 0.66345 0.82821 0.0
O888 O 0.354 0.64549 0.85115 0.0
C889 C 0.43578 0.70835 0.784 0.0
O890 O 0.43815 0.67445 0.78701 0.0
C891 C 0.25758 0.62611 0.8538 0.0
C892 C 0.23009 0.65187 0.8823 0.0
C893 C 0.23001 0.62202 0.86897 0.0
N894 N 0.27298 0.65704 0.85789 0.0
N895 N 0.2564 0.67229 0.87496 0.0
C896 C 0.27062 0.60033 0.83664 0.0
H897 H 0.2983 0.60577 0.83231 0.0
H898 H 0.25491 0.60256 0.82082 0.0
H899 H 0.26788 0.57332 0.84325 0.0
C900 C 0.32181 0.70168 0.77812 0.0
N901 N 0.33313 0.69116 0.79864 0.0
N902 N 0.30632 0.68301 0.81164 0.0
C903 C 0.27679 0.68944 0.79988 0.0
C904 C 0.28567 0.70157 0.77826 0.0
C905 C 0.34479 0.71945 0.76103 0.0
H906 H 0.35228 0.74556 0.76762 0.0
H907 H 0.36889 0.7039 0.75852 0.0
H908 H 0.33153 0.72274 0.74438 0.0
O909 O 0.3652 0.74076 0.83505 0.0
O910 O 0.32269 0.7226 0.85795 0.0
H911 H 0.24216 0.70551 0.82658 0.0
H912 H 0.22144 0.70148 0.79885 0.0
C913 C 0.24126 0.69022 0.81051 0.0
H914 H 0.23325 0.66325 0.81485 0.0
H915 H 0.26329 0.69648 0.88178 0.0
O916 O 0.4096 0.72448 0.79207 0.0
C917 C 0.34457 0.74573 0.85174 0.0
Co918 Co 0.04265 0.62363 0.56313 0.0
Co919 Co 0.06889 0.56173 0.59377 0.0
C920 C 0.10257 0.6332 0.59423 0.0
O921 O 0.0824 0.64476 0.57881 0.0
O922 O 0.09998 0.60201 0.60159 0.0
C923 C 0.03836 0.68473 0.53448 0.0
O924 O 0.07226 0.68677 0.53759 0.0
C925 C 0.11915 0.50557 0.60374 0.0
C926 C 0.09322 0.47791 0.63211 0.0
C927 C 0.12315 0.47791 0.61885 0.0
N928 N 0.0882 0.52095 0.6078 0.0
N929 N 0.07285 0.50426 0.62478 0.0
C930 C 0.14503 0.51871 0.58668 0.0
H931 H 0.13958 0.54639 0.58237 0.0
H932 H 0.14293 0.50305 0.57084 0.0
H933 H 0.172 0.51599 0.59337 0.0
C934 C 0.0442 0.571 0.52816 0.0
N935 N 0.05479 0.582 0.54875 0.0
N936 N 0.06271 0.55499 0.56162 0.0
C937 C 0.05606 0.52565 0.54971 0.0
C938 C 0.04399 0.53486 0.52814 0.0
C939 C 0.02657 0.59432 0.51121 0.0
H940 H 0.00053 0.60191 0.51784 0.0
H941 H 0.04231 0.61833 0.50881 0.0
H942 H 0.02316 0.58131 0.49447 0.0
O943 O 0.00488 0.61365 0.58509 0.0
O944 O 0.02266 0.57079 0.60783 0.0
H945 H 0.03941 0.49078 0.57612 0.0
H946 H 0.04394 0.47033 0.54834 0.0
C947 C 0.05501 0.49001 0.56018 0.0
H948 H 0.08187 0.48191 0.56472 0.0
H949 H 0.04863 0.51113 0.63157 0.0
O950 O 0.0219 0.65869 0.54246 0.0
C951 C -0.00035 0.59278 0.60161 0.0
Co952 Co 0.12044 0.70392 0.18405 0.0
Co953 Co 0.1823 0.67758 0.15342 0.0
C954 C 0.11093 0.64394 0.15289 0.0
O955 O 0.09933 0.66421 0.16825 0.0
O956 O 0.14217 0.64642 0.1456 0.0
C957 C 0.05907 0.708 0.21245 0.0
O958 O 0.05698 0.67416 0.20909 0.0
C959 C 0.23849 0.62767 0.14282 0.0
C960 C 0.26589 0.6544 0.11466 0.0
C961 C 0.26602 0.62412 0.12756 0.0
N962 N 0.22305 0.6587 0.13917 0.0
N963 N 0.23959 0.67453 0.12232 0.0
C964 C 0.22552 0.6013 0.15961 0.0
H965 H 0.19788 0.60662 0.16411 0.0
H966 H 0.24135 0.60293 0.17541 0.0
H967 H 0.22817 0.57453 0.15258 0.0
C968 C 0.17324 0.70233 0.21899 0.0
N969 N 0.16213 0.69174 0.19842 0.0
N970 N 0.18908 0.68363 0.18555 0.0
C971 C 0.21849 0.6901 0.19743 0.0
C972 C 0.20938 0.7023 0.21899 0.0
C973 C 0.15008 0.72018 0.23593 0.0
H974 H 0.14256 0.7462 0.22923 0.0
H975 H 0.12601 0.70457 0.23843 0.0
H976 H 0.16323 0.72366 0.25262 0.0
O977 O 0.13034 0.74183 0.16214 0.0
O978 O 0.17313 0.72375 0.13945 0.0
H979 H 0.2534 0.70684 0.17108 0.0
H980 H 0.27389 0.7018 0.19881 0.0
C981 C 0.2541 0.69102 0.18692 0.0
H982 H 0.26198 0.66416 0.18223 0.0
H983 H 0.23263 0.69891 0.11583 0.0
O984 O 0.08531 0.72449 0.20477 0.0
C985 C 0.15123 0.74688 0.1456 0.0
Co986 Co 0.04177 0.37094 0.93309 0.0
Co987 Co 0.06863 0.43263 0.9025 0.0
C988 C 0.10236 0.36121 0.90254 0.0
O989 O 0.08188 0.34972 0.91782 0.0
O990 O 0.0999 0.39236 0.89508 0.0
C991 C 0.03694 0.31007 0.96189 0.0
O992 O 0.0709 0.30803 0.95906 0.0
C993 C 0.11916 0.48856 0.89264 0.0
C994 C 0.09347 0.51637 0.86424 0.0
C995 C 0.12335 0.51622 0.87755 0.0
N996 N 0.08816 0.47332 0.8885 0.0
N997 N 0.07295 0.4901 0.87151 0.0
C998 C 0.14491 0.47528 0.90974 0.0
H999 H 0.1393 0.44763 0.91404 0.0
H1000 H 0.14285 0.49095 0.92558 0.0
H1001 H 0.17192 0.47786 0.90309 0.0
C1002 C 0.04286 0.42388 0.96796 0.0
N1003 N 0.05357 0.41271 0.94744 0.0
N1004 N 0.06186 0.4396 0.93456 0.0
C1005 C 0.05541 0.46905 0.9464 0.0
C1006 C 0.04307 0.46001 0.96794 0.0
C1007 C 0.02491 0.40079 0.9849 0.0
H1008 H -0.00103 0.39315 0.97811 0.0
H1009 H 0.04056 0.37678 0.98752 0.0
H1010 H 0.02124 0.41401 0.00154 0.0
O1011 O 0.00447 0.38064 0.91073 0.0
O1012 O 0.02272 0.42336 0.88804 0.0
H1013 H 0.03962 0.50405 0.91985 0.0
H1014 H 0.0438 0.52447 0.94766 0.0
C1015 C 0.05491 0.50468 0.93591 0.0
H1016 H 0.08194 0.51251 0.93161 0.0
H1017 H 0.04872 0.48335 0.86468 0.0
O1018 O 0.02063 0.33606 0.95372 0.0
C1019 C -0.0004 0.40136 0.89408 0.0
Co1020 Co 0.37471 0.2902 0.68313 0.0
Co1021 Co 0.31284 0.31691 0.65261 0.0
C1022 C 0.3844 0.35037 0.65227 0.0
O1023 O 0.39593 0.32999 0.66758 0.0
O1024 O 0.35318 0.34797 0.64491 0.0
C1025 C 0.43584 0.28557 0.71169 0.0
O1026 O 0.43789 0.31949 0.70868 0.0
C1027 C 0.25682 0.36738 0.64271 0.0
C1028 C 0.229 0.34156 0.61437 0.0
C1029 C 0.22914 0.37149 0.62762 0.0
N1030 N 0.27209 0.33638 0.63863 0.0
N1031 N 0.25529 0.32109 0.62167 0.0
C1032 C 0.27012 0.39323 0.65974 0.0
H1033 H 0.29776 0.38763 0.66407 0.0
H1034 H 0.25442 0.3913 0.67558 0.0
H1035 H 0.26756 0.4202 0.65302 0.0
C1036 C 0.32217 0.29213 0.7182 0.0
N1037 N 0.33315 0.30244 0.69756 0.0
N1038 N 0.30614 0.31058 0.68474 0.0
C1039 C 0.2768 0.30433 0.69674 0.0
C1040 C 0.28603 0.29235 0.71833 0.0
C1041 C 0.34539 0.27444 0.73519 0.0
H1042 H 0.35279 0.24831 0.72861 0.0
H1043 H 0.36952 0.29002 0.73753 0.0
H1044 H 0.33235 0.27122 0.75193 0.0
O1045 O 0.36464 0.25262 0.66103 0.0
O1046 O 0.32181 0.27078 0.63838 0.0
H1047 H 0.24169 0.28818 0.67033 0.0
H1048 H 0.22146 0.29237 0.6982 0.0
C1049 C 0.24109 0.30355 0.68636 0.0
H1050 H 0.23306 0.33051 0.68202 0.0
H1051 H 0.26206 0.29685 0.61487 0.0
O1052 O 0.40972 0.26921 0.70373 0.0
C1053 C 0.34375 0.24763 0.64447 0.0
Co1054 Co 0.45489 0.62719 0.43275 0.0
Co1055 Co 0.42853 0.56463 0.40272 0.0
C1056 C 0.39452 0.63597 0.40199 0.0
O1057 O 0.4149 0.64788 0.41718 0.0
O1058 O 0.39713 0.60466 0.39481 0.0
C1059 C 0.45916 0.68845 0.46126 0.0
O1060 O 0.42522 0.69036 0.45826 0.0
C1061 C 0.37885 0.50751 0.39355 0.0
C1062 C 0.40373 0.4811 0.36429 0.0
C1063 C 0.3745 0.48021 0.37818 0.0
N1064 N 0.40929 0.52357 0.38896 0.0
N1065 N 0.42404 0.50757 0.37149 0.0
C1066 C 0.35357 0.51993 0.41121 0.0
H1067 H 0.3589 0.54756 0.41572 0.0
H1068 H 0.35651 0.50388 0.42682 0.0
H1069 H 0.32635 0.51707 0.40498 0.0
C1070 C 0.45419 0.57528 0.46799 0.0
N1071 N 0.44311 0.5858 0.44744 0.0
N1072 N 0.43517 0.55846 0.43486 0.0
C1073 C 0.44226 0.52937 0.44695 0.0
C1074 C 0.45485 0.5392 0.46828 0.0
C1075 C 0.46966 0.59924 0.48544 0.0
H1076 H 0.49582 0.60793 0.47963 0.0
H1077 H 0.45284 0.6226 0.4874 0.0
H1078 H 0.47232 0.58602 0.5022 0.0
O1079 O 0.49256 0.61695 0.41074 0.0
O1080 O 0.4746 0.57359 0.38845 0.0
H1081 H 0.45636 0.4955 0.41932 0.0
H1082 H 0.4599 0.47552 0.44721 0.0
C1083 C 0.44446 0.49375 0.43653 0.0
H1084 H 0.41773 0.48307 0.43457 0.0
H1085 H 0.44773 0.5151 0.36421 0.0
O1086 O 0.47564 0.66247 0.45322 0.0
C1087 C 0.49766 0.59572 0.39438 0.0
C1088 C 0.53038 0.23209 0.21985 0.0
C1089 C 0.52925 0.26875 0.21873 0.0
H1090 H 0.5013 0.18447 0.2188 0.0
C1091 C 0.4968 0.28561 0.22042 0.0
H1092 H 0.55504 0.21831 0.21901 0.0
C1093 C 0.46595 0.26617 0.22027 0.0
C1094 C 0.46707 0.22957 0.21852 0.0
H1095 H 0.49502 0.31381 0.21993 0.0
H1096 H 0.44128 0.27997 0.21977 0.0
C1097 C 0.49953 0.21265 0.21979 0.0
C1098 C 0.979 0.21584 0.4687 0.0
C1099 C 0.01569 0.21723 0.46791 0.0
H1100 H 0.93119 0.24457 0.46733 0.0
C1101 C 0.03227 0.2498 0.46979 0.0
H1102 H 0.96541 0.19109 0.46769 0.0
C1103 C 0.01261 0.2805 0.46958 0.0
C1104 C 0.97604 0.27913 0.46754 0.0
H1105 H 0.06047 0.25178 0.46955 0.0
H1106 H 0.02626 0.30526 0.46927 0.0
C1107 C 0.95934 0.24654 0.46854 0.0
C1108 C 0.99556 0.78427 0.71967 0.0
C1109 C 0.02812 0.76754 0.71849 0.0
H1110 H 0.94008 0.77839 0.71854 0.0
C1111 C 0.02936 0.7309 0.71989 0.0
H1112 H 0.99367 0.81246 0.71894 0.0
C1113 C -0.00141 0.71132 0.71967 0.0
C1114 C 0.96608 0.72806 0.71798 0.0
H1115 H 0.05409 0.71721 0.71942 0.0
H1116 H 0.0005 0.68314 0.71896 0.0
C1117 C 0.96479 0.7647 0.71939 0.0
C1118 C 0.53677 0.74938 0.9694 0.0
C1119 C 0.52009 0.7168 0.96801 0.0
H1120 H 0.53075 0.80485 0.96875 0.0
C1121 C 0.48347 0.71544 0.96956 0.0
H1122 H 0.56495 0.75135 0.96857 0.0
C1123 C 0.46382 0.74615 0.96968 0.0
C1124 C 0.48047 0.77873 0.96819 0.0
H1125 H 0.46983 0.69068 0.96895 0.0
H1126 H 0.43563 0.74418 0.96907 0.0
C1127 C 0.51712 0.7801 0.96946 0.0
C1128 C 0.46519 0.7312 0.27594 0.0
C1129 C 0.46677 0.76786 0.27685 0.0
H1130 H 0.49366 0.68323 0.27723 0.0
C1131 C 0.49944 0.78428 0.27511 0.0
H1132 H 0.44036 0.71773 0.27684 0.0
C1133 C 0.53004 0.76445 0.27534 0.0
C1134 C 0.52847 0.72788 0.27726 0.0
H1135 H 0.50158 0.81247 0.27544 0.0
H1136 H 0.55487 0.77797 0.27574 0.0
C1137 C 0.49579 0.71137 0.27612 0.0
C1138 C 0.53454 0.2447 0.52537 0.0
C1139 C 0.51798 0.27731 0.52695 0.0
H1140 H 0.52834 0.18926 0.52596 0.0
C1141 C 0.48134 0.2788 0.52559 0.0
H1142 H 0.56272 0.24265 0.52603 0.0
C1143 C 0.46158 0.24816 0.52554 0.0
C1144 C 0.47816 0.21554 0.5269 0.0
H1145 H 0.46779 0.3036 0.52634 0.0
H1146 H 0.43341 0.25021 0.52634 0.0
C1147 C 0.51478 0.21406 0.52537 0.0
C1148 C 0.03087 0.26317 0.776 0.0
C1149 C 0.02973 0.22654 0.77752 0.0
H1150 H 0.0018 0.31081 0.77644 0.0
C1151 C 0.99728 0.20964 0.77602 0.0
H1152 H 0.05553 0.27697 0.77669 0.0
C1153 C 0.96644 0.22908 0.77589 0.0
C1154 C 0.96755 0.26573 0.77719 0.0
H1155 H 0.9955 0.18145 0.77683 0.0
H1156 H 0.94177 0.21529 0.77652 0.0
C1157 C 2e-05 0.28261 0.7758 0.0
C1158 C 0.03596 0.74728 0.02628 0.0
C1159 C 0.01926 0.77985 0.02761 0.0
H1160 H 0.0299 0.69182 0.02678 0.0
C1161 C 0.98267 0.78124 0.0258 0.0
H1162 H 0.06412 0.74531 0.0273 0.0
C1163 C 0.96301 0.75053 0.02548 0.0
C1164 C 0.97963 0.71794 0.02703 0.0
H1165 H 0.96904 0.80599 0.02637 0.0
H1166 H 0.93482 0.7525 0.0259 0.0
C1167 C 0.01629 0.71658 0.02602 0.0
C1168 C 0.49557 0.78541 0.77627 0.0
C1169 C 0.52833 0.76903 0.77731 0.0
H1170 H 0.44018 0.77881 0.77716 0.0
C1171 C 0.53003 0.73246 0.77538 0.0
H1172 H 0.49335 0.81354 0.77739 0.0
C1173 C 0.49951 0.71251 0.77525 0.0
C1174 C 0.46679 0.72879 0.77709 0.0
H1175 H 0.55492 0.71906 0.77571 0.0
H1176 H 0.50177 0.68433 0.77557 0.0
C1177 C 0.46505 0.76545 0.77618 0.0
C1178 C 0.03482 0.74853 0.52584 0.0
C1179 C 0.01827 0.71591 0.52747 0.0
H1180 H 0.02862 0.80397 0.52635 0.0
C1181 C 0.98163 0.71442 0.52622 0.0
H1182 H 0.063 0.7506 0.52643 0.0
C1183 C 0.96187 0.74506 0.52618 0.0
C1184 C 0.97844 0.7777 0.52743 0.0
H1185 H 0.96808 0.68962 0.52702 0.0
H1186 H 0.9337 0.743 0.52703 0.0
C1187 C 0.01506 0.77917 0.52585 0.0
C1188 C 0.00069 0.21391 0.27526 0.0
C1189 C 0.96817 0.23071 0.27645 0.0
H1190 H 0.05618 0.21966 0.27643 0.0
C1191 C 0.96701 0.26736 0.27509 0.0
H1192 H 0.00251 0.18571 0.27595 0.0
C1193 C 0.99782 0.28687 0.27535 0.0
C1194 C 0.03029 0.27005 0.27704 0.0
H1195 H 0.94231 0.2811 0.27557 0.0
H1196 H 0.99597 0.31505 0.2761 0.0
C1197 C 0.0315 0.23341 0.27558 0.0
C1198 C 0.53343 0.25051 0.02501 0.0
C1199 C 0.51706 0.21779 0.02651 0.0
H1200 H 0.52691 0.30592 0.02558 0.0
C1201 C 0.48044 0.21608 0.02511 0.0
H1202 H 0.56159 0.25274 0.02572 0.0
C1203 C 0.4605 0.24661 0.02503 0.0
C1204 C 0.47687 0.27935 0.02639 0.0
H1205 H 0.46703 0.19121 0.02581 0.0
H1206 H 0.43234 0.24439 0.02575 0.0
C1207 C 0.51349 0.28104 0.02497 0.0
C1208 C 0.49626 0.20899 0.71929 0.0
C1209 C 0.52888 0.22559 0.71797 0.0
H1210 H 0.44081 0.2152 0.71874 0.0
C1211 C 0.53037 0.26218 0.71977 0.0
H1212 H 0.4942 0.18084 0.71827 0.0
C1213 C 0.49973 0.28193 0.72005 0.0
C1214 C 0.46709 0.2654 0.71848 0.0
H1215 H 0.55517 0.27575 0.71924 0.0
H1216 H 0.50179 0.31011 0.71962 0.0
C1217 C 0.46561 0.22874 0.71951 0.0
C1218 C 0.46273 0.75235 0.46953 0.0
C1219 C 0.47921 0.71968 0.46819 0.0
H1220 H 0.46905 0.80776 0.46859 0.0
C1221 C 0.51585 0.71813 0.4696 0.0
H1222 H 0.43455 0.75445 0.46882 0.0
C1223 C 0.53567 0.74872 0.46947 0.0
C1224 C 0.51917 0.78136 0.46788 0.0
H1225 H 0.52934 0.69329 0.46903 0.0
H1226 H 0.56384 0.7466 0.46872 0.0
C1227 C 0.48255 0.78294 0.46935 0.0
C1228 C 0.99503 0.71165 0.2203 0.0
C1229 C 0.02777 0.72808 0.21924 0.0
H1230 H 0.93963 0.71808 0.21905 0.0
C1231 C 0.02936 0.7647 0.22078 0.0
H1232 H 0.99288 0.68349 0.21948 0.0
C1233 C -0.0012 0.78458 0.22053 0.0
C1234 C 0.96614 0.76816 0.2187 0.0
H1235 H 0.05423 0.77815 0.22041 0.0
H1236 H 0.00099 0.81275 0.21991 0.0
C1237 C 0.96447 0.73153 0.22 0.0
C1238 C 0.98005 0.28039 0.96971 0.0
C1239 C 0.01672 0.2789 0.96878 0.0
H1240 H 0.93215 0.25178 0.96849 0.0
C1241 C 0.03323 0.24629 0.97057 0.0
H1242 H 0.96652 0.30517 0.96877 0.0
C1243 C 0.01348 0.21564 0.97041 0.0
C1244 C 0.97689 0.2171 0.9685 0.0
H1245 H 0.06142 0.24423 0.97023 0.0
H1246 H 0.02705 0.19084 0.97004 0.0
C1247 C 0.96029 0.24974 0.9696 0.0
C1248 C 0.43572 0.10829 0.10337 0.0
C1249 C 0.46698 0.09935 0.11443 0.0
H1250 H 0.38404 0.12877 0.10683 0.0
C1251 C 0.46827 0.09959 0.13833 0.0
H1252 H 0.43414 0.10812 0.08492 0.0
C1253 C 0.43987 0.11212 0.15086 0.0
C1254 C 0.40952 0.12364 0.13966 0.0
H1255 H 0.49216 0.0929 0.1472 0.0
H1256 H 0.44243 0.11482 0.16917 0.0
C1257 C 0.407 0.11986 0.11591 0.0
C1258 C 0.14012 0.18734 0.35392 0.0
C1259 C 0.14869 0.21854 0.36516 0.0
H1260 H 0.11972 0.13558 0.35701 0.0
C1261 C 0.14793 0.21967 0.38905 0.0
H1262 H 0.1407 0.1859 0.33547 0.0
C1263 C 0.1352 0.19113 0.40137 0.0
C1264 C 0.12399 0.16083 0.38997 0.0
H1265 H 0.15432 0.24352 0.39806 0.0
H1266 H 0.13209 0.19355 0.41967 0.0
C1267 C 0.12835 0.1585 0.36626 0.0
C1268 C 0.05608 0.88505 0.6513 0.0
C1269 C 0.0866 0.87363 0.64026 0.0
H1270 H 0.00371 0.90394 0.64738 0.0
C1271 C 0.08935 0.87735 0.61652 0.0
H1272 H 0.05335 0.88242 0.66961 0.0
C1273 C 0.06069 0.8887 0.60383 0.0
C1274 C 0.02927 0.89748 0.61473 0.0
H1275 H 0.11245 0.86854 0.60756 0.0
H1276 H 0.06247 0.8888 0.58539 0.0
C1277 C 0.02773 0.89736 0.63862 0.0
C1278 C 0.35741 0.80924 0.85383 0.0
C1279 C 0.34875 0.77802 0.86502 0.0
H1280 H 0.37789 0.86096 0.85703 0.0
C1281 C 0.34948 0.77681 0.88891 0.0
H1282 H 0.35686 0.81075 0.83538 0.0
C1283 C 0.36224 0.80528 0.90128 0.0
C1284 C 0.37351 0.8356 0.88993 0.0
H1285 H 0.34303 0.75295 0.89788 0.0
H1286 H 0.36529 0.80281 0.91958 0.0
C1287 C 0.36921 0.83802 0.86622 0.0
C1288 C 0.43692 0.89114 0.39117 0.0
C1289 C 0.46809 0.89994 0.37996 0.0
H1290 H 0.38515 0.87079 0.38797 0.0
C1291 C 0.46915 0.89956 0.35606 0.0
H1292 H 0.43552 0.89142 0.40962 0.0
C1293 C 0.44059 0.88703 0.34367 0.0
C1294 C 0.41031 0.87564 0.35502 0.0
H1295 H 0.49297 0.90614 0.34707 0.0
H1296 H 0.44295 0.88423 0.32536 0.0
C1297 C 0.40804 0.87957 0.37877 0.0
C1298 C 0.36031 0.1881 0.59474 0.0
C1299 C 0.37213 0.15788 0.60595 0.0
H1300 H 0.34088 0.24031 0.59835 0.0
C1301 C 0.36854 0.15545 0.62971 0.0
H1302 H 0.36283 0.19058 0.57641 0.0
C1303 C 0.35691 0.18417 0.64224 0.0
C1304 C 0.34774 0.21533 0.63115 0.0
H1305 H 0.37765 0.13258 0.6388 0.0
H1306 H 0.35692 0.18267 0.66069 0.0
C1307 C 0.34774 0.2165 0.60725 0.0
C1308 C 0.0284 0.0969 0.85786 0.0
C1309 C 0.0295 0.0971 0.88176 0.0
H1310 H 0.05452 0.11158 0.827 0.0
C1311 C 0.06068 0.10617 0.89287 0.0
H1312 H 0.00458 0.09009 0.84895 0.0
C1313 C 0.08952 0.11749 0.88035 0.0
C1314 C 0.08719 0.12088 0.85657 0.0
H1315 H 0.06211 0.10631 0.91133 0.0
H1316 H 0.11241 0.12653 0.88945 0.0
C1317 C 0.05693 0.10918 0.84534 0.0
C1318 C 0.14817 0.77833 0.10847 0.0
C1319 C 0.14745 0.77927 0.13237 0.0
H1320 H 0.13418 0.80463 0.07754 0.0
C1321 C 0.13813 0.81038 0.14348 0.0
H1322 H 0.1552 0.75458 0.09956 0.0
C1323 C 0.12709 0.83929 0.13092 0.0
C1324 C 0.12425 0.83711 0.1071 0.0
H1325 H 0.1376 0.8117 0.16193 0.0
H1326 H 0.11784 0.86212 0.13999 0.0
C1327 C 0.13617 0.80692 0.09591 0.0
C1328 C 0.56216 0.88965 0.89196 0.0
C1329 C 0.53098 0.89884 0.88087 0.0
H1330 H 0.61387 0.86923 0.88845 0.0
C1331 C 0.52998 0.89945 0.85697 0.0
H1332 H 0.56354 0.88922 0.91041 0.0
C1333 C 0.55853 0.88734 0.84441 0.0
C1334 C 0.58874 0.8754 0.8556 0.0
H1335 H 0.50619 0.90638 0.84807 0.0
H1336 H 0.55616 0.88517 0.82606 0.0
C1337 C 0.59103 0.87849 0.87939 0.0
C1338 C 0.85954 0.80692 0.5938 0.0
C1339 C 0.87113 0.8371 0.60518 0.0
H1340 H 0.84047 0.75453 0.59715 0.0
C1341 C 0.86739 0.83928 0.62894 0.0
H1342 H 0.86221 0.80463 0.57547 0.0
C1343 C 0.85592 0.81035 0.64132 0.0
C1344 C 0.84706 0.77921 0.63007 0.0
H1345 H 0.87635 0.8621 0.63814 0.0
H1346 H 0.85585 0.81165 0.65977 0.0
C1347 C 0.84713 0.7783 0.60617 0.0
C1348 C 0.94008 0.11271 0.34311 0.0
C1349 C 0.90963 0.12404 0.35429 0.0
H1350 H 0.99233 0.09341 0.34682 0.0
C1351 C 0.90685 0.11968 0.37798 0.0
H1352 H 0.94282 0.1158 0.32484 0.0
C1353 C 0.93542 0.10779 0.39053 0.0
C1354 C 0.9668 0.09912 0.37953 0.0
H1355 H 0.88379 0.12838 0.38704 0.0
H1356 H 0.93365 0.10722 0.40897 0.0
C1357 C 0.96835 0.09988 0.35565 0.0
C1358 C 0.64784 0.21971 0.10637 0.0
C1359 C 0.64813 0.21841 0.13027 0.0
H1360 H 0.63273 0.19375 0.07555 0.0
C1361 C 0.63961 0.18705 0.14134 0.0
H1362 H 0.65423 0.24367 0.09749 0.0
C1363 C 0.62826 0.15824 0.1288 0.0
C1364 C 0.62428 0.16077 0.10507 0.0
H1365 H 0.63987 0.18546 0.15978 0.0
H1366 H 0.61961 0.1352 0.13789 0.0
C1367 C 0.63554 0.1912 0.09385 0.0
C1368 C 0.58997 0.11649 0.61536 0.0
C1369 C 0.58792 0.11963 0.63916 0.0
H1370 H 0.56222 0.10555 0.58446 0.0
C1371 C 0.55784 0.10768 0.65047 0.0
H1372 H 0.61272 0.12576 0.6062 0.0
C1373 C 0.5292 0.09543 0.63804 0.0
C1374 C 0.52998 0.0959 0.61414 0.0
H1375 H 0.55564 0.1099 0.66883 0.0
H1376 H 0.50551 0.08844 0.64705 0.0
C1377 C 0.56101 0.10519 0.60292 0.0
C1378 C 0.64953 0.77971 0.38757 0.0
C1379 C 0.64908 0.78057 0.36366 0.0
H1380 H 0.63514 0.80612 0.41838 0.0
C1381 C 0.63992 0.81165 0.35247 0.0
H1382 H 0.65642 0.75598 0.39655 0.0
C1383 C 0.62872 0.84061 0.36493 0.0
C1384 C 0.62553 0.8385 0.38873 0.0
H1385 H 0.6396 0.81291 0.33402 0.0
H1386 H 0.61956 0.8634 0.35578 0.0
C1387 C 0.63737 0.80836 0.40002 0.0
C1388 C 0.93963 0.88732 0.15139 0.0
C1389 C 0.90939 0.87584 0.14005 0.0
H1390 H 0.99207 0.90621 0.14798 0.0
C1391 C 0.90717 0.87952 0.11628 0.0
H1392 H 0.94194 0.88471 0.16972 0.0
C1393 C 0.93611 0.89085 0.10386 0.0
C1394 C 0.96728 0.89964 0.11508 0.0
H1395 H 0.88429 0.87066 0.10709 0.0
H1396 H 0.93478 0.89089 0.08541 0.0
C1397 C 0.96826 0.89961 0.13899 0.0
C1398 C 0.85923 0.18728 0.90107 0.0
C1399 C 0.87111 0.15705 0.88989 0.0
H1400 H 0.84016 0.23961 0.89741 0.0
C1401 C 0.86789 0.15471 0.86611 0.0
H1402 H 0.8615 0.18969 0.91942 0.0
C1403 C 0.85665 0.18354 0.85354 0.0
C1404 C 0.84751 0.21474 0.86462 0.0
H1405 H 0.87708 0.13184 0.85704 0.0
H1406 H 0.85697 0.18212 0.83509 0.0
C1407 C 0.84705 0.2158 0.88852 0.0
C1408 C 0.93611 0.60563 0.60335 0.0
C1409 C 0.96715 0.59679 0.6147 0.0
H1410 H 0.8844 0.62622 0.60631 0.0
C1411 C 0.96798 0.59718 0.6386 0.0
H1412 H 0.93489 0.60533 0.58489 0.0
C1413 C 0.93935 0.60985 0.65085 0.0
C1414 C 0.90924 0.62136 0.63936 0.0
H1415 H 0.99169 0.59057 0.6477 0.0
H1416 H 0.94155 0.61269 0.66917 0.0
C1417 C 0.90716 0.61735 0.61561 0.0
C1418 C 0.63744 0.68967 0.90023 0.0
C1419 C 0.62577 0.65934 0.88908 0.0
H1420 H 0.65627 0.74209 0.89652 0.0
C1421 C 0.62896 0.657 0.86528 0.0
H1422 H 0.6352 0.6921 0.91858 0.0
C1423 C 0.64003 0.68587 0.85269 0.0
C1424 C 0.64907 0.7171 0.86375 0.0
H1425 H 0.61993 0.63405 0.85624 0.0
H1426 H 0.63973 0.6844 0.83424 0.0
C1427 C 0.64948 0.71823 0.88765 0.0
C1428 C 0.58686 0.37904 0.11558 0.0
C1429 C 0.58407 0.37463 0.13927 0.0
H1430 H 0.55998 0.39113 0.08455 0.0
C1431 C 0.55335 0.38531 0.1504 0.0
H1432 H 0.61011 0.37081 0.10655 0.0
C1433 C 0.52493 0.39769 0.13782 0.0
C1434 C 0.52661 0.39862 0.11394 0.0
H1435 H 0.55058 0.38213 0.16866 0.0
H1436 H 0.5008 0.40375 0.1466 0.0
C1437 C 0.55814 0.39044 0.10298 0.0
C1438 C 0.84678 0.28092 0.38716 0.0
C1439 C 0.8476 0.28194 0.36326 0.0
H1440 H 0.86085 0.30702 0.41814 0.0
C1441 C 0.85705 0.31308 0.35223 0.0
H1442 H 0.83965 0.25715 0.39602 0.0
C1443 C 0.8682 0.3419 0.36486 0.0
C1444 C 0.87102 0.33959 0.38867 0.0
H1445 H 0.85766 0.31448 0.33378 0.0
H1446 H 0.87762 0.36472 0.35585 0.0
C1447 C 0.85887 0.30942 0.39978 0.0
C1448 C 0.90747 0.37667 0.87918 0.0
C1449 C 0.91015 0.37229 0.85549 0.0
H1450 H 0.9344 0.38911 0.91014 0.0
C1451 C 0.94059 0.38354 0.84427 0.0
H1452 H 0.88442 0.36802 0.88828 0.0
C1453 C 0.96893 0.39634 0.85676 0.0
C1454 C 0.96746 0.39714 0.88064 0.0
H1455 H 0.94327 0.38043 0.82599 0.0
H1456 H 0.9929 0.40276 0.8479 0.0
C1457 C 0.93611 0.38851 0.8917 0.0
C1458 C 0.86083 0.69185 0.09369 0.0
C1459 C 0.8718 0.66128 0.10488 0.0
H1460 H 0.84214 0.74432 0.09739 0.0
C1461 C 0.86751 0.6586 0.12858 0.0
H1462 H 0.86391 0.69453 0.07541 0.0
C1463 C 0.85603 0.68733 0.14114 0.0
C1464 C 0.84767 0.71877 0.13011 0.0
H1465 H 0.87596 0.63546 0.13765 0.0
H1466 H 0.85548 0.6856 0.15957 0.0
C1467 C 0.84838 0.72028 0.10623 0.0
C1468 C 0.52932 0.5984 0.35731 0.0
C1469 C 0.53014 0.59925 0.38121 0.0
H1470 H 0.55577 0.61234 0.32643 0.0
C1471 C 0.56122 0.60859 0.39236 0.0
H1472 H 0.5056 0.59135 0.34836 0.0
C1473 C 0.5902 0.6196 0.37985 0.0
C1474 C 0.58811 0.6224 0.35604 0.0
H1475 H 0.56245 0.6092 0.41082 0.0
H1476 H 0.61297 0.62894 0.38895 0.0
C1477 C 0.55799 0.61037 0.3448 0.0
C1478 C 0.64921 0.27663 0.60698 0.0
C1479 C 0.64887 0.27774 0.63088 0.0
H1480 H 0.63463 0.3027 0.57609 0.0
C1481 C 0.63977 0.30894 0.64196 0.0
H1482 H 0.65605 0.25281 0.59809 0.0
C1483 C 0.62849 0.33775 0.6294 0.0
C1484 C 0.62516 0.33538 0.60562 0.0
H1485 H 0.63954 0.31038 0.66041 0.0
H1486 H 0.61936 0.36063 0.63847 0.0
C1487 C 0.63697 0.30514 0.59443 0.0
C1488 C 0.06055 0.39069 0.3924 0.0
C1489 C 0.02945 0.39974 0.38119 0.0
H1490 H 0.11231 0.37033 0.38915 0.0
C1491 C 0.02855 0.39993 0.35728 0.0
H1492 H 0.06183 0.39055 0.41086 0.0
C1493 C 0.05718 0.38766 0.34486 0.0
C1494 C 0.08736 0.37595 0.35619 0.0
H1495 H 0.00479 0.40672 0.34829 0.0
H1496 H 0.05492 0.38525 0.32651 0.0
C1497 C 0.08949 0.37937 0.37997 0.0
C1498 C 0.35817 0.30742 0.09373 0.0
C1499 C 0.36971 0.33798 0.10467 0.0
H1500 H 0.33958 0.25499 0.09782 0.0
C1501 C 0.36641 0.34074 0.12844 0.0
H1502 H 0.36049 0.30467 0.0754 0.0
C1503 C 0.35545 0.31205 0.14124 0.0
C1504 C 0.34662 0.28058 0.13041 0.0
H1505 H 0.37532 0.36388 0.13733 0.0
H1506 H 0.35571 0.31384 0.15968 0.0
C1507 C 0.34623 0.27903 0.10652 0.0
C1508 C 0.44108 0.60971 0.84429 0.0
C1509 C 0.41078 0.62109 0.85562 0.0
H1510 H 0.49353 0.59085 0.84773 0.0
C1511 C 0.40856 0.61736 0.87938 0.0
H1512 H 0.4434 0.61235 0.82596 0.0
C1513 C 0.4375 0.60602 0.89181 0.0
C1514 C 0.46868 0.59726 0.88061 0.0
H1515 H 0.38565 0.62614 0.88856 0.0
H1516 H 0.43612 0.6059 0.91026 0.0
C1517 C 0.46971 0.59741 0.85671 0.0
C1518 C 0.13923 0.68512 0.64277 0.0
C1519 C 0.14833 0.71631 0.63169 0.0
H1520 H 0.11885 0.6334 0.63929 0.0
C1521 C 0.14857 0.71743 0.60779 0.0
H1522 H 0.13905 0.68366 0.66122 0.0
C1523 C 0.1363 0.68892 0.59524 0.0
C1524 C 0.12457 0.65865 0.60643 0.0
H1525 H 0.15541 0.74126 0.5989 0.0
H1526 H 0.13395 0.69135 0.5769 0.0
C1527 C 0.12792 0.6563 0.63021 0.0
C1528 C 0.08843 0.61806 0.11691 0.0
C1529 C 0.08553 0.62196 0.14063 0.0
H1530 H 0.06171 0.60654 0.08572 0.0
C1531 C 0.05488 0.61073 0.15161 0.0
H1532 H 0.11164 0.62669 0.10799 0.0
C1533 C 0.02656 0.59848 0.13887 0.0
C1534 C 0.02827 0.59821 0.11499 0.0
H1535 H 0.05203 0.61348 0.1699 0.0
H1536 H 0.00245 0.59208 0.14757 0.0
C1537 C 0.05981 0.60676 0.10416 0.0
C1538 C 0.13595 0.30538 0.90183 0.0
C1539 C 0.12459 0.33573 0.89056 0.0
H1540 H 0.155 0.25301 0.89829 0.0
C1541 C 0.1286 0.33817 0.86682 0.0
H1542 H 0.13311 0.30288 0.92013 0.0
C1543 C 0.14016 0.30938 0.85434 0.0
C1544 C 0.14888 0.27813 0.86547 0.0
H1545 H 0.11985 0.36113 0.85768 0.0
H1546 H 0.14047 0.31091 0.83589 0.0
C1547 C 0.14848 0.2769 0.88936 0.0
C1548 C 0.4363 0.38745 0.60388 0.0
C1549 C 0.46754 0.39633 0.61498 0.0
H1550 H 0.38453 0.36719 0.6073 0.0
C1551 C 0.46874 0.39627 0.63888 0.0
H1552 H 0.43479 0.38751 0.58543 0.0
C1553 C 0.44023 0.38393 0.65139 0.0
C1554 C 0.40989 0.37243 0.64016 0.0
H1555 H 0.49262 0.40293 0.64777 0.0
H1556 H 0.4427 0.38135 0.66971 0.0
C1557 C 0.40748 0.37608 0.6164 0.0
C1558 C 0.35704 0.68733 0.35351 0.0
C1559 C 0.34791 0.71854 0.36456 0.0
H1560 H 0.37773 0.63574 0.35701 0.0
C1561 C 0.34783 0.71976 0.38846 0.0
H1562 H 0.35708 0.68579 0.33506 0.0
C1563 C 0.36033 0.69137 0.40101 0.0
C1564 C 0.37216 0.66112 0.38983 0.0
H1565 H 0.34097 0.7436 0.39733 0.0
H1566 H 0.36283 0.6939 0.41934 0.0
C1567 C 0.3686 0.65863 0.36607 0.0
C1568 C 0.16743 0.05815 0.10189 0.0
C1569 C 0.15223 0.04312 0.12132 0.0
H1570 H 0.20353 0.09596 0.08884 0.0
C1571 C 0.16328 0.05419 0.14299 0.0
H1572 H 0.15877 0.05084 0.08499 0.0
C1573 C 0.18907 0.07982 0.14521 0.0
C1574 C 0.20384 0.09527 0.12577 0.0
H1575 H 0.15169 0.04325 0.15825 0.0
H1576 H 0.19636 0.08847 0.16211 0.0
C1577 C 0.19279 0.08419 0.1041 0.0
C1578 C 0.19315 0.91484 0.39177 0.0
C1579 C 0.2043 0.90373 0.37013 0.0
H1580 H 0.15882 0.94794 0.41082 0.0
C1581 C 0.18931 0.9189 0.35066 0.0
H1582 H 0.20403 0.90328 0.40706 0.0
C1583 C 0.16328 0.94429 0.35282 0.0
C1584 C 0.15215 0.95541 0.37446 0.0
H1585 H 0.19664 0.9102 0.33378 0.0
H1586 H 0.15157 0.95501 0.33753 0.0
C1587 C 0.16753 0.94064 0.39393 0.0
C1588 C 0.30354 0.91145 0.60383 0.0
C1589 C 0.29255 0.90077 0.62561 0.0
H1590 H 0.33769 0.94423 0.5844 0.0
C1591 C 0.30765 0.91637 0.64489 0.0
H1592 H 0.29256 0.89957 0.58868 0.0
C1593 C 0.33366 0.94173 0.64243 0.0
C1594 C 0.34465 0.95241 0.62066 0.0
H1595 H 0.30042 0.90803 0.66187 0.0
H1596 H 0.34547 0.95278 0.65759 0.0
C1597 C 0.32913 0.93724 0.60137 0.0
C1598 C 0.30801 0.07805 0.85136 0.0
C1599 C 0.29309 0.09327 0.87083 0.0
H1600 H 0.34563 0.04182 0.83822 0.0
C1601 C 0.30418 0.0821 0.89247 0.0
H1602 H 0.3007 0.08679 0.83447 0.0
C1603 C 0.3297 0.05619 0.89462 0.0
C1604 C 0.34504 0.04139 0.87515 0.0
H1605 H 0.29334 0.09368 0.90776 0.0
H1606 H 0.33837 0.04883 0.9115 0.0
C1607 C 0.33395 0.05256 0.85351 0.0
C1608 C 0.85985 0.91194 0.87396 0.0
C1609 C 0.85075 0.94735 0.87576 0.0
H1610 H 0.8423 0.85941 0.86966 0.0
C1611 C 0.81534 0.9567 0.87409 0.0
H1612 H 0.88687 0.90381 0.87513 0.0
C1613 C 0.78963 0.93109 0.8709 0.0
C1614 C 0.79887 0.89566 0.86917 0.0
H1615 H 0.80743 0.98377 0.87485 0.0
H1616 H 0.76258 0.93908 0.87021 0.0
C1617 C 0.83426 0.88645 0.87088 0.0
C1618 C 0.81475 0.03754 0.62093 0.0
C1619 C 0.85016 0.04693 0.61934 0.0
H1620 H 0.76194 0.05514 0.62452 0.0
C1621 C 0.8592 0.08238 0.62091 0.0
H1622 H 0.8069 0.01045 0.62034 0.0
C1623 C 0.83355 0.10788 0.62369 0.0
C1624 C 0.79816 0.09863 0.62535 0.0
H1625 H 0.88623 0.09053 0.61977 0.0
H1626 H 0.84154 0.13496 0.62475 0.0
C1627 C 0.78898 0.06316 0.62385 0.0
C1628 C 0.66774 0.05988 0.39314 0.0
C1629 C 0.65247 0.04459 0.3738 0.0
H1630 H 0.7039 0.09785 0.40594 0.0
C1631 C 0.66349 0.0554 0.35206 0.0
H1632 H 0.65914 0.05279 0.41009 0.0
C1633 C 0.68928 0.081 0.34968 0.0
C1634 C 0.70413 0.0967 0.36902 0.0
H1635 H 0.65187 0.04427 0.33687 0.0
H1636 H 0.69653 0.08943 0.33273 0.0
C1637 C 0.69311 0.0859 0.39075 0.0
C1638 C 0.68867 0.91869 0.14422 0.0
C1639 C 0.70364 0.90335 0.12481 0.0
H1640 H 0.65104 0.95503 0.15722 0.0
C1641 C 0.6926 0.91438 0.10313 0.0
H1642 H 0.69593 0.91006 0.16114 0.0
C1643 C 0.66709 0.94027 0.10088 0.0
C1644 C 0.65173 0.95521 0.12029 0.0
H1645 H 0.70348 0.90269 0.08788 0.0
H1646 H 0.65847 0.94752 0.08396 0.0
C1647 C 0.66275 0.94417 0.14197 0.0
C1648 C 0.66316 0.55237 0.64111 0.0
C1649 C 0.65161 0.5417 0.61946 0.0
H1650 H 0.69662 0.58626 0.66022 0.0
C1651 C 0.66638 0.55716 0.60002 0.0
H1652 H 0.65195 0.54112 0.6564 0.0
C1653 C 0.69185 0.58314 0.60223 0.0
C1654 C 0.70343 0.59376 0.62389 0.0
H1655 H 0.65736 0.55021 0.58314 0.0
H1656 H 0.70228 0.59518 0.58697 0.0
C1657 C 0.689 0.57795 0.64331 0.0
C1658 C 0.69011 0.4163 0.85076 0.0
C1659 C 0.7049 0.40081 0.87018 0.0
H1660 H 0.65282 0.45296 0.83774 0.0
C1661 C 0.69392 0.41194 0.89186 0.0
H1662 H 0.69733 0.40761 0.83385 0.0
C1663 C 0.66863 0.43806 0.89409 0.0
C1664 C 0.65342 0.45313 0.87467 0.0
H1665 H 0.70466 0.40015 0.90711 0.0
H1666 H 0.66004 0.44539 0.911 0.0
C1667 C 0.6644 0.44201 0.85299 0.0
C1668 C 0.8264 0.44167 0.10012 0.0
C1669 C 0.8418 0.45643 0.11958 0.0
H1670 H 0.78986 0.40431 0.08702 0.0
C1671 C 0.83054 0.4455 0.14123 0.0
H1672 H 0.83518 0.44887 0.08323 0.0
C1673 C 0.80445 0.42018 0.14341 0.0
C1674 C 0.78953 0.40491 0.12395 0.0
H1675 H 0.84225 0.45625 0.15651 0.0
H1676 H 0.79708 0.41155 0.1603 0.0
C1677 C 0.8007 0.41594 0.1023 0.0
C1678 C 0.83376 0.61047 0.37125 0.0
C1679 C 0.79837 0.60125 0.36954 0.0
H1680 H 0.88641 0.59309 0.3753 0.0
C1681 C 0.78916 0.56579 0.37106 0.0
H1682 H 0.84179 0.63754 0.37018 0.0
C1683 C 0.8149 0.54015 0.37405 0.0
C1684 C 0.85031 0.54951 0.37571 0.0
H1685 H 0.76212 0.55779 0.37035 0.0
H1686 H 0.80701 0.51308 0.37465 0.0
C1687 C 0.85938 0.58495 0.37413 0.0
C1688 C 0.30479 0.41373 0.39314 0.0
C1689 C 0.29335 0.40316 0.37144 0.0
H1690 H 0.33924 0.44651 0.41237 0.0
C1691 C 0.30798 0.41894 0.35207 0.0
H1692 H 0.2942 0.4017 0.40836 0.0
C1693 C 0.3339 0.44443 0.35437 0.0
C1694 C 0.34533 0.45503 0.37607 0.0
H1695 H 0.30046 0.41069 0.33513 0.0
H1696 H 0.34528 0.45565 0.33913 0.0
C1697 C 0.33033 0.43961 0.39545 0.0
C1698 C 0.33228 0.5539 0.1415 0.0
C1699 C 0.34305 0.54339 0.11965 0.0
H1700 H 0.29929 0.58748 0.16119 0.0
C1701 C 0.32738 0.55871 0.10047 0.0
H1702 H 0.34421 0.54272 0.15657 0.0
C1703 C 0.30185 0.58451 0.10312 0.0
C1704 C 0.29109 0.59501 0.12498 0.0
H1705 H 0.33578 0.55183 0.08344 0.0
H1706 H 0.29074 0.59651 0.08806 0.0
C1707 C 0.30634 0.57926 0.14415 0.0
C1708 C 0.18981 0.57766 0.85161 0.0
C1709 C 0.20484 0.59287 0.87105 0.0
H1710 H 0.15205 0.54151 0.83854 0.0
C1711 C 0.19373 0.58179 0.89271 0.0
H1712 H 0.1971 0.58632 0.83471 0.0
C1713 C 0.16811 0.55599 0.89491 0.0
C1714 C 0.15269 0.54118 0.87547 0.0
H1715 H 0.20464 0.59338 0.90799 0.0
H1716 H 0.15944 0.54871 0.91181 0.0
C1717 C 0.16379 0.55226 0.85381 0.0
C1718 C 0.19311 0.41184 0.60381 0.0
C1719 C 0.20415 0.40078 0.62549 0.0
H1720 H 0.15904 0.44508 0.58466 0.0
C1721 C 0.18925 0.41618 0.6449 0.0
H1722 H 0.20393 0.40012 0.58856 0.0
C1723 C 0.16338 0.44174 0.64266 0.0
C1724 C 0.15235 0.4528 0.62098 0.0
H1725 H 0.19651 0.40755 0.66182 0.0
H1726 H 0.15172 0.45262 0.65791 0.0
C1727 C 0.16766 0.43781 0.60157 0.0
C1728 C 0.26168 0.21771 0.25642 0.0
C1729 C 0.26558 0.22644 0.23337 0.0
H1730 H 0.24148 0.23334 0.28894 0.0
C1731 C 0.25302 0.25858 0.22535 0.0
H1732 H 0.27177 0.19324 0.2629 0.0
C1733 C 0.23641 0.28166 0.2402 0.0
C1734 C 0.23245 0.27292 0.26324 0.0
H1735 H 0.25655 0.26601 0.20767 0.0
H1736 H 0.22633 0.30614 0.23371 0.0
C1737 C 0.24504 0.24078 0.27127 0.0
C1738 C 0.00608 0.99405 0.51979 0.0
C1739 C 0.97454 0.98027 0.51158 0.0
H1740 H 0.05288 0.02218 0.51163 0.0
C1741 C 0.96607 0.9836 0.48846 0.0
H1742 H 0.01329 0.99103 0.53754 0.0
C1743 C 0.98882 0.00087 0.4737 0.0
C1744 C 0.02038 0.01463 0.4819 0.0
H1745 H 0.94205 0.97264 0.48185 0.0
H1746 H 0.98155 0.00397 0.45596 0.0
C1747 C 0.02885 0.01123 0.50502 0.0
C1748 C 0.25182 0.75593 0.77157 0.0
C1749 C 0.26431 0.72384 0.76339 0.0
H1750 H 0.22497 0.80352 0.76347 0.0
C1751 C 0.25998 0.71518 0.74037 0.0
H1752 H 0.25565 0.76331 0.78923 0.0
C1753 C 0.24312 0.73832 0.72567 0.0
C1754 C 0.23069 0.77044 0.73384 0.0
H1755 H 0.26998 0.69074 0.73376 0.0
H1756 H 0.23934 0.73097 0.708 0.0
C1757 C 0.23493 0.77906 0.75687 0.0
C1758 C 0.50755 0.99382 0.97469 0.0
C1759 C 0.47544 0.9812 0.98277 0.0
H1760 H 0.55489 0.021 0.98292 0.0
C1761 C 0.46656 0.98553 0.00575 0.0
H1762 H 0.51508 0.98997 0.95707 0.0
C1763 C 0.48944 0.00263 0.0205 0.0
C1764 C 0.52155 0.01525 0.01242 0.0
H1765 H 0.44211 0.97542 0.01227 0.0
H1766 H 0.48191 0.00647 0.03812 0.0
C1767 C 0.53043 0.01091 0.98944 0.0
C1768 C 0.2597 0.78038 0.2399 0.0
C1769 C 0.26425 0.77201 0.26294 0.0
H1770 H 0.23878 0.76417 0.2077 0.0
C1771 C 0.25197 0.73995 0.27132 0.0
H1772 H 0.26952 0.8048 0.23314 0.0
C1773 C 0.23504 0.71659 0.2568 0.0
C1774 C 0.23052 0.72495 0.23375 0.0
H1775 H 0.25599 0.7328 0.289 0.0
H1776 H 0.22523 0.69216 0.26355 0.0
C1777 C 0.24277 0.75703 0.22538 0.0
C1778 C 0.46625 0.01023 0.48908 0.0
C1779 C 0.475 0.01437 0.5121 0.0
H1780 H 0.48223 0.9905 0.45651 0.0
C1781 C 0.50754 0.0027 0.52004 0.0
H1782 H 0.44147 0.01967 0.48265 0.0
C1783 C 0.53098 0.98674 0.50512 0.0
C1784 C 0.52222 0.98258 0.4821 0.0
H1785 H 0.51499 0.00645 0.53769 0.0
H1786 H 0.55576 0.9773 0.51155 0.0
C1787 C 0.48968 0.99427 0.47416 0.0
C1788 C 0.25252 0.23792 0.72538 0.0
C1789 C 0.26491 0.27015 0.73338 0.0
H1790 H 0.22591 0.19031 0.73376 0.0
C1791 C 0.26075 0.27902 0.75637 0.0
H1792 H 0.25625 0.23039 0.70774 0.0
C1793 C 0.24407 0.25597 0.77122 0.0
C1794 C 0.2317 0.22373 0.76322 0.0
H1795 H 0.2707 0.30357 0.76284 0.0
H1796 H 0.24036 0.2635 0.78886 0.0
C1797 C 0.23584 0.21487 0.74022 0.0
C1798 C 0.98996 0.99449 0.02186 0.0
C1799 C 0.02191 0.98181 0.01355 0.0
H1800 H 0.9423 0.02131 0.01391 0.0
C1801 C 0.03012 0.9856 0.99042 0.0
H1802 H 0.98291 0.99103 0.03961 0.0
C1803 C 0.00672 0.00216 0.97576 0.0
C1804 C 0.97482 0.01489 0.98408 0.0
H1805 H 0.05443 0.97545 0.98371 0.0
H1806 H 0.01374 0.00554 0.958 0.0
C1807 C 0.9666 0.01113 0.00721 0.0
C1808 C 0.75076 0.75681 0.72325 0.0
C1809 C 0.7637 0.72498 0.73157 0.0
H1810 H 0.72368 0.80432 0.73122 0.0
C1811 C 0.75999 0.71675 0.7547 0.0
H1812 H 0.75413 0.76387 0.7055 0.0
C1813 C 0.74334 0.74006 0.76937 0.0
C1814 C 0.73041 0.77188 0.76105 0.0
H1815 H 0.77033 0.69252 0.76141 0.0
H1816 H 0.74007 0.73305 0.78714 0.0
C1817 C 0.73402 0.78008 0.73791 0.0
C1818 C 0.73593 0.28278 0.25476 0.0
C1819 C 0.73157 0.27416 0.23174 0.0
H1820 H 0.75679 0.26702 0.28707 0.0
C1821 C 0.74427 0.2422 0.22349 0.0
H1822 H 0.72577 0.30713 0.26142 0.0
C1823 C 0.76137 0.21914 0.23812 0.0
C1824 C 0.76561 0.22771 0.26116 0.0
H1825 H 0.74041 0.23486 0.20583 0.0
H1826 H 0.77147 0.19477 0.23147 0.0
C1827 C 0.75301 0.25972 0.26939 0.0
C1828 C 0.74454 0.25404 0.72486 0.0
C1829 C 0.73121 0.22238 0.73318 0.0
H1830 H 0.77209 0.30127 0.73282 0.0
C1831 C 0.73479 0.21412 0.75632 0.0
H1832 H 0.74132 0.26109 0.70709 0.0
C1833 C 0.75181 0.23721 0.77098 0.0
C1834 C 0.76509 0.2689 0.76266 0.0
H1835 H 0.72417 0.19001 0.76302 0.0
H1836 H 0.75508 0.23012 0.78874 0.0
C1837 C 0.7615 0.27715 0.73953 0.0
C1838 C 0.75123 0.73989 0.22385 0.0
C1839 C 0.76407 0.77174 0.23222 0.0
H1840 H 0.72416 0.69233 0.23173 0.0
C1841 C 0.76024 0.77994 0.25534 0.0
H1842 H 0.7547 0.73286 0.2061 0.0
C1843 C 0.74352 0.75661 0.26996 0.0
C1844 C 0.73067 0.72477 0.2616 0.0
H1845 H 0.77051 0.80419 0.26209 0.0
H1846 H 0.74013 0.76362 0.28772 0.0
C1847 C 0.73444 0.71658 0.23847 0.0
C1848 C 0.50698 0.49378 0.01989 0.0
C1849 C 0.47489 0.48158 0.01151 0.0
H1850 H 0.55498 0.52011 0.01208 0.0
C1851 C 0.46671 0.48578 0.9884 0.0
H1852 H 0.51398 0.49003 0.03762 0.0
C1853 C 0.49026 0.50235 0.97384 0.0
C1854 C 0.52235 0.51456 0.98222 0.0
H1855 H 0.44228 0.476 0.98164 0.0
H1856 H 0.48324 0.50613 0.95612 0.0
C1857 C 0.53054 0.51032 0.00532 0.0
C1858 C 0.98946 0.50121 0.52143 0.0
C1859 C 0.02146 0.51388 0.51319 0.0
H1860 H 0.94175 0.47455 0.51335 0.0
C1861 C 0.02975 0.51014 0.49007 0.0
H1862 H 0.98235 0.50462 0.53917 0.0
C1863 C 0.00637 0.49371 0.47534 0.0
C1864 C 0.97439 0.48103 0.48358 0.0
H1865 H 0.05411 0.52027 0.48342 0.0
H1866 H 0.01344 0.49039 0.45758 0.0
C1867 C 0.96611 0.4847 0.50671 0.0
C1868 C 0.02939 0.48544 0.0059 0.0
C1869 C 0.02085 0.48136 0.98284 0.0
H1870 H 0.01369 0.50619 0.03826 0.0
C1871 C 0.98896 0.49429 0.9746 0.0
H1872 H 0.05368 0.47512 0.01255 0.0
C1873 C 0.96597 0.51142 0.98926 0.0
C1874 C 0.97452 0.5155 0.01232 0.0
H1875 H 0.98166 0.49065 0.95691 0.0
H1876 H 0.9417 0.52177 0.98261 0.0
C1877 C 0.0064 0.50255 0.02057 0.0
C1878 C 0.46264 0.49044 0.49584 0.0
C1879 C 0.47697 0.51807 0.4834 0.0
H1880 H 0.47221 0.44997 0.5202 0.0
C1881 C 0.51269 0.52588 0.48553 0.0
H1882 H 0.43516 0.48416 0.49438 0.0
C1883 C 0.53382 0.50647 0.50016 0.0
C1884 C 0.5195 0.47883 0.51258 0.0
H1885 H 0.52428 0.54691 0.47578 0.0
H1886 H 0.56131 0.51274 0.5016 0.0
C1887 C 0.48378 0.47102 0.51046 0.0
loop_
_geom_bond_atom_site_label_1
_geom_bond_atom_site_label_2
_geom_bond_distance
_geom_bond_site_symmetry_2
_ccdc_geom_bond_type
Co0 O3 1.970 . S
Co0 N17 1.989 . S
Co0 O25 1.967 . S
Co0 O32 1.920 . S
Co1 O4 1.966 . S
Co1 N10 2.022 . S
Co1 N18 1.993 . S
Co1 O26 1.941 . S
C2 O3 1.258 . S
C2 O4 1.263 . S
O3 Co0 1.970 . S
O3 C2 1.258 . S
O4 Co1 1.966 . S
O4 C2 1.263 . S
C5 O6 1.235 . S
C5 O32 1.289 . S
O6 C5 1.235 . S
C7 C9 1.400 . S
C7 N10 1.351 . S
C7 C12 1.501 . S
C8 C9 1.387 . S
C8 N11 1.341 . S
C9 C7 1.400 . S
C9 C8 1.387 . S
N10 Co1 2.022 . S
N10 C7 1.351 . S
N10 N11 1.365 . S
N11 C8 1.341 . S
N11 N10 1.365 . S
N11 H31 0.862 . S
C12 C7 1.501 . S
C12 H13 0.961 . S
C12 H14 0.961 . S
C12 H15 0.960 . S
H13 C12 0.961 . S
H14 C12 0.961 . S
H15 C12 0.960 . S
C16 N17 1.342 . S
C16 C20 1.401 . S
C16 C21 1.499 . S
N17 Co0 1.989 . S
N17 C16 1.342 . S
N17 N18 1.388 . S
N18 Co1 1.993 . S
N18 N17 1.388 . S
N18 C19 1.346 . S
C19 N18 1.346 . S
C19 C20 1.396 . S
C19 C29 1.510 . S
C20 C16 1.401 . S
C20 C19 1.396 . S
C21 C16 1.499 . S
C21 H22 0.959 . S
C21 H23 0.960 . S
C21 H24 0.961 . S
H22 C21 0.959 . S
H23 C21 0.960 . S
H24 C21 0.961 . S
O25 Co0 1.967 . S
O25 C33 1.258 . S
O26 Co1 1.941 . S
O26 C33 1.266 . S
H27 C29 0.959 . S
H28 C29 0.961 . S
C29 C19 1.510 . S
C29 H27 0.959 . S
C29 H28 0.961 . S
C29 H30 0.960 . S
H30 C29 0.960 . S
H31 N11 0.862 . S
O32 Co0 1.920 . S
O32 C5 1.289 . S
C33 O25 1.258 . S
C33 O26 1.266 . S
Co34 O37 1.970 . S
Co34 N51 1.989 . S
Co34 O59 1.967 . S
Co34 O66 1.920 . S
Co35 O38 1.966 . S
Co35 N44 2.022 . S
Co35 N52 1.993 . S
Co35 O60 1.941 . S
C36 O37 1.258 . S
C36 O38 1.263 . S
O37 Co34 1.970 . S
O37 C36 1.258 . S
O38 Co35 1.966 . S
O38 C36 1.263 . S
C39 O40 1.235 . S
C39 O66 1.289 . S
O40 C39 1.235 . S
C41 C43 1.400 1_545 S
C41 N44 1.351 . S
C41 C46 1.501 . S
C42 C43 1.387 . S
C42 N45 1.341 1_565 S
C43 C41 1.400 1_565 S
C43 C42 1.387 . S
N44 Co35 2.022 . S
N44 C41 1.351 . S
N44 N45 1.365 . S
N45 C42 1.341 1_545 S
N45 N44 1.365 . S
N45 H65 0.862 . S
C46 C41 1.501 . S
C46 H47 0.961 . S
C46 H48 0.961 . S
C46 H49 0.960 . S
H47 C46 0.961 . S
H48 C46 0.961 . S
H49 C46 0.960 . S
C50 N51 1.342 . S
C50 C54 1.401 . S
C50 C55 1.499 . S
N51 Co34 1.989 . S
N51 C50 1.342 . S
N51 N52 1.388 . S
N52 Co35 1.993 . S
N52 N51 1.388 . S
N52 C53 1.346 . S
C53 N52 1.346 . S
C53 C54 1.396 . S
C53 C63 1.510 . S
C54 C50 1.401 . S
C54 C53 1.396 . S
C55 C50 1.499 . S
C55 H56 0.959 . S
C55 H57 0.960 . S
C55 H58 0.987 . S
H56 C55 0.959 . S
H57 C55 0.960 . S
H58 C55 0.987 . S
O59 Co34 1.967 . S
O59 C67 1.258 . S
O60 Co35 1.941 . S
O60 C67 1.266 . S
H61 C63 0.959 1_565 S
H62 C63 0.961 . S
C63 C53 1.510 . S
C63 H61 0.959 1_545 S
C63 H62 0.961 . S
C63 H64 0.960 . S
H64 C63 0.960 . S
H65 N45 0.862 . S
O66 Co34 1.920 . S
O66 C39 1.289 . S
C67 O59 1.258 . S
C67 O60 1.266 . S
Co68 O71 1.970 . S
Co68 N85 1.989 . S
Co68 O93 1.967 . S
Co68 O100 1.920 . S
Co69 O72 1.966 . S
Co69 N78 2.022 . S
Co69 N86 1.993 . S
Co69 O94 1.941 . S
C70 O71 1.258 . S
C70 O72 1.263 . S
O71 Co68 1.970 . S
O71 C70 1.258 . S
O72 Co69 1.966 . S
O72 C70 1.263 . S
C73 O74 1.235 . S
C73 O100 1.289 . S
O74 C73 1.235 . S
C75 C77 1.400 . S
C75 N78 1.351 . S
C75 C80 1.501 . S
C76 C77 1.387 . S
C76 N79 1.341 . S
C77 C75 1.400 . S
C77 C76 1.387 . S
N78 Co69 2.022 . S
N78 C75 1.351 . S
N78 N79 1.365 . S
N79 C76 1.341 . S
N79 N78 1.365 . S
N79 H99 0.862 . S
C80 C75 1.501 . S
C80 H81 0.961 . S
C80 H82 0.961 . S
C80 H83 0.960 . S
H81 C80 0.961 . S
H82 C80 0.961 . S
H83 C80 0.960 . S
C84 N85 1.342 . S
C84 C88 1.401 . S
C84 C89 1.499 . S
N85 Co68 1.989 . S
N85 C84 1.342 . S
N85 N86 1.388 . S
N86 Co69 1.993 . S
N86 N85 1.388 . S
N86 C87 1.346 . S
C87 N86 1.346 . S
C87 C88 1.396 . S
C87 C97 1.510 . S
C88 C84 1.401 . S
C88 C87 1.396 . S
C89 C84 1.499 . S
C89 H90 0.959 . S
C89 H91 0.960 . S
C89 H92 0.961 . S
H90 C89 0.959 . S
H91 C89 0.960 . S
H92 C89 0.961 . S
O93 Co68 1.967 . S
O93 C101 1.258 . S
O94 Co69 1.941 . S
O94 C101 1.266 . S
H95 C97 0.959 . S
H96 C97 0.961 . S
C97 C87 1.510 . S
C97 H95 0.959 . S
C97 H96 0.961 . S
C97 H98 0.960 . S
H98 C97 0.960 . S
H99 N79 0.862 . S
O100 Co68 1.920 . S
O100 C73 1.289 . S
C101 O93 1.258 . S
C101 O94 1.266 . S
Co102 O105 1.970 . S
Co102 N119 1.989 . S
Co102 O127 1.967 . S
Co102 O134 1.920 . S
Co103 O106 1.966 . S
Co103 N112 2.022 . S
Co103 N120 1.993 . S
Co103 O128 1.941 . S
C104 O105 1.258 . S
C104 O106 1.263 . S
O105 Co102 1.970 . S
O105 C104 1.258 . S
O106 Co103 1.966 . S
O106 C104 1.263 . S
C107 O108 1.235 . S
C107 O134 1.289 . S
O108 C107 1.235 . S
C109 C111 1.400 1_565 S
C109 N112 1.351 . S
C109 C114 1.501 . S
C110 C111 1.387 . S
C110 N113 1.341 1_545 S
C111 C109 1.400 1_545 S
C111 C110 1.387 . S
N112 Co103 2.022 . S
N112 C109 1.351 . S
N112 N113 1.365 . S
N113 C110 1.341 1_565 S
N113 N112 1.365 . S
N113 H133 0.862 . S
C114 C109 1.501 . S
C114 H115 0.961 . S
C114 H116 0.961 . S
C114 H117 0.960 . S
H115 C114 0.961 . S
H116 C114 0.961 . S
H117 C114 0.960 . S
C118 N119 1.342 . S
C118 C122 1.401 . S
C118 C123 1.499 . S
N119 Co102 1.989 . S
N119 C118 1.342 . S
N119 N120 1.388 . S
N120 Co103 1.993 . S
N120 N119 1.388 . S
N120 C121 1.346 . S
C121 N120 1.346 . S
C121 C122 1.396 . S
C121 C131 1.510 . S
C122 C118 1.401 . S
C122 C121 1.396 . S
C123 C118 1.499 . S
C123 H124 0.959 . S
C123 H125 0.960 1_556 S
C123 H126 0.961 . S
H124 C123 0.959 . S
H125 C123 0.960 1_554 S
H126 C123 0.961 . S
O127 Co102 1.967 . S
O127 C135 1.258 . S
O128 Co103 1.941 . S
O128 C135 1.266 . S
H129 C131 0.959 1_545 S
H130 C131 0.961 . S
C131 C121 1.510 . S
C131 H129 0.959 1_565 S
C131 H130 0.961 . S
C131 H132 0.960 . S
H132 C131 0.960 . S
H133 N113 0.862 . S
O134 Co102 1.920 . S
O134 C107 1.289 . S
C135 O127 1.258 . S
C135 O128 1.266 . S
Co136 O139 1.970 . S
Co136 N153 1.989 . S
Co136 O161 1.967 . S
Co136 O168 1.920 . S
Co137 O140 1.966 . S
Co137 N146 2.022 . S
Co137 N154 1.993 . S
Co137 O162 1.941 . S
C138 O139 1.258 . S
C138 O140 1.263 . S
O139 Co136 1.970 . S
O139 C138 1.258 . S
O140 Co137 1.966 . S
O140 C138 1.263 . S
C141 O142 1.235 . S
C141 O168 1.289 . S
O142 C141 1.235 . S
C143 C145 1.400 . S
C143 N146 1.351 . S
C143 C148 1.501 . S
C144 C145 1.387 . S
C144 N147 1.341 . S
C145 C143 1.400 . S
C145 C144 1.387 . S
N146 Co137 2.022 . S
N146 C143 1.351 . S
N146 N147 1.365 . S
N147 C144 1.341 . S
N147 N146 1.365 . S
N147 H167 0.862 . S
C148 C143 1.501 . S
C148 H149 0.961 . S
C148 H150 0.961 . S
C148 H151 0.960 . S
H149 C148 0.961 . S
H150 C148 0.961 . S
H151 C148 0.960 . S
C152 N153 1.342 . S
C152 C156 1.401 . S
C152 C157 1.499 . S
N153 Co136 1.989 . S
N153 C152 1.342 . S
N153 N154 1.388 . S
N154 Co137 1.993 . S
N154 N153 1.388 . S
N154 C155 1.346 . S
C155 N154 1.346 . S
C155 C156 1.396 . S
C155 C165 1.510 . S
C156 C152 1.401 . S
C156 C155 1.396 . S
C157 C152 1.499 . S
C157 H158 0.959 . S
C157 H159 0.960 . S
C157 H160 0.961 . S
H158 C157 0.959 . S
H159 C157 0.960 . S
H160 C157 0.961 . S
O161 Co136 1.967 . S
O161 C169 1.258 . S
O162 Co137 1.941 . S
O162 C169 1.266 . S
H163 C165 0.959 . S
H164 C165 0.961 . S
C165 C155 1.510 . S
C165 H163 0.959 . S
C165 H164 0.961 . S
C165 H166 0.960 . S
H166 C165 0.960 . S
H167 N147 0.862 . S
O168 Co136 1.920 . S
O168 C141 1.289 . S
C169 O161 1.258 . S
C169 O162 1.266 . S
Co170 O173 1.970 . S
Co170 N187 1.989 . S
Co170 O195 1.967 . S
Co170 O202 1.920 . S
Co171 O174 1.966 . S
Co171 N180 2.022 . S
Co171 N188 1.993 . S
Co171 O196 1.941 . S
C172 O173 1.258 . S
C172 O174 1.263 . S
O173 Co170 1.970 . S
O173 C172 1.258 . S
O174 Co171 1.966 . S
O174 C172 1.263 . S
C175 O176 1.235 . S
C175 O202 1.289 . S
O176 C175 1.235 . S
C177 C179 1.400 1_545 S
C177 N180 1.351 . S
C177 C182 1.501 . S
C178 C179 1.387 . S
C178 N181 1.341 1_565 S
C179 C177 1.400 1_565 S
C179 C178 1.387 . S
N180 Co171 2.022 . S
N180 C177 1.351 . S
N180 N181 1.365 . S
N181 C178 1.341 1_545 S
N181 N180 1.365 . S
N181 H201 0.862 . S
C182 C177 1.501 . S
C182 H183 0.961 . S
C182 H184 0.961 . S
C182 H185 0.960 . S
H183 C182 0.961 . S
H184 C182 0.961 . S
H185 C182 0.960 . S
C186 N187 1.342 . S
C186 C190 1.401 . S
C186 C191 1.499 . S
N187 Co170 1.989 . S
N187 C186 1.342 . S
N187 N188 1.388 . S
N188 Co171 1.993 . S
N188 N187 1.388 . S
N188 C189 1.346 . S
C189 N188 1.346 . S
C189 C190 1.396 . S
C189 C199 1.510 . S
C190 C186 1.401 . S
C190 C189 1.396 . S
C191 C186 1.499 . S
C191 H192 0.959 . S
C191 H193 0.960 . S
C191 H194 0.961 . S
H192 C191 0.959 . S
H193 C191 0.960 . S
H194 C191 0.961 . S
O195 Co170 1.967 . S
O195 C203 1.258 . S
O196 Co171 1.941 . S
O196 C203 1.266 . S
H197 C199 0.959 1_565 S
H198 C199 0.961 . S
C199 C189 1.510 . S
C199 H197 0.959 1_545 S
C199 H198 0.961 . S
C199 H200 0.960 . S
H200 C199 0.960 . S
H201 N181 0.862 . S
O202 Co170 1.920 . S
O202 C175 1.289 . S
C203 O195 1.258 . S
C203 O196 1.266 . S
Co204 O207 1.970 . S
Co204 N221 1.989 . S
Co204 O229 1.967 . S
Co204 O236 1.920 . S
Co205 O208 1.966 . S
Co205 N214 2.022 . S
Co205 N222 1.993 . S
Co205 O230 1.941 . S
C206 O207 1.258 . S
C206 O208 1.263 . S
O207 Co204 1.970 . S
O207 C206 1.258 . S
O208 Co205 1.966 . S
O208 C206 1.263 . S
C209 O210 1.235 . S
C209 O236 1.289 . S
O210 C209 1.235 . S
C211 C213 1.400 . S
C211 N214 1.351 . S
C211 C216 1.501 . S
C212 C213 1.387 . S
C212 N215 1.341 . S
C213 C211 1.400 . S
C213 C212 1.387 . S
N214 Co205 2.022 . S
N214 C211 1.351 . S
N214 N215 1.365 . S
N215 C212 1.341 . S
N215 N214 1.365 . S
N215 H235 0.862 . S
C216 C211 1.501 . S
C216 H217 0.961 . S
C216 H218 0.961 . S
C216 H219 0.960 . S
H217 C216 0.961 . S
H218 C216 0.961 . S
H219 C216 0.960 . S
C220 N221 1.342 . S
C220 C224 1.401 . S
C220 C225 1.499 . S
N221 Co204 1.989 . S
N221 C220 1.342 . S
N221 N222 1.388 . S
N222 Co205 1.993 . S
N222 N221 1.388 . S
N222 C223 1.346 . S
C223 N222 1.346 . S
C223 C224 1.396 . S
C223 C233 1.510 . S
C224 C220 1.401 . S
C224 C223 1.396 . S
C225 C220 1.499 . S
C225 H226 0.959 . S
C225 H227 0.960 . S
C225 H228 0.961 . S
H226 C225 0.959 . S
H227 C225 0.960 . S
H228 C225 0.961 . S
O229 Co204 1.967 . S
O229 C237 1.258 . S
O230 Co205 1.941 . S
O230 C237 1.266 . S
H231 C233 0.959 . S
H232 C233 0.961 . S
C233 C223 1.510 . S
C233 H231 0.959 . S
C233 H232 0.961 . S
C233 H234 0.960 . S
H234 C233 0.960 . S
H235 N215 0.862 . S
O236 Co204 1.920 . S
O236 C209 1.289 . S
C237 O229 1.258 . S
C237 O230 1.266 . S
Co238 O241 1.970 . S
Co238 N255 1.989 . S
Co238 O263 1.967 . S
Co238 O270 1.920 . S
Co239 O242 1.966 . S
Co239 N248 2.022 . S
Co239 N256 1.993 . S
Co239 O264 1.941 . S
C240 O241 1.258 . S
C240 O242 1.263 . S
O241 Co238 1.970 . S
O241 C240 1.258 . S
O242 Co239 1.966 . S
O242 C240 1.263 . S
C243 O244 1.235 . S
C243 O270 1.289 . S
O244 C243 1.235 . S
C245 C247 1.400 1_565 S
C245 N248 1.351 . S
C245 C250 1.501 . S
C246 C247 1.387 . S
C246 N249 1.341 1_545 S
C247 C245 1.400 1_545 S
C247 C246 1.387 . S
N248 Co239 2.022 . S
N248 C245 1.351 . S
N248 N249 1.365 . S
N249 C246 1.341 1_565 S
N249 N248 1.365 . S
N249 H269 0.862 . S
C250 C245 1.501 . S
C250 H251 0.961 . S
C250 H252 0.961 . S
C250 H253 0.960 . S
H251 C250 0.961 . S
H252 C250 0.961 . S
H253 C250 0.960 . S
C254 N255 1.342 . S
C254 C258 1.401 . S
C254 C259 1.499 . S
N255 Co238 1.989 . S
N255 C254 1.342 . S
N255 N256 1.388 . S
N256 Co239 1.993 . S
N256 N255 1.388 . S
N256 C257 1.346 . S
C257 N256 1.346 . S
C257 C258 1.396 . S
C257 C267 1.510 . S
C258 C254 1.401 . S
C258 C257 1.396 . S
C259 C254 1.499 . S
C259 H260 0.959 . S
C259 H261 0.960 1_554 S
C259 H262 0.987 . S
H260 C259 0.959 . S
H261 C259 0.960 1_556 S
H262 C259 0.987 . S
O263 Co238 1.967 . S
O263 C271 1.258 . S
O264 Co239 1.941 . S
O264 C271 1.266 . S
H265 C267 0.959 1_545 S
H266 C267 0.961 . S
C267 C257 1.510 . S
C267 H265 0.959 1_565 S
C267 H266 0.961 . S
C267 H268 0.960 . S
H268 C267 0.960 . S
H269 N249 0.862 . S
O270 Co238 1.920 . S
O270 C243 1.289 . S
C271 O263 1.258 . S
C271 O264 1.266 . S
Co272 O275 1.970 . S
Co272 N289 1.989 . S
Co272 O297 1.967 . S
Co272 O304 1.920 . S
Co273 O276 1.966 . S
Co273 N282 2.022 . S
Co273 N290 1.993 . S
Co273 O298 1.941 . S
C274 O275 1.258 . S
C274 O276 1.263 . S
O275 Co272 1.970 . S
O275 C274 1.258 . S
O276 Co273 1.966 . S
O276 C274 1.263 . S
C277 O278 1.235 . S
C277 O304 1.289 . S
O278 C277 1.235 . S
C279 C281 1.400 . S
C279 N282 1.351 . S
C279 C284 1.501 . S
C280 C281 1.387 . S
C280 N283 1.341 . S
C281 C279 1.400 . S
C281 C280 1.387 . S
N282 Co273 2.022 . S
N282 C279 1.351 . S
N282 N283 1.365 . S
N283 C280 1.341 . S
N283 N282 1.365 . S
N283 H303 0.862 . S
C284 C279 1.501 . S
C284 H285 0.961 . S
C284 H286 0.961 . S
C284 H287 0.960 . S
H285 C284 0.961 . S
H286 C284 0.961 . S
H287 C284 0.960 . S
C288 N289 1.342 . S
C288 C292 1.401 . S
C288 C293 1.499 . S
N289 Co272 1.989 . S
N289 C288 1.342 . S
N289 N290 1.388 . S
N290 Co273 1.993 . S
N290 N289 1.388 . S
N290 C291 1.346 . S
C291 N290 1.346 . S
C291 C292 1.396 . S
C291 C301 1.510 . S
C292 C288 1.401 . S
C292 C291 1.396 . S
C293 C288 1.499 . S
C293 H294 0.959 . S
C293 H295 0.960 . S
C293 H296 0.961 . S
H294 C293 0.959 . S
H295 C293 0.960 . S
H296 C293 0.961 . S
O297 Co272 1.967 . S
O297 C305 1.258 . S
O298 Co273 1.941 . S
O298 C305 1.266 . S
H299 C301 0.959 . S
H300 C301 0.961 . S
C301 C291 1.510 . S
C301 H299 0.959 . S
C301 H300 0.961 . S
C301 H302 0.960 . S
H302 C301 0.960 . S
H303 N283 0.862 . S
O304 Co272 1.920 . S
O304 C277 1.289 . S
C305 O297 1.258 . S
C305 O298 1.266 . S
Co306 O309 1.970 . S
Co306 N323 1.989 . S
Co306 O331 1.967 . S
Co306 O338 1.920 . S
Co307 O310 1.966 . S
Co307 N316 2.022 . S
Co307 N324 1.993 . S
Co307 O332 1.941 . S
C308 O309 1.258 . S
C308 O310 1.263 . S
O309 Co306 1.970 . S
O309 C308 1.258 . S
O310 Co307 1.966 . S
O310 C308 1.263 . S
C311 O312 1.235 . S
C311 O338 1.289 . S
O312 C311 1.235 . S
C313 C315 1.400 1_565 S
C313 N316 1.351 . S
C313 C318 1.501 . S
C314 C315 1.387 . S
C314 N317 1.341 1_545 S
C315 C313 1.400 1_545 S
C315 C314 1.387 . S
N316 Co307 2.022 . S
N316 C313 1.351 . S
N316 N317 1.365 . S
N317 C314 1.341 1_565 S
N317 N316 1.365 . S
N317 H337 0.862 . S
C318 C313 1.501 . S
C318 H319 0.961 . S
C318 H320 0.961 . S
C318 H321 0.960 . S
H319 C318 0.961 . S
H320 C318 0.961 . S
H321 C318 0.960 . S
C322 N323 1.342 . S
C322 C326 1.401 . S
C322 C327 1.499 . S
N323 Co306 1.989 . S
N323 C322 1.342 . S
N323 N324 1.388 . S
N324 Co307 1.993 . S
N324 N323 1.388 . S
N324 C325 1.346 . S
C325 N324 1.346 . S
C325 C326 1.396 . S
C325 C335 1.510 . S
C326 C322 1.401 . S
C326 C325 1.396 . S
C327 C322 1.499 . S
C327 H328 0.959 . S
C327 H329 0.960 . S
C327 H330 0.987 . S
H328 C327 0.959 . S
H329 C327 0.960 . S
H330 C327 0.987 . S
O331 Co306 1.967 . S
O331 C339 1.258 . S
O332 Co307 1.941 . S
O332 C339 1.266 . S
H333 C335 0.959 1_545 S
H334 C335 0.961 . S
C335 C325 1.510 . S
C335 H333 0.959 1_565 S
C335 H334 0.961 . S
C335 H336 0.960 . S
H336 C335 0.960 . S
H337 N317 0.862 . S
O338 Co306 1.920 . S
O338 C311 1.289 . S
C339 O331 1.258 . S
C339 O332 1.266 . S
Co340 O343 1.970 . S
Co340 N357 1.989 . S
Co340 O365 1.967 . S
Co340 O372 1.920 . S
Co341 O344 1.966 . S
Co341 N350 2.022 . S
Co341 N358 1.993 . S
Co341 O366 1.941 . S
C342 O343 1.258 . S
C342 O344 1.263 . S
O343 Co340 1.970 . S
O343 C342 1.258 . S
O344 Co341 1.966 . S
O344 C342 1.263 . S
C345 O346 1.235 . S
C345 O372 1.289 . S
O346 C345 1.235 . S
C347 C349 1.400 . S
C347 N350 1.351 . S
C347 C352 1.501 . S
C348 C349 1.387 . S
C348 N351 1.341 . S
C349 C347 1.400 . S
C349 C348 1.387 . S
N350 Co341 2.022 . S
N350 C347 1.351 . S
N350 N351 1.365 . S
N351 C348 1.341 . S
N351 N350 1.365 . S
N351 H371 0.862 . S
C352 C347 1.501 . S
C352 H353 0.961 . S
C352 H354 0.961 . S
C352 H355 0.960 . S
H353 C352 0.961 . S
H354 C352 0.961 . S
H355 C352 0.960 . S
C356 N357 1.342 . S
C356 C360 1.401 . S
C356 C361 1.499 . S
N357 Co340 1.989 . S
N357 C356 1.342 . S
N357 N358 1.388 . S
N358 Co341 1.993 . S
N358 N357 1.388 . S
N358 C359 1.346 . S
C359 N358 1.346 . S
C359 C360 1.396 . S
C359 C369 1.510 . S
C360 C356 1.401 . S
C360 C359 1.396 . S
C361 C356 1.499 . S
C361 H362 0.959 . S
C361 H363 0.960 . S
C361 H364 0.961 . S
H362 C361 0.959 . S
H363 C361 0.960 . S
H364 C361 0.961 . S
O365 Co340 1.967 . S
O365 C373 1.258 . S
O366 Co341 1.941 . S
O366 C373 1.266 . S
H367 C369 0.959 . S
H368 C369 0.961 . S
C369 C359 1.510 . S
C369 H367 0.959 . S
C369 H368 0.961 . S
C369 H370 0.960 . S
H370 C369 0.960 . S
H371 N351 0.862 . S
O372 Co340 1.920 . S
O372 C345 1.289 . S
C373 O365 1.258 . S
C373 O366 1.266 . S
Co374 O377 1.970 . S
Co374 N391 1.989 . S
Co374 O399 1.967 . S
Co374 O406 1.920 . S
Co375 O378 1.966 . S
Co375 N384 2.022 . S
Co375 N392 1.993 . S
Co375 O400 1.941 . S
C376 O377 1.258 . S
C376 O378 1.263 . S
O377 Co374 1.970 . S
O377 C376 1.258 . S
O378 Co375 1.966 . S
O378 C376 1.263 . S
C379 O380 1.235 . S
C379 O406 1.289 . S
O380 C379 1.235 . S
C381 C383 1.400 1_545 S
C381 N384 1.351 . S
C381 C386 1.501 . S
C382 C383 1.387 . S
C382 N385 1.341 1_565 S
C383 C381 1.400 1_565 S
C383 C382 1.387 . S
N384 Co375 2.022 . S
N384 C381 1.351 . S
N384 N385 1.365 . S
N385 C382 1.341 1_545 S
N385 N384 1.365 . S
N385 H405 0.862 . S
C386 C381 1.501 . S
C386 H387 0.961 . S
C386 H388 0.961 . S
C386 H389 0.960 . S
H387 C386 0.961 . S
H388 C386 0.961 . S
H389 C386 0.960 . S
C390 N391 1.342 . S
C390 C394 1.401 . S
C390 C395 1.499 . S
N391 Co374 1.989 . S
N391 C390 1.342 . S
N391 N392 1.388 . S
N392 Co375 1.993 . S
N392 N391 1.388 . S
N392 C393 1.346 . S
C393 N392 1.346 . S
C393 C394 1.396 . S
C393 C403 1.510 . S
C394 C390 1.401 . S
C394 C393 1.396 . S
C395 C390 1.499 . S
C395 H396 0.959 . S
C395 H397 0.960 1_554 S
C395 H398 0.961 . S
H396 C395 0.959 . S
H397 C395 0.960 1_556 S
H398 C395 0.961 . S
O399 Co374 1.967 . S
O399 C407 1.258 . S
O400 Co375 1.941 . S
O400 C407 1.266 . S
H401 C403 0.959 1_565 S
H402 C403 0.961 . S
C403 C393 1.510 . S
C403 H401 0.959 1_545 S
C403 H402 0.961 . S
C403 H404 0.960 . S
H404 C403 0.960 . S
H405 N385 0.862 . S
O406 Co374 1.920 . S
O406 C379 1.289 . S
C407 O399 1.258 . S
C407 O400 1.266 . S
Co408 O411 1.970 . S
Co408 N425 1.989 . S
Co408 O433 1.967 . S
Co408 O440 1.920 . S
Co409 O412 1.966 . S
Co409 N418 2.022 . S
Co409 N426 1.993 . S
Co409 O434 1.941 . S
C410 O411 1.258 . S
C410 O412 1.263 . S
O411 Co408 1.970 . S
O411 C410 1.258 . S
O412 Co409 1.966 . S
O412 C410 1.263 . S
C413 O414 1.235 . S
C413 O440 1.289 . S
O414 C413 1.235 . S
C415 C417 1.400 . S
C415 N418 1.351 . S
C415 C420 1.501 . S
C416 C417 1.387 . S
C416 N419 1.341 . S
C417 C415 1.400 . S
C417 C416 1.387 . S
N418 Co409 2.022 . S
N418 C415 1.351 . S
N418 N419 1.365 . S
N419 C416 1.341 . S
N419 N418 1.365 . S
N419 H439 0.862 . S
C420 C415 1.501 . S
C420 H421 0.961 . S
C420 H422 0.961 . S
C420 H423 0.960 . S
H421 C420 0.961 . S
H422 C420 0.961 . S
H423 C420 0.960 . S
C424 N425 1.342 . S
C424 C428 1.401 . S
C424 C429 1.499 . S
N425 Co408 1.989 . S
N425 C424 1.342 . S
N425 N426 1.388 . S
N426 Co409 1.993 . S
N426 N425 1.388 . S
N426 C427 1.346 . S
C427 N426 1.346 . S
C427 C428 1.396 . S
C427 C437 1.510 . S
C428 C424 1.401 . S
C428 C427 1.396 . S
C429 C424 1.499 . S
C429 H430 0.959 . S
C429 H431 0.960 . S
C429 H432 0.961 . S
H430 C429 0.959 . S
H431 C429 0.960 . S
H432 C429 0.961 . S
O433 Co408 1.967 . S
O433 C441 1.258 . S
O434 Co409 1.941 . S
O434 C441 1.266 . S
H435 C437 0.959 . S
H436 C437 0.961 . S
C437 C427 1.510 . S
C437 H435 0.959 . S
C437 H436 0.961 . S
C437 H438 0.960 . S
H438 C437 0.960 . S
H439 N419 0.862 . S
O440 Co408 1.920 . S
O440 C413 1.289 . S
C441 O433 1.258 . S
C441 O434 1.266 . S
Co442 O445 1.970 . S
Co442 N459 1.989 . S
Co442 O467 1.967 . S
Co442 O474 1.920 . S
Co443 O446 1.966 . S
Co443 N452 2.022 . S
Co443 N460 1.993 . S
Co443 O468 1.941 . S
C444 O445 1.258 . S
C444 O446 1.263 . S
O445 Co442 1.970 . S
O445 C444 1.258 . S
O446 Co443 1.966 . S
O446 C444 1.263 . S
C447 O448 1.235 . S
C447 O474 1.289 . S
O448 C447 1.235 . S
C449 C451 1.400 1_565 S
C449 N452 1.351 . S
C449 C454 1.501 . S
C450 C451 1.387 . S
C450 N453 1.341 1_545 S
C451 C449 1.400 1_545 S
C451 C450 1.387 . S
N452 Co443 2.022 . S
N452 C449 1.351 . S
N452 N453 1.365 . S
N453 C450 1.341 1_565 S
N453 N452 1.365 . S
N453 H473 0.862 . S
C454 C449 1.501 . S
C454 H455 0.961 . S
C454 H456 0.961 . S
C454 H457 0.960 . S
H455 C454 0.961 . S
H456 C454 0.961 . S
H457 C454 0.960 . S
C458 N459 1.342 . S
C458 C462 1.401 . S
C458 C463 1.499 . S
N459 Co442 1.989 . S
N459 C458 1.342 . S
N459 N460 1.388 . S
N460 Co443 1.993 . S
N460 N459 1.388 . S
N460 C461 1.346 . S
C461 N460 1.346 . S
C461 C462 1.396 . S
C461 C471 1.510 . S
C462 C458 1.401 . S
C462 C461 1.396 . S
C463 C458 1.499 . S
C463 H464 0.959 . S
C463 H465 0.960 . S
C463 H466 0.961 . S
H464 C463 0.959 . S
H465 C463 0.960 . S
H466 C463 0.961 . S
O467 Co442 1.967 . S
O467 C475 1.258 . S
O468 Co443 1.941 . S
O468 C475 1.266 . S
H469 C471 0.959 1_545 S
H470 C471 0.961 . S
C471 C461 1.510 . S
C471 H469 0.959 1_565 S
C471 H470 0.961 . S
C471 H472 0.960 . S
H472 C471 0.960 . S
H473 N453 0.862 . S
O474 Co442 1.920 . S
O474 C447 1.289 . S
C475 O467 1.258 . S
C475 O468 1.266 . S
Co476 O479 1.970 . S
Co476 N493 1.989 . S
Co476 O501 1.967 . S
Co476 O508 1.920 . S
Co477 O480 1.966 . S
Co477 N486 2.022 . S
Co477 N494 1.993 . S
Co477 O502 1.941 . S
C478 O479 1.258 . S
C478 O480 1.263 . S
O479 Co476 1.970 . S
O479 C478 1.258 . S
O480 Co477 1.966 . S
O480 C478 1.263 . S
C481 O482 1.235 . S
C481 O508 1.289 . S
O482 C481 1.235 . S
C483 C485 1.400 . S
C483 N486 1.351 . S
C483 C488 1.501 . S
C484 C485 1.387 . S
C484 N487 1.341 . S
C485 C483 1.400 . S
C485 C484 1.387 . S
N486 Co477 2.022 . S
N486 C483 1.351 . S
N486 N487 1.365 . S
N487 C484 1.341 . S
N487 N486 1.365 . S
N487 H507 0.862 . S
C488 C483 1.501 . S
C488 H489 0.961 . S
C488 H490 0.961 . S
C488 H491 0.960 . S
H489 C488 0.961 . S
H490 C488 0.961 . S
H491 C488 0.960 . S
C492 N493 1.342 . S
C492 C496 1.401 . S
C492 C497 1.499 . S
N493 Co476 1.989 . S
N493 C492 1.342 . S
N493 N494 1.388 . S
N494 Co477 1.993 . S
N494 N493 1.388 . S
N494 C495 1.346 . S
C495 N494 1.346 . S
C495 C496 1.396 . S
C495 C505 1.510 . S
C496 C492 1.401 . S
C496 C495 1.396 . S
C497 C492 1.499 . S
C497 H498 0.959 . S
C497 H499 0.960 . S
C497 H500 0.961 . S
H498 C497 0.959 . S
H499 C497 0.960 . S
H500 C497 0.961 . S
O501 Co476 1.967 . S
O501 C509 1.258 . S
O502 Co477 1.941 . S
O502 C509 1.266 . S
H503 C505 0.959 . S
H504 C505 0.961 . S
C505 C495 1.510 . S
C505 H503 0.959 . S
C505 H504 0.961 . S
C505 H506 0.960 . S
H506 C505 0.960 . S
H507 N487 0.862 . S
O508 Co476 1.920 . S
O508 C481 1.289 . S
C509 O501 1.258 . S
C509 O502 1.266 . S
Co510 O513 1.970 . S
Co510 N527 1.989 . S
Co510 O535 1.967 . S
Co510 O542 1.920 . S
Co511 O514 1.966 . S
Co511 N520 2.022 . S
Co511 N528 1.993 . S
Co511 O536 1.941 . S
C512 O513 1.258 . S
C512 O514 1.263 . S
O513 Co510 1.970 . S
O513 C512 1.258 . S
O514 Co511 1.966 . S
O514 C512 1.263 . S
C515 O516 1.235 . S
C515 O542 1.289 . S
O516 C515 1.235 . S
C517 C519 1.400 1_545 S
C517 N520 1.351 . S
C517 C522 1.501 . S
C518 C519 1.387 . S
C518 N521 1.341 1_565 S
C519 C517 1.400 1_565 S
C519 C518 1.387 . S
N520 Co511 2.022 . S
N520 C517 1.351 . S
N520 N521 1.365 . S
N521 C518 1.341 1_545 S
N521 N520 1.365 . S
N521 H541 0.862 . S
C522 C517 1.501 . S
C522 H523 0.961 . S
C522 H524 0.961 . S
C522 H525 0.960 . S
H523 C522 0.961 . S
H524 C522 0.961 . S
H525 C522 0.960 . S
C526 N527 1.342 . S
C526 C530 1.401 . S
C526 C531 1.499 . S
N527 Co510 1.989 . S
N527 C526 1.342 . S
N527 N528 1.388 . S
N528 Co511 1.993 . S
N528 N527 1.388 . S
N528 C529 1.346 . S
C529 N528 1.346 . S
C529 C530 1.396 . S
C529 C539 1.510 . S
C530 C526 1.401 . S
C530 C529 1.396 . S
C531 C526 1.499 . S
C531 H532 0.959 . S
C531 H533 0.960 1_556 S
C531 H534 0.987 . S
H532 C531 0.959 . S
H533 C531 0.960 1_554 S
H534 C531 0.987 . S
O535 Co510 1.967 . S
O535 C543 1.258 . S
O536 Co511 1.941 . S
O536 C543 1.266 . S
H537 C539 0.959 1_565 S
H538 C539 0.961 . S
C539 C529 1.510 . S
C539 H537 0.959 1_545 S
C539 H538 0.961 . S
C539 H540 0.960 . S
H540 C539 0.960 . S
H541 N521 0.862 . S
O542 Co510 1.920 . S
O542 C515 1.289 . S
C543 O535 1.258 . S
C543 O536 1.266 . S
Co544 O547 1.970 . S
Co544 N561 1.989 . S
Co544 O569 1.967 . S
Co544 O576 1.920 . S
Co545 O548 1.966 . S
Co545 N554 2.022 . S
Co545 N562 1.993 . S
Co545 O570 1.941 . S
C546 O547 1.258 . S
C546 O548 1.263 . S
O547 Co544 1.970 . S
O547 C546 1.258 . S
O548 Co545 1.966 . S
O548 C546 1.263 . S
C549 O550 1.235 . S
C549 O576 1.289 . S
O550 C549 1.235 . S
C551 C553 1.400 . S
C551 N554 1.351 . S
C551 C556 1.501 . S
C552 C553 1.387 . S
C552 N555 1.341 . S
C553 C551 1.400 . S
C553 C552 1.387 . S
N554 Co545 2.022 . S
N554 C551 1.351 . S
N554 N555 1.365 . S
N555 C552 1.341 . S
N555 N554 1.365 . S
N555 H575 0.862 . S
C556 C551 1.501 . S
C556 H557 0.961 . S
C556 H558 0.961 . S
C556 H559 0.960 . S
H557 C556 0.961 . S
H558 C556 0.961 . S
H559 C556 0.960 . S
C560 N561 1.342 . S
C560 C564 1.401 . S
C560 C565 1.499 . S
N561 Co544 1.989 . S
N561 C560 1.342 . S
N561 N562 1.388 . S
N562 Co545 1.993 . S
N562 N561 1.388 . S
N562 C563 1.346 . S
C563 N562 1.346 . S
C563 C564 1.396 . S
C563 C573 1.510 . S
C564 C560 1.401 . S
C564 C563 1.396 . S
C565 C560 1.499 . S
C565 H566 0.959 . S
C565 H567 0.960 . S
C565 H568 0.961 . S
H566 C565 0.959 . S
H567 C565 0.960 . S
H568 C565 0.961 . S
O569 Co544 1.967 . S
O569 C577 1.258 . S
O570 Co545 1.941 . S
O570 C577 1.266 . S
H571 C573 0.959 . S
H572 C573 0.961 . S
C573 C563 1.510 . S
C573 H571 0.959 . S
C573 H572 0.961 . S
C573 H574 0.960 . S
H574 C573 0.960 . S
H575 N555 0.862 . S
O576 Co544 1.920 . S
O576 C549 1.289 . S
C577 O569 1.258 . S
C577 O570 1.266 . S
Co578 O581 1.970 . S
Co578 N595 1.989 . S
Co578 O603 1.967 . S
Co578 O610 1.920 . S
Co579 O582 1.966 . S
Co579 N588 2.022 . S
Co579 N596 1.993 . S
Co579 O604 1.941 . S
C580 O581 1.258 . S
C580 O582 1.263 . S
O581 Co578 1.970 . S
O581 C580 1.258 . S
O582 Co579 1.966 . S
O582 C580 1.263 . S
C583 O584 1.235 . S
C583 O610 1.289 . S
O584 C583 1.235 . S
C585 C587 1.400 . S
C585 N588 1.351 . S
C585 C590 1.501 . S
C586 C587 1.387 . S
C586 N589 1.341 . S
C587 C585 1.400 . S
C587 C586 1.387 . S
N588 Co579 2.022 . S
N588 C585 1.351 . S
N588 N589 1.365 . S
N589 C586 1.341 . S
N589 N588 1.365 . S
N589 H609 0.862 . S
C590 C585 1.501 . S
C590 H591 0.961 . S
C590 H592 0.961 . S
C590 H593 0.960 . S
H591 C590 0.961 . S
H592 C590 0.961 . S
H593 C590 0.960 . S
C594 N595 1.342 . S
C594 C598 1.401 . S
C594 C599 1.499 . S
N595 Co578 1.989 . S
N595 C594 1.342 . S
N595 N596 1.388 . S
N596 Co579 1.993 . S
N596 N595 1.388 . S
N596 C597 1.346 . S
C597 N596 1.346 . S
C597 C598 1.396 . S
C597 C607 1.510 . S
C598 C594 1.401 . S
C598 C597 1.396 . S
C599 C594 1.499 . S
C599 H600 0.959 . S
C599 H601 0.960 1_556 S
C599 H602 0.961 . S
H600 C599 0.959 . S
H601 C599 0.960 1_554 S
H602 C599 0.961 . S
O603 Co578 1.967 . S
O603 C611 1.258 . S
O604 Co579 1.941 . S
O604 C611 1.266 . S
H605 C607 0.959 . S
H606 C607 0.961 . S
C607 C597 1.510 . S
C607 H605 0.959 . S
C607 H606 0.961 . S
C607 H608 0.960 . S
H608 C607 0.960 . S
H609 N589 0.862 . S
O610 Co578 1.920 . S
O610 C583 1.289 . S
C611 O603 1.258 . S
C611 O604 1.266 . S
Co612 O615 1.970 . S
Co612 N629 1.989 . S
Co612 O637 1.967 . S
Co612 O644 1.920 . S
Co613 O616 1.966 . S
Co613 N622 2.022 . S
Co613 N630 1.993 . S
Co613 O638 1.941 . S
C614 O615 1.258 . S
C614 O616 1.263 . S
O615 Co612 1.970 . S
O615 C614 1.258 . S
O616 Co613 1.966 . S
O616 C614 1.263 . S
C617 O618 1.235 . S
C617 O644 1.289 . S
O618 C617 1.235 . S
C619 C621 1.400 . S
C619 N622 1.351 . S
C619 C624 1.501 . S
C620 C621 1.387 . S
C620 N623 1.341 . S
C621 C619 1.400 . S
C621 C620 1.387 . S
N622 Co613 2.022 . S
N622 C619 1.351 . S
N622 N623 1.365 . S
N623 C620 1.341 . S
N623 N622 1.365 . S
N623 H643 0.862 . S
C624 C619 1.501 . S
C624 H625 0.961 . S
C624 H626 0.961 . S
C624 H627 0.960 . S
H625 C624 0.961 . S
H626 C624 0.961 . S
H627 C624 0.960 . S
C628 N629 1.342 . S
C628 C632 1.401 . S
C628 C633 1.499 . S
N629 Co612 1.989 . S
N629 C628 1.342 . S
N629 N630 1.388 . S
N630 Co613 1.993 . S
N630 N629 1.388 . S
N630 C631 1.346 . S
C631 N630 1.346 . S
C631 C632 1.396 . S
C631 C641 1.510 . S
C632 C628 1.401 . S
C632 C631 1.396 . S
C633 C628 1.499 . S
C633 H634 0.959 . S
C633 H635 0.960 . S
C633 H636 0.961 . S
H634 C633 0.959 . S
H635 C633 0.960 . S
H636 C633 0.961 . S
O637 Co612 1.967 . S
O637 C645 1.258 . S
O638 Co613 1.941 . S
O638 C645 1.266 . S
H639 C641 0.959 . S
H640 C641 0.961 . S
C641 C631 1.510 . S
C641 H639 0.959 . S
C641 H640 0.961 . S
C641 H642 0.960 . S
H642 C641 0.960 . S
H643 N623 0.862 . S
O644 Co612 1.920 . S
O644 C617 1.289 . S
C645 O637 1.258 . S
C645 O638 1.266 . S
Co646 O649 1.970 . S
Co646 N663 1.989 . S
Co646 O671 1.967 . S
Co646 O678 1.920 . S
Co647 O650 1.966 . S
Co647 N656 2.022 . S
Co647 N664 1.993 . S
Co647 O672 1.941 . S
C648 O649 1.258 . S
C648 O650 1.263 . S
O649 Co646 1.970 . S
O649 C648 1.258 . S
O650 Co647 1.966 . S
O650 C648 1.263 . S
C651 O652 1.235 . S
C651 O678 1.289 . S
O652 C651 1.235 . S
C653 C655 1.400 . S
C653 N656 1.351 . S
C653 C658 1.501 . S
C654 C655 1.387 . S
C654 N657 1.341 . S
C655 C653 1.400 . S
C655 C654 1.387 . S
N656 Co647 2.022 . S
N656 C653 1.351 . S
N656 N657 1.365 . S
N657 C654 1.341 . S
N657 N656 1.365 . S
N657 H677 0.862 . S
C658 C653 1.501 . S
C658 H659 0.961 . S
C658 H660 0.961 . S
C658 H661 0.960 . S
H659 C658 0.961 . S
H660 C658 0.961 . S
H661 C658 0.960 . S
C662 N663 1.342 . S
C662 C666 1.401 . S
C662 C667 1.499 . S
N663 Co646 1.989 . S
N663 C662 1.342 . S
N663 N664 1.388 . S
N664 Co647 1.993 . S
N664 N663 1.388 . S
N664 C665 1.346 . S
C665 N664 1.346 . S
C665 C666 1.396 . S
C665 C675 1.510 . S
C666 C662 1.401 . S
C666 C665 1.396 . S
C667 C662 1.499 . S
C667 H668 0.959 . S
C667 H669 0.960 . S
C667 H670 0.987 . S
H668 C667 0.959 . S
H669 C667 0.960 . S
H670 C667 0.987 . S
O671 Co646 1.967 . S
O671 C679 1.258 . S
O672 Co647 1.941 . S
O672 C679 1.266 . S
H673 C675 0.959 . S
H674 C675 0.961 . S
C675 C665 1.510 . S
C675 H673 0.959 . S
C675 H674 0.961 . S
C675 H676 0.960 . S
H676 C675 0.960 . S
H677 N657 0.862 . S
O678 Co646 1.920 . S
O678 C651 1.289 . S
C679 O671 1.258 . S
C679 O672 1.266 . S
Co680 O683 1.970 . S
Co680 N697 1.989 . S
Co680 O705 1.967 . S
Co680 O712 1.920 . S
Co681 O684 1.966 . S
Co681 N690 2.022 . S
Co681 N698 1.993 . S
Co681 O706 1.941 . S
C682 O683 1.258 . S
C682 O684 1.263 . S
O683 Co680 1.970 . S
O683 C682 1.258 . S
O684 Co681 1.966 . S
O684 C682 1.263 . S
C685 O686 1.235 . S
C685 O712 1.289 . S
O686 C685 1.235 . S
C687 C689 1.400 . S
C687 N690 1.351 . S
C687 C692 1.501 . S
C688 C689 1.387 . S
C688 N691 1.341 . S
C689 C687 1.400 . S
C689 C688 1.387 . S
N690 Co681 2.022 . S
N690 C687 1.351 . S
N690 N691 1.365 . S
N691 C688 1.341 . S
N691 N690 1.365 . S
N691 H711 0.862 . S
C692 C687 1.501 . S
C692 H693 0.961 . S
C692 H694 0.961 . S
C692 H695 0.960 . S
H693 C692 0.961 . S
H694 C692 0.961 . S
H695 C692 0.960 . S
C696 N697 1.342 . S
C696 C700 1.401 . S
C696 C701 1.499 . S
N697 Co680 1.989 . S
N697 C696 1.342 . S
N697 N698 1.388 . S
N698 Co681 1.993 . S
N698 N697 1.388 . S
N698 C699 1.346 . S
C699 N698 1.346 . S
C699 C700 1.396 . S
C699 C709 1.510 . S
C700 C696 1.401 . S
C700 C699 1.396 . S
C701 C696 1.499 . S
C701 H702 0.959 . S
C701 H703 0.960 . S
C701 H704 0.961 . S
H702 C701 0.959 . S
H703 C701 0.960 . S
H704 C701 0.961 . S
O705 Co680 1.967 . S
O705 C713 1.258 . S
O706 Co681 1.941 . S
O706 C713 1.266 . S
H707 C709 0.959 . S
H708 C709 0.961 . S
C709 C699 1.510 . S
C709 H707 0.959 . S
C709 H708 0.961 . S
C709 H710 0.960 . S
H710 C709 0.960 . S
H711 N691 0.862 . S
O712 Co680 1.920 . S
O712 C685 1.289 . S
C713 O705 1.258 . S
C713 O706 1.266 . S
Co714 O717 1.970 . S
Co714 N731 1.989 . S
Co714 O739 1.967 . S
Co714 O746 1.920 . S
Co715 O718 1.966 . S
Co715 N724 2.022 . S
Co715 N732 1.993 . S
Co715 O740 1.941 . S
C716 O717 1.258 . S
C716 O718 1.263 . S
O717 Co714 1.970 . S
O717 C716 1.258 . S
O718 Co715 1.966 . S
O718 C716 1.263 . S
C719 O720 1.235 . S
C719 O746 1.289 . S
O720 C719 1.235 . S
C721 C723 1.400 . S
C721 N724 1.351 . S
C721 C726 1.501 . S
C722 C723 1.387 . S
C722 N725 1.341 . S
C723 C721 1.400 . S
C723 C722 1.387 . S
N724 Co715 2.022 . S
N724 C721 1.351 . S
N724 N725 1.365 . S
N725 C722 1.341 . S
N725 N724 1.365 . S
N725 H745 0.862 . S
C726 C721 1.501 . S
C726 H727 0.961 . S
C726 H728 0.961 . S
C726 H729 0.960 . S
H727 C726 0.961 . S
H728 C726 0.961 . S
H729 C726 0.960 . S
C730 N731 1.342 . S
C730 C734 1.401 . S
C730 C735 1.499 . S
N731 Co714 1.989 . S
N731 C730 1.342 . S
N731 N732 1.388 . S
N732 Co715 1.993 . S
N732 N731 1.388 . S
N732 C733 1.346 . S
C733 N732 1.346 . S
C733 C734 1.396 . S
C733 C743 1.510 . S
C734 C730 1.401 . S
C734 C733 1.396 . S
C735 C730 1.499 . S
C735 H736 0.959 . S
C735 H737 0.960 1_554 S
C735 H738 0.987 . S
H736 C735 0.959 . S
H737 C735 0.960 1_556 S
H738 C735 0.987 . S
O739 Co714 1.967 . S
O739 C747 1.258 . S
O740 Co715 1.941 . S
O740 C747 1.266 . S
H741 C743 0.959 . S
H742 C743 0.961 . S
C743 C733 1.510 . S
C743 H741 0.959 . S
C743 H742 0.961 . S
C743 H744 0.960 . S
H744 C743 0.960 . S
H745 N725 0.862 . S
O746 Co714 1.920 . S
O746 C719 1.289 . S
C747 O739 1.258 . S
C747 O740 1.266 . S
Co748 O751 1.970 . S
Co748 N765 1.989 . S
Co748 O773 1.967 . S
Co748 O780 1.920 . S
Co749 O752 1.966 . S
Co749 N758 2.022 . S
Co749 N766 1.993 . S
Co749 O774 1.941 . S
C750 O751 1.258 . S
C750 O752 1.263 . S
O751 Co748 1.970 . S
O751 C750 1.258 . S
O752 Co749 1.966 . S
O752 C750 1.263 . S
C753 O754 1.235 . S
C753 O780 1.289 . S
O754 C753 1.235 . S
C755 C757 1.400 . S
C755 N758 1.351 . S
C755 C760 1.501 . S
C756 C757 1.387 . S
C756 N759 1.341 . S
C757 C755 1.400 . S
C757 C756 1.387 . S
N758 Co749 2.022 . S
N758 C755 1.351 . S
N758 N759 1.365 . S
N759 C756 1.341 . S
N759 N758 1.365 . S
N759 H779 0.862 . S
C760 C755 1.501 . S
C760 H761 0.961 . S
C760 H762 0.961 . S
C760 H763 0.960 . S
H761 C760 0.961 . S
H762 C760 0.961 . S
H763 C760 0.960 . S
C764 N765 1.342 . S
C764 C768 1.401 . S
C764 C769 1.499 . S
N765 Co748 1.989 . S
N765 C764 1.342 . S
N765 N766 1.388 . S
N766 Co749 1.993 . S
N766 N765 1.388 . S
N766 C767 1.346 . S
C767 N766 1.346 . S
C767 C768 1.396 . S
C767 C777 1.510 . S
C768 C764 1.401 . S
C768 C767 1.396 . S
C769 C764 1.499 . S
C769 H770 0.959 . S
C769 H771 0.960 . S
C769 H772 0.961 . S
H770 C769 0.959 . S
H771 C769 0.960 . S
H772 C769 0.961 . S
O773 Co748 1.967 . S
O773 C781 1.258 . S
O774 Co749 1.941 . S
O774 C781 1.266 . S
H775 C777 0.959 . S
H776 C777 0.961 . S
C777 C767 1.510 . S
C777 H775 0.959 . S
C777 H776 0.961 . S
C777 H778 0.960 . S
H778 C777 0.960 . S
H779 N759 0.862 . S
O780 Co748 1.920 . S
O780 C753 1.289 . S
C781 O773 1.258 . S
C781 O774 1.266 . S
Co782 O785 1.970 . S
Co782 N799 1.989 . S
Co782 O807 1.967 . S
Co782 O814 1.920 . S
Co783 O786 1.966 . S
Co783 N792 2.022 . S
Co783 N800 1.993 . S
Co783 O808 1.941 . S
C784 O785 1.258 . S
C784 O786 1.263 . S
O785 Co782 1.970 . S
O785 C784 1.258 . S
O786 Co783 1.966 . S
O786 C784 1.263 . S
C787 O788 1.235 . S
C787 O814 1.289 . S
O788 C787 1.235 . S
C789 C791 1.400 . S
C789 N792 1.351 . S
C789 C794 1.501 . S
C790 C791 1.387 . S
C790 N793 1.341 . S
C791 C789 1.400 . S
C791 C790 1.387 . S
N792 Co783 2.022 . S
N792 C789 1.351 . S
N792 N793 1.365 . S
N793 C790 1.341 . S
N793 N792 1.365 . S
N793 H813 0.862 . S
C794 C789 1.501 . S
C794 H795 0.961 . S
C794 H796 0.961 . S
C794 H797 0.960 . S
H795 C794 0.961 . S
H796 C794 0.961 . S
H797 C794 0.960 . S
C798 N799 1.342 . S
C798 C802 1.401 . S
C798 C803 1.499 . S
N799 Co782 1.989 . S
N799 C798 1.342 . S
N799 N800 1.388 . S
N800 Co783 1.993 . S
N800 N799 1.388 . S
N800 C801 1.346 . S
C801 N800 1.346 . S
C801 C802 1.396 . S
C801 C811 1.510 . S
C802 C798 1.401 . S
C802 C801 1.396 . S
C803 C798 1.499 . S
C803 H804 0.959 . S
C803 H805 0.960 . S
C803 H806 0.961 . S
H804 C803 0.959 . S
H805 C803 0.960 . S
H806 C803 0.961 . S
O807 Co782 1.967 . S
O807 C815 1.258 . S
O808 Co783 1.941 . S
O808 C815 1.266 . S
H809 C811 0.959 . S
H810 C811 0.961 . S
C811 C801 1.510 . S
C811 H809 0.959 . S
C811 H810 0.961 . S
C811 H812 0.960 . S
H812 C811 0.960 . S
H813 N793 0.862 . S
O814 Co782 1.920 . S
O814 C787 1.289 . S
C815 O807 1.258 . S
C815 O808 1.266 . S
Co816 O819 1.970 . S
Co816 N833 1.989 . S
Co816 O841 1.967 . S
Co816 O848 1.920 . S
Co817 O820 1.966 . S
Co817 N826 2.022 . S
Co817 N834 1.993 . S
Co817 O842 1.941 . S
C818 O819 1.258 . S
C818 O820 1.263 . S
O819 Co816 1.970 . S
O819 C818 1.258 . S
O820 Co817 1.966 . S
O820 C818 1.263 . S
C821 O822 1.235 . S
C821 O848 1.289 . S
O822 C821 1.235 . S
C823 C825 1.400 . S
C823 N826 1.351 . S
C823 C828 1.501 . S
C824 C825 1.387 . S
C824 N827 1.341 . S
C825 C823 1.400 . S
C825 C824 1.387 . S
N826 Co817 2.022 . S
N826 C823 1.351 . S
N826 N827 1.365 . S
N827 C824 1.341 . S
N827 N826 1.365 . S
N827 H847 0.862 . S
C828 C823 1.501 . S
C828 H829 0.961 . S
C828 H830 0.961 . S
C828 H831 0.960 . S
H829 C828 0.961 . S
H830 C828 0.961 . S
H831 C828 0.960 . S
C832 N833 1.342 . S
C832 C836 1.401 . S
C832 C837 1.499 . S
N833 Co816 1.989 . S
N833 C832 1.342 . S
N833 N834 1.388 . S
N834 Co817 1.993 . S
N834 N833 1.388 . S
N834 C835 1.346 . S
C835 N834 1.346 . S
C835 C836 1.396 . S
C835 C845 1.510 . S
C836 C832 1.401 . S
C836 C835 1.396 . S
C837 C832 1.499 . S
C837 H838 0.959 . S
C837 H839 0.960 . S
C837 H840 0.961 . S
H838 C837 0.959 . S
H839 C837 0.960 . S
H840 C837 0.961 . S
O841 Co816 1.967 . S
O841 C849 1.258 . S
O842 Co817 1.941 . S
O842 C849 1.266 . S
H843 C845 0.959 . S
H844 C845 0.961 . S
C845 C835 1.510 . S
C845 H843 0.959 . S
C845 H844 0.961 . S
C845 H846 0.960 . S
H846 C845 0.960 . S
H847 N827 0.862 . S
O848 Co816 1.920 . S
O848 C821 1.289 . S
C849 O841 1.258 . S
C849 O842 1.266 . S
Co850 O853 1.970 . S
Co850 N867 1.989 . S
Co850 O875 1.967 . S
Co850 O882 1.920 . S
Co851 O854 1.966 . S
Co851 N860 2.022 . S
Co851 N868 1.993 . S
Co851 O876 1.941 . S
C852 O853 1.258 . S
C852 O854 1.263 . S
O853 Co850 1.970 . S
O853 C852 1.258 . S
O854 Co851 1.966 . S
O854 C852 1.263 . S
C855 O856 1.235 . S
C855 O882 1.289 . S
O856 C855 1.235 . S
C857 C859 1.400 . S
C857 N860 1.351 . S
C857 C862 1.501 . S
C858 C859 1.387 . S
C858 N861 1.341 . S
C859 C857 1.400 . S
C859 C858 1.387 . S
N860 Co851 2.022 . S
N860 C857 1.351 . S
N860 N861 1.365 . S
N861 C858 1.341 . S
N861 N860 1.365 . S
N861 H881 0.862 . S
C862 C857 1.501 . S
C862 H863 0.961 . S
C862 H864 0.961 . S
C862 H865 0.960 . S
H863 C862 0.961 . S
H864 C862 0.961 . S
H865 C862 0.960 . S
C866 N867 1.342 . S
C866 C870 1.401 . S
C866 C871 1.499 . S
N867 Co850 1.989 . S
N867 C866 1.342 . S
N867 N868 1.388 . S
N868 Co851 1.993 . S
N868 N867 1.388 . S
N868 C869 1.346 . S
C869 N868 1.346 . S
C869 C870 1.396 . S
C869 C879 1.510 . S
C870 C866 1.401 . S
C870 C869 1.396 . S
C871 C866 1.499 . S
C871 H872 0.959 . S
C871 H873 0.960 1_554 S
C871 H874 0.961 . S
H872 C871 0.959 . S
H873 C871 0.960 1_556 S
H874 C871 0.961 . S
O875 Co850 1.967 . S
O875 C883 1.258 . S
O876 Co851 1.941 . S
O876 C883 1.266 . S
H877 C879 0.959 . S
H878 C879 0.961 . S
C879 C869 1.510 . S
C879 H877 0.959 . S
C879 H878 0.961 . S
C879 H880 0.960 . S
H880 C879 0.960 . S
H881 N861 0.862 . S
O882 Co850 1.920 . S
O882 C855 1.289 . S
C883 O875 1.258 . S
C883 O876 1.266 . S
Co884 O887 1.970 . S
Co884 N901 1.989 . S
Co884 O909 1.967 . S
Co884 O916 1.920 . S
Co885 O888 1.966 . S
Co885 N894 2.022 . S
Co885 N902 1.993 . S
Co885 O910 1.941 . S
C886 O887 1.258 . S
C886 O888 1.263 . S
O887 Co884 1.970 . S
O887 C886 1.258 . S
O888 Co885 1.966 . S
O888 C886 1.263 . S
C889 O890 1.235 . S
C889 O916 1.289 . S
O890 C889 1.235 . S
C891 C893 1.400 . S
C891 N894 1.351 . S
C891 C896 1.501 . S
C892 C893 1.387 . S
C892 N895 1.341 . S
C893 C891 1.400 . S
C893 C892 1.387 . S
N894 Co885 2.022 . S
N894 C891 1.351 . S
N894 N895 1.365 . S
N895 C892 1.341 . S
N895 N894 1.365 . S
N895 H915 0.862 . S
C896 C891 1.501 . S
C896 H897 0.961 . S
C896 H898 0.961 . S
C896 H899 0.960 . S
H897 C896 0.961 . S
H898 C896 0.961 . S
H899 C896 0.960 . S
C900 N901 1.342 . S
C900 C904 1.401 . S
C900 C905 1.499 . S
N901 Co884 1.989 . S
N901 C900 1.342 . S
N901 N902 1.388 . S
N902 Co885 1.993 . S
N902 N901 1.388 . S
N902 C903 1.346 . S
C903 N902 1.346 . S
C903 C904 1.396 . S
C903 C913 1.510 . S
C904 C900 1.401 . S
C904 C903 1.396 . S
C905 C900 1.499 . S
C905 H906 0.959 . S
C905 H907 0.960 . S
C905 H908 0.961 . S
H906 C905 0.959 . S
H907 C905 0.960 . S
H908 C905 0.961 . S
O909 Co884 1.967 . S
O909 C917 1.258 . S
O910 Co885 1.941 . S
O910 C917 1.266 . S
H911 C913 0.959 . S
H912 C913 0.961 . S
C913 C903 1.510 . S
C913 H911 0.959 . S
C913 H912 0.961 . S
C913 H914 0.960 . S
H914 C913 0.960 . S
H915 N895 0.862 . S
O916 Co884 1.920 . S
O916 C889 1.289 . S
C917 O909 1.258 . S
C917 O910 1.266 . S
Co918 O921 1.970 . S
Co918 N935 1.989 . S
Co918 O943 1.967 . S
Co918 O950 1.920 . S
Co919 O922 1.966 . S
Co919 N928 2.022 . S
Co919 N936 1.993 . S
Co919 O944 1.941 . S
C920 O921 1.258 . S
C920 O922 1.263 . S
O921 Co918 1.970 . S
O921 C920 1.258 . S
O922 Co919 1.966 . S
O922 C920 1.263 . S
C923 O924 1.235 . S
C923 O950 1.289 . S
O924 C923 1.235 . S
C925 C927 1.400 . S
C925 N928 1.351 . S
C925 C930 1.501 . S
C926 C927 1.387 . S
C926 N929 1.341 . S
C927 C925 1.400 . S
C927 C926 1.387 . S
N928 Co919 2.022 . S
N928 C925 1.351 . S
N928 N929 1.365 . S
N929 C926 1.341 . S
N929 N928 1.365 . S
N929 H949 0.862 . S
C930 C925 1.501 . S
C930 H931 0.961 . S
C930 H932 0.961 . S
C930 H933 0.960 . S
H931 C930 0.961 . S
H932 C930 0.961 . S
H933 C930 0.960 . S
C934 N935 1.342 . S
C934 C938 1.401 . S
C934 C939 1.499 . S
N935 Co918 1.989 . S
N935 C934 1.342 . S
N935 N936 1.388 . S
N936 Co919 1.993 . S
N936 N935 1.388 . S
N936 C937 1.346 . S
C937 N936 1.346 . S
C937 C938 1.396 . S
C937 C947 1.510 . S
C938 C934 1.401 . S
C938 C937 1.396 . S
C939 C934 1.499 . S
C939 H940 0.959 . S
C939 H941 0.960 . S
C939 H942 0.987 . S
H940 C939 0.959 . S
H941 C939 0.960 . S
H942 C939 0.987 . S
O943 Co918 1.967 . S
O943 C951 1.258 . S
O944 Co919 1.941 . S
O944 C951 1.266 . S
H945 C947 0.959 . S
H946 C947 0.961 . S
C947 C937 1.510 . S
C947 H945 0.959 . S
C947 H946 0.961 . S
C947 H948 0.960 . S
H948 C947 0.960 . S
H949 N929 0.862 . S
O950 Co918 1.920 . S
O950 C923 1.289 . S
C951 O943 1.258 . S
C951 O944 1.266 . S
Co952 O955 1.970 . S
Co952 N969 1.989 . S
Co952 O977 1.967 . S
Co952 O984 1.920 . S
Co953 O956 1.966 . S
Co953 N962 2.022 . S
Co953 N970 1.993 . S
Co953 O978 1.941 . S
C954 O955 1.258 . S
C954 O956 1.263 . S
O955 Co952 1.970 . S
O955 C954 1.258 . S
O956 Co953 1.966 . S
O956 C954 1.263 . S
C957 O958 1.235 . S
C957 O984 1.289 . S
O958 C957 1.235 . S
C959 C961 1.400 . S
C959 N962 1.351 . S
C959 C964 1.501 . S
C960 C961 1.387 . S
C960 N963 1.341 . S
C961 C959 1.400 . S
C961 C960 1.387 . S
N962 Co953 2.022 . S
N962 C959 1.351 . S
N962 N963 1.365 . S
N963 C960 1.341 . S
N963 N962 1.365 . S
N963 H983 0.862 . S
C964 C959 1.501 . S
C964 H965 0.961 . S
C964 H966 0.961 . S
C964 H967 0.960 . S
H965 C964 0.961 . S
H966 C964 0.961 . S
H967 C964 0.960 . S
C968 N969 1.342 . S
C968 C972 1.401 . S
C968 C973 1.499 . S
N969 Co952 1.989 . S
N969 C968 1.342 . S
N969 N970 1.388 . S
N970 Co953 1.993 . S
N970 N969 1.388 . S
N970 C971 1.346 . S
C971 N970 1.346 . S
C971 C972 1.396 . S
C971 C981 1.510 . S
C972 C968 1.401 . S
C972 C971 1.396 . S
C973 C968 1.499 . S
C973 H974 0.959 . S
C973 H975 0.960 . S
C973 H976 0.961 . S
H974 C973 0.959 . S
H975 C973 0.960 . S
H976 C973 0.961 . S
O977 Co952 1.967 . S
O977 C985 1.258 . S
O978 Co953 1.941 . S
O978 C985 1.266 . S
H979 C981 0.959 . S
H980 C981 0.961 . S
C981 C971 1.510 . S
C981 H979 0.959 . S
C981 H980 0.961 . S
C981 H982 0.960 . S
H982 C981 0.960 . S
H983 N963 0.862 . S
O984 Co952 1.920 . S
O984 C957 1.289 . S
C985 O977 1.258 . S
C985 O978 1.266 . S
Co986 O989 1.970 . S
Co986 N1003 1.989 . S
Co986 O1011 1.967 . S
Co986 O1018 1.920 . S
Co987 O990 1.966 . S
Co987 N996 2.022 . S
Co987 N1004 1.993 . S
Co987 O1012 1.941 . S
C988 O989 1.258 . S
C988 O990 1.263 . S
O989 Co986 1.970 . S
O989 C988 1.258 . S
O990 Co987 1.966 . S
O990 C988 1.263 . S
C991 O992 1.235 . S
C991 O1018 1.289 . S
O992 C991 1.235 . S
C993 C995 1.400 . S
C993 N996 1.351 . S
C993 C998 1.501 . S
C994 C995 1.387 . S
C994 N997 1.341 . S
C995 C993 1.400 . S
C995 C994 1.387 . S
N996 Co987 2.022 . S
N996 C993 1.351 . S
N996 N997 1.365 . S
N997 C994 1.341 . S
N997 N996 1.365 . S
N997 H1017 0.862 . S
C998 C993 1.501 . S
C998 H999 0.961 . S
C998 H1000 0.961 . S
C998 H1001 0.960 . S
H999 C998 0.961 . S
H1000 C998 0.961 . S
H1001 C998 0.960 . S
C1002 N1003 1.342 . S
C1002 C1006 1.401 . S
C1002 C1007 1.499 . S
N1003 Co986 1.989 . S
N1003 C1002 1.342 . S
N1003 N1004 1.388 . S
N1004 Co987 1.993 . S
N1004 N1003 1.388 . S
N1004 C1005 1.346 . S
C1005 N1004 1.346 . S
C1005 C1006 1.396 . S
C1005 C1015 1.510 . S
C1006 C1002 1.401 . S
C1006 C1005 1.396 . S
C1007 C1002 1.499 . S
C1007 H1008 0.959 . S
C1007 H1009 0.960 1_556 S
C1007 H1010 0.987 . S
H1008 C1007 0.959 . S
H1009 C1007 0.960 1_554 S
H1010 C1007 0.987 . S
O1011 Co986 1.967 . S
O1011 C1019 1.258 . S
O1012 Co987 1.941 . S
O1012 C1019 1.266 . S
H1013 C1015 0.959 . S
H1014 C1015 0.961 . S
C1015 C1005 1.510 . S
C1015 H1013 0.959 . S
C1015 H1014 0.961 . S
C1015 H1016 0.960 . S
H1016 C1015 0.960 . S
H1017 N997 0.862 . S
O1018 Co986 1.920 . S
O1018 C991 1.289 . S
C1019 O1011 1.258 . S
C1019 O1012 1.266 . S
Co1020 O1023 1.970 . S
Co1020 N1037 1.989 . S
Co1020 O1045 1.967 . S
Co1020 O1052 1.920 . S
Co1021 O1024 1.966 . S
Co1021 N1030 2.022 . S
Co1021 N1038 1.993 . S
Co1021 O1046 1.941 . S
C1022 O1023 1.258 . S
C1022 O1024 1.263 . S
O1023 Co1020 1.970 . S
O1023 C1022 1.258 . S
O1024 Co1021 1.966 . S
O1024 C1022 1.263 . S
C1025 O1026 1.235 . S
C1025 O1052 1.289 . S
O1026 C1025 1.235 . S
C1027 C1029 1.400 . S
C1027 N1030 1.351 . S
C1027 C1032 1.501 . S
C1028 C1029 1.387 . S
C1028 N1031 1.341 . S
C1029 C1027 1.400 . S
C1029 C1028 1.387 . S
N1030 Co1021 2.022 . S
N1030 C1027 1.351 . S
N1030 N1031 1.365 . S
N1031 C1028 1.341 . S
N1031 N1030 1.365 . S
N1031 H1051 0.862 . S
C1032 C1027 1.501 . S
C1032 H1033 0.961 . S
C1032 H1034 0.961 . S
C1032 H1035 0.960 . S
H1033 C1032 0.961 . S
H1034 C1032 0.961 . S
H1035 C1032 0.960 . S
C1036 N1037 1.342 . S
C1036 C1040 1.401 . S
C1036 C1041 1.499 . S
N1037 Co1020 1.989 . S
N1037 C1036 1.342 . S
N1037 N1038 1.388 . S
N1038 Co1021 1.993 . S
N1038 N1037 1.388 . S
N1038 C1039 1.346 . S
C1039 N1038 1.346 . S
C1039 C1040 1.396 . S
C1039 C1049 1.510 . S
C1040 C1036 1.401 . S
C1040 C1039 1.396 . S
C1041 C1036 1.499 . S
C1041 H1042 0.959 . S
C1041 H1043 0.960 . S
C1041 H1044 0.961 . S
H1042 C1041 0.959 . S
H1043 C1041 0.960 . S
H1044 C1041 0.961 . S
O1045 Co1020 1.967 . S
O1045 C1053 1.258 . S
O1046 Co1021 1.941 . S
O1046 C1053 1.266 . S
H1047 C1049 0.959 . S
H1048 C1049 0.961 . S
C1049 C1039 1.510 . S
C1049 H1047 0.959 . S
C1049 H1048 0.961 . S
C1049 H1050 0.960 . S
H1050 C1049 0.960 . S
H1051 N1031 0.862 . S
O1052 Co1020 1.920 . S
O1052 C1025 1.289 . S
C1053 O1045 1.258 . S
C1053 O1046 1.266 . S
Co1054 O1057 1.970 . S
Co1054 N1071 1.989 . S
Co1054 O1079 1.967 . S
Co1054 O1086 1.920 . S
Co1055 O1058 1.966 . S
Co1055 N1064 2.022 . S
Co1055 N1072 1.993 . S
Co1055 O1080 1.941 . S
C1056 O1057 1.258 . S
C1056 O1058 1.263 . S
O1057 Co1054 1.970 . S
O1057 C1056 1.258 . S
O1058 Co1055 1.966 . S
O1058 C1056 1.263 . S
C1059 O1060 1.235 . S
C1059 O1086 1.289 . S
O1060 C1059 1.235 . S
C1061 C1063 1.400 . S
C1061 N1064 1.351 . S
C1061 C1066 1.501 . S
C1062 C1063 1.387 . S
C1062 N1065 1.341 . S
C1063 C1061 1.400 . S
C1063 C1062 1.387 . S
N1064 Co1055 2.022 . S
N1064 C1061 1.351 . S
N1064 N1065 1.365 . S
N1065 C1062 1.341 . S
N1065 N1064 1.365 . S
N1065 H1085 0.862 . S
C1066 C1061 1.501 . S
C1066 H1067 0.961 . S
C1066 H1068 0.961 . S
C1066 H1069 0.960 . S
H1067 C1066 0.961 . S
H1068 C1066 0.961 . S
H1069 C1066 0.960 . S
C1070 N1071 1.342 . S
C1070 C1074 1.401 . S
C1070 C1075 1.499 . S
N1071 Co1054 1.989 . S
N1071 C1070 1.342 . S
N1071 N1072 1.388 . S
N1072 Co1055 1.993 . S
N1072 N1071 1.388 . S
N1072 C1073 1.346 . S
C1073 N1072 1.346 . S
C1073 C1074 1.396 . S
C1073 C1083 1.510 . S
C1074 C1070 1.401 . S
C1074 C1073 1.396 . S
C1075 C1070 1.499 . S
C1075 H1076 0.959 . S
C1075 H1077 0.960 . S
C1075 H1078 0.961 . S
H1076 C1075 0.959 . S
H1077 C1075 0.960 . S
H1078 C1075 0.961 . S
O1079 Co1054 1.967 . S
O1079 C1087 1.258 . S
O1080 Co1055 1.941 . S
O1080 C1087 1.266 . S
H1081 C1083 0.959 . S
H1082 C1083 0.961 . S
C1083 C1073 1.510 . S
C1083 H1081 0.959 . S
C1083 H1082 0.961 . S
C1083 H1084 0.960 . S
H1084 C1083 0.960 . S
H1085 N1065 0.862 . S
O1086 Co1054 1.920 . S
O1086 C1059 1.289 . S
C1087 O1079 1.258 . S
C1087 O1080 1.266 . S
C1088 C1089 1.387 . S
C1088 H1092 0.950 . S
C1088 C1097 1.390 . S
C1089 C1088 1.387 . S
C1089 C1091 1.387 . S
H1090 C1097 0.950 . S
C1091 C1089 1.387 . S
C1091 C1093 1.390 . S
C1091 H1095 0.950 . S
H1092 C1088 0.950 . S
C1093 C1091 1.390 . S
C1093 C1094 1.387 . S
C1093 H1096 0.950 . S
C1094 C1093 1.387 . S
C1094 C1097 1.387 . S
H1095 C1091 0.950 . S
H1096 C1093 0.950 . S
C1097 C1088 1.390 . S
C1097 H1090 0.950 . S
C1097 C1094 1.387 . S
C1098 C1099 1.387 . S
C1098 H1102 0.950 . S
C1098 C1107 1.390 1_455 S
C1099 C1098 1.387 . S
C1099 C1101 1.387 . S
H1100 C1107 0.950 . S
C1101 C1099 1.387 . S
C1101 C1103 1.390 1_455 S
C1101 H1105 0.950 . S
H1102 C1098 0.950 . S
C1103 C1101 1.390 1_655 S
C1103 C1104 1.387 . S
C1103 H1106 0.950 . S
C1104 C1103 1.387 . S
C1104 C1107 1.387 . S
H1105 C1101 0.950 . S
H1106 C1103 0.950 . S
C1107 C1098 1.390 1_655 S
C1107 H1100 0.950 . S
C1107 C1104 1.387 . S
C1108 C1109 1.387 . S
C1108 H1112 0.950 . S
C1108 C1117 1.390 1_455 S
C1109 C1108 1.387 . S
C1109 C1111 1.387 . S
H1110 C1117 0.950 . S
C1111 C1109 1.387 . S
C1111 C1113 1.390 1_455 S
C1111 H1115 0.950 . S
H1112 C1108 0.950 . S
C1113 C1111 1.390 1_655 S
C1113 C1114 1.387 . S
C1113 H1116 0.950 . S
C1114 C1113 1.387 . S
C1114 C1117 1.387 . S
H1115 C1111 0.950 . S
H1116 C1113 0.950 . S
C1117 C1108 1.390 1_655 S
C1117 H1110 0.950 . S
C1117 C1114 1.387 . S
C1118 C1119 1.387 . S
C1118 H1122 0.950 1_556 S
C1118 C1127 1.390 . S
C1119 C1118 1.387 . S
C1119 C1121 1.387 . S
H1120 C1127 0.950 1_554 S
C1121 C1119 1.387 . S
C1121 C1123 1.390 . S
C1121 H1125 0.950 . S
H1122 C1118 0.950 1_554 S
C1123 C1121 1.390 . S
C1123 C1124 1.387 . S
C1123 H1126 0.950 . S
C1124 C1123 1.387 . S
C1124 C1127 1.387 . S
H1125 C1121 0.950 . S
H1126 C1123 0.950 . S
C1127 C1118 1.390 . S
C1127 H1120 0.950 1_556 S
C1127 C1124 1.387 . S
C1128 C1129 1.387 . S
C1128 H1132 0.950 . S
C1128 C1137 1.390 . S
C1129 C1128 1.387 . S
C1129 C1131 1.387 . S
H1130 C1137 0.950 . S
C1131 C1129 1.387 . S
C1131 C1133 1.390 . S
C1131 H1135 0.950 . S
H1132 C1128 0.950 . S
C1133 C1131 1.390 . S
C1133 C1134 1.387 . S
C1133 H1136 0.950 . S
C1134 C1133 1.387 . S
C1134 C1137 1.387 . S
H1135 C1131 0.950 . S
H1136 C1133 0.950 . S
C1137 C1128 1.390 . S
C1137 H1130 0.950 . S
C1137 C1134 1.387 . S
C1138 C1139 1.387 . S
C1138 H1142 0.950 . S
C1138 C1147 1.390 . S
C1139 C1138 1.387 . S
C1139 C1141 1.387 . S
H1140 C1147 0.950 . S
C1141 C1139 1.387 . S
C1141 C1143 1.390 . S
C1141 H1145 0.950 . S
H1142 C1138 0.950 . S
C1143 C1141 1.390 . S
C1143 C1144 1.387 . S
C1143 H1146 0.950 . S
C1144 C1143 1.387 . S
C1144 C1147 1.387 . S
H1145 C1141 0.950 . S
H1146 C1143 0.950 . S
C1147 C1138 1.390 . S
C1147 H1140 0.950 . S
C1147 C1144 1.387 . S
C1148 C1149 1.387 . S
C1148 H1152 0.950 . S
C1148 C1157 1.390 1_455 S
C1149 C1148 1.387 . S
C1149 C1151 1.387 . S
H1150 C1157 0.950 . S
C1151 C1149 1.387 . S
C1151 C1153 1.390 1_455 S
C1151 H1155 0.950 . S
H1152 C1148 0.950 . S
C1153 C1151 1.390 1_655 S
C1153 C1154 1.387 . S
C1153 H1156 0.950 . S
C1154 C1153 1.387 . S
C1154 C1157 1.387 . S
H1155 C1151 0.950 . S
H1156 C1153 0.950 . S
C1157 C1148 1.390 1_655 S
C1157 H1150 0.950 . S
C1157 C1154 1.387 . S
C1158 C1159 1.387 . S
C1158 H1162 0.950 . S
C1158 C1167 1.390 1_455 S
C1159 C1158 1.387 . S
C1159 C1161 1.387 . S
H1160 C1167 0.950 . S
C1161 C1159 1.387 . S
C1161 C1163 1.390 1_455 S
C1161 H1165 0.950 1_554 S
H1162 C1158 0.950 . S
C1163 C1161 1.390 1_655 S
C1163 C1164 1.387 . S
C1163 H1166 0.950 1_554 S
C1164 C1163 1.387 . S
C1164 C1167 1.387 . S
H1165 C1161 0.950 1_556 S
H1166 C1163 0.950 1_556 S
C1167 C1158 1.390 1_655 S
C1167 H1160 0.950 . S
C1167 C1164 1.387 . S
C1168 C1169 1.387 . S
C1168 H1172 0.950 . S
C1168 C1177 1.390 . S
C1169 C1168 1.387 . S
C1169 C1171 1.387 . S
H1170 C1177 0.950 . S
C1171 C1169 1.387 . S
C1171 C1173 1.390 . S
C1171 H1175 0.950 . S
H1172 C1168 0.950 . S
C1173 C1171 1.390 . S
C1173 C1174 1.387 . S
C1173 H1176 0.950 . S
C1174 C1173 1.387 . S
C1174 C1177 1.387 . S
H1175 C1171 0.950 . S
H1176 C1173 0.950 . S
C1177 C1168 1.390 . S
C1177 H1170 0.950 . S
C1177 C1174 1.387 . S
C1178 C1179 1.387 . S
C1178 H1182 0.950 . S
C1178 C1187 1.390 1_455 S
C1179 C1178 1.387 . S
C1179 C1181 1.387 . S
H1180 C1187 0.950 . S
C1181 C1179 1.387 . S
C1181 C1183 1.390 1_455 S
C1181 H1185 0.950 . S
H1182 C1178 0.950 . S
C1183 C1181 1.390 1_655 S
C1183 C1184 1.387 . S
C1183 H1186 0.950 . S
C1184 C1183 1.387 . S
C1184 C1187 1.387 . S
H1185 C1181 0.950 . S
H1186 C1183 0.950 . S
C1187 C1178 1.390 1_655 S
C1187 H1180 0.950 . S
C1187 C1184 1.387 . S
C1188 C1189 1.387 . S
C1188 H1192 0.950 . S
C1188 C1197 1.390 1_655 S
C1189 C1188 1.387 . S
C1189 C1191 1.387 . S
H1190 C1197 0.950 . S
C1191 C1189 1.387 . S
C1191 C1193 1.390 1_655 S
C1191 H1195 0.950 . S
H1192 C1188 0.950 . S
C1193 C1191 1.390 1_455 S
C1193 C1194 1.387 . S
C1193 H1196 0.950 . S
C1194 C1193 1.387 . S
C1194 C1197 1.387 . S
H1195 C1191 0.950 . S
H1196 C1193 0.950 . S
C1197 C1188 1.390 1_455 S
C1197 H1190 0.950 . S
C1197 C1194 1.387 . S
C1198 C1199 1.387 . S
C1198 H1202 0.950 . S
C1198 C1207 1.390 . S
C1199 C1198 1.387 . S
C1199 C1201 1.387 . S
H1200 C1207 0.950 . S
C1201 C1199 1.387 . S
C1201 C1203 1.390 . S
C1201 H1205 0.950 1_554 S
H1202 C1198 0.950 . S
C1203 C1201 1.390 . S
C1203 C1204 1.387 . S
C1203 H1206 0.950 1_554 S
C1204 C1203 1.387 . S
C1204 C1207 1.387 . S
H1205 C1201 0.950 1_556 S
H1206 C1203 0.950 1_556 S
C1207 C1198 1.390 . S
C1207 H1200 0.950 . S
C1207 C1204 1.387 . S
C1208 C1209 1.387 . S
C1208 H1212 0.950 . S
C1208 C1217 1.390 . S
C1209 C1208 1.387 . S
C1209 C1211 1.387 . S
H1210 C1217 0.950 . S
C1211 C1209 1.387 . S
C1211 C1213 1.390 . S
C1211 H1215 0.950 . S
H1212 C1208 0.950 . S
C1213 C1211 1.390 . S
C1213 C1214 1.387 . S
C1213 H1216 0.950 . S
C1214 C1213 1.387 . S
C1214 C1217 1.387 . S
H1215 C1211 0.950 . S
H1216 C1213 0.950 . S
C1217 C1208 1.390 . S
C1217 H1210 0.950 . S
C1217 C1214 1.387 . S
C1218 C1219 1.387 . S
C1218 H1222 0.950 . S
C1218 C1227 1.390 . S
C1219 C1218 1.387 . S
C1219 C1221 1.387 . S
H1220 C1227 0.950 . S
C1221 C1219 1.387 . S
C1221 C1223 1.390 . S
C1221 H1225 0.950 . S
H1222 C1218 0.950 . S
C1223 C1221 1.390 . S
C1223 C1224 1.387 . S
C1223 H1226 0.950 . S
C1224 C1223 1.387 . S
C1224 C1227 1.387 . S
H1225 C1221 0.950 . S
H1226 C1223 0.950 . S
C1227 C1218 1.390 . S
C1227 H1220 0.950 . S
C1227 C1224 1.387 . S
C1228 C1229 1.387 . S
C1228 H1232 0.950 . S
C1228 C1237 1.390 1_455 S
C1229 C1228 1.387 . S
C1229 C1231 1.387 . S
H1230 C1237 0.950 . S
C1231 C1229 1.387 . S
C1231 C1233 1.390 1_455 S
C1231 H1235 0.950 . S
H1232 C1228 0.950 . S
C1233 C1231 1.390 1_655 S
C1233 C1234 1.387 . S
C1233 H1236 0.950 . S
C1234 C1233 1.387 . S
C1234 C1237 1.387 . S
H1235 C1231 0.950 . S
H1236 C1233 0.950 . S
C1237 C1228 1.390 1_655 S
C1237 H1230 0.950 . S
C1237 C1234 1.387 . S
C1238 C1239 1.387 . S
C1238 H1242 0.950 1_556 S
C1238 C1247 1.390 1_455 S
C1239 C1238 1.387 . S
C1239 C1241 1.387 . S
H1240 C1247 0.950 1_554 S
C1241 C1239 1.387 . S
C1241 C1243 1.390 1_455 S
C1241 H1245 0.950 . S
H1242 C1238 0.950 1_554 S
C1243 C1241 1.390 1_655 S
C1243 C1244 1.387 . S
C1243 H1246 0.950 . S
C1244 C1243 1.387 . S
C1244 C1247 1.387 . S
H1245 C1241 0.950 . S
H1246 C1243 0.950 . S
C1247 C1238 1.390 1_655 S
C1247 H1240 0.950 1_556 S
C1247 C1244 1.387 . S
C1248 C1249 1.387 . S
C1248 H1252 0.950 . S
C1248 C1257 1.390 . S
C1249 C1248 1.387 . S
C1249 C1251 1.387 . S
H1250 C1257 0.950 . S
C1251 C1249 1.387 . S
C1251 C1253 1.390 . S
C1251 H1255 0.950 . S
H1252 C1248 0.950 . S
C1253 C1251 1.390 . S
C1253 C1254 1.387 . S
C1253 H1256 0.950 . S
C1254 C1253 1.387 . S
C1254 C1257 1.387 . S
H1255 C1251 0.950 . S
H1256 C1253 0.950 . S
C1257 C1248 1.390 . S
C1257 H1250 0.950 . S
C1257 C1254 1.387 . S
C1258 C1259 1.387 . S
C1258 H1262 0.950 . S
C1258 C1267 1.390 . S
C1259 C1258 1.387 . S
C1259 C1261 1.387 . S
H1260 C1267 0.950 . S
C1261 C1259 1.387 . S
C1261 C1263 1.390 . S
C1261 H1265 0.950 . S
H1262 C1258 0.950 . S
C1263 C1261 1.390 . S
C1263 C1264 1.387 . S
C1263 H1266 0.950 . S
C1264 C1263 1.387 . S
C1264 C1267 1.387 . S
H1265 C1261 0.950 . S
H1266 C1263 0.950 . S
C1267 C1258 1.390 . S
C1267 H1260 0.950 . S
C1267 C1264 1.387 . S
C1268 C1269 1.387 . S
C1268 H1272 0.950 . S
C1268 C1277 1.390 . S
C1269 C1268 1.387 . S
C1269 C1271 1.387 . S
H1270 C1277 0.950 . S
C1271 C1269 1.387 . S
C1271 C1273 1.390 . S
C1271 H1275 0.950 . S
H1272 C1268 0.950 . S
C1273 C1271 1.390 . S
C1273 C1274 1.387 . S
C1273 H1276 0.950 . S
C1274 C1273 1.387 . S
C1274 C1277 1.387 . S
H1275 C1271 0.950 . S
H1276 C1273 0.950 . S
C1277 C1268 1.390 . S
C1277 H1270 0.950 . S
C1277 C1274 1.387 . S
C1278 C1279 1.387 . S
C1278 H1282 0.950 . S
C1278 C1287 1.390 . S
C1279 C1278 1.387 . S
C1279 C1281 1.387 . S
H1280 C1287 0.950 . S
C1281 C1279 1.387 . S
C1281 C1283 1.390 . S
C1281 H1285 0.950 . S
H1282 C1278 0.950 . S
C1283 C1281 1.390 . S
C1283 C1284 1.387 . S
C1283 H1286 0.950 . S
C1284 C1283 1.387 . S
C1284 C1287 1.387 . S
H1285 C1281 0.950 . S
H1286 C1283 0.950 . S
C1287 C1278 1.390 . S
C1287 H1280 0.950 . S
C1287 C1284 1.387 . S
C1288 C1289 1.387 . S
C1288 H1292 0.950 . S
C1288 C1297 1.390 . S
C1289 C1288 1.387 . S
C1289 C1291 1.387 . S
H1290 C1297 0.950 . S
C1291 C1289 1.387 . S
C1291 C1293 1.390 . S
C1291 H1295 0.950 . S
H1292 C1288 0.950 . S
C1293 C1291 1.390 . S
C1293 C1294 1.387 . S
C1293 H1296 0.950 . S
C1294 C1293 1.387 . S
C1294 C1297 1.387 . S
H1295 C1291 0.950 . S
H1296 C1293 0.950 . S
C1297 C1288 1.390 . S
C1297 H1290 0.950 . S
C1297 C1294 1.387 . S
C1298 C1299 1.387 . S
C1298 H1302 0.950 . S
C1298 C1307 1.390 . S
C1299 C1298 1.387 . S
C1299 C1301 1.387 . S
H1300 C1307 0.950 . S
C1301 C1299 1.387 . S
C1301 C1303 1.390 . S
C1301 H1305 0.950 . S
H1302 C1298 0.950 . S
C1303 C1301 1.390 . S
C1303 C1304 1.387 . S
C1303 H1306 0.950 . S
C1304 C1303 1.387 . S
C1304 C1307 1.387 . S
H1305 C1301 0.950 . S
H1306 C1303 0.950 . S
C1307 C1298 1.390 . S
C1307 H1300 0.950 . S
C1307 C1304 1.387 . S
C1308 C1309 1.387 . S
C1308 H1312 0.950 . S
C1308 C1317 1.390 . S
C1309 C1308 1.387 . S
C1309 C1311 1.387 . S
H1310 C1317 0.950 . S
C1311 C1309 1.387 . S
C1311 C1313 1.390 . S
C1311 H1315 0.950 . S
H1312 C1308 0.950 . S
C1313 C1311 1.390 . S
C1313 C1314 1.387 . S
C1313 H1316 0.950 . S
C1314 C1313 1.387 . S
C1314 C1317 1.387 . S
H1315 C1311 0.950 . S
H1316 C1313 0.950 . S
C1317 C1308 1.390 . S
C1317 H1310 0.950 . S
C1317 C1314 1.387 . S
C1318 C1319 1.387 . S
C1318 H1322 0.950 . S
C1318 C1327 1.390 . S
C1319 C1318 1.387 . S
C1319 C1321 1.387 . S
H1320 C1327 0.950 . S
C1321 C1319 1.387 . S
C1321 C1323 1.390 . S
C1321 H1325 0.950 . S
H1322 C1318 0.950 . S
C1323 C1321 1.390 . S
C1323 C1324 1.387 . S
C1323 H1326 0.950 . S
C1324 C1323 1.387 . S
C1324 C1327 1.387 . S
H1325 C1321 0.950 . S
H1326 C1323 0.950 . S
C1327 C1318 1.390 . S
C1327 H1320 0.950 . S
C1327 C1324 1.387 . S
C1328 C1329 1.387 . S
C1328 H1332 0.950 . S
C1328 C1337 1.390 . S
C1329 C1328 1.387 . S
C1329 C1331 1.387 . S
H1330 C1337 0.950 . S
C1331 C1329 1.387 . S
C1331 C1333 1.390 . S
C1331 H1335 0.950 . S
H1332 C1328 0.950 . S
C1333 C1331 1.390 . S
C1333 C1334 1.387 . S
C1333 H1336 0.950 . S
C1334 C1333 1.387 . S
C1334 C1337 1.387 . S
H1335 C1331 0.950 . S
H1336 C1333 0.950 . S
C1337 C1328 1.390 . S
C1337 H1330 0.950 . S
C1337 C1334 1.387 . S
C1338 C1339 1.387 . S
C1338 H1342 0.950 . S
C1338 C1347 1.390 . S
C1339 C1338 1.387 . S
C1339 C1341 1.387 . S
H1340 C1347 0.950 . S
C1341 C1339 1.387 . S
C1341 C1343 1.390 . S
C1341 H1345 0.950 . S
H1342 C1338 0.950 . S
C1343 C1341 1.390 . S
C1343 C1344 1.387 . S
C1343 H1346 0.950 . S
C1344 C1343 1.387 . S
C1344 C1347 1.387 . S
H1345 C1341 0.950 . S
H1346 C1343 0.950 . S
C1347 C1338 1.390 . S
C1347 H1340 0.950 . S
C1347 C1344 1.387 . S
C1348 C1349 1.387 . S
C1348 H1352 0.950 . S
C1348 C1357 1.390 . S
C1349 C1348 1.387 . S
C1349 C1351 1.387 . S
H1350 C1357 0.950 1_455 S
C1351 C1349 1.387 . S
C1351 C1353 1.390 . S
C1351 H1355 0.950 . S
H1352 C1348 0.950 . S
C1353 C1351 1.390 . S
C1353 C1354 1.387 . S
C1353 H1356 0.950 . S
C1354 C1353 1.387 . S
C1354 C1357 1.387 . S
H1355 C1351 0.950 . S
H1356 C1353 0.950 . S
C1357 C1348 1.390 . S
C1357 H1350 0.950 1_655 S
C1357 C1354 1.387 . S
C1358 C1359 1.387 . S
C1358 H1362 0.950 . S
C1358 C1367 1.390 . S
C1359 C1358 1.387 . S
C1359 C1361 1.387 . S
H1360 C1367 0.950 . S
C1361 C1359 1.387 . S
C1361 C1363 1.390 . S
C1361 H1365 0.950 . S
H1362 C1358 0.950 . S
C1363 C1361 1.390 . S
C1363 C1364 1.387 . S
C1363 H1366 0.950 . S
C1364 C1363 1.387 . S
C1364 C1367 1.387 . S
H1365 C1361 0.950 . S
H1366 C1363 0.950 . S
C1367 C1358 1.390 . S
C1367 H1360 0.950 . S
C1367 C1364 1.387 . S
C1368 C1369 1.387 . S
C1368 H1372 0.950 . S
C1368 C1377 1.390 . S
C1369 C1368 1.387 . S
C1369 C1371 1.387 . S
H1370 C1377 0.950 . S
C1371 C1369 1.387 . S
C1371 C1373 1.390 . S
C1371 H1375 0.950 . S
H1372 C1368 0.950 . S
C1373 C1371 1.390 . S
C1373 C1374 1.387 . S
C1373 H1376 0.950 . S
C1374 C1373 1.387 . S
C1374 C1377 1.387 . S
H1375 C1371 0.950 . S
H1376 C1373 0.950 . S
C1377 C1368 1.390 . S
C1377 H1370 0.950 . S
C1377 C1374 1.387 . S
C1378 C1379 1.387 . S
C1378 H1382 0.950 . S
C1378 C1387 1.390 . S
C1379 C1378 1.387 . S
C1379 C1381 1.387 . S
H1380 C1387 0.950 . S
C1381 C1379 1.387 . S
C1381 C1383 1.390 . S
C1381 H1385 0.950 . S
H1382 C1378 0.950 . S
C1383 C1381 1.390 . S
C1383 C1384 1.387 . S
C1383 H1386 0.950 . S
C1384 C1383 1.387 . S
C1384 C1387 1.387 . S
H1385 C1381 0.950 . S
H1386 C1383 0.950 . S
C1387 C1378 1.390 . S
C1387 H1380 0.950 . S
C1387 C1384 1.387 . S
C1388 C1389 1.387 . S
C1388 H1392 0.950 . S
C1388 C1397 1.390 . S
C1389 C1388 1.387 . S
C1389 C1391 1.387 . S
H1390 C1397 0.950 . S
C1391 C1389 1.387 . S
C1391 C1393 1.390 . S
C1391 H1395 0.950 . S
H1392 C1388 0.950 . S
C1393 C1391 1.390 . S
C1393 C1394 1.387 . S
C1393 H1396 0.950 . S
C1394 C1393 1.387 . S
C1394 C1397 1.387 . S
H1395 C1391 0.950 . S
H1396 C1393 0.950 . S
C1397 C1388 1.390 . S
C1397 H1390 0.950 . S
C1397 C1394 1.387 . S
C1398 C1399 1.387 . S
C1398 H1402 0.950 . S
C1398 C1407 1.390 . S
C1399 C1398 1.387 . S
C1399 C1401 1.387 . S
H1400 C1407 0.950 . S
C1401 C1399 1.387 . S
C1401 C1403 1.390 . S
C1401 H1405 0.950 . S
H1402 C1398 0.950 . S
C1403 C1401 1.390 . S
C1403 C1404 1.387 . S
C1403 H1406 0.950 . S
C1404 C1403 1.387 . S
C1404 C1407 1.387 . S
H1405 C1401 0.950 . S
H1406 C1403 0.950 . S
C1407 C1398 1.390 . S
C1407 H1400 0.950 . S
C1407 C1404 1.387 . S
C1408 C1409 1.387 . S
C1408 H1412 0.950 . S
C1408 C1417 1.390 . S
C1409 C1408 1.387 . S
C1409 C1411 1.387 . S
H1410 C1417 0.950 . S
C1411 C1409 1.387 . S
C1411 C1413 1.390 . S
C1411 H1415 0.950 . S
H1412 C1408 0.950 . S
C1413 C1411 1.390 . S
C1413 C1414 1.387 . S
C1413 H1416 0.950 . S
C1414 C1413 1.387 . S
C1414 C1417 1.387 . S
H1415 C1411 0.950 . S
H1416 C1413 0.950 . S
C1417 C1408 1.390 . S
C1417 H1410 0.950 . S
C1417 C1414 1.387 . S
C1418 C1419 1.387 . S
C1418 H1422 0.950 . S
C1418 C1427 1.390 . S
C1419 C1418 1.387 . S
C1419 C1421 1.387 . S
H1420 C1427 0.950 . S
C1421 C1419 1.387 . S
C1421 C1423 1.390 . S
C1421 H1425 0.950 . S
H1422 C1418 0.950 . S
C1423 C1421 1.390 . S
C1423 C1424 1.387 . S
C1423 H1426 0.950 . S
C1424 C1423 1.387 . S
C1424 C1427 1.387 . S
H1425 C1421 0.950 . S
H1426 C1423 0.950 . S
C1427 C1418 1.390 . S
C1427 H1420 0.950 . S
C1427 C1424 1.387 . S
C1428 C1429 1.387 . S
C1428 H1432 0.950 . S
C1428 C1437 1.390 . S
C1429 C1428 1.387 . S
C1429 C1431 1.387 . S
H1430 C1437 0.950 . S
C1431 C1429 1.387 . S
C1431 C1433 1.390 . S
C1431 H1435 0.950 . S
H1432 C1428 0.950 . S
C1433 C1431 1.390 . S
C1433 C1434 1.387 . S
C1433 H1436 0.950 . S
C1434 C1433 1.387 . S
C1434 C1437 1.387 . S
H1435 C1431 0.950 . S
H1436 C1433 0.950 . S
C1437 C1428 1.390 . S
C1437 H1430 0.950 . S
C1437 C1434 1.387 . S
C1438 C1439 1.387 . S
C1438 H1442 0.950 . S
C1438 C1447 1.390 . S
C1439 C1438 1.387 . S
C1439 C1441 1.387 . S
H1440 C1447 0.950 . S
C1441 C1439 1.387 . S
C1441 C1443 1.390 . S
C1441 H1445 0.950 . S
H1442 C1438 0.950 . S
C1443 C1441 1.390 . S
C1443 C1444 1.387 . S
C1443 H1446 0.950 . S
C1444 C1443 1.387 . S
C1444 C1447 1.387 . S
H1445 C1441 0.950 . S
H1446 C1443 0.950 . S
C1447 C1438 1.390 . S
C1447 H1440 0.950 . S
C1447 C1444 1.387 . S
C1448 C1449 1.387 . S
C1448 H1452 0.950 . S
C1448 C1457 1.390 . S
C1449 C1448 1.387 . S
C1449 C1451 1.387 . S
H1450 C1457 0.950 . S
C1451 C1449 1.387 . S
C1451 C1453 1.390 . S
C1451 H1455 0.950 . S
H1452 C1448 0.950 . S
C1453 C1451 1.390 . S
C1453 C1454 1.387 . S
C1453 H1456 0.950 . S
C1454 C1453 1.387 . S
C1454 C1457 1.387 . S
H1455 C1451 0.950 . S
H1456 C1453 0.950 . S
C1457 C1448 1.390 . S
C1457 H1450 0.950 . S
C1457 C1454 1.387 . S
C1458 C1459 1.387 . S
C1458 H1462 0.950 . S
C1458 C1467 1.390 . S
C1459 C1458 1.387 . S
C1459 C1461 1.387 . S
H1460 C1467 0.950 . S
C1461 C1459 1.387 . S
C1461 C1463 1.390 . S
C1461 H1465 0.950 . S
H1462 C1458 0.950 . S
C1463 C1461 1.390 . S
C1463 C1464 1.387 . S
C1463 H1466 0.950 . S
C1464 C1463 1.387 . S
C1464 C1467 1.387 . S
H1465 C1461 0.950 . S
H1466 C1463 0.950 . S
C1467 C1458 1.390 . S
C1467 H1460 0.950 . S
C1467 C1464 1.387 . S
C1468 C1469 1.387 . S
C1468 H1472 0.950 . S
C1468 C1477 1.390 . S
C1469 C1468 1.387 . S
C1469 C1471 1.387 . S
H1470 C1477 0.950 . S
C1471 C1469 1.387 . S
C1471 C1473 1.390 . S
C1471 H1475 0.950 . S
H1472 C1468 0.950 . S
C1473 C1471 1.390 . S
C1473 C1474 1.387 . S
C1473 H1476 0.950 . S
C1474 C1473 1.387 . S
C1474 C1477 1.387 . S
H1475 C1471 0.950 . S
H1476 C1473 0.950 . S
C1477 C1468 1.390 . S
C1477 H1470 0.950 . S
C1477 C1474 1.387 . S
C1478 C1479 1.387 . S
C1478 H1482 0.950 . S
C1478 C1487 1.390 . S
C1479 C1478 1.387 . S
C1479 C1481 1.387 . S
H1480 C1487 0.950 . S
C1481 C1479 1.387 . S
C1481 C1483 1.390 . S
C1481 H1485 0.950 . S
H1482 C1478 0.950 . S
C1483 C1481 1.390 . S
C1483 C1484 1.387 . S
C1483 H1486 0.950 . S
C1484 C1483 1.387 . S
C1484 C1487 1.387 . S
H1485 C1481 0.950 . S
H1486 C1483 0.950 . S
C1487 C1478 1.390 . S
C1487 H1480 0.950 . S
C1487 C1484 1.387 . S
C1488 C1489 1.387 . S
C1488 H1492 0.950 . S
C1488 C1497 1.390 . S
C1489 C1488 1.387 . S
C1489 C1491 1.387 . S
H1490 C1497 0.950 . S
C1491 C1489 1.387 . S
C1491 C1493 1.390 . S
C1491 H1495 0.950 . S
H1492 C1488 0.950 . S
C1493 C1491 1.390 . S
C1493 C1494 1.387 . S
C1493 H1496 0.950 . S
C1494 C1493 1.387 . S
C1494 C1497 1.387 . S
H1495 C1491 0.950 . S
H1496 C1493 0.950 . S
C1497 C1488 1.390 . S
C1497 H1490 0.950 . S
C1497 C1494 1.387 . S
C1498 C1499 1.387 . S
C1498 H1502 0.950 . S
C1498 C1507 1.390 . S
C1499 C1498 1.387 . S
C1499 C1501 1.387 . S
H1500 C1507 0.950 . S
C1501 C1499 1.387 . S
C1501 C1503 1.390 . S
C1501 H1505 0.950 . S
H1502 C1498 0.950 . S
C1503 C1501 1.390 . S
C1503 C1504 1.387 . S
C1503 H1506 0.950 . S
C1504 C1503 1.387 . S
C1504 C1507 1.387 . S
H1505 C1501 0.950 . S
H1506 C1503 0.950 . S
C1507 C1498 1.390 . S
C1507 H1500 0.950 . S
C1507 C1504 1.387 . S
C1508 C1509 1.387 . S
C1508 H1512 0.950 . S
C1508 C1517 1.390 . S
C1509 C1508 1.387 . S
C1509 C1511 1.387 . S
H1510 C1517 0.950 . S
C1511 C1509 1.387 . S
C1511 C1513 1.390 . S
C1511 H1515 0.950 . S
H1512 C1508 0.950 . S
C1513 C1511 1.390 . S
C1513 C1514 1.387 . S
C1513 H1516 0.950 . S
C1514 C1513 1.387 . S
C1514 C1517 1.387 . S
H1515 C1511 0.950 . S
H1516 C1513 0.950 . S
C1517 C1508 1.390 . S
C1517 H1510 0.950 . S
C1517 C1514 1.387 . S
C1518 C1519 1.387 . S
C1518 H1522 0.950 . S
C1518 C1527 1.390 . S
C1519 C1518 1.387 . S
C1519 C1521 1.387 . S
H1520 C1527 0.950 . S
C1521 C1519 1.387 . S
C1521 C1523 1.390 . S
C1521 H1525 0.950 . S
H1522 C1518 0.950 . S
C1523 C1521 1.390 . S
C1523 C1524 1.387 . S
C1523 H1526 0.950 . S
C1524 C1523 1.387 . S
C1524 C1527 1.387 . S
H1525 C1521 0.950 . S
H1526 C1523 0.950 . S
C1527 C1518 1.390 . S
C1527 H1520 0.950 . S
C1527 C1524 1.387 . S
C1528 C1529 1.387 . S
C1528 H1532 0.950 . S
C1528 C1537 1.390 . S
C1529 C1528 1.387 . S
C1529 C1531 1.387 . S
H1530 C1537 0.950 . S
C1531 C1529 1.387 . S
C1531 C1533 1.390 . S
C1531 H1535 0.950 . S
H1532 C1528 0.950 . S
C1533 C1531 1.390 . S
C1533 C1534 1.387 . S
C1533 H1536 0.950 . S
C1534 C1533 1.387 . S
C1534 C1537 1.387 . S
H1535 C1531 0.950 . S
H1536 C1533 0.950 . S
C1537 C1528 1.390 . S
C1537 H1530 0.950 . S
C1537 C1534 1.387 . S
C1538 C1539 1.387 . S
C1538 H1542 0.950 . S
C1538 C1547 1.390 . S
C1539 C1538 1.387 . S
C1539 C1541 1.387 . S
H1540 C1547 0.950 . S
C1541 C1539 1.387 . S
C1541 C1543 1.390 . S
C1541 H1545 0.950 . S
H1542 C1538 0.950 . S
C1543 C1541 1.390 . S
C1543 C1544 1.387 . S
C1543 H1546 0.950 . S
C1544 C1543 1.387 . S
C1544 C1547 1.387 . S
H1545 C1541 0.950 . S
H1546 C1543 0.950 . S
C1547 C1538 1.390 . S
C1547 H1540 0.950 . S
C1547 C1544 1.387 . S
C1548 C1549 1.387 . S
C1548 H1552 0.950 . S
C1548 C1557 1.390 . S
C1549 C1548 1.387 . S
C1549 C1551 1.387 . S
H1550 C1557 0.950 . S
C1551 C1549 1.387 . S
C1551 C1553 1.390 . S
C1551 H1555 0.950 . S
H1552 C1548 0.950 . S
C1553 C1551 1.390 . S
C1553 C1554 1.387 . S
C1553 H1556 0.950 . S
C1554 C1553 1.387 . S
C1554 C1557 1.387 . S
H1555 C1551 0.950 . S
H1556 C1553 0.950 . S
C1557 C1548 1.390 . S
C1557 H1550 0.950 . S
C1557 C1554 1.387 . S
C1558 C1559 1.387 . S
C1558 H1562 0.950 . S
C1558 C1567 1.390 . S
C1559 C1558 1.387 . S
C1559 C1561 1.387 . S
H1560 C1567 0.950 . S
C1561 C1559 1.387 . S
C1561 C1563 1.390 . S
C1561 H1565 0.950 . S
H1562 C1558 0.950 . S
C1563 C1561 1.390 . S
C1563 C1564 1.387 . S
C1563 H1566 0.950 . S
C1564 C1563 1.387 . S
C1564 C1567 1.387 . S
H1565 C1561 0.950 . S
H1566 C1563 0.950 . S
C1567 C1558 1.390 . S
C1567 H1560 0.950 . S
C1567 C1564 1.387 . S
C1568 C1569 1.387 . S
C1568 H1572 0.950 . S
C1568 C1577 1.390 . S
C1569 C1568 1.387 . S
C1569 C1571 1.387 . S
H1570 C1577 0.950 . S
C1571 C1569 1.387 . S
C1571 C1573 1.390 . S
C1571 H1575 0.950 . S
H1572 C1568 0.950 . S
C1573 C1571 1.390 . S
C1573 C1574 1.387 . S
C1573 H1576 0.950 . S
C1574 C1573 1.387 . S
C1574 C1577 1.387 . S
H1575 C1571 0.950 . S
H1576 C1573 0.950 . S
C1577 C1568 1.390 . S
C1577 H1570 0.950 . S
C1577 C1574 1.387 . S
C1578 C1579 1.387 . S
C1578 H1582 0.950 . S
C1578 C1587 1.390 . S
C1579 C1578 1.387 . S
C1579 C1581 1.387 . S
H1580 C1587 0.950 . S
C1581 C1579 1.387 . S
C1581 C1583 1.390 . S
C1581 H1585 0.950 . S
H1582 C1578 0.950 . S
C1583 C1581 1.390 . S
C1583 C1584 1.387 . S
C1583 H1586 0.950 1_565 S
C1584 C1583 1.387 . S
C1584 C1587 1.387 . S
H1585 C1581 0.950 . S
H1586 C1583 0.950 1_545 S
C1587 C1578 1.390 . S
C1587 H1580 0.950 . S
C1587 C1584 1.387 . S
C1588 C1589 1.387 . S
C1588 H1592 0.950 . S
C1588 C1597 1.390 . S
C1589 C1588 1.387 . S
C1589 C1591 1.387 . S
H1590 C1597 0.972 . S
C1591 C1589 1.387 . S
C1591 C1593 1.390 . S
C1591 H1595 0.950 . S
H1592 C1588 0.950 . S
C1593 C1591 1.390 . S
C1593 C1594 1.387 . S
C1593 H1596 0.950 . S
C1594 C1593 1.387 . S
C1594 C1597 1.387 . S
H1595 C1591 0.950 . S
H1596 C1593 0.950 . S
C1597 C1588 1.390 . S
C1597 H1590 0.972 . S
C1597 C1594 1.387 . S
C1598 C1599 1.387 . S
C1598 H1602 0.950 . S
C1598 C1607 1.390 . S
C1599 C1598 1.387 . S
C1599 C1601 1.387 . S
H1600 C1607 0.950 . S
C1601 C1599 1.387 . S
C1601 C1603 1.390 . S
C1601 H1605 0.950 . S
H1602 C1598 0.950 . S
C1603 C1601 1.390 . S
C1603 C1604 1.387 . S
C1603 H1606 0.950 . S
C1604 C1603 1.387 . S
C1604 C1607 1.387 . S
H1605 C1601 0.950 . S
H1606 C1603 0.950 . S
C1607 C1598 1.390 . S
C1607 H1600 0.950 . S
C1607 C1604 1.387 . S
C1608 C1609 1.387 . S
C1608 H1612 0.950 . S
C1608 C1617 1.390 . S
C1609 C1608 1.387 . S
C1609 C1611 1.387 . S
H1610 C1617 0.950 . S
C1611 C1609 1.387 . S
C1611 C1613 1.390 . S
C1611 H1615 0.950 1_565 S
H1612 C1608 0.950 . S
C1613 C1611 1.390 . S
C1613 C1614 1.387 . S
C1613 H1616 0.950 . S
C1614 C1613 1.387 . S
C1614 C1617 1.387 . S
H1615 C1611 0.950 1_545 S
H1616 C1613 0.950 . S
C1617 C1608 1.390 . S
C1617 H1610 0.950 . S
C1617 C1614 1.387 . S
C1618 C1619 1.387 . S
C1618 H1622 0.950 1_545 S
C1618 C1627 1.390 . S
C1619 C1618 1.387 . S
C1619 C1621 1.387 . S
H1620 C1627 0.950 . S
C1621 C1619 1.387 . S
C1621 C1623 1.390 . S
C1621 H1625 0.950 . S
H1622 C1618 0.950 1_565 S
C1623 C1621 1.390 . S
C1623 C1624 1.387 . S
C1623 H1626 0.950 . S
C1624 C1623 1.387 . S
C1624 C1627 1.387 . S
H1625 C1621 0.950 . S
H1626 C1623 0.950 . S
C1627 C1618 1.390 . S
C1627 H1620 0.950 . S
C1627 C1624 1.387 . S
C1628 C1629 1.387 . S
C1628 H1632 0.950 . S
C1628 C1637 1.390 . S
C1629 C1628 1.387 . S
C1629 C1631 1.387 . S
H1630 C1637 0.950 . S
C1631 C1629 1.387 . S
C1631 C1633 1.390 . S
C1631 H1635 0.933 1_545 S
H1632 C1628 0.950 . S
C1633 C1631 1.390 . S
C1633 C1634 1.387 . S
C1633 H1636 0.950 . S
C1634 C1633 1.387 . S
C1634 C1637 1.387 . S
H1635 C1631 0.933 1_565 S
H1636 C1633 0.950 . S
C1637 C1628 1.390 . S
C1637 H1630 0.950 . S
C1637 C1634 1.387 . S
C1638 C1639 1.387 . S
C1638 H1642 0.950 . S
C1638 C1647 1.390 . S
C1639 C1638 1.387 . S
C1639 C1641 1.387 . S
H1640 C1647 0.950 1_545 S
C1641 C1639 1.387 . S
C1641 C1643 1.390 . S
C1641 H1645 0.950 . S
H1642 C1638 0.950 . S
C1643 C1641 1.390 . S
C1643 C1644 1.387 . S
C1643 H1646 0.950 . S
C1644 C1643 1.387 . S
C1644 C1647 1.387 . S
H1645 C1641 0.950 . S
H1646 C1643 0.950 . S
C1647 C1638 1.390 . S
C1647 H1640 0.950 1_565 S
C1647 C1644 1.387 . S
C1648 C1649 1.387 . S
C1648 H1652 0.950 . S
C1648 C1657 1.390 . S
C1649 C1648 1.387 . S
C1649 C1651 1.387 . S
H1650 C1657 0.950 . S
C1651 C1649 1.387 . S
C1651 C1653 1.390 . S
C1651 H1655 0.950 . S
H1652 C1648 0.950 . S
C1653 C1651 1.390 . S
C1653 C1654 1.387 . S
C1653 H1656 0.950 . S
C1654 C1653 1.387 . S
C1654 C1657 1.387 . S
H1655 C1651 0.950 . S
H1656 C1653 0.950 . S
C1657 C1648 1.390 . S
C1657 H1650 0.950 . S
C1657 C1654 1.387 . S
C1658 C1659 1.387 . S
C1658 H1662 0.950 . S
C1658 C1667 1.390 . S
C1659 C1658 1.387 . S
C1659 C1661 1.387 . S
H1660 C1667 0.950 . S
C1661 C1659 1.387 . S
C1661 C1663 1.390 . S
C1661 H1665 0.950 . S
H1662 C1658 0.950 . S
C1663 C1661 1.390 . S
C1663 C1664 1.387 . S
C1663 H1666 0.950 . S
C1664 C1663 1.387 . S
C1664 C1667 1.387 . S
H1665 C1661 0.950 . S
H1666 C1663 0.950 . S
C1667 C1658 1.390 . S
C1667 H1660 0.950 . S
C1667 C1664 1.387 . S
C1668 C1669 1.387 . S
C1668 H1672 0.950 . S
C1668 C1677 1.390 . S
C1669 C1668 1.387 . S
C1669 C1671 1.387 . S
H1670 C1677 0.950 . S
C1671 C1669 1.387 . S
C1671 C1673 1.390 . S
C1671 H1675 0.950 . S
H1672 C1668 0.950 . S
C1673 C1671 1.390 . S
C1673 C1674 1.387 . S
C1673 H1676 0.950 . S
C1674 C1673 1.387 . S
C1674 C1677 1.387 . S
H1675 C1671 0.950 . S
H1676 C1673 0.950 . S
C1677 C1668 1.390 . S
C1677 H1670 0.950 . S
C1677 C1674 1.387 . S
C1678 C1679 1.387 . S
C1678 H1682 0.950 . S
C1678 C1687 1.390 . S
C1679 C1678 1.387 . S
C1679 C1681 1.387 . S
H1680 C1687 0.950 . S
C1681 C1679 1.387 . S
C1681 C1683 1.390 . S
C1681 H1685 0.950 . S
H1682 C1678 0.950 . S
C1683 C1681 1.390 . S
C1683 C1684 1.387 . S
C1683 H1686 0.950 . S
C1684 C1683 1.387 . S
C1684 C1687 1.387 . S
H1685 C1681 0.950 . S
H1686 C1683 0.950 . S
C1687 C1678 1.390 . S
C1687 H1680 0.950 . S
C1687 C1684 1.387 . S
C1688 C1689 1.387 . S
C1688 H1692 0.950 . S
C1688 C1697 1.390 . S
C1689 C1688 1.387 . S
C1689 C1691 1.387 . S
H1690 C1697 0.950 . S
C1691 C1689 1.387 . S
C1691 C1693 1.390 . S
C1691 H1695 0.950 . S
H1692 C1688 0.950 . S
C1693 C1691 1.390 . S
C1693 C1694 1.387 . S
C1693 H1696 0.950 . S
C1694 C1693 1.387 . S
C1694 C1697 1.387 . S
H1695 C1691 0.950 . S
H1696 C1693 0.950 . S
C1697 C1688 1.390 . S
C1697 H1690 0.950 . S
C1697 C1694 1.387 . S
C1698 C1699 1.387 . S
C1698 H1702 0.950 . S
C1698 C1707 1.390 . S
C1699 C1698 1.387 . S
C1699 C1701 1.387 . S
H1700 C1707 0.950 . S
C1701 C1699 1.387 . S
C1701 C1703 1.390 . S
C1701 H1705 0.950 . S
H1702 C1698 0.950 . S
C1703 C1701 1.390 . S
C1703 C1704 1.387 . S
C1703 H1706 0.950 . S
C1704 C1703 1.387 . S
C1704 C1707 1.387 . S
H1705 C1701 0.950 . S
H1706 C1703 0.950 . S
C1707 C1698 1.390 . S
C1707 H1700 0.950 . S
C1707 C1704 1.387 . S
C1708 C1709 1.387 . S
C1708 H1712 0.950 . S
C1708 C1717 1.390 . S
C1709 C1708 1.387 . S
C1709 C1711 1.387 . S
H1710 C1717 0.950 . S
C1711 C1709 1.387 . S
C1711 C1713 1.390 . S
C1711 H1715 0.950 . S
H1712 C1708 0.950 . S
C1713 C1711 1.390 . S
C1713 C1714 1.387 . S
C1713 H1716 0.950 . S
C1714 C1713 1.387 . S
C1714 C1717 1.387 . S
H1715 C1711 0.950 . S
H1716 C1713 0.950 . S
C1717 C1708 1.390 . S
C1717 H1710 0.950 . S
C1717 C1714 1.387 . S
C1718 C1719 1.387 . S
C1718 H1722 0.950 . S
C1718 C1727 1.390 . S
C1719 C1718 1.387 . S
C1719 C1721 1.387 . S
H1720 C1727 0.950 . S
C1721 C1719 1.387 . S
C1721 C1723 1.390 . S
C1721 H1725 0.950 . S
H1722 C1718 0.950 . S
C1723 C1721 1.390 . S
C1723 C1724 1.387 . S
C1723 H1726 0.950 . S
C1724 C1723 1.387 . S
C1724 C1727 1.387 . S
H1725 C1721 0.950 . S
H1726 C1723 0.950 . S
C1727 C1718 1.390 . S
C1727 H1720 0.950 . S
C1727 C1724 1.387 . S
C1728 C1729 1.387 . S
C1728 H1732 0.950 . S
C1728 C1737 1.390 . S
C1729 C1728 1.387 . S
C1729 C1731 1.387 . S
H1730 C1737 0.950 . S
C1731 C1729 1.387 . S
C1731 C1733 1.390 . S
C1731 H1735 0.950 . S
H1732 C1728 0.950 . S
C1733 C1731 1.390 . S
C1733 C1734 1.387 . S
C1733 H1736 0.950 . S
C1734 C1733 1.387 . S
C1734 C1737 1.387 . S
H1735 C1731 0.950 . S
H1736 C1733 0.950 . S
C1737 C1728 1.390 . S
C1737 H1730 0.950 . S
C1737 C1734 1.387 . S
C1738 C1739 1.387 1_455 S
C1738 H1742 0.950 . S
C1738 C1747 1.370 1_565 S
C1739 C1738 1.387 1_655 S
C1739 C1741 1.408 . S
H1740 C1747 0.951 . S
C1741 C1739 1.408 . S
C1741 C1743 1.370 1_565 S
C1741 H1745 0.951 . S
H1742 C1738 0.950 . S
C1743 C1741 1.370 1_545 S
C1743 C1744 1.387 1_655 S
C1743 H1746 0.950 . S
C1744 C1743 1.387 1_455 S
C1744 C1747 1.408 . S
H1745 C1741 0.951 . S
H1746 C1743 0.950 . S
C1747 C1738 1.370 1_545 S
C1747 H1740 0.951 . S
C1747 C1744 1.408 . S
C1748 C1749 1.387 . S
C1748 H1752 0.950 . S
C1748 C1757 1.390 . S
C1749 C1748 1.387 . S
C1749 C1751 1.387 . S
H1750 C1757 0.950 . S
C1751 C1749 1.387 . S
C1751 C1753 1.390 . S
C1751 H1755 0.950 . S
H1752 C1748 0.950 . S
C1753 C1751 1.390 . S
C1753 C1754 1.387 . S
C1753 H1756 0.950 . S
C1754 C1753 1.387 . S
C1754 C1757 1.387 . S
H1755 C1751 0.950 . S
H1756 C1753 0.950 . S
C1757 C1748 1.390 . S
C1757 H1750 0.950 . S
C1757 C1754 1.387 . S
C1758 C1759 1.387 1_545 S
C1758 H1762 0.950 . S
C1758 C1767 1.390 . S
C1759 C1758 1.387 1_565 S
C1759 C1761 1.387 1_556 S
H1760 C1767 0.950 . S
C1761 C1759 1.387 1_554 S
C1761 C1763 1.390 . S
C1761 H1765 0.950 . S
H1762 C1758 0.950 . S
C1763 C1761 1.390 . S
C1763 C1764 1.387 1_565 S
C1763 H1766 0.950 . S
C1764 C1763 1.387 1_545 S
C1764 C1767 1.387 1_554 S
H1765 C1761 0.950 . S
H1766 C1763 0.950 . S
C1767 C1758 1.390 . S
C1767 H1760 0.950 . S
C1767 C1764 1.387 1_556 S
C1768 C1769 1.387 . S
C1768 H1772 0.950 . S
C1768 C1777 1.390 . S
C1769 C1768 1.387 . S
C1769 C1771 1.387 . S
H1770 C1777 0.950 . S
C1771 C1769 1.387 . S
C1771 C1773 1.390 . S
C1771 H1775 0.950 . S
H1772 C1768 0.950 . S
C1773 C1771 1.390 . S
C1773 C1774 1.387 . S
C1773 H1776 0.950 . S
C1774 C1773 1.387 . S
C1774 C1777 1.387 . S
H1775 C1771 0.950 . S
H1776 C1773 0.950 . S
C1777 C1768 1.390 . S
C1777 H1770 0.950 . S
C1777 C1774 1.387 . S
C1778 C1779 1.387 . S
C1778 H1782 0.950 . S
C1778 C1787 1.390 1_545 S
C1779 C1778 1.387 . S
C1779 C1781 1.387 . S
H1780 C1787 0.950 . S
C1781 C1779 1.387 . S
C1781 C1783 1.390 1_545 S
C1781 H1785 0.950 . S
H1782 C1778 0.950 . S
C1783 C1781 1.390 1_565 S
C1783 C1784 1.387 . S
C1783 H1786 0.950 . S
C1784 C1783 1.387 . S
C1784 C1787 1.387 . S
H1785 C1781 0.950 . S
H1786 C1783 0.950 . S
C1787 C1778 1.390 1_565 S
C1787 H1780 0.950 . S
C1787 C1784 1.387 . S
C1788 C1789 1.387 . S
C1788 H1792 0.950 . S
C1788 C1797 1.390 . S
C1789 C1788 1.387 . S
C1789 C1791 1.387 . S
H1790 C1797 0.950 . S
C1791 C1789 1.387 . S
C1791 C1793 1.390 . S
C1791 H1795 0.950 . S
H1792 C1788 0.950 . S
C1793 C1791 1.390 . S
C1793 C1794 1.387 . S
C1793 H1796 0.950 . S
C1794 C1793 1.387 . S
C1794 C1797 1.387 . S
H1795 C1791 0.950 . S
H1796 C1793 0.950 . S
C1797 C1788 1.390 . S
C1797 H1790 0.950 . S
C1797 C1794 1.387 . S
C1798 C1799 1.387 1_545 S
C1798 H1802 0.950 . S
C1798 C1807 1.390 1_455 S
C1799 C1798 1.387 1_565 S
C1799 C1801 1.387 1_554 S
H1800 C1807 0.950 . S
C1801 C1799 1.387 1_556 S
C1801 C1803 1.390 1_455 S
C1801 H1805 0.950 . S
H1802 C1798 0.950 . S
C1803 C1801 1.390 1_655 S
C1803 C1804 1.387 1_565 S
C1803 H1806 0.950 . S
C1804 C1803 1.387 1_545 S
C1804 C1807 1.387 1_556 S
H1805 C1801 0.950 . S
H1806 C1803 0.950 . S
C1807 C1798 1.390 1_655 S
C1807 H1800 0.950 . S
C1807 C1804 1.387 1_554 S
C1808 C1809 1.387 . S
C1808 H1812 0.950 . S
C1808 C1817 1.390 . S
C1809 C1808 1.387 . S
C1809 C1811 1.387 . S
H1810 C1817 0.950 . S
C1811 C1809 1.387 . S
C1811 C1813 1.390 . S
C1811 H1815 0.950 . S
H1812 C1808 0.950 . S
C1813 C1811 1.390 . S
C1813 C1814 1.387 . S
C1813 H1816 0.950 . S
C1814 C1813 1.387 . S
C1814 C1817 1.387 . S
H1815 C1811 0.950 . S
H1816 C1813 0.950 . S
C1817 C1808 1.390 . S
C1817 H1810 0.950 . S
C1817 C1814 1.387 . S
C1818 C1819 1.387 . S
C1818 H1822 0.950 . S
C1818 C1827 1.390 . S
C1819 C1818 1.387 . S
C1819 C1821 1.387 . S
H1820 C1827 0.950 . S
C1821 C1819 1.387 . S
C1821 C1823 1.390 . S
C1821 H1825 0.950 . S
H1822 C1818 0.950 . S
C1823 C1821 1.390 . S
C1823 C1824 1.387 . S
C1823 H1826 0.950 . S
C1824 C1823 1.387 . S
C1824 C1827 1.387 . S
H1825 C1821 0.950 . S
H1826 C1823 0.950 . S
C1827 C1818 1.390 . S
C1827 H1820 0.950 . S
C1827 C1824 1.387 . S
C1828 C1829 1.387 . S
C1828 H1832 0.950 . S
C1828 C1837 1.390 . S
C1829 C1828 1.387 . S
C1829 C1831 1.387 . S
H1830 C1837 0.950 . S
C1831 C1829 1.387 . S
C1831 C1833 1.390 . S
C1831 H1835 0.950 . S
H1832 C1828 0.950 . S
C1833 C1831 1.390 . S
C1833 C1834 1.387 . S
C1833 H1836 0.950 . S
C1834 C1833 1.387 . S
C1834 C1837 1.387 . S
H1835 C1831 0.950 . S
H1836 C1833 0.950 . S
C1837 C1828 1.390 . S
C1837 H1830 0.950 . S
C1837 C1834 1.387 . S
C1838 C1839 1.387 . S
C1838 H1842 0.950 . S
C1838 C1847 1.390 . S
C1839 C1838 1.387 . S
C1839 C1841 1.387 . S
H1840 C1847 0.950 . S
C1841 C1839 1.387 . S
C1841 C1843 1.390 . S
C1841 H1845 0.950 . S
H1842 C1838 0.950 . S
C1843 C1841 1.390 . S
C1843 C1844 1.387 . S
C1843 H1846 0.950 . S
C1844 C1843 1.387 . S
C1844 C1847 1.387 . S
H1845 C1841 0.950 . S
H1846 C1843 0.950 . S
C1847 C1838 1.390 . S
C1847 H1840 0.950 . S
C1847 C1844 1.387 . S
C1848 C1849 1.387 . S
C1848 H1852 0.950 . S
C1848 C1857 1.390 . S
C1849 C1848 1.387 . S
C1849 C1851 1.387 1_554 S
H1850 C1857 0.950 . S
C1851 C1849 1.387 1_556 S
C1851 C1853 1.390 . S
C1851 H1855 0.950 . S
H1852 C1848 0.950 . S
C1853 C1851 1.390 . S
C1853 C1854 1.387 . S
C1853 H1856 0.950 . S
C1854 C1853 1.387 . S
C1854 C1857 1.387 1_556 S
H1855 C1851 0.950 . S
H1856 C1853 0.950 . S
C1857 C1848 1.390 . S
C1857 H1850 0.950 . S
C1857 C1854 1.387 1_554 S
C1858 C1859 1.387 . S
C1858 H1862 0.950 . S
C1858 C1867 1.390 1_455 S
C1859 C1858 1.387 . S
C1859 C1861 1.387 . S
H1860 C1867 0.950 . S
C1861 C1859 1.387 . S
C1861 C1863 1.390 1_455 S
C1861 H1865 0.950 . S
H1862 C1858 0.950 . S
C1863 C1861 1.390 1_655 S
C1863 C1864 1.387 . S
C1863 H1866 0.950 . S
C1864 C1863 1.387 . S
C1864 C1867 1.387 . S
H1865 C1861 0.950 . S
H1866 C1863 0.950 . S
C1867 C1858 1.390 1_655 S
C1867 H1860 0.950 . S
C1867 C1864 1.387 . S
C1868 C1869 1.387 1_554 S
C1868 H1872 0.950 . S
C1868 C1877 1.390 1_455 S
C1869 C1868 1.387 1_556 S
C1869 C1871 1.387 . S
H1870 C1877 0.950 . S
C1871 C1869 1.387 . S
C1871 C1873 1.390 1_455 S
C1871 H1875 0.950 . S
H1872 C1868 0.950 . S
C1873 C1871 1.390 1_655 S
C1873 C1874 1.387 1_556 S
C1873 H1876 0.950 . S
C1874 C1873 1.387 1_554 S
C1874 C1877 1.387 . S
H1875 C1871 0.950 . S
H1876 C1873 0.950 . S
C1877 C1868 1.390 1_655 S
C1877 H1870 0.950 . S
C1877 C1874 1.387 . S
C1878 C1879 1.387 . S
C1878 H1882 0.950 . S
C1878 C1887 1.390 . S
C1879 C1878 1.387 . S
C1879 C1881 1.387 . S
H1880 C1887 0.950 . S
C1881 C1879 1.387 . S
C1881 C1883 1.390 . S
C1881 H1885 0.950 . S
H1882 C1878 0.950 . S
C1883 C1881 1.390 . S
C1883 C1884 1.387 . S
C1883 H1886 0.950 . S
C1884 C1883 1.387 . S
C1884 C1887 1.387 . S
H1885 C1881 0.950 . S
H1886 C1883 0.950 . S
C1887 C1878 1.390 . S
C1887 H1880 0.950 . S
C1887 C1884 1.387 . S
C1089 C617 0.926 . S
C1094 C5 0.926 . S
C1099 C39 0.926 . S
C1104 C651 0.926 . S
C1109 C73 0.923 . S
C1114 C549 0.923 . S
C1119 C583 0.926 . S
C1124 C107 0.926 . S
C1129 C141 0.923 . S
C1134 C753 0.923 . S
C1139 C787 0.923 . S
C1144 C175 0.923 . S
C1149 C209 0.926 . S
C1154 C685 0.926 . S
C1159 C243 0.923 . S
C1164 C719 0.923 . S
C1169 C277 0.923 . S
C1174 C889 0.923 . S
C1179 C923 0.926 . S
C1184 C311 0.926 . S
C1189 C345 0.926 . S
C1194 C821 0.926 . S
C1199 C379 0.926 . S
C1204 C855 0.926 . S
C1209 C413 0.926 . S
C1214 C1025 0.926 . S
C1219 C1059 0.923 . S
C1224 C447 0.923 . S
C1229 C957 0.926 . S
C1234 C481 0.926 . S
C1239 C991 0.923 . S
C1244 C515 0.923 . S
C1249 C407 1.487 . S
C1254 C2 1.431 . S
C1259 C849 1.487 . S
C1264 C36 1.431 . S
C1269 C70 1.431 . S
C1274 C339 1.488 1_455 S
C1279 C917 1.487 . S
C1284 C104 1.433 . S
C1289 C475 1.487 . S
C1294 C138 1.432 . S
C1299 C172 1.430 . S
C1304 C1053 1.487 . S
C1309 C543 1.488 1_455 S
C1314 C206 1.431 . S
C1319 C985 1.488 . S
C1324 C240 1.430 . S
C1329 C135 1.487 . S
C1334 C274 1.430 . S
C1339 C308 1.432 . S
C1344 C577 1.487 . S
C1349 C342 1.432 . S
C1354 C67 1.487 1_655 S
C1359 C645 1.487 . S
C1364 C376 1.432 . S
C1369 C410 1.431 . S
C1374 C203 1.488 . S
C1379 C781 1.487 . S
C1384 C444 1.432 . S
C1389 C478 1.431 . S
C1394 C271 1.487 1_655 S
C1399 C512 1.432 . S
C1404 C713 1.487 . S
C1409 C951 1.487 1_655 S
C1414 C546 1.431 . S
C1419 C580 1.431 . S
C1424 C305 1.487 . S
C1429 C614 1.431 . S
C1434 C883 1.487 . S
C1439 C373 1.487 . S
C1444 C648 1.430 . S
C1449 C682 1.431 . S
C1454 C1019 1.487 1_655 S
C1459 C716 1.431 . S
C1464 C509 1.487 . S
C1469 C1087 1.488 . S
C1474 C750 1.431 . S
C1479 C441 1.488 . S
C1484 C784 1.430 . S
C1489 C679 1.487 1_455 S
C1494 C818 1.431 . S
C1499 C852 1.432 . S
C1504 C33 1.487 . S
C1509 C886 1.431 . S
C1514 C611 1.487 . S
C1519 C101 1.488 . S
C1524 C920 1.431 . S
C1529 C954 1.430 . S
C1534 C747 1.487 1_455 S
C1539 C988 1.431 . S
C1544 C237 1.487 . S
C1549 C815 1.488 . S
C1554 C1022 1.431 . S
C1559 C169 1.487 . S
C1564 C1056 1.430 . S
C1569 C247 1.590 . S
C1574 C9 1.588 . S
C1579 C145 1.589 . S
C1584 C43 1.591 . S
C1589 C77 1.588 . S
C1594 C179 1.588 . S
C1599 C213 1.591 . S
C1604 C111 1.589 . S
C1609 C519 1.588 . S
C1614 C281 1.589 . S
C1619 C315 1.591 . S
C1624 C417 1.590 . S
C1629 C451 1.588 . S
C1634 C349 1.590 . S
C1639 C485 1.589 . S
C1644 C383 1.591 . S
C1649 C791 1.588 . S
C1654 C553 1.588 . S
C1659 C689 1.589 . S
C1664 C587 1.588 . S
C1669 C723 1.591 . S
C1674 C621 1.590 . S
C1679 C757 1.590 . S
C1684 C655 1.591 . S
C1689 C825 1.591 . S
C1694 C1063 1.590 . S
C1699 C859 1.591 . S
C1704 C961 1.589 . S
C1709 C893 1.590 . S
C1714 C995 1.591 . S
C1719 C1029 1.591 . S
C1724 C927 1.590 . S
C1729 C20 1.961 . S
C1734 C836 1.961 . S
C1739 C326 1.960 . S
C1744 C54 1.960 . S
C1749 C904 1.961 . S
C1754 C88 1.961 . S
C1759 C122 1.959 . S
C1764 C394 1.959 . S
C1769 C156 1.961 . S
C1774 C972 1.961 . S
C1779 C190 1.961 . S
C1784 C462 1.961 . S
C1789 C1040 1.961 . S
C1794 C224 1.961 . S
C1799 C258 1.959 . S
C1804 C530 1.959 . S
C1809 C564 1.960 . S
C1814 C292 1.960 . S
C1819 C632 1.961 . S
C1824 C360 1.961 . S
C1829 C428 1.961 . S
C1834 C700 1.961 . S
C1839 C496 1.961 . S
C1844 C768 1.961 . S
C1849 C870 1.961 . S
C1854 C598 1.961 . S
C1859 C938 1.961 . S
C1864 C666 1.961 . S
C1869 C1006 1.959 . S
C1874 C734 1.959 . S
C1879 C1074 1.961 . S
C1884 C802 1.961 . S
