# Generated by pormake.
# Topology uke, (4)-cn, num edge types: 1
# Building blocks:
#     Node 0, Type 0, BuildingBlock: NAHDIM_clean_sbu_0, # of connection points: 4
#     Node 1, Type 0, BuildingBlock: NAHDIM_clean_sbu_0, # of connection points: 4
#     Node 2, Type 0, BuildingBlock: NAHDIM_clean_sbu_0, # of connection points: 4
#     Node 3, Type 0, BuildingBlock: NAHDIM_clean_sbu_0, # of connection points: 4
#     Node 4, Type 0, BuildingBlock: NAHDIM_clean_sbu_0, # of connection points: 4
#     Node 5, Type 0, BuildingBlock: NAHDIM_clean_sbu_0, # of connection points: 4
#     Node 6, Type 0, BuildingBlock: NAHDIM_clean_sbu_0, # of connection points: 4
#     Node 7, Type 0, BuildingBlock: NAHDIM_clean_sbu_0, # of connection points: 4
#     Node 8, Type 0, BuildingBlock: NAHDIM_clean_sbu_0, # of connection points: 4
#     Node 9, Type 0, BuildingBlock: NAHDIM_clean_sbu_0, # of connection points: 4
#     Node 10, Type 0, BuildingBlock: NAHDIM_clean_sbu_0, # of connection points: 4
#     Node 11, Type 0, BuildingBlock: NAHDIM_clean_sbu_0, # of connection points: 4
#     Node 12, Type 0, BuildingBlock: NAHDIM_clean_sbu_0, # of connection points: 4
#     Node 13, Type 0, BuildingBlock: NAHDIM_clean_sbu_0, # of connection points: 4
#     Node 14, Type 0, BuildingBlock: NAHDIM_clean_sbu_0, # of connection points: 4
#     Node 15, Type 0, BuildingBlock: NAHDIM_clean_sbu_0, # of connection points: 4
#     Node 16, Type 0, BuildingBlock: NAHDIM_clean_sbu_0, # of connection points: 4
#     Node 17, Type 0, BuildingBlock: NAHDIM_clean_sbu_0, # of connection points: 4
#     Node 18, Type 0, BuildingBlock: NAHDIM_clean_sbu_0, # of connection points: 4
#     Node 19, Type 0, BuildingBlock: NAHDIM_clean_sbu_0, # of connection points: 4
#     Node 20, Type 0, BuildingBlock: NAHDIM_clean_sbu_0, # of connection points: 4
#     Node 21, Type 0, BuildingBlock: NAHDIM_clean_sbu_0, # of connection points: 4
#     Node 22, Type 0, BuildingBlock: NAHDIM_clean_sbu_0, # of connection points: 4
#     Node 23, Type 0, BuildingBlock: NAHDIM_clean_sbu_0, # of connection points: 4
#     Node 24, Type 0, BuildingBlock: NAHDIM_clean_sbu_0, # of connection points: 4
#     Node 25, Type 0, BuildingBlock: NAHDIM_clean_sbu_0, # of connection points: 4
#     Node 26, Type 0, BuildingBlock: NAHDIM_clean_sbu_0, # of connection points: 4
#     Node 27, Type 0, BuildingBlock: NAHDIM_clean_sbu_0, # of connection points: 4
#     Node 28, Type 0, BuildingBlock: NAHDIM_clean_sbu_0, # of connection points: 4
#     Node 29, Type 0, BuildingBlock: NAHDIM_clean_sbu_0, # of connection points: 4
#     Node 30, Type 0, BuildingBlock: NAHDIM_clean_sbu_0, # of connection points: 4
#     Node 31, Type 0, BuildingBlock: NAHDIM_clean_sbu_0, # of connection points: 4
#     Edge 32, Type (0, 0), BuildingBlock: XIVTED_clean_linker_0, # of connection points: 2
#     Edge 33, Type (0, 0), BuildingBlock: XIVTED_clean_linker_0, # of connection points: 2
#     Edge 34, Type (0, 0), BuildingBlock: XIVTED_clean_linker_0, # of connection points: 2
#     Edge 35, Type (0, 0), BuildingBlock: XIVTED_clean_linker_0, # of connection points: 2
#     Edge 36, Type (0, 0), BuildingBlock: XIVTED_clean_linker_0, # of connection points: 2
#     Edge 37, Type (0, 0), BuildingBlock: XIVTED_clean_linker_0, # of connection points: 2
#     Edge 38, Type (0, 0), BuildingBlock: XIVTED_clean_linker_0, # of connection points: 2
#     Edge 39, Type (0, 0), BuildingBlock: XIVTED_clean_linker_0, # of connection points: 2
#     Edge 40, Type (0, 0), BuildingBlock: XIVTED_clean_linker_0, # of connection points: 2
#     Edge 41, Type (0, 0), BuildingBlock: XIVTED_clean_linker_0, # of connection points: 2
#     Edge 42, Type (0, 0), BuildingBlock: XIVTED_clean_linker_0, # of connection points: 2
#     Edge 43, Type (0, 0), BuildingBlock: XIVTED_clean_linker_0, # of connection points: 2
#     Edge 44, Type (0, 0), BuildingBlock: XIVTED_clean_linker_0, # of connection points: 2
#     Edge 45, Type (0, 0), BuildingBlock: XIVTED_clean_linker_0, # of connection points: 2
#     Edge 46, Type (0, 0), BuildingBlock: XIVTED_clean_linker_0, # of connection points: 2
#     Edge 47, Type (0, 0), BuildingBlock: XIVTED_clean_linker_0, # of connection points: 2
#     Edge 48, Type (0, 0), BuildingBlock: XIVTED_clean_linker_0, # of connection points: 2
#     Edge 49, Type (0, 0), BuildingBlock: XIVTED_clean_linker_0, # of connection points: 2
#     Edge 50, Type (0, 0), BuildingBlock: XIVTED_clean_linker_0, # of connection points: 2
#     Edge 51, Type (0, 0), BuildingBlock: XIVTED_clean_linker_0, # of connection points: 2
#     Edge 52, Type (0, 0), BuildingBlock: XIVTED_clean_linker_0, # of connection points: 2
#     Edge 53, Type (0, 0), BuildingBlock: XIVTED_clean_linker_0, # of connection points: 2
#     Edge 54, Type (0, 0), BuildingBlock: XIVTED_clean_linker_0, # of connection points: 2
#     Edge 55, Type (0, 0), BuildingBlock: XIVTED_clean_linker_0, # of connection points: 2
#     Edge 56, Type (0, 0), BuildingBlock: XIVTED_clean_linker_0, # of connection points: 2
#     Edge 57, Type (0, 0), BuildingBlock: XIVTED_clean_linker_0, # of connection points: 2
#     Edge 58, Type (0, 0), BuildingBlock: XIVTED_clean_linker_0, # of connection points: 2
#     Edge 59, Type (0, 0), BuildingBlock: XIVTED_clean_linker_0, # of connection points: 2
#     Edge 60, Type (0, 0), BuildingBlock: XIVTED_clean_linker_0, # of connection points: 2
#     Edge 61, Type (0, 0), BuildingBlock: XIVTED_clean_linker_0, # of connection points: 2
#     Edge 62, Type (0, 0), BuildingBlock: XIVTED_clean_linker_0, # of connection points: 2
#     Edge 63, Type (0, 0), BuildingBlock: XIVTED_clean_linker_0, # of connection points: 2
#     Edge 64, Type (0, 0), BuildingBlock: XIVTED_clean_linker_0, # of connection points: 2
#     Edge 65, Type (0, 0), BuildingBlock: XIVTED_clean_linker_0, # of connection points: 2
#     Edge 66, Type (0, 0), BuildingBlock: XIVTED_clean_linker_0, # of connection points: 2
#     Edge 67, Type (0, 0), BuildingBlock: XIVTED_clean_linker_0, # of connection points: 2
#     Edge 68, Type (0, 0), BuildingBlock: XIVTED_clean_linker_0, # of connection points: 2
#     Edge 69, Type (0, 0), BuildingBlock: XIVTED_clean_linker_0, # of connection points: 2
#     Edge 70, Type (0, 0), BuildingBlock: XIVTED_clean_linker_0, # of connection points: 2
#     Edge 71, Type (0, 0), BuildingBlock: XIVTED_clean_linker_0, # of connection points: 2
#     Edge 72, Type (0, 0), BuildingBlock: XIVTED_clean_linker_0, # of connection points: 2
#     Edge 73, Type (0, 0), BuildingBlock: XIVTED_clean_linker_0, # of connection points: 2
#     Edge 74, Type (0, 0), BuildingBlock: XIVTED_clean_linker_0, # of connection points: 2
#     Edge 75, Type (0, 0), BuildingBlock: XIVTED_clean_linker_0, # of connection points: 2
#     Edge 76, Type (0, 0), BuildingBlock: XIVTED_clean_linker_0, # of connection points: 2
#     Edge 77, Type (0, 0), BuildingBlock: XIVTED_clean_linker_0, # of connection points: 2
#     Edge 78, Type (0, 0), BuildingBlock: XIVTED_clean_linker_0, # of connection points: 2
#     Edge 79, Type (0, 0), BuildingBlock: XIVTED_clean_linker_0, # of connection points: 2
#     Edge 80, Type (0, 0), BuildingBlock: XIVTED_clean_linker_0, # of connection points: 2
#     Edge 81, Type (0, 0), BuildingBlock: XIVTED_clean_linker_0, # of connection points: 2
#     Edge 82, Type (0, 0), BuildingBlock: XIVTED_clean_linker_0, # of connection points: 2
#     Edge 83, Type (0, 0), BuildingBlock: XIVTED_clean_linker_0, # of connection points: 2
#     Edge 84, Type (0, 0), BuildingBlock: XIVTED_clean_linker_0, # of connection points: 2
#     Edge 85, Type (0, 0), BuildingBlock: XIVTED_clean_linker_0, # of connection points: 2
#     Edge 86, Type (0, 0), BuildingBlock: XIVTED_clean_linker_0, # of connection points: 2
#     Edge 87, Type (0, 0), BuildingBlock: XIVTED_clean_linker_0, # of connection points: 2
#     Edge 88, Type (0, 0), BuildingBlock: XIVTED_clean_linker_0, # of connection points: 2
#     Edge 89, Type (0, 0), BuildingBlock: XIVTED_clean_linker_0, # of connection points: 2
#     Edge 90, Type (0, 0), BuildingBlock: XIVTED_clean_linker_0, # of connection points: 2
#     Edge 91, Type (0, 0), BuildingBlock: XIVTED_clean_linker_0, # of connection points: 2
#     Edge 92, Type (0, 0), BuildingBlock: XIVTED_clean_linker_0, # of connection points: 2
#     Edge 93, Type (0, 0), BuildingBlock: XIVTED_clean_linker_0, # of connection points: 2
#     Edge 94, Type (0, 0), BuildingBlock: XIVTED_clean_linker_0, # of connection points: 2
#     Edge 95, Type (0, 0), BuildingBlock: XIVTED_clean_linker_0, # of connection points: 2
# Relax obj value: 0.229
# Max RMSD: 0.244
# Mean RMSD: 0.244
data_MOF--net-uke--node1-NAHDIM_clean_sbu_0--edge1-XIVTED_clean_linker_0
_symmetry_space_group_name_H-M    P1
_symmetry_Int_Tables_number       1
_symmetry_cell_setting            triclinic
loop_
_symmetry_equiv_pos_as_xyz
'x, y, z'
_cell_length_a     26.492326
_cell_length_b     99.654175
_cell_length_c     49.408937
_cell_angle_alpha  90.034491
_cell_angle_beta   90.053941
_cell_angle_gamma 90.020733
loop_
_atom_site_label
_atom_site_type_symbol
_atom_site_fract_x
_atom_site_fract_y
_atom_site_fract_z
_atom_type_partial_charge
C0 C 0.99302 0.05509 0.31565 0.0
O1 O 0.03783 0.05985 0.32183 0.0
O2 O 0.09459 0.05537 0.27132 0.0
Zn3 Zn 0.02735 0.06406 0.26552 0.0
O4 O 0.02882 0.0838 0.27347 0.0
C5 C 0.01417 0.04854 0.21844 0.0
O6 O 0.02417 0.0391 0.23623 0.0
O7 O 0.9784 0.05552 0.29116 0.0
C8 C 0.98686 0.08996 0.27254 0.0
O9 O 0.94602 0.0833 0.26562 0.0
C10 C 0.12938 0.0561 0.2537 0.0
O11 O 0.12353 0.06409 0.23279 0.0
O12 O 0.00959 0.06057 0.22662 0.0
C13 C 0.14411 0.2121 0.32102 0.0
O14 O 0.10348 0.21466 0.33536 0.0
O15 O 0.04131 0.22863 0.28133 0.0
Zn16 Zn 0.07031 0.20994 0.2794 0.0
O17 O 0.03046 0.19495 0.2966 0.0
C18 C 0.08521 0.21442 0.22222 0.0
O19 O 0.09806 0.22651 0.23034 0.0
O20 O 0.13959 0.20989 0.2958 0.0
C21 C -0.00298 0.18884 0.28282 0.0
O22 O 0.9831 0.19384 0.2594 0.0
C23 C 0.00171 0.23127 0.26782 0.0
O24 O 0.97366 0.22127 0.2593 0.0
O25 O 0.07475 0.20552 0.23974 0.0
C26 C 0.00168 0.18957 0.92906 0.0
O27 O 0.04638 0.18514 0.92178 0.0
O28 O 0.10544 0.18871 0.97257 0.0
Zn29 Zn 0.03861 0.17976 0.97835 0.0
O30 O 0.03977 0.16008 0.96964 0.0
C31 C 0.02527 0.19489 0.02583 0.0
O32 O 0.03418 0.20446 0.00818 0.0
O33 O 0.98851 0.18856 0.9537 0.0
C34 C -0.00262 0.15411 0.97023 0.0
O35 O 0.95694 0.16093 0.97711 0.0
C36 C 0.1399 0.18813 0.99043 0.0
O37 O 0.13436 0.17996 0.01108 0.0
O38 O 0.0216 0.18287 0.01746 0.0
C39 C 0.14491 0.03169 0.92487 0.0
O40 O 0.10455 0.02982 0.90985 0.0
O41 O 0.03944 0.01507 0.96347 0.0
Zn42 Zn 0.06958 0.03364 0.96555 0.0
O43 O 0.03182 0.04878 0.94753 0.0
C44 C 0.08205 0.02921 0.02287 0.0
O45 O 0.09578 0.01717 0.01488 0.0
O46 O 0.13965 0.03336 0.95021 0.0
C47 C -0.00176 0.05516 0.96066 0.0
O48 O 0.9825 0.05033 0.98388 0.0
C49 C -0.00018 0.01269 0.97713 0.0
O50 O 0.97229 0.02288 0.98518 0.0
O51 O 0.07216 0.03811 0.00524 0.0
C52 C 0.03018 0.96143 0.74839 0.0
O53 O 0.98097 0.96156 0.74506 0.0
O54 O 0.94026 0.96986 0.79732 0.0
Zn55 Zn 0.99383 0.95566 0.79961 0.0
O56 O 0.96541 0.93761 0.78966 0.0
C57 C 0.01401 0.96491 0.85384 0.0
O58 O 0.00285 0.97662 0.84318 0.0
O59 O 0.0478 0.95962 0.77208 0.0
C60 C -0.0025 0.92834 0.78557 0.0
O61 O 0.04573 0.93107 0.78853 0.0
C62 C 0.90218 0.96964 0.81292 0.0
O63 O 0.89651 0.95956 0.82977 0.0
O64 O 0.01734 0.95471 0.83845 0.0
C65 C 0.7498 0.79907 0.7062 0.0
O66 O 0.77194 0.78864 0.71731 0.0
O67 O 0.86064 0.79875 0.74365 0.0
Zn68 Zn 0.8079 0.81323 0.74636 0.0
O69 O 0.83714 0.83185 0.74473 0.0
C70 C 0.77087 0.79952 0.79338 0.0
O71 O 0.7745 0.78905 0.77734 0.0
O72 O 0.75784 0.81069 0.71596 0.0
C73 C 0.88379 0.83473 0.7433 0.0
O74 O 0.91712 0.82502 0.74137 0.0
C75 C 0.88864 0.79589 0.76374 0.0
O76 O 0.88821 0.80375 0.7851 0.0
O77 O 0.77775 0.81116 0.78352 0.0
C78 C 0.91963 0.78712 0.08615 0.0
O79 O 0.87904 0.78271 0.09856 0.0
O80 O 0.81207 0.77376 0.04788 0.0
Zn81 Zn 0.84647 0.79174 0.04544 0.0
O82 O 0.81088 0.80685 0.06458 0.0
C83 C 0.85733 0.78672 0.98867 0.0
O84 O 0.87024 0.77479 0.99764 0.0
O85 O 0.91596 0.79105 0.06175 0.0
C86 C 0.78368 0.81527 0.05191 0.0
O87 O 0.77158 0.81284 0.02659 0.0
C88 C 0.77252 0.77235 0.03357 0.0
O89 O 0.75174 0.78309 0.02293 0.0
O90 O 0.8492 0.79608 0.00561 0.0
C91 C 0.87199 0.9449 0.13946 0.0
O92 O 0.90423 0.9381 0.1543 0.0
O93 O 0.99078 0.93121 0.11781 0.0
Zn94 Zn 0.92475 0.93129 0.09704 0.0
O95 O 0.89464 0.91283 0.09835 0.0
C96 C 0.9145 0.94433 0.04403 0.0
O97 O 0.87618 0.95064 0.05508 0.0
O98 O 0.8744 0.94395 0.11384 0.0
C99 C 0.85267 0.9106 0.08669 0.0
O100 O 0.82989 0.92048 0.07401 0.0
C101 C 0.02719 0.93907 0.11232 0.0
O102 O 0.07077 0.93748 0.12457 0.0
O103 O 0.93898 0.9358 0.05793 0.0
C104 C 0.00938 0.5302 0.82261 0.0
O105 O 0.05751 0.53291 0.82606 0.0
O106 O 0.09835 0.52579 0.76912 0.0
Zn107 Zn 0.03796 0.53788 0.77049 0.0
O108 O 0.05788 0.55698 0.77773 0.0
C109 C 0.01446 0.52672 0.71894 0.0
O110 O 0.02735 0.51555 0.73125 0.0
O111 O 0.99027 0.53149 0.79915 0.0
C112 C 0.08425 0.56287 0.75986 0.0
O113 O 0.09906 0.55606 0.7385 0.0
C114 C 0.14404 0.52851 0.7746 0.0
O115 O 0.1559 0.54036 0.78437 0.0
O116 O 0.00967 0.53737 0.73285 0.0
C117 C 0.20295 0.6919 0.80873 0.0
O118 O 0.16199 0.69017 0.8233 0.0
O119 O 0.08115 0.70277 0.78631 0.0
Zn120 Zn 0.12853 0.68961 0.76902 0.0
O121 O 0.11028 0.67034 0.77577 0.0
C122 C 0.11791 0.70466 0.71968 0.0
O123 O 0.12367 0.71491 0.73614 0.0
O124 O 0.19882 0.69249 0.78313 0.0
C125 C 0.13974 0.66228 0.76359 0.0
O126 O 0.17669 0.66726 0.74897 0.0
C127 C 0.03779 0.70397 0.77558 0.0
O128 O 0.0235 0.69508 0.75747 0.0
O129 O 0.12264 0.69283 0.72892 0.0
C130 C 0.969 0.72166 0.43912 0.0
O131 O 0.99413 0.73147 0.45074 0.0
O132 O 0.07699 0.71732 0.48098 0.0
Zn133 Zn 0.01791 0.70479 0.47933 0.0
O134 O 0.04106 0.6859 0.47314 0.0
C135 C 0.99256 0.71586 0.53066 0.0
O136 O 0.00589 0.72705 0.51853 0.0
O137 O 0.97151 0.7099 0.44898 0.0
C138 C 0.0679 0.68024 0.49112 0.0
O139 O 0.0814 0.68712 0.51265 0.0
C140 C 0.12245 0.71491 0.47455 0.0
O141 O 0.13427 0.70332 0.4636 0.0
O142 O 0.98767 0.70527 0.51657 0.0
C143 C 0.21049 0.5534 0.43839 0.0
O144 O 0.16834 0.5551 0.42476 0.0
O145 O 0.09167 0.54127 0.46305 0.0
Zn146 Zn 0.13905 0.55464 0.47961 0.0
O147 O 0.11819 0.57378 0.47383 0.0
C148 C 0.13262 0.53943 0.52904 0.0
O149 O 0.13687 0.52915 0.51252 0.0
O150 O 0.20834 0.5524 0.46399 0.0
C151 C 0.14672 0.58199 0.48625 0.0
O152 O 0.18475 0.57725 0.50041 0.0
C153 C 0.049 0.5398 0.47437 0.0
O154 O 0.03507 0.54851 0.49289 0.0
O155 O 0.13669 0.55125 0.51966 0.0
C156 C 0.91271 0.45616 0.15195 0.0
O157 O 0.87043 0.45276 0.13984 0.0
O158 O 0.80669 0.47518 0.19455 0.0
Zn159 Zn 0.84483 0.4577 0.19619 0.0
O160 O 0.80911 0.44159 0.18043 0.0
C161 C 0.86195 0.46314 0.25304 0.0
O162 O 0.86963 0.47545 0.24448 0.0
O163 O 0.91167 0.45928 0.17692 0.0
C164 C 0.7845 0.43343 0.19514 0.0
O165 O 0.77445 0.43673 0.22031 0.0
C166 C 0.76995 0.47648 0.21087 0.0
O167 O 0.75298 0.46577 0.2234 0.0
O168 O 0.85487 0.45384 0.23583 0.0
C169 C 0.86793 0.30309 0.11402 0.0
O170 O 0.89903 0.31007 0.09884 0.0
O171 O 0.99018 0.31538 0.13347 0.0
Zn172 Zn 0.92601 0.31561 0.15578 0.0
O173 O 0.8982 0.33435 0.15549 0.0
C174 C 0.91892 0.30185 0.20812 0.0
O175 O 0.87889 0.29608 0.19758 0.0
O176 O 0.87293 0.30353 0.13959 0.0
C177 C 0.8583 0.33718 0.16856 0.0
O178 O 0.83582 0.32773 0.18265 0.0
C179 C 0.02587 0.30709 0.13755 0.0
O180 O 0.06854 0.30846 0.12434 0.0
O181 O 0.94311 0.31047 0.19429 0.0
C182 C 0.03542 0.28149 0.50045 0.0
O183 O 0.98603 0.28152 0.50293 0.0
O184 O 0.94917 0.27047 0.45041 0.0
Zn185 Zn 0.00263 0.28471 0.44741 0.0
O186 O 0.9718 0.30296 0.45381 0.0
C187 C 0.02354 0.27447 0.39356 0.0
O188 O 0.00763 0.26308 0.40384 0.0
O189 O 0.0544 0.28221 0.47684 0.0
C190 C 0.96058 0.31067 0.43423 0.0
O191 O 0.96682 0.30641 0.4093 0.0
C192 C 0.91064 0.27085 0.4351 0.0
O193 O 0.90538 0.28091 0.41814 0.0
O194 O 0.03015 0.28446 0.40921 0.0
C195 C 0.7881 0.43208 0.54686 0.0
O196 O 0.83696 0.43167 0.55139 0.0
O197 O 0.87606 0.44406 0.49846 0.0
Zn198 Zn 0.82301 0.42991 0.49262 0.0
O199 O 0.85236 0.41117 0.49049 0.0
C200 C 0.78844 0.44644 0.44869 0.0
O201 O 0.79522 0.4561 0.46643 0.0
O202 O 0.77211 0.43126 0.52264 0.0
C203 C 0.86421 0.4066 0.4673 0.0
O204 O 0.85918 0.41437 0.44601 0.0
C205 C 0.90671 0.44693 0.47955 0.0
O206 O 0.90826 0.43924 0.45797 0.0
O207 O 0.79232 0.43432 0.45642 0.0
C208 C 0.48339 0.04774 0.84058 0.0
O209 O 0.52189 0.05137 0.85569 0.0
O210 O 0.61135 0.04341 0.81818 0.0
Zn211 Zn 0.5555 0.05383 0.80065 0.0
O212 O 0.56354 0.07363 0.80648 0.0
C213 C 0.58049 0.04018 0.75063 0.0
O214 O 0.58909 0.02994 0.76672 0.0
O215 O 0.48836 0.04778 0.815 0.0
C216 C 0.53138 0.08085 0.79415 0.0
O217 O 0.49482 0.07491 0.78071 0.0
C218 C 0.65598 0.04551 0.80983 0.0
O219 O 0.66391 0.05534 0.79262 0.0
O220 O 0.5625 0.05095 0.76048 0.0
C221 C 0.73649 0.20632 0.79099 0.0
O222 O 0.68986 0.20847 0.79895 0.0
O223 O 0.6341 0.21436 0.74851 0.0
Zn224 Zn 0.68183 0.19873 0.74512 0.0
O225 O 0.65014 0.18184 0.75968 0.0
C226 C 0.70493 0.20661 0.69089 0.0
O227 O 0.71317 0.21819 0.70281 0.0
O228 O 0.74416 0.2023 0.76693 0.0
C229 C 0.61877 0.17503 0.74589 0.0
O230 O 0.60577 0.17921 0.72168 0.0
C231 C 0.60004 0.21579 0.73061 0.0
O232 O 0.59522 0.20665 0.71162 0.0
O233 O 0.69579 0.19638 0.70543 0.0
C234 C 0.4787 0.19639 0.41028 0.0
O235 O 0.51735 0.19218 0.39595 0.0
O236 O 0.60651 0.20075 0.43425 0.0
Zn237 Zn 0.54902 0.19088 0.45151 0.0
O238 O 0.55638 0.171 0.44673 0.0
C239 C 0.57275 0.20507 0.50106 0.0
O240 O 0.58266 0.21505 0.48453 0.0
O241 O 0.4829 0.19696 0.43587 0.0
C242 C 0.52441 0.16387 0.45938 0.0
O243 O 0.48799 0.16988 0.47273 0.0
C244 C 0.65055 0.19835 0.44321 0.0
O245 O 0.65658 0.18869 0.461 0.0
O246 O 0.55441 0.19426 0.49156 0.0
C247 C 0.7393 0.03961 0.46032 0.0
O248 O 0.69212 0.03741 0.45338 0.0
O249 O 0.64079 0.03114 0.50398 0.0
Zn250 Zn 0.6874 0.04702 0.50686 0.0
O251 O 0.65401 0.06365 0.49234 0.0
C252 C 0.71301 0.03946 0.56099 0.0
O253 O 0.72192 0.0279 0.54913 0.0
O254 O 0.74879 0.04365 0.48419 0.0
C255 C 0.62137 0.07018 0.50578 0.0
O256 O 0.6079 0.06584 0.52981 0.0
C257 C 0.60777 0.02926 0.52222 0.0
O258 O 0.60286 0.03813 0.54169 0.0
O259 O 0.70255 0.04959 0.5464 0.0
C260 C 0.54799 0.97376 0.22065 0.0
O261 O 0.50961 0.97537 0.2041 0.0
O262 O 0.42038 0.98181 0.24238 0.0
Zn263 Zn 0.46684 0.96726 0.25521 0.0
O264 O 0.44744 0.94954 0.23888 0.0
C265 C 0.44239 0.97525 0.3101 0.0
O266 O 0.44349 0.98739 0.29976 0.0
O267 O 0.53923 0.97089 0.24527 0.0
C268 C 0.47694 0.93991 0.24472 0.0
O269 O 0.5172 0.94243 0.25943 0.0
C270 C 0.37442 0.97994 0.24862 0.0
O271 O 0.3615 0.96854 0.26004 0.0
O272 O 0.45517 0.96534 0.29541 0.0
C273 C 0.22613 0.8071 0.19845 0.0
O274 O 0.24081 0.79903 0.21795 0.0
O275 O 0.37191 0.80846 0.19167 0.0
Zn276 Zn 0.321 0.82041 0.20988 0.0
O277 O 0.34135 0.83992 0.20717 0.0
C278 C 0.34025 0.80421 0.25734 0.0
O279 O 0.35029 0.79498 0.23914 0.0
O280 O 0.25342 0.81714 0.19233 0.0
C281 C 0.37452 0.84397 0.22393 0.0
O282 O 0.39363 0.83538 0.24131 0.0
C283 C 0.41801 0.81136 0.18773 0.0
O284 O 0.43405 0.82357 0.19275 0.0
O285 O 0.32268 0.81547 0.24965 0.0
C286 C 0.53933 0.78946 0.53867 0.0
O287 O 0.51131 0.77865 0.53633 0.0
O288 O 0.4241 0.78403 0.50453 0.0
Zn289 Zn 0.46751 0.8004 0.50039 0.0
O290 O 0.42832 0.81663 0.51178 0.0
C291 C 0.47766 0.79244 0.44487 0.0
O292 O 0.47695 0.78038 0.45559 0.0
O293 O 0.52968 0.79959 0.5239 0.0
C294 C 0.38989 0.82032 0.49831 0.0
O295 O 0.37521 0.8131 0.47748 0.0
C296 C 0.38506 0.78348 0.51934 0.0
O297 O 0.37338 0.79378 0.53471 0.0
O298 O 0.47984 0.80259 0.46042 0.0
C299 C 0.24489 0.94596 0.58518 0.0
O300 O 0.29056 0.94107 0.58843 0.0
O301 O 0.34324 0.95046 0.54148 0.0
Zn302 Zn 0.27778 0.94144 0.53296 0.0
O303 O 0.28803 0.92156 0.53439 0.0
C304 C 0.27201 0.95914 0.48798 0.0
O305 O 0.27957 0.96803 0.50722 0.0
O306 O 0.22761 0.94719 0.56127 0.0
C307 C 0.26138 0.91364 0.52018 0.0
O308 O 0.22558 0.91857 0.5047 0.0
C309 C 0.37921 0.94996 0.52454 0.0
O310 O 0.37447 0.9424 0.50289 0.0
O311 O 0.26282 0.94705 0.49461 0.0
C312 C 0.54034 0.5681 0.34443 0.0
O313 O 0.58358 0.5681 0.35747 0.0
O314 O 0.66207 0.56535 0.31224 0.0
Zn315 Zn 0.60259 0.57605 0.29939 0.0
O316 O 0.61427 0.59596 0.29902 0.0
C317 C 0.59894 0.55739 0.25639 0.0
O318 O 0.59283 0.54911 0.27681 0.0
O319 O 0.53952 0.57123 0.31951 0.0
C320 C 0.58273 0.60249 0.2848 0.0
O321 O 0.54517 0.59598 0.27339 0.0
C322 C 0.69836 0.56543 0.29541 0.0
O323 O 0.7025 0.5758 0.27912 0.0
O324 O 0.59759 0.56995 0.26083 0.0
C325 C 0.79771 0.73255 0.26033 0.0
O326 O 0.76313 0.74191 0.25773 0.0
O327 O 0.68988 0.73435 0.21856 0.0
Zn328 Zn 0.73746 0.71865 0.2203 0.0
O329 O 0.70224 0.70255 0.23628 0.0
C330 C 0.75547 0.72277 0.16341 0.0
O331 O 0.75166 0.73549 0.17005 0.0
O332 O 0.79636 0.72237 0.24482 0.0
C333 C 0.67997 0.69387 0.22165 0.0
O334 O 0.67799 0.69562 0.19533 0.0
C335 C 0.65061 0.73344 0.20388 0.0
O336 O 0.64086 0.72208 0.19147 0.0
O337 O 0.75655 0.71399 0.18207 0.0
C338 C 0.53546 0.68026 0.90212 0.0
O339 O 0.57725 0.67903 0.88803 0.0
O340 O 0.65998 0.68412 0.9328 0.0
Zn341 Zn 0.60099 0.6736 0.94675 0.0
O342 O 0.61231 0.65368 0.94708 0.0
C343 C 0.60086 0.69234 0.98978 0.0
O344 O 0.59427 0.70064 0.96942 0.0
O345 O 0.53674 0.67841 0.92755 0.0
C346 C 0.58103 0.64716 0.96147 0.0
O347 O 0.54384 0.65371 0.97311 0.0
C348 C 0.69759 0.68369 0.9488 0.0
O349 O 0.70238 0.67311 0.96445 0.0
O350 O 0.59866 0.67978 0.98539 0.0
C351 C 0.77702 0.52147 0.97962 0.0
O352 O 0.72848 0.51992 0.97509 0.0
O353 O 0.68521 0.51551 0.02998 0.0
Zn354 Zn 0.73396 0.5309 0.02702 0.0
O355 O 0.70023 0.54708 0.0104 0.0
C356 C 0.75494 0.52697 0.08349 0.0
O357 O 0.75151 0.51423 0.07687 0.0
O358 O 0.7912 0.52587 0.00256 0.0
C359 C 0.67791 0.55579 0.02489 0.0
O360 O 0.67533 0.55402 0.05119 0.0
C361 C 0.64733 0.51643 0.04564 0.0
O362 O 0.63897 0.52776 0.05845 0.0
O363 O 0.75488 0.53574 0.06483 0.0
C364 C 0.53873 0.44383 0.69784 0.0
O365 O 0.49033 0.44366 0.69204 0.0
O366 O 0.4482 0.46001 0.74292 0.0
Zn367 Zn 0.49241 0.44379 0.74798 0.0
O368 O 0.45241 0.4272 0.73966 0.0
C369 C 0.50431 0.45311 0.8026 0.0
O370 O 0.50043 0.46491 0.79096 0.0
O371 O 0.55198 0.44425 0.72259 0.0
C372 C 0.41587 0.42387 0.75488 0.0
O373 O 0.40422 0.43156 0.77557 0.0
C374 C 0.40612 0.45975 0.73061 0.0
O375 O 0.39177 0.4487 0.71833 0.0
O376 O 0.50839 0.44272 0.78782 0.0
C377 C 0.23912 0.29998 0.66707 0.0
O378 O 0.28539 0.30445 0.66377 0.0
O379 O 0.33638 0.29488 0.71156 0.0
Zn380 Zn 0.2722 0.30466 0.71935 0.0
O381 O 0.28622 0.32438 0.71733 0.0
C382 C 0.26483 0.28756 0.76524 0.0
O383 O 0.27241 0.27839 0.74657 0.0
O384 O 0.22153 0.29916 0.69097 0.0
C385 C 0.26546 0.33262 0.73349 0.0
O386 O 0.23254 0.32817 0.75122 0.0
C387 C 0.37259 0.29549 0.72838 0.0
O388 O 0.36891 0.30357 0.74932 0.0
O389 O 0.25604 0.29956 0.75785 0.0
C390 C 0.54206 0.27518 0.03237 0.0
O391 O 0.50389 0.27429 0.04924 0.0
O392 O 0.4147 0.26619 0.01042 0.0
Zn393 Zn 0.46049 0.28089 0.99758 0.0
O394 O 0.44116 0.29871 0.01361 0.0
C395 C 0.43768 0.27243 0.94286 0.0
O396 O 0.44124 0.26037 0.95343 0.0
O397 O 0.53301 0.27728 0.00746 0.0
C398 C 0.47279 0.30804 0.00919 0.0
O399 O 0.51452 0.30517 0.99604 0.0
C400 C 0.36887 0.26756 0.0034 0.0
O401 O 0.35496 0.27879 0.99162 0.0
O402 O 0.44856 0.28258 0.95736 0.0
C403 C 0.24761 0.44391 0.06132 0.0
O404 O 0.28563 0.45201 0.06627 0.0
O405 O 0.37626 0.44039 0.0538 0.0
Zn406 Zn 0.32541 0.42895 0.03408 0.0
O407 O 0.34115 0.40924 0.03886 0.0
C408 C 0.35161 0.44466 0.98705 0.0
O409 O 0.35664 0.45426 0.0051 0.0
O410 O 0.25509 0.43338 0.04731 0.0
C411 C 0.37563 0.40445 0.02378 0.0
O412 O 0.39852 0.41243 0.00655 0.0
C413 C 0.42178 0.43729 0.05891 0.0
O414 O 0.4377 0.42507 0.05393 0.0
O415 O 0.33447 0.43332 0.99445 0.0
H416 H 0.08729 0.01161 0.06529 0.0
H417 H 0.00319 0.06595 0.17586 0.0
H418 H 0.0536 0.05294 0.04629 0.0
H419 H 0.03302 0.02435 0.19432 0.0
H420 H 0.0184 0.06121 0.12804 0.0
H421 H 0.06637 0.01603 0.11259 0.0
C422 C 0.07588 0.02164 0.07109 0.0
C423 C 0.07249 0.03194 0.05182 0.0
C424 C 0.02128 0.0531 0.14253 0.0
C425 C 0.04793 0.03704 0.10591 0.0
C426 C 0.01238 0.05579 0.16984 0.0
C427 C 0.01704 0.04555 0.18917 0.0
C428 C 0.03511 0.04009 0.13448 0.0
C429 C 0.02911 0.03257 0.18016 0.0
C430 C 0.06364 0.02414 0.09809 0.0
C431 C 0.05696 0.04471 0.06047 0.0
N432 N 0.03803 0.03024 0.15351 0.0
N433 N 0.04529 0.04689 0.08688 0.0
H434 H 0.0152 0.17731 0.06819 0.0
H435 H 0.09278 0.23191 0.17972 0.0
H436 H 0.04256 0.21908 0.05026 0.0
H437 H 0.05857 0.19059 0.19854 0.0
H438 H 0.07454 0.22736 0.13215 0.0
H439 H 0.0291 0.18204 0.11617 0.0
C440 C 0.02361 0.1875 0.07436 0.0
C441 C 0.02787 0.19781 0.05515 0.0
C442 C 0.07111 0.21928 0.14667 0.0
C443 C 0.04442 0.20325 0.10999 0.0
C444 C 0.0818 0.22186 0.17383 0.0
C445 C 0.07741 0.21161 0.19314 0.0
C446 C 0.05596 0.20635 0.13871 0.0
C447 C 0.06261 0.19879 0.18434 0.0
C448 C 0.03175 0.19018 0.10175 0.0
C449 C 0.03894 0.21082 0.06432 0.0
N450 N 0.05242 0.19653 0.15777 0.0
N451 N 0.04712 0.21315 0.09105 0.0
H452 H 0.88232 0.96502 0.01183 0.0
H453 H 0.04202 0.9429 0.88348 0.0
H454 H 0.98792 0.93206 0.01397 0.0
H455 H 0.97676 0.98239 0.89161 0.0
H456 H 0.02224 0.9385 0.931 0.0
H457 H 0.91421 0.97116 0.96707 0.0
C458 C 0.9119 0.95901 0.00281 0.0
C459 C 0.93211 0.94792 0.01656 0.0
C460 C 0.01289 0.94819 0.92247 0.0
C461 C 0.96881 0.95491 0.96538 0.0
C462 C 0.02426 0.95072 0.89536 0.0
C463 C 0.0107 0.96299 0.88348 0.0
C464 C 0.98702 0.95791 0.93768 0.0
C465 C 0.98783 0.97277 0.89988 0.0
C466 C 0.93038 0.96259 0.97736 0.0
C467 C 0.97097 0.94062 0.00404 0.0
N468 N 0.97602 0.96995 0.92603 0.0
N469 N 0.98779 0.94419 0.97908 0.0
H470 H 0.85527 0.76777 0.94865 0.0
H471 H 0.76903 0.81887 0.83288 0.0
H472 H 0.82876 0.80992 0.96305 0.0
H473 H 0.77942 0.77599 0.82152 0.0
H474 H 0.78813 0.81582 0.88087 0.0
H475 H 0.82767 0.7707 0.90191 0.0
C476 C 0.84408 0.77768 0.94193 0.0
C477 C 0.84461 0.78863 0.95978 0.0
C478 C 0.78569 0.80706 0.86793 0.0
C479 C 0.81234 0.79203 0.90628 0.0
C480 C 0.77449 0.80879 0.84054 0.0
C481 C 0.77289 0.79768 0.82307 0.0
C482 C 0.7957 0.79414 0.87791 0.0
C483 C 0.78033 0.78486 0.83417 0.0
C484 C 0.82793 0.77932 0.91527 0.0
C485 C 0.82917 0.8012 0.94997 0.0
N486 N 0.79193 0.78346 0.86081 0.0
N487 N 0.81373 0.80256 0.92386 0.0
H488 H 0.03537 0.50665 0.68267 0.0
H489 H 0.10818 0.55863 0.56633 0.0
H490 H 0.00788 0.54929 0.68758 0.0
H491 H 0.11474 0.51567 0.55537 0.0
H492 H 0.07173 0.55521 0.61104 0.0
H493 H 0.06168 0.50946 0.63561 0.0
C494 C 0.03395 0.51656 0.67373 0.0
C495 C 0.01988 0.52777 0.68922 0.0
C496 C 0.08111 0.54652 0.59888 0.0
C497 C 0.05089 0.53108 0.63556 0.0
C498 C 0.10235 0.54846 0.5734 0.0
C499 C 0.11477 0.53742 0.55709 0.0
C500 C 0.0724 0.53343 0.60828 0.0
C501 C 0.10597 0.52448 0.5673 0.0
C502 C 0.04929 0.51817 0.6469 0.0
C503 C 0.01872 0.54037 0.67652 0.0
N504 N 0.08538 0.52284 0.59228 0.0
N505 N 0.03467 0.5417 0.65056 0.0
H506 H 0.09961 0.7285 0.69383 0.0
H507 H 0.98466 0.69323 0.56186 0.0
H508 H 0.08954 0.6856 0.68275 0.0
H509 H 0.01515 0.73573 0.5671 0.0
H510 H 0.01189 0.69071 0.60875 0.0
H511 H 0.06079 0.73167 0.64936 0.0
C512 C 0.08959 0.71975 0.68199 0.0
C513 C 0.09818 0.70676 0.69199 0.0
C514 C 0.01215 0.70062 0.59973 0.0
C515 C 0.05296 0.71033 0.64128 0.0
C516 C -0.00385 0.70209 0.573 0.0
C517 C -0.00186 0.7147 0.56038 0.0
C518 C 0.03022 0.71182 0.61401 0.0
C519 C 0.01333 0.7258 0.57591 0.0
C520 C 0.06717 0.72157 0.65667 0.0
C521 C 0.08399 0.6958 0.67582 0.0
N522 N 0.02929 0.72408 0.60184 0.0
N523 N 0.06204 0.69783 0.65132 0.0
H524 H 0.79966 0.47094 0.42429 0.0
H525 H 0.84128 0.43907 0.27725 0.0
H526 H 0.78254 0.42877 0.40634 0.0
H527 H 0.8596 0.48124 0.29479 0.0
H528 H 0.81777 0.43524 0.32433 0.0
H529 H 0.81687 0.47516 0.37648 0.0
C530 C 0.79865 0.46259 0.41025 0.0
C531 C 0.78986 0.44947 0.4194 0.0
C532 C 0.82708 0.44533 0.31793 0.0
C533 C 0.81043 0.4542 0.3647 0.0
C534 C 0.84082 0.44751 0.29106 0.0
C535 C 0.85263 0.4605 0.28205 0.0
C536 C 0.82502 0.4562 0.336 0.0
C537 C 0.85107 0.47106 0.30086 0.0
C538 C 0.8089 0.465 0.38297 0.0
C539 C 0.78928 0.43905 0.40025 0.0
N540 N 0.8374 0.46868 0.32693 0.0
N541 N 0.79984 0.44163 0.37387 0.0
H542 H -0.00164 0.31236 0.23662 0.0
H543 H 0.98364 0.25782 0.3549 0.0
H544 H 0.88606 0.281 0.23971 0.0
H545 H 0.05471 0.29651 0.36489 0.0
H546 H 0.96299 0.26374 0.30816 0.0
H547 H 0.03245 0.30445 0.27977 0.0
C548 C 0.98069 0.30385 0.24642 0.0
C549 C 0.93883 0.29744 0.23468 0.0
C550 C 0.98358 0.27086 0.32054 0.0
C551 C 0.97831 0.28821 0.28381 0.0
C552 C -0.00417 0.26745 0.34716 0.0
C553 C 0.02044 0.27675 0.36399 0.0
C554 C -0.00362 0.28361 0.31062 0.0
C555 C 0.03529 0.28908 0.35274 0.0
C556 C 0.00032 0.29932 0.27098 0.0
C557 C 0.9179 0.28636 0.24817 0.0
N558 N 0.02267 0.29219 0.32682 0.0
N559 N 0.93791 0.28209 0.27201 0.0
H560 H 0.57673 0.06044 0.71331 0.0
H561 H 0.71996 0.019 0.59788 0.0
H562 H 0.62732 0.01958 0.72372 0.0
H563 H 0.67994 0.06086 0.59089 0.0
H564 H 0.68852 0.01908 0.64437 0.0
H565 H 0.61401 0.06062 0.66821 0.0
C566 C 0.59532 0.05146 0.70604 0.0
C567 C 0.5988 0.03996 0.72235 0.0
C568 C 0.68706 0.02827 0.63274 0.0
C569 C 0.64215 0.04015 0.67071 0.0
C570 C 0.7053 0.02826 0.60623 0.0
C571 C 0.70237 0.03993 0.59037 0.0
C572 C 0.66551 0.04001 0.64343 0.0
C573 C 0.68288 0.05162 0.60229 0.0
C574 C 0.61691 0.0516 0.68032 0.0
C575 C 0.62359 0.02865 0.71184 0.0
N576 N 0.66481 0.05133 0.628 0.0
N577 N 0.64435 0.02903 0.6867 0.0
H578 H 0.71019 0.22713 0.65405 0.0
H579 H 0.56716 0.1852 0.53914 0.0
H580 H 0.6723 0.18512 0.66108 0.0
H581 H 0.61973 0.22582 0.52751 0.0
H582 H 0.60382 0.18532 0.58441 0.0
H583 H 0.67827 0.22694 0.60761 0.0
C584 C 0.69588 0.21781 0.64572 0.0
C585 C 0.69374 0.20614 0.66156 0.0
C586 C 0.60729 0.19422 0.572 0.0
C587 C 0.65634 0.20592 0.60859 0.0
C588 C 0.58603 0.1942 0.54618 0.0
C589 C 0.59033 0.20553 0.52947 0.0
C590 C 0.63298 0.20566 0.5813 0.0
C591 C 0.61542 0.21687 0.5397 0.0
C592 C 0.67738 0.21774 0.61925 0.0
C593 C 0.67466 0.19438 0.64969 0.0
N594 N 0.63586 0.21664 0.56495 0.0
N595 N 0.65633 0.19461 0.62402 0.0
H596 H 0.29866 0.98354 0.46683 0.0
H597 H 0.41935 0.95118 0.33382 0.0
H598 H 0.28416 0.94169 0.44555 0.0
H599 H 0.40966 0.99395 0.34687 0.0
H600 H 0.37277 0.94755 0.37577 0.0
H601 H 0.33959 0.9877 0.42331 0.0
C602 C 0.3033 0.97526 0.45285 0.0
C603 C 0.28805 0.96224 0.45995 0.0
C604 C 0.38087 0.95773 0.36949 0.0
C605 C 0.33587 0.96688 0.4103 0.0
C606 C 0.40786 0.95982 0.34562 0.0
C607 C 0.41857 0.9729 0.33679 0.0
C608 C 0.36463 0.96879 0.38481 0.0
C609 C 0.40236 0.98369 0.35289 0.0
C610 C 0.32695 0.97763 0.42805 0.0
C611 C 0.29522 0.9519 0.44099 0.0
N612 N 0.37624 0.98139 0.37612 0.0
N613 N 0.31907 0.95442 0.41719 0.0
H614 H 0.46945 0.77311 0.40569 0.0
H615 H 0.34276 0.82284 0.29819 0.0
H616 H 0.45397 0.81578 0.41841 0.0
H617 H 0.37802 0.78144 0.28075 0.0
H618 H 0.37983 0.82015 0.34316 0.0
H619 H 0.4352 0.77583 0.36009 0.0
C620 C 0.4595 0.78308 0.39878 0.0
C621 C 0.46453 0.79422 0.41596 0.0
C622 C 0.37932 0.81164 0.32952 0.0
C623 C 0.4244 0.79737 0.36391 0.0
C624 C 0.35776 0.81314 0.30391 0.0
C625 C 0.35723 0.80234 0.28564 0.0
C626 C 0.40035 0.79925 0.33702 0.0
C627 C 0.3776 0.79004 0.29414 0.0
C628 C 0.43969 0.78461 0.37277 0.0
C629 C 0.45088 0.80689 0.40589 0.0
N630 N 0.39837 0.78883 0.31919 0.0
N631 N 0.43106 0.8081 0.38063 0.0
H632 H 0.75362 0.55251 0.10363 0.0
H633 H 0.61718 0.53132 0.2415 0.0
H634 H 0.72922 0.51126 0.12696 0.0
H635 H 0.63135 0.57213 0.21313 0.0
H636 H 0.66281 0.52363 0.20138 0.0
H637 H 0.71741 0.55975 0.1465 0.0
C638 C 0.74146 0.54495 0.11797 0.0
C639 C 0.74387 0.53126 0.1115 0.0
C640 C 0.65568 0.53426 0.2039 0.0
C641 C 0.70139 0.5395 0.16051 0.0
C642 C 0.6292 0.53865 0.22667 0.0
C643 C 0.62008 0.5524 0.23062 0.0
C644 C 0.67334 0.54369 0.18503 0.0
C645 C 0.63719 0.56144 0.21089 0.0
C646 C 0.72038 0.5491 0.14239 0.0
C647 C 0.72778 0.52193 0.13099 0.0
N648 N 0.6631 0.55692 0.18904 0.0
N649 N 0.70664 0.52623 0.15451 0.0
H650 H 0.75386 0.69719 0.14335 0.0
H651 H 0.62069 0.71837 0.0044 0.0
H652 H 0.72994 0.73843 0.11983 0.0
H653 H 0.63279 0.67759 0.03317 0.0
H654 H 0.66612 0.72602 0.04467 0.0
H655 H 0.71843 0.68994 0.10025 0.0
C656 C 0.74195 0.70474 0.12894 0.0
C657 C 0.74433 0.71844 0.1354 0.0
C658 C 0.65853 0.71541 0.04223 0.0
C659 C 0.7028 0.71017 0.08609 0.0
C660 C 0.63221 0.71104 0.01935 0.0
C661 C 0.6225 0.69731 0.01549 0.0
C662 C 0.67535 0.70599 0.06133 0.0
C663 C 0.63905 0.68827 0.03536 0.0
C664 C 0.72134 0.70058 0.10438 0.0
C665 C 0.72854 0.72776 0.11581 0.0
N666 N 0.66473 0.69276 0.05735 0.0
N667 N 0.7079 0.72345 0.09214 0.0
H668 H 0.48775 0.42989 0.83098 0.0
H669 H 0.38904 0.46758 0.96394 0.0
H670 H 0.48886 0.47299 0.84003 0.0
H671 H 0.36487 0.42547 0.94797 0.0
H672 H 0.43175 0.46963 0.92028 0.0
H673 H 0.45153 0.42789 0.8762 0.0
C674 C 0.48121 0.43893 0.84263 0.0
C675 C 0.49114 0.45164 0.83158 0.0
C676 C 0.41693 0.45996 0.9263 0.0
C677 C 0.44889 0.44941 0.88329 0.0
C678 C 0.39233 0.45879 0.95117 0.0
C679 C 0.37314 0.44634 0.95962 0.0
C680 C 0.42277 0.44858 0.90981 0.0
C681 C 0.37877 0.43528 0.94226 0.0
C682 C 0.46006 0.43778 0.86838 0.0
C683 C 0.48164 0.46299 0.84766 0.0
N684 N 0.40323 0.43665 0.91826 0.0
N685 N 0.46076 0.46161 0.87263 0.0
H686 H 0.27353 0.30549 0.80714 0.0
H687 H 0.40854 0.25312 0.90652 0.0
H688 H 0.29439 0.26363 0.78747 0.0
H689 H 0.40929 0.29602 0.91879 0.0
H690 H 0.36089 0.25638 0.86461 0.0
H691 H 0.31464 0.30165 0.85069 0.0
C692 C 0.28593 0.29543 0.81214 0.0
C693 C 0.28069 0.28488 0.79349 0.0
C694 C 0.37165 0.26508 0.87644 0.0
C695 C 0.32859 0.28047 0.84325 0.0
C696 C 0.39908 0.26323 0.90031 0.0
C697 C 0.41316 0.27431 0.91618 0.0
C698 C 0.35783 0.2781 0.86845 0.0
C699 C 0.39953 0.28718 0.90716 0.0
C700 C 0.30985 0.29328 0.83694 0.0
C701 C 0.29772 0.27208 0.80114 0.0
N702 N 0.3725 0.2887 0.88398 0.0
N703 N 0.3212 0.27026 0.82534 0.0
H704 H 0.28041 0.98083 0.27074 0.0
H705 H 0.2106 0.05413 0.21938 0.0
H706 H 0.38553 0.00453 0.22413 0.0
H707 H 0.14122 0.03509 0.28849 0.0
H708 H 0.27162 0.03565 0.21712 0.0
H709 H 0.22343 -3e-05 0.27252 0.0
C710 C 0.29135 0.99002 0.26064 0.0
C711 C 0.33788 0.9911 0.24732 0.0
C712 C 0.24325 0.03563 0.23289 0.0
C713 C 0.27281 0.0131 0.24947 0.0
C714 C 0.20855 0.04617 0.23425 0.0
C715 C 0.17063 0.04613 0.25409 0.0
C716 C 0.23938 0.02494 0.25124 0.0
C717 C 0.16969 0.03555 0.27282 0.0
C718 C 0.25894 0.00099 0.26187 0.0
C719 C 0.35003 0.0033 0.23467 0.0
N720 N 0.20319 0.02533 0.27075 0.0
N721 N 0.3176 0.01386 0.23602 0.0
H722 H 0.95387 0.28776 0.13918 0.0
H723 H 0.06338 0.25331 0.27328 0.0
H724 H 0.0863 0.30194 0.18092 0.0
H725 H 0.93196 0.23907 0.23018 0.0
H726 H 0.06826 0.27235 0.24223 0.0
H727 H 0.94337 0.27031 0.17358 0.0
C728 C 0.9804 0.28723 0.1558 0.0
C729 C 0.02037 0.29636 0.15767 0.0
C730 C 0.03818 0.26509 0.2397 0.0
C731 C 0.00909 0.27648 0.19696 0.0
C732 C 0.035 0.25429 0.25761 0.0
C733 C -0.00231 0.24442 0.25406 0.0
C734 C 0.00382 0.26602 0.21811 0.0
C735 C 0.96173 0.24633 0.23354 0.0
C736 C 0.97469 0.27725 0.17533 0.0
C737 C 0.05481 0.29508 0.17903 0.0
N738 N 0.96608 0.2568 0.21614 0.0
N739 N 0.04822 0.28536 0.19801 0.0
H740 H 0.21898 0.19077 0.02605 0.0
H741 H 0.27672 0.26557 0.97923 0.0
H742 H 0.14992 0.20958 0.95653 0.0
H743 H 0.38275 0.243 0.02755 0.0
H744 H 0.22401 0.24565 0.97537 0.0
H745 H 0.2759 0.21007 0.03028 0.0
C746 C 0.21621 0.19885 0.01147 0.0
C747 C 0.17947 0.19858 0.99097 0.0
C748 C 0.25877 0.24505 0.98687 0.0
C749 C 0.24352 0.22072 0.99608 0.0
C750 C 0.2887 0.25646 0.9893 0.0
C751 C 0.3343 0.25594 0.00369 0.0
C752 C 0.27418 0.23303 -0.00088 0.0
C753 C 0.34791 0.24382 0.01621 0.0
C754 C 0.24856 0.20987 0.01398 0.0
C755 C 0.17753 0.20934 0.97269 0.0
N756 N 0.3179 0.23281 0.01366 0.0
N757 N 0.2087 0.22002 0.97586 0.0
H758 H 0.05969 0.99028 0.97218 0.0
H759 H 0.95771 0.95903 0.11102 0.0
H760 H 0.93204 0.00586 0.01646 0.0
H761 H 0.08442 0.94292 0.06723 0.0
H762 H 0.94643 0.97596 0.07565 0.0
H763 H 0.06551 0.97181 0.00457 0.0
C764 C 0.03229 0.9897 0.98839 0.0
C765 C -0.00417 -0.00021 0.99184 0.0
C766 C 0.97665 0.96872 0.07366 0.0
C767 C 0.00313 0.97886 0.02933 0.0
C768 C 0.98283 0.95904 0.09376 0.0
C769 C 0.02138 0.94952 0.09162 0.0
C770 C 0.00912 0.96877 0.05116 0.0
C771 C 0.05403 0.9501 0.06937 0.0
C772 C 0.03603 0.97923 0.00707 0.0
C773 C 0.96114 -0.00158 0.01312 0.0
N774 N 0.04696 0.95953 0.04984 0.0
N775 N 0.96607 0.98827 0.03124 0.0
H776 H 0.65104 0.02317 0.84205 0.0
H777 H 0.9084 0.99298 0.78406 0.0
H778 H 0.75118 0.04472 0.78858 0.0
H779 H 0.81679 0.9727 0.84362 0.0
H780 H 0.85175 0.01221 0.78631 0.0
H781 H 0.71273 0.00499 0.8446 0.0
C782 C 0.68628 0.02417 0.83113 0.0
C783 C 0.69579 0.03545 0.8149 0.0
C784 C 0.84405 0.00357 0.79894 0.0
C785 C 0.76621 0.0146 0.81745 0.0
C786 C 0.87627 0.99255 0.79757 0.0
C787 C 0.86719 0.98118 0.81359 0.0
C788 C 0.80222 0.00324 0.81636 0.0
C789 C 0.82512 0.98124 0.83083 0.0
C790 C 0.7214 0.01376 0.83252 0.0
C791 C 0.74212 0.0362 0.80125 0.0
N792 N 0.79408 0.99209 0.8317 0.0
N793 N 0.77537 0.02586 0.80263 0.0
H794 H 0.05689 0.72488 0.81028 0.0
H795 H 0.88248 0.7754 0.72707 0.0
H796 H 0.95809 0.71266 0.74522 0.0
H797 H 0.94976 0.78596 0.80384 0.0
H798 H 0.91544 0.7527 0.732 0.0
H799 H 0.02097 0.74748 0.80794 0.0
C800 C 0.02712 0.72688 0.7958 0.0
C801 C 0.01062 0.71687 0.77784 0.0
C802 C 0.92309 0.75998 0.74776 0.0
C803 C 0.97025 0.74274 0.77469 0.0
C804 C 0.90466 0.773 0.74485 0.0
C805 C 0.9134 0.78261 0.76507 0.0
C806 C 0.95079 0.75655 0.77098 0.0
C807 C 0.94217 0.77887 0.78773 0.0
C808 C 0.00683 0.7398 0.7944 0.0
C809 C 0.97201 0.72004 0.75947 0.0
N810 N 0.95988 0.76612 0.79008 0.0
N811 N 0.95356 0.73273 0.75817 0.0
H812 H 0.76198 0.68792 0.99144 0.0
H813 H 0.70362 0.76637 0.99425 0.0
H814 H 0.68212 0.70888 0.92803 0.0
H815 H 0.81129 0.74779 0.04814 0.0
H816 H 0.69125 0.74485 0.97185 0.0
H817 H 0.78031 0.70942 0.01304 0.0
C818 C 0.74933 0.69705 0.98165 0.0
C819 C 0.72 0.69655 0.95795 0.0
C820 C 0.71752 0.74546 0.98861 0.0
C821 C 0.74005 0.72118 0.98297 0.0
C822 C 0.72421 0.75773 0.00165 0.0
C823 C 0.75877 0.75893 0.02306 0.0
C824 C 0.74535 0.73423 0.99707 0.0
C825 C 0.78438 0.74735 0.03166 0.0
C826 C 0.75951 0.70932 0.99416 0.0
C827 C 0.70458 0.70874 0.94634 0.0
N828 N 0.77727 0.73548 0.01858 0.0
N829 N 0.71417 0.72052 0.95917 0.0
H830 H 0.13181 0.50457 0.74865 0.0
H831 H 0.42216 0.48374 0.75639 0.0
H832 H 0.24623 0.53004 0.784 0.0
H833 H 0.30886 0.46144 0.7124 0.0
H834 H 0.35946 0.50106 0.76607 0.0
H835 H 0.19691 0.48871 0.73548 0.0
C836 C 0.17067 0.50682 0.75378 0.0
C837 C 0.18355 0.51866 0.76758 0.0
C838 C 0.34848 0.49244 0.75411 0.0
C839 C 0.25858 0.50047 0.75233 0.0
C840 C 0.38426 0.48255 0.7485 0.0
C841 C 0.37062 0.47107 0.7337 0.0
C842 C 0.29867 0.49078 0.74499 0.0
C843 C 0.32103 0.47008 0.72397 0.0
C844 C 0.20792 0.49776 0.74608 0.0
C845 C 0.23461 0.52103 0.77346 0.0
N846 N 0.28677 0.47975 0.72998 0.0
N847 N 0.27033 0.51198 0.76586 0.0
H848 H 0.39931 0.7603 0.49066 0.0
H849 H 0.11092 0.73821 0.50288 0.0
H850 H 0.28971 0.78099 0.54005 0.0
H851 H 0.2239 0.71398 0.46315 0.0
H852 H 0.1763 0.75403 0.51627 0.0
H853 H 0.3365 0.74304 0.4808 0.0
C854 C 0.36219 0.76114 0.49967 0.0
C855 C 0.3496 0.77216 0.51607 0.0
C856 C 0.1869 0.74525 0.50466 0.0
C857 C 0.27744 0.75251 0.50459 0.0
C858 C 0.1495 0.73623 0.49685 0.0
C859 C 0.16192 0.72476 0.48175 0.0
C860 C 0.23719 0.74286 0.49722 0.0
C861 C 0.21263 0.7227 0.47471 0.0
C862 C 0.32634 0.75129 0.49398 0.0
C863 C 0.30103 0.7727 0.52726 0.0
N864 N 0.24844 0.7317 0.48244 0.0
N865 N 0.26657 0.76308 0.52111 0.0
H866 H 0.97205 0.45689 0.44162 0.0
H867 H 0.96902 0.53088 0.50428 0.0
H868 H 0.89642 0.46742 0.51605 0.0
H869 H 0.0694 0.51896 0.43979 0.0
H870 H 0.93507 0.50814 0.50546 0.0
H871 H 0.00381 0.47987 0.43836 0.0
C872 C 0.9626 0.46398 0.45744 0.0
C873 C 0.93157 0.46021 0.47916 0.0
C874 C 0.9643 0.51052 0.49093 0.0
C875 C 0.96698 0.48657 0.47526 0.0
C876 C 0.9834 0.52354 0.49006 0.0
C877 C 0.02234 0.52682 0.472 0.0
C878 C 0.98409 0.50069 0.47354 0.0
C879 C 0.03954 0.51687 0.45412 0.0
C880 C 0.98052 0.47712 0.45548 0.0
C881 C 0.92035 0.46985 0.49899 0.0
N882 N 0.02047 0.50422 0.45543 0.0
N883 N 0.93778 0.4826 0.49647 0.0
H884 H 0.68407 0.54063 0.31819 0.0
H885 H 0.79924 0.50111 0.19129 0.0
H886 H 0.75861 0.56037 0.25148 0.0
H887 H 0.71174 0.48254 0.25475 0.0
H888 H 0.78759 0.52289 0.21342 0.0
H889 H 0.70112 0.51902 0.29693 0.0
C890 C 0.70502 0.54043 0.29938 0.0
C891 C 0.71948 0.55238 0.28652 0.0
C892 C 0.77088 0.51404 0.22244 0.0
C893 C 0.73833 0.52763 0.26177 0.0
C894 C 0.77713 0.50162 0.20969 0.0
C895 C 0.75659 0.48996 0.22122 0.0
C896 C 0.7443 0.51476 0.247 0.0
C897 C 0.72826 0.49124 0.24508 0.0
C898 C 0.71426 0.52807 0.28708 0.0
C899 C 0.74653 0.55144 0.26213 0.0
N900 N 0.72331 0.50338 0.25726 0.0
N901 N 0.75462 0.53929 0.2504 0.0
H902 H 0.91414 0.2477 0.46479 0.0
H903 H 0.6499 0.22022 0.4096 0.0
H904 H 0.8241 0.26844 0.40514 0.0
H905 H 0.74558 0.19831 0.46486 0.0
H906 H 0.7151 0.23745 0.40583 0.0
H907 H 0.85389 0.22918 0.46395 0.0
C908 C 0.88165 0.24837 0.45154 0.0
C909 C 0.87402 0.25967 0.4351 0.0
C910 C 0.72202 0.22881 0.41859 0.0
C911 C 0.80494 0.23846 0.43396 0.0
C912 C 0.68486 0.21894 0.42068 0.0
C913 C 0.69214 0.20785 0.43772 0.0
C914 C 0.76665 0.22762 0.43376 0.0
C915 C 0.73823 0.20671 0.45156 0.0
C916 C 0.84734 0.23776 0.45099 0.0
C917 C 0.83138 0.25995 0.41823 0.0
N918 N 0.77354 0.21654 0.44946 0.0
N919 N 0.79836 0.24952 0.41816 0.0
H920 H 0.4461 0.29034 0.76605 0.0
H921 H 0.53207 0.22294 0.69181 0.0
H922 H 0.39101 0.27752 0.6879 0.0
H923 H 0.59739 0.23657 0.76709 0.0
H924 H 0.48202 0.24337 0.68975 0.0
H925 H 0.50511 0.27147 0.76605 0.0
C926 C 0.44693 0.28368 0.74871 0.0
C927 C 0.41333 0.28544 0.72702 0.0
C928 C 0.50733 0.24193 0.70672 0.0
C929 C 0.48016 0.26378 0.72708 0.0
C930 C 0.53578 0.23022 0.70799 0.0
C931 C 0.56876 0.22801 0.72975 0.0
C932 C 0.51161 0.25152 0.72743 0.0
C933 C 0.57226 0.23785 0.75 0.0
C934 C 0.48044 0.27288 0.7488 0.0
C935 C 0.41596 0.2765 0.70515 0.0
N936 N 0.54384 0.24918 0.7484 0.0
N937 N 0.44847 0.266 0.70584 0.0
H938 H 0.60528 0.00907 0.48447 0.0
H939 H 0.40121 0.96647 0.56703 0.0
H940 H 0.54243 0.02101 0.56143 0.0
H941 H 0.45091 0.956 0.48652 0.0
H942 H 0.46115 0.985 0.56741 0.0
H943 H 0.5557 0.98837 0.4865 0.0
C944 C 0.58105 0.00735 0.50176 0.0
C945 C 0.57767 0.01682 0.52272 0.0
C946 C 0.4593 0.97859 0.54973 0.0
C947 C 0.52139 0.99315 0.52528 0.0
C948 C 0.42521 0.96796 0.54955 0.0
C949 C 0.42074 0.95975 0.52661 0.0
C950 C 0.48902 0.98108 0.52677 0.0
C951 C 0.45302 0.96211 0.50461 0.0
C952 C 0.5529 0.99552 0.50294 0.0
C953 C 0.54592 0.01404 0.54471 0.0
N954 N 0.48552 0.97266 0.50512 0.0
N955 N 0.51898 0.00247 0.54539 0.0
H956 H 0.66851 0.7595 0.21856 0.0
H957 H 0.39822 0.78551 0.17255 0.0
H958 H 0.55929 0.73427 0.17823 0.0
H959 H 0.52062 0.81212 0.19393 0.0
H960 H 0.45689 0.76664 0.17357 0.0
H961 H 0.61455 0.77892 0.20995 0.0
C962 C 0.63313 0.75804 0.20795 0.0
C963 C 0.61818 0.74524 0.19925 0.0
C964 C 0.47107 0.77663 0.17768 0.0
C965 C 0.55645 0.7674 0.18924 0.0
C966 C 0.43762 0.78741 0.17703 0.0
C967 C 0.45449 0.80039 0.18339 0.0
C968 C 0.52158 0.77881 0.18508 0.0
C969 C 0.50595 0.80228 0.18897 0.0
C970 C 0.60254 0.76914 0.20287 0.0
C971 C 0.57219 0.74395 0.18538 0.0
N972 N 0.53757 0.79157 0.19006 0.0
N973 N 0.54278 0.75488 0.18096 0.0
H974 H 0.52479 0.43634 0.05518 0.0
H975 H 0.55748 0.51563 0.07273 0.0
H976 H 0.40164 0.46305 0.07448 0.0
H977 H 0.66471 0.49035 0.03115 0.0
H978 H 0.50523 0.49588 0.08163 0.0
H979 H 0.58243 0.4555 0.05565 0.0
C980 C 0.51002 0.44618 0.06005 0.0
C981 C 0.45824 0.44814 0.06446 0.0
C982 C 0.54028 0.49467 0.07063 0.0
C983 C 0.52381 0.47006 0.06476 0.0
C984 C 0.57006 0.50593 0.0655 0.0
C985 C 0.61523 0.50464 0.05094 0.0
C986 C 0.55607 0.48204 0.06137 0.0
C987 C 0.62986 0.49182 0.04218 0.0
C988 C 0.54287 0.45712 0.06009 0.0
C989 C 0.44122 0.46112 0.07068 0.0
N990 N 0.60032 0.48101 0.04753 0.0
N991 N 0.47388 0.47162 0.07042 0.0
H992 H 0.91988 0.1738 0.2622 0.0
H993 H 0.05897 0.10579 0.29623 0.0
H994 H 0.04686 0.17164 0.31682 0.0
H995 H 0.90778 0.10703 0.26366 0.0
H996 H 0.05419 0.1299 0.30499 0.0
H997 H 0.91191 0.1494 0.26437 0.0
C998 C 0.94541 0.16821 0.27511 0.0
C999 C 0.98445 0.17474 0.28909 0.0
C1000 C 0.02187 0.12487 0.29618 0.0
C1001 C 0.97632 0.14682 0.29116 0.0
C1002 C 0.02472 0.11113 0.29099 0.0
C1003 C 0.9839 0.10442 0.27894 0.0
C1004 C 0.97819 0.132 0.28889 0.0
C1005 C 0.94026 0.11181 0.27284 0.0
C1006 C 0.94094 0.15428 0.27628 0.0
C1007 C 0.01634 0.16702 0.3056 0.0
N1008 N 0.93876 0.12523 0.27759 0.0
N1009 N 0.01219 0.15343 0.30576 0.0
H1010 H 0.06919 0.13781 0.94758 0.0
H1011 H 0.92142 0.0708 0.97964 0.0
H1012 H 0.91637 0.13755 0.97784 0.0
H1013 H 0.05206 0.07193 0.92756 0.0
H1014 H 0.91612 0.09523 0.97713 0.0
H1015 H 0.06261 0.11371 0.93885 0.0
C1016 C 0.0342 0.13269 0.9523 0.0
C1017 C 0.99345 0.13967 0.96372 0.0
C1018 C 0.9454 0.09013 0.96584 0.0
C1019 C 0.98567 0.11212 0.9538 0.0
C1020 C 0.94835 0.07617 0.96721 0.0
C1021 C 0.98756 0.06933 0.95405 0.0
C1022 C 0.98249 0.09731 0.95162 0.0
C1023 C 0.02131 0.07679 0.93813 0.0
C1024 C 0.03034 0.11896 0.94714 0.0
C1025 C 0.94885 0.13256 0.96917 0.0
N1026 N 0.01859 0.09041 0.93778 0.0
N1027 N 0.94635 0.11915 0.96445 0.0
H1028 H 0.05706 0.90659 0.77489 0.0
H1029 H 0.82453 0.8571 0.74787 0.0
H1030 H 0.90107 0.91903 0.7778 0.0
H1031 H 0.98045 0.84453 0.74594 0.0
H1032 H 0.85206 0.88008 0.75636 0.0
H1033 H 0.02987 0.88405 0.7622 0.0
C1034 C 0.01705 0.90459 0.77284 0.0
C1035 C 0.98126 0.91471 0.77755 0.0
C1036 C 0.88029 0.87232 0.75395 0.0
C1037 C 0.94986 0.88889 0.76295 0.0
C1038 C 0.86461 0.85918 0.74906 0.0
C1039 C 0.90024 0.84884 0.74632 0.0
C1040 C 0.93201 0.87517 0.75621 0.0
C1041 C 0.95164 0.85216 0.74798 0.0
C1042 C 0.00156 0.89171 0.76555 0.0
C1043 C 0.92996 0.91154 0.77447 0.0
N1044 N 0.96597 0.86503 0.75295 0.0
N1045 N 0.9158 0.89889 0.76743 0.0
H1046 H 0.77334 0.90133 0.05636 0.0
H1047 H 0.81888 0.82513 0.10017 0.0
H1048 H 0.88345 0.88863 0.1155 0.0
H1049 H 0.73573 0.83677 0.02874 0.0
H1050 H 0.82562 0.84871 0.11297 0.0
H1051 H 0.74387 0.87812 0.05262 0.0
C1052 C 0.79098 0.89369 0.06877 0.0
C1053 C 0.83142 0.89689 0.08599 0.0
C1054 C 0.80526 0.84609 0.0947 0.0
C1055 C 0.79767 0.87037 0.0819 0.0
C1056 C 0.8011 0.8326 0.08744 0.0
C1057 C 0.77755 0.82897 0.06303 0.0
C1058 C 0.78566 0.85601 0.07749 0.0
C1059 C 0.75487 0.83912 0.04752 0.0
C1060 C 0.77413 0.88046 0.06661 0.0
C1061 C 0.85263 0.8866 0.10169 0.0
N1062 N 0.7601 0.8522 0.05481 0.0
N1063 N 0.83572 0.87379 0.09914 0.0
H1064 H 0.14781 0.57767 0.72833 0.0
H1065 H 0.07113 0.64809 0.79402 0.0
H1066 H 0.0465 0.58101 0.7964 0.0
H1067 H 0.19198 0.643 0.73634 0.0
H1068 H 0.05954 0.62367 0.79479 0.0
H1069 H 0.16283 0.60178 0.73059 0.0
C1070 C 0.12887 0.58347 0.74385 0.0
C1071 C 0.09576 0.57732 0.76216 0.0
C1072 C 0.08871 0.62793 0.78207 0.0
C1073 C 0.11252 0.60499 0.76476 0.0
C1074 C 0.09525 0.64185 0.78158 0.0
C1075 C 0.13247 0.6476 0.76503 0.0
C1076 C 0.11937 0.61975 0.76576 0.0
C1077 C 0.16276 0.63904 0.74938 0.0
C1078 C 0.1375 0.59725 0.74515 0.0
C1079 C 0.07238 0.58534 0.78189 0.0
N1080 N 0.15539 0.62557 0.75005 0.0
N1081 N 0.08095 0.5988 0.78256 0.0
H1082 H 0.03502 0.66213 0.45323 0.0
H1083 H 0.19574 0.60148 0.51471 0.0
H1084 H 0.13205 0.66577 0.52312 0.0
H1085 H 0.07599 0.59577 0.45648 0.0
H1086 H 0.17875 0.6255 0.51458 0.0
H1087 H 0.05561 0.63824 0.4507 0.0
C1088 C 0.06087 0.65793 0.46795 0.0
C1089 C 0.08175 0.66595 0.48849 0.0
C1090 C 0.15618 0.61901 0.5018 0.0
C1091 C 0.10539 0.63865 0.48567 0.0
C1092 C 0.16591 0.60528 0.50181 0.0
C1093 C 0.13709 0.59659 0.48564 0.0
C1094 C 0.1175 0.62414 0.4854 0.0
C1095 C 0.09898 0.6021 0.46934 0.0
C1096 C 0.07243 0.64428 0.46654 0.0
C1097 C 0.11492 0.65996 0.50702 0.0
N1098 N 0.09026 0.61555 0.46963 0.0
N1099 N 0.1257 0.64668 0.50517 0.0
H1100 H 0.88711 0.35813 0.13634 0.0
H1101 H 0.73905 0.41269 0.22221 0.0
H1102 H 0.78429 0.34783 0.20081 0.0
H1103 H 0.82008 0.42178 0.14868 0.0
H1104 H 0.74816 0.38878 0.21242 0.0
H1105 H 0.85784 0.38131 0.13862 0.0
C1106 C 0.85818 0.36073 0.1509 0.0
C1107 C 0.83852 0.35105 0.16862 0.0
C1108 C 0.76321 0.39601 0.1982 0.0
C1109 C 0.80485 0.37763 0.17139 0.0
C1110 C 0.75788 0.40968 0.20373 0.0
C1111 C 0.77954 0.41927 0.18647 0.0
C1112 C 0.79084 0.39191 0.17539 0.0
C1113 C 0.80321 0.41476 0.16273 0.0
C1114 C 0.84128 0.37397 0.15211 0.0
C1115 C 0.80072 0.35498 0.18687 0.0
N1116 N 0.80896 0.40141 0.15813 0.0
N1117 N 0.78552 0.368 0.188 0.0
H1118 H 0.93926 0.33006 0.39694 0.0
H1119 H 0.87671 0.38708 0.50616 0.0
H1120 H 0.94504 0.32312 0.48315 0.0
H1121 H 0.88762 0.39394 0.42007 0.0
H1122 H 0.89928 0.36351 0.49866 0.0
H1123 H 0.91652 0.35335 0.40549 0.0
C1124 C 0.93553 0.33341 0.4177 0.0
C1125 C 0.94417 0.32462 0.43935 0.0
C1126 C 0.89683 0.37021 0.48146 0.0
C1127 C 0.91829 0.35137 0.44933 0.0
C1128 C 0.88404 0.38366 0.48573 0.0
C1129 C 0.88018 0.3925 0.46371 0.0
C1130 C 0.90558 0.36559 0.45499 0.0
C1131 C 0.89006 0.38751 0.43767 0.0
C1132 C 0.92269 0.34675 0.42258 0.0
C1133 C 0.93877 0.32956 0.46583 0.0
N1134 N 0.90212 0.37441 0.43406 0.0
N1135 N 0.92621 0.34263 0.47009 0.0
H1136 H 0.60368 0.09655 0.81837 0.0
H1137 H 0.5431 0.15956 0.72489 0.0
H1138 H 0.47575 0.09853 0.7643 0.0
H1139 H 0.6514 0.16091 0.79018 0.0
H1140 H 0.51648 0.13737 0.74008 0.0
H1141 H 0.62026 0.12032 0.80973 0.0
C1142 C 0.57875 0.10201 0.80492 0.0
C1143 C 0.53855 0.09551 0.79184 0.0
C1144 C 0.54578 0.14256 0.75125 0.0
C1145 C 0.55759 0.12264 0.78167 0.0
C1146 C 0.56109 0.15522 0.74253 0.0
C1147 C 0.5998 0.16205 0.75616 0.0
C1148 C 0.56973 0.13659 0.77358 0.0
C1149 C 0.62152 0.15598 0.77901 0.0
C1150 C 0.58824 0.11558 0.8 0.0
C1151 C 0.50738 0.1031 0.7747 0.0
N1152 N 0.60654 0.14353 0.78685 0.0
N1153 N 0.51788 0.11621 0.7699 0.0
H1154 H 0.46916 0.14628 0.48971 0.0
H1155 H 0.65185 0.08403 0.46078 0.0
H1156 H 0.59642 0.1481 0.43529 0.0
H1157 H 0.5458 0.08563 0.52701 0.0
H1158 H 0.62281 0.10612 0.44595 0.0
H1159 H 0.48745 0.12264 0.49801 0.0
C1160 C 0.50065 0.14168 0.47927 0.0
C1161 C 0.53165 0.14922 0.46199 0.0
C1162 C 0.6057 0.10159 0.46362 0.0
C1163 C 0.55286 0.12216 0.47151 0.0
C1164 C 0.62216 0.08897 0.47208 0.0
C1165 C 0.60153 0.08303 0.49534 0.0
C1166 C 0.56814 0.10828 0.47842 0.0
C1167 C 0.56308 0.08988 0.50912 0.0
C1168 C 0.51115 0.12819 0.4841 0.0
C1169 C 0.57177 0.14269 0.44893 0.0
N1170 N 0.54778 0.10217 0.50051 0.0
N1171 N 0.58143 0.12955 0.4541 0.0
H1172 H 0.3943 0.93065 0.21659 0.0
H1173 H 0.45626 0.85415 0.25021 0.0
H1174 H 0.53047 0.91729 0.25638 0.0
H1175 H 0.33326 0.86576 0.19785 0.0
H1176 H 0.48371 0.87742 0.25207 0.0
H1177 H 0.37119 0.90716 0.20852 0.0
C1178 C 0.41952 0.9228 0.22342 0.0
C1179 C 0.46419 0.92594 0.23739 0.0
C1180 C 0.45086 0.87491 0.24002 0.0
C1181 C 0.43785 0.89912 0.22839 0.0
C1182 C 0.43502 0.86161 0.23903 0.0
C1183 C 0.3922 0.85802 0.22397 0.0
C1184 C 0.42344 0.88479 0.22609 0.0
C1185 C 0.36645 0.86811 0.20973 0.0
C1186 C 0.40631 0.90941 0.2188 0.0
C1187 C 0.49551 0.91537 0.2457 0.0
N1188 N 0.38225 0.88108 0.21131 0.0
N1189 N 0.48155 0.90246 0.24126 0.0
H1190 H 0.21994 0.89412 0.48791 0.0
H1191 H 0.4114 0.83764 0.53968 0.0
H1192 H 0.33003 0.90017 0.55126 0.0
H1193 H 0.31097 0.83223 0.47165 0.0
H1194 H 0.37437 0.85967 0.54768 0.0
H1195 H 0.24536 0.87057 0.48509 0.0
C1196 C 0.24915 0.89048 0.50137 0.0
C1197 C 0.27323 0.89916 0.51967 0.0
C1198 C 0.36018 0.85364 0.5311 0.0
C1199 C 0.30251 0.87226 0.51653 0.0
C1200 C 0.38129 0.84104 0.52652 0.0
C1201 C 0.36462 0.83313 0.50478 0.0
C1202 C 0.32215 0.85841 0.51378 0.0
C1203 C 0.32523 0.83803 0.48854 0.0
C1204 C 0.26369 0.87704 0.49973 0.0
C1205 C 0.31071 0.89387 0.53669 0.0
N1206 N 0.30557 0.85041 0.49324 0.0
N1207 N 0.32437 0.88079 0.53459 0.0
H1208 H 0.69918 0.68362 0.27209 0.0
H1209 H 0.53144 0.61798 0.24849 0.0
H1210 H 0.61546 0.67575 0.19877 0.0
H1211 H 0.65261 0.61969 0.30691 0.0
H1212 H 0.55003 0.64105 0.23539 0.0
H1213 H 0.67069 0.66202 0.29017 0.0
C1214 C 0.67439 0.67742 0.25992 0.0
C1215 C 0.65991 0.68143 0.2338 0.0
C1216 C 0.57234 0.6364 0.25119 0.0
C1217 C 0.62716 0.65682 0.25441 0.0
C1218 C 0.56167 0.62324 0.25878 0.0
C1219 C 0.59083 0.61685 0.27868 0.0
C1220 C 0.6122 0.64329 0.26374 0.0
C1221 C 0.62943 0.6242 0.29133 0.0
C1222 C 0.65837 0.66509 0.27021 0.0
C1223 C 0.62786 0.673 0.2189 0.0
N1224 N 0.63914 0.63704 0.28357 0.0
N1225 N 0.6126 0.66108 0.22941 0.0
H1226 H 0.52965 0.63164 0.99764 0.0
H1227 H 0.69799 0.56608 0.97457 0.0
H1228 H 0.65095 0.62999 0.93941 0.0
H1229 H 0.61313 0.57389 0.04744 0.0
H1230 H 0.66965 0.58768 0.95636 0.0
H1231 H 0.54827 0.60858 0.01074 0.0
C1232 C 0.55992 0.62639 0.9874 0.0
C1233 C 0.58911 0.6328 0.96755 0.0
C1234 C 0.65706 0.5846 0.97625 0.0
C1235 C 0.61054 0.60637 0.98251 0.0
C1236 C 0.67301 0.57227 0.98662 0.0
C1237 C 0.65814 0.56824 0.01265 0.0
C1238 C 0.62555 0.59284 0.9919 0.0
C1239 C 0.62584 0.57666 0.02739 0.0
C1240 C 0.57061 0.61323 0.99498 0.0
C1241 C 0.62774 0.62546 0.95495 0.0
N1242 N 0.61066 0.58856 0.01681 0.0
N1243 N 0.63749 0.61263 0.96272 0.0
H1244 H 0.33781 0.41329 0.78428 0.0
H1245 H 0.33121 0.34509 0.69907 0.0
H1246 H 0.43073 0.40569 0.71417 0.0
H1247 H 0.23707 0.35243 0.76882 0.0
H1248 H 0.36317 0.36797 0.7023 0.0
H1249 H 0.29584 0.39174 0.77708 0.0
C1250 C 0.34921 0.40713 0.76729 0.0
C1251 C 0.38811 0.41125 0.74992 0.0
C1252 C 0.33528 0.36462 0.71681 0.0
C1253 C 0.34032 0.38658 0.7416 0.0
C1254 C 0.31697 0.35154 0.71497 0.0
C1255 C 0.28169 0.3468 0.73385 0.0
C1256 C 0.31841 0.37303 0.73775 0.0
C1257 C 0.26442 0.35565 0.75391 0.0
C1258 C 0.32522 0.39482 0.76318 0.0
C1259 C 0.40116 0.40288 0.72817 0.0
N1260 N 0.28324 0.36831 0.75546 0.0
N1261 N 0.37751 0.39092 0.72473 0.0
H1262 H 0.32641 0.38359 0.04902 0.0
H1263 H 0.53337 0.32987 0.00245 0.0
H1264 H 0.45983 0.39296 0.00262 0.0
H1265 H 0.38606 0.31836 0.03173 0.0
H1266 H 0.51158 0.35331 0.00962 0.0
H1267 H 0.35194 0.35989 0.04943 0.0
C1268 C 0.36116 0.38068 0.03909 0.0
C1269 C 0.39086 0.39023 0.02557 0.0
C1270 C 0.48403 0.34567 0.01461 0.0
C1271 C 0.42029 0.36329 0.02613 0.0
C1272 C 0.49649 0.33226 0.01057 0.0
C1273 C 0.46126 0.32213 0.01619 0.0
C1274 C 0.43593 0.34905 0.02435 0.0
C1275 C 0.41424 0.32586 0.02695 0.0
C1276 C 0.37561 0.36718 0.03929 0.0
C1277 C 0.43551 0.38594 0.01306 0.0
N1278 N 0.40275 0.33906 0.03051 0.0
N1279 N 0.44878 0.37281 0.01363 0.0
H1280 H 0.01195 0.05392 0.36997 0.0
H1281 H 0.73006 0.03232 0.40725 0.0
H1282 H 0.89677 0.04526 0.31057 0.0
H1283 H 0.83996 0.04543 0.46621 0.0
H1284 H 0.79444 0.03375 0.37213 0.0
H1285 H 0.95311 0.04769 0.40578 0.0
C1286 C 0.97438 0.05062 0.36442 0.0
C1287 C 0.95905 0.05026 0.33723 0.0
C1288 C 0.8046 0.03621 0.39278 0.0
C1289 C 0.8915 0.04313 0.37818 0.0
C1290 C 0.76788 0.03538 0.41288 0.0
C1291 C 0.77949 0.03892 0.43967 0.0
C1292 C 0.85333 0.04064 0.39948 0.0
C1293 C 0.82923 0.04271 0.44579 0.0
C1294 C 0.9408 0.04707 0.38491 0.0
C1295 C 0.91005 0.0458 0.33127 0.0
N1296 N 0.86424 0.04358 0.42578 0.0
N1297 N 0.87789 0.0425 0.35161 0.0
H1298 H 0.16668 0.2154 0.37474 0.0
H1299 H 0.45797 0.19622 0.35609 0.0
H1300 H 0.2353 0.20644 0.29758 0.0
H1301 H 0.38979 0.20443 0.43369 0.0
H1302 H 0.37753 0.20108 0.33417 0.0
H1303 H 0.24886 0.2126 0.39651 0.0
C1304 C 0.19905 0.2129 0.36235 0.0
C1305 C 0.19403 0.21109 0.3343 0.0
C1306 C 0.38015 0.20187 0.35598 0.0
C1307 C 0.2882 0.20784 0.35912 0.0
C1308 C 0.42612 0.19909 0.36854 0.0
C1309 C 0.4306 0.19986 0.39679 0.0
C1310 C 0.33818 0.20543 0.37177 0.0
C1311 C 0.38803 0.20368 0.41185 0.0
C1312 C 0.24597 0.21129 0.37481 0.0
C1313 C 0.23733 0.20789 0.31927 0.0
N1314 N 0.34354 0.20627 0.39916 0.0
N1315 N 0.28252 0.20633 0.33189 0.0
H1316 H 0.7314 0.21312 0.84451 0.0
H1317 H 0.01655 0.19164 0.87448 0.0
H1318 H 0.83673 0.20087 0.7826 0.0
H1319 H 0.90574 0.19912 0.93672 0.0
H1320 H 0.95487 0.1983 0.84033 0.0
H1321 H 0.79867 0.21146 0.87809 0.0
C1322 C 0.76881 0.21021 0.83791 0.0
C1323 C 0.7783 0.20696 0.81074 0.0
C1324 C 0.94416 0.19857 0.86147 0.0
C1325 C 0.85542 0.20498 0.84915 0.0
C1326 C 0.97937 0.19478 0.881 0.0
C1327 C 0.96608 0.19468 0.90849 0.0
C1328 C 0.8953 0.2023 0.86946 0.0
C1329 C 0.91747 0.19894 0.91574 0.0
C1330 C 0.80718 0.20925 0.85712 0.0
C1331 C 0.8276 0.20336 0.80335 0.0
N1332 N 0.88371 0.20249 0.89632 0.0
N1333 N 0.86424 0.20235 0.82251 0.0
H1334 H 0.16901 0.02952 0.87114 0.0
H1335 H 0.46105 0.04661 0.89452 0.0
H1336 H 0.23582 0.03612 0.94978 0.0
H1337 H 0.39463 0.04077 0.81555 0.0
H1338 H 0.37964 0.04158 0.91516 0.0
H1339 H 0.25208 0.03236 0.8505 0.0
C1340 C 0.20116 0.0315 0.8841 0.0
C1341 C 0.19537 0.03265 0.91224 0.0
C1342 C 0.38285 0.04135 0.89331 0.0
C1343 C 0.29059 0.03595 0.88871 0.0
C1344 C 0.42938 0.04422 0.88149 0.0
C1345 C 0.43465 0.04417 0.85324 0.0
C1346 C 0.34112 0.03842 0.87679 0.0
C1347 C 0.39228 0.04097 0.83741 0.0
C1348 C 0.2486 0.03314 0.87228 0.0
C1349 C 0.23844 0.0352 0.928 0.0
N1350 N 0.34724 0.03827 0.84941 0.0
N1351 N 0.28415 0.03681 0.916 0.0
H1352 H 0.27468 0.94574 0.63802 0.0
H1353 H 0.00365 0.96594 0.69576 0.0
H1354 H 0.14681 0.95498 0.5871 0.0
H1355 H 0.13254 0.9572 0.74629 0.0
H1356 H 0.05695 0.96369 0.65579 0.0
H1357 H 0.22457 0.95137 0.67772 0.0
C1358 C 0.23602 0.94898 0.63515 0.0
C1359 C 0.21479 0.94979 0.60916 0.0
C1360 C 0.0737 0.96237 0.67561 0.0
C1361 C 0.15708 0.95628 0.65472 0.0
C1362 C 0.04331 0.96367 0.69849 0.0
C1363 C 0.06359 0.96165 0.72444 0.0
C1364 C 0.12478 0.95895 0.67864 0.0
C1365 C 0.11527 0.9588 0.72669 0.0
C1366 C 0.20745 0.95223 0.65789 0.0
C1367 C 0.16463 0.95415 0.60675 0.0
N1368 N 0.14399 0.95743 0.70407 0.0
N1369 N 0.13738 0.95717 0.62927 0.0
H1370 H 0.71881 0.77561 0.68261 0.0
H1371 H 0.59109 0.81182 0.55528 0.0
H1372 H 0.71169 0.81863 0.67297 0.0
H1373 H 0.57075 0.7698 0.57356 0.0
H1374 H 0.64381 0.81408 0.59561 0.0
H1375 H 0.67142 0.77298 0.64048 0.0
C1376 C 0.70716 0.78451 0.67169 0.0
C1377 C 0.71913 0.79737 0.6814 0.0
C1378 C 0.62801 0.80436 0.59071 0.0
C1379 C 0.66532 0.79441 0.63298 0.0
C1380 C 0.59816 0.80303 0.56758 0.0
C1381 C 0.5762 0.79061 0.56108 0.0
C1382 C 0.63626 0.79317 0.60742 0.0
C1383 C 0.58669 0.77958 0.57784 0.0
C1384 C 0.68015 0.78299 0.64761 0.0
C1385 C 0.7031 0.80853 0.66634 0.0
N1386 N 0.61582 0.78113 0.60029 0.0
N1387 N 0.67716 0.80679 0.64285 0.0
H1388 H 0.15364 0.78819 0.209 0.0
H1389 H 0.00461 0.80071 0.07038 0.0
H1390 H 0.19484 0.81873 0.15113 0.0
H1391 H 0.94273 0.77797 0.13689 0.0
H1392 H 0.07969 0.80535 0.09763 0.0
H1393 H 0.0803 0.78256 0.18106 0.0
C1394 C 0.14721 0.79374 0.19047 0.0
C1395 C 0.18039 0.80397 0.18243 0.0
C1396 C 0.04973 0.79931 0.10622 0.0
C1397 C 0.0969 0.79747 0.15023 0.0
C1398 C 0.00699 0.79658 0.09061 0.0
C1399 C 0.96722 0.78897 0.1014 0.0
C1400 C 0.05296 0.79431 0.13274 0.0
C1401 C 0.97238 0.78392 0.12779 0.0
C1402 C 0.10535 0.79052 0.17453 0.0
C1403 C 0.17018 0.81081 0.15819 0.0
N1404 N 0.01442 0.78669 0.14256 0.0
N1405 N 0.12948 0.8074 0.14291 0.0
H1406 H 0.85327 0.94798 0.1936 0.0
H1407 H 0.57928 0.97901 0.16899 0.0
H1408 H 0.7949 0.95864 0.11488 0.0
H1409 H 0.63513 0.96694 0.24739 0.0
H1410 H 0.66262 0.97476 0.14982 0.0
H1411 H 0.77857 0.95792 0.21443 0.0
C1412 C 0.82501 0.95253 0.18069 0.0
C1413 C 0.83006 0.95231 0.15241 0.0
C1414 C 0.65684 0.97318 0.17128 0.0
C1415 C 0.74425 0.96367 0.17617 0.0
C1416 C 0.60923 0.97563 0.18227 0.0
C1417 C 0.59999 0.97317 0.20979 0.0
C1418 C 0.69552 0.96816 0.18789 0.0
C1419 C 0.6404 0.96888 0.22603 0.0
C1420 C 0.78231 0.95821 0.19262 0.0
C1421 C 0.79239 0.95846 0.13675 0.0
N1422 N 0.68624 0.96637 0.21477 0.0
N1423 N 0.75086 0.96377 0.14882 0.0
H1424 H 0.03728 0.52874 0.87581 0.0
H1425 H 0.75724 0.51372 0.92767 0.0
H1426 H 0.90922 0.5233 0.82279 0.0
H1427 H 0.87951 0.52554 0.9804 0.0
H1428 H 0.81562 0.51364 0.88956 0.0
H1429 H 0.98296 0.5242 0.91464 0.0
C1430 C -0.0022 0.5265 0.8723 0.0
C1431 C 0.97762 0.52653 0.84602 0.0
C1432 C 0.82978 0.51615 0.90949 0.0
C1433 C 0.91531 0.52132 0.8904 0.0
C1434 C 0.7965 0.51616 0.93131 0.0
C1435 C 0.8134 0.5198 0.95723 0.0
C1436 C 0.8804 0.51978 0.91359 0.0
C1437 C 0.86477 0.52278 0.96073 0.0
C1438 C 0.96682 0.52392 0.8945 0.0
C1439 C 0.92628 0.52349 0.8427 0.0
N1440 N 0.8964 0.52281 0.93909 0.0
N1441 N 0.89683 0.52108 0.86466 0.0
H1442 H 0.29646 0.69251 0.78477 0.0
H1443 H 0.44291 0.6838 0.92549 0.0
H1444 H 0.22353 0.69138 0.86284 0.0
H1445 H 0.51766 0.68379 0.84786 0.0
H1446 H 0.36285 0.68808 0.90276 0.0
H1447 H 0.3785 0.69092 0.80739 0.0
C1448 C 0.2977 0.69204 0.80666 0.0
C1449 C 0.25304 0.692 0.82193 0.0
C1450 C 0.39674 0.68719 0.89066 0.0
C1451 C 0.34666 0.69012 0.8479 0.0
C1452 C 0.44254 0.68474 0.90365 0.0
C1453 C 0.48707 0.68336 0.88855 0.0
C1454 C 0.39527 0.68825 0.86233 0.0
C1455 C 0.48424 0.68473 0.8603 0.0
C1456 C 0.34453 0.6911 0.81955 0.0
C1457 C 0.25691 0.69136 0.85023 0.0
N1458 N 0.43906 0.68704 0.84809 0.0
N1459 N 0.30283 0.69039 0.86226 0.0
H1460 H 0.93428 0.70257 0.40421 0.0
H1461 H 0.81247 0.75255 0.29779 0.0
H1462 H 0.94657 0.74552 0.41389 0.0
H1463 H 0.8571 0.712 0.27834 0.0
H1464 H 0.85635 0.75051 0.34132 0.0
H1465 H 0.89789 0.70598 0.35949 0.0
C1466 C 0.92899 0.71274 0.39703 0.0
C1467 C 0.94351 0.72378 0.41285 0.0
C1468 C 0.85696 0.74215 0.32732 0.0
C1469 C 0.90198 0.72774 0.36146 0.0
C1470 C 0.83206 0.7433 0.30247 0.0
C1471 C 0.83075 0.73239 0.28447 0.0
C1472 C 0.87992 0.72994 0.3343 0.0
C1473 C 0.85688 0.72066 0.29158 0.0
C1474 C 0.90861 0.71467 0.37136 0.0
C1475 C 0.93594 0.73672 0.40234 0.0
N1476 N 0.87977 0.71969 0.31608 0.0
N1477 N 0.91543 0.73837 0.37729 0.0
H1478 H 0.52697 0.56204 0.39811 0.0
H1479 H 0.22706 0.55523 0.38401 0.0
H1480 H 0.44548 0.56639 0.32289 0.0
H1481 H 0.30564 0.55264 0.46043 0.0
H1482 H 0.30783 0.55765 0.36101 0.0
H1483 H 0.44732 0.55707 0.42105 0.0
C1484 C 0.49239 0.56191 0.3864 0.0
C1485 C 0.49287 0.56471 0.35856 0.0
C1486 C 0.30752 0.55649 0.3828 0.0
C1487 C 0.40171 0.55901 0.38466 0.0
C1488 C 0.26135 0.55509 0.39597 0.0
C1489 C 0.25955 0.55381 0.42422 0.0
C1490 C 0.35237 0.55666 0.39797 0.0
C1491 C 0.30526 0.55364 0.43862 0.0
C1492 C 0.44695 0.55907 0.39951 0.0
C1493 C 0.44694 0.56436 0.3444 0.0
N1494 N 0.34984 0.55513 0.42534 0.0
N1495 N 0.40327 0.56161 0.35762 0.0
H1496 H 0.92991 0.44494 0.10236 0.0
H1497 H 0.22393 0.46256 0.09985 0.0
H1498 H 0.00566 0.46552 0.16772 0.0
H1499 H 0.15728 0.43159 0.05017 0.0
H1500 H 0.14179 0.4664 0.12092 0.0
H1501 H 0.0107 0.44265 0.07903 0.0
C1502 C 0.96347 0.44907 0.11174 0.0
C1503 C 0.96106 0.45539 0.1371 0.0
C1504 C 0.14516 0.45878 0.10538 0.0
C1505 C 0.05359 0.45282 0.11041 0.0
C1506 C 0.19197 0.45661 0.09324 0.0
C1507 C 0.19753 0.44669 0.07328 0.0
C1508 C 0.10342 0.45109 0.09729 0.0
C1509 C 0.15477 0.43929 0.06558 0.0
C1510 C 0.00959 0.4477 0.09844 0.0
C1511 C 0.00583 0.46051 0.14827 0.0
N1512 N 0.10948 0.44166 0.07758 0.0
N1513 N 0.05029 0.45913 0.13483 0.0
H1514 H 0.79273 0.28906 0.13955 0.0
H1515 H 0.62916 0.28072 0.00447 0.0
H1516 H 0.84443 0.30089 0.06023 0.0
H1517 H 0.57394 0.27144 0.08449 0.0
H1518 H 0.71274 0.28493 0.02368 0.0
H1519 H 0.71704 0.27946 0.11891 0.0
C1520 C 0.78843 0.28952 0.11777 0.0
C1521 C 0.82471 0.29594 0.10163 0.0
C1522 C 0.68246 0.28183 0.037 0.0
C1523 C 0.738 0.28501 0.07787 0.0
C1524 C 0.63474 0.27938 0.02602 0.0
C1525 C 0.59429 0.27587 0.04294 0.0
C1526 C 0.6898 0.28079 0.06509 0.0
C1527 C 0.60385 0.27425 0.0707 0.0
C1528 C 0.74515 0.28405 0.10599 0.0
C1529 C 0.81725 0.29616 0.0735 0.0
N1530 N 0.65046 0.27685 0.08094 0.0
N1531 N 0.77454 0.29089 0.06255 0.0
H1532 H 0.13823 0.28471 0.50347 0.0
H1533 H 0.14032 0.29149 0.66524 0.0
H1534 H 0.00565 0.27988 0.55328 0.0
H1535 H 0.2695 0.29925 0.61438 0.0
H1536 H 0.09173 0.28536 0.62486 0.0
H1537 H 0.18871 0.28796 0.54441 0.0
C1538 C 0.11981 0.2842 0.52301 0.0
C1539 C 0.06757 0.28212 0.52492 0.0
C1540 C 0.13077 0.28837 0.62259 0.0
C1541 C 0.12502 0.28593 0.57187 0.0
C1542 C 0.15848 0.29188 0.64562 0.0
C1543 C 0.20895 0.29597 0.64318 0.0
C1544 C 0.15375 0.28893 0.59696 0.0
C1545 C 0.23062 0.29624 0.61725 0.0
C1546 C 0.14861 0.28611 0.54639 0.0
C1547 C 0.04575 0.28155 0.55081 0.0
N1548 N 0.2029 0.2928 0.59519 0.0
N1549 N 0.07451 0.28352 0.57324 0.0
H1550 H 0.52033 0.44317 0.64362 0.0
H1551 H 0.8097 0.43421 0.60097 0.0
H1552 H 0.64232 0.44211 0.70159 0.0
H1553 H 0.68512 0.43411 0.54457 0.0
H1554 H 0.74996 0.43753 0.63809 0.0
H1555 H 0.58112 0.44049 0.60718 0.0
C1556 C 0.56 0.44241 0.64872 0.0
C1557 C 0.57621 0.44283 0.67576 0.0
C1558 C 0.73573 0.43678 0.61759 0.0
C1559 C 0.64632 0.4397 0.6339 0.0
C1560 C 0.7698 0.43487 0.59637 0.0
C1561 C 0.75239 0.43387 0.56959 0.0
C1562 C 0.68389 0.43772 0.61199 0.0
C1563 C 0.70029 0.43481 0.56487 0.0
C1564 C 0.59476 0.44086 0.62783 0.0
C1565 C 0.62816 0.44183 0.68104 0.0
N1566 N 0.66795 0.43669 0.58584 0.0
N1567 N 0.66141 0.44028 0.66028 0.0
loop_
_geom_bond_atom_site_label_1
_geom_bond_atom_site_label_2
_geom_bond_distance
_geom_bond_site_symmetry_2
_ccdc_geom_bond_type
C0 O1 1.160 . S
C0 O7 1.185 . S
O1 C0 1.160 . S
O2 Zn3 1.899 . S
O2 C10 1.284 . S
Zn3 O2 1.899 . S
Zn3 O4 2.032 . S
Zn3 O7 2.086 . S
Zn3 O12 1.977 . S
O4 Zn3 2.032 . S
O4 C8 1.278 . S
C5 O6 1.203 . S
C5 O12 1.267 . S
O6 C5 1.203 . S
O7 C0 1.185 . S
O7 Zn3 2.086 . S
C8 O4 1.278 . S
C8 O9 1.211 . S
O9 C8 1.211 . S
C10 O2 1.284 . S
C10 O11 1.273 . S
O11 C10 1.273 . S
O12 Zn3 1.977 . S
O12 C5 1.267 . S
C13 O14 1.160 . S
C13 O20 1.185 . S
O14 C13 1.160 . S
O15 Zn16 1.899 . S
O15 C23 1.284 . S
Zn16 O15 1.899 . S
Zn16 O17 2.032 . S
Zn16 O20 2.086 . S
Zn16 O25 1.977 . S
O17 Zn16 2.032 . S
O17 C21 1.278 . S
C18 O19 1.203 . S
C18 O25 1.267 . S
O19 C18 1.203 . S
O20 C13 1.185 . S
O20 Zn16 2.086 . S
C21 O17 1.278 . S
C21 O22 1.211 . S
O22 C21 1.211 . S
C23 O15 1.284 . S
C23 O24 1.273 . S
O24 C23 1.273 . S
O25 Zn16 1.977 . S
O25 C18 1.267 . S
C26 O27 1.160 . S
C26 O33 1.185 . S
O27 C26 1.160 . S
O28 Zn29 1.899 . S
O28 C36 1.284 . S
Zn29 O28 1.899 . S
Zn29 O30 2.032 . S
Zn29 O33 2.086 . S
Zn29 O38 1.977 1_556 S
O30 Zn29 2.032 . S
O30 C34 1.278 . S
C31 O32 1.203 . S
C31 O38 1.267 . S
O32 C31 1.203 . S
O33 C26 1.185 . S
O33 Zn29 2.086 . S
C34 O30 1.278 . S
C34 O35 1.211 1_556 S
O35 C34 1.211 1_554 S
C36 O28 1.284 . S
C36 O37 1.273 . S
O37 C36 1.273 . S
O38 Zn29 1.977 1_554 S
O38 C31 1.267 . S
C39 O40 1.160 . S
C39 O46 1.185 . S
O40 C39 1.160 . S
O41 Zn42 1.899 . S
O41 C49 1.284 . S
Zn42 O41 1.899 . S
Zn42 O43 2.032 . S
Zn42 O46 2.086 . S
Zn42 O51 1.977 1_556 S
O43 Zn42 2.032 . S
O43 C47 1.278 . S
C44 O45 1.203 . S
C44 O51 1.267 . S
O45 C44 1.203 . S
O46 C39 1.185 . S
O46 Zn42 2.086 . S
C47 O43 1.278 . S
C47 O48 1.211 1_556 S
O48 C47 1.211 1_554 S
C49 O41 1.284 . S
C49 O50 1.273 . S
O50 C49 1.273 . S
O51 Zn42 1.977 1_554 S
O51 C44 1.267 . S
C52 O53 1.160 . S
C52 O59 1.185 . S
O53 C52 1.160 . S
O54 Zn55 1.899 . S
O54 C62 1.284 . S
Zn55 O54 1.899 . S
Zn55 O56 2.032 . S
Zn55 O59 2.086 . S
Zn55 O64 1.977 . S
O56 Zn55 2.032 . S
O56 C60 1.278 . S
C57 O58 1.203 . S
C57 O64 1.267 . S
O58 C57 1.203 . S
O59 C52 1.185 . S
O59 Zn55 2.086 . S
C60 O56 1.278 . S
C60 O61 1.211 . S
O61 C60 1.211 . S
C62 O54 1.284 . S
C62 O63 1.273 . S
O63 C62 1.273 . S
O64 Zn55 1.977 . S
O64 C57 1.267 . S
C65 O66 1.160 . S
C65 O72 1.185 . S
O66 C65 1.160 . S
O67 Zn68 1.899 . S
O67 C75 1.284 . S
Zn68 O67 1.899 . S
Zn68 O69 2.032 . S
Zn68 O72 2.086 . S
Zn68 O77 1.977 . S
O69 Zn68 2.032 . S
O69 C73 1.278 . S
C70 O71 1.203 . S
C70 O77 1.267 . S
O71 C70 1.203 . S
O72 C65 1.185 . S
O72 Zn68 2.086 . S
C73 O69 1.278 . S
C73 O74 1.211 . S
O74 C73 1.211 . S
C75 O67 1.284 . S
C75 O76 1.273 . S
O76 C75 1.273 . S
O77 Zn68 1.977 . S
O77 C70 1.267 . S
C78 O79 1.160 . S
C78 O85 1.185 . S
O79 C78 1.160 . S
O80 Zn81 1.899 . S
O80 C88 1.284 . S
Zn81 O80 1.899 . S
Zn81 O82 2.032 . S
Zn81 O85 2.086 . S
Zn81 O90 1.977 1_554 S
O82 Zn81 2.032 . S
O82 C86 1.278 . S
C83 O84 1.203 . S
C83 O90 1.267 . S
O84 C83 1.203 . S
O85 C78 1.185 . S
O85 Zn81 2.086 . S
C86 O82 1.278 . S
C86 O87 1.211 1_554 S
O87 C86 1.211 1_556 S
C88 O80 1.284 . S
C88 O89 1.273 . S
O89 C88 1.273 . S
O90 Zn81 1.977 1_556 S
O90 C83 1.267 . S
C91 O92 1.160 . S
C91 O98 1.185 . S
O92 C91 1.160 . S
O93 Zn94 1.899 . S
O93 C101 1.284 . S
Zn94 O93 1.899 . S
Zn94 O95 2.032 . S
Zn94 O98 2.086 . S
Zn94 O103 1.977 1_554 S
O95 Zn94 2.032 . S
O95 C99 1.278 . S
C96 O97 1.203 . S
C96 O103 1.267 . S
O97 C96 1.203 . S
O98 C91 1.185 . S
O98 Zn94 2.086 . S
C99 O95 1.278 . S
C99 O100 1.211 1_554 S
O100 C99 1.211 1_556 S
C101 O93 1.284 . S
C101 O102 1.273 . S
O102 C101 1.273 . S
O103 Zn94 1.977 1_556 S
O103 C96 1.267 . S
C104 O105 1.160 . S
C104 O111 1.185 . S
O105 C104 1.160 . S
O106 Zn107 1.899 . S
O106 C114 1.284 . S
Zn107 O106 1.899 . S
Zn107 O108 2.032 . S
Zn107 O111 2.086 . S
Zn107 O116 1.977 . S
O108 Zn107 2.032 . S
O108 C112 1.278 . S
C109 O110 1.203 . S
C109 O116 1.267 . S
O110 C109 1.203 . S
O111 C104 1.185 . S
O111 Zn107 2.086 . S
C112 O108 1.278 . S
C112 O113 1.211 . S
O113 C112 1.211 . S
C114 O106 1.284 . S
C114 O115 1.273 . S
O115 C114 1.273 . S
O116 Zn107 1.977 . S
O116 C109 1.267 . S
C117 O118 1.160 . S
C117 O124 1.185 . S
O118 C117 1.160 . S
O119 Zn120 1.899 . S
O119 C127 1.284 . S
Zn120 O119 1.899 . S
Zn120 O121 2.032 . S
Zn120 O124 2.086 . S
Zn120 O129 1.977 . S
O121 Zn120 2.032 . S
O121 C125 1.278 . S
C122 O123 1.203 . S
C122 O129 1.267 . S
O123 C122 1.203 . S
O124 C117 1.185 . S
O124 Zn120 2.086 . S
C125 O121 1.278 . S
C125 O126 1.211 . S
O126 C125 1.211 . S
C127 O119 1.284 . S
C127 O128 1.273 . S
O128 C127 1.273 . S
O129 Zn120 1.977 . S
O129 C122 1.267 . S
C130 O131 1.160 . S
C130 O137 1.185 . S
O131 C130 1.160 . S
O132 Zn133 1.899 . S
O132 C140 1.284 . S
Zn133 O132 1.899 . S
Zn133 O134 2.032 . S
Zn133 O137 2.086 . S
Zn133 O142 1.977 . S
O134 Zn133 2.032 . S
O134 C138 1.278 . S
C135 O136 1.203 . S
C135 O142 1.267 . S
O136 C135 1.203 . S
O137 C130 1.185 . S
O137 Zn133 2.086 . S
C138 O134 1.278 . S
C138 O139 1.211 . S
O139 C138 1.211 . S
C140 O132 1.284 . S
C140 O141 1.273 . S
O141 C140 1.273 . S
O142 Zn133 1.977 . S
O142 C135 1.267 . S
C143 O144 1.160 . S
C143 O150 1.185 . S
O144 C143 1.160 . S
O145 Zn146 1.899 . S
O145 C153 1.284 . S
Zn146 O145 1.899 . S
Zn146 O147 2.032 . S
Zn146 O150 2.086 . S
Zn146 O155 1.977 . S
O147 Zn146 2.032 . S
O147 C151 1.278 . S
C148 O149 1.203 . S
C148 O155 1.267 . S
O149 C148 1.203 . S
O150 C143 1.185 . S
O150 Zn146 2.086 . S
C151 O147 1.278 . S
C151 O152 1.211 . S
O152 C151 1.211 . S
C153 O145 1.284 . S
C153 O154 1.273 . S
O154 C153 1.273 . S
O155 Zn146 1.977 . S
O155 C148 1.267 . S
C156 O157 1.160 . S
C156 O163 1.185 . S
O157 C156 1.160 . S
O158 Zn159 1.899 . S
O158 C166 1.284 . S
Zn159 O158 1.899 . S
Zn159 O160 2.032 . S
Zn159 O163 2.086 . S
Zn159 O168 1.977 . S
O160 Zn159 2.032 . S
O160 C164 1.278 . S
C161 O162 1.203 . S
C161 O168 1.267 . S
O162 C161 1.203 . S
O163 C156 1.185 . S
O163 Zn159 2.086 . S
C164 O160 1.278 . S
C164 O165 1.211 . S
O165 C164 1.211 . S
C166 O158 1.284 . S
C166 O167 1.273 . S
O167 C166 1.273 . S
O168 Zn159 1.977 . S
O168 C161 1.267 . S
C169 O170 1.160 . S
C169 O176 1.185 . S
O170 C169 1.160 . S
O171 Zn172 1.899 . S
O171 C179 1.284 . S
Zn172 O171 1.899 . S
Zn172 O173 2.032 . S
Zn172 O176 2.086 . S
Zn172 O181 1.977 . S
O173 Zn172 2.032 . S
O173 C177 1.278 . S
C174 O175 1.203 . S
C174 O181 1.267 . S
O175 C174 1.203 . S
O176 C169 1.185 . S
O176 Zn172 2.086 . S
C177 O173 1.278 . S
C177 O178 1.211 . S
O178 C177 1.211 . S
C179 O171 1.284 . S
C179 O180 1.273 . S
O180 C179 1.273 . S
O181 Zn172 1.977 . S
O181 C174 1.267 . S
C182 O183 1.160 . S
C182 O189 1.185 . S
O183 C182 1.160 . S
O184 Zn185 1.899 . S
O184 C192 1.284 . S
Zn185 O184 1.899 . S
Zn185 O186 2.032 . S
Zn185 O189 2.086 . S
Zn185 O194 1.977 . S
O186 Zn185 2.032 . S
O186 C190 1.278 . S
C187 O188 1.203 . S
C187 O194 1.267 . S
O188 C187 1.203 . S
O189 C182 1.185 . S
O189 Zn185 2.086 . S
C190 O186 1.278 . S
C190 O191 1.211 . S
O191 C190 1.211 . S
C192 O184 1.284 . S
C192 O193 1.273 . S
O193 C192 1.273 . S
O194 Zn185 1.977 . S
O194 C187 1.267 . S
C195 O196 1.160 . S
C195 O202 1.185 . S
O196 C195 1.160 . S
O197 Zn198 1.899 . S
O197 C205 1.284 . S
Zn198 O197 1.899 . S
Zn198 O199 2.032 . S
Zn198 O202 2.086 . S
Zn198 O207 1.977 . S
O199 Zn198 2.032 . S
O199 C203 1.278 . S
C200 O201 1.203 . S
C200 O207 1.267 . S
O201 C200 1.203 . S
O202 C195 1.185 . S
O202 Zn198 2.086 . S
C203 O199 1.278 . S
C203 O204 1.211 . S
O204 C203 1.211 . S
C205 O197 1.284 . S
C205 O206 1.273 . S
O206 C205 1.273 . S
O207 Zn198 1.977 . S
O207 C200 1.267 . S
C208 O209 1.160 . S
C208 O215 1.185 . S
O209 C208 1.160 . S
O210 Zn211 1.899 . S
O210 C218 1.284 . S
Zn211 O210 1.899 . S
Zn211 O212 2.032 . S
Zn211 O215 2.086 . S
Zn211 O220 1.977 . S
O212 Zn211 2.032 . S
O212 C216 1.278 . S
C213 O214 1.203 . S
C213 O220 1.267 . S
O214 C213 1.203 . S
O215 C208 1.185 . S
O215 Zn211 2.086 . S
C216 O212 1.278 . S
C216 O217 1.211 . S
O217 C216 1.211 . S
C218 O210 1.284 . S
C218 O219 1.273 . S
O219 C218 1.273 . S
O220 Zn211 1.977 . S
O220 C213 1.267 . S
C221 O222 1.160 . S
C221 O228 1.185 . S
O222 C221 1.160 . S
O223 Zn224 1.899 . S
O223 C231 1.284 . S
Zn224 O223 1.899 . S
Zn224 O225 2.032 . S
Zn224 O228 2.086 . S
Zn224 O233 1.977 . S
O225 Zn224 2.032 . S
O225 C229 1.278 . S
C226 O227 1.203 . S
C226 O233 1.267 . S
O227 C226 1.203 . S
O228 C221 1.185 . S
O228 Zn224 2.086 . S
C229 O225 1.278 . S
C229 O230 1.211 . S
O230 C229 1.211 . S
C231 O223 1.284 . S
C231 O232 1.273 . S
O232 C231 1.273 . S
O233 Zn224 1.977 . S
O233 C226 1.267 . S
C234 O235 1.160 . S
C234 O241 1.185 . S
O235 C234 1.160 . S
O236 Zn237 1.899 . S
O236 C244 1.284 . S
Zn237 O236 1.899 . S
Zn237 O238 2.032 . S
Zn237 O241 2.086 . S
Zn237 O246 1.977 . S
O238 Zn237 2.032 . S
O238 C242 1.278 . S
C239 O240 1.203 . S
C239 O246 1.267 . S
O240 C239 1.203 . S
O241 C234 1.185 . S
O241 Zn237 2.086 . S
C242 O238 1.278 . S
C242 O243 1.211 . S
O243 C242 1.211 . S
C244 O236 1.284 . S
C244 O245 1.273 . S
O245 C244 1.273 . S
O246 Zn237 1.977 . S
O246 C239 1.267 . S
C247 O248 1.160 . S
C247 O254 1.185 . S
O248 C247 1.160 . S
O249 Zn250 1.899 . S
O249 C257 1.284 . S
Zn250 O249 1.899 . S
Zn250 O251 2.032 . S
Zn250 O254 2.086 . S
Zn250 O259 1.977 . S
O251 Zn250 2.032 . S
O251 C255 1.278 . S
C252 O253 1.203 . S
C252 O259 1.267 . S
O253 C252 1.203 . S
O254 C247 1.185 . S
O254 Zn250 2.086 . S
C255 O251 1.278 . S
C255 O256 1.211 . S
O256 C255 1.211 . S
C257 O249 1.284 . S
C257 O258 1.273 . S
O258 C257 1.273 . S
O259 Zn250 1.977 . S
O259 C252 1.267 . S
C260 O261 1.160 . S
C260 O267 1.185 . S
O261 C260 1.160 . S
O262 Zn263 1.899 . S
O262 C270 1.284 . S
Zn263 O262 1.899 . S
Zn263 O264 2.032 . S
Zn263 O267 2.086 . S
Zn263 O272 1.977 . S
O264 Zn263 2.032 . S
O264 C268 1.278 . S
C265 O266 1.203 . S
C265 O272 1.267 . S
O266 C265 1.203 . S
O267 C260 1.185 . S
O267 Zn263 2.086 . S
C268 O264 1.278 . S
C268 O269 1.211 . S
O269 C268 1.211 . S
C270 O262 1.284 . S
C270 O271 1.273 . S
O271 C270 1.273 . S
O272 Zn263 1.977 . S
O272 C265 1.267 . S
C273 O274 1.160 . S
C273 O280 1.185 . S
O274 C273 1.160 . S
O275 Zn276 1.899 . S
O275 C283 1.284 . S
Zn276 O275 1.899 . S
Zn276 O277 2.032 . S
Zn276 O280 2.086 . S
Zn276 O285 1.977 . S
O277 Zn276 2.032 . S
O277 C281 1.278 . S
C278 O279 1.203 . S
C278 O285 1.267 . S
O279 C278 1.203 . S
O280 C273 1.185 . S
O280 Zn276 2.086 . S
C281 O277 1.278 . S
C281 O282 1.211 . S
O282 C281 1.211 . S
C283 O275 1.284 . S
C283 O284 1.273 . S
O284 C283 1.273 . S
O285 Zn276 1.977 . S
O285 C278 1.267 . S
C286 O287 1.160 . S
C286 O293 1.185 . S
O287 C286 1.160 . S
O288 Zn289 1.899 . S
O288 C296 1.284 . S
Zn289 O288 1.899 . S
Zn289 O290 2.032 . S
Zn289 O293 2.086 . S
Zn289 O298 1.977 . S
O290 Zn289 2.032 . S
O290 C294 1.278 . S
C291 O292 1.203 . S
C291 O298 1.267 . S
O292 C291 1.203 . S
O293 C286 1.185 . S
O293 Zn289 2.086 . S
C294 O290 1.278 . S
C294 O295 1.211 . S
O295 C294 1.211 . S
C296 O288 1.284 . S
C296 O297 1.273 . S
O297 C296 1.273 . S
O298 Zn289 1.977 . S
O298 C291 1.267 . S
C299 O300 1.160 . S
C299 O306 1.185 . S
O300 C299 1.160 . S
O301 Zn302 1.899 . S
O301 C309 1.284 . S
Zn302 O301 1.899 . S
Zn302 O303 2.032 . S
Zn302 O306 2.086 . S
Zn302 O311 1.977 . S
O303 Zn302 2.032 . S
O303 C307 1.278 . S
C304 O305 1.203 . S
C304 O311 1.267 . S
O305 C304 1.203 . S
O306 C299 1.185 . S
O306 Zn302 2.086 . S
C307 O303 1.278 . S
C307 O308 1.211 . S
O308 C307 1.211 . S
C309 O301 1.284 . S
C309 O310 1.273 . S
O310 C309 1.273 . S
O311 Zn302 1.977 . S
O311 C304 1.267 . S
C312 O313 1.160 . S
C312 O319 1.185 . S
O313 C312 1.160 . S
O314 Zn315 1.899 . S
O314 C322 1.284 . S
Zn315 O314 1.899 . S
Zn315 O316 2.032 . S
Zn315 O319 2.086 . S
Zn315 O324 1.977 . S
O316 Zn315 2.032 . S
O316 C320 1.278 . S
C317 O318 1.203 . S
C317 O324 1.267 . S
O318 C317 1.203 . S
O319 C312 1.185 . S
O319 Zn315 2.086 . S
C320 O316 1.278 . S
C320 O321 1.211 . S
O321 C320 1.211 . S
C322 O314 1.284 . S
C322 O323 1.273 . S
O323 C322 1.273 . S
O324 Zn315 1.977 . S
O324 C317 1.267 . S
C325 O326 1.160 . S
C325 O332 1.185 . S
O326 C325 1.160 . S
O327 Zn328 1.899 . S
O327 C335 1.284 . S
Zn328 O327 1.899 . S
Zn328 O329 2.032 . S
Zn328 O332 2.086 . S
Zn328 O337 1.977 . S
O329 Zn328 2.032 . S
O329 C333 1.278 . S
C330 O331 1.203 . S
C330 O337 1.267 . S
O331 C330 1.203 . S
O332 C325 1.185 . S
O332 Zn328 2.086 . S
C333 O329 1.278 . S
C333 O334 1.211 . S
O334 C333 1.211 . S
C335 O327 1.284 . S
C335 O336 1.273 . S
O336 C335 1.273 . S
O337 Zn328 1.977 . S
O337 C330 1.267 . S
C338 O339 1.160 . S
C338 O345 1.185 . S
O339 C338 1.160 . S
O340 Zn341 1.899 . S
O340 C348 1.284 . S
Zn341 O340 1.899 . S
Zn341 O342 2.032 . S
Zn341 O345 2.086 . S
Zn341 O350 1.977 1_556 S
O342 Zn341 2.032 . S
O342 C346 1.278 . S
C343 O344 1.203 . S
C343 O350 1.267 . S
O344 C343 1.203 . S
O345 C338 1.185 . S
O345 Zn341 2.086 . S
C346 O342 1.278 . S
C346 O347 1.211 1_556 S
O347 C346 1.211 1_554 S
C348 O340 1.284 . S
C348 O349 1.273 . S
O349 C348 1.273 . S
O350 Zn341 1.977 1_554 S
O350 C343 1.267 . S
C351 O352 1.160 . S
C351 O358 1.185 . S
O352 C351 1.160 . S
O353 Zn354 1.899 . S
O353 C361 1.284 . S
Zn354 O353 1.899 . S
Zn354 O355 2.032 . S
Zn354 O358 2.086 . S
Zn354 O363 1.977 1_556 S
O355 Zn354 2.032 . S
O355 C359 1.278 . S
C356 O357 1.203 . S
C356 O363 1.267 . S
O357 C356 1.203 . S
O358 C351 1.185 . S
O358 Zn354 2.086 . S
C359 O355 1.278 . S
C359 O360 1.211 1_556 S
O360 C359 1.211 1_554 S
C361 O353 1.284 . S
C361 O362 1.273 . S
O362 C361 1.273 . S
O363 Zn354 1.977 1_554 S
O363 C356 1.267 . S
C364 O365 1.160 . S
C364 O371 1.185 . S
O365 C364 1.160 . S
O366 Zn367 1.899 . S
O366 C374 1.284 . S
Zn367 O366 1.899 . S
Zn367 O368 2.032 . S
Zn367 O371 2.086 . S
Zn367 O376 1.977 . S
O368 Zn367 2.032 . S
O368 C372 1.278 . S
C369 O370 1.203 . S
C369 O376 1.267 . S
O370 C369 1.203 . S
O371 C364 1.185 . S
O371 Zn367 2.086 . S
C372 O368 1.278 . S
C372 O373 1.211 . S
O373 C372 1.211 . S
C374 O366 1.284 . S
C374 O375 1.273 . S
O375 C374 1.273 . S
O376 Zn367 1.977 . S
O376 C369 1.267 . S
C377 O378 1.160 . S
C377 O384 1.185 . S
O378 C377 1.160 . S
O379 Zn380 1.899 . S
O379 C387 1.284 . S
Zn380 O379 1.899 . S
Zn380 O381 2.032 . S
Zn380 O384 2.086 . S
Zn380 O389 1.977 . S
O381 Zn380 2.032 . S
O381 C385 1.278 . S
C382 O383 1.203 . S
C382 O389 1.267 . S
O383 C382 1.203 . S
O384 C377 1.185 . S
O384 Zn380 2.086 . S
C385 O381 1.278 . S
C385 O386 1.211 . S
O386 C385 1.211 . S
C387 O379 1.284 . S
C387 O388 1.273 . S
O388 C387 1.273 . S
O389 Zn380 1.977 . S
O389 C382 1.267 . S
C390 O391 1.160 . S
C390 O397 1.185 . S
O391 C390 1.160 . S
O392 Zn393 1.899 . S
O392 C400 1.284 . S
Zn393 O392 1.899 . S
Zn393 O394 2.032 . S
Zn393 O397 2.086 . S
Zn393 O402 1.977 1_554 S
O394 Zn393 2.032 . S
O394 C398 1.278 . S
C395 O396 1.203 . S
C395 O402 1.267 . S
O396 C395 1.203 . S
O397 C390 1.185 . S
O397 Zn393 2.086 . S
C398 O394 1.278 . S
C398 O399 1.211 1_554 S
O399 C398 1.211 1_556 S
C400 O392 1.284 . S
C400 O401 1.273 . S
O401 C400 1.273 . S
O402 Zn393 1.977 1_556 S
O402 C395 1.267 . S
C403 O404 1.160 . S
C403 O410 1.185 . S
O404 C403 1.160 . S
O405 Zn406 1.899 . S
O405 C413 1.284 . S
Zn406 O405 1.899 . S
Zn406 O407 2.032 . S
Zn406 O410 2.086 . S
Zn406 O415 1.977 1_554 S
O407 Zn406 2.032 . S
O407 C411 1.278 . S
C408 O409 1.203 . S
C408 O415 1.267 . S
O409 C408 1.203 . S
O410 C403 1.185 . S
O410 Zn406 2.086 . S
C411 O407 1.278 . S
C411 O412 1.211 1_554 S
O412 C411 1.211 1_556 S
C413 O405 1.284 . S
C413 O414 1.273 . S
O414 C413 1.273 . S
O415 Zn406 1.977 1_556 S
O415 C408 1.267 . S
H416 C422 0.930 . S
H417 C426 0.930 . S
H418 C431 0.929 . S
H419 C429 0.929 . S
H420 C424 0.929 . S
H421 C430 0.929 . S
C422 H416 0.930 . S
C422 C423 1.367 . S
C422 C430 1.378 . S
C423 C422 1.367 . S
C423 C431 1.433 . S
C424 H420 0.929 . S
C424 C426 1.378 . S
C424 C428 1.350 . S
C425 C428 1.463 . S
C425 C430 1.350 . S
C425 N433 1.427 . S
C426 H417 0.930 . S
C426 C424 1.378 . S
C426 C427 1.367 . S
C427 C426 1.367 . S
C427 C429 1.433 . S
C428 C424 1.350 . S
C428 C425 1.463 . S
C428 N432 1.427 . S
C429 H419 0.929 . S
C429 C427 1.433 . S
C429 N432 1.384 . S
C430 H421 0.929 . S
C430 C422 1.378 . S
C430 C425 1.350 . S
C431 H418 0.929 . S
C431 C423 1.433 . S
C431 N433 1.384 . S
N432 C428 1.427 . S
N432 C429 1.384 . S
N433 C425 1.427 . S
N433 C431 1.384 . S
H434 C440 0.930 . S
H435 C444 0.930 . S
H436 C449 0.929 . S
H437 C447 0.929 . S
H438 C442 0.929 . S
H439 C448 0.929 . S
C440 H434 0.930 . S
C440 C441 1.367 . S
C440 C448 1.378 . S
C441 C440 1.367 . S
C441 C449 1.433 . S
C442 H438 0.929 . S
C442 C444 1.378 . S
C442 C446 1.350 . S
C443 C446 1.463 . S
C443 C448 1.350 . S
C443 N451 1.427 . S
C444 H435 0.930 . S
C444 C442 1.378 . S
C444 C445 1.367 . S
C445 C444 1.367 . S
C445 C447 1.433 . S
C446 C442 1.350 . S
C446 C443 1.463 . S
C446 N450 1.427 . S
C447 H437 0.929 . S
C447 C445 1.433 . S
C447 N450 1.384 . S
C448 H439 0.929 . S
C448 C440 1.378 . S
C448 C443 1.350 . S
C449 H436 0.929 . S
C449 C441 1.433 . S
C449 N451 1.384 . S
N450 C446 1.427 . S
N450 C447 1.384 . S
N451 C443 1.427 . S
N451 C449 1.384 . S
H452 C458 0.930 . S
H453 C462 0.930 . S
H454 C467 0.929 . S
H455 C465 0.929 . S
H456 C460 0.929 . S
H457 C466 0.929 . S
C458 H452 0.930 . S
C458 C459 1.367 . S
C458 C466 1.378 . S
C459 C458 1.367 . S
C459 C467 1.433 . S
C460 H456 0.929 . S
C460 C462 1.378 . S
C460 C464 1.350 . S
C461 C464 1.463 . S
C461 C466 1.350 . S
C461 N469 1.427 . S
C462 H453 0.930 . S
C462 C460 1.378 . S
C462 C463 1.367 . S
C463 C462 1.367 . S
C463 C465 1.433 . S
C464 C460 1.350 . S
C464 C461 1.463 . S
C464 N468 1.427 . S
C465 H455 0.929 . S
C465 C463 1.433 . S
C465 N468 1.384 . S
C466 H457 0.929 . S
C466 C458 1.378 . S
C466 C461 1.350 . S
C467 H454 0.929 . S
C467 C459 1.433 . S
C467 N469 1.384 . S
N468 C464 1.427 . S
N468 C465 1.384 . S
N469 C461 1.427 . S
N469 C467 1.384 . S
H470 C476 0.930 . S
H471 C480 0.930 . S
H472 C485 0.929 . S
H473 C483 0.929 . S
H474 C478 0.929 . S
H475 C484 0.929 . S
C476 H470 0.930 . S
C476 C477 1.367 . S
C476 C484 1.378 . S
C477 C476 1.367 . S
C477 C485 1.433 . S
C478 H474 0.929 . S
C478 C480 1.378 . S
C478 C482 1.350 . S
C479 C482 1.463 . S
C479 C484 1.350 . S
C479 N487 1.427 . S
C480 H471 0.930 . S
C480 C478 1.378 . S
C480 C481 1.367 . S
C481 C480 1.367 . S
C481 C483 1.433 . S
C482 C478 1.350 . S
C482 C479 1.463 . S
C482 N486 1.427 . S
C483 H473 0.929 . S
C483 C481 1.433 . S
C483 N486 1.384 . S
C484 H475 0.929 . S
C484 C476 1.378 . S
C484 C479 1.350 . S
C485 H472 0.929 . S
C485 C477 1.433 . S
C485 N487 1.384 . S
N486 C482 1.427 . S
N486 C483 1.384 . S
N487 C479 1.427 . S
N487 C485 1.384 . S
H488 C494 0.930 . S
H489 C498 0.930 . S
H490 C503 0.929 . S
H491 C501 0.929 . S
H492 C496 0.929 . S
H493 C502 0.929 . S
C494 H488 0.930 . S
C494 C495 1.367 . S
C494 C502 1.378 . S
C495 C494 1.367 . S
C495 C503 1.433 . S
C496 H492 0.929 . S
C496 C498 1.378 . S
C496 C500 1.350 . S
C497 C500 1.463 . S
C497 C502 1.350 . S
C497 N505 1.427 . S
C498 H489 0.930 . S
C498 C496 1.378 . S
C498 C499 1.367 . S
C499 C498 1.367 . S
C499 C501 1.433 . S
C500 C496 1.350 . S
C500 C497 1.463 . S
C500 N504 1.427 . S
C501 H491 0.929 . S
C501 C499 1.433 . S
C501 N504 1.384 . S
C502 H493 0.929 . S
C502 C494 1.378 . S
C502 C497 1.350 . S
C503 H490 0.929 . S
C503 C495 1.433 . S
C503 N505 1.384 . S
N504 C500 1.427 . S
N504 C501 1.384 . S
N505 C497 1.427 . S
N505 C503 1.384 . S
H506 C512 0.930 . S
H507 C516 0.930 . S
H508 C521 0.929 . S
H509 C519 0.929 . S
H510 C514 0.929 . S
H511 C520 0.929 . S
C512 H506 0.930 . S
C512 C513 1.367 . S
C512 C520 1.378 . S
C513 C512 1.367 . S
C513 C521 1.433 . S
C514 H510 0.929 . S
C514 C516 1.378 . S
C514 C518 1.350 . S
C515 C518 1.463 . S
C515 C520 1.350 . S
C515 N523 1.427 . S
C516 H507 0.930 . S
C516 C514 1.378 . S
C516 C517 1.367 . S
C517 C516 1.367 . S
C517 C519 1.433 . S
C518 C514 1.350 . S
C518 C515 1.463 . S
C518 N522 1.427 . S
C519 H509 0.929 . S
C519 C517 1.433 . S
C519 N522 1.384 . S
C520 H511 0.929 . S
C520 C512 1.378 . S
C520 C515 1.350 . S
C521 H508 0.929 . S
C521 C513 1.433 . S
C521 N523 1.384 . S
N522 C518 1.427 . S
N522 C519 1.384 . S
N523 C515 1.427 . S
N523 C521 1.384 . S
H524 C530 0.930 . S
H525 C534 0.930 . S
H526 C539 0.929 . S
H527 C537 0.929 . S
H528 C532 0.929 . S
H529 C538 0.929 . S
C530 H524 0.930 . S
C530 C531 1.367 . S
C530 C538 1.378 . S
C531 C530 1.367 . S
C531 C539 1.433 . S
C532 H528 0.929 . S
C532 C534 1.378 . S
C532 C536 1.350 . S
C533 C536 1.463 . S
C533 C538 1.350 . S
C533 N541 1.427 . S
C534 H525 0.930 . S
C534 C532 1.378 . S
C534 C535 1.367 . S
C535 C534 1.367 . S
C535 C537 1.433 . S
C536 C532 1.350 . S
C536 C533 1.463 . S
C536 N540 1.427 . S
C537 H527 0.929 . S
C537 C535 1.433 . S
C537 N540 1.384 . S
C538 H529 0.929 . S
C538 C530 1.378 . S
C538 C533 1.350 . S
C539 H526 0.929 . S
C539 C531 1.433 . S
C539 N541 1.384 . S
N540 C536 1.427 . S
N540 C537 1.384 . S
N541 C533 1.427 . S
N541 C539 1.384 . S
H542 C548 0.930 . S
H543 C552 0.930 . S
H544 C557 0.929 . S
H545 C555 0.929 . S
H546 C550 0.929 . S
H547 C556 0.929 . S
C548 H542 0.930 . S
C548 C549 1.367 . S
C548 C556 1.378 . S
C549 C548 1.367 . S
C549 C557 1.433 . S
C550 H546 0.929 . S
C550 C552 1.378 . S
C550 C554 1.350 . S
C551 C554 1.463 . S
C551 C556 1.350 . S
C551 N559 1.427 . S
C552 H543 0.930 . S
C552 C550 1.378 . S
C552 C553 1.367 . S
C553 C552 1.367 . S
C553 C555 1.433 . S
C554 C550 1.350 . S
C554 C551 1.463 . S
C554 N558 1.427 . S
C555 H545 0.929 . S
C555 C553 1.433 . S
C555 N558 1.384 . S
C556 H547 0.929 . S
C556 C548 1.378 . S
C556 C551 1.350 . S
C557 H544 0.929 . S
C557 C549 1.433 . S
C557 N559 1.384 . S
N558 C554 1.427 . S
N558 C555 1.384 . S
N559 C551 1.427 . S
N559 C557 1.384 . S
H560 C566 0.930 . S
H561 C570 0.930 . S
H562 C575 0.929 . S
H563 C573 0.929 . S
H564 C568 0.929 . S
H565 C574 0.929 . S
C566 H560 0.930 . S
C566 C567 1.367 . S
C566 C574 1.378 . S
C567 C566 1.367 . S
C567 C575 1.433 . S
C568 H564 0.929 . S
C568 C570 1.378 . S
C568 C572 1.350 . S
C569 C572 1.463 . S
C569 C574 1.350 . S
C569 N577 1.427 . S
C570 H561 0.930 . S
C570 C568 1.378 . S
C570 C571 1.367 . S
C571 C570 1.367 . S
C571 C573 1.433 . S
C572 C568 1.350 . S
C572 C569 1.463 . S
C572 N576 1.427 . S
C573 H563 0.929 . S
C573 C571 1.433 . S
C573 N576 1.384 . S
C574 H565 0.929 . S
C574 C566 1.378 . S
C574 C569 1.350 . S
C575 H562 0.929 . S
C575 C567 1.433 . S
C575 N577 1.384 . S
N576 C572 1.427 . S
N576 C573 1.384 . S
N577 C569 1.427 . S
N577 C575 1.384 . S
H578 C584 0.930 . S
H579 C588 0.930 . S
H580 C593 0.929 . S
H581 C591 0.929 . S
H582 C586 0.929 . S
H583 C592 0.929 . S
C584 H578 0.930 . S
C584 C585 1.367 . S
C584 C592 1.378 . S
C585 C584 1.367 . S
C585 C593 1.433 . S
C586 H582 0.929 . S
C586 C588 1.378 . S
C586 C590 1.350 . S
C587 C590 1.463 . S
C587 C592 1.350 . S
C587 N595 1.427 . S
C588 H579 0.930 . S
C588 C586 1.378 . S
C588 C589 1.367 . S
C589 C588 1.367 . S
C589 C591 1.433 . S
C590 C586 1.350 . S
C590 C587 1.463 . S
C590 N594 1.427 . S
C591 H581 0.929 . S
C591 C589 1.433 . S
C591 N594 1.384 . S
C592 H583 0.929 . S
C592 C584 1.378 . S
C592 C587 1.350 . S
C593 H580 0.929 . S
C593 C585 1.433 . S
C593 N595 1.384 . S
N594 C590 1.427 . S
N594 C591 1.384 . S
N595 C587 1.427 . S
N595 C593 1.384 . S
H596 C602 0.930 . S
H597 C606 0.930 . S
H598 C611 0.929 . S
H599 C609 0.929 . S
H600 C604 0.929 . S
H601 C610 0.929 . S
C602 H596 0.930 . S
C602 C603 1.367 . S
C602 C610 1.378 . S
C603 C602 1.367 . S
C603 C611 1.433 . S
C604 H600 0.929 . S
C604 C606 1.378 . S
C604 C608 1.350 . S
C605 C608 1.463 . S
C605 C610 1.350 . S
C605 N613 1.427 . S
C606 H597 0.930 . S
C606 C604 1.378 . S
C606 C607 1.367 . S
C607 C606 1.367 . S
C607 C609 1.433 . S
C608 C604 1.350 . S
C608 C605 1.463 . S
C608 N612 1.427 . S
C609 H599 0.929 . S
C609 C607 1.433 . S
C609 N612 1.384 . S
C610 H601 0.929 . S
C610 C602 1.378 . S
C610 C605 1.350 . S
C611 H598 0.929 . S
C611 C603 1.433 . S
C611 N613 1.384 . S
N612 C608 1.427 . S
N612 C609 1.384 . S
N613 C605 1.427 . S
N613 C611 1.384 . S
H614 C620 0.930 . S
H615 C624 0.930 . S
H616 C629 0.929 . S
H617 C627 0.929 . S
H618 C622 0.929 . S
H619 C628 0.929 . S
C620 H614 0.930 . S
C620 C621 1.367 . S
C620 C628 1.378 . S
C621 C620 1.367 . S
C621 C629 1.433 . S
C622 H618 0.929 . S
C622 C624 1.378 . S
C622 C626 1.350 . S
C623 C626 1.463 . S
C623 C628 1.350 . S
C623 N631 1.427 . S
C624 H615 0.930 . S
C624 C622 1.378 . S
C624 C625 1.367 . S
C625 C624 1.367 . S
C625 C627 1.433 . S
C626 C622 1.350 . S
C626 C623 1.463 . S
C626 N630 1.427 . S
C627 H617 0.929 . S
C627 C625 1.433 . S
C627 N630 1.384 . S
C628 H619 0.929 . S
C628 C620 1.378 . S
C628 C623 1.350 . S
C629 H616 0.929 . S
C629 C621 1.433 . S
C629 N631 1.384 . S
N630 C626 1.427 . S
N630 C627 1.384 . S
N631 C623 1.427 . S
N631 C629 1.384 . S
H632 C638 0.930 . S
H633 C642 0.930 . S
H634 C647 0.929 . S
H635 C645 0.929 . S
H636 C640 0.929 . S
H637 C646 0.929 . S
C638 H632 0.930 . S
C638 C639 1.367 . S
C638 C646 1.378 . S
C639 C638 1.367 . S
C639 C647 1.433 . S
C640 H636 0.929 . S
C640 C642 1.378 . S
C640 C644 1.350 . S
C641 C644 1.463 . S
C641 C646 1.350 . S
C641 N649 1.427 . S
C642 H633 0.930 . S
C642 C640 1.378 . S
C642 C643 1.367 . S
C643 C642 1.367 . S
C643 C645 1.433 . S
C644 C640 1.350 . S
C644 C641 1.463 . S
C644 N648 1.427 . S
C645 H635 0.929 . S
C645 C643 1.433 . S
C645 N648 1.384 . S
C646 H637 0.929 . S
C646 C638 1.378 . S
C646 C641 1.350 . S
C647 H634 0.929 . S
C647 C639 1.433 . S
C647 N649 1.384 . S
N648 C644 1.427 . S
N648 C645 1.384 . S
N649 C641 1.427 . S
N649 C647 1.384 . S
H650 C656 0.930 . S
H651 C660 0.930 . S
H652 C665 0.929 . S
H653 C663 0.929 . S
H654 C658 0.929 . S
H655 C664 0.929 . S
C656 H650 0.930 . S
C656 C657 1.367 . S
C656 C664 1.378 . S
C657 C656 1.367 . S
C657 C665 1.433 . S
C658 H654 0.929 . S
C658 C660 1.378 . S
C658 C662 1.350 . S
C659 C662 1.463 . S
C659 C664 1.350 . S
C659 N667 1.427 . S
C660 H651 0.930 . S
C660 C658 1.378 . S
C660 C661 1.367 . S
C661 C660 1.367 . S
C661 C663 1.433 . S
C662 C658 1.350 . S
C662 C659 1.463 . S
C662 N666 1.427 . S
C663 H653 0.929 . S
C663 C661 1.433 . S
C663 N666 1.384 . S
C664 H655 0.929 . S
C664 C656 1.378 . S
C664 C659 1.350 . S
C665 H652 0.929 . S
C665 C657 1.433 . S
C665 N667 1.384 . S
N666 C662 1.427 . S
N666 C663 1.384 . S
N667 C659 1.427 . S
N667 C665 1.384 . S
H668 C674 0.930 . S
H669 C678 0.930 . S
H670 C683 0.929 . S
H671 C681 0.929 . S
H672 C676 0.929 . S
H673 C682 0.929 . S
C674 H668 0.930 . S
C674 C675 1.367 . S
C674 C682 1.378 . S
C675 C674 1.367 . S
C675 C683 1.433 . S
C676 H672 0.929 . S
C676 C678 1.378 . S
C676 C680 1.350 . S
C677 C680 1.463 . S
C677 C682 1.350 . S
C677 N685 1.427 . S
C678 H669 0.930 . S
C678 C676 1.378 . S
C678 C679 1.367 . S
C679 C678 1.367 . S
C679 C681 1.433 . S
C680 C676 1.350 . S
C680 C677 1.463 . S
C680 N684 1.427 . S
C681 H671 0.929 . S
C681 C679 1.433 . S
C681 N684 1.384 . S
C682 H673 0.929 . S
C682 C674 1.378 . S
C682 C677 1.350 . S
C683 H670 0.929 . S
C683 C675 1.433 . S
C683 N685 1.384 . S
N684 C680 1.427 . S
N684 C681 1.384 . S
N685 C677 1.427 . S
N685 C683 1.384 . S
H686 C692 0.930 . S
H687 C696 0.930 . S
H688 C701 0.929 . S
H689 C699 0.929 . S
H690 C694 0.929 . S
H691 C700 0.929 . S
C692 H686 0.930 . S
C692 C693 1.367 . S
C692 C700 1.378 . S
C693 C692 1.367 . S
C693 C701 1.433 . S
C694 H690 0.929 . S
C694 C696 1.378 . S
C694 C698 1.350 . S
C695 C698 1.463 . S
C695 C700 1.350 . S
C695 N703 1.427 . S
C696 H687 0.930 . S
C696 C694 1.378 . S
C696 C697 1.367 . S
C697 C696 1.367 . S
C697 C699 1.433 . S
C698 C694 1.350 . S
C698 C695 1.463 . S
C698 N702 1.427 . S
C699 H689 0.929 . S
C699 C697 1.433 . S
C699 N702 1.384 . S
C700 H691 0.929 . S
C700 C692 1.378 . S
C700 C695 1.350 . S
C701 H688 0.929 . S
C701 C693 1.433 . S
C701 N703 1.384 . S
N702 C698 1.427 . S
N702 C699 1.384 . S
N703 C695 1.427 . S
N703 C701 1.384 . S
H704 C710 0.930 . S
H705 C714 0.930 . S
H706 C719 0.929 . S
H707 C717 0.929 . S
H708 C712 0.929 . S
H709 C718 0.929 . S
C710 H704 0.930 . S
C710 C711 1.367 . S
C710 C718 1.378 . S
C711 C710 1.367 . S
C711 C719 1.433 . S
C712 H708 0.929 . S
C712 C714 1.378 . S
C712 C716 1.350 . S
C713 C716 1.463 1_565 S
C713 C718 1.350 . S
C713 N721 1.427 . S
C714 H705 0.930 . S
C714 C712 1.378 . S
C714 C715 1.367 . S
C715 C714 1.367 . S
C715 C717 1.433 . S
C716 C712 1.350 . S
C716 C713 1.463 1_545 S
C716 N720 1.427 . S
C717 H707 0.929 . S
C717 C715 1.433 . S
C717 N720 1.384 . S
C718 H709 0.929 . S
C718 C710 1.378 . S
C718 C713 1.350 . S
C719 H706 0.929 . S
C719 C711 1.433 . S
C719 N721 1.384 . S
N720 C716 1.427 . S
N720 C717 1.384 . S
N721 C713 1.427 . S
N721 C719 1.384 . S
H722 C728 0.930 . S
H723 C732 0.930 . S
H724 C737 0.929 . S
H725 C735 0.929 . S
H726 C730 0.929 . S
H727 C736 0.929 . S
C728 H722 0.930 . S
C728 C729 1.367 . S
C728 C736 1.378 . S
C729 C728 1.367 . S
C729 C737 1.433 . S
C730 H726 0.929 . S
C730 C732 1.378 . S
C730 C734 1.350 . S
C731 C734 1.463 1_655 S
C731 C736 1.350 . S
C731 N739 1.427 . S
C732 H723 0.930 . S
C732 C730 1.378 . S
C732 C733 1.367 . S
C733 C732 1.367 . S
C733 C735 1.433 . S
C734 C730 1.350 . S
C734 C731 1.463 1_455 S
C734 N738 1.427 . S
C735 H725 0.929 . S
C735 C733 1.433 . S
C735 N738 1.384 . S
C736 H727 0.929 . S
C736 C728 1.378 . S
C736 C731 1.350 . S
C737 H724 0.929 . S
C737 C729 1.433 . S
C737 N739 1.384 . S
N738 C734 1.427 . S
N738 C735 1.384 . S
N739 C731 1.427 . S
N739 C737 1.384 . S
H740 C746 0.930 . S
H741 C750 0.930 . S
H742 C755 0.929 . S
H743 C753 0.929 . S
H744 C748 0.929 . S
H745 C754 0.929 . S
C746 H740 0.930 . S
C746 C747 1.367 1_554 S
C746 C754 1.378 . S
C747 C746 1.367 1_556 S
C747 C755 1.433 . S
C748 H744 0.929 . S
C748 C750 1.378 . S
C748 C752 1.350 1_556 S
C749 C752 1.463 1_556 S
C749 C754 1.350 1_556 S
C749 N757 1.427 . S
C750 H741 0.930 . S
C750 C748 1.378 . S
C750 C751 1.367 1_556 S
C751 C750 1.367 1_554 S
C751 C753 1.433 . S
C752 C748 1.350 1_554 S
C752 C749 1.463 1_554 S
C752 N756 1.427 . S
C753 H743 0.929 . S
C753 C751 1.433 . S
C753 N756 1.384 . S
C754 H745 0.929 . S
C754 C746 1.378 . S
C754 C749 1.350 1_554 S
C755 H742 0.929 . S
C755 C747 1.433 . S
C755 N757 1.384 . S
N756 C752 1.427 . S
N756 C753 1.384 . S
N757 C749 1.427 . S
N757 C755 1.384 . S
H758 C764 0.930 . S
H759 C768 0.930 . S
H760 C773 0.929 . S
H761 C771 0.929 . S
H762 C766 0.929 1_545 S
H763 C772 0.929 1_565 S
C764 H758 0.930 . S
C764 C765 1.367 . S
C764 C772 1.378 . S
C765 C764 1.367 . S
C765 C773 1.433 1_556 S
C766 H762 0.929 1_565 S
C766 C768 1.378 . S
C766 C770 1.350 . S
C767 C770 1.463 1_446 S
C767 C772 1.350 . S
C767 N775 1.427 1_556 S
C768 H759 0.930 . S
C768 C766 1.378 . S
C768 C769 1.367 . S
C769 C768 1.367 . S
C769 C771 1.433 1_554 S
C770 C766 1.350 . S
C770 C767 1.463 1_664 S
C770 N774 1.427 1_554 S
C771 H761 0.929 . S
C771 C769 1.433 1_556 S
C771 N774 1.384 . S
C772 H763 0.929 1_545 S
C772 C764 1.378 . S
C772 C767 1.350 . S
C773 H760 0.929 . S
C773 C765 1.433 1_554 S
C773 N775 1.384 . S
N774 C770 1.427 1_556 S
N774 C771 1.384 . S
N775 C767 1.427 1_554 S
N775 C773 1.384 . S
H776 C782 0.930 . S
H777 C786 0.930 . S
H778 C791 0.929 . S
H779 C789 0.929 . S
H780 C784 0.929 1_545 S
H781 C790 0.929 1_565 S
C782 H776 0.930 . S
C782 C783 1.367 . S
C782 C790 1.378 . S
C783 C782 1.367 . S
C783 C791 1.433 . S
C784 H780 0.929 1_565 S
C784 C786 1.378 . S
C784 C788 1.350 . S
C785 C788 1.463 1_545 S
C785 C790 1.350 . S
C785 N793 1.427 . S
C786 H777 0.930 . S
C786 C784 1.378 . S
C786 C787 1.367 . S
C787 C786 1.367 . S
C787 C789 1.433 . S
C788 C784 1.350 . S
C788 C785 1.463 1_565 S
C788 N792 1.427 . S
C789 H779 0.929 . S
C789 C787 1.433 . S
C789 N792 1.384 . S
C790 H781 0.929 1_545 S
C790 C782 1.378 . S
C790 C785 1.350 . S
C791 H778 0.929 . S
C791 C783 1.433 . S
C791 N793 1.384 . S
N792 C788 1.427 . S
N792 C789 1.384 . S
N793 C785 1.427 . S
N793 C791 1.384 . S
H794 C800 0.930 . S
H795 C804 0.930 . S
H796 C809 0.929 1_655 S
H797 C807 0.929 1_455 S
H798 C802 0.929 . S
H799 C808 0.929 . S
C800 H794 0.930 . S
C800 C801 1.367 . S
C800 C808 1.378 . S
C801 C800 1.367 . S
C801 C809 1.433 . S
C802 H798 0.929 . S
C802 C804 1.378 . S
C802 C806 1.350 . S
C803 C806 1.463 1_455 S
C803 C808 1.350 . S
C803 N811 1.427 1_455 S
C804 H795 0.930 . S
C804 C802 1.378 . S
C804 C805 1.367 . S
C805 C804 1.367 . S
C805 C807 1.433 . S
C806 C802 1.350 . S
C806 C803 1.463 1_655 S
C806 N810 1.427 1_655 S
C807 H797 0.929 1_655 S
C807 C805 1.433 . S
C807 N810 1.384 1_655 S
C808 H799 0.929 . S
C808 C800 1.378 . S
C808 C803 1.350 . S
C809 H796 0.929 1_455 S
C809 C801 1.433 . S
C809 N811 1.384 1_455 S
N810 C806 1.427 1_455 S
N810 C807 1.384 1_455 S
N811 C803 1.427 1_655 S
N811 C809 1.384 1_655 S
H812 C818 0.930 1_554 S
H813 C822 0.930 1_556 S
H814 C827 0.929 . S
H815 C825 0.929 . S
H816 C820 0.929 . S
H817 C826 0.929 . S
C818 H812 0.930 1_556 S
C818 C819 1.367 . S
C818 C826 1.378 1_556 S
C819 C818 1.367 . S
C819 C827 1.433 . S
C820 H816 0.929 . S
C820 C822 1.378 1_556 S
C820 C824 1.350 1_556 S
C821 C824 1.463 1_556 S
C821 C826 1.350 1_556 S
C821 N829 1.427 . S
C822 H813 0.930 1_554 S
C822 C820 1.378 1_554 S
C822 C823 1.367 . S
C823 C822 1.367 . S
C823 C825 1.433 . S
C824 C820 1.350 1_554 S
C824 C821 1.463 1_554 S
C824 N828 1.427 . S
C825 H815 0.929 . S
C825 C823 1.433 . S
C825 N828 1.384 . S
C826 H817 0.929 . S
C826 C818 1.378 1_554 S
C826 C821 1.350 1_554 S
C827 H814 0.929 . S
C827 C819 1.433 . S
C827 N829 1.384 . S
N828 C824 1.427 . S
N828 C825 1.384 . S
N829 C821 1.427 . S
N829 C827 1.384 . S
H830 C836 0.930 . S
H831 C840 0.930 . S
H832 C845 0.929 . S
H833 C843 0.929 . S
H834 C838 0.929 . S
H835 C844 0.929 . S
C836 H830 0.930 . S
C836 C837 1.367 . S
C836 C844 1.378 . S
C837 C836 1.367 . S
C837 C845 1.433 . S
C838 H834 0.929 . S
C838 C840 1.378 . S
C838 C842 1.350 . S
C839 C842 1.463 . S
C839 C844 1.350 . S
C839 N847 1.427 . S
C840 H831 0.930 . S
C840 C838 1.378 . S
C840 C841 1.367 . S
C841 C840 1.367 . S
C841 C843 1.433 . S
C842 C838 1.350 . S
C842 C839 1.463 . S
C842 N846 1.427 . S
C843 H833 0.929 . S
C843 C841 1.433 . S
C843 N846 1.384 . S
C844 H835 0.929 . S
C844 C836 1.378 . S
C844 C839 1.350 . S
C845 H832 0.929 . S
C845 C837 1.433 . S
C845 N847 1.384 . S
N846 C842 1.427 . S
N846 C843 1.384 . S
N847 C839 1.427 . S
N847 C845 1.384 . S
H848 C854 0.930 . S
H849 C858 0.930 . S
H850 C863 0.929 . S
H851 C861 0.929 . S
H852 C856 0.929 . S
H853 C862 0.929 . S
C854 H848 0.930 . S
C854 C855 1.367 . S
C854 C862 1.378 . S
C855 C854 1.367 . S
C855 C863 1.433 . S
C856 H852 0.929 . S
C856 C858 1.378 . S
C856 C860 1.350 . S
C857 C860 1.463 . S
C857 C862 1.350 . S
C857 N865 1.427 . S
C858 H849 0.930 . S
C858 C856 1.378 . S
C858 C859 1.367 . S
C859 C858 1.367 . S
C859 C861 1.433 . S
C860 C856 1.350 . S
C860 C857 1.463 . S
C860 N864 1.427 . S
C861 H851 0.929 . S
C861 C859 1.433 . S
C861 N864 1.384 . S
C862 H853 0.929 . S
C862 C854 1.378 . S
C862 C857 1.350 . S
C863 H850 0.929 . S
C863 C855 1.433 . S
C863 N865 1.384 . S
N864 C860 1.427 . S
N864 C861 1.384 . S
N865 C857 1.427 . S
N865 C863 1.384 . S
H866 C872 0.930 . S
H867 C876 0.930 . S
H868 C881 0.929 . S
H869 C879 0.929 . S
H870 C874 0.929 . S
H871 C880 0.929 . S
C872 H866 0.930 . S
C872 C873 1.367 . S
C872 C880 1.378 . S
C873 C872 1.367 . S
C873 C881 1.433 . S
C874 H870 0.929 . S
C874 C876 1.378 . S
C874 C878 1.350 . S
C875 C878 1.463 1_655 S
C875 C880 1.350 . S
C875 N883 1.427 . S
C876 H867 0.930 . S
C876 C874 1.378 . S
C876 C877 1.367 . S
C877 C876 1.367 . S
C877 C879 1.433 . S
C878 C874 1.350 . S
C878 C875 1.463 1_455 S
C878 N882 1.427 . S
C879 H869 0.929 . S
C879 C877 1.433 . S
C879 N882 1.384 . S
C880 H871 0.929 . S
C880 C872 1.378 . S
C880 C875 1.350 . S
C881 H868 0.929 . S
C881 C873 1.433 . S
C881 N883 1.384 . S
N882 C878 1.427 . S
N882 C879 1.384 . S
N883 C875 1.427 . S
N883 C881 1.384 . S
H884 C890 0.930 . S
H885 C894 0.930 . S
H886 C899 0.929 . S
H887 C897 0.929 . S
H888 C892 0.929 . S
H889 C898 0.929 . S
C890 H884 0.930 . S
C890 C891 1.367 . S
C890 C898 1.378 . S
C891 C890 1.367 . S
C891 C899 1.433 . S
C892 H888 0.929 . S
C892 C894 1.378 . S
C892 C896 1.350 . S
C893 C896 1.463 . S
C893 C898 1.350 . S
C893 N901 1.427 . S
C894 H885 0.930 . S
C894 C892 1.378 . S
C894 C895 1.367 . S
C895 C894 1.367 . S
C895 C897 1.433 . S
C896 C892 1.350 . S
C896 C893 1.463 . S
C896 N900 1.427 . S
C897 H887 0.929 . S
C897 C895 1.433 . S
C897 N900 1.384 . S
C898 H889 0.929 . S
C898 C890 1.378 . S
C898 C893 1.350 . S
C899 H886 0.929 . S
C899 C891 1.433 . S
C899 N901 1.384 . S
N900 C896 1.427 . S
N900 C897 1.384 . S
N901 C893 1.427 . S
N901 C899 1.384 . S
H902 C908 0.930 . S
H903 C912 0.930 . S
H904 C917 0.929 . S
H905 C915 0.929 . S
H906 C910 0.929 . S
H907 C916 0.929 . S
C908 H902 0.930 . S
C908 C909 1.367 . S
C908 C916 1.378 . S
C909 C908 1.367 . S
C909 C917 1.433 . S
C910 H906 0.929 . S
C910 C912 1.378 . S
C910 C914 1.350 . S
C911 C914 1.463 . S
C911 C916 1.350 . S
C911 N919 1.427 . S
C912 H903 0.930 . S
C912 C910 1.378 . S
C912 C913 1.367 . S
C913 C912 1.367 . S
C913 C915 1.433 . S
C914 C910 1.350 . S
C914 C911 1.463 . S
C914 N918 1.427 . S
C915 H905 0.929 . S
C915 C913 1.433 . S
C915 N918 1.384 . S
C916 H907 0.929 . S
C916 C908 1.378 . S
C916 C911 1.350 . S
C917 H904 0.929 . S
C917 C909 1.433 . S
C917 N919 1.384 . S
N918 C914 1.427 . S
N918 C915 1.384 . S
N919 C911 1.427 . S
N919 C917 1.384 . S
H920 C926 0.930 . S
H921 C930 0.930 . S
H922 C935 0.929 . S
H923 C933 0.929 . S
H924 C928 0.929 . S
H925 C934 0.929 . S
C926 H920 0.930 . S
C926 C927 1.367 . S
C926 C934 1.378 . S
C927 C926 1.367 . S
C927 C935 1.433 . S
C928 H924 0.929 . S
C928 C930 1.378 . S
C928 C932 1.350 . S
C929 C932 1.463 . S
C929 C934 1.350 . S
C929 N937 1.427 . S
C930 H921 0.930 . S
C930 C928 1.378 . S
C930 C931 1.367 . S
C931 C930 1.367 . S
C931 C933 1.433 . S
C932 C928 1.350 . S
C932 C929 1.463 . S
C932 N936 1.427 . S
C933 H923 0.929 . S
C933 C931 1.433 . S
C933 N936 1.384 . S
C934 H925 0.929 . S
C934 C926 1.378 . S
C934 C929 1.350 . S
C935 H922 0.929 . S
C935 C927 1.433 . S
C935 N937 1.384 . S
N936 C932 1.427 . S
N936 C933 1.384 . S
N937 C929 1.427 . S
N937 C935 1.384 . S
H938 C944 0.930 . S
H939 C948 0.930 . S
H940 C953 0.929 . S
H941 C951 0.929 . S
H942 C946 0.929 1_545 S
H943 C952 0.929 1_565 S
C944 H938 0.930 . S
C944 C945 1.367 . S
C944 C952 1.378 . S
C945 C944 1.367 . S
C945 C953 1.433 . S
C946 H942 0.929 1_565 S
C946 C948 1.378 . S
C946 C950 1.350 . S
C947 C950 1.463 1_545 S
C947 C952 1.350 . S
C947 N955 1.427 . S
C948 H939 0.930 . S
C948 C946 1.378 . S
C948 C949 1.367 . S
C949 C948 1.367 . S
C949 C951 1.433 . S
C950 C946 1.350 . S
C950 C947 1.463 1_565 S
C950 N954 1.427 . S
C951 H941 0.929 . S
C951 C949 1.433 . S
C951 N954 1.384 . S
C952 H943 0.929 1_545 S
C952 C944 1.378 . S
C952 C947 1.350 . S
C953 H940 0.929 . S
C953 C945 1.433 . S
C953 N955 1.384 . S
N954 C950 1.427 . S
N954 C951 1.384 . S
N955 C947 1.427 . S
N955 C953 1.384 . S
H956 C962 0.930 . S
H957 C966 0.930 . S
H958 C971 0.929 . S
H959 C969 0.929 . S
H960 C964 0.929 . S
H961 C970 0.929 . S
C962 H956 0.930 . S
C962 C963 1.367 . S
C962 C970 1.378 . S
C963 C962 1.367 . S
C963 C971 1.433 . S
C964 H960 0.929 . S
C964 C966 1.378 . S
C964 C968 1.350 . S
C965 C968 1.463 . S
C965 C970 1.350 . S
C965 N973 1.427 . S
C966 H957 0.930 . S
C966 C964 1.378 . S
C966 C967 1.367 . S
C967 C966 1.367 . S
C967 C969 1.433 . S
C968 C964 1.350 . S
C968 C965 1.463 . S
C968 N972 1.427 . S
C969 H959 0.929 . S
C969 C967 1.433 . S
C969 N972 1.384 . S
C970 H961 0.929 . S
C970 C962 1.378 . S
C970 C965 1.350 . S
C971 H958 0.929 . S
C971 C963 1.433 . S
C971 N973 1.384 . S
N972 C968 1.427 . S
N972 C969 1.384 . S
N973 C965 1.427 . S
N973 C971 1.384 . S
H974 C980 0.930 . S
H975 C984 0.930 . S
H976 C989 0.929 1_556 S
H977 C987 0.929 1_554 S
H978 C982 0.929 . S
H979 C988 0.929 . S
C980 H974 0.930 . S
C980 C981 1.367 . S
C980 C988 1.378 . S
C981 C980 1.367 . S
C981 C989 1.433 . S
C982 H978 0.929 . S
C982 C984 1.378 . S
C982 C986 1.350 . S
C983 C986 1.463 1_554 S
C983 C988 1.350 . S
C983 N991 1.427 1_554 S
C984 H975 0.930 . S
C984 C982 1.378 . S
C984 C985 1.367 . S
C985 C984 1.367 . S
C985 C987 1.433 . S
C986 C982 1.350 . S
C986 C983 1.463 1_556 S
C986 N990 1.427 1_556 S
C987 H977 0.929 1_556 S
C987 C985 1.433 . S
C987 N990 1.384 1_556 S
C988 H979 0.929 . S
C988 C980 1.378 . S
C988 C983 1.350 . S
C989 H976 0.929 1_554 S
C989 C981 1.433 . S
C989 N991 1.384 1_554 S
N990 C986 1.427 1_554 S
N990 C987 1.384 1_554 S
N991 C983 1.427 1_556 S
N991 C989 1.384 1_556 S
H992 C998 0.930 . S
H993 C1002 0.930 . S
H994 C1007 0.929 . S
H995 C1005 0.929 . S
H996 C1000 0.929 . S
H997 C1006 0.929 . S
C998 H992 0.930 . S
C998 C999 1.367 . S
C998 C1006 1.378 . S
C999 C998 1.367 . S
C999 C1007 1.433 . S
C1000 H996 0.929 . S
C1000 C1002 1.378 . S
C1000 C1004 1.350 . S
C1001 C1004 1.463 . S
C1001 C1006 1.350 . S
C1001 N1009 1.427 . S
C1002 H993 0.930 . S
C1002 C1000 1.378 . S
C1002 C1003 1.367 . S
C1003 C1002 1.367 . S
C1003 C1005 1.433 . S
C1004 C1000 1.350 . S
C1004 C1001 1.463 . S
C1004 N1008 1.427 . S
C1005 H995 0.929 . S
C1005 C1003 1.433 . S
C1005 N1008 1.384 . S
C1006 H997 0.929 . S
C1006 C998 1.378 . S
C1006 C1001 1.350 . S
C1007 H994 0.929 . S
C1007 C999 1.433 . S
C1007 N1009 1.384 . S
N1008 C1004 1.427 . S
N1008 C1005 1.384 . S
N1009 C1001 1.427 . S
N1009 C1007 1.384 . S
H1010 C1016 0.930 . S
H1011 C1020 0.930 1_554 S
H1012 C1025 0.929 1_554 S
H1013 C1023 0.929 . S
H1014 C1018 0.929 1_554 S
H1015 C1024 0.929 . S
C1016 H1010 0.930 . S
C1016 C1017 1.367 . S
C1016 C1024 1.378 . S
C1017 C1016 1.367 . S
C1017 C1025 1.433 . S
C1018 H1014 0.929 1_556 S
C1018 C1020 1.378 . S
C1018 C1022 1.350 . S
C1019 C1022 1.463 . S
C1019 C1024 1.350 . S
C1019 N1027 1.427 . S
C1020 H1011 0.930 1_556 S
C1020 C1018 1.378 . S
C1020 C1021 1.367 . S
C1021 C1020 1.367 . S
C1021 C1023 1.433 . S
C1022 C1018 1.350 . S
C1022 C1019 1.463 . S
C1022 N1026 1.427 . S
C1023 H1013 0.929 . S
C1023 C1021 1.433 . S
C1023 N1026 1.384 . S
C1024 H1015 0.929 . S
C1024 C1016 1.378 . S
C1024 C1019 1.350 . S
C1025 H1012 0.929 1_556 S
C1025 C1017 1.433 . S
C1025 N1027 1.384 . S
N1026 C1022 1.427 . S
N1026 C1023 1.384 . S
N1027 C1019 1.427 . S
N1027 C1025 1.384 . S
H1028 C1034 0.930 . S
H1029 C1038 0.930 . S
H1030 C1043 0.929 . S
H1031 C1041 0.929 . S
H1032 C1036 0.929 . S
H1033 C1042 0.929 . S
C1034 H1028 0.930 . S
C1034 C1035 1.367 . S
C1034 C1042 1.378 . S
C1035 C1034 1.367 . S
C1035 C1043 1.433 . S
C1036 H1032 0.929 . S
C1036 C1038 1.378 . S
C1036 C1040 1.350 . S
C1037 C1040 1.463 . S
C1037 C1042 1.350 . S
C1037 N1045 1.427 . S
C1038 H1029 0.930 . S
C1038 C1036 1.378 . S
C1038 C1039 1.367 . S
C1039 C1038 1.367 . S
C1039 C1041 1.433 . S
C1040 C1036 1.350 . S
C1040 C1037 1.463 . S
C1040 N1044 1.427 . S
C1041 H1031 0.929 . S
C1041 C1039 1.433 . S
C1041 N1044 1.384 . S
C1042 H1033 0.929 . S
C1042 C1034 1.378 . S
C1042 C1037 1.350 . S
C1043 H1030 0.929 . S
C1043 C1035 1.433 . S
C1043 N1045 1.384 . S
N1044 C1040 1.427 . S
N1044 C1041 1.384 . S
N1045 C1037 1.427 . S
N1045 C1043 1.384 . S
H1046 C1052 0.930 1_556 S
H1047 C1056 0.930 . S
H1048 C1061 0.929 . S
H1049 C1059 0.929 1_556 S
H1050 C1054 0.929 . S
H1051 C1060 0.929 1_556 S
C1052 H1046 0.930 1_554 S
C1052 C1053 1.367 . S
C1052 C1060 1.378 . S
C1053 C1052 1.367 . S
C1053 C1061 1.433 . S
C1054 H1050 0.929 . S
C1054 C1056 1.378 . S
C1054 C1058 1.350 . S
C1055 C1058 1.463 . S
C1055 C1060 1.350 . S
C1055 N1063 1.427 . S
C1056 H1047 0.930 . S
C1056 C1054 1.378 . S
C1056 C1057 1.367 . S
C1057 C1056 1.367 . S
C1057 C1059 1.433 . S
C1058 C1054 1.350 . S
C1058 C1055 1.463 . S
C1058 N1062 1.427 . S
C1059 H1049 0.929 1_554 S
C1059 C1057 1.433 . S
C1059 N1062 1.384 . S
C1060 H1051 0.929 1_554 S
C1060 C1052 1.378 . S
C1060 C1055 1.350 . S
C1061 H1048 0.929 . S
C1061 C1053 1.433 . S
C1061 N1063 1.384 . S
N1062 C1058 1.427 . S
N1062 C1059 1.384 . S
N1063 C1055 1.427 . S
N1063 C1061 1.384 . S
H1064 C1070 0.930 . S
H1065 C1074 0.930 . S
H1066 C1079 0.929 . S
H1067 C1077 0.929 . S
H1068 C1072 0.929 . S
H1069 C1078 0.929 . S
C1070 H1064 0.930 . S
C1070 C1071 1.367 . S
C1070 C1078 1.378 . S
C1071 C1070 1.367 . S
C1071 C1079 1.433 . S
C1072 H1068 0.929 . S
C1072 C1074 1.378 . S
C1072 C1076 1.350 . S
C1073 C1076 1.463 . S
C1073 C1078 1.350 . S
C1073 N1081 1.427 . S
C1074 H1065 0.930 . S
C1074 C1072 1.378 . S
C1074 C1075 1.367 . S
C1075 C1074 1.367 . S
C1075 C1077 1.433 . S
C1076 C1072 1.350 . S
C1076 C1073 1.463 . S
C1076 N1080 1.427 . S
C1077 H1067 0.929 . S
C1077 C1075 1.433 . S
C1077 N1080 1.384 . S
C1078 H1069 0.929 . S
C1078 C1070 1.378 . S
C1078 C1073 1.350 . S
C1079 H1066 0.929 . S
C1079 C1071 1.433 . S
C1079 N1081 1.384 . S
N1080 C1076 1.427 . S
N1080 C1077 1.384 . S
N1081 C1073 1.427 . S
N1081 C1079 1.384 . S
H1082 C1088 0.930 . S
H1083 C1092 0.930 . S
H1084 C1097 0.929 . S
H1085 C1095 0.929 . S
H1086 C1090 0.929 . S
H1087 C1096 0.929 . S
C1088 H1082 0.930 . S
C1088 C1089 1.367 . S
C1088 C1096 1.378 . S
C1089 C1088 1.367 . S
C1089 C1097 1.433 . S
C1090 H1086 0.929 . S
C1090 C1092 1.378 . S
C1090 C1094 1.350 . S
C1091 C1094 1.463 . S
C1091 C1096 1.350 . S
C1091 N1099 1.427 . S
C1092 H1083 0.930 . S
C1092 C1090 1.378 . S
C1092 C1093 1.367 . S
C1093 C1092 1.367 . S
C1093 C1095 1.433 . S
C1094 C1090 1.350 . S
C1094 C1091 1.463 . S
C1094 N1098 1.427 . S
C1095 H1085 0.929 . S
C1095 C1093 1.433 . S
C1095 N1098 1.384 . S
C1096 H1087 0.929 . S
C1096 C1088 1.378 . S
C1096 C1091 1.350 . S
C1097 H1084 0.929 . S
C1097 C1089 1.433 . S
C1097 N1099 1.384 . S
N1098 C1094 1.427 . S
N1098 C1095 1.384 . S
N1099 C1091 1.427 . S
N1099 C1097 1.384 . S
H1100 C1106 0.930 . S
H1101 C1110 0.930 . S
H1102 C1115 0.929 . S
H1103 C1113 0.929 . S
H1104 C1108 0.929 . S
H1105 C1114 0.929 . S
C1106 H1100 0.930 . S
C1106 C1107 1.367 . S
C1106 C1114 1.378 . S
C1107 C1106 1.367 . S
C1107 C1115 1.433 . S
C1108 H1104 0.929 . S
C1108 C1110 1.378 . S
C1108 C1112 1.350 . S
C1109 C1112 1.463 . S
C1109 C1114 1.350 . S
C1109 N1117 1.427 . S
C1110 H1101 0.930 . S
C1110 C1108 1.378 . S
C1110 C1111 1.367 . S
C1111 C1110 1.367 . S
C1111 C1113 1.433 . S
C1112 C1108 1.350 . S
C1112 C1109 1.463 . S
C1112 N1116 1.427 . S
C1113 H1103 0.929 . S
C1113 C1111 1.433 . S
C1113 N1116 1.384 . S
C1114 H1105 0.929 . S
C1114 C1106 1.378 . S
C1114 C1109 1.350 . S
C1115 H1102 0.929 . S
C1115 C1107 1.433 . S
C1115 N1117 1.384 . S
N1116 C1112 1.427 . S
N1116 C1113 1.384 . S
N1117 C1109 1.427 . S
N1117 C1115 1.384 . S
H1118 C1124 0.930 . S
H1119 C1128 0.930 . S
H1120 C1133 0.929 . S
H1121 C1131 0.929 . S
H1122 C1126 0.929 . S
H1123 C1132 0.929 . S
C1124 H1118 0.930 . S
C1124 C1125 1.367 . S
C1124 C1132 1.378 . S
C1125 C1124 1.367 . S
C1125 C1133 1.433 . S
C1126 H1122 0.929 . S
C1126 C1128 1.378 . S
C1126 C1130 1.350 . S
C1127 C1130 1.463 . S
C1127 C1132 1.350 . S
C1127 N1135 1.427 . S
C1128 H1119 0.930 . S
C1128 C1126 1.378 . S
C1128 C1129 1.367 . S
C1129 C1128 1.367 . S
C1129 C1131 1.433 . S
C1130 C1126 1.350 . S
C1130 C1127 1.463 . S
C1130 N1134 1.427 . S
C1131 H1121 0.929 . S
C1131 C1129 1.433 . S
C1131 N1134 1.384 . S
C1132 H1123 0.929 . S
C1132 C1124 1.378 . S
C1132 C1127 1.350 . S
C1133 H1120 0.929 . S
C1133 C1125 1.433 . S
C1133 N1135 1.384 . S
N1134 C1130 1.427 . S
N1134 C1131 1.384 . S
N1135 C1127 1.427 . S
N1135 C1133 1.384 . S
H1136 C1142 0.930 . S
H1137 C1146 0.930 . S
H1138 C1151 0.929 . S
H1139 C1149 0.929 . S
H1140 C1144 0.929 . S
H1141 C1150 0.929 . S
C1142 H1136 0.930 . S
C1142 C1143 1.367 . S
C1142 C1150 1.378 . S
C1143 C1142 1.367 . S
C1143 C1151 1.433 . S
C1144 H1140 0.929 . S
C1144 C1146 1.378 . S
C1144 C1148 1.350 . S
C1145 C1148 1.463 . S
C1145 C1150 1.350 . S
C1145 N1153 1.427 . S
C1146 H1137 0.930 . S
C1146 C1144 1.378 . S
C1146 C1147 1.367 . S
C1147 C1146 1.367 . S
C1147 C1149 1.433 . S
C1148 C1144 1.350 . S
C1148 C1145 1.463 . S
C1148 N1152 1.427 . S
C1149 H1139 0.929 . S
C1149 C1147 1.433 . S
C1149 N1152 1.384 . S
C1150 H1141 0.929 . S
C1150 C1142 1.378 . S
C1150 C1145 1.350 . S
C1151 H1138 0.929 . S
C1151 C1143 1.433 . S
C1151 N1153 1.384 . S
N1152 C1148 1.427 . S
N1152 C1149 1.384 . S
N1153 C1145 1.427 . S
N1153 C1151 1.384 . S
H1154 C1160 0.930 . S
H1155 C1164 0.930 . S
H1156 C1169 0.929 . S
H1157 C1167 0.929 . S
H1158 C1162 0.929 . S
H1159 C1168 0.929 . S
C1160 H1154 0.930 . S
C1160 C1161 1.367 . S
C1160 C1168 1.378 . S
C1161 C1160 1.367 . S
C1161 C1169 1.433 . S
C1162 H1158 0.929 . S
C1162 C1164 1.378 . S
C1162 C1166 1.350 . S
C1163 C1166 1.463 . S
C1163 C1168 1.350 . S
C1163 N1171 1.427 . S
C1164 H1155 0.930 . S
C1164 C1162 1.378 . S
C1164 C1165 1.367 . S
C1165 C1164 1.367 . S
C1165 C1167 1.433 . S
C1166 C1162 1.350 . S
C1166 C1163 1.463 . S
C1166 N1170 1.427 . S
C1167 H1157 0.929 . S
C1167 C1165 1.433 . S
C1167 N1170 1.384 . S
C1168 H1159 0.929 . S
C1168 C1160 1.378 . S
C1168 C1163 1.350 . S
C1169 H1156 0.929 . S
C1169 C1161 1.433 . S
C1169 N1171 1.384 . S
N1170 C1166 1.427 . S
N1170 C1167 1.384 . S
N1171 C1163 1.427 . S
N1171 C1169 1.384 . S
H1172 C1178 0.930 . S
H1173 C1182 0.930 . S
H1174 C1187 0.929 . S
H1175 C1185 0.929 . S
H1176 C1180 0.929 . S
H1177 C1186 0.929 . S
C1178 H1172 0.930 . S
C1178 C1179 1.367 . S
C1178 C1186 1.378 . S
C1179 C1178 1.367 . S
C1179 C1187 1.433 . S
C1180 H1176 0.929 . S
C1180 C1182 1.378 . S
C1180 C1184 1.350 . S
C1181 C1184 1.463 . S
C1181 C1186 1.350 . S
C1181 N1189 1.427 . S
C1182 H1173 0.930 . S
C1182 C1180 1.378 . S
C1182 C1183 1.367 . S
C1183 C1182 1.367 . S
C1183 C1185 1.433 . S
C1184 C1180 1.350 . S
C1184 C1181 1.463 . S
C1184 N1188 1.427 . S
C1185 H1175 0.929 . S
C1185 C1183 1.433 . S
C1185 N1188 1.384 . S
C1186 H1177 0.929 . S
C1186 C1178 1.378 . S
C1186 C1181 1.350 . S
C1187 H1174 0.929 . S
C1187 C1179 1.433 . S
C1187 N1189 1.384 . S
N1188 C1184 1.427 . S
N1188 C1185 1.384 . S
N1189 C1181 1.427 . S
N1189 C1187 1.384 . S
H1190 C1196 0.930 . S
H1191 C1200 0.930 . S
H1192 C1205 0.929 . S
H1193 C1203 0.929 . S
H1194 C1198 0.929 . S
H1195 C1204 0.929 . S
C1196 H1190 0.930 . S
C1196 C1197 1.367 . S
C1196 C1204 1.378 . S
C1197 C1196 1.367 . S
C1197 C1205 1.433 . S
C1198 H1194 0.929 . S
C1198 C1200 1.378 . S
C1198 C1202 1.350 . S
C1199 C1202 1.463 . S
C1199 C1204 1.350 . S
C1199 N1207 1.427 . S
C1200 H1191 0.930 . S
C1200 C1198 1.378 . S
C1200 C1201 1.367 . S
C1201 C1200 1.367 . S
C1201 C1203 1.433 . S
C1202 C1198 1.350 . S
C1202 C1199 1.463 . S
C1202 N1206 1.427 . S
C1203 H1193 0.929 . S
C1203 C1201 1.433 . S
C1203 N1206 1.384 . S
C1204 H1195 0.929 . S
C1204 C1196 1.378 . S
C1204 C1199 1.350 . S
C1205 H1192 0.929 . S
C1205 C1197 1.433 . S
C1205 N1207 1.384 . S
N1206 C1202 1.427 . S
N1206 C1203 1.384 . S
N1207 C1199 1.427 . S
N1207 C1205 1.384 . S
H1208 C1214 0.930 . S
H1209 C1218 0.930 . S
H1210 C1223 0.929 . S
H1211 C1221 0.929 . S
H1212 C1216 0.929 . S
H1213 C1222 0.929 . S
C1214 H1208 0.930 . S
C1214 C1215 1.367 . S
C1214 C1222 1.378 . S
C1215 C1214 1.367 . S
C1215 C1223 1.433 . S
C1216 H1212 0.929 . S
C1216 C1218 1.378 . S
C1216 C1220 1.350 . S
C1217 C1220 1.463 . S
C1217 C1222 1.350 . S
C1217 N1225 1.427 . S
C1218 H1209 0.930 . S
C1218 C1216 1.378 . S
C1218 C1219 1.367 . S
C1219 C1218 1.367 . S
C1219 C1221 1.433 . S
C1220 C1216 1.350 . S
C1220 C1217 1.463 . S
C1220 N1224 1.427 . S
C1221 H1211 0.929 . S
C1221 C1219 1.433 . S
C1221 N1224 1.384 . S
C1222 H1213 0.929 . S
C1222 C1214 1.378 . S
C1222 C1217 1.350 . S
C1223 H1210 0.929 . S
C1223 C1215 1.433 . S
C1223 N1225 1.384 . S
N1224 C1220 1.427 . S
N1224 C1221 1.384 . S
N1225 C1217 1.427 . S
N1225 C1223 1.384 . S
H1226 C1232 0.930 1_554 S
H1227 C1236 0.930 . S
H1228 C1241 0.929 . S
H1229 C1239 0.929 1_554 S
H1230 C1234 0.929 . S
H1231 C1240 0.929 1_554 S
C1232 H1226 0.930 1_556 S
C1232 C1233 1.367 . S
C1232 C1240 1.378 . S
C1233 C1232 1.367 . S
C1233 C1241 1.433 . S
C1234 H1230 0.929 . S
C1234 C1236 1.378 . S
C1234 C1238 1.350 . S
C1235 C1238 1.463 . S
C1235 C1240 1.350 . S
C1235 N1243 1.427 . S
C1236 H1227 0.930 . S
C1236 C1234 1.378 . S
C1236 C1237 1.367 . S
C1237 C1236 1.367 . S
C1237 C1239 1.433 . S
C1238 C1234 1.350 . S
C1238 C1235 1.463 . S
C1238 N1242 1.427 . S
C1239 H1229 0.929 1_556 S
C1239 C1237 1.433 . S
C1239 N1242 1.384 . S
C1240 H1231 0.929 1_556 S
C1240 C1232 1.378 . S
C1240 C1235 1.350 . S
C1241 H1228 0.929 . S
C1241 C1233 1.433 . S
C1241 N1243 1.384 . S
N1242 C1238 1.427 . S
N1242 C1239 1.384 . S
N1243 C1235 1.427 . S
N1243 C1241 1.384 . S
H1244 C1250 0.930 . S
H1245 C1254 0.930 . S
H1246 C1259 0.929 . S
H1247 C1257 0.929 . S
H1248 C1252 0.929 . S
H1249 C1258 0.929 . S
C1250 H1244 0.930 . S
C1250 C1251 1.367 . S
C1250 C1258 1.378 . S
C1251 C1250 1.367 . S
C1251 C1259 1.433 . S
C1252 H1248 0.929 . S
C1252 C1254 1.378 . S
C1252 C1256 1.350 . S
C1253 C1256 1.463 . S
C1253 C1258 1.350 . S
C1253 N1261 1.427 . S
C1254 H1245 0.930 . S
C1254 C1252 1.378 . S
C1254 C1255 1.367 . S
C1255 C1254 1.367 . S
C1255 C1257 1.433 . S
C1256 C1252 1.350 . S
C1256 C1253 1.463 . S
C1256 N1260 1.427 . S
C1257 H1247 0.929 . S
C1257 C1255 1.433 . S
C1257 N1260 1.384 . S
C1258 H1249 0.929 . S
C1258 C1250 1.378 . S
C1258 C1253 1.350 . S
C1259 H1246 0.929 . S
C1259 C1251 1.433 . S
C1259 N1261 1.384 . S
N1260 C1256 1.427 . S
N1260 C1257 1.384 . S
N1261 C1253 1.427 . S
N1261 C1259 1.384 . S
H1262 C1268 0.930 . S
H1263 C1272 0.930 1_556 S
H1264 C1277 0.929 1_556 S
H1265 C1275 0.929 . S
H1266 C1270 0.929 1_556 S
H1267 C1276 0.929 . S
C1268 H1262 0.930 . S
C1268 C1269 1.367 . S
C1268 C1276 1.378 . S
C1269 C1268 1.367 . S
C1269 C1277 1.433 . S
C1270 H1266 0.929 1_554 S
C1270 C1272 1.378 . S
C1270 C1274 1.350 . S
C1271 C1274 1.463 . S
C1271 C1276 1.350 . S
C1271 N1279 1.427 . S
C1272 H1263 0.930 1_554 S
C1272 C1270 1.378 . S
C1272 C1273 1.367 . S
C1273 C1272 1.367 . S
C1273 C1275 1.433 . S
C1274 C1270 1.350 . S
C1274 C1271 1.463 . S
C1274 N1278 1.427 . S
C1275 H1265 0.929 . S
C1275 C1273 1.433 . S
C1275 N1278 1.384 . S
C1276 H1267 0.929 . S
C1276 C1268 1.378 . S
C1276 C1271 1.350 . S
C1277 H1264 0.929 1_554 S
C1277 C1269 1.433 . S
C1277 N1279 1.384 . S
N1278 C1274 1.427 . S
N1278 C1275 1.384 . S
N1279 C1271 1.427 . S
N1279 C1277 1.384 . S
H1280 C1286 0.930 . S
H1281 C1290 0.930 . S
H1282 C1295 0.929 . S
H1283 C1293 0.929 . S
H1284 C1288 0.929 . S
H1285 C1294 0.929 . S
C1286 H1280 0.930 . S
C1286 C1287 1.367 . S
C1286 C1294 1.378 . S
C1287 C1286 1.367 . S
C1287 C1295 1.433 . S
C1288 H1284 0.929 . S
C1288 C1290 1.378 . S
C1288 C1292 1.350 . S
C1289 C1292 1.463 . S
C1289 C1294 1.350 . S
C1289 N1297 1.427 . S
C1290 H1281 0.930 . S
C1290 C1288 1.378 . S
C1290 C1291 1.367 . S
C1291 C1290 1.367 . S
C1291 C1293 1.433 . S
C1292 C1288 1.350 . S
C1292 C1289 1.463 . S
C1292 N1296 1.427 . S
C1293 H1283 0.929 . S
C1293 C1291 1.433 . S
C1293 N1296 1.384 . S
C1294 H1285 0.929 . S
C1294 C1286 1.378 . S
C1294 C1289 1.350 . S
C1295 H1282 0.929 . S
C1295 C1287 1.433 . S
C1295 N1297 1.384 . S
N1296 C1292 1.427 . S
N1296 C1293 1.384 . S
N1297 C1289 1.427 . S
N1297 C1295 1.384 . S
H1298 C1304 0.930 . S
H1299 C1308 0.930 . S
H1300 C1313 0.929 . S
H1301 C1311 0.929 . S
H1302 C1306 0.929 . S
H1303 C1312 0.929 . S
C1304 H1298 0.930 . S
C1304 C1305 1.367 . S
C1304 C1312 1.378 . S
C1305 C1304 1.367 . S
C1305 C1313 1.433 . S
C1306 H1302 0.929 . S
C1306 C1308 1.378 . S
C1306 C1310 1.350 . S
C1307 C1310 1.463 . S
C1307 C1312 1.350 . S
C1307 N1315 1.427 . S
C1308 H1299 0.930 . S
C1308 C1306 1.378 . S
C1308 C1309 1.367 . S
C1309 C1308 1.367 . S
C1309 C1311 1.433 . S
C1310 C1306 1.350 . S
C1310 C1307 1.463 . S
C1310 N1314 1.427 . S
C1311 H1301 0.929 . S
C1311 C1309 1.433 . S
C1311 N1314 1.384 . S
C1312 H1303 0.929 . S
C1312 C1304 1.378 . S
C1312 C1307 1.350 . S
C1313 H1300 0.929 . S
C1313 C1305 1.433 . S
C1313 N1315 1.384 . S
N1314 C1310 1.427 . S
N1314 C1311 1.384 . S
N1315 C1307 1.427 . S
N1315 C1313 1.384 . S
H1316 C1322 0.930 . S
H1317 C1326 0.930 . S
H1318 C1331 0.929 . S
H1319 C1329 0.929 . S
H1320 C1324 0.929 . S
H1321 C1330 0.929 . S
C1322 H1316 0.930 . S
C1322 C1323 1.367 . S
C1322 C1330 1.378 . S
C1323 C1322 1.367 . S
C1323 C1331 1.433 . S
C1324 H1320 0.929 . S
C1324 C1326 1.378 . S
C1324 C1328 1.350 . S
C1325 C1328 1.463 . S
C1325 C1330 1.350 . S
C1325 N1333 1.427 . S
C1326 H1317 0.930 . S
C1326 C1324 1.378 . S
C1326 C1327 1.367 . S
C1327 C1326 1.367 . S
C1327 C1329 1.433 . S
C1328 C1324 1.350 . S
C1328 C1325 1.463 . S
C1328 N1332 1.427 . S
C1329 H1319 0.929 . S
C1329 C1327 1.433 . S
C1329 N1332 1.384 . S
C1330 H1321 0.929 . S
C1330 C1322 1.378 . S
C1330 C1325 1.350 . S
C1331 H1318 0.929 . S
C1331 C1323 1.433 . S
C1331 N1333 1.384 . S
N1332 C1328 1.427 . S
N1332 C1329 1.384 . S
N1333 C1325 1.427 . S
N1333 C1331 1.384 . S
H1334 C1340 0.930 . S
H1335 C1344 0.930 . S
H1336 C1349 0.929 . S
H1337 C1347 0.929 . S
H1338 C1342 0.929 . S
H1339 C1348 0.929 . S
C1340 H1334 0.930 . S
C1340 C1341 1.367 . S
C1340 C1348 1.378 . S
C1341 C1340 1.367 . S
C1341 C1349 1.433 . S
C1342 H1338 0.929 . S
C1342 C1344 1.378 . S
C1342 C1346 1.350 . S
C1343 C1346 1.463 . S
C1343 C1348 1.350 . S
C1343 N1351 1.427 . S
C1344 H1335 0.930 . S
C1344 C1342 1.378 . S
C1344 C1345 1.367 . S
C1345 C1344 1.367 . S
C1345 C1347 1.433 . S
C1346 C1342 1.350 . S
C1346 C1343 1.463 . S
C1346 N1350 1.427 . S
C1347 H1337 0.929 . S
C1347 C1345 1.433 . S
C1347 N1350 1.384 . S
C1348 H1339 0.929 . S
C1348 C1340 1.378 . S
C1348 C1343 1.350 . S
C1349 H1336 0.929 . S
C1349 C1341 1.433 . S
C1349 N1351 1.384 . S
N1350 C1346 1.427 . S
N1350 C1347 1.384 . S
N1351 C1343 1.427 . S
N1351 C1349 1.384 . S
H1352 C1358 0.930 . S
H1353 C1362 0.930 . S
H1354 C1367 0.929 . S
H1355 C1365 0.929 . S
H1356 C1360 0.929 . S
H1357 C1366 0.929 . S
C1358 H1352 0.930 . S
C1358 C1359 1.367 . S
C1358 C1366 1.378 . S
C1359 C1358 1.367 . S
C1359 C1367 1.433 . S
C1360 H1356 0.929 . S
C1360 C1362 1.378 . S
C1360 C1364 1.350 . S
C1361 C1364 1.463 . S
C1361 C1366 1.350 . S
C1361 N1369 1.427 . S
C1362 H1353 0.930 . S
C1362 C1360 1.378 . S
C1362 C1363 1.367 . S
C1363 C1362 1.367 . S
C1363 C1365 1.433 . S
C1364 C1360 1.350 . S
C1364 C1361 1.463 . S
C1364 N1368 1.427 . S
C1365 H1355 0.929 . S
C1365 C1363 1.433 . S
C1365 N1368 1.384 . S
C1366 H1357 0.929 . S
C1366 C1358 1.378 . S
C1366 C1361 1.350 . S
C1367 H1354 0.929 . S
C1367 C1359 1.433 . S
C1367 N1369 1.384 . S
N1368 C1364 1.427 . S
N1368 C1365 1.384 . S
N1369 C1361 1.427 . S
N1369 C1367 1.384 . S
H1370 C1376 0.930 . S
H1371 C1380 0.930 . S
H1372 C1385 0.929 . S
H1373 C1383 0.929 . S
H1374 C1378 0.929 . S
H1375 C1384 0.929 . S
C1376 H1370 0.930 . S
C1376 C1377 1.367 . S
C1376 C1384 1.378 . S
C1377 C1376 1.367 . S
C1377 C1385 1.433 . S
C1378 H1374 0.929 . S
C1378 C1380 1.378 . S
C1378 C1382 1.350 . S
C1379 C1382 1.463 . S
C1379 C1384 1.350 . S
C1379 N1387 1.427 . S
C1380 H1371 0.930 . S
C1380 C1378 1.378 . S
C1380 C1381 1.367 . S
C1381 C1380 1.367 . S
C1381 C1383 1.433 . S
C1382 C1378 1.350 . S
C1382 C1379 1.463 . S
C1382 N1386 1.427 . S
C1383 H1373 0.929 . S
C1383 C1381 1.433 . S
C1383 N1386 1.384 . S
C1384 H1375 0.929 . S
C1384 C1376 1.378 . S
C1384 C1379 1.350 . S
C1385 H1372 0.929 . S
C1385 C1377 1.433 . S
C1385 N1387 1.384 . S
N1386 C1382 1.427 . S
N1386 C1383 1.384 . S
N1387 C1379 1.427 . S
N1387 C1385 1.384 . S
H1388 C1394 0.930 . S
H1389 C1398 0.930 . S
H1390 C1403 0.929 . S
H1391 C1401 0.929 . S
H1392 C1396 0.929 . S
H1393 C1402 0.929 . S
C1394 H1388 0.930 . S
C1394 C1395 1.367 . S
C1394 C1402 1.378 . S
C1395 C1394 1.367 . S
C1395 C1403 1.433 . S
C1396 H1392 0.929 . S
C1396 C1398 1.378 . S
C1396 C1400 1.350 . S
C1397 C1400 1.463 . S
C1397 C1402 1.350 . S
C1397 N1405 1.427 . S
C1398 H1389 0.930 . S
C1398 C1396 1.378 . S
C1398 C1399 1.367 . S
C1399 C1398 1.367 . S
C1399 C1401 1.433 . S
C1400 C1396 1.350 . S
C1400 C1397 1.463 . S
C1400 N1404 1.427 . S
C1401 H1391 0.929 . S
C1401 C1399 1.433 . S
C1401 N1404 1.384 . S
C1402 H1393 0.929 . S
C1402 C1394 1.378 . S
C1402 C1397 1.350 . S
C1403 H1390 0.929 . S
C1403 C1395 1.433 . S
C1403 N1405 1.384 . S
N1404 C1400 1.427 . S
N1404 C1401 1.384 . S
N1405 C1397 1.427 . S
N1405 C1403 1.384 . S
H1406 C1412 0.930 . S
H1407 C1416 0.930 . S
H1408 C1421 0.929 . S
H1409 C1419 0.929 . S
H1410 C1414 0.929 . S
H1411 C1420 0.929 . S
C1412 H1406 0.930 . S
C1412 C1413 1.367 . S
C1412 C1420 1.378 . S
C1413 C1412 1.367 . S
C1413 C1421 1.433 . S
C1414 H1410 0.929 . S
C1414 C1416 1.378 . S
C1414 C1418 1.350 . S
C1415 C1418 1.463 . S
C1415 C1420 1.350 . S
C1415 N1423 1.427 . S
C1416 H1407 0.930 . S
C1416 C1414 1.378 . S
C1416 C1417 1.367 . S
C1417 C1416 1.367 . S
C1417 C1419 1.433 . S
C1418 C1414 1.350 . S
C1418 C1415 1.463 . S
C1418 N1422 1.427 . S
C1419 H1409 0.929 . S
C1419 C1417 1.433 . S
C1419 N1422 1.384 . S
C1420 H1411 0.929 . S
C1420 C1412 1.378 . S
C1420 C1415 1.350 . S
C1421 H1408 0.929 . S
C1421 C1413 1.433 . S
C1421 N1423 1.384 . S
N1422 C1418 1.427 . S
N1422 C1419 1.384 . S
N1423 C1415 1.427 . S
N1423 C1421 1.384 . S
H1424 C1430 0.930 . S
H1425 C1434 0.930 . S
H1426 C1439 0.929 . S
H1427 C1437 0.929 . S
H1428 C1432 0.929 . S
H1429 C1438 0.929 . S
C1430 H1424 0.930 . S
C1430 C1431 1.367 . S
C1430 C1438 1.378 . S
C1431 C1430 1.367 . S
C1431 C1439 1.433 . S
C1432 H1428 0.929 . S
C1432 C1434 1.378 . S
C1432 C1436 1.350 . S
C1433 C1436 1.463 . S
C1433 C1438 1.350 . S
C1433 N1441 1.427 . S
C1434 H1425 0.930 . S
C1434 C1432 1.378 . S
C1434 C1435 1.367 . S
C1435 C1434 1.367 . S
C1435 C1437 1.433 . S
C1436 C1432 1.350 . S
C1436 C1433 1.463 . S
C1436 N1440 1.427 . S
C1437 H1427 0.929 . S
C1437 C1435 1.433 . S
C1437 N1440 1.384 . S
C1438 H1429 0.929 . S
C1438 C1430 1.378 . S
C1438 C1433 1.350 . S
C1439 H1426 0.929 . S
C1439 C1431 1.433 . S
C1439 N1441 1.384 . S
N1440 C1436 1.427 . S
N1440 C1437 1.384 . S
N1441 C1433 1.427 . S
N1441 C1439 1.384 . S
H1442 C1448 0.930 . S
H1443 C1452 0.930 . S
H1444 C1457 0.929 . S
H1445 C1455 0.929 . S
H1446 C1450 0.929 . S
H1447 C1456 0.929 . S
C1448 H1442 0.930 . S
C1448 C1449 1.367 . S
C1448 C1456 1.378 . S
C1449 C1448 1.367 . S
C1449 C1457 1.433 . S
C1450 H1446 0.929 . S
C1450 C1452 1.378 . S
C1450 C1454 1.350 . S
C1451 C1454 1.463 . S
C1451 C1456 1.350 . S
C1451 N1459 1.427 . S
C1452 H1443 0.930 . S
C1452 C1450 1.378 . S
C1452 C1453 1.367 . S
C1453 C1452 1.367 . S
C1453 C1455 1.433 . S
C1454 C1450 1.350 . S
C1454 C1451 1.463 . S
C1454 N1458 1.427 . S
C1455 H1445 0.929 . S
C1455 C1453 1.433 . S
C1455 N1458 1.384 . S
C1456 H1447 0.929 . S
C1456 C1448 1.378 . S
C1456 C1451 1.350 . S
C1457 H1444 0.929 . S
C1457 C1449 1.433 . S
C1457 N1459 1.384 . S
N1458 C1454 1.427 . S
N1458 C1455 1.384 . S
N1459 C1451 1.427 . S
N1459 C1457 1.384 . S
H1460 C1466 0.930 . S
H1461 C1470 0.930 . S
H1462 C1475 0.929 . S
H1463 C1473 0.929 . S
H1464 C1468 0.929 . S
H1465 C1474 0.929 . S
C1466 H1460 0.930 . S
C1466 C1467 1.367 . S
C1466 C1474 1.378 . S
C1467 C1466 1.367 . S
C1467 C1475 1.433 . S
C1468 H1464 0.929 . S
C1468 C1470 1.378 . S
C1468 C1472 1.350 . S
C1469 C1472 1.463 . S
C1469 C1474 1.350 . S
C1469 N1477 1.427 . S
C1470 H1461 0.930 . S
C1470 C1468 1.378 . S
C1470 C1471 1.367 . S
C1471 C1470 1.367 . S
C1471 C1473 1.433 . S
C1472 C1468 1.350 . S
C1472 C1469 1.463 . S
C1472 N1476 1.427 . S
C1473 H1463 0.929 . S
C1473 C1471 1.433 . S
C1473 N1476 1.384 . S
C1474 H1465 0.929 . S
C1474 C1466 1.378 . S
C1474 C1469 1.350 . S
C1475 H1462 0.929 . S
C1475 C1467 1.433 . S
C1475 N1477 1.384 . S
N1476 C1472 1.427 . S
N1476 C1473 1.384 . S
N1477 C1469 1.427 . S
N1477 C1475 1.384 . S
H1478 C1484 0.930 . S
H1479 C1488 0.930 . S
H1480 C1493 0.929 . S
H1481 C1491 0.929 . S
H1482 C1486 0.929 . S
H1483 C1492 0.929 . S
C1484 H1478 0.930 . S
C1484 C1485 1.367 . S
C1484 C1492 1.378 . S
C1485 C1484 1.367 . S
C1485 C1493 1.433 . S
C1486 H1482 0.929 . S
C1486 C1488 1.378 . S
C1486 C1490 1.350 . S
C1487 C1490 1.463 . S
C1487 C1492 1.350 . S
C1487 N1495 1.427 . S
C1488 H1479 0.930 . S
C1488 C1486 1.378 . S
C1488 C1489 1.367 . S
C1489 C1488 1.367 . S
C1489 C1491 1.433 . S
C1490 C1486 1.350 . S
C1490 C1487 1.463 . S
C1490 N1494 1.427 . S
C1491 H1481 0.929 . S
C1491 C1489 1.433 . S
C1491 N1494 1.384 . S
C1492 H1483 0.929 . S
C1492 C1484 1.378 . S
C1492 C1487 1.350 . S
C1493 H1480 0.929 . S
C1493 C1485 1.433 . S
C1493 N1495 1.384 . S
N1494 C1490 1.427 . S
N1494 C1491 1.384 . S
N1495 C1487 1.427 . S
N1495 C1493 1.384 . S
H1496 C1502 0.930 . S
H1497 C1506 0.930 . S
H1498 C1511 0.929 . S
H1499 C1509 0.929 . S
H1500 C1504 0.929 . S
H1501 C1510 0.929 . S
C1502 H1496 0.930 . S
C1502 C1503 1.367 . S
C1502 C1510 1.378 . S
C1503 C1502 1.367 . S
C1503 C1511 1.433 . S
C1504 H1500 0.929 . S
C1504 C1506 1.378 . S
C1504 C1508 1.350 . S
C1505 C1508 1.463 . S
C1505 C1510 1.350 . S
C1505 N1513 1.427 . S
C1506 H1497 0.930 . S
C1506 C1504 1.378 . S
C1506 C1507 1.367 . S
C1507 C1506 1.367 . S
C1507 C1509 1.433 . S
C1508 C1504 1.350 . S
C1508 C1505 1.463 . S
C1508 N1512 1.427 . S
C1509 H1499 0.929 . S
C1509 C1507 1.433 . S
C1509 N1512 1.384 . S
C1510 H1501 0.929 . S
C1510 C1502 1.378 . S
C1510 C1505 1.350 . S
C1511 H1498 0.929 . S
C1511 C1503 1.433 . S
C1511 N1513 1.384 . S
N1512 C1508 1.427 . S
N1512 C1509 1.384 . S
N1513 C1505 1.427 . S
N1513 C1511 1.384 . S
H1514 C1520 0.930 . S
H1515 C1524 0.930 . S
H1516 C1529 0.929 . S
H1517 C1527 0.929 . S
H1518 C1522 0.929 . S
H1519 C1528 0.929 . S
C1520 H1514 0.930 . S
C1520 C1521 1.367 . S
C1520 C1528 1.378 . S
C1521 C1520 1.367 . S
C1521 C1529 1.433 . S
C1522 H1518 0.929 . S
C1522 C1524 1.378 . S
C1522 C1526 1.350 . S
C1523 C1526 1.463 . S
C1523 C1528 1.350 . S
C1523 N1531 1.427 . S
C1524 H1515 0.930 . S
C1524 C1522 1.378 . S
C1524 C1525 1.367 . S
C1525 C1524 1.367 . S
C1525 C1527 1.433 . S
C1526 C1522 1.350 . S
C1526 C1523 1.463 . S
C1526 N1530 1.427 . S
C1527 H1517 0.929 . S
C1527 C1525 1.433 . S
C1527 N1530 1.384 . S
C1528 H1519 0.929 . S
C1528 C1520 1.378 . S
C1528 C1523 1.350 . S
C1529 H1516 0.929 . S
C1529 C1521 1.433 . S
C1529 N1531 1.384 . S
N1530 C1526 1.427 . S
N1530 C1527 1.384 . S
N1531 C1523 1.427 . S
N1531 C1529 1.384 . S
H1532 C1538 0.930 . S
H1533 C1542 0.930 . S
H1534 C1547 0.929 . S
H1535 C1545 0.929 . S
H1536 C1540 0.929 . S
H1537 C1546 0.929 . S
C1538 H1532 0.930 . S
C1538 C1539 1.367 . S
C1538 C1546 1.378 . S
C1539 C1538 1.367 . S
C1539 C1547 1.433 . S
C1540 H1536 0.929 . S
C1540 C1542 1.378 . S
C1540 C1544 1.350 . S
C1541 C1544 1.463 . S
C1541 C1546 1.350 . S
C1541 N1549 1.427 . S
C1542 H1533 0.930 . S
C1542 C1540 1.378 . S
C1542 C1543 1.367 . S
C1543 C1542 1.367 . S
C1543 C1545 1.433 . S
C1544 C1540 1.350 . S
C1544 C1541 1.463 . S
C1544 N1548 1.427 . S
C1545 H1535 0.929 . S
C1545 C1543 1.433 . S
C1545 N1548 1.384 . S
C1546 H1537 0.929 . S
C1546 C1538 1.378 . S
C1546 C1541 1.350 . S
C1547 H1534 0.929 . S
C1547 C1539 1.433 . S
C1547 N1549 1.384 . S
N1548 C1544 1.427 . S
N1548 C1545 1.384 . S
N1549 C1541 1.427 . S
N1549 C1547 1.384 . S
H1550 C1556 0.930 . S
H1551 C1560 0.930 . S
H1552 C1565 0.929 . S
H1553 C1563 0.929 . S
H1554 C1558 0.929 . S
H1555 C1564 0.929 . S
C1556 H1550 0.930 . S
C1556 C1557 1.367 . S
C1556 C1564 1.378 . S
C1557 C1556 1.367 . S
C1557 C1565 1.433 . S
C1558 H1554 0.929 . S
C1558 C1560 1.378 . S
C1558 C1562 1.350 . S
C1559 C1562 1.463 . S
C1559 C1564 1.350 . S
C1559 N1567 1.427 . S
C1560 H1551 0.930 . S
C1560 C1558 1.378 . S
C1560 C1561 1.367 . S
C1561 C1560 1.367 . S
C1561 C1563 1.433 . S
C1562 C1558 1.350 . S
C1562 C1559 1.463 . S
C1562 N1566 1.427 . S
C1563 H1553 0.929 . S
C1563 C1561 1.433 . S
C1563 N1566 1.384 . S
C1564 H1555 0.929 . S
C1564 C1556 1.378 . S
C1564 C1559 1.350 . S
C1565 H1552 0.929 . S
C1565 C1557 1.433 . S
C1565 N1567 1.384 . S
N1566 C1562 1.427 . S
N1566 C1563 1.384 . S
N1567 C1559 1.427 . S
N1567 C1565 1.384 . S
C423 C44 0.847 . S
C427 C5 0.848 . S
C441 C31 0.859 . S
C445 C18 0.857 . S
C459 C96 0.885 . S
C463 C57 0.885 . S
C477 C83 0.848 . S
C481 C70 0.848 . S
C495 C109 0.876 . S
C499 C148 0.877 . S
C513 C122 0.881 . S
C517 C135 0.882 . S
C531 C200 0.868 . S
C535 C161 0.870 . S
C549 C174 0.855 . S
C553 C187 0.854 . S
C567 C213 0.866 . S
C571 C252 0.864 . S
C585 C226 0.884 . S
C589 C239 0.884 . S
C603 C304 0.864 . S
C607 C265 0.866 . S
C621 C291 0.860 . S
C625 C278 0.861 . S
C639 C356 0.846 . S
C643 C317 0.846 . S
C657 C330 0.861 . S
C661 C343 0.859 . S
C675 C369 0.883 . S
C679 C408 0.883 . S
C693 C382 0.881 . S
C697 C395 0.880 . S
C711 C270 1.141 . S
C715 C10 1.141 . S
C729 C179 1.152 . S
C733 C23 1.152 . S
C747 C36 1.138 . S
C751 C400 1.138 . S
C765 C49 1.152 . S
C769 C101 1.152 . S
C783 C218 1.152 . S
C787 C62 1.152 . S
C801 C127 1.146 . S
C805 C75 1.146 . S
C819 C348 1.140 . S
C823 C88 1.140 . S
C837 C114 1.141 . S
C841 C374 1.141 . S
C855 C296 1.139 . S
C859 C140 1.139 . S
C873 C205 1.138 . S
C877 C153 1.138 . S
C891 C322 1.149 . S
C895 C166 1.149 . S
C909 C192 1.147 . S
C913 C244 1.147 . S
C927 C387 1.149 . S
C931 C231 1.149 . S
C945 C257 1.149 . S
C949 C309 1.149 . S
C963 C335 1.138 . S
C967 C283 1.138 . S
C981 C413 1.150 . S
C985 C361 1.150 . S
C999 C21 1.241 . S
C1003 C8 1.259 . S
C1017 C34 1.259 . S
C1021 C47 1.247 . S
C1035 C60 1.246 . S
C1039 C73 1.260 . S
C1053 C99 1.243 . S
C1057 C86 1.260 . S
C1071 C112 1.240 . S
C1075 C125 1.252 . S
C1089 C138 1.259 . S
C1093 C151 1.241 . S
C1107 C177 1.257 . S
C1111 C164 1.239 . S
C1125 C190 1.244 . S
C1129 C203 1.260 . S
C1143 C216 1.257 . S
C1147 C229 1.239 . S
C1161 C242 1.241 . S
C1165 C255 1.259 . S
C1179 C268 1.257 . S
C1183 C281 1.239 . S
C1197 C307 1.242 . S
C1201 C294 1.260 . S
C1215 C333 1.260 . S
C1219 C320 1.243 . S
C1233 C346 1.239 . S
C1237 C359 1.256 . S
C1251 C372 1.243 . S
C1255 C385 1.260 . S
C1269 C411 1.255 . S
C1273 C398 1.239 . S
C1287 C0 1.464 1_655 S
C1291 C247 1.468 . S
C1305 C13 1.466 . S
C1309 C234 1.470 . S
C1323 C221 1.465 . S
C1327 C26 1.469 1_655 S
C1341 C39 1.464 . S
C1345 C208 1.467 . S
C1359 C299 1.472 . S
C1363 C52 1.467 1_455 S
C1377 C65 1.469 . S
C1381 C286 1.474 . S
C1395 C273 1.468 . S
C1399 C78 1.473 1_455 S
C1413 C91 1.465 . S
C1417 C260 1.469 . S
C1431 C104 1.465 1_655 S
C1435 C351 1.469 . S
C1449 C117 1.477 . S
C1453 C338 1.474 . S
C1467 C130 1.473 1_655 S
C1471 C325 1.467 . S
C1485 C312 1.466 . S
C1489 C143 1.471 . S
C1503 C156 1.471 1_455 S
C1507 C403 1.466 . S
C1521 C169 1.475 . S
C1525 C390 1.470 . S
C1539 C182 1.471 1_455 S
C1543 C377 1.476 . S
C1557 C364 1.469 . S
C1561 C195 1.465 . S
