# Generated by pormake.
# Topology whc, (6)-cn, num edge types: 1
# Building blocks:
#     Node 0, Type 0, BuildingBlock: OJICUG_clean_sbu_0, # of connection points: 6
#     Node 1, Type 0, BuildingBlock: OJICUG_clean_sbu_0, # of connection points: 6
#     Node 2, Type 0, BuildingBlock: OJICUG_clean_sbu_0, # of connection points: 6
#     Node 3, Type 0, BuildingBlock: OJICUG_clean_sbu_0, # of connection points: 6
#     Node 4, Type 0, BuildingBlock: OJICUG_clean_sbu_0, # of connection points: 6
#     Node 5, Type 0, BuildingBlock: OJICUG_clean_sbu_0, # of connection points: 6
#     Node 6, Type 0, BuildingBlock: OJICUG_clean_sbu_0, # of connection points: 6
#     Node 7, Type 0, BuildingBlock: OJICUG_clean_sbu_0, # of connection points: 6
#     Edge 8, Type (0, 0), BuildingBlock: XUDNAN_clean_linker_2, # of connection points: 2
#     Edge 9, Type (0, 0), BuildingBlock: XUDNAN_clean_linker_2, # of connection points: 2
#     Edge 10, Type (0, 0), BuildingBlock: XUDNAN_clean_linker_2, # of connection points: 2
#     Edge 11, Type (0, 0), BuildingBlock: XUDNAN_clean_linker_2, # of connection points: 2
#     Edge 12, Type (0, 0), BuildingBlock: XUDNAN_clean_linker_2, # of connection points: 2
#     Edge 13, Type (0, 0), BuildingBlock: XUDNAN_clean_linker_2, # of connection points: 2
#     Edge 14, Type (0, 0), BuildingBlock: XUDNAN_clean_linker_2, # of connection points: 2
#     Edge 15, Type (0, 0), BuildingBlock: XUDNAN_clean_linker_2, # of connection points: 2
#     Edge 16, Type (0, 0), BuildingBlock: XUDNAN_clean_linker_2, # of connection points: 2
#     Edge 17, Type (0, 0), BuildingBlock: XUDNAN_clean_linker_2, # of connection points: 2
#     Edge 18, Type (0, 0), BuildingBlock: XUDNAN_clean_linker_2, # of connection points: 2
#     Edge 19, Type (0, 0), BuildingBlock: XUDNAN_clean_linker_2, # of connection points: 2
#     Edge 20, Type (0, 0), BuildingBlock: XUDNAN_clean_linker_2, # of connection points: 2
#     Edge 21, Type (0, 0), BuildingBlock: XUDNAN_clean_linker_2, # of connection points: 2
#     Edge 22, Type (0, 0), BuildingBlock: XUDNAN_clean_linker_2, # of connection points: 2
#     Edge 23, Type (0, 0), BuildingBlock: XUDNAN_clean_linker_2, # of connection points: 2
#     Edge 24, Type (0, 0), BuildingBlock: XUDNAN_clean_linker_2, # of connection points: 2
#     Edge 25, Type (0, 0), BuildingBlock: XUDNAN_clean_linker_2, # of connection points: 2
#     Edge 26, Type (0, 0), BuildingBlock: XUDNAN_clean_linker_2, # of connection points: 2
#     Edge 27, Type (0, 0), BuildingBlock: XUDNAN_clean_linker_2, # of connection points: 2
#     Edge 28, Type (0, 0), BuildingBlock: XUDNAN_clean_linker_2, # of connection points: 2
#     Edge 29, Type (0, 0), BuildingBlock: XUDNAN_clean_linker_2, # of connection points: 2
#     Edge 30, Type (0, 0), BuildingBlock: XUDNAN_clean_linker_2, # of connection points: 2
#     Edge 31, Type (0, 0), BuildingBlock: XUDNAN_clean_linker_2, # of connection points: 2
# Relax obj value: 0.339
# Max RMSD: 0.283
# Mean RMSD: 0.283
data_MOF--net-whc--node1-OJICUG_clean_sbu_0--edge1-XUDNAN_clean_linker_2
_symmetry_space_group_name_H-M    P1
_symmetry_Int_Tables_number       1
_symmetry_cell_setting            triclinic
loop_
_symmetry_equiv_pos_as_xyz
'x, y, z'
_cell_length_a     35.370881
_cell_length_b     35.274752
_cell_length_c     31.009528
_cell_angle_alpha  89.995024
_cell_angle_beta   89.996406
_cell_angle_gamma 89.932952
loop_
_atom_site_label
_atom_site_type_symbol
_atom_site_fract_x
_atom_site_fract_y
_atom_site_fract_z
_atom_type_partial_charge
Sc0 Sc 0.42992 0.26829 0.13249 0.0
Sc1 Sc 0.40835 0.1908 0.06457 0.0
Sc2 Sc 0.49574 0.19509 0.11974 0.0
O3 O 0.44451 0.21798 0.10557 0.0
C4 C 0.51751 0.28212 0.11708 0.0
C5 C 0.40075 0.27761 0.0365 0.0
C6 C 0.48901 0.18011 0.01945 0.0
C7 C 0.35083 0.22446 0.13302 0.0
C8 C 0.46544 0.22231 0.21118 0.0
C9 C 0.44339 0.12176 0.11534 0.0
O10 O 0.484 0.29449 0.12036 0.0
O11 O 0.39765 0.24235 0.0285 0.0
O12 O 0.5093 0.18779 0.05219 0.0
O13 O 0.37354 0.24989 0.14583 0.0
O14 O 0.48555 0.20045 0.18789 0.0
O15 O 0.41571 0.13614 0.09499 0.0
O16 O 0.44531 0.249 0.19587 0.0
O17 O 0.35903 0.20007 0.1044 0.0
O18 O 0.47342 0.13954 0.12405 0.0
O19 O 0.4121 0.29075 0.07229 0.0
O20 O 0.52572 0.24727 0.11779 0.0
O21 O 0.45315 0.17857 0.02019 0.0
Sc22 Sc 0.25426 0.56084 0.84401 0.0
Sc23 Sc 0.18604 0.60021 0.91442 0.0
Sc24 Sc 0.18755 0.50218 0.89345 0.0
O25 O 0.20912 0.55454 0.88372 0.0
C26 C 0.20126 0.50615 0.79105 0.0
C27 C 0.21014 0.63876 0.82704 0.0
C28 C 0.11404 0.55411 0.88654 0.0
C29 C 0.27535 0.6078 0.92787 0.0
C30 C 0.27382 0.4811 0.88605 0.0
C31 C 0.18141 0.53638 0.9875 0.0
O32 O 0.22564 0.53259 0.79269 0.0
O33 O 0.19012 0.63807 0.86073 0.0
O34 O 0.13149 0.52277 0.88783 0.0
O35 O 0.28433 0.58844 0.89479 0.0
O36 O 0.24105 0.47601 0.90108 0.0
O37 O 0.17844 0.57003 0.97355 0.0
O38 O 0.28265 0.5092 0.86276 0.0
O39 O 0.24141 0.61636 0.93803 0.0
O40 O 0.18694 0.50812 0.96288 0.0
O41 O 0.23442 0.61359 0.81796 0.0
O42 O 0.18648 0.49122 0.82455 0.0
O43 O 0.1294 0.58614 0.89342 0.0
Sc44 Sc 0.56121 0.72567 0.12143 0.0
Sc45 Sc 0.58458 0.80772 0.06501 0.0
Sc46 Sc 0.49813 0.80087 0.12 0.0
O47 O 0.54789 0.77836 0.10231 0.0
C48 C 0.47289 0.71695 0.1045 0.0
C49 C 0.58876 0.72392 0.02701 0.0
C50 C 0.50691 0.82376 0.01995 0.0
C51 C 0.64027 0.76987 0.12792 0.0
C52 C 0.52902 0.76109 0.20638 0.0
C53 C 0.54857 0.87304 0.12342 0.0
O54 O 0.50453 0.70339 0.1162 0.0
O55 O 0.60267 0.75717 0.02987 0.0
O56 O 0.48768 0.82253 0.05484 0.0
O57 O 0.62032 0.73988 0.12862 0.0
O58 O 0.50465 0.78108 0.18613 0.0
O59 O 0.57014 0.86231 0.09293 0.0
O60 O 0.55353 0.74068 0.18744 0.0
O61 O 0.6293 0.80078 0.11111 0.0
O62 O 0.52435 0.85164 0.14082 0.0
O63 O 0.56857 0.7092 0.05623 0.0
O64 O 0.46701 0.75218 0.10114 0.0
O65 O 0.54195 0.81616 0.01769 0.0
Sc66 Sc 0.73021 0.43112 0.85691 0.0
Sc67 Sc 0.80613 0.39054 0.91546 0.0
Sc68 Sc 0.8029 0.48861 0.89608 0.0
O69 O 0.77971 0.43666 0.88934 0.0
C70 C 0.7788 0.48581 0.79711 0.0
C71 C 0.77293 0.35466 0.83005 0.0
C72 C 0.87514 0.43623 0.88005 0.0
C73 C 0.71906 0.38106 0.94156 0.0
C74 C 0.71641 0.51196 0.89958 0.0
C75 C 0.81736 0.45395 0.98815 0.0
O76 O 0.75241 0.46166 0.80231 0.0
O77 O 0.79569 0.35362 0.86153 0.0
O78 O 0.85821 0.46749 0.8853 0.0
O79 O 0.70579 0.40033 0.91021 0.0
O80 O 0.75108 0.5175 0.90706 0.0
O81 O 0.82047 0.42042 0.97363 0.0
O82 O 0.70424 0.48177 0.88231 0.0
O83 O 0.75422 0.37438 0.94659 0.0
O84 O 0.80821 0.48208 0.96473 0.0
O85 O 0.74835 0.38046 0.82528 0.0
O86 O 0.79895 0.49845 0.82794 0.0
O87 O 0.86018 0.40412 0.88708 0.0
Sc88 Sc 0.49777 0.17195 0.61714 0.0
Sc89 Sc 0.58273 0.19065 0.56592 0.0
Sc90 Sc 0.5447 0.25627 0.63742 0.0
O91 O 0.54117 0.2067 0.6067 0.0
C92 C 0.4564 0.25101 0.616 0.0
C93 C 0.51007 0.17488 0.51409 0.0
C94 C 0.58049 0.27947 0.55116 0.0
C95 C 0.5547 0.11077 0.59888 0.0
C96 C 0.51688 0.20126 0.71187 0.0
C97 C 0.62883 0.22023 0.64163 0.0
O98 O 0.45673 0.21555 0.60945 0.0
O99 O 0.54253 0.19046 0.51527 0.0
O100 O 0.55404 0.2853 0.57786 0.0
O101 O 0.53628 0.12668 0.62846 0.0
O102 O 0.5353 0.23031 0.69962 0.0
O103 O 0.62273 0.19138 0.6179 0.0
O104 O 0.49966 0.17942 0.68583 0.0
O105 O 0.57203 0.13023 0.57086 0.0
O106 O 0.60503 0.24724 0.64685 0.0
O107 O 0.49266 0.16244 0.54748 0.0
O108 O 0.48528 0.26967 0.62826 0.0
O109 O 0.59857 0.24832 0.54971 0.0
Sc110 Sc 0.19209 0.48304 0.39326 0.0
Sc111 Sc 0.17768 0.38512 0.40892 0.0
Sc112 Sc 0.25865 0.41856 0.35352 0.0
O113 O 0.20933 0.4288 0.38508 0.0
C114 C 0.21787 0.48101 0.29496 0.0
C115 C 0.11282 0.44136 0.38081 0.0
C116 C 0.20561 0.35075 0.32026 0.0
C117 C 0.17528 0.44658 0.4848 0.0
C118 C 0.28093 0.4945 0.40215 0.0
C119 C 0.2626 0.36105 0.43242 0.0
O120 O 0.19774 0.49413 0.32557 0.0
O121 O 0.1241 0.40766 0.38737 0.0
O122 O 0.23418 0.37244 0.31834 0.0
O123 O 0.18501 0.47484 0.46174 0.0
O124 O 0.29009 0.46318 0.38501 0.0
O125 O 0.22689 0.35832 0.43597 0.0
O126 O 0.24697 0.50515 0.40602 0.0
O127 O 0.17045 0.41343 0.46965 0.0
O128 O 0.27855 0.38188 0.4043 0.0
O129 O 0.13434 0.46989 0.38256 0.0
O130 O 0.24208 0.4546 0.30015 0.0
O131 O 0.18173 0.35161 0.35083 0.0
Sc132 Sc 0.49833 0.79621 0.61783 0.0
Sc133 Sc 0.40877 0.78461 0.56886 0.0
Sc134 Sc 0.43771 0.72504 0.65452 0.0
O135 O 0.44808 0.7688 0.61373 0.0
C136 C 0.52413 0.71078 0.63188 0.0
C137 C 0.48627 0.78842 0.51635 0.0
C138 C 0.40326 0.69415 0.56651 0.0
C139 C 0.44241 0.86431 0.5958 0.0
C140 C 0.47604 0.7861 0.71667 0.0
C141 C 0.35805 0.76826 0.65091 0.0
O142 O 0.53079 0.74552 0.62495 0.0
O143 O 0.45047 0.78665 0.51907 0.0
O144 O 0.41721 0.68927 0.60378 0.0
O145 O 0.47282 0.8502 0.61011 0.0
O146 O 0.45715 0.75603 0.71004 0.0
O147 O 0.36292 0.78386 0.61442 0.0
O148 O 0.49248 0.80419 0.68653 0.0
O149 O 0.41573 0.84467 0.57998 0.0
O150 O 0.38228 0.74664 0.66869 0.0
O151 O 0.50792 0.79102 0.54905 0.0
O152 O 0.49171 0.69873 0.64278 0.0
O153 O 0.39765 0.72674 0.55019 0.0
Sc154 Sc 0.79942 0.50405 0.39541 0.0
Sc155 Sc 0.79572 0.60235 0.41685 0.0
Sc156 Sc 0.72715 0.559 0.35025 0.0
O157 O 0.7743 0.55523 0.38733 0.0
C158 C 0.78086 0.50584 0.29465 0.0
C159 C 0.87025 0.55978 0.38822 0.0
C160 C 0.76892 0.63698 0.32793 0.0
C161 C 0.80583 0.53893 0.48936 0.0
C162 C 0.71339 0.47894 0.39517 0.0
C163 C 0.7066 0.60778 0.43317 0.0
O164 O 0.7989 0.49316 0.32711 0.0
O165 O 0.85322 0.59046 0.39756 0.0
O166 O 0.74507 0.61095 0.32071 0.0
O167 O 0.80244 0.51041 0.46458 0.0
O168 O 0.70188 0.50779 0.3746 0.0
O169 O 0.7405 0.6175 0.44145 0.0
O170 O 0.74777 0.47405 0.40508 0.0
O171 O 0.80499 0.57293 0.4761 0.0
O172 O 0.69745 0.58741 0.40102 0.0
O173 O 0.85429 0.52766 0.38733 0.0
O174 O 0.75412 0.52987 0.2977 0.0
O175 O 0.7897 0.63813 0.36115 0.0
H176 H 0.21373 0.36075 0.23494 0.0
H177 H 0.1956 0.27485 0.33208 0.0
H178 H 0.21553 0.22538 0.28047 0.0
H179 H 0.19448 0.29398 0.1336 0.0
H180 H 0.23084 0.31972 0.1053 0.0
H181 H 0.2003 0.34401 0.14284 0.0
H182 H 0.26063 0.36824 0.18325 0.0
H183 H 0.2899 0.34312 0.14606 0.0
H184 H 0.29419 0.33395 0.20308 0.0
H185 H 0.25761 0.19069 0.23032 0.0
H186 H 0.31367 0.17474 0.18593 0.0
H187 H 0.3037 0.2821 0.11988 0.0
C188 C 0.21182 0.33119 0.24418 0.0
C189 C 0.203 0.32129 0.28695 0.0
C190 C 0.20157 0.28273 0.299 0.0
C191 C 0.21295 0.25449 0.26983 0.0
C192 C 0.2247 0.2654 0.22863 0.0
C193 C 0.22303 0.30292 0.21536 0.0
C194 C 0.24372 0.30877 0.1732 0.0
C195 C 0.21567 0.3171 0.13656 0.0
C196 C 0.27387 0.34031 0.17669 0.0
C197 C 0.26137 0.27004 0.16771 0.0
C198 C 0.2489 0.2448 0.19886 0.0
C199 C 0.26636 0.20954 0.20468 0.0
C200 C 0.29815 0.20061 0.17942 0.0
C201 C 0.31208 0.22709 0.1493 0.0
C202 C 0.2925 0.26119 0.14204 0.0
H203 H 0.25054 0.70018 0.84457 0.0
H204 H 0.17504 0.65172 0.75023 0.0
H205 H 0.19263 0.70178 0.69824 0.0
H206 H 0.25022 0.80564 0.79958 0.0
H207 H 0.30011 0.80845 0.81098 0.0
H208 H 0.26932 0.78216 0.8464 0.0
H209 H 0.31194 0.72303 0.83719 0.0
H210 H 0.34236 0.74884 0.80195 0.0
H211 H 0.32122 0.70518 0.78367 0.0
H212 H 0.23094 0.74167 0.6514 0.0
H213 H 0.28921 0.76019 0.61331 0.0
H214 H 0.34475 0.77956 0.73549 0.0
C215 C 0.23612 0.70195 0.81381 0.0
C216 C 0.21081 0.67336 0.80134 0.0
C217 C 0.19369 0.67438 0.76036 0.0
C218 C 0.20346 0.70283 0.73085 0.0
C219 C 0.23071 0.72952 0.74287 0.0
C220 C 0.2467 0.72941 0.78374 0.0
C221 C 0.28198 0.75361 0.78545 0.0
C222 C 0.27496 0.78961 0.81217 0.0
C223 C 0.31634 0.73129 0.803 0.0
C224 C 0.28615 0.76315 0.73817 0.0
C225 C 0.25501 0.75134 0.7146 0.0
C226 C 0.25489 0.75208 0.66957 0.0
C227 C 0.28809 0.76266 0.64812 0.0
C228 C 0.32103 0.77122 0.67186 0.0
C229 C 0.31942 0.7736 0.71709 0.0
H230 H 0.73378 0.70431 0.33407 0.0
H231 H 0.8043 0.6363 0.25062 0.0
H232 H 0.79239 0.68055 0.19044 0.0
H233 H 0.6639 0.71369 0.26855 0.0
H234 H 0.65035 0.7618 0.28089 0.0
H235 H 0.67553 0.7345 0.32002 0.0
H236 H 0.72689 0.78687 0.32347 0.0
H237 H 0.70146 0.81402 0.28358 0.0
H238 H 0.75035 0.80182 0.27475 0.0
H239 H 0.75888 0.71785 0.13672 0.0
H240 H 0.7053 0.74274 0.09434 0.0
H241 H 0.65466 0.78743 0.21048 0.0
C242 C 0.74838 0.70038 0.30369 0.0
C243 C 0.77074 0.66797 0.29679 0.0
C244 C 0.78797 0.66182 0.2564 0.0
C245 C 0.78142 0.68689 0.2222 0.0
C246 C 0.75746 0.7178 0.22908 0.0
C247 C 0.74149 0.72492 0.26912 0.0
C248 C 0.71067 0.75465 0.2661 0.0
C249 C 0.67293 0.74021 0.28493 0.0
C250 C 0.7231 0.79153 0.28828 0.0
C251 C 0.70873 0.75979 0.21768 0.0
C252 C 0.73721 0.73975 0.19705 0.0
C253 C 0.73747 0.73493 0.15236 0.0
C254 C 0.70702 0.74917 0.12846 0.0
C255 C 0.67694 0.7679 0.14937 0.0
C256 C 0.67852 0.7747 0.19401 0.0
H257 H 0.76314 0.36159 0.74451 0.0
H258 H 0.77942 0.27861 0.8455 0.0
H259 H 0.75912 0.22781 0.79575 0.0
H260 H 0.68267 0.33503 0.71298 0.0
H261 H 0.68719 0.34165 0.65553 0.0
H262 H 0.71663 0.36812 0.69133 0.0
H263 H 0.77683 0.34237 0.65365 0.0
H264 H 0.7471 0.31654 0.61666 0.0
H265 H 0.78307 0.29202 0.64702 0.0
H266 H 0.71901 0.19124 0.745 0.0
H267 H 0.66492 0.1732 0.69852 0.0
H268 H 0.67424 0.27985 0.6307 0.0
C269 C 0.76425 0.33237 0.75521 0.0
C270 C 0.77272 0.3237 0.79842 0.0
C271 C 0.77347 0.28554 0.81214 0.0
C272 C 0.76203 0.25656 0.78403 0.0
C273 C 0.75092 0.26633 0.74223 0.0
C274 C 0.753 0.30338 0.72749 0.0
C275 C 0.73305 0.30816 0.68472 0.0
C276 C 0.70311 0.34005 0.68634 0.0
C277 C 0.76172 0.31517 0.64836 0.0
C278 C 0.71532 0.26942 0.68045 0.0
C279 C 0.72732 0.245 0.71266 0.0
C280 C 0.71046 0.20955 0.71874 0.0
C281 C 0.67977 0.1995 0.69238 0.0
C282 C 0.66608 0.22525 0.66126 0.0
C283 C 0.68498 0.25969 0.65407 0.0
H284 H 0.5307 0.2466 0.78266 0.0
H285 H 0.50501 0.13086 0.74498 0.0
H286 H 0.50689 0.1112 0.82098 0.0
H287 H 0.59288 0.22261 0.8751 0.0
H288 H 0.57496 0.26063 0.90807 0.0
H289 H 0.57639 0.26579 0.85027 0.0
H290 H 0.50461 0.28049 0.84853 0.0
H291 H 0.50322 0.27655 0.9063 0.0
H292 H 0.47209 0.24798 0.87373 0.0
H293 H 0.50497 0.10467 0.89983 0.0
H294 H 0.49306 0.11338 0.9777 0.0
H295 H 0.52 0.23266 0.9662 0.0
C296 C 0.52597 0.21706 0.79045 0.0
C297 C 0.51772 0.19029 0.75787 0.0
C298 C 0.51112 0.15197 0.76936 0.0
C299 C 0.51257 0.14039 0.81243 0.0
C300 C 0.52066 0.16739 0.84377 0.0
C301 C 0.5269 0.20501 0.83351 0.0
C302 C 0.53118 0.22886 0.8739 0.0
C303 C 0.57124 0.24545 0.877 0.0
C304 C 0.50097 0.2603 0.87571 0.0
C305 C 0.52472 0.19899 0.9083 0.0
C306 C 0.51967 0.16355 0.89009 0.0
C307 C 0.50973 0.13202 0.91466 0.0
C308 C 0.50323 0.13711 0.95878 0.0
C309 C 0.50682 0.17334 0.97764 0.0
C310 C 0.51872 0.20443 0.95251 0.0
H311 H 0.21367 0.47937 0.03637 0.0
H312 H 0.14681 0.58249 0.04533 0.0
H313 H 0.15001 0.57944 0.12441 0.0
H314 H 0.17257 0.43292 0.13091 0.0
H315 H 0.21659 0.41241 0.14845 0.0
H316 H 0.20842 0.42072 0.0919 0.0
H317 H 0.26928 0.46093 0.08699 0.0
H318 H 0.27828 0.45212 0.14325 0.0
H319 H 0.27583 0.50013 0.12349 0.0
H320 H 0.16227 0.56779 0.20122 0.0
H321 H 0.17967 0.5455 0.27362 0.0
H322 H 0.2391 0.44972 0.21692 0.0
C323 C 0.19913 0.50084 0.05506 0.0
C324 C 0.17995 0.53116 0.0347 0.0
C325 C 0.16178 0.55909 0.06022 0.0
C326 C 0.16344 0.55766 0.10517 0.0
C327 C 0.18341 0.52814 0.12423 0.0
C328 C 0.20069 0.5 0.10025 0.0
C329 C 0.22085 0.47189 0.12934 0.0
C330 C 0.20355 0.43213 0.12485 0.0
C331 C 0.26359 0.47125 0.12022 0.0
C332 C 0.21235 0.48897 0.17322 0.0
C333 C 0.1907 0.52139 0.16928 0.0
C334 C 0.17908 0.54234 0.20489 0.0
C335 C 0.1892 0.52944 0.2459 0.0
C336 C 0.21079 0.49588 0.25107 0.0
C337 C 0.22288 0.47566 0.21408 0.0
H338 H 0.46392 0.77655 0.97209 0.0
H339 H 0.51402 0.88833 0.97403 0.0
H340 H 0.50396 0.89416 0.89544 0.0
H341 H 0.50827 0.74598 0.88494 0.0
H342 H 0.47079 0.71854 0.86099 0.0
H343 H 0.47115 0.72664 0.91817 0.0
H344 H 0.40423 0.75642 0.91498 0.0
H345 H 0.40295 0.74701 0.85786 0.0
H346 H 0.39479 0.79437 0.87757 0.0
H347 H 0.50179 0.88216 0.81642 0.0
H348 H 0.50118 0.85611 0.7426 0.0
H349 H 0.45319 0.75126 0.79149 0.0
C350 C 0.47041 0.80312 0.95619 0.0
C351 C 0.48848 0.83258 0.97889 0.0
C352 C 0.49896 0.86612 0.95709 0.0
C353 C 0.49359 0.8695 0.91248 0.0
C354 C 0.47771 0.83902 0.89035 0.0
C355 C 0.46544 0.80674 0.91156 0.0
C356 C 0.45411 0.77613 0.87978 0.0
C357 C 0.47749 0.73971 0.88638 0.0
C358 C 0.41148 0.76802 0.88272 0.0
C359 C 0.46397 0.79542 0.83763 0.0
C360 C 0.47701 0.83184 0.84436 0.0
C361 C 0.49076 0.85401 0.81063 0.0
C362 C 0.4907 0.83879 0.76884 0.0
C363 C 0.47713 0.80161 0.76111 0.0
C364 C 0.46345 0.77988 0.79614 0.0
H365 H 0.76127 0.53719 0.21695 0.0
H366 H 0.82748 0.44637 0.27423 0.0
H367 H 0.84808 0.42631 0.20173 0.0
H368 H 0.72901 0.48593 0.12591 0.0
H369 H 0.73212 0.52567 0.08954 0.0
H370 H 0.72386 0.5336 0.14608 0.0
H371 H 0.78253 0.57756 0.14918 0.0
H372 H 0.7911 0.56947 0.09263 0.0
H373 H 0.82777 0.55983 0.13149 0.0
H374 H 0.85839 0.41387 0.12337 0.0
H375 H 0.85732 0.40949 0.04397 0.0
H376 H 0.7862 0.50976 0.03807 0.0
C377 C 0.78006 0.51303 0.21434 0.0
C378 C 0.79261 0.49323 0.25127 0.0
C379 C 0.81747 0.46198 0.2464 0.0
C380 C 0.82943 0.45043 0.20539 0.0
C381 C 0.81659 0.47068 0.16973 0.0
C382 C 0.79254 0.50135 0.17377 0.0
C383 C 0.78219 0.51771 0.13023 0.0
C384 C 0.73926 0.51557 0.1225 0.0
C385 C 0.79678 0.55856 0.12563 0.0
C386 C 0.80352 0.49086 0.101 0.0
C387 C 0.82333 0.46407 0.12445 0.0
C388 C 0.84338 0.43492 0.10461 0.0
C389 C 0.84254 0.43265 0.05956 0.0
C390 C 0.82191 0.45946 0.03495 0.0
C391 C 0.80281 0.48932 0.05601 0.0
H392 H 0.51771 0.18585 0.26119 0.0
H393 H 0.40837 0.24167 0.26649 0.0
H394 H 0.40378 0.22689 0.34416 0.0
H395 H 0.49792 0.11091 0.33962 0.0
H396 H 0.5446 0.11323 0.36277 0.0
H397 H 0.53758 0.12473 0.30669 0.0
H398 H 0.56864 0.19054 0.31847 0.0
H399 H 0.57628 0.17895 0.37424 0.0
H400 H 0.55058 0.22131 0.36009 0.0
H401 H 0.41238 0.20837 0.42195 0.0
H402 H 0.43769 0.1955 0.49505 0.0
H403 H 0.54194 0.15425 0.43854 0.0
C404 C 0.49263 0.19463 0.2786 0.0
C405 C 0.46338 0.21477 0.25788 0.0
C406 C 0.43126 0.22636 0.28186 0.0
C407 C 0.42817 0.21772 0.32584 0.0
C408 C 0.45748 0.19762 0.34528 0.0
C409 C 0.48931 0.18668 0.32252 0.0
C410 C 0.51842 0.16863 0.35165 0.0
C411 C 0.525 0.1269 0.33944 0.0
C412 C 0.55566 0.19122 0.35108 0.0
C413 C 0.49842 0.17199 0.39454 0.0
C414 C 0.46289 0.18789 0.39016 0.0
C415 C 0.43995 0.19546 0.42576 0.0
C416 C 0.45434 0.18782 0.46704 0.0
C417 C 0.49146 0.17359 0.47195 0.0
C418 C 0.51325 0.16467 0.43531 0.0
H419 H 0.20229 0.50452 0.53486 0.0
H420 H 0.13812 0.39976 0.54082 0.0
H421 H 0.1342 0.40562 0.61992 0.0
H422 H 0.25774 0.48699 0.62598 0.0
H423 H 0.25859 0.53546 0.64433 0.0
H424 H 0.25295 0.5253 0.58785 0.0
H425 H 0.19095 0.56452 0.58633 0.0
H426 H 0.19649 0.57503 0.64284 0.0
H427 H 0.15353 0.55335 0.62369 0.0
H428 H 0.14061 0.42076 0.69867 0.0
H429 H 0.15776 0.44388 0.77132 0.0
H430 H 0.21862 0.53782 0.71311 0.0
C431 C 0.18678 0.48321 0.55269 0.0
C432 C 0.17042 0.45178 0.53168 0.0
C433 C 0.15095 0.42409 0.55627 0.0
C434 C 0.14843 0.42721 0.60119 0.0
C435 C 0.1655 0.45817 0.62098 0.0
C436 C 0.18422 0.48572 0.59753 0.0
C437 C 0.20221 0.51484 0.62676 0.0
C438 C 0.24542 0.51566 0.62087 0.0
C439 C 0.18473 0.55427 0.61947 0.0
C440 C 0.19129 0.49893 0.67027 0.0
C441 C 0.16977 0.46649 0.66633 0.0
C442 C 0.15724 0.4463 0.70223 0.0
C443 C 0.16716 0.45961 0.74332 0.0
C444 C 0.18966 0.49255 0.74798 0.0
C445 C 0.20151 0.51246 0.7108 0.0
H446 H 0.47544 0.79036 0.2611 0.0
H447 H 0.58564 0.73595 0.25941 0.0
H448 H 0.58917 0.74114 0.33861 0.0
H449 H 0.49417 0.8559 0.34787 0.0
H450 H 0.44754 0.85131 0.37071 0.0
H451 H 0.45449 0.84485 0.31363 0.0
H452 H 0.42374 0.77823 0.31807 0.0
H453 H 0.4164 0.78464 0.37503 0.0
H454 H 0.44219 0.74394 0.35573 0.0
H455 H 0.58025 0.75193 0.41872 0.0
H456 H 0.55679 0.76255 0.4931 0.0
H457 H 0.45227 0.80819 0.44113 0.0
C458 C 0.50038 0.77964 0.2773 0.0
C459 C 0.53029 0.76291 0.25399 0.0
C460 C 0.56229 0.74888 0.27657 0.0
C461 C 0.56469 0.75186 0.32155 0.0
C462 C 0.53477 0.76873 0.34351 0.0
C463 C 0.50309 0.78204 0.32215 0.0
C464 C 0.47401 0.79729 0.3533 0.0
C465 C 0.46717 0.83987 0.34593 0.0
C466 C 0.43691 0.77466 0.35036 0.0
C467 C 0.49413 0.79019 0.39552 0.0
C468 C 0.52934 0.77415 0.38936 0.0
C469 C 0.55274 0.76458 0.42395 0.0
C470 C 0.53932 0.77086 0.466 0.0
C471 C 0.50274 0.78605 0.47276 0.0
C472 C 0.48032 0.79636 0.43696 0.0
H473 H 0.75559 0.45449 0.72037 0.0
H474 H 0.82277 0.54611 0.77427 0.0
H475 H 0.84012 0.56649 0.70103 0.0
H476 H 0.81881 0.43258 0.63191 0.0
H477 H 0.78105 0.42278 0.5945 0.0
H478 H 0.7742 0.41478 0.65135 0.0
H479 H 0.71529 0.45834 0.65034 0.0
H480 H 0.72189 0.4664 0.59352 0.0
H481 H 0.7195 0.50607 0.63007 0.0
H482 H 0.84819 0.57878 0.62342 0.0
H483 H 0.84572 0.58318 0.54421 0.0
H484 H 0.77513 0.48266 0.53951 0.0
C485 C 0.7738 0.47895 0.71678 0.0
C486 C 0.78774 0.49878 0.75307 0.0
C487 C 0.81179 0.53043 0.74699 0.0
C488 C 0.8219 0.54219 0.70554 0.0
C489 C 0.80798 0.52185 0.67058 0.0
C490 C 0.78444 0.49095 0.6756 0.0
C491 C 0.77299 0.47456 0.63236 0.0
C492 C 0.78766 0.43375 0.62723 0.0
C493 C 0.72986 0.47649 0.62623 0.0
C494 C 0.79331 0.50158 0.60232 0.0
C495 C 0.8134 0.52849 0.62522 0.0
C496 C 0.83289 0.55772 0.60502 0.0
C497 C 0.83125 0.56001 0.56012 0.0
C498 C 0.81042 0.53314 0.53597 0.0
C499 C 0.7918 0.50312 0.55727 0.0
H500 H 0.28948 0.46083 0.96704 0.0
H501 H 0.32111 0.43938 0.83436 0.0
H502 H 0.36059 0.38479 0.85814 0.0
H503 H 0.38088 0.4348 0.01614 0.0
H504 H 0.35788 0.41427 0.06245 0.0
H505 H 0.33616 0.45337 0.03447 0.0
H506 H 0.27519 0.4134 0.02417 0.0
H507 H 0.29696 0.37429 0.05187 0.0
H508 H 0.27834 0.36777 -0.00172 0.0
H509 H 0.38895 0.32709 0.89703 0.0
H510 H 0.41034 0.27708 0.94821 0.0
H511 H 0.36087 0.34033 0.05401 0.0
C512 C 0.30558 0.44518 0.94318 0.0
C513 C 0.30275 0.45392 0.89912 0.0
C514 C 0.32364 0.43301 0.86841 0.0
C515 C 0.34579 0.40199 0.88161 0.0
C516 C 0.3469 0.39314 0.9255 0.0
C517 C 0.32791 0.41477 0.9558 0.0
C518 C 0.33201 0.399 0.00068 0.0
C519 C 0.35301 0.42702 0.03015 0.0
C520 C 0.29334 0.38796 0.01984 0.0
C521 C 0.3557 0.36455 0.991 0.0
C522 C 0.36394 0.36123 0.94757 0.0
C523 C 0.3833 0.32982 0.93119 0.0
C524 C 0.39502 0.3015 0.96023 0.0
C525 C 0.38755 0.30541 0.00481 0.0
C526 C 0.3676 0.33719 0.02009 0.0
H527 H 0.28553 0.67288 0.97484 0.0
H528 H 0.33332 0.56175 0.94963 0.0
H529 H 0.38462 0.57447 0.00145 0.0
H530 H 0.37328 0.71971 0.97714 0.0
H531 H 0.36009 0.75309 0.01849 0.0
H532 H 0.32447 0.73326 0.98384 0.0
H533 H 0.28763 0.70958 0.05105 0.0
H534 H 0.32349 0.72902 0.0859 0.0
H535 H 0.31112 0.67958 0.08978 0.0
H536 H 0.43266 0.6003 0.05159 0.0
H537 H 0.47838 0.64033 0.09057 0.0
H538 H 0.40055 0.73544 0.08173 0.0
C539 C 0.30657 0.65117 0.98083 0.0
C540 C 0.30567 0.61642 0.95854 0.0
C541 C 0.33389 0.58874 0.96631 0.0
C542 C 0.36282 0.59549 0.99599 0.0
C543 C 0.3632 0.63014 0.01734 0.0
C544 C 0.33613 0.65774 0.00979 0.0
C545 C 0.34553 0.69406 0.0333 0.0
C546 C 0.35119 0.72696 0.00129 0.0
C547 C 0.31513 0.7036 0.06702 0.0
C548 C 0.38236 0.68269 0.05454 0.0
C549 C 0.39167 0.6455 0.0456 0.0
C550 C 0.42557 0.62937 0.05931 0.0
C551 C 0.45131 0.65231 0.08153 0.0
C552 C 0.44308 0.69102 0.08922 0.0
C553 C 0.40762 0.70589 0.07666 0.0
H554 H 0.65983 0.71075 -0.00187 0.0
H555 H 0.54286 0.67814 0.98063 0.0
H556 H 0.56291 0.62319 0.93686 0.0
H557 H 0.69741 0.67325 0.89087 0.0
H558 H 0.74019 0.65717 0.91667 0.0
H559 H 0.71633 0.69895 0.93625 0.0
H560 H 0.71371 0.66902 0.01253 0.0
H561 H 0.73655 0.62685 0.99312 0.0
H562 H 0.69133 0.62353 0.01963 0.0
H563 H 0.59563 0.56594 0.90771 0.0
H564 H 0.63882 0.51273 0.89109 0.0
H565 H 0.73421 0.58203 0.93063 0.0
C566 C 0.63855 0.69316 0.98298 0.0
C567 C 0.59995 0.69878 0.99172 0.0
C568 C 0.57261 0.67433 0.97344 0.0
C569 C 0.58373 0.64311 0.94865 0.0
C570 C 0.62224 0.63685 0.94269 0.0
C571 C 0.64927 0.6615 0.95882 0.0
C572 C 0.68866 0.64557 0.95344 0.0
C573 C 0.71202 0.6702 0.92244 0.0
C574 C 0.70869 0.64097 -0.00272 0.0
C575 C 0.67943 0.60758 0.9336 0.0
C576 C 0.6411 0.60323 0.92696 0.0
C577 C 0.62581 0.56929 0.91187 0.0
C578 C 0.6505 0.53914 0.90287 0.0
C579 C 0.6899 0.54313 0.90953 0.0
C580 C 0.70428 0.57795 0.92496 0.0
H581 H 0.64128 0.37866 0.93922 0.0
H582 H 0.73774 0.35556 0.02202 0.0
H583 H 0.69466 0.33791 0.08091 0.0
H584 H 0.57834 0.4164 0.0228 0.0
H585 H 0.53701 0.39374 0.00066 0.0
H586 H 0.57514 0.40785 0.96559 0.0
H587 H 0.58099 0.33893 0.93659 0.0
H588 H 0.54227 0.32518 0.97071 0.0
H589 H 0.58681 0.30056 0.97444 0.0
H590 H 0.6425 0.31738 0.12832 0.0
H591 H 0.58418 0.28974 0.15882 0.0
H592 H 0.52101 0.32799 0.04739 0.0
C593 C 0.65335 0.37016 0.96983 0.0
C594 C 0.69292 0.36855 0.97592 0.0
C595 C 0.70755 0.35683 0.01636 0.0
C596 C 0.68331 0.34715 0.05025 0.0
C597 C 0.64452 0.34941 0.04331 0.0
C598 C 0.62955 0.36024 0.00403 0.0
C599 C 0.58685 0.35707 0.00398 0.0
C600 C 0.56825 0.3961 -0.0021 0.0
C601 C 0.57346 0.32876 0.96939 0.0
C602 C 0.58029 0.34196 0.04908 0.0
C603 C 0.61396 0.33824 0.07139 0.0
C604 C 0.61581 0.32098 0.11174 0.0
C605 C 0.58264 0.3056 0.12894 0.0
C606 C 0.54825 0.30799 0.10594 0.0
C607 C 0.54675 0.32749 0.06632 0.0
H608 H 0.65084 0.29243 0.51873 0.0
H609 H 0.53662 0.33739 0.52066 0.0
H610 H 0.55711 0.39123 0.47518 0.0
H611 H 0.69587 0.38092 0.53007 0.0
H612 H 0.73547 0.36889 0.49615 0.0
H613 H 0.71083 0.33225 0.52508 0.0
H614 H 0.69891 0.29643 0.45325 0.0
H615 H 0.72346 0.33308 0.42408 0.0
H616 H 0.67579 0.32059 0.40931 0.0
H617 H 0.59092 0.44144 0.43211 0.0
H618 H 0.63611 0.48617 0.39891 0.0
H619 H 0.72813 0.40855 0.42777 0.0
C620 C 0.63001 0.31325 0.50891 0.0
C621 C 0.59213 0.3107 0.52271 0.0
C622 C 0.56582 0.33894 0.51026 0.0
C623 C 0.57713 0.36944 0.48431 0.0
C624 C 0.61484 0.3713 0.47153 0.0
C625 C 0.64091 0.34408 0.48369 0.0
C626 C 0.68028 0.3541 0.46868 0.0
C627 C 0.70718 0.35936 0.50729 0.0
C628 C 0.69549 0.32427 0.43693 0.0
C629 C 0.67235 0.39131 0.4463 0.0
C630 C 0.63443 0.40061 0.44783 0.0
C631 C 0.62066 0.43434 0.43042 0.0
C632 C 0.64651 0.45949 0.41153 0.0
C633 C 0.68564 0.45084 0.41067 0.0
C634 C 0.69842 0.41601 0.42779 0.0
H635 H 0.45183 0.31022 0.56049 0.0
H636 H 0.38428 0.23393 0.63817 0.0
H637 H 0.32635 0.25672 0.60181 0.0
H638 H 0.38075 0.38865 0.54963 0.0
H639 H 0.39373 0.39701 0.49423 0.0
H640 H 0.42859 0.38007 0.53202 0.0
H641 H 0.4427 0.3234 0.48141 0.0
H642 H 0.40726 0.33942 0.44396 0.0
H643 H 0.40478 0.29214 0.46586 0.0
H644 H 0.2775 0.28162 0.55164 0.0
H645 H 0.23944 0.31013 0.49361 0.0
H646 H 0.33927 0.36825 0.44564 0.0
C647 C 0.42459 0.29979 0.57117 0.0
C648 C 0.42207 0.27125 0.60288 0.0
C649 C 0.38637 0.25651 0.6146 0.0
C650 C 0.35347 0.26912 0.59399 0.0
C651 C 0.35698 0.2961 0.56143 0.0
C652 C 0.39155 0.31156 0.55027 0.0
C653 C 0.38801 0.337 0.51109 0.0
C654 C 0.39838 0.37813 0.52244 0.0
C655 C 0.41211 0.32208 0.47337 0.0
C656 C 0.34619 0.33303 0.50172 0.0
C657 C 0.32885 0.30949 0.53129 0.0
C658 C 0.29063 0.3005 0.52858 0.0
C659 C 0.26931 0.3167 0.49529 0.0
C660 C 0.28628 0.34149 0.46494 0.0
C661 C 0.32538 0.34937 0.46816 0.0
H662 H 0.34944 0.6879 0.50369 0.0
H663 H 0.4354 0.6238 0.57195 0.0
H664 H 0.41864 0.56661 0.53006 0.0
H665 H 0.28135 0.61604 0.50521 0.0
H666 H 0.26218 0.62707 0.45283 0.0
H667 H 0.28426 0.66366 0.48432 0.0
H668 H 0.32997 0.67796 0.42094 0.0
H669 H 0.30814 0.64112 0.38934 0.0
H670 H 0.35841 0.64026 0.39878 0.0
H671 H 0.39001 0.51548 0.48319 0.0
H672 H 0.34745 0.47368 0.44111 0.0
H673 H 0.27911 0.57121 0.40653 0.0
C674 C 0.36515 0.66199 0.50928 0.0
C675 C 0.39381 0.66026 0.5408 0.0
C676 C 0.41322 0.62565 0.54794 0.0
C677 C 0.40415 0.59313 0.52408 0.0
C678 C 0.37549 0.5957 0.49341 0.0
C679 C 0.35608 0.62919 0.48626 0.0
C680 C 0.32409 0.6237 0.45461 0.0
C681 C 0.28572 0.63316 0.47551 0.0
C682 C 0.33056 0.64715 0.41348 0.0
C683 C 0.32799 0.58174 0.44577 0.0
C684 C 0.35826 0.56614 0.46764 0.0
C685 C 0.36641 0.52744 0.46561 0.0
C686 C 0.34227 0.50395 0.44151 0.0
C687 C 0.31016 0.51934 0.42067 0.0
C688 C 0.30358 0.55877 0.42212 0.0
H689 H 0.70225 0.66828 0.48884 0.0
H690 H 0.64486 0.56478 0.45103 0.0
H691 H 0.59794 0.57452 0.50869 0.0
H692 H 0.68479 0.66197 0.60527 0.0
H693 H 0.67593 0.71207 0.61071 0.0
H694 H 0.70777 0.69509 0.56961 0.0
H695 H 0.6685 0.72943 0.5107 0.0
H696 H 0.63706 0.74708 0.55159 0.0
H697 H 0.61847 0.72036 0.50683 0.0
H698 H 0.55563 0.5966 0.56762 0.0
H699 H 0.51446 0.6353 0.61416 0.0
H700 H 0.59825 0.72521 0.61308 0.0
C701 C 0.67991 0.64762 0.49295 0.0
C702 C 0.67716 0.61583 0.46555 0.0
C703 C 0.64727 0.58959 0.47143 0.0
C704 C 0.62081 0.59454 0.5045 0.0
C705 C 0.62449 0.62596 0.53129 0.0
C706 C 0.65283 0.65244 0.5254 0.0
C707 C 0.64784 0.68588 0.55539 0.0
C708 C 0.68107 0.68891 0.58713 0.0
C709 C 0.64263 0.72285 0.5296 0.0
C710 C 0.6118 0.67441 0.57831 0.0
C711 C 0.59934 0.6393 0.56474 0.0
C712 C 0.56524 0.62397 0.57891 0.0
C713 C 0.54214 0.64609 0.60569 0.0
C714 C 0.55306 0.68336 0.61726 0.0
C715 C 0.58922 0.69673 0.60513 0.0
H716 H 0.45624 0.0667 0.05772 0.0
H717 H 0.43999 0.08871 0.19376 0.0
H718 H 0.47006 0.02731 0.21146 0.0
H719 H 0.44592 0.96035 0.06198 0.0
H720 H 0.48242 0.95457 0.02194 0.0
H721 H 0.45263 -0.004 0.02103 0.0
H722 H 0.51289 0.03773 0.02267 0.0
H723 H 0.54278 -0.00349 0.02611 0.0
H724 H 0.54574 0.03288 0.0668 0.0
H725 H 0.50804 0.96763 0.21426 0.0
H726 H 0.54165 0.90716 0.20147 0.0
H727 H 0.53802 0.92752 0.06372 0.0
C728 C 0.45691 0.05731 0.091 0.0
C729 C 0.44468 0.08134 0.12445 0.0
C730 C 0.44799 0.06968 0.16787 0.0
C731 C 0.46561 0.03529 0.17815 0.0
C732 C 0.47996 0.01343 0.1445 0.0
C733 C 0.47503 0.02345 0.10174 0.0
C734 C 0.49562 -0.00347 0.07187 0.0
C735 C 0.46747 0.97561 0.04249 0.0
C736 C 0.52605 0.01717 0.04532 0.0
C737 C 0.51329 0.9701 0.10454 0.0
C738 C 0.50393 0.98035 0.14623 0.0
C739 C 0.51565 0.95932 0.18181 0.0
C740 C 0.53525 0.92545 0.17435 0.0
C741 C 0.54316 0.91345 0.13176 0.0
C742 C 0.53358 0.93688 0.09662 0.0
H743 H 0.93123 0.44161 0.93687 0.0
H744 H 0.90531 0.44529 0.80064 0.0
H745 H 0.96346 0.48249 0.78735 0.0
H746 H 0.95641 0.53358 0.94503 0.0
H747 H -0.00587 0.52777 0.98356 0.0
H748 H 0.95595 0.49412 0.98199 0.0
H749 H 0.00245 0.43817 0.97013 0.0
H750 H 0.04093 0.47128 0.97471 0.0
H751 H 0.03732 0.44124 0.92786 0.0
H752 H 0.02025 0.52571 0.79098 0.0
H753 H 0.07864 0.56088 0.80952 0.0
H754 H 0.06221 0.5337 0.94426 0.0
C755 C 0.9393 0.44809 0.90396 0.0
C756 C 0.91497 0.4396 0.86948 0.0
C757 C 0.92473 0.45039 0.82703 0.0
C758 C 0.95718 0.47217 0.81942 0.0
C759 C 0.97895 0.48296 0.85479 0.0
C760 C 0.97097 0.47045 0.89609 0.0
C761 C -0.00325 0.48838 0.92905 0.0
C762 C 0.97445 0.51237 0.96182 0.0
C763 C 0.02081 0.45797 0.95175 0.0
C764 C 0.02036 0.51315 0.89996 0.0
C765 C 0.00966 0.50982 0.85725 0.0
C766 C 0.02873 0.52876 0.82433 0.0
C767 C 0.06127 0.54937 0.83514 0.0
C768 C 0.07376 0.55091 0.87838 0.0
C769 C 0.0521 0.53417 0.91126 0.0
H770 H 0.45855 0.91594 0.65705 0.0
H771 H 0.43209 0.90325 0.52151 0.0
H772 H 0.46088 0.96576 0.50656 0.0
H773 H 0.44585 0.02294 0.66142 0.0
H774 H 0.48421 0.02676 0.69942 0.0
H775 H 0.45467 0.98519 0.69932 0.0
H776 H 0.5149 0.94395 0.69111 0.0
H777 H 0.54449 0.98532 0.6886 0.0
H778 H 0.54551 0.9512 0.64534 0.0
H779 H 0.50352 0.02299 0.50505 0.0
H780 H 0.54172 0.08022 0.51949 0.0
H781 H 0.53966 0.05483 0.65635 0.0
C782 C 0.45685 0.92747 0.62471 0.0
C783 C 0.44272 0.90543 0.59048 0.0
C784 C 0.44194 0.92042 0.54821 0.0
C785 C 0.45884 0.95551 0.53937 0.0
C786 C 0.47554 0.97515 0.57341 0.0
C787 C 0.47329 0.96241 0.61551 0.0
C788 C 0.49515 0.98763 0.64596 0.0
C789 C 0.46837 0.00678 0.67843 0.0
C790 C 0.52688 0.96569 0.66909 0.0
C791 C 0.51113 0.01584 0.61426 0.0
C792 C 0.49981 0.00806 0.57254 0.0
C793 C 0.51206 0.02972 0.53767 0.0
C794 C 0.53441 0.06169 0.54608 0.0
C795 C 0.5438 0.07161 0.58903 0.0
C796 C 0.53313 0.04759 0.62322 0.0
H797 H 0.91855 0.54174 0.32274 0.0
H798 H 0.91225 0.5692 0.45872 0.0
H799 H 0.97297 0.53664 0.47101 0.0
H800 H 0.95392 0.45402 0.32936 0.0
H801 H 0.9878 0.4558 0.28599 0.0
H802 H 0.94698 0.4863 0.28496 0.0
H803 H 0.98907 0.54609 0.27897 0.0
H804 H 0.03004 0.5157 0.27743 0.0
H805 H 0.02699 0.55301 0.31701 0.0
H806 H 0.02349 0.48835 0.47128 0.0
H807 H 0.07901 0.44816 0.45656 0.0
H808 H 0.05967 0.45935 0.31908 0.0
C809 C 0.93134 0.54296 0.35445 0.0
C810 C 0.91137 0.55832 0.38977 0.0
C811 C 0.92786 0.5584 0.43124 0.0
C812 C 0.96189 0.53934 0.43863 0.0
C813 C 0.97945 0.52178 0.40378 0.0
C814 C 0.96616 0.52535 0.36208 0.0
C815 C 0.99103 0.5038 0.33059 0.0
C816 C 0.96856 0.47318 0.30631 0.0
C817 C 0.01045 0.53129 0.29915 0.0
C818 C 0.01916 0.48616 0.36151 0.0
C819 C 0.01108 0.49614 0.40363 0.0
C820 C 0.03087 0.48117 0.43841 0.0
C821 C 0.06173 0.45771 0.42977 0.0
C822 C 0.073 0.45044 0.38681 0.0
C823 C 0.051 0.46398 0.35217 0.0
loop_
_geom_bond_atom_site_label_1
_geom_bond_atom_site_label_2
_geom_bond_distance
_geom_bond_site_symmetry_2
_ccdc_geom_bond_type
Sc0 O3 2.025 . S
Sc0 O10 2.105 . S
Sc0 O13 2.105 . S
Sc0 O16 2.105 . S
Sc0 O19 2.105 . S
Sc1 O3 2.025 . S
Sc1 O11 2.105 . S
Sc1 O15 2.105 . S
Sc1 O17 2.105 . S
Sc1 O21 2.105 . S
Sc2 O3 2.025 . S
Sc2 O12 2.105 . S
Sc2 O14 2.105 . S
Sc2 O18 2.105 . S
Sc2 O20 2.105 . S
O3 Sc0 2.025 . S
O3 Sc1 2.025 . S
O3 Sc2 2.025 . S
C4 O10 1.268 . S
C4 O20 1.268 . S
C5 O11 1.268 . S
C5 O19 1.268 . S
C6 O12 1.268 1_556 S
C6 O21 1.268 1_556 S
C7 O13 1.268 . S
C7 O17 1.268 . S
C8 O14 1.268 . S
C8 O16 1.268 . S
C9 O15 1.268 . S
C9 O18 1.268 . S
O10 Sc0 2.105 . S
O10 C4 1.268 . S
O11 Sc1 2.105 . S
O11 C5 1.268 . S
O12 Sc2 2.105 . S
O12 C6 1.268 1_554 S
O13 Sc0 2.105 . S
O13 C7 1.268 . S
O14 Sc2 2.105 . S
O14 C8 1.268 . S
O15 Sc1 2.105 . S
O15 C9 1.268 . S
O16 Sc0 2.105 . S
O16 C8 1.268 . S
O17 Sc1 2.105 . S
O17 C7 1.268 . S
O18 Sc2 2.105 . S
O18 C9 1.268 . S
O19 Sc0 2.105 . S
O19 C5 1.268 . S
O20 Sc2 2.105 . S
O20 C4 1.268 . S
O21 Sc1 2.105 . S
O21 C6 1.268 1_554 S
Sc22 O25 2.025 . S
Sc22 O32 2.105 . S
Sc22 O35 2.105 . S
Sc22 O38 2.105 . S
Sc22 O41 2.105 . S
Sc23 O25 2.025 . S
Sc23 O33 2.105 . S
Sc23 O37 2.105 . S
Sc23 O39 2.105 . S
Sc23 O43 2.105 . S
Sc24 O25 2.025 . S
Sc24 O34 2.105 . S
Sc24 O36 2.105 . S
Sc24 O40 2.105 . S
Sc24 O42 2.105 . S
O25 Sc22 2.025 . S
O25 Sc23 2.025 . S
O25 Sc24 2.025 . S
C26 O32 1.268 . S
C26 O42 1.268 . S
C27 O33 1.268 . S
C27 O41 1.268 . S
C28 O34 1.268 . S
C28 O43 1.268 . S
C29 O35 1.268 . S
C29 O39 1.268 . S
C30 O36 1.268 . S
C30 O38 1.268 . S
C31 O37 1.268 1_554 S
C31 O40 1.268 1_554 S
O32 Sc22 2.105 . S
O32 C26 1.268 . S
O33 Sc23 2.105 . S
O33 C27 1.268 . S
O34 Sc24 2.105 . S
O34 C28 1.268 . S
O35 Sc22 2.105 . S
O35 C29 1.268 . S
O36 Sc24 2.105 . S
O36 C30 1.268 . S
O37 Sc23 2.105 . S
O37 C31 1.268 1_556 S
O38 Sc22 2.105 . S
O38 C30 1.268 . S
O39 Sc23 2.105 . S
O39 C29 1.268 . S
O40 Sc24 2.105 . S
O40 C31 1.268 1_556 S
O41 Sc22 2.105 . S
O41 C27 1.268 . S
O42 Sc24 2.105 . S
O42 C26 1.268 . S
O43 Sc23 2.105 . S
O43 C28 1.268 . S
Sc44 O47 2.025 . S
Sc44 O54 2.105 . S
Sc44 O57 2.105 . S
Sc44 O60 2.105 . S
Sc44 O63 2.105 . S
Sc45 O47 2.025 . S
Sc45 O55 2.105 . S
Sc45 O59 2.105 . S
Sc45 O61 2.105 . S
Sc45 O65 2.105 . S
Sc46 O47 2.025 . S
Sc46 O56 2.105 . S
Sc46 O58 2.105 . S
Sc46 O62 2.105 . S
Sc46 O64 2.105 . S
O47 Sc44 2.025 . S
O47 Sc45 2.025 . S
O47 Sc46 2.025 . S
C48 O54 1.268 . S
C48 O64 1.268 . S
C49 O55 1.268 . S
C49 O63 1.268 . S
C50 O56 1.268 1_556 S
C50 O65 1.268 1_556 S
C51 O57 1.268 . S
C51 O61 1.268 . S
C52 O58 1.268 . S
C52 O60 1.268 . S
C53 O59 1.268 . S
C53 O62 1.268 . S
O54 Sc44 2.105 . S
O54 C48 1.268 . S
O55 Sc45 2.105 . S
O55 C49 1.268 . S
O56 Sc46 2.105 . S
O56 C50 1.268 1_554 S
O57 Sc44 2.105 . S
O57 C51 1.268 . S
O58 Sc46 2.105 . S
O58 C52 1.268 . S
O59 Sc45 2.105 . S
O59 C53 1.268 . S
O60 Sc44 2.105 . S
O60 C52 1.268 . S
O61 Sc45 2.105 . S
O61 C51 1.268 . S
O62 Sc46 2.105 . S
O62 C53 1.268 . S
O63 Sc44 2.105 . S
O63 C49 1.268 . S
O64 Sc46 2.105 . S
O64 C48 1.268 . S
O65 Sc45 2.105 . S
O65 C50 1.268 1_554 S
Sc66 O69 2.025 . S
Sc66 O76 2.105 . S
Sc66 O79 2.105 . S
Sc66 O82 2.105 . S
Sc66 O85 2.105 . S
Sc67 O69 2.025 . S
Sc67 O77 2.105 . S
Sc67 O81 2.105 . S
Sc67 O83 2.105 . S
Sc67 O87 2.105 . S
Sc68 O69 2.025 . S
Sc68 O78 2.105 . S
Sc68 O80 2.105 . S
Sc68 O84 2.105 . S
Sc68 O86 2.105 . S
O69 Sc66 2.025 . S
O69 Sc67 2.025 . S
O69 Sc68 2.025 . S
C70 O76 1.268 . S
C70 O86 1.268 . S
C71 O77 1.268 . S
C71 O85 1.268 . S
C72 O78 1.268 . S
C72 O87 1.268 . S
C73 O79 1.268 . S
C73 O83 1.268 . S
C74 O80 1.268 . S
C74 O82 1.268 . S
C75 O81 1.268 1_554 S
C75 O84 1.268 1_554 S
O76 Sc66 2.105 . S
O76 C70 1.268 . S
O77 Sc67 2.105 . S
O77 C71 1.268 . S
O78 Sc68 2.105 . S
O78 C72 1.268 . S
O79 Sc66 2.105 . S
O79 C73 1.268 . S
O80 Sc68 2.105 . S
O80 C74 1.268 . S
O81 Sc67 2.105 . S
O81 C75 1.268 1_556 S
O82 Sc66 2.105 . S
O82 C74 1.268 . S
O83 Sc67 2.105 . S
O83 C73 1.268 . S
O84 Sc68 2.105 . S
O84 C75 1.268 1_556 S
O85 Sc66 2.105 . S
O85 C71 1.268 . S
O86 Sc68 2.105 . S
O86 C70 1.268 . S
O87 Sc67 2.105 . S
O87 C72 1.268 . S
Sc88 O91 2.025 . S
Sc88 O98 2.105 . S
Sc88 O101 2.105 . S
Sc88 O104 2.105 . S
Sc88 O107 2.105 . S
Sc89 O91 2.025 . S
Sc89 O99 2.105 . S
Sc89 O103 2.105 . S
Sc89 O105 2.105 . S
Sc89 O109 2.105 . S
Sc90 O91 2.025 . S
Sc90 O100 2.105 . S
Sc90 O102 2.105 . S
Sc90 O106 2.105 . S
Sc90 O108 2.105 . S
O91 Sc88 2.025 . S
O91 Sc89 2.025 . S
O91 Sc90 2.025 . S
C92 O98 1.268 . S
C92 O108 1.268 . S
C93 O99 1.268 . S
C93 O107 1.268 . S
C94 O100 1.268 . S
C94 O109 1.268 . S
C95 O101 1.268 . S
C95 O105 1.268 . S
C96 O102 1.268 . S
C96 O104 1.268 . S
C97 O103 1.268 . S
C97 O106 1.268 . S
O98 Sc88 2.105 . S
O98 C92 1.268 . S
O99 Sc89 2.105 . S
O99 C93 1.268 . S
O100 Sc90 2.105 . S
O100 C94 1.268 . S
O101 Sc88 2.105 . S
O101 C95 1.268 . S
O102 Sc90 2.105 . S
O102 C96 1.268 . S
O103 Sc89 2.105 . S
O103 C97 1.268 . S
O104 Sc88 2.105 . S
O104 C96 1.268 . S
O105 Sc89 2.105 . S
O105 C95 1.268 . S
O106 Sc90 2.105 . S
O106 C97 1.268 . S
O107 Sc88 2.105 . S
O107 C93 1.268 . S
O108 Sc90 2.105 . S
O108 C92 1.268 . S
O109 Sc89 2.105 . S
O109 C94 1.268 . S
Sc110 O113 2.025 . S
Sc110 O120 2.105 . S
Sc110 O123 2.105 . S
Sc110 O126 2.105 . S
Sc110 O129 2.105 . S
Sc111 O113 2.025 . S
Sc111 O121 2.105 . S
Sc111 O125 2.105 . S
Sc111 O127 2.105 . S
Sc111 O131 2.105 . S
Sc112 O113 2.025 . S
Sc112 O122 2.105 . S
Sc112 O124 2.105 . S
Sc112 O128 2.105 . S
Sc112 O130 2.105 . S
O113 Sc110 2.025 . S
O113 Sc111 2.025 . S
O113 Sc112 2.025 . S
C114 O120 1.268 . S
C114 O130 1.268 . S
C115 O121 1.268 . S
C115 O129 1.268 . S
C116 O122 1.268 . S
C116 O131 1.268 . S
C117 O123 1.268 . S
C117 O127 1.268 . S
C118 O124 1.268 . S
C118 O126 1.268 . S
C119 O125 1.268 . S
C119 O128 1.268 . S
O120 Sc110 2.105 . S
O120 C114 1.268 . S
O121 Sc111 2.105 . S
O121 C115 1.268 . S
O122 Sc112 2.105 . S
O122 C116 1.268 . S
O123 Sc110 2.105 . S
O123 C117 1.268 . S
O124 Sc112 2.105 . S
O124 C118 1.268 . S
O125 Sc111 2.105 . S
O125 C119 1.268 . S
O126 Sc110 2.105 . S
O126 C118 1.268 . S
O127 Sc111 2.105 . S
O127 C117 1.268 . S
O128 Sc112 2.105 . S
O128 C119 1.268 . S
O129 Sc110 2.105 . S
O129 C115 1.268 . S
O130 Sc112 2.105 . S
O130 C114 1.268 . S
O131 Sc111 2.105 . S
O131 C116 1.268 . S
Sc132 O135 2.025 . S
Sc132 O142 2.105 . S
Sc132 O145 2.105 . S
Sc132 O148 2.105 . S
Sc132 O151 2.105 . S
Sc133 O135 2.025 . S
Sc133 O143 2.105 . S
Sc133 O147 2.105 . S
Sc133 O149 2.105 . S
Sc133 O153 2.105 . S
Sc134 O135 2.025 . S
Sc134 O144 2.105 . S
Sc134 O146 2.105 . S
Sc134 O150 2.105 . S
Sc134 O152 2.105 . S
O135 Sc132 2.025 . S
O135 Sc133 2.025 . S
O135 Sc134 2.025 . S
C136 O142 1.268 . S
C136 O152 1.268 . S
C137 O143 1.268 . S
C137 O151 1.268 . S
C138 O144 1.268 . S
C138 O153 1.268 . S
C139 O145 1.268 . S
C139 O149 1.268 . S
C140 O146 1.268 . S
C140 O148 1.268 . S
C141 O147 1.268 . S
C141 O150 1.268 . S
O142 Sc132 2.105 . S
O142 C136 1.268 . S
O143 Sc133 2.105 . S
O143 C137 1.268 . S
O144 Sc134 2.105 . S
O144 C138 1.268 . S
O145 Sc132 2.105 . S
O145 C139 1.268 . S
O146 Sc134 2.105 . S
O146 C140 1.268 . S
O147 Sc133 2.105 . S
O147 C141 1.268 . S
O148 Sc132 2.105 . S
O148 C140 1.268 . S
O149 Sc133 2.105 . S
O149 C139 1.268 . S
O150 Sc134 2.105 . S
O150 C141 1.268 . S
O151 Sc132 2.105 . S
O151 C137 1.268 . S
O152 Sc134 2.105 . S
O152 C136 1.268 . S
O153 Sc133 2.105 . S
O153 C138 1.268 . S
Sc154 O157 2.025 . S
Sc154 O164 2.105 . S
Sc154 O167 2.105 . S
Sc154 O170 2.105 . S
Sc154 O173 2.105 . S
Sc155 O157 2.025 . S
Sc155 O165 2.105 . S
Sc155 O169 2.105 . S
Sc155 O171 2.105 . S
Sc155 O175 2.105 . S
Sc156 O157 2.025 . S
Sc156 O166 2.105 . S
Sc156 O168 2.105 . S
Sc156 O172 2.105 . S
Sc156 O174 2.105 . S
O157 Sc154 2.025 . S
O157 Sc155 2.025 . S
O157 Sc156 2.025 . S
C158 O164 1.268 . S
C158 O174 1.268 . S
C159 O165 1.268 . S
C159 O173 1.268 . S
C160 O166 1.268 . S
C160 O175 1.268 . S
C161 O167 1.268 . S
C161 O171 1.268 . S
C162 O168 1.268 . S
C162 O170 1.268 . S
C163 O169 1.268 . S
C163 O172 1.268 . S
O164 Sc154 2.105 . S
O164 C158 1.268 . S
O165 Sc155 2.105 . S
O165 C159 1.268 . S
O166 Sc156 2.105 . S
O166 C160 1.268 . S
O167 Sc154 2.105 . S
O167 C161 1.268 . S
O168 Sc156 2.105 . S
O168 C162 1.268 . S
O169 Sc155 2.105 . S
O169 C163 1.268 . S
O170 Sc154 2.105 . S
O170 C162 1.268 . S
O171 Sc155 2.105 . S
O171 C161 1.268 . S
O172 Sc156 2.105 . S
O172 C163 1.268 . S
O173 Sc154 2.105 . S
O173 C159 1.268 . S
O174 Sc156 2.105 . S
O174 C158 1.268 . S
O175 Sc155 2.105 . S
O175 C160 1.268 . S
H176 C188 0.930 . S
H177 C190 0.930 . S
H178 C191 0.930 . S
H179 C195 0.959 . S
H180 C195 0.959 . S
H181 C195 0.961 . S
H182 C196 0.960 . S
H183 C196 0.961 . S
H184 C196 0.959 . S
H185 C199 0.929 . S
H186 C200 0.931 . S
H187 C202 0.930 . S
C188 H176 0.930 . S
C188 C189 1.399 . S
C188 C193 1.399 . S
C189 C188 1.399 . S
C189 C190 1.376 . S
C190 H177 0.930 . S
C190 C189 1.376 . S
C190 C191 1.388 . S
C191 H178 0.930 . S
C191 C190 1.388 . S
C191 C192 1.390 . S
C192 C191 1.390 . S
C192 C193 1.394 . S
C192 C198 1.465 . S
C193 C188 1.399 . S
C193 C192 1.394 . S
C193 C194 1.516 . S
C194 C193 1.516 . S
C194 C195 1.502 . S
C194 C196 1.561 . S
C194 C197 1.526 . S
C195 H179 0.959 . S
C195 H180 0.959 . S
C195 H181 0.961 . S
C195 C194 1.502 . S
C196 H182 0.960 . S
C196 H183 0.961 . S
C196 H184 0.959 . S
C196 C194 1.561 . S
C197 C194 1.526 . S
C197 C198 1.396 . S
C197 C202 1.390 . S
C198 C192 1.465 . S
C198 C197 1.396 . S
C198 C199 1.399 . S
C199 H185 0.929 . S
C199 C198 1.399 . S
C199 C200 1.385 . S
C200 H186 0.931 . S
C200 C199 1.385 . S
C200 C201 1.389 . S
C201 C200 1.389 . S
C201 C202 1.387 . S
C202 H187 0.930 . S
C202 C197 1.390 . S
C202 C201 1.387 . S
H203 C215 0.930 . S
H204 C217 0.930 . S
H205 C218 0.930 . S
H206 C222 0.959 . S
H207 C222 0.959 . S
H208 C222 0.961 . S
H209 C223 0.960 . S
H210 C223 0.961 . S
H211 C223 0.959 . S
H212 C226 0.929 . S
H213 C227 0.931 . S
H214 C229 0.930 . S
C215 H203 0.930 . S
C215 C216 1.399 . S
C215 C220 1.399 . S
C216 C215 1.399 . S
C216 C217 1.376 . S
C217 H204 0.930 . S
C217 C216 1.376 . S
C217 C218 1.388 . S
C218 H205 0.930 . S
C218 C217 1.388 . S
C218 C219 1.390 . S
C219 C218 1.390 . S
C219 C220 1.394 . S
C219 C225 1.465 . S
C220 C215 1.399 . S
C220 C219 1.394 . S
C220 C221 1.516 . S
C221 C220 1.516 . S
C221 C222 1.502 . S
C221 C223 1.561 . S
C221 C224 1.526 . S
C222 H206 0.959 . S
C222 H207 0.959 . S
C222 H208 0.961 . S
C222 C221 1.502 . S
C223 H209 0.960 . S
C223 H210 0.961 . S
C223 H211 0.959 . S
C223 C221 1.561 . S
C224 C221 1.526 . S
C224 C225 1.396 . S
C224 C229 1.390 . S
C225 C219 1.465 . S
C225 C224 1.396 . S
C225 C226 1.399 . S
C226 H212 0.929 . S
C226 C225 1.399 . S
C226 C227 1.385 . S
C227 H213 0.931 . S
C227 C226 1.385 . S
C227 C228 1.389 . S
C228 C227 1.389 . S
C228 C229 1.387 . S
C229 H214 0.930 . S
C229 C224 1.390 . S
C229 C228 1.387 . S
H230 C242 0.930 . S
H231 C244 0.930 . S
H232 C245 0.930 . S
H233 C249 0.959 . S
H234 C249 0.959 . S
H235 C249 0.961 . S
H236 C250 0.960 . S
H237 C250 0.961 . S
H238 C250 0.959 . S
H239 C253 0.929 . S
H240 C254 0.931 . S
H241 C256 0.930 . S
C242 H230 0.930 . S
C242 C243 1.399 . S
C242 C247 1.399 . S
C243 C242 1.399 . S
C243 C244 1.376 . S
C244 H231 0.930 . S
C244 C243 1.376 . S
C244 C245 1.388 . S
C245 H232 0.930 . S
C245 C244 1.388 . S
C245 C246 1.390 . S
C246 C245 1.390 . S
C246 C247 1.394 . S
C246 C252 1.465 . S
C247 C242 1.399 . S
C247 C246 1.394 . S
C247 C248 1.516 . S
C248 C247 1.516 . S
C248 C249 1.502 . S
C248 C250 1.561 . S
C248 C251 1.526 . S
C249 H233 0.959 . S
C249 H234 0.959 . S
C249 H235 0.961 . S
C249 C248 1.502 . S
C250 H236 0.960 . S
C250 H237 0.961 . S
C250 H238 0.959 . S
C250 C248 1.561 . S
C251 C248 1.526 . S
C251 C252 1.396 . S
C251 C256 1.390 . S
C252 C246 1.465 . S
C252 C251 1.396 . S
C252 C253 1.399 . S
C253 H239 0.929 . S
C253 C252 1.399 . S
C253 C254 1.385 . S
C254 H240 0.931 . S
C254 C253 1.385 . S
C254 C255 1.389 . S
C255 C254 1.389 . S
C255 C256 1.387 . S
C256 H241 0.930 . S
C256 C251 1.390 . S
C256 C255 1.387 . S
H257 C269 0.930 . S
H258 C271 0.930 . S
H259 C272 0.930 . S
H260 C276 0.959 . S
H261 C276 0.959 . S
H262 C276 0.961 . S
H263 C277 0.960 . S
H264 C277 0.961 . S
H265 C277 0.959 . S
H266 C280 0.929 . S
H267 C281 0.931 . S
H268 C283 0.930 . S
C269 H257 0.930 . S
C269 C270 1.399 . S
C269 C274 1.399 . S
C270 C269 1.399 . S
C270 C271 1.376 . S
C271 H258 0.930 . S
C271 C270 1.376 . S
C271 C272 1.388 . S
C272 H259 0.930 . S
C272 C271 1.388 . S
C272 C273 1.390 . S
C273 C272 1.390 . S
C273 C274 1.394 . S
C273 C279 1.465 . S
C274 C269 1.399 . S
C274 C273 1.394 . S
C274 C275 1.516 . S
C275 C274 1.516 . S
C275 C276 1.502 . S
C275 C277 1.561 . S
C275 C278 1.526 . S
C276 H260 0.959 . S
C276 H261 0.959 . S
C276 H262 0.961 . S
C276 C275 1.502 . S
C277 H263 0.960 . S
C277 H264 0.961 . S
C277 H265 0.959 . S
C277 C275 1.561 . S
C278 C275 1.526 . S
C278 C279 1.396 . S
C278 C283 1.390 . S
C279 C273 1.465 . S
C279 C278 1.396 . S
C279 C280 1.399 . S
C280 H266 0.929 . S
C280 C279 1.399 . S
C280 C281 1.385 . S
C281 H267 0.931 . S
C281 C280 1.385 . S
C281 C282 1.389 . S
C282 C281 1.389 . S
C282 C283 1.387 . S
C283 H268 0.930 . S
C283 C278 1.390 . S
C283 C282 1.387 . S
H284 C296 0.930 . S
H285 C298 0.930 . S
H286 C299 0.930 . S
H287 C303 0.959 . S
H288 C303 0.959 . S
H289 C303 0.961 . S
H290 C304 0.960 . S
H291 C304 0.961 . S
H292 C304 0.959 . S
H293 C307 0.929 . S
H294 C308 0.931 . S
H295 C310 0.930 . S
C296 H284 0.930 . S
C296 C297 1.399 . S
C296 C301 1.399 . S
C297 C296 1.399 . S
C297 C298 1.376 . S
C298 H285 0.930 . S
C298 C297 1.376 . S
C298 C299 1.388 . S
C299 H286 0.930 . S
C299 C298 1.388 . S
C299 C300 1.390 . S
C300 C299 1.390 . S
C300 C301 1.394 . S
C300 C306 1.465 . S
C301 C296 1.399 . S
C301 C300 1.394 . S
C301 C302 1.516 . S
C302 C301 1.516 . S
C302 C303 1.502 . S
C302 C304 1.561 . S
C302 C305 1.526 . S
C303 H287 0.959 . S
C303 H288 0.959 . S
C303 H289 0.961 . S
C303 C302 1.502 . S
C304 H290 0.960 . S
C304 H291 0.961 . S
C304 H292 0.959 . S
C304 C302 1.561 . S
C305 C302 1.526 . S
C305 C306 1.396 . S
C305 C310 1.390 . S
C306 C300 1.465 . S
C306 C305 1.396 . S
C306 C307 1.399 . S
C307 H293 0.929 . S
C307 C306 1.399 . S
C307 C308 1.385 . S
C308 H294 0.931 . S
C308 C307 1.385 . S
C308 C309 1.389 . S
C309 C308 1.389 . S
C309 C310 1.387 . S
C310 H295 0.930 . S
C310 C305 1.390 . S
C310 C309 1.387 . S
H311 C323 0.930 . S
H312 C325 0.930 . S
H313 C326 0.930 . S
H314 C330 0.959 . S
H315 C330 0.959 . S
H316 C330 0.961 . S
H317 C331 0.960 . S
H318 C331 0.961 . S
H319 C331 0.959 . S
H320 C334 0.929 . S
H321 C335 0.931 . S
H322 C337 0.930 . S
C323 H311 0.930 . S
C323 C324 1.399 . S
C323 C328 1.399 . S
C324 C323 1.399 . S
C324 C325 1.376 . S
C325 H312 0.930 . S
C325 C324 1.376 . S
C325 C326 1.388 . S
C326 H313 0.930 . S
C326 C325 1.388 . S
C326 C327 1.390 . S
C327 C326 1.390 . S
C327 C328 1.394 . S
C327 C333 1.465 . S
C328 C323 1.399 . S
C328 C327 1.394 . S
C328 C329 1.516 . S
C329 C328 1.516 . S
C329 C330 1.502 . S
C329 C331 1.561 . S
C329 C332 1.526 . S
C330 H314 0.959 . S
C330 H315 0.959 . S
C330 H316 0.961 . S
C330 C329 1.502 . S
C331 H317 0.960 . S
C331 H318 0.961 . S
C331 H319 0.959 . S
C331 C329 1.561 . S
C332 C329 1.526 . S
C332 C333 1.396 . S
C332 C337 1.390 . S
C333 C327 1.465 . S
C333 C332 1.396 . S
C333 C334 1.399 . S
C334 H320 0.929 . S
C334 C333 1.399 . S
C334 C335 1.385 . S
C335 H321 0.931 . S
C335 C334 1.385 . S
C335 C336 1.389 . S
C336 C335 1.389 . S
C336 C337 1.387 . S
C337 H322 0.930 . S
C337 C332 1.390 . S
C337 C336 1.387 . S
H338 C350 0.930 . S
H339 C352 0.930 . S
H340 C353 0.930 . S
H341 C357 0.959 . S
H342 C357 0.959 . S
H343 C357 0.961 . S
H344 C358 0.960 . S
H345 C358 0.961 . S
H346 C358 0.959 . S
H347 C361 0.929 . S
H348 C362 0.931 . S
H349 C364 0.930 . S
C350 H338 0.930 . S
C350 C351 1.399 . S
C350 C355 1.399 . S
C351 C350 1.399 . S
C351 C352 1.376 . S
C352 H339 0.930 . S
C352 C351 1.376 . S
C352 C353 1.388 . S
C353 H340 0.930 . S
C353 C352 1.388 . S
C353 C354 1.390 . S
C354 C353 1.390 . S
C354 C355 1.394 . S
C354 C360 1.465 . S
C355 C350 1.399 . S
C355 C354 1.394 . S
C355 C356 1.516 . S
C356 C355 1.516 . S
C356 C357 1.502 . S
C356 C358 1.561 . S
C356 C359 1.526 . S
C357 H341 0.959 . S
C357 H342 0.959 . S
C357 H343 0.961 . S
C357 C356 1.502 . S
C358 H344 0.960 . S
C358 H345 0.961 . S
C358 H346 0.959 . S
C358 C356 1.561 . S
C359 C356 1.526 . S
C359 C360 1.396 . S
C359 C364 1.390 . S
C360 C354 1.465 . S
C360 C359 1.396 . S
C360 C361 1.399 . S
C361 H347 0.929 . S
C361 C360 1.399 . S
C361 C362 1.385 . S
C362 H348 0.931 . S
C362 C361 1.385 . S
C362 C363 1.389 . S
C363 C362 1.389 . S
C363 C364 1.387 . S
C364 H349 0.930 . S
C364 C359 1.390 . S
C364 C363 1.387 . S
H365 C377 0.930 . S
H366 C379 0.930 . S
H367 C380 0.930 . S
H368 C384 0.959 . S
H369 C384 0.959 . S
H370 C384 0.961 . S
H371 C385 0.960 . S
H372 C385 0.961 . S
H373 C385 0.959 . S
H374 C388 0.929 . S
H375 C389 0.931 . S
H376 C391 0.930 . S
C377 H365 0.930 . S
C377 C378 1.399 . S
C377 C382 1.399 . S
C378 C377 1.399 . S
C378 C379 1.376 . S
C379 H366 0.930 . S
C379 C378 1.376 . S
C379 C380 1.388 . S
C380 H367 0.930 . S
C380 C379 1.388 . S
C380 C381 1.390 . S
C381 C380 1.390 . S
C381 C382 1.394 . S
C381 C387 1.465 . S
C382 C377 1.399 . S
C382 C381 1.394 . S
C382 C383 1.516 . S
C383 C382 1.516 . S
C383 C384 1.502 . S
C383 C385 1.561 . S
C383 C386 1.526 . S
C384 H368 0.959 . S
C384 H369 0.959 . S
C384 H370 0.961 . S
C384 C383 1.502 . S
C385 H371 0.960 . S
C385 H372 0.961 . S
C385 H373 0.959 . S
C385 C383 1.561 . S
C386 C383 1.526 . S
C386 C387 1.396 . S
C386 C391 1.390 . S
C387 C381 1.465 . S
C387 C386 1.396 . S
C387 C388 1.399 . S
C388 H374 0.929 . S
C388 C387 1.399 . S
C388 C389 1.385 . S
C389 H375 0.931 . S
C389 C388 1.385 . S
C389 C390 1.389 . S
C390 C389 1.389 . S
C390 C391 1.387 . S
C391 H376 0.930 . S
C391 C386 1.390 . S
C391 C390 1.387 . S
H392 C404 0.930 . S
H393 C406 0.930 . S
H394 C407 0.930 . S
H395 C411 0.959 . S
H396 C411 0.959 . S
H397 C411 0.961 . S
H398 C412 0.960 . S
H399 C412 0.961 . S
H400 C412 0.959 . S
H401 C415 0.929 . S
H402 C416 0.931 . S
H403 C418 0.930 . S
C404 H392 0.930 . S
C404 C405 1.399 . S
C404 C409 1.399 . S
C405 C404 1.399 . S
C405 C406 1.376 . S
C406 H393 0.930 . S
C406 C405 1.376 . S
C406 C407 1.388 . S
C407 H394 0.930 . S
C407 C406 1.388 . S
C407 C408 1.390 . S
C408 C407 1.390 . S
C408 C409 1.394 . S
C408 C414 1.465 . S
C409 C404 1.399 . S
C409 C408 1.394 . S
C409 C410 1.516 . S
C410 C409 1.516 . S
C410 C411 1.502 . S
C410 C412 1.561 . S
C410 C413 1.526 . S
C411 H395 0.959 . S
C411 H396 0.959 . S
C411 H397 0.961 . S
C411 C410 1.502 . S
C412 H398 0.960 . S
C412 H399 0.961 . S
C412 H400 0.959 . S
C412 C410 1.561 . S
C413 C410 1.526 . S
C413 C414 1.396 . S
C413 C418 1.390 . S
C414 C408 1.465 . S
C414 C413 1.396 . S
C414 C415 1.399 . S
C415 H401 0.929 . S
C415 C414 1.399 . S
C415 C416 1.385 . S
C416 H402 0.931 . S
C416 C415 1.385 . S
C416 C417 1.389 . S
C417 C416 1.389 . S
C417 C418 1.387 . S
C418 H403 0.930 . S
C418 C413 1.390 . S
C418 C417 1.387 . S
H419 C431 0.930 . S
H420 C433 0.930 . S
H421 C434 0.930 . S
H422 C438 0.959 . S
H423 C438 0.959 . S
H424 C438 0.961 . S
H425 C439 0.960 . S
H426 C439 0.961 . S
H427 C439 0.959 . S
H428 C442 0.929 . S
H429 C443 0.931 . S
H430 C445 0.930 . S
C431 H419 0.930 . S
C431 C432 1.399 . S
C431 C436 1.399 . S
C432 C431 1.399 . S
C432 C433 1.376 . S
C433 H420 0.930 . S
C433 C432 1.376 . S
C433 C434 1.388 . S
C434 H421 0.930 . S
C434 C433 1.388 . S
C434 C435 1.390 . S
C435 C434 1.390 . S
C435 C436 1.394 . S
C435 C441 1.465 . S
C436 C431 1.399 . S
C436 C435 1.394 . S
C436 C437 1.516 . S
C437 C436 1.516 . S
C437 C438 1.502 . S
C437 C439 1.561 . S
C437 C440 1.526 . S
C438 H422 0.959 . S
C438 H423 0.959 . S
C438 H424 0.961 . S
C438 C437 1.502 . S
C439 H425 0.960 . S
C439 H426 0.961 . S
C439 H427 0.959 . S
C439 C437 1.561 . S
C440 C437 1.526 . S
C440 C441 1.396 . S
C440 C445 1.390 . S
C441 C435 1.465 . S
C441 C440 1.396 . S
C441 C442 1.399 . S
C442 H428 0.929 . S
C442 C441 1.399 . S
C442 C443 1.385 . S
C443 H429 0.931 . S
C443 C442 1.385 . S
C443 C444 1.389 . S
C444 C443 1.389 . S
C444 C445 1.387 . S
C445 H430 0.930 . S
C445 C440 1.390 . S
C445 C444 1.387 . S
H446 C458 0.930 . S
H447 C460 0.930 . S
H448 C461 0.930 . S
H449 C465 0.959 . S
H450 C465 0.959 . S
H451 C465 0.961 . S
H452 C466 0.960 . S
H453 C466 0.961 . S
H454 C466 0.959 . S
H455 C469 0.929 . S
H456 C470 0.931 . S
H457 C472 0.930 . S
C458 H446 0.930 . S
C458 C459 1.399 . S
C458 C463 1.399 . S
C459 C458 1.399 . S
C459 C460 1.376 . S
C460 H447 0.930 . S
C460 C459 1.376 . S
C460 C461 1.388 . S
C461 H448 0.930 . S
C461 C460 1.388 . S
C461 C462 1.390 . S
C462 C461 1.390 . S
C462 C463 1.394 . S
C462 C468 1.465 . S
C463 C458 1.399 . S
C463 C462 1.394 . S
C463 C464 1.516 . S
C464 C463 1.516 . S
C464 C465 1.502 . S
C464 C466 1.561 . S
C464 C467 1.526 . S
C465 H449 0.959 . S
C465 H450 0.959 . S
C465 H451 0.961 . S
C465 C464 1.502 . S
C466 H452 0.960 . S
C466 H453 0.961 . S
C466 H454 0.959 . S
C466 C464 1.561 . S
C467 C464 1.526 . S
C467 C468 1.396 . S
C467 C472 1.390 . S
C468 C462 1.465 . S
C468 C467 1.396 . S
C468 C469 1.399 . S
C469 H455 0.929 . S
C469 C468 1.399 . S
C469 C470 1.385 . S
C470 H456 0.931 . S
C470 C469 1.385 . S
C470 C471 1.389 . S
C471 C470 1.389 . S
C471 C472 1.387 . S
C472 H457 0.930 . S
C472 C467 1.390 . S
C472 C471 1.387 . S
H473 C485 0.930 . S
H474 C487 0.930 . S
H475 C488 0.930 . S
H476 C492 0.959 . S
H477 C492 0.959 . S
H478 C492 0.961 . S
H479 C493 0.960 . S
H480 C493 0.961 . S
H481 C493 0.959 . S
H482 C496 0.929 . S
H483 C497 0.931 . S
H484 C499 0.930 . S
C485 H473 0.930 . S
C485 C486 1.399 . S
C485 C490 1.399 . S
C486 C485 1.399 . S
C486 C487 1.376 . S
C487 H474 0.930 . S
C487 C486 1.376 . S
C487 C488 1.388 . S
C488 H475 0.930 . S
C488 C487 1.388 . S
C488 C489 1.390 . S
C489 C488 1.390 . S
C489 C490 1.394 . S
C489 C495 1.465 . S
C490 C485 1.399 . S
C490 C489 1.394 . S
C490 C491 1.516 . S
C491 C490 1.516 . S
C491 C492 1.502 . S
C491 C493 1.561 . S
C491 C494 1.526 . S
C492 H476 0.959 . S
C492 H477 0.959 . S
C492 H478 0.961 . S
C492 C491 1.502 . S
C493 H479 0.960 . S
C493 H480 0.961 . S
C493 H481 0.959 . S
C493 C491 1.561 . S
C494 C491 1.526 . S
C494 C495 1.396 . S
C494 C499 1.390 . S
C495 C489 1.465 . S
C495 C494 1.396 . S
C495 C496 1.399 . S
C496 H482 0.929 . S
C496 C495 1.399 . S
C496 C497 1.385 . S
C497 H483 0.931 . S
C497 C496 1.385 . S
C497 C498 1.389 . S
C498 C497 1.389 . S
C498 C499 1.387 . S
C499 H484 0.930 . S
C499 C494 1.390 . S
C499 C498 1.387 . S
H500 C512 0.930 1_554 S
H501 C514 0.930 . S
H502 C515 0.930 . S
H503 C519 0.959 . S
H504 C519 0.959 . S
H505 C519 0.961 . S
H506 C520 0.960 . S
H507 C520 0.961 . S
H508 C520 0.959 . S
H509 C523 0.929 . S
H510 C524 0.931 . S
H511 C526 0.930 . S
C512 H500 0.930 1_556 S
C512 C513 1.399 . S
C512 C517 1.399 . S
C513 C512 1.399 . S
C513 C514 1.376 . S
C514 H501 0.930 . S
C514 C513 1.376 . S
C514 C515 1.388 . S
C515 H502 0.930 . S
C515 C514 1.388 . S
C515 C516 1.390 . S
C516 C515 1.390 . S
C516 C517 1.394 . S
C516 C522 1.465 . S
C517 C512 1.399 . S
C517 C516 1.394 . S
C517 C518 1.516 1_556 S
C518 C517 1.516 1_554 S
C518 C519 1.502 . S
C518 C520 1.561 . S
C518 C521 1.526 . S
C519 H503 0.959 . S
C519 H504 0.959 . S
C519 H505 0.961 . S
C519 C518 1.502 . S
C520 H506 0.960 . S
C520 H507 0.961 . S
C520 H508 0.959 . S
C520 C518 1.561 . S
C521 C518 1.526 . S
C521 C522 1.396 1_554 S
C521 C526 1.390 . S
C522 C516 1.465 . S
C522 C521 1.396 1_556 S
C522 C523 1.399 . S
C523 H509 0.929 . S
C523 C522 1.399 . S
C523 C524 1.385 . S
C524 H510 0.931 . S
C524 C523 1.385 . S
C524 C525 1.389 1_556 S
C525 C524 1.389 1_554 S
C525 C526 1.387 . S
C526 H511 0.930 . S
C526 C521 1.390 . S
C526 C525 1.387 . S
H527 C539 0.930 . S
H528 C541 0.930 . S
H529 C542 0.930 . S
H530 C546 0.959 . S
H531 C546 0.959 . S
H532 C546 0.961 . S
H533 C547 0.960 1_556 S
H534 C547 0.961 . S
H535 C547 0.959 . S
H536 C550 0.929 . S
H537 C551 0.931 . S
H538 C553 0.930 . S
C539 H527 0.930 . S
C539 C540 1.399 . S
C539 C544 1.399 . S
C540 C539 1.399 . S
C540 C541 1.376 1_556 S
C541 H528 0.930 . S
C541 C540 1.376 1_554 S
C541 C542 1.388 . S
C542 H529 0.930 . S
C542 C541 1.388 . S
C542 C543 1.390 . S
C543 C542 1.390 . S
C543 C544 1.394 1_554 S
C543 C549 1.465 . S
C544 C539 1.399 . S
C544 C543 1.394 1_556 S
C544 C545 1.516 . S
C545 C544 1.516 . S
C545 C546 1.502 . S
C545 C547 1.561 1_556 S
C545 C548 1.526 1_556 S
C546 H530 0.959 . S
C546 H531 0.959 . S
C546 H532 0.961 . S
C546 C545 1.502 . S
C547 H533 0.960 1_554 S
C547 H534 0.961 . S
C547 H535 0.959 . S
C547 C545 1.561 1_554 S
C548 C545 1.526 1_554 S
C548 C549 1.396 . S
C548 C553 1.390 . S
C549 C543 1.465 . S
C549 C548 1.396 . S
C549 C550 1.399 . S
C550 H536 0.929 . S
C550 C549 1.399 . S
C550 C551 1.385 . S
C551 H537 0.931 . S
C551 C550 1.385 . S
C551 C552 1.389 . S
C552 C551 1.389 . S
C552 C553 1.387 . S
C553 H538 0.930 . S
C553 C548 1.390 . S
C553 C552 1.387 . S
H554 C566 0.930 . S
H555 C568 0.930 . S
H556 C569 0.930 . S
H557 C573 0.959 . S
H558 C573 0.959 . S
H559 C573 0.961 1_554 S
H560 C574 0.960 . S
H561 C574 0.961 . S
H562 C574 0.959 . S
H563 C577 0.929 . S
H564 C578 0.931 . S
H565 C580 0.930 . S
C566 H554 0.930 . S
C566 C567 1.399 . S
C566 C571 1.399 . S
C567 C566 1.399 . S
C567 C568 1.376 . S
C568 H555 0.930 . S
C568 C567 1.376 . S
C568 C569 1.388 1_554 S
C569 H556 0.930 . S
C569 C568 1.388 1_556 S
C569 C570 1.390 . S
C570 C569 1.390 . S
C570 C571 1.394 1_556 S
C570 C576 1.465 . S
C571 C566 1.399 . S
C571 C570 1.394 1_554 S
C571 C572 1.516 . S
C572 C571 1.516 . S
C572 C573 1.502 1_554 S
C572 C574 1.561 . S
C572 C575 1.526 1_554 S
C573 H557 0.959 . S
C573 H558 0.959 . S
C573 H559 0.961 1_556 S
C573 C572 1.502 1_556 S
C574 H560 0.960 . S
C574 H561 0.961 . S
C574 H562 0.959 . S
C574 C572 1.561 . S
C575 C572 1.526 1_556 S
C575 C576 1.396 . S
C575 C580 1.390 . S
C576 C570 1.465 . S
C576 C575 1.396 . S
C576 C577 1.399 . S
C577 H563 0.929 . S
C577 C576 1.399 . S
C577 C578 1.385 . S
C578 H564 0.931 . S
C578 C577 1.385 . S
C578 C579 1.389 . S
C579 C578 1.389 . S
C579 C580 1.387 . S
C580 H565 0.930 . S
C580 C575 1.390 . S
C580 C579 1.387 . S
H581 C593 0.930 . S
H582 C595 0.930 . S
H583 C596 0.930 . S
H584 C600 0.959 . S
H585 C600 0.959 . S
H586 C600 0.961 . S
H587 C601 0.960 . S
H588 C601 0.961 . S
H589 C601 0.959 . S
H590 C604 0.929 . S
H591 C605 0.931 . S
H592 C607 0.930 1_556 S
C593 H581 0.930 . S
C593 C594 1.399 . S
C593 C598 1.399 . S
C594 C593 1.399 . S
C594 C595 1.376 1_556 S
C595 H582 0.930 . S
C595 C594 1.376 1_554 S
C595 C596 1.388 . S
C596 H583 0.930 . S
C596 C595 1.388 . S
C596 C597 1.390 . S
C597 C596 1.390 . S
C597 C598 1.394 1_554 S
C597 C603 1.465 . S
C598 C593 1.399 . S
C598 C597 1.394 1_556 S
C598 C599 1.516 . S
C599 C598 1.516 . S
C599 C600 1.502 . S
C599 C601 1.561 . S
C599 C602 1.526 1_556 S
C600 H584 0.959 . S
C600 H585 0.959 . S
C600 H586 0.961 . S
C600 C599 1.502 . S
C601 H587 0.960 . S
C601 H588 0.961 . S
C601 H589 0.959 . S
C601 C599 1.561 . S
C602 C599 1.526 1_554 S
C602 C603 1.396 . S
C602 C607 1.390 . S
C603 C597 1.465 . S
C603 C602 1.396 . S
C603 C604 1.399 . S
C604 H590 0.929 . S
C604 C603 1.399 . S
C604 C605 1.385 . S
C605 H591 0.931 . S
C605 C604 1.385 . S
C605 C606 1.389 . S
C606 C605 1.389 . S
C606 C607 1.387 . S
C607 H592 0.930 1_554 S
C607 C602 1.390 . S
C607 C606 1.387 . S
H608 C620 0.930 . S
H609 C622 0.930 . S
H610 C623 0.930 . S
H611 C627 0.959 . S
H612 C627 0.959 . S
H613 C627 0.961 . S
H614 C628 0.960 . S
H615 C628 0.961 . S
H616 C628 0.959 . S
H617 C631 0.929 . S
H618 C632 0.931 . S
H619 C634 0.930 . S
C620 H608 0.930 . S
C620 C621 1.399 . S
C620 C625 1.399 . S
C621 C620 1.399 . S
C621 C622 1.376 . S
C622 H609 0.930 . S
C622 C621 1.376 . S
C622 C623 1.388 . S
C623 H610 0.930 . S
C623 C622 1.388 . S
C623 C624 1.390 . S
C624 C623 1.390 . S
C624 C625 1.394 . S
C624 C630 1.465 . S
C625 C620 1.399 . S
C625 C624 1.394 . S
C625 C626 1.516 . S
C626 C625 1.516 . S
C626 C627 1.502 . S
C626 C628 1.561 . S
C626 C629 1.526 . S
C627 H611 0.959 . S
C627 H612 0.959 . S
C627 H613 0.961 . S
C627 C626 1.502 . S
C628 H614 0.960 . S
C628 H615 0.961 . S
C628 H616 0.959 . S
C628 C626 1.561 . S
C629 C626 1.526 . S
C629 C630 1.396 . S
C629 C634 1.390 . S
C630 C624 1.465 . S
C630 C629 1.396 . S
C630 C631 1.399 . S
C631 H617 0.929 . S
C631 C630 1.399 . S
C631 C632 1.385 . S
C632 H618 0.931 . S
C632 C631 1.385 . S
C632 C633 1.389 . S
C633 C632 1.389 . S
C633 C634 1.387 . S
C634 H619 0.930 . S
C634 C629 1.390 . S
C634 C633 1.387 . S
H635 C647 0.930 . S
H636 C649 0.930 . S
H637 C650 0.930 . S
H638 C654 0.959 . S
H639 C654 0.959 . S
H640 C654 0.961 . S
H641 C655 0.960 . S
H642 C655 0.961 . S
H643 C655 0.959 . S
H644 C658 0.929 . S
H645 C659 0.931 . S
H646 C661 0.930 . S
C647 H635 0.930 . S
C647 C648 1.399 . S
C647 C652 1.399 . S
C648 C647 1.399 . S
C648 C649 1.376 . S
C649 H636 0.930 . S
C649 C648 1.376 . S
C649 C650 1.388 . S
C650 H637 0.930 . S
C650 C649 1.388 . S
C650 C651 1.390 . S
C651 C650 1.390 . S
C651 C652 1.394 . S
C651 C657 1.465 . S
C652 C647 1.399 . S
C652 C651 1.394 . S
C652 C653 1.516 . S
C653 C652 1.516 . S
C653 C654 1.502 . S
C653 C655 1.561 . S
C653 C656 1.526 . S
C654 H638 0.959 . S
C654 H639 0.959 . S
C654 H640 0.961 . S
C654 C653 1.502 . S
C655 H641 0.960 . S
C655 H642 0.961 . S
C655 H643 0.959 . S
C655 C653 1.561 . S
C656 C653 1.526 . S
C656 C657 1.396 . S
C656 C661 1.390 . S
C657 C651 1.465 . S
C657 C656 1.396 . S
C657 C658 1.399 . S
C658 H644 0.929 . S
C658 C657 1.399 . S
C658 C659 1.385 . S
C659 H645 0.931 . S
C659 C658 1.385 . S
C659 C660 1.389 . S
C660 C659 1.389 . S
C660 C661 1.387 . S
C661 H646 0.930 . S
C661 C656 1.390 . S
C661 C660 1.387 . S
H662 C674 0.930 . S
H663 C676 0.930 . S
H664 C677 0.930 . S
H665 C681 0.959 . S
H666 C681 0.959 . S
H667 C681 0.961 . S
H668 C682 0.960 . S
H669 C682 0.961 . S
H670 C682 0.959 . S
H671 C685 0.929 . S
H672 C686 0.931 . S
H673 C688 0.930 . S
C674 H662 0.930 . S
C674 C675 1.399 . S
C674 C679 1.399 . S
C675 C674 1.399 . S
C675 C676 1.376 . S
C676 H663 0.930 . S
C676 C675 1.376 . S
C676 C677 1.388 . S
C677 H664 0.930 . S
C677 C676 1.388 . S
C677 C678 1.390 . S
C678 C677 1.390 . S
C678 C679 1.394 . S
C678 C684 1.465 . S
C679 C674 1.399 . S
C679 C678 1.394 . S
C679 C680 1.516 . S
C680 C679 1.516 . S
C680 C681 1.502 . S
C680 C682 1.561 . S
C680 C683 1.526 . S
C681 H665 0.959 . S
C681 H666 0.959 . S
C681 H667 0.961 . S
C681 C680 1.502 . S
C682 H668 0.960 . S
C682 H669 0.961 . S
C682 H670 0.959 . S
C682 C680 1.561 . S
C683 C680 1.526 . S
C683 C684 1.396 . S
C683 C688 1.390 . S
C684 C678 1.465 . S
C684 C683 1.396 . S
C684 C685 1.399 . S
C685 H671 0.929 . S
C685 C684 1.399 . S
C685 C686 1.385 . S
C686 H672 0.931 . S
C686 C685 1.385 . S
C686 C687 1.389 . S
C687 C686 1.389 . S
C687 C688 1.387 . S
C688 H673 0.930 . S
C688 C683 1.390 . S
C688 C687 1.387 . S
H689 C701 0.930 . S
H690 C703 0.930 . S
H691 C704 0.930 . S
H692 C708 0.959 . S
H693 C708 0.959 . S
H694 C708 0.961 . S
H695 C709 0.960 . S
H696 C709 0.961 . S
H697 C709 0.959 . S
H698 C712 0.929 . S
H699 C713 0.931 . S
H700 C715 0.930 . S
C701 H689 0.930 . S
C701 C702 1.399 . S
C701 C706 1.399 . S
C702 C701 1.399 . S
C702 C703 1.376 . S
C703 H690 0.930 . S
C703 C702 1.376 . S
C703 C704 1.388 . S
C704 H691 0.930 . S
C704 C703 1.388 . S
C704 C705 1.390 . S
C705 C704 1.390 . S
C705 C706 1.394 . S
C705 C711 1.465 . S
C706 C701 1.399 . S
C706 C705 1.394 . S
C706 C707 1.516 . S
C707 C706 1.516 . S
C707 C708 1.502 . S
C707 C709 1.561 . S
C707 C710 1.526 . S
C708 H692 0.959 . S
C708 H693 0.959 . S
C708 H694 0.961 . S
C708 C707 1.502 . S
C709 H695 0.960 . S
C709 H696 0.961 . S
C709 H697 0.959 . S
C709 C707 1.561 . S
C710 C707 1.526 . S
C710 C711 1.396 . S
C710 C715 1.390 . S
C711 C705 1.465 . S
C711 C710 1.396 . S
C711 C712 1.399 . S
C712 H698 0.929 . S
C712 C711 1.399 . S
C712 C713 1.385 . S
C713 H699 0.931 . S
C713 C712 1.385 . S
C713 C714 1.389 . S
C714 C713 1.389 . S
C714 C715 1.387 . S
C715 H700 0.930 . S
C715 C710 1.390 . S
C715 C714 1.387 . S
H716 C728 0.930 . S
H717 C730 0.930 . S
H718 C731 0.930 . S
H719 C735 0.959 . S
H720 C735 0.959 . S
H721 C735 0.961 . S
H722 C736 0.946 1_545 S
H723 C736 0.961 . S
H724 C736 0.946 1_545 S
H725 C739 0.929 1_545 S
H726 C740 0.931 . S
H727 C742 0.930 . S
C728 H716 0.930 . S
C728 C729 1.399 . S
C728 C733 1.399 . S
C729 C728 1.399 . S
C729 C730 1.376 . S
C730 H717 0.930 . S
C730 C729 1.376 . S
C730 C731 1.388 . S
C731 H718 0.930 . S
C731 C730 1.388 . S
C731 C732 1.390 . S
C732 C731 1.390 . S
C732 C733 1.394 . S
C732 C738 1.465 1_545 S
C733 C728 1.399 . S
C733 C732 1.394 . S
C733 C734 1.516 1_545 S
C734 C733 1.516 1_565 S
C734 C735 1.502 . S
C734 C736 1.561 . S
C734 C737 1.526 . S
C735 H719 0.959 . S
C735 H720 0.959 . S
C735 H721 0.961 . S
C735 C734 1.502 . S
C736 H722 0.946 1_565 S
C736 H723 0.961 . S
C736 H724 0.946 1_565 S
C736 C734 1.561 . S
C737 C734 1.526 . S
C737 C738 1.396 . S
C737 C742 1.390 . S
C738 C732 1.465 1_565 S
C738 C737 1.396 . S
C738 C739 1.399 . S
C739 H725 0.929 1_565 S
C739 C738 1.399 . S
C739 C740 1.385 . S
C740 H726 0.931 . S
C740 C739 1.385 . S
C740 C741 1.389 . S
C741 C740 1.389 . S
C741 C742 1.387 . S
C742 H727 0.930 . S
C742 C737 1.390 . S
C742 C741 1.387 . S
H743 C755 0.930 . S
H744 C757 0.930 . S
H745 C758 0.930 . S
H746 C762 0.959 . S
H747 C762 0.959 1_455 S
H748 C762 0.961 . S
H749 C763 0.960 . S
H750 C763 0.961 . S
H751 C763 0.959 . S
H752 C766 0.929 . S
H753 C767 0.931 . S
H754 C769 0.930 . S
C755 H743 0.930 . S
C755 C756 1.399 . S
C755 C760 1.399 . S
C756 C755 1.399 . S
C756 C757 1.376 . S
C757 H744 0.930 . S
C757 C756 1.376 . S
C757 C758 1.388 . S
C758 H745 0.930 . S
C758 C757 1.388 . S
C758 C759 1.390 . S
C759 C758 1.390 . S
C759 C760 1.394 . S
C759 C765 1.465 1_655 S
C760 C755 1.399 . S
C760 C759 1.394 . S
C760 C761 1.516 1_655 S
C761 C760 1.516 1_455 S
C761 C762 1.502 1_455 S
C761 C763 1.561 . S
C761 C764 1.526 . S
C762 H746 0.959 . S
C762 H747 0.959 1_655 S
C762 H748 0.961 . S
C762 C761 1.502 1_655 S
C763 H749 0.960 . S
C763 H750 0.961 . S
C763 H751 0.959 . S
C763 C761 1.561 . S
C764 C761 1.526 . S
C764 C765 1.396 . S
C764 C769 1.390 . S
C765 C759 1.465 1_455 S
C765 C764 1.396 . S
C765 C766 1.399 . S
C766 H752 0.929 . S
C766 C765 1.399 . S
C766 C767 1.385 . S
C767 H753 0.931 . S
C767 C766 1.385 . S
C767 C768 1.389 . S
C768 C767 1.389 . S
C768 C769 1.387 . S
C769 H754 0.930 . S
C769 C764 1.390 . S
C769 C768 1.387 . S
H770 C782 0.930 . S
H771 C784 0.930 . S
H772 C785 0.930 . S
H773 C789 0.959 . S
H774 C789 0.959 . S
H775 C789 0.961 . S
H776 C790 0.960 . S
H777 C790 0.961 1_545 S
H778 C790 0.959 . S
H779 C793 0.929 . S
H780 C794 0.931 . S
H781 C796 0.930 . S
C782 H770 0.930 . S
C782 C783 1.399 . S
C782 C787 1.399 . S
C783 C782 1.399 . S
C783 C784 1.376 . S
C784 H771 0.930 . S
C784 C783 1.376 . S
C784 C785 1.388 . S
C785 H772 0.930 . S
C785 C784 1.388 . S
C785 C786 1.390 . S
C786 C785 1.390 . S
C786 C787 1.394 . S
C786 C792 1.465 1_565 S
C787 C782 1.399 . S
C787 C786 1.394 . S
C787 C788 1.516 1_565 S
C788 C787 1.516 1_545 S
C788 C789 1.502 . S
C788 C790 1.561 1_545 S
C788 C791 1.526 . S
C789 H773 0.959 . S
C789 H774 0.959 . S
C789 H775 0.961 . S
C789 C788 1.502 . S
C790 H776 0.960 . S
C790 H777 0.961 1_565 S
C790 H778 0.959 . S
C790 C788 1.561 1_565 S
C791 C788 1.526 . S
C791 C792 1.396 . S
C791 C796 1.390 . S
C792 C786 1.465 1_545 S
C792 C791 1.396 . S
C792 C793 1.399 . S
C793 H779 0.929 . S
C793 C792 1.399 . S
C793 C794 1.385 . S
C794 H780 0.931 . S
C794 C793 1.385 . S
C794 C795 1.389 . S
C795 C794 1.389 . S
C795 C796 1.387 . S
C796 H781 0.930 . S
C796 C791 1.390 . S
C796 C795 1.387 . S
H797 C809 0.930 . S
H798 C811 0.930 . S
H799 C812 0.930 . S
H800 C816 0.959 1_655 S
H801 C816 0.959 . S
H802 C816 0.961 1_655 S
H803 C817 0.960 . S
H804 C817 0.961 . S
H805 C817 0.959 . S
H806 C820 0.929 . S
H807 C821 0.931 . S
H808 C823 0.930 . S
C809 H797 0.930 . S
C809 C810 1.399 . S
C809 C814 1.399 . S
C810 C809 1.399 . S
C810 C811 1.376 . S
C811 H798 0.930 . S
C811 C810 1.376 . S
C811 C812 1.388 . S
C812 H799 0.930 . S
C812 C811 1.388 . S
C812 C813 1.390 . S
C813 C812 1.390 . S
C813 C814 1.394 . S
C813 C819 1.465 1_655 S
C814 C809 1.399 . S
C814 C813 1.394 . S
C814 C815 1.516 1_655 S
C815 C814 1.516 1_455 S
C815 C816 1.502 . S
C815 C817 1.561 . S
C815 C818 1.526 . S
C816 H800 0.959 1_455 S
C816 H801 0.959 . S
C816 H802 0.961 1_455 S
C816 C815 1.502 . S
C817 H803 0.960 . S
C817 H804 0.961 . S
C817 H805 0.959 . S
C817 C815 1.561 . S
C818 C815 1.526 . S
C818 C819 1.396 . S
C818 C823 1.390 . S
C819 C813 1.465 1_455 S
C819 C818 1.396 . S
C819 C820 1.399 . S
C820 H806 0.929 . S
C820 C819 1.399 . S
C820 C821 1.385 . S
C821 H807 0.931 . S
C821 C820 1.385 . S
C821 C822 1.389 . S
C822 C821 1.389 . S
C822 C823 1.387 . S
C823 H808 0.930 . S
C823 C818 1.390 . S
C823 C822 1.387 . S
C189 C116 1.154 . S
C201 C7 1.254 . S
C216 C27 1.178 . S
C228 C141 1.139 . S
C243 C160 1.261 . S
C255 C51 1.163 . S
C270 C71 1.237 . S
C282 C97 1.269 . S
C297 C96 1.458 . S
C309 C6 1.455 . S
C324 C31 1.446 . S
C336 C114 1.437 . S
C351 C50 1.454 . S
C363 C140 1.454 . S
C378 C158 1.459 . S
C390 C75 1.454 . S
C405 C8 1.429 . S
C417 C93 1.446 . S
C432 C117 1.455 . S
C444 C26 1.458 . S
C459 C52 1.432 . S
C471 C137 1.446 . S
C486 C70 1.440 . S
C498 C161 1.450 . S
C513 C30 0.996 . S
C525 C5 1.047 . S
C540 C29 1.054 . S
C552 C48 1.026 . S
C567 C49 1.030 . S
C579 C74 1.039 . S
C594 C73 1.030 . S
C606 C4 0.997 . S
C621 C94 1.046 . S
C633 C162 1.041 . S
C648 C92 0.993 . S
C660 C119 1.025 . S
C675 C138 1.014 . S
C687 C118 1.049 . S
C702 C163 0.974 . S
C714 C136 1.037 . S
C729 C9 1.523 . S
C741 C53 1.614 . S
C756 C72 1.610 . S
C768 C28 1.582 . S
C783 C139 1.503 . S
C795 C95 1.556 . S
C810 C159 1.521 . S
C822 C115 1.551 . S
