# Generated by pormake.
# Topology zfv, (5)-cn, num edge types: 1
# Building blocks:
#     Node 0, Type 0, BuildingBlock: XOMCOT_clean_sbu_1, # of connection points: 5
#     Node 1, Type 0, BuildingBlock: XOMCOT_clean_sbu_1, # of connection points: 5
#     Node 2, Type 0, BuildingBlock: XOMCOT_clean_sbu_1, # of connection points: 5
#     Node 3, Type 0, BuildingBlock: XOMCOT_clean_sbu_1, # of connection points: 5
#     Node 4, Type 0, BuildingBlock: XOMCOT_clean_sbu_1, # of connection points: 5
#     Node 5, Type 0, BuildingBlock: XOMCOT_clean_sbu_1, # of connection points: 5
#     Node 6, Type 0, BuildingBlock: XOMCOT_clean_sbu_1, # of connection points: 5
#     Node 7, Type 0, BuildingBlock: XOMCOT_clean_sbu_1, # of connection points: 5
#     Node 8, Type 0, BuildingBlock: XOMCOT_clean_sbu_1, # of connection points: 5
#     Node 9, Type 0, BuildingBlock: XOMCOT_clean_sbu_1, # of connection points: 5
#     Node 10, Type 0, BuildingBlock: XOMCOT_clean_sbu_1, # of connection points: 5
#     Node 11, Type 0, BuildingBlock: XOMCOT_clean_sbu_1, # of connection points: 5
#     Node 12, Type 0, BuildingBlock: XOMCOT_clean_sbu_1, # of connection points: 5
#     Node 13, Type 0, BuildingBlock: XOMCOT_clean_sbu_1, # of connection points: 5
#     Node 14, Type 0, BuildingBlock: XOMCOT_clean_sbu_1, # of connection points: 5
#     Node 15, Type 0, BuildingBlock: XOMCOT_clean_sbu_1, # of connection points: 5
#     Edge 16, Type (0, 0), BuildingBlock: XUDNAN_clean_linker_2, # of connection points: 2
#     Edge 17, Type (0, 0), BuildingBlock: XUDNAN_clean_linker_2, # of connection points: 2
#     Edge 18, Type (0, 0), BuildingBlock: XUDNAN_clean_linker_2, # of connection points: 2
#     Edge 19, Type (0, 0), BuildingBlock: XUDNAN_clean_linker_2, # of connection points: 2
#     Edge 20, Type (0, 0), BuildingBlock: XUDNAN_clean_linker_2, # of connection points: 2
#     Edge 21, Type (0, 0), BuildingBlock: XUDNAN_clean_linker_2, # of connection points: 2
#     Edge 22, Type (0, 0), BuildingBlock: XUDNAN_clean_linker_2, # of connection points: 2
#     Edge 23, Type (0, 0), BuildingBlock: XUDNAN_clean_linker_2, # of connection points: 2
#     Edge 24, Type (0, 0), BuildingBlock: XUDNAN_clean_linker_2, # of connection points: 2
#     Edge 25, Type (0, 0), BuildingBlock: XUDNAN_clean_linker_2, # of connection points: 2
#     Edge 26, Type (0, 0), BuildingBlock: XUDNAN_clean_linker_2, # of connection points: 2
#     Edge 27, Type (0, 0), BuildingBlock: XUDNAN_clean_linker_2, # of connection points: 2
#     Edge 28, Type (0, 0), BuildingBlock: XUDNAN_clean_linker_2, # of connection points: 2
#     Edge 29, Type (0, 0), BuildingBlock: XUDNAN_clean_linker_2, # of connection points: 2
#     Edge 30, Type (0, 0), BuildingBlock: XUDNAN_clean_linker_2, # of connection points: 2
#     Edge 31, Type (0, 0), BuildingBlock: XUDNAN_clean_linker_2, # of connection points: 2
#     Edge 32, Type (0, 0), BuildingBlock: XUDNAN_clean_linker_2, # of connection points: 2
#     Edge 33, Type (0, 0), BuildingBlock: XUDNAN_clean_linker_2, # of connection points: 2
#     Edge 34, Type (0, 0), BuildingBlock: XUDNAN_clean_linker_2, # of connection points: 2
#     Edge 35, Type (0, 0), BuildingBlock: XUDNAN_clean_linker_2, # of connection points: 2
#     Edge 36, Type (0, 0), BuildingBlock: XUDNAN_clean_linker_2, # of connection points: 2
#     Edge 37, Type (0, 0), BuildingBlock: XUDNAN_clean_linker_2, # of connection points: 2
#     Edge 38, Type (0, 0), BuildingBlock: XUDNAN_clean_linker_2, # of connection points: 2
#     Edge 39, Type (0, 0), BuildingBlock: XUDNAN_clean_linker_2, # of connection points: 2
#     Edge 40, Type (0, 0), BuildingBlock: XUDNAN_clean_linker_2, # of connection points: 2
#     Edge 41, Type (0, 0), BuildingBlock: XUDNAN_clean_linker_2, # of connection points: 2
#     Edge 42, Type (0, 0), BuildingBlock: XUDNAN_clean_linker_2, # of connection points: 2
#     Edge 43, Type (0, 0), BuildingBlock: XUDNAN_clean_linker_2, # of connection points: 2
#     Edge 44, Type (0, 0), BuildingBlock: XUDNAN_clean_linker_2, # of connection points: 2
#     Edge 45, Type (0, 0), BuildingBlock: XUDNAN_clean_linker_2, # of connection points: 2
#     Edge 46, Type (0, 0), BuildingBlock: XUDNAN_clean_linker_2, # of connection points: 2
#     Edge 47, Type (0, 0), BuildingBlock: XUDNAN_clean_linker_2, # of connection points: 2
#     Edge 48, Type (0, 0), BuildingBlock: XUDNAN_clean_linker_2, # of connection points: 2
#     Edge 49, Type (0, 0), BuildingBlock: XUDNAN_clean_linker_2, # of connection points: 2
#     Edge 50, Type (0, 0), BuildingBlock: XUDNAN_clean_linker_2, # of connection points: 2
#     Edge 51, Type (0, 0), BuildingBlock: XUDNAN_clean_linker_2, # of connection points: 2
#     Edge 52, Type (0, 0), BuildingBlock: XUDNAN_clean_linker_2, # of connection points: 2
#     Edge 53, Type (0, 0), BuildingBlock: XUDNAN_clean_linker_2, # of connection points: 2
#     Edge 54, Type (0, 0), BuildingBlock: XUDNAN_clean_linker_2, # of connection points: 2
#     Edge 55, Type (0, 0), BuildingBlock: XUDNAN_clean_linker_2, # of connection points: 2
# Relax obj value: 0.103
# Max RMSD: 0.112
# Mean RMSD: 0.112
data_MOF--net-zfv--node1-XOMCOT_clean_sbu_1--edge1-XUDNAN_clean_linker_2
_symmetry_space_group_name_H-M    P1
_symmetry_Int_Tables_number       1
_symmetry_cell_setting            triclinic
loop_
_symmetry_equiv_pos_as_xyz
'x, y, z'
_cell_length_a     76.788145
_cell_length_b     76.775917
_cell_length_c     17.649462
_cell_angle_alpha  90.025785
_cell_angle_beta   89.934439
_cell_angle_gamma 90.070344
loop_
_atom_site_label
_atom_site_type_symbol
_atom_site_fract_x
_atom_site_fract_y
_atom_site_fract_z
_atom_type_partial_charge
C0 C 0.06097 0.58396 0.15138 0.0
C1 C 0.0599 0.5808 0.2279 0.0
N2 N 0.07453 0.58676 0.26074 0.0
N3 N 0.07637 0.59155 0.13517 0.0
C4 C 0.0843 0.5933 0.20355 0.0
H5 H 0.05098 0.58107 0.11015 0.0
Co6 Co 0.08266 0.598 0.03567 0.0
C7 C 0.12028 0.60781 0.04732 0.0
O8 O 0.12428 0.60107 0.98118 0.0
N9 N 0.08826 0.60442 0.93481 0.0
C10 C 0.09592 0.61931 0.83172 0.0
C11 C 0.09479 0.61969 0.90969 0.0
C12 C 0.08522 0.59516 0.87079 0.0
N13 N 0.08987 0.60383 0.80685 0.0
O14 O 0.09296 0.57536 0.02081 0.0
H15 H 0.09841 0.63049 0.94581 0.0
H16 H 0.07921 0.58246 0.87108 0.0
O17 O 0.1047 0.60707 0.07238 0.0
C18 C 0.0819 0.56359 1.0039 0.0
O19 O 0.06565 0.56823 0.99265 0.0
N20 N 0.07167 0.61946 0.05087 0.0
C21 C 0.04984 0.64723 0.08742 0.0
C22 C 0.06591 0.64514 0.12405 0.0
C23 C 0.07664 0.63114 0.10512 0.0
C24 C 0.05647 0.62168 1.01231 0.0
C25 C 0.04539 0.6356 0.02923 0.0
H26 H 0.08842 0.62922 0.13734 0.0
H27 H 0.05253 0.6121 0.97077 0.0
H28 H 0.09694 0.59916 0.21157 0.0
H29 H 0.04908 0.57482 0.25748 0.0
H30 H 0.10086 0.62974 0.79649 0.0
H31 H 0.06984 0.65388 0.16912 0.0
H32 H 0.03301 0.63661 1.00026 0.0
C33 C 0.71896 0.7452 0.44495 0.0
C34 C 0.71722 0.74267 0.52151 0.0
N35 N 0.71316 0.75803 0.5536 0.0
N36 N 0.71583 0.76204 0.42844 0.0
C37 C 0.71248 0.76966 0.49616 0.0
H38 H 0.72168 0.73523 0.40325 0.0
Co39 Co 0.71474 0.7696 0.32834 0.0
C40 C 0.69087 0.79934 0.32514 0.0
O41 O 0.68388 0.79223 0.26459 0.0
N42 N 0.71437 0.77703 0.22534 0.0
C43 C 0.71893 0.79411 0.12488 0.0
C44 C 0.72018 0.7928 0.20235 0.0
C45 C 0.70999 0.76889 0.15983 0.0
N46 N 0.71248 0.77902 0.09798 0.0
O47 O 0.73731 0.78007 0.33877 0.0
H48 H 0.725 0.80285 0.23986 0.0
H49 H 0.70551 0.75564 0.15642 0.0
O50 O 0.70345 0.79159 0.35886 0.0
C51 C 0.74943 0.76911 0.32672 0.0
O52 O 0.74509 0.75304 0.30919 0.0
N53 N 0.69315 0.75778 0.32015 0.0
C54 C 0.66476 0.73497 0.32427 0.0
C55 C 0.66461 0.75035 0.36681 0.0
C56 C 0.67902 0.76149 0.36477 0.0
C57 C 0.69386 0.74229 0.28248 0.0
C58 C 0.6796 0.73097 0.28156 0.0
H59 H 0.6791 0.77253 0.40255 0.0
H60 H 0.70589 0.73824 0.25603 0.0
H61 H 0.70877 0.78317 0.50292 0.0
H62 H 0.71845 0.73041 0.55132 0.0
H63 H 0.72239 0.80538 0.09128 0.0
H64 H 0.65359 0.75356 0.40257 0.0
H65 H 0.6805 0.71879 0.25079 0.0
C66 C 0.56288 0.41086 0.65564 0.0
C67 C 0.56368 0.41404 0.73212 0.0
N68 N 0.54832 0.4095 0.7631 0.0
N69 N 0.54699 0.40464 0.63772 0.0
C70 C 0.53839 0.40374 0.7049 0.0
H71 H 0.57334 0.41283 0.61548 0.0
Co72 Co 0.54105 0.39893 0.53774 0.0
C73 C 0.50307 0.39534 0.54309 0.0
O74 O 0.50169 0.4065 0.48699 0.0
N75 N 0.5356 0.39315 0.43647 0.0
C76 C 0.52586 0.37931 0.33407 0.0
C77 C 0.52716 0.3788 0.41185 0.0
C78 C 0.53952 0.40203 0.37239 0.0
N79 N 0.53365 0.39397 0.3089 0.0
O80 O 0.53283 0.42234 0.52262 0.0
H81 H 0.52216 0.36862 0.44827 0.0
H82 H 0.5468 0.41406 0.37237 0.0
O83 O 0.51805 0.39157 0.5695 0.0
C84 C 0.54445 0.43364 0.50694 0.0
O85 O 0.5606 0.42841 0.49775 0.0
N86 N 0.55014 0.37662 0.55318 0.0
C87 C 0.56899 0.34656 0.58763 0.0
C88 C 0.55244 0.34943 0.61929 0.0
C89 C 0.54328 0.36461 0.6019 0.0
C90 C 0.56586 0.3738 0.51961 0.0
C91 C 0.5755 0.35883 0.53582 0.0
H92 H 0.53107 0.36697 0.63043 0.0
H93 H 0.57128 0.38364 0.48253 0.0
H94 H 0.52513 0.39918 0.71113 0.0
H95 H 0.57476 0.4191 0.76299 0.0
H96 H 0.51945 0.36966 0.29919 0.0
H97 H 0.5468 0.34026 0.65897 0.0
H98 H 0.5883 0.35737 0.51089 0.0
C99 C 0.89084 0.248 0.90934 0.0
C100 C 0.88936 0.24751 0.98719 0.0
N101 N 0.90013 0.23511 1.01377 0.0
N102 N 0.90241 0.23589 0.88629 0.0
C103 C 0.90794 0.2284 0.95149 0.0
H104 H 0.88409 0.25689 0.87219 0.0
Co105 Co 0.9099 0.23237 0.7854 0.0
C106 C 0.91155 0.19565 0.8371 0.0
O107 O 0.89574 0.19594 0.86548 0.0
N108 N 0.91771 0.22882 0.68473 0.0
C109 C 0.93483 0.21915 0.59193 0.0
C110 C 0.9334 0.22178 0.66845 0.0
C111 C 0.90989 0.23056 0.61607 0.0
N112 N 0.92005 0.2246 0.55884 0.0
O113 O 0.88743 0.22303 0.7602 0.0
H114 H 0.94306 0.21815 0.71003 0.0
H115 H 0.89676 0.23527 0.60814 0.0
O116 O 0.91821 0.20925 0.80775 0.0
C117 C 0.87623 0.23413 0.73808 0.0
O118 O 0.88123 0.25036 0.72875 0.0
N119 N 0.93135 0.24254 0.81063 0.0
C120 C 0.95962 0.26245 0.85922 0.0
C121 C 0.95802 0.24493 0.88062 0.0
C122 C 0.94382 0.23513 0.85535 0.0
C123 C 0.93298 0.25936 0.78721 0.0
C124 C 0.94711 0.26954 0.81033 0.0
H125 H 0.94265 0.22181 0.87414 0.0
H126 H 0.92289 0.26508 0.75249 0.0
H127 H 0.91791 0.21851 0.95366 0.0
H128 H 0.88095 0.25565 0.02132 0.0
H129 H 0.94577 0.21327 0.56282 0.0
H130 H 0.9675 0.23895 0.91783 0.0
H131 H 0.9478 0.28306 0.79306 0.0
C132 C 0.06139 0.41311 0.86468 0.0
C133 C 0.05992 0.41248 0.78712 0.0
N134 N 0.07232 0.40174 0.76067 0.0
N135 N 0.07483 0.40302 0.88672 0.0
C136 C 0.08122 0.39616 0.82182 0.0
H137 H 0.05325 0.42056 0.90267 0.0
Co138 Co 0.08179 0.40111 0.98705 0.0
C139 C 0.11158 0.37729 0.99046 0.0
O140 O 0.10429 0.37005 0.05008 0.0
N141 N 0.08885 0.40005 0.09004 0.0
C142 C 0.10528 0.406 0.19109 0.0
C143 C 0.10407 0.40712 0.11376 0.0
C144 C 0.08112 0.39451 0.1549 0.0
N145 N 0.09089 0.39801 0.21656 0.0
O146 O 0.09223 0.42387 0.97964 0.0
H147 H 0.11372 0.41297 0.07701 0.0
H148 H 0.06842 0.38856 0.15832 0.0
O149 O 0.10393 0.39 0.95717 0.0
C150 C 0.08215 0.43573 1.00462 0.0
O151 O 0.06705 0.43104 0.0333 0.0
N152 N 0.06988 0.37955 0.99222 0.0
C153 C 0.04704 0.35121 0.9874 0.0
C154 C 0.06264 0.35091 0.94641 0.0
C155 C 0.07382 0.36528 0.94894 0.0
C156 C 0.05427 0.38035 0.02889 0.0
C157 C 0.04289 0.36613 0.0293 0.0
H158 H 0.08519 0.36509 0.91312 0.0
H159 H 0.05037 0.39233 0.05627 0.0
H160 H 0.09233 0.38752 0.81895 0.0
H161 H 0.05042 0.41924 0.75273 0.0
H162 H 0.11583 0.41076 0.22612 0.0
H163 H 0.06603 0.33978 0.91164 0.0
H164 H 0.03062 0.36708 0.05935 0.0
C165 C 0.88826 0.75578 0.12348 0.0
C166 C 0.88633 0.75721 0.0465 0.0
N167 N 0.89758 0.76934 0.02122 0.0
N168 N 0.90068 0.76693 0.14704 0.0
C169 C 0.90614 0.77513 0.08329 0.0
H170 H 0.88157 0.74659 0.15963 0.0
Co171 Co 0.90873 0.76653 0.24626 0.0
C172 C 0.93488 0.79474 0.26156 0.0
O173 O 0.94318 0.78528 0.31175 0.0
N174 N 0.91646 0.76533 0.34988 0.0
C175 C 0.92905 0.75621 0.4568 0.0
C176 C 0.92855 0.75444 0.37973 0.0
C177 C 0.91007 0.77386 0.41157 0.0
N178 N 0.9174 0.76835 0.47691 0.0
O179 O 0.888 0.77862 0.27723 0.0
H180 H 0.93684 0.74566 0.34884 0.0
H181 H 0.89978 0.78345 0.4094 0.0
O182 O 0.92095 0.78888 0.23083 0.0
C183 C 0.87654 0.76795 0.30147 0.0
O184 O 0.88098 0.75151 0.30883 0.0
N185 N 0.92781 0.7532 0.2127 0.0
C186 C 0.95423 0.72948 0.18216 0.0
C187 C 0.95623 0.74705 0.16252 0.0
C188 C 0.94268 0.75875 0.17738 0.0
C189 C 0.92489 0.73583 0.22265 0.0
C190 C 0.93813 0.72376 0.20986 0.0
H191 H 0.94436 0.77216 0.16106 0.0
H192 H 0.91262 0.73151 0.24637 0.0
H193 H 0.91684 0.78431 0.0816 0.0
H194 H 0.87771 0.74951 1.0113 0.0
H195 H 0.93723 0.74896 0.49548 0.0
H196 H 0.96837 0.75178 0.13891 0.0
H197 H 0.93603 0.71019 0.22406 0.0
C198 C 0.56425 0.5843 0.35361 0.0
C199 C 0.56598 0.58502 0.27616 0.0
N200 N 0.55367 0.59579 0.24917 0.0
N201 N 0.55074 0.59436 0.37522 0.0
C202 C 0.54458 0.6013 0.31009 0.0
H203 H 0.57237 0.57692 0.39184 0.0
Co204 Co 0.54378 0.59663 0.4757 0.0
C205 C 0.51038 0.61585 0.47512 0.0
O206 O 0.51513 0.62382 0.53771 0.0
N207 N 0.537 0.5981 0.57846 0.0
C208 C 0.52219 0.59128 0.68304 0.0
C209 C 0.52272 0.58984 0.60572 0.0
C210 C 0.54494 0.60456 0.64111 0.0
N211 N 0.5361 0.60057 0.70503 0.0
O212 O 0.53542 0.57303 0.47321 0.0
H213 H 0.51338 0.58282 0.57148 0.0
H214 H 0.55728 0.61131 0.64093 0.0
O215 O 0.52069 0.60485 0.44398 0.0
C216 C 0.54577 0.56152 0.4989 0.0
O217 O 0.56086 0.56655 0.52643 0.0
N218 N 0.55334 0.61937 0.47569 0.0
C219 C 0.57452 0.64803 0.44196 0.0
C220 C 0.55724 0.64738 0.41704 0.0
C221 C 0.54695 0.6329 0.43361 0.0
C222 C 0.56996 0.62012 0.50284 0.0
C223 C 0.58071 0.63447 0.48769 0.0
H224 H 0.53451 0.63215 0.40596 0.0
H225 H 0.57537 0.60893 0.53157 0.0
H226 H 0.53354 0.61002 0.30695 0.0
H227 H 0.57567 0.57836 0.24227 0.0
H228 H 0.51254 0.58567 0.72057 0.0
H229 H 0.55204 0.6575 0.38083 0.0
H230 H 0.59412 0.6343 0.50659 0.0
C231 C 0.71769 0.25462 0.56287 0.0
C232 C 0.71949 0.25526 0.48544 0.0
N233 N 0.72142 0.23888 0.45971 0.0
N234 N 0.71819 0.23789 0.58591 0.0
C235 C 0.72071 0.22855 0.52169 0.0
H236 H 0.71556 0.26563 0.60003 0.0
Co237 Co 0.71403 0.23119 0.68614 0.0
C238 C 0.7076 0.19381 0.67753 0.0
O239 O 0.71909 0.19161 0.73179 0.0
N240 N 0.70969 0.22483 0.78768 0.0
C241 C 0.69521 0.21696 0.89153 0.0
C242 C 0.6945 0.21826 0.81402 0.0
C243 C 0.71953 0.22724 0.85052 0.0
N244 N 0.71094 0.22255 0.91429 0.0
O245 O 0.73706 0.22159 0.69161 0.0
H246 H 0.68337 0.21508 0.7791 0.0
H247 H 0.73241 0.23297 0.84998 0.0
O248 O 0.70453 0.20905 0.65211 0.0
C249 C 0.74879 0.23318 0.69955 0.0
O250 O 0.74395 0.24956 0.70461 0.0
N251 N 0.69206 0.24175 0.68118 0.0
C252 C 0.66117 0.26076 0.6781 0.0
C253 C 0.66377 0.24685 0.62776 0.0
C254 C 0.67936 0.2374 0.63039 0.0
C255 C 0.68991 0.25551 0.72898 0.0
C256 C 0.67447 0.26503 0.72917 0.0
H257 H 0.68136 0.22688 0.59065 0.0
H258 H 0.70032 0.25915 0.76709 0.0
H259 H 0.72128 0.21447 0.51991 0.0
H260 H 0.71919 0.26684 0.45046 0.0
H261 H 0.6849 0.21247 0.92862 0.0
H262 H 0.65383 0.24327 0.58711 0.0
H263 H 0.6731 0.27591 0.76785 0.0
C264 C 0.38811 0.26007 0.58456 0.0
C265 C 0.38662 0.26152 0.50749 0.0
N266 N 0.39923 0.27228 0.48262 0.0
N267 N 0.40159 0.26987 0.60863 0.0
C268 C 0.40815 0.27726 0.54503 0.0
H269 H 0.38033 0.25169 0.62034 0.0
Co270 Co 0.40929 0.26907 0.70831 0.0
C271 C 0.42675 0.30391 0.73782 0.0
O272 O 0.43203 0.29953 0.80583 0.0
N273 N 0.41645 0.26709 0.81045 0.0
C274 C 0.42678 0.25461 0.91508 0.0
C275 C 0.42624 0.25385 0.83758 0.0
C276 C 0.41078 0.27545 0.87362 0.0
N277 N 0.41712 0.26822 0.93766 0.0
O278 O 0.38707 0.27794 0.74056 0.0
H279 H 0.43204 0.24365 0.80387 0.0
H280 H 0.40177 0.28628 0.87287 0.0
O281 O 0.41816 0.29304 0.69742 0.0
C282 C 0.37647 0.26651 0.7655 0.0
O283 O 0.38199 0.25039 0.77268 0.0
N284 N 0.43059 0.25937 0.67501 0.0
C285 C 0.46054 0.23956 0.65024 0.0
C286 C 0.46175 0.25702 0.67292 0.0
C287 C 0.44665 0.26671 0.68499 0.0
C288 C 0.42919 0.24277 0.64793 0.0
C289 C 0.44402 0.23263 0.63485 0.0
H290 H 0.44811 0.27965 0.70694 0.0
H291 H 0.41644 0.23698 0.64116 0.0
H292 H 0.41979 0.28521 0.54391 0.0
H293 H 0.37733 0.25474 0.47197 0.0
H294 H 0.43344 0.2456 0.95225 0.0
H295 H 0.47429 0.26291 0.68468 0.0
H296 H 0.44249 0.21916 0.61784 0.0
C297 C 0.22301 0.75284 0.14635 0.0
C298 C 0.22163 0.75557 0.06975 0.0
N299 N 0.21533 0.74095 0.03784 0.0
N300 N 0.2174 0.73665 0.16304 0.0
C301 C 0.21294 0.72958 0.09542 0.0
H302 H 0.22724 0.76229 0.18791 0.0
Co303 Co 0.21533 0.7292 0.26302 0.0
C304 C 0.18903 0.70172 0.26577 0.0
O305 O 0.18235 0.70977 0.32473 0.0
N306 N 0.21396 0.72172 0.36622 0.0
C307 C 0.21672 0.70426 0.46663 0.0
C308 C 0.21825 0.70549 0.3892 0.0
C309 C 0.21018 0.73017 0.43175 0.0
N310 N 0.21163 0.71984 0.49361 0.0
O311 O 0.23706 0.71713 0.25365 0.0
H312 H 0.22226 0.69508 0.3517 0.0
H313 H 0.2069 0.74375 0.43515 0.0
O314 O 0.20222 0.70825 0.2315 0.0
C315 C 0.24896 0.72742 0.27682 0.0
O316 O 0.24424 0.74275 0.30281 0.0
N317 N 0.19513 0.74298 0.2709 0.0
C318 C 0.17197 0.77104 0.25812 0.0
C319 C 0.16874 0.75525 0.22016 0.0
C320 C 0.18058 0.74143 0.22662 0.0
C321 C 0.19844 0.75825 0.30732 0.0
C322 C 0.18678 0.77208 0.30446 0.0
H323 H 0.17874 0.73015 0.19097 0.0
H324 H 0.2109 0.76023 0.33442 0.0
H325 H 0.20729 0.71675 0.08877 0.0
H326 H 0.22468 0.76749 0.03978 0.0
H327 H 0.21912 0.69271 0.50011 0.0
H328 H 0.15786 0.75396 0.18162 0.0
H329 H 0.18995 0.78384 0.33529 0.0
C330 C 0.22331 0.24225 0.95171 0.0
C331 C 0.22541 0.24212 0.02915 0.0
N332 N 0.22263 0.25836 0.05574 0.0
N333 N 0.21928 0.25848 0.92891 0.0
C334 C 0.21901 0.26804 0.99343 0.0
H335 H 0.2244 0.23114 0.91431 0.0
Co336 Co 0.21421 0.26442 0.82835 0.0
C337 C 0.20854 0.30207 0.83726 0.0
O338 O 0.22102 0.30426 0.78715 0.0
N339 N 0.209 0.27022 0.7268 0.0
C340 C 0.19485 0.28095 0.62717 0.0
C341 C 0.19429 0.27834 0.70407 0.0
C342 C 0.21815 0.26764 0.66196 0.0
N343 N 0.20978 0.27416 0.60081 0.0
O344 O 0.23714 0.27413 0.81814 0.0
H345 H 0.18381 0.28227 0.74135 0.0
H346 H 0.23077 0.26142 0.65966 0.0
O347 O 0.20481 0.28676 0.8604 0.0
C348 C 0.24907 0.26295 0.80643 0.0
O349 O 0.2446 0.24649 0.79947 0.0
N350 N 0.19236 0.25378 0.8384 0.0
C351 C 0.16169 0.23454 0.85085 0.0
C352 C 0.16491 0.24856 0.89984 0.0
C353 C 0.18036 0.25814 0.8924 0.0
C354 C 0.18959 0.23993 0.79164 0.0
C355 C 0.17421 0.2303 0.79608 0.0
H356 H 0.18283 0.26877 0.93104 0.0
H357 H 0.19946 0.23629 0.75082 0.0
H358 H 0.2157 0.28171 0.99489 0.0
H359 H 0.22872 0.23086 0.06297 0.0
H360 H 0.18505 0.28734 0.593 0.0
H361 H 0.15554 0.25214 0.94303 0.0
H362 H 0.17229 0.21939 0.75804 0.0
C363 C 0.41137 0.75181 0.36042 0.0
C364 C 0.41392 0.75391 0.43675 0.0
N365 N 0.41645 0.7381 0.46748 0.0
N366 N 0.4125 0.73477 0.3427 0.0
C367 C 0.41543 0.72662 0.40952 0.0
H368 H 0.40932 0.76212 0.31971 0.0
Co369 Co 0.41177 0.72751 0.2422 0.0
C370 C 0.43114 0.69456 0.23025 0.0
O371 O 0.43731 0.69992 0.16483 0.0
N372 N 0.41028 0.72067 0.139 0.0
C373 C 0.40269 0.7051 0.0376 0.0
C374 C 0.40161 0.70636 0.11504 0.0
C375 C 0.41623 0.72805 0.07417 0.0
N376 N 0.41192 0.71876 1.01162 0.0
O377 O 0.38859 0.71891 0.25726 0.0
H378 H 0.39515 0.69712 0.15185 0.0
H379 H 0.42341 0.7401 0.07223 0.0
O380 O 0.42113 0.70445 0.26929 0.0
C381 C 0.37643 0.73012 0.25387 0.0
O382 O 0.38053 0.74653 0.24245 0.0
N383 N 0.43434 0.73718 0.23002 0.0
C384 C 0.46439 0.75779 0.24248 0.0
C385 C 0.46377 0.74102 0.27372 0.0
C386 C 0.44858 0.73109 0.26822 0.0
C387 C 0.4347 0.75349 0.19934 0.0
C388 C 0.44964 0.76391 0.20391 0.0
H389 H 0.44803 0.71921 0.30051 0.0
H390 H 0.42295 0.7589 0.17518 0.0
H391 H 0.41748 0.71274 0.41529 0.0
H392 H 0.41412 0.76613 0.46741 0.0
H393 H 0.39732 0.69468 1.00353 0.0
H394 H 0.47451 0.73601 0.30691 0.0
H395 H 0.4494 0.77687 0.17976 0.0
C396 C 0.55845 0.09763 0.72595 0.0
C397 C 0.55793 0.09408 0.802 0.0
N398 N 0.57275 0.08588 0.82156 0.0
N399 N 0.57371 0.09219 0.69628 0.0
C400 C 0.58182 0.08436 0.75563 0.0
H401 H 0.54825 0.10409 0.69478 0.0
Co402 Co 0.57971 0.09531 0.59206 0.0
C403 C 0.61361 0.10864 0.66823 0.0
O404 O 0.60844 0.10774 0.73895 0.0
N405 N 0.58505 0.0983 0.48818 0.0
C406 C 0.59538 0.11066 0.38315 0.0
C407 C 0.59281 0.11267 0.45958 0.0
C408 C 0.58265 0.08781 0.42699 0.0
N409 N 0.58897 0.09508 0.36259 0.0
O410 O 0.58859 0.072 0.58838 0.0
H411 H 0.59637 0.12403 0.49233 0.0
H412 H 0.57672 0.07504 0.42967 0.0
O413 O 0.60325 0.10429 0.61465 0.0
C414 C 0.57671 0.06045 0.58478 0.0
O415 O 0.56038 0.06557 0.58474 0.0
N416 N 0.56993 0.11786 0.59412 0.0
C417 C 0.55032 0.14845 0.60717 0.0
C418 C 0.56716 0.1473 0.63796 0.0
C419 C 0.57659 0.13185 0.63207 0.0
C420 C 0.55414 0.11905 0.55927 0.0
C421 C 0.54403 0.13412 0.56575 0.0
H422 H 0.58893 0.13116 0.66038 0.0
H423 H 0.54894 0.10782 0.5299 0.0
H424 H 0.59433 0.07799 0.75075 0.0
H425 H 0.54763 0.09797 0.84024 0.0
H426 H 0.60144 0.11995 0.34524 0.0
H427 H 0.57294 0.1581 0.66834 0.0
H428 H 0.5311 0.13414 0.54144 0.0
C429 C 0.05776 0.92566 0.16959 0.0
C430 C 0.05591 0.92897 0.24558 0.0
N431 N 0.0446 0.91736 0.27458 0.0
N432 N 0.04746 0.91219 0.1497 0.0
C433 C 0.03969 0.90722 0.21548 0.0
H434 H 0.06627 0.93261 0.13134 0.0
Co435 Co 0.04658 0.90397 0.04936 0.0
C436 C 0.01982 0.8763 0.0495 0.0
O437 O 0.03005 0.86667 1.00733 0.0
N438 N 0.04622 0.89602 0.94474 0.0
C439 C 0.05264 0.88227 0.83638 0.0
C440 C 0.05489 0.88242 0.91347 0.0
C441 C 0.03865 0.90378 0.88371 0.0
N442 N 0.0425 0.89581 0.81707 0.0
O443 O 0.03362 0.92445 0.02226 0.0
H444 H 0.0625 0.87292 0.94385 0.0
H445 H 0.03059 0.91526 0.88758 0.0
O446 O 0.02484 0.89138 0.07125 0.0
C447 C 0.04402 0.93625 0.99878 0.0
O448 O 0.0604 0.93199 0.98731 0.0
N449 N 0.06093 0.88538 0.07897 0.0
C450 C 0.08739 0.86297 0.12689 0.0
C451 C 0.07015 0.86053 0.15142 0.0
C452 C 0.05712 0.8721 0.12786 0.0
C453 C 0.07769 0.88827 0.05697 0.0
C454 C 0.09099 0.87703 0.07854 0.0
H455 H 0.04423 0.87069 0.15146 0.0
H456 H 0.08067 0.89939 0.02162 0.0
H457 H 0.03056 0.89652 0.22005 0.0
H458 H 0.06262 0.93896 0.27758 0.0
H459 H 0.05865 0.87319 0.79747 0.0
H460 H 0.06687 0.85023 0.19084 0.0
H461 H 0.10404 0.87947 0.05771 0.0
C462 C 0.55822 0.9156 0.34563 0.0
C463 C 0.55874 0.91749 0.26805 0.0
N464 N 0.57343 0.90997 0.24172 0.0
N465 N 0.57253 0.90705 0.36898 0.0
C466 C 0.58158 0.90385 0.30446 0.0
H467 H 0.54774 0.91973 0.38242 0.0
Co468 Co 0.57633 0.8996 0.4691 0.0
C469 C 0.6142 0.89495 0.47604 0.0
O470 O 0.6148 0.90582 0.53349 0.0
N471 N 0.58002 0.89188 0.57005 0.0
C472 C 0.5895 0.87514 0.66437 0.0
C473 C 0.58687 0.87619 0.58763 0.0
C474 C 0.57826 0.90002 0.63805 0.0
N475 N 0.58409 0.8901 0.69615 0.0
O476 O 0.58504 0.92238 0.49403 0.0
H477 H 0.59044 0.86632 0.54673 0.0
H478 H 0.5736 0.91321 0.64485 0.0
O479 O 0.59967 0.89183 0.44358 0.0
C480 C 0.57382 0.93363 0.51466 0.0
O481 O 0.55749 0.92873 0.52136 0.0
N482 N 0.56674 0.87783 0.44356 0.0
C483 C 0.54865 0.84777 0.4004 0.0
C484 C 0.56532 0.85134 0.3715 0.0
C485 C 0.57414 0.86642 0.39366 0.0
C486 C 0.55064 0.8746 0.47279 0.0
C487 C 0.54139 0.8596 0.45236 0.0
H488 H 0.58667 0.86906 0.36861 0.0
H489 H 0.54484 0.88389 0.51139 0.0
H490 H 0.59354 0.89646 0.30323 0.0
H491 H 0.54886 0.92372 0.23394 0.0
H492 H 0.59535 0.86435 0.69451 0.0
H493 H 0.57136 0.84285 0.33012 0.0
H494 H 0.52866 0.85736 0.47693 0.0
C495 C 0.05831 0.08799 0.8622 0.0
C496 C 0.0601 0.08899 0.78493 0.0
N497 N 0.0477 0.09972 0.75844 0.0
N498 N 0.04465 0.09779 0.88423 0.0
C499 C 0.03852 0.10497 0.81957 0.0
H500 H 0.06641 0.08047 0.89999 0.0
Co501 Co 0.03753 0.0991 0.98463 0.0
C502 C 0.00366 0.11758 0.98875 0.0
O503 O 0.00812 0.12448 0.05405 0.0
N504 N 0.03076 0.09955 0.08756 0.0
C505 C 0.01644 0.09164 0.19195 0.0
C506 C 0.01702 0.09038 0.11457 0.0
C507 C 0.0383 0.10638 0.15038 0.0
N508 N 0.02977 0.10173 0.21419 0.0
O509 O 0.0294 0.0754 0.97779 0.0
H510 H 0.008 0.083 0.08013 0.0
H511 H 0.05013 0.11401 0.15027 0.0
O512 O 0.0143 0.1075 0.95389 0.0
C513 C 0.03996 0.06395 1.00237 0.0
O514 O 0.05482 0.06915 0.03164 0.0
N515 N 0.04692 0.12187 0.98883 0.0
C516 C 0.06773 0.15121 0.96169 0.0
C517 C 0.05027 0.1508 0.93881 0.0
C518 C 0.0402 0.13596 0.95158 0.0
C519 C 0.06368 0.12232 1.01435 0.0
C520 C 0.07427 0.13693 1.00223 0.0
H521 H 0.0276 0.13552 0.92515 0.0
H522 H 0.06927 0.11077 0.03964 0.0
H523 H 0.0274 0.11358 0.81688 0.0
H524 H 0.06977 0.0824 0.75069 0.0
H525 H 0.00709 0.08548 0.22929 0.0
H526 H 0.04468 0.16149 0.90706 0.0
H527 H 0.08779 0.1365 0.01956 0.0
H528 H 0.09236 0.62339 0.67626 0.0
H529 H 0.08406 0.57055 0.7574 0.0
H530 H 0.08056 0.56057 0.62623 0.0
H531 H 0.06189 0.62208 0.52508 0.0
H532 H 0.07509 0.63459 0.46039 0.0
H533 H 0.07732 0.63775 0.56101 0.0
H534 H 0.11033 0.63124 0.55109 0.0
H535 H 0.10819 0.62802 0.45036 0.0
H536 H 0.11748 0.61113 0.5085 0.0
H537 H 0.07619 0.55633 0.48675 0.0
H538 H 0.07216 0.55821 0.34791 0.0
H539 H 0.08511 0.61307 0.35398 0.0
C540 C 0.09002 0.60967 0.66703 0.0
C541 C 0.08837 0.59788 0.72878 0.0
C542 C 0.0851 0.58006 0.71249 0.0
C543 C 0.08322 0.57416 0.63762 0.0
C544 C 0.08481 0.58613 0.57871 0.0
C545 C 0.08826 0.6035 0.59234 0.0
C546 C 0.08913 0.61367 0.51842 0.0
C547 C 0.07502 0.62786 0.51612 0.0
C548 C 0.10737 0.62148 0.5064 0.0
C549 C 0.08542 0.59933 0.46125 0.0
C550 C 0.08293 0.58355 0.49754 0.0
C551 C 0.07835 0.56855 0.45771 0.0
C552 C 0.07608 0.56972 0.37901 0.0
C553 C 0.07858 0.58568 0.3404 0.0
C554 C 0.08353 0.60064 0.38205 0.0
H555 H 0.72698 0.79374 0.97142 0.0
H556 H 0.69025 0.75415 0.04537 0.0
H557 H 0.6852 0.74584 0.91254 0.0
H558 H 0.7029 0.80658 0.80103 0.0
H559 H 0.7224 0.80994 0.74597 0.0
H560 H 0.72275 0.81331 0.84703 0.0
H561 H 0.74825 0.79144 0.8594 0.0
H562 H 0.748 0.78803 0.7585 0.0
H563 H 0.74583 0.76974 0.8218 0.0
H564 H 0.68547 0.74045 0.77309 0.0
H565 H 0.69091 0.73862 0.63518 0.0
H566 H 0.72613 0.78256 0.6492 0.0
C567 C 0.71766 0.78351 0.95995 0.0
C568 C 0.70911 0.77456 0.01965 0.0
C569 C 0.69723 0.76104 1.00137 0.0
C570 C 0.69414 0.75632 0.92582 0.0
C571 C 0.70286 0.76532 0.86873 0.0
C572 C 0.71432 0.77869 0.88469 0.0
C573 C 0.72239 0.7859 0.81261 0.0
C574 C 0.7173 0.80508 0.80099 0.0
C575 C 0.74229 0.78364 0.81314 0.0
C576 C 0.71389 0.77428 0.75374 0.0
C577 C 0.70265 0.76252 0.78756 0.0
C578 C 0.69405 0.74973 0.74588 0.0
C579 C 0.69722 0.74876 0.66782 0.0
C580 C 0.70875 0.76056 0.632 0.0
C581 C 0.71697 0.77367 0.6753 0.0
H582 H 0.52966 0.3745 0.17928 0.0
H583 H 0.54109 0.42683 0.25922 0.0
H584 H 0.54427 0.43665 0.12736 0.0
H585 H 0.55933 0.37422 0.02543 0.0
H586 H 0.54525 0.36229 0.96232 0.0
H587 H 0.54333 0.35937 0.06319 0.0
H588 H 0.51063 0.36744 0.05614 0.0
H589 H 0.51247 0.37047 0.95518 0.0
H590 H 0.50426 0.38783 1.01392 0.0
H591 H 0.54796 0.44059 0.9873 0.0
H592 H 0.55168 0.43823 0.84835 0.0
H593 H 0.53622 0.38405 0.85684 0.0
C594 C 0.53259 0.38809 0.16956 0.0
C595 C 0.53519 0.39981 0.23088 0.0
C596 C 0.53929 0.41743 0.2143 0.0
C597 C 0.54098 0.42321 0.13917 0.0
C598 C 0.53838 0.41132 0.08057 0.0
C599 C 0.53419 0.39414 0.09474 0.0
C600 C 0.5325 0.38394 0.02121 0.0
C601 C 0.5459 0.36908 0.01787 0.0
C602 C 0.51385 0.37701 1.01103 0.0
C603 C 0.53663 0.39803 0.96354 0.0
C604 C 0.53997 0.41373 0.99923 0.0
C605 C 0.54513 0.42844 0.95873 0.0
C606 C 0.54719 0.42701 0.88 0.0
C607 C 0.54394 0.41109 0.84217 0.0
C608 C 0.53832 0.39648 0.88439 0.0
H609 H 0.90486 0.24823 0.46396 0.0
H610 H 0.92625 0.19611 0.47458 0.0
H611 H 0.92217 0.19275 0.33668 0.0
H612 H 0.87248 0.23949 0.31325 0.0
H613 H 0.87584 0.26028 0.26811 0.0
H614 H 0.87896 0.2581 0.36886 0.0
H615 H 0.91027 0.27031 0.35524 0.0
H616 H 0.90727 0.27243 0.2545 0.0
H617 H 0.92527 0.25992 0.29087 0.0
H618 H 0.9175 0.19548 0.19752 0.0
H619 H 0.9121 0.20396 0.06521 0.0
H620 H 0.89444 0.25479 0.14118 0.0
C621 C 0.90829 0.23602 0.43715 0.0
C622 C 0.91581 0.22237 0.47982 0.0
C623 C 0.92053 0.2067 0.44276 0.0
C624 C 0.91822 0.20467 0.36455 0.0
C625 C 0.91119 0.21847 0.32365 0.0
C626 C 0.90623 0.23384 0.35841 0.0
C627 C 0.8999 0.24692 0.3 0.0
C628 C 0.88065 0.25146 0.31336 0.0
C629 C 0.91136 0.26336 0.30018 0.0
C630 C 0.90227 0.23654 0.22731 0.0
C631 C 0.90871 0.22014 0.24252 0.0
C632 C 0.91239 0.20829 0.18488 0.0
C633 C 0.90942 0.2133 0.10959 0.0
C634 C 0.90289 0.23009 0.092 0.0
C635 C 0.89922 0.24179 0.15223 0.0
H636 H 0.08955 0.4221 0.32686 0.0
H637 H 0.08276 0.36717 0.28091 0.0
H638 H 0.07788 0.36168 0.41825 0.0
H639 H 0.11162 0.41854 0.50286 0.0
H640 H 0.10066 0.43675 0.54619 0.0
H641 H 0.10364 0.43615 0.44502 0.0
H642 H 0.07039 0.43971 0.42524 0.0
H643 H 0.06732 0.44051 0.52635 0.0
H644 H 0.05562 0.42469 0.47055 0.0
H645 H 0.07604 0.36234 0.56262 0.0
H646 H 0.07301 0.36956 0.69943 0.0
H647 H 0.07833 0.42434 0.64733 0.0
C648 C 0.08692 0.40896 0.34613 0.0
C649 C 0.08658 0.39499 0.29444 0.0
C650 C 0.08297 0.37796 0.32045 0.0
C651 C 0.0803 0.37477 0.39802 0.0
C652 C 0.08097 0.38885 0.44805 0.0
C653 C 0.08382 0.40566 0.42278 0.0
C654 C 0.08327 0.41863 0.48726 0.0
C655 C 0.10084 0.42807 0.49581 0.0
C656 C 0.06825 0.43165 0.47671 0.0
C657 C 0.07989 0.4065 0.55311 0.0
C658 C 0.07887 0.38933 0.52972 0.0
C659 C 0.07659 0.37575 0.58135 0.0
C660 C 0.07499 0.3799 0.65862 0.0
C661 C 0.07535 0.39744 0.68279 0.0
C662 C 0.07788 0.41086 0.62948 0.0
H663 H 0.9111 0.74561 0.58905 0.0
H664 H 0.91359 0.80064 0.5378 0.0
H665 H 0.90899 0.80751 0.67437 0.0
H666 H 0.87716 0.74871 0.73245 0.0
H667 H 0.88647 0.73155 0.78901 0.0
H668 H 0.88945 0.73154 0.68779 0.0
H669 H 0.92291 0.73021 0.70664 0.0
H670 H 0.92005 0.73043 0.80787 0.0
H671 H 0.93352 0.74668 0.76299 0.0
H672 H 0.90654 0.80766 0.82089 0.0
H673 H 0.90264 0.80124 0.95819 0.0
H674 H 0.9004 0.74612 0.90764 0.0
C675 C 0.91052 0.7591 0.60669 0.0
C676 C 0.91276 0.77264 0.55362 0.0
C677 C 0.91178 0.79015 0.57804 0.0
C678 C 0.9093 0.79411 0.65533 0.0
C679 C 0.90755 0.78036 0.70674 0.0
C680 C 0.9078 0.76321 0.6828 0.0
C681 C 0.90544 0.7507 0.74808 0.0
C682 C 0.88863 0.74 0.73877 0.0
C683 C 0.92143 0.73881 0.75688 0.0
C684 C 0.90403 0.76341 0.8131 0.0
C685 C 0.90545 0.78048 0.78879 0.0
C686 C 0.9052 0.79434 0.84015 0.0
C687 C 0.9031 0.79062 0.91785 0.0
C688 C 0.90104 0.77323 0.94289 0.0
C689 C 0.90166 0.75955 0.88967 0.0
H690 H 0.542 0.57631 0.81123 0.0
H691 H 0.54059 0.63187 0.77211 0.0
H692 H 0.545 0.63715 0.90997 0.0
H693 H 0.51949 0.57562 0.9844 0.0
H694 H 0.53265 0.55885 0.02695 0.0
H695 H 0.53017 0.55966 0.92561 0.0
H696 H 0.56369 0.56096 0.9089 0.0
H697 H 0.56629 0.5599 1.01021 0.0
H698 H 0.57597 0.57756 0.95761 0.0
H699 H 0.54651 0.63578 0.05481 0.0
H700 H 0.54933 0.62809 0.19112 0.0
H701 H 0.55197 0.57348 0.13174 0.0
C702 C 0.54294 0.58956 0.83197 0.0
C703 C 0.54104 0.60374 0.78209 0.0
C704 C 0.54222 0.62094 0.81013 0.0
C705 C 0.54459 0.62399 0.88806 0.0
C706 C 0.54605 0.60965 0.93635 0.0
C707 C 0.54566 0.59278 0.90894 0.0
C708 C 0.54766 0.57959 0.97195 0.0
C709 C 0.53153 0.56774 0.97753 0.0
C710 C 0.5644 0.56887 0.96154 0.0
C711 C 0.54896 0.59162 0.03953 0.0
C712 C 0.54779 0.60891 0.01825 0.0
C713 C 0.54771 0.6223 0.07185 0.0
C714 C 0.54918 0.61786 0.14889 0.0
C715 C 0.55099 0.60025 0.17108 0.0
C716 C 0.55083 0.58704 0.11568 0.0
H717 H 0.70057 0.24949 0.34603 0.0
H718 H 0.74494 0.21689 0.39704 0.0
H719 H 0.74824 0.21003 0.25995 0.0
H720 H 0.68267 0.2212 0.20176 0.0
H721 H 0.67484 0.239 0.14471 0.0
H722 H 0.6766 0.24149 0.24586 0.0
H723 H 0.69605 0.26874 0.22643 0.0
H724 H 0.69452 0.26621 0.1252 0.0
H725 H 0.71557 0.267 0.17009 0.0
H726 H 0.74733 0.20832 0.11444 0.0
H727 H 0.73967 0.20831 0.97741 0.0
H728 H 0.6945 0.24004 0.02546 0.0
C729 C 0.71095 0.2409 0.32804 0.0
C730 C 0.72262 0.23379 0.38141 0.0
C731 C 0.7359 0.22238 0.35657 0.0
C732 C 0.7379 0.21855 0.27899 0.0
C733 C 0.72629 0.22599 0.22744 0.0
C734 C 0.71285 0.23664 0.25136 0.0
C735 C 0.70156 0.24234 0.18565 0.0
C736 C 0.68281 0.2356 0.19507 0.0
C737 C 0.70196 0.26225 0.17632 0.0
C738 C 0.71077 0.23336 0.12066 0.0
C739 C 0.72519 0.22422 0.14543 0.0
C740 C 0.73598 0.21532 0.09472 0.0
C741 C 0.73165 0.21545 0.01719 0.0
C742 C 0.71654 0.22414 0.99167 0.0
C743 C 0.70609 0.23327 0.04406 0.0
H744 H 0.3997 0.24859 0.37047 0.0
H745 H 0.40798 0.30325 0.41858 0.0
H746 H 0.41252 0.30888 0.28099 0.0
H747 H 0.43242 0.2451 0.22476 0.0
H748 H 0.41987 0.2298 0.16977 0.0
H749 H 0.4173 0.23061 0.2711 0.0
H750 H 0.38411 0.23546 0.25426 0.0
H751 H 0.38661 0.23486 0.15284 0.0
H752 H 0.37655 0.25343 0.19746 0.0
H753 H 0.41447 0.30819 0.13482 0.0
H754 H 0.41746 0.30071 0.99816 0.0
H755 H 0.40916 0.24632 0.05137 0.0
C756 C 0.40247 0.26174 0.35192 0.0
C757 C 0.40333 0.27555 0.40444 0.0
C758 C 0.40731 0.29255 0.37872 0.0
C759 C 0.40978 0.29583 0.3009 0.0
C760 C 0.40846 0.2819 0.25021 0.0
C761 C 0.40519 0.26514 0.27522 0.0
C762 C 0.40495 0.25224 0.2106 0.0
C763 C 0.4195 0.23864 0.21961 0.0
C764 C 0.38698 0.24349 0.20339 0.0
C765 C 0.40848 0.26429 0.14482 0.0
C766 C 0.41026 0.2814 0.16817 0.0
C767 C 0.41322 0.29482 0.11622 0.0
C768 C 0.41477 0.29052 0.03892 0.0
C769 C 0.41363 0.27297 1.01494 0.0
C770 C 0.41025 0.25981 0.06862 0.0
H771 H 0.22382 0.70326 0.62051 0.0
H772 H 0.19279 0.74738 0.54653 0.0
H773 H 0.18902 0.75639 0.67914 0.0
H774 H 0.19807 0.69404 0.79176 0.0
H775 H 0.21692 0.68802 0.8465 0.0
H776 H 0.21671 0.68451 0.74551 0.0
H777 H 0.2451 0.70253 0.73214 0.0
H778 H 0.2454 0.70609 0.83294 0.0
H779 H 0.24584 0.72441 0.76913 0.0
H780 H 0.19033 0.76198 0.8183 0.0
H781 H 0.19612 0.76325 0.95602 0.0
H782 H 0.22463 0.71474 0.94254 0.0
C783 C 0.21598 0.71465 0.63184 0.0
C784 C 0.20875 0.72464 0.57205 0.0
C785 C 0.19879 0.73962 0.59039 0.0
C786 C 0.19641 0.74479 0.66591 0.0
C787 C 0.20386 0.73475 0.72301 0.0
C788 C 0.21332 0.71992 0.7071 0.0
C789 C 0.22033 0.71174 0.77924 0.0
C790 C 0.21254 0.6935 0.79146 0.0
C791 C 0.24035 0.71117 0.77828 0.0
C792 C 0.21362 0.72452 0.83801 0.0
C793 C 0.20412 0.73767 0.80411 0.0
C794 C 0.19751 0.75162 0.84559 0.0
C795 C 0.20088 0.75226 0.92354 0.0
C796 C 0.21061 0.739 0.95948 0.0
C797 C 0.21683 0.7248 0.91637 0.0
H798 H 0.2139 0.24696 0.50455 0.0
H799 H 0.217 0.30306 0.52161 0.0
H800 H 0.22254 0.3051 0.38346 0.0
H801 H 0.24671 0.24117 0.35185 0.0
H802 H 0.23431 0.22424 0.30601 0.0
H803 H 0.23281 0.22713 0.40715 0.0
H804 H 0.19931 0.23015 0.39602 0.0
H805 H 0.20073 0.22741 0.29492 0.0
H806 H 0.19031 0.24644 0.33387 0.0
H807 H 0.22565 0.30111 0.24244 0.0
H808 H 0.22615 0.29155 0.10917 0.0
H809 H 0.21946 0.23795 0.18244 0.0
C810 C 0.21631 0.25956 0.47909 0.0
C811 C 0.21549 0.27487 0.5233 0.0
C812 C 0.21796 0.29125 0.48831 0.0
C813 C 0.22105 0.2925 0.4101 0.0
C814 C 0.22145 0.27721 0.36746 0.0
C815 C 0.21917 0.26103 0.40065 0.0
C816 C 0.21883 0.24678 0.34106 0.0
C817 C 0.23408 0.23408 0.35219 0.0
C818 C 0.20125 0.23713 0.34152 0.0
C819 C 0.2211 0.25746 0.26935 0.0
C820 C 0.22271 0.27496 0.28588 0.0
C821 C 0.22447 0.28741 0.22887 0.0
C822 C 0.2246 0.28184 0.15301 0.0
C823 C 0.22285 0.26396 0.13428 0.0
C824 C 0.22112 0.25168 0.19394 0.0
H825 H 0.40002 0.71574 0.56255 0.0
H826 H 0.44133 0.75399 0.54883 0.0
H827 H 0.44607 0.75169 0.68713 0.0
H828 H 0.38182 0.73186 0.73064 0.0
H829 H 0.37596 0.71097 0.76971 0.0
H830 H 0.37739 0.71372 0.66864 0.0
H831 H 0.39952 0.68834 0.66044 0.0
H832 H 0.39806 0.68541 0.76157 0.0
H833 H 0.41895 0.68899 0.7176 0.0
H834 H 0.44488 0.74685 0.8272 0.0
H835 H 0.43789 0.73998 0.95994 0.0
H836 H 0.39601 0.70609 0.88422 0.0
C837 C 0.41037 0.72318 0.58879 0.0
C838 C 0.42052 0.73485 0.54557 0.0
C839 C 0.43358 0.7449 0.58149 0.0
C840 C 0.43635 0.74365 0.65975 0.0
C841 C 0.42583 0.73238 0.70141 0.0
C842 C 0.4131 0.72229 0.66733 0.0
C843 C 0.40266 0.71235 0.7261 0.0
C844 C 0.38331 0.71754 0.7236 0.0
C845 C 0.40494 0.6926 0.71581 0.0
C846 C 0.41131 0.71866 0.79834 0.0
C847 C 0.42476 0.73004 0.78272 0.0
C848 C 0.4344 0.7379 0.84018 0.0
C849 C 0.43019 0.73403 0.9157 0.0
C850 C 0.41632 0.72251 0.9335 0.0
C851 C 0.40684 0.71474 0.87339 0.0
H852 H 0.55233 0.0829 0.94839 0.0
H853 H 0.60606 0.08112 0.87187 0.0
H854 H 0.61576 0.0791 1.0047 0.0
H855 H 0.55962 0.11098 0.09924 0.0
H856 H 0.54391 0.10113 0.162 0.0
H857 H 0.54104 0.09959 0.06111 0.0
H858 H 0.53963 0.06596 0.07115 0.0
H859 H 0.54252 0.0674 0.17232 0.0
H860 H 0.55717 0.05434 0.1163 0.0
H861 H 0.61988 0.08152 0.14614 0.0
H862 H 0.61791 0.08791 0.28352 0.0
H863 H 0.56173 0.08831 0.26931 0.0
C864 C 0.56615 0.08186 0.95895 0.0
C865 C 0.57838 0.08219 0.89851 0.0
C866 C 0.59633 0.08066 0.91616 0.0
C867 C 0.602 0.07958 0.99184 0.0
C868 C 0.58959 0.07989 0.04976 0.0
C869 C 0.57202 0.08088 0.03412 0.0
C870 C 0.5614 0.0825 0.10652 0.0
C871 C 0.55088 0.09956 0.10723 0.0
C872 C 0.54948 0.0666 0.11718 0.0
C873 C 0.57577 0.0828 0.16546 0.0
C874 C 0.59194 0.08108 0.13149 0.0
C875 C 0.60728 0.08247 0.17334 0.0
C876 C 0.60607 0.08604 0.25124 0.0
C877 C 0.5897 0.08808 0.28694 0.0
C878 C 0.57435 0.08613 0.24368 0.0
H879 H 0.04327 0.87628 0.68699 0.0
H880 H 0.03322 0.92847 0.77127 0.0
H881 H 0.02936 0.93874 0.64024 0.0
H882 H 0.06897 0.889 0.53254 0.0
H883 H 0.06111 0.87242 0.46881 0.0
H884 H 0.06094 0.86861 0.56939 0.0
H885 H 0.02788 0.86203 0.56413 0.0
H886 H 0.02795 0.86584 0.46335 0.0
H887 H 0.01329 0.87786 0.52362 0.0
H888 H 0.02993 0.94419 0.50019 0.0
H889 H 0.03457 0.94426 0.36153 0.0
H890 H 0.04414 0.88873 0.36587 0.0
C891 C 0.0401 0.88984 0.67836 0.0
C892 C 0.03853 0.9015 0.74053 0.0
C893 C 0.03425 0.91914 0.72561 0.0
C894 C 0.03209 0.92514 0.65098 0.0
C895 C 0.03412 0.91338 0.59135 0.0
C896 C 0.03793 0.89607 0.60415 0.0
C897 C 0.04053 0.88636 0.52984 0.0
C898 C 0.05898 0.87865 0.52488 0.0
C899 C 0.02658 0.87218 0.51965 0.0
C900 C 0.03806 0.90103 0.47321 0.0
C901 C 0.03424 0.91648 0.51009 0.0
C902 C 0.03262 0.93212 0.47074 0.0
C903 C 0.03528 0.93206 0.39209 0.0
C904 C 0.03943 0.91648 0.35309 0.0
C905 C 0.0405 0.9007 0.39411 0.0
H906 H 0.55308 0.91348 0.11446 0.0
H907 H 0.60574 0.90158 0.18811 0.0
H908 H 0.61433 0.89678 0.05545 0.0
H909 H 0.55066 0.88221 0.96784 0.0
H910 H 0.53856 0.89584 0.90365 0.0
H911 H 0.53658 0.89901 1.00437 0.0
H912 H 0.54548 0.93136 0.98881 0.0
H913 H 0.5475 0.9283 0.88793 0.0
H914 H 0.56562 0.9367 0.94159 0.0
H915 H 0.61693 0.89153 0.91561 0.0
H916 H 0.61335 0.88661 0.77802 0.0
H917 H 0.55962 0.90332 0.79238 0.0
C918 C 0.56651 0.91015 0.10321 0.0
C919 C 0.57867 0.90789 0.16307 0.0
C920 C 0.59602 0.9032 0.14441 0.0
C921 C 0.6011 0.90056 0.06879 0.0
C922 C 0.58877 0.90279 1.01172 0.0
C923 C 0.57185 0.90758 0.02786 0.0
C924 C 0.56104 0.90869 0.95586 0.0
C925 C 0.54581 0.89566 0.95809 0.0
C926 C 0.55453 0.92738 0.94279 0.0
C927 C 0.57447 0.90354 0.89676 0.0
C928 C 0.59039 0.90021 0.93045 0.0
C929 C 0.6046 0.89431 0.88859 0.0
C930 C 0.60245 0.89153 0.8106 0.0
C931 C 0.5863 0.89477 0.77472 0.0
C932 C 0.57219 0.90111 0.81828 0.0
H933 H 0.0352 0.07806 0.32334 0.0
H934 H 0.0342 0.13341 0.27834 0.0
H935 H 0.03849 0.13941 0.41572 0.0
H936 H 0.01262 0.07843 0.49692 0.0
H937 H 0.02574 0.06181 0.54085 0.0
H938 H 0.02315 0.06211 0.43951 0.0
H939 H 0.05667 0.06314 0.42207 0.0
H940 H 0.05937 0.0626 0.5234 0.0
H941 H 0.06908 0.07993 0.46886 0.0
H942 H 0.04008 0.13881 0.56092 0.0
H943 H 0.04323 0.13178 0.69788 0.0
H944 H 0.0454 0.07688 0.64349 0.0
C945 C 0.03613 0.09142 0.34269 0.0
C946 C 0.03439 0.10533 0.29129 0.0
C947 C 0.03567 0.12267 0.31755 0.0
C948 C 0.03797 0.12614 0.3952 0.0
C949 C 0.03928 0.11206 0.44499 0.0
C950 C 0.03879 0.09504 0.41932 0.0
C951 C 0.04079 0.08218 0.48353 0.0
C952 C 0.02461 0.07045 0.49059 0.0
C953 C 0.05747 0.07133 0.47388 0.0
C954 C 0.04222 0.09456 0.5498 0.0
C955 C 0.0411 0.11175 0.5269 0.0
C956 C 0.04123 0.12541 0.57922 0.0
C957 C 0.04288 0.12135 0.65661 0.0
C958 C 0.04468 0.10385 0.6803 0.0
C959 C 0.04427 0.09036 0.62621 0.0
H960 H 0.05959 0.53637 1.01456 0.0
H961 H 0.11445 0.54842 0.98846 0.0
H962 H 0.12105 0.51672 0.98309 0.0
H963 H 0.06533 0.49983 0.13676 0.0
H964 H 0.04719 0.48804 0.09717 0.0
H965 H 0.0472 0.51148 0.0965 0.0
H966 H 0.04274 0.5113 0.95085 0.0
H967 H 0.04274 0.48785 0.95103 0.0
H968 H 0.05785 0.49956 0.89162 0.0
H969 H 0.12093 0.48281 0.97762 0.0
H970 H 0.11437 0.45108 0.9814 0.0
H971 H 0.05975 0.46285 0.01684 0.0
C972 C 0.07302 0.53243 1.0072 0.0
C973 C 0.0865 0.54486 1.00114 0.0
C974 C 0.10392 0.53908 0.99301 0.0
C975 C 0.10776 0.52113 0.98974 0.0
C976 C 0.09404 0.5092 0.99563 0.0
C977 C 0.07705 0.51473 1.00492 0.0
C978 C 0.06458 0.49961 1.01244 0.0
C979 C 0.05555 0.49975 0.09035 0.0
C980 C 0.05119 0.49958 0.94761 0.0
C981 C 0.0771 0.48457 1.00545 0.0
C982 C 0.09405 0.4902 0.99521 0.0
C983 C 0.1077 0.47834 0.98606 0.0
C984 C 0.10387 0.46036 0.98807 0.0
C985 C 0.08658 0.45449 0.99996 0.0
C986 C 0.07314 0.46686 1.00845 0.0
H987 H 0.84974 0.74657 0.33913 0.0
H988 H 0.86155 0.80067 0.29007 0.0
H989 H 0.83009 0.80782 0.30109 0.0
H990 H 0.81229 0.74414 0.22907 0.0
H991 H 0.80092 0.72962 0.29239 0.0
H992 H 0.82432 0.72949 0.28917 0.0
H993 H 0.82553 0.73533 0.43382 0.0
H994 H 0.80208 0.73542 0.43758 0.0
H995 H 0.8142 0.75386 0.47265 0.0
H996 H 0.79637 0.80823 0.31116 0.0
H997 H 0.76466 0.80162 0.31341 0.0
H998 H 0.77636 0.74706 0.35045 0.0
C999 C 0.84586 0.76002 0.33193 0.0
C1000 C 0.85815 0.77309 0.31425 0.0
C1001 C 0.85237 0.79046 0.30421 0.0
C1002 C 0.83453 0.79462 0.31041 0.0
C1003 C 0.82271 0.78126 0.32661 0.0
C1004 C 0.82826 0.76431 0.33718 0.0
C1005 C 0.81316 0.75197 0.34867 0.0
C1006 C 0.81265 0.73799 0.28609 0.0
C1007 C 0.81378 0.74366 0.4279 0.0
C1008 C 0.79812 0.76449 0.34172 0.0
C1009 C 0.80374 0.78139 0.33009 0.0
C1010 C 0.7919 0.79503 0.32062 0.0
C1011 C 0.77393 0.79119 0.32214 0.0
C1012 C 0.76808 0.77383 0.33181 0.0
C1013 C 0.78041 0.76046 0.34258 0.0
H1014 H 0.56824 0.53432 0.5117 0.0
H1015 H 0.51355 0.54627 0.47986 0.0
H1016 H 0.50677 0.51465 0.47829 0.0
H1017 H 0.56926 0.49723 0.38788 0.0
H1018 H 0.58453 0.48548 0.44606 0.0
H1019 H 0.58472 0.50893 0.44556 0.0
H1020 H 0.58091 0.50919 0.59158 0.0
H1021 H 0.5807 0.48575 0.59252 0.0
H1022 H 0.56284 0.4977 0.63363 0.0
H1023 H 0.50626 0.4811 0.48511 0.0
H1024 H 0.51232 0.44937 0.49195 0.0
H1025 H 0.56749 0.46048 0.51331 0.0
C1026 C 0.5548 0.53034 0.5046 0.0
C1027 C 0.54139 0.54274 0.49641 0.0
C1028 C 0.52402 0.53696 0.48624 0.0
C1029 C 0.52006 0.51904 0.48545 0.0
C1030 C 0.53365 0.50713 0.49401 0.0
C1031 C 0.55069 0.51262 0.50269 0.0
C1032 C 0.56306 0.49741 0.50929 0.0
C1033 C 0.57616 0.49726 0.44326 0.0
C1034 C 0.57242 0.49752 0.58634 0.0
C1035 C 0.55037 0.48242 0.50356 0.0
C1036 C 0.53343 0.48818 0.49527 0.0
C1037 C 0.5195 0.47649 0.49101 0.0
C1038 C 0.52304 0.45851 0.49507 0.0
C1039 C 0.54037 0.45246 0.50249 0.0
C1040 C 0.55411 0.46465 0.50666 0.0
H1041 H 0.8495 0.25615 0.70594 0.0
H1042 H 0.86078 0.2017 0.74923 0.0
H1043 H 0.82927 0.19485 0.73897 0.0
H1044 H 0.81124 0.25824 0.81554 0.0
H1045 H 0.80026 0.27302 0.75233 0.0
H1046 H 0.82365 0.27313 0.75782 0.0
H1047 H 0.82564 0.26794 0.61286 0.0
H1048 H 0.80223 0.26787 0.60685 0.0
H1049 H 0.8145 0.24959 0.57148 0.0
H1050 H 0.79574 0.19452 0.72711 0.0
H1051 H 0.7641 0.20091 0.71836 0.0
H1052 H 0.77598 0.25568 0.68687 0.0
C1053 C 0.84545 0.24271 0.71242 0.0
C1054 C 0.85764 0.22944 0.72794 0.0
C1055 C 0.85168 0.21208 0.73691 0.0
C1056 C 0.83381 0.20808 0.73116 0.0
C1057 C 0.82212 0.22159 0.71659 0.0
C1058 C 0.82779 0.23856 0.70741 0.0
C1059 C 0.81277 0.25093 0.69546 0.0
C1060 C 0.81193 0.26463 0.75908 0.0
C1061 C 0.81385 0.25959 0.61699 0.0
C1062 C 0.79766 0.23837 0.7 0.0
C1063 C 0.80319 0.22146 0.71152 0.0
C1064 C 0.79132 0.20773 0.71795 0.0
C1065 C 0.77339 0.21146 0.71286 0.0
C1066 C 0.76757 0.22879 0.70226 0.0
C1067 C 0.77996 0.2423 0.69541 0.0
H1068 H 0.27691 0.24116 0.81324 0.0
H1069 H 0.26342 0.2958 0.79228 0.0
H1070 H 0.29484 0.30328 0.78427 0.0
H1071 H 0.31499 0.24737 0.92979 0.0
H1072 H 0.32672 0.22978 0.8854 0.0
H1073 H 0.30331 0.22909 0.8906 0.0
H1074 H 0.30164 0.22535 0.74473 0.0
H1075 H 0.32503 0.22598 0.73912 0.0
H1076 H 0.31223 0.24106 0.6843 0.0
H1077 H 0.32835 0.30419 0.77239 0.0
H1078 H 0.36005 0.2985 0.76095 0.0
H1079 H 0.35046 0.24335 0.79486 0.0
C1080 C 0.28049 0.25474 0.80702 0.0
C1081 C 0.26771 0.2679 0.80299 0.0
C1082 C 0.27301 0.2855 0.7955 0.0
C1083 C 0.29082 0.28985 0.79091 0.0
C1084 C 0.3031 0.27646 0.79478 0.0
C1085 C 0.29808 0.25928 0.80319 0.0
C1086 C 0.31359 0.24721 0.80562 0.0
C1087 C 0.31472 0.23782 0.88243 0.0
C1088 C 0.31309 0.23413 0.7395 0.0
C1089 C 0.32822 0.2602 0.79622 0.0
C1090 C 0.32203 0.27703 0.78998 0.0
C1091 C 0.3333 0.29106 0.77795 0.0
C1092 C 0.35128 0.28772 0.77155 0.0
C1093 C 0.35778 0.27051 0.77753 0.0
C1094 C 0.34601 0.25669 0.79083 0.0
H1095 H 0.27591 0.74913 0.30746 0.0
H1096 H 0.2646 0.69618 0.23688 0.0
H1097 H 0.29637 0.69017 0.22961 0.0
H1098 H 0.3114 0.75606 0.18514 0.0
H1099 H 0.32337 0.76912 0.25221 0.0
H1100 H 0.29997 0.7685 0.2561 0.0
H1101 H 0.30133 0.75875 0.39664 0.0
H1102 H 0.32477 0.7593 0.39317 0.0
H1103 H 0.31369 0.73966 0.4217 0.0
H1104 H 0.33012 0.69064 0.22907 0.0
H1105 H 0.36163 0.69796 0.22741 0.0
H1106 H 0.34939 0.75091 0.29409 0.0
C1107 C 0.28 0.73617 0.29103 0.0
C1108 C 0.26774 0.72308 0.2731 0.0
C1109 C 0.27377 0.70639 0.25109 0.0
C1110 C 0.29177 0.70288 0.24702 0.0
C1111 C 0.30349 0.71621 0.26498 0.0
C1112 C 0.29773 0.73253 0.28625 0.0
C1113 C 0.31267 0.74498 0.29962 0.0
C1114 C 0.31179 0.76058 0.24499 0.0
C1115 C 0.31314 0.75102 0.38271 0.0
C1116 C 0.32787 0.73325 0.2815 0.0
C1117 C 0.32245 0.71661 0.26266 0.0
C1118 C 0.33442 0.70363 0.24378 0.0
C1119 C 0.35228 0.70788 0.24323 0.0
C1120 C 0.35791 0.72502 0.26032 0.0
C1121 C 0.34548 0.73772 0.28029 0.0
H1122 H 0.55377 0.03345 0.59312 0.0
H1123 H 0.60867 0.04481 0.56177 0.0
H1124 H 0.61451 0.01325 0.54518 0.0
H1125 H 0.55934 0.99316 0.69755 0.0
H1126 H 0.5407 0.98305 0.65373 0.0
H1127 H 0.5413 0.00632 0.66636 0.0
H1128 H 0.536 0.0106 0.52249 0.0
H1129 H 0.53543 0.98736 0.50939 0.0
H1130 H 0.5505 0.00043 0.45538 0.0
H1131 H 0.61369 0.98 0.52547 0.0
H1132 H 0.6064 0.94881 0.50695 0.0
H1133 H 0.55209 0.96026 0.55323 0.0
C1134 C 0.56707 0.02937 0.58327 0.0
C1135 C 0.58077 0.04162 0.57864 0.0
C1136 C 0.59797 0.03565 0.56576 0.0
C1137 C 0.6014 0.01775 0.55622 0.0
C1138 C 0.58749 0.00604 0.56032 0.0
C1139 C 0.57069 0.01168 0.57404 0.0
C1140 C 0.55789 0.9967 0.57436 0.0
C1141 C 0.54931 0.99469 0.65266 0.0
C1142 C 0.54415 0.99891 0.51166 0.0
C1143 C 0.57 0.9817 0.55749 0.0
C1144 C 0.58705 0.98723 0.54978 0.0
C1145 C 0.60039 0.97557 0.53197 0.0
C1146 C 0.59613 0.95787 0.5215 0.0
C1147 C 0.57868 0.95205 0.5288 0.0
C1148 C 0.56557 0.9642 0.54758 0.0
H1149 H 0.06568 0.96405 1.00077 0.0
H1150 H 0.01094 0.95045 0.98744 0.0
H1151 H 0.00343 0.98195 0.98254 0.0
H1152 H 0.06025 -4e-05 0.12447 0.0
H1153 H 0.07758 0.01245 0.08198 0.0
H1154 H 0.07828 0.98903 0.07957 0.0
H1155 H 0.08112 0.98979 0.93316 0.0
H1156 H 0.08046 0.01323 0.93509 0.0
H1157 H 0.06507 0.00129 0.87807 0.0
H1158 H 0.00253 0.0158 0.97829 0.0
H1159 H 0.00814 0.04767 0.98383 0.0
H1160 H 0.06341 0.03757 1.0073 0.0
C1161 C 0.05208 0.9676 0.99581 0.0
C1162 C 0.03889 0.95479 0.99342 0.0
C1163 C 0.02126 0.96007 0.98885 0.0
C1164 C 0.0169 0.97791 0.98594 0.0
C1165 C 0.03034 0.99022 0.98868 0.0
C1166 C 0.04756 0.98517 0.99416 0.0
C1167 C 0.05966 0.00063 1.00016 0.0
C1168 C 0.06951 0.0005 0.07605 0.0
C1169 C 0.07232 0.00127 0.93259 0.0
C1170 C 0.04664 0.01531 0.99692 0.0
C1171 C 0.02978 0.0092 0.98954 0.0
C1172 C 0.0157 0.02065 0.98438 0.0
C1173 C 0.01899 0.03871 0.9874 0.0
C1174 C 0.03619 0.04507 0.99655 0.0
C1175 C 0.05009 0.03313 1.00108 0.0
H1176 H 0.18416 0.68805 0.12218 0.0
H1177 H 0.1767 0.67731 0.36129 0.0
H1178 H 0.16146 0.65004 0.32976 0.0
H1179 H 0.14268 0.67448 0.06642 0.0
H1180 H 0.14915 0.66481 0.97769 0.0
H1181 H 0.16187 0.68219 0.01791 0.0
H1182 H 0.18936 0.66273 1.01372 0.0
H1183 H 0.17671 0.64525 0.97331 0.0
H1184 H 0.18898 0.64167 0.05889 0.0
H1185 H 0.14436 0.62609 0.27508 0.0
H1186 H 0.12584 0.60661 0.1988 0.0
H1187 H 0.14344 0.63214 0.99351 0.0
C1188 C 0.17972 0.67965 0.16756 0.0
C1189 C 0.18169 0.68465 0.24418 0.0
C1190 C 0.1753 0.67367 0.30228 0.0
C1191 C 0.16672 0.65811 0.28497 0.0
C1192 C 0.16455 0.65369 0.20913 0.0
C1193 C 0.17084 0.66406 0.15112 0.0
C1194 C 0.16517 0.65699 0.07456 0.0
C1195 C 0.15405 0.67042 0.03165 0.0
C1196 C 0.181 0.65132 0.02733 0.0
C1197 C 0.15435 0.64137 0.09903 0.0
C1198 C 0.1544 0.63966 0.17698 0.0
C1199 C 0.1444 0.62712 0.21393 0.0
C1200 C 0.13382 0.61619 0.17027 0.0
C1201 C 0.13329 0.61784 0.09058 0.0
C1202 C 0.14396 0.63036 0.05434 0.0
H1203 H 0.61806 0.87238 0.35696 0.0
H1204 H 0.64478 0.89227 0.55557 0.0
H1205 H 0.6685 0.87106 0.53489 0.0
H1206 H 0.62676 0.82851 0.38955 0.0
H1207 H 0.62966 0.82289 0.29118 0.0
H1208 H 0.61587 0.84087 0.31691 0.0
H1209 H 0.6339 0.86145 0.23073 0.0
H1210 H 0.6477 0.84348 0.2042 0.0
H1211 H 0.65714 0.86298 0.24367 0.0
H1212 H 0.68791 0.84546 0.49916 0.0
H1213 H 0.70184 0.81887 0.44742 0.0
H1214 H 0.66211 0.81631 0.27292 0.0
C1215 C 0.629 0.87249 0.39555 0.0
C1216 C 0.62951 0.88398 0.45797 0.0
C1217 C 0.64412 0.88367 0.50703 0.0
C1218 C 0.65765 0.87162 0.49589 0.0
C1219 C 0.65645 0.8601 0.43507 0.0
C1220 C 0.64257 0.8606 0.38526 0.0
C1221 C 0.64384 0.84632 0.32653 0.0
C1222 C 0.6281 0.83392 0.33139 0.0
C1223 C 0.64577 0.85402 0.24655 0.0
C1224 C 0.66043 0.83746 0.35189 0.0
C1225 C 0.66759 0.84558 0.41437 0.0
C1226 C 0.68253 0.83913 0.44961 0.0
C1227 C 0.69033 0.82401 0.42001 0.0
C1228 C 0.68315 0.81555 0.35591 0.0
C1229 C 0.66806 0.82251 0.32157 0.0
H1230 H 0.49976 0.37554 0.6712 0.0
H1231 H 0.47202 0.39135 0.46857 0.0
H1232 H 0.44809 0.37112 0.50096 0.0
H1233 H 0.48981 0.33142 0.6612 0.0
H1234 H 0.48732 0.32836 0.76188 0.0
H1235 H 0.50134 0.3453 0.72657 0.0
H1236 H 0.4842 0.36824 0.80423 0.0
H1237 H 0.47012 0.35135 0.84012 0.0
H1238 H 0.46094 0.36997 0.79255 0.0
H1239 H 0.42898 0.34634 0.54751 0.0
H1240 H 0.41532 0.32085 0.60998 0.0
H1241 H 0.455 0.32258 0.78469 0.0
C1242 C 0.48852 0.37498 0.63429 0.0
C1243 C 0.48776 0.38502 0.56736 0.0
C1244 C 0.47283 0.38389 0.52049 0.0
C1245 C 0.45918 0.37239 0.5383 0.0
C1246 C 0.46055 0.36234 0.60379 0.0
C1247 C 0.47473 0.36375 0.65165 0.0
C1248 C 0.47344 0.35105 0.7169 0.0
C1249 C 0.48889 0.33828 0.71656 0.0
C1250 C 0.47209 0.36074 0.79294 0.0
C1251 C 0.45653 0.34195 0.69732 0.0
C1252 C 0.44927 0.34859 0.63186 0.0
C1253 C 0.43435 0.34128 0.5997 0.0
C1254 C 0.4267 0.3268 0.63539 0.0
C1255 C 0.43391 0.3199 0.7028 0.0
C1256 C 0.44891 0.32777 0.73423 0.0
H1257 H 0.97592 0.13354 0.05543 0.0
H1258 H 0.99591 0.11717 0.83673 0.0
H1259 H 0.97188 0.13284 0.77347 0.0
H1260 H 0.92865 0.1316 1.00324 0.0
H1261 H 0.92375 0.15051 0.05994 0.0
H1262 H 0.94106 0.13602 0.08777 0.0
H1263 H 0.96257 0.16205 0.08985 0.0
H1264 H 0.9454 0.17654 0.06157 0.0
H1265 H 0.96509 0.17527 1.00611 0.0
H1266 H 0.94926 0.15467 0.73452 0.0
H1267 H 0.92778 0.17857 0.72305 0.0
H1268 H 0.92097 0.17892 0.96655 0.0
C1269 C 0.97499 0.13287 0.99427 0.0
C1270 C 0.98782 0.12419 0.95091 0.0
C1271 C 0.9862 0.12367 0.87107 0.0
C1272 C 0.9726 0.13255 0.83468 0.0
C1273 C 0.96052 0.14152 0.8791 0.0
C1274 C 0.96138 0.14143 0.95728 0.0
C1275 C 0.94748 0.15295 0.99194 0.0
C1276 C 0.93446 0.14212 0.03846 0.0
C1277 C 0.95563 0.16756 0.04017 0.0
C1278 C 0.93909 0.16013 0.92101 0.0
C1279 C 0.9468 0.15336 0.85644 0.0
C1280 C 0.94273 0.15961 0.78445 0.0
C1281 C 0.93058 0.17316 0.77842 0.0
C1282 C 0.92246 0.18006 0.84377 0.0
C1283 C 0.92655 0.1733 0.91573 0.0
H1284 H 0.18267 0.30276 0.94436 0.0
H1285 H 0.20782 0.33457 0.77284 0.0
H1286 H 0.18634 0.35792 0.79553 0.0
H1287 H 0.13962 0.31387 0.8988 0.0
H1288 H 0.13198 0.31415 0.99539 0.0
H1289 H 0.15007 0.30051 0.96932 0.0
H1290 H 0.16917 0.31515 0.07237 0.0
H1291 H 0.15108 0.32876 0.09921 0.0
H1292 H 0.17158 0.33851 0.07293 0.0
H1293 H 0.16033 0.3769 0.83006 0.0
H1294 H 0.13338 0.39049 0.88022 0.0
H1295 H 0.12618 0.3463 0.03042 0.0
C1296 C 0.18383 0.31472 0.91225 0.0
C1297 C 0.19694 0.31681 0.85682 0.0
C1298 C 0.19795 0.33268 0.81594 0.0
C1299 C 0.18577 0.34602 0.82824 0.0
C1300 C 0.17276 0.34336 0.88212 0.0
C1301 C 0.17187 0.32818 0.9241 0.0
C1302 C 0.15643 0.32832 0.97732 0.0
C1303 C 0.14378 0.31333 0.95908 0.0
C1304 C 0.16243 0.32765 0.06038 0.0
C1305 C 0.1486 0.34583 0.95796 0.0
C1306 C 0.15813 0.35435 0.90287 0.0
C1307 C 0.15289 0.37044 0.87392 0.0
C1308 C 0.13755 0.37803 0.9025 0.0
C1309 C 0.12775 0.36955 0.95964 0.0
C1310 C 0.13346 0.35326 0.98743 0.0
H1311 H 0.01865 0.84459 0.11427 0.0
H1312 H 0.98651 0.88927 0.06166 0.0
H1313 H 0.96046 0.87344 0.11029 0.0
H1314 H 0.98885 0.81152 0.0654 0.0
H1315 H 0.99482 0.7974 0.14263 0.0
H1316 H 0.01053 0.81242 0.10435 0.0
H1317 H 0.01526 0.82577 0.23777 0.0
H1318 H -0.00033 0.81068 0.27666 0.0
H1319 H 0.99679 0.83376 0.29043 0.0
H1320 H 0.93753 0.85075 0.15525 0.0
H1321 H 0.92102 0.82552 0.2077 0.0
H1322 H 0.96951 0.79766 0.23932 0.0
C1323 C 0.00612 0.85107 0.11333 0.0
C1324 C 0.00442 0.86801 0.08376 0.0
C1325 C 0.98796 0.87625 0.0843 0.0
C1326 C 0.97315 0.86732 0.11142 0.0
C1327 C 0.97524 0.8504 0.13918 0.0
C1328 C 0.99144 0.84257 0.14167 0.0
C1329 C 0.99057 0.82458 0.17583 0.0
C1330 C 0.99654 0.81067 0.11863 0.0
C1331 C 0.0012 0.82365 0.24955 0.0
C1332 C 0.97128 0.82326 0.19128 0.0
C1333 C 0.9625 0.83811 0.16904 0.0
C1334 C 0.94435 0.83921 0.17408 0.0
C1335 C 0.93508 0.82486 0.20355 0.0
C1336 C 0.94406 0.80987 0.22881 0.0
C1337 C 0.96234 0.80915 0.2222 0.0
H1338 H 0.48771 0.64132 0.51988 0.0
H1339 H 0.49836 0.60528 0.33602 0.0
H1340 H 0.47512 0.61899 0.26032 0.0
H1341 H 0.43943 0.64533 0.48736 0.0
H1342 H 0.43979 0.66821 0.51044 0.0
H1343 H 0.45489 0.65353 0.55542 0.0
H1344 H 0.48065 0.6727 0.50987 0.0
H1345 H 0.46568 0.68734 0.4647 0.0
H1346 H 0.48291 0.67744 0.41028 0.0
H1347 H 0.45477 0.63953 0.19725 0.0
H1348 H 0.43845 0.66516 0.15189 0.0
H1349 H 0.44027 0.68762 0.37702 0.0
C1350 C 0.48483 0.63595 0.46456 0.0
C1351 C 0.49483 0.62217 0.43398 0.0
C1352 C 0.49082 0.61574 0.36086 0.0
C1353 C 0.47759 0.62342 0.31752 0.0
C1354 C 0.46837 0.63736 0.34847 0.0
C1355 C 0.47169 0.64346 0.42067 0.0
C1356 C 0.46128 0.65978 0.43762 0.0
C1357 C 0.44806 0.65651 0.5015 0.0
C1358 C 0.47335 0.67522 0.45669 0.0
C1359 C 0.45221 0.6624 0.36239 0.0
C1360 C 0.45628 0.64916 0.31214 0.0
C1361 C 0.45111 0.64971 0.23658 0.0
C1362 C 0.4419 0.66432 0.21129 0.0
C1363 C 0.43789 0.67813 0.26141 0.0
C1364 C 0.44269 0.67694 0.33833 0.0
H1365 H 0.69424 0.16915 0.77144 0.0
H1366 H 0.69375 0.18672 0.5382 0.0
H1367 H 0.67217 0.16378 0.50665 0.0
H1368 H 0.68675 0.12219 0.7377 0.0
H1369 H 0.67237 0.12028 0.81806 0.0
H1370 H 0.68978 0.13604 0.81914 0.0
H1371 H 0.66754 0.16062 0.84655 0.0
H1372 H 0.6501 0.14497 0.84565 0.0
H1373 H 0.64931 0.16359 0.78359 0.0
H1374 H 0.6497 0.13964 0.5026 0.0
H1375 H 0.62554 0.11936 0.5286 0.0
H1376 H 0.63872 0.11984 0.76762 0.0
C1377 C 0.68996 0.1678 0.71326 0.0
C1378 C 0.69593 0.17933 0.65663 0.0
C1379 C 0.68949 0.17776 0.5819 0.0
C1380 C 0.67731 0.16476 0.56355 0.0
C1381 C 0.67152 0.15367 0.62099 0.0
C1382 C 0.67749 0.15523 0.69457 0.0
C1383 C 0.66763 0.14326 0.74775 0.0
C1384 C 0.67987 0.12963 0.78271 0.0
C1385 C 0.65808 0.15374 0.80949 0.0
C1386 C 0.65496 0.13492 0.69295 0.0
C1387 C 0.6577 0.14075 0.61983 0.0
C1388 C 0.6474 0.13507 0.55974 0.0
C1389 C 0.63361 0.12358 0.57518 0.0
C1390 C 0.6299 0.11827 0.6504 0.0
C1391 C 0.64108 0.12371 0.70951 0.0
H1392 H 0.03289 0.33664 0.86015 0.0
H1393 H 0.03304 0.33294 0.10517 0.0
H1394 H 0.01183 0.30863 0.09855 0.0
H1395 H 0.98728 0.32957 0.83868 0.0
H1396 H 0.98928 0.3173 0.75202 0.0
H1397 H 0.00541 0.33343 0.77587 0.0
H1398 H 0.02969 0.31018 0.76421 0.0
H1399 H 0.01363 0.29396 0.74031 0.0
H1400 H 0.02816 0.29041 0.81892 0.0
H1401 H 0.99054 0.28493 0.06493 0.0
H1402 H 0.96886 0.26506 1.00793 0.0
H1403 H 0.98137 0.28525 0.78489 0.0
C1404 C 0.02859 0.33052 0.91222 0.0
C1405 C 0.03468 0.33644 0.98321 0.0
C1406 C 0.02852 0.32848 0.05037 0.0
C1407 C 0.01656 0.31466 0.04706 0.0
C1408 C 0.01075 0.30915 0.97615 0.0
C1409 C 0.01643 0.31693 0.90996 0.0
C1410 C 0.00734 0.30926 0.84139 0.0
C1411 C 0.99669 0.32322 0.79955 0.0
C1412 C 0.02049 0.30042 0.78807 0.0
C1413 C 0.99561 0.29599 0.87934 0.0
C1414 C 0.99796 0.29597 0.95699 0.0
C1415 C 0.98861 0.28482 1.00421 0.0
C1416 C 0.9764 0.27353 0.97131 0.0
C1417 C 0.97348 0.27361 0.89207 0.0
C1418 C 0.9833 0.28496 0.84565 0.0
H1419 H 0.52435 0.16289 0.51708 0.0
H1420 H 0.55011 0.16897 0.73495 0.0
H1421 H 0.53151 0.19403 0.76334 0.0
H1422 H 0.51637 0.2087 0.47932 0.0
H1423 H 0.495 0.20497 0.44031 0.0
H1424 H 0.5115 0.18839 0.43259 0.0
H1425 H 0.49092 0.1662 0.49769 0.0
H1426 H 0.47436 0.18269 0.50548 0.0
H1427 H 0.4817 0.17135 0.58896 0.0
H1428 H 0.50978 0.21779 0.77144 0.0
H1429 H 0.48477 0.23773 0.76198 0.0
H1430 H 0.47124 0.21535 0.54393 0.0
C1431 C 0.52614 0.16942 0.57084 0.0
C1432 C 0.53911 0.16397 0.62282 0.0
C1433 C 0.54084 0.17308 0.69249 0.0
C1434 C 0.53018 0.18732 0.70971 0.0
C1435 C 0.5176 0.19225 0.65741 0.0
C1436 C 0.51537 0.18352 0.58971 0.0
C1437 C 0.50006 0.19089 0.54582 0.0
C1438 C 0.5061 0.1987 0.47001 0.0
C1439 C 0.48592 0.17695 0.53381 0.0
C1440 C 0.49397 0.20497 0.59998 0.0
C1441 C 0.50447 0.20565 0.66344 0.0
C1442 C 0.50151 0.21746 0.72187 0.0
C1443 C 0.48733 0.2288 0.71574 0.0
C1444 C 0.47616 0.22819 0.65195 0.0
C1445 C 0.47958 0.21611 0.59327 0.0
H1446 H 0.64995 0.72035 0.45049 0.0
H1447 H 0.64666 0.72149 0.20535 0.0
H1448 H 0.62245 0.70018 0.2097 0.0
H1449 H 0.64273 0.67453 0.46872 0.0
H1450 H 0.63022 0.67622 0.5549 0.0
H1451 H 0.64647 0.6924 0.53302 0.0
H1452 H 0.62328 0.71672 0.54522 0.0
H1453 H 0.60695 0.70062 0.56728 0.0
H1454 H 0.60365 0.71546 0.48951 0.0
H1455 H 0.59889 0.67886 0.24044 0.0
H1456 H 0.57847 0.65736 0.29448 0.0
H1457 H 0.59785 0.66872 0.52 0.0
C1458 C 0.64394 0.71624 0.39794 0.0
C1459 C 0.64996 0.72263 0.32751 0.0
C1460 C 0.64213 0.71673 0.2597 0.0
C1461 C 0.62838 0.7047 0.26171 0.0
C1462 C 0.62279 0.69856 0.332 0.0
C1463 C 0.63039 0.704 0.39889 0.0
C1464 C 0.6225 0.69467 0.46649 0.0
C1465 C 0.63631 0.68381 0.50822 0.0
C1466 C 0.61357 0.70764 0.52029 0.0
C1467 C 0.60928 0.68311 0.42712 0.0
C1468 C 0.60956 0.68574 0.34962 0.0
C1469 C 0.59852 0.6767 0.30101 0.0
C1470 C 0.58692 0.66459 0.33229 0.0
C1471 C 0.58651 0.66148 0.41143 0.0
C1472 C 0.59791 0.67085 0.45934 0.0
H1473 H 0.08714 0.82723 0.14962 0.0
H1474 H 0.12034 0.87295 0.16648 0.0
H1475 H 0.14499 0.85437 0.2024 0.0
H1476 H 0.10627 0.8045 0.31273 0.0
H1477 H 0.10441 0.78331 0.2695 0.0
H1478 H 0.08903 0.80018 0.24601 0.0
H1479 H 0.09649 0.79644 0.10378 0.0
H1480 H 0.11197 0.77966 0.12684 0.0
H1481 H 0.11881 0.79842 0.07308 0.0
H1482 H 0.16645 0.83124 0.22702 0.0
H1483 H 0.18343 0.80483 0.24953 0.0
H1484 H 0.1364 0.77354 0.22902 0.0
C1485 C 0.09953 0.83335 0.16187 0.0
C1486 C 0.10181 0.85158 0.15382 0.0
C1487 C 0.11831 0.85902 0.17009 0.0
C1488 C 0.1324 0.84858 0.19118 0.0
C1489 C 0.12981 0.8307 0.19695 0.0
C1490 C 0.1138 0.8231 0.1838 0.0
C1491 C 0.11475 0.80347 0.19414 0.0
C1492 C 0.10291 0.79752 0.2595 0.0
C1493 C 0.11024 0.79394 0.12004 0.0
C1494 C 0.13386 0.8013 0.21412 0.0
C1495 C 0.14223 0.81723 0.21504 0.0
C1496 C 0.15999 0.81871 0.22832 0.0
C1497 C 0.16951 0.80353 0.2419 0.0
C1498 C 0.16128 0.78695 0.24353 0.0
C1499 C 0.14315 0.78592 0.22885 0.0
H1500 H 0.97347 0.7183 0.05959 0.0
H1501 H 0.96854 0.71365 0.30341 0.0
H1502 H 0.99351 0.69337 0.30591 0.0
H1503 H 0.98328 0.67322 0.02716 0.0
H1504 H 0.99848 0.67727 0.95126 0.0
H1505 H 0.98099 0.69235 0.96883 0.0
H1506 H 0.0033 0.71751 0.98199 0.0
H1507 H 0.02087 0.70249 0.96457 0.0
H1508 H 0.02083 0.7156 0.04933 0.0
H1509 H 0.01854 0.67362 0.28263 0.0
H1510 H 0.04105 0.65365 0.23421 0.0
H1511 H 0.02933 0.6697 1.00407 0.0
C1512 C 0.97781 0.71306 0.11329 0.0
C1513 C 0.96925 0.7175 0.18147 0.0
C1514 C 0.97501 0.71031 0.25079 0.0
C1515 C 0.98918 0.69887 0.25273 0.0
C1516 C 0.99733 0.69464 0.18468 0.0
C1517 C 0.99181 0.70134 0.1161 0.0
C1518 C 0.00232 0.69382 0.051 0.0
C1519 C 0.99056 0.68356 0.99635 0.0
C1520 C 0.01243 0.70822 1.00927 0.0
C1521 C 0.01453 0.68182 0.09379 0.0
C1522 C 0.01154 0.68271 0.1709 0.0
C1523 C 0.02107 0.67285 0.22238 0.0
C1524 C 0.0339 0.66162 0.19435 0.0
C1525 C 0.03703 0.66021 0.11546 0.0
C1526 C 0.02721 0.67051 0.06464 0.0
H1527 H 0.14828 0.21793 0.97593 0.0
H1528 H 0.1389 0.2274 0.7373 0.0
H1529 H 0.11283 0.20851 0.74245 0.0
H1530 H 0.13717 0.17316 0.9718 0.0
H1531 H 0.12696 0.17283 0.06381 0.0
H1532 H 0.1439 0.1884 0.04379 0.0
H1533 H 0.12327 0.21364 0.08151 0.0
H1534 H 0.10627 0.19813 0.10199 0.0
H1535 H 0.10237 0.21557 0.03584 0.0
H1536 H 0.08887 0.18773 0.77122 0.0
H1537 H 0.06878 0.16545 0.82028 0.0
H1538 H 0.09372 0.16847 0.04059 0.0
C1539 C 0.1405 0.21624 0.9253 0.0
C1540 C 0.14544 0.2242 0.85628 0.0
C1541 C 0.13525 0.22142 0.79061 0.0
C1542 C 0.12043 0.21077 0.7931 0.0
C1543 C 0.11603 0.20291 0.86164 0.0
C1544 C 0.12576 0.20544 0.92658 0.0
C1545 C 0.11875 0.19451 0.99154 0.0
C1546 C 0.13252 0.18145 0.01934 0.0
C1547 C 0.11228 0.20616 0.05657 0.0
C1548 C 0.10372 0.1853 0.95264 0.0
C1549 C 0.10231 0.19053 0.87798 0.0
C1550 C 0.08972 0.18367 0.8298 0.0
C1551 C 0.07827 0.17108 0.85845 0.0
C1552 C 0.07948 0.16535 0.93466 0.0
C1553 C 0.09242 0.17261 0.98224 0.0
H1554 H 0.64519 0.27589 0.55555 0.0
H1555 H 0.64087 0.2695 0.79896 0.0
H1556 H 0.61525 0.28893 0.8003 0.0
H1557 H 0.63555 0.32052 0.55307 0.0
H1558 H 0.6233 0.3201 0.46602 0.0
H1559 H 0.64003 0.30415 0.48241 0.0
H1560 H 0.61775 0.2793 0.46037 0.0
H1561 H 0.60093 0.29519 0.44349 0.0
H1562 H 0.59794 0.27877 0.51529 0.0
H1563 H 0.5917 0.31064 0.77709 0.0
H1564 H 0.57206 0.33368 0.7317 0.0
H1565 H 0.59136 0.3262 0.50255 0.0
C1566 C 0.63856 0.27828 0.60874 0.0
C1567 C 0.64489 0.27112 0.67715 0.0
C1568 C 0.6362 0.27488 0.74603 0.0
C1569 C 0.62161 0.28583 0.74727 0.0
C1570 C 0.61588 0.29295 0.67913 0.0
C1571 C 0.62405 0.28933 0.61108 0.0
C1572 C 0.61601 0.29969 0.54687 0.0
C1573 C 0.62953 0.31183 0.50995 0.0
C1574 C 0.60766 0.28751 0.48803 0.0
C1575 C 0.6023 0.30993 0.58976 0.0
C1576 C 0.60233 0.30568 0.6658 0.0
C1577 C 0.59136 0.3139 0.71746 0.0
C1578 C 0.58015 0.32692 0.69093 0.0
C1579 C 0.57998 0.3317 0.6133 0.0
C1580 C 0.59115 0.3229 0.56218 0.0
H1581 H 0.51338 0.84476 0.37279 0.0
H1582 H 0.56151 0.81509 0.36991 0.0
H1583 H 0.54548 0.78945 0.3227 0.0
H1584 H 0.48624 0.80963 0.43982 0.0
H1585 H 0.46774 0.81604 0.38362 0.0
H1586 H 0.48316 0.83219 0.41498 0.0
H1587 H 0.48781 0.84196 0.27588 0.0
H1588 H 0.47254 0.82571 0.24402 0.0
H1589 H 0.49433 0.82614 0.20589 0.0
H1590 H 0.52419 0.76691 0.27619 0.0
H1591 H 0.49896 0.74873 0.24029 0.0
H1592 H 0.46456 0.7927 0.2788 0.0
C1593 C 0.52057 0.83285 0.36306 0.0
C1594 C 0.5388 0.83207 0.37477 0.0
C1595 C 0.54764 0.8162 0.36017 0.0
C1596 C 0.53862 0.80151 0.33362 0.0
C1597 C 0.52073 0.80281 0.32212 0.0
C1598 C 0.51177 0.81802 0.33691 0.0
C1599 C 0.49247 0.81585 0.32153 0.0
C1600 C 0.48178 0.81859 0.39432 0.0
C1601 C 0.48644 0.82815 0.25805 0.0
C1602 C 0.49197 0.797 0.29601 0.0
C1603 C 0.50843 0.78975 0.29635 0.0
C1604 C 0.51123 0.77245 0.27589 0.0
C1605 C 0.49681 0.76221 0.25579 0.0
C1606 C 0.47974 0.76924 0.25658 0.0
C1607 C 0.47742 0.78696 0.27623 0.0
loop_
_geom_bond_atom_site_label_1
_geom_bond_atom_site_label_2
_geom_bond_distance
_geom_bond_site_symmetry_2
_ccdc_geom_bond_type
C0 C1 1.351 . S
C0 N3 1.368 . S
C0 H5 0.931 . S
C1 C0 1.351 . S
C1 N2 1.373 . S
C1 H29 0.930 . S
N2 C1 1.373 . S
N2 C4 1.340 . S
N3 C0 1.368 . S
N3 C4 1.321 . S
N3 Co6 2.135 . S
C4 N2 1.340 . S
C4 N3 1.321 . S
C4 H28 0.930 . S
H5 C0 0.931 . S
Co6 N3 2.135 . S
Co6 N9 2.121 1_554 S
Co6 O14 2.055 . S
Co6 O17 2.039 . S
Co6 N20 2.140 . S
C7 O8 1.227 . S
C7 O17 1.265 . S
O8 C7 1.227 . S
N9 Co6 2.121 1_556 S
N9 C11 1.375 . S
N9 C12 1.313 . S
C10 C11 1.338 . S
C10 N13 1.377 . S
C10 H30 0.930 . S
C11 N9 1.375 . S
C11 C10 1.338 . S
C11 H15 0.931 . S
C12 N9 1.313 . S
C12 N13 1.344 . S
C12 H16 0.930 . S
N13 C10 1.377 . S
N13 C12 1.344 . S
O14 Co6 2.055 . S
O14 C18 1.253 . S
H15 C11 0.931 . S
H16 C12 0.930 . S
O17 Co6 2.039 . S
O17 C7 1.265 . S
C18 O14 1.253 . S
C18 O19 1.227 . S
O19 C18 1.227 . S
N20 Co6 2.140 . S
N20 C23 1.346 . S
N20 C24 1.345 . S
C21 C22 1.387 . S
C21 C25 1.391 . S
C22 C21 1.387 . S
C22 C23 1.369 . S
C22 H31 0.929 . S
C23 N20 1.346 . S
C23 C22 1.369 . S
C23 H26 0.928 . S
C24 N20 1.345 . S
C24 C25 1.371 . S
C24 H27 0.931 . S
C25 C21 1.391 . S
C25 C24 1.371 . S
C25 H32 0.930 . S
H26 C23 0.928 . S
H27 C24 0.931 . S
H28 C4 0.930 . S
H29 C1 0.930 . S
H30 C10 0.930 . S
H31 C22 0.929 . S
H32 C25 0.930 . S
C33 C34 1.351 . S
C33 N36 1.368 . S
C33 H38 0.931 . S
C34 C33 1.351 . S
C34 N35 1.373 . S
C34 H62 0.930 . S
N35 C34 1.373 . S
N35 C37 1.340 . S
N36 C33 1.368 . S
N36 C37 1.321 . S
N36 Co39 2.135 . S
C37 N35 1.340 . S
C37 N36 1.321 . S
C37 H61 0.930 . S
H38 C33 0.931 . S
Co39 N36 2.135 . S
Co39 N42 2.121 . S
Co39 O47 2.055 . S
Co39 O50 2.039 . S
Co39 N53 2.140 . S
C40 O41 1.227 . S
C40 O50 1.265 . S
O41 C40 1.227 . S
N42 Co39 2.121 . S
N42 C44 1.375 . S
N42 C45 1.313 . S
C43 C44 1.338 . S
C43 N46 1.377 . S
C43 H63 0.930 . S
C44 N42 1.375 . S
C44 C43 1.338 . S
C44 H48 0.931 . S
C45 N42 1.313 . S
C45 N46 1.344 . S
C45 H49 0.930 . S
N46 C43 1.377 . S
N46 C45 1.344 . S
O47 Co39 2.055 . S
O47 C51 1.253 . S
H48 C44 0.931 . S
H49 C45 0.930 . S
O50 Co39 2.039 . S
O50 C40 1.265 . S
C51 O47 1.253 . S
C51 O52 1.227 . S
O52 C51 1.227 . S
N53 Co39 2.140 . S
N53 C56 1.346 . S
N53 C57 1.345 . S
C54 C55 1.387 . S
C54 C58 1.391 . S
C55 C54 1.387 . S
C55 C56 1.369 . S
C55 H64 0.929 . S
C56 N53 1.346 . S
C56 C55 1.369 . S
C56 H59 0.928 . S
C57 N53 1.345 . S
C57 C58 1.371 . S
C57 H60 0.931 . S
C58 C54 1.391 . S
C58 C57 1.371 . S
C58 H65 0.930 . S
H59 C56 0.928 . S
H60 C57 0.931 . S
H61 C37 0.930 . S
H62 C34 0.930 . S
H63 C43 0.930 . S
H64 C55 0.929 . S
H65 C58 0.930 . S
C66 C67 1.351 . S
C66 N69 1.368 . S
C66 H71 0.931 . S
C67 C66 1.351 . S
C67 N68 1.373 . S
C67 H95 0.930 . S
N68 C67 1.373 . S
N68 C70 1.340 . S
N69 C66 1.368 . S
N69 C70 1.321 . S
N69 Co72 2.135 . S
C70 N68 1.340 . S
C70 N69 1.321 . S
C70 H94 0.930 . S
H71 C66 0.931 . S
Co72 N69 2.135 . S
Co72 N75 2.121 . S
Co72 O80 2.055 . S
Co72 O83 2.039 . S
Co72 N86 2.140 . S
C73 O74 1.227 . S
C73 O83 1.265 . S
O74 C73 1.227 . S
N75 Co72 2.121 . S
N75 C77 1.375 . S
N75 C78 1.313 . S
C76 C77 1.338 . S
C76 N79 1.377 . S
C76 H96 0.930 . S
C77 N75 1.375 . S
C77 C76 1.338 . S
C77 H81 0.931 . S
C78 N75 1.313 . S
C78 N79 1.344 . S
C78 H82 0.930 . S
N79 C76 1.377 . S
N79 C78 1.344 . S
O80 Co72 2.055 . S
O80 C84 1.253 . S
H81 C77 0.931 . S
H82 C78 0.930 . S
O83 Co72 2.039 . S
O83 C73 1.265 . S
C84 O80 1.253 . S
C84 O85 1.227 . S
O85 C84 1.227 . S
N86 Co72 2.140 . S
N86 C89 1.346 . S
N86 C90 1.345 . S
C87 C88 1.387 . S
C87 C91 1.391 . S
C88 C87 1.387 . S
C88 C89 1.369 . S
C88 H97 0.929 . S
C89 N86 1.346 . S
C89 C88 1.369 . S
C89 H92 0.928 . S
C90 N86 1.345 . S
C90 C91 1.371 . S
C90 H93 0.931 . S
C91 C87 1.391 . S
C91 C90 1.371 . S
C91 H98 0.930 . S
H92 C89 0.928 . S
H93 C90 0.931 . S
H94 C70 0.930 . S
H95 C67 0.930 . S
H96 C76 0.930 . S
H97 C88 0.929 . S
H98 C91 0.930 . S
C99 C100 1.351 1_556 S
C99 N102 1.368 . S
C99 H104 0.931 . S
C100 C99 1.351 1_554 S
C100 N101 1.373 . S
C100 H128 0.930 . S
N101 C100 1.373 . S
N101 C103 1.340 . S
N102 C99 1.368 . S
N102 C103 1.321 1_556 S
N102 Co105 2.135 . S
C103 N101 1.340 . S
C103 N102 1.321 1_554 S
C103 H127 0.930 . S
H104 C99 0.931 . S
Co105 N102 2.135 . S
Co105 N108 2.121 . S
Co105 O113 2.055 . S
Co105 O116 2.039 . S
Co105 N119 2.140 . S
C106 O107 1.227 . S
C106 O116 1.265 . S
O107 C106 1.227 . S
N108 Co105 2.121 . S
N108 C110 1.375 . S
N108 C111 1.313 . S
C109 C110 1.338 . S
C109 N112 1.377 . S
C109 H129 0.930 . S
C110 N108 1.375 . S
C110 C109 1.338 . S
C110 H114 0.931 . S
C111 N108 1.313 . S
C111 N112 1.344 . S
C111 H115 0.930 . S
N112 C109 1.377 . S
N112 C111 1.344 . S
O113 Co105 2.055 . S
O113 C117 1.253 . S
H114 C110 0.931 . S
H115 C111 0.930 . S
O116 Co105 2.039 . S
O116 C106 1.265 . S
C117 O113 1.253 . S
C117 O118 1.227 . S
O118 C117 1.227 . S
N119 Co105 2.140 . S
N119 C122 1.346 . S
N119 C123 1.345 . S
C120 C121 1.387 . S
C120 C124 1.391 . S
C121 C120 1.387 . S
C121 C122 1.369 . S
C121 H130 0.929 . S
C122 N119 1.346 . S
C122 C121 1.369 . S
C122 H125 0.928 . S
C123 N119 1.345 . S
C123 C124 1.371 . S
C123 H126 0.931 . S
C124 C120 1.391 . S
C124 C123 1.371 . S
C124 H131 0.930 . S
H125 C122 0.928 . S
H126 C123 0.931 . S
H127 C103 0.930 . S
H128 C100 0.930 . S
H129 C109 0.930 . S
H130 C121 0.929 . S
H131 C124 0.930 . S
C132 C133 1.351 . S
C132 N135 1.368 . S
C132 H137 0.931 . S
C133 C132 1.351 . S
C133 N134 1.373 . S
C133 H161 0.930 . S
N134 C133 1.373 . S
N134 C136 1.340 . S
N135 C132 1.368 . S
N135 C136 1.321 . S
N135 Co138 2.135 . S
C136 N134 1.340 . S
C136 N135 1.321 . S
C136 H160 0.930 . S
H137 C132 0.931 . S
Co138 N135 2.135 . S
Co138 N141 2.121 1_556 S
Co138 O146 2.055 . S
Co138 O149 2.039 . S
Co138 N152 2.140 . S
C139 O140 1.227 . S
C139 O149 1.265 . S
O140 C139 1.227 . S
N141 Co138 2.121 1_554 S
N141 C143 1.375 . S
N141 C144 1.313 . S
C142 C143 1.338 . S
C142 N145 1.377 . S
C142 H162 0.930 . S
C143 N141 1.375 . S
C143 C142 1.338 . S
C143 H147 0.931 . S
C144 N141 1.313 . S
C144 N145 1.344 . S
C144 H148 0.930 . S
N145 C142 1.377 . S
N145 C144 1.344 . S
O146 Co138 2.055 . S
O146 C150 1.253 . S
H147 C143 0.931 . S
H148 C144 0.930 . S
O149 Co138 2.039 . S
O149 C139 1.265 . S
C150 O146 1.253 . S
C150 O151 1.227 . S
O151 C150 1.227 . S
N152 Co138 2.140 . S
N152 C155 1.346 . S
N152 C156 1.345 . S
C153 C154 1.387 . S
C153 C157 1.391 . S
C154 C153 1.387 . S
C154 C155 1.369 . S
C154 H163 0.929 . S
C155 N152 1.346 . S
C155 C154 1.369 . S
C155 H158 0.928 . S
C156 N152 1.345 . S
C156 C157 1.371 . S
C156 H159 0.931 . S
C157 C153 1.391 . S
C157 C156 1.371 . S
C157 H164 0.930 . S
H158 C155 0.928 . S
H159 C156 0.931 . S
H160 C136 0.930 . S
H161 C133 0.930 . S
H162 C142 0.930 . S
H163 C154 0.929 . S
H164 C157 0.930 . S
C165 C166 1.351 1_554 S
C165 N168 1.368 . S
C165 H170 0.931 . S
C166 C165 1.351 1_556 S
C166 N167 1.373 . S
C166 H194 0.930 . S
N167 C166 1.373 . S
N167 C169 1.340 . S
N168 C165 1.368 . S
N168 C169 1.321 1_554 S
N168 Co171 2.135 . S
C169 N167 1.340 . S
C169 N168 1.321 1_556 S
C169 H193 0.930 . S
H170 C165 0.931 . S
Co171 N168 2.135 . S
Co171 N174 2.121 . S
Co171 O179 2.055 . S
Co171 O182 2.039 . S
Co171 N185 2.140 . S
C172 O173 1.227 . S
C172 O182 1.265 . S
O173 C172 1.227 . S
N174 Co171 2.121 . S
N174 C176 1.375 . S
N174 C177 1.313 . S
C175 C176 1.338 . S
C175 N178 1.377 . S
C175 H195 0.930 . S
C176 N174 1.375 . S
C176 C175 1.338 . S
C176 H180 0.931 . S
C177 N174 1.313 . S
C177 N178 1.344 . S
C177 H181 0.930 . S
N178 C175 1.377 . S
N178 C177 1.344 . S
O179 Co171 2.055 . S
O179 C183 1.253 . S
H180 C176 0.931 . S
H181 C177 0.930 . S
O182 Co171 2.039 . S
O182 C172 1.265 . S
C183 O179 1.253 . S
C183 O184 1.227 . S
O184 C183 1.227 . S
N185 Co171 2.140 . S
N185 C188 1.346 . S
N185 C189 1.345 . S
C186 C187 1.387 . S
C186 C190 1.391 . S
C187 C186 1.387 . S
C187 C188 1.369 . S
C187 H196 0.929 . S
C188 N185 1.346 . S
C188 C187 1.369 . S
C188 H191 0.928 . S
C189 N185 1.345 . S
C189 C190 1.371 . S
C189 H192 0.931 . S
C190 C186 1.391 . S
C190 C189 1.371 . S
C190 H197 0.930 . S
H191 C188 0.928 . S
H192 C189 0.931 . S
H193 C169 0.930 . S
H194 C166 0.930 . S
H195 C175 0.930 . S
H196 C187 0.929 . S
H197 C190 0.930 . S
C198 C199 1.351 . S
C198 N201 1.368 . S
C198 H203 0.931 . S
C199 C198 1.351 . S
C199 N200 1.373 . S
C199 H227 0.930 . S
N200 C199 1.373 . S
N200 C202 1.340 . S
N201 C198 1.368 . S
N201 C202 1.321 . S
N201 Co204 2.135 . S
C202 N200 1.340 . S
C202 N201 1.321 . S
C202 H226 0.930 . S
H203 C198 0.931 . S
Co204 N201 2.135 . S
Co204 N207 2.121 . S
Co204 O212 2.055 . S
Co204 O215 2.039 . S
Co204 N218 2.140 . S
C205 O206 1.227 . S
C205 O215 1.265 . S
O206 C205 1.227 . S
N207 Co204 2.121 . S
N207 C209 1.375 . S
N207 C210 1.313 . S
C208 C209 1.338 . S
C208 N211 1.377 . S
C208 H228 0.930 . S
C209 N207 1.375 . S
C209 C208 1.338 . S
C209 H213 0.931 . S
C210 N207 1.313 . S
C210 N211 1.344 . S
C210 H214 0.930 . S
N211 C208 1.377 . S
N211 C210 1.344 . S
O212 Co204 2.055 . S
O212 C216 1.253 . S
H213 C209 0.931 . S
H214 C210 0.930 . S
O215 Co204 2.039 . S
O215 C205 1.265 . S
C216 O212 1.253 . S
C216 O217 1.227 . S
O217 C216 1.227 . S
N218 Co204 2.140 . S
N218 C221 1.346 . S
N218 C222 1.345 . S
C219 C220 1.387 . S
C219 C223 1.391 . S
C220 C219 1.387 . S
C220 C221 1.369 . S
C220 H229 0.929 . S
C221 N218 1.346 . S
C221 C220 1.369 . S
C221 H224 0.928 . S
C222 N218 1.345 . S
C222 C223 1.371 . S
C222 H225 0.931 . S
C223 C219 1.391 . S
C223 C222 1.371 . S
C223 H230 0.930 . S
H224 C221 0.928 . S
H225 C222 0.931 . S
H226 C202 0.930 . S
H227 C199 0.930 . S
H228 C208 0.930 . S
H229 C220 0.929 . S
H230 C223 0.930 . S
C231 C232 1.351 . S
C231 N234 1.368 . S
C231 H236 0.931 . S
C232 C231 1.351 . S
C232 N233 1.373 . S
C232 H260 0.930 . S
N233 C232 1.373 . S
N233 C235 1.340 . S
N234 C231 1.368 . S
N234 C235 1.321 . S
N234 Co237 2.135 . S
C235 N233 1.340 . S
C235 N234 1.321 . S
C235 H259 0.930 . S
H236 C231 0.931 . S
Co237 N234 2.135 . S
Co237 N240 2.121 . S
Co237 O245 2.055 . S
Co237 O248 2.039 . S
Co237 N251 2.140 . S
C238 O239 1.227 . S
C238 O248 1.265 . S
O239 C238 1.227 . S
N240 Co237 2.121 . S
N240 C242 1.375 . S
N240 C243 1.313 . S
C241 C242 1.338 . S
C241 N244 1.377 . S
C241 H261 0.930 . S
C242 N240 1.375 . S
C242 C241 1.338 . S
C242 H246 0.931 . S
C243 N240 1.313 . S
C243 N244 1.344 . S
C243 H247 0.930 . S
N244 C241 1.377 . S
N244 C243 1.344 . S
O245 Co237 2.055 . S
O245 C249 1.253 . S
H246 C242 0.931 . S
H247 C243 0.930 . S
O248 Co237 2.039 . S
O248 C238 1.265 . S
C249 O245 1.253 . S
C249 O250 1.227 . S
O250 C249 1.227 . S
N251 Co237 2.140 . S
N251 C254 1.346 . S
N251 C255 1.345 . S
C252 C253 1.387 . S
C252 C256 1.391 . S
C253 C252 1.387 . S
C253 C254 1.369 . S
C253 H262 0.929 . S
C254 N251 1.346 . S
C254 C253 1.369 . S
C254 H257 0.928 . S
C255 N251 1.345 . S
C255 C256 1.371 . S
C255 H258 0.931 . S
C256 C252 1.391 . S
C256 C255 1.371 . S
C256 H263 0.930 . S
H257 C254 0.928 . S
H258 C255 0.931 . S
H259 C235 0.930 . S
H260 C232 0.930 . S
H261 C241 0.930 . S
H262 C253 0.929 . S
H263 C256 0.930 . S
C264 C265 1.351 . S
C264 N267 1.368 . S
C264 H269 0.931 . S
C265 C264 1.351 . S
C265 N266 1.373 . S
C265 H293 0.930 . S
N266 C265 1.373 . S
N266 C268 1.340 . S
N267 C264 1.368 . S
N267 C268 1.321 . S
N267 Co270 2.135 . S
C268 N266 1.340 . S
C268 N267 1.321 . S
C268 H292 0.930 . S
H269 C264 0.931 . S
Co270 N267 2.135 . S
Co270 N273 2.121 . S
Co270 O278 2.055 . S
Co270 O281 2.039 . S
Co270 N284 2.140 . S
C271 O272 1.227 . S
C271 O281 1.265 . S
O272 C271 1.227 . S
N273 Co270 2.121 . S
N273 C275 1.375 . S
N273 C276 1.313 . S
C274 C275 1.338 . S
C274 N277 1.377 . S
C274 H294 0.930 . S
C275 N273 1.375 . S
C275 C274 1.338 . S
C275 H279 0.931 . S
C276 N273 1.313 . S
C276 N277 1.344 . S
C276 H280 0.930 . S
N277 C274 1.377 . S
N277 C276 1.344 . S
O278 Co270 2.055 . S
O278 C282 1.253 . S
H279 C275 0.931 . S
H280 C276 0.930 . S
O281 Co270 2.039 . S
O281 C271 1.265 . S
C282 O278 1.253 . S
C282 O283 1.227 . S
O283 C282 1.227 . S
N284 Co270 2.140 . S
N284 C287 1.346 . S
N284 C288 1.345 . S
C285 C286 1.387 . S
C285 C289 1.391 . S
C286 C285 1.387 . S
C286 C287 1.369 . S
C286 H295 0.929 . S
C287 N284 1.346 . S
C287 C286 1.369 . S
C287 H290 0.928 . S
C288 N284 1.345 . S
C288 C289 1.371 . S
C288 H291 0.931 . S
C289 C285 1.391 . S
C289 C288 1.371 . S
C289 H296 0.930 . S
H290 C287 0.928 . S
H291 C288 0.931 . S
H292 C268 0.930 . S
H293 C265 0.930 . S
H294 C274 0.930 . S
H295 C286 0.929 . S
H296 C289 0.930 . S
C297 C298 1.351 1_554 S
C297 N300 1.368 . S
C297 H302 0.931 . S
C298 C297 1.351 1_556 S
C298 N299 1.373 . S
C298 H326 0.930 . S
N299 C298 1.373 . S
N299 C301 1.340 . S
N300 C297 1.368 . S
N300 C301 1.321 1_554 S
N300 Co303 2.135 . S
C301 N299 1.340 . S
C301 N300 1.321 1_556 S
C301 H325 0.930 . S
H302 C297 0.931 . S
Co303 N300 2.135 . S
Co303 N306 2.121 . S
Co303 O311 2.055 . S
Co303 O314 2.039 . S
Co303 N317 2.140 . S
C304 O305 1.227 . S
C304 O314 1.265 . S
O305 C304 1.227 . S
N306 Co303 2.121 . S
N306 C308 1.375 . S
N306 C309 1.313 . S
C307 C308 1.338 . S
C307 N310 1.377 . S
C307 H327 0.930 . S
C308 N306 1.375 . S
C308 C307 1.338 . S
C308 H312 0.931 . S
C309 N306 1.313 . S
C309 N310 1.344 . S
C309 H313 0.930 . S
N310 C307 1.377 . S
N310 C309 1.344 . S
O311 Co303 2.055 . S
O311 C315 1.253 . S
H312 C308 0.931 . S
H313 C309 0.930 . S
O314 Co303 2.039 . S
O314 C304 1.265 . S
C315 O311 1.253 . S
C315 O316 1.227 . S
O316 C315 1.227 . S
N317 Co303 2.140 . S
N317 C320 1.346 . S
N317 C321 1.345 . S
C318 C319 1.387 . S
C318 C322 1.391 . S
C319 C318 1.387 . S
C319 C320 1.369 . S
C319 H328 0.929 . S
C320 N317 1.346 . S
C320 C319 1.369 . S
C320 H323 0.928 . S
C321 N317 1.345 . S
C321 C322 1.371 . S
C321 H324 0.931 . S
C322 C318 1.391 . S
C322 C321 1.371 . S
C322 H329 0.930 . S
H323 C320 0.928 . S
H324 C321 0.931 . S
H325 C301 0.930 . S
H326 C298 0.930 . S
H327 C307 0.930 . S
H328 C319 0.929 . S
H329 C322 0.930 . S
C330 C331 1.351 1_556 S
C330 N333 1.368 . S
C330 H335 0.931 . S
C331 C330 1.351 1_554 S
C331 N332 1.373 . S
C331 H359 0.930 . S
N332 C331 1.373 . S
N332 C334 1.340 . S
N333 C330 1.368 . S
N333 C334 1.321 1_556 S
N333 Co336 2.135 . S
C334 N332 1.340 . S
C334 N333 1.321 1_554 S
C334 H358 0.930 . S
H335 C330 0.931 . S
Co336 N333 2.135 . S
Co336 N339 2.121 . S
Co336 O344 2.055 . S
Co336 O347 2.039 . S
Co336 N350 2.140 . S
C337 O338 1.227 . S
C337 O347 1.265 . S
O338 C337 1.227 . S
N339 Co336 2.121 . S
N339 C341 1.375 . S
N339 C342 1.313 . S
C340 C341 1.338 . S
C340 N343 1.377 . S
C340 H360 0.930 . S
C341 N339 1.375 . S
C341 C340 1.338 . S
C341 H345 0.931 . S
C342 N339 1.313 . S
C342 N343 1.344 . S
C342 H346 0.930 . S
N343 C340 1.377 . S
N343 C342 1.344 . S
O344 Co336 2.055 . S
O344 C348 1.253 . S
H345 C341 0.931 . S
H346 C342 0.930 . S
O347 Co336 2.039 . S
O347 C337 1.265 . S
C348 O344 1.253 . S
C348 O349 1.227 . S
O349 C348 1.227 . S
N350 Co336 2.140 . S
N350 C353 1.346 . S
N350 C354 1.345 . S
C351 C352 1.387 . S
C351 C355 1.391 . S
C352 C351 1.387 . S
C352 C353 1.369 . S
C352 H361 0.929 . S
C353 N350 1.346 . S
C353 C352 1.369 . S
C353 H356 0.928 . S
C354 N350 1.345 . S
C354 C355 1.371 . S
C354 H357 0.931 . S
C355 C351 1.391 . S
C355 C354 1.371 . S
C355 H362 0.930 . S
H356 C353 0.928 . S
H357 C354 0.931 . S
H358 C334 0.930 . S
H359 C331 0.930 . S
H360 C340 0.930 . S
H361 C352 0.929 . S
H362 C355 0.930 . S
C363 C364 1.351 . S
C363 N366 1.368 . S
C363 H368 0.931 . S
C364 C363 1.351 . S
C364 N365 1.373 . S
C364 H392 0.930 . S
N365 C364 1.373 . S
N365 C367 1.340 . S
N366 C363 1.368 . S
N366 C367 1.321 . S
N366 Co369 2.135 . S
C367 N365 1.340 . S
C367 N366 1.321 . S
C367 H391 0.930 . S
H368 C363 0.931 . S
Co369 N366 2.135 . S
Co369 N372 2.121 . S
Co369 O377 2.055 . S
Co369 O380 2.039 . S
Co369 N383 2.140 . S
C370 O371 1.227 . S
C370 O380 1.265 . S
O371 C370 1.227 . S
N372 Co369 2.121 . S
N372 C374 1.375 . S
N372 C375 1.313 . S
C373 C374 1.338 . S
C373 N376 1.377 . S
C373 H393 0.930 . S
C374 N372 1.375 . S
C374 C373 1.338 . S
C374 H378 0.931 . S
C375 N372 1.313 . S
C375 N376 1.344 . S
C375 H379 0.930 . S
N376 C373 1.377 . S
N376 C375 1.344 . S
O377 Co369 2.055 . S
O377 C381 1.253 . S
H378 C374 0.931 . S
H379 C375 0.930 . S
O380 Co369 2.039 . S
O380 C370 1.265 . S
C381 O377 1.253 . S
C381 O382 1.227 . S
O382 C381 1.227 . S
N383 Co369 2.140 . S
N383 C386 1.346 . S
N383 C387 1.345 . S
C384 C385 1.387 . S
C384 C388 1.391 . S
C385 C384 1.387 . S
C385 C386 1.369 . S
C385 H394 0.929 . S
C386 N383 1.346 . S
C386 C385 1.369 . S
C386 H389 0.928 . S
C387 N383 1.345 . S
C387 C388 1.371 . S
C387 H390 0.931 . S
C388 C384 1.391 . S
C388 C387 1.371 . S
C388 H395 0.930 . S
H389 C386 0.928 . S
H390 C387 0.931 . S
H391 C367 0.930 . S
H392 C364 0.930 . S
H393 C373 0.930 . S
H394 C385 0.929 . S
H395 C388 0.930 . S
C396 C397 1.351 . S
C396 N399 1.368 . S
C396 H401 0.931 . S
C397 C396 1.351 . S
C397 N398 1.373 . S
C397 H425 0.930 . S
N398 C397 1.373 . S
N398 C400 1.340 . S
N399 C396 1.368 . S
N399 C400 1.321 . S
N399 Co402 2.135 . S
C400 N398 1.340 . S
C400 N399 1.321 . S
C400 H424 0.930 . S
H401 C396 0.931 . S
Co402 N399 2.135 . S
Co402 N405 2.121 . S
Co402 O410 2.055 . S
Co402 O413 2.039 . S
Co402 N416 2.140 . S
C403 O404 1.227 . S
C403 O413 1.265 . S
O404 C403 1.227 . S
N405 Co402 2.121 . S
N405 C407 1.375 . S
N405 C408 1.313 . S
C406 C407 1.338 . S
C406 N409 1.377 . S
C406 H426 0.930 . S
C407 N405 1.375 . S
C407 C406 1.338 . S
C407 H411 0.931 . S
C408 N405 1.313 . S
C408 N409 1.344 . S
C408 H412 0.930 . S
N409 C406 1.377 . S
N409 C408 1.344 . S
O410 Co402 2.055 . S
O410 C414 1.253 . S
H411 C407 0.931 . S
H412 C408 0.930 . S
O413 Co402 2.039 . S
O413 C403 1.265 . S
C414 O410 1.253 . S
C414 O415 1.227 . S
O415 C414 1.227 . S
N416 Co402 2.140 . S
N416 C419 1.346 . S
N416 C420 1.345 . S
C417 C418 1.387 . S
C417 C421 1.391 . S
C418 C417 1.387 . S
C418 C419 1.369 . S
C418 H427 0.929 . S
C419 N416 1.346 . S
C419 C418 1.369 . S
C419 H422 0.928 . S
C420 N416 1.345 . S
C420 C421 1.371 . S
C420 H423 0.931 . S
C421 C417 1.391 . S
C421 C420 1.371 . S
C421 H428 0.930 . S
H422 C419 0.928 . S
H423 C420 0.931 . S
H424 C400 0.930 . S
H425 C397 0.930 . S
H426 C406 0.930 . S
H427 C418 0.929 . S
H428 C421 0.930 . S
C429 C430 1.351 . S
C429 N432 1.368 . S
C429 H434 0.931 . S
C430 C429 1.351 . S
C430 N431 1.373 . S
C430 H458 0.930 . S
N431 C430 1.373 . S
N431 C433 1.340 . S
N432 C429 1.368 . S
N432 C433 1.321 . S
N432 Co435 2.135 . S
C433 N431 1.340 . S
C433 N432 1.321 . S
C433 H457 0.930 . S
H434 C429 0.931 . S
Co435 N432 2.135 . S
Co435 N438 2.121 1_554 S
Co435 O443 2.055 . S
Co435 O446 2.039 . S
Co435 N449 2.140 . S
C436 O437 1.227 . S
C436 O446 1.265 . S
O437 C436 1.227 . S
N438 Co435 2.121 1_556 S
N438 C440 1.375 . S
N438 C441 1.313 . S
C439 C440 1.338 . S
C439 N442 1.377 . S
C439 H459 0.930 . S
C440 N438 1.375 . S
C440 C439 1.338 . S
C440 H444 0.931 . S
C441 N438 1.313 . S
C441 N442 1.344 . S
C441 H445 0.930 . S
N442 C439 1.377 . S
N442 C441 1.344 . S
O443 Co435 2.055 . S
O443 C447 1.253 . S
H444 C440 0.931 . S
H445 C441 0.930 . S
O446 Co435 2.039 . S
O446 C436 1.265 . S
C447 O443 1.253 . S
C447 O448 1.227 . S
O448 C447 1.227 . S
N449 Co435 2.140 . S
N449 C452 1.346 . S
N449 C453 1.345 . S
C450 C451 1.387 . S
C450 C454 1.391 . S
C451 C450 1.387 . S
C451 C452 1.369 . S
C451 H460 0.929 . S
C452 N449 1.346 . S
C452 C451 1.369 . S
C452 H455 0.928 . S
C453 N449 1.345 . S
C453 C454 1.371 . S
C453 H456 0.931 . S
C454 C450 1.391 . S
C454 C453 1.371 . S
C454 H461 0.930 . S
H455 C452 0.928 . S
H456 C453 0.931 . S
H457 C433 0.930 . S
H458 C430 0.930 . S
H459 C439 0.930 . S
H460 C451 0.929 . S
H461 C454 0.930 . S
C462 C463 1.351 . S
C462 N465 1.368 . S
C462 H467 0.931 . S
C463 C462 1.351 . S
C463 N464 1.373 . S
C463 H491 0.930 . S
N464 C463 1.373 . S
N464 C466 1.340 . S
N465 C462 1.368 . S
N465 C466 1.321 . S
N465 Co468 2.135 . S
C466 N464 1.340 . S
C466 N465 1.321 . S
C466 H490 0.930 . S
H467 C462 0.931 . S
Co468 N465 2.135 . S
Co468 N471 2.121 . S
Co468 O476 2.055 . S
Co468 O479 2.039 . S
Co468 N482 2.140 . S
C469 O470 1.227 . S
C469 O479 1.265 . S
O470 C469 1.227 . S
N471 Co468 2.121 . S
N471 C473 1.375 . S
N471 C474 1.313 . S
C472 C473 1.338 . S
C472 N475 1.377 . S
C472 H492 0.930 . S
C473 N471 1.375 . S
C473 C472 1.338 . S
C473 H477 0.931 . S
C474 N471 1.313 . S
C474 N475 1.344 . S
C474 H478 0.930 . S
N475 C472 1.377 . S
N475 C474 1.344 . S
O476 Co468 2.055 . S
O476 C480 1.253 . S
H477 C473 0.931 . S
H478 C474 0.930 . S
O479 Co468 2.039 . S
O479 C469 1.265 . S
C480 O476 1.253 . S
C480 O481 1.227 . S
O481 C480 1.227 . S
N482 Co468 2.140 . S
N482 C485 1.346 . S
N482 C486 1.345 . S
C483 C484 1.387 . S
C483 C487 1.391 . S
C484 C483 1.387 . S
C484 C485 1.369 . S
C484 H493 0.929 . S
C485 N482 1.346 . S
C485 C484 1.369 . S
C485 H488 0.928 . S
C486 N482 1.345 . S
C486 C487 1.371 . S
C486 H489 0.931 . S
C487 C483 1.391 . S
C487 C486 1.371 . S
C487 H494 0.930 . S
H488 C485 0.928 . S
H489 C486 0.931 . S
H490 C466 0.930 . S
H491 C463 0.930 . S
H492 C472 0.930 . S
H493 C484 0.929 . S
H494 C487 0.930 . S
C495 C496 1.351 . S
C495 N498 1.368 . S
C495 H500 0.931 . S
C496 C495 1.351 . S
C496 N497 1.373 . S
C496 H524 0.930 . S
N497 C496 1.373 . S
N497 C499 1.340 . S
N498 C495 1.368 . S
N498 C499 1.321 . S
N498 Co501 2.135 . S
C499 N497 1.340 . S
C499 N498 1.321 . S
C499 H523 0.930 . S
H500 C495 0.931 . S
Co501 N498 2.135 . S
Co501 N504 2.121 1_556 S
Co501 O509 2.055 . S
Co501 O512 2.039 . S
Co501 N515 2.140 . S
C502 O503 1.227 . S
C502 O512 1.265 . S
O503 C502 1.227 . S
N504 Co501 2.121 1_554 S
N504 C506 1.375 . S
N504 C507 1.313 . S
C505 C506 1.338 . S
C505 N508 1.377 . S
C505 H525 0.930 . S
C506 N504 1.375 . S
C506 C505 1.338 . S
C506 H510 0.931 . S
C507 N504 1.313 . S
C507 N508 1.344 . S
C507 H511 0.930 . S
N508 C505 1.377 . S
N508 C507 1.344 . S
O509 Co501 2.055 . S
O509 C513 1.253 . S
H510 C506 0.931 . S
H511 C507 0.930 . S
O512 Co501 2.039 . S
O512 C502 1.265 . S
C513 O509 1.253 . S
C513 O514 1.227 . S
O514 C513 1.227 . S
N515 Co501 2.140 . S
N515 C518 1.346 . S
N515 C519 1.345 . S
C516 C517 1.387 . S
C516 C520 1.391 . S
C517 C516 1.387 . S
C517 C518 1.369 . S
C517 H526 0.929 . S
C518 N515 1.346 . S
C518 C517 1.369 . S
C518 H521 0.928 . S
C519 N515 1.345 . S
C519 C520 1.371 . S
C519 H522 0.931 . S
C520 C516 1.391 . S
C520 C519 1.371 . S
C520 H527 0.930 . S
H521 C518 0.928 . S
H522 C519 0.931 . S
H523 C499 0.930 . S
H524 C496 0.930 . S
H525 C505 0.930 . S
H526 C517 0.929 . S
H527 C520 0.930 . S
H528 C540 0.930 . S
H529 C542 0.930 . S
H530 C543 0.930 . S
H531 C547 0.959 . S
H532 C547 0.959 . S
H533 C547 0.961 . S
H534 C548 0.960 . S
H535 C548 0.961 . S
H536 C548 0.959 . S
H537 C551 0.929 . S
H538 C552 0.931 . S
H539 C554 0.930 . S
C540 H528 0.930 . S
C540 C541 1.399 . S
C540 C545 1.399 . S
C541 C540 1.399 . S
C541 C542 1.376 . S
C542 H529 0.930 . S
C542 C541 1.376 . S
C542 C543 1.388 . S
C543 H530 0.930 . S
C543 C542 1.388 . S
C543 C544 1.390 . S
C544 C543 1.390 . S
C544 C545 1.394 . S
C544 C550 1.465 . S
C545 C540 1.399 . S
C545 C544 1.394 . S
C545 C546 1.516 . S
C546 C545 1.516 . S
C546 C547 1.502 . S
C546 C548 1.561 . S
C546 C549 1.526 . S
C547 H531 0.959 . S
C547 H532 0.959 . S
C547 H533 0.961 . S
C547 C546 1.502 . S
C548 H534 0.960 . S
C548 H535 0.961 . S
C548 H536 0.959 . S
C548 C546 1.561 . S
C549 C546 1.526 . S
C549 C550 1.396 . S
C549 C554 1.390 . S
C550 C544 1.465 . S
C550 C549 1.396 . S
C550 C551 1.399 . S
C551 H537 0.929 . S
C551 C550 1.399 . S
C551 C552 1.385 . S
C552 H538 0.931 . S
C552 C551 1.385 . S
C552 C553 1.389 . S
C553 C552 1.389 . S
C553 C554 1.387 . S
C554 H539 0.930 . S
C554 C549 1.390 . S
C554 C553 1.387 . S
H555 C567 0.930 . S
H556 C569 0.930 . S
H557 C570 0.930 . S
H558 C574 0.959 . S
H559 C574 0.959 . S
H560 C574 0.961 . S
H561 C575 0.960 . S
H562 C575 0.961 . S
H563 C575 0.959 . S
H564 C578 0.929 . S
H565 C579 0.931 . S
H566 C581 0.930 . S
C567 H555 0.930 . S
C567 C568 1.399 1_556 S
C567 C572 1.399 . S
C568 C567 1.399 1_554 S
C568 C569 1.376 . S
C569 H556 0.930 . S
C569 C568 1.376 . S
C569 C570 1.388 1_554 S
C570 H557 0.930 . S
C570 C569 1.388 1_556 S
C570 C571 1.390 . S
C571 C570 1.390 . S
C571 C572 1.394 . S
C571 C577 1.465 . S
C572 C567 1.399 . S
C572 C571 1.394 . S
C572 C573 1.516 . S
C573 C572 1.516 . S
C573 C574 1.502 . S
C573 C575 1.561 . S
C573 C576 1.526 . S
C574 H558 0.959 . S
C574 H559 0.959 . S
C574 H560 0.961 . S
C574 C573 1.502 . S
C575 H561 0.960 . S
C575 H562 0.961 . S
C575 H563 0.959 . S
C575 C573 1.561 . S
C576 C573 1.526 . S
C576 C577 1.396 . S
C576 C581 1.390 . S
C577 C571 1.465 . S
C577 C576 1.396 . S
C577 C578 1.399 . S
C578 H564 0.929 . S
C578 C577 1.399 . S
C578 C579 1.385 . S
C579 H565 0.931 . S
C579 C578 1.385 . S
C579 C580 1.389 . S
C580 C579 1.389 . S
C580 C581 1.387 . S
C581 H566 0.930 . S
C581 C576 1.390 . S
C581 C580 1.387 . S
H582 C594 0.930 . S
H583 C596 0.930 . S
H584 C597 0.930 . S
H585 C601 0.959 . S
H586 C601 0.959 . S
H587 C601 0.961 . S
H588 C602 0.960 . S
H589 C602 0.961 . S
H590 C602 0.959 . S
H591 C605 0.933 . S
H592 C606 0.931 . S
H593 C608 0.930 . S
C594 H582 0.930 . S
C594 C595 1.399 . S
C594 C599 1.399 . S
C595 C594 1.399 . S
C595 C596 1.376 . S
C596 H583 0.930 . S
C596 C595 1.376 . S
C596 C597 1.388 . S
C597 H584 0.930 . S
C597 C596 1.388 . S
C597 C598 1.390 . S
C598 C597 1.390 . S
C598 C599 1.394 . S
C598 C604 1.465 . S
C599 C594 1.399 . S
C599 C598 1.394 . S
C599 C600 1.516 . S
C600 C599 1.516 . S
C600 C601 1.502 . S
C600 C602 1.561 . S
C600 C603 1.526 . S
C601 H585 0.959 . S
C601 H586 0.959 . S
C601 H587 0.961 . S
C601 C600 1.502 . S
C602 H588 0.960 . S
C602 H589 0.961 . S
C602 H590 0.959 . S
C602 C600 1.561 . S
C603 C600 1.526 . S
C603 C604 1.396 . S
C603 C608 1.390 1_554 S
C604 C598 1.465 . S
C604 C603 1.396 . S
C604 C605 1.406 . S
C605 H591 0.933 . S
C605 C604 1.406 . S
C605 C606 1.374 1_554 S
C606 H592 0.931 . S
C606 C605 1.374 1_556 S
C606 C607 1.389 . S
C607 C606 1.389 . S
C607 C608 1.387 . S
C608 H593 0.930 . S
C608 C603 1.390 1_556 S
C608 C607 1.387 . S
H609 C621 0.930 . S
H610 C623 0.930 . S
H611 C624 0.930 . S
H612 C628 0.959 . S
H613 C628 0.959 . S
H614 C628 0.961 . S
H615 C629 0.960 . S
H616 C629 0.961 . S
H617 C629 0.959 . S
H618 C632 0.929 . S
H619 C633 0.931 . S
H620 C635 0.930 . S
C621 H609 0.930 . S
C621 C622 1.399 . S
C621 C626 1.399 . S
C622 C621 1.399 . S
C622 C623 1.376 . S
C623 H610 0.930 . S
C623 C622 1.376 . S
C623 C624 1.388 . S
C624 H611 0.930 . S
C624 C623 1.388 . S
C624 C625 1.390 . S
C625 C624 1.390 . S
C625 C626 1.394 . S
C625 C631 1.465 . S
C626 C621 1.399 . S
C626 C625 1.394 . S
C626 C627 1.516 . S
C627 C626 1.516 . S
C627 C628 1.502 . S
C627 C629 1.561 . S
C627 C630 1.526 . S
C628 H612 0.959 . S
C628 H613 0.959 . S
C628 H614 0.961 . S
C628 C627 1.502 . S
C629 H615 0.960 . S
C629 H616 0.961 . S
C629 H617 0.959 . S
C629 C627 1.561 . S
C630 C627 1.526 . S
C630 C631 1.396 . S
C630 C635 1.390 . S
C631 C625 1.465 . S
C631 C630 1.396 . S
C631 C632 1.399 . S
C632 H618 0.929 . S
C632 C631 1.399 . S
C632 C633 1.385 . S
C633 H619 0.931 . S
C633 C632 1.385 . S
C633 C634 1.389 . S
C634 C633 1.389 . S
C634 C635 1.387 . S
C635 H620 0.930 . S
C635 C630 1.390 . S
C635 C634 1.387 . S
H636 C648 0.930 . S
H637 C650 0.930 . S
H638 C651 0.930 . S
H639 C655 0.959 . S
H640 C655 0.959 . S
H641 C655 0.961 . S
H642 C656 0.960 . S
H643 C656 0.961 . S
H644 C656 0.959 . S
H645 C659 0.929 . S
H646 C660 0.931 . S
H647 C662 0.930 . S
C648 H636 0.930 . S
C648 C649 1.399 . S
C648 C653 1.399 . S
C649 C648 1.399 . S
C649 C650 1.376 . S
C650 H637 0.930 . S
C650 C649 1.376 . S
C650 C651 1.388 . S
C651 H638 0.930 . S
C651 C650 1.388 . S
C651 C652 1.390 . S
C652 C651 1.390 . S
C652 C653 1.394 . S
C652 C658 1.465 . S
C653 C648 1.399 . S
C653 C652 1.394 . S
C653 C654 1.516 . S
C654 C653 1.516 . S
C654 C655 1.502 . S
C654 C656 1.561 . S
C654 C657 1.526 . S
C655 H639 0.959 . S
C655 H640 0.959 . S
C655 H641 0.961 . S
C655 C654 1.502 . S
C656 H642 0.960 . S
C656 H643 0.961 . S
C656 H644 0.959 . S
C656 C654 1.561 . S
C657 C654 1.526 . S
C657 C658 1.396 . S
C657 C662 1.390 . S
C658 C652 1.465 . S
C658 C657 1.396 . S
C658 C659 1.399 . S
C659 H645 0.929 . S
C659 C658 1.399 . S
C659 C660 1.385 . S
C660 H646 0.931 . S
C660 C659 1.385 . S
C660 C661 1.389 . S
C661 C660 1.389 . S
C661 C662 1.387 . S
C662 H647 0.930 . S
C662 C657 1.390 . S
C662 C661 1.387 . S
H663 C675 0.930 . S
H664 C677 0.930 . S
H665 C678 0.930 . S
H666 C682 0.959 . S
H667 C682 0.959 . S
H668 C682 0.961 . S
H669 C683 0.960 . S
H670 C683 0.961 . S
H671 C683 0.959 . S
H672 C686 0.929 . S
H673 C687 0.931 . S
H674 C689 0.930 . S
C675 H663 0.930 . S
C675 C676 1.399 . S
C675 C680 1.399 . S
C676 C675 1.399 . S
C676 C677 1.376 . S
C677 H664 0.930 . S
C677 C676 1.376 . S
C677 C678 1.388 . S
C678 H665 0.930 . S
C678 C677 1.388 . S
C678 C679 1.390 . S
C679 C678 1.390 . S
C679 C680 1.394 . S
C679 C685 1.465 . S
C680 C675 1.399 . S
C680 C679 1.394 . S
C680 C681 1.516 . S
C681 C680 1.516 . S
C681 C682 1.502 . S
C681 C683 1.561 . S
C681 C684 1.526 . S
C682 H666 0.959 . S
C682 H667 0.959 . S
C682 H668 0.961 . S
C682 C681 1.502 . S
C683 H669 0.960 . S
C683 H670 0.961 . S
C683 H671 0.959 . S
C683 C681 1.561 . S
C684 C681 1.526 . S
C684 C685 1.396 . S
C684 C689 1.390 . S
C685 C679 1.465 . S
C685 C684 1.396 . S
C685 C686 1.399 . S
C686 H672 0.929 . S
C686 C685 1.399 . S
C686 C687 1.385 . S
C687 H673 0.931 . S
C687 C686 1.385 . S
C687 C688 1.389 . S
C688 C687 1.389 . S
C688 C689 1.387 . S
C689 H674 0.930 . S
C689 C684 1.390 . S
C689 C688 1.387 . S
H690 C702 0.930 . S
H691 C704 0.930 . S
H692 C705 0.930 . S
H693 C709 0.959 . S
H694 C709 0.959 . S
H695 C709 0.961 . S
H696 C710 0.960 . S
H697 C710 0.961 . S
H698 C710 0.959 . S
H699 C713 0.929 1_556 S
H700 C714 0.931 . S
H701 C716 0.930 . S
C702 H690 0.930 . S
C702 C703 1.399 . S
C702 C707 1.399 . S
C703 C702 1.399 . S
C703 C704 1.376 . S
C704 H691 0.930 . S
C704 C703 1.376 . S
C704 C705 1.388 . S
C705 H692 0.930 . S
C705 C704 1.388 . S
C705 C706 1.390 . S
C706 C705 1.390 . S
C706 C707 1.394 . S
C706 C712 1.465 . S
C707 C702 1.399 . S
C707 C706 1.394 . S
C707 C708 1.516 . S
C708 C707 1.516 . S
C708 C709 1.502 . S
C708 C710 1.561 . S
C708 C711 1.526 . S
C709 H693 0.959 . S
C709 H694 0.959 . S
C709 H695 0.961 . S
C709 C708 1.502 . S
C710 H696 0.960 . S
C710 H697 0.961 . S
C710 H698 0.959 . S
C710 C708 1.561 . S
C711 C708 1.526 . S
C711 C712 1.396 . S
C711 C716 1.390 1_556 S
C712 C706 1.465 . S
C712 C711 1.396 . S
C712 C713 1.399 1_556 S
C713 H699 0.929 1_554 S
C713 C712 1.399 1_554 S
C713 C714 1.385 . S
C714 H700 0.931 . S
C714 C713 1.385 . S
C714 C715 1.389 . S
C715 C714 1.389 . S
C715 C716 1.387 . S
C716 H701 0.930 . S
C716 C711 1.390 1_554 S
C716 C715 1.387 . S
H717 C729 0.930 . S
H718 C731 0.930 . S
H719 C732 0.930 . S
H720 C736 0.959 . S
H721 C736 0.959 . S
H722 C736 0.961 . S
H723 C737 0.960 . S
H724 C737 0.961 . S
H725 C737 0.959 . S
H726 C740 0.929 . S
H727 C741 0.931 . S
H728 C743 0.930 . S
C729 H717 0.930 . S
C729 C730 1.399 . S
C729 C734 1.399 . S
C730 C729 1.399 . S
C730 C731 1.376 . S
C731 H718 0.930 . S
C731 C730 1.376 . S
C731 C732 1.388 . S
C732 H719 0.930 . S
C732 C731 1.388 . S
C732 C733 1.390 . S
C733 C732 1.390 . S
C733 C734 1.394 . S
C733 C739 1.465 . S
C734 C729 1.399 . S
C734 C733 1.394 . S
C734 C735 1.516 . S
C735 C734 1.516 . S
C735 C736 1.502 . S
C735 C737 1.561 . S
C735 C738 1.526 . S
C736 H720 0.959 . S
C736 H721 0.959 . S
C736 H722 0.961 . S
C736 C735 1.502 . S
C737 H723 0.960 . S
C737 H724 0.961 . S
C737 H725 0.959 . S
C737 C735 1.561 . S
C738 C735 1.526 . S
C738 C739 1.396 . S
C738 C743 1.390 . S
C739 C733 1.465 . S
C739 C738 1.396 . S
C739 C740 1.399 . S
C740 H726 0.929 . S
C740 C739 1.399 . S
C740 C741 1.385 1_554 S
C741 H727 0.931 . S
C741 C740 1.385 1_556 S
C741 C742 1.389 . S
C742 C741 1.389 . S
C742 C743 1.387 1_556 S
C743 H728 0.930 . S
C743 C738 1.390 . S
C743 C742 1.387 1_554 S
H744 C756 0.930 . S
H745 C758 0.930 . S
H746 C759 0.930 . S
H747 C763 0.959 . S
H748 C763 0.959 . S
H749 C763 0.961 . S
H750 C764 0.960 . S
H751 C764 0.961 . S
H752 C764 0.959 . S
H753 C767 0.929 . S
H754 C768 0.931 . S
H755 C770 0.930 . S
C756 H744 0.930 . S
C756 C757 1.399 . S
C756 C761 1.399 . S
C757 C756 1.399 . S
C757 C758 1.376 . S
C758 H745 0.930 . S
C758 C757 1.376 . S
C758 C759 1.388 . S
C759 H746 0.930 . S
C759 C758 1.388 . S
C759 C760 1.390 . S
C760 C759 1.390 . S
C760 C761 1.394 . S
C760 C766 1.465 . S
C761 C756 1.399 . S
C761 C760 1.394 . S
C761 C762 1.516 . S
C762 C761 1.516 . S
C762 C763 1.502 . S
C762 C764 1.561 . S
C762 C765 1.526 . S
C763 H747 0.959 . S
C763 H748 0.959 . S
C763 H749 0.961 . S
C763 C762 1.502 . S
C764 H750 0.960 . S
C764 H751 0.961 . S
C764 H752 0.959 . S
C764 C762 1.561 . S
C765 C762 1.526 . S
C765 C766 1.396 . S
C765 C770 1.390 . S
C766 C760 1.465 . S
C766 C765 1.396 . S
C766 C767 1.399 . S
C767 H753 0.929 . S
C767 C766 1.399 . S
C767 C768 1.385 1_554 S
C768 H754 0.931 . S
C768 C767 1.385 1_556 S
C768 C769 1.389 . S
C769 C768 1.389 . S
C769 C770 1.387 1_556 S
C770 H755 0.930 . S
C770 C765 1.390 . S
C770 C769 1.387 1_554 S
H771 C783 0.930 . S
H772 C785 0.930 . S
H773 C786 0.930 . S
H774 C790 0.959 . S
H775 C790 0.959 . S
H776 C790 0.961 . S
H777 C791 0.960 . S
H778 C791 0.961 . S
H779 C791 0.959 . S
H780 C794 0.929 . S
H781 C795 0.931 . S
H782 C797 0.930 . S
C783 H771 0.930 . S
C783 C784 1.399 . S
C783 C788 1.399 . S
C784 C783 1.399 . S
C784 C785 1.376 . S
C785 H772 0.930 . S
C785 C784 1.376 . S
C785 C786 1.388 . S
C786 H773 0.930 . S
C786 C785 1.388 . S
C786 C787 1.390 . S
C787 C786 1.390 . S
C787 C788 1.394 . S
C787 C793 1.465 . S
C788 C783 1.399 . S
C788 C787 1.394 . S
C788 C789 1.516 . S
C789 C788 1.516 . S
C789 C790 1.502 . S
C789 C791 1.561 . S
C789 C792 1.526 . S
C790 H774 0.959 . S
C790 H775 0.959 . S
C790 H776 0.961 . S
C790 C789 1.502 . S
C791 H777 0.960 . S
C791 H778 0.961 . S
C791 H779 0.959 . S
C791 C789 1.561 . S
C792 C789 1.526 . S
C792 C793 1.396 . S
C792 C797 1.390 . S
C793 C787 1.465 . S
C793 C792 1.396 . S
C793 C794 1.399 . S
C794 H780 0.929 . S
C794 C793 1.399 . S
C794 C795 1.385 . S
C795 H781 0.931 . S
C795 C794 1.385 . S
C795 C796 1.389 . S
C796 C795 1.389 . S
C796 C797 1.387 . S
C797 H782 0.930 . S
C797 C792 1.390 . S
C797 C796 1.387 . S
H798 C810 0.930 . S
H799 C812 0.930 . S
H800 C813 0.930 . S
H801 C817 0.959 . S
H802 C817 0.959 . S
H803 C817 0.961 . S
H804 C818 0.960 . S
H805 C818 0.961 . S
H806 C818 0.959 . S
H807 C821 0.929 . S
H808 C822 0.931 . S
H809 C824 0.930 . S
C810 H798 0.930 . S
C810 C811 1.399 . S
C810 C815 1.399 . S
C811 C810 1.399 . S
C811 C812 1.376 . S
C812 H799 0.930 . S
C812 C811 1.376 . S
C812 C813 1.388 . S
C813 H800 0.930 . S
C813 C812 1.388 . S
C813 C814 1.390 . S
C814 C813 1.390 . S
C814 C815 1.394 . S
C814 C820 1.465 . S
C815 C810 1.399 . S
C815 C814 1.394 . S
C815 C816 1.516 . S
C816 C815 1.516 . S
C816 C817 1.502 . S
C816 C818 1.561 . S
C816 C819 1.526 . S
C817 H801 0.959 . S
C817 H802 0.959 . S
C817 H803 0.961 . S
C817 C816 1.502 . S
C818 H804 0.960 . S
C818 H805 0.961 . S
C818 H806 0.959 . S
C818 C816 1.561 . S
C819 C816 1.526 . S
C819 C820 1.396 . S
C819 C824 1.390 . S
C820 C814 1.465 . S
C820 C819 1.396 . S
C820 C821 1.399 . S
C821 H807 0.929 . S
C821 C820 1.399 . S
C821 C822 1.385 . S
C822 H808 0.931 . S
C822 C821 1.385 . S
C822 C823 1.389 . S
C823 C822 1.389 . S
C823 C824 1.387 . S
C824 H809 0.930 . S
C824 C819 1.390 . S
C824 C823 1.387 . S
H825 C837 0.930 . S
H826 C839 0.930 . S
H827 C840 0.930 . S
H828 C844 0.959 . S
H829 C844 0.959 . S
H830 C844 0.961 . S
H831 C845 0.960 . S
H832 C845 0.961 . S
H833 C845 0.959 . S
H834 C848 0.929 . S
H835 C849 0.931 . S
H836 C851 0.930 . S
C837 H825 0.930 . S
C837 C838 1.399 . S
C837 C842 1.399 . S
C838 C837 1.399 . S
C838 C839 1.376 . S
C839 H826 0.930 . S
C839 C838 1.376 . S
C839 C840 1.388 . S
C840 H827 0.930 . S
C840 C839 1.388 . S
C840 C841 1.390 . S
C841 C840 1.390 . S
C841 C842 1.394 . S
C841 C847 1.465 . S
C842 C837 1.399 . S
C842 C841 1.394 . S
C842 C843 1.516 . S
C843 C842 1.516 . S
C843 C844 1.502 . S
C843 C845 1.561 . S
C843 C846 1.526 . S
C844 H828 0.959 . S
C844 H829 0.959 . S
C844 H830 0.961 . S
C844 C843 1.502 . S
C845 H831 0.960 . S
C845 H832 0.961 . S
C845 H833 0.959 . S
C845 C843 1.561 . S
C846 C843 1.526 . S
C846 C847 1.396 . S
C846 C851 1.390 . S
C847 C841 1.465 . S
C847 C846 1.396 . S
C847 C848 1.399 . S
C848 H834 0.929 . S
C848 C847 1.399 . S
C848 C849 1.385 1_556 S
C849 H835 0.931 . S
C849 C848 1.385 1_554 S
C849 C850 1.389 . S
C850 C849 1.389 . S
C850 C851 1.387 1_554 S
C851 H836 0.930 . S
C851 C846 1.390 . S
C851 C850 1.387 1_556 S
H852 C864 0.930 . S
H853 C866 0.930 . S
H854 C867 0.931 . S
H855 C871 0.959 . S
H856 C871 0.959 . S
H857 C871 0.961 . S
H858 C872 0.960 . S
H859 C872 0.961 . S
H860 C872 0.959 . S
H861 C875 0.929 . S
H862 C876 0.931 . S
H863 C878 0.930 . S
C864 H852 0.930 . S
C864 C865 1.399 . S
C864 C869 1.399 1_556 S
C865 C864 1.399 . S
C865 C866 1.376 . S
C866 H853 0.930 . S
C866 C865 1.376 . S
C866 C867 1.384 1_556 S
C867 H854 0.931 . S
C867 C866 1.384 1_554 S
C867 C868 1.393 . S
C868 C867 1.393 . S
C868 C869 1.394 . S
C868 C874 1.465 . S
C869 C864 1.399 1_554 S
C869 C868 1.394 . S
C869 C870 1.516 . S
C870 C869 1.516 . S
C870 C871 1.502 . S
C870 C872 1.561 . S
C870 C873 1.526 . S
C871 H855 0.959 . S
C871 H856 0.959 . S
C871 H857 0.961 . S
C871 C870 1.502 . S
C872 H858 0.960 . S
C872 H859 0.961 . S
C872 H860 0.959 . S
C872 C870 1.561 . S
C873 C870 1.526 . S
C873 C874 1.396 . S
C873 C878 1.390 . S
C874 C868 1.465 . S
C874 C873 1.396 . S
C874 C875 1.399 . S
C875 H861 0.929 . S
C875 C874 1.399 . S
C875 C876 1.385 . S
C876 H862 0.931 . S
C876 C875 1.385 . S
C876 C877 1.389 . S
C877 C876 1.389 . S
C877 C878 1.387 . S
C878 H863 0.930 . S
C878 C873 1.390 . S
C878 C877 1.387 . S
H879 C891 0.930 . S
H880 C893 0.930 . S
H881 C894 0.930 . S
H882 C898 0.959 . S
H883 C898 0.959 . S
H884 C898 0.961 . S
H885 C899 0.960 . S
H886 C899 0.961 . S
H887 C899 0.959 . S
H888 C902 0.929 . S
H889 C903 0.931 . S
H890 C905 0.930 . S
C891 H879 0.930 . S
C891 C892 1.399 . S
C891 C896 1.399 . S
C892 C891 1.399 . S
C892 C893 1.376 . S
C893 H880 0.930 . S
C893 C892 1.376 . S
C893 C894 1.388 . S
C894 H881 0.930 . S
C894 C893 1.388 . S
C894 C895 1.390 . S
C895 C894 1.390 . S
C895 C896 1.394 . S
C895 C901 1.465 . S
C896 C891 1.399 . S
C896 C895 1.394 . S
C896 C897 1.516 . S
C897 C896 1.516 . S
C897 C898 1.502 . S
C897 C899 1.561 . S
C897 C900 1.526 . S
C898 H882 0.959 . S
C898 H883 0.959 . S
C898 H884 0.961 . S
C898 C897 1.502 . S
C899 H885 0.960 . S
C899 H886 0.961 . S
C899 H887 0.959 . S
C899 C897 1.561 . S
C900 C897 1.526 . S
C900 C901 1.396 . S
C900 C905 1.390 . S
C901 C895 1.465 . S
C901 C900 1.396 . S
C901 C902 1.399 . S
C902 H888 0.929 . S
C902 C901 1.399 . S
C902 C903 1.385 . S
C903 H889 0.931 . S
C903 C902 1.385 . S
C903 C904 1.389 . S
C904 C903 1.389 . S
C904 C905 1.387 . S
C905 H890 0.930 . S
C905 C900 1.390 . S
C905 C904 1.387 . S
H906 C918 0.930 . S
H907 C920 0.930 . S
H908 C921 0.930 . S
H909 C925 0.959 . S
H910 C925 0.959 . S
H911 C925 0.961 . S
H912 C926 0.960 . S
H913 C926 0.961 . S
H914 C926 0.959 . S
H915 C929 0.929 . S
H916 C930 0.931 . S
H917 C932 0.930 . S
C918 H906 0.930 . S
C918 C919 1.399 . S
C918 C923 1.399 1_554 S
C919 C918 1.399 . S
C919 C920 1.376 . S
C920 H907 0.930 . S
C920 C919 1.376 . S
C920 C921 1.387 1_554 S
C921 H908 0.930 . S
C921 C920 1.387 1_556 S
C921 C922 1.391 . S
C922 C921 1.391 . S
C922 C923 1.394 . S
C922 C928 1.465 . S
C923 C918 1.399 1_556 S
C923 C922 1.394 . S
C923 C924 1.516 . S
C924 C923 1.516 . S
C924 C925 1.502 . S
C924 C926 1.561 . S
C924 C927 1.526 . S
C925 H909 0.959 . S
C925 H910 0.959 . S
C925 H911 0.961 . S
C925 C924 1.502 . S
C926 H912 0.960 . S
C926 H913 0.961 . S
C926 H914 0.959 . S
C926 C924 1.561 . S
C927 C924 1.526 . S
C927 C928 1.396 . S
C927 C932 1.390 . S
C928 C922 1.465 . S
C928 C927 1.396 . S
C928 C929 1.399 . S
C929 H915 0.929 . S
C929 C928 1.399 . S
C929 C930 1.385 . S
C930 H916 0.931 . S
C930 C929 1.385 . S
C930 C931 1.389 . S
C931 C930 1.389 . S
C931 C932 1.387 . S
C932 H917 0.930 . S
C932 C927 1.390 . S
C932 C931 1.387 . S
H933 C945 0.930 . S
H934 C947 0.930 . S
H935 C948 0.930 . S
H936 C952 0.959 . S
H937 C952 0.959 . S
H938 C952 0.961 . S
H939 C953 0.960 . S
H940 C953 0.961 . S
H941 C953 0.959 . S
H942 C956 0.929 . S
H943 C957 0.931 . S
H944 C959 0.930 . S
C945 H933 0.930 . S
C945 C946 1.399 . S
C945 C950 1.399 . S
C946 C945 1.399 . S
C946 C947 1.376 . S
C947 H934 0.930 . S
C947 C946 1.376 . S
C947 C948 1.388 . S
C948 H935 0.930 . S
C948 C947 1.388 . S
C948 C949 1.390 . S
C949 C948 1.390 . S
C949 C950 1.394 . S
C949 C955 1.465 . S
C950 C945 1.399 . S
C950 C949 1.394 . S
C950 C951 1.516 . S
C951 C950 1.516 . S
C951 C952 1.502 . S
C951 C953 1.561 . S
C951 C954 1.526 . S
C952 H936 0.959 . S
C952 H937 0.959 . S
C952 H938 0.961 . S
C952 C951 1.502 . S
C953 H939 0.960 . S
C953 H940 0.961 . S
C953 H941 0.959 . S
C953 C951 1.561 . S
C954 C951 1.526 . S
C954 C955 1.396 . S
C954 C959 1.390 . S
C955 C949 1.465 . S
C955 C954 1.396 . S
C955 C956 1.399 . S
C956 H942 0.929 . S
C956 C955 1.399 . S
C956 C957 1.385 . S
C957 H943 0.931 . S
C957 C956 1.385 . S
C957 C958 1.389 . S
C958 C957 1.389 . S
C958 C959 1.387 . S
C959 H944 0.930 . S
C959 C954 1.390 . S
C959 C958 1.387 . S
H960 C972 0.930 . S
H961 C974 0.930 . S
H962 C975 0.930 . S
H963 C979 0.959 . S
H964 C979 0.959 . S
H965 C979 0.961 . S
H966 C980 0.960 . S
H967 C980 0.961 . S
H968 C980 0.959 . S
H969 C983 0.929 . S
H970 C984 0.931 . S
H971 C986 0.938 . S
C972 H960 0.930 . S
C972 C973 1.399 . S
C972 C977 1.399 . S
C973 C972 1.399 . S
C973 C974 1.376 1_554 S
C974 H961 0.930 . S
C974 C973 1.376 1_556 S
C974 C975 1.388 . S
C975 H962 0.930 . S
C975 C974 1.388 . S
C975 C976 1.390 . S
C976 C975 1.390 . S
C976 C977 1.394 1_556 S
C976 C982 1.465 . S
C977 C972 1.399 . S
C977 C976 1.394 1_554 S
C977 C978 1.516 . S
C978 C977 1.516 . S
C978 C979 1.502 . S
C978 C980 1.561 . S
C978 C981 1.526 . S
C979 H963 0.959 . S
C979 H964 0.959 . S
C979 H965 0.961 . S
C979 C978 1.502 . S
C980 H966 0.960 . S
C980 H967 0.961 . S
C980 H968 0.959 . S
C980 C978 1.561 . S
C981 C978 1.526 . S
C981 C982 1.396 1_554 S
C981 C986 1.391 . S
C982 C976 1.465 . S
C982 C981 1.396 1_556 S
C982 C983 1.399 . S
C983 H969 0.929 . S
C983 C982 1.399 . S
C983 C984 1.385 . S
C984 H970 0.931 . S
C984 C983 1.385 . S
C984 C985 1.389 . S
C985 C984 1.389 . S
C985 C986 1.377 1_556 S
C986 H971 0.938 . S
C986 C981 1.391 . S
C986 C985 1.377 1_554 S
H987 C999 0.930 . S
H988 C1001 0.930 . S
H989 C1002 0.930 . S
H990 C1006 0.959 . S
H991 C1006 0.959 . S
H992 C1006 0.961 . S
H993 C1007 0.960 . S
H994 C1007 0.961 . S
H995 C1007 0.959 . S
H996 C1010 0.929 . S
H997 C1011 0.931 . S
H998 C1013 0.930 . S
C999 H987 0.930 . S
C999 C1000 1.399 . S
C999 C1004 1.399 . S
C1000 C999 1.399 . S
C1000 C1001 1.376 . S
C1001 H988 0.930 . S
C1001 C1000 1.376 . S
C1001 C1002 1.388 . S
C1002 H989 0.930 . S
C1002 C1001 1.388 . S
C1002 C1003 1.390 . S
C1003 C1002 1.390 . S
C1003 C1004 1.394 . S
C1003 C1009 1.465 . S
C1004 C999 1.399 . S
C1004 C1003 1.394 . S
C1004 C1005 1.516 . S
C1005 C1004 1.516 . S
C1005 C1006 1.502 . S
C1005 C1007 1.561 . S
C1005 C1008 1.526 . S
C1006 H990 0.959 . S
C1006 H991 0.959 . S
C1006 H992 0.961 . S
C1006 C1005 1.502 . S
C1007 H993 0.960 . S
C1007 H994 0.961 . S
C1007 H995 0.959 . S
C1007 C1005 1.561 . S
C1008 C1005 1.526 . S
C1008 C1009 1.396 . S
C1008 C1013 1.390 . S
C1009 C1003 1.465 . S
C1009 C1008 1.396 . S
C1009 C1010 1.399 . S
C1010 H996 0.929 . S
C1010 C1009 1.399 . S
C1010 C1011 1.385 . S
C1011 H997 0.931 . S
C1011 C1010 1.385 . S
C1011 C1012 1.389 . S
C1012 C1011 1.389 . S
C1012 C1013 1.387 . S
C1013 H998 0.930 . S
C1013 C1008 1.390 . S
C1013 C1012 1.387 . S
H1014 C1026 0.930 . S
H1015 C1028 0.930 . S
H1016 C1029 0.930 . S
H1017 C1033 0.959 . S
H1018 C1033 0.959 . S
H1019 C1033 0.961 . S
H1020 C1034 0.960 . S
H1021 C1034 0.961 . S
H1022 C1034 0.959 . S
H1023 C1037 0.929 . S
H1024 C1038 0.931 . S
H1025 C1040 0.930 . S
C1026 H1014 0.930 . S
C1026 C1027 1.399 . S
C1026 C1031 1.399 . S
C1027 C1026 1.399 . S
C1027 C1028 1.376 . S
C1028 H1015 0.930 . S
C1028 C1027 1.376 . S
C1028 C1029 1.388 . S
C1029 H1016 0.930 . S
C1029 C1028 1.388 . S
C1029 C1030 1.390 . S
C1030 C1029 1.390 . S
C1030 C1031 1.394 . S
C1030 C1036 1.465 . S
C1031 C1026 1.399 . S
C1031 C1030 1.394 . S
C1031 C1032 1.516 . S
C1032 C1031 1.516 . S
C1032 C1033 1.502 . S
C1032 C1034 1.561 . S
C1032 C1035 1.526 . S
C1033 H1017 0.959 . S
C1033 H1018 0.959 . S
C1033 H1019 0.961 . S
C1033 C1032 1.502 . S
C1034 H1020 0.960 . S
C1034 H1021 0.961 . S
C1034 H1022 0.959 . S
C1034 C1032 1.561 . S
C1035 C1032 1.526 . S
C1035 C1036 1.396 . S
C1035 C1040 1.390 . S
C1036 C1030 1.465 . S
C1036 C1035 1.396 . S
C1036 C1037 1.399 . S
C1037 H1023 0.929 . S
C1037 C1036 1.399 . S
C1037 C1038 1.385 . S
C1038 H1024 0.931 . S
C1038 C1037 1.385 . S
C1038 C1039 1.389 . S
C1039 C1038 1.389 . S
C1039 C1040 1.387 . S
C1040 H1025 0.930 . S
C1040 C1035 1.390 . S
C1040 C1039 1.387 . S
H1041 C1053 0.930 . S
H1042 C1055 0.930 . S
H1043 C1056 0.930 . S
H1044 C1060 0.959 . S
H1045 C1060 0.959 . S
H1046 C1060 0.961 . S
H1047 C1061 0.960 . S
H1048 C1061 0.961 . S
H1049 C1061 0.959 . S
H1050 C1064 0.929 . S
H1051 C1065 0.931 . S
H1052 C1067 0.930 . S
C1053 H1041 0.930 . S
C1053 C1054 1.399 . S
C1053 C1058 1.399 . S
C1054 C1053 1.399 . S
C1054 C1055 1.376 . S
C1055 H1042 0.930 . S
C1055 C1054 1.376 . S
C1055 C1056 1.388 . S
C1056 H1043 0.930 . S
C1056 C1055 1.388 . S
C1056 C1057 1.390 . S
C1057 C1056 1.390 . S
C1057 C1058 1.394 . S
C1057 C1063 1.465 . S
C1058 C1053 1.399 . S
C1058 C1057 1.394 . S
C1058 C1059 1.516 . S
C1059 C1058 1.516 . S
C1059 C1060 1.502 . S
C1059 C1061 1.561 . S
C1059 C1062 1.526 . S
C1060 H1044 0.959 . S
C1060 H1045 0.959 . S
C1060 H1046 0.961 . S
C1060 C1059 1.502 . S
C1061 H1047 0.960 . S
C1061 H1048 0.961 . S
C1061 H1049 0.959 . S
C1061 C1059 1.561 . S
C1062 C1059 1.526 . S
C1062 C1063 1.396 . S
C1062 C1067 1.390 . S
C1063 C1057 1.465 . S
C1063 C1062 1.396 . S
C1063 C1064 1.399 . S
C1064 H1050 0.929 . S
C1064 C1063 1.399 . S
C1064 C1065 1.385 . S
C1065 H1051 0.931 . S
C1065 C1064 1.385 . S
C1065 C1066 1.389 . S
C1066 C1065 1.389 . S
C1066 C1067 1.387 . S
C1067 H1052 0.930 . S
C1067 C1062 1.390 . S
C1067 C1066 1.387 . S
H1068 C1080 0.930 . S
H1069 C1082 0.930 . S
H1070 C1083 0.930 . S
H1071 C1087 0.959 . S
H1072 C1087 0.959 . S
H1073 C1087 0.961 . S
H1074 C1088 0.960 . S
H1075 C1088 0.961 . S
H1076 C1088 0.959 . S
H1077 C1091 0.929 . S
H1078 C1092 0.931 . S
H1079 C1094 0.930 . S
C1080 H1068 0.930 . S
C1080 C1081 1.399 . S
C1080 C1085 1.399 . S
C1081 C1080 1.399 . S
C1081 C1082 1.376 . S
C1082 H1069 0.930 . S
C1082 C1081 1.376 . S
C1082 C1083 1.388 . S
C1083 H1070 0.930 . S
C1083 C1082 1.388 . S
C1083 C1084 1.390 . S
C1084 C1083 1.390 . S
C1084 C1085 1.394 . S
C1084 C1090 1.465 . S
C1085 C1080 1.399 . S
C1085 C1084 1.394 . S
C1085 C1086 1.516 . S
C1086 C1085 1.516 . S
C1086 C1087 1.502 . S
C1086 C1088 1.561 . S
C1086 C1089 1.526 . S
C1087 H1071 0.959 . S
C1087 H1072 0.959 . S
C1087 H1073 0.961 . S
C1087 C1086 1.502 . S
C1088 H1074 0.960 . S
C1088 H1075 0.961 . S
C1088 H1076 0.959 . S
C1088 C1086 1.561 . S
C1089 C1086 1.526 . S
C1089 C1090 1.396 . S
C1089 C1094 1.390 . S
C1090 C1084 1.465 . S
C1090 C1089 1.396 . S
C1090 C1091 1.399 . S
C1091 H1077 0.929 . S
C1091 C1090 1.399 . S
C1091 C1092 1.385 . S
C1092 H1078 0.931 . S
C1092 C1091 1.385 . S
C1092 C1093 1.389 . S
C1093 C1092 1.389 . S
C1093 C1094 1.387 . S
C1094 H1079 0.930 . S
C1094 C1089 1.390 . S
C1094 C1093 1.387 . S
H1095 C1107 0.930 . S
H1096 C1109 0.930 . S
H1097 C1110 0.930 . S
H1098 C1114 0.959 . S
H1099 C1114 0.959 . S
H1100 C1114 0.961 . S
H1101 C1115 0.960 . S
H1102 C1115 0.961 . S
H1103 C1115 0.959 . S
H1104 C1118 0.929 . S
H1105 C1119 0.931 . S
H1106 C1121 0.930 . S
C1107 H1095 0.930 . S
C1107 C1108 1.399 . S
C1107 C1112 1.399 . S
C1108 C1107 1.399 . S
C1108 C1109 1.376 . S
C1109 H1096 0.930 . S
C1109 C1108 1.376 . S
C1109 C1110 1.388 . S
C1110 H1097 0.930 . S
C1110 C1109 1.388 . S
C1110 C1111 1.390 . S
C1111 C1110 1.390 . S
C1111 C1112 1.394 . S
C1111 C1117 1.465 . S
C1112 C1107 1.399 . S
C1112 C1111 1.394 . S
C1112 C1113 1.516 . S
C1113 C1112 1.516 . S
C1113 C1114 1.502 . S
C1113 C1115 1.561 . S
C1113 C1116 1.526 . S
C1114 H1098 0.959 . S
C1114 H1099 0.959 . S
C1114 H1100 0.961 . S
C1114 C1113 1.502 . S
C1115 H1101 0.960 . S
C1115 H1102 0.961 . S
C1115 H1103 0.959 . S
C1115 C1113 1.561 . S
C1116 C1113 1.526 . S
C1116 C1117 1.396 . S
C1116 C1121 1.390 . S
C1117 C1111 1.465 . S
C1117 C1116 1.396 . S
C1117 C1118 1.399 . S
C1118 H1104 0.929 . S
C1118 C1117 1.399 . S
C1118 C1119 1.385 . S
C1119 H1105 0.931 . S
C1119 C1118 1.385 . S
C1119 C1120 1.389 . S
C1120 C1119 1.389 . S
C1120 C1121 1.387 . S
C1121 H1106 0.930 . S
C1121 C1116 1.390 . S
C1121 C1120 1.387 . S
H1122 C1134 0.930 . S
H1123 C1136 0.930 . S
H1124 C1137 0.930 . S
H1125 C1141 0.959 . S
H1126 C1141 0.959 . S
H1127 C1141 0.961 1_545 S
H1128 C1142 0.960 . S
H1129 C1142 0.961 . S
H1130 C1142 0.959 . S
H1131 C1145 0.929 . S
H1132 C1146 0.931 . S
H1133 C1148 0.930 . S
C1134 H1122 0.930 . S
C1134 C1135 1.399 . S
C1134 C1139 1.399 . S
C1135 C1134 1.399 . S
C1135 C1136 1.376 . S
C1136 H1123 0.930 . S
C1136 C1135 1.376 . S
C1136 C1137 1.388 . S
C1137 H1124 0.930 . S
C1137 C1136 1.388 . S
C1137 C1138 1.390 . S
C1138 C1137 1.390 . S
C1138 C1139 1.394 . S
C1138 C1144 1.465 1_545 S
C1139 C1134 1.399 . S
C1139 C1138 1.394 . S
C1139 C1140 1.516 1_545 S
C1140 C1139 1.516 1_565 S
C1140 C1141 1.502 . S
C1140 C1142 1.561 . S
C1140 C1143 1.526 . S
C1141 H1125 0.959 . S
C1141 H1126 0.959 . S
C1141 H1127 0.961 1_565 S
C1141 C1140 1.502 . S
C1142 H1128 0.960 . S
C1142 H1129 0.961 . S
C1142 H1130 0.959 . S
C1142 C1140 1.561 . S
C1143 C1140 1.526 . S
C1143 C1144 1.396 . S
C1143 C1148 1.390 . S
C1144 C1138 1.465 1_565 S
C1144 C1143 1.396 . S
C1144 C1145 1.399 . S
C1145 H1131 0.929 . S
C1145 C1144 1.399 . S
C1145 C1146 1.385 . S
C1146 H1132 0.931 . S
C1146 C1145 1.385 . S
C1146 C1147 1.389 . S
C1147 C1146 1.389 . S
C1147 C1148 1.387 . S
C1148 H1133 0.930 . S
C1148 C1143 1.390 . S
C1148 C1147 1.387 . S
H1149 C1161 0.930 . S
H1150 C1163 0.930 . S
H1151 C1164 0.930 . S
H1152 C1168 0.959 . S
H1153 C1168 0.959 . S
H1154 C1168 0.962 . S
H1155 C1169 0.994 . S
H1156 C1169 0.961 . S
H1157 C1169 0.959 . S
H1158 C1172 0.929 . S
H1159 C1173 0.931 . S
H1160 C1175 0.930 . S
C1161 H1149 0.930 . S
C1161 C1162 1.399 . S
C1161 C1166 1.399 . S
C1162 C1161 1.399 . S
C1162 C1163 1.376 1_554 S
C1163 H1150 0.930 . S
C1163 C1162 1.376 1_556 S
C1163 C1164 1.388 . S
C1164 H1151 0.930 . S
C1164 C1163 1.388 . S
C1164 C1165 1.390 . S
C1165 C1164 1.390 . S
C1165 C1166 1.394 1_556 S
C1165 C1171 1.465 1_565 S
C1166 C1161 1.399 . S
C1166 C1165 1.394 1_554 S
C1166 C1167 1.516 1_565 S
C1167 C1166 1.516 1_545 S
C1167 C1168 1.502 . S
C1167 C1169 1.561 . S
C1167 C1170 1.526 . S
C1168 H1152 0.959 . S
C1168 H1153 0.959 . S
C1168 H1154 0.962 . S
C1168 C1167 1.502 . S
C1169 H1155 0.994 . S
C1169 H1156 0.961 . S
C1169 H1157 0.959 . S
C1169 C1167 1.561 . S
C1170 C1167 1.526 . S
C1170 C1171 1.396 1_554 S
C1170 C1175 1.390 . S
C1171 C1165 1.465 1_545 S
C1171 C1170 1.396 1_556 S
C1171 C1172 1.399 . S
C1172 H1158 0.929 . S
C1172 C1171 1.399 . S
C1172 C1173 1.385 . S
C1173 H1159 0.931 . S
C1173 C1172 1.385 . S
C1173 C1174 1.389 . S
C1174 C1173 1.389 . S
C1174 C1175 1.387 1_556 S
C1175 H1160 0.930 . S
C1175 C1170 1.390 . S
C1175 C1174 1.387 1_554 S
H1176 C1188 0.930 . S
H1177 C1190 0.930 . S
H1178 C1191 0.930 . S
H1179 C1195 0.959 . S
H1180 C1195 0.959 1_556 S
H1181 C1195 0.961 1_556 S
H1182 C1196 0.960 . S
H1183 C1196 0.961 . S
H1184 C1196 0.959 . S
H1185 C1199 0.929 . S
H1186 C1200 0.931 . S
H1187 C1202 0.930 . S
C1188 H1176 0.930 . S
C1188 C1189 1.399 . S
C1188 C1193 1.399 . S
C1189 C1188 1.399 . S
C1189 C1190 1.376 . S
C1190 H1177 0.930 . S
C1190 C1189 1.376 . S
C1190 C1191 1.388 . S
C1191 H1178 0.930 . S
C1191 C1190 1.388 . S
C1191 C1192 1.390 . S
C1192 C1191 1.390 . S
C1192 C1193 1.394 . S
C1192 C1198 1.465 . S
C1193 C1188 1.399 . S
C1193 C1192 1.394 . S
C1193 C1194 1.516 . S
C1194 C1193 1.516 . S
C1194 C1195 1.502 . S
C1194 C1196 1.561 1_554 S
C1194 C1197 1.526 . S
C1195 H1179 0.959 . S
C1195 H1180 0.959 1_554 S
C1195 H1181 0.961 1_554 S
C1195 C1194 1.502 . S
C1196 H1182 0.960 . S
C1196 H1183 0.961 . S
C1196 H1184 0.959 . S
C1196 C1194 1.561 1_556 S
C1197 C1194 1.526 . S
C1197 C1198 1.396 . S
C1197 C1202 1.390 . S
C1198 C1192 1.465 . S
C1198 C1197 1.396 . S
C1198 C1199 1.399 . S
C1199 H1185 0.929 . S
C1199 C1198 1.399 . S
C1199 C1200 1.385 . S
C1200 H1186 0.931 . S
C1200 C1199 1.385 . S
C1200 C1201 1.389 . S
C1201 C1200 1.389 . S
C1201 C1202 1.387 . S
C1202 H1187 0.930 . S
C1202 C1197 1.390 . S
C1202 C1201 1.387 . S
H1203 C1215 0.930 . S
H1204 C1217 0.930 . S
H1205 C1218 0.930 . S
H1206 C1222 0.959 . S
H1207 C1222 0.959 . S
H1208 C1222 0.961 . S
H1209 C1223 0.960 . S
H1210 C1223 0.961 . S
H1211 C1223 0.959 . S
H1212 C1226 0.929 . S
H1213 C1227 0.931 . S
H1214 C1229 0.930 . S
C1215 H1203 0.930 . S
C1215 C1216 1.399 . S
C1215 C1220 1.399 . S
C1216 C1215 1.399 . S
C1216 C1217 1.376 . S
C1217 H1204 0.930 . S
C1217 C1216 1.376 . S
C1217 C1218 1.388 . S
C1218 H1205 0.930 . S
C1218 C1217 1.388 . S
C1218 C1219 1.390 . S
C1219 C1218 1.390 . S
C1219 C1220 1.394 . S
C1219 C1225 1.465 . S
C1220 C1215 1.399 . S
C1220 C1219 1.394 . S
C1220 C1221 1.516 . S
C1221 C1220 1.516 . S
C1221 C1222 1.502 . S
C1221 C1223 1.561 . S
C1221 C1224 1.526 . S
C1222 H1206 0.959 . S
C1222 H1207 0.959 . S
C1222 H1208 0.961 . S
C1222 C1221 1.502 . S
C1223 H1209 0.960 . S
C1223 H1210 0.961 . S
C1223 H1211 0.959 . S
C1223 C1221 1.561 . S
C1224 C1221 1.526 . S
C1224 C1225 1.396 . S
C1224 C1229 1.390 . S
C1225 C1219 1.465 . S
C1225 C1224 1.396 . S
C1225 C1226 1.399 . S
C1226 H1212 0.929 . S
C1226 C1225 1.399 . S
C1226 C1227 1.385 . S
C1227 H1213 0.931 . S
C1227 C1226 1.385 . S
C1227 C1228 1.389 . S
C1228 C1227 1.389 . S
C1228 C1229 1.387 . S
C1229 H1214 0.930 . S
C1229 C1224 1.390 . S
C1229 C1228 1.387 . S
H1230 C1242 0.930 . S
H1231 C1244 0.930 . S
H1232 C1245 0.930 . S
H1233 C1249 0.959 . S
H1234 C1249 0.959 . S
H1235 C1249 0.961 . S
H1236 C1250 0.960 . S
H1237 C1250 0.961 . S
H1238 C1250 0.959 . S
H1239 C1253 0.929 . S
H1240 C1254 0.931 . S
H1241 C1256 0.930 . S
C1242 H1230 0.930 . S
C1242 C1243 1.399 . S
C1242 C1247 1.399 . S
C1243 C1242 1.399 . S
C1243 C1244 1.376 . S
C1244 H1231 0.930 . S
C1244 C1243 1.376 . S
C1244 C1245 1.388 . S
C1245 H1232 0.930 . S
C1245 C1244 1.388 . S
C1245 C1246 1.390 . S
C1246 C1245 1.390 . S
C1246 C1247 1.394 . S
C1246 C1252 1.465 . S
C1247 C1242 1.399 . S
C1247 C1246 1.394 . S
C1247 C1248 1.516 . S
C1248 C1247 1.516 . S
C1248 C1249 1.502 . S
C1248 C1250 1.561 . S
C1248 C1251 1.526 . S
C1249 H1233 0.959 . S
C1249 H1234 0.959 . S
C1249 H1235 0.961 . S
C1249 C1248 1.502 . S
C1250 H1236 0.960 . S
C1250 H1237 0.961 . S
C1250 H1238 0.959 . S
C1250 C1248 1.561 . S
C1251 C1248 1.526 . S
C1251 C1252 1.396 . S
C1251 C1256 1.390 . S
C1252 C1246 1.465 . S
C1252 C1251 1.396 . S
C1252 C1253 1.399 . S
C1253 H1239 0.929 . S
C1253 C1252 1.399 . S
C1253 C1254 1.385 . S
C1254 H1240 0.931 . S
C1254 C1253 1.385 . S
C1254 C1255 1.389 . S
C1255 C1254 1.389 . S
C1255 C1256 1.387 . S
C1256 H1241 0.930 . S
C1256 C1251 1.390 . S
C1256 C1255 1.387 . S
H1257 C1269 0.930 . S
H1258 C1271 0.930 . S
H1259 C1272 0.930 . S
H1260 C1276 0.959 . S
H1261 C1276 0.959 . S
H1262 C1276 0.961 . S
H1263 C1277 0.960 . S
H1264 C1277 0.961 . S
H1265 C1277 0.959 . S
H1266 C1280 0.929 . S
H1267 C1281 0.931 . S
H1268 C1283 0.930 . S
C1269 H1257 0.930 . S
C1269 C1270 1.399 1_655 S
C1269 C1274 1.399 . S
C1270 C1269 1.399 1_455 S
C1270 C1271 1.376 . S
C1271 H1258 0.930 . S
C1271 C1270 1.376 . S
C1271 C1272 1.388 . S
C1272 H1259 0.930 . S
C1272 C1271 1.388 . S
C1272 C1273 1.390 1_455 S
C1273 C1272 1.390 1_655 S
C1273 C1274 1.394 . S
C1273 C1279 1.465 . S
C1274 C1269 1.399 . S
C1274 C1273 1.394 . S
C1274 C1275 1.516 . S
C1275 C1274 1.516 . S
C1275 C1276 1.502 . S
C1275 C1277 1.561 1_556 S
C1275 C1278 1.526 . S
C1276 H1260 0.959 . S
C1276 H1261 0.959 . S
C1276 H1262 0.961 . S
C1276 C1275 1.502 . S
C1277 H1263 0.960 . S
C1277 H1264 0.961 . S
C1277 H1265 0.959 . S
C1277 C1275 1.561 1_554 S
C1278 C1275 1.526 . S
C1278 C1279 1.396 . S
C1278 C1283 1.390 . S
C1279 C1273 1.465 . S
C1279 C1278 1.396 . S
C1279 C1280 1.399 . S
C1280 H1266 0.929 . S
C1280 C1279 1.399 . S
C1280 C1281 1.385 . S
C1281 H1267 0.931 . S
C1281 C1280 1.385 . S
C1281 C1282 1.389 . S
C1282 C1281 1.389 . S
C1282 C1283 1.387 . S
C1283 H1268 0.930 . S
C1283 C1278 1.390 . S
C1283 C1282 1.387 . S
H1284 C1296 0.930 . S
H1285 C1298 0.930 . S
H1286 C1299 0.930 . S
H1287 C1303 0.959 . S
H1288 C1303 0.959 1_554 S
H1289 C1303 0.961 1_554 S
H1290 C1304 0.960 . S
H1291 C1304 0.961 . S
H1292 C1304 0.959 . S
H1293 C1307 0.929 . S
H1294 C1308 0.931 . S
H1295 C1310 0.930 . S
C1296 H1284 0.930 . S
C1296 C1297 1.399 . S
C1296 C1301 1.399 . S
C1297 C1296 1.399 . S
C1297 C1298 1.376 . S
C1298 H1285 0.930 . S
C1298 C1297 1.376 . S
C1298 C1299 1.388 . S
C1299 H1286 0.930 . S
C1299 C1298 1.388 . S
C1299 C1300 1.390 . S
C1300 C1299 1.390 . S
C1300 C1301 1.394 . S
C1300 C1306 1.465 . S
C1301 C1296 1.399 . S
C1301 C1300 1.394 . S
C1301 C1302 1.516 . S
C1302 C1301 1.516 . S
C1302 C1303 1.502 . S
C1302 C1304 1.561 1_556 S
C1302 C1305 1.526 . S
C1303 H1287 0.959 . S
C1303 H1288 0.959 1_556 S
C1303 H1289 0.961 1_556 S
C1303 C1302 1.502 . S
C1304 H1290 0.960 . S
C1304 H1291 0.961 . S
C1304 H1292 0.959 . S
C1304 C1302 1.561 1_554 S
C1305 C1302 1.526 . S
C1305 C1306 1.396 . S
C1305 C1310 1.390 . S
C1306 C1300 1.465 . S
C1306 C1305 1.396 . S
C1306 C1307 1.399 . S
C1307 H1293 0.929 . S
C1307 C1306 1.399 . S
C1307 C1308 1.385 . S
C1308 H1294 0.931 . S
C1308 C1307 1.385 . S
C1308 C1309 1.389 . S
C1309 C1308 1.389 . S
C1309 C1310 1.387 . S
C1310 H1295 0.930 . S
C1310 C1305 1.390 . S
C1310 C1309 1.387 . S
H1311 C1323 0.930 . S
H1312 C1325 0.930 . S
H1313 C1326 0.930 . S
H1314 C1330 0.959 . S
H1315 C1330 0.959 . S
H1316 C1330 0.961 1_455 S
H1317 C1331 0.960 . S
H1318 C1331 0.961 . S
H1319 C1331 0.959 . S
H1320 C1334 0.929 . S
H1321 C1335 0.931 . S
H1322 C1337 0.930 . S
C1323 H1311 0.930 . S
C1323 C1324 1.399 . S
C1323 C1328 1.399 1_455 S
C1324 C1323 1.399 . S
C1324 C1325 1.376 1_455 S
C1325 H1312 0.930 . S
C1325 C1324 1.376 1_655 S
C1325 C1326 1.388 . S
C1326 H1313 0.930 . S
C1326 C1325 1.388 . S
C1326 C1327 1.390 . S
C1327 C1326 1.390 . S
C1327 C1328 1.394 . S
C1327 C1333 1.465 . S
C1328 C1323 1.399 1_655 S
C1328 C1327 1.394 . S
C1328 C1329 1.516 . S
C1329 C1328 1.516 . S
C1329 C1330 1.502 . S
C1329 C1331 1.561 . S
C1329 C1332 1.526 . S
C1330 H1314 0.959 . S
C1330 H1315 0.959 . S
C1330 H1316 0.961 1_655 S
C1330 C1329 1.502 . S
C1331 H1317 0.960 . S
C1331 H1318 0.961 . S
C1331 H1319 0.959 . S
C1331 C1329 1.561 . S
C1332 C1329 1.526 . S
C1332 C1333 1.396 . S
C1332 C1337 1.390 . S
C1333 C1327 1.465 . S
C1333 C1332 1.396 . S
C1333 C1334 1.399 . S
C1334 H1320 0.929 . S
C1334 C1333 1.399 . S
C1334 C1335 1.385 . S
C1335 H1321 0.931 . S
C1335 C1334 1.385 . S
C1335 C1336 1.389 . S
C1336 C1335 1.389 . S
C1336 C1337 1.387 . S
C1337 H1322 0.930 . S
C1337 C1332 1.390 . S
C1337 C1336 1.387 . S
H1338 C1350 0.930 . S
H1339 C1352 0.930 . S
H1340 C1353 0.930 . S
H1341 C1357 0.959 . S
H1342 C1357 0.959 . S
H1343 C1357 0.961 . S
H1344 C1358 0.960 . S
H1345 C1358 0.961 . S
H1346 C1358 0.959 . S
H1347 C1361 0.929 . S
H1348 C1362 0.931 . S
H1349 C1364 0.930 . S
C1350 H1338 0.930 . S
C1350 C1351 1.399 . S
C1350 C1355 1.399 . S
C1351 C1350 1.399 . S
C1351 C1352 1.376 . S
C1352 H1339 0.930 . S
C1352 C1351 1.376 . S
C1352 C1353 1.388 . S
C1353 H1340 0.930 . S
C1353 C1352 1.388 . S
C1353 C1354 1.390 . S
C1354 C1353 1.390 . S
C1354 C1355 1.394 . S
C1354 C1360 1.465 . S
C1355 C1350 1.399 . S
C1355 C1354 1.394 . S
C1355 C1356 1.516 . S
C1356 C1355 1.516 . S
C1356 C1357 1.502 . S
C1356 C1358 1.561 . S
C1356 C1359 1.526 . S
C1357 H1341 0.959 . S
C1357 H1342 0.959 . S
C1357 H1343 0.961 . S
C1357 C1356 1.502 . S
C1358 H1344 0.960 . S
C1358 H1345 0.961 . S
C1358 H1346 0.959 . S
C1358 C1356 1.561 . S
C1359 C1356 1.526 . S
C1359 C1360 1.396 . S
C1359 C1364 1.390 . S
C1360 C1354 1.465 . S
C1360 C1359 1.396 . S
C1360 C1361 1.399 . S
C1361 H1347 0.929 . S
C1361 C1360 1.399 . S
C1361 C1362 1.385 . S
C1362 H1348 0.931 . S
C1362 C1361 1.385 . S
C1362 C1363 1.389 . S
C1363 C1362 1.389 . S
C1363 C1364 1.387 . S
C1364 H1349 0.930 . S
C1364 C1359 1.390 . S
C1364 C1363 1.387 . S
H1365 C1377 0.930 . S
H1366 C1379 0.930 . S
H1367 C1380 0.930 . S
H1368 C1384 0.959 . S
H1369 C1384 0.959 . S
H1370 C1384 0.961 . S
H1371 C1385 0.960 . S
H1372 C1385 0.961 . S
H1373 C1385 0.959 . S
H1374 C1388 0.929 . S
H1375 C1389 0.931 . S
H1376 C1391 0.930 . S
C1377 H1365 0.930 . S
C1377 C1378 1.399 . S
C1377 C1382 1.399 . S
C1378 C1377 1.399 . S
C1378 C1379 1.376 . S
C1379 H1366 0.930 . S
C1379 C1378 1.376 . S
C1379 C1380 1.388 . S
C1380 H1367 0.930 . S
C1380 C1379 1.388 . S
C1380 C1381 1.390 . S
C1381 C1380 1.390 . S
C1381 C1382 1.394 . S
C1381 C1387 1.465 . S
C1382 C1377 1.399 . S
C1382 C1381 1.394 . S
C1382 C1383 1.516 . S
C1383 C1382 1.516 . S
C1383 C1384 1.502 . S
C1383 C1385 1.561 . S
C1383 C1386 1.526 . S
C1384 H1368 0.959 . S
C1384 H1369 0.959 . S
C1384 H1370 0.961 . S
C1384 C1383 1.502 . S
C1385 H1371 0.960 . S
C1385 H1372 0.961 . S
C1385 H1373 0.959 . S
C1385 C1383 1.561 . S
C1386 C1383 1.526 . S
C1386 C1387 1.396 . S
C1386 C1391 1.390 . S
C1387 C1381 1.465 . S
C1387 C1386 1.396 . S
C1387 C1388 1.399 . S
C1388 H1374 0.929 . S
C1388 C1387 1.399 . S
C1388 C1389 1.385 . S
C1389 H1375 0.931 . S
C1389 C1388 1.385 . S
C1389 C1390 1.389 . S
C1390 C1389 1.389 . S
C1390 C1391 1.387 . S
C1391 H1376 0.930 . S
C1391 C1386 1.390 . S
C1391 C1390 1.387 . S
H1392 C1404 0.930 . S
H1393 C1406 0.930 1_554 S
H1394 C1407 0.930 1_554 S
H1395 C1411 0.959 . S
H1396 C1411 0.959 . S
H1397 C1411 0.961 . S
H1398 C1412 0.960 1_455 S
H1399 C1412 0.961 . S
H1400 C1412 0.959 1_455 S
H1401 C1415 0.929 1_554 S
H1402 C1416 0.931 . S
H1403 C1418 0.930 . S
C1404 H1392 0.930 . S
C1404 C1405 1.399 . S
C1404 C1409 1.399 1_455 S
C1405 C1404 1.399 . S
C1405 C1406 1.376 . S
C1406 H1393 0.930 1_556 S
C1406 C1405 1.376 . S
C1406 C1407 1.388 1_455 S
C1407 H1394 0.930 1_556 S
C1407 C1406 1.388 1_655 S
C1407 C1408 1.390 . S
C1408 C1407 1.390 . S
C1408 C1409 1.394 . S
C1408 C1414 1.465 . S
C1409 C1404 1.399 1_655 S
C1409 C1408 1.394 . S
C1409 C1410 1.516 . S
C1410 C1409 1.516 . S
C1410 C1411 1.502 . S
C1410 C1412 1.561 . S
C1410 C1413 1.526 . S
C1411 H1395 0.959 . S
C1411 H1396 0.959 . S
C1411 H1397 0.961 . S
C1411 C1410 1.502 . S
C1412 H1398 0.960 1_655 S
C1412 H1399 0.961 . S
C1412 H1400 0.959 1_655 S
C1412 C1410 1.561 . S
C1413 C1410 1.526 . S
C1413 C1414 1.396 . S
C1413 C1418 1.390 . S
C1414 C1408 1.465 . S
C1414 C1413 1.396 . S
C1414 C1415 1.399 . S
C1415 H1401 0.929 1_556 S
C1415 C1414 1.399 . S
C1415 C1416 1.385 . S
C1416 H1402 0.931 . S
C1416 C1415 1.385 . S
C1416 C1417 1.389 . S
C1417 C1416 1.389 . S
C1417 C1418 1.387 . S
C1418 H1403 0.930 . S
C1418 C1413 1.390 . S
C1418 C1417 1.387 . S
H1419 C1431 0.930 . S
H1420 C1433 0.930 . S
H1421 C1434 0.930 . S
H1422 C1438 0.959 . S
H1423 C1438 0.959 . S
H1424 C1438 0.961 . S
H1425 C1439 0.960 . S
H1426 C1439 0.961 . S
H1427 C1439 0.959 . S
H1428 C1442 0.929 . S
H1429 C1443 0.931 . S
H1430 C1445 0.930 . S
C1431 H1419 0.930 . S
C1431 C1432 1.399 . S
C1431 C1436 1.399 . S
C1432 C1431 1.399 . S
C1432 C1433 1.376 . S
C1433 H1420 0.930 . S
C1433 C1432 1.376 . S
C1433 C1434 1.388 . S
C1434 H1421 0.930 . S
C1434 C1433 1.388 . S
C1434 C1435 1.390 . S
C1435 C1434 1.390 . S
C1435 C1436 1.394 . S
C1435 C1441 1.465 . S
C1436 C1431 1.399 . S
C1436 C1435 1.394 . S
C1436 C1437 1.516 . S
C1437 C1436 1.516 . S
C1437 C1438 1.502 . S
C1437 C1439 1.561 . S
C1437 C1440 1.526 . S
C1438 H1422 0.959 . S
C1438 H1423 0.959 . S
C1438 H1424 0.961 . S
C1438 C1437 1.502 . S
C1439 H1425 0.960 . S
C1439 H1426 0.961 . S
C1439 H1427 0.959 . S
C1439 C1437 1.561 . S
C1440 C1437 1.526 . S
C1440 C1441 1.396 . S
C1440 C1445 1.390 . S
C1441 C1435 1.465 . S
C1441 C1440 1.396 . S
C1441 C1442 1.399 . S
C1442 H1428 0.929 . S
C1442 C1441 1.399 . S
C1442 C1443 1.385 . S
C1443 H1429 0.931 . S
C1443 C1442 1.385 . S
C1443 C1444 1.389 . S
C1444 C1443 1.389 . S
C1444 C1445 1.387 . S
C1445 H1430 0.930 . S
C1445 C1440 1.390 . S
C1445 C1444 1.387 . S
H1446 C1458 0.930 . S
H1447 C1460 0.930 . S
H1448 C1461 0.930 . S
H1449 C1465 0.959 . S
H1450 C1465 0.959 . S
H1451 C1465 0.961 . S
H1452 C1466 0.960 . S
H1453 C1466 0.961 . S
H1454 C1466 0.959 . S
H1455 C1469 0.929 . S
H1456 C1470 0.931 . S
H1457 C1472 0.930 . S
C1458 H1446 0.930 . S
C1458 C1459 1.399 . S
C1458 C1463 1.399 . S
C1459 C1458 1.399 . S
C1459 C1460 1.376 . S
C1460 H1447 0.930 . S
C1460 C1459 1.376 . S
C1460 C1461 1.388 . S
C1461 H1448 0.930 . S
C1461 C1460 1.388 . S
C1461 C1462 1.390 . S
C1462 C1461 1.390 . S
C1462 C1463 1.394 . S
C1462 C1468 1.465 . S
C1463 C1458 1.399 . S
C1463 C1462 1.394 . S
C1463 C1464 1.516 . S
C1464 C1463 1.516 . S
C1464 C1465 1.502 . S
C1464 C1466 1.561 . S
C1464 C1467 1.526 . S
C1465 H1449 0.959 . S
C1465 H1450 0.959 . S
C1465 H1451 0.961 . S
C1465 C1464 1.502 . S
C1466 H1452 0.960 . S
C1466 H1453 0.961 . S
C1466 H1454 0.959 . S
C1466 C1464 1.561 . S
C1467 C1464 1.526 . S
C1467 C1468 1.396 . S
C1467 C1472 1.390 . S
C1468 C1462 1.465 . S
C1468 C1467 1.396 . S
C1468 C1469 1.399 . S
C1469 H1455 0.929 . S
C1469 C1468 1.399 . S
C1469 C1470 1.385 . S
C1470 H1456 0.931 . S
C1470 C1469 1.385 . S
C1470 C1471 1.389 . S
C1471 C1470 1.389 . S
C1471 C1472 1.387 . S
C1472 H1457 0.930 . S
C1472 C1467 1.390 . S
C1472 C1471 1.387 . S
H1473 C1485 0.930 . S
H1474 C1487 0.930 . S
H1475 C1488 0.930 . S
H1476 C1492 0.959 . S
H1477 C1492 0.959 . S
H1478 C1492 0.961 . S
H1479 C1493 0.960 . S
H1480 C1493 0.961 . S
H1481 C1493 0.959 . S
H1482 C1496 0.929 . S
H1483 C1497 0.931 . S
H1484 C1499 0.930 . S
C1485 H1473 0.930 . S
C1485 C1486 1.399 . S
C1485 C1490 1.399 . S
C1486 C1485 1.399 . S
C1486 C1487 1.376 . S
C1487 H1474 0.930 . S
C1487 C1486 1.376 . S
C1487 C1488 1.388 . S
C1488 H1475 0.930 . S
C1488 C1487 1.388 . S
C1488 C1489 1.390 . S
C1489 C1488 1.390 . S
C1489 C1490 1.394 . S
C1489 C1495 1.465 . S
C1490 C1485 1.399 . S
C1490 C1489 1.394 . S
C1490 C1491 1.516 . S
C1491 C1490 1.516 . S
C1491 C1492 1.502 . S
C1491 C1493 1.561 1_554 S
C1491 C1494 1.526 . S
C1492 H1476 0.959 . S
C1492 H1477 0.959 . S
C1492 H1478 0.961 . S
C1492 C1491 1.502 . S
C1493 H1479 0.960 . S
C1493 H1480 0.961 . S
C1493 H1481 0.959 . S
C1493 C1491 1.561 1_556 S
C1494 C1491 1.526 . S
C1494 C1495 1.396 . S
C1494 C1499 1.390 . S
C1495 C1489 1.465 . S
C1495 C1494 1.396 . S
C1495 C1496 1.399 . S
C1496 H1482 0.929 . S
C1496 C1495 1.399 . S
C1496 C1497 1.385 . S
C1497 H1483 0.931 . S
C1497 C1496 1.385 . S
C1497 C1498 1.389 . S
C1498 C1497 1.389 . S
C1498 C1499 1.387 . S
C1499 H1484 0.930 . S
C1499 C1494 1.390 . S
C1499 C1498 1.387 . S
H1500 C1512 0.930 . S
H1501 C1514 0.930 . S
H1502 C1515 0.930 . S
H1503 C1519 0.959 1_554 S
H1504 C1519 0.959 . S
H1505 C1519 0.961 . S
H1506 C1520 0.960 . S
H1507 C1520 0.961 . S
H1508 C1520 0.959 1_554 S
H1509 C1523 0.929 . S
H1510 C1524 0.931 . S
H1511 C1526 0.930 . S
C1512 H1500 0.930 . S
C1512 C1513 1.399 . S
C1512 C1517 1.399 . S
C1513 C1512 1.399 . S
C1513 C1514 1.376 . S
C1514 H1501 0.930 . S
C1514 C1513 1.376 . S
C1514 C1515 1.388 . S
C1515 H1502 0.930 . S
C1515 C1514 1.388 . S
C1515 C1516 1.390 . S
C1516 C1515 1.390 . S
C1516 C1517 1.394 . S
C1516 C1522 1.465 . S
C1517 C1512 1.399 . S
C1517 C1516 1.394 . S
C1517 C1518 1.516 . S
C1518 C1517 1.516 . S
C1518 C1519 1.502 1_554 S
C1518 C1520 1.561 1_554 S
C1518 C1521 1.526 . S
C1519 H1503 0.959 1_556 S
C1519 H1504 0.959 . S
C1519 H1505 0.961 . S
C1519 C1518 1.502 1_556 S
C1520 H1506 0.960 . S
C1520 H1507 0.961 . S
C1520 H1508 0.959 1_556 S
C1520 C1518 1.561 1_556 S
C1521 C1518 1.526 . S
C1521 C1522 1.396 . S
C1521 C1526 1.390 1_655 S
C1522 C1516 1.465 . S
C1522 C1521 1.396 . S
C1522 C1523 1.399 1_655 S
C1523 H1509 0.929 . S
C1523 C1522 1.399 1_455 S
C1523 C1524 1.385 . S
C1524 H1510 0.931 . S
C1524 C1523 1.385 . S
C1524 C1525 1.389 . S
C1525 C1524 1.389 . S
C1525 C1526 1.387 . S
C1526 H1511 0.930 . S
C1526 C1521 1.390 1_455 S
C1526 C1525 1.387 . S
H1527 C1539 0.930 . S
H1528 C1541 0.930 . S
H1529 C1542 0.930 . S
H1530 C1546 0.959 1_556 S
H1531 C1546 0.959 . S
H1532 C1546 0.961 . S
H1533 C1547 0.960 1_554 S
H1534 C1547 0.961 1_554 S
H1535 C1547 0.959 . S
H1536 C1550 0.929 . S
H1537 C1551 0.931 . S
H1538 C1553 0.930 . S
C1539 H1527 0.930 . S
C1539 C1540 1.399 . S
C1539 C1544 1.399 . S
C1540 C1539 1.399 . S
C1540 C1541 1.376 . S
C1541 H1528 0.930 . S
C1541 C1540 1.376 . S
C1541 C1542 1.388 . S
C1542 H1529 0.930 . S
C1542 C1541 1.388 . S
C1542 C1543 1.390 . S
C1543 C1542 1.390 . S
C1543 C1544 1.394 . S
C1543 C1549 1.465 . S
C1544 C1539 1.399 . S
C1544 C1543 1.394 . S
C1544 C1545 1.516 . S
C1545 C1544 1.516 . S
C1545 C1546 1.502 1_556 S
C1545 C1547 1.561 . S
C1545 C1548 1.526 . S
C1546 H1530 0.959 1_554 S
C1546 H1531 0.959 . S
C1546 H1532 0.961 . S
C1546 C1545 1.502 1_554 S
C1547 H1533 0.960 1_556 S
C1547 H1534 0.961 1_556 S
C1547 H1535 0.959 . S
C1547 C1545 1.561 . S
C1548 C1545 1.526 . S
C1548 C1549 1.396 . S
C1548 C1553 1.390 . S
C1549 C1543 1.465 . S
C1549 C1548 1.396 . S
C1549 C1550 1.399 . S
C1550 H1536 0.929 . S
C1550 C1549 1.399 . S
C1550 C1551 1.385 . S
C1551 H1537 0.931 . S
C1551 C1550 1.385 . S
C1551 C1552 1.389 . S
C1552 C1551 1.389 . S
C1552 C1553 1.387 . S
C1553 H1538 0.930 . S
C1553 C1548 1.390 . S
C1553 C1552 1.387 . S
H1554 C1566 0.930 . S
H1555 C1568 0.930 . S
H1556 C1569 0.930 . S
H1557 C1573 0.959 . S
H1558 C1573 0.959 . S
H1559 C1573 0.961 . S
H1560 C1574 0.960 . S
H1561 C1574 0.961 . S
H1562 C1574 0.959 . S
H1563 C1577 0.929 . S
H1564 C1578 0.931 . S
H1565 C1580 0.930 . S
C1566 H1554 0.930 . S
C1566 C1567 1.399 . S
C1566 C1571 1.399 . S
C1567 C1566 1.399 . S
C1567 C1568 1.376 . S
C1568 H1555 0.930 . S
C1568 C1567 1.376 . S
C1568 C1569 1.388 . S
C1569 H1556 0.930 . S
C1569 C1568 1.388 . S
C1569 C1570 1.390 . S
C1570 C1569 1.390 . S
C1570 C1571 1.394 . S
C1570 C1576 1.465 . S
C1571 C1566 1.399 . S
C1571 C1570 1.394 . S
C1571 C1572 1.516 . S
C1572 C1571 1.516 . S
C1572 C1573 1.502 . S
C1572 C1574 1.561 . S
C1572 C1575 1.526 . S
C1573 H1557 0.959 . S
C1573 H1558 0.959 . S
C1573 H1559 0.961 . S
C1573 C1572 1.502 . S
C1574 H1560 0.960 . S
C1574 H1561 0.961 . S
C1574 H1562 0.959 . S
C1574 C1572 1.561 . S
C1575 C1572 1.526 . S
C1575 C1576 1.396 . S
C1575 C1580 1.390 . S
C1576 C1570 1.465 . S
C1576 C1575 1.396 . S
C1576 C1577 1.399 . S
C1577 H1563 0.929 . S
C1577 C1576 1.399 . S
C1577 C1578 1.385 . S
C1578 H1564 0.931 . S
C1578 C1577 1.385 . S
C1578 C1579 1.389 . S
C1579 C1578 1.389 . S
C1579 C1580 1.387 . S
C1580 H1565 0.930 . S
C1580 C1575 1.390 . S
C1580 C1579 1.387 . S
H1581 C1593 0.930 . S
H1582 C1595 0.930 . S
H1583 C1596 0.930 . S
H1584 C1600 0.959 . S
H1585 C1600 0.959 . S
H1586 C1600 0.961 . S
H1587 C1601 0.960 . S
H1588 C1601 0.961 . S
H1589 C1601 0.959 . S
H1590 C1604 0.929 . S
H1591 C1605 0.931 . S
H1592 C1607 0.930 . S
C1593 H1581 0.930 . S
C1593 C1594 1.399 . S
C1593 C1598 1.399 . S
C1594 C1593 1.399 . S
C1594 C1595 1.376 . S
C1595 H1582 0.930 . S
C1595 C1594 1.376 . S
C1595 C1596 1.388 . S
C1596 H1583 0.930 . S
C1596 C1595 1.388 . S
C1596 C1597 1.390 . S
C1597 C1596 1.390 . S
C1597 C1598 1.394 . S
C1597 C1603 1.465 . S
C1598 C1593 1.399 . S
C1598 C1597 1.394 . S
C1598 C1599 1.516 . S
C1599 C1598 1.516 . S
C1599 C1600 1.502 . S
C1599 C1601 1.561 . S
C1599 C1602 1.526 . S
C1600 H1584 0.959 . S
C1600 H1585 0.959 . S
C1600 H1586 0.961 . S
C1600 C1599 1.502 . S
C1601 H1587 0.960 . S
C1601 H1588 0.961 . S
C1601 H1589 0.959 . S
C1601 C1599 1.561 . S
C1602 C1599 1.526 . S
C1602 C1603 1.396 . S
C1602 C1607 1.390 . S
C1603 C1597 1.465 . S
C1603 C1602 1.396 . S
C1603 C1604 1.399 . S
C1604 H1590 0.929 . S
C1604 C1603 1.399 . S
C1604 C1605 1.385 . S
C1605 H1591 0.931 . S
C1605 C1604 1.385 . S
C1605 C1606 1.389 . S
C1606 C1605 1.389 . S
C1606 C1607 1.387 . S
C1607 H1592 0.930 . S
C1607 C1602 1.390 . S
C1607 C1606 1.387 . S
C541 N13 1.444 . S
C553 N2 1.413 . S
C568 N46 1.465 . S
C580 N35 1.404 . S
C595 N79 1.444 . S
C607 N68 1.413 . S
C622 N112 1.403 . S
C634 N101 1.459 . S
C649 N145 1.428 . S
C661 N134 1.448 . S
C676 N178 1.403 . S
C688 N167 1.459 . S
C703 N211 1.425 . S
C715 N200 1.451 . S
C730 N233 1.416 . S
C742 N244 1.440 . S
C757 N266 1.415 . S
C769 N277 1.441 . S
C784 N310 1.457 . S
C796 N299 1.417 . S
C811 N343 1.403 . S
C823 N332 1.459 . S
C838 N365 1.443 . S
C850 N376 1.434 . S
C865 N398 1.462 . S
C877 N409 1.403 . S
C892 N442 1.440 . S
C904 N431 1.416 . S
C919 N464 1.463 . S
C931 N475 1.402 . S
C946 N508 1.424 . S
C958 N497 1.451 . S
C973 C18 1.067 . S
C985 C150 1.083 . S
C1000 C183 1.083 . S
C1012 C51 1.068 . S
C1027 C216 1.059 . S
C1039 C84 1.087 . S
C1054 C117 1.086 . S
C1066 C249 1.064 . S
C1081 C348 1.060 . S
C1093 C282 1.080 . S
C1108 C315 1.087 . S
C1120 C381 1.062 . S
C1135 C414 1.063 . S
C1147 C480 1.085 . S
C1162 C447 1.061 . S
C1174 C513 1.086 . S
C1189 C304 1.450 . S
C1201 C7 1.435 . S
C1216 C469 1.447 . S
C1228 C40 1.429 . S
C1243 C73 1.448 . S
C1255 C271 1.432 . S
C1270 C502 1.406 . S
C1282 C106 1.409 . S
C1297 C337 1.451 . S
C1309 C139 1.437 . S
C1324 C436 1.453 . S
C1336 C172 1.449 . S
C1351 C205 1.409 . S
C1363 C370 1.425 . S
C1378 C238 1.407 . S
C1390 C403 1.422 . S
C1405 C153 1.445 . S
C1417 C120 1.445 . S
C1432 C417 1.461 . S
C1444 C285 1.462 . S
C1459 C54 1.442 . S
C1471 C219 1.441 . S
C1486 C450 1.467 . S
C1498 C318 1.467 . S
C1513 C186 1.443 . S
C1525 C21 1.442 . S
C1540 C351 1.447 . S
C1552 C516 1.447 . S
C1567 C252 1.443 . S
C1579 C87 1.443 . S
C1594 C483 1.435 . S
C1606 C384 1.435 . S
