# Generated by pormake.
# Topology wkj, (6)-cn, num edge types: 1
# Building blocks:
#     Node 0, Type 0, BuildingBlock: KUMBUR_clean_sbu_0, # of connection points: 6
#     Node 1, Type 0, BuildingBlock: KUMBUR_clean_sbu_0, # of connection points: 6
#     Node 2, Type 0, BuildingBlock: KUMBUR_clean_sbu_0, # of connection points: 6
#     Node 3, Type 0, BuildingBlock: KUMBUR_clean_sbu_0, # of connection points: 6
#     Node 4, Type 0, BuildingBlock: KUMBUR_clean_sbu_0, # of connection points: 6
#     Node 5, Type 0, BuildingBlock: KUMBUR_clean_sbu_0, # of connection points: 6
#     Node 6, Type 0, BuildingBlock: KUMBUR_clean_sbu_0, # of connection points: 6
#     Node 7, Type 0, BuildingBlock: KUMBUR_clean_sbu_0, # of connection points: 6
#     Node 8, Type 0, BuildingBlock: KUMBUR_clean_sbu_0, # of connection points: 6
#     Node 9, Type 0, BuildingBlock: KUMBUR_clean_sbu_0, # of connection points: 6
#     Node 10, Type 0, BuildingBlock: KUMBUR_clean_sbu_0, # of connection points: 6
#     Node 11, Type 0, BuildingBlock: KUMBUR_clean_sbu_0, # of connection points: 6
#     Edge 12, Type (0, 0), BuildingBlock: UVAHIK_clean_linker_0, # of connection points: 2
#     Edge 13, Type (0, 0), BuildingBlock: UVAHIK_clean_linker_0, # of connection points: 2
#     Edge 14, Type (0, 0), BuildingBlock: UVAHIK_clean_linker_0, # of connection points: 2
#     Edge 15, Type (0, 0), BuildingBlock: UVAHIK_clean_linker_0, # of connection points: 2
#     Edge 16, Type (0, 0), BuildingBlock: UVAHIK_clean_linker_0, # of connection points: 2
#     Edge 17, Type (0, 0), BuildingBlock: UVAHIK_clean_linker_0, # of connection points: 2
#     Edge 18, Type (0, 0), BuildingBlock: UVAHIK_clean_linker_0, # of connection points: 2
#     Edge 19, Type (0, 0), BuildingBlock: UVAHIK_clean_linker_0, # of connection points: 2
#     Edge 20, Type (0, 0), BuildingBlock: UVAHIK_clean_linker_0, # of connection points: 2
#     Edge 21, Type (0, 0), BuildingBlock: UVAHIK_clean_linker_0, # of connection points: 2
#     Edge 22, Type (0, 0), BuildingBlock: UVAHIK_clean_linker_0, # of connection points: 2
#     Edge 23, Type (0, 0), BuildingBlock: UVAHIK_clean_linker_0, # of connection points: 2
#     Edge 24, Type (0, 0), BuildingBlock: UVAHIK_clean_linker_0, # of connection points: 2
#     Edge 25, Type (0, 0), BuildingBlock: UVAHIK_clean_linker_0, # of connection points: 2
#     Edge 26, Type (0, 0), BuildingBlock: UVAHIK_clean_linker_0, # of connection points: 2
#     Edge 27, Type (0, 0), BuildingBlock: UVAHIK_clean_linker_0, # of connection points: 2
#     Edge 28, Type (0, 0), BuildingBlock: UVAHIK_clean_linker_0, # of connection points: 2
#     Edge 29, Type (0, 0), BuildingBlock: UVAHIK_clean_linker_0, # of connection points: 2
#     Edge 30, Type (0, 0), BuildingBlock: UVAHIK_clean_linker_0, # of connection points: 2
#     Edge 31, Type (0, 0), BuildingBlock: UVAHIK_clean_linker_0, # of connection points: 2
#     Edge 32, Type (0, 0), BuildingBlock: UVAHIK_clean_linker_0, # of connection points: 2
#     Edge 33, Type (0, 0), BuildingBlock: UVAHIK_clean_linker_0, # of connection points: 2
#     Edge 34, Type (0, 0), BuildingBlock: UVAHIK_clean_linker_0, # of connection points: 2
#     Edge 35, Type (0, 0), BuildingBlock: UVAHIK_clean_linker_0, # of connection points: 2
#     Edge 36, Type (0, 0), BuildingBlock: UVAHIK_clean_linker_0, # of connection points: 2
#     Edge 37, Type (0, 0), BuildingBlock: UVAHIK_clean_linker_0, # of connection points: 2
#     Edge 38, Type (0, 0), BuildingBlock: UVAHIK_clean_linker_0, # of connection points: 2
#     Edge 39, Type (0, 0), BuildingBlock: UVAHIK_clean_linker_0, # of connection points: 2
#     Edge 40, Type (0, 0), BuildingBlock: UVAHIK_clean_linker_0, # of connection points: 2
#     Edge 41, Type (0, 0), BuildingBlock: UVAHIK_clean_linker_0, # of connection points: 2
#     Edge 42, Type (0, 0), BuildingBlock: UVAHIK_clean_linker_0, # of connection points: 2
#     Edge 43, Type (0, 0), BuildingBlock: UVAHIK_clean_linker_0, # of connection points: 2
#     Edge 44, Type (0, 0), BuildingBlock: UVAHIK_clean_linker_0, # of connection points: 2
#     Edge 45, Type (0, 0), BuildingBlock: UVAHIK_clean_linker_0, # of connection points: 2
#     Edge 46, Type (0, 0), BuildingBlock: UVAHIK_clean_linker_0, # of connection points: 2
#     Edge 47, Type (0, 0), BuildingBlock: UVAHIK_clean_linker_0, # of connection points: 2
# Relax obj value: 0.446
# Max RMSD: 0.214
# Mean RMSD: 0.214
data_MOF--net-wkj--node1-KUMBUR_clean_sbu_0--edge1-UVAHIK_clean_linker_0
_symmetry_space_group_name_H-M    P1
_symmetry_Int_Tables_number       1
_symmetry_cell_setting            triclinic
loop_
_symmetry_equiv_pos_as_xyz
'x, y, z'
_cell_length_a     63.714368
_cell_length_b     63.777416
_cell_length_c     37.862538
_cell_angle_alpha  90.328499
_cell_angle_beta   89.751631
_cell_angle_gamma 119.88389
loop_
_atom_site_label
_atom_site_type_symbol
_atom_site_fract_x
_atom_site_fract_y
_atom_site_fract_z
_atom_type_partial_charge
Tb0 Tb 0.46982 0.08951 0.321 0.0
C1 C 0.5578 0.08332 0.34927 0.0
C2 C 0.58271 0.1153 0.39069 0.0
C3 C 0.58685 0.07947 0.38613 0.0
C4 C 0.56475 0.10578 0.3643 0.0
C5 C 0.56847 0.06975 0.36054 0.0
C6 C 0.59397 0.10219 0.40112 0.0
C7 C 0.54096 0.03729 0.32218 0.0
N8 N 0.53937 0.07414 0.3254 0.0
C9 C 0.53078 0.0513 0.31188 0.0
C10 C 0.55997 0.04658 0.34641 0.0
Tb11 Tb 0.52723 0.10095 0.30821 0.0
N12 N 0.55262 0.11741 0.35496 0.0
C13 C 0.55801 0.139 0.3702 0.0
C14 C 0.58828 0.13738 0.40653 0.0
C15 C 0.57585 0.14924 0.39629 0.0
H16 H 0.51567 0.04338 0.29391 0.0
H17 H 0.58003 0.16629 0.40842 0.0
H18 H 0.60784 0.10923 0.42131 0.0
H19 H 0.53407 0.01928 0.31147 0.0
H20 H 0.54872 0.14841 0.36178 0.0
H21 H 0.43862 0.99484 0.28349 0.0
H22 H 0.60194 0.14526 0.42697 0.0
H23 H 0.4684 0.13354 0.27213 0.0
H24 H 0.46467 0.03181 0.31445 0.0
H25 H 0.44774 0.13567 0.22021 0.0
H26 H 0.59536 0.06937 0.39498 0.0
H27 H 0.41062 0.99345 0.23791 0.0
H28 H 0.39615 0.01549 0.20052 0.0
H29 H 0.56766 0.03557 0.35447 0.0
H30 H 0.39965 0.05386 0.18201 0.0
N31 N 0.45068 0.05288 0.29016 0.0
C32 C 0.45198 0.0323 0.29649 0.0
C33 C 0.42173 0.01014 0.25224 0.0
C34 C 0.42172 0.03134 0.24356 0.0
C35 C 0.43741 0.01083 0.27811 0.0
C36 C 0.43685 0.05281 0.26268 0.0
H37 H 0.41955 0.09853 0.18799 0.0
N38 N 0.45555 0.09545 0.26836 0.0
C39 C 0.4455 0.11842 0.22833 0.0
C40 C 0.43943 0.07469 0.25147 0.0
C41 C 0.45803 0.1171 0.25759 0.0
C42 C 0.42942 0.09742 0.21048 0.0
C43 C 0.42606 0.07522 0.22202 0.0
O44 O 0.45034 0.10736 0.33316 0.0
O45 O 0.50521 0.10502 0.34842 0.0
O46 O 0.5107 0.07319 0.35148 0.0
O47 O 0.46976 0.06173 0.35312 0.0
O48 O 0.47818 0.09889 0.3793 0.0
O49 O 0.43365 0.06862 0.33647 0.0
O50 O 0.55441 0.1026 0.2742 0.0
O51 O 0.49362 0.08958 0.27663 0.0
O52 O 0.49011 0.12877 0.31668 0.0
O53 O 0.5253 0.13422 0.29099 0.0
O54 O 0.51399 0.07453 0.26412 0.0
O55 O 0.55733 0.13485 0.29817 0.0
C56 C 0.5012 0.10667 0.38239 0.0
C57 C 0.42207 0.08811 0.37899 0.0
C58 C 0.40908 0.07034 0.43732 0.0
C59 C 0.41779 0.07006 0.40349 0.0
C60 C 0.40507 0.08931 0.44713 0.0
C61 C 0.41764 0.10682 0.38876 0.0
C62 C 0.40927 0.10744 0.42279 0.0
C63 C 0.48826 0.05968 0.36418 0.0
C64 C 0.43149 0.08747 0.34365 0.0
C65 C 0.41005 0.0537 0.20448 0.0
C66 C 0.40795 0.03184 0.21514 0.0
C67 C 0.49446 0.07394 0.25431 0.0
C68 C 0.58281 0.1407 0.24888 0.0
C69 C 0.58254 0.16157 0.23764 0.0
C70 C 0.60034 0.17764 0.21417 0.0
C71 C 0.618 0.17245 0.20137 0.0
C72 C 0.60044 0.13571 0.23553 0.0
C73 C 0.61788 0.15147 0.21179 0.0
C74 C 0.51044 0.14263 0.29979 0.0
C75 C 0.56772 0.12595 0.27833 0.0
H76 H 0.4215 0.05572 0.39647 0.0
H77 H 0.39839 0.0899 0.47326 0.0
H78 H 0.4208 0.12098 0.37022 0.0
H79 H 0.40597 0.12195 0.43027 0.0
H80 H 0.56911 0.16574 0.24783 0.0
H81 H 0.63165 0.18448 0.18281 0.0
H82 H 0.60118 0.11995 0.24435 0.0
H83 H 0.63153 0.14759 0.2018 0.0
Tb84 Tb 0.38177 0.4728 0.64819 0.0
C85 C 0.46981 0.56727 0.67686 0.0
C86 C 0.45662 0.5931 0.70459 0.0
C87 C 0.49795 0.60157 0.71271 0.0
C88 C 0.45168 0.57262 0.684 0.0
C89 C 0.49316 0.58165 0.69123 0.0
C90 C 0.47978 0.60741 0.71912 0.0
C91 C 0.50581 0.55658 0.66034 0.0
N92 N 0.46461 0.54812 0.6555 0.0
C93 C 0.48257 0.54318 0.64608 0.0
C94 C 0.51111 0.57584 0.68313 0.0
Tb95 Tb 0.42619 0.52892 0.63197 0.0
N96 N 0.42921 0.55783 0.6707 0.0
C97 C 0.41088 0.56271 0.67671 0.0
C98 C 0.43805 0.59846 0.71016 0.0
C99 C 0.41509 0.58319 0.69613 0.0
H100 H 0.47892 0.52844 0.62839 0.0
H101 H 0.40057 0.58708 0.7005 0.0
H102 H 0.48383 0.62301 0.73535 0.0
H103 H 0.51967 0.55216 0.6535 0.0
H104 H 0.39309 0.55118 0.66608 0.0
H105 H 0.44114 0.4341 0.62121 0.0
H106 H 0.44117 0.61411 0.72559 0.0
H107 H 0.34031 0.47318 0.59199 0.0
H108 H 0.43339 0.4646 0.64422 0.0
H109 H 0.31575 0.44903 0.54336 0.0
H110 H 0.51574 0.61278 0.72405 0.0
H111 H 0.41226 0.40272 0.58074 0.0
H112 H 0.37517 0.387 0.5441 0.0
H113 H 0.5292 0.58634 0.69387 0.0
H114 H 0.34172 0.39173 0.52173 0.0
N115 N 0.39753 0.44998 0.62194 0.0
C116 C 0.41912 0.45066 0.62892 0.0
C117 C 0.40806 0.41591 0.59183 0.0
C118 C 0.38747 0.41662 0.58154 0.0
C119 C 0.42431 0.43349 0.61475 0.0
C120 C 0.38287 0.43434 0.59659 0.0
H121 H 0.32034 0.41537 0.52005 0.0
N122 N 0.36184 0.45608 0.59579 0.0
C123 C 0.32954 0.44569 0.55404 0.0
C124 C 0.3644 0.43743 0.58327 0.0
C125 C 0.34434 0.46003 0.58156 0.0
C126 C 0.332 0.42658 0.54122 0.0
C127 C 0.34957 0.42225 0.55567 0.0
O128 O 0.34445 0.45673 0.65831 0.0
O129 O 0.40043 0.50892 0.67445 0.0
O130 O 0.43961 0.51515 0.67505 0.0
O131 O 0.41086 0.47435 0.67962 0.0
O132 O 0.38471 0.4811 0.70656 0.0
O133 O 0.36357 0.43754 0.66839 0.0
O134 O 0.45183 0.54845 0.59255 0.0
O135 O 0.40443 0.49421 0.60179 0.0
O136 O 0.36235 0.49305 0.64262 0.0
O137 O 0.39097 0.52658 0.61348 0.0
O138 O 0.44084 0.51072 0.59861 0.0
O139 O 0.42531 0.55811 0.60831 0.0
C140 C 0.39729 0.50451 0.70909 0.0
C141 C 0.33369 0.4333 0.7095 0.0
C142 C 0.33934 0.42921 0.772 0.0
C143 C 0.34711 0.43124 0.73702 0.0
C144 C 0.31787 0.42936 0.77977 0.0
C145 C 0.31198 0.43301 0.71732 0.0
C146 C 0.30416 0.43109 0.75237 0.0
C147 C 0.43192 0.49323 0.68839 0.0
C148 C 0.34358 0.43807 0.67339 0.0
C149 C 0.3531 0.40362 0.54259 0.0
C150 C 0.37206 0.40087 0.55542 0.0
C151 C 0.42195 0.49316 0.5845 0.0
C152 C 0.43532 0.56172 0.54798 0.0
C153 C 0.41904 0.56973 0.53943 0.0
C154 C 0.41159 0.56896 0.50447 0.0
C155 C 0.42104 0.56054 0.47778 0.0
C156 C 0.44467 0.55349 0.52093 0.0
C157 C 0.43753 0.55295 0.48603 0.0
C158 C 0.36802 0.51247 0.62382 0.0
C159 C 0.44178 0.56133 0.58518 0.0
H160 H 0.36408 0.43174 0.73151 0.0
H161 H 0.31152 0.42763 0.80675 0.0
H162 H 0.30138 0.43478 0.69646 0.0
H163 H 0.2875 0.43103 0.75831 0.0
H164 H 0.41176 0.57614 0.56008 0.0
H165 H 0.41602 0.56023 0.45041 0.0
H166 H 0.45734 0.54732 0.5267 0.0
H167 H 0.44478 0.54661 0.46531 0.0
Tb168 Tb 0.91028 0.38188 0.9832 0.0
C169 C 0.91408 0.47435 1.0148 0.0
C170 C 0.88079 0.46478 1.05511 0.0
C171 C 0.91574 0.50536 1.05428 0.0
C172 C 0.89148 0.45781 1.02824 0.0
C173 C 0.92655 0.49824 1.028 0.0
C174 C 0.89291 0.4887 1.06775 0.0
C175 C 0.95999 0.50605 0.9895 0.0
N176 N 0.92438 0.46656 0.99028 0.0
C177 C 0.947 0.48222 0.97713 0.0
C178 C 0.94973 0.51412 1.01496 0.0
Tb179 Tb 0.89942 0.4277 0.97044 0.0
N180 N 0.88095 0.43443 1.01707 0.0
C181 C 0.85923 0.41729 1.03061 0.0
C182 C 0.85864 0.44726 1.06937 0.0
C183 C 0.84784 0.42342 1.05709 0.0
H184 H 0.95557 0.47639 0.95793 0.0
H185 H 0.83072 0.40978 1.06797 0.0
H186 H 0.88501 0.49438 0.08845 0.0
H187 H 0.97799 0.51817 0.9795 0.0
H188 H 0.85064 0.39894 1.02069 0.0
H189 H 0.00699 0.44236 0.95096 0.0
H190 H 0.84989 0.45188 0.09015 0.0
H191 H 0.86691 0.34159 0.92767 0.0
H192 H 0.96936 0.43373 0.97751 0.0
H193 H 0.86506 0.31832 0.87609 0.0
H194 H 0.92505 0.52363 1.06475 0.0
H195 H 0.00856 0.41439 0.90736 0.0
H196 H 0.9863 0.37808 0.8692 0.0
H197 H 0.95994 0.53256 1.02462 0.0
H198 H 0.94759 0.34507 0.84756 0.0
N199 N 0.94793 0.39819 0.95446 0.0
C200 C 0.96882 0.41981 0.96104 0.0
C201 C 0.99154 0.40976 0.92014 0.0
C202 C 0.97008 0.3892 0.91028 0.0
C203 C 0.99074 0.4255 0.94482 0.0
C204 C 0.94825 0.38406 0.92755 0.0
H205 H 0.90257 0.3236 0.84877 0.0
N206 N 0.90555 0.36304 0.92923 0.0
C207 C 0.88247 0.33184 0.88636 0.0
C208 C 0.92637 0.36591 0.9146 0.0
C209 C 0.88373 0.34591 0.91554 0.0
C210 C 0.90363 0.33465 0.87129 0.0
C211 C 0.92592 0.35184 0.88523 0.0
O212 O 0.88901 0.34439 0.99065 0.0
O213 O 0.89525 0.40213 1.01138 0.0
O214 O 0.92838 0.43957 1.01157 0.0
O215 O 0.93865 0.40928 1.01561 0.0
O216 O 0.90383 0.3831 1.04229 0.0
O217 O 0.92732 0.36291 1.00064 0.0
O218 O 0.90013 0.45401 0.9361 0.0
O219 O 0.91058 0.40516 0.93841 0.0
O220 O 0.87061 0.36355 0.97972 0.0
O221 O 0.86569 0.39289 0.95257 0.0
O222 O 0.92751 0.44092 0.92877 0.0
O223 O 0.86646 0.42566 0.95812 0.0
C224 C 0.89514 0.39763 1.04564 0.0
C225 C 0.90161 0.33164 1.03964 0.0
C226 C 0.91088 0.33535 0.10225 0.0
C227 C 0.91684 0.34414 1.06787 0.0
C228 C 0.88932 0.31371 0.10875 0.0
C229 C 0.88022 0.3097 1.04607 0.0
C230 C 0.87413 0.30081 0.08056 0.0
C231 C 0.94173 0.43066 1.02484 0.0
C232 C 0.90678 0.34283 1.0045 0.0
C233 C 0.94766 0.35582 0.86988 0.0
C234 C 0.9697 0.37453 0.8823 0.0
C235 C 0.92739 0.42181 0.9178 0.0
C236 C 0.86331 0.44808 0.91029 0.0
C237 C 0.84109 0.42878 0.89856 0.0
C238 C 0.82648 0.43327 0.87573 0.0
C239 C 0.83447 0.45696 0.8641 0.0
C240 C 0.87106 0.47158 0.89817 0.0
C241 C 0.85673 0.47595 0.87508 0.0
C242 C 0.85674 0.36981 0.96234 0.0
C243 C 0.87687 0.44526 0.93924 0.0
H244 H 0.93328 0.36123 1.06343 0.0
H245 H 0.88453 0.30664 0.13531 0.0
H246 H 0.86802 0.29979 1.02461 0.0
H247 H 0.85755 0.284 0.08544 0.0
H248 H 0.83481 0.41056 0.90789 0.0
H249 H 0.82361 0.46069 0.84602 0.0
H250 H 0.8879 0.48672 0.9075 0.0
H251 H 0.86275 0.49415 0.86603 0.0
Tb252 Tb 0.51788 0.91441 0.31605 0.0
C253 C 0.42248 0.88247 0.35326 0.0
C254 C 0.41533 0.84834 0.38976 0.0
C255 C 0.39418 0.87031 0.40264 0.0
C256 C 0.42777 0.86443 0.36176 0.0
C257 C 0.40528 0.88526 0.37339 0.0
C258 C 0.39898 0.85173 0.41055 0.0
C259 C 0.40799 0.91458 0.33106 0.0
N260 N 0.43284 0.89611 0.32402 0.0
C261 C 0.42452 0.91086 0.31155 0.0
C262 C 0.39876 0.90215 0.36257 0.0
Tb263 Tb 0.45876 0.88694 0.29374 0.0
N264 N 0.44439 0.86206 0.342 0.0
C265 C 0.44865 0.84338 0.34836 0.0
C266 C 0.41967 0.82925 0.39611 0.0
C267 C 0.43641 0.82679 0.37531 0.0
H268 H 0.43101 0.92005 0.28658 0.0
H269 H 0.43991 0.81208 0.37999 0.0
H270 H 0.38969 0.83986 0.43256 0.0
H271 H 0.40212 0.92678 0.3215 0.0
H272 H 0.46105 0.84071 0.33248 0.0
H273 H 0.56789 0.91835 0.19879 0.0
H274 H 0.41036 0.81646 0.41718 0.0
H275 H 0.51154 0.88714 0.39363 0.0
H276 H 0.53764 0.92293 0.23441 0.0
H277 H 0.53271 0.86995 0.42634 0.0
H278 H 0.38113 0.87238 0.41851 0.0
H279 H 0.59182 0.90209 0.22697 0.0
H280 H 0.60111 0.88574 0.28173 0.0
H281 H 0.38572 0.90486 0.37742 0.0
H282 H 0.59193 0.87316 0.34394 0.0
N283 N 0.54262 0.90738 0.27995 0.0
C284 C 0.54679 0.91434 0.24556 0.0
C285 C 0.57804 0.90341 0.24206 0.0
C286 C 0.57386 0.8965 0.27758 0.0
C287 C 0.56442 0.91239 0.22598 0.0
C288 C 0.55591 0.89885 0.296 0.0
H289 H 0.56619 0.86691 0.39806 0.0
N290 N 0.53248 0.89356 0.34687 0.0
C291 C 0.53794 0.87604 0.39945 0.0
C292 C 0.55086 0.89196 0.33098 0.0
C293 C 0.52588 0.88574 0.38071 0.0
C294 C 0.55692 0.87443 0.38345 0.0
C295 C 0.56346 0.88225 0.34863 0.0
O296 O 0.53948 0.93938 0.35435 0.0
O297 O 0.48149 0.89367 0.34232 0.0
O298 O 0.46978 0.92297 0.31207 0.0
O299 O 0.51028 0.94258 0.2984 0.0
O300 O 0.50734 0.9222 0.36857 0.0
O301 O 0.55109 0.9447 0.30013 0.0
O302 O 0.4285 0.88079 0.26325 0.0
O303 O 0.49484 0.90853 0.26867 0.0
O304 O 0.50696 0.8757 0.3035 0.0
O305 O 0.47182 0.86284 0.27219 0.0
O306 O 0.46743 0.90816 0.2431 0.0
O307 O 0.43385 0.85125 0.27934 0.0
C308 C 0.48499 0.90601 0.3721 0.0
C309 C 0.58045 0.95243 0.34508 0.0
C310 C 0.60318 0.94923 0.3947 0.0
C311 C 0.58399 0.95169 0.3815 0.0
C312 C 0.61965 0.94839 0.37074 0.0
C313 C 0.59742 0.95219 0.32154 0.0
C314 C 0.61684 0.95006 0.3344 0.0
C315 C 0.49025 0.94288 0.30606 0.0
C316 C 0.55765 0.95086 0.33287 0.0
C317 C 0.58185 0.88037 0.33075 0.0
C318 C 0.58703 0.88747 0.29528 0.0
C319 C 0.49058 0.91717 0.23941 0.0
C320 C 0.40306 0.8421 0.23624 0.0
C321 C 0.40456 0.82246 0.22211 0.0
C322 C 0.38629 0.80577 0.19966 0.0
C323 C 0.36663 0.80904 0.19125 0.0
C324 C 0.38338 0.84513 0.22732 0.0
C325 C 0.3653 0.82869 0.2049 0.0
C326 C 0.48991 0.85961 0.2823 0.0
C327 C 0.41946 0.85748 0.26425 0.0
H328 H 0.57157 0.95305 0.39978 0.0
H329 H 0.63473 0.94661 0.38007 0.0
H330 H 0.59529 0.95286 0.29328 0.0
H331 H 0.62962 0.94945 0.3161 0.0
H332 H 0.41954 0.81983 0.22905 0.0
H333 H 0.35258 0.79671 0.17341 0.0
H334 H 0.38164 0.85987 0.23853 0.0
H335 H 0.35013 0.8311 0.19824 0.0
Tb336 Tb 0.61011 0.52984 0.64733 0.0
C337 C 0.53188 0.42631 0.66339 0.0
C338 C 0.55138 0.40902 0.69802 0.0
C339 C 0.50748 0.38857 0.69487 0.0
C340 C 0.55275 0.42763 0.6764 0.0
C341 C 0.50899 0.40679 0.67255 0.0
C342 C 0.52864 0.38958 0.70735 0.0
C343 C 0.49077 0.42375 0.63495 0.0
N344 N 0.53408 0.44394 0.64118 0.0
C345 C 0.51387 0.44247 0.62602 0.0
C346 C 0.4883 0.40588 0.65844 0.0
Tb347 Tb 0.57302 0.47198 0.62578 0.0
N348 N 0.57442 0.44704 0.66762 0.0
C349 C 0.5955 0.44885 0.67953 0.0
C350 C 0.57294 0.41068 0.70992 0.0
C351 C 0.59508 0.43074 0.70073 0.0
H352 H 0.51535 0.45582 0.60731 0.0
H353 H 0.61184 0.43227 0.70994 0.0
H354 H 0.52722 0.37526 0.72422 0.0
H355 H 0.4749 0.42295 0.62334 0.0
H356 H 0.61274 0.46406 0.67247 0.0
H357 H 0.57101 0.58833 0.66582 0.0
H358 H 0.57267 0.39676 0.7265 0.0
H359 H 0.64831 0.53221 0.58344 0.0
H360 H 0.58621 0.56167 0.68505 0.0
H361 H 0.66281 0.55107 0.52639 0.0
H362 H 0.49006 0.37343 0.7022 0.0
H363 H 0.57709 0.60262 0.60415 0.0
H364 H 0.59672 0.60586 0.54561 0.0
H365 H 0.47038 0.39124 0.66496 0.0
H366 H 0.62316 0.59708 0.50851 0.0
N367 N 0.59744 0.55731 0.6337 0.0
C368 C 0.58762 0.56638 0.65757 0.0
C369 C 0.583 0.5901 0.61219 0.0
C370 C 0.59561 0.58325 0.58894 0.0
C371 C 0.57949 0.58205 0.64695 0.0
C372 C 0.60275 0.56671 0.60062 0.0
H373 H 0.64861 0.57758 0.50174 0.0
N374 N 0.62378 0.54546 0.5916 0.0
C375 C 0.64962 0.55382 0.5407 0.0
C376 C 0.61711 0.56131 0.5794 0.0
C377 C 0.64071 0.54251 0.57321 0.0
C378 C 0.64174 0.5689 0.52701 0.0
C379 C 0.62544 0.57298 0.54646 0.0
O380 O 0.64714 0.54436 0.65886 0.0
O381 O 0.594 0.49365 0.67296 0.0
O382 O 0.55098 0.47876 0.66249 0.0
O383 O 0.57311 0.52058 0.66445 0.0
O384 O 0.60027 0.52151 0.70415 0.0
O385 O 0.62932 0.56448 0.67022 0.0
O386 O 0.55621 0.45416 0.57839 0.0
O387 O 0.59138 0.50817 0.59932 0.0
O388 O 0.63461 0.51451 0.64123 0.0
O389 O 0.61034 0.48003 0.61004 0.0
O390 O 0.55521 0.48738 0.59288 0.0
O391 O 0.57937 0.44465 0.60694 0.0
C392 C 0.59183 0.49845 0.70691 0.0
C393 C 0.6588 0.56763 0.71051 0.0
C394 C 0.65222 0.56587 0.77413 0.0
C395 C 0.64375 0.56405 0.73958 0.0
C396 C 0.67649 0.57208 0.77942 0.0
C397 C 0.68294 0.57383 0.71609 0.0
C398 C 0.69176 0.57617 0.75049 0.0
C399 C 0.55362 0.49974 0.67257 0.0
C400 C 0.64885 0.56326 0.67458 0.0
C401 C 0.6174 0.58847 0.53406 0.0
C402 C 0.60229 0.59339 0.55512 0.0
C403 C 0.57312 0.50736 0.58182 0.0
C404 C 0.58173 0.44404 0.54561 0.0
C405 C 0.58983 0.42743 0.5407 0.0
C406 C 0.60342 0.42854 0.51071 0.0
C407 C 0.60943 0.44728 0.48616 0.0
C408 C 0.5881 0.46267 0.52106 0.0
C409 C 0.60198 0.46428 0.49155 0.0
C410 C 0.63208 0.49602 0.62198 0.0
C411 C 0.56788 0.44225 0.57765 0.0
H412 H 0.62518 0.55947 0.73533 0.0
H413 H 0.68378 0.5742 0.80581 0.0
H414 H 0.69484 0.57659 0.69392 0.0
H415 H 0.71044 0.58104 0.75474 0.0
H416 H 0.58547 0.41366 0.56051 0.0
H417 H 0.61923 0.44849 0.46214 0.0
H418 H 0.58246 0.47598 0.52469 0.0
H419 H 0.60668 0.47854 0.47249 0.0
Tb420 Tb 0.08714 0.61119 0.98343 0.0
C421 C 0.11931 0.53989 0.99976 0.0
C422 C 0.15541 0.56304 1.03491 0.0
C423 C 0.13523 0.51919 1.03509 0.0
C424 C 0.13744 0.56199 1.012 0.0
C425 C 0.11799 0.51822 1.0112 0.0
C426 C 0.15404 0.54156 1.04664 0.0
C427 C 0.08391 0.49611 0.97234 0.0
N428 N 0.1036 0.53966 0.97549 0.0
C429 C 0.08621 0.518 0.96118 0.0
C430 C 0.0998 0.49621 0.99759 0.0
Tb431 Tb 0.1102 0.57709 0.95765 0.0
N432 N 0.13784 0.58243 1.00091 0.0
C433 C 0.15593 0.60455 1.01229 0.0
C434 C 0.1743 0.58566 1.04535 0.0
C435 C 0.17447 0.6065 1.03411 0.0
H436 H 0.07402 0.51773 0.94115 0.0
H437 H 0.18868 0.6241 1.0427 0.0
H438 H 0.16751 0.54205 1.06454 0.0
H439 H 0.06999 0.4792 0.96123 0.0
H440 H 0.1562 0.62098 1.00542 0.0
H441 H 0.9958 0.58167 1.02971 0.0
H442 H 0.18852 0.58721 1.06265 0.0
H443 H 0.11595 0.64291 0.90905 0.0
H444 H 0.03783 0.59071 1.03497 0.0
H445 H 0.10605 0.65873 0.85779 0.0
H446 H 0.13449 0.50275 1.0442 0.0
H447 H 0.98114 0.58896 0.97334 0.0
H448 H 0.99045 0.60542 0.91197 0.0
H449 H 0.09816 0.47922 1.00589 0.0
H450 H 0.02062 0.62696 0.86561 0.0
N451 N 0.04736 0.6025 0.9818 0.0
C452 C 0.03194 0.59419 1.01023 0.0
C453 C -0.00029 0.59286 0.97544 0.0
C454 C 0.0158 0.6028 0.94712 0.0
C455 C 0.00792 0.58884 1.0073 0.0
C456 C 0.03982 0.60749 0.95112 0.0
H457 H 0.0638 0.6481 0.84628 0.0
N458 N 0.07988 0.62412 0.93006 0.0
C459 C 0.09194 0.64753 0.87634 0.0
C460 C 0.05671 0.61913 0.92473 0.0
C461 C 0.09749 0.63846 0.90623 0.0
C462 C 0.06808 0.6414 0.86983 0.0
C463 C 0.05012 0.62707 0.89408 0.0
O464 O 0.11359 0.64153 1.01129 0.0
O465 O 0.10763 0.59471 1.008 0.0
O466 O 0.0773 0.55185 0.98453 0.0
O467 O 0.05776 0.57363 0.99358 0.0
O468 O 0.08039 0.5943 1.0364 0.0
O469 O 0.07853 0.63715 1.00235 0.0
O470 O 0.1184 0.55556 0.92445 0.0
O471 O 0.09007 0.5938 0.93376 0.0
O472 O 0.12471 0.63835 0.96702 0.0
O473 O 0.14018 0.6148 0.94688 0.0
O474 O 0.07783 0.55864 0.92283 0.0
O475 O 0.13679 0.5938 0.91804 0.0
C476 C 0.09672 0.58802 1.0395 0.0
C477 C 0.09744 0.65419 1.05656 0.0
C478 C 0.07718 0.639 0.11303 0.0
C479 C 0.07925 0.6361 0.0769 0.0
C480 C 0.09434 0.66062 0.12943 0.0
C481 C 0.11446 0.67578 0.0729 0.0
C482 C 0.1129 0.67894 0.10931 0.0
C483 C 0.05865 0.55337 0.99605 0.0
C484 C 0.09899 0.64956 1.01886 0.0
C485 C 0.02601 0.62134 0.88923 0.0
C486 C 0.00884 0.6091 0.91562 0.0
C487 C 0.07346 0.57569 0.91498 0.0
C488 C 0.15989 0.57455 0.90917 0.0
C489 C 0.17913 0.59269 0.8899 0.0
C490 C 0.20088 0.5923 0.8846 0.0
C491 C 0.20352 0.57418 0.90186 0.0
C492 C 0.16304 0.55675 0.92599 0.0
C493 C 0.1849 0.55689 0.92282 0.0
C494 C 0.14272 0.63647 0.95277 0.0
C495 C 0.13639 0.57389 0.90961 0.0
H496 H 0.0666 0.61943 1.06451 0.0
H497 H 0.09319 0.66352 0.1574 0.0
H498 H 0.12894 0.68999 1.05766 0.0
H499 H 0.12604 0.69562 0.12195 0.0
H500 H 0.17652 0.60664 0.8782 0.0
H501 H 0.21944 0.57248 0.89824 0.0
H502 H 0.14856 0.54247 0.94106 0.0
H503 H 0.18711 0.54297 0.93558 0.0
Tb504 Tb 0.91517 0.52948 0.49244 0.0
C505 C 0.89531 0.42943 0.46758 0.0
C506 C 0.86212 0.41502 0.42587 0.0
C507 C 0.8876 0.39663 0.42704 0.0
C508 C 0.87605 0.43086 0.45331 0.0
C509 C 0.90129 0.4123 0.45456 0.0
C510 C 0.86802 0.39794 0.41281 0.0
C511 C 0.93374 0.42711 0.49718 0.0
N512 N 0.90847 0.44516 0.49373 0.0
C513 C 0.92714 0.44377 0.50931 0.0
C514 C 0.92087 0.41141 0.46955 0.0
Tb515 Tb 0.89471 0.47055 0.51192 0.0
N516 N 0.87155 0.44836 0.46533 0.0
C517 C 0.85236 0.44996 0.45257 0.0
C518 C 0.84297 0.41714 0.41189 0.0
C519 C 0.838 0.43461 0.42543 0.0
H520 H 0.9373 0.45575 0.5307 0.0
H521 H 0.82309 0.43624 0.41503 0.0
H522 H 0.85766 0.38576 0.39154 0.0
H523 H 0.94878 0.42642 0.50915 0.0
H524 H 0.84819 0.46321 0.46312 0.0
H525 H 0.01213 0.57009 0.52367 0.0
H526 H 0.83192 0.40538 0.3907 0.0
H527 H 0.873 0.53945 0.53257 0.0
H528 H 0.97736 0.54887 0.48669 0.0
H529 H 0.86856 0.55673 0.58691 0.0
H530 H 0.89198 0.38342 0.4166 0.0
H531 H 0.0096 0.58799 0.57998 0.0
H532 H 0.98544 0.59716 0.62201 0.0
H533 H 0.92609 0.39857 0.46017 0.0
H534 H 0.94668 0.59346 0.63934 0.0
N535 N 0.95177 0.55034 0.52319 0.0
C536 C 0.97416 0.55445 0.512 0.0
C537 C 0.99339 0.57766 0.56432 0.0
C538 C 0.97131 0.57519 0.5748 0.0
C539 C 0.99483 0.56742 0.53269 0.0
C540 C 0.95048 0.56119 0.55373 0.0
H541 H 0.90319 0.57789 0.62728 0.0
N542 N 0.90843 0.54502 0.54387 0.0
C543 C 0.88529 0.55679 0.58151 0.0
C544 C 0.92833 0.55851 0.56421 0.0
C545 C 0.88763 0.54575 0.55102 0.0
C546 C 0.90492 0.56894 0.60395 0.0
C547 C 0.92695 0.5706 0.59497 0.0
O548 O 0.90071 0.55136 0.47746 0.0
O549 O 0.89716 0.49325 0.46704 0.0
O550 O 0.92573 0.48076 0.47656 0.0
O551 O 0.94132 0.52187 0.46703 0.0
O552 O 0.90966 0.52045 0.43412 0.0
O553 O 0.93873 0.56393 0.47166 0.0
O554 O 0.88891 0.44392 0.5496 0.0
O555 O 0.91226 0.50648 0.53956 0.0
O556 O 0.87498 0.51196 0.49478 0.0
O557 O 0.86725 0.48043 0.53114 0.0
O558 O 0.92426 0.48326 0.55114 0.0
O559 O 0.85867 0.44656 0.52704 0.0
C560 C 0.89896 0.49709 0.43239 0.0
C561 C 0.92014 0.57663 0.42962 0.0
C562 C 0.92421 0.57395 0.3661 0.0
C563 C 0.92836 0.56907 0.40056 0.0
C564 C 0.91282 0.58772 0.36087 0.0
C565 C 0.90894 0.59049 0.42417 0.0
C566 C 0.90552 0.5962 0.38987 0.0
C567 C 0.942 0.50167 0.46263 0.0
C568 C 0.92124 0.56838 0.46529 0.0
C569 C 0.94758 0.58432 0.61565 0.0
C570 C 0.96965 0.58649 0.60571 0.0
C571 C 0.92803 0.50438 0.55975 0.0
C572 C 0.84842 0.4137 0.56782 0.0
C573 C 0.82726 0.41245 0.58122 0.0
C574 C 0.80989 0.39161 0.59884 0.0
C575 C 0.8137 0.37175 0.60179 0.0
C576 C 0.85208 0.39391 0.57144 0.0
C577 C 0.83464 0.37294 0.58811 0.0
C578 C 0.86016 0.49483 0.51678 0.0
C579 C 0.86553 0.43466 0.54718 0.0
H580 H 0.93737 0.55871 0.40464 0.0
H581 H 0.90985 0.59214 0.33447 0.0
H582 H 0.9025 0.59653 0.44638 0.0
H583 H 0.89686 0.6069 0.38574 0.0
H584 H 0.82445 0.42778 0.57825 0.0
H585 H 0.80094 0.3556 0.61582 0.0
H586 H 0.86812 0.39446 0.56062 0.0
H587 H 0.83746 0.35763 0.59073 0.0
Tb588 Tb 0.38243 0.91925 0.82715 0.0
C589 C 0.46862 0.91181 0.79166 0.0
C590 C 0.45415 0.87321 0.76214 0.0
C591 C 0.49524 0.90582 0.7518 0.0
C592 C 0.45 0.88862 0.7844 0.0
C593 C 0.49148 0.92064 0.77551 0.0
C594 C 0.47671 0.88209 0.7454 0.0
C595 C 0.50595 0.95736 0.8097 0.0
N596 N 0.46452 0.92545 0.81537 0.0
C597 C 0.48319 0.94766 0.82566 0.0
C598 C 0.51008 0.94388 0.78432 0.0
Tb599 Tb 0.42681 0.90653 0.84125 0.0
N600 N 0.42817 0.8808 0.80026 0.0
C601 C 0.40992 0.85743 0.79573 0.0
C602 C 0.43568 0.84919 0.75795 0.0
C603 C 0.41353 0.84121 0.77509 0.0
H604 H 0.48035 0.95824 0.84546 0.0
H605 H 0.39913 0.82268 0.77202 0.0
H606 H 0.48009 0.87063 0.72781 0.0
H607 H 0.52037 0.97515 0.81723 0.0
H608 H 0.39276 0.85093 0.80874 0.0
H609 H 0.44148 0.01622 0.85939 0.0
H610 H 0.43829 0.83671 0.74151 0.0
H611 H 0.33803 0.87553 0.87752 0.0
H612 H 0.43233 0.9798 0.82943 0.0
H613 H 0.31569 0.87299 0.93025 0.0
H614 H 0.51264 0.91233 0.739 0.0
H615 H 0.41525 0.01645 0.90698 0.0
H616 H 0.38005 0.99358 0.94631 0.0
H617 H 0.52783 0.95134 0.77231 0.0
H618 H 0.34673 0.95477 0.96657 0.0
N619 N 0.39844 0.95672 0.8565 0.0
C620 C 0.41921 0.97817 0.84855 0.0
C621 C 0.41042 -0.00029 0.89321 0.0
C622 C 0.3903 0.978 0.90321 0.0
C623 C 0.42519 -0.00035 0.86632 0.0
C624 C 0.38483 0.95648 0.88464 0.0
H625 H 0.32357 0.91006 0.96191 0.0
N626 N 0.3625 0.91375 0.88037 0.0
C627 C 0.3302 0.89039 0.92162 0.0
C628 C 0.36639 0.93443 0.89681 0.0
C629 C 0.34395 0.89195 0.89194 0.0
C630 C 0.33448 0.91132 0.9391 0.0
C631 C 0.35252 0.93367 0.92669 0.0
O632 O 0.34498 0.89998 0.81788 0.0
O633 O 0.40089 0.90179 0.79965 0.0
O634 O 0.44021 0.93483 0.79988 0.0
O635 O 0.41141 0.94693 0.79594 0.0
O636 O 0.38514 0.91427 0.76853 0.0
O637 O 0.36559 0.93822 0.80855 0.0
O638 O 0.45367 0.91172 0.8779 0.0
O639 O 0.40527 0.91927 0.87256 0.0
O640 O 0.36337 0.87952 0.83022 0.0
O641 O 0.39154 0.87461 0.86092 0.0
O642 O 0.44173 0.93831 0.87695 0.0
O643 O 0.42605 0.87597 0.86296 0.0
C644 C 0.3976 0.90333 0.7652 0.0
C645 C 0.33314 0.91434 0.7701 0.0
C646 C 0.33737 0.91697 0.70619 0.0
C647 C 0.34738 0.92409 0.7399 0.0
C648 C 0.3124 0.90075 0.70281 0.0
C649 C 0.30824 0.89826 0.76653 0.0
C650 C 0.29789 0.89168 0.73293 0.0
C651 C 0.43258 0.94927 0.78725 0.0
C652 C 0.34468 0.9186 0.80485 0.0
C653 C 0.35725 0.95512 0.94378 0.0
C654 C 0.37615 0.97721 0.93216 0.0
C655 C 0.42272 0.93706 0.89082 0.0
C656 C 0.44053 0.88107 0.92114 0.0
C657 C 0.42794 0.85627 0.92897 0.0
C658 C 0.42369 0.84849 0.96406 0.0
C659 C 0.43269 0.86567 0.99151 0.0
C660 C 0.44962 0.89807 0.94886 0.0
C661 C 0.44573 0.89032 0.98387 0.0
C662 C 0.36879 0.86582 0.84973 0.0
C663 C 0.44411 0.88872 0.884 0.0
H664 H 0.36659 0.93661 0.74257 0.0
H665 H 0.3041 0.8953 0.677 0.0
H666 H 0.29696 0.89041 0.78965 0.0
H667 H 0.27868 0.87922 0.73023 0.0
H668 H 0.421 0.843 0.90779 0.0
H669 H 0.42985 0.86 1.01887 0.0
H670 H 0.45965 0.9173 0.9436 0.0
H671 H 0.45277 0.90346 1.00514 0.0
Tb672 Tb 0.47583 0.39064 0.15969 0.0
C673 C 0.57243 0.45548 0.12216 0.0
C674 C 0.57979 0.42796 0.08688 0.0
C675 C 0.60213 0.47099 0.07456 0.0
C676 C 0.56672 0.43208 0.11367 0.0
C677 C 0.5905 0.47522 0.10298 0.0
C678 C 0.59702 0.44744 1.06682 0.0
C679 C 0.58749 0.50212 0.14505 0.0
N680 N 0.56168 0.45903 0.15081 0.0
C681 C 0.57028 0.48204 0.1638 0.0
C682 C 0.5973 0.49871 0.11407 0.0
Tb683 Tb 0.53419 0.42454 0.18008 0.0
N684 N 0.54931 0.41349 0.13277 0.0
C685 C 0.54464 0.39035 0.12674 0.0
C686 C 0.57525 0.40438 0.08115 0.0
C687 C 0.55754 0.3855 0.10112 0.0
H688 H 0.56326 0.48489 0.1883 0.0
H689 H 0.55372 0.36714 0.0967 0.0
H690 H 0.60677 0.44451 1.04563 0.0
H691 H 0.59338 0.5202 0.15478 0.0
H692 H 0.53115 0.37548 0.14166 0.0
H693 H 0.41577 0.41846 0.10161 0.0
H694 H 0.58504 0.40052 1.06107 0.0
H695 H 0.46843 0.35958 0.23543 0.0
H696 H 0.44662 0.40627 0.10057 0.0
H697 H 0.4433 0.34903 0.2882 0.0
H698 H 0.61586 0.48591 1.05935 0.0
H699 H 0.39514 0.41749 0.1575 0.0
H700 H 0.38795 0.40609 0.22149 0.0
H701 H 0.61095 0.5143 0.09988 0.0
H702 H 0.39526 0.38681 0.27239 0.0
N703 N 0.44483 0.39934 0.156 0.0
C704 C 0.43804 0.40573 0.12535 0.0
C705 C 0.40893 0.41226 0.15734 0.0
C706 C 0.41454 0.40399 0.18802 0.0
C707 C 0.42045 0.41273 0.12575 0.0
C708 C 0.4328 0.39758 0.18648 0.0
H709 H 0.41485 0.36434 0.29673 0.0
N710 N 0.45438 0.38053 0.21211 0.0
C711 C 0.44162 0.36008 0.26806 0.0
C712 C 0.43744 0.38745 0.21536 0.0
C713 C 0.456 0.36624 0.23763 0.0
C714 C 0.42566 0.36882 0.27286 0.0
C715 C 0.42319 0.38246 0.2462 0.0
O716 O 0.47375 0.35988 0.1361 0.0
O717 O 0.51163 0.40716 0.13185 0.0
O718 O 0.52447 0.44978 0.15908 0.0
O719 O 0.48265 0.42798 0.15585 0.0
O720 O 0.48426 0.40745 0.1061 0.0
O721 O 0.44185 0.36286 0.14196 0.0
O722 O 0.56061 0.44776 0.21638 0.0
O723 O 0.49835 0.40713 0.20763 0.0
O724 O 0.48658 0.36444 0.17954 0.0
O725 O 0.52436 0.3886 0.2029 0.0
O726 O 0.52236 0.4418 0.22107 0.0
O727 O 0.56121 0.41674 0.19549 0.0
C728 C 0.5068 0.41421 0.10142 0.0
C729 C 0.44437 0.34089 0.0932 0.0
C730 C 0.43698 0.3471 1.03248 0.0
C731 C 0.44175 0.35497 1.06754 0.0
C732 C 0.43538 0.32505 1.02288 0.0
C733 C 0.44255 0.31876 0.08367 0.0
C734 C 0.43812 0.31091 1.04853 0.0
C735 C 0.50346 0.4485 0.15443 0.0
C736 C 0.45085 0.35 0.12929 0.0
C737 C 0.40601 0.39008 0.24866 0.0
C738 C 0.40181 0.401 0.21967 0.0
C739 C 0.50077 0.42477 0.2287 0.0
C740 C 0.5815 0.43267 0.25005 0.0
C741 C 0.58298 0.41181 0.25743 0.0
C742 C 0.59564 0.41116 0.28725 0.0
C743 C 0.60653 0.43134 0.3099 0.0
C744 C 0.59255 0.45263 0.27304 0.0
C745 C 0.60488 0.45189 0.30286 0.0
C746 C 0.5057 0.3668 0.19674 0.0
C747 C 0.57172 0.43539 0.21632 0.0
H748 H 0.44355 0.37221 0.07474 0.0
H749 H 0.43152 0.31857 0.99587 0.0
H750 H 0.44488 0.30777 0.10328 0.0
H751 H 0.43676 0.29384 1.0412 0.0
H752 H 0.57512 0.39648 0.23953 0.0
H753 H 0.61616 0.43112 0.33329 0.0
H754 H 0.59218 0.46909 0.26747 0.0
H755 H 0.61344 0.46739 0.32035 0.0
Tb756 Tb 0.08734 0.47006 0.49184 0.0
C757 C 0.08748 0.55898 0.45617 0.0
C758 C 0.1245 0.58269 0.42306 0.0
C759 C 0.09011 0.58863 0.4136 0.0
C760 C 0.11069 0.56414 0.4474 0.0
C761 C 0.07698 0.57128 0.43952 0.0
C762 C 0.11391 0.59449 0.40562 0.0
C763 C 0.04207 0.5499 0.47735 0.0
N764 N 0.0755 0.54245 0.4819 0.0
C765 C 0.05344 0.53865 0.49378 0.0
C766 C 0.05381 0.56617 0.44995 0.0
Tb767 Tb 0.0966 0.52571 0.50712 0.0
N768 N 0.12023 0.55202 0.46418 0.0
C769 C 0.14398 0.55853 0.45918 0.0
C770 C 0.14884 0.58947 0.41798 0.0
C771 C 0.15875 0.57768 0.43671 0.0
H772 H 0.04412 0.52624 0.51507 0.0
H773 H 0.17761 0.58294 0.43324 0.0
H774 H 0.12413 0.60852 0.38646 0.0
H775 H 0.02428 0.54605 0.48592 0.0
H776 H 0.15185 0.54953 0.4733 0.0
H777 H 0.99 0.42513 0.5274 0.0
H778 H 0.16016 0.60392 0.40001 0.0
H779 H 0.13337 0.47011 0.53661 0.0
H780 H 0.02469 0.45342 0.49577 0.0
H781 H 0.1389 0.45203 0.58875 0.0
H782 H 0.0823 0.59813 0.40034 0.0
H783 H 0.99319 0.40107 0.57529 0.0
H784 H 0.01884 0.39179 0.61332 0.0
H785 H 0.04505 0.57506 0.43754 0.0
H786 H 0.0591 0.39995 0.63117 0.0
N787 N 0.05065 0.44632 0.52243 0.0
C788 C 0.02807 0.44338 0.51516 0.0
C789 C 0.0093 0.41363 0.56086 0.0
C790 C 0.03198 0.41716 0.56987 0.0
C791 C 0.00744 0.42712 0.53385 0.0
C792 C 0.05263 0.434 0.55045 0.0
H793 H 0.1036 0.42301 0.62342 0.0
N794 N 0.09525 0.4561 0.54347 0.0
C795 C 0.12098 0.44859 0.58189 0.0
C796 C 0.07549 0.43908 0.56122 0.0
C797 C 0.11772 0.45988 0.55267 0.0
C798 C 0.10103 0.43204 0.60108 0.0
C799 C 0.07796 0.42674 0.59058 0.0
O800 O 0.10952 0.45563 0.47764 0.0
O801 O 0.10319 0.50588 0.46476 0.0
O802 O 0.06673 0.50878 0.46816 0.0
O803 O 0.0579 0.46895 0.46255 0.0
O804 O 0.08884 0.47731 0.43321 0.0
O805 O 0.07081 0.43398 0.47445 0.0
O806 O 0.09076 0.54688 0.54431 0.0
O807 O 0.08554 0.49178 0.53798 0.0
O808 O 0.12698 0.49291 0.49504 0.0
O809 O 0.1295 0.52427 0.52776 0.0
O810 O 0.06508 0.50776 0.5429 0.0
O811 O 0.12666 0.55693 0.52726 0.0
C812 C 0.09993 0.50069 0.43034 0.0
C813 C 0.09402 0.42956 0.42947 0.0
C814 C 0.08282 0.42754 0.36772 0.0
C815 C 0.07877 0.42999 0.40338 0.0
C816 C 0.1023 0.42422 0.35808 0.0
C817 C 0.11331 0.42605 0.41971 0.0
C818 C 0.11737 0.42332 0.38408 0.0
C819 C 0.05325 0.48648 0.45569 0.0
C820 C 0.09143 0.4356 0.46608 0.0
C821 C 0.05743 0.40952 0.60878 0.0
C822 C 0.03452 0.4048 0.59851 0.0
C823 C 0.06715 0.49044 0.55624 0.0
C824 C 0.12211 0.56686 0.58595 0.0
C825 C 0.14608 0.57343 0.59462 0.0
C826 C 0.15388 0.57826 0.62975 0.0
C827 C 0.13776 0.57696 0.65624 0.0
C828 C 0.10634 0.56603 0.61271 0.0
C829 C 0.11417 0.57103 0.64765 0.0
C830 C 0.13967 0.51159 0.51593 0.0
C831 C 0.11372 0.56158 0.54908 0.0
H832 H 0.06405 0.43306 0.41069 0.0
H833 H 0.10563 0.42192 0.33064 0.0
H834 H 0.1255 0.42597 0.43951 0.0
H835 H 0.13233 0.42072 0.37658 0.0
H836 H 0.15861 0.57453 0.57428 0.0
H837 H 0.14356 0.58092 0.68351 0.0
H838 H 0.08795 0.56152 0.60663 0.0
H839 H 0.10193 0.57035 0.66813 0.0
Tb840 Tb 0.60894 0.08571 0.82774 0.0
C841 C 0.53134 0.10979 0.80076 0.0
C842 C 0.55328 0.14382 0.76155 0.0
C843 C 0.50935 0.12059 0.75911 0.0
C844 C 0.55302 0.12861 0.78869 0.0
C845 C 0.50922 0.10555 0.78615 0.0
C846 C 0.53134 0.13971 0.74685 0.0
C847 C 0.48848 0.07193 0.82611 0.0
N848 N 0.53198 0.09523 0.82618 0.0
C849 C 0.51084 0.0768 0.83971 0.0
C850 C 0.48766 0.08626 0.79905 0.0
Tb851 Tb 0.56963 0.1054 0.84724 0.0
N852 N 0.57387 0.13144 0.80261 0.0
C853 C 0.59571 0.14988 0.79128 0.0
C854 C 0.57559 0.1624 0.74953 0.0
C855 C 0.59689 0.16546 0.76453 0.0
H856 H 0.51123 0.06551 0.86055 0.0
H857 H 0.61427 0.17976 0.7554 0.0
H858 H 0.53118 0.1511 0.72586 0.0
H859 H 0.47189 0.05711 0.83648 0.0
H860 H 0.61239 0.15241 0.80204 0.0
H861 H 0.57484 0.99005 0.79957 0.0
H862 H 0.57657 0.17439 0.72863 0.0
H863 H 0.64244 0.11907 0.89755 0.0
H864 H 0.58898 0.03244 0.78433 0.0
H865 H 0.65399 0.1121 0.95522 0.0
H866 H 0.49256 0.11757 0.74745 0.0
H867 H 0.57795 0.97913 0.86103 0.0
H868 H 0.59337 0.99274 0.92224 0.0
H869 H 0.47031 0.08237 0.78845 0.0
H870 H 0.61617 0.02608 0.96395 0.0
N871 N 0.59719 0.04542 0.83744 0.0
C872 C 0.58941 0.02786 0.81159 0.0
C873 C 0.58354 0.99773 0.85466 0.0
C874 C 0.59398 0.01597 0.88021 0.0
C875 C 0.58174 0.00381 0.81999 0.0
C876 C 0.60085 0.03996 0.87067 0.0
H877 H 0.63971 0.07049 0.97585 0.0
N878 N 0.6202 0.08168 0.88412 0.0
C879 C 0.6423 0.09686 0.93858 0.0
C880 C 0.61339 0.05872 0.89435 0.0
C881 C 0.63524 0.1007 0.90546 0.0
C882 C 0.63432 0.07339 0.95006 0.0
C883 C 0.6198 0.05396 0.92787 0.0
O884 O 0.64464 0.11021 0.81171 0.0
O885 O 0.59097 0.10367 0.80265 0.0
O886 O 0.549 0.0754 0.81119 0.0
O887 O 0.57314 0.05767 0.80838 0.0
O888 O 0.60207 0.08686 0.76967 0.0
O889 O 0.63117 0.07206 0.81027 0.0
O890 O 0.54778 0.10484 0.88925 0.0
O891 O 0.58823 0.08789 0.87423 0.0
O892 O 0.63284 0.12484 0.8396 0.0
O893 O 0.60644 0.13552 0.86425 0.0
O894 O 0.55193 0.07238 0.88046 0.0
O895 O 0.57662 0.13854 0.86945 0.0
C896 C 0.5912 0.09944 0.76829 0.0
C897 C 0.65606 0.09511 0.76308 0.0
C898 C 0.64899 0.07906 0.70308 0.0
C899 C 0.64285 0.07621 0.73895 0.0
C900 C 0.66865 0.10093 0.69132 0.0
C901 C 0.67587 0.11671 0.75102 0.0
C902 C 0.6821 0.11957 0.71527 0.0
C903 C 0.55307 0.05798 0.80058 0.0
C904 C 0.6483 0.09307 0.80018 0.0
C905 C 0.61184 0.03004 0.93807 0.0
C906 C 0.5988 0.01106 0.91437 0.0
C907 C 0.56988 0.07024 0.89129 0.0
C908 C 0.57081 0.13533 0.93081 0.0
C909 C 0.58411 0.16003 0.93924 0.0
C910 C 0.59479 0.16761 0.97263 0.0
C911 C 0.59179 0.15007 0.99769 0.0
C912 C 0.56805 0.1181 0.9562 0.0
C913 C 0.57851 0.12551 0.98944 0.0
C914 C 0.62897 0.14091 0.85628 0.0
C915 C 0.56114 0.12793 0.89491 0.0
H916 H 0.62741 0.05945 0.74773 0.0
H917 H 0.67386 0.10341 0.66372 0.0
H918 H 0.68626 0.1315 0.76918 0.0
H919 H 0.69733 0.13631 0.70607 0.0
H920 H 0.58643 0.17333 0.91959 0.0
H921 H 0.59924 0.15529 1.02402 0.0
H922 H 0.55797 0.09892 0.95041 0.0
H923 H 0.57625 0.11218 1.00892 0.0
Tb924 Tb 0.52492 0.61613 0.15581 0.0
C925 C 0.43258 0.52763 0.12228 0.0
C926 C 0.41027 0.54219 0.08827 0.0
C927 C 0.40143 0.50065 0.0812 0.0
C928 C 0.42805 0.5461 0.11357 0.0
C929 C 0.41942 0.50474 0.10602 0.0
C930 C 0.39686 0.51931 0.07236 0.0
C931 C 0.44323 0.49181 0.13929 0.0
N932 N 0.45074 0.53254 0.14538 0.0
C933 C 0.45584 0.5148 0.15471 0.0
C934 C 0.42497 0.48676 0.11481 0.0
Tb935 Tb 0.46858 0.57043 0.17023 0.0
N936 N 0.4421 0.56828 0.12824 0.0
C937 C 0.43881 0.58721 0.11961 0.0
C938 C 0.40696 0.56157 0.07905 0.0
C939 C 0.42131 0.58417 0.09479 0.0
H940 H 0.46995 0.51842 0.17349 0.0
H941 H 0.4189 0.59927 0.08781 0.0
H942 H 0.38315 0.51597 1.05282 0.0
H943 H 0.44762 0.478 0.14627 0.0
H944 H 0.44974 0.60472 0.13168 0.0
H945 H 0.55837 0.55247 0.18122 0.0
H946 H 0.39355 0.55933 1.05963 0.0
H947 H 0.52674 0.65896 0.21143 0.0
H948 H 0.5299 0.56283 0.15765 0.0
H949 H 0.55056 0.682 0.26159 0.0
H950 H 0.39113 0.48318 1.06841 0.0
H951 H 0.58935 0.57942 0.22379 0.0
H952 H 0.60578 0.61585 0.26228 0.0
H953 H 0.41532 0.46896 0.10281 0.0
H954 H 0.60287 0.65031 0.28533 0.0
N955 N 0.54578 0.59837 0.18147 0.0
C956 C 0.54396 0.57634 0.17373 0.0
C957 C 0.57719 0.5848 0.21238 0.0
C958 C 0.57749 0.60584 0.22336 0.0
C959 C 0.55985 0.56964 0.18825 0.0
C960 C 0.56109 0.612 0.20786 0.0
H961 H 0.58174 0.67423 0.28638 0.0
N962 N 0.54142 0.6352 0.20863 0.0
C963 C 0.55291 0.66751 0.25094 0.0
C964 C 0.5589 0.63102 0.22168 0.0
C965 C 0.53872 0.6536 0.22264 0.0
C966 C 0.57065 0.66326 0.2646 0.0
C967 C 0.57387 0.6449 0.25007 0.0
O968 O 0.54224 0.65352 0.14527 0.0
O969 O 0.48913 0.59646 0.12989 0.0
O970 O 0.484 0.55873 0.12555 0.0
O971 O 0.52458 0.58884 0.12189 0.0
O972 O 0.51544 0.61662 0.09789 0.0
O973 O 0.56077 0.63337 0.13807 0.0
O974 O 0.44637 0.54336 0.20601 0.0
O975 O 0.50259 0.59276 0.20148 0.0
O976 O 0.50484 0.63524 0.16386 0.0
O977 O 0.47042 0.60523 0.19024 0.0
O978 O 0.48623 0.55633 0.20542 0.0
O979 O 0.43876 0.57155 0.19195 0.0
C980 C 0.4923 0.60173 0.09583 0.0
C981 C 0.56923 0.6644 0.09719 0.0
C982 C 0.58148 0.66112 1.03734 0.0
C983 C 0.5744 0.65186 0.07139 0.0
C984 C 0.58292 0.68316 1.02863 0.0
C985 C 0.57112 0.68665 0.08853 0.0
C986 C 0.57784 0.69591 1.0543 0.0
C987 C 0.5061 0.56816 0.1112 0.0
C988 C 0.56138 0.65382 0.1326 0.0
C989 C 0.59119 0.63972 0.26376 0.0
C990 C 0.59293 0.62018 0.25054 0.0
C991 C 0.50343 0.57552 0.2196 0.0
C992 C 0.43124 0.55798 0.25101 0.0
C993 C 0.42381 0.57455 0.26105 0.0
C994 C 0.42265 0.57965 0.29682 0.0
C995 C 0.42844 0.56759 0.32267 0.0
C996 C 0.43676 0.54596 0.27728 0.0
C997 C 0.43535 0.55078 0.31288 0.0
C998 C 0.48493 0.62856 0.18203 0.0
C999 C 0.43367 0.55369 0.2133 0.0
H1000 H 0.57264 0.63448 0.07759 0.0
H1001 H 0.58827 0.69061 1.00236 0.0
H1002 H 0.56721 0.69672 0.10806 0.0
H1003 H 0.57914 0.71301 1.04768 0.0
H1004 H 0.4194 0.58386 0.2411 0.0
H1005 H 0.42728 0.57089 0.35052 0.0
H1006 H 0.44233 0.53294 0.27039 0.0
H1007 H 0.43964 0.54149 0.33295 0.0
C1008 C 0.50533 0.17945 0.31118 0.0
C1009 C 0.51483 0.16791 0.28959 0.0
C1010 C 0.50566 0.201 0.30095 0.0
C1011 C 0.50993 0.23949 0.22171 0.0
H1012 H 0.51839 0.28707 0.29269 0.0
C1013 C 0.49168 0.32111 0.19182 0.0
C1014 C 0.50662 0.34399 0.20777 0.0
C1015 C 0.49328 0.30024 0.20083 0.0
C1016 C 0.51602 0.27418 0.27217 0.0
H1017 H 0.53189 0.17111 0.23882 0.0
H1018 H 0.53241 0.20853 0.22081 0.0
H1019 H 0.52089 0.25139 0.30921 0.0
H1020 H 0.53479 0.36167 0.24664 0.0
H1021 H 0.53727 0.32566 0.26284 0.0
H1022 H 0.50472 0.26222 0.18476 0.0
C1023 C 0.52479 0.20084 0.2463 0.0
C1024 C 0.51729 0.25328 0.28185 0.0
C1025 C 0.52485 0.17932 0.25692 0.0
C1026 C 0.52298 0.34473 0.23353 0.0
C1027 C 0.52428 0.32379 0.24303 0.0
C1028 C 0.5082 0.26022 0.21213 0.0
C1029 C 0.51509 0.21225 0.26805 0.0
C1030 C 0.51433 0.23529 0.25695 0.0
C1031 C 0.50959 0.30093 0.22683 0.0
C1032 C 0.51126 0.27824 0.23708 0.0
H1033 H 0.49704 0.17144 0.33625 0.0
H1034 H 0.49766 0.20844 0.31872 0.0
H1035 H 0.50731 0.22642 0.20136 0.0
H1036 H 0.47883 0.31931 0.17174 0.0
H1037 H 0.48135 0.28335 0.18756 0.0
C1038 C 0.32444 0.50486 0.63186 0.0
C1039 C 0.3468 0.51677 0.61331 0.0
C1040 C 0.30373 0.50645 0.62175 0.0
C1041 C 0.27501 0.52272 0.54503 0.0
H1042 H 0.22873 0.51757 0.61605 0.0
C1043 C 0.1778 0.50788 0.50544 0.0
C1044 C 0.16541 0.51672 0.52666 0.0
C1045 C 0.20012 0.50959 0.51573 0.0
C1046 C 0.24128 0.51917 0.59548 0.0
H1047 H 0.36342 0.53981 0.56802 0.0
H1048 H 0.3276 0.54247 0.55024 0.0
H1049 H 0.26567 0.51759 0.63346 0.0
H1050 H 0.16842 0.53446 0.57679 0.0
H1051 H 0.20695 0.53734 0.59485 0.0
H1052 H 0.25051 0.52411 0.50703 0.0
C1053 C 0.3261 0.5318 0.57322 0.0
C1054 C 0.26282 0.51894 0.60561 0.0
C1055 C 0.34709 0.53049 0.58374 0.0
C1056 C 0.17698 0.52761 0.55901 0.0
C1057 C 0.19929 0.529 0.56965 0.0
C1058 C 0.25329 0.52257 0.53485 0.0
C1059 C 0.30367 0.51978 0.59194 0.0
C1060 C 0.28044 0.52067 0.58075 0.0
C1061 C 0.21158 0.51994 0.54834 0.0
C1062 C 0.23563 0.52075 0.55971 0.0
H1063 H 0.32272 0.49383 0.65453 0.0
H1064 H 0.28737 0.49649 0.63717 0.0
H1065 H 0.2874 0.52397 0.52442 0.0
H1066 H 0.16994 0.49909 0.48054 0.0
H1067 H 0.20804 0.50199 0.49814 0.0
C1068 C 0.81886 0.34792 0.92034 0.0
C1069 C 0.8311 0.34881 0.95204 0.0
C1070 C 0.79689 0.32662 0.90966 0.0
C1071 C 0.74424 0.26604 0.94394 0.0
H1072 H 0.73268 0.24679 0.84565 0.0
C1073 C 0.65071 0.18059 0.89443 0.0
C1074 C 0.65124 0.16567 0.86687 0.0
C1075 C 0.67177 0.20282 0.90466 0.0
C1076 C 0.73532 0.2516 0.87338 0.0
H1077 H 0.82819 0.32657 0.99689 0.0
H1078 H 0.79042 0.2908 0.97945 0.0
H1079 H 0.76916 0.28445 0.86284 0.0
H1080 H 0.67585 0.16417 0.82864 0.0
H1081 H 0.71156 0.20249 0.84528 0.0
H1082 H 0.71028 0.23339 0.95448 0.0
C1083 C 0.79765 0.30644 0.96238 0.0
C1084 C 0.75655 0.27371 0.88337 0.0
C1085 C 0.81973 0.32737 0.97258 0.0
C1086 C 0.67403 0.17459 0.84989 0.0
C1087 C 0.69487 0.19702 0.85951 0.0
C1088 C 0.72276 0.24423 0.93388 0.0
C1089 C 0.78558 0.30513 0.93038 0.0
C1090 C 0.76187 0.28158 0.91905 0.0
C1091 C 0.69456 0.21185 0.8874 0.0
C1092 C 0.71766 0.23612 0.89829 0.0
H1093 H 0.82669 0.36344 0.90299 0.0
H1094 H 0.7887 0.32709 0.88491 0.0
H1095 H 0.74685 0.27083 0.97168 0.0
H1096 H 0.63399 0.17489 0.90873 0.0
H1097 H 0.67 0.21314 0.92609 0.0
C1098 C 0.4795 0.65517 0.22951 0.0
C1099 C 0.48023 0.64911 0.19364 0.0
C1100 C 0.48026 0.67723 0.23966 0.0
C1101 C 0.47226 0.72932 0.20395 0.0
H1102 H 0.5061 0.76351 0.28861 0.0
C1103 C 0.47058 0.81769 0.25141 0.0
C1104 C 0.48954 0.83583 0.27196 0.0
C1105 C 0.4695 0.79541 0.24249 0.0
C1106 C 0.49659 0.75454 0.26466 0.0
H1107 H 0.48258 0.66276 0.1408 0.0
H1108 H 0.48265 0.69984 0.1579 0.0
H1109 H 0.50361 0.72504 0.27291 0.0
H1110 H 0.52255 0.84334 0.29871 0.0
H1111 H 0.52099 0.80525 0.28305 0.0
H1112 H 0.46535 0.75869 0.19533 0.0
C1113 C 0.48149 0.6877 0.17864 0.0
C1114 C 0.49491 0.73191 0.25572 0.0
C1115 C 0.48132 0.66605 0.16862 0.0
C1116 C 0.50751 0.83034 0.28294 0.0
C1117 C 0.50646 0.80799 0.27401 0.0
C1118 C 0.47372 0.75176 0.21304 0.0
C1119 C 0.48137 0.69425 0.21448 0.0
C1120 C 0.48275 0.7186 0.22499 0.0
C1121 C 0.48736 0.78972 0.25349 0.0
C1122 C 0.48595 0.7652 0.24368 0.0
H1123 H 0.47947 0.64336 0.24997 0.0
H1124 H 0.48006 0.68095 0.26755 0.0
H1125 H 0.4625 0.72018 0.18022 0.0
H1126 H 0.45619 0.82059 0.24221 0.0
H1127 H 0.45413 0.7824 0.22726 0.0
C1128 C 0.67715 0.50782 0.62979 0.0
C1129 C 0.65483 0.49435 0.61172 0.0
C1130 C 0.6984 0.50695 0.62001 0.0
C1131 C 0.72794 0.4906 0.54422 0.0
H1132 H 0.77337 0.49498 0.61553 0.0
C1133 C 0.82519 0.50392 0.50651 0.0
C1134 C 0.83567 0.49301 0.52711 0.0
C1135 C 0.80323 0.50332 0.51644 0.0
C1136 C 0.76104 0.49364 0.59492 0.0
H1137 H 0.63875 0.46952 0.56785 0.0
H1138 H 0.67538 0.46839 0.55047 0.0
H1139 H 0.73646 0.49539 0.63283 0.0
H1140 H 0.82991 0.47291 0.57548 0.0
H1141 H 0.79237 0.47224 0.593 0.0
H1142 H 0.75269 0.48922 0.50627 0.0
C1143 C 0.67652 0.47962 0.57274 0.0
C1144 C 0.73959 0.49409 0.60499 0.0
C1145 C 0.65512 0.48012 0.583 0.0
C1146 C 0.82286 0.48149 0.55838 0.0
C1147 C 0.8011 0.48129 0.56869 0.0
C1148 C 0.74963 0.49065 0.5341 0.0
C1149 C 0.69886 0.49297 0.59101 0.0
C1150 C 0.72227 0.49249 0.57999 0.0
C1151 C 0.79055 0.49217 0.548 0.0
C1152 C 0.76686 0.49208 0.55911 0.0
H1153 H 0.67829 0.51919 0.6519 0.0
H1154 H 0.71477 0.51781 0.63501 0.0
H1155 H 0.71572 0.48948 0.52358 0.0
H1156 H 0.83408 0.51316 0.48237 0.0
H1157 H 0.79647 0.51221 0.49944 0.0
C1158 C 0.34675 0.8285 0.89196 0.0
C1159 C 0.34764 0.8405 0.8601 0.0
C1160 C 0.32553 0.80657 0.90251 0.0
C1161 C 0.26601 0.75345 0.86757 0.0
H1162 H 0.24527 0.74272 0.96527 0.0
C1163 C 0.18296 0.65949 0.91727 0.0
C1164 C 0.16667 0.65965 0.94275 0.0
C1165 C 0.20477 0.68093 0.9075 0.0
C1166 C 0.25056 0.74518 0.93773 0.0
H1167 H 0.32567 0.83731 0.81467 0.0
H1168 H 0.28992 0.79951 0.83197 0.0
H1169 H 0.28281 0.7795 0.94847 0.0
H1170 H 0.16207 0.68395 0.97794 0.0
H1171 H 0.19999 0.72065 0.96213 0.0
H1172 H 0.23403 0.71901 0.85687 0.0
C1173 C 0.30549 0.80696 0.84927 0.0
C1174 C 0.27253 0.76652 0.92799 0.0
C1175 C 0.32636 0.82901 0.83918 0.0
C1176 C 0.17367 0.6825 0.95825 0.0
C1177 C 0.19579 0.70384 0.94915 0.0
C1178 C 0.24438 0.73188 0.87742 0.0
C1179 C 0.30421 0.79513 0.88143 0.0
C1180 C 0.28085 0.77144 0.89253 0.0
C1181 C 0.21197 0.70378 0.92328 0.0
C1182 C 0.23583 0.72713 0.91277 0.0
H1183 H 0.36224 0.83645 0.90944 0.0
H1184 H 0.32593 0.79848 0.92736 0.0
H1185 H 0.27125 0.75585 0.84001 0.0
H1186 H 0.1787 0.64269 0.90428 0.0
H1187 H 0.21626 0.67942 0.8877 0.0
C1188 C 0.62805 0.20278 1.00441 0.0
C1189 C 0.60763 0.19356 0.9826 0.0
C1190 C 0.63576 0.22439 1.0227 0.0
C1191 C 0.60098 0.24946 1.06211 0.0
H1192 H 0.65287 0.26437 0.12765 0.0
C1193 C 0.62058 0.22212 0.20426 0.0
C1194 C 0.60005 0.19913 0.20077 0.0
C1195 C 0.62361 0.24104 0.18242 0.0
C1196 C 0.63818 0.26109 0.11013 0.0
H1197 H 0.58226 0.20198 0.95725 0.0
H1198 H 0.59627 0.24018 0.98819 0.0
H1199 H 0.66064 0.26631 1.06525 0.0
H1200 H 0.56517 0.17845 0.17569 0.0
H1201 H 0.57068 0.21041 0.13639 0.0
H1202 H 0.57853 0.2444 0.10694 0.0
C1203 C 0.60564 0.2302 0.99271 0.0
C1204 C 0.64269 0.26195 0.07389 0.0
C1205 C 0.59768 0.20832 0.97471 0.0
C1206 C 0.58125 0.19605 0.17854 0.0
C1207 C 0.58451 0.2147 0.15607 0.0
C1208 C 0.59671 0.24962 0.0983 0.0
C1209 C 0.62316 0.23728 1.01952 0.0
C1210 C 0.6232 0.25228 1.05006 0.0
C1211 C 0.60664 0.23688 0.15566 0.0
C1212 C 0.61426 0.25165 0.1226 0.0
H1213 H 0.63677 0.19225 1.00977 0.0
H1214 H 0.64971 0.22913 1.04235 0.0
H1215 H 0.58562 0.24342 1.04465 0.0
H1216 H 0.63509 0.22493 0.22192 0.0
H1217 H 0.64034 0.25812 0.18426 0.0
C1218 C 0.39341 0.5952 0.29468 0.0
C1219 C 0.41491 0.59708 0.30769 0.0
C1220 C 0.38336 0.60791 0.3111 0.0
C1221 C 0.39228 0.64432 0.39466 0.0
H1222 H 0.33256 0.5859 0.4158 0.0
C1223 C 0.3981 0.59981 0.50838 0.0
C1224 C 0.39463 0.57763 0.49533 0.0
C1225 C 0.38576 0.61055 0.49323 0.0
C1226 C 0.34918 0.6026 0.41049 0.0
H1227 H 0.4447 0.61637 0.34389 0.0
H1228 H 0.42736 0.63775 0.37306 0.0
H1229 H 0.34515 0.59581 0.3552 0.0
H1230 H 0.3726 0.54731 0.46106 0.0
H1231 H 0.352 0.56587 0.43381 0.0
H1232 H 0.39851 0.64875 0.44995 0.0
C1233 C 0.41777 0.62671 0.35047 0.0
C1234 C 0.35638 0.60854 0.37533 0.0
C1235 C 0.42772 0.61408 0.33412 0.0
C1236 C 0.3763 0.56489 0.47058 0.0
C1237 C 0.36411 0.57558 0.45537 0.0
C1238 C 0.38572 0.63766 0.42983 0.0
C1239 C 0.39453 0.62245 0.341 0.0
C1240 C 0.38007 0.62721 0.36779 0.0
C1241 C 0.37016 0.59949 0.46431 0.0
C1242 C 0.36628 0.6144 0.43748 0.0
H1243 H 0.38339 0.58247 0.27378 0.0
H1244 H 0.36585 0.60467 0.30228 0.0
H1245 H 0.40953 0.66034 0.38936 0.0
H1246 H 0.41177 0.60982 0.52816 0.0
H1247 H 0.39022 0.62848 0.502 0.0
C1248 C 0.80388 0.39567 0.84041 0.0
C1249 C 0.80353 0.41345 0.86185 0.0
C1250 C 0.78476 0.38224 0.81727 0.0
C1251 C 0.74631 0.36009 0.76222 0.0
H1252 H 0.747 0.41464 0.71645 0.0
C1253 C 0.76691 0.37019 0.62054 0.0
C1254 C 0.7895 0.39148 0.61809 0.0
C1255 C 0.75064 0.36764 0.64732 0.0
C1256 C 0.74599 0.3989 0.72889 0.0
H1257 H 0.78169 0.42848 0.88073 0.0
H1258 H 0.74786 0.40451 0.84092 0.0
H1259 H 0.75143 0.41493 0.77989 0.0
H1260 H 0.81104 0.42814 0.63793 0.0
H1261 H 0.78321 0.42373 0.68441 0.0
H1262 H 0.74412 0.34558 0.71073 0.0
C1263 C 0.76311 0.40143 0.84099 0.0
C1264 C 0.74835 0.39893 0.76551 0.0
C1265 C 0.7824 0.4151 0.86378 0.0
C1266 C 0.79391 0.41139 0.63928 0.0
C1267 C 0.77772 0.40884 0.66601 0.0
C1268 C 0.74418 0.36018 0.72556 0.0
C1269 C 0.76499 0.38636 0.81545 0.0
C1270 C 0.75093 0.38061 0.78208 0.0
C1271 C 0.75687 0.38629 0.67213 0.0
C1272 C 0.74648 0.38075 0.70835 0.0
H1273 H 0.82 0.39406 0.83866 0.0
H1274 H 0.78698 0.37083 0.79808 0.0
H1275 H 0.74736 0.3453 0.77437 0.0
H1276 H 0.76268 0.35482 0.60366 0.0
H1277 H 0.73438 0.35028 0.65074 0.0
C1278 C 0.39049 0.81401 0.99606 0.0
C1279 C 0.40988 0.82248 0.97236 0.0
C1280 C 0.38008 0.79062 1.0092 0.0
C1281 C 0.40446 0.75435 1.03758 0.0
H1282 H 0.34562 0.73238 0.09156 0.0
C1283 C 0.36837 0.76282 0.17919 0.0
C1284 C 0.38852 0.78615 0.18223 0.0
C1285 C 0.3682 0.74662 0.154 0.0
C1286 C 0.36204 0.73735 0.07691 0.0
H1287 H 0.43198 0.81261 0.94052 0.0
H1288 H 0.41413 0.77154 0.96437 0.0
H1289 H 0.34614 0.74168 1.02998 0.0
H1290 H 0.42557 0.80955 0.16566 0.0
H1291 H 0.42516 0.78229 0.12113 0.0
H1292 H 0.42073 0.75119 0.08495 0.0
C1293 C 0.40692 0.78297 0.97274 0.0
C1294 C 0.36228 0.74281 1.04123 0.0
C1295 C 0.41718 0.80645 0.95923 0.0
C1296 C 0.40965 0.79177 0.16347 0.0
C1297 C 0.40936 0.77581 0.13791 0.0
C1298 C 0.40402 0.74815 0.07303 0.0
C1299 C 0.3891 0.77524 0.99927 0.0
C1300 C 0.38445 0.75494 1.02314 0.0
C1301 C 0.38787 0.75388 0.13065 0.0
C1302 C 0.38394 0.74347 0.09421 0.0
H1303 H 0.38428 0.82597 1.00598 0.0
H1304 H 0.36659 0.7856 1.02979 0.0
H1305 H 0.42166 0.76248 1.02385 0.0
H1306 H 0.35208 0.75781 0.19432 0.0
H1307 H 0.35171 0.72949 0.1504 0.0
C1308 C 0.5762 0.36727 0.30202 0.0
C1309 C 0.59723 0.38945 0.29602 0.0
C1310 C 0.57741 0.34907 0.32079 0.0
C1311 C 0.62198 0.34774 0.38631 0.0
H1312 H 0.56789 0.33724 0.44491 0.0
C1313 C 0.59281 0.38485 0.5128 0.0
C1314 C 0.60915 0.40893 0.50313 0.0
C1315 C 0.59459 0.36575 0.49779 0.0
C1316 C 0.58327 0.3396 0.42951 0.0
H1317 H 0.63627 0.40861 0.29896 0.0
H1318 H 0.6386 0.37822 0.33308 0.0
H1319 H 0.56166 0.32858 0.38365 0.0
H1320 H 0.64296 0.43176 0.47569 0.0
H1321 H 0.64478 0.39871 0.44713 0.0
H1322 H 0.64396 0.36134 0.43272 0.0
C1323 C 0.6209 0.37403 0.32392 0.0
C1324 C 0.57969 0.33466 0.39348 0.0
C1325 C 0.6197 0.39187 0.30442 0.0
C1326 C 0.62927 0.41345 0.48225 0.0
C1327 C 0.63066 0.39432 0.46651 0.0
C1328 C 0.62572 0.35323 0.4224 0.0
C1329 C 0.59952 0.35349 0.33583 0.0
C1330 C 0.59976 0.34242 0.3707 0.0
C1331 C 0.6121 0.37026 0.47176 0.0
C1332 C 0.6069 0.35215 0.44321 0.0
H1333 H 0.55865 0.36491 0.29554 0.0
H1334 H 0.56058 0.33281 0.32678 0.0
H1335 H 0.63747 0.35129 0.37024 0.0
H1336 H 0.57723 0.38037 0.52925 0.0
H1337 H 0.5805 0.34742 0.50344 0.0
C1338 C 0.24307 0.61257 0.85735 0.0
C1339 C 0.21915 0.60855 0.85783 0.0
C1340 C 0.25787 0.62252 0.82755 0.0
C1341 C 0.26068 0.61153 0.74923 0.0
H1342 H 0.24676 0.65125 0.68763 0.0
C1343 C 0.18286 0.57233 0.66594 0.0
C1344 C 0.1789 0.585 0.63919 0.0
C1345 C 0.20583 0.58138 0.68038 0.0
C1346 C 0.25178 0.64045 0.70368 0.0
H1347 H 0.19382 0.61515 0.82774 0.0
H1348 H 0.21959 0.63339 0.77857 0.0
H1349 H 0.25903 0.66402 0.74793 0.0
H1350 H 0.19598 0.6155 0.60365 0.0
H1351 H 0.2364 0.63186 0.62963 0.0
H1352 H 0.25089 0.58666 0.70605 0.0
C1353 C 0.22693 0.62851 0.80078 0.0
C1354 C 0.25888 0.64787 0.73848 0.0
C1355 C 0.21189 0.61782 0.82965 0.0
C1356 C 0.1987 0.60558 0.62458 0.0
C1357 C 0.22178 0.61487 0.63935 0.0
C1358 C 0.25396 0.60428 0.71425 0.0
C1359 C 0.24945 0.62961 0.79834 0.0
C1360 C 0.25987 0.63172 0.7626 0.0
C1361 C 0.22531 0.60354 0.66869 0.0
C1362 C 0.24618 0.61707 0.69291 0.0
H1363 H 0.25004 0.60686 0.87898 0.0
H1364 H 0.27521 0.62324 0.82642 0.0
H1365 H 0.26214 0.59903 0.76693 0.0
H1366 H 0.16785 0.55623 0.67721 0.0
H1367 H 0.20759 0.57216 0.70313 0.0
C1368 C 0.44863 0.96983 0.93939 0.0
C1369 C 0.42543 0.95024 0.92882 0.0
C1370 C 0.45388 0.98204 0.97342 0.0
C1371 C 0.42995 0.0011 1.05478 0.0
H1372 H 0.48571 0.00894 0.10627 0.0
C1373 C 0.4714 0.06659 0.18999 0.0
C1374 C 0.48182 0.05963 0.21793 0.0
C1375 C 0.46294 0.05334 0.1564 0.0
C1376 C 0.46998 0.00735 0.09295 0.0
H1377 H 0.39012 0.92844 0.95273 0.0
H1378 H 0.39825 0.95094 1.00928 0.0
H1379 H 0.47429 0.98721 1.0495 0.0
H1380 H 0.49187 0.03227 0.22681 0.0
H1381 H 0.47872 0.01088 0.17042 0.0
H1382 H 0.42602 0.022 0.09781 0.0
C1383 C 0.41289 0.95699 0.99037 0.0
C1384 C 0.46334 0.99456 1.05922 0.0
C1385 C 0.40787 0.94397 0.95654 0.0
C1386 C 0.48375 0.03888 0.20807 0.0
C1387 C 0.47609 0.02622 0.17448 0.0
C1388 C 0.43704 0.01464 0.08813 0.0
C1389 C 0.43631 0.97656 1.00059 0.0
C1390 C 0.44295 0.99058 1.03845 0.0
C1391 C 0.46524 0.03266 0.14677 0.0
C1392 C 0.45737 0.01832 0.1091 0.0
H1393 H 0.46352 0.97588 0.92091 0.0
H1394 H 0.47225 0.99636 0.97826 0.0
H1395 H 0.41418 -0.0007 1.04129 0.0
H1396 H 0.47035 0.08288 0.19338 0.0
H1397 H 0.45525 0.0601 0.1372 0.0
C1398 C 0.48508 0.44836 0.2693 0.0
C1399 C 0.48721 0.42724 0.26352 0.0
C1400 C 0.47684 0.454 0.3021 0.0
C1401 C 0.44372 0.42868 0.39399 0.0
H1402 H 0.47039 0.49567 0.42122 0.0
C1403 C 0.4076 0.46779 0.52105 0.0
C1404 C 0.4254 0.48295 0.54661 0.0
C1405 C 0.41345 0.45973 0.48784 0.0
C1406 C 0.46246 0.47669 0.41473 0.0
H1407 H 0.48379 0.39732 0.29465 0.0
H1408 H 0.46757 0.40549 0.34918 0.0
H1409 H 0.48297 0.48484 0.36551 0.0
H1410 H 0.46456 0.50183 0.55115 0.0
H1411 H 0.47424 0.48991 0.49474 0.0
H1412 H 0.42261 0.42065 0.44287 0.0
C1413 C 0.47191 0.41789 0.32739 0.0
C1414 C 0.46978 0.47026 0.38168 0.0
C1415 C 0.48092 0.41266 0.29473 0.0
C1416 C 0.44945 0.49006 0.53442 0.0
C1417 C 0.45531 0.483 0.50091 0.0
C1418 C 0.43585 0.43517 0.42662 0.0
C1419 C 0.4697 0.43906 0.33292 0.0
C1420 C 0.46103 0.44592 0.36966 0.0
C1421 C 0.43771 0.46719 0.47601 0.0
C1422 C 0.44506 0.45956 0.43886 0.0
H1423 H 0.49039 0.4613 0.24801 0.0
H1424 H 0.47611 0.47059 0.30307 0.0
H1425 H 0.43573 0.40966 0.3876 0.0
H1426 H 0.38891 0.46231 0.52606 0.0
H1427 H 0.3986 0.44801 0.47069 0.0
C1428 C 0.06003 0.46817 0.62149 0.0
C1429 C 0.05379 0.47951 0.59397 0.0
C1430 C 0.04669 0.45979 0.65501 0.0
C1431 C 0.00557 0.47051 0.72208 0.0
H1432 H 0.98466 0.40797 0.76385 0.0
C1433 C 0.96193 0.44662 0.87128 0.0
C1434 C 0.94168 0.42369 0.88115 0.0
C1435 C 0.97473 0.45176 0.83778 0.0
C1436 C 0.99011 0.42567 0.75322 0.0
H1437 H 0.02763 0.49136 0.58615 0.0
H1438 H 0.00661 0.47894 0.64284 0.0
H1439 H 0.00796 0.4196 0.70787 0.0
H1440 H 0.91961 0.38862 0.85659 0.0
H1441 H 0.94287 0.39657 0.80078 0.0
H1442 H 0.9883 0.47684 0.76763 0.0
C1443 C 0.02124 0.47525 0.63817 0.0
C1444 C 0.00402 0.43261 0.72019 0.0
C1445 C 0.03378 0.4826 0.60446 0.0
C1446 C 0.93551 0.40618 0.85332 0.0
C1447 C 0.94901 0.41112 0.81989 0.0
C1448 C 0.9923 0.46387 0.75543 0.0
C1449 C 0.02674 0.46321 0.66518 0.0
C1450 C 0.01227 0.45537 0.70272 0.0
C1451 C 0.96914 0.43438 0.81025 0.0
C1452 C 0.9837 0.44109 0.77275 0.0
H1453 H 0.07573 0.46615 0.61777 0.0
H1454 H 0.05277 0.4512 0.67374 0.0
H1455 H 0.0111 0.48823 0.71152 0.0
H1456 H 0.96802 0.46146 0.8899 0.0
H1457 H 0.98956 0.46996 0.83366 0.0
C1458 C 0.5184 0.93246 0.17966 0.0
C1459 C 0.50505 0.93604 0.20756 0.0
C1460 C 0.52705 0.94723 0.14769 0.0
C1461 C 0.5141 0.97829 0.07424 0.0
H1462 H 0.58051 0.02845 1.05953 0.0
C1463 C 0.54648 0.03129 0.93169 0.0
C1464 C 0.56659 0.05527 0.92736 0.0
C1465 C 0.54014 0.01767 0.96452 0.0
C1466 C 0.5617 0.01466 1.06232 0.0
H1467 H 0.48869 0.95833 0.21647 0.0
H1468 H 0.50264 0.98271 0.16221 0.0
H1469 H 0.56836 0.00456 0.11453 0.0
H1470 H 0.59407 0.0831 0.96047 0.0
H1471 H 0.58445 0.05955 1.01575 0.0
H1472 H 0.50757 0.9875 1.02159 0.0
C1473 C 0.50792 0.96918 0.16615 0.0
C1474 C 0.55453 0.00046 0.0949 0.0
C1475 C 0.49989 0.95488 0.19849 0.0
C1476 C 0.57943 0.06457 0.95993 0.0
C1477 C 0.5734 0.0507 0.99284 0.0
C1478 C 0.5214 0.99198 1.04131 0.0
C1479 C 0.52203 0.9662 0.13912 0.0
C1480 C 0.5303 0.98168 0.10266 0.0
C1481 C 0.55322 0.02654 0.99696 0.0
C1482 C 0.5455 0.01112 1.03367 0.0
H1483 H 0.52132 0.91719 0.18126 0.0
H1484 H 0.53705 0.94292 0.12862 0.0
H1485 H 0.49529 0.96452 0.07719 0.0
H1486 H 0.53494 0.02274 0.90907 0.0
H1487 H 0.5245 -0.00031 0.96412 0.0
C1488 C 0.58505 0.52457 0.51404 0.0
C1489 C 0.57 0.51842 0.5449 0.0
C1490 C 0.57974 0.53251 0.48063 0.0
C1491 C 0.52696 0.53075 0.42334 0.0
H1492 H 0.57591 0.5807 0.36453 0.0
C1493 C 0.50862 0.54932 0.26926 0.0
C1494 C 0.51387 0.57287 0.25757 0.0
C1495 C 0.51571 0.54414 0.3031 0.0
C1496 C 0.56157 0.56661 0.38006 0.0
H1497 H 0.5353 0.51453 0.5591 0.0
H1498 H 0.52582 0.52672 0.50273 0.0
H1499 H 0.58713 0.569 0.42053 0.0
H1500 H 0.53092 0.60915 0.27935 0.0
H1501 H 0.54542 0.60089 0.33537 0.0
H1502 H 0.50158 0.52777 0.38229 0.0
C1503 C 0.54275 0.52667 0.5045 0.0
C1504 C 0.56822 0.55959 0.41313 0.0
C1505 C 0.54846 0.51958 0.53802 0.0
C1506 C 0.52712 0.59092 0.28398 0.0
C1507 C 0.53524 0.58587 0.31755 0.0
C1508 C 0.52045 0.53719 0.38981 0.0
C1509 C 0.55812 0.53372 0.47402 0.0
C1510 C 0.5512 0.54137 0.43666 0.0
C1511 C 0.52967 0.56208 0.32891 0.0
C1512 C 0.53733 0.55556 0.36651 0.0
H1513 H 0.60102 0.52277 0.51526 0.0
H1514 H 0.59256 0.53699 0.45921 0.0
H1515 H 0.51259 0.51675 0.43888 0.0
H1516 H 0.49832 0.53406 0.25186 0.0
H1517 H 0.51029 0.5255 0.30883 0.0
C1518 C 0.03629 0.55032 0.87192 0.0
C1519 C 0.05791 0.57276 0.87954 0.0
C1520 C 0.02292 0.54461 0.83884 0.0
C1521 C 0.00721 0.5691 0.7547 0.0
H1522 H 0.98822 0.50765 0.70978 0.0
C1523 C 0.93634 0.52644 0.625 0.0
C1524 C 0.94293 0.5163 0.59597 0.0
C1525 C 0.95004 0.53466 0.65813 0.0
C1526 C 0.99315 0.52503 0.72133 0.0
H1527 H 0.08234 0.60515 0.8509 0.0
H1528 H 0.05815 0.59699 0.7965 0.0
H1529 H 0.01133 0.51897 0.76566 0.0
H1530 H 0.96969 0.50565 0.585 0.0
H1531 H 0.99174 0.51813 0.64108 0.0
H1532 H 0.98841 0.57489 0.71079 0.0
C1533 C 0.0511 0.58347 0.81708 0.0
C1534 C 0.00659 0.53161 0.75448 0.0
C1535 C 0.06507 0.58876 0.84985 0.0
C1536 C 0.96354 0.51387 0.60452 0.0
C1537 C 0.97658 0.52115 0.63783 0.0
C1538 C 0.99308 0.56218 0.72199 0.0
C1539 C 0.02944 0.56094 0.80976 0.0
C1540 C 0.01449 0.55402 0.77279 0.0
C1541 C 0.97073 0.53215 0.66632 0.0
C1542 C 0.98554 0.53984 0.70344 0.0
H1543 H 0.02966 0.53637 0.8919 0.0
H1544 H 0.00701 0.5269 0.8362 0.0
H1545 H 0.01214 0.58652 0.76624 0.0
H1546 H 0.92002 0.52755 0.62272 0.0
H1547 H 0.94366 0.54235 0.67813 0.0
C1548 C 0.49537 0.03521 0.40997 0.0
C1549 C 0.48453 0.04855 0.39943 0.0
C1550 C 0.48701 0.02129 0.44081 0.0
C1551 C 0.44773 0.97487 0.46189 0.0
H1552 H 0.42949 0.98716 0.37033 0.0
C1553 C 0.50112 0.97354 0.35038 0.0
C1554 C 0.49082 0.96504 0.31719 0.0
C1555 C 0.48761 0.97701 0.37635 0.0
C1556 C 0.4339 0.98249 0.39559 0.0
H1557 H 0.46201 0.06327 0.41825 0.0
H1558 H 0.4478 0.03871 0.47007 0.0
H1559 H 0.42217 0.00381 0.42287 0.0
H1560 H 0.46319 0.96178 0.28108 0.0
H1561 H 0.43951 0.96806 0.32632 0.0
H1562 H 0.459 0.95281 0.43475 0.0
C1563 C 0.46194 0.03829 0.45481 0.0
C1564 C 0.42954 0.99192 0.42638 0.0
C1565 C 0.46948 0.05173 0.42389 0.0
C1566 C 0.47072 0.96714 0.30735 0.0
C1567 C 0.45685 0.97011 0.33344 0.0
C1568 C 0.45069 0.96371 0.43189 0.0
C1569 C 0.46609 0.01888 0.45814 0.0
C1570 C 0.44396 0.99442 0.45621 0.0
C1571 C 0.46408 0.9726 0.36886 0.0
C1572 C 0.4479 0.9712 0.39814 0.0
H1573 H 0.50854 0.03395 0.39326 0.0
H1574 H 0.4934 0.00879 0.4462 0.0
H1575 H 0.45528 0.97328 0.48664 0.0
H1576 H 0.51728 0.97316 0.35819 0.0
H1577 H 0.49487 0.98124 0.40285 0.0
C1578 C 0.43058 0.46931 0.74142 0.0
C1579 C 0.44214 0.49118 0.72244 0.0
C1580 C 0.43675 0.46826 0.77645 0.0
C1581 C 0.46801 0.4649 0.82898 0.0
H1582 H 0.5255 0.52724 0.82419 0.0
C1583 C 0.51884 0.47757 0.71359 0.0
C1584 C 0.53975 0.49912 0.70442 0.0
C1585 C 0.50961 0.47404 0.74784 0.0
C1586 C 0.50994 0.50928 0.82597 0.0
H1587 H 0.46877 0.52924 0.72627 0.0
H1588 H 0.48057 0.52751 0.78561 0.0
H1589 H 0.48773 0.52345 0.84448 0.0
H1590 H 0.56711 0.53399 0.72485 0.0
H1591 H 0.55107 0.52823 0.78358 0.0
H1592 H 0.48976 0.44968 0.81224 0.0
C1593 C 0.46633 0.51088 0.77436 0.0
C1594 C 0.48806 0.50708 0.83775 0.0
C1595 C 0.46001 0.51193 0.73948 0.0
C1596 C 0.55047 0.51751 0.73008 0.0
C1597 C 0.54145 0.51391 0.76451 0.0
C1598 C 0.48982 0.46623 0.81905 0.0
C1599 C 0.45535 0.48884 0.79339 0.0
C1600 C 0.46677 0.4863 0.82671 0.0
C1601 C 0.52109 0.49193 0.77429 0.0
C1602 C 0.50936 0.48902 0.80962 0.0
H1603 H 0.41612 0.453 0.72964 0.0
H1604 H 0.42725 0.45104 0.78984 0.0
H1605 H 0.45181 0.44731 0.82898 0.0
H1606 H 0.51009 0.46295 0.69466 0.0
H1607 H 0.49319 0.45718 0.75306 0.0
C1608 C 0.95997 0.46381 1.0696 0.0
C1609 C 0.95461 0.44075 1.05851 0.0
C1610 C 0.96791 0.4716 0.10389 0.0
C1611 C 0.99241 0.49139 0.16915 0.0
H1612 H 0.04337 0.48342 0.12897 0.0
C1613 C 0.02813 0.53923 1.04558 0.0
C1614 C 0.04473 0.5362 1.02488 0.0
C1615 C 0.02277 0.53016 0.08007 0.0
C1616 C 0.0294 0.48653 0.13957 0.0
H1617 H 0.9531 0.40743 0.07534 0.0
H1618 H 0.96908 0.4219 0.13411 0.0
H1619 H 0.00909 0.44985 0.15643 0.0
H1620 H 0.06566 0.51779 1.02308 0.0
H1621 H 0.05738 0.50308 0.08132 0.0
H1622 H 0.01217 0.52845 0.15273 0.0
C1623 C 0.96615 0.43365 0.11678 0.0
C1624 C 0.00974 0.46714 0.15625 0.0
C1625 C 0.95766 0.42566 0.08259 0.0
C1626 C 0.05334 0.52131 1.03805 0.0
C1627 C 0.04865 0.51289 0.07252 0.0
C1628 C 0.01201 0.51141 0.15311 0.0
C1629 C 0.97209 0.45705 0.1278 0.0
C1630 C 0.98841 0.46842 0.15898 0.0
C1631 C 0.03397 0.51783 0.09489 0.0
C1632 C 0.02765 0.50723 0.13133 0.0
H1633 H 0.95736 0.47566 1.05212 0.0
H1634 H 0.97187 0.4897 0.11066 0.0
H1635 H 0.97755 0.49344 0.17902 0.0
H1636 H 0.02007 0.54946 1.03586 0.0
H1637 H 0.01006 0.53329 0.09493 0.0
C1638 C 0.02547 0.45951 0.40832 0.0
C1639 C 0.03747 0.4824 0.42482 0.0
C1640 C 0.01633 0.45686 0.37407 0.0
C1641 C 0.98231 0.45348 0.31846 0.0
H1642 H 0.99381 0.51843 0.31085 0.0
C1643 C 0.95771 0.48025 0.42571 0.0
C1644 C 0.95463 0.50027 0.43075 0.0
C1645 C 0.96153 0.47406 0.39198 0.0
C1646 C 0.98948 0.49973 0.3108 0.0
H1647 H 0.04767 0.51999 0.41884 0.0
H1648 H 0.03096 0.51559 0.36125 0.0
H1649 H 0.02624 0.51003 0.30003 0.0
H1650 H 0.95525 0.53085 0.40446 0.0
H1651 H 0.96234 0.5201 0.34557 0.0
H1652 H 0.94531 0.44269 0.32885 0.0
C1653 C 0.02941 0.49953 0.37322 0.0
C1654 C 0.00837 0.49486 0.30518 0.0
C1655 C 0.03855 0.50213 0.40726 0.0
C1656 C 0.95757 0.51523 0.40162 0.0
C1657 C 0.9611 0.50885 0.36765 0.0
C1658 C 0.96277 0.45764 0.32125 0.0
C1659 C 0.0185 0.47691 0.35548 0.0
C1660 C 0.00578 0.47372 0.32085 0.0
C1661 C 0.9623 0.48771 0.3622 0.0
C1662 C 0.96817 0.48167 0.32687 0.0
H1663 H 0.02426 0.44377 0.42105 0.0
H1664 H 0.00765 0.43905 0.36225 0.0
H1665 H 0.97898 0.43539 0.32354 0.0
H1666 H 0.95586 0.4686 0.44756 0.0
H1667 H 0.96378 0.45837 0.3895 0.0
C1668 C 0.46067 0.95901 0.73605 0.0
C1669 C 0.44351 0.96261 0.75414 0.0
C1670 C 0.46688 0.96666 0.70127 0.0
C1671 C 0.4874 0.99043 0.63628 0.0
H1672 H 0.49367 0.05151 0.66225 0.0
C1673 C 0.55314 0.04191 0.7404 0.0
C1674 C 0.54013 0.04497 0.76827 0.0
C1675 C 0.54437 0.03798 0.70584 0.0
C1676 C 0.49254 0.03461 0.65436 0.0
H1677 H 0.41951 0.9775 0.74956 0.0
H1678 H 0.43073 0.99145 0.68961 0.0
H1679 H 0.45427 0.01743 0.64749 0.0
H1680 H 0.50674 0.04407 0.78206 0.0
H1681 H 0.49043 0.03524 0.72288 0.0
H1682 H 0.52507 0.00581 0.648 0.0
C1683 C 0.43935 0.98241 0.7018 0.0
C1684 C 0.46981 0.01487 0.64619 0.0
C1685 C 0.43319 0.97475 0.73673 0.0
C1686 C 0.51723 0.04191 0.76127 0.0
C1687 C 0.5083 0.03762 0.72691 0.0
C1688 C 0.5102 0.0094 0.64627 0.0
C1689 C 0.45656 0.97879 0.68331 0.0
C1690 C 0.46722 0.99167 0.64894 0.0
C1691 C 0.52214 0.03648 0.69844 0.0
C1692 C 0.51131 0.02986 0.66257 0.0
H1693 H 0.46867 0.94934 0.74811 0.0
H1694 H 0.48029 0.96329 0.68908 0.0
H1695 H 0.48572 0.97308 0.62991 0.0
H1696 H 0.57106 0.04456 0.74442 0.0
H1697 H 0.55526 0.03664 0.68485 0.0
C1698 C 0.5252 0.57946 1.05179 0.0
C1699 C 0.50922 0.56112 0.07511 0.0
C1700 C 0.53044 0.57385 1.01863 0.0
C1701 C 0.56004 0.55206 1.01868 0.0
H1702 H 0.51641 0.48438 1.00906 0.0
C1703 C 0.52636 0.49193 0.14168 0.0
C1704 C 0.5049 0.46977 0.1373 0.0
C1705 C 0.53782 0.50627 0.11232 0.0
C1706 C 0.52905 0.50326 1.01262 0.0
H1707 H 0.48217 0.52327 0.0784 0.0
H1708 H 0.4923 0.51311 1.02107 0.0
H1709 H 0.51848 0.51175 0.96364 0.0
H1710 H 0.4741 0.44996 0.10302 0.0
H1711 H 0.49143 0.47712 1.05399 0.0
H1712 H 0.56863 0.54551 1.07036 0.0
C1713 C 0.50144 0.53194 1.02886 0.0
C1714 C 0.53064 0.5191 0.98595 0.0
C1715 C 0.49585 0.5375 1.0622 0.0
C1716 C 0.49139 0.46613 0.10666 0.0
C1717 C 0.50208 0.48125 0.07781 0.0
C1718 C 0.55799 0.53714 1.04698 0.0
C1719 C 0.52171 0.54966 1.00959 0.0
C1720 C 0.53993 0.54331 0.99582 0.0
C1721 C 0.5266 0.49973 0.079 0.0
C1722 C 0.53924 0.51281 1.04609 0.0
H1723 H 0.53473 0.59827 1.05956 0.0
H1724 H 0.54486 0.5881 1.00349 0.0
H1725 H 0.57191 0.57129 1.02216 0.0
H1726 H 0.53602 0.49623 0.16648 0.0
H1727 H 0.55588 0.52139 0.11578 0.0
C1728 C 0.37118 0.95127 0.67414 0.0
C1729 C 0.35325 0.92675 0.67496 0.0
C1730 C 0.38505 0.96113 0.64397 0.0
C1731 C 0.37232 0.95397 0.55306 0.0
H1732 H 0.43459 0.01293 0.54935 0.0
C1733 C 0.39261 0.02662 0.44915 0.0
C1734 C 0.40451 0.05056 0.46167 0.0
C1735 C 0.39095 0.00801 0.47002 0.0
C1736 C 0.41717 0.99646 0.54997 0.0
H1737 H 0.33744 0.89277 0.64622 0.0
H1738 H 0.36121 0.9104 0.59249 0.0
H1739 H 0.42637 0.98357 0.59621 0.0
H1740 H 0.42329 0.07382 0.50615 0.0
H1741 H 0.4195 0.04097 0.54357 0.0
H1742 H 0.36214 0.96749 0.5091 0.0
C1743 C 0.36448 0.92185 0.61542 0.0
C1744 C 0.41264 0.97956 0.5764 0.0
C1745 C 0.35064 0.9119 0.64584 0.0
C1746 C 0.41392 0.05547 0.49603 0.0
C1747 C 0.41215 0.03674 0.51708 0.0
C1748 C 0.37677 0.97087 0.52689 0.0
C1749 C 0.38108 0.94677 0.61378 0.0
C1750 C 0.38958 0.95898 0.57949 0.0
C1751 C 0.40106 0.01288 0.50397 0.0
C1752 C 0.39868 0.99293 0.52642 0.0
H1753 H 0.37365 0.96324 0.69611 0.0
H1754 H 0.39735 0.98048 0.64334 0.0
H1755 H 0.35433 0.93834 0.55482 0.0
H1756 H 0.38503 0.02235 0.42279 0.0
H1757 H 0.38225 0.98987 0.45914 0.0
C1758 C 0.41624 0.36969 1.01577 0.0
C1759 C 0.43242 0.36158 1.00684 0.0
C1760 C 0.41091 0.3826 0.99153 0.0
C1761 C 0.42524 0.42017 0.91778 0.0
H1762 H 0.36073 0.37574 0.88275 0.0
C1763 C 0.36132 0.44053 0.82985 0.0
C1764 C 0.35351 0.4258 0.79957 0.0
C1765 C 0.37515 0.43706 0.85525 0.0
C1766 C 0.37872 0.38831 0.89242 0.0
H1767 H 0.45671 0.36152 0.96665 0.0
H1768 H 0.44692 0.3841 0.92351 0.0
H1769 H 0.37846 0.36243 0.92818 0.0
H1770 H 0.35434 0.39653 0.77133 0.0
H1771 H 0.37804 0.39025 0.8159 0.0
H1772 H 0.4251 0.44622 0.88203 0.0
C1773 C 0.43871 0.38054 0.94951 0.0
C1774 C 0.38879 0.38073 0.9182 0.0
C1775 C 0.44395 0.36739 0.97378 0.0
C1776 C 0.36011 0.40804 0.79457 0.0
C1777 C 0.3737 0.40452 0.81985 0.0
C1778 C 0.41492 0.42796 0.89214 0.0
C1779 C 0.42181 0.38774 0.95817 0.0
C1780 C 0.41209 0.39651 0.93079 0.0
C1781 C 0.38092 0.41867 0.85057 0.0
C1782 C 0.39172 0.41188 0.87913 0.0
H1783 H 0.40704 0.36531 1.04108 0.0
H1784 H 0.39751 0.38773 0.99823 0.0
H1785 H 0.44325 0.43252 0.92758 0.0
H1786 H 0.35675 0.45462 0.83376 0.0
H1787 H 0.38056 0.44804 0.87902 0.0
C1788 C 0.92144 0.35777 0.15977 0.0
C1789 C 0.92818 0.34895 0.13037 0.0
C1790 C 0.93893 0.37248 0.18452 0.0
C1791 C 0.99534 0.38103 0.21884 0.0
H1792 H 0.00537 0.44117 0.26019 0.0
C1793 C 0.04098 0.41499 0.34796 0.0
C1794 C 0.06601 0.42771 0.3412 0.0
C1795 C 0.02473 0.41311 0.32214 0.0
C1796 C 0.00269 0.42449 0.24847 0.0
H1797 H 0.95798 0.3487 0.10295 0.0
H1798 H 0.98833 0.37419 0.14594 0.0
H1799 H 0.97439 0.42089 0.21381 0.0
H1800 H 0.09375 0.45017 0.3034 0.0
H1801 H 0.06485 0.44573 0.25719 0.0
H1802 H 0.02315 0.38426 0.25336 0.0
C1803 C 0.96973 0.36976 0.15013 0.0
C1804 C 0.98501 0.41287 0.22242 0.0
C1805 C 0.95242 0.35514 0.12571 0.0
C1806 C 0.07453 0.43986 0.30894 0.0
C1807 C 0.05814 0.43782 0.28292 0.0
C1808 C 0.01284 0.39256 0.24449 0.0
C1809 C 0.96312 0.37825 0.17997 0.0
C1810 C 0.98129 0.39103 0.20754 0.0
C1811 C 0.0332 0.42384 0.28919 0.0
C1812 C 0.01653 0.41421 0.25949 0.0
H1813 H 0.90286 0.35358 0.16325 0.0
H1814 H 0.9335 0.37882 0.20752 0.0
H1815 H 0.9925 0.364 0.2082 0.0
H1816 H 0.03382 0.40527 0.37245 0.0
H1817 H 0.00549 0.40169 0.32691 0.0
C1818 C 0.63249 0.03599 0.68466 0.0
C1819 C 0.63544 0.05896 0.67803 0.0
C1820 C 0.62351 0.01821 0.65833 0.0
C1821 C 0.60092 0.98202 0.5966 0.0
H1822 H 0.63531 0.01317 0.51057 0.0
C1823 C 0.58661 0.93929 0.45641 0.0
C1824 C 0.60675 0.94995 0.43352 0.0
C1825 C 0.58889 0.94673 0.49165 0.0
C1826 C 0.62585 0.00409 0.53451 0.0
H1827 H 0.62856 0.08051 0.64091 0.0
H1828 H 0.61248 0.04934 0.59502 0.0
H1829 H 0.63741 0.03767 0.56067 0.0
H1830 H 0.64569 0.97335 0.43119 0.0
H1831 H 0.64981 0.98543 0.49292 0.0
H1832 H 0.58957 0.94825 0.56969 0.0
C1833 C 0.61783 0.04529 0.62004 0.0
C1834 C 0.6266 0.01819 0.56304 0.0
C1835 C 0.62706 0.06313 0.64615 0.0
C1836 C 0.62976 0.96508 0.44788 0.0
C1837 C 0.63208 0.97219 0.48321 0.0
C1838 C 0.60002 0.96776 0.56764 0.0
C1839 C 0.61724 0.02317 0.62515 0.0
C1840 C 0.61423 0.00742 0.59444 0.0
C1841 C 0.61143 0.96459 0.50454 0.0
C1842 C 0.61279 0.97876 0.53647 0.0
H1843 H 0.63865 0.03234 0.70928 0.0
H1844 H 0.62324 0.00134 0.66306 0.0
H1845 H 0.59122 0.97325 0.62055 0.0
H1846 H 0.56872 0.92683 0.44632 0.0
H1847 H 0.57269 0.94026 0.5076 0.0
C1848 C 0.57634 0.64146 0.97812 0.0
C1849 C 0.58698 0.64703 1.01171 0.0
C1850 C 0.57856 0.62481 0.95654 0.0
C1851 C 0.61516 0.59484 0.94559 0.0
H1852 H 0.56387 0.55483 0.88006 0.0
C1853 C 0.63689 0.55058 0.83526 0.0
C1854 C 0.63574 0.56196 0.80424 0.0
C1855 C 0.62323 0.54955 0.86482 0.0
C1856 C 0.57807 0.56546 0.89888 0.0
H1857 H 0.60928 0.64077 1.04844 0.0
H1858 H 0.61235 0.61127 1.01182 0.0
H1859 H 0.55705 0.57887 0.92443 0.0
H1860 H 0.61771 0.5793 0.77909 0.0
H1861 H 0.5939 0.57712 0.83002 0.0
H1862 H 0.63643 0.58218 0.9196 0.0
C1863 C 0.60258 0.61975 1.00159 0.0
C1864 C 0.57438 0.57956 0.92376 0.0
C1865 C 0.60069 0.63657 1.02274 0.0
C1866 C 0.61905 0.57027 0.80238 0.0
C1867 C 0.60515 0.56885 0.83159 0.0
C1868 C 0.61868 0.58052 0.92123 0.0
C1869 C 0.59124 0.61335 0.96846 0.0
C1870 C 0.59338 0.59536 0.94612 0.0
C1871 C 0.6081 0.55969 0.86361 0.0
C1872 C 0.6007 0.5668 0.89637 0.0
H1873 H 0.56557 0.64922 0.96915 0.0
H1874 H 0.57016 0.62078 0.93074 0.0
H1875 H 0.63028 0.6068 0.96217 0.0
H1876 H 0.64898 0.54329 0.83712 0.0
H1877 H 0.62566 0.54227 0.88927 0.0
C1878 C 0.03376 0.60658 0.11599 0.0
C1879 C 0.05659 0.61928 0.13237 0.0
C1880 C 0.01426 0.58772 0.13321 0.0
C1881 C 0.99543 0.55118 0.21578 0.0
H1882 H 0.94412 0.56707 0.21335 0.0
C1883 C 0.95483 0.56643 0.33632 0.0
C1884 C 0.93197 0.56462 0.33594 0.0
C1885 C 0.96302 0.55929 0.30707 0.0
C1886 C 0.95765 0.56152 0.21379 0.0
H1887 H 0.07697 0.62144 0.17922 0.0
H1888 H 0.04224 0.58966 0.21076 0.0
H1889 H 0.97395 0.5813 0.16703 0.0
H1890 H 0.8988 0.55183 0.30615 0.0
H1891 H 0.91334 0.53959 0.25441 0.0
H1892 H 0.97981 0.533 0.26438 0.0
C1893 C 0.03975 0.59371 0.18388 0.0
C1894 C 0.97496 0.56981 0.18711 0.0
C1895 C 0.05952 0.61233 0.16624 0.0
C1896 C 0.91678 0.55403 0.30665 0.0
C1897 C 0.92496 0.54675 0.27732 0.0
C1898 C 0.97798 0.5428 0.24252 0.0
C1899 C 0.01677 0.58163 0.16783 0.0
C1900 C 0.99496 0.5662 0.18918 0.0
C1901 C 0.94852 0.55015 0.27676 0.0
C1902 C 0.96009 0.54956 0.24312 0.0
H1903 H 0.0307 0.6116 0.09005 0.0
H1904 H 0.99689 0.57864 0.11998 0.0
H1905 H 0.01026 0.5475 0.21745 0.0
H1906 H 0.96695 0.57453 0.35853 0.0
H1907 H 0.98143 0.56261 0.30737 0.0
C1908 C 0.50694 0.1169 0.45165 0.0
C1909 C 0.51332 0.10783 0.42102 0.0
C1910 C 0.51458 0.11619 0.48777 0.0
C1911 C 0.55779 0.10166 0.5472 0.0
H1912 H 0.52402 0.10942 0.6268 0.0
C1913 C 0.59493 0.10669 0.69908 0.0
C1914 C 0.58095 0.1029 0.73068 0.0
C1915 C 0.58666 0.10708 0.66339 0.0
C1916 C 0.53412 0.10714 0.60555 0.0
H1917 H 0.53179 0.08755 0.41153 0.0
H1918 H 0.54626 0.08796 0.47109 0.0
H1919 H 0.51116 0.1106 0.56613 0.0
H1920 H 0.54405 0.09321 0.74328 0.0
H1921 H 0.5305 0.09577 0.68359 0.0
H1922 H 0.58087 0.09839 0.58648 0.0
C1923 C 0.53564 0.09672 0.46716 0.0
C1924 C 0.52654 0.10797 0.56936 0.0
C1925 C 0.52763 0.09714 0.43112 0.0
C1926 C 0.55716 0.09861 0.72233 0.0
C1927 C 0.5489 0.0994 0.68646 0.0
C1928 C 0.56559 0.1012 0.58333 0.0
C1929 C 0.52948 0.10616 0.49761 0.0
C1930 C 0.53793 0.10525 0.53811 0.0
C1931 C 0.56322 0.10357 0.65493 0.0
C1932 C 0.55422 0.10391 0.61459 0.0
H1933 H 0.49536 0.12462 0.4478 0.0
H1934 H 0.50852 0.12381 0.50831 0.0
H1935 H 0.56794 0.09941 0.52599 0.0
H1936 H 0.61294 0.10917 0.70181 0.0
H1937 H 0.59924 0.11028 0.64207 0.0
C1938 C 0.40572 0.50144 0.77756 0.0
C1939 C 0.40895 0.51663 0.7476 0.0
C1940 C 0.41419 0.50997 0.81339 0.0
C1941 C 0.44887 0.56949 0.875 0.0
H1942 H 0.43543 0.52386 0.95027 0.0
C1943 C 0.46473 0.56552 1.04778 0.0
C1944 C 0.47922 0.59051 1.05773 0.0
C1945 C 0.45633 0.55681 1.01185 0.0
C1946 C 0.4397 0.5375 0.93038 0.0
H1947 H 0.42281 0.55456 0.73971 0.0
H1948 H 0.43817 0.56951 0.7987 0.0
H1949 H 0.42205 0.50964 0.89006 0.0
H1950 H 0.49637 0.62499 1.03094 0.0
H1951 H 0.48212 0.61068 0.97095 0.0
H1952 H 0.46656 0.59733 0.91529 0.0
C1953 C 0.4295 0.55021 0.79435 0.0
C1954 C 0.43171 0.52899 0.89426 0.0
C1955 C 0.42089 0.54146 0.75845 0.0
C1956 C 0.48481 0.6057 1.02721 0.0
C1957 C 0.47643 0.59712 0.99132 0.0
C1958 C 0.45691 0.57799 0.91109 0.0
C1959 C 0.42664 0.53493 0.824 0.0
C1960 C 0.43577 0.54448 0.86443 0.0
C1961 C 0.46173 0.57212 0.98143 0.0
C1962 C 0.45276 0.56252 0.94096 0.0
H1963 H 0.39618 0.48206 0.77344 0.0
H1964 H 0.41061 0.49636 0.83304 0.0
H1965 H 0.45322 0.58313 0.85509 0.0
H1966 H 0.46073 0.55197 1.06738 0.0
H1967 H 0.4457 0.53745 1.00816 0.0
C1968 C 0.90376 0.4337 0.09433 0.0
C1969 C 0.89413 0.40879 0.08448 0.0
C1970 C 0.90407 0.44247 0.13033 0.0
C1971 C 0.89388 0.42358 0.23318 0.0
H1972 H 0.90152 0.48685 0.24944 0.0
C1973 C 0.90175 0.46469 0.38598 0.0
C1974 C 0.89658 0.48366 0.39437 0.0
C1975 C 0.90127 0.45545 0.35015 0.0
C1976 C 0.89924 0.46894 0.24655 0.0
H1977 H 0.87934 0.37464 0.11197 0.0
H1978 H 0.87998 0.38911 0.17236 0.0
H1979 H 0.90105 0.47242 0.18913 0.0
H1980 H 0.88926 0.50838 0.36511 0.0
H1981 H 0.88902 0.49349 0.30535 0.0
H1982 H 0.89245 0.42029 0.2907 0.0
C1983 C 0.88673 0.40248 0.1516 0.0
C1984 C 0.8991 0.46038 0.21049 0.0
C1985 C 0.88615 0.39382 0.11549 0.0
C1986 C 0.89243 0.49327 0.36253 0.0
C1987 C 0.89252 0.48454 0.3268 0.0
C1988 C 0.89437 0.43229 0.26928 0.0
C1989 C 0.89557 0.42735 0.16115 0.0
C1990 C 0.8962 0.43711 0.20164 0.0
C1991 C 0.89678 0.465 0.31842 0.0
C1992 C 0.89685 0.45539 0.27808 0.0
H1993 H 0.91257 0.44714 0.07444 0.0
H1994 H 0.91198 0.46178 0.13388 0.0
H1995 H 0.8918 0.40577 0.23026 0.0
H1996 H 0.90767 0.45755 0.40688 0.0
H1997 H 0.90545 0.44103 0.34748 0.0
C1998 C 0.47666 0.92278 0.43167 0.0
C1999 C 0.47287 0.90219 0.41128 0.0
C2000 C 0.46923 0.92219 0.46832 0.0
C2001 C 0.44263 0.88156 0.55537 0.0
H2002 H 0.43878 0.9363 0.59174 0.0
C2003 C 0.41601 0.8862 0.71302 0.0
C2004 C 0.40898 0.90287 0.72639 0.0
C2005 C 0.42383 0.88578 0.67661 0.0
C2006 C 0.43947 0.92046 0.58308 0.0
H2007 H 0.46186 0.86491 0.42226 0.0
H2008 H 0.44694 0.86295 0.48322 0.0
H2009 H 0.451 0.93583 0.53061 0.0
H2010 H 0.40249 0.9303 0.70393 0.0
H2011 H 0.41631 0.93046 0.64372 0.0
H2012 H 0.43115 0.86628 0.60811 0.0
C2013 C 0.4548 0.88017 0.46986 0.0
C2014 C 0.44694 0.92024 0.54654 0.0
C2015 C 0.46274 0.88099 0.43306 0.0
C2016 C 0.40907 0.91796 0.69815 0.0
C2017 C 0.41702 0.91784 0.66195 0.0
C2018 C 0.4354 0.8819 0.59211 0.0
C2019 C 0.45736 0.90083 0.48943 0.0
C2020 C 0.44894 0.90078 0.53049 0.0
C2021 C 0.42494 0.90174 0.64898 0.0
C2022 C 0.43331 0.90134 0.60805 0.0
H2023 H 0.4864 0.94024 0.41915 0.0
H2024 H 0.47364 0.93927 0.4805 0.0
H2025 H 0.44344 0.86581 0.54663 0.0
H2026 H 0.41411 0.87215 0.72999 0.0
H2027 H 0.42873 0.87223 0.67015 0.0
C2028 C 0.57133 0.46134 0.75736 0.0
C2029 C 0.58175 0.48598 0.74594 0.0
C2030 C 0.5638 0.45297 0.79387 0.0
C2031 C 0.55013 0.47209 0.88903 0.0
H2032 H 0.54886 0.41507 0.92588 0.0
C2033 C 0.51077 0.43541 1.03906 0.0
C2034 C 0.51838 0.42239 1.06166 0.0
C2035 C 0.51783 0.44153 1.00214 0.0
C2036 C 0.54888 0.43116 0.91696 0.0
H2037 H 0.5916 0.52031 0.77112 0.0
H2038 H 0.57811 0.50641 0.83109 0.0
H2039 H 0.56064 0.42744 0.864 0.0
H2040 H 0.53605 0.40142 1.05365 0.0
H2041 H 0.55094 0.41427 0.99276 0.0
H2042 H 0.53783 0.47555 0.94153 0.0
C2043 C 0.57569 0.49287 0.8117 0.0
C2044 C 0.55579 0.43848 0.88006 0.0
C2045 C 0.5837 0.50112 0.77567 0.0
C2046 C 0.53227 0.41435 1.04158 0.0
C2047 C 0.54005 0.4211 1.00463 0.0
C2048 C 0.54267 0.46446 0.92557 0.0
C2049 C 0.56543 0.46832 0.82314 0.0
C2050 C 0.55702 0.4595 0.86404 0.0
C2051 C 0.53357 0.43559 0.98302 0.0
C2052 C 0.54177 0.44366 0.94181 0.0
H2053 H 0.56896 0.44805 0.73832 0.0
H2054 H 0.55627 0.43386 0.79892 0.0
H2055 H 0.55013 0.48821 0.88025 0.0
H2056 H 0.498 0.44021 1.04969 0.0
H2057 H 0.50967 0.45012 0.9876 0.0
C2058 C 0.08246 0.49986 0.36557 0.0
C2059 C 0.10054 0.51302 0.39204 0.0
C2060 C 0.08245 0.50803 0.32958 0.0
C2061 C 0.12309 0.55446 0.25386 0.0
H2062 H 0.06288 0.53141 0.20342 0.0
C2063 C 0.11987 0.5776 0.09349 0.0
C2064 C 0.09973 0.57855 0.07839 0.0
C2065 C 0.12067 0.57013 0.13 0.0
C2066 C 0.08027 0.53844 0.21622 0.0
H2067 H 0.13672 0.54365 0.39128 0.0
H2068 H 0.13677 0.55867 0.33164 0.0
H2069 H 0.06299 0.51859 0.26442 0.0
H2070 H 0.06522 0.57318 0.09729 0.0
H2071 H 0.06595 0.55969 0.15712 0.0
H2072 H 0.14039 0.57377 0.20512 0.0
C2073 C 0.12073 0.54234 0.34 0.0
C2074 C 0.08034 0.53073 0.25259 0.0
C2075 C 0.12034 0.53413 0.37639 0.0
C2076 C 0.08099 0.572 0.10456 0.0
C2077 C 0.08148 0.56415 0.14051 0.0
C2078 C 0.12306 0.5617 0.21711 0.0
C2079 C 0.10158 0.52985 0.31459 0.0
C2080 C 0.10173 0.53843 0.27368 0.0
C2081 C 0.10133 0.56273 0.15548 0.0
C2082 C 0.10163 0.55425 0.19626 0.0
H2083 H 0.068 0.48208 0.37232 0.0
H2084 H 0.06736 0.49626 0.31283 0.0
H2085 H 0.14046 0.56148 0.26669 0.0
H2086 H 0.13572 0.58349 0.07765 0.0
H2087 H 0.13695 0.57022 0.13822 0.0
loop_
_geom_bond_atom_site_label_1
_geom_bond_atom_site_label_2
_geom_bond_distance
_geom_bond_site_symmetry_2
_ccdc_geom_bond_type
Tb0 N31 2.660 . S
Tb0 N38 2.600 . S
Tb0 O44 2.546 . S
Tb0 O45 2.610 . S
Tb0 O47 2.320 . S
Tb0 O48 2.552 . S
Tb0 O49 2.413 . S
Tb0 O51 2.362 . S
Tb0 O52 2.421 . S
Tb0 C64 2.833 . S
C1 C4 1.432 . S
C1 C5 1.414 . S
C1 N8 1.359 . S
C2 C4 1.417 . S
C2 C6 1.432 . S
C2 C14 1.410 . S
C3 C5 1.444 . S
C3 C6 1.317 . S
C3 H26 0.929 . S
C4 C1 1.432 . S
C4 C2 1.417 . S
C4 N12 1.360 . S
C5 C1 1.414 . S
C5 C3 1.444 . S
C5 C10 1.385 . S
C6 C2 1.432 . S
C6 C3 1.317 . S
C6 H18 0.930 . S
C7 C9 1.392 . S
C7 C10 1.370 . S
C7 H19 0.931 . S
N8 C1 1.359 . S
N8 C9 1.327 . S
N8 Tb11 2.600 . S
C9 C7 1.392 . S
C9 N8 1.327 . S
C9 H16 0.930 . S
C10 C5 1.385 . S
C10 C7 1.370 . S
C10 H29 0.930 . S
Tb11 N8 2.600 . S
Tb11 N12 2.660 . S
Tb11 O45 2.362 . S
Tb11 O46 2.421 . S
Tb11 O50 2.546 . S
Tb11 O51 2.610 . S
Tb11 O53 2.320 . S
Tb11 O54 2.552 . S
Tb11 O55 2.413 . S
Tb11 C75 2.833 . S
N12 C4 1.360 . S
N12 Tb11 2.660 . S
N12 C13 1.305 . S
C13 N12 1.305 . S
C13 C15 1.407 . S
C13 H20 0.930 . S
C14 C2 1.410 . S
C14 C15 1.345 . S
C14 H22 0.930 . S
C15 C13 1.407 . S
C15 C14 1.345 . S
C15 H17 0.930 . S
H16 C9 0.930 . S
H17 C15 0.930 . S
H18 C6 0.930 . S
H19 C7 0.931 . S
H20 C13 0.930 . S
H21 C35 0.930 . S
H22 C14 0.930 . S
H23 C41 0.930 . S
H24 C32 0.930 . S
H25 C39 0.931 . S
H26 C3 0.929 . S
H27 C33 0.930 . S
H28 C66 0.930 . S
H29 C10 0.930 . S
H30 C65 0.929 . S
N31 Tb0 2.660 . S
N31 C32 1.305 . S
N31 C36 1.360 . S
C32 H24 0.930 . S
C32 N31 1.305 . S
C32 C35 1.407 . S
C33 H27 0.930 . S
C33 C34 1.410 . S
C33 C35 1.345 . S
C34 C33 1.410 . S
C34 C36 1.417 . S
C34 C66 1.432 . S
C35 H21 0.930 . S
C35 C32 1.407 . S
C35 C33 1.345 . S
C36 N31 1.360 . S
C36 C34 1.417 . S
C36 C40 1.432 . S
H37 C42 0.930 . S
N38 Tb0 2.600 . S
N38 C40 1.359 . S
N38 C41 1.327 . S
C39 H25 0.931 . S
C39 C41 1.392 . S
C39 C42 1.370 . S
C40 C36 1.432 . S
C40 N38 1.359 . S
C40 C43 1.414 . S
C41 H23 0.930 . S
C41 N38 1.327 . S
C41 C39 1.392 . S
C42 H37 0.930 . S
C42 C39 1.370 . S
C42 C43 1.385 . S
C43 C40 1.414 . S
C43 C42 1.385 . S
C43 C65 1.444 . S
O44 Tb0 2.546 . S
O44 C64 1.251 . S
O45 Tb0 2.610 . S
O45 Tb11 2.362 . S
O45 C56 1.283 . S
O46 Tb11 2.421 . S
O46 C63 1.262 . S
O47 Tb0 2.320 . S
O47 C63 1.260 . S
O48 Tb0 2.552 . S
O48 C56 1.243 . S
O49 Tb0 2.413 . S
O49 C64 1.256 . S
O50 Tb11 2.546 . S
O50 C75 1.251 . S
O51 Tb0 2.362 . S
O51 Tb11 2.610 . S
O51 C67 1.283 . S
O52 Tb0 2.421 . S
O52 C74 1.262 . S
O53 Tb11 2.320 . S
O53 C74 1.260 . S
O54 Tb11 2.552 . S
O54 C67 1.243 . S
O55 Tb11 2.413 . S
O55 C75 1.256 . S
C56 O45 1.283 . S
C56 O48 1.243 . S
C57 C59 1.382 . S
C57 C61 1.393 . S
C57 C64 1.500 . S
C58 C59 1.400 . S
C58 C60 1.384 . S
C59 C57 1.382 . S
C59 C58 1.400 . S
C59 H76 0.930 . S
C60 C58 1.384 . S
C60 C62 1.392 . S
C60 H77 0.931 . S
C61 C57 1.393 . S
C61 C62 1.401 . S
C61 H78 0.930 . S
C62 C60 1.392 . S
C62 C61 1.401 . S
C62 H79 0.930 . S
C63 O46 1.262 . S
C63 O47 1.260 . S
C64 Tb0 2.833 . S
C64 O44 1.251 . S
C64 O49 1.256 . S
C64 C57 1.500 . S
C65 H30 0.929 . S
C65 C43 1.444 . S
C65 C66 1.317 . S
C66 H28 0.930 . S
C66 C34 1.432 . S
C66 C65 1.317 . S
C67 O51 1.283 . S
C67 O54 1.243 . S
C68 C69 1.382 . S
C68 C72 1.393 . S
C68 C75 1.500 . S
C69 C68 1.382 . S
C69 C70 1.400 . S
C69 H80 0.930 . S
C70 C69 1.400 . S
C70 C71 1.384 . S
C71 C70 1.384 . S
C71 C73 1.392 . S
C71 H81 0.931 . S
C72 C68 1.393 . S
C72 C73 1.401 . S
C72 H82 0.930 . S
C73 C71 1.392 . S
C73 C72 1.401 . S
C73 H83 0.930 . S
C74 O52 1.262 . S
C74 O53 1.260 . S
C75 Tb11 2.833 . S
C75 O50 1.251 . S
C75 O55 1.256 . S
C75 C68 1.500 . S
H76 C59 0.930 . S
H77 C60 0.931 . S
H78 C61 0.930 . S
H79 C62 0.930 . S
H80 C69 0.930 . S
H81 C71 0.931 . S
H82 C72 0.930 . S
H83 C73 0.930 . S
Tb84 N115 2.660 . S
Tb84 N122 2.600 . S
Tb84 O128 2.546 . S
Tb84 O129 2.610 . S
Tb84 O131 2.320 . S
Tb84 O132 2.552 . S
Tb84 O133 2.413 . S
Tb84 O135 2.362 . S
Tb84 O136 2.421 . S
Tb84 C148 2.833 . S
C85 C88 1.432 . S
C85 C89 1.414 . S
C85 N92 1.359 . S
C86 C88 1.417 . S
C86 C90 1.432 . S
C86 C98 1.410 . S
C87 C89 1.444 . S
C87 C90 1.317 . S
C87 H110 0.929 . S
C88 C85 1.432 . S
C88 C86 1.417 . S
C88 N96 1.360 . S
C89 C85 1.414 . S
C89 C87 1.444 . S
C89 C94 1.385 . S
C90 C86 1.432 . S
C90 C87 1.317 . S
C90 H102 0.930 . S
C91 C93 1.392 . S
C91 C94 1.370 . S
C91 H103 0.931 . S
N92 C85 1.359 . S
N92 C93 1.327 . S
N92 Tb95 2.600 . S
C93 C91 1.392 . S
C93 N92 1.327 . S
C93 H100 0.930 . S
C94 C89 1.385 . S
C94 C91 1.370 . S
C94 H113 0.930 . S
Tb95 N92 2.600 . S
Tb95 N96 2.660 . S
Tb95 O129 2.362 . S
Tb95 O130 2.421 . S
Tb95 O134 2.546 . S
Tb95 O135 2.610 . S
Tb95 O137 2.320 . S
Tb95 O138 2.552 . S
Tb95 O139 2.413 . S
Tb95 C159 2.833 . S
N96 C88 1.360 . S
N96 Tb95 2.660 . S
N96 C97 1.305 . S
C97 N96 1.305 . S
C97 C99 1.407 . S
C97 H104 0.930 . S
C98 C86 1.410 . S
C98 C99 1.345 . S
C98 H106 0.930 . S
C99 C97 1.407 . S
C99 C98 1.345 . S
C99 H101 0.930 . S
H100 C93 0.930 . S
H101 C99 0.930 . S
H102 C90 0.930 . S
H103 C91 0.931 . S
H104 C97 0.930 . S
H105 C119 0.930 . S
H106 C98 0.930 . S
H107 C125 0.930 . S
H108 C116 0.930 . S
H109 C123 0.931 . S
H110 C87 0.929 . S
H111 C117 0.930 . S
H112 C150 0.930 . S
H113 C94 0.930 . S
H114 C149 0.929 . S
N115 Tb84 2.660 . S
N115 C116 1.305 . S
N115 C120 1.360 . S
C116 H108 0.930 . S
C116 N115 1.305 . S
C116 C119 1.407 . S
C117 H111 0.930 . S
C117 C118 1.410 . S
C117 C119 1.345 . S
C118 C117 1.410 . S
C118 C120 1.417 . S
C118 C150 1.432 . S
C119 H105 0.930 . S
C119 C116 1.407 . S
C119 C117 1.345 . S
C120 N115 1.360 . S
C120 C118 1.417 . S
C120 C124 1.432 . S
H121 C126 0.930 . S
N122 Tb84 2.600 . S
N122 C124 1.359 . S
N122 C125 1.327 . S
C123 H109 0.931 . S
C123 C125 1.392 . S
C123 C126 1.370 . S
C124 C120 1.432 . S
C124 N122 1.359 . S
C124 C127 1.414 . S
C125 H107 0.930 . S
C125 N122 1.327 . S
C125 C123 1.392 . S
C126 H121 0.930 . S
C126 C123 1.370 . S
C126 C127 1.385 . S
C127 C124 1.414 . S
C127 C126 1.385 . S
C127 C149 1.444 . S
O128 Tb84 2.546 . S
O128 C148 1.251 . S
O129 Tb84 2.610 . S
O129 Tb95 2.362 . S
O129 C140 1.283 . S
O130 Tb95 2.421 . S
O130 C147 1.262 . S
O131 Tb84 2.320 . S
O131 C147 1.260 . S
O132 Tb84 2.552 . S
O132 C140 1.243 . S
O133 Tb84 2.413 . S
O133 C148 1.256 . S
O134 Tb95 2.546 . S
O134 C159 1.251 . S
O135 Tb84 2.362 . S
O135 Tb95 2.610 . S
O135 C151 1.283 . S
O136 Tb84 2.421 . S
O136 C158 1.262 . S
O137 Tb95 2.320 . S
O137 C158 1.260 . S
O138 Tb95 2.552 . S
O138 C151 1.243 . S
O139 Tb95 2.413 . S
O139 C159 1.256 . S
C140 O129 1.283 . S
C140 O132 1.243 . S
C141 C143 1.382 . S
C141 C145 1.393 . S
C141 C148 1.500 . S
C142 C143 1.400 . S
C142 C144 1.384 . S
C143 C141 1.382 . S
C143 C142 1.400 . S
C143 H160 0.930 . S
C144 C142 1.384 . S
C144 C146 1.392 . S
C144 H161 0.931 . S
C145 C141 1.393 . S
C145 C146 1.401 . S
C145 H162 0.930 . S
C146 C144 1.392 . S
C146 C145 1.401 . S
C146 H163 0.930 . S
C147 O130 1.262 . S
C147 O131 1.260 . S
C148 Tb84 2.833 . S
C148 O128 1.251 . S
C148 O133 1.256 . S
C148 C141 1.500 . S
C149 H114 0.929 . S
C149 C127 1.444 . S
C149 C150 1.317 . S
C150 H112 0.930 . S
C150 C118 1.432 . S
C150 C149 1.317 . S
C151 O135 1.283 . S
C151 O138 1.243 . S
C152 C153 1.382 . S
C152 C156 1.393 . S
C152 C159 1.500 . S
C153 C152 1.382 . S
C153 C154 1.400 . S
C153 H164 0.930 . S
C154 C153 1.400 . S
C154 C155 1.384 . S
C155 C154 1.384 . S
C155 C157 1.392 . S
C155 H165 0.931 . S
C156 C152 1.393 . S
C156 C157 1.401 . S
C156 H166 0.930 . S
C157 C155 1.392 . S
C157 C156 1.401 . S
C157 H167 0.930 . S
C158 O136 1.262 . S
C158 O137 1.260 . S
C159 Tb95 2.833 . S
C159 O134 1.251 . S
C159 O139 1.256 . S
C159 C152 1.500 . S
H160 C143 0.930 . S
H161 C144 0.931 . S
H162 C145 0.930 . S
H163 C146 0.930 . S
H164 C153 0.930 . S
H165 C155 0.931 . S
H166 C156 0.930 . S
H167 C157 0.930 . S
Tb168 N199 2.660 . S
Tb168 N206 2.600 . S
Tb168 O212 2.546 . S
Tb168 O213 2.610 . S
Tb168 O215 2.320 . S
Tb168 O216 2.552 . S
Tb168 O217 2.413 . S
Tb168 O219 2.362 . S
Tb168 O220 2.421 . S
Tb168 C232 2.833 1_556 S
C169 C172 1.432 . S
C169 C173 1.414 . S
C169 N176 1.359 . S
C170 C172 1.417 . S
C170 C174 1.432 . S
C170 C182 1.410 . S
C171 C173 1.444 . S
C171 C174 1.317 . S
C171 H194 0.929 . S
C172 C169 1.432 . S
C172 C170 1.417 . S
C172 N180 1.360 . S
C173 C169 1.414 . S
C173 C171 1.444 . S
C173 C178 1.385 . S
C174 C170 1.432 . S
C174 C171 1.317 . S
C174 H186 0.930 . S
C175 C177 1.392 . S
C175 C178 1.370 . S
C175 H187 0.931 . S
N176 C169 1.359 . S
N176 C177 1.327 . S
N176 Tb179 2.600 . S
C177 C175 1.392 . S
C177 N176 1.327 . S
C177 H184 0.930 . S
C178 C173 1.385 . S
C178 C175 1.370 . S
C178 H197 0.930 . S
Tb179 N176 2.600 . S
Tb179 N180 2.660 . S
Tb179 O213 2.362 . S
Tb179 O214 2.421 . S
Tb179 O218 2.546 . S
Tb179 O219 2.610 . S
Tb179 O221 2.320 . S
Tb179 O222 2.552 . S
Tb179 O223 2.413 . S
Tb179 C243 2.833 . S
N180 C172 1.360 . S
N180 Tb179 2.660 . S
N180 C181 1.305 . S
C181 N180 1.305 . S
C181 C183 1.407 . S
C181 H188 0.930 . S
C182 C170 1.410 . S
C182 C183 1.345 . S
C182 H190 0.930 . S
C183 C181 1.407 . S
C183 C182 1.345 . S
C183 H185 0.930 . S
H184 C177 0.930 . S
H185 C183 0.930 . S
H186 C174 0.930 . S
H187 C175 0.931 . S
H188 C181 0.930 . S
H189 C203 0.930 . S
H190 C182 0.930 . S
H191 C209 0.930 . S
H192 C200 0.930 . S
H193 C207 0.931 . S
H194 C171 0.929 . S
H195 C201 0.930 . S
H196 C234 0.930 . S
H197 C178 0.930 . S
H198 C233 0.929 . S
N199 Tb168 2.660 . S
N199 C200 1.305 . S
N199 C204 1.360 . S
C200 H192 0.930 . S
C200 N199 1.305 . S
C200 C203 1.407 . S
C201 H195 0.930 . S
C201 C202 1.410 . S
C201 C203 1.345 . S
C202 C201 1.410 . S
C202 C204 1.417 . S
C202 C234 1.432 . S
C203 H189 0.930 . S
C203 C200 1.407 . S
C203 C201 1.345 . S
C204 N199 1.360 . S
C204 C202 1.417 . S
C204 C208 1.432 . S
H205 C210 0.930 . S
N206 Tb168 2.600 . S
N206 C208 1.359 . S
N206 C209 1.327 . S
C207 H193 0.931 . S
C207 C209 1.392 . S
C207 C210 1.370 . S
C208 C204 1.432 . S
C208 N206 1.359 . S
C208 C211 1.414 . S
C209 H191 0.930 . S
C209 N206 1.327 . S
C209 C207 1.392 . S
C210 H205 0.930 . S
C210 C207 1.370 . S
C210 C211 1.385 . S
C211 C208 1.414 . S
C211 C210 1.385 . S
C211 C233 1.444 . S
O212 Tb168 2.546 . S
O212 C232 1.251 1_556 S
O213 Tb168 2.610 . S
O213 Tb179 2.362 . S
O213 C224 1.283 . S
O214 Tb179 2.421 . S
O214 C231 1.262 . S
O215 Tb168 2.320 . S
O215 C231 1.260 . S
O216 Tb168 2.552 . S
O216 C224 1.243 . S
O217 Tb168 2.413 . S
O217 C232 1.256 1_556 S
O218 Tb179 2.546 . S
O218 C243 1.251 . S
O219 Tb168 2.362 . S
O219 Tb179 2.610 . S
O219 C235 1.283 . S
O220 Tb168 2.421 . S
O220 C242 1.262 . S
O221 Tb179 2.320 . S
O221 C242 1.260 . S
O222 Tb179 2.552 . S
O222 C235 1.243 . S
O223 Tb179 2.413 . S
O223 C243 1.256 . S
C224 O213 1.283 . S
C224 O216 1.243 . S
C225 C227 1.382 . S
C225 C229 1.393 . S
C225 C232 1.500 . S
C226 C227 1.400 . S
C226 C228 1.384 . S
C227 C225 1.382 . S
C227 C226 1.400 . S
C227 H244 0.930 . S
C228 C226 1.384 . S
C228 C230 1.392 . S
C228 H245 0.931 . S
C229 C225 1.393 . S
C229 C230 1.401 . S
C229 H246 0.930 . S
C230 C228 1.392 . S
C230 C229 1.401 . S
C230 H247 0.930 . S
C231 O214 1.262 . S
C231 O215 1.260 . S
C232 Tb168 2.833 1_554 S
C232 O212 1.251 1_554 S
C232 O217 1.256 1_554 S
C232 C225 1.500 . S
C233 H198 0.929 . S
C233 C211 1.444 . S
C233 C234 1.317 . S
C234 H196 0.930 . S
C234 C202 1.432 . S
C234 C233 1.317 . S
C235 O219 1.283 . S
C235 O222 1.243 . S
C236 C237 1.382 . S
C236 C240 1.393 . S
C236 C243 1.500 . S
C237 C236 1.382 . S
C237 C238 1.400 . S
C237 H248 0.930 . S
C238 C237 1.400 . S
C238 C239 1.384 . S
C239 C238 1.384 . S
C239 C241 1.392 . S
C239 H249 0.931 . S
C240 C236 1.393 . S
C240 C241 1.401 . S
C240 H250 0.930 . S
C241 C239 1.392 . S
C241 C240 1.401 . S
C241 H251 0.930 . S
C242 O220 1.262 . S
C242 O221 1.260 . S
C243 Tb179 2.833 . S
C243 O218 1.251 . S
C243 O223 1.256 . S
C243 C236 1.500 . S
H244 C227 0.930 . S
H245 C228 0.931 . S
H246 C229 0.930 . S
H247 C230 0.930 . S
H248 C237 0.930 . S
H249 C239 0.931 . S
H250 C240 0.930 . S
H251 C241 0.930 . S
Tb252 N283 2.660 . S
Tb252 N290 2.600 . S
Tb252 O296 2.546 . S
Tb252 O297 2.610 . S
Tb252 O299 2.320 . S
Tb252 O300 2.552 . S
Tb252 O301 2.413 . S
Tb252 O303 2.362 . S
Tb252 O304 2.421 . S
Tb252 C316 2.833 . S
C253 C256 1.432 . S
C253 C257 1.414 . S
C253 N260 1.359 . S
C254 C256 1.417 . S
C254 C258 1.432 . S
C254 C266 1.410 . S
C255 C257 1.444 . S
C255 C258 1.317 . S
C255 H278 0.929 . S
C256 C253 1.432 . S
C256 C254 1.417 . S
C256 N264 1.360 . S
C257 C253 1.414 . S
C257 C255 1.444 . S
C257 C262 1.385 . S
C258 C254 1.432 . S
C258 C255 1.317 . S
C258 H270 0.930 . S
C259 C261 1.392 . S
C259 C262 1.370 . S
C259 H271 0.931 . S
N260 C253 1.359 . S
N260 C261 1.327 . S
N260 Tb263 2.600 . S
C261 C259 1.392 . S
C261 N260 1.327 . S
C261 H268 0.930 . S
C262 C257 1.385 . S
C262 C259 1.370 . S
C262 H281 0.930 . S
Tb263 N260 2.600 . S
Tb263 N264 2.660 . S
Tb263 O297 2.362 . S
Tb263 O298 2.421 . S
Tb263 O302 2.546 . S
Tb263 O303 2.610 . S
Tb263 O305 2.320 . S
Tb263 O306 2.552 . S
Tb263 O307 2.413 . S
Tb263 C327 2.833 . S
N264 C256 1.360 . S
N264 Tb263 2.660 . S
N264 C265 1.305 . S
C265 N264 1.305 . S
C265 C267 1.407 . S
C265 H272 0.930 . S
C266 C254 1.410 . S
C266 C267 1.345 . S
C266 H274 0.930 . S
C267 C265 1.407 . S
C267 C266 1.345 . S
C267 H269 0.930 . S
H268 C261 0.930 . S
H269 C267 0.930 . S
H270 C258 0.930 . S
H271 C259 0.931 . S
H272 C265 0.930 . S
H273 C287 0.930 . S
H274 C266 0.930 . S
H275 C293 0.930 . S
H276 C284 0.930 . S
H277 C291 0.931 . S
H278 C255 0.929 . S
H279 C285 0.930 . S
H280 C318 0.930 . S
H281 C262 0.930 . S
H282 C317 0.929 . S
N283 Tb252 2.660 . S
N283 C284 1.305 . S
N283 C288 1.360 . S
C284 H276 0.930 . S
C284 N283 1.305 . S
C284 C287 1.407 . S
C285 H279 0.930 . S
C285 C286 1.410 . S
C285 C287 1.345 . S
C286 C285 1.410 . S
C286 C288 1.417 . S
C286 C318 1.432 . S
C287 H273 0.930 . S
C287 C284 1.407 . S
C287 C285 1.345 . S
C288 N283 1.360 . S
C288 C286 1.417 . S
C288 C292 1.432 . S
H289 C294 0.930 . S
N290 Tb252 2.600 . S
N290 C292 1.359 . S
N290 C293 1.327 . S
C291 H277 0.931 . S
C291 C293 1.392 . S
C291 C294 1.370 . S
C292 C288 1.432 . S
C292 N290 1.359 . S
C292 C295 1.414 . S
C293 H275 0.930 . S
C293 N290 1.327 . S
C293 C291 1.392 . S
C294 H289 0.930 . S
C294 C291 1.370 . S
C294 C295 1.385 . S
C295 C292 1.414 . S
C295 C294 1.385 . S
C295 C317 1.444 . S
O296 Tb252 2.546 . S
O296 C316 1.251 . S
O297 Tb252 2.610 . S
O297 Tb263 2.362 . S
O297 C308 1.283 . S
O298 Tb263 2.421 . S
O298 C315 1.262 . S
O299 Tb252 2.320 . S
O299 C315 1.260 . S
O300 Tb252 2.552 . S
O300 C308 1.243 . S
O301 Tb252 2.413 . S
O301 C316 1.256 . S
O302 Tb263 2.546 . S
O302 C327 1.251 . S
O303 Tb252 2.362 . S
O303 Tb263 2.610 . S
O303 C319 1.283 . S
O304 Tb252 2.421 . S
O304 C326 1.262 . S
O305 Tb263 2.320 . S
O305 C326 1.260 . S
O306 Tb263 2.552 . S
O306 C319 1.243 . S
O307 Tb263 2.413 . S
O307 C327 1.256 . S
C308 O297 1.283 . S
C308 O300 1.243 . S
C309 C311 1.382 . S
C309 C313 1.393 . S
C309 C316 1.500 . S
C310 C311 1.400 . S
C310 C312 1.384 . S
C311 C309 1.382 . S
C311 C310 1.400 . S
C311 H328 0.930 . S
C312 C310 1.384 . S
C312 C314 1.392 . S
C312 H329 0.931 . S
C313 C309 1.393 . S
C313 C314 1.401 . S
C313 H330 0.930 . S
C314 C312 1.392 . S
C314 C313 1.401 . S
C314 H331 0.930 . S
C315 O298 1.262 . S
C315 O299 1.260 . S
C316 Tb252 2.833 . S
C316 O296 1.251 . S
C316 O301 1.256 . S
C316 C309 1.500 . S
C317 H282 0.929 . S
C317 C295 1.444 . S
C317 C318 1.317 . S
C318 H280 0.930 . S
C318 C286 1.432 . S
C318 C317 1.317 . S
C319 O303 1.283 . S
C319 O306 1.243 . S
C320 C321 1.382 . S
C320 C324 1.393 . S
C320 C327 1.500 . S
C321 C320 1.382 . S
C321 C322 1.400 . S
C321 H332 0.930 . S
C322 C321 1.400 . S
C322 C323 1.384 . S
C323 C322 1.384 . S
C323 C325 1.392 . S
C323 H333 0.931 . S
C324 C320 1.393 . S
C324 C325 1.401 . S
C324 H334 0.930 . S
C325 C323 1.392 . S
C325 C324 1.401 . S
C325 H335 0.930 . S
C326 O304 1.262 . S
C326 O305 1.260 . S
C327 Tb263 2.833 . S
C327 O302 1.251 . S
C327 O307 1.256 . S
C327 C320 1.500 . S
H328 C311 0.930 . S
H329 C312 0.931 . S
H330 C313 0.930 . S
H331 C314 0.930 . S
H332 C321 0.930 . S
H333 C323 0.931 . S
H334 C324 0.930 . S
H335 C325 0.930 . S
Tb336 N367 2.660 . S
Tb336 N374 2.600 . S
Tb336 O380 2.546 . S
Tb336 O381 2.610 . S
Tb336 O383 2.320 . S
Tb336 O384 2.552 . S
Tb336 O385 2.413 . S
Tb336 O387 2.362 . S
Tb336 O388 2.421 . S
Tb336 C400 2.833 . S
C337 C340 1.432 . S
C337 C341 1.414 . S
C337 N344 1.359 . S
C338 C340 1.417 . S
C338 C342 1.432 . S
C338 C350 1.410 . S
C339 C341 1.444 . S
C339 C342 1.317 . S
C339 H362 0.929 . S
C340 C337 1.432 . S
C340 C338 1.417 . S
C340 N348 1.360 . S
C341 C337 1.414 . S
C341 C339 1.444 . S
C341 C346 1.385 . S
C342 C338 1.432 . S
C342 C339 1.317 . S
C342 H354 0.930 . S
C343 C345 1.392 . S
C343 C346 1.370 . S
C343 H355 0.931 . S
N344 C337 1.359 . S
N344 C345 1.327 . S
N344 Tb347 2.600 . S
C345 C343 1.392 . S
C345 N344 1.327 . S
C345 H352 0.930 . S
C346 C341 1.385 . S
C346 C343 1.370 . S
C346 H365 0.930 . S
Tb347 N344 2.600 . S
Tb347 N348 2.660 . S
Tb347 O381 2.362 . S
Tb347 O382 2.421 . S
Tb347 O386 2.546 . S
Tb347 O387 2.610 . S
Tb347 O389 2.320 . S
Tb347 O390 2.552 . S
Tb347 O391 2.413 . S
Tb347 C411 2.833 . S
N348 C340 1.360 . S
N348 Tb347 2.660 . S
N348 C349 1.305 . S
C349 N348 1.305 . S
C349 C351 1.407 . S
C349 H356 0.930 . S
C350 C338 1.410 . S
C350 C351 1.345 . S
C350 H358 0.930 . S
C351 C349 1.407 . S
C351 C350 1.345 . S
C351 H353 0.930 . S
H352 C345 0.930 . S
H353 C351 0.930 . S
H354 C342 0.930 . S
H355 C343 0.931 . S
H356 C349 0.930 . S
H357 C371 0.930 . S
H358 C350 0.930 . S
H359 C377 0.930 . S
H360 C368 0.930 . S
H361 C375 0.931 . S
H362 C339 0.929 . S
H363 C369 0.930 . S
H364 C402 0.930 . S
H365 C346 0.930 . S
H366 C401 0.929 . S
N367 Tb336 2.660 . S
N367 C368 1.305 . S
N367 C372 1.360 . S
C368 H360 0.930 . S
C368 N367 1.305 . S
C368 C371 1.407 . S
C369 H363 0.930 . S
C369 C370 1.410 . S
C369 C371 1.345 . S
C370 C369 1.410 . S
C370 C372 1.417 . S
C370 C402 1.432 . S
C371 H357 0.930 . S
C371 C368 1.407 . S
C371 C369 1.345 . S
C372 N367 1.360 . S
C372 C370 1.417 . S
C372 C376 1.432 . S
H373 C378 0.930 . S
N374 Tb336 2.600 . S
N374 C376 1.359 . S
N374 C377 1.327 . S
C375 H361 0.931 . S
C375 C377 1.392 . S
C375 C378 1.370 . S
C376 C372 1.432 . S
C376 N374 1.359 . S
C376 C379 1.414 . S
C377 H359 0.930 . S
C377 N374 1.327 . S
C377 C375 1.392 . S
C378 H373 0.930 . S
C378 C375 1.370 . S
C378 C379 1.385 . S
C379 C376 1.414 . S
C379 C378 1.385 . S
C379 C401 1.444 . S
O380 Tb336 2.546 . S
O380 C400 1.251 . S
O381 Tb336 2.610 . S
O381 Tb347 2.362 . S
O381 C392 1.283 . S
O382 Tb347 2.421 . S
O382 C399 1.262 . S
O383 Tb336 2.320 . S
O383 C399 1.260 . S
O384 Tb336 2.552 . S
O384 C392 1.243 . S
O385 Tb336 2.413 . S
O385 C400 1.256 . S
O386 Tb347 2.546 . S
O386 C411 1.251 . S
O387 Tb336 2.362 . S
O387 Tb347 2.610 . S
O387 C403 1.283 . S
O388 Tb336 2.421 . S
O388 C410 1.262 . S
O389 Tb347 2.320 . S
O389 C410 1.260 . S
O390 Tb347 2.552 . S
O390 C403 1.243 . S
O391 Tb347 2.413 . S
O391 C411 1.256 . S
C392 O381 1.283 . S
C392 O384 1.243 . S
C393 C395 1.382 . S
C393 C397 1.393 . S
C393 C400 1.500 . S
C394 C395 1.400 . S
C394 C396 1.384 . S
C395 C393 1.382 . S
C395 C394 1.400 . S
C395 H412 0.930 . S
C396 C394 1.384 . S
C396 C398 1.392 . S
C396 H413 0.931 . S
C397 C393 1.393 . S
C397 C398 1.401 . S
C397 H414 0.930 . S
C398 C396 1.392 . S
C398 C397 1.401 . S
C398 H415 0.930 . S
C399 O382 1.262 . S
C399 O383 1.260 . S
C400 Tb336 2.833 . S
C400 O380 1.251 . S
C400 O385 1.256 . S
C400 C393 1.500 . S
C401 H366 0.929 . S
C401 C379 1.444 . S
C401 C402 1.317 . S
C402 H364 0.930 . S
C402 C370 1.432 . S
C402 C401 1.317 . S
C403 O387 1.283 . S
C403 O390 1.243 . S
C404 C405 1.382 . S
C404 C408 1.393 . S
C404 C411 1.500 . S
C405 C404 1.382 . S
C405 C406 1.400 . S
C405 H416 0.930 . S
C406 C405 1.400 . S
C406 C407 1.384 . S
C407 C406 1.384 . S
C407 C409 1.392 . S
C407 H417 0.931 . S
C408 C404 1.393 . S
C408 C409 1.401 . S
C408 H418 0.930 . S
C409 C407 1.392 . S
C409 C408 1.401 . S
C409 H419 0.930 . S
C410 O388 1.262 . S
C410 O389 1.260 . S
C411 Tb347 2.833 . S
C411 O386 1.251 . S
C411 O391 1.256 . S
C411 C404 1.500 . S
H412 C395 0.930 . S
H413 C396 0.931 . S
H414 C397 0.930 . S
H415 C398 0.930 . S
H416 C405 0.930 . S
H417 C407 0.931 . S
H418 C408 0.930 . S
H419 C409 0.930 . S
Tb420 N451 2.660 . S
Tb420 N458 2.600 . S
Tb420 O464 2.546 . S
Tb420 O465 2.610 . S
Tb420 O467 2.320 . S
Tb420 O468 2.552 . S
Tb420 O469 2.413 . S
Tb420 O471 2.362 . S
Tb420 O472 2.421 . S
Tb420 C484 2.833 1_556 S
C421 C424 1.432 . S
C421 C425 1.414 . S
C421 N428 1.359 . S
C422 C424 1.417 . S
C422 C426 1.432 . S
C422 C434 1.410 . S
C423 C425 1.444 . S
C423 C426 1.317 . S
C423 H446 0.929 . S
C424 C421 1.432 . S
C424 C422 1.417 . S
C424 N432 1.360 . S
C425 C421 1.414 . S
C425 C423 1.444 . S
C425 C430 1.385 . S
C426 C422 1.432 . S
C426 C423 1.317 . S
C426 H438 0.930 . S
C427 C429 1.392 . S
C427 C430 1.370 . S
C427 H439 0.931 . S
N428 C421 1.359 . S
N428 C429 1.327 . S
N428 Tb431 2.600 . S
C429 C427 1.392 . S
C429 N428 1.327 . S
C429 H436 0.930 . S
C430 C425 1.385 . S
C430 C427 1.370 . S
C430 H449 0.930 . S
Tb431 N428 2.600 . S
Tb431 N432 2.660 . S
Tb431 O465 2.362 . S
Tb431 O466 2.421 . S
Tb431 O470 2.546 . S
Tb431 O471 2.610 . S
Tb431 O473 2.320 . S
Tb431 O474 2.552 . S
Tb431 O475 2.413 . S
Tb431 C495 2.833 . S
N432 C424 1.360 . S
N432 Tb431 2.660 . S
N432 C433 1.305 . S
C433 N432 1.305 . S
C433 C435 1.407 . S
C433 H440 0.930 . S
C434 C422 1.410 . S
C434 C435 1.345 . S
C434 H442 0.930 . S
C435 C433 1.407 . S
C435 C434 1.345 . S
C435 H437 0.930 . S
H436 C429 0.930 . S
H437 C435 0.930 . S
H438 C426 0.930 . S
H439 C427 0.931 . S
H440 C433 0.930 . S
H441 C455 0.930 . S
H442 C434 0.930 . S
H443 C461 0.930 . S
H444 C452 0.930 . S
H445 C459 0.931 . S
H446 C423 0.929 . S
H447 C453 0.930 . S
H448 C486 0.930 . S
H449 C430 0.930 . S
H450 C485 0.929 . S
N451 Tb420 2.660 . S
N451 C452 1.305 . S
N451 C456 1.360 . S
C452 H444 0.930 . S
C452 N451 1.305 . S
C452 C455 1.407 . S
C453 H447 0.930 . S
C453 C454 1.410 . S
C453 C455 1.345 . S
C454 C453 1.410 . S
C454 C456 1.417 . S
C454 C486 1.432 . S
C455 H441 0.930 . S
C455 C452 1.407 . S
C455 C453 1.345 . S
C456 N451 1.360 . S
C456 C454 1.417 . S
C456 C460 1.432 . S
H457 C462 0.930 . S
N458 Tb420 2.600 . S
N458 C460 1.359 . S
N458 C461 1.327 . S
C459 H445 0.931 . S
C459 C461 1.392 . S
C459 C462 1.370 . S
C460 C456 1.432 . S
C460 N458 1.359 . S
C460 C463 1.414 . S
C461 H443 0.930 . S
C461 N458 1.327 . S
C461 C459 1.392 . S
C462 H457 0.930 . S
C462 C459 1.370 . S
C462 C463 1.385 . S
C463 C460 1.414 . S
C463 C462 1.385 . S
C463 C485 1.444 . S
O464 Tb420 2.546 . S
O464 C484 1.251 1_556 S
O465 Tb420 2.610 . S
O465 Tb431 2.362 . S
O465 C476 1.283 . S
O466 Tb431 2.421 . S
O466 C483 1.262 . S
O467 Tb420 2.320 . S
O467 C483 1.260 . S
O468 Tb420 2.552 . S
O468 C476 1.243 . S
O469 Tb420 2.413 . S
O469 C484 1.256 1_556 S
O470 Tb431 2.546 . S
O470 C495 1.251 . S
O471 Tb420 2.362 . S
O471 Tb431 2.610 . S
O471 C487 1.283 . S
O472 Tb420 2.421 . S
O472 C494 1.262 . S
O473 Tb431 2.320 . S
O473 C494 1.260 . S
O474 Tb431 2.552 . S
O474 C487 1.243 . S
O475 Tb431 2.413 . S
O475 C495 1.256 . S
C476 O465 1.283 . S
C476 O468 1.243 . S
C477 C479 1.382 . S
C477 C481 1.393 . S
C477 C484 1.500 . S
C478 C479 1.400 . S
C478 C480 1.384 . S
C479 C477 1.382 . S
C479 C478 1.400 . S
C479 H496 0.930 . S
C480 C478 1.384 . S
C480 C482 1.392 . S
C480 H497 0.931 . S
C481 C477 1.393 . S
C481 C482 1.401 . S
C481 H498 0.930 . S
C482 C480 1.392 . S
C482 C481 1.401 . S
C482 H499 0.930 . S
C483 O466 1.262 . S
C483 O467 1.260 . S
C484 Tb420 2.833 1_554 S
C484 O464 1.251 1_554 S
C484 O469 1.256 1_554 S
C484 C477 1.500 . S
C485 H450 0.929 . S
C485 C463 1.444 . S
C485 C486 1.317 . S
C486 H448 0.930 . S
C486 C454 1.432 . S
C486 C485 1.317 . S
C487 O471 1.283 . S
C487 O474 1.243 . S
C488 C489 1.382 . S
C488 C492 1.393 . S
C488 C495 1.500 . S
C489 C488 1.382 . S
C489 C490 1.400 . S
C489 H500 0.930 . S
C490 C489 1.400 . S
C490 C491 1.384 . S
C491 C490 1.384 . S
C491 C493 1.392 . S
C491 H501 0.931 . S
C492 C488 1.393 . S
C492 C493 1.401 . S
C492 H502 0.930 . S
C493 C491 1.392 . S
C493 C492 1.401 . S
C493 H503 0.930 . S
C494 O472 1.262 . S
C494 O473 1.260 . S
C495 Tb431 2.833 . S
C495 O470 1.251 . S
C495 O475 1.256 . S
C495 C488 1.500 . S
H496 C479 0.930 . S
H497 C480 0.931 . S
H498 C481 0.930 . S
H499 C482 0.930 . S
H500 C489 0.930 . S
H501 C491 0.931 . S
H502 C492 0.930 . S
H503 C493 0.930 . S
Tb504 N535 2.660 . S
Tb504 N542 2.600 . S
Tb504 O548 2.546 . S
Tb504 O549 2.610 . S
Tb504 O551 2.320 . S
Tb504 O552 2.552 . S
Tb504 O553 2.413 . S
Tb504 O555 2.362 . S
Tb504 O556 2.421 . S
Tb504 C568 2.833 . S
C505 C508 1.432 . S
C505 C509 1.414 . S
C505 N512 1.359 . S
C506 C508 1.417 . S
C506 C510 1.432 . S
C506 C518 1.410 . S
C507 C509 1.444 . S
C507 C510 1.317 . S
C507 H530 0.929 . S
C508 C505 1.432 . S
C508 C506 1.417 . S
C508 N516 1.360 . S
C509 C505 1.414 . S
C509 C507 1.444 . S
C509 C514 1.385 . S
C510 C506 1.432 . S
C510 C507 1.317 . S
C510 H522 0.930 . S
C511 C513 1.392 . S
C511 C514 1.370 . S
C511 H523 0.931 . S
N512 C505 1.359 . S
N512 C513 1.327 . S
N512 Tb515 2.600 . S
C513 C511 1.392 . S
C513 N512 1.327 . S
C513 H520 0.930 . S
C514 C509 1.385 . S
C514 C511 1.370 . S
C514 H533 0.930 . S
Tb515 N512 2.600 . S
Tb515 N516 2.660 . S
Tb515 O549 2.362 . S
Tb515 O550 2.421 . S
Tb515 O554 2.546 . S
Tb515 O555 2.610 . S
Tb515 O557 2.320 . S
Tb515 O558 2.552 . S
Tb515 O559 2.413 . S
Tb515 C579 2.833 . S
N516 C508 1.360 . S
N516 Tb515 2.660 . S
N516 C517 1.305 . S
C517 N516 1.305 . S
C517 C519 1.407 . S
C517 H524 0.930 . S
C518 C506 1.410 . S
C518 C519 1.345 . S
C518 H526 0.930 . S
C519 C517 1.407 . S
C519 C518 1.345 . S
C519 H521 0.930 . S
H520 C513 0.930 . S
H521 C519 0.930 . S
H522 C510 0.930 . S
H523 C511 0.931 . S
H524 C517 0.930 . S
H525 C539 0.930 . S
H526 C518 0.930 . S
H527 C545 0.930 . S
H528 C536 0.930 . S
H529 C543 0.931 . S
H530 C507 0.929 . S
H531 C537 0.930 . S
H532 C570 0.930 . S
H533 C514 0.930 . S
H534 C569 0.929 . S
N535 Tb504 2.660 . S
N535 C536 1.305 . S
N535 C540 1.360 . S
C536 H528 0.930 . S
C536 N535 1.305 . S
C536 C539 1.407 . S
C537 H531 0.930 . S
C537 C538 1.410 . S
C537 C539 1.345 . S
C538 C537 1.410 . S
C538 C540 1.417 . S
C538 C570 1.432 . S
C539 H525 0.930 . S
C539 C536 1.407 . S
C539 C537 1.345 . S
C540 N535 1.360 . S
C540 C538 1.417 . S
C540 C544 1.432 . S
H541 C546 0.930 . S
N542 Tb504 2.600 . S
N542 C544 1.359 . S
N542 C545 1.327 . S
C543 H529 0.931 . S
C543 C545 1.392 . S
C543 C546 1.370 . S
C544 C540 1.432 . S
C544 N542 1.359 . S
C544 C547 1.414 . S
C545 H527 0.930 . S
C545 N542 1.327 . S
C545 C543 1.392 . S
C546 H541 0.930 . S
C546 C543 1.370 . S
C546 C547 1.385 . S
C547 C544 1.414 . S
C547 C546 1.385 . S
C547 C569 1.444 . S
O548 Tb504 2.546 . S
O548 C568 1.251 . S
O549 Tb504 2.610 . S
O549 Tb515 2.362 . S
O549 C560 1.283 . S
O550 Tb515 2.421 . S
O550 C567 1.262 . S
O551 Tb504 2.320 . S
O551 C567 1.260 . S
O552 Tb504 2.552 . S
O552 C560 1.243 . S
O553 Tb504 2.413 . S
O553 C568 1.256 . S
O554 Tb515 2.546 . S
O554 C579 1.251 . S
O555 Tb504 2.362 . S
O555 Tb515 2.610 . S
O555 C571 1.283 . S
O556 Tb504 2.421 . S
O556 C578 1.262 . S
O557 Tb515 2.320 . S
O557 C578 1.260 . S
O558 Tb515 2.552 . S
O558 C571 1.243 . S
O559 Tb515 2.413 . S
O559 C579 1.256 . S
C560 O549 1.283 . S
C560 O552 1.243 . S
C561 C563 1.382 . S
C561 C565 1.393 . S
C561 C568 1.500 . S
C562 C563 1.400 . S
C562 C564 1.384 . S
C563 C561 1.382 . S
C563 C562 1.400 . S
C563 H580 0.930 . S
C564 C562 1.384 . S
C564 C566 1.392 . S
C564 H581 0.931 . S
C565 C561 1.393 . S
C565 C566 1.401 . S
C565 H582 0.930 . S
C566 C564 1.392 . S
C566 C565 1.401 . S
C566 H583 0.930 . S
C567 O550 1.262 . S
C567 O551 1.260 . S
C568 Tb504 2.833 . S
C568 O548 1.251 . S
C568 O553 1.256 . S
C568 C561 1.500 . S
C569 H534 0.929 . S
C569 C547 1.444 . S
C569 C570 1.317 . S
C570 H532 0.930 . S
C570 C538 1.432 . S
C570 C569 1.317 . S
C571 O555 1.283 . S
C571 O558 1.243 . S
C572 C573 1.382 . S
C572 C576 1.393 . S
C572 C579 1.500 . S
C573 C572 1.382 . S
C573 C574 1.400 . S
C573 H584 0.930 . S
C574 C573 1.400 . S
C574 C575 1.384 . S
C575 C574 1.384 . S
C575 C577 1.392 . S
C575 H585 0.931 . S
C576 C572 1.393 . S
C576 C577 1.401 . S
C576 H586 0.930 . S
C577 C575 1.392 . S
C577 C576 1.401 . S
C577 H587 0.930 . S
C578 O556 1.262 . S
C578 O557 1.260 . S
C579 Tb515 2.833 . S
C579 O554 1.251 . S
C579 O559 1.256 . S
C579 C572 1.500 . S
H580 C563 0.930 . S
H581 C564 0.931 . S
H582 C565 0.930 . S
H583 C566 0.930 . S
H584 C573 0.930 . S
H585 C575 0.931 . S
H586 C576 0.930 . S
H587 C577 0.930 . S
Tb588 N619 2.660 . S
Tb588 N626 2.600 . S
Tb588 O632 2.546 . S
Tb588 O633 2.610 . S
Tb588 O635 2.320 . S
Tb588 O636 2.552 . S
Tb588 O637 2.413 . S
Tb588 O639 2.362 . S
Tb588 O640 2.421 . S
Tb588 C652 2.833 . S
C589 C592 1.432 . S
C589 C593 1.414 . S
C589 N596 1.359 . S
C590 C592 1.417 . S
C590 C594 1.432 . S
C590 C602 1.410 . S
C591 C593 1.444 . S
C591 C594 1.317 . S
C591 H614 0.929 . S
C592 C589 1.432 . S
C592 C590 1.417 . S
C592 N600 1.360 . S
C593 C589 1.414 . S
C593 C591 1.444 . S
C593 C598 1.385 . S
C594 C590 1.432 . S
C594 C591 1.317 . S
C594 H606 0.930 . S
C595 C597 1.392 . S
C595 C598 1.370 . S
C595 H607 0.931 . S
N596 C589 1.359 . S
N596 C597 1.327 . S
N596 Tb599 2.600 . S
C597 C595 1.392 . S
C597 N596 1.327 . S
C597 H604 0.930 . S
C598 C593 1.385 . S
C598 C595 1.370 . S
C598 H617 0.930 . S
Tb599 N596 2.600 . S
Tb599 N600 2.660 . S
Tb599 O633 2.362 . S
Tb599 O634 2.421 . S
Tb599 O638 2.546 . S
Tb599 O639 2.610 . S
Tb599 O641 2.320 . S
Tb599 O642 2.552 . S
Tb599 O643 2.413 . S
Tb599 C663 2.833 . S
N600 C592 1.360 . S
N600 Tb599 2.660 . S
N600 C601 1.305 . S
C601 N600 1.305 . S
C601 C603 1.407 . S
C601 H608 0.930 . S
C602 C590 1.410 . S
C602 C603 1.345 . S
C602 H610 0.930 . S
C603 C601 1.407 . S
C603 C602 1.345 . S
C603 H605 0.930 . S
H604 C597 0.930 . S
H605 C603 0.930 . S
H606 C594 0.930 . S
H607 C595 0.931 . S
H608 C601 0.930 . S
H609 C623 0.930 . S
H610 C602 0.930 . S
H611 C629 0.930 . S
H612 C620 0.930 . S
H613 C627 0.931 . S
H614 C591 0.929 . S
H615 C621 0.930 . S
H616 C654 0.930 . S
H617 C598 0.930 . S
H618 C653 0.929 . S
N619 Tb588 2.660 . S
N619 C620 1.305 . S
N619 C624 1.360 . S
C620 H612 0.930 . S
C620 N619 1.305 . S
C620 C623 1.407 . S
C621 H615 0.930 . S
C621 C622 1.410 . S
C621 C623 1.345 . S
C622 C621 1.410 . S
C622 C624 1.417 . S
C622 C654 1.432 . S
C623 H609 0.930 . S
C623 C620 1.407 . S
C623 C621 1.345 . S
C624 N619 1.360 . S
C624 C622 1.417 . S
C624 C628 1.432 . S
H625 C630 0.930 . S
N626 Tb588 2.600 . S
N626 C628 1.359 . S
N626 C629 1.327 . S
C627 H613 0.931 . S
C627 C629 1.392 . S
C627 C630 1.370 . S
C628 C624 1.432 . S
C628 N626 1.359 . S
C628 C631 1.414 . S
C629 H611 0.930 . S
C629 N626 1.327 . S
C629 C627 1.392 . S
C630 H625 0.930 . S
C630 C627 1.370 . S
C630 C631 1.385 . S
C631 C628 1.414 . S
C631 C630 1.385 . S
C631 C653 1.444 . S
O632 Tb588 2.546 . S
O632 C652 1.251 . S
O633 Tb588 2.610 . S
O633 Tb599 2.362 . S
O633 C644 1.283 . S
O634 Tb599 2.421 . S
O634 C651 1.262 . S
O635 Tb588 2.320 . S
O635 C651 1.260 . S
O636 Tb588 2.552 . S
O636 C644 1.243 . S
O637 Tb588 2.413 . S
O637 C652 1.256 . S
O638 Tb599 2.546 . S
O638 C663 1.251 . S
O639 Tb588 2.362 . S
O639 Tb599 2.610 . S
O639 C655 1.283 . S
O640 Tb588 2.421 . S
O640 C662 1.262 . S
O641 Tb599 2.320 . S
O641 C662 1.260 . S
O642 Tb599 2.552 . S
O642 C655 1.243 . S
O643 Tb599 2.413 . S
O643 C663 1.256 . S
C644 O633 1.283 . S
C644 O636 1.243 . S
C645 C647 1.382 . S
C645 C649 1.393 . S
C645 C652 1.500 . S
C646 C647 1.400 . S
C646 C648 1.384 . S
C647 C645 1.382 . S
C647 C646 1.400 . S
C647 H664 0.930 . S
C648 C646 1.384 . S
C648 C650 1.392 . S
C648 H665 0.931 . S
C649 C645 1.393 . S
C649 C650 1.401 . S
C649 H666 0.930 . S
C650 C648 1.392 . S
C650 C649 1.401 . S
C650 H667 0.930 . S
C651 O634 1.262 . S
C651 O635 1.260 . S
C652 Tb588 2.833 . S
C652 O632 1.251 . S
C652 O637 1.256 . S
C652 C645 1.500 . S
C653 H618 0.929 . S
C653 C631 1.444 . S
C653 C654 1.317 . S
C654 H616 0.930 . S
C654 C622 1.432 . S
C654 C653 1.317 . S
C655 O639 1.283 . S
C655 O642 1.243 . S
C656 C657 1.382 . S
C656 C660 1.393 . S
C656 C663 1.500 . S
C657 C656 1.382 . S
C657 C658 1.400 . S
C657 H668 0.930 . S
C658 C657 1.400 . S
C658 C659 1.384 . S
C659 C658 1.384 . S
C659 C661 1.392 . S
C659 H669 0.931 . S
C660 C656 1.393 . S
C660 C661 1.401 . S
C660 H670 0.930 . S
C661 C659 1.392 . S
C661 C660 1.401 . S
C661 H671 0.930 . S
C662 O640 1.262 . S
C662 O641 1.260 . S
C663 Tb599 2.833 . S
C663 O638 1.251 . S
C663 O643 1.256 . S
C663 C656 1.500 . S
H664 C647 0.930 . S
H665 C648 0.931 . S
H666 C649 0.930 . S
H667 C650 0.930 . S
H668 C657 0.930 . S
H669 C659 0.931 . S
H670 C660 0.930 . S
H671 C661 0.930 . S
Tb672 N703 2.660 . S
Tb672 N710 2.600 . S
Tb672 O716 2.546 . S
Tb672 O717 2.610 . S
Tb672 O719 2.320 . S
Tb672 O720 2.552 . S
Tb672 O721 2.413 . S
Tb672 O723 2.362 . S
Tb672 O724 2.421 . S
Tb672 C736 2.833 1_554 S
C673 C676 1.432 . S
C673 C677 1.414 . S
C673 N680 1.359 . S
C674 C676 1.417 . S
C674 C678 1.432 . S
C674 C686 1.410 . S
C675 C677 1.444 . S
C675 C678 1.317 . S
C675 H698 0.929 . S
C676 C673 1.432 . S
C676 C674 1.417 . S
C676 N684 1.360 . S
C677 C673 1.414 . S
C677 C675 1.444 . S
C677 C682 1.385 . S
C678 C674 1.432 . S
C678 C675 1.317 . S
C678 H690 0.930 . S
C679 C681 1.392 . S
C679 C682 1.370 . S
C679 H691 0.931 . S
N680 C673 1.359 . S
N680 C681 1.327 . S
N680 Tb683 2.600 . S
C681 C679 1.392 . S
C681 N680 1.327 . S
C681 H688 0.930 . S
C682 C677 1.385 . S
C682 C679 1.370 . S
C682 H701 0.930 . S
Tb683 N680 2.600 . S
Tb683 N684 2.660 . S
Tb683 O717 2.362 . S
Tb683 O718 2.421 . S
Tb683 O722 2.546 . S
Tb683 O723 2.610 . S
Tb683 O725 2.320 . S
Tb683 O726 2.552 . S
Tb683 O727 2.413 . S
Tb683 C747 2.833 . S
N684 C676 1.360 . S
N684 Tb683 2.660 . S
N684 C685 1.305 . S
C685 N684 1.305 . S
C685 C687 1.407 . S
C685 H692 0.930 . S
C686 C674 1.410 . S
C686 C687 1.345 . S
C686 H694 0.930 . S
C687 C685 1.407 . S
C687 C686 1.345 . S
C687 H689 0.930 . S
H688 C681 0.930 . S
H689 C687 0.930 . S
H690 C678 0.930 . S
H691 C679 0.931 . S
H692 C685 0.930 . S
H693 C707 0.930 . S
H694 C686 0.930 . S
H695 C713 0.930 . S
H696 C704 0.930 . S
H697 C711 0.931 . S
H698 C675 0.929 . S
H699 C705 0.930 . S
H700 C738 0.930 . S
H701 C682 0.930 . S
H702 C737 0.929 . S
N703 Tb672 2.660 . S
N703 C704 1.305 . S
N703 C708 1.360 . S
C704 H696 0.930 . S
C704 N703 1.305 . S
C704 C707 1.407 . S
C705 H699 0.930 . S
C705 C706 1.410 . S
C705 C707 1.345 . S
C706 C705 1.410 . S
C706 C708 1.417 . S
C706 C738 1.432 . S
C707 H693 0.930 . S
C707 C704 1.407 . S
C707 C705 1.345 . S
C708 N703 1.360 . S
C708 C706 1.417 . S
C708 C712 1.432 . S
H709 C714 0.930 . S
N710 Tb672 2.600 . S
N710 C712 1.359 . S
N710 C713 1.327 . S
C711 H697 0.931 . S
C711 C713 1.392 . S
C711 C714 1.370 . S
C712 C708 1.432 . S
C712 N710 1.359 . S
C712 C715 1.414 . S
C713 H695 0.930 . S
C713 N710 1.327 . S
C713 C711 1.392 . S
C714 H709 0.930 . S
C714 C711 1.370 . S
C714 C715 1.385 . S
C715 C712 1.414 . S
C715 C714 1.385 . S
C715 C737 1.444 . S
O716 Tb672 2.546 . S
O716 C736 1.251 1_554 S
O717 Tb672 2.610 . S
O717 Tb683 2.362 . S
O717 C728 1.283 . S
O718 Tb683 2.421 . S
O718 C735 1.262 . S
O719 Tb672 2.320 . S
O719 C735 1.260 . S
O720 Tb672 2.552 . S
O720 C728 1.243 . S
O721 Tb672 2.413 . S
O721 C736 1.256 1_554 S
O722 Tb683 2.546 . S
O722 C747 1.251 . S
O723 Tb672 2.362 . S
O723 Tb683 2.610 . S
O723 C739 1.283 . S
O724 Tb672 2.421 . S
O724 C746 1.262 . S
O725 Tb683 2.320 . S
O725 C746 1.260 . S
O726 Tb683 2.552 . S
O726 C739 1.243 . S
O727 Tb683 2.413 . S
O727 C747 1.256 . S
C728 O717 1.283 . S
C728 O720 1.243 . S
C729 C731 1.382 . S
C729 C733 1.393 . S
C729 C736 1.500 . S
C730 C731 1.400 . S
C730 C732 1.384 . S
C731 C729 1.382 . S
C731 C730 1.400 . S
C731 H748 0.930 . S
C732 C730 1.384 . S
C732 C734 1.392 . S
C732 H749 0.931 . S
C733 C729 1.393 . S
C733 C734 1.401 . S
C733 H750 0.930 . S
C734 C732 1.392 . S
C734 C733 1.401 . S
C734 H751 0.930 . S
C735 O718 1.262 . S
C735 O719 1.260 . S
C736 Tb672 2.833 1_556 S
C736 O716 1.251 1_556 S
C736 O721 1.256 1_556 S
C736 C729 1.500 . S
C737 H702 0.929 . S
C737 C715 1.444 . S
C737 C738 1.317 . S
C738 H700 0.930 . S
C738 C706 1.432 . S
C738 C737 1.317 . S
C739 O723 1.283 . S
C739 O726 1.243 . S
C740 C741 1.382 . S
C740 C744 1.393 . S
C740 C747 1.500 . S
C741 C740 1.382 . S
C741 C742 1.400 . S
C741 H752 0.930 . S
C742 C741 1.400 . S
C742 C743 1.384 . S
C743 C742 1.384 . S
C743 C745 1.392 . S
C743 H753 0.931 . S
C744 C740 1.393 . S
C744 C745 1.401 . S
C744 H754 0.930 . S
C745 C743 1.392 . S
C745 C744 1.401 . S
C745 H755 0.930 . S
C746 O724 1.262 . S
C746 O725 1.260 . S
C747 Tb683 2.833 . S
C747 O722 1.251 . S
C747 O727 1.256 . S
C747 C740 1.500 . S
H748 C731 0.930 . S
H749 C732 0.931 . S
H750 C733 0.930 . S
H751 C734 0.930 . S
H752 C741 0.930 . S
H753 C743 0.931 . S
H754 C744 0.930 . S
H755 C745 0.930 . S
Tb756 N787 2.660 . S
Tb756 N794 2.600 . S
Tb756 O800 2.546 . S
Tb756 O801 2.610 . S
Tb756 O803 2.320 . S
Tb756 O804 2.552 . S
Tb756 O805 2.413 . S
Tb756 O807 2.362 . S
Tb756 O808 2.421 . S
Tb756 C820 2.833 . S
C757 C760 1.432 . S
C757 C761 1.414 . S
C757 N764 1.359 . S
C758 C760 1.417 . S
C758 C762 1.432 . S
C758 C770 1.410 . S
C759 C761 1.444 . S
C759 C762 1.317 . S
C759 H782 0.929 . S
C760 C757 1.432 . S
C760 C758 1.417 . S
C760 N768 1.360 . S
C761 C757 1.414 . S
C761 C759 1.444 . S
C761 C766 1.385 . S
C762 C758 1.432 . S
C762 C759 1.317 . S
C762 H774 0.930 . S
C763 C765 1.392 . S
C763 C766 1.370 . S
C763 H775 0.931 . S
N764 C757 1.359 . S
N764 C765 1.327 . S
N764 Tb767 2.600 . S
C765 C763 1.392 . S
C765 N764 1.327 . S
C765 H772 0.930 . S
C766 C761 1.385 . S
C766 C763 1.370 . S
C766 H785 0.930 . S
Tb767 N764 2.600 . S
Tb767 N768 2.660 . S
Tb767 O801 2.362 . S
Tb767 O802 2.421 . S
Tb767 O806 2.546 . S
Tb767 O807 2.610 . S
Tb767 O809 2.320 . S
Tb767 O810 2.552 . S
Tb767 O811 2.413 . S
Tb767 C831 2.833 . S
N768 C760 1.360 . S
N768 Tb767 2.660 . S
N768 C769 1.305 . S
C769 N768 1.305 . S
C769 C771 1.407 . S
C769 H776 0.930 . S
C770 C758 1.410 . S
C770 C771 1.345 . S
C770 H778 0.930 . S
C771 C769 1.407 . S
C771 C770 1.345 . S
C771 H773 0.930 . S
H772 C765 0.930 . S
H773 C771 0.930 . S
H774 C762 0.930 . S
H775 C763 0.931 . S
H776 C769 0.930 . S
H777 C791 0.930 . S
H778 C770 0.930 . S
H779 C797 0.930 . S
H780 C788 0.930 . S
H781 C795 0.931 . S
H782 C759 0.929 . S
H783 C789 0.930 . S
H784 C822 0.930 . S
H785 C766 0.930 . S
H786 C821 0.929 . S
N787 Tb756 2.660 . S
N787 C788 1.305 . S
N787 C792 1.360 . S
C788 H780 0.930 . S
C788 N787 1.305 . S
C788 C791 1.407 . S
C789 H783 0.930 . S
C789 C790 1.410 . S
C789 C791 1.345 . S
C790 C789 1.410 . S
C790 C792 1.417 . S
C790 C822 1.432 . S
C791 H777 0.930 . S
C791 C788 1.407 . S
C791 C789 1.345 . S
C792 N787 1.360 . S
C792 C790 1.417 . S
C792 C796 1.432 . S
H793 C798 0.930 . S
N794 Tb756 2.600 . S
N794 C796 1.359 . S
N794 C797 1.327 . S
C795 H781 0.931 . S
C795 C797 1.392 . S
C795 C798 1.370 . S
C796 C792 1.432 . S
C796 N794 1.359 . S
C796 C799 1.414 . S
C797 H779 0.930 . S
C797 N794 1.327 . S
C797 C795 1.392 . S
C798 H793 0.930 . S
C798 C795 1.370 . S
C798 C799 1.385 . S
C799 C796 1.414 . S
C799 C798 1.385 . S
C799 C821 1.444 . S
O800 Tb756 2.546 . S
O800 C820 1.251 . S
O801 Tb756 2.610 . S
O801 Tb767 2.362 . S
O801 C812 1.283 . S
O802 Tb767 2.421 . S
O802 C819 1.262 . S
O803 Tb756 2.320 . S
O803 C819 1.260 . S
O804 Tb756 2.552 . S
O804 C812 1.243 . S
O805 Tb756 2.413 . S
O805 C820 1.256 . S
O806 Tb767 2.546 . S
O806 C831 1.251 . S
O807 Tb756 2.362 . S
O807 Tb767 2.610 . S
O807 C823 1.283 . S
O808 Tb756 2.421 . S
O808 C830 1.262 . S
O809 Tb767 2.320 . S
O809 C830 1.260 . S
O810 Tb767 2.552 . S
O810 C823 1.243 . S
O811 Tb767 2.413 . S
O811 C831 1.256 . S
C812 O801 1.283 . S
C812 O804 1.243 . S
C813 C815 1.382 . S
C813 C817 1.393 . S
C813 C820 1.500 . S
C814 C815 1.400 . S
C814 C816 1.384 . S
C815 C813 1.382 . S
C815 C814 1.400 . S
C815 H832 0.930 . S
C816 C814 1.384 . S
C816 C818 1.392 . S
C816 H833 0.931 . S
C817 C813 1.393 . S
C817 C818 1.401 . S
C817 H834 0.930 . S
C818 C816 1.392 . S
C818 C817 1.401 . S
C818 H835 0.930 . S
C819 O802 1.262 . S
C819 O803 1.260 . S
C820 Tb756 2.833 . S
C820 O800 1.251 . S
C820 O805 1.256 . S
C820 C813 1.500 . S
C821 H786 0.929 . S
C821 C799 1.444 . S
C821 C822 1.317 . S
C822 H784 0.930 . S
C822 C790 1.432 . S
C822 C821 1.317 . S
C823 O807 1.283 . S
C823 O810 1.243 . S
C824 C825 1.382 . S
C824 C828 1.393 . S
C824 C831 1.500 . S
C825 C824 1.382 . S
C825 C826 1.400 . S
C825 H836 0.930 . S
C826 C825 1.400 . S
C826 C827 1.384 . S
C827 C826 1.384 . S
C827 C829 1.392 . S
C827 H837 0.931 . S
C828 C824 1.393 . S
C828 C829 1.401 . S
C828 H838 0.930 . S
C829 C827 1.392 . S
C829 C828 1.401 . S
C829 H839 0.930 . S
C830 O808 1.262 . S
C830 O809 1.260 . S
C831 Tb767 2.833 . S
C831 O806 1.251 . S
C831 O811 1.256 . S
C831 C824 1.500 . S
H832 C815 0.930 . S
H833 C816 0.931 . S
H834 C817 0.930 . S
H835 C818 0.930 . S
H836 C825 0.930 . S
H837 C827 0.931 . S
H838 C828 0.930 . S
H839 C829 0.930 . S
Tb840 N871 2.660 . S
Tb840 N878 2.600 . S
Tb840 O884 2.546 . S
Tb840 O885 2.610 . S
Tb840 O887 2.320 . S
Tb840 O888 2.552 . S
Tb840 O889 2.413 . S
Tb840 O891 2.362 . S
Tb840 O892 2.421 . S
Tb840 C904 2.833 . S
C841 C844 1.432 . S
C841 C845 1.414 . S
C841 N848 1.359 . S
C842 C844 1.417 . S
C842 C846 1.432 . S
C842 C854 1.410 . S
C843 C845 1.444 . S
C843 C846 1.317 . S
C843 H866 0.929 . S
C844 C841 1.432 . S
C844 C842 1.417 . S
C844 N852 1.360 . S
C845 C841 1.414 . S
C845 C843 1.444 . S
C845 C850 1.385 . S
C846 C842 1.432 . S
C846 C843 1.317 . S
C846 H858 0.930 . S
C847 C849 1.392 . S
C847 C850 1.370 . S
C847 H859 0.931 . S
N848 C841 1.359 . S
N848 C849 1.327 . S
N848 Tb851 2.600 . S
C849 C847 1.392 . S
C849 N848 1.327 . S
C849 H856 0.930 . S
C850 C845 1.385 . S
C850 C847 1.370 . S
C850 H869 0.930 . S
Tb851 N848 2.600 . S
Tb851 N852 2.660 . S
Tb851 O885 2.362 . S
Tb851 O886 2.421 . S
Tb851 O890 2.546 . S
Tb851 O891 2.610 . S
Tb851 O893 2.320 . S
Tb851 O894 2.552 . S
Tb851 O895 2.413 . S
Tb851 C915 2.833 . S
N852 C844 1.360 . S
N852 Tb851 2.660 . S
N852 C853 1.305 . S
C853 N852 1.305 . S
C853 C855 1.407 . S
C853 H860 0.930 . S
C854 C842 1.410 . S
C854 C855 1.345 . S
C854 H862 0.930 . S
C855 C853 1.407 . S
C855 C854 1.345 . S
C855 H857 0.930 . S
H856 C849 0.930 . S
H857 C855 0.930 . S
H858 C846 0.930 . S
H859 C847 0.931 . S
H860 C853 0.930 . S
H861 C875 0.930 . S
H862 C854 0.930 . S
H863 C881 0.930 . S
H864 C872 0.930 . S
H865 C879 0.931 . S
H866 C843 0.929 . S
H867 C873 0.930 . S
H868 C906 0.930 . S
H869 C850 0.930 . S
H870 C905 0.929 . S
N871 Tb840 2.660 . S
N871 C872 1.305 . S
N871 C876 1.360 . S
C872 H864 0.930 . S
C872 N871 1.305 . S
C872 C875 1.407 . S
C873 H867 0.930 . S
C873 C874 1.410 . S
C873 C875 1.345 . S
C874 C873 1.410 . S
C874 C876 1.417 . S
C874 C906 1.432 . S
C875 H861 0.930 . S
C875 C872 1.407 . S
C875 C873 1.345 . S
C876 N871 1.360 . S
C876 C874 1.417 . S
C876 C880 1.432 . S
H877 C882 0.930 . S
N878 Tb840 2.600 . S
N878 C880 1.359 . S
N878 C881 1.327 . S
C879 H865 0.931 . S
C879 C881 1.392 . S
C879 C882 1.370 . S
C880 C876 1.432 . S
C880 N878 1.359 . S
C880 C883 1.414 . S
C881 H863 0.930 . S
C881 N878 1.327 . S
C881 C879 1.392 . S
C882 H877 0.930 . S
C882 C879 1.370 . S
C882 C883 1.385 . S
C883 C880 1.414 . S
C883 C882 1.385 . S
C883 C905 1.444 . S
O884 Tb840 2.546 . S
O884 C904 1.251 . S
O885 Tb840 2.610 . S
O885 Tb851 2.362 . S
O885 C896 1.283 . S
O886 Tb851 2.421 . S
O886 C903 1.262 . S
O887 Tb840 2.320 . S
O887 C903 1.260 . S
O888 Tb840 2.552 . S
O888 C896 1.243 . S
O889 Tb840 2.413 . S
O889 C904 1.256 . S
O890 Tb851 2.546 . S
O890 C915 1.251 . S
O891 Tb840 2.362 . S
O891 Tb851 2.610 . S
O891 C907 1.283 . S
O892 Tb840 2.421 . S
O892 C914 1.262 . S
O893 Tb851 2.320 . S
O893 C914 1.260 . S
O894 Tb851 2.552 . S
O894 C907 1.243 . S
O895 Tb851 2.413 . S
O895 C915 1.256 . S
C896 O885 1.283 . S
C896 O888 1.243 . S
C897 C899 1.382 . S
C897 C901 1.393 . S
C897 C904 1.500 . S
C898 C899 1.400 . S
C898 C900 1.384 . S
C899 C897 1.382 . S
C899 C898 1.400 . S
C899 H916 0.930 . S
C900 C898 1.384 . S
C900 C902 1.392 . S
C900 H917 0.931 . S
C901 C897 1.393 . S
C901 C902 1.401 . S
C901 H918 0.930 . S
C902 C900 1.392 . S
C902 C901 1.401 . S
C902 H919 0.930 . S
C903 O886 1.262 . S
C903 O887 1.260 . S
C904 Tb840 2.833 . S
C904 O884 1.251 . S
C904 O889 1.256 . S
C904 C897 1.500 . S
C905 H870 0.929 . S
C905 C883 1.444 . S
C905 C906 1.317 . S
C906 H868 0.930 . S
C906 C874 1.432 . S
C906 C905 1.317 . S
C907 O891 1.283 . S
C907 O894 1.243 . S
C908 C909 1.382 . S
C908 C912 1.393 . S
C908 C915 1.500 . S
C909 C908 1.382 . S
C909 C910 1.400 . S
C909 H920 0.930 . S
C910 C909 1.400 . S
C910 C911 1.384 . S
C911 C910 1.384 . S
C911 C913 1.392 . S
C911 H921 0.931 . S
C912 C908 1.393 . S
C912 C913 1.401 . S
C912 H922 0.930 . S
C913 C911 1.392 . S
C913 C912 1.401 . S
C913 H923 0.930 . S
C914 O892 1.262 . S
C914 O893 1.260 . S
C915 Tb851 2.833 . S
C915 O890 1.251 . S
C915 O895 1.256 . S
C915 C908 1.500 . S
H916 C899 0.930 . S
H917 C900 0.931 . S
H918 C901 0.930 . S
H919 C902 0.930 . S
H920 C909 0.930 . S
H921 C911 0.931 . S
H922 C912 0.930 . S
H923 C913 0.930 . S
Tb924 N955 2.660 . S
Tb924 N962 2.600 . S
Tb924 O968 2.546 . S
Tb924 O969 2.610 . S
Tb924 O971 2.320 . S
Tb924 O972 2.552 . S
Tb924 O973 2.413 . S
Tb924 O975 2.362 . S
Tb924 O976 2.421 . S
Tb924 C988 2.833 1_554 S
C925 C928 1.432 . S
C925 C929 1.414 . S
C925 N932 1.359 . S
C926 C928 1.417 . S
C926 C930 1.432 . S
C926 C938 1.410 . S
C927 C929 1.444 . S
C927 C930 1.317 . S
C927 H950 0.929 . S
C928 C925 1.432 . S
C928 C926 1.417 . S
C928 N936 1.360 . S
C929 C925 1.414 . S
C929 C927 1.444 . S
C929 C934 1.385 . S
C930 C926 1.432 . S
C930 C927 1.317 . S
C930 H942 0.930 . S
C931 C933 1.392 . S
C931 C934 1.370 . S
C931 H943 0.931 . S
N932 C925 1.359 . S
N932 C933 1.327 . S
N932 Tb935 2.600 . S
C933 C931 1.392 . S
C933 N932 1.327 . S
C933 H940 0.930 . S
C934 C929 1.385 . S
C934 C931 1.370 . S
C934 H953 0.930 . S
Tb935 N932 2.600 . S
Tb935 N936 2.660 . S
Tb935 O969 2.362 . S
Tb935 O970 2.421 . S
Tb935 O974 2.546 . S
Tb935 O975 2.610 . S
Tb935 O977 2.320 . S
Tb935 O978 2.552 . S
Tb935 O979 2.413 . S
Tb935 C999 2.833 . S
N936 C928 1.360 . S
N936 Tb935 2.660 . S
N936 C937 1.305 . S
C937 N936 1.305 . S
C937 C939 1.407 . S
C937 H944 0.930 . S
C938 C926 1.410 . S
C938 C939 1.345 . S
C938 H946 0.930 . S
C939 C937 1.407 . S
C939 C938 1.345 . S
C939 H941 0.930 . S
H940 C933 0.930 . S
H941 C939 0.930 . S
H942 C930 0.930 . S
H943 C931 0.931 . S
H944 C937 0.930 . S
H945 C959 0.930 . S
H946 C938 0.930 . S
H947 C965 0.930 . S
H948 C956 0.930 . S
H949 C963 0.931 . S
H950 C927 0.929 . S
H951 C957 0.930 . S
H952 C990 0.930 . S
H953 C934 0.930 . S
H954 C989 0.929 . S
N955 Tb924 2.660 . S
N955 C956 1.305 . S
N955 C960 1.360 . S
C956 H948 0.930 . S
C956 N955 1.305 . S
C956 C959 1.407 . S
C957 H951 0.930 . S
C957 C958 1.410 . S
C957 C959 1.345 . S
C958 C957 1.410 . S
C958 C960 1.417 . S
C958 C990 1.432 . S
C959 H945 0.930 . S
C959 C956 1.407 . S
C959 C957 1.345 . S
C960 N955 1.360 . S
C960 C958 1.417 . S
C960 C964 1.432 . S
H961 C966 0.930 . S
N962 Tb924 2.600 . S
N962 C964 1.359 . S
N962 C965 1.327 . S
C963 H949 0.931 . S
C963 C965 1.392 . S
C963 C966 1.370 . S
C964 C960 1.432 . S
C964 N962 1.359 . S
C964 C967 1.414 . S
C965 H947 0.930 . S
C965 N962 1.327 . S
C965 C963 1.392 . S
C966 H961 0.930 . S
C966 C963 1.370 . S
C966 C967 1.385 . S
C967 C964 1.414 . S
C967 C966 1.385 . S
C967 C989 1.444 . S
O968 Tb924 2.546 . S
O968 C988 1.251 1_554 S
O969 Tb924 2.610 . S
O969 Tb935 2.362 . S
O969 C980 1.283 . S
O970 Tb935 2.421 . S
O970 C987 1.262 . S
O971 Tb924 2.320 . S
O971 C987 1.260 . S
O972 Tb924 2.552 . S
O972 C980 1.243 . S
O973 Tb924 2.413 . S
O973 C988 1.256 1_554 S
O974 Tb935 2.546 . S
O974 C999 1.251 . S
O975 Tb924 2.362 . S
O975 Tb935 2.610 . S
O975 C991 1.283 . S
O976 Tb924 2.421 . S
O976 C998 1.262 . S
O977 Tb935 2.320 . S
O977 C998 1.260 . S
O978 Tb935 2.552 . S
O978 C991 1.243 . S
O979 Tb935 2.413 . S
O979 C999 1.256 . S
C980 O969 1.283 . S
C980 O972 1.243 . S
C981 C983 1.382 . S
C981 C985 1.393 . S
C981 C988 1.500 . S
C982 C983 1.400 . S
C982 C984 1.384 . S
C983 C981 1.382 . S
C983 C982 1.400 . S
C983 H1000 0.930 . S
C984 C982 1.384 . S
C984 C986 1.392 . S
C984 H1001 0.931 . S
C985 C981 1.393 . S
C985 C986 1.401 . S
C985 H1002 0.930 . S
C986 C984 1.392 . S
C986 C985 1.401 . S
C986 H1003 0.930 . S
C987 O970 1.262 . S
C987 O971 1.260 . S
C988 Tb924 2.833 1_556 S
C988 O968 1.251 1_556 S
C988 O973 1.256 1_556 S
C988 C981 1.500 . S
C989 H954 0.929 . S
C989 C967 1.444 . S
C989 C990 1.317 . S
C990 H952 0.930 . S
C990 C958 1.432 . S
C990 C989 1.317 . S
C991 O975 1.283 . S
C991 O978 1.243 . S
C992 C993 1.382 . S
C992 C996 1.393 . S
C992 C999 1.500 . S
C993 C992 1.382 . S
C993 C994 1.400 . S
C993 H1004 0.930 . S
C994 C993 1.400 . S
C994 C995 1.384 . S
C995 C994 1.384 . S
C995 C997 1.392 . S
C995 H1005 0.931 . S
C996 C992 1.393 . S
C996 C997 1.401 . S
C996 H1006 0.930 . S
C997 C995 1.392 . S
C997 C996 1.401 . S
C997 H1007 0.930 . S
C998 O976 1.262 . S
C998 O977 1.260 . S
C999 Tb935 2.833 . S
C999 O974 1.251 . S
C999 O979 1.256 . S
C999 C992 1.500 . S
H1000 C983 0.930 . S
H1001 C984 0.931 . S
H1002 C985 0.930 . S
H1003 C986 0.930 . S
H1004 C993 0.930 . S
H1005 C995 0.931 . S
H1006 C996 0.930 . S
H1007 C997 0.930 . S
C1008 C1009 1.349 . S
C1008 C1010 1.327 . S
C1008 H1033 0.950 . S
C1009 C1008 1.349 . S
C1009 C1025 1.349 . S
C1010 C1008 1.327 . S
C1010 C1029 1.429 . S
C1010 H1034 0.950 . S
C1011 C1028 1.574 . S
C1011 C1030 1.368 . S
C1011 H1035 0.949 . S
H1012 C1016 0.949 . S
C1013 C1014 1.349 . S
C1013 C1015 1.327 . S
C1013 H1036 0.950 . S
C1014 C1013 1.349 . S
C1014 C1026 1.349 . S
C1015 C1013 1.327 . S
C1015 C1031 1.429 . S
C1015 H1037 0.950 . S
C1016 H1012 0.949 . S
C1016 C1024 1.574 . S
C1016 C1032 1.368 . S
H1017 C1025 0.950 . S
H1018 C1023 0.950 . S
H1019 C1024 0.949 . S
H1020 C1026 0.950 . S
H1021 C1027 0.950 . S
H1022 C1028 0.949 . S
C1023 H1018 0.950 . S
C1023 C1025 1.327 . S
C1023 C1029 1.429 . S
C1024 C1016 1.574 . S
C1024 H1019 0.949 . S
C1024 C1030 1.368 . S
C1025 C1009 1.349 . S
C1025 H1017 0.950 . S
C1025 C1023 1.327 . S
C1026 C1014 1.349 . S
C1026 H1020 0.950 . S
C1026 C1027 1.327 . S
C1027 H1021 0.950 . S
C1027 C1026 1.327 . S
C1027 C1031 1.429 . S
C1028 C1011 1.574 . S
C1028 H1022 0.949 . S
C1028 C1032 1.368 . S
C1029 C1010 1.429 . S
C1029 C1023 1.429 . S
C1029 C1030 1.523 . S
C1030 C1011 1.368 . S
C1030 C1024 1.368 . S
C1030 C1029 1.523 . S
C1031 C1015 1.429 . S
C1031 C1027 1.429 . S
C1031 C1032 1.523 . S
C1032 C1016 1.368 . S
C1032 C1028 1.368 . S
C1032 C1031 1.523 . S
H1033 C1008 0.950 . S
H1034 C1010 0.950 . S
H1035 C1011 0.949 . S
H1036 C1013 0.950 . S
H1037 C1015 0.950 . S
C1038 C1039 1.349 . S
C1038 C1040 1.327 . S
C1038 H1063 0.950 . S
C1039 C1038 1.349 . S
C1039 C1055 1.349 . S
C1040 C1038 1.327 . S
C1040 C1059 1.429 . S
C1040 H1064 0.950 . S
C1041 C1058 1.574 . S
C1041 C1060 1.368 . S
C1041 H1065 0.949 . S
H1042 C1046 0.949 . S
C1043 C1044 1.349 . S
C1043 C1045 1.327 . S
C1043 H1066 0.950 . S
C1044 C1043 1.349 . S
C1044 C1056 1.349 . S
C1045 C1043 1.327 . S
C1045 C1061 1.429 . S
C1045 H1067 0.950 . S
C1046 H1042 0.949 . S
C1046 C1054 1.574 . S
C1046 C1062 1.368 . S
H1047 C1055 0.950 . S
H1048 C1053 0.950 . S
H1049 C1054 0.949 . S
H1050 C1056 0.950 . S
H1051 C1057 0.950 . S
H1052 C1058 0.949 . S
C1053 H1048 0.950 . S
C1053 C1055 1.327 . S
C1053 C1059 1.429 . S
C1054 C1046 1.574 . S
C1054 H1049 0.949 . S
C1054 C1060 1.368 . S
C1055 C1039 1.349 . S
C1055 H1047 0.950 . S
C1055 C1053 1.327 . S
C1056 C1044 1.349 . S
C1056 H1050 0.950 . S
C1056 C1057 1.327 . S
C1057 H1051 0.950 . S
C1057 C1056 1.327 . S
C1057 C1061 1.429 . S
C1058 C1041 1.574 . S
C1058 H1052 0.949 . S
C1058 C1062 1.368 . S
C1059 C1040 1.429 . S
C1059 C1053 1.429 . S
C1059 C1060 1.523 . S
C1060 C1041 1.368 . S
C1060 C1054 1.368 . S
C1060 C1059 1.523 . S
C1061 C1045 1.429 . S
C1061 C1057 1.429 . S
C1061 C1062 1.523 . S
C1062 C1046 1.368 . S
C1062 C1058 1.368 . S
C1062 C1061 1.523 . S
H1063 C1038 0.950 . S
H1064 C1040 0.950 . S
H1065 C1041 0.949 . S
H1066 C1043 0.950 . S
H1067 C1045 0.950 . S
C1068 C1069 1.349 . S
C1068 C1070 1.327 . S
C1068 H1093 0.950 . S
C1069 C1068 1.349 . S
C1069 C1085 1.349 . S
C1070 C1068 1.327 . S
C1070 C1089 1.429 . S
C1070 H1094 0.950 . S
C1071 C1088 1.574 . S
C1071 C1090 1.368 . S
C1071 H1095 0.949 . S
H1072 C1076 0.949 . S
C1073 C1074 1.349 . S
C1073 C1075 1.327 . S
C1073 H1096 0.950 . S
C1074 C1073 1.349 . S
C1074 C1086 1.349 . S
C1075 C1073 1.327 . S
C1075 C1091 1.429 . S
C1075 H1097 0.950 . S
C1076 H1072 0.949 . S
C1076 C1084 1.574 . S
C1076 C1092 1.368 . S
H1077 C1085 0.950 . S
H1078 C1083 0.950 . S
H1079 C1084 0.949 . S
H1080 C1086 0.950 . S
H1081 C1087 0.950 . S
H1082 C1088 0.949 . S
C1083 H1078 0.950 . S
C1083 C1085 1.327 . S
C1083 C1089 1.429 . S
C1084 C1076 1.574 . S
C1084 H1079 0.949 . S
C1084 C1090 1.368 . S
C1085 C1069 1.349 . S
C1085 H1077 0.950 . S
C1085 C1083 1.327 . S
C1086 C1074 1.349 . S
C1086 H1080 0.950 . S
C1086 C1087 1.327 . S
C1087 H1081 0.950 . S
C1087 C1086 1.327 . S
C1087 C1091 1.429 . S
C1088 C1071 1.574 . S
C1088 H1082 0.949 . S
C1088 C1092 1.368 . S
C1089 C1070 1.429 . S
C1089 C1083 1.429 . S
C1089 C1090 1.523 . S
C1090 C1071 1.368 . S
C1090 C1084 1.368 . S
C1090 C1089 1.523 . S
C1091 C1075 1.429 . S
C1091 C1087 1.429 . S
C1091 C1092 1.523 . S
C1092 C1076 1.368 . S
C1092 C1088 1.368 . S
C1092 C1091 1.523 . S
H1093 C1068 0.950 . S
H1094 C1070 0.950 . S
H1095 C1071 0.949 . S
H1096 C1073 0.950 . S
H1097 C1075 0.950 . S
C1098 C1099 1.349 . S
C1098 C1100 1.327 . S
C1098 H1123 0.950 . S
C1099 C1098 1.349 . S
C1099 C1115 1.349 . S
C1100 C1098 1.327 . S
C1100 C1119 1.429 . S
C1100 H1124 0.950 . S
C1101 C1118 1.574 . S
C1101 C1120 1.368 . S
C1101 H1125 0.949 . S
H1102 C1106 0.949 . S
C1103 C1104 1.349 . S
C1103 C1105 1.327 . S
C1103 H1126 0.950 . S
C1104 C1103 1.349 . S
C1104 C1116 1.349 . S
C1105 C1103 1.327 . S
C1105 C1121 1.429 . S
C1105 H1127 0.950 . S
C1106 H1102 0.949 . S
C1106 C1114 1.574 . S
C1106 C1122 1.368 . S
H1107 C1115 0.950 . S
H1108 C1113 0.950 . S
H1109 C1114 0.949 . S
H1110 C1116 0.950 . S
H1111 C1117 0.950 . S
H1112 C1118 0.949 . S
C1113 H1108 0.950 . S
C1113 C1115 1.327 . S
C1113 C1119 1.429 . S
C1114 C1106 1.574 . S
C1114 H1109 0.949 . S
C1114 C1120 1.368 . S
C1115 C1099 1.349 . S
C1115 H1107 0.950 . S
C1115 C1113 1.327 . S
C1116 C1104 1.349 . S
C1116 H1110 0.950 . S
C1116 C1117 1.327 . S
C1117 H1111 0.950 . S
C1117 C1116 1.327 . S
C1117 C1121 1.429 . S
C1118 C1101 1.574 . S
C1118 H1112 0.949 . S
C1118 C1122 1.368 . S
C1119 C1100 1.429 . S
C1119 C1113 1.429 . S
C1119 C1120 1.523 . S
C1120 C1101 1.368 . S
C1120 C1114 1.368 . S
C1120 C1119 1.523 . S
C1121 C1105 1.429 . S
C1121 C1117 1.429 . S
C1121 C1122 1.523 . S
C1122 C1106 1.368 . S
C1122 C1118 1.368 . S
C1122 C1121 1.523 . S
H1123 C1098 0.950 . S
H1124 C1100 0.950 . S
H1125 C1101 0.949 . S
H1126 C1103 0.950 . S
H1127 C1105 0.950 . S
C1128 C1129 1.349 . S
C1128 C1130 1.327 . S
C1128 H1153 0.950 . S
C1129 C1128 1.349 . S
C1129 C1145 1.349 . S
C1130 C1128 1.327 . S
C1130 C1149 1.429 . S
C1130 H1154 0.950 . S
C1131 C1148 1.574 . S
C1131 C1150 1.368 . S
C1131 H1155 0.949 . S
H1132 C1136 0.949 . S
C1133 C1134 1.349 . S
C1133 C1135 1.327 . S
C1133 H1156 0.950 . S
C1134 C1133 1.349 . S
C1134 C1146 1.349 . S
C1135 C1133 1.327 . S
C1135 C1151 1.429 . S
C1135 H1157 0.950 . S
C1136 H1132 0.949 . S
C1136 C1144 1.574 . S
C1136 C1152 1.368 . S
H1137 C1145 0.950 . S
H1138 C1143 0.950 . S
H1139 C1144 0.949 . S
H1140 C1146 0.950 . S
H1141 C1147 0.950 . S
H1142 C1148 0.949 . S
C1143 H1138 0.950 . S
C1143 C1145 1.327 . S
C1143 C1149 1.429 . S
C1144 C1136 1.574 . S
C1144 H1139 0.949 . S
C1144 C1150 1.368 . S
C1145 C1129 1.349 . S
C1145 H1137 0.950 . S
C1145 C1143 1.327 . S
C1146 C1134 1.349 . S
C1146 H1140 0.950 . S
C1146 C1147 1.327 . S
C1147 H1141 0.950 . S
C1147 C1146 1.327 . S
C1147 C1151 1.429 . S
C1148 C1131 1.574 . S
C1148 H1142 0.949 . S
C1148 C1152 1.368 . S
C1149 C1130 1.429 . S
C1149 C1143 1.429 . S
C1149 C1150 1.523 . S
C1150 C1131 1.368 . S
C1150 C1144 1.368 . S
C1150 C1149 1.523 . S
C1151 C1135 1.429 . S
C1151 C1147 1.429 . S
C1151 C1152 1.523 . S
C1152 C1136 1.368 . S
C1152 C1148 1.368 . S
C1152 C1151 1.523 . S
H1153 C1128 0.950 . S
H1154 C1130 0.950 . S
H1155 C1131 0.949 . S
H1156 C1133 0.950 . S
H1157 C1135 0.950 . S
C1158 C1159 1.349 . S
C1158 C1160 1.327 . S
C1158 H1183 0.950 . S
C1159 C1158 1.349 . S
C1159 C1175 1.349 . S
C1160 C1158 1.327 . S
C1160 C1179 1.429 . S
C1160 H1184 0.950 . S
C1161 C1178 1.574 . S
C1161 C1180 1.368 . S
C1161 H1185 0.949 . S
H1162 C1166 0.949 . S
C1163 C1164 1.349 . S
C1163 C1165 1.327 . S
C1163 H1186 0.950 . S
C1164 C1163 1.349 . S
C1164 C1176 1.349 . S
C1165 C1163 1.327 . S
C1165 C1181 1.429 . S
C1165 H1187 0.950 . S
C1166 H1162 0.949 . S
C1166 C1174 1.574 . S
C1166 C1182 1.368 . S
H1167 C1175 0.950 . S
H1168 C1173 0.950 . S
H1169 C1174 0.949 . S
H1170 C1176 0.950 . S
H1171 C1177 0.950 . S
H1172 C1178 0.949 . S
C1173 H1168 0.950 . S
C1173 C1175 1.327 . S
C1173 C1179 1.429 . S
C1174 C1166 1.574 . S
C1174 H1169 0.949 . S
C1174 C1180 1.368 . S
C1175 C1159 1.349 . S
C1175 H1167 0.950 . S
C1175 C1173 1.327 . S
C1176 C1164 1.349 . S
C1176 H1170 0.950 . S
C1176 C1177 1.327 . S
C1177 H1171 0.950 . S
C1177 C1176 1.327 . S
C1177 C1181 1.429 . S
C1178 C1161 1.574 . S
C1178 H1172 0.949 . S
C1178 C1182 1.368 . S
C1179 C1160 1.429 . S
C1179 C1173 1.429 . S
C1179 C1180 1.523 . S
C1180 C1161 1.368 . S
C1180 C1174 1.368 . S
C1180 C1179 1.523 . S
C1181 C1165 1.429 . S
C1181 C1177 1.429 . S
C1181 C1182 1.523 . S
C1182 C1166 1.368 . S
C1182 C1178 1.368 . S
C1182 C1181 1.523 . S
H1183 C1158 0.950 . S
H1184 C1160 0.950 . S
H1185 C1161 0.949 . S
H1186 C1163 0.950 . S
H1187 C1165 0.950 . S
C1188 C1189 1.349 . S
C1188 C1190 1.327 . S
C1188 H1213 0.950 . S
C1189 C1188 1.349 . S
C1189 C1205 1.349 . S
C1190 C1188 1.327 . S
C1190 C1209 1.429 . S
C1190 H1214 0.950 . S
C1191 C1208 1.574 1_556 S
C1191 C1210 1.368 . S
C1191 H1215 0.949 . S
H1192 C1196 0.949 . S
C1193 C1194 1.349 . S
C1193 C1195 1.327 . S
C1193 H1216 0.950 . S
C1194 C1193 1.349 . S
C1194 C1206 1.349 . S
C1195 C1193 1.327 . S
C1195 C1211 1.429 . S
C1195 H1217 0.950 . S
C1196 H1192 0.949 . S
C1196 C1204 1.574 1_554 S
C1196 C1212 1.368 . S
H1197 C1205 0.950 . S
H1198 C1203 0.950 . S
H1199 C1204 0.949 . S
H1200 C1206 0.950 . S
H1201 C1207 0.950 . S
H1202 C1208 0.949 . S
C1203 H1198 0.950 . S
C1203 C1205 1.327 . S
C1203 C1209 1.429 . S
C1204 C1196 1.574 1_556 S
C1204 H1199 0.949 . S
C1204 C1210 1.368 . S
C1205 C1189 1.349 . S
C1205 H1197 0.950 . S
C1205 C1203 1.327 . S
C1206 C1194 1.349 . S
C1206 H1200 0.950 . S
C1206 C1207 1.327 . S
C1207 H1201 0.950 . S
C1207 C1206 1.327 . S
C1207 C1211 1.429 . S
C1208 C1191 1.574 1_554 S
C1208 H1202 0.949 . S
C1208 C1212 1.368 . S
C1209 C1190 1.429 . S
C1209 C1203 1.429 . S
C1209 C1210 1.523 . S
C1210 C1191 1.368 . S
C1210 C1204 1.368 . S
C1210 C1209 1.523 . S
C1211 C1195 1.429 . S
C1211 C1207 1.429 . S
C1211 C1212 1.523 . S
C1212 C1196 1.368 . S
C1212 C1208 1.368 . S
C1212 C1211 1.523 . S
H1213 C1188 0.950 . S
H1214 C1190 0.950 . S
H1215 C1191 0.949 . S
H1216 C1193 0.950 . S
H1217 C1195 0.950 . S
C1218 C1219 1.349 . S
C1218 C1220 1.327 . S
C1218 H1243 0.950 . S
C1219 C1218 1.349 . S
C1219 C1235 1.349 . S
C1220 C1218 1.327 . S
C1220 C1239 1.429 . S
C1220 H1244 0.950 . S
C1221 C1238 1.574 . S
C1221 C1240 1.368 . S
C1221 H1245 0.949 . S
H1222 C1226 0.949 . S
C1223 C1224 1.349 . S
C1223 C1225 1.327 . S
C1223 H1246 0.950 . S
C1224 C1223 1.349 . S
C1224 C1236 1.349 . S
C1225 C1223 1.327 . S
C1225 C1241 1.429 . S
C1225 H1247 0.950 . S
C1226 H1222 0.949 . S
C1226 C1234 1.574 . S
C1226 C1242 1.368 . S
H1227 C1235 0.950 . S
H1228 C1233 0.950 . S
H1229 C1234 0.949 . S
H1230 C1236 0.950 . S
H1231 C1237 0.950 . S
H1232 C1238 0.949 . S
C1233 H1228 0.950 . S
C1233 C1235 1.327 . S
C1233 C1239 1.429 . S
C1234 C1226 1.574 . S
C1234 H1229 0.949 . S
C1234 C1240 1.368 . S
C1235 C1219 1.349 . S
C1235 H1227 0.950 . S
C1235 C1233 1.327 . S
C1236 C1224 1.349 . S
C1236 H1230 0.950 . S
C1236 C1237 1.327 . S
C1237 H1231 0.950 . S
C1237 C1236 1.327 . S
C1237 C1241 1.429 . S
C1238 C1221 1.574 . S
C1238 H1232 0.949 . S
C1238 C1242 1.368 . S
C1239 C1220 1.429 . S
C1239 C1233 1.429 . S
C1239 C1240 1.523 . S
C1240 C1221 1.368 . S
C1240 C1234 1.368 . S
C1240 C1239 1.523 . S
C1241 C1225 1.429 . S
C1241 C1237 1.429 . S
C1241 C1242 1.523 . S
C1242 C1226 1.368 . S
C1242 C1238 1.368 . S
C1242 C1241 1.523 . S
H1243 C1218 0.950 . S
H1244 C1220 0.950 . S
H1245 C1221 0.949 . S
H1246 C1223 0.950 . S
H1247 C1225 0.950 . S
C1248 C1249 1.349 . S
C1248 C1250 1.327 . S
C1248 H1273 0.950 . S
C1249 C1248 1.349 . S
C1249 C1265 1.349 . S
C1250 C1248 1.327 . S
C1250 C1269 1.429 . S
C1250 H1274 0.950 . S
C1251 C1268 1.574 . S
C1251 C1270 1.368 . S
C1251 H1275 0.949 . S
H1252 C1256 0.949 . S
C1253 C1254 1.349 . S
C1253 C1255 1.327 . S
C1253 H1276 0.950 . S
C1254 C1253 1.349 . S
C1254 C1266 1.349 . S
C1255 C1253 1.327 . S
C1255 C1271 1.429 . S
C1255 H1277 0.950 . S
C1256 H1252 0.949 . S
C1256 C1264 1.574 . S
C1256 C1272 1.368 . S
H1257 C1265 0.950 . S
H1258 C1263 0.950 . S
H1259 C1264 0.949 . S
H1260 C1266 0.950 . S
H1261 C1267 0.950 . S
H1262 C1268 0.949 . S
C1263 H1258 0.950 . S
C1263 C1265 1.327 . S
C1263 C1269 1.429 . S
C1264 C1256 1.574 . S
C1264 H1259 0.949 . S
C1264 C1270 1.368 . S
C1265 C1249 1.349 . S
C1265 H1257 0.950 . S
C1265 C1263 1.327 . S
C1266 C1254 1.349 . S
C1266 H1260 0.950 . S
C1266 C1267 1.327 . S
C1267 H1261 0.950 . S
C1267 C1266 1.327 . S
C1267 C1271 1.429 . S
C1268 C1251 1.574 . S
C1268 H1262 0.949 . S
C1268 C1272 1.368 . S
C1269 C1250 1.429 . S
C1269 C1263 1.429 . S
C1269 C1270 1.523 . S
C1270 C1251 1.368 . S
C1270 C1264 1.368 . S
C1270 C1269 1.523 . S
C1271 C1255 1.429 . S
C1271 C1267 1.429 . S
C1271 C1272 1.523 . S
C1272 C1256 1.368 . S
C1272 C1268 1.368 . S
C1272 C1271 1.523 . S
H1273 C1248 0.950 . S
H1274 C1250 0.950 . S
H1275 C1251 0.949 . S
H1276 C1253 0.950 . S
H1277 C1255 0.950 . S
C1278 C1279 1.349 . S
C1278 C1280 1.327 . S
C1278 H1303 0.950 . S
C1279 C1278 1.349 . S
C1279 C1295 1.349 . S
C1280 C1278 1.327 . S
C1280 C1299 1.429 . S
C1280 H1304 0.950 . S
C1281 C1298 1.574 1_556 S
C1281 C1300 1.368 . S
C1281 H1305 0.949 . S
H1282 C1286 0.949 . S
C1283 C1284 1.349 . S
C1283 C1285 1.327 . S
C1283 H1306 0.950 . S
C1284 C1283 1.349 . S
C1284 C1296 1.349 . S
C1285 C1283 1.327 . S
C1285 C1301 1.429 . S
C1285 H1307 0.950 . S
C1286 H1282 0.949 . S
C1286 C1294 1.574 1_554 S
C1286 C1302 1.368 . S
H1287 C1295 0.950 . S
H1288 C1293 0.950 . S
H1289 C1294 0.949 . S
H1290 C1296 0.950 . S
H1291 C1297 0.950 . S
H1292 C1298 0.949 . S
C1293 H1288 0.950 . S
C1293 C1295 1.327 . S
C1293 C1299 1.429 . S
C1294 C1286 1.574 1_556 S
C1294 H1289 0.949 . S
C1294 C1300 1.368 . S
C1295 C1279 1.349 . S
C1295 H1287 0.950 . S
C1295 C1293 1.327 . S
C1296 C1284 1.349 . S
C1296 H1290 0.950 . S
C1296 C1297 1.327 . S
C1297 H1291 0.950 . S
C1297 C1296 1.327 . S
C1297 C1301 1.429 . S
C1298 C1281 1.574 1_554 S
C1298 H1292 0.949 . S
C1298 C1302 1.368 . S
C1299 C1280 1.429 . S
C1299 C1293 1.429 . S
C1299 C1300 1.523 . S
C1300 C1281 1.368 . S
C1300 C1294 1.368 . S
C1300 C1299 1.523 . S
C1301 C1285 1.429 . S
C1301 C1297 1.429 . S
C1301 C1302 1.523 . S
C1302 C1286 1.368 . S
C1302 C1298 1.368 . S
C1302 C1301 1.523 . S
H1303 C1278 0.950 . S
H1304 C1280 0.950 . S
H1305 C1281 0.949 . S
H1306 C1283 0.950 . S
H1307 C1285 0.950 . S
C1308 C1309 1.349 . S
C1308 C1310 1.327 . S
C1308 H1333 0.950 . S
C1309 C1308 1.349 . S
C1309 C1325 1.349 . S
C1310 C1308 1.327 . S
C1310 C1329 1.429 . S
C1310 H1334 0.950 . S
C1311 C1328 1.574 . S
C1311 C1330 1.368 . S
C1311 H1335 0.949 . S
H1312 C1316 0.949 . S
C1313 C1314 1.349 . S
C1313 C1315 1.327 . S
C1313 H1336 0.950 . S
C1314 C1313 1.349 . S
C1314 C1326 1.349 . S
C1315 C1313 1.327 . S
C1315 C1331 1.429 . S
C1315 H1337 0.950 . S
C1316 H1312 0.949 . S
C1316 C1324 1.574 . S
C1316 C1332 1.368 . S
H1317 C1325 0.950 . S
H1318 C1323 0.950 . S
H1319 C1324 0.949 . S
H1320 C1326 0.950 . S
H1321 C1327 0.950 . S
H1322 C1328 0.949 . S
C1323 H1318 0.950 . S
C1323 C1325 1.327 . S
C1323 C1329 1.429 . S
C1324 C1316 1.574 . S
C1324 H1319 0.949 . S
C1324 C1330 1.368 . S
C1325 C1309 1.349 . S
C1325 H1317 0.950 . S
C1325 C1323 1.327 . S
C1326 C1314 1.349 . S
C1326 H1320 0.950 . S
C1326 C1327 1.327 . S
C1327 H1321 0.950 . S
C1327 C1326 1.327 . S
C1327 C1331 1.429 . S
C1328 C1311 1.574 . S
C1328 H1322 0.949 . S
C1328 C1332 1.368 . S
C1329 C1310 1.429 . S
C1329 C1323 1.429 . S
C1329 C1330 1.523 . S
C1330 C1311 1.368 . S
C1330 C1324 1.368 . S
C1330 C1329 1.523 . S
C1331 C1315 1.429 . S
C1331 C1327 1.429 . S
C1331 C1332 1.523 . S
C1332 C1316 1.368 . S
C1332 C1328 1.368 . S
C1332 C1331 1.523 . S
H1333 C1308 0.950 . S
H1334 C1310 0.950 . S
H1335 C1311 0.949 . S
H1336 C1313 0.950 . S
H1337 C1315 0.950 . S
C1338 C1339 1.349 . S
C1338 C1340 1.327 . S
C1338 H1363 0.950 . S
C1339 C1338 1.349 . S
C1339 C1355 1.349 . S
C1340 C1338 1.327 . S
C1340 C1359 1.429 . S
C1340 H1364 0.950 . S
C1341 C1358 1.574 . S
C1341 C1360 1.368 . S
C1341 H1365 0.949 . S
H1342 C1346 0.949 . S
C1343 C1344 1.349 . S
C1343 C1345 1.327 . S
C1343 H1366 0.950 . S
C1344 C1343 1.349 . S
C1344 C1356 1.349 . S
C1345 C1343 1.327 . S
C1345 C1361 1.429 . S
C1345 H1367 0.950 . S
C1346 H1342 0.949 . S
C1346 C1354 1.574 . S
C1346 C1362 1.368 . S
H1347 C1355 0.950 . S
H1348 C1353 0.950 . S
H1349 C1354 0.949 . S
H1350 C1356 0.950 . S
H1351 C1357 0.950 . S
H1352 C1358 0.949 . S
C1353 H1348 0.950 . S
C1353 C1355 1.327 . S
C1353 C1359 1.429 . S
C1354 C1346 1.574 . S
C1354 H1349 0.949 . S
C1354 C1360 1.368 . S
C1355 C1339 1.349 . S
C1355 H1347 0.950 . S
C1355 C1353 1.327 . S
C1356 C1344 1.349 . S
C1356 H1350 0.950 . S
C1356 C1357 1.327 . S
C1357 H1351 0.950 . S
C1357 C1356 1.327 . S
C1357 C1361 1.429 . S
C1358 C1341 1.574 . S
C1358 H1352 0.949 . S
C1358 C1362 1.368 . S
C1359 C1340 1.429 . S
C1359 C1353 1.429 . S
C1359 C1360 1.523 . S
C1360 C1341 1.368 . S
C1360 C1354 1.368 . S
C1360 C1359 1.523 . S
C1361 C1345 1.429 . S
C1361 C1357 1.429 . S
C1361 C1362 1.523 . S
C1362 C1346 1.368 . S
C1362 C1358 1.368 . S
C1362 C1361 1.523 . S
H1363 C1338 0.950 . S
H1364 C1340 0.950 . S
H1365 C1341 0.949 . S
H1366 C1343 0.950 . S
H1367 C1345 0.950 . S
C1368 C1369 1.349 . S
C1368 C1370 1.327 . S
C1368 H1393 0.950 . S
C1369 C1368 1.349 . S
C1369 C1385 1.349 . S
C1370 C1368 1.327 . S
C1370 C1389 1.429 . S
C1370 H1394 0.950 . S
C1371 C1388 1.574 1_566 S
C1371 C1390 1.368 . S
C1371 H1395 0.949 . S
H1372 C1376 0.949 . S
C1373 C1374 1.349 . S
C1373 C1375 1.327 . S
C1373 H1396 0.950 . S
C1374 C1373 1.349 . S
C1374 C1386 1.349 . S
C1375 C1373 1.327 . S
C1375 C1391 1.429 . S
C1375 H1397 0.950 . S
C1376 H1372 0.949 . S
C1376 C1384 1.574 1_544 S
C1376 C1392 1.368 . S
H1377 C1385 0.950 . S
H1378 C1383 0.950 . S
H1379 C1384 0.949 . S
H1380 C1386 0.950 . S
H1381 C1387 0.950 . S
H1382 C1388 0.949 . S
C1383 H1378 0.950 . S
C1383 C1385 1.327 . S
C1383 C1389 1.429 . S
C1384 C1376 1.574 1_566 S
C1384 H1379 0.949 . S
C1384 C1390 1.368 . S
C1385 C1369 1.349 . S
C1385 H1377 0.950 . S
C1385 C1383 1.327 . S
C1386 C1374 1.349 . S
C1386 H1380 0.950 . S
C1386 C1387 1.327 . S
C1387 H1381 0.950 . S
C1387 C1386 1.327 . S
C1387 C1391 1.429 . S
C1388 C1371 1.574 1_544 S
C1388 H1382 0.949 . S
C1388 C1392 1.368 . S
C1389 C1370 1.429 . S
C1389 C1383 1.429 . S
C1389 C1390 1.523 . S
C1390 C1371 1.368 . S
C1390 C1384 1.368 . S
C1390 C1389 1.523 . S
C1391 C1375 1.429 . S
C1391 C1387 1.429 . S
C1391 C1392 1.523 . S
C1392 C1376 1.368 . S
C1392 C1388 1.368 . S
C1392 C1391 1.523 . S
H1393 C1368 0.950 . S
H1394 C1370 0.950 . S
H1395 C1371 0.949 . S
H1396 C1373 0.950 . S
H1397 C1375 0.950 . S
C1398 C1399 1.349 . S
C1398 C1400 1.327 . S
C1398 H1423 0.950 . S
C1399 C1398 1.349 . S
C1399 C1415 1.349 . S
C1400 C1398 1.327 . S
C1400 C1419 1.429 . S
C1400 H1424 0.950 . S
C1401 C1418 1.574 . S
C1401 C1420 1.368 . S
C1401 H1425 0.949 . S
H1402 C1406 0.949 . S
C1403 C1404 1.349 . S
C1403 C1405 1.327 . S
C1403 H1426 0.950 . S
C1404 C1403 1.349 . S
C1404 C1416 1.349 . S
C1405 C1403 1.327 . S
C1405 C1421 1.429 . S
C1405 H1427 0.950 . S
C1406 H1402 0.949 . S
C1406 C1414 1.574 . S
C1406 C1422 1.368 . S
H1407 C1415 0.950 . S
H1408 C1413 0.950 . S
H1409 C1414 0.949 . S
H1410 C1416 0.950 . S
H1411 C1417 0.950 . S
H1412 C1418 0.949 . S
C1413 H1408 0.950 . S
C1413 C1415 1.327 . S
C1413 C1419 1.429 . S
C1414 C1406 1.574 . S
C1414 H1409 0.949 . S
C1414 C1420 1.368 . S
C1415 C1399 1.349 . S
C1415 H1407 0.950 . S
C1415 C1413 1.327 . S
C1416 C1404 1.349 . S
C1416 H1410 0.950 . S
C1416 C1417 1.327 . S
C1417 H1411 0.950 . S
C1417 C1416 1.327 . S
C1417 C1421 1.429 . S
C1418 C1401 1.574 . S
C1418 H1412 0.949 . S
C1418 C1422 1.368 . S
C1419 C1400 1.429 . S
C1419 C1413 1.429 . S
C1419 C1420 1.523 . S
C1420 C1401 1.368 . S
C1420 C1414 1.368 . S
C1420 C1419 1.523 . S
C1421 C1405 1.429 . S
C1421 C1417 1.429 . S
C1421 C1422 1.523 . S
C1422 C1406 1.368 . S
C1422 C1418 1.368 . S
C1422 C1421 1.523 . S
H1423 C1398 0.950 . S
H1424 C1400 0.950 . S
H1425 C1401 0.949 . S
H1426 C1403 0.950 . S
H1427 C1405 0.950 . S
C1428 C1429 1.349 . S
C1428 C1430 1.327 . S
C1428 H1453 0.950 . S
C1429 C1428 1.349 . S
C1429 C1445 1.349 . S
C1430 C1428 1.327 . S
C1430 C1449 1.429 . S
C1430 H1454 0.950 . S
C1431 C1448 1.574 1_455 S
C1431 C1450 1.368 . S
C1431 H1455 0.949 . S
H1432 C1436 0.949 . S
C1433 C1434 1.349 . S
C1433 C1435 1.327 . S
C1433 H1456 0.950 . S
C1434 C1433 1.349 . S
C1434 C1446 1.349 . S
C1435 C1433 1.327 . S
C1435 C1451 1.429 . S
C1435 H1457 0.950 . S
C1436 H1432 0.949 . S
C1436 C1444 1.574 1_655 S
C1436 C1452 1.368 . S
H1437 C1445 0.950 . S
H1438 C1443 0.950 . S
H1439 C1444 0.949 . S
H1440 C1446 0.950 . S
H1441 C1447 0.950 . S
H1442 C1448 0.949 . S
C1443 H1438 0.950 . S
C1443 C1445 1.327 . S
C1443 C1449 1.429 . S
C1444 C1436 1.574 1_455 S
C1444 H1439 0.949 . S
C1444 C1450 1.368 . S
C1445 C1429 1.349 . S
C1445 H1437 0.950 . S
C1445 C1443 1.327 . S
C1446 C1434 1.349 . S
C1446 H1440 0.950 . S
C1446 C1447 1.327 . S
C1447 H1441 0.950 . S
C1447 C1446 1.327 . S
C1447 C1451 1.429 . S
C1448 C1431 1.574 1_655 S
C1448 H1442 0.949 . S
C1448 C1452 1.368 . S
C1449 C1430 1.429 . S
C1449 C1443 1.429 . S
C1449 C1450 1.523 . S
C1450 C1431 1.368 . S
C1450 C1444 1.368 . S
C1450 C1449 1.523 . S
C1451 C1435 1.429 . S
C1451 C1447 1.429 . S
C1451 C1452 1.523 . S
C1452 C1436 1.368 . S
C1452 C1448 1.368 . S
C1452 C1451 1.523 . S
H1453 C1428 0.950 . S
H1454 C1430 0.950 . S
H1455 C1431 0.949 . S
H1456 C1433 0.950 . S
H1457 C1435 0.950 . S
C1458 C1459 1.349 . S
C1458 C1460 1.327 . S
C1458 H1483 0.950 . S
C1459 C1458 1.349 . S
C1459 C1475 1.349 . S
C1460 C1458 1.327 . S
C1460 C1479 1.429 . S
C1460 H1484 0.950 . S
C1461 C1478 1.574 1_554 S
C1461 C1480 1.368 . S
C1461 H1485 0.949 . S
H1462 C1466 0.949 . S
C1463 C1464 1.349 . S
C1463 C1465 1.327 . S
C1463 H1486 0.950 . S
C1464 C1463 1.349 . S
C1464 C1476 1.349 . S
C1465 C1463 1.327 . S
C1465 C1481 1.429 . S
C1465 H1487 0.950 . S
C1466 H1462 0.949 . S
C1466 C1474 1.574 1_556 S
C1466 C1482 1.368 . S
H1467 C1475 0.950 . S
H1468 C1473 0.950 . S
H1469 C1474 0.949 . S
H1470 C1476 0.950 . S
H1471 C1477 0.950 . S
H1472 C1478 0.949 . S
C1473 H1468 0.950 . S
C1473 C1475 1.327 . S
C1473 C1479 1.429 . S
C1474 C1466 1.574 1_554 S
C1474 H1469 0.949 . S
C1474 C1480 1.368 1_545 S
C1475 C1459 1.349 . S
C1475 H1467 0.950 . S
C1475 C1473 1.327 . S
C1476 C1464 1.349 . S
C1476 H1470 0.950 . S
C1476 C1477 1.327 . S
C1477 H1471 0.950 . S
C1477 C1476 1.327 . S
C1477 C1481 1.429 . S
C1478 C1461 1.574 1_556 S
C1478 H1472 0.949 . S
C1478 C1482 1.368 1_565 S
C1479 C1460 1.429 . S
C1479 C1473 1.429 . S
C1479 C1480 1.523 . S
C1480 C1461 1.368 . S
C1480 C1474 1.368 1_565 S
C1480 C1479 1.523 . S
C1481 C1465 1.429 . S
C1481 C1477 1.429 . S
C1481 C1482 1.523 . S
C1482 C1466 1.368 . S
C1482 C1478 1.368 1_545 S
C1482 C1481 1.523 . S
H1483 C1458 0.950 . S
H1484 C1460 0.950 . S
H1485 C1461 0.949 . S
H1486 C1463 0.950 . S
H1487 C1465 0.950 . S
C1488 C1489 1.349 . S
C1488 C1490 1.327 . S
C1488 H1513 0.950 . S
C1489 C1488 1.349 . S
C1489 C1505 1.349 . S
C1490 C1488 1.327 . S
C1490 C1509 1.429 . S
C1490 H1514 0.950 . S
C1491 C1508 1.574 . S
C1491 C1510 1.368 . S
C1491 H1515 0.949 . S
H1492 C1496 0.949 . S
C1493 C1494 1.349 . S
C1493 C1495 1.327 . S
C1493 H1516 0.950 . S
C1494 C1493 1.349 . S
C1494 C1506 1.349 . S
C1495 C1493 1.327 . S
C1495 C1511 1.429 . S
C1495 H1517 0.950 . S
C1496 H1492 0.949 . S
C1496 C1504 1.574 . S
C1496 C1512 1.368 . S
H1497 C1505 0.950 . S
H1498 C1503 0.950 . S
H1499 C1504 0.949 . S
H1500 C1506 0.950 . S
H1501 C1507 0.950 . S
H1502 C1508 0.949 . S
C1503 H1498 0.950 . S
C1503 C1505 1.327 . S
C1503 C1509 1.429 . S
C1504 C1496 1.574 . S
C1504 H1499 0.949 . S
C1504 C1510 1.368 . S
C1505 C1489 1.349 . S
C1505 H1497 0.950 . S
C1505 C1503 1.327 . S
C1506 C1494 1.349 . S
C1506 H1500 0.950 . S
C1506 C1507 1.327 . S
C1507 H1501 0.950 . S
C1507 C1506 1.327 . S
C1507 C1511 1.429 . S
C1508 C1491 1.574 . S
C1508 H1502 0.949 . S
C1508 C1512 1.368 . S
C1509 C1490 1.429 . S
C1509 C1503 1.429 . S
C1509 C1510 1.523 . S
C1510 C1491 1.368 . S
C1510 C1504 1.368 . S
C1510 C1509 1.523 . S
C1511 C1495 1.429 . S
C1511 C1507 1.429 . S
C1511 C1512 1.523 . S
C1512 C1496 1.368 . S
C1512 C1508 1.368 . S
C1512 C1511 1.523 . S
H1513 C1488 0.950 . S
H1514 C1490 0.950 . S
H1515 C1491 0.949 . S
H1516 C1493 0.950 . S
H1517 C1495 0.950 . S
C1518 C1519 1.349 . S
C1518 C1520 1.327 . S
C1518 H1543 0.950 . S
C1519 C1518 1.349 . S
C1519 C1535 1.349 . S
C1520 C1518 1.327 . S
C1520 C1539 1.429 . S
C1520 H1544 0.950 . S
C1521 C1538 1.574 1_455 S
C1521 C1540 1.368 . S
C1521 H1545 0.949 . S
H1522 C1526 0.949 . S
C1523 C1524 1.349 . S
C1523 C1525 1.327 . S
C1523 H1546 0.950 . S
C1524 C1523 1.349 . S
C1524 C1536 1.349 . S
C1525 C1523 1.327 . S
C1525 C1541 1.429 . S
C1525 H1547 0.950 . S
C1526 H1522 0.949 . S
C1526 C1534 1.574 1_655 S
C1526 C1542 1.368 . S
H1527 C1535 0.950 . S
H1528 C1533 0.950 . S
H1529 C1534 0.949 . S
H1530 C1536 0.950 . S
H1531 C1537 0.950 . S
H1532 C1538 0.949 . S
C1533 H1528 0.950 . S
C1533 C1535 1.327 . S
C1533 C1539 1.429 . S
C1534 C1526 1.574 1_455 S
C1534 H1529 0.949 . S
C1534 C1540 1.368 . S
C1535 C1519 1.349 . S
C1535 H1527 0.950 . S
C1535 C1533 1.327 . S
C1536 C1524 1.349 . S
C1536 H1530 0.950 . S
C1536 C1537 1.327 . S
C1537 H1531 0.950 . S
C1537 C1536 1.327 . S
C1537 C1541 1.429 . S
C1538 C1521 1.574 1_655 S
C1538 H1532 0.949 . S
C1538 C1542 1.368 . S
C1539 C1520 1.429 . S
C1539 C1533 1.429 . S
C1539 C1540 1.523 . S
C1540 C1521 1.368 . S
C1540 C1534 1.368 . S
C1540 C1539 1.523 . S
C1541 C1525 1.429 . S
C1541 C1537 1.429 . S
C1541 C1542 1.523 . S
C1542 C1526 1.368 . S
C1542 C1538 1.368 . S
C1542 C1541 1.523 . S
H1543 C1518 0.950 . S
H1544 C1520 0.950 . S
H1545 C1521 0.949 . S
H1546 C1523 0.950 . S
H1547 C1525 0.950 . S
C1548 C1549 1.349 . S
C1548 C1550 1.327 . S
C1548 H1573 0.950 . S
C1549 C1548 1.349 . S
C1549 C1565 1.349 . S
C1550 C1548 1.327 . S
C1550 C1569 1.429 . S
C1550 H1574 0.950 . S
C1551 C1568 1.574 1_545 S
C1551 C1570 1.368 . S
C1551 H1575 0.949 . S
H1552 C1556 0.949 . S
C1553 C1554 1.349 . S
C1553 C1555 1.327 . S
C1553 H1576 0.950 . S
C1554 C1553 1.349 . S
C1554 C1566 1.349 . S
C1555 C1553 1.327 . S
C1555 C1571 1.429 . S
C1555 H1577 0.950 . S
C1556 H1552 0.949 . S
C1556 C1564 1.574 1_565 S
C1556 C1572 1.368 . S
H1557 C1565 0.950 . S
H1558 C1563 0.950 . S
H1559 C1564 0.949 . S
H1560 C1566 0.950 . S
H1561 C1567 0.950 . S
H1562 C1568 0.949 . S
C1563 H1558 0.950 . S
C1563 C1565 1.327 . S
C1563 C1569 1.429 . S
C1564 C1556 1.574 1_545 S
C1564 H1559 0.949 . S
C1564 C1570 1.368 . S
C1565 C1549 1.349 . S
C1565 H1557 0.950 . S
C1565 C1563 1.327 . S
C1566 C1554 1.349 . S
C1566 H1560 0.950 . S
C1566 C1567 1.327 . S
C1567 H1561 0.950 . S
C1567 C1566 1.327 . S
C1567 C1571 1.429 . S
C1568 C1551 1.574 1_565 S
C1568 H1562 0.949 . S
C1568 C1572 1.368 . S
C1569 C1550 1.429 . S
C1569 C1563 1.429 . S
C1569 C1570 1.523 . S
C1570 C1551 1.368 . S
C1570 C1564 1.368 . S
C1570 C1569 1.523 . S
C1571 C1555 1.429 . S
C1571 C1567 1.429 . S
C1571 C1572 1.523 . S
C1572 C1556 1.368 . S
C1572 C1568 1.368 . S
C1572 C1571 1.523 . S
H1573 C1548 0.950 . S
H1574 C1550 0.950 . S
H1575 C1551 0.949 . S
H1576 C1553 0.950 . S
H1577 C1555 0.950 . S
C1578 C1579 1.349 . S
C1578 C1580 1.327 . S
C1578 H1603 0.950 . S
C1579 C1578 1.349 . S
C1579 C1595 1.349 . S
C1580 C1578 1.327 . S
C1580 C1599 1.429 . S
C1580 H1604 0.950 . S
C1581 C1598 1.574 . S
C1581 C1600 1.368 . S
C1581 H1605 0.949 . S
H1582 C1586 0.949 . S
C1583 C1584 1.349 . S
C1583 C1585 1.327 . S
C1583 H1606 0.950 . S
C1584 C1583 1.349 . S
C1584 C1596 1.349 . S
C1585 C1583 1.327 . S
C1585 C1601 1.429 . S
C1585 H1607 0.950 . S
C1586 H1582 0.949 . S
C1586 C1594 1.574 . S
C1586 C1602 1.368 . S
H1587 C1595 0.950 . S
H1588 C1593 0.950 . S
H1589 C1594 0.949 . S
H1590 C1596 0.950 . S
H1591 C1597 0.950 . S
H1592 C1598 0.949 . S
C1593 H1588 0.950 . S
C1593 C1595 1.327 . S
C1593 C1599 1.429 . S
C1594 C1586 1.574 . S
C1594 H1589 0.949 . S
C1594 C1600 1.368 . S
C1595 C1579 1.349 . S
C1595 H1587 0.950 . S
C1595 C1593 1.327 . S
C1596 C1584 1.349 . S
C1596 H1590 0.950 . S
C1596 C1597 1.327 . S
C1597 H1591 0.950 . S
C1597 C1596 1.327 . S
C1597 C1601 1.429 . S
C1598 C1581 1.574 . S
C1598 H1592 0.949 . S
C1598 C1602 1.368 . S
C1599 C1580 1.429 . S
C1599 C1593 1.429 . S
C1599 C1600 1.523 . S
C1600 C1581 1.368 . S
C1600 C1594 1.368 . S
C1600 C1599 1.523 . S
C1601 C1585 1.429 . S
C1601 C1597 1.429 . S
C1601 C1602 1.523 . S
C1602 C1586 1.368 . S
C1602 C1598 1.368 . S
C1602 C1601 1.523 . S
H1603 C1578 0.950 . S
H1604 C1580 0.950 . S
H1605 C1581 0.949 . S
H1606 C1583 0.950 . S
H1607 C1585 0.950 . S
C1608 C1609 1.349 . S
C1608 C1610 1.327 . S
C1608 H1633 0.950 . S
C1609 C1608 1.349 . S
C1609 C1625 1.349 . S
C1610 C1608 1.327 . S
C1610 C1629 1.429 . S
C1610 H1634 0.950 . S
C1611 C1628 1.574 1_655 S
C1611 C1630 1.368 . S
C1611 H1635 0.949 . S
H1612 C1616 0.949 . S
C1613 C1614 1.349 . S
C1613 C1615 1.327 . S
C1613 H1636 0.950 . S
C1614 C1613 1.349 . S
C1614 C1626 1.349 . S
C1615 C1613 1.327 . S
C1615 C1631 1.429 . S
C1615 H1637 0.950 . S
C1616 H1612 0.949 . S
C1616 C1624 1.574 1_455 S
C1616 C1632 1.368 . S
H1617 C1625 0.950 . S
H1618 C1623 0.950 . S
H1619 C1624 0.949 . S
H1620 C1626 0.950 . S
H1621 C1627 0.950 . S
H1622 C1628 0.949 . S
C1623 H1618 0.950 . S
C1623 C1625 1.327 . S
C1623 C1629 1.429 . S
C1624 C1616 1.574 1_655 S
C1624 H1619 0.949 . S
C1624 C1630 1.368 . S
C1625 C1609 1.349 . S
C1625 H1617 0.950 . S
C1625 C1623 1.327 . S
C1626 C1614 1.349 . S
C1626 H1620 0.950 . S
C1626 C1627 1.327 . S
C1627 H1621 0.950 . S
C1627 C1626 1.327 . S
C1627 C1631 1.429 . S
C1628 C1611 1.574 1_455 S
C1628 H1622 0.949 . S
C1628 C1632 1.368 . S
C1629 C1610 1.429 . S
C1629 C1623 1.429 . S
C1629 C1630 1.523 . S
C1630 C1611 1.368 . S
C1630 C1624 1.368 . S
C1630 C1629 1.523 . S
C1631 C1615 1.429 . S
C1631 C1627 1.429 . S
C1631 C1632 1.523 . S
C1632 C1616 1.368 . S
C1632 C1628 1.368 . S
C1632 C1631 1.523 . S
H1633 C1608 0.950 . S
H1634 C1610 0.950 . S
H1635 C1611 0.949 . S
H1636 C1613 0.950 . S
H1637 C1615 0.950 . S
C1638 C1639 1.349 . S
C1638 C1640 1.327 . S
C1638 H1663 0.950 . S
C1639 C1638 1.349 . S
C1639 C1655 1.349 . S
C1640 C1638 1.327 . S
C1640 C1659 1.429 . S
C1640 H1664 0.950 . S
C1641 C1658 1.574 1_455 S
C1641 C1660 1.368 . S
C1641 H1665 0.949 . S
H1642 C1646 0.949 . S
C1643 C1644 1.349 . S
C1643 C1645 1.327 . S
C1643 H1666 0.950 . S
C1644 C1643 1.349 . S
C1644 C1656 1.349 . S
C1645 C1643 1.327 . S
C1645 C1661 1.429 . S
C1645 H1667 0.950 . S
C1646 H1642 0.949 . S
C1646 C1654 1.574 1_655 S
C1646 C1662 1.368 . S
H1647 C1655 0.950 . S
H1648 C1653 0.950 . S
H1649 C1654 0.949 . S
H1650 C1656 0.950 . S
H1651 C1657 0.950 . S
H1652 C1658 0.949 . S
C1653 H1648 0.950 . S
C1653 C1655 1.327 . S
C1653 C1659 1.429 . S
C1654 C1646 1.574 1_455 S
C1654 H1649 0.949 . S
C1654 C1660 1.368 . S
C1655 C1639 1.349 . S
C1655 H1647 0.950 . S
C1655 C1653 1.327 . S
C1656 C1644 1.349 . S
C1656 H1650 0.950 . S
C1656 C1657 1.327 . S
C1657 H1651 0.950 . S
C1657 C1656 1.327 . S
C1657 C1661 1.429 . S
C1658 C1641 1.574 1_655 S
C1658 H1652 0.949 . S
C1658 C1662 1.368 . S
C1659 C1640 1.429 . S
C1659 C1653 1.429 . S
C1659 C1660 1.523 . S
C1660 C1641 1.368 . S
C1660 C1654 1.368 . S
C1660 C1659 1.523 . S
C1661 C1645 1.429 . S
C1661 C1657 1.429 . S
C1661 C1662 1.523 . S
C1662 C1646 1.368 . S
C1662 C1658 1.368 . S
C1662 C1661 1.523 . S
H1663 C1638 0.950 . S
H1664 C1640 0.950 . S
H1665 C1641 0.949 . S
H1666 C1643 0.950 . S
H1667 C1645 0.950 . S
C1668 C1669 1.349 . S
C1668 C1670 1.327 . S
C1668 H1693 0.950 . S
C1669 C1668 1.349 . S
C1669 C1685 1.349 . S
C1670 C1668 1.327 . S
C1670 C1689 1.429 . S
C1670 H1694 0.950 . S
C1671 C1688 1.574 1_565 S
C1671 C1690 1.368 . S
C1671 H1695 0.949 . S
H1672 C1676 0.949 . S
C1673 C1674 1.349 . S
C1673 C1675 1.327 . S
C1673 H1696 0.950 . S
C1674 C1673 1.349 . S
C1674 C1686 1.349 . S
C1675 C1673 1.327 . S
C1675 C1691 1.429 . S
C1675 H1697 0.950 . S
C1676 H1672 0.949 . S
C1676 C1684 1.574 1_545 S
C1676 C1692 1.368 . S
H1677 C1685 0.950 . S
H1678 C1683 0.950 . S
H1679 C1684 0.949 . S
H1680 C1686 0.950 . S
H1681 C1687 0.950 . S
H1682 C1688 0.949 . S
C1683 H1678 0.950 . S
C1683 C1685 1.327 . S
C1683 C1689 1.429 . S
C1684 C1676 1.574 1_565 S
C1684 H1679 0.949 . S
C1684 C1690 1.368 . S
C1685 C1669 1.349 . S
C1685 H1677 0.950 . S
C1685 C1683 1.327 . S
C1686 C1674 1.349 . S
C1686 H1680 0.950 . S
C1686 C1687 1.327 . S
C1687 H1681 0.950 . S
C1687 C1686 1.327 . S
C1687 C1691 1.429 . S
C1688 C1671 1.574 1_545 S
C1688 H1682 0.949 . S
C1688 C1692 1.368 . S
C1689 C1670 1.429 . S
C1689 C1683 1.429 . S
C1689 C1690 1.523 . S
C1690 C1671 1.368 . S
C1690 C1684 1.368 . S
C1690 C1689 1.523 . S
C1691 C1675 1.429 . S
C1691 C1687 1.429 . S
C1691 C1692 1.523 . S
C1692 C1676 1.368 . S
C1692 C1688 1.368 . S
C1692 C1691 1.523 . S
H1693 C1668 0.950 . S
H1694 C1670 0.950 . S
H1695 C1671 0.949 . S
H1696 C1673 0.950 . S
H1697 C1675 0.950 . S
C1698 C1699 1.349 . S
C1698 C1700 1.327 . S
C1698 H1723 0.950 . S
C1699 C1698 1.349 . S
C1699 C1715 1.349 . S
C1700 C1698 1.327 . S
C1700 C1719 1.429 . S
C1700 H1724 0.950 . S
C1701 C1718 1.574 . S
C1701 C1720 1.368 . S
C1701 H1725 0.949 . S
H1702 C1706 0.949 . S
C1703 C1704 1.349 . S
C1703 C1705 1.327 . S
C1703 H1726 0.950 . S
C1704 C1703 1.349 . S
C1704 C1716 1.349 . S
C1705 C1703 1.327 . S
C1705 C1721 1.429 . S
C1705 H1727 0.950 . S
C1706 H1702 0.949 . S
C1706 C1714 1.574 . S
C1706 C1722 1.368 . S
H1707 C1715 0.950 . S
H1708 C1713 0.950 . S
H1709 C1714 0.949 . S
H1710 C1716 0.950 . S
H1711 C1717 0.950 . S
H1712 C1718 0.949 . S
C1713 H1708 0.950 . S
C1713 C1715 1.327 . S
C1713 C1719 1.429 . S
C1714 C1706 1.574 . S
C1714 H1709 0.949 . S
C1714 C1720 1.368 . S
C1715 C1699 1.349 . S
C1715 H1707 0.950 . S
C1715 C1713 1.327 . S
C1716 C1704 1.349 . S
C1716 H1710 0.950 . S
C1716 C1717 1.327 . S
C1717 H1711 0.950 . S
C1717 C1716 1.327 . S
C1717 C1721 1.429 . S
C1718 C1701 1.574 . S
C1718 H1712 0.949 . S
C1718 C1722 1.368 . S
C1719 C1700 1.429 . S
C1719 C1713 1.429 . S
C1719 C1720 1.523 . S
C1720 C1701 1.368 . S
C1720 C1714 1.368 . S
C1720 C1719 1.523 . S
C1721 C1705 1.429 . S
C1721 C1717 1.429 . S
C1721 C1722 1.523 . S
C1722 C1706 1.368 . S
C1722 C1718 1.368 . S
C1722 C1721 1.523 . S
H1723 C1698 0.950 . S
H1724 C1700 0.950 . S
H1725 C1701 0.949 . S
H1726 C1703 0.950 . S
H1727 C1705 0.950 . S
C1728 C1729 1.349 . S
C1728 C1730 1.327 . S
C1728 H1753 0.950 . S
C1729 C1728 1.349 . S
C1729 C1745 1.349 . S
C1730 C1728 1.327 . S
C1730 C1749 1.429 . S
C1730 H1754 0.950 . S
C1731 C1748 1.574 . S
C1731 C1750 1.368 . S
C1731 H1755 0.949 . S
H1732 C1736 0.949 . S
C1733 C1734 1.349 . S
C1733 C1735 1.327 . S
C1733 H1756 0.950 . S
C1734 C1733 1.349 . S
C1734 C1746 1.349 . S
C1735 C1733 1.327 . S
C1735 C1751 1.429 . S
C1735 H1757 0.950 . S
C1736 H1732 0.949 . S
C1736 C1744 1.574 . S
C1736 C1752 1.368 . S
H1737 C1745 0.950 . S
H1738 C1743 0.950 . S
H1739 C1744 0.949 . S
H1740 C1746 0.950 . S
H1741 C1747 0.950 . S
H1742 C1748 0.949 . S
C1743 H1738 0.950 . S
C1743 C1745 1.327 . S
C1743 C1749 1.429 . S
C1744 C1736 1.574 . S
C1744 H1739 0.949 . S
C1744 C1750 1.368 1_545 S
C1745 C1729 1.349 . S
C1745 H1737 0.950 . S
C1745 C1743 1.327 . S
C1746 C1734 1.349 . S
C1746 H1740 0.950 . S
C1746 C1747 1.327 . S
C1747 H1741 0.950 . S
C1747 C1746 1.327 . S
C1747 C1751 1.429 . S
C1748 C1731 1.574 . S
C1748 H1742 0.949 . S
C1748 C1752 1.368 1_565 S
C1749 C1730 1.429 . S
C1749 C1743 1.429 . S
C1749 C1750 1.523 . S
C1750 C1731 1.368 . S
C1750 C1744 1.368 1_565 S
C1750 C1749 1.523 . S
C1751 C1735 1.429 . S
C1751 C1747 1.429 . S
C1751 C1752 1.523 . S
C1752 C1736 1.368 . S
C1752 C1748 1.368 1_545 S
C1752 C1751 1.523 . S
H1753 C1728 0.950 . S
H1754 C1730 0.950 . S
H1755 C1731 0.949 . S
H1756 C1733 0.950 . S
H1757 C1735 0.950 . S
C1758 C1759 1.349 . S
C1758 C1760 1.327 . S
C1758 H1783 0.950 . S
C1759 C1758 1.349 . S
C1759 C1775 1.349 . S
C1760 C1758 1.327 . S
C1760 C1779 1.429 . S
C1760 H1784 0.950 . S
C1761 C1778 1.574 . S
C1761 C1780 1.368 . S
C1761 H1785 0.949 . S
H1762 C1766 0.949 . S
C1763 C1764 1.349 . S
C1763 C1765 1.327 . S
C1763 H1786 0.950 . S
C1764 C1763 1.349 . S
C1764 C1776 1.349 . S
C1765 C1763 1.327 . S
C1765 C1781 1.429 . S
C1765 H1787 0.950 . S
C1766 H1762 0.949 . S
C1766 C1774 1.574 . S
C1766 C1782 1.368 . S
H1767 C1775 0.950 . S
H1768 C1773 0.950 . S
H1769 C1774 0.949 . S
H1770 C1776 0.950 . S
H1771 C1777 0.950 . S
H1772 C1778 0.949 . S
C1773 H1768 0.950 . S
C1773 C1775 1.327 . S
C1773 C1779 1.429 . S
C1774 C1766 1.574 . S
C1774 H1769 0.949 . S
C1774 C1780 1.368 . S
C1775 C1759 1.349 . S
C1775 H1767 0.950 . S
C1775 C1773 1.327 . S
C1776 C1764 1.349 . S
C1776 H1770 0.950 . S
C1776 C1777 1.327 . S
C1777 H1771 0.950 . S
C1777 C1776 1.327 . S
C1777 C1781 1.429 . S
C1778 C1761 1.574 . S
C1778 H1772 0.949 . S
C1778 C1782 1.368 . S
C1779 C1760 1.429 . S
C1779 C1773 1.429 . S
C1779 C1780 1.523 . S
C1780 C1761 1.368 . S
C1780 C1774 1.368 . S
C1780 C1779 1.523 . S
C1781 C1765 1.429 . S
C1781 C1777 1.429 . S
C1781 C1782 1.523 . S
C1782 C1766 1.368 . S
C1782 C1778 1.368 . S
C1782 C1781 1.523 . S
H1783 C1758 0.950 . S
H1784 C1760 0.950 . S
H1785 C1761 0.949 . S
H1786 C1763 0.950 . S
H1787 C1765 0.950 . S
C1788 C1789 1.349 . S
C1788 C1790 1.327 . S
C1788 H1813 0.950 . S
C1789 C1788 1.349 . S
C1789 C1805 1.349 . S
C1790 C1788 1.327 . S
C1790 C1809 1.429 . S
C1790 H1814 0.950 . S
C1791 C1808 1.574 1_655 S
C1791 C1810 1.368 . S
C1791 H1815 0.949 . S
H1792 C1796 0.949 . S
C1793 C1794 1.349 . S
C1793 C1795 1.327 . S
C1793 H1816 0.950 . S
C1794 C1793 1.349 . S
C1794 C1806 1.349 . S
C1795 C1793 1.327 . S
C1795 C1811 1.429 . S
C1795 H1817 0.950 . S
C1796 H1792 0.949 . S
C1796 C1804 1.574 1_455 S
C1796 C1812 1.368 . S
H1797 C1805 0.950 . S
H1798 C1803 0.950 . S
H1799 C1804 0.949 . S
H1800 C1806 0.950 . S
H1801 C1807 0.950 . S
H1802 C1808 0.949 . S
C1803 H1798 0.950 . S
C1803 C1805 1.327 . S
C1803 C1809 1.429 . S
C1804 C1796 1.574 1_655 S
C1804 H1799 0.949 . S
C1804 C1810 1.368 . S
C1805 C1789 1.349 . S
C1805 H1797 0.950 . S
C1805 C1803 1.327 . S
C1806 C1794 1.349 . S
C1806 H1800 0.950 . S
C1806 C1807 1.327 . S
C1807 H1801 0.950 . S
C1807 C1806 1.327 . S
C1807 C1811 1.429 . S
C1808 C1791 1.574 1_455 S
C1808 H1802 0.949 . S
C1808 C1812 1.368 . S
C1809 C1790 1.429 . S
C1809 C1803 1.429 . S
C1809 C1810 1.523 . S
C1810 C1791 1.368 . S
C1810 C1804 1.368 . S
C1810 C1809 1.523 . S
C1811 C1795 1.429 . S
C1811 C1807 1.429 . S
C1811 C1812 1.523 . S
C1812 C1796 1.368 . S
C1812 C1808 1.368 . S
C1812 C1811 1.523 . S
H1813 C1788 0.950 . S
H1814 C1790 0.950 . S
H1815 C1791 0.949 . S
H1816 C1793 0.950 . S
H1817 C1795 0.950 . S
C1818 C1819 1.349 . S
C1818 C1820 1.327 . S
C1818 H1843 0.950 . S
C1819 C1818 1.349 . S
C1819 C1835 1.349 . S
C1820 C1818 1.327 . S
C1820 C1839 1.429 . S
C1820 H1844 0.950 . S
C1821 C1838 1.574 1_545 S
C1821 C1840 1.368 . S
C1821 H1845 0.949 . S
H1822 C1826 0.949 . S
C1823 C1824 1.349 . S
C1823 C1825 1.327 . S
C1823 H1846 0.950 . S
C1824 C1823 1.349 . S
C1824 C1836 1.349 . S
C1825 C1823 1.327 . S
C1825 C1841 1.429 . S
C1825 H1847 0.950 . S
C1826 H1822 0.949 . S
C1826 C1834 1.574 1_565 S
C1826 C1842 1.368 . S
H1827 C1835 0.950 . S
H1828 C1833 0.950 . S
H1829 C1834 0.949 . S
H1830 C1836 0.950 . S
H1831 C1837 0.950 . S
H1832 C1838 0.949 . S
C1833 H1828 0.950 . S
C1833 C1835 1.327 . S
C1833 C1839 1.429 . S
C1834 C1826 1.574 1_545 S
C1834 H1829 0.949 . S
C1834 C1840 1.368 . S
C1835 C1819 1.349 . S
C1835 H1827 0.950 . S
C1835 C1833 1.327 . S
C1836 C1824 1.349 . S
C1836 H1830 0.950 . S
C1836 C1837 1.327 . S
C1837 H1831 0.950 . S
C1837 C1836 1.327 . S
C1837 C1841 1.429 . S
C1838 C1821 1.574 1_565 S
C1838 H1832 0.949 . S
C1838 C1842 1.368 . S
C1839 C1820 1.429 . S
C1839 C1833 1.429 . S
C1839 C1840 1.523 . S
C1840 C1821 1.368 . S
C1840 C1834 1.368 . S
C1840 C1839 1.523 . S
C1841 C1825 1.429 . S
C1841 C1837 1.429 . S
C1841 C1842 1.523 . S
C1842 C1826 1.368 . S
C1842 C1838 1.368 . S
C1842 C1841 1.523 . S
H1843 C1818 0.950 . S
H1844 C1820 0.950 . S
H1845 C1821 0.949 . S
H1846 C1823 0.950 . S
H1847 C1825 0.950 . S
C1848 C1849 1.349 . S
C1848 C1850 1.327 . S
C1848 H1873 0.950 . S
C1849 C1848 1.349 . S
C1849 C1865 1.349 . S
C1850 C1848 1.327 . S
C1850 C1869 1.429 . S
C1850 H1874 0.950 . S
C1851 C1868 1.574 . S
C1851 C1870 1.368 . S
C1851 H1875 0.949 . S
H1852 C1856 0.949 . S
C1853 C1854 1.349 . S
C1853 C1855 1.327 . S
C1853 H1876 0.950 . S
C1854 C1853 1.349 . S
C1854 C1866 1.349 . S
C1855 C1853 1.327 . S
C1855 C1871 1.429 . S
C1855 H1877 0.950 . S
C1856 H1852 0.949 . S
C1856 C1864 1.574 . S
C1856 C1872 1.368 . S
H1857 C1865 0.950 . S
H1858 C1863 0.950 . S
H1859 C1864 0.949 . S
H1860 C1866 0.950 . S
H1861 C1867 0.950 . S
H1862 C1868 0.949 . S
C1863 H1858 0.950 . S
C1863 C1865 1.327 . S
C1863 C1869 1.429 . S
C1864 C1856 1.574 . S
C1864 H1859 0.949 . S
C1864 C1870 1.368 . S
C1865 C1849 1.349 . S
C1865 H1857 0.950 . S
C1865 C1863 1.327 . S
C1866 C1854 1.349 . S
C1866 H1860 0.950 . S
C1866 C1867 1.327 . S
C1867 H1861 0.950 . S
C1867 C1866 1.327 . S
C1867 C1871 1.429 . S
C1868 C1851 1.574 . S
C1868 H1862 0.949 . S
C1868 C1872 1.368 . S
C1869 C1850 1.429 . S
C1869 C1863 1.429 . S
C1869 C1870 1.523 . S
C1870 C1851 1.368 . S
C1870 C1864 1.368 . S
C1870 C1869 1.523 . S
C1871 C1855 1.429 . S
C1871 C1867 1.429 . S
C1871 C1872 1.523 . S
C1872 C1856 1.368 . S
C1872 C1868 1.368 . S
C1872 C1871 1.523 . S
H1873 C1848 0.950 . S
H1874 C1850 0.950 . S
H1875 C1851 0.949 . S
H1876 C1853 0.950 . S
H1877 C1855 0.950 . S
C1878 C1879 1.349 . S
C1878 C1880 1.327 . S
C1878 H1903 0.950 . S
C1879 C1878 1.349 . S
C1879 C1895 1.349 . S
C1880 C1878 1.327 . S
C1880 C1899 1.429 . S
C1880 H1904 0.950 . S
C1881 C1898 1.574 1_455 S
C1881 C1900 1.368 . S
C1881 H1905 0.949 . S
H1882 C1886 0.949 . S
C1883 C1884 1.349 . S
C1883 C1885 1.327 . S
C1883 H1906 0.950 . S
C1884 C1883 1.349 . S
C1884 C1896 1.349 . S
C1885 C1883 1.327 . S
C1885 C1901 1.429 . S
C1885 H1907 0.950 . S
C1886 H1882 0.949 . S
C1886 C1894 1.574 1_655 S
C1886 C1902 1.368 . S
H1887 C1895 0.950 . S
H1888 C1893 0.950 . S
H1889 C1894 0.949 . S
H1890 C1896 0.950 . S
H1891 C1897 0.950 . S
H1892 C1898 0.949 . S
C1893 H1888 0.950 . S
C1893 C1895 1.327 . S
C1893 C1899 1.429 . S
C1894 C1886 1.574 1_455 S
C1894 H1889 0.949 . S
C1894 C1900 1.368 . S
C1895 C1879 1.349 . S
C1895 H1887 0.950 . S
C1895 C1893 1.327 . S
C1896 C1884 1.349 . S
C1896 H1890 0.950 . S
C1896 C1897 1.327 . S
C1897 H1891 0.950 . S
C1897 C1896 1.327 . S
C1897 C1901 1.429 . S
C1898 C1881 1.574 1_655 S
C1898 H1892 0.949 . S
C1898 C1902 1.368 . S
C1899 C1880 1.429 . S
C1899 C1893 1.429 . S
C1899 C1900 1.523 . S
C1900 C1881 1.368 . S
C1900 C1894 1.368 . S
C1900 C1899 1.523 . S
C1901 C1885 1.429 . S
C1901 C1897 1.429 . S
C1901 C1902 1.523 . S
C1902 C1886 1.368 . S
C1902 C1898 1.368 . S
C1902 C1901 1.523 . S
H1903 C1878 0.950 . S
H1904 C1880 0.950 . S
H1905 C1881 0.949 . S
H1906 C1883 0.950 . S
H1907 C1885 0.950 . S
C1908 C1909 1.349 . S
C1908 C1910 1.327 . S
C1908 H1933 0.950 . S
C1909 C1908 1.349 . S
C1909 C1925 1.349 . S
C1910 C1908 1.327 . S
C1910 C1929 1.429 . S
C1910 H1934 0.950 . S
C1911 C1928 1.574 . S
C1911 C1930 1.368 . S
C1911 H1935 0.949 . S
H1912 C1916 0.949 . S
C1913 C1914 1.349 . S
C1913 C1915 1.327 . S
C1913 H1936 0.950 . S
C1914 C1913 1.349 . S
C1914 C1926 1.349 . S
C1915 C1913 1.327 . S
C1915 C1931 1.429 . S
C1915 H1937 0.950 . S
C1916 H1912 0.949 . S
C1916 C1924 1.574 . S
C1916 C1932 1.368 . S
H1917 C1925 0.950 . S
H1918 C1923 0.950 . S
H1919 C1924 0.949 . S
H1920 C1926 0.950 . S
H1921 C1927 0.950 . S
H1922 C1928 0.949 . S
C1923 H1918 0.950 . S
C1923 C1925 1.327 . S
C1923 C1929 1.429 . S
C1924 C1916 1.574 . S
C1924 H1919 0.949 . S
C1924 C1930 1.368 . S
C1925 C1909 1.349 . S
C1925 H1917 0.950 . S
C1925 C1923 1.327 . S
C1926 C1914 1.349 . S
C1926 H1920 0.950 . S
C1926 C1927 1.327 . S
C1927 H1921 0.950 . S
C1927 C1926 1.327 . S
C1927 C1931 1.429 . S
C1928 C1911 1.574 . S
C1928 H1922 0.949 . S
C1928 C1932 1.368 . S
C1929 C1910 1.429 . S
C1929 C1923 1.429 . S
C1929 C1930 1.523 . S
C1930 C1911 1.368 . S
C1930 C1924 1.368 . S
C1930 C1929 1.523 . S
C1931 C1915 1.429 . S
C1931 C1927 1.429 . S
C1931 C1932 1.523 . S
C1932 C1916 1.368 . S
C1932 C1928 1.368 . S
C1932 C1931 1.523 . S
H1933 C1908 0.950 . S
H1934 C1910 0.950 . S
H1935 C1911 0.949 . S
H1936 C1913 0.950 . S
H1937 C1915 0.950 . S
C1938 C1939 1.349 . S
C1938 C1940 1.327 . S
C1938 H1963 0.950 . S
C1939 C1938 1.349 . S
C1939 C1955 1.349 . S
C1940 C1938 1.327 . S
C1940 C1959 1.429 . S
C1940 H1964 0.950 . S
C1941 C1958 1.574 . S
C1941 C1960 1.368 . S
C1941 H1965 0.949 . S
H1942 C1946 0.949 . S
C1943 C1944 1.349 . S
C1943 C1945 1.327 . S
C1943 H1966 0.950 . S
C1944 C1943 1.349 . S
C1944 C1956 1.349 . S
C1945 C1943 1.327 . S
C1945 C1961 1.429 . S
C1945 H1967 0.950 . S
C1946 H1942 0.949 . S
C1946 C1954 1.574 . S
C1946 C1962 1.368 . S
H1947 C1955 0.950 . S
H1948 C1953 0.950 . S
H1949 C1954 0.949 . S
H1950 C1956 0.950 . S
H1951 C1957 0.950 . S
H1952 C1958 0.949 . S
C1953 H1948 0.950 . S
C1953 C1955 1.327 . S
C1953 C1959 1.429 . S
C1954 C1946 1.574 . S
C1954 H1949 0.949 . S
C1954 C1960 1.368 . S
C1955 C1939 1.349 . S
C1955 H1947 0.950 . S
C1955 C1953 1.327 . S
C1956 C1944 1.349 . S
C1956 H1950 0.950 . S
C1956 C1957 1.327 . S
C1957 H1951 0.950 . S
C1957 C1956 1.327 . S
C1957 C1961 1.429 . S
C1958 C1941 1.574 . S
C1958 H1952 0.949 . S
C1958 C1962 1.368 . S
C1959 C1940 1.429 . S
C1959 C1953 1.429 . S
C1959 C1960 1.523 . S
C1960 C1941 1.368 . S
C1960 C1954 1.368 . S
C1960 C1959 1.523 . S
C1961 C1945 1.429 . S
C1961 C1957 1.429 . S
C1961 C1962 1.523 . S
C1962 C1946 1.368 . S
C1962 C1958 1.368 . S
C1962 C1961 1.523 . S
H1963 C1938 0.950 . S
H1964 C1940 0.950 . S
H1965 C1941 0.949 . S
H1966 C1943 0.950 . S
H1967 C1945 0.950 . S
C1968 C1969 1.349 . S
C1968 C1970 1.327 . S
C1968 H1993 0.950 . S
C1969 C1968 1.349 . S
C1969 C1985 1.349 . S
C1970 C1968 1.327 . S
C1970 C1989 1.429 . S
C1970 H1994 0.950 . S
C1971 C1988 1.574 . S
C1971 C1990 1.368 . S
C1971 H1995 0.949 . S
H1972 C1976 0.949 . S
C1973 C1974 1.349 . S
C1973 C1975 1.327 . S
C1973 H1996 0.950 . S
C1974 C1973 1.349 . S
C1974 C1986 1.349 . S
C1975 C1973 1.327 . S
C1975 C1991 1.429 . S
C1975 H1997 0.950 . S
C1976 H1972 0.949 . S
C1976 C1984 1.574 . S
C1976 C1992 1.368 . S
H1977 C1985 0.950 . S
H1978 C1983 0.950 . S
H1979 C1984 0.949 . S
H1980 C1986 0.950 . S
H1981 C1987 0.950 . S
H1982 C1988 0.949 . S
C1983 H1978 0.950 . S
C1983 C1985 1.327 . S
C1983 C1989 1.429 . S
C1984 C1976 1.574 . S
C1984 H1979 0.949 . S
C1984 C1990 1.368 . S
C1985 C1969 1.349 . S
C1985 H1977 0.950 . S
C1985 C1983 1.327 . S
C1986 C1974 1.349 . S
C1986 H1980 0.950 . S
C1986 C1987 1.327 . S
C1987 H1981 0.950 . S
C1987 C1986 1.327 . S
C1987 C1991 1.429 . S
C1988 C1971 1.574 . S
C1988 H1982 0.949 . S
C1988 C1992 1.368 . S
C1989 C1970 1.429 . S
C1989 C1983 1.429 . S
C1989 C1990 1.523 . S
C1990 C1971 1.368 . S
C1990 C1984 1.368 . S
C1990 C1989 1.523 . S
C1991 C1975 1.429 . S
C1991 C1987 1.429 . S
C1991 C1992 1.523 . S
C1992 C1976 1.368 . S
C1992 C1988 1.368 . S
C1992 C1991 1.523 . S
H1993 C1968 0.950 . S
H1994 C1970 0.950 . S
H1995 C1971 0.949 . S
H1996 C1973 0.950 . S
H1997 C1975 0.950 . S
C1998 C1999 1.349 . S
C1998 C2000 1.327 . S
C1998 H2023 0.950 . S
C1999 C1998 1.349 . S
C1999 C2015 1.349 . S
C2000 C1998 1.327 . S
C2000 C2019 1.429 . S
C2000 H2024 0.950 . S
C2001 C2018 1.574 . S
C2001 C2020 1.368 . S
C2001 H2025 0.949 . S
H2002 C2006 0.949 . S
C2003 C2004 1.349 . S
C2003 C2005 1.327 . S
C2003 H2026 0.950 . S
C2004 C2003 1.349 . S
C2004 C2016 1.349 . S
C2005 C2003 1.327 . S
C2005 C2021 1.429 . S
C2005 H2027 0.950 . S
C2006 H2002 0.949 . S
C2006 C2014 1.574 . S
C2006 C2022 1.368 . S
H2007 C2015 0.950 . S
H2008 C2013 0.950 . S
H2009 C2014 0.949 . S
H2010 C2016 0.950 . S
H2011 C2017 0.950 . S
H2012 C2018 0.949 . S
C2013 H2008 0.950 . S
C2013 C2015 1.327 . S
C2013 C2019 1.429 . S
C2014 C2006 1.574 . S
C2014 H2009 0.949 . S
C2014 C2020 1.368 . S
C2015 C1999 1.349 . S
C2015 H2007 0.950 . S
C2015 C2013 1.327 . S
C2016 C2004 1.349 . S
C2016 H2010 0.950 . S
C2016 C2017 1.327 . S
C2017 H2011 0.950 . S
C2017 C2016 1.327 . S
C2017 C2021 1.429 . S
C2018 C2001 1.574 . S
C2018 H2012 0.949 . S
C2018 C2022 1.368 . S
C2019 C2000 1.429 . S
C2019 C2013 1.429 . S
C2019 C2020 1.523 . S
C2020 C2001 1.368 . S
C2020 C2014 1.368 . S
C2020 C2019 1.523 . S
C2021 C2005 1.429 . S
C2021 C2017 1.429 . S
C2021 C2022 1.523 . S
C2022 C2006 1.368 . S
C2022 C2018 1.368 . S
C2022 C2021 1.523 . S
H2023 C1998 0.950 . S
H2024 C2000 0.950 . S
H2025 C2001 0.949 . S
H2026 C2003 0.950 . S
H2027 C2005 0.950 . S
C2028 C2029 1.349 . S
C2028 C2030 1.327 . S
C2028 H2053 0.950 . S
C2029 C2028 1.349 . S
C2029 C2045 1.349 . S
C2030 C2028 1.327 . S
C2030 C2049 1.429 . S
C2030 H2054 0.950 . S
C2031 C2048 1.574 . S
C2031 C2050 1.368 . S
C2031 H2055 0.949 . S
H2032 C2036 0.949 . S
C2033 C2034 1.349 . S
C2033 C2035 1.327 . S
C2033 H2056 0.950 . S
C2034 C2033 1.349 . S
C2034 C2046 1.349 . S
C2035 C2033 1.327 . S
C2035 C2051 1.429 . S
C2035 H2057 0.950 . S
C2036 H2032 0.949 . S
C2036 C2044 1.574 . S
C2036 C2052 1.368 . S
H2037 C2045 0.950 . S
H2038 C2043 0.950 . S
H2039 C2044 0.949 . S
H2040 C2046 0.950 . S
H2041 C2047 0.950 . S
H2042 C2048 0.949 . S
C2043 H2038 0.950 . S
C2043 C2045 1.327 . S
C2043 C2049 1.429 . S
C2044 C2036 1.574 . S
C2044 H2039 0.949 . S
C2044 C2050 1.368 . S
C2045 C2029 1.349 . S
C2045 H2037 0.950 . S
C2045 C2043 1.327 . S
C2046 C2034 1.349 . S
C2046 H2040 0.950 . S
C2046 C2047 1.327 . S
C2047 H2041 0.950 . S
C2047 C2046 1.327 . S
C2047 C2051 1.429 . S
C2048 C2031 1.574 . S
C2048 H2042 0.949 . S
C2048 C2052 1.368 . S
C2049 C2030 1.429 . S
C2049 C2043 1.429 . S
C2049 C2050 1.523 . S
C2050 C2031 1.368 . S
C2050 C2044 1.368 . S
C2050 C2049 1.523 . S
C2051 C2035 1.429 . S
C2051 C2047 1.429 . S
C2051 C2052 1.523 . S
C2052 C2036 1.368 . S
C2052 C2048 1.368 . S
C2052 C2051 1.523 . S
H2053 C2028 0.950 . S
H2054 C2030 0.950 . S
H2055 C2031 0.949 . S
H2056 C2033 0.950 . S
H2057 C2035 0.950 . S
C2058 C2059 1.349 . S
C2058 C2060 1.327 . S
C2058 H2083 0.950 . S
C2059 C2058 1.349 . S
C2059 C2075 1.349 . S
C2060 C2058 1.327 . S
C2060 C2079 1.429 . S
C2060 H2084 0.950 . S
C2061 C2078 1.574 . S
C2061 C2080 1.368 . S
C2061 H2085 0.949 . S
H2062 C2066 0.949 . S
C2063 C2064 1.349 . S
C2063 C2065 1.327 . S
C2063 H2086 0.950 . S
C2064 C2063 1.349 . S
C2064 C2076 1.349 . S
C2065 C2063 1.327 . S
C2065 C2081 1.429 . S
C2065 H2087 0.950 . S
C2066 H2062 0.949 . S
C2066 C2074 1.574 . S
C2066 C2082 1.368 . S
H2067 C2075 0.950 . S
H2068 C2073 0.950 . S
H2069 C2074 0.949 . S
H2070 C2076 0.950 . S
H2071 C2077 0.950 . S
H2072 C2078 0.949 . S
C2073 H2068 0.950 . S
C2073 C2075 1.327 . S
C2073 C2079 1.429 . S
C2074 C2066 1.574 . S
C2074 H2069 0.949 . S
C2074 C2080 1.368 . S
C2075 C2059 1.349 . S
C2075 H2067 0.950 . S
C2075 C2073 1.327 . S
C2076 C2064 1.349 . S
C2076 H2070 0.950 . S
C2076 C2077 1.327 . S
C2077 H2071 0.950 . S
C2077 C2076 1.327 . S
C2077 C2081 1.429 . S
C2078 C2061 1.574 . S
C2078 H2072 0.949 . S
C2078 C2082 1.368 . S
C2079 C2060 1.429 . S
C2079 C2073 1.429 . S
C2079 C2080 1.523 . S
C2080 C2061 1.368 . S
C2080 C2074 1.368 . S
C2080 C2079 1.523 . S
C2081 C2065 1.429 . S
C2081 C2077 1.429 . S
C2081 C2082 1.523 . S
C2082 C2066 1.368 . S
C2082 C2078 1.368 . S
C2082 C2081 1.523 . S
H2083 C2058 0.950 . S
H2084 C2060 0.950 . S
H2085 C2061 0.949 . S
H2086 C2063 0.950 . S
H2087 C2065 0.950 . S
C1009 C74 0.924 . S
C1014 C746 0.924 . S
C1039 C158 0.924 . S
C1044 C830 0.924 . S
C1069 C242 0.923 . S
C1074 C914 0.923 . S
C1099 C998 0.924 . S
C1104 C326 0.924 . S
C1129 C410 0.924 . S
C1134 C578 0.924 . S
C1159 C662 0.923 . S
C1164 C494 0.923 . S
C1189 C910 1.359 . S
C1194 C70 1.359 . S
C1219 C994 1.359 . S
C1224 C154 1.359 . S
C1249 C238 1.359 . S
C1254 C574 1.359 . S
C1279 C658 1.359 . S
C1284 C322 1.359 . S
C1309 C742 1.359 . S
C1314 C406 1.359 . S
C1339 C490 1.359 . S
C1344 C826 1.359 . S
C1369 C655 4.613 . S
C1374 C67 4.613 . S
C1399 C739 4.613 . S
C1404 C151 4.613 . S
C1429 C823 4.613 . S
C1434 C235 4.613 . S
C1459 C319 4.613 . S
C1464 C907 4.613 . S
C1489 C403 4.613 . S
C1494 C991 4.613 . S
C1519 C487 4.613 . S
C1524 C571 4.613 . S
C1549 C63 0.750 . S
C1554 C315 0.750 . S
C1579 C147 0.750 . S
C1584 C399 0.750 . S
C1609 C231 0.750 . S
C1614 C483 0.750 . S
C1639 C819 0.750 . S
C1644 C567 0.750 . S
C1669 C651 0.750 . S
C1674 C903 0.750 . S
C1699 C987 0.750 . S
C1704 C735 0.750 . S
C1729 C646 0.953 . S
C1734 C58 0.952 . S
C1759 C730 0.953 . S
C1764 C142 0.953 . S
C1789 C226 0.953 . S
C1794 C814 0.952 . S
C1819 C898 0.953 . S
C1824 C310 0.952 . S
C1849 C982 0.953 . S
C1854 C394 0.953 . S
C1879 C478 0.953 . S
C1884 C562 0.952 . S
C1909 C56 3.484 . S
C1914 C896 3.483 . S
C1939 C140 3.484 . S
C1944 C980 3.484 1_556 S
C1969 C224 3.483 1_554 S
C1974 C560 3.484 . S
C1999 C308 3.484 . S
C2004 C644 3.483 . S
C2029 C392 3.484 . S
C2034 C728 3.484 1_556 S
C2059 C812 3.484 . S
C2064 C476 3.483 1_554 S
