# Generated by pormake.
# Topology umm, (4)-cn, num edge types: 1
# Building blocks:
#     Node 0, Type 0, BuildingBlock: MUDLON_clean_sbu_0, # of connection points: 4
#     Node 1, Type 0, BuildingBlock: MUDLON_clean_sbu_0, # of connection points: 4
#     Node 2, Type 0, BuildingBlock: MUDLON_clean_sbu_0, # of connection points: 4
#     Node 3, Type 0, BuildingBlock: MUDLON_clean_sbu_0, # of connection points: 4
#     Node 4, Type 0, BuildingBlock: MUDLON_clean_sbu_0, # of connection points: 4
#     Node 5, Type 0, BuildingBlock: MUDLON_clean_sbu_0, # of connection points: 4
#     Node 6, Type 0, BuildingBlock: MUDLON_clean_sbu_0, # of connection points: 4
#     Node 7, Type 0, BuildingBlock: MUDLON_clean_sbu_0, # of connection points: 4
#     Node 8, Type 0, BuildingBlock: MUDLON_clean_sbu_0, # of connection points: 4
#     Node 9, Type 0, BuildingBlock: MUDLON_clean_sbu_0, # of connection points: 4
#     Node 10, Type 0, BuildingBlock: MUDLON_clean_sbu_0, # of connection points: 4
#     Node 11, Type 0, BuildingBlock: MUDLON_clean_sbu_0, # of connection points: 4
#     Edge 12, Type (0, 0), BuildingBlock: EZIPEK_clean_linker_0, # of connection points: 2
#     Edge 13, Type (0, 0), BuildingBlock: EZIPEK_clean_linker_0, # of connection points: 2
#     Edge 14, Type (0, 0), BuildingBlock: EZIPEK_clean_linker_0, # of connection points: 2
#     Edge 15, Type (0, 0), BuildingBlock: EZIPEK_clean_linker_0, # of connection points: 2
#     Edge 16, Type (0, 0), BuildingBlock: EZIPEK_clean_linker_0, # of connection points: 2
#     Edge 17, Type (0, 0), BuildingBlock: EZIPEK_clean_linker_0, # of connection points: 2
#     Edge 18, Type (0, 0), BuildingBlock: EZIPEK_clean_linker_0, # of connection points: 2
#     Edge 19, Type (0, 0), BuildingBlock: EZIPEK_clean_linker_0, # of connection points: 2
#     Edge 20, Type (0, 0), BuildingBlock: EZIPEK_clean_linker_0, # of connection points: 2
#     Edge 21, Type (0, 0), BuildingBlock: EZIPEK_clean_linker_0, # of connection points: 2
#     Edge 22, Type (0, 0), BuildingBlock: EZIPEK_clean_linker_0, # of connection points: 2
#     Edge 23, Type (0, 0), BuildingBlock: EZIPEK_clean_linker_0, # of connection points: 2
#     Edge 24, Type (0, 0), BuildingBlock: EZIPEK_clean_linker_0, # of connection points: 2
#     Edge 25, Type (0, 0), BuildingBlock: EZIPEK_clean_linker_0, # of connection points: 2
#     Edge 26, Type (0, 0), BuildingBlock: EZIPEK_clean_linker_0, # of connection points: 2
#     Edge 27, Type (0, 0), BuildingBlock: EZIPEK_clean_linker_0, # of connection points: 2
#     Edge 28, Type (0, 0), BuildingBlock: EZIPEK_clean_linker_0, # of connection points: 2
#     Edge 29, Type (0, 0), BuildingBlock: EZIPEK_clean_linker_0, # of connection points: 2
#     Edge 30, Type (0, 0), BuildingBlock: EZIPEK_clean_linker_0, # of connection points: 2
#     Edge 31, Type (0, 0), BuildingBlock: EZIPEK_clean_linker_0, # of connection points: 2
#     Edge 32, Type (0, 0), BuildingBlock: EZIPEK_clean_linker_0, # of connection points: 2
#     Edge 33, Type (0, 0), BuildingBlock: EZIPEK_clean_linker_0, # of connection points: 2
#     Edge 34, Type (0, 0), BuildingBlock: EZIPEK_clean_linker_0, # of connection points: 2
#     Edge 35, Type (0, 0), BuildingBlock: EZIPEK_clean_linker_0, # of connection points: 2
# Relax obj value: 0.064
# Max RMSD: 0.171
# Mean RMSD: 0.171
data_MOF--net-umm--node1-MUDLON_clean_sbu_0--edge1-EZIPEK_clean_linker_0
_symmetry_space_group_name_H-M    P1
_symmetry_Int_Tables_number       1
_symmetry_cell_setting            triclinic
loop_
_symmetry_equiv_pos_as_xyz
'x, y, z'
_cell_length_a     43.863577
_cell_length_b     43.779736
_cell_length_c     21.713911
_cell_angle_alpha  89.987428
_cell_angle_beta   89.808568
_cell_angle_gamma 120.15324
loop_
_atom_site_label
_atom_site_type_symbol
_atom_site_fract_x
_atom_site_fract_y
_atom_site_fract_z
_atom_type_partial_charge
Mg0 Mg 0.40177 0.54439 0.10238 0.0
C1 C 0.46013 0.53161 0.11559 0.0
O2 O 0.47403 0.56577 0.12394 0.0
C3 C 0.33627 0.53905 0.06576 0.0
O4 O 0.36061 0.57257 0.06177 0.0
C5 C 0.39306 0.56911 0.22833 0.0
O6 O 0.35968 0.54723 0.21612 0.0
O7 O 0.41626 0.57503 0.18745 0.0
O8 O 0.42707 0.51273 0.1066 0.0
O9 O 0.4235 0.57356 1.01722 0.0
C10 C 0.41183 0.55342 0.97042 0.0
O11 O 0.38899 0.51974 0.97866 0.0
O12 O 0.34493 0.51749 0.08744 0.0
Mg13 Mg 0.87027 0.39065 0.45218 0.0
C14 C 0.93856 0.45588 0.45521 0.0
O15 O 0.91561 0.46637 0.46414 0.0
C16 C 0.81434 0.32292 0.41019 0.0
O17 O 0.7993 0.34164 0.42278 0.0
C18 C 0.84353 0.41371 0.56534 0.0
O19 O 0.83687 0.43211 0.52535 0.0
O20 O 0.85511 0.39391 0.5467 0.0
O21 O 0.92748 0.423 0.44906 0.0
O22 O 0.85425 0.41355 0.37939 0.0
C23 C 0.86622 0.40961 0.32837 0.0
O24 O 0.88546 0.39437 0.32802 0.0
O25 O 0.84693 0.33591 0.42207 0.0
Mg26 Mg 0.47485 0.86293 0.76151 0.0
C27 C 0.48537 0.93342 0.7779 0.0
O28 O 0.45098 0.9126 0.7776 0.0
C29 C 0.48284 0.80371 0.72156 0.0
O30 O 0.44886 0.79206 0.71848 0.0
C31 C 0.45874 0.84682 0.89447 0.0
O32 O 0.49322 0.86144 0.8935 0.0
O33 O 0.44233 0.8421 0.84394 0.0
O34 O 0.50507 0.91988 0.77299 0.0
O35 O 0.44664 0.85793 0.67697 0.0
C36 C 0.46735 0.86884 0.63072 0.0
O37 O 0.50108 0.88055 0.63941 0.0
O38 O 0.5032 0.83485 0.74141 0.0
Mg39 Mg 0.62017 0.47181 0.11675 0.0
C40 C 0.55762 0.47899 0.11273 0.0
O41 O 0.54487 0.44476 0.11729 0.0
C42 C 0.68987 0.48327 0.09194 0.0
O43 O 0.6697 0.44907 0.09996 0.0
C44 C 0.60846 0.42254 0.2315 0.0
O45 O 0.61803 0.40423 0.19677 0.0
O46 O 0.60766 0.449 0.20924 0.0
O47 O 0.59088 0.4995 0.1102 0.0
O48 O 0.60208 0.43572 0.03911 0.0
C49 C 0.60955 0.45255 0.98834 0.0
O50 O 0.62457 0.48711 0.98914 0.0
O51 O 0.67679 0.50311 0.10029 0.0
Mg52 Mg 0.15494 0.6271 0.4336 0.0
C53 C 0.08577 0.56442 0.44065 0.0
O54 O 0.10826 0.55296 0.44171 0.0
C55 C 0.21445 0.69295 0.38849 0.0
O56 O 0.22637 0.67089 0.39346 0.0
C57 C 0.17317 0.59745 0.54954 0.0
O58 O 0.16833 0.57121 0.51377 0.0
O59 O 0.17149 0.62337 0.52704 0.0
O60 O 0.09751 0.59758 0.43725 0.0
O61 O 0.16343 0.6009 0.35598 0.0
C62 C 0.15392 0.60959 0.30671 0.0
O63 O 0.14295 0.63249 0.31042 0.0
O64 O 0.18272 0.68256 0.4044 0.0
Mg65 Mg 0.54821 0.15473 0.76438 0.0
C66 C 0.53936 0.08424 0.78559 0.0
O67 O 0.5734 0.10518 0.79336 0.0
C68 C 0.53161 0.21127 0.74763 0.0
O69 O 0.56552 0.22861 0.75939 0.0
C70 C 0.57091 0.18266 0.89273 0.0
O71 O 0.54078 0.1822 0.88985 0.0
O72 O 0.58248 0.17488 0.84493 0.0
O73 O 0.52007 0.09766 0.77433 0.0
O74 O 0.5718 0.16245 0.67327 0.0
C75 C 0.59445 0.19103 0.6474 0.0
O76 O 0.61124 0.22025 0.67956 0.0
O77 O 0.51468 0.17785 0.75323 0.0
Mg78 Mg 0.47919 0.61842 0.5948 0.0
C79 C 0.49224 0.55955 0.59619 0.0
O80 O 0.45773 0.54469 0.59561 0.0
C81 C 0.48613 0.68557 0.6315 0.0
O82 O 0.4522 0.66286 0.63505 0.0
C83 C 0.44129 0.62142 0.47539 0.0
O84 O 0.44355 0.65016 0.4987 0.0
O85 O 0.45224 0.60411 0.50618 0.0
O86 O 0.51098 0.59311 0.59515 0.0
O87 O 0.44566 0.5959 0.67538 0.0
C88 C 0.46362 0.60225 0.72445 0.0
O89 O 0.49817 0.62008 0.72102 0.0
O90 O 0.50678 0.67516 0.61208 0.0
Mg91 Mg 0.8627 0.46829 0.95304 0.0
C92 C 0.93341 0.47571 0.95201 0.0
O93 O 0.91234 0.44208 0.96447 0.0
C94 C 0.80652 0.47995 0.99773 0.0
O95 O 0.79285 0.44552 0.99691 0.0
C96 C 0.85541 0.43216 0.8287 0.0
O97 O 0.88453 0.43352 0.84678 0.0
O98 O 0.83946 0.44238 0.86499 0.0
O99 O 0.9201 0.49548 0.9438 0.0
O100 O 0.85456 0.43752 0.03644 0.0
C101 C 0.86572 0.45845 0.08234 0.0
O102 O 0.87846 0.49234 0.0723 0.0
O103 O 0.83809 0.4995 0.97877 0.0
Mg104 Mg 0.4018 0.87305 0.25793 0.0
C105 C 0.46155 0.94423 0.25588 0.0
O106 O 0.47503 0.92349 0.25062 0.0
C107 C 0.33441 0.81275 0.29433 0.0
O108 O 0.35682 0.80123 0.29705 0.0
C109 C 0.40278 0.83155 0.14069 0.0
O110 O 0.37875 0.80256 0.16793 0.0
O111 O 0.41542 0.86116 0.16789 0.0
O112 O 0.4282 0.93039 0.25968 0.0
O113 O 0.42417 0.86104 0.33671 0.0
C114 C 0.41779 0.87222 0.38639 0.0
O115 O 0.39995 0.88891 0.38422 0.0
O116 O 0.34515 0.84412 0.27576 0.0
Mg117 Mg 0.54873 0.39713 0.61589 0.0
C118 C 0.54285 0.46068 0.61004 0.0
O119 O 0.57662 0.47303 0.61939 0.0
C120 C 0.52743 0.32166 0.63156 0.0
O121 O 0.55841 0.33467 0.60479 0.0
C122 C 0.55943 0.38544 0.48411 0.0
O123 O 0.52717 0.35941 0.49421 0.0
O124 O 0.57702 0.40514 0.52889 0.0
O125 O 0.52221 0.42745 0.60585 0.0
O126 O 0.57937 0.41962 0.69953 0.0
C127 C 0.5853 0.40157 0.73859 0.0
O128 O 0.57884 0.36979 0.72428 0.0
O129 O 0.51398 0.34133 0.63732 0.0
Mg130 Mg 0.1555 0.53999 0.93476 0.0
C131 C 0.08361 0.52823 0.93364 0.0
O132 O 0.10354 0.56268 0.93757 0.0
C133 C 0.21513 0.52632 0.94347 0.0
O134 O 0.22637 0.55067 0.90038 0.0
C135 C 0.16856 0.58483 0.81571 0.0
O136 O 0.15359 0.59976 0.84604 0.0
O137 O 0.17386 0.56206 0.84238 0.0
O138 O 0.09816 0.50935 0.93047 0.0
O139 O 0.16436 0.57313 1.0153 0.0
C140 C 0.15453 0.55447 0.06434 0.0
O141 O 0.14119 0.52016 0.06027 0.0
O142 O 0.18363 0.51313 0.96304 0.0
Mg143 Mg 0.62822 0.16385 0.26567 0.0
C144 C 0.56325 0.09387 0.25758 0.0
O145 O 0.55135 0.11549 0.24646 0.0
C146 C 0.70046 0.2176 0.28343 0.0
O147 O 0.68252 0.2342 0.28121 0.0
C148 C 0.63007 0.18535 0.13279 0.0
O149 O 0.65841 0.1824 0.13371 0.0
O150 O 0.6131 0.18141 0.1827 0.0
O151 O 0.59599 0.10647 0.26764 0.0
O152 O 0.62132 0.18201 0.35502 0.0
C153 C 0.59359 0.17686 0.38259 0.0
O154 O 0.5631 0.16096 0.35428 0.0
O155 O 0.68471 0.18476 0.27123 0.0
C156 C 0.42648 0.61995 0.30144 0.0
C157 C 0.40396 0.58319 0.29178 0.0
C158 C 0.40055 0.57342 0.40348 0.0
C159 C 0.42689 0.60922 0.41249 0.0
N160 N 0.4697 0.66533 0.36785 0.0
N161 N 0.37588 0.5239 0.33357 0.0
C162 C 0.44106 0.6323 0.36094 0.0
C163 C 0.39255 0.55959 0.34279 0.0
N164 N 0.43327 0.6432 0.25426 0.0
N165 N 0.38243 0.55275 0.45278 0.0
H166 H 0.37106 0.51242 0.29003 0.0
H167 H 0.37035 0.50586 0.36915 0.0
H168 H 0.3867 0.5622 0.49787 0.0
H169 H 0.36063 0.52748 0.4482 0.0
H170 H 0.44656 0.67049 0.26031 0.0
H171 H 0.42262 0.6352 0.21036 0.0
H172 H 0.48331 0.68171 0.33075 0.0
H173 H 0.48212 0.67518 0.40994 0.0
C174 C 0.86555 0.45314 0.65837 0.0
C175 C 0.8424 0.41941 0.63262 0.0
C176 C 0.82475 0.39416 0.73667 0.0
C177 C 0.8472 0.42804 0.762 0.0
N178 N 0.88291 0.49105 0.74816 0.0
N179 N 0.79498 0.35952 0.64601 0.0
C180 C 0.86549 0.45794 0.7231 0.0
C181 C 0.82044 0.39039 0.67151 0.0
N182 N 0.88937 0.48002 0.62164 0.0
N183 N 0.80843 0.36551 0.77487 0.0
H184 H 0.79101 0.35611 0.59856 0.0
H185 H 0.77591 0.33841 0.67162 0.0
H186 H 0.80998 0.36771 0.82276 0.0
H187 H 0.79498 0.33952 0.75934 0.0
H188 H 0.90985 0.50365 0.63875 0.0
H189 H 0.89079 0.47783 0.57411 0.0
H190 H 0.89349 0.51412 0.72203 0.0
H191 H 0.88409 0.49561 0.79548 0.0
C192 C 0.44299 0.81559 0.99658 0.0
C193 C 0.44006 0.83889 0.95467 0.0
C194 C 0.4053 0.84985 0.03092 0.0
C195 C 0.41279 0.83091 0.07556 0.0
N196 N 0.44112 0.79783 0.10307 0.0
N197 N 0.42279 0.88245 0.93513 0.0
C198 C 0.43198 0.81399 0.0589 0.0
C199 C 0.42206 0.85691 0.97238 0.0
N200 N 0.45564 0.79447 0.97639 0.0
N201 N 0.3816 0.86054 0.04412 0.0
H202 H 0.43545 0.88921 0.89252 0.0
H203 H 0.41366 0.89923 0.94891 0.0
H204 H 0.36841 0.85537 0.08629 0.0
H205 H 0.37234 0.87125 1.01131 0.0
H206 H 0.45528 0.77449 1.00297 0.0
H207 H 0.46352 0.79472 0.9309 0.0
H208 H 0.45857 0.78865 0.09526 0.0
H209 H 0.43324 0.79583 0.14897 0.0
C210 C 0.56183 0.40482 0.31274 0.0
C211 C 0.59577 0.41114 0.29567 0.0
C212 C 0.60481 0.39715 0.40141 0.0
C213 C 0.5726 0.39485 0.41968 0.0
N214 N 0.52443 0.40457 0.39483 0.0
N215 N 0.6521 0.41879 0.3259 0.0
C216 C 0.55218 0.40089 0.37591 0.0
C217 C 0.61798 0.40868 0.34054 0.0
N218 N 0.53819 0.40123 0.26841 0.0
N219 N 0.62226 0.38724 0.44144 0.0
H220 H 0.66283 0.4277 0.28219 0.0
H221 H 0.67061 0.42123 0.35838 0.0
H222 H 0.61334 0.37852 0.48614 0.0
H223 H 0.64381 0.38473 0.42868 0.0
H224 H 0.51191 0.39314 0.278 0.0
H225 H 0.54369 0.4026 0.2214 0.0
H226 H 0.5112 0.4129 0.36566 0.0
H227 H 0.51694 0.40303 0.44084 0.0
C228 C 0.14181 0.56749 0.64739 0.0
C229 C 0.17299 0.59358 0.61758 0.0
C230 C 0.20109 0.61537 0.71835 0.0
C231 C 0.17087 0.58759 0.74754 0.0
N232 N 0.11471 0.53367 0.74003 0.0
N233 N 0.23383 0.63965 0.62306 0.0
C234 C 0.14196 0.56253 0.71204 0.0
C235 C 0.20309 0.61686 0.65266 0.0
N236 N 0.11137 0.54873 0.6145 0.0
N237 N 0.22755 0.64061 0.75349 0.0
H238 H 0.23604 0.64143 0.57516 0.0
H239 H 0.25775 0.65486 0.64546 0.0
H240 H 0.22731 0.63957 0.80151 0.0
H241 H 0.2486 0.66364 0.73554 0.0
H242 H 0.08684 0.53253 0.63476 0.0
H243 H 0.10982 0.55175 0.56723 0.0
H244 H 0.09497 0.51243 0.71585 0.0
H245 H 0.11319 0.52945 0.78748 0.0
C246 C 0.5839 0.15424 0.05181 0.0
C247 C 0.61422 0.18553 0.07242 0.0
C248 C 0.61822 0.21404 0.97261 0.0
C249 C 0.58644 0.18371 0.95397 0.0
N250 N 0.53716 0.12578 0.97669 0.0
N251 N 0.65847 0.24639 0.05618 0.0
C252 C 0.56867 0.15414 0.99401 0.0
C253 C 0.63099 0.21576 0.03369 0.0
N254 N 0.57084 0.12392 0.08595 0.0
N255 N 0.63633 0.24099 0.93158 0.0
H256 H 0.6684 0.24839 0.10052 0.0
H257 H 0.66984 0.27046 0.03301 0.0
H258 H 0.62706 0.24101 0.88739 0.0
H259 H 0.66147 0.26225 0.93955 0.0
H260 H 0.55165 0.09917 0.07035 0.0
H261 H 0.58117 0.12277 0.12841 0.0
H262 H 0.52052 0.10567 1.00671 0.0
H263 H 0.52648 0.12302 0.93283 0.0
C264 C 0.28613 0.55013 0.06362 0.0
C265 C 0.29985 0.52831 0.04552 0.0
C266 C 0.25077 0.49802 0.97258 0.0
C267 C 0.2417 0.52443 0.98262 0.0
N268 N 0.25368 0.57862 0.03277 0.0
N269 N 0.29603 0.4819 0.97965 0.0
C270 C 0.26001 0.55119 0.02711 0.0
C271 C 0.28204 0.50181 0.99994 0.0
N272 N 0.29786 0.56957 0.11642 0.0
N273 N 0.22977 0.46965 0.93637 0.0
H274 H 0.31835 0.48318 0.9987 0.0
H275 H 0.28667 0.46552 0.94127 0.0
H276 H 0.20719 0.46674 0.91495 0.0
H277 H 0.23299 0.44775 0.93191 0.0
H278 H 0.28662 0.58365 0.13476 0.0
H279 H 0.31616 0.56833 0.14538 0.0
H280 H 0.26945 0.60103 0.05899 0.0
H281 H 0.23387 0.57999 1.0087 0.0
C282 C 0.76408 0.26097 0.41284 0.0
C283 C 0.79288 0.28816 0.37993 0.0
C284 C 0.76528 0.26068 0.28184 0.0
C285 C 0.73509 0.23545 0.31461 0.0
N286 N 0.7088 0.20506 0.40964 0.0
N287 N 0.82642 0.30797 0.28592 0.0
C288 C 0.73576 0.23322 0.37974 0.0
C289 C 0.79543 0.28579 0.3152 0.0
N290 N 0.76325 0.26291 0.4756 0.0
N291 N 0.76427 0.26164 0.21902 0.0
H292 H 0.84886 0.32598 0.30986 0.0
H293 H 0.83094 0.30636 0.23927 0.0
H294 H 0.74308 0.24245 0.19373 0.0
H295 H 0.78355 0.28188 0.1922 0.0
H296 H 0.74142 0.24659 0.50267 0.0
H297 H 0.78466 0.28194 0.5007 0.0
H298 H 0.70855 0.20039 0.45666 0.0
H299 H 0.68766 0.18458 0.38637 0.0
C300 C 0.49392 0.77465 0.63188 0.0
C301 C 0.49642 0.78131 0.69626 0.0
C302 C 0.50517 0.73101 0.71469 0.0
C303 C 0.49901 0.7224 0.65126 0.0
N304 N 0.49779 0.74023 0.54732 0.0
N305 N 0.51286 0.77205 0.79707 0.0
C306 C 0.49701 0.74588 0.60907 0.0
C307 C 0.50526 0.76169 0.73702 0.0
N308 N 0.48707 0.79503 0.59311 0.0
N309 N 0.50925 0.70878 0.75357 0.0
H310 H 0.51267 0.7942 0.81428 0.0
H311 H 0.52166 0.76046 0.82885 0.0
H312 H 0.51121 0.68739 0.73744 0.0
H313 H 0.50997 0.71083 0.80132 0.0
H314 H 0.48055 0.78932 0.54688 0.0
H315 H 0.48701 0.81757 0.60811 0.0
H316 H 0.49888 0.75748 0.5133 0.0
H317 H 0.50039 0.71937 0.53018 0.0
C318 C 0.73656 0.50553 1.00955 0.0
C319 C 0.7269 0.49705 0.07237 0.0
C320 C 0.77775 0.48953 0.08965 0.0
C321 C 0.78551 0.49449 0.0256 0.0
N322 N 0.77907 0.51638 0.92789 0.0
N323 N 0.74331 0.49208 0.17545 0.0
C324 C 0.76733 0.50598 0.98675 0.0
C325 C 0.74945 0.49297 0.11353 0.0
N326 N 0.71508 0.51092 0.97121 0.0
N327 N 0.79645 0.47985 0.12696 0.0
H328 H 0.7227 0.49483 0.19339 0.0
H329 H 0.76012 0.49185 0.20891 0.0
H330 H 0.81867 0.47944 0.1115 0.0
H331 H 0.78949 0.47124 0.17221 0.0
H332 H 0.7178 0.51279 0.92353 0.0
H333 H 0.69353 0.51249 0.98744 0.0
H334 H 0.76874 0.52747 0.8981 0.0
H335 H 0.80129 0.51647 0.91036 0.0
C336 C 0.25476 0.75854 0.3962 0.0
C337 C 0.23747 0.72785 0.35907 0.0
C338 C 0.27606 0.76046 0.27194 0.0
C339 C 0.2973 0.78841 0.31232 0.0
N340 N 0.30683 0.81631 0.41129 0.0
N341 N 0.22972 0.6995 0.26061 0.0
C342 C 0.28618 0.78848 0.37372 0.0
C343 C 0.24719 0.72903 0.29622 0.0
N344 N 0.24154 0.75861 0.45322 0.0
N345 N 0.28386 0.76416 0.21042 0.0
H346 H 0.20721 0.67688 0.2759 0.0
H347 H 0.23809 0.69683 0.21707 0.0
H348 H 0.30486 0.78721 0.192 0.0
H349 H 0.26801 0.74607 0.17716 0.0
H350 H 0.25113 0.78087 0.48105 0.0
H351 H 0.21893 0.7368 0.47087 0.0
H352 H 0.30291 0.8165 0.45853 0.0
H353 H 0.32899 0.83911 0.39506 0.0
C354 C 0.50767 0.22842 0.65764 0.0
C355 C 0.51532 0.23103 0.72157 0.0
C356 C 0.51083 0.28457 0.72765 0.0
C357 C 0.51217 0.28659 0.66232 0.0
N358 N 0.50619 0.25864 0.56451 0.0
N359 N 0.52083 0.25902 0.81933 0.0
C360 C 0.50809 0.25748 0.62722 0.0
C361 C 0.51519 0.25802 0.75731 0.0
N362 N 0.50114 0.19877 0.62597 0.0
N363 N 0.50574 0.30803 0.7612 0.0
H364 H 0.52181 0.23865 0.84259 0.0
H365 H 0.52584 0.28036 0.84723 0.0
H366 H 0.50134 0.32702 0.74108 0.0
H367 H 0.50211 0.30643 0.80872 0.0
H368 H 0.49302 0.19403 0.58029 0.0
H369 H 0.50134 0.17741 0.64662 0.0
H370 H 0.50723 0.24056 0.53477 0.0
H371 H 0.50424 0.27866 0.54197 0.0
C372 C 0.4833 0.49479 0.16189 0.0
C373 C 0.48362 0.51642 0.11297 0.0
C374 C 0.53137 0.51204 0.06192 0.0
C375 C 0.53311 0.49304 0.1134 0.0
N376 N 0.5151 0.47133 0.21702 0.0
N377 N 0.51027 0.54923 1.01959 0.0
C378 C 0.5101 0.48556 0.16455 0.0
C379 C 0.50841 0.52617 0.06397 0.0
N380 N 0.45754 0.48327 0.20604 0.0
N381 N 0.55045 0.51522 1.00992 0.0
H382 H 0.49269 0.55864 1.01715 0.0
H383 H 0.53052 0.56076 0.98718 0.0
H384 H 0.56774 0.50548 1.00665 0.0
H385 H 0.54712 0.52495 0.96827 0.0
H386 H 0.45343 0.46419 0.23882 0.0
H387 H 0.43851 0.49086 0.20741 0.0
H388 H 0.50169 0.4686 0.25814 0.0
H389 H 0.5351 0.46521 0.2215 0.0
C390 C 0.99588 0.48719 0.39662 0.0
C391 C 0.97666 0.48268 0.45185 0.0
C392 C 0.0275 0.53526 0.49602 0.0
C393 C 0.04751 0.53818 0.44256 0.0
N394 N 0.05263 0.51431 0.34524 0.0
N395 N 0.97556 0.49824 0.55797 0.0
C396 C 0.03225 0.51331 0.39389 0.0
C397 C 0.9928 0.50573 0.50253 0.0
N398 N 0.97905 0.46764 0.34571 0.0
N399 N 0.04176 0.56047 0.54091 0.0
H400 H 0.95064 0.47621 0.56498 0.0
H401 H 0.98703 0.51176 0.59852 0.0
H402 H 0.0677 0.58136 0.53963 0.0
H403 H 0.02729 0.56212 0.57752 0.0
H404 H 0.99036 0.47287 0.30195 0.0
H405 H 0.95268 0.44777 0.34585 0.0
H406 H 0.0443 0.49433 0.31252 0.0
H407 H 0.07883 0.53406 0.33938 0.0
C408 C 0.51032 0.02663 0.72868 0.0
C409 C 0.52469 0.04547 0.7842 0.0
C410 C 0.51734 0.99154 0.83325 0.0
C411 C 0.50026 0.9722 0.7794 0.0
N412 N 0.47567 0.96995 0.67895 0.0
N413 N 0.53758 0.04553 0.89202 0.0
C414 C 0.4952 0.98933 0.72813 0.0
C415 C 0.5272 0.02786 0.83722 0.0
N416 N 0.51284 0.04457 0.67552 0.0
N417 N 0.52396 0.97515 0.88065 0.0
H418 H 0.54456 0.07197 0.89673 0.0
H419 H 0.53654 0.03345 0.93387 0.0
H420 H 0.51556 0.94824 0.88069 0.0
H421 H 0.53972 0.98853 0.91822 0.0
H422 H 0.50665 0.03275 0.63226 0.0
H423 H 0.5242 0.07195 0.67345 0.0
H424 H 0.46741 0.98032 0.64387 0.0
H425 H 0.46556 0.94282 0.67496 0.0
C426 C 0.50335 0.51435 0.54648 0.0
C427 C 0.50823 0.5367 0.59746 0.0
C428 C 0.53243 0.50658 0.65811 0.0
C429 C 0.5295 0.48569 0.60606 0.0
N430 N 0.51803 0.47347 0.49776 0.0
N431 N 0.53265 0.55836 0.69816 0.0
C432 C 0.51643 0.49049 0.54941 0.0
C433 C 0.52456 0.53425 0.65207 0.0
N434 N 0.48609 0.51588 0.49526 0.0
N435 N 0.54116 0.49885 0.71411 0.0
H436 H 0.52652 0.57844 0.69625 0.0
H437 H 0.54791 0.5603 0.73617 0.0
H438 H 0.54658 0.47843 0.72056 0.0
H439 H 0.53995 0.51042 0.75524 0.0
H440 H 0.47763 0.49733 0.45996 0.0
H441 H 0.47863 0.53486 0.48923 0.0
H442 H 0.51259 0.47869 0.45363 0.0
H443 H 0.52757 0.45594 0.49816 0.0
C444 C 0.02578 0.49307 0.98883 0.0
C445 C 0.04475 0.51238 0.93593 0.0
C446 C 0.99034 0.50608 0.89167 0.0
C447 C 0.97199 0.4895 0.94689 0.0
N448 N 0.97302 0.47108 0.05137 0.0
N449 N 0.0465 0.54062 0.83945 0.0
C450 C 0.98988 0.48379 0.9962 0.0
C451 C 0.02743 0.51995 0.88818 0.0
N452 N 0.04211 0.48376 0.03239 0.0
N453 N 0.9721 0.50689 0.8413 0.0
H454 H 0.07314 0.54918 0.83267 0.0
H455 H 0.03647 0.55101 0.80752 0.0
H456 H 0.94496 0.49682 0.84142 0.0
H457 H 0.98325 0.51477 0.79765 0.0
H458 H 0.02876 0.46594 0.06788 0.0
H459 H 0.06887 0.49194 0.03111 0.0
H460 H 0.98567 0.47056 0.0915 0.0
H461 H 0.94672 0.46355 0.05885 0.0
C462 C 0.50883 0.99867 0.20457 0.0
C463 C 0.48559 0.98306 0.25537 0.0
C464 C 0.51302 0.04053 0.30755 0.0
C465 C 0.53815 0.0553 0.259 0.0
N466 N 0.56365 0.04747 0.16599 0.0
N467 N 0.46812 0.98764 0.35889 0.0
C468 C 0.53722 0.03404 0.20899 0.0
C469 C 0.48816 1.00363 0.30776 0.0
N470 N 0.50279 0.98009 0.15098 0.0
N471 N 0.51297 0.06183 0.35356 0.0
H472 H 0.44917 0.9609 0.36059 0.0
H473 H 0.47186 1.00021 0.40118 0.0
H474 H 0.53238 0.08833 0.35771 0.0
H475 H 0.49277 0.0538 0.38588 0.0
H476 H 0.51646 0.99114 0.11016 0.0
H477 H 0.48164 0.95447 0.14543 0.0
H478 H 0.56643 0.03219 0.13215 0.0
H479 H 0.5847 0.07334 0.16721 0.0
C480 C 0.4333 0.60568 0.82023 0.0
C481 C 0.4467 0.58783 0.78468 0.0
C482 C 0.44055 0.55027 0.8728 0.0
C483 C 0.42499 0.5665 0.90741 0.0
N484 N 0.40057 0.6051 0.91077 0.0
N485 N 0.45636 0.53872 0.772 0.0
C486 C 0.41977 0.59305 0.88031 0.0
C487 C 0.44828 0.55876 0.80949 0.0
N488 N 0.43433 0.63523 0.79718 0.0
N489 N 0.44933 0.52782 0.90104 0.0
H490 H 0.46146 0.5439 0.72507 0.0
H491 H 0.4546 0.5151 0.78577 0.0
H492 H 0.4445 0.52109 0.94753 0.0
H493 H 0.46434 0.5184 0.87995 0.0
H494 H 0.42923 0.65205 0.82352 0.0
H495 H 0.44245 0.64417 0.75234 0.0
H496 H 0.39251 0.62148 0.8907 0.0
H497 H 0.39011 0.59643 0.95464 0.0
C498 C 0.8908 0.45686 0.24944 0.0
C499 C 0.86218 0.42457 0.27019 0.0
C500 C 0.83307 0.4165 0.17051 0.0
C501 C 0.86433 0.44592 0.1466 0.0
N502 N 0.9256 0.49061 0.16236 0.0
N503 N 0.80701 0.37159 0.25012 0.0
C504 C 0.89387 0.46534 0.18591 0.0
C505 C 0.8335 0.40378 0.23065 0.0
N506 N 0.91502 0.47958 0.29073 0.0
N507 N 0.8025 0.40183 0.13747 0.0
H508 H 0.80556 0.36246 0.29502 0.0
H509 H 0.78774 0.35325 0.22083 0.0
H510 H 0.80042 0.41119 0.09454 0.0
H511 H 0.77827 0.3827 0.15539 0.0
H512 H 0.93475 0.5051 0.2793 0.0
H513 H 0.913 0.47421 0.33784 0.0
H514 H 0.94876 0.50253 0.188 0.0
H515 H 0.92996 0.49719 0.11585 0.0
C516 C 0.47208 0.90018 0.53136 0.0
C517 C 0.45445 0.86892 0.56766 0.0
C518 C 0.41287 0.83893 0.48329 0.0
C519 C 0.43221 0.86929 0.44592 0.0
N520 N 0.48426 0.92585 0.42909 0.0
N521 N 0.41277 0.80621 0.57317 0.0
C522 C 0.46313 0.89898 0.46835 0.0
C523 C 0.42606 0.83759 0.54235 0.0
N524 N 0.49612 0.93151 0.55768 0.0
N525 N 0.38147 0.8117 0.46295 0.0
H526 H 0.42212 0.80377 0.61583 0.0
H527 H 0.39476 0.78198 0.55389 0.0
H528 H 0.37173 0.81118 0.419 0.0
H529 H 0.36404 0.79083 0.49101 0.0
H530 H 0.50671 0.95573 0.53505 0.0
H531 H 0.50297 0.93404 0.60404 0.0
H532 H 0.50899 0.94663 0.44127 0.0
H533 H 0.4786 0.92553 0.38241 0.0
C534 C 0.62205 0.4193 0.8347 0.0
C535 C 0.59074 0.41249 0.80407 0.0
C536 C 0.5699 0.42819 0.89731 0.0
C537 C 0.60082 0.43428 0.92827 0.0
N538 N 0.65327 0.42979 0.93166 0.0
N539 N 0.53126 0.40225 0.80979 0.0
C540 C 0.62591 0.42787 0.89855 0.0
C541 C 0.5636 0.41461 0.83638 0.0
N542 N 0.64862 0.41901 0.80208 0.0
N543 N 0.54689 0.43615 0.92578 0.0
H544 H 0.52526 0.39164 0.76555 0.0
H545 H 0.50933 0.39952 0.83337 0.0
H546 H 0.54938 0.44383 0.97182 0.0
H547 H 0.52645 0.43696 0.90302 0.0
H548 H 0.67361 0.4274 0.81981 0.0
H549 H 0.64654 0.4127 0.75537 0.0
H550 H 0.67084 0.42244 0.91459 0.0
H551 H 0.65671 0.43609 0.97836 0.0
C552 C 0.1271 0.57474 0.14366 0.0
C553 C 0.15541 0.56989 0.12545 0.0
C554 C 0.18396 0.59255 0.22513 0.0
C555 C 0.15409 0.59429 0.24565 0.0
N556 N 0.09334 0.57838 0.22858 0.0
N557 N 0.20563 0.56478 0.15511 0.0
C558 C 0.12457 0.58307 0.206 0.0
C559 C 0.1823 0.57592 0.16808 0.0
N560 N 0.10235 0.57103 0.10166 0.0
N561 N 0.21454 0.60818 0.25819 0.0
H562 H 0.20433 0.55129 0.11482 0.0
H563 H 0.22366 0.56555 0.18709 0.0
H564 H 0.21761 0.622 0.2989 0.0
H565 H 0.238 0.61061 0.24172 0.0
H566 H 0.08339 0.57814 0.11054 0.0
H567 H 0.10245 0.5634 0.0563 0.0
H568 H 0.07001 0.56666 0.20344 0.0
H569 H 0.08952 0.58245 0.27454 0.0
C570 C 0.6069 0.1667 0.55265 0.0
C571 C 0.59866 0.19121 0.57944 0.0
C572 C 0.59114 0.20949 0.47606 0.0
C573 C 0.59508 0.18196 0.4502 0.0
N574 N 0.60174 0.13088 0.46402 0.0
N575 N 0.57885 0.23344 0.56718 0.0
C576 C 0.60177 0.15969 0.48851 0.0
C577 C 0.59 0.21224 0.54132 0.0
N578 N 0.62057 0.15081 0.58843 0.0
N579 N 0.58914 0.23337 0.43821 0.0
H580 H 0.57736 0.23629 0.6145 0.0
H581 H 0.56846 0.24624 0.54183 0.0
H582 H 0.58915 0.23162 0.39029 0.0
H583 H 0.59028 0.25638 0.454 0.0
H584 H 0.63049 0.13544 0.57062 0.0
H585 H 0.62532 0.1559 0.63543 0.0
H586 H 0.60253 0.11152 0.49068 0.0
H587 H 0.59769 0.12448 0.41736 0.0
loop_
_geom_bond_atom_site_label_1
_geom_bond_atom_site_label_2
_geom_bond_distance
_geom_bond_site_symmetry_2
_ccdc_geom_bond_type
Mg0 O7 2.141 . S
Mg0 O8 2.048 . S
Mg0 O9 2.048 1_554 S
Mg0 O12 2.141 . S
C1 O2 1.313 . S
C1 O8 1.195 . S
O2 C1 1.313 . S
C3 O4 1.245 . S
C3 O12 1.289 . S
O4 C3 1.245 . S
C5 O6 1.245 . S
C5 O7 1.289 . S
O6 C5 1.245 . S
O7 Mg0 2.141 . S
O7 C5 1.289 . S
O8 Mg0 2.048 . S
O8 C1 1.195 . S
O9 Mg0 2.048 1_556 S
O9 C10 1.195 . S
C10 O9 1.195 . S
C10 O11 1.313 . S
O11 C10 1.313 . S
O12 Mg0 2.141 . S
O12 C3 1.289 . S
Mg13 O20 2.141 . S
Mg13 O21 2.048 . S
Mg13 O22 2.048 . S
Mg13 O25 2.141 . S
C14 O15 1.313 . S
C14 O21 1.195 . S
O15 C14 1.313 . S
C16 O17 1.245 . S
C16 O25 1.289 . S
O17 C16 1.245 . S
C18 O19 1.245 . S
C18 O20 1.289 . S
O19 C18 1.245 . S
O20 Mg13 2.141 . S
O20 C18 1.289 . S
O21 Mg13 2.048 . S
O21 C14 1.195 . S
O22 Mg13 2.048 . S
O22 C23 1.195 . S
C23 O22 1.195 . S
C23 O24 1.313 . S
O24 C23 1.313 . S
O25 Mg13 2.141 . S
O25 C16 1.289 . S
Mg26 O33 2.141 . S
Mg26 O34 2.048 . S
Mg26 O35 2.048 . S
Mg26 O38 2.141 . S
C27 O28 1.313 . S
C27 O34 1.195 . S
O28 C27 1.313 . S
C29 O30 1.245 . S
C29 O38 1.289 . S
O30 C29 1.245 . S
C31 O32 1.245 . S
C31 O33 1.289 . S
O32 C31 1.245 . S
O33 Mg26 2.141 . S
O33 C31 1.289 . S
O34 Mg26 2.048 . S
O34 C27 1.195 . S
O35 Mg26 2.048 . S
O35 C36 1.195 . S
C36 O35 1.195 . S
C36 O37 1.313 . S
O37 C36 1.313 . S
O38 Mg26 2.141 . S
O38 C29 1.289 . S
Mg39 O46 2.141 . S
Mg39 O47 2.048 . S
Mg39 O48 2.048 1_554 S
Mg39 O51 2.141 . S
C40 O41 1.313 . S
C40 O47 1.195 . S
O41 C40 1.313 . S
C42 O43 1.245 . S
C42 O51 1.289 . S
O43 C42 1.245 . S
C44 O45 1.245 . S
C44 O46 1.289 . S
O45 C44 1.245 . S
O46 Mg39 2.141 . S
O46 C44 1.289 . S
O47 Mg39 2.048 . S
O47 C40 1.195 . S
O48 Mg39 2.048 1_556 S
O48 C49 1.195 . S
C49 O48 1.195 . S
C49 O50 1.313 . S
O50 C49 1.313 . S
O51 Mg39 2.141 . S
O51 C42 1.289 . S
Mg52 O59 2.141 . S
Mg52 O60 2.048 . S
Mg52 O61 2.048 . S
Mg52 O64 2.141 . S
C53 O54 1.313 . S
C53 O60 1.195 . S
O54 C53 1.313 . S
C55 O56 1.245 . S
C55 O64 1.289 . S
O56 C55 1.245 . S
C57 O58 1.245 . S
C57 O59 1.289 . S
O58 C57 1.245 . S
O59 Mg52 2.141 . S
O59 C57 1.289 . S
O60 Mg52 2.048 . S
O60 C53 1.195 . S
O61 Mg52 2.048 . S
O61 C62 1.195 . S
C62 O61 1.195 . S
C62 O63 1.313 . S
O63 C62 1.313 . S
O64 Mg52 2.141 . S
O64 C55 1.289 . S
Mg65 O72 2.141 . S
Mg65 O73 2.048 . S
Mg65 O74 2.048 . S
Mg65 O77 2.141 . S
C66 O67 1.313 . S
C66 O73 1.195 . S
O67 C66 1.313 . S
C68 O69 1.245 . S
C68 O77 1.289 . S
O69 C68 1.245 . S
C70 O71 1.245 . S
C70 O72 1.289 . S
O71 C70 1.245 . S
O72 Mg65 2.141 . S
O72 C70 1.289 . S
O73 Mg65 2.048 . S
O73 C66 1.195 . S
O74 Mg65 2.048 . S
O74 C75 1.195 . S
C75 O74 1.195 . S
C75 O76 1.313 . S
O76 C75 1.313 . S
O77 Mg65 2.141 . S
O77 C68 1.289 . S
Mg78 O85 2.141 . S
Mg78 O86 2.048 . S
Mg78 O87 2.048 . S
Mg78 O90 2.141 . S
C79 O80 1.313 . S
C79 O86 1.195 . S
O80 C79 1.313 . S
C81 O82 1.245 . S
C81 O90 1.289 . S
O82 C81 1.245 . S
C83 O84 1.245 . S
C83 O85 1.289 . S
O84 C83 1.245 . S
O85 Mg78 2.141 . S
O85 C83 1.289 . S
O86 Mg78 2.048 . S
O86 C79 1.195 . S
O87 Mg78 2.048 . S
O87 C88 1.195 . S
C88 O87 1.195 . S
C88 O89 1.313 . S
O89 C88 1.313 . S
O90 Mg78 2.141 . S
O90 C81 1.289 . S
Mg91 O98 2.141 . S
Mg91 O99 2.048 . S
Mg91 O100 2.048 1_556 S
Mg91 O103 2.141 . S
C92 O93 1.313 . S
C92 O99 1.195 . S
O93 C92 1.313 . S
C94 O95 1.245 . S
C94 O103 1.289 . S
O95 C94 1.245 . S
C96 O97 1.245 . S
C96 O98 1.289 . S
O97 C96 1.245 . S
O98 Mg91 2.141 . S
O98 C96 1.289 . S
O99 Mg91 2.048 . S
O99 C92 1.195 . S
O100 Mg91 2.048 1_554 S
O100 C101 1.195 . S
C101 O100 1.195 . S
C101 O102 1.313 . S
O102 C101 1.313 . S
O103 Mg91 2.141 . S
O103 C94 1.289 . S
Mg104 O111 2.141 . S
Mg104 O112 2.048 . S
Mg104 O113 2.048 . S
Mg104 O116 2.141 . S
C105 O106 1.313 . S
C105 O112 1.195 . S
O106 C105 1.313 . S
C107 O108 1.245 . S
C107 O116 1.289 . S
O108 C107 1.245 . S
C109 O110 1.245 . S
C109 O111 1.289 . S
O110 C109 1.245 . S
O111 Mg104 2.141 . S
O111 C109 1.289 . S
O112 Mg104 2.048 . S
O112 C105 1.195 . S
O113 Mg104 2.048 . S
O113 C114 1.195 . S
C114 O113 1.195 . S
C114 O115 1.313 . S
O115 C114 1.313 . S
O116 Mg104 2.141 . S
O116 C107 1.289 . S
Mg117 O124 2.141 . S
Mg117 O125 2.048 . S
Mg117 O126 2.048 . S
Mg117 O129 2.141 . S
C118 O119 1.313 . S
C118 O125 1.195 . S
O119 C118 1.313 . S
C120 O121 1.245 . S
C120 O129 1.289 . S
O121 C120 1.245 . S
C122 O123 1.245 . S
C122 O124 1.289 . S
O123 C122 1.245 . S
O124 Mg117 2.141 . S
O124 C122 1.289 . S
O125 Mg117 2.048 . S
O125 C118 1.195 . S
O126 Mg117 2.048 . S
O126 C127 1.195 . S
C127 O126 1.195 . S
C127 O128 1.313 . S
O128 C127 1.313 . S
O129 Mg117 2.141 . S
O129 C120 1.289 . S
Mg130 O137 2.141 . S
Mg130 O138 2.048 . S
Mg130 O139 2.048 1_556 S
Mg130 O142 2.141 . S
C131 O132 1.313 . S
C131 O138 1.195 . S
O132 C131 1.313 . S
C133 O134 1.245 . S
C133 O142 1.289 . S
O134 C133 1.245 . S
C135 O136 1.245 . S
C135 O137 1.289 . S
O136 C135 1.245 . S
O137 Mg130 2.141 . S
O137 C135 1.289 . S
O138 Mg130 2.048 . S
O138 C131 1.195 . S
O139 Mg130 2.048 1_554 S
O139 C140 1.195 . S
C140 O139 1.195 . S
C140 O141 1.313 . S
O141 C140 1.313 . S
O142 Mg130 2.141 . S
O142 C133 1.289 . S
Mg143 O150 2.141 . S
Mg143 O151 2.048 . S
Mg143 O152 2.048 . S
Mg143 O155 2.141 . S
C144 O145 1.313 . S
C144 O151 1.195 . S
O145 C144 1.313 . S
C146 O147 1.245 . S
C146 O155 1.289 . S
O147 C146 1.245 . S
C148 O149 1.245 . S
C148 O150 1.289 . S
O149 C148 1.245 . S
O150 Mg143 2.141 . S
O150 C148 1.289 . S
O151 Mg143 2.048 . S
O151 C144 1.195 . S
O152 Mg143 2.048 . S
O152 C153 1.195 . S
C153 O152 1.195 . S
C153 O154 1.313 . S
O154 C153 1.313 . S
O155 Mg143 2.141 . S
O155 C146 1.289 . S
C156 C157 1.363 . S
C156 C162 1.379 . S
C156 N164 1.356 . S
C157 C156 1.363 . S
C157 C163 1.363 . S
C158 C159 1.363 . S
C158 C163 1.379 . S
C158 N165 1.356 . S
C159 C158 1.363 . S
C159 C162 1.363 . S
N160 C162 1.356 . S
N160 H172 0.984 . S
N160 H173 0.985 . S
N161 C163 1.356 . S
N161 H166 0.984 . S
N161 H167 0.985 . S
C162 C156 1.379 . S
C162 C159 1.363 . S
C162 N160 1.356 . S
C163 C157 1.363 . S
C163 C158 1.379 . S
C163 N161 1.356 . S
N164 C156 1.356 . S
N164 H170 0.984 . S
N164 H171 0.984 . S
N165 C158 1.356 . S
N165 H168 0.984 . S
N165 H169 0.985 . S
H166 N161 0.984 . S
H167 N161 0.985 . S
H168 N165 0.984 . S
H169 N165 0.985 . S
H170 N164 0.984 . S
H171 N164 0.984 . S
H172 N160 0.984 . S
H173 N160 0.985 . S
C174 C175 1.363 . S
C174 C180 1.379 . S
C174 N182 1.356 . S
C175 C174 1.363 . S
C175 C181 1.363 . S
C176 C177 1.363 . S
C176 C181 1.379 . S
C176 N183 1.356 . S
C177 C176 1.363 . S
C177 C180 1.363 . S
N178 C180 1.356 . S
N178 H190 0.984 . S
N178 H191 0.985 . S
N179 C181 1.356 . S
N179 H184 0.984 . S
N179 H185 0.985 . S
C180 C174 1.379 . S
C180 C177 1.363 . S
C180 N178 1.356 . S
C181 C175 1.363 . S
C181 C176 1.379 . S
C181 N179 1.356 . S
N182 C174 1.356 . S
N182 H188 0.984 . S
N182 H189 0.984 . S
N183 C176 1.356 . S
N183 H186 0.984 . S
N183 H187 0.985 . S
H184 N179 0.984 . S
H185 N179 0.985 . S
H186 N183 0.984 . S
H187 N183 0.985 . S
H188 N182 0.984 . S
H189 N182 0.984 . S
H190 N178 0.984 . S
H191 N178 0.985 . S
C192 C193 1.363 . S
C192 C198 1.379 1_556 S
C192 N200 1.356 . S
C193 C192 1.363 . S
C193 C199 1.363 . S
C194 C195 1.363 . S
C194 C199 1.379 1_554 S
C194 N201 1.356 . S
C195 C194 1.363 . S
C195 C198 1.363 . S
N196 C198 1.356 . S
N196 H208 0.984 . S
N196 H209 0.985 . S
N197 C199 1.356 . S
N197 H202 0.984 . S
N197 H203 0.985 . S
C198 C192 1.379 1_554 S
C198 C195 1.363 . S
C198 N196 1.356 . S
C199 C193 1.363 . S
C199 C194 1.379 1_556 S
C199 N197 1.356 . S
N200 C192 1.356 . S
N200 H206 0.984 . S
N200 H207 0.984 . S
N201 C194 1.356 . S
N201 H204 0.984 . S
N201 H205 0.985 . S
H202 N197 0.984 . S
H203 N197 0.985 . S
H204 N201 0.984 . S
H205 N201 0.985 . S
H206 N200 0.984 . S
H207 N200 0.984 . S
H208 N196 0.984 . S
H209 N196 0.985 . S
C210 C211 1.363 . S
C210 C216 1.379 . S
C210 N218 1.356 . S
C211 C210 1.363 . S
C211 C217 1.363 . S
C212 C213 1.363 . S
C212 C217 1.379 . S
C212 N219 1.356 . S
C213 C212 1.363 . S
C213 C216 1.363 . S
N214 C216 1.356 . S
N214 H226 0.984 . S
N214 H227 0.985 . S
N215 C217 1.356 . S
N215 H220 0.984 . S
N215 H221 0.985 . S
C216 C210 1.379 . S
C216 C213 1.363 . S
C216 N214 1.356 . S
C217 C211 1.363 . S
C217 C212 1.379 . S
C217 N215 1.356 . S
N218 C210 1.356 . S
N218 H224 0.984 . S
N218 H225 0.984 . S
N219 C212 1.356 . S
N219 H222 0.984 . S
N219 H223 0.985 . S
H220 N215 0.984 . S
H221 N215 0.985 . S
H222 N219 0.984 . S
H223 N219 0.985 . S
H224 N218 0.984 . S
H225 N218 0.984 . S
H226 N214 0.984 . S
H227 N214 0.985 . S
C228 C229 1.363 . S
C228 C234 1.379 . S
C228 N236 1.356 . S
C229 C228 1.363 . S
C229 C235 1.363 . S
C230 C231 1.363 . S
C230 C235 1.379 . S
C230 N237 1.356 . S
C231 C230 1.363 . S
C231 C234 1.363 . S
N232 C234 1.356 . S
N232 H244 0.984 . S
N232 H245 0.985 . S
N233 C235 1.356 . S
N233 H238 0.984 . S
N233 H239 0.985 . S
C234 C228 1.379 . S
C234 C231 1.363 . S
C234 N232 1.356 . S
C235 C229 1.363 . S
C235 C230 1.379 . S
C235 N233 1.356 . S
N236 C228 1.356 . S
N236 H242 0.984 . S
N236 H243 0.984 . S
N237 C230 1.356 . S
N237 H240 0.984 . S
N237 H241 0.985 . S
H238 N233 0.984 . S
H239 N233 0.985 . S
H240 N237 0.984 . S
H241 N237 0.985 . S
H242 N236 0.984 . S
H243 N236 0.984 . S
H244 N232 0.984 . S
H245 N232 0.985 . S
C246 C247 1.363 . S
C246 C252 1.379 1_554 S
C246 N254 1.356 . S
C247 C246 1.363 . S
C247 C253 1.363 . S
C248 C249 1.363 . S
C248 C253 1.379 1_556 S
C248 N255 1.356 . S
C249 C248 1.363 . S
C249 C252 1.363 . S
N250 C252 1.356 . S
N250 H262 0.984 . S
N250 H263 0.985 . S
N251 C253 1.356 . S
N251 H256 0.984 . S
N251 H257 0.985 . S
C252 C246 1.379 1_556 S
C252 C249 1.363 . S
C252 N250 1.356 . S
C253 C247 1.363 . S
C253 C248 1.379 1_554 S
C253 N251 1.356 . S
N254 C246 1.356 . S
N254 H260 0.984 . S
N254 H261 0.984 . S
N255 C248 1.356 . S
N255 H258 0.984 . S
N255 H259 0.985 . S
H256 N251 0.984 . S
H257 N251 0.985 . S
H258 N255 0.984 . S
H259 N255 0.985 . S
H260 N254 0.984 . S
H261 N254 0.984 . S
H262 N250 0.984 . S
H263 N250 0.985 . S
C264 C265 1.363 . S
C264 C270 1.379 . S
C264 N272 1.356 . S
C265 C264 1.363 . S
C265 C271 1.363 1_554 S
C266 C267 1.363 . S
C266 C271 1.379 . S
C266 N273 1.356 . S
C267 C266 1.363 . S
C267 C270 1.363 1_556 S
N268 C270 1.356 . S
N268 H280 0.984 . S
N268 H281 0.985 1_554 S
N269 C271 1.356 . S
N269 H274 0.984 1_556 S
N269 H275 0.985 . S
C270 C264 1.379 . S
C270 C267 1.363 1_554 S
C270 N268 1.356 . S
C271 C265 1.363 1_556 S
C271 C266 1.379 . S
C271 N269 1.356 . S
N272 C264 1.356 . S
N272 H278 0.984 . S
N272 H279 0.984 . S
N273 C266 1.356 . S
N273 H276 0.984 . S
N273 H277 0.985 . S
H274 N269 0.984 1_554 S
H275 N269 0.985 . S
H276 N273 0.984 . S
H277 N273 0.985 . S
H278 N272 0.984 . S
H279 N272 0.984 . S
H280 N268 0.984 . S
H281 N268 0.985 1_556 S
C282 C283 1.363 . S
C282 C288 1.379 . S
C282 N290 1.356 . S
C283 C282 1.363 . S
C283 C289 1.363 . S
C284 C285 1.363 . S
C284 C289 1.379 . S
C284 N291 1.356 . S
C285 C284 1.363 . S
C285 C288 1.363 . S
N286 C288 1.356 . S
N286 H298 0.984 . S
N286 H299 0.985 . S
N287 C289 1.356 . S
N287 H292 0.984 . S
N287 H293 0.985 . S
C288 C282 1.379 . S
C288 C285 1.363 . S
C288 N286 1.356 . S
C289 C283 1.363 . S
C289 C284 1.379 . S
C289 N287 1.356 . S
N290 C282 1.356 . S
N290 H296 0.984 . S
N290 H297 0.984 . S
N291 C284 1.356 . S
N291 H294 0.984 . S
N291 H295 0.985 . S
H292 N287 0.984 . S
H293 N287 0.985 . S
H294 N291 0.984 . S
H295 N291 0.985 . S
H296 N290 0.984 . S
H297 N290 0.984 . S
H298 N286 0.984 . S
H299 N286 0.985 . S
C300 C301 1.363 . S
C300 C306 1.379 . S
C300 N308 1.356 . S
C301 C300 1.363 . S
C301 C307 1.363 . S
C302 C303 1.363 . S
C302 C307 1.379 . S
C302 N309 1.356 . S
C303 C302 1.363 . S
C303 C306 1.363 . S
N304 C306 1.356 . S
N304 H316 0.984 . S
N304 H317 0.985 . S
N305 C307 1.356 . S
N305 H310 0.984 . S
N305 H311 0.985 . S
C306 C300 1.379 . S
C306 C303 1.363 . S
C306 N304 1.356 . S
C307 C301 1.363 . S
C307 C302 1.379 . S
C307 N305 1.356 . S
N308 C300 1.356 . S
N308 H314 0.984 . S
N308 H315 0.984 . S
N309 C302 1.356 . S
N309 H312 0.984 . S
N309 H313 0.985 . S
H310 N305 0.984 . S
H311 N305 0.985 . S
H312 N309 0.984 . S
H313 N309 0.985 . S
H314 N308 0.984 . S
H315 N308 0.984 . S
H316 N304 0.984 . S
H317 N304 0.985 . S
C318 C319 1.363 1_556 S
C318 C324 1.379 . S
C318 N326 1.356 . S
C319 C318 1.363 1_554 S
C319 C325 1.363 . S
C320 C321 1.363 1_554 S
C320 C325 1.379 . S
C320 N327 1.356 . S
C321 C320 1.363 1_556 S
C321 C324 1.363 . S
N322 C324 1.356 . S
N322 H334 0.984 . S
N322 H335 0.985 . S
N323 C325 1.356 . S
N323 H328 0.984 . S
N323 H329 0.985 . S
C324 C318 1.379 . S
C324 C321 1.363 . S
C324 N322 1.356 . S
C325 C319 1.363 . S
C325 C320 1.379 . S
C325 N323 1.356 . S
N326 C318 1.356 . S
N326 H332 0.984 . S
N326 H333 0.984 1_556 S
N327 C320 1.356 . S
N327 H330 0.984 1_554 S
N327 H331 0.985 . S
H328 N323 0.984 . S
H329 N323 0.985 . S
H330 N327 0.984 1_556 S
H331 N327 0.985 . S
H332 N326 0.984 . S
H333 N326 0.984 1_554 S
H334 N322 0.984 . S
H335 N322 0.985 . S
C336 C337 1.363 . S
C336 C342 1.379 . S
C336 N344 1.356 . S
C337 C336 1.363 . S
C337 C343 1.363 . S
C338 C339 1.363 . S
C338 C343 1.379 . S
C338 N345 1.356 . S
C339 C338 1.363 . S
C339 C342 1.363 . S
N340 C342 1.356 . S
N340 H352 0.984 . S
N340 H353 0.985 . S
N341 C343 1.356 . S
N341 H346 0.984 . S
N341 H347 0.985 . S
C342 C336 1.379 . S
C342 C339 1.363 . S
C342 N340 1.356 . S
C343 C337 1.363 . S
C343 C338 1.379 . S
C343 N341 1.356 . S
N344 C336 1.356 . S
N344 H350 0.984 . S
N344 H351 0.984 . S
N345 C338 1.356 . S
N345 H348 0.984 . S
N345 H349 0.985 . S
H346 N341 0.984 . S
H347 N341 0.985 . S
H348 N345 0.984 . S
H349 N345 0.985 . S
H350 N344 0.984 . S
H351 N344 0.984 . S
H352 N340 0.984 . S
H353 N340 0.985 . S
C354 C355 1.363 . S
C354 C360 1.379 . S
C354 N362 1.356 . S
C355 C354 1.363 . S
C355 C361 1.363 . S
C356 C357 1.363 . S
C356 C361 1.379 . S
C356 N363 1.356 . S
C357 C356 1.363 . S
C357 C360 1.363 . S
N358 C360 1.356 . S
N358 H370 0.984 . S
N358 H371 0.985 . S
N359 C361 1.356 . S
N359 H364 0.984 . S
N359 H365 0.985 . S
C360 C354 1.379 . S
C360 C357 1.363 . S
C360 N358 1.356 . S
C361 C355 1.363 . S
C361 C356 1.379 . S
C361 N359 1.356 . S
N362 C354 1.356 . S
N362 H368 0.984 . S
N362 H369 0.984 . S
N363 C356 1.356 . S
N363 H366 0.984 . S
N363 H367 0.985 . S
H364 N359 0.984 . S
H365 N359 0.985 . S
H366 N363 0.984 . S
H367 N363 0.985 . S
H368 N362 0.984 . S
H369 N362 0.984 . S
H370 N358 0.984 . S
H371 N358 0.985 . S
C372 C373 1.363 . S
C372 C378 1.379 . S
C372 N380 1.356 . S
C373 C372 1.363 . S
C373 C379 1.363 . S
C374 C375 1.363 . S
C374 C379 1.379 . S
C374 N381 1.356 1_554 S
C375 C374 1.363 . S
C375 C378 1.363 . S
N376 C378 1.356 . S
N376 H388 0.984 . S
N376 H389 0.985 . S
N377 C379 1.356 1_556 S
N377 H382 0.985 1_556 S
N377 H383 0.984 . S
C378 C372 1.379 . S
C378 C375 1.363 . S
C378 N376 1.356 . S
C379 C373 1.363 . S
C379 C374 1.379 . S
C379 N377 1.356 1_554 S
N380 C372 1.356 . S
N380 H386 0.984 . S
N380 H387 0.984 . S
N381 C374 1.356 1_556 S
N381 H384 0.985 1_556 S
N381 H385 0.984 . S
H382 N377 0.985 1_554 S
H383 N377 0.984 . S
H384 N381 0.985 1_554 S
H385 N381 0.984 . S
H386 N380 0.984 . S
H387 N380 0.984 . S
H388 N376 0.984 . S
H389 N376 0.985 . S
C390 C391 1.363 . S
C390 C396 1.379 1_655 S
C390 N398 1.356 . S
C391 C390 1.363 . S
C391 C397 1.363 . S
C392 C393 1.363 . S
C392 C397 1.379 1_455 S
C392 N399 1.356 . S
C393 C392 1.363 . S
C393 C396 1.363 . S
N394 C396 1.356 . S
N394 H406 0.984 . S
N394 H407 0.985 . S
N395 C397 1.356 . S
N395 H400 0.984 . S
N395 H401 0.985 . S
C396 C390 1.379 1_455 S
C396 C393 1.363 . S
C396 N394 1.356 . S
C397 C391 1.363 . S
C397 C392 1.379 1_655 S
C397 N395 1.356 . S
N398 C390 1.356 . S
N398 H404 0.984 . S
N398 H405 0.984 . S
N399 C392 1.356 . S
N399 H402 0.984 . S
N399 H403 0.985 . S
H400 N395 0.984 . S
H401 N395 0.985 . S
H402 N399 0.984 . S
H403 N399 0.985 . S
H404 N398 0.984 . S
H405 N398 0.984 . S
H406 N394 0.984 . S
H407 N394 0.985 . S
C408 C409 1.363 . S
C408 C414 1.379 1_545 S
C408 N416 1.356 . S
C409 C408 1.363 . S
C409 C415 1.363 . S
C410 C411 1.363 . S
C410 C415 1.379 1_565 S
C410 N417 1.356 . S
C411 C410 1.363 . S
C411 C414 1.363 . S
N412 C414 1.356 . S
N412 H424 0.984 . S
N412 H425 0.985 . S
N413 C415 1.356 . S
N413 H418 0.984 . S
N413 H419 0.985 . S
C414 C408 1.379 1_565 S
C414 C411 1.363 . S
C414 N412 1.356 . S
C415 C409 1.363 . S
C415 C410 1.379 1_545 S
C415 N413 1.356 . S
N416 C408 1.356 . S
N416 H422 0.984 . S
N416 H423 0.984 . S
N417 C410 1.356 . S
N417 H420 0.984 . S
N417 H421 0.985 . S
H418 N413 0.984 . S
H419 N413 0.985 . S
H420 N417 0.984 . S
H421 N417 0.985 . S
H422 N416 0.984 . S
H423 N416 0.984 . S
H424 N412 0.984 . S
H425 N412 0.985 . S
C426 C427 1.363 . S
C426 C432 1.379 . S
C426 N434 1.356 . S
C427 C426 1.363 . S
C427 C433 1.363 . S
C428 C429 1.363 . S
C428 C433 1.379 . S
C428 N435 1.356 . S
C429 C428 1.363 . S
C429 C432 1.363 . S
N430 C432 1.356 . S
N430 H442 0.984 . S
N430 H443 0.985 . S
N431 C433 1.356 . S
N431 H436 0.984 . S
N431 H437 0.985 . S
C432 C426 1.379 . S
C432 C429 1.363 . S
C432 N430 1.356 . S
C433 C427 1.363 . S
C433 C428 1.379 . S
C433 N431 1.356 . S
N434 C426 1.356 . S
N434 H440 0.984 . S
N434 H441 0.984 . S
N435 C428 1.356 . S
N435 H438 0.984 . S
N435 H439 0.985 . S
H436 N431 0.984 . S
H437 N431 0.985 . S
H438 N435 0.984 . S
H439 N435 0.985 . S
H440 N434 0.984 . S
H441 N434 0.984 . S
H442 N430 0.984 . S
H443 N430 0.985 . S
C444 C445 1.363 . S
C444 C450 1.379 1_455 S
C444 N452 1.356 . S
C445 C444 1.363 . S
C445 C451 1.363 . S
C446 C447 1.363 . S
C446 C451 1.379 1_655 S
C446 N453 1.356 . S
C447 C446 1.363 . S
C447 C450 1.363 . S
N448 C450 1.356 . S
N448 H460 0.984 1_556 S
N448 H461 0.985 . S
N449 C451 1.356 . S
N449 H454 0.984 . S
N449 H455 0.985 . S
C450 C444 1.379 1_655 S
C450 C447 1.363 . S
C450 N448 1.356 . S
C451 C445 1.363 . S
C451 C446 1.379 1_455 S
C451 N449 1.356 . S
N452 C444 1.356 . S
N452 H458 0.984 1_556 S
N452 H459 0.984 . S
N453 C446 1.356 . S
N453 H456 0.984 . S
N453 H457 0.985 . S
H454 N449 0.984 . S
H455 N449 0.985 . S
H456 N453 0.984 . S
H457 N453 0.985 . S
H458 N452 0.984 1_554 S
H459 N452 0.984 . S
H460 N448 0.984 1_554 S
H461 N448 0.985 . S
C462 C463 1.363 . S
C462 C468 1.379 1_565 S
C462 N470 1.356 . S
C463 C462 1.363 . S
C463 C469 1.363 . S
C464 C465 1.363 . S
C464 C469 1.379 1_545 S
C464 N471 1.356 . S
C465 C464 1.363 . S
C465 C468 1.363 . S
N466 C468 1.356 . S
N466 H478 0.984 . S
N466 H479 0.985 . S
N467 C469 1.356 . S
N467 H472 0.984 . S
N467 H473 0.985 . S
C468 C462 1.379 1_545 S
C468 C465 1.363 . S
C468 N466 1.356 . S
C469 C463 1.363 . S
C469 C464 1.379 1_565 S
C469 N467 1.356 . S
N470 C462 1.356 . S
N470 H476 0.984 . S
N470 H477 0.984 . S
N471 C464 1.356 . S
N471 H474 0.984 . S
N471 H475 0.985 . S
H472 N467 0.984 . S
H473 N467 0.985 . S
H474 N471 0.984 . S
H475 N471 0.985 . S
H476 N470 0.984 . S
H477 N470 0.984 . S
H478 N466 0.984 . S
H479 N466 0.985 . S
C480 C481 1.363 . S
C480 C486 1.379 . S
C480 N488 1.356 . S
C481 C480 1.363 . S
C481 C487 1.363 . S
C482 C483 1.363 . S
C482 C487 1.379 . S
C482 N489 1.356 . S
C483 C482 1.363 . S
C483 C486 1.363 . S
N484 C486 1.356 . S
N484 H496 0.984 . S
N484 H497 0.985 . S
N485 C487 1.356 . S
N485 H490 0.984 . S
N485 H491 0.985 . S
C486 C480 1.379 . S
C486 C483 1.363 . S
C486 N484 1.356 . S
C487 C481 1.363 . S
C487 C482 1.379 . S
C487 N485 1.356 . S
N488 C480 1.356 . S
N488 H494 0.984 . S
N488 H495 0.984 . S
N489 C482 1.356 . S
N489 H492 0.984 . S
N489 H493 0.985 . S
H490 N485 0.984 . S
H491 N485 0.985 . S
H492 N489 0.984 . S
H493 N489 0.985 . S
H494 N488 0.984 . S
H495 N488 0.984 . S
H496 N484 0.984 . S
H497 N484 0.985 . S
C498 C499 1.363 . S
C498 C504 1.379 . S
C498 N506 1.356 . S
C499 C498 1.363 . S
C499 C505 1.363 . S
C500 C501 1.363 . S
C500 C505 1.379 . S
C500 N507 1.356 . S
C501 C500 1.363 . S
C501 C504 1.363 . S
N502 C504 1.356 . S
N502 H514 0.984 . S
N502 H515 0.985 . S
N503 C505 1.356 . S
N503 H508 0.984 . S
N503 H509 0.985 . S
C504 C498 1.379 . S
C504 C501 1.363 . S
C504 N502 1.356 . S
C505 C499 1.363 . S
C505 C500 1.379 . S
C505 N503 1.356 . S
N506 C498 1.356 . S
N506 H512 0.984 . S
N506 H513 0.984 . S
N507 C500 1.356 . S
N507 H510 0.984 . S
N507 H511 0.985 . S
H508 N503 0.984 . S
H509 N503 0.985 . S
H510 N507 0.984 . S
H511 N507 0.985 . S
H512 N506 0.984 . S
H513 N506 0.984 . S
H514 N502 0.984 . S
H515 N502 0.985 . S
C516 C517 1.363 . S
C516 C522 1.379 . S
C516 N524 1.356 . S
C517 C516 1.363 . S
C517 C523 1.363 . S
C518 C519 1.363 . S
C518 C523 1.379 . S
C518 N525 1.356 . S
C519 C518 1.363 . S
C519 C522 1.363 . S
N520 C522 1.356 . S
N520 H532 0.984 . S
N520 H533 0.985 . S
N521 C523 1.356 . S
N521 H526 0.984 . S
N521 H527 0.985 . S
C522 C516 1.379 . S
C522 C519 1.363 . S
C522 N520 1.356 . S
C523 C517 1.363 . S
C523 C518 1.379 . S
C523 N521 1.356 . S
N524 C516 1.356 . S
N524 H530 0.984 . S
N524 H531 0.984 . S
N525 C518 1.356 . S
N525 H528 0.984 . S
N525 H529 0.985 . S
H526 N521 0.984 . S
H527 N521 0.985 . S
H528 N525 0.984 . S
H529 N525 0.985 . S
H530 N524 0.984 . S
H531 N524 0.984 . S
H532 N520 0.984 . S
H533 N520 0.985 . S
C534 C535 1.363 . S
C534 C540 1.379 . S
C534 N542 1.356 . S
C535 C534 1.363 . S
C535 C541 1.363 . S
C536 C537 1.363 . S
C536 C541 1.379 . S
C536 N543 1.356 . S
C537 C536 1.363 . S
C537 C540 1.363 . S
N538 C540 1.356 . S
N538 H550 0.984 . S
N538 H551 0.985 . S
N539 C541 1.356 . S
N539 H544 0.984 . S
N539 H545 0.985 . S
C540 C534 1.379 . S
C540 C537 1.363 . S
C540 N538 1.356 . S
C541 C535 1.363 . S
C541 C536 1.379 . S
C541 N539 1.356 . S
N542 C534 1.356 . S
N542 H548 0.984 . S
N542 H549 0.984 . S
N543 C536 1.356 . S
N543 H546 0.984 . S
N543 H547 0.985 . S
H544 N539 0.984 . S
H545 N539 0.985 . S
H546 N543 0.984 . S
H547 N543 0.985 . S
H548 N542 0.984 . S
H549 N542 0.984 . S
H550 N538 0.984 . S
H551 N538 0.985 . S
C552 C553 1.363 . S
C552 C558 1.379 . S
C552 N560 1.356 . S
C553 C552 1.363 . S
C553 C559 1.363 . S
C554 C555 1.363 . S
C554 C559 1.379 . S
C554 N561 1.356 . S
C555 C554 1.363 . S
C555 C558 1.363 . S
N556 C558 1.356 . S
N556 H568 0.984 . S
N556 H569 0.985 . S
N557 C559 1.356 . S
N557 H562 0.984 . S
N557 H563 0.985 . S
C558 C552 1.379 . S
C558 C555 1.363 . S
C558 N556 1.356 . S
C559 C553 1.363 . S
C559 C554 1.379 . S
C559 N557 1.356 . S
N560 C552 1.356 . S
N560 H566 0.984 . S
N560 H567 0.984 . S
N561 C554 1.356 . S
N561 H564 0.984 . S
N561 H565 0.985 . S
H562 N557 0.984 . S
H563 N557 0.985 . S
H564 N561 0.984 . S
H565 N561 0.985 . S
H566 N560 0.984 . S
H567 N560 0.984 . S
H568 N556 0.984 . S
H569 N556 0.985 . S
C570 C571 1.363 . S
C570 C576 1.379 . S
C570 N578 1.356 . S
C571 C570 1.363 . S
C571 C577 1.363 . S
C572 C573 1.363 . S
C572 C577 1.379 . S
C572 N579 1.356 . S
C573 C572 1.363 . S
C573 C576 1.363 . S
N574 C576 1.356 . S
N574 H586 0.984 . S
N574 H587 0.985 . S
N575 C577 1.356 . S
N575 H580 0.984 . S
N575 H581 0.985 . S
C576 C570 1.379 . S
C576 C573 1.363 . S
C576 N574 1.356 . S
C577 C571 1.363 . S
C577 C572 1.379 . S
C577 N575 1.356 . S
N578 C570 1.356 . S
N578 H584 0.984 . S
N578 H585 0.984 . S
N579 C572 1.356 . S
N579 H582 0.984 . S
N579 H583 0.985 . S
H580 N575 0.984 . S
H581 N575 0.985 . S
H582 N579 0.984 . S
H583 N579 0.985 . S
H584 N578 0.984 . S
H585 N578 0.984 . S
H586 N574 0.984 . S
H587 N574 0.985 . S
C157 C5 1.694 . S
C159 C83 1.694 . S
C175 C18 1.694 . S
C177 C96 1.694 . S
C193 C31 1.694 . S
C195 C109 1.694 . S
C211 C44 1.694 . S
C213 C122 1.694 . S
C229 C57 1.694 . S
C231 C135 1.694 . S
C247 C148 1.694 . S
C249 C70 1.694 . S
C265 C3 1.781 . S
C267 C133 1.781 . S
C283 C16 1.781 . S
C285 C146 1.781 . S
C301 C29 1.782 . S
C303 C81 1.782 . S
C319 C42 1.781 . S
C321 C94 1.781 . S
C337 C55 1.781 . S
C339 C107 1.781 . S
C355 C68 1.782 . S
C357 C120 1.782 . S
C373 C1 1.793 . S
C375 C40 1.793 . S
C391 C14 1.792 . S
C393 C53 1.792 . S
C409 C66 1.792 . S
C411 C27 1.792 . S
C427 C79 1.792 . S
C429 C118 1.792 . S
C445 C131 1.792 . S
C447 C92 1.792 . S
C463 C105 1.793 . S
C465 C144 1.793 . S
C481 C88 1.059 . S
C483 C10 1.059 . S
C499 C23 1.059 . S
C501 C101 1.059 . S
C517 C36 1.059 . S
C519 C114 1.059 . S
C535 C127 1.059 . S
C537 C49 1.059 . S
C553 C140 1.059 . S
C555 C62 1.059 . S
C571 C75 1.059 . S
C573 C153 1.059 . S
