# Generated by pormake.
# Topology umm, (4)-cn, num edge types: 1
# Building blocks:
#     Node 0, Type 0, BuildingBlock: ESEHIV_clean_sbu_0, # of connection points: 4
#     Node 1, Type 0, BuildingBlock: ESEHIV_clean_sbu_0, # of connection points: 4
#     Node 2, Type 0, BuildingBlock: ESEHIV_clean_sbu_0, # of connection points: 4
#     Node 3, Type 0, BuildingBlock: ESEHIV_clean_sbu_0, # of connection points: 4
#     Node 4, Type 0, BuildingBlock: ESEHIV_clean_sbu_0, # of connection points: 4
#     Node 5, Type 0, BuildingBlock: ESEHIV_clean_sbu_0, # of connection points: 4
#     Node 6, Type 0, BuildingBlock: ESEHIV_clean_sbu_0, # of connection points: 4
#     Node 7, Type 0, BuildingBlock: ESEHIV_clean_sbu_0, # of connection points: 4
#     Node 8, Type 0, BuildingBlock: ESEHIV_clean_sbu_0, # of connection points: 4
#     Node 9, Type 0, BuildingBlock: ESEHIV_clean_sbu_0, # of connection points: 4
#     Node 10, Type 0, BuildingBlock: ESEHIV_clean_sbu_0, # of connection points: 4
#     Node 11, Type 0, BuildingBlock: ESEHIV_clean_sbu_0, # of connection points: 4
#     Edge 12, Type (0, 0), BuildingBlock: XUDNAN_clean_linker_2, # of connection points: 2
#     Edge 13, Type (0, 0), BuildingBlock: XUDNAN_clean_linker_2, # of connection points: 2
#     Edge 14, Type (0, 0), BuildingBlock: XUDNAN_clean_linker_2, # of connection points: 2
#     Edge 15, Type (0, 0), BuildingBlock: XUDNAN_clean_linker_2, # of connection points: 2
#     Edge 16, Type (0, 0), BuildingBlock: XUDNAN_clean_linker_2, # of connection points: 2
#     Edge 17, Type (0, 0), BuildingBlock: XUDNAN_clean_linker_2, # of connection points: 2
#     Edge 18, Type (0, 0), BuildingBlock: XUDNAN_clean_linker_2, # of connection points: 2
#     Edge 19, Type (0, 0), BuildingBlock: XUDNAN_clean_linker_2, # of connection points: 2
#     Edge 20, Type (0, 0), BuildingBlock: XUDNAN_clean_linker_2, # of connection points: 2
#     Edge 21, Type (0, 0), BuildingBlock: XUDNAN_clean_linker_2, # of connection points: 2
#     Edge 22, Type (0, 0), BuildingBlock: XUDNAN_clean_linker_2, # of connection points: 2
#     Edge 23, Type (0, 0), BuildingBlock: XUDNAN_clean_linker_2, # of connection points: 2
#     Edge 24, Type (0, 0), BuildingBlock: XUDNAN_clean_linker_2, # of connection points: 2
#     Edge 25, Type (0, 0), BuildingBlock: XUDNAN_clean_linker_2, # of connection points: 2
#     Edge 26, Type (0, 0), BuildingBlock: XUDNAN_clean_linker_2, # of connection points: 2
#     Edge 27, Type (0, 0), BuildingBlock: XUDNAN_clean_linker_2, # of connection points: 2
#     Edge 28, Type (0, 0), BuildingBlock: XUDNAN_clean_linker_2, # of connection points: 2
#     Edge 29, Type (0, 0), BuildingBlock: XUDNAN_clean_linker_2, # of connection points: 2
#     Edge 30, Type (0, 0), BuildingBlock: XUDNAN_clean_linker_2, # of connection points: 2
#     Edge 31, Type (0, 0), BuildingBlock: XUDNAN_clean_linker_2, # of connection points: 2
#     Edge 32, Type (0, 0), BuildingBlock: XUDNAN_clean_linker_2, # of connection points: 2
#     Edge 33, Type (0, 0), BuildingBlock: XUDNAN_clean_linker_2, # of connection points: 2
#     Edge 34, Type (0, 0), BuildingBlock: XUDNAN_clean_linker_2, # of connection points: 2
#     Edge 35, Type (0, 0), BuildingBlock: XUDNAN_clean_linker_2, # of connection points: 2
# Relax obj value: 0.042
# Max RMSD: 0.104
# Mean RMSD: 0.104
data_MOF--net-umm--node1-ESEHIV_clean_sbu_0--edge1-XUDNAN_clean_linker_2
_symmetry_space_group_name_H-M    P1
_symmetry_Int_Tables_number       1
_symmetry_cell_setting            triclinic
loop_
_symmetry_equiv_pos_as_xyz
'x, y, z'
_cell_length_a     66.576403
_cell_length_b     66.628206
_cell_length_c     28.815942
_cell_angle_alpha  89.873986
_cell_angle_beta   90.035522
_cell_angle_gamma 119.88221
loop_
_atom_site_label
_atom_site_type_symbol
_atom_site_fract_x
_atom_site_fract_y
_atom_site_fract_z
_atom_type_partial_charge
Cu0 Cu 0.41357 0.55244 0.11178 0.0
N1 N 0.42377 0.53082 0.11388 0.0
N2 N 0.44788 0.51674 0.11908 0.0
C3 C 0.44491 0.53499 0.12738 0.0
C4 C 0.42801 0.50046 0.09962 0.0
C5 C 0.41305 0.50912 0.09683 0.0
O6 O 0.42317 0.57103 0.16882 0.0
C7 C 0.42052 0.55887 1.01687 0.0
O8 O 0.40723 0.53629 1.01914 0.0
H9 H 0.45819 0.55141 0.14108 0.0
H10 H 0.39592 0.50055 0.08169 0.0
N11 N 0.38128 0.53787 0.10704 0.0
N12 N 0.34632 0.53199 0.08617 0.0
C13 C 0.36951 0.54615 0.08332 0.0
C14 C 0.36505 0.51775 0.12572 0.0
C15 C 0.34347 0.51404 0.11282 0.0
C16 C 0.42239 0.56149 0.20782 0.0
O17 O 0.41547 0.53927 0.2089 0.0
H18 H 0.37793 0.56222 0.06397 0.0
H19 H 0.36867 0.50665 0.14738 0.0
O20 O 0.42598 0.57046 0.05457 0.0
H21 H 0.42476 0.48372 0.08759 0.0
H22 H 0.327 0.49948 0.12311 0.0
Cu23 Cu 0.87522 0.39935 0.43569 0.0
N24 N 0.90758 0.41323 0.43074 0.0
N25 N 0.9454 0.43926 0.4347 0.0
C26 C 0.92406 0.43259 0.45169 0.0
C27 C 0.94228 0.4234 0.40226 0.0
C28 C 0.91899 0.40731 0.40012 0.0
O29 O 0.86692 0.40483 0.4977 0.0
C30 C 0.87556 0.423 0.35196 0.0
O31 O 0.89794 0.43547 0.35926 0.0
H32 H 0.92046 0.4423 0.47703 0.0
H33 H 0.91077 0.39288 0.37638 0.0
N34 N 0.86208 0.36724 0.43136 0.0
N35 N 0.83587 0.32995 0.41997 0.0
C36 C 0.84129 0.35216 0.41302 0.0
C37 C 0.87014 0.35417 0.45032 0.0
C38 C 0.85402 0.33116 0.44338 0.0
C39 C 0.87227 0.42412 0.51661 0.0
O40 O 0.88285 0.44322 0.49192 0.0
H41 H 0.82995 0.35738 0.3967 0.0
H42 H 0.88632 0.36091 0.46899 0.0
O43 O 0.86275 0.4084 0.38278 0.0
H44 H 0.95581 0.42373 0.38088 0.0
H45 H 0.85545 0.31648 0.45509 0.0
Cu46 Cu 0.49079 0.87516 0.76586 0.0
N47 N 0.50887 0.90758 0.7642 0.0
N48 N 0.51809 0.94478 0.76664 0.0
C49 C 0.50299 0.92296 0.78042 0.0
C50 C 0.53401 0.9431 0.74058 0.0
C51 C 0.5283 0.92015 0.73921 0.0
O52 O 0.4715 0.8657 0.8219 0.0
C53 C 0.45889 0.84782 0.69173 0.0
O54 O 0.45058 0.82947 0.71868 0.0
H55 H 0.48733 0.91811 0.79995 0.0
H56 H 0.53709 0.91296 0.71966 0.0
N57 N 0.50937 0.86128 0.76727 0.0
N58 N 0.52061 0.83486 0.75942 0.0
C59 C 0.50542 0.8416 0.74589 0.0
C60 C 0.52782 0.86727 0.7948 0.0
C61 C 0.53474 0.85101 0.79016 0.0
C62 C 0.4808 0.87623 0.85968 0.0
O63 O 0.50253 0.89286 0.85938 0.0
H64 H 0.49105 0.83177 0.7227 0.0
H65 H 0.53518 0.88199 0.81794 0.0
O66 O 0.47415 0.8674 0.70729 0.0
H67 H 0.54847 0.9574 0.72312 0.0
H68 H 0.54878 0.85081 0.80873 0.0
Cu69 Cu 0.62733 0.47512 0.0992 0.0
N70 N 0.61417 0.49418 0.09523 0.0
N71 N 0.58844 0.50632 0.09971 0.0
C72 C 0.59505 0.49163 0.11682 0.0
C73 C 0.6038 0.51846 0.06602 0.0
C74 C 0.6197 0.51098 0.06345 0.0
O75 O 0.6177 0.45756 0.15745 0.0
C76 C 0.6218 0.44198 0.02631 0.0
O77 O 0.6343 0.43566 0.051 0.0
H78 H 0.58546 0.47849 0.14272 0.0
H79 H 0.63372 0.51663 0.03873 0.0
N80 N 0.65973 0.49352 0.09907 0.0
N81 N 0.69744 0.50518 0.09095 0.0
C82 C 0.6755 0.48849 0.08152 0.0
C83 C 0.67218 0.51419 0.11994 0.0
C84 C 0.69541 0.52139 0.11514 0.0
C85 C 0.61932 0.46879 0.19441 0.0
O86 O 0.62724 0.49117 0.19158 0.0
H87 H 0.67108 0.47266 0.06345 0.0
H88 H 0.66483 0.52322 0.13808 0.0
O89 O 0.61678 0.45669 0.04258 0.0
H90 H 0.60323 0.53144 0.04427 0.0
H91 H 0.70967 0.5373 0.12847 0.0
Cu92 Cu 0.16231 0.62175 0.43644 0.0
N93 N 0.13034 0.61078 0.43429 0.0
N94 N 0.09245 0.58478 0.43742 0.0
C95 C 0.11339 0.59258 0.45758 0.0
C96 C 0.09632 0.5986 0.40034 0.0
C97 C 0.11961 0.61445 0.39837 0.0
O98 O 0.17112 0.61695 0.49851 0.0
C99 C 0.18318 0.61164 0.35722 0.0
O100 O 0.20277 0.63056 0.36615 0.0
H101 H 0.11659 0.58381 0.4858 0.0
H102 H 0.12839 0.6263 0.37005 0.0
N103 N 0.17915 0.65367 0.42301 0.0
N104 N 0.20934 0.68849 0.40489 0.0
C105 C 0.20242 0.66696 0.42129 0.0
C106 C 0.17104 0.66757 0.4089 0.0
C107 C 0.18954 0.68895 0.39757 0.0
C108 C 0.16571 0.59756 0.51723 0.0
O109 O 0.15434 0.57851 0.4928 0.0
H110 H 0.21401 0.66067 0.43092 0.0
H111 H 0.15295 0.66244 0.40568 0.0
O112 O 0.16638 0.60459 0.38579 0.0
H113 H 0.08347 0.59639 0.37476 0.0
H114 H 0.18834 0.70329 0.38296 0.0
Cu115 Cu 0.5603 0.16164 0.7619 0.0
N116 N 0.53606 0.13083 0.76048 0.0
N117 N 0.51986 0.09224 0.76371 0.0
C118 C 0.53479 0.11261 0.78384 0.0
C119 C 0.5112 0.09776 0.72667 0.0
C120 C 0.52112 0.12151 0.72489 0.0
O121 O 0.57737 0.16665 0.82026 0.0
C122 C 0.58778 0.18148 0.67692 0.0
O123 O 0.59252 0.20222 0.69025 0.0
H124 H 0.54612 0.11422 0.8122 0.0
H125 H 0.5193 0.13141 0.69705 0.0
N126 N 0.54862 0.18213 0.7619 0.0
N127 N 0.53945 0.20908 0.74156 0.0
C128 C 0.54508 0.19328 0.72636 0.0
C129 C 0.5447 0.1909 0.8006 0.0
C130 C 0.53908 0.20747 0.78827 0.0
C131 C 0.58786 0.15591 0.8324 0.0
O132 O 0.59014 0.14244 0.80215 0.0
H133 H 0.54755 0.19059 0.69027 0.0
H134 H 0.54656 0.18608 0.83554 0.0
O135 O 0.57707 0.1643 0.70433 0.0
H136 H 0.49972 0.08558 0.70102 0.0
H137 H 0.53531 0.21774 0.81196 0.0
Cu138 Cu 0.48664 0.62621 0.60807 0.0
N139 N 0.51006 0.61843 0.61275 0.0
N140 N 0.5287 0.59821 0.61815 0.0
C141 C 0.50808 0.59724 0.61153 0.0
C142 C 0.54419 0.621 0.62293 0.0
C143 C 0.53269 0.63332 0.61966 0.0
O144 O 0.46929 0.6127 0.55047 0.0
C145 C 0.46145 0.59833 0.68778 0.0
O146 O 0.4631 0.58135 0.66867 0.0
H147 H 0.49176 0.58143 0.60679 0.0
H148 H 0.54026 0.65189 0.62254 0.0
N149 N 0.50015 0.65859 0.6053 0.0
N150 N 0.50948 0.69463 0.62582 0.0
C151 C 0.50063 0.67243 0.6399 0.0
C152 C 0.50924 0.67256 0.56817 0.0
C153 C 0.5149 0.69478 0.58066 0.0
C154 C 0.45924 0.62182 0.52831 0.0
O155 O 0.45789 0.63897 0.54755 0.0
H156 H 0.49387 0.66619 0.67432 0.0
H157 H 0.51102 0.66685 0.53408 0.0
O158 O 0.46861 0.61723 0.66558 0.0
H159 H 0.56262 0.62842 0.62838 0.0
H160 H 0.52238 0.70985 0.55827 0.0
Cu161 Cu 0.87176 0.46855 0.94276 0.0
N162 N 0.90206 0.49333 0.9454 0.0
N163 N 0.94071 0.51262 0.95046 0.0
C164 C 0.92146 0.49175 0.94514 0.0
C165 C 0.93304 0.52789 0.95406 0.0
C166 C 0.90919 0.51593 0.95088 0.0
O167 O 0.86855 0.45123 0.88546 0.0
C168 C 0.84802 0.43872 1.02077 0.0
O169 O 0.82874 0.43356 0.99881 0.0
H170 H 0.92136 0.47549 0.94264 0.0
H171 H 0.89781 0.52313 0.95318 0.0
N172 N 0.85051 0.47926 0.93997 0.0
N173 N 0.82374 0.48866 0.95989 0.0
C174 C 0.84034 0.4842 0.97524 0.0
C175 C 0.84017 0.48095 0.9012 0.0
C176 C 0.82372 0.48674 0.9133 0.0
C177 C 0.87686 0.46302 0.84827 0.0
O178 O 0.88768 0.48572 0.85097 0.0
H179 H 0.84424 0.48341 1.01145 0.0
H180 H 0.84374 0.47744 0.86651 0.0
O181 O 0.86738 0.45159 1.00087 0.0
H182 H 0.94386 0.54637 0.95884 0.0
H183 H 0.81239 0.48903 0.88963 0.0
Cu184 Cu 0.42035 0.86774 0.27584 0.0
N185 N 0.43351 0.89991 0.28239 0.0
N186 N 0.46011 0.93759 0.28153 0.0
C187 C 0.45389 0.91638 0.26465 0.0
C188 C 0.44297 0.93436 0.31091 0.0
C189 C 0.42657 0.91112 0.31128 0.0
O190 O 0.42844 0.86054 0.21518 0.0
C191 C 0.44541 0.8686 0.35743 0.0
O192 O 0.45862 0.89072 0.34827 0.0
H193 H 0.46454 0.91269 0.24181 0.0
H194 H 0.41115 0.90281 0.3326 0.0
N195 N 0.38808 0.8526 0.2805 0.0
N196 N 0.35225 0.82422 0.29792 0.0
C197 C 0.37509 0.83116 0.29808 0.0
C198 C 0.37304 0.85967 0.26875 0.0
C199 C 0.35088 0.84219 0.27954 0.0
C200 C 0.42819 0.87184 0.17958 0.0
O201 O 0.42266 0.88808 0.18456 0.0
H202 H 0.38245 0.82102 0.31135 0.0
H203 H 0.37783 0.8763 0.25344 0.0
O204 O 0.42987 0.85575 0.32836 0.0
H205 H 0.44255 0.94778 0.33127 0.0
H206 H 0.33504 0.8426 0.27363 0.0
Cu207 Cu 0.55677 0.40775 0.60883 0.0
N208 N 0.54003 0.42361 0.61354 0.0
N209 N 0.53278 0.45301 0.61837 0.0
C210 C 0.54924 0.44675 0.61681 0.0
C211 C 0.51242 0.43294 0.61614 0.0
C212 C 0.51693 0.41488 0.61331 0.0
O213 O 0.57469 0.4168 0.55082 0.0
C214 C 0.56642 0.41379 0.70346 0.0
O215 O 0.54483 0.40926 0.70399 0.0
H216 H 0.5677 0.45874 0.61714 0.0
H217 H 0.50424 0.39667 0.61127 0.0
N218 N 0.5373 0.3756 0.60639 0.0
N219 N 0.52591 0.33787 0.61235 0.0
C220 C 0.54128 0.35957 0.62641 0.0
C221 C 0.5188 0.36367 0.57878 0.0
C222 C 0.51169 0.34042 0.58249 0.0
C223 C 0.56726 0.42293 0.51575 0.0
O224 O 0.54815 0.42396 0.51962 0.0
H225 H 0.55595 0.36388 0.64875 0.0
H226 H 0.51163 0.37142 0.55598 0.0
O227 O 0.57585 0.41439 0.66455 0.0
H228 H 0.49544 0.43136 0.61716 0.0
H229 H 0.49746 0.32655 0.56378 0.0
Cu230 Cu 0.16124 0.5502 0.94081 0.0
N231 N 0.12917 0.53102 0.93555 0.0
N232 N 0.09177 0.52125 0.93956 0.0
C233 C 0.11399 0.53814 0.94555 0.0
C234 C 0.09312 0.50271 0.9248 0.0
C235 C 0.11623 0.50879 0.92241 0.0
O236 O 0.17194 0.56801 0.88312 0.0
C237 C 0.18145 0.5768 0.02478 0.0
O238 O 0.20105 0.57792 1.01322 0.0
H239 H 0.11934 0.55561 0.95652 0.0
H240 H 0.12307 0.49778 0.91196 0.0
N241 N 0.17646 0.53337 0.95167 0.0
N242 N 0.20589 0.52745 0.96992 0.0
C243 C 0.19953 0.54184 0.94983 0.0
C244 C 0.16777 0.51269 0.97285 0.0
C245 C 0.18579 0.50894 0.98391 0.0
C246 C 0.16773 0.55654 0.84547 0.0
O247 O 0.158 0.5339 0.84806 0.0
H248 H 0.21143 0.55892 0.93656 0.0
H249 H 0.14982 0.5019 0.98269 0.0
O250 O 0.16449 0.56818 0.99649 0.0
H251 H 0.07852 0.48586 0.91693 0.0
H252 H 0.18425 0.49447 1.00387 0.0
Cu253 Cu 0.62585 0.15735 0.26282 0.0
N254 N 0.6212 0.12795 0.27653 0.0
N255 N 0.60039 0.08932 0.28088 0.0
C256 C 0.60539 0.1083 0.2555 0.0
C257 C 0.61364 0.09729 0.3193 0.0
C258 C 0.62649 0.12114 0.31649 0.0
O259 O 0.61305 0.15413 0.20016 0.0
C260 C 0.61735 0.17981 0.34128 0.0
O261 O 0.63622 0.19911 0.33018 0.0
H262 H 0.596 0.10806 0.22463 0.0
H263 H 0.63729 0.13278 0.3435 0.0
N264 N 0.65761 0.17939 0.26195 0.0
N265 N 0.69352 0.20607 0.28325 0.0
C266 C 0.67251 0.18905 0.29771 0.0
C267 C 0.66982 0.19026 0.22372 0.0
C268 C 0.69186 0.20674 0.23668 0.0
C269 C 0.61409 0.16936 0.17182 0.0
O270 O 0.62254 0.19085 0.18569 0.0
H271 H 0.66777 0.18437 0.33367 0.0
H272 H 0.66303 0.18676 0.18877 0.0
O273 O 0.60949 0.16257 0.31372 0.0
H274 H 0.61304 0.08675 0.34848 0.0
H275 H 0.70557 0.21839 0.21357 0.0
H276 H 0.43335 0.54958 0.29148 0.0
H277 H 0.4246 0.60315 0.22464 0.0
H278 H 0.43205 0.62369 0.29969 0.0
H279 H 0.4067 0.54849 0.39994 0.0
H280 H 0.42696 0.54442 0.43453 0.0
H281 H 0.42093 0.53391 0.37576 0.0
H282 H 0.46465 0.55751 0.35595 0.0
H283 H 0.47084 0.56796 0.41476 0.0
H284 H 0.48039 0.58821 0.36709 0.0
H285 H 0.43872 0.63743 0.38299 0.0
H286 H 0.44795 0.64558 0.46604 0.0
H287 H 0.4544 0.58408 0.47844 0.0
C288 C 0.43304 0.56567 0.29255 0.0
C289 C 0.42826 0.5747 0.25209 0.0
C290 C 0.42826 0.59591 0.25502 0.0
C291 C 0.43237 0.60764 0.29758 0.0
C292 C 0.43675 0.59811 0.33686 0.0
C293 C 0.43744 0.57776 0.33458 0.0
C294 C 0.44315 0.57151 0.38162 0.0
C295 C 0.42325 0.5482 0.39898 0.0
C296 C 0.46612 0.57129 0.37973 0.0
C297 C 0.44539 0.59143 0.41092 0.0
C298 C 0.4414 0.60644 0.38446 0.0
C299 C 0.44202 0.62586 0.4039 0.0
C300 C 0.44718 0.63028 0.45132 0.0
C301 C 0.45195 0.61552 0.47905 0.0
C302 C 0.4509 0.59575 0.45834 0.0
H303 H 0.88826 0.46273 0.57211 0.0
H304 H 0.84878 0.38767 0.57675 0.0
H305 H 0.84532 0.38908 0.66189 0.0
H306 H 0.92049 0.47011 0.67544 0.0
H307 H 0.92024 0.49586 0.69353 0.0
H308 H 0.91865 0.48896 0.63278 0.0
H309 H 0.88066 0.49052 0.62523 0.0
H310 H 0.88223 0.4976 0.6859 0.0
H311 H 0.85663 0.47295 0.66309 0.0
H312 H 0.8472 0.3989 0.74813 0.0
H313 H 0.85359 0.41642 0.82645 0.0
H314 H 0.89217 0.48477 0.76446 0.0
C315 C 0.87863 0.44657 0.59086 0.0
C316 C 0.8687 0.42508 0.56745 0.0
C317 C 0.8565 0.40437 0.59368 0.0
C318 C 0.85445 0.40499 0.64217 0.0
C319 C 0.86473 0.42644 0.6642 0.0
C320 C 0.87651 0.44686 0.6393 0.0
C321 C 0.88643 0.46765 0.67125 0.0
C322 C 0.91303 0.48145 0.66805 0.0
C323 C 0.87585 0.48309 0.66074 0.0
C324 C 0.87847 0.45579 0.71798 0.0
C325 C 0.86595 0.43202 0.71337 0.0
C326 C 0.85695 0.41752 0.75205 0.0
C327 C 0.86071 0.42761 0.79645 0.0
C328 C 0.8734 0.45197 0.80185 0.0
C329 C 0.8824 0.46608 0.76183 0.0
H330 H 0.48239 0.90591 0.92574 0.0
H331 H 0.45111 0.83286 0.89433 0.0
H332 H 0.43439 0.82326 0.97381 0.0
H333 H 0.4975 0.90408 0.04192 0.0
H334 H 0.4902 0.92518 0.0625 0.0
H335 H 0.49903 0.92608 1.00315 0.0
H336 H 0.46107 0.92381 0.97436 0.0
H337 H 0.45226 0.92325 0.03366 0.0
H338 H 0.43359 0.90057 0.99431 0.0
H339 H 0.42466 0.82232 0.06062 0.0
H340 H 0.41733 0.82983 0.14154 0.0
H341 H 0.45211 0.90338 0.11208 0.0
C342 C 0.47175 0.88788 0.93545 0.0
C343 C 0.46802 0.87008 0.90416 0.0
C344 C 0.45396 0.8467 0.91782 0.0
C345 C 0.44458 0.84114 0.96295 0.0
C346 C 0.44904 0.85918 0.99344 0.0
C347 C 0.46182 0.88208 0.97972 0.0
C348 C 0.46369 0.89832 1.01829 0.0
C349 C 0.48912 0.91435 0.03227 0.0
C350 C 0.45195 0.9123 1.00432 0.0
C351 C 0.45036 0.88108 0.05633 0.0
C352 C 0.44229 0.85858 0.04175 0.0
C353 C 0.43059 0.83986 0.07205 0.0
C354 C 0.42665 0.84426 0.11798 0.0
C355 C 0.434 0.86714 0.13277 0.0
C356 C 0.44605 0.88569 0.10147 0.0
H357 H 0.59908 0.47969 0.26404 0.0
H358 H 0.62363 0.43244 0.22852 0.0
H359 H 0.6148 0.41642 0.30867 0.0
H360 H 0.61974 0.49188 0.38001 0.0
H361 H 0.59459 0.49216 0.40227 0.0
H362 H 0.60308 0.49982 0.34264 0.0
H363 H 0.56237 0.46826 0.31523 0.0
H364 H 0.55364 0.46072 0.37478 0.0
H365 H 0.55099 0.43882 0.33465 0.0
H366 H 0.60523 0.40757 0.39585 0.0
H367 H 0.59039 0.40254 0.47663 0.0
H368 H 0.56964 0.45374 0.45101 0.0
C369 C 0.60253 0.4659 0.27308 0.0
C370 C 0.61218 0.45737 0.24034 0.0
C371 C 0.61615 0.43912 0.25317 0.0
C372 C 0.61135 0.43008 0.29866 0.0
C373 C 0.60219 0.43921 0.33046 0.0
C374 C 0.59737 0.45639 0.31774 0.0
C375 C 0.58659 0.46264 0.3573 0.0
C376 C 0.60192 0.48814 0.37137 0.0
C377 C 0.56194 0.45728 0.34473 0.0
C378 C 0.58625 0.4465 0.39465 0.0
C379 C 0.59563 0.43333 0.37897 0.0
C380 C 0.59767 0.41767 0.40821 0.0
C381 C 0.58939 0.41504 0.45411 0.0
C382 C 0.57884 0.42771 0.46992 0.0
C383 C 0.57752 0.44374 0.43977 0.0
H384 H 0.15433 0.55884 0.57022 0.0
H385 H 0.18769 0.63372 0.57835 0.0
H386 H 0.19346 0.63177 0.66257 0.0
H387 H 0.12375 0.54691 0.67641 0.0
H388 H 0.12732 0.5226 0.69141 0.0
H389 H 0.12705 0.53002 0.6314 0.0
H390 H 0.16703 0.53305 0.61904 0.0
H391 H 0.16739 0.52558 0.67904 0.0
H392 H 0.19101 0.55191 0.65572 0.0
H393 H 0.19363 0.62132 0.7477 0.0
H394 H 0.1887 0.60319 0.82515 0.0
H395 H 0.15575 0.53541 0.76053 0.0
C396 C 0.1631 0.57488 0.58951 0.0
C397 C 0.17059 0.59644 0.56738 0.0
C398 C 0.18183 0.61696 0.59427 0.0
C399 C 0.18519 0.61605 0.64225 0.0
C400 C 0.17734 0.59448 0.66303 0.0
C401 C 0.16664 0.57428 0.63741 0.0
C402 C 0.15921 0.55327 0.66821 0.0
C403 C 0.13277 0.53727 0.66677 0.0
C404 C 0.17192 0.54019 0.65469 0.0
C405 C 0.16712 0.56475 0.7152 0.0
C406 C 0.1776 0.58854 0.71161 0.0
C407 C 0.18561 0.6027 0.75079 0.0
C408 C 0.18273 0.59226 0.79469 0.0
C409 C 0.17195 0.56788 0.79912 0.0
C410 C 0.16425 0.5541 0.75856 0.0
H411 H 0.60774 0.19413 0.10121 0.0
H412 H 0.60944 0.13086 0.12854 0.0
H413 H 0.60441 0.12167 0.04521 0.0
H414 H 0.56319 0.16928 1.01148 0.0
H415 H 0.5758 0.19527 0.97678 0.0
H416 H 0.57977 0.19716 0.03879 0.0
H417 H 0.62423 0.22046 0.02718 0.0
H418 H 0.62041 0.21844 0.96513 0.0
H419 H 0.63813 0.20837 0.99249 0.0
H420 H 0.60135 0.1201 0.95861 0.0
H421 H 0.59543 0.1237 0.87525 0.0
H422 H 0.59304 0.18654 0.90258 0.0
C423 C 0.60691 0.17828 0.08967 0.0
C424 C 0.60906 0.16328 0.12173 0.0
C425 C 0.60776 0.14265 0.10502 0.0
C426 C 0.60503 0.1373 0.05756 0.0
C427 C 0.6033 0.15255 0.02691 0.0
C428 C 0.60377 0.17242 0.04223 0.0
C429 C 0.60076 0.18541 1.00178 0.0
C430 C 0.57856 0.18686 1.00756 0.0
C431 C 0.62216 0.2096 0.99634 0.0
C432 C 0.59868 0.16979 0.96146 0.0
C433 C 0.60052 0.15111 0.97682 0.0
C434 C 0.59971 0.13456 0.94621 0.0
C435 C 0.59649 0.13685 0.89877 0.0
C436 C 0.59375 0.15539 0.88213 0.0
C437 C 0.59503 0.17214 0.91411 0.0
H438 H 0.30169 0.49925 0.06535 0.0
H439 H 0.35014 0.5732 0.06145 0.0
H440 H 0.31993 0.57972 0.02751 0.0
H441 H 0.27197 0.49628 0.95779 0.0
H442 H 0.24389 0.4751 0.97956 0.0
H443 H 0.2696 0.47602 1.002 0.0
H444 H 0.25783 0.48026 0.08552 0.0
H445 H 0.23207 0.47931 0.06335 0.0
H446 H 0.2521 0.50342 0.09839 0.0
H447 H 0.2841 0.57852 0.99673 0.0
H448 H 0.24526 0.56985 0.97239 0.0
H449 H 0.21976 0.49653 0.99507 0.0
C450 C 0.30598 0.51683 0.05752 0.0
C451 C 0.32849 0.53568 0.06599 0.0
C452 C 0.33327 0.55839 0.05471 0.0
C453 C 0.31615 0.5623 0.03556 0.0
C454 C 0.29422 0.54336 0.0277 0.0
C455 C 0.28907 0.52107 0.03829 0.0
C456 C 0.26396 0.50382 0.02721 0.0
C457 C 0.26227 0.4868 0.98938 0.0
C458 C 0.25071 0.49095 0.07124 0.0
C459 C 0.25576 0.51996 1.00933 0.0
C460 C 0.27353 0.54267 1.00972 0.0
C461 C 0.27008 0.56076 0.99589 0.0
C462 C 0.24784 0.55558 0.98173 0.0
C463 C 0.22914 0.53242 0.9814 0.0
C464 C 0.23343 0.51443 0.99504 0.0
H465 H 0.80869 0.32363 0.34461 0.0
H466 H 0.81477 0.28934 0.46745 0.0
H467 H 0.77839 0.25389 0.44669 0.0
H468 H 0.74634 0.298 0.34681 0.0
H469 H 0.74341 0.29522 0.28462 0.0
H470 H 0.76962 0.31803 0.30987 0.0
H471 H 0.79372 0.30391 0.26408 0.0
H472 H 0.76759 0.28105 0.23872 0.0
H473 H 0.78696 0.27424 0.26978 0.0
H474 H 0.74078 0.22214 0.41272 0.0
H475 H 0.70635 0.19611 0.36579 0.0
H476 H 0.72543 0.2509 0.26447 0.0
C477 C 0.80226 0.30872 0.36729 0.0
C478 C 0.81459 0.30928 0.4077 0.0
C479 C 0.80577 0.28925 0.43611 0.0
C480 C 0.78503 0.26908 0.42475 0.0
C481 C 0.77333 0.26909 0.38463 0.0
C482 C 0.78171 0.28835 0.35618 0.0
C483 C 0.76621 0.28363 0.3143 0.0
C484 C 0.75577 0.29967 0.3139 0.0
C485 C 0.77941 0.28584 0.26905 0.0
C486 C 0.74782 0.25872 0.32361 0.0
C487 C 0.7521 0.25069 0.36454 0.0
C488 C 0.7373 0.22825 0.38054 0.0
C489 C 0.71774 0.21361 0.35381 0.0
C490 C 0.71326 0.22136 0.31131 0.0
C491 C 0.72855 0.24429 0.29637 0.0
H492 H 0.50992 0.81287 0.67575 0.0
H493 H 0.53038 0.80861 0.81663 0.0
H494 H 0.52943 0.77201 0.79768 0.0
H495 H 0.47111 0.75169 0.65863 0.0
H496 H 0.4795 0.75185 0.59911 0.0
H497 H 0.48135 0.77751 0.6239 0.0
H498 H 0.52475 0.80098 0.6015 0.0
H499 H 0.52305 0.77539 0.57666 0.0
H500 H 0.54422 0.79123 0.62092 0.0
H501 H 0.52508 0.7352 0.76425 0.0
H502 H 0.52029 0.70213 0.71704 0.0
H503 H 0.50446 0.73086 0.59661 0.0
C504 C 0.5141 0.80414 0.70255 0.0
C505 C 0.52024 0.8136 0.74771 0.0
C506 C 0.52588 0.80182 0.78174 0.0
C507 C 0.52525 0.78095 0.77136 0.0
C508 C 0.51919 0.77211 0.72656 0.0
C509 C 0.51393 0.78341 0.69253 0.0
C510 C 0.50865 0.77048 0.64678 0.0
C511 C 0.48367 0.76241 0.6312 0.0
C512 C 0.52622 0.78541 0.60925 0.0
C513 C 0.51165 0.75011 0.6605 0.0
C514 C 0.51752 0.75129 0.70682 0.0
C515 C 0.52062 0.73416 0.72787 0.0
C516 C 0.51776 0.71539 0.70088 0.0
C517 C 0.51214 0.71397 0.65315 0.0
C518 C 0.50909 0.73165 0.63284 0.0
H519 H 0.70533 0.48592 1.01505 0.0
H520 H 0.73737 0.52435 0.14068 0.0
H521 H 0.77336 0.52394 0.12145 0.0
H522 H 0.73094 0.44934 1.01775 0.0
H523 H 0.73475 0.45 0.95574 0.0
H524 H 0.71152 0.45315 0.97986 0.0
H525 H 0.72641 0.4919 0.9356 0.0
H526 H 0.74969 0.48889 0.91136 0.0
H527 H 0.756 0.51462 0.94326 0.0
H528 H 0.80577 0.51853 0.08883 0.0
H529 H 0.83251 0.5105 0.04315 0.0
H530 H 0.77928 0.47628 0.93858 0.0
C531 C 0.71986 0.4941 0.03867 0.0
C532 C 0.71851 0.50513 0.07943 0.0
C533 C 0.73807 0.51599 0.10905 0.0
C534 C 0.75854 0.51572 0.09855 0.0
C535 C 0.75926 0.50466 0.05811 0.0
C536 C 0.74047 0.49418 0.02849 0.0
C537 C 0.74587 0.48395 0.98668 0.0
C538 C 0.72982 0.45754 0.98493 0.0
C539 C 0.74441 0.49554 0.94157 0.0
C540 C 0.7706 0.49026 0.9974 0.0
C541 C 0.778 0.50205 0.03891 0.0
C542 C 0.80017 0.50937 0.0562 0.0
C543 C 0.8152 0.50465 0.03019 0.0
C544 C 0.80808 0.49294 0.98716 0.0
C545 C 0.78541 0.48562 0.97091 0.0
H546 H 0.22554 0.73479 0.39141 0.0
H547 H 0.24623 0.68241 0.3876 0.0
H548 H 0.28509 0.71175 0.36162 0.0
H549 H 0.25566 0.76448 0.28845 0.0
H550 H 0.26397 0.79293 0.31016 0.0
H551 H 0.23793 0.76811 0.33111 0.0
H552 H 0.25272 0.77854 0.41565 0.0
H553 H 0.27877 0.80346 0.39498 0.0
H554 H 0.28065 0.78223 0.43074 0.0
H555 H 0.32127 0.74621 0.33274 0.0
H556 H 0.35262 0.78368 0.30472 0.0
H557 H 0.30895 0.81418 0.32649 0.0
C558 C 0.23818 0.72942 0.38521 0.0
C559 C 0.23259 0.70611 0.39202 0.0
C560 C 0.24992 0.70007 0.38367 0.0
C561 C 0.27212 0.71664 0.36848 0.0
C562 C 0.27688 0.73929 0.36167 0.0
C563 C 0.26046 0.74575 0.36989 0.0
C564 C 0.27001 0.77122 0.35892 0.0
C565 C 0.25606 0.77436 0.31983 0.0
C566 C 0.27057 0.78466 0.40268 0.0
C567 C 0.29429 0.77798 0.34291 0.0
C568 C 0.29785 0.75927 0.3449 0.0
C569 C 0.31875 0.76105 0.33142 0.0
C570 C 0.33655 0.78253 0.31575 0.0
C571 C 0.3335 0.80213 0.31363 0.0
C572 C 0.31193 0.79963 0.32733 0.0
H573 H 0.54884 0.25219 0.7676 0.0
H574 H 0.52266 0.20333 0.65362 0.0
H575 H 0.51632 0.23115 0.60772 0.0
H576 H 0.5094 0.27384 0.75517 0.0
H577 H 0.53071 0.30323 0.76942 0.0
H578 H 0.53325 0.27952 0.79293 0.0
H579 H 0.57461 0.29718 0.75865 0.0
H580 H 0.5722 0.32094 0.73503 0.0
H581 H 0.57905 0.30358 0.69746 0.0
H582 H 0.51183 0.26409 0.57527 0.0
H583 H 0.51132 0.30006 0.55721 0.0
H584 H 0.5409 0.32761 0.69227 0.0
C585 C 0.5416 0.24722 0.73313 0.0
C586 C 0.53609 0.22543 0.71434 0.0
C587 C 0.52712 0.21991 0.66866 0.0
C588 C 0.52337 0.23557 0.64244 0.0
C589 C 0.52886 0.25681 0.66221 0.0
C590 C 0.53794 0.2627 0.70642 0.0
C591 C 0.54269 0.28673 0.71946 0.0
C592 C 0.52814 0.28576 0.76175 0.0
C593 C 0.56868 0.30307 0.72815 0.0
C594 C 0.53471 0.29342 0.6758 0.0
C595 C 0.5267 0.27589 0.64327 0.0
C596 C 0.51809 0.27792 0.6005 0.0
C597 C 0.51773 0.2984 0.59067 0.0
C598 C 0.52602 0.31672 0.62331 0.0
C599 C 0.53465 0.31407 0.66641 0.0
H600 H 0.47253 0.50993 0.05302 0.0
H601 H 0.47006 0.52149 0.20001 0.0
H602 H 0.50566 0.51887 0.21209 0.0
H603 H 0.49436 0.47024 0.05958 0.0
H604 H 0.51321 0.48232 1.01005 0.0
H605 H 0.48705 0.48395 1.01378 0.0
H606 H 0.51094 0.52852 1.00407 0.0
H607 H 0.53716 0.52701 1.00021 0.0
H608 H 0.53463 0.54527 0.04315 0.0
H609 H 0.54058 0.51304 0.20773 0.0
H610 H 0.57478 0.50943 0.18624 0.0
H611 H 0.55643 0.50572 0.04117 0.0
C612 C 0.47953 0.51176 0.08766 0.0
C613 C 0.46864 0.5156 0.12582 0.0
C614 C 0.4783 0.51843 0.17063 0.0
C615 C 0.49839 0.51689 0.17769 0.0
C616 C 0.50877 0.51301 0.1393 0.0
C617 C 0.49988 0.5109 0.09503 0.0
C618 C 0.51502 0.50816 0.0593 0.0
C619 C 0.50161 0.48477 0.03421 0.0
C620 C 0.52503 0.52845 0.02465 0.0
C621 C 0.53373 0.50889 0.09033 0.0
C622 C 0.52963 0.5113 0.13646 0.0
C623 C 0.54409 0.51142 0.17168 0.0
C624 C 0.56336 0.50929 0.15932 0.0
C625 C 0.56822 0.5076 0.11219 0.0
C626 C 0.55319 0.50737 0.07739 0.0
H627 H 0.97861 0.46716 0.37365 0.0
H628 H 0.95996 0.45911 0.51919 0.0
H629 H 0.99654 0.49533 0.53699 0.0
H630 H 0.04025 0.49105 0.38778 0.0
H631 H 0.04755 0.51102 0.34003 0.0
H632 H 1.02055 0.48404 0.33969 0.0
H633 H 0.99817 0.50633 0.32924 0.0
H634 H 0.0251 0.53337 0.32957 0.0
H635 H 1.00256 0.52856 0.37024 0.0
H636 H 0.03627 0.53232 0.53831 0.0
H637 H 0.07339 0.5684 0.52197 0.0
H638 H 0.06407 0.55292 0.37507 0.0
C639 C 0.98238 0.4729 0.40932 0.0
C640 C 0.96666 0.46024 0.44521 0.0
C641 C 0.97186 0.46859 0.49131 0.0
C642 C 0.9926 0.48906 0.50168 0.0
C643 C 1.00778 0.50114 0.4654 0.0
C644 C 1.00273 0.49346 0.42006 0.0
C645 C 0.02124 0.5101 0.38698 0.0
C646 C 0.0331 0.49835 0.36217 0.0
C647 C 1.01116 0.52019 0.35196 0.0
C648 C 0.03757 0.52836 0.42068 0.0
C649 C 0.02974 0.5228 0.46587 0.0
C650 C 0.04242 0.5369 0.503 0.0
C651 C 0.06346 0.55727 0.49353 0.0
C652 C 0.07134 0.56353 0.44733 0.0
C653 C 0.05821 0.54876 0.41065 0.0
H654 H 0.52421 0.06399 0.70224 0.0
H655 H 0.51185 0.07099 0.84714 0.0
H656 H 0.50886 0.03298 0.86399 0.0
H657 H 0.4869 1.00212 0.69185 0.0
H658 H 0.50663 0.99845 0.65479 0.0
H659 H 0.50641 0.02537 0.65423 0.0
H660 H 0.55031 0.04762 0.67284 0.0
H661 H 0.55067 0.02078 0.67351 0.0
H662 H 0.56083 0.03963 0.72324 0.0
H663 H 0.50594 0.99328 0.86364 0.0
H664 H 0.50747 0.95744 0.84802 0.0
H665 H 0.52523 0.9784 0.70468 0.0
C666 C 0.52058 0.05731 0.73736 0.0
C667 C 0.51781 0.07008 0.77339 0.0
C668 C 0.5138 0.06125 0.8192 0.0
C669 C 0.51204 0.03973 0.82893 0.0
C670 C 0.51483 0.02751 0.79255 0.0
C671 C 0.51936 0.03617 0.74779 0.0
C672 C 0.52303 0.02039 0.71539 0.0
C673 C 0.50464 1.01103 0.67679 0.0
C674 C 0.54768 0.03285 0.69506 0.0
C675 C 0.51971 1.00136 0.74875 0.0
C676 C 0.51466 1.00558 0.79297 0.0
C677 C 0.5101 0.98995 0.82923 0.0
C678 C 0.51092 0.96964 0.8201 0.0
C679 C 0.5167 0.96535 0.77536 0.0
C680 C 0.52113 0.98147 0.73936 0.0
H681 H 0.50153 0.55356 0.58734 0.0
H682 H 0.56618 0.59893 0.65818 0.0
H683 H 0.57427 0.5669 0.66452 0.0
H684 H 0.48679 0.5029 0.65669 0.0
H685 H 0.47455 0.48302 0.60886 0.0
H686 H 0.47391 0.50974 0.60856 0.0
H687 H 0.49487 0.52054 0.52906 0.0
H688 H 0.49557 0.49386 0.52911 0.0
H689 H 0.52208 0.52109 0.5228 0.0
H690 H 0.57559 0.52995 0.66382 0.0
H691 H 0.56953 0.49042 0.65716 0.0
H692 H 0.50383 0.46841 0.58823 0.0
C693 C 0.51734 0.55683 0.60441 0.0
C694 C 0.53326 0.5791 0.62184 0.0
C695 C 0.55382 0.58237 0.64362 0.0
C696 C 0.55855 0.56415 0.64773 0.0
C697 C 0.54256 0.54256 0.63014 0.0
C698 C 0.52233 0.53875 0.60901 0.0
C699 C 0.50798 0.51373 0.59349 0.0
C700 C 0.48441 0.50164 0.6184 0.0
C701 C 0.50496 0.51223 0.54047 0.0
C702 C 0.52329 0.50413 0.60933 0.0
C703 C 0.5432 0.5211 0.63023 0.0
C704 C 0.56008 0.51652 0.64743 0.0
C705 C 0.55654 0.49399 0.64323 0.0
C706 C 0.53623 0.47619 0.62211 0.0
C707 C 0.51942 0.48148 0.60501 0.0
H708 H 0.04837 0.49395 0.90335 0.0
H709 H 0.0881 0.55233 0.99493 0.0
H710 H 0.05383 0.5565 1.00666 0.0
H711 H 1.01458 0.51576 0.8498 0.0
H712 H 0.98831 0.48809 0.84769 0.0
H713 H 1.01603 0.4895 0.8461 0.0
H714 H 1.00444 0.46221 0.91741 0.0
H715 H 0.97665 0.46065 0.91912 0.0
H716 H 0.99494 0.46974 0.96979 0.0
H717 H 1.01562 0.55513 1.0075 0.0
H718 H 0.97535 0.54706 0.99992 0.0
H719 H 0.95967 0.48894 0.90992 0.0
C720 C 0.04987 0.50748 0.92622 0.0
C721 C 0.07122 0.52296 0.94771 0.0
C722 C 0.07227 0.54053 0.97712 0.0
C723 C 0.05278 0.54297 0.98434 0.0
C724 C 0.03218 0.52763 0.96225 0.0
C725 C 0.0305 0.51011 0.93406 0.0
C726 C 1.00617 0.4959 0.91468 0.0
C727 C 1.00629 0.49741 0.86141 0.0
C728 C 0.99489 0.47063 0.93125 0.0
C729 C 0.99453 0.50824 0.93632 0.0
C730 C 1.00991 0.52655 0.96347 0.0
C731 C 1.00339 0.54081 0.9864 0.0
C732 C 0.98051 0.53618 0.98163 0.0
C733 C 0.96431 0.51738 0.95433 0.0
C734 C 0.97154 0.50326 0.93145 0.0
H735 H 0.4854 0.97186 0.34314 0.0
H736 H 0.4831 0.9513 0.19981 0.0
H737 H 0.51957 0.98786 0.18403 0.0
H738 H 0.50803 0.03254 0.32285 0.0
H739 H 0.52638 0.0415 0.37345 0.0
H740 H 0.50009 0.01387 0.37298 0.0
H741 H 0.52356 0.99352 0.39292 0.0
H742 H 0.54994 0.0211 0.39326 0.0
H743 H 0.54746 0.99818 0.35631 0.0
H744 H 0.55529 0.02777 0.18331 0.0
H745 H 0.58878 0.06676 0.19893 0.0
H746 H 0.56902 0.06007 0.34372 0.0
C747 C 0.49253 0.97516 0.3084 0.0
C748 C 0.48137 0.95886 0.27253 0.0
C749 C 0.49144 0.96355 0.22772 0.0
C750 C 0.51208 0.98427 0.21847 0.0
C751 C 0.52265 0.99999 0.25461 0.0
C752 C 0.51332 0.99556 0.29881 0.0
C753 C 0.52833 0.01507 0.33176 0.0
C754 C 0.5149 0.02641 0.3514 0.0
C755 C 0.53789 1.00645 0.37087 0.0
C756 C 0.54743 0.0313 0.29914 0.0
C757 C 0.54375 0.02238 0.25469 0.0
C758 C 0.55849 0.03478 0.2181 0.0
C759 C 0.5774 0.05686 0.22718 0.0
C760 C 0.58164 0.06618 0.27255 0.0
C761 C 0.56649 0.0531 0.30895 0.0
H762 H 0.44309 0.56007 0.74471 0.0
H763 H 0.46444 0.63316 0.74346 0.0
H764 H 0.45659 0.63144 0.8276 0.0
H765 H 0.39631 0.54269 0.82853 0.0
H766 H 0.40177 0.52142 0.85539 0.0
H767 H 0.4084 0.52846 0.79491 0.0
H768 H 0.4507 0.53824 0.80998 0.0
H769 H 0.44427 0.53146 0.87058 0.0
H770 H 0.46766 0.55943 0.85339 0.0
H771 H 0.44856 0.62202 0.91411 0.0
H772 H 0.43777 0.60476 0.99294 0.0
H773 H 0.42078 0.53793 0.93592 0.0
C774 C 0.44587 0.57568 0.76193 0.0
C775 C 0.45438 0.59674 0.73726 0.0
C776 C 0.45781 0.61676 0.76138 0.0
C777 C 0.4535 0.61599 0.80931 0.0
C778 C 0.44556 0.59504 0.83273 0.0
C779 C 0.44149 0.57519 0.80963 0.0
C780 C 0.43298 0.55484 0.84264 0.0
C781 C 0.4084 0.53573 0.82959 0.0
C782 C 0.44992 0.54545 0.84423 0.0
C783 C 0.43305 0.56635 0.88797 0.0
C784 C 0.44049 0.58957 0.88179 0.0
C785 C 0.44253 0.60379 0.91921 0.0
C786 C 0.43648 0.5939 0.9639 0.0
C787 C 0.42831 0.57 0.97064 0.0
C788 C 0.42675 0.55622 0.93199 0.0
H789 H 0.89979 0.44739 0.2751 0.0
H790 H 0.83011 0.39921 0.32252 0.0
H791 H 0.81539 0.39757 0.24288 0.0
H792 H 0.88438 0.47868 0.19249 0.0
H793 H 0.90614 0.48192 0.15124 0.0
H794 H 0.91071 0.48004 0.21233 0.0
H795 H 0.91737 0.44552 0.19652 0.0
H796 H 0.91256 0.44713 0.13546 0.0
H797 H 0.89541 0.42039 0.1666 0.0
H798 H 0.80854 0.40073 0.15664 0.0
H799 H 0.81001 0.40909 0.07266 0.0
H800 H 0.88447 0.45424 0.08206 0.0
C801 C 0.88136 0.4367 0.26907 0.0
C802 C 0.8661 0.42354 0.30539 0.0
C803 C 0.84216 0.40958 0.29551 0.0
C804 C 0.83364 0.40848 0.25028 0.0
C805 C 0.84928 0.42136 0.21518 0.0
C806 C 0.87263 0.43528 0.22419 0.0
C807 C 0.88596 0.44701 0.18035 0.0
C808 C 0.89747 0.47348 0.18435 0.0
C809 C 0.90388 0.43956 0.16908 0.0
C810 C 0.86649 0.43752 0.1451 0.0
C811 C 0.84544 0.4228 0.16581 0.0
C812 C 0.82496 0.41221 0.14016 0.0
C813 C 0.82598 0.41702 0.09238 0.0
C814 C 0.84736 0.43221 0.07047 0.0
C815 C 0.86786 0.44236 0.09743 0.0
H816 H 0.47641 0.88215 0.62619 0.0
H817 H 0.42807 0.80871 0.64347 0.0
H818 H 0.42026 0.80536 0.55893 0.0
H819 H 0.44452 0.89294 0.53871 0.0
H820 H 0.47022 0.91344 0.50792 0.0
H821 H 0.47139 0.90972 0.56956 0.0
H822 H 0.50481 0.90091 0.55737 0.0
H823 H 0.50356 0.90434 0.49562 0.0
H824 H 0.50065 0.87787 0.51881 0.0
H825 H 0.41785 0.81052 0.47132 0.0
H826 H 0.42011 0.82387 0.39024 0.0
H827 H 0.47105 0.89357 0.43202 0.0
C828 C 0.46403 0.86533 0.61246 0.0
C829 C 0.45278 0.84569 0.64167 0.0
C830 C 0.43684 0.82404 0.62192 0.0
C831 C 0.43236 0.82195 0.57389 0.0
C832 C 0.44404 0.84166 0.54608 0.0
C833 C 0.4595 0.86293 0.56483 0.0
C834 C 0.4699 0.88152 0.52785 0.0
C835 C 0.46362 0.90052 0.53653 0.0
C836 C 0.49629 0.89175 0.52474 0.0
C837 C 0.45786 0.86747 0.48518 0.0
C838 C 0.443 0.84451 0.49622 0.0
C839 C 0.42953 0.82845 0.46236 0.0
C840 C 0.431 0.83618 0.41634 0.0
C841 C 0.44589 0.85975 0.40454 0.0
C842 C 0.45969 0.87539 0.43956 0.0
H843 H 0.55708 0.42775 0.78542 0.0
H844 H 0.60361 0.4077 0.72257 0.0
H845 H 0.62207 0.41112 0.79923 0.0
H846 H 0.59932 0.47046 0.86278 0.0
H847 H 0.57858 0.46403 0.90868 0.0
H848 H 0.56923 0.45966 0.84909 0.0
H849 H 0.53911 0.41693 0.86772 0.0
H850 H 0.54855 0.42111 0.92726 0.0
H851 H 0.54866 0.39843 0.89346 0.0
H852 H 0.63423 0.41535 0.8848 0.0
H853 H 0.64187 0.42415 0.96856 0.0
H854 H 0.58827 0.44307 0.97308 0.0
C855 C 0.57119 0.4241 0.78768 0.0
C856 C 0.57885 0.41734 0.74808 0.0
C857 C 0.59754 0.41299 0.75244 0.0
C858 C 0.60801 0.41476 0.79589 0.0
C859 C 0.59977 0.42117 0.83442 0.0
C860 C 0.582 0.42612 0.83043 0.0
C861 C 0.57673 0.43338 0.87651 0.0
C862 C 0.58124 0.45836 0.87411 0.0
C863 C 0.55178 0.41645 0.89214 0.0
C864 C 0.59421 0.43164 0.90735 0.0
C865 C 0.6072 0.42433 0.88269 0.0
C866 C 0.62421 0.42119 0.90428 0.0
C867 C 0.62833 0.42609 0.95196 0.0
C868 C 0.61569 0.43431 0.97743 0.0
C869 C 0.59828 0.43687 0.95464 0.0
H870 H 0.21395 0.60105 0.09258 0.0
H871 H 0.1398 0.56181 0.0677 0.0
H872 H 0.13257 0.5646 0.1506 0.0
H873 H 0.21397 0.57741 0.20391 0.0
H874 H 0.23581 0.60438 0.22859 0.0
H875 H 0.23555 0.59955 0.16705 0.0
H876 H 0.23368 0.63682 0.15053 0.0
H877 H 0.23432 0.64196 0.212 0.0
H878 H 0.21114 0.64042 0.177 0.0
H879 H 0.13316 0.56946 0.23668 0.0
H880 H 0.14131 0.58146 0.31847 0.0
H881 H 0.21501 0.61962 0.28803 0.0
C882 C 0.1962 0.59325 0.10452 0.0
C883 C 0.17746 0.58117 0.0735 0.0
C884 C 0.15448 0.57127 0.09056 0.0
C885 C 0.15017 0.57259 0.13774 0.0
C886 C 0.16898 0.58414 0.16751 0.0
C887 C 0.19155 0.59475 0.15153 0.0
C888 C 0.20856 0.60682 0.19081 0.0
C889 C 0.2244 0.59641 0.198 0.0
C890 C 0.22276 0.63306 0.18206 0.0
C891 C 0.19201 0.60118 0.23133 0.0
C892 C 0.16929 0.58778 0.21713 0.0
C893 C 0.15088 0.5801 0.24818 0.0
C894 C 0.15573 0.58689 0.29475 0.0
C895 C 0.17882 0.60152 0.30988 0.0
C896 C 0.19718 0.60841 0.27768 0.0
H897 H 0.61292 0.21326 0.60777 0.0
H898 H 0.56925 0.13957 0.63354 0.0
H899 H 0.57055 0.13177 0.55053 0.0
H900 H 0.58903 0.21494 0.49731 0.0
H901 H 0.61637 0.23538 0.47145 0.0
H902 H 0.61233 0.23562 0.53323 0.0
H903 H 0.64808 0.23078 0.54778 0.0
H904 H 0.65242 0.23086 0.48607 0.0
H905 H 0.64945 0.20706 0.52102 0.0
H906 H 0.5747 0.13175 0.46439 0.0
H907 H 0.58586 0.13897 0.38203 0.0
H908 H 0.62857 0.21243 0.41072 0.0
C909 C 0.60382 0.19547 0.59601 0.0
C910 C 0.59096 0.17706 0.6275 0.0
C911 C 0.57933 0.15403 0.61048 0.0
C912 C 0.57981 0.14939 0.56318 0.0
C913 C 0.59221 0.1679 0.53304 0.0
C914 C 0.60438 0.19045 0.54875 0.0
C915 C 0.61691 0.20702 0.50887 0.0
C916 C 0.60813 0.22426 0.50235 0.0
C917 C 0.64328 0.21967 0.51639 0.0
C918 C 0.60978 0.19023 0.46841 0.0
C919 C 0.59528 0.1678 0.48319 0.0
C920 C 0.58616 0.14923 0.45242 0.0
C921 C 0.59251 0.15357 0.4055 0.0
C922 C 0.60811 0.17629 0.38955 0.0
C923 C 0.61657 0.19487 0.42159 0.0
loop_
_geom_bond_atom_site_label_1
_geom_bond_atom_site_label_2
_geom_bond_distance
_geom_bond_site_symmetry_2
_ccdc_geom_bond_type
Cu0 N1 1.999 . S
Cu0 O6 1.974 . S
Cu0 N11 1.985 . S
Cu0 O20 1.959 . S
N1 Cu0 1.999 . S
N1 C3 1.263 . S
N1 C5 1.389 . S
N2 C3 1.358 . S
N2 C4 1.400 . S
C3 N1 1.263 . S
C3 N2 1.358 . S
C3 H9 0.930 . S
C4 N2 1.400 . S
C4 C5 1.351 . S
C4 H21 0.930 . S
C5 N1 1.389 . S
C5 C4 1.351 . S
C5 H10 0.930 . S
O6 Cu0 1.974 . S
O6 C16 1.282 . S
C7 O8 1.261 1_556 S
C7 O20 1.251 1_556 S
O8 C7 1.261 1_554 S
H9 C3 0.930 . S
H10 C5 0.930 . S
N11 Cu0 1.985 . S
N11 C13 1.335 . S
N11 C14 1.390 . S
N12 C13 1.345 . S
N12 C15 1.336 . S
C13 N11 1.335 . S
C13 N12 1.345 . S
C13 H18 0.930 . S
C14 N11 1.390 . S
C14 C15 1.346 . S
C14 H19 0.930 . S
C15 N12 1.336 . S
C15 C14 1.346 . S
C15 H22 0.929 . S
C16 O6 1.282 . S
C16 O17 1.216 . S
O17 C16 1.216 . S
H18 C13 0.930 . S
H19 C14 0.930 . S
O20 Cu0 1.959 . S
O20 C7 1.251 1_554 S
H21 C4 0.930 . S
H22 C15 0.929 . S
Cu23 N24 1.999 . S
Cu23 O29 1.974 . S
Cu23 N34 1.985 . S
Cu23 O43 1.959 . S
N24 Cu23 1.999 . S
N24 C26 1.263 . S
N24 C28 1.389 . S
N25 C26 1.358 . S
N25 C27 1.400 . S
C26 N24 1.263 . S
C26 N25 1.358 . S
C26 H32 0.930 . S
C27 N25 1.400 . S
C27 C28 1.351 . S
C27 H44 0.930 . S
C28 N24 1.389 . S
C28 C27 1.351 . S
C28 H33 0.930 . S
O29 Cu23 1.974 . S
O29 C39 1.282 . S
C30 O31 1.261 . S
C30 O43 1.251 . S
O31 C30 1.261 . S
H32 C26 0.930 . S
H33 C28 0.930 . S
N34 Cu23 1.985 . S
N34 C36 1.335 . S
N34 C37 1.390 . S
N35 C36 1.345 . S
N35 C38 1.336 . S
C36 N34 1.335 . S
C36 N35 1.345 . S
C36 H41 0.930 . S
C37 N34 1.390 . S
C37 C38 1.346 . S
C37 H42 0.930 . S
C38 N35 1.336 . S
C38 C37 1.346 . S
C38 H45 0.929 . S
C39 O29 1.282 . S
C39 O40 1.216 . S
O40 C39 1.216 . S
H41 C36 0.930 . S
H42 C37 0.930 . S
O43 Cu23 1.959 . S
O43 C30 1.251 . S
H44 C27 0.930 . S
H45 C38 0.929 . S
Cu46 N47 1.999 . S
Cu46 O52 1.974 . S
Cu46 N57 1.985 . S
Cu46 O66 1.959 . S
N47 Cu46 1.999 . S
N47 C49 1.263 . S
N47 C51 1.389 . S
N48 C49 1.358 . S
N48 C50 1.400 . S
C49 N47 1.263 . S
C49 N48 1.358 . S
C49 H55 0.930 . S
C50 N48 1.400 . S
C50 C51 1.351 . S
C50 H67 0.930 . S
C51 N47 1.389 . S
C51 C50 1.351 . S
C51 H56 0.930 . S
O52 Cu46 1.974 . S
O52 C62 1.282 . S
C53 O54 1.261 . S
C53 O66 1.251 . S
O54 C53 1.261 . S
H55 C49 0.930 . S
H56 C51 0.930 . S
N57 Cu46 1.985 . S
N57 C59 1.335 . S
N57 C60 1.390 . S
N58 C59 1.345 . S
N58 C61 1.336 . S
C59 N57 1.335 . S
C59 N58 1.345 . S
C59 H64 0.930 . S
C60 N57 1.390 . S
C60 C61 1.346 . S
C60 H65 0.930 . S
C61 N58 1.336 . S
C61 C60 1.346 . S
C61 H68 0.929 . S
C62 O52 1.282 . S
C62 O63 1.216 . S
O63 C62 1.216 . S
H64 C59 0.930 . S
H65 C60 0.930 . S
O66 Cu46 1.959 . S
O66 C53 1.251 . S
H67 C50 0.930 . S
H68 C61 0.929 . S
Cu69 N70 1.999 . S
Cu69 O75 1.974 . S
Cu69 N80 1.985 . S
Cu69 O89 1.959 . S
N70 Cu69 1.999 . S
N70 C72 1.263 . S
N70 C74 1.389 . S
N71 C72 1.358 . S
N71 C73 1.400 . S
C72 N70 1.263 . S
C72 N71 1.358 . S
C72 H78 0.930 . S
C73 N71 1.400 . S
C73 C74 1.351 . S
C73 H90 0.930 . S
C74 N70 1.389 . S
C74 C73 1.351 . S
C74 H79 0.930 . S
O75 Cu69 1.974 . S
O75 C85 1.282 . S
C76 O77 1.261 1_556 S
C76 O89 1.251 1_556 S
O77 C76 1.261 1_554 S
H78 C72 0.930 . S
H79 C74 0.930 . S
N80 Cu69 1.985 . S
N80 C82 1.335 . S
N80 C83 1.390 . S
N81 C82 1.345 . S
N81 C84 1.336 . S
C82 N80 1.335 . S
C82 N81 1.345 . S
C82 H87 0.930 . S
C83 N80 1.390 . S
C83 C84 1.346 . S
C83 H88 0.930 . S
C84 N81 1.336 . S
C84 C83 1.346 . S
C84 H91 0.929 . S
C85 O75 1.282 . S
C85 O86 1.216 . S
O86 C85 1.216 . S
H87 C82 0.930 . S
H88 C83 0.930 . S
O89 Cu69 1.959 . S
O89 C76 1.251 1_554 S
H90 C73 0.930 . S
H91 C84 0.929 . S
Cu92 N93 1.999 . S
Cu92 O98 1.974 . S
Cu92 N103 1.985 . S
Cu92 O112 1.959 . S
N93 Cu92 1.999 . S
N93 C95 1.263 . S
N93 C97 1.389 . S
N94 C95 1.358 . S
N94 C96 1.400 . S
C95 N93 1.263 . S
C95 N94 1.358 . S
C95 H101 0.930 . S
C96 N94 1.400 . S
C96 C97 1.351 . S
C96 H113 0.930 . S
C97 N93 1.389 . S
C97 C96 1.351 . S
C97 H102 0.930 . S
O98 Cu92 1.974 . S
O98 C108 1.282 . S
C99 O100 1.261 . S
C99 O112 1.251 . S
O100 C99 1.261 . S
H101 C95 0.930 . S
H102 C97 0.930 . S
N103 Cu92 1.985 . S
N103 C105 1.335 . S
N103 C106 1.390 . S
N104 C105 1.345 . S
N104 C107 1.336 . S
C105 N103 1.335 . S
C105 N104 1.345 . S
C105 H110 0.930 . S
C106 N103 1.390 . S
C106 C107 1.346 . S
C106 H111 0.930 . S
C107 N104 1.336 . S
C107 C106 1.346 . S
C107 H114 0.929 . S
C108 O98 1.282 . S
C108 O109 1.216 . S
O109 C108 1.216 . S
H110 C105 0.930 . S
H111 C106 0.930 . S
O112 Cu92 1.959 . S
O112 C99 1.251 . S
H113 C96 0.930 . S
H114 C107 0.929 . S
Cu115 N116 1.999 . S
Cu115 O121 1.974 . S
Cu115 N126 1.985 . S
Cu115 O135 1.959 . S
N116 Cu115 1.999 . S
N116 C118 1.263 . S
N116 C120 1.389 . S
N117 C118 1.358 . S
N117 C119 1.400 . S
C118 N116 1.263 . S
C118 N117 1.358 . S
C118 H124 0.930 . S
C119 N117 1.400 . S
C119 C120 1.351 . S
C119 H136 0.930 . S
C120 N116 1.389 . S
C120 C119 1.351 . S
C120 H125 0.930 . S
O121 Cu115 1.974 . S
O121 C131 1.282 . S
C122 O123 1.261 . S
C122 O135 1.251 . S
O123 C122 1.261 . S
H124 C118 0.930 . S
H125 C120 0.930 . S
N126 Cu115 1.985 . S
N126 C128 1.335 . S
N126 C129 1.390 . S
N127 C128 1.345 . S
N127 C130 1.336 . S
C128 N126 1.335 . S
C128 N127 1.345 . S
C128 H133 0.930 . S
C129 N126 1.390 . S
C129 C130 1.346 . S
C129 H134 0.930 . S
C130 N127 1.336 . S
C130 C129 1.346 . S
C130 H137 0.929 . S
C131 O121 1.282 . S
C131 O132 1.216 . S
O132 C131 1.216 . S
H133 C128 0.930 . S
H134 C129 0.930 . S
O135 Cu115 1.959 . S
O135 C122 1.251 . S
H136 C119 0.930 . S
H137 C130 0.929 . S
Cu138 N139 1.999 . S
Cu138 O144 1.974 . S
Cu138 N149 1.985 . S
Cu138 O158 1.959 . S
N139 Cu138 1.999 . S
N139 C141 1.263 . S
N139 C143 1.389 . S
N140 C141 1.358 . S
N140 C142 1.400 . S
C141 N139 1.263 . S
C141 N140 1.358 . S
C141 H147 0.930 . S
C142 N140 1.400 . S
C142 C143 1.351 . S
C142 H159 0.930 . S
C143 N139 1.389 . S
C143 C142 1.351 . S
C143 H148 0.930 . S
O144 Cu138 1.974 . S
O144 C154 1.282 . S
C145 O146 1.261 . S
C145 O158 1.251 . S
O146 C145 1.261 . S
H147 C141 0.930 . S
H148 C143 0.930 . S
N149 Cu138 1.985 . S
N149 C151 1.335 . S
N149 C152 1.390 . S
N150 C151 1.345 . S
N150 C153 1.336 . S
C151 N149 1.335 . S
C151 N150 1.345 . S
C151 H156 0.930 . S
C152 N149 1.390 . S
C152 C153 1.346 . S
C152 H157 0.930 . S
C153 N150 1.336 . S
C153 C152 1.346 . S
C153 H160 0.929 . S
C154 O144 1.282 . S
C154 O155 1.216 . S
O155 C154 1.216 . S
H156 C151 0.930 . S
H157 C152 0.930 . S
O158 Cu138 1.959 . S
O158 C145 1.251 . S
H159 C142 0.930 . S
H160 C153 0.929 . S
Cu161 N162 1.999 . S
Cu161 O167 1.974 . S
Cu161 N172 1.985 . S
Cu161 O181 1.959 . S
N162 Cu161 1.999 . S
N162 C164 1.263 . S
N162 C166 1.389 . S
N163 C164 1.358 . S
N163 C165 1.400 . S
C164 N162 1.263 . S
C164 N163 1.358 . S
C164 H170 0.930 . S
C165 N163 1.400 . S
C165 C166 1.351 . S
C165 H182 0.930 . S
C166 N162 1.389 . S
C166 C165 1.351 . S
C166 H171 0.930 . S
O167 Cu161 1.974 . S
O167 C177 1.282 . S
C168 O169 1.261 1_554 S
C168 O181 1.251 1_554 S
O169 C168 1.261 1_556 S
H170 C164 0.930 . S
H171 C166 0.930 . S
N172 Cu161 1.985 . S
N172 C174 1.335 . S
N172 C175 1.390 . S
N173 C174 1.345 . S
N173 C176 1.336 . S
C174 N172 1.335 . S
C174 N173 1.345 . S
C174 H179 0.930 . S
C175 N172 1.390 . S
C175 C176 1.346 . S
C175 H180 0.930 . S
C176 N173 1.336 . S
C176 C175 1.346 . S
C176 H183 0.929 . S
C177 O167 1.282 . S
C177 O178 1.216 . S
O178 C177 1.216 . S
H179 C174 0.930 . S
H180 C175 0.930 . S
O181 Cu161 1.959 . S
O181 C168 1.251 1_556 S
H182 C165 0.930 . S
H183 C176 0.929 . S
Cu184 N185 1.999 . S
Cu184 O190 1.974 . S
Cu184 N195 1.985 . S
Cu184 O204 1.959 . S
N185 Cu184 1.999 . S
N185 C187 1.263 . S
N185 C189 1.389 . S
N186 C187 1.358 . S
N186 C188 1.400 . S
C187 N185 1.263 . S
C187 N186 1.358 . S
C187 H193 0.930 . S
C188 N186 1.400 . S
C188 C189 1.351 . S
C188 H205 0.930 . S
C189 N185 1.389 . S
C189 C188 1.351 . S
C189 H194 0.930 . S
O190 Cu184 1.974 . S
O190 C200 1.282 . S
C191 O192 1.261 . S
C191 O204 1.251 . S
O192 C191 1.261 . S
H193 C187 0.930 . S
H194 C189 0.930 . S
N195 Cu184 1.985 . S
N195 C197 1.335 . S
N195 C198 1.390 . S
N196 C197 1.345 . S
N196 C199 1.336 . S
C197 N195 1.335 . S
C197 N196 1.345 . S
C197 H202 0.930 . S
C198 N195 1.390 . S
C198 C199 1.346 . S
C198 H203 0.930 . S
C199 N196 1.336 . S
C199 C198 1.346 . S
C199 H206 0.929 . S
C200 O190 1.282 . S
C200 O201 1.216 . S
O201 C200 1.216 . S
H202 C197 0.930 . S
H203 C198 0.930 . S
O204 Cu184 1.959 . S
O204 C191 1.251 . S
H205 C188 0.930 . S
H206 C199 0.929 . S
Cu207 N208 1.999 . S
Cu207 O213 1.974 . S
Cu207 N218 1.985 . S
Cu207 O227 1.959 . S
N208 Cu207 1.999 . S
N208 C210 1.263 . S
N208 C212 1.389 . S
N209 C210 1.358 . S
N209 C211 1.400 . S
C210 N208 1.263 . S
C210 N209 1.358 . S
C210 H216 0.930 . S
C211 N209 1.400 . S
C211 C212 1.351 . S
C211 H228 0.930 . S
C212 N208 1.389 . S
C212 C211 1.351 . S
C212 H217 0.930 . S
O213 Cu207 1.974 . S
O213 C223 1.282 . S
C214 O215 1.261 . S
C214 O227 1.251 . S
O215 C214 1.261 . S
H216 C210 0.930 . S
H217 C212 0.930 . S
N218 Cu207 1.985 . S
N218 C220 1.335 . S
N218 C221 1.390 . S
N219 C220 1.345 . S
N219 C222 1.336 . S
C220 N218 1.335 . S
C220 N219 1.345 . S
C220 H225 0.930 . S
C221 N218 1.390 . S
C221 C222 1.346 . S
C221 H226 0.930 . S
C222 N219 1.336 . S
C222 C221 1.346 . S
C222 H229 0.929 . S
C223 O213 1.282 . S
C223 O224 1.216 . S
O224 C223 1.216 . S
H225 C220 0.930 . S
H226 C221 0.930 . S
O227 Cu207 1.959 . S
O227 C214 1.251 . S
H228 C211 0.930 . S
H229 C222 0.929 . S
Cu230 N231 1.999 . S
Cu230 O236 1.974 . S
Cu230 N241 1.985 . S
Cu230 O250 1.959 . S
N231 Cu230 1.999 . S
N231 C233 1.263 . S
N231 C235 1.389 . S
N232 C233 1.358 . S
N232 C234 1.400 . S
C233 N231 1.263 . S
C233 N232 1.358 . S
C233 H239 0.930 . S
C234 N232 1.400 . S
C234 C235 1.351 . S
C234 H251 0.930 . S
C235 N231 1.389 . S
C235 C234 1.351 . S
C235 H240 0.930 . S
O236 Cu230 1.974 . S
O236 C246 1.282 . S
C237 O238 1.261 1_554 S
C237 O250 1.251 1_554 S
O238 C237 1.261 1_556 S
H239 C233 0.930 . S
H240 C235 0.930 . S
N241 Cu230 1.985 . S
N241 C243 1.335 . S
N241 C244 1.390 . S
N242 C243 1.345 . S
N242 C245 1.336 . S
C243 N241 1.335 . S
C243 N242 1.345 . S
C243 H248 0.930 . S
C244 N241 1.390 . S
C244 C245 1.346 . S
C244 H249 0.930 . S
C245 N242 1.336 . S
C245 C244 1.346 . S
C245 H252 0.929 . S
C246 O236 1.282 . S
C246 O247 1.216 . S
O247 C246 1.216 . S
H248 C243 0.930 . S
H249 C244 0.930 . S
O250 Cu230 1.959 . S
O250 C237 1.251 1_556 S
H251 C234 0.930 . S
H252 C245 0.929 . S
Cu253 N254 1.999 . S
Cu253 O259 1.974 . S
Cu253 N264 1.985 . S
Cu253 O273 1.959 . S
N254 Cu253 1.999 . S
N254 C256 1.263 . S
N254 C258 1.389 . S
N255 C256 1.358 . S
N255 C257 1.400 . S
C256 N254 1.263 . S
C256 N255 1.358 . S
C256 H262 0.930 . S
C257 N255 1.400 . S
C257 C258 1.351 . S
C257 H274 0.930 . S
C258 N254 1.389 . S
C258 C257 1.351 . S
C258 H263 0.930 . S
O259 Cu253 1.974 . S
O259 C269 1.282 . S
C260 O261 1.261 . S
C260 O273 1.251 . S
O261 C260 1.261 . S
H262 C256 0.930 . S
H263 C258 0.930 . S
N264 Cu253 1.985 . S
N264 C266 1.335 . S
N264 C267 1.390 . S
N265 C266 1.345 . S
N265 C268 1.336 . S
C266 N264 1.335 . S
C266 N265 1.345 . S
C266 H271 0.930 . S
C267 N264 1.390 . S
C267 C268 1.346 . S
C267 H272 0.930 . S
C268 N265 1.336 . S
C268 C267 1.346 . S
C268 H275 0.929 . S
C269 O259 1.282 . S
C269 O270 1.216 . S
O270 C269 1.216 . S
H271 C266 0.930 . S
H272 C267 0.930 . S
O273 Cu253 1.959 . S
O273 C260 1.251 . S
H274 C257 0.930 . S
H275 C268 0.929 . S
H276 C288 0.930 . S
H277 C290 0.930 . S
H278 C291 0.930 . S
H279 C295 0.959 . S
H280 C295 0.959 . S
H281 C295 0.961 . S
H282 C296 0.960 . S
H283 C296 0.961 . S
H284 C296 0.959 . S
H285 C299 0.929 . S
H286 C300 0.931 . S
H287 C302 0.930 . S
C288 H276 0.930 . S
C288 C289 1.399 . S
C288 C293 1.399 . S
C289 C288 1.399 . S
C289 C290 1.376 . S
C290 H277 0.930 . S
C290 C289 1.376 . S
C290 C291 1.388 . S
C291 H278 0.930 . S
C291 C290 1.388 . S
C291 C292 1.390 . S
C292 C291 1.390 . S
C292 C293 1.394 . S
C292 C298 1.465 . S
C293 C288 1.399 . S
C293 C292 1.394 . S
C293 C294 1.516 . S
C294 C293 1.516 . S
C294 C295 1.502 . S
C294 C296 1.561 . S
C294 C297 1.526 . S
C295 H279 0.959 . S
C295 H280 0.959 . S
C295 H281 0.961 . S
C295 C294 1.502 . S
C296 H282 0.960 . S
C296 H283 0.961 . S
C296 H284 0.959 . S
C296 C294 1.561 . S
C297 C294 1.526 . S
C297 C298 1.396 . S
C297 C302 1.390 . S
C298 C292 1.465 . S
C298 C297 1.396 . S
C298 C299 1.399 . S
C299 H285 0.929 . S
C299 C298 1.399 . S
C299 C300 1.385 . S
C300 H286 0.931 . S
C300 C299 1.385 . S
C300 C301 1.389 . S
C301 C300 1.389 . S
C301 C302 1.387 . S
C302 H287 0.930 . S
C302 C297 1.390 . S
C302 C301 1.387 . S
H303 C315 0.930 . S
H304 C317 0.930 . S
H305 C318 0.930 . S
H306 C322 0.959 . S
H307 C322 0.959 . S
H308 C322 0.961 . S
H309 C323 0.960 . S
H310 C323 0.961 . S
H311 C323 0.959 . S
H312 C326 0.929 . S
H313 C327 0.931 . S
H314 C329 0.930 . S
C315 H303 0.930 . S
C315 C316 1.399 . S
C315 C320 1.399 . S
C316 C315 1.399 . S
C316 C317 1.376 . S
C317 H304 0.930 . S
C317 C316 1.376 . S
C317 C318 1.388 . S
C318 H305 0.930 . S
C318 C317 1.388 . S
C318 C319 1.390 . S
C319 C318 1.390 . S
C319 C320 1.394 . S
C319 C325 1.465 . S
C320 C315 1.399 . S
C320 C319 1.394 . S
C320 C321 1.516 . S
C321 C320 1.516 . S
C321 C322 1.502 . S
C321 C323 1.561 . S
C321 C324 1.526 . S
C322 H306 0.959 . S
C322 H307 0.959 . S
C322 H308 0.961 . S
C322 C321 1.502 . S
C323 H309 0.960 . S
C323 H310 0.961 . S
C323 H311 0.959 . S
C323 C321 1.561 . S
C324 C321 1.526 . S
C324 C325 1.396 . S
C324 C329 1.390 . S
C325 C319 1.465 . S
C325 C324 1.396 . S
C325 C326 1.399 . S
C326 H312 0.929 . S
C326 C325 1.399 . S
C326 C327 1.385 . S
C327 H313 0.931 . S
C327 C326 1.385 . S
C327 C328 1.389 . S
C328 C327 1.389 . S
C328 C329 1.387 . S
C329 H314 0.930 . S
C329 C324 1.390 . S
C329 C328 1.387 . S
H330 C342 0.930 . S
H331 C344 0.930 . S
H332 C345 0.930 . S
H333 C349 0.959 . S
H334 C349 0.959 . S
H335 C349 0.961 1_556 S
H336 C350 0.960 . S
H337 C350 0.961 1_554 S
H338 C350 0.959 . S
H339 C353 0.929 . S
H340 C354 0.931 . S
H341 C356 0.930 . S
C342 H330 0.930 . S
C342 C343 1.399 . S
C342 C347 1.399 . S
C343 C342 1.399 . S
C343 C344 1.376 . S
C344 H331 0.930 . S
C344 C343 1.376 . S
C344 C345 1.388 . S
C345 H332 0.930 . S
C345 C344 1.388 . S
C345 C346 1.390 . S
C346 C345 1.390 . S
C346 C347 1.394 . S
C346 C352 1.465 1_556 S
C347 C342 1.399 . S
C347 C346 1.394 . S
C347 C348 1.516 1_556 S
C348 C347 1.516 1_554 S
C348 C349 1.502 . S
C348 C350 1.561 1_554 S
C348 C351 1.526 . S
C349 H333 0.959 . S
C349 H334 0.959 . S
C349 H335 0.961 1_554 S
C349 C348 1.502 . S
C350 H336 0.960 . S
C350 H337 0.961 1_556 S
C350 H338 0.959 . S
C350 C348 1.561 1_556 S
C351 C348 1.526 . S
C351 C352 1.396 . S
C351 C356 1.390 . S
C352 C346 1.465 1_554 S
C352 C351 1.396 . S
C352 C353 1.399 . S
C353 H339 0.929 . S
C353 C352 1.399 . S
C353 C354 1.385 . S
C354 H340 0.931 . S
C354 C353 1.385 . S
C354 C355 1.389 . S
C355 C354 1.389 . S
C355 C356 1.387 . S
C356 H341 0.930 . S
C356 C351 1.390 . S
C356 C355 1.387 . S
H357 C369 0.930 . S
H358 C371 0.930 . S
H359 C372 0.930 . S
H360 C376 0.959 . S
H361 C376 0.959 . S
H362 C376 0.961 . S
H363 C377 0.960 . S
H364 C377 0.961 . S
H365 C377 0.959 . S
H366 C380 0.929 . S
H367 C381 0.931 . S
H368 C383 0.930 . S
C369 H357 0.930 . S
C369 C370 1.399 . S
C369 C374 1.399 . S
C370 C369 1.399 . S
C370 C371 1.376 . S
C371 H358 0.930 . S
C371 C370 1.376 . S
C371 C372 1.388 . S
C372 H359 0.930 . S
C372 C371 1.388 . S
C372 C373 1.390 . S
C373 C372 1.390 . S
C373 C374 1.394 . S
C373 C379 1.465 . S
C374 C369 1.399 . S
C374 C373 1.394 . S
C374 C375 1.516 . S
C375 C374 1.516 . S
C375 C376 1.502 . S
C375 C377 1.561 . S
C375 C378 1.526 . S
C376 H360 0.959 . S
C376 H361 0.959 . S
C376 H362 0.961 . S
C376 C375 1.502 . S
C377 H363 0.960 . S
C377 H364 0.961 . S
C377 H365 0.959 . S
C377 C375 1.561 . S
C378 C375 1.526 . S
C378 C379 1.396 . S
C378 C383 1.390 . S
C379 C373 1.465 . S
C379 C378 1.396 . S
C379 C380 1.399 . S
C380 H366 0.929 . S
C380 C379 1.399 . S
C380 C381 1.385 . S
C381 H367 0.931 . S
C381 C380 1.385 . S
C381 C382 1.389 . S
C382 C381 1.389 . S
C382 C383 1.387 . S
C383 H368 0.930 . S
C383 C378 1.390 . S
C383 C382 1.387 . S
H384 C396 0.930 . S
H385 C398 0.930 . S
H386 C399 0.930 . S
H387 C403 0.959 . S
H388 C403 0.959 . S
H389 C403 0.961 . S
H390 C404 0.960 . S
H391 C404 0.961 . S
H392 C404 0.959 . S
H393 C407 0.929 . S
H394 C408 0.931 . S
H395 C410 0.930 . S
C396 H384 0.930 . S
C396 C397 1.399 . S
C396 C401 1.399 . S
C397 C396 1.399 . S
C397 C398 1.376 . S
C398 H385 0.930 . S
C398 C397 1.376 . S
C398 C399 1.388 . S
C399 H386 0.930 . S
C399 C398 1.388 . S
C399 C400 1.390 . S
C400 C399 1.390 . S
C400 C401 1.394 . S
C400 C406 1.465 . S
C401 C396 1.399 . S
C401 C400 1.394 . S
C401 C402 1.516 . S
C402 C401 1.516 . S
C402 C403 1.502 . S
C402 C404 1.561 . S
C402 C405 1.526 . S
C403 H387 0.959 . S
C403 H388 0.959 . S
C403 H389 0.961 . S
C403 C402 1.502 . S
C404 H390 0.960 . S
C404 H391 0.961 . S
C404 H392 0.959 . S
C404 C402 1.561 . S
C405 C402 1.526 . S
C405 C406 1.396 . S
C405 C410 1.390 . S
C406 C400 1.465 . S
C406 C405 1.396 . S
C406 C407 1.399 . S
C407 H393 0.929 . S
C407 C406 1.399 . S
C407 C408 1.385 . S
C408 H394 0.931 . S
C408 C407 1.385 . S
C408 C409 1.389 . S
C409 C408 1.389 . S
C409 C410 1.387 . S
C410 H395 0.930 . S
C410 C405 1.390 . S
C410 C409 1.387 . S
H411 C423 0.930 . S
H412 C425 0.930 . S
H413 C426 0.930 . S
H414 C430 0.959 . S
H415 C430 0.959 1_556 S
H416 C430 0.961 . S
H417 C431 0.960 1_554 S
H418 C431 0.961 . S
H419 C431 0.959 . S
H420 C434 0.929 . S
H421 C435 0.931 . S
H422 C437 0.930 . S
C423 H411 0.930 . S
C423 C424 1.399 . S
C423 C428 1.399 . S
C424 C423 1.399 . S
C424 C425 1.376 . S
C425 H412 0.930 . S
C425 C424 1.376 . S
C425 C426 1.388 . S
C426 H413 0.930 . S
C426 C425 1.388 . S
C426 C427 1.390 . S
C427 C426 1.390 . S
C427 C428 1.394 . S
C427 C433 1.465 1_554 S
C428 C423 1.399 . S
C428 C427 1.394 . S
C428 C429 1.516 . S
C429 C428 1.516 . S
C429 C430 1.502 . S
C429 C431 1.561 1_554 S
C429 C432 1.526 1_554 S
C430 H414 0.959 . S
C430 H415 0.959 1_554 S
C430 H416 0.961 . S
C430 C429 1.502 . S
C431 H417 0.960 1_556 S
C431 H418 0.961 . S
C431 H419 0.959 . S
C431 C429 1.561 1_556 S
C432 C429 1.526 1_556 S
C432 C433 1.396 . S
C432 C437 1.390 . S
C433 C427 1.465 1_556 S
C433 C432 1.396 . S
C433 C434 1.399 . S
C434 H420 0.929 . S
C434 C433 1.399 . S
C434 C435 1.385 . S
C435 H421 0.931 . S
C435 C434 1.385 . S
C435 C436 1.389 . S
C436 C435 1.389 . S
C436 C437 1.387 . S
C437 H422 0.930 . S
C437 C432 1.390 . S
C437 C436 1.387 . S
H438 C450 0.930 . S
H439 C452 0.930 . S
H440 C453 0.930 . S
H441 C457 0.959 . S
H442 C457 0.959 . S
H443 C457 0.961 . S
H444 C458 0.960 . S
H445 C458 0.961 1_556 S
H446 C458 0.959 . S
H447 C461 0.929 . S
H448 C462 0.931 . S
H449 C464 0.930 . S
C450 H438 0.930 . S
C450 C451 1.399 . S
C450 C455 1.399 . S
C451 C450 1.399 . S
C451 C452 1.376 . S
C452 H439 0.930 . S
C452 C451 1.376 . S
C452 C453 1.388 . S
C453 H440 0.930 . S
C453 C452 1.388 . S
C453 C454 1.390 . S
C454 C453 1.390 . S
C454 C455 1.394 . S
C454 C460 1.465 . S
C455 C450 1.399 . S
C455 C454 1.394 . S
C455 C456 1.516 1_554 S
C456 C455 1.516 1_556 S
C456 C457 1.502 . S
C456 C458 1.561 1_556 S
C456 C459 1.526 . S
C457 H441 0.959 . S
C457 H442 0.959 . S
C457 H443 0.961 . S
C457 C456 1.502 . S
C458 H444 0.960 . S
C458 H445 0.961 1_554 S
C458 H446 0.959 . S
C458 C456 1.561 1_554 S
C459 C456 1.526 . S
C459 C460 1.396 1_556 S
C459 C464 1.390 . S
C460 C454 1.465 . S
C460 C459 1.396 1_554 S
C460 C461 1.399 . S
C461 H447 0.929 . S
C461 C460 1.399 . S
C461 C462 1.385 1_554 S
C462 H448 0.931 . S
C462 C461 1.385 1_556 S
C462 C463 1.389 . S
C463 C462 1.389 . S
C463 C464 1.387 . S
C464 H449 0.930 . S
C464 C459 1.390 . S
C464 C463 1.387 . S
H465 C477 0.930 . S
H466 C479 0.930 . S
H467 C480 0.930 . S
H468 C484 0.959 . S
H469 C484 0.959 . S
H470 C484 0.961 . S
H471 C485 0.960 . S
H472 C485 0.961 . S
H473 C485 0.959 . S
H474 C488 0.929 . S
H475 C489 0.931 . S
H476 C491 0.930 . S
C477 H465 0.930 . S
C477 C478 1.399 . S
C477 C482 1.399 . S
C478 C477 1.399 . S
C478 C479 1.376 . S
C479 H466 0.930 . S
C479 C478 1.376 . S
C479 C480 1.388 . S
C480 H467 0.930 . S
C480 C479 1.388 . S
C480 C481 1.390 . S
C481 C480 1.390 . S
C481 C482 1.394 . S
C481 C487 1.465 . S
C482 C477 1.399 . S
C482 C481 1.394 . S
C482 C483 1.516 . S
C483 C482 1.516 . S
C483 C484 1.502 . S
C483 C485 1.561 . S
C483 C486 1.526 . S
C484 H468 0.959 . S
C484 H469 0.959 . S
C484 H470 0.961 . S
C484 C483 1.502 . S
C485 H471 0.960 . S
C485 H472 0.961 . S
C485 H473 0.959 . S
C485 C483 1.561 . S
C486 C483 1.526 . S
C486 C487 1.396 . S
C486 C491 1.390 . S
C487 C481 1.465 . S
C487 C486 1.396 . S
C487 C488 1.399 . S
C488 H474 0.929 . S
C488 C487 1.399 . S
C488 C489 1.385 . S
C489 H475 0.931 . S
C489 C488 1.385 . S
C489 C490 1.389 . S
C490 C489 1.389 . S
C490 C491 1.387 . S
C491 H476 0.930 . S
C491 C486 1.390 . S
C491 C490 1.387 . S
H492 C504 0.930 . S
H493 C506 0.930 . S
H494 C507 0.930 . S
H495 C511 0.959 . S
H496 C511 0.959 . S
H497 C511 0.961 . S
H498 C512 0.960 . S
H499 C512 0.961 . S
H500 C512 0.959 . S
H501 C515 0.929 . S
H502 C516 0.931 . S
H503 C518 0.930 . S
C504 H492 0.930 . S
C504 C505 1.399 . S
C504 C509 1.399 . S
C505 C504 1.399 . S
C505 C506 1.376 . S
C506 H493 0.930 . S
C506 C505 1.376 . S
C506 C507 1.388 . S
C507 H494 0.930 . S
C507 C506 1.388 . S
C507 C508 1.390 . S
C508 C507 1.390 . S
C508 C509 1.394 . S
C508 C514 1.465 . S
C509 C504 1.399 . S
C509 C508 1.394 . S
C509 C510 1.516 . S
C510 C509 1.516 . S
C510 C511 1.502 . S
C510 C512 1.561 . S
C510 C513 1.526 . S
C511 H495 0.959 . S
C511 H496 0.959 . S
C511 H497 0.961 . S
C511 C510 1.502 . S
C512 H498 0.960 . S
C512 H499 0.961 . S
C512 H500 0.959 . S
C512 C510 1.561 . S
C513 C510 1.526 . S
C513 C514 1.396 . S
C513 C518 1.390 . S
C514 C508 1.465 . S
C514 C513 1.396 . S
C514 C515 1.399 . S
C515 H501 0.929 . S
C515 C514 1.399 . S
C515 C516 1.385 . S
C516 H502 0.931 . S
C516 C515 1.385 . S
C516 C517 1.389 . S
C517 C516 1.389 . S
C517 C518 1.387 . S
C518 H503 0.930 . S
C518 C513 1.390 . S
C518 C517 1.387 . S
H519 C531 0.930 . S
H520 C533 0.930 . S
H521 C534 0.930 1_556 S
H522 C538 0.959 . S
H523 C538 0.959 . S
H524 C538 0.961 . S
H525 C539 0.960 . S
H526 C539 0.961 . S
H527 C539 0.959 . S
H528 C542 0.929 . S
H529 C543 0.931 . S
H530 C545 0.930 . S
C531 H519 0.930 . S
C531 C532 1.399 . S
C531 C536 1.399 . S
C532 C531 1.399 . S
C532 C533 1.376 . S
C533 H520 0.930 . S
C533 C532 1.376 . S
C533 C534 1.388 . S
C534 H521 0.930 1_554 S
C534 C533 1.388 . S
C534 C535 1.393 . S
C535 C534 1.393 . S
C535 C536 1.399 . S
C535 C541 1.458 1_554 S
C536 C531 1.399 . S
C536 C535 1.399 . S
C536 C537 1.515 1_554 S
C537 C536 1.515 1_556 S
C537 C538 1.498 1_556 S
C537 C539 1.565 . S
C537 C540 1.527 . S
C538 H522 0.959 . S
C538 H523 0.959 . S
C538 H524 0.961 . S
C538 C537 1.498 1_554 S
C539 H525 0.960 . S
C539 H526 0.961 . S
C539 H527 0.959 . S
C539 C537 1.565 . S
C540 C537 1.527 . S
C540 C541 1.396 . S
C540 C545 1.390 . S
C541 C535 1.458 1_556 S
C541 C540 1.396 . S
C541 C542 1.399 . S
C542 H528 0.929 . S
C542 C541 1.399 . S
C542 C543 1.385 . S
C543 H529 0.931 . S
C543 C542 1.385 . S
C543 C544 1.389 . S
C544 C543 1.389 . S
C544 C545 1.387 . S
C545 H530 0.930 . S
C545 C540 1.390 . S
C545 C544 1.387 . S
H546 C558 0.930 . S
H547 C560 0.930 . S
H548 C561 0.930 . S
H549 C565 0.959 . S
H550 C565 0.959 . S
H551 C565 0.961 . S
H552 C566 0.960 . S
H553 C566 0.961 . S
H554 C566 0.959 . S
H555 C569 0.929 . S
H556 C570 0.931 . S
H557 C572 0.930 . S
C558 H546 0.930 . S
C558 C559 1.399 . S
C558 C563 1.399 . S
C559 C558 1.399 . S
C559 C560 1.376 . S
C560 H547 0.930 . S
C560 C559 1.376 . S
C560 C561 1.388 . S
C561 H548 0.930 . S
C561 C560 1.388 . S
C561 C562 1.390 . S
C562 C561 1.390 . S
C562 C563 1.394 . S
C562 C568 1.465 . S
C563 C558 1.399 . S
C563 C562 1.394 . S
C563 C564 1.516 . S
C564 C563 1.516 . S
C564 C565 1.502 . S
C564 C566 1.561 . S
C564 C567 1.526 . S
C565 H549 0.959 . S
C565 H550 0.959 . S
C565 H551 0.961 . S
C565 C564 1.502 . S
C566 H552 0.960 . S
C566 H553 0.961 . S
C566 H554 0.959 . S
C566 C564 1.561 . S
C567 C564 1.526 . S
C567 C568 1.396 . S
C567 C572 1.390 . S
C568 C562 1.465 . S
C568 C567 1.396 . S
C568 C569 1.399 . S
C569 H555 0.929 . S
C569 C568 1.399 . S
C569 C570 1.385 . S
C570 H556 0.931 . S
C570 C569 1.385 . S
C570 C571 1.389 . S
C571 C570 1.389 . S
C571 C572 1.387 . S
C572 H557 0.930 . S
C572 C567 1.390 . S
C572 C571 1.387 . S
H573 C585 0.930 . S
H574 C587 0.930 . S
H575 C588 0.930 . S
H576 C592 0.959 . S
H577 C592 0.959 . S
H578 C592 0.961 . S
H579 C593 0.960 . S
H580 C593 0.961 . S
H581 C593 0.959 . S
H582 C596 0.929 . S
H583 C597 0.931 . S
H584 C599 0.930 . S
C585 H573 0.930 . S
C585 C586 1.399 . S
C585 C590 1.399 . S
C586 C585 1.399 . S
C586 C587 1.376 . S
C587 H574 0.930 . S
C587 C586 1.376 . S
C587 C588 1.388 . S
C588 H575 0.930 . S
C588 C587 1.388 . S
C588 C589 1.390 . S
C589 C588 1.390 . S
C589 C590 1.394 . S
C589 C595 1.465 . S
C590 C585 1.399 . S
C590 C589 1.394 . S
C590 C591 1.516 . S
C591 C590 1.516 . S
C591 C592 1.502 . S
C591 C593 1.561 . S
C591 C594 1.526 . S
C592 H576 0.959 . S
C592 H577 0.959 . S
C592 H578 0.961 . S
C592 C591 1.502 . S
C593 H579 0.960 . S
C593 H580 0.961 . S
C593 H581 0.959 . S
C593 C591 1.561 . S
C594 C591 1.526 . S
C594 C595 1.396 . S
C594 C599 1.390 . S
C595 C589 1.465 . S
C595 C594 1.396 . S
C595 C596 1.399 . S
C596 H582 0.929 . S
C596 C595 1.399 . S
C596 C597 1.385 . S
C597 H583 0.931 . S
C597 C596 1.385 . S
C597 C598 1.389 . S
C598 C597 1.389 . S
C598 C599 1.387 . S
C599 H584 0.930 . S
C599 C594 1.390 . S
C599 C598 1.387 . S
H600 C612 0.930 . S
H601 C614 0.930 . S
H602 C615 0.930 . S
H603 C619 0.959 . S
H604 C619 0.959 . S
H605 C619 0.961 . S
H606 C620 0.960 . S
H607 C620 0.950 1_556 S
H608 C620 0.959 . S
H609 C623 0.929 . S
H610 C624 0.931 . S
H611 C626 0.930 . S
C612 H600 0.930 . S
C612 C613 1.399 . S
C612 C617 1.399 . S
C613 C612 1.399 . S
C613 C614 1.376 . S
C614 H601 0.930 . S
C614 C613 1.376 . S
C614 C615 1.388 . S
C615 H602 0.930 . S
C615 C614 1.388 . S
C615 C616 1.390 . S
C616 C615 1.390 . S
C616 C617 1.394 . S
C616 C622 1.465 . S
C617 C612 1.399 . S
C617 C616 1.394 . S
C617 C618 1.516 . S
C618 C617 1.516 . S
C618 C619 1.502 . S
C618 C620 1.561 . S
C618 C621 1.526 . S
C619 H603 0.959 . S
C619 H604 0.959 . S
C619 H605 0.961 . S
C619 C618 1.502 . S
C620 H606 0.960 . S
C620 H607 0.950 1_554 S
C620 H608 0.959 . S
C620 C618 1.561 . S
C621 C618 1.526 . S
C621 C622 1.396 . S
C621 C626 1.390 . S
C622 C616 1.465 . S
C622 C621 1.396 . S
C622 C623 1.399 . S
C623 H609 0.929 . S
C623 C622 1.399 . S
C623 C624 1.385 . S
C624 H610 0.931 . S
C624 C623 1.385 . S
C624 C625 1.389 . S
C625 C624 1.389 . S
C625 C626 1.387 . S
C626 H611 0.930 . S
C626 C621 1.390 . S
C626 C625 1.387 . S
H627 C639 0.930 . S
H628 C641 0.930 . S
H629 C642 0.930 . S
H630 C646 0.945 1_455 S
H631 C646 0.946 1_455 S
H632 C646 0.975 . S
H633 C647 0.960 1_655 S
H634 C647 0.961 . S
H635 C647 0.959 . S
H636 C650 0.929 . S
H637 C651 0.931 . S
H638 C653 0.930 . S
C639 H627 0.930 . S
C639 C640 1.399 . S
C639 C644 1.399 . S
C640 C639 1.399 . S
C640 C641 1.376 . S
C641 H628 0.930 . S
C641 C640 1.376 . S
C641 C642 1.388 . S
C642 H629 0.930 . S
C642 C641 1.388 . S
C642 C643 1.390 . S
C643 C642 1.390 . S
C643 C644 1.394 . S
C643 C649 1.465 1_655 S
C644 C639 1.399 . S
C644 C643 1.394 . S
C644 C645 1.516 1_655 S
C645 C644 1.516 1_455 S
C645 C646 1.509 1_455 S
C645 C647 1.561 . S
C645 C648 1.526 . S
C646 H630 0.945 1_655 S
C646 H631 0.946 1_655 S
C646 H632 0.975 . S
C646 C645 1.509 1_655 S
C647 H633 0.960 1_455 S
C647 H634 0.961 . S
C647 H635 0.959 . S
C647 C645 1.561 . S
C648 C645 1.526 . S
C648 C649 1.396 . S
C648 C653 1.390 . S
C649 C643 1.465 1_455 S
C649 C648 1.396 . S
C649 C650 1.399 . S
C650 H636 0.929 . S
C650 C649 1.399 . S
C650 C651 1.385 . S
C651 H637 0.931 . S
C651 C650 1.385 . S
C651 C652 1.389 . S
C652 C651 1.389 . S
C652 C653 1.387 . S
C653 H638 0.930 . S
C653 C648 1.390 . S
C653 C652 1.387 . S
H654 C666 0.930 . S
H655 C668 0.930 . S
H656 C669 0.930 . S
H657 C673 0.973 1_565 S
H658 C673 0.940 1_565 S
H659 C673 0.983 . S
H660 C674 0.960 1_545 S
H661 C674 0.961 . S
H662 C674 0.959 . S
H663 C677 0.929 . S
H664 C678 0.931 . S
H665 C680 0.930 . S
C666 H654 0.930 . S
C666 C667 1.399 . S
C666 C671 1.399 . S
C667 C666 1.399 . S
C667 C668 1.376 . S
C668 H655 0.930 . S
C668 C667 1.376 . S
C668 C669 1.388 . S
C669 H656 0.930 . S
C669 C668 1.388 . S
C669 C670 1.390 . S
C670 C669 1.390 . S
C670 C671 1.394 . S
C670 C676 1.465 1_545 S
C671 C666 1.399 . S
C671 C670 1.394 . S
C671 C672 1.520 1_545 S
C672 C671 1.520 1_565 S
C672 C673 1.492 1_565 S
C672 C674 1.559 . S
C672 C675 1.522 . S
C673 H657 0.973 1_545 S
C673 H658 0.940 1_545 S
C673 H659 0.983 . S
C673 C672 1.492 1_545 S
C674 H660 0.960 1_565 S
C674 H661 0.961 . S
C674 H662 0.959 . S
C674 C672 1.559 . S
C675 C672 1.522 . S
C675 C676 1.396 . S
C675 C680 1.390 . S
C676 C670 1.465 1_565 S
C676 C675 1.396 . S
C676 C677 1.399 . S
C677 H663 0.929 . S
C677 C676 1.399 . S
C677 C678 1.385 . S
C678 H664 0.931 . S
C678 C677 1.385 . S
C678 C679 1.389 . S
C679 C678 1.389 . S
C679 C680 1.387 . S
C680 H665 0.930 . S
C680 C675 1.390 . S
C680 C679 1.387 . S
H681 C693 0.930 . S
H682 C695 0.930 . S
H683 C696 0.930 . S
H684 C700 0.959 . S
H685 C700 0.959 . S
H686 C700 0.961 . S
H687 C701 0.960 . S
H688 C701 0.961 . S
H689 C701 0.959 . S
H690 C704 0.929 . S
H691 C705 0.931 . S
H692 C707 0.930 . S
C693 H681 0.930 . S
C693 C694 1.399 . S
C693 C698 1.399 . S
C694 C693 1.399 . S
C694 C695 1.376 . S
C695 H682 0.930 . S
C695 C694 1.376 . S
C695 C696 1.388 . S
C696 H683 0.930 . S
C696 C695 1.388 . S
C696 C697 1.390 . S
C697 C696 1.390 . S
C697 C698 1.394 . S
C697 C703 1.465 . S
C698 C693 1.399 . S
C698 C697 1.394 . S
C698 C699 1.516 . S
C699 C698 1.516 . S
C699 C700 1.502 . S
C699 C701 1.561 . S
C699 C702 1.526 . S
C700 H684 0.959 . S
C700 H685 0.959 . S
C700 H686 0.961 . S
C700 C699 1.502 . S
C701 H687 0.960 . S
C701 H688 0.961 . S
C701 H689 0.959 . S
C701 C699 1.561 . S
C702 C699 1.526 . S
C702 C703 1.396 . S
C702 C707 1.390 . S
C703 C697 1.465 . S
C703 C702 1.396 . S
C703 C704 1.399 . S
C704 H690 0.929 . S
C704 C703 1.399 . S
C704 C705 1.385 . S
C705 H691 0.931 . S
C705 C704 1.385 . S
C705 C706 1.389 . S
C706 C705 1.389 . S
C706 C707 1.387 . S
C707 H692 0.930 . S
C707 C702 1.390 . S
C707 C706 1.387 . S
H708 C720 0.930 . S
H709 C722 0.930 . S
H710 C723 0.930 . S
H711 C727 0.959 . S
H712 C727 0.959 . S
H713 C727 0.961 1_455 S
H714 C728 0.960 . S
H715 C728 0.961 1_655 S
H716 C728 0.953 . S
H717 C731 0.929 . S
H718 C732 0.931 . S
H719 C734 0.930 . S
C720 H708 0.930 . S
C720 C721 1.399 . S
C720 C725 1.399 . S
C721 C720 1.399 . S
C721 C722 1.376 . S
C722 H709 0.930 . S
C722 C721 1.376 . S
C722 C723 1.388 . S
C723 H710 0.930 . S
C723 C722 1.388 . S
C723 C724 1.390 . S
C724 C723 1.390 . S
C724 C725 1.394 . S
C724 C730 1.465 1_455 S
C725 C720 1.399 . S
C725 C724 1.394 . S
C725 C726 1.518 . S
C726 C725 1.518 . S
C726 C727 1.501 1_455 S
C726 C728 1.562 . S
C726 C729 1.524 1_455 S
C727 H711 0.959 . S
C727 H712 0.959 . S
C727 H713 0.961 1_655 S
C727 C726 1.501 1_655 S
C728 H714 0.960 . S
C728 H715 0.961 1_455 S
C728 H716 0.953 . S
C728 C726 1.562 . S
C729 C726 1.524 1_655 S
C729 C730 1.396 . S
C729 C734 1.390 . S
C730 C724 1.465 1_655 S
C730 C729 1.396 . S
C730 C731 1.399 . S
C731 H717 0.929 . S
C731 C730 1.399 . S
C731 C732 1.385 . S
C732 H718 0.931 . S
C732 C731 1.385 . S
C732 C733 1.389 . S
C733 C732 1.389 . S
C733 C734 1.387 . S
C734 H719 0.930 . S
C734 C729 1.390 . S
C734 C733 1.387 . S
H735 C747 0.930 . S
H736 C749 0.930 . S
H737 C750 0.930 . S
H738 C754 0.945 1_545 S
H739 C754 0.935 1_545 S
H740 C754 0.987 . S
H741 C755 0.960 1_565 S
H742 C755 0.961 . S
H743 C755 0.959 . S
H744 C758 0.929 . S
H745 C759 0.931 . S
H746 C761 0.930 . S
C747 H735 0.930 . S
C747 C748 1.399 . S
C747 C752 1.399 . S
C748 C747 1.399 . S
C748 C749 1.376 . S
C749 H736 0.930 . S
C749 C748 1.376 . S
C749 C750 1.388 . S
C750 H737 0.930 . S
C750 C749 1.388 . S
C750 C751 1.390 . S
C751 C750 1.390 . S
C751 C752 1.394 . S
C751 C757 1.465 1_565 S
C752 C747 1.399 . S
C752 C751 1.394 . S
C752 C753 1.513 . S
C753 C752 1.513 . S
C753 C754 1.518 . S
C753 C755 1.560 1_565 S
C753 C756 1.528 1_565 S
C754 H738 0.945 1_565 S
C754 H739 0.935 1_565 S
C754 H740 0.987 . S
C754 C753 1.518 . S
C755 H741 0.960 1_545 S
C755 H742 0.961 . S
C755 H743 0.959 . S
C755 C753 1.560 1_545 S
C756 C753 1.528 1_545 S
C756 C757 1.396 . S
C756 C761 1.390 . S
C757 C751 1.465 1_545 S
C757 C756 1.396 . S
C757 C758 1.399 . S
C758 H744 0.929 . S
C758 C757 1.399 . S
C758 C759 1.385 . S
C759 H745 0.931 . S
C759 C758 1.385 . S
C759 C760 1.389 . S
C760 C759 1.389 . S
C760 C761 1.387 . S
C761 H746 0.930 . S
C761 C756 1.390 . S
C761 C760 1.387 . S
H762 C774 0.930 . S
H763 C776 0.930 . S
H764 C777 0.930 . S
H765 C781 0.959 . S
H766 C781 0.959 . S
H767 C781 0.961 . S
H768 C782 0.960 . S
H769 C782 0.961 . S
H770 C782 0.959 . S
H771 C785 0.929 . S
H772 C786 0.931 . S
H773 C788 0.930 . S
C774 H762 0.930 . S
C774 C775 1.399 . S
C774 C779 1.399 . S
C775 C774 1.399 . S
C775 C776 1.376 . S
C776 H763 0.930 . S
C776 C775 1.376 . S
C776 C777 1.388 . S
C777 H764 0.930 . S
C777 C776 1.388 . S
C777 C778 1.390 . S
C778 C777 1.390 . S
C778 C779 1.394 . S
C778 C784 1.465 . S
C779 C774 1.399 . S
C779 C778 1.394 . S
C779 C780 1.516 . S
C780 C779 1.516 . S
C780 C781 1.502 . S
C780 C782 1.561 . S
C780 C783 1.526 . S
C781 H765 0.959 . S
C781 H766 0.959 . S
C781 H767 0.961 . S
C781 C780 1.502 . S
C782 H768 0.960 . S
C782 H769 0.961 . S
C782 H770 0.959 . S
C782 C780 1.561 . S
C783 C780 1.526 . S
C783 C784 1.396 . S
C783 C788 1.390 . S
C784 C778 1.465 . S
C784 C783 1.396 . S
C784 C785 1.399 . S
C785 H771 0.929 . S
C785 C784 1.399 . S
C785 C786 1.385 . S
C786 H772 0.931 . S
C786 C785 1.385 . S
C786 C787 1.389 . S
C787 C786 1.389 . S
C787 C788 1.387 . S
C788 H773 0.930 . S
C788 C783 1.390 . S
C788 C787 1.387 . S
H789 C801 0.930 . S
H790 C803 0.930 . S
H791 C804 0.930 . S
H792 C808 0.959 . S
H793 C808 0.959 . S
H794 C808 0.961 . S
H795 C809 0.960 . S
H796 C809 0.961 . S
H797 C809 0.959 . S
H798 C812 0.929 . S
H799 C813 0.931 . S
H800 C815 0.930 . S
C801 H789 0.930 . S
C801 C802 1.399 . S
C801 C806 1.399 . S
C802 C801 1.399 . S
C802 C803 1.376 . S
C803 H790 0.930 . S
C803 C802 1.376 . S
C803 C804 1.388 . S
C804 H791 0.930 . S
C804 C803 1.388 . S
C804 C805 1.390 . S
C805 C804 1.390 . S
C805 C806 1.394 . S
C805 C811 1.465 . S
C806 C801 1.399 . S
C806 C805 1.394 . S
C806 C807 1.516 . S
C807 C806 1.516 . S
C807 C808 1.502 . S
C807 C809 1.561 . S
C807 C810 1.526 . S
C808 H792 0.959 . S
C808 H793 0.959 . S
C808 H794 0.961 . S
C808 C807 1.502 . S
C809 H795 0.960 . S
C809 H796 0.961 . S
C809 H797 0.959 . S
C809 C807 1.561 . S
C810 C807 1.526 . S
C810 C811 1.396 . S
C810 C815 1.390 . S
C811 C805 1.465 . S
C811 C810 1.396 . S
C811 C812 1.399 . S
C812 H798 0.929 . S
C812 C811 1.399 . S
C812 C813 1.385 . S
C813 H799 0.931 . S
C813 C812 1.385 . S
C813 C814 1.389 . S
C814 C813 1.389 . S
C814 C815 1.387 . S
C815 H800 0.930 . S
C815 C810 1.390 . S
C815 C814 1.387 . S
H816 C828 0.930 . S
H817 C830 0.930 . S
H818 C831 0.930 . S
H819 C835 0.959 . S
H820 C835 0.959 . S
H821 C835 0.961 . S
H822 C836 0.960 . S
H823 C836 0.961 . S
H824 C836 0.959 . S
H825 C839 0.929 . S
H826 C840 0.931 . S
H827 C842 0.930 . S
C828 H816 0.930 . S
C828 C829 1.399 . S
C828 C833 1.399 . S
C829 C828 1.399 . S
C829 C830 1.376 . S
C830 H817 0.930 . S
C830 C829 1.376 . S
C830 C831 1.388 . S
C831 H818 0.930 . S
C831 C830 1.388 . S
C831 C832 1.390 . S
C832 C831 1.390 . S
C832 C833 1.394 . S
C832 C838 1.465 . S
C833 C828 1.399 . S
C833 C832 1.394 . S
C833 C834 1.516 . S
C834 C833 1.516 . S
C834 C835 1.502 . S
C834 C836 1.561 . S
C834 C837 1.526 . S
C835 H819 0.959 . S
C835 H820 0.959 . S
C835 H821 0.961 . S
C835 C834 1.502 . S
C836 H822 0.960 . S
C836 H823 0.961 . S
C836 H824 0.959 . S
C836 C834 1.561 . S
C837 C834 1.526 . S
C837 C838 1.396 . S
C837 C842 1.390 . S
C838 C832 1.465 . S
C838 C837 1.396 . S
C838 C839 1.399 . S
C839 H825 0.929 . S
C839 C838 1.399 . S
C839 C840 1.385 . S
C840 H826 0.931 . S
C840 C839 1.385 . S
C840 C841 1.389 . S
C841 C840 1.389 . S
C841 C842 1.387 . S
C842 H827 0.930 . S
C842 C837 1.390 . S
C842 C841 1.387 . S
H843 C855 0.930 . S
H844 C857 0.930 . S
H845 C858 0.930 . S
H846 C862 0.959 . S
H847 C862 0.959 . S
H848 C862 0.961 . S
H849 C863 0.960 . S
H850 C863 0.961 . S
H851 C863 0.959 . S
H852 C866 0.929 . S
H853 C867 0.931 . S
H854 C869 0.930 . S
C855 H843 0.930 . S
C855 C856 1.399 . S
C855 C860 1.399 . S
C856 C855 1.399 . S
C856 C857 1.376 . S
C857 H844 0.930 . S
C857 C856 1.376 . S
C857 C858 1.388 . S
C858 H845 0.930 . S
C858 C857 1.388 . S
C858 C859 1.390 . S
C859 C858 1.390 . S
C859 C860 1.394 . S
C859 C865 1.465 . S
C860 C855 1.399 . S
C860 C859 1.394 . S
C860 C861 1.516 . S
C861 C860 1.516 . S
C861 C862 1.502 . S
C861 C863 1.561 . S
C861 C864 1.526 . S
C862 H846 0.959 . S
C862 H847 0.959 . S
C862 H848 0.961 . S
C862 C861 1.502 . S
C863 H849 0.960 . S
C863 H850 0.961 . S
C863 H851 0.959 . S
C863 C861 1.561 . S
C864 C861 1.526 . S
C864 C865 1.396 . S
C864 C869 1.390 . S
C865 C859 1.465 . S
C865 C864 1.396 . S
C865 C866 1.399 . S
C866 H852 0.929 . S
C866 C865 1.399 . S
C866 C867 1.385 . S
C867 H853 0.931 . S
C867 C866 1.385 . S
C867 C868 1.389 . S
C868 C867 1.389 . S
C868 C869 1.387 . S
C869 H854 0.930 . S
C869 C864 1.390 . S
C869 C868 1.387 . S
H870 C882 0.930 . S
H871 C884 0.930 . S
H872 C885 0.930 . S
H873 C889 0.959 . S
H874 C889 0.959 . S
H875 C889 0.961 . S
H876 C890 0.960 . S
H877 C890 0.961 . S
H878 C890 0.959 . S
H879 C893 0.929 . S
H880 C894 0.931 . S
H881 C896 0.930 . S
C882 H870 0.930 . S
C882 C883 1.399 . S
C882 C887 1.399 . S
C883 C882 1.399 . S
C883 C884 1.376 . S
C884 H871 0.930 . S
C884 C883 1.376 . S
C884 C885 1.388 . S
C885 H872 0.930 . S
C885 C884 1.388 . S
C885 C886 1.390 . S
C886 C885 1.390 . S
C886 C887 1.394 . S
C886 C892 1.465 . S
C887 C882 1.399 . S
C887 C886 1.394 . S
C887 C888 1.516 . S
C888 C887 1.516 . S
C888 C889 1.502 . S
C888 C890 1.561 . S
C888 C891 1.526 . S
C889 H873 0.959 . S
C889 H874 0.959 . S
C889 H875 0.961 . S
C889 C888 1.502 . S
C890 H876 0.960 . S
C890 H877 0.961 . S
C890 H878 0.959 . S
C890 C888 1.561 . S
C891 C888 1.526 . S
C891 C892 1.396 . S
C891 C896 1.390 . S
C892 C886 1.465 . S
C892 C891 1.396 . S
C892 C893 1.399 . S
C893 H879 0.929 . S
C893 C892 1.399 . S
C893 C894 1.385 . S
C894 H880 0.931 . S
C894 C893 1.385 . S
C894 C895 1.389 . S
C895 C894 1.389 . S
C895 C896 1.387 . S
C896 H881 0.930 . S
C896 C891 1.390 . S
C896 C895 1.387 . S
H897 C909 0.930 . S
H898 C911 0.930 . S
H899 C912 0.930 . S
H900 C916 0.959 . S
H901 C916 0.959 . S
H902 C916 0.961 . S
H903 C917 0.960 . S
H904 C917 0.961 . S
H905 C917 0.959 . S
H906 C920 0.929 . S
H907 C921 0.931 . S
H908 C923 0.930 . S
C909 H897 0.930 . S
C909 C910 1.399 . S
C909 C914 1.399 . S
C910 C909 1.399 . S
C910 C911 1.376 . S
C911 H898 0.930 . S
C911 C910 1.376 . S
C911 C912 1.388 . S
C912 H899 0.930 . S
C912 C911 1.388 . S
C912 C913 1.390 . S
C913 C912 1.390 . S
C913 C914 1.394 . S
C913 C919 1.465 . S
C914 C909 1.399 . S
C914 C913 1.394 . S
C914 C915 1.516 . S
C915 C914 1.516 . S
C915 C916 1.502 . S
C915 C917 1.561 . S
C915 C918 1.526 . S
C916 H900 0.959 . S
C916 H901 0.959 . S
C916 H902 0.961 . S
C916 C915 1.502 . S
C917 H903 0.960 . S
C917 H904 0.961 . S
C917 H905 0.959 . S
C917 C915 1.561 . S
C918 C915 1.526 . S
C918 C919 1.396 . S
C918 C923 1.390 . S
C919 C913 1.465 . S
C919 C918 1.396 . S
C919 C920 1.399 . S
C920 H906 0.929 . S
C920 C919 1.399 . S
C920 C921 1.385 . S
C921 H907 0.931 . S
C921 C920 1.385 . S
C921 C922 1.389 . S
C922 C921 1.389 . S
C922 C923 1.387 . S
C923 H908 0.930 . S
C923 C918 1.390 . S
C923 C922 1.387 . S
C289 C16 1.467 . S
C301 C154 1.458 . S
C316 C39 1.488 . S
C328 C177 1.460 . S
C343 C62 1.456 . S
C355 C200 1.478 . S
C370 C85 1.456 . S
C382 C223 1.474 . S
C397 C108 1.491 . S
C409 C246 1.504 . S
C424 C269 1.505 . S
C436 C131 1.487 . S
C451 N12 1.690 . S
C463 N242 1.715 . S
C478 N35 1.692 . S
C490 N265 1.711 . S
C505 N58 1.692 . S
C517 N150 1.713 . S
C532 N81 1.709 . S
C544 N173 1.695 . S
C559 N104 1.705 . S
C571 N196 1.702 . S
C586 N127 1.717 . S
C598 N219 1.690 . S
C613 N2 1.709 . S
C625 N71 1.661 . S
C640 N25 1.707 . S
C652 N94 1.684 . S
C667 N117 1.707 . S
C679 N48 1.680 . S
C694 N140 1.612 . S
C706 N209 1.648 . S
C721 N232 1.617 . S
C733 N163 1.633 . S
C748 N186 1.709 . S
C760 N255 1.679 . S
C775 C145 1.472 . S
C787 C7 1.456 . S
C802 C30 1.472 . S
C814 C168 1.456 . S
C829 C53 1.477 . S
C841 C191 1.475 . S
C856 C214 1.474 . S
C868 C76 1.459 . S
C883 C237 1.455 . S
C895 C99 1.452 . S
C910 C122 1.450 . S
C922 C260 1.459 . S
